# Generated by pormake.
# Topology cag, (4)-cn, num edge types: 1
# Building blocks:
#     Node 0, Type 0, BuildingBlock: QUQFOY_clean_sbu_3, # of connection points: 4
#     Node 1, Type 0, BuildingBlock: QUQFOY_clean_sbu_3, # of connection points: 4
#     Node 2, Type 0, BuildingBlock: QUQFOY_clean_sbu_3, # of connection points: 4
#     Node 3, Type 0, BuildingBlock: QUQFOY_clean_sbu_3, # of connection points: 4
#     Node 4, Type 0, BuildingBlock: QUQFOY_clean_sbu_3, # of connection points: 4
#     Node 5, Type 0, BuildingBlock: QUQFOY_clean_sbu_3, # of connection points: 4
#     Node 6, Type 0, BuildingBlock: QUQFOY_clean_sbu_3, # of connection points: 4
#     Node 7, Type 0, BuildingBlock: QUQFOY_clean_sbu_3, # of connection points: 4
#     Node 8, Type 0, BuildingBlock: QUQFOY_clean_sbu_3, # of connection points: 4
#     Node 9, Type 0, BuildingBlock: QUQFOY_clean_sbu_3, # of connection points: 4
#     Node 10, Type 0, BuildingBlock: QUQFOY_clean_sbu_3, # of connection points: 4
#     Node 11, Type 0, BuildingBlock: QUQFOY_clean_sbu_3, # of connection points: 4
#     Node 12, Type 0, BuildingBlock: QUQFOY_clean_sbu_3, # of connection points: 4
#     Node 13, Type 0, BuildingBlock: QUQFOY_clean_sbu_3, # of connection points: 4
#     Node 14, Type 0, BuildingBlock: QUQFOY_clean_sbu_3, # of connection points: 4
#     Node 15, Type 0, BuildingBlock: QUQFOY_clean_sbu_3, # of connection points: 4
#     Edge 16, Type (0, 0), BuildingBlock: UVAHIK_clean_linker_0, # of connection points: 2
#     Edge 17, Type (0, 0), BuildingBlock: UVAHIK_clean_linker_0, # of connection points: 2
#     Edge 18, Type (0, 0), BuildingBlock: UVAHIK_clean_linker_0, # of connection points: 2
#     Edge 19, Type (0, 0), BuildingBlock: UVAHIK_clean_linker_0, # of connection points: 2
#     Edge 20, Type (0, 0), BuildingBlock: UVAHIK_clean_linker_0, # of connection points: 2
#     Edge 21, Type (0, 0), BuildingBlock: UVAHIK_clean_linker_0, # of connection points: 2
#     Edge 22, Type (0, 0), BuildingBlock: UVAHIK_clean_linker_0, # of connection points: 2
#     Edge 23, Type (0, 0), BuildingBlock: UVAHIK_clean_linker_0, # of connection points: 2
#     Edge 24, Type (0, 0), BuildingBlock: UVAHIK_clean_linker_0, # of connection points: 2
#     Edge 25, Type (0, 0), BuildingBlock: UVAHIK_clean_linker_0, # of connection points: 2
#     Edge 26, Type (0, 0), BuildingBlock: UVAHIK_clean_linker_0, # of connection points: 2
#     Edge 27, Type (0, 0), BuildingBlock: UVAHIK_clean_linker_0, # of connection points: 2
#     Edge 28, Type (0, 0), BuildingBlock: UVAHIK_clean_linker_0, # of connection points: 2
#     Edge 29, Type (0, 0), BuildingBlock: UVAHIK_clean_linker_0, # of connection points: 2
#     Edge 30, Type (0, 0), BuildingBlock: UVAHIK_clean_linker_0, # of connection points: 2
#     Edge 31, Type (0, 0), BuildingBlock: UVAHIK_clean_linker_0, # of connection points: 2
#     Edge 32, Type (0, 0), BuildingBlock: UVAHIK_clean_linker_0, # of connection points: 2
#     Edge 33, Type (0, 0), BuildingBlock: UVAHIK_clean_linker_0, # of connection points: 2
#     Edge 34, Type (0, 0), BuildingBlock: UVAHIK_clean_linker_0, # of connection points: 2
#     Edge 35, Type (0, 0), BuildingBlock: UVAHIK_clean_linker_0, # of connection points: 2
#     Edge 36, Type (0, 0), BuildingBlock: UVAHIK_clean_linker_0, # of connection points: 2
#     Edge 37, Type (0, 0), BuildingBlock: UVAHIK_clean_linker_0, # of connection points: 2
#     Edge 38, Type (0, 0), BuildingBlock: UVAHIK_clean_linker_0, # of connection points: 2
#     Edge 39, Type (0, 0), BuildingBlock: UVAHIK_clean_linker_0, # of connection points: 2
#     Edge 40, Type (0, 0), BuildingBlock: UVAHIK_clean_linker_0, # of connection points: 2
#     Edge 41, Type (0, 0), BuildingBlock: UVAHIK_clean_linker_0, # of connection points: 2
#     Edge 42, Type (0, 0), BuildingBlock: UVAHIK_clean_linker_0, # of connection points: 2
#     Edge 43, Type (0, 0), BuildingBlock: UVAHIK_clean_linker_0, # of connection points: 2
#     Edge 44, Type (0, 0), BuildingBlock: UVAHIK_clean_linker_0, # of connection points: 2
#     Edge 45, Type (0, 0), BuildingBlock: UVAHIK_clean_linker_0, # of connection points: 2
#     Edge 46, Type (0, 0), BuildingBlock: UVAHIK_clean_linker_0, # of connection points: 2
#     Edge 47, Type (0, 0), BuildingBlock: UVAHIK_clean_linker_0, # of connection points: 2
# Relax obj value: 0.109
# Max RMSD: 0.143
# Mean RMSD: 0.143
data_MOF--net-cag--node1-QUQFOY_clean_sbu_3--edge1-UVAHIK_clean_linker_0
_symmetry_space_group_name_H-M    P1
_symmetry_Int_Tables_number       1
_symmetry_cell_setting            triclinic
loop_
_symmetry_equiv_pos_as_xyz
'x, y, z'
_cell_length_a     58.386743
_cell_length_b     65.74989
_cell_length_c     55.068832
_cell_angle_alpha  90.018603
_cell_angle_beta   89.877483
_cell_angle_gamma 90.151007
loop_
_atom_site_label
_atom_site_type_symbol
_atom_site_fract_x
_atom_site_fract_y
_atom_site_fract_z
_atom_type_partial_charge
C0 C 0.33478 0.14114 0.04518 0.0
O1 O 0.33036 0.14721 0.02383 0.0
Cd2 Cd 0.29223 0.14544 0.00784 0.0
O3 O 0.31878 0.1354 0.05939 0.0
Cd4 Cd 0.27641 0.13341 0.05963 0.0
C5 C 0.27865 0.09556 0.01839 0.0
O6 O 0.26847 0.16373 0.0362 0.0
O7 O 0.23979 0.14329 0.04096 0.0
O8 O 0.27458 0.14787 0.10038 0.0
C9 C 0.24717 0.16051 0.03406 0.0
O10 O 0.28322 0.10903 0.00246 0.0
C11 C 0.2645 0.13266 0.10981 0.0
O12 O 0.2763 0.10048 0.04056 0.0
O13 O 0.25997 0.11781 0.09587 0.0
C14 C 0.13476 0.83706 0.54977 0.0
O15 O 0.13924 0.83233 0.52793 0.0
Cd16 Cd 0.17754 0.83281 0.51207 0.0
O17 O 0.15083 0.84165 0.5644 0.0
Cd18 Cd 0.19311 0.84419 0.56408 0.0
C19 C 0.19189 0.88225 0.52284 0.0
O20 O 0.20077 0.81395 0.5403 0.0
O21 O 0.2297 0.83401 0.54554 0.0
O22 O 0.19516 0.82944 0.60463 0.0
C23 C 0.22215 0.81693 0.5384 0.0
O24 O 0.1877 0.86882 0.50678 0.0
C25 C 0.20518 0.8446 0.61417 0.0
O26 O 0.19349 0.87733 0.54508 0.0
O27 O 0.20953 0.85961 0.60041 0.0
C28 C 0.33968 0.83888 0.93067 0.0
O29 O 0.33536 0.83464 0.95271 0.0
Cd30 Cd 0.29732 0.83418 0.96907 0.0
O31 O 0.32347 0.84272 0.91591 0.0
Cd32 Cd 0.28106 0.84436 0.91627 0.0
C33 C 0.28135 0.88299 0.95701 0.0
O34 O 0.2753 0.81432 0.94074 0.0
O35 O 0.24494 0.83229 0.93487 0.0
O36 O 0.27958 0.82964 0.87561 0.0
C37 C 0.25379 0.81598 0.94274 0.0
O38 O 0.28607 0.86996 0.97334 0.0
C39 C 0.26888 0.84446 0.8662 0.0
O40 O 0.27973 0.87767 0.9349 0.0
O41 O 0.26385 0.85918 0.88012 0.0
C42 C 0.13302 0.13737 0.4277 0.0
O43 O 0.13722 0.14331 0.44919 0.0
Cd44 Cd 0.17499 0.14288 0.46625 0.0
O45 O 0.14915 0.1321 0.41343 0.0
Cd46 Cd 0.19154 0.13079 0.413 0.0
C47 C 0.19061 0.09341 0.45531 0.0
O48 O 0.19785 0.16096 0.43724 0.0
O49 O 0.22807 0.14316 0.42977 0.0
O50 O 0.1922 0.14521 0.37228 0.0
C51 C 0.21939 0.15917 0.43872 0.0
O52 O 0.18532 0.10688 0.47097 0.0
C53 C 0.20274 0.13038 0.36266 0.0
O54 O 0.19298 0.09808 0.43305 0.0
O55 O 0.20798 0.11565 0.37648 0.0
C56 C 0.57641 0.8668 0.86785 0.0
O57 O 0.58201 0.88023 0.85234 0.0
Cd58 Cd 0.62085 0.89049 0.84471 0.0
O59 O 0.59169 0.85761 0.88013 0.0
Cd60 Cd 0.63391 0.85727 0.88367 0.0
C61 C 0.6354 0.90681 0.90137 0.0
O62 O 0.64166 0.85916 0.84022 0.0
O63 O 0.67115 0.86141 0.86354 0.0
O64 O 0.63127 0.82089 0.89358 0.0
C65 C 0.66324 0.8601 0.8422 0.0
O66 O 0.63196 0.91185 0.87936 0.0
C67 C 0.644 0.82229 0.9122 0.0
O68 O 0.63561 0.88819 0.90753 0.0
O69 O 0.65175 0.83983 0.91732 0.0
C70 C 0.89598 0.10994 0.3641 0.0
O71 O 0.89036 0.09875 0.34627 0.0
Cd72 Cd 0.85126 0.08873 0.33906 0.0
O73 O 0.88082 0.1175 0.37807 0.0
Cd74 Cd 0.83879 0.11894 0.38186 0.0
C75 C 0.83648 0.06842 0.39415 0.0
O76 O 0.82961 0.11979 0.33878 0.0
O77 O 0.80097 0.11581 0.36321 0.0
O78 O 0.83985 0.15509 0.39233 0.0
C79 C 0.80811 0.11848 0.34169 0.0
O80 O 0.84053 0.06498 0.37179 0.0
C81 C 0.83044 0.1527 0.41296 0.0
O82 O 0.83596 0.08652 0.40223 0.0
O83 O 0.82516 0.13467 0.41903 0.0
C84 C 0.57113 0.10937 0.10786 0.0
O85 O 0.57566 0.09776 0.12563 0.0
Cd86 Cd 0.6138 0.0863 0.13429 0.0
O87 O 0.58706 0.11652 0.0945 0.0
Cd88 Cd 0.6294 0.11598 0.09313 0.0
C89 C 0.62954 0.06575 0.07976 0.0
O90 O 0.6364 0.11685 0.13691 0.0
O91 O 0.66586 0.11138 0.11418 0.0
O92 O 0.62866 0.15189 0.08113 0.0
C93 C 0.65792 0.11487 0.13519 0.0
O94 O 0.62489 0.0623 0.10199 0.0
C95 C 0.64226 0.14952 0.06331 0.0
O96 O 0.63088 0.08387 0.07189 0.0
O97 O 0.64934 0.1316 0.05928 0.0
C98 C 0.89821 0.8706 0.60804 0.0
O99 O 0.89272 0.8845 0.62298 0.0
Cd100 Cd 0.85386 0.895 0.63014 0.0
O101 O 0.88288 0.86122 0.59598 0.0
Cd102 Cd 0.84079 0.86135 0.59195 0.0
C103 C 0.83874 0.91074 0.57361 0.0
O104 O 0.83237 0.86397 0.63517 0.0
O105 O 0.80326 0.86601 0.61123 0.0
O106 O 0.84007 0.82456 0.58464 0.0
C107 C 0.81083 0.86489 0.63274 0.0
O108 O 0.84247 0.91608 0.59547 0.0
C109 C 0.83057 0.82604 0.56399 0.0
O110 O 0.83858 0.89205 0.56775 0.0
O111 O 0.82609 0.84384 0.55652 0.0
C112 C 0.83573 0.63825 0.04903 0.0
O113 O 0.83105 0.64252 0.02711 0.0
Cd114 Cd 0.79265 0.64205 0.01177 0.0
O115 O 0.81976 0.63406 0.06403 0.0
Cd116 Cd 0.77741 0.63168 0.06433 0.0
C117 C 0.77785 0.59292 0.02394 0.0
O118 O 0.76984 0.66152 0.03988 0.0
O119 O 0.74077 0.64176 0.04584 0.0
O120 O 0.77559 0.64708 0.10464 0.0
C121 C 0.74845 0.65864 0.03818 0.0
O122 O 0.78202 0.60606 0.00753 0.0
C123 C 0.76555 0.63208 0.11458 0.0
O124 O 0.77655 0.5982 0.0461 0.0
O125 O 0.76109 0.61689 0.10115 0.0
C126 C 0.6346 0.33849 0.54676 0.0
O127 O 0.63929 0.33392 0.52489 0.0
Cd128 Cd 0.67762 0.33302 0.50899 0.0
O129 O 0.65053 0.34252 0.5618 0.0
Cd130 Cd 0.69282 0.34437 0.56288 0.0
C131 C 0.69418 0.38193 0.52042 0.0
O132 O 0.69916 0.31429 0.53851 0.0
O133 O 0.72956 0.33152 0.54735 0.0
O134 O 0.69298 0.33024 0.60381 0.0
C135 C 0.7208 0.31574 0.53787 0.0
O136 O 0.6894 0.36861 0.50442 0.0
C137 C 0.70307 0.34537 0.6134 0.0
O138 O 0.69534 0.37712 0.54275 0.0
O139 O 0.7083 0.36005 0.59947 0.0
C140 C 0.83872 0.33948 0.92899 0.0
O141 O 0.83455 0.33441 0.9508 0.0
Cd142 Cd 0.79665 0.33277 0.96738 0.0
O143 O 0.8224 0.34356 0.91446 0.0
Cd144 Cd 0.77994 0.34443 0.91519 0.0
C145 C 0.77947 0.38165 0.95777 0.0
O146 O 0.7747 0.31358 0.93839 0.0
O147 O 0.74417 0.33158 0.93366 0.0
O148 O 0.77813 0.33049 0.87419 0.0
C149 C 0.75319 0.31507 0.94068 0.0
O150 O 0.78459 0.36815 0.97339 0.0
C151 C 0.76722 0.34539 0.86527 0.0
O152 O 0.77789 0.3771 0.9354 0.0
O153 O 0.76232 0.35989 0.87956 0.0
C154 C 0.63218 0.63755 0.43273 0.0
O155 O 0.63651 0.64125 0.45489 0.0
Cd156 Cd 0.67454 0.64194 0.47144 0.0
O157 O 0.64837 0.63424 0.41769 0.0
Cd158 Cd 0.69071 0.63273 0.4174 0.0
C159 C 0.69169 0.5937 0.45799 0.0
O160 O 0.69652 0.66203 0.44335 0.0
O161 O 0.7271 0.64529 0.43416 0.0
O162 O 0.69194 0.64786 0.3769 0.0
C163 C 0.71815 0.66069 0.44423 0.0
O164 O 0.68658 0.60637 0.47461 0.0
C165 C 0.70224 0.63297 0.36711 0.0
O166 O 0.69311 0.59936 0.43596 0.0
O167 O 0.70711 0.61802 0.38072 0.0
C168 C 0.07527 0.37045 0.86677 0.0
O169 O 0.081 0.38378 0.85119 0.0
Cd170 Cd 0.12008 0.39322 0.84323 0.0
O171 O 0.09048 0.36105 0.87892 0.0
Cd172 Cd 0.13267 0.36006 0.88215 0.0
C173 C 0.13571 0.40967 0.89943 0.0
O174 O 0.14018 0.36148 0.83859 0.0
O175 O 0.16985 0.36321 0.86175 0.0
O176 O 0.12935 0.32377 0.89222 0.0
C177 C 0.16179 0.36188 0.84047 0.0
O178 O 0.13206 0.41468 0.87744 0.0
C179 C 0.14209 0.32502 0.91085 0.0
O180 O 0.13554 0.39108 0.90571 0.0
O181 O 0.15014 0.34245 0.91593 0.0
C182 C 0.39589 0.61004 0.36813 0.0
O183 O 0.39035 0.5976 0.35148 0.0
Cd184 Cd 0.35136 0.58789 0.34342 0.0
O185 O 0.38056 0.61843 0.38119 0.0
Cd186 Cd 0.33842 0.61877 0.38494 0.0
C187 C 0.33657 0.56846 0.3987 0.0
O188 O 0.33005 0.61914 0.34153 0.0
O189 O 0.30101 0.61554 0.36543 0.0
O190 O 0.34153 0.65468 0.39647 0.0
C191 C 0.3085 0.618 0.34403 0.0
O192 O 0.34007 0.56473 0.37631 0.0
C193 C 0.32897 0.65287 0.41522 0.0
O194 O 0.33649 0.58666 0.40648 0.0
O195 O 0.32113 0.63526 0.4198 0.0
C196 C 0.07243 0.60848 0.10993 0.0
O197 O 0.07765 0.59558 0.12615 0.0
Cd198 Cd 0.11627 0.58556 0.13499 0.0
O199 O 0.08801 0.61719 0.09743 0.0
Cd200 Cd 0.13032 0.61687 0.09491 0.0
C201 C 0.13222 0.56681 0.07993 0.0
O202 O 0.13764 0.61677 0.13864 0.0
O203 O 0.16712 0.61281 0.1155 0.0
O204 O 0.12901 0.653 0.08369 0.0
C205 C 0.15921 0.61548 0.13669 0.0
O206 O 0.1284 0.56272 0.10217 0.0
C207 C 0.14244 0.651 0.06567 0.0
O208 O 0.13232 0.58513 0.07259 0.0
O209 O 0.14962 0.63319 0.06117 0.0
C210 C 0.39758 0.36714 0.60767 0.0
O211 O 0.39194 0.38035 0.62341 0.0
Cd212 Cd 0.35298 0.39037 0.63097 0.0
O213 O 0.38235 0.35813 0.59506 0.0
Cd214 Cd 0.34029 0.35787 0.59089 0.0
C215 C 0.33808 0.40788 0.57502 0.0
O216 O 0.33154 0.35915 0.63408 0.0
O217 O 0.30261 0.36183 0.60999 0.0
O218 O 0.33998 0.32129 0.58236 0.0
C219 C 0.31002 0.36016 0.63152 0.0
O220 O 0.34181 0.41246 0.59713 0.0
C221 C 0.33079 0.32316 0.56159 0.0
O222 O 0.33789 0.3894 0.56824 0.0
O223 O 0.32626 0.34109 0.5546 0.0
C224 C 0.21042 0.17074 0.01402 0.0
C225 C 0.23198 0.17601 0.02347 0.0
C226 C 0.19648 0.18561 0.00351 0.0
C227 C 0.18526 0.24015 0.00353 0.0
H228 H 0.16751 0.234 0.9361 0.0
C229 C 0.16424 0.30878 0.94424 0.0
C230 C 0.14787 0.30706 0.9257 0.0
C231 C 0.17059 0.29181 0.95777 0.0
C232 C 0.17183 0.23582 0.95509 0.0
H233 H 0.25565 0.20091 0.02989 0.0
H234 H 0.23112 0.22684 0.01207 0.0
H235 H 0.18545 0.20561 0.95736 0.0
H236 H 0.12488 0.2863 0.90719 0.0
H237 H 0.13567 0.25659 0.93125 0.0
H238 H 0.17187 0.27029 0.00146 0.0
C239 C 0.22508 0.21125 0.01263 0.0
C240 C 0.18215 0.21957 0.9672 0.0
C241 C 0.23916 0.19639 0.02266 0.0
C242 C 0.13763 0.28805 0.9213 0.0
C243 C 0.14389 0.27104 0.93501 0.0
C244 C 0.17468 0.25627 -0.00843 0.0
C245 C 0.2037 0.20599 0.00284 0.0
C246 C 0.18958 0.22185 -0.00873 0.0
C247 C 0.16058 0.2727 0.9533 0.0
C248 C 0.16855 0.25456 0.96696 0.0
H249 H 0.20451 0.15511 0.01439 0.0
H250 H 0.18004 0.18124 -0.00397 0.0
H251 H 0.19058 0.24213 0.02221 0.0
H252 H 0.17254 0.32319 0.94801 0.0
H253 H 0.18386 0.29363 0.97131 0.0
C254 C 0.33344 0.68952 0.42693 0.0
C255 C 0.32304 0.67048 0.43062 0.0
C256 C 0.32687 0.70632 0.44088 0.0
C257 C 0.29419 0.72049 0.49666 0.0
H258 H 0.28515 0.7716 0.46289 0.0
C259 C 0.22974 0.781 0.52676 0.0
C260 C 0.23727 0.80127 0.52796 0.0
C261 C 0.24381 0.766 0.51695 0.0
C262 C 0.28794 0.75751 0.47262 0.0
H263 H 0.29785 0.65401 0.45198 0.0
H264 H 0.28594 0.68323 0.47567 0.0
H265 H 0.30349 0.7433 0.44182 0.0
H266 H 0.26535 0.82183 0.5198 0.0
H267 H 0.28983 0.79547 0.50184 0.0
H268 H 0.27739 0.73447 0.52696 0.0
C269 C 0.29958 0.68523 0.46252 0.0
C270 C 0.2985 0.7413 0.46062 0.0
C271 C 0.30627 0.66846 0.44876 0.0
C272 C 0.25916 0.80629 0.51912 0.0
C273 C 0.27311 0.79129 0.50883 0.0
C274 C 0.28336 0.73659 0.50849 0.0
C275 C 0.30966 0.70442 0.45866 0.0
C276 C 0.30123 0.72243 0.47231 0.0
C277 C 0.26554 0.77102 0.50778 0.0
C278 C 0.2797 0.75506 0.49639 0.0
H279 H 0.34653 0.6915 0.41315 0.0
H280 H 0.33521 0.7208 0.43764 0.0
H281 H 0.29654 0.70636 0.50643 0.0
H282 H 0.21298 0.77668 0.53352 0.0
H283 H 0.23751 0.7505 0.51607 0.0
C284 C 0.24969 0.78058 0.958 0.0
C285 C 0.24014 0.79994 0.95469 0.0
C286 C 0.23735 0.76533 0.96977 0.0
C287 C 0.17901 0.75014 -0.01037 0.0
H288 H 0.21358 0.71332 0.03049 0.0
C289 C 0.14075 0.68797 0.05445 0.0
C290 C 0.15056 0.66862 0.05141 0.0
C291 C 0.14981 0.70481 0.04217 0.0
C292 C 0.20375 0.72348 0.01909 0.0
H293 H 0.21007 0.81851 0.96081 0.0
H294 H 0.18863 0.79194 0.98221 0.0
H295 H 0.23305 0.74161 0.01083 0.0
H296 H 0.17708 0.65163 0.03266 0.0
H297 H 0.19307 0.68106 0.01171 0.0
H298 H 0.14956 0.73195 -0.00137 0.0
C299 C 0.20553 0.78845 0.97526 0.0
C300 C 0.21488 0.73962 0.00769 0.0
C301 C 0.21783 0.80369 0.96313 0.0
C302 C 0.16916 0.66634 0.03543 0.0
C303 C 0.17838 0.68316 0.0235 0.0
C304 C 0.16777 0.73408 0.0014 0.0
C305 C 0.21527 0.76913 0.97891 0.0
C306 C 0.20279 0.75291 -0.00762 0.0
C307 C 0.169 0.70256 0.02702 0.0
C308 C 0.18018 0.72042 0.01582 0.0
H309 H 0.26674 0.77715 0.95139 0.0
H310 H 0.24518 0.7505 0.9716 0.0
H311 H 0.16919 0.75999 0.97786 0.0
H312 H 0.12635 0.69014 0.0666 0.0
H313 H 0.14235 0.71968 0.04516 0.0
C314 C 0.32402 0.28577 0.55678 0.0
C315 C 0.32459 0.30536 0.54664 0.0
C316 C 0.31585 0.2693 0.54324 0.0
C317 C 0.27756 0.25909 0.49162 0.0
H318 H 0.29919 0.20373 0.49898 0.0
C319 C 0.25748 0.17412 0.4501 0.0
C320 C 0.23344 0.17497 0.45062 0.0
C321 C 0.27053 0.18962 0.46074 0.0
C322 C 0.29312 0.21914 0.49652 0.0
H323 H 0.31849 0.32289 0.51396 0.0
H324 H 0.30486 0.29414 0.49015 0.0
H325 H 0.32 0.23158 0.51842 0.0
H326 H 0.20421 0.19236 0.46324 0.0
H327 H 0.22684 0.21905 0.48209 0.0
H328 H 0.2509 0.24681 0.46952 0.0
C329 C 0.31003 0.29154 0.50876 0.0
C330 C 0.30489 0.23507 0.50786 0.0
C331 C 0.31795 0.30801 0.52236 0.0
C332 C 0.22271 0.19136 0.46233 0.0
C333 C 0.23569 0.20674 0.473 0.0
C334 C 0.2659 0.24324 0.48024 0.0
C335 C 0.30829 0.27209 0.51923 0.0
C336 C 0.29706 0.25521 0.50579 0.0
C337 C 0.25974 0.20619 0.4721 0.0
C338 C 0.27328 0.22304 0.48289 0.0
H339 H 0.32904 0.28328 0.57547 0.0
H340 H 0.31455 0.25458 0.55195 0.0
H341 H 0.27082 0.27435 0.48986 0.0
H342 H 0.26621 0.16167 0.44117 0.0
H343 H 0.28903 0.18883 0.45962 0.0
C344 C 0.71177 0.66894 0.01807 0.0
C345 C 0.73349 0.67411 0.02717 0.0
C346 C 0.69803 0.68376 0.00717 0.0
C347 C 0.68761 0.73832 0.00576 0.0
H348 H 0.66953 0.73131 0.93855 0.0
C349 C 0.66658 0.80629 0.9454 0.0
C350 C 0.65005 0.80442 0.92707 0.0
C351 C 0.67304 0.78944 0.95909 0.0
C352 C 0.67395 0.73338 0.95748 0.0
H353 H 0.75769 0.69878 0.03254 0.0
H354 H 0.7335 0.72466 0.01407 0.0
H355 H 0.68726 0.70309 0.96035 0.0
H356 H 0.6269 0.7835 0.90902 0.0
H357 H 0.63787 0.75401 0.93337 0.0
H358 H 0.67449 0.76852 0.00312 0.0
C359 C 0.72718 0.70918 0.01519 0.0
C360 C 0.68415 0.71723 0.96989 0.0
C361 C 0.74106 0.69435 0.0256 0.0
C362 C 0.63979 0.78537 0.92297 0.0
C363 C 0.64614 0.76847 0.93684 0.0
C364 C 0.67714 0.75435 -0.00649 0.0
C365 C 0.70563 0.704 0.00577 0.0
C366 C 0.69168 0.71981 -0.00612 0.0
C367 C 0.66296 0.7703 0.95499 0.0
C368 C 0.67089 0.75231 0.96896 0.0
H369 H 0.70557 0.65342 0.01902 0.0
H370 H 0.68145 0.67947 -2e-05 0.0
H371 H 0.69303 0.74054 0.02438 0.0
H372 H 0.67491 0.82073 0.94893 0.0
H373 H 0.68642 0.79138 0.97249 0.0
C374 C 0.82507 0.19004 0.41954 0.0
C375 C 0.82478 0.17013 0.42874 0.0
C376 C 0.8173 0.20624 0.43375 0.0
C377 C 0.77848 0.21561 0.48522 0.0
H378 H 0.8015 0.2708 0.47992 0.0
C379 C 0.7589 0.30031 0.52779 0.0
C380 C 0.73488 0.29979 0.5264 0.0
C381 C 0.77197 0.28472 0.51746 0.0
C382 C 0.79504 0.25543 0.48183 0.0
H383 H 0.81763 0.15168 0.46052 0.0
H384 H 0.80471 0.17997 0.48554 0.0
H385 H 0.82215 0.24308 0.46014 0.0
H386 H 0.70572 0.28283 0.51266 0.0
H387 H 0.72841 0.25598 0.49434 0.0
H388 H 0.75157 0.2278 0.50707 0.0
C389 C 0.81024 0.18305 0.46712 0.0
C390 C 0.80673 0.23958 0.47029 0.0
C391 C 0.81775 0.16685 0.45283 0.0
C392 C 0.7242 0.28359 0.51421 0.0
C393 C 0.73721 0.26811 0.50385 0.0
C394 C 0.76691 0.23138 0.49682 0.0
C395 C 0.80932 0.20285 0.45753 0.0
C396 C 0.79835 0.21952 0.47154 0.0
C397 C 0.76122 0.26837 0.50555 0.0
C398 C 0.77477 0.25152 0.49486 0.0
H399 H 0.8304 0.19301 0.40102 0.0
H400 H 0.81662 0.22124 0.42569 0.0
H401 H 0.77134 0.20042 0.48636 0.0
H402 H 0.76759 0.31261 0.53711 0.0
H403 H 0.79044 0.28528 0.51919 0.0
C404 C 0.71755 0.30216 0.96109 0.0
C405 C 0.73974 0.29866 0.95216 0.0
C406 C 0.70545 0.28659 0.97282 0.0
C407 C 0.71529 0.23705 0.00341 0.0
H408 H 0.6497 0.23003 -0.00416 0.0
C409 C 0.66919 0.16427 0.03283 0.0
C410 C 0.6506 0.16688 0.04875 0.0
C411 C 0.67854 0.18088 0.02057 0.0
C412 C 0.668 0.23195 -0.00182 0.0
H413 H 0.76633 0.27601 0.94757 0.0
H414 H 0.74507 0.2488 0.9671 0.0
H415 H 0.66916 0.25815 0.9751 0.0
H416 H 0.62656 0.18876 0.0635 0.0
H417 H 0.6428 0.21789 0.04155 0.0
H418 H 0.7142 0.21053 0.02586 0.0
C419 C 0.73721 0.26366 0.96594 0.0
C420 C 0.67914 0.24807 0.98643 0.0
C421 C 0.74937 0.27924 0.95457 0.0
C422 C 0.64095 0.18633 0.05141 0.0
C423 C 0.65014 0.20294 0.03882 0.0
C424 C 0.70423 0.22086 0.01481 0.0
C425 C 0.71525 0.26719 0.97558 0.0
C426 C 0.70299 0.25067 0.98872 0.0
C427 C 0.66931 0.20038 0.02371 0.0
C428 C 0.68056 0.21805 0.01214 0.0
H429 H 0.70974 0.31703 0.95948 0.0
H430 H 0.68866 0.2899 0.98019 0.0
H431 H 0.73353 0.23888 0.00618 0.0
H432 H 0.67699 0.14948 0.03036 0.0
H433 H 0.6932 0.17852 0.0088 0.0
C434 C 0.81656 0.81025 0.52559 0.0
C435 C 0.82395 0.80799 0.54968 0.0
C436 C 0.80824 0.79357 0.51265 0.0
C437 C 0.80355 0.73717 0.51274 0.0
H438 H 0.74817 0.74815 0.47632 0.0
C439 C 0.72117 0.69234 0.46895 0.0
C440 C 0.73203 0.67644 0.45644 0.0
C441 C 0.73401 0.70775 0.47974 0.0
C442 C 0.76355 0.74479 0.48652 0.0
H443 H 0.82933 0.78637 0.57882 0.0
H444 H 0.81422 0.75726 0.55641 0.0
H445 H 0.76829 0.77598 0.49591 0.0
H446 H 0.76491 0.664 0.44576 0.0
H447 H 0.78746 0.69121 0.46444 0.0
H448 H 0.79815 0.70576 0.50398 0.0
C449 C 0.81519 0.77186 0.54737 0.0
C450 C 0.7753 0.76081 0.49746 0.0
C451 C 0.82373 0.78855 0.56027 0.0
C452 C 0.75608 0.67607 0.4553 0.0
C453 C 0.76898 0.69159 0.46608 0.0
C454 C 0.79172 0.72108 0.5018 0.0
C455 C 0.80689 0.77429 0.52359 0.0
C456 C 0.79534 0.7572 0.51086 0.0
C457 C 0.75804 0.70772 0.47818 0.0
C458 C 0.77142 0.72472 0.48883 0.0
H459 H 0.81681 0.825 0.51684 0.0
H460 H 0.80247 0.79588 0.49418 0.0
H461 H 0.81906 0.73392 0.52274 0.0
H462 H 0.70267 0.69296 0.47033 0.0
H463 H 0.72508 0.71972 0.48937 0.0
C464 C 0.27794 0.06774 0.98705 0.0
C465 C 0.2768 0.07386 0.01149 0.0
C466 C 0.27701 0.0471 0.98094 0.0
C467 C 0.2887 -0.00333 0.00633 0.0
H468 H 0.25066 0.97668 0.95383 0.0
C469 C 0.27845 0.91093 0.98791 0.0
C470 C 0.27859 0.90469 0.96351 0.0
C471 C 0.2769 0.93155 -0.00616 0.0
C472 C 0.26157 0.98205 0.96837 0.0
H473 H 0.27346 0.06306 0.04863 0.0
H474 H 0.27194 0.02723 0.03791 0.0
H475 H 0.25085 0.01293 0.9635 0.0
H476 H 0.27696 0.91525 0.92619 0.0
H477 H 0.27477 0.95111 0.93651 0.0
H478 H 0.29979 0.96599 0.01102 0.0
C479 C 0.2737 0.03836 0.02352 0.0
C480 C 0.26165 0.0028 0.9739 0.0
C481 C 0.27444 0.05892 0.02961 0.0
C482 C 0.27681 0.9195 0.94519 0.0
C483 C 0.27541 0.9401 0.95111 0.0
C484 C 0.28875 0.97598 0.00071 0.0
C485 C 0.27514 0.03221 -0.00084 0.0
C486 C 0.27517 0.01029 -0.00702 0.0
C487 C 0.27562 0.9464 0.97549 0.0
C488 C 0.27516 0.96839 0.9817 0.0
H489 H 0.27973 0.07887 0.97267 0.0
H490 H 0.2783 0.04275 0.96201 0.0
H491 H 0.29956 0.00208 0.02091 0.0
H492 H 0.27965 0.89991 0.00246 0.0
H493 H 0.27671 0.93586 0.01282 0.0
C494 C 0.19406 0.90981 0.49134 0.0
C495 C 0.19418 0.90391 0.51588 0.0
C496 C 0.19534 0.93038 0.48502 0.0
C497 C 0.18288 0.98111 0.50906 0.0
H498 H 0.22241 0.00011 0.4571 0.0
C499 C 0.1927 0.06644 0.48746 0.0
C500 C 0.19325 0.07193 0.46281 0.0
C501 C 0.19429 0.04603 0.49433 0.0
C502 C 0.2111 -0.00498 0.47149 0.0
H503 H 0.19608 0.915 0.55299 0.0
H504 H 0.19823 0.95077 0.54189 0.0
H505 H 0.22219 0.96412 0.46797 0.0
H506 H 0.1961 0.06025 0.42604 0.0
H507 H 0.19837 0.02475 0.43798 0.0
H508 H 0.17139 0.01182 0.51234 0.0
C509 C 0.19701 0.93951 0.52759 0.0
C510 C 0.21102 0.97442 0.47771 0.0
C511 C 0.19589 0.91899 0.53391 0.0
C512 C 0.19572 0.05659 0.44521 0.0
C513 C 0.19716 0.0362 0.45206 0.0
C514 C 0.18284 0.00167 0.50274 0.0
C515 C 0.19658 0.94543 0.5031 0.0
C516 C 0.1969 0.96727 0.49655 0.0
C517 C 0.19632 0.03065 0.47669 0.0
C518 C 0.19692 0.00887 0.48385 0.0
H519 H 0.19277 0.89858 0.47702 0.0
H520 H 0.19482 0.93453 0.46599 0.0
H521 H 0.17158 0.97597 0.52344 0.0
H522 H 0.19095 0.07789 0.50148 0.0
H523 H 0.19396 0.04232 0.51349 0.0
C524 C 0.63906 0.94337 0.91402 0.0
C525 C 0.6384 0.92264 0.92023 0.0
C526 C 0.64073 0.95825 0.93208 0.0
C527 C 0.62763 0.96661 -0.00362 0.0
H528 H 0.66648 0.01414 -0.01084 0.0
C529 C 0.63316 0.0284 0.07076 0.0
C530 C 0.6331 0.04867 0.06263 0.0
C531 C 0.63599 0.0124 0.05428 0.0
C532 C 0.6554 0.00103 -0.00864 0.0
H533 H 0.63954 0.90131 0.95032 0.0
H534 H 0.64242 0.92727 0.9817 0.0
H535 H 0.66742 0.98746 0.95835 0.0
H536 H 0.63618 0.06798 0.0308 0.0
H537 H 0.64061 0.0402 0.00218 0.0
H538 H 0.61514 0.98033 0.02901 0.0
C539 C 0.64145 0.93199 0.96289 0.0
C540 C 0.65597 0.98576 0.97373 0.0
C541 C 0.63991 0.91713 0.94486 0.0
C542 C 0.6362 0.05257 0.03773 0.0
C543 C 0.63893 0.03661 0.0213 0.0
C544 C 0.62695 0.98193 0.01394 0.0
C545 C 0.64165 0.9527 0.95671 0.0
C546 C 0.64194 0.96848 0.97595 0.0
C547 C 0.63876 0.01633 0.02932 0.0
C548 C 0.64065 -0.00057 0.01152 0.0
H549 H 0.63796 0.94814 0.89523 0.0
H550 H 0.64066 0.97411 0.9268 0.0
H551 H 0.6164 0.95358 -0.00157 0.0
H552 H 0.63095 0.02488 0.08984 0.0
H553 H 0.63607 -0.00304 0.0611 0.0
C554 C 0.83284 0.03106 0.40312 0.0
C555 C 0.83294 0.05132 0.41127 0.0
C556 C 0.83049 0.01504 0.41966 0.0
C557 C 0.81312 0.00336 0.48319 0.0
H558 H 0.85345 0.95708 0.47517 0.0
C559 C 0.83394 0.94707 0.56054 0.0
C560 C 0.83503 0.9263 0.55459 0.0
C561 C 0.83123 0.96169 0.54235 0.0
C562 C 0.84185 0.96977 0.47749 0.0
H563 H 0.83024 0.07061 0.44317 0.0
H564 H 0.82663 0.04281 0.47185 0.0
H565 H 0.85284 0.98359 0.44431 0.0
H566 H 0.83368 0.90461 0.52486 0.0
H567 H 0.82902 0.93012 0.49324 0.0
H568 H 0.80264 -0.01029 0.51676 0.0
C569 C 0.82795 0.03923 0.4527 0.0
C570 C 0.84145 0.98495 0.45977 0.0
C571 C 0.83021 0.05521 0.43622 0.0
C572 C 0.833 0.92047 0.5301 0.0
C573 C 0.83042 0.93508 0.51194 0.0
C574 C 0.81363 0.98823 0.50098 0.0
C575 C 0.82825 0.01895 0.44467 0.0
C576 C 0.82728 0.00205 0.46255 0.0
C577 C 0.82969 0.95584 0.51785 0.0
C578 C 0.82818 0.97139 0.49843 0.0
H579 H 0.83477 0.02755 0.38401 0.0
H580 H 0.83049 -0.00041 0.41285 0.0
H581 H 0.80171 0.01615 0.48568 0.0
H582 H 0.83541 0.95207 0.57922 0.0
H583 H 0.83094 0.9776 0.54741 0.0
C584 C 0.77354 0.41841 0.94792 0.0
C585 C 0.77616 0.40303 0.96542 0.0
C586 C 0.77165 0.43874 0.95491 0.0
C587 C 0.78535 0.4732 0.00573 0.0
H588 H 0.74618 0.51065 0.97076 0.0
C589 C 0.77332 0.55639 0.03578 0.0
C590 C 0.77517 0.5712 0.01745 0.0
C591 C 0.77184 0.53579 0.02985 0.0
C592 C 0.75729 0.50038 0.98058 0.0
H593 H 0.77817 0.39692 0.00407 0.0
H594 H 0.77441 0.4324 0.0163 0.0
H595 H 0.74594 0.47461 0.9601 0.0
H596 H 0.77641 0.57597 0.97847 0.0
H597 H 0.77375 0.53991 0.96816 0.0
H598 H 0.79664 0.49898 0.02622 0.0
C599 C 0.7743 0.42876 -0.00288 0.0
C600 C 0.75719 0.47975 0.97447 0.0
C601 C 0.77632 0.40841 -0.00988 0.0
C602 C 0.77503 0.56495 -0.00697 0.0
C603 C 0.77339 0.54432 0.98711 0.0
C604 C 0.78533 0.49379 0.01192 0.0
C605 C 0.77219 0.44419 0.97958 0.0
C606 C 0.77136 0.46594 0.98685 0.0
C607 C 0.77202 0.52954 0.00548 0.0
C608 C 0.77143 0.50761 -0.0007 0.0
H609 H 0.77343 0.41483 0.92872 0.0
H610 H 0.77039 0.45023 0.94089 0.0
H611 H 0.79678 0.46308 0.01534 0.0
H612 H 0.77332 0.56065 0.05478 0.0
H613 H 0.77053 0.52474 0.04438 0.0
C614 C 0.69791 0.40903 0.48859 0.0
C615 C 0.69749 0.40342 0.51321 0.0
C616 C 0.69982 0.42948 0.48194 0.0
C617 C 0.7153 0.48059 0.50575 0.0
H618 H 0.67657 0.49944 0.4533 0.0
C619 C 0.69517 0.56544 0.48836 0.0
C620 C 0.69526 0.57202 0.46407 0.0
C621 C 0.69751 0.5448 0.49389 0.0
C622 C 0.68769 0.49436 0.46779 0.0
H623 H 0.69912 0.41489 0.55015 0.0
H624 H 0.70194 0.45046 0.53856 0.0
H625 H 0.67707 0.46344 0.46361 0.0
H626 H 0.69832 0.5621 0.42658 0.0
H627 H 0.70232 0.52616 0.43631 0.0
H628 H 0.72543 0.51171 0.51024 0.0
C629 C 0.70123 0.43909 0.52436 0.0
C630 C 0.68804 0.47372 0.47367 0.0
C631 C 0.69946 0.41866 0.531 0.0
C632 C 0.69811 0.55757 0.44549 0.0
C633 C 0.70029 0.53696 0.45102 0.0
C634 C 0.71483 0.50127 0.49997 0.0
C635 C 0.70121 0.44476 0.49976 0.0
C636 C 0.70175 0.46659 0.49281 0.0
C637 C 0.69982 0.53034 0.47526 0.0
C638 C 0.70094 0.50836 0.481 0.0
H639 H 0.69659 0.39766 0.47443 0.0
H640 H 0.70013 0.4333 0.46281 0.0
H641 H 0.72632 0.47557 0.52035 0.0
H642 H 0.69303 0.57617 0.5031 0.0
H643 H 0.69689 0.5401 0.51274 0.0
C644 C 0.13816 0.55458 0.03735 0.0
C645 C 0.1361 0.5502 0.06225 0.0
C646 C 0.14089 0.53896 0.02044 0.0
C647 C 0.13024 0.48412 0.01261 0.0
H648 H 0.16825 0.49102 0.95531 0.0
C649 C 0.14197 0.41999 0.94266 0.0
C650 C 0.13936 0.42552 0.91815 0.0
C651 C 0.144 0.43484 0.96064 0.0
C652 C 0.15749 0.48894 0.97117 0.0
H653 H 0.13597 0.52595 0.08896 0.0
H654 H 0.1411 0.49867 0.05943 0.0
H655 H 0.16773 0.51746 0.98645 0.0
H656 H 0.13756 0.45105 0.89326 0.0
H657 H 0.14105 0.47701 0.92476 0.0
H658 H 0.1199 0.45566 -0.00273 0.0
C659 C 0.14017 0.5142 0.05296 0.0
C660 C 0.15716 0.50407 -0.01101 0.0
C661 C 0.13733 0.52984 0.0699 0.0
C662 C 0.1395 0.44626 0.91197 0.0
C663 C 0.14163 0.46114 0.92999 0.0
C664 C 0.13066 0.46896 -0.00514 0.0
C665 C 0.14175 0.51857 0.028 0.0
C666 C 0.14333 0.50194 0.0098 0.0
C667 C 0.14356 0.45557 0.95454 0.0
C668 C 0.14411 0.47129 0.97385 0.0
H669 H 0.13724 0.57008 0.03079 0.0
H670 H 0.14171 0.54286 0.00135 0.0
H671 H 0.1191 0.48212 0.02818 0.0
H672 H 0.14208 0.40416 0.94809 0.0
H673 H 0.14579 0.43009 0.97938 0.0
C674 C 0.33159 0.55549 0.44112 0.0
C675 C 0.33321 0.55153 0.41608 0.0
C676 C 0.32954 0.53955 0.45772 0.0
C677 C 0.34158 0.48486 0.46397 0.0
H678 H 0.30453 0.48987 0.52221 0.0
C679 C 0.33182 0.41907 0.53211 0.0
C680 C 0.33451 0.4241 0.55678 0.0
C681 C 0.32954 0.43429 0.51464 0.0
C682 C 0.31504 0.48833 0.50609 0.0
H683 H 0.33324 0.52769 0.38881 0.0
H684 H 0.32929 0.49988 0.41781 0.0
H685 H 0.30391 0.5169 0.49183 0.0
H686 H 0.33632 0.4491 0.58245 0.0
H687 H 0.3324 0.47569 0.55182 0.0
H688 H 0.35278 0.45635 0.47828 0.0
C689 C 0.33004 0.51532 0.42462 0.0
C690 C 0.31471 0.5038 0.4887 0.0
C691 C 0.33219 0.53127 0.40799 0.0
C692 C 0.33432 0.4447 0.56361 0.0
C693 C 0.33194 0.45994 0.5461 0.0
C694 C 0.34182 0.46937 0.48129 0.0
C695 C 0.32895 0.51927 0.4497 0.0
C696 C 0.32815 0.50233 0.46753 0.0
C697 C 0.32981 0.45488 0.5214 0.0
C698 C 0.32871 0.47101 0.50263 0.0
H699 H 0.33235 0.5709 0.44801 0.0
H700 H 0.32906 0.54314 0.47691 0.0
H701 H 0.35244 0.48338 0.44811 0.0
H702 H 0.33177 0.40337 0.52619 0.0
H703 H 0.32762 0.42993 0.49578 0.0
C704 C 0.53132 0.11734 0.12126 0.0
C705 C 0.54716 0.11444 0.10243 0.0
C706 C 0.50856 0.12215 0.11604 0.0
C707 C 0.4702 0.13789 0.06469 0.0
H708 H 0.42304 0.11949 0.10914 0.0
C709 C 0.37496 0.15428 0.04558 0.0
C710 C 0.35874 0.13991 0.05332 0.0
C711 C 0.39778 0.15275 0.05294 0.0
C712 C 0.43588 0.12449 0.09624 0.0
H713 H 0.55181 0.11388 0.06344 0.0
H714 H 0.51192 0.12076 0.05414 0.0
H715 H 0.4627 0.11289 0.11839 0.0
H716 H 0.3535 0.11252 0.07442 0.0
H717 H 0.39339 0.10891 0.08589 0.0
H718 H 0.44332 0.14789 0.04152 0.0
C719 C 0.51701 0.12041 0.07301 0.0
C720 C 0.45886 0.12108 0.10186 0.0
C721 C 0.5399 0.11625 0.07828 0.0
C722 C 0.36568 0.12394 0.06844 0.0
C723 C 0.3886 0.12201 0.07518 0.0
C724 C 0.4472 0.14074 0.05871 0.0
C725 C 0.50096 0.1235 0.09181 0.0
C726 C 0.47641 0.12768 0.08614 0.0
C727 C 0.40504 0.1364 0.06757 0.0
C728 C 0.42965 0.13402 0.07435 0.0
H729 H 0.53662 0.11623 0.14006 0.0
H730 H 0.49704 0.12492 0.13109 0.0
H731 H 0.48307 0.14369 0.05231 0.0
H732 H 0.36993 0.16686 0.03407 0.0
H733 H 0.40965 0.16446 0.04715 0.0
C734 C 0.93958 0.87346 0.61963 0.0
C735 C 0.92261 0.86549 0.60425 0.0
C736 C 0.96266 0.86899 0.61563 0.0
C737 C 0.00111 0.83336 0.58272 0.0
H738 H 0.04546 0.87688 0.5905 0.0
C739 C 0.09284 0.83095 0.54317 0.0
C740 C 0.11067 0.83806 0.55807 0.0
C741 C 0.07003 0.83291 0.55049 0.0
C742 C 0.0333 0.86451 0.58853 0.0
H743 H 0.91656 0.84647 0.57267 0.0
H744 H 0.95677 0.83911 0.56535 0.0
H745 H 0.00533 0.88307 0.60005 0.0
H746 H 0.11853 0.85244 0.59257 0.0
H747 H 0.07867 0.85596 0.60521 0.0
H748 H 0.02915 0.81502 0.57051 0.0
C749 C 0.95227 0.84846 0.58083 0.0
C750 C 0.01031 0.86802 0.59406 0.0
C751 C 0.9292 0.8528 0.58493 0.0
C752 C 0.10521 0.84683 0.58064 0.0
C753 C 0.0824 0.84895 0.58784 0.0
C754 C 0.02409 0.82991 0.57699 0.0
C755 C 0.9693 0.85657 0.59606 0.0
C756 C -0.0061 0.85253 0.5911 0.0
C757 C 0.06459 0.84217 0.57275 0.0
C758 C 0.04038 0.84548 0.57974 0.0
H759 H 0.93507 0.88317 0.63478 0.0
H760 H 0.97529 0.87522 0.62795 0.0
H761 H -0.01099 0.82098 0.58063 0.0
H762 H 0.09646 0.82408 0.5257 0.0
H763 H 0.05662 0.8277 0.53841 0.0
C764 C 0.38157 0.83298 0.93721 0.0
C765 C 0.36372 0.83983 0.92223 0.0
C766 C 0.40433 0.8345 0.92957 0.0
C767 C 0.44154 0.86419 0.88969 0.0
H768 H 0.48438 0.81987 0.89869 0.0
C769 C 0.535 0.86997 0.85667 0.0
C770 C 0.55194 0.86214 0.87213 0.0
C771 C 0.51185 0.86611 0.86122 0.0
C772 C 0.47269 0.83247 0.89628 0.0
H773 H 0.35577 0.85344 0.88735 0.0
H774 H 0.39558 0.85623 0.87415 0.0
H775 H 0.4442 0.81518 0.9097 0.0
H776 H 0.55785 0.84397 0.9044 0.0
H777 H 0.51752 0.83767 0.91266 0.0
H778 H 0.46999 0.88171 0.87693 0.0
C779 C 0.3919 0.84972 0.8918 0.0
C780 C 0.44969 0.82974 0.90252 0.0
C781 C 0.36911 0.84803 0.89933 0.0
C782 C 0.54524 0.85016 0.89206 0.0
C783 C 0.52209 0.84644 0.89672 0.0
C784 C 0.46456 0.86698 0.88364 0.0
C785 C 0.40972 0.84307 0.9069 0.0
C786 C 0.43392 0.84562 0.89939 0.0
C787 C 0.5051 0.85447 0.88143 0.0
C788 C 0.48045 0.85119 0.88698 0.0
H789 H 0.37801 0.82655 0.95493 0.0
H790 H 0.41776 0.82942 0.94166 0.0
H791 H 0.4298 0.87677 0.8874 0.0
H792 H 0.5396 0.87912 0.84104 0.0
H793 H 0.49925 0.87224 0.84884 0.0
C794 C 0.10214 0.12018 0.40419 0.0
C795 C 0.10915 0.13616 0.41932 0.0
C796 C 0.07927 0.11842 0.39715 0.0
C797 C 0.02091 0.1378 0.41302 0.0
H798 H 0.00503 0.10994 0.35338 0.0
C799 C 0.92778 0.11514 0.3934 0.0
C800 C 0.92031 0.11382 0.36928 0.0
C801 C 0.95085 0.11849 0.3986 0.0
C802 C 0.00903 0.11812 0.3699 0.0
H803 H 0.09821 0.16334 0.43818 0.0
H804 H 0.05866 0.16123 0.42458 0.0
H805 H 0.04487 0.11596 0.3629 0.0
H806 H 0.93077 0.11536 0.33161 0.0
H807 H 0.97085 0.12261 0.34049 0.0
H808 H 0.98513 0.14133 0.41917 0.0
C809 C 0.07036 0.14936 0.41905 0.0
C810 C 0.03207 0.1212 0.37567 0.0
C811 C 0.0931 0.15073 0.42672 0.0
C812 C 0.93622 0.11617 0.35038 0.0
C813 C 0.95923 0.12016 0.35555 0.0
C814 C -0.00209 0.13527 0.40691 0.0
C815 C 0.06298 0.13299 0.40447 0.0
C816 C 0.03839 0.13079 0.39753 0.0
C817 C 0.96694 0.12126 0.37977 0.0
C818 C -0.00843 0.12504 0.38548 0.0
H819 H 0.11423 0.10865 0.39844 0.0
H820 H 0.07436 0.10532 0.38644 0.0
H821 H 0.02485 0.14497 0.4302 0.0
H822 H 0.91584 0.11311 0.4083 0.0
H823 H 0.95601 0.11857 0.41745 0.0
C824 C 0.04175 0.62471 0.08486 0.0
C825 C 0.04808 0.6132 0.10526 0.0
C826 C 0.0187 0.6286 0.08002 0.0
C827 C 0.96058 0.60934 0.094 0.0
H828 H 0.94147 0.66096 0.06676 0.0
C829 C 0.86555 0.62952 0.07992 0.0
C830 C 0.8599 0.63743 0.05699 0.0
C831 C 0.88842 0.62769 0.08693 0.0
C832 C 0.94661 0.64644 0.07425 0.0
H833 H 0.03517 0.59719 0.13694 0.0
H834 H -0.00496 0.60437 0.12881 0.0
H835 H 0.98163 0.65573 0.07723 0.0
H836 H 0.87385 0.65014 0.02371 0.0
H837 H 0.91379 0.64699 0.03605 0.0
H838 H 0.92551 0.60013 0.09111 0.0
C839 C 0.00784 0.61 0.11621 0.0
C840 C 0.9696 0.64341 0.08019 0.0
C841 C 0.03087 0.60597 0.12095 0.0
C842 C 0.87761 0.64394 0.04148 0.0
C843 C 0.90048 0.64225 0.04858 0.0
C844 C 0.93759 0.61244 0.08823 0.0
C845 C 0.00145 0.62121 0.09558 0.0
C846 C 0.97689 0.62476 0.08999 0.0
C847 C 0.90612 0.63388 0.07125 0.0
C848 C 0.93039 0.63097 0.07817 0.0
H849 H 0.05457 0.63043 0.07235 0.0
H850 H 0.01439 0.63703 0.06378 0.0
H851 H 0.96563 0.59467 0.10109 0.0
H852 H 0.85233 0.6244 0.09234 0.0
H853 H 0.89228 0.62138 0.10462 0.0
C854 C 0.60481 0.34786 0.57754 0.0
C855 C 0.61042 0.33961 0.55474 0.0
C856 C 0.58195 0.34968 0.58471 0.0
C857 C 0.52409 0.32999 0.57322 0.0
H858 H 0.5042 0.38193 0.59901 0.0
C859 C 0.42872 0.35064 0.58343 0.0
C860 C 0.42204 0.36251 0.60345 0.0
C861 C 0.45184 0.34691 0.57882 0.0
C862 C 0.50951 0.36721 0.59224 0.0
H863 H 0.59644 0.32639 0.52181 0.0
H864 H 0.55652 0.3295 0.53445 0.0
H865 H 0.54438 0.3769 0.58872 0.0
H866 H 0.43441 0.37931 0.63472 0.0
H867 H 0.47475 0.37241 0.62699 0.0
H868 H 0.48928 0.32022 0.57683 0.0
C869 C 0.56985 0.33452 0.54675 0.0
C870 C 0.53253 0.36437 0.58628 0.0
C871 C 0.5927 0.33285 0.53947 0.0
C872 C 0.43899 0.37024 0.61903 0.0
C873 C 0.46213 0.36637 0.61453 0.0
C874 C 0.50108 0.33277 0.57936 0.0
C875 C 0.56426 0.34313 0.56933 0.0
C876 C 0.54 0.34579 0.57653 0.0
C877 C 0.46885 0.35482 0.59424 0.0
C878 C 0.49348 0.35149 0.58875 0.0
H879 H 0.61804 0.35319 0.58976 0.0
H880 H 0.57812 0.3562 0.60232 0.0
H881 H 0.52946 0.31543 0.56601 0.0
H882 H 0.41611 0.34453 0.57099 0.0
H883 H 0.4564 0.33822 0.56282 0.0
C884 C 0.0338 0.37425 0.85603 0.0
C885 C 0.05076 0.366 0.87116 0.0
C886 C 0.01065 0.37035 0.86052 0.0
C887 C 0.9717 0.33558 0.89418 0.0
H888 H 0.92837 0.37978 0.88708 0.0
C889 C 0.88072 0.33396 0.93516 0.0
C890 C 0.86273 0.34107 0.92055 0.0
C891 C 0.90344 0.33601 0.92755 0.0
C892 C 0.94024 0.36723 0.88886 0.0
H893 H 0.05668 0.34715 0.90287 0.0
H894 H 0.01636 0.34075 0.91101 0.0
H895 H 0.96854 0.38531 0.87683 0.0
H896 H 0.85448 0.35574 0.88636 0.0
H897 H 0.89423 0.35943 0.87321 0.0
H898 H 0.94339 0.31769 0.90684 0.0
C899 C 0.02092 0.34988 0.89536 0.0
C900 C 0.96324 0.37037 0.88294 0.0
C901 C 0.04407 0.35366 0.89078 0.0
C902 C 0.86794 0.3501 0.89805 0.0
C903 C 0.89069 0.35232 0.89056 0.0
C904 C 0.94873 0.3325 0.90027 0.0
C905 C 0.00392 0.35822 0.88034 0.0
C906 C 0.97929 0.35462 0.88568 0.0
C907 C 0.90865 0.34536 0.90529 0.0
C908 C 0.93281 0.34833 0.89781 0.0
H909 H 0.03839 0.38372 0.84067 0.0
H910 H -0.00198 0.37676 0.84837 0.0
H911 H 0.98351 0.32301 0.89608 0.0
H912 H 0.8773 0.3269 0.95256 0.0
H913 H 0.91696 0.33069 0.93937 0.0
C914 C 0.59016 0.64261 0.4398 0.0
C915 C 0.60813 0.63658 0.42438 0.0
C916 C 0.56742 0.64108 0.43217 0.0
C917 C 0.53071 0.61262 0.39055 0.0
H918 H 0.48722 0.65602 0.40226 0.0
C919 C 0.43743 0.6075 0.35692 0.0
C920 C 0.42033 0.61452 0.37282 0.0
C921 C 0.46053 0.61128 0.3618 0.0
C922 C 0.49909 0.64367 0.39908 0.0
H923 H 0.6163 0.62443 0.38874 0.0
H924 H 0.57655 0.62166 0.37554 0.0
H925 H 0.52727 0.66064 0.41363 0.0
H926 H 0.41409 0.6311 0.40626 0.0
H927 H 0.4543 0.63725 0.41504 0.0
H928 H 0.50257 0.5954 0.37661 0.0
C929 C 0.58012 0.6275 0.39354 0.0
C930 C 0.52202 0.64636 0.40554 0.0
C931 C 0.60287 0.62919 0.40108 0.0
C932 C 0.42682 0.62556 0.39357 0.0
C933 C 0.4499 0.6292 0.39853 0.0
C934 C 0.50776 0.60986 0.38427 0.0
C935 C 0.56218 0.63333 0.40905 0.0
C936 C 0.53802 0.63082 0.40144 0.0
C937 C 0.46705 0.62203 0.38277 0.0
C938 C 0.49164 0.62531 0.38858 0.0
H939 H 0.59362 0.64839 0.45784 0.0
H940 H 0.55391 0.64552 0.44458 0.0
H941 H 0.54263 0.60028 0.38748 0.0
H942 H 0.43301 0.59906 0.34069 0.0
H943 H 0.47327 0.60582 0.34907 0.0
C944 C 0.25782 0.15033 0.14934 0.0
C945 C 0.2583 0.13226 0.13578 0.0
C946 C 0.25169 0.14999 0.17386 0.0
C947 C 0.2232 0.11741 0.2203 0.0
H948 H 0.25237 0.15492 0.26505 0.0
C949 C 0.21516 0.11222 0.32499 0.0
C950 C 0.20882 0.13037 0.33666 0.0
C951 C 0.22098 0.11227 0.30037 0.0
C952 C 0.24403 0.14444 0.25269 0.0
H953 H 0.25315 0.09963 0.13723 0.0
H954 H 0.24336 0.09887 0.18021 0.0
H955 H 0.26351 0.15508 0.22237 0.0
H956 H 0.20374 0.16278 0.33184 0.0
H957 H 0.21443 0.16289 0.28889 0.0
H958 H 0.20427 0.10643 0.25103 0.0
C959 C 0.24698 0.11342 0.17184 0.0
C960 C 0.25029 0.14458 0.22821 0.0
C961 C 0.25275 0.11382 0.14722 0.0
C962 C 0.20851 0.14857 0.3233 0.0
C963 C 0.21472 0.14866 0.2988 0.0
C964 C 0.21724 0.11706 0.24487 0.0
C965 C 0.24627 0.13152 0.18547 0.0
C966 C 0.23986 0.13115 0.21165 0.0
C967 C 0.22095 0.13051 0.28714 0.0
C968 C 0.22751 0.13065 0.26122 0.0
H969 H 0.26185 0.16479 0.14093 0.0
H970 H 0.25091 0.16428 0.18359 0.0
H971 H 0.21447 0.10711 0.20807 0.0
H972 H 0.2155 0.09797 0.33484 0.0
H973 H 0.22585 0.0981 0.29175 0.0
C974 C 0.26282 0.82648 0.82675 0.0
C975 C 0.26256 0.84457 0.84029 0.0
C976 C 0.25655 0.82656 0.80229 0.0
C977 C 0.22632 0.85794 0.7562 0.0
H978 H 0.25685 0.82168 0.71105 0.0
C979 C 0.21726 0.86306 0.65173 0.0
C980 C 0.21162 0.84472 0.64005 0.0
C981 C 0.22333 0.86315 0.67625 0.0
C982 C 0.24813 0.83179 0.72353 0.0
H983 H 0.256 0.87698 0.83885 0.0
H984 H 0.24596 0.8773 0.79598 0.0
H985 H 0.26826 0.82192 0.75361 0.0
H986 H 0.20808 0.81211 0.64473 0.0
H987 H 0.2192 0.81226 0.68752 0.0
H988 H 0.20671 0.86819 0.72573 0.0
C989 C 0.25026 0.86291 0.80432 0.0
C990 C 0.25455 0.83188 0.74794 0.0
C991 C 0.25617 0.86277 0.82888 0.0
C992 C 0.21229 0.82647 0.65329 0.0
C993 C 0.21875 0.82653 0.67769 0.0
C994 C 0.22018 0.85807 0.73171 0.0
C995 C 0.25025 0.84479 0.79072 0.0
C996 C 0.24364 0.84488 0.76464 0.0
C997 C 0.22424 0.84487 0.68937 0.0
C998 C 0.23095 0.84493 0.71522 0.0
H999 H 0.26752 0.8122 0.83514 0.0
H1000 H 0.25635 0.81224 0.79258 0.0
H1001 H 0.21722 0.86787 0.76856 0.0
H1002 H 0.21684 0.87736 0.64197 0.0
H1003 H 0.22762 0.87747 0.68488 0.0
C1004 C 0.66885 0.86044 0.79718 0.0
C1005 C 0.67829 0.86062 0.82063 0.0
C1006 C 0.68304 0.86106 0.77675 0.0
C1007 C 0.74138 0.87535 0.75717 0.0
H1008 H 0.72743 0.84154 0.70137 0.0
C1009 C 0.8045 0.86463 0.67763 0.0
C1010 C 0.79541 0.86492 0.65403 0.0
C1011 C 0.79002 0.8644 0.69782 0.0
C1012 C 0.7314 0.85124 0.71671 0.0
H1013 H 0.70998 0.86141 0.84108 0.0
H1014 H 0.73478 0.86224 0.80539 0.0
H1015 H 0.7026 0.84034 0.73702 0.0
H1016 H 0.76401 0.86526 0.63306 0.0
H1017 H 0.73867 0.86495 0.6684 0.0
H1018 H 0.77025 0.88615 0.7369 0.0
C1019 C 0.7164 0.86194 0.8028 0.0
C1020 C 0.71718 0.85056 0.73712 0.0
C1021 C 0.7022 0.86135 0.82324 0.0
C1022 C 0.77152 0.86502 0.65103 0.0
C1023 C 0.75702 0.86472 0.67125 0.0
C1024 C 0.75561 0.876 0.73678 0.0
C1025 C 0.70697 0.86184 0.77932 0.0
C1026 C 0.72204 0.86259 0.7576 0.0
C1027 C 0.76612 0.8644 0.69485 0.0
C1028 C 0.7508 0.86393 0.71635 0.0
H1029 H 0.65048 0.85995 0.79458 0.0
H1030 H 0.67523 0.86123 0.75893 0.0
H1031 H 0.74537 0.88506 0.77249 0.0
H1032 H 0.82284 0.8645 0.68054 0.0
H1033 H 0.79754 0.86391 0.71577 0.0
C1034 C 0.76845 0.11905 0.32458 0.0
C1035 C 0.79225 0.11916 0.32086 0.0
C1036 C 0.75348 0.1195 0.30483 0.0
C1037 C 0.75097 0.1319 0.23927 0.0
H1038 H 0.69683 0.09761 0.24048 0.0
C1039 C 0.69684 0.11539 0.15401 0.0
C1040 C 0.67292 0.11602 0.15669 0.0
C1041 C 0.71106 0.11654 0.17433 0.0
C1042 C 0.71175 0.10743 0.24 0.0
H1043 H 0.81908 0.11985 0.29356 0.0
H1044 H 0.79302 0.12024 0.25911 0.0
H1045 H 0.72232 0.09824 0.27548 0.0
H1046 H 0.64511 0.11835 0.18272 0.0
H1047 H 0.66998 0.12028 0.21823 0.0
H1048 H 0.74053 0.1408 0.20358 0.0
C1049 C 0.78586 0.12018 0.27727 0.0
C1050 C 0.72633 0.10783 0.26006 0.0
C1051 C 0.80081 0.11982 0.29702 0.0
C1052 C 0.66349 0.1178 0.18008 0.0
C1053 C 0.67771 0.11881 0.20042 0.0
C1054 C 0.73644 0.13141 0.21917 0.0
C1055 C 0.76202 0.11999 0.28094 0.0
C1056 C 0.74617 0.12 0.25988 0.0
C1057 C 0.70163 0.11821 0.19774 0.0
C1058 C 0.71674 0.1191 0.21929 0.0
H1059 H 0.76135 0.11866 0.34276 0.0
H1060 H 0.73522 0.11963 0.30829 0.0
H1061 H 0.76588 0.14171 0.2387 0.0
H1062 H 0.70462 0.11403 0.13621 0.0
H1063 H 0.72943 0.11581 0.17174 0.0
C1064 C 0.70849 0.65123 0.32782 0.0
C1065 C 0.70843 0.63302 0.34112 0.0
C1066 C 0.71483 0.6513 0.30334 0.0
C1067 C 0.7448 0.61987 0.25692 0.0
H1068 H 0.71499 0.65663 0.21197 0.0
C1069 C 0.75346 0.61415 0.15253 0.0
C1070 C 0.75926 0.63231 0.14054 0.0
C1071 C 0.74755 0.61435 0.17711 0.0
C1072 C 0.72353 0.64639 0.2244 0.0
H1073 H 0.71443 0.60054 0.33919 0.0
H1074 H 0.72458 0.60047 0.29632 0.0
H1075 H 0.70356 0.65651 0.2546 0.0
H1076 H 0.76325 0.66493 0.14475 0.0
H1077 H 0.7524 0.66529 0.18769 0.0
H1078 H 0.76423 0.60936 0.22635 0.0
C1079 C 0.7205 0.61485 0.30487 0.0
C1080 C 0.71709 0.64636 0.24884 0.0
C1081 C 0.71451 0.61484 0.32943 0.0
C1082 C 0.7589 0.65069 0.15355 0.0
C1083 C 0.7526 0.65093 0.17804 0.0
C1084 C 0.75096 0.61969 0.23241 0.0
C1085 C 0.72089 0.6331 0.29152 0.0
C1086 C 0.72768 0.63312 0.26545 0.0
C1087 C 0.74696 0.63276 0.19003 0.0
C1088 C 0.74042 0.63297 0.21597 0.0
H1089 H 0.70402 0.6655 0.33642 0.0
H1090 H 0.7153 0.6657 0.29382 0.0
H1091 H 0.7537 0.60977 0.2692 0.0
H1092 H 0.75364 0.59975 0.14296 0.0
H1093 H 0.74312 0.60016 0.18597 0.0
C1094 C 0.71434 0.36415 0.65099 0.0
C1095 C 0.70871 0.34576 0.63949 0.0
C1096 C 0.71991 0.36448 0.67564 0.0
C1097 C 0.7165 0.33316 0.73196 0.0
H1098 H 0.76328 0.37068 0.75436 0.0
C1099 C 0.76025 0.32773 0.82579 0.0
C1100 C 0.76039 0.34575 0.8395 0.0
C1101 C 0.75339 0.32798 0.80151 0.0
C1102 C 0.75009 0.36023 0.74833 0.0
H1103 H 0.70466 0.31326 0.6446 0.0
H1104 H 0.71527 0.31365 0.6873 0.0
H1105 H 0.75251 0.37046 0.71161 0.0
H1106 H 0.75382 0.37819 0.83856 0.0
H1107 H 0.74237 0.37867 0.79584 0.0
H1108 H 0.71483 0.3225 0.7687 0.0
C1109 C 0.71471 0.32796 0.6776 0.0
C1110 C 0.74379 0.36015 0.72388 0.0
C1111 C 0.70877 0.32769 0.65306 0.0
C1112 C 0.75382 0.36407 0.82843 0.0
C1113 C 0.74737 0.36437 0.80401 0.0
C1114 C 0.72309 0.33303 0.75631 0.0
C1115 C 0.72035 0.34637 0.68924 0.0
C1116 C 0.72689 0.34661 0.71535 0.0
C1117 C 0.74697 0.34631 0.79042 0.0
C1118 C 0.73991 0.34657 0.76468 0.0
H1119 H 0.71424 0.37834 0.64099 0.0
H1120 H 0.72368 0.379 0.68404 0.0
H1121 H 0.7031 0.32282 0.72623 0.0
H1122 H 0.76518 0.31338 0.83389 0.0
H1123 H 0.75336 0.31389 0.79131 0.0
C1124 C 0.2706 0.36053 0.64949 0.0
C1125 C 0.29445 0.36 0.65268 0.0
C1126 C 0.25595 0.36033 0.66959 0.0
C1127 C 0.25404 0.34705 0.73477 0.0
H1128 H 0.201 0.38243 0.73573 0.0
C1129 C 0.20071 0.36116 0.82141 0.0
C1130 C 0.17678 0.36138 0.81885 0.0
C1131 C 0.21487 0.36063 0.80094 0.0
C1132 C 0.21561 0.37231 0.73561 0.0
H1133 H 0.32168 0.35891 0.67939 0.0
H1134 H 0.29615 0.35884 0.71442 0.0
H1135 H 0.22606 0.38213 0.70024 0.0
H1136 H 0.14889 0.36118 0.79288 0.0
H1137 H 0.17362 0.36019 0.75715 0.0
H1138 H 0.24366 0.33735 0.77023 0.0
C1139 C 0.28873 0.35909 0.69641 0.0
C1140 C 0.22994 0.37212 0.71528 0.0
C1141 C 0.30337 0.35926 0.67634 0.0
C1142 C 0.16728 0.36107 0.79543 0.0
C1143 C 0.18143 0.36061 0.77497 0.0
C1144 C 0.23973 0.34728 0.75511 0.0
C1145 C 0.26486 0.35961 0.69327 0.0
C1146 C 0.24936 0.35954 0.71467 0.0
C1147 C 0.20537 0.36037 0.7775 0.0
C1148 C 0.2204 0.35995 0.75578 0.0
H1149 H 0.26322 0.36103 0.63147 0.0
H1150 H 0.23762 0.3605 0.66656 0.0
H1151 H 0.26865 0.33694 0.7347 0.0
H1152 H 0.20854 0.3614 0.83922 0.0
H1153 H 0.23326 0.3607 0.80346 0.0
C1154 C 0.26911 0.61835 0.3263 0.0
C1155 C 0.29296 0.61861 0.32293 0.0
C1156 C 0.25441 0.61872 0.30634 0.0
C1157 C 0.25245 0.63137 0.2409 0.0
H1158 H 0.19859 0.59672 0.24137 0.0
C1159 C 0.19822 0.61609 0.15532 0.0
C1160 C 0.17431 0.61639 0.15813 0.0
C1161 C 0.21252 0.61695 0.17559 0.0
C1162 C 0.21343 0.60664 0.24109 0.0
H1163 H 0.32015 0.61949 0.29604 0.0
H1164 H 0.29451 0.61978 0.26119 0.0
H1165 H 0.22394 0.59715 0.27648 0.0
H1166 H 0.14659 0.61788 0.18436 0.0
H1167 H 0.17158 0.61937 0.21978 0.0
H1168 H 0.24203 0.64065 0.20535 0.0
C1169 C 0.28713 0.61963 0.27925 0.0
C1170 C 0.22794 0.60692 0.26121 0.0
C1171 C 0.30183 0.61934 0.29922 0.0
C1172 C 0.16496 0.61758 0.18162 0.0
C1173 C 0.17925 0.61834 0.2019 0.0
C1174 C 0.23799 0.63103 0.22075 0.0
C1175 C 0.26325 0.61928 0.28258 0.0
C1176 C 0.24764 0.61925 0.26133 0.0
C1177 C 0.20318 0.61802 0.19909 0.0
C1178 C 0.21836 0.61863 0.22062 0.0
H1179 H 0.26177 0.61791 0.34437 0.0
H1180 H 0.2361 0.61874 0.30953 0.0
H1181 H 0.26728 0.64129 0.24058 0.0
H1182 H 0.20593 0.61518 0.13744 0.0
H1183 H 0.23089 0.61646 0.17289 0.0
loop_
_geom_bond_atom_site_label_1
_geom_bond_atom_site_label_2
_geom_bond_distance
_geom_bond_site_symmetry_2
_ccdc_geom_bond_type
C0 O1 1.306 . S
C0 O3 1.160 . S
O1 C0 1.306 . S
O1 Cd2 2.228 . S
Cd2 O1 2.228 . S
Cd2 O6 2.273 . S
Cd2 O10 2.277 . S
O3 C0 1.160 . S
O3 Cd4 2.203 . S
Cd4 O3 2.203 . S
Cd4 O6 2.411 . S
Cd4 O7 2.333 . S
Cd4 O8 2.352 . S
Cd4 O12 2.277 . S
Cd4 O13 2.356 . S
C5 O10 1.209 . S
C5 O12 1.226 . S
O6 Cd2 2.273 . S
O6 Cd4 2.411 . S
O6 C9 1.320 . S
O7 Cd4 2.333 . S
O7 C9 1.214 . S
O8 Cd4 2.352 . S
O8 C11 1.258 . S
C9 O6 1.320 . S
C9 O7 1.214 . S
O10 Cd2 2.277 . S
O10 C5 1.209 . S
C11 O8 1.258 . S
C11 O13 1.282 . S
O12 Cd4 2.277 . S
O12 C5 1.226 . S
O13 Cd4 2.356 . S
O13 C11 1.282 . S
C14 O15 1.306 . S
C14 O17 1.160 . S
O15 C14 1.306 . S
O15 Cd16 2.228 . S
Cd16 O15 2.228 . S
Cd16 O20 2.273 . S
Cd16 O24 2.277 . S
O17 C14 1.160 . S
O17 Cd18 2.203 . S
Cd18 O17 2.203 . S
Cd18 O20 2.411 . S
Cd18 O21 2.333 . S
Cd18 O22 2.352 . S
Cd18 O26 2.277 . S
Cd18 O27 2.356 . S
C19 O24 1.209 . S
C19 O26 1.226 . S
O20 Cd16 2.273 . S
O20 Cd18 2.411 . S
O20 C23 1.320 . S
O21 Cd18 2.333 . S
O21 C23 1.214 . S
O22 Cd18 2.352 . S
O22 C25 1.258 . S
C23 O20 1.320 . S
C23 O21 1.214 . S
O24 Cd16 2.277 . S
O24 C19 1.209 . S
C25 O22 1.258 . S
C25 O27 1.282 . S
O26 Cd18 2.277 . S
O26 C19 1.226 . S
O27 Cd18 2.356 . S
O27 C25 1.282 . S
C28 O29 1.306 . S
C28 O31 1.160 . S
O29 C28 1.306 . S
O29 Cd30 2.228 . S
Cd30 O29 2.228 . S
Cd30 O34 2.273 . S
Cd30 O38 2.277 . S
O31 C28 1.160 . S
O31 Cd32 2.203 . S
Cd32 O31 2.203 . S
Cd32 O34 2.411 . S
Cd32 O35 2.333 . S
Cd32 O36 2.352 . S
Cd32 O40 2.277 . S
Cd32 O41 2.356 . S
C33 O38 1.209 . S
C33 O40 1.226 . S
O34 Cd30 2.273 . S
O34 Cd32 2.411 . S
O34 C37 1.320 . S
O35 Cd32 2.333 . S
O35 C37 1.214 . S
O36 Cd32 2.352 . S
O36 C39 1.258 . S
C37 O34 1.320 . S
C37 O35 1.214 . S
O38 Cd30 2.277 . S
O38 C33 1.209 . S
C39 O36 1.258 . S
C39 O41 1.282 . S
O40 Cd32 2.277 . S
O40 C33 1.226 . S
O41 Cd32 2.356 . S
O41 C39 1.282 . S
C42 O43 1.306 . S
C42 O45 1.160 . S
O43 C42 1.306 . S
O43 Cd44 2.228 . S
Cd44 O43 2.228 . S
Cd44 O48 2.273 . S
Cd44 O52 2.277 . S
O45 C42 1.160 . S
O45 Cd46 2.203 . S
Cd46 O45 2.203 . S
Cd46 O48 2.411 . S
Cd46 O49 2.333 . S
Cd46 O50 2.352 . S
Cd46 O54 2.277 . S
Cd46 O55 2.356 . S
C47 O52 1.209 . S
C47 O54 1.226 . S
O48 Cd44 2.273 . S
O48 Cd46 2.411 . S
O48 C51 1.320 . S
O49 Cd46 2.333 . S
O49 C51 1.214 . S
O50 Cd46 2.352 . S
O50 C53 1.258 . S
C51 O48 1.320 . S
C51 O49 1.214 . S
O52 Cd44 2.277 . S
O52 C47 1.209 . S
C53 O50 1.258 . S
C53 O55 1.282 . S
O54 Cd46 2.277 . S
O54 C47 1.226 . S
O55 Cd46 2.356 . S
O55 C53 1.282 . S
C56 O57 1.306 . S
C56 O59 1.160 . S
O57 C56 1.306 . S
O57 Cd58 2.228 . S
Cd58 O57 2.228 . S
Cd58 O62 2.273 . S
Cd58 O66 2.277 . S
O59 C56 1.160 . S
O59 Cd60 2.203 . S
Cd60 O59 2.203 . S
Cd60 O62 2.411 . S
Cd60 O63 2.333 . S
Cd60 O64 2.352 . S
Cd60 O68 2.277 . S
Cd60 O69 2.356 . S
C61 O66 1.209 . S
C61 O68 1.226 . S
O62 Cd58 2.273 . S
O62 Cd60 2.411 . S
O62 C65 1.320 . S
O63 Cd60 2.333 . S
O63 C65 1.214 . S
O64 Cd60 2.352 . S
O64 C67 1.258 . S
C65 O62 1.320 . S
C65 O63 1.214 . S
O66 Cd58 2.277 . S
O66 C61 1.209 . S
C67 O64 1.258 . S
C67 O69 1.282 . S
O68 Cd60 2.277 . S
O68 C61 1.226 . S
O69 Cd60 2.356 . S
O69 C67 1.282 . S
C70 O71 1.306 . S
C70 O73 1.160 . S
O71 C70 1.306 . S
O71 Cd72 2.228 . S
Cd72 O71 2.228 . S
Cd72 O76 2.273 . S
Cd72 O80 2.277 . S
O73 C70 1.160 . S
O73 Cd74 2.203 . S
Cd74 O73 2.203 . S
Cd74 O76 2.411 . S
Cd74 O77 2.333 . S
Cd74 O78 2.352 . S
Cd74 O82 2.277 . S
Cd74 O83 2.356 . S
C75 O80 1.209 . S
C75 O82 1.226 . S
O76 Cd72 2.273 . S
O76 Cd74 2.411 . S
O76 C79 1.320 . S
O77 Cd74 2.333 . S
O77 C79 1.214 . S
O78 Cd74 2.352 . S
O78 C81 1.258 . S
C79 O76 1.320 . S
C79 O77 1.214 . S
O80 Cd72 2.277 . S
O80 C75 1.209 . S
C81 O78 1.258 . S
C81 O83 1.282 . S
O82 Cd74 2.277 . S
O82 C75 1.226 . S
O83 Cd74 2.356 . S
O83 C81 1.282 . S
C84 O85 1.306 . S
C84 O87 1.160 . S
O85 C84 1.306 . S
O85 Cd86 2.228 . S
Cd86 O85 2.228 . S
Cd86 O90 2.273 . S
Cd86 O94 2.277 . S
O87 C84 1.160 . S
O87 Cd88 2.203 . S
Cd88 O87 2.203 . S
Cd88 O90 2.411 . S
Cd88 O91 2.333 . S
Cd88 O92 2.352 . S
Cd88 O96 2.277 . S
Cd88 O97 2.356 . S
C89 O94 1.209 . S
C89 O96 1.226 . S
O90 Cd86 2.273 . S
O90 Cd88 2.411 . S
O90 C93 1.320 . S
O91 Cd88 2.333 . S
O91 C93 1.214 . S
O92 Cd88 2.352 . S
O92 C95 1.258 . S
C93 O90 1.320 . S
C93 O91 1.214 . S
O94 Cd86 2.277 . S
O94 C89 1.209 . S
C95 O92 1.258 . S
C95 O97 1.282 . S
O96 Cd88 2.277 . S
O96 C89 1.226 . S
O97 Cd88 2.356 . S
O97 C95 1.282 . S
C98 O99 1.306 . S
C98 O101 1.160 . S
O99 C98 1.306 . S
O99 Cd100 2.228 . S
Cd100 O99 2.228 . S
Cd100 O104 2.273 . S
Cd100 O108 2.277 . S
O101 C98 1.160 . S
O101 Cd102 2.203 . S
Cd102 O101 2.203 . S
Cd102 O104 2.411 . S
Cd102 O105 2.333 . S
Cd102 O106 2.352 . S
Cd102 O110 2.277 . S
Cd102 O111 2.356 . S
C103 O108 1.209 . S
C103 O110 1.226 . S
O104 Cd100 2.273 . S
O104 Cd102 2.411 . S
O104 C107 1.320 . S
O105 Cd102 2.333 . S
O105 C107 1.214 . S
O106 Cd102 2.352 . S
O106 C109 1.258 . S
C107 O104 1.320 . S
C107 O105 1.214 . S
O108 Cd100 2.277 . S
O108 C103 1.209 . S
C109 O106 1.258 . S
C109 O111 1.282 . S
O110 Cd102 2.277 . S
O110 C103 1.226 . S
O111 Cd102 2.356 . S
O111 C109 1.282 . S
C112 O113 1.306 . S
C112 O115 1.160 . S
O113 C112 1.306 . S
O113 Cd114 2.228 . S
Cd114 O113 2.228 . S
Cd114 O118 2.273 . S
Cd114 O122 2.277 . S
O115 C112 1.160 . S
O115 Cd116 2.203 . S
Cd116 O115 2.203 . S
Cd116 O118 2.411 . S
Cd116 O119 2.333 . S
Cd116 O120 2.352 . S
Cd116 O124 2.277 . S
Cd116 O125 2.356 . S
C117 O122 1.209 . S
C117 O124 1.226 . S
O118 Cd114 2.273 . S
O118 Cd116 2.411 . S
O118 C121 1.320 . S
O119 Cd116 2.333 . S
O119 C121 1.214 . S
O120 Cd116 2.352 . S
O120 C123 1.258 . S
C121 O118 1.320 . S
C121 O119 1.214 . S
O122 Cd114 2.277 . S
O122 C117 1.209 . S
C123 O120 1.258 . S
C123 O125 1.282 . S
O124 Cd116 2.277 . S
O124 C117 1.226 . S
O125 Cd116 2.356 . S
O125 C123 1.282 . S
C126 O127 1.306 . S
C126 O129 1.160 . S
O127 C126 1.306 . S
O127 Cd128 2.228 . S
Cd128 O127 2.228 . S
Cd128 O132 2.273 . S
Cd128 O136 2.277 . S
O129 C126 1.160 . S
O129 Cd130 2.203 . S
Cd130 O129 2.203 . S
Cd130 O132 2.411 . S
Cd130 O133 2.333 . S
Cd130 O134 2.352 . S
Cd130 O138 2.277 . S
Cd130 O139 2.356 . S
C131 O136 1.209 . S
C131 O138 1.226 . S
O132 Cd128 2.273 . S
O132 Cd130 2.411 . S
O132 C135 1.320 . S
O133 Cd130 2.333 . S
O133 C135 1.214 . S
O134 Cd130 2.352 . S
O134 C137 1.258 . S
C135 O132 1.320 . S
C135 O133 1.214 . S
O136 Cd128 2.277 . S
O136 C131 1.209 . S
C137 O134 1.258 . S
C137 O139 1.282 . S
O138 Cd130 2.277 . S
O138 C131 1.226 . S
O139 Cd130 2.356 . S
O139 C137 1.282 . S
C140 O141 1.306 . S
C140 O143 1.160 . S
O141 C140 1.306 . S
O141 Cd142 2.228 . S
Cd142 O141 2.228 . S
Cd142 O146 2.273 . S
Cd142 O150 2.277 . S
O143 C140 1.160 . S
O143 Cd144 2.203 . S
Cd144 O143 2.203 . S
Cd144 O146 2.411 . S
Cd144 O147 2.333 . S
Cd144 O148 2.352 . S
Cd144 O152 2.277 . S
Cd144 O153 2.356 . S
C145 O150 1.209 . S
C145 O152 1.226 . S
O146 Cd142 2.273 . S
O146 Cd144 2.411 . S
O146 C149 1.320 . S
O147 Cd144 2.333 . S
O147 C149 1.214 . S
O148 Cd144 2.352 . S
O148 C151 1.258 . S
C149 O146 1.320 . S
C149 O147 1.214 . S
O150 Cd142 2.277 . S
O150 C145 1.209 . S
C151 O148 1.258 . S
C151 O153 1.282 . S
O152 Cd144 2.277 . S
O152 C145 1.226 . S
O153 Cd144 2.356 . S
O153 C151 1.282 . S
C154 O155 1.306 . S
C154 O157 1.160 . S
O155 C154 1.306 . S
O155 Cd156 2.228 . S
Cd156 O155 2.228 . S
Cd156 O160 2.273 . S
Cd156 O164 2.277 . S
O157 C154 1.160 . S
O157 Cd158 2.203 . S
Cd158 O157 2.203 . S
Cd158 O160 2.411 . S
Cd158 O161 2.333 . S
Cd158 O162 2.352 . S
Cd158 O166 2.277 . S
Cd158 O167 2.356 . S
C159 O164 1.209 . S
C159 O166 1.226 . S
O160 Cd156 2.273 . S
O160 Cd158 2.411 . S
O160 C163 1.320 . S
O161 Cd158 2.333 . S
O161 C163 1.214 . S
O162 Cd158 2.352 . S
O162 C165 1.258 . S
C163 O160 1.320 . S
C163 O161 1.214 . S
O164 Cd156 2.277 . S
O164 C159 1.209 . S
C165 O162 1.258 . S
C165 O167 1.282 . S
O166 Cd158 2.277 . S
O166 C159 1.226 . S
O167 Cd158 2.356 . S
O167 C165 1.282 . S
C168 O169 1.306 . S
C168 O171 1.160 . S
O169 C168 1.306 . S
O169 Cd170 2.228 . S
Cd170 O169 2.228 . S
Cd170 O174 2.273 . S
Cd170 O178 2.277 . S
O171 C168 1.160 . S
O171 Cd172 2.203 . S
Cd172 O171 2.203 . S
Cd172 O174 2.411 . S
Cd172 O175 2.333 . S
Cd172 O176 2.352 . S
Cd172 O180 2.277 . S
Cd172 O181 2.356 . S
C173 O178 1.209 . S
C173 O180 1.226 . S
O174 Cd170 2.273 . S
O174 Cd172 2.411 . S
O174 C177 1.320 . S
O175 Cd172 2.333 . S
O175 C177 1.214 . S
O176 Cd172 2.352 . S
O176 C179 1.258 . S
C177 O174 1.320 . S
C177 O175 1.214 . S
O178 Cd170 2.277 . S
O178 C173 1.209 . S
C179 O176 1.258 . S
C179 O181 1.282 . S
O180 Cd172 2.277 . S
O180 C173 1.226 . S
O181 Cd172 2.356 . S
O181 C179 1.282 . S
C182 O183 1.306 . S
C182 O185 1.160 . S
O183 C182 1.306 . S
O183 Cd184 2.228 . S
Cd184 O183 2.228 . S
Cd184 O188 2.273 . S
Cd184 O192 2.277 . S
O185 C182 1.160 . S
O185 Cd186 2.203 . S
Cd186 O185 2.203 . S
Cd186 O188 2.411 . S
Cd186 O189 2.333 . S
Cd186 O190 2.352 . S
Cd186 O194 2.277 . S
Cd186 O195 2.356 . S
C187 O192 1.209 . S
C187 O194 1.226 . S
O188 Cd184 2.273 . S
O188 Cd186 2.411 . S
O188 C191 1.320 . S
O189 Cd186 2.333 . S
O189 C191 1.214 . S
O190 Cd186 2.352 . S
O190 C193 1.258 . S
C191 O188 1.320 . S
C191 O189 1.214 . S
O192 Cd184 2.277 . S
O192 C187 1.209 . S
C193 O190 1.258 . S
C193 O195 1.282 . S
O194 Cd186 2.277 . S
O194 C187 1.226 . S
O195 Cd186 2.356 . S
O195 C193 1.282 . S
C196 O197 1.306 . S
C196 O199 1.160 . S
O197 C196 1.306 . S
O197 Cd198 2.228 . S
Cd198 O197 2.228 . S
Cd198 O202 2.273 . S
Cd198 O206 2.277 . S
O199 C196 1.160 . S
O199 Cd200 2.203 . S
Cd200 O199 2.203 . S
Cd200 O202 2.411 . S
Cd200 O203 2.333 . S
Cd200 O204 2.352 . S
Cd200 O208 2.277 . S
Cd200 O209 2.356 . S
C201 O206 1.209 . S
C201 O208 1.226 . S
O202 Cd198 2.273 . S
O202 Cd200 2.411 . S
O202 C205 1.320 . S
O203 Cd200 2.333 . S
O203 C205 1.214 . S
O204 Cd200 2.352 . S
O204 C207 1.258 . S
C205 O202 1.320 . S
C205 O203 1.214 . S
O206 Cd198 2.277 . S
O206 C201 1.209 . S
C207 O204 1.258 . S
C207 O209 1.282 . S
O208 Cd200 2.277 . S
O208 C201 1.226 . S
O209 Cd200 2.356 . S
O209 C207 1.282 . S
C210 O211 1.306 . S
C210 O213 1.160 . S
O211 C210 1.306 . S
O211 Cd212 2.228 . S
Cd212 O211 2.228 . S
Cd212 O216 2.273 . S
Cd212 O220 2.277 . S
O213 C210 1.160 . S
O213 Cd214 2.203 . S
Cd214 O213 2.203 . S
Cd214 O216 2.411 . S
Cd214 O217 2.333 . S
Cd214 O218 2.352 . S
Cd214 O222 2.277 . S
Cd214 O223 2.356 . S
C215 O220 1.209 . S
C215 O222 1.226 . S
O216 Cd212 2.273 . S
O216 Cd214 2.411 . S
O216 C219 1.320 . S
O217 Cd214 2.333 . S
O217 C219 1.214 . S
O218 Cd214 2.352 . S
O218 C221 1.258 . S
C219 O216 1.320 . S
C219 O217 1.214 . S
O220 Cd212 2.277 . S
O220 C215 1.209 . S
C221 O218 1.258 . S
C221 O223 1.282 . S
O222 Cd214 2.277 . S
O222 C215 1.226 . S
O223 Cd214 2.356 . S
O223 C221 1.282 . S
C224 C225 1.349 . S
C224 C226 1.327 . S
C224 H249 0.950 . S
C225 C224 1.349 . S
C225 C241 1.349 . S
C226 C224 1.327 . S
C226 C245 1.429 . S
C226 H250 0.950 . S
C227 C244 1.574 1_554 S
C227 C246 1.368 . S
C227 H251 0.949 . S
H228 C232 0.949 . S
C229 C230 1.349 . S
C229 C231 1.327 . S
C229 H252 0.950 . S
C230 C229 1.349 . S
C230 C242 1.349 . S
C231 C229 1.327 . S
C231 C247 1.429 . S
C231 H253 0.950 . S
C232 H228 0.949 . S
C232 C240 1.574 . S
C232 C248 1.368 . S
H233 C241 0.950 . S
H234 C239 0.950 . S
H235 C240 0.949 . S
H236 C242 0.950 . S
H237 C243 0.950 . S
H238 C244 0.949 . S
C239 H234 0.950 . S
C239 C241 1.327 . S
C239 C245 1.429 . S
C240 C232 1.574 . S
C240 H235 0.949 . S
C240 C246 1.368 1_556 S
C241 C225 1.349 . S
C241 H233 0.950 . S
C241 C239 1.327 . S
C242 C230 1.349 . S
C242 H236 0.950 . S
C242 C243 1.327 . S
C243 H237 0.950 . S
C243 C242 1.327 . S
C243 C247 1.429 . S
C244 C227 1.574 1_556 S
C244 H238 0.949 . S
C244 C248 1.368 . S
C245 C226 1.429 . S
C245 C239 1.429 . S
C245 C246 1.523 . S
C246 C227 1.368 . S
C246 C240 1.368 1_554 S
C246 C245 1.523 . S
C247 C231 1.429 . S
C247 C243 1.429 . S
C247 C248 1.523 . S
C248 C232 1.368 . S
C248 C244 1.368 . S
C248 C247 1.523 . S
H249 C224 0.950 . S
H250 C226 0.950 . S
H251 C227 0.949 . S
H252 C229 0.950 . S
H253 C231 0.950 . S
C254 C255 1.349 . S
C254 C256 1.327 . S
C254 H279 0.950 . S
C255 C254 1.349 . S
C255 C271 1.349 . S
C256 C254 1.327 . S
C256 C275 1.429 . S
C256 H280 0.950 . S
C257 C274 1.574 . S
C257 C276 1.368 . S
C257 H281 0.949 . S
H258 C262 0.949 . S
C259 C260 1.349 . S
C259 C261 1.327 . S
C259 H282 0.950 . S
C260 C259 1.349 . S
C260 C272 1.349 . S
C261 C259 1.327 . S
C261 C277 1.429 . S
C261 H283 0.950 . S
C262 H258 0.949 . S
C262 C270 1.574 . S
C262 C278 1.368 . S
H263 C271 0.950 . S
H264 C269 0.950 . S
H265 C270 0.949 . S
H266 C272 0.950 . S
H267 C273 0.950 . S
H268 C274 0.949 . S
C269 H264 0.950 . S
C269 C271 1.327 . S
C269 C275 1.429 . S
C270 C262 1.574 . S
C270 H265 0.949 . S
C270 C276 1.368 . S
C271 C255 1.349 . S
C271 H263 0.950 . S
C271 C269 1.327 . S
C272 C260 1.349 . S
C272 H266 0.950 . S
C272 C273 1.327 . S
C273 H267 0.950 . S
C273 C272 1.327 . S
C273 C277 1.429 . S
C274 C257 1.574 . S
C274 H268 0.949 . S
C274 C278 1.368 . S
C275 C256 1.429 . S
C275 C269 1.429 . S
C275 C276 1.523 . S
C276 C257 1.368 . S
C276 C270 1.368 . S
C276 C275 1.523 . S
C277 C261 1.429 . S
C277 C273 1.429 . S
C277 C278 1.523 . S
C278 C262 1.368 . S
C278 C274 1.368 . S
C278 C277 1.523 . S
H279 C254 0.950 . S
H280 C256 0.950 . S
H281 C257 0.949 . S
H282 C259 0.950 . S
H283 C261 0.950 . S
C284 C285 1.349 . S
C284 C286 1.327 . S
C284 H309 0.950 . S
C285 C284 1.349 . S
C285 C301 1.349 . S
C286 C284 1.327 . S
C286 C305 1.429 . S
C286 H310 0.950 . S
C287 C304 1.574 . S
C287 C306 1.368 1_554 S
C287 H311 0.949 . S
H288 C292 0.949 . S
C289 C290 1.349 . S
C289 C291 1.327 . S
C289 H312 0.950 . S
C290 C289 1.349 . S
C290 C302 1.349 . S
C291 C289 1.327 . S
C291 C307 1.429 . S
C291 H313 0.950 . S
C292 H288 0.949 . S
C292 C300 1.574 . S
C292 C308 1.368 1_556 S
H293 C301 0.950 . S
H294 C299 0.950 1_554 S
H295 C300 0.949 . S
H296 C302 0.950 . S
H297 C303 0.950 . S
H298 C304 0.949 . S
C299 H294 0.950 1_556 S
C299 C301 1.327 . S
C299 C305 1.429 . S
C300 C292 1.574 . S
C300 H295 0.949 . S
C300 C306 1.368 . S
C301 C285 1.349 . S
C301 H293 0.950 . S
C301 C299 1.327 . S
C302 C290 1.349 . S
C302 H296 0.950 . S
C302 C303 1.327 . S
C303 H297 0.950 . S
C303 C302 1.327 . S
C303 C307 1.429 . S
C304 C287 1.574 . S
C304 H298 0.949 . S
C304 C308 1.368 . S
C305 C286 1.429 . S
C305 C299 1.429 . S
C305 C306 1.523 . S
C306 C287 1.368 1_556 S
C306 C300 1.368 . S
C306 C305 1.523 . S
C307 C291 1.429 . S
C307 C303 1.429 . S
C307 C308 1.523 . S
C308 C292 1.368 1_554 S
C308 C304 1.368 . S
C308 C307 1.523 . S
H309 C284 0.950 . S
H310 C286 0.950 . S
H311 C287 0.949 . S
H312 C289 0.950 . S
H313 C291 0.950 . S
C314 C315 1.349 . S
C314 C316 1.327 . S
C314 H339 0.950 . S
C315 C314 1.349 . S
C315 C331 1.349 . S
C316 C314 1.327 . S
C316 C335 1.429 . S
C316 H340 0.950 . S
C317 C334 1.574 . S
C317 C336 1.368 . S
C317 H341 0.949 . S
H318 C322 0.949 . S
C319 C320 1.349 . S
C319 C321 1.327 . S
C319 H342 0.950 . S
C320 C319 1.349 . S
C320 C332 1.349 . S
C321 C319 1.327 . S
C321 C337 1.429 . S
C321 H343 0.950 . S
C322 H318 0.949 . S
C322 C330 1.574 . S
C322 C338 1.368 . S
H323 C331 0.950 . S
H324 C329 0.950 . S
H325 C330 0.949 . S
H326 C332 0.950 . S
H327 C333 0.950 . S
H328 C334 0.949 . S
C329 H324 0.950 . S
C329 C331 1.327 . S
C329 C335 1.429 . S
C330 C322 1.574 . S
C330 H325 0.949 . S
C330 C336 1.368 . S
C331 C315 1.349 . S
C331 H323 0.950 . S
C331 C329 1.327 . S
C332 C320 1.349 . S
C332 H326 0.950 . S
C332 C333 1.327 . S
C333 H327 0.950 . S
C333 C332 1.327 . S
C333 C337 1.429 . S
C334 C317 1.574 . S
C334 H328 0.949 . S
C334 C338 1.368 . S
C335 C316 1.429 . S
C335 C329 1.429 . S
C335 C336 1.523 . S
C336 C317 1.368 . S
C336 C330 1.368 . S
C336 C335 1.523 . S
C337 C321 1.429 . S
C337 C333 1.429 . S
C337 C338 1.523 . S
C338 C322 1.368 . S
C338 C334 1.368 . S
C338 C337 1.523 . S
H339 C314 0.950 . S
H340 C316 0.950 . S
H341 C317 0.949 . S
H342 C319 0.950 . S
H343 C321 0.950 . S
C344 C345 1.349 . S
C344 C346 1.327 . S
C344 H369 0.950 . S
C345 C344 1.349 . S
C345 C361 1.349 . S
C346 C344 1.327 . S
C346 C365 1.429 . S
C346 H370 0.950 . S
C347 C364 1.574 1_554 S
C347 C366 1.368 . S
C347 H371 0.949 . S
H348 C352 0.949 . S
C349 C350 1.349 . S
C349 C351 1.327 . S
C349 H372 0.950 . S
C350 C349 1.349 . S
C350 C362 1.349 . S
C351 C349 1.327 . S
C351 C367 1.429 . S
C351 H373 0.950 . S
C352 H348 0.949 . S
C352 C360 1.598 . S
C352 C368 1.368 . S
H353 C361 0.950 . S
H354 C359 0.950 . S
H355 C360 0.940 1_554 S
H356 C362 0.950 . S
H357 C363 0.950 . S
H358 C364 0.949 . S
C359 H354 0.950 . S
C359 C361 1.327 . S
C359 C365 1.429 . S
C360 C352 1.598 . S
C360 H355 0.940 1_556 S
C360 C366 1.357 1_556 S
C361 C345 1.349 . S
C361 H353 0.950 . S
C361 C359 1.327 . S
C362 C350 1.349 . S
C362 H356 0.950 . S
C362 C363 1.327 . S
C363 H357 0.950 . S
C363 C362 1.327 . S
C363 C367 1.429 . S
C364 C347 1.574 1_556 S
C364 H358 0.949 . S
C364 C368 1.368 . S
C365 C346 1.429 . S
C365 C359 1.429 . S
C365 C366 1.523 . S
C366 C347 1.368 . S
C366 C360 1.357 1_554 S
C366 C365 1.523 . S
C367 C351 1.429 . S
C367 C363 1.429 . S
C367 C368 1.523 . S
C368 C352 1.368 . S
C368 C364 1.368 . S
C368 C367 1.523 . S
H369 C344 0.950 . S
H370 C346 0.950 . S
H371 C347 0.949 . S
H372 C349 0.950 . S
H373 C351 0.950 . S
C374 C375 1.349 . S
C374 C376 1.327 . S
C374 H399 0.950 . S
C375 C374 1.349 . S
C375 C391 1.349 . S
C376 C374 1.327 . S
C376 C395 1.429 . S
C376 H400 0.950 . S
C377 C394 1.574 . S
C377 C396 1.368 . S
C377 H401 0.949 . S
H378 C382 0.949 . S
C379 C380 1.349 . S
C379 C381 1.327 . S
C379 H402 0.950 . S
C380 C379 1.349 . S
C380 C392 1.349 . S
C381 C379 1.327 . S
C381 C397 1.429 . S
C381 H403 0.950 . S
C382 H378 0.949 . S
C382 C390 1.574 . S
C382 C398 1.368 . S
H383 C391 0.950 . S
H384 C389 0.950 . S
H385 C390 0.949 . S
H386 C392 0.950 . S
H387 C393 0.950 . S
H388 C394 0.949 . S
C389 H384 0.950 . S
C389 C391 1.327 . S
C389 C395 1.429 . S
C390 C382 1.574 . S
C390 H385 0.949 . S
C390 C396 1.368 . S
C391 C375 1.349 . S
C391 H383 0.950 . S
C391 C389 1.327 . S
C392 C380 1.349 . S
C392 H386 0.950 . S
C392 C393 1.327 . S
C393 H387 0.950 . S
C393 C392 1.327 . S
C393 C397 1.429 . S
C394 C377 1.574 . S
C394 H388 0.949 . S
C394 C398 1.368 . S
C395 C376 1.429 . S
C395 C389 1.429 . S
C395 C396 1.523 . S
C396 C377 1.368 . S
C396 C390 1.368 . S
C396 C395 1.523 . S
C397 C381 1.429 . S
C397 C393 1.429 . S
C397 C398 1.523 . S
C398 C382 1.368 . S
C398 C394 1.368 . S
C398 C397 1.523 . S
H399 C374 0.950 . S
H400 C376 0.950 . S
H401 C377 0.949 . S
H402 C379 0.950 . S
H403 C381 0.950 . S
C404 C405 1.349 . S
C404 C406 1.327 . S
C404 H429 0.950 . S
C405 C404 1.349 . S
C405 C421 1.349 . S
C406 C404 1.327 . S
C406 C425 1.429 . S
C406 H430 0.937 1_556 S
C407 C424 1.589 . S
C407 C426 1.368 . S
C407 H431 0.949 . S
H408 C412 0.949 . S
C409 C410 1.349 . S
C409 C411 1.327 . S
C409 H432 0.950 . S
C410 C409 1.349 . S
C410 C422 1.349 . S
C411 C409 1.327 . S
C411 C427 1.429 . S
C411 H433 0.950 . S
C412 H408 0.949 . S
C412 C420 1.574 . S
C412 C428 1.368 . S
H413 C421 0.950 . S
H414 C419 0.950 . S
H415 C420 0.949 . S
H416 C422 0.950 . S
H417 C423 0.950 . S
H418 C424 0.957 . S
C419 H414 0.950 . S
C419 C421 1.327 . S
C419 C425 1.429 . S
C420 C412 1.574 . S
C420 H415 0.949 . S
C420 C426 1.368 1_554 S
C421 C405 1.349 . S
C421 H413 0.950 . S
C421 C419 1.327 . S
C422 C410 1.349 . S
C422 H416 0.950 . S
C422 C423 1.327 . S
C423 H417 0.950 . S
C423 C422 1.327 . S
C423 C427 1.429 . S
C424 C407 1.589 . S
C424 H418 0.957 . S
C424 C428 1.346 1_556 S
C425 C406 1.429 . S
C425 C419 1.429 . S
C425 C426 1.523 . S
C426 C407 1.368 . S
C426 C420 1.368 1_556 S
C426 C425 1.523 . S
C427 C411 1.429 . S
C427 C423 1.429 . S
C427 C428 1.523 . S
C428 C412 1.368 . S
C428 C424 1.346 1_554 S
C428 C427 1.523 . S
H429 C404 0.950 . S
H430 C406 0.937 1_554 S
H431 C407 0.949 . S
H432 C409 0.950 . S
H433 C411 0.950 . S
C434 C435 1.349 . S
C434 C436 1.327 . S
C434 H459 0.950 . S
C435 C434 1.349 . S
C435 C451 1.349 . S
C436 C434 1.327 . S
C436 C455 1.429 . S
C436 H460 0.950 . S
C437 C454 1.574 . S
C437 C456 1.368 . S
C437 H461 0.949 . S
H438 C442 0.949 . S
C439 C440 1.349 . S
C439 C441 1.327 . S
C439 H462 0.950 . S
C440 C439 1.349 . S
C440 C452 1.349 . S
C441 C439 1.327 . S
C441 C457 1.429 . S
C441 H463 0.950 . S
C442 H438 0.949 . S
C442 C450 1.574 . S
C442 C458 1.368 . S
H443 C451 0.950 . S
H444 C449 0.950 . S
H445 C450 0.949 . S
H446 C452 0.950 . S
H447 C453 0.950 . S
H448 C454 0.949 . S
C449 H444 0.950 . S
C449 C451 1.327 . S
C449 C455 1.429 . S
C450 C442 1.574 . S
C450 H445 0.949 . S
C450 C456 1.368 . S
C451 C435 1.349 . S
C451 H443 0.950 . S
C451 C449 1.327 . S
C452 C440 1.349 . S
C452 H446 0.950 . S
C452 C453 1.327 . S
C453 H447 0.950 . S
C453 C452 1.327 . S
C453 C457 1.429 . S
C454 C437 1.574 . S
C454 H448 0.949 . S
C454 C458 1.368 . S
C455 C436 1.429 . S
C455 C449 1.429 . S
C455 C456 1.523 . S
C456 C437 1.368 . S
C456 C450 1.368 . S
C456 C455 1.523 . S
C457 C441 1.429 . S
C457 C453 1.429 . S
C457 C458 1.523 . S
C458 C442 1.368 . S
C458 C454 1.368 . S
C458 C457 1.523 . S
H459 C434 0.950 . S
H460 C436 0.950 . S
H461 C437 0.949 . S
H462 C439 0.950 . S
H463 C441 0.950 . S
C464 C465 1.349 . S
C464 C466 1.327 . S
C464 H489 0.950 . S
C465 C464 1.349 . S
C465 C481 1.349 . S
C466 C464 1.327 . S
C466 C485 1.429 . S
C466 H490 0.950 1_554 S
C467 C484 1.574 1_545 S
C467 C486 1.368 . S
C467 H491 0.949 . S
H468 C472 0.949 . S
C469 C470 1.349 . S
C469 C471 1.327 . S
C469 H492 0.950 . S
C470 C469 1.349 . S
C470 C482 1.349 . S
C471 C469 1.327 . S
C471 C487 1.429 . S
C471 H493 0.950 1_556 S
C472 H468 0.949 . S
C472 C480 1.574 1_565 S
C472 C488 1.368 . S
H473 C481 0.950 . S
H474 C479 0.950 . S
H475 C480 0.949 . S
H476 C482 0.950 . S
H477 C483 0.950 . S
H478 C484 0.949 . S
C479 H474 0.950 . S
C479 C481 1.327 . S
C479 C485 1.429 . S
C480 C472 1.574 1_545 S
C480 H475 0.949 . S
C480 C486 1.368 1_556 S
C481 C465 1.349 . S
C481 H473 0.950 . S
C481 C479 1.327 . S
C482 C470 1.349 . S
C482 H476 0.950 . S
C482 C483 1.327 . S
C483 H477 0.950 . S
C483 C482 1.327 . S
C483 C487 1.429 . S
C484 C467 1.574 1_565 S
C484 H478 0.949 . S
C484 C488 1.368 1_554 S
C485 C466 1.429 . S
C485 C479 1.429 . S
C485 C486 1.523 . S
C486 C467 1.368 . S
C486 C480 1.368 1_554 S
C486 C485 1.523 . S
C487 C471 1.429 . S
C487 C483 1.429 . S
C487 C488 1.523 . S
C488 C472 1.368 . S
C488 C484 1.368 1_556 S
C488 C487 1.523 . S
H489 C464 0.950 . S
H490 C466 0.950 1_556 S
H491 C467 0.949 . S
H492 C469 0.950 . S
H493 C471 0.950 1_554 S
C494 C495 1.349 . S
C494 C496 1.327 . S
C494 H519 0.950 . S
C495 C494 1.349 . S
C495 C511 1.349 . S
C496 C494 1.327 . S
C496 C515 1.429 . S
C496 H520 0.950 . S
C497 C514 1.574 1_565 S
C497 C516 1.368 . S
C497 H521 0.949 . S
H498 C502 0.949 . S
C499 C500 1.349 . S
C499 C501 1.327 . S
C499 H522 0.950 . S
C500 C499 1.349 . S
C500 C512 1.349 . S
C501 C499 1.327 . S
C501 C517 1.429 . S
C501 H523 0.950 . S
C502 H498 0.949 . S
C502 C510 1.574 1_545 S
C502 C518 1.368 . S
H503 C511 0.950 . S
H504 C509 0.950 . S
H505 C510 0.949 . S
H506 C512 0.950 . S
H507 C513 0.950 . S
H508 C514 0.949 . S
C509 H504 0.950 . S
C509 C511 1.327 . S
C509 C515 1.429 . S
C510 C502 1.574 1_565 S
C510 H505 0.949 . S
C510 C516 1.368 . S
C511 C495 1.349 . S
C511 H503 0.950 . S
C511 C509 1.327 . S
C512 C500 1.349 . S
C512 H506 0.950 . S
C512 C513 1.327 . S
C513 H507 0.950 . S
C513 C512 1.327 . S
C513 C517 1.429 . S
C514 C497 1.574 1_545 S
C514 H508 0.949 . S
C514 C518 1.368 . S
C515 C496 1.429 . S
C515 C509 1.429 . S
C515 C516 1.523 . S
C516 C497 1.368 . S
C516 C510 1.368 . S
C516 C515 1.523 . S
C517 C501 1.429 . S
C517 C513 1.429 . S
C517 C518 1.523 . S
C518 C502 1.368 . S
C518 C514 1.368 . S
C518 C517 1.523 . S
H519 C494 0.950 . S
H520 C496 0.950 . S
H521 C497 0.949 . S
H522 C499 0.950 . S
H523 C501 0.950 . S
C524 C525 1.349 . S
C524 C526 1.327 . S
C524 H549 0.950 . S
C525 C524 1.349 . S
C525 C541 1.349 . S
C526 C524 1.327 . S
C526 C545 1.429 . S
C526 H550 0.950 . S
C527 C544 1.574 1_565 S
C527 C546 1.368 1_554 S
C527 H551 0.949 . S
H528 C532 0.949 . S
C529 C530 1.349 . S
C529 C531 1.327 . S
C529 H552 0.950 . S
C530 C529 1.349 . S
C530 C542 1.349 . S
C531 C529 1.327 . S
C531 C547 1.429 . S
C531 H553 0.950 . S
C532 H528 0.949 . S
C532 C540 1.574 1_545 S
C532 C548 1.368 1_556 S
H533 C541 0.950 . S
H534 C539 0.950 . S
H535 C540 0.949 . S
H536 C542 0.950 . S
H537 C543 0.950 . S
H538 C544 0.949 . S
C539 H534 0.950 . S
C539 C541 1.327 . S
C539 C545 1.429 . S
C540 C532 1.574 1_565 S
C540 H535 0.949 . S
C540 C546 1.368 . S
C541 C525 1.349 . S
C541 H533 0.950 . S
C541 C539 1.327 . S
C542 C530 1.349 . S
C542 H536 0.950 . S
C542 C543 1.327 . S
C543 H537 0.950 . S
C543 C542 1.327 . S
C543 C547 1.429 . S
C544 C527 1.574 1_545 S
C544 H538 0.949 . S
C544 C548 1.368 . S
C545 C526 1.429 . S
C545 C539 1.429 . S
C545 C546 1.523 . S
C546 C527 1.368 1_556 S
C546 C540 1.368 . S
C546 C545 1.523 . S
C547 C531 1.429 . S
C547 C543 1.429 . S
C547 C548 1.523 . S
C548 C532 1.368 1_554 S
C548 C544 1.368 . S
C548 C547 1.523 . S
H549 C524 0.950 . S
H550 C526 0.950 . S
H551 C527 0.949 . S
H552 C529 0.950 . S
H553 C531 0.950 . S
C554 C555 1.349 . S
C554 C556 1.327 . S
C554 H579 0.950 . S
C555 C554 1.349 . S
C555 C571 1.349 . S
C556 C554 1.327 . S
C556 C575 1.429 . S
C556 H580 0.950 . S
C557 C574 1.574 1_545 S
C557 C576 1.368 . S
C557 H581 0.949 . S
H558 C562 0.949 . S
C559 C560 1.349 . S
C559 C561 1.327 . S
C559 H582 0.950 . S
C560 C559 1.349 . S
C560 C572 1.349 . S
C561 C559 1.327 . S
C561 C577 1.429 . S
C561 H583 0.950 . S
C562 H558 0.949 . S
C562 C570 1.574 1_565 S
C562 C578 1.368 . S
H563 C571 0.950 . S
H564 C569 0.950 . S
H565 C570 0.949 . S
H566 C572 0.950 . S
H567 C573 0.950 . S
H568 C574 0.949 . S
C569 H564 0.950 . S
C569 C571 1.327 . S
C569 C575 1.429 . S
C570 C562 1.574 1_545 S
C570 H565 0.949 . S
C570 C576 1.368 . S
C571 C555 1.349 . S
C571 H563 0.950 . S
C571 C569 1.327 . S
C572 C560 1.349 . S
C572 H566 0.950 . S
C572 C573 1.327 . S
C573 H567 0.950 . S
C573 C572 1.327 . S
C573 C577 1.429 . S
C574 C557 1.574 1_565 S
C574 H568 0.949 . S
C574 C578 1.368 . S
C575 C556 1.429 . S
C575 C569 1.429 . S
C575 C576 1.523 . S
C576 C557 1.368 . S
C576 C570 1.368 . S
C576 C575 1.523 . S
C577 C561 1.429 . S
C577 C573 1.429 . S
C577 C578 1.523 . S
C578 C562 1.368 . S
C578 C574 1.368 . S
C578 C577 1.523 . S
H579 C554 0.950 . S
H580 C556 0.950 . S
H581 C557 0.949 . S
H582 C559 0.950 . S
H583 C561 0.950 . S
C584 C585 1.349 . S
C584 C586 1.327 . S
C584 H609 0.950 . S
C585 C584 1.349 . S
C585 C601 1.349 . S
C586 C584 1.327 . S
C586 C605 1.429 . S
C586 H610 0.950 . S
C587 C604 1.574 . S
C587 C606 1.368 1_554 S
C587 H611 0.949 . S
H588 C592 0.949 . S
C589 C590 1.349 . S
C589 C591 1.327 . S
C589 H612 0.950 . S
C590 C589 1.349 . S
C590 C602 1.349 . S
C591 C589 1.327 . S
C591 C607 1.429 . S
C591 H613 0.950 . S
C592 H588 0.949 . S
C592 C600 1.574 . S
C592 C608 1.368 1_556 S
H593 C601 0.950 . S
H594 C599 0.950 1_554 S
H595 C600 0.949 . S
H596 C602 0.950 . S
H597 C603 0.950 1_556 S
H598 C604 0.949 . S
C599 H594 0.950 1_556 S
C599 C601 1.327 . S
C599 C605 1.429 . S
C600 C592 1.574 . S
C600 H595 0.949 . S
C600 C606 1.368 . S
C601 C585 1.349 . S
C601 H593 0.950 . S
C601 C599 1.327 . S
C602 C590 1.349 . S
C602 H596 0.950 . S
C602 C603 1.327 . S
C603 H597 0.950 1_554 S
C603 C602 1.327 . S
C603 C607 1.429 . S
C604 C587 1.574 . S
C604 H598 0.949 . S
C604 C608 1.368 . S
C605 C586 1.429 . S
C605 C599 1.429 . S
C605 C606 1.523 . S
C606 C587 1.368 1_556 S
C606 C600 1.368 . S
C606 C605 1.523 . S
C607 C591 1.429 . S
C607 C603 1.429 . S
C607 C608 1.523 . S
C608 C592 1.368 1_554 S
C608 C604 1.368 . S
C608 C607 1.523 . S
H609 C584 0.950 . S
H610 C586 0.950 . S
H611 C587 0.949 . S
H612 C589 0.950 . S
H613 C591 0.950 . S
C614 C615 1.349 . S
C614 C616 1.327 . S
C614 H639 0.950 . S
C615 C614 1.349 . S
C615 C631 1.349 . S
C616 C614 1.327 . S
C616 C635 1.429 . S
C616 H640 0.950 . S
C617 C634 1.574 . S
C617 C636 1.368 . S
C617 H641 0.949 . S
H618 C622 0.949 . S
C619 C620 1.349 . S
C619 C621 1.327 . S
C619 H642 0.950 . S
C620 C619 1.349 . S
C620 C632 1.349 . S
C621 C619 1.327 . S
C621 C637 1.429 . S
C621 H643 0.950 . S
C622 H618 0.949 . S
C622 C630 1.574 . S
C622 C638 1.368 . S
H623 C631 0.950 . S
H624 C629 0.950 . S
H625 C630 0.949 . S
H626 C632 0.950 . S
H627 C633 0.950 . S
H628 C634 0.949 . S
C629 H624 0.950 . S
C629 C631 1.327 . S
C629 C635 1.429 . S
C630 C622 1.574 . S
C630 H625 0.949 . S
C630 C636 1.368 . S
C631 C615 1.349 . S
C631 H623 0.950 . S
C631 C629 1.327 . S
C632 C620 1.349 . S
C632 H626 0.950 . S
C632 C633 1.327 . S
C633 H627 0.950 . S
C633 C632 1.327 . S
C633 C637 1.429 . S
C634 C617 1.574 . S
C634 H628 0.949 . S
C634 C638 1.368 . S
C635 C616 1.429 . S
C635 C629 1.429 . S
C635 C636 1.523 . S
C636 C617 1.368 . S
C636 C630 1.368 . S
C636 C635 1.523 . S
C637 C621 1.429 . S
C637 C633 1.429 . S
C637 C638 1.523 . S
C638 C622 1.368 . S
C638 C634 1.368 . S
C638 C637 1.523 . S
H639 C614 0.950 . S
H640 C616 0.950 . S
H641 C617 0.949 . S
H642 C619 0.950 . S
H643 C621 0.950 . S
C644 C645 1.349 . S
C644 C646 1.327 . S
C644 H669 0.950 . S
C645 C644 1.349 . S
C645 C661 1.349 . S
C646 C644 1.327 . S
C646 C665 1.429 . S
C646 H670 0.950 . S
C647 C664 1.574 . S
C647 C666 1.368 . S
C647 H671 0.949 . S
H648 C652 0.949 . S
C649 C650 1.349 . S
C649 C651 1.327 . S
C649 H672 0.950 . S
C650 C649 1.349 . S
C650 C662 1.349 . S
C651 C649 1.327 . S
C651 C667 1.429 . S
C651 H673 0.950 . S
C652 H648 0.949 . S
C652 C660 1.574 . S
C652 C668 1.368 . S
H653 C661 0.950 . S
H654 C659 0.950 . S
H655 C660 0.949 . S
H656 C662 0.950 . S
H657 C663 0.950 . S
H658 C664 0.949 . S
C659 H654 0.950 . S
C659 C661 1.327 . S
C659 C665 1.429 . S
C660 C652 1.574 . S
C660 H655 0.949 . S
C660 C666 1.368 1_556 S
C661 C645 1.349 . S
C661 H653 0.950 . S
C661 C659 1.327 . S
C662 C650 1.349 . S
C662 H656 0.950 . S
C662 C663 1.327 . S
C663 H657 0.950 . S
C663 C662 1.327 . S
C663 C667 1.429 . S
C664 C647 1.574 . S
C664 H658 0.949 . S
C664 C668 1.368 1_554 S
C665 C646 1.429 . S
C665 C659 1.429 . S
C665 C666 1.523 . S
C666 C647 1.368 . S
C666 C660 1.368 1_554 S
C666 C665 1.523 . S
C667 C651 1.429 . S
C667 C663 1.429 . S
C667 C668 1.523 . S
C668 C652 1.368 . S
C668 C664 1.368 1_556 S
C668 C667 1.523 . S
H669 C644 0.950 . S
H670 C646 0.950 . S
H671 C647 0.949 . S
H672 C649 0.950 . S
H673 C651 0.950 . S
C674 C675 1.349 . S
C674 C676 1.327 . S
C674 H699 0.950 . S
C675 C674 1.349 . S
C675 C691 1.349 . S
C676 C674 1.327 . S
C676 C695 1.429 . S
C676 H700 0.950 . S
C677 C694 1.574 . S
C677 C696 1.368 . S
C677 H701 0.949 . S
H678 C682 0.949 . S
C679 C680 1.349 . S
C679 C681 1.327 . S
C679 H702 0.950 . S
C680 C679 1.349 . S
C680 C692 1.349 . S
C681 C679 1.327 . S
C681 C697 1.429 . S
C681 H703 0.950 . S
C682 H678 0.949 . S
C682 C690 1.574 . S
C682 C698 1.368 . S
H683 C691 0.950 . S
H684 C689 0.950 . S
H685 C690 0.949 . S
H686 C692 0.950 . S
H687 C693 0.950 . S
H688 C694 0.949 . S
C689 H684 0.950 . S
C689 C691 1.327 . S
C689 C695 1.429 . S
C690 C682 1.574 . S
C690 H685 0.949 . S
C690 C696 1.368 . S
C691 C675 1.349 . S
C691 H683 0.950 . S
C691 C689 1.327 . S
C692 C680 1.349 . S
C692 H686 0.950 . S
C692 C693 1.327 . S
C693 H687 0.950 . S
C693 C692 1.327 . S
C693 C697 1.429 . S
C694 C677 1.574 . S
C694 H688 0.949 . S
C694 C698 1.368 . S
C695 C676 1.429 . S
C695 C689 1.429 . S
C695 C696 1.523 . S
C696 C677 1.368 . S
C696 C690 1.368 . S
C696 C695 1.523 . S
C697 C681 1.429 . S
C697 C693 1.429 . S
C697 C698 1.523 . S
C698 C682 1.368 . S
C698 C694 1.368 . S
C698 C697 1.523 . S
H699 C674 0.950 . S
H700 C676 0.950 . S
H701 C677 0.949 . S
H702 C679 0.950 . S
H703 C681 0.950 . S
C704 C705 1.349 . S
C704 C706 1.327 . S
C704 H729 0.950 . S
C705 C704 1.349 . S
C705 C721 1.349 . S
C706 C704 1.327 . S
C706 C725 1.429 . S
C706 H730 0.950 . S
C707 C724 1.574 . S
C707 C726 1.368 . S
C707 H731 0.949 . S
H708 C712 0.949 . S
C709 C710 1.349 . S
C709 C711 1.327 . S
C709 H732 0.950 . S
C710 C709 1.349 . S
C710 C722 1.349 . S
C711 C709 1.327 . S
C711 C727 1.429 . S
C711 H733 0.950 . S
C712 H708 0.949 . S
C712 C720 1.574 . S
C712 C728 1.368 . S
H713 C721 0.950 . S
H714 C719 0.950 . S
H715 C720 0.949 . S
H716 C722 0.950 . S
H717 C723 0.950 . S
H718 C724 0.949 . S
C719 H714 0.950 . S
C719 C721 1.327 . S
C719 C725 1.429 . S
C720 C712 1.574 . S
C720 H715 0.949 . S
C720 C726 1.368 . S
C721 C705 1.349 . S
C721 H713 0.950 . S
C721 C719 1.327 . S
C722 C710 1.349 . S
C722 H716 0.950 . S
C722 C723 1.327 . S
C723 H717 0.950 . S
C723 C722 1.327 . S
C723 C727 1.429 . S
C724 C707 1.574 . S
C724 H718 0.949 . S
C724 C728 1.368 . S
C725 C706 1.429 . S
C725 C719 1.429 . S
C725 C726 1.523 . S
C726 C707 1.368 . S
C726 C720 1.368 . S
C726 C725 1.523 . S
C727 C711 1.429 . S
C727 C723 1.429 . S
C727 C728 1.523 . S
C728 C712 1.368 . S
C728 C724 1.368 . S
C728 C727 1.523 . S
H729 C704 0.950 . S
H730 C706 0.950 . S
H731 C707 0.949 . S
H732 C709 0.950 . S
H733 C711 0.950 . S
C734 C735 1.349 . S
C734 C736 1.327 . S
C734 H759 0.950 . S
C735 C734 1.349 . S
C735 C751 1.349 . S
C736 C734 1.327 . S
C736 C755 1.429 . S
C736 H760 0.950 . S
C737 C754 1.607 . S
C737 C756 1.355 1_455 S
C737 H761 0.932 1_455 S
H738 C742 0.949 . S
C739 C740 1.349 . S
C739 C741 1.327 . S
C739 H762 0.950 . S
C740 C739 1.349 . S
C740 C752 1.349 . S
C741 C739 1.327 . S
C741 C757 1.429 . S
C741 H763 0.950 . S
C742 H738 0.949 . S
C742 C750 1.554 1_455 S
C742 C758 1.368 . S
H743 C751 0.950 . S
H744 C749 0.950 . S
H745 C750 0.961 . S
H746 C752 0.950 . S
H747 C753 0.950 . S
H748 C754 0.949 . S
C749 H744 0.950 . S
C749 C751 1.327 . S
C749 C755 1.429 . S
C750 C742 1.554 1_655 S
C750 H745 0.961 . S
C750 C756 1.376 . S
C751 C735 1.349 . S
C751 H743 0.950 . S
C751 C749 1.327 . S
C752 C740 1.349 . S
C752 H746 0.950 . S
C752 C753 1.327 . S
C753 H747 0.950 . S
C753 C752 1.327 . S
C753 C757 1.429 . S
C754 C737 1.607 . S
C754 H748 0.949 . S
C754 C758 1.368 . S
C755 C736 1.429 . S
C755 C749 1.429 . S
C755 C756 1.523 . S
C756 C737 1.355 1_655 S
C756 C750 1.376 . S
C756 C755 1.523 . S
C757 C741 1.429 . S
C757 C753 1.429 . S
C757 C758 1.523 . S
C758 C742 1.368 . S
C758 C754 1.368 . S
C758 C757 1.523 . S
H759 C734 0.950 . S
H760 C736 0.950 . S
H761 C737 0.932 1_655 S
H762 C739 0.950 . S
H763 C741 0.950 . S
C764 C765 1.349 . S
C764 C766 1.327 . S
C764 H789 0.950 . S
C765 C764 1.349 . S
C765 C781 1.349 . S
C766 C764 1.327 . S
C766 C785 1.429 . S
C766 H790 0.950 . S
C767 C784 1.574 . S
C767 C786 1.368 . S
C767 H791 0.949 . S
H768 C772 0.949 . S
C769 C770 1.349 . S
C769 C771 1.327 . S
C769 H792 0.950 . S
C770 C769 1.349 . S
C770 C782 1.349 . S
C771 C769 1.327 . S
C771 C787 1.429 . S
C771 H793 0.950 . S
C772 H768 0.949 . S
C772 C780 1.574 . S
C772 C788 1.368 . S
H773 C781 0.950 . S
H774 C779 0.950 . S
H775 C780 0.949 . S
H776 C782 0.950 . S
H777 C783 0.950 . S
H778 C784 0.949 . S
C779 H774 0.950 . S
C779 C781 1.327 . S
C779 C785 1.429 . S
C780 C772 1.574 . S
C780 H775 0.949 . S
C780 C786 1.368 . S
C781 C765 1.349 . S
C781 H773 0.950 . S
C781 C779 1.327 . S
C782 C770 1.349 . S
C782 H776 0.950 . S
C782 C783 1.327 . S
C783 H777 0.950 . S
C783 C782 1.327 . S
C783 C787 1.429 . S
C784 C767 1.574 . S
C784 H778 0.949 . S
C784 C788 1.368 . S
C785 C766 1.429 . S
C785 C779 1.429 . S
C785 C786 1.523 . S
C786 C767 1.368 . S
C786 C780 1.368 . S
C786 C785 1.523 . S
C787 C771 1.429 . S
C787 C783 1.429 . S
C787 C788 1.523 . S
C788 C772 1.368 . S
C788 C784 1.368 . S
C788 C787 1.523 . S
H789 C764 0.950 . S
H790 C766 0.950 . S
H791 C767 0.949 . S
H792 C769 0.950 . S
H793 C771 0.950 . S
C794 C795 1.349 . S
C794 C796 1.327 . S
C794 H819 0.950 . S
C795 C794 1.349 . S
C795 C811 1.349 . S
C796 C794 1.327 . S
C796 C815 1.429 . S
C796 H820 0.950 . S
C797 C814 1.615 . S
C797 C816 1.368 . S
C797 H821 0.949 . S
H798 C802 0.965 . S
C799 C800 1.349 . S
C799 C801 1.327 . S
C799 H822 0.950 . S
C800 C799 1.349 . S
C800 C812 1.349 . S
C801 C799 1.327 . S
C801 C817 1.429 . S
C801 H823 0.950 . S
C802 H798 0.965 . S
C802 C810 1.546 1_655 S
C802 C818 1.378 . S
H803 C811 0.950 . S
H804 C809 0.950 . S
H805 C810 0.949 . S
H806 C812 0.950 . S
H807 C813 0.950 . S
H808 C814 0.928 1_655 S
C809 H804 0.950 . S
C809 C811 1.327 . S
C809 C815 1.429 . S
C810 C802 1.546 1_455 S
C810 H805 0.949 . S
C810 C816 1.368 . S
C811 C795 1.349 . S
C811 H803 0.950 . S
C811 C809 1.327 . S
C812 C800 1.349 . S
C812 H806 0.950 . S
C812 C813 1.327 . S
C813 H807 0.950 . S
C813 C812 1.327 . S
C813 C817 1.429 . S
C814 C797 1.615 . S
C814 H808 0.928 1_455 S
C814 C818 1.352 1_455 S
C815 C796 1.429 . S
C815 C809 1.429 . S
C815 C816 1.523 . S
C816 C797 1.368 . S
C816 C810 1.368 . S
C816 C815 1.523 . S
C817 C801 1.429 . S
C817 C813 1.429 . S
C817 C818 1.523 . S
C818 C802 1.378 . S
C818 C814 1.352 1_655 S
C818 C817 1.523 . S
H819 C794 0.950 . S
H820 C796 0.950 . S
H821 C797 0.949 . S
H822 C799 0.950 . S
H823 C801 0.950 . S
C824 C825 1.349 . S
C824 C826 1.327 . S
C824 H849 0.950 . S
C825 C824 1.349 . S
C825 C841 1.349 . S
C826 C824 1.327 . S
C826 C845 1.429 . S
C826 H850 0.950 . S
C827 C844 1.602 . S
C827 C846 1.357 1_655 S
C827 H851 0.934 1_655 S
H828 C832 0.949 . S
C829 C830 1.349 . S
C829 C831 1.327 . S
C829 H852 0.950 . S
C830 C829 1.349 . S
C830 C842 1.349 . S
C831 C829 1.327 . S
C831 C847 1.429 . S
C831 H853 0.950 . S
C832 H828 0.949 . S
C832 C840 1.559 1_655 S
C832 C848 1.368 . S
H833 C841 0.950 . S
H834 C839 0.950 . S
H835 C840 0.957 . S
H836 C842 0.950 . S
H837 C843 0.950 . S
H838 C844 0.949 . S
C839 H834 0.950 . S
C839 C841 1.327 . S
C839 C845 1.429 . S
C840 C832 1.559 1_455 S
C840 H835 0.957 . S
C840 C846 1.374 . S
C841 C825 1.349 . S
C841 H833 0.950 . S
C841 C839 1.327 . S
C842 C830 1.349 . S
C842 H836 0.950 . S
C842 C843 1.327 . S
C843 H837 0.950 . S
C843 C842 1.327 . S
C843 C847 1.429 . S
C844 C827 1.602 . S
C844 H838 0.949 . S
C844 C848 1.368 . S
C845 C826 1.429 . S
C845 C839 1.429 . S
C845 C846 1.523 . S
C846 C827 1.357 1_455 S
C846 C840 1.374 . S
C846 C845 1.523 . S
C847 C831 1.429 . S
C847 C843 1.429 . S
C847 C848 1.523 . S
C848 C832 1.368 . S
C848 C844 1.368 . S
C848 C847 1.523 . S
H849 C824 0.950 . S
H850 C826 0.950 . S
H851 C827 0.934 1_455 S
H852 C829 0.950 . S
H853 C831 0.950 . S
C854 C855 1.349 . S
C854 C856 1.327 . S
C854 H879 0.950 . S
C855 C854 1.349 . S
C855 C871 1.349 . S
C856 C854 1.327 . S
C856 C875 1.429 . S
C856 H880 0.950 . S
C857 C874 1.574 . S
C857 C876 1.368 . S
C857 H881 0.949 . S
H858 C862 0.949 . S
C859 C860 1.349 . S
C859 C861 1.327 . S
C859 H882 0.950 . S
C860 C859 1.349 . S
C860 C872 1.349 . S
C861 C859 1.327 . S
C861 C877 1.429 . S
C861 H883 0.950 . S
C862 H858 0.949 . S
C862 C870 1.574 . S
C862 C878 1.368 . S
H863 C871 0.950 . S
H864 C869 0.950 . S
H865 C870 0.949 . S
H866 C872 0.950 . S
H867 C873 0.950 . S
H868 C874 0.949 . S
C869 H864 0.950 . S
C869 C871 1.327 . S
C869 C875 1.429 . S
C870 C862 1.574 . S
C870 H865 0.949 . S
C870 C876 1.368 . S
C871 C855 1.349 . S
C871 H863 0.950 . S
C871 C869 1.327 . S
C872 C860 1.349 . S
C872 H866 0.950 . S
C872 C873 1.327 . S
C873 H867 0.950 . S
C873 C872 1.327 . S
C873 C877 1.429 . S
C874 C857 1.574 . S
C874 H868 0.949 . S
C874 C878 1.368 . S
C875 C856 1.429 . S
C875 C869 1.429 . S
C875 C876 1.523 . S
C876 C857 1.368 . S
C876 C870 1.368 . S
C876 C875 1.523 . S
C877 C861 1.429 . S
C877 C873 1.429 . S
C877 C878 1.523 . S
C878 C862 1.368 . S
C878 C874 1.368 . S
C878 C877 1.523 . S
H879 C854 0.950 . S
H880 C856 0.950 . S
H881 C857 0.949 . S
H882 C859 0.950 . S
H883 C861 0.950 . S
C884 C885 1.349 . S
C884 C886 1.327 . S
C884 H909 0.950 . S
C885 C884 1.349 . S
C885 C901 1.349 . S
C886 C884 1.327 . S
C886 C905 1.429 . S
C886 H910 0.950 . S
C887 C904 1.606 . S
C887 C906 1.355 1_655 S
C887 H911 0.932 1_655 S
H888 C892 0.949 . S
C889 C890 1.349 . S
C889 C891 1.327 . S
C889 H912 0.950 . S
C890 C889 1.349 . S
C890 C902 1.349 . S
C891 C889 1.327 . S
C891 C907 1.429 . S
C891 H913 0.950 . S
C892 H888 0.949 . S
C892 C900 1.555 1_655 S
C892 C908 1.368 . S
H893 C901 0.950 . S
H894 C899 0.950 . S
H895 C900 0.960 . S
H896 C902 0.950 . S
H897 C903 0.950 . S
H898 C904 0.949 . S
C899 H894 0.950 . S
C899 C901 1.327 . S
C899 C905 1.429 . S
C900 C892 1.555 1_455 S
C900 H895 0.960 . S
C900 C906 1.375 . S
C901 C885 1.349 . S
C901 H893 0.950 . S
C901 C899 1.327 . S
C902 C890 1.349 . S
C902 H896 0.950 . S
C902 C903 1.327 . S
C903 H897 0.950 . S
C903 C902 1.327 . S
C903 C907 1.429 . S
C904 C887 1.606 . S
C904 H898 0.949 . S
C904 C908 1.368 . S
C905 C886 1.429 . S
C905 C899 1.429 . S
C905 C906 1.523 . S
C906 C887 1.355 1_455 S
C906 C900 1.375 . S
C906 C905 1.523 . S
C907 C891 1.429 . S
C907 C903 1.429 . S
C907 C908 1.523 . S
C908 C892 1.368 . S
C908 C904 1.368 . S
C908 C907 1.523 . S
H909 C884 0.950 . S
H910 C886 0.950 . S
H911 C887 0.932 1_455 S
H912 C889 0.950 . S
H913 C891 0.950 . S
C914 C915 1.349 . S
C914 C916 1.327 . S
C914 H939 0.950 . S
C915 C914 1.349 . S
C915 C931 1.349 . S
C916 C914 1.327 . S
C916 C935 1.429 . S
C916 H940 0.950 . S
C917 C934 1.574 . S
C917 C936 1.368 . S
C917 H941 0.949 . S
H918 C922 0.949 . S
C919 C920 1.349 . S
C919 C921 1.327 . S
C919 H942 0.950 . S
C920 C919 1.349 . S
C920 C932 1.349 . S
C921 C919 1.327 . S
C921 C937 1.429 . S
C921 H943 0.950 . S
C922 H918 0.949 . S
C922 C930 1.574 . S
C922 C938 1.368 . S
H923 C931 0.950 . S
H924 C929 0.950 . S
H925 C930 0.949 . S
H926 C932 0.950 . S
H927 C933 0.950 . S
H928 C934 0.949 . S
C929 H924 0.950 . S
C929 C931 1.327 . S
C929 C935 1.429 . S
C930 C922 1.574 . S
C930 H925 0.949 . S
C930 C936 1.368 . S
C931 C915 1.349 . S
C931 H923 0.950 . S
C931 C929 1.327 . S
C932 C920 1.349 . S
C932 H926 0.950 . S
C932 C933 1.327 . S
C933 H927 0.950 . S
C933 C932 1.327 . S
C933 C937 1.429 . S
C934 C917 1.574 . S
C934 H928 0.949 . S
C934 C938 1.368 . S
C935 C916 1.429 . S
C935 C929 1.429 . S
C935 C936 1.523 . S
C936 C917 1.368 . S
C936 C930 1.368 . S
C936 C935 1.523 . S
C937 C921 1.429 . S
C937 C933 1.429 . S
C937 C938 1.523 . S
C938 C922 1.368 . S
C938 C934 1.368 . S
C938 C937 1.523 . S
H939 C914 0.950 . S
H940 C916 0.950 . S
H941 C917 0.949 . S
H942 C919 0.950 . S
H943 C921 0.950 . S
C944 C945 1.349 . S
C944 C946 1.327 . S
C944 H969 0.950 . S
C945 C944 1.349 . S
C945 C961 1.349 . S
C946 C944 1.327 . S
C946 C965 1.429 . S
C946 H970 0.950 . S
C947 C964 1.574 . S
C947 C966 1.368 . S
C947 H971 0.949 . S
H948 C952 0.949 . S
C949 C950 1.349 . S
C949 C951 1.327 . S
C949 H972 0.950 . S
C950 C949 1.349 . S
C950 C962 1.349 . S
C951 C949 1.327 . S
C951 C967 1.429 . S
C951 H973 0.950 . S
C952 H948 0.949 . S
C952 C960 1.574 . S
C952 C968 1.368 . S
H953 C961 0.950 . S
H954 C959 0.950 . S
H955 C960 0.949 . S
H956 C962 0.950 . S
H957 C963 0.950 . S
H958 C964 0.949 . S
C959 H954 0.950 . S
C959 C961 1.327 . S
C959 C965 1.429 . S
C960 C952 1.574 . S
C960 H955 0.949 . S
C960 C966 1.368 . S
C961 C945 1.349 . S
C961 H953 0.950 . S
C961 C959 1.327 . S
C962 C950 1.349 . S
C962 H956 0.950 . S
C962 C963 1.327 . S
C963 H957 0.950 . S
C963 C962 1.327 . S
C963 C967 1.429 . S
C964 C947 1.574 . S
C964 H958 0.949 . S
C964 C968 1.368 . S
C965 C946 1.429 . S
C965 C959 1.429 . S
C965 C966 1.523 . S
C966 C947 1.368 . S
C966 C960 1.368 . S
C966 C965 1.523 . S
C967 C951 1.429 . S
C967 C963 1.429 . S
C967 C968 1.523 . S
C968 C952 1.368 . S
C968 C964 1.368 . S
C968 C967 1.523 . S
H969 C944 0.950 . S
H970 C946 0.950 . S
H971 C947 0.949 . S
H972 C949 0.950 . S
H973 C951 0.950 . S
C974 C975 1.349 . S
C974 C976 1.327 . S
C974 H999 0.950 . S
C975 C974 1.349 . S
C975 C991 1.349 . S
C976 C974 1.327 . S
C976 C995 1.429 . S
C976 H1000 0.950 . S
C977 C994 1.574 . S
C977 C996 1.368 . S
C977 H1001 0.949 . S
H978 C982 0.949 . S
C979 C980 1.349 . S
C979 C981 1.327 . S
C979 H1002 0.950 . S
C980 C979 1.349 . S
C980 C992 1.349 . S
C981 C979 1.327 . S
C981 C997 1.429 . S
C981 H1003 0.950 . S
C982 H978 0.949 . S
C982 C990 1.574 . S
C982 C998 1.368 . S
H983 C991 0.950 . S
H984 C989 0.950 . S
H985 C990 0.949 . S
H986 C992 0.950 . S
H987 C993 0.950 . S
H988 C994 0.949 . S
C989 H984 0.950 . S
C989 C991 1.327 . S
C989 C995 1.429 . S
C990 C982 1.574 . S
C990 H985 0.949 . S
C990 C996 1.368 . S
C991 C975 1.349 . S
C991 H983 0.950 . S
C991 C989 1.327 . S
C992 C980 1.349 . S
C992 H986 0.950 . S
C992 C993 1.327 . S
C993 H987 0.950 . S
C993 C992 1.327 . S
C993 C997 1.429 . S
C994 C977 1.574 . S
C994 H988 0.949 . S
C994 C998 1.368 . S
C995 C976 1.429 . S
C995 C989 1.429 . S
C995 C996 1.523 . S
C996 C977 1.368 . S
C996 C990 1.368 . S
C996 C995 1.523 . S
C997 C981 1.429 . S
C997 C993 1.429 . S
C997 C998 1.523 . S
C998 C982 1.368 . S
C998 C994 1.368 . S
C998 C997 1.523 . S
H999 C974 0.950 . S
H1000 C976 0.950 . S
H1001 C977 0.949 . S
H1002 C979 0.950 . S
H1003 C981 0.950 . S
C1004 C1005 1.349 . S
C1004 C1006 1.327 . S
C1004 H1029 0.950 . S
C1005 C1004 1.349 . S
C1005 C1021 1.349 . S
C1006 C1004 1.327 . S
C1006 C1025 1.429 . S
C1006 H1030 0.950 . S
C1007 C1024 1.574 . S
C1007 C1026 1.368 . S
C1007 H1031 0.949 . S
H1008 C1012 0.949 . S
C1009 C1010 1.349 . S
C1009 C1011 1.327 . S
C1009 H1032 0.950 . S
C1010 C1009 1.349 . S
C1010 C1022 1.349 . S
C1011 C1009 1.327 . S
C1011 C1027 1.429 . S
C1011 H1033 0.950 . S
C1012 H1008 0.949 . S
C1012 C1020 1.574 . S
C1012 C1028 1.368 . S
H1013 C1021 0.950 . S
H1014 C1019 0.950 . S
H1015 C1020 0.949 . S
H1016 C1022 0.950 . S
H1017 C1023 0.950 . S
H1018 C1024 0.949 . S
C1019 H1014 0.950 . S
C1019 C1021 1.327 . S
C1019 C1025 1.429 . S
C1020 C1012 1.574 . S
C1020 H1015 0.949 . S
C1020 C1026 1.368 . S
C1021 C1005 1.349 . S
C1021 H1013 0.950 . S
C1021 C1019 1.327 . S
C1022 C1010 1.349 . S
C1022 H1016 0.950 . S
C1022 C1023 1.327 . S
C1023 H1017 0.950 . S
C1023 C1022 1.327 . S
C1023 C1027 1.429 . S
C1024 C1007 1.574 . S
C1024 H1018 0.949 . S
C1024 C1028 1.368 . S
C1025 C1006 1.429 . S
C1025 C1019 1.429 . S
C1025 C1026 1.523 . S
C1026 C1007 1.368 . S
C1026 C1020 1.368 . S
C1026 C1025 1.523 . S
C1027 C1011 1.429 . S
C1027 C1023 1.429 . S
C1027 C1028 1.523 . S
C1028 C1012 1.368 . S
C1028 C1024 1.368 . S
C1028 C1027 1.523 . S
H1029 C1004 0.950 . S
H1030 C1006 0.950 . S
H1031 C1007 0.949 . S
H1032 C1009 0.950 . S
H1033 C1011 0.950 . S
C1034 C1035 1.349 . S
C1034 C1036 1.327 . S
C1034 H1059 0.950 . S
C1035 C1034 1.349 . S
C1035 C1051 1.349 . S
C1036 C1034 1.327 . S
C1036 C1055 1.429 . S
C1036 H1060 0.950 . S
C1037 C1054 1.574 . S
C1037 C1056 1.368 . S
C1037 H1061 0.949 . S
H1038 C1042 0.949 . S
C1039 C1040 1.349 . S
C1039 C1041 1.327 . S
C1039 H1062 0.950 . S
C1040 C1039 1.349 . S
C1040 C1052 1.349 . S
C1041 C1039 1.327 . S
C1041 C1057 1.429 . S
C1041 H1063 0.950 . S
C1042 H1038 0.949 . S
C1042 C1050 1.574 . S
C1042 C1058 1.368 . S
H1043 C1051 0.950 . S
H1044 C1049 0.950 . S
H1045 C1050 0.949 . S
H1046 C1052 0.950 . S
H1047 C1053 0.950 . S
H1048 C1054 0.949 . S
C1049 H1044 0.950 . S
C1049 C1051 1.327 . S
C1049 C1055 1.429 . S
C1050 C1042 1.574 . S
C1050 H1045 0.949 . S
C1050 C1056 1.368 . S
C1051 C1035 1.349 . S
C1051 H1043 0.950 . S
C1051 C1049 1.327 . S
C1052 C1040 1.349 . S
C1052 H1046 0.950 . S
C1052 C1053 1.327 . S
C1053 H1047 0.950 . S
C1053 C1052 1.327 . S
C1053 C1057 1.429 . S
C1054 C1037 1.574 . S
C1054 H1048 0.949 . S
C1054 C1058 1.368 . S
C1055 C1036 1.429 . S
C1055 C1049 1.429 . S
C1055 C1056 1.523 . S
C1056 C1037 1.368 . S
C1056 C1050 1.368 . S
C1056 C1055 1.523 . S
C1057 C1041 1.429 . S
C1057 C1053 1.429 . S
C1057 C1058 1.523 . S
C1058 C1042 1.368 . S
C1058 C1054 1.368 . S
C1058 C1057 1.523 . S
H1059 C1034 0.950 . S
H1060 C1036 0.950 . S
H1061 C1037 0.949 . S
H1062 C1039 0.950 . S
H1063 C1041 0.950 . S
C1064 C1065 1.349 . S
C1064 C1066 1.327 . S
C1064 H1089 0.950 . S
C1065 C1064 1.349 . S
C1065 C1081 1.349 . S
C1066 C1064 1.327 . S
C1066 C1085 1.429 . S
C1066 H1090 0.950 . S
C1067 C1084 1.574 . S
C1067 C1086 1.368 . S
C1067 H1091 0.949 . S
H1068 C1072 0.949 . S
C1069 C1070 1.349 . S
C1069 C1071 1.327 . S
C1069 H1092 0.950 . S
C1070 C1069 1.349 . S
C1070 C1082 1.349 . S
C1071 C1069 1.327 . S
C1071 C1087 1.429 . S
C1071 H1093 0.950 . S
C1072 H1068 0.949 . S
C1072 C1080 1.574 . S
C1072 C1088 1.368 . S
H1073 C1081 0.950 . S
H1074 C1079 0.950 . S
H1075 C1080 0.949 . S
H1076 C1082 0.950 . S
H1077 C1083 0.950 . S
H1078 C1084 0.949 . S
C1079 H1074 0.950 . S
C1079 C1081 1.327 . S
C1079 C1085 1.429 . S
C1080 C1072 1.574 . S
C1080 H1075 0.949 . S
C1080 C1086 1.368 . S
C1081 C1065 1.349 . S
C1081 H1073 0.950 . S
C1081 C1079 1.327 . S
C1082 C1070 1.349 . S
C1082 H1076 0.950 . S
C1082 C1083 1.327 . S
C1083 H1077 0.950 . S
C1083 C1082 1.327 . S
C1083 C1087 1.429 . S
C1084 C1067 1.574 . S
C1084 H1078 0.949 . S
C1084 C1088 1.368 . S
C1085 C1066 1.429 . S
C1085 C1079 1.429 . S
C1085 C1086 1.523 . S
C1086 C1067 1.368 . S
C1086 C1080 1.368 . S
C1086 C1085 1.523 . S
C1087 C1071 1.429 . S
C1087 C1083 1.429 . S
C1087 C1088 1.523 . S
C1088 C1072 1.368 . S
C1088 C1084 1.368 . S
C1088 C1087 1.523 . S
H1089 C1064 0.950 . S
H1090 C1066 0.950 . S
H1091 C1067 0.949 . S
H1092 C1069 0.950 . S
H1093 C1071 0.950 . S
C1094 C1095 1.349 . S
C1094 C1096 1.327 . S
C1094 H1119 0.950 . S
C1095 C1094 1.349 . S
C1095 C1111 1.349 . S
C1096 C1094 1.327 . S
C1096 C1115 1.429 . S
C1096 H1120 0.950 . S
C1097 C1114 1.574 . S
C1097 C1116 1.368 . S
C1097 H1121 0.949 . S
H1098 C1102 0.949 . S
C1099 C1100 1.349 . S
C1099 C1101 1.327 . S
C1099 H1122 0.950 . S
C1100 C1099 1.349 . S
C1100 C1112 1.349 . S
C1101 C1099 1.327 . S
C1101 C1117 1.429 . S
C1101 H1123 0.950 . S
C1102 H1098 0.949 . S
C1102 C1110 1.574 . S
C1102 C1118 1.368 . S
H1103 C1111 0.950 . S
H1104 C1109 0.950 . S
H1105 C1110 0.949 . S
H1106 C1112 0.950 . S
H1107 C1113 0.950 . S
H1108 C1114 0.949 . S
C1109 H1104 0.950 . S
C1109 C1111 1.327 . S
C1109 C1115 1.429 . S
C1110 C1102 1.574 . S
C1110 H1105 0.949 . S
C1110 C1116 1.368 . S
C1111 C1095 1.349 . S
C1111 H1103 0.950 . S
C1111 C1109 1.327 . S
C1112 C1100 1.349 . S
C1112 H1106 0.950 . S
C1112 C1113 1.327 . S
C1113 H1107 0.950 . S
C1113 C1112 1.327 . S
C1113 C1117 1.429 . S
C1114 C1097 1.574 . S
C1114 H1108 0.949 . S
C1114 C1118 1.368 . S
C1115 C1096 1.429 . S
C1115 C1109 1.429 . S
C1115 C1116 1.523 . S
C1116 C1097 1.368 . S
C1116 C1110 1.368 . S
C1116 C1115 1.523 . S
C1117 C1101 1.429 . S
C1117 C1113 1.429 . S
C1117 C1118 1.523 . S
C1118 C1102 1.368 . S
C1118 C1114 1.368 . S
C1118 C1117 1.523 . S
H1119 C1094 0.950 . S
H1120 C1096 0.950 . S
H1121 C1097 0.949 . S
H1122 C1099 0.950 . S
H1123 C1101 0.950 . S
C1124 C1125 1.349 . S
C1124 C1126 1.327 . S
C1124 H1149 0.950 . S
C1125 C1124 1.349 . S
C1125 C1141 1.349 . S
C1126 C1124 1.327 . S
C1126 C1145 1.429 . S
C1126 H1150 0.950 . S
C1127 C1144 1.574 . S
C1127 C1146 1.368 . S
C1127 H1151 0.949 . S
H1128 C1132 0.949 . S
C1129 C1130 1.349 . S
C1129 C1131 1.327 . S
C1129 H1152 0.950 . S
C1130 C1129 1.349 . S
C1130 C1142 1.349 . S
C1131 C1129 1.327 . S
C1131 C1147 1.429 . S
C1131 H1153 0.950 . S
C1132 H1128 0.949 . S
C1132 C1140 1.574 . S
C1132 C1148 1.368 . S
H1133 C1141 0.950 . S
H1134 C1139 0.950 . S
H1135 C1140 0.949 . S
H1136 C1142 0.950 . S
H1137 C1143 0.950 . S
H1138 C1144 0.949 . S
C1139 H1134 0.950 . S
C1139 C1141 1.327 . S
C1139 C1145 1.429 . S
C1140 C1132 1.574 . S
C1140 H1135 0.949 . S
C1140 C1146 1.368 . S
C1141 C1125 1.349 . S
C1141 H1133 0.950 . S
C1141 C1139 1.327 . S
C1142 C1130 1.349 . S
C1142 H1136 0.950 . S
C1142 C1143 1.327 . S
C1143 H1137 0.950 . S
C1143 C1142 1.327 . S
C1143 C1147 1.429 . S
C1144 C1127 1.574 . S
C1144 H1138 0.949 . S
C1144 C1148 1.368 . S
C1145 C1126 1.429 . S
C1145 C1139 1.429 . S
C1145 C1146 1.523 . S
C1146 C1127 1.368 . S
C1146 C1140 1.368 . S
C1146 C1145 1.523 . S
C1147 C1131 1.429 . S
C1147 C1143 1.429 . S
C1147 C1148 1.523 . S
C1148 C1132 1.368 . S
C1148 C1144 1.368 . S
C1148 C1147 1.523 . S
H1149 C1124 0.950 . S
H1150 C1126 0.950 . S
H1151 C1127 0.949 . S
H1152 C1129 0.950 . S
H1153 C1131 0.950 . S
C1154 C1155 1.349 . S
C1154 C1156 1.327 . S
C1154 H1179 0.950 . S
C1155 C1154 1.349 . S
C1155 C1171 1.349 . S
C1156 C1154 1.327 . S
C1156 C1175 1.429 . S
C1156 H1180 0.950 . S
C1157 C1174 1.574 . S
C1157 C1176 1.368 . S
C1157 H1181 0.949 . S
H1158 C1162 0.949 . S
C1159 C1160 1.349 . S
C1159 C1161 1.327 . S
C1159 H1182 0.950 . S
C1160 C1159 1.349 . S
C1160 C1172 1.349 . S
C1161 C1159 1.327 . S
C1161 C1177 1.429 . S
C1161 H1183 0.950 . S
C1162 H1158 0.949 . S
C1162 C1170 1.574 . S
C1162 C1178 1.368 . S
H1163 C1171 0.950 . S
H1164 C1169 0.950 . S
H1165 C1170 0.949 . S
H1166 C1172 0.950 . S
H1167 C1173 0.950 . S
H1168 C1174 0.949 . S
C1169 H1164 0.950 . S
C1169 C1171 1.327 . S
C1169 C1175 1.429 . S
C1170 C1162 1.574 . S
C1170 H1165 0.949 . S
C1170 C1176 1.368 . S
C1171 C1155 1.349 . S
C1171 H1163 0.950 . S
C1171 C1169 1.327 . S
C1172 C1160 1.349 . S
C1172 H1166 0.950 . S
C1172 C1173 1.327 . S
C1173 H1167 0.950 . S
C1173 C1172 1.327 . S
C1173 C1177 1.429 . S
C1174 C1157 1.574 . S
C1174 H1168 0.949 . S
C1174 C1178 1.368 . S
C1175 C1156 1.429 . S
C1175 C1169 1.429 . S
C1175 C1176 1.523 . S
C1176 C1157 1.368 . S
C1176 C1170 1.368 . S
C1176 C1175 1.523 . S
C1177 C1161 1.429 . S
C1177 C1173 1.429 . S
C1177 C1178 1.523 . S
C1178 C1162 1.368 . S
C1178 C1174 1.368 . S
C1178 C1177 1.523 . S
H1179 C1154 0.950 . S
H1180 C1156 0.950 . S
H1181 C1157 0.949 . S
H1182 C1159 0.950 . S
H1183 C1161 0.950 . S
C225 C9 1.492 . S
C230 C179 1.480 . S
C255 C193 1.480 . S
C260 C23 1.492 . S
C285 C37 1.492 . S
C290 C207 1.480 . S
C315 C221 1.480 . S
C320 C51 1.492 . S
C345 C121 1.492 . S
C350 C67 1.480 . S
C375 C81 1.480 . S
C380 C135 1.492 . S
C405 C149 1.492 . S
C410 C95 1.480 . S
C435 C109 1.480 . S
C440 C163 1.492 . S
C465 C5 1.420 . S
C470 C33 1.420 . S
C495 C19 1.420 . S
C500 C47 1.420 . S
C525 C61 1.679 . S
C530 C89 1.679 . S
C555 C75 1.679 . S
C560 C103 1.679 . S
C585 C145 1.420 . S
C590 C117 1.420 . S
C615 C131 1.420 . S
C620 C159 1.420 . S
C645 C201 1.679 . S
C650 C173 1.679 . S
C675 C187 1.679 . S
C680 C215 1.679 . S
C705 C84 1.477 . S
C710 C0 1.482 . S
C735 C98 1.477 . S
C740 C14 1.482 . S
C765 C28 1.482 . S
C770 C56 1.477 . S
C795 C42 1.482 . S
C800 C70 1.477 . S
C825 C196 1.477 . S
C830 C112 1.482 . S
C855 C126 1.482 . S
C860 C210 1.477 . S
C885 C168 1.477 . S
C890 C140 1.482 . S
C915 C154 1.482 . S
C920 C182 1.477 . S
C945 C11 1.108 . S
C950 C53 1.108 . S
C975 C39 1.108 . S
C980 C25 1.108 . S
C1005 C65 1.826 . S
C1010 C107 1.826 . S
C1035 C79 1.826 . S
C1040 C93 1.826 . S
C1065 C165 1.108 . S
C1070 C123 1.108 . S
C1095 C137 1.108 . S
C1100 C151 1.108 . S
C1125 C219 1.826 . S
C1130 C177 1.826 . S
C1155 C191 1.826 . S
C1160 C205 1.826 . S
