# Generated by pormake.
# Topology uou, (4)-cn, num edge types: 1
# Building blocks:
#     Node 0, Type 0, BuildingBlock: KUFVIS_clean_sbu_0, # of connection points: 4
#     Node 1, Type 0, BuildingBlock: KUFVIS_clean_sbu_0, # of connection points: 4
#     Node 2, Type 0, BuildingBlock: KUFVIS_clean_sbu_0, # of connection points: 4
#     Node 3, Type 0, BuildingBlock: KUFVIS_clean_sbu_0, # of connection points: 4
#     Node 4, Type 0, BuildingBlock: KUFVIS_clean_sbu_0, # of connection points: 4
#     Node 5, Type 0, BuildingBlock: KUFVIS_clean_sbu_0, # of connection points: 4
#     Node 6, Type 0, BuildingBlock: KUFVIS_clean_sbu_0, # of connection points: 4
#     Node 7, Type 0, BuildingBlock: KUFVIS_clean_sbu_0, # of connection points: 4
#     Node 8, Type 0, BuildingBlock: KUFVIS_clean_sbu_0, # of connection points: 4
#     Node 9, Type 0, BuildingBlock: KUFVIS_clean_sbu_0, # of connection points: 4
#     Node 10, Type 0, BuildingBlock: KUFVIS_clean_sbu_0, # of connection points: 4
#     Node 11, Type 0, BuildingBlock: KUFVIS_clean_sbu_0, # of connection points: 4
#     Node 12, Type 0, BuildingBlock: KUFVIS_clean_sbu_0, # of connection points: 4
#     Node 13, Type 0, BuildingBlock: KUFVIS_clean_sbu_0, # of connection points: 4
#     Node 14, Type 0, BuildingBlock: KUFVIS_clean_sbu_0, # of connection points: 4
#     Node 15, Type 0, BuildingBlock: KUFVIS_clean_sbu_0, # of connection points: 4
#     Edge 16, Type (0, 0), BuildingBlock: EZIPEK_clean_linker_0, # of connection points: 2
#     Edge 17, Type (0, 0), BuildingBlock: EZIPEK_clean_linker_0, # of connection points: 2
#     Edge 18, Type (0, 0), BuildingBlock: EZIPEK_clean_linker_0, # of connection points: 2
#     Edge 19, Type (0, 0), BuildingBlock: EZIPEK_clean_linker_0, # of connection points: 2
#     Edge 20, Type (0, 0), BuildingBlock: EZIPEK_clean_linker_0, # of connection points: 2
#     Edge 21, Type (0, 0), BuildingBlock: EZIPEK_clean_linker_0, # of connection points: 2
#     Edge 22, Type (0, 0), BuildingBlock: EZIPEK_clean_linker_0, # of connection points: 2
#     Edge 23, Type (0, 0), BuildingBlock: EZIPEK_clean_linker_0, # of connection points: 2
#     Edge 24, Type (0, 0), BuildingBlock: EZIPEK_clean_linker_0, # of connection points: 2
#     Edge 25, Type (0, 0), BuildingBlock: EZIPEK_clean_linker_0, # of connection points: 2
#     Edge 26, Type (0, 0), BuildingBlock: EZIPEK_clean_linker_0, # of connection points: 2
#     Edge 27, Type (0, 0), BuildingBlock: EZIPEK_clean_linker_0, # of connection points: 2
#     Edge 28, Type (0, 0), BuildingBlock: EZIPEK_clean_linker_0, # of connection points: 2
#     Edge 29, Type (0, 0), BuildingBlock: EZIPEK_clean_linker_0, # of connection points: 2
#     Edge 30, Type (0, 0), BuildingBlock: EZIPEK_clean_linker_0, # of connection points: 2
#     Edge 31, Type (0, 0), BuildingBlock: EZIPEK_clean_linker_0, # of connection points: 2
#     Edge 32, Type (0, 0), BuildingBlock: EZIPEK_clean_linker_0, # of connection points: 2
#     Edge 33, Type (0, 0), BuildingBlock: EZIPEK_clean_linker_0, # of connection points: 2
#     Edge 34, Type (0, 0), BuildingBlock: EZIPEK_clean_linker_0, # of connection points: 2
#     Edge 35, Type (0, 0), BuildingBlock: EZIPEK_clean_linker_0, # of connection points: 2
#     Edge 36, Type (0, 0), BuildingBlock: EZIPEK_clean_linker_0, # of connection points: 2
#     Edge 37, Type (0, 0), BuildingBlock: EZIPEK_clean_linker_0, # of connection points: 2
#     Edge 38, Type (0, 0), BuildingBlock: EZIPEK_clean_linker_0, # of connection points: 2
#     Edge 39, Type (0, 0), BuildingBlock: EZIPEK_clean_linker_0, # of connection points: 2
#     Edge 40, Type (0, 0), BuildingBlock: EZIPEK_clean_linker_0, # of connection points: 2
#     Edge 41, Type (0, 0), BuildingBlock: EZIPEK_clean_linker_0, # of connection points: 2
#     Edge 42, Type (0, 0), BuildingBlock: EZIPEK_clean_linker_0, # of connection points: 2
#     Edge 43, Type (0, 0), BuildingBlock: EZIPEK_clean_linker_0, # of connection points: 2
#     Edge 44, Type (0, 0), BuildingBlock: EZIPEK_clean_linker_0, # of connection points: 2
#     Edge 45, Type (0, 0), BuildingBlock: EZIPEK_clean_linker_0, # of connection points: 2
#     Edge 46, Type (0, 0), BuildingBlock: EZIPEK_clean_linker_0, # of connection points: 2
#     Edge 47, Type (0, 0), BuildingBlock: EZIPEK_clean_linker_0, # of connection points: 2
# Relax obj value: 0.047
# Max RMSD: 0.082
# Mean RMSD: 0.082
data_MOF--net-uou--node1-KUFVIS_clean_sbu_0--edge1-EZIPEK_clean_linker_0
_symmetry_space_group_name_H-M    P1
_symmetry_Int_Tables_number       1
_symmetry_cell_setting            triclinic
loop_
_symmetry_equiv_pos_as_xyz
'x, y, z'
_cell_length_a     27.97152
_cell_length_b     29.735168
_cell_length_c     37.653723
_cell_angle_alpha  90.062012
_cell_angle_beta   90.179052
_cell_angle_gamma 89.984007
loop_
_atom_site_label
_atom_site_type_symbol
_atom_site_fract_x
_atom_site_fract_y
_atom_site_fract_z
_atom_type_partial_charge
Mn0 Mn 0.0747 0.10343 0.12412 0.0
Mn1 Mn 0.06956 0.99261 0.14554 0.0
C2 C 0.0571 0.08258 0.18179 0.0
C3 C 0.04066 0.17201 0.10698 0.0
C4 C 0.1624 0.04315 0.13083 0.0
O5 O 0.0645 0.07292 0.07663 0.0
O6 O 0.05592 0.99983 0.09343 0.0
C7 C 0.97588 0.95242 0.12697 0.0
N8 N 0.00721 0.96466 0.15305 0.0
C9 C 0.96438 0.90397 0.19316 0.0
C10 C 0.93551 0.89498 0.1639 0.0
C11 C 0.94066 0.91915 0.13214 0.0
C12 C 1.00524 0.945 0.18531 0.0
H13 H 0.97837 0.96728 0.10092 0.0
C14 C 0.0549 0.03165 0.07017 0.0
O15 O 0.08583 0.16395 0.10277 0.0
O16 O 0.01453 0.13895 0.11834 0.0
N17 N 0.08113 0.98677 0.19571 0.0
C18 C 0.1212 0.9989 0.21353 0.0
C19 C 0.12552 0.99465 0.25033 0.0
C20 C 0.09031 0.975 0.27133 0.0
C21 C 0.04944 0.95313 0.25547 0.0
C22 C 0.04492 0.96668 0.21228 0.0
H23 H 0.14989 0.014 0.1996 0.0
O24 O 0.0763 0.12121 0.17457 0.0
O25 O 0.04942 0.05564 0.15471 0.0
O26 O 0.14492 0.08213 0.12615 0.0
O27 O 0.13677 1.00906 0.13741 0.0
C28 C 0.98616 0.8895 0.27167 0.0
C29 C 0.95236 0.87662 0.23195 0.0
H30 H 0.90768 0.86982 0.16586 0.0
H31 H 0.91703 0.91112 0.11021 0.0
H32 H 0.15745 1.00759 0.26308 0.0
H33 H 0.09858 0.97513 0.29936 0.0
H34 H 0.98168 0.87236 0.30074 0.0
H35 H 0.96602 0.87866 0.25527 0.0
Mn36 Mn 0.44537 0.9218 0.12567 0.0
Mn37 Mn 0.45107 0.03329 0.14519 0.0
C38 C 0.46182 0.94423 0.18321 0.0
C39 C 0.47981 0.85275 0.11023 0.0
C40 C 0.35814 0.98335 0.12912 0.0
O41 O 0.4572 0.95033 0.07788 0.0
O42 O 0.46683 0.02383 0.09337 0.0
C43 C 0.54371 0.07625 0.12809 0.0
N44 N 0.51313 0.06178 0.15382 0.0
C45 C 0.55522 0.12195 0.1955 0.0
C46 C 0.58442 0.13198 0.16684 0.0
C47 C 0.57896 0.10932 0.13436 0.0
C48 C 0.51461 0.0807 0.18638 0.0
H49 H 0.5402 0.06392 0.10135 0.0
C50 C 0.46777 0.9911 0.07071 0.0
O51 O 0.43471 0.86061 0.10515 0.0
O52 O 0.50559 0.88606 0.12169 0.0
N53 N 0.43762 0.04022 0.1952 0.0
C54 C 0.39671 0.02915 0.21233 0.0
C55 C 0.39178 0.03342 0.24918 0.0
C56 C 0.427 0.05225 0.27099 0.0
C57 C 0.46859 0.07327 0.25589 0.0
C58 C 0.47395 0.05927 0.21262 0.0
H59 H 0.36755 0.0151 0.19785 0.0
O60 O 0.44233 0.9056 0.17628 0.0
O61 O 0.47039 0.97038 0.15586 0.0
O62 O 0.37507 0.94385 0.12596 0.0
O63 O 0.38417 0.0172 0.1356 0.0
C64 C 0.53105 0.13604 0.27207 0.0
C65 C 0.56458 0.14869 0.23518 0.0
H66 H 0.61198 0.1573 0.16956 0.0
H67 H 0.60209 0.11872 0.1126 0.0
H68 H 0.35921 0.02126 0.26132 0.0
H69 H 0.41824 0.05231 0.29891 0.0
H70 H 0.53813 0.15496 0.29646 0.0
H71 H 0.59215 0.17405 0.23724 0.0
Mn72 Mn 0.56804 0.92774 0.38163 0.0
Mn73 Mn 0.56256 0.03772 0.3575 0.0
C74 C 0.55165 0.94653 0.32313 0.0
C75 C 0.53703 0.85809 0.39955 0.0
C76 C 0.65506 0.98974 0.37618 0.0
O77 O 0.55499 0.9597 0.42807 0.0
O78 O 0.54707 0.03221 0.4095 0.0
C79 C 0.46829 0.07793 0.37322 0.0
N80 N 0.50042 0.0649 0.34805 0.0
C81 C 0.45908 0.12447 0.306 0.0
C82 C 0.42946 0.13454 0.33448 0.0
C83 C 0.43349 0.11125 0.36675 0.0
C84 C 0.49967 0.08367 0.31546 0.0
H85 H 0.46979 0.06369 0.39953 0.0
C86 C 0.54508 1.0012 0.43345 0.0
O87 O 0.58128 0.86883 0.40498 0.0
O88 O 0.50952 0.88903 0.38622 0.0
N89 N 0.57587 0.04144 0.30735 0.0
C90 C 0.61628 0.02803 0.29042 0.0
C91 C 0.62105 0.031 0.25349 0.0
C92 C 0.58628 0.05015 0.23141 0.0
C93 C 0.54502 0.07251 0.24604 0.0
C94 C 0.53991 0.06081 0.28962 0.0
H95 H 0.64516 1.01288 0.30506 0.0
O96 O 0.57181 0.90867 0.33148 0.0
O97 O 0.54287 0.97417 0.34951 0.0
O98 O 0.63738 0.95096 0.38126 0.0
O99 O 0.62976 0.02321 0.36747 0.0
C100 C 0.48199 0.13553 0.22749 0.0
C101 C 0.44771 0.15014 0.2664 0.0
H102 H 0.40177 0.15969 0.33146 0.0
H103 H 0.40921 0.11998 0.38801 0.0
H104 H 0.65306 0.01741 0.24144 0.0
H105 H 0.59504 0.04916 0.20349 0.0
H106 H 0.47786 0.15153 0.19794 0.0
H107 H 0.46172 0.14704 0.24336 0.0
Mn108 Mn 0.94232 0.09858 0.37774 0.0
Mn109 Mn 0.95661 0.98919 0.35592 0.0
C110 C 0.96468 0.08058 0.32043 0.0
C111 C 0.97021 0.1691 0.39704 0.0
C112 C 0.85989 0.03136 0.37095 0.0
O113 O 0.95298 0.0673 0.42506 0.0
O114 O 0.97236 0.99623 0.4075 0.0
C115 C 0.05144 0.94989 0.37158 0.0
N116 N 0.01902 0.96283 0.34646 0.0
C117 C 0.05914 0.90174 0.30483 0.0
C118 C 0.08941 0.89216 0.33316 0.0
C119 C 0.08594 0.91613 0.36524 0.0
C120 C 0.01849 0.94266 0.31443 0.0
H121 H 0.05028 0.96444 0.39782 0.0
C122 C 0.96853 0.0275 0.43106 0.0
O123 O 0.92571 0.1576 0.40019 0.0
O124 O 0.99929 0.13844 0.3855 0.0
N125 N 0.94247 0.98509 0.30574 0.0
C126 C 0.90338 1.00073 0.28813 0.0
C127 C 0.89829 0.99638 0.25123 0.0
C128 C 0.93221 0.97533 0.22961 0.0
C129 C 0.97312 0.95291 0.24473 0.0
C130 C 0.978 0.96506 0.28837 0.0
H131 H 0.87599 0.01884 0.3022 0.0
O132 O 0.94248 0.11776 0.32774 0.0
O133 O 0.97288 0.05344 0.34732 0.0
O134 O 0.87335 0.07229 0.3727 0.0
O135 O 0.88984 1.0003 0.36718 0.0
C136 C 0.03578 0.8907 0.22769 0.0
C137 C 0.06882 0.87649 0.26463 0.0
H138 H 0.11705 0.86697 0.33017 0.0
H139 H 0.11049 0.90767 0.38649 0.0
H140 H 0.86695 1.01092 0.23877 0.0
H141 H 0.92348 0.97579 0.20165 0.0
H142 H 0.04329 0.87292 0.20288 0.0
H143 H 0.09667 0.85145 0.26218 0.0
Mn144 Mn 0.94669 0.93321 0.87679 0.0
Mn145 Mn 0.96241 0.04238 0.8556 0.0
C146 C 0.96778 0.95126 0.81937 0.0
C147 C 0.9756 0.86252 0.89453 0.0
C148 C 0.86538 1.00135 0.87154 0.0
O149 O 0.95838 0.96384 0.92427 0.0
O150 O 0.9791 0.03467 0.90706 0.0
C151 C 0.05831 0.08006 0.87012 0.0
N152 N 0.02517 0.06752 0.84538 0.0
C153 C 0.0664 0.12681 0.80287 0.0
C154 C 0.09744 0.13601 0.83083 0.0
C155 C 0.09372 0.11273 0.86317 0.0
C156 C 0.02475 0.08713 0.81316 0.0
H157 H 0.05705 0.06609 0.89652 0.0
C158 C 0.97476 1.0033 0.93048 0.0
O159 O 0.93091 0.87328 0.8982 0.0
O160 O 1.00401 0.8941 0.88375 0.0
N161 N 0.94717 0.04694 0.80562 0.0
C162 C 0.9071 0.0325 0.78857 0.0
C163 C 0.9014 0.03651 0.75171 0.0
C164 C 0.93565 0.05603 0.72955 0.0
C165 C 0.9776 0.07739 0.74406 0.0
C166 C 0.98304 0.06557 0.7877 0.0
H167 H 0.87933 0.01552 0.80303 0.0
O168 O 0.94506 0.91446 0.82677 0.0
O169 O 0.97721 0.97809 0.8463 0.0
O170 O 0.87806 0.96016 0.87275 0.0
O171 O 0.89576 0.03199 0.86765 0.0
C172 C 0.04172 0.13766 0.72594 0.0
C173 C 0.07599 0.15134 0.76242 0.0
H174 H 0.12575 0.1604 0.82739 0.0
H175 H 0.11883 0.12091 0.88414 0.0
H176 H 0.86928 0.02286 0.73971 0.0
H177 H 0.92634 0.05542 0.7017 0.0
H178 H 0.0492 0.15498 0.70095 0.0
H179 H 0.1045 0.17561 0.75951 0.0
Mn180 Mn 0.57139 0.10027 0.88169 0.0
Mn181 Mn 0.57145 0.98984 0.85828 0.0
C182 C 0.55581 0.08025 0.82346 0.0
C183 C 0.53562 0.16833 0.89837 0.0
C184 C 0.66108 0.04199 0.87671 0.0
O185 O 0.5604 0.06886 0.92838 0.0
O186 O 0.55623 0.99568 0.91038 0.0
C187 C 0.48127 0.94217 0.87469 0.0
N188 N 0.51103 0.95892 0.84929 0.0
C189 C 0.47156 0.89905 0.80609 0.0
C190 C 0.44316 0.88641 0.83455 0.0
C191 C 0.44772 0.90782 0.86764 0.0
C192 C 0.51055 0.94123 0.81635 0.0
H193 H 0.48412 0.95375 0.90169 0.0
C194 C 0.55314 0.02705 0.93408 0.0
O195 O 0.58065 0.16068 0.90386 0.0
O196 O 0.51039 0.13497 0.88624 0.0
N197 N 0.58479 0.98648 0.80807 0.0
C198 C 0.62432 1.00154 0.79086 0.0
C199 C 0.62856 0.99914 0.7538 0.0
C200 C 0.59413 0.97923 0.73177 0.0
C201 C 0.5541 0.95535 0.74656 0.0
C202 C 0.54946 0.96613 0.79046 0.0
H203 H 0.65278 0.01766 0.80536 0.0
O204 O 0.57441 0.11889 0.83164 0.0
O205 O 0.54834 0.05233 0.84991 0.0
O206 O 0.64191 0.08023 0.88163 0.0
O207 O 0.63731 1.00773 0.86782 0.0
C208 C 0.49391 0.89129 0.7287 0.0
C209 C 0.4622 0.87475 0.76548 0.0
H210 H 0.41666 0.86022 0.83115 0.0
H211 H 0.42513 0.89655 0.88916 0.0
H212 H 0.65981 0.01399 0.74161 0.0
H213 H 0.60219 0.98106 0.70378 0.0
H214 H 0.48684 0.87383 0.70365 0.0
H215 H 0.43562 0.84856 0.76272 0.0
Mn216 Mn 0.44355 0.10363 0.62709 0.0
Mn217 Mn 0.45387 0.99297 0.64822 0.0
C218 C 0.4627 0.08298 0.68468 0.0
C219 C 0.47203 0.17393 0.60972 0.0
C220 C 0.35895 0.03966 0.63311 0.0
O221 O 0.45516 0.07399 0.57964 0.0
O222 O 0.46592 1.00099 0.59599 0.0
C223 C 0.54905 0.95744 0.62868 0.0
N224 N 0.5177 0.96783 0.6551 0.0
C225 C 0.56406 0.90815 0.6941 0.0
C226 C 0.59269 0.90088 0.66456 0.0
C227 C 0.58584 0.92551 0.63318 0.0
C228 C 0.52133 0.94779 0.68714 0.0
H229 H 0.54539 0.97277 0.60286 0.0
C230 C 0.46568 0.03303 0.57288 0.0
O231 O 0.42775 0.16261 0.60524 0.0
O232 O 0.5009 0.14334 0.62192 0.0
N233 N 0.4437 0.98615 0.69852 0.0
C234 C 0.40335 0.99611 0.71673 0.0
C235 C 0.40004 0.99089 0.75354 0.0
C236 C 0.43651 0.97209 0.77409 0.0
C237 C 0.47805 0.95233 0.75769 0.0
C238 C 0.48118 0.96725 0.71467 0.0
H239 H 0.37347 1.01005 0.70313 0.0
O240 O 0.44138 0.12076 0.67774 0.0
O241 O 0.47138 0.05671 0.65744 0.0
O242 O 0.37492 0.07906 0.62837 0.0
O243 O 0.3857 1.00656 0.64052 0.0
C244 C 0.54437 0.89075 0.77241 0.0
C245 C 0.57795 0.88026 0.73234 0.0
H246 H 0.6216 0.87674 0.66599 0.0
H247 H 0.60936 0.91889 0.611 0.0
H248 H 0.36777 1.00217 0.76665 0.0
H249 H 0.42878 0.97103 0.80218 0.0
H250 H 0.55017 0.87295 0.80115 0.0
H251 H 0.56463 0.88117 0.75573 0.0
Mn252 Mn 0.07449 0.92389 0.62201 0.0
Mn253 Mn 0.07085 0.03481 0.64376 0.0
C254 C 0.05796 0.94511 0.67994 0.0
C255 C 0.04256 0.8546 0.60474 0.0
C256 C 0.16256 0.98361 0.62744 0.0
O257 O 0.06265 0.95454 0.5748 0.0
O258 O 0.05588 0.02778 0.59188 0.0
C259 C 0.97754 0.0764 0.62634 0.0
N260 N 0.00919 0.06369 0.65205 0.0
C261 C 0.96919 0.12599 0.69235 0.0
C262 C 0.93988 0.1354 0.66343 0.0
C263 C 0.94347 0.11067 0.63177 0.0
C264 C 0.0086 0.08377 0.68421 0.0
H265 H 0.97892 0.06113 0.60036 0.0
C266 C 0.05345 0.99597 0.56863 0.0
O267 O 0.08706 0.86443 0.59973 0.0
O268 O 0.01529 0.88625 0.61726 0.0
N269 N 0.08367 0.04041 0.69382 0.0
C270 C 0.12389 0.02752 0.71118 0.0
C271 C 0.129 0.03184 0.74794 0.0
C272 C 0.09473 0.05244 0.76932 0.0
C273 C 0.05411 0.07517 0.75388 0.0
C274 C 0.04826 0.06132 0.7108 0.0
H275 H 0.15215 1.01186 0.69695 0.0
O276 O 0.07712 0.90646 0.67257 0.0
O277 O 0.04989 0.97191 0.65292 0.0
O278 O 0.14446 0.94498 0.62303 0.0
O279 O 0.13769 0.01793 0.63474 0.0
C280 C 0.99314 0.1407 0.77051 0.0
C281 C 0.95888 0.15408 0.73113 0.0
H282 H 0.91287 0.16133 0.6656 0.0
H283 H 0.91952 0.11903 0.61012 0.0
H284 H 0.16087 0.01829 0.76037 0.0
H285 H 0.10356 0.05233 0.79726 0.0
H286 H 0.98982 0.15827 0.79954 0.0
H287 H 0.97298 0.15191 0.75429 0.0
Mn288 Mn 0.56833 0.59609 0.12958 0.0
Mn289 Mn 0.55018 0.4875 0.15118 0.0
C290 C 0.54536 0.57898 0.18697 0.0
C291 C 0.5436 0.66699 0.10997 0.0
C292 C 0.64822 0.52667 0.13543 0.0
O293 O 0.55688 0.56493 0.08218 0.0
O294 O 0.53383 0.4949 0.09966 0.0
C295 C 0.45359 0.45163 0.13656 0.0
N296 N 0.48692 0.4635 0.16135 0.0
C297 C 0.44612 0.40303 0.20308 0.0
C298 C 0.41497 0.39446 0.17506 0.0
C299 C 0.41828 0.41871 0.14313 0.0
C300 C 0.4873 0.44337 0.19337 0.0
H301 H 0.45459 0.46643 0.11041 0.0
C302 C 0.5392 0.52591 0.07608 0.0
O303 O 0.58761 0.65396 0.107 0.0
O304 O 0.51309 0.63768 0.12163 0.0
N305 N 0.56501 0.48315 0.2012 0.0
C306 C 0.60504 0.49755 0.21831 0.0
C307 C 0.61088 0.49297 0.2551 0.0
C308 C 0.57695 0.47258 0.27704 0.0
C309 C 0.53506 0.45127 0.26233 0.0
C310 C 0.52907 0.46442 0.21901 0.0
H311 H 0.63264 0.51493 0.20395 0.0
O312 O 0.56869 0.61552 0.17966 0.0
O313 O 0.53628 0.55215 0.16 0.0
O314 O 0.63604 0.56792 0.13459 0.0
O315 O 0.61741 0.49624 0.1391 0.0
C316 C 0.47181 0.38982 0.27963 0.0
C317 C 0.43723 0.37704 0.24308 0.0
H318 H 0.38685 0.36979 0.17816 0.0
H319 H 0.39302 0.41105 0.12214 0.0
H320 H 0.64291 0.50664 0.26721 0.0
H321 H 0.58645 0.47254 0.30486 0.0
H322 H 0.46481 0.37165 0.30432 0.0
H323 H 0.40901 0.35242 0.24564 0.0
Mn324 Mn 0.94106 0.42612 0.12097 0.0
Mn325 Mn 0.94328 0.53626 0.14457 0.0
C326 C 0.9558 0.44563 0.17964 0.0
C327 C 0.97378 0.35707 0.10373 0.0
C328 C 0.85235 0.48589 0.12561 0.0
O329 O 0.95452 0.45787 0.07454 0.0
O330 O 0.95998 0.53069 0.09285 0.0
C331 C 0.03661 0.57892 0.12969 0.0
N332 N 1.00441 0.56516 0.15453 0.0
C333 C 0.04325 0.62586 0.19699 0.0
C334 C 0.07311 0.63657 0.16882 0.0
C335 C 0.07033 0.61312 0.13651 0.0
C336 C 1.00396 0.58411 0.18708 0.0
H337 H 0.03601 0.56458 0.10336 0.0
C338 C 0.96359 0.49949 0.06913 0.0
O339 O 0.92948 0.36698 0.09764 0.0
O340 O 1.00045 0.38856 0.11723 0.0
N341 N 0.92887 0.53998 0.19445 0.0
C342 C 0.88859 0.52549 0.21097 0.0
C343 C 0.88312 0.52832 0.24781 0.0
C344 C 0.91702 0.54822 0.27016 0.0
C345 C 0.9578 0.57175 0.25594 0.0
C346 C 0.96397 0.56026 0.21248 0.0
H347 H 0.86046 0.50949 0.1961 0.0
O348 O 0.93658 0.40739 0.17114 0.0
O349 O 0.96457 0.47325 0.15326 0.0
O350 O 0.87117 0.4476 0.12057 0.0
O351 O 0.8767 0.52005 0.13413 0.0
C352 C 0.01863 0.63631 0.27529 0.0
C353 C 0.05319 0.65181 0.23675 0.0
H354 H 0.10005 0.66238 0.17213 0.0
H355 H 0.09474 0.62239 0.1155 0.0
H356 H 0.85135 0.51388 0.25956 0.0
H357 H 0.90789 0.54677 0.29799 0.0
H358 H 0.02171 0.65235 0.30491 0.0
H359 H 0.03888 0.64836 0.25966 0.0
Mn360 Mn 0.06629 0.42586 0.37755 0.0
Mn361 Mn 0.05018 0.53537 0.35744 0.0
C362 C 0.0452 0.44503 0.32012 0.0
C363 C 0.03635 0.35511 0.39478 0.0
C364 C 0.14775 0.49449 0.37317 0.0
O365 O 0.05482 0.45571 0.42534 0.0
O366 O 0.03424 0.52683 0.4088 0.0
C367 C 0.95363 0.57097 0.37252 0.0
N368 N 0.9869 0.55984 0.34762 0.0
C369 C 0.94519 0.62066 0.30654 0.0
C370 C 0.91414 0.62847 0.33462 0.0
C371 C 0.91795 0.6037 0.36629 0.0
C372 C 0.98686 0.58051 0.31583 0.0
H373 H 0.95494 0.55568 0.39849 0.0
C374 C 0.03874 0.49516 0.43194 0.0
O375 O 0.08124 0.36524 0.39858 0.0
O376 O 0.00854 0.38713 0.38386 0.0
N377 N 0.06477 0.54117 0.30756 0.0
C378 C 0.10492 0.52759 0.29036 0.0
C379 C 0.11062 0.53318 0.25367 0.0
C380 C 0.0764 0.55381 0.23197 0.0
C381 C 0.03438 0.57446 0.24687 0.0
C382 C 0.02872 0.56032 0.28999 0.0
H383 H 0.13276 0.51011 0.30453 0.0
O384 O 0.06764 0.40792 0.32718 0.0
O385 O 0.03595 0.47126 0.34738 0.0
O386 O 0.13518 0.45316 0.37414 0.0
O387 O 0.11713 0.52504 0.36926 0.0
C388 C 0.97038 0.63568 0.23025 0.0
C389 C 0.93584 0.64738 0.26687 0.0
H390 H 0.88576 0.65295 0.33177 0.0
H391 H 0.89276 0.61077 0.38734 0.0
H392 H 0.14275 0.5201 0.24145 0.0
H393 H 0.08579 0.55456 0.20418 0.0
H394 H 0.96307 0.65432 0.20579 0.0
H395 H 0.90735 0.67181 0.26457 0.0
Mn396 Mn 0.43943 0.60194 0.38467 0.0
Mn397 Mn 0.44385 0.4909 0.36394 0.0
C398 C 0.45453 0.58042 0.32666 0.0
C399 C 0.47311 0.67171 0.3998 0.0
C400 C 0.35194 0.53995 0.38177 0.0
O401 O 0.45343 0.5726 0.43189 0.0
O402 O 0.46058 0.49898 0.41574 0.0
C403 C 0.53709 0.44855 0.37985 0.0
N404 N 0.50525 0.4622 0.35457 0.0
C405 C 0.54469 0.40103 0.31292 0.0
C406 C 0.57456 0.39095 0.34136 0.0
C407 C 0.57121 0.41459 0.37353 0.0
C408 C 0.50501 0.44267 0.3222 0.0
H409 H 0.53571 0.46259 0.40622 0.0
C410 C 0.46333 0.53148 0.43851 0.0
O411 O 0.42848 0.66284 0.40573 0.0
O412 O 0.49913 0.63885 0.38788 0.0
N413 N 0.42916 0.48541 0.31413 0.0
C414 C 0.38854 0.49894 0.29735 0.0
C415 C 0.38299 0.49541 0.26053 0.0
C416 C 0.41722 0.47579 0.23848 0.0
C417 C 0.45842 0.45308 0.25307 0.0
C418 C 0.46463 0.46553 0.2964 0.0
H419 H 0.36015 0.51478 0.31193 0.0
O420 O 0.43452 0.61864 0.33414 0.0
O421 O 0.46371 0.55387 0.35374 0.0
O422 O 0.36954 0.57913 0.38559 0.0
O423 O 0.37735 0.50634 0.3739 0.0
C424 C 0.51986 0.38869 0.2347 0.0
C425 C 0.55476 0.37433 0.27352 0.0
H426 H 0.60172 0.36528 0.33845 0.0
H427 H 0.59539 0.40556 0.39487 0.0
H428 H 0.3509 0.50913 0.24855 0.0
H429 H 0.40801 0.47668 0.21061 0.0
H430 H 0.52296 0.37206 0.2053 0.0
H431 H 0.54032 0.37715 0.25053 0.0
Mn432 Mn 0.44005 0.42415 0.88175 0.0
Mn433 Mn 0.44679 0.53503 0.86017 0.0
C434 C 0.45847 0.44501 0.82412 0.0
C435 C 0.47045 0.35409 0.89907 0.0
C436 C 0.35338 0.4861 0.87518 0.0
O437 O 0.4518 0.45439 0.92912 0.0
O438 O 0.45964 0.52766 0.91246 0.0
C439 C 0.54062 0.57472 0.87956 0.0
N440 N 0.50956 0.56246 0.85329 0.0
C441 C 0.5532 0.6232 0.81345 0.0
C442 C 0.58187 0.63209 0.84282 0.0
C443 C 0.57611 0.6079 0.87457 0.0
C444 C 0.51196 0.5822 0.82115 0.0
H445 H 0.53772 0.55993 0.90562 0.0
C446 C 0.46117 0.49572 0.93564 0.0
O447 O 0.42601 0.36464 0.90361 0.0
O448 O 0.49842 0.38535 0.88692 0.0
N449 N 0.43585 0.54102 0.80975 0.0
C450 C 0.39601 0.5294 0.79134 0.0
C451 C 0.39255 0.53422 0.75442 0.0
C452 C 0.42825 0.55411 0.73384 0.0
C453 C 0.46896 0.57527 0.75032 0.0
C454 C 0.47243 0.56102 0.79363 0.0
H455 H 0.36674 0.51439 0.80485 0.0
O456 O 0.43795 0.40691 0.83114 0.0
O457 O 0.46652 0.47168 0.85128 0.0
O458 O 0.37049 0.44714 0.88033 0.0
O459 O 0.37927 0.51966 0.86771 0.0
C460 C 0.53245 0.63782 0.73626 0.0
C461 C 0.5644 0.65013 0.77418 0.0
H462 H 0.60982 0.65714 0.84104 0.0
H463 H 0.59949 0.61584 0.89667 0.0
H464 H 0.36078 0.52168 0.74122 0.0
H465 H 0.42063 0.55456 0.7057 0.0
H466 H 0.54079 0.65672 0.71215 0.0
H467 H 0.59234 0.67521 0.77301 0.0
Mn468 Mn 0.07034 0.60615 0.87895 0.0
Mn469 Mn 0.06462 0.49519 0.85712 0.0
C470 C 0.05261 0.58512 0.82112 0.0
C471 C 0.03867 0.67583 0.89616 0.0
C472 C 0.15752 0.54476 0.87301 0.0
O473 O 0.05882 0.57592 0.92613 0.0
O474 O 0.05163 0.50263 0.90929 0.0
C475 C 0.97107 0.45567 0.87614 0.0
N476 N 1.00213 0.46744 0.84991 0.0
C477 C 0.95867 0.40634 0.81035 0.0
C478 C 0.93026 0.39769 0.83977 0.0
C479 C 0.93584 0.42229 0.87134 0.0
C480 C 0.99983 0.44728 0.81782 0.0
H481 H 0.97378 0.47101 0.90204 0.0
C482 C 0.0498 0.53454 0.93251 0.0
O483 O 0.08325 0.66586 0.90109 0.0
O484 O 0.01136 0.64419 0.88365 0.0
N485 N 0.07551 0.48905 0.80682 0.0
C486 C 0.11525 0.50107 0.78868 0.0
C487 C 0.11876 0.49639 0.75181 0.0
C488 C 0.08311 0.4765 0.73104 0.0
C489 C 0.04248 0.45494 0.74721 0.0
C490 C 0.03904 0.46872 0.79051 0.0
H491 H 0.14435 0.51638 0.80237 0.0
O492 O 0.07263 0.62344 0.82838 0.0
O493 O 0.04461 0.5584 0.84815 0.0
O494 O 0.14013 0.58363 0.87818 0.0
O495 O 0.13196 0.51107 0.86509 0.0
C496 C 0.97845 0.39151 0.73171 0.0
C497 C 0.94562 0.37892 0.77172 0.0
H498 H 0.90235 0.37257 0.83804 0.0
H499 H 0.91248 0.41461 0.89338 0.0
H500 H 0.15043 0.50918 0.73879 0.0
H501 H 0.09076 0.47626 0.70293 0.0
H502 H 0.97313 0.37418 0.70272 0.0
H503 H 0.95873 0.38086 0.74831 0.0
Mn504 Mn 0.94282 0.60127 0.62422 0.0
Mn505 Mn 0.946 0.49106 0.64762 0.0
C506 C 0.95989 0.5818 0.68231 0.0
C507 C 0.97749 0.66917 0.60668 0.0
C508 C 0.85433 0.5424 0.63094 0.0
O509 O 0.953 0.56944 0.57738 0.0
O510 O 0.95975 0.49662 0.59542 0.0
C511 C 0.03901 0.44853 0.63017 0.0
N512 N 0.00794 0.46241 0.65579 0.0
C513 C 0.05054 0.40319 0.69781 0.0
C514 C 0.0793 0.39256 0.66898 0.0
C515 C 0.07404 0.41521 0.63646 0.0
C516 C 0.00978 0.44416 0.68849 0.0
H517 H 0.03651 0.4621 0.60367 0.0
C518 C 0.96151 0.5278 0.57163 0.0
O519 O 0.93236 0.66129 0.60195 0.0
O520 O 1.00335 0.63611 0.61853 0.0
N521 N 0.93416 0.48685 0.69797 0.0
C522 C 0.89422 0.49955 0.71564 0.0
C523 C 0.89041 0.49647 0.75264 0.0
C524 C 0.92582 0.47741 0.77414 0.0
C525 C 0.96645 0.45511 0.75869 0.0
C526 C 0.97032 0.46713 0.71499 0.0
H527 H 0.86509 0.51399 0.70141 0.0
O528 O 0.94091 0.62031 0.6743 0.0
O529 O 0.96736 0.55398 0.65578 0.0
O530 O 0.87242 0.58095 0.62577 0.0
O531 O 0.87922 0.50826 0.63885 0.0
C532 C 0.02921 0.39273 0.77522 0.0
C533 C 0.06123 0.37819 0.73798 0.0
H534 H 0.10695 0.36733 0.67178 0.0
H535 H 0.09746 0.40594 0.61482 0.0
H536 H 0.8586 0.50981 0.76515 0.0
H537 H 0.918 0.47842 0.8022 0.0
H538 H 0.0372 0.37497 0.79997 0.0
H539 H 0.08889 0.35292 0.74017 0.0
Mn540 Mn 0.5695 0.42775 0.62822 0.0
Mn541 Mn 0.56669 0.53808 0.65152 0.0
C542 C 0.55264 0.4476 0.68622 0.0
C543 C 0.5346 0.35984 0.61092 0.0
C544 C 0.65826 0.48646 0.63505 0.0
O545 O 0.55883 0.45906 0.58132 0.0
O546 O 0.55311 0.53207 0.59917 0.0
C547 C 0.47424 0.58067 0.633 0.0
N548 N 0.50491 0.56709 0.65909 0.0
C549 C 0.46199 0.6267 0.70019 0.0
C550 C 0.43386 0.63716 0.67087 0.0
C551 C 0.4394 0.61419 0.63857 0.0
C552 C 0.50276 0.58576 0.69174 0.0
H553 H 0.47699 0.56676 0.60663 0.0
C554 C 0.55059 0.50069 0.57551 0.0
O555 O 0.57971 0.3676 0.60614 0.0
O556 O 0.50888 0.39298 0.62272 0.0
N557 N 0.57785 0.54262 0.70196 0.0
C558 C 0.61735 0.52935 0.71999 0.0
C559 C 0.62081 0.53227 0.75699 0.0
C560 C 0.58525 0.55138 0.77814 0.0
C561 C 0.54491 0.57411 0.76237 0.0
C562 C 0.54157 0.56257 0.71864 0.0
H563 H 0.64621 0.51437 0.70602 0.0
O564 O 0.57182 0.40913 0.67837 0.0
O565 O 0.54515 0.47527 0.65962 0.0
O566 O 0.63991 0.44808 0.62941 0.0
O567 O 0.63357 0.52058 0.64336 0.0
C568 C 0.48145 0.63733 0.77938 0.0
C569 C 0.44899 0.65227 0.73956 0.0
H570 H 0.40622 0.66248 0.67317 0.0
H571 H 0.41633 0.6233 0.61659 0.0
H572 H 0.65231 0.51856 0.76981 0.0
H573 H 0.59277 0.55014 0.80628 0.0
H574 H 0.47614 0.65324 0.80886 0.0
H575 H 0.46194 0.64901 0.76298 0.0
C576 C 0.28468 1.00883 0.09494 0.0
C577 C 0.30566 0.99224 0.12686 0.0
C578 C 0.24011 0.02559 0.16013 0.0
C579 C 0.21488 0.03513 0.12852 0.0
N580 N 0.21199 0.03247 0.06463 0.0
N581 N 0.29323 0.97258 0.18813 0.0
C582 C 0.23679 0.02565 0.09542 0.0
C583 C 0.2801 0.99664 0.15893 0.0
N584 N 0.31086 1.00967 0.06453 0.0
N585 N 0.22814 0.04671 0.19092 0.0
H586 H 0.32104 0.94919 0.18726 0.0
H587 H 0.27355 0.97318 0.21163 0.0
H588 H 0.20177 0.07159 0.19149 0.0
H589 H 0.2478 0.04279 0.21432 0.0
H590 H 0.29942 0.02533 0.04127 0.0
H591 H 0.34549 0.9971 0.06371 0.0
H592 H 0.22414 0.02162 0.03993 0.0
H593 H 0.1781 0.04716 0.06421 0.0
C594 C 0.72834 0.02782 0.40198 0.0
C595 C 0.70803 0.99654 0.37763 0.0
C596 C 0.78749 0.98254 0.35243 0.0
C597 C 0.80774 0.01787 0.37403 0.0
N598 N 0.79939 0.06286 0.42707 0.0
N599 N 0.71679 0.95033 0.32558 0.0
C600 C 0.77845 0.03787 0.40072 0.0
C601 C 0.73724 0.97554 0.35198 0.0
N602 N 0.69931 0.04805 0.42635 0.0
N603 N 0.81535 0.953 0.33373 0.0
H604 H 0.6807 0.94191 0.32494 0.0
H605 H 0.73486 0.94096 0.30255 0.0
H606 H 0.85215 0.95292 0.33235 0.0
H607 H 0.80188 0.92365 0.32234 0.0
H608 H 0.709 0.07569 0.4417 0.0
H609 H 0.6642 0.03771 0.43044 0.0
H610 H 0.78137 0.07568 0.44896 0.0
H611 H 0.8362 0.06727 0.4294 0.0
C612 C 0.78437 0.99487 0.90146 0.0
C613 C 0.81362 0.01551 0.87518 0.0
C614 C 0.74324 0.05837 0.85376 0.0
C615 C 0.71396 0.03631 0.87877 0.0
N616 N 0.70492 0.98112 0.92508 0.0
N617 N 0.82144 0.08155 0.83622 0.0
C618 C 0.73415 1.00399 0.90232 0.0
C619 C 0.79351 0.0515 0.85426 0.0
N620 N 0.80532 0.97 0.92784 0.0
N621 N 0.72282 0.08395 0.82757 0.0
H622 H 0.85827 0.08161 0.83483 0.0
H623 H 0.80798 0.11124 0.82542 0.0
H624 H 0.68651 0.09153 0.82645 0.0
H625 H 0.7412 0.09428 0.80496 0.0
H626 H 0.78718 0.95762 0.94982 0.0
H627 H 0.84218 0.96585 0.93026 0.0
H628 H 0.71534 0.95267 0.93919 0.0
H629 H 0.66895 0.9891 0.92852 0.0
C630 C 0.23788 1.00451 0.59445 0.0
C631 C 0.21522 0.99016 0.62618 0.0
C632 C 0.28086 0.02106 0.66085 0.0
C633 C 0.3069 0.03031 0.62969 0.0
N634 N 0.31216 0.02674 0.56586 0.0
N635 N 0.22561 0.96911 0.68736 0.0
C636 C 0.286 0.02081 0.59603 0.0
C637 C 0.24001 0.99347 0.65872 0.0
N638 N 0.21337 1.00288 0.56309 0.0
N639 N 0.29317 0.04096 0.69214 0.0
H640 H 0.19733 0.9463 0.6856 0.0
H641 H 0.24471 0.96869 0.71121 0.0
H642 H 0.32006 0.06527 0.69343 0.0
H643 H 0.27304 0.03708 0.71522 0.0
H644 H 0.22582 0.01729 0.53968 0.0
H645 H 0.17948 0.98839 0.56106 0.0
H646 H 0.3008 0.016 0.54089 0.0
H647 H 0.34646 0.04055 0.56621 0.0
C648 C 0.77782 0.52258 0.10095 0.0
C649 C 0.79921 0.49129 0.1247 0.0
C650 C 0.7208 0.47713 0.15176 0.0
C651 C 0.69982 0.51248 0.13078 0.0
N652 N 0.7056 0.55702 0.07739 0.0
N653 N 0.79253 0.44387 0.17624 0.0
C654 C 0.72779 0.53232 0.10332 0.0
C655 C 0.77101 0.46971 0.15072 0.0
N656 N 0.80578 0.54333 0.07621 0.0
N657 N 0.69345 0.44832 0.17145 0.0
H658 H 0.82854 0.4352 0.17581 0.0
H659 H 0.77554 0.43406 0.19957 0.0
H660 H 0.65677 0.44947 0.1741 0.0
H661 H 0.70684 0.41876 0.18248 0.0
H662 H 0.79524 0.57115 0.06139 0.0
H663 H 0.84084 0.53335 0.07132 0.0
H664 H 0.72259 0.56942 0.05493 0.0
H665 H 0.66868 0.56139 0.07603 0.0
C666 C 0.26941 0.55404 0.35748 0.0
C667 C 0.29897 0.53238 0.38272 0.0
C668 C 0.22913 0.48844 0.40353 0.0
C669 C 0.19957 0.50912 0.37728 0.0
N670 N 0.19097 0.57591 0.33913 0.0
N671 N 0.30858 0.47538 0.42768 0.0
C672 C 0.21926 0.54601 0.35718 0.0
C673 C 0.27917 0.49864 0.40518 0.0
N674 N 0.28947 0.5803 0.33166 0.0
N675 N 0.20854 0.46254 0.42934 0.0
H676 H 0.34428 0.48388 0.43179 0.0
H677 H 0.29864 0.44602 0.44074 0.0
H678 H 0.17178 0.45757 0.43135 0.0
H679 H 0.22676 0.45022 0.4514 0.0
H680 H 0.27105 0.59044 0.30892 0.0
H681 H 0.32561 0.58849 0.33078 0.0
H682 H 0.20392 0.60625 0.32921 0.0
H683 H 0.15424 0.57511 0.3369 0.0
C684 C 0.23555 0.52917 0.84418 0.0
C685 C 0.20992 0.53653 0.87585 0.0
C686 C 0.27885 0.50704 0.90942 0.0
C687 C 0.30091 0.49437 0.87695 0.0
N688 N 0.28943 0.47813 0.81498 0.0
N689 N 0.20532 0.5287 0.93942 0.0
C690 C 0.27599 0.50082 0.84474 0.0
C691 C 0.23106 0.52437 0.90887 0.0
N692 N 0.22273 0.55094 0.81382 0.0
N693 N 0.30362 0.50289 0.94052 0.0
H694 H 0.1714 0.54334 0.93987 0.0
H695 H 0.21666 0.516 0.9638 0.0
H696 H 0.33726 0.48778 0.94176 0.0
H697 H 0.29168 0.516 0.96458 0.0
H698 H 0.24251 0.54851 0.79044 0.0
H699 H 0.19544 0.57492 0.81362 0.0
H700 H 0.27013 0.47984 0.79125 0.0
H701 H 0.31682 0.45427 0.8156 0.0
C702 C 0.73669 0.5028 0.66317 0.0
C703 C 0.71074 0.49365 0.63184 0.0
C704 C 0.77967 0.52034 0.59725 0.0
C705 C 0.80177 0.53532 0.62919 0.0
N706 N 0.7909 0.5553 0.69051 0.0
N707 N 0.70614 0.49649 0.56799 0.0
C708 C 0.77699 0.53112 0.66154 0.0
C709 C 0.73185 0.50322 0.59839 0.0
N710 N 0.72475 0.48216 0.69413 0.0
N711 N 0.8045 0.52201 0.56614 0.0
H712 H 0.67234 0.48166 0.5681 0.0
H713 H 0.71748 0.50727 0.54309 0.0
H714 H 0.83825 0.53681 0.5644 0.0
H715 H 0.79251 0.50722 0.54266 0.0
H716 H 0.74484 0.48592 0.71735 0.0
H717 H 0.69799 0.45768 0.69501 0.0
H718 H 0.77176 0.55502 0.71426 0.0
H719 H 0.81876 0.57859 0.68916 0.0
C720 C 0.96102 0.08304 0.25332 0.0
C721 C 0.98836 0.07682 0.28494 0.0
C722 C 0.06127 0.08206 0.24882 0.0
C723 C 0.03376 0.0774 0.21719 0.0
N724 N 0.95544 0.07344 0.18974 0.0
N725 N 0.06665 0.07135 0.31234 0.0
C726 C 0.98309 0.07746 0.21959 0.0
C727 C 0.03909 0.07612 0.28253 0.0
N728 N 0.91408 0.09579 0.25513 0.0
N729 N 0.10841 0.09404 0.24698 0.0
H730 H 0.05319 0.07122 0.33805 0.0
H731 H 0.10327 0.06505 0.31139 0.0
H732 H 0.12725 0.09628 0.22323 0.0
H733 H 0.12833 0.10404 0.26904 0.0
H734 H 0.89488 0.10731 0.23318 0.0
H735 H 0.89451 0.09686 0.27858 0.0
H736 H 0.91872 0.06764 0.19066 0.0
H737 H 0.96888 0.07308 0.16403 0.0
C738 C 0.45647 0.9457 0.25009 0.0
C739 C 0.48461 0.94991 0.21886 0.0
C740 C 0.55669 0.94404 0.25607 0.0
C741 C 0.52879 0.95023 0.28726 0.0
N742 N 0.45003 0.95638 0.31351 0.0
N743 N 0.56345 0.95294 0.19251 0.0
C744 C 0.47811 0.95139 0.28411 0.0
C745 C 0.53525 0.94949 0.22199 0.0
N746 N 0.40922 0.93425 0.24758 0.0
N747 N 0.60351 0.93123 0.25869 0.0
H748 H 0.55048 0.95317 0.16662 0.0
H749 H 0.60021 0.95842 0.19388 0.0
H750 H 0.62203 0.92948 0.28262 0.0
H751 H 0.62342 0.91993 0.2371 0.0
H752 H 0.38883 0.9244 0.26933 0.0
H753 H 0.39073 0.93231 0.22359 0.0
H754 H 0.41354 0.96324 0.31201 0.0
H755 H 0.4629 0.95608 0.33944 0.0
C756 C 0.0631 0.94573 0.74705 0.0
C757 C 0.03528 0.95081 0.71559 0.0
C758 C 0.96295 0.94859 0.75238 0.0
C759 C 0.99101 0.95428 0.78371 0.0
N760 N 0.06984 0.95711 0.81046 0.0
N761 N 0.95668 0.9571 0.68879 0.0
C762 C 0.04168 0.95296 0.78089 0.0
C763 C 0.98469 0.95272 0.71842 0.0
N764 N 0.10978 0.93233 0.74493 0.0
N765 N 0.91561 0.93739 0.75469 0.0
H766 H 0.96952 0.95578 0.66293 0.0
H767 H 0.92031 0.96457 0.69002 0.0
H768 H 0.89641 0.93726 0.77834 0.0
H769 H 0.89563 0.92623 0.733 0.0
H770 H 0.12966 0.92193 0.76687 0.0
H771 H 0.1282 0.9293 0.72107 0.0
H772 H 0.10668 0.96199 0.80921 0.0
H773 H 0.05677 0.95827 0.83626 0.0
C774 C 0.45894 0.08132 0.75171 0.0
C775 C 0.48642 0.078 0.72009 0.0
C776 C 0.55929 0.08346 0.75648 0.0
C777 C 0.53219 0.07629 0.78789 0.0
N778 N 0.45412 0.06926 0.81508 0.0
N779 N 0.56469 0.0761 0.69273 0.0
C780 C 0.48144 0.07507 0.78538 0.0
C781 C 0.53713 0.07863 0.7226 0.0
N782 N 0.41142 0.09197 0.7499 0.0
N783 N 0.60594 0.09696 0.75872 0.0
H784 H 0.55115 0.07686 0.66699 0.0
H785 H 0.60149 0.07071 0.69359 0.0
H786 H 0.62503 0.09847 0.78245 0.0
H787 H 0.62515 0.10893 0.73703 0.0
H788 H 0.39132 0.10118 0.77199 0.0
H789 H 0.39232 0.09387 0.72616 0.0
H790 H 0.41761 0.06244 0.81402 0.0
H791 H 0.4677 0.06858 0.84079 0.0
C792 C 0.54994 0.58095 0.25418 0.0
C793 C 0.5221 0.57547 0.2227 0.0
C794 C 0.44975 0.58114 0.25945 0.0
C795 C 0.47754 0.57581 0.29093 0.0
N796 N 0.55631 0.57109 0.31768 0.0
N797 N 0.4434 0.57111 0.1959 0.0
C798 C 0.52822 0.57545 0.28809 0.0
C799 C 0.47143 0.5753 0.22553 0.0
N800 N 0.59709 0.59287 0.25209 0.0
N801 N 0.40283 0.59373 0.26161 0.0
H802 H 0.45647 0.5713 0.17008 0.0
H803 H 0.40675 0.56503 0.1971 0.0
H804 H 0.38415 0.59579 0.2854 0.0
H805 H 0.38294 0.60438 0.23974 0.0
H806 H 0.6168 0.604 0.27392 0.0
H807 H 0.6164 0.59357 0.22851 0.0
H808 H 0.59288 0.5646 0.31641 0.0
H809 H 0.54342 0.57136 0.34353 0.0
C810 C 0.97168 0.44875 0.28098 0.0
C811 C 0.0223 0.44937 0.28428 0.0
C812 C 0.02902 0.45069 0.21899 0.0
C813 C 0.97839 0.44955 0.21566 0.0
N814 N 0.90384 0.42967 0.24405 0.0
N815 N 0.09774 0.43322 0.25548 0.0
C816 C 0.95044 0.44311 0.2468 0.0
C817 C 0.0505 0.44479 0.25303 0.0
N818 N 0.94333 0.45198 0.31039 0.0
N819 N 0.05729 0.45606 0.18974 0.0
H820 H 0.11667 0.43186 0.27931 0.0
H821 H 0.11787 0.42292 0.23369 0.0
H822 H 0.0446 0.45613 0.16376 0.0
H823 H 0.09375 0.46299 0.19145 0.0
H824 H 0.90655 0.45729 0.30892 0.0
H825 H 0.95623 0.45192 0.33632 0.0
H826 H 0.88396 0.41833 0.26561 0.0
H827 H 0.88556 0.42746 0.22004 0.0
C828 C 0.47797 0.45208 0.72356 0.0
C829 C 0.52874 0.45167 0.72152 0.0
C830 C 0.53322 0.45015 0.78686 0.0
C831 C 0.48246 0.44995 0.7889 0.0
N832 N 0.40812 0.43396 0.75844 0.0
N833 N 0.60287 0.43321 0.75138 0.0
C834 C 0.45535 0.44573 0.75704 0.0
C835 C 0.55579 0.44546 0.75319 0.0
N836 N 0.45079 0.45719 0.69359 0.0
N837 N 0.56046 0.45342 0.81698 0.0
H838 H 0.62215 0.43204 0.72777 0.0
H839 H 0.62234 0.42198 0.77327 0.0
H840 H 0.54669 0.4526 0.84258 0.0
H841 H 0.59714 0.45947 0.81645 0.0
H842 H 0.41413 0.46332 0.69429 0.0
H843 H 0.46459 0.45803 0.668 0.0
H844 H 0.38851 0.4241 0.73619 0.0
H845 H 0.38886 0.43172 0.78199 0.0
C846 C 0.97834 0.57901 0.78311 0.0
C847 C 0.02907 0.5799 0.78565 0.0
C848 C 0.0342 0.57798 0.72035 0.0
C849 C 0.98347 0.57776 0.71783 0.0
N850 N 0.90892 0.59554 0.74701 0.0
N851 N 0.10351 0.59675 0.75599 0.0
C852 C 0.95605 0.58358 0.74925 0.0
C853 C 0.05643 0.58454 0.75407 0.0
N854 N 0.95084 0.57534 0.81293 0.0
N855 N 0.06168 0.57321 0.69062 0.0
H856 H 0.12255 0.59901 0.77973 0.0
H857 H 0.12322 0.60688 0.73397 0.0
H858 H 0.04802 0.57198 0.66493 0.0
H859 H 0.09844 0.56764 0.69162 0.0
H860 H 0.91425 0.56887 0.812 0.0
H861 H 0.96431 0.57626 0.83869 0.0
H862 H 0.8891 0.60642 0.76877 0.0
H863 H 0.89001 0.59697 0.72318 0.0
C864 C 0.03176 0.24631 0.07469 0.0
C865 C 0.02156 0.21877 0.10462 0.0
C866 C 0.97488 0.28024 0.13072 0.0
C867 C 0.98974 0.3094 0.10303 0.0
N868 N 0.03647 0.32203 0.05043 0.0
N869 N 0.99381 0.2146 0.16546 0.0
C870 C 0.01962 0.29301 0.07555 0.0
C871 C 0.99571 0.23696 0.13374 0.0
N872 N 0.05124 0.2275 0.04494 0.0
N873 N 0.94074 0.29363 0.1544 0.0
H874 H 0.01075 0.18405 0.17019 0.0
H875 H 0.98008 0.22889 0.18856 0.0
H876 H 0.92512 0.32537 0.15418 0.0
H877 H 0.92466 0.27166 0.1723 0.0
H878 H 0.05543 0.24478 0.02112 0.0
H879 H 0.05911 0.1933 0.043 0.0
H880 H 0.06239 0.31327 0.03187 0.0
H881 H 0.02686 0.35594 0.04974 0.0
C882 C 0.49047 0.77862 0.07806 0.0
C883 C 0.4993 0.80612 0.10831 0.0
C884 C 0.54468 0.74453 0.13573 0.0
C885 C 0.53078 0.71539 0.10764 0.0
N886 N 0.48675 0.70298 0.0535 0.0
N887 N 0.52519 0.81077 0.1697 0.0
C888 C 0.50246 0.73193 0.07921 0.0
C889 C 0.52419 0.78807 0.13806 0.0
N890 N 0.47229 0.79747 0.04781 0.0
N891 N 0.57714 0.73066 0.16066 0.0
H892 H 0.50842 0.84154 0.17386 0.0
H893 H 0.53799 0.79671 0.19321 0.0
H894 H 0.59177 0.6985 0.16129 0.0
H895 H 0.59279 0.75248 0.17899 0.0
H896 H 0.46917 0.78024 0.02383 0.0
H897 H 0.46446 0.83167 0.04575 0.0
H898 H 0.46168 0.71177 0.03422 0.0
H899 H 0.49665 0.66914 0.05281 0.0
C900 C 0.48238 0.74688 0.4311 0.0
C901 C 0.49141 0.71893 0.40114 0.0
C902 C 0.53557 0.78074 0.37314 0.0
C903 C 0.52178 0.81016 0.40102 0.0
N904 N 0.47764 0.82295 0.45483 0.0
N905 N 0.51599 0.71416 0.33957 0.0
C906 C 0.49367 0.79376 0.42948 0.0
C907 C 0.51537 0.73705 0.37112 0.0
N908 N 0.46488 0.72833 0.46159 0.0
N909 N 0.56815 0.79426 0.34836 0.0
H910 H 0.4993 0.6833 0.33562 0.0
H911 H 0.52827 0.72821 0.31596 0.0
H912 H 0.58322 0.82623 0.34795 0.0
H913 H 0.58359 0.77228 0.33012 0.0
H914 H 0.46171 0.74597 0.48537 0.0
H915 H 0.45775 0.69405 0.46408 0.0
H916 H 0.45287 0.81413 0.4742 0.0
H917 H 0.48666 0.85701 0.45495 0.0
C918 C 0.02871 0.27997 0.42673 0.0
C919 C 0.01876 0.30759 0.39676 0.0
C920 C 0.97104 0.24643 0.37059 0.0
C921 C 0.98505 0.21727 0.3986 0.0
N922 N 0.03164 0.20436 0.45146 0.0
N923 N 0.99093 0.31182 0.33588 0.0
C924 C 0.0154 0.23345 0.42609 0.0
C925 C 0.99251 0.28951 0.36763 0.0
N926 N 0.04907 0.29854 0.45633 0.0
N927 N 0.93742 0.23309 0.34632 0.0
H928 H 0.00847 0.34206 0.33124 0.0
H929 H 0.97702 0.29778 0.31269 0.0
H930 H 0.92215 0.20119 0.34592 0.0
H931 H 0.92159 0.25512 0.32827 0.0
H932 H 0.05304 0.28139 0.48026 0.0
H933 H 0.05821 0.33247 0.45799 0.0
H934 H 0.05793 0.2127 0.46997 0.0
H935 H 0.02089 0.17079 0.45257 0.0
C936 C 0.99256 0.73987 0.92439 0.0
C937 C 0.0227 0.72355 0.897 0.0
C938 C 0.01763 0.79644 0.86685 0.0
C939 C 0.99196 0.81467 0.89609 0.0
N940 N 0.96076 0.80519 0.95524 0.0
N941 N 0.07124 0.73911 0.84535 0.0
C942 C 0.98076 0.7867 0.92557 0.0
C943 C 0.03772 0.7528 0.86943 0.0
N944 N 0.97523 0.71065 0.94918 0.0
N945 N 0.02006 0.81925 0.83536 0.0
H946 H 0.08555 0.70683 0.84467 0.0
H947 H 0.08789 0.76111 0.82776 0.0
H948 H 1.00369 0.85011 0.83094 0.0
H949 H 0.0335 0.80516 0.8121 0.0
H950 H 0.94915 0.71931 0.96764 0.0
H951 H 0.98464 0.67669 0.9497 0.0
H952 H 0.95592 0.78761 0.97886 0.0
H953 H 0.95285 0.83936 0.95735 0.0
C954 C 0.47179 0.27704 0.87227 0.0
C955 C 0.48572 0.30621 0.90034 0.0
C956 C 0.5253 0.24279 0.93022 0.0
C957 C 0.51614 0.21506 0.90012 0.0
N958 N 0.4908 0.21053 0.83856 0.0
N959 N 0.52992 0.31864 0.95438 0.0
C960 C 0.49182 0.23329 0.87017 0.0
C961 C 0.51389 0.28963 0.92882 0.0
N962 N 0.43943 0.29095 0.8473 0.0
N963 N 0.54313 0.22402 0.96061 0.0
H964 H 0.52079 0.35267 0.95467 0.0
H965 H 0.55477 0.30972 0.97378 0.0
H966 H 0.55036 0.18972 0.96291 0.0
H967 H 0.54647 0.24144 0.98449 0.0
H968 H 0.42364 0.26912 0.82904 0.0
H969 H 0.42505 0.32321 0.84656 0.0
H970 H 0.47849 0.22476 0.81496 0.0
H971 H 0.50704 0.17952 0.8345 0.0
C972 C 0.47157 0.25089 0.63629 0.0
C973 C 0.4862 0.22193 0.60837 0.0
C974 C 0.52519 0.28564 0.57883 0.0
C975 C 0.51548 0.31316 0.60888 0.0
N976 N 0.48945 0.31751 0.6702 0.0
N977 N 0.53086 0.2099 0.55467 0.0
C978 C 0.49104 0.29478 0.6386 0.0
C979 C 0.51434 0.23874 0.58011 0.0
N980 N 0.4392 0.23662 0.66098 0.0
N981 N 0.54309 0.30464 0.54864 0.0
H982 H 0.52206 0.1758 0.55424 0.0
H983 H 0.55572 0.21907 0.53547 0.0
H984 H 0.54997 0.33901 0.54646 0.0
H985 H 0.54687 0.2873 0.52478 0.0
H986 H 0.4229 0.2583 0.67904 0.0
H987 H 0.42532 0.20418 0.66169 0.0
H988 H 0.47711 0.30315 0.69367 0.0
H989 H 0.50522 0.3487 0.67444 0.0
C990 C 0.99798 0.79028 0.57581 0.0
C991 C 0.02684 0.80694 0.6039 0.0
C992 C 0.02145 0.73428 0.63427 0.0
C993 C 0.99655 0.71591 0.60463 0.0
N994 N 0.96807 0.7245 0.5445 0.0
N995 N 0.07461 0.79177 0.65626 0.0
C996 C 0.9866 0.74344 0.57461 0.0
C997 C 0.04148 0.77791 0.63181 0.0
N998 N 0.98136 0.81917 0.55043 0.0
N999 N 0.02311 0.71176 0.66594 0.0
H1000 H 0.08923 0.82392 0.65672 0.0
H1001 H 0.0908 0.76995 0.6743 0.0
H1002 H 0.00694 0.6808 0.67027 0.0
H1003 H 0.03589 0.72616 0.68935 0.0
H1004 H 0.95611 0.81015 0.53133 0.0
H1005 H 0.99043 0.85321 0.55002 0.0
H1006 H 0.96411 0.7418 0.52065 0.0
H1007 H 0.96081 0.69019 0.54235 0.0
C1008 C 0.96531 0.02632 0.99406 0.0
C1009 C 0.9951 1.01108 0.96622 0.0
C1010 C 0.06248 1.00286 0.00779 0.0
C1011 C 0.03391 0.02179 0.03492 0.0
N1012 N 0.95924 0.05408 0.0545 0.0
N1013 N 0.07248 0.9877 0.94486 0.0
C1014 C 0.98555 0.03418 0.02822 0.0
C1015 C 0.04387 1.0001 0.97261 0.0
N1016 N 0.91745 0.03211 0.98797 0.0
N1017 N 0.10698 0.98677 0.01593 0.0
H1018 H 0.05979 0.9838 0.91895 0.0
H1019 H 0.10937 0.98401 0.94681 0.0
H1020 H 0.12147 0.98857 0.04145 0.0
H1021 H 0.12819 0.96865 0.99834 0.0
H1022 H 0.89257 0.03815 0.0079 0.0
H1023 H 0.90187 0.02806 0.96295 0.0
H1024 H 0.92601 0.06894 0.05032 0.0
H1025 H 0.97158 0.05783 0.08051 0.0
C1026 C 0.48184 1.01144 0.9715 0.0
C1027 C 0.53223 0.0157 0.96888 0.0
C1028 C 0.54032 1.00307 0.03298 0.0
C1029 C 0.48975 0.9991 0.03549 0.0
N1030 N 0.41513 0.98393 0.00565 0.0
N1031 N 0.60926 0.02259 0.99699 0.0
C1032 C 0.46122 0.99886 0.00434 0.0
C1033 C 0.56153 1.01329 0.9996 0.0
N1034 N 0.45332 0.02198 0.94311 0.0
N1035 N 0.56817 0.99373 0.062 0.0
H1036 H 0.62586 0.02953 0.97286 0.0
H1037 H 0.63187 0.02664 0.01876 0.0
H1038 H 0.55402 0.98469 0.08659 0.0
H1039 H 0.60525 0.99125 0.0613 0.0
H1040 H 0.41628 0.02477 0.9448 0.0
H1041 H 0.46676 0.03196 0.91853 0.0
H1042 H 0.39398 0.97883 0.98319 0.0
H1043 H 0.40011 0.9711 0.02871 0.0
C1044 C 0.52935 0.0452 0.52769 0.0
C1045 C 0.48564 0.02403 0.53722 0.0
C1046 C 0.47936 0.99078 0.47776 0.0
C1047 C 0.52318 1.01209 0.4683 0.0
N1048 N 0.58374 0.06749 0.481 0.0
N1049 N 0.42064 0.97393 0.52352 0.0
C1050 C 0.54632 0.04172 0.49228 0.0
C1051 C 0.46107 0.99595 0.51284 0.0
N1052 N 0.55618 0.06638 0.55318 0.0
N1053 N 0.45394 0.96796 0.45235 0.0
H1054 H 0.40541 0.97849 0.5485 0.0
H1055 H 0.40317 0.94942 0.50867 0.0
H1056 H 0.46487 0.96557 0.42595 0.0
H1057 H 0.42024 0.95415 0.45621 0.0
H1058 H 0.59078 0.07805 0.54901 0.0
H1059 H 0.54594 0.06857 0.57974 0.0
H1060 H 0.59865 0.09348 0.49589 0.0
H1061 H 0.59712 0.06595 0.4553 0.0
C1062 C 0.98294 0.9933 0.52776 0.0
C1063 C 0.03126 1.00631 0.53391 0.0
C1064 C 0.03858 0.03098 0.47217 0.0
C1065 C 0.98985 0.01938 0.46638 0.0
N1066 N 0.91342 0.99602 0.48888 0.0
N1067 N 0.10275 0.0439 0.51465 0.0
C1068 C 0.96135 1.00233 0.49426 0.0
C1069 C 0.05842 0.02713 0.50688 0.0
N1070 N 0.95789 0.97191 0.55395 0.0
N1071 N 0.06609 0.04482 0.44424 0.0
H1072 H 0.11828 0.04119 0.53977 0.0
H1073 H 0.12272 0.06345 0.49724 0.0
H1074 H 0.05256 0.04938 0.41864 0.0
H1075 H 0.10298 0.04894 0.44566 0.0
H1076 H 0.92488 0.95658 0.54994 0.0
H1077 H 0.97108 0.96746 0.57965 0.0
H1078 H 0.88937 0.98849 0.50903 0.0
H1079 H 0.89688 1.00124 0.46434 0.0
C1080 C 0.54359 0.48997 0.01591 0.0
C1081 C 0.51914 0.51809 0.04017 0.0
C1082 C 0.45599 0.53219 0.99586 0.0
C1083 C 0.48164 0.5057 0.97112 0.0
N1084 N 0.55403 0.46674 0.95468 0.0
N1085 N 0.45464 0.56952 0.0532 0.0
C1086 C 0.52658 0.48649 0.98038 0.0
C1087 C 0.47614 0.54039 0.03005 0.0
N1088 N 0.58292 0.4664 0.02692 0.0
N1089 N 0.41157 0.54798 0.98709 0.0
H1090 H 0.46592 0.57379 0.0794 0.0
H1091 H 0.42701 0.5912 0.04611 0.0
H1092 H 0.39655 0.54378 0.96193 0.0
H1093 H 0.38832 0.56295 0.00509 0.0
H1094 H 0.59906 0.44125 0.0119 0.0
H1095 H 0.59771 0.46979 0.05226 0.0
H1096 H 0.58909 0.45619 0.95876 0.0
H1097 H 0.54345 0.46449 0.92814 0.0
C1098 C 0.96344 0.539 0.01002 0.0
C1099 C 0.98668 0.5106 0.03481 0.0
C1100 C 0.05249 0.4976 0.9926 0.0
C1101 C 0.02816 0.52472 0.96747 0.0
N1102 N 0.95653 0.56369 0.94895 0.0
N1103 N 0.05704 0.4696 0.05316 0.0
C1104 C 0.98269 0.54364 0.97536 0.0
C1105 C 0.03216 0.49139 0.02693 0.0
N1106 N 0.9236 0.56246 0.01987 0.0
N1107 N 0.09463 0.47744 0.98332 0.0
H1108 H 0.0444 0.46627 0.07905 0.0
H1109 H 0.09174 0.4576 0.05053 0.0
H1110 H 0.1112 0.48282 0.95892 0.0
H1111 H 0.11228 0.45359 0.99868 0.0
H1112 H 0.90818 0.58777 0.00457 0.0
H1113 H 0.90821 0.55957 0.04487 0.0
H1114 H 0.92108 0.57363 0.9518 0.0
H1115 H 0.96851 0.56667 0.92286 0.0
C1116 C 0.0284 0.53282 0.52813 0.0
C1117 C 0.98191 0.51662 0.53649 0.0
C1118 C 0.97352 0.48522 0.47654 0.0
C1119 C 0.01931 0.50291 0.46789 0.0
N1120 N 0.08869 0.54677 0.48309 0.0
N1121 N 0.91235 0.47298 0.52147 0.0
C1122 C 0.04634 0.52758 0.49306 0.0
C1123 C 0.95506 0.49139 0.51148 0.0
N1124 N 0.05627 0.55115 0.55438 0.0
N1125 N 0.94702 0.46426 0.45074 0.0
H1126 H 0.89772 0.4777 0.54663 0.0
H1127 H 0.89219 0.45117 0.50589 0.0
H1128 H 0.95927 0.4594 0.42488 0.0
H1129 H 0.91195 0.45354 0.4539 0.0
H1130 H 0.09207 0.55963 0.55124 0.0
H1131 H 0.04487 0.55465 0.58059 0.0
H1132 H 0.10771 0.56957 0.49861 0.0
H1133 H 0.10374 0.54203 0.45804 0.0
C1134 C 0.55606 0.52759 0.5125 0.0
C1135 C 0.52808 0.51138 0.54096 0.0
C1136 C 0.45662 0.51093 0.50288 0.0
C1137 C 0.4855 0.52262 0.47352 0.0
N1138 N 0.56304 0.53964 0.44895 0.0
N1139 N 0.45283 0.48354 0.56338 0.0
C1140 C 0.5354 0.53028 0.47794 0.0
C1141 C 0.47863 0.50187 0.53617 0.0
N1142 N 0.60196 0.54129 0.51878 0.0
N1143 N 0.40799 0.51032 0.49926 0.0
H1144 H 0.46667 0.47877 0.58886 0.0
H1145 H 0.41849 0.4706 0.56024 0.0
H1146 H 0.39085 0.51716 0.47526 0.0
H1147 H 0.38451 0.50688 0.52048 0.0
H1148 H 0.62321 0.55738 0.50006 0.0
H1149 H 0.61768 0.53983 0.54391 0.0
H1150 H 0.60021 0.54077 0.44958 0.0
H1151 H 0.54901 0.54343 0.42342 0.0
loop_
_geom_bond_atom_site_label_1
_geom_bond_atom_site_label_2
_geom_bond_distance
_geom_bond_site_symmetry_2
_ccdc_geom_bond_type
Mn0 O5 2.095 . S
Mn0 O15 2.162 . S
Mn0 O16 2.297 . S
Mn0 O24 2.385 . S
Mn0 O25 2.209 . S
Mn0 O26 2.094 . S
Mn1 O6 2.121 . S
Mn1 N8 2.257 1_455 S
Mn1 N17 2.282 . S
Mn1 O25 2.215 1_565 S
Mn1 O27 2.117 . S
C2 O24 1.234 . S
C2 O25 1.283 . S
C3 O15 1.281 . S
C3 O16 1.236 . S
C4 O26 1.240 . S
C4 O27 1.264 1_545 S
O5 Mn0 2.095 . S
O5 C14 1.250 . S
O6 Mn1 2.121 . S
O6 C14 1.258 1_565 S
C7 N8 1.326 . S
C7 C11 1.460 . S
C7 H13 0.929 . S
N8 Mn1 2.257 1_655 S
N8 C7 1.326 . S
N8 C12 1.362 . S
C9 C10 1.258 . S
C9 C12 1.431 . S
C9 C29 1.449 . S
C10 C9 1.258 . S
C10 C11 1.477 . S
C10 H30 0.931 . S
C11 C7 1.460 . S
C11 C10 1.477 . S
C11 H31 0.930 . S
C12 N8 1.362 . S
C12 C9 1.431 . S
C12 C22 1.476 1_655 S
H13 C7 0.929 . S
C14 O5 1.250 . S
C14 O6 1.258 1_545 S
O15 Mn0 2.162 . S
O15 C3 1.281 . S
O16 Mn0 2.297 . S
O16 C3 1.236 . S
N17 Mn1 2.282 . S
N17 C18 1.328 . S
N17 C22 1.318 . S
C18 N17 1.328 . S
C18 C19 1.457 . S
C18 H23 0.929 . S
C19 C18 1.457 . S
C19 C20 1.291 . S
C19 H32 0.931 . S
C20 C19 1.291 . S
C20 C21 1.373 . S
C20 H33 0.929 . S
C21 C20 1.373 . S
C21 C22 1.396 . S
C21 C28 1.403 . S
C22 C12 1.476 1_455 S
C22 N17 1.318 . S
C22 C21 1.396 . S
H23 C18 0.929 . S
O24 Mn0 2.385 . S
O24 C2 1.234 . S
O25 Mn0 2.209 . S
O25 Mn1 2.215 1_545 S
O25 C2 1.283 . S
O26 Mn0 2.094 . S
O26 C4 1.240 . S
O27 Mn1 2.117 . S
O27 C4 1.264 1_565 S
C28 C21 1.403 . S
C28 C29 1.399 1_455 S
C28 H34 0.929 . S
C29 C9 1.449 . S
C29 C28 1.399 1_655 S
C29 H35 0.930 . S
H30 C10 0.931 . S
H31 C11 0.930 . S
H32 C19 0.931 . S
H33 C20 0.929 . S
H34 C28 0.929 . S
H35 C29 0.930 . S
Mn36 O41 2.095 . S
Mn36 O51 2.162 . S
Mn36 O52 2.297 . S
Mn36 O60 2.385 . S
Mn36 O61 2.209 . S
Mn36 O62 2.094 . S
Mn37 O42 2.121 . S
Mn37 N44 2.257 . S
Mn37 N53 2.282 . S
Mn37 O61 2.215 1_545 S
Mn37 O63 2.117 . S
C38 O60 1.234 . S
C38 O61 1.283 . S
C39 O51 1.281 . S
C39 O52 1.236 . S
C40 O62 1.240 . S
C40 O63 1.264 1_565 S
O41 Mn36 2.095 . S
O41 C50 1.250 . S
O42 Mn37 2.121 . S
O42 C50 1.258 1_545 S
C43 N44 1.326 . S
C43 C47 1.460 . S
C43 H49 0.929 . S
N44 Mn37 2.257 . S
N44 C43 1.326 . S
N44 C48 1.362 . S
C45 C46 1.258 . S
C45 C48 1.431 . S
C45 C65 1.449 . S
C46 C45 1.258 . S
C46 C47 1.477 . S
C46 H66 0.931 . S
C47 C43 1.460 . S
C47 C46 1.477 . S
C47 H67 0.930 . S
C48 N44 1.362 . S
C48 C45 1.431 . S
C48 C58 1.476 . S
H49 C43 0.929 . S
C50 O41 1.250 . S
C50 O42 1.258 1_565 S
O51 Mn36 2.162 . S
O51 C39 1.281 . S
O52 Mn36 2.297 . S
O52 C39 1.236 . S
N53 Mn37 2.282 . S
N53 C54 1.328 . S
N53 C58 1.318 . S
C54 N53 1.328 . S
C54 C55 1.457 . S
C54 H59 0.929 . S
C55 C54 1.457 . S
C55 C56 1.291 . S
C55 H68 0.931 . S
C56 C55 1.291 . S
C56 C57 1.373 . S
C56 H69 0.929 . S
C57 C56 1.373 . S
C57 C58 1.396 . S
C57 C64 1.403 . S
C58 C48 1.476 . S
C58 N53 1.318 . S
C58 C57 1.396 . S
H59 C54 0.929 . S
O60 Mn36 2.385 . S
O60 C38 1.234 . S
O61 Mn36 2.209 . S
O61 Mn37 2.215 1_565 S
O61 C38 1.283 . S
O62 Mn36 2.094 . S
O62 C40 1.240 . S
O63 Mn37 2.117 . S
O63 C40 1.264 1_545 S
C64 C57 1.403 . S
C64 C65 1.399 . S
C64 H70 0.929 . S
C65 C45 1.449 . S
C65 C64 1.399 . S
C65 H71 0.930 . S
H66 C46 0.931 . S
H67 C47 0.930 . S
H68 C55 0.931 . S
H69 C56 0.929 . S
H70 C64 0.929 . S
H71 C65 0.930 . S
Mn72 O77 2.095 . S
Mn72 O87 2.162 . S
Mn72 O88 2.297 . S
Mn72 O96 2.385 . S
Mn72 O97 2.209 . S
Mn72 O98 2.094 . S
Mn73 O78 2.121 . S
Mn73 N80 2.257 . S
Mn73 N89 2.282 . S
Mn73 O97 2.215 1_545 S
Mn73 O99 2.117 . S
C74 O96 1.234 . S
C74 O97 1.283 . S
C75 O87 1.281 . S
C75 O88 1.236 . S
C76 O98 1.240 . S
C76 O99 1.264 1_565 S
O77 Mn72 2.095 . S
O77 C86 1.250 . S
O78 Mn73 2.121 . S
O78 C86 1.258 1_545 S
C79 N80 1.326 . S
C79 C83 1.460 . S
C79 H85 0.929 . S
N80 Mn73 2.257 . S
N80 C79 1.326 . S
N80 C84 1.362 . S
C81 C82 1.258 . S
C81 C84 1.431 . S
C81 C101 1.449 . S
C82 C81 1.258 . S
C82 C83 1.477 . S
C82 H102 0.931 . S
C83 C79 1.460 . S
C83 C82 1.477 . S
C83 H103 0.930 . S
C84 N80 1.362 . S
C84 C81 1.431 . S
C84 C94 1.476 . S
H85 C79 0.929 . S
C86 O77 1.250 . S
C86 O78 1.258 1_565 S
O87 Mn72 2.162 . S
O87 C75 1.281 . S
O88 Mn72 2.297 . S
O88 C75 1.236 . S
N89 Mn73 2.282 . S
N89 C90 1.328 . S
N89 C94 1.318 . S
C90 N89 1.328 . S
C90 C91 1.457 . S
C90 H95 0.929 . S
C91 C90 1.457 . S
C91 C92 1.291 . S
C91 H104 0.931 . S
C92 C91 1.291 . S
C92 C93 1.373 . S
C92 H105 0.929 . S
C93 C92 1.373 . S
C93 C94 1.396 . S
C93 C100 1.403 . S
C94 C84 1.476 . S
C94 N89 1.318 . S
C94 C93 1.396 . S
H95 C90 0.929 . S
O96 Mn72 2.385 . S
O96 C74 1.234 . S
O97 Mn72 2.209 . S
O97 Mn73 2.215 1_565 S
O97 C74 1.283 . S
O98 Mn72 2.094 . S
O98 C76 1.240 . S
O99 Mn73 2.117 . S
O99 C76 1.264 1_545 S
C100 C93 1.403 . S
C100 C101 1.399 . S
C100 H106 0.929 . S
C101 C81 1.449 . S
C101 C100 1.399 . S
C101 H107 0.930 . S
H102 C82 0.931 . S
H103 C83 0.930 . S
H104 C91 0.931 . S
H105 C92 0.929 . S
H106 C100 0.929 . S
H107 C101 0.930 . S
Mn108 O113 2.095 . S
Mn108 O123 2.162 . S
Mn108 O124 2.297 . S
Mn108 O132 2.385 . S
Mn108 O133 2.209 . S
Mn108 O134 2.094 . S
Mn109 O114 2.121 . S
Mn109 N116 2.257 1_655 S
Mn109 N125 2.282 . S
Mn109 O133 2.215 1_565 S
Mn109 O135 2.117 . S
C110 O132 1.234 . S
C110 O133 1.283 . S
C111 O123 1.281 . S
C111 O124 1.236 . S
C112 O134 1.240 . S
C112 O135 1.264 1_545 S
O113 Mn108 2.095 . S
O113 C122 1.250 . S
O114 Mn109 2.121 . S
O114 C122 1.258 1_565 S
C115 N116 1.326 . S
C115 C119 1.460 . S
C115 H121 0.929 . S
N116 Mn109 2.257 1_455 S
N116 C115 1.326 . S
N116 C120 1.362 . S
C117 C118 1.258 . S
C117 C120 1.431 . S
C117 C137 1.449 . S
C118 C117 1.258 . S
C118 C119 1.477 . S
C118 H138 0.931 . S
C119 C115 1.460 . S
C119 C118 1.477 . S
C119 H139 0.930 . S
C120 N116 1.362 . S
C120 C117 1.431 . S
C120 C130 1.476 1_455 S
H121 C115 0.929 . S
C122 O113 1.250 . S
C122 O114 1.258 1_545 S
O123 Mn108 2.162 . S
O123 C111 1.281 . S
O124 Mn108 2.297 . S
O124 C111 1.236 . S
N125 Mn109 2.282 . S
N125 C126 1.328 . S
N125 C130 1.318 . S
C126 N125 1.328 . S
C126 C127 1.457 . S
C126 H131 0.929 . S
C127 C126 1.457 . S
C127 C128 1.291 . S
C127 H140 0.931 . S
C128 C127 1.291 . S
C128 C129 1.373 . S
C128 H141 0.929 . S
C129 C128 1.373 . S
C129 C130 1.396 . S
C129 C136 1.403 . S
C130 C120 1.476 1_655 S
C130 N125 1.318 . S
C130 C129 1.396 . S
H131 C126 0.929 . S
O132 Mn108 2.385 . S
O132 C110 1.234 . S
O133 Mn108 2.209 . S
O133 Mn109 2.215 1_545 S
O133 C110 1.283 . S
O134 Mn108 2.094 . S
O134 C112 1.240 . S
O135 Mn109 2.117 . S
O135 C112 1.264 1_565 S
C136 C129 1.403 . S
C136 C137 1.399 1_655 S
C136 H142 0.929 . S
C137 C117 1.449 . S
C137 C136 1.399 1_455 S
C137 H143 0.930 . S
H138 C118 0.931 . S
H139 C119 0.930 . S
H140 C127 0.931 . S
H141 C128 0.929 . S
H142 C136 0.929 . S
H143 C137 0.930 . S
Mn144 O149 2.095 . S
Mn144 O159 2.162 . S
Mn144 O160 2.297 . S
Mn144 O168 2.385 . S
Mn144 O169 2.209 . S
Mn144 O170 2.094 . S
Mn145 O150 2.121 . S
Mn145 N152 2.257 1_655 S
Mn145 N161 2.282 . S
Mn145 O169 2.215 1_545 S
Mn145 O171 2.117 . S
C146 O168 1.234 . S
C146 O169 1.283 . S
C147 O159 1.281 . S
C147 O160 1.236 . S
C148 O170 1.240 . S
C148 O171 1.264 1_565 S
O149 Mn144 2.095 . S
O149 C158 1.250 . S
O150 Mn145 2.121 . S
O150 C158 1.258 1_545 S
C151 N152 1.326 . S
C151 C155 1.460 . S
C151 H157 0.929 . S
N152 Mn145 2.257 1_455 S
N152 C151 1.326 . S
N152 C156 1.362 . S
C153 C154 1.258 . S
C153 C156 1.431 . S
C153 C173 1.449 . S
C154 C153 1.258 . S
C154 C155 1.477 . S
C154 H174 0.931 . S
C155 C151 1.460 . S
C155 C154 1.477 . S
C155 H175 0.930 . S
C156 N152 1.362 . S
C156 C153 1.431 . S
C156 C166 1.476 1_455 S
H157 C151 0.929 . S
C158 O149 1.250 . S
C158 O150 1.258 1_565 S
O159 Mn144 2.162 . S
O159 C147 1.281 . S
O160 Mn144 2.297 . S
O160 C147 1.236 . S
N161 Mn145 2.282 . S
N161 C162 1.328 . S
N161 C166 1.318 . S
C162 N161 1.328 . S
C162 C163 1.457 . S
C162 H167 0.929 . S
C163 C162 1.457 . S
C163 C164 1.291 . S
C163 H176 0.931 . S
C164 C163 1.291 . S
C164 C165 1.373 . S
C164 H177 0.929 . S
C165 C164 1.373 . S
C165 C166 1.396 . S
C165 C172 1.403 . S
C166 C156 1.476 1_655 S
C166 N161 1.318 . S
C166 C165 1.396 . S
H167 C162 0.929 . S
O168 Mn144 2.385 . S
O168 C146 1.234 . S
O169 Mn144 2.209 . S
O169 Mn145 2.215 1_565 S
O169 C146 1.283 . S
O170 Mn144 2.094 . S
O170 C148 1.240 . S
O171 Mn145 2.117 . S
O171 C148 1.264 1_545 S
C172 C165 1.403 . S
C172 C173 1.399 1_655 S
C172 H178 0.929 . S
C173 C153 1.449 . S
C173 C172 1.399 1_455 S
C173 H179 0.930 . S
H174 C154 0.931 . S
H175 C155 0.930 . S
H176 C163 0.931 . S
H177 C164 0.929 . S
H178 C172 0.929 . S
H179 C173 0.930 . S
Mn180 O185 2.095 . S
Mn180 O195 2.162 . S
Mn180 O196 2.297 . S
Mn180 O204 2.385 . S
Mn180 O205 2.209 . S
Mn180 O206 2.094 . S
Mn181 O186 2.121 . S
Mn181 N188 2.257 . S
Mn181 N197 2.282 . S
Mn181 O205 2.215 1_565 S
Mn181 O207 2.117 . S
C182 O204 1.234 . S
C182 O205 1.283 . S
C183 O195 1.281 . S
C183 O196 1.236 . S
C184 O206 1.240 . S
C184 O207 1.264 1_545 S
O185 Mn180 2.095 . S
O185 C194 1.250 . S
O186 Mn181 2.121 . S
O186 C194 1.258 1_565 S
C187 N188 1.326 . S
C187 C191 1.460 . S
C187 H193 0.929 . S
N188 Mn181 2.257 . S
N188 C187 1.326 . S
N188 C192 1.362 . S
C189 C190 1.258 . S
C189 C192 1.431 . S
C189 C209 1.449 . S
C190 C189 1.258 . S
C190 C191 1.477 . S
C190 H210 0.931 . S
C191 C187 1.460 . S
C191 C190 1.477 . S
C191 H211 0.930 . S
C192 N188 1.362 . S
C192 C189 1.431 . S
C192 C202 1.476 . S
H193 C187 0.929 . S
C194 O185 1.250 . S
C194 O186 1.258 1_545 S
O195 Mn180 2.162 . S
O195 C183 1.281 . S
O196 Mn180 2.297 . S
O196 C183 1.236 . S
N197 Mn181 2.282 . S
N197 C198 1.328 . S
N197 C202 1.318 . S
C198 N197 1.328 . S
C198 C199 1.457 . S
C198 H203 0.929 . S
C199 C198 1.457 . S
C199 C200 1.291 . S
C199 H212 0.931 . S
C200 C199 1.291 . S
C200 C201 1.373 . S
C200 H213 0.929 . S
C201 C200 1.373 . S
C201 C202 1.396 . S
C201 C208 1.403 . S
C202 C192 1.476 . S
C202 N197 1.318 . S
C202 C201 1.396 . S
H203 C198 0.929 . S
O204 Mn180 2.385 . S
O204 C182 1.234 . S
O205 Mn180 2.209 . S
O205 Mn181 2.215 1_545 S
O205 C182 1.283 . S
O206 Mn180 2.094 . S
O206 C184 1.240 . S
O207 Mn181 2.117 . S
O207 C184 1.264 1_565 S
C208 C201 1.403 . S
C208 C209 1.399 . S
C208 H214 0.929 . S
C209 C189 1.449 . S
C209 C208 1.399 . S
C209 H215 0.930 . S
H210 C190 0.931 . S
H211 C191 0.930 . S
H212 C199 0.931 . S
H213 C200 0.929 . S
H214 C208 0.929 . S
H215 C209 0.930 . S
Mn216 O221 2.095 . S
Mn216 O231 2.162 . S
Mn216 O232 2.297 . S
Mn216 O240 2.385 . S
Mn216 O241 2.209 . S
Mn216 O242 2.094 . S
Mn217 O222 2.121 . S
Mn217 N224 2.257 . S
Mn217 N233 2.282 . S
Mn217 O241 2.215 1_565 S
Mn217 O243 2.117 . S
C218 O240 1.234 . S
C218 O241 1.283 . S
C219 O231 1.281 . S
C219 O232 1.236 . S
C220 O242 1.240 . S
C220 O243 1.264 1_545 S
O221 Mn216 2.095 . S
O221 C230 1.250 . S
O222 Mn217 2.121 . S
O222 C230 1.258 1_565 S
C223 N224 1.326 . S
C223 C227 1.460 . S
C223 H229 0.929 . S
N224 Mn217 2.257 . S
N224 C223 1.326 . S
N224 C228 1.362 . S
C225 C226 1.258 . S
C225 C228 1.431 . S
C225 C245 1.449 . S
C226 C225 1.258 . S
C226 C227 1.477 . S
C226 H246 0.931 . S
C227 C223 1.460 . S
C227 C226 1.477 . S
C227 H247 0.930 . S
C228 N224 1.362 . S
C228 C225 1.431 . S
C228 C238 1.476 . S
H229 C223 0.929 . S
C230 O221 1.250 . S
C230 O222 1.258 1_545 S
O231 Mn216 2.162 . S
O231 C219 1.281 . S
O232 Mn216 2.297 . S
O232 C219 1.236 . S
N233 Mn217 2.282 . S
N233 C234 1.328 . S
N233 C238 1.318 . S
C234 N233 1.328 . S
C234 C235 1.457 . S
C234 H239 0.929 . S
C235 C234 1.457 . S
C235 C236 1.291 . S
C235 H248 0.931 . S
C236 C235 1.291 . S
C236 C237 1.373 . S
C236 H249 0.929 . S
C237 C236 1.373 . S
C237 C238 1.396 . S
C237 C244 1.403 . S
C238 C228 1.476 . S
C238 N233 1.318 . S
C238 C237 1.396 . S
H239 C234 0.929 . S
O240 Mn216 2.385 . S
O240 C218 1.234 . S
O241 Mn216 2.209 . S
O241 Mn217 2.215 1_545 S
O241 C218 1.283 . S
O242 Mn216 2.094 . S
O242 C220 1.240 . S
O243 Mn217 2.117 . S
O243 C220 1.264 1_565 S
C244 C237 1.403 . S
C244 C245 1.399 . S
C244 H250 0.929 . S
C245 C225 1.449 . S
C245 C244 1.399 . S
C245 H251 0.930 . S
H246 C226 0.931 . S
H247 C227 0.930 . S
H248 C235 0.931 . S
H249 C236 0.929 . S
H250 C244 0.929 . S
H251 C245 0.930 . S
Mn252 O257 2.095 . S
Mn252 O267 2.162 . S
Mn252 O268 2.297 . S
Mn252 O276 2.385 . S
Mn252 O277 2.209 . S
Mn252 O278 2.094 . S
Mn253 O258 2.121 . S
Mn253 N260 2.257 1_455 S
Mn253 N269 2.282 . S
Mn253 O277 2.215 1_545 S
Mn253 O279 2.117 . S
C254 O276 1.234 . S
C254 O277 1.283 . S
C255 O267 1.281 . S
C255 O268 1.236 . S
C256 O278 1.240 . S
C256 O279 1.264 1_565 S
O257 Mn252 2.095 . S
O257 C266 1.250 . S
O258 Mn253 2.121 . S
O258 C266 1.258 1_545 S
C259 N260 1.326 . S
C259 C263 1.460 . S
C259 H265 0.929 . S
N260 Mn253 2.257 1_655 S
N260 C259 1.326 . S
N260 C264 1.362 . S
C261 C262 1.258 . S
C261 C264 1.431 . S
C261 C281 1.449 . S
C262 C261 1.258 . S
C262 C263 1.477 . S
C262 H282 0.931 . S
C263 C259 1.460 . S
C263 C262 1.477 . S
C263 H283 0.930 . S
C264 N260 1.362 . S
C264 C261 1.431 . S
C264 C274 1.476 1_655 S
H265 C259 0.929 . S
C266 O257 1.250 . S
C266 O258 1.258 1_565 S
O267 Mn252 2.162 . S
O267 C255 1.281 . S
O268 Mn252 2.297 . S
O268 C255 1.236 . S
N269 Mn253 2.282 . S
N269 C270 1.328 . S
N269 C274 1.318 . S
C270 N269 1.328 . S
C270 C271 1.457 . S
C270 H275 0.929 . S
C271 C270 1.457 . S
C271 C272 1.291 . S
C271 H284 0.931 . S
C272 C271 1.291 . S
C272 C273 1.373 . S
C272 H285 0.929 . S
C273 C272 1.373 . S
C273 C274 1.396 . S
C273 C280 1.403 . S
C274 C264 1.476 1_455 S
C274 N269 1.318 . S
C274 C273 1.396 . S
H275 C270 0.929 . S
O276 Mn252 2.385 . S
O276 C254 1.234 . S
O277 Mn252 2.209 . S
O277 Mn253 2.215 1_565 S
O277 C254 1.283 . S
O278 Mn252 2.094 . S
O278 C256 1.240 . S
O279 Mn253 2.117 . S
O279 C256 1.264 1_545 S
C280 C273 1.403 . S
C280 C281 1.399 1_455 S
C280 H286 0.929 . S
C281 C261 1.449 . S
C281 C280 1.399 1_655 S
C281 H287 0.930 . S
H282 C262 0.931 . S
H283 C263 0.930 . S
H284 C271 0.931 . S
H285 C272 0.929 . S
H286 C280 0.929 . S
H287 C281 0.930 . S
Mn288 O293 2.095 . S
Mn288 O303 2.162 . S
Mn288 O304 2.297 . S
Mn288 O312 2.385 . S
Mn288 O313 2.209 . S
Mn288 O314 2.094 . S
Mn289 O294 2.121 . S
Mn289 N296 2.257 . S
Mn289 N305 2.282 . S
Mn289 O313 2.215 . S
Mn289 O315 2.117 . S
C290 O312 1.234 . S
C290 O313 1.283 . S
C291 O303 1.281 . S
C291 O304 1.236 . S
C292 O314 1.240 . S
C292 O315 1.264 . S
O293 Mn288 2.095 . S
O293 C302 1.250 . S
O294 Mn289 2.121 . S
O294 C302 1.258 . S
C295 N296 1.326 . S
C295 C299 1.460 . S
C295 H301 0.929 . S
N296 Mn289 2.257 . S
N296 C295 1.326 . S
N296 C300 1.362 . S
C297 C298 1.258 . S
C297 C300 1.431 . S
C297 C317 1.449 . S
C298 C297 1.258 . S
C298 C299 1.477 . S
C298 H318 0.931 . S
C299 C295 1.460 . S
C299 C298 1.477 . S
C299 H319 0.930 . S
C300 N296 1.362 . S
C300 C297 1.431 . S
C300 C310 1.476 . S
H301 C295 0.929 . S
C302 O293 1.250 . S
C302 O294 1.258 . S
O303 Mn288 2.162 . S
O303 C291 1.281 . S
O304 Mn288 2.297 . S
O304 C291 1.236 . S
N305 Mn289 2.282 . S
N305 C306 1.328 . S
N305 C310 1.318 . S
C306 N305 1.328 . S
C306 C307 1.457 . S
C306 H311 0.929 . S
C307 C306 1.457 . S
C307 C308 1.291 . S
C307 H320 0.931 . S
C308 C307 1.291 . S
C308 C309 1.373 . S
C308 H321 0.929 . S
C309 C308 1.373 . S
C309 C310 1.396 . S
C309 C316 1.403 . S
C310 C300 1.476 . S
C310 N305 1.318 . S
C310 C309 1.396 . S
H311 C306 0.929 . S
O312 Mn288 2.385 . S
O312 C290 1.234 . S
O313 Mn288 2.209 . S
O313 Mn289 2.215 . S
O313 C290 1.283 . S
O314 Mn288 2.094 . S
O314 C292 1.240 . S
O315 Mn289 2.117 . S
O315 C292 1.264 . S
C316 C309 1.403 . S
C316 C317 1.399 . S
C316 H322 0.929 . S
C317 C297 1.449 . S
C317 C316 1.399 . S
C317 H323 0.930 . S
H318 C298 0.931 . S
H319 C299 0.930 . S
H320 C307 0.931 . S
H321 C308 0.929 . S
H322 C316 0.929 . S
H323 C317 0.930 . S
Mn324 O329 2.095 . S
Mn324 O339 2.162 . S
Mn324 O340 2.297 . S
Mn324 O348 2.385 . S
Mn324 O349 2.209 . S
Mn324 O350 2.094 . S
Mn325 O330 2.121 . S
Mn325 N332 2.257 1_655 S
Mn325 N341 2.282 . S
Mn325 O349 2.215 . S
Mn325 O351 2.117 . S
C326 O348 1.234 . S
C326 O349 1.283 . S
C327 O339 1.281 . S
C327 O340 1.236 . S
C328 O350 1.240 . S
C328 O351 1.264 . S
O329 Mn324 2.095 . S
O329 C338 1.250 . S
O330 Mn325 2.121 . S
O330 C338 1.258 . S
C331 N332 1.326 . S
C331 C335 1.460 . S
C331 H337 0.929 . S
N332 Mn325 2.257 1_455 S
N332 C331 1.326 . S
N332 C336 1.362 . S
C333 C334 1.258 . S
C333 C336 1.431 . S
C333 C353 1.449 . S
C334 C333 1.258 . S
C334 C335 1.477 . S
C334 H354 0.931 . S
C335 C331 1.460 . S
C335 C334 1.477 . S
C335 H355 0.930 . S
C336 N332 1.362 . S
C336 C333 1.431 . S
C336 C346 1.476 1_455 S
H337 C331 0.929 . S
C338 O329 1.250 . S
C338 O330 1.258 . S
O339 Mn324 2.162 . S
O339 C327 1.281 . S
O340 Mn324 2.297 . S
O340 C327 1.236 . S
N341 Mn325 2.282 . S
N341 C342 1.328 . S
N341 C346 1.318 . S
C342 N341 1.328 . S
C342 C343 1.457 . S
C342 H347 0.929 . S
C343 C342 1.457 . S
C343 C344 1.291 . S
C343 H356 0.931 . S
C344 C343 1.291 . S
C344 C345 1.373 . S
C344 H357 0.929 . S
C345 C344 1.373 . S
C345 C346 1.396 . S
C345 C352 1.403 . S
C346 C336 1.476 1_655 S
C346 N341 1.318 . S
C346 C345 1.396 . S
H347 C342 0.929 . S
O348 Mn324 2.385 . S
O348 C326 1.234 . S
O349 Mn324 2.209 . S
O349 Mn325 2.215 . S
O349 C326 1.283 . S
O350 Mn324 2.094 . S
O350 C328 1.240 . S
O351 Mn325 2.117 . S
O351 C328 1.264 . S
C352 C345 1.403 . S
C352 C353 1.399 1_655 S
C352 H358 0.929 . S
C353 C333 1.449 . S
C353 C352 1.399 1_455 S
C353 H359 0.930 . S
H354 C334 0.931 . S
H355 C335 0.930 . S
H356 C343 0.931 . S
H357 C344 0.929 . S
H358 C352 0.929 . S
H359 C353 0.930 . S
Mn360 O365 2.095 . S
Mn360 O375 2.162 . S
Mn360 O376 2.297 . S
Mn360 O384 2.385 . S
Mn360 O385 2.209 . S
Mn360 O386 2.094 . S
Mn361 O366 2.121 . S
Mn361 N368 2.257 1_455 S
Mn361 N377 2.282 . S
Mn361 O385 2.215 . S
Mn361 O387 2.117 . S
C362 O384 1.234 . S
C362 O385 1.283 . S
C363 O375 1.281 . S
C363 O376 1.236 . S
C364 O386 1.240 . S
C364 O387 1.264 . S
O365 Mn360 2.095 . S
O365 C374 1.250 . S
O366 Mn361 2.121 . S
O366 C374 1.258 . S
C367 N368 1.326 . S
C367 C371 1.460 . S
C367 H373 0.929 . S
N368 Mn361 2.257 1_655 S
N368 C367 1.326 . S
N368 C372 1.362 . S
C369 C370 1.258 . S
C369 C372 1.431 . S
C369 C389 1.449 . S
C370 C369 1.258 . S
C370 C371 1.477 . S
C370 H390 0.931 . S
C371 C367 1.460 . S
C371 C370 1.477 . S
C371 H391 0.930 . S
C372 N368 1.362 . S
C372 C369 1.431 . S
C372 C382 1.476 1_655 S
H373 C367 0.929 . S
C374 O365 1.250 . S
C374 O366 1.258 . S
O375 Mn360 2.162 . S
O375 C363 1.281 . S
O376 Mn360 2.297 . S
O376 C363 1.236 . S
N377 Mn361 2.282 . S
N377 C378 1.328 . S
N377 C382 1.318 . S
C378 N377 1.328 . S
C378 C379 1.457 . S
C378 H383 0.929 . S
C379 C378 1.457 . S
C379 C380 1.291 . S
C379 H392 0.931 . S
C380 C379 1.291 . S
C380 C381 1.373 . S
C380 H393 0.929 . S
C381 C380 1.373 . S
C381 C382 1.396 . S
C381 C388 1.403 . S
C382 C372 1.476 1_455 S
C382 N377 1.318 . S
C382 C381 1.396 . S
H383 C378 0.929 . S
O384 Mn360 2.385 . S
O384 C362 1.234 . S
O385 Mn360 2.209 . S
O385 Mn361 2.215 . S
O385 C362 1.283 . S
O386 Mn360 2.094 . S
O386 C364 1.240 . S
O387 Mn361 2.117 . S
O387 C364 1.264 . S
C388 C381 1.403 . S
C388 C389 1.399 1_455 S
C388 H394 0.929 . S
C389 C369 1.449 . S
C389 C388 1.399 1_655 S
C389 H395 0.930 . S
H390 C370 0.931 . S
H391 C371 0.930 . S
H392 C379 0.931 . S
H393 C380 0.929 . S
H394 C388 0.929 . S
H395 C389 0.930 . S
Mn396 O401 2.095 . S
Mn396 O411 2.162 . S
Mn396 O412 2.297 . S
Mn396 O420 2.385 . S
Mn396 O421 2.209 . S
Mn396 O422 2.094 . S
Mn397 O402 2.121 . S
Mn397 N404 2.257 . S
Mn397 N413 2.282 . S
Mn397 O421 2.215 . S
Mn397 O423 2.117 . S
C398 O420 1.234 . S
C398 O421 1.283 . S
C399 O411 1.281 . S
C399 O412 1.236 . S
C400 O422 1.240 . S
C400 O423 1.264 . S
O401 Mn396 2.095 . S
O401 C410 1.250 . S
O402 Mn397 2.121 . S
O402 C410 1.258 . S
C403 N404 1.326 . S
C403 C407 1.460 . S
C403 H409 0.929 . S
N404 Mn397 2.257 . S
N404 C403 1.326 . S
N404 C408 1.362 . S
C405 C406 1.258 . S
C405 C408 1.431 . S
C405 C425 1.449 . S
C406 C405 1.258 . S
C406 C407 1.477 . S
C406 H426 0.931 . S
C407 C403 1.460 . S
C407 C406 1.477 . S
C407 H427 0.930 . S
C408 N404 1.362 . S
C408 C405 1.431 . S
C408 C418 1.476 . S
H409 C403 0.929 . S
C410 O401 1.250 . S
C410 O402 1.258 . S
O411 Mn396 2.162 . S
O411 C399 1.281 . S
O412 Mn396 2.297 . S
O412 C399 1.236 . S
N413 Mn397 2.282 . S
N413 C414 1.328 . S
N413 C418 1.318 . S
C414 N413 1.328 . S
C414 C415 1.457 . S
C414 H419 0.929 . S
C415 C414 1.457 . S
C415 C416 1.291 . S
C415 H428 0.931 . S
C416 C415 1.291 . S
C416 C417 1.373 . S
C416 H429 0.929 . S
C417 C416 1.373 . S
C417 C418 1.396 . S
C417 C424 1.403 . S
C418 C408 1.476 . S
C418 N413 1.318 . S
C418 C417 1.396 . S
H419 C414 0.929 . S
O420 Mn396 2.385 . S
O420 C398 1.234 . S
O421 Mn396 2.209 . S
O421 Mn397 2.215 . S
O421 C398 1.283 . S
O422 Mn396 2.094 . S
O422 C400 1.240 . S
O423 Mn397 2.117 . S
O423 C400 1.264 . S
C424 C417 1.403 . S
C424 C425 1.399 . S
C424 H430 0.929 . S
C425 C405 1.449 . S
C425 C424 1.399 . S
C425 H431 0.930 . S
H426 C406 0.931 . S
H427 C407 0.930 . S
H428 C415 0.931 . S
H429 C416 0.929 . S
H430 C424 0.929 . S
H431 C425 0.930 . S
Mn432 O437 2.095 . S
Mn432 O447 2.162 . S
Mn432 O448 2.297 . S
Mn432 O456 2.385 . S
Mn432 O457 2.209 . S
Mn432 O458 2.094 . S
Mn433 O438 2.121 . S
Mn433 N440 2.257 . S
Mn433 N449 2.282 . S
Mn433 O457 2.215 . S
Mn433 O459 2.117 . S
C434 O456 1.234 . S
C434 O457 1.283 . S
C435 O447 1.281 . S
C435 O448 1.236 . S
C436 O458 1.240 . S
C436 O459 1.264 . S
O437 Mn432 2.095 . S
O437 C446 1.250 . S
O438 Mn433 2.121 . S
O438 C446 1.258 . S
C439 N440 1.326 . S
C439 C443 1.460 . S
C439 H445 0.929 . S
N440 Mn433 2.257 . S
N440 C439 1.326 . S
N440 C444 1.362 . S
C441 C442 1.258 . S
C441 C444 1.431 . S
C441 C461 1.449 . S
C442 C441 1.258 . S
C442 C443 1.477 . S
C442 H462 0.931 . S
C443 C439 1.460 . S
C443 C442 1.477 . S
C443 H463 0.930 . S
C444 N440 1.362 . S
C444 C441 1.431 . S
C444 C454 1.476 . S
H445 C439 0.929 . S
C446 O437 1.250 . S
C446 O438 1.258 . S
O447 Mn432 2.162 . S
O447 C435 1.281 . S
O448 Mn432 2.297 . S
O448 C435 1.236 . S
N449 Mn433 2.282 . S
N449 C450 1.328 . S
N449 C454 1.318 . S
C450 N449 1.328 . S
C450 C451 1.457 . S
C450 H455 0.929 . S
C451 C450 1.457 . S
C451 C452 1.291 . S
C451 H464 0.931 . S
C452 C451 1.291 . S
C452 C453 1.373 . S
C452 H465 0.929 . S
C453 C452 1.373 . S
C453 C454 1.396 . S
C453 C460 1.403 . S
C454 C444 1.476 . S
C454 N449 1.318 . S
C454 C453 1.396 . S
H455 C450 0.929 . S
O456 Mn432 2.385 . S
O456 C434 1.234 . S
O457 Mn432 2.209 . S
O457 Mn433 2.215 . S
O457 C434 1.283 . S
O458 Mn432 2.094 . S
O458 C436 1.240 . S
O459 Mn433 2.117 . S
O459 C436 1.264 . S
C460 C453 1.403 . S
C460 C461 1.399 . S
C460 H466 0.929 . S
C461 C441 1.449 . S
C461 C460 1.399 . S
C461 H467 0.930 . S
H462 C442 0.931 . S
H463 C443 0.930 . S
H464 C451 0.931 . S
H465 C452 0.929 . S
H466 C460 0.929 . S
H467 C461 0.930 . S
Mn468 O473 2.095 . S
Mn468 O483 2.162 . S
Mn468 O484 2.297 . S
Mn468 O492 2.385 . S
Mn468 O493 2.209 . S
Mn468 O494 2.094 . S
Mn469 O474 2.121 . S
Mn469 N476 2.257 1_455 S
Mn469 N485 2.282 . S
Mn469 O493 2.215 . S
Mn469 O495 2.117 . S
C470 O492 1.234 . S
C470 O493 1.283 . S
C471 O483 1.281 . S
C471 O484 1.236 . S
C472 O494 1.240 . S
C472 O495 1.264 . S
O473 Mn468 2.095 . S
O473 C482 1.250 . S
O474 Mn469 2.121 . S
O474 C482 1.258 . S
C475 N476 1.326 . S
C475 C479 1.460 . S
C475 H481 0.929 . S
N476 Mn469 2.257 1_655 S
N476 C475 1.326 . S
N476 C480 1.362 . S
C477 C478 1.258 . S
C477 C480 1.431 . S
C477 C497 1.449 . S
C478 C477 1.258 . S
C478 C479 1.477 . S
C478 H498 0.931 . S
C479 C475 1.460 . S
C479 C478 1.477 . S
C479 H499 0.930 . S
C480 N476 1.362 . S
C480 C477 1.431 . S
C480 C490 1.476 1_655 S
H481 C475 0.929 . S
C482 O473 1.250 . S
C482 O474 1.258 . S
O483 Mn468 2.162 . S
O483 C471 1.281 . S
O484 Mn468 2.297 . S
O484 C471 1.236 . S
N485 Mn469 2.282 . S
N485 C486 1.328 . S
N485 C490 1.318 . S
C486 N485 1.328 . S
C486 C487 1.457 . S
C486 H491 0.929 . S
C487 C486 1.457 . S
C487 C488 1.291 . S
C487 H500 0.931 . S
C488 C487 1.291 . S
C488 C489 1.373 . S
C488 H501 0.929 . S
C489 C488 1.373 . S
C489 C490 1.396 . S
C489 C496 1.403 . S
C490 C480 1.476 1_455 S
C490 N485 1.318 . S
C490 C489 1.396 . S
H491 C486 0.929 . S
O492 Mn468 2.385 . S
O492 C470 1.234 . S
O493 Mn468 2.209 . S
O493 Mn469 2.215 . S
O493 C470 1.283 . S
O494 Mn468 2.094 . S
O494 C472 1.240 . S
O495 Mn469 2.117 . S
O495 C472 1.264 . S
C496 C489 1.403 . S
C496 C497 1.399 1_455 S
C496 H502 0.929 . S
C497 C477 1.449 . S
C497 C496 1.399 1_655 S
C497 H503 0.930 . S
H498 C478 0.931 . S
H499 C479 0.930 . S
H500 C487 0.931 . S
H501 C488 0.929 . S
H502 C496 0.929 . S
H503 C497 0.930 . S
Mn504 O509 2.095 . S
Mn504 O519 2.162 . S
Mn504 O520 2.297 . S
Mn504 O528 2.385 . S
Mn504 O529 2.209 . S
Mn504 O530 2.094 . S
Mn505 O510 2.121 . S
Mn505 N512 2.257 1_655 S
Mn505 N521 2.282 . S
Mn505 O529 2.215 . S
Mn505 O531 2.117 . S
C506 O528 1.234 . S
C506 O529 1.283 . S
C507 O519 1.281 . S
C507 O520 1.236 . S
C508 O530 1.240 . S
C508 O531 1.264 . S
O509 Mn504 2.095 . S
O509 C518 1.250 . S
O510 Mn505 2.121 . S
O510 C518 1.258 . S
C511 N512 1.326 . S
C511 C515 1.460 . S
C511 H517 0.929 . S
N512 Mn505 2.257 1_455 S
N512 C511 1.326 . S
N512 C516 1.362 . S
C513 C514 1.258 . S
C513 C516 1.431 . S
C513 C533 1.449 . S
C514 C513 1.258 . S
C514 C515 1.477 . S
C514 H534 0.931 . S
C515 C511 1.460 . S
C515 C514 1.477 . S
C515 H535 0.930 . S
C516 N512 1.362 . S
C516 C513 1.431 . S
C516 C526 1.476 1_455 S
H517 C511 0.929 . S
C518 O509 1.250 . S
C518 O510 1.258 . S
O519 Mn504 2.162 . S
O519 C507 1.281 . S
O520 Mn504 2.297 . S
O520 C507 1.236 . S
N521 Mn505 2.282 . S
N521 C522 1.328 . S
N521 C526 1.318 . S
C522 N521 1.328 . S
C522 C523 1.457 . S
C522 H527 0.929 . S
C523 C522 1.457 . S
C523 C524 1.291 . S
C523 H536 0.931 . S
C524 C523 1.291 . S
C524 C525 1.373 . S
C524 H537 0.929 . S
C525 C524 1.373 . S
C525 C526 1.396 . S
C525 C532 1.403 . S
C526 C516 1.476 1_655 S
C526 N521 1.318 . S
C526 C525 1.396 . S
H527 C522 0.929 . S
O528 Mn504 2.385 . S
O528 C506 1.234 . S
O529 Mn504 2.209 . S
O529 Mn505 2.215 . S
O529 C506 1.283 . S
O530 Mn504 2.094 . S
O530 C508 1.240 . S
O531 Mn505 2.117 . S
O531 C508 1.264 . S
C532 C525 1.403 . S
C532 C533 1.399 1_655 S
C532 H538 0.929 . S
C533 C513 1.449 . S
C533 C532 1.399 1_455 S
C533 H539 0.930 . S
H534 C514 0.931 . S
H535 C515 0.930 . S
H536 C523 0.931 . S
H537 C524 0.929 . S
H538 C532 0.929 . S
H539 C533 0.930 . S
Mn540 O545 2.095 . S
Mn540 O555 2.162 . S
Mn540 O556 2.297 . S
Mn540 O564 2.385 . S
Mn540 O565 2.209 . S
Mn540 O566 2.094 . S
Mn541 O546 2.121 . S
Mn541 N548 2.257 . S
Mn541 N557 2.282 . S
Mn541 O565 2.215 . S
Mn541 O567 2.117 . S
C542 O564 1.234 . S
C542 O565 1.283 . S
C543 O555 1.281 . S
C543 O556 1.236 . S
C544 O566 1.240 . S
C544 O567 1.264 . S
O545 Mn540 2.095 . S
O545 C554 1.250 . S
O546 Mn541 2.121 . S
O546 C554 1.258 . S
C547 N548 1.326 . S
C547 C551 1.460 . S
C547 H553 0.929 . S
N548 Mn541 2.257 . S
N548 C547 1.326 . S
N548 C552 1.362 . S
C549 C550 1.258 . S
C549 C552 1.431 . S
C549 C569 1.449 . S
C550 C549 1.258 . S
C550 C551 1.477 . S
C550 H570 0.931 . S
C551 C547 1.460 . S
C551 C550 1.477 . S
C551 H571 0.930 . S
C552 N548 1.362 . S
C552 C549 1.431 . S
C552 C562 1.476 . S
H553 C547 0.929 . S
C554 O545 1.250 . S
C554 O546 1.258 . S
O555 Mn540 2.162 . S
O555 C543 1.281 . S
O556 Mn540 2.297 . S
O556 C543 1.236 . S
N557 Mn541 2.282 . S
N557 C558 1.328 . S
N557 C562 1.318 . S
C558 N557 1.328 . S
C558 C559 1.457 . S
C558 H563 0.929 . S
C559 C558 1.457 . S
C559 C560 1.291 . S
C559 H572 0.931 . S
C560 C559 1.291 . S
C560 C561 1.373 . S
C560 H573 0.929 . S
C561 C560 1.373 . S
C561 C562 1.396 . S
C561 C568 1.403 . S
C562 C552 1.476 . S
C562 N557 1.318 . S
C562 C561 1.396 . S
H563 C558 0.929 . S
O564 Mn540 2.385 . S
O564 C542 1.234 . S
O565 Mn540 2.209 . S
O565 Mn541 2.215 . S
O565 C542 1.283 . S
O566 Mn540 2.094 . S
O566 C544 1.240 . S
O567 Mn541 2.117 . S
O567 C544 1.264 . S
C568 C561 1.403 . S
C568 C569 1.399 . S
C568 H574 0.929 . S
C569 C549 1.449 . S
C569 C568 1.399 . S
C569 H575 0.930 . S
H570 C550 0.931 . S
H571 C551 0.930 . S
H572 C559 0.931 . S
H573 C560 0.929 . S
H574 C568 0.929 . S
H575 C569 0.930 . S
C576 C577 1.363 1_545 S
C576 C582 1.379 . S
C576 N584 1.356 . S
C577 C576 1.363 1_565 S
C577 C583 1.363 . S
C578 C579 1.363 1_565 S
C578 C583 1.379 . S
C578 N585 1.356 . S
C579 C578 1.363 1_545 S
C579 C582 1.363 . S
N580 C582 1.356 . S
N580 H592 0.984 . S
N580 H593 0.985 . S
N581 C583 1.356 . S
N581 H586 0.984 . S
N581 H587 0.985 . S
C582 C576 1.379 . S
C582 C579 1.363 . S
C582 N580 1.356 . S
C583 C577 1.363 . S
C583 C578 1.379 . S
C583 N581 1.356 . S
N584 C576 1.356 . S
N584 H590 0.984 . S
N584 H591 0.984 . S
N585 C578 1.356 . S
N585 H588 0.984 . S
N585 H589 0.985 . S
H586 N581 0.984 . S
H587 N581 0.985 . S
H588 N585 0.984 . S
H589 N585 0.985 . S
H590 N584 0.984 . S
H591 N584 0.984 . S
H592 N580 0.984 . S
H593 N580 0.985 . S
C594 C595 1.363 1_545 S
C594 C600 1.379 . S
C594 N602 1.356 . S
C595 C594 1.363 1_565 S
C595 C601 1.363 . S
C596 C597 1.363 1_565 S
C596 C601 1.379 . S
C596 N603 1.356 . S
C597 C596 1.363 1_545 S
C597 C600 1.363 . S
N598 C600 1.356 . S
N598 H610 0.984 . S
N598 H611 0.985 . S
N599 C601 1.356 . S
N599 H604 0.984 . S
N599 H605 0.985 . S
C600 C594 1.379 . S
C600 C597 1.363 . S
C600 N598 1.356 . S
C601 C595 1.363 . S
C601 C596 1.379 . S
C601 N599 1.356 . S
N602 C594 1.356 . S
N602 H608 0.984 . S
N602 H609 0.984 . S
N603 C596 1.356 . S
N603 H606 0.984 . S
N603 H607 0.985 . S
H604 N599 0.984 . S
H605 N599 0.985 . S
H606 N603 0.984 . S
H607 N603 0.985 . S
H608 N602 0.984 . S
H609 N602 0.984 . S
H610 N598 0.984 . S
H611 N598 0.985 . S
C612 C613 1.363 . S
C612 C618 1.379 . S
C612 N620 1.356 . S
C613 C612 1.363 . S
C613 C619 1.363 1_565 S
C614 C615 1.363 . S
C614 C619 1.379 . S
C614 N621 1.356 . S
C615 C614 1.363 . S
C615 C618 1.363 1_545 S
N616 C618 1.356 . S
N616 H628 0.984 . S
N616 H629 0.985 . S
N617 C619 1.356 . S
N617 H622 0.984 . S
N617 H623 0.985 . S
C618 C612 1.379 . S
C618 C615 1.363 1_565 S
C618 N616 1.356 . S
C619 C613 1.363 1_545 S
C619 C614 1.379 . S
C619 N617 1.356 . S
N620 C612 1.356 . S
N620 H626 0.984 . S
N620 H627 0.984 . S
N621 C614 1.356 . S
N621 H624 0.984 . S
N621 H625 0.985 . S
H622 N617 0.984 . S
H623 N617 0.985 . S
H624 N621 0.984 . S
H625 N621 0.985 . S
H626 N620 0.984 . S
H627 N620 0.984 . S
H628 N616 0.984 . S
H629 N616 0.985 . S
C630 C631 1.363 . S
C630 C636 1.379 . S
C630 N638 1.356 . S
C631 C630 1.363 . S
C631 C637 1.363 1_565 S
C632 C633 1.363 . S
C632 C637 1.379 . S
C632 N639 1.356 . S
C633 C632 1.363 . S
C633 C636 1.363 1_545 S
N634 C636 1.356 . S
N634 H646 0.984 . S
N634 H647 0.985 . S
N635 C637 1.356 . S
N635 H640 0.984 . S
N635 H641 0.985 . S
C636 C630 1.379 . S
C636 C633 1.363 1_565 S
C636 N634 1.356 . S
C637 C631 1.363 1_545 S
C637 C632 1.379 . S
C637 N635 1.356 . S
N638 C630 1.356 . S
N638 H644 0.984 . S
N638 H645 0.984 . S
N639 C632 1.356 . S
N639 H642 0.984 . S
N639 H643 0.985 . S
H640 N635 0.984 . S
H641 N635 0.985 . S
H642 N639 0.984 . S
H643 N639 0.985 . S
H644 N638 0.984 . S
H645 N638 0.984 . S
H646 N634 0.984 . S
H647 N634 0.985 . S
C648 C649 1.363 . S
C648 C654 1.379 . S
C648 N656 1.356 . S
C649 C648 1.363 . S
C649 C655 1.363 . S
C650 C651 1.363 . S
C650 C655 1.379 . S
C650 N657 1.356 . S
C651 C650 1.363 . S
C651 C654 1.363 . S
N652 C654 1.356 . S
N652 H664 0.984 . S
N652 H665 0.985 . S
N653 C655 1.356 . S
N653 H658 0.984 . S
N653 H659 0.985 . S
C654 C648 1.379 . S
C654 C651 1.363 . S
C654 N652 1.356 . S
C655 C649 1.363 . S
C655 C650 1.379 . S
C655 N653 1.356 . S
N656 C648 1.356 . S
N656 H662 0.984 . S
N656 H663 0.984 . S
N657 C650 1.356 . S
N657 H660 0.984 . S
N657 H661 0.985 . S
H658 N653 0.984 . S
H659 N653 0.985 . S
H660 N657 0.984 . S
H661 N657 0.985 . S
H662 N656 0.984 . S
H663 N656 0.984 . S
H664 N652 0.984 . S
H665 N652 0.985 . S
C666 C667 1.363 . S
C666 C672 1.379 . S
C666 N674 1.356 . S
C667 C666 1.363 . S
C667 C673 1.363 . S
C668 C669 1.363 . S
C668 C673 1.379 . S
C668 N675 1.356 . S
C669 C668 1.363 . S
C669 C672 1.363 . S
N670 C672 1.356 . S
N670 H682 0.984 . S
N670 H683 0.985 . S
N671 C673 1.356 . S
N671 H676 0.984 . S
N671 H677 0.985 . S
C672 C666 1.379 . S
C672 C669 1.363 . S
C672 N670 1.356 . S
C673 C667 1.363 . S
C673 C668 1.379 . S
C673 N671 1.356 . S
N674 C666 1.356 . S
N674 H680 0.984 . S
N674 H681 0.984 . S
N675 C668 1.356 . S
N675 H678 0.984 . S
N675 H679 0.985 . S
H676 N671 0.984 . S
H677 N671 0.985 . S
H678 N675 0.984 . S
H679 N675 0.985 . S
H680 N674 0.984 . S
H681 N674 0.984 . S
H682 N670 0.984 . S
H683 N670 0.985 . S
C684 C685 1.363 . S
C684 C690 1.379 . S
C684 N692 1.356 . S
C685 C684 1.363 . S
C685 C691 1.363 . S
C686 C687 1.363 . S
C686 C691 1.379 . S
C686 N693 1.356 . S
C687 C686 1.363 . S
C687 C690 1.363 . S
N688 C690 1.356 . S
N688 H700 0.984 . S
N688 H701 0.985 . S
N689 C691 1.356 . S
N689 H694 0.984 . S
N689 H695 0.985 . S
C690 C684 1.379 . S
C690 C687 1.363 . S
C690 N688 1.356 . S
C691 C685 1.363 . S
C691 C686 1.379 . S
C691 N689 1.356 . S
N692 C684 1.356 . S
N692 H698 0.984 . S
N692 H699 0.984 . S
N693 C686 1.356 . S
N693 H696 0.984 . S
N693 H697 0.985 . S
H694 N689 0.984 . S
H695 N689 0.985 . S
H696 N693 0.984 . S
H697 N693 0.985 . S
H698 N692 0.984 . S
H699 N692 0.984 . S
H700 N688 0.984 . S
H701 N688 0.985 . S
C702 C703 1.363 . S
C702 C708 1.379 . S
C702 N710 1.356 . S
C703 C702 1.363 . S
C703 C709 1.363 . S
C704 C705 1.363 . S
C704 C709 1.379 . S
C704 N711 1.356 . S
C705 C704 1.363 . S
C705 C708 1.363 . S
N706 C708 1.356 . S
N706 H718 0.984 . S
N706 H719 0.985 . S
N707 C709 1.356 . S
N707 H712 0.984 . S
N707 H713 0.985 . S
C708 C702 1.379 . S
C708 C705 1.363 . S
C708 N706 1.356 . S
C709 C703 1.363 . S
C709 C704 1.379 . S
C709 N707 1.356 . S
N710 C702 1.356 . S
N710 H716 0.984 . S
N710 H717 0.984 . S
N711 C704 1.356 . S
N711 H714 0.984 . S
N711 H715 0.985 . S
H712 N707 0.984 . S
H713 N707 0.985 . S
H714 N711 0.984 . S
H715 N711 0.985 . S
H716 N710 0.984 . S
H717 N710 0.984 . S
H718 N706 0.984 . S
H719 N706 0.985 . S
C720 C721 1.363 . S
C720 C726 1.379 . S
C720 N728 1.356 . S
C721 C720 1.363 . S
C721 C727 1.363 1_655 S
C722 C723 1.363 . S
C722 C727 1.379 . S
C722 N729 1.356 1_545 S
C723 C722 1.363 . S
C723 C726 1.363 1_455 S
N724 C726 1.356 . S
N724 H736 0.984 . S
N724 H737 0.985 . S
N725 C727 1.356 1_565 S
N725 H730 0.984 1_565 S
N725 H731 0.985 . S
C726 C720 1.379 . S
C726 C723 1.363 1_655 S
C726 N724 1.356 . S
C727 C721 1.363 1_455 S
C727 C722 1.379 . S
C727 N725 1.356 1_545 S
N728 C720 1.356 . S
N728 H734 0.984 . S
N728 H735 0.984 . S
N729 C722 1.356 1_565 S
N729 H732 0.984 1_565 S
N729 H733 0.985 . S
H730 N725 0.984 1_545 S
H731 N725 0.985 . S
H732 N729 0.984 1_545 S
H733 N729 0.985 . S
H734 N728 0.984 . S
H735 N728 0.984 . S
H736 N724 0.984 . S
H737 N724 0.985 . S
C738 C739 1.363 . S
C738 C744 1.379 . S
C738 N746 1.356 . S
C739 C738 1.363 . S
C739 C745 1.363 . S
C740 C741 1.363 . S
C740 C745 1.379 . S
C740 N747 1.356 1_565 S
C741 C740 1.363 . S
C741 C744 1.363 . S
N742 C744 1.356 . S
N742 H754 0.984 . S
N742 H755 0.985 . S
N743 C745 1.356 1_545 S
N743 H748 0.984 1_545 S
N743 H749 0.985 . S
C744 C738 1.379 . S
C744 C741 1.363 . S
C744 N742 1.356 . S
C745 C739 1.363 . S
C745 C740 1.379 . S
C745 N743 1.356 1_565 S
N746 C738 1.356 . S
N746 H752 0.984 . S
N746 H753 0.984 . S
N747 C740 1.356 1_545 S
N747 H750 0.984 1_545 S
N747 H751 0.985 . S
H748 N743 0.984 1_565 S
H749 N743 0.985 . S
H750 N747 0.984 1_565 S
H751 N747 0.985 . S
H752 N746 0.984 . S
H753 N746 0.984 . S
H754 N742 0.984 . S
H755 N742 0.985 . S
C756 C757 1.363 . S
C756 C762 1.379 . S
C756 N764 1.356 1_565 S
C757 C756 1.363 . S
C757 C763 1.363 1_455 S
C758 C759 1.363 . S
C758 C763 1.379 . S
C758 N765 1.356 . S
C759 C758 1.363 . S
C759 C762 1.363 1_655 S
N760 C762 1.356 1_545 S
N760 H772 0.984 . S
N760 H773 0.985 1_545 S
N761 C763 1.356 . S
N761 H766 0.984 . S
N761 H767 0.985 . S
C762 C756 1.379 . S
C762 C759 1.363 1_455 S
C762 N760 1.356 1_565 S
C763 C757 1.363 1_655 S
C763 C758 1.379 . S
C763 N761 1.356 . S
N764 C756 1.356 1_545 S
N764 H770 0.984 . S
N764 H771 0.984 1_545 S
N765 C758 1.356 . S
N765 H768 0.984 . S
N765 H769 0.985 . S
H766 N761 0.984 . S
H767 N761 0.985 . S
H768 N765 0.984 . S
H769 N765 0.985 . S
H770 N764 0.984 . S
H771 N764 0.984 1_565 S
H772 N760 0.984 . S
H773 N760 0.985 1_565 S
C774 C775 1.363 . S
C774 C780 1.379 . S
C774 N782 1.356 1_545 S
C775 C774 1.363 . S
C775 C781 1.363 . S
C776 C777 1.363 . S
C776 C781 1.379 . S
C776 N783 1.356 . S
C777 C776 1.363 . S
C777 C780 1.363 . S
N778 C780 1.356 1_565 S
N778 H790 0.984 . S
N778 H791 0.985 1_565 S
N779 C781 1.356 . S
N779 H784 0.984 . S
N779 H785 0.985 . S
C780 C774 1.379 . S
C780 C777 1.363 . S
C780 N778 1.356 1_545 S
C781 C775 1.363 . S
C781 C776 1.379 . S
C781 N779 1.356 . S
N782 C774 1.356 1_565 S
N782 H788 0.984 . S
N782 H789 0.984 1_565 S
N783 C776 1.356 . S
N783 H786 0.984 . S
N783 H787 0.985 . S
H784 N779 0.984 . S
H785 N779 0.985 . S
H786 N783 0.984 . S
H787 N783 0.985 . S
H788 N782 0.984 . S
H789 N782 0.984 1_545 S
H790 N778 0.984 . S
H791 N778 0.985 1_545 S
C792 C793 1.363 . S
C792 C798 1.379 . S
C792 N800 1.356 . S
C793 C792 1.363 . S
C793 C799 1.363 . S
C794 C795 1.363 . S
C794 C799 1.379 . S
C794 N801 1.356 . S
C795 C794 1.363 . S
C795 C798 1.363 . S
N796 C798 1.356 . S
N796 H808 0.984 . S
N796 H809 0.985 . S
N797 C799 1.356 . S
N797 H802 0.984 . S
N797 H803 0.985 . S
C798 C792 1.379 . S
C798 C795 1.363 . S
C798 N796 1.356 . S
C799 C793 1.363 . S
C799 C794 1.379 . S
C799 N797 1.356 . S
N800 C792 1.356 . S
N800 H806 0.984 . S
N800 H807 0.984 . S
N801 C794 1.356 . S
N801 H804 0.984 . S
N801 H805 0.985 . S
H802 N797 0.984 . S
H803 N797 0.985 . S
H804 N801 0.984 . S
H805 N801 0.985 . S
H806 N800 0.984 . S
H807 N800 0.984 . S
H808 N796 0.984 . S
H809 N796 0.985 . S
C810 C811 1.363 1_655 S
C810 C816 1.379 . S
C810 N818 1.356 . S
C811 C810 1.363 1_455 S
C811 C817 1.363 . S
C812 C813 1.363 1_455 S
C812 C817 1.379 . S
C812 N819 1.356 . S
C813 C812 1.363 1_655 S
C813 C816 1.363 . S
N814 C816 1.356 . S
N814 H826 0.984 . S
N814 H827 0.985 . S
N815 C817 1.356 . S
N815 H820 0.984 . S
N815 H821 0.985 . S
C816 C810 1.379 . S
C816 C813 1.363 . S
C816 N814 1.356 . S
C817 C811 1.363 . S
C817 C812 1.379 . S
C817 N815 1.356 . S
N818 C810 1.356 . S
N818 H824 0.984 . S
N818 H825 0.984 . S
N819 C812 1.356 . S
N819 H822 0.984 . S
N819 H823 0.985 . S
H820 N815 0.984 . S
H821 N815 0.985 . S
H822 N819 0.984 . S
H823 N819 0.985 . S
H824 N818 0.984 . S
H825 N818 0.984 . S
H826 N814 0.984 . S
H827 N814 0.985 . S
C828 C829 1.363 . S
C828 C834 1.379 . S
C828 N836 1.356 . S
C829 C828 1.363 . S
C829 C835 1.363 . S
C830 C831 1.363 . S
C830 C835 1.379 . S
C830 N837 1.356 . S
C831 C830 1.363 . S
C831 C834 1.363 . S
N832 C834 1.356 . S
N832 H844 0.984 . S
N832 H845 0.985 . S
N833 C835 1.356 . S
N833 H838 0.984 . S
N833 H839 0.985 . S
C834 C828 1.379 . S
C834 C831 1.363 . S
C834 N832 1.356 . S
C835 C829 1.363 . S
C835 C830 1.379 . S
C835 N833 1.356 . S
N836 C828 1.356 . S
N836 H842 0.984 . S
N836 H843 0.984 . S
N837 C830 1.356 . S
N837 H840 0.984 . S
N837 H841 0.985 . S
H838 N833 0.984 . S
H839 N833 0.985 . S
H840 N837 0.984 . S
H841 N837 0.985 . S
H842 N836 0.984 . S
H843 N836 0.984 . S
H844 N832 0.984 . S
H845 N832 0.985 . S
C846 C847 1.363 1_655 S
C846 C852 1.379 . S
C846 N854 1.356 . S
C847 C846 1.363 1_455 S
C847 C853 1.363 . S
C848 C849 1.363 1_455 S
C848 C853 1.379 . S
C848 N855 1.356 . S
C849 C848 1.363 1_655 S
C849 C852 1.363 . S
N850 C852 1.356 . S
N850 H862 0.984 . S
N850 H863 0.985 . S
N851 C853 1.356 . S
N851 H856 0.984 . S
N851 H857 0.985 . S
C852 C846 1.379 . S
C852 C849 1.363 . S
C852 N850 1.356 . S
C853 C847 1.363 . S
C853 C848 1.379 . S
C853 N851 1.356 . S
N854 C846 1.356 . S
N854 H860 0.984 . S
N854 H861 0.984 . S
N855 C848 1.356 . S
N855 H858 0.984 . S
N855 H859 0.985 . S
H856 N851 0.984 . S
H857 N851 0.985 . S
H858 N855 0.984 . S
H859 N855 0.985 . S
H860 N854 0.984 . S
H861 N854 0.984 . S
H862 N850 0.984 . S
H863 N850 0.985 . S
C864 C865 1.363 . S
C864 C870 1.379 . S
C864 N872 1.356 . S
C865 C864 1.363 . S
C865 C871 1.363 1_455 S
C866 C867 1.363 . S
C866 C871 1.379 . S
C866 N873 1.356 . S
C867 C866 1.363 . S
C867 C870 1.363 1_655 S
N868 C870 1.356 . S
N868 H880 0.984 . S
N868 H881 0.985 . S
N869 C871 1.356 . S
N869 H874 0.984 . S
N869 H875 0.985 . S
C870 C864 1.379 . S
C870 C867 1.363 1_455 S
C870 N868 1.356 . S
C871 C865 1.363 1_655 S
C871 C866 1.379 . S
C871 N869 1.356 . S
N872 C864 1.356 . S
N872 H878 0.984 . S
N872 H879 0.984 . S
N873 C866 1.356 . S
N873 H876 0.984 . S
N873 H877 0.985 . S
H874 N869 0.984 . S
H875 N869 0.985 . S
H876 N873 0.984 . S
H877 N873 0.985 . S
H878 N872 0.984 . S
H879 N872 0.984 . S
H880 N868 0.984 . S
H881 N868 0.985 . S
C882 C883 1.363 . S
C882 C888 1.379 . S
C882 N890 1.356 . S
C883 C882 1.363 . S
C883 C889 1.363 . S
C884 C885 1.363 . S
C884 C889 1.379 . S
C884 N891 1.356 . S
C885 C884 1.363 . S
C885 C888 1.363 . S
N886 C888 1.356 . S
N886 H898 0.984 . S
N886 H899 0.985 . S
N887 C889 1.356 . S
N887 H892 0.984 . S
N887 H893 0.985 . S
C888 C882 1.379 . S
C888 C885 1.363 . S
C888 N886 1.356 . S
C889 C883 1.363 . S
C889 C884 1.379 . S
C889 N887 1.356 . S
N890 C882 1.356 . S
N890 H896 0.984 . S
N890 H897 0.984 . S
N891 C884 1.356 . S
N891 H894 0.984 . S
N891 H895 0.985 . S
H892 N887 0.984 . S
H893 N887 0.985 . S
H894 N891 0.984 . S
H895 N891 0.985 . S
H896 N890 0.984 . S
H897 N890 0.984 . S
H898 N886 0.984 . S
H899 N886 0.985 . S
C900 C901 1.363 . S
C900 C906 1.379 . S
C900 N908 1.356 . S
C901 C900 1.363 . S
C901 C907 1.363 . S
C902 C903 1.363 . S
C902 C907 1.379 . S
C902 N909 1.356 . S
C903 C902 1.363 . S
C903 C906 1.363 . S
N904 C906 1.356 . S
N904 H916 0.984 . S
N904 H917 0.985 . S
N905 C907 1.356 . S
N905 H910 0.984 . S
N905 H911 0.985 . S
C906 C900 1.379 . S
C906 C903 1.363 . S
C906 N904 1.356 . S
C907 C901 1.363 . S
C907 C902 1.379 . S
C907 N905 1.356 . S
N908 C900 1.356 . S
N908 H914 0.984 . S
N908 H915 0.984 . S
N909 C902 1.356 . S
N909 H912 0.984 . S
N909 H913 0.985 . S
H910 N905 0.984 . S
H911 N905 0.985 . S
H912 N909 0.984 . S
H913 N909 0.985 . S
H914 N908 0.984 . S
H915 N908 0.984 . S
H916 N904 0.984 . S
H917 N904 0.985 . S
C918 C919 1.363 . S
C918 C924 1.379 . S
C918 N926 1.356 . S
C919 C918 1.363 . S
C919 C925 1.363 1_455 S
C920 C921 1.363 . S
C920 C925 1.379 . S
C920 N927 1.356 . S
C921 C920 1.363 . S
C921 C924 1.363 1_655 S
N922 C924 1.356 . S
N922 H934 0.984 . S
N922 H935 0.985 . S
N923 C925 1.356 . S
N923 H928 0.984 . S
N923 H929 0.985 . S
C924 C918 1.379 . S
C924 C921 1.363 1_455 S
C924 N922 1.356 . S
C925 C919 1.363 1_655 S
C925 C920 1.379 . S
C925 N923 1.356 . S
N926 C918 1.356 . S
N926 H932 0.984 . S
N926 H933 0.984 . S
N927 C920 1.356 . S
N927 H930 0.984 . S
N927 H931 0.985 . S
H928 N923 0.984 . S
H929 N923 0.985 . S
H930 N927 0.984 . S
H931 N927 0.985 . S
H932 N926 0.984 . S
H933 N926 0.984 . S
H934 N922 0.984 . S
H935 N922 0.985 . S
C936 C937 1.363 1_655 S
C936 C942 1.379 . S
C936 N944 1.356 . S
C937 C936 1.363 1_455 S
C937 C943 1.363 . S
C938 C939 1.363 1_455 S
C938 C943 1.379 . S
C938 N945 1.356 . S
C939 C938 1.363 1_655 S
C939 C942 1.363 . S
N940 C942 1.356 . S
N940 H952 0.984 . S
N940 H953 0.985 . S
N941 C943 1.356 . S
N941 H946 0.984 . S
N941 H947 0.985 . S
C942 C936 1.379 . S
C942 C939 1.363 . S
C942 N940 1.356 . S
C943 C937 1.363 . S
C943 C938 1.379 . S
C943 N941 1.356 . S
N944 C936 1.356 . S
N944 H950 0.984 . S
N944 H951 0.984 . S
N945 C938 1.356 . S
N945 H948 0.984 . S
N945 H949 0.985 . S
H946 N941 0.984 . S
H947 N941 0.985 . S
H948 N945 0.984 . S
H949 N945 0.985 . S
H950 N944 0.984 . S
H951 N944 0.984 . S
H952 N940 0.984 . S
H953 N940 0.985 . S
C954 C955 1.363 . S
C954 C960 1.379 . S
C954 N962 1.356 . S
C955 C954 1.363 . S
C955 C961 1.363 . S
C956 C957 1.363 . S
C956 C961 1.379 . S
C956 N963 1.356 . S
C957 C956 1.363 . S
C957 C960 1.363 . S
N958 C960 1.356 . S
N958 H970 0.984 . S
N958 H971 0.985 . S
N959 C961 1.356 . S
N959 H964 0.984 . S
N959 H965 0.985 . S
C960 C954 1.379 . S
C960 C957 1.363 . S
C960 N958 1.356 . S
C961 C955 1.363 . S
C961 C956 1.379 . S
C961 N959 1.356 . S
N962 C954 1.356 . S
N962 H968 0.984 . S
N962 H969 0.984 . S
N963 C956 1.356 . S
N963 H966 0.984 . S
N963 H967 0.985 . S
H964 N959 0.984 . S
H965 N959 0.985 . S
H966 N963 0.984 . S
H967 N963 0.985 . S
H968 N962 0.984 . S
H969 N962 0.984 . S
H970 N958 0.984 . S
H971 N958 0.985 . S
C972 C973 1.363 . S
C972 C978 1.379 . S
C972 N980 1.356 . S
C973 C972 1.363 . S
C973 C979 1.363 . S
C974 C975 1.363 . S
C974 C979 1.379 . S
C974 N981 1.356 . S
C975 C974 1.363 . S
C975 C978 1.363 . S
N976 C978 1.356 . S
N976 H988 0.984 . S
N976 H989 0.985 . S
N977 C979 1.356 . S
N977 H982 0.984 . S
N977 H983 0.985 . S
C978 C972 1.379 . S
C978 C975 1.363 . S
C978 N976 1.356 . S
C979 C973 1.363 . S
C979 C974 1.379 . S
C979 N977 1.356 . S
N980 C972 1.356 . S
N980 H986 0.984 . S
N980 H987 0.984 . S
N981 C974 1.356 . S
N981 H984 0.984 . S
N981 H985 0.985 . S
H982 N977 0.984 . S
H983 N977 0.985 . S
H984 N981 0.984 . S
H985 N981 0.985 . S
H986 N980 0.984 . S
H987 N980 0.984 . S
H988 N976 0.984 . S
H989 N976 0.985 . S
C990 C991 1.363 1_655 S
C990 C996 1.379 . S
C990 N998 1.356 . S
C991 C990 1.363 1_455 S
C991 C997 1.363 . S
C992 C993 1.363 1_455 S
C992 C997 1.379 . S
C992 N999 1.356 . S
C993 C992 1.363 1_655 S
C993 C996 1.363 . S
N994 C996 1.356 . S
N994 H1006 0.984 . S
N994 H1007 0.985 . S
N995 C997 1.356 . S
N995 H1000 0.984 . S
N995 H1001 0.985 . S
C996 C990 1.379 . S
C996 C993 1.363 . S
C996 N994 1.356 . S
C997 C991 1.363 . S
C997 C992 1.379 . S
C997 N995 1.356 . S
N998 C990 1.356 . S
N998 H1004 0.984 . S
N998 H1005 0.984 . S
N999 C992 1.356 . S
N999 H1002 0.984 . S
N999 H1003 0.985 . S
H1000 N995 0.984 . S
H1001 N995 0.985 . S
H1002 N999 0.984 . S
H1003 N999 0.985 . S
H1004 N998 0.984 . S
H1005 N998 0.984 . S
H1006 N994 0.984 . S
H1007 N994 0.985 . S
C1008 C1009 1.363 . S
C1008 C1014 1.379 1_556 S
C1008 N1016 1.356 . S
C1009 C1008 1.363 . S
C1009 C1015 1.363 1_665 S
C1010 C1011 1.363 . S
C1010 C1015 1.379 1_554 S
C1010 N1017 1.356 . S
C1011 C1010 1.363 . S
C1011 C1014 1.363 1_445 S
N1012 C1014 1.356 . S
N1012 H1024 0.984 . S
N1012 H1025 0.985 . S
N1013 C1015 1.356 . S
N1013 H1018 0.984 . S
N1013 H1019 0.985 . S
C1014 C1008 1.379 1_554 S
C1014 C1011 1.363 1_665 S
C1014 N1012 1.356 . S
C1015 C1009 1.363 1_445 S
C1015 C1010 1.379 1_556 S
C1015 N1013 1.356 . S
N1016 C1008 1.356 . S
N1016 H1022 0.984 . S
N1016 H1023 0.984 . S
N1017 C1010 1.356 . S
N1017 H1020 0.984 . S
N1017 H1021 0.985 . S
H1018 N1013 0.984 . S
H1019 N1013 0.985 . S
H1020 N1017 0.984 . S
H1021 N1017 0.985 . S
H1022 N1016 0.984 . S
H1023 N1016 0.984 . S
H1024 N1012 0.984 . S
H1025 N1012 0.985 . S
C1026 C1027 1.363 1_565 S
C1026 C1032 1.379 1_556 S
C1026 N1034 1.356 . S
C1027 C1026 1.363 1_545 S
C1027 C1033 1.363 . S
C1028 C1029 1.363 1_545 S
C1028 C1033 1.379 1_554 S
C1028 N1035 1.356 . S
C1029 C1028 1.363 1_565 S
C1029 C1032 1.363 . S
N1030 C1032 1.356 . S
N1030 H1042 0.984 . S
N1030 H1043 0.985 . S
N1031 C1033 1.356 . S
N1031 H1036 0.984 . S
N1031 H1037 0.985 . S
C1032 C1026 1.379 1_554 S
C1032 C1029 1.363 . S
C1032 N1030 1.356 . S
C1033 C1027 1.363 . S
C1033 C1028 1.379 1_556 S
C1033 N1031 1.356 . S
N1034 C1026 1.356 . S
N1034 H1040 0.984 . S
N1034 H1041 0.984 . S
N1035 C1028 1.356 . S
N1035 H1038 0.984 . S
N1035 H1039 0.985 . S
H1036 N1031 0.984 . S
H1037 N1031 0.985 . S
H1038 N1035 0.984 . S
H1039 N1035 0.985 . S
H1040 N1034 0.984 . S
H1041 N1034 0.984 . S
H1042 N1030 0.984 . S
H1043 N1030 0.985 . S
C1044 C1045 1.363 . S
C1044 C1050 1.379 . S
C1044 N1052 1.356 . S
C1045 C1044 1.363 . S
C1045 C1051 1.363 1_545 S
C1046 C1047 1.363 . S
C1046 C1051 1.379 . S
C1046 N1053 1.356 . S
C1047 C1046 1.363 . S
C1047 C1050 1.363 1_565 S
N1048 C1050 1.356 . S
N1048 H1060 0.984 . S
N1048 H1061 0.985 . S
N1049 C1051 1.356 . S
N1049 H1054 0.984 . S
N1049 H1055 0.985 . S
C1050 C1044 1.379 . S
C1050 C1047 1.363 1_545 S
C1050 N1048 1.356 . S
C1051 C1045 1.363 1_565 S
C1051 C1046 1.379 . S
C1051 N1049 1.356 . S
N1052 C1044 1.356 . S
N1052 H1058 0.984 . S
N1052 H1059 0.984 . S
N1053 C1046 1.356 . S
N1053 H1056 0.984 . S
N1053 H1057 0.985 . S
H1054 N1049 0.984 . S
H1055 N1049 0.985 . S
H1056 N1053 0.984 . S
H1057 N1053 0.985 . S
H1058 N1052 0.984 . S
H1059 N1052 0.984 . S
H1060 N1048 0.984 . S
H1061 N1048 0.985 . S
C1062 C1063 1.363 1_645 S
C1062 C1068 1.379 . S
C1062 N1070 1.356 . S
C1063 C1062 1.363 1_465 S
C1063 C1069 1.363 . S
C1064 C1065 1.363 1_465 S
C1064 C1069 1.379 . S
C1064 N1071 1.356 . S
C1065 C1064 1.363 1_645 S
C1065 C1068 1.363 . S
N1066 C1068 1.356 . S
N1066 H1078 0.984 . S
N1066 H1079 0.985 . S
N1067 C1069 1.356 . S
N1067 H1072 0.984 . S
N1067 H1073 0.985 . S
C1068 C1062 1.379 . S
C1068 C1065 1.363 . S
C1068 N1066 1.356 . S
C1069 C1063 1.363 . S
C1069 C1064 1.379 . S
C1069 N1067 1.356 . S
N1070 C1062 1.356 . S
N1070 H1076 0.984 . S
N1070 H1077 0.984 . S
N1071 C1064 1.356 . S
N1071 H1074 0.984 . S
N1071 H1075 0.985 . S
H1072 N1067 0.984 . S
H1073 N1067 0.985 . S
H1074 N1071 0.984 . S
H1075 N1071 0.985 . S
H1076 N1070 0.984 . S
H1077 N1070 0.984 . S
H1078 N1066 0.984 . S
H1079 N1066 0.985 . S
C1080 C1081 1.363 . S
C1080 C1086 1.379 1_554 S
C1080 N1088 1.356 . S
C1081 C1080 1.363 . S
C1081 C1087 1.363 . S
C1082 C1083 1.363 . S
C1082 C1087 1.379 1_556 S
C1082 N1089 1.356 . S
C1083 C1082 1.363 . S
C1083 C1086 1.363 . S
N1084 C1086 1.356 . S
N1084 H1096 0.984 . S
N1084 H1097 0.985 . S
N1085 C1087 1.356 . S
N1085 H1090 0.984 . S
N1085 H1091 0.985 . S
C1086 C1080 1.379 1_556 S
C1086 C1083 1.363 . S
C1086 N1084 1.356 . S
C1087 C1081 1.363 . S
C1087 C1082 1.379 1_554 S
C1087 N1085 1.356 . S
N1088 C1080 1.356 . S
N1088 H1094 0.984 . S
N1088 H1095 0.984 . S
N1089 C1082 1.356 . S
N1089 H1092 0.984 . S
N1089 H1093 0.985 . S
H1090 N1085 0.984 . S
H1091 N1085 0.985 . S
H1092 N1089 0.984 . S
H1093 N1089 0.985 . S
H1094 N1088 0.984 . S
H1095 N1088 0.984 . S
H1096 N1084 0.984 . S
H1097 N1084 0.985 . S
C1098 C1099 1.363 . S
C1098 C1104 1.379 1_554 S
C1098 N1106 1.356 . S
C1099 C1098 1.363 . S
C1099 C1105 1.363 1_655 S
C1100 C1101 1.363 . S
C1100 C1105 1.379 1_556 S
C1100 N1107 1.356 . S
C1101 C1100 1.363 . S
C1101 C1104 1.363 1_455 S
N1102 C1104 1.356 . S
N1102 H1114 0.984 . S
N1102 H1115 0.985 . S
N1103 C1105 1.356 . S
N1103 H1108 0.984 . S
N1103 H1109 0.985 . S
C1104 C1098 1.379 1_556 S
C1104 C1101 1.363 1_655 S
C1104 N1102 1.356 . S
C1105 C1099 1.363 1_455 S
C1105 C1100 1.379 1_554 S
C1105 N1103 1.356 . S
N1106 C1098 1.356 . S
N1106 H1112 0.984 . S
N1106 H1113 0.984 . S
N1107 C1100 1.356 . S
N1107 H1110 0.984 . S
N1107 H1111 0.985 . S
H1108 N1103 0.984 . S
H1109 N1103 0.985 . S
H1110 N1107 0.984 . S
H1111 N1107 0.985 . S
H1112 N1106 0.984 . S
H1113 N1106 0.984 . S
H1114 N1102 0.984 . S
H1115 N1102 0.985 . S
C1116 C1117 1.363 1_455 S
C1116 C1122 1.379 . S
C1116 N1124 1.356 . S
C1117 C1116 1.363 1_655 S
C1117 C1123 1.363 . S
C1118 C1119 1.363 1_655 S
C1118 C1123 1.379 . S
C1118 N1125 1.356 . S
C1119 C1118 1.363 1_455 S
C1119 C1122 1.363 . S
N1120 C1122 1.356 . S
N1120 H1132 0.984 . S
N1120 H1133 0.985 . S
N1121 C1123 1.356 . S
N1121 H1126 0.984 . S
N1121 H1127 0.985 . S
C1122 C1116 1.379 . S
C1122 C1119 1.363 . S
C1122 N1120 1.356 . S
C1123 C1117 1.363 . S
C1123 C1118 1.379 . S
C1123 N1121 1.356 . S
N1124 C1116 1.356 . S
N1124 H1130 0.984 . S
N1124 H1131 0.984 1_455 S
N1125 C1118 1.356 . S
N1125 H1128 0.984 1_655 S
N1125 H1129 0.985 . S
H1126 N1121 0.984 . S
H1127 N1121 0.985 . S
H1128 N1125 0.984 1_455 S
H1129 N1125 0.985 . S
H1130 N1124 0.984 . S
H1131 N1124 0.984 1_655 S
H1132 N1120 0.984 . S
H1133 N1120 0.985 . S
C1134 C1135 1.363 . S
C1134 C1140 1.379 . S
C1134 N1142 1.356 . S
C1135 C1134 1.363 . S
C1135 C1141 1.363 . S
C1136 C1137 1.363 . S
C1136 C1141 1.379 . S
C1136 N1143 1.356 . S
C1137 C1136 1.363 . S
C1137 C1140 1.363 . S
N1138 C1140 1.356 . S
N1138 H1150 0.984 . S
N1138 H1151 0.985 . S
N1139 C1141 1.356 . S
N1139 H1144 0.984 . S
N1139 H1145 0.985 . S
C1140 C1134 1.379 . S
C1140 C1137 1.363 . S
C1140 N1138 1.356 . S
C1141 C1135 1.363 . S
C1141 C1136 1.379 . S
C1141 N1139 1.356 . S
N1142 C1134 1.356 . S
N1142 H1148 0.984 . S
N1142 H1149 0.984 . S
N1143 C1136 1.356 . S
N1143 H1146 0.984 . S
N1143 H1147 0.985 . S
H1144 N1139 0.984 . S
H1145 N1139 0.985 . S
H1146 N1143 0.984 . S
H1147 N1143 0.985 . S
H1148 N1142 0.984 . S
H1149 N1142 0.984 . S
H1150 N1138 0.984 . S
H1151 N1138 0.985 . S
C577 C40 1.502 . S
C579 C4 1.502 . S
C595 C76 1.502 . S
C597 C112 1.502 . S
C613 C148 1.502 . S
C615 C184 1.502 . S
C631 C256 1.502 . S
C633 C220 1.502 . S
C649 C328 1.502 . S
C651 C292 1.502 . S
C667 C400 1.502 . S
C669 C364 1.502 . S
C685 C472 1.502 . S
C687 C436 1.502 . S
C703 C544 1.502 . S
C705 C508 1.502 . S
C721 C110 1.369 . S
C723 C2 1.369 . S
C739 C38 1.369 . S
C741 C74 1.369 . S
C757 C254 1.369 . S
C759 C146 1.369 . S
C775 C218 1.369 . S
C777 C182 1.369 . S
C793 C290 1.369 . S
C795 C398 1.369 . S
C811 C362 1.369 . S
C813 C326 1.369 . S
C829 C542 1.369 . S
C831 C434 1.369 . S
C847 C470 1.369 . S
C849 C506 1.369 . S
C865 C3 1.510 . S
C867 C327 1.510 . S
C883 C39 1.510 . S
C885 C291 1.510 . S
C901 C399 1.510 . S
C903 C75 1.510 . S
C919 C363 1.510 . S
C921 C111 1.510 . S
C937 C471 1.510 . S
C939 C147 1.510 . S
C955 C435 1.510 . S
C957 C183 1.510 . S
C973 C219 1.510 . S
C975 C543 1.510 . S
C991 C255 1.510 . S
C993 C507 1.510 . S
C1009 C158 1.326 . S
C1011 C14 1.326 . S
C1027 C194 1.326 . S
C1029 C50 1.326 . S
C1045 C230 1.326 . S
C1047 C86 1.326 . S
C1063 C266 1.326 . S
C1065 C122 1.326 . S
C1081 C302 1.326 . S
C1083 C446 1.326 . S
C1099 C338 1.326 . S
C1101 C482 1.326 . S
C1117 C518 1.326 . S
C1119 C374 1.326 . S
C1135 C554 1.326 . S
C1137 C410 1.326 . S
