# Generated by pormake.
# Topology crb, (4)-cn, num edge types: 1
# Building blocks:
#     Node 0, Type 0, BuildingBlock: QUQFOY_clean_sbu_3, # of connection points: 4
#     Node 1, Type 0, BuildingBlock: QUQFOY_clean_sbu_3, # of connection points: 4
#     Node 2, Type 0, BuildingBlock: QUQFOY_clean_sbu_3, # of connection points: 4
#     Node 3, Type 0, BuildingBlock: QUQFOY_clean_sbu_3, # of connection points: 4
#     Node 4, Type 0, BuildingBlock: QUQFOY_clean_sbu_3, # of connection points: 4
#     Node 5, Type 0, BuildingBlock: QUQFOY_clean_sbu_3, # of connection points: 4
#     Node 6, Type 0, BuildingBlock: QUQFOY_clean_sbu_3, # of connection points: 4
#     Node 7, Type 0, BuildingBlock: QUQFOY_clean_sbu_3, # of connection points: 4
#     Edge 8, Type (0, 0), BuildingBlock: EZIPEK_clean_linker_0, # of connection points: 2
#     Edge 9, Type (0, 0), BuildingBlock: EZIPEK_clean_linker_0, # of connection points: 2
#     Edge 10, Type (0, 0), BuildingBlock: EZIPEK_clean_linker_0, # of connection points: 2
#     Edge 11, Type (0, 0), BuildingBlock: EZIPEK_clean_linker_0, # of connection points: 2
#     Edge 12, Type (0, 0), BuildingBlock: EZIPEK_clean_linker_0, # of connection points: 2
#     Edge 13, Type (0, 0), BuildingBlock: EZIPEK_clean_linker_0, # of connection points: 2
#     Edge 14, Type (0, 0), BuildingBlock: EZIPEK_clean_linker_0, # of connection points: 2
#     Edge 15, Type (0, 0), BuildingBlock: EZIPEK_clean_linker_0, # of connection points: 2
#     Edge 16, Type (0, 0), BuildingBlock: EZIPEK_clean_linker_0, # of connection points: 2
#     Edge 17, Type (0, 0), BuildingBlock: EZIPEK_clean_linker_0, # of connection points: 2
#     Edge 18, Type (0, 0), BuildingBlock: EZIPEK_clean_linker_0, # of connection points: 2
#     Edge 19, Type (0, 0), BuildingBlock: EZIPEK_clean_linker_0, # of connection points: 2
#     Edge 20, Type (0, 0), BuildingBlock: EZIPEK_clean_linker_0, # of connection points: 2
#     Edge 21, Type (0, 0), BuildingBlock: EZIPEK_clean_linker_0, # of connection points: 2
#     Edge 22, Type (0, 0), BuildingBlock: EZIPEK_clean_linker_0, # of connection points: 2
#     Edge 23, Type (0, 0), BuildingBlock: EZIPEK_clean_linker_0, # of connection points: 2
# Relax obj value: 0.113
# Max RMSD: 0.155
# Mean RMSD: 0.155
data_MOF--net-crb--node1-QUQFOY_clean_sbu_3--edge1-EZIPEK_clean_linker_0
_symmetry_space_group_name_H-M    P1
_symmetry_Int_Tables_number       1
_symmetry_cell_setting            triclinic
loop_
_symmetry_equiv_pos_as_xyz
'x, y, z'
_cell_length_a     33.50956
_cell_length_b     33.097754
_cell_length_c     18.274296
_cell_angle_alpha  90.087493
_cell_angle_beta   89.943799
_cell_angle_gamma 90.098826
loop_
_atom_site_label
_atom_site_type_symbol
_atom_site_fract_x
_atom_site_fract_y
_atom_site_fract_z
_atom_type_partial_charge
C0 C 0.40436 0.30831 0.05744 0.0
O1 O 0.39425 0.31693 0.12258 0.0
Cd2 Cd 0.32639 0.32584 0.15941 0.0
O3 O 0.37857 0.30293 0.0072 0.0
Cd4 Cd 0.30544 0.3015 -0.00908 0.0
C5 C 0.30183 0.40051 0.03725 0.0
O6 O 0.29406 0.26884 0.10535 0.0
O7 O 0.24037 0.2848 0.04733 0.0
O8 O 0.31708 0.24632 0.90514 0.0
C9 C 0.25639 0.26817 0.10232 0.0
O10 O 0.30945 0.39041 0.10292 0.0
C11 C 0.2938 0.26046 0.8568 0.0
O12 O 0.29931 0.37439 -0.0136 0.0
O13 O 0.27735 0.29424 0.86979 0.0
C14 C 0.57026 0.30769 0.97716 0.0
O15 O 0.58099 0.3152 0.91192 0.0
Cd16 Cd 0.64876 0.32608 0.87523 0.0
O17 O 0.59551 0.30494 0.02889 0.0
Cd18 Cd 0.66817 0.31071 0.046 0.0
C19 C 0.66919 0.40719 -0.0153 0.0
O20 O 0.68652 0.27526 0.93722 0.0
O21 O 0.73542 0.30513 -0.00735 0.0
O22 O 0.67821 0.25706 0.13466 0.0
C23 C 0.72362 0.28181 0.94196 0.0
O24 O 0.66292 0.39431 0.92006 0.0
C25 C 0.68565 0.28089 0.18745 0.0
O26 O 0.67127 0.38328 0.03883 0.0
O27 O 0.68292 0.31846 0.17493 0.0
C28 C 0.57027 0.67043 0.07329 0.0
O29 O 0.58337 0.66622 0.138 0.0
Cd30 Cd 0.65268 0.65665 0.16295 0.0
O31 O 0.59387 0.67323 0.0188 0.0
Cd32 Cd 0.6659 0.67538 -0.01033 0.0
C33 C 0.67042 0.5783 0.04193 0.0
O34 O 0.68451 0.71042 0.0985 0.0
O35 O 0.73423 0.68713 0.03656 0.0
O36 O 0.65064 0.72905 0.90314 0.0
C37 C 0.72185 0.70755 0.09063 0.0
O38 O 0.66619 0.59047 0.10767 0.0
C39 C 0.67199 0.71409 0.85248 0.0
O40 O 0.67004 0.60269 -0.01166 0.0
O41 O 0.68898 0.68055 0.86492 0.0
C42 C 0.40414 0.66753 -0.00577 0.0
O43 O 0.39673 0.66049 0.92726 0.0
Cd44 Cd 0.33106 0.65214 0.87759 0.0
O45 O 0.37635 0.67125 0.04128 0.0
Cd46 Cd 0.3031 0.66874 0.04638 0.0
C47 C 0.30363 0.57205 -0.01517 0.0
O48 O 0.29353 0.70448 0.93414 0.0
O49 O 0.23945 0.6827 -0.01532 0.0
O50 O 0.30663 0.72282 0.1358 0.0
C51 C 0.25586 0.70214 0.9331 0.0
O52 O 0.31166 0.58552 0.92127 0.0
C53 C 0.28324 0.70565 0.18078 0.0
O54 O 0.30074 0.59543 0.0399 0.0
O55 O 0.27065 0.67051 0.16485 0.0
C56 C 0.88863 0.80621 0.57438 0.0
O57 O 0.87593 0.8119 0.63908 0.0
Cd58 Cd 0.80716 0.82455 0.66627 0.0
O59 O 0.86491 0.80483 0.52003 0.0
Cd60 Cd 0.79316 0.8086 0.492 0.0
C61 C 0.79399 0.90527 0.55041 0.0
O62 O 0.7726 0.77343 0.59928 0.0
O63 O 0.72425 0.80009 0.5384 0.0
O64 O 0.80605 0.75554 0.40305 0.0
C65 C 0.73548 0.77844 0.59158 0.0
O66 O 0.79612 0.89226 0.61583 0.0
C67 C 0.78513 0.77175 0.35325 0.0
O68 O 0.79445 0.88149 0.49574 0.0
O69 O 0.76939 0.80578 0.3672 0.0
C70 C 0.05447 0.8004 0.49453 0.0
O71 O 0.06169 0.80946 0.42836 0.0
Cd72 Cd 0.1271 0.82007 0.37859 0.0
O73 O 0.08241 0.79585 0.54083 0.0
Cd74 Cd 0.15536 0.80203 0.54277 0.0
C75 C 0.15314 0.89941 0.48717 0.0
O76 O 0.16905 0.76848 0.42862 0.0
O77 O 0.21945 0.79872 0.47938 0.0
O78 O 0.1707 0.74734 0.62653 0.0
C79 C 0.20618 0.77573 0.42943 0.0
O80 O 0.14471 0.88746 0.42276 0.0
C81 C 0.18048 0.77064 0.67882 0.0
O82 O 0.15685 0.87474 0.53982 0.0
O83 O 0.17692 0.80832 0.66828 0.0
C84 C 0.06963 0.17022 0.56718 0.0
O85 O 0.08032 0.1637 0.63275 0.0
Cd86 Cd 0.14753 0.14975 0.66813 0.0
O87 O 0.09496 0.17202 0.51533 0.0
Cd88 Cd 0.16756 0.16585 0.49856 0.0
C89 C 0.16244 0.06896 0.55495 0.0
O90 O 0.18755 0.19972 0.60828 0.0
O91 O 0.23485 0.16735 0.55294 0.0
O92 O 0.17755 0.22023 0.41098 0.0
C93 C 0.22426 0.19128 0.60359 0.0
O94 O 0.1575 0.08133 0.62031 0.0
C95 C 0.18642 0.19672 0.35844 0.0
O96 O 0.16576 0.09337 0.50181 0.0
O97 O 0.18456 0.15906 0.37065 0.0
C98 C 0.90352 0.16945 0.48755 0.0
O99 O 0.89392 0.16188 0.42173 0.0
Cd100 Cd 0.82615 0.1546 0.38182 0.0
O101 O 0.87731 0.17409 0.53726 0.0
Cd102 Cd 0.80452 0.17386 0.5513 0.0
C103 C 0.80103 0.07641 0.49509 0.0
O104 O 0.79286 0.2096 0.4399 0.0
O105 O 0.73942 0.1902 0.49567 0.0
O106 O 0.81589 0.2271 0.64041 0.0
C107 C 0.75516 0.20898 0.44259 0.0
O108 O 0.80664 0.08871 0.42991 0.0
C109 C 0.79216 0.21223 0.68741 0.0
O110 O 0.80083 0.1007 0.54906 0.0
O111 O 0.77555 0.17873 0.67228 0.0
C112 C 0.26733 0.46766 0.04131 0.0
C113 C 0.30028 0.44383 0.01872 0.0
C114 C 0.33604 0.50438 0.97896 0.0
C115 C 0.30195 0.52794 -0.00398 0.0
N116 N 0.23286 0.5319 0.03225 0.0
N117 N 0.36271 0.43814 0.95304 0.0
C118 C 0.2669 0.50959 0.02429 0.0
C119 C 0.33349 0.46174 -0.01694 0.0
N120 N 0.23666 0.45024 0.07931 0.0
N121 N 0.37165 0.52277 0.9632 0.0
H122 H 0.36273 0.40671 0.95618 0.0
H123 H 0.38518 0.4495 0.91943 0.0
H124 H 0.37539 0.55406 0.96202 0.0
H125 H 0.3985 0.50717 0.95867 0.0
H126 H 0.21408 0.46669 0.10468 0.0
H127 H 0.23497 0.41922 0.08911 0.0
H128 H 0.20525 0.51948 0.04555 0.0
H129 H 0.23144 0.5626 0.01957 0.0
C130 C 0.46805 0.27082 0.03692 0.0
C131 C 0.44693 0.3079 0.0379 0.0
C132 C 0.50686 0.3447 1e-05 0.0
C133 C 0.52748 0.30735 -0.00468 0.0
N134 N 0.52796 0.23468 0.00057 0.0
N135 N 0.44385 0.37959 0.0156 0.0
C136 C 0.50817 0.27029 0.01155 0.0
C137 C 0.4657 0.34472 0.01815 0.0
N138 N 0.44991 0.23645 0.06194 0.0
N139 N 0.52707 0.38021 -0.01037 0.0
H140 H 0.41429 0.38125 0.03315 0.0
H141 H 0.4541 0.40645 -0.00724 0.0
H142 H 0.55684 0.38147 0.9732 0.0
H143 H 0.5153 0.40857 0.00121 0.0
H144 H 0.46465 0.20917 0.06985 0.0
H145 H 0.4203 0.2358 0.07963 0.0
H146 H 0.5146 0.20636 0.00428 0.0
H147 H 0.55749 0.23341 -0.01746 0.0
C148 C 0.6365 0.46935 0.03266 0.0
C149 C 0.66999 0.45101 -0.00134 0.0
C150 C 0.70529 0.5159 -0.00236 0.0
C151 C 0.67069 0.53456 0.02684 0.0
N152 N 0.60065 0.53127 0.05686 0.0
N153 N 0.7345 0.45646 0.94094 0.0
C154 C 0.63555 0.51189 0.04039 0.0
C155 C 0.70386 0.47423 0.97847 0.0
N156 N 0.60563 0.44614 0.05801 0.0
N157 N 0.7398 0.53769 -0.0092 0.0
H158 H 0.73521 0.42563 0.92899 0.0
H159 H 0.75802 0.47251 0.91765 0.0
H160 H 0.74173 0.56828 0.00424 0.0
H161 H 0.7672 0.52501 0.97704 0.0
H162 H 0.58282 0.45738 0.09098 0.0
H163 H 0.60412 0.41495 0.05085 0.0
H164 H 0.57305 0.51683 0.05933 0.0
H165 H 0.59853 0.56259 0.06097 0.0
C166 C 0.46177 0.63724 0.06061 0.0
C167 C 0.44594 0.66952 0.01876 0.0
C168 C 0.50981 0.70537 0.02513 0.0
C169 C 0.52682 0.67125 0.06003 0.0
N170 N 0.52059 0.603 0.10552 0.0
N171 N 0.4544 0.73316 0.95649 0.0
C172 C 0.50315 0.63688 0.0772 0.0
C173 C 0.46984 0.70328 -0.0004 0.0
N174 N 0.43728 0.60676 0.08417 0.0
N175 N 0.53146 0.74031 0.01919 0.0
H176 H 0.42457 0.7339 0.94031 0.0
H177 H 0.47155 0.75602 0.93316 0.0
H178 H 0.56054 0.74315 0.0389 0.0
H179 H 0.51963 0.76755 0.00097 0.0
H180 H 0.44578 0.58524 0.12258 0.0
H181 H 0.40741 0.6042 0.06895 0.0
H182 H 0.5062 0.57521 0.10986 0.0
H183 H 0.5505 0.6016 0.1205 0.0
C184 C 0.76027 0.97255 0.54415 0.0
C185 C 0.79543 0.94911 0.53717 0.0
C186 C 0.83355 0.0087 0.49922 0.0
C187 C 0.79877 0.03259 0.50917 0.0
N188 N 0.73019 0.03926 0.54739 0.0
N189 N 0.8664 0.94423 0.5175 0.0
C190 C 0.76245 0.0151 0.53375 0.0
C191 C 0.83231 0.96699 0.51701 0.0
N192 N 0.72467 0.9538 0.55829 0.0
N193 N 0.86778 0.02593 0.47257 0.0
H194 H 0.86651 0.91331 0.52833 0.0
H195 H 0.89501 0.95612 0.51209 0.0
H196 H 0.87109 0.05689 0.46405 0.0
H197 H 0.8925 0.00952 0.45521 0.0
H198 H 0.69714 0.96823 0.55658 0.0
H199 H 0.72227 0.92278 0.56746 0.0
H200 H 0.70426 0.02934 0.57308 0.0
H201 H 0.73 0.07017 0.53639 0.0
C202 C -0.00174 0.83412 0.55946 0.0
C203 C 0.01283 0.80016 0.5202 0.0
C204 C 0.94746 0.76741 0.52848 0.0
C205 C 0.93189 0.80309 0.5607 0.0
N206 N 0.94067 0.87248 0.59881 0.0
N207 N 0.0018 0.73576 0.46194 0.0
C208 C 0.95686 0.83689 0.57486 0.0
C209 C -0.01244 0.7671 0.50316 0.0
N210 N 0.02397 0.86388 0.58168 0.0
N211 N 0.92422 0.73347 0.52443 0.0
H212 H 0.03155 0.73368 0.44548 0.0
H213 H 0.98379 0.71303 0.44035 0.0
H214 H 0.89487 0.73254 0.54352 0.0
H215 H 0.93485 0.70532 0.50818 0.0
H216 H 0.01606 0.88673 0.61809 0.0
H217 H 0.05416 0.86441 0.5679 0.0
H218 H 0.95637 0.89962 0.60098 0.0
H219 H 0.91053 0.87595 0.61135 0.0
C220 C 0.12455 0.00953 0.50819 0.0
C221 C 0.16017 0.02547 0.53883 0.0
C222 C 0.19253 0.95952 0.5282 0.0
C223 C 0.15598 0.94297 0.50278 0.0
N224 N 0.08518 0.94991 0.48181 0.0
N225 N 0.22643 0.01581 0.58675 0.0
C226 C 0.12142 0.96735 0.49606 0.0
C227 C 0.19369 0.00046 0.55172 0.0
N228 N 0.09382 0.03477 0.49007 0.0
N229 N 0.22639 0.93651 0.52709 0.0
H230 H 0.22878 0.04607 0.60231 0.0
H231 H 0.25009 -0.00185 0.60493 0.0
H232 H 0.22667 0.90651 0.50945 0.0
H233 H 0.25477 0.94788 0.5378 0.0
H234 H 0.06916 0.02561 0.4596 0.0
H235 H 0.09409 0.0657 0.50093 0.0
H236 H 0.05823 0.96544 0.48492 0.0
H237 H 0.08141 0.91899 0.4731 0.0
C238 C 0.96205 0.13653 0.54608 0.0
C239 C 0.94591 0.1701 0.50828 0.0
C240 C 0.00985 0.20573 0.51658 0.0
C241 C 0.02678 0.17089 0.54917 0.0
N242 N 0.02139 0.10048 0.58302 0.0
N243 N 0.95427 0.23489 0.45008 0.0
C244 C 0.00351 0.1356 0.56115 0.0
C245 C 0.96982 0.20419 0.49109 0.0
N246 N 0.93772 0.10551 0.5678 0.0
N247 N 0.03161 0.24067 0.51267 0.0
H248 H 0.92454 0.23559 0.43327 0.0
H249 H 0.97131 0.25841 0.42867 0.0
H250 H 0.06091 0.24288 0.53151 0.0
H251 H 0.01981 0.26829 0.49641 0.0
H252 H 0.94676 0.08278 0.60342 0.0
H253 H 0.90753 0.10378 0.55435 0.0
H254 H 0.0069 0.07263 0.58382 0.0
H255 H 0.05175 0.09815 0.59444 0.0
C256 C 0.1817 0.24625 0.25471 0.0
C257 C 0.20084 0.21259 0.2875 0.0
C258 C 0.24675 0.20923 0.18399 0.0
C259 C 0.2332 0.24741 0.15984 0.0
N260 N 0.19037 0.30536 0.17885 0.0
N261 N 0.25805 0.16764 0.28959 0.0
C262 C 0.20106 0.26676 0.19641 0.0
C263 C 0.23495 0.19523 0.25366 0.0
N264 N 0.14471 0.25804 0.2778 0.0
N265 N 0.27067 0.18612 0.14017 0.0
H266 H 0.25313 0.15883 0.34353 0.0
H267 H 0.28514 0.15724 0.26876 0.0
H268 H 0.2786 0.19476 0.08719 0.0
H269 H 0.27855 0.15654 0.15325 0.0
H270 H 0.12812 0.2802 0.25121 0.0
H271 H 0.1288 0.24262 0.31814 0.0
H272 H 0.16995 0.32203 0.20953 0.0
H273 H 0.20436 0.32215 0.13805 0.0
C274 C 0.73252 0.28356 0.29478 0.0
C275 C 0.69934 0.26542 0.25907 0.0
C276 C 0.70027 0.21011 0.3478 0.0
C277 C 0.73159 0.22993 0.38598 0.0
N278 N 0.76698 0.29215 0.40967 0.0
N279 N 0.64429 0.2183 0.26567 0.0
C280 C 0.74412 0.26894 0.36411 0.0
C281 C 0.68079 0.23085 0.29009 0.0
N282 N 0.75508 0.31248 0.26089 0.0
N283 N 0.69057 0.1709 0.36302 0.0
H284 H 0.6283 0.23385 0.22572 0.0
H285 H 0.62807 0.19532 0.29094 0.0
H286 H 0.70477 0.15383 0.40307 0.0
H287 H 0.67084 0.15411 0.33102 0.0
H288 H 0.78163 0.32348 0.28304 0.0
H289 H 0.7504 0.322 0.20734 0.0
H290 H 0.77404 0.32219 0.39831 0.0
H291 H 0.77476 0.28293 0.46235 0.0
C292 C 0.78422 0.77238 0.21662 0.0
C293 C 0.77735 0.7512 0.28296 0.0
C294 C 0.74896 0.6947 0.2141 0.0
C295 C 0.74834 0.71929 0.15102 0.0
N296 N 0.76561 0.78102 0.08925 0.0
N297 N 0.74956 0.6932 0.34606 0.0
C298 C 0.76659 0.75783 0.15102 0.0
C299 C 0.7595 0.7122 0.28215 0.0
N300 N 0.80805 0.80594 0.21645 0.0
N301 N 0.73902 0.65475 0.20878 0.0
H302 H 0.75516 0.70525 0.39771 0.0
H303 H 0.7324 0.66696 0.34802 0.0
H304 H 0.7314 0.64125 0.15904 0.0
H305 H 0.74236 0.63434 0.25166 0.0
H306 H 0.81693 0.82076 0.16892 0.0
H307 H 0.82211 0.81668 0.26357 0.0
H308 H 0.77411 0.81129 0.08806 0.0
H309 H 0.75441 0.7703 0.03958 0.0
C310 C 0.22948 0.7816 0.30098 0.0
C311 C 0.23175 0.76169 0.36924 0.0
C312 C 0.27578 0.71044 0.31656 0.0
C313 C 0.26846 0.7269 0.24627 0.0
N314 N 0.23469 0.77554 0.1695 0.0
N315 N 0.25547 0.70683 0.4439 0.0
C316 C 0.24476 0.76213 0.23782 0.0
C317 C 0.25482 0.72619 0.37786 0.0
N318 N 0.21301 0.8193 0.29686 0.0
N319 N 0.30338 0.6804 0.32465 0.0
H320 H 0.2416 0.71841 0.49057 0.0
H321 H 0.26781 0.67831 0.45163 0.0
H322 H 0.31947 0.66854 0.28069 0.0
H323 H 0.31289 0.66969 0.37523 0.0
H324 H 0.21399 0.83709 0.24993 0.0
H325 H 0.20183 0.83445 0.34259 0.0
H326 H 0.21373 0.79816 0.1603 0.0
H327 H 0.24456 0.7619 0.12135 0.0
C328 C 0.18057 0.71956 0.78033 0.0
C329 C 0.19727 0.75463 0.74772 0.0
C330 C 0.24423 0.76006 0.84918 0.0
C331 C 0.23286 0.72107 0.87343 0.0
N332 N 0.1945 0.66002 0.85184 0.0
N333 N 0.25228 0.80243 0.74345 0.0
C334 C 0.202 0.69973 0.83663 0.0
C335 C 0.23101 0.77354 0.78008 0.0
N336 N 0.14389 0.70576 0.75931 0.0
N337 N 0.267 0.78462 0.89251 0.0
H338 H 0.24624 0.81102 0.68979 0.0
H339 H 0.27908 0.81418 0.76322 0.0
H340 H 0.27554 0.77669 0.94546 0.0
H341 H 0.27317 0.81461 0.87911 0.0
H342 H 0.12918 0.68229 0.78619 0.0
H343 H 0.12622 0.72068 0.721 0.0
H344 H 0.17483 0.64251 0.82098 0.0
H345 H 0.21079 0.64331 0.88964 0.0
C346 C 0.29121 0.25656 0.72064 0.0
C347 C 0.28431 0.23792 0.78933 0.0
C348 C 0.25115 0.1812 0.72842 0.0
C349 C 0.25154 0.2035 0.66251 0.0
N350 N 0.27199 0.26164 0.59295 0.0
N351 N 0.25559 0.18348 0.8604 0.0
C352 C 0.27213 0.24075 0.65742 0.0
C353 C 0.26446 0.20003 0.79377 0.0
N354 N 0.3164 0.289 0.7161 0.0
N355 N 0.23764 0.14221 0.72832 0.0
H356 H 0.26418 0.19634 0.91002 0.0
H357 H 0.23703 0.15849 0.86698 0.0
H358 H 0.22757 0.12784 0.68091 0.0
H359 H 0.24001 0.12298 0.77315 0.0
H360 H 0.32542 0.3019 0.66687 0.0
H361 H 0.33124 0.30076 0.76161 0.0
H362 H 0.28223 0.29121 0.58774 0.0
H363 H 0.25981 0.24983 0.54489 0.0
C364 C 0.75084 0.29138 0.81725 0.0
C365 C 0.75021 0.26868 0.88268 0.0
C366 C 0.78792 0.21456 0.82366 0.0
C367 C 0.78213 0.23399 0.75538 0.0
N368 N 0.75501 0.28956 0.68529 0.0
N369 N 0.76773 0.20916 0.95087 0.0
C370 C 0.76346 0.27246 0.75159 0.0
C371 C 0.76912 0.23057 0.88701 0.0
N372 N 0.73901 0.33088 0.81805 0.0
N373 N 0.81189 0.18126 0.8278 0.0
H374 H 0.75575 0.22101 -0.00093 0.0
H375 H 0.77667 0.17915 0.95532 0.0
H376 H 0.82655 0.1693 0.78228 0.0
H377 H 0.82016 0.16774 0.87688 0.0
H378 H 0.74232 0.35023 0.77357 0.0
H379 H 0.72948 0.34539 0.86569 0.0
H380 H 0.7373 0.31516 0.67933 0.0
H381 H 0.76277 0.27653 0.63535 0.0
C382 C 0.67171 0.71447 0.71609 0.0
C383 C 0.67879 0.73537 0.7827 0.0
C384 C 0.7079 0.79176 0.71472 0.0
C385 C 0.70833 0.76728 0.65134 0.0
N386 N 0.69005 0.70613 0.5884 0.0
N387 N 0.7062 0.79325 0.84677 0.0
C388 C 0.68946 0.72905 0.65066 0.0
C389 C 0.69674 0.77432 0.78248 0.0
N390 N 0.64773 0.68102 0.71567 0.0
N391 N 0.71875 0.83149 0.70997 0.0
H392 H 0.69965 0.78142 0.89817 0.0
H393 H 0.72357 0.81932 0.84946 0.0
H394 H 0.72706 0.84486 0.66055 0.0
H395 H 0.71564 0.85194 0.75296 0.0
H396 H 0.63873 0.66631 0.66805 0.0
H397 H 0.63372 0.67025 0.76281 0.0
H398 H 0.68109 0.67601 0.58656 0.0
H399 H 0.70131 0.71696 0.53887 0.0
loop_
_geom_bond_atom_site_label_1
_geom_bond_atom_site_label_2
_geom_bond_distance
_geom_bond_site_symmetry_2
_ccdc_geom_bond_type
C0 O1 1.306 . S
C0 O3 1.160 1_554 S
O1 C0 1.306 . S
O1 Cd2 2.228 . S
Cd2 O1 2.228 . S
Cd2 O6 2.273 . S
Cd2 O10 2.277 . S
O3 C0 1.160 1_556 S
O3 Cd4 2.203 1_556 S
Cd4 O3 2.203 1_554 S
Cd4 O6 2.411 . S
Cd4 O7 2.333 . S
Cd4 O8 2.352 1_554 S
Cd4 O12 2.277 1_554 S
Cd4 O13 2.356 1_554 S
C5 O10 1.209 . S
C5 O12 1.226 1_554 S
O6 Cd2 2.273 . S
O6 Cd4 2.411 . S
O6 C9 1.320 . S
O7 Cd4 2.333 . S
O7 C9 1.214 . S
O8 Cd4 2.352 1_556 S
O8 C11 1.258 . S
C9 O6 1.320 . S
C9 O7 1.214 . S
O10 Cd2 2.277 . S
O10 C5 1.209 . S
C11 O8 1.258 . S
C11 O13 1.282 . S
O12 Cd4 2.277 1_556 S
O12 C5 1.226 1_556 S
O13 Cd4 2.356 1_556 S
O13 C11 1.282 . S
C14 O15 1.306 1_554 S
C14 O17 1.160 . S
O15 C14 1.306 1_556 S
O15 Cd16 2.228 . S
Cd16 O15 2.228 . S
Cd16 O20 2.273 . S
Cd16 O24 2.277 . S
O17 C14 1.160 . S
O17 Cd18 2.203 . S
Cd18 O17 2.203 . S
Cd18 O20 2.411 1_554 S
Cd18 O21 2.333 1_554 S
Cd18 O22 2.352 . S
Cd18 O26 2.277 . S
Cd18 O27 2.356 . S
C19 O24 1.209 1_554 S
C19 O26 1.226 . S
O20 Cd16 2.273 . S
O20 Cd18 2.411 1_556 S
O20 C23 1.320 . S
O21 Cd18 2.333 1_556 S
O21 C23 1.214 . S
O22 Cd18 2.352 . S
O22 C25 1.258 . S
C23 O20 1.320 . S
C23 O21 1.214 . S
O24 Cd16 2.277 . S
O24 C19 1.209 1_556 S
C25 O22 1.258 . S
C25 O27 1.282 . S
O26 Cd18 2.277 . S
O26 C19 1.226 . S
O27 Cd18 2.356 . S
O27 C25 1.282 . S
C28 O29 1.306 . S
C28 O31 1.160 1_554 S
O29 C28 1.306 . S
O29 Cd30 2.228 . S
Cd30 O29 2.228 . S
Cd30 O34 2.273 . S
Cd30 O38 2.277 . S
O31 C28 1.160 1_556 S
O31 Cd32 2.203 1_556 S
Cd32 O31 2.203 1_554 S
Cd32 O34 2.411 . S
Cd32 O35 2.333 . S
Cd32 O36 2.352 1_554 S
Cd32 O40 2.277 1_554 S
Cd32 O41 2.356 1_554 S
C33 O38 1.209 . S
C33 O40 1.226 1_554 S
O34 Cd30 2.273 . S
O34 Cd32 2.411 . S
O34 C37 1.320 . S
O35 Cd32 2.333 . S
O35 C37 1.214 . S
O36 Cd32 2.352 1_556 S
O36 C39 1.258 . S
C37 O34 1.320 . S
C37 O35 1.214 . S
O38 Cd30 2.277 . S
O38 C33 1.209 . S
C39 O36 1.258 . S
C39 O41 1.282 . S
O40 Cd32 2.277 1_556 S
O40 C33 1.226 1_556 S
O41 Cd32 2.356 1_556 S
O41 C39 1.282 . S
C42 O43 1.306 1_554 S
C42 O45 1.160 . S
O43 C42 1.306 1_556 S
O43 Cd44 2.228 . S
Cd44 O43 2.228 . S
Cd44 O48 2.273 . S
Cd44 O52 2.277 . S
O45 C42 1.160 . S
O45 Cd46 2.203 . S
Cd46 O45 2.203 . S
Cd46 O48 2.411 1_554 S
Cd46 O49 2.333 1_554 S
Cd46 O50 2.352 . S
Cd46 O54 2.277 . S
Cd46 O55 2.356 . S
C47 O52 1.209 1_554 S
C47 O54 1.226 . S
O48 Cd44 2.273 . S
O48 Cd46 2.411 1_556 S
O48 C51 1.320 . S
O49 Cd46 2.333 1_556 S
O49 C51 1.214 . S
O50 Cd46 2.352 . S
O50 C53 1.258 . S
C51 O48 1.320 . S
C51 O49 1.214 . S
O52 Cd44 2.277 . S
O52 C47 1.209 1_556 S
C53 O50 1.258 . S
C53 O55 1.282 . S
O54 Cd46 2.277 . S
O54 C47 1.226 . S
O55 Cd46 2.356 . S
O55 C53 1.282 . S
C56 O57 1.306 . S
C56 O59 1.160 . S
O57 C56 1.306 . S
O57 Cd58 2.228 . S
Cd58 O57 2.228 . S
Cd58 O62 2.273 . S
Cd58 O66 2.277 . S
O59 C56 1.160 . S
O59 Cd60 2.203 . S
Cd60 O59 2.203 . S
Cd60 O62 2.411 . S
Cd60 O63 2.333 . S
Cd60 O64 2.352 . S
Cd60 O68 2.277 . S
Cd60 O69 2.356 . S
C61 O66 1.209 . S
C61 O68 1.226 . S
O62 Cd58 2.273 . S
O62 Cd60 2.411 . S
O62 C65 1.320 . S
O63 Cd60 2.333 . S
O63 C65 1.214 . S
O64 Cd60 2.352 . S
O64 C67 1.258 . S
C65 O62 1.320 . S
C65 O63 1.214 . S
O66 Cd58 2.277 . S
O66 C61 1.209 . S
C67 O64 1.258 . S
C67 O69 1.282 . S
O68 Cd60 2.277 . S
O68 C61 1.226 . S
O69 Cd60 2.356 . S
O69 C67 1.282 . S
C70 O71 1.306 . S
C70 O73 1.160 . S
O71 C70 1.306 . S
O71 Cd72 2.228 . S
Cd72 O71 2.228 . S
Cd72 O76 2.273 . S
Cd72 O80 2.277 . S
O73 C70 1.160 . S
O73 Cd74 2.203 . S
Cd74 O73 2.203 . S
Cd74 O76 2.411 . S
Cd74 O77 2.333 . S
Cd74 O78 2.352 . S
Cd74 O82 2.277 . S
Cd74 O83 2.356 . S
C75 O80 1.209 . S
C75 O82 1.226 . S
O76 Cd72 2.273 . S
O76 Cd74 2.411 . S
O76 C79 1.320 . S
O77 Cd74 2.333 . S
O77 C79 1.214 . S
O78 Cd74 2.352 . S
O78 C81 1.258 . S
C79 O76 1.320 . S
C79 O77 1.214 . S
O80 Cd72 2.277 . S
O80 C75 1.209 . S
C81 O78 1.258 . S
C81 O83 1.282 . S
O82 Cd74 2.277 . S
O82 C75 1.226 . S
O83 Cd74 2.356 . S
O83 C81 1.282 . S
C84 O85 1.306 . S
C84 O87 1.160 . S
O85 C84 1.306 . S
O85 Cd86 2.228 . S
Cd86 O85 2.228 . S
Cd86 O90 2.273 . S
Cd86 O94 2.277 . S
O87 C84 1.160 . S
O87 Cd88 2.203 . S
Cd88 O87 2.203 . S
Cd88 O90 2.411 . S
Cd88 O91 2.333 . S
Cd88 O92 2.352 . S
Cd88 O96 2.277 . S
Cd88 O97 2.356 . S
C89 O94 1.209 . S
C89 O96 1.226 . S
O90 Cd86 2.273 . S
O90 Cd88 2.411 . S
O90 C93 1.320 . S
O91 Cd88 2.333 . S
O91 C93 1.214 . S
O92 Cd88 2.352 . S
O92 C95 1.258 . S
C93 O90 1.320 . S
C93 O91 1.214 . S
O94 Cd86 2.277 . S
O94 C89 1.209 . S
C95 O92 1.258 . S
C95 O97 1.282 . S
O96 Cd88 2.277 . S
O96 C89 1.226 . S
O97 Cd88 2.356 . S
O97 C95 1.282 . S
C98 O99 1.306 . S
C98 O101 1.160 . S
O99 C98 1.306 . S
O99 Cd100 2.228 . S
Cd100 O99 2.228 . S
Cd100 O104 2.273 . S
Cd100 O108 2.277 . S
O101 C98 1.160 . S
O101 Cd102 2.203 . S
Cd102 O101 2.203 . S
Cd102 O104 2.411 . S
Cd102 O105 2.333 . S
Cd102 O106 2.352 . S
Cd102 O110 2.277 . S
Cd102 O111 2.356 . S
C103 O108 1.209 . S
C103 O110 1.226 . S
O104 Cd100 2.273 . S
O104 Cd102 2.411 . S
O104 C107 1.320 . S
O105 Cd102 2.333 . S
O105 C107 1.214 . S
O106 Cd102 2.352 . S
O106 C109 1.258 . S
C107 O104 1.320 . S
C107 O105 1.214 . S
O108 Cd100 2.277 . S
O108 C103 1.209 . S
C109 O106 1.258 . S
C109 O111 1.282 . S
O110 Cd102 2.277 . S
O110 C103 1.226 . S
O111 Cd102 2.356 . S
O111 C109 1.282 . S
C112 C113 1.363 . S
C112 C118 1.379 . S
C112 N120 1.356 . S
C113 C112 1.363 . S
C113 C119 1.363 1_554 S
C114 C115 1.363 1_556 S
C114 C119 1.379 . S
C114 N121 1.356 . S
C115 C114 1.363 1_554 S
C115 C118 1.363 . S
N116 C118 1.356 . S
N116 H128 0.984 . S
N116 H129 0.985 . S
N117 C119 1.356 . S
N117 H122 0.984 . S
N117 H123 0.985 . S
C118 C112 1.379 . S
C118 C115 1.363 . S
C118 N116 1.356 . S
C119 C113 1.363 1_556 S
C119 C114 1.379 . S
C119 N117 1.356 . S
N120 C112 1.356 . S
N120 H126 0.984 . S
N120 H127 0.984 . S
N121 C114 1.356 . S
N121 H124 0.984 . S
N121 H125 0.985 . S
H122 N117 0.984 . S
H123 N117 0.985 . S
H124 N121 0.984 . S
H125 N121 0.985 . S
H126 N120 0.984 . S
H127 N120 0.984 . S
H128 N116 0.984 . S
H129 N116 0.985 . S
C130 C131 1.363 . S
C130 C136 1.379 . S
C130 N138 1.356 . S
C131 C130 1.363 . S
C131 C137 1.363 1_554 S
C132 C133 1.363 . S
C132 C137 1.379 1_554 S
C132 N139 1.355 1_554 S
C133 C132 1.363 . S
C133 C136 1.363 . S
N134 C136 1.356 . S
N134 H146 0.984 . S
N134 H147 0.985 . S
N135 C137 1.356 . S
N135 H140 0.984 . S
N135 H141 0.985 . S
C136 C130 1.379 . S
C136 C133 1.363 . S
C136 N134 1.356 . S
C137 C131 1.363 1_556 S
C137 C132 1.379 1_556 S
C137 N135 1.356 . S
N138 C130 1.356 . S
N138 H144 0.984 . S
N138 H145 0.984 . S
N139 C132 1.355 1_556 S
N139 H142 0.982 1_556 S
N139 H143 0.988 . S
H140 N135 0.984 . S
H141 N135 0.985 . S
H142 N139 0.982 1_554 S
H143 N139 0.988 . S
H144 N138 0.984 . S
H145 N138 0.984 . S
H146 N134 0.984 . S
H147 N134 0.985 . S
C148 C149 1.363 . S
C148 C154 1.379 . S
C148 N156 1.356 . S
C149 C148 1.363 . S
C149 C155 1.363 1_554 S
C150 C151 1.363 1_556 S
C150 C155 1.379 . S
C150 N157 1.356 . S
C151 C150 1.363 1_554 S
C151 C154 1.363 . S
N152 C154 1.356 . S
N152 H164 0.984 . S
N152 H165 0.985 . S
N153 C155 1.356 . S
N153 H158 0.984 . S
N153 H159 0.985 . S
C154 C148 1.379 . S
C154 C151 1.363 . S
C154 N152 1.356 . S
C155 C149 1.363 1_556 S
C155 C150 1.379 . S
C155 N153 1.356 . S
N156 C148 1.356 . S
N156 H162 0.984 . S
N156 H163 0.984 . S
N157 C150 1.356 . S
N157 H160 0.984 . S
N157 H161 0.985 . S
H158 N153 0.984 . S
H159 N153 0.985 . S
H160 N157 0.984 . S
H161 N157 0.985 . S
H162 N156 0.984 . S
H163 N156 0.984 . S
H164 N152 0.984 . S
H165 N152 0.985 . S
C166 C167 1.363 . S
C166 C172 1.379 . S
C166 N174 1.356 . S
C167 C166 1.363 . S
C167 C173 1.363 . S
C168 C169 1.363 1_556 S
C168 C173 1.379 1_556 S
C168 N175 1.356 . S
C169 C168 1.363 1_554 S
C169 C172 1.363 . S
N170 C172 1.356 . S
N170 H182 0.984 . S
N170 H183 0.985 . S
N171 C173 1.355 1_556 S
N171 H176 0.982 1_556 S
N171 H177 0.988 . S
C172 C166 1.379 . S
C172 C169 1.363 . S
C172 N170 1.356 . S
C173 C167 1.363 . S
C173 C168 1.379 1_554 S
C173 N171 1.355 1_554 S
N174 C166 1.356 . S
N174 H180 0.984 . S
N174 H181 0.984 . S
N175 C168 1.356 . S
N175 H178 0.984 . S
N175 H179 0.985 . S
H176 N171 0.982 1_554 S
H177 N171 0.988 . S
H178 N175 0.984 . S
H179 N175 0.985 . S
H180 N174 0.984 . S
H181 N174 0.984 . S
H182 N170 0.984 . S
H183 N170 0.985 . S
C184 C185 1.363 . S
C184 C190 1.379 1_565 S
C184 N192 1.356 . S
C185 C184 1.363 . S
C185 C191 1.363 . S
C186 C187 1.363 . S
C186 C191 1.379 1_545 S
C186 N193 1.356 . S
C187 C186 1.363 . S
C187 C190 1.363 . S
N188 C190 1.356 . S
N188 H200 0.984 . S
N188 H201 0.985 . S
N189 C191 1.356 . S
N189 H194 0.984 . S
N189 H195 0.985 . S
C190 C184 1.379 1_545 S
C190 C187 1.363 . S
C190 N188 1.356 . S
C191 C185 1.363 . S
C191 C186 1.379 1_565 S
C191 N189 1.356 . S
N192 C184 1.356 . S
N192 H198 0.984 . S
N192 H199 0.984 . S
N193 C186 1.356 . S
N193 H196 0.984 . S
N193 H197 0.985 . S
H194 N189 0.984 . S
H195 N189 0.985 . S
H196 N193 0.984 . S
H197 N193 0.985 . S
H198 N192 0.984 . S
H199 N192 0.984 . S
H200 N188 0.984 . S
H201 N188 0.985 . S
C202 C203 1.363 . S
C202 C208 1.379 1_455 S
C202 N210 1.356 . S
C203 C202 1.363 . S
C203 C209 1.363 . S
C204 C205 1.363 . S
C204 C209 1.379 1_655 S
C204 N211 1.356 . S
C205 C204 1.363 . S
C205 C208 1.363 . S
N206 C208 1.356 . S
N206 H218 0.984 . S
N206 H219 0.985 . S
N207 C209 1.356 . S
N207 H212 0.984 . S
N207 H213 0.985 . S
C208 C202 1.379 1_655 S
C208 C205 1.363 . S
C208 N206 1.356 . S
C209 C203 1.363 . S
C209 C204 1.379 1_455 S
C209 N207 1.356 . S
N210 C202 1.356 . S
N210 H216 0.984 . S
N210 H217 0.984 . S
N211 C204 1.356 . S
N211 H214 0.984 . S
N211 H215 0.985 . S
H212 N207 0.984 . S
H213 N207 0.985 . S
H214 N211 0.984 . S
H215 N211 0.985 . S
H216 N210 0.984 . S
H217 N210 0.984 . S
H218 N206 0.984 . S
H219 N206 0.985 . S
C220 C221 1.363 . S
C220 C226 1.379 1_545 S
C220 N228 1.356 . S
C221 C220 1.363 . S
C221 C227 1.363 . S
C222 C223 1.363 . S
C222 C227 1.379 1_565 S
C222 N229 1.356 . S
C223 C222 1.363 . S
C223 C226 1.363 . S
N224 C226 1.356 . S
N224 H236 0.984 . S
N224 H237 0.985 . S
N225 C227 1.356 . S
N225 H230 0.984 . S
N225 H231 0.985 . S
C226 C220 1.379 1_565 S
C226 C223 1.363 . S
C226 N224 1.356 . S
C227 C221 1.363 . S
C227 C222 1.379 1_545 S
C227 N225 1.356 . S
N228 C220 1.356 . S
N228 H234 0.984 . S
N228 H235 0.984 . S
N229 C222 1.356 . S
N229 H232 0.984 . S
N229 H233 0.985 . S
H230 N225 0.984 . S
H231 N225 0.985 . S
H232 N229 0.984 . S
H233 N229 0.985 . S
H234 N228 0.984 . S
H235 N228 0.984 . S
H236 N224 0.984 . S
H237 N224 0.985 . S
C238 C239 1.363 . S
C238 C244 1.379 1_655 S
C238 N246 1.356 . S
C239 C238 1.363 . S
C239 C245 1.363 . S
C240 C241 1.363 . S
C240 C245 1.379 1_455 S
C240 N247 1.356 . S
C241 C240 1.363 . S
C241 C244 1.363 . S
N242 C244 1.356 . S
N242 H254 0.984 . S
N242 H255 0.985 . S
N243 C245 1.356 . S
N243 H248 0.984 . S
N243 H249 0.985 . S
C244 C238 1.379 1_455 S
C244 C241 1.363 . S
C244 N242 1.356 . S
C245 C239 1.363 . S
C245 C240 1.379 1_655 S
C245 N243 1.356 . S
N246 C238 1.356 . S
N246 H252 0.984 . S
N246 H253 0.984 . S
N247 C240 1.356 . S
N247 H250 0.984 . S
N247 H251 0.985 . S
H248 N243 0.984 . S
H249 N243 0.985 . S
H250 N247 0.984 . S
H251 N247 0.985 . S
H252 N246 0.984 . S
H253 N246 0.984 . S
H254 N242 0.984 . S
H255 N242 0.985 . S
C256 C257 1.363 . S
C256 C262 1.379 . S
C256 N264 1.356 . S
C257 C256 1.363 . S
C257 C263 1.363 . S
C258 C259 1.363 . S
C258 C263 1.379 . S
C258 N265 1.356 . S
C259 C258 1.363 . S
C259 C262 1.363 . S
N260 C262 1.356 . S
N260 H272 0.984 . S
N260 H273 0.985 . S
N261 C263 1.356 . S
N261 H266 0.984 . S
N261 H267 0.985 . S
C262 C256 1.379 . S
C262 C259 1.363 . S
C262 N260 1.356 . S
C263 C257 1.363 . S
C263 C258 1.379 . S
C263 N261 1.356 . S
N264 C256 1.356 . S
N264 H270 0.984 . S
N264 H271 0.984 . S
N265 C258 1.356 . S
N265 H268 0.984 . S
N265 H269 0.985 . S
H266 N261 0.984 . S
H267 N261 0.985 . S
H268 N265 0.984 . S
H269 N265 0.985 . S
H270 N264 0.984 . S
H271 N264 0.984 . S
H272 N260 0.984 . S
H273 N260 0.985 . S
C274 C275 1.363 . S
C274 C280 1.379 . S
C274 N282 1.356 . S
C275 C274 1.363 . S
C275 C281 1.363 . S
C276 C277 1.363 . S
C276 C281 1.379 . S
C276 N283 1.356 . S
C277 C276 1.363 . S
C277 C280 1.363 . S
N278 C280 1.356 . S
N278 H290 0.984 . S
N278 H291 0.985 . S
N279 C281 1.356 . S
N279 H284 0.984 . S
N279 H285 0.985 . S
C280 C274 1.379 . S
C280 C277 1.363 . S
C280 N278 1.356 . S
C281 C275 1.363 . S
C281 C276 1.379 . S
C281 N279 1.356 . S
N282 C274 1.356 . S
N282 H288 0.984 . S
N282 H289 0.984 . S
N283 C276 1.356 . S
N283 H286 0.984 . S
N283 H287 0.985 . S
H284 N279 0.984 . S
H285 N279 0.985 . S
H286 N283 0.984 . S
H287 N283 0.985 . S
H288 N282 0.984 . S
H289 N282 0.984 . S
H290 N278 0.984 . S
H291 N278 0.985 . S
C292 C293 1.363 . S
C292 C298 1.379 . S
C292 N300 1.356 . S
C293 C292 1.363 . S
C293 C299 1.363 . S
C294 C295 1.363 . S
C294 C299 1.379 . S
C294 N301 1.356 . S
C295 C294 1.363 . S
C295 C298 1.363 . S
N296 C298 1.356 . S
N296 H308 0.984 . S
N296 H309 0.985 . S
N297 C299 1.356 . S
N297 H302 0.984 . S
N297 H303 0.985 . S
C298 C292 1.379 . S
C298 C295 1.363 . S
C298 N296 1.356 . S
C299 C293 1.363 . S
C299 C294 1.379 . S
C299 N297 1.356 . S
N300 C292 1.356 . S
N300 H306 0.984 . S
N300 H307 0.984 . S
N301 C294 1.356 . S
N301 H304 0.984 . S
N301 H305 0.985 . S
H302 N297 0.984 . S
H303 N297 0.985 . S
H304 N301 0.984 . S
H305 N301 0.985 . S
H306 N300 0.984 . S
H307 N300 0.984 . S
H308 N296 0.984 . S
H309 N296 0.985 . S
C310 C311 1.363 . S
C310 C316 1.379 . S
C310 N318 1.356 . S
C311 C310 1.363 . S
C311 C317 1.363 . S
C312 C313 1.363 . S
C312 C317 1.379 . S
C312 N319 1.356 . S
C313 C312 1.363 . S
C313 C316 1.363 . S
N314 C316 1.356 . S
N314 H326 0.984 . S
N314 H327 0.985 . S
N315 C317 1.356 . S
N315 H320 0.984 . S
N315 H321 0.985 . S
C316 C310 1.379 . S
C316 C313 1.363 . S
C316 N314 1.356 . S
C317 C311 1.363 . S
C317 C312 1.379 . S
C317 N315 1.356 . S
N318 C310 1.356 . S
N318 H324 0.984 . S
N318 H325 0.984 . S
N319 C312 1.356 . S
N319 H322 0.984 . S
N319 H323 0.985 . S
H320 N315 0.984 . S
H321 N315 0.985 . S
H322 N319 0.984 . S
H323 N319 0.985 . S
H324 N318 0.984 . S
H325 N318 0.984 . S
H326 N314 0.984 . S
H327 N314 0.985 . S
C328 C329 1.363 . S
C328 C334 1.379 . S
C328 N336 1.356 . S
C329 C328 1.363 . S
C329 C335 1.363 . S
C330 C331 1.363 . S
C330 C335 1.379 . S
C330 N337 1.356 . S
C331 C330 1.363 . S
C331 C334 1.363 . S
N332 C334 1.356 . S
N332 H344 0.984 . S
N332 H345 0.985 . S
N333 C335 1.356 . S
N333 H338 0.984 . S
N333 H339 0.985 . S
C334 C328 1.379 . S
C334 C331 1.363 . S
C334 N332 1.356 . S
C335 C329 1.363 . S
C335 C330 1.379 . S
C335 N333 1.356 . S
N336 C328 1.356 . S
N336 H342 0.984 . S
N336 H343 0.984 . S
N337 C330 1.356 . S
N337 H340 0.984 . S
N337 H341 0.985 . S
H338 N333 0.984 . S
H339 N333 0.985 . S
H340 N337 0.984 . S
H341 N337 0.985 . S
H342 N336 0.984 . S
H343 N336 0.984 . S
H344 N332 0.984 . S
H345 N332 0.985 . S
C346 C347 1.363 . S
C346 C352 1.379 . S
C346 N354 1.356 . S
C347 C346 1.363 . S
C347 C353 1.363 . S
C348 C349 1.363 . S
C348 C353 1.379 . S
C348 N355 1.356 . S
C349 C348 1.363 . S
C349 C352 1.363 . S
N350 C352 1.356 . S
N350 H362 0.984 . S
N350 H363 0.985 . S
N351 C353 1.356 . S
N351 H356 0.984 . S
N351 H357 0.985 . S
C352 C346 1.379 . S
C352 C349 1.363 . S
C352 N350 1.356 . S
C353 C347 1.363 . S
C353 C348 1.379 . S
C353 N351 1.356 . S
N354 C346 1.356 . S
N354 H360 0.984 . S
N354 H361 0.984 . S
N355 C348 1.356 . S
N355 H358 0.984 . S
N355 H359 0.985 . S
H356 N351 0.984 . S
H357 N351 0.985 . S
H358 N355 0.984 . S
H359 N355 0.985 . S
H360 N354 0.984 . S
H361 N354 0.984 . S
H362 N350 0.984 . S
H363 N350 0.985 . S
C364 C365 1.363 . S
C364 C370 1.379 . S
C364 N372 1.356 . S
C365 C364 1.363 . S
C365 C371 1.363 . S
C366 C367 1.363 . S
C366 C371 1.379 . S
C366 N373 1.356 . S
C367 C366 1.363 . S
C367 C370 1.363 . S
N368 C370 1.356 . S
N368 H380 0.984 . S
N368 H381 0.985 . S
N369 C371 1.356 . S
N369 H374 0.984 . S
N369 H375 0.985 . S
C370 C364 1.379 . S
C370 C367 1.363 . S
C370 N368 1.356 . S
C371 C365 1.363 . S
C371 C366 1.379 . S
C371 N369 1.356 . S
N372 C364 1.356 . S
N372 H378 0.984 . S
N372 H379 0.984 . S
N373 C366 1.356 . S
N373 H376 0.984 . S
N373 H377 0.985 . S
H374 N369 0.984 . S
H375 N369 0.985 . S
H376 N373 0.984 . S
H377 N373 0.985 . S
H378 N372 0.984 . S
H379 N372 0.984 . S
H380 N368 0.984 . S
H381 N368 0.985 . S
C382 C383 1.363 . S
C382 C388 1.379 . S
C382 N390 1.356 . S
C383 C382 1.363 . S
C383 C389 1.363 . S
C384 C385 1.363 . S
C384 C389 1.379 . S
C384 N391 1.356 . S
C385 C384 1.363 . S
C385 C388 1.363 . S
N386 C388 1.356 . S
N386 H398 0.984 . S
N386 H399 0.985 . S
N387 C389 1.356 . S
N387 H392 0.984 . S
N387 H393 0.985 . S
C388 C382 1.379 . S
C388 C385 1.363 . S
C388 N386 1.356 . S
C389 C383 1.363 . S
C389 C384 1.379 . S
C389 N387 1.356 . S
N390 C382 1.356 . S
N390 H396 0.984 . S
N390 H397 0.984 . S
N391 C384 1.356 . S
N391 H394 0.984 . S
N391 H395 0.985 . S
H392 N387 0.984 . S
H393 N387 0.985 . S
H394 N391 0.984 . S
H395 N391 0.985 . S
H396 N390 0.984 . S
H397 N390 0.984 . S
H398 N386 0.984 . S
H399 N386 0.985 . S
C113 C5 1.564 . S
C115 C47 1.564 . S
C131 C0 1.517 . S
C133 C14 1.517 . S
C149 C19 1.564 . S
C151 C33 1.564 . S
C167 C42 1.517 . S
C169 C28 1.517 . S
C185 C61 1.564 . S
C187 C103 1.564 . S
C203 C70 1.517 . S
C205 C56 1.517 . S
C221 C89 1.564 . S
C223 C75 1.564 . S
C239 C98 1.517 . S
C241 C84 1.517 . S
C257 C95 1.494 . S
C259 C9 1.508 . S
C275 C25 1.494 . S
C277 C107 1.508 . S
C293 C67 1.494 . S
C295 C37 1.508 . S
C311 C79 1.508 . S
C313 C53 1.494 . S
C329 C81 1.494 . S
C331 C51 1.508 . S
C347 C11 1.494 . S
C349 C93 1.508 . S
C365 C23 1.508 . S
C367 C109 1.494 . S
C383 C39 1.494 . S
C385 C65 1.508 . S
