# Generated by pormake.
# Topology uks, (4)-cn, num edge types: 1
# Building blocks:
#     Node 0, Type 0, BuildingBlock: ESEHIV_clean_sbu_0, # of connection points: 4
#     Node 1, Type 0, BuildingBlock: ESEHIV_clean_sbu_0, # of connection points: 4
#     Node 2, Type 0, BuildingBlock: ESEHIV_clean_sbu_0, # of connection points: 4
#     Node 3, Type 0, BuildingBlock: ESEHIV_clean_sbu_0, # of connection points: 4
#     Node 4, Type 0, BuildingBlock: ESEHIV_clean_sbu_0, # of connection points: 4
#     Node 5, Type 0, BuildingBlock: ESEHIV_clean_sbu_0, # of connection points: 4
#     Node 6, Type 0, BuildingBlock: ESEHIV_clean_sbu_0, # of connection points: 4
#     Node 7, Type 0, BuildingBlock: ESEHIV_clean_sbu_0, # of connection points: 4
#     Node 8, Type 0, BuildingBlock: ESEHIV_clean_sbu_0, # of connection points: 4
#     Node 9, Type 0, BuildingBlock: ESEHIV_clean_sbu_0, # of connection points: 4
#     Node 10, Type 0, BuildingBlock: ESEHIV_clean_sbu_0, # of connection points: 4
#     Node 11, Type 0, BuildingBlock: ESEHIV_clean_sbu_0, # of connection points: 4
#     Node 12, Type 0, BuildingBlock: ESEHIV_clean_sbu_0, # of connection points: 4
#     Node 13, Type 0, BuildingBlock: ESEHIV_clean_sbu_0, # of connection points: 4
#     Node 14, Type 0, BuildingBlock: ESEHIV_clean_sbu_0, # of connection points: 4
#     Node 15, Type 0, BuildingBlock: ESEHIV_clean_sbu_0, # of connection points: 4
#     Node 16, Type 0, BuildingBlock: ESEHIV_clean_sbu_0, # of connection points: 4
#     Node 17, Type 0, BuildingBlock: ESEHIV_clean_sbu_0, # of connection points: 4
#     Node 18, Type 0, BuildingBlock: ESEHIV_clean_sbu_0, # of connection points: 4
#     Node 19, Type 0, BuildingBlock: ESEHIV_clean_sbu_0, # of connection points: 4
#     Node 20, Type 0, BuildingBlock: ESEHIV_clean_sbu_0, # of connection points: 4
#     Node 21, Type 0, BuildingBlock: ESEHIV_clean_sbu_0, # of connection points: 4
#     Node 22, Type 0, BuildingBlock: ESEHIV_clean_sbu_0, # of connection points: 4
#     Node 23, Type 0, BuildingBlock: ESEHIV_clean_sbu_0, # of connection points: 4
#     Edge 24, Type (0, 0), BuildingBlock: UVAHIK_clean_linker_0, # of connection points: 2
#     Edge 25, Type (0, 0), BuildingBlock: UVAHIK_clean_linker_0, # of connection points: 2
#     Edge 26, Type (0, 0), BuildingBlock: UVAHIK_clean_linker_0, # of connection points: 2
#     Edge 27, Type (0, 0), BuildingBlock: UVAHIK_clean_linker_0, # of connection points: 2
#     Edge 28, Type (0, 0), BuildingBlock: UVAHIK_clean_linker_0, # of connection points: 2
#     Edge 29, Type (0, 0), BuildingBlock: UVAHIK_clean_linker_0, # of connection points: 2
#     Edge 30, Type (0, 0), BuildingBlock: UVAHIK_clean_linker_0, # of connection points: 2
#     Edge 31, Type (0, 0), BuildingBlock: UVAHIK_clean_linker_0, # of connection points: 2
#     Edge 32, Type (0, 0), BuildingBlock: UVAHIK_clean_linker_0, # of connection points: 2
#     Edge 33, Type (0, 0), BuildingBlock: UVAHIK_clean_linker_0, # of connection points: 2
#     Edge 34, Type (0, 0), BuildingBlock: UVAHIK_clean_linker_0, # of connection points: 2
#     Edge 35, Type (0, 0), BuildingBlock: UVAHIK_clean_linker_0, # of connection points: 2
#     Edge 36, Type (0, 0), BuildingBlock: UVAHIK_clean_linker_0, # of connection points: 2
#     Edge 37, Type (0, 0), BuildingBlock: UVAHIK_clean_linker_0, # of connection points: 2
#     Edge 38, Type (0, 0), BuildingBlock: UVAHIK_clean_linker_0, # of connection points: 2
#     Edge 39, Type (0, 0), BuildingBlock: UVAHIK_clean_linker_0, # of connection points: 2
#     Edge 40, Type (0, 0), BuildingBlock: UVAHIK_clean_linker_0, # of connection points: 2
#     Edge 41, Type (0, 0), BuildingBlock: UVAHIK_clean_linker_0, # of connection points: 2
#     Edge 42, Type (0, 0), BuildingBlock: UVAHIK_clean_linker_0, # of connection points: 2
#     Edge 43, Type (0, 0), BuildingBlock: UVAHIK_clean_linker_0, # of connection points: 2
#     Edge 44, Type (0, 0), BuildingBlock: UVAHIK_clean_linker_0, # of connection points: 2
#     Edge 45, Type (0, 0), BuildingBlock: UVAHIK_clean_linker_0, # of connection points: 2
#     Edge 46, Type (0, 0), BuildingBlock: UVAHIK_clean_linker_0, # of connection points: 2
#     Edge 47, Type (0, 0), BuildingBlock: UVAHIK_clean_linker_0, # of connection points: 2
#     Edge 48, Type (0, 0), BuildingBlock: UVAHIK_clean_linker_0, # of connection points: 2
#     Edge 49, Type (0, 0), BuildingBlock: UVAHIK_clean_linker_0, # of connection points: 2
#     Edge 50, Type (0, 0), BuildingBlock: UVAHIK_clean_linker_0, # of connection points: 2
#     Edge 51, Type (0, 0), BuildingBlock: UVAHIK_clean_linker_0, # of connection points: 2
#     Edge 52, Type (0, 0), BuildingBlock: UVAHIK_clean_linker_0, # of connection points: 2
#     Edge 53, Type (0, 0), BuildingBlock: UVAHIK_clean_linker_0, # of connection points: 2
#     Edge 54, Type (0, 0), BuildingBlock: UVAHIK_clean_linker_0, # of connection points: 2
#     Edge 55, Type (0, 0), BuildingBlock: UVAHIK_clean_linker_0, # of connection points: 2
#     Edge 56, Type (0, 0), BuildingBlock: UVAHIK_clean_linker_0, # of connection points: 2
#     Edge 57, Type (0, 0), BuildingBlock: UVAHIK_clean_linker_0, # of connection points: 2
#     Edge 58, Type (0, 0), BuildingBlock: UVAHIK_clean_linker_0, # of connection points: 2
#     Edge 59, Type (0, 0), BuildingBlock: UVAHIK_clean_linker_0, # of connection points: 2
#     Edge 60, Type (0, 0), BuildingBlock: UVAHIK_clean_linker_0, # of connection points: 2
#     Edge 61, Type (0, 0), BuildingBlock: UVAHIK_clean_linker_0, # of connection points: 2
#     Edge 62, Type (0, 0), BuildingBlock: UVAHIK_clean_linker_0, # of connection points: 2
#     Edge 63, Type (0, 0), BuildingBlock: UVAHIK_clean_linker_0, # of connection points: 2
#     Edge 64, Type (0, 0), BuildingBlock: UVAHIK_clean_linker_0, # of connection points: 2
#     Edge 65, Type (0, 0), BuildingBlock: UVAHIK_clean_linker_0, # of connection points: 2
#     Edge 66, Type (0, 0), BuildingBlock: UVAHIK_clean_linker_0, # of connection points: 2
#     Edge 67, Type (0, 0), BuildingBlock: UVAHIK_clean_linker_0, # of connection points: 2
#     Edge 68, Type (0, 0), BuildingBlock: UVAHIK_clean_linker_0, # of connection points: 2
#     Edge 69, Type (0, 0), BuildingBlock: UVAHIK_clean_linker_0, # of connection points: 2
#     Edge 70, Type (0, 0), BuildingBlock: UVAHIK_clean_linker_0, # of connection points: 2
#     Edge 71, Type (0, 0), BuildingBlock: UVAHIK_clean_linker_0, # of connection points: 2
# Relax obj value: 0.049
# Max RMSD: 0.121
# Mean RMSD: 0.106
data_MOF--net-uks--node1-ESEHIV_clean_sbu_0--edge1-UVAHIK_clean_linker_0
_symmetry_space_group_name_H-M    P1
_symmetry_Int_Tables_number       1
_symmetry_cell_setting            triclinic
loop_
_symmetry_equiv_pos_as_xyz
'x, y, z'
_cell_length_a     68.389467
_cell_length_b     77.655952
_cell_length_c     77.68004
_cell_angle_alpha  89.999939
_cell_angle_beta   89.80813
_cell_angle_gamma 87.011126
loop_
_atom_site_label
_atom_site_type_symbol
_atom_site_fract_x
_atom_site_fract_y
_atom_site_fract_z
_atom_type_partial_charge
Cu0 Cu 0.13481 0.37476 0.69817 0.0
N1 N 0.13821 0.35068 0.69646 0.0
N2 N 0.14104 0.32338 0.70594 0.0
C3 C 0.137 0.34009 0.71011 0.0
C4 C 0.14494 0.32352 0.68886 0.0
C5 C 0.14317 0.34037 0.68305 0.0
O6 O 0.1069 0.37985 0.70246 0.0
C7 C 0.17055 0.37629 0.71213 0.0
O8 O 0.17361 0.36745 0.69786 0.0
H9 H 0.13382 0.34472 0.72301 0.0
H10 H 0.14567 0.34475 0.67007 0.0
N11 N 0.14226 0.38715 0.67861 0.0
N12 N 0.15241 0.40984 0.66386 0.0
C13 C 0.14919 0.40306 0.67954 0.0
C14 C 0.14119 0.38366 0.66165 0.0
C15 C 0.14733 0.3977 0.65252 0.0
C16 C 0.09606 0.37604 0.68983 0.0
O17 O 0.10445 0.36948 0.67591 0.0
H18 H 0.15131 0.40975 0.69157 0.0
H19 H 0.13601 0.37193 0.65625 0.0
O20 O 0.15303 0.38142 0.7159 0.0
H21 H 0.14881 0.31229 0.68109 0.0
H22 H 0.14805 0.39887 0.63865 0.0
Cu23 Cu 0.62249 0.62522 0.23171 0.0
N24 N 0.61172 0.64142 0.24739 0.0
N25 N 0.60538 0.66792 0.25816 0.0
C26 C 0.61654 0.658 0.24728 0.0
C27 C 0.59306 0.65699 0.26552 0.0
C28 C 0.59693 0.64066 0.25877 0.0
O29 O 0.60665 0.62852 0.21103 0.0
C30 C 0.65868 0.63026 0.24432 0.0
O31 O 0.64856 0.62688 0.25822 0.0
H32 H 0.62788 0.66265 0.23903 0.0
H33 H 0.58902 0.62926 0.26146 0.0
N34 N 0.62168 0.60214 0.23865 0.0
N35 N 0.62558 0.57334 0.23679 0.0
C36 C 0.62668 0.58855 0.22846 0.0
C37 C 0.61727 0.59538 0.25403 0.0
C38 C 0.61965 0.57762 0.25293 0.0
C39 C 0.58957 0.62274 0.21217 0.0
O40 O 0.58506 0.61416 0.22608 0.0
H41 H 0.63152 0.58992 0.21528 0.0
H42 H 0.61289 0.60281 0.2653 0.0
O43 O 0.65007 0.63009 0.22977 0.0
H44 H 0.58153 0.66061 0.27459 0.0
H45 H 0.61716 0.56861 0.26323 0.0
Cu46 Cu 0.38002 0.14782 0.6973 0.0
N47 N 0.37169 0.17115 0.69622 0.0
N48 N 0.36535 0.19805 0.70599 0.0
C49 C 0.37502 0.18267 0.70872 0.0
C50 C 0.35557 0.19609 0.69109 0.0
C51 C 0.35944 0.17949 0.68514 0.0
O52 O 0.40852 0.14669 0.70023 0.0
C53 C 0.3469 0.13726 0.71252 0.0
O54 O 0.34047 0.14264 0.69744 0.0
H55 H 0.3836 0.17946 0.72007 0.0
H56 H 0.35309 0.17375 0.67394 0.0
N57 N 0.37374 0.13494 0.6777 0.0
N58 N 0.36487 0.11208 0.66246 0.0
C59 C 0.37037 0.11798 0.67799 0.0
C60 C 0.3704 0.13998 0.66135 0.0
C61 C 0.36496 0.12593 0.65193 0.0
C62 C 0.41852 0.14935 0.68668 0.0
O63 O 0.40922 0.15235 0.67214 0.0
H64 H 0.37122 0.11033 0.68962 0.0
H65 H 0.3717 0.15295 0.6566 0.0
O66 O 0.36499 0.13836 0.71611 0.0
H67 H 0.34599 0.20581 0.68504 0.0
H68 H 0.36134 0.126 0.63838 0.0
Cu69 Cu 0.86494 0.89253 0.20243 0.0
N70 N 0.8626 0.87052 0.19314 0.0
N71 N 0.86671 0.84176 0.19158 0.0
C72 C 0.87388 0.85649 0.19754 0.0
C73 C 0.85035 0.84676 0.18285 0.0
C74 C 0.84777 0.86449 0.18395 0.0
O75 O 0.89289 0.89564 0.20468 0.0
C76 C 0.847 0.90392 0.23506 0.0
O77 O 0.85566 0.91854 0.23355 0.0
H78 H 0.88661 0.85702 0.20566 0.0
H79 H 0.83529 0.87227 0.17936 0.0
N80 N 0.85408 0.90947 0.18754 0.0
N81 N 0.84269 0.93501 0.1772 0.0
C82 C 0.84971 0.92623 0.19111 0.0
C83 C 0.84985 0.90761 0.17076 0.0
C84 C 0.84275 0.92328 0.16438 0.0
C85 C 0.90364 0.88809 0.21602 0.0
O86 O 0.89529 0.87989 0.22864 0.0
H87 H 0.85173 0.93191 0.20362 0.0
H88 H 0.85216 0.89578 0.16353 0.0
O89 O 0.8501 0.89213 0.22387 0.0
H90 H 0.84022 0.83818 0.17713 0.0
H91 H 0.83853 0.9259 0.15118 0.0
Cu92 Cu 0.14463 0.129 0.83108 0.0
N93 N 0.15069 0.1522 0.83247 0.0
N94 N 0.15332 0.1793 0.8231 0.0
C95 C 0.14509 0.16406 0.82056 0.0
C96 C 0.16457 0.17687 0.83726 0.0
C97 C 0.16296 0.16014 0.84297 0.0
O98 O 0.11617 0.12837 0.82929 0.0
C99 C 0.17821 0.11783 0.81451 0.0
O100 O 0.18469 0.12062 0.83011 0.0
H101 H 0.13593 0.16119 0.80971 0.0
H102 H 0.1708 0.15403 0.85359 0.0
N103 N 0.15236 0.11563 0.8503 0.0
N104 N 0.16253 0.09214 0.86523 0.0
C105 C 0.15686 0.09853 0.84974 0.0
C106 C 0.15502 0.12027 0.86677 0.0
C107 C 0.16128 0.10581 0.87602 0.0
C108 C 0.10702 0.1363 0.8415 0.0
O109 O 0.11735 0.14384 0.85328 0.0
H110 H 0.15601 0.09096 0.8381 0.0
H111 H 0.15274 0.13324 0.8717 0.0
O112 O 0.15996 0.12028 0.81145 0.0
H113 H 0.17363 0.18637 0.84293 0.0
H114 H 0.16503 0.10552 0.88954 0.0
Cu115 Cu 0.89967 0.64159 0.29468 0.0
N116 N 0.90804 0.65058 0.27372 0.0
N117 N 0.9116 0.67092 0.25377 0.0
C118 C 0.90727 0.66757 0.27034 0.0
C119 C 0.91527 0.65535 0.24636 0.0
C120 C 0.91313 0.64279 0.25875 0.0
O121 O 0.91257 0.65421 0.31285 0.0
C122 C 0.86371 0.63682 0.28135 0.0
O123 O 0.87538 0.62733 0.27128 0.0
H124 H 0.90255 0.67726 0.2797 0.0
H125 H 0.91432 0.62899 0.25678 0.0
N126 N 0.90596 0.61799 0.29715 0.0
N127 N 0.90312 0.59073 0.30577 0.0
C128 C 0.89564 0.60715 0.30668 0.0
C129 C 0.9206 0.60816 0.29 0.0
C130 C 0.91883 0.5913 0.29524 0.0
C131 C 0.93083 0.65596 0.31053 0.0
O132 O 0.93937 0.64873 0.29698 0.0
H133 H 0.8826 0.61122 0.31384 0.0
H134 H 0.9317 0.61289 0.28154 0.0
O135 O 0.87119 0.64455 0.29403 0.0
H136 H 0.91878 0.6532 0.23291 0.0
H137 H 0.92847 0.58037 0.2917 0.0
Cu138 Cu 0.37204 0.39501 0.82431 0.0
N139 N 0.36138 0.37341 0.82642 0.0
N140 N 0.3555 0.3468 0.81719 0.0
C141 C 0.3678 0.35987 0.81675 0.0
C142 C 0.34079 0.35236 0.82782 0.0
C143 C 0.34437 0.36884 0.83336 0.0
O144 O 0.40037 0.39064 0.82372 0.0
C145 C 0.34272 0.41156 0.80501 0.0
O146 O 0.3358 0.41466 0.82054 0.0
H147 H 0.38081 0.36008 0.80882 0.0
H148 H 0.33458 0.37729 0.84086 0.0
N149 N 0.36622 0.41041 0.84246 0.0
N150 N 0.36086 0.43604 0.85551 0.0
C151 C 0.3684 0.42754 0.84158 0.0
C152 C 0.35735 0.40778 0.85762 0.0
C153 C 0.35402 0.42352 0.86569 0.0
C154 C 0.40696 0.38217 0.83672 0.0
O155 O 0.39453 0.37792 0.84873 0.0
H156 H 0.37478 0.4336 0.83052 0.0
H157 H 0.35292 0.39542 0.86219 0.0
O158 O 0.35973 0.40414 0.80335 0.0
H159 H 0.32772 0.34554 0.83048 0.0
H160 H 0.34635 0.42555 0.87777 0.0
Cu161 Cu 0.62553 0.89269 0.30831 0.0
N162 N 0.62338 0.87677 0.29036 0.0
N163 N 0.61961 0.8513 0.27752 0.0
C164 C 0.61816 0.86039 0.29236 0.0
C165 C 0.62586 0.86257 0.2657 0.0
C166 C 0.62822 0.87822 0.27366 0.0
O167 O 0.60514 0.88781 0.32501 0.0
C168 C 0.66444 0.87852 0.314 0.0
O169 O 0.65767 0.86392 0.30872 0.0
H170 H 0.61434 0.85508 0.30472 0.0
H171 H 0.63363 0.88969 0.2678 0.0
N172 N 0.62127 0.91549 0.30086 0.0
N173 N 0.62219 0.9443 0.30129 0.0
C174 C 0.62645 0.92938 0.3098 0.0
C175 C 0.61339 0.92172 0.28615 0.0
C176 C 0.61392 0.93948 0.28638 0.0
C177 C 0.58792 0.88885 0.31869 0.0
O178 O 0.58584 0.89361 0.30254 0.0
H179 H 0.63312 0.92845 0.32239 0.0
H180 H 0.60776 0.91393 0.27594 0.0
O181 O 0.6525 0.89141 0.31658 0.0
H182 H 0.62884 0.85972 0.25228 0.0
H183 H 0.60888 0.94808 0.27618 0.0
Cu184 Cu 0.68709 0.1522 0.38367 0.0
N185 N 0.68011 0.17508 0.37798 0.0
N186 N 0.68134 0.20381 0.37777 0.0
C187 C 0.68598 0.18906 0.38636 0.0
C188 C 0.67172 0.19892 0.36358 0.0
C189 C 0.67104 0.18117 0.36372 0.0
O190 O 0.68746 0.15082 0.40875 0.0
C191 C 0.72493 0.15623 0.36927 0.0
O192 O 0.72387 0.17109 0.37736 0.0
H193 H 0.69434 0.18832 0.39815 0.0
H194 H 0.66529 0.17321 0.3537 0.0
N195 N 0.668 0.1378 0.37574 0.0
N196 N 0.65369 0.11471 0.36535 0.0
C197 C 0.67082 0.1219 0.3689 0.0
C198 C 0.64848 0.14083 0.3765 0.0
C199 C 0.63961 0.12663 0.37012 0.0
C200 C 0.70037 0.15663 0.41866 0.0
O201 O 0.71654 0.1622 0.41202 0.0
H202 H 0.68514 0.11557 0.36701 0.0
H203 H 0.64124 0.15249 0.38153 0.0
O204 O 0.71148 0.14572 0.37162 0.0
H205 H 0.66665 0.20741 0.3533 0.0
H206 H 0.624 0.12524 0.36903 0.0
Cu207 Cu 0.88358 0.20212 0.88511 0.0
N208 N 0.89186 0.22086 0.87258 0.0
N209 N 0.90061 0.23576 0.84944 0.0
C210 C 0.89811 0.22 0.85615 0.0
C211 C 0.89576 0.24701 0.86222 0.0
C212 C 0.89039 0.23775 0.87652 0.0
O213 O 0.89791 0.18241 0.87471 0.0
C214 C 0.84278 0.19376 0.88961 0.0
O215 O 0.84872 0.18086 0.89956 0.0
H216 H 0.89968 0.20807 0.84895 0.0
H217 H 0.88504 0.24296 0.88866 0.0
N218 N 0.89057 0.20436 0.90831 0.0
N219 N 0.89029 0.20318 0.93717 0.0
C220 C 0.87967 0.20205 0.92256 0.0
C221 C 0.90862 0.20723 0.91407 0.0
C222 C 0.90852 0.20651 0.93178 0.0
C223 C 0.90671 0.17027 0.88309 0.0
O224 O 0.90314 0.16867 0.89963 0.0
H225 H 0.86432 0.19948 0.92223 0.0
H226 H 0.92115 0.20915 0.90588 0.0
O227 O 0.85529 0.20289 0.88229 0.0
H228 H 0.89564 0.26091 0.86118 0.0
H229 H 0.92114 0.20769 0.93997 0.0
Cu230 Cu 0.81209 0.39443 0.3949 0.0
N231 N 0.78732 0.38673 0.40032 0.0
N232 N 0.76369 0.368 0.4026 0.0
C233 C 0.78306 0.37001 0.4006 0.0
C234 C 0.75544 0.38413 0.4037 0.0
C235 C 0.77006 0.39567 0.40231 0.0
O236 O 0.83023 0.3841 0.41182 0.0
C237 C 0.80378 0.39098 0.36065 0.0
O238 O 0.78792 0.39949 0.36626 0.0
H239 H 0.79387 0.35956 0.39836 0.0
H240 H 0.76805 0.40956 0.40189 0.0
N241 N 0.81262 0.41855 0.39554 0.0
N242 N 0.82045 0.44538 0.38862 0.0
C243 C 0.82336 0.42834 0.38518 0.0
C244 C 0.80257 0.42972 0.40591 0.0
C245 C 0.80733 0.44622 0.40168 0.0
C246 C 0.82679 0.38804 0.42752 0.0
O247 O 0.8121 0.39906 0.43103 0.0
H248 H 0.83322 0.42296 0.37543 0.0
H249 H 0.79244 0.42616 0.41584 0.0
O250 O 0.81756 0.38724 0.37123 0.0
H251 H 0.73992 0.38739 0.40498 0.0
H252 H 0.80129 0.4579 0.40766 0.0
Cu253 Cu 0.64783 0.33129 0.88184 0.0
N254 N 0.65811 0.33651 0.8603 0.0
N255 N 0.66106 0.33613 0.83163 0.0
C256 C 0.65169 0.32997 0.84546 0.0
C257 C 0.6741 0.34688 0.83811 0.0
C258 C 0.6722 0.34712 0.85584 0.0
O259 O 0.61942 0.33132 0.87885 0.0
C260 C 0.67834 0.3089 0.89199 0.0
O261 O 0.68705 0.32358 0.89211 0.0
H262 H 0.64034 0.32079 0.84491 0.0
H263 H 0.68037 0.3546 0.8648 0.0
N264 N 0.65338 0.348 0.89832 0.0
N265 N 0.65994 0.36034 0.92353 0.0
C266 C 0.65803 0.34535 0.91502 0.0
C267 C 0.6524 0.36523 0.89624 0.0
C268 C 0.65635 0.37288 0.91178 0.0
C269 C 0.61167 0.34414 0.87061 0.0
O270 O 0.62295 0.35633 0.86546 0.0
H271 H 0.6596 0.33272 0.9209 0.0
H272 H 0.64894 0.37181 0.88429 0.0
O273 O 0.6602 0.30902 0.88825 0.0
H274 H 0.68404 0.35429 0.83059 0.0
H275 H 0.65674 0.38658 0.91422 0.0
Cu276 Cu 0.72184 0.38983 0.14779 0.0
N277 N 0.74392 0.39378 0.1611 0.0
N278 N 0.76451 0.39248 0.18345 0.0
C279 C 0.74939 0.38524 0.17554 0.0
C280 C 0.76878 0.40603 0.17349 0.0
C281 C 0.75597 0.40688 0.1598 0.0
O282 O 0.70098 0.40616 0.15557 0.0
C283 C 0.7297 0.35527 0.14366 0.0
O284 O 0.74538 0.36188 0.13713 0.0
H285 H 0.74191 0.37431 0.18045 0.0
H286 H 0.75491 0.41682 0.15005 0.0
N287 N 0.72694 0.3937 0.12439 0.0
N288 N 0.72395 0.39193 0.09579 0.0
C289 C 0.71473 0.39105 0.11115 0.0
C290 C 0.7444 0.39645 0.1171 0.0
C291 C 0.7426 0.39535 0.09948 0.0
C292 C 0.69747 0.4085 0.17154 0.0
O293 O 0.7063 0.39813 0.18276 0.0
H294 H 0.69976 0.38743 0.11279 0.0
H295 H 0.75781 0.39808 0.12408 0.0
O296 O 0.71637 0.36549 0.15003 0.0
H297 H 0.77961 0.41527 0.17641 0.0
H298 H 0.75424 0.39641 0.09013 0.0
Cu299 Cu 0.63473 0.22152 0.63694 0.0
N300 N 0.62572 0.24218 0.64722 0.0
N301 N 0.62422 0.26305 0.6671 0.0
C302 C 0.63451 0.24912 0.66083 0.0
C303 C 0.60839 0.2651 0.65681 0.0
C304 C 0.60931 0.25214 0.64458 0.0
O305 O 0.61944 0.20319 0.64644 0.0
C306 C 0.67668 0.21079 0.6363 0.0
O307 O 0.6733 0.19823 0.62558 0.0
H308 H 0.648 0.2437 0.66628 0.0
H309 H 0.59845 0.24982 0.63489 0.0
N310 N 0.63019 0.22216 0.61311 0.0
N311 N 0.63286 0.21689 0.58479 0.0
C312 C 0.64246 0.21787 0.59994 0.0
C313 C 0.61234 0.22421 0.60596 0.0
C314 C 0.61392 0.22104 0.58857 0.0
C315 C 0.61307 0.2032 0.66188 0.0
O316 O 0.61937 0.21453 0.67283 0.0
H317 H 0.65788 0.21466 0.60148 0.0
H318 H 0.59891 0.22692 0.61307 0.0
O319 O 0.66253 0.22018 0.64239 0.0
H320 H 0.59656 0.27477 0.65846 0.0
H321 H 0.60191 0.22124 0.57952 0.0
Cu322 Cu 0.81111 0.15261 0.15404 0.0
N323 N 0.81897 0.15851 0.17622 0.0
N324 N 0.81845 0.16025 0.20499 0.0
C325 C 0.8102 0.15362 0.19084 0.0
C326 C 0.83298 0.16976 0.19893 0.0
C327 C 0.83323 0.16869 0.18119 0.0
O328 O 0.80551 0.1282 0.15459 0.0
C329 C 0.7931 0.18392 0.14553 0.0
O330 O 0.81156 0.1878 0.14549 0.0
H331 H 0.79765 0.14569 0.19097 0.0
H332 H 0.84293 0.17508 0.17254 0.0
N333 N 0.83101 0.15553 0.13774 0.0
N334 N 0.84594 0.16131 0.11284 0.0
C335 C 0.82863 0.15946 0.12093 0.0
C336 C 0.85048 0.15461 0.14032 0.0
C337 C 0.85971 0.15823 0.12503 0.0
C338 C 0.81888 0.11835 0.16135 0.0
O339 O 0.83488 0.12522 0.16681 0.0
H340 H 0.81445 0.16143 0.1149 0.0
H341 H 0.85748 0.15163 0.1525 0.0
O342 O 0.78885 0.16845 0.14872 0.0
H343 H 0.84275 0.17702 0.2067 0.0
H344 H 0.87537 0.15846 0.12305 0.0
Cu345 Cu 0.8945 0.30184 0.63355 0.0
N346 N 0.90456 0.28237 0.64538 0.0
N347 N 0.91255 0.26593 0.66822 0.0
C348 C 0.91107 0.28207 0.66174 0.0
C349 C 0.90712 0.25561 0.65528 0.0
C350 C 0.9022 0.26579 0.64122 0.0
O351 O 0.90713 0.32201 0.64232 0.0
C352 C 0.8573 0.29683 0.64888 0.0
O353 O 0.86723 0.29436 0.66318 0.0
H354 H 0.91294 0.29354 0.66929 0.0
H355 H 0.89594 0.26155 0.62928 0.0
N356 N 0.90041 0.30019 0.61007 0.0
N357 N 0.89952 0.30594 0.5818 0.0
C358 C 0.89187 0.30985 0.5975 0.0
C359 C 0.91395 0.28978 0.60215 0.0
C360 C 0.91341 0.29327 0.58472 0.0
C361 C 0.90585 0.3282 0.65749 0.0
O362 O 0.893 0.32232 0.66831 0.0
H363 H 0.88018 0.31948 0.5999 0.0
H364 H 0.92365 0.28044 0.60861 0.0
O365 O 0.86609 0.30186 0.63544 0.0
H366 H 0.90573 0.24182 0.65621 0.0
H367 H 0.92284 0.28716 0.57504 0.0
Cu368 Cu 0.38936 0.72657 0.13541 0.0
N369 N 0.39966 0.74299 0.14997 0.0
N370 N 0.40655 0.75455 0.1755 0.0
C371 C 0.39688 0.74242 0.16709 0.0
C372 C 0.41576 0.76324 0.16306 0.0
C373 C 0.41157 0.75598 0.14728 0.0
O374 O 0.40628 0.70591 0.13861 0.0
C375 C 0.35272 0.73968 0.1425 0.0
O376 O 0.36212 0.75346 0.13848 0.0
H377 H 0.3879 0.73311 0.17322 0.0
H378 H 0.41722 0.75964 0.13487 0.0
N379 N 0.38862 0.73208 0.11197 0.0
N380 N 0.3801 0.72875 0.08437 0.0
C381 C 0.38217 0.72123 0.09999 0.0
C382 C 0.39085 0.74708 0.10372 0.0
C383 C 0.38571 0.74503 0.08665 0.0
C384 C 0.42363 0.70723 0.13286 0.0
O385 O 0.42761 0.72127 0.12438 0.0
H386 H 0.3785 0.70818 0.10296 0.0
H387 H 0.39493 0.75888 0.1098 0.0
O388 O 0.3621 0.72504 0.14225 0.0
H389 H 0.4253 0.77371 0.16521 0.0
H390 H 0.38522 0.75504 0.07695 0.0
Cu391 Cu 0.38438 0.80398 0.40123 0.0
N392 N 0.39057 0.78635 0.38527 0.0
N393 N 0.39654 0.77442 0.35939 0.0
C394 C 0.39256 0.78916 0.36826 0.0
C395 C 0.39707 0.7618 0.37139 0.0
C396 C 0.3934 0.76919 0.38733 0.0
O397 O 0.40293 0.8216 0.39605 0.0
C398 C 0.34513 0.79841 0.39708 0.0
O399 O 0.3526 0.7825 0.3972 0.0
H400 H 0.3906 0.80182 0.36251 0.0
H401 H 0.39242 0.76245 0.39943 0.0
N402 N 0.38794 0.79739 0.42428 0.0
N403 N 0.3866 0.79969 0.45302 0.0
C404 C 0.38098 0.80673 0.43779 0.0
C405 C 0.3984 0.78395 0.43117 0.0
C406 C 0.39751 0.78528 0.44888 0.0
C407 C 0.42074 0.81593 0.39723 0.0
O408 O 0.42424 0.80006 0.4027 0.0
H409 H 0.37205 0.81856 0.4364 0.0
H410 H 0.40665 0.77417 0.4239 0.0
O411 O 0.35655 0.81081 0.39858 0.0
H412 H 0.39988 0.74819 0.3689 0.0
H413 H 0.40491 0.77664 0.45797 0.0
Cu414 Cu 0.21209 0.87819 0.88549 0.0
N415 N 0.20724 0.87186 0.86276 0.0
N416 N 0.21273 0.86892 0.83447 0.0
C417 C 0.21552 0.87854 0.84865 0.0
C418 C 0.20202 0.85581 0.83985 0.0
C419 C 0.19866 0.85766 0.8573 0.0
O420 O 0.21677 0.90279 0.8854 0.0
C421 C 0.24895 0.85991 0.88373 0.0
O422 O 0.25148 0.86942 0.87 0.0
H423 H 0.22477 0.88943 0.84909 0.0
H424 H 0.19154 0.84873 0.86562 0.0
N425 N 0.19038 0.87434 0.89949 0.0
N426 N 0.17236 0.86682 0.92214 0.0
C427 C 0.19 0.86511 0.91421 0.0
C428 C 0.17237 0.88201 0.898 0.0
C429 C 0.16125 0.87743 0.91195 0.0
C430 C 0.21256 0.9127 0.8981 0.0
O431 O 0.20707 0.90592 0.91272 0.0
H432 H 0.20264 0.85794 0.9194 0.0
H433 H 0.16789 0.89079 0.88778 0.0
O434 O 0.23392 0.86306 0.89315 0.0
H435 H 0.19757 0.84527 0.8319 0.0
H436 H 0.14622 0.88176 0.91452 0.0
Cu437 Cu 0.13182 0.71564 0.39381 0.0
N438 N 0.13691 0.70567 0.37228 0.0
N439 N 0.1363 0.70276 0.34363 0.0
C440 C 0.12761 0.71023 0.35758 0.0
C441 C 0.15167 0.69306 0.34984 0.0
C442 C 0.15202 0.69491 0.36751 0.0
O443 O 0.10407 0.72295 0.39283 0.0
C444 C 0.15281 0.74509 0.4068 0.0
O445 O 0.14162 0.74559 0.42058 0.0
H446 H 0.11539 0.71966 0.35705 0.0
H447 H 0.16297 0.68939 0.3762 0.0
N448 N 0.13689 0.69919 0.4112 0.0
N449 N 0.14235 0.68646 0.43681 0.0
C450 C 0.14029 0.7016 0.42814 0.0
C451 C 0.13676 0.68201 0.40911 0.0
C452 C 0.14013 0.67416 0.42478 0.0
C453 C 0.09092 0.71631 0.40199 0.0
O454 O 0.09619 0.70652 0.41513 0.0
H455 H 0.14108 0.71417 0.43398 0.0
H456 H 0.13395 0.67565 0.39705 0.0
O457 O 0.14998 0.73412 0.39501 0.0
H458 H 0.16219 0.68552 0.34214 0.0
H459 H 0.14032 0.66042 0.42715 0.0
Cu460 Cu 0.28799 0.64651 0.88445 0.0
N461 N 0.26467 0.64362 0.87233 0.0
N462 N 0.2447 0.64164 0.84967 0.0
C463 C 0.26316 0.64398 0.85502 0.0
C464 C 0.23417 0.63975 0.86422 0.0
C465 C 0.24648 0.64107 0.87815 0.0
O466 O 0.30615 0.62708 0.87846 0.0
C467 C 0.284 0.68121 0.88456 0.0
O468 O 0.26763 0.67638 0.89154 0.0
H469 H 0.27546 0.64578 0.84653 0.0
H470 H 0.24232 0.64045 0.89154 0.0
N471 N 0.2851 0.64681 0.90858 0.0
N472 N 0.29157 0.65407 0.93586 0.0
C473 C 0.29664 0.65559 0.91912 0.0
C474 C 0.27228 0.63934 0.91903 0.0
C475 C 0.27624 0.64378 0.93583 0.0
C476 C 0.30108 0.61254 0.88413 0.0
O477 O 0.28468 0.61201 0.89291 0.0
H478 H 0.30867 0.66284 0.91448 0.0
H479 H 0.26093 0.63114 0.91486 0.0
O480 O 0.2963 0.66958 0.87899 0.0
H481 H 0.2186 0.6379 0.86477 0.0
H482 H 0.26825 0.63987 0.9471 0.0
Cu483 Cu 0.10922 0.79301 0.13542 0.0
N484 N 0.09953 0.77459 0.14785 0.0
N485 N 0.09605 0.75702 0.17036 0.0
C486 C 0.10722 0.76871 0.1628 0.0
C487 C 0.08065 0.75551 0.15974 0.0
C488 C 0.08284 0.76637 0.14584 0.0
O489 O 0.09406 0.81341 0.14364 0.0
C490 C 0.14575 0.77778 0.13602 0.0
O491 O 0.13527 0.766 0.12891 0.0
H492 H 0.12025 0.77361 0.16848 0.0
H493 H 0.07262 0.76859 0.13538 0.0
N494 N 0.10657 0.79051 0.11149 0.0
N495 N 0.11128 0.79488 0.0833 0.0
C496 C 0.11267 0.80146 0.09934 0.0
C497 C 0.10103 0.77658 0.10283 0.0
C498 C 0.10393 0.77922 0.08546 0.0
C499 C 0.07628 0.8146 0.13868 0.0
O500 O 0.07062 0.80355 0.12715 0.0
H501 H 0.11896 0.81362 0.10228 0.0
H502 H 0.09602 0.765 0.10876 0.0
O503 O 0.13722 0.7922 0.14014 0.0
H504 H 0.06849 0.74741 0.16201 0.0
H505 H 0.10121 0.77019 0.07524 0.0
Cu506 Cu 0.21049 0.63312 0.63738 0.0
N507 N 0.23128 0.64757 0.6338 0.0
N508 N 0.24595 0.67235 0.62905 0.0
C509 C 0.23007 0.66312 0.62601 0.0
C510 C 0.2577 0.66202 0.63902 0.0
C511 C 0.24855 0.64694 0.64208 0.0
O512 O 0.19216 0.63705 0.61841 0.0
C513 C 0.19313 0.62946 0.67118 0.0
O514 O 0.18723 0.61453 0.66594 0.0
H515 H 0.21711 0.66814 0.61943 0.0
H516 H 0.25346 0.6369 0.65092 0.0
N517 N 0.21912 0.60967 0.63708 0.0
N518 N 0.21856 0.58085 0.63843 0.0
C519 C 0.20782 0.59589 0.63693 0.0
C520 C 0.23764 0.60299 0.63824 0.0
C521 C 0.23733 0.5853 0.63919 0.0
C522 C 0.18179 0.65087 0.61566 0.0
O523 O 0.1809 0.663 0.62747 0.0
H524 H 0.19199 0.59692 0.63643 0.0
H525 H 0.25055 0.61038 0.63861 0.0
O526 O 0.20113 0.63935 0.66046 0.0
H527 H 0.27149 0.6654 0.64454 0.0
H528 H 0.24996 0.57639 0.64045 0.0
Cu529 Cu 0.2975 0.8913 0.63143 0.0
N530 N 0.27625 0.87853 0.62493 0.0
N531 N 0.26003 0.85495 0.6189 0.0
C532 C 0.27762 0.86205 0.61948 0.0
C533 C 0.247 0.86758 0.62407 0.0
C534 C 0.25705 0.8821 0.62781 0.0
O535 O 0.31963 0.88323 0.61727 0.0
C536 C 0.28941 0.89722 0.66611 0.0
O537 O 0.27782 0.90938 0.6593 0.0
H538 H 0.29138 0.85498 0.61718 0.0
H539 H 0.25094 0.89406 0.63317 0.0
N540 N 0.29303 0.91485 0.62665 0.0
N541 N 0.29686 0.94336 0.62641 0.0
C542 C 0.30393 0.92777 0.63208 0.0
C543 C 0.27862 0.92245 0.61716 0.0
C544 C 0.28092 0.93999 0.617 0.0
C545 C 0.32863 0.86849 0.6181 0.0
O546 O 0.32507 0.85821 0.63104 0.0
H547 H 0.31688 0.92568 0.63993 0.0
H548 H 0.26722 0.91571 0.61083 0.0
O549 O 0.30043 0.88783 0.65623 0.0
H550 H 0.23143 0.86625 0.62571 0.0
H551 H 0.27135 0.94951 0.61064 0.0
C552 C 0.16655 0.20614 0.81139 0.0
C553 C 0.15162 0.19434 0.81207 0.0
C554 C 0.16524 0.22025 0.80011 0.0
C555 C 0.12978 0.24707 0.77399 0.0
H556 H 0.17631 0.25992 0.74951 0.0
C557 C 0.13121 0.30938 0.73313 0.0
C558 C 0.14175 0.30874 0.71752 0.0
C559 C 0.13228 0.29546 0.74459 0.0
C560 C 0.16313 0.25643 0.75612 0.0
H561 H 0.12332 0.18858 0.80164 0.0
H562 H 0.1212 0.2129 0.78186 0.0
H563 H 0.17836 0.23577 0.76959 0.0
H564 H 0.16167 0.2927 0.70184 0.0
H565 H 0.16325 0.26832 0.72166 0.0
H566 H 0.11446 0.2675 0.76027 0.0
C567 C 0.1339 0.21133 0.79012 0.0
C568 C 0.16436 0.2427 0.76783 0.0
C569 C 0.13522 0.19722 0.80136 0.0
C570 C 0.15324 0.29366 0.71364 0.0
C571 C 0.15432 0.27973 0.72513 0.0
C572 C 0.12855 0.26081 0.7623 0.0
C573 C 0.14894 0.22299 0.78924 0.0
C574 C 0.1477 0.2378 0.77693 0.0
C575 C 0.14391 0.28045 0.7408 0.0
C576 C 0.14521 0.26569 0.75318 0.0
H577 H 0.17947 0.20432 0.8193 0.0
H578 H 0.177 0.22906 0.79997 0.0
H579 H 0.11667 0.24381 0.78086 0.0
H580 H 0.12202 0.32064 0.73651 0.0
H581 H 0.12419 0.29659 0.75658 0.0
C582 C 0.68642 0.63911 0.26238 0.0
C583 C 0.67952 0.63416 0.24617 0.0
C584 C 0.70624 0.64157 0.26499 0.0
C585 C 0.75441 0.62706 0.24899 0.0
H586 H 0.77271 0.66415 0.27719 0.0
C587 C 0.83643 0.63385 0.26062 0.0
C588 C 0.8426 0.63869 0.2771 0.0
C589 C 0.81666 0.63483 0.25626 0.0
C590 C 0.76783 0.65361 0.26946 0.0
H591 H 0.68797 0.6284 0.21982 0.0
H592 H 0.72295 0.6325 0.22444 0.0
H593 H 0.73802 0.66365 0.26986 0.0
H594 H 0.8328 0.64867 0.30186 0.0
H595 H 0.79792 0.64995 0.29441 0.0
H596 H 0.78393 0.61666 0.24898 0.0
C597 C 0.71286 0.63446 0.23512 0.0
C598 C 0.74798 0.65338 0.26517 0.0
C599 C 0.69286 0.6322 0.23244 0.0
C600 C 0.82848 0.64486 0.28907 0.0
C601 C 0.80853 0.64566 0.28475 0.0
C602 C 0.7742 0.6272 0.25339 0.0
C603 C 0.71976 0.63899 0.25149 0.0
C604 C 0.74104 0.64006 0.25494 0.0
C605 C 0.80237 0.64046 0.26831 0.0
C606 C 0.7812 0.64046 0.26371 0.0
H607 H 0.6765 0.64084 0.27322 0.0
H608 H 0.71107 0.64488 0.27778 0.0
H609 H 0.74947 0.61644 0.24138 0.0
H610 H 0.84693 0.6293 0.25096 0.0
H611 H 0.81261 0.63116 0.24336 0.0
C612 C 0.34647 0.31672 0.81136 0.0
C613 C 0.35664 0.33133 0.8067 0.0
C614 C 0.34741 0.3019 0.80099 0.0
C615 C 0.3774 0.28001 0.76662 0.0
H616 H 0.33063 0.25524 0.75807 0.0
C617 C 0.37972 0.21547 0.72908 0.0
C618 C 0.36453 0.21288 0.71734 0.0
C619 C 0.37875 0.22957 0.74034 0.0
C620 C 0.34382 0.26207 0.76024 0.0
H621 H 0.37539 0.3417 0.78703 0.0
H622 H 0.37709 0.31605 0.76924 0.0
H623 H 0.32893 0.28037 0.77702 0.0
H624 H 0.33627 0.22325 0.70844 0.0
H625 H 0.33476 0.24797 0.72781 0.0
H626 H 0.39221 0.26198 0.74957 0.0
C627 C 0.36868 0.31589 0.78108 0.0
C628 C 0.34289 0.27637 0.77128 0.0
C629 C 0.36772 0.33068 0.79137 0.0
C630 C 0.34836 0.22486 0.71714 0.0
C631 C 0.34736 0.23895 0.72844 0.0
C632 C 0.37834 0.26571 0.75562 0.0
C633 C 0.35858 0.30128 0.78572 0.0
C634 C 0.35964 0.28561 0.77452 0.0
C635 C 0.36254 0.2415 0.74021 0.0
C636 C 0.36155 0.25658 0.7522 0.0
H637 H 0.33794 0.31666 0.82311 0.0
H638 H 0.33959 0.29082 0.80507 0.0
H639 H 0.39066 0.28668 0.76895 0.0
H640 H 0.39249 0.20665 0.72953 0.0
H641 H 0.39064 0.231 0.74932 0.0
C642 C 0.69883 0.86751 0.30755 0.0
C643 C 0.68582 0.88106 0.31301 0.0
C644 C 0.71827 0.87055 0.30342 0.0
C645 C 0.74794 0.90596 0.28836 0.0
H646 H 0.79076 0.87156 0.29298 0.0
C647 C 0.82404 0.91579 0.2581 0.0
C648 C 0.83183 0.90166 0.24852 0.0
C649 C 0.80808 0.91391 0.26922 0.0
C650 C 0.77895 0.8813 0.29157 0.0
H651 H 0.68356 0.90826 0.31955 0.0
H652 H 0.71758 0.91349 0.31265 0.0
H653 H 0.75953 0.86713 0.30719 0.0
H654 H 0.82954 0.8743 0.24378 0.0
H655 H 0.80189 0.87107 0.26306 0.0
H656 H 0.76721 0.91994 0.27243 0.0
C657 C 0.7126 0.90056 0.31118 0.0
C658 C 0.76102 0.87875 0.2997 0.0
C659 C 0.69312 0.89752 0.3153 0.0
C660 C 0.82389 0.88548 0.25091 0.0
C661 C 0.80807 0.88359 0.26208 0.0
C662 C 0.76589 0.90853 0.28028 0.0
C663 C 0.72528 0.88723 0.30468 0.0
C664 C 0.74512 0.89087 0.29789 0.0
C665 C 0.79969 0.89784 0.27111 0.0
C666 C 0.78148 0.89606 0.28146 0.0
H667 H 0.69376 0.85467 0.30564 0.0
H668 H 0.72749 0.85997 0.29834 0.0
H669 H 0.736 0.91547 0.28643 0.0
H670 H 0.8298 0.92843 0.25659 0.0
H671 H 0.80212 0.92511 0.27613 0.0
C672 C 0.80128 0.14425 0.22765 0.0
C673 C 0.81231 0.15825 0.22269 0.0
C674 C 0.79445 0.14278 0.24456 0.0
C675 C 0.78289 0.16937 0.28311 0.0
H676 H 0.77924 0.12512 0.30572 0.0
C677 C 0.75372 0.16543 0.35223 0.0
C678 C 0.73938 0.15341 0.35511 0.0
C679 C 0.76513 0.16469 0.33727 0.0
C680 C 0.78008 0.13756 0.29955 0.0
H681 H 0.8251 0.18148 0.23198 0.0
H682 H 0.81364 0.17869 0.26147 0.0
H683 H 0.79442 0.12653 0.27726 0.0
H684 H 0.72667 0.13051 0.34494 0.0
H685 H 0.74655 0.12928 0.31877 0.0
H686 H 0.76839 0.18041 0.30522 0.0
C687 C 0.80997 0.16898 0.25218 0.0
C688 C 0.78875 0.13838 0.28321 0.0
C689 C 0.81676 0.17048 0.23526 0.0
C690 C 0.73758 0.13998 0.34315 0.0
C691 C 0.74902 0.13925 0.32814 0.0
C692 C 0.7743 0.16856 0.29941 0.0
C693 C 0.7985 0.15524 0.25701 0.0
C694 C 0.79014 0.1543 0.27473 0.0
C695 C 0.7625 0.15193 0.32478 0.0
C696 C 0.77268 0.15265 0.30781 0.0
H697 H 0.79782 0.13441 0.21846 0.0
H698 H 0.78555 0.13209 0.24774 0.0
H699 H 0.78331 0.18181 0.27687 0.0
H700 H 0.75564 0.17586 0.36123 0.0
H701 H 0.77569 0.17443 0.33527 0.0
C702 C 0.92673 0.27135 0.69683 0.0
C703 C 0.91517 0.26146 0.68613 0.0
C704 C 0.92767 0.2682 0.71456 0.0
C705 C 0.91585 0.23597 0.7482 0.0
H706 H 0.91532 0.27571 0.77843 0.0
C707 C 0.9172 0.22795 0.82202 0.0
C708 C 0.90521 0.23955 0.83175 0.0
C709 C 0.92049 0.23087 0.80451 0.0
C710 C 0.91533 0.26446 0.7702 0.0
H711 H 0.89566 0.24035 0.68568 0.0
H712 H 0.89703 0.23498 0.7165 0.0
H713 H 0.91694 0.2798 0.74742 0.0
H714 H 0.88745 0.26345 0.83075 0.0
H715 H 0.89282 0.26843 0.80016 0.0
H716 H 0.91328 0.22069 0.7709 0.0
C717 C 0.90577 0.24496 0.71123 0.0
C718 C 0.91656 0.26678 0.75237 0.0
C719 C 0.90497 0.24803 0.69349 0.0
C720 C 0.89696 0.25438 0.82366 0.0
C721 C 0.90008 0.25723 0.80609 0.0
C722 C 0.91448 0.23365 0.76601 0.0
C723 C 0.91692 0.25515 0.72205 0.0
C724 C 0.91668 0.25258 0.7411 0.0
C725 C 0.91171 0.2454 0.79622 0.0
C726 C 0.91406 0.24787 0.77727 0.0
H727 H 0.93492 0.28167 0.6915 0.0
H728 H 0.93673 0.27609 0.72239 0.0
H729 H 0.91617 0.22469 0.73999 0.0
H730 H 0.924 0.21655 0.82796 0.0
H731 H 0.92989 0.22167 0.79747 0.0
C732 C 0.82215 0.38625 0.33277 0.0
C733 C 0.80476 0.38578 0.34239 0.0
C734 C 0.82189 0.38358 0.31489 0.0
C735 C 0.79285 0.36571 0.27971 0.0
H736 H 0.8102 0.40364 0.25212 0.0
C737 C 0.76097 0.38081 0.21286 0.0
C738 C 0.77258 0.3882 0.20016 0.0
C739 C 0.76824 0.37785 0.22944 0.0
C740 C 0.80565 0.39271 0.25951 0.0
H741 H 0.7738 0.38124 0.34117 0.0
H742 H 0.77345 0.37613 0.31028 0.0
H743 H 0.81779 0.40244 0.28278 0.0
H744 H 0.80122 0.39761 0.19477 0.0
H745 H 0.81407 0.39222 0.2237 0.0
H746 H 0.78042 0.35608 0.25663 0.0
C747 C 0.78723 0.3787 0.31637 0.0
C748 C 0.81002 0.39205 0.2771 0.0
C749 C 0.78741 0.38173 0.33405 0.0
C750 C 0.79184 0.39211 0.20433 0.0
C751 C 0.79918 0.38904 0.22093 0.0
C752 C 0.78865 0.36627 0.26211 0.0
C753 C 0.80434 0.37996 0.30652 0.0
C754 C 0.80311 0.37884 0.28747 0.0
C755 C 0.78738 0.38207 0.23378 0.0
C756 C 0.79441 0.38009 0.25188 0.0
H757 H 0.83568 0.38947 0.33891 0.0
H758 H 0.83528 0.38462 0.30756 0.0
H759 H 0.78753 0.35527 0.28738 0.0
H760 H 0.74597 0.37792 0.21021 0.0
H761 H 0.75853 0.37281 0.23903 0.0
C762 C 0.63962 0.2646 0.69577 0.0
C763 C 0.6285 0.27255 0.6825 0.0
C764 C 0.64376 0.27362 0.71074 0.0
C765 C 0.62654 0.31082 0.73718 0.0
H766 H 0.67693 0.30257 0.75928 0.0
C767 C 0.63928 0.32635 0.80865 0.0
C768 C 0.65758 0.33199 0.81381 0.0
C769 C 0.63612 0.32137 0.79165 0.0
C770 C 0.66287 0.30525 0.7532 0.0
H771 H 0.6131 0.29632 0.67462 0.0
H772 H 0.62037 0.31217 0.70086 0.0
H773 H 0.6711 0.28987 0.73124 0.0
H774 H 0.68674 0.33725 0.80492 0.0
H775 H 0.68113 0.32883 0.77512 0.0
H776 H 0.61835 0.32628 0.75913 0.0
C777 C 0.62573 0.29886 0.69967 0.0
C778 C 0.65944 0.29777 0.7372 0.0
C779 C 0.62156 0.28979 0.68464 0.0
C780 C 0.67247 0.33302 0.80139 0.0
C781 C 0.6693 0.32803 0.78434 0.0
C782 C 0.62998 0.31834 0.75319 0.0
C783 C 0.63692 0.29087 0.7129 0.0
C784 C 0.6411 0.30018 0.72914 0.0
C785 C 0.65115 0.32195 0.77931 0.0
C786 C 0.64808 0.31539 0.76154 0.0
H787 H 0.64482 0.25125 0.69481 0.0
H788 H 0.652 0.26691 0.72081 0.0
H789 H 0.61222 0.31289 0.7314 0.0
H790 H 0.62735 0.32569 0.81776 0.0
H791 H 0.62202 0.3166 0.78833 0.0
C792 C 0.32311 0.7581 0.15011 0.0
C793 C 0.33147 0.74165 0.14615 0.0
C794 C 0.30287 0.76089 0.15161 0.0
C795 C 0.25759 0.74383 0.13567 0.0
H796 H 0.23284 0.77574 0.16855 0.0
C797 C 0.17425 0.75652 0.13725 0.0
C798 C 0.16678 0.77361 0.13939 0.0
C799 C 0.19405 0.75216 0.13973 0.0
C800 C 0.23956 0.76694 0.15918 0.0
H801 H 0.32521 0.71502 0.14138 0.0
H802 H 0.28958 0.71989 0.14398 0.0
H803 H 0.26784 0.76803 0.17081 0.0
H804 H 0.17427 0.79949 0.14623 0.0
H805 H 0.20923 0.79191 0.15031 0.0
H806 H 0.22953 0.74299 0.12379 0.0
C807 C 0.2988 0.73066 0.14581 0.0
C808 C 0.25959 0.76245 0.16052 0.0
C809 C 0.31918 0.72783 0.14444 0.0
C810 C 0.17959 0.78623 0.14445 0.0
C811 C 0.19958 0.78185 0.14687 0.0
C812 C 0.23762 0.74835 0.13431 0.0
C813 C 0.29043 0.74731 0.1491 0.0
C814 C 0.26886 0.75092 0.14871 0.0
C815 C 0.20705 0.76477 0.14433 0.0
C816 C 0.22835 0.76001 0.14599 0.0
H817 H 0.33219 0.76902 0.15162 0.0
H818 H 0.29696 0.77389 0.15398 0.0
H819 H 0.26433 0.73522 0.12615 0.0
H820 H 0.16478 0.74639 0.13359 0.0
H821 H 0.19916 0.73883 0.13806 0.0
C822 C 0.3128 0.81083 0.40804 0.0
C823 C 0.32366 0.80109 0.39575 0.0
C824 C 0.29235 0.80986 0.40895 0.0
C825 C 0.249 0.79604 0.38498 0.0
H826 H 0.23016 0.78066 0.42923 0.0
C827 C 0.18198 0.755 0.39068 0.0
C828 C 0.16983 0.75621 0.40532 0.0
C829 C 0.19886 0.76433 0.38959 0.0
C830 C 0.23496 0.7853 0.41685 0.0
H831 H 0.32181 0.7835 0.37428 0.0
H832 H 0.2863 0.78232 0.3754 0.0
H833 H 0.26306 0.79122 0.42681 0.0
H834 H 0.16572 0.7687 0.43013 0.0
H835 H 0.19515 0.78525 0.42812 0.0
H836 H 0.22117 0.78987 0.37489 0.0
C837 C 0.29338 0.7906 0.38441 0.0
C838 C 0.25386 0.79136 0.41548 0.0
C839 C 0.31372 0.79127 0.38376 0.0
C840 C 0.17475 0.76742 0.41867 0.0
C841 C 0.19171 0.77683 0.41756 0.0
C842 C 0.23008 0.79014 0.38637 0.0
C843 C 0.28249 0.79944 0.39733 0.0
C844 C 0.26132 0.79626 0.39942 0.0
C845 C 0.20411 0.77527 0.40306 0.0
C846 C 0.22302 0.78411 0.4022 0.0
H847 H 0.3202 0.81826 0.41761 0.0
H848 H 0.28432 0.81682 0.41903 0.0
H849 H 0.25425 0.79994 0.37247 0.0
H850 H 0.17873 0.7465 0.38013 0.0
H851 H 0.20814 0.76248 0.37835 0.0
C852 C 0.27464 0.838 0.87337 0.0
C853 C 0.26086 0.84351 0.88598 0.0
C854 C 0.28332 0.82127 0.87377 0.0
C855 C 0.29057 0.78211 0.90122 0.0
H856 H 0.28754 0.75735 0.858 0.0
C857 C 0.27907 0.71009 0.89796 0.0
C858 C 0.28815 0.69973 0.8851 0.0
C859 C 0.28124 0.72781 0.8983 0.0
C860 C 0.28894 0.76412 0.8701 0.0
H861 H 0.24636 0.83604 0.90949 0.0
H862 H 0.26144 0.80697 0.91019 0.0
H863 H 0.28136 0.78858 0.85854 0.0
H864 H 0.30715 0.69975 0.86276 0.0
H865 H 0.3107 0.73119 0.86312 0.0
H866 H 0.29731 0.75754 0.91288 0.0
C867 C 0.26563 0.81556 0.9 0.0
C868 C 0.28536 0.78205 0.87042 0.0
C869 C 0.2569 0.83225 0.89957 0.0
C870 C 0.3 0.70745 0.8728 0.0
C871 C 0.30195 0.7254 0.87299 0.0
C872 C 0.29412 0.76421 0.90088 0.0
C873 C 0.27852 0.80969 0.88684 0.0
C874 C 0.28549 0.79118 0.88609 0.0
C875 C 0.29243 0.73577 0.8857 0.0
C876 C 0.29267 0.75493 0.88542 0.0
H877 H 0.2781 0.84634 0.86273 0.0
H878 H 0.2934 0.81726 0.86358 0.0
H879 H 0.2912 0.78877 0.91343 0.0
H880 H 0.26998 0.70453 0.90773 0.0
H881 H 0.27348 0.73538 0.90812 0.0
C882 C 0.26079 0.70027 0.63488 0.0
C883 C 0.24816 0.69038 0.62512 0.0
C884 C 0.26196 0.71793 0.63188 0.0
C885 C 0.23394 0.7556 0.61418 0.0
H886 H 0.28382 0.77696 0.61703 0.0
C887 C 0.24114 0.82903 0.62425 0.0
C888 C 0.25675 0.83692 0.6161 0.0
C889 C 0.23937 0.81117 0.62312 0.0
C890 C 0.26978 0.77122 0.61599 0.0
H891 H 0.22736 0.69154 0.60404 0.0
H892 H 0.22932 0.72241 0.59895 0.0
H893 H 0.28278 0.74571 0.61889 0.0
H894 H 0.28198 0.83227 0.59945 0.0
H895 H 0.2789 0.80121 0.59749 0.0
H896 H 0.22095 0.78117 0.61134 0.0
C897 C 0.23813 0.71642 0.60909 0.0
C898 C 0.26917 0.75329 0.61725 0.0
C899 C 0.23702 0.69869 0.61203 0.0
C900 C 0.27002 0.8266 0.60618 0.0
C901 C 0.26826 0.80877 0.60506 0.0
C902 C 0.23454 0.77357 0.613 0.0
C903 C 0.25053 0.72628 0.61907 0.0
C904 C 0.25123 0.74526 0.61655 0.0
C905 C 0.25316 0.80078 0.61382 0.0
C906 C 0.25246 0.78161 0.61404 0.0
H907 H 0.26939 0.69456 0.64525 0.0
H908 H 0.27145 0.72516 0.63999 0.0
H909 H 0.21986 0.74985 0.61372 0.0
H910 H 0.23075 0.8365 0.63213 0.0
H911 H 0.22766 0.80544 0.63016 0.0
C912 C 0.86904 0.81032 0.18557 0.0
C913 C 0.87327 0.82436 0.19613 0.0
C914 C 0.87446 0.7934 0.19057 0.0
C915 C 0.88514 0.76786 0.22961 0.0
H916 H 0.9083 0.73342 0.1985 0.0
C917 C 0.91446 0.70239 0.25513 0.0
C918 C 0.91027 0.68763 0.24566 0.0
C919 C 0.91122 0.71881 0.24807 0.0
C920 C 0.90166 0.74285 0.2073 0.0
H921 H 0.88667 0.83147 0.22025 0.0
H922 H 0.89626 0.8022 0.22876 0.0
H923 H 0.89988 0.76257 0.18791 0.0
H924 H 0.9 0.6785 0.22113 0.0
H925 H 0.89408 0.70727 0.20877 0.0
H926 H 0.88657 0.7483 0.24893 0.0
C927 C 0.88865 0.80423 0.21666 0.0
C928 C 0.89685 0.75953 0.20123 0.0
C929 C 0.88335 0.82108 0.21164 0.0
C930 C 0.9035 0.68963 0.22868 0.0
C931 C 0.90011 0.70612 0.22162 0.0
C932 C 0.88984 0.75124 0.23564 0.0
C933 C 0.88406 0.79017 0.20632 0.0
C934 C 0.88871 0.77227 0.21238 0.0
C935 C 0.90353 0.72093 0.23138 0.0
C936 C 0.89834 0.73854 0.22463 0.0
H937 H 0.86145 0.81242 0.17349 0.0
H938 H 0.87066 0.78283 0.18235 0.0
H939 H 0.87849 0.77726 0.23845 0.0
H940 H 0.92004 0.70123 0.26812 0.0
H941 H 0.91453 0.72989 0.2558 0.0
C942 C 0.20552 0.3711 0.71989 0.0
C943 C 0.18768 0.38054 0.72259 0.0
C944 C 0.22252 0.37567 0.72814 0.0
C945 C 0.24557 0.41221 0.74837 0.0
H946 H 0.28216 0.37632 0.76526 0.0
C947 C 0.31198 0.42395 0.79201 0.0
C948 C 0.32868 0.41269 0.79059 0.0
C949 C 0.29572 0.42184 0.78155 0.0
C950 C 0.27229 0.38649 0.76031 0.0
H951 H 0.17359 0.40205 0.73637 0.0
H952 H 0.20359 0.41008 0.75108 0.0
H953 H 0.25098 0.36859 0.75336 0.0
H954 H 0.34215 0.39137 0.77611 0.0
H955 H 0.31378 0.3878 0.75758 0.0
H956 H 0.26693 0.43013 0.7556 0.0
C957 C 0.2043 0.39917 0.74238 0.0
C958 C 0.25433 0.38207 0.7536 0.0
C959 C 0.18712 0.39449 0.73412 0.0
C960 C 0.32952 0.40029 0.77743 0.0
C961 C 0.31317 0.3981 0.767 0.0
C962 C 0.26359 0.41666 0.75515 0.0
C963 C 0.22222 0.38985 0.73936 0.0
C964 C 0.24078 0.39484 0.74746 0.0
C965 C 0.29578 0.40837 0.76949 0.0
C966 C 0.27719 0.40382 0.76114 0.0
H967 H 0.20649 0.36024 0.71111 0.0
H968 H 0.23606 0.36833 0.72533 0.0
H969 H 0.23557 0.42233 0.74353 0.0
H970 H 0.31095 0.43365 0.80204 0.0
H971 H 0.28261 0.42996 0.78383 0.0
C972 C 0.62542 0.82388 0.26135 0.0
C973 C 0.61677 0.83306 0.27528 0.0
C974 C 0.62347 0.8061 0.25966 0.0
C975 C 0.59417 0.76983 0.27482 0.0
H976 H 0.63915 0.74196 0.25852 0.0
C977 C 0.59786 0.69462 0.27521 0.0
C978 C 0.6059 0.68642 0.26044 0.0
C979 C 0.59867 0.71251 0.27739 0.0
C980 C 0.62639 0.74956 0.26296 0.0
H981 H 0.59867 0.83052 0.29806 0.0
H982 H 0.59578 0.79957 0.29539 0.0
H983 H 0.64138 0.77299 0.26144 0.0
H984 H 0.62049 0.69106 0.2361 0.0
H985 H 0.62212 0.72189 0.24004 0.0
H986 H 0.57929 0.74622 0.27649 0.0
C987 C 0.60393 0.80615 0.28564 0.0
C988 C 0.62764 0.76741 0.26459 0.0
C989 C 0.60581 0.82395 0.2873 0.0
C990 C 0.61456 0.69667 0.24786 0.0
C991 C 0.61547 0.71447 0.25008 0.0
C992 C 0.59296 0.75192 0.27329 0.0
C993 C 0.61289 0.79694 0.27189 0.0
C994 C 0.61151 0.77784 0.27041 0.0
C995 C 0.60764 0.72262 0.26489 0.0
C996 C 0.60901 0.74159 0.2672 0.0
H997 H 0.63407 0.83029 0.25187 0.0
H998 H 0.6303 0.79955 0.24872 0.0
H999 H 0.58136 0.77742 0.27915 0.0
H1000 H 0.59121 0.68722 0.28524 0.0
H1001 H 0.59262 0.71838 0.28902 0.0
C1002 C 0.31879 0.11928 0.71825 0.0
C1003 C 0.33275 0.13026 0.72462 0.0
C1004 C 0.30278 0.11512 0.72832 0.0
C1005 C 0.27419 0.10349 0.75618 0.0
H1006 H 0.24406 0.14388 0.77276 0.0
C1007 C 0.20916 0.10324 0.80433 0.0
C1008 C 0.1928 0.11434 0.80082 0.0
C1009 C 0.22562 0.10298 0.79364 0.0
C1010 C 0.25226 0.13251 0.76809 0.0
H1011 H 0.34141 0.14513 0.7466 0.0
H1012 H 0.31294 0.13816 0.76427 0.0
H1013 H 0.27576 0.14724 0.75881 0.0
H1014 H 0.18036 0.1334 0.78311 0.0
H1015 H 0.20944 0.13321 0.76444 0.0
H1016 H 0.25076 0.08876 0.76572 0.0
C1017 C 0.31461 0.13261 0.75153 0.0
C1018 C 0.2705 0.1344 0.76035 0.0
C1019 C 0.33094 0.13645 0.74154 0.0
C1020 C 0.19269 0.12452 0.7859 0.0
C1021 C 0.20938 0.12455 0.77537 0.0
C1022 C 0.25608 0.10157 0.76422 0.0
C1023 C 0.30018 0.12221 0.74484 0.0
C1024 C 0.28161 0.11993 0.75426 0.0
C1025 C 0.22618 0.11414 0.77946 0.0
C1026 C 0.24489 0.11608 0.77013 0.0
H1027 H 0.31987 0.11444 0.70517 0.0
H1028 H 0.29185 0.10717 0.72281 0.0
H1029 H 0.28244 0.09214 0.75152 0.0
H1030 H 0.20961 0.0954 0.81588 0.0
H1031 H 0.23838 0.0949 0.79712 0.0
C1032 C 0.28053 0.90674 0.69587 0.0
C1033 C 0.28748 0.89353 0.68472 0.0
C1034 C 0.27558 0.90311 0.71289 0.0
C1035 C 0.25691 0.86866 0.73895 0.0
H1036 H 0.26822 0.8985 0.77728 0.0
C1037 C 0.22746 0.85646 0.80776 0.0
C1038 C 0.22178 0.87093 0.81781 0.0
C1039 C 0.23713 0.85839 0.79201 0.0
C1040 C 0.2647 0.89014 0.7667 0.0
H1041 H 0.2953 0.86621 0.68282 0.0
H1042 H 0.28634 0.85976 0.71269 0.0
H1043 H 0.28331 0.90318 0.7493 0.0
H1044 H 0.22138 0.89879 0.819 0.0
H1045 H 0.2377 0.90227 0.79136 0.0
H1046 H 0.23771 0.85602 0.75606 0.0
C1047 C 0.28483 0.87296 0.70819 0.0
C1048 C 0.27349 0.89276 0.75069 0.0
C1049 C 0.29013 0.87666 0.69116 0.0
C1050 C 0.22576 0.88739 0.81164 0.0
C1051 C 0.23524 0.88934 0.79582 0.0
C1052 C 0.24794 0.86614 0.75493 0.0
C1053 C 0.27718 0.88612 0.71913 0.0
C1054 C 0.26952 0.88219 0.73658 0.0
C1055 C 0.24121 0.87486 0.78581 0.0
C1056 C 0.2515 0.87699 0.76899 0.0
H1057 H 0.27833 0.91987 0.69126 0.0
H1058 H 0.2696 0.91351 0.72093 0.0
H1059 H 0.25334 0.86045 0.72827 0.0
H1060 H 0.22492 0.84358 0.81227 0.0
H1061 H 0.24173 0.8469 0.78486 0.0
C1062 C 0.14607 0.70573 0.31308 0.0
C1063 C 0.1314 0.70605 0.32581 0.0
C1064 C 0.14147 0.70987 0.29598 0.0
C1065 C 0.10281 0.73238 0.26937 0.0
H1066 H 0.13173 0.71029 0.23167 0.0
C1067 C 0.08339 0.74563 0.1978 0.0
C1068 C 0.09925 0.7492 0.18704 0.0
C1069 C 0.08661 0.73919 0.21445 0.0
C1070 C 0.12358 0.71662 0.24207 0.0
H1071 H 0.1003 0.71041 0.33042 0.0
H1072 H 0.09214 0.71721 0.30056 0.0
H1073 H 0.1384 0.70102 0.26116 0.0
H1074 H 0.13089 0.7482 0.18511 0.0
H1075 H 0.13653 0.73684 0.2141 0.0
H1076 H 0.08789 0.74786 0.25016 0.0
C1077 C 0.10731 0.71423 0.30382 0.0
C1078 C 0.12745 0.71137 0.25901 0.0
C1079 C 0.11196 0.71026 0.32096 0.0
C1080 C 0.11838 0.74572 0.19314 0.0
C1081 C 0.1216 0.73909 0.20969 0.0
C1082 C 0.09881 0.7375 0.25241 0.0
C1083 C 0.12204 0.71427 0.2911 0.0
C1084 C 0.11727 0.71929 0.27294 0.0
C1085 C 0.10576 0.73594 0.22063 0.0
C1086 C 0.10928 0.72981 0.23857 0.0
H1087 H 0.16123 0.70281 0.31642 0.0
H1088 H 0.15329 0.71005 0.28669 0.0
H1089 H 0.09488 0.73902 0.27969 0.0
H1090 H 0.06849 0.7483 0.19353 0.0
H1091 H 0.0741 0.73677 0.22253 0.0
C1092 C 0.24655 0.65099 0.81922 0.0
C1093 C 0.23769 0.64134 0.83214 0.0
C1094 C 0.23978 0.65068 0.80223 0.0
C1095 C 0.21353 0.62399 0.7718 0.0
H1096 H 0.20712 0.66614 0.7452 0.0
C1097 C 0.18494 0.62274 0.70196 0.0
C1098 C 0.19398 0.63328 0.68992 0.0
C1099 C 0.1881 0.62477 0.71964 0.0
C1100 C 0.20902 0.6542 0.75234 0.0
H1101 H 0.21485 0.62369 0.83723 0.0
H1102 H 0.20311 0.62305 0.80755 0.0
H1103 H 0.21743 0.66741 0.77519 0.0
H1104 H 0.21293 0.65467 0.68717 0.0
H1105 H 0.21878 0.65795 0.7178 0.0
H1106 H 0.20578 0.61066 0.74893 0.0
C1107 C 0.21528 0.6309 0.8106 0.0
C1108 C 0.21489 0.65496 0.76958 0.0
C1109 C 0.2219 0.63137 0.82763 0.0
C1110 C 0.20561 0.64637 0.69605 0.0
C1111 C 0.20893 0.64828 0.71371 0.0
C1112 C 0.20785 0.62321 0.75452 0.0
C1113 C 0.22413 0.64056 0.79768 0.0
C1114 C 0.21731 0.63985 0.77949 0.0
C1115 C 0.20055 0.63728 0.72577 0.0
C1116 C 0.2056 0.63829 0.74448 0.0
H1117 H 0.2586 0.65894 0.82228 0.0
H1118 H 0.24702 0.65816 0.79257 0.0
H1119 H 0.21549 0.61209 0.779 0.0
H1120 H 0.1758 0.61259 0.69771 0.0
H1121 H 0.18098 0.61631 0.72849 0.0
C1122 C 0.40422 0.78659 0.33075 0.0
C1123 C 0.39886 0.77259 0.34094 0.0
C1124 C 0.40578 0.78503 0.31283 0.0
C1125 C 0.38928 0.75845 0.27655 0.0
H1126 H 0.43039 0.77988 0.25107 0.0
C1127 C 0.40372 0.74323 0.20513 0.0
C1128 C 0.40718 0.75701 0.19395 0.0
C1129 C 0.4033 0.74563 0.22294 0.0
C1130 C 0.4187 0.77398 0.25799 0.0
H1131 H 0.39116 0.74586 0.34006 0.0
H1132 H 0.39432 0.74302 0.30899 0.0
H1133 H 0.42871 0.78288 0.28238 0.0
H1134 H 0.41342 0.78407 0.19291 0.0
H1135 H 0.41277 0.78825 0.22417 0.0
H1136 H 0.37932 0.74947 0.25224 0.0
C1137 C 0.39701 0.75533 0.31482 0.0
C1138 C 0.41773 0.7757 0.27594 0.0
C1139 C 0.39543 0.7569 0.33273 0.0
C1140 C 0.4108 0.77317 0.20113 0.0
C1141 C 0.41042 0.77556 0.21904 0.0
C1142 C 0.39029 0.7567 0.25866 0.0
C1143 C 0.40205 0.76941 0.30461 0.0
C1144 C 0.40306 0.76785 0.28547 0.0
C1145 C 0.40639 0.76185 0.23014 0.0
C1146 C 0.40509 0.76433 0.24915 0.0
H1147 H 0.40726 0.79881 0.33658 0.0
H1148 H 0.40956 0.79619 0.30541 0.0
H1149 H 0.37751 0.75256 0.28338 0.0
H1150 H 0.40141 0.73049 0.20017 0.0
H1151 H 0.40064 0.73468 0.23111 0.0
C1152 C 0.70794 0.29305 0.90379 0.0
C1153 C 0.69025 0.29265 0.89469 0.0
C1154 C 0.72078 0.2785 0.90456 0.0
C1155 C 0.7425 0.24376 0.90971 0.0
H1156 H 0.75649 0.22406 0.8652 0.0
C1157 C 0.80858 0.19486 0.90175 0.0
C1158 C 0.82177 0.19957 0.88887 0.0
C1159 C 0.78961 0.20262 0.90249 0.0
C1160 C 0.75265 0.22932 0.87775 0.0
H1161 H 0.67181 0.27647 0.87974 0.0
H1162 H 0.69455 0.25093 0.88085 0.0
H1163 H 0.7282 0.24449 0.86771 0.0
H1164 H 0.82498 0.2153 0.86606 0.0
H1165 H 0.79199 0.22862 0.86726 0.0
H1166 H 0.76743 0.22921 0.91963 0.0
C1167 C 0.69836 0.26257 0.88746 0.0
C1168 C 0.73634 0.24091 0.87922 0.0
C1169 C 0.6853 0.27712 0.88692 0.0
C1170 C 0.81521 0.21141 0.87619 0.0
C1171 C 0.79623 0.21899 0.87681 0.0
C1172 C 0.7587 0.23206 0.90828 0.0
C1173 C 0.7164 0.26321 0.89607 0.0
C1174 C 0.73145 0.24867 0.89512 0.0
C1175 C 0.78336 0.21505 0.89023 0.0
C1176 C 0.76433 0.22511 0.89218 0.0
H1177 H 0.71214 0.30481 0.90995 0.0
H1178 H 0.73461 0.27951 0.91115 0.0
H1179 H 0.73901 0.24941 0.92216 0.0
H1180 H 0.81318 0.18582 0.91174 0.0
H1181 H 0.77998 0.1992 0.91291 0.0
C1182 C 0.83016 0.28513 0.63153 0.0
C1183 C 0.83735 0.29034 0.64752 0.0
C1184 C 0.8128 0.2764 0.63053 0.0
C1185 C 0.77941 0.25136 0.65809 0.0
H1186 H 0.74631 0.25432 0.61767 0.0
C1187 C 0.70112 0.22596 0.6538 0.0
C1188 C 0.69681 0.21638 0.63905 0.0
C1189 C 0.71903 0.23374 0.65526 0.0
C1190 C 0.75555 0.25326 0.62896 0.0
H1191 H 0.83139 0.29134 0.67491 0.0
H1192 H 0.8006 0.27702 0.67314 0.0
H1193 H 0.7747 0.27194 0.61941 0.0
H1194 H 0.70807 0.2071 0.61445 0.0
H1195 H 0.7393 0.22106 0.61686 0.0
H1196 H 0.75955 0.23317 0.66786 0.0
C1197 C 0.80872 0.27897 0.66137 0.0
C1198 C 0.77189 0.26333 0.62998 0.0
C1199 C 0.82628 0.2874 0.6624 0.0
C1200 C 0.71106 0.21425 0.62604 0.0
C1201 C 0.72883 0.22236 0.62734 0.0
C1202 C 0.76284 0.24155 0.6572 0.0
C1203 C 0.80196 0.27291 0.64547 0.0
C1204 C 0.78414 0.26251 0.64454 0.0
C1205 C 0.73284 0.23242 0.64184 0.0
C1206 C 0.7508 0.24234 0.64259 0.0
H1207 H 0.83844 0.287 0.61982 0.0
H1208 H 0.80837 0.2718 0.61805 0.0
H1209 H 0.78862 0.24998 0.66936 0.0
H1210 H 0.69039 0.22788 0.664 0.0
H1211 H 0.72171 0.24147 0.66654 0.0
C1212 C 0.71628 0.32749 0.15452 0.0
C1213 C 0.728 0.33634 0.14293 0.0
C1214 C 0.7165 0.30936 0.1543 0.0
C1215 C 0.73114 0.27141 0.12691 0.0
H1216 H 0.74357 0.24784 0.1698 0.0
C1217 C 0.78182 0.21112 0.13114 0.0
C1218 C 0.77798 0.19793 0.14281 0.0
C1219 C 0.76957 0.22603 0.13033 0.0
C1220 C 0.73964 0.25414 0.15776 0.0
H1221 H 0.74842 0.33319 0.12159 0.0
H1222 H 0.7487 0.30202 0.12113 0.0
H1223 H 0.73289 0.27842 0.17019 0.0
H1224 H 0.75808 0.1897 0.16254 0.0
H1225 H 0.7367 0.21621 0.16144 0.0
H1226 H 0.73905 0.24746 0.11441 0.0
C1227 C 0.73931 0.30887 0.13039 0.0
C1228 C 0.73352 0.27166 0.15798 0.0
C1229 C 0.73929 0.3268 0.13077 0.0
C1230 C 0.76119 0.19962 0.15328 0.0
C1231 C 0.74909 0.21481 0.15274 0.0
C1232 C 0.73732 0.25398 0.12669 0.0
C1233 C 0.72814 0.29986 0.14225 0.0
C1234 C 0.73005 0.28066 0.14249 0.0
C1235 C 0.75337 0.22828 0.14143 0.0
C1236 C 0.74243 0.24533 0.14205 0.0
H1237 H 0.70747 0.33452 0.16406 0.0
H1238 H 0.70774 0.30277 0.1636 0.0
H1239 H 0.72818 0.27788 0.11478 0.0
H1240 H 0.79472 0.21016 0.12299 0.0
H1241 H 0.77343 0.23622 0.12163 0.0
C1242 C 0.76362 0.33653 0.40723 0.0
C1243 C 0.75395 0.35198 0.40182 0.0
C1244 C 0.7548 0.32081 0.40544 0.0
C1245 C 0.70712 0.30122 0.39769 0.0
H1246 H 0.74055 0.26209 0.38291 0.0
C1247 C 0.67775 0.23569 0.37564 0.0
C1248 C 0.68809 0.22072 0.38153 0.0
C1249 C 0.68491 0.25201 0.37861 0.0
C1250 C 0.73104 0.27284 0.38721 0.0
H1251 H 0.72724 0.36302 0.39047 0.0
H1252 H 0.71187 0.33556 0.38715 0.0
H1253 H 0.75457 0.28988 0.38733 0.0
H1254 H 0.71415 0.21127 0.39517 0.0
H1255 H 0.7264 0.23956 0.40051 0.0
H1256 H 0.68353 0.28405 0.39732 0.0
C1257 C 0.72619 0.33562 0.39304 0.0
C1258 C 0.73908 0.28879 0.38979 0.0
C1259 C 0.735 0.35138 0.39494 0.0
C1260 C 0.70562 0.22247 0.39064 0.0
C1261 C 0.7128 0.23872 0.39352 0.0
C1262 C 0.69904 0.28522 0.39502 0.0
C1263 C 0.73609 0.3201 0.39807 0.0
C1264 C 0.72728 0.30317 0.39519 0.0
C1265 C 0.70266 0.25367 0.38741 0.0
C1266 C 0.71095 0.27083 0.38987 0.0
H1267 H 0.77808 0.3366 0.41286 0.0
H1268 H 0.76268 0.30918 0.40983 0.0
H1269 H 0.69762 0.31196 0.40201 0.0
H1270 H 0.66415 0.23478 0.36868 0.0
H1271 H 0.67679 0.26328 0.37367 0.0
C1272 C 0.22147 0.55157 0.65094 0.0
C1273 C 0.21155 0.56371 0.64027 0.0
C1274 C 0.21484 0.53494 0.65282 0.0
C1275 C 0.17137 0.50857 0.64526 0.0
H1276 H 0.20955 0.47068 0.65294 0.0
C1277 C 0.1522 0.43626 0.64593 0.0
C1278 C 0.1593 0.42672 0.6602 0.0
C1279 C 0.15837 0.45293 0.64283 0.0
C1280 C 0.19871 0.48114 0.65087 0.0
H1281 H 0.18691 0.56788 0.62312 0.0
H1282 H 0.17561 0.53864 0.62585 0.0
H1283 H 0.22059 0.49963 0.64839 0.0
H1284 H 0.17875 0.42701 0.68212 0.0
H1285 H 0.18983 0.45594 0.67651 0.0
H1286 H 0.14956 0.48975 0.64732 0.0
C1287 C 0.18827 0.54206 0.63318 0.0
C1288 C 0.205 0.49782 0.64836 0.0
C1289 C 0.19477 0.55883 0.63153 0.0
C1290 C 0.17293 0.4341 0.67111 0.0
C1291 C 0.17936 0.4506 0.66783 0.0
C1292 C 0.1651 0.4918 0.6475 0.0
C1293 C 0.19823 0.52983 0.64386 0.0
C1294 C 0.19144 0.51187 0.64575 0.0
C1295 C 0.17206 0.46026 0.65373 0.0
C1296 C 0.17869 0.47794 0.65053 0.0
H1297 H 0.23422 0.55504 0.65812 0.0
H1298 H 0.22266 0.52618 0.66154 0.0
H1299 H 0.16039 0.51897 0.64355 0.0
H1300 H 0.14158 0.43097 0.63739 0.0
H1301 H 0.15257 0.46003 0.63181 0.0
C1302 C 0.43691 0.68049 0.1482 0.0
C1303 C 0.43986 0.69463 0.1374 0.0
C1304 C 0.45288 0.66995 0.15388 0.0
C1305 C 0.50666 0.66013 0.14668 0.0
H1306 H 0.50552 0.64698 0.19477 0.0
C1307 C 0.57575 0.64074 0.18757 0.0
C1308 C 0.57386 0.62743 0.19964 0.0
C1309 C 0.55954 0.64678 0.17784 0.0
C1310 C 0.506 0.65035 0.18125 0.0
H1311 H 0.46189 0.70831 0.12353 0.0
H1312 H 0.48948 0.6904 0.13368 0.0
H1313 H 0.47658 0.66101 0.18182 0.0
H1314 H 0.55387 0.60921 0.21001 0.0
H1315 H 0.52588 0.61966 0.1931 0.0
H1316 H 0.53648 0.64998 0.14644 0.0
C1317 C 0.47492 0.68714 0.13761 0.0
C1318 C 0.48933 0.65834 0.17378 0.0
C1319 C 0.45902 0.69755 0.13187 0.0
C1320 C 0.55581 0.61964 0.20101 0.0
C1321 C 0.5397 0.62567 0.19137 0.0
C1322 C 0.52343 0.65228 0.15423 0.0
C1323 C 0.47216 0.67338 0.14895 0.0
C1324 C 0.48945 0.6635 0.15642 0.0
C1325 C 0.54119 0.63963 0.18005 0.0
C1326 C 0.52331 0.64739 0.17163 0.0
H1327 H 0.42234 0.67783 0.15264 0.0
H1328 H 0.45013 0.65927 0.16236 0.0
H1329 H 0.50724 0.66365 0.13321 0.0
H1330 H 0.58945 0.64702 0.18624 0.0
H1331 H 0.56114 0.65758 0.16923 0.0
C1332 C 0.31653 0.96267 0.64416 0.0
C1333 C 0.30454 0.96007 0.62979 0.0
C1334 C 0.32372 0.9789 0.64751 0.0
C1335 C 0.33256 0.02107 0.62684 0.0
H1336 H 0.33433 0.03738 0.67395 0.0
C1337 C 0.34712 0.09191 0.64405 0.0
C1338 C 0.35912 0.09486 0.65834 0.0
C1339 C 0.34109 0.07534 0.64039 0.0
C1340 C 0.33416 0.03295 0.66073 0.0
H1341 H 0.29107 0.97269 0.60756 0.0
H1342 H 0.30315 1.00094 0.61362 0.0
H1343 H 0.32268 1.00886 0.66798 0.0
H1344 H 0.37455 0.08232 0.67966 0.0
H1345 H 0.36396 0.05357 0.67334 0.0
H1346 H 0.34387 0.04526 0.61961 0.0
C1347 C 0.30721 0.99038 0.62221 0.0
C1348 C 0.32748 0.01656 0.6573 0.0
C1349 C 0.30004 0.97416 0.61884 0.0
C1350 C 0.36505 0.0807 0.66874 0.0
C1351 C 0.35897 0.06415 0.66511 0.0
C1352 C 0.33918 0.03749 0.63028 0.0
C1353 C 0.31912 0.993 0.63661 0.0
C1354 C 0.32655 1.01039 0.6403 0.0
C1355 C 0.34684 0.06125 0.65093 0.0
C1356 C 0.34003 0.04367 0.64727 0.0
H1357 H 0.32019 0.95224 0.65299 0.0
H1358 H 0.33302 0.98034 0.65862 0.0
H1359 H 0.33238 0.01668 0.61362 0.0
H1360 H 0.34199 0.10245 0.63586 0.0
H1361 H 0.33154 0.07365 0.6295 0.0
C1362 C 0.06599 0.83711 0.16102 0.0
C1363 C 0.06126 0.82611 0.1474 0.0
C1364 C 0.0511 0.84623 0.17032 0.0
C1365 C 1.00072 0.8418 0.18354 0.0
H1366 H 0.9953 0.89138 0.18971 0.0
C1367 C 0.93597 0.87237 0.22175 0.0
C1368 C 0.92498 0.88515 0.21264 0.0
C1369 C 0.95493 0.86714 0.2164 0.0
C1370 C 0.99673 0.8775 0.18819 0.0
H1371 H 0.03718 0.81675 0.13248 0.0
H1372 H 0.01157 0.83228 0.14878 0.0
H1373 H 0.02421 0.87842 0.1747 0.0
H1374 H 0.92595 0.9034 0.19154 0.0
H1375 H 0.95909 0.89436 0.18232 0.0
H1376 H 0.97326 0.84072 0.19662 0.0
C1377 C 0.0267 0.83384 0.1523 0.0
C1378 C 0.01329 0.87012 0.1797 0.0
C1379 C 0.04145 0.82498 0.14293 0.0
C1380 C 0.93396 0.89346 0.19882 0.0
C1381 C 0.953 0.88833 0.19357 0.0
C1382 C 0.98441 0.84911 0.19222 0.0
C1383 C 0.0313 0.84428 0.16629 0.0
C1384 C 0.01518 0.85222 0.17697 0.0
C1385 C 0.96343 0.87468 0.20191 0.0
C1386 C 0.982 0.86707 0.19438 0.0
H1387 H 0.08109 0.83828 0.1648 0.0
H1388 H 0.05501 0.85425 0.18105 0.0
H1389 H 1.00186 0.82796 0.18166 0.0
H1390 H 0.92958 0.86571 0.23247 0.0
H1391 H 0.96269 0.85674 0.22323 0.0
C1392 C 0.21406 0.93913 0.87943 0.0
C1393 C 0.21108 0.93174 0.89571 0.0
C1394 C 0.21047 0.95686 0.8768 0.0
C1395 C 0.18182 0.99435 0.89515 0.0
H1396 H 0.21346 0.0208 0.86443 0.0
C1397 C 0.16765 0.06804 0.88604 0.0
C1398 C 0.16902 0.07454 0.86919 0.0
C1399 C 0.17374 0.05094 0.88978 0.0
C1400 C 0.20435 1.01358 0.87292 0.0
H1401 H 0.20272 0.93745 0.92215 0.0
H1402 H 0.19675 0.96832 0.91762 0.0
H1403 H 0.22284 0.9906 0.87011 0.0
H1404 H 0.17841 0.06805 0.84317 0.0
H1405 H 0.1886 0.03828 0.8496 0.0
H1406 H 0.16323 0.01725 0.89785 0.0
C1407 C 0.20151 0.96037 0.90679 0.0
C1408 C 0.20975 0.99623 0.87619 0.0
C1409 C 0.2051 0.94265 0.90942 0.0
C1410 C 0.17684 0.0635 0.85624 0.0
C1411 C 0.18295 0.04643 0.85998 0.0
C1412 C 0.17643 1.01168 0.89188 0.0
C1413 C 0.2038 0.96768 0.89038 0.0
C1414 C 0.19851 0.98635 0.8873 0.0
C1415 C 0.18143 0.03988 0.87679 0.0
C1416 C 0.18755 0.02153 0.88066 0.0
H1417 H 0.2186 0.93113 0.86856 0.0
H1418 H 0.21225 0.96198 0.86396 0.0
H1419 H 0.17259 0.98711 0.90352 0.0
H1420 H 0.16161 0.07609 0.89632 0.0
H1421 H 0.17253 0.04643 0.90291 0.0
C1422 C 0.95897 0.67438 0.3154 0.0
C1423 C 0.94262 0.66642 0.32214 0.0
C1424 C 0.97136 0.68322 0.32611 0.0
C1425 C 0.99038 0.68304 0.36946 0.0
H1426 H 0.01149 0.72643 0.35591 0.0
C1427 C 0.05565 0.70966 0.40598 0.0
C1428 C 0.07043 0.71631 0.39568 0.0
C1429 C 0.03722 0.70671 0.39906 0.0
C1430 C 1.00589 0.71425 0.35986 0.0
H1431 H 0.92618 0.66176 0.3454 0.0
H1432 H 0.94837 0.67693 0.36441 0.0
H1433 H 0.98419 0.7153 0.33997 0.0
H1434 H 0.07705 0.72583 0.37018 0.0
H1435 H 0.0453 0.72035 0.35805 0.0
H1436 H 0.0127 0.68136 0.38867 0.0
C1437 C 0.95136 0.67642 0.35072 0.0
C1438 C 0.99013 0.70795 0.35077 0.0
C1439 C 0.93865 0.66783 0.33986 0.0
C1440 C 0.06599 0.7208 0.37854 0.0
C1441 C 0.04766 0.71768 0.37158 0.0
C1442 C 1.00631 0.68923 0.37843 0.0
C1443 C 0.96793 0.68411 0.34392 0.0
C1444 C 0.98249 0.69208 0.35522 0.0
C1445 C 0.03316 0.71016 0.38161 0.0
C1446 C 0.01461 0.70474 0.3735 0.0
H1447 H 0.96237 0.67361 0.30178 0.0
H1448 H 0.98408 0.68883 0.3205 0.0
H1449 H 0.98495 0.67068 0.37307 0.0
H1450 H 0.05852 0.70616 0.41926 0.0
H1451 H 0.02634 0.7013 0.40733 0.0
C1452 C 0.31136 0.58271 0.8931 0.0
C1453 C 0.31281 0.59621 0.88118 0.0
C1454 C 0.32042 0.56649 0.88995 0.0
C1455 C 0.33519 0.53757 0.85493 0.0
H1456 H 0.36085 0.51069 0.89124 0.0
C1457 C 0.36157 0.46614 0.84445 0.0
C1458 C 0.35884 0.45457 0.85815 0.0
C1459 C 0.35881 0.48398 0.84683 0.0
C1460 C 0.35356 0.51792 0.88098 0.0
H1461 H 0.32527 0.60339 0.85672 0.0
H1462 H 0.34094 0.57468 0.85096 0.0
H1463 H 0.35157 0.54105 0.89609 0.0
H1464 H 0.35149 0.45321 0.88531 0.0
H1465 H 0.34601 0.48405 0.88925 0.0
H1466 H 0.33636 0.51435 0.84005 0.0
C1467 C 0.33284 0.57681 0.86284 0.0
C1468 C 0.34836 0.53538 0.88374 0.0
C1469 C 0.32401 0.59325 0.86617 0.0
C1470 C 0.35354 0.46151 0.87435 0.0
C1471 C 0.35064 0.47935 0.87669 0.0
C1472 C 0.34022 0.52005 0.85222 0.0
C1473 C 0.33096 0.56322 0.87465 0.0
C1474 C 0.33881 0.54534 0.87086 0.0
C1475 C 0.35311 0.49087 0.86294 0.0
C1476 C 0.34916 0.50987 0.86532 0.0
H1477 H 0.30287 0.58458 0.90481 0.0
H1478 H 0.3185 0.5563 0.89923 0.0
H1479 H 0.32764 0.54484 0.84483 0.0
H1480 H 0.36551 0.46153 0.83172 0.0
H1481 H 0.36114 0.49238 0.83598 0.0
C1482 C 0.43538 0.84342 0.38678 0.0
C1483 C 0.43741 0.8258 0.39103 0.0
C1484 C 0.45143 0.85201 0.38025 0.0
C1485 C 0.49492 0.8437 0.35449 0.0
H1486 H 0.51727 0.88385 0.37479 0.0
C1487 C 0.55289 0.88142 0.31951 0.0
C1488 C 0.57046 0.88362 0.32843 0.0
C1489 C 0.53644 0.87575 0.32801 0.0
C1490 C 0.51115 0.87262 0.36904 0.0
H1491 H 0.45802 0.80353 0.39193 0.0
H1492 H 0.48547 0.81833 0.38025 0.0
H1493 H 0.48811 0.87178 0.38795 0.0
H1494 H 0.58426 0.88204 0.3535 0.0
H1495 H 0.55507 0.87229 0.36855 0.0
H1496 H 0.51762 0.8445 0.33553 0.0
C1497 C 0.47161 0.82554 0.38209 0.0
C1498 C 0.49443 0.86585 0.37645 0.0
C1499 C 0.45582 0.81709 0.38882 0.0
C1500 C 0.57098 0.88042 0.34626 0.0
C1501 C 0.55428 0.87495 0.35487 0.0
C1502 C 0.51131 0.85061 0.34695 0.0
C1503 C 0.46959 0.843 0.37759 0.0
C1504 C 0.4863 0.85123 0.3693 0.0
C1505 C 0.53696 0.87231 0.34572 0.0
C1506 C 0.51968 0.86507 0.35417 0.0
H1507 H 0.42141 0.85048 0.38835 0.0
H1508 H 0.44953 0.8655 0.37679 0.0
H1509 H 0.48894 0.83241 0.34875 0.0
H1510 H 0.55188 0.88376 0.30579 0.0
H1511 H 0.52326 0.87394 0.32067 0.0
C1512 C 0.66035 0.21239 0.56401 0.0
C1513 C 0.64062 0.21055 0.56851 0.0
C1514 C 0.66778 0.20604 0.54825 0.0
C1515 C 0.65138 0.19204 0.505 0.0
H1516 H 0.70373 0.17061 0.50152 0.0
C1517 C 0.67708 0.15608 0.44368 0.0
C1518 C 0.69554 0.1599 0.4371 0.0
C1519 C 0.67135 0.16132 0.46025 0.0
C1520 C 0.68913 0.17666 0.50227 0.0
H1521 H 0.61349 0.2 0.56014 0.0
H1522 H 0.62636 0.18888 0.53297 0.0
H1523 H 0.69187 0.18203 0.52921 0.0
H1524 H 0.72283 0.17154 0.44322 0.0
H1525 H 0.71283 0.18062 0.4722 0.0
H1526 H 0.64854 0.1866 0.47817 0.0
C1527 C 0.63603 0.19564 0.54132 0.0
C1528 C 0.68234 0.18327 0.51813 0.0
C1529 C 0.62861 0.20205 0.55696 0.0
C1530 C 0.7085 0.16836 0.44785 0.0
C1531 C 0.70279 0.17355 0.4645 0.0
C1532 C 0.6581 0.18537 0.48923 0.0
C1533 C 0.65568 0.19762 0.53666 0.0
C1534 C 0.66331 0.19097 0.51973 0.0
C1535 C 0.68395 0.17047 0.47072 0.0
C1536 C 0.67701 0.1775 0.48766 0.0
H1537 H 0.66997 0.21896 0.57255 0.0
H1538 H 0.68292 0.20799 0.54504 0.0
H1539 H 0.63683 0.19823 0.50558 0.0
H1540 H 0.66673 0.14951 0.43583 0.0
H1541 H 0.65688 0.15845 0.46477 0.0
C1542 C 0.83571 0.16199 0.08221 0.0
C1543 C 0.84911 0.16609 0.0951 0.0
C1544 C 0.83895 0.1665 0.065 0.0
C1545 C 0.86595 0.19642 0.03781 0.0
H1546 H 0.8588 0.16294 1.00166 0.0
C1547 C 0.89483 0.20617 0.9687 0.0
C1548 C 0.88402 0.20022 0.95472 0.0
C1549 C 0.88942 0.2026 0.98566 0.0
C1550 C 0.86058 0.17257 1.01153 0.0
H1551 H 0.87624 0.17848 0.09995 0.0
H1552 H 0.88192 0.18627 0.07002 0.0
H1553 H 0.85138 0.15562 0.03143 0.0
H1554 H 0.85871 0.18592 0.94792 0.0
H1555 H 0.84898 0.18015 0.97742 0.0
H1556 H 0.87505 0.21342 0.018 0.0
C1557 C 0.86888 0.17958 0.07321 0.0
C1558 C 0.85636 0.16834 0.02863 0.0
C1559 C 0.86573 0.17494 0.09036 0.0
C1560 C 0.86737 0.19086 0.95825 0.0
C1561 C 0.86191 0.18734 0.97524 0.0
C1562 C 0.87005 0.2007 0.02072 0.0
C1563 C 0.85557 0.17539 0.0603 0.0
C1564 C 0.85919 0.18015 0.042 0.0
C1565 C 0.87295 0.19304 0.9892 0.0
C1566 C 0.86763 0.18877 1.00734 0.0
H1567 H 0.82285 0.15507 0.08539 0.0
H1568 H 0.82834 0.16318 0.0554 0.0
H1569 H 0.86798 0.20593 0.04776 0.0
H1570 H 0.90758 0.21359 0.9666 0.0
H1571 H 0.89846 0.20705 0.996 0.0
C1572 C 0.89818 0.3052 0.54983 0.0
C1573 C 0.89423 0.31388 0.56547 0.0
C1574 C 0.89307 0.31293 0.53405 0.0
C1575 C 0.88024 0.35566 0.51426 0.0
H1576 H 0.85731 0.32874 0.47822 0.0
C1577 C 0.83614 0.3869 0.45855 0.0
C1578 C 0.83806 0.37984 0.44192 0.0
C1579 C 0.84531 0.37876 0.47261 0.0
C1580 C 0.86398 0.33639 0.48804 0.0
H1581 H 0.88195 0.33773 0.57656 0.0
H1582 H 0.87269 0.35095 0.54925 0.0
H1583 H 0.86849 0.31462 0.50478 0.0
H1584 H 0.85146 0.35877 0.42701 0.0
H1585 H 0.86753 0.34441 0.45175 0.0
H1586 H 0.87533 0.37748 0.49769 0.0
C1587 C 0.87997 0.33823 0.54913 0.0
C1588 C 0.87038 0.32829 0.5033 0.0
C1589 C 0.88506 0.33052 0.56487 0.0
C1590 C 0.84975 0.36456 0.43964 0.0
C1591 C 0.85882 0.35628 0.45382 0.0
C1592 C 0.87379 0.36374 0.49906 0.0
C1593 C 0.88392 0.32957 0.53348 0.0
C1594 C 0.8783 0.33789 0.51674 0.0
C1595 C 0.8566 0.36326 0.4705 0.0
C1596 C 0.86528 0.35427 0.48587 0.0
H1597 H 0.90504 0.29233 0.54973 0.0
H1598 H 0.89649 0.30591 0.52228 0.0
H1599 H 0.88667 0.36341 0.52412 0.0
H1600 H 0.82727 0.39865 0.4608 0.0
H1601 H 0.84306 0.3844 0.48526 0.0
C1602 C 0.65585 0.3762 0.95096 0.0
C1603 C 0.6648 0.36262 0.94139 0.0
C1604 C 0.6609 0.37874 0.96817 0.0
C1605 C 0.68802 0.35752 1.00518 0.0
H1606 H 0.68692 0.40435 0.02265 0.0
C1607 C 0.72767 0.37842 0.06711 0.0
C1608 C 0.7162 0.38809 0.07907 0.0
C1609 C 0.72029 0.37472 0.05084 0.0
C1610 C 0.68713 0.3912 0.01797 0.0
H1611 H 0.68615 0.34111 0.94223 0.0
H1612 H 0.69577 0.34592 0.97198 0.0
H1613 H 0.67667 0.39911 0.9932 0.0
H1614 H 0.68811 0.40151 0.08341 0.0
H1615 H 0.67534 0.39552 0.05458 0.0
H1616 H 0.69951 0.34987 0.02987 0.0
C1617 C 0.68428 0.35431 0.96652 0.0
C1618 C 0.68114 0.38813 1.00108 0.0
C1619 C 0.67889 0.35156 0.9494 0.0
C1620 C 0.69719 0.394 0.07442 0.0
C1621 C 0.68995 0.39064 0.05796 0.0
C1622 C 0.6944 0.36066 0.02195 0.0
C1623 C 0.67541 0.36799 0.97619 0.0
C1624 C 0.68149 0.37123 0.99439 0.0
C1625 C 0.70143 0.38093 0.04604 0.0
C1626 C 0.69402 0.37753 0.02849 0.0
H1627 H 0.64474 0.38475 0.94514 0.0
H1628 H 0.65329 0.38912 0.97518 0.0
H1629 H 0.68813 0.3443 1.00078 0.0
H1630 H 0.74229 0.37356 0.07044 0.0
H1631 H 0.72946 0.36727 0.04186 0.0
C1632 C 0.89821 0.55932 0.30668 0.0
C1633 C 0.8956 0.5758 0.31411 0.0
C1634 C 0.89036 0.54496 0.31454 0.0
C1635 C 0.85284 0.53325 0.34678 0.0
H1636 H 0.88099 0.48861 0.34589 0.0
C1637 C 0.82927 0.476 0.38805 0.0
C1638 C 0.82933 0.45967 0.38015 0.0
C1639 C 0.8375 0.48991 0.3798 0.0
C1640 C 0.87287 0.50096 0.34611 0.0
H1641 H 0.88325 0.58995 0.33596 0.0
H1642 H 0.8699 0.565 0.3498 0.0
H1643 H 0.89523 0.51328 0.33207 0.0
H1644 H 0.83827 0.44543 0.35712 0.0
H1645 H 0.85285 0.46963 0.3429 0.0
H1646 H 0.83062 0.52096 0.36103 0.0
C1647 C 0.87752 0.56317 0.33764 0.0
C1648 C 0.88101 0.51512 0.33815 0.0
C1649 C 0.88523 0.57751 0.32972 0.0
C1650 C 0.8381 0.45766 0.36379 0.0
C1651 C 0.84648 0.47158 0.35558 0.0
C1652 C 0.84478 0.51914 0.35482 0.0
C1653 C 0.87983 0.5467 0.33011 0.0
C1654 C 0.87113 0.53149 0.33841 0.0
C1655 C 0.84617 0.48789 0.36344 0.0
C1656 C 0.85471 0.50282 0.35464 0.0
H1657 H 0.90592 0.55758 0.29457 0.0
H1658 H 0.89223 0.53257 0.30821 0.0
H1659 H 0.84457 0.54553 0.34695 0.0
H1660 H 0.82304 0.47809 0.40074 0.0
H1661 H 0.8373 0.50223 0.38634 0.0
C1662 C 0.44255 0.38362 0.82828 0.0
C1663 C 0.42798 0.3768 0.83865 0.0
C1664 C 0.46238 0.3788 0.831 0.0
C1665 C 0.49569 0.35965 0.8646 0.0
H1666 H 0.53257 0.35435 0.82677 0.0
C1667 C 0.57678 0.33562 0.87456 0.0
C1668 C 0.59056 0.34557 0.86623 0.0
C1669 C 0.55678 0.33799 0.87067 0.0
C1670 C 0.52244 0.35582 0.83748 0.0
H1671 H 0.42278 0.35906 0.85959 0.0
H1672 H 0.45694 0.35043 0.86399 0.0
H1673 H 0.49811 0.36165 0.82079 0.0
H1674 H 0.59418 0.36537 0.8469 0.0
H1675 H 0.55963 0.36935 0.84016 0.0
H1676 H 0.52005 0.35382 0.88126 0.0
C1677 C 0.45329 0.35987 0.85409 0.0
C1678 C 0.50269 0.3601 0.83406 0.0
C1679 C 0.43362 0.36477 0.85148 0.0
C1680 C 0.58398 0.35754 0.85366 0.0
C1681 C 0.56414 0.35975 0.84966 0.0
C1682 C 0.51539 0.35526 0.868 0.0
C1683 C 0.468 0.36696 0.84408 0.0
C1684 C 0.48905 0.36219 0.84758 0.0
C1685 C 0.55025 0.35015 0.85821 0.0
C1686 C 0.52904 0.35345 0.8545 0.0
H1687 H 0.43869 0.39293 0.81831 0.0
H1688 H 0.4733 0.38465 0.82312 0.0
H1689 H 0.48573 0.36144 0.87539 0.0
H1690 H 0.58139 0.32629 0.88428 0.0
H1691 H 0.54641 0.33031 0.8774 0.0
C1692 C 0.66506 0.08953 0.34763 0.0
C1693 C 0.6509 0.09773 0.35844 0.0
C1694 C 0.66222 0.07313 0.34085 0.0
C1695 C 0.62332 0.04224 0.3327 0.0
H1696 H 0.66735 1.00903 0.32827 0.0
C1697 C 0.61566 0.97606 0.29969 0.0
C1698 C 0.62585 0.96162 0.30695 0.0
C1699 C 0.61904 0.99277 0.30535 0.0
C1700 C 0.65483 0.01807 0.32954 0.0
H1701 H 0.62286 0.09482 0.3709 0.0
H1702 H 0.61803 0.06625 0.35935 0.0
H1703 H 0.67248 0.03762 0.33972 0.0
H1704 H 0.64801 0.95378 0.32574 0.0
H1705 H 0.6534 0.98268 0.3359 0.0
H1706 H 0.60555 0.02252 0.32309 0.0
C1707 C 0.63112 0.07263 0.35571 0.0
C1708 C 0.65784 0.0346 0.3359 0.0
C1709 C 0.63391 0.08905 0.36239 0.0
C1710 C 0.63963 0.96444 0.31995 0.0
C1711 C 0.64295 0.98113 0.32565 0.0
C1712 C 0.6203 0.02569 0.32641 0.0
C1713 C 0.64519 0.06444 0.34479 0.0
C1714 C 0.64211 0.04691 0.33765 0.0
C1715 C 0.63268 0.99555 0.31846 0.0
C1716 C 0.636 1.01334 0.3248 0.0
H1717 H 0.67819 0.09592 0.34416 0.0
H1718 H 0.67326 0.06738 0.3323 0.0
H1719 H 0.61087 0.0514 0.33361 0.0
H1720 H 0.60484 0.9745 0.28977 0.0
H1721 H 0.61102 1.00354 0.29932 0.0
C1722 C 0.07642 0.147 0.8564 0.0
C1723 C 0.08533 0.13696 0.84319 0.0
C1724 C 0.05624 0.14739 0.85898 0.0
C1725 C 0.00897 0.13967 0.83863 0.0
H1726 H 0.99146 0.14085 0.88616 0.0
C1727 C 0.93214 0.16662 0.85979 0.0
C1728 C 0.92399 0.1608 0.87526 0.0
C1729 C 0.95053 0.16008 0.85417 0.0
C1730 C 0.99592 0.14021 0.87278 0.0
H1731 H 0.07976 0.11971 0.82204 0.0
H1732 H 0.04412 0.12036 0.82663 0.0
H1733 H 0.02601 0.13627 0.87973 0.0
H1734 H 0.92805 0.14243 0.89611 0.0
H1735 H 0.95976 0.13061 0.88602 0.0
H1736 H 0.97872 0.14363 0.83173 0.0
C1737 C 0.05297 0.12795 0.83495 0.0
C1738 C 0.01587 0.13783 0.86909 0.0
C1739 C 0.07337 0.12755 0.83234 0.0
C1740 C 0.93398 0.14735 0.88424 0.0
C1741 C 0.95228 0.14067 0.87851 0.0
C1742 C 0.9889 0.14201 0.84233 0.0
C1743 C 0.04423 0.13771 0.8485 0.0
C1744 C 0.02274 0.13801 0.85201 0.0
C1745 C 0.96118 0.14743 0.86377 0.0
C1746 C 0.98213 0.1427 0.85949 0.0
H1747 H 0.08506 0.15459 0.86491 0.0
H1748 H 0.05002 0.15541 0.86924 0.0
H1749 H 0.01375 0.13987 0.82533 0.0
H1750 H 0.92489 0.177 0.85253 0.0
H1751 H 0.95686 0.16574 0.84284 0.0
C1752 C 0.82908 0.09048 0.17535 0.0
C1753 C 0.81692 0.09954 0.16352 0.0
C1754 C 0.82842 0.07266 0.17715 0.0
C1755 C 0.8172 0.03368 0.15379 0.0
H1756 H 0.8209 1.01278 0.19909 0.0
C1757 C 0.82378 0.95941 0.16345 0.0
C1758 C 0.83711 0.95319 0.17605 0.0
C1759 C 0.81871 0.97707 0.16208 0.0
C1760 C 0.82003 0.01838 0.18633 0.0
H1761 H 0.79428 0.09695 0.14438 0.0
H1762 H 0.79332 0.06545 0.14735 0.0
H1763 H 0.81612 0.04398 0.19643 0.0
H1764 H 0.85566 0.96087 0.19698 0.0
H1765 H 0.84699 0.99152 0.19456 0.0
H1766 H 0.82175 1.00812 0.14365 0.0
C1767 C 0.80333 0.07232 0.15527 0.0
C1768 C 0.81719 0.03627 0.18481 0.0
C1769 C 0.8038 0.09033 0.15364 0.0
C1770 C 0.84512 0.9651 0.18731 0.0
C1771 C 0.8401 0.98274 0.18593 0.0
C1772 C 0.82015 0.01575 0.15529 0.0
C1773 C 0.8157 0.06331 0.16704 0.0
C1774 C 0.81615 0.04418 0.16854 0.0
C1775 C 0.82686 0.98899 0.17327 0.0
C1776 C 0.82201 1.00789 0.17159 0.0
H1777 H 0.83931 0.09717 0.18323 0.0
H1778 H 0.83831 0.06613 0.18617 0.0
H1779 H 0.81663 0.03939 0.14106 0.0
H1780 H 0.81709 0.95062 0.15471 0.0
H1781 H 0.80827 0.98137 0.15234 0.0
C1782 C 0.06414 0.37968 0.67479 0.0
C1783 C 0.0744 0.37795 0.69039 0.0
C1784 C 0.04383 0.37895 0.67435 0.0
C1785 C 1.00387 0.35948 0.69727 0.0
H1786 H 0.97229 0.38491 0.66348 0.0
C1787 C 0.92479 0.34139 0.68139 0.0
C1788 C 0.9213 0.33943 0.66367 0.0
C1789 C 0.94131 0.34965 0.68714 0.0
C1790 C 0.98088 0.37771 0.673 0.0
H1791 H 0.07128 0.37476 0.71793 0.0
H1792 H 0.03542 0.37333 0.7172 0.0
H1793 H 1.00534 0.39351 0.66967 0.0
H1794 H 0.93189 0.34549 0.63814 0.0
H1795 H 0.96047 0.35994 0.64812 0.0
H1796 H 0.97962 0.3433 0.70014 0.0
C1797 C 0.04327 0.37527 0.70528 0.0
C1798 C 0.99982 0.38264 0.67657 0.0
C1799 C 0.06374 0.37622 0.70574 0.0
C1800 C 0.93412 0.34675 0.65188 0.0
C1801 C 0.95049 0.35513 0.65762 0.0
C1802 C 0.98486 0.35456 0.69373 0.0
C1803 C 0.03312 0.37632 0.68951 0.0
C1804 C 0.01182 0.37322 0.6883 0.0
C1805 C 0.95458 0.35632 0.67531 0.0
C1806 C 0.97338 0.36327 0.68113 0.0
H1807 H 0.07192 0.38108 0.66273 0.0
H1808 H 0.03665 0.37958 0.66195 0.0
H1809 H 0.01273 0.35183 0.70626 0.0
H1810 H 0.91526 0.33587 0.69083 0.0
H1811 H 0.94392 0.3505 0.70085 0.0
C1812 C 0.67879 0.43678 0.16594 0.0
C1813 C 0.686 0.42416 0.17762 0.0
C1814 C 0.67006 0.45242 0.17187 0.0
C1815 C 0.64866 0.47438 0.21091 0.0
H1816 H 0.66351 0.51591 0.18764 0.0
C1817 C 0.63597 0.54247 0.24094 0.0
C1818 C 0.63041 0.55628 0.22996 0.0
C1819 C 0.64124 0.52612 0.23425 0.0
C1820 C 0.65897 0.50446 0.19418 0.0
H1821 H 0.68898 0.41795 0.20475 0.0
H1822 H 0.67397 0.44513 0.21503 0.0
H1823 H 0.67475 0.48783 0.17641 0.0
H1824 H 0.62546 0.56333 0.20324 0.0
H1825 H 0.63467 0.53494 0.19163 0.0
H1826 H 0.63309 0.49107 0.22882 0.0
C1827 C 0.67487 0.44294 0.20127 0.0
C1828 C 0.66541 0.4883 0.1877 0.0
C1829 C 0.68359 0.42733 0.19535 0.0
C1830 C 0.63 0.55317 0.21211 0.0
C1831 C 0.63529 0.53683 0.20542 0.0
C1832 C 0.64224 0.49055 0.2174 0.0
C1833 C 0.66829 0.45584 0.18963 0.0
C1834 C 0.66047 0.47303 0.19604 0.0
C1835 C 0.64111 0.5231 0.21638 0.0
C1836 C 0.64741 0.50582 0.20919 0.0
H1837 H 0.68035 0.43479 0.15219 0.0
H1838 H 0.66487 0.46192 0.16251 0.0
H1839 H 0.6443 0.46292 0.21753 0.0
H1840 H 0.63671 0.54436 0.25472 0.0
H1841 H 0.6459 0.51593 0.24308 0.0
C1842 C 0.45057 0.14639 0.6715 0.0
C1843 C 0.44014 0.15001 0.68679 0.0
C1844 C 0.47048 0.1493 0.67026 0.0
C1845 C 0.51519 0.15932 0.69491 0.0
H1846 H 0.52943 0.17989 0.65143 0.0
C1847 C 0.58738 0.19445 0.68293 0.0
C1848 C 0.59612 0.19285 0.66653 0.0
C1849 C 0.56962 0.18692 0.68648 0.0
C1850 C 0.52585 0.17391 0.66356 0.0
H1851 H 0.44264 0.15881 0.71309 0.0
H1852 H 0.47759 0.16436 0.71085 0.0
H1853 H 0.49624 0.1713 0.6559 0.0
H1854 H 0.59356 0.18111 0.64136 0.0
H1855 H 0.56278 0.16788 0.64759 0.0
H1856 H 0.54495 0.16247 0.70261 0.0
C1857 C 0.47036 0.159 0.69985 0.0
C1858 C 0.50674 0.16894 0.66615 0.0
C1859 C 0.45033 0.15584 0.70116 0.0
C1860 C 0.58723 0.18272 0.65409 0.0
C1861 C 0.56947 0.17523 0.65763 0.0
C1862 C 0.53441 0.1644 0.69233 0.0
C1863 C 0.48054 0.15623 0.68418 0.0
C1864 C 0.50111 0.16147 0.68179 0.0
C1865 C 0.56014 0.17765 0.67369 0.0
C1866 C 0.53998 0.17169 0.67657 0.0
H1867 H 0.4432 0.14164 0.66026 0.0
H1868 H 0.47789 0.14647 0.65816 0.0
H1869 H 0.51145 0.15353 0.70708 0.0
H1870 H 0.59382 0.20213 0.69285 0.0
H1871 H 0.56284 0.1891 0.69896 0.0
C1872 C 0.37875 0.82437 0.47251 0.0
C1873 C 0.38254 0.80657 0.47004 0.0
C1874 C 0.37471 0.83106 0.48893 0.0
C1875 C 0.37893 0.82088 0.53563 0.0
H1876 H 0.33862 0.85763 0.53983 0.0
C1877 C 0.34473 0.84413 0.60095 0.0
C1878 C 0.33956 0.86182 0.6027 0.0
C1879 C 0.352 0.83748 0.58528 0.0
C1880 C 0.35012 0.84754 0.53889 0.0
H1881 H 0.38499 0.78186 0.48304 0.0
H1882 H 0.37773 0.79349 0.51168 0.0
H1883 H 0.3468 0.84576 0.51161 0.0
H1884 H 0.33919 0.88652 0.58962 0.0
H1885 H 0.35208 0.87499 0.56249 0.0
H1886 H 0.38197 0.82258 0.56305 0.0
C1887 C 0.37821 0.80233 0.50093 0.0
C1888 C 0.35482 0.84071 0.52267 0.0
C1889 C 0.38233 0.79564 0.48448 0.0
C1890 C 0.34286 0.87281 0.58872 0.0
C1891 C 0.35011 0.86618 0.57309 0.0
C1892 C 0.37417 0.8277 0.55191 0.0
C1893 C 0.37425 0.82014 0.50336 0.0
C1894 C 0.36932 0.82732 0.52077 0.0
C1895 C 0.35425 0.84837 0.571 0.0
C1896 C 0.35974 0.84117 0.55374 0.0
H1897 H 0.37918 0.83323 0.46178 0.0
H1898 H 0.37213 0.84487 0.49032 0.0
H1899 H 0.39034 0.81072 0.53466 0.0
H1900 H 0.34232 0.83527 0.61143 0.0
H1901 H 0.35497 0.82369 0.58411 0.0
C1902 C 0.11577 0.82023 0.06459 0.0
C1903 C 0.11774 0.80234 0.06736 0.0
C1904 C 0.12184 0.8274 0.04901 0.0
C1905 C 0.15552 0.81995 1.0126 0.0
H1906 H 0.11993 0.85116 0.98751 0.0
C1907 C 0.17392 0.84328 0.94371 0.0
C1908 C 0.16683 0.85977 0.93855 0.0
C1909 C 0.16813 0.83633 0.95948 0.0
C1910 C 0.13028 0.84273 0.99442 0.0
H1911 H 0.1281 0.778 0.05612 0.0
H1912 H 0.13906 0.79053 0.02907 0.0
H1913 H 0.10984 0.83944 0.01504 0.0
H1914 H 0.14867 0.88215 0.94617 0.0
H1915 H 0.13918 0.87047 0.97385 0.0
H1916 H 0.17623 0.82355 0.9924 0.0
C1917 C 0.13261 0.79899 0.03888 0.0
C1918 C 0.12438 0.83594 1.01021 0.0
C1919 C 0.1262 0.7918 0.0543 0.0
C1920 C 0.15411 0.86928 0.94965 0.0
C1921 C 0.1486 0.86249 0.96554 0.0
C1922 C 0.16157 0.82697 0.99695 0.0
C1923 C 0.13041 0.81685 0.036 0.0
C1924 C 0.13689 0.8244 0.01943 0.0
C1925 C 0.15535 0.84583 0.97068 0.0
C1926 C 0.14901 0.83843 0.98754 0.0
H1927 H 0.10924 0.82864 0.07438 0.0
H1928 H 0.12004 0.84122 0.04719 0.0
H1929 H 0.16557 0.81121 0.0195 0.0
H1930 H 0.1836 0.83559 0.93535 0.0
H1931 H 0.17344 0.82336 0.9627 0.0
C1932 C 0.16524 0.67066 0.59382 0.0
C1933 C 0.17375 0.65435 0.59814 0.0
C1934 C 0.15989 0.67455 0.57679 0.0
C1935 C 0.15081 0.65437 0.53412 0.0
H1936 H 0.16362 0.69897 0.51607 0.0
C1937 C 0.15339 0.6678 0.46119 0.0
C1938 C 0.1455 0.68375 0.45507 0.0
C1939 C 0.1557 0.66478 0.47883 0.0
C1940 C 0.15972 0.68654 0.52094 0.0
H1941 H 0.18269 0.62916 0.58787 0.0
H1942 H 0.17355 0.63593 0.55833 0.0
H1943 H 0.16889 0.69251 0.5465 0.0
H1944 H 0.13408 0.70911 0.46303 0.0
H1945 H 0.1383 0.70387 0.49384 0.0
H1946 H 0.14194 0.6483 0.50852 0.0
C1947 C 0.17079 0.64572 0.56809 0.0
C1948 C 0.1627 0.68282 0.53843 0.0
C1949 C 0.17613 0.64185 0.58509 0.0
C1950 C 0.14036 0.69673 0.46717 0.0
C1951 C 0.14276 0.69371 0.48488 0.0
C1952 C 0.14789 0.65806 0.51665 0.0
C1953 C 0.16288 0.66221 0.56363 0.0
C1954 C 0.1585 0.66661 0.54524 0.0
C1955 C 0.15028 0.67762 0.49094 0.0
C1956 C 0.15251 0.67411 0.50977 0.0
H1957 H 0.16318 0.68062 0.60352 0.0
H1958 H 0.15356 0.68729 0.57391 0.0
H1959 H 0.14702 0.64188 0.53892 0.0
H1960 H 0.15794 0.6576 0.45234 0.0
H1961 H 0.16196 0.65237 0.48298 0.0
C1962 C 0.36012 0.70706 0.07019 0.0
C1963 C 0.37191 0.72136 0.06902 0.0
C1964 C 0.35206 0.69994 0.05547 0.0
C1965 C 0.33823 0.70985 1.0105 0.0
H1966 H 0.33753 0.66013 1.0063 0.0
C1967 C 0.31158 0.67659 0.9486 0.0
C1968 C 0.30068 0.66182 0.95056 0.0
C1969 C 0.3206 0.68397 0.96277 0.0
C1970 C 0.33736 0.67404 1.00733 0.0
H1971 H 0.38441 0.73924 0.05114 0.0
H1972 H 0.37019 0.72687 0.02544 0.0
H1973 H 0.3528 0.67274 0.03127 0.0
H1974 H 0.29081 0.64333 0.96917 0.0
H1975 H 0.30606 0.65639 0.99386 0.0
H1976 H 0.32259 0.71117 0.98665 0.0
C1977 C 0.36712 0.72127 0.03786 0.0
C1978 C 0.34618 0.68128 0.02166 0.0
C1979 C 0.37528 0.72837 0.05263 0.0
C1980 C 0.29893 0.65474 0.96713 0.0
C1981 C 0.30792 0.66213 0.9813 0.0
C1982 C 0.32933 0.70261 0.99618 0.0
C1983 C 0.35544 0.70693 0.0391 0.0
C1984 C 0.34663 0.69928 0.02349 0.0
C1985 C 0.31894 0.67682 0.97932 0.0
C1986 C 0.32868 0.68459 0.99444 0.0
H1987 H 0.35674 0.70146 0.08252 0.0
H1988 H 0.34283 0.68911 0.05696 0.0
H1989 H 0.33809 0.72376 1.01159 0.0
H1990 H 0.31307 0.6826 0.93614 0.0
H1991 H 0.32909 0.69517 0.96068 0.0
loop_
_geom_bond_atom_site_label_1
_geom_bond_atom_site_label_2
_geom_bond_distance
_geom_bond_site_symmetry_2
_ccdc_geom_bond_type
Cu0 N1 1.999 . S
Cu0 O6 1.974 . S
Cu0 N11 1.985 . S
Cu0 O20 1.959 . S
N1 Cu0 1.999 . S
N1 C3 1.263 . S
N1 C5 1.389 . S
N2 C3 1.358 . S
N2 C4 1.400 . S
C3 N1 1.263 . S
C3 N2 1.358 . S
C3 H9 0.930 . S
C4 N2 1.400 . S
C4 C5 1.351 . S
C4 H21 0.930 . S
C5 N1 1.389 . S
C5 C4 1.351 . S
C5 H10 0.930 . S
O6 Cu0 1.974 . S
O6 C16 1.282 . S
C7 O8 1.261 . S
C7 O20 1.251 . S
O8 C7 1.261 . S
H9 C3 0.930 . S
H10 C5 0.930 . S
N11 Cu0 1.985 . S
N11 C13 1.335 . S
N11 C14 1.390 . S
N12 C13 1.345 . S
N12 C15 1.336 . S
C13 N11 1.335 . S
C13 N12 1.345 . S
C13 H18 0.930 . S
C14 N11 1.390 . S
C14 C15 1.346 . S
C14 H19 0.930 . S
C15 N12 1.336 . S
C15 C14 1.346 . S
C15 H22 0.929 . S
C16 O6 1.282 . S
C16 O17 1.216 . S
O17 C16 1.216 . S
H18 C13 0.930 . S
H19 C14 0.930 . S
O20 Cu0 1.959 . S
O20 C7 1.251 . S
H21 C4 0.930 . S
H22 C15 0.929 . S
Cu23 N24 1.999 . S
Cu23 O29 1.974 . S
Cu23 N34 1.985 . S
Cu23 O43 1.959 . S
N24 Cu23 1.999 . S
N24 C26 1.263 . S
N24 C28 1.389 . S
N25 C26 1.358 . S
N25 C27 1.400 . S
C26 N24 1.263 . S
C26 N25 1.358 . S
C26 H32 0.930 . S
C27 N25 1.400 . S
C27 C28 1.351 . S
C27 H44 0.930 . S
C28 N24 1.389 . S
C28 C27 1.351 . S
C28 H33 0.930 . S
O29 Cu23 1.974 . S
O29 C39 1.282 . S
C30 O31 1.261 . S
C30 O43 1.251 . S
O31 C30 1.261 . S
H32 C26 0.930 . S
H33 C28 0.930 . S
N34 Cu23 1.985 . S
N34 C36 1.335 . S
N34 C37 1.390 . S
N35 C36 1.345 . S
N35 C38 1.336 . S
C36 N34 1.335 . S
C36 N35 1.345 . S
C36 H41 0.930 . S
C37 N34 1.390 . S
C37 C38 1.346 . S
C37 H42 0.930 . S
C38 N35 1.336 . S
C38 C37 1.346 . S
C38 H45 0.929 . S
C39 O29 1.282 . S
C39 O40 1.216 . S
O40 C39 1.216 . S
H41 C36 0.930 . S
H42 C37 0.930 . S
O43 Cu23 1.959 . S
O43 C30 1.251 . S
H44 C27 0.930 . S
H45 C38 0.929 . S
Cu46 N47 1.999 . S
Cu46 O52 1.974 . S
Cu46 N57 1.985 . S
Cu46 O66 1.959 . S
N47 Cu46 1.999 . S
N47 C49 1.263 . S
N47 C51 1.389 . S
N48 C49 1.358 . S
N48 C50 1.400 . S
C49 N47 1.263 . S
C49 N48 1.358 . S
C49 H55 0.930 . S
C50 N48 1.400 . S
C50 C51 1.351 . S
C50 H67 0.930 . S
C51 N47 1.389 . S
C51 C50 1.351 . S
C51 H56 0.930 . S
O52 Cu46 1.974 . S
O52 C62 1.282 . S
C53 O54 1.261 . S
C53 O66 1.251 . S
O54 C53 1.261 . S
H55 C49 0.930 . S
H56 C51 0.930 . S
N57 Cu46 1.985 . S
N57 C59 1.335 . S
N57 C60 1.390 . S
N58 C59 1.345 . S
N58 C61 1.336 . S
C59 N57 1.335 . S
C59 N58 1.345 . S
C59 H64 0.930 . S
C60 N57 1.390 . S
C60 C61 1.346 . S
C60 H65 0.930 . S
C61 N58 1.336 . S
C61 C60 1.346 . S
C61 H68 0.929 . S
C62 O52 1.282 . S
C62 O63 1.216 . S
O63 C62 1.216 . S
H64 C59 0.930 . S
H65 C60 0.930 . S
O66 Cu46 1.959 . S
O66 C53 1.251 . S
H67 C50 0.930 . S
H68 C61 0.929 . S
Cu69 N70 1.999 . S
Cu69 O75 1.974 . S
Cu69 N80 1.985 . S
Cu69 O89 1.959 . S
N70 Cu69 1.999 . S
N70 C72 1.263 . S
N70 C74 1.389 . S
N71 C72 1.358 . S
N71 C73 1.400 . S
C72 N70 1.263 . S
C72 N71 1.358 . S
C72 H78 0.930 . S
C73 N71 1.400 . S
C73 C74 1.351 . S
C73 H90 0.930 . S
C74 N70 1.389 . S
C74 C73 1.351 . S
C74 H79 0.930 . S
O75 Cu69 1.974 . S
O75 C85 1.282 . S
C76 O77 1.261 . S
C76 O89 1.251 . S
O77 C76 1.261 . S
H78 C72 0.930 . S
H79 C74 0.930 . S
N80 Cu69 1.985 . S
N80 C82 1.335 . S
N80 C83 1.390 . S
N81 C82 1.345 . S
N81 C84 1.336 . S
C82 N80 1.335 . S
C82 N81 1.345 . S
C82 H87 0.930 . S
C83 N80 1.390 . S
C83 C84 1.346 . S
C83 H88 0.930 . S
C84 N81 1.336 . S
C84 C83 1.346 . S
C84 H91 0.929 . S
C85 O75 1.282 . S
C85 O86 1.216 . S
O86 C85 1.216 . S
H87 C82 0.930 . S
H88 C83 0.930 . S
O89 Cu69 1.959 . S
O89 C76 1.251 . S
H90 C73 0.930 . S
H91 C84 0.929 . S
Cu92 N93 1.999 . S
Cu92 O98 1.974 . S
Cu92 N103 1.985 . S
Cu92 O112 1.959 . S
N93 Cu92 1.999 . S
N93 C95 1.263 . S
N93 C97 1.389 . S
N94 C95 1.358 . S
N94 C96 1.400 . S
C95 N93 1.263 . S
C95 N94 1.358 . S
C95 H101 0.930 . S
C96 N94 1.400 . S
C96 C97 1.351 . S
C96 H113 0.930 . S
C97 N93 1.389 . S
C97 C96 1.351 . S
C97 H102 0.930 . S
O98 Cu92 1.974 . S
O98 C108 1.282 . S
C99 O100 1.261 . S
C99 O112 1.251 . S
O100 C99 1.261 . S
H101 C95 0.930 . S
H102 C97 0.930 . S
N103 Cu92 1.985 . S
N103 C105 1.335 . S
N103 C106 1.390 . S
N104 C105 1.345 . S
N104 C107 1.336 . S
C105 N103 1.335 . S
C105 N104 1.345 . S
C105 H110 0.930 . S
C106 N103 1.390 . S
C106 C107 1.346 . S
C106 H111 0.930 . S
C107 N104 1.336 . S
C107 C106 1.346 . S
C107 H114 0.929 . S
C108 O98 1.282 . S
C108 O109 1.216 . S
O109 C108 1.216 . S
H110 C105 0.930 . S
H111 C106 0.930 . S
O112 Cu92 1.959 . S
O112 C99 1.251 . S
H113 C96 0.930 . S
H114 C107 0.929 . S
Cu115 N116 1.999 . S
Cu115 O121 1.974 . S
Cu115 N126 1.985 . S
Cu115 O135 1.959 . S
N116 Cu115 1.999 . S
N116 C118 1.263 . S
N116 C120 1.389 . S
N117 C118 1.358 . S
N117 C119 1.400 . S
C118 N116 1.263 . S
C118 N117 1.358 . S
C118 H124 0.930 . S
C119 N117 1.400 . S
C119 C120 1.351 . S
C119 H136 0.930 . S
C120 N116 1.389 . S
C120 C119 1.351 . S
C120 H125 0.930 . S
O121 Cu115 1.974 . S
O121 C131 1.282 . S
C122 O123 1.261 . S
C122 O135 1.251 . S
O123 C122 1.261 . S
H124 C118 0.930 . S
H125 C120 0.930 . S
N126 Cu115 1.985 . S
N126 C128 1.335 . S
N126 C129 1.390 . S
N127 C128 1.345 . S
N127 C130 1.336 . S
C128 N126 1.335 . S
C128 N127 1.345 . S
C128 H133 0.930 . S
C129 N126 1.390 . S
C129 C130 1.346 . S
C129 H134 0.930 . S
C130 N127 1.336 . S
C130 C129 1.346 . S
C130 H137 0.929 . S
C131 O121 1.282 . S
C131 O132 1.216 . S
O132 C131 1.216 . S
H133 C128 0.930 . S
H134 C129 0.930 . S
O135 Cu115 1.959 . S
O135 C122 1.251 . S
H136 C119 0.930 . S
H137 C130 0.929 . S
Cu138 N139 1.999 . S
Cu138 O144 1.974 . S
Cu138 N149 1.985 . S
Cu138 O158 1.959 . S
N139 Cu138 1.999 . S
N139 C141 1.263 . S
N139 C143 1.389 . S
N140 C141 1.358 . S
N140 C142 1.400 . S
C141 N139 1.263 . S
C141 N140 1.358 . S
C141 H147 0.930 . S
C142 N140 1.400 . S
C142 C143 1.351 . S
C142 H159 0.930 . S
C143 N139 1.389 . S
C143 C142 1.351 . S
C143 H148 0.930 . S
O144 Cu138 1.974 . S
O144 C154 1.282 . S
C145 O146 1.261 . S
C145 O158 1.251 . S
O146 C145 1.261 . S
H147 C141 0.930 . S
H148 C143 0.930 . S
N149 Cu138 1.985 . S
N149 C151 1.335 . S
N149 C152 1.390 . S
N150 C151 1.345 . S
N150 C153 1.336 . S
C151 N149 1.335 . S
C151 N150 1.345 . S
C151 H156 0.930 . S
C152 N149 1.390 . S
C152 C153 1.346 . S
C152 H157 0.930 . S
C153 N150 1.336 . S
C153 C152 1.346 . S
C153 H160 0.929 . S
C154 O144 1.282 . S
C154 O155 1.216 . S
O155 C154 1.216 . S
H156 C151 0.930 . S
H157 C152 0.930 . S
O158 Cu138 1.959 . S
O158 C145 1.251 . S
H159 C142 0.930 . S
H160 C153 0.929 . S
Cu161 N162 1.999 . S
Cu161 O167 1.974 . S
Cu161 N172 1.985 . S
Cu161 O181 1.959 . S
N162 Cu161 1.999 . S
N162 C164 1.263 . S
N162 C166 1.389 . S
N163 C164 1.358 . S
N163 C165 1.400 . S
C164 N162 1.263 . S
C164 N163 1.358 . S
C164 H170 0.930 . S
C165 N163 1.400 . S
C165 C166 1.351 . S
C165 H182 0.930 . S
C166 N162 1.389 . S
C166 C165 1.351 . S
C166 H171 0.930 . S
O167 Cu161 1.974 . S
O167 C177 1.282 . S
C168 O169 1.261 . S
C168 O181 1.251 . S
O169 C168 1.261 . S
H170 C164 0.930 . S
H171 C166 0.930 . S
N172 Cu161 1.985 . S
N172 C174 1.335 . S
N172 C175 1.390 . S
N173 C174 1.345 . S
N173 C176 1.336 . S
C174 N172 1.335 . S
C174 N173 1.345 . S
C174 H179 0.930 . S
C175 N172 1.390 . S
C175 C176 1.346 . S
C175 H180 0.930 . S
C176 N173 1.336 . S
C176 C175 1.346 . S
C176 H183 0.929 . S
C177 O167 1.282 . S
C177 O178 1.216 . S
O178 C177 1.216 . S
H179 C174 0.930 . S
H180 C175 0.930 . S
O181 Cu161 1.959 . S
O181 C168 1.251 . S
H182 C165 0.930 . S
H183 C176 0.929 . S
Cu184 N185 1.999 . S
Cu184 O190 1.974 . S
Cu184 N195 1.985 . S
Cu184 O204 1.959 . S
N185 Cu184 1.999 . S
N185 C187 1.263 . S
N185 C189 1.389 . S
N186 C187 1.358 . S
N186 C188 1.400 . S
C187 N185 1.263 . S
C187 N186 1.358 . S
C187 H193 0.930 . S
C188 N186 1.400 . S
C188 C189 1.351 . S
C188 H205 0.930 . S
C189 N185 1.389 . S
C189 C188 1.351 . S
C189 H194 0.930 . S
O190 Cu184 1.974 . S
O190 C200 1.282 . S
C191 O192 1.261 . S
C191 O204 1.251 . S
O192 C191 1.261 . S
H193 C187 0.930 . S
H194 C189 0.930 . S
N195 Cu184 1.985 . S
N195 C197 1.335 . S
N195 C198 1.390 . S
N196 C197 1.345 . S
N196 C199 1.336 . S
C197 N195 1.335 . S
C197 N196 1.345 . S
C197 H202 0.930 . S
C198 N195 1.390 . S
C198 C199 1.346 . S
C198 H203 0.930 . S
C199 N196 1.336 . S
C199 C198 1.346 . S
C199 H206 0.929 . S
C200 O190 1.282 . S
C200 O201 1.216 . S
O201 C200 1.216 . S
H202 C197 0.930 . S
H203 C198 0.930 . S
O204 Cu184 1.959 . S
O204 C191 1.251 . S
H205 C188 0.930 . S
H206 C199 0.929 . S
Cu207 N208 1.999 . S
Cu207 O213 1.974 . S
Cu207 N218 1.985 . S
Cu207 O227 1.959 . S
N208 Cu207 1.999 . S
N208 C210 1.263 . S
N208 C212 1.389 . S
N209 C210 1.358 . S
N209 C211 1.400 . S
C210 N208 1.263 . S
C210 N209 1.358 . S
C210 H216 0.930 . S
C211 N209 1.400 . S
C211 C212 1.351 . S
C211 H228 0.930 . S
C212 N208 1.389 . S
C212 C211 1.351 . S
C212 H217 0.930 . S
O213 Cu207 1.974 . S
O213 C223 1.282 . S
C214 O215 1.261 . S
C214 O227 1.251 . S
O215 C214 1.261 . S
H216 C210 0.930 . S
H217 C212 0.930 . S
N218 Cu207 1.985 . S
N218 C220 1.335 . S
N218 C221 1.390 . S
N219 C220 1.345 . S
N219 C222 1.336 . S
C220 N218 1.335 . S
C220 N219 1.345 . S
C220 H225 0.930 . S
C221 N218 1.390 . S
C221 C222 1.346 . S
C221 H226 0.930 . S
C222 N219 1.336 . S
C222 C221 1.346 . S
C222 H229 0.929 . S
C223 O213 1.282 . S
C223 O224 1.216 . S
O224 C223 1.216 . S
H225 C220 0.930 . S
H226 C221 0.930 . S
O227 Cu207 1.959 . S
O227 C214 1.251 . S
H228 C211 0.930 . S
H229 C222 0.929 . S
Cu230 N231 1.999 . S
Cu230 O236 1.974 . S
Cu230 N241 1.985 . S
Cu230 O250 1.959 . S
N231 Cu230 1.999 . S
N231 C233 1.263 . S
N231 C235 1.389 . S
N232 C233 1.358 . S
N232 C234 1.400 . S
C233 N231 1.263 . S
C233 N232 1.358 . S
C233 H239 0.930 . S
C234 N232 1.400 . S
C234 C235 1.351 . S
C234 H251 0.930 . S
C235 N231 1.389 . S
C235 C234 1.351 . S
C235 H240 0.930 . S
O236 Cu230 1.974 . S
O236 C246 1.282 . S
C237 O238 1.261 . S
C237 O250 1.251 . S
O238 C237 1.261 . S
H239 C233 0.930 . S
H240 C235 0.930 . S
N241 Cu230 1.985 . S
N241 C243 1.335 . S
N241 C244 1.390 . S
N242 C243 1.345 . S
N242 C245 1.336 . S
C243 N241 1.335 . S
C243 N242 1.345 . S
C243 H248 0.930 . S
C244 N241 1.390 . S
C244 C245 1.346 . S
C244 H249 0.930 . S
C245 N242 1.336 . S
C245 C244 1.346 . S
C245 H252 0.929 . S
C246 O236 1.282 . S
C246 O247 1.216 . S
O247 C246 1.216 . S
H248 C243 0.930 . S
H249 C244 0.930 . S
O250 Cu230 1.959 . S
O250 C237 1.251 . S
H251 C234 0.930 . S
H252 C245 0.929 . S
Cu253 N254 1.999 . S
Cu253 O259 1.974 . S
Cu253 N264 1.985 . S
Cu253 O273 1.959 . S
N254 Cu253 1.999 . S
N254 C256 1.263 . S
N254 C258 1.389 . S
N255 C256 1.358 . S
N255 C257 1.400 . S
C256 N254 1.263 . S
C256 N255 1.358 . S
C256 H262 0.930 . S
C257 N255 1.400 . S
C257 C258 1.351 . S
C257 H274 0.930 . S
C258 N254 1.389 . S
C258 C257 1.351 . S
C258 H263 0.930 . S
O259 Cu253 1.974 . S
O259 C269 1.282 . S
C260 O261 1.261 . S
C260 O273 1.251 . S
O261 C260 1.261 . S
H262 C256 0.930 . S
H263 C258 0.930 . S
N264 Cu253 1.985 . S
N264 C266 1.335 . S
N264 C267 1.390 . S
N265 C266 1.345 . S
N265 C268 1.336 . S
C266 N264 1.335 . S
C266 N265 1.345 . S
C266 H271 0.930 . S
C267 N264 1.390 . S
C267 C268 1.346 . S
C267 H272 0.930 . S
C268 N265 1.336 . S
C268 C267 1.346 . S
C268 H275 0.929 . S
C269 O259 1.282 . S
C269 O270 1.216 . S
O270 C269 1.216 . S
H271 C266 0.930 . S
H272 C267 0.930 . S
O273 Cu253 1.959 . S
O273 C260 1.251 . S
H274 C257 0.930 . S
H275 C268 0.929 . S
Cu276 N277 1.999 . S
Cu276 O282 1.974 . S
Cu276 N287 1.985 . S
Cu276 O296 1.959 . S
N277 Cu276 1.999 . S
N277 C279 1.263 . S
N277 C281 1.389 . S
N278 C279 1.358 . S
N278 C280 1.400 . S
C279 N277 1.263 . S
C279 N278 1.358 . S
C279 H285 0.930 . S
C280 N278 1.400 . S
C280 C281 1.351 . S
C280 H297 0.930 . S
C281 N277 1.389 . S
C281 C280 1.351 . S
C281 H286 0.930 . S
O282 Cu276 1.974 . S
O282 C292 1.282 . S
C283 O284 1.261 . S
C283 O296 1.251 . S
O284 C283 1.261 . S
H285 C279 0.930 . S
H286 C281 0.930 . S
N287 Cu276 1.985 . S
N287 C289 1.335 . S
N287 C290 1.390 . S
N288 C289 1.345 . S
N288 C291 1.336 . S
C289 N287 1.335 . S
C289 N288 1.345 . S
C289 H294 0.930 . S
C290 N287 1.390 . S
C290 C291 1.346 . S
C290 H295 0.930 . S
C291 N288 1.336 . S
C291 C290 1.346 . S
C291 H298 0.929 . S
C292 O282 1.282 . S
C292 O293 1.216 . S
O293 C292 1.216 . S
H294 C289 0.930 . S
H295 C290 0.930 . S
O296 Cu276 1.959 . S
O296 C283 1.251 . S
H297 C280 0.930 . S
H298 C291 0.929 . S
Cu299 N300 1.999 . S
Cu299 O305 1.974 . S
Cu299 N310 1.985 . S
Cu299 O319 1.959 . S
N300 Cu299 1.999 . S
N300 C302 1.263 . S
N300 C304 1.389 . S
N301 C302 1.358 . S
N301 C303 1.400 . S
C302 N300 1.263 . S
C302 N301 1.358 . S
C302 H308 0.930 . S
C303 N301 1.400 . S
C303 C304 1.351 . S
C303 H320 0.930 . S
C304 N300 1.389 . S
C304 C303 1.351 . S
C304 H309 0.930 . S
O305 Cu299 1.974 . S
O305 C315 1.282 . S
C306 O307 1.261 . S
C306 O319 1.251 . S
O307 C306 1.261 . S
H308 C302 0.930 . S
H309 C304 0.930 . S
N310 Cu299 1.985 . S
N310 C312 1.335 . S
N310 C313 1.390 . S
N311 C312 1.345 . S
N311 C314 1.336 . S
C312 N310 1.335 . S
C312 N311 1.345 . S
C312 H317 0.930 . S
C313 N310 1.390 . S
C313 C314 1.346 . S
C313 H318 0.930 . S
C314 N311 1.336 . S
C314 C313 1.346 . S
C314 H321 0.929 . S
C315 O305 1.282 . S
C315 O316 1.216 . S
O316 C315 1.216 . S
H317 C312 0.930 . S
H318 C313 0.930 . S
O319 Cu299 1.959 . S
O319 C306 1.251 . S
H320 C303 0.930 . S
H321 C314 0.929 . S
Cu322 N323 1.999 . S
Cu322 O328 1.974 . S
Cu322 N333 1.985 . S
Cu322 O342 1.959 . S
N323 Cu322 1.999 . S
N323 C325 1.263 . S
N323 C327 1.389 . S
N324 C325 1.358 . S
N324 C326 1.400 . S
C325 N323 1.263 . S
C325 N324 1.358 . S
C325 H331 0.930 . S
C326 N324 1.400 . S
C326 C327 1.351 . S
C326 H343 0.930 . S
C327 N323 1.389 . S
C327 C326 1.351 . S
C327 H332 0.930 . S
O328 Cu322 1.974 . S
O328 C338 1.282 . S
C329 O330 1.261 . S
C329 O342 1.251 . S
O330 C329 1.261 . S
H331 C325 0.930 . S
H332 C327 0.930 . S
N333 Cu322 1.985 . S
N333 C335 1.335 . S
N333 C336 1.390 . S
N334 C335 1.345 . S
N334 C337 1.336 . S
C335 N333 1.335 . S
C335 N334 1.345 . S
C335 H340 0.930 . S
C336 N333 1.390 . S
C336 C337 1.346 . S
C336 H341 0.930 . S
C337 N334 1.336 . S
C337 C336 1.346 . S
C337 H344 0.929 . S
C338 O328 1.282 . S
C338 O339 1.216 . S
O339 C338 1.216 . S
H340 C335 0.930 . S
H341 C336 0.930 . S
O342 Cu322 1.959 . S
O342 C329 1.251 . S
H343 C326 0.930 . S
H344 C337 0.929 . S
Cu345 N346 1.999 . S
Cu345 O351 1.974 . S
Cu345 N356 1.985 . S
Cu345 O365 1.959 . S
N346 Cu345 1.999 . S
N346 C348 1.263 . S
N346 C350 1.389 . S
N347 C348 1.358 . S
N347 C349 1.400 . S
C348 N346 1.263 . S
C348 N347 1.358 . S
C348 H354 0.930 . S
C349 N347 1.400 . S
C349 C350 1.351 . S
C349 H366 0.930 . S
C350 N346 1.389 . S
C350 C349 1.351 . S
C350 H355 0.930 . S
O351 Cu345 1.974 . S
O351 C361 1.282 . S
C352 O353 1.261 . S
C352 O365 1.251 . S
O353 C352 1.261 . S
H354 C348 0.930 . S
H355 C350 0.930 . S
N356 Cu345 1.985 . S
N356 C358 1.335 . S
N356 C359 1.390 . S
N357 C358 1.345 . S
N357 C360 1.336 . S
C358 N356 1.335 . S
C358 N357 1.345 . S
C358 H363 0.930 . S
C359 N356 1.390 . S
C359 C360 1.346 . S
C359 H364 0.930 . S
C360 N357 1.336 . S
C360 C359 1.346 . S
C360 H367 0.929 . S
C361 O351 1.282 . S
C361 O362 1.216 . S
O362 C361 1.216 . S
H363 C358 0.930 . S
H364 C359 0.930 . S
O365 Cu345 1.959 . S
O365 C352 1.251 . S
H366 C349 0.930 . S
H367 C360 0.929 . S
Cu368 N369 1.999 . S
Cu368 O374 1.974 . S
Cu368 N379 1.985 . S
Cu368 O388 1.959 . S
N369 Cu368 1.999 . S
N369 C371 1.263 . S
N369 C373 1.389 . S
N370 C371 1.358 . S
N370 C372 1.400 . S
C371 N369 1.263 . S
C371 N370 1.358 . S
C371 H377 0.930 . S
C372 N370 1.400 . S
C372 C373 1.351 . S
C372 H389 0.930 . S
C373 N369 1.389 . S
C373 C372 1.351 . S
C373 H378 0.930 . S
O374 Cu368 1.974 . S
O374 C384 1.282 . S
C375 O376 1.261 . S
C375 O388 1.251 . S
O376 C375 1.261 . S
H377 C371 0.930 . S
H378 C373 0.930 . S
N379 Cu368 1.985 . S
N379 C381 1.335 . S
N379 C382 1.390 . S
N380 C381 1.345 . S
N380 C383 1.336 . S
C381 N379 1.335 . S
C381 N380 1.345 . S
C381 H386 0.930 . S
C382 N379 1.390 . S
C382 C383 1.346 . S
C382 H387 0.930 . S
C383 N380 1.336 . S
C383 C382 1.346 . S
C383 H390 0.929 . S
C384 O374 1.282 . S
C384 O385 1.216 . S
O385 C384 1.216 . S
H386 C381 0.930 . S
H387 C382 0.930 . S
O388 Cu368 1.959 . S
O388 C375 1.251 . S
H389 C372 0.930 . S
H390 C383 0.929 . S
Cu391 N392 1.999 . S
Cu391 O397 1.974 . S
Cu391 N402 1.985 . S
Cu391 O411 1.959 . S
N392 Cu391 1.999 . S
N392 C394 1.263 . S
N392 C396 1.389 . S
N393 C394 1.358 . S
N393 C395 1.400 . S
C394 N392 1.263 . S
C394 N393 1.358 . S
C394 H400 0.930 . S
C395 N393 1.400 . S
C395 C396 1.351 . S
C395 H412 0.930 . S
C396 N392 1.389 . S
C396 C395 1.351 . S
C396 H401 0.930 . S
O397 Cu391 1.974 . S
O397 C407 1.282 . S
C398 O399 1.261 . S
C398 O411 1.251 . S
O399 C398 1.261 . S
H400 C394 0.930 . S
H401 C396 0.930 . S
N402 Cu391 1.985 . S
N402 C404 1.335 . S
N402 C405 1.390 . S
N403 C404 1.345 . S
N403 C406 1.336 . S
C404 N402 1.335 . S
C404 N403 1.345 . S
C404 H409 0.930 . S
C405 N402 1.390 . S
C405 C406 1.346 . S
C405 H410 0.930 . S
C406 N403 1.336 . S
C406 C405 1.346 . S
C406 H413 0.929 . S
C407 O397 1.282 . S
C407 O408 1.216 . S
O408 C407 1.216 . S
H409 C404 0.930 . S
H410 C405 0.930 . S
O411 Cu391 1.959 . S
O411 C398 1.251 . S
H412 C395 0.930 . S
H413 C406 0.929 . S
Cu414 N415 1.999 . S
Cu414 O420 1.974 . S
Cu414 N425 1.985 . S
Cu414 O434 1.959 . S
N415 Cu414 1.999 . S
N415 C417 1.263 . S
N415 C419 1.389 . S
N416 C417 1.358 . S
N416 C418 1.400 . S
C417 N415 1.263 . S
C417 N416 1.358 . S
C417 H423 0.930 . S
C418 N416 1.400 . S
C418 C419 1.351 . S
C418 H435 0.930 . S
C419 N415 1.389 . S
C419 C418 1.351 . S
C419 H424 0.930 . S
O420 Cu414 1.974 . S
O420 C430 1.282 . S
C421 O422 1.261 . S
C421 O434 1.251 . S
O422 C421 1.261 . S
H423 C417 0.930 . S
H424 C419 0.930 . S
N425 Cu414 1.985 . S
N425 C427 1.335 . S
N425 C428 1.390 . S
N426 C427 1.345 . S
N426 C429 1.336 . S
C427 N425 1.335 . S
C427 N426 1.345 . S
C427 H432 0.930 . S
C428 N425 1.390 . S
C428 C429 1.346 . S
C428 H433 0.930 . S
C429 N426 1.336 . S
C429 C428 1.346 . S
C429 H436 0.929 . S
C430 O420 1.282 . S
C430 O431 1.216 . S
O431 C430 1.216 . S
H432 C427 0.930 . S
H433 C428 0.930 . S
O434 Cu414 1.959 . S
O434 C421 1.251 . S
H435 C418 0.930 . S
H436 C429 0.929 . S
Cu437 N438 1.999 . S
Cu437 O443 1.974 . S
Cu437 N448 1.985 . S
Cu437 O457 1.959 . S
N438 Cu437 1.999 . S
N438 C440 1.263 . S
N438 C442 1.389 . S
N439 C440 1.358 . S
N439 C441 1.400 . S
C440 N438 1.263 . S
C440 N439 1.358 . S
C440 H446 0.930 . S
C441 N439 1.400 . S
C441 C442 1.351 . S
C441 H458 0.930 . S
C442 N438 1.389 . S
C442 C441 1.351 . S
C442 H447 0.930 . S
O443 Cu437 1.974 . S
O443 C453 1.282 . S
C444 O445 1.261 . S
C444 O457 1.251 . S
O445 C444 1.261 . S
H446 C440 0.930 . S
H447 C442 0.930 . S
N448 Cu437 1.985 . S
N448 C450 1.335 . S
N448 C451 1.390 . S
N449 C450 1.345 . S
N449 C452 1.336 . S
C450 N448 1.335 . S
C450 N449 1.345 . S
C450 H455 0.930 . S
C451 N448 1.390 . S
C451 C452 1.346 . S
C451 H456 0.930 . S
C452 N449 1.336 . S
C452 C451 1.346 . S
C452 H459 0.929 . S
C453 O443 1.282 . S
C453 O454 1.216 . S
O454 C453 1.216 . S
H455 C450 0.930 . S
H456 C451 0.930 . S
O457 Cu437 1.959 . S
O457 C444 1.251 . S
H458 C441 0.930 . S
H459 C452 0.929 . S
Cu460 N461 1.999 . S
Cu460 O466 1.974 . S
Cu460 N471 1.985 . S
Cu460 O480 1.959 . S
N461 Cu460 1.999 . S
N461 C463 1.263 . S
N461 C465 1.389 . S
N462 C463 1.358 . S
N462 C464 1.400 . S
C463 N461 1.263 . S
C463 N462 1.358 . S
C463 H469 0.930 . S
C464 N462 1.400 . S
C464 C465 1.351 . S
C464 H481 0.930 . S
C465 N461 1.389 . S
C465 C464 1.351 . S
C465 H470 0.930 . S
O466 Cu460 1.974 . S
O466 C476 1.282 . S
C467 O468 1.261 . S
C467 O480 1.251 . S
O468 C467 1.261 . S
H469 C463 0.930 . S
H470 C465 0.930 . S
N471 Cu460 1.985 . S
N471 C473 1.335 . S
N471 C474 1.390 . S
N472 C473 1.345 . S
N472 C475 1.336 . S
C473 N471 1.335 . S
C473 N472 1.345 . S
C473 H478 0.930 . S
C474 N471 1.390 . S
C474 C475 1.346 . S
C474 H479 0.930 . S
C475 N472 1.336 . S
C475 C474 1.346 . S
C475 H482 0.929 . S
C476 O466 1.282 . S
C476 O477 1.216 . S
O477 C476 1.216 . S
H478 C473 0.930 . S
H479 C474 0.930 . S
O480 Cu460 1.959 . S
O480 C467 1.251 . S
H481 C464 0.930 . S
H482 C475 0.929 . S
Cu483 N484 1.999 . S
Cu483 O489 1.974 . S
Cu483 N494 1.985 . S
Cu483 O503 1.959 . S
N484 Cu483 1.999 . S
N484 C486 1.263 . S
N484 C488 1.389 . S
N485 C486 1.358 . S
N485 C487 1.400 . S
C486 N484 1.263 . S
C486 N485 1.358 . S
C486 H492 0.930 . S
C487 N485 1.400 . S
C487 C488 1.351 . S
C487 H504 0.930 . S
C488 N484 1.389 . S
C488 C487 1.351 . S
C488 H493 0.930 . S
O489 Cu483 1.974 . S
O489 C499 1.282 . S
C490 O491 1.261 . S
C490 O503 1.251 . S
O491 C490 1.261 . S
H492 C486 0.930 . S
H493 C488 0.930 . S
N494 Cu483 1.985 . S
N494 C496 1.335 . S
N494 C497 1.390 . S
N495 C496 1.345 . S
N495 C498 1.336 . S
C496 N494 1.335 . S
C496 N495 1.345 . S
C496 H501 0.930 . S
C497 N494 1.390 . S
C497 C498 1.346 . S
C497 H502 0.930 . S
C498 N495 1.336 . S
C498 C497 1.346 . S
C498 H505 0.929 . S
C499 O489 1.282 . S
C499 O500 1.216 . S
O500 C499 1.216 . S
H501 C496 0.930 . S
H502 C497 0.930 . S
O503 Cu483 1.959 . S
O503 C490 1.251 . S
H504 C487 0.930 . S
H505 C498 0.929 . S
Cu506 N507 1.999 . S
Cu506 O512 1.974 . S
Cu506 N517 1.985 . S
Cu506 O526 1.959 . S
N507 Cu506 1.999 . S
N507 C509 1.263 . S
N507 C511 1.389 . S
N508 C509 1.358 . S
N508 C510 1.400 . S
C509 N507 1.263 . S
C509 N508 1.358 . S
C509 H515 0.930 . S
C510 N508 1.400 . S
C510 C511 1.351 . S
C510 H527 0.930 . S
C511 N507 1.389 . S
C511 C510 1.351 . S
C511 H516 0.930 . S
O512 Cu506 1.974 . S
O512 C522 1.282 . S
C513 O514 1.261 . S
C513 O526 1.251 . S
O514 C513 1.261 . S
H515 C509 0.930 . S
H516 C511 0.930 . S
N517 Cu506 1.985 . S
N517 C519 1.335 . S
N517 C520 1.390 . S
N518 C519 1.345 . S
N518 C521 1.336 . S
C519 N517 1.335 . S
C519 N518 1.345 . S
C519 H524 0.930 . S
C520 N517 1.390 . S
C520 C521 1.346 . S
C520 H525 0.930 . S
C521 N518 1.336 . S
C521 C520 1.346 . S
C521 H528 0.929 . S
C522 O512 1.282 . S
C522 O523 1.216 . S
O523 C522 1.216 . S
H524 C519 0.930 . S
H525 C520 0.930 . S
O526 Cu506 1.959 . S
O526 C513 1.251 . S
H527 C510 0.930 . S
H528 C521 0.929 . S
Cu529 N530 1.999 . S
Cu529 O535 1.974 . S
Cu529 N540 1.985 . S
Cu529 O549 1.959 . S
N530 Cu529 1.999 . S
N530 C532 1.263 . S
N530 C534 1.389 . S
N531 C532 1.358 . S
N531 C533 1.400 . S
C532 N530 1.263 . S
C532 N531 1.358 . S
C532 H538 0.930 . S
C533 N531 1.400 . S
C533 C534 1.351 . S
C533 H550 0.930 . S
C534 N530 1.389 . S
C534 C533 1.351 . S
C534 H539 0.930 . S
O535 Cu529 1.974 . S
O535 C545 1.282 . S
C536 O537 1.261 . S
C536 O549 1.251 . S
O537 C536 1.261 . S
H538 C532 0.930 . S
H539 C534 0.930 . S
N540 Cu529 1.985 . S
N540 C542 1.335 . S
N540 C543 1.390 . S
N541 C542 1.345 . S
N541 C544 1.336 . S
C542 N540 1.335 . S
C542 N541 1.345 . S
C542 H547 0.930 . S
C543 N540 1.390 . S
C543 C544 1.346 . S
C543 H548 0.930 . S
C544 N541 1.336 . S
C544 C543 1.346 . S
C544 H551 0.929 . S
C545 O535 1.282 . S
C545 O546 1.216 . S
O546 C545 1.216 . S
H547 C542 0.930 . S
H548 C543 0.930 . S
O549 Cu529 1.959 . S
O549 C536 1.251 . S
H550 C533 0.930 . S
H551 C544 0.929 . S
C552 C553 1.349 . S
C552 C554 1.327 . S
C552 H577 0.950 . S
C553 C552 1.349 . S
C553 C569 1.349 . S
C554 C552 1.327 . S
C554 C573 1.429 . S
C554 H578 0.950 . S
C555 C572 1.574 . S
C555 C574 1.368 . S
C555 H579 0.949 . S
H556 C560 0.949 . S
C557 C558 1.349 . S
C557 C559 1.327 . S
C557 H580 0.950 . S
C558 C557 1.349 . S
C558 C570 1.349 . S
C559 C557 1.327 . S
C559 C575 1.429 . S
C559 H581 0.950 . S
C560 H556 0.949 . S
C560 C568 1.574 . S
C560 C576 1.368 . S
H561 C569 0.950 . S
H562 C567 0.950 . S
H563 C568 0.949 . S
H564 C570 0.950 . S
H565 C571 0.950 . S
H566 C572 0.949 . S
C567 H562 0.950 . S
C567 C569 1.327 . S
C567 C573 1.429 . S
C568 C560 1.574 . S
C568 H563 0.949 . S
C568 C574 1.368 . S
C569 C553 1.349 . S
C569 H561 0.950 . S
C569 C567 1.327 . S
C570 C558 1.349 . S
C570 H564 0.950 . S
C570 C571 1.327 . S
C571 H565 0.950 . S
C571 C570 1.327 . S
C571 C575 1.429 . S
C572 C555 1.574 . S
C572 H566 0.949 . S
C572 C576 1.368 . S
C573 C554 1.429 . S
C573 C567 1.429 . S
C573 C574 1.523 . S
C574 C555 1.368 . S
C574 C568 1.368 . S
C574 C573 1.523 . S
C575 C559 1.429 . S
C575 C571 1.429 . S
C575 C576 1.523 . S
C576 C560 1.368 . S
C576 C572 1.368 . S
C576 C575 1.523 . S
H577 C552 0.950 . S
H578 C554 0.950 . S
H579 C555 0.949 . S
H580 C557 0.950 . S
H581 C559 0.950 . S
C582 C583 1.349 . S
C582 C584 1.327 . S
C582 H607 0.950 . S
C583 C582 1.349 . S
C583 C599 1.349 . S
C584 C582 1.327 . S
C584 C603 1.429 . S
C584 H608 0.950 . S
C585 C602 1.574 . S
C585 C604 1.368 . S
C585 H609 0.949 . S
H586 C590 0.949 . S
C587 C588 1.349 . S
C587 C589 1.327 . S
C587 H610 0.950 . S
C588 C587 1.349 . S
C588 C600 1.349 . S
C589 C587 1.327 . S
C589 C605 1.429 . S
C589 H611 0.950 . S
C590 H586 0.949 . S
C590 C598 1.574 . S
C590 C606 1.368 . S
H591 C599 0.950 . S
H592 C597 0.950 . S
H593 C598 0.949 . S
H594 C600 0.950 . S
H595 C601 0.950 . S
H596 C602 0.949 . S
C597 H592 0.950 . S
C597 C599 1.327 . S
C597 C603 1.429 . S
C598 C590 1.574 . S
C598 H593 0.949 . S
C598 C604 1.368 . S
C599 C583 1.349 . S
C599 H591 0.950 . S
C599 C597 1.327 . S
C600 C588 1.349 . S
C600 H594 0.950 . S
C600 C601 1.327 . S
C601 H595 0.950 . S
C601 C600 1.327 . S
C601 C605 1.429 . S
C602 C585 1.574 . S
C602 H596 0.949 . S
C602 C606 1.368 . S
C603 C584 1.429 . S
C603 C597 1.429 . S
C603 C604 1.523 . S
C604 C585 1.368 . S
C604 C598 1.368 . S
C604 C603 1.523 . S
C605 C589 1.429 . S
C605 C601 1.429 . S
C605 C606 1.523 . S
C606 C590 1.368 . S
C606 C602 1.368 . S
C606 C605 1.523 . S
H607 C582 0.950 . S
H608 C584 0.950 . S
H609 C585 0.949 . S
H610 C587 0.950 . S
H611 C589 0.950 . S
C612 C613 1.349 . S
C612 C614 1.327 . S
C612 H637 0.950 . S
C613 C612 1.349 . S
C613 C629 1.349 . S
C614 C612 1.327 . S
C614 C633 1.429 . S
C614 H638 0.950 . S
C615 C632 1.574 . S
C615 C634 1.368 . S
C615 H639 0.949 . S
H616 C620 0.949 . S
C617 C618 1.349 . S
C617 C619 1.327 . S
C617 H640 0.950 . S
C618 C617 1.349 . S
C618 C630 1.349 . S
C619 C617 1.327 . S
C619 C635 1.429 . S
C619 H641 0.950 . S
C620 H616 0.949 . S
C620 C628 1.574 . S
C620 C636 1.368 . S
H621 C629 0.950 . S
H622 C627 0.950 . S
H623 C628 0.949 . S
H624 C630 0.950 . S
H625 C631 0.950 . S
H626 C632 0.949 . S
C627 H622 0.950 . S
C627 C629 1.327 . S
C627 C633 1.429 . S
C628 C620 1.574 . S
C628 H623 0.949 . S
C628 C634 1.368 . S
C629 C613 1.349 . S
C629 H621 0.950 . S
C629 C627 1.327 . S
C630 C618 1.349 . S
C630 H624 0.950 . S
C630 C631 1.327 . S
C631 H625 0.950 . S
C631 C630 1.327 . S
C631 C635 1.429 . S
C632 C615 1.574 . S
C632 H626 0.949 . S
C632 C636 1.368 . S
C633 C614 1.429 . S
C633 C627 1.429 . S
C633 C634 1.523 . S
C634 C615 1.368 . S
C634 C628 1.368 . S
C634 C633 1.523 . S
C635 C619 1.429 . S
C635 C631 1.429 . S
C635 C636 1.523 . S
C636 C620 1.368 . S
C636 C632 1.368 . S
C636 C635 1.523 . S
H637 C612 0.950 . S
H638 C614 0.950 . S
H639 C615 0.949 . S
H640 C617 0.950 . S
H641 C619 0.950 . S
C642 C643 1.349 . S
C642 C644 1.327 . S
C642 H667 0.950 . S
C643 C642 1.349 . S
C643 C659 1.349 . S
C644 C642 1.327 . S
C644 C663 1.429 . S
C644 H668 0.950 . S
C645 C662 1.574 . S
C645 C664 1.368 . S
C645 H669 0.949 . S
H646 C650 0.949 . S
C647 C648 1.349 . S
C647 C649 1.327 . S
C647 H670 0.950 . S
C648 C647 1.349 . S
C648 C660 1.349 . S
C649 C647 1.327 . S
C649 C665 1.429 . S
C649 H671 0.950 . S
C650 H646 0.949 . S
C650 C658 1.574 . S
C650 C666 1.368 . S
H651 C659 0.950 . S
H652 C657 0.950 . S
H653 C658 0.949 . S
H654 C660 0.950 . S
H655 C661 0.950 . S
H656 C662 0.949 . S
C657 H652 0.950 . S
C657 C659 1.327 . S
C657 C663 1.429 . S
C658 C650 1.574 . S
C658 H653 0.949 . S
C658 C664 1.368 . S
C659 C643 1.349 . S
C659 H651 0.950 . S
C659 C657 1.327 . S
C660 C648 1.349 . S
C660 H654 0.950 . S
C660 C661 1.327 . S
C661 H655 0.950 . S
C661 C660 1.327 . S
C661 C665 1.429 . S
C662 C645 1.574 . S
C662 H656 0.949 . S
C662 C666 1.368 . S
C663 C644 1.429 . S
C663 C657 1.429 . S
C663 C664 1.523 . S
C664 C645 1.368 . S
C664 C658 1.368 . S
C664 C663 1.523 . S
C665 C649 1.429 . S
C665 C661 1.429 . S
C665 C666 1.523 . S
C666 C650 1.368 . S
C666 C662 1.368 . S
C666 C665 1.523 . S
H667 C642 0.950 . S
H668 C644 0.950 . S
H669 C645 0.949 . S
H670 C647 0.950 . S
H671 C649 0.950 . S
C672 C673 1.349 . S
C672 C674 1.327 . S
C672 H697 0.950 . S
C673 C672 1.349 . S
C673 C689 1.349 . S
C674 C672 1.327 . S
C674 C693 1.429 . S
C674 H698 0.950 . S
C675 C692 1.574 . S
C675 C694 1.368 . S
C675 H699 0.949 . S
H676 C680 0.949 . S
C677 C678 1.349 . S
C677 C679 1.327 . S
C677 H700 0.950 . S
C678 C677 1.349 . S
C678 C690 1.349 . S
C679 C677 1.327 . S
C679 C695 1.429 . S
C679 H701 0.950 . S
C680 H676 0.949 . S
C680 C688 1.574 . S
C680 C696 1.368 . S
H681 C689 0.950 . S
H682 C687 0.950 . S
H683 C688 0.949 . S
H684 C690 0.950 . S
H685 C691 0.950 . S
H686 C692 0.949 . S
C687 H682 0.950 . S
C687 C689 1.327 . S
C687 C693 1.429 . S
C688 C680 1.574 . S
C688 H683 0.949 . S
C688 C694 1.368 . S
C689 C673 1.349 . S
C689 H681 0.950 . S
C689 C687 1.327 . S
C690 C678 1.349 . S
C690 H684 0.950 . S
C690 C691 1.327 . S
C691 H685 0.950 . S
C691 C690 1.327 . S
C691 C695 1.429 . S
C692 C675 1.574 . S
C692 H686 0.949 . S
C692 C696 1.368 . S
C693 C674 1.429 . S
C693 C687 1.429 . S
C693 C694 1.523 . S
C694 C675 1.368 . S
C694 C688 1.368 . S
C694 C693 1.523 . S
C695 C679 1.429 . S
C695 C691 1.429 . S
C695 C696 1.523 . S
C696 C680 1.368 . S
C696 C692 1.368 . S
C696 C695 1.523 . S
H697 C672 0.950 . S
H698 C674 0.950 . S
H699 C675 0.949 . S
H700 C677 0.950 . S
H701 C679 0.950 . S
C702 C703 1.349 . S
C702 C704 1.327 . S
C702 H727 0.950 . S
C703 C702 1.349 . S
C703 C719 1.349 . S
C704 C702 1.327 . S
C704 C723 1.429 . S
C704 H728 0.950 . S
C705 C722 1.574 . S
C705 C724 1.368 . S
C705 H729 0.949 . S
H706 C710 0.949 . S
C707 C708 1.349 . S
C707 C709 1.327 . S
C707 H730 0.950 . S
C708 C707 1.349 . S
C708 C720 1.349 . S
C709 C707 1.327 . S
C709 C725 1.429 . S
C709 H731 0.950 . S
C710 H706 0.949 . S
C710 C718 1.574 . S
C710 C726 1.368 . S
H711 C719 0.950 . S
H712 C717 0.950 . S
H713 C718 0.949 . S
H714 C720 0.950 . S
H715 C721 0.950 . S
H716 C722 0.949 . S
C717 H712 0.950 . S
C717 C719 1.327 . S
C717 C723 1.429 . S
C718 C710 1.574 . S
C718 H713 0.949 . S
C718 C724 1.368 . S
C719 C703 1.349 . S
C719 H711 0.950 . S
C719 C717 1.327 . S
C720 C708 1.349 . S
C720 H714 0.950 . S
C720 C721 1.327 . S
C721 H715 0.950 . S
C721 C720 1.327 . S
C721 C725 1.429 . S
C722 C705 1.574 . S
C722 H716 0.949 . S
C722 C726 1.368 . S
C723 C704 1.429 . S
C723 C717 1.429 . S
C723 C724 1.523 . S
C724 C705 1.368 . S
C724 C718 1.368 . S
C724 C723 1.523 . S
C725 C709 1.429 . S
C725 C721 1.429 . S
C725 C726 1.523 . S
C726 C710 1.368 . S
C726 C722 1.368 . S
C726 C725 1.523 . S
H727 C702 0.950 . S
H728 C704 0.950 . S
H729 C705 0.949 . S
H730 C707 0.950 . S
H731 C709 0.950 . S
C732 C733 1.349 . S
C732 C734 1.327 . S
C732 H757 0.950 . S
C733 C732 1.349 . S
C733 C749 1.349 . S
C734 C732 1.327 . S
C734 C753 1.429 . S
C734 H758 0.950 . S
C735 C752 1.574 . S
C735 C754 1.368 . S
C735 H759 0.949 . S
H736 C740 0.949 . S
C737 C738 1.349 . S
C737 C739 1.327 . S
C737 H760 0.950 . S
C738 C737 1.349 . S
C738 C750 1.349 . S
C739 C737 1.327 . S
C739 C755 1.429 . S
C739 H761 0.950 . S
C740 H736 0.949 . S
C740 C748 1.574 . S
C740 C756 1.368 . S
H741 C749 0.950 . S
H742 C747 0.950 . S
H743 C748 0.949 . S
H744 C750 0.950 . S
H745 C751 0.950 . S
H746 C752 0.949 . S
C747 H742 0.950 . S
C747 C749 1.327 . S
C747 C753 1.429 . S
C748 C740 1.574 . S
C748 H743 0.949 . S
C748 C754 1.368 . S
C749 C733 1.349 . S
C749 H741 0.950 . S
C749 C747 1.327 . S
C750 C738 1.349 . S
C750 H744 0.950 . S
C750 C751 1.327 . S
C751 H745 0.950 . S
C751 C750 1.327 . S
C751 C755 1.429 . S
C752 C735 1.574 . S
C752 H746 0.949 . S
C752 C756 1.368 . S
C753 C734 1.429 . S
C753 C747 1.429 . S
C753 C754 1.523 . S
C754 C735 1.368 . S
C754 C748 1.368 . S
C754 C753 1.523 . S
C755 C739 1.429 . S
C755 C751 1.429 . S
C755 C756 1.523 . S
C756 C740 1.368 . S
C756 C752 1.368 . S
C756 C755 1.523 . S
H757 C732 0.950 . S
H758 C734 0.950 . S
H759 C735 0.949 . S
H760 C737 0.950 . S
H761 C739 0.950 . S
C762 C763 1.349 . S
C762 C764 1.327 . S
C762 H787 0.950 . S
C763 C762 1.349 . S
C763 C779 1.349 . S
C764 C762 1.327 . S
C764 C783 1.429 . S
C764 H788 0.950 . S
C765 C782 1.574 . S
C765 C784 1.368 . S
C765 H789 0.949 . S
H766 C770 0.949 . S
C767 C768 1.349 . S
C767 C769 1.327 . S
C767 H790 0.950 . S
C768 C767 1.349 . S
C768 C780 1.349 . S
C769 C767 1.327 . S
C769 C785 1.429 . S
C769 H791 0.950 . S
C770 H766 0.949 . S
C770 C778 1.574 . S
C770 C786 1.368 . S
H771 C779 0.950 . S
H772 C777 0.950 . S
H773 C778 0.949 . S
H774 C780 0.950 . S
H775 C781 0.950 . S
H776 C782 0.949 . S
C777 H772 0.950 . S
C777 C779 1.327 . S
C777 C783 1.429 . S
C778 C770 1.574 . S
C778 H773 0.949 . S
C778 C784 1.368 . S
C779 C763 1.349 . S
C779 H771 0.950 . S
C779 C777 1.327 . S
C780 C768 1.349 . S
C780 H774 0.950 . S
C780 C781 1.327 . S
C781 H775 0.950 . S
C781 C780 1.327 . S
C781 C785 1.429 . S
C782 C765 1.574 . S
C782 H776 0.949 . S
C782 C786 1.368 . S
C783 C764 1.429 . S
C783 C777 1.429 . S
C783 C784 1.523 . S
C784 C765 1.368 . S
C784 C778 1.368 . S
C784 C783 1.523 . S
C785 C769 1.429 . S
C785 C781 1.429 . S
C785 C786 1.523 . S
C786 C770 1.368 . S
C786 C782 1.368 . S
C786 C785 1.523 . S
H787 C762 0.950 . S
H788 C764 0.950 . S
H789 C765 0.949 . S
H790 C767 0.950 . S
H791 C769 0.950 . S
C792 C793 1.349 . S
C792 C794 1.327 . S
C792 H817 0.950 . S
C793 C792 1.349 . S
C793 C809 1.349 . S
C794 C792 1.327 . S
C794 C813 1.429 . S
C794 H818 0.950 . S
C795 C812 1.574 . S
C795 C814 1.368 . S
C795 H819 0.949 . S
H796 C800 0.949 . S
C797 C798 1.349 . S
C797 C799 1.327 . S
C797 H820 0.950 . S
C798 C797 1.349 . S
C798 C810 1.349 . S
C799 C797 1.327 . S
C799 C815 1.429 . S
C799 H821 0.950 . S
C800 H796 0.949 . S
C800 C808 1.574 . S
C800 C816 1.368 . S
H801 C809 0.950 . S
H802 C807 0.950 . S
H803 C808 0.949 . S
H804 C810 0.950 . S
H805 C811 0.950 . S
H806 C812 0.949 . S
C807 H802 0.950 . S
C807 C809 1.327 . S
C807 C813 1.429 . S
C808 C800 1.574 . S
C808 H803 0.949 . S
C808 C814 1.368 . S
C809 C793 1.349 . S
C809 H801 0.950 . S
C809 C807 1.327 . S
C810 C798 1.349 . S
C810 H804 0.950 . S
C810 C811 1.327 . S
C811 H805 0.950 . S
C811 C810 1.327 . S
C811 C815 1.429 . S
C812 C795 1.574 . S
C812 H806 0.949 . S
C812 C816 1.368 . S
C813 C794 1.429 . S
C813 C807 1.429 . S
C813 C814 1.523 . S
C814 C795 1.368 . S
C814 C808 1.368 . S
C814 C813 1.523 . S
C815 C799 1.429 . S
C815 C811 1.429 . S
C815 C816 1.523 . S
C816 C800 1.368 . S
C816 C812 1.368 . S
C816 C815 1.523 . S
H817 C792 0.950 . S
H818 C794 0.950 . S
H819 C795 0.949 . S
H820 C797 0.950 . S
H821 C799 0.950 . S
C822 C823 1.349 . S
C822 C824 1.327 . S
C822 H847 0.950 . S
C823 C822 1.349 . S
C823 C839 1.349 . S
C824 C822 1.327 . S
C824 C843 1.429 . S
C824 H848 0.950 . S
C825 C842 1.574 . S
C825 C844 1.368 . S
C825 H849 0.949 . S
H826 C830 0.949 . S
C827 C828 1.349 . S
C827 C829 1.327 . S
C827 H850 0.950 . S
C828 C827 1.349 . S
C828 C840 1.349 . S
C829 C827 1.327 . S
C829 C845 1.429 . S
C829 H851 0.950 . S
C830 H826 0.949 . S
C830 C838 1.574 . S
C830 C846 1.368 . S
H831 C839 0.950 . S
H832 C837 0.950 . S
H833 C838 0.949 . S
H834 C840 0.950 . S
H835 C841 0.950 . S
H836 C842 0.949 . S
C837 H832 0.950 . S
C837 C839 1.327 . S
C837 C843 1.429 . S
C838 C830 1.574 . S
C838 H833 0.949 . S
C838 C844 1.368 . S
C839 C823 1.349 . S
C839 H831 0.950 . S
C839 C837 1.327 . S
C840 C828 1.349 . S
C840 H834 0.950 . S
C840 C841 1.327 . S
C841 H835 0.950 . S
C841 C840 1.327 . S
C841 C845 1.429 . S
C842 C825 1.574 . S
C842 H836 0.949 . S
C842 C846 1.368 . S
C843 C824 1.429 . S
C843 C837 1.429 . S
C843 C844 1.523 . S
C844 C825 1.368 . S
C844 C838 1.368 . S
C844 C843 1.523 . S
C845 C829 1.429 . S
C845 C841 1.429 . S
C845 C846 1.523 . S
C846 C830 1.368 . S
C846 C842 1.368 . S
C846 C845 1.523 . S
H847 C822 0.950 . S
H848 C824 0.950 . S
H849 C825 0.949 . S
H850 C827 0.950 . S
H851 C829 0.950 . S
C852 C853 1.349 . S
C852 C854 1.327 . S
C852 H877 0.950 . S
C853 C852 1.349 . S
C853 C869 1.349 . S
C854 C852 1.327 . S
C854 C873 1.429 . S
C854 H878 0.950 . S
C855 C872 1.574 . S
C855 C874 1.368 . S
C855 H879 0.949 . S
H856 C860 0.949 . S
C857 C858 1.349 . S
C857 C859 1.327 . S
C857 H880 0.950 . S
C858 C857 1.349 . S
C858 C870 1.349 . S
C859 C857 1.327 . S
C859 C875 1.429 . S
C859 H881 0.950 . S
C860 H856 0.949 . S
C860 C868 1.574 . S
C860 C876 1.368 . S
H861 C869 0.950 . S
H862 C867 0.950 . S
H863 C868 0.949 . S
H864 C870 0.950 . S
H865 C871 0.950 . S
H866 C872 0.949 . S
C867 H862 0.950 . S
C867 C869 1.327 . S
C867 C873 1.429 . S
C868 C860 1.574 . S
C868 H863 0.949 . S
C868 C874 1.368 . S
C869 C853 1.349 . S
C869 H861 0.950 . S
C869 C867 1.327 . S
C870 C858 1.349 . S
C870 H864 0.950 . S
C870 C871 1.327 . S
C871 H865 0.950 . S
C871 C870 1.327 . S
C871 C875 1.429 . S
C872 C855 1.574 . S
C872 H866 0.949 . S
C872 C876 1.368 . S
C873 C854 1.429 . S
C873 C867 1.429 . S
C873 C874 1.523 . S
C874 C855 1.368 . S
C874 C868 1.368 . S
C874 C873 1.523 . S
C875 C859 1.429 . S
C875 C871 1.429 . S
C875 C876 1.523 . S
C876 C860 1.368 . S
C876 C872 1.368 . S
C876 C875 1.523 . S
H877 C852 0.950 . S
H878 C854 0.950 . S
H879 C855 0.949 . S
H880 C857 0.950 . S
H881 C859 0.950 . S
C882 C883 1.349 . S
C882 C884 1.327 . S
C882 H907 0.950 . S
C883 C882 1.349 . S
C883 C899 1.349 . S
C884 C882 1.327 . S
C884 C903 1.429 . S
C884 H908 0.950 . S
C885 C902 1.574 . S
C885 C904 1.368 . S
C885 H909 0.949 . S
H886 C890 0.949 . S
C887 C888 1.349 . S
C887 C889 1.327 . S
C887 H910 0.950 . S
C888 C887 1.349 . S
C888 C900 1.349 . S
C889 C887 1.327 . S
C889 C905 1.429 . S
C889 H911 0.950 . S
C890 H886 0.949 . S
C890 C898 1.574 . S
C890 C906 1.368 . S
H891 C899 0.950 . S
H892 C897 0.950 . S
H893 C898 0.949 . S
H894 C900 0.950 . S
H895 C901 0.950 . S
H896 C902 0.949 . S
C897 H892 0.950 . S
C897 C899 1.327 . S
C897 C903 1.429 . S
C898 C890 1.574 . S
C898 H893 0.949 . S
C898 C904 1.368 . S
C899 C883 1.349 . S
C899 H891 0.950 . S
C899 C897 1.327 . S
C900 C888 1.349 . S
C900 H894 0.950 . S
C900 C901 1.327 . S
C901 H895 0.950 . S
C901 C900 1.327 . S
C901 C905 1.429 . S
C902 C885 1.574 . S
C902 H896 0.949 . S
C902 C906 1.368 . S
C903 C884 1.429 . S
C903 C897 1.429 . S
C903 C904 1.523 . S
C904 C885 1.368 . S
C904 C898 1.368 . S
C904 C903 1.523 . S
C905 C889 1.429 . S
C905 C901 1.429 . S
C905 C906 1.523 . S
C906 C890 1.368 . S
C906 C902 1.368 . S
C906 C905 1.523 . S
H907 C882 0.950 . S
H908 C884 0.950 . S
H909 C885 0.949 . S
H910 C887 0.950 . S
H911 C889 0.950 . S
C912 C913 1.349 . S
C912 C914 1.327 . S
C912 H937 0.950 . S
C913 C912 1.349 . S
C913 C929 1.349 . S
C914 C912 1.327 . S
C914 C933 1.429 . S
C914 H938 0.950 . S
C915 C932 1.574 . S
C915 C934 1.368 . S
C915 H939 0.949 . S
H916 C920 0.949 . S
C917 C918 1.349 . S
C917 C919 1.327 . S
C917 H940 0.950 . S
C918 C917 1.349 . S
C918 C930 1.349 . S
C919 C917 1.327 . S
C919 C935 1.429 . S
C919 H941 0.950 . S
C920 H916 0.949 . S
C920 C928 1.574 . S
C920 C936 1.368 . S
H921 C929 0.950 . S
H922 C927 0.950 . S
H923 C928 0.949 . S
H924 C930 0.950 . S
H925 C931 0.950 . S
H926 C932 0.949 . S
C927 H922 0.950 . S
C927 C929 1.327 . S
C927 C933 1.429 . S
C928 C920 1.574 . S
C928 H923 0.949 . S
C928 C934 1.368 . S
C929 C913 1.349 . S
C929 H921 0.950 . S
C929 C927 1.327 . S
C930 C918 1.349 . S
C930 H924 0.950 . S
C930 C931 1.327 . S
C931 H925 0.950 . S
C931 C930 1.327 . S
C931 C935 1.429 . S
C932 C915 1.574 . S
C932 H926 0.949 . S
C932 C936 1.368 . S
C933 C914 1.429 . S
C933 C927 1.429 . S
C933 C934 1.523 . S
C934 C915 1.368 . S
C934 C928 1.368 . S
C934 C933 1.523 . S
C935 C919 1.429 . S
C935 C931 1.429 . S
C935 C936 1.523 . S
C936 C920 1.368 . S
C936 C932 1.368 . S
C936 C935 1.523 . S
H937 C912 0.950 . S
H938 C914 0.950 . S
H939 C915 0.949 . S
H940 C917 0.950 . S
H941 C919 0.950 . S
C942 C943 1.349 . S
C942 C944 1.327 . S
C942 H967 0.950 . S
C943 C942 1.349 . S
C943 C959 1.349 . S
C944 C942 1.327 . S
C944 C963 1.429 . S
C944 H968 0.950 . S
C945 C962 1.574 . S
C945 C964 1.368 . S
C945 H969 0.949 . S
H946 C950 0.949 . S
C947 C948 1.349 . S
C947 C949 1.327 . S
C947 H970 0.950 . S
C948 C947 1.349 . S
C948 C960 1.349 . S
C949 C947 1.327 . S
C949 C965 1.429 . S
C949 H971 0.950 . S
C950 H946 0.949 . S
C950 C958 1.574 . S
C950 C966 1.368 . S
H951 C959 0.950 . S
H952 C957 0.950 . S
H953 C958 0.949 . S
H954 C960 0.950 . S
H955 C961 0.950 . S
H956 C962 0.949 . S
C957 H952 0.950 . S
C957 C959 1.327 . S
C957 C963 1.429 . S
C958 C950 1.574 . S
C958 H953 0.949 . S
C958 C964 1.368 . S
C959 C943 1.349 . S
C959 H951 0.950 . S
C959 C957 1.327 . S
C960 C948 1.349 . S
C960 H954 0.950 . S
C960 C961 1.327 . S
C961 H955 0.950 . S
C961 C960 1.327 . S
C961 C965 1.429 . S
C962 C945 1.574 . S
C962 H956 0.949 . S
C962 C966 1.368 . S
C963 C944 1.429 . S
C963 C957 1.429 . S
C963 C964 1.523 . S
C964 C945 1.368 . S
C964 C958 1.368 . S
C964 C963 1.523 . S
C965 C949 1.429 . S
C965 C961 1.429 . S
C965 C966 1.523 . S
C966 C950 1.368 . S
C966 C962 1.368 . S
C966 C965 1.523 . S
H967 C942 0.950 . S
H968 C944 0.950 . S
H969 C945 0.949 . S
H970 C947 0.950 . S
H971 C949 0.950 . S
C972 C973 1.349 . S
C972 C974 1.327 . S
C972 H997 0.950 . S
C973 C972 1.349 . S
C973 C989 1.349 . S
C974 C972 1.327 . S
C974 C993 1.429 . S
C974 H998 0.950 . S
C975 C992 1.574 . S
C975 C994 1.368 . S
C975 H999 0.949 . S
H976 C980 0.949 . S
C977 C978 1.349 . S
C977 C979 1.327 . S
C977 H1000 0.950 . S
C978 C977 1.349 . S
C978 C990 1.349 . S
C979 C977 1.327 . S
C979 C995 1.429 . S
C979 H1001 0.950 . S
C980 H976 0.949 . S
C980 C988 1.574 . S
C980 C996 1.368 . S
H981 C989 0.950 . S
H982 C987 0.950 . S
H983 C988 0.949 . S
H984 C990 0.950 . S
H985 C991 0.950 . S
H986 C992 0.949 . S
C987 H982 0.950 . S
C987 C989 1.327 . S
C987 C993 1.429 . S
C988 C980 1.574 . S
C988 H983 0.949 . S
C988 C994 1.368 . S
C989 C973 1.349 . S
C989 H981 0.950 . S
C989 C987 1.327 . S
C990 C978 1.349 . S
C990 H984 0.950 . S
C990 C991 1.327 . S
C991 H985 0.950 . S
C991 C990 1.327 . S
C991 C995 1.429 . S
C992 C975 1.574 . S
C992 H986 0.949 . S
C992 C996 1.368 . S
C993 C974 1.429 . S
C993 C987 1.429 . S
C993 C994 1.523 . S
C994 C975 1.368 . S
C994 C988 1.368 . S
C994 C993 1.523 . S
C995 C979 1.429 . S
C995 C991 1.429 . S
C995 C996 1.523 . S
C996 C980 1.368 . S
C996 C992 1.368 . S
C996 C995 1.523 . S
H997 C972 0.950 . S
H998 C974 0.950 . S
H999 C975 0.949 . S
H1000 C977 0.950 . S
H1001 C979 0.950 . S
C1002 C1003 1.349 . S
C1002 C1004 1.327 . S
C1002 H1027 0.950 . S
C1003 C1002 1.349 . S
C1003 C1019 1.349 . S
C1004 C1002 1.327 . S
C1004 C1023 1.429 . S
C1004 H1028 0.950 . S
C1005 C1022 1.574 . S
C1005 C1024 1.368 . S
C1005 H1029 0.949 . S
H1006 C1010 0.949 . S
C1007 C1008 1.349 . S
C1007 C1009 1.327 . S
C1007 H1030 0.950 . S
C1008 C1007 1.349 . S
C1008 C1020 1.349 . S
C1009 C1007 1.327 . S
C1009 C1025 1.429 . S
C1009 H1031 0.950 . S
C1010 H1006 0.949 . S
C1010 C1018 1.574 . S
C1010 C1026 1.368 . S
H1011 C1019 0.950 . S
H1012 C1017 0.950 . S
H1013 C1018 0.949 . S
H1014 C1020 0.950 . S
H1015 C1021 0.950 . S
H1016 C1022 0.949 . S
C1017 H1012 0.950 . S
C1017 C1019 1.327 . S
C1017 C1023 1.429 . S
C1018 C1010 1.574 . S
C1018 H1013 0.949 . S
C1018 C1024 1.368 . S
C1019 C1003 1.349 . S
C1019 H1011 0.950 . S
C1019 C1017 1.327 . S
C1020 C1008 1.349 . S
C1020 H1014 0.950 . S
C1020 C1021 1.327 . S
C1021 H1015 0.950 . S
C1021 C1020 1.327 . S
C1021 C1025 1.429 . S
C1022 C1005 1.574 . S
C1022 H1016 0.949 . S
C1022 C1026 1.368 . S
C1023 C1004 1.429 . S
C1023 C1017 1.429 . S
C1023 C1024 1.523 . S
C1024 C1005 1.368 . S
C1024 C1018 1.368 . S
C1024 C1023 1.523 . S
C1025 C1009 1.429 . S
C1025 C1021 1.429 . S
C1025 C1026 1.523 . S
C1026 C1010 1.368 . S
C1026 C1022 1.368 . S
C1026 C1025 1.523 . S
H1027 C1002 0.950 . S
H1028 C1004 0.950 . S
H1029 C1005 0.949 . S
H1030 C1007 0.950 . S
H1031 C1009 0.950 . S
C1032 C1033 1.349 . S
C1032 C1034 1.327 . S
C1032 H1057 0.950 . S
C1033 C1032 1.349 . S
C1033 C1049 1.349 . S
C1034 C1032 1.327 . S
C1034 C1053 1.429 . S
C1034 H1058 0.950 . S
C1035 C1052 1.574 . S
C1035 C1054 1.368 . S
C1035 H1059 0.949 . S
H1036 C1040 0.949 . S
C1037 C1038 1.349 . S
C1037 C1039 1.327 . S
C1037 H1060 0.950 . S
C1038 C1037 1.349 . S
C1038 C1050 1.349 . S
C1039 C1037 1.327 . S
C1039 C1055 1.429 . S
C1039 H1061 0.950 . S
C1040 H1036 0.949 . S
C1040 C1048 1.574 . S
C1040 C1056 1.368 . S
H1041 C1049 0.950 . S
H1042 C1047 0.950 . S
H1043 C1048 0.949 . S
H1044 C1050 0.950 . S
H1045 C1051 0.950 . S
H1046 C1052 0.949 . S
C1047 H1042 0.950 . S
C1047 C1049 1.327 . S
C1047 C1053 1.429 . S
C1048 C1040 1.574 . S
C1048 H1043 0.949 . S
C1048 C1054 1.368 . S
C1049 C1033 1.349 . S
C1049 H1041 0.950 . S
C1049 C1047 1.327 . S
C1050 C1038 1.349 . S
C1050 H1044 0.950 . S
C1050 C1051 1.327 . S
C1051 H1045 0.950 . S
C1051 C1050 1.327 . S
C1051 C1055 1.429 . S
C1052 C1035 1.574 . S
C1052 H1046 0.949 . S
C1052 C1056 1.368 . S
C1053 C1034 1.429 . S
C1053 C1047 1.429 . S
C1053 C1054 1.523 . S
C1054 C1035 1.368 . S
C1054 C1048 1.368 . S
C1054 C1053 1.523 . S
C1055 C1039 1.429 . S
C1055 C1051 1.429 . S
C1055 C1056 1.523 . S
C1056 C1040 1.368 . S
C1056 C1052 1.368 . S
C1056 C1055 1.523 . S
H1057 C1032 0.950 . S
H1058 C1034 0.950 . S
H1059 C1035 0.949 . S
H1060 C1037 0.950 . S
H1061 C1039 0.950 . S
C1062 C1063 1.349 . S
C1062 C1064 1.327 . S
C1062 H1087 0.950 . S
C1063 C1062 1.349 . S
C1063 C1079 1.349 . S
C1064 C1062 1.327 . S
C1064 C1083 1.429 . S
C1064 H1088 0.950 . S
C1065 C1082 1.574 . S
C1065 C1084 1.368 . S
C1065 H1089 0.949 . S
H1066 C1070 0.949 . S
C1067 C1068 1.349 . S
C1067 C1069 1.327 . S
C1067 H1090 0.950 . S
C1068 C1067 1.349 . S
C1068 C1080 1.349 . S
C1069 C1067 1.327 . S
C1069 C1085 1.429 . S
C1069 H1091 0.950 . S
C1070 H1066 0.949 . S
C1070 C1078 1.574 . S
C1070 C1086 1.368 . S
H1071 C1079 0.950 . S
H1072 C1077 0.950 . S
H1073 C1078 0.949 . S
H1074 C1080 0.950 . S
H1075 C1081 0.950 . S
H1076 C1082 0.949 . S
C1077 H1072 0.950 . S
C1077 C1079 1.327 . S
C1077 C1083 1.429 . S
C1078 C1070 1.574 . S
C1078 H1073 0.949 . S
C1078 C1084 1.368 . S
C1079 C1063 1.349 . S
C1079 H1071 0.950 . S
C1079 C1077 1.327 . S
C1080 C1068 1.349 . S
C1080 H1074 0.950 . S
C1080 C1081 1.327 . S
C1081 H1075 0.950 . S
C1081 C1080 1.327 . S
C1081 C1085 1.429 . S
C1082 C1065 1.574 . S
C1082 H1076 0.949 . S
C1082 C1086 1.368 . S
C1083 C1064 1.429 . S
C1083 C1077 1.429 . S
C1083 C1084 1.523 . S
C1084 C1065 1.368 . S
C1084 C1078 1.368 . S
C1084 C1083 1.523 . S
C1085 C1069 1.429 . S
C1085 C1081 1.429 . S
C1085 C1086 1.523 . S
C1086 C1070 1.368 . S
C1086 C1082 1.368 . S
C1086 C1085 1.523 . S
H1087 C1062 0.950 . S
H1088 C1064 0.950 . S
H1089 C1065 0.949 . S
H1090 C1067 0.950 . S
H1091 C1069 0.950 . S
C1092 C1093 1.349 . S
C1092 C1094 1.327 . S
C1092 H1117 0.950 . S
C1093 C1092 1.349 . S
C1093 C1109 1.349 . S
C1094 C1092 1.327 . S
C1094 C1113 1.429 . S
C1094 H1118 0.950 . S
C1095 C1112 1.574 . S
C1095 C1114 1.368 . S
C1095 H1119 0.949 . S
H1096 C1100 0.949 . S
C1097 C1098 1.349 . S
C1097 C1099 1.327 . S
C1097 H1120 0.950 . S
C1098 C1097 1.349 . S
C1098 C1110 1.349 . S
C1099 C1097 1.327 . S
C1099 C1115 1.429 . S
C1099 H1121 0.950 . S
C1100 H1096 0.949 . S
C1100 C1108 1.574 . S
C1100 C1116 1.368 . S
H1101 C1109 0.950 . S
H1102 C1107 0.950 . S
H1103 C1108 0.949 . S
H1104 C1110 0.950 . S
H1105 C1111 0.950 . S
H1106 C1112 0.949 . S
C1107 H1102 0.950 . S
C1107 C1109 1.327 . S
C1107 C1113 1.429 . S
C1108 C1100 1.574 . S
C1108 H1103 0.949 . S
C1108 C1114 1.368 . S
C1109 C1093 1.349 . S
C1109 H1101 0.950 . S
C1109 C1107 1.327 . S
C1110 C1098 1.349 . S
C1110 H1104 0.950 . S
C1110 C1111 1.327 . S
C1111 H1105 0.950 . S
C1111 C1110 1.327 . S
C1111 C1115 1.429 . S
C1112 C1095 1.574 . S
C1112 H1106 0.949 . S
C1112 C1116 1.368 . S
C1113 C1094 1.429 . S
C1113 C1107 1.429 . S
C1113 C1114 1.523 . S
C1114 C1095 1.368 . S
C1114 C1108 1.368 . S
C1114 C1113 1.523 . S
C1115 C1099 1.429 . S
C1115 C1111 1.429 . S
C1115 C1116 1.523 . S
C1116 C1100 1.368 . S
C1116 C1112 1.368 . S
C1116 C1115 1.523 . S
H1117 C1092 0.950 . S
H1118 C1094 0.950 . S
H1119 C1095 0.949 . S
H1120 C1097 0.950 . S
H1121 C1099 0.950 . S
C1122 C1123 1.349 . S
C1122 C1124 1.327 . S
C1122 H1147 0.950 . S
C1123 C1122 1.349 . S
C1123 C1139 1.349 . S
C1124 C1122 1.327 . S
C1124 C1143 1.429 . S
C1124 H1148 0.950 . S
C1125 C1142 1.574 . S
C1125 C1144 1.368 . S
C1125 H1149 0.949 . S
H1126 C1130 0.949 . S
C1127 C1128 1.349 . S
C1127 C1129 1.327 . S
C1127 H1150 0.950 . S
C1128 C1127 1.349 . S
C1128 C1140 1.349 . S
C1129 C1127 1.327 . S
C1129 C1145 1.429 . S
C1129 H1151 0.950 . S
C1130 H1126 0.949 . S
C1130 C1138 1.574 . S
C1130 C1146 1.368 . S
H1131 C1139 0.950 . S
H1132 C1137 0.950 . S
H1133 C1138 0.949 . S
H1134 C1140 0.950 . S
H1135 C1141 0.950 . S
H1136 C1142 0.949 . S
C1137 H1132 0.950 . S
C1137 C1139 1.327 . S
C1137 C1143 1.429 . S
C1138 C1130 1.574 . S
C1138 H1133 0.949 . S
C1138 C1144 1.368 . S
C1139 C1123 1.349 . S
C1139 H1131 0.950 . S
C1139 C1137 1.327 . S
C1140 C1128 1.349 . S
C1140 H1134 0.950 . S
C1140 C1141 1.327 . S
C1141 H1135 0.950 . S
C1141 C1140 1.327 . S
C1141 C1145 1.429 . S
C1142 C1125 1.574 . S
C1142 H1136 0.949 . S
C1142 C1146 1.368 . S
C1143 C1124 1.429 . S
C1143 C1137 1.429 . S
C1143 C1144 1.523 . S
C1144 C1125 1.368 . S
C1144 C1138 1.368 . S
C1144 C1143 1.523 . S
C1145 C1129 1.429 . S
C1145 C1141 1.429 . S
C1145 C1146 1.523 . S
C1146 C1130 1.368 . S
C1146 C1142 1.368 . S
C1146 C1145 1.523 . S
H1147 C1122 0.950 . S
H1148 C1124 0.950 . S
H1149 C1125 0.949 . S
H1150 C1127 0.950 . S
H1151 C1129 0.950 . S
C1152 C1153 1.349 . S
C1152 C1154 1.327 . S
C1152 H1177 0.950 . S
C1153 C1152 1.349 . S
C1153 C1169 1.349 . S
C1154 C1152 1.327 . S
C1154 C1173 1.429 . S
C1154 H1178 0.950 . S
C1155 C1172 1.574 . S
C1155 C1174 1.368 . S
C1155 H1179 0.949 . S
H1156 C1160 0.949 . S
C1157 C1158 1.349 . S
C1157 C1159 1.327 . S
C1157 H1180 0.950 . S
C1158 C1157 1.349 . S
C1158 C1170 1.349 . S
C1159 C1157 1.327 . S
C1159 C1175 1.429 . S
C1159 H1181 0.950 . S
C1160 H1156 0.949 . S
C1160 C1168 1.574 . S
C1160 C1176 1.368 . S
H1161 C1169 0.950 . S
H1162 C1167 0.950 . S
H1163 C1168 0.949 . S
H1164 C1170 0.950 . S
H1165 C1171 0.950 . S
H1166 C1172 0.949 . S
C1167 H1162 0.950 . S
C1167 C1169 1.327 . S
C1167 C1173 1.429 . S
C1168 C1160 1.574 . S
C1168 H1163 0.949 . S
C1168 C1174 1.368 . S
C1169 C1153 1.349 . S
C1169 H1161 0.950 . S
C1169 C1167 1.327 . S
C1170 C1158 1.349 . S
C1170 H1164 0.950 . S
C1170 C1171 1.327 . S
C1171 H1165 0.950 . S
C1171 C1170 1.327 . S
C1171 C1175 1.429 . S
C1172 C1155 1.574 . S
C1172 H1166 0.949 . S
C1172 C1176 1.368 . S
C1173 C1154 1.429 . S
C1173 C1167 1.429 . S
C1173 C1174 1.523 . S
C1174 C1155 1.368 . S
C1174 C1168 1.368 . S
C1174 C1173 1.523 . S
C1175 C1159 1.429 . S
C1175 C1171 1.429 . S
C1175 C1176 1.523 . S
C1176 C1160 1.368 . S
C1176 C1172 1.368 . S
C1176 C1175 1.523 . S
H1177 C1152 0.950 . S
H1178 C1154 0.950 . S
H1179 C1155 0.949 . S
H1180 C1157 0.950 . S
H1181 C1159 0.950 . S
C1182 C1183 1.349 . S
C1182 C1184 1.327 . S
C1182 H1207 0.950 . S
C1183 C1182 1.349 . S
C1183 C1199 1.349 . S
C1184 C1182 1.327 . S
C1184 C1203 1.429 . S
C1184 H1208 0.950 . S
C1185 C1202 1.574 . S
C1185 C1204 1.368 . S
C1185 H1209 0.949 . S
H1186 C1190 0.949 . S
C1187 C1188 1.349 . S
C1187 C1189 1.327 . S
C1187 H1210 0.950 . S
C1188 C1187 1.349 . S
C1188 C1200 1.349 . S
C1189 C1187 1.327 . S
C1189 C1205 1.429 . S
C1189 H1211 0.950 . S
C1190 H1186 0.949 . S
C1190 C1198 1.574 . S
C1190 C1206 1.368 . S
H1191 C1199 0.950 . S
H1192 C1197 0.950 . S
H1193 C1198 0.949 . S
H1194 C1200 0.950 . S
H1195 C1201 0.950 . S
H1196 C1202 0.949 . S
C1197 H1192 0.950 . S
C1197 C1199 1.327 . S
C1197 C1203 1.429 . S
C1198 C1190 1.574 . S
C1198 H1193 0.949 . S
C1198 C1204 1.368 . S
C1199 C1183 1.349 . S
C1199 H1191 0.950 . S
C1199 C1197 1.327 . S
C1200 C1188 1.349 . S
C1200 H1194 0.950 . S
C1200 C1201 1.327 . S
C1201 H1195 0.950 . S
C1201 C1200 1.327 . S
C1201 C1205 1.429 . S
C1202 C1185 1.574 . S
C1202 H1196 0.949 . S
C1202 C1206 1.368 . S
C1203 C1184 1.429 . S
C1203 C1197 1.429 . S
C1203 C1204 1.523 . S
C1204 C1185 1.368 . S
C1204 C1198 1.368 . S
C1204 C1203 1.523 . S
C1205 C1189 1.429 . S
C1205 C1201 1.429 . S
C1205 C1206 1.523 . S
C1206 C1190 1.368 . S
C1206 C1202 1.368 . S
C1206 C1205 1.523 . S
H1207 C1182 0.950 . S
H1208 C1184 0.950 . S
H1209 C1185 0.949 . S
H1210 C1187 0.950 . S
H1211 C1189 0.950 . S
C1212 C1213 1.349 . S
C1212 C1214 1.327 . S
C1212 H1237 0.950 . S
C1213 C1212 1.349 . S
C1213 C1229 1.349 . S
C1214 C1212 1.327 . S
C1214 C1233 1.429 . S
C1214 H1238 0.950 . S
C1215 C1232 1.574 . S
C1215 C1234 1.368 . S
C1215 H1239 0.949 . S
H1216 C1220 0.949 . S
C1217 C1218 1.349 . S
C1217 C1219 1.327 . S
C1217 H1240 0.950 . S
C1218 C1217 1.349 . S
C1218 C1230 1.349 . S
C1219 C1217 1.327 . S
C1219 C1235 1.429 . S
C1219 H1241 0.950 . S
C1220 H1216 0.949 . S
C1220 C1228 1.574 . S
C1220 C1236 1.368 . S
H1221 C1229 0.950 . S
H1222 C1227 0.950 . S
H1223 C1228 0.949 . S
H1224 C1230 0.950 . S
H1225 C1231 0.950 . S
H1226 C1232 0.949 . S
C1227 H1222 0.950 . S
C1227 C1229 1.327 . S
C1227 C1233 1.429 . S
C1228 C1220 1.574 . S
C1228 H1223 0.949 . S
C1228 C1234 1.368 . S
C1229 C1213 1.349 . S
C1229 H1221 0.950 . S
C1229 C1227 1.327 . S
C1230 C1218 1.349 . S
C1230 H1224 0.950 . S
C1230 C1231 1.327 . S
C1231 H1225 0.950 . S
C1231 C1230 1.327 . S
C1231 C1235 1.429 . S
C1232 C1215 1.574 . S
C1232 H1226 0.949 . S
C1232 C1236 1.368 . S
C1233 C1214 1.429 . S
C1233 C1227 1.429 . S
C1233 C1234 1.523 . S
C1234 C1215 1.368 . S
C1234 C1228 1.368 . S
C1234 C1233 1.523 . S
C1235 C1219 1.429 . S
C1235 C1231 1.429 . S
C1235 C1236 1.523 . S
C1236 C1220 1.368 . S
C1236 C1232 1.368 . S
C1236 C1235 1.523 . S
H1237 C1212 0.950 . S
H1238 C1214 0.950 . S
H1239 C1215 0.949 . S
H1240 C1217 0.950 . S
H1241 C1219 0.950 . S
C1242 C1243 1.349 . S
C1242 C1244 1.327 . S
C1242 H1267 0.950 . S
C1243 C1242 1.349 . S
C1243 C1259 1.349 . S
C1244 C1242 1.327 . S
C1244 C1263 1.429 . S
C1244 H1268 0.950 . S
C1245 C1262 1.574 . S
C1245 C1264 1.368 . S
C1245 H1269 0.949 . S
H1246 C1250 0.949 . S
C1247 C1248 1.349 . S
C1247 C1249 1.327 . S
C1247 H1270 0.950 . S
C1248 C1247 1.349 . S
C1248 C1260 1.349 . S
C1249 C1247 1.327 . S
C1249 C1265 1.429 . S
C1249 H1271 0.950 . S
C1250 H1246 0.949 . S
C1250 C1258 1.574 . S
C1250 C1266 1.368 . S
H1251 C1259 0.950 . S
H1252 C1257 0.950 . S
H1253 C1258 0.949 . S
H1254 C1260 0.950 . S
H1255 C1261 0.950 . S
H1256 C1262 0.949 . S
C1257 H1252 0.950 . S
C1257 C1259 1.327 . S
C1257 C1263 1.429 . S
C1258 C1250 1.574 . S
C1258 H1253 0.949 . S
C1258 C1264 1.368 . S
C1259 C1243 1.349 . S
C1259 H1251 0.950 . S
C1259 C1257 1.327 . S
C1260 C1248 1.349 . S
C1260 H1254 0.950 . S
C1260 C1261 1.327 . S
C1261 H1255 0.950 . S
C1261 C1260 1.327 . S
C1261 C1265 1.429 . S
C1262 C1245 1.574 . S
C1262 H1256 0.949 . S
C1262 C1266 1.368 . S
C1263 C1244 1.429 . S
C1263 C1257 1.429 . S
C1263 C1264 1.523 . S
C1264 C1245 1.368 . S
C1264 C1258 1.368 . S
C1264 C1263 1.523 . S
C1265 C1249 1.429 . S
C1265 C1261 1.429 . S
C1265 C1266 1.523 . S
C1266 C1250 1.368 . S
C1266 C1262 1.368 . S
C1266 C1265 1.523 . S
H1267 C1242 0.950 . S
H1268 C1244 0.950 . S
H1269 C1245 0.949 . S
H1270 C1247 0.950 . S
H1271 C1249 0.950 . S
C1272 C1273 1.349 . S
C1272 C1274 1.327 . S
C1272 H1297 0.950 . S
C1273 C1272 1.349 . S
C1273 C1289 1.349 . S
C1274 C1272 1.327 . S
C1274 C1293 1.429 . S
C1274 H1298 0.950 . S
C1275 C1292 1.574 . S
C1275 C1294 1.368 . S
C1275 H1299 0.949 . S
H1276 C1280 0.949 . S
C1277 C1278 1.349 . S
C1277 C1279 1.327 . S
C1277 H1300 0.950 . S
C1278 C1277 1.349 . S
C1278 C1290 1.349 . S
C1279 C1277 1.327 . S
C1279 C1295 1.429 . S
C1279 H1301 0.950 . S
C1280 H1276 0.949 . S
C1280 C1288 1.574 . S
C1280 C1296 1.368 . S
H1281 C1289 0.950 . S
H1282 C1287 0.950 . S
H1283 C1288 0.949 . S
H1284 C1290 0.950 . S
H1285 C1291 0.950 . S
H1286 C1292 0.949 . S
C1287 H1282 0.950 . S
C1287 C1289 1.327 . S
C1287 C1293 1.429 . S
C1288 C1280 1.574 . S
C1288 H1283 0.949 . S
C1288 C1294 1.368 . S
C1289 C1273 1.349 . S
C1289 H1281 0.950 . S
C1289 C1287 1.327 . S
C1290 C1278 1.349 . S
C1290 H1284 0.950 . S
C1290 C1291 1.327 . S
C1291 H1285 0.950 . S
C1291 C1290 1.327 . S
C1291 C1295 1.429 . S
C1292 C1275 1.574 . S
C1292 H1286 0.949 . S
C1292 C1296 1.368 . S
C1293 C1274 1.429 . S
C1293 C1287 1.429 . S
C1293 C1294 1.523 . S
C1294 C1275 1.368 . S
C1294 C1288 1.368 . S
C1294 C1293 1.523 . S
C1295 C1279 1.429 . S
C1295 C1291 1.429 . S
C1295 C1296 1.523 . S
C1296 C1280 1.368 . S
C1296 C1292 1.368 . S
C1296 C1295 1.523 . S
H1297 C1272 0.950 . S
H1298 C1274 0.950 . S
H1299 C1275 0.949 . S
H1300 C1277 0.950 . S
H1301 C1279 0.950 . S
C1302 C1303 1.349 . S
C1302 C1304 1.327 . S
C1302 H1327 0.950 . S
C1303 C1302 1.349 . S
C1303 C1319 1.349 . S
C1304 C1302 1.327 . S
C1304 C1323 1.429 . S
C1304 H1328 0.950 . S
C1305 C1322 1.574 . S
C1305 C1324 1.368 . S
C1305 H1329 0.949 . S
H1306 C1310 0.949 . S
C1307 C1308 1.349 . S
C1307 C1309 1.327 . S
C1307 H1330 0.950 . S
C1308 C1307 1.349 . S
C1308 C1320 1.349 . S
C1309 C1307 1.327 . S
C1309 C1325 1.429 . S
C1309 H1331 0.950 . S
C1310 H1306 0.949 . S
C1310 C1318 1.574 . S
C1310 C1326 1.368 . S
H1311 C1319 0.950 . S
H1312 C1317 0.950 . S
H1313 C1318 0.949 . S
H1314 C1320 0.950 . S
H1315 C1321 0.950 . S
H1316 C1322 0.949 . S
C1317 H1312 0.950 . S
C1317 C1319 1.327 . S
C1317 C1323 1.429 . S
C1318 C1310 1.574 . S
C1318 H1313 0.949 . S
C1318 C1324 1.368 . S
C1319 C1303 1.349 . S
C1319 H1311 0.950 . S
C1319 C1317 1.327 . S
C1320 C1308 1.349 . S
C1320 H1314 0.950 . S
C1320 C1321 1.327 . S
C1321 H1315 0.950 . S
C1321 C1320 1.327 . S
C1321 C1325 1.429 . S
C1322 C1305 1.574 . S
C1322 H1316 0.949 . S
C1322 C1326 1.368 . S
C1323 C1304 1.429 . S
C1323 C1317 1.429 . S
C1323 C1324 1.523 . S
C1324 C1305 1.368 . S
C1324 C1318 1.368 . S
C1324 C1323 1.523 . S
C1325 C1309 1.429 . S
C1325 C1321 1.429 . S
C1325 C1326 1.523 . S
C1326 C1310 1.368 . S
C1326 C1322 1.368 . S
C1326 C1325 1.523 . S
H1327 C1302 0.950 . S
H1328 C1304 0.950 . S
H1329 C1305 0.949 . S
H1330 C1307 0.950 . S
H1331 C1309 0.950 . S
C1332 C1333 1.349 . S
C1332 C1334 1.327 . S
C1332 H1357 0.950 . S
C1333 C1332 1.349 . S
C1333 C1349 1.349 . S
C1334 C1332 1.327 . S
C1334 C1353 1.429 . S
C1334 H1358 0.950 . S
C1335 C1352 1.574 . S
C1335 C1354 1.368 . S
C1335 H1359 0.949 . S
H1336 C1340 0.949 . S
C1337 C1338 1.349 . S
C1337 C1339 1.327 . S
C1337 H1360 0.950 . S
C1338 C1337 1.349 . S
C1338 C1350 1.349 . S
C1339 C1337 1.327 . S
C1339 C1355 1.429 . S
C1339 H1361 0.950 . S
C1340 H1336 0.949 . S
C1340 C1348 1.620 . S
C1340 C1356 1.368 . S
H1341 C1349 0.950 . S
H1342 C1347 0.950 . S
H1343 C1348 0.953 . S
H1344 C1350 0.950 . S
H1345 C1351 0.950 . S
H1346 C1352 0.949 . S
C1347 H1342 0.950 . S
C1347 C1349 1.327 . S
C1347 C1353 1.429 . S
C1348 C1340 1.620 . S
C1348 H1343 0.953 . S
C1348 C1354 1.321 1_545 S
C1349 C1333 1.349 . S
C1349 H1341 0.950 . S
C1349 C1347 1.327 . S
C1350 C1338 1.349 . S
C1350 H1344 0.950 . S
C1350 C1351 1.327 . S
C1351 H1345 0.950 . S
C1351 C1350 1.327 . S
C1351 C1355 1.429 . S
C1352 C1335 1.574 . S
C1352 H1346 0.949 . S
C1352 C1356 1.368 1_565 S
C1353 C1334 1.429 . S
C1353 C1347 1.429 . S
C1353 C1354 1.523 . S
C1354 C1335 1.368 . S
C1354 C1348 1.321 1_565 S
C1354 C1353 1.523 . S
C1355 C1339 1.429 . S
C1355 C1351 1.429 . S
C1355 C1356 1.523 . S
C1356 C1340 1.368 . S
C1356 C1352 1.368 1_545 S
C1356 C1355 1.523 . S
H1357 C1332 0.950 . S
H1358 C1334 0.950 . S
H1359 C1335 0.949 . S
H1360 C1337 0.950 . S
H1361 C1339 0.950 . S
C1362 C1363 1.349 . S
C1362 C1364 1.327 . S
C1362 H1387 0.950 . S
C1363 C1362 1.349 . S
C1363 C1379 1.349 . S
C1364 C1362 1.327 . S
C1364 C1383 1.429 . S
C1364 H1388 0.950 . S
C1365 C1382 1.574 1_455 S
C1365 C1384 1.368 . S
C1365 H1389 0.949 . S
H1366 C1370 0.949 . S
C1367 C1368 1.349 . S
C1367 C1369 1.327 . S
C1367 H1390 0.950 . S
C1368 C1367 1.349 . S
C1368 C1380 1.349 . S
C1369 C1367 1.327 . S
C1369 C1385 1.429 . S
C1369 H1391 0.950 . S
C1370 H1366 0.949 . S
C1370 C1378 1.574 1_655 S
C1370 C1386 1.368 . S
H1371 C1379 0.950 . S
H1372 C1377 0.950 . S
H1373 C1378 0.949 . S
H1374 C1380 0.950 . S
H1375 C1381 0.950 . S
H1376 C1382 0.949 . S
C1377 H1372 0.950 . S
C1377 C1379 1.327 . S
C1377 C1383 1.429 . S
C1378 C1370 1.574 1_455 S
C1378 H1373 0.949 . S
C1378 C1384 1.368 . S
C1379 C1363 1.349 . S
C1379 H1371 0.950 . S
C1379 C1377 1.327 . S
C1380 C1368 1.349 . S
C1380 H1374 0.950 . S
C1380 C1381 1.327 . S
C1381 H1375 0.950 . S
C1381 C1380 1.327 . S
C1381 C1385 1.429 . S
C1382 C1365 1.574 1_655 S
C1382 H1376 0.949 . S
C1382 C1386 1.368 . S
C1383 C1364 1.429 . S
C1383 C1377 1.429 . S
C1383 C1384 1.523 . S
C1384 C1365 1.368 . S
C1384 C1378 1.368 . S
C1384 C1383 1.523 . S
C1385 C1369 1.429 . S
C1385 C1381 1.429 . S
C1385 C1386 1.523 . S
C1386 C1370 1.368 . S
C1386 C1382 1.368 . S
C1386 C1385 1.523 . S
H1387 C1362 0.950 . S
H1388 C1364 0.950 . S
H1389 C1365 0.949 . S
H1390 C1367 0.950 . S
H1391 C1369 0.950 . S
C1392 C1393 1.349 . S
C1392 C1394 1.327 . S
C1392 H1417 0.950 . S
C1393 C1392 1.349 . S
C1393 C1409 1.349 . S
C1394 C1392 1.327 . S
C1394 C1413 1.429 . S
C1394 H1418 0.950 . S
C1395 C1412 1.574 1_565 S
C1395 C1414 1.368 . S
C1395 H1419 0.949 . S
H1396 C1400 0.949 . S
C1397 C1398 1.349 . S
C1397 C1399 1.327 . S
C1397 H1420 0.950 . S
C1398 C1397 1.349 . S
C1398 C1410 1.349 . S
C1399 C1397 1.327 . S
C1399 C1415 1.429 . S
C1399 H1421 0.950 . S
C1400 H1396 0.949 . S
C1400 C1408 1.574 . S
C1400 C1416 1.368 . S
H1401 C1409 0.950 . S
H1402 C1407 0.950 . S
H1403 C1408 0.949 . S
H1404 C1410 0.950 . S
H1405 C1411 0.950 . S
H1406 C1412 0.949 . S
C1407 H1402 0.950 . S
C1407 C1409 1.327 . S
C1407 C1413 1.429 . S
C1408 C1400 1.574 . S
C1408 H1403 0.949 . S
C1408 C1414 1.368 . S
C1409 C1393 1.349 . S
C1409 H1401 0.950 . S
C1409 C1407 1.327 . S
C1410 C1398 1.349 . S
C1410 H1404 0.950 . S
C1410 C1411 1.327 . S
C1411 H1405 0.950 . S
C1411 C1410 1.327 . S
C1411 C1415 1.429 . S
C1412 C1395 1.574 1_545 S
C1412 H1406 0.949 . S
C1412 C1416 1.368 1_545 S
C1413 C1394 1.429 . S
C1413 C1407 1.429 . S
C1413 C1414 1.523 . S
C1414 C1395 1.368 . S
C1414 C1408 1.368 . S
C1414 C1413 1.523 . S
C1415 C1399 1.429 . S
C1415 C1411 1.429 . S
C1415 C1416 1.523 1_545 S
C1416 C1400 1.368 . S
C1416 C1412 1.368 1_565 S
C1416 C1415 1.523 1_565 S
H1417 C1392 0.950 . S
H1418 C1394 0.950 . S
H1419 C1395 0.949 . S
H1420 C1397 0.950 . S
H1421 C1399 0.950 . S
C1422 C1423 1.349 . S
C1422 C1424 1.327 . S
C1422 H1447 0.950 . S
C1423 C1422 1.349 . S
C1423 C1439 1.349 . S
C1424 C1422 1.327 . S
C1424 C1443 1.429 . S
C1424 H1448 0.950 . S
C1425 C1442 1.574 1_655 S
C1425 C1444 1.368 . S
C1425 H1449 0.949 . S
H1426 C1430 0.949 . S
C1427 C1428 1.349 . S
C1427 C1429 1.327 . S
C1427 H1450 0.950 . S
C1428 C1427 1.349 . S
C1428 C1440 1.349 . S
C1429 C1427 1.327 . S
C1429 C1445 1.429 . S
C1429 H1451 0.950 . S
C1430 H1426 0.949 . S
C1430 C1438 1.574 . S
C1430 C1446 1.368 . S
H1431 C1439 0.950 . S
H1432 C1437 0.950 . S
H1433 C1438 0.949 . S
H1434 C1440 0.950 . S
H1435 C1441 0.950 . S
H1436 C1442 0.949 . S
C1437 H1432 0.950 . S
C1437 C1439 1.327 . S
C1437 C1443 1.429 . S
C1438 C1430 1.574 . S
C1438 H1433 0.949 . S
C1438 C1444 1.368 1_455 S
C1439 C1423 1.349 . S
C1439 H1431 0.950 . S
C1439 C1437 1.327 . S
C1440 C1428 1.349 . S
C1440 H1434 0.950 . S
C1440 C1441 1.327 . S
C1441 H1435 0.950 . S
C1441 C1440 1.327 . S
C1441 C1445 1.429 . S
C1442 C1425 1.574 1_455 S
C1442 H1436 0.949 . S
C1442 C1446 1.368 . S
C1443 C1424 1.429 . S
C1443 C1437 1.429 . S
C1443 C1444 1.523 . S
C1444 C1425 1.368 . S
C1444 C1438 1.368 1_655 S
C1444 C1443 1.523 . S
C1445 C1429 1.429 . S
C1445 C1441 1.429 . S
C1445 C1446 1.523 . S
C1446 C1430 1.368 . S
C1446 C1442 1.368 . S
C1446 C1445 1.523 . S
H1447 C1422 0.950 . S
H1448 C1424 0.950 . S
H1449 C1425 0.949 . S
H1450 C1427 0.950 . S
H1451 C1429 0.950 . S
C1452 C1453 1.349 . S
C1452 C1454 1.327 . S
C1452 H1477 0.950 . S
C1453 C1452 1.349 . S
C1453 C1469 1.349 . S
C1454 C1452 1.327 . S
C1454 C1473 1.429 . S
C1454 H1478 0.950 . S
C1455 C1472 1.574 . S
C1455 C1474 1.368 . S
C1455 H1479 0.949 . S
H1456 C1460 0.949 . S
C1457 C1458 1.349 . S
C1457 C1459 1.327 . S
C1457 H1480 0.950 . S
C1458 C1457 1.349 . S
C1458 C1470 1.349 . S
C1459 C1457 1.327 . S
C1459 C1475 1.429 . S
C1459 H1481 0.950 . S
C1460 H1456 0.949 . S
C1460 C1468 1.574 . S
C1460 C1476 1.368 . S
H1461 C1469 0.950 . S
H1462 C1467 0.950 . S
H1463 C1468 0.949 . S
H1464 C1470 0.950 . S
H1465 C1471 0.950 . S
H1466 C1472 0.949 . S
C1467 H1462 0.950 . S
C1467 C1469 1.327 . S
C1467 C1473 1.429 . S
C1468 C1460 1.574 . S
C1468 H1463 0.949 . S
C1468 C1474 1.368 . S
C1469 C1453 1.349 . S
C1469 H1461 0.950 . S
C1469 C1467 1.327 . S
C1470 C1458 1.349 . S
C1470 H1464 0.950 . S
C1470 C1471 1.327 . S
C1471 H1465 0.950 . S
C1471 C1470 1.327 . S
C1471 C1475 1.429 . S
C1472 C1455 1.574 . S
C1472 H1466 0.949 . S
C1472 C1476 1.368 . S
C1473 C1454 1.429 . S
C1473 C1467 1.429 . S
C1473 C1474 1.523 . S
C1474 C1455 1.368 . S
C1474 C1468 1.368 . S
C1474 C1473 1.523 . S
C1475 C1459 1.429 . S
C1475 C1471 1.429 . S
C1475 C1476 1.523 . S
C1476 C1460 1.368 . S
C1476 C1472 1.368 . S
C1476 C1475 1.523 . S
H1477 C1452 0.950 . S
H1478 C1454 0.950 . S
H1479 C1455 0.949 . S
H1480 C1457 0.950 . S
H1481 C1459 0.950 . S
C1482 C1483 1.349 . S
C1482 C1484 1.327 . S
C1482 H1507 0.950 . S
C1483 C1482 1.349 . S
C1483 C1499 1.349 . S
C1484 C1482 1.327 . S
C1484 C1503 1.429 . S
C1484 H1508 0.950 . S
C1485 C1502 1.574 . S
C1485 C1504 1.368 . S
C1485 H1509 0.949 . S
H1486 C1490 0.949 . S
C1487 C1488 1.349 . S
C1487 C1489 1.327 . S
C1487 H1510 0.950 . S
C1488 C1487 1.349 . S
C1488 C1500 1.349 . S
C1489 C1487 1.327 . S
C1489 C1505 1.429 . S
C1489 H1511 0.950 . S
C1490 H1486 0.949 . S
C1490 C1498 1.574 . S
C1490 C1506 1.368 . S
H1491 C1499 0.950 . S
H1492 C1497 0.950 . S
H1493 C1498 0.949 . S
H1494 C1500 0.950 . S
H1495 C1501 0.950 . S
H1496 C1502 0.949 . S
C1497 H1492 0.950 . S
C1497 C1499 1.327 . S
C1497 C1503 1.429 . S
C1498 C1490 1.574 . S
C1498 H1493 0.949 . S
C1498 C1504 1.368 . S
C1499 C1483 1.349 . S
C1499 H1491 0.950 . S
C1499 C1497 1.327 . S
C1500 C1488 1.349 . S
C1500 H1494 0.950 . S
C1500 C1501 1.327 . S
C1501 H1495 0.950 . S
C1501 C1500 1.327 . S
C1501 C1505 1.429 . S
C1502 C1485 1.574 . S
C1502 H1496 0.949 . S
C1502 C1506 1.368 . S
C1503 C1484 1.429 . S
C1503 C1497 1.429 . S
C1503 C1504 1.523 . S
C1504 C1485 1.368 . S
C1504 C1498 1.368 . S
C1504 C1503 1.523 . S
C1505 C1489 1.429 . S
C1505 C1501 1.429 . S
C1505 C1506 1.523 . S
C1506 C1490 1.368 . S
C1506 C1502 1.368 . S
C1506 C1505 1.523 . S
H1507 C1482 0.950 . S
H1508 C1484 0.950 . S
H1509 C1485 0.949 . S
H1510 C1487 0.950 . S
H1511 C1489 0.950 . S
C1512 C1513 1.349 . S
C1512 C1514 1.327 . S
C1512 H1537 0.950 . S
C1513 C1512 1.349 . S
C1513 C1529 1.349 . S
C1514 C1512 1.327 . S
C1514 C1533 1.429 . S
C1514 H1538 0.950 . S
C1515 C1532 1.574 . S
C1515 C1534 1.368 . S
C1515 H1539 0.949 . S
H1516 C1520 0.949 . S
C1517 C1518 1.349 . S
C1517 C1519 1.327 . S
C1517 H1540 0.950 . S
C1518 C1517 1.349 . S
C1518 C1530 1.349 . S
C1519 C1517 1.327 . S
C1519 C1535 1.429 . S
C1519 H1541 0.950 . S
C1520 H1516 0.949 . S
C1520 C1528 1.574 . S
C1520 C1536 1.368 . S
H1521 C1529 0.950 . S
H1522 C1527 0.950 . S
H1523 C1528 0.949 . S
H1524 C1530 0.950 . S
H1525 C1531 0.950 . S
H1526 C1532 0.949 . S
C1527 H1522 0.950 . S
C1527 C1529 1.327 . S
C1527 C1533 1.429 . S
C1528 C1520 1.574 . S
C1528 H1523 0.949 . S
C1528 C1534 1.368 . S
C1529 C1513 1.349 . S
C1529 H1521 0.950 . S
C1529 C1527 1.327 . S
C1530 C1518 1.349 . S
C1530 H1524 0.950 . S
C1530 C1531 1.327 . S
C1531 H1525 0.950 . S
C1531 C1530 1.327 . S
C1531 C1535 1.429 . S
C1532 C1515 1.574 . S
C1532 H1526 0.949 . S
C1532 C1536 1.368 . S
C1533 C1514 1.429 . S
C1533 C1527 1.429 . S
C1533 C1534 1.523 . S
C1534 C1515 1.368 . S
C1534 C1528 1.368 . S
C1534 C1533 1.523 . S
C1535 C1519 1.429 . S
C1535 C1531 1.429 . S
C1535 C1536 1.523 . S
C1536 C1520 1.368 . S
C1536 C1532 1.368 . S
C1536 C1535 1.523 . S
H1537 C1512 0.950 . S
H1538 C1514 0.950 . S
H1539 C1515 0.949 . S
H1540 C1517 0.950 . S
H1541 C1519 0.950 . S
C1542 C1543 1.349 . S
C1542 C1544 1.327 . S
C1542 H1567 0.950 . S
C1543 C1542 1.349 . S
C1543 C1559 1.349 . S
C1544 C1542 1.327 . S
C1544 C1563 1.429 . S
C1544 H1568 0.950 . S
C1545 C1562 1.574 . S
C1545 C1564 1.368 . S
C1545 H1569 0.949 . S
H1546 C1550 0.949 . S
C1547 C1548 1.349 . S
C1547 C1549 1.327 . S
C1547 H1570 0.950 . S
C1548 C1547 1.349 . S
C1548 C1560 1.349 . S
C1549 C1547 1.327 . S
C1549 C1565 1.429 . S
C1549 H1571 0.950 . S
C1550 H1546 0.949 . S
C1550 C1558 1.574 1_556 S
C1550 C1566 1.368 . S
H1551 C1559 0.950 . S
H1552 C1557 0.950 . S
H1553 C1558 0.949 . S
H1554 C1560 0.950 . S
H1555 C1561 0.950 . S
H1556 C1562 0.949 . S
C1557 H1552 0.950 . S
C1557 C1559 1.327 . S
C1557 C1563 1.429 . S
C1558 C1550 1.574 1_554 S
C1558 H1553 0.949 . S
C1558 C1564 1.368 . S
C1559 C1543 1.349 . S
C1559 H1551 0.950 . S
C1559 C1557 1.327 . S
C1560 C1548 1.349 . S
C1560 H1554 0.950 . S
C1560 C1561 1.327 . S
C1561 H1555 0.950 . S
C1561 C1560 1.327 . S
C1561 C1565 1.429 . S
C1562 C1545 1.574 . S
C1562 H1556 0.949 . S
C1562 C1566 1.368 1_554 S
C1563 C1544 1.429 . S
C1563 C1557 1.429 . S
C1563 C1564 1.523 . S
C1564 C1545 1.368 . S
C1564 C1558 1.368 . S
C1564 C1563 1.523 . S
C1565 C1549 1.429 . S
C1565 C1561 1.429 . S
C1565 C1566 1.523 . S
C1566 C1550 1.368 . S
C1566 C1562 1.368 1_556 S
C1566 C1565 1.523 . S
H1567 C1542 0.950 . S
H1568 C1544 0.950 . S
H1569 C1545 0.949 . S
H1570 C1547 0.950 . S
H1571 C1549 0.950 . S
C1572 C1573 1.349 . S
C1572 C1574 1.327 . S
C1572 H1597 0.950 . S
C1573 C1572 1.349 . S
C1573 C1589 1.349 . S
C1574 C1572 1.327 . S
C1574 C1593 1.429 . S
C1574 H1598 0.950 . S
C1575 C1592 1.574 . S
C1575 C1594 1.368 . S
C1575 H1599 0.949 . S
H1576 C1580 0.949 . S
C1577 C1578 1.349 . S
C1577 C1579 1.327 . S
C1577 H1600 0.950 . S
C1578 C1577 1.349 . S
C1578 C1590 1.349 . S
C1579 C1577 1.327 . S
C1579 C1595 1.429 . S
C1579 H1601 0.950 . S
C1580 H1576 0.949 . S
C1580 C1588 1.574 . S
C1580 C1596 1.368 . S
H1581 C1589 0.950 . S
H1582 C1587 0.950 . S
H1583 C1588 0.949 . S
H1584 C1590 0.950 . S
H1585 C1591 0.950 . S
H1586 C1592 0.949 . S
C1587 H1582 0.950 . S
C1587 C1589 1.327 . S
C1587 C1593 1.429 . S
C1588 C1580 1.574 . S
C1588 H1583 0.949 . S
C1588 C1594 1.368 . S
C1589 C1573 1.349 . S
C1589 H1581 0.950 . S
C1589 C1587 1.327 . S
C1590 C1578 1.349 . S
C1590 H1584 0.950 . S
C1590 C1591 1.327 . S
C1591 H1585 0.950 . S
C1591 C1590 1.327 . S
C1591 C1595 1.429 . S
C1592 C1575 1.574 . S
C1592 H1586 0.949 . S
C1592 C1596 1.368 . S
C1593 C1574 1.429 . S
C1593 C1587 1.429 . S
C1593 C1594 1.523 . S
C1594 C1575 1.368 . S
C1594 C1588 1.368 . S
C1594 C1593 1.523 . S
C1595 C1579 1.429 . S
C1595 C1591 1.429 . S
C1595 C1596 1.523 . S
C1596 C1580 1.368 . S
C1596 C1592 1.368 . S
C1596 C1595 1.523 . S
H1597 C1572 0.950 . S
H1598 C1574 0.950 . S
H1599 C1575 0.949 . S
H1600 C1577 0.950 . S
H1601 C1579 0.950 . S
C1602 C1603 1.349 . S
C1602 C1604 1.327 . S
C1602 H1627 0.950 . S
C1603 C1602 1.349 . S
C1603 C1619 1.349 . S
C1604 C1602 1.327 . S
C1604 C1623 1.429 . S
C1604 H1628 0.950 . S
C1605 C1622 1.574 1_556 S
C1605 C1624 1.368 . S
C1605 H1629 0.949 . S
H1606 C1610 0.949 . S
C1607 C1608 1.349 . S
C1607 C1609 1.327 . S
C1607 H1630 0.950 . S
C1608 C1607 1.349 . S
C1608 C1620 1.349 . S
C1609 C1607 1.327 . S
C1609 C1625 1.429 . S
C1609 H1631 0.950 . S
C1610 H1606 0.949 . S
C1610 C1618 1.574 . S
C1610 C1626 1.368 . S
H1611 C1619 0.950 . S
H1612 C1617 0.950 . S
H1613 C1618 0.949 . S
H1614 C1620 0.950 . S
H1615 C1621 0.950 . S
H1616 C1622 0.949 . S
C1617 H1612 0.950 . S
C1617 C1619 1.327 . S
C1617 C1623 1.429 . S
C1618 C1610 1.574 . S
C1618 H1613 0.949 . S
C1618 C1624 1.368 1_554 S
C1619 C1603 1.349 . S
C1619 H1611 0.950 . S
C1619 C1617 1.327 . S
C1620 C1608 1.349 . S
C1620 H1614 0.950 . S
C1620 C1621 1.327 . S
C1621 H1615 0.950 . S
C1621 C1620 1.327 . S
C1621 C1625 1.429 . S
C1622 C1605 1.574 1_554 S
C1622 H1616 0.949 . S
C1622 C1626 1.368 . S
C1623 C1604 1.429 . S
C1623 C1617 1.429 . S
C1623 C1624 1.523 . S
C1624 C1605 1.368 . S
C1624 C1618 1.368 1_556 S
C1624 C1623 1.523 . S
C1625 C1609 1.429 . S
C1625 C1621 1.429 . S
C1625 C1626 1.523 . S
C1626 C1610 1.368 . S
C1626 C1622 1.368 . S
C1626 C1625 1.523 . S
H1627 C1602 0.950 . S
H1628 C1604 0.950 . S
H1629 C1605 0.949 . S
H1630 C1607 0.950 . S
H1631 C1609 0.950 . S
C1632 C1633 1.349 . S
C1632 C1634 1.327 . S
C1632 H1657 0.950 . S
C1633 C1632 1.349 . S
C1633 C1649 1.349 . S
C1634 C1632 1.327 . S
C1634 C1653 1.429 . S
C1634 H1658 0.950 . S
C1635 C1652 1.574 . S
C1635 C1654 1.368 . S
C1635 H1659 0.949 . S
H1636 C1640 0.949 . S
C1637 C1638 1.349 . S
C1637 C1639 1.327 . S
C1637 H1660 0.950 . S
C1638 C1637 1.349 . S
C1638 C1650 1.349 . S
C1639 C1637 1.327 . S
C1639 C1655 1.429 . S
C1639 H1661 0.950 . S
C1640 H1636 0.949 . S
C1640 C1648 1.574 . S
C1640 C1656 1.368 . S
H1641 C1649 0.950 . S
H1642 C1647 0.950 . S
H1643 C1648 0.949 . S
H1644 C1650 0.950 . S
H1645 C1651 0.950 . S
H1646 C1652 0.949 . S
C1647 H1642 0.950 . S
C1647 C1649 1.327 . S
C1647 C1653 1.429 . S
C1648 C1640 1.574 . S
C1648 H1643 0.949 . S
C1648 C1654 1.368 . S
C1649 C1633 1.349 . S
C1649 H1641 0.950 . S
C1649 C1647 1.327 . S
C1650 C1638 1.349 . S
C1650 H1644 0.950 . S
C1650 C1651 1.327 . S
C1651 H1645 0.950 . S
C1651 C1650 1.327 . S
C1651 C1655 1.429 . S
C1652 C1635 1.574 . S
C1652 H1646 0.949 . S
C1652 C1656 1.368 . S
C1653 C1634 1.429 . S
C1653 C1647 1.429 . S
C1653 C1654 1.523 . S
C1654 C1635 1.368 . S
C1654 C1648 1.368 . S
C1654 C1653 1.523 . S
C1655 C1639 1.429 . S
C1655 C1651 1.429 . S
C1655 C1656 1.523 . S
C1656 C1640 1.368 . S
C1656 C1652 1.368 . S
C1656 C1655 1.523 . S
H1657 C1632 0.950 . S
H1658 C1634 0.950 . S
H1659 C1635 0.949 . S
H1660 C1637 0.950 . S
H1661 C1639 0.950 . S
C1662 C1663 1.349 . S
C1662 C1664 1.327 . S
C1662 H1687 0.950 . S
C1663 C1662 1.349 . S
C1663 C1679 1.349 . S
C1664 C1662 1.327 . S
C1664 C1683 1.429 . S
C1664 H1688 0.950 . S
C1665 C1682 1.574 . S
C1665 C1684 1.368 . S
C1665 H1689 0.949 . S
H1666 C1670 0.949 . S
C1667 C1668 1.349 . S
C1667 C1669 1.327 . S
C1667 H1690 0.950 . S
C1668 C1667 1.349 . S
C1668 C1680 1.349 . S
C1669 C1667 1.327 . S
C1669 C1685 1.429 . S
C1669 H1691 0.950 . S
C1670 H1666 0.949 . S
C1670 C1678 1.574 . S
C1670 C1686 1.368 . S
H1671 C1679 0.950 . S
H1672 C1677 0.950 . S
H1673 C1678 0.949 . S
H1674 C1680 0.950 . S
H1675 C1681 0.950 . S
H1676 C1682 0.949 . S
C1677 H1672 0.950 . S
C1677 C1679 1.327 . S
C1677 C1683 1.429 . S
C1678 C1670 1.574 . S
C1678 H1673 0.949 . S
C1678 C1684 1.368 . S
C1679 C1663 1.349 . S
C1679 H1671 0.950 . S
C1679 C1677 1.327 . S
C1680 C1668 1.349 . S
C1680 H1674 0.950 . S
C1680 C1681 1.327 . S
C1681 H1675 0.950 . S
C1681 C1680 1.327 . S
C1681 C1685 1.429 . S
C1682 C1665 1.574 . S
C1682 H1676 0.949 . S
C1682 C1686 1.368 . S
C1683 C1664 1.429 . S
C1683 C1677 1.429 . S
C1683 C1684 1.523 . S
C1684 C1665 1.368 . S
C1684 C1678 1.368 . S
C1684 C1683 1.523 . S
C1685 C1669 1.429 . S
C1685 C1681 1.429 . S
C1685 C1686 1.523 . S
C1686 C1670 1.368 . S
C1686 C1682 1.368 . S
C1686 C1685 1.523 . S
H1687 C1662 0.950 . S
H1688 C1664 0.950 . S
H1689 C1665 0.949 . S
H1690 C1667 0.950 . S
H1691 C1669 0.950 . S
C1692 C1693 1.349 . S
C1692 C1694 1.327 . S
C1692 H1717 0.950 . S
C1693 C1692 1.349 . S
C1693 C1709 1.349 . S
C1694 C1692 1.327 . S
C1694 C1713 1.429 . S
C1694 H1718 0.950 . S
C1695 C1712 1.574 1_545 S
C1695 C1714 1.368 . S
C1695 H1719 0.949 . S
H1696 C1700 0.949 . S
C1697 C1698 1.349 . S
C1697 C1699 1.327 . S
C1697 H1720 0.950 . S
C1698 C1697 1.349 . S
C1698 C1710 1.349 . S
C1699 C1697 1.327 . S
C1699 C1715 1.429 . S
C1699 H1721 0.950 . S
C1700 H1696 0.949 . S
C1700 C1708 1.574 1_565 S
C1700 C1716 1.368 . S
H1701 C1709 0.950 . S
H1702 C1707 0.950 . S
H1703 C1708 0.949 . S
H1704 C1710 0.950 . S
H1705 C1711 0.950 . S
H1706 C1712 0.949 . S
C1707 H1702 0.950 . S
C1707 C1709 1.327 . S
C1707 C1713 1.429 . S
C1708 C1700 1.574 1_545 S
C1708 H1703 0.949 . S
C1708 C1714 1.368 . S
C1709 C1693 1.349 . S
C1709 H1701 0.950 . S
C1709 C1707 1.327 . S
C1710 C1698 1.349 . S
C1710 H1704 0.950 . S
C1710 C1711 1.327 . S
C1711 H1705 0.950 . S
C1711 C1710 1.327 . S
C1711 C1715 1.429 . S
C1712 C1695 1.574 1_565 S
C1712 H1706 0.949 . S
C1712 C1716 1.368 . S
C1713 C1694 1.429 . S
C1713 C1707 1.429 . S
C1713 C1714 1.523 . S
C1714 C1695 1.368 . S
C1714 C1708 1.368 . S
C1714 C1713 1.523 . S
C1715 C1699 1.429 . S
C1715 C1711 1.429 . S
C1715 C1716 1.523 . S
C1716 C1700 1.368 . S
C1716 C1712 1.368 . S
C1716 C1715 1.523 . S
H1717 C1692 0.950 . S
H1718 C1694 0.950 . S
H1719 C1695 0.949 . S
H1720 C1697 0.950 . S
H1721 C1699 0.950 . S
C1722 C1723 1.349 . S
C1722 C1724 1.327 . S
C1722 H1747 0.950 . S
C1723 C1722 1.349 . S
C1723 C1739 1.349 . S
C1724 C1722 1.327 . S
C1724 C1743 1.429 . S
C1724 H1748 0.950 . S
C1725 C1742 1.574 1_455 S
C1725 C1744 1.368 . S
C1725 H1749 0.949 . S
H1726 C1730 0.949 . S
C1727 C1728 1.349 . S
C1727 C1729 1.327 . S
C1727 H1750 0.950 . S
C1728 C1727 1.349 . S
C1728 C1740 1.349 . S
C1729 C1727 1.327 . S
C1729 C1745 1.429 . S
C1729 H1751 0.950 . S
C1730 H1726 0.949 . S
C1730 C1738 1.574 1_655 S
C1730 C1746 1.368 . S
H1731 C1739 0.950 . S
H1732 C1737 0.950 . S
H1733 C1738 0.949 . S
H1734 C1740 0.950 . S
H1735 C1741 0.950 . S
H1736 C1742 0.949 . S
C1737 H1732 0.950 . S
C1737 C1739 1.327 . S
C1737 C1743 1.429 . S
C1738 C1730 1.574 1_455 S
C1738 H1733 0.949 . S
C1738 C1744 1.368 . S
C1739 C1723 1.349 . S
C1739 H1731 0.950 . S
C1739 C1737 1.327 . S
C1740 C1728 1.349 . S
C1740 H1734 0.950 . S
C1740 C1741 1.327 . S
C1741 H1735 0.950 . S
C1741 C1740 1.327 . S
C1741 C1745 1.429 . S
C1742 C1725 1.574 1_655 S
C1742 H1736 0.949 . S
C1742 C1746 1.368 . S
C1743 C1724 1.429 . S
C1743 C1737 1.429 . S
C1743 C1744 1.523 . S
C1744 C1725 1.368 . S
C1744 C1738 1.368 . S
C1744 C1743 1.523 . S
C1745 C1729 1.429 . S
C1745 C1741 1.429 . S
C1745 C1746 1.523 . S
C1746 C1730 1.368 . S
C1746 C1742 1.368 . S
C1746 C1745 1.523 . S
H1747 C1722 0.950 . S
H1748 C1724 0.950 . S
H1749 C1725 0.949 . S
H1750 C1727 0.950 . S
H1751 C1729 0.950 . S
C1752 C1753 1.349 . S
C1752 C1754 1.327 . S
C1752 H1777 0.950 . S
C1753 C1752 1.349 . S
C1753 C1769 1.349 . S
C1754 C1752 1.327 . S
C1754 C1773 1.429 . S
C1754 H1778 0.950 . S
C1755 C1772 1.574 1_545 S
C1755 C1774 1.368 . S
C1755 H1779 0.949 . S
H1756 C1760 0.949 . S
C1757 C1758 1.349 . S
C1757 C1759 1.327 . S
C1757 H1780 0.950 . S
C1758 C1757 1.349 . S
C1758 C1770 1.349 . S
C1759 C1757 1.327 . S
C1759 C1775 1.429 . S
C1759 H1781 0.950 . S
C1760 H1756 0.949 . S
C1760 C1768 1.574 . S
C1760 C1776 1.324 1_545 S
H1761 C1769 0.950 . S
H1762 C1767 0.950 . S
H1763 C1768 0.949 . S
H1764 C1770 0.950 . S
H1765 C1771 0.950 . S
H1766 C1772 0.949 . S
C1767 H1762 0.950 . S
C1767 C1769 1.327 . S
C1767 C1773 1.429 . S
C1768 C1760 1.574 . S
C1768 H1763 0.949 . S
C1768 C1774 1.368 . S
C1769 C1753 1.349 . S
C1769 H1761 0.950 . S
C1769 C1767 1.327 . S
C1770 C1758 1.349 . S
C1770 H1764 0.950 . S
C1770 C1771 1.327 . S
C1771 H1765 0.950 . S
C1771 C1770 1.327 . S
C1771 C1775 1.429 . S
C1772 C1755 1.574 1_565 S
C1772 H1766 0.949 . S
C1772 C1776 1.372 . S
C1773 C1754 1.429 . S
C1773 C1767 1.429 . S
C1773 C1774 1.523 . S
C1774 C1755 1.368 . S
C1774 C1768 1.368 . S
C1774 C1773 1.523 . S
C1775 C1759 1.429 . S
C1775 C1771 1.429 . S
C1775 C1776 1.578 . S
C1776 C1760 1.324 1_565 S
C1776 C1772 1.372 . S
C1776 C1775 1.578 . S
H1777 C1752 0.950 . S
H1778 C1754 0.950 . S
H1779 C1755 0.949 . S
H1780 C1757 0.950 . S
H1781 C1759 0.950 . S
C1782 C1783 1.349 . S
C1782 C1784 1.327 . S
C1782 H1807 0.950 . S
C1783 C1782 1.349 . S
C1783 C1799 1.349 . S
C1784 C1782 1.327 . S
C1784 C1803 1.429 . S
C1784 H1808 0.950 . S
C1785 C1802 1.574 . S
C1785 C1804 1.368 1_655 S
C1785 H1809 0.949 . S
H1786 C1790 0.951 . S
C1787 C1788 1.349 . S
C1787 C1789 1.327 . S
C1787 H1810 0.950 . S
C1788 C1787 1.349 . S
C1788 C1800 1.349 . S
C1789 C1787 1.327 . S
C1789 C1805 1.429 . S
C1789 H1811 0.950 . S
C1790 H1786 0.951 . S
C1790 C1798 1.574 1_655 S
C1790 C1806 1.368 . S
H1791 C1799 0.950 . S
H1792 C1797 0.950 . S
H1793 C1798 0.949 . S
H1794 C1800 0.950 . S
H1795 C1801 0.950 . S
H1796 C1802 0.949 . S
C1797 H1792 0.950 . S
C1797 C1799 1.327 . S
C1797 C1803 1.429 . S
C1798 C1790 1.574 1_455 S
C1798 H1793 0.949 . S
C1798 C1804 1.368 . S
C1799 C1783 1.349 . S
C1799 H1791 0.950 . S
C1799 C1797 1.327 . S
C1800 C1788 1.349 . S
C1800 H1794 0.950 . S
C1800 C1801 1.327 . S
C1801 H1795 0.950 . S
C1801 C1800 1.327 . S
C1801 C1805 1.429 . S
C1802 C1785 1.574 . S
C1802 H1796 0.949 . S
C1802 C1806 1.368 . S
C1803 C1784 1.429 . S
C1803 C1797 1.429 . S
C1803 C1804 1.523 . S
C1804 C1785 1.368 1_455 S
C1804 C1798 1.368 . S
C1804 C1803 1.523 . S
C1805 C1789 1.429 . S
C1805 C1801 1.429 . S
C1805 C1806 1.523 . S
C1806 C1790 1.368 . S
C1806 C1802 1.368 . S
C1806 C1805 1.523 . S
H1807 C1782 0.950 . S
H1808 C1784 0.950 . S
H1809 C1785 0.949 . S
H1810 C1787 0.950 . S
H1811 C1789 0.950 . S
C1812 C1813 1.349 . S
C1812 C1814 1.327 . S
C1812 H1837 0.950 . S
C1813 C1812 1.349 . S
C1813 C1829 1.349 . S
C1814 C1812 1.327 . S
C1814 C1833 1.429 . S
C1814 H1838 0.950 . S
C1815 C1832 1.574 . S
C1815 C1834 1.368 . S
C1815 H1839 0.949 . S
H1816 C1820 0.949 . S
C1817 C1818 1.349 . S
C1817 C1819 1.327 . S
C1817 H1840 0.950 . S
C1818 C1817 1.349 . S
C1818 C1830 1.349 . S
C1819 C1817 1.327 . S
C1819 C1835 1.429 . S
C1819 H1841 0.950 . S
C1820 H1816 0.949 . S
C1820 C1828 1.574 . S
C1820 C1836 1.368 . S
H1821 C1829 0.950 . S
H1822 C1827 0.950 . S
H1823 C1828 0.949 . S
H1824 C1830 0.950 . S
H1825 C1831 0.950 . S
H1826 C1832 0.949 . S
C1827 H1822 0.950 . S
C1827 C1829 1.327 . S
C1827 C1833 1.429 . S
C1828 C1820 1.574 . S
C1828 H1823 0.949 . S
C1828 C1834 1.368 . S
C1829 C1813 1.349 . S
C1829 H1821 0.950 . S
C1829 C1827 1.327 . S
C1830 C1818 1.349 . S
C1830 H1824 0.950 . S
C1830 C1831 1.327 . S
C1831 H1825 0.950 . S
C1831 C1830 1.327 . S
C1831 C1835 1.429 . S
C1832 C1815 1.574 . S
C1832 H1826 0.949 . S
C1832 C1836 1.368 . S
C1833 C1814 1.429 . S
C1833 C1827 1.429 . S
C1833 C1834 1.523 . S
C1834 C1815 1.368 . S
C1834 C1828 1.368 . S
C1834 C1833 1.523 . S
C1835 C1819 1.429 . S
C1835 C1831 1.429 . S
C1835 C1836 1.523 . S
C1836 C1820 1.368 . S
C1836 C1832 1.368 . S
C1836 C1835 1.523 . S
H1837 C1812 0.950 . S
H1838 C1814 0.950 . S
H1839 C1815 0.949 . S
H1840 C1817 0.950 . S
H1841 C1819 0.950 . S
C1842 C1843 1.349 . S
C1842 C1844 1.327 . S
C1842 H1867 0.950 . S
C1843 C1842 1.349 . S
C1843 C1859 1.349 . S
C1844 C1842 1.327 . S
C1844 C1863 1.429 . S
C1844 H1868 0.950 . S
C1845 C1862 1.574 . S
C1845 C1864 1.368 . S
C1845 H1869 0.949 . S
H1846 C1850 0.949 . S
C1847 C1848 1.349 . S
C1847 C1849 1.327 . S
C1847 H1870 0.950 . S
C1848 C1847 1.349 . S
C1848 C1860 1.349 . S
C1849 C1847 1.327 . S
C1849 C1865 1.429 . S
C1849 H1871 0.950 . S
C1850 H1846 0.949 . S
C1850 C1858 1.574 . S
C1850 C1866 1.368 . S
H1851 C1859 0.950 . S
H1852 C1857 0.950 . S
H1853 C1858 0.949 . S
H1854 C1860 0.950 . S
H1855 C1861 0.950 . S
H1856 C1862 0.949 . S
C1857 H1852 0.950 . S
C1857 C1859 1.327 . S
C1857 C1863 1.429 . S
C1858 C1850 1.574 . S
C1858 H1853 0.949 . S
C1858 C1864 1.368 . S
C1859 C1843 1.349 . S
C1859 H1851 0.950 . S
C1859 C1857 1.327 . S
C1860 C1848 1.349 . S
C1860 H1854 0.950 . S
C1860 C1861 1.327 . S
C1861 H1855 0.950 . S
C1861 C1860 1.327 . S
C1861 C1865 1.429 . S
C1862 C1845 1.574 . S
C1862 H1856 0.949 . S
C1862 C1866 1.368 . S
C1863 C1844 1.429 . S
C1863 C1857 1.429 . S
C1863 C1864 1.523 . S
C1864 C1845 1.368 . S
C1864 C1858 1.368 . S
C1864 C1863 1.523 . S
C1865 C1849 1.429 . S
C1865 C1861 1.429 . S
C1865 C1866 1.523 . S
C1866 C1850 1.368 . S
C1866 C1862 1.368 . S
C1866 C1865 1.523 . S
H1867 C1842 0.950 . S
H1868 C1844 0.950 . S
H1869 C1845 0.949 . S
H1870 C1847 0.950 . S
H1871 C1849 0.950 . S
C1872 C1873 1.349 . S
C1872 C1874 1.327 . S
C1872 H1897 0.950 . S
C1873 C1872 1.349 . S
C1873 C1889 1.349 . S
C1874 C1872 1.327 . S
C1874 C1893 1.429 . S
C1874 H1898 0.950 . S
C1875 C1892 1.574 . S
C1875 C1894 1.368 . S
C1875 H1899 0.949 . S
H1876 C1880 0.949 . S
C1877 C1878 1.349 . S
C1877 C1879 1.327 . S
C1877 H1900 0.950 . S
C1878 C1877 1.349 . S
C1878 C1890 1.349 . S
C1879 C1877 1.327 . S
C1879 C1895 1.429 . S
C1879 H1901 0.950 . S
C1880 H1876 0.949 . S
C1880 C1888 1.574 . S
C1880 C1896 1.368 . S
H1881 C1889 0.950 . S
H1882 C1887 0.950 . S
H1883 C1888 0.949 . S
H1884 C1890 0.950 . S
H1885 C1891 0.950 . S
H1886 C1892 0.949 . S
C1887 H1882 0.950 . S
C1887 C1889 1.327 . S
C1887 C1893 1.429 . S
C1888 C1880 1.574 . S
C1888 H1883 0.949 . S
C1888 C1894 1.368 . S
C1889 C1873 1.349 . S
C1889 H1881 0.950 . S
C1889 C1887 1.327 . S
C1890 C1878 1.349 . S
C1890 H1884 0.950 . S
C1890 C1891 1.327 . S
C1891 H1885 0.950 . S
C1891 C1890 1.327 . S
C1891 C1895 1.429 . S
C1892 C1875 1.574 . S
C1892 H1886 0.949 . S
C1892 C1896 1.368 . S
C1893 C1874 1.429 . S
C1893 C1887 1.429 . S
C1893 C1894 1.523 . S
C1894 C1875 1.368 . S
C1894 C1888 1.368 . S
C1894 C1893 1.523 . S
C1895 C1879 1.429 . S
C1895 C1891 1.429 . S
C1895 C1896 1.523 . S
C1896 C1880 1.368 . S
C1896 C1892 1.368 . S
C1896 C1895 1.523 . S
H1897 C1872 0.950 . S
H1898 C1874 0.950 . S
H1899 C1875 0.949 . S
H1900 C1877 0.950 . S
H1901 C1879 0.950 . S
C1902 C1903 1.349 . S
C1902 C1904 1.327 . S
C1902 H1927 0.950 . S
C1903 C1902 1.349 . S
C1903 C1919 1.349 . S
C1904 C1902 1.327 . S
C1904 C1923 1.429 . S
C1904 H1928 0.950 . S
C1905 C1922 1.574 . S
C1905 C1924 1.368 1_556 S
C1905 H1929 0.949 . S
H1906 C1910 0.949 . S
C1907 C1908 1.349 . S
C1907 C1909 1.327 . S
C1907 H1930 0.950 . S
C1908 C1907 1.349 . S
C1908 C1920 1.349 . S
C1909 C1907 1.327 . S
C1909 C1925 1.429 . S
C1909 H1931 0.950 . S
C1910 H1906 0.949 . S
C1910 C1918 1.574 1_556 S
C1910 C1926 1.368 . S
H1911 C1919 0.950 . S
H1912 C1917 0.950 . S
H1913 C1918 0.949 . S
H1914 C1920 0.950 . S
H1915 C1921 0.950 . S
H1916 C1922 0.949 . S
C1917 H1912 0.950 . S
C1917 C1919 1.327 . S
C1917 C1923 1.429 . S
C1918 C1910 1.574 1_554 S
C1918 H1913 0.949 . S
C1918 C1924 1.368 . S
C1919 C1903 1.349 . S
C1919 H1911 0.950 . S
C1919 C1917 1.327 . S
C1920 C1908 1.349 . S
C1920 H1914 0.950 . S
C1920 C1921 1.327 . S
C1921 H1915 0.950 . S
C1921 C1920 1.327 . S
C1921 C1925 1.429 . S
C1922 C1905 1.574 . S
C1922 H1916 0.949 . S
C1922 C1926 1.368 . S
C1923 C1904 1.429 . S
C1923 C1917 1.429 . S
C1923 C1924 1.523 . S
C1924 C1905 1.368 1_554 S
C1924 C1918 1.368 . S
C1924 C1923 1.523 . S
C1925 C1909 1.429 . S
C1925 C1921 1.429 . S
C1925 C1926 1.523 . S
C1926 C1910 1.368 . S
C1926 C1922 1.368 . S
C1926 C1925 1.523 . S
H1927 C1902 0.950 . S
H1928 C1904 0.950 . S
H1929 C1905 0.949 . S
H1930 C1907 0.950 . S
H1931 C1909 0.950 . S
C1932 C1933 1.349 . S
C1932 C1934 1.327 . S
C1932 H1957 0.950 . S
C1933 C1932 1.349 . S
C1933 C1949 1.349 . S
C1934 C1932 1.327 . S
C1934 C1953 1.429 . S
C1934 H1958 0.950 . S
C1935 C1952 1.574 . S
C1935 C1954 1.368 . S
C1935 H1959 0.949 . S
H1936 C1940 0.949 . S
C1937 C1938 1.349 . S
C1937 C1939 1.327 . S
C1937 H1960 0.950 . S
C1938 C1937 1.349 . S
C1938 C1950 1.349 . S
C1939 C1937 1.327 . S
C1939 C1955 1.429 . S
C1939 H1961 0.950 . S
C1940 H1936 0.949 . S
C1940 C1948 1.574 . S
C1940 C1956 1.368 . S
H1941 C1949 0.950 . S
H1942 C1947 0.950 . S
H1943 C1948 0.949 . S
H1944 C1950 0.950 . S
H1945 C1951 0.950 . S
H1946 C1952 0.949 . S
C1947 H1942 0.950 . S
C1947 C1949 1.327 . S
C1947 C1953 1.429 . S
C1948 C1940 1.574 . S
C1948 H1943 0.949 . S
C1948 C1954 1.368 . S
C1949 C1933 1.349 . S
C1949 H1941 0.950 . S
C1949 C1947 1.327 . S
C1950 C1938 1.349 . S
C1950 H1944 0.950 . S
C1950 C1951 1.327 . S
C1951 H1945 0.950 . S
C1951 C1950 1.327 . S
C1951 C1955 1.429 . S
C1952 C1935 1.574 . S
C1952 H1946 0.949 . S
C1952 C1956 1.368 . S
C1953 C1934 1.429 . S
C1953 C1947 1.429 . S
C1953 C1954 1.523 . S
C1954 C1935 1.368 . S
C1954 C1948 1.368 . S
C1954 C1953 1.523 . S
C1955 C1939 1.429 . S
C1955 C1951 1.429 . S
C1955 C1956 1.523 . S
C1956 C1940 1.368 . S
C1956 C1952 1.368 . S
C1956 C1955 1.523 . S
H1957 C1932 0.950 . S
H1958 C1934 0.950 . S
H1959 C1935 0.949 . S
H1960 C1937 0.950 . S
H1961 C1939 0.950 . S
C1962 C1963 1.349 . S
C1962 C1964 1.327 . S
C1962 H1987 0.950 . S
C1963 C1962 1.349 . S
C1963 C1979 1.349 . S
C1964 C1962 1.327 . S
C1964 C1983 1.429 . S
C1964 H1988 0.950 . S
C1965 C1982 1.574 . S
C1965 C1984 1.368 1_556 S
C1965 H1989 0.949 . S
H1966 C1970 0.949 . S
C1967 C1968 1.349 . S
C1967 C1969 1.327 . S
C1967 H1990 0.950 . S
C1968 C1967 1.349 . S
C1968 C1980 1.349 . S
C1969 C1967 1.327 . S
C1969 C1985 1.429 . S
C1969 H1991 0.950 . S
C1970 H1966 0.949 . S
C1970 C1978 1.574 1_556 S
C1970 C1986 1.368 . S
H1971 C1979 0.950 . S
H1972 C1977 0.950 . S
H1973 C1978 0.949 . S
H1974 C1980 0.950 . S
H1975 C1981 0.950 . S
H1976 C1982 0.949 . S
C1977 H1972 0.950 . S
C1977 C1979 1.327 . S
C1977 C1983 1.429 . S
C1978 C1970 1.574 1_554 S
C1978 H1973 0.949 . S
C1978 C1984 1.368 . S
C1979 C1963 1.349 . S
C1979 H1971 0.950 . S
C1979 C1977 1.327 . S
C1980 C1968 1.349 . S
C1980 H1974 0.950 . S
C1980 C1981 1.327 . S
C1981 H1975 0.950 . S
C1981 C1980 1.327 . S
C1981 C1985 1.429 . S
C1982 C1965 1.574 . S
C1982 H1976 0.949 . S
C1982 C1986 1.368 . S
C1983 C1964 1.429 . S
C1983 C1977 1.429 . S
C1983 C1984 1.523 . S
C1984 C1965 1.368 1_554 S
C1984 C1978 1.368 . S
C1984 C1983 1.523 . S
C1985 C1969 1.429 . S
C1985 C1981 1.429 . S
C1985 C1986 1.523 . S
C1986 C1970 1.368 . S
C1986 C1982 1.368 . S
C1986 C1985 1.523 . S
H1987 C1962 0.950 . S
H1988 C1964 0.950 . S
H1989 C1965 0.949 . S
H1990 C1967 0.950 . S
H1991 C1969 0.950 . S
C553 N94 1.604 . S
C558 N2 1.602 . S
C583 C30 1.759 . S
C588 C122 1.760 . S
C613 N140 1.604 . S
C618 N48 1.602 . S
C643 C168 1.760 . S
C648 C76 1.759 . S
C673 N324 1.627 . S
C678 C191 1.638 . S
C703 N347 1.597 . S
C708 N209 1.594 . S
C733 C237 1.638 . S
C738 N278 1.627 . S
C763 N301 1.597 . S
C768 N255 1.594 . S
C793 C375 1.614 . S
C798 C490 1.614 . S
C823 C398 1.906 . S
C828 C444 1.906 . S
C853 C421 1.876 . S
C858 C467 1.876 . S
C883 N508 1.422 . S
C888 N531 1.422 . S
C913 N71 1.456 . S
C918 N117 1.434 . S
C943 C7 1.634 . S
C948 C145 1.630 . S
C973 N163 1.434 . S
C978 N25 1.456 . S
C1003 C53 1.634 . S
C1008 C99 1.630 . S
C1033 C536 1.502 . S
C1038 N416 1.443 . S
C1063 N439 1.436 . S
C1068 N485 1.437 . S
C1093 N462 1.443 . S
C1098 C513 1.502 . S
C1123 N393 1.436 . S
C1128 N370 1.437 . S
C1153 C260 1.496 . S
C1158 C214 1.496 . S
C1183 C352 1.766 . S
C1188 C306 1.766 . S
C1213 C283 1.753 . S
C1218 C329 1.753 . S
C1243 N232 1.229 . S
C1248 N186 1.229 . S
C1273 N518 1.674 . S
C1278 N12 1.666 . S
C1303 C384 1.594 . S
C1308 C39 1.593 . S
C1333 N541 1.674 . S
C1338 N58 1.666 . S
C1363 C499 1.594 . S
C1368 C85 1.593 . S
C1393 C430 1.655 . S
C1398 N104 1.623 . S
C1423 C131 1.731 . S
C1428 C453 1.730 . S
C1453 C476 1.655 . S
C1458 N150 1.623 . S
C1483 C407 1.730 . S
C1488 C177 1.731 . S
C1513 N311 1.627 . S
C1518 C200 1.669 . S
C1543 N334 1.634 . S
C1548 N219 1.641 . S
C1573 N357 1.627 . S
C1578 C246 1.669 . S
C1603 N265 1.641 . S
C1608 N288 1.634 . S
C1633 N127 1.518 . S
C1638 N242 1.522 . S
C1663 C154 1.416 . S
C1668 C269 1.416 . S
C1693 N196 1.522 . S
C1698 N173 1.518 . S
C1723 C108 1.416 . S
C1728 C223 1.416 . S
C1753 C338 1.506 . S
C1758 N81 1.514 . S
C1783 C16 1.511 . S
C1788 C361 1.511 . S
C1813 C292 1.506 . S
C1818 N35 1.514 . S
C1843 C62 1.511 . S
C1848 C315 1.511 . S
C1873 N403 1.485 . S
C1878 C545 1.470 . S
C1903 N495 1.522 . S
C1908 N426 1.517 . S
C1933 C522 1.470 . S
C1938 N449 1.485 . S
C1963 N380 1.522 . S
C1968 N472 1.517 . S
