# Generated by pormake.
# Topology smq, (6)-cn, num edge types: 1
# Building blocks:
#     Node 0, Type 0, BuildingBlock: OJICUG_clean_sbu_0, # of connection points: 6
#     Node 1, Type 0, BuildingBlock: OJICUG_clean_sbu_0, # of connection points: 6
#     Node 2, Type 0, BuildingBlock: OJICUG_clean_sbu_0, # of connection points: 6
#     Node 3, Type 0, BuildingBlock: OJICUG_clean_sbu_0, # of connection points: 6
#     Node 4, Type 0, BuildingBlock: OJICUG_clean_sbu_0, # of connection points: 6
#     Node 5, Type 0, BuildingBlock: OJICUG_clean_sbu_0, # of connection points: 6
#     Node 6, Type 0, BuildingBlock: OJICUG_clean_sbu_0, # of connection points: 6
#     Node 7, Type 0, BuildingBlock: OJICUG_clean_sbu_0, # of connection points: 6
#     Node 8, Type 0, BuildingBlock: OJICUG_clean_sbu_0, # of connection points: 6
#     Node 9, Type 0, BuildingBlock: OJICUG_clean_sbu_0, # of connection points: 6
#     Node 10, Type 0, BuildingBlock: OJICUG_clean_sbu_0, # of connection points: 6
#     Node 11, Type 0, BuildingBlock: OJICUG_clean_sbu_0, # of connection points: 6
#     Node 12, Type 0, BuildingBlock: OJICUG_clean_sbu_0, # of connection points: 6
#     Node 13, Type 0, BuildingBlock: OJICUG_clean_sbu_0, # of connection points: 6
#     Node 14, Type 0, BuildingBlock: OJICUG_clean_sbu_0, # of connection points: 6
#     Node 15, Type 0, BuildingBlock: OJICUG_clean_sbu_0, # of connection points: 6
#     Node 16, Type 0, BuildingBlock: OJICUG_clean_sbu_0, # of connection points: 6
#     Node 17, Type 0, BuildingBlock: OJICUG_clean_sbu_0, # of connection points: 6
#     Node 18, Type 0, BuildingBlock: OJICUG_clean_sbu_0, # of connection points: 6
#     Node 19, Type 0, BuildingBlock: OJICUG_clean_sbu_0, # of connection points: 6
#     Node 20, Type 0, BuildingBlock: OJICUG_clean_sbu_0, # of connection points: 6
#     Node 21, Type 0, BuildingBlock: OJICUG_clean_sbu_0, # of connection points: 6
#     Node 22, Type 0, BuildingBlock: OJICUG_clean_sbu_0, # of connection points: 6
#     Node 23, Type 0, BuildingBlock: OJICUG_clean_sbu_0, # of connection points: 6
#     Edge 24, Type (0, 0), BuildingBlock: OJICUG_clean_linker_0, # of connection points: 2
#     Edge 25, Type (0, 0), BuildingBlock: OJICUG_clean_linker_0, # of connection points: 2
#     Edge 26, Type (0, 0), BuildingBlock: OJICUG_clean_linker_0, # of connection points: 2
#     Edge 27, Type (0, 0), BuildingBlock: OJICUG_clean_linker_0, # of connection points: 2
#     Edge 28, Type (0, 0), BuildingBlock: OJICUG_clean_linker_0, # of connection points: 2
#     Edge 29, Type (0, 0), BuildingBlock: OJICUG_clean_linker_0, # of connection points: 2
#     Edge 30, Type (0, 0), BuildingBlock: OJICUG_clean_linker_0, # of connection points: 2
#     Edge 31, Type (0, 0), BuildingBlock: OJICUG_clean_linker_0, # of connection points: 2
#     Edge 32, Type (0, 0), BuildingBlock: OJICUG_clean_linker_0, # of connection points: 2
#     Edge 33, Type (0, 0), BuildingBlock: OJICUG_clean_linker_0, # of connection points: 2
#     Edge 34, Type (0, 0), BuildingBlock: OJICUG_clean_linker_0, # of connection points: 2
#     Edge 35, Type (0, 0), BuildingBlock: OJICUG_clean_linker_0, # of connection points: 2
#     Edge 36, Type (0, 0), BuildingBlock: OJICUG_clean_linker_0, # of connection points: 2
#     Edge 37, Type (0, 0), BuildingBlock: OJICUG_clean_linker_0, # of connection points: 2
#     Edge 38, Type (0, 0), BuildingBlock: OJICUG_clean_linker_0, # of connection points: 2
#     Edge 39, Type (0, 0), BuildingBlock: OJICUG_clean_linker_0, # of connection points: 2
#     Edge 40, Type (0, 0), BuildingBlock: OJICUG_clean_linker_0, # of connection points: 2
#     Edge 41, Type (0, 0), BuildingBlock: OJICUG_clean_linker_0, # of connection points: 2
#     Edge 42, Type (0, 0), BuildingBlock: OJICUG_clean_linker_0, # of connection points: 2
#     Edge 43, Type (0, 0), BuildingBlock: OJICUG_clean_linker_0, # of connection points: 2
#     Edge 44, Type (0, 0), BuildingBlock: OJICUG_clean_linker_0, # of connection points: 2
#     Edge 45, Type (0, 0), BuildingBlock: OJICUG_clean_linker_0, # of connection points: 2
#     Edge 46, Type (0, 0), BuildingBlock: OJICUG_clean_linker_0, # of connection points: 2
#     Edge 47, Type (0, 0), BuildingBlock: OJICUG_clean_linker_0, # of connection points: 2
#     Edge 48, Type (0, 0), BuildingBlock: OJICUG_clean_linker_0, # of connection points: 2
#     Edge 49, Type (0, 0), BuildingBlock: OJICUG_clean_linker_0, # of connection points: 2
#     Edge 50, Type (0, 0), BuildingBlock: OJICUG_clean_linker_0, # of connection points: 2
#     Edge 51, Type (0, 0), BuildingBlock: OJICUG_clean_linker_0, # of connection points: 2
#     Edge 52, Type (0, 0), BuildingBlock: OJICUG_clean_linker_0, # of connection points: 2
#     Edge 53, Type (0, 0), BuildingBlock: OJICUG_clean_linker_0, # of connection points: 2
#     Edge 54, Type (0, 0), BuildingBlock: OJICUG_clean_linker_0, # of connection points: 2
#     Edge 55, Type (0, 0), BuildingBlock: OJICUG_clean_linker_0, # of connection points: 2
#     Edge 56, Type (0, 0), BuildingBlock: OJICUG_clean_linker_0, # of connection points: 2
#     Edge 57, Type (0, 0), BuildingBlock: OJICUG_clean_linker_0, # of connection points: 2
#     Edge 58, Type (0, 0), BuildingBlock: OJICUG_clean_linker_0, # of connection points: 2
#     Edge 59, Type (0, 0), BuildingBlock: OJICUG_clean_linker_0, # of connection points: 2
#     Edge 60, Type (0, 0), BuildingBlock: OJICUG_clean_linker_0, # of connection points: 2
#     Edge 61, Type (0, 0), BuildingBlock: OJICUG_clean_linker_0, # of connection points: 2
#     Edge 62, Type (0, 0), BuildingBlock: OJICUG_clean_linker_0, # of connection points: 2
#     Edge 63, Type (0, 0), BuildingBlock: OJICUG_clean_linker_0, # of connection points: 2
#     Edge 64, Type (0, 0), BuildingBlock: OJICUG_clean_linker_0, # of connection points: 2
#     Edge 65, Type (0, 0), BuildingBlock: OJICUG_clean_linker_0, # of connection points: 2
#     Edge 66, Type (0, 0), BuildingBlock: OJICUG_clean_linker_0, # of connection points: 2
#     Edge 67, Type (0, 0), BuildingBlock: OJICUG_clean_linker_0, # of connection points: 2
#     Edge 68, Type (0, 0), BuildingBlock: OJICUG_clean_linker_0, # of connection points: 2
#     Edge 69, Type (0, 0), BuildingBlock: OJICUG_clean_linker_0, # of connection points: 2
#     Edge 70, Type (0, 0), BuildingBlock: OJICUG_clean_linker_0, # of connection points: 2
#     Edge 71, Type (0, 0), BuildingBlock: OJICUG_clean_linker_0, # of connection points: 2
#     Edge 72, Type (0, 0), BuildingBlock: OJICUG_clean_linker_0, # of connection points: 2
#     Edge 73, Type (0, 0), BuildingBlock: OJICUG_clean_linker_0, # of connection points: 2
#     Edge 74, Type (0, 0), BuildingBlock: OJICUG_clean_linker_0, # of connection points: 2
#     Edge 75, Type (0, 0), BuildingBlock: OJICUG_clean_linker_0, # of connection points: 2
#     Edge 76, Type (0, 0), BuildingBlock: OJICUG_clean_linker_0, # of connection points: 2
#     Edge 77, Type (0, 0), BuildingBlock: OJICUG_clean_linker_0, # of connection points: 2
#     Edge 78, Type (0, 0), BuildingBlock: OJICUG_clean_linker_0, # of connection points: 2
#     Edge 79, Type (0, 0), BuildingBlock: OJICUG_clean_linker_0, # of connection points: 2
#     Edge 80, Type (0, 0), BuildingBlock: OJICUG_clean_linker_0, # of connection points: 2
#     Edge 81, Type (0, 0), BuildingBlock: OJICUG_clean_linker_0, # of connection points: 2
#     Edge 82, Type (0, 0), BuildingBlock: OJICUG_clean_linker_0, # of connection points: 2
#     Edge 83, Type (0, 0), BuildingBlock: OJICUG_clean_linker_0, # of connection points: 2
#     Edge 84, Type (0, 0), BuildingBlock: OJICUG_clean_linker_0, # of connection points: 2
#     Edge 85, Type (0, 0), BuildingBlock: OJICUG_clean_linker_0, # of connection points: 2
#     Edge 86, Type (0, 0), BuildingBlock: OJICUG_clean_linker_0, # of connection points: 2
#     Edge 87, Type (0, 0), BuildingBlock: OJICUG_clean_linker_0, # of connection points: 2
#     Edge 88, Type (0, 0), BuildingBlock: OJICUG_clean_linker_0, # of connection points: 2
#     Edge 89, Type (0, 0), BuildingBlock: OJICUG_clean_linker_0, # of connection points: 2
#     Edge 90, Type (0, 0), BuildingBlock: OJICUG_clean_linker_0, # of connection points: 2
#     Edge 91, Type (0, 0), BuildingBlock: OJICUG_clean_linker_0, # of connection points: 2
#     Edge 92, Type (0, 0), BuildingBlock: OJICUG_clean_linker_0, # of connection points: 2
#     Edge 93, Type (0, 0), BuildingBlock: OJICUG_clean_linker_0, # of connection points: 2
#     Edge 94, Type (0, 0), BuildingBlock: OJICUG_clean_linker_0, # of connection points: 2
#     Edge 95, Type (0, 0), BuildingBlock: OJICUG_clean_linker_0, # of connection points: 2
# Relax obj value: 0.157
# Max RMSD: 0.181
# Mean RMSD: 0.181
data_MOF--net-smq--node1-OJICUG_clean_sbu_0--edge1-OJICUG_clean_linker_0
_symmetry_space_group_name_H-M    P1
_symmetry_Int_Tables_number       1
_symmetry_cell_setting            triclinic
loop_
_symmetry_equiv_pos_as_xyz
'x, y, z'
_cell_length_a     35.33258
_cell_length_b     35.474716
_cell_length_c     35.353086
_cell_angle_alpha  90.020604
_cell_angle_beta   89.940662
_cell_angle_gamma 89.942714
loop_
_atom_site_label
_atom_site_type_symbol
_atom_site_fract_x
_atom_site_fract_y
_atom_site_fract_z
_atom_type_partial_charge
Sc0 Sc 0.98213 0.13027 0.20052 0.0
Sc1 Sc 0.9894 0.21374 0.24941 0.0
Sc2 Sc -0.00527 0.12687 0.2966 0.0
O3 O 0.98934 0.15752 0.24928 0.0
C4 C 0.93364 0.08342 0.25285 0.0
C5 C 0.92291 0.19125 0.19107 0.0
C6 C 0.94217 0.19507 0.32263 0.0
C7 C 0.02751 0.20199 0.17252 0.0
C8 C 0.05096 0.09099 0.23684 0.0
C9 C 0.05288 0.1916 0.31096 0.0
O10 O 0.95783 0.08155 0.22664 0.0
O11 O 0.94485 0.21551 0.20654 0.0
O12 O 0.95964 0.16436 0.32892 0.0
O13 O 0.00577 0.17421 0.16672 0.0
O14 O 0.03262 0.08719 0.26788 0.0
O15 O 0.03411 0.21547 0.2914 0.0
O16 O 0.03712 0.10772 0.2082 0.0
O17 O 0.03146 0.21656 0.20513 0.0
O18 O 0.04442 0.15683 0.31284 0.0
O19 O 0.92796 0.15584 0.19433 0.0
O20 O 0.94226 0.09878 0.28388 0.0
O21 O 0.94743 0.21527 0.29336 0.0
Sc22 Sc 0.29688 0.49728 0.69607 0.0
Sc23 Sc 0.22092 0.48676 0.75619 0.0
Sc24 Sc 0.31457 0.48508 0.79012 0.0
O25 O 0.2771 0.48869 0.7479 0.0
C26 C 0.34629 0.43167 0.72477 0.0
C27 C 0.22237 0.44962 0.67857 0.0
C28 C 0.25467 0.42502 0.81422 0.0
C29 C 0.23198 0.55201 0.694 0.0
C30 C 0.35212 0.54663 0.74144 0.0
C31 C 0.2493 0.53671 0.82471 0.0
O32 O 0.32449 0.44417 0.69902 0.0
O33 O 0.21282 0.44416 0.71288 0.0
O34 O 0.28894 0.43496 0.81035 0.0
O35 O 0.26784 0.54974 0.69552 0.0
O36 O 0.34054 0.53731 0.77389 0.0
O37 O 0.22493 0.53019 0.79895 0.0
O38 O 0.34765 0.5253 0.71319 0.0
O39 O 0.21049 0.52933 0.71221 0.0
O40 O 0.28078 0.51942 0.82703 0.0
O41 O 0.24945 0.4712 0.66949 0.0
O42 O 0.3514 0.44886 0.75622 0.0
O43 O 0.227 0.44274 0.79901 0.0
Sc44 Sc 0.0004 0.84935 0.20224 0.0
Sc45 Sc -0.00385 0.76402 0.24846 0.0
Sc46 Sc 0.98906 0.84915 0.29878 0.0
O47 O -0.00535 0.82026 0.25024 0.0
C48 C 0.04859 0.89551 0.25536 0.0
C49 C 0.0605 0.78989 0.18878 0.0
C50 C 0.04466 0.78214 0.32158 0.0
C51 C 0.95545 0.77821 0.17261 0.0
C52 C 0.93095 0.88587 0.24104 0.0
C53 C 0.93331 0.78182 0.31223 0.0
O54 O 0.02406 0.89766 0.22957 0.0
O55 O 0.03975 0.76484 0.2046 0.0
O56 O 0.02622 0.81203 0.32908 0.0
O57 O 0.97688 0.80632 0.16745 0.0
O58 O 0.94908 0.88846 0.2723 0.0
O59 O 0.95232 0.75928 0.29133 0.0
O60 O 0.94511 0.8706 0.21171 0.0
O61 O 0.9532 0.76162 0.20449 0.0
O62 O 0.94073 0.81679 0.31513 0.0
O63 O 0.05497 0.8251 0.19337 0.0
O64 O 0.04048 0.87935 0.28613 0.0
O65 O 0.0392 0.76243 0.29189 0.0
Sc66 Sc 0.66267 0.48593 0.79889 0.0
Sc67 Sc 0.75361 0.49008 0.75618 0.0
Sc68 Sc 0.6706 0.4924 0.70296 0.0
O69 O 0.69633 0.48947 0.75291 0.0
C70 C 0.6195 0.43331 0.74486 0.0
C71 C 0.73124 0.43246 0.82134 0.0
C72 C 0.735 0.43483 0.68609 0.0
C73 C 0.72457 0.54527 0.82297 0.0
C74 C 0.62262 0.54815 0.74939 0.0
C75 C 0.74354 0.54257 0.68589 0.0
O76 O 0.63453 0.437 0.77709 0.0
O77 O 0.75408 0.4431 0.7956 0.0
O78 O 0.7 0.44334 0.68484 0.0
O79 O 0.69078 0.533 0.82317 0.0
O80 O 0.64285 0.54262 0.72032 0.0
O81 O 0.76142 0.53626 0.71642 0.0
O82 O 0.6208 0.52494 0.77675 0.0
O83 O 0.75099 0.53104 0.80253 0.0
O84 O 0.71267 0.52652 0.67798 0.0
O85 O 0.69922 0.44753 0.82679 0.0
O86 O 0.62341 0.45798 0.71923 0.0
O87 O 0.75872 0.45063 0.70849 0.0
Sc88 Sc -0.00731 0.84456 0.67958 0.0
Sc89 Sc 0.98661 0.76007 0.73105 0.0
Sc90 Sc 0.98009 0.84594 0.77582 0.0
O91 O 0.98684 0.81628 0.72844 0.0
C92 C 0.04919 0.88217 0.73698 0.0
C93 C 0.05059 0.77873 0.66872 0.0
C94 C 0.0258 0.77544 0.80715 0.0
C95 C 0.93865 0.77645 0.6575 0.0
C96 C 0.93191 0.89112 0.72033 0.0
C97 C 0.92122 0.78572 0.78975 0.0
O98 O 0.03054 0.88544 0.70615 0.0
O99 O 0.03129 0.75566 0.68875 0.0
O100 O 0.00433 0.80375 0.81165 0.0
O101 O 0.95722 0.80601 0.64928 0.0
O102 O 0.9554 0.89333 0.7472 0.0
O103 O 0.94263 0.7607 0.77467 0.0
O104 O 0.94059 0.87407 0.69023 0.0
O105 O 0.9439 0.75743 0.68762 0.0
O106 O 0.92599 0.82088 0.78427 0.0
O107 O 0.04228 0.81344 0.66546 0.0
O108 O 0.03512 0.86745 0.76656 0.0
O109 O 0.02896 0.75881 0.77537 0.0
Sc110 Sc 0.6859 0.47968 0.28272 0.0
Sc111 Sc 0.7595 0.48291 0.21892 0.0
Sc112 Sc 0.66508 0.48923 0.18824 0.0
O113 O 0.70359 0.48453 0.2295 0.0
C114 C 0.62154 0.43411 0.24092 0.0
C115 C 0.74852 0.42196 0.28505 0.0
C116 C 0.72497 0.43007 0.15582 0.0
C117 C 0.76191 0.52697 0.29276 0.0
C118 C 0.63875 0.54726 0.25264 0.0
C119 C 0.72882 0.54294 0.15819 0.0
O120 O 0.63371 0.45141 0.26981 0.0
O121 O 0.77016 0.44292 0.26514 0.0
O122 O 0.69462 0.44929 0.15293 0.0
O123 O 0.73543 0.5065 0.30558 0.0
O124 O 0.63321 0.53083 0.22087 0.0
O125 O 0.75563 0.52393 0.1731 0.0
O126 O 0.65949 0.5334 0.27854 0.0
O127 O 0.77046 0.52837 0.25787 0.0
O128 O 0.69418 0.53569 0.16395 0.0
O129 O 0.71289 0.42635 0.28564 0.0
O130 O 0.63309 0.44161 0.20793 0.0
O131 O 0.75062 0.43704 0.1802 0.0
Sc132 Sc -0.00934 0.12919 0.68234 0.0
Sc133 Sc -0.01029 0.21468 0.73182 0.0
Sc134 Sc 0.98646 0.12991 0.77935 0.0
O135 O 0.98931 0.15838 0.73087 0.0
C136 C 0.93141 0.08573 0.72944 0.0
C137 C 0.93577 0.1978 0.66385 0.0
C138 C 0.93096 0.19243 0.7979 0.0
C139 C 0.04715 0.19366 0.66409 0.0
C140 C 0.0502 0.09031 0.7348 0.0
C141 C 0.0387 0.1986 0.80183 0.0
O142 O 0.939 0.10158 0.69832 0.0
O143 O 0.94239 0.21661 0.69379 0.0
O144 O 0.93464 0.15708 0.7931 0.0
O145 O 0.03989 0.15858 0.66375 0.0
O146 O 0.03921 0.10574 0.76525 0.0
O147 O 0.03697 0.21587 0.77038 0.0
O148 O 0.02889 0.08712 0.70586 0.0
O149 O 0.02893 0.21737 0.68439 0.0
O150 O 0.01703 0.17148 0.81044 0.0
O151 O 0.95442 0.16865 0.65429 0.0
O152 O 0.95597 0.08345 0.75536 0.0
O153 O 0.95113 0.21653 0.78008 0.0
Sc154 Sc 0.31628 0.48773 0.19092 0.0
Sc155 Sc 0.22058 0.48948 0.21927 0.0
Sc156 Sc 0.29202 0.49808 0.28531 0.0
O157 O 0.27633 0.49134 0.23146 0.0
C158 C 0.34438 0.43241 0.25685 0.0
C159 C 0.25569 0.4314 0.15888 0.0
C160 C 0.21998 0.44451 0.29353 0.0
C161 C 0.25458 0.54435 0.1569 0.0
C162 C 0.35548 0.54648 0.24426 0.0
C163 C 0.22434 0.55083 0.28561 0.0
O164 O 0.34831 0.44702 0.22401 0.0
O165 O 0.22789 0.44866 0.17403 0.0
O166 O 0.24514 0.46625 0.30683 0.0
O167 O 0.28622 0.52707 0.15545 0.0
O168 O 0.34087 0.5316 0.27336 0.0
O169 O 0.20539 0.52862 0.26457 0.0
O170 O 0.34733 0.53583 0.21111 0.0
O171 O 0.22817 0.53565 0.18006 0.0
O172 O 0.26007 0.54887 0.28833 0.0
O173 O 0.28981 0.44036 0.16501 0.0
O174 O 0.32373 0.44691 0.28253 0.0
O175 O 0.21109 0.4437 0.25865 0.0
Sc176 Sc 0.23103 0.97702 0.15099 0.0
Sc177 Sc 0.26921 0.98396 0.24166 0.0
Sc178 Sc 0.32835 0.98705 0.16082 0.0
O179 O 0.27632 0.98277 0.18462 0.0
C180 C 0.29153 0.92701 0.10679 0.0
C181 C 0.20359 0.9267 0.21574 0.0
C182 C 0.33873 0.92893 0.22912 0.0
C183 C 0.19969 0.03112 0.21677 0.0
C184 C 0.27768 0.04305 0.11271 0.0
C185 C 0.33646 0.04313 0.22937 0.0
O186 O 0.25847 0.94013 0.11132 0.0
O187 O 0.22172 0.9454 0.24055 0.0
O188 O 0.35065 0.94659 0.2001 0.0
O189 O 0.19714 0.01219 0.18642 0.0
O190 O 0.31011 0.02921 0.12012 0.0
O191 O 0.3136 0.02541 0.25078 0.0
O192 O 0.24684 0.02702 0.12167 0.0
O193 O 0.22766 0.0287 0.23938 0.0
O194 O 0.34275 0.03376 0.19543 0.0
O195 O 0.2119 0.92817 0.18079 0.0
O196 O 0.32021 0.93972 0.12388 0.0
O197 O 0.30867 0.93787 0.24702 0.0
Sc198 Sc 0.49609 0.78781 0.63449 0.0
Sc199 Sc 0.48755 0.7482 0.72456 0.0
Sc200 Sc 0.48469 0.69231 0.64561 0.0
O201 O 0.49006 0.74326 0.66852 0.0
C202 C 0.43716 0.74036 0.59117 0.0
C203 C 0.43885 0.81682 0.69814 0.0
C204 C 0.42463 0.68568 0.70558 0.0
C205 C 0.54951 0.81006 0.70044 0.0
C206 C 0.55388 0.7256 0.60397 0.0
C207 C 0.53004 0.67409 0.7206 0.0
O208 O 0.44566 0.77218 0.60469 0.0
O209 O 0.4431 0.78871 0.72007 0.0
O210 O 0.4301 0.68782 0.67013 0.0
O211 O 0.54414 0.80726 0.66505 0.0
O212 O 0.53988 0.69843 0.62278 0.0
O213 O 0.53238 0.70808 0.73141 0.0
O214 O 0.53615 0.75671 0.59865 0.0
O215 O 0.52917 0.793 0.72489 0.0
O216 O 0.50869 0.66364 0.69373 0.0
O217 O 0.45856 0.82211 0.66839 0.0
O218 O 0.45961 0.71267 0.59412 0.0
O219 O 0.44578 0.70279 0.72938 0.0
Sc220 Sc 0.65363 -0.01032 0.16349 0.0
Sc221 Sc 0.71291 -0.00562 0.24399 0.0
Sc222 Sc 0.7509 -0.00158 0.15297 0.0
O223 O 0.70571 -0.00594 0.18698 0.0
C224 C 0.70366 0.93191 0.1167 0.0
C225 C 0.64558 0.93511 0.23314 0.0
C226 C 0.78241 0.94638 0.22037 0.0
C227 C 0.6436 0.04943 0.23034 0.0
C228 C 0.6906 0.04783 0.10788 0.0
C229 C 0.77848 0.05081 0.21593 0.0
O230 O 0.67146 0.94666 0.12341 0.0
O231 O 0.66834 0.95324 0.25432 0.0
O232 O 0.78492 0.96434 0.18942 0.0
O233 O 0.63144 0.03099 0.20195 0.0
O234 O 0.72346 0.03406 0.11207 0.0
O235 O 0.76046 0.03284 0.2414 0.0
O236 O 0.66201 0.03625 0.12589 0.0
O237 O 0.67368 0.04081 0.24828 0.0
O238 O 0.77016 0.04818 0.18107 0.0
O239 O 0.63937 0.94384 0.19904 0.0
O240 O 0.73473 0.94754 0.1255 0.0
O241 O 0.7544 0.94948 0.24291 0.0
Sc242 Sc 0.4844 0.278 0.63144 0.0
Sc243 Sc 0.48741 0.23092 0.71658 0.0
Sc244 Sc 0.49027 0.18166 0.63071 0.0
O245 O 0.48793 0.22986 0.66013 0.0
C246 C 0.43103 0.2279 0.58669 0.0
C247 C 0.42647 0.29438 0.69254 0.0
C248 C 0.43542 0.16167 0.69893 0.0
C249 C 0.53383 0.30259 0.70193 0.0
C250 C 0.5494 0.23524 0.59251 0.0
C251 C 0.5467 0.1644 0.69602 0.0
O252 O 0.45621 0.25305 0.58396 0.0
O253 O 0.44698 0.27787 0.71741 0.0
O254 O 0.4544 0.15271 0.66974 0.0
O255 O 0.51235 0.30998 0.67419 0.0
O256 O 0.5283 0.20626 0.58892 0.0
O257 O 0.52813 0.18461 0.71966 0.0
O258 O 0.53818 0.26525 0.60855 0.0
O259 O 0.53339 0.27096 0.71885 0.0
O260 O 0.53957 0.16381 0.66075 0.0
O261 O 0.43142 0.28987 0.65719 0.0
O262 O 0.43833 0.19695 0.60286 0.0
O263 O 0.44124 0.19156 0.71795 0.0
Sc264 Sc 0.3214 -0.0117 0.8142 0.0
Sc265 Sc 0.26843 0.98756 0.72985 0.0
Sc266 Sc 0.22469 0.98385 0.81743 0.0
O267 O 0.27169 0.98695 0.78673 0.0
C268 C 0.27786 0.92831 0.86038 0.0
C269 C 0.33771 0.93459 0.74375 0.0
C270 C 0.20263 0.93006 0.75402 0.0
C271 C 0.33421 0.04644 0.74954 0.0
C272 C 0.27016 0.04567 0.85965 0.0
C273 C 0.19827 0.03485 0.74793 0.0
O274 O 0.30804 0.93673 0.84308 0.0
O275 O 0.30707 0.94105 0.7261 0.0
O276 O 0.20951 0.93309 0.78916 0.0
O277 O 0.33687 0.03793 0.78433 0.0
O278 O 0.23948 0.03565 0.84394 0.0
O279 O 0.22879 0.03346 0.72903 0.0
O280 O 0.30008 0.02552 0.8586 0.0
O281 O 0.31446 0.02773 0.72585 0.0
O282 O 0.19244 0.01568 0.77761 0.0
O283 O 0.34813 0.95277 0.77294 0.0
O284 O 0.24987 0.9507 0.86182 0.0
O285 O 0.22007 0.94943 0.72907 0.0
Sc286 Sc 0.50176 0.69711 0.34501 0.0
Sc287 Sc 0.49758 0.74586 0.26158 0.0
Sc288 Sc 0.48843 0.79283 0.34818 0.0
O289 O 0.49552 0.74579 0.31777 0.0
C290 C 0.43088 0.73273 0.3811 0.0
C291 C 0.45562 0.67111 0.27425 0.0
C292 C 0.43439 0.80855 0.28063 0.0
C293 C 0.56213 0.68627 0.28625 0.0
C294 C 0.54747 0.74974 0.39467 0.0
C295 C 0.5456 0.81763 0.28295 0.0
O296 O 0.44579 0.7043 0.36506 0.0
O297 O 0.45344 0.70336 0.25857 0.0
O298 O 0.44002 0.80866 0.3161 0.0
O299 O 0.55697 0.69115 0.32157 0.0
O300 O 0.53952 0.78062 0.37888 0.0
O301 O 0.54143 0.78805 0.26281 0.0
O302 O 0.5235 0.72336 0.39505 0.0
O303 O 0.54057 0.70134 0.26135 0.0
O304 O 0.52536 0.82489 0.31191 0.0
O305 O 0.48005 0.66388 0.29945 0.0
O306 O 0.4488 0.76376 0.38607 0.0
O307 O 0.45482 0.78986 0.25739 0.0
Sc308 Sc 0.75128 0.9872 0.82666 0.0
Sc309 Sc 0.71252 -0.01158 0.73653 0.0
Sc310 Sc 0.65487 -0.01097 0.81811 0.0
O311 O 0.7061 -0.01206 0.7931 0.0
C312 C 0.70017 0.92724 0.86383 0.0
C313 C 0.78191 0.93898 0.75692 0.0
C314 C 0.64424 0.9308 0.75226 0.0
C315 C 0.77884 0.04316 0.7665 0.0
C316 C 0.6998 0.04432 0.86741 0.0
C317 C 0.64377 0.04467 0.74838 0.0
O318 O 0.73199 0.93509 0.84921 0.0
O319 O 0.75314 0.94243 0.73555 0.0
O320 O 0.63838 0.94106 0.78623 0.0
O321 O 0.77171 0.03809 0.80151 0.0
O322 O 0.6701 0.03925 0.84822 0.0
O323 O 0.6743 0.03584 0.73138 0.0
O324 O 0.72417 0.01841 0.87116 0.0
O325 O 0.76044 0.02662 0.74017 0.0
O326 O 0.63155 0.027 0.77713 0.0
O327 O 0.78487 0.95618 0.7881 0.0
O328 O 0.67204 0.94981 0.86271 0.0
O329 O 0.66691 0.94778 0.72977 0.0
Sc330 Sc 0.49196 0.18189 0.34843 0.0
Sc331 Sc 0.48415 0.2329 0.2639 0.0
Sc332 Sc 0.48176 0.278 0.35 0.0
O333 O 0.48616 0.23056 0.32016 0.0
C334 C 0.43379 0.22406 0.39645 0.0
C335 C 0.43557 0.16039 0.28167 0.0
C336 C 0.42121 0.29337 0.29171 0.0
C337 C 0.5471 0.16931 0.28088 0.0
C338 C 0.55085 0.23758 0.38407 0.0
C339 C 0.52625 0.30765 0.27825 0.0
O340 O 0.44091 0.1938 0.37909 0.0
O341 O 0.44009 0.19073 0.26285 0.0
O342 O 0.42696 0.28806 0.3269 0.0
O343 O 0.54054 0.16729 0.31615 0.0
O344 O 0.53742 0.26735 0.36932 0.0
O345 O 0.52791 0.27591 0.26141 0.0
O346 O 0.53104 0.20778 0.38865 0.0
O347 O 0.52715 0.18906 0.25807 0.0
O348 O 0.5051 0.31296 0.30673 0.0
O349 O 0.45536 0.15193 0.31047 0.0
O350 O 0.45846 0.24977 0.39832 0.0
O351 O 0.44142 0.27758 0.26605 0.0
Sc352 Sc 0.17909 0.19425 -0.00375 0.0
Sc353 Sc 0.2565 0.25361 -0.01047 0.0
Sc354 Sc 0.16358 0.28969 0.98815 0.0
O355 O 0.19991 0.24619 -0.00894 0.0
C356 C 0.1289 0.22824 0.9324 0.0
C357 C 0.25107 0.17985 0.94385 0.0
C358 C 0.22543 0.31454 0.92985 0.0
C359 C 0.24544 0.18716 0.05045 0.0
C360 C 0.12011 0.24022 0.04562 0.0
C361 C 0.22852 0.31949 0.0433 0.0
O362 O 0.14903 0.20117 0.94468 0.0
O363 O 0.26318 0.2136 0.9438 0.0
O364 O 0.19115 0.31131 0.93968 0.0
O365 O 0.20964 0.18741 0.04749 0.0
O366 O 0.13308 0.2724 0.03756 0.0
O367 O 0.25284 0.29389 0.03565 0.0
O368 O 0.13039 0.2105 0.0286 0.0
O369 O 0.26681 0.20728 0.02939 0.0
O370 O 0.19737 0.323 0.02564 0.0
O371 O 0.2243 0.16868 0.96491 0.0
O372 O 0.12673 0.2601 0.94903 0.0
O373 O 0.25256 0.29856 0.94754 0.0
Sc374 Sc 0.16227 0.68832 -0.00746 0.0
Sc375 Sc 0.25613 0.72048 0.98417 0.0
Sc376 Sc 0.18062 0.78194 0.97941 0.0
O377 O 0.19997 0.72973 0.98615 0.0
C378 C 0.11679 0.73797 0.93671 0.0
C379 C 0.22295 0.65327 0.93539 0.0
C380 C 0.24131 0.78333 0.92004 0.0
C381 C 0.22702 0.66175 0.04722 0.0
C382 C 0.13611 0.75411 0.04921 0.0
C383 C 0.25825 0.79729 0.0227 0.0
O384 O 0.13015 0.70572 0.94388 0.0
O385 O 0.24841 0.67813 0.94102 0.0
O386 O 0.20571 0.78207 0.92486 0.0
O387 O 0.19223 0.66626 0.03966 0.0
O388 O 0.15663 0.77965 0.03447 0.0
O389 O 0.26744 0.76285 0.02693 0.0
O390 O 0.13024 0.72215 0.03333 0.0
O391 O 0.25357 0.67707 0.02803 0.0
O392 O 0.23047 0.80734 0.00241 0.0
O393 O 0.19205 0.6519 0.95392 0.0
O394 O 0.12724 0.76698 0.95468 0.0
O395 O 0.26408 0.7646 0.94104 0.0
Sc396 Sc 0.82888 0.6554 0.4865 0.0
Sc397 Sc 0.76785 0.73434 0.48676 0.0
Sc398 Sc 0.7327 0.64305 0.48757 0.0
O399 O 0.77656 0.67822 0.48678 0.0
C400 C 0.78428 0.60755 0.42642 0.0
C401 C 0.83603 0.72139 0.42765 0.0
C402 C 0.69841 0.71083 0.439 0.0
C403 C 0.83818 0.72569 0.54118 0.0
C404 C 0.78764 0.60492 0.54435 0.0
C405 C 0.70388 0.70284 0.54378 0.0
O406 O 0.8129 0.60994 0.4482 0.0
O407 O 0.81255 0.74263 0.44516 0.0
O408 O 0.69698 0.6797 0.45639 0.0
O409 O 0.85111 0.69739 0.52347 0.0
O410 O 0.76201 0.60046 0.51967 0.0
O411 O 0.72074 0.72956 0.52628 0.0
O412 O 0.81642 0.62505 0.53777 0.0
O413 O 0.80685 0.74151 0.53323 0.0
O414 O 0.71181 0.66817 0.53848 0.0
O415 O 0.8432 0.68761 0.43751 0.0
O416 O 0.752 0.62051 0.43524 0.0
O417 O 0.72656 0.73303 0.44155 0.0
Sc418 Sc 0.81974 0.28734 -0.00652 0.0
Sc419 Sc 0.72689 0.25332 0.98401 0.0
Sc420 Sc 0.8032 0.19323 0.98415 0.0
O421 O 0.78274 0.24517 0.98833 0.0
C422 C 0.86299 0.23559 0.93897 0.0
C423 C 0.76041 0.31936 0.93388 0.0
C424 C 0.74554 0.18908 0.92238 0.0
C425 C 0.75379 0.31346 0.04653 0.0
C426 C 0.84477 0.22443 0.05338 0.0
C427 C 0.72409 0.17742 0.02401 0.0
O428 O 0.85031 0.26837 0.94457 0.0
O429 O 0.73566 0.29387 0.93959 0.0
O430 O 0.78094 0.19101 0.92845 0.0
O431 O 0.78889 0.30954 0.03986 0.0
O432 O 0.82381 0.19843 0.04017 0.0
O433 O 0.71449 0.21186 0.02747 0.0
O434 O 0.85213 0.25478 0.03507 0.0
O435 O 0.72786 0.29777 0.02681 0.0
O436 O 0.75274 0.16736 0.00493 0.0
O437 O 0.7901 0.32284 0.95394 0.0
O438 O 0.85739 0.20976 0.96284 0.0
O439 O 0.72171 0.2082 0.94186 0.0
Sc440 Sc 0.15179 0.31501 0.48696 0.0
Sc441 Sc 0.21409 0.23724 0.48979 0.0
Sc442 Sc 0.24838 0.32933 0.4936 0.0
O443 O 0.20471 0.29358 0.49028 0.0
C444 C 0.19835 0.36512 0.42937 0.0
C445 C 0.1479 0.2478 0.42914 0.0
C446 C 0.28335 0.26315 0.44268 0.0
C447 C 0.14326 0.24574 0.54377 0.0
C448 C 0.18725 0.37009 0.54563 0.0
C449 C 0.27801 0.26752 0.54721 0.0
O450 O 0.16742 0.35865 0.44667 0.0
O451 O 0.17088 0.22696 0.44741 0.0
O452 O 0.28408 0.29423 0.46035 0.0
O453 O 0.1303 0.27388 0.52571 0.0
O454 O 0.21904 0.36945 0.52887 0.0
O455 O 0.26045 0.24157 0.5295 0.0
O456 O 0.15967 0.34958 0.53598 0.0
O457 O 0.17452 0.22976 0.5357 0.0
O458 O 0.26992 0.30233 0.54342 0.0
O459 O 0.13982 0.28121 0.43893 0.0
O460 O 0.23038 0.35521 0.44219 0.0
O461 O 0.25591 0.24008 0.44524 0.0
Sc462 Sc 0.7983 0.78501 -0.00216 0.0
Sc463 Sc 0.72455 0.72181 -0.00691 0.0
Sc464 Sc 0.81886 0.69068 0.98821 0.0
O465 O 0.78045 0.73204 -0.00738 0.0
C466 C 0.84625 0.7547 0.93067 0.0
C467 C 0.72332 0.79594 0.94913 0.0
C468 C 0.7564 0.66136 0.93294 0.0
C469 C 0.73471 0.78775 0.0547 0.0
C470 C 0.86139 0.74249 0.04458 0.0
C471 C 0.75738 0.65736 0.04555 0.0
O472 O 0.8253 0.78058 0.94421 0.0
O473 O 0.71471 0.76119 0.94753 0.0
O474 O 0.79093 0.66688 0.94073 0.0
O475 O 0.77043 0.78826 0.05094 0.0
O476 O 0.84962 0.70977 0.03689 0.0
O477 O 0.73199 0.68212 0.03883 0.0
O478 O 0.84998 0.77142 0.0269 0.0
O479 O 0.71343 0.76776 0.03342 0.0
O480 O 0.78825 0.65514 0.02699 0.0
O481 O 0.74937 0.80852 0.9703 0.0
O482 O 0.85186 0.72326 0.94753 0.0
O483 O 0.72938 0.67657 0.95153 0.0
Sc484 Sc 0.72401 0.31553 0.48069 0.0
Sc485 Sc 0.76894 0.2295 0.48934 0.0
Sc486 Sc 0.82059 0.31437 0.49246 0.0
O487 O 0.77145 0.28625 0.48809 0.0
C488 C 0.78011 0.36021 0.4291 0.0
C489 C 0.70557 0.25087 0.42828 0.0
C490 C 0.83972 0.24478 0.43825 0.0
C491 C 0.69674 0.24751 0.53315 0.0
C492 C 0.76394 0.35866 0.5465 0.0
C493 C 0.83267 0.24937 0.5504 0.0
O494 O 0.74956 0.35956 0.44787 0.0
O495 O 0.72174 0.22694 0.44977 0.0
O496 O 0.84913 0.2742 0.45666 0.0
O497 O 0.69093 0.27581 0.51202 0.0
O498 O 0.79628 0.35676 0.53038 0.0
O499 O 0.81368 0.22582 0.53091 0.0
O500 O 0.73435 0.34399 0.53245 0.0
O501 O 0.7278 0.22949 0.53408 0.0
O502 O 0.83487 0.28415 0.54238 0.0
O503 O 0.71351 0.2857 0.42956 0.0
O504 O 0.80998 0.34429 0.44064 0.0
O505 O 0.80932 0.22646 0.44416 0.0
Sc506 Sc 0.25142 0.64744 0.48081 0.0
Sc507 Sc 0.216 0.73825 0.49233 0.0
Sc508 Sc 0.15506 0.65924 0.49291 0.0
O509 O 0.20735 0.68197 0.48885 0.0
C510 C 0.19004 0.60987 0.42847 0.0
C511 C 0.27714 0.71222 0.42989 0.0
C512 C 0.14336 0.73123 0.44023 0.0
C513 C 0.28769 0.71054 0.53445 0.0
C514 C 0.20561 0.60902 0.54642 0.0
C515 C 0.15098 0.7234 0.55409 0.0
O516 O 0.22164 0.60838 0.44529 0.0
O517 O 0.26143 0.73699 0.45087 0.0
O518 O 0.13151 0.70183 0.45702 0.0
O519 O 0.28844 0.68127 0.51391 0.0
O520 O 0.17368 0.61444 0.53061 0.0
O521 O 0.17368 0.74521 0.53651 0.0
O522 O 0.23672 0.61923 0.5317 0.0
O523 O 0.25959 0.73309 0.53516 0.0
O524 O 0.14336 0.69028 0.54301 0.0
O525 O 0.26824 0.67751 0.43127 0.0
O526 O 0.16225 0.6284 0.4412 0.0
O527 O 0.17449 0.74754 0.44824 0.0
C528 C 0.04209 0.19981 0.10391 0.0
C529 C 0.04866 0.21635 0.13952 0.0
H530 H 0.05954 0.19484 0.04638 0.0
C531 C 0.07618 0.24475 0.14276 0.0
H532 H 0.02068 0.17833 0.09998 0.0
C533 C 0.09816 0.25472 0.11129 0.0
C534 C 0.09297 0.23604 0.07662 0.0
H535 H 0.08162 0.25821 0.16971 0.0
H536 H 0.1205 0.27535 0.11459 0.0
C537 C 0.06419 0.20932 0.07298 0.0
C538 C 0.18771 0.55783 0.63908 0.0
C539 C 0.21686 0.57319 0.66151 0.0
H540 H 0.16136 0.55675 0.58413 0.0
C541 C 0.23832 0.60316 0.64721 0.0
H542 H 0.17102 0.53434 0.64927 0.0
C543 C 0.23364 0.61489 0.61005 0.0
C544 C 0.20701 0.59732 0.58638 0.0
H545 H 0.26081 0.61563 0.66386 0.0
H546 H 0.25184 0.6371 0.59946 0.0
C547 C 0.18264 0.57006 0.60165 0.0
C548 C 0.88797 0.72456 0.1081 0.0
C549 C 0.8881 0.74812 0.07602 0.0
H550 H 0.90887 0.71574 0.1646 0.0
C551 C 0.9116 0.77979 0.07552 0.0
H552 H 0.86976 0.70004 0.1092 0.0
C553 C 0.93368 0.78859 0.10667 0.0
C554 C 0.93274 0.76617 0.13956 0.0
H555 H 0.91244 0.79833 0.05118 0.0
H556 H 0.95091 0.81378 0.105 0.0
C557 C 0.91003 0.73367 0.13984 0.0
C558 C 0.78107 0.41783 0.63484 0.0
C559 C 0.74823 0.40952 0.65579 0.0
H560 H 0.81185 0.40861 0.58307 0.0
C561 C 0.72314 0.38213 0.64217 0.0
H562 H 0.80057 0.43931 0.64452 0.0
C563 C 0.72899 0.36553 0.60707 0.0
C564 C 0.76024 0.37565 0.5846 0.0
H565 H 0.69765 0.37512 0.65775 0.0
H566 H 0.70827 0.34531 0.5972 0.0
C567 C 0.78715 0.40082 0.59944 0.0
C568 C 0.07092 0.7308 0.84013 0.0
C569 C 0.04721 0.76265 0.8408 0.0
H570 H 0.11134 0.69728 0.87075 0.0
C571 C 0.04407 0.7835 0.87458 0.0
H572 H 0.07372 0.714 0.8147 0.0
C573 C 0.06529 0.77404 0.90619 0.0
C574 C 0.09006 0.74326 0.9052 0.0
H575 H 0.02586 0.80801 0.87656 0.0
H576 H 0.06302 0.79156 0.93121 0.0
C577 C 0.0921 0.72103 0.87226 0.0
C578 C 0.76746 0.58867 0.32349 0.0
C579 C 0.78022 0.55148 0.32036 0.0
H580 H 0.75858 0.63554 0.36054 0.0
C581 C 0.80005 0.53491 0.35055 0.0
H582 H 0.75127 0.60151 0.30087 0.0
C583 C 0.80447 0.55438 0.38466 0.0
C584 C 0.78805 0.59006 0.38901 0.0
H585 H 0.80922 0.50579 0.34884 0.0
H586 H 0.81766 0.54033 0.40846 0.0
C587 C 0.77108 0.60776 0.35775 0.0
C588 C 0.89169 0.17794 0.85445 0.0
C589 C 0.90874 0.205 0.83096 0.0
H590 H 0.86507 0.16633 0.90722 0.0
C591 C 0.90923 0.24293 0.84265 0.0
H592 H 0.89051 0.1485 0.84636 0.0
C593 C 0.89442 0.2532 0.87788 0.0
C594 C 0.87947 0.22561 0.90209 0.0
H595 H 0.92219 0.26447 0.82524 0.0
H596 H 0.89544 0.28249 0.88651 0.0
C597 C 0.87759 0.18806 0.8897 0.0
C598 C 0.22632 0.38563 0.32876 0.0
C599 C 0.20444 0.41749 0.32057 0.0
H600 H 0.24172 0.34454 0.37013 0.0
C601 C 0.17696 0.42959 0.34671 0.0
H602 H 0.24844 0.37657 0.30951 0.0
C603 C 0.17307 0.41131 0.38166 0.0
C604 C 0.19753 0.38159 0.39111 0.0
H605 H 0.16068 0.45493 0.34135 0.0
H606 H 0.15301 0.42209 0.40218 0.0
C607 C 0.22304 0.36796 0.36378 0.0
C608 C 0.14641 0.04692 0.26023 0.0
C609 C 0.16616 0.05348 0.22638 0.0
H610 H 0.09373 0.05294 0.29003 0.0
C611 C 0.14869 0.07388 0.19735 0.0
H612 H 0.15912 0.03034 0.2826 0.0
C613 C 0.11145 0.08588 0.20106 0.0
C614 C 0.09059 0.07771 0.23398 0.0
H615 H 0.16325 0.07878 0.17079 0.0
H616 H 0.09886 0.10092 0.17757 0.0
C617 C 0.10879 0.05905 0.26405 0.0
C618 C 0.40445 0.63874 0.7546 0.0
C619 C 0.39964 0.65506 0.71861 0.0
H620 H 0.39326 0.59089 0.79018 0.0
C621 C 0.37602 0.63717 0.69222 0.0
H622 H 0.42257 0.65182 0.77551 0.0
C623 C 0.36053 0.60212 0.70016 0.0
C624 C 0.36759 0.58448 0.73496 0.0
H625 H 0.37125 0.6492 0.66445 0.0
H626 H 0.34347 0.5885 0.67868 0.0
C627 C 0.38821 0.6037 0.76283 0.0
C628 C 0.87 0.88999 0.206 0.0
C629 C 0.89119 0.899 0.23846 0.0
H630 H 0.81816 0.89676 0.17582 0.0
C631 C 0.87335 0.91882 0.26805 0.0
H632 H 0.88226 0.87398 0.18293 0.0
C633 C 0.83586 0.93137 0.26404 0.0
C634 C 0.81585 0.92402 0.23051 0.0
H635 H 0.88867 0.92567 0.29366 0.0
H636 H 0.82347 0.94885 0.28593 0.0
C637 C 0.83292 0.90238 0.2021 0.0
C638 C 0.58892 0.39231 0.69731 0.0
C639 C 0.59837 0.39877 0.73529 0.0
H640 H 0.5626 0.35634 0.65725 0.0
C641 C 0.58925 0.37126 0.76254 0.0
H642 H 0.5963 0.41226 0.67531 0.0
C643 C 0.56959 0.33855 0.75192 0.0
C644 C 0.55909 0.3332 0.71399 0.0
H645 H 0.59677 0.37524 0.79196 0.0
H646 H 0.56153 0.31828 0.77336 0.0
C647 C 0.56975 0.35999 0.68684 0.0
C648 C 0.1449 0.92482 0.71345 0.0
C649 C 0.16682 0.91138 0.74387 0.0
H650 H 0.08989 0.92685 0.68768 0.0
C651 C 0.15055 0.88607 0.76957 0.0
H652 H 0.15663 0.94463 0.69332 0.0
C653 C 0.11248 0.87677 0.76689 0.0
C654 C 0.0897 0.89226 0.7382 0.0
H655 H 0.16675 0.87503 0.79312 0.0
H656 H 0.10082 0.85781 0.7879 0.0
C657 C 0.10655 0.91523 0.71058 0.0
C658 C 0.61142 0.63827 0.30136 0.0
C659 C 0.58702 0.65481 0.27478 0.0
H660 H 0.64637 0.59137 0.31548 0.0
C661 C 0.58184 0.63698 0.2396 0.0
H662 H 0.61618 0.65133 0.32866 0.0
C663 C 0.59881 0.60216 0.23215 0.0
C664 C 0.62142 0.58459 0.25966 0.0
H665 H 0.56307 0.64886 0.21853 0.0
H666 H 0.59345 0.58867 0.2052 0.0
C667 C 0.62841 0.6036 0.2939 0.0
C668 C 0.82716 0.06327 0.71854 0.0
C669 C 0.81564 0.06044 0.75658 0.0
H670 H 0.87307 0.07288 0.67998 0.0
C671 C 0.84235 0.06725 0.78522 0.0
H672 H 0.80738 0.05807 0.69575 0.0
C673 C 0.88002 0.07437 0.77617 0.0
C674 C 0.89187 0.07569 0.73825 0.0
H675 H 0.83469 0.0653 0.81484 0.0
H676 H 0.89985 0.07899 0.79906 0.0
C677 C 0.86489 0.07112 0.70947 0.0
C678 C 0.4001 0.34178 0.24477 0.0
C679 C 0.39674 0.32544 0.28088 0.0
H680 H 0.38702 0.38866 0.20905 0.0
C681 C 0.37461 0.34376 0.30835 0.0
H682 H 0.41713 0.32858 0.22297 0.0
C683 C 0.35776 0.37845 0.3005 0.0
C684 C 0.36262 0.3957 0.26498 0.0
H685 H 0.37136 0.33199 0.33644 0.0
H686 H 0.34136 0.39194 0.32259 0.0
C687 C 0.38331 0.37657 0.23694 0.0
C688 C 0.29196 0.13439 0.0584 0.0
C689 C 0.26145 0.1558 0.07261 0.0
H690 H 0.32114 0.081 0.05976 0.0
C691 C 0.24015 0.14151 0.1028 0.0
H692 H 0.30855 0.1446 0.03475 0.0
C693 C 0.24656 0.10523 0.11604 0.0
C694 C 0.27474 0.08242 0.09975 0.0
H695 H 0.21664 0.15742 0.11442 0.0
H696 H 0.22854 0.09455 0.13842 0.0
C697 C 0.29876 0.09784 0.07216 0.0
C698 C 0.22969 0.8353 0.87477 0.0
C699 C 0.25547 0.81558 0.89763 0.0
H700 H 0.21612 0.88679 0.84707 0.0
C701 C 0.29105 0.83191 0.90513 0.0
H702 H 0.20222 0.82351 0.86801 0.0
C703 C 0.29934 0.86843 0.89223 0.0
C704 C 0.27175 0.88917 0.87266 0.0
H705 H 0.31146 0.81756 0.92288 0.0
H706 H 0.32634 0.88108 0.89917 0.0
C707 C 0.23745 0.87182 0.8631 0.0
C708 C 0.61383 0.76981 0.41127 0.0
C709 C 0.58714 0.74118 0.40438 0.0
H710 H 0.67104 0.78275 0.42741 0.0
C711 C 0.59926 0.70354 0.40357 0.0
H712 H 0.60533 0.79915 0.41125 0.0
C713 C 0.6367 0.69444 0.41093 0.0
C714 C 0.66295 0.72258 0.42052 0.0
H715 H 0.57979 0.68083 0.39721 0.0
H716 H 0.64467 0.66492 0.41099 0.0
C717 C 0.65152 0.76053 0.41967 0.0
C718 C 0.75901 0.12948 0.88819 0.0
C719 C 0.73214 0.15557 0.9015 0.0
H720 H 0.76986 0.07364 0.86916 0.0
C721 C 0.69358 0.14552 0.90123 0.0
H722 H 0.78893 0.13613 0.88759 0.0
C723 C 0.68253 0.10934 0.88979 0.0
C724 C 0.70999 0.0826 0.87953 0.0
H725 H 0.67216 0.16492 0.91137 0.0
H726 H 0.65281 0.10188 0.89025 0.0
C727 C 0.74814 0.09331 0.87807 0.0
C728 C 0.32963 0.21404 0.42067 0.0
C729 C 0.31905 0.25209 0.42416 0.0
H730 H 0.37491 0.17507 0.40965 0.0
C731 C 0.346 0.28025 0.4168 0.0
H732 H 0.30955 0.19175 0.42656 0.0
C733 C 0.38327 0.27083 0.40888 0.0
C734 C 0.39445 0.23294 0.40698 0.0
H735 H 0.33873 0.30987 0.41887 0.0
H736 H 0.4033 0.29345 0.40413 0.0
C737 C 0.36711 0.20453 0.41179 0.0
C738 C 0.68818 0.84036 0.06316 0.0
C739 C 0.71859 0.8188 0.07723 0.0
H740 H 0.65953 0.89403 0.06437 0.0
C741 C 0.73994 0.83292 0.10744 0.0
H742 H 0.6715 0.83022 0.03957 0.0
C743 C 0.73383 0.86928 0.12063 0.0
C744 C 0.70594 0.89232 0.10426 0.0
H745 H 0.76338 0.81686 0.11895 0.0
H746 H 0.752 0.8799 0.14291 0.0
C747 C 0.68172 0.877 0.07682 0.0
C748 C 0.61508 0.25932 0.59653 0.0
C749 C 0.58925 0.23374 0.58048 0.0
H750 H 0.67094 0.28222 0.5949 0.0
C751 C 0.60229 0.20707 0.55413 0.0
H752 H 0.60622 0.27955 0.61775 0.0
C753 C 0.63985 0.20832 0.54164 0.0
C754 C 0.66461 0.23577 0.5559 0.0
H755 H 0.5831 0.1867 0.54179 0.0
H756 H 0.6487 0.18988 0.51885 0.0
C757 C 0.65239 0.26033 0.58428 0.0
C758 C 0.33573 0.75658 0.55908 0.0
C759 C 0.32328 0.71932 0.55429 0.0
H760 H 0.38217 0.79272 0.57377 0.0
C761 C 0.34824 0.68953 0.56241 0.0
H762 H 0.31724 0.78005 0.55249 0.0
C763 C 0.38532 0.69662 0.57327 0.0
C764 C 0.39843 0.73376 0.57687 0.0
H765 H 0.33943 0.66045 0.55917 0.0
H766 H 0.40362 0.67279 0.57907 0.0
C767 C 0.37306 0.76376 0.57047 0.0
C768 C 0.88628 0.73355 0.87585 0.0
C769 C 0.86341 0.76112 0.89303 0.0
H770 H 0.92171 0.71921 0.82895 0.0
C771 C 0.85569 0.79462 0.87316 0.0
H772 H 0.8922 0.70713 0.89002 0.0
C773 C 0.87211 0.80131 0.83796 0.0
C774 C 0.8967 0.7747 0.82174 0.0
H775 H 0.83749 0.81618 0.88506 0.0
H776 H 0.86676 0.82808 0.82421 0.0
C777 C 0.90271 0.74024 0.84052 0.0
C778 C 0.8031 0.39743 0.37288 0.0
C779 C 0.77752 0.37207 0.3894 0.0
H780 H 0.81417 0.43333 0.32521 0.0
C781 C 0.74773 0.35755 0.36767 0.0
H782 H 0.82667 0.4084 0.38905 0.0
C783 C 0.74144 0.37044 0.33119 0.0
C784 C 0.76425 0.39893 0.31591 0.0
H785 H 0.72827 0.33713 0.37941 0.0
H786 H 0.71676 0.36033 0.3161 0.0
C787 C 0.7963 0.41111 0.33623 0.0
C788 C 0.08669 0.17946 0.8479 0.0
C789 C 0.06672 0.20875 0.83038 0.0
H790 H 0.12163 0.16252 0.89373 0.0
C791 C 0.06876 0.24536 0.84511 0.0
H792 H 0.08515 0.15091 0.83706 0.0
C793 C 0.0892 0.25208 0.87836 0.0
C794 C 0.10789 0.22223 0.89688 0.0
H795 H 0.05295 0.26815 0.83221 0.0
H796 H 0.08974 0.28036 0.88989 0.0
C797 C 0.10721 0.1861 0.88064 0.0
C798 C 0.22152 0.60595 0.32791 0.0
C799 C 0.20512 0.57224 0.31552 0.0
H800 H 0.22892 0.64414 0.37394 0.0
C801 C 0.17791 0.55424 0.33841 0.0
H802 H 0.24266 0.62016 0.31086 0.0
C803 C 0.17051 0.56766 0.37499 0.0
C804 C 0.19013 0.59918 0.38849 0.0
H805 H 0.16534 0.52782 0.3296 0.0
H806 H 0.15182 0.55196 0.39348 0.0
C807 C 0.21404 0.61932 0.36411 0.0
C808 C 0.88621 0.24516 0.10716 0.0
C809 C 0.8615 0.21854 0.09122 0.0
H810 H 0.92444 0.25786 0.15223 0.0
C811 C 0.85262 0.18584 0.11191 0.0
H812 H 0.89307 0.27097 0.09231 0.0
C813 C 0.87017 0.17856 0.14637 0.0
C814 C 0.89699 0.2038 0.16096 0.0
H815 H 0.83298 0.1651 0.10099 0.0
H816 H 0.86417 0.15218 0.1606 0.0
C817 C 0.90375 0.23789 0.1418 0.0
C818 C 0.18872 0.39459 0.64878 0.0
C819 C 0.2025 0.4316 0.64673 0.0
H820 H 0.17207 0.34569 0.61698 0.0
C821 C 0.203 0.45018 0.61151 0.0
H822 H 0.18803 0.37974 0.67554 0.0
C823 C 0.1946 0.43081 0.57844 0.0
C824 C 0.18448 0.39284 0.58004 0.0
H825 H 0.21274 0.47905 0.60915 0.0
H826 H 0.19844 0.44478 0.55144 0.0
C827 C 0.17959 0.37525 0.61539 0.0
C828 C 0.12514 0.79695 0.10439 0.0
C829 C 0.11917 0.76189 0.08672 0.0
H830 H 0.11235 0.83288 0.15117 0.0
C831 C 0.09791 0.73434 0.10575 0.0
H832 H 0.14201 0.81864 0.09098 0.0
C833 C 0.08126 0.74242 0.14069 0.0
C834 C 0.08537 0.77828 0.15721 0.0
H835 H 0.09338 0.70681 0.09331 0.0
H836 H 0.06353 0.72115 0.1537 0.0
C837 C 0.10845 0.80504 0.1392 0.0
C838 C 0.79668 0.56477 0.6439 0.0
C839 C 0.75871 0.56695 0.65576 0.0
H840 H 0.83616 0.57538 0.59849 0.0
C841 C 0.73224 0.58515 0.6325 0.0
H842 H 0.81752 0.55043 0.66114 0.0
C843 C 0.74222 0.59707 0.59657 0.0
C844 C 0.77937 0.59278 0.58336 0.0
H845 H 0.70282 0.58749 0.64096 0.0
H846 H 0.72036 0.60886 0.57873 0.0
C847 C 0.80712 0.57825 0.6079 0.0
C848 C 0.84108 0.90633 0.7732 0.0
C849 C 0.81624 0.91869 0.74478 0.0
H850 H 0.8971 0.89047 0.788 0.0
C851 C 0.82885 0.91938 0.70707 0.0
H852 H 0.83213 0.90516 0.80252 0.0
C853 C 0.86656 0.91 0.69851 0.0
C854 C 0.89203 0.9009 0.72773 0.0
H855 H 0.81042 0.92927 0.6847 0.0
H856 H 0.87616 0.91131 0.66943 0.0
C857 C 0.87857 0.89837 0.76493 0.0
C858 C 0.57132 0.33988 0.23278 0.0
C859 C 0.54926 0.34033 0.2659 0.0
H860 H 0.61131 0.36997 0.19825 0.0
C861 C 0.54924 0.37303 0.28854 0.0
H862 H 0.57177 0.31526 0.21466 0.0
C863 C 0.57155 0.40383 0.27931 0.0
C864 C 0.5944 0.40316 0.24698 0.0
H865 H 0.53255 0.37479 0.3142 0.0
H866 H 0.57143 0.42802 0.29803 0.0
C867 C 0.59361 0.37126 0.22325 0.0
C868 C 0.14145 0.04091 0.7082 0.0
C869 C 0.16622 0.05688 0.7348 0.0
H870 H 0.08434 0.03864 0.68747 0.0
C871 C 0.15379 0.08625 0.75798 0.0
H872 H 0.15052 0.0174 0.69083 0.0
C873 C 0.11623 0.09759 0.75681 0.0
C874 C 0.09035 0.07956 0.73258 0.0
H875 H 0.17235 0.09826 0.7792 0.0
H876 H 0.10718 0.11959 0.77607 0.0
C877 C 0.10358 0.05243 0.70687 0.0
C878 C 0.38893 0.60521 0.22177 0.0
C879 C 0.38198 0.57809 0.25007 0.0
H880 H 0.4174 0.65696 0.20726 0.0
C881 C 0.39882 0.58252 0.28564 0.0
H882 H 0.37588 0.60267 0.19418 0.0
C883 C 0.42208 0.61308 0.29295 0.0
C884 C 0.42921 0.64031 0.26498 0.0
H885 H 0.39403 0.56231 0.30812 0.0
H886 H 0.43438 0.61543 0.32093 0.0
C887 C 0.41224 0.6364 0.2293 0.0
C888 C 0.84345 0.07072 0.19719 0.0
C889 C 0.81631 0.06575 0.22587 0.0
H890 H 0.90162 0.07844 0.18322 0.0
C891 C 0.82803 0.0677 0.26388 0.0
H892 H 0.83569 0.06916 0.1676 0.0
C893 C 0.86621 0.07311 0.27288 0.0
C894 C 0.89346 0.07598 0.24405 0.0
H895 H 0.80792 0.06373 0.28668 0.0
H896 H 0.87449 0.07432 0.30235 0.0
C897 C 0.88153 0.07529 0.20616 0.0
C898 C 0.40766 0.34489 0.73826 0.0
C899 C 0.40148 0.32566 0.70405 0.0
H900 H 0.39563 0.39398 0.77147 0.0
C901 C 0.37554 0.34048 0.67792 0.0
H902 H 0.42776 0.33434 0.75882 0.0
C903 C 0.35771 0.37478 0.68483 0.0
C904 C 0.36528 0.39511 0.71812 0.0
H905 H 0.37004 0.32626 0.65135 0.0
H906 H 0.33841 0.38556 0.66364 0.0
C907 C 0.38972 0.37936 0.74523 0.0
C908 C 0.15462 0.91002 0.2645 0.0
C909 C 0.16565 0.91245 0.22629 0.0
H910 H 0.10881 0.90315 0.30382 0.0
C911 C 0.13786 0.90861 0.19812 0.0
H912 H 0.17525 0.91321 0.28691 0.0
C913 C 0.09989 0.90446 0.20782 0.0
C914 C 0.08867 0.90297 0.24593 0.0
H915 H 0.14505 0.91073 0.16841 0.0
H916 H 0.07932 0.90216 0.18523 0.0
C917 C 0.11652 0.90492 0.27422 0.0
C918 C 0.59344 0.6484 0.7339 0.0
C919 C 0.55414 0.64536 0.73745 0.0
H920 H 0.64626 0.61879 0.73456 0.0
C921 C 0.53788 0.61153 0.7501 0.0
H922 H 0.60626 0.67418 0.7236 0.0
C923 C 0.56067 0.58021 0.75709 0.0
C924 C 0.59963 0.58232 0.75022 0.0
H925 H 0.50742 0.60882 0.75256 0.0
H926 H 0.54761 0.55374 0.76501 0.0
C927 C 0.6161 0.6168 0.73979 0.0
C928 C 0.6816 0.88776 0.91938 0.0
C929 C 0.6968 0.89058 0.88289 0.0
H930 H 0.67807 0.854 0.96958 0.0
C931 C 0.71324 0.85863 0.86594 0.0
H932 H 0.66892 0.91209 0.93295 0.0
C933 C 0.71731 0.8252 0.88632 0.0
C934 C 0.70557 0.82357 0.92408 0.0
H935 H 0.72491 0.86021 0.83762 0.0
H936 H 0.73289 0.802 0.87381 0.0
C937 C 0.68651 0.85453 0.94011 0.0
C938 C 0.7036 0.11099 0.02491 0.0
C939 C 0.70325 0.14661 0.04254 0.0
H940 H 0.70003 0.05122 0.03239 0.0
C941 C 0.69039 0.14968 0.07995 0.0
H942 H 0.71289 0.10794 -0.00418 0.0
C943 C 0.68219 0.11695 0.10061 0.0
C944 C 0.68706 0.08125 0.08394 0.0
H945 H 0.69007 0.17674 0.09415 0.0
H946 H 0.67545 0.11937 0.13043 0.0
C947 C 0.69615 0.07852 0.04562 0.0
C948 C 0.38064 0.27565 0.57437 0.0
C949 C 0.39137 0.23761 0.57756 0.0
H950 H 0.33616 0.31507 0.5644 0.0
C951 C 0.36329 0.20967 0.57559 0.0
H952 H 0.40137 0.29799 0.57683 0.0
C953 C 0.32558 0.21952 0.56859 0.0
C954 C 0.31509 0.25755 0.56399 0.0
H955 H 0.37055 0.18017 0.57876 0.0
H956 H 0.30488 0.19723 0.56544 0.0
C957 C 0.34297 0.28551 0.56805 0.0
C958 C 0.29037 0.82501 0.07955 0.0
C959 C 0.27867 0.82806 0.04178 0.0
H960 H 0.30446 0.85536 0.13025 0.0
C961 C 0.27958 0.86354 0.02394 0.0
H962 H 0.28972 0.79805 0.09391 0.0
C963 C 0.28734 0.89598 0.04461 0.0
C964 C 0.29531 0.89336 0.08318 0.0
H965 H 0.27121 0.86657 -0.0054 0.0
H966 H 0.28449 0.92326 0.03111 0.0
C967 C 0.29871 0.8577 0.10023 0.0
C968 C 0.6488 0.74535 0.55739 0.0
C969 C 0.66841 0.71146 0.56434 0.0
H970 H 0.59697 0.77622 0.56363 0.0
C971 C 0.65053 0.68319 0.58559 0.0
H972 H 0.66155 0.76757 0.5407 0.0
C973 C 0.61341 0.68789 0.59807 0.0
C974 C 0.5931 0.72104 0.58973 0.0
H975 H 0.66473 0.65676 0.59147 0.0
H976 H 0.60056 0.66515 0.61397 0.0
C977 C 0.6115 0.75008 0.56994 0.0
C978 C 0.29122 0.12461 0.92881 0.0
C979 C 0.26513 0.15201 0.91682 0.0
H980 H 0.31369 0.06899 0.91976 0.0
C981 C 0.24372 0.14567 0.88418 0.0
H982 H 0.30705 0.12859 0.95474 0.0
C983 C 0.24647 0.11142 0.8651 0.0
C984 C 0.27084 0.08292 0.87825 0.0
H985 H 0.22264 0.16601 0.87518 0.0
H986 H 0.22841 0.10675 0.84079 0.0
C987 C 0.2945 0.09039 0.90925 0.0
C988 C 0.33398 0.75386 0.42273 0.0
C989 C 0.31337 0.72182 0.41127 0.0
H990 H 0.38761 0.78223 0.42296 0.0
C991 C 0.33111 0.69511 0.38796 0.0
H992 H 0.32128 0.77488 0.44101 0.0
C993 C 0.36914 0.69892 0.37846 0.0
C994 C 0.39047 0.72971 0.39175 0.0
H995 H 0.31611 0.6702 0.37851 0.0
H996 H 0.38188 0.67723 0.361 0.0
C997 C 0.3722 0.7578 0.41299 0.0
C998 C 0.60794 0.21023 0.41679 0.0
C999 C 0.59167 0.23732 0.39284 0.0
H1000 H 0.65787 0.19256 0.44621 0.0
C1001 C 0.61521 0.26416 0.3754 0.0
H1002 H 0.59063 0.18871 0.42992 0.0
C1003 C 0.65355 0.26581 0.38387 0.0
C1004 C 0.66931 0.24091 0.4103 0.0
H1005 H 0.6039 0.28462 0.35564 0.0
H1006 H 0.67038 0.28813 0.37144 0.0
C1007 C 0.64655 0.21207 0.42555 0.0
C1008 C 0.11101 0.25792 0.37011 0.0
C1009 C 0.12854 0.23285 0.39546 0.0
H1010 H 0.07399 0.26458 0.323 0.0
C1011 C 0.12543 0.19393 0.38929 0.0
H1012 H 0.11365 0.28815 0.37357 0.0
C1013 C 0.10267 0.18036 0.36006 0.0
C1014 C 0.08279 0.20552 0.33648 0.0
H1015 H 0.13901 0.17398 0.4081 0.0
H1016 H 0.09928 0.15015 0.35714 0.0
C1017 C 0.08846 0.24441 0.34087 0.0
C1018 C 0.26649 0.61402 0.89609 0.0
C1019 C 0.22951 0.62416 0.90631 0.0
H1020 H 0.30161 0.5781 0.86259 0.0
C1021 C 0.19879 0.6057 0.88905 0.0
H1022 H 0.29068 0.62768 0.90897 0.0
C1023 C 0.20501 0.57755 0.86208 0.0
C1024 C 0.24205 0.56685 0.85254 0.0
H1025 H 0.16993 0.61317 0.89624 0.0
H1026 H 0.18091 0.56375 0.8492 0.0
C1027 C 0.2727 0.58543 0.86973 0.0
C1028 C 0.90118 0.72705 0.34299 0.0
C1029 C 0.90399 0.76616 0.33759 0.0
H1030 H 0.87754 0.68228 0.37563 0.0
C1031 C 0.88131 0.79028 0.35969 0.0
H1032 H 0.91808 0.70764 0.32639 0.0
C1033 C 0.85804 0.77572 0.38807 0.0
C1034 C 0.85715 0.73677 0.39504 0.0
H1035 H 0.8825 0.82057 0.35603 0.0
H1036 H 0.84195 0.79512 0.40547 0.0
C1037 C 0.87811 0.71253 0.37147 0.0
C1038 C 0.7116 0.37688 0.85869 0.0
C1039 C 0.7408 0.40077 0.84634 0.0
H1040 H 0.69487 0.3325 0.89576 0.0
C1041 C 0.77731 0.39622 0.86112 0.0
H1042 H 0.6832 0.37966 0.84744 0.0
C1043 C 0.78393 0.36939 0.88939 0.0
C1044 C 0.75424 0.34643 0.90276 0.0
H1045 H 0.80018 0.41445 0.85211 0.0
H1046 H 0.81214 0.36701 0.90112 0.0
C1047 C 0.71827 0.34987 0.88639 0.0
C1048 C 0.10982 0.71208 0.61041 0.0
C1049 C 0.13039 0.7374 0.58764 0.0
H1050 H 0.06882 0.7052 0.65431 0.0
C1051 C 0.12858 0.77608 0.59565 0.0
H1052 H 0.11119 0.68197 0.60548 0.0
C1053 C 0.10432 0.78938 0.62383 0.0
C1054 C 0.0815 0.76423 0.64458 0.0
H1055 H 0.14439 0.79625 0.57894 0.0
H1056 H 0.10222 0.81955 0.62813 0.0
C1057 C 0.08567 0.72535 0.63863 0.0
C1058 C 0.77335 0.57728 0.11489 0.0
C1059 C 0.73748 0.57394 0.13161 0.0
H1060 H 0.80776 0.60611 0.07445 0.0
C1061 C 0.7088 0.59946 0.12113 0.0
H1062 H 0.79602 0.5581 0.12235 0.0
C1063 C 0.71543 0.62694 0.09375 0.0
C1064 C 0.75087 0.62949 0.07601 0.0
H1065 H 0.68087 0.59794 0.13373 0.0
H1066 H 0.69249 0.64568 0.08601 0.0
C1067 C 0.77994 0.60469 0.08727 0.0
C1068 C 0.87009 0.26098 0.60904 0.0
C1069 C 0.85533 0.23554 0.58234 0.0
H1070 H 0.90705 0.26883 0.6563 0.0
C1071 C 0.86448 0.19717 0.58502 0.0
H1072 H 0.86309 0.2907 0.60792 0.0
C1073 C 0.88974 0.18481 0.61249 0.0
C1074 C 0.90596 0.21052 0.63798 0.0
H1075 H 0.85339 0.17689 0.56498 0.0
H1076 H 0.89724 0.15519 0.61319 0.0
C1077 C 0.89507 0.24851 0.63683 0.0
C1078 C 0.27835 0.37832 0.11766 0.0
C1079 C 0.2484 0.4008 0.13137 0.0
H1080 H 0.2957 0.33485 0.07918 0.0
C1081 C 0.21186 0.39495 0.11712 0.0
H1082 H 0.30688 0.38191 0.12824 0.0
C1083 C 0.2056 0.36821 0.08892 0.0
C1084 C 0.23567 0.34644 0.07442 0.0
H1085 H 0.18816 0.41164 0.12705 0.0
H1086 H 0.17705 0.36486 0.07829 0.0
C1087 C 0.27202 0.35129 0.08957 0.0
C1088 C 0.3708 0.10349 0.219 0.0
C1089 C 0.35796 0.07551 0.24412 0.0
H1090 H 0.40505 0.15259 0.21126 0.0
C1091 C 0.36826 0.0775 0.28233 0.0
H1092 H 0.3629 0.10286 0.18939 0.0
C1093 C 0.39281 0.10576 0.29473 0.0
C1094 C 0.40691 0.13284 0.26923 0.0
H1095 H 0.35873 0.05632 0.30225 0.0
H1096 H 0.4013 0.10599 0.32417 0.0
C1097 C 0.39481 0.13206 0.23149 0.0
C1098 C 0.38038 0.88146 0.75861 0.0
C1099 C 0.36195 0.9035 0.73133 0.0
H1100 H 0.41873 0.83623 0.76928 0.0
C1101 C 0.36766 0.89604 0.69278 0.0
H1102 H 0.37604 0.88656 0.78854 0.0
C1103 C 0.39271 0.8676 0.68171 0.0
C1104 C 0.41137 0.84579 0.70913 0.0
H1105 H 0.35364 0.91281 0.67136 0.0
H1106 H 0.39747 0.86264 0.65184 0.0
C1107 C 0.40455 0.85257 0.74762 0.0
C1108 C 0.61127 0.90202 0.28547 0.0
C1109 C 0.62426 0.90274 0.24801 0.0
H1110 H 0.57567 0.87447 0.32592 0.0
C1111 C 0.61373 0.87365 0.22314 0.0
H1112 H 0.61897 0.92416 0.30511 0.0
C1113 C 0.58927 0.84524 0.23492 0.0
C1114 C 0.57441 0.84559 0.2717 0.0
H1115 H 0.62373 0.87336 0.19415 0.0
H1116 H 0.58094 0.82384 0.21472 0.0
C1117 C 0.58627 0.87378 0.29716 0.0
C1118 C 0.59657 0.09566 0.76042 0.0
C1119 C 0.6215 0.07745 0.73527 0.0
H1120 H 0.55409 0.13791 0.76802 0.0
C1121 C 0.62426 0.09056 0.69793 0.0
H1122 H 0.59427 0.08665 0.78962 0.0
C1123 C 0.60101 0.11999 0.68549 0.0
C1124 C 0.57503 0.13721 0.71034 0.0
H1125 H 0.6434 0.07729 0.67801 0.0
H1126 H 0.60277 0.12865 0.65615 0.0
C1127 C 0.5738 0.12536 0.74818 0.0
C1128 C 0.87921 0.713 0.59649 0.0
C1129 C 0.86063 0.73928 0.57324 0.0
H1130 H 0.91808 0.7043 0.64206 0.0
C1131 C 0.86567 0.7779 0.57963 0.0
H1132 H 0.87536 0.68299 0.59221 0.0
C1133 C 0.89069 0.79003 0.60764 0.0
C1134 C 0.91015 0.76367 0.63016 0.0
H1135 H 0.85157 0.79855 0.562 0.0
H1136 H 0.89517 0.82001 0.61142 0.0
C1137 C 0.90345 0.7251 0.62504 0.0
C1138 C 0.77068 0.34825 0.10508 0.0
C1139 C 0.74367 0.33974 0.07718 0.0
H1140 H 0.78608 0.38329 0.15153 0.0
C1141 C 0.70923 0.35941 0.07684 0.0
H1142 H 0.79738 0.33323 0.10634 0.0
C1143 C 0.7028 0.38848 0.10278 0.0
C1144 C 0.73066 0.39815 0.12957 0.0
H1145 H 0.68799 0.35349 0.05558 0.0
H1146 H 0.67635 0.40386 0.10126 0.0
C1147 C 0.76425 0.37707 0.13097 0.0
C1148 C 0.0741 0.24551 0.625 0.0
C1149 C 0.07519 0.20772 0.63659 0.0
H1150 H 0.09456 0.28689 0.58633 0.0
C1151 C 0.10082 0.18282 0.619 0.0
H1152 H 0.05469 0.26538 0.63791 0.0
C1153 C 0.12388 0.19523 0.58939 0.0
C1154 C 0.1212 0.23254 0.57655 0.0
H1155 H 0.10244 0.15354 0.62754 0.0
H1156 H 0.14281 0.17537 0.57577 0.0
C1157 C 0.09667 0.25771 0.59514 0.0
C1158 C 0.27773 0.58818 0.10601 0.0
C1159 C 0.24856 0.57621 0.13046 0.0
H1160 H 0.29409 0.62503 0.0608 0.0
C1161 C 0.21363 0.59501 0.12936 0.0
H1162 H 0.30521 0.57464 0.10639 0.0
C1163 C 0.20745 0.62396 0.10345 0.0
C1164 C 0.23604 0.63494 0.07797 0.0
H1165 H 0.19068 0.58694 0.14801 0.0
H1166 H 0.1798 0.63719 0.10285 0.0
C1167 C 0.27155 0.61732 0.08008 0.0
C1168 C 0.88597 0.2584 0.38708 0.0
C1169 C 0.86516 0.23197 0.40809 0.0
H1170 H 0.92629 0.26729 0.34273 0.0
C1171 C 0.8689 0.19344 0.40004 0.0
H1172 H 0.8832 0.28833 0.39259 0.0
C1173 C 0.89399 0.18144 0.37206 0.0
C1174 C 0.91488 0.20788 0.35113 0.0
H1175 H 0.85309 0.1726 0.41591 0.0
H1176 H 0.89694 0.15151 0.36666 0.0
C1177 C 0.91033 0.24645 0.35846 0.0
C1178 C 0.20314 0.3564 0.87751 0.0
C1179 C 0.23336 0.33959 0.89739 0.0
H1180 H 0.18605 0.3963 0.83557 0.0
C1181 C 0.27057 0.34841 0.88697 0.0
H1182 H 0.174 0.34986 0.88438 0.0
C1183 C 0.2774 0.37495 0.85866 0.0
C1184 C 0.24714 0.39332 0.84027 0.0
H1185 H 0.29443 0.33574 0.90139 0.0
H1186 H 0.30652 0.38192 0.85213 0.0
C1187 C 0.20996 0.383 0.84933 0.0
C1188 C 0.10214 0.71869 0.38482 0.0
C1189 C 0.1205 0.74493 0.4083 0.0
H1190 H 0.06438 0.70996 0.33832 0.0
C1191 C 0.11588 0.78355 0.40141 0.0
H1192 H 0.10572 0.68867 0.38928 0.0
C1193 C 0.09167 0.7957 0.3726 0.0
C1194 C 0.07261 0.76938 0.34969 0.0
H1195 H 0.12988 0.80424 0.41906 0.0
H1196 H 0.08756 0.82569 0.36845 0.0
C1197 C 0.07875 0.73079 0.35549 0.0
C1198 C 0.70316 0.59511 0.86832 0.0
C1199 C 0.73291 0.57711 0.84872 0.0
H1200 H 0.68708 0.63582 0.90997 0.0
C1201 C 0.77016 0.58906 0.85512 0.0
H1202 H 0.67396 0.58701 0.86379 0.0
C1203 C 0.7776 0.61729 0.88163 0.0
C1204 C 0.74793 0.6342 0.90232 0.0
H1205 H 0.79367 0.57602 0.84038 0.0
H1206 H 0.80679 0.62521 0.88646 0.0
C1207 C 0.71058 0.62329 0.89479 0.0
C1208 C 0.59862 0.85924 0.68762 0.0
C1209 C 0.57785 0.83749 0.7137 0.0
H1210 H 0.63588 0.90604 0.6793 0.0
C1211 C 0.58176 0.84477 0.75249 0.0
H1212 H 0.59646 0.85417 0.65749 0.0
C1213 C 0.60415 0.87451 0.76486 0.0
C1214 C 0.62324 0.89759 0.73874 0.0
H1215 H 0.56647 0.8284 0.77336 0.0
H1216 H 0.6058 0.87984 0.79499 0.0
C1217 C 0.62116 0.88902 0.70006 0.0
C1218 C 0.57307 0.12955 0.22883 0.0
C1219 C 0.57606 0.14346 0.26582 0.0
H1220 H 0.59185 0.08854 0.18878 0.0
C1221 C 0.60373 0.12837 0.29011 0.0
H1222 H 0.55196 0.14053 0.20954 0.0
C1223 C 0.62654 0.09847 0.27832 0.0
C1224 C 0.62179 0.08289 0.24217 0.0
H1225 H 0.60684 0.13878 0.31876 0.0
H1226 H 0.64682 0.08669 0.29801 0.0
C1227 C 0.59558 0.0994 0.21717 0.0
C1228 C 0.36591 0.08155 0.69751 0.0
C1229 C 0.35671 0.07846 0.73596 0.0
H1230 H 0.39816 0.11063 0.65568 0.0
C1231 C 0.37091 0.10513 0.76174 0.0
H1232 H 0.35521 0.06153 0.67701 0.0
C1233 C 0.39532 0.13343 0.7495 0.0
C1234 C 0.4062 0.13512 0.71142 0.0
H1235 H 0.3638 0.10369 0.79152 0.0
H1236 H 0.40683 0.15294 0.77007 0.0
C1237 C 0.39063 0.10953 0.68538 0.0
C1238 C 0.37907 0.85142 0.29039 0.0
C1239 C 0.40601 0.83524 0.2659 0.0
H1240 H 0.33662 0.89385 0.29803 0.0
C1241 C 0.40858 0.84831 0.22855 0.0
H1242 H 0.37627 0.84175 0.31933 0.0
C1243 C 0.38628 0.87843 0.21659 0.0
C1244 C 0.36064 0.89582 0.2416 0.0
H1245 H 0.42907 0.83651 0.20903 0.0
H1246 H 0.3896 0.88846 0.18784 0.0
C1247 C 0.35644 0.88132 0.27828 0.0
loop_
_geom_bond_atom_site_label_1
_geom_bond_atom_site_label_2
_geom_bond_distance
_geom_bond_site_symmetry_2
_ccdc_geom_bond_type
Sc0 O3 2.025 . S
Sc0 O10 2.105 1_455 S
Sc0 O13 2.105 . S
Sc0 O16 2.105 . S
Sc0 O19 2.105 1_455 S
Sc1 O3 2.025 . S
Sc1 O11 2.105 1_455 S
Sc1 O15 2.105 . S
Sc1 O17 2.105 . S
Sc1 O21 2.105 1_455 S
Sc2 O3 2.025 . S
Sc2 O12 2.105 1_455 S
Sc2 O14 2.105 . S
Sc2 O18 2.105 . S
Sc2 O20 2.105 1_455 S
O3 Sc0 2.025 . S
O3 Sc1 2.025 . S
O3 Sc2 2.025 . S
C4 O10 1.268 . S
C4 O20 1.268 . S
C5 O11 1.268 . S
C5 O19 1.268 . S
C6 O12 1.268 . S
C6 O21 1.268 . S
C7 O13 1.268 . S
C7 O17 1.268 . S
C8 O14 1.268 . S
C8 O16 1.268 . S
C9 O15 1.268 . S
C9 O18 1.268 . S
O10 Sc0 2.105 1_655 S
O10 C4 1.268 . S
O11 Sc1 2.105 1_655 S
O11 C5 1.268 . S
O12 Sc2 2.105 1_655 S
O12 C6 1.268 . S
O13 Sc0 2.105 . S
O13 C7 1.268 . S
O14 Sc2 2.105 . S
O14 C8 1.268 . S
O15 Sc1 2.105 . S
O15 C9 1.268 . S
O16 Sc0 2.105 . S
O16 C8 1.268 . S
O17 Sc1 2.105 . S
O17 C7 1.268 . S
O18 Sc2 2.105 . S
O18 C9 1.268 . S
O19 Sc0 2.105 1_655 S
O19 C5 1.268 . S
O20 Sc2 2.105 1_655 S
O20 C4 1.268 . S
O21 Sc1 2.105 1_655 S
O21 C6 1.268 . S
Sc22 O25 2.025 . S
Sc22 O32 2.105 . S
Sc22 O35 2.105 . S
Sc22 O38 2.105 . S
Sc22 O41 2.105 . S
Sc23 O25 2.025 . S
Sc23 O33 2.105 . S
Sc23 O37 2.105 . S
Sc23 O39 2.105 . S
Sc23 O43 2.105 . S
Sc24 O25 2.025 . S
Sc24 O34 2.105 . S
Sc24 O36 2.105 . S
Sc24 O40 2.105 . S
Sc24 O42 2.105 . S
O25 Sc22 2.025 . S
O25 Sc23 2.025 . S
O25 Sc24 2.025 . S
C26 O32 1.268 . S
C26 O42 1.268 . S
C27 O33 1.268 . S
C27 O41 1.268 . S
C28 O34 1.268 . S
C28 O43 1.268 . S
C29 O35 1.268 . S
C29 O39 1.268 . S
C30 O36 1.268 . S
C30 O38 1.268 . S
C31 O37 1.268 . S
C31 O40 1.268 . S
O32 Sc22 2.105 . S
O32 C26 1.268 . S
O33 Sc23 2.105 . S
O33 C27 1.268 . S
O34 Sc24 2.105 . S
O34 C28 1.268 . S
O35 Sc22 2.105 . S
O35 C29 1.268 . S
O36 Sc24 2.105 . S
O36 C30 1.268 . S
O37 Sc23 2.105 . S
O37 C31 1.268 . S
O38 Sc22 2.105 . S
O38 C30 1.268 . S
O39 Sc23 2.105 . S
O39 C29 1.268 . S
O40 Sc24 2.105 . S
O40 C31 1.268 . S
O41 Sc22 2.105 . S
O41 C27 1.268 . S
O42 Sc24 2.105 . S
O42 C26 1.268 . S
O43 Sc23 2.105 . S
O43 C28 1.268 . S
Sc44 O47 2.025 . S
Sc44 O54 2.105 . S
Sc44 O57 2.105 1_455 S
Sc44 O60 2.105 1_455 S
Sc44 O63 2.105 . S
Sc45 O47 2.025 . S
Sc45 O55 2.105 . S
Sc45 O59 2.105 1_455 S
Sc45 O61 2.105 1_455 S
Sc45 O65 2.105 . S
Sc46 O47 2.025 . S
Sc46 O56 2.105 . S
Sc46 O58 2.105 1_455 S
Sc46 O62 2.105 1_455 S
Sc46 O64 2.105 . S
O47 Sc44 2.025 . S
O47 Sc45 2.025 . S
O47 Sc46 2.025 . S
C48 O54 1.268 . S
C48 O64 1.268 . S
C49 O55 1.268 . S
C49 O63 1.268 . S
C50 O56 1.268 . S
C50 O65 1.268 . S
C51 O57 1.268 . S
C51 O61 1.268 . S
C52 O58 1.268 . S
C52 O60 1.268 . S
C53 O59 1.268 . S
C53 O62 1.268 . S
O54 Sc44 2.105 . S
O54 C48 1.268 . S
O55 Sc45 2.105 . S
O55 C49 1.268 . S
O56 Sc46 2.105 . S
O56 C50 1.268 . S
O57 Sc44 2.105 1_655 S
O57 C51 1.268 . S
O58 Sc46 2.105 1_655 S
O58 C52 1.268 . S
O59 Sc45 2.105 1_655 S
O59 C53 1.268 . S
O60 Sc44 2.105 1_655 S
O60 C52 1.268 . S
O61 Sc45 2.105 1_655 S
O61 C51 1.268 . S
O62 Sc46 2.105 1_655 S
O62 C53 1.268 . S
O63 Sc44 2.105 . S
O63 C49 1.268 . S
O64 Sc46 2.105 . S
O64 C48 1.268 . S
O65 Sc45 2.105 . S
O65 C50 1.268 . S
Sc66 O69 2.025 . S
Sc66 O76 2.105 . S
Sc66 O79 2.105 . S
Sc66 O82 2.105 . S
Sc66 O85 2.105 . S
Sc67 O69 2.025 . S
Sc67 O77 2.105 . S
Sc67 O81 2.105 . S
Sc67 O83 2.105 . S
Sc67 O87 2.105 . S
Sc68 O69 2.025 . S
Sc68 O78 2.105 . S
Sc68 O80 2.105 . S
Sc68 O84 2.105 . S
Sc68 O86 2.105 . S
O69 Sc66 2.025 . S
O69 Sc67 2.025 . S
O69 Sc68 2.025 . S
C70 O76 1.268 . S
C70 O86 1.268 . S
C71 O77 1.268 . S
C71 O85 1.268 . S
C72 O78 1.268 . S
C72 O87 1.268 . S
C73 O79 1.268 . S
C73 O83 1.268 . S
C74 O80 1.268 . S
C74 O82 1.268 . S
C75 O81 1.268 . S
C75 O84 1.268 . S
O76 Sc66 2.105 . S
O76 C70 1.268 . S
O77 Sc67 2.105 . S
O77 C71 1.268 . S
O78 Sc68 2.105 . S
O78 C72 1.268 . S
O79 Sc66 2.105 . S
O79 C73 1.268 . S
O80 Sc68 2.105 . S
O80 C74 1.268 . S
O81 Sc67 2.105 . S
O81 C75 1.268 . S
O82 Sc66 2.105 . S
O82 C74 1.268 . S
O83 Sc67 2.105 . S
O83 C73 1.268 . S
O84 Sc68 2.105 . S
O84 C75 1.268 . S
O85 Sc66 2.105 . S
O85 C71 1.268 . S
O86 Sc68 2.105 . S
O86 C70 1.268 . S
O87 Sc67 2.105 . S
O87 C72 1.268 . S
Sc88 O91 2.025 . S
Sc88 O98 2.105 . S
Sc88 O101 2.105 1_455 S
Sc88 O104 2.105 1_455 S
Sc88 O107 2.105 . S
Sc89 O91 2.025 . S
Sc89 O99 2.105 . S
Sc89 O103 2.105 1_455 S
Sc89 O105 2.105 1_455 S
Sc89 O109 2.105 . S
Sc90 O91 2.025 . S
Sc90 O100 2.105 . S
Sc90 O102 2.105 1_455 S
Sc90 O106 2.105 1_455 S
Sc90 O108 2.105 . S
O91 Sc88 2.025 . S
O91 Sc89 2.025 . S
O91 Sc90 2.025 . S
C92 O98 1.268 . S
C92 O108 1.268 . S
C93 O99 1.268 . S
C93 O107 1.268 . S
C94 O100 1.268 . S
C94 O109 1.268 . S
C95 O101 1.268 . S
C95 O105 1.268 . S
C96 O102 1.268 . S
C96 O104 1.268 . S
C97 O103 1.268 . S
C97 O106 1.268 . S
O98 Sc88 2.105 . S
O98 C92 1.268 . S
O99 Sc89 2.105 . S
O99 C93 1.268 . S
O100 Sc90 2.105 . S
O100 C94 1.268 . S
O101 Sc88 2.105 1_655 S
O101 C95 1.268 . S
O102 Sc90 2.105 1_655 S
O102 C96 1.268 . S
O103 Sc89 2.105 1_655 S
O103 C97 1.268 . S
O104 Sc88 2.105 1_655 S
O104 C96 1.268 . S
O105 Sc89 2.105 1_655 S
O105 C95 1.268 . S
O106 Sc90 2.105 1_655 S
O106 C97 1.268 . S
O107 Sc88 2.105 . S
O107 C93 1.268 . S
O108 Sc90 2.105 . S
O108 C92 1.268 . S
O109 Sc89 2.105 . S
O109 C94 1.268 . S
Sc110 O113 2.025 . S
Sc110 O120 2.105 . S
Sc110 O123 2.105 . S
Sc110 O126 2.105 . S
Sc110 O129 2.105 . S
Sc111 O113 2.025 . S
Sc111 O121 2.105 . S
Sc111 O125 2.105 . S
Sc111 O127 2.105 . S
Sc111 O131 2.105 . S
Sc112 O113 2.025 . S
Sc112 O122 2.105 . S
Sc112 O124 2.105 . S
Sc112 O128 2.105 . S
Sc112 O130 2.105 . S
O113 Sc110 2.025 . S
O113 Sc111 2.025 . S
O113 Sc112 2.025 . S
C114 O120 1.268 . S
C114 O130 1.268 . S
C115 O121 1.268 . S
C115 O129 1.268 . S
C116 O122 1.268 . S
C116 O131 1.268 . S
C117 O123 1.268 . S
C117 O127 1.268 . S
C118 O124 1.268 . S
C118 O126 1.268 . S
C119 O125 1.268 . S
C119 O128 1.268 . S
O120 Sc110 2.105 . S
O120 C114 1.268 . S
O121 Sc111 2.105 . S
O121 C115 1.268 . S
O122 Sc112 2.105 . S
O122 C116 1.268 . S
O123 Sc110 2.105 . S
O123 C117 1.268 . S
O124 Sc112 2.105 . S
O124 C118 1.268 . S
O125 Sc111 2.105 . S
O125 C119 1.268 . S
O126 Sc110 2.105 . S
O126 C118 1.268 . S
O127 Sc111 2.105 . S
O127 C117 1.268 . S
O128 Sc112 2.105 . S
O128 C119 1.268 . S
O129 Sc110 2.105 . S
O129 C115 1.268 . S
O130 Sc112 2.105 . S
O130 C114 1.268 . S
O131 Sc111 2.105 . S
O131 C116 1.268 . S
Sc132 O135 2.025 . S
Sc132 O142 2.105 1_455 S
Sc132 O145 2.105 . S
Sc132 O148 2.105 . S
Sc132 O151 2.105 1_455 S
Sc133 O135 2.025 . S
Sc133 O143 2.105 1_455 S
Sc133 O147 2.105 . S
Sc133 O149 2.105 . S
Sc133 O153 2.105 1_455 S
Sc134 O135 2.025 . S
Sc134 O144 2.105 1_455 S
Sc134 O146 2.105 . S
Sc134 O150 2.105 . S
Sc134 O152 2.105 1_455 S
O135 Sc132 2.025 . S
O135 Sc133 2.025 . S
O135 Sc134 2.025 . S
C136 O142 1.268 . S
C136 O152 1.268 . S
C137 O143 1.268 . S
C137 O151 1.268 . S
C138 O144 1.268 . S
C138 O153 1.268 . S
C139 O145 1.268 . S
C139 O149 1.268 . S
C140 O146 1.268 . S
C140 O148 1.268 . S
C141 O147 1.268 . S
C141 O150 1.268 . S
O142 Sc132 2.105 1_655 S
O142 C136 1.268 . S
O143 Sc133 2.105 1_655 S
O143 C137 1.268 . S
O144 Sc134 2.105 1_655 S
O144 C138 1.268 . S
O145 Sc132 2.105 . S
O145 C139 1.268 . S
O146 Sc134 2.105 . S
O146 C140 1.268 . S
O147 Sc133 2.105 . S
O147 C141 1.268 . S
O148 Sc132 2.105 . S
O148 C140 1.268 . S
O149 Sc133 2.105 . S
O149 C139 1.268 . S
O150 Sc134 2.105 . S
O150 C141 1.268 . S
O151 Sc132 2.105 1_655 S
O151 C137 1.268 . S
O152 Sc134 2.105 1_655 S
O152 C136 1.268 . S
O153 Sc133 2.105 1_655 S
O153 C138 1.268 . S
Sc154 O157 2.025 . S
Sc154 O164 2.105 . S
Sc154 O167 2.105 . S
Sc154 O170 2.105 . S
Sc154 O173 2.105 . S
Sc155 O157 2.025 . S
Sc155 O165 2.105 . S
Sc155 O169 2.105 . S
Sc155 O171 2.105 . S
Sc155 O175 2.105 . S
Sc156 O157 2.025 . S
Sc156 O166 2.105 . S
Sc156 O168 2.105 . S
Sc156 O172 2.105 . S
Sc156 O174 2.105 . S
O157 Sc154 2.025 . S
O157 Sc155 2.025 . S
O157 Sc156 2.025 . S
C158 O164 1.268 . S
C158 O174 1.268 . S
C159 O165 1.268 . S
C159 O173 1.268 . S
C160 O166 1.268 . S
C160 O175 1.268 . S
C161 O167 1.268 . S
C161 O171 1.268 . S
C162 O168 1.268 . S
C162 O170 1.268 . S
C163 O169 1.268 . S
C163 O172 1.268 . S
O164 Sc154 2.105 . S
O164 C158 1.268 . S
O165 Sc155 2.105 . S
O165 C159 1.268 . S
O166 Sc156 2.105 . S
O166 C160 1.268 . S
O167 Sc154 2.105 . S
O167 C161 1.268 . S
O168 Sc156 2.105 . S
O168 C162 1.268 . S
O169 Sc155 2.105 . S
O169 C163 1.268 . S
O170 Sc154 2.105 . S
O170 C162 1.268 . S
O171 Sc155 2.105 . S
O171 C161 1.268 . S
O172 Sc156 2.105 . S
O172 C163 1.268 . S
O173 Sc154 2.105 . S
O173 C159 1.268 . S
O174 Sc156 2.105 . S
O174 C158 1.268 . S
O175 Sc155 2.105 . S
O175 C160 1.268 . S
Sc176 O179 2.025 . S
Sc176 O186 2.105 1_545 S
Sc176 O189 2.105 . S
Sc176 O192 2.105 . S
Sc176 O195 2.105 1_545 S
Sc177 O179 2.025 . S
Sc177 O187 2.105 1_545 S
Sc177 O191 2.105 . S
Sc177 O193 2.105 . S
Sc177 O197 2.105 1_545 S
Sc178 O179 2.025 . S
Sc178 O188 2.105 1_545 S
Sc178 O190 2.105 . S
Sc178 O194 2.105 . S
Sc178 O196 2.105 1_545 S
O179 Sc176 2.025 . S
O179 Sc177 2.025 . S
O179 Sc178 2.025 . S
C180 O186 1.268 . S
C180 O196 1.268 . S
C181 O187 1.268 . S
C181 O195 1.268 . S
C182 O188 1.268 . S
C182 O197 1.268 . S
C183 O189 1.268 . S
C183 O193 1.268 . S
C184 O190 1.268 . S
C184 O192 1.268 . S
C185 O191 1.268 . S
C185 O194 1.268 . S
O186 Sc176 2.105 1_565 S
O186 C180 1.268 . S
O187 Sc177 2.105 1_565 S
O187 C181 1.268 . S
O188 Sc178 2.105 1_565 S
O188 C182 1.268 . S
O189 Sc176 2.105 . S
O189 C183 1.268 . S
O190 Sc178 2.105 . S
O190 C184 1.268 . S
O191 Sc177 2.105 . S
O191 C185 1.268 . S
O192 Sc176 2.105 . S
O192 C184 1.268 . S
O193 Sc177 2.105 . S
O193 C183 1.268 . S
O194 Sc178 2.105 . S
O194 C185 1.268 . S
O195 Sc176 2.105 1_565 S
O195 C181 1.268 . S
O196 Sc178 2.105 1_565 S
O196 C180 1.268 . S
O197 Sc177 2.105 1_565 S
O197 C182 1.268 . S
Sc198 O201 2.025 . S
Sc198 O208 2.105 . S
Sc198 O211 2.105 . S
Sc198 O214 2.105 . S
Sc198 O217 2.105 . S
Sc199 O201 2.025 . S
Sc199 O209 2.105 . S
Sc199 O213 2.105 . S
Sc199 O215 2.105 . S
Sc199 O219 2.105 . S
Sc200 O201 2.025 . S
Sc200 O210 2.105 . S
Sc200 O212 2.105 . S
Sc200 O216 2.105 . S
Sc200 O218 2.105 . S
O201 Sc198 2.025 . S
O201 Sc199 2.025 . S
O201 Sc200 2.025 . S
C202 O208 1.268 . S
C202 O218 1.268 . S
C203 O209 1.268 . S
C203 O217 1.268 . S
C204 O210 1.268 . S
C204 O219 1.268 . S
C205 O211 1.268 . S
C205 O215 1.268 . S
C206 O212 1.268 . S
C206 O214 1.268 . S
C207 O213 1.268 . S
C207 O216 1.268 . S
O208 Sc198 2.105 . S
O208 C202 1.268 . S
O209 Sc199 2.105 . S
O209 C203 1.268 . S
O210 Sc200 2.105 . S
O210 C204 1.268 . S
O211 Sc198 2.105 . S
O211 C205 1.268 . S
O212 Sc200 2.105 . S
O212 C206 1.268 . S
O213 Sc199 2.105 . S
O213 C207 1.268 . S
O214 Sc198 2.105 . S
O214 C206 1.268 . S
O215 Sc199 2.105 . S
O215 C205 1.268 . S
O216 Sc200 2.105 . S
O216 C207 1.268 . S
O217 Sc198 2.105 . S
O217 C203 1.268 . S
O218 Sc200 2.105 . S
O218 C202 1.268 . S
O219 Sc199 2.105 . S
O219 C204 1.268 . S
Sc220 O223 2.025 . S
Sc220 O230 2.105 1_545 S
Sc220 O233 2.105 . S
Sc220 O236 2.105 . S
Sc220 O239 2.105 1_545 S
Sc221 O223 2.025 . S
Sc221 O231 2.105 1_545 S
Sc221 O235 2.105 . S
Sc221 O237 2.105 . S
Sc221 O241 2.105 1_545 S
Sc222 O223 2.025 . S
Sc222 O232 2.105 1_545 S
Sc222 O234 2.105 . S
Sc222 O238 2.105 . S
Sc222 O240 2.105 1_545 S
O223 Sc220 2.025 . S
O223 Sc221 2.025 . S
O223 Sc222 2.025 . S
C224 O230 1.268 . S
C224 O240 1.268 . S
C225 O231 1.268 . S
C225 O239 1.268 . S
C226 O232 1.268 . S
C226 O241 1.268 . S
C227 O233 1.268 . S
C227 O237 1.268 . S
C228 O234 1.268 . S
C228 O236 1.268 . S
C229 O235 1.268 . S
C229 O238 1.268 . S
O230 Sc220 2.105 1_565 S
O230 C224 1.268 . S
O231 Sc221 2.105 1_565 S
O231 C225 1.268 . S
O232 Sc222 2.105 1_565 S
O232 C226 1.268 . S
O233 Sc220 2.105 . S
O233 C227 1.268 . S
O234 Sc222 2.105 . S
O234 C228 1.268 . S
O235 Sc221 2.105 . S
O235 C229 1.268 . S
O236 Sc220 2.105 . S
O236 C228 1.268 . S
O237 Sc221 2.105 . S
O237 C227 1.268 . S
O238 Sc222 2.105 . S
O238 C229 1.268 . S
O239 Sc220 2.105 1_565 S
O239 C225 1.268 . S
O240 Sc222 2.105 1_565 S
O240 C224 1.268 . S
O241 Sc221 2.105 1_565 S
O241 C226 1.268 . S
Sc242 O245 2.025 . S
Sc242 O252 2.105 . S
Sc242 O255 2.105 . S
Sc242 O258 2.105 . S
Sc242 O261 2.105 . S
Sc243 O245 2.025 . S
Sc243 O253 2.105 . S
Sc243 O257 2.105 . S
Sc243 O259 2.105 . S
Sc243 O263 2.105 . S
Sc244 O245 2.025 . S
Sc244 O254 2.105 . S
Sc244 O256 2.105 . S
Sc244 O260 2.105 . S
Sc244 O262 2.105 . S
O245 Sc242 2.025 . S
O245 Sc243 2.025 . S
O245 Sc244 2.025 . S
C246 O252 1.268 . S
C246 O262 1.268 . S
C247 O253 1.268 . S
C247 O261 1.268 . S
C248 O254 1.268 . S
C248 O263 1.268 . S
C249 O255 1.268 . S
C249 O259 1.268 . S
C250 O256 1.268 . S
C250 O258 1.268 . S
C251 O257 1.268 . S
C251 O260 1.268 . S
O252 Sc242 2.105 . S
O252 C246 1.268 . S
O253 Sc243 2.105 . S
O253 C247 1.268 . S
O254 Sc244 2.105 . S
O254 C248 1.268 . S
O255 Sc242 2.105 . S
O255 C249 1.268 . S
O256 Sc244 2.105 . S
O256 C250 1.268 . S
O257 Sc243 2.105 . S
O257 C251 1.268 . S
O258 Sc242 2.105 . S
O258 C250 1.268 . S
O259 Sc243 2.105 . S
O259 C249 1.268 . S
O260 Sc244 2.105 . S
O260 C251 1.268 . S
O261 Sc242 2.105 . S
O261 C247 1.268 . S
O262 Sc244 2.105 . S
O262 C246 1.268 . S
O263 Sc243 2.105 . S
O263 C248 1.268 . S
Sc264 O267 2.025 . S
Sc264 O274 2.105 1_545 S
Sc264 O277 2.105 . S
Sc264 O280 2.105 . S
Sc264 O283 2.105 1_545 S
Sc265 O267 2.025 . S
Sc265 O275 2.105 1_545 S
Sc265 O279 2.105 . S
Sc265 O281 2.105 . S
Sc265 O285 2.105 1_545 S
Sc266 O267 2.025 . S
Sc266 O276 2.105 1_545 S
Sc266 O278 2.105 . S
Sc266 O282 2.105 . S
Sc266 O284 2.105 1_545 S
O267 Sc264 2.025 . S
O267 Sc265 2.025 . S
O267 Sc266 2.025 . S
C268 O274 1.268 . S
C268 O284 1.268 . S
C269 O275 1.268 . S
C269 O283 1.268 . S
C270 O276 1.268 . S
C270 O285 1.268 . S
C271 O277 1.268 . S
C271 O281 1.268 . S
C272 O278 1.268 . S
C272 O280 1.268 . S
C273 O279 1.268 . S
C273 O282 1.268 . S
O274 Sc264 2.105 1_565 S
O274 C268 1.268 . S
O275 Sc265 2.105 1_565 S
O275 C269 1.268 . S
O276 Sc266 2.105 1_565 S
O276 C270 1.268 . S
O277 Sc264 2.105 . S
O277 C271 1.268 . S
O278 Sc266 2.105 . S
O278 C272 1.268 . S
O279 Sc265 2.105 . S
O279 C273 1.268 . S
O280 Sc264 2.105 . S
O280 C272 1.268 . S
O281 Sc265 2.105 . S
O281 C271 1.268 . S
O282 Sc266 2.105 . S
O282 C273 1.268 . S
O283 Sc264 2.105 1_565 S
O283 C269 1.268 . S
O284 Sc266 2.105 1_565 S
O284 C268 1.268 . S
O285 Sc265 2.105 1_565 S
O285 C270 1.268 . S
Sc286 O289 2.025 . S
Sc286 O296 2.105 . S
Sc286 O299 2.105 . S
Sc286 O302 2.105 . S
Sc286 O305 2.105 . S
Sc287 O289 2.025 . S
Sc287 O297 2.105 . S
Sc287 O301 2.105 . S
Sc287 O303 2.105 . S
Sc287 O307 2.105 . S
Sc288 O289 2.025 . S
Sc288 O298 2.105 . S
Sc288 O300 2.105 . S
Sc288 O304 2.105 . S
Sc288 O306 2.105 . S
O289 Sc286 2.025 . S
O289 Sc287 2.025 . S
O289 Sc288 2.025 . S
C290 O296 1.268 . S
C290 O306 1.268 . S
C291 O297 1.268 . S
C291 O305 1.268 . S
C292 O298 1.268 . S
C292 O307 1.268 . S
C293 O299 1.268 . S
C293 O303 1.268 . S
C294 O300 1.268 . S
C294 O302 1.268 . S
C295 O301 1.268 . S
C295 O304 1.268 . S
O296 Sc286 2.105 . S
O296 C290 1.268 . S
O297 Sc287 2.105 . S
O297 C291 1.268 . S
O298 Sc288 2.105 . S
O298 C292 1.268 . S
O299 Sc286 2.105 . S
O299 C293 1.268 . S
O300 Sc288 2.105 . S
O300 C294 1.268 . S
O301 Sc287 2.105 . S
O301 C295 1.268 . S
O302 Sc286 2.105 . S
O302 C294 1.268 . S
O303 Sc287 2.105 . S
O303 C293 1.268 . S
O304 Sc288 2.105 . S
O304 C295 1.268 . S
O305 Sc286 2.105 . S
O305 C291 1.268 . S
O306 Sc288 2.105 . S
O306 C290 1.268 . S
O307 Sc287 2.105 . S
O307 C292 1.268 . S
Sc308 O311 2.025 . S
Sc308 O318 2.105 1_545 S
Sc308 O321 2.105 . S
Sc308 O324 2.105 . S
Sc308 O327 2.105 1_545 S
Sc309 O311 2.025 . S
Sc309 O319 2.105 1_545 S
Sc309 O323 2.105 . S
Sc309 O325 2.105 . S
Sc309 O329 2.105 1_545 S
Sc310 O311 2.025 . S
Sc310 O320 2.105 1_545 S
Sc310 O322 2.105 . S
Sc310 O326 2.105 . S
Sc310 O328 2.105 1_545 S
O311 Sc308 2.025 . S
O311 Sc309 2.025 . S
O311 Sc310 2.025 . S
C312 O318 1.268 . S
C312 O328 1.268 . S
C313 O319 1.268 . S
C313 O327 1.268 . S
C314 O320 1.268 . S
C314 O329 1.268 . S
C315 O321 1.268 . S
C315 O325 1.268 . S
C316 O322 1.268 . S
C316 O324 1.268 . S
C317 O323 1.268 . S
C317 O326 1.268 . S
O318 Sc308 2.105 1_565 S
O318 C312 1.268 . S
O319 Sc309 2.105 1_565 S
O319 C313 1.268 . S
O320 Sc310 2.105 1_565 S
O320 C314 1.268 . S
O321 Sc308 2.105 . S
O321 C315 1.268 . S
O322 Sc310 2.105 . S
O322 C316 1.268 . S
O323 Sc309 2.105 . S
O323 C317 1.268 . S
O324 Sc308 2.105 . S
O324 C316 1.268 . S
O325 Sc309 2.105 . S
O325 C315 1.268 . S
O326 Sc310 2.105 . S
O326 C317 1.268 . S
O327 Sc308 2.105 1_565 S
O327 C313 1.268 . S
O328 Sc310 2.105 1_565 S
O328 C312 1.268 . S
O329 Sc309 2.105 1_565 S
O329 C314 1.268 . S
Sc330 O333 2.025 . S
Sc330 O340 2.105 . S
Sc330 O343 2.105 . S
Sc330 O346 2.105 . S
Sc330 O349 2.105 . S
Sc331 O333 2.025 . S
Sc331 O341 2.105 . S
Sc331 O345 2.105 . S
Sc331 O347 2.105 . S
Sc331 O351 2.105 . S
Sc332 O333 2.025 . S
Sc332 O342 2.105 . S
Sc332 O344 2.105 . S
Sc332 O348 2.105 . S
Sc332 O350 2.105 . S
O333 Sc330 2.025 . S
O333 Sc331 2.025 . S
O333 Sc332 2.025 . S
C334 O340 1.268 . S
C334 O350 1.268 . S
C335 O341 1.268 . S
C335 O349 1.268 . S
C336 O342 1.268 . S
C336 O351 1.268 . S
C337 O343 1.268 . S
C337 O347 1.268 . S
C338 O344 1.268 . S
C338 O346 1.268 . S
C339 O345 1.268 . S
C339 O348 1.268 . S
O340 Sc330 2.105 . S
O340 C334 1.268 . S
O341 Sc331 2.105 . S
O341 C335 1.268 . S
O342 Sc332 2.105 . S
O342 C336 1.268 . S
O343 Sc330 2.105 . S
O343 C337 1.268 . S
O344 Sc332 2.105 . S
O344 C338 1.268 . S
O345 Sc331 2.105 . S
O345 C339 1.268 . S
O346 Sc330 2.105 . S
O346 C338 1.268 . S
O347 Sc331 2.105 . S
O347 C337 1.268 . S
O348 Sc332 2.105 . S
O348 C339 1.268 . S
O349 Sc330 2.105 . S
O349 C335 1.268 . S
O350 Sc332 2.105 . S
O350 C334 1.268 . S
O351 Sc331 2.105 . S
O351 C336 1.268 . S
Sc352 O355 2.025 . S
Sc352 O362 2.105 1_554 S
Sc352 O365 2.105 . S
Sc352 O368 2.105 . S
Sc352 O371 2.105 1_554 S
Sc353 O355 2.025 . S
Sc353 O363 2.105 1_554 S
Sc353 O367 2.105 . S
Sc353 O369 2.105 . S
Sc353 O373 2.105 1_554 S
Sc354 O355 2.025 . S
Sc354 O364 2.105 1_554 S
Sc354 O366 2.105 . S
Sc354 O370 2.105 . S
Sc354 O372 2.105 1_554 S
O355 Sc352 2.025 . S
O355 Sc353 2.025 . S
O355 Sc354 2.025 . S
C356 O362 1.268 . S
C356 O372 1.268 . S
C357 O363 1.268 . S
C357 O371 1.268 . S
C358 O364 1.268 . S
C358 O373 1.268 . S
C359 O365 1.268 . S
C359 O369 1.268 . S
C360 O366 1.268 . S
C360 O368 1.268 . S
C361 O367 1.268 . S
C361 O370 1.268 . S
O362 Sc352 2.105 1_556 S
O362 C356 1.268 . S
O363 Sc353 2.105 1_556 S
O363 C357 1.268 . S
O364 Sc354 2.105 1_556 S
O364 C358 1.268 . S
O365 Sc352 2.105 . S
O365 C359 1.268 . S
O366 Sc354 2.105 . S
O366 C360 1.268 . S
O367 Sc353 2.105 . S
O367 C361 1.268 . S
O368 Sc352 2.105 . S
O368 C360 1.268 . S
O369 Sc353 2.105 . S
O369 C359 1.268 . S
O370 Sc354 2.105 . S
O370 C361 1.268 . S
O371 Sc352 2.105 1_556 S
O371 C357 1.268 . S
O372 Sc354 2.105 1_556 S
O372 C356 1.268 . S
O373 Sc353 2.105 1_556 S
O373 C358 1.268 . S
Sc374 O377 2.025 . S
Sc374 O384 2.105 1_554 S
Sc374 O387 2.105 . S
Sc374 O390 2.105 . S
Sc374 O393 2.105 1_554 S
Sc375 O377 2.025 . S
Sc375 O385 2.105 1_554 S
Sc375 O389 2.105 . S
Sc375 O391 2.105 . S
Sc375 O395 2.105 1_554 S
Sc376 O377 2.025 . S
Sc376 O386 2.105 1_554 S
Sc376 O388 2.105 . S
Sc376 O392 2.105 . S
Sc376 O394 2.105 1_554 S
O377 Sc374 2.025 . S
O377 Sc375 2.025 . S
O377 Sc376 2.025 . S
C378 O384 1.268 . S
C378 O394 1.268 . S
C379 O385 1.268 . S
C379 O393 1.268 . S
C380 O386 1.268 . S
C380 O395 1.268 . S
C381 O387 1.268 . S
C381 O391 1.268 . S
C382 O388 1.268 . S
C382 O390 1.268 . S
C383 O389 1.268 . S
C383 O392 1.268 . S
O384 Sc374 2.105 1_556 S
O384 C378 1.268 . S
O385 Sc375 2.105 1_556 S
O385 C379 1.268 . S
O386 Sc376 2.105 1_556 S
O386 C380 1.268 . S
O387 Sc374 2.105 . S
O387 C381 1.268 . S
O388 Sc376 2.105 . S
O388 C382 1.268 . S
O389 Sc375 2.105 . S
O389 C383 1.268 . S
O390 Sc374 2.105 . S
O390 C382 1.268 . S
O391 Sc375 2.105 . S
O391 C381 1.268 . S
O392 Sc376 2.105 . S
O392 C383 1.268 . S
O393 Sc374 2.105 1_556 S
O393 C379 1.268 . S
O394 Sc376 2.105 1_556 S
O394 C378 1.268 . S
O395 Sc375 2.105 1_556 S
O395 C380 1.268 . S
Sc396 O399 2.025 . S
Sc396 O406 2.105 . S
Sc396 O409 2.105 . S
Sc396 O412 2.105 . S
Sc396 O415 2.105 . S
Sc397 O399 2.025 . S
Sc397 O407 2.105 . S
Sc397 O411 2.105 . S
Sc397 O413 2.105 . S
Sc397 O417 2.105 . S
Sc398 O399 2.025 . S
Sc398 O408 2.105 . S
Sc398 O410 2.105 . S
Sc398 O414 2.105 . S
Sc398 O416 2.105 . S
O399 Sc396 2.025 . S
O399 Sc397 2.025 . S
O399 Sc398 2.025 . S
C400 O406 1.268 . S
C400 O416 1.268 . S
C401 O407 1.268 . S
C401 O415 1.268 . S
C402 O408 1.268 . S
C402 O417 1.268 . S
C403 O409 1.268 . S
C403 O413 1.268 . S
C404 O410 1.268 . S
C404 O412 1.268 . S
C405 O411 1.268 . S
C405 O414 1.268 . S
O406 Sc396 2.105 . S
O406 C400 1.268 . S
O407 Sc397 2.105 . S
O407 C401 1.268 . S
O408 Sc398 2.105 . S
O408 C402 1.268 . S
O409 Sc396 2.105 . S
O409 C403 1.268 . S
O410 Sc398 2.105 . S
O410 C404 1.268 . S
O411 Sc397 2.105 . S
O411 C405 1.268 . S
O412 Sc396 2.105 . S
O412 C404 1.268 . S
O413 Sc397 2.105 . S
O413 C403 1.268 . S
O414 Sc398 2.105 . S
O414 C405 1.268 . S
O415 Sc396 2.105 . S
O415 C401 1.268 . S
O416 Sc398 2.105 . S
O416 C400 1.268 . S
O417 Sc397 2.105 . S
O417 C402 1.268 . S
Sc418 O421 2.025 . S
Sc418 O428 2.105 1_554 S
Sc418 O431 2.105 . S
Sc418 O434 2.105 . S
Sc418 O437 2.105 1_554 S
Sc419 O421 2.025 . S
Sc419 O429 2.105 1_554 S
Sc419 O433 2.105 . S
Sc419 O435 2.105 . S
Sc419 O439 2.105 1_554 S
Sc420 O421 2.025 . S
Sc420 O430 2.105 1_554 S
Sc420 O432 2.105 . S
Sc420 O436 2.105 . S
Sc420 O438 2.105 1_554 S
O421 Sc418 2.025 . S
O421 Sc419 2.025 . S
O421 Sc420 2.025 . S
C422 O428 1.268 . S
C422 O438 1.268 . S
C423 O429 1.268 . S
C423 O437 1.268 . S
C424 O430 1.268 . S
C424 O439 1.268 . S
C425 O431 1.268 . S
C425 O435 1.268 . S
C426 O432 1.268 . S
C426 O434 1.268 . S
C427 O433 1.268 . S
C427 O436 1.268 . S
O428 Sc418 2.105 1_556 S
O428 C422 1.268 . S
O429 Sc419 2.105 1_556 S
O429 C423 1.268 . S
O430 Sc420 2.105 1_556 S
O430 C424 1.268 . S
O431 Sc418 2.105 . S
O431 C425 1.268 . S
O432 Sc420 2.105 . S
O432 C426 1.268 . S
O433 Sc419 2.105 . S
O433 C427 1.268 . S
O434 Sc418 2.105 . S
O434 C426 1.268 . S
O435 Sc419 2.105 . S
O435 C425 1.268 . S
O436 Sc420 2.105 . S
O436 C427 1.268 . S
O437 Sc418 2.105 1_556 S
O437 C423 1.268 . S
O438 Sc420 2.105 1_556 S
O438 C422 1.268 . S
O439 Sc419 2.105 1_556 S
O439 C424 1.268 . S
Sc440 O443 2.025 . S
Sc440 O450 2.105 . S
Sc440 O453 2.105 . S
Sc440 O456 2.105 . S
Sc440 O459 2.105 . S
Sc441 O443 2.025 . S
Sc441 O451 2.105 . S
Sc441 O455 2.105 . S
Sc441 O457 2.105 . S
Sc441 O461 2.105 . S
Sc442 O443 2.025 . S
Sc442 O452 2.105 . S
Sc442 O454 2.105 . S
Sc442 O458 2.105 . S
Sc442 O460 2.105 . S
O443 Sc440 2.025 . S
O443 Sc441 2.025 . S
O443 Sc442 2.025 . S
C444 O450 1.268 . S
C444 O460 1.268 . S
C445 O451 1.268 . S
C445 O459 1.268 . S
C446 O452 1.268 . S
C446 O461 1.268 . S
C447 O453 1.268 . S
C447 O457 1.268 . S
C448 O454 1.268 . S
C448 O456 1.268 . S
C449 O455 1.268 . S
C449 O458 1.268 . S
O450 Sc440 2.105 . S
O450 C444 1.268 . S
O451 Sc441 2.105 . S
O451 C445 1.268 . S
O452 Sc442 2.105 . S
O452 C446 1.268 . S
O453 Sc440 2.105 . S
O453 C447 1.268 . S
O454 Sc442 2.105 . S
O454 C448 1.268 . S
O455 Sc441 2.105 . S
O455 C449 1.268 . S
O456 Sc440 2.105 . S
O456 C448 1.268 . S
O457 Sc441 2.105 . S
O457 C447 1.268 . S
O458 Sc442 2.105 . S
O458 C449 1.268 . S
O459 Sc440 2.105 . S
O459 C445 1.268 . S
O460 Sc442 2.105 . S
O460 C444 1.268 . S
O461 Sc441 2.105 . S
O461 C446 1.268 . S
Sc462 O465 2.025 . S
Sc462 O472 2.105 1_554 S
Sc462 O475 2.105 . S
Sc462 O478 2.105 . S
Sc462 O481 2.105 1_554 S
Sc463 O465 2.025 . S
Sc463 O473 2.105 1_554 S
Sc463 O477 2.105 . S
Sc463 O479 2.105 . S
Sc463 O483 2.105 1_554 S
Sc464 O465 2.025 . S
Sc464 O474 2.105 1_554 S
Sc464 O476 2.105 . S
Sc464 O480 2.105 . S
Sc464 O482 2.105 1_554 S
O465 Sc462 2.025 . S
O465 Sc463 2.025 . S
O465 Sc464 2.025 . S
C466 O472 1.268 . S
C466 O482 1.268 . S
C467 O473 1.268 . S
C467 O481 1.268 . S
C468 O474 1.268 . S
C468 O483 1.268 . S
C469 O475 1.268 . S
C469 O479 1.268 . S
C470 O476 1.268 . S
C470 O478 1.268 . S
C471 O477 1.268 . S
C471 O480 1.268 . S
O472 Sc462 2.105 1_556 S
O472 C466 1.268 . S
O473 Sc463 2.105 1_556 S
O473 C467 1.268 . S
O474 Sc464 2.105 1_556 S
O474 C468 1.268 . S
O475 Sc462 2.105 . S
O475 C469 1.268 . S
O476 Sc464 2.105 . S
O476 C470 1.268 . S
O477 Sc463 2.105 . S
O477 C471 1.268 . S
O478 Sc462 2.105 . S
O478 C470 1.268 . S
O479 Sc463 2.105 . S
O479 C469 1.268 . S
O480 Sc464 2.105 . S
O480 C471 1.268 . S
O481 Sc462 2.105 1_556 S
O481 C467 1.268 . S
O482 Sc464 2.105 1_556 S
O482 C466 1.268 . S
O483 Sc463 2.105 1_556 S
O483 C468 1.268 . S
Sc484 O487 2.025 . S
Sc484 O494 2.105 . S
Sc484 O497 2.105 . S
Sc484 O500 2.105 . S
Sc484 O503 2.105 . S
Sc485 O487 2.025 . S
Sc485 O495 2.105 . S
Sc485 O499 2.105 . S
Sc485 O501 2.105 . S
Sc485 O505 2.105 . S
Sc486 O487 2.025 . S
Sc486 O496 2.105 . S
Sc486 O498 2.105 . S
Sc486 O502 2.105 . S
Sc486 O504 2.105 . S
O487 Sc484 2.025 . S
O487 Sc485 2.025 . S
O487 Sc486 2.025 . S
C488 O494 1.268 . S
C488 O504 1.268 . S
C489 O495 1.268 . S
C489 O503 1.268 . S
C490 O496 1.268 . S
C490 O505 1.268 . S
C491 O497 1.268 . S
C491 O501 1.268 . S
C492 O498 1.268 . S
C492 O500 1.268 . S
C493 O499 1.268 . S
C493 O502 1.268 . S
O494 Sc484 2.105 . S
O494 C488 1.268 . S
O495 Sc485 2.105 . S
O495 C489 1.268 . S
O496 Sc486 2.105 . S
O496 C490 1.268 . S
O497 Sc484 2.105 . S
O497 C491 1.268 . S
O498 Sc486 2.105 . S
O498 C492 1.268 . S
O499 Sc485 2.105 . S
O499 C493 1.268 . S
O500 Sc484 2.105 . S
O500 C492 1.268 . S
O501 Sc485 2.105 . S
O501 C491 1.268 . S
O502 Sc486 2.105 . S
O502 C493 1.268 . S
O503 Sc484 2.105 . S
O503 C489 1.268 . S
O504 Sc486 2.105 . S
O504 C488 1.268 . S
O505 Sc485 2.105 . S
O505 C490 1.268 . S
Sc506 O509 2.025 . S
Sc506 O516 2.105 . S
Sc506 O519 2.105 . S
Sc506 O522 2.105 . S
Sc506 O525 2.105 . S
Sc507 O509 2.025 . S
Sc507 O517 2.105 . S
Sc507 O521 2.105 . S
Sc507 O523 2.105 . S
Sc507 O527 2.105 . S
Sc508 O509 2.025 . S
Sc508 O518 2.105 . S
Sc508 O520 2.105 . S
Sc508 O524 2.105 . S
Sc508 O526 2.105 . S
O509 Sc506 2.025 . S
O509 Sc507 2.025 . S
O509 Sc508 2.025 . S
C510 O516 1.268 . S
C510 O526 1.268 . S
C511 O517 1.268 . S
C511 O525 1.268 . S
C512 O518 1.268 . S
C512 O527 1.268 . S
C513 O519 1.268 . S
C513 O523 1.268 . S
C514 O520 1.268 . S
C514 O522 1.268 . S
C515 O521 1.268 . S
C515 O524 1.268 . S
O516 Sc506 2.105 . S
O516 C510 1.268 . S
O517 Sc507 2.105 . S
O517 C511 1.268 . S
O518 Sc508 2.105 . S
O518 C512 1.268 . S
O519 Sc506 2.105 . S
O519 C513 1.268 . S
O520 Sc508 2.105 . S
O520 C514 1.268 . S
O521 Sc507 2.105 . S
O521 C515 1.268 . S
O522 Sc506 2.105 . S
O522 C514 1.268 . S
O523 Sc507 2.105 . S
O523 C513 1.268 . S
O524 Sc508 2.105 . S
O524 C515 1.268 . S
O525 Sc506 2.105 . S
O525 C511 1.268 . S
O526 Sc508 2.105 . S
O526 C510 1.268 . S
O527 Sc507 2.105 . S
O527 C512 1.268 . S
C528 C529 1.387 . S
C528 H532 0.950 . S
C528 C537 1.390 . S
C529 C528 1.387 . S
C529 C531 1.387 . S
H530 C537 0.950 . S
C531 C529 1.387 . S
C531 C533 1.390 . S
C531 H535 0.950 . S
H532 C528 0.950 . S
C533 C531 1.390 . S
C533 C534 1.387 . S
C533 H536 0.950 . S
C534 C533 1.387 . S
C534 C537 1.387 . S
H535 C531 0.950 . S
H536 C533 0.950 . S
C537 C528 1.390 . S
C537 H530 0.950 . S
C537 C534 1.387 . S
C538 C539 1.387 . S
C538 H542 0.950 . S
C538 C547 1.390 . S
C539 C538 1.387 . S
C539 C541 1.387 . S
H540 C547 0.950 . S
C541 C539 1.387 . S
C541 C543 1.390 . S
C541 H545 0.950 . S
H542 C538 0.950 . S
C543 C541 1.390 . S
C543 C544 1.387 . S
C543 H546 0.950 . S
C544 C543 1.387 . S
C544 C547 1.387 . S
H545 C541 0.950 . S
H546 C543 0.950 . S
C547 C538 1.390 . S
C547 H540 0.950 . S
C547 C544 1.387 . S
C548 C549 1.387 . S
C548 H552 0.950 . S
C548 C557 1.390 . S
C549 C548 1.387 . S
C549 C551 1.387 . S
H550 C557 0.950 . S
C551 C549 1.387 . S
C551 C553 1.390 . S
C551 H555 0.950 . S
H552 C548 0.950 . S
C553 C551 1.390 . S
C553 C554 1.387 . S
C553 H556 0.950 . S
C554 C553 1.387 . S
C554 C557 1.387 . S
H555 C551 0.950 . S
H556 C553 0.950 . S
C557 C548 1.390 . S
C557 H550 0.950 . S
C557 C554 1.387 . S
C558 C559 1.387 . S
C558 H562 0.950 . S
C558 C567 1.390 . S
C559 C558 1.387 . S
C559 C561 1.387 . S
H560 C567 0.950 . S
C561 C559 1.387 . S
C561 C563 1.390 . S
C561 H565 0.950 . S
H562 C558 0.950 . S
C563 C561 1.390 . S
C563 C564 1.387 . S
C563 H566 0.950 . S
C564 C563 1.387 . S
C564 C567 1.387 . S
H565 C561 0.950 . S
H566 C563 0.950 . S
C567 C558 1.390 . S
C567 H560 0.950 . S
C567 C564 1.387 . S
C568 C569 1.387 . S
C568 H572 0.950 . S
C568 C577 1.390 . S
C569 C568 1.387 . S
C569 C571 1.387 . S
H570 C577 0.950 . S
C571 C569 1.387 . S
C571 C573 1.390 . S
C571 H575 0.950 . S
H572 C568 0.950 . S
C573 C571 1.390 . S
C573 C574 1.387 . S
C573 H576 0.950 . S
C574 C573 1.387 . S
C574 C577 1.387 . S
H575 C571 0.950 . S
H576 C573 0.950 . S
C577 C568 1.390 . S
C577 H570 0.950 . S
C577 C574 1.387 . S
C578 C579 1.387 . S
C578 H582 0.950 . S
C578 C587 1.390 . S
C579 C578 1.387 . S
C579 C581 1.387 . S
H580 C587 0.950 . S
C581 C579 1.387 . S
C581 C583 1.390 . S
C581 H585 0.950 . S
H582 C578 0.950 . S
C583 C581 1.390 . S
C583 C584 1.387 . S
C583 H586 0.950 . S
C584 C583 1.387 . S
C584 C587 1.387 . S
H585 C581 0.950 . S
H586 C583 0.950 . S
C587 C578 1.390 . S
C587 H580 0.950 . S
C587 C584 1.387 . S
C588 C589 1.387 . S
C588 H592 0.950 . S
C588 C597 1.390 . S
C589 C588 1.387 . S
C589 C591 1.387 . S
H590 C597 0.950 . S
C591 C589 1.387 . S
C591 C593 1.390 . S
C591 H595 0.950 . S
H592 C588 0.950 . S
C593 C591 1.390 . S
C593 C594 1.387 . S
C593 H596 0.950 . S
C594 C593 1.387 . S
C594 C597 1.387 . S
H595 C591 0.950 . S
H596 C593 0.950 . S
C597 C588 1.390 . S
C597 H590 0.950 . S
C597 C594 1.387 . S
C598 C599 1.387 . S
C598 H602 0.950 . S
C598 C607 1.390 . S
C599 C598 1.387 . S
C599 C601 1.387 . S
H600 C607 0.950 . S
C601 C599 1.387 . S
C601 C603 1.390 . S
C601 H605 0.950 . S
H602 C598 0.950 . S
C603 C601 1.390 . S
C603 C604 1.387 . S
C603 H606 0.950 . S
C604 C603 1.387 . S
C604 C607 1.387 . S
H605 C601 0.950 . S
H606 C603 0.950 . S
C607 C598 1.390 . S
C607 H600 0.950 . S
C607 C604 1.387 . S
C608 C609 1.387 . S
C608 H612 0.950 . S
C608 C617 1.390 . S
C609 C608 1.387 . S
C609 C611 1.387 . S
H610 C617 0.950 . S
C611 C609 1.387 . S
C611 C613 1.390 . S
C611 H615 0.950 . S
H612 C608 0.950 . S
C613 C611 1.390 . S
C613 C614 1.387 . S
C613 H616 0.950 . S
C614 C613 1.387 . S
C614 C617 1.387 . S
H615 C611 0.950 . S
H616 C613 0.950 . S
C617 C608 1.390 . S
C617 H610 0.950 . S
C617 C614 1.387 . S
C618 C619 1.387 . S
C618 H622 0.950 . S
C618 C627 1.390 . S
C619 C618 1.387 . S
C619 C621 1.387 . S
H620 C627 0.950 . S
C621 C619 1.387 . S
C621 C623 1.390 . S
C621 H625 0.950 . S
H622 C618 0.950 . S
C623 C621 1.390 . S
C623 C624 1.387 . S
C623 H626 0.950 . S
C624 C623 1.387 . S
C624 C627 1.387 . S
H625 C621 0.950 . S
H626 C623 0.950 . S
C627 C618 1.390 . S
C627 H620 0.950 . S
C627 C624 1.387 . S
C628 C629 1.387 . S
C628 H632 0.950 . S
C628 C637 1.390 . S
C629 C628 1.387 . S
C629 C631 1.387 . S
H630 C637 0.950 . S
C631 C629 1.387 . S
C631 C633 1.390 . S
C631 H635 0.950 . S
H632 C628 0.950 . S
C633 C631 1.390 . S
C633 C634 1.387 . S
C633 H636 0.950 . S
C634 C633 1.387 . S
C634 C637 1.387 . S
H635 C631 0.950 . S
H636 C633 0.950 . S
C637 C628 1.390 . S
C637 H630 0.950 . S
C637 C634 1.387 . S
C638 C639 1.387 . S
C638 H642 0.950 . S
C638 C647 1.390 . S
C639 C638 1.387 . S
C639 C641 1.387 . S
H640 C647 0.950 . S
C641 C639 1.387 . S
C641 C643 1.390 . S
C641 H645 0.950 . S
H642 C638 0.950 . S
C643 C641 1.390 . S
C643 C644 1.387 . S
C643 H646 0.950 . S
C644 C643 1.387 . S
C644 C647 1.387 . S
H645 C641 0.950 . S
H646 C643 0.950 . S
C647 C638 1.390 . S
C647 H640 0.950 . S
C647 C644 1.387 . S
C648 C649 1.387 . S
C648 H652 0.950 . S
C648 C657 1.390 . S
C649 C648 1.387 . S
C649 C651 1.387 . S
H650 C657 0.950 . S
C651 C649 1.387 . S
C651 C653 1.390 . S
C651 H655 0.950 . S
H652 C648 0.950 . S
C653 C651 1.390 . S
C653 C654 1.387 . S
C653 H656 0.950 . S
C654 C653 1.387 . S
C654 C657 1.387 . S
H655 C651 0.950 . S
H656 C653 0.950 . S
C657 C648 1.390 . S
C657 H650 0.950 . S
C657 C654 1.387 . S
C658 C659 1.387 . S
C658 H662 0.950 . S
C658 C667 1.390 . S
C659 C658 1.387 . S
C659 C661 1.387 . S
H660 C667 0.950 . S
C661 C659 1.387 . S
C661 C663 1.390 . S
C661 H665 0.950 . S
H662 C658 0.950 . S
C663 C661 1.390 . S
C663 C664 1.387 . S
C663 H666 0.950 . S
C664 C663 1.387 . S
C664 C667 1.387 . S
H665 C661 0.950 . S
H666 C663 0.950 . S
C667 C658 1.390 . S
C667 H660 0.950 . S
C667 C664 1.387 . S
C668 C669 1.387 . S
C668 H672 0.950 . S
C668 C677 1.390 . S
C669 C668 1.387 . S
C669 C671 1.387 . S
H670 C677 0.950 . S
C671 C669 1.387 . S
C671 C673 1.390 . S
C671 H675 0.950 . S
H672 C668 0.950 . S
C673 C671 1.390 . S
C673 C674 1.387 . S
C673 H676 0.950 . S
C674 C673 1.387 . S
C674 C677 1.387 . S
H675 C671 0.950 . S
H676 C673 0.950 . S
C677 C668 1.390 . S
C677 H670 0.950 . S
C677 C674 1.387 . S
C678 C679 1.387 . S
C678 H682 0.950 . S
C678 C687 1.390 . S
C679 C678 1.387 . S
C679 C681 1.387 . S
H680 C687 0.950 . S
C681 C679 1.387 . S
C681 C683 1.390 . S
C681 H685 0.950 . S
H682 C678 0.950 . S
C683 C681 1.390 . S
C683 C684 1.387 . S
C683 H686 0.950 . S
C684 C683 1.387 . S
C684 C687 1.387 . S
H685 C681 0.950 . S
H686 C683 0.950 . S
C687 C678 1.390 . S
C687 H680 0.950 . S
C687 C684 1.387 . S
C688 C689 1.387 . S
C688 H692 0.950 . S
C688 C697 1.390 . S
C689 C688 1.387 . S
C689 C691 1.387 . S
H690 C697 0.950 . S
C691 C689 1.387 . S
C691 C693 1.390 . S
C691 H695 0.950 . S
H692 C688 0.950 . S
C693 C691 1.390 . S
C693 C694 1.387 . S
C693 H696 0.950 . S
C694 C693 1.387 . S
C694 C697 1.387 . S
H695 C691 0.950 . S
H696 C693 0.950 . S
C697 C688 1.390 . S
C697 H690 0.950 . S
C697 C694 1.387 . S
C698 C699 1.387 . S
C698 H702 0.950 . S
C698 C707 1.390 . S
C699 C698 1.387 . S
C699 C701 1.387 . S
H700 C707 0.950 . S
C701 C699 1.387 . S
C701 C703 1.390 . S
C701 H705 0.950 . S
H702 C698 0.950 . S
C703 C701 1.390 . S
C703 C704 1.387 . S
C703 H706 0.950 . S
C704 C703 1.387 . S
C704 C707 1.387 . S
H705 C701 0.950 . S
H706 C703 0.950 . S
C707 C698 1.390 . S
C707 H700 0.950 . S
C707 C704 1.387 . S
C708 C709 1.387 . S
C708 H712 0.950 . S
C708 C717 1.390 . S
C709 C708 1.387 . S
C709 C711 1.387 . S
H710 C717 0.950 . S
C711 C709 1.387 . S
C711 C713 1.390 . S
C711 H715 0.950 . S
H712 C708 0.950 . S
C713 C711 1.390 . S
C713 C714 1.387 . S
C713 H716 0.950 . S
C714 C713 1.387 . S
C714 C717 1.387 . S
H715 C711 0.950 . S
H716 C713 0.950 . S
C717 C708 1.390 . S
C717 H710 0.950 . S
C717 C714 1.387 . S
C718 C719 1.387 . S
C718 H722 0.950 . S
C718 C727 1.390 . S
C719 C718 1.387 . S
C719 C721 1.387 . S
H720 C727 0.950 . S
C721 C719 1.387 . S
C721 C723 1.390 . S
C721 H725 0.950 . S
H722 C718 0.950 . S
C723 C721 1.390 . S
C723 C724 1.387 . S
C723 H726 0.950 . S
C724 C723 1.387 . S
C724 C727 1.387 . S
H725 C721 0.950 . S
H726 C723 0.950 . S
C727 C718 1.390 . S
C727 H720 0.950 . S
C727 C724 1.387 . S
C728 C729 1.387 . S
C728 H732 0.950 . S
C728 C737 1.390 . S
C729 C728 1.387 . S
C729 C731 1.387 . S
H730 C737 0.950 . S
C731 C729 1.387 . S
C731 C733 1.390 . S
C731 H735 0.950 . S
H732 C728 0.950 . S
C733 C731 1.390 . S
C733 C734 1.387 . S
C733 H736 0.950 . S
C734 C733 1.387 . S
C734 C737 1.387 . S
H735 C731 0.950 . S
H736 C733 0.950 . S
C737 C728 1.390 . S
C737 H730 0.950 . S
C737 C734 1.387 . S
C738 C739 1.387 . S
C738 H742 0.950 . S
C738 C747 1.390 . S
C739 C738 1.387 . S
C739 C741 1.387 . S
H740 C747 0.950 . S
C741 C739 1.387 . S
C741 C743 1.390 . S
C741 H745 0.950 . S
H742 C738 0.950 . S
C743 C741 1.390 . S
C743 C744 1.387 . S
C743 H746 0.950 . S
C744 C743 1.387 . S
C744 C747 1.387 . S
H745 C741 0.950 . S
H746 C743 0.950 . S
C747 C738 1.390 . S
C747 H740 0.950 . S
C747 C744 1.387 . S
C748 C749 1.387 . S
C748 H752 0.950 . S
C748 C757 1.390 . S
C749 C748 1.387 . S
C749 C751 1.387 . S
H750 C757 0.950 . S
C751 C749 1.387 . S
C751 C753 1.390 . S
C751 H755 0.950 . S
H752 C748 0.950 . S
C753 C751 1.390 . S
C753 C754 1.387 . S
C753 H756 0.950 . S
C754 C753 1.387 . S
C754 C757 1.387 . S
H755 C751 0.950 . S
H756 C753 0.950 . S
C757 C748 1.390 . S
C757 H750 0.950 . S
C757 C754 1.387 . S
C758 C759 1.387 . S
C758 H762 0.950 . S
C758 C767 1.390 . S
C759 C758 1.387 . S
C759 C761 1.387 . S
H760 C767 0.950 . S
C761 C759 1.387 . S
C761 C763 1.390 . S
C761 H765 0.950 . S
H762 C758 0.950 . S
C763 C761 1.390 . S
C763 C764 1.387 . S
C763 H766 0.950 . S
C764 C763 1.387 . S
C764 C767 1.387 . S
H765 C761 0.950 . S
H766 C763 0.950 . S
C767 C758 1.390 . S
C767 H760 0.950 . S
C767 C764 1.387 . S
C768 C769 1.387 . S
C768 H772 0.950 . S
C768 C777 1.390 . S
C769 C768 1.387 . S
C769 C771 1.387 . S
H770 C777 0.950 . S
C771 C769 1.387 . S
C771 C773 1.390 . S
C771 H775 0.950 . S
H772 C768 0.950 . S
C773 C771 1.390 . S
C773 C774 1.387 . S
C773 H776 0.950 . S
C774 C773 1.387 . S
C774 C777 1.387 . S
H775 C771 0.950 . S
H776 C773 0.950 . S
C777 C768 1.390 . S
C777 H770 0.950 . S
C777 C774 1.387 . S
C778 C779 1.387 . S
C778 H782 0.950 . S
C778 C787 1.390 . S
C779 C778 1.387 . S
C779 C781 1.387 . S
H780 C787 0.950 . S
C781 C779 1.387 . S
C781 C783 1.390 . S
C781 H785 0.950 . S
H782 C778 0.950 . S
C783 C781 1.390 . S
C783 C784 1.387 . S
C783 H786 0.950 . S
C784 C783 1.387 . S
C784 C787 1.387 . S
H785 C781 0.950 . S
H786 C783 0.950 . S
C787 C778 1.390 . S
C787 H780 0.950 . S
C787 C784 1.387 . S
C788 C789 1.387 . S
C788 H792 0.950 . S
C788 C797 1.390 . S
C789 C788 1.387 . S
C789 C791 1.387 . S
H790 C797 0.950 . S
C791 C789 1.387 . S
C791 C793 1.390 . S
C791 H795 0.950 . S
H792 C788 0.950 . S
C793 C791 1.390 . S
C793 C794 1.387 . S
C793 H796 0.950 . S
C794 C793 1.387 . S
C794 C797 1.387 . S
H795 C791 0.950 . S
H796 C793 0.950 . S
C797 C788 1.390 . S
C797 H790 0.950 . S
C797 C794 1.387 . S
C798 C799 1.387 . S
C798 H802 0.950 . S
C798 C807 1.390 . S
C799 C798 1.387 . S
C799 C801 1.387 . S
H800 C807 0.950 . S
C801 C799 1.387 . S
C801 C803 1.390 . S
C801 H805 0.950 . S
H802 C798 0.950 . S
C803 C801 1.390 . S
C803 C804 1.387 . S
C803 H806 0.950 . S
C804 C803 1.387 . S
C804 C807 1.387 . S
H805 C801 0.950 . S
H806 C803 0.950 . S
C807 C798 1.390 . S
C807 H800 0.950 . S
C807 C804 1.387 . S
C808 C809 1.387 . S
C808 H812 0.950 . S
C808 C817 1.390 . S
C809 C808 1.387 . S
C809 C811 1.387 . S
H810 C817 0.950 . S
C811 C809 1.387 . S
C811 C813 1.390 . S
C811 H815 0.950 . S
H812 C808 0.950 . S
C813 C811 1.390 . S
C813 C814 1.387 . S
C813 H816 0.950 . S
C814 C813 1.387 . S
C814 C817 1.387 . S
H815 C811 0.950 . S
H816 C813 0.950 . S
C817 C808 1.390 . S
C817 H810 0.950 . S
C817 C814 1.387 . S
C818 C819 1.387 . S
C818 H822 0.950 . S
C818 C827 1.390 . S
C819 C818 1.387 . S
C819 C821 1.387 . S
H820 C827 0.950 . S
C821 C819 1.387 . S
C821 C823 1.390 . S
C821 H825 0.950 . S
H822 C818 0.950 . S
C823 C821 1.390 . S
C823 C824 1.387 . S
C823 H826 0.950 . S
C824 C823 1.387 . S
C824 C827 1.387 . S
H825 C821 0.950 . S
H826 C823 0.950 . S
C827 C818 1.390 . S
C827 H820 0.950 . S
C827 C824 1.387 . S
C828 C829 1.387 . S
C828 H832 0.950 . S
C828 C837 1.390 . S
C829 C828 1.387 . S
C829 C831 1.387 . S
H830 C837 0.950 . S
C831 C829 1.387 . S
C831 C833 1.390 . S
C831 H835 0.950 . S
H832 C828 0.950 . S
C833 C831 1.390 . S
C833 C834 1.387 . S
C833 H836 0.950 . S
C834 C833 1.387 . S
C834 C837 1.387 . S
H835 C831 0.950 . S
H836 C833 0.950 . S
C837 C828 1.390 . S
C837 H830 0.950 . S
C837 C834 1.387 . S
C838 C839 1.387 . S
C838 H842 0.950 . S
C838 C847 1.390 . S
C839 C838 1.387 . S
C839 C841 1.387 . S
H840 C847 0.950 . S
C841 C839 1.387 . S
C841 C843 1.390 . S
C841 H845 0.950 . S
H842 C838 0.950 . S
C843 C841 1.390 . S
C843 C844 1.387 . S
C843 H846 0.950 . S
C844 C843 1.387 . S
C844 C847 1.387 . S
H845 C841 0.950 . S
H846 C843 0.950 . S
C847 C838 1.390 . S
C847 H840 0.950 . S
C847 C844 1.387 . S
C848 C849 1.387 . S
C848 H852 0.950 . S
C848 C857 1.390 . S
C849 C848 1.387 . S
C849 C851 1.387 . S
H850 C857 0.950 . S
C851 C849 1.387 . S
C851 C853 1.390 . S
C851 H855 0.950 . S
H852 C848 0.950 . S
C853 C851 1.390 . S
C853 C854 1.387 . S
C853 H856 0.950 . S
C854 C853 1.387 . S
C854 C857 1.387 . S
H855 C851 0.950 . S
H856 C853 0.950 . S
C857 C848 1.390 . S
C857 H850 0.950 . S
C857 C854 1.387 . S
C858 C859 1.387 . S
C858 H862 0.950 . S
C858 C867 1.390 . S
C859 C858 1.387 . S
C859 C861 1.387 . S
H860 C867 0.950 . S
C861 C859 1.387 . S
C861 C863 1.390 . S
C861 H865 0.950 . S
H862 C858 0.950 . S
C863 C861 1.390 . S
C863 C864 1.387 . S
C863 H866 0.950 . S
C864 C863 1.387 . S
C864 C867 1.387 . S
H865 C861 0.950 . S
H866 C863 0.950 . S
C867 C858 1.390 . S
C867 H860 0.950 . S
C867 C864 1.387 . S
C868 C869 1.387 . S
C868 H872 0.950 . S
C868 C877 1.390 . S
C869 C868 1.387 . S
C869 C871 1.387 . S
H870 C877 0.950 . S
C871 C869 1.387 . S
C871 C873 1.390 . S
C871 H875 0.950 . S
H872 C868 0.950 . S
C873 C871 1.390 . S
C873 C874 1.387 . S
C873 H876 0.950 . S
C874 C873 1.387 . S
C874 C877 1.387 . S
H875 C871 0.950 . S
H876 C873 0.950 . S
C877 C868 1.390 . S
C877 H870 0.950 . S
C877 C874 1.387 . S
C878 C879 1.387 . S
C878 H882 0.950 . S
C878 C887 1.390 . S
C879 C878 1.387 . S
C879 C881 1.387 . S
H880 C887 0.950 . S
C881 C879 1.387 . S
C881 C883 1.390 . S
C881 H885 0.950 . S
H882 C878 0.950 . S
C883 C881 1.390 . S
C883 C884 1.387 . S
C883 H886 0.950 . S
C884 C883 1.387 . S
C884 C887 1.387 . S
H885 C881 0.950 . S
H886 C883 0.950 . S
C887 C878 1.390 . S
C887 H880 0.950 . S
C887 C884 1.387 . S
C888 C889 1.387 . S
C888 H892 0.950 . S
C888 C897 1.390 . S
C889 C888 1.387 . S
C889 C891 1.387 . S
H890 C897 0.950 . S
C891 C889 1.387 . S
C891 C893 1.390 . S
C891 H895 0.950 . S
H892 C888 0.950 . S
C893 C891 1.390 . S
C893 C894 1.387 . S
C893 H896 0.950 . S
C894 C893 1.387 . S
C894 C897 1.387 . S
H895 C891 0.950 . S
H896 C893 0.950 . S
C897 C888 1.390 . S
C897 H890 0.950 . S
C897 C894 1.387 . S
C898 C899 1.387 . S
C898 H902 0.950 . S
C898 C907 1.390 . S
C899 C898 1.387 . S
C899 C901 1.387 . S
H900 C907 0.950 . S
C901 C899 1.387 . S
C901 C903 1.390 . S
C901 H905 0.950 . S
H902 C898 0.950 . S
C903 C901 1.390 . S
C903 C904 1.387 . S
C903 H906 0.950 . S
C904 C903 1.387 . S
C904 C907 1.387 . S
H905 C901 0.950 . S
H906 C903 0.950 . S
C907 C898 1.390 . S
C907 H900 0.950 . S
C907 C904 1.387 . S
C908 C909 1.387 . S
C908 H912 0.950 . S
C908 C917 1.390 . S
C909 C908 1.387 . S
C909 C911 1.387 . S
H910 C917 0.950 . S
C911 C909 1.387 . S
C911 C913 1.390 . S
C911 H915 0.950 . S
H912 C908 0.950 . S
C913 C911 1.390 . S
C913 C914 1.387 . S
C913 H916 0.950 . S
C914 C913 1.387 . S
C914 C917 1.387 . S
H915 C911 0.950 . S
H916 C913 0.950 . S
C917 C908 1.390 . S
C917 H910 0.950 . S
C917 C914 1.387 . S
C918 C919 1.387 . S
C918 H922 0.950 . S
C918 C927 1.390 . S
C919 C918 1.387 . S
C919 C921 1.387 . S
H920 C927 0.950 . S
C921 C919 1.387 . S
C921 C923 1.390 . S
C921 H925 0.950 . S
H922 C918 0.950 . S
C923 C921 1.390 . S
C923 C924 1.387 . S
C923 H926 0.950 . S
C924 C923 1.387 . S
C924 C927 1.387 . S
H925 C921 0.950 . S
H926 C923 0.950 . S
C927 C918 1.390 . S
C927 H920 0.950 . S
C927 C924 1.387 . S
C928 C929 1.387 . S
C928 H932 0.950 . S
C928 C937 1.390 . S
C929 C928 1.387 . S
C929 C931 1.387 . S
H930 C937 0.950 . S
C931 C929 1.387 . S
C931 C933 1.390 . S
C931 H935 0.950 . S
H932 C928 0.950 . S
C933 C931 1.390 . S
C933 C934 1.387 . S
C933 H936 0.950 . S
C934 C933 1.387 . S
C934 C937 1.387 . S
H935 C931 0.950 . S
H936 C933 0.950 . S
C937 C928 1.390 . S
C937 H930 0.950 . S
C937 C934 1.387 . S
C938 C939 1.387 . S
C938 H942 0.950 . S
C938 C947 1.390 . S
C939 C938 1.387 . S
C939 C941 1.387 . S
H940 C947 0.950 . S
C941 C939 1.387 . S
C941 C943 1.390 . S
C941 H945 0.950 . S
H942 C938 0.950 . S
C943 C941 1.390 . S
C943 C944 1.387 . S
C943 H946 0.950 . S
C944 C943 1.387 . S
C944 C947 1.387 . S
H945 C941 0.950 . S
H946 C943 0.950 . S
C947 C938 1.390 . S
C947 H940 0.950 . S
C947 C944 1.387 . S
C948 C949 1.387 . S
C948 H952 0.950 . S
C948 C957 1.390 . S
C949 C948 1.387 . S
C949 C951 1.387 . S
H950 C957 0.950 . S
C951 C949 1.387 . S
C951 C953 1.390 . S
C951 H955 0.950 . S
H952 C948 0.950 . S
C953 C951 1.390 . S
C953 C954 1.387 . S
C953 H956 0.950 . S
C954 C953 1.387 . S
C954 C957 1.387 . S
H955 C951 0.950 . S
H956 C953 0.950 . S
C957 C948 1.390 . S
C957 H950 0.950 . S
C957 C954 1.387 . S
C958 C959 1.387 . S
C958 H962 0.950 . S
C958 C967 1.390 . S
C959 C958 1.387 . S
C959 C961 1.387 . S
H960 C967 0.950 . S
C961 C959 1.387 . S
C961 C963 1.390 . S
C961 H965 0.950 . S
H962 C958 0.950 . S
C963 C961 1.390 . S
C963 C964 1.387 . S
C963 H966 0.950 . S
C964 C963 1.387 . S
C964 C967 1.387 . S
H965 C961 0.950 . S
H966 C963 0.950 . S
C967 C958 1.390 . S
C967 H960 0.950 . S
C967 C964 1.387 . S
C968 C969 1.387 . S
C968 H972 0.950 . S
C968 C977 1.390 . S
C969 C968 1.387 . S
C969 C971 1.387 . S
H970 C977 0.950 . S
C971 C969 1.387 . S
C971 C973 1.390 . S
C971 H975 0.950 . S
H972 C968 0.950 . S
C973 C971 1.390 . S
C973 C974 1.387 . S
C973 H976 0.950 . S
C974 C973 1.387 . S
C974 C977 1.387 . S
H975 C971 0.950 . S
H976 C973 0.950 . S
C977 C968 1.390 . S
C977 H970 0.950 . S
C977 C974 1.387 . S
C978 C979 1.387 . S
C978 H982 0.950 . S
C978 C987 1.390 . S
C979 C978 1.387 . S
C979 C981 1.387 . S
H980 C987 0.950 . S
C981 C979 1.387 . S
C981 C983 1.390 . S
C981 H985 0.950 . S
H982 C978 0.950 . S
C983 C981 1.390 . S
C983 C984 1.387 . S
C983 H986 0.950 . S
C984 C983 1.387 . S
C984 C987 1.387 . S
H985 C981 0.950 . S
H986 C983 0.950 . S
C987 C978 1.390 . S
C987 H980 0.950 . S
C987 C984 1.387 . S
C988 C989 1.387 . S
C988 H992 0.950 . S
C988 C997 1.390 . S
C989 C988 1.387 . S
C989 C991 1.387 . S
H990 C997 0.950 . S
C991 C989 1.387 . S
C991 C993 1.390 . S
C991 H995 0.950 . S
H992 C988 0.950 . S
C993 C991 1.390 . S
C993 C994 1.387 . S
C993 H996 0.950 . S
C994 C993 1.387 . S
C994 C997 1.387 . S
H995 C991 0.950 . S
H996 C993 0.950 . S
C997 C988 1.390 . S
C997 H990 0.950 . S
C997 C994 1.387 . S
C998 C999 1.387 . S
C998 H1002 0.950 . S
C998 C1007 1.390 . S
C999 C998 1.387 . S
C999 C1001 1.387 . S
H1000 C1007 0.950 . S
C1001 C999 1.387 . S
C1001 C1003 1.390 . S
C1001 H1005 0.950 . S
H1002 C998 0.950 . S
C1003 C1001 1.390 . S
C1003 C1004 1.387 . S
C1003 H1006 0.950 . S
C1004 C1003 1.387 . S
C1004 C1007 1.387 . S
H1005 C1001 0.950 . S
H1006 C1003 0.950 . S
C1007 C998 1.390 . S
C1007 H1000 0.950 . S
C1007 C1004 1.387 . S
C1008 C1009 1.387 . S
C1008 H1012 0.950 . S
C1008 C1017 1.390 . S
C1009 C1008 1.387 . S
C1009 C1011 1.387 . S
H1010 C1017 0.950 . S
C1011 C1009 1.387 . S
C1011 C1013 1.390 . S
C1011 H1015 0.950 . S
H1012 C1008 0.950 . S
C1013 C1011 1.390 . S
C1013 C1014 1.387 . S
C1013 H1016 0.950 . S
C1014 C1013 1.387 . S
C1014 C1017 1.387 . S
H1015 C1011 0.950 . S
H1016 C1013 0.950 . S
C1017 C1008 1.390 . S
C1017 H1010 0.950 . S
C1017 C1014 1.387 . S
C1018 C1019 1.387 . S
C1018 H1022 0.950 . S
C1018 C1027 1.390 . S
C1019 C1018 1.387 . S
C1019 C1021 1.387 . S
H1020 C1027 0.950 . S
C1021 C1019 1.387 . S
C1021 C1023 1.390 . S
C1021 H1025 0.950 . S
H1022 C1018 0.950 . S
C1023 C1021 1.390 . S
C1023 C1024 1.387 . S
C1023 H1026 0.950 . S
C1024 C1023 1.387 . S
C1024 C1027 1.387 . S
H1025 C1021 0.950 . S
H1026 C1023 0.950 . S
C1027 C1018 1.390 . S
C1027 H1020 0.950 . S
C1027 C1024 1.387 . S
C1028 C1029 1.387 . S
C1028 H1032 0.950 . S
C1028 C1037 1.390 . S
C1029 C1028 1.387 . S
C1029 C1031 1.387 . S
H1030 C1037 0.950 . S
C1031 C1029 1.387 . S
C1031 C1033 1.390 . S
C1031 H1035 0.950 . S
H1032 C1028 0.950 . S
C1033 C1031 1.390 . S
C1033 C1034 1.387 . S
C1033 H1036 0.950 . S
C1034 C1033 1.387 . S
C1034 C1037 1.387 . S
H1035 C1031 0.950 . S
H1036 C1033 0.950 . S
C1037 C1028 1.390 . S
C1037 H1030 0.950 . S
C1037 C1034 1.387 . S
C1038 C1039 1.387 . S
C1038 H1042 0.950 . S
C1038 C1047 1.390 . S
C1039 C1038 1.387 . S
C1039 C1041 1.387 . S
H1040 C1047 0.950 . S
C1041 C1039 1.387 . S
C1041 C1043 1.390 . S
C1041 H1045 0.950 . S
H1042 C1038 0.950 . S
C1043 C1041 1.390 . S
C1043 C1044 1.387 . S
C1043 H1046 0.950 . S
C1044 C1043 1.387 . S
C1044 C1047 1.387 . S
H1045 C1041 0.950 . S
H1046 C1043 0.950 . S
C1047 C1038 1.390 . S
C1047 H1040 0.950 . S
C1047 C1044 1.387 . S
C1048 C1049 1.387 . S
C1048 H1052 0.950 . S
C1048 C1057 1.390 . S
C1049 C1048 1.387 . S
C1049 C1051 1.387 . S
H1050 C1057 0.950 . S
C1051 C1049 1.387 . S
C1051 C1053 1.390 . S
C1051 H1055 0.950 . S
H1052 C1048 0.950 . S
C1053 C1051 1.390 . S
C1053 C1054 1.387 . S
C1053 H1056 0.950 . S
C1054 C1053 1.387 . S
C1054 C1057 1.387 . S
H1055 C1051 0.950 . S
H1056 C1053 0.950 . S
C1057 C1048 1.390 . S
C1057 H1050 0.950 . S
C1057 C1054 1.387 . S
C1058 C1059 1.387 . S
C1058 H1062 0.950 . S
C1058 C1067 1.390 . S
C1059 C1058 1.387 . S
C1059 C1061 1.387 . S
H1060 C1067 0.950 . S
C1061 C1059 1.387 . S
C1061 C1063 1.390 . S
C1061 H1065 0.950 . S
H1062 C1058 0.950 . S
C1063 C1061 1.390 . S
C1063 C1064 1.387 . S
C1063 H1066 0.950 . S
C1064 C1063 1.387 . S
C1064 C1067 1.387 . S
H1065 C1061 0.950 . S
H1066 C1063 0.950 . S
C1067 C1058 1.390 . S
C1067 H1060 0.950 . S
C1067 C1064 1.387 . S
C1068 C1069 1.387 . S
C1068 H1072 0.950 . S
C1068 C1077 1.390 . S
C1069 C1068 1.387 . S
C1069 C1071 1.387 . S
H1070 C1077 0.950 . S
C1071 C1069 1.387 . S
C1071 C1073 1.390 . S
C1071 H1075 0.950 . S
H1072 C1068 0.950 . S
C1073 C1071 1.390 . S
C1073 C1074 1.387 . S
C1073 H1076 0.950 . S
C1074 C1073 1.387 . S
C1074 C1077 1.387 . S
H1075 C1071 0.950 . S
H1076 C1073 0.950 . S
C1077 C1068 1.390 . S
C1077 H1070 0.950 . S
C1077 C1074 1.387 . S
C1078 C1079 1.387 . S
C1078 H1082 0.950 . S
C1078 C1087 1.390 . S
C1079 C1078 1.387 . S
C1079 C1081 1.387 . S
H1080 C1087 0.950 . S
C1081 C1079 1.387 . S
C1081 C1083 1.390 . S
C1081 H1085 0.950 . S
H1082 C1078 0.950 . S
C1083 C1081 1.390 . S
C1083 C1084 1.387 . S
C1083 H1086 0.950 . S
C1084 C1083 1.387 . S
C1084 C1087 1.387 . S
H1085 C1081 0.950 . S
H1086 C1083 0.950 . S
C1087 C1078 1.390 . S
C1087 H1080 0.950 . S
C1087 C1084 1.387 . S
C1088 C1089 1.387 . S
C1088 H1092 0.950 . S
C1088 C1097 1.390 . S
C1089 C1088 1.387 . S
C1089 C1091 1.387 . S
H1090 C1097 0.950 . S
C1091 C1089 1.387 . S
C1091 C1093 1.390 . S
C1091 H1095 0.950 . S
H1092 C1088 0.950 . S
C1093 C1091 1.390 . S
C1093 C1094 1.387 . S
C1093 H1096 0.950 . S
C1094 C1093 1.387 . S
C1094 C1097 1.387 . S
H1095 C1091 0.950 . S
H1096 C1093 0.950 . S
C1097 C1088 1.390 . S
C1097 H1090 0.950 . S
C1097 C1094 1.387 . S
C1098 C1099 1.387 . S
C1098 H1102 0.950 . S
C1098 C1107 1.390 . S
C1099 C1098 1.387 . S
C1099 C1101 1.387 . S
H1100 C1107 0.950 . S
C1101 C1099 1.387 . S
C1101 C1103 1.390 . S
C1101 H1105 0.950 . S
H1102 C1098 0.950 . S
C1103 C1101 1.390 . S
C1103 C1104 1.387 . S
C1103 H1106 0.950 . S
C1104 C1103 1.387 . S
C1104 C1107 1.387 . S
H1105 C1101 0.950 . S
H1106 C1103 0.950 . S
C1107 C1098 1.390 . S
C1107 H1100 0.950 . S
C1107 C1104 1.387 . S
C1108 C1109 1.387 . S
C1108 H1112 0.950 . S
C1108 C1117 1.390 . S
C1109 C1108 1.387 . S
C1109 C1111 1.387 . S
H1110 C1117 0.950 . S
C1111 C1109 1.387 . S
C1111 C1113 1.390 . S
C1111 H1115 0.950 . S
H1112 C1108 0.950 . S
C1113 C1111 1.390 . S
C1113 C1114 1.387 . S
C1113 H1116 0.950 . S
C1114 C1113 1.387 . S
C1114 C1117 1.387 . S
H1115 C1111 0.950 . S
H1116 C1113 0.950 . S
C1117 C1108 1.390 . S
C1117 H1110 0.950 . S
C1117 C1114 1.387 . S
C1118 C1119 1.387 . S
C1118 H1122 0.950 . S
C1118 C1127 1.390 . S
C1119 C1118 1.387 . S
C1119 C1121 1.387 . S
H1120 C1127 0.950 . S
C1121 C1119 1.387 . S
C1121 C1123 1.390 . S
C1121 H1125 0.950 . S
H1122 C1118 0.950 . S
C1123 C1121 1.390 . S
C1123 C1124 1.387 . S
C1123 H1126 0.950 . S
C1124 C1123 1.387 . S
C1124 C1127 1.387 . S
H1125 C1121 0.950 . S
H1126 C1123 0.950 . S
C1127 C1118 1.390 . S
C1127 H1120 0.950 . S
C1127 C1124 1.387 . S
C1128 C1129 1.387 . S
C1128 H1132 0.950 . S
C1128 C1137 1.390 . S
C1129 C1128 1.387 . S
C1129 C1131 1.387 . S
H1130 C1137 0.950 . S
C1131 C1129 1.387 . S
C1131 C1133 1.390 . S
C1131 H1135 0.950 . S
H1132 C1128 0.950 . S
C1133 C1131 1.390 . S
C1133 C1134 1.387 . S
C1133 H1136 0.950 . S
C1134 C1133 1.387 . S
C1134 C1137 1.387 . S
H1135 C1131 0.950 . S
H1136 C1133 0.950 . S
C1137 C1128 1.390 . S
C1137 H1130 0.950 . S
C1137 C1134 1.387 . S
C1138 C1139 1.387 . S
C1138 H1142 0.950 . S
C1138 C1147 1.390 . S
C1139 C1138 1.387 . S
C1139 C1141 1.387 . S
H1140 C1147 0.950 . S
C1141 C1139 1.387 . S
C1141 C1143 1.390 . S
C1141 H1145 0.950 . S
H1142 C1138 0.950 . S
C1143 C1141 1.390 . S
C1143 C1144 1.387 . S
C1143 H1146 0.950 . S
C1144 C1143 1.387 . S
C1144 C1147 1.387 . S
H1145 C1141 0.950 . S
H1146 C1143 0.950 . S
C1147 C1138 1.390 . S
C1147 H1140 0.950 . S
C1147 C1144 1.387 . S
C1148 C1149 1.387 . S
C1148 H1152 0.950 . S
C1148 C1157 1.390 . S
C1149 C1148 1.387 . S
C1149 C1151 1.387 . S
H1150 C1157 0.950 . S
C1151 C1149 1.387 . S
C1151 C1153 1.390 . S
C1151 H1155 0.950 . S
H1152 C1148 0.950 . S
C1153 C1151 1.390 . S
C1153 C1154 1.387 . S
C1153 H1156 0.950 . S
C1154 C1153 1.387 . S
C1154 C1157 1.387 . S
H1155 C1151 0.950 . S
H1156 C1153 0.950 . S
C1157 C1148 1.390 . S
C1157 H1150 0.950 . S
C1157 C1154 1.387 . S
C1158 C1159 1.387 . S
C1158 H1162 0.950 . S
C1158 C1167 1.390 . S
C1159 C1158 1.387 . S
C1159 C1161 1.387 . S
H1160 C1167 0.950 . S
C1161 C1159 1.387 . S
C1161 C1163 1.390 . S
C1161 H1165 0.950 . S
H1162 C1158 0.950 . S
C1163 C1161 1.390 . S
C1163 C1164 1.387 . S
C1163 H1166 0.950 . S
C1164 C1163 1.387 . S
C1164 C1167 1.387 . S
H1165 C1161 0.950 . S
H1166 C1163 0.950 . S
C1167 C1158 1.390 . S
C1167 H1160 0.950 . S
C1167 C1164 1.387 . S
C1168 C1169 1.387 . S
C1168 H1172 0.950 . S
C1168 C1177 1.390 . S
C1169 C1168 1.387 . S
C1169 C1171 1.387 . S
H1170 C1177 0.950 . S
C1171 C1169 1.387 . S
C1171 C1173 1.390 . S
C1171 H1175 0.950 . S
H1172 C1168 0.950 . S
C1173 C1171 1.390 . S
C1173 C1174 1.387 . S
C1173 H1176 0.950 . S
C1174 C1173 1.387 . S
C1174 C1177 1.387 . S
H1175 C1171 0.950 . S
H1176 C1173 0.950 . S
C1177 C1168 1.390 . S
C1177 H1170 0.950 . S
C1177 C1174 1.387 . S
C1178 C1179 1.387 . S
C1178 H1182 0.950 . S
C1178 C1187 1.390 . S
C1179 C1178 1.387 . S
C1179 C1181 1.387 . S
H1180 C1187 0.950 . S
C1181 C1179 1.387 . S
C1181 C1183 1.390 . S
C1181 H1185 0.950 . S
H1182 C1178 0.950 . S
C1183 C1181 1.390 . S
C1183 C1184 1.387 . S
C1183 H1186 0.950 . S
C1184 C1183 1.387 . S
C1184 C1187 1.387 . S
H1185 C1181 0.950 . S
H1186 C1183 0.950 . S
C1187 C1178 1.390 . S
C1187 H1180 0.950 . S
C1187 C1184 1.387 . S
C1188 C1189 1.387 . S
C1188 H1192 0.950 . S
C1188 C1197 1.390 . S
C1189 C1188 1.387 . S
C1189 C1191 1.387 . S
H1190 C1197 0.950 . S
C1191 C1189 1.387 . S
C1191 C1193 1.390 . S
C1191 H1195 0.950 . S
H1192 C1188 0.950 . S
C1193 C1191 1.390 . S
C1193 C1194 1.387 . S
C1193 H1196 0.950 . S
C1194 C1193 1.387 . S
C1194 C1197 1.387 . S
H1195 C1191 0.950 . S
H1196 C1193 0.950 . S
C1197 C1188 1.390 . S
C1197 H1190 0.950 . S
C1197 C1194 1.387 . S
C1198 C1199 1.387 . S
C1198 H1202 0.950 . S
C1198 C1207 1.390 . S
C1199 C1198 1.387 . S
C1199 C1201 1.387 . S
H1200 C1207 0.950 . S
C1201 C1199 1.387 . S
C1201 C1203 1.390 . S
C1201 H1205 0.950 . S
H1202 C1198 0.950 . S
C1203 C1201 1.390 . S
C1203 C1204 1.387 . S
C1203 H1206 0.950 . S
C1204 C1203 1.387 . S
C1204 C1207 1.387 . S
H1205 C1201 0.950 . S
H1206 C1203 0.950 . S
C1207 C1198 1.390 . S
C1207 H1200 0.950 . S
C1207 C1204 1.387 . S
C1208 C1209 1.387 . S
C1208 H1212 0.950 . S
C1208 C1217 1.390 . S
C1209 C1208 1.387 . S
C1209 C1211 1.387 . S
H1210 C1217 0.950 . S
C1211 C1209 1.387 . S
C1211 C1213 1.390 . S
C1211 H1215 0.950 . S
H1212 C1208 0.950 . S
C1213 C1211 1.390 . S
C1213 C1214 1.387 . S
C1213 H1216 0.950 . S
C1214 C1213 1.387 . S
C1214 C1217 1.387 . S
H1215 C1211 0.950 . S
H1216 C1213 0.950 . S
C1217 C1208 1.390 . S
C1217 H1210 0.950 . S
C1217 C1214 1.387 . S
C1218 C1219 1.387 . S
C1218 H1222 0.950 . S
C1218 C1227 1.390 . S
C1219 C1218 1.387 . S
C1219 C1221 1.387 . S
H1220 C1227 0.950 . S
C1221 C1219 1.387 . S
C1221 C1223 1.390 . S
C1221 H1225 0.950 . S
H1222 C1218 0.950 . S
C1223 C1221 1.390 . S
C1223 C1224 1.387 . S
C1223 H1226 0.950 . S
C1224 C1223 1.387 . S
C1224 C1227 1.387 . S
H1225 C1221 0.950 . S
H1226 C1223 0.950 . S
C1227 C1218 1.390 . S
C1227 H1220 0.950 . S
C1227 C1224 1.387 . S
C1228 C1229 1.387 . S
C1228 H1232 0.950 . S
C1228 C1237 1.390 . S
C1229 C1228 1.387 . S
C1229 C1231 1.387 . S
H1230 C1237 0.950 . S
C1231 C1229 1.387 . S
C1231 C1233 1.390 . S
C1231 H1235 0.950 . S
H1232 C1228 0.950 . S
C1233 C1231 1.390 . S
C1233 C1234 1.387 . S
C1233 H1236 0.950 . S
C1234 C1233 1.387 . S
C1234 C1237 1.387 . S
H1235 C1231 0.950 . S
H1236 C1233 0.950 . S
C1237 C1228 1.390 . S
C1237 H1230 0.950 . S
C1237 C1234 1.387 . S
C1238 C1239 1.387 . S
C1238 H1242 0.950 . S
C1238 C1247 1.390 . S
C1239 C1238 1.387 . S
C1239 C1241 1.387 . S
H1240 C1247 0.950 . S
C1241 C1239 1.387 . S
C1241 C1243 1.390 . S
C1241 H1245 0.950 . S
H1242 C1238 0.950 . S
C1243 C1241 1.390 . S
C1243 C1244 1.387 . S
C1243 H1246 0.950 . S
C1244 C1243 1.387 . S
C1244 C1247 1.387 . S
H1245 C1241 0.950 . S
H1246 C1243 0.950 . S
C1247 C1238 1.390 . S
C1247 H1240 0.950 . S
C1247 C1244 1.387 . S
C529 C7 1.324 . S
C534 C360 1.408 . S
C539 C29 1.324 . S
C544 C514 1.413 . S
C549 C470 1.413 . S
C554 C51 1.324 . S
C559 C72 1.324 . S
C564 C492 1.413 . S
C569 C94 1.324 . S
C574 C378 1.414 . S
C579 C117 1.328 . S
C584 C400 1.413 . S
C589 C138 1.328 . S
C594 C422 1.418 . S
C599 C160 1.328 . S
C604 C444 1.413 . S
C609 C183 1.324 . S
C614 C8 1.408 . S
C619 C204 1.324 . S
C624 C30 1.413 . S
C629 C52 1.413 . S
C634 C226 1.333 . S
C639 C70 1.413 . S
C644 C249 1.328 . S
C649 C270 1.324 . S
C654 C92 1.412 . S
C659 C293 1.328 . S
C664 C118 1.413 . S
C669 C315 1.324 . S
C674 C136 1.414 . S
C679 C336 1.324 . S
C684 C158 1.413 . S
C689 C359 1.324 . S
C694 C184 1.408 . S
C699 C380 1.328 . S
C704 C268 1.418 . S
C709 C294 1.413 . S
C714 C402 1.324 . S
C719 C424 1.328 . S
C724 C316 1.412 . S
C729 C446 1.324 . S
C734 C334 1.413 . S
C739 C469 1.324 . S
C744 C224 1.414 . S
C749 C250 1.413 . S
C754 C491 1.328 . S
C759 C513 1.324 . S
C764 C202 1.413 . S
C769 C466 1.413 . S
C774 C97 1.333 . S
C779 C488 1.413 . S
C784 C115 1.328 . S
C789 C141 1.324 . S
C794 C356 1.414 . S
C799 C163 1.324 . S
C804 C510 1.413 . S
C809 C426 1.413 . S
C814 C5 1.328 . S
C819 C27 1.328 . S
C824 C448 1.413 . S
C829 C382 1.413 . S
C834 C49 1.319 . S
C839 C75 1.328 . S
C844 C404 1.413 . S
C849 C313 1.324 . S
C854 C96 1.418 . S
C859 C339 1.328 . S
C864 C114 1.413 . S
C869 C273 1.328 . S
C874 C140 1.409 . S
C879 C162 1.413 . S
C884 C291 1.328 . S
C889 C229 1.324 . S
C894 C4 1.414 . S
C899 C247 1.328 . S
C904 C26 1.413 . S
C909 C181 1.328 . S
C914 C48 1.412 . S
C919 C207 1.324 . S
C924 C74 1.413 . S
C929 C312 1.413 . S
C934 C467 1.333 . S
C939 C427 1.324 . S
C944 C228 1.408 . S
C949 C246 1.413 . S
C954 C449 1.324 . S
C959 C383 1.324 . S
C964 C180 1.414 . S
C969 C405 1.328 . S
C974 C206 1.413 . S
C979 C357 1.328 . S
C984 C272 1.412 . S
C989 C511 1.328 . S
C994 C290 1.413 . S
C999 C338 1.413 . S
C1004 C489 1.328 . S
C1009 C445 1.503 . S
C1014 C9 1.501 . S
C1019 C379 1.504 . S
C1024 C31 1.504 . S
C1029 C53 1.504 . S
C1034 C401 1.504 . S
C1039 C71 1.501 . S
C1044 C423 1.505 . S
C1049 C515 1.503 . S
C1054 C93 1.501 . S
C1059 C119 1.504 . S
C1064 C471 1.499 . S
C1069 C493 1.502 . S
C1074 C137 1.506 . S
C1079 C159 1.501 . S
C1084 C361 1.500 . S
C1089 C185 1.501 . S
C1094 C335 1.501 . S
C1099 C269 1.502 . S
C1104 C203 1.506 . S
C1109 C225 1.503 . S
C1114 C295 1.503 . S
C1119 C317 1.502 . S
C1124 C251 1.502 . S
C1129 C403 1.503 . S
C1134 C95 1.504 . S
C1139 C425 1.504 . S
C1144 C116 1.500 . S
C1149 C139 1.501 . S
C1154 C447 1.501 . S
C1159 C161 1.503 . S
C1164 C381 1.498 . S
C1169 C490 1.503 . S
C1174 C6 1.504 . S
C1179 C358 1.504 . S
C1184 C28 1.505 . S
C1189 C512 1.503 . S
C1194 C50 1.499 . S
C1199 C73 1.504 . S
C1204 C468 1.505 . S
C1209 C205 1.504 . S
C1214 C314 1.505 . S
C1219 C337 1.501 . S
C1224 C227 1.499 . S
C1229 C271 1.502 . S
C1234 C248 1.501 . S
C1239 C292 1.504 . S
C1244 C182 1.505 . S
