# Generated by pormake.
# Topology vby, (6)-cn, num edge types: 1
# Building blocks:
#     Node 0, Type 0, BuildingBlock: PAMTUU_clean_sbu_0, # of connection points: 6
#     Node 1, Type 0, BuildingBlock: PAMTUU_clean_sbu_0, # of connection points: 6
#     Node 2, Type 0, BuildingBlock: PAMTUU_clean_sbu_0, # of connection points: 6
#     Node 3, Type 0, BuildingBlock: PAMTUU_clean_sbu_0, # of connection points: 6
#     Node 4, Type 0, BuildingBlock: PAMTUU_clean_sbu_0, # of connection points: 6
#     Node 5, Type 0, BuildingBlock: PAMTUU_clean_sbu_0, # of connection points: 6
#     Node 6, Type 0, BuildingBlock: PAMTUU_clean_sbu_0, # of connection points: 6
#     Node 7, Type 0, BuildingBlock: PAMTUU_clean_sbu_0, # of connection points: 6
#     Edge 8, Type (0, 0), BuildingBlock: AJUNOK_clean_linker_0, # of connection points: 2
#     Edge 9, Type (0, 0), BuildingBlock: AJUNOK_clean_linker_0, # of connection points: 2
#     Edge 10, Type (0, 0), BuildingBlock: AJUNOK_clean_linker_0, # of connection points: 2
#     Edge 11, Type (0, 0), BuildingBlock: AJUNOK_clean_linker_0, # of connection points: 2
#     Edge 12, Type (0, 0), BuildingBlock: AJUNOK_clean_linker_0, # of connection points: 2
#     Edge 13, Type (0, 0), BuildingBlock: AJUNOK_clean_linker_0, # of connection points: 2
#     Edge 14, Type (0, 0), BuildingBlock: AJUNOK_clean_linker_0, # of connection points: 2
#     Edge 15, Type (0, 0), BuildingBlock: AJUNOK_clean_linker_0, # of connection points: 2
#     Edge 16, Type (0, 0), BuildingBlock: AJUNOK_clean_linker_0, # of connection points: 2
#     Edge 17, Type (0, 0), BuildingBlock: AJUNOK_clean_linker_0, # of connection points: 2
#     Edge 18, Type (0, 0), BuildingBlock: AJUNOK_clean_linker_0, # of connection points: 2
#     Edge 19, Type (0, 0), BuildingBlock: AJUNOK_clean_linker_0, # of connection points: 2
#     Edge 20, Type (0, 0), BuildingBlock: AJUNOK_clean_linker_0, # of connection points: 2
#     Edge 21, Type (0, 0), BuildingBlock: AJUNOK_clean_linker_0, # of connection points: 2
#     Edge 22, Type (0, 0), BuildingBlock: AJUNOK_clean_linker_0, # of connection points: 2
#     Edge 23, Type (0, 0), BuildingBlock: AJUNOK_clean_linker_0, # of connection points: 2
#     Edge 24, Type (0, 0), BuildingBlock: AJUNOK_clean_linker_0, # of connection points: 2
#     Edge 25, Type (0, 0), BuildingBlock: AJUNOK_clean_linker_0, # of connection points: 2
#     Edge 26, Type (0, 0), BuildingBlock: AJUNOK_clean_linker_0, # of connection points: 2
#     Edge 27, Type (0, 0), BuildingBlock: AJUNOK_clean_linker_0, # of connection points: 2
#     Edge 28, Type (0, 0), BuildingBlock: AJUNOK_clean_linker_0, # of connection points: 2
#     Edge 29, Type (0, 0), BuildingBlock: AJUNOK_clean_linker_0, # of connection points: 2
#     Edge 30, Type (0, 0), BuildingBlock: AJUNOK_clean_linker_0, # of connection points: 2
#     Edge 31, Type (0, 0), BuildingBlock: AJUNOK_clean_linker_0, # of connection points: 2
# Relax obj value: 0.145
# Max RMSD: 0.187
# Mean RMSD: 0.187
data_MOF--net-vby--node1-PAMTUU_clean_sbu_0--edge1-AJUNOK_clean_linker_0
_symmetry_space_group_name_H-M    P1
_symmetry_Int_Tables_number       1
_symmetry_cell_setting            triclinic
loop_
_symmetry_equiv_pos_as_xyz
'x, y, z'
_cell_length_a     11.245921
_cell_length_b     89.530968
_cell_length_c     21.945283
_cell_angle_alpha  89.961231
_cell_angle_beta   81.506107
_cell_angle_gamma 89.859359
loop_
_atom_site_label
_atom_site_type_symbol
_atom_site_fract_x
_atom_site_fract_y
_atom_site_fract_z
_atom_type_partial_charge
Tb0 Tb 0.10378 0.36976 0.01549 0.0
Tb1 Tb 0.10776 0.40746 0.01106 0.0
C2 C 0.09663 0.38803 0.89069 0.0
C3 C 0.16791 0.32741 0.01904 0.0
C4 C 0.24213 0.29737 0.02115 0.0
C5 C 0.22457 0.30414 0.96542 0.0
C6 C 0.18765 0.31901 0.96439 0.0
C7 C 0.19215 0.32089 0.07413 0.0
C8 C 0.2299 0.30605 0.07504 0.0
C9 C 0.10035 0.34156 0.02049 0.0
O10 O 0.29154 0.37594 0.01377 0.0
O11 O 0.29548 0.40168 0.00193 0.0
O12 O 0.13242 0.40051 0.10308 0.0
O13 O 1.03928 0.37772 0.1075 0.0
O14 O 0.16066 0.42804 0.96944 0.0
O15 O 1.03961 0.427 0.05764 0.0
O16 O 0.92163 0.40109 0.01291 0.0
O17 O 0.91685 0.37527 0.01666 0.0
O18 O 0.09128 0.37532 0.92064 0.0
O19 O 0.10926 0.40111 0.91587 0.0
C20 C 0.34899 0.38878 0.00662 0.0
O21 O 0.09635 0.35017 0.06855 0.0
O22 O 0.10586 0.34919 0.96968 0.0
C23 C 0.07884 0.38934 0.13446 0.0
C24 C 0.08863 0.45172 0.01471 0.0
C25 C 0.06843 0.48302 0.01638 0.0
C26 C 0.06899 0.47505 0.0715 0.0
C27 C 0.07827 0.45949 0.07069 0.0
C28 C 0.08782 0.45965 0.95963 0.0
C29 C 0.07679 0.47519 0.9605 0.0
C30 C 0.09567 0.43535 0.01388 0.0
C31 C 0.86446 0.3883 0.01408 0.0
H32 H 0.23341 0.29773 0.92313 0.0
H33 H 0.16805 0.32366 0.92136 0.0
H34 H 0.17661 0.32701 0.11714 0.0
H35 H 0.24616 0.30123 0.11835 0.0
H36 H 0.06102 0.48085 0.11523 0.0
H37 H 0.07788 0.45354 0.11374 0.0
H38 H 0.09415 0.45381 0.91603 0.0
H39 H 0.07628 0.48112 0.91748 0.0
Tb40 Tb 0.98853 0.62342 0.0252 0.0
Tb41 Tb 0.98786 0.66067 0.02444 0.0
C42 C 1.01216 0.64168 0.90453 0.0
C43 C 1.00156 0.57906 0.02255 0.0
C44 C 1.02442 0.54771 0.02014 0.0
C45 C 1.01656 0.55567 0.96571 0.0
C46 C 1.00623 0.57124 0.96684 0.0
C47 C 1.00722 0.5711 0.07716 0.0
C48 C 1.01885 0.55556 0.07594 0.0
C49 C 0.9967 0.59549 0.02335 0.0
O50 O 0.17682 0.62981 0.00736 0.0
O51 O 0.17177 0.65482 0.03381 0.0
O52 O 0.94192 0.65371 0.12069 0.0
O53 O 1.03647 0.63086 0.11231 0.0
O54 O 0.97014 0.67989 0.97197 0.0
O55 O 1.01058 0.68166 0.06491 0.0
O56 O 0.80427 0.65425 0.01672 0.0
O57 O 0.8 0.62957 0.04743 0.0
O58 O 0.95203 0.63099 0.93593 0.0
O59 O 0.06122 0.65235 0.93324 0.0
C60 C 0.23003 0.6422 0.02088 0.0
O61 O 0.94336 0.60302 0.0706 0.0
O62 O 1.043 0.60366 0.97658 0.0
C63 C 0.99431 0.64247 0.14504 0.0
C64 C 0.92732 0.70344 0.02184 0.0
C65 C 0.85297 0.73375 0.02385 0.0
C66 C 0.88864 0.72707 0.07638 0.0
C67 C 0.925 0.71209 0.07545 0.0
C68 C 0.88866 0.71001 0.96989 0.0
C69 C 0.85162 0.72494 0.97095 0.0
C70 C 0.99131 0.6889 0.01567 0.0
C71 C 0.74567 0.64182 0.03282 0.0
H72 H 1.02074 0.54988 0.92212 0.0
H73 H 1.00225 0.57717 0.92413 0.0
H74 H 1.00479 0.57692 0.1206 0.0
H75 H 1.02305 0.54966 0.11869 0.0
H76 H 0.8939 0.73359 0.11743 0.0
H77 H 0.95697 0.70751 0.11577 0.0
H78 H 0.89181 0.7038 0.92733 0.0
H79 H 0.82428 0.72968 0.92976 0.0
Tb80 Tb 0.1116 0.62335 0.51616 0.0
Tb81 Tb 0.11099 0.66076 0.51459 0.0
C82 C 0.07716 0.64234 0.63603 0.0
C83 C 0.08819 0.57954 0.52283 0.0
C84 C 0.05956 0.54818 0.5221 0.0
C85 C 0.06507 0.55586 0.57739 0.0
C86 C 0.07763 0.57133 0.57778 0.0
C87 C 0.08319 0.572 0.46716 0.0
C88 C 0.06813 0.55644 0.46689 0.0
C89 C 0.12228 0.59538 0.52544 0.0
O90 O 0.92132 0.62936 0.52928 0.0
O91 O 0.92949 0.6545 0.50457 0.0
O92 O 0.15694 0.65332 0.41917 0.0
O93 O 0.06724 0.63012 0.42692 0.0
O94 O 0.12099 0.68031 0.56582 0.0
O95 O 0.09282 0.68146 0.47067 0.0
O96 O 0.29338 0.65458 0.52424 0.0
O97 O 0.29991 0.62975 0.49552 0.0
O98 O 0.13728 0.63136 0.60657 0.0
O99 O 1.03506 0.65339 0.60646 0.0
C100 C 0.86954 0.64201 0.5167 0.0
O101 O 0.16791 0.60264 0.47581 0.0
O102 O 0.06466 0.60398 0.56791 0.0
C103 C 0.10692 0.64195 0.3947 0.0
C104 C 0.17047 0.70342 0.51471 0.0
C105 C 0.24692 0.73355 0.50921 0.0
C106 C 0.24247 0.72536 0.45481 0.0
C107 C 0.20331 0.71049 0.45752 0.0
C108 C 0.18136 0.71135 0.5688 0.0
C109 C 0.21873 0.72621 0.56613 0.0
C110 C 0.10555 0.68901 0.52008 0.0
C111 C 0.3527 0.64217 0.50885 0.0
H112 H 0.06403 0.54991 0.6204 0.0
H113 H 0.08456 0.57684 0.62109 0.0
H114 H 0.09341 0.57804 0.42394 0.0
H115 H 0.06452 0.55087 0.42342 0.0
H116 H 0.26723 0.7305 0.41008 0.0
H117 H 0.19506 0.70473 0.41498 0.0
H118 H 0.15497 0.7063 0.61362 0.0
H119 H 0.22047 0.73214 0.609 0.0
Tb120 Tb 0.98047 0.37077 0.52194 0.0
Tb121 Tb 0.97592 0.40811 0.52033 0.0
C122 C 0.98982 0.38973 0.64066 0.0
C123 C 0.92194 0.32802 0.52185 0.0
C124 C 0.85205 0.29766 0.52322 0.0
C125 C 0.87673 0.30463 0.57736 0.0
C126 C 0.91196 0.31964 0.57662 0.0
C127 C 0.89062 0.32123 0.46869 0.0
C128 C 0.85538 0.30628 0.46948 0.0
C129 C 0.98618 0.3425 0.51642 0.0
O130 O 0.7973 0.37704 0.51133 0.0
O131 O 0.79087 0.40119 0.54748 0.0
O132 O 0.94293 0.39946 0.43247 0.0
O133 O 0.05902 0.37869 0.43134 0.0
O134 O 0.91744 0.42882 0.55939 0.0
O135 O 1.02089 0.42741 0.46756 0.0
O136 O 0.16639 0.40224 0.50785 0.0
O137 O 0.16379 0.37692 0.53049 0.0
O138 O 0.93821 0.37831 0.61731 0.0
O139 O 1.02422 0.40169 0.60819 0.0
C140 C 0.73731 0.38924 0.53007 0.0
O141 O 0.97114 0.35122 0.47062 0.0
O142 O 0.99841 0.35006 0.56591 0.0
C143 C 1.011 0.38931 0.402 0.0
C144 C 1.00477 0.45164 0.51438 0.0
C145 C 1.03606 0.48291 0.52017 0.0
C146 C 1.03297 0.47577 0.46345 0.0
C147 C 1.01809 0.46034 0.46064 0.0
C148 C 1.01253 0.45858 0.57104 0.0
C149 C 1.02956 0.47407 0.57377 0.0
C150 C 0.96376 0.43609 0.50991 0.0
C151 C 0.22067 0.38969 0.51962 0.0
H152 H 0.87459 0.29827 0.61952 0.0
H153 H 0.93711 0.32445 0.61814 0.0
H154 H 0.89873 0.32726 0.42547 0.0
H155 H 0.83397 0.30134 0.42741 0.0
H156 H 1.03696 0.48216 0.42129 0.0
H157 H 1.0108 0.45528 0.41648 0.0
H158 H 1.00204 0.45215 0.6133 0.0
H159 H 1.0356 0.47912 0.618 0.0
Tb160 Tb 0.61718 0.871 0.01107 0.0
Tb161 Tb 0.61434 0.90859 0.01964 0.0
C162 C 0.60316 0.89115 0.89493 0.0
C163 C 0.67522 0.82809 0.0111 0.0
C164 C 0.74479 0.79767 0.01506 0.0
C165 C 0.71261 0.80389 0.96087 0.0
C166 C 0.67798 0.81891 0.95898 0.0
C167 C 0.71327 0.82206 0.06426 0.0
C168 C 0.74853 0.80708 0.06601 0.0
C169 C 0.61126 0.84266 0.01392 0.0
O170 O 0.80396 0.87682 0.01476 0.0
O171 O 0.80404 0.90258 0.00277 0.0
O172 O 0.64316 0.89996 0.10807 0.0
O173 O 0.54377 0.87786 0.10441 0.0
O174 O 0.6704 0.92945 0.98194 0.0
O175 O 0.55979 0.92775 0.07237 0.0
O176 O 0.42516 0.90195 0.03465 0.0
O177 O 0.43551 0.87751 -0.00079 0.0
O178 O 0.65072 0.87913 0.9164 0.0
O179 O 0.57245 0.90295 0.92928 0.0
C180 C 0.85942 0.88977 0.00747 0.0
O181 O 0.61576 0.85116 0.0616 0.0
O182 O 0.60986 0.85047 0.96387 0.0
C183 C 0.58407 0.88872 0.13563 0.0
C184 C 0.59215 0.9525 0.02942 0.0
C185 C 0.56562 0.98389 0.02866 0.0
C186 C 0.59008 0.9764 0.08172 0.0
C187 C 0.60122 0.96091 0.08229 0.0
C188 C 0.56927 0.95981 0.97575 0.0
C189 C 0.55514 0.97539 0.97555 0.0
C190 C 0.62015 0.93647 0.03134 0.0
C191 C 0.37482 0.88979 0.01607 0.0
H192 H 0.7089 0.79698 0.92071 0.0
H193 H 0.6475 0.82312 0.91765 0.0
H194 H 0.71121 0.82872 0.10557 0.0
H195 H 0.77649 0.80282 0.10786 0.0
H196 H 0.60451 0.98248 0.12256 0.0
H197 H 0.62151 0.9555 0.12377 0.0
H198 H 0.56367 0.95354 0.93407 0.0
H199 H 0.5366 0.98078 0.93376 0.0
Tb200 Tb 0.47842 0.12394 0.0225 0.0
Tb201 Tb 0.48292 0.16124 0.02558 0.0
C202 C 0.51928 0.1433 0.90557 0.0
C203 C 0.50415 0.08036 0.01368 0.0
C204 C 0.53663 0.04915 0.02204 0.0
C205 C 0.51075 0.0557 0.96728 0.0
C206 C 0.49555 0.0711 0.96313 0.0
C207 C 0.53302 0.07404 0.06822 0.0
C208 C 0.55059 0.05856 0.07209 0.0
C209 C 0.46755 0.09606 0.00895 0.0
O210 O 0.66795 0.12974 0.0152 0.0
O211 O 0.66525 0.15518 0.03515 0.0
O212 O 0.44901 0.15442 0.12167 0.0
O213 O 0.50744 0.12949 0.11513 0.0
O214 O 0.47374 0.18046 0.9721 0.0
O215 O 0.50259 0.1821 0.06715 0.0
O216 O 0.2982 0.15525 0.01686 0.0
O217 O 0.29262 0.13053 0.04609 0.0
O218 O 0.4487 0.13316 0.93445 0.0
O219 O 0.56965 0.15313 0.93722 0.0
C220 C 0.72174 0.14234 0.02613 0.0
O221 O 0.41612 0.10311 0.05791 0.0
O222 O 0.53046 0.10483 0.96907 0.0
C223 C 0.4805 0.14187 0.1464 0.0
C224 C 0.42454 0.20375 0.02182 0.0
C225 C 0.34778 0.23378 0.02428 0.0
C226 C 0.36918 0.22664 0.07868 0.0
C227 C 0.40693 0.21175 0.0775 0.0
C228 C 0.3996 0.21079 0.96783 0.0
C229 C 0.36137 0.22563 0.96908 0.0
C230 C 0.48983 0.18938 0.01701 0.0
C231 C 0.23896 0.14282 0.03229 0.0
H232 H 0.49815 0.04888 0.92801 0.0
H233 H 0.47202 0.07573 0.92085 0.0
H234 H 0.53979 0.08099 0.10795 0.0
H235 H 0.57412 0.05397 0.11438 0.0
H236 H 0.36213 0.23274 0.12166 0.0
H237 H 0.42794 0.20676 0.11962 0.0
H238 H 0.41477 0.20504 0.92394 0.0
H239 H 0.3452 0.23084 0.92648 0.0
Tb240 Tb 0.6147 0.1231 0.51879 0.0
Tb241 Tb 0.61965 0.16108 0.51107 0.0
C242 C 0.59324 0.14352 0.63708 0.0
C243 C 0.59272 0.07949 0.52393 0.0
C244 C 0.55947 0.0482 0.51679 0.0
C245 C 0.57465 0.05505 0.5728 0.0
C246 C 0.59023 0.07046 0.57631 0.0
C247 C 0.57383 0.07287 0.46812 0.0
C248 C 0.55574 0.05739 0.46482 0.0
C249 C 0.63338 0.09508 0.52815 0.0
O250 O 0.42903 0.12854 0.51612 0.0
O251 O 0.43124 0.15452 0.51854 0.0
O252 O 0.6273 0.15325 0.41725 0.0
O253 O 0.57885 0.12819 0.42698 0.0
O254 O 0.5643 0.18189 0.55097 0.0
O255 O 0.66341 0.18041 0.45883 0.0
O256 O 0.8078 0.15572 0.50663 0.0
O257 O 0.79953 0.13006 0.5181 0.0
O258 O 0.5599 0.13137 0.61106 0.0
O259 O 0.63939 0.15509 0.60516 0.0
C260 C 0.375 0.14161 0.51821 0.0
O261 O 0.67336 0.10254 0.47823 0.0
O262 O 0.5794 0.1036 0.57186 0.0
C263 C 0.59391 0.1406 0.395 0.0
C264 C 0.66764 0.20396 0.50806 0.0
C265 C 0.74273 0.23398 0.5155 0.0
C266 C 0.72636 0.22767 0.45871 0.0
C267 C 0.69084 0.21285 0.45503 0.0
C268 C 0.68361 0.21012 0.5652 0.0
C269 C 0.7214 0.225 0.5688 0.0
C270 C 0.61175 0.18923 0.50199 0.0
C271 C 0.85879 0.14272 0.51256 0.0
H272 H 0.57912 0.04845 0.61376 0.0
H273 H 0.60618 0.07526 0.6197 0.0
H274 H 0.5758 0.07957 0.42686 0.0
H275 H 0.54003 0.05265 0.42139 0.0
H276 H 0.73685 0.23432 0.41706 0.0
H277 H 0.67654 0.20849 0.41062 0.0
H278 H 0.66464 0.20359 0.60704 0.0
H279 H 0.73284 0.22951 0.61333 0.0
Tb280 Tb 0.47843 0.87021 0.52633 0.0
Tb281 Tb 0.47661 0.90779 0.5267 0.0
C282 C 0.48776 0.88887 0.64433 0.0
C283 C 0.42152 0.82749 0.52622 0.0
C284 C 0.35456 0.7973 0.51592 0.0
C285 C 0.34811 0.8041 0.57397 0.0
C286 C 0.38141 0.81899 0.57901 0.0
C287 C 0.42432 0.8209 0.46791 0.0
C288 C 0.39123 0.80592 0.46283 0.0
C289 C 0.47831 0.84208 0.53427 0.0
O290 O 0.28989 0.87685 0.5469 0.0
O291 O 0.2972 0.90122 0.51293 0.0
O292 O 0.53701 0.90123 0.43159 0.0
O293 O 0.46864 0.87681 0.43205 0.0
O294 O 0.50691 0.92744 0.57476 0.0
O295 O 0.4251 0.9283 0.49149 0.0
O296 O 0.66649 0.90234 0.52231 0.0
O297 O 0.66731 0.87637 0.51725 0.0
O298 O 0.53536 0.87784 0.61037 0.0
O299 O 0.42685 0.89933 0.62048 0.0
C300 C 0.23723 0.88903 0.53031 0.0
O301 O 0.52988 0.84941 0.486 0.0
O302 O 0.42617 0.85092 0.57745 0.0
C303 C 0.50992 0.88902 0.40301 0.0
C304 C 0.5029 0.95145 0.52558 0.0
C305 C 0.53402 0.98282 0.51637 0.0
C306 C 0.50867 0.97444 0.46559 0.0
C307 C 0.49353 0.95892 0.47009 0.0
C308 C 0.5319 0.95976 0.5756 0.0
C309 C 0.54762 0.97523 0.57103 0.0
C310 C 0.45942 0.93592 0.5364 0.0
C311 C 0.72209 0.88933 0.51919 0.0
H312 H 0.31954 0.79779 0.6157 0.0
H313 H 0.38044 0.82369 0.62457 0.0
H314 H 0.45673 0.82709 0.42638 0.0
H315 H 0.39935 0.80094 0.41746 0.0
H316 H 0.49479 0.97993 0.42324 0.0
H317 H 0.46865 0.95291 0.43107 0.0
H318 H 0.53703 0.9544 0.61942 0.0
H319 H 0.56768 0.9813 0.61093 0.0
C320 C 0.53789 0.37629 0.02844 0.0
C321 C 0.48114 0.38878 0.00627 0.0
C322 C 0.66173 0.37621 0.03078 0.0
C323 C 0.7338 0.38863 0.01123 0.0
H324 H 0.48619 0.36654 0.04502 0.0
H325 H 0.7008 0.36637 0.04879 0.0
S326 S 0.63179 0.42374 0.945 0.0
N327 N 0.50853 0.41368 0.96161 0.0
N328 N 0.74076 0.41346 0.96584 0.0
C329 C 0.67884 0.4011 0.988 0.0
C330 C 0.5528 0.4012 0.98559 0.0
C331 C 0.42969 0.65487 0.01516 0.0
C332 C 0.36089 0.64176 0.02397 0.0
C333 C 0.55322 0.65477 0.01866 0.0
C334 C 0.61322 0.64157 0.03195 0.0
H335 H 0.38817 0.66532 0.00474 0.0
H336 H 0.60185 0.66517 0.01063 0.0
S337 S 0.47081 0.60438 0.06339 0.0
N338 N 0.35983 0.61535 0.04951 0.0
N339 N 0.5914 0.61507 0.05628 0.0
C340 C 0.54449 0.62841 0.04207 0.0
C341 C 0.41875 0.62852 0.03798 0.0
C342 C 0.66958 0.62903 0.5236 0.0
C343 C 0.73793 0.64222 0.51397 0.0
C344 C 0.54564 0.62899 0.52055 0.0
C345 C 0.48485 0.64217 0.50829 0.0
H346 H 0.71177 0.61861 0.53371 0.0
H347 H 0.49675 0.61861 0.5291 0.0
S348 S 0.62172 0.67955 0.47633 0.0
N349 N 0.73447 0.66877 0.48917 0.0
N350 N 0.50277 0.6686 0.48396 0.0
C351 C 0.55202 0.65537 0.49782 0.0
C352 C 0.67804 0.65542 0.5005 0.0
C353 C 0.54322 0.37652 0.51807 0.0
C354 C 0.6048 0.38967 0.52952 0.0
C355 C 0.41945 0.37664 0.51503 0.0
C356 C 0.35189 0.38994 0.5225 0.0
H357 H 0.59079 0.36598 0.51128 0.0
H358 H 0.37681 0.36619 0.50605 0.0
S359 S 0.46747 0.4274 0.55552 0.0
N360 N 0.58657 0.4164 0.54982 0.0
N361 N 0.35474 0.41654 0.54387 0.0
C362 C 0.41167 0.40315 0.53443 0.0
C363 C 0.53763 0.40304 0.53806 0.0
C364 C 1.03914 0.89788 0.05373 0.0
C365 C 0.99108 0.89007 0.00742 0.0
C366 C 0.1635 0.89785 0.05615 0.0
C367 C 0.24406 0.89001 0.01224 0.0
H368 H 0.97988 0.90384 0.08902 0.0
H369 H 0.19649 0.90377 0.09328 0.0
S370 S 0.16468 0.86972 0.87649 0.0
N371 N 1.0341 0.8755 0.91361 0.0
N372 N 0.26749 0.87551 0.91754 0.0
C373 C 0.19717 0.8826 0.9645 0.0
C374 C 0.07073 0.8826 0.96223 0.0
C375 C 1.04384 0.15562 0.02205 0.0
C376 C 0.10646 0.14244 0.03233 0.0
C377 C 0.91968 0.1555 0.02028 0.0
C378 C 0.85295 0.14216 0.02815 0.0
H379 H 0.09084 0.16617 0.01517 0.0
H380 H 0.8761 0.16595 0.01199 0.0
S381 S 0.97168 0.1046 0.05776 0.0
N382 N 0.09025 0.11561 0.05133 0.0
N383 N 0.85772 0.11551 0.04806 0.0
C384 C 0.91385 0.12892 0.03871 0.0
C385 C 1.04014 0.12903 0.04084 0.0
C386 C 0.18723 0.15433 0.49615 0.0
C387 C 0.24325 0.14181 0.51849 0.0
C388 C 0.06313 0.15453 0.49422 0.0
C389 C 0.99014 0.14223 0.51463 0.0
H390 H 0.23978 0.16398 0.47911 0.0
H391 H 1.02452 0.16437 0.47603 0.0
S392 S 0.0921 0.10716 0.58183 0.0
N393 N 0.21557 0.11712 0.5644 0.0
N394 N 0.98311 0.11743 0.56084 0.0
C395 C 1.04508 0.12972 0.53797 0.0
C396 C 0.17127 0.12954 0.53989 0.0
C397 C 0.93003 0.89943 0.4888 0.0
C398 C 0.85264 0.8891 0.52247 0.0
C399 C 0.05397 0.89935 0.49187 0.0
C400 C 0.10509 0.88903 0.52928 0.0
H401 H 0.89484 0.90748 0.45917 0.0
H402 H 0.11024 0.90734 0.46405 0.0
S403 S 0.93703 0.8611 0.63322 0.0
N404 N 0.83342 0.86914 0.59822 0.0
N405 N 0.06538 0.86914 0.60496 0.0
C406 C 1.02751 0.87897 0.56468 0.0
C407 C 0.90163 0.87897 0.56105 0.0
C408 C 0.96013 0.52235 0.98988 0.0
C409 C 1.03841 0.53125 0.01872 0.0
C410 C 0.97058 0.50674 0.98904 0.0
C411 C 0.05953 0.49951 0.01711 0.0
H412 H 0.8892 0.52748 0.9686 0.0
H413 H 0.90762 0.50026 0.96707 0.0
S414 S 0.29419 0.51777 0.09287 0.0
N415 N 0.21303 0.53174 0.07198 0.0
N416 N 0.23198 0.50239 0.07075 0.0
C417 C 0.13973 0.50828 0.04493 0.0
C418 C 0.12937 0.52415 0.04564 0.0
C419 C 0.11719 0.50746 0.47664 0.0
C420 C 1.04212 0.49955 0.52273 0.0
C421 C 0.12108 0.52311 0.4763 0.0
C422 C 0.05008 0.53156 0.52208 0.0
H423 H 0.17469 0.5015 0.44068 0.0
H424 H 0.18207 0.5286 0.44044 0.0
S425 S 0.83167 0.51643 0.65079 0.0
N426 N 0.89045 0.5015 0.61378 0.0
N427 N 0.89786 0.53085 0.61321 0.0
C428 C 0.97349 0.52383 0.56809 0.0
C429 C 0.96956 0.50788 0.56845 0.0
C430 C 0.60859 1.0087 0.97649 0.0
C431 C 0.55587 1.00054 0.02829 0.0
C432 C 0.60372 0.02434 0.97547 0.0
C433 C 0.54596 0.03256 0.02619 0.0
H434 H 0.65602 1.00301 0.93659 0.0
H435 H 0.64674 0.03004 0.93456 0.0
S436 S 0.38776 0.01657 0.17215 0.0
N437 N 0.43952 1.0019 0.131 0.0
N438 N 0.43109 0.03124 0.12907 0.0
C439 C 0.49238 0.02455 0.07829 0.0
C440 C 0.49703 1.00859 0.0793 0.0
C441 C 0.48604 0.0236 0.56331 0.0
C442 C 0.55014 0.03154 0.51352 0.0
C443 C 0.4814 1.00796 0.56364 0.0
C444 C 0.53987 0.99948 0.51401 0.0
H445 H 0.43829 0.02951 0.60257 0.0
H446 H 0.43032 1.00247 0.60306 0.0
S447 S 0.72301 1.01456 0.37296 0.0
N448 N 0.67653 0.02952 0.41367 0.0
N449 N 0.66537 1.00015 0.41395 0.0
C450 C 0.60334 1.00721 0.4636 0.0
C451 C 0.60901 0.02318 0.46342 0.0
C452 C 0.35447 0.27466 0.97812 0.0
C453 C 0.26801 0.28115 0.02323 0.0
C454 C 0.37911 0.25934 0.97863 0.0
C455 C 0.31798 0.24992 0.02421 0.0
H456 H 0.40458 0.28151 0.94254 0.0
H457 H 0.44794 0.25487 0.94357 0.0
S458 S 0.07584 0.26115 0.14941 0.0
N459 N 0.11575 0.27684 0.11243 0.0
N460 N 0.16277 0.24803 0.1135 0.0
C461 C 0.23003 0.25622 0.06899 0.0
C462 C 0.2048 0.27183 0.06846 0.0
C463 C 0.84304 0.77413 0.96936 0.0
C464 C 0.77133 0.78136 0.01871 0.0
C465 C 0.86852 0.7588 0.97141 0.0
C466 C 0.8231 0.75 0.02284 0.0
H467 H 0.88136 0.78041 0.92903 0.0
H468 H 0.92593 0.75387 0.93263 0.0
S469 S 0.62263 0.76316 0.16219 0.0
N470 N 0.6496 0.77827 0.11926 0.0
N471 N 0.69777 0.74953 0.12304 0.0
C472 C 0.74999 0.75702 0.07219 0.0
C473 C 0.72399 0.77265 0.07013 0.0
C474 C 0.35116 0.75556 0.54838 0.0
C475 C 0.27723 0.74978 0.50759 0.0
C476 C 0.37599 0.77086 0.5504 0.0
C477 C 0.32839 0.78107 0.51157 0.0
H478 H 0.39072 0.74818 0.57904 0.0
H479 H 0.43383 0.7747 0.58247 0.0
S480 S 0.12515 0.77197 0.39846 0.0
N481 N 0.15294 0.7557 0.42893 0.0
N482 N 0.20149 0.78443 0.43222 0.0
C483 C 0.25486 0.7755 0.47038 0.0
C484 C 0.22885 0.7599 0.46851 0.0
C485 C 0.74496 0.27461 0.56782 0.0
C486 C 0.82832 0.28132 0.52185 0.0
C487 C 0.71945 0.25928 0.56621 0.0
C488 C 0.77715 0.25002 0.51885 0.0
H489 H 0.69695 0.28134 0.60453 0.0
H490 H 0.65168 0.25474 0.6015 0.0
S491 S 1.01364 0.26184 0.39154 0.0
N492 N 0.97518 0.27734 0.43022 0.0
N493 N 0.92934 0.24858 0.42779 0.0
C494 C 0.86396 0.25654 0.47385 0.0
C495 C 0.88902 0.27214 0.47521 0.0
C496 C 0.07029 0.37635 0.23567 0.0
C497 C 0.06366 0.38969 0.20242 0.0
C498 C 0.05562 0.37636 0.30025 0.0
C499 C 1.03083 0.38965 0.33387 0.0
H500 H 0.08807 0.36584 0.2116 0.0
H501 H 0.06147 0.36583 0.32395 0.0
S502 S 1.00357 0.42753 0.26844 0.0
N503 N 1.03145 0.41652 0.20766 0.0
N504 N 1.00151 0.41653 0.32899 0.0
C505 C 1.02378 0.40306 0.3011 0.0
C506 C 1.04089 0.40308 0.23537 0.0
C507 C 0.93387 0.64561 0.2594 0.0
C508 C 1.02379 0.6436 0.20835 0.0
C509 C 0.96221 0.64518 0.31979 0.0
C510 C 0.08148 0.64311 0.33076 0.0
H511 H 0.84096 0.64701 0.25273 0.0
H512 H 0.89031 0.64636 0.35824 0.0
S513 S 0.34948 0.63811 0.21239 0.0
N514 N 0.23651 0.63981 0.17261 0.0
N515 N 0.28988 0.63953 0.28568 0.0
C516 C 0.17223 0.64155 0.28008 0.0
C517 C 0.14319 0.64166 0.21892 0.0
C518 C 0.0766 0.65413 0.80218 0.0
C519 C 1.02575 0.64169 0.83591 0.0
C520 C 0.09058 0.65443 0.73747 0.0
C521 C 0.05661 0.64219 0.70404 0.0
H522 H 0.10574 0.66376 0.82583 0.0
H523 H 0.1306 0.66417 0.71337 0.0
S524 S 0.91376 0.60729 0.76876 0.0
N525 N 0.93643 0.61706 0.82974 0.0
N526 N 0.96595 0.61762 0.70841 0.0
C527 C 1.00498 0.62978 0.7367 0.0
C528 C 0.98868 0.62953 0.80252 0.0
C529 C 0.94822 0.38061 0.74993 0.0
C530 C 1.02004 0.38882 0.70384 0.0
C531 C 0.97591 0.38008 0.81021 0.0
C532 C 0.07602 0.38773 0.82612 0.0
H533 H 0.86893 0.37484 0.73973 0.0
H534 H 0.91667 0.374 0.84503 0.0
S535 S 0.30229 0.40885 0.72047 0.0
N536 N 0.203 0.40336 0.67688 0.0
N537 N 0.25283 0.40255 0.79037 0.0
C538 C 0.15067 0.39551 0.78017 0.0
C539 C 0.12325 0.39598 0.7189 0.0
C540 C 0.58916 0.87614 0.23689 0.0
C541 C 0.55953 0.88865 0.2035 0.0
C542 C 0.57252 0.87631 0.30164 0.0
C543 C 0.52564 0.88899 0.33491 0.0
H544 H 0.62793 0.86631 0.2128 0.0
H545 H 0.59852 0.86655 0.32579 0.0
S546 S 0.41721 0.92364 0.26875 0.0
N547 N 0.4704 0.91342 0.20812 0.0
N548 N 0.43888 0.91372 0.32965 0.0
C549 C 0.49195 0.90134 0.30191 0.0
C550 C 0.50891 0.90117 0.23618 0.0
C551 C 0.58697 0.15181 0.22886 0.0
C552 C 0.50078 0.14207 0.21095 0.0
C553 C 0.61812 0.15115 0.28833 0.0
C554 C 0.56386 0.14072 0.33174 0.0
H555 H 0.63296 0.15971 0.19614 0.0
H556 H 0.68604 0.15874 0.3001 0.0
S557 S 0.32183 0.11411 0.30912 0.0
N558 N 0.35574 0.12249 0.24171 0.0
N559 N 0.41156 0.12144 0.35417 0.0
C560 C 0.47471 0.13125 0.31471 0.0
C561 C 0.44387 0.13187 0.25405 0.0
C562 C 0.47911 0.13371 0.8037 0.0
C563 C 0.54048 0.14373 0.83721 0.0
C564 C 0.49665 0.13381 0.73923 0.0
C565 C 0.57612 0.14396 0.70536 0.0
H566 H 0.41653 0.12569 0.8273 0.0
H567 H 0.44655 0.12587 0.71588 0.0
S568 S 0.76197 0.17226 0.77053 0.0
N569 N 0.68634 0.16396 0.83135 0.0
N570 N 0.71869 0.16412 0.7101 0.0
C571 C 0.6383 0.15405 0.7381 0.0
C572 C 0.62079 0.15393 0.80395 0.0
C573 C 0.59786 0.87992 0.72842 0.0
C574 C 0.51235 0.88972 0.70899 0.0
C575 C 0.62781 0.88056 0.78807 0.0
C576 C 0.57368 0.89104 0.83111 0.0
H577 H 0.64326 0.87167 0.69723 0.0
H578 H 0.69432 0.87279 0.80035 0.0
S579 S 0.33658 0.91841 0.80584 0.0
N580 N 0.36951 0.90975 0.73905 0.0
N581 N 0.42448 0.91088 0.85143 0.0
C582 C 0.48631 0.90074 0.81284 0.0
C583 C 0.45596 0.90011 0.75186 0.0
loop_
_geom_bond_atom_site_label_1
_geom_bond_atom_site_label_2
_geom_bond_distance
_geom_bond_site_symmetry_2
_ccdc_geom_bond_type
Tb0 C9 2.764 . S
Tb0 O10 2.325 1_554 S
Tb0 O13 2.303 . S
Tb0 O17 2.322 1_455 S
Tb0 O18 2.349 1_554 S
Tb0 O21 2.415 . S
Tb0 O22 2.399 1_554 S
Tb1 O11 2.322 . S
Tb1 O12 2.349 . S
Tb1 O14 2.415 1_554 S
Tb1 O15 2.399 . S
Tb1 O16 2.325 1_455 S
Tb1 O19 2.303 1_554 S
Tb1 C30 2.764 1_455 S
C2 O18 1.261 . S
C2 O19 1.257 . S
C3 C6 1.358 1_554 S
C3 C7 1.332 . S
C3 C9 1.504 . S
C4 C5 1.373 1_554 S
C4 C8 1.308 . S
C5 C4 1.373 1_556 S
C5 C6 1.429 . S
C5 H32 0.932 . S
C6 C3 1.358 1_556 S
C6 C5 1.429 . S
C6 H33 0.930 . S
C7 C3 1.332 . S
C7 C8 1.394 . S
C7 H34 0.932 . S
C8 C4 1.308 . S
C8 C7 1.394 . S
C8 H35 0.929 . S
C9 Tb0 2.764 . S
C9 C3 1.504 . S
C9 O21 1.239 . S
C9 O22 1.263 1_554 S
O10 Tb0 2.325 1_556 S
O10 C20 1.236 1_556 S
O11 Tb1 2.322 . S
O11 C20 1.257 . S
O12 Tb1 2.349 . S
O12 C23 1.261 . S
O13 Tb0 2.303 . S
O13 C23 1.257 . S
O14 Tb1 2.415 1_556 S
O14 C30 1.239 1_456 S
O15 Tb1 2.399 . S
O15 C30 1.263 1_455 S
O16 Tb1 2.325 1_655 S
O16 C31 1.236 . S
O17 Tb0 2.322 1_655 S
O17 C31 1.257 . S
O18 Tb0 2.349 1_556 S
O18 C2 1.261 . S
O19 Tb1 2.303 1_556 S
O19 C2 1.257 . S
C20 O10 1.236 1_554 S
C20 O11 1.257 . S
O21 Tb0 2.415 . S
O21 C9 1.239 . S
O22 Tb0 2.399 1_556 S
O22 C9 1.263 1_556 S
C23 O12 1.261 . S
C23 O13 1.257 . S
C24 C27 1.358 . S
C24 C28 1.332 1_554 S
C24 C30 1.504 . S
C25 C26 1.362 1_556 S
C25 C29 1.316 . S
C26 C25 1.362 1_554 S
C26 C27 1.429 . S
C26 H36 0.932 . S
C27 C24 1.358 . S
C27 C26 1.429 . S
C27 H37 0.930 . S
C28 C24 1.332 1_556 S
C28 C29 1.394 . S
C28 H38 0.932 . S
C29 C25 1.316 . S
C29 C28 1.394 . S
C29 H39 0.929 . S
C30 Tb1 2.764 1_655 S
C30 O14 1.239 1_654 S
C30 O15 1.263 1_655 S
C30 C24 1.504 . S
C31 O16 1.236 . S
C31 O17 1.257 . S
H32 C5 0.932 . S
H33 C6 0.930 . S
H34 C7 0.932 . S
H35 C8 0.929 . S
H36 C26 0.932 . S
H37 C27 0.930 . S
H38 C28 0.932 . S
H39 C29 0.929 . S
Tb40 C49 2.764 1_655 S
Tb40 O50 2.325 1_655 S
Tb40 O53 2.303 . S
Tb40 O57 2.322 . S
Tb40 O58 2.349 1_554 S
Tb40 O61 2.415 . S
Tb40 O62 2.399 1_554 S
Tb41 O51 2.322 1_655 S
Tb41 O52 2.349 . S
Tb41 O54 2.415 1_554 S
Tb41 O55 2.399 . S
Tb41 O56 2.325 . S
Tb41 O59 2.303 1_554 S
Tb41 C70 2.764 . S
C42 O58 1.261 . S
C42 O59 1.257 . S
C43 C46 1.358 1_554 S
C43 C47 1.332 . S
C43 C49 1.504 . S
C44 C45 1.361 1_554 S
C44 C48 1.308 . S
C45 C44 1.361 1_556 S
C45 C46 1.432 . S
C45 H72 0.941 . S
C46 C43 1.358 1_556 S
C46 C45 1.432 . S
C46 H73 0.930 . S
C47 C43 1.332 . S
C47 C48 1.394 . S
C47 H74 0.932 . S
C48 C44 1.308 . S
C48 C47 1.394 . S
C48 H75 0.929 . S
C49 Tb40 2.764 1_455 S
C49 C43 1.504 . S
C49 O61 1.239 1_455 S
C49 O62 1.263 1_454 S
O50 Tb40 2.325 1_455 S
O50 C60 1.236 . S
O51 Tb41 2.322 1_455 S
O51 C60 1.257 . S
O52 Tb41 2.349 . S
O52 C63 1.261 . S
O53 Tb40 2.303 . S
O53 C63 1.257 . S
O54 Tb41 2.415 1_556 S
O54 C70 1.239 1_556 S
O55 Tb41 2.399 . S
O55 C70 1.263 . S
O56 Tb41 2.325 . S
O56 C71 1.236 . S
O57 Tb40 2.322 . S
O57 C71 1.257 . S
O58 Tb40 2.349 1_556 S
O58 C42 1.261 . S
O59 Tb41 2.303 1_556 S
O59 C42 1.257 . S
C60 O50 1.236 . S
C60 O51 1.257 . S
O61 Tb40 2.415 . S
O61 C49 1.239 1_655 S
O62 Tb40 2.399 1_556 S
O62 C49 1.263 1_656 S
C63 O52 1.261 . S
C63 O53 1.257 . S
C64 C67 1.358 . S
C64 C68 1.332 1_554 S
C64 C70 1.504 . S
C65 C66 1.373 . S
C65 C69 1.308 1_554 S
C66 C65 1.373 . S
C66 C67 1.429 . S
C66 H76 0.932 . S
C67 C64 1.358 . S
C67 C66 1.429 . S
C67 H77 0.930 . S
C68 C64 1.332 1_556 S
C68 C69 1.394 . S
C68 H78 0.932 . S
C69 C65 1.308 1_556 S
C69 C68 1.394 . S
C69 H79 0.929 . S
C70 Tb41 2.764 . S
C70 O54 1.239 1_554 S
C70 O55 1.263 . S
C70 C64 1.504 . S
C71 O56 1.236 . S
C71 O57 1.257 . S
H72 C45 0.941 . S
H73 C46 0.930 . S
H74 C47 0.932 . S
H75 C48 0.929 . S
H76 C66 0.932 . S
H77 C67 0.930 . S
H78 C68 0.932 . S
H79 C69 0.929 . S
Tb80 C89 2.764 1_455 S
Tb80 O90 2.325 1_455 S
Tb80 O93 2.303 . S
Tb80 O97 2.322 . S
Tb80 O98 2.349 . S
Tb80 O101 2.415 . S
Tb80 O102 2.399 . S
Tb81 O91 2.322 1_455 S
Tb81 O92 2.349 . S
Tb81 O94 2.415 . S
Tb81 O95 2.399 . S
Tb81 O96 2.325 . S
Tb81 O99 2.303 . S
Tb81 C110 2.764 . S
C82 O98 1.261 . S
C82 O99 1.257 . S
C83 C86 1.358 . S
C83 C87 1.332 . S
C83 C89 1.504 . S
C84 C85 1.373 . S
C84 C88 1.308 . S
C85 C84 1.373 . S
C85 C86 1.429 . S
C85 H112 0.932 . S
C86 C83 1.358 . S
C86 C85 1.429 . S
C86 H113 0.930 . S
C87 C83 1.332 . S
C87 C88 1.394 . S
C87 H114 0.932 . S
C88 C84 1.308 . S
C88 C87 1.394 . S
C88 H115 0.929 . S
C89 Tb80 2.764 1_655 S
C89 C83 1.504 . S
C89 O101 1.239 1_655 S
C89 O102 1.263 1_655 S
O90 Tb80 2.325 1_655 S
O90 C100 1.236 . S
O91 Tb81 2.322 1_655 S
O91 C100 1.257 . S
O92 Tb81 2.349 . S
O92 C103 1.261 . S
O93 Tb80 2.303 . S
O93 C103 1.257 . S
O94 Tb81 2.415 . S
O94 C110 1.239 . S
O95 Tb81 2.399 . S
O95 C110 1.263 . S
O96 Tb81 2.325 . S
O96 C111 1.236 . S
O97 Tb80 2.322 . S
O97 C111 1.257 . S
O98 Tb80 2.349 . S
O98 C82 1.261 . S
O99 Tb81 2.303 . S
O99 C82 1.257 . S
C100 O90 1.236 . S
C100 O91 1.257 . S
O101 Tb80 2.415 . S
O101 C89 1.239 1_455 S
O102 Tb80 2.399 . S
O102 C89 1.263 1_455 S
C103 O92 1.261 . S
C103 O93 1.257 . S
C104 C107 1.358 . S
C104 C108 1.332 . S
C104 C110 1.504 . S
C105 C106 1.373 . S
C105 C109 1.308 . S
C106 C105 1.373 . S
C106 C107 1.429 . S
C106 H116 0.932 . S
C107 C104 1.358 . S
C107 C106 1.429 . S
C107 H117 0.930 . S
C108 C104 1.332 . S
C108 C109 1.394 . S
C108 H118 0.932 . S
C109 C105 1.308 . S
C109 C108 1.394 . S
C109 H119 0.929 . S
C110 Tb81 2.764 . S
C110 O94 1.239 . S
C110 O95 1.263 . S
C110 C104 1.504 . S
C111 O96 1.236 . S
C111 O97 1.257 . S
H112 C85 0.932 . S
H113 C86 0.930 . S
H114 C87 0.932 . S
H115 C88 0.929 . S
H116 C106 0.932 . S
H117 C107 0.930 . S
H118 C108 0.932 . S
H119 C109 0.929 . S
Tb120 C129 2.764 . S
Tb120 O130 2.325 . S
Tb120 O133 2.303 . S
Tb120 O137 2.322 1_655 S
Tb120 O138 2.349 . S
Tb120 O141 2.415 . S
Tb120 O142 2.399 . S
Tb121 O131 2.322 . S
Tb121 O132 2.349 . S
Tb121 O134 2.415 . S
Tb121 O135 2.399 . S
Tb121 O136 2.325 1_655 S
Tb121 O139 2.303 . S
Tb121 C150 2.764 1_655 S
C122 O138 1.261 . S
C122 O139 1.257 . S
C123 C126 1.358 . S
C123 C127 1.332 . S
C123 C129 1.504 . S
C124 C125 1.373 . S
C124 C128 1.308 . S
C125 C124 1.373 . S
C125 C126 1.429 . S
C125 H152 0.932 . S
C126 C123 1.358 . S
C126 C125 1.429 . S
C126 H153 0.930 . S
C127 C123 1.332 . S
C127 C128 1.394 . S
C127 H154 0.932 . S
C128 C124 1.308 . S
C128 C127 1.394 . S
C128 H155 0.929 . S
C129 Tb120 2.764 . S
C129 C123 1.504 . S
C129 O141 1.239 . S
C129 O142 1.263 . S
O130 Tb120 2.325 . S
O130 C140 1.236 . S
O131 Tb121 2.322 . S
O131 C140 1.257 . S
O132 Tb121 2.349 . S
O132 C143 1.261 . S
O133 Tb120 2.303 . S
O133 C143 1.257 . S
O134 Tb121 2.415 . S
O134 C150 1.239 1_655 S
O135 Tb121 2.399 . S
O135 C150 1.263 1_655 S
O136 Tb121 2.325 1_455 S
O136 C151 1.236 . S
O137 Tb120 2.322 1_455 S
O137 C151 1.257 . S
O138 Tb120 2.349 . S
O138 C122 1.261 . S
O139 Tb121 2.303 . S
O139 C122 1.257 . S
C140 O130 1.236 . S
C140 O131 1.257 . S
O141 Tb120 2.415 . S
O141 C129 1.239 . S
O142 Tb120 2.399 . S
O142 C129 1.263 . S
C143 O132 1.261 . S
C143 O133 1.257 . S
C144 C147 1.358 . S
C144 C148 1.332 . S
C144 C150 1.504 . S
C145 C146 1.373 . S
C145 C149 1.308 . S
C146 C145 1.373 . S
C146 C147 1.429 . S
C146 H156 0.932 . S
C147 C144 1.358 . S
C147 C146 1.429 . S
C147 H157 0.930 . S
C148 C144 1.332 . S
C148 C149 1.394 . S
C148 H158 0.932 . S
C149 C145 1.308 . S
C149 C148 1.394 . S
C149 H159 0.929 . S
C150 Tb121 2.764 1_455 S
C150 O134 1.239 1_455 S
C150 O135 1.263 1_455 S
C150 C144 1.504 . S
C151 O136 1.236 . S
C151 O137 1.257 . S
H152 C125 0.932 . S
H153 C126 0.930 . S
H154 C127 0.932 . S
H155 C128 0.929 . S
H156 C146 0.932 . S
H157 C147 0.930 . S
H158 C148 0.932 . S
H159 C149 0.929 . S
Tb160 C169 2.764 . S
Tb160 O170 2.325 1_554 S
Tb160 O173 2.303 . S
Tb160 O177 2.322 . S
Tb160 O178 2.349 1_554 S
Tb160 O181 2.415 . S
Tb160 O182 2.399 1_554 S
Tb161 O171 2.322 . S
Tb161 O172 2.349 . S
Tb161 O174 2.415 1_554 S
Tb161 O175 2.399 . S
Tb161 O176 2.325 . S
Tb161 O179 2.303 1_554 S
Tb161 C190 2.764 . S
C162 O178 1.261 . S
C162 O179 1.257 . S
C163 C166 1.358 1_554 S
C163 C167 1.332 . S
C163 C169 1.504 . S
C164 C165 1.373 1_554 S
C164 C168 1.308 . S
C165 C164 1.373 1_556 S
C165 C166 1.429 . S
C165 H192 0.932 . S
C166 C163 1.358 1_556 S
C166 C165 1.429 . S
C166 H193 0.930 . S
C167 C163 1.332 . S
C167 C168 1.394 . S
C167 H194 0.932 . S
C168 C164 1.308 . S
C168 C167 1.394 . S
C168 H195 0.929 . S
C169 Tb160 2.764 . S
C169 C163 1.504 . S
C169 O181 1.239 . S
C169 O182 1.263 1_554 S
O170 Tb160 2.325 1_556 S
O170 C180 1.236 1_556 S
O171 Tb161 2.322 . S
O171 C180 1.257 . S
O172 Tb161 2.349 . S
O172 C183 1.261 . S
O173 Tb160 2.303 . S
O173 C183 1.257 . S
O174 Tb161 2.415 1_556 S
O174 C190 1.239 1_556 S
O175 Tb161 2.399 . S
O175 C190 1.263 . S
O176 Tb161 2.325 . S
O176 C191 1.236 . S
O177 Tb160 2.322 . S
O177 C191 1.257 . S
O178 Tb160 2.349 1_556 S
O178 C162 1.261 . S
O179 Tb161 2.303 1_556 S
O179 C162 1.257 . S
C180 O170 1.236 1_554 S
C180 O171 1.257 . S
O181 Tb160 2.415 . S
O181 C169 1.239 . S
O182 Tb160 2.399 1_556 S
O182 C169 1.263 1_556 S
C183 O172 1.261 . S
C183 O173 1.257 . S
C184 C187 1.358 . S
C184 C188 1.332 1_554 S
C184 C190 1.504 . S
C185 C186 1.361 1_556 S
C185 C189 1.317 . S
C186 C185 1.361 1_554 S
C186 C187 1.429 . S
C186 H196 0.932 . S
C187 C184 1.358 . S
C187 C186 1.429 . S
C187 H197 0.930 . S
C188 C184 1.332 1_556 S
C188 C189 1.394 . S
C188 H198 0.932 . S
C189 C185 1.317 . S
C189 C188 1.394 . S
C189 H199 0.929 . S
C190 Tb161 2.764 . S
C190 O174 1.239 1_554 S
C190 O175 1.263 . S
C190 C184 1.504 . S
C191 O176 1.236 . S
C191 O177 1.257 . S
H192 C165 0.932 . S
H193 C166 0.930 . S
H194 C167 0.932 . S
H195 C168 0.929 . S
H196 C186 0.932 . S
H197 C187 0.930 . S
H198 C188 0.932 . S
H199 C189 0.929 . S
Tb200 C209 2.764 . S
Tb200 O210 2.325 . S
Tb200 O213 2.303 . S
Tb200 O217 2.322 . S
Tb200 O218 2.349 1_554 S
Tb200 O221 2.415 . S
Tb200 O222 2.399 1_554 S
Tb201 O211 2.322 . S
Tb201 O212 2.349 . S
Tb201 O214 2.415 1_554 S
Tb201 O215 2.399 . S
Tb201 O216 2.325 . S
Tb201 O219 2.303 1_554 S
Tb201 C230 2.764 . S
C202 O218 1.261 . S
C202 O219 1.257 . S
C203 C206 1.358 1_554 S
C203 C207 1.332 . S
C203 C209 1.504 . S
C204 C205 1.361 1_554 S
C204 C208 1.308 . S
C205 C204 1.361 1_556 S
C205 C206 1.432 . S
C205 H232 0.941 . S
C206 C203 1.358 1_556 S
C206 C205 1.432 . S
C206 H233 0.930 . S
C207 C203 1.332 . S
C207 C208 1.394 . S
C207 H234 0.932 . S
C208 C204 1.308 . S
C208 C207 1.394 . S
C208 H235 0.929 . S
C209 Tb200 2.764 . S
C209 C203 1.504 . S
C209 O221 1.239 . S
C209 O222 1.263 1_554 S
O210 Tb200 2.325 . S
O210 C220 1.236 . S
O211 Tb201 2.322 . S
O211 C220 1.257 . S
O212 Tb201 2.349 . S
O212 C223 1.261 . S
O213 Tb200 2.303 . S
O213 C223 1.257 . S
O214 Tb201 2.415 1_556 S
O214 C230 1.239 1_556 S
O215 Tb201 2.399 . S
O215 C230 1.263 . S
O216 Tb201 2.325 . S
O216 C231 1.236 . S
O217 Tb200 2.322 . S
O217 C231 1.257 . S
O218 Tb200 2.349 1_556 S
O218 C202 1.261 . S
O219 Tb201 2.303 1_556 S
O219 C202 1.257 . S
C220 O210 1.236 . S
C220 O211 1.257 . S
O221 Tb200 2.415 . S
O221 C209 1.239 . S
O222 Tb200 2.399 1_556 S
O222 C209 1.263 1_556 S
C223 O212 1.261 . S
C223 O213 1.257 . S
C224 C227 1.358 . S
C224 C228 1.332 1_554 S
C224 C230 1.504 . S
C225 C226 1.373 . S
C225 C229 1.308 1_554 S
C226 C225 1.373 . S
C226 C227 1.429 . S
C226 H236 0.932 . S
C227 C224 1.358 . S
C227 C226 1.429 . S
C227 H237 0.930 . S
C228 C224 1.332 1_556 S
C228 C229 1.394 . S
C228 H238 0.932 . S
C229 C225 1.308 1_556 S
C229 C228 1.394 . S
C229 H239 0.929 . S
C230 Tb201 2.764 . S
C230 O214 1.239 1_554 S
C230 O215 1.263 . S
C230 C224 1.504 . S
C231 O216 1.236 . S
C231 O217 1.257 . S
H232 C205 0.941 . S
H233 C206 0.930 . S
H234 C207 0.932 . S
H235 C208 0.929 . S
H236 C226 0.932 . S
H237 C227 0.930 . S
H238 C228 0.932 . S
H239 C229 0.929 . S
Tb240 C249 2.764 . S
Tb240 O250 2.325 . S
Tb240 O253 2.303 . S
Tb240 O257 2.322 . S
Tb240 O258 2.349 . S
Tb240 O261 2.415 . S
Tb240 O262 2.399 . S
Tb241 O251 2.322 . S
Tb241 O252 2.349 . S
Tb241 O254 2.415 . S
Tb241 O255 2.399 . S
Tb241 O256 2.325 . S
Tb241 O259 2.303 . S
Tb241 C270 2.764 . S
C242 O258 1.261 . S
C242 O259 1.257 . S
C243 C246 1.358 . S
C243 C247 1.332 . S
C243 C249 1.504 . S
C244 C245 1.373 . S
C244 C248 1.308 . S
C245 C244 1.373 . S
C245 C246 1.429 . S
C245 H272 0.932 . S
C246 C243 1.358 . S
C246 C245 1.429 . S
C246 H273 0.930 . S
C247 C243 1.332 . S
C247 C248 1.394 . S
C247 H274 0.932 . S
C248 C244 1.308 . S
C248 C247 1.394 . S
C248 H275 0.929 . S
C249 Tb240 2.764 . S
C249 C243 1.504 . S
C249 O261 1.239 . S
C249 O262 1.263 . S
O250 Tb240 2.325 . S
O250 C260 1.236 . S
O251 Tb241 2.322 . S
O251 C260 1.257 . S
O252 Tb241 2.349 . S
O252 C263 1.261 . S
O253 Tb240 2.303 . S
O253 C263 1.257 . S
O254 Tb241 2.415 . S
O254 C270 1.239 . S
O255 Tb241 2.399 . S
O255 C270 1.263 . S
O256 Tb241 2.325 . S
O256 C271 1.236 . S
O257 Tb240 2.322 . S
O257 C271 1.257 . S
O258 Tb240 2.349 . S
O258 C242 1.261 . S
O259 Tb241 2.303 . S
O259 C242 1.257 . S
C260 O250 1.236 . S
C260 O251 1.257 . S
O261 Tb240 2.415 . S
O261 C249 1.239 . S
O262 Tb240 2.399 . S
O262 C249 1.263 . S
C263 O252 1.261 . S
C263 O253 1.257 . S
C264 C267 1.358 . S
C264 C268 1.332 . S
C264 C270 1.504 . S
C265 C266 1.373 . S
C265 C269 1.308 . S
C266 C265 1.373 . S
C266 C267 1.429 . S
C266 H276 0.932 . S
C267 C264 1.358 . S
C267 C266 1.429 . S
C267 H277 0.930 . S
C268 C264 1.332 . S
C268 C269 1.394 . S
C268 H278 0.932 . S
C269 C265 1.308 . S
C269 C268 1.394 . S
C269 H279 0.929 . S
C270 Tb241 2.764 . S
C270 O254 1.239 . S
C270 O255 1.263 . S
C270 C264 1.504 . S
C271 O256 1.236 . S
C271 O257 1.257 . S
H272 C245 0.932 . S
H273 C246 0.930 . S
H274 C247 0.932 . S
H275 C248 0.929 . S
H276 C266 0.932 . S
H277 C267 0.930 . S
H278 C268 0.932 . S
H279 C269 0.929 . S
Tb280 C289 2.764 . S
Tb280 O290 2.325 . S
Tb280 O293 2.303 . S
Tb280 O297 2.322 . S
Tb280 O298 2.349 . S
Tb280 O301 2.415 . S
Tb280 O302 2.399 . S
Tb281 O291 2.322 . S
Tb281 O292 2.349 . S
Tb281 O294 2.415 . S
Tb281 O295 2.399 . S
Tb281 O296 2.325 . S
Tb281 O299 2.303 . S
Tb281 C310 2.764 . S
C282 O298 1.261 . S
C282 O299 1.257 . S
C283 C286 1.358 . S
C283 C287 1.332 . S
C283 C289 1.504 . S
C284 C285 1.373 . S
C284 C288 1.308 . S
C285 C284 1.373 . S
C285 C286 1.429 . S
C285 H312 0.932 . S
C286 C283 1.358 . S
C286 C285 1.429 . S
C286 H313 0.930 . S
C287 C283 1.332 . S
C287 C288 1.394 . S
C287 H314 0.932 . S
C288 C284 1.308 . S
C288 C287 1.394 . S
C288 H315 0.929 . S
C289 Tb280 2.764 . S
C289 C283 1.504 . S
C289 O301 1.239 . S
C289 O302 1.263 . S
O290 Tb280 2.325 . S
O290 C300 1.236 . S
O291 Tb281 2.322 . S
O291 C300 1.257 . S
O292 Tb281 2.349 . S
O292 C303 1.261 . S
O293 Tb280 2.303 . S
O293 C303 1.257 . S
O294 Tb281 2.415 . S
O294 C310 1.239 . S
O295 Tb281 2.399 . S
O295 C310 1.263 . S
O296 Tb281 2.325 . S
O296 C311 1.236 . S
O297 Tb280 2.322 . S
O297 C311 1.257 . S
O298 Tb280 2.349 . S
O298 C282 1.261 . S
O299 Tb281 2.303 . S
O299 C282 1.257 . S
C300 O290 1.236 . S
C300 O291 1.257 . S
O301 Tb280 2.415 . S
O301 C289 1.239 . S
O302 Tb280 2.399 . S
O302 C289 1.263 . S
C303 O292 1.261 . S
C303 O293 1.257 . S
C304 C307 1.358 . S
C304 C308 1.332 . S
C304 C310 1.504 . S
C305 C306 1.373 . S
C305 C309 1.308 . S
C306 C305 1.373 . S
C306 C307 1.429 . S
C306 H316 0.932 . S
C307 C304 1.358 . S
C307 C306 1.429 . S
C307 H317 0.930 . S
C308 C304 1.332 . S
C308 C309 1.394 . S
C308 H318 0.932 . S
C309 C305 1.308 . S
C309 C308 1.394 . S
C309 H319 0.929 . S
C310 Tb281 2.764 . S
C310 O294 1.239 . S
C310 O295 1.263 . S
C310 C304 1.504 . S
C311 O296 1.236 . S
C311 O297 1.257 . S
H312 C285 0.932 . S
H313 C286 0.930 . S
H314 C287 0.932 . S
H315 C288 0.929 . S
H316 C306 0.932 . S
H317 C307 0.930 . S
H318 C308 0.932 . S
H319 C309 0.929 . S
C320 C321 1.369 . S
C320 C322 1.419 . S
C320 H324 0.930 . S
C321 C320 1.369 . S
C321 C330 1.429 1_554 S
C322 C320 1.419 . S
C322 C323 1.363 . S
C322 H325 0.929 . S
C323 C322 1.363 . S
C323 C329 1.428 1_554 S
H324 C320 0.930 . S
H325 C322 0.929 . S
S326 N327 1.613 . S
S326 N328 1.610 . S
N327 S326 1.613 . S
N327 C330 1.350 . S
N328 S326 1.610 . S
N328 C329 1.351 . S
C329 C323 1.428 1_556 S
C329 N328 1.351 . S
C329 C330 1.434 . S
C330 C321 1.429 1_556 S
C330 N327 1.350 . S
C330 C329 1.434 . S
C331 C332 1.369 . S
C331 C333 1.419 . S
C331 H335 0.930 1_554 S
C332 C331 1.369 . S
C332 C341 1.429 . S
C333 C331 1.419 . S
C333 C334 1.363 . S
C333 H336 0.929 1_554 S
C334 C333 1.363 . S
C334 C340 1.428 . S
H335 C331 0.930 1_556 S
H336 C333 0.929 1_556 S
S337 N338 1.613 . S
S337 N339 1.610 . S
N338 S337 1.613 . S
N338 C341 1.350 . S
N339 S337 1.610 . S
N339 C340 1.351 . S
C340 C334 1.428 . S
C340 N339 1.351 . S
C340 C341 1.434 . S
C341 C332 1.429 . S
C341 N338 1.350 . S
C341 C340 1.434 . S
C342 C343 1.369 . S
C342 C344 1.419 . S
C342 H346 0.930 . S
C343 C342 1.369 . S
C343 C352 1.429 . S
C344 C342 1.419 . S
C344 C345 1.363 . S
C344 H347 0.929 . S
C345 C344 1.363 . S
C345 C351 1.428 . S
H346 C342 0.930 . S
H347 C344 0.929 . S
S348 N349 1.613 . S
S348 N350 1.610 . S
N349 S348 1.613 . S
N349 C352 1.350 . S
N350 S348 1.610 . S
N350 C351 1.351 . S
C351 C345 1.428 . S
C351 N350 1.351 . S
C351 C352 1.434 . S
C352 C343 1.429 . S
C352 N349 1.350 . S
C352 C351 1.434 . S
C353 C354 1.369 . S
C353 C355 1.419 . S
C353 H357 0.930 . S
C354 C353 1.369 . S
C354 C363 1.429 . S
C355 C353 1.419 . S
C355 C356 1.363 . S
C355 H358 0.929 . S
C356 C355 1.363 . S
C356 C362 1.428 . S
H357 C353 0.930 . S
H358 C355 0.929 . S
S359 N360 1.613 . S
S359 N361 1.610 . S
N360 S359 1.613 . S
N360 C363 1.350 . S
N361 S359 1.610 . S
N361 C362 1.351 . S
C362 C356 1.428 . S
C362 N361 1.351 . S
C362 C363 1.434 . S
C363 C354 1.429 . S
C363 N360 1.350 . S
C363 C362 1.434 . S
C364 C365 1.369 . S
C364 C366 1.419 1_655 S
C364 H368 0.930 . S
C365 C364 1.369 . S
C365 C374 1.429 1_654 S
C366 C364 1.419 1_455 S
C366 C367 1.363 . S
C366 H369 0.929 . S
C367 C366 1.363 . S
C367 C373 1.428 1_554 S
H368 C364 0.930 . S
H369 C366 0.929 . S
S370 N371 1.613 . S
S370 N372 1.610 . S
N371 S370 1.613 . S
N371 C374 1.350 . S
N372 S370 1.610 . S
N372 C373 1.351 . S
C373 C367 1.428 1_556 S
C373 N372 1.351 . S
C373 C374 1.434 . S
C374 C365 1.429 1_456 S
C374 N371 1.350 . S
C374 C373 1.434 . S
C375 C376 1.369 1_655 S
C375 C377 1.419 . S
C375 H379 0.930 1_654 S
C376 C375 1.369 1_455 S
C376 C385 1.429 . S
C377 C375 1.419 . S
C377 C378 1.363 . S
C377 H380 0.929 1_554 S
C378 C377 1.363 . S
C378 C384 1.428 . S
H379 C375 0.930 1_456 S
H380 C377 0.929 1_556 S
S381 N382 1.613 1_655 S
S381 N383 1.610 . S
N382 S381 1.613 1_455 S
N382 C385 1.350 . S
N383 S381 1.610 . S
N383 C384 1.351 . S
C384 C378 1.428 . S
C384 N383 1.351 . S
C384 C385 1.434 1_655 S
C385 C376 1.429 . S
C385 N382 1.350 . S
C385 C384 1.434 1_455 S
C386 C387 1.369 . S
C386 C388 1.419 . S
C386 H390 0.930 . S
C387 C386 1.369 . S
C387 C396 1.429 . S
C388 C386 1.419 . S
C388 C389 1.363 1_455 S
C388 H391 0.929 . S
C389 C388 1.363 1_655 S
C389 C395 1.428 . S
H390 C386 0.930 . S
H391 C388 0.929 . S
S392 N393 1.613 1_655 S
S392 N394 1.610 . S
N393 S392 1.613 1_455 S
N393 C396 1.350 . S
N394 S392 1.610 . S
N394 C395 1.351 . S
C395 C389 1.428 . S
C395 N394 1.351 . S
C395 C396 1.434 1_655 S
C396 C387 1.429 . S
C396 N393 1.350 . S
C396 C395 1.434 1_455 S
C397 C398 1.369 . S
C397 C399 1.419 1_655 S
C397 H401 0.930 . S
C398 C397 1.369 . S
C398 C407 1.429 . S
C399 C397 1.419 1_455 S
C399 C400 1.363 . S
C399 H402 0.929 . S
C400 C399 1.363 . S
C400 C406 1.428 1_455 S
H401 C397 0.930 . S
H402 C399 0.929 . S
S403 N404 1.613 . S
S403 N405 1.610 . S
N404 S403 1.613 . S
N404 C407 1.350 . S
N405 S403 1.610 . S
N405 C406 1.351 . S
C406 C400 1.428 1_655 S
C406 N405 1.351 . S
C406 C407 1.434 . S
C407 C398 1.429 . S
C407 N404 1.350 . S
C407 C406 1.434 . S
C408 C409 1.369 1_655 S
C408 C410 1.419 . S
C408 H412 0.930 . S
C409 C408 1.369 1_455 S
C409 C418 1.429 . S
C410 C408 1.419 . S
C410 C411 1.363 . S
C410 H413 0.929 1_554 S
C411 C410 1.363 . S
C411 C417 1.428 1_655 S
H412 C408 0.930 . S
H413 C410 0.929 1_556 S
S414 N415 1.613 . S
S414 N416 1.610 . S
N415 S414 1.613 . S
N415 C418 1.350 . S
N416 S414 1.610 . S
N416 C417 1.351 . S
C417 C411 1.428 1_455 S
C417 N416 1.351 . S
C417 C418 1.434 . S
C418 C409 1.429 . S
C418 N415 1.350 . S
C418 C417 1.434 . S
C419 C420 1.369 . S
C419 C421 1.419 . S
C419 H423 0.930 . S
C420 C419 1.369 . S
C420 C429 1.429 1_455 S
C421 C419 1.419 . S
C421 C422 1.363 1_455 S
C421 H424 0.929 . S
C422 C421 1.363 1_655 S
C422 C428 1.428 . S
H423 C419 0.930 . S
H424 C421 0.929 . S
S425 N426 1.613 . S
S425 N427 1.610 . S
N426 S425 1.613 . S
N426 C429 1.350 . S
N427 S425 1.610 . S
N427 C428 1.351 . S
C428 C422 1.428 . S
C428 N427 1.351 . S
C428 C429 1.434 . S
C429 C420 1.429 1_655 S
C429 N426 1.350 . S
C429 C428 1.434 . S
C430 C431 1.369 1_556 S
C430 C432 1.419 1_565 S
C430 H434 0.930 . S
C431 C430 1.369 1_554 S
C431 C440 1.429 . S
C432 C430 1.419 1_545 S
C432 C433 1.363 1_556 S
C432 H435 0.929 . S
C433 C432 1.363 1_554 S
C433 C439 1.428 . S
H434 C430 0.930 . S
H435 C432 0.929 . S
S436 N437 1.613 . S
S436 N438 1.610 1_565 S
N437 S436 1.613 . S
N437 C440 1.350 . S
N438 S436 1.610 1_545 S
N438 C439 1.351 . S
C439 C433 1.428 . S
C439 N438 1.351 . S
C439 C440 1.434 1_545 S
C440 C431 1.429 . S
C440 N437 1.350 . S
C440 C439 1.434 1_565 S
C441 C442 1.369 . S
C441 C443 1.419 1_545 S
C441 H445 0.930 . S
C442 C441 1.369 . S
C442 C451 1.429 . S
C443 C441 1.419 1_565 S
C443 C444 1.363 . S
C443 H446 0.929 . S
C444 C443 1.363 . S
C444 C450 1.428 . S
H445 C441 0.930 . S
H446 C443 0.929 . S
S447 N448 1.613 . S
S447 N449 1.610 1_545 S
N448 S447 1.613 . S
N448 C451 1.350 . S
N449 S447 1.610 1_565 S
N449 C450 1.351 . S
C450 C444 1.428 . S
C450 N449 1.351 . S
C450 C451 1.434 1_565 S
C451 C442 1.429 . S
C451 N448 1.350 . S
C451 C450 1.434 1_545 S
C452 C453 1.369 1_556 S
C452 C454 1.419 . S
C452 H456 0.930 . S
C453 C452 1.369 1_554 S
C453 C462 1.429 . S
C454 C452 1.419 . S
C454 C455 1.363 1_556 S
C454 H457 0.929 . S
C455 C454 1.363 1_554 S
C455 C461 1.428 . S
H456 C452 0.930 . S
H457 C454 0.929 . S
S458 N459 1.613 . S
S458 N460 1.610 . S
N459 S458 1.613 . S
N459 C462 1.350 . S
N460 S458 1.610 . S
N460 C461 1.351 . S
C461 C455 1.428 . S
C461 N460 1.351 . S
C461 C462 1.434 . S
C462 C453 1.429 . S
C462 N459 1.350 . S
C462 C461 1.434 . S
C463 C464 1.369 1_556 S
C463 C465 1.419 . S
C463 H467 0.930 . S
C464 C463 1.369 1_554 S
C464 C473 1.429 . S
C465 C463 1.419 . S
C465 C466 1.363 1_556 S
C465 H468 0.929 . S
C466 C465 1.363 1_554 S
C466 C472 1.428 . S
H467 C463 0.930 . S
H468 C465 0.929 . S
S469 N470 1.613 . S
S469 N471 1.610 . S
N470 S469 1.613 . S
N470 C473 1.350 . S
N471 S469 1.610 . S
N471 C472 1.351 . S
C472 C466 1.428 . S
C472 N471 1.351 . S
C472 C473 1.434 . S
C473 C464 1.429 . S
C473 N470 1.350 . S
C473 C472 1.434 . S
C474 C475 1.369 . S
C474 C476 1.419 . S
C474 H478 0.930 . S
C475 C474 1.369 . S
C475 C484 1.429 . S
C476 C474 1.419 . S
C476 C477 1.363 . S
C476 H479 0.929 . S
C477 C476 1.363 . S
C477 C483 1.428 . S
H478 C474 0.930 . S
H479 C476 0.929 . S
S480 N481 1.613 . S
S480 N482 1.610 . S
N481 S480 1.613 . S
N481 C484 1.350 . S
N482 S480 1.610 . S
N482 C483 1.351 . S
C483 C477 1.428 . S
C483 N482 1.351 . S
C483 C484 1.434 . S
C484 C475 1.429 . S
C484 N481 1.350 . S
C484 C483 1.434 . S
C485 C486 1.369 . S
C485 C487 1.419 . S
C485 H489 0.930 . S
C486 C485 1.369 . S
C486 C495 1.429 . S
C487 C485 1.419 . S
C487 C488 1.363 . S
C487 H490 0.929 . S
C488 C487 1.363 . S
C488 C494 1.428 . S
H489 C485 0.930 . S
H490 C487 0.929 . S
S491 N492 1.613 . S
S491 N493 1.610 . S
N492 S491 1.613 . S
N492 C495 1.350 . S
N493 S491 1.610 . S
N493 C494 1.351 . S
C494 C488 1.428 . S
C494 N493 1.351 . S
C494 C495 1.434 . S
C495 C486 1.429 . S
C495 N492 1.350 . S
C495 C494 1.434 . S
C496 C497 1.369 . S
C496 C498 1.419 . S
C496 H500 0.930 . S
C497 C496 1.369 . S
C497 C506 1.429 1_455 S
C498 C496 1.419 . S
C498 C499 1.363 1_455 S
C498 H501 0.929 . S
C499 C498 1.363 1_655 S
C499 C505 1.428 . S
H500 C496 0.930 . S
H501 C498 0.929 . S
S502 N503 1.613 . S
S502 N504 1.610 . S
N503 S502 1.613 . S
N503 C506 1.350 . S
N504 S502 1.610 . S
N504 C505 1.351 . S
C505 C499 1.428 . S
C505 N504 1.351 . S
C505 C506 1.434 . S
C506 C497 1.429 1_655 S
C506 N503 1.350 . S
C506 C505 1.434 . S
C507 C508 1.369 . S
C507 C509 1.419 . S
C507 H511 0.930 . S
C508 C507 1.369 . S
C508 C517 1.429 1_655 S
C509 C507 1.419 . S
C509 C510 1.363 1_655 S
C509 H512 0.929 . S
C510 C509 1.363 1_455 S
C510 C516 1.428 . S
H511 C507 0.930 . S
H512 C509 0.929 . S
S513 N514 1.613 . S
S513 N515 1.610 . S
N514 S513 1.613 . S
N514 C517 1.350 . S
N515 S513 1.610 . S
N515 C516 1.351 . S
C516 C510 1.428 . S
C516 N515 1.351 . S
C516 C517 1.434 . S
C517 C508 1.429 1_455 S
C517 N514 1.350 . S
C517 C516 1.434 . S
C518 C519 1.369 1_455 S
C518 C520 1.419 . S
C518 H522 0.930 . S
C519 C518 1.369 1_655 S
C519 C528 1.429 . S
C520 C518 1.419 . S
C520 C521 1.363 . S
C520 H523 0.929 . S
C521 C520 1.363 . S
C521 C527 1.428 1_455 S
H522 C518 0.930 . S
H523 C520 0.929 . S
S524 N525 1.613 . S
S524 N526 1.610 . S
N525 S524 1.613 . S
N525 C528 1.350 . S
N526 S524 1.610 . S
N526 C527 1.351 . S
C527 C521 1.428 1_655 S
C527 N526 1.351 . S
C527 C528 1.434 . S
C528 C519 1.429 . S
C528 N525 1.350 . S
C528 C527 1.434 . S
C529 C530 1.369 . S
C529 C531 1.419 . S
C529 H533 0.930 . S
C530 C529 1.369 . S
C530 C539 1.429 1_655 S
C531 C529 1.419 . S
C531 C532 1.363 1_655 S
C531 H534 0.929 . S
C532 C531 1.363 1_455 S
C532 C538 1.428 . S
H533 C529 0.930 . S
H534 C531 0.929 . S
S535 N536 1.613 . S
S535 N537 1.610 . S
N536 S535 1.613 . S
N536 C539 1.350 . S
N537 S535 1.610 . S
N537 C538 1.351 . S
C538 C532 1.428 . S
C538 N537 1.351 . S
C538 C539 1.434 . S
C539 C530 1.429 1_455 S
C539 N536 1.350 . S
C539 C538 1.434 . S
C540 C541 1.369 . S
C540 C542 1.419 . S
C540 H544 0.930 . S
C541 C540 1.369 . S
C541 C550 1.429 . S
C542 C540 1.419 . S
C542 C543 1.363 . S
C542 H545 0.929 . S
C543 C542 1.363 . S
C543 C549 1.428 . S
H544 C540 0.930 . S
H545 C542 0.929 . S
S546 N547 1.613 . S
S546 N548 1.610 . S
N547 S546 1.613 . S
N547 C550 1.350 . S
N548 S546 1.610 . S
N548 C549 1.351 . S
C549 C543 1.428 . S
C549 N548 1.351 . S
C549 C550 1.434 . S
C550 C541 1.429 . S
C550 N547 1.350 . S
C550 C549 1.434 . S
C551 C552 1.369 . S
C551 C553 1.419 . S
C551 H555 0.930 . S
C552 C551 1.369 . S
C552 C561 1.429 . S
C553 C551 1.419 . S
C553 C554 1.363 . S
C553 H556 0.929 . S
C554 C553 1.363 . S
C554 C560 1.428 . S
H555 C551 0.930 . S
H556 C553 0.929 . S
S557 N558 1.613 . S
S557 N559 1.610 . S
N558 S557 1.613 . S
N558 C561 1.350 . S
N559 S557 1.610 . S
N559 C560 1.351 . S
C560 C554 1.428 . S
C560 N559 1.351 . S
C560 C561 1.434 . S
C561 C552 1.429 . S
C561 N558 1.350 . S
C561 C560 1.434 . S
C562 C563 1.369 . S
C562 C564 1.419 . S
C562 H566 0.930 . S
C563 C562 1.369 . S
C563 C572 1.429 . S
C564 C562 1.419 . S
C564 C565 1.363 . S
C564 H567 0.929 . S
C565 C564 1.363 . S
C565 C571 1.428 . S
H566 C562 0.930 . S
H567 C564 0.929 . S
S568 N569 1.613 . S
S568 N570 1.610 . S
N569 S568 1.613 . S
N569 C572 1.350 . S
N570 S568 1.610 . S
N570 C571 1.351 . S
C571 C565 1.428 . S
C571 N570 1.351 . S
C571 C572 1.434 . S
C572 C563 1.429 . S
C572 N569 1.350 . S
C572 C571 1.434 . S
C573 C574 1.369 . S
C573 C575 1.419 . S
C573 H577 0.930 . S
C574 C573 1.369 . S
C574 C583 1.429 . S
C575 C573 1.419 . S
C575 C576 1.363 . S
C575 H578 0.929 . S
C576 C575 1.363 . S
C576 C582 1.428 . S
H577 C573 0.930 . S
H578 C575 0.929 . S
S579 N580 1.613 . S
S579 N581 1.610 . S
N580 S579 1.613 . S
N580 C583 1.350 . S
N581 S579 1.610 . S
N581 C582 1.351 . S
C582 C576 1.428 . S
C582 N581 1.351 . S
C582 C583 1.434 . S
C583 C574 1.429 . S
C583 N580 1.350 . S
C583 C582 1.434 . S
C321 C20 2.096 . S
C323 C31 2.099 . S
C332 C60 2.100 . S
C334 C71 2.096 . S
C343 C100 2.095 . S
C345 C111 2.100 . S
C354 C140 2.096 . S
C356 C151 2.099 . S
C365 C180 2.099 . S
C367 C191 2.097 . S
C376 C231 2.095 . S
C378 C220 2.100 . S
C387 C260 2.100 . S
C389 C271 2.096 . S
C398 C311 2.098 . S
C400 C300 2.098 . S
C409 C44 2.649 . S
C411 C25 2.640 1_554 S
C420 C145 2.642 . S
C422 C84 2.647 . S
C431 C185 2.642 1_554 S
C433 C204 2.645 . S
C442 C244 2.646 . S
C444 C305 2.645 . S
C453 C4 1.877 . S
C455 C225 1.879 . S
C464 C164 1.879 . S
C466 C65 1.878 . S
C475 C105 1.876 . S
C477 C284 1.880 . S
C486 C124 1.878 . S
C488 C265 1.879 . S
C497 C23 1.436 . S
C499 C143 1.437 . S
C508 C63 1.652 . S
C510 C103 1.655 . S
C519 C42 1.436 . S
C521 C82 1.436 . S
C530 C122 1.649 . S
C532 C2 1.654 . S
C541 C183 1.435 . S
C543 C303 1.438 . S
C552 C223 1.655 . S
C554 C263 1.651 . S
C563 C202 1.443 . S
C565 C242 1.444 . S
C574 C282 1.656 . S
C576 C162 1.653 . S
