# Generated by pormake.
# Topology yfc, (5)-cn, num edge types: 1
# Building blocks:
#     Node 0, Type 0, BuildingBlock: XOMCOT_clean_sbu_1, # of connection points: 5
#     Node 1, Type 0, BuildingBlock: XOMCOT_clean_sbu_1, # of connection points: 5
#     Node 2, Type 0, BuildingBlock: XOMCOT_clean_sbu_1, # of connection points: 5
#     Node 3, Type 0, BuildingBlock: XOMCOT_clean_sbu_1, # of connection points: 5
#     Node 4, Type 0, BuildingBlock: XOMCOT_clean_sbu_1, # of connection points: 5
#     Node 5, Type 0, BuildingBlock: XOMCOT_clean_sbu_1, # of connection points: 5
#     Node 6, Type 0, BuildingBlock: XOMCOT_clean_sbu_1, # of connection points: 5
#     Node 7, Type 0, BuildingBlock: XOMCOT_clean_sbu_1, # of connection points: 5
#     Node 8, Type 0, BuildingBlock: XOMCOT_clean_sbu_1, # of connection points: 5
#     Node 9, Type 0, BuildingBlock: XOMCOT_clean_sbu_1, # of connection points: 5
#     Node 10, Type 0, BuildingBlock: XOMCOT_clean_sbu_1, # of connection points: 5
#     Node 11, Type 0, BuildingBlock: XOMCOT_clean_sbu_1, # of connection points: 5
#     Node 12, Type 0, BuildingBlock: XOMCOT_clean_sbu_1, # of connection points: 5
#     Node 13, Type 0, BuildingBlock: XOMCOT_clean_sbu_1, # of connection points: 5
#     Node 14, Type 0, BuildingBlock: XOMCOT_clean_sbu_1, # of connection points: 5
#     Node 15, Type 0, BuildingBlock: XOMCOT_clean_sbu_1, # of connection points: 5
#     Edge 16, Type (0, 0), BuildingBlock: XIVTED_clean_linker_0, # of connection points: 2
#     Edge 17, Type (0, 0), BuildingBlock: XIVTED_clean_linker_0, # of connection points: 2
#     Edge 18, Type (0, 0), BuildingBlock: XIVTED_clean_linker_0, # of connection points: 2
#     Edge 19, Type (0, 0), BuildingBlock: XIVTED_clean_linker_0, # of connection points: 2
#     Edge 20, Type (0, 0), BuildingBlock: XIVTED_clean_linker_0, # of connection points: 2
#     Edge 21, Type (0, 0), BuildingBlock: XIVTED_clean_linker_0, # of connection points: 2
#     Edge 22, Type (0, 0), BuildingBlock: XIVTED_clean_linker_0, # of connection points: 2
#     Edge 23, Type (0, 0), BuildingBlock: XIVTED_clean_linker_0, # of connection points: 2
#     Edge 24, Type (0, 0), BuildingBlock: XIVTED_clean_linker_0, # of connection points: 2
#     Edge 25, Type (0, 0), BuildingBlock: XIVTED_clean_linker_0, # of connection points: 2
#     Edge 26, Type (0, 0), BuildingBlock: XIVTED_clean_linker_0, # of connection points: 2
#     Edge 27, Type (0, 0), BuildingBlock: XIVTED_clean_linker_0, # of connection points: 2
#     Edge 28, Type (0, 0), BuildingBlock: XIVTED_clean_linker_0, # of connection points: 2
#     Edge 29, Type (0, 0), BuildingBlock: XIVTED_clean_linker_0, # of connection points: 2
#     Edge 30, Type (0, 0), BuildingBlock: XIVTED_clean_linker_0, # of connection points: 2
#     Edge 31, Type (0, 0), BuildingBlock: XIVTED_clean_linker_0, # of connection points: 2
#     Edge 32, Type (0, 0), BuildingBlock: XIVTED_clean_linker_0, # of connection points: 2
#     Edge 33, Type (0, 0), BuildingBlock: XIVTED_clean_linker_0, # of connection points: 2
#     Edge 34, Type (0, 0), BuildingBlock: XIVTED_clean_linker_0, # of connection points: 2
#     Edge 35, Type (0, 0), BuildingBlock: XIVTED_clean_linker_0, # of connection points: 2
#     Edge 36, Type (0, 0), BuildingBlock: XIVTED_clean_linker_0, # of connection points: 2
#     Edge 37, Type (0, 0), BuildingBlock: XIVTED_clean_linker_0, # of connection points: 2
#     Edge 38, Type (0, 0), BuildingBlock: XIVTED_clean_linker_0, # of connection points: 2
#     Edge 39, Type (0, 0), BuildingBlock: XIVTED_clean_linker_0, # of connection points: 2
#     Edge 40, Type (0, 0), BuildingBlock: XIVTED_clean_linker_0, # of connection points: 2
#     Edge 41, Type (0, 0), BuildingBlock: XIVTED_clean_linker_0, # of connection points: 2
#     Edge 42, Type (0, 0), BuildingBlock: XIVTED_clean_linker_0, # of connection points: 2
#     Edge 43, Type (0, 0), BuildingBlock: XIVTED_clean_linker_0, # of connection points: 2
#     Edge 44, Type (0, 0), BuildingBlock: XIVTED_clean_linker_0, # of connection points: 2
#     Edge 45, Type (0, 0), BuildingBlock: XIVTED_clean_linker_0, # of connection points: 2
#     Edge 46, Type (0, 0), BuildingBlock: XIVTED_clean_linker_0, # of connection points: 2
#     Edge 47, Type (0, 0), BuildingBlock: XIVTED_clean_linker_0, # of connection points: 2
#     Edge 48, Type (0, 0), BuildingBlock: XIVTED_clean_linker_0, # of connection points: 2
#     Edge 49, Type (0, 0), BuildingBlock: XIVTED_clean_linker_0, # of connection points: 2
#     Edge 50, Type (0, 0), BuildingBlock: XIVTED_clean_linker_0, # of connection points: 2
#     Edge 51, Type (0, 0), BuildingBlock: XIVTED_clean_linker_0, # of connection points: 2
#     Edge 52, Type (0, 0), BuildingBlock: XIVTED_clean_linker_0, # of connection points: 2
#     Edge 53, Type (0, 0), BuildingBlock: XIVTED_clean_linker_0, # of connection points: 2
#     Edge 54, Type (0, 0), BuildingBlock: XIVTED_clean_linker_0, # of connection points: 2
#     Edge 55, Type (0, 0), BuildingBlock: XIVTED_clean_linker_0, # of connection points: 2
# Relax obj value: 0.647
# Max RMSD: 0.269
# Mean RMSD: 0.269
data_MOF--net-yfc--node1-XOMCOT_clean_sbu_1--edge1-XIVTED_clean_linker_0
_symmetry_space_group_name_H-M    P1
_symmetry_Int_Tables_number       1
_symmetry_cell_setting            triclinic
loop_
_symmetry_equiv_pos_as_xyz
'x, y, z'
_cell_length_a     40.898684
_cell_length_b     40.896539
_cell_length_c     47.375497
_cell_angle_alpha  90.027295
_cell_angle_beta   89.972938
_cell_angle_gamma 90.095754
loop_
_atom_site_label
_atom_site_type_symbol
_atom_site_fract_x
_atom_site_fract_y
_atom_site_fract_z
_atom_type_partial_charge
C0 C 0.70686 0.97282 0.14404 0.0
C1 C 0.68681 0.94942 0.15573 0.0
N2 N 0.67201 0.96234 0.17857 0.0
N3 N 0.70477 1.00051 0.15935 0.0
C4 C 0.68305 0.99349 0.1801 0.0
H5 H 0.72326 0.96924 0.12642 0.0
Co6 Co 0.73262 0.03652 0.1556 0.0
C7 C 0.69679 0.09395 0.1774 0.0
O8 O 0.72368 0.10442 0.18966 0.0
N9 N 0.76128 0.07314 0.15132 0.0
C10 C 0.80003 0.11073 0.15753 0.0
C11 C 0.79057 0.0791 0.16338 0.0
C12 C 0.75445 0.10106 0.13702 0.0
N13 N 0.77693 0.1249 0.14133 0.0
O14 O 0.72195 0.04002 0.11658 0.0
H15 H 0.80363 0.06242 0.17692 0.0
H16 H 0.73195 0.10449 0.12542 0.0
O17 O 0.69632 0.06618 0.16492 0.0
C18 C 0.74593 0.02958 0.10197 0.0
O19 O 0.77129 0.01723 0.11525 0.0
N20 N 0.74593 0.03031 0.19299 0.0
C21 C 0.78356 0.02356 0.24142 0.0
C22 C 0.75375 0.04077 0.24216 0.0
C23 C 0.73467 0.04298 0.21777 0.0
C24 C 0.77154 0.00911 0.19312 0.0
C25 C 0.79052 0.00501 0.21723 0.0
H26 H 0.71186 0.056 0.21884 0.0
H27 H 0.77877 0.99727 0.17368 0.0
H28 H 0.67723 0.01009 0.19715 0.0
H29 H 0.68433 0.92439 0.14859 0.0
H30 H 0.8212 0.12289 0.16634 0.0
H31 H 0.74619 0.05454 0.26052 0.0
H32 H 0.8119 0.98952 0.21602 0.0
C33 C 0.53635 0.71864 0.64878 0.0
C34 C 0.56124 0.69952 0.65912 0.0
N35 N 0.5485 0.67782 0.67753 0.0
N36 N 0.50785 0.70916 0.66044 0.0
C37 C 0.51594 0.68374 0.67741 0.0
H38 H 0.53919 0.73951 0.635 0.0
Co39 Co 0.4696 0.73404 0.65777 0.0
C40 C 0.41643 0.69421 0.68038 0.0
O41 O 0.40704 0.71998 0.69486 0.0
N42 N 0.43068 0.76016 0.65409 0.0
C43 C 0.39334 0.79973 0.65643 0.0
C44 C 0.42499 0.79115 0.66265 0.0
C45 C 0.40221 0.75129 0.64131 0.0
N46 N 0.37866 0.7745 0.64321 0.0
O47 O 0.46711 0.72516 0.61839 0.0
H48 H 0.4423 0.80703 0.67294 0.0
H49 H 0.39864 0.72771 0.63144 0.0
O50 O 0.44255 0.69534 0.66555 0.0
C51 C 0.47593 0.7499 0.60393 0.0
O52 O 0.48613 0.77615 0.61735 0.0
N53 N 0.47443 0.74504 0.69619 0.0
C54 C 0.47689 0.7726 0.74992 0.0
C55 C 0.47121 0.7389 0.74642 0.0
C56 C 0.46982 0.72561 0.71931 0.0
C57 C 0.48711 0.77553 0.69964 0.0
C58 C 0.48745 0.79032 0.72614 0.0
H59 H 0.46362 0.70013 0.7172 0.0
H60 H 0.49455 0.78943 0.6813 0.0
H61 H 0.49873 0.67123 0.69092 0.0
H62 H 0.58696 0.7025 0.65439 0.0
H63 H 0.38189 0.82259 0.66221 0.0
H64 H 0.46577 0.72316 0.76415 0.0
H65 H 0.49345 0.81603 0.72718 0.0
C66 C 0.78916 0.5302 0.14557 0.0
C67 C 0.80627 0.55639 0.15642 0.0
N68 N 0.8281 0.54513 0.17539 0.0
N69 N 0.80012 0.50245 0.15754 0.0
C70 C 0.82412 0.5123 0.17534 0.0
H71 H 0.76881 0.53154 0.13107 0.0
Co72 Co 0.77998 0.4615 0.15486 0.0
C73 C 0.83135 0.41501 0.17268 0.0
O74 O 0.81025 0.39822 0.18777 0.0
N75 N 0.75881 0.41984 0.15183 0.0
C76 C 0.72229 0.37945 0.15526 0.0
C77 C 0.72837 0.41194 0.16065 0.0
C78 C 0.76997 0.39179 0.13986 0.0
N79 N 0.74868 0.36658 0.1425 0.0
O80 O 0.7863 0.46121 0.11506 0.0
H81 H 0.71133 0.42844 0.17054 0.0
H82 H 0.7936 0.38971 0.12981 0.0
O83 O 0.82254 0.44067 0.1595 0.0
C84 C 0.75981 0.46775 0.10211 0.0
O85 O 0.7336 0.47442 0.1171 0.0
N86 N 0.77069 0.46382 0.19356 0.0
C87 C 0.74108 0.46611 0.24652 0.0
C88 C 0.77431 0.45773 0.2438 0.0
C89 C 0.78885 0.45707 0.21703 0.0
C90 C 0.74028 0.47676 0.19636 0.0
C91 C 0.72471 0.47746 0.2224 0.0
H92 H 0.81434 0.45075 0.21546 0.0
H93 H 0.72712 0.48448 0.17772 0.0
H94 H 0.83689 0.49596 0.18945 0.0
H95 H 0.80203 0.58186 0.15146 0.0
H96 H 0.70051 0.36607 0.16127 0.0
H97 H 0.78867 0.45059 0.26196 0.0
H98 H 0.69926 0.48458 0.22288 0.0
C99 C 0.97654 0.79489 0.64632 0.0
C100 C 0.95222 0.81473 0.65697 0.0
N101 N 0.96584 0.83586 0.67538 0.0
N102 N 0.00543 0.80359 0.65778 0.0
C103 C 0.99812 0.8289 0.67509 0.0
H104 H 0.97308 0.77428 0.63232 0.0
Co105 Co 0.04469 0.78034 0.65468 0.0
C106 C 0.09668 0.82647 0.67144 0.0
O107 O 0.11165 0.80311 0.6854 0.0
N108 N 0.08465 0.75613 0.651 0.0
C109 C 0.12481 0.71995 0.65648 0.0
C110 C 0.09271 0.72703 0.66248 0.0
C111 C 0.11204 0.76512 0.63667 0.0
N112 N 0.13738 0.74422 0.64057 0.0
O113 O 0.0448 0.78674 0.61491 0.0
H114 H 0.07689 0.71187 0.67511 0.0
H115 H 0.11371 0.78766 0.62484 0.0
O116 O 0.0692 0.82109 0.65949 0.0
C117 C 0.03657 0.76097 0.60156 0.0
O118 O 0.02858 0.73478 0.61612 0.0
N119 N 0.04238 0.77171 0.69357 0.0
C120 C 0.03915 0.74684 0.74837 0.0
C121 C 0.04761 0.77975 0.74349 0.0
C122 C 0.04942 0.79162 0.7159 0.0
C123 C 0.02858 0.74194 0.69823 0.0
C124 C 0.02762 0.72857 0.72523 0.0
H125 H 0.05681 0.81665 0.71287 0.0
H126 H 0.02046 0.72744 0.68043 0.0
H127 H 0.01588 0.84139 0.68806 0.0
H128 H 0.92628 0.81235 0.6529 0.0
H129 H 0.13812 0.69917 0.66462 0.0
H130 H 0.05426 0.79601 0.76056 0.0
H131 H 0.02005 0.70336 0.72717 0.0
C132 C 0.71336 0.53092 0.84711 0.0
C133 C 0.69579 0.55686 0.83656 0.0
N134 N 0.67301 0.54523 0.81857 0.0
N135 N 0.70177 0.50291 0.83597 0.0
C136 C 0.67682 0.51239 0.81904 0.0
H137 H 0.73455 0.53257 0.86068 0.0
Co138 Co 0.72287 0.46248 0.83825 0.0
C139 C 0.67303 0.41436 0.82066 0.0
O140 O 0.69474 0.39914 0.80502 0.0
N141 N 0.74521 0.42138 0.84104 0.0
C142 C 0.78304 0.38225 0.83793 0.0
C143 C 0.77599 0.4145 0.83248 0.0
C144 C 0.73485 0.39295 0.85297 0.0
N145 N 0.75695 0.36849 0.85051 0.0
O146 O 0.71745 0.46207 0.87813 0.0
H147 H 0.79273 0.43157 0.8229 0.0
H148 H 0.71128 0.39008 0.863 0.0
O149 O 0.68072 0.4402 0.83422 0.0
C150 C 0.74391 0.46913 0.89096 0.0
O151 O 0.76989 0.47647 0.87588 0.0
N152 N 0.73099 0.46492 0.79925 0.0
C153 C 0.75732 0.46437 0.74507 0.0
C154 C 0.72379 0.45842 0.74936 0.0
C155 C 0.711 0.45899 0.77672 0.0
C156 C 0.76163 0.47678 0.7948 0.0
C157 C 0.77567 0.47593 0.76807 0.0
H158 H 0.68539 0.45372 0.7795 0.0
H159 H 0.77617 0.48464 0.81264 0.0
H160 H 0.66324 0.49579 0.80572 0.0
H161 H 0.70049 0.58243 0.84087 0.0
H162 H 0.80532 0.36966 0.83217 0.0
H163 H 0.70794 0.45157 0.73205 0.0
H164 H 0.8014 0.48168 0.76624 0.0
C165 C 0.96935 0.71472 0.34594 0.0
C166 C 0.94426 0.69635 0.33473 0.0
N167 N 0.95682 0.6759 0.31521 0.0
N168 N 0.99771 0.70594 0.33365 0.0
C169 C 0.98934 0.68196 0.31526 0.0
H170 H 0.9668 0.73445 0.36098 0.0
Co171 Co 0.03725 0.72855 0.33696 0.0
C172 C 0.08724 0.68073 0.31828 0.0
O173 O 0.10301 0.7033 0.30398 0.0
N174 N 0.07738 0.75232 0.34067 0.0
C175 C 0.11517 0.7916 0.33827 0.0
C176 C 0.08323 0.78348 0.3326 0.0
C177 C 0.10603 0.74278 0.35259 0.0
N178 N 0.12976 0.76581 0.35055 0.0
O179 O 0.03791 0.72089 0.37658 0.0
H180 H 0.06567 0.7997 0.3231 0.0
H181 H 0.10959 0.71906 0.36216 0.0
O182 O 0.06084 0.68755 0.33131 0.0
C183 C 0.03007 0.74639 0.39046 0.0
O184 O 0.02159 0.77276 0.37643 0.0
N185 N 0.03459 0.7389 0.29847 0.0
C186 C 0.03386 0.7706 0.24644 0.0
C187 C 0.04315 0.73752 0.24843 0.0
C188 C 0.04313 0.72195 0.27476 0.0
C189 C 0.02013 0.76865 0.29605 0.0
C190 C 0.02023 0.78533 0.27052 0.0
H191 H 0.05064 0.69675 0.27585 0.0
H192 H 0.01097 0.78071 0.31478 0.0
H193 H 0.00641 0.67071 0.30081 0.0
H194 H 0.9186 0.69877 0.33986 0.0
H195 H 0.12699 0.81442 0.33277 0.0
H196 H 0.05176 0.72415 0.23018 0.0
H197 H 0.0121 0.81046 0.27063 0.0
C198 C 0.80573 0.97585 0.85224 0.0
C199 C 0.82711 0.95337 0.84082 0.0
N200 N 0.8383 0.96521 0.81609 0.0
N201 N 0.80366 1.00192 0.83492 0.0
C202 C 0.82394 0.99473 0.81319 0.0
H203 H 0.79183 0.97285 0.87149 0.0
Co204 Co 0.77614 0.03839 0.83803 0.0
C205 C 0.81795 0.09537 0.82086 0.0
O206 O 0.79315 0.11219 0.81097 0.0
N207 N 0.74813 0.0754 0.84133 0.0
C208 C 0.70927 0.11231 0.83346 0.0
C209 C 0.71967 0.08099 0.82778 0.0
C210 C 0.75344 0.10318 0.85635 0.0
N211 N 0.73089 0.12663 0.85105 0.0
O212 O 0.78508 0.04154 0.87734 0.0
H213 H 0.70786 0.06414 0.81347 0.0
H214 H 0.77498 0.10692 0.86921 0.0
O215 O 0.81398 0.0663 0.83014 0.0
C216 C 0.76052 0.03151 0.89146 0.0
O217 O 0.73521 0.01969 0.8777 0.0
N218 N 0.76451 0.0329 0.80025 0.0
C219 C 0.7303 0.02368 0.75018 0.0
C220 C 0.75702 0.04537 0.75139 0.0
C221 C 0.77417 0.04934 0.77664 0.0
C222 C 0.74131 0.00905 0.79856 0.0
C223 C 0.72404 0.00381 0.77367 0.0
H224 H 0.79416 0.06636 0.77711 0.0
H225 H 0.73474 0.99546 0.81732 0.0
H226 H 0.82767 0.01062 0.79523 0.0
H227 H 0.83282 0.92954 0.84943 0.0
H228 H 0.68859 0.12425 0.82367 0.0
H229 H 0.7632 0.06103 0.73376 0.0
H230 H 0.70443 0.98599 0.7735 0.0
C231 C 0.53231 0.79271 0.34974 0.0
C232 C 0.55792 0.81105 0.33942 0.0
N233 N 0.54606 0.83256 0.32046 0.0
N234 N 0.50435 0.80253 0.33739 0.0
C235 C 0.51345 0.82714 0.31993 0.0
H236 H 0.53424 0.77222 0.36406 0.0
Co237 Co 0.4646 0.78018 0.33934 0.0
C238 C 0.41525 0.829 0.32162 0.0
O239 O 0.39951 0.80709 0.30656 0.0
N240 N 0.42425 0.75656 0.34166 0.0
C241 C 0.38638 0.71758 0.33732 0.0
C242 C 0.4184 0.72591 0.33225 0.0
C243 C 0.39548 0.76555 0.35373 0.0
N244 N 0.37171 0.7427 0.35058 0.0
O245 O 0.46316 0.78633 0.3791 0.0
H246 H 0.43602 0.71015 0.32223 0.0
H247 H 0.39188 0.78875 0.36421 0.0
O248 O 0.44148 0.82155 0.33461 0.0
C249 C 0.46999 0.76045 0.39282 0.0
O250 O 0.47768 0.73389 0.37869 0.0
N251 N 0.46806 0.77146 0.30059 0.0
C252 C 0.4704 0.74254 0.24738 0.0
C253 C 0.461 0.77546 0.25049 0.0
C254 C 0.46018 0.78962 0.2774 0.0
C255 C 0.4826 0.74186 0.29731 0.0
C256 C 0.4833 0.72654 0.27114 0.0
H257 H 0.45264 0.81474 0.27931 0.0
H258 H 0.49124 0.72885 0.31573 0.0
H259 H 0.4969 0.83923 0.30555 0.0
H260 H 0.58348 0.80782 0.34461 0.0
H261 H 0.37461 0.6951 0.3308 0.0
H262 H 0.45292 0.78978 0.23261 0.0
H263 H 0.49147 0.70143 0.27041 0.0
C264 C 0.29864 0.03399 0.8527 0.0
C265 C 0.31792 0.05799 0.84092 0.0
N266 N 0.33426 0.04509 0.81885 0.0
N267 N 0.30272 0.00591 0.83826 0.0
C268 C 0.32489 0.01335 0.81793 0.0
H269 H 0.2814 0.03735 0.86975 0.0
Co270 Co 0.27643 0.96863 0.84227 0.0
C271 C 0.31505 0.91292 0.82117 0.0
O272 O 0.28878 0.90116 0.80879 0.0
N273 N 0.24933 0.9307 0.84679 0.0
C274 C 0.21125 0.89223 0.84132 0.0
C275 C 0.21991 0.92402 0.83523 0.0
C276 C 0.25708 0.90292 0.86102 0.0
N277 N 0.23495 0.87858 0.85719 0.0
O278 O 0.28665 0.96631 0.88152 0.0
H279 H 0.20607 0.94044 0.82204 0.0
H280 H 0.27982 0.90004 0.87239 0.0
O281 O 0.31414 0.94064 0.83366 0.0
C282 C 0.26215 0.97628 0.89575 0.0
O283 O 0.23651 0.98727 0.882 0.0
N284 N 0.26351 0.9736 0.80459 0.0
C285 C 0.22934 0.98085 0.75415 0.0
C286 C 0.25979 0.96479 0.75478 0.0
C287 C 0.27702 0.96234 0.78013 0.0
C288 C 0.2367 0.99324 0.80362 0.0
C289 C 0.21936 0.99747 0.77861 0.0
H290 H 0.30055 0.95061 0.77988 0.0
H291 H 0.22762 0.00412 0.82291 0.0
H292 H 0.33232 0.99646 0.80158 0.0
H293 H 0.31887 0.08332 0.84749 0.0
H294 H 0.19005 0.87966 0.83301 0.0
H295 H 0.26955 0.95235 0.73648 0.0
H296 H 0.19726 0.01197 0.77904 0.0
C297 C 0.46971 0.28807 0.3442 0.0
C298 C 0.44403 0.30612 0.3338 0.0
N299 N 0.45596 0.32861 0.31568 0.0
N300 N 0.49784 0.29904 0.33284 0.0
C301 C 0.48873 0.32413 0.31592 0.0
H302 H 0.46774 0.26697 0.35784 0.0
Co303 Co 0.53764 0.27683 0.33524 0.0
C304 C 0.5875 0.32549 0.31826 0.0
O305 O 0.60233 0.3035 0.30262 0.0
N306 N 0.57793 0.25313 0.33824 0.0
C307 C 0.61512 0.21328 0.3362 0.0
C308 C 0.58326 0.22171 0.33059 0.0
C309 C 0.60684 0.26251 0.34987 0.0
N310 N 0.63013 0.23914 0.34801 0.0
O311 O 0.53801 0.2822 0.37515 0.0
H312 H 0.5653 0.20541 0.32168 0.0
H313 H 0.61091 0.28617 0.35942 0.0
O314 O 0.56124 0.31838 0.33148 0.0
C315 C 0.53059 0.25616 0.38845 0.0
O316 O 0.52257 0.23 0.37387 0.0
N317 N 0.53543 0.26901 0.29615 0.0
C318 C 0.53802 0.2432 0.24181 0.0
C319 C 0.54359 0.27674 0.2465 0.0
C320 C 0.54216 0.28923 0.27394 0.0
C321 C 0.52343 0.23855 0.29113 0.0
C322 C 0.52536 0.22472 0.26434 0.0
H323 H 0.54757 0.31475 0.27708 0.0
H324 H 0.51467 0.22394 0.3086 0.0
H325 H 0.50546 0.3374 0.30249 0.0
H326 H 0.41842 0.30198 0.33832 0.0
H327 H 0.62661 0.19016 0.3312 0.0
H328 H 0.55091 0.29288 0.22954 0.0
H329 H 0.51955 0.19904 0.26226 0.0
C330 C 0.21417 0.47667 0.84795 0.0
C331 C 0.19538 0.45148 0.83757 0.0
N332 N 0.17292 0.46398 0.81979 0.0
N333 N 0.20376 0.50513 0.83689 0.0
C334 C 0.17813 0.49668 0.82021 0.0
H335 H 0.2354 0.47414 0.86134 0.0
Co336 Co 0.2276 0.54415 0.83994 0.0
C337 C 0.18674 0.59598 0.81706 0.0
O338 O 0.21238 0.60552 0.80245 0.0
N339 N 0.25245 0.58408 0.84394 0.0
C340 C 0.28986 0.62373 0.84132 0.0
C341 C 0.28296 0.5916 0.83507 0.0
C342 C 0.24221 0.61197 0.85688 0.0
N343 N 0.26401 0.63688 0.85479 0.0
O344 O 0.2187 0.54598 0.8794 0.0
H345 H 0.29949 0.57532 0.82434 0.0
H346 H 0.21852 0.61419 0.86685 0.0
O347 O 0.18823 0.57007 0.83212 0.0
C348 C 0.2441 0.53743 0.8931 0.0
O349 O 0.27006 0.52816 0.87882 0.0
N350 N 0.23904 0.5398 0.80161 0.0
C351 C 0.26774 0.53761 0.74836 0.0
C352 C 0.23389 0.54266 0.75128 0.0
C353 C 0.21994 0.54357 0.77818 0.0
C354 C 0.26997 0.52814 0.79871 0.0
C355 C 0.28524 0.52782 0.77244 0.0
H356 H 0.19422 0.54889 0.77994 0.0
H357 H 0.28375 0.52149 0.81732 0.0
H358 H 0.16497 0.51377 0.80709 0.0
H359 H 0.19903 0.42574 0.84182 0.0
H360 H 0.31187 0.63663 0.83525 0.0
H361 H 0.21861 0.54793 0.73321 0.0
H362 H 0.31113 0.5226 0.77175 0.0
C363 C 0.0349 0.2229 0.34619 0.0
C364 C 0.0608 0.20523 0.33556 0.0
N365 N 0.04914 0.18317 0.31691 0.0
N366 N 0.00697 0.21209 0.33436 0.0
C367 C 0.0164 0.18762 0.31689 0.0
H368 H 0.03653 0.24354 0.36039 0.0
Co369 Co 0.96638 0.2328 0.33649 0.0
C370 C 0.91868 0.18265 0.31793 0.0
O371 O 0.90158 0.20439 0.3039 0.0
N372 N 0.92507 0.25455 0.33896 0.0
C373 C 0.88477 0.29072 0.33397 0.0
C374 C 0.91718 0.28433 0.32871 0.0
C375 C 0.89712 0.24417 0.35165 0.0
N376 N 0.87189 0.26523 0.34813 0.0
O377 O 0.96485 0.22568 0.37612 0.0
H378 H 0.93355 0.30062 0.31773 0.0
H379 H 0.89509 0.22099 0.36251 0.0
O380 O 0.94504 0.19069 0.33051 0.0
C381 C 0.97081 0.25179 0.38987 0.0
O382 O 0.97777 0.27857 0.37575 0.0
N383 N 0.96996 0.24252 0.29804 0.0
C384 C 0.97562 0.27129 0.24491 0.0
C385 C 0.96593 0.23838 0.24768 0.0
C386 C 0.96334 0.22434 0.27453 0.0
C387 C 0.98402 0.27249 0.29542 0.0
C388 C 0.98636 0.28768 0.26929 0.0
H389 H 0.95585 0.19916 0.2761 0.0
H390 H 0.99135 0.28565 0.3142 0.0
H391 H 0.99985 0.17487 0.30289 0.0
H392 H 0.08635 0.20922 0.34041 0.0
H393 H 0.87146 0.31198 0.32678 0.0
H394 H 0.95925 0.22386 0.22947 0.0
H395 H 0.99432 0.31289 0.2689 0.0
C396 C 0.28954 0.47468 0.14647 0.0
C397 C 0.30778 0.44914 0.15696 0.0
N398 N 0.3287 0.461 0.17646 0.0
N399 N 0.29888 0.50262 0.15921 0.0
C400 C 0.32307 0.49356 0.17707 0.0
H401 H 0.26947 0.47269 0.13173 0.0
Co402 Co 0.27659 0.54238 0.1574 0.0
C403 C 0.3251 0.5914 0.17664 0.0
O404 O 0.30286 0.60658 0.19174 0.0
N405 N 0.2532 0.58279 0.15526 0.0
C406 C 0.21478 0.62107 0.15972 0.0
C407 C 0.22255 0.58887 0.16451 0.0
C408 C 0.26277 0.6116 0.1436 0.0
N409 N 0.24028 0.6356 0.14684 0.0
O410 O 0.28312 0.54432 0.11764 0.0
H411 H 0.20647 0.57132 0.1743 0.0
H412 H 0.28617 0.61508 0.1334 0.0
O413 O 0.31794 0.56554 0.16292 0.0
C414 C 0.25699 0.53722 0.10431 0.0
O415 O 0.23093 0.52887 0.11889 0.0
N416 N 0.2672 0.53834 0.19597 0.0
C417 C 0.23697 0.53459 0.24859 0.0
C418 C 0.26997 0.54417 0.24626 0.0
C419 C 0.28479 0.54568 0.21964 0.0
C420 C 0.23748 0.52372 0.19844 0.0
C421 C 0.22154 0.5223 0.22429 0.0
H422 H 0.30996 0.5533 0.21834 0.0
H423 H 0.22489 0.51555 0.17962 0.0
H424 H 0.33473 0.51013 0.19173 0.0
H425 H 0.30486 0.42362 0.15144 0.0
H426 H 0.19246 0.63308 0.16623 0.0
H427 H 0.28384 0.55184 0.26456 0.0
H428 H 0.19641 0.5141 0.22439 0.0
C429 C 0.03101 0.30365 0.64384 0.0
C430 C 0.05427 0.32381 0.65556 0.0
N431 N 0.04124 0.33864 0.67834 0.0
N432 N 1.00321 0.30566 0.65901 0.0
C433 C 0.01008 0.32753 0.67974 0.0
H434 H 0.0348 0.28722 0.62628 0.0
Co435 Co 0.96751 0.27727 0.6546 0.0
C436 C 0.90922 0.3116 0.67583 0.0
O437 O 0.89975 0.28441 0.6882 0.0
N438 N 0.93133 0.24801 0.64949 0.0
C439 C 0.89483 0.20788 0.654 0.0
C440 C 0.92602 0.21807 0.66059 0.0
C441 C 0.90342 0.25452 0.63499 0.0
N442 N 0.88022 0.23111 0.63824 0.0
O443 O 0.9648 0.28791 0.61548 0.0
H444 H 0.9429 0.20481 0.67377 0.0
H445 H 0.89957 0.27725 0.62383 0.0
O446 O 0.93697 0.31306 0.66338 0.0
C447 C 0.97594 0.26426 0.60083 0.0
O448 O 0.98843 0.23898 0.61411 0.0
N449 N 0.97285 0.26418 0.69223 0.0
C450 C 0.97849 0.2291 0.74225 0.0
C451 C 0.96251 0.25959 0.74174 0.0
C452 C 0.96085 0.27728 0.71659 0.0
C453 C 0.99297 0.23774 0.69337 0.0
C454 C 0.99632 0.21985 0.71821 0.0
H455 H 0.94876 0.30064 0.71679 0.0
H456 H 0.00452 0.22907 0.67423 0.0
H457 H 0.99336 0.33351 0.69664 0.0
H458 H 0.07931 0.32634 0.64846 0.0
H459 H 0.8833 0.18589 0.66187 0.0
H460 H 0.94927 0.26884 0.75981 0.0
H461 H 0.01081 0.19773 0.71785 0.0
C462 C 0.21984 0.03843 0.14918 0.0
C463 C 0.20195 0.06433 0.15949 0.0
N464 N 0.18058 0.0529 0.17883 0.0
N465 N 0.20984 0.01069 0.16186 0.0
C466 C 0.18559 0.02024 0.17951 0.0
H467 H 0.24015 0.04001 0.13463 0.0
Co468 Co 0.23175 0.9707 0.1603 0.0
C469 C 0.18269 0.92205 0.17915 0.0
O470 O 0.20468 0.9069 0.19451 0.0
N471 N 0.2548 0.93008 0.15838 0.0
C472 C 0.2929 0.8915 0.16294 0.0
C473 C 0.28525 0.92369 0.16796 0.0
C474 C 0.24524 0.90145 0.14637 0.0
N475 N 0.26755 0.87729 0.14961 0.0
O476 O 0.22567 0.96872 0.12048 0.0
H477 H 0.3013 0.94103 0.17805 0.0
H478 H 0.22203 0.89825 0.1358 0.0
O479 O 0.19012 0.94783 0.16542 0.0
C480 C 0.2519 0.97513 0.10704 0.0
O481 O 0.27823 0.98294 0.12147 0.0
N482 N 0.2406 0.97472 0.19898 0.0
C483 C 0.26966 0.97822 0.25207 0.0
C484 C 0.23656 0.96923 0.24923 0.0
C485 C 0.22234 0.96781 0.22238 0.0
C486 C 0.27048 0.98889 0.20189 0.0
C487 C 0.28585 0.99015 0.228 0.0
H488 H 0.19708 0.9606 0.2207 0.0
H489 H 0.2836 0.99681 0.18326 0.0
H490 H 0.17344 0.00392 0.19408 0.0
H491 H 0.20541 0.08977 0.15398 0.0
H492 H 0.31509 0.87931 0.16952 0.0
H493 H 0.22214 0.96191 0.26731 0.0
H494 H 0.31111 0.99793 0.22849 0.0
C495 C 0.47637 0.20953 0.64508 0.0
C496 C 0.45095 0.19198 0.65672 0.0
N497 N 0.46332 0.17068 0.67562 0.0
N498 N 0.50477 0.19942 0.65648 0.0
C499 C 0.49605 0.17546 0.67478 0.0
H500 H 0.47408 0.22964 0.63042 0.0
Co501 Co 0.54506 0.22077 0.65249 0.0
C502 C 0.59432 0.1716 0.66935 0.0
O503 O 0.61195 0.19385 0.68236 0.0
N504 N 0.58595 0.24332 0.6481 0.0
C505 C 0.62485 0.28152 0.65059 0.0
C506 C 0.59294 0.27396 0.65695 0.0
C507 C 0.61393 0.23356 0.63504 0.0
N508 N 0.63836 0.25592 0.6371 0.0
O509 O 0.54452 0.21323 0.61284 0.0
H510 H 0.57621 0.29014 0.66759 0.0
H511 H 0.61662 0.20999 0.62493 0.0
O512 O 0.56712 0.17904 0.65794 0.0
C513 C 0.53681 0.23912 0.59947 0.0
O514 O 0.52968 0.26553 0.61405 0.0
N515 N 0.5435 0.23094 0.69101 0.0
C516 C 0.5398 0.26017 0.74413 0.0
C517 C 0.55035 0.22758 0.74119 0.0
C518 C 0.55187 0.21328 0.71436 0.0
C519 C 0.52899 0.26061 0.69396 0.0
C520 C 0.52759 0.27603 0.72005 0.0
H521 H 0.55981 0.18827 0.7127 0.0
H522 H 0.52028 0.27332 0.6754 0.0
H523 H 0.5131 0.16333 0.6887 0.0
H524 H 0.42523 0.19554 0.65236 0.0
H525 H 0.63745 0.30375 0.65656 0.0
H526 H 0.55832 0.21351 0.75925 0.0
H527 H 0.51896 0.30099 0.72064 0.0
H528 H 0.62248 0.98592 0.21115 0.0
H529 H 0.60662 0.82028 0.29975 0.0
H530 H 0.67834 0.89887 0.19388 0.0
H531 H 0.52819 0.89052 0.29674 0.0
H532 H 0.63712 0.85303 0.2657 0.0
H533 H 0.59108 0.9553 0.24688 0.0
C534 C 0.62812 0.96043 0.21488 0.0
C535 C 0.65289 0.94487 0.19935 0.0
C536 C 0.61327 0.86139 0.27251 0.0
C537 C 0.61751 0.90993 0.24027 0.0
C538 C 0.59594 0.84282 0.29219 0.0
C539 C 0.56479 0.85269 0.30125 0.0
C540 C 0.59967 0.89038 0.26187 0.0
C541 C 0.55202 0.88193 0.29021 0.0
C542 C 0.61015 0.94297 0.23514 0.0
C543 C 0.65916 0.91175 0.20498 0.0
N544 N 0.56956 0.89984 0.27118 0.0
N545 N 0.64178 0.89552 0.22502 0.0
H546 H 0.61524 0.52747 0.79409 0.0
H547 H 0.61015 0.68773 0.6971 0.0
H548 H 0.68581 0.60587 0.79786 0.0
H549 H 0.52802 0.62179 0.70356 0.0
H550 H 0.63951 0.65499 0.73149 0.0
H551 H 0.58399 0.55893 0.75912 0.0
C552 C 0.62414 0.55127 0.78767 0.0
C553 C 0.65321 0.56402 0.79913 0.0
C554 C 0.61509 0.64753 0.72542 0.0
C555 C 0.61767 0.60005 0.75899 0.0
C556 C 0.59834 0.66611 0.70545 0.0
C557 C 0.5665 0.6575 0.69713 0.0
C558 C 0.60017 0.61982 0.7373 0.0
C559 C 0.55241 0.62949 0.7094 0.0
C560 C 0.60623 0.56925 0.76777 0.0
C561 C 0.66339 0.59513 0.79008 0.0
N562 N 0.56935 0.6116 0.72881 0.0
N563 N 0.6458 0.61188 0.77054 0.0
H564 H 0.9775 0.62041 0.28883 0.0
H565 H 0.81526 0.60626 0.19489 0.0
H566 H 0.89504 0.68551 0.29592 0.0
H567 H 0.88535 0.52787 0.20079 0.0
H568 H 0.84716 0.63762 0.22888 0.0
H569 H 0.94688 0.58791 0.25407 0.0
C570 C 0.953 0.62786 0.28313 0.0
C571 C 0.93882 0.6557 0.29549 0.0
C572 C 0.85567 0.61358 0.22275 0.0
C573 C 0.90373 0.61876 0.2556 0.0
C574 C 0.83757 0.59572 0.20307 0.0
C575 C 0.84763 0.56433 0.19477 0.0
C576 C 0.88434 0.60022 0.23425 0.0
C577 C 0.87653 0.55184 0.20668 0.0
C578 C 0.93549 0.60924 0.26337 0.0
C579 C 0.90686 0.66405 0.28737 0.0
N580 N 0.89392 0.56984 0.22574 0.0
N581 N 0.89056 0.64582 0.26792 0.0
H582 H 0.90992 0.8697 0.66573 0.0
H583 H 0.88738 0.92243 0.82682 0.0
H584 H 0.98248 0.85022 0.72948 0.0
H585 H 0.8353 0.96925 0.75891 0.0
H586 H 0.92002 0.89242 0.79196 0.0
H587 H 0.87966 0.90319 0.69991 0.0
C588 C 0.91953 0.8726 0.68687 0.0
C589 C 0.94884 0.85727 0.6947 0.0
C590 C 0.90159 0.90941 0.78468 0.0
C591 C 0.9142 0.89518 0.73404 0.0
C592 C 0.88286 0.92641 0.80457 0.0
C593 C 0.85863 0.94843 0.79578 0.0
C594 C 0.89569 0.91399 0.75572 0.0
C595 C 0.85396 0.95281 0.76663 0.0
C596 C 0.90234 0.89178 0.70634 0.0
C597 C 0.96026 0.86194 0.72239 0.0
N598 N 0.87209 0.93555 0.74767 0.0
N599 N 0.94279 0.88019 0.7411 0.0
H600 H 0.3267 0.10823 0.80271 0.0
H601 H 0.48171 0.11306 0.69977 0.0
H602 H 0.38541 0.02256 0.7874 0.0
H603 H 0.40339 0.18347 0.69762 0.0
H604 H 0.45065 0.08116 0.73479 0.0
H605 H 0.35857 0.13796 0.76759 0.0
C606 C 0.34652 0.0957 0.79215 0.0
C607 C 0.35346 0.06283 0.79822 0.0
C608 C 0.44026 0.10351 0.72648 0.0
C609 C 0.39018 0.09691 0.75754 0.0
C610 C 0.45802 0.12179 0.70661 0.0
C611 C 0.44511 0.15094 0.69556 0.0
C612 C 0.40962 0.11477 0.73577 0.0
C613 C 0.41419 0.16098 0.70514 0.0
C614 C 0.36458 0.11266 0.77186 0.0
C615 C 0.37913 0.0478 0.78332 0.0
N616 N 0.3977 0.14311 0.72473 0.0
N617 N 0.3967 0.065 0.76379 0.0
H618 H 0.39507 0.31669 0.29519 0.0
H619 H 0.38441 0.48055 0.2032 0.0
H620 H 0.47431 0.38631 0.29144 0.0
H621 H 0.3183 0.39886 0.19469 0.0
H622 H 0.41613 0.44907 0.23781 0.0
H623 H 0.36478 0.34941 0.26126 0.0
C624 C 0.40602 0.33908 0.28751 0.0
C625 C 0.43734 0.34876 0.29641 0.0
C626 C 0.39476 0.43804 0.22822 0.0
C627 C 0.40265 0.38642 0.25691 0.0
C628 C 0.37659 0.45603 0.20854 0.0
C629 C 0.34866 0.44235 0.19584 0.0
C630 C 0.38471 0.40627 0.23556 0.0
C631 C 0.33983 0.41034 0.20349 0.0
C632 C 0.38877 0.35765 0.26784 0.0
C633 C 0.45037 0.37779 0.28509 0.0
N634 N 0.35764 0.39356 0.22288 0.0
N635 N 0.43295 0.39564 0.266 0.0
H636 H 0.0177 0.38792 0.71144 0.0
H637 H 0.18535 0.40432 0.79729 0.0
H638 H 0.10488 0.33268 0.69321 0.0
H639 H 0.11403 0.48188 0.79742 0.0
H640 H 0.15203 0.37425 0.76357 0.0
H641 H 0.04866 0.41948 0.74693 0.0
C642 C 0.04327 0.38244 0.7149 0.0
C643 C 0.05876 0.35778 0.69913 0.0
C644 C 0.14352 0.39781 0.77097 0.0
C645 C 0.09411 0.3934 0.73976 0.0
C646 C 0.16244 0.41492 0.79051 0.0
C647 C 0.15245 0.44569 0.80045 0.0
C648 C 0.11402 0.41121 0.76123 0.0
C649 C 0.12273 0.45833 0.79025 0.0
C650 C 0.06093 0.40052 0.73502 0.0
C651 C 0.092 0.35175 0.70443 0.0
N652 N 0.10446 0.44099 0.77128 0.0
N653 N 0.1084 0.36923 0.72431 0.0
H654 H 0.03059 0.12571 0.29255 0.0
H655 H 0.19184 0.11497 0.19697 0.0
H656 H 0.11042 0.19459 0.29691 0.0
H657 H 0.12423 0.03447 0.20521 0.0
H658 H 0.15952 0.14612 0.23077 0.0
H659 H 0.06199 0.09334 0.25833 0.0
C660 C 0.0547 0.13402 0.28637 0.0
C661 C 0.06787 0.16292 0.29777 0.0
C662 C 0.15165 0.12166 0.22519 0.0
C663 C 0.10387 0.12609 0.25847 0.0
C664 C 0.16999 0.10391 0.20562 0.0
C665 C 0.16074 0.07199 0.19803 0.0
C666 C 0.12357 0.10766 0.23729 0.0
C667 C 0.13241 0.05887 0.21053 0.0
C668 C 0.07265 0.11547 0.26691 0.0
C669 C 0.09937 0.17232 0.28909 0.0
N670 N 0.11479 0.07676 0.22946 0.0
N671 N 0.11613 0.15411 0.26992 0.0
H672 H 0.6312 0.07915 0.17188 0.0
H673 H 0.58906 0.26288 0.20771 0.0
H674 H 0.69888 0.15981 0.1787 0.0
H675 H 0.51871 0.18443 0.21676 0.0
H676 H 0.62261 0.22761 0.17932 0.0
H677 H 0.58554 0.11842 0.17397 0.0
C678 C 0.6364 0.10508 0.17338 0.0
C679 C 0.6687 0.1163 0.17582 0.0
C680 C 0.5996 0.21815 0.18721 0.0
C681 C 0.6172 0.16098 0.17744 0.0
C682 C 0.5799 0.2386 0.2033 0.0
C683 C 0.55152 0.22633 0.21635 0.0
C684 C 0.59145 0.18496 0.18463 0.0
C685 C 0.54141 0.19449 0.20889 0.0
C686 C 0.61045 0.12741 0.17444 0.0
C687 C 0.67431 0.15004 0.17741 0.0
N688 N 0.56195 0.17446 0.19439 0.0
N689 N 0.64887 0.17108 0.17837 0.0
H690 H 0.32762 0.51693 0.72655 0.0
H691 H 0.35092 0.69713 0.67928 0.0
H692 H 0.24935 0.58555 0.71088 0.0
H693 H 0.43065 0.62837 0.67709 0.0
H694 H 0.3124 0.65225 0.68079 0.0
H695 H 0.36401 0.55122 0.69834 0.0
C696 C 0.31774 0.53871 0.71682 0.0
C697 C 0.28565 0.54919 0.72276 0.0
C698 C 0.33823 0.64662 0.67958 0.0
C699 C 0.32707 0.58799 0.68986 0.0
C700 C 0.36026 0.67237 0.67881 0.0
C701 C 0.3939 0.66633 0.67843 0.0
C702 C 0.34985 0.61439 0.68127 0.0
C703 C 0.40477 0.63386 0.67765 0.0
C704 C 0.33858 0.55815 0.70048 0.0
C705 C 0.27393 0.57653 0.70792 0.0
N706 N 0.38274 0.60892 0.67988 0.0
N707 N 0.29483 0.59533 0.69281 0.0
H708 H 0.00693 0.32711 0.22478 0.0
H709 H 0.84949 0.36926 0.13461 0.0
H710 H 0.92932 0.25933 0.20377 0.0
H711 H 0.88663 0.42932 0.20203 0.0
H712 H 0.89772 0.33404 0.13864 0.0
H713 H 0.98108 0.36785 0.19446 0.0
C714 C 0.98497 0.32033 0.21346 0.0
C715 C 0.96919 0.29023 0.21853 0.0
C716 C 0.89589 0.35568 0.15175 0.0
C717 C 0.94106 0.33609 0.18243 0.0
C718 C 0.86837 0.37554 0.14964 0.0
C719 C 0.86404 0.40147 0.16854 0.0
C720 C 0.91914 0.36221 0.17274 0.0
C721 C 0.88925 0.40924 0.1873 0.0
C722 C 0.97058 0.34357 0.19587 0.0
C723 C 0.94214 0.2823 0.20149 0.0
N724 N 0.91566 0.38926 0.1893 0.0
N725 N 0.92853 0.30539 0.18468 0.0
H726 H 0.24251 0.96837 0.69755 0.0
H727 H 0.06771 0.88572 0.68058 0.0
H728 H 0.16187 0.98019 0.75584 0.0
H729 H 0.16 0.84037 0.66094 0.0
H730 H 0.09667 0.93764 0.68928 0.0
H731 H 0.20557 0.93998 0.66528 0.0
C732 C 0.21709 0.96576 0.70347 0.0
C733 C 0.206 0.97524 0.73038 0.0
C734 C 0.11029 0.91654 0.68205 0.0
C735 C 0.16348 0.94416 0.69286 0.0
C736 C 0.09387 0.88707 0.67716 0.0
C737 C 0.11178 0.85894 0.67056 0.0
C738 C 0.14453 0.91764 0.67968 0.0
C739 C 0.14555 0.8616 0.6664 0.0
C740 C 0.19597 0.9499 0.6848 0.0
C741 C 0.17218 0.97287 0.73582 0.0
N742 N 0.16094 0.89041 0.67129 0.0
N743 N 0.15232 0.95689 0.71751 0.0
H744 H 0.58838 0.25094 0.78364 0.0
H745 H 0.61859 0.42633 0.78973 0.0
H746 H 0.50615 0.31384 0.76536 0.0
H747 H 0.65549 0.3673 0.85778 0.0
H748 H 0.57277 0.3881 0.78426 0.0
H749 H 0.60904 0.29173 0.816 0.0
C750 C 0.57392 0.27273 0.78691 0.0
C751 C 0.54612 0.27933 0.77042 0.0
C752 C 0.59019 0.38415 0.80113 0.0
C753 C 0.57078 0.3269 0.80694 0.0
C754 C 0.61623 0.40596 0.80422 0.0
C755 C 0.64079 0.3994 0.82391 0.0
C756 C 0.58973 0.35522 0.81716 0.0
C757 C 0.63719 0.37258 0.84197 0.0
C758 C 0.58597 0.29624 0.80548 0.0
C759 C 0.52877 0.30834 0.77616 0.0
N760 N 0.61265 0.35077 0.83761 0.0
N761 N 0.54208 0.33168 0.79305 0.0
H762 H 0.18032 0.50467 0.26859 0.0
H763 H 0.13423 0.66397 0.3556 0.0
H764 H 0.24722 0.58374 0.28754 0.0
H765 H 0.07537 0.62542 0.28802 0.0
H766 H 0.17112 0.61699 0.35113 0.0
H767 H 0.13862 0.53214 0.29687 0.0
C768 C 0.18669 0.52733 0.27904 0.0
C769 C 0.21698 0.54279 0.27403 0.0
C770 C 0.14948 0.61829 0.338 0.0
C771 C 0.16992 0.57292 0.30785 0.0
C772 C 0.1287 0.64511 0.34034 0.0
C773 C 0.10251 0.64867 0.32162 0.0
C774 C 0.14354 0.59487 0.31702 0.0
C775 C 0.09561 0.6234 0.30264 0.0
C776 C 0.16288 0.54269 0.29543 0.0
C777 C 0.22423 0.57098 0.28991 0.0
N778 N 0.1164 0.59761 0.30049 0.0
N779 N 0.20062 0.58548 0.30563 0.0
H780 H 0.96346 0.24016 0.79867 0.0
H781 H 0.87654 0.06635 0.80857 0.0
H782 H 0.97627 0.16188 0.7382 0.0
H783 H 0.83306 0.1584 0.83207 0.0
H784 H 0.92873 0.09488 0.80013 0.0
H785 H 0.93249 0.20259 0.82857 0.0
C786 C 0.96053 0.21508 0.79183 0.0
C787 C 0.97119 0.20491 0.76499 0.0
C788 C 0.90793 0.10852 0.80795 0.0
C789 C 0.93693 0.16167 0.79973 0.0
C790 C 0.87829 0.09236 0.81267 0.0
C791 C 0.85056 0.11034 0.82039 0.0
C792 C 0.90969 0.14257 0.81166 0.0
C793 C 0.85385 0.1439 0.82556 0.0
C794 C 0.9431 0.19361 0.80911 0.0
C795 C 0.96816 0.17146 0.75828 0.0
N796 N 0.88285 0.15903 0.82087 0.0
N797 N 0.95066 0.15125 0.77523 0.0
H798 H 0.32652 0.00695 0.27294 0.0
H799 H 0.36679 0.84476 0.35783 0.0
H800 H 0.25749 0.92941 0.2909 0.0
H801 H 0.4294 0.8855 0.29381 0.0
H802 H 0.33095 0.89257 0.35395 0.0
H803 H 0.36703 0.97855 0.30175 0.0
C804 C 0.31944 0.98444 0.28327 0.0
C805 C 0.28892 0.96965 0.27782 0.0
C806 C 0.35314 0.89153 0.34148 0.0
C807 C 0.33464 0.93842 0.31219 0.0
C808 C 0.37333 0.86424 0.34349 0.0
C809 C 0.40031 0.86112 0.32555 0.0
C810 C 0.36036 0.91578 0.32154 0.0
C811 C 0.40851 0.88716 0.30779 0.0
C812 C 0.34257 0.96854 0.29998 0.0
C813 C 0.28072 0.94165 0.29358 0.0
N814 N 0.38821 0.91336 0.30585 0.0
N815 N 0.3037 0.9266 0.30957 0.0
H816 H 0.49561 0.8336 0.77145 0.0
H817 H 0.3161 0.84737 0.82444 0.0
H818 H 0.4308 0.75227 0.78883 0.0
H819 H 0.38001 0.93121 0.82098 0.0
H820 H 0.36305 0.81165 0.82219 0.0
H821 H 0.46051 0.86843 0.80016 0.0
C822 C 0.47448 0.82271 0.78148 0.0
C823 C 0.46522 0.79013 0.77577 0.0
C824 C 0.36718 0.83781 0.82228 0.0
C825 C 0.42565 0.82983 0.80953 0.0
C826 C 0.34023 0.85824 0.82351 0.0
C827 C 0.34426 0.89218 0.82253 0.0
C828 C 0.39851 0.85129 0.81873 0.0
C829 C 0.37604 0.90503 0.82149 0.0
C830 C 0.45462 0.8427 0.79819 0.0
C831 C 0.43889 0.77723 0.79135 0.0
N832 N 0.40208 0.8845 0.81883 0.0
N833 N 0.4197 0.79728 0.80686 0.0
H834 H 0.75227 0.41674 0.28478 0.0
H835 H 0.57418 0.38265 0.29142 0.0
H836 H 0.68555 0.49628 0.26795 0.0
H837 H 0.63801 0.33922 0.35305 0.0
H838 H 0.61224 0.42885 0.28715 0.0
H839 H 0.71194 0.39259 0.31577 0.0
C840 C 0.72966 0.42988 0.28815 0.0
C841 C 0.72196 0.45799 0.27244 0.0
C842 C 0.61739 0.40978 0.30237 0.0
C843 C 0.67495 0.42934 0.30731 0.0
C844 C 0.59567 0.38353 0.30478 0.0
C845 C 0.60351 0.35715 0.32223 0.0
C846 C 0.64737 0.4088 0.3169 0.0
C847 C 0.63169 0.35893 0.3389 0.0
C848 C 0.7064 0.4158 0.30588 0.0
C849 C 0.692 0.47357 0.27822 0.0
N850 N 0.65315 0.38392 0.33529 0.0
N851 N 0.66903 0.45838 0.2943 0.0
H852 H 0.08449 0.76619 0.78858 0.0
H853 H 0.12116 0.58191 0.82448 0.0
H854 H 0.01496 0.68867 0.77171 0.0
H855 H 0.18966 0.66148 0.81512 0.0
H856 H 0.0759 0.62188 0.82268 0.0
H857 H 0.11326 0.73033 0.81991 0.0
C858 C 0.07445 0.74201 0.79164 0.0
C859 C 0.04826 0.73005 0.77534 0.0
C860 C 0.10095 0.63044 0.82179 0.0
C861 C 0.08289 0.68807 0.81071 0.0
C862 C 0.12662 0.60775 0.82266 0.0
C863 C 0.15897 0.61853 0.81937 0.0
C864 C 0.10813 0.66386 0.81834 0.0
C865 C 0.16501 0.65212 0.81725 0.0
C866 C 0.0914 0.72126 0.80961 0.0
C867 C 0.0366 0.69841 0.78175 0.0
N868 N 0.13989 0.67348 0.81667 0.0
N869 N 0.05481 0.67797 0.798 0.0
H870 H 0.86741 0.15809 0.34706 0.0
H871 H 0.85033 0.02299 0.23362 0.0
H872 H 0.94383 0.13108 0.28916 0.0
H873 H 0.77744 0.0402 0.29813 0.0
H874 H 0.89045 0.04994 0.26256 0.0
H875 H 0.84034 0.10573 0.33837 0.0
C876 C 0.87873 0.14068 0.33294 0.0
C877 C 0.9073 0.14879 0.31832 0.0
C878 C 0.86585 0.0473 0.27073 0.0
C879 C 0.87653 0.08932 0.30783 0.0
C880 C 0.84263 0.03142 0.25421 0.0
C881 C 0.80964 0.03026 0.26271 0.0
C882 C 0.85603 0.06296 0.29563 0.0
C883 C 0.80203 0.04192 0.28985 0.0
C884 C 0.86343 0.11075 0.32805 0.0
C885 C 0.92156 0.12553 0.3006 0.0
N886 N 0.82479 0.05869 0.30496 0.0
N887 N 0.90562 0.09701 0.29534 0.0
H888 H 0.42025 0.75376 0.20968 0.0
H889 H 0.37961 0.57896 0.20751 0.0
H890 H 0.49952 0.68636 0.22571 0.0
H891 H 0.34282 0.63886 0.14 0.0
H892 H 0.42699 0.61559 0.21172 0.0
H893 H 0.39498 0.71332 0.17955 0.0
C894 C 0.43312 0.731 0.20637 0.0
C895 C 0.4615 0.72319 0.22171 0.0
C896 C 0.40911 0.62011 0.19532 0.0
C897 C 0.43148 0.67609 0.1878 0.0
C898 C 0.38217 0.59927 0.19299 0.0
C899 C 0.35733 0.60653 0.17376 0.0
C900 C 0.41031 0.64874 0.17893 0.0
C901 C 0.36128 0.63317 0.15554 0.0
C902 C 0.41837 0.70769 0.18911 0.0
C903 C 0.4766 0.69295 0.21591 0.0
N904 N 0.38683 0.65398 0.15909 0.0
N905 N 0.46071 0.66995 0.20038 0.0
H906 H 0.81447 0.48722 0.71984 0.0
H907 H 0.84377 0.30635 0.67307 0.0
H908 H 0.73978 0.413 0.7109 0.0
H909 H 0.92117 0.37803 0.67443 0.0
H910 H 0.80372 0.34976 0.67487 0.0
H911 H 0.85115 0.45364 0.69132 0.0
C912 C 0.8054 0.4643 0.71148 0.0
C913 C 0.77441 0.45224 0.7193 0.0
C914 C 0.82938 0.35632 0.67444 0.0
C915 C 0.81609 0.41416 0.68614 0.0
C916 C 0.85231 0.33142 0.6735 0.0
C917 C 0.88575 0.33868 0.67409 0.0
C918 C 0.83986 0.38887 0.67722 0.0
C919 C 0.8955 0.37155 0.6743 0.0
C920 C 0.82639 0.44524 0.69501 0.0
C921 C 0.76354 0.42331 0.70632 0.0
N922 N 0.87257 0.39557 0.67662 0.0
N923 N 0.78462 0.40496 0.69101 0.0
H924 H 0.00533 0.82792 0.22656 0.0
H925 H 0.16593 0.87532 0.14148 0.0
H926 H 0.08489 0.76126 0.20915 0.0
H927 H 0.12752 0.93328 0.20968 0.0
H928 H 0.11912 0.83801 0.14593 0.0
H929 H 0.03392 0.86994 0.19941 0.0
C930 C 0.02836 0.82168 0.21671 0.0
C931 C 0.04347 0.79127 0.22175 0.0
C932 C 0.12041 0.85956 0.15919 0.0
C933 C 0.07493 0.83874 0.18915 0.0
C934 C 0.14709 0.88062 0.15683 0.0
C935 C 0.15062 0.90672 0.17568 0.0
C936 C 0.09704 0.86519 0.18027 0.0
C937 C 0.12548 0.91318 0.19489 0.0
C938 C 0.04436 0.84568 0.20094 0.0
C939 C 0.07228 0.78427 0.20666 0.0
N940 N 0.09978 0.89219 0.19699 0.0
N941 N 0.08736 0.80805 0.19149 0.0
H942 H 0.74024 0.03598 0.69347 0.0
H943 H 0.56574 0.11701 0.69138 0.0
H944 H 0.66365 0.01901 0.75459 0.0
H945 H 0.65033 0.15043 0.64563 0.0
H946 H 0.59358 0.06475 0.70015 0.0
H947 H 0.69974 0.05993 0.66176 0.0
C948 C 0.71486 0.03647 0.69997 0.0
C949 C 0.70569 0.02674 0.72727 0.0
C950 C 0.60565 0.08317 0.68743 0.0
C951 C 0.65936 0.05397 0.69115 0.0
C952 C 0.58978 0.11285 0.68245 0.0
C953 C 0.60637 0.138 0.66845 0.0
C954 C 0.63814 0.07905 0.67828 0.0
C955 C 0.63731 0.13176 0.65717 0.0
C956 C 0.69172 0.05 0.6818 0.0
C957 C 0.67219 0.0267 0.73403 0.0
N958 N 0.65247 0.10306 0.66269 0.0
N959 N 0.65038 0.041 0.71641 0.0
H960 H 0.80637 0.33382 0.14434 0.0
H961 H 0.72142 0.15849 0.12707 0.0
H962 H 0.70347 0.3204 0.1288 0.0
H963 H 0.82473 0.17168 0.14223 0.0
H964 H 0.71538 0.21747 0.12326 0.0
H965 H 0.81451 0.27489 0.1393 0.0
C966 C 0.78561 0.31861 0.13923 0.0
C967 C 0.75426 0.33226 0.13681 0.0
C968 C 0.73944 0.20746 0.12723 0.0
C969 C 0.76315 0.26431 0.13172 0.0
C970 C 0.74302 0.17353 0.12928 0.0
C971 C 0.77365 0.15961 0.13545 0.0
C972 C 0.76664 0.22796 0.13125 0.0
C973 C 0.8005 0.181 0.13808 0.0
C974 C 0.79018 0.28482 0.13666 0.0
C975 C 0.72803 0.311 0.13107 0.0
N976 N 0.79632 0.21396 0.13618 0.0
N977 N 0.73304 0.27818 0.12886 0.0
H978 H 0.33411 0.82389 0.63837 0.0
H979 H 0.16728 0.80049 0.62238 0.0
H980 H 0.34322 0.71902 0.63184 0.0
H981 H 0.18723 0.69962 0.64297 0.0
H982 H 0.22549 0.81005 0.61733 0.0
H983 H 0.2755 0.81865 0.63347 0.0
C984 C 0.32396 0.79966 0.63573 0.0
C985 C 0.34413 0.77182 0.63626 0.0
C986 C 0.21735 0.7859 0.62339 0.0
C987 C 0.27586 0.76556 0.62954 0.0
C988 C 0.1837 0.78025 0.62595 0.0
C989 C 0.17176 0.74934 0.634 0.0
C990 C 0.23963 0.76051 0.62901 0.0
C991 C 0.19486 0.72415 0.63765 0.0
C992 C 0.2901 0.79669 0.6325 0.0
C993 C 0.32903 0.74125 0.63199 0.0
N994 N 0.22749 0.73036 0.63536 0.0
N995 N 0.29591 0.73895 0.62921 0.0
H996 H 0.68157 0.17139 0.85096 0.0
H997 H 0.80359 0.32421 0.86482 0.0
H998 H 0.78539 0.16198 0.86491 0.0
H999 H 0.70043 0.33351 0.84852 0.0
H1000 H 0.79658 0.26499 0.86937 0.0
H1001 H 0.68704 0.23072 0.85476 0.0
C1002 C 0.70551 0.18166 0.85497 0.0
C1003 C 0.7331 0.16133 0.85721 0.0
C1004 C 0.77536 0.27999 0.86512 0.0
C1005 C 0.73954 0.22971 0.8617 0.0
C1006 C 0.77937 0.31385 0.86246 0.0
C1007 C 0.7525 0.33402 0.85636 0.0
C1008 C 0.74424 0.26596 0.86149 0.0
C1009 C 0.72167 0.31914 0.85376 0.0
C1010 C 0.7086 0.21566 0.85721 0.0
C1011 C 0.76336 0.17634 0.863 0.0
N1012 N 0.71842 0.28609 0.85611 0.0
N1013 N 0.76579 0.20951 0.86476 0.0
H1014 H 0.32779 0.69357 0.35936 0.0
H1015 H 0.17348 0.81426 0.36229 0.0
H1016 H 0.33576 0.79849 0.35446 0.0
H1017 H 0.16577 0.70995 0.35125 0.0
H1018 H 0.23283 0.80872 0.36642 0.0
H1019 H 0.26846 0.69887 0.36341 0.0
C1020 C 0.31718 0.71778 0.35932 0.0
C1021 C 0.33706 0.74568 0.35641 0.0
C1022 C 0.21811 0.78698 0.36337 0.0
C1023 C 0.26881 0.75194 0.36126 0.0
C1024 C 0.18416 0.79012 0.36095 0.0
C1025 C 0.16437 0.76248 0.35635 0.0
C1026 C 0.23257 0.75594 0.36124 0.0
C1027 C 0.17976 0.73182 0.35522 0.0
C1028 C 0.28323 0.72079 0.36171 0.0
C1029 C 0.32171 0.77639 0.35701 0.0
N1030 N 0.21286 0.72939 0.35746 0.0
N1031 N 0.28859 0.77869 0.35917 0.0
H1032 H 0.20637 0.66887 0.86508 0.0
H1033 H 0.29101 0.84576 0.87125 0.0
H1034 H 0.31065 0.68442 0.86036 0.0
H1035 H 0.18762 0.83124 0.8577 0.0
H1036 H 0.29788 0.78674 0.87495 0.0
H1037 H 0.19868 0.7278 0.86992 0.0
C1038 C 0.22773 0.68444 0.86518 0.0
C1039 C 0.25922 0.67126 0.86147 0.0
C1040 C 0.27364 0.79649 0.8713 0.0
C1041 C 0.25046 0.73931 0.86748 0.0
C1042 C 0.26961 0.83041 0.86925 0.0
C1043 C 0.23873 0.84396 0.86341 0.0
C1044 C 0.24656 0.77566 0.86795 0.0
C1045 C 0.21205 0.82223 0.86147 0.0
C1046 C 0.22325 0.71826 0.86793 0.0
C1047 C 0.28583 0.69316 0.86235 0.0
N1048 N 0.21661 0.7893 0.86356 0.0
N1049 N 0.28084 0.72594 0.8651 0.0
H1050 H 0.84028 0.20707 0.35424 0.0
H1051 H 0.67111 0.19178 0.36669 0.0
H1052 H 0.82417 0.31115 0.35461 0.0
H1053 H 0.66842 0.29283 0.34146 0.0
H1054 H 0.73032 0.19562 0.37179 0.0
H1055 H 0.7818 0.19826 0.35812 0.0
C1056 C 0.82453 0.22812 0.35579 0.0
C1057 C 0.83749 0.25986 0.35397 0.0
C1058 C 0.71709 0.21704 0.36494 0.0
C1059 C 0.7695 0.25014 0.35871 0.0
C1060 C 0.68308 0.21485 0.36227 0.0
C1061 C 0.66473 0.24208 0.35373 0.0
C1062 C 0.73313 0.24664 0.35856 0.0
C1063 C 0.68147 0.27147 0.34863 0.0
C1064 C 0.79078 0.22312 0.35806 0.0
C1065 C 0.81547 0.2862 0.35553 0.0
N1066 N 0.71463 0.27291 0.35095 0.0
N1067 N 0.78269 0.28074 0.35758 0.0
H1068 H 0.1922 0.68033 0.13763 0.0
H1069 H 0.31578 0.83276 0.14016 0.0
H1070 H 0.29677 0.67077 0.14479 0.0
H1071 H 0.21108 0.84222 0.14609 0.0
H1072 H 0.30935 0.77357 0.13551 0.0
H1073 H 0.19867 0.73966 0.13436 0.0
C1074 C 0.21658 0.6906 0.13831 0.0
C1075 C 0.24402 0.67029 0.14158 0.0
C1076 C 0.28773 0.78863 0.13757 0.0
C1077 C 0.25164 0.7385 0.1377 0.0
C1078 C 0.29138 0.8225 0.1403 0.0
C1079 C 0.26389 0.84274 0.14363 0.0
C1080 C 0.25632 0.77467 0.13814 0.0
C1081 C 0.23289 0.82787 0.14319 0.0
C1082 C 0.22026 0.72455 0.13638 0.0
C1083 C 0.275 0.68519 0.14189 0.0
N1084 N 0.22996 0.79482 0.14071 0.0
N1085 N 0.27795 0.71829 0.14018 0.0
H1086 H 0.6831 0.30371 0.62611 0.0
H1087 H 0.83512 0.18164 0.63775 0.0
H1088 H 0.67299 0.19925 0.63368 0.0
H1089 H 0.84504 0.28541 0.62311 0.0
H1090 H 0.77602 0.18703 0.63303 0.0
H1091 H 0.74228 0.29707 0.62179 0.0
C1092 C 0.69323 0.27929 0.62671 0.0
C1093 C 0.6728 0.25196 0.63063 0.0
C1094 C 0.79116 0.2086 0.63069 0.0
C1095 C 0.74098 0.24414 0.62566 0.0
C1096 C 0.8251 0.20559 0.63351 0.0
C1097 C 0.84558 0.23321 0.63154 0.0
C1098 C 0.77724 0.23948 0.62589 0.0
C1099 C 0.83069 0.26336 0.62518 0.0
C1100 C 0.72712 0.27551 0.62414 0.0
C1101 C 0.68754 0.22095 0.63069 0.0
N1102 N 0.79756 0.26571 0.62295 0.0
N1103 N 0.72063 0.2179 0.62859 0.0
H1104 H 0.81083 0.04296 0.92858 0.0
H1105 H 0.69534 0.0421 0.06527 0.0
H1106 H 0.70658 0.02685 0.92478 0.0
H1107 H 0.79942 0.025 0.06829 0.0
H1108 H 0.69891 0.04577 0.01359 0.0
H1109 H 0.80699 0.04572 0.98023 0.0
C1110 C 0.78718 0.04014 0.9386 0.0
C1111 C 0.75907 0.03432 0.92246 0.0
C1112 C 0.72092 0.04128 0.02567 0.0
C1113 C 0.75441 0.03775 0.9812 0.0
C1114 C 0.71888 0.03925 0.05508 0.0
C1115 C 0.74704 0.0329 0.071 0.0
C1116 C 0.75138 0.0374 0.01229 0.0
C1117 C 0.777 0.02953 0.0568 0.0
C1118 C 0.78498 0.04165 0.968 0.0
C1119 C 0.72896 0.03097 0.93646 0.0
N1120 N 0.77839 0.03184 0.02828 0.0
N1121 N 0.72741 0.03274 0.96502 0.0
H1122 H 0.46425 0.81187 0.42974 0.0
H1123 H 0.46392 0.69864 0.56774 0.0
H1124 H 0.47288 0.70673 0.42673 0.0
H1125 H 0.48179 0.8027 0.56941 0.0
H1126 H 0.46046 0.70118 0.51607 0.0
H1127 H 0.4638 0.80908 0.4814 0.0
C1128 C 0.46596 0.78824 0.43993 0.0
C1129 C 0.46884 0.75954 0.42395 0.0
C1130 C 0.46513 0.72342 0.52783 0.0
C1131 C 0.46816 0.75611 0.48286 0.0
C1132 C 0.46706 0.72197 0.55726 0.0
C1133 C 0.47337 0.75044 0.57285 0.0
C1134 C 0.46919 0.7536 0.51403 0.0
C1135 C 0.47715 0.78008 0.55823 0.0
C1136 C 0.46577 0.78664 0.46938 0.0
C1137 C 0.47089 0.72951 0.43823 0.0
N1138 N 0.47496 0.78088 0.52968 0.0
N1139 N 0.47049 0.72858 0.46687 0.0
H1140 H 0.7047 0.47147 0.07011 0.0
H1141 H 0.79909 0.47411 0.92288 0.0
H1142 H 0.80955 0.46227 0.06327 0.0
H1143 H 0.69455 0.46168 0.92985 0.0
H1144 H 0.80337 0.47269 0.97417 0.0
H1145 H 0.7006 0.47078 0.01884 0.0
C1146 C 0.72693 0.46933 0.05782 0.0
C1147 C 0.75757 0.46703 0.07101 0.0
C1148 C 0.7795 0.47019 0.96452 0.0
C1149 C 0.75296 0.46628 0.01214 0.0
C1150 C 0.77698 0.47112 0.9352 0.0
C1151 C 0.74635 0.46812 0.92205 0.0
C1152 C 0.75118 0.46651 0.98089 0.0
C1153 C 0.71862 0.46411 0.93912 0.0
C1154 C 0.72451 0.46882 0.0285 0.0
C1155 C 0.78545 0.46412 0.05396 0.0
N1156 N 0.72168 0.46358 0.9677 0.0
N1157 N 0.78249 0.46398 0.02536 0.0
H1158 H 0.03943 0.69558 0.42758 0.0
H1159 H 0.04322 0.81159 0.56389 0.0
H1160 H 0.02533 0.8001 0.42415 0.0
H1161 H 0.03091 0.70685 0.56835 0.0
H1162 H 0.04286 0.80783 0.51225 0.0
H1163 H 0.04239 0.69914 0.47921 0.0
C1164 C 0.03697 0.71922 0.43767 0.0
C1165 C 0.03195 0.74753 0.42157 0.0
C1166 C 0.04023 0.7857 0.52459 0.0
C1167 C 0.03556 0.75185 0.4804 0.0
C1168 C 0.0405 0.78784 0.55402 0.0
C1169 C 0.0369 0.75954 0.57042 0.0
C1170 C 0.03667 0.75501 0.51153 0.0
C1171 C 0.03352 0.72936 0.55654 0.0
C1172 C 0.03861 0.72125 0.46709 0.0
C1173 C 0.029 0.77759 0.43572 0.0
N1174 N 0.03354 0.72788 0.52792 0.0
N1175 N 0.03093 0.77896 0.46428 0.0
H1176 H 0.30658 0.97644 0.07416 0.0
H1177 H 0.20867 0.98306 0.92923 0.0
H1178 H 0.20143 0.96919 0.06911 0.0
H1179 H 0.31246 0.96455 0.9331 0.0
H1180 H 0.20601 0.98061 0.98047 0.0
H1181 H 0.30959 0.97454 0.02275 0.0
C1182 C 0.28408 0.97444 0.06223 0.0
C1183 C 0.25364 0.97317 0.07595 0.0
C1184 C 0.22937 0.97695 0.97018 0.0
C1185 C 0.25702 0.97107 0.01703 0.0
C1186 C 0.23099 0.97851 0.94088 0.0
C1187 C 0.26093 0.97419 0.92685 0.0
C1188 C 0.25794 0.9714 0.98575 0.0
C1189 C 0.28892 0.96807 0.94308 0.0
C1190 C 0.28588 0.97322 0.03287 0.0
C1191 C 0.22538 0.97031 0.0594 0.0
N1192 N 0.28679 0.96708 0.97176 0.0
N1193 N 0.22774 0.96959 0.03078 0.0
H1194 H 0.54244 0.18851 0.56149 0.0
H1195 H 0.53954 0.30625 0.42632 0.0
H1196 H 0.53161 0.29335 0.56654 0.0
H1197 H 0.52581 0.20171 0.42137 0.0
H1198 H 0.54223 0.30184 0.47784 0.0
H1199 H 0.54194 0.19263 0.50982 0.0
C1200 C 0.54 0.21234 0.55175 0.0
C1201 C 0.5369 0.24058 0.56832 0.0
C1202 C 0.53859 0.27989 0.46543 0.0
C1203 C 0.53651 0.24552 0.50944 0.0
C1204 C 0.53709 0.28241 0.43605 0.0
C1205 C 0.53227 0.25435 0.41955 0.0
C1206 C 0.53555 0.24907 0.47833 0.0
C1207 C 0.52935 0.22403 0.43327 0.0
C1208 C 0.53965 0.21469 0.52231 0.0
C1209 C 0.53386 0.27088 0.55461 0.0
N1210 N 0.5311 0.22219 0.46184 0.0
N1211 N 0.53381 0.27254 0.52602 0.0
H1212 H 0.20212 0.5344 0.07186 0.0
H1213 H 0.2984 0.53228 0.92585 0.0
H1214 H 0.30699 0.5445 0.06598 0.0
H1215 H 0.19403 0.54668 0.93119 0.0
H1216 H 0.30176 0.53418 0.97711 0.0
H1217 H 0.19852 0.5364 0.02053 0.0
C1218 C 0.22445 0.53704 0.05977 0.0
C1219 C 0.25497 0.53911 0.07323 0.0
C1220 C 0.27813 0.53705 0.96712 0.0
C1221 C 0.25092 0.54135 0.01436 0.0
C1222 C 0.27611 0.53583 0.93782 0.0
C1223 C 0.2458 0.53916 0.9242 0.0
C1224 C 0.2496 0.5413 0.98309 0.0
C1225 C 0.21786 0.54395 0.94084 0.0
C1226 C 0.22231 0.53831 0.03044 0.0
C1227 C 0.28299 0.54276 0.05646 0.0
N1228 N 0.2204 0.54467 0.96948 0.0
N1229 N 0.2803 0.54355 0.02785 0.0
H1230 H 0.9673 0.2004 0.42703 0.0
H1231 H 0.95992 0.31434 0.56457 0.0
H1232 H 0.97045 0.30584 0.42347 0.0
H1233 H 0.98544 0.21196 0.56645 0.0
H1234 H 0.95631 0.31119 0.51287 0.0
H1235 H 0.96633 0.20361 0.47868 0.0
C1236 C 0.96767 0.22418 0.4371 0.0
C1237 C 0.96923 0.25286 0.42098 0.0
C1238 C 0.96269 0.28947 0.5247 0.0
C1239 C 0.96793 0.25675 0.47986 0.0
C1240 C 0.96471 0.29126 0.55413 0.0
C1241 C 0.97325 0.26347 0.56977 0.0
C1242 C 0.96885 0.25958 0.51099 0.0
C1243 C 0.97908 0.23411 0.55523 0.0
C1244 C 0.9672 0.22602 0.46654 0.0
C1245 C 0.96957 0.28308 0.4351 0.0
N1246 N 0.97673 0.23293 0.52671 0.0
N1247 N 0.96891 0.28424 0.46373 0.0
loop_
_geom_bond_atom_site_label_1
_geom_bond_atom_site_label_2
_geom_bond_distance
_geom_bond_site_symmetry_2
_ccdc_geom_bond_type
C0 C1 1.351 . S
C0 N3 1.368 1_565 S
C0 H5 0.931 . S
C1 C0 1.351 . S
C1 N2 1.373 . S
C1 H29 0.930 . S
N2 C1 1.373 . S
N2 C4 1.340 . S
N3 C0 1.368 1_545 S
N3 C4 1.321 1_545 S
N3 Co6 2.135 . S
C4 N2 1.340 . S
C4 N3 1.321 1_565 S
C4 H28 0.930 1_565 S
H5 C0 0.931 . S
Co6 N3 2.135 . S
Co6 N9 2.121 . S
Co6 O14 2.055 . S
Co6 O17 2.039 . S
Co6 N20 2.140 . S
C7 O8 1.227 . S
C7 O17 1.265 . S
O8 C7 1.227 . S
N9 Co6 2.121 . S
N9 C11 1.375 . S
N9 C12 1.313 . S
C10 C11 1.338 . S
C10 N13 1.377 . S
C10 H30 0.930 . S
C11 N9 1.375 . S
C11 C10 1.338 . S
C11 H15 0.931 . S
C12 N9 1.313 . S
C12 N13 1.344 . S
C12 H16 0.930 . S
N13 C10 1.377 . S
N13 C12 1.344 . S
O14 Co6 2.055 . S
O14 C18 1.253 . S
H15 C11 0.931 . S
H16 C12 0.930 . S
O17 Co6 2.039 . S
O17 C7 1.265 . S
C18 O14 1.253 . S
C18 O19 1.227 . S
O19 C18 1.227 . S
N20 Co6 2.140 . S
N20 C23 1.346 . S
N20 C24 1.345 . S
C21 C22 1.387 . S
C21 C25 1.391 . S
C22 C21 1.387 . S
C22 C23 1.369 . S
C22 H31 0.929 . S
C23 N20 1.346 . S
C23 C22 1.369 . S
C23 H26 0.928 . S
C24 N20 1.345 . S
C24 C25 1.371 . S
C24 H27 0.931 . S
C25 C21 1.391 . S
C25 C24 1.371 . S
C25 H32 0.930 . S
H26 C23 0.928 . S
H27 C24 0.931 . S
H28 C4 0.930 1_545 S
H29 C1 0.930 . S
H30 C10 0.930 . S
H31 C22 0.929 . S
H32 C25 0.930 . S
C33 C34 1.351 . S
C33 N36 1.368 . S
C33 H38 0.931 . S
C34 C33 1.351 . S
C34 N35 1.373 . S
C34 H62 0.930 . S
N35 C34 1.373 . S
N35 C37 1.340 . S
N36 C33 1.368 . S
N36 C37 1.321 . S
N36 Co39 2.135 . S
C37 N35 1.340 . S
C37 N36 1.321 . S
C37 H61 0.930 . S
H38 C33 0.931 . S
Co39 N36 2.135 . S
Co39 N42 2.121 . S
Co39 O47 2.055 . S
Co39 O50 2.039 . S
Co39 N53 2.140 . S
C40 O41 1.227 . S
C40 O50 1.265 . S
O41 C40 1.227 . S
N42 Co39 2.121 . S
N42 C44 1.375 . S
N42 C45 1.313 . S
C43 C44 1.338 . S
C43 N46 1.377 . S
C43 H63 0.930 . S
C44 N42 1.375 . S
C44 C43 1.338 . S
C44 H48 0.931 . S
C45 N42 1.313 . S
C45 N46 1.344 . S
C45 H49 0.930 . S
N46 C43 1.377 . S
N46 C45 1.344 . S
O47 Co39 2.055 . S
O47 C51 1.253 . S
H48 C44 0.931 . S
H49 C45 0.930 . S
O50 Co39 2.039 . S
O50 C40 1.265 . S
C51 O47 1.253 . S
C51 O52 1.227 . S
O52 C51 1.227 . S
N53 Co39 2.140 . S
N53 C56 1.346 . S
N53 C57 1.345 . S
C54 C55 1.387 . S
C54 C58 1.391 . S
C55 C54 1.387 . S
C55 C56 1.369 . S
C55 H64 0.929 . S
C56 N53 1.346 . S
C56 C55 1.369 . S
C56 H59 0.928 . S
C57 N53 1.345 . S
C57 C58 1.371 . S
C57 H60 0.931 . S
C58 C54 1.391 . S
C58 C57 1.371 . S
C58 H65 0.930 . S
H59 C56 0.928 . S
H60 C57 0.931 . S
H61 C37 0.930 . S
H62 C34 0.930 . S
H63 C43 0.930 . S
H64 C55 0.929 . S
H65 C58 0.930 . S
C66 C67 1.351 . S
C66 N69 1.368 . S
C66 H71 0.931 . S
C67 C66 1.351 . S
C67 N68 1.373 . S
C67 H95 0.930 . S
N68 C67 1.373 . S
N68 C70 1.340 . S
N69 C66 1.368 . S
N69 C70 1.321 . S
N69 Co72 2.135 . S
C70 N68 1.340 . S
C70 N69 1.321 . S
C70 H94 0.930 . S
H71 C66 0.931 . S
Co72 N69 2.135 . S
Co72 N75 2.121 . S
Co72 O80 2.055 . S
Co72 O83 2.039 . S
Co72 N86 2.140 . S
C73 O74 1.227 . S
C73 O83 1.265 . S
O74 C73 1.227 . S
N75 Co72 2.121 . S
N75 C77 1.375 . S
N75 C78 1.313 . S
C76 C77 1.338 . S
C76 N79 1.377 . S
C76 H96 0.930 . S
C77 N75 1.375 . S
C77 C76 1.338 . S
C77 H81 0.931 . S
C78 N75 1.313 . S
C78 N79 1.344 . S
C78 H82 0.930 . S
N79 C76 1.377 . S
N79 C78 1.344 . S
O80 Co72 2.055 . S
O80 C84 1.253 . S
H81 C77 0.931 . S
H82 C78 0.930 . S
O83 Co72 2.039 . S
O83 C73 1.265 . S
C84 O80 1.253 . S
C84 O85 1.227 . S
O85 C84 1.227 . S
N86 Co72 2.140 . S
N86 C89 1.346 . S
N86 C90 1.345 . S
C87 C88 1.387 . S
C87 C91 1.391 . S
C88 C87 1.387 . S
C88 C89 1.369 . S
C88 H97 0.929 . S
C89 N86 1.346 . S
C89 C88 1.369 . S
C89 H92 0.928 . S
C90 N86 1.345 . S
C90 C91 1.371 . S
C90 H93 0.931 . S
C91 C87 1.391 . S
C91 C90 1.371 . S
C91 H98 0.930 . S
H92 C89 0.928 . S
H93 C90 0.931 . S
H94 C70 0.930 . S
H95 C67 0.930 . S
H96 C76 0.930 . S
H97 C88 0.929 . S
H98 C91 0.930 . S
C99 C100 1.351 . S
C99 N102 1.368 1_655 S
C99 H104 0.931 . S
C100 C99 1.351 . S
C100 N101 1.373 . S
C100 H128 0.930 . S
N101 C100 1.373 . S
N101 C103 1.340 . S
N102 C99 1.368 1_455 S
N102 C103 1.321 1_455 S
N102 Co105 2.135 . S
C103 N101 1.340 . S
C103 N102 1.321 1_655 S
C103 H127 0.930 1_655 S
H104 C99 0.931 . S
Co105 N102 2.135 . S
Co105 N108 2.121 . S
Co105 O113 2.055 . S
Co105 O116 2.039 . S
Co105 N119 2.140 . S
C106 O107 1.227 . S
C106 O116 1.265 . S
O107 C106 1.227 . S
N108 Co105 2.121 . S
N108 C110 1.375 . S
N108 C111 1.313 . S
C109 C110 1.338 . S
C109 N112 1.377 . S
C109 H129 0.930 . S
C110 N108 1.375 . S
C110 C109 1.338 . S
C110 H114 0.931 . S
C111 N108 1.313 . S
C111 N112 1.344 . S
C111 H115 0.930 . S
N112 C109 1.377 . S
N112 C111 1.344 . S
O113 Co105 2.055 . S
O113 C117 1.253 . S
H114 C110 0.931 . S
H115 C111 0.930 . S
O116 Co105 2.039 . S
O116 C106 1.265 . S
C117 O113 1.253 . S
C117 O118 1.227 . S
O118 C117 1.227 . S
N119 Co105 2.140 . S
N119 C122 1.346 . S
N119 C123 1.345 . S
C120 C121 1.387 . S
C120 C124 1.391 . S
C121 C120 1.387 . S
C121 C122 1.369 . S
C121 H130 0.929 . S
C122 N119 1.346 . S
C122 C121 1.369 . S
C122 H125 0.928 . S
C123 N119 1.345 . S
C123 C124 1.371 . S
C123 H126 0.931 . S
C124 C120 1.391 . S
C124 C123 1.371 . S
C124 H131 0.930 . S
H125 C122 0.928 . S
H126 C123 0.931 . S
H127 C103 0.930 1_455 S
H128 C100 0.930 . S
H129 C109 0.930 . S
H130 C121 0.929 . S
H131 C124 0.930 . S
C132 C133 1.351 . S
C132 N135 1.368 . S
C132 H137 0.931 . S
C133 C132 1.351 . S
C133 N134 1.373 . S
C133 H161 0.930 . S
N134 C133 1.373 . S
N134 C136 1.340 . S
N135 C132 1.368 . S
N135 C136 1.321 . S
N135 Co138 2.135 . S
C136 N134 1.340 . S
C136 N135 1.321 . S
C136 H160 0.930 . S
H137 C132 0.931 . S
Co138 N135 2.135 . S
Co138 N141 2.121 . S
Co138 O146 2.055 . S
Co138 O149 2.039 . S
Co138 N152 2.140 . S
C139 O140 1.227 . S
C139 O149 1.265 . S
O140 C139 1.227 . S
N141 Co138 2.121 . S
N141 C143 1.375 . S
N141 C144 1.313 . S
C142 C143 1.338 . S
C142 N145 1.377 . S
C142 H162 0.930 . S
C143 N141 1.375 . S
C143 C142 1.338 . S
C143 H147 0.931 . S
C144 N141 1.313 . S
C144 N145 1.344 . S
C144 H148 0.930 . S
N145 C142 1.377 . S
N145 C144 1.344 . S
O146 Co138 2.055 . S
O146 C150 1.253 . S
H147 C143 0.931 . S
H148 C144 0.930 . S
O149 Co138 2.039 . S
O149 C139 1.265 . S
C150 O146 1.253 . S
C150 O151 1.227 . S
O151 C150 1.227 . S
N152 Co138 2.140 . S
N152 C155 1.346 . S
N152 C156 1.345 . S
C153 C154 1.387 . S
C153 C157 1.391 . S
C154 C153 1.387 . S
C154 C155 1.369 . S
C154 H163 0.929 . S
C155 N152 1.346 . S
C155 C154 1.369 . S
C155 H158 0.928 . S
C156 N152 1.345 . S
C156 C157 1.371 . S
C156 H159 0.931 . S
C157 C153 1.391 . S
C157 C156 1.371 . S
C157 H164 0.930 . S
H158 C155 0.928 . S
H159 C156 0.931 . S
H160 C136 0.930 . S
H161 C133 0.930 . S
H162 C142 0.930 . S
H163 C154 0.929 . S
H164 C157 0.930 . S
C165 C166 1.351 . S
C165 N168 1.368 1_655 S
C165 H170 0.931 . S
C166 C165 1.351 . S
C166 N167 1.373 . S
C166 H194 0.930 . S
N167 C166 1.373 . S
N167 C169 1.340 . S
N168 C165 1.368 1_455 S
N168 C169 1.321 1_455 S
N168 Co171 2.135 . S
C169 N167 1.340 . S
C169 N168 1.321 1_655 S
C169 H193 0.930 1_655 S
H170 C165 0.931 . S
Co171 N168 2.135 . S
Co171 N174 2.121 . S
Co171 O179 2.055 . S
Co171 O182 2.039 . S
Co171 N185 2.140 . S
C172 O173 1.227 . S
C172 O182 1.265 . S
O173 C172 1.227 . S
N174 Co171 2.121 . S
N174 C176 1.375 . S
N174 C177 1.313 . S
C175 C176 1.338 . S
C175 N178 1.377 . S
C175 H195 0.930 . S
C176 N174 1.375 . S
C176 C175 1.338 . S
C176 H180 0.931 . S
C177 N174 1.313 . S
C177 N178 1.344 . S
C177 H181 0.930 . S
N178 C175 1.377 . S
N178 C177 1.344 . S
O179 Co171 2.055 . S
O179 C183 1.253 . S
H180 C176 0.931 . S
H181 C177 0.930 . S
O182 Co171 2.039 . S
O182 C172 1.265 . S
C183 O179 1.253 . S
C183 O184 1.227 . S
O184 C183 1.227 . S
N185 Co171 2.140 . S
N185 C188 1.346 . S
N185 C189 1.345 . S
C186 C187 1.387 . S
C186 C190 1.391 . S
C187 C186 1.387 . S
C187 C188 1.369 . S
C187 H196 0.929 . S
C188 N185 1.346 . S
C188 C187 1.369 . S
C188 H191 0.928 . S
C189 N185 1.345 . S
C189 C190 1.371 . S
C189 H192 0.931 . S
C190 C186 1.391 . S
C190 C189 1.371 . S
C190 H197 0.930 . S
H191 C188 0.928 . S
H192 C189 0.931 . S
H193 C169 0.930 1_455 S
H194 C166 0.930 . S
H195 C175 0.930 . S
H196 C187 0.929 . S
H197 C190 0.930 . S
C198 C199 1.351 . S
C198 N201 1.368 1_565 S
C198 H203 0.931 . S
C199 C198 1.351 . S
C199 N200 1.373 . S
C199 H227 0.930 . S
N200 C199 1.373 . S
N200 C202 1.340 . S
N201 C198 1.368 1_545 S
N201 C202 1.321 1_545 S
N201 Co204 2.135 . S
C202 N200 1.340 . S
C202 N201 1.321 1_565 S
C202 H226 0.930 1_565 S
H203 C198 0.931 . S
Co204 N201 2.135 . S
Co204 N207 2.121 . S
Co204 O212 2.055 . S
Co204 O215 2.039 . S
Co204 N218 2.140 . S
C205 O206 1.227 . S
C205 O215 1.265 . S
O206 C205 1.227 . S
N207 Co204 2.121 . S
N207 C209 1.375 . S
N207 C210 1.313 . S
C208 C209 1.338 . S
C208 N211 1.377 . S
C208 H228 0.930 . S
C209 N207 1.375 . S
C209 C208 1.338 . S
C209 H213 0.931 . S
C210 N207 1.313 . S
C210 N211 1.344 . S
C210 H214 0.930 . S
N211 C208 1.377 . S
N211 C210 1.344 . S
O212 Co204 2.055 . S
O212 C216 1.253 . S
H213 C209 0.931 . S
H214 C210 0.930 . S
O215 Co204 2.039 . S
O215 C205 1.265 . S
C216 O212 1.253 . S
C216 O217 1.227 . S
O217 C216 1.227 . S
N218 Co204 2.140 . S
N218 C221 1.346 . S
N218 C222 1.345 . S
C219 C220 1.387 . S
C219 C223 1.391 . S
C220 C219 1.387 . S
C220 C221 1.369 . S
C220 H229 0.929 . S
C221 N218 1.346 . S
C221 C220 1.369 . S
C221 H224 0.928 . S
C222 N218 1.345 . S
C222 C223 1.371 . S
C222 H225 0.931 . S
C223 C219 1.391 . S
C223 C222 1.371 . S
C223 H230 0.930 . S
H224 C221 0.928 . S
H225 C222 0.931 . S
H226 C202 0.930 1_545 S
H227 C199 0.930 . S
H228 C208 0.930 . S
H229 C220 0.929 . S
H230 C223 0.930 . S
C231 C232 1.351 . S
C231 N234 1.368 . S
C231 H236 0.931 . S
C232 C231 1.351 . S
C232 N233 1.373 . S
C232 H260 0.930 . S
N233 C232 1.373 . S
N233 C235 1.340 . S
N234 C231 1.368 . S
N234 C235 1.321 . S
N234 Co237 2.135 . S
C235 N233 1.340 . S
C235 N234 1.321 . S
C235 H259 0.930 . S
H236 C231 0.931 . S
Co237 N234 2.135 . S
Co237 N240 2.121 . S
Co237 O245 2.055 . S
Co237 O248 2.039 . S
Co237 N251 2.140 . S
C238 O239 1.227 . S
C238 O248 1.265 . S
O239 C238 1.227 . S
N240 Co237 2.121 . S
N240 C242 1.375 . S
N240 C243 1.313 . S
C241 C242 1.338 . S
C241 N244 1.377 . S
C241 H261 0.930 . S
C242 N240 1.375 . S
C242 C241 1.338 . S
C242 H246 0.931 . S
C243 N240 1.313 . S
C243 N244 1.344 . S
C243 H247 0.930 . S
N244 C241 1.377 . S
N244 C243 1.344 . S
O245 Co237 2.055 . S
O245 C249 1.253 . S
H246 C242 0.931 . S
H247 C243 0.930 . S
O248 Co237 2.039 . S
O248 C238 1.265 . S
C249 O245 1.253 . S
C249 O250 1.227 . S
O250 C249 1.227 . S
N251 Co237 2.140 . S
N251 C254 1.346 . S
N251 C255 1.345 . S
C252 C253 1.387 . S
C252 C256 1.391 . S
C253 C252 1.387 . S
C253 C254 1.369 . S
C253 H262 0.929 . S
C254 N251 1.346 . S
C254 C253 1.369 . S
C254 H257 0.928 . S
C255 N251 1.345 . S
C255 C256 1.371 . S
C255 H258 0.931 . S
C256 C252 1.391 . S
C256 C255 1.371 . S
C256 H263 0.930 . S
H257 C254 0.928 . S
H258 C255 0.931 . S
H259 C235 0.930 . S
H260 C232 0.930 . S
H261 C241 0.930 . S
H262 C253 0.929 . S
H263 C256 0.930 . S
C264 C265 1.351 . S
C264 N267 1.368 1_545 S
C264 H269 0.931 . S
C265 C264 1.351 . S
C265 N266 1.373 . S
C265 H293 0.930 . S
N266 C265 1.373 . S
N266 C268 1.340 . S
N267 C264 1.368 1_565 S
N267 C268 1.321 1_565 S
N267 Co270 2.135 . S
C268 N266 1.340 . S
C268 N267 1.321 1_545 S
C268 H292 0.930 1_545 S
H269 C264 0.931 . S
Co270 N267 2.135 . S
Co270 N273 2.121 . S
Co270 O278 2.055 . S
Co270 O281 2.039 . S
Co270 N284 2.140 . S
C271 O272 1.227 . S
C271 O281 1.265 . S
O272 C271 1.227 . S
N273 Co270 2.121 . S
N273 C275 1.375 . S
N273 C276 1.313 . S
C274 C275 1.338 . S
C274 N277 1.377 . S
C274 H294 0.930 . S
C275 N273 1.375 . S
C275 C274 1.338 . S
C275 H279 0.931 . S
C276 N273 1.313 . S
C276 N277 1.344 . S
C276 H280 0.930 . S
N277 C274 1.377 . S
N277 C276 1.344 . S
O278 Co270 2.055 . S
O278 C282 1.253 . S
H279 C275 0.931 . S
H280 C276 0.930 . S
O281 Co270 2.039 . S
O281 C271 1.265 . S
C282 O278 1.253 . S
C282 O283 1.227 . S
O283 C282 1.227 . S
N284 Co270 2.140 . S
N284 C287 1.346 . S
N284 C288 1.345 . S
C285 C286 1.387 . S
C285 C289 1.391 . S
C286 C285 1.387 . S
C286 C287 1.369 . S
C286 H295 0.929 . S
C287 N284 1.346 . S
C287 C286 1.369 . S
C287 H290 0.928 . S
C288 N284 1.345 . S
C288 C289 1.371 . S
C288 H291 0.931 . S
C289 C285 1.391 . S
C289 C288 1.371 . S
C289 H296 0.930 . S
H290 C287 0.928 . S
H291 C288 0.931 . S
H292 C268 0.930 1_565 S
H293 C265 0.930 . S
H294 C274 0.930 . S
H295 C286 0.929 . S
H296 C289 0.930 . S
C297 C298 1.351 . S
C297 N300 1.368 . S
C297 H302 0.931 . S
C298 C297 1.351 . S
C298 N299 1.373 . S
C298 H326 0.930 . S
N299 C298 1.373 . S
N299 C301 1.340 . S
N300 C297 1.368 . S
N300 C301 1.321 . S
N300 Co303 2.135 . S
C301 N299 1.340 . S
C301 N300 1.321 . S
C301 H325 0.930 . S
H302 C297 0.931 . S
Co303 N300 2.135 . S
Co303 N306 2.121 . S
Co303 O311 2.055 . S
Co303 O314 2.039 . S
Co303 N317 2.140 . S
C304 O305 1.227 . S
C304 O314 1.265 . S
O305 C304 1.227 . S
N306 Co303 2.121 . S
N306 C308 1.375 . S
N306 C309 1.313 . S
C307 C308 1.338 . S
C307 N310 1.377 . S
C307 H327 0.930 . S
C308 N306 1.375 . S
C308 C307 1.338 . S
C308 H312 0.931 . S
C309 N306 1.313 . S
C309 N310 1.344 . S
C309 H313 0.930 . S
N310 C307 1.377 . S
N310 C309 1.344 . S
O311 Co303 2.055 . S
O311 C315 1.253 . S
H312 C308 0.931 . S
H313 C309 0.930 . S
O314 Co303 2.039 . S
O314 C304 1.265 . S
C315 O311 1.253 . S
C315 O316 1.227 . S
O316 C315 1.227 . S
N317 Co303 2.140 . S
N317 C320 1.346 . S
N317 C321 1.345 . S
C318 C319 1.387 . S
C318 C322 1.391 . S
C319 C318 1.387 . S
C319 C320 1.369 . S
C319 H328 0.929 . S
C320 N317 1.346 . S
C320 C319 1.369 . S
C320 H323 0.928 . S
C321 N317 1.345 . S
C321 C322 1.371 . S
C321 H324 0.931 . S
C322 C318 1.391 . S
C322 C321 1.371 . S
C322 H329 0.930 . S
H323 C320 0.928 . S
H324 C321 0.931 . S
H325 C301 0.930 . S
H326 C298 0.930 . S
H327 C307 0.930 . S
H328 C319 0.929 . S
H329 C322 0.930 . S
C330 C331 1.351 . S
C330 N333 1.368 . S
C330 H335 0.931 . S
C331 C330 1.351 . S
C331 N332 1.373 . S
C331 H359 0.930 . S
N332 C331 1.373 . S
N332 C334 1.340 . S
N333 C330 1.368 . S
N333 C334 1.321 . S
N333 Co336 2.135 . S
C334 N332 1.340 . S
C334 N333 1.321 . S
C334 H358 0.930 . S
H335 C330 0.931 . S
Co336 N333 2.135 . S
Co336 N339 2.121 . S
Co336 O344 2.055 . S
Co336 O347 2.039 . S
Co336 N350 2.140 . S
C337 O338 1.227 . S
C337 O347 1.265 . S
O338 C337 1.227 . S
N339 Co336 2.121 . S
N339 C341 1.375 . S
N339 C342 1.313 . S
C340 C341 1.338 . S
C340 N343 1.377 . S
C340 H360 0.930 . S
C341 N339 1.375 . S
C341 C340 1.338 . S
C341 H345 0.931 . S
C342 N339 1.313 . S
C342 N343 1.344 . S
C342 H346 0.930 . S
N343 C340 1.377 . S
N343 C342 1.344 . S
O344 Co336 2.055 . S
O344 C348 1.253 . S
H345 C341 0.931 . S
H346 C342 0.930 . S
O347 Co336 2.039 . S
O347 C337 1.265 . S
C348 O344 1.253 . S
C348 O349 1.227 . S
O349 C348 1.227 . S
N350 Co336 2.140 . S
N350 C353 1.346 . S
N350 C354 1.345 . S
C351 C352 1.387 . S
C351 C355 1.391 . S
C352 C351 1.387 . S
C352 C353 1.369 . S
C352 H361 0.929 . S
C353 N350 1.346 . S
C353 C352 1.369 . S
C353 H356 0.928 . S
C354 N350 1.345 . S
C354 C355 1.371 . S
C354 H357 0.931 . S
C355 C351 1.391 . S
C355 C354 1.371 . S
C355 H362 0.930 . S
H356 C353 0.928 . S
H357 C354 0.931 . S
H358 C334 0.930 . S
H359 C331 0.930 . S
H360 C340 0.930 . S
H361 C352 0.929 . S
H362 C355 0.930 . S
C363 C364 1.351 . S
C363 N366 1.368 1_455 S
C363 H368 0.931 . S
C364 C363 1.351 . S
C364 N365 1.373 . S
C364 H392 0.930 . S
N365 C364 1.373 . S
N365 C367 1.340 . S
N366 C363 1.368 1_655 S
N366 C367 1.321 1_655 S
N366 Co369 2.135 . S
C367 N365 1.340 . S
C367 N366 1.321 1_455 S
C367 H391 0.930 1_455 S
H368 C363 0.931 . S
Co369 N366 2.135 . S
Co369 N372 2.121 . S
Co369 O377 2.055 . S
Co369 O380 2.039 . S
Co369 N383 2.140 . S
C370 O371 1.227 . S
C370 O380 1.265 . S
O371 C370 1.227 . S
N372 Co369 2.121 . S
N372 C374 1.375 . S
N372 C375 1.313 . S
C373 C374 1.338 . S
C373 N376 1.377 . S
C373 H393 0.930 . S
C374 N372 1.375 . S
C374 C373 1.338 . S
C374 H378 0.931 . S
C375 N372 1.313 . S
C375 N376 1.344 . S
C375 H379 0.930 . S
N376 C373 1.377 . S
N376 C375 1.344 . S
O377 Co369 2.055 . S
O377 C381 1.253 . S
H378 C374 0.931 . S
H379 C375 0.930 . S
O380 Co369 2.039 . S
O380 C370 1.265 . S
C381 O377 1.253 . S
C381 O382 1.227 . S
O382 C381 1.227 . S
N383 Co369 2.140 . S
N383 C386 1.346 . S
N383 C387 1.345 . S
C384 C385 1.387 . S
C384 C388 1.391 . S
C385 C384 1.387 . S
C385 C386 1.369 . S
C385 H394 0.929 . S
C386 N383 1.346 . S
C386 C385 1.369 . S
C386 H389 0.928 . S
C387 N383 1.345 . S
C387 C388 1.371 . S
C387 H390 0.931 . S
C388 C384 1.391 . S
C388 C387 1.371 . S
C388 H395 0.930 . S
H389 C386 0.928 . S
H390 C387 0.931 . S
H391 C367 0.930 1_655 S
H392 C364 0.930 . S
H393 C373 0.930 . S
H394 C385 0.929 . S
H395 C388 0.930 . S
C396 C397 1.351 . S
C396 N399 1.368 . S
C396 H401 0.931 . S
C397 C396 1.351 . S
C397 N398 1.373 . S
C397 H425 0.930 . S
N398 C397 1.373 . S
N398 C400 1.340 . S
N399 C396 1.368 . S
N399 C400 1.321 . S
N399 Co402 2.135 . S
C400 N398 1.340 . S
C400 N399 1.321 . S
C400 H424 0.930 . S
H401 C396 0.931 . S
Co402 N399 2.135 . S
Co402 N405 2.121 . S
Co402 O410 2.055 . S
Co402 O413 2.039 . S
Co402 N416 2.140 . S
C403 O404 1.227 . S
C403 O413 1.265 . S
O404 C403 1.227 . S
N405 Co402 2.121 . S
N405 C407 1.375 . S
N405 C408 1.313 . S
C406 C407 1.338 . S
C406 N409 1.377 . S
C406 H426 0.930 . S
C407 N405 1.375 . S
C407 C406 1.338 . S
C407 H411 0.931 . S
C408 N405 1.313 . S
C408 N409 1.344 . S
C408 H412 0.930 . S
N409 C406 1.377 . S
N409 C408 1.344 . S
O410 Co402 2.055 . S
O410 C414 1.253 . S
H411 C407 0.931 . S
H412 C408 0.930 . S
O413 Co402 2.039 . S
O413 C403 1.265 . S
C414 O410 1.253 . S
C414 O415 1.227 . S
O415 C414 1.227 . S
N416 Co402 2.140 . S
N416 C419 1.346 . S
N416 C420 1.345 . S
C417 C418 1.387 . S
C417 C421 1.391 . S
C418 C417 1.387 . S
C418 C419 1.369 . S
C418 H427 0.929 . S
C419 N416 1.346 . S
C419 C418 1.369 . S
C419 H422 0.928 . S
C420 N416 1.345 . S
C420 C421 1.371 . S
C420 H423 0.931 . S
C421 C417 1.391 . S
C421 C420 1.371 . S
C421 H428 0.930 . S
H422 C419 0.928 . S
H423 C420 0.931 . S
H424 C400 0.930 . S
H425 C397 0.930 . S
H426 C406 0.930 . S
H427 C418 0.929 . S
H428 C421 0.930 . S
C429 C430 1.351 . S
C429 N432 1.368 1_455 S
C429 H434 0.931 . S
C430 C429 1.351 . S
C430 N431 1.373 . S
C430 H458 0.930 . S
N431 C430 1.373 . S
N431 C433 1.340 . S
N432 C429 1.368 1_655 S
N432 C433 1.321 1_655 S
N432 Co435 2.135 . S
C433 N431 1.340 . S
C433 N432 1.321 1_455 S
C433 H457 0.930 1_455 S
H434 C429 0.931 . S
Co435 N432 2.135 . S
Co435 N438 2.121 . S
Co435 O443 2.055 . S
Co435 O446 2.039 . S
Co435 N449 2.140 . S
C436 O437 1.227 . S
C436 O446 1.265 . S
O437 C436 1.227 . S
N438 Co435 2.121 . S
N438 C440 1.375 . S
N438 C441 1.313 . S
C439 C440 1.338 . S
C439 N442 1.377 . S
C439 H459 0.930 . S
C440 N438 1.375 . S
C440 C439 1.338 . S
C440 H444 0.931 . S
C441 N438 1.313 . S
C441 N442 1.344 . S
C441 H445 0.930 . S
N442 C439 1.377 . S
N442 C441 1.344 . S
O443 Co435 2.055 . S
O443 C447 1.253 . S
H444 C440 0.931 . S
H445 C441 0.930 . S
O446 Co435 2.039 . S
O446 C436 1.265 . S
C447 O443 1.253 . S
C447 O448 1.227 . S
O448 C447 1.227 . S
N449 Co435 2.140 . S
N449 C452 1.346 . S
N449 C453 1.345 . S
C450 C451 1.387 . S
C450 C454 1.391 . S
C451 C450 1.387 . S
C451 C452 1.369 . S
C451 H460 0.929 . S
C452 N449 1.346 . S
C452 C451 1.369 . S
C452 H455 0.928 . S
C453 N449 1.345 . S
C453 C454 1.371 . S
C453 H456 0.931 . S
C454 C450 1.391 . S
C454 C453 1.371 . S
C454 H461 0.930 . S
H455 C452 0.928 . S
H456 C453 0.931 . S
H457 C433 0.930 1_655 S
H458 C430 0.930 . S
H459 C439 0.930 . S
H460 C451 0.929 . S
H461 C454 0.930 . S
C462 C463 1.351 . S
C462 N465 1.368 1_545 S
C462 H467 0.931 . S
C463 C462 1.351 . S
C463 N464 1.373 . S
C463 H491 0.930 . S
N464 C463 1.373 . S
N464 C466 1.340 . S
N465 C462 1.368 1_565 S
N465 C466 1.321 1_565 S
N465 Co468 2.135 . S
C466 N464 1.340 . S
C466 N465 1.321 1_545 S
C466 H490 0.930 1_545 S
H467 C462 0.931 . S
Co468 N465 2.135 . S
Co468 N471 2.121 . S
Co468 O476 2.055 . S
Co468 O479 2.039 . S
Co468 N482 2.140 . S
C469 O470 1.227 . S
C469 O479 1.265 . S
O470 C469 1.227 . S
N471 Co468 2.121 . S
N471 C473 1.375 . S
N471 C474 1.313 . S
C472 C473 1.338 . S
C472 N475 1.377 . S
C472 H492 0.930 . S
C473 N471 1.375 . S
C473 C472 1.338 . S
C473 H477 0.931 . S
C474 N471 1.313 . S
C474 N475 1.344 . S
C474 H478 0.930 . S
N475 C472 1.377 . S
N475 C474 1.344 . S
O476 Co468 2.055 . S
O476 C480 1.253 . S
H477 C473 0.931 . S
H478 C474 0.930 . S
O479 Co468 2.039 . S
O479 C469 1.265 . S
C480 O476 1.253 . S
C480 O481 1.227 . S
O481 C480 1.227 . S
N482 Co468 2.140 . S
N482 C485 1.346 . S
N482 C486 1.345 . S
C483 C484 1.387 . S
C483 C487 1.391 . S
C484 C483 1.387 . S
C484 C485 1.369 . S
C484 H493 0.929 . S
C485 N482 1.346 . S
C485 C484 1.369 . S
C485 H488 0.928 . S
C486 N482 1.345 . S
C486 C487 1.371 . S
C486 H489 0.931 . S
C487 C483 1.391 . S
C487 C486 1.371 . S
C487 H494 0.930 . S
H488 C485 0.928 . S
H489 C486 0.931 . S
H490 C466 0.930 1_565 S
H491 C463 0.930 . S
H492 C472 0.930 . S
H493 C484 0.929 . S
H494 C487 0.930 . S
C495 C496 1.351 . S
C495 N498 1.368 . S
C495 H500 0.931 . S
C496 C495 1.351 . S
C496 N497 1.373 . S
C496 H524 0.930 . S
N497 C496 1.373 . S
N497 C499 1.340 . S
N498 C495 1.368 . S
N498 C499 1.321 . S
N498 Co501 2.135 . S
C499 N497 1.340 . S
C499 N498 1.321 . S
C499 H523 0.930 . S
H500 C495 0.931 . S
Co501 N498 2.135 . S
Co501 N504 2.121 . S
Co501 O509 2.055 . S
Co501 O512 2.039 . S
Co501 N515 2.140 . S
C502 O503 1.227 . S
C502 O512 1.265 . S
O503 C502 1.227 . S
N504 Co501 2.121 . S
N504 C506 1.375 . S
N504 C507 1.313 . S
C505 C506 1.338 . S
C505 N508 1.377 . S
C505 H525 0.930 . S
C506 N504 1.375 . S
C506 C505 1.338 . S
C506 H510 0.931 . S
C507 N504 1.313 . S
C507 N508 1.344 . S
C507 H511 0.930 . S
N508 C505 1.377 . S
N508 C507 1.344 . S
O509 Co501 2.055 . S
O509 C513 1.253 . S
H510 C506 0.931 . S
H511 C507 0.930 . S
O512 Co501 2.039 . S
O512 C502 1.265 . S
C513 O509 1.253 . S
C513 O514 1.227 . S
O514 C513 1.227 . S
N515 Co501 2.140 . S
N515 C518 1.346 . S
N515 C519 1.345 . S
C516 C517 1.387 . S
C516 C520 1.391 . S
C517 C516 1.387 . S
C517 C518 1.369 . S
C517 H526 0.929 . S
C518 N515 1.346 . S
C518 C517 1.369 . S
C518 H521 0.928 . S
C519 N515 1.345 . S
C519 C520 1.371 . S
C519 H522 0.931 . S
C520 C516 1.391 . S
C520 C519 1.371 . S
C520 H527 0.930 . S
H521 C518 0.928 . S
H522 C519 0.931 . S
H523 C499 0.930 . S
H524 C496 0.930 . S
H525 C505 0.930 . S
H526 C517 0.929 . S
H527 C520 0.930 . S
H528 C534 0.930 . S
H529 C538 0.930 . S
H530 C543 0.929 . S
H531 C541 0.929 . S
H532 C536 0.929 . S
H533 C542 0.929 . S
C534 H528 0.930 . S
C534 C535 1.367 . S
C534 C542 1.378 . S
C535 C534 1.367 . S
C535 C543 1.433 . S
C536 H532 0.929 . S
C536 C538 1.378 . S
C536 C540 1.350 . S
C537 C540 1.463 . S
C537 C542 1.350 . S
C537 N545 1.427 . S
C538 H529 0.930 . S
C538 C536 1.378 . S
C538 C539 1.367 . S
C539 C538 1.367 . S
C539 C541 1.433 . S
C540 C536 1.350 . S
C540 C537 1.463 . S
C540 N544 1.427 . S
C541 H531 0.929 . S
C541 C539 1.433 . S
C541 N544 1.384 . S
C542 H533 0.929 . S
C542 C534 1.378 . S
C542 C537 1.350 . S
C543 H530 0.929 . S
C543 C535 1.433 . S
C543 N545 1.384 . S
N544 C540 1.427 . S
N544 C541 1.384 . S
N545 C537 1.427 . S
N545 C543 1.384 . S
H546 C552 0.930 . S
H547 C556 0.930 . S
H548 C561 0.929 . S
H549 C559 0.929 . S
H550 C554 0.929 . S
H551 C560 0.929 . S
C552 H546 0.930 . S
C552 C553 1.367 . S
C552 C560 1.378 . S
C553 C552 1.367 . S
C553 C561 1.433 . S
C554 H550 0.929 . S
C554 C556 1.378 . S
C554 C558 1.350 . S
C555 C558 1.463 . S
C555 C560 1.350 . S
C555 N563 1.427 . S
C556 H547 0.930 . S
C556 C554 1.378 . S
C556 C557 1.367 . S
C557 C556 1.367 . S
C557 C559 1.433 . S
C558 C554 1.350 . S
C558 C555 1.463 . S
C558 N562 1.427 . S
C559 H549 0.929 . S
C559 C557 1.433 . S
C559 N562 1.384 . S
C560 H551 0.929 . S
C560 C552 1.378 . S
C560 C555 1.350 . S
C561 H548 0.929 . S
C561 C553 1.433 . S
C561 N563 1.384 . S
N562 C558 1.427 . S
N562 C559 1.384 . S
N563 C555 1.427 . S
N563 C561 1.384 . S
H564 C570 0.930 . S
H565 C574 0.930 . S
H566 C579 0.929 . S
H567 C577 0.929 . S
H568 C572 0.929 . S
H569 C578 0.929 . S
C570 H564 0.930 . S
C570 C571 1.367 . S
C570 C578 1.378 . S
C571 C570 1.367 . S
C571 C579 1.433 . S
C572 H568 0.929 . S
C572 C574 1.378 . S
C572 C576 1.350 . S
C573 C576 1.463 . S
C573 C578 1.350 . S
C573 N581 1.427 . S
C574 H565 0.930 . S
C574 C572 1.378 . S
C574 C575 1.367 . S
C575 C574 1.367 . S
C575 C577 1.433 . S
C576 C572 1.350 . S
C576 C573 1.463 . S
C576 N580 1.427 . S
C577 H567 0.929 . S
C577 C575 1.433 . S
C577 N580 1.384 . S
C578 H569 0.929 . S
C578 C570 1.378 . S
C578 C573 1.350 . S
C579 H566 0.929 . S
C579 C571 1.433 . S
C579 N581 1.384 . S
N580 C576 1.427 . S
N580 C577 1.384 . S
N581 C573 1.427 . S
N581 C579 1.384 . S
H582 C588 0.930 . S
H583 C592 0.930 . S
H584 C597 0.929 . S
H585 C595 0.929 . S
H586 C590 0.929 . S
H587 C596 0.929 . S
C588 H582 0.930 . S
C588 C589 1.367 . S
C588 C596 1.378 . S
C589 C588 1.367 . S
C589 C597 1.433 . S
C590 H586 0.929 . S
C590 C592 1.378 . S
C590 C594 1.350 . S
C591 C594 1.463 . S
C591 C596 1.350 . S
C591 N599 1.427 . S
C592 H583 0.930 . S
C592 C590 1.378 . S
C592 C593 1.367 . S
C593 C592 1.367 . S
C593 C595 1.433 . S
C594 C590 1.350 . S
C594 C591 1.463 . S
C594 N598 1.427 . S
C595 H585 0.929 . S
C595 C593 1.433 . S
C595 N598 1.384 . S
C596 H587 0.929 . S
C596 C588 1.378 . S
C596 C591 1.350 . S
C597 H584 0.929 . S
C597 C589 1.433 . S
C597 N599 1.384 . S
N598 C594 1.427 . S
N598 C595 1.384 . S
N599 C591 1.427 . S
N599 C597 1.384 . S
H600 C606 0.930 . S
H601 C610 0.930 . S
H602 C615 0.929 . S
H603 C613 0.929 . S
H604 C608 0.929 . S
H605 C614 0.929 . S
C606 H600 0.930 . S
C606 C607 1.367 . S
C606 C614 1.378 . S
C607 C606 1.367 . S
C607 C615 1.433 . S
C608 H604 0.929 . S
C608 C610 1.378 . S
C608 C612 1.350 . S
C609 C612 1.463 . S
C609 C614 1.350 . S
C609 N617 1.427 . S
C610 H601 0.930 . S
C610 C608 1.378 . S
C610 C611 1.367 . S
C611 C610 1.367 . S
C611 C613 1.433 . S
C612 C608 1.350 . S
C612 C609 1.463 . S
C612 N616 1.427 . S
C613 H603 0.929 . S
C613 C611 1.433 . S
C613 N616 1.384 . S
C614 H605 0.929 . S
C614 C606 1.378 . S
C614 C609 1.350 . S
C615 H602 0.929 . S
C615 C607 1.433 . S
C615 N617 1.384 . S
N616 C612 1.427 . S
N616 C613 1.384 . S
N617 C609 1.427 . S
N617 C615 1.384 . S
H618 C624 0.930 . S
H619 C628 0.930 . S
H620 C633 0.929 . S
H621 C631 0.929 . S
H622 C626 0.929 . S
H623 C632 0.929 . S
C624 H618 0.930 . S
C624 C625 1.367 . S
C624 C632 1.378 . S
C625 C624 1.367 . S
C625 C633 1.433 . S
C626 H622 0.929 . S
C626 C628 1.378 . S
C626 C630 1.350 . S
C627 C630 1.463 . S
C627 C632 1.350 . S
C627 N635 1.427 . S
C628 H619 0.930 . S
C628 C626 1.378 . S
C628 C629 1.367 . S
C629 C628 1.367 . S
C629 C631 1.433 . S
C630 C626 1.350 . S
C630 C627 1.463 . S
C630 N634 1.427 . S
C631 H621 0.929 . S
C631 C629 1.433 . S
C631 N634 1.384 . S
C632 H623 0.929 . S
C632 C624 1.378 . S
C632 C627 1.350 . S
C633 H620 0.929 . S
C633 C625 1.433 . S
C633 N635 1.384 . S
N634 C630 1.427 . S
N634 C631 1.384 . S
N635 C627 1.427 . S
N635 C633 1.384 . S
H636 C642 0.930 . S
H637 C646 0.930 . S
H638 C651 0.929 . S
H639 C649 0.929 . S
H640 C644 0.929 . S
H641 C650 0.929 . S
C642 H636 0.930 . S
C642 C643 1.367 . S
C642 C650 1.378 . S
C643 C642 1.367 . S
C643 C651 1.433 . S
C644 H640 0.929 . S
C644 C646 1.378 . S
C644 C648 1.350 . S
C645 C648 1.463 . S
C645 C650 1.350 . S
C645 N653 1.427 . S
C646 H637 0.930 . S
C646 C644 1.378 . S
C646 C647 1.367 . S
C647 C646 1.367 . S
C647 C649 1.433 . S
C648 C644 1.350 . S
C648 C645 1.463 . S
C648 N652 1.427 . S
C649 H639 0.929 . S
C649 C647 1.433 . S
C649 N652 1.384 . S
C650 H641 0.929 . S
C650 C642 1.378 . S
C650 C645 1.350 . S
C651 H638 0.929 . S
C651 C643 1.433 . S
C651 N653 1.384 . S
N652 C648 1.427 . S
N652 C649 1.384 . S
N653 C645 1.427 . S
N653 C651 1.384 . S
H654 C660 0.930 . S
H655 C664 0.930 . S
H656 C669 0.929 . S
H657 C667 0.929 . S
H658 C662 0.929 . S
H659 C668 0.929 . S
C660 H654 0.930 . S
C660 C661 1.367 . S
C660 C668 1.378 . S
C661 C660 1.367 . S
C661 C669 1.433 . S
C662 H658 0.929 . S
C662 C664 1.378 . S
C662 C666 1.350 . S
C663 C666 1.463 . S
C663 C668 1.350 . S
C663 N671 1.427 . S
C664 H655 0.930 . S
C664 C662 1.378 . S
C664 C665 1.367 . S
C665 C664 1.367 . S
C665 C667 1.433 . S
C666 C662 1.350 . S
C666 C663 1.463 . S
C666 N670 1.427 . S
C667 H657 0.929 . S
C667 C665 1.433 . S
C667 N670 1.384 . S
C668 H659 0.929 . S
C668 C660 1.378 . S
C668 C663 1.350 . S
C669 H656 0.929 . S
C669 C661 1.433 . S
C669 N671 1.384 . S
N670 C666 1.427 . S
N670 C667 1.384 . S
N671 C663 1.427 . S
N671 C669 1.384 . S
H672 C678 0.930 . S
H673 C682 0.930 . S
H674 C687 0.929 . S
H675 C685 0.929 . S
H676 C680 0.929 . S
H677 C686 0.929 . S
C678 H672 0.930 . S
C678 C679 1.367 . S
C678 C686 1.378 . S
C679 C678 1.367 . S
C679 C687 1.433 . S
C680 H676 0.929 . S
C680 C682 1.378 . S
C680 C684 1.350 . S
C681 C684 1.463 . S
C681 C686 1.350 . S
C681 N689 1.427 . S
C682 H673 0.930 . S
C682 C680 1.378 . S
C682 C683 1.367 . S
C683 C682 1.367 . S
C683 C685 1.433 . S
C684 C680 1.350 . S
C684 C681 1.463 . S
C684 N688 1.427 . S
C685 H675 0.929 . S
C685 C683 1.433 . S
C685 N688 1.384 . S
C686 H677 0.929 . S
C686 C678 1.378 . S
C686 C681 1.350 . S
C687 H674 0.929 . S
C687 C679 1.433 . S
C687 N689 1.384 . S
N688 C684 1.427 . S
N688 C685 1.384 . S
N689 C681 1.427 . S
N689 C687 1.384 . S
H690 C696 0.930 . S
H691 C700 0.930 . S
H692 C705 0.929 . S
H693 C703 0.929 . S
H694 C698 0.929 . S
H695 C704 0.929 . S
C696 H690 0.930 . S
C696 C697 1.367 . S
C696 C704 1.378 . S
C697 C696 1.367 . S
C697 C705 1.433 . S
C698 H694 0.929 . S
C698 C700 1.378 . S
C698 C702 1.350 . S
C699 C702 1.463 . S
C699 C704 1.350 . S
C699 N707 1.427 . S
C700 H691 0.930 . S
C700 C698 1.378 . S
C700 C701 1.367 . S
C701 C700 1.367 . S
C701 C703 1.433 . S
C702 C698 1.350 . S
C702 C699 1.463 . S
C702 N706 1.427 . S
C703 H693 0.929 . S
C703 C701 1.433 . S
C703 N706 1.384 . S
C704 H695 0.929 . S
C704 C696 1.378 . S
C704 C699 1.350 . S
C705 H692 0.929 . S
C705 C697 1.433 . S
C705 N707 1.384 . S
N706 C702 1.427 . S
N706 C703 1.384 . S
N707 C699 1.427 . S
N707 C705 1.384 . S
H708 C714 0.930 . S
H709 C718 0.930 . S
H710 C723 0.929 . S
H711 C721 0.929 . S
H712 C716 0.929 . S
H713 C722 0.929 . S
C714 H708 0.930 . S
C714 C715 1.367 . S
C714 C722 1.378 . S
C715 C714 1.367 . S
C715 C723 1.433 . S
C716 H712 0.929 . S
C716 C718 1.378 . S
C716 C720 1.350 . S
C717 C720 1.463 . S
C717 C722 1.350 . S
C717 N725 1.427 . S
C718 H709 0.930 . S
C718 C716 1.378 . S
C718 C719 1.367 . S
C719 C718 1.367 . S
C719 C721 1.433 . S
C720 C716 1.350 . S
C720 C717 1.463 . S
C720 N724 1.427 . S
C721 H711 0.929 . S
C721 C719 1.433 . S
C721 N724 1.384 . S
C722 H713 0.929 . S
C722 C714 1.378 . S
C722 C717 1.350 . S
C723 H710 0.929 . S
C723 C715 1.433 . S
C723 N725 1.384 . S
N724 C720 1.427 . S
N724 C721 1.384 . S
N725 C717 1.427 . S
N725 C723 1.384 . S
H726 C732 0.930 . S
H727 C736 0.930 . S
H728 C741 0.929 . S
H729 C739 0.929 . S
H730 C734 0.929 . S
H731 C740 0.929 . S
C732 H726 0.930 . S
C732 C733 1.367 . S
C732 C740 1.378 . S
C733 C732 1.367 . S
C733 C741 1.433 . S
C734 H730 0.929 . S
C734 C736 1.378 . S
C734 C738 1.350 . S
C735 C738 1.463 . S
C735 C740 1.350 . S
C735 N743 1.427 . S
C736 H727 0.930 . S
C736 C734 1.378 . S
C736 C737 1.367 . S
C737 C736 1.367 . S
C737 C739 1.433 . S
C738 C734 1.350 . S
C738 C735 1.463 . S
C738 N742 1.427 . S
C739 H729 0.929 . S
C739 C737 1.433 . S
C739 N742 1.384 . S
C740 H731 0.929 . S
C740 C732 1.378 . S
C740 C735 1.350 . S
C741 H728 0.929 . S
C741 C733 1.433 . S
C741 N743 1.384 . S
N742 C738 1.427 . S
N742 C739 1.384 . S
N743 C735 1.427 . S
N743 C741 1.384 . S
H744 C750 0.930 . S
H745 C754 0.930 . S
H746 C759 0.929 . S
H747 C757 0.929 . S
H748 C752 0.929 . S
H749 C758 0.929 . S
C750 H744 0.930 . S
C750 C751 1.367 . S
C750 C758 1.378 . S
C751 C750 1.367 . S
C751 C759 1.433 . S
C752 H748 0.929 . S
C752 C754 1.378 . S
C752 C756 1.350 . S
C753 C756 1.463 . S
C753 C758 1.350 . S
C753 N761 1.427 . S
C754 H745 0.930 . S
C754 C752 1.378 . S
C754 C755 1.367 . S
C755 C754 1.367 . S
C755 C757 1.433 . S
C756 C752 1.350 . S
C756 C753 1.463 . S
C756 N760 1.427 . S
C757 H747 0.929 . S
C757 C755 1.433 . S
C757 N760 1.384 . S
C758 H749 0.929 . S
C758 C750 1.378 . S
C758 C753 1.350 . S
C759 H746 0.929 . S
C759 C751 1.433 . S
C759 N761 1.384 . S
N760 C756 1.427 . S
N760 C757 1.384 . S
N761 C753 1.427 . S
N761 C759 1.384 . S
H762 C768 0.930 . S
H763 C772 0.930 . S
H764 C777 0.929 . S
H765 C775 0.929 . S
H766 C770 0.929 . S
H767 C776 0.929 . S
C768 H762 0.930 . S
C768 C769 1.367 . S
C768 C776 1.378 . S
C769 C768 1.367 . S
C769 C777 1.433 . S
C770 H766 0.929 . S
C770 C772 1.378 . S
C770 C774 1.350 . S
C771 C774 1.463 . S
C771 C776 1.350 . S
C771 N779 1.427 . S
C772 H763 0.930 . S
C772 C770 1.378 . S
C772 C773 1.367 . S
C773 C772 1.367 . S
C773 C775 1.433 . S
C774 C770 1.350 . S
C774 C771 1.463 . S
C774 N778 1.427 . S
C775 H765 0.929 . S
C775 C773 1.433 . S
C775 N778 1.384 . S
C776 H767 0.929 . S
C776 C768 1.378 . S
C776 C771 1.350 . S
C777 H764 0.929 . S
C777 C769 1.433 . S
C777 N779 1.384 . S
N778 C774 1.427 . S
N778 C775 1.384 . S
N779 C771 1.427 . S
N779 C777 1.384 . S
H780 C786 0.930 . S
H781 C790 0.930 . S
H782 C795 0.929 . S
H783 C793 0.929 . S
H784 C788 0.929 . S
H785 C794 0.929 . S
C786 H780 0.930 . S
C786 C787 1.367 . S
C786 C794 1.378 . S
C787 C786 1.367 . S
C787 C795 1.433 . S
C788 H784 0.929 . S
C788 C790 1.378 . S
C788 C792 1.350 . S
C789 C792 1.463 . S
C789 C794 1.350 . S
C789 N797 1.427 . S
C790 H781 0.930 . S
C790 C788 1.378 . S
C790 C791 1.367 . S
C791 C790 1.367 . S
C791 C793 1.433 . S
C792 C788 1.350 . S
C792 C789 1.463 . S
C792 N796 1.427 . S
C793 H783 0.929 . S
C793 C791 1.433 . S
C793 N796 1.384 . S
C794 H785 0.929 . S
C794 C786 1.378 . S
C794 C789 1.350 . S
C795 H782 0.929 . S
C795 C787 1.433 . S
C795 N797 1.384 . S
N796 C792 1.427 . S
N796 C793 1.384 . S
N797 C789 1.427 . S
N797 C795 1.384 . S
H798 C804 0.930 . S
H799 C808 0.930 . S
H800 C813 0.929 . S
H801 C811 0.929 . S
H802 C806 0.929 . S
H803 C812 0.929 . S
C804 H798 0.930 . S
C804 C805 1.367 . S
C804 C812 1.378 . S
C805 C804 1.367 . S
C805 C813 1.433 . S
C806 H802 0.929 . S
C806 C808 1.378 . S
C806 C810 1.350 . S
C807 C810 1.463 . S
C807 C812 1.350 . S
C807 N815 1.427 . S
C808 H799 0.930 . S
C808 C806 1.378 . S
C808 C809 1.367 . S
C809 C808 1.367 . S
C809 C811 1.433 . S
C810 C806 1.350 . S
C810 C807 1.463 . S
C810 N814 1.427 . S
C811 H801 0.929 . S
C811 C809 1.433 . S
C811 N814 1.384 . S
C812 H803 0.929 . S
C812 C804 1.378 . S
C812 C807 1.350 . S
C813 H800 0.929 . S
C813 C805 1.433 . S
C813 N815 1.384 . S
N814 C810 1.427 . S
N814 C811 1.384 . S
N815 C807 1.427 . S
N815 C813 1.384 . S
H816 C822 0.930 . S
H817 C826 0.930 . S
H818 C831 0.929 . S
H819 C829 0.929 . S
H820 C824 0.929 . S
H821 C830 0.929 . S
C822 H816 0.930 . S
C822 C823 1.367 . S
C822 C830 1.378 . S
C823 C822 1.367 . S
C823 C831 1.433 . S
C824 H820 0.929 . S
C824 C826 1.378 . S
C824 C828 1.350 . S
C825 C828 1.463 . S
C825 C830 1.350 . S
C825 N833 1.427 . S
C826 H817 0.930 . S
C826 C824 1.378 . S
C826 C827 1.367 . S
C827 C826 1.367 . S
C827 C829 1.433 . S
C828 C824 1.350 . S
C828 C825 1.463 . S
C828 N832 1.427 . S
C829 H819 0.929 . S
C829 C827 1.433 . S
C829 N832 1.384 . S
C830 H821 0.929 . S
C830 C822 1.378 . S
C830 C825 1.350 . S
C831 H818 0.929 . S
C831 C823 1.433 . S
C831 N833 1.384 . S
N832 C828 1.427 . S
N832 C829 1.384 . S
N833 C825 1.427 . S
N833 C831 1.384 . S
H834 C840 0.930 . S
H835 C844 0.930 . S
H836 C849 0.929 . S
H837 C847 0.929 . S
H838 C842 0.929 . S
H839 C848 0.929 . S
C840 H834 0.930 . S
C840 C841 1.367 . S
C840 C848 1.378 . S
C841 C840 1.367 . S
C841 C849 1.433 . S
C842 H838 0.929 . S
C842 C844 1.378 . S
C842 C846 1.350 . S
C843 C846 1.463 . S
C843 C848 1.350 . S
C843 N851 1.427 . S
C844 H835 0.930 . S
C844 C842 1.378 . S
C844 C845 1.367 . S
C845 C844 1.367 . S
C845 C847 1.433 . S
C846 C842 1.350 . S
C846 C843 1.463 . S
C846 N850 1.427 . S
C847 H837 0.929 . S
C847 C845 1.433 . S
C847 N850 1.384 . S
C848 H839 0.929 . S
C848 C840 1.378 . S
C848 C843 1.350 . S
C849 H836 0.929 . S
C849 C841 1.433 . S
C849 N851 1.384 . S
N850 C846 1.427 . S
N850 C847 1.384 . S
N851 C843 1.427 . S
N851 C849 1.384 . S
H852 C858 0.930 . S
H853 C862 0.930 . S
H854 C867 0.929 . S
H855 C865 0.929 . S
H856 C860 0.929 . S
H857 C866 0.929 . S
C858 H852 0.930 . S
C858 C859 1.367 . S
C858 C866 1.378 . S
C859 C858 1.367 . S
C859 C867 1.433 . S
C860 H856 0.929 . S
C860 C862 1.378 . S
C860 C864 1.350 . S
C861 C864 1.463 . S
C861 C866 1.350 . S
C861 N869 1.427 . S
C862 H853 0.930 . S
C862 C860 1.378 . S
C862 C863 1.367 . S
C863 C862 1.367 . S
C863 C865 1.433 . S
C864 C860 1.350 . S
C864 C861 1.463 . S
C864 N868 1.427 . S
C865 H855 0.929 . S
C865 C863 1.433 . S
C865 N868 1.384 . S
C866 H857 0.929 . S
C866 C858 1.378 . S
C866 C861 1.350 . S
C867 H854 0.929 . S
C867 C859 1.433 . S
C867 N869 1.384 . S
N868 C864 1.427 . S
N868 C865 1.384 . S
N869 C861 1.427 . S
N869 C867 1.384 . S
H870 C876 0.930 . S
H871 C880 0.930 . S
H872 C885 0.929 . S
H873 C883 0.929 . S
H874 C878 0.929 . S
H875 C884 0.929 . S
C876 H870 0.930 . S
C876 C877 1.367 . S
C876 C884 1.378 . S
C877 C876 1.367 . S
C877 C885 1.433 . S
C878 H874 0.929 . S
C878 C880 1.378 . S
C878 C882 1.350 . S
C879 C882 1.463 . S
C879 C884 1.350 . S
C879 N887 1.427 . S
C880 H871 0.930 . S
C880 C878 1.378 . S
C880 C881 1.367 . S
C881 C880 1.367 . S
C881 C883 1.433 . S
C882 C878 1.350 . S
C882 C879 1.463 . S
C882 N886 1.427 . S
C883 H873 0.929 . S
C883 C881 1.433 . S
C883 N886 1.384 . S
C884 H875 0.929 . S
C884 C876 1.378 . S
C884 C879 1.350 . S
C885 H872 0.929 . S
C885 C877 1.433 . S
C885 N887 1.384 . S
N886 C882 1.427 . S
N886 C883 1.384 . S
N887 C879 1.427 . S
N887 C885 1.384 . S
H888 C894 0.930 . S
H889 C898 0.930 . S
H890 C903 0.929 . S
H891 C901 0.929 . S
H892 C896 0.929 . S
H893 C902 0.929 . S
C894 H888 0.930 . S
C894 C895 1.367 . S
C894 C902 1.378 . S
C895 C894 1.367 . S
C895 C903 1.433 . S
C896 H892 0.929 . S
C896 C898 1.378 . S
C896 C900 1.350 . S
C897 C900 1.463 . S
C897 C902 1.350 . S
C897 N905 1.427 . S
C898 H889 0.930 . S
C898 C896 1.378 . S
C898 C899 1.367 . S
C899 C898 1.367 . S
C899 C901 1.433 . S
C900 C896 1.350 . S
C900 C897 1.463 . S
C900 N904 1.427 . S
C901 H891 0.929 . S
C901 C899 1.433 . S
C901 N904 1.384 . S
C902 H893 0.929 . S
C902 C894 1.378 . S
C902 C897 1.350 . S
C903 H890 0.929 . S
C903 C895 1.433 . S
C903 N905 1.384 . S
N904 C900 1.427 . S
N904 C901 1.384 . S
N905 C897 1.427 . S
N905 C903 1.384 . S
H906 C912 0.930 . S
H907 C916 0.930 . S
H908 C921 0.929 . S
H909 C919 0.929 . S
H910 C914 0.929 . S
H911 C920 0.929 . S
C912 H906 0.930 . S
C912 C913 1.367 . S
C912 C920 1.378 . S
C913 C912 1.367 . S
C913 C921 1.433 . S
C914 H910 0.929 . S
C914 C916 1.378 . S
C914 C918 1.350 . S
C915 C918 1.463 . S
C915 C920 1.350 . S
C915 N923 1.427 . S
C916 H907 0.930 . S
C916 C914 1.378 . S
C916 C917 1.367 . S
C917 C916 1.367 . S
C917 C919 1.433 . S
C918 C914 1.350 . S
C918 C915 1.463 . S
C918 N922 1.427 . S
C919 H909 0.929 . S
C919 C917 1.433 . S
C919 N922 1.384 . S
C920 H911 0.929 . S
C920 C912 1.378 . S
C920 C915 1.350 . S
C921 H908 0.929 . S
C921 C913 1.433 . S
C921 N923 1.384 . S
N922 C918 1.427 . S
N922 C919 1.384 . S
N923 C915 1.427 . S
N923 C921 1.384 . S
H924 C930 0.930 . S
H925 C934 0.930 . S
H926 C939 0.929 . S
H927 C937 0.929 . S
H928 C932 0.929 . S
H929 C938 0.929 . S
C930 H924 0.930 . S
C930 C931 1.367 . S
C930 C938 1.378 . S
C931 C930 1.367 . S
C931 C939 1.433 . S
C932 H928 0.929 . S
C932 C934 1.378 . S
C932 C936 1.350 . S
C933 C936 1.463 . S
C933 C938 1.350 . S
C933 N941 1.427 . S
C934 H925 0.930 . S
C934 C932 1.378 . S
C934 C935 1.367 . S
C935 C934 1.367 . S
C935 C937 1.433 . S
C936 C932 1.350 . S
C936 C933 1.463 . S
C936 N940 1.427 . S
C937 H927 0.929 . S
C937 C935 1.433 . S
C937 N940 1.384 . S
C938 H929 0.929 . S
C938 C930 1.378 . S
C938 C933 1.350 . S
C939 H926 0.929 . S
C939 C931 1.433 . S
C939 N941 1.384 . S
N940 C936 1.427 . S
N940 C937 1.384 . S
N941 C933 1.427 . S
N941 C939 1.384 . S
H942 C948 0.930 . S
H943 C952 0.930 . S
H944 C957 0.929 . S
H945 C955 0.929 . S
H946 C950 0.929 . S
H947 C956 0.929 . S
C948 H942 0.930 . S
C948 C949 1.367 . S
C948 C956 1.378 . S
C949 C948 1.367 . S
C949 C957 1.433 . S
C950 H946 0.929 . S
C950 C952 1.378 . S
C950 C954 1.350 . S
C951 C954 1.463 . S
C951 C956 1.350 . S
C951 N959 1.427 . S
C952 H943 0.930 . S
C952 C950 1.378 . S
C952 C953 1.367 . S
C953 C952 1.367 . S
C953 C955 1.433 . S
C954 C950 1.350 . S
C954 C951 1.463 . S
C954 N958 1.427 . S
C955 H945 0.929 . S
C955 C953 1.433 . S
C955 N958 1.384 . S
C956 H947 0.929 . S
C956 C948 1.378 . S
C956 C951 1.350 . S
C957 H944 0.929 . S
C957 C949 1.433 . S
C957 N959 1.384 . S
N958 C954 1.427 . S
N958 C955 1.384 . S
N959 C951 1.427 . S
N959 C957 1.384 . S
H960 C966 0.930 . S
H961 C970 0.930 . S
H962 C975 0.929 . S
H963 C973 0.929 . S
H964 C968 0.929 . S
H965 C974 0.929 . S
C966 H960 0.930 . S
C966 C967 1.367 . S
C966 C974 1.378 . S
C967 C966 1.367 . S
C967 C975 1.433 . S
C968 H964 0.929 . S
C968 C970 1.378 . S
C968 C972 1.350 . S
C969 C972 1.463 . S
C969 C974 1.350 . S
C969 N977 1.427 . S
C970 H961 0.930 . S
C970 C968 1.378 . S
C970 C971 1.367 . S
C971 C970 1.367 . S
C971 C973 1.433 . S
C972 C968 1.350 . S
C972 C969 1.463 . S
C972 N976 1.427 . S
C973 H963 0.929 . S
C973 C971 1.433 . S
C973 N976 1.384 . S
C974 H965 0.929 . S
C974 C966 1.378 . S
C974 C969 1.350 . S
C975 H962 0.929 . S
C975 C967 1.433 . S
C975 N977 1.384 . S
N976 C972 1.427 . S
N976 C973 1.384 . S
N977 C969 1.427 . S
N977 C975 1.384 . S
H978 C984 0.930 . S
H979 C988 0.930 . S
H980 C993 0.929 . S
H981 C991 0.929 . S
H982 C986 0.929 . S
H983 C992 0.929 . S
C984 H978 0.930 . S
C984 C985 1.367 . S
C984 C992 1.378 . S
C985 C984 1.367 . S
C985 C993 1.433 . S
C986 H982 0.929 . S
C986 C988 1.378 . S
C986 C990 1.350 . S
C987 C990 1.463 . S
C987 C992 1.350 . S
C987 N995 1.427 . S
C988 H979 0.930 . S
C988 C986 1.378 . S
C988 C989 1.367 . S
C989 C988 1.367 . S
C989 C991 1.433 . S
C990 C986 1.350 . S
C990 C987 1.463 . S
C990 N994 1.427 . S
C991 H981 0.929 . S
C991 C989 1.433 . S
C991 N994 1.384 . S
C992 H983 0.929 . S
C992 C984 1.378 . S
C992 C987 1.350 . S
C993 H980 0.929 . S
C993 C985 1.433 . S
C993 N995 1.384 . S
N994 C990 1.427 . S
N994 C991 1.384 . S
N995 C987 1.427 . S
N995 C993 1.384 . S
H996 C1002 0.930 . S
H997 C1006 0.930 . S
H998 C1011 0.929 . S
H999 C1009 0.929 . S
H1000 C1004 0.929 . S
H1001 C1010 0.929 . S
C1002 H996 0.930 . S
C1002 C1003 1.367 . S
C1002 C1010 1.378 . S
C1003 C1002 1.367 . S
C1003 C1011 1.433 . S
C1004 H1000 0.929 . S
C1004 C1006 1.378 . S
C1004 C1008 1.350 . S
C1005 C1008 1.463 . S
C1005 C1010 1.350 . S
C1005 N1013 1.427 . S
C1006 H997 0.930 . S
C1006 C1004 1.378 . S
C1006 C1007 1.367 . S
C1007 C1006 1.367 . S
C1007 C1009 1.433 . S
C1008 C1004 1.350 . S
C1008 C1005 1.463 . S
C1008 N1012 1.427 . S
C1009 H999 0.929 . S
C1009 C1007 1.433 . S
C1009 N1012 1.384 . S
C1010 H1001 0.929 . S
C1010 C1002 1.378 . S
C1010 C1005 1.350 . S
C1011 H998 0.929 . S
C1011 C1003 1.433 . S
C1011 N1013 1.384 . S
N1012 C1008 1.427 . S
N1012 C1009 1.384 . S
N1013 C1005 1.427 . S
N1013 C1011 1.384 . S
H1014 C1020 0.930 . S
H1015 C1024 0.930 . S
H1016 C1029 0.929 . S
H1017 C1027 0.929 . S
H1018 C1022 0.929 . S
H1019 C1028 0.929 . S
C1020 H1014 0.930 . S
C1020 C1021 1.367 . S
C1020 C1028 1.378 . S
C1021 C1020 1.367 . S
C1021 C1029 1.433 . S
C1022 H1018 0.929 . S
C1022 C1024 1.378 . S
C1022 C1026 1.350 . S
C1023 C1026 1.463 . S
C1023 C1028 1.350 . S
C1023 N1031 1.427 . S
C1024 H1015 0.930 . S
C1024 C1022 1.378 . S
C1024 C1025 1.367 . S
C1025 C1024 1.367 . S
C1025 C1027 1.433 . S
C1026 C1022 1.350 . S
C1026 C1023 1.463 . S
C1026 N1030 1.427 . S
C1027 H1017 0.929 . S
C1027 C1025 1.433 . S
C1027 N1030 1.384 . S
C1028 H1019 0.929 . S
C1028 C1020 1.378 . S
C1028 C1023 1.350 . S
C1029 H1016 0.929 . S
C1029 C1021 1.433 . S
C1029 N1031 1.384 . S
N1030 C1026 1.427 . S
N1030 C1027 1.384 . S
N1031 C1023 1.427 . S
N1031 C1029 1.384 . S
H1032 C1038 0.930 . S
H1033 C1042 0.930 . S
H1034 C1047 0.929 . S
H1035 C1045 0.929 . S
H1036 C1040 0.929 . S
H1037 C1046 0.929 . S
C1038 H1032 0.930 . S
C1038 C1039 1.367 . S
C1038 C1046 1.378 . S
C1039 C1038 1.367 . S
C1039 C1047 1.433 . S
C1040 H1036 0.929 . S
C1040 C1042 1.378 . S
C1040 C1044 1.350 . S
C1041 C1044 1.463 . S
C1041 C1046 1.350 . S
C1041 N1049 1.427 . S
C1042 H1033 0.930 . S
C1042 C1040 1.378 . S
C1042 C1043 1.367 . S
C1043 C1042 1.367 . S
C1043 C1045 1.433 . S
C1044 C1040 1.350 . S
C1044 C1041 1.463 . S
C1044 N1048 1.427 . S
C1045 H1035 0.929 . S
C1045 C1043 1.433 . S
C1045 N1048 1.384 . S
C1046 H1037 0.929 . S
C1046 C1038 1.378 . S
C1046 C1041 1.350 . S
C1047 H1034 0.929 . S
C1047 C1039 1.433 . S
C1047 N1049 1.384 . S
N1048 C1044 1.427 . S
N1048 C1045 1.384 . S
N1049 C1041 1.427 . S
N1049 C1047 1.384 . S
H1050 C1056 0.930 . S
H1051 C1060 0.930 . S
H1052 C1065 0.929 . S
H1053 C1063 0.929 . S
H1054 C1058 0.929 . S
H1055 C1064 0.929 . S
C1056 H1050 0.930 . S
C1056 C1057 1.367 . S
C1056 C1064 1.378 . S
C1057 C1056 1.367 . S
C1057 C1065 1.433 . S
C1058 H1054 0.929 . S
C1058 C1060 1.378 . S
C1058 C1062 1.350 . S
C1059 C1062 1.463 . S
C1059 C1064 1.350 . S
C1059 N1067 1.427 . S
C1060 H1051 0.930 . S
C1060 C1058 1.378 . S
C1060 C1061 1.367 . S
C1061 C1060 1.367 . S
C1061 C1063 1.433 . S
C1062 C1058 1.350 . S
C1062 C1059 1.463 . S
C1062 N1066 1.427 . S
C1063 H1053 0.929 . S
C1063 C1061 1.433 . S
C1063 N1066 1.384 . S
C1064 H1055 0.929 . S
C1064 C1056 1.378 . S
C1064 C1059 1.350 . S
C1065 H1052 0.929 . S
C1065 C1057 1.433 . S
C1065 N1067 1.384 . S
N1066 C1062 1.427 . S
N1066 C1063 1.384 . S
N1067 C1059 1.427 . S
N1067 C1065 1.384 . S
H1068 C1074 0.930 . S
H1069 C1078 0.930 . S
H1070 C1083 0.929 . S
H1071 C1081 0.929 . S
H1072 C1076 0.929 . S
H1073 C1082 0.929 . S
C1074 H1068 0.930 . S
C1074 C1075 1.367 . S
C1074 C1082 1.378 . S
C1075 C1074 1.367 . S
C1075 C1083 1.433 . S
C1076 H1072 0.929 . S
C1076 C1078 1.378 . S
C1076 C1080 1.350 . S
C1077 C1080 1.463 . S
C1077 C1082 1.350 . S
C1077 N1085 1.427 . S
C1078 H1069 0.930 . S
C1078 C1076 1.378 . S
C1078 C1079 1.367 . S
C1079 C1078 1.367 . S
C1079 C1081 1.433 . S
C1080 C1076 1.350 . S
C1080 C1077 1.463 . S
C1080 N1084 1.427 . S
C1081 H1071 0.929 . S
C1081 C1079 1.433 . S
C1081 N1084 1.384 . S
C1082 H1073 0.929 . S
C1082 C1074 1.378 . S
C1082 C1077 1.350 . S
C1083 H1070 0.929 . S
C1083 C1075 1.433 . S
C1083 N1085 1.384 . S
N1084 C1080 1.427 . S
N1084 C1081 1.384 . S
N1085 C1077 1.427 . S
N1085 C1083 1.384 . S
H1086 C1092 0.930 . S
H1087 C1096 0.930 . S
H1088 C1101 0.929 . S
H1089 C1099 0.929 . S
H1090 C1094 0.929 . S
H1091 C1100 0.929 . S
C1092 H1086 0.930 . S
C1092 C1093 1.367 . S
C1092 C1100 1.378 . S
C1093 C1092 1.367 . S
C1093 C1101 1.433 . S
C1094 H1090 0.929 . S
C1094 C1096 1.378 . S
C1094 C1098 1.350 . S
C1095 C1098 1.463 . S
C1095 C1100 1.350 . S
C1095 N1103 1.427 . S
C1096 H1087 0.930 . S
C1096 C1094 1.378 . S
C1096 C1097 1.367 . S
C1097 C1096 1.367 . S
C1097 C1099 1.433 . S
C1098 C1094 1.350 . S
C1098 C1095 1.463 . S
C1098 N1102 1.427 . S
C1099 H1089 0.929 . S
C1099 C1097 1.433 . S
C1099 N1102 1.384 . S
C1100 H1091 0.929 . S
C1100 C1092 1.378 . S
C1100 C1095 1.350 . S
C1101 H1088 0.929 . S
C1101 C1093 1.433 . S
C1101 N1103 1.384 . S
N1102 C1098 1.427 . S
N1102 C1099 1.384 . S
N1103 C1095 1.427 . S
N1103 C1101 1.384 . S
H1104 C1110 0.930 1_565 S
H1105 C1114 0.930 . S
H1106 C1119 0.929 . S
H1107 C1117 0.929 1_565 S
H1108 C1112 0.929 . S
H1109 C1118 0.929 1_565 S
C1110 H1104 0.930 1_545 S
C1110 C1111 1.367 . S
C1110 C1118 1.378 . S
C1111 C1110 1.367 . S
C1111 C1119 1.433 . S
C1112 H1108 0.929 . S
C1112 C1114 1.378 . S
C1112 C1116 1.350 . S
C1113 C1116 1.463 1_556 S
C1113 C1118 1.350 . S
C1113 N1121 1.427 . S
C1114 H1105 0.930 . S
C1114 C1112 1.378 . S
C1114 C1115 1.367 . S
C1115 C1114 1.367 . S
C1115 C1117 1.433 . S
C1116 C1112 1.350 . S
C1116 C1113 1.463 1_554 S
C1116 N1120 1.427 . S
C1117 H1107 0.929 1_545 S
C1117 C1115 1.433 . S
C1117 N1120 1.384 . S
C1118 H1109 0.929 1_545 S
C1118 C1110 1.378 . S
C1118 C1113 1.350 . S
C1119 H1106 0.929 . S
C1119 C1111 1.433 . S
C1119 N1121 1.384 . S
N1120 C1116 1.427 . S
N1120 C1117 1.384 . S
N1121 C1113 1.427 . S
N1121 C1119 1.384 . S
H1122 C1128 0.930 . S
H1123 C1132 0.930 . S
H1124 C1137 0.929 . S
H1125 C1135 0.929 . S
H1126 C1130 0.929 . S
H1127 C1136 0.929 . S
C1128 H1122 0.930 . S
C1128 C1129 1.367 . S
C1128 C1136 1.378 . S
C1129 C1128 1.367 . S
C1129 C1137 1.433 . S
C1130 H1126 0.929 . S
C1130 C1132 1.378 . S
C1130 C1134 1.350 . S
C1131 C1134 1.463 . S
C1131 C1136 1.350 . S
C1131 N1139 1.427 . S
C1132 H1123 0.930 . S
C1132 C1130 1.378 . S
C1132 C1133 1.367 . S
C1133 C1132 1.367 . S
C1133 C1135 1.433 . S
C1134 C1130 1.350 . S
C1134 C1131 1.463 . S
C1134 N1138 1.427 . S
C1135 H1125 0.929 . S
C1135 C1133 1.433 . S
C1135 N1138 1.384 . S
C1136 H1127 0.929 . S
C1136 C1128 1.378 . S
C1136 C1131 1.350 . S
C1137 H1124 0.929 . S
C1137 C1129 1.433 . S
C1137 N1139 1.384 . S
N1138 C1134 1.427 . S
N1138 C1135 1.384 . S
N1139 C1131 1.427 . S
N1139 C1137 1.384 . S
H1140 C1146 0.930 . S
H1141 C1150 0.930 . S
H1142 C1155 0.929 . S
H1143 C1153 0.929 . S
H1144 C1148 0.929 . S
H1145 C1154 0.929 . S
C1146 H1140 0.930 . S
C1146 C1147 1.367 . S
C1146 C1154 1.378 . S
C1147 C1146 1.367 . S
C1147 C1155 1.433 . S
C1148 H1144 0.929 . S
C1148 C1150 1.378 . S
C1148 C1152 1.350 . S
C1149 C1152 1.463 1_554 S
C1149 C1154 1.350 . S
C1149 N1157 1.427 . S
C1150 H1141 0.930 . S
C1150 C1148 1.378 . S
C1150 C1151 1.367 . S
C1151 C1150 1.367 . S
C1151 C1153 1.433 . S
C1152 C1148 1.350 . S
C1152 C1149 1.463 1_556 S
C1152 N1156 1.427 . S
C1153 H1143 0.929 . S
C1153 C1151 1.433 . S
C1153 N1156 1.384 . S
C1154 H1145 0.929 . S
C1154 C1146 1.378 . S
C1154 C1149 1.350 . S
C1155 H1142 0.929 . S
C1155 C1147 1.433 . S
C1155 N1157 1.384 . S
N1156 C1152 1.427 . S
N1156 C1153 1.384 . S
N1157 C1149 1.427 . S
N1157 C1155 1.384 . S
H1158 C1164 0.930 . S
H1159 C1168 0.930 . S
H1160 C1173 0.929 . S
H1161 C1171 0.929 . S
H1162 C1166 0.929 . S
H1163 C1172 0.929 . S
C1164 H1158 0.930 . S
C1164 C1165 1.367 . S
C1164 C1172 1.378 . S
C1165 C1164 1.367 . S
C1165 C1173 1.433 . S
C1166 H1162 0.929 . S
C1166 C1168 1.378 . S
C1166 C1170 1.350 . S
C1167 C1170 1.463 . S
C1167 C1172 1.350 . S
C1167 N1175 1.427 . S
C1168 H1159 0.930 . S
C1168 C1166 1.378 . S
C1168 C1169 1.367 . S
C1169 C1168 1.367 . S
C1169 C1171 1.433 . S
C1170 C1166 1.350 . S
C1170 C1167 1.463 . S
C1170 N1174 1.427 . S
C1171 H1161 0.929 . S
C1171 C1169 1.433 . S
C1171 N1174 1.384 . S
C1172 H1163 0.929 . S
C1172 C1164 1.378 . S
C1172 C1167 1.350 . S
C1173 H1160 0.929 . S
C1173 C1165 1.433 . S
C1173 N1175 1.384 . S
N1174 C1170 1.427 . S
N1174 C1171 1.384 . S
N1175 C1167 1.427 . S
N1175 C1173 1.384 . S
H1176 C1182 0.930 1_545 S
H1177 C1186 0.930 . S
H1178 C1191 0.929 . S
H1179 C1189 0.929 1_545 S
H1180 C1184 0.929 . S
H1181 C1190 0.929 1_545 S
C1182 H1176 0.930 1_565 S
C1182 C1183 1.367 . S
C1182 C1190 1.378 . S
C1183 C1182 1.367 . S
C1183 C1191 1.433 . S
C1184 H1180 0.929 . S
C1184 C1186 1.378 . S
C1184 C1188 1.350 . S
C1185 C1188 1.463 1_554 S
C1185 C1190 1.350 . S
C1185 N1193 1.427 . S
C1186 H1177 0.930 . S
C1186 C1184 1.378 . S
C1186 C1187 1.367 . S
C1187 C1186 1.367 . S
C1187 C1189 1.433 . S
C1188 C1184 1.350 . S
C1188 C1185 1.463 1_556 S
C1188 N1192 1.427 . S
C1189 H1179 0.929 1_565 S
C1189 C1187 1.433 . S
C1189 N1192 1.384 . S
C1190 H1181 0.929 1_565 S
C1190 C1182 1.378 . S
C1190 C1185 1.350 . S
C1191 H1178 0.929 . S
C1191 C1183 1.433 . S
C1191 N1193 1.384 . S
N1192 C1188 1.427 . S
N1192 C1189 1.384 . S
N1193 C1185 1.427 . S
N1193 C1191 1.384 . S
H1194 C1200 0.930 . S
H1195 C1204 0.930 . S
H1196 C1209 0.929 . S
H1197 C1207 0.929 . S
H1198 C1202 0.929 . S
H1199 C1208 0.929 . S
C1200 H1194 0.930 . S
C1200 C1201 1.367 . S
C1200 C1208 1.378 . S
C1201 C1200 1.367 . S
C1201 C1209 1.433 . S
C1202 H1198 0.929 . S
C1202 C1204 1.378 . S
C1202 C1206 1.350 . S
C1203 C1206 1.463 . S
C1203 C1208 1.350 . S
C1203 N1211 1.427 . S
C1204 H1195 0.930 . S
C1204 C1202 1.378 . S
C1204 C1205 1.367 . S
C1205 C1204 1.367 . S
C1205 C1207 1.433 . S
C1206 C1202 1.350 . S
C1206 C1203 1.463 . S
C1206 N1210 1.427 . S
C1207 H1197 0.929 . S
C1207 C1205 1.433 . S
C1207 N1210 1.384 . S
C1208 H1199 0.929 . S
C1208 C1200 1.378 . S
C1208 C1203 1.350 . S
C1209 H1196 0.929 . S
C1209 C1201 1.433 . S
C1209 N1211 1.384 . S
N1210 C1206 1.427 . S
N1210 C1207 1.384 . S
N1211 C1203 1.427 . S
N1211 C1209 1.384 . S
H1212 C1218 0.930 . S
H1213 C1222 0.930 . S
H1214 C1227 0.929 . S
H1215 C1225 0.929 . S
H1216 C1220 0.929 . S
H1217 C1226 0.929 . S
C1218 H1212 0.930 . S
C1218 C1219 1.367 . S
C1218 C1226 1.378 . S
C1219 C1218 1.367 . S
C1219 C1227 1.433 . S
C1220 H1216 0.929 . S
C1220 C1222 1.378 . S
C1220 C1224 1.350 . S
C1221 C1224 1.463 1_554 S
C1221 C1226 1.350 . S
C1221 N1229 1.427 . S
C1222 H1213 0.930 . S
C1222 C1220 1.378 . S
C1222 C1223 1.367 . S
C1223 C1222 1.367 . S
C1223 C1225 1.433 . S
C1224 C1220 1.350 . S
C1224 C1221 1.463 1_556 S
C1224 N1228 1.427 . S
C1225 H1215 0.929 . S
C1225 C1223 1.433 . S
C1225 N1228 1.384 . S
C1226 H1217 0.929 . S
C1226 C1218 1.378 . S
C1226 C1221 1.350 . S
C1227 H1214 0.929 . S
C1227 C1219 1.433 . S
C1227 N1229 1.384 . S
N1228 C1224 1.427 . S
N1228 C1225 1.384 . S
N1229 C1221 1.427 . S
N1229 C1227 1.384 . S
H1230 C1236 0.930 . S
H1231 C1240 0.930 . S
H1232 C1245 0.929 . S
H1233 C1243 0.929 . S
H1234 C1238 0.929 . S
H1235 C1244 0.929 . S
C1236 H1230 0.930 . S
C1236 C1237 1.367 . S
C1236 C1244 1.378 . S
C1237 C1236 1.367 . S
C1237 C1245 1.433 . S
C1238 H1234 0.929 . S
C1238 C1240 1.378 . S
C1238 C1242 1.350 . S
C1239 C1242 1.463 . S
C1239 C1244 1.350 . S
C1239 N1247 1.427 . S
C1240 H1231 0.930 . S
C1240 C1238 1.378 . S
C1240 C1241 1.367 . S
C1241 C1240 1.367 . S
C1241 C1243 1.433 . S
C1242 C1238 1.350 . S
C1242 C1239 1.463 . S
C1242 N1246 1.427 . S
C1243 H1233 0.929 . S
C1243 C1241 1.433 . S
C1243 N1246 1.384 . S
C1244 H1235 0.929 . S
C1244 C1236 1.378 . S
C1244 C1239 1.350 . S
C1245 H1232 0.929 . S
C1245 C1237 1.433 . S
C1245 N1247 1.384 . S
N1246 C1242 1.427 . S
N1246 C1243 1.384 . S
N1247 C1239 1.427 . S
N1247 C1245 1.384 . S
C535 N2 2.010 . S
C539 N233 2.011 . S
C553 N134 2.008 . S
C557 N35 2.011 . S
C571 N167 2.007 . S
C575 N68 2.010 . S
C589 N101 2.008 . S
C593 N200 2.007 . S
C607 N266 2.011 . S
C611 N497 2.010 . S
C625 N299 2.009 . S
C629 N398 2.007 . S
C643 N431 2.007 . S
C647 N332 2.010 . S
C661 N365 2.010 . S
C665 N464 2.011 . S
C679 C7 0.851 . S
C683 C318 0.800 . S
C697 C351 0.836 . S
C701 C40 0.844 . S
C715 C384 0.830 . S
C719 C73 0.849 . S
C733 C285 0.820 . S
C737 C106 0.845 . S
C751 C516 0.806 . S
C755 C139 0.848 . S
C769 C417 0.816 . S
C773 C172 0.852 . S
C787 C450 0.834 . S
C791 C205 0.844 . S
C805 C483 0.821 . S
C809 C238 0.851 . S
C823 C54 0.836 . S
C827 C271 0.844 . S
C841 C87 0.812 . S
C845 C304 0.847 . S
C859 C120 0.802 . S
C863 C337 0.850 . S
C877 C370 0.853 . S
C881 C21 0.808 . S
C895 C252 0.827 . S
C899 C403 0.844 . S
C913 C153 0.833 . S
C917 C436 0.848 . S
C931 C186 0.817 . S
C935 C469 0.852 . S
C949 C219 0.817 . S
C953 C502 0.846 . S
C967 N79 0.938 . S
C971 N13 0.939 . S
C985 N46 0.933 . S
C989 N112 0.963 . S
C1003 N211 0.945 . S
C1007 N145 0.966 . S
C1021 N244 0.941 . S
C1025 N178 0.966 . S
C1039 N343 0.935 . S
C1043 N277 0.943 . S
C1057 N376 0.961 . S
C1061 N310 0.932 . S
C1075 N409 0.941 . S
C1079 N475 0.966 . S
C1093 N508 0.965 . S
C1097 N442 0.946 . S
C1111 C216 1.275 . S
C1115 C18 1.267 . S
C1129 C249 1.271 . S
C1133 C51 1.275 . S
C1147 C84 1.265 . S
C1151 C150 1.268 . S
C1165 C183 1.271 . S
C1169 C117 1.275 . S
C1183 C480 1.273 . S
C1187 C282 1.265 . S
C1201 C513 1.275 . S
C1205 C315 1.268 . S
C1219 C414 1.265 . S
C1223 C348 1.273 . S
C1237 C381 1.275 . S
C1241 C447 1.270 . S
