# Generated by pormake.
# Topology umy, (4)-cn, num edge types: 1
# Building blocks:
#     Node 0, Type 0, BuildingBlock: UXUYUI_clean_sbu_0, # of connection points: 4
#     Node 1, Type 0, BuildingBlock: UXUYUI_clean_sbu_0, # of connection points: 4
#     Node 2, Type 0, BuildingBlock: UXUYUI_clean_sbu_0, # of connection points: 4
#     Node 3, Type 0, BuildingBlock: UXUYUI_clean_sbu_0, # of connection points: 4
#     Node 4, Type 0, BuildingBlock: UXUYUI_clean_sbu_0, # of connection points: 4
#     Node 5, Type 0, BuildingBlock: UXUYUI_clean_sbu_0, # of connection points: 4
#     Node 6, Type 0, BuildingBlock: UXUYUI_clean_sbu_0, # of connection points: 4
#     Node 7, Type 0, BuildingBlock: UXUYUI_clean_sbu_0, # of connection points: 4
#     Node 8, Type 0, BuildingBlock: UXUYUI_clean_sbu_0, # of connection points: 4
#     Node 9, Type 0, BuildingBlock: UXUYUI_clean_sbu_0, # of connection points: 4
#     Node 10, Type 0, BuildingBlock: UXUYUI_clean_sbu_0, # of connection points: 4
#     Node 11, Type 0, BuildingBlock: UXUYUI_clean_sbu_0, # of connection points: 4
#     Edge 12, Type (0, 0), BuildingBlock: TEMPAE_clean_linker_10, # of connection points: 2
#     Edge 13, Type (0, 0), BuildingBlock: TEMPAE_clean_linker_10, # of connection points: 2
#     Edge 14, Type (0, 0), BuildingBlock: TEMPAE_clean_linker_10, # of connection points: 2
#     Edge 15, Type (0, 0), BuildingBlock: TEMPAE_clean_linker_10, # of connection points: 2
#     Edge 16, Type (0, 0), BuildingBlock: TEMPAE_clean_linker_10, # of connection points: 2
#     Edge 17, Type (0, 0), BuildingBlock: TEMPAE_clean_linker_10, # of connection points: 2
#     Edge 18, Type (0, 0), BuildingBlock: TEMPAE_clean_linker_10, # of connection points: 2
#     Edge 19, Type (0, 0), BuildingBlock: TEMPAE_clean_linker_10, # of connection points: 2
#     Edge 20, Type (0, 0), BuildingBlock: TEMPAE_clean_linker_10, # of connection points: 2
#     Edge 21, Type (0, 0), BuildingBlock: TEMPAE_clean_linker_10, # of connection points: 2
#     Edge 22, Type (0, 0), BuildingBlock: TEMPAE_clean_linker_10, # of connection points: 2
#     Edge 23, Type (0, 0), BuildingBlock: TEMPAE_clean_linker_10, # of connection points: 2
#     Edge 24, Type (0, 0), BuildingBlock: TEMPAE_clean_linker_10, # of connection points: 2
#     Edge 25, Type (0, 0), BuildingBlock: TEMPAE_clean_linker_10, # of connection points: 2
#     Edge 26, Type (0, 0), BuildingBlock: TEMPAE_clean_linker_10, # of connection points: 2
#     Edge 27, Type (0, 0), BuildingBlock: TEMPAE_clean_linker_10, # of connection points: 2
#     Edge 28, Type (0, 0), BuildingBlock: TEMPAE_clean_linker_10, # of connection points: 2
#     Edge 29, Type (0, 0), BuildingBlock: TEMPAE_clean_linker_10, # of connection points: 2
#     Edge 30, Type (0, 0), BuildingBlock: TEMPAE_clean_linker_10, # of connection points: 2
#     Edge 31, Type (0, 0), BuildingBlock: TEMPAE_clean_linker_10, # of connection points: 2
#     Edge 32, Type (0, 0), BuildingBlock: TEMPAE_clean_linker_10, # of connection points: 2
#     Edge 33, Type (0, 0), BuildingBlock: TEMPAE_clean_linker_10, # of connection points: 2
#     Edge 34, Type (0, 0), BuildingBlock: TEMPAE_clean_linker_10, # of connection points: 2
#     Edge 35, Type (0, 0), BuildingBlock: TEMPAE_clean_linker_10, # of connection points: 2
# Relax obj value: 0.205
# Max RMSD: 0.156
# Mean RMSD: 0.156
data_MOF--net-umy--node1-UXUYUI_clean_sbu_0--edge1-TEMPAE_clean_linker_10
_symmetry_space_group_name_H-M    P1
_symmetry_Int_Tables_number       1
_symmetry_cell_setting            triclinic
loop_
_symmetry_equiv_pos_as_xyz
'x, y, z'
_cell_length_a     59.112451
_cell_length_b     59.107997
_cell_length_c     66.621489
_cell_angle_alpha  89.996148
_cell_angle_beta   90.004759
_cell_angle_gamma 120.01049
loop_
_atom_site_label
_atom_site_type_symbol
_atom_site_fract_x
_atom_site_fract_y
_atom_site_fract_z
_atom_type_partial_charge
Li0 Li 0.08966 0.34399 0.09043 0.0
Li1 Li 0.09305 0.35691 0.12572 0.0
Li2 Li 0.04898 0.32899 0.10958 0.0
Li3 Li 0.07563 0.3757 0.10203 0.0
C4 C 0.07905 0.29915 0.11193 0.0
N5 N 0.08205 0.25432 0.10686 0.0
C6 C 0.10019 0.29766 0.11978 0.0
C7 C 0.05916 0.27764 0.10187 0.0
C8 C 0.10144 0.27489 0.11694 0.0
C9 C 0.0611 0.2552 0.09937 0.0
C10 C 0.13537 0.39747 0.10914 0.0
C11 C 0.1628 0.43273 0.13156 0.0
N12 N 0.18425 0.43315 0.12371 0.0
C13 C 0.15772 0.39847 0.10115 0.0
C14 C 0.13796 0.41493 0.12432 0.0
C15 C 0.18224 0.41657 0.10877 0.0
C16 C 0.10105 0.33314 0.05073 0.0
N17 N 0.10745 0.33568 0.07055 0.0
C18 C 0.14314 0.32867 0.06383 0.0
C19 C 0.12801 0.33354 0.07723 0.0
C20 C 0.1371 0.32598 0.04329 0.0
C21 C 0.11558 0.328 0.03675 0.0
H22 H 0.085 0.33555 0.04572 0.0
H23 H 0.13304 0.33626 0.09298 0.0
C24 C 0.10101 0.36218 0.16747 0.0
N25 N 0.11224 0.36182 0.14977 0.0
C26 C 0.11396 0.3646 0.18555 0.0
C27 C 0.14993 0.36655 0.16682 0.0
C28 C 0.13616 0.3638 0.14912 0.0
C29 C 0.13871 0.36676 0.18534 0.0
H30 H 0.08181 0.36021 0.16755 0.0
H31 H 0.14439 0.36288 0.13486 0.0
C32 C 0.03819 0.33213 0.06934 0.0
N33 N 0.99782 0.30375 0.04276 0.0
C34 C 0.0223 0.34195 0.0628 0.0
C35 C 0.03376 0.30804 0.06215 0.0
C36 C 0.00194 0.32727 0.04942 0.0
C37 C 0.0132 0.29394 0.04878 0.0
C38 C 0.04909 0.37189 0.13632 0.0
C39 C 0.02235 0.36219 0.13356 0.0
C40 C 0.06377 0.39481 0.14736 0.0
C41 C 0.01085 0.37588 0.14157 0.0
C42 C 0.05156 0.40795 0.15511 0.0
N43 N 0.02558 0.39831 0.15205 0.0
C44 C 0.01466 0.28658 0.13198 0.0
C45 C 0.99261 0.29531 0.10608 0.0
C46 C 0.99106 0.26663 0.13948 0.0
N47 N 0.01505 0.30056 0.11567 0.0
C48 C 0.96847 0.27541 0.11308 0.0
C49 C 0.96751 0.26109 0.1302 0.0
H50 H 0.03277 0.29136 0.13944 0.0
H51 H 0.99324 0.30709 0.09349 0.0
C52 C 0.09774 0.42928 0.09291 0.0
N53 N 0.07473 0.40679 0.09587 0.0
C54 C 0.09817 0.45288 0.09014 0.0
C55 C 0.05107 0.42964 0.09258 0.0
C56 C 0.05158 0.40647 0.09533 0.0
C57 C 0.07464 0.45332 0.09025 0.0
H58 H 0.11585 0.42899 0.09287 0.0
H59 H 0.0335 0.38831 0.0974 0.0
O60 O 0.0775 0.32131 0.11459 0.0
O61 O 0.11113 0.37962 0.10207 0.0
O62 O 0.05815 0.34622 0.08249 0.0
O63 O 0.06072 0.35884 0.12846 0.0
H64 H 0.11557 0.31397 0.12786 0.0
H65 H 0.04227 0.27812 0.09623 0.0
H66 H 0.11782 0.27357 0.12279 0.0
H67 H 0.04589 0.23845 0.09154 0.0
H68 H 0.16503 0.44621 0.1434 0.0
H69 H 0.15621 0.38551 0.08913 0.0
H70 H 0.12093 0.41464 0.13049 0.0
H71 H 0.19968 0.41747 0.10277 0.0
H72 H 0.15947 0.32706 0.06949 0.0
H73 H 0.1105 0.3263 0.02099 0.0
H74 H 0.10472 0.36476 0.19955 0.0
H75 H 0.16881 0.36776 0.16607 0.0
H76 H 0.02561 0.36068 0.06804 0.0
H77 H 0.0462 0.30042 0.06668 0.0
H78 H 0.98941 0.33458 0.04431 0.0
H79 H 0.00952 0.27523 0.04315 0.0
H80 H 0.01066 0.34449 0.12509 0.0
H81 H 0.08435 0.40235 0.15 0.0
H82 H 0.99022 0.3687 0.13939 0.0
H83 H 0.06273 0.42579 0.16359 0.0
H84 H 0.99122 0.25586 0.15258 0.0
H85 H 0.95072 0.27196 0.10564 0.0
H86 H 0.11673 0.47061 0.08795 0.0
H87 H 0.03249 0.42911 0.09282 0.0
Li88 Li 0.74779 0.08791 0.25653 0.0
Li89 Li 0.74132 0.09443 0.29264 0.0
Li90 Li 0.72329 0.05202 0.2787 0.0
Li91 Li 0.70388 0.07744 0.26997 0.0
C92 C 0.77185 0.06313 0.28176 0.0
N93 N 0.79258 0.03039 0.28407 0.0
C94 C 0.77898 0.05763 0.30035 0.0
C95 C 0.77536 0.05204 0.26434 0.0
C96 C 0.78936 0.04097 0.30121 0.0
C97 C 0.7859 0.03558 0.26582 0.0
C98 C 0.75651 0.1374 0.26605 0.0
C99 C 0.77184 0.18181 0.25559 0.0
N100 N 0.79674 0.18796 0.26002 0.0
C101 C 0.78226 0.14418 0.27052 0.0
C102 C 0.75124 0.15635 0.25852 0.0
C103 C 0.80232 0.16983 0.26736 0.0
C104 C 0.7634 0.10877 0.21733 0.0
N105 N 0.77146 0.10294 0.2347 0.0
C106 C 0.81545 0.12346 0.22285 0.0
C107 C 0.79688 0.10991 0.23766 0.0
C108 C 0.80789 0.13025 0.20489 0.0
C109 C 0.78143 0.12257 0.20213 0.0
H110 H 0.74311 0.10334 0.21555 0.0
H111 H 0.80294 0.10579 0.25184 0.0
C112 C 0.75745 0.10036 0.33227 0.0
N113 N 0.75608 0.11425 0.31653 0.0
C114 C 0.76772 0.11255 0.35063 0.0
C115 C 0.77429 0.15306 0.33649 0.0
C116 C 0.7637 0.14001 0.31842 0.0
C117 C 0.77652 0.13931 0.35284 0.0
H118 H 0.75033 0.07969 0.33057 0.0
H119 H 0.76135 0.15047 0.30607 0.0
C120 C 0.70118 0.03331 0.24249 0.0
N121 N 0.67698 0.98454 0.22479 0.0
C122 C 0.67661 0.014 0.24917 0.0
C123 C 0.71334 0.02798 0.22668 0.0
C124 C 0.66474 0.98941 0.24007 0.0
C125 C 0.70079 0.00316 0.21795 0.0
C126 C 0.69302 0.07235 0.31013 0.0
C127 C 0.67646 0.05506 0.32478 0.0
C128 C 0.69626 0.09744 0.30886 0.0
C129 C 0.66352 0.06316 0.33796 0.0
C130 C 0.68298 0.1048 0.32232 0.0
N131 N 0.66703 0.08766 0.33647 0.0
C132 C 0.70881 0.01181 0.30596 0.0
C133 C 0.71876 0.00059 0.27438 0.0
C134 C 0.70424 0.98821 0.31415 0.0
N135 N 0.71585 0.01758 0.28641 0.0
C136 C 0.71454 0.97673 0.282 0.0
C137 C 0.70733 0.97036 0.30222 0.0
H138 H 0.70721 0.02582 0.31537 0.0
H139 H 0.72505 0.00574 0.25903 0.0
C140 C 0.67205 0.09617 0.25327 0.0
N141 N 0.67216 0.07703 0.2645 0.0
C142 C 0.64888 0.09674 0.25062 0.0
C143 C 0.62646 0.05774 0.27096 0.0
C144 C 0.64996 0.05781 0.27306 0.0
C145 C 0.62577 0.07752 0.25978 0.0
H146 H 0.69003 0.11119 0.24664 0.0
H147 H 0.65061 0.04278 0.28186 0.0
O148 O 0.76118 0.07899 0.28061 0.0
O149 O 0.73658 0.11225 0.26853 0.0
O150 O 0.71311 0.05751 0.25112 0.0
O151 O 0.70565 0.06447 0.29707 0.0
H152 H 0.77651 0.06605 0.31397 0.0
H153 H 0.76954 0.0557 0.24986 0.0
H154 H 0.79486 0.03647 0.3155 0.0
H155 H 0.78856 0.02675 0.25247 0.0
H156 H 0.76803 0.19667 0.24976 0.0
H157 H 0.78675 0.12985 0.27646 0.0
H158 H 0.73144 0.15145 0.25495 0.0
H159 H 0.82232 0.17533 0.27075 0.0
H160 H 0.83572 0.12952 0.22578 0.0
H161 H 0.77485 0.12747 0.18849 0.0
H162 H 0.76907 0.10122 0.36286 0.0
H163 H 0.78033 0.17359 0.33774 0.0
H164 H 0.66697 0.01788 0.26139 0.0
H165 H 0.73231 0.04283 0.22128 0.0
H166 H 0.64581 0.97419 0.24517 0.0
H167 H 0.71 0.99869 0.20576 0.0
H168 H 0.67351 0.0355 0.32591 0.0
H169 H 0.70878 0.11113 0.29762 0.0
H170 H 0.65065 0.04995 0.34935 0.0
H171 H 0.68534 0.12414 0.32149 0.0
H172 H 0.69836 0.98405 0.32973 0.0
H173 H 0.71754 0.96375 0.27232 0.0
H174 H 0.64916 0.11239 0.24196 0.0
H175 H 0.609 0.04237 0.27801 0.0
Li176 Li 0.65378 0.74299 0.42484 0.0
Li177 Li 0.64497 0.73492 0.46088 0.0
Li178 Li 0.67151 0.72006 0.44268 0.0
Li179 Li 0.62411 0.69891 0.43745 0.0
C180 C 0.69445 0.78155 0.44251 0.0
N181 N 0.72386 0.83322 0.43096 0.0
C182 C 0.69022 0.80052 0.45144 0.0
C183 C 0.71378 0.78887 0.42784 0.0
C184 C 0.70528 0.82654 0.44537 0.0
C185 C 0.72839 0.81509 0.42216 0.0
C186 C 0.59501 0.72146 0.43449 0.0
C187 C 0.54925 0.69802 0.44308 0.0
N188 N 0.54323 0.7014 0.42402 0.0
C189 C 0.5884 0.72483 0.41501 0.0
C190 C 0.57533 0.70809 0.44869 0.0
C191 C 0.56209 0.71451 0.41001 0.0
C192 C 0.66985 0.7683 0.38645 0.0
N193 N 0.65934 0.76798 0.40467 0.0
C194 C 0.65693 0.80599 0.39635 0.0
C195 C 0.65265 0.78612 0.40972 0.0
C196 C 0.66793 0.80707 0.37741 0.0
C197 C 0.67435 0.7878 0.3725 0.0
H198 H 0.67488 0.75352 0.38282 0.0
H199 H 0.64432 0.78533 0.42434 0.0
C200 C 0.65813 0.75339 0.50066 0.0
N201 N 0.64173 0.74988 0.48518 0.0
C202 C 0.6565 0.76482 0.51851 0.0
C203 C 0.62212 0.77018 0.50376 0.0
C204 C 0.624 0.75806 0.48635 0.0
C205 C 0.63847 0.77366 0.52024 0.0
H206 H 0.67256 0.74739 0.49912 0.0
H207 H 0.61167 0.75564 0.47361 0.0
C208 C 0.6631 0.69785 0.40696 0.0
N209 N 0.68649 0.67308 0.38828 0.0
C210 C 0.64977 0.67063 0.40532 0.0
C211 C 0.68823 0.7125 0.39897 0.0
C212 C 0.66195 0.65847 0.39584 0.0
C213 C 0.69975 0.6996 0.38964 0.0
C214 C 0.64079 0.69461 0.48212 0.0
C215 C 0.66184 0.69571 0.49255 0.0
C216 C 0.61772 0.68821 0.49238 0.0
C217 C 0.65951 0.69059 0.51315 0.0
C218 C 0.61618 0.68326 0.51298 0.0
N219 N 0.63693 0.68455 0.52286 0.0
C220 C 0.72317 0.73512 0.45282 0.0
C221 C 0.69691 0.69 0.44542 0.0
C222 C 0.74363 0.73142 0.45904 0.0
N223 N 0.70028 0.71449 0.44645 0.0
C224 C 0.71704 0.68549 0.45121 0.0
C225 C 0.74049 0.70628 0.45859 0.0
H226 H 0.72512 0.75425 0.45397 0.0
H227 H 0.67821 0.67378 0.441 0.0
C228 C 0.57963 0.66266 0.41505 0.0
N229 N 0.59296 0.66659 0.43254 0.0
C230 C 0.55614 0.63941 0.41188 0.0
C231 C 0.56123 0.62426 0.44436 0.0
C232 C 0.58443 0.64787 0.44698 0.0
C233 C 0.54665 0.61989 0.42671 0.0
H234 H 0.58717 0.67766 0.40363 0.0
H235 H 0.59561 0.65127 0.46058 0.0
O236 O 0.67943 0.75588 0.44783 0.0
O237 O 0.62061 0.73105 0.4396 0.0
O238 O 0.65158 0.71011 0.41628 0.0
O239 O 0.64275 0.69977 0.46197 0.0
H240 H 0.67529 0.79517 0.46277 0.0
H241 H 0.71725 0.77441 0.42077 0.0
H242 H 0.70213 0.84141 0.45206 0.0
H243 H 0.74328 0.82101 0.41072 0.0
H244 H 0.5338 0.68749 0.45387 0.0
H245 H 0.60338 0.73502 0.40382 0.0
H246 H 0.58013 0.70538 0.46383 0.0
H247 H 0.55667 0.71684 0.39497 0.0
H248 H 0.65214 0.82065 0.40099 0.0
H249 H 0.68262 0.78772 0.35802 0.0
H250 H 0.66928 0.76663 0.5308 0.0
H251 H 0.60837 0.77721 0.50408 0.0
H252 H 0.6303 0.65901 0.41142 0.0
H253 H 0.69882 0.73358 0.40014 0.0
H254 H 0.65191 0.63741 0.39453 0.0
H255 H 0.71926 0.71066 0.3835 0.0
H256 H 0.67985 0.70063 0.48489 0.0
H257 H 0.60126 0.6873 0.48454 0.0
H258 H 0.67567 0.69147 0.52143 0.0
H259 H 0.5985 0.67845 0.52113 0.0
H260 H 0.76145 0.7479 0.46468 0.0
H261 H 0.7138 0.66576 0.45097 0.0
H262 H 0.54566 0.63661 0.39793 0.0
H263 H 0.55453 0.60974 0.45618 0.0
Li264 Li 0.94711 0.67048 0.6089 0.0
Li265 Li 0.92252 0.62512 0.60076 0.0
Li266 Li 0.91163 0.65839 0.58608 0.0
Li267 Li 0.90478 0.64622 0.62293 0.0
C268 C 0.96679 0.66488 0.57355 0.0
N269 N 0.01608 0.68626 0.55699 0.0
C270 C 0.98501 0.65892 0.58161 0.0
C271 C 0.97349 0.6815 0.55697 0.0
C272 C 0.00988 0.67001 0.57306 0.0
C273 C 0.99856 0.69215 0.54882 0.0
C274 C 0.92802 0.62089 0.64116 0.0
C275 C 0.8963 0.57899 0.65472 0.0
N276 N 0.91427 0.58071 0.6683 0.0
C277 C 0.94617 0.62223 0.65525 0.0
C278 C 0.90287 0.59908 0.64088 0.0
C279 C 0.93885 0.60172 0.66884 0.0
C280 C 0.98618 0.69787 0.6366 0.0
N281 N 0.98137 0.6978 0.61665 0.0
C282 C 0.02284 0.73651 0.6119 0.0
C283 C 0.99912 0.71663 0.60425 0.0
C284 C 0.02815 0.7371 0.63251 0.0
C285 C 0.00949 0.71731 0.64486 0.0
H286 H 0.97158 0.68304 0.64622 0.0
H287 H 0.99464 0.7168 0.58857 0.0
C288 C 0.90465 0.57545 0.58301 0.0
N289 N 0.92275 0.59363 0.59554 0.0
C290 C 0.9038 0.55164 0.57998 0.0
C291 C 0.94048 0.56597 0.60255 0.0
C292 C 0.94071 0.58951 0.60504 0.0
C293 C 0.92176 0.54655 0.58996 0.0
H294 H 0.89077 0.57939 0.57549 0.0
H295 H 0.95501 0.60437 0.61482 0.0
C296 C 0.93496 0.70645 0.61562 0.0
N297 N 0.96711 0.75781 0.62706 0.0
C298 C 0.93633 0.71366 0.63575 0.0
C299 C 0.94983 0.7254 0.60128 0.0
C300 C 0.95275 0.73971 0.64125 0.0
C301 C 0.96596 0.75126 0.60737 0.0
C302 C 0.86162 0.61072 0.59701 0.0
C303 C 0.84898 0.62483 0.59276 0.0
C304 C 0.84698 0.58354 0.59881 0.0
C305 C 0.82187 0.61146 0.59036 0.0
C306 C 0.81989 0.57091 0.59636 0.0
N307 N 0.80801 0.58501 0.5922 0.0
C308 C 0.88365 0.64647 0.54967 0.0
C309 C 0.89661 0.68862 0.56257 0.0
C310 C 0.86909 0.64968 0.53455 0.0
N311 N 0.89665 0.66566 0.56346 0.0
C312 C 0.88277 0.69285 0.54749 0.0
C313 C 0.86835 0.67302 0.53351 0.0
H314 H 0.88367 0.62823 0.55097 0.0
H315 H 0.90634 0.7032 0.57407 0.0
C316 C 0.8981 0.64894 0.66412 0.0
N317 N 0.88448 0.64171 0.6466 0.0
C318 C 0.88542 0.64688 0.68225 0.0
C319 C 0.84478 0.63003 0.66409 0.0
C320 C 0.85827 0.63233 0.6463 0.0
C321 C 0.8584 0.63746 0.68239 0.0
H322 H 0.91898 0.65656 0.66399 0.0
H323 H 0.84773 0.62688 0.63234 0.0
O324 O 0.94236 0.65423 0.58165 0.0
O325 O 0.93511 0.64084 0.62769 0.0
O326 O 0.91942 0.68091 0.61003 0.0
O327 O 0.88824 0.62332 0.59885 0.0
H328 H 0.98008 0.64611 0.59446 0.0
H329 H 0.95951 0.68619 0.55054 0.0
H330 H 0.02426 0.66573 0.57921 0.0
H331 H 0.00409 0.70513 0.53604 0.0
H332 H 0.8769 0.56202 0.65467 0.0
H333 H 0.96577 0.63889 0.65562 0.0
H334 H 0.88854 0.59763 0.63015 0.0
H335 H 0.95272 0.6025 0.67981 0.0
H336 H 0.03655 0.75161 0.60191 0.0
H337 H 0.01287 0.71682 0.66079 0.0
H338 H 0.88931 0.53743 0.56987 0.0
H339 H 0.95451 0.56285 0.61074 0.0
H340 H 0.92495 0.69931 0.64704 0.0
H341 H 0.94947 0.72009 0.5857 0.0
H342 H 0.95409 0.74553 0.65679 0.0
H343 H 0.97776 0.76607 0.59646 0.0
H344 H 0.8599 0.6459 0.59167 0.0
H345 H 0.85642 0.5723 0.60207 0.0
H346 H 0.81184 0.62214 0.58711 0.0
H347 H 0.80832 0.54989 0.59773 0.0
H348 H 0.85808 0.63392 0.52405 0.0
H349 H 0.88224 0.71091 0.54738 0.0
H350 H 0.89668 0.65256 0.69601 0.0
H351 H 0.824 0.62302 0.66345 0.0
Li352 Li 0.29885 0.92603 0.76994 0.0
Li353 Li 0.2773 0.95204 0.77507 0.0
Li354 Li 0.26134 0.90898 0.79331 0.0
Li355 Li 0.25326 0.91057 0.75747 0.0
C356 C 0.31679 0.95298 0.80747 0.0
N357 N 0.3601 0.97559 0.83226 0.0
C358 C 0.33379 0.97999 0.80709 0.0
C359 C 0.32159 0.93755 0.82075 0.0
C360 C 0.35564 0.99103 0.81965 0.0
C361 C 0.34365 0.94932 0.83308 0.0
C362 C 0.2971 0.9631 0.73678 0.0
C363 C 0.29207 0.99323 0.7154 0.0
N364 N 0.31828 0.00645 0.71206 0.0
C365 C 0.32396 0.97686 0.73301 0.0
C366 C 0.28097 0.9712 0.72778 0.0
C367 C 0.33431 0.99876 0.72051 0.0
C368 C 0.33099 0.90633 0.75628 0.0
N369 N 0.3313 0.92729 0.76498 0.0
C370 C 0.37772 0.94888 0.76856 0.0
C371 C 0.35411 0.94862 0.77062 0.0
C372 C 0.3779 0.92714 0.76028 0.0
C373 C 0.3542 0.90582 0.75378 0.0
H374 H 0.31265 0.88978 0.75158 0.0
H375 H 0.35404 0.96547 0.77671 0.0
C376 C 0.26504 0.98782 0.7914 0.0
N377 N 0.28253 0.98634 0.77903 0.0
C378 C 0.26873 0.01205 0.79739 0.0
C379 C 0.30802 0.03296 0.77733 0.0
C380 C 0.30364 0.00827 0.77181 0.0
C381 C 0.2907 0.03509 0.79061 0.0
H382 H 0.24873 0.97011 0.79728 0.0
H383 H 0.31774 0.00674 0.76252 0.0
C384 C 0.26687 0.86827 0.7781 0.0
N385 N 0.26558 0.82385 0.79268 0.0
C386 C 0.24701 0.84354 0.77216 0.0
C387 C 0.28625 0.87037 0.79124 0.0
C388 C 0.24663 0.82133 0.77976 0.0
C389 C 0.28523 0.84771 0.79849 0.0
C390 C 0.2165 0.9179 0.77527 0.0
C391 C 0.19479 0.89591 0.78328 0.0
C392 C 0.21289 0.93418 0.76207 0.0
C393 C 0.16975 0.89027 0.7776 0.0
C394 C 0.18754 0.92789 0.75676 0.0
N395 N 0.16668 0.90623 0.76454 0.0
C396 C 0.25504 0.9037 0.83532 0.0
C397 C 0.2277 0.86512 0.81698 0.0
C398 C 0.24429 0.89088 0.85341 0.0
N399 N 0.24677 0.89064 0.81762 0.0
C400 C 0.21639 0.85154 0.8347 0.0
C401 C 0.22465 0.86444 0.85325 0.0
H402 H 0.26975 0.92418 0.83536 0.0
H403 H 0.22101 0.85539 0.80268 0.0
C404 C 0.23019 0.89938 0.71809 0.0
N405 N 0.22787 0.89128 0.73747 0.0
C406 C 0.21071 0.88434 0.70411 0.0
C407 C 0.18709 0.85301 0.73033 0.0
C408 C 0.20695 0.86857 0.74372 0.0
C409 C 0.18882 0.86075 0.71019 0.0
H410 H 0.24718 0.91739 0.71346 0.0
H411 H 0.20565 0.86261 0.75921 0.0
O412 O 0.29526 0.94187 0.79526 0.0
O413 O 0.28664 0.94158 0.74893 0.0
O414 O 0.26734 0.89024 0.77102 0.0
O415 O 0.24117 0.92353 0.78043 0.0
H416 H 0.33035 0.99229 0.79703 0.0
H417 H 0.30831 0.91675 0.82174 0.0
H418 H 0.36906 0.01188 0.81936 0.0
H419 H 0.34763 0.93757 0.84337 0.0
H420 H 0.27983 0.99978 0.70841 0.0
H421 H 0.33669 0.97073 0.7397 0.0
H422 H 0.26013 0.96062 0.73034 0.0
H423 H 0.35507 0.00966 0.71753 0.0
H424 H 0.39567 0.96595 0.77331 0.0
H425 H 0.35354 0.8887 0.74729 0.0
H426 H 0.25513 0.01264 0.80797 0.0
H427 H 0.32515 0.05016 0.77165 0.0
H428 H 0.23199 0.84149 0.76183 0.0
H429 H 0.30206 0.8893 0.79561 0.0
H430 H 0.23129 0.80208 0.77537 0.0
H431 H 0.30011 0.84909 0.8087 0.0
H432 H 0.19726 0.8832 0.79363 0.0
H433 H 0.22948 0.95152 0.75603 0.0
H434 H 0.15276 0.8732 0.78355 0.0
H435 H 0.18446 0.94026 0.74647 0.0
H436 H 0.25087 0.90171 0.86733 0.0
H437 H 0.20137 0.83116 0.83388 0.0
H438 H 0.21293 0.89091 0.68868 0.0
H439 H 0.17039 0.83524 0.73578 0.0
Li440 Li 0.37544 0.29945 0.93565 0.0
Li441 Li 0.33011 0.27856 0.94415 0.0
Li442 Li 0.35522 0.262 0.95919 0.0
Li443 Li 0.34223 0.25397 0.92254 0.0
C444 C 0.37977 0.31225 0.97569 0.0
N445 N 0.41988 0.34223 0.00203 0.0
C446 C 0.37844 0.33088 0.98779 0.0
C447 C 0.4015 0.3089 0.977 0.0
C448 C 0.39892 0.34584 0.00101 0.0
C449 C 0.42157 0.32422 0.9904 0.0
C450 C 0.33436 0.30098 0.90772 0.0
C451 C 0.3061 0.30278 0.88247 0.0
N452 N 0.3113 0.32645 0.88967 0.0
C453 C 0.33961 0.3254 0.91479 0.0
C454 C 0.31761 0.2896 0.89138 0.0
C455 C 0.32767 0.33792 0.90549 0.0
C456 C 0.42524 0.33124 0.91781 0.0
N457 N 0.40647 0.33124 0.92959 0.0
C458 C 0.43285 0.37719 0.93511 0.0
C459 C 0.40967 0.35363 0.93793 0.0
C460 C 0.4529 0.37782 0.92335 0.0
C461 C 0.44874 0.35445 0.91447 0.0
H462 H 0.42204 0.31317 0.91118 0.0
H463 H 0.39434 0.35314 0.9471 0.0
C464 C 0.30242 0.29124 0.97075 0.0
N465 N 0.30233 0.28502 0.9511 0.0
C466 C 0.28234 0.29444 0.97853 0.0
C467 C 0.26241 0.28525 0.94564 0.0
C468 C 0.28281 0.28191 0.93852 0.0
C469 C 0.26193 0.29129 0.96596 0.0
H470 H 0.31778 0.29301 0.98055 0.0
H471 H 0.28255 0.27602 0.92315 0.0
C472 C 0.39268 0.25541 0.9347 0.0
N473 N 0.42325 0.23217 0.93308 0.0
C474 C 0.3815 0.22896 0.92979 0.0
C475 C 0.41949 0.2701 0.93857 0.0
C476 C 0.39725 0.21755 0.92912 0.0
C477 C 0.43459 0.25798 0.93774 0.0
C478 C 0.29514 0.23075 0.95304 0.0
C479 C 0.28919 0.22826 0.9735 0.0
C480 C 0.27516 0.22326 0.93891 0.0
C481 C 0.26331 0.21852 0.97951 0.0
C482 C 0.24951 0.21355 0.94552 0.0
N483 N 0.24417 0.21144 0.96552 0.0
C484 C 0.35693 0.25574 0.00102 0.0
C485 C 0.36375 0.22586 0.98196 0.0
C486 C 0.35889 0.24453 0.01888 0.0
N487 N 0.35969 0.24652 0.98302 0.0
C488 C 0.36572 0.21395 0.99947 0.0
C489 C 0.36321 0.22324 0.01827 0.0
H490 H 0.35274 0.27154 0.00155 0.0
H491 H 0.3648 0.21812 0.96758 0.0
C492 C 0.34881 0.23596 0.88458 0.0
N493 N 0.33372 0.2296 0.90134 0.0
C494 C 0.3441 0.21687 0.87016 0.0
C495 C 0.308 0.18543 0.89032 0.0
C496 C 0.31351 0.205 0.90435 0.0
C497 C 0.3237 0.19107 0.87314 0.0
H498 H 0.36503 0.25563 0.88277 0.0
H499 H 0.30217 0.20033 0.918 0.0
O500 O 0.35998 0.29777 0.96247 0.0
O501 O 0.34584 0.28841 0.91656 0.0
O502 O 0.37767 0.26709 0.93499 0.0
O503 O 0.32048 0.24094 0.94688 0.0
H504 H 0.36183 0.33386 0.98689 0.0
H505 H 0.40277 0.29451 0.96788 0.0
H506 H 0.39817 0.36035 0.01044 0.0
H507 H 0.43847 0.32177 0.99157 0.0
H508 H 0.293 0.29418 0.86986 0.0
H509 H 0.3525 0.3344 0.92745 0.0
H510 H 0.31347 0.27073 0.88572 0.0
H511 H 0.33139 0.35674 0.91088 0.0
H512 H 0.43524 0.39459 0.94246 0.0
H513 H 0.46345 0.35408 0.90501 0.0
H514 H 0.28274 0.29926 0.99426 0.0
H515 H 0.24681 0.28237 0.93557 0.0
H516 H 0.3608 0.2172 0.92689 0.0
H517 H 0.42864 0.29068 0.94211 0.0
H518 H 0.38879 0.19706 0.92548 0.0
H519 H 0.45533 0.26911 0.94075 0.0
H520 H 0.30443 0.23407 0.98463 0.0
H521 H 0.27948 0.22542 0.923 0.0
H522 H 0.25844 0.21666 0.9953 0.0
H523 H 0.23388 0.20787 0.93476 0.0
H524 H 0.35693 0.25243 0.03302 0.0
H525 H 0.36844 0.19719 0.99825 0.0
H526 H 0.35687 0.22203 0.85726 0.0
H527 H 0.29186 0.16593 0.89312 0.0
Li528 Li 0.67233 0.95228 0.72145 0.0
Li529 Li 0.62467 0.92606 0.73042 0.0
Li530 Li 0.6574 0.91256 0.74182 0.0
Li531 Li 0.64497 0.91024 0.70732 0.0
C532 C 0.6598 0.96491 0.76077 0.0
N533 N 0.66734 0.00592 0.78515 0.0
C534 C 0.64807 0.97971 0.75599 0.0
C535 C 0.67523 0.97085 0.77801 0.0
C536 C 0.65215 0.00039 0.7685 0.0
C537 C 0.67887 0.99171 0.79011 0.0
C538 C 0.6333 0.93859 0.68492 0.0
C539 C 0.59968 0.91729 0.65986 0.0
N540 N 0.6176 0.93036 0.64524 0.0
C541 C 0.65136 0.95192 0.66965 0.0
C542 C 0.60722 0.9212 0.68002 0.0
C543 C 0.64305 0.94745 0.64968 0.0
C544 C 0.71586 0.98672 0.69952 0.0
N545 N 0.70098 0.98624 0.71525 0.0
C546 C 0.72597 0.03282 0.71798 0.0
C547 C 0.70585 0.00864 0.72468 0.0
C548 C 0.74118 0.03391 0.7014 0.0
C549 C 0.73618 0.01037 0.69239 0.0
H550 H 0.71155 0.96866 0.69221 0.0
H551 H 0.69388 0.008 0.73709 0.0
C552 C 0.57962 0.91435 0.75342 0.0
N553 N 0.59398 0.92707 0.73699 0.0
C554 C 0.55656 0.91455 0.75771 0.0
C555 C 0.56372 0.94099 0.72812 0.0
C556 C 0.58666 0.94044 0.72452 0.0
C557 C 0.54824 0.92789 0.74489 0.0
H558 H 0.58602 0.90394 0.76311 0.0
H559 H 0.59858 0.95056 0.71165 0.0
C560 C 0.70565 0.93226 0.7241 0.0
N561 N 0.7562 0.94917 0.73663 0.0
C562 C 0.72142 0.92502 0.71348 0.0
C563 C 0.71559 0.94811 0.7411 0.0
C564 C 0.74692 0.93376 0.72005 0.0
C565 C 0.74119 0.95646 0.74718 0.0
C566 C 0.60638 0.86546 0.72693 0.0
C567 C 0.61746 0.84963 0.72414 0.0
C568 C 0.57925 0.85446 0.72614 0.0
C569 C 0.60116 0.82297 0.7205 0.0
C570 C 0.56362 0.8277 0.72249 0.0
N571 N 0.57481 0.81265 0.71976 0.0
C572 C 0.65953 0.89612 0.78187 0.0
C573 C 0.67659 0.88116 0.75618 0.0
C574 C 0.66429 0.88171 0.79625 0.0
N575 N 0.66553 0.89536 0.76227 0.0
C576 C 0.68159 0.86649 0.76996 0.0
C577 C 0.6751 0.86632 0.79025 0.0
H578 H 0.65059 0.90748 0.78625 0.0
H579 H 0.68112 0.88084 0.74051 0.0
C580 C 0.66135 0.89922 0.67134 0.0
N581 N 0.63976 0.89086 0.68304 0.0
C582 C 0.65987 0.88678 0.6532 0.0
C583 C 0.61403 0.85706 0.65953 0.0
C584 C 0.61624 0.87048 0.67733 0.0
C585 C 0.63606 0.86528 0.6473 0.0
H586 H 0.67969 0.91574 0.67608 0.0
H587 H 0.5991 0.86475 0.68641 0.0
O588 O 0.65565 0.94423 0.749 0.0
O589 O 0.6412 0.9421 0.70453 0.0
O590 O 0.68061 0.9237 0.7178 0.0
O591 O 0.6219 0.89161 0.73042 0.0
H592 H 0.63634 0.97559 0.7426 0.0
H593 H 0.68427 0.95944 0.78201 0.0
H594 H 0.64331 0.0121 0.76493 0.0
H595 H 0.6908 0.99658 0.80347 0.0
H596 H 0.57961 0.90374 0.65584 0.0
H597 H 0.6716 0.96542 0.67317 0.0
H598 H 0.59306 0.91043 0.69163 0.0
H599 H 0.65684 0.95752 0.6377 0.0
H600 H 0.72898 0.05049 0.72528 0.0
H601 H 0.74767 0.01021 0.67979 0.0
H602 H 0.54546 0.90448 0.77095 0.0
H603 H 0.55796 0.95118 0.71763 0.0
H604 H 0.714 0.91272 0.70031 0.0
H605 H 0.70375 0.95396 0.74949 0.0
H606 H 0.75934 0.92828 0.71198 0.0
H607 H 0.74912 0.96874 0.7603 0.0
H608 H 0.63842 0.85792 0.72442 0.0
H609 H 0.5704 0.86649 0.72823 0.0
H610 H 0.60947 0.8105 0.7182 0.0
H611 H 0.5426 0.81892 0.72179 0.0
H612 H 0.6589 0.882 0.81175 0.0
H613 H 0.69034 0.85525 0.76474 0.0
H614 H 0.67722 0.89358 0.64402 0.0
H615 H 0.59529 0.8407 0.6552 0.0
Li616 Li 0.72143 0.67341 0.88826 0.0
Li617 Li 0.70041 0.62646 0.89661 0.0
Li618 Li 0.7447 0.65729 0.90759 0.0
Li619 Li 0.73634 0.64639 0.87293 0.0
C620 C 0.69033 0.65652 0.92316 0.0
N621 N 0.64647 0.65574 0.93842 0.0
C622 C 0.66984 0.65243 0.91039 0.0
C623 C 0.68848 0.66019 0.94368 0.0
C624 C 0.64784 0.65211 0.91839 0.0
C625 C 0.66616 0.65975 0.95111 0.0
C626 C 0.69298 0.63067 0.85247 0.0
C627 C 0.67868 0.59242 0.83176 0.0
N628 N 0.67789 0.6061 0.81563 0.0
C629 C 0.69194 0.64433 0.83571 0.0
C630 C 0.68626 0.60449 0.85052 0.0
C631 C 0.68429 0.63156 0.8172 0.0
C632 C 0.72391 0.71155 0.8634 0.0
N633 N 0.71712 0.7026 0.88247 0.0
C634 C 0.70574 0.73535 0.88952 0.0
C635 C 0.7087 0.71435 0.8957 0.0
C636 C 0.71198 0.74454 0.86969 0.0
C637 C 0.7214 0.73248 0.85663 0.0
H638 H 0.73123 0.70226 0.8534 0.0
H639 H 0.70427 0.70751 0.91101 0.0
C640 C 0.66739 0.57896 0.91695 0.0
N641 N 0.66831 0.59567 0.90253 0.0
C642 C 0.64431 0.55532 0.92027 0.0
C643 C 0.62357 0.56687 0.8941 0.0
C644 C 0.64693 0.5903 0.8914 0.0
C645 C 0.62216 0.54888 0.9085 0.0
H646 H 0.68471 0.5838 0.92561 0.0
H647 H 0.64812 0.60401 0.88013 0.0
C648 C 0.77432 0.70644 0.89074 0.0
N649 N 0.80771 0.75694 0.9035 0.0
C650 C 0.7965 0.72292 0.8795 0.0
C651 C 0.7691 0.71565 0.90848 0.0
C652 C 0.81316 0.74839 0.8862 0.0
C653 C 0.78622 0.74124 0.91467 0.0
C654 C 0.74952 0.61445 0.89747 0.0
C655 C 0.77429 0.6289 0.88883 0.0
C656 C 0.74341 0.59213 0.90868 0.0
C657 C 0.79258 0.62078 0.89157 0.0
C658 C 0.76223 0.58463 0.91107 0.0
N659 N 0.78622 0.599 0.90254 0.0
C660 C 0.76329 0.66056 0.9478 0.0
C661 C 0.79534 0.676 0.92216 0.0
C662 C 0.78242 0.66624 0.96242 0.0
N663 N 0.77008 0.66542 0.92811 0.0
C664 C 0.81495 0.68163 0.93614 0.0
C665 C 0.80871 0.67682 0.95664 0.0
H666 H 0.74302 0.65221 0.95212 0.0
H667 H 0.80029 0.67981 0.90644 0.0
C668 C 0.76095 0.66236 0.8358 0.0
N669 N 0.74954 0.64145 0.84831 0.0
C670 C 0.77105 0.66042 0.81738 0.0
C671 C 0.75738 0.61537 0.82505 0.0
C672 C 0.74742 0.61816 0.84331 0.0
C673 C 0.76941 0.63671 0.81184 0.0
H674 H 0.7622 0.68057 0.84018 0.0
H675 H 0.73795 0.60176 0.85349 0.0
O676 O 0.71202 0.65667 0.91582 0.0
O677 O 0.70108 0.64297 0.87063 0.0
O678 O 0.7579 0.68148 0.88426 0.0
O679 O 0.73131 0.62209 0.89514 0.0
H680 H 0.67094 0.64978 0.89445 0.0
H681 H 0.70416 0.66335 0.95377 0.0
H682 H 0.63188 0.64902 0.90868 0.0
H683 H 0.66448 0.66257 0.96697 0.0
H684 H 0.67359 0.57222 0.83001 0.0
H685 H 0.69696 0.66454 0.83693 0.0
H686 H 0.68732 0.59372 0.86327 0.0
H687 H 0.68345 0.64191 0.80409 0.0
H688 H 0.69879 0.74438 0.90013 0.0
H689 H 0.72625 0.73876 0.84118 0.0
H690 H 0.64401 0.5419 0.93149 0.0
H691 H 0.60681 0.56282 0.88494 0.0
H692 H 0.8008 0.71607 0.86573 0.0
H693 H 0.75205 0.70324 0.9174 0.0
H694 H 0.83041 0.76135 0.87765 0.0
H695 H 0.78242 0.74861 0.92835 0.0
H696 H 0.77947 0.64636 0.88026 0.0
H697 H 0.72433 0.58071 0.91547 0.0
H698 H 0.81184 0.63184 0.88502 0.0
H699 H 0.75777 0.56739 0.91972 0.0
H700 H 0.77668 0.66245 0.97804 0.0
H701 H 0.83474 0.68918 0.9308 0.0
H702 H 0.78043 0.67742 0.80773 0.0
H703 H 0.75546 0.59668 0.82123 0.0
Li704 Li 0.09015 0.73685 0.04184 0.0
Li705 Li 0.08637 0.7466 0.0779 0.0
Li706 Li 0.07462 0.70164 0.06559 0.0
Li707 Li 0.04767 0.71977 0.05744 0.0
C708 C 0.13433 0.74673 0.05857 0.0
N709 N 0.18452 0.77283 0.04331 0.0
C710 C 0.15231 0.77164 0.06562 0.0
C711 C 0.14195 0.73501 0.04387 0.0
C712 C 0.17758 0.78453 0.0577 0.0
C713 C 0.16738 0.74855 0.0363 0.0
C714 C 0.06074 0.76789 0.04753 0.0
C715 C 0.03276 0.78557 0.05507 0.0
N716 N 0.02941 0.78756 0.03508 0.0
C717 C 0.05718 0.77024 0.02706 0.0
C718 C 0.04858 0.77572 0.06168 0.0
C719 C 0.04121 0.78019 0.02107 0.0
C720 C 0.10423 0.73796 0.001 0.0
N721 N 0.10948 0.75234 0.01806 0.0
C722 C 0.14184 0.79051 0.00112 0.0
C723 C 0.12772 0.77816 0.01841 0.0
C724 C 0.13688 0.77619 0.98322 0.0
C725 C 0.11782 0.74953 0.98333 0.0
H726 H 0.08919 0.71762 0.00103 0.0
H727 H 0.13119 0.78918 0.03215 0.0
C728 C 0.10886 0.76668 0.11616 0.0
N729 N 0.10298 0.7726 0.09787 0.0
C730 C 0.12337 0.78658 0.12997 0.0
C731 C 0.12515 0.81804 0.10587 0.0
C732 C 0.11053 0.79759 0.09261 0.0
C733 C 0.13208 0.81269 0.12471 0.0
H734 H 0.10279 0.7466 0.1198 0.0
H735 H 0.10581 0.80171 0.07787 0.0
C736 C 0.05024 0.67657 0.03327 0.0
N737 N 0.03152 0.62499 0.02272 0.0
C738 C 0.02397 0.658 0.0364 0.0
C739 C 0.06697 0.6689 0.02473 0.0
C740 C 0.01488 0.63203 0.03094 0.0
C741 C 0.05715 0.64273 0.01954 0.0
C742 C 0.03491 0.70739 0.09704 0.0
C743 C 0.01268 0.68254 0.0977 0.0
C744 C 0.03612 0.72735 0.10908 0.0
C745 C 0.99203 0.67808 0.11039 0.0
C746 C 0.01507 0.7221 0.12158 0.0
N747 N 0.99365 0.69778 0.12198 0.0
C748 C 0.09851 0.67087 0.07157 0.0
C749 C 0.05267 0.64824 0.07636 0.0
C750 C 0.09926 0.64785 0.07443 0.0
N751 N 0.07538 0.67057 0.07224 0.0
C752 C 0.05249 0.62478 0.07931 0.0
C753 C 0.07597 0.62433 0.0781 0.0
H754 H 0.11635 0.6889 0.0685 0.0
H755 H 0.03453 0.64843 0.07669 0.0
C756 C 0.00818 0.70816 0.03036 0.0
N757 N 0.01317 0.71277 0.0503 0.0
C758 C 0.98444 0.70344 0.02237 0.0
C759 C 0.97106 0.70833 0.05556 0.0
C760 C 0.99538 0.71348 0.06286 0.0
C761 C 0.96524 0.70309 0.03502 0.0
H762 H 0.02293 0.70856 0.02053 0.0
H763 H 0.99998 0.71837 0.07846 0.0
O764 O 0.10934 0.73398 0.06589 0.0
O765 O 0.07559 0.75741 0.05369 0.0
O766 O 0.05964 0.70201 0.03884 0.0
O767 O 0.05559 0.71199 0.08507 0.0
H768 H 0.14683 0.78101 0.07703 0.0
H769 H 0.12826 0.71582 0.03812 0.0
H770 H 0.19166 0.80386 0.06297 0.0
H771 H 0.17347 0.7398 0.0248 0.0
H772 H 0.02306 0.79154 0.06584 0.0
H773 H 0.06639 0.76414 0.01594 0.0
H774 H 0.05108 0.77389 0.07758 0.0
H775 H 0.03812 0.78197 0.00528 0.0
H776 H 0.1565 0.81103 0.00177 0.0
H777 H 0.113 0.73787 0.9698 0.0
H778 H 0.12851 0.78169 0.14428 0.0
H779 H 0.13126 0.83788 0.10133 0.0
H780 H 0.01081 0.66345 0.04327 0.0
H781 H 0.0874 0.68293 0.02238 0.0
H782 H 0.99463 0.61743 0.03336 0.0
H783 H 0.06991 0.6365 0.01305 0.0
H784 H 0.0112 0.66694 0.08835 0.0
H785 H 0.05301 0.74673 0.10873 0.0
H786 H 0.97469 0.65897 0.11098 0.0
H787 H 0.01575 0.73738 0.13094 0.0
H788 H 0.11786 0.64845 0.07369 0.0
H789 H 0.03405 0.60706 0.08188 0.0
H790 H 0.98143 0.7005 0.00634 0.0
H791 H 0.957 0.70837 0.06594 0.0
Li792 Li 0.32947 0.0501 0.22342 0.0
Li793 Li 0.37719 0.07566 0.23118 0.0
Li794 Li 0.34606 0.09022 0.24292 0.0
Li795 Li 0.35686 0.09134 0.20832 0.0
C796 C 0.34662 0.03667 0.25918 0.0
N797 N 0.34709 0.99447 0.27659 0.0
C798 C 0.35307 0.02088 0.24773 0.0
C799 C 0.34043 0.03102 0.27948 0.0
C800 C 0.35321 0.99964 0.25681 0.0
C801 C 0.34074 0.00957 0.288 0.0
C802 C 0.36896 0.06238 0.18647 0.0
C803 C 0.40459 0.08203 0.16282 0.0
N804 N 0.38751 0.06967 0.14755 0.0
C805 C 0.35178 0.04978 0.17056 0.0
C806 C 0.39559 0.0786 0.1826 0.0
C807 C 0.36153 0.05377 0.15098 0.0
C808 C 0.28737 0.01619 0.20054 0.0
N809 N 0.2997 0.01666 0.21788 0.0
C810 C 0.26999 0.97109 0.22303 0.0
C811 C 0.29103 0.99488 0.22944 0.0
C812 C 0.25749 0.96994 0.20481 0.0
C813 C 0.26615 0.99299 0.1937 0.0
H814 H 0.29434 0.03391 0.19185 0.0
H815 H 0.3004 0.99574 0.24352 0.0
C816 C 0.4237 0.08941 0.25252 0.0
N817 N 0.40787 0.07432 0.23744 0.0
C818 C 0.4471 0.08978 0.25654 0.0
C819 C 0.43711 0.05871 0.22966 0.0
C820 C 0.41393 0.05888 0.22623 0.0
C821 C 0.45419 0.07445 0.24489 0.0
H822 H 0.41831 0.10144 0.26122 0.0
H823 H 0.40095 0.04699 0.21435 0.0
C824 C 0.29727 0.07088 0.22697 0.0
N825 N 0.24772 0.05492 0.24149 0.0
C826 C 0.28099 0.07806 0.21703 0.0
C827 C 0.28833 0.0556 0.24435 0.0
C828 C 0.25601 0.0698 0.22459 0.0
C829 C 0.26322 0.04773 0.25143 0.0
C830 C 0.39775 0.13555 0.22464 0.0
C831 C 0.38858 0.15296 0.22156 0.0
C832 C 0.42415 0.14385 0.22152 0.0
C833 C 0.40599 0.1784 0.2152 0.0
C834 C 0.44095 0.16946 0.21519 0.0
N835 N 0.43159 0.18605 0.21217 0.0
C836 C 0.34267 0.10577 0.28306 0.0
C837 C 0.33005 0.12427 0.25682 0.0
C838 C 0.33789 0.12022 0.29738 0.0
N839 N 0.33884 0.10822 0.26323 0.0
C840 C 0.32522 0.13914 0.27053 0.0
C841 C 0.32937 0.13743 0.29108 0.0
H842 H 0.3497 0.09285 0.28771 0.0
H843 H 0.32693 0.12563 0.24099 0.0
C844 C 0.33886 0.1037 0.17369 0.0
N845 N 0.36131 0.10978 0.18359 0.0
C846 C 0.33971 0.11551 0.15537 0.0
C847 C 0.38682 0.13954 0.15757 0.0
C848 C 0.38506 0.12711 0.17579 0.0
C849 C 0.36393 0.13379 0.14714 0.0
H850 H 0.32026 0.08946 0.17999 0.0
H851 H 0.40272 0.13103 0.18348 0.0
O852 O 0.34686 0.0579 0.25078 0.0
O853 O 0.35973 0.05916 0.20571 0.0
O854 O 0.32182 0.07898 0.21967 0.0
O855 O 0.38108 0.11058 0.23089 0.0
H856 H 0.35756 0.02472 0.23195 0.0
H857 H 0.33544 0.04309 0.28856 0.0
H858 H 0.35809 0.98723 0.24811 0.0
H859 H 0.33597 0.00496 0.3037 0.0
H860 H 0.42512 0.09467 0.1596 0.0
H861 H 0.33115 0.03711 0.17325 0.0
H862 H 0.40911 0.0889 0.19467 0.0
H863 H 0.34844 0.04422 0.13852 0.0
H864 H 0.26361 0.95378 0.23216 0.0
H865 H 0.25715 0.99293 0.17951 0.0
H866 H 0.45948 0.10193 0.26861 0.0
H867 H 0.44189 0.04684 0.22012 0.0
H868 H 0.28762 0.08998 0.20362 0.0
H869 H 0.30054 0.04984 0.25234 0.0
H870 H 0.24323 0.07523 0.21704 0.0
H871 H 0.25607 0.0359 0.26484 0.0
H872 H 0.3682 0.1468 0.22377 0.0
H873 H 0.43155 0.1306 0.2238 0.0
H874 H 0.39914 0.19204 0.21262 0.0
H875 H 0.46141 0.17613 0.21264 0.0
H876 H 0.34136 0.11843 0.31311 0.0
H877 H 0.31823 0.15182 0.26509 0.0
H878 H 0.32158 0.11061 0.14783 0.0
H879 H 0.40589 0.15318 0.15154 0.0
Li880 Li 0.29816 0.37256 0.39771 0.0
Li881 Li 0.27758 0.32679 0.3893 0.0
Li882 Li 0.26271 0.35425 0.37392 0.0
Li883 Li 0.25413 0.34259 0.40879 0.0
C884 C 0.31172 0.37518 0.35702 0.0
N885 N 0.34106 0.41208 0.32834 0.0
C886 C 0.32422 0.36919 0.34187 0.0
C887 C 0.31413 0.39993 0.35758 0.0
C888 C 0.33897 0.38811 0.32751 0.0
C889 C 0.32905 0.41832 0.34295 0.0
C890 C 0.30815 0.34252 0.42421 0.0
C891 C 0.33326 0.34134 0.45232 0.0
N892 N 0.35169 0.34262 0.43941 0.0
C893 C 0.32733 0.34381 0.41123 0.0
C894 C 0.3111 0.34126 0.44492 0.0
C895 C 0.3492 0.34384 0.41921 0.0
C896 C 0.33024 0.42224 0.4151 0.0
N897 N 0.3305 0.40315 0.40392 0.0
C898 C 0.37659 0.42935 0.39904 0.0
C899 C 0.35307 0.40618 0.39606 0.0
C900 C 0.37691 0.44976 0.41008 0.0
C901 C 0.35334 0.44585 0.41838 0.0
H902 H 0.31198 0.41933 0.4211 0.0
H903 H 0.35278 0.39083 0.38705 0.0
C904 C 0.28087 0.293 0.36294 0.0
N905 N 0.28222 0.29803 0.38292 0.0
C906 C 0.28402 0.2726 0.35582 0.0
C907 C 0.28986 0.26274 0.39002 0.0
C908 C 0.28631 0.28327 0.39653 0.0
C909 C 0.28869 0.25722 0.3694 0.0
H910 H 0.27743 0.305 0.35253 0.0
H911 H 0.2869 0.28745 0.41238 0.0
C912 C 0.24841 0.38447 0.39718 0.0
N913 N 0.20967 0.39765 0.3983 0.0
C914 C 0.2237 0.36752 0.38923 0.0
C915 C 0.25342 0.40817 0.40565 0.0
C916 C 0.20438 0.37452 0.38994 0.0
C917 C 0.23358 0.41447 0.40609 0.0
C918 C 0.22455 0.29367 0.39121 0.0
C919 C 0.20279 0.27737 0.37949 0.0
C920 C 0.22921 0.28411 0.409 0.0
C921 C 0.18603 0.25172 0.38577 0.0
C922 C 0.212 0.25835 0.41476 0.0
N923 N 0.19094 0.24283 0.40312 0.0
C924 C 0.23612 0.33829 0.33757 0.0
C925 C 0.25287 0.38331 0.34416 0.0
C926 C 0.22532 0.34027 0.3195 0.0
N927 N 0.24945 0.35959 0.34947 0.0
C928 C 0.24256 0.38624 0.32612 0.0
C929 C 0.22847 0.3645 0.31353 0.0
H930 H 0.23374 0.31969 0.34221 0.0
H931 H 0.26353 0.39995 0.35394 0.0
C932 C 0.23649 0.34169 0.44882 0.0
N933 N 0.22891 0.3345 0.4295 0.0
C934 C 0.21782 0.33662 0.46372 0.0
C935 C 0.18409 0.31682 0.43847 0.0
C936 C 0.20328 0.32212 0.42418 0.0
C937 C 0.19118 0.32412 0.45857 0.0
H938 H 0.25703 0.35156 0.45262 0.0
H939 H 0.19768 0.31669 0.40873 0.0
O940 O 0.29725 0.35678 0.37117 0.0
O941 O 0.28656 0.34257 0.41687 0.0
O942 O 0.26771 0.37809 0.39674 0.0
O943 O 0.2411 0.31881 0.38516 0.0
H944 H 0.32255 0.35011 0.34125 0.0
H945 H 0.30464 0.40496 0.36921 0.0
H946 H 0.34876 0.38375 0.31569 0.0
H947 H 0.33109 0.43755 0.34322 0.0
H948 H 0.3358 0.34038 0.46831 0.0
H949 H 0.32536 0.34467 0.39517 0.0
H950 H 0.29641 0.34025 0.45517 0.0
H951 H 0.36419 0.34482 0.40932 0.0
H952 H 0.39432 0.4313 0.39263 0.0
H953 H 0.3526 0.46112 0.42682 0.0
H954 H 0.28331 0.2692 0.3398 0.0
H955 H 0.29325 0.25119 0.40094 0.0
H956 H 0.2194 0.34912 0.38258 0.0
H957 H 0.27244 0.42157 0.41183 0.0
H958 H 0.18517 0.36155 0.38387 0.0
H959 H 0.23719 0.43274 0.41262 0.0
H960 H 0.19888 0.28448 0.3657 0.0
H961 H 0.24588 0.29639 0.41832 0.0
H962 H 0.1691 0.2389 0.37685 0.0
H963 H 0.21537 0.25071 0.42848 0.0
H964 H 0.21426 0.32288 0.31048 0.0
H965 H 0.24575 0.40535 0.32203 0.0
H966 H 0.22418 0.34243 0.47904 0.0
H967 H 0.16391 0.30769 0.43366 0.0
Li968 Li 0.95196 0.28183 0.55715 0.0
Li969 Li 0.9252 0.29983 0.56542 0.0
Li970 Li 0.91576 0.25773 0.57934 0.0
Li971 Li 0.90887 0.26225 0.54329 0.0
C972 C 0.96802 0.31558 0.59038 0.0
N973 N 0.01034 0.36235 0.6025 0.0
C974 C 0.98336 0.33449 0.57617 0.0
C975 C 0.97421 0.32044 0.61074 0.0
C976 C 0.00467 0.35801 0.5826 0.0
C977 C 0.99569 0.34421 0.61658 0.0
C978 C 0.93075 0.30955 0.52435 0.0
C979 C 0.89894 0.3196 0.51081 0.0
N980 N 0.91583 0.33342 0.49579 0.0
C981 C 0.94776 0.32381 0.50877 0.0
C982 C 0.9061 0.30737 0.52539 0.0
C983 C 0.93987 0.33576 0.49448 0.0
C984 C 0.98956 0.28868 0.52956 0.0
N985 N 0.98623 0.28955 0.54964 0.0
C986 C 0.03037 0.30032 0.55575 0.0
C987 C 0.00591 0.29505 0.56281 0.0
C988 C 0.03444 0.29974 0.53499 0.0
C989 C 0.0135 0.29358 0.52189 0.0
H990 H 0.9734 0.28387 0.5195 0.0
H991 H 0.00263 0.29531 0.57875 0.0
C992 C 0.90698 0.33113 0.5837 0.0
N993 N 0.92452 0.33127 0.57043 0.0
C994 C 0.90532 0.35369 0.58666 0.0
C995 C 0.93997 0.37604 0.56241 0.0
C996 C 0.9411 0.35321 0.56005 0.0
C997 C 0.92176 0.37641 0.57571 0.0
H998 H 0.89406 0.3134 0.59176 0.0
H999 H 0.95503 0.35295 0.5497 0.0
C1000 C 0.94164 0.23366 0.55534 0.0
N1001 N 0.97599 0.21482 0.55402 0.0
C1002 C 0.94457 0.22264 0.53767 0.0
C1003 C 0.95602 0.23492 0.57239 0.0
C1004 C 0.96209 0.21328 0.5373 0.0
C1005 C 0.97332 0.22532 0.57141 0.0
C1006 C 0.86584 0.24729 0.56951 0.0
C1007 C 0.85952 0.22157 0.56545 0.0
C1008 C 0.84659 0.25232 0.57669 0.0
C1009 C 0.83398 0.2013 0.56863 0.0
C1010 C 0.82125 0.23151 0.57965 0.0
N1011 N 0.81553 0.20664 0.5756 0.0
C1012 C 0.89216 0.24124 0.61766 0.0
C1013 C 0.89679 0.20956 0.59911 0.0
C1014 C 0.87802 0.22283 0.63255 0.0
N1015 N 0.90098 0.23423 0.60129 0.0
C1016 C 0.88299 0.19066 0.61366 0.0
C1017 C 0.87306 0.19707 0.63051 0.0
H1018 H 0.89534 0.26089 0.61877 0.0
H1019 H 0.90316 0.2042 0.58565 0.0
C1020 C 0.90262 0.24335 0.50442 0.0
N1021 N 0.8891 0.24645 0.51962 0.0
C1022 C 0.89034 0.23235 0.48623 0.0
C1023 C 0.85051 0.22857 0.49944 0.0
C1024 C 0.86364 0.2398 0.51735 0.0
C1025 C 0.86384 0.22456 0.48361 0.0
H1026 H 0.92312 0.24979 0.50637 0.0
H1027 H 0.8535 0.24336 0.52931 0.0
O1028 O 0.94698 0.29237 0.58456 0.0
O1029 O 0.93832 0.29772 0.53836 0.0
O1030 O 0.92517 0.24366 0.5559 0.0
O1031 O 0.89086 0.26746 0.56701 0.0
H1032 H 0.97898 0.33106 0.56034 0.0
H1033 H 0.96251 0.30598 0.62192 0.0
H1034 H 0.01671 0.37281 0.57176 0.0
H1035 H 0.0007 0.34823 0.63229 0.0
H1036 H 0.87995 0.31809 0.51143 0.0
H1037 H 0.96689 0.32564 0.50775 0.0
H1038 H 0.89263 0.29643 0.5373 0.0
H1039 H 0.95286 0.34688 0.48235 0.0
H1040 H 0.04596 0.30507 0.5664 0.0
H1041 H 0.01545 0.29224 0.50583 0.0
H1042 H 0.89096 0.35319 0.59702 0.0
H1043 H 0.95326 0.39328 0.55393 0.0
H1044 H 0.9335 0.22135 0.52439 0.0
H1045 H 0.95414 0.2436 0.58614 0.0
H1046 H 0.96464 0.20479 0.5237 0.0
H1047 H 0.98471 0.22634 0.58444 0.0
H1048 H 0.87413 0.21726 0.55987 0.0
H1049 H 0.85119 0.27211 0.57997 0.0
H1050 H 0.82883 0.18131 0.56556 0.0
H1051 H 0.80615 0.23512 0.58519 0.0
H1052 H 0.87066 0.22853 0.64532 0.0
H1053 H 0.87908 0.17091 0.61124 0.0
H1054 H 0.9016 0.23031 0.47427 0.0
H1055 H 0.83009 0.22287 0.4981 0.0
C1056 C 0.0608 0.58111 0.09488 0.0
C1057 C 0.07604 0.59934 0.08013 0.0
C1058 C 0.0603 0.55721 0.09667 0.0
C1059 C 0.07539 0.55141 0.08338 0.0
C1060 C 0.09086 0.56974 0.06849 0.0
C1061 C 0.091 0.59349 0.06704 0.0
C1062 C 0.04365 0.53818 0.1128 0.0
C1063 C 0.10716 0.56421 0.05401 0.0
C1064 C 0.09315 0.5005 0.09904 0.0
C1065 C 0.0748 0.47842 0.08838 0.0
C1066 C 0.09354 0.52436 0.09757 0.0
C1067 C 0.07513 0.5262 0.08512 0.0
C1068 C 0.05653 0.504 0.07432 0.0
C1069 C 0.05656 0.48035 0.07611 0.0
C1070 C 0.11359 0.54757 0.1094 0.0
C1071 C 0.03667 0.50527 0.06083 0.0
H1072 H 0.04942 0.58564 0.10517 0.0
H1073 H 0.1025 0.60732 0.05542 0.0
H1074 H 0.0292 0.51932 0.1059 0.0
H1075 H 0.05607 0.53412 0.12297 0.0
H1076 H 0.033 0.54562 0.12189 0.0
H1077 H 0.11814 0.58054 0.04332 0.0
H1078 H 0.1213 0.56067 0.06241 0.0
H1079 H 0.09443 0.54622 0.04532 0.0
H1080 H 0.10704 0.49901 0.10879 0.0
H1081 H 0.0425 0.46343 0.06768 0.0
H1082 H 0.10366 0.55458 0.1197 0.0
H1083 H 0.12586 0.56389 0.09907 0.0
H1084 H 0.12654 0.54288 0.11839 0.0
H1085 H 0.02462 0.51129 0.06963 0.0
H1086 H 0.02349 0.48624 0.0535 0.0
H1087 H 0.04677 0.52022 0.049 0.0
C1088 C 0.58548 0.07417 0.27494 0.0
C1089 C 0.60109 0.07819 0.25797 0.0
C1090 C 0.56182 0.07418 0.27348 0.0
C1091 C 0.55347 0.07812 0.25455 0.0
C1092 C 0.56926 0.08243 0.23738 0.0
C1093 C 0.59296 0.08252 0.23931 0.0
C1094 C 0.54567 0.06981 0.29216 0.0
C1095 C 0.5609 0.0865 0.21691 0.0
C1096 C 0.48101 0.05239 0.24672 0.0
C1097 C 0.47949 0.07528 0.24818 0.0
C1098 C 0.50495 0.05305 0.2488 0.0
C1099 C 0.52793 0.07714 0.25262 0.0
C1100 C 0.52651 0.10026 0.25447 0.0
C1101 C 0.50233 0.09907 0.25215 0.0
C1102 C 0.50568 0.02798 0.24673 0.0
C1103 C 0.55058 0.12629 0.25866 0.0
H1104 H 0.59191 0.07119 0.28945 0.0
H1105 H 0.60488 0.08542 0.22614 0.0
H1106 H 0.54212 0.08638 0.29439 0.0
H1107 H 0.52632 0.0519 0.29044 0.0
H1108 H 0.55526 0.06774 0.30582 0.0
H1109 H 0.57564 0.09009 0.20514 0.0
H1110 H 0.54215 0.06903 0.21263 0.0
H1111 H 0.55753 0.10335 0.21728 0.0
H1112 H 0.46342 0.03387 0.24398 0.0
H1113 H 0.50142 0.11691 0.25303 0.0
H1114 H 0.51354 0.0242 0.26066 0.0
H1115 H 0.51897 0.02978 0.23429 0.0
H1116 H 0.48607 0.01087 0.24372 0.0
H1117 H 0.56021 0.12513 0.27261 0.0
H1118 H 0.54603 0.1423 0.2603 0.0
H1119 H 0.56485 0.13135 0.24626 0.0
C1120 C 0.51989 0.57114 0.42851 0.0
C1121 C 0.52165 0.59511 0.42388 0.0
C1122 C 0.49628 0.54755 0.42625 0.0
C1123 C 0.47385 0.54798 0.41934 0.0
C1124 C 0.4755 0.57212 0.41464 0.0
C1125 C 0.49944 0.59541 0.41688 0.0
C1126 C 0.49536 0.52217 0.4312 0.0
C1127 C 0.45194 0.57336 0.40739 0.0
C1128 C 0.4191 0.48588 0.39635 0.0
C1129 C 0.40159 0.47514 0.41247 0.0
C1130 C 0.44262 0.50961 0.39836 0.0
C1131 C 0.44871 0.52309 0.41689 0.0
C1132 C 0.43101 0.51258 0.43316 0.0
C1133 C 0.4077 0.48868 0.43077 0.0
C1134 C 0.46102 0.52018 0.38068 0.0
C1135 C 0.43681 0.52646 0.45313 0.0
H1136 H 0.53711 0.57082 0.43371 0.0
H1137 H 0.50068 0.61395 0.41351 0.0
H1138 H 0.48068 0.51167 0.44312 0.0
H1139 H 0.48919 0.50933 0.41779 0.0
H1140 H 0.51456 0.52522 0.43636 0.0
H1141 H 0.45648 0.59371 0.40444 0.0
H1142 H 0.4443 0.56185 0.39338 0.0
H1143 H 0.43612 0.56453 0.41875 0.0
H1144 H 0.41432 0.47584 0.38203 0.0
H1145 H 0.39443 0.48041 0.44337 0.0
H1146 H 0.48022 0.52238 0.38476 0.0
H1147 H 0.46446 0.53984 0.37659 0.0
H1148 H 0.45338 0.5073 0.3673 0.0
H1149 H 0.4549 0.52819 0.45961 0.0
H1150 H 0.42064 0.5161 0.46407 0.0
H1151 H 0.44029 0.54658 0.45104 0.0
C1152 C 0.89686 0.49764 0.58669 0.0
C1153 C 0.92088 0.52109 0.58749 0.0
C1154 C 0.89581 0.47348 0.58478 0.0
C1155 C 0.91933 0.4727 0.58381 0.0
C1156 C 0.94362 0.49626 0.58459 0.0
C1157 C 0.9441 0.52015 0.58631 0.0
C1158 C 0.86954 0.44876 0.58388 0.0
C1159 C 0.96914 0.49624 0.5836 0.0
C1160 C 0.91889 0.40989 0.59695 0.0
C1161 C 0.9199 0.4004 0.57789 0.0
C1162 C 0.91839 0.43328 0.59912 0.0
C1163 C 0.91864 0.4473 0.58179 0.0
C1164 C 0.91903 0.43746 0.56251 0.0
C1165 C 0.91976 0.41419 0.5608 0.0
C1166 C 0.91821 0.44329 0.61993 0.0
C1167 C 0.91899 0.45167 0.54368 0.0
H1168 H 0.87882 0.49812 0.58789 0.0
H1169 H 0.96274 0.53816 0.58658 0.0
H1170 H 0.86791 0.43797 0.56983 0.0
H1171 H 0.86758 0.43576 0.59658 0.0
H1172 H 0.85306 0.45274 0.58449 0.0
H1173 H 0.98636 0.51621 0.58477 0.0
H1174 H 0.97008 0.48412 0.59594 0.0
H1175 H 0.97041 0.4874 0.56926 0.0
H1176 H 0.9192 0.39938 0.61019 0.0
H1177 H 0.92016 0.40669 0.54603 0.0
H1178 H 0.90126 0.44634 0.62167 0.0
H1179 H 0.93612 0.4625 0.62223 0.0
H1180 H 0.91726 0.42968 0.63184 0.0
H1181 H 0.90192 0.45471 0.54371 0.0
H1182 H 0.91831 0.44088 0.52983 0.0
H1183 H 0.9368 0.47126 0.54321 0.0
C1184 C 0.5011 0.90516 0.75544 0.0
C1185 C 0.52338 0.92783 0.74862 0.0
C1186 C 0.47724 0.90456 0.7581 0.0
C1187 C 0.47552 0.92705 0.7536 0.0
C1188 C 0.49796 0.95008 0.74696 0.0
C1189 C 0.52163 0.95025 0.7447 0.0
C1190 C 0.45377 0.87972 0.76541 0.0
C1191 C 0.49688 0.97445 0.74196 0.0
C1192 C 0.40912 0.91865 0.74079 0.0
C1193 C 0.40268 0.92669 0.75863 0.0
C1194 C 0.43273 0.91856 0.73898 0.0
C1195 C 0.45015 0.92643 0.75549 0.0
C1196 C 0.44357 0.93422 0.77363 0.0
C1197 C 0.41996 0.93438 0.77494 0.0
C1198 C 0.43922 0.91043 0.71931 0.0
C1199 C 0.46148 0.94242 0.79163 0.0
H1200 H 0.50212 0.88764 0.75827 0.0
H1201 H 0.53882 0.96802 0.73981 0.0
H1202 H 0.44541 0.88378 0.77892 0.0
H1203 H 0.43836 0.87202 0.7537 0.0
H1204 H 0.45865 0.86434 0.76916 0.0
H1205 H 0.51611 0.99078 0.73703 0.0
H1206 H 0.48244 0.97019 0.72982 0.0
H1207 H 0.4903 0.98093 0.75524 0.0
H1208 H 0.39589 0.9129 0.72811 0.0
H1209 H 0.41486 0.94028 0.78885 0.0
H1210 H 0.44261 0.89378 0.72175 0.0
H1211 H 0.45755 0.92678 0.71311 0.0
H1212 H 0.42346 0.90459 0.708 0.0
H1213 H 0.46534 0.92653 0.79593 0.0
H1214 H 0.45316 0.94728 0.80479 0.0
H1215 H 0.48056 0.95976 0.78782 0.0
C1216 C 0.47837 0.42641 0.91833 0.0
C1217 C 0.47807 0.40267 0.9207 0.0
C1218 C 0.50197 0.45011 0.91654 0.0
C1219 C 0.5259 0.45009 0.91691 0.0
C1220 C 0.52578 0.42621 0.91906 0.0
C1221 C 0.50188 0.4028 0.92101 0.0
C1222 C 0.5013 0.4752 0.9143 0.0
C1223 C 0.55091 0.4254 0.91939 0.0
C1224 C 0.58476 0.50861 0.89378 0.0
C1225 C 0.59785 0.52331 0.91081 0.0
C1226 C 0.56154 0.48457 0.89557 0.0
C1227 C 0.55102 0.47509 0.91486 0.0
C1228 C 0.56424 0.48974 0.93213 0.0
C1229 C 0.58759 0.51364 0.9299 0.0
C1230 C 0.54818 0.46938 0.87682 0.0
C1231 C 0.55349 0.48036 0.95293 0.0
H1232 H 0.46009 0.42648 0.91774 0.0
H1233 H 0.5019 0.38463 0.92314 0.0
H1234 H 0.51271 0.48894 0.92653 0.0
H1235 H 0.51054 0.48482 0.8999 0.0
H1236 H 0.48108 0.47191 0.91465 0.0
H1237 H 0.54745 0.40519 0.92082 0.0
H1238 H 0.56215 0.43418 0.90543 0.0
H1239 H 0.56326 0.43719 0.93214 0.0
H1240 H 0.59285 0.51585 0.87901 0.0
H1241 H 0.59756 0.52505 0.94307 0.0
H1242 H 0.52836 0.46692 0.87564 0.0
H1243 H 0.54579 0.44955 0.87761 0.0
H1244 H 0.55926 0.47917 0.86298 0.0
H1245 H 0.53391 0.47847 0.95429 0.0
H1246 H 0.56636 0.49383 0.96482 0.0
H1247 H 0.55101 0.46073 0.95561 0.0
C1248 C 0.14237 0.30176 0.01441 0.0
C1249 C 0.15363 0.32156 0.0289 0.0
C1250 C 0.15806 0.29605 0.00195 0.0
C1251 C 0.18558 0.31065 0.004 0.0
C1252 C 0.19702 0.3314 0.01801 0.0
C1253 C 0.18091 0.33654 0.03032 0.0
C1254 C 0.14518 0.27374 0.98722 0.0
C1255 C 0.2263 0.3476 0.02053 0.0
C1256 C 0.2284 0.28153 0.99239 0.0
C1257 C 0.24019 0.29401 0.97433 0.0
C1258 C 0.2096 0.2858 0.00168 0.0
C1259 C 0.20255 0.30313 0.99275 0.0
C1260 C 0.21355 0.31491 0.97404 0.0
C1261 C 0.23221 0.31011 0.96499 0.0
C1262 C 0.19813 0.27261 0.02149 0.0
C1263 C 0.20657 0.33355 0.9641 0.0
H1264 H 0.12127 0.29009 0.01334 0.0
H1265 H 0.18966 0.35216 0.04128 0.0
H1266 H 0.15396 0.28008 0.9721 0.0
H1267 H 0.14852 0.25766 0.992 0.0
H1268 H 0.12379 0.26596 0.9861 0.0
H1269 H 0.23209 0.36417 0.03108 0.0
H1270 H 0.23396 0.33514 0.02634 0.0
H1271 H 0.23578 0.35549 0.00582 0.0
H1272 H 0.23425 0.26872 0.99945 0.0
H1273 H 0.24138 0.31981 0.95104 0.0
H1274 H 0.17649 0.26267 0.02097 0.0
H1275 H 0.20475 0.28751 0.03357 0.0
H1276 H 0.20397 0.25802 0.02554 0.0
H1277 H 0.18505 0.32487 0.96339 0.0
H1278 H 0.21465 0.33888 0.94867 0.0
H1279 H 0.21438 0.35169 0.97316 0.0
C1280 C 0.82846 0.16898 0.18193 0.0
C1281 C 0.82801 0.1468 0.18991 0.0
C1282 C 0.84945 0.18686 0.17004 0.0
C1283 C 0.8704 0.18236 0.16601 0.0
C1284 C 0.86927 0.15921 0.17305 0.0
C1285 C 0.84812 0.14175 0.18495 0.0
C1286 C 0.84995 0.21132 0.16284 0.0
C1287 C 0.89109 0.15358 0.16894 0.0
C1288 C 0.92186 0.22298 0.1269 0.0
C1289 C 0.94217 0.24131 0.13904 0.0
C1290 C 0.89817 0.20379 0.13538 0.0
C1291 C 0.89475 0.20309 0.15646 0.0
C1292 C 0.91501 0.2219 0.16871 0.0
C1293 C 0.93842 0.24073 0.15986 0.0
C1294 C 0.87702 0.18401 0.12187 0.0
C1295 C 0.91207 0.22198 0.19124 0.0
H1296 H 0.81307 0.17308 0.18585 0.0
H1297 H 0.84764 0.12442 0.19086 0.0
H1298 H 0.8652 0.22844 0.17115 0.0
H1299 H 0.85504 0.21463 0.14667 0.0
H1300 H 0.8309 0.21042 0.16515 0.0
H1301 H 0.88598 0.13353 0.1736 0.0
H1302 H 0.89605 0.15596 0.15273 0.0
H1303 H 0.90888 0.16777 0.17723 0.0
H1304 H 0.92472 0.22329 0.11081 0.0
H1305 H 0.95386 0.25517 0.16927 0.0
H1306 H 0.8585 0.18408 0.12438 0.0
H1307 H 0.87327 0.16413 0.12557 0.0
H1308 H 0.88231 0.18788 0.10574 0.0
H1309 H 0.89462 0.2235 0.19509 0.0
H1310 H 0.92943 0.23837 0.19855 0.0
H1311 H 0.90907 0.20334 0.19762 0.0
C1312 C 0.69638 0.84098 0.35207 0.0
C1313 C 0.67315 0.82863 0.36325 0.0
C1314 C 0.70251 0.86287 0.34008 0.0
C1315 C 0.68514 0.87281 0.33945 0.0
C1316 C 0.66123 0.85984 0.35008 0.0
C1317 C 0.65546 0.83783 0.36171 0.0
C1318 C 0.72804 0.87597 0.32874 0.0
C1319 C 0.64221 0.86986 0.34986 0.0
C1320 C 0.71172 0.94512 0.33068 0.0
C1321 C 0.70331 0.94548 0.31104 0.0
C1322 C 0.70646 0.92167 0.33988 0.0
C1323 C 0.69277 0.89793 0.32911 0.0
C1324 C 0.68516 0.89821 0.309 0.0
C1325 C 0.69041 0.92198 0.30022 0.0
C1326 C 0.71487 0.92222 0.36138 0.0
C1327 C 0.67083 0.87332 0.29696 0.0
H1328 H 0.71028 0.83416 0.35325 0.0
H1329 H 0.63719 0.82807 0.36991 0.0
H1330 H 0.72476 0.87944 0.31291 0.0
H1331 H 0.74134 0.89529 0.33555 0.0
H1332 H 0.73792 0.86418 0.32893 0.0
H1333 H 0.62385 0.85673 0.35803 0.0
H1334 H 0.65137 0.88948 0.35694 0.0
H1335 H 0.63724 0.87205 0.33419 0.0
H1336 H 0.72229 0.96325 0.33898 0.0
H1337 H 0.68371 0.92202 0.28509 0.0
H1338 H 0.72712 0.91294 0.36255 0.0
H1339 H 0.69742 0.91082 0.37098 0.0
H1340 H 0.72609 0.94241 0.36743 0.0
H1341 H 0.68143 0.86227 0.29759 0.0
H1342 H 0.66844 0.87713 0.28099 0.0
H1343 H 0.65118 0.86066 0.30352 0.0
C1344 C 0.7701 0.68731 0.45709 0.0
C1345 C 0.76059 0.7014 0.46755 0.0
C1346 C 0.78865 0.68211 0.46588 0.0
C1347 C 0.79733 0.69069 0.48572 0.0
C1348 C 0.78766 0.70486 0.49632 0.0
C1349 C 0.76959 0.71023 0.48703 0.0
C1350 C 0.79891 0.66739 0.454 0.0
C1351 C 0.79602 0.71394 0.51763 0.0
C1352 C 0.82428 0.65716 0.51851 0.0
C1353 C 0.85088 0.676 0.51917 0.0
C1354 C 0.80671 0.66124 0.50705 0.0
C1355 C 0.8161 0.68452 0.49574 0.0
C1356 C 0.84319 0.70296 0.49552 0.0
C1357 C 0.86024 0.69861 0.50744 0.0
C1358 C 0.77793 0.64132 0.50798 0.0
C1359 C 0.85402 0.72776 0.48334 0.0
H1360 H 0.76317 0.68056 0.44199 0.0
H1361 H 0.76193 0.7208 0.49522 0.0
H1362 H 0.82055 0.67895 0.45322 0.0
H1363 H 0.79367 0.64872 0.46162 0.0
H1364 H 0.791 0.66302 0.43847 0.0
H1365 H 0.78649 0.72455 0.52381 0.0
H1366 H 0.79112 0.69691 0.52742 0.0
H1367 H 0.8175 0.72704 0.5183 0.0
H1368 H 0.817 0.6398 0.52776 0.0
H1369 H 0.88085 0.7131 0.50788 0.0
H1370 H 0.76974 0.63565 0.49263 0.0
H1371 H 0.76735 0.65002 0.51555 0.0
H1372 H 0.77404 0.62344 0.5163 0.0
H1373 H 0.84657 0.72329 0.46771 0.0
H1374 H 0.87572 0.73856 0.48297 0.0
H1375 H 0.84741 0.74074 0.48988 0.0
C1376 C 0.0523 0.76939 0.65978 0.0
C1377 C 0.0528 0.75822 0.64133 0.0
C1378 C 0.07546 0.7877 0.66928 0.0
C1379 C 0.09978 0.79518 0.66006 0.0
C1380 C 0.10042 0.78486 0.64102 0.0
C1381 C 0.07689 0.76645 0.63187 0.0
C1382 C 0.0739 0.79832 0.68954 0.0
C1383 C 0.12597 0.79249 0.63069 0.0
C1384 C 0.15812 0.85547 0.68212 0.0
C1385 C 0.16766 0.84422 0.69584 0.0
C1386 C 0.13664 0.83977 0.66973 0.0
C1387 C 0.1244 0.81223 0.67117 0.0
C1388 C 0.13458 0.80081 0.68442 0.0
C1389 C 0.15612 0.81693 0.69652 0.0
C1390 C 0.12643 0.85265 0.65569 0.0
C1391 C 0.12214 0.77152 0.68638 0.0
H1392 H 0.03371 0.76353 0.66695 0.0
H1393 H 0.07741 0.75782 0.61765 0.0
H1394 H 0.08298 0.79185 0.70109 0.0
H1395 H 0.08497 0.81999 0.68935 0.0
H1396 H 0.05345 0.7917 0.69411 0.0
H1397 H 0.12308 0.78476 0.61513 0.0
H1398 H 0.13846 0.81407 0.63019 0.0
H1399 H 0.13675 0.78482 0.63932 0.0
H1400 H 0.16683 0.87653 0.68158 0.0
H1401 H 0.16373 0.80812 0.70677 0.0
H1402 H 0.10697 0.84874 0.6609 0.0
H1403 H 0.12384 0.84434 0.64037 0.0
H1404 H 0.13965 0.87413 0.65484 0.0
H1405 H 0.10202 0.76325 0.69237 0.0
H1406 H 0.13332 0.76577 0.69653 0.0
H1407 H 0.1206 0.76256 0.67145 0.0
C1408 C 0.32209 0.0795 0.80433 0.0
C1409 C 0.29649 0.0609 0.79877 0.0
C1410 C 0.32741 0.10252 0.81437 0.0
C1411 C 0.30662 0.10694 0.81917 0.0
C1412 C 0.28095 0.08892 0.81273 0.0
C1413 C 0.27622 0.06618 0.80253 0.0
C1414 C 0.35509 0.12136 0.82085 0.0
C1415 C 0.25825 0.09293 0.81756 0.0
C1416 C 0.31367 0.14529 0.86663 0.0
C1417 C 0.31953 0.16978 0.85906 0.0
C1418 C 0.30938 0.12476 0.85378 0.0
C1419 C 0.31123 0.12881 0.83277 0.0
C1420 C 0.31744 0.15354 0.82496 0.0
C1421 C 0.32148 0.17375 0.83821 0.0
C1422 C 0.30285 0.09869 0.86273 0.0
C1423 C 0.31972 0.15859 0.80264 0.0
H1424 H 0.33787 0.07554 0.80171 0.0
H1425 H 0.25647 0.05217 0.79796 0.0
H1426 H 0.36051 0.14169 0.8169 0.0
H1427 H 0.35663 0.12052 0.8374 0.0
H1428 H 0.3694 0.11679 0.81386 0.0
H1429 H 0.24001 0.07849 0.80984 0.0
H1430 H 0.25469 0.09105 0.83399 0.0
H1431 H 0.26279 0.11288 0.81319 0.0
H1432 H 0.31272 0.1422 0.88272 0.0
H1433 H 0.32584 0.19257 0.83224 0.0
H1434 H 0.31778 0.09354 0.85824 0.0
H1435 H 0.28376 0.08316 0.8569 0.0
H1436 H 0.30187 0.09868 0.87938 0.0
H1437 H 0.33468 0.1546 0.7962 0.0
H1438 H 0.32511 0.17902 0.79899 0.0
H1439 H 0.3009 0.14515 0.7952 0.0
C1440 C 0.68462 0.76587 0.86647 0.0
C1441 C 0.70786 0.76588 0.86219 0.0
C1442 C 0.67898 0.78386 0.85724 0.0
C1443 C 0.69701 0.80221 0.84341 0.0
C1444 C 0.72117 0.8033 0.83997 0.0
C1445 C 0.7263 0.78515 0.84942 0.0
C1446 C 0.65308 0.78219 0.86138 0.0
C1447 C 0.74099 0.82266 0.82542 0.0
C1448 C 0.67206 0.82391 0.79931 0.0
C1449 C 0.67903 0.84951 0.80473 0.0
C1450 C 0.67716 0.80814 0.81205 0.0
C1451 C 0.68951 0.81816 0.83075 0.0
C1452 C 0.6958 0.84367 0.83667 0.0
C1453 C 0.69045 0.85907 0.82357 0.0
C1454 C 0.66997 0.78098 0.80521 0.0
C1455 C 0.7089 0.85495 0.85652 0.0
H1456 H 0.67023 0.75097 0.87625 0.0
H1457 H 0.74453 0.78557 0.84638 0.0
H1458 H 0.65583 0.80189 0.86428 0.0
H1459 H 0.64031 0.77418 0.848 0.0
H1460 H 0.64288 0.7694 0.87442 0.0
H1461 H 0.7598 0.82269 0.82593 0.0
H1462 H 0.73312 0.81772 0.80992 0.0
H1463 H 0.74484 0.84267 0.8287 0.0
H1464 H 0.66274 0.81624 0.78494 0.0
H1465 H 0.69594 0.87888 0.8278 0.0
H1466 H 0.65742 0.76636 0.81659 0.0
H1467 H 0.6879 0.77955 0.80361 0.0
H1468 H 0.65947 0.77575 0.79061 0.0
H1469 H 0.6979 0.84133 0.86893 0.0
H1470 H 0.7105 0.87416 0.85963 0.0
H1471 H 0.72883 0.85752 0.85652 0.0
C1472 C 0.85489 0.70351 0.96888 0.0
C1473 C 0.8296 0.68215 0.97156 0.0
C1474 C 0.87567 0.70698 0.98112 0.0
C1475 C 0.87098 0.68909 0.99687 0.0
C1476 C 0.84524 0.66852 0.00057 0.0
C1477 C 0.82489 0.66511 0.98774 0.0
C1478 C 0.90287 0.72904 0.97653 0.0
C1479 C 0.83937 0.64946 0.01755 0.0
C1480 C 0.92837 0.68033 0.01048 0.0
C1481 C 0.93968 0.69781 0.02657 0.0
C1482 C 0.90571 0.67692 0.001 0.0
C1483 C 0.89345 0.69067 0.00814 0.0
C1484 C 0.90381 0.70719 0.02508 0.0
C1485 C 0.92698 0.71084 0.03393 0.0
C1486 C 0.89548 0.65933 0.98282 0.0
C1487 C 0.89087 0.72163 0.03346 0.0
H1488 H 0.85865 0.71727 0.95683 0.0
H1489 H 0.80552 0.64848 0.98995 0.0
H1490 H 0.91179 0.74109 0.99011 0.0
H1491 H 0.91541 0.72089 0.97194 0.0
H1492 H 0.90304 0.74192 0.96432 0.0
H1493 H 0.81804 0.63701 0.02022 0.0
H1494 H 0.84746 0.63657 0.01399 0.0
H1495 H 0.84881 0.66003 0.03162 0.0
H1496 H 0.93747 0.66952 0.00501 0.0
H1497 H 0.93553 0.72453 0.04624 0.0
H1498 H 0.8961 0.67093 0.96952 0.0
H1499 H 0.87481 0.64406 0.98517 0.0
H1500 H 0.90699 0.64962 0.97942 0.0
H1501 H 0.89328 0.73709 0.02279 0.0
H1502 H 0.89932 0.73094 0.04814 0.0
H1503 H 0.86959 0.70813 0.03537 0.0
C1504 C 0.21397 0.94312 0.18826 0.0
C1505 C 0.23645 0.94475 0.19675 0.0
C1506 C 0.19543 0.92038 0.17838 0.0
C1507 C 0.1996 0.89886 0.1768 0.0
C1508 C 0.22165 0.89995 0.18614 0.0
C1509 C 0.23978 0.92288 0.19608 0.0
C1510 C 0.172 0.91986 0.16883 0.0
C1511 C 0.22687 0.87748 0.18467 0.0
C1512 C 0.14383 0.83344 0.15887 0.0
C1513 C 0.14936 0.83444 0.13831 0.0
C1514 C 0.16002 0.85422 0.17168 0.0
C1515 C 0.18234 0.87634 0.16372 0.0
C1516 C 0.18817 0.87724 0.14302 0.0
C1517 C 0.17159 0.85633 0.13059 0.0
C1518 C 0.15312 0.85267 0.19364 0.0
C1519 C 0.21192 0.90036 0.13397 0.0
H1520 H 0.21119 0.9599 0.18899 0.0
H1521 H 0.25723 0.92414 0.20248 0.0
H1522 H 0.17368 0.9197 0.15225 0.0
H1523 H 0.15381 0.90181 0.17316 0.0
H1524 H 0.1702 0.93704 0.17317 0.0
H1525 H 0.2434 0.88038 0.19438 0.0
H1526 H 0.20923 0.8589 0.18897 0.0
H1527 H 0.23158 0.87537 0.16891 0.0
H1528 H 0.12658 0.8166 0.16487 0.0
H1529 H 0.17619 0.85698 0.11477 0.0
H1530 H 0.14976 0.86899 0.1976 0.0
H1531 H 0.1696 0.85481 0.203 0.0
H1532 H 0.13535 0.83393 0.19754 0.0
H1533 H 0.21072 0.91835 0.13607 0.0
H1534 H 0.21394 0.89778 0.11767 0.0
H1535 H 0.22985 0.90344 0.14174 0.0
C1536 C 0.33452 0.18036 0.30135 0.0
C1537 C 0.32504 0.1539 0.30562 0.0
C1538 C 0.3289 0.19589 0.31393 0.0
C1539 C 0.31331 0.18468 0.33122 0.0
C1540 C 0.30447 0.15822 0.33605 0.0
C1541 C 0.31051 0.14311 0.32319 0.0
C1542 C 0.33893 0.22411 0.30832 0.0
C1543 C 0.28778 0.1456 0.35434 0.0
C1544 C 0.31449 0.2341 0.36827 0.0
C1545 C 0.293 0.23611 0.36176 0.0
C1546 C 0.32067 0.21643 0.35916 0.0
C1547 C 0.30489 0.20038 0.34326 0.0
C1548 C 0.28233 0.2013 0.33745 0.0
C1549 C 0.2767 0.2192 0.34674 0.0
C1550 C 0.34488 0.21601 0.36577 0.0
C1551 C 0.26485 0.18435 0.3207 0.0
H1552 H 0.34615 0.18887 0.28795 0.0
H1553 H 0.30307 0.12263 0.3265 0.0
H1554 H 0.32223 0.22706 0.30482 0.0
H1555 H 0.34965 0.23707 0.32113 0.0
H1556 H 0.35213 0.23024 0.29509 0.0
H1557 H 0.28454 0.12564 0.35702 0.0
H1558 H 0.297 0.1577 0.36787 0.0
H1559 H 0.26851 0.14427 0.35238 0.0
H1560 H 0.3272 0.24724 0.37982 0.0
H1561 H 0.25984 0.22043 0.3419 0.0
H1562 H 0.35995 0.22468 0.35384 0.0
H1563 H 0.34052 0.19564 0.36809 0.0
H1564 H 0.35318 0.22721 0.37985 0.0
H1565 H 0.27559 0.19051 0.30625 0.0
H1566 H 0.2468 0.18563 0.31931 0.0
H1567 H 0.25925 0.16364 0.32321 0.0
C1568 C 0.1462 0.29672 0.4728 0.0
C1569 C 0.17074 0.31954 0.47367 0.0
C1570 C 0.12549 0.29362 0.48495 0.0
C1571 C 0.1295 0.31361 0.49863 0.0
C1572 C 0.15465 0.3359 0.50059 0.0
C1573 C 0.17496 0.3387 0.48798 0.0
C1574 C 0.09894 0.26957 0.48234 0.0
C1575 C 0.1598 0.35741 0.51526 0.0
C1576 C 0.06953 0.31934 0.50888 0.0
C1577 C 0.06014 0.30526 0.52683 0.0
C1578 C 0.09246 0.32278 0.49988 0.0
C1579 C 0.10671 0.31229 0.50921 0.0
C1580 C 0.09811 0.29917 0.52783 0.0
C1581 C 0.07481 0.29565 0.53637 0.0
C1582 C 0.1009 0.33684 0.47997 0.0
C1583 C 0.11303 0.2881 0.53839 0.0
H1584 H 0.14294 0.28151 0.46216 0.0
H1585 H 0.19379 0.35645 0.48874 0.0
H1586 H 0.09108 0.2601 0.49705 0.0
H1587 H 0.0851 0.27528 0.4761 0.0
H1588 H 0.0995 0.25504 0.47209 0.0
H1589 H 0.18101 0.37149 0.51701 0.0
H1590 H 0.15012 0.36825 0.50992 0.0
H1591 H 0.15146 0.34912 0.53019 0.0
H1592 H 0.05871 0.32743 0.50165 0.0
H1593 H 0.06767 0.28462 0.55018 0.0
H1594 H 0.1005 0.32327 0.46828 0.0
H1595 H 0.12126 0.35333 0.48097 0.0
H1596 H 0.08812 0.34459 0.47504 0.0
H1597 H 0.11155 0.27145 0.52963 0.0
H1598 H 0.10547 0.28112 0.55376 0.0
H1599 H 0.13406 0.30303 0.5394 0.0
C1600 C 0.86238 0.15751 0.65111 0.0
C1601 C 0.85599 0.17629 0.6449 0.0
C1602 C 0.84475 0.13567 0.66236 0.0
C1603 C 0.8201 0.13253 0.66749 0.0
C1604 C 0.8141 0.15215 0.66221 0.0
C1605 C 0.83214 0.17382 0.65098 0.0
C1606 C 0.85196 0.11529 0.66782 0.0
C1607 C 0.78803 0.14952 0.66741 0.0
C1608 C 0.76393 0.06294 0.67208 0.0
C1609 C 0.76139 0.05939 0.69295 0.0
C1610 C 0.78288 0.08667 0.66368 0.0
C1611 C 0.79967 0.10752 0.67645 0.0
C1612 C 0.79709 0.10425 0.69753 0.0
C1613 C 0.77797 0.08019 0.70555 0.0
C1614 C 0.78495 0.08938 0.64111 0.0
C1615 C 0.81463 0.12607 0.71159 0.0
H1616 H 0.88096 0.15953 0.64669 0.0
H1617 H 0.82697 0.18815 0.64607 0.0
H1618 H 0.84826 0.11029 0.68398 0.0
H1619 H 0.83957 0.09714 0.65919 0.0
H1620 H 0.87278 0.12188 0.66454 0.0
H1621 H 0.78753 0.16773 0.66426 0.0
H1622 H 0.77242 0.13341 0.6585 0.0
H1623 H 0.78341 0.14446 0.68349 0.0
H1624 H 0.75086 0.04718 0.66223 0.0
H1625 H 0.77625 0.07753 0.72168 0.0
H1626 H 0.80474 0.09403 0.63618 0.0
H1627 H 0.78214 0.10578 0.63628 0.0
H1628 H 0.77031 0.07133 0.6333 0.0
H1629 H 0.83528 0.13148 0.70907 0.0
H1630 H 0.80969 0.12061 0.72761 0.0
H1631 H 0.81311 0.1437 0.70846 0.0
C1632 C 0.21679 0.35302 0.2773 0.0
C1633 C 0.2168 0.36687 0.29441 0.0
C1634 C 0.2047 0.35397 0.25946 0.0
C1635 C 0.19259 0.36941 0.2586 0.0
C1636 C 0.1931 0.38399 0.27561 0.0
C1637 C 0.20506 0.38243 0.29335 0.0
C1638 C 0.20447 0.33806 0.24163 0.0
C1639 C 0.18055 0.40083 0.2752 0.0
C1640 C 0.17892 0.38661 0.20676 0.0
C1641 C 0.15236 0.3682 0.20437 0.0
C1642 C 0.19218 0.3876 0.22451 0.0
C1643 C 0.1786 0.36953 0.24009 0.0
C1644 C 0.15173 0.35102 0.23779 0.0
C1645 C 0.1389 0.35068 0.21999 0.0
C1646 C 0.22074 0.40784 0.22655 0.0
C1647 C 0.13667 0.33122 0.25396 0.0
H1648 H 0.22624 0.34135 0.27783 0.0
H1649 H 0.20467 0.39295 0.30655 0.0
H1650 H 0.18402 0.32367 0.23752 0.0
H1651 H 0.21351 0.35095 0.22845 0.0
H1652 H 0.21512 0.32736 0.24466 0.0
H1653 H 0.18399 0.41214 0.2893 0.0
H1654 H 0.18829 0.4147 0.26242 0.0
H1655 H 0.15918 0.3884 0.27294 0.0
H1656 H 0.18928 0.40033 0.19475 0.0
H1657 H 0.11844 0.33623 0.21807 0.0
H1658 H 0.23249 0.39807 0.22828 0.0
H1659 H 0.22387 0.41976 0.24023 0.0
H1660 H 0.22819 0.42109 0.21336 0.0
H1661 H 0.14549 0.31874 0.25663 0.0
H1662 H 0.11577 0.31844 0.24996 0.0
H1663 H 0.1378 0.3413 0.26828 0.0
C1664 C 0.83246 0.21873 0.45596 0.0
C1665 C 0.85029 0.21236 0.46445 0.0
C1666 C 0.81965 0.20736 0.43785 0.0
C1667 C 0.82495 0.18934 0.42793 0.0
C1668 C 0.84292 0.18284 0.4364 0.0
C1669 C 0.85528 0.19433 0.45458 0.0
C1670 C 0.80054 0.21469 0.42929 0.0
C1671 C 0.8491 0.16371 0.42625 0.0
C1672 C 0.77656 0.14108 0.3904 0.0
C1673 C 0.78819 0.15277 0.37207 0.0
C1674 C 0.78801 0.15305 0.40871 0.0
C1675 C 0.81175 0.17722 0.40867 0.0
C1676 C 0.82336 0.18933 0.39021 0.0
C1677 C 0.81138 0.17699 0.37212 0.0
C1678 C 0.77492 0.13967 0.4281 0.0
C1679 C 0.84876 0.215 0.38956 0.0
H1680 H 0.82875 0.2329 0.46333 0.0
H1681 H 0.86869 0.18896 0.46119 0.0
H1682 H 0.80719 0.22364 0.41424 0.0
H1683 H 0.78113 0.19693 0.42731 0.0
H1684 H 0.79824 0.22867 0.43903 0.0
H1685 H 0.86379 0.161 0.43468 0.0
H1686 H 0.83105 0.14445 0.42472 0.0
H1687 H 0.85668 0.17063 0.41089 0.0
H1688 H 0.75843 0.12252 0.39041 0.0
H1689 H 0.82057 0.18596 0.35798 0.0
H1690 H 0.77141 0.15304 0.43758 0.0
H1691 H 0.78792 0.13468 0.43669 0.0
H1692 H 0.75599 0.12148 0.42553 0.0
H1693 H 0.84701 0.23 0.39835 0.0
H1694 H 0.85472 0.22231 0.374 0.0
H1695 H 0.8645 0.21266 0.39657 0.0
C1696 C 0.62829 0.82518 0.62921 0.0
C1697 C 0.63438 0.85129 0.62854 0.0
C1698 C 0.62817 0.81206 0.61162 0.0
C1699 C 0.63363 0.82527 0.59296 0.0
C1700 C 0.639 0.85145 0.59221 0.0
C1701 C 0.63967 0.86429 0.6101 0.0
C1702 C 0.623 0.78438 0.61309 0.0
C1703 C 0.64426 0.86595 0.57255 0.0
C1704 C 0.65981 0.80266 0.55012 0.0
C1705 C 0.63711 0.78687 0.53893 0.0
C1706 C 0.65884 0.81491 0.56786 0.0
C1707 C 0.63474 0.81203 0.57432 0.0
C1708 C 0.61183 0.79654 0.563 0.0
C1709 C 0.61321 0.78386 0.54562 0.0
C1710 C 0.68366 0.83092 0.57972 0.0
C1711 C 0.58585 0.79344 0.56922 0.0
H1712 H 0.62438 0.81531 0.64358 0.0
H1713 H 0.64424 0.88449 0.60972 0.0
H1714 H 0.60624 0.77128 0.60341 0.0
H1715 H 0.64026 0.7835 0.60759 0.0
H1716 H 0.61872 0.7768 0.62871 0.0
H1717 H 0.64639 0.8856 0.57444 0.0
H1718 H 0.66244 0.86833 0.56573 0.0
H1719 H 0.62812 0.85455 0.56183 0.0
H1720 H 0.67851 0.80572 0.54496 0.0
H1721 H 0.59544 0.77141 0.53737 0.0
H1722 H 0.68092 0.82364 0.59539 0.0
H1723 H 0.68837 0.85158 0.58039 0.0
H1724 H 0.70059 0.8303 0.57311 0.0
H1725 H 0.58014 0.78393 0.58416 0.0
H1726 H 0.57006 0.78157 0.55835 0.0
H1727 H 0.5875 0.81291 0.57063 0.0
C1728 C 0.85632 0.65616 0.71564 0.0
C1729 C 0.84464 0.63598 0.70145 0.0
C1730 C 0.84354 0.65527 0.7336 0.0
C1731 C 0.81837 0.63376 0.73743 0.0
C1732 C 0.80646 0.61329 0.72323 0.0
C1733 C 0.81976 0.61462 0.70542 0.0
C1734 C 0.85688 0.67749 0.74839 0.0
C1735 C 0.77963 0.59005 0.72682 0.0
C1736 C 0.79584 0.62238 0.79173 0.0
C1737 C 0.78067 0.63453 0.79252 0.0
C1738 C 0.80781 0.6215 0.77379 0.0
C1739 C 0.80444 0.63298 0.75622 0.0
C1740 C 0.78863 0.6447 0.75681 0.0
C1741 C 0.77696 0.64537 0.77496 0.0
C1742 C 0.82462 0.60893 0.77376 0.0
C1743 C 0.78442 0.65697 0.73835 0.0
H1744 H 0.87535 0.67293 0.71255 0.0
H1745 H 0.81075 0.59879 0.69465 0.0
H1746 H 0.84499 0.68704 0.75056 0.0
H1747 H 0.85856 0.66989 0.76321 0.0
H1748 H 0.87673 0.69248 0.74335 0.0
H1749 H 0.77313 0.57573 0.7143 0.0
H1750 H 0.77957 0.58001 0.7409 0.0
H1751 H 0.76519 0.59667 0.7287 0.0
H1752 H 0.79898 0.61421 0.80531 0.0
H1753 H 0.76493 0.65443 0.77543 0.0
H1754 H 0.84514 0.62383 0.7703 0.0
H1755 H 0.81801 0.59378 0.76188 0.0
H1756 H 0.82421 0.59975 0.78841 0.0
H1757 H 0.80335 0.67355 0.73324 0.0
H1758 H 0.77068 0.6643 0.74112 0.0
H1759 H 0.77664 0.64257 0.72592 0.0
C1760 C 0.22771 0.85434 0.88938 0.0
C1761 C 0.21238 0.85065 0.87228 0.0
C1762 C 0.21625 0.84201 0.90761 0.0
C1763 C 0.18881 0.82562 0.90875 0.0
C1764 C 0.17326 0.82156 0.89149 0.0
C1765 C 0.18523 0.83414 0.87348 0.0
C1766 C 0.23347 0.84674 0.92569 0.0
C1767 C 0.14393 0.80425 0.89214 0.0
C1768 C 0.15939 0.77637 0.95122 0.0
C1769 C 0.15092 0.78913 0.9644 0.0
C1770 C 0.17198 0.7881 0.93313 0.0
C1771 C 0.17624 0.81321 0.92813 0.0
C1772 C 0.16802 0.82632 0.94147 0.0
C1773 C 0.15541 0.81411 0.95941 0.0
C1774 C 0.1805 0.77354 0.91928 0.0
C1775 C 0.17222 0.85313 0.93665 0.0
H1776 H 0.24874 0.8668 0.88849 0.0
H1777 H 0.17323 0.83147 0.8604 0.0
H1778 H 0.22804 0.85596 0.93784 0.0
H1779 H 0.23051 0.82789 0.93157 0.0
H1780 H 0.25453 0.85957 0.92218 0.0
H1781 H 0.13473 0.80251 0.87725 0.0
H1782 H 0.13871 0.78441 0.8974 0.0
H1783 H 0.13549 0.81223 0.90301 0.0
H1784 H 0.1563 0.75722 0.9551 0.0
H1785 H 0.14858 0.82394 0.96936 0.0
H1786 H 0.20181 0.78538 0.91642 0.0
H1787 H 0.1705 0.77023 0.90458 0.0
H1788 H 0.17612 0.75433 0.92552 0.0
H1789 H 0.19327 0.86698 0.93401 0.0
H1790 H 0.16531 0.86097 0.94888 0.0
H1791 H 0.16168 0.85232 0.92265 0.0
C1792 C 0.38163 0.1739 0.12576 0.0
C1793 C 0.36522 0.14685 0.12782 0.0
C1794 C 0.38229 0.18666 0.10782 0.0
C1795 C 0.36628 0.17196 0.09154 0.0
C1796 C 0.35006 0.14456 0.09341 0.0
C1797 C 0.34967 0.13234 0.11156 0.0
C1798 C 0.39968 0.21594 0.10644 0.0
C1799 C 0.3329 0.12819 0.07631 0.0
C1800 C 0.34695 0.20635 0.05289 0.0
C1801 C 0.36427 0.21032 0.03711 0.0
C1802 C 0.34755 0.19407 0.07073 0.0
C1803 C 0.36578 0.18534 0.0728 0.0
C1804 C 0.38329 0.1892 0.05695 0.0
C1805 C 0.38238 0.20172 0.0393 0.0
C1806 C 0.32857 0.19032 0.08733 0.0
C1807 C 0.40295 0.18008 0.05861 0.0
H1808 H 0.3935 0.18521 0.13837 0.0
H1809 H 0.33723 0.11136 0.11302 0.0
H1810 H 0.41301 0.22106 0.09338 0.0
H1811 H 0.38758 0.22521 0.10401 0.0
H1812 H 0.4116 0.22438 0.1202 0.0
H1813 H 0.32215 0.10701 0.07994 0.0
H1814 H 0.31848 0.13435 0.07259 0.0
H1815 H 0.34489 0.13125 0.06269 0.0
H1816 H 0.33259 0.2125 0.0512 0.0
H1817 H 0.39604 0.20499 0.02728 0.0
H1818 H 0.33937 0.19961 0.10134 0.0
H1819 H 0.31582 0.16918 0.09047 0.0
H1820 H 0.31601 0.19875 0.08351 0.0
H1821 H 0.41603 0.18963 0.07162 0.0
H1822 H 0.4151 0.18445 0.04488 0.0
H1823 H 0.39272 0.1587 0.06133 0.0
loop_
_geom_bond_atom_site_label_1
_geom_bond_atom_site_label_2
_geom_bond_distance
_geom_bond_site_symmetry_2
_ccdc_geom_bond_type
Li0 N17 1.990 . S
Li0 O60 1.956 . S
Li0 O61 1.970 . S
Li0 O62 1.961 . S
Li1 N25 1.990 . S
Li1 O60 1.970 . S
Li1 O61 1.956 . S
Li1 O63 1.961 . S
Li2 N47 1.990 . S
Li2 O60 1.961 . S
Li2 O62 1.956 . S
Li2 O63 1.970 . S
Li3 N53 1.990 . S
Li3 O61 1.961 . S
Li3 O62 1.970 . S
Li3 O63 1.956 . S
C4 C6 1.348 . S
C4 C7 1.356 . S
C4 O60 1.325 . S
N5 C8 1.314 . S
N5 C9 1.279 . S
C6 C4 1.348 . S
C6 C8 1.353 . S
C6 H64 0.929 . S
C7 C4 1.356 . S
C7 C9 1.358 . S
C7 H65 0.930 . S
C8 N5 1.314 . S
C8 C6 1.353 . S
C8 H66 0.930 . S
C9 N5 1.279 . S
C9 C7 1.358 . S
C9 H67 0.930 . S
C10 C13 1.348 . S
C10 C14 1.356 . S
C10 O61 1.325 . S
C11 N12 1.279 . S
C11 C14 1.358 . S
C11 H68 0.930 . S
N12 C11 1.279 . S
N12 C15 1.314 . S
C13 C10 1.348 . S
C13 C15 1.353 . S
C13 H69 0.929 . S
C14 C10 1.356 . S
C14 C11 1.358 . S
C14 H70 0.930 . S
C15 N12 1.314 . S
C15 C13 1.353 . S
C15 H71 0.930 . S
C16 N17 1.314 . S
C16 C21 1.353 . S
C16 H22 0.930 . S
N17 Li0 1.990 . S
N17 C16 1.314 . S
N17 C19 1.279 . S
C18 C19 1.358 . S
C18 C20 1.356 . S
C18 H72 0.930 . S
C19 N17 1.279 . S
C19 C18 1.358 . S
C19 H23 0.930 . S
C20 C18 1.356 . S
C20 C21 1.348 . S
C21 C16 1.353 . S
C21 C20 1.348 . S
C21 H73 0.929 . S
H22 C16 0.930 . S
H23 C19 0.930 . S
C24 N25 1.314 . S
C24 C26 1.353 . S
C24 H30 0.930 . S
N25 Li1 1.990 . S
N25 C24 1.314 . S
N25 C28 1.279 . S
C26 C24 1.353 . S
C26 C29 1.348 . S
C26 H74 0.929 . S
C27 C28 1.358 . S
C27 C29 1.356 . S
C27 H75 0.930 . S
C28 N25 1.279 . S
C28 C27 1.358 . S
C28 H31 0.930 . S
C29 C26 1.348 . S
C29 C27 1.356 . S
H30 C24 0.930 . S
H31 C28 0.930 . S
C32 C34 1.348 . S
C32 C35 1.356 . S
C32 O62 1.325 . S
N33 C36 1.314 . S
N33 C37 1.279 . S
C34 C32 1.348 . S
C34 C36 1.353 . S
C34 H76 0.929 . S
C35 C32 1.356 . S
C35 C37 1.358 . S
C35 H77 0.930 . S
C36 N33 1.314 . S
C36 C34 1.353 . S
C36 H78 0.930 . S
C37 N33 1.279 . S
C37 C35 1.358 . S
C37 H79 0.930 . S
C38 C39 1.348 . S
C38 C40 1.356 . S
C38 O63 1.325 . S
C39 C38 1.348 . S
C39 C41 1.353 . S
C39 H80 0.929 . S
C40 C38 1.356 . S
C40 C42 1.358 . S
C40 H81 0.930 . S
C41 C39 1.353 . S
C41 N43 1.314 . S
C41 H82 0.930 . S
C42 C40 1.358 . S
C42 N43 1.279 . S
C42 H83 0.930 . S
N43 C41 1.314 . S
N43 C42 1.279 . S
C44 C46 1.353 1_455 S
C44 N47 1.314 . S
C44 H50 0.930 . S
C45 N47 1.279 1_655 S
C45 C48 1.358 . S
C45 H51 0.930 . S
C46 C44 1.353 1_655 S
C46 C49 1.348 . S
C46 H84 0.929 . S
N47 Li2 1.990 . S
N47 C44 1.314 . S
N47 C45 1.279 1_455 S
C48 C45 1.358 . S
C48 C49 1.356 . S
C48 H85 0.930 . S
C49 C46 1.348 . S
C49 C48 1.356 . S
H50 C44 0.930 . S
H51 C45 0.930 . S
C52 N53 1.314 . S
C52 C54 1.353 . S
C52 H58 0.930 . S
N53 Li3 1.990 . S
N53 C52 1.314 . S
N53 C56 1.279 . S
C54 C52 1.353 . S
C54 C57 1.348 . S
C54 H86 0.929 . S
C55 C56 1.358 . S
C55 C57 1.356 . S
C55 H87 0.930 . S
C56 N53 1.279 . S
C56 C55 1.358 . S
C56 H59 0.930 . S
C57 C54 1.348 . S
C57 C55 1.356 . S
H58 C52 0.930 . S
H59 C56 0.930 . S
O60 Li0 1.956 . S
O60 Li1 1.970 . S
O60 Li2 1.961 . S
O60 C4 1.325 . S
O61 Li0 1.970 . S
O61 Li1 1.956 . S
O61 Li3 1.961 . S
O61 C10 1.325 . S
O62 Li0 1.961 . S
O62 Li2 1.956 . S
O62 Li3 1.970 . S
O62 C32 1.325 . S
O63 Li1 1.961 . S
O63 Li2 1.970 . S
O63 Li3 1.956 . S
O63 C38 1.325 . S
H64 C6 0.929 . S
H65 C7 0.930 . S
H66 C8 0.930 . S
H67 C9 0.930 . S
H68 C11 0.930 . S
H69 C13 0.929 . S
H70 C14 0.930 . S
H71 C15 0.930 . S
H72 C18 0.930 . S
H73 C21 0.929 . S
H74 C26 0.929 . S
H75 C27 0.930 . S
H76 C34 0.929 . S
H77 C35 0.930 . S
H78 C36 0.930 . S
H79 C37 0.930 . S
H80 C39 0.929 . S
H81 C40 0.930 . S
H82 C41 0.930 . S
H83 C42 0.930 . S
H84 C46 0.929 . S
H85 C48 0.930 . S
H86 C54 0.929 . S
H87 C55 0.930 . S
Li88 N105 1.990 . S
Li88 O148 1.956 . S
Li88 O149 1.970 . S
Li88 O150 1.961 . S
Li89 N113 1.990 . S
Li89 O148 1.970 . S
Li89 O149 1.956 . S
Li89 O151 1.961 . S
Li90 N135 1.990 . S
Li90 O148 1.961 . S
Li90 O150 1.956 . S
Li90 O151 1.970 . S
Li91 N141 1.990 . S
Li91 O149 1.961 . S
Li91 O150 1.970 . S
Li91 O151 1.956 . S
C92 C94 1.348 . S
C92 C95 1.356 . S
C92 O148 1.325 . S
N93 C96 1.314 . S
N93 C97 1.279 . S
C94 C92 1.348 . S
C94 C96 1.353 . S
C94 H152 0.929 . S
C95 C92 1.356 . S
C95 C97 1.358 . S
C95 H153 0.930 . S
C96 N93 1.314 . S
C96 C94 1.353 . S
C96 H154 0.930 . S
C97 N93 1.279 . S
C97 C95 1.358 . S
C97 H155 0.930 . S
C98 C101 1.348 . S
C98 C102 1.356 . S
C98 O149 1.325 . S
C99 N100 1.279 . S
C99 C102 1.358 . S
C99 H156 0.930 . S
N100 C99 1.279 . S
N100 C103 1.314 . S
C101 C98 1.348 . S
C101 C103 1.353 . S
C101 H157 0.929 . S
C102 C98 1.356 . S
C102 C99 1.358 . S
C102 H158 0.930 . S
C103 N100 1.314 . S
C103 C101 1.353 . S
C103 H159 0.930 . S
C104 N105 1.314 . S
C104 C109 1.353 . S
C104 H110 0.930 . S
N105 Li88 1.990 . S
N105 C104 1.314 . S
N105 C107 1.279 . S
C106 C107 1.358 . S
C106 C108 1.356 . S
C106 H160 0.930 . S
C107 N105 1.279 . S
C107 C106 1.358 . S
C107 H111 0.930 . S
C108 C106 1.356 . S
C108 C109 1.348 . S
C109 C104 1.353 . S
C109 C108 1.348 . S
C109 H161 0.929 . S
H110 C104 0.930 . S
H111 C107 0.930 . S
C112 N113 1.314 . S
C112 C114 1.353 . S
C112 H118 0.930 . S
N113 Li89 1.990 . S
N113 C112 1.314 . S
N113 C116 1.279 . S
C114 C112 1.353 . S
C114 C117 1.348 . S
C114 H162 0.929 . S
C115 C116 1.358 . S
C115 C117 1.356 . S
C115 H163 0.930 . S
C116 N113 1.279 . S
C116 C115 1.358 . S
C116 H119 0.930 . S
C117 C114 1.348 . S
C117 C115 1.356 . S
H118 C112 0.930 . S
H119 C116 0.930 . S
C120 C122 1.348 . S
C120 C123 1.356 . S
C120 O150 1.325 . S
N121 C124 1.314 . S
N121 C125 1.279 . S
C122 C120 1.348 . S
C122 C124 1.353 . S
C122 H164 0.929 . S
C123 C120 1.356 . S
C123 C125 1.358 . S
C123 H165 0.930 . S
C124 N121 1.314 . S
C124 C122 1.353 . S
C124 H166 0.930 . S
C125 N121 1.279 . S
C125 C123 1.358 . S
C125 H167 0.930 . S
C126 C127 1.348 . S
C126 C128 1.356 . S
C126 O151 1.325 . S
C127 C126 1.348 . S
C127 C129 1.353 . S
C127 H168 0.929 . S
C128 C126 1.356 . S
C128 C130 1.358 . S
C128 H169 0.930 . S
C129 C127 1.353 . S
C129 N131 1.314 . S
C129 H170 0.930 . S
C130 C128 1.358 . S
C130 N131 1.279 . S
C130 H171 0.930 . S
N131 C129 1.314 . S
N131 C130 1.279 . S
C132 C134 1.353 1_545 S
C132 N135 1.314 . S
C132 H138 0.930 . S
C133 N135 1.279 1_565 S
C133 C136 1.358 . S
C133 H139 0.930 . S
C134 C132 1.353 1_565 S
C134 C137 1.348 . S
C134 H172 0.929 . S
N135 Li90 1.990 . S
N135 C132 1.314 . S
N135 C133 1.279 1_545 S
C136 C133 1.358 . S
C136 C137 1.356 . S
C136 H173 0.930 . S
C137 C134 1.348 . S
C137 C136 1.356 . S
H138 C132 0.930 . S
H139 C133 0.930 . S
C140 N141 1.314 . S
C140 C142 1.353 . S
C140 H146 0.930 . S
N141 Li91 1.990 . S
N141 C140 1.314 . S
N141 C144 1.279 . S
C142 C140 1.353 . S
C142 C145 1.348 . S
C142 H174 0.929 . S
C143 C144 1.358 . S
C143 C145 1.356 . S
C143 H175 0.930 . S
C144 N141 1.279 . S
C144 C143 1.358 . S
C144 H147 0.930 . S
C145 C142 1.348 . S
C145 C143 1.356 . S
H146 C140 0.930 . S
H147 C144 0.930 . S
O148 Li88 1.956 . S
O148 Li89 1.970 . S
O148 Li90 1.961 . S
O148 C92 1.325 . S
O149 Li88 1.970 . S
O149 Li89 1.956 . S
O149 Li91 1.961 . S
O149 C98 1.325 . S
O150 Li88 1.961 . S
O150 Li90 1.956 . S
O150 Li91 1.970 . S
O150 C120 1.325 . S
O151 Li89 1.961 . S
O151 Li90 1.970 . S
O151 Li91 1.956 . S
O151 C126 1.325 . S
H152 C94 0.929 . S
H153 C95 0.930 . S
H154 C96 0.930 . S
H155 C97 0.930 . S
H156 C99 0.930 . S
H157 C101 0.929 . S
H158 C102 0.930 . S
H159 C103 0.930 . S
H160 C106 0.930 . S
H161 C109 0.929 . S
H162 C114 0.929 . S
H163 C115 0.930 . S
H164 C122 0.929 . S
H165 C123 0.930 . S
H166 C124 0.930 . S
H167 C125 0.930 . S
H168 C127 0.929 . S
H169 C128 0.930 . S
H170 C129 0.930 . S
H171 C130 0.930 . S
H172 C134 0.929 . S
H173 C136 0.930 . S
H174 C142 0.929 . S
H175 C143 0.930 . S
Li176 N193 1.990 . S
Li176 O236 1.956 . S
Li176 O237 1.970 . S
Li176 O238 1.961 . S
Li177 N201 1.990 . S
Li177 O236 1.970 . S
Li177 O237 1.956 . S
Li177 O239 1.961 . S
Li178 N223 1.990 . S
Li178 O236 1.961 . S
Li178 O238 1.956 . S
Li178 O239 1.970 . S
Li179 N229 1.990 . S
Li179 O237 1.961 . S
Li179 O238 1.970 . S
Li179 O239 1.956 . S
C180 C182 1.348 . S
C180 C183 1.356 . S
C180 O236 1.325 . S
N181 C184 1.314 . S
N181 C185 1.279 . S
C182 C180 1.348 . S
C182 C184 1.353 . S
C182 H240 0.929 . S
C183 C180 1.356 . S
C183 C185 1.358 . S
C183 H241 0.930 . S
C184 N181 1.314 . S
C184 C182 1.353 . S
C184 H242 0.930 . S
C185 N181 1.279 . S
C185 C183 1.358 . S
C185 H243 0.930 . S
C186 C189 1.348 . S
C186 C190 1.356 . S
C186 O237 1.325 . S
C187 N188 1.279 . S
C187 C190 1.358 . S
C187 H244 0.930 . S
N188 C187 1.279 . S
N188 C191 1.314 . S
C189 C186 1.348 . S
C189 C191 1.353 . S
C189 H245 0.929 . S
C190 C186 1.356 . S
C190 C187 1.358 . S
C190 H246 0.930 . S
C191 N188 1.314 . S
C191 C189 1.353 . S
C191 H247 0.930 . S
C192 N193 1.314 . S
C192 C197 1.353 . S
C192 H198 0.930 . S
N193 Li176 1.990 . S
N193 C192 1.314 . S
N193 C195 1.279 . S
C194 C195 1.358 . S
C194 C196 1.356 . S
C194 H248 0.930 . S
C195 N193 1.279 . S
C195 C194 1.358 . S
C195 H199 0.930 . S
C196 C194 1.356 . S
C196 C197 1.348 . S
C197 C192 1.353 . S
C197 C196 1.348 . S
C197 H249 0.929 . S
H198 C192 0.930 . S
H199 C195 0.930 . S
C200 N201 1.314 . S
C200 C202 1.353 . S
C200 H206 0.930 . S
N201 Li177 1.990 . S
N201 C200 1.314 . S
N201 C204 1.279 . S
C202 C200 1.353 . S
C202 C205 1.348 . S
C202 H250 0.929 . S
C203 C204 1.358 . S
C203 C205 1.356 . S
C203 H251 0.930 . S
C204 N201 1.279 . S
C204 C203 1.358 . S
C204 H207 0.930 . S
C205 C202 1.348 . S
C205 C203 1.356 . S
H206 C200 0.930 . S
H207 C204 0.930 . S
C208 C210 1.348 . S
C208 C211 1.356 . S
C208 O238 1.325 . S
N209 C212 1.314 . S
N209 C213 1.279 . S
C210 C208 1.348 . S
C210 C212 1.353 . S
C210 H252 0.929 . S
C211 C208 1.356 . S
C211 C213 1.358 . S
C211 H253 0.930 . S
C212 N209 1.314 . S
C212 C210 1.353 . S
C212 H254 0.930 . S
C213 N209 1.279 . S
C213 C211 1.358 . S
C213 H255 0.930 . S
C214 C215 1.348 . S
C214 C216 1.356 . S
C214 O239 1.325 . S
C215 C214 1.348 . S
C215 C217 1.353 . S
C215 H256 0.929 . S
C216 C214 1.356 . S
C216 C218 1.358 . S
C216 H257 0.930 . S
C217 C215 1.353 . S
C217 N219 1.314 . S
C217 H258 0.930 . S
C218 C216 1.358 . S
C218 N219 1.279 . S
C218 H259 0.930 . S
N219 C217 1.314 . S
N219 C218 1.279 . S
C220 C222 1.353 . S
C220 N223 1.314 . S
C220 H226 0.930 . S
C221 N223 1.279 . S
C221 C224 1.358 . S
C221 H227 0.930 . S
C222 C220 1.353 . S
C222 C225 1.348 . S
C222 H260 0.929 . S
N223 Li178 1.990 . S
N223 C220 1.314 . S
N223 C221 1.279 . S
C224 C221 1.358 . S
C224 C225 1.356 . S
C224 H261 0.930 . S
C225 C222 1.348 . S
C225 C224 1.356 . S
H226 C220 0.930 . S
H227 C221 0.930 . S
C228 N229 1.314 . S
C228 C230 1.353 . S
C228 H234 0.930 . S
N229 Li179 1.990 . S
N229 C228 1.314 . S
N229 C232 1.279 . S
C230 C228 1.353 . S
C230 C233 1.348 . S
C230 H262 0.929 . S
C231 C232 1.358 . S
C231 C233 1.356 . S
C231 H263 0.930 . S
C232 N229 1.279 . S
C232 C231 1.358 . S
C232 H235 0.930 . S
C233 C230 1.348 . S
C233 C231 1.356 . S
H234 C228 0.930 . S
H235 C232 0.930 . S
O236 Li176 1.956 . S
O236 Li177 1.970 . S
O236 Li178 1.961 . S
O236 C180 1.325 . S
O237 Li176 1.970 . S
O237 Li177 1.956 . S
O237 Li179 1.961 . S
O237 C186 1.325 . S
O238 Li176 1.961 . S
O238 Li178 1.956 . S
O238 Li179 1.970 . S
O238 C208 1.325 . S
O239 Li177 1.961 . S
O239 Li178 1.970 . S
O239 Li179 1.956 . S
O239 C214 1.325 . S
H240 C182 0.929 . S
H241 C183 0.930 . S
H242 C184 0.930 . S
H243 C185 0.930 . S
H244 C187 0.930 . S
H245 C189 0.929 . S
H246 C190 0.930 . S
H247 C191 0.930 . S
H248 C194 0.930 . S
H249 C197 0.929 . S
H250 C202 0.929 . S
H251 C203 0.930 . S
H252 C210 0.929 . S
H253 C211 0.930 . S
H254 C212 0.930 . S
H255 C213 0.930 . S
H256 C215 0.929 . S
H257 C216 0.930 . S
H258 C217 0.930 . S
H259 C218 0.930 . S
H260 C222 0.929 . S
H261 C224 0.930 . S
H262 C230 0.929 . S
H263 C231 0.930 . S
Li264 N281 1.990 . S
Li264 O324 1.956 . S
Li264 O325 1.970 . S
Li264 O326 1.961 . S
Li265 N289 1.990 . S
Li265 O324 1.970 . S
Li265 O325 1.956 . S
Li265 O327 1.961 . S
Li266 N311 1.990 . S
Li266 O324 1.961 . S
Li266 O326 1.956 . S
Li266 O327 1.970 . S
Li267 N317 1.990 . S
Li267 O325 1.961 . S
Li267 O326 1.970 . S
Li267 O327 1.956 . S
C268 C270 1.348 . S
C268 C271 1.356 . S
C268 O324 1.325 . S
N269 C272 1.314 . S
N269 C273 1.279 . S
C270 C268 1.348 . S
C270 C272 1.353 . S
C270 H328 0.929 . S
C271 C268 1.356 . S
C271 C273 1.358 . S
C271 H329 0.930 . S
C272 N269 1.314 . S
C272 C270 1.353 . S
C272 H330 0.930 . S
C273 N269 1.279 . S
C273 C271 1.358 . S
C273 H331 0.930 . S
C274 C277 1.348 . S
C274 C278 1.356 . S
C274 O325 1.325 . S
C275 N276 1.279 . S
C275 C278 1.358 . S
C275 H332 0.930 . S
N276 C275 1.279 . S
N276 C279 1.314 . S
C277 C274 1.348 . S
C277 C279 1.353 . S
C277 H333 0.929 . S
C278 C274 1.356 . S
C278 C275 1.358 . S
C278 H334 0.930 . S
C279 N276 1.314 . S
C279 C277 1.353 . S
C279 H335 0.930 . S
C280 N281 1.314 . S
C280 C285 1.353 1_655 S
C280 H286 0.930 . S
N281 Li264 1.990 . S
N281 C280 1.314 . S
N281 C283 1.279 1_655 S
C282 C283 1.358 . S
C282 C284 1.356 . S
C282 H336 0.930 . S
C283 N281 1.279 1_455 S
C283 C282 1.358 . S
C283 H287 0.930 . S
C284 C282 1.356 . S
C284 C285 1.348 . S
C285 C280 1.353 1_455 S
C285 C284 1.348 . S
C285 H337 0.929 . S
H286 C280 0.930 . S
H287 C283 0.930 . S
C288 N289 1.314 . S
C288 C290 1.353 . S
C288 H294 0.930 . S
N289 Li265 1.990 . S
N289 C288 1.314 . S
N289 C292 1.279 . S
C290 C288 1.353 . S
C290 C293 1.348 . S
C290 H338 0.929 . S
C291 C292 1.358 . S
C291 C293 1.356 . S
C291 H339 0.930 . S
C292 N289 1.279 . S
C292 C291 1.358 . S
C292 H295 0.930 . S
C293 C290 1.348 . S
C293 C291 1.356 . S
H294 C288 0.930 . S
H295 C292 0.930 . S
C296 C298 1.348 . S
C296 C299 1.356 . S
C296 O326 1.325 . S
N297 C300 1.314 . S
N297 C301 1.279 . S
C298 C296 1.348 . S
C298 C300 1.353 . S
C298 H340 0.929 . S
C299 C296 1.356 . S
C299 C301 1.358 . S
C299 H341 0.930 . S
C300 N297 1.314 . S
C300 C298 1.353 . S
C300 H342 0.930 . S
C301 N297 1.279 . S
C301 C299 1.358 . S
C301 H343 0.930 . S
C302 C303 1.348 . S
C302 C304 1.356 . S
C302 O327 1.325 . S
C303 C302 1.348 . S
C303 C305 1.353 . S
C303 H344 0.929 . S
C304 C302 1.356 . S
C304 C306 1.358 . S
C304 H345 0.930 . S
C305 C303 1.353 . S
C305 N307 1.314 . S
C305 H346 0.930 . S
C306 C304 1.358 . S
C306 N307 1.279 . S
C306 H347 0.930 . S
N307 C305 1.314 . S
N307 C306 1.279 . S
C308 C310 1.353 . S
C308 N311 1.314 . S
C308 H314 0.930 . S
C309 N311 1.279 . S
C309 C312 1.358 . S
C309 H315 0.930 . S
C310 C308 1.353 . S
C310 C313 1.348 . S
C310 H348 0.929 . S
N311 Li266 1.990 . S
N311 C308 1.314 . S
N311 C309 1.279 . S
C312 C309 1.358 . S
C312 C313 1.356 . S
C312 H349 0.930 . S
C313 C310 1.348 . S
C313 C312 1.356 . S
H314 C308 0.930 . S
H315 C309 0.930 . S
C316 N317 1.314 . S
C316 C318 1.353 . S
C316 H322 0.930 . S
N317 Li267 1.990 . S
N317 C316 1.314 . S
N317 C320 1.279 . S
C318 C316 1.353 . S
C318 C321 1.348 . S
C318 H350 0.929 . S
C319 C320 1.358 . S
C319 C321 1.356 . S
C319 H351 0.930 . S
C320 N317 1.279 . S
C320 C319 1.358 . S
C320 H323 0.930 . S
C321 C318 1.348 . S
C321 C319 1.356 . S
H322 C316 0.930 . S
H323 C320 0.930 . S
O324 Li264 1.956 . S
O324 Li265 1.970 . S
O324 Li266 1.961 . S
O324 C268 1.325 . S
O325 Li264 1.970 . S
O325 Li265 1.956 . S
O325 Li267 1.961 . S
O325 C274 1.325 . S
O326 Li264 1.961 . S
O326 Li266 1.956 . S
O326 Li267 1.970 . S
O326 C296 1.325 . S
O327 Li265 1.961 . S
O327 Li266 1.970 . S
O327 Li267 1.956 . S
O327 C302 1.325 . S
H328 C270 0.929 . S
H329 C271 0.930 . S
H330 C272 0.930 . S
H331 C273 0.930 . S
H332 C275 0.930 . S
H333 C277 0.929 . S
H334 C278 0.930 . S
H335 C279 0.930 . S
H336 C282 0.930 . S
H337 C285 0.929 . S
H338 C290 0.929 . S
H339 C291 0.930 . S
H340 C298 0.929 . S
H341 C299 0.930 . S
H342 C300 0.930 . S
H343 C301 0.930 . S
H344 C303 0.929 . S
H345 C304 0.930 . S
H346 C305 0.930 . S
H347 C306 0.930 . S
H348 C310 0.929 . S
H349 C312 0.930 . S
H350 C318 0.929 . S
H351 C319 0.930 . S
Li352 N369 1.990 . S
Li352 O412 1.956 . S
Li352 O413 1.970 . S
Li352 O414 1.961 . S
Li353 N377 1.990 . S
Li353 O412 1.970 . S
Li353 O413 1.956 . S
Li353 O415 1.961 . S
Li354 N399 1.990 . S
Li354 O412 1.961 . S
Li354 O414 1.956 . S
Li354 O415 1.970 . S
Li355 N405 1.990 . S
Li355 O413 1.961 . S
Li355 O414 1.970 . S
Li355 O415 1.956 . S
C356 C358 1.348 . S
C356 C359 1.356 . S
C356 O412 1.325 . S
N357 C360 1.314 . S
N357 C361 1.279 . S
C358 C356 1.348 . S
C358 C360 1.353 . S
C358 H416 0.929 . S
C359 C356 1.356 . S
C359 C361 1.358 . S
C359 H417 0.930 . S
C360 N357 1.314 . S
C360 C358 1.353 . S
C360 H418 0.930 . S
C361 N357 1.279 . S
C361 C359 1.358 . S
C361 H419 0.930 . S
C362 C365 1.348 . S
C362 C366 1.356 . S
C362 O413 1.325 . S
C363 N364 1.279 . S
C363 C366 1.358 . S
C363 H420 0.930 . S
N364 C363 1.279 . S
N364 C367 1.314 . S
C365 C362 1.348 . S
C365 C367 1.353 . S
C365 H421 0.929 . S
C366 C362 1.356 . S
C366 C363 1.358 . S
C366 H422 0.930 . S
C367 N364 1.314 . S
C367 C365 1.353 . S
C367 H423 0.930 . S
C368 N369 1.314 . S
C368 C373 1.353 . S
C368 H374 0.930 . S
N369 Li352 1.990 . S
N369 C368 1.314 . S
N369 C371 1.279 . S
C370 C371 1.358 . S
C370 C372 1.356 . S
C370 H424 0.930 . S
C371 N369 1.279 . S
C371 C370 1.358 . S
C371 H375 0.930 . S
C372 C370 1.356 . S
C372 C373 1.348 . S
C373 C368 1.353 . S
C373 C372 1.348 . S
C373 H425 0.929 . S
H374 C368 0.930 . S
H375 C371 0.930 . S
C376 N377 1.314 . S
C376 C378 1.353 1_565 S
C376 H382 0.930 . S
N377 Li353 1.990 . S
N377 C376 1.314 . S
N377 C380 1.279 1_565 S
C378 C376 1.353 1_545 S
C378 C381 1.348 . S
C378 H426 0.929 . S
C379 C380 1.358 . S
C379 C381 1.356 . S
C379 H427 0.930 . S
C380 N377 1.279 1_545 S
C380 C379 1.358 . S
C380 H383 0.930 . S
C381 C378 1.348 . S
C381 C379 1.356 . S
H382 C376 0.930 . S
H383 C380 0.930 . S
C384 C386 1.348 . S
C384 C387 1.356 . S
C384 O414 1.325 . S
N385 C388 1.314 . S
N385 C389 1.279 . S
C386 C384 1.348 . S
C386 C388 1.353 . S
C386 H428 0.929 . S
C387 C384 1.356 . S
C387 C389 1.358 . S
C387 H429 0.930 . S
C388 N385 1.314 . S
C388 C386 1.353 . S
C388 H430 0.930 . S
C389 N385 1.279 . S
C389 C387 1.358 . S
C389 H431 0.930 . S
C390 C391 1.348 . S
C390 C392 1.356 . S
C390 O415 1.325 . S
C391 C390 1.348 . S
C391 C393 1.353 . S
C391 H432 0.929 . S
C392 C390 1.356 . S
C392 C394 1.358 . S
C392 H433 0.930 . S
C393 C391 1.353 . S
C393 N395 1.314 . S
C393 H434 0.930 . S
C394 C392 1.358 . S
C394 N395 1.279 . S
C394 H435 0.930 . S
N395 C393 1.314 . S
N395 C394 1.279 . S
C396 C398 1.353 . S
C396 N399 1.314 . S
C396 H402 0.930 . S
C397 N399 1.279 . S
C397 C400 1.358 . S
C397 H403 0.930 . S
C398 C396 1.353 . S
C398 C401 1.348 . S
C398 H436 0.929 . S
N399 Li354 1.990 . S
N399 C396 1.314 . S
N399 C397 1.279 . S
C400 C397 1.358 . S
C400 C401 1.356 . S
C400 H437 0.930 . S
C401 C398 1.348 . S
C401 C400 1.356 . S
H402 C396 0.930 . S
H403 C397 0.930 . S
C404 N405 1.314 . S
C404 C406 1.353 . S
C404 H410 0.930 . S
N405 Li355 1.990 . S
N405 C404 1.314 . S
N405 C408 1.279 . S
C406 C404 1.353 . S
C406 C409 1.348 . S
C406 H438 0.929 . S
C407 C408 1.358 . S
C407 C409 1.356 . S
C407 H439 0.930 . S
C408 N405 1.279 . S
C408 C407 1.358 . S
C408 H411 0.930 . S
C409 C406 1.348 . S
C409 C407 1.356 . S
H410 C404 0.930 . S
H411 C408 0.930 . S
O412 Li352 1.956 . S
O412 Li353 1.970 . S
O412 Li354 1.961 . S
O412 C356 1.325 . S
O413 Li352 1.970 . S
O413 Li353 1.956 . S
O413 Li355 1.961 . S
O413 C362 1.325 . S
O414 Li352 1.961 . S
O414 Li354 1.956 . S
O414 Li355 1.970 . S
O414 C384 1.325 . S
O415 Li353 1.961 . S
O415 Li354 1.970 . S
O415 Li355 1.956 . S
O415 C390 1.325 . S
H416 C358 0.929 . S
H417 C359 0.930 . S
H418 C360 0.930 . S
H419 C361 0.930 . S
H420 C363 0.930 . S
H421 C365 0.929 . S
H422 C366 0.930 . S
H423 C367 0.930 . S
H424 C370 0.930 . S
H425 C373 0.929 . S
H426 C378 0.929 . S
H427 C379 0.930 . S
H428 C386 0.929 . S
H429 C387 0.930 . S
H430 C388 0.930 . S
H431 C389 0.930 . S
H432 C391 0.929 . S
H433 C392 0.930 . S
H434 C393 0.930 . S
H435 C394 0.930 . S
H436 C398 0.929 . S
H437 C400 0.930 . S
H438 C406 0.929 . S
H439 C407 0.930 . S
Li440 N457 1.990 . S
Li440 O500 1.956 . S
Li440 O501 1.970 . S
Li440 O502 1.961 . S
Li441 N465 1.990 . S
Li441 O500 1.970 . S
Li441 O501 1.956 . S
Li441 O503 1.961 . S
Li442 N487 1.990 . S
Li442 O500 1.961 . S
Li442 O502 1.956 . S
Li442 O503 1.970 . S
Li443 N493 1.990 . S
Li443 O501 1.961 . S
Li443 O502 1.970 . S
Li443 O503 1.956 . S
C444 C446 1.348 . S
C444 C447 1.356 . S
C444 O500 1.325 . S
N445 C448 1.314 1_554 S
N445 C449 1.279 . S
C446 C444 1.348 . S
C446 C448 1.353 . S
C446 H504 0.929 . S
C447 C444 1.356 . S
C447 C449 1.358 1_556 S
C447 H505 0.930 . S
C448 N445 1.314 1_556 S
C448 C446 1.353 . S
C448 H506 0.930 . S
C449 N445 1.279 . S
C449 C447 1.358 1_554 S
C449 H507 0.930 . S
C450 C453 1.348 . S
C450 C454 1.356 . S
C450 O501 1.325 . S
C451 N452 1.279 . S
C451 C454 1.358 . S
C451 H508 0.930 . S
N452 C451 1.279 . S
N452 C455 1.314 . S
C453 C450 1.348 . S
C453 C455 1.353 . S
C453 H509 0.929 . S
C454 C450 1.356 . S
C454 C451 1.358 . S
C454 H510 0.930 . S
C455 N452 1.314 . S
C455 C453 1.353 . S
C455 H511 0.930 . S
C456 N457 1.314 . S
C456 C461 1.353 . S
C456 H462 0.930 . S
N457 Li440 1.990 . S
N457 C456 1.314 . S
N457 C459 1.279 . S
C458 C459 1.358 . S
C458 C460 1.356 . S
C458 H512 0.930 . S
C459 N457 1.279 . S
C459 C458 1.358 . S
C459 H463 0.930 . S
C460 C458 1.356 . S
C460 C461 1.348 . S
C461 C456 1.353 . S
C461 C460 1.348 . S
C461 H513 0.929 . S
H462 C456 0.930 . S
H463 C459 0.930 . S
C464 N465 1.314 . S
C464 C466 1.353 . S
C464 H470 0.930 . S
N465 Li441 1.990 . S
N465 C464 1.314 . S
N465 C468 1.279 . S
C466 C464 1.353 . S
C466 C469 1.348 . S
C466 H514 0.929 . S
C467 C468 1.358 . S
C467 C469 1.356 . S
C467 H515 0.930 . S
C468 N465 1.279 . S
C468 C467 1.358 . S
C468 H471 0.930 . S
C469 C466 1.348 . S
C469 C467 1.356 . S
H470 C464 0.930 . S
H471 C468 0.930 . S
C472 C474 1.348 . S
C472 C475 1.356 . S
C472 O502 1.325 . S
N473 C476 1.314 . S
N473 C477 1.279 . S
C474 C472 1.348 . S
C474 C476 1.353 . S
C474 H516 0.929 . S
C475 C472 1.356 . S
C475 C477 1.358 . S
C475 H517 0.930 . S
C476 N473 1.314 . S
C476 C474 1.353 . S
C476 H518 0.930 . S
C477 N473 1.279 . S
C477 C475 1.358 . S
C477 H519 0.930 . S
C478 C479 1.348 . S
C478 C480 1.356 . S
C478 O503 1.325 . S
C479 C478 1.348 . S
C479 C481 1.353 . S
C479 H520 0.929 . S
C480 C478 1.356 . S
C480 C482 1.358 . S
C480 H521 0.930 . S
C481 C479 1.353 . S
C481 N483 1.314 . S
C481 H522 0.930 . S
C482 C480 1.358 . S
C482 N483 1.279 . S
C482 H523 0.930 . S
N483 C481 1.314 . S
N483 C482 1.279 . S
C484 C486 1.353 . S
C484 N487 1.314 1_554 S
C484 H490 0.930 . S
C485 N487 1.279 . S
C485 C488 1.358 1_556 S
C485 H491 0.930 . S
C486 C484 1.353 . S
C486 C489 1.348 . S
C486 H524 0.929 . S
N487 Li442 1.990 . S
N487 C484 1.314 1_556 S
N487 C485 1.279 . S
C488 C485 1.358 1_554 S
C488 C489 1.356 . S
C488 H525 0.930 . S
C489 C486 1.348 . S
C489 C488 1.356 . S
H490 C484 0.930 . S
H491 C485 0.930 . S
C492 N493 1.314 . S
C492 C494 1.353 . S
C492 H498 0.930 . S
N493 Li443 1.990 . S
N493 C492 1.314 . S
N493 C496 1.279 . S
C494 C492 1.353 . S
C494 C497 1.348 . S
C494 H526 0.929 . S
C495 C496 1.358 . S
C495 C497 1.356 . S
C495 H527 0.930 . S
C496 N493 1.279 . S
C496 C495 1.358 . S
C496 H499 0.930 . S
C497 C494 1.348 . S
C497 C495 1.356 . S
H498 C492 0.930 . S
H499 C496 0.930 . S
O500 Li440 1.956 . S
O500 Li441 1.970 . S
O500 Li442 1.961 . S
O500 C444 1.325 . S
O501 Li440 1.970 . S
O501 Li441 1.956 . S
O501 Li443 1.961 . S
O501 C450 1.325 . S
O502 Li440 1.961 . S
O502 Li442 1.956 . S
O502 Li443 1.970 . S
O502 C472 1.325 . S
O503 Li441 1.961 . S
O503 Li442 1.970 . S
O503 Li443 1.956 . S
O503 C478 1.325 . S
H504 C446 0.929 . S
H505 C447 0.930 . S
H506 C448 0.930 . S
H507 C449 0.930 . S
H508 C451 0.930 . S
H509 C453 0.929 . S
H510 C454 0.930 . S
H511 C455 0.930 . S
H512 C458 0.930 . S
H513 C461 0.929 . S
H514 C466 0.929 . S
H515 C467 0.930 . S
H516 C474 0.929 . S
H517 C475 0.930 . S
H518 C476 0.930 . S
H519 C477 0.930 . S
H520 C479 0.929 . S
H521 C480 0.930 . S
H522 C481 0.930 . S
H523 C482 0.930 . S
H524 C486 0.929 . S
H525 C488 0.930 . S
H526 C494 0.929 . S
H527 C495 0.930 . S
Li528 N545 1.990 . S
Li528 O588 1.956 . S
Li528 O589 1.970 . S
Li528 O590 1.961 . S
Li529 N553 1.990 . S
Li529 O588 1.970 . S
Li529 O589 1.956 . S
Li529 O591 1.961 . S
Li530 N575 1.990 . S
Li530 O588 1.961 . S
Li530 O590 1.956 . S
Li530 O591 1.970 . S
Li531 N581 1.990 . S
Li531 O589 1.961 . S
Li531 O590 1.970 . S
Li531 O591 1.956 . S
C532 C534 1.348 . S
C532 C535 1.356 . S
C532 O588 1.325 . S
N533 C536 1.314 . S
N533 C537 1.279 . S
C534 C532 1.348 . S
C534 C536 1.353 . S
C534 H592 0.929 . S
C535 C532 1.356 . S
C535 C537 1.358 . S
C535 H593 0.930 . S
C536 N533 1.314 . S
C536 C534 1.353 . S
C536 H594 0.930 . S
C537 N533 1.279 . S
C537 C535 1.358 . S
C537 H595 0.930 . S
C538 C541 1.348 . S
C538 C542 1.356 . S
C538 O589 1.325 . S
C539 N540 1.279 . S
C539 C542 1.358 . S
C539 H596 0.930 . S
N540 C539 1.279 . S
N540 C543 1.314 . S
C541 C538 1.348 . S
C541 C543 1.353 . S
C541 H597 0.929 . S
C542 C538 1.356 . S
C542 C539 1.358 . S
C542 H598 0.930 . S
C543 N540 1.314 . S
C543 C541 1.353 . S
C543 H599 0.930 . S
C544 N545 1.314 . S
C544 C549 1.353 1_565 S
C544 H550 0.930 . S
N545 Li528 1.990 . S
N545 C544 1.314 . S
N545 C547 1.279 1_565 S
C546 C547 1.358 . S
C546 C548 1.356 . S
C546 H600 0.930 . S
C547 N545 1.279 1_545 S
C547 C546 1.358 . S
C547 H551 0.930 . S
C548 C546 1.356 . S
C548 C549 1.348 . S
C549 C544 1.353 1_545 S
C549 C548 1.348 . S
C549 H601 0.929 . S
H550 C544 0.930 . S
H551 C547 0.930 . S
C552 N553 1.314 . S
C552 C554 1.353 . S
C552 H558 0.930 . S
N553 Li529 1.990 . S
N553 C552 1.314 . S
N553 C556 1.279 . S
C554 C552 1.353 . S
C554 C557 1.348 . S
C554 H602 0.929 . S
C555 C556 1.358 . S
C555 C557 1.356 . S
C555 H603 0.930 . S
C556 N553 1.279 . S
C556 C555 1.358 . S
C556 H559 0.930 . S
C557 C554 1.348 . S
C557 C555 1.356 . S
H558 C552 0.930 . S
H559 C556 0.930 . S
C560 C562 1.348 . S
C560 C563 1.356 . S
C560 O590 1.325 . S
N561 C564 1.314 . S
N561 C565 1.279 . S
C562 C560 1.348 . S
C562 C564 1.353 . S
C562 H604 0.929 . S
C563 C560 1.356 . S
C563 C565 1.358 . S
C563 H605 0.930 . S
C564 N561 1.314 . S
C564 C562 1.353 . S
C564 H606 0.930 . S
C565 N561 1.279 . S
C565 C563 1.358 . S
C565 H607 0.930 . S
C566 C567 1.348 . S
C566 C568 1.356 . S
C566 O591 1.325 . S
C567 C566 1.348 . S
C567 C569 1.353 . S
C567 H608 0.929 . S
C568 C566 1.356 . S
C568 C570 1.358 . S
C568 H609 0.930 . S
C569 C567 1.353 . S
C569 N571 1.314 . S
C569 H610 0.930 . S
C570 C568 1.358 . S
C570 N571 1.279 . S
C570 H611 0.930 . S
N571 C569 1.314 . S
N571 C570 1.279 . S
C572 C574 1.353 . S
C572 N575 1.314 . S
C572 H578 0.930 . S
C573 N575 1.279 . S
C573 C576 1.358 . S
C573 H579 0.930 . S
C574 C572 1.353 . S
C574 C577 1.348 . S
C574 H612 0.929 . S
N575 Li530 1.990 . S
N575 C572 1.314 . S
N575 C573 1.279 . S
C576 C573 1.358 . S
C576 C577 1.356 . S
C576 H613 0.930 . S
C577 C574 1.348 . S
C577 C576 1.356 . S
H578 C572 0.930 . S
H579 C573 0.930 . S
C580 N581 1.314 . S
C580 C582 1.353 . S
C580 H586 0.930 . S
N581 Li531 1.990 . S
N581 C580 1.314 . S
N581 C584 1.279 . S
C582 C580 1.353 . S
C582 C585 1.348 . S
C582 H614 0.929 . S
C583 C584 1.358 . S
C583 C585 1.356 . S
C583 H615 0.930 . S
C584 N581 1.279 . S
C584 C583 1.358 . S
C584 H587 0.930 . S
C585 C582 1.348 . S
C585 C583 1.356 . S
H586 C580 0.930 . S
H587 C584 0.930 . S
O588 Li528 1.956 . S
O588 Li529 1.970 . S
O588 Li530 1.961 . S
O588 C532 1.325 . S
O589 Li528 1.970 . S
O589 Li529 1.956 . S
O589 Li531 1.961 . S
O589 C538 1.325 . S
O590 Li528 1.961 . S
O590 Li530 1.956 . S
O590 Li531 1.970 . S
O590 C560 1.325 . S
O591 Li529 1.961 . S
O591 Li530 1.970 . S
O591 Li531 1.956 . S
O591 C566 1.325 . S
H592 C534 0.929 . S
H593 C535 0.930 . S
H594 C536 0.930 . S
H595 C537 0.930 . S
H596 C539 0.930 . S
H597 C541 0.929 . S
H598 C542 0.930 . S
H599 C543 0.930 . S
H600 C546 0.930 . S
H601 C549 0.929 . S
H602 C554 0.929 . S
H603 C555 0.930 . S
H604 C562 0.929 . S
H605 C563 0.930 . S
H606 C564 0.930 . S
H607 C565 0.930 . S
H608 C567 0.929 . S
H609 C568 0.930 . S
H610 C569 0.930 . S
H611 C570 0.930 . S
H612 C574 0.929 . S
H613 C576 0.930 . S
H614 C582 0.929 . S
H615 C583 0.930 . S
Li616 N633 1.990 . S
Li616 O676 1.956 . S
Li616 O677 1.970 . S
Li616 O678 1.961 . S
Li617 N641 1.990 . S
Li617 O676 1.970 . S
Li617 O677 1.956 . S
Li617 O679 1.961 . S
Li618 N663 1.990 . S
Li618 O676 1.961 . S
Li618 O678 1.956 . S
Li618 O679 1.970 . S
Li619 N669 1.990 . S
Li619 O677 1.961 . S
Li619 O678 1.970 . S
Li619 O679 1.956 . S
C620 C622 1.348 . S
C620 C623 1.356 . S
C620 O676 1.325 . S
N621 C624 1.314 . S
N621 C625 1.279 . S
C622 C620 1.348 . S
C622 C624 1.353 . S
C622 H680 0.929 . S
C623 C620 1.356 . S
C623 C625 1.358 . S
C623 H681 0.930 . S
C624 N621 1.314 . S
C624 C622 1.353 . S
C624 H682 0.930 . S
C625 N621 1.279 . S
C625 C623 1.358 . S
C625 H683 0.930 . S
C626 C629 1.348 . S
C626 C630 1.356 . S
C626 O677 1.325 . S
C627 N628 1.279 . S
C627 C630 1.358 . S
C627 H684 0.930 . S
N628 C627 1.279 . S
N628 C631 1.314 . S
C629 C626 1.348 . S
C629 C631 1.353 . S
C629 H685 0.929 . S
C630 C626 1.356 . S
C630 C627 1.358 . S
C630 H686 0.930 . S
C631 N628 1.314 . S
C631 C629 1.353 . S
C631 H687 0.930 . S
C632 N633 1.314 . S
C632 C637 1.353 . S
C632 H638 0.930 . S
N633 Li616 1.990 . S
N633 C632 1.314 . S
N633 C635 1.279 . S
C634 C635 1.358 . S
C634 C636 1.356 . S
C634 H688 0.930 . S
C635 N633 1.279 . S
C635 C634 1.358 . S
C635 H639 0.930 . S
C636 C634 1.356 . S
C636 C637 1.348 . S
C637 C632 1.353 . S
C637 C636 1.348 . S
C637 H689 0.929 . S
H638 C632 0.930 . S
H639 C635 0.930 . S
C640 N641 1.314 . S
C640 C642 1.353 . S
C640 H646 0.930 . S
N641 Li617 1.990 . S
N641 C640 1.314 . S
N641 C644 1.279 . S
C642 C640 1.353 . S
C642 C645 1.348 . S
C642 H690 0.929 . S
C643 C644 1.358 . S
C643 C645 1.356 . S
C643 H691 0.930 . S
C644 N641 1.279 . S
C644 C643 1.358 . S
C644 H647 0.930 . S
C645 C642 1.348 . S
C645 C643 1.356 . S
H646 C640 0.930 . S
H647 C644 0.930 . S
C648 C650 1.348 . S
C648 C651 1.356 . S
C648 O678 1.325 . S
N649 C652 1.314 . S
N649 C653 1.279 . S
C650 C648 1.348 . S
C650 C652 1.353 . S
C650 H692 0.929 . S
C651 C648 1.356 . S
C651 C653 1.358 . S
C651 H693 0.930 . S
C652 N649 1.314 . S
C652 C650 1.353 . S
C652 H694 0.930 . S
C653 N649 1.279 . S
C653 C651 1.358 . S
C653 H695 0.930 . S
C654 C655 1.348 . S
C654 C656 1.356 . S
C654 O679 1.325 . S
C655 C654 1.348 . S
C655 C657 1.353 . S
C655 H696 0.929 . S
C656 C654 1.356 . S
C656 C658 1.358 . S
C656 H697 0.930 . S
C657 C655 1.353 . S
C657 N659 1.314 . S
C657 H698 0.930 . S
C658 C656 1.358 . S
C658 N659 1.279 . S
C658 H699 0.930 . S
N659 C657 1.314 . S
N659 C658 1.279 . S
C660 C662 1.353 . S
C660 N663 1.314 . S
C660 H666 0.930 . S
C661 N663 1.279 . S
C661 C664 1.358 . S
C661 H667 0.930 . S
C662 C660 1.353 . S
C662 C665 1.348 . S
C662 H700 0.929 . S
N663 Li618 1.990 . S
N663 C660 1.314 . S
N663 C661 1.279 . S
C664 C661 1.358 . S
C664 C665 1.356 . S
C664 H701 0.930 . S
C665 C662 1.348 . S
C665 C664 1.356 . S
H666 C660 0.930 . S
H667 C661 0.930 . S
C668 N669 1.314 . S
C668 C670 1.353 . S
C668 H674 0.930 . S
N669 Li619 1.990 . S
N669 C668 1.314 . S
N669 C672 1.279 . S
C670 C668 1.353 . S
C670 C673 1.348 . S
C670 H702 0.929 . S
C671 C672 1.358 . S
C671 C673 1.356 . S
C671 H703 0.930 . S
C672 N669 1.279 . S
C672 C671 1.358 . S
C672 H675 0.930 . S
C673 C670 1.348 . S
C673 C671 1.356 . S
H674 C668 0.930 . S
H675 C672 0.930 . S
O676 Li616 1.956 . S
O676 Li617 1.970 . S
O676 Li618 1.961 . S
O676 C620 1.325 . S
O677 Li616 1.970 . S
O677 Li617 1.956 . S
O677 Li619 1.961 . S
O677 C626 1.325 . S
O678 Li616 1.961 . S
O678 Li618 1.956 . S
O678 Li619 1.970 . S
O678 C648 1.325 . S
O679 Li617 1.961 . S
O679 Li618 1.970 . S
O679 Li619 1.956 . S
O679 C654 1.325 . S
H680 C622 0.929 . S
H681 C623 0.930 . S
H682 C624 0.930 . S
H683 C625 0.930 . S
H684 C627 0.930 . S
H685 C629 0.929 . S
H686 C630 0.930 . S
H687 C631 0.930 . S
H688 C634 0.930 . S
H689 C637 0.929 . S
H690 C642 0.929 . S
H691 C643 0.930 . S
H692 C650 0.929 . S
H693 C651 0.930 . S
H694 C652 0.930 . S
H695 C653 0.930 . S
H696 C655 0.929 . S
H697 C656 0.930 . S
H698 C657 0.930 . S
H699 C658 0.930 . S
H700 C662 0.929 . S
H701 C664 0.930 . S
H702 C670 0.929 . S
H703 C671 0.930 . S
Li704 N721 1.990 . S
Li704 O764 1.956 . S
Li704 O765 1.970 . S
Li704 O766 1.961 . S
Li705 N729 1.990 . S
Li705 O764 1.970 . S
Li705 O765 1.956 . S
Li705 O767 1.961 . S
Li706 N751 1.990 . S
Li706 O764 1.961 . S
Li706 O766 1.956 . S
Li706 O767 1.970 . S
Li707 N757 1.990 . S
Li707 O765 1.961 . S
Li707 O766 1.970 . S
Li707 O767 1.956 . S
C708 C710 1.348 . S
C708 C711 1.356 . S
C708 O764 1.325 . S
N709 C712 1.314 . S
N709 C713 1.279 . S
C710 C708 1.348 . S
C710 C712 1.353 . S
C710 H768 0.929 . S
C711 C708 1.356 . S
C711 C713 1.358 . S
C711 H769 0.930 . S
C712 N709 1.314 . S
C712 C710 1.353 . S
C712 H770 0.930 . S
C713 N709 1.279 . S
C713 C711 1.358 . S
C713 H771 0.930 . S
C714 C717 1.348 . S
C714 C718 1.356 . S
C714 O765 1.325 . S
C715 N716 1.279 . S
C715 C718 1.358 . S
C715 H772 0.930 . S
N716 C715 1.279 . S
N716 C719 1.314 . S
C717 C714 1.348 . S
C717 C719 1.353 . S
C717 H773 0.929 . S
C718 C714 1.356 . S
C718 C715 1.358 . S
C718 H774 0.930 . S
C719 N716 1.314 . S
C719 C717 1.353 . S
C719 H775 0.930 . S
C720 N721 1.314 1_556 S
C720 C725 1.353 . S
C720 H726 0.930 . S
N721 Li704 1.990 . S
N721 C720 1.314 1_554 S
N721 C723 1.279 . S
C722 C723 1.358 1_556 S
C722 C724 1.356 . S
C722 H776 0.930 . S
C723 N721 1.279 . S
C723 C722 1.358 1_554 S
C723 H727 0.930 . S
C724 C722 1.356 . S
C724 C725 1.348 . S
C725 C720 1.353 . S
C725 C724 1.348 . S
C725 H777 0.929 . S
H726 C720 0.930 . S
H727 C723 0.930 . S
C728 N729 1.314 . S
C728 C730 1.353 . S
C728 H734 0.930 . S
N729 Li705 1.990 . S
N729 C728 1.314 . S
N729 C732 1.279 . S
C730 C728 1.353 . S
C730 C733 1.348 . S
C730 H778 0.929 . S
C731 C732 1.358 . S
C731 C733 1.356 . S
C731 H779 0.930 . S
C732 N729 1.279 . S
C732 C731 1.358 . S
C732 H735 0.930 . S
C733 C730 1.348 . S
C733 C731 1.356 . S
H734 C728 0.930 . S
H735 C732 0.930 . S
C736 C738 1.348 . S
C736 C739 1.356 . S
C736 O766 1.325 . S
N737 C740 1.314 1_556 S
N737 C741 1.279 . S
C738 C736 1.348 . S
C738 C740 1.353 . S
C738 H780 0.929 . S
C739 C736 1.356 . S
C739 C741 1.358 1_554 S
C739 H781 0.930 . S
C740 N737 1.314 1_554 S
C740 C738 1.353 . S
C740 H782 0.930 . S
C741 N737 1.279 . S
C741 C739 1.358 1_556 S
C741 H783 0.930 . S
C742 C743 1.348 . S
C742 C744 1.356 . S
C742 O767 1.325 . S
C743 C742 1.348 . S
C743 C745 1.353 . S
C743 H784 0.929 . S
C744 C742 1.356 . S
C744 C746 1.358 . S
C744 H785 0.930 . S
C745 C743 1.353 . S
C745 N747 1.314 . S
C745 H786 0.930 . S
C746 C744 1.358 . S
C746 N747 1.279 . S
C746 H787 0.930 . S
N747 C745 1.314 . S
N747 C746 1.279 . S
C748 C750 1.353 . S
C748 N751 1.314 . S
C748 H754 0.930 . S
C749 N751 1.279 . S
C749 C752 1.358 . S
C749 H755 0.930 . S
C750 C748 1.353 . S
C750 C753 1.348 . S
C750 H788 0.929 . S
N751 Li706 1.990 . S
N751 C748 1.314 . S
N751 C749 1.279 . S
C752 C749 1.358 . S
C752 C753 1.356 . S
C752 H789 0.930 . S
C753 C750 1.348 . S
C753 C752 1.356 . S
H754 C748 0.930 . S
H755 C749 0.930 . S
C756 N757 1.314 . S
C756 C758 1.353 1_455 S
C756 H762 0.930 . S
N757 Li707 1.990 . S
N757 C756 1.314 . S
N757 C760 1.279 1_455 S
C758 C756 1.353 1_655 S
C758 C761 1.348 . S
C758 H790 0.929 . S
C759 C760 1.358 . S
C759 C761 1.356 . S
C759 H791 0.930 . S
C760 N757 1.279 1_655 S
C760 C759 1.358 . S
C760 H763 0.930 . S
C761 C758 1.348 . S
C761 C759 1.356 . S
H762 C756 0.930 . S
H763 C760 0.930 . S
O764 Li704 1.956 . S
O764 Li705 1.970 . S
O764 Li706 1.961 . S
O764 C708 1.325 . S
O765 Li704 1.970 . S
O765 Li705 1.956 . S
O765 Li707 1.961 . S
O765 C714 1.325 . S
O766 Li704 1.961 . S
O766 Li706 1.956 . S
O766 Li707 1.970 . S
O766 C736 1.325 . S
O767 Li705 1.961 . S
O767 Li706 1.970 . S
O767 Li707 1.956 . S
O767 C742 1.325 . S
H768 C710 0.929 . S
H769 C711 0.930 . S
H770 C712 0.930 . S
H771 C713 0.930 . S
H772 C715 0.930 . S
H773 C717 0.929 . S
H774 C718 0.930 . S
H775 C719 0.930 . S
H776 C722 0.930 . S
H777 C725 0.929 . S
H778 C730 0.929 . S
H779 C731 0.930 . S
H780 C738 0.929 . S
H781 C739 0.930 . S
H782 C740 0.930 . S
H783 C741 0.930 . S
H784 C743 0.929 . S
H785 C744 0.930 . S
H786 C745 0.930 . S
H787 C746 0.930 . S
H788 C750 0.929 . S
H789 C752 0.930 . S
H790 C758 0.929 . S
H791 C759 0.930 . S
Li792 N809 1.990 . S
Li792 O852 1.956 . S
Li792 O853 1.970 . S
Li792 O854 1.961 . S
Li793 N817 1.990 . S
Li793 O852 1.970 . S
Li793 O853 1.956 . S
Li793 O855 1.961 . S
Li794 N839 1.990 . S
Li794 O852 1.961 . S
Li794 O854 1.956 . S
Li794 O855 1.970 . S
Li795 N845 1.990 . S
Li795 O853 1.961 . S
Li795 O854 1.970 . S
Li795 O855 1.956 . S
C796 C798 1.348 . S
C796 C799 1.356 . S
C796 O852 1.325 . S
N797 C800 1.314 . S
N797 C801 1.279 . S
C798 C796 1.348 . S
C798 C800 1.353 . S
C798 H856 0.929 . S
C799 C796 1.356 . S
C799 C801 1.358 . S
C799 H857 0.930 . S
C800 N797 1.314 . S
C800 C798 1.353 . S
C800 H858 0.930 . S
C801 N797 1.279 . S
C801 C799 1.358 . S
C801 H859 0.930 . S
C802 C805 1.348 . S
C802 C806 1.356 . S
C802 O853 1.325 . S
C803 N804 1.279 . S
C803 C806 1.358 . S
C803 H860 0.930 . S
N804 C803 1.279 . S
N804 C807 1.314 . S
C805 C802 1.348 . S
C805 C807 1.353 . S
C805 H861 0.929 . S
C806 C802 1.356 . S
C806 C803 1.358 . S
C806 H862 0.930 . S
C807 N804 1.314 . S
C807 C805 1.353 . S
C807 H863 0.930 . S
C808 N809 1.314 . S
C808 C813 1.353 1_545 S
C808 H814 0.930 . S
N809 Li792 1.990 . S
N809 C808 1.314 . S
N809 C811 1.279 1_545 S
C810 C811 1.358 . S
C810 C812 1.356 . S
C810 H864 0.930 . S
C811 N809 1.279 1_565 S
C811 C810 1.358 . S
C811 H815 0.930 . S
C812 C810 1.356 . S
C812 C813 1.348 . S
C813 C808 1.353 1_565 S
C813 C812 1.348 . S
C813 H865 0.929 . S
H814 C808 0.930 . S
H815 C811 0.930 . S
C816 N817 1.314 . S
C816 C818 1.353 . S
C816 H822 0.930 . S
N817 Li793 1.990 . S
N817 C816 1.314 . S
N817 C820 1.279 . S
C818 C816 1.353 . S
C818 C821 1.348 . S
C818 H866 0.929 . S
C819 C820 1.358 . S
C819 C821 1.356 . S
C819 H867 0.930 . S
C820 N817 1.279 . S
C820 C819 1.358 . S
C820 H823 0.930 . S
C821 C818 1.348 . S
C821 C819 1.356 . S
H822 C816 0.930 . S
H823 C820 0.930 . S
C824 C826 1.348 . S
C824 C827 1.356 . S
C824 O854 1.325 . S
N825 C828 1.314 . S
N825 C829 1.279 . S
C826 C824 1.348 . S
C826 C828 1.353 . S
C826 H868 0.929 . S
C827 C824 1.356 . S
C827 C829 1.358 . S
C827 H869 0.930 . S
C828 N825 1.314 . S
C828 C826 1.353 . S
C828 H870 0.930 . S
C829 N825 1.279 . S
C829 C827 1.358 . S
C829 H871 0.930 . S
C830 C831 1.348 . S
C830 C832 1.356 . S
C830 O855 1.325 . S
C831 C830 1.348 . S
C831 C833 1.353 . S
C831 H872 0.929 . S
C832 C830 1.356 . S
C832 C834 1.358 . S
C832 H873 0.930 . S
C833 C831 1.353 . S
C833 N835 1.314 . S
C833 H874 0.930 . S
C834 C832 1.358 . S
C834 N835 1.279 . S
C834 H875 0.930 . S
N835 C833 1.314 . S
N835 C834 1.279 . S
C836 C838 1.353 . S
C836 N839 1.314 . S
C836 H842 0.930 . S
C837 N839 1.279 . S
C837 C840 1.358 . S
C837 H843 0.930 . S
C838 C836 1.353 . S
C838 C841 1.348 . S
C838 H876 0.929 . S
N839 Li794 1.990 . S
N839 C836 1.314 . S
N839 C837 1.279 . S
C840 C837 1.358 . S
C840 C841 1.356 . S
C840 H877 0.930 . S
C841 C838 1.348 . S
C841 C840 1.356 . S
H842 C836 0.930 . S
H843 C837 0.930 . S
C844 N845 1.314 . S
C844 C846 1.353 . S
C844 H850 0.930 . S
N845 Li795 1.990 . S
N845 C844 1.314 . S
N845 C848 1.279 . S
C846 C844 1.353 . S
C846 C849 1.348 . S
C846 H878 0.929 . S
C847 C848 1.358 . S
C847 C849 1.356 . S
C847 H879 0.930 . S
C848 N845 1.279 . S
C848 C847 1.358 . S
C848 H851 0.930 . S
C849 C846 1.348 . S
C849 C847 1.356 . S
H850 C844 0.930 . S
H851 C848 0.930 . S
O852 Li792 1.956 . S
O852 Li793 1.970 . S
O852 Li794 1.961 . S
O852 C796 1.325 . S
O853 Li792 1.970 . S
O853 Li793 1.956 . S
O853 Li795 1.961 . S
O853 C802 1.325 . S
O854 Li792 1.961 . S
O854 Li794 1.956 . S
O854 Li795 1.970 . S
O854 C824 1.325 . S
O855 Li793 1.961 . S
O855 Li794 1.970 . S
O855 Li795 1.956 . S
O855 C830 1.325 . S
H856 C798 0.929 . S
H857 C799 0.930 . S
H858 C800 0.930 . S
H859 C801 0.930 . S
H860 C803 0.930 . S
H861 C805 0.929 . S
H862 C806 0.930 . S
H863 C807 0.930 . S
H864 C810 0.930 . S
H865 C813 0.929 . S
H866 C818 0.929 . S
H867 C819 0.930 . S
H868 C826 0.929 . S
H869 C827 0.930 . S
H870 C828 0.930 . S
H871 C829 0.930 . S
H872 C831 0.929 . S
H873 C832 0.930 . S
H874 C833 0.930 . S
H875 C834 0.930 . S
H876 C838 0.929 . S
H877 C840 0.930 . S
H878 C846 0.929 . S
H879 C847 0.930 . S
Li880 N897 1.990 . S
Li880 O940 1.956 . S
Li880 O941 1.970 . S
Li880 O942 1.961 . S
Li881 N905 1.990 . S
Li881 O940 1.970 . S
Li881 O941 1.956 . S
Li881 O943 1.961 . S
Li882 N927 1.990 . S
Li882 O940 1.961 . S
Li882 O942 1.956 . S
Li882 O943 1.970 . S
Li883 N933 1.990 . S
Li883 O941 1.961 . S
Li883 O942 1.970 . S
Li883 O943 1.956 . S
C884 C886 1.348 . S
C884 C887 1.356 . S
C884 O940 1.325 . S
N885 C888 1.314 . S
N885 C889 1.279 . S
C886 C884 1.348 . S
C886 C888 1.353 . S
C886 H944 0.929 . S
C887 C884 1.356 . S
C887 C889 1.358 . S
C887 H945 0.930 . S
C888 N885 1.314 . S
C888 C886 1.353 . S
C888 H946 0.930 . S
C889 N885 1.279 . S
C889 C887 1.358 . S
C889 H947 0.930 . S
C890 C893 1.348 . S
C890 C894 1.356 . S
C890 O941 1.325 . S
C891 N892 1.279 . S
C891 C894 1.358 . S
C891 H948 0.930 . S
N892 C891 1.279 . S
N892 C895 1.314 . S
C893 C890 1.348 . S
C893 C895 1.353 . S
C893 H949 0.929 . S
C894 C890 1.356 . S
C894 C891 1.358 . S
C894 H950 0.930 . S
C895 N892 1.314 . S
C895 C893 1.353 . S
C895 H951 0.930 . S
C896 N897 1.314 . S
C896 C901 1.353 . S
C896 H902 0.930 . S
N897 Li880 1.990 . S
N897 C896 1.314 . S
N897 C899 1.279 . S
C898 C899 1.358 . S
C898 C900 1.356 . S
C898 H952 0.930 . S
C899 N897 1.279 . S
C899 C898 1.358 . S
C899 H903 0.930 . S
C900 C898 1.356 . S
C900 C901 1.348 . S
C901 C896 1.353 . S
C901 C900 1.348 . S
C901 H953 0.929 . S
H902 C896 0.930 . S
H903 C899 0.930 . S
C904 N905 1.314 . S
C904 C906 1.353 . S
C904 H910 0.930 . S
N905 Li881 1.990 . S
N905 C904 1.314 . S
N905 C908 1.279 . S
C906 C904 1.353 . S
C906 C909 1.348 . S
C906 H954 0.929 . S
C907 C908 1.358 . S
C907 C909 1.356 . S
C907 H955 0.930 . S
C908 N905 1.279 . S
C908 C907 1.358 . S
C908 H911 0.930 . S
C909 C906 1.348 . S
C909 C907 1.356 . S
H910 C904 0.930 . S
H911 C908 0.930 . S
C912 C914 1.348 . S
C912 C915 1.356 . S
C912 O942 1.325 . S
N913 C916 1.314 . S
N913 C917 1.279 . S
C914 C912 1.348 . S
C914 C916 1.353 . S
C914 H956 0.929 . S
C915 C912 1.356 . S
C915 C917 1.358 . S
C915 H957 0.930 . S
C916 N913 1.314 . S
C916 C914 1.353 . S
C916 H958 0.930 . S
C917 N913 1.279 . S
C917 C915 1.358 . S
C917 H959 0.930 . S
C918 C919 1.348 . S
C918 C920 1.356 . S
C918 O943 1.325 . S
C919 C918 1.348 . S
C919 C921 1.353 . S
C919 H960 0.929 . S
C920 C918 1.356 . S
C920 C922 1.358 . S
C920 H961 0.930 . S
C921 C919 1.353 . S
C921 N923 1.314 . S
C921 H962 0.930 . S
C922 C920 1.358 . S
C922 N923 1.279 . S
C922 H963 0.930 . S
N923 C921 1.314 . S
N923 C922 1.279 . S
C924 C926 1.353 . S
C924 N927 1.314 . S
C924 H930 0.930 . S
C925 N927 1.279 . S
C925 C928 1.358 . S
C925 H931 0.930 . S
C926 C924 1.353 . S
C926 C929 1.348 . S
C926 H964 0.929 . S
N927 Li882 1.990 . S
N927 C924 1.314 . S
N927 C925 1.279 . S
C928 C925 1.358 . S
C928 C929 1.356 . S
C928 H965 0.930 . S
C929 C926 1.348 . S
C929 C928 1.356 . S
H930 C924 0.930 . S
H931 C925 0.930 . S
C932 N933 1.314 . S
C932 C934 1.353 . S
C932 H938 0.930 . S
N933 Li883 1.990 . S
N933 C932 1.314 . S
N933 C936 1.279 . S
C934 C932 1.353 . S
C934 C937 1.348 . S
C934 H966 0.929 . S
C935 C936 1.358 . S
C935 C937 1.356 . S
C935 H967 0.930 . S
C936 N933 1.279 . S
C936 C935 1.358 . S
C936 H939 0.930 . S
C937 C934 1.348 . S
C937 C935 1.356 . S
H938 C932 0.930 . S
H939 C936 0.930 . S
O940 Li880 1.956 . S
O940 Li881 1.970 . S
O940 Li882 1.961 . S
O940 C884 1.325 . S
O941 Li880 1.970 . S
O941 Li881 1.956 . S
O941 Li883 1.961 . S
O941 C890 1.325 . S
O942 Li880 1.961 . S
O942 Li882 1.956 . S
O942 Li883 1.970 . S
O942 C912 1.325 . S
O943 Li881 1.961 . S
O943 Li882 1.970 . S
O943 Li883 1.956 . S
O943 C918 1.325 . S
H944 C886 0.929 . S
H945 C887 0.930 . S
H946 C888 0.930 . S
H947 C889 0.930 . S
H948 C891 0.930 . S
H949 C893 0.929 . S
H950 C894 0.930 . S
H951 C895 0.930 . S
H952 C898 0.930 . S
H953 C901 0.929 . S
H954 C906 0.929 . S
H955 C907 0.930 . S
H956 C914 0.929 . S
H957 C915 0.930 . S
H958 C916 0.930 . S
H959 C917 0.930 . S
H960 C919 0.929 . S
H961 C920 0.930 . S
H962 C921 0.930 . S
H963 C922 0.930 . S
H964 C926 0.929 . S
H965 C928 0.930 . S
H966 C934 0.929 . S
H967 C935 0.930 . S
Li968 N985 1.990 . S
Li968 O1028 1.956 . S
Li968 O1029 1.970 . S
Li968 O1030 1.961 . S
Li969 N993 1.990 . S
Li969 O1028 1.970 . S
Li969 O1029 1.956 . S
Li969 O1031 1.961 . S
Li970 N1015 1.990 . S
Li970 O1028 1.961 . S
Li970 O1030 1.956 . S
Li970 O1031 1.970 . S
Li971 N1021 1.990 . S
Li971 O1029 1.961 . S
Li971 O1030 1.970 . S
Li971 O1031 1.956 . S
C972 C974 1.348 . S
C972 C975 1.356 . S
C972 O1028 1.325 . S
N973 C976 1.314 . S
N973 C977 1.279 . S
C974 C972 1.348 . S
C974 C976 1.353 . S
C974 H1032 0.929 . S
C975 C972 1.356 . S
C975 C977 1.358 . S
C975 H1033 0.930 . S
C976 N973 1.314 . S
C976 C974 1.353 . S
C976 H1034 0.930 . S
C977 N973 1.279 . S
C977 C975 1.358 . S
C977 H1035 0.930 . S
C978 C981 1.348 . S
C978 C982 1.356 . S
C978 O1029 1.325 . S
C979 N980 1.279 . S
C979 C982 1.358 . S
C979 H1036 0.930 . S
N980 C979 1.279 . S
N980 C983 1.314 . S
C981 C978 1.348 . S
C981 C983 1.353 . S
C981 H1037 0.929 . S
C982 C978 1.356 . S
C982 C979 1.358 . S
C982 H1038 0.930 . S
C983 N980 1.314 . S
C983 C981 1.353 . S
C983 H1039 0.930 . S
C984 N985 1.314 . S
C984 C989 1.353 1_655 S
C984 H990 0.930 . S
N985 Li968 1.990 . S
N985 C984 1.314 . S
N985 C987 1.279 1_655 S
C986 C987 1.358 . S
C986 C988 1.356 . S
C986 H1040 0.930 . S
C987 N985 1.279 1_455 S
C987 C986 1.358 . S
C987 H991 0.930 . S
C988 C986 1.356 . S
C988 C989 1.348 . S
C989 C984 1.353 1_455 S
C989 C988 1.348 . S
C989 H1041 0.929 . S
H990 C984 0.930 . S
H991 C987 0.930 . S
C992 N993 1.314 . S
C992 C994 1.353 . S
C992 H998 0.930 . S
N993 Li969 1.990 . S
N993 C992 1.314 . S
N993 C996 1.279 . S
C994 C992 1.353 . S
C994 C997 1.348 . S
C994 H1042 0.929 . S
C995 C996 1.358 . S
C995 C997 1.356 . S
C995 H1043 0.930 . S
C996 N993 1.279 . S
C996 C995 1.358 . S
C996 H999 0.930 . S
C997 C994 1.348 . S
C997 C995 1.356 . S
H998 C992 0.930 . S
H999 C996 0.930 . S
C1000 C1002 1.348 . S
C1000 C1003 1.356 . S
C1000 O1030 1.325 . S
N1001 C1004 1.314 . S
N1001 C1005 1.279 . S
C1002 C1000 1.348 . S
C1002 C1004 1.353 . S
C1002 H1044 0.929 . S
C1003 C1000 1.356 . S
C1003 C1005 1.358 . S
C1003 H1045 0.930 . S
C1004 N1001 1.314 . S
C1004 C1002 1.353 . S
C1004 H1046 0.930 . S
C1005 N1001 1.279 . S
C1005 C1003 1.358 . S
C1005 H1047 0.930 . S
C1006 C1007 1.348 . S
C1006 C1008 1.356 . S
C1006 O1031 1.325 . S
C1007 C1006 1.348 . S
C1007 C1009 1.353 . S
C1007 H1048 0.929 . S
C1008 C1006 1.356 . S
C1008 C1010 1.358 . S
C1008 H1049 0.930 . S
C1009 C1007 1.353 . S
C1009 N1011 1.314 . S
C1009 H1050 0.930 . S
C1010 C1008 1.358 . S
C1010 N1011 1.279 . S
C1010 H1051 0.930 . S
N1011 C1009 1.314 . S
N1011 C1010 1.279 . S
C1012 C1014 1.353 . S
C1012 N1015 1.314 . S
C1012 H1018 0.930 . S
C1013 N1015 1.279 . S
C1013 C1016 1.358 . S
C1013 H1019 0.930 . S
C1014 C1012 1.353 . S
C1014 C1017 1.348 . S
C1014 H1052 0.929 . S
N1015 Li970 1.990 . S
N1015 C1012 1.314 . S
N1015 C1013 1.279 . S
C1016 C1013 1.358 . S
C1016 C1017 1.356 . S
C1016 H1053 0.930 . S
C1017 C1014 1.348 . S
C1017 C1016 1.356 . S
H1018 C1012 0.930 . S
H1019 C1013 0.930 . S
C1020 N1021 1.314 . S
C1020 C1022 1.353 . S
C1020 H1026 0.930 . S
N1021 Li971 1.990 . S
N1021 C1020 1.314 . S
N1021 C1024 1.279 . S
C1022 C1020 1.353 . S
C1022 C1025 1.348 . S
C1022 H1054 0.929 . S
C1023 C1024 1.358 . S
C1023 C1025 1.356 . S
C1023 H1055 0.930 . S
C1024 N1021 1.279 . S
C1024 C1023 1.358 . S
C1024 H1027 0.930 . S
C1025 C1022 1.348 . S
C1025 C1023 1.356 . S
H1026 C1020 0.930 . S
H1027 C1024 0.930 . S
O1028 Li968 1.956 . S
O1028 Li969 1.970 . S
O1028 Li970 1.961 . S
O1028 C972 1.325 . S
O1029 Li968 1.970 . S
O1029 Li969 1.956 . S
O1029 Li971 1.961 . S
O1029 C978 1.325 . S
O1030 Li968 1.961 . S
O1030 Li970 1.956 . S
O1030 Li971 1.970 . S
O1030 C1000 1.325 . S
O1031 Li969 1.961 . S
O1031 Li970 1.970 . S
O1031 Li971 1.956 . S
O1031 C1006 1.325 . S
H1032 C974 0.929 . S
H1033 C975 0.930 . S
H1034 C976 0.930 . S
H1035 C977 0.930 . S
H1036 C979 0.930 . S
H1037 C981 0.929 . S
H1038 C982 0.930 . S
H1039 C983 0.930 . S
H1040 C986 0.930 . S
H1041 C989 0.929 . S
H1042 C994 0.929 . S
H1043 C995 0.930 . S
H1044 C1002 0.929 . S
H1045 C1003 0.930 . S
H1046 C1004 0.930 . S
H1047 C1005 0.930 . S
H1048 C1007 0.929 . S
H1049 C1008 0.930 . S
H1050 C1009 0.930 . S
H1051 C1010 0.930 . S
H1052 C1014 0.929 . S
H1053 C1016 0.930 . S
H1054 C1022 0.929 . S
H1055 C1023 0.930 . S
C1056 C1057 1.391 . S
C1056 C1058 1.394 . S
C1056 H1072 0.931 . S
C1057 C1056 1.391 . S
C1057 C1061 1.376 . S
C1058 C1056 1.394 . S
C1058 C1059 1.369 . S
C1058 C1062 1.531 . S
C1059 C1058 1.369 . S
C1059 C1060 1.410 . S
C1059 C1067 1.503 . S
C1060 C1059 1.410 . S
C1060 C1061 1.392 . S
C1060 C1063 1.511 . S
C1061 C1057 1.376 . S
C1061 C1060 1.392 . S
C1061 H1073 0.929 . S
C1062 C1058 1.531 . S
C1062 H1074 0.960 . S
C1062 H1075 0.962 . S
C1062 H1076 0.960 . S
C1063 C1060 1.511 . S
C1063 H1077 0.961 . S
C1063 H1078 0.961 . S
C1063 H1079 0.961 . S
C1064 C1065 1.370 . S
C1064 C1066 1.363 . S
C1064 H1080 0.931 . S
C1065 C1064 1.370 . S
C1065 C1069 1.408 . S
C1066 C1064 1.363 . S
C1066 C1067 1.370 . S
C1066 C1070 1.524 . S
C1067 C1059 1.503 . S
C1067 C1066 1.370 . S
C1067 C1068 1.403 . S
C1068 C1067 1.403 . S
C1068 C1069 1.404 . S
C1068 C1071 1.539 . S
C1069 C1065 1.408 . S
C1069 C1068 1.404 . S
C1069 H1081 0.930 . S
C1070 C1066 1.524 . S
C1070 H1082 0.956 . S
C1070 H1083 0.961 . S
C1070 H1084 0.961 . S
C1071 C1068 1.539 . S
C1071 H1085 0.958 . S
C1071 H1086 0.961 . S
C1071 H1087 0.960 . S
H1072 C1056 0.931 . S
H1073 C1061 0.929 . S
H1074 C1062 0.960 . S
H1075 C1062 0.962 . S
H1076 C1062 0.960 . S
H1077 C1063 0.961 . S
H1078 C1063 0.961 . S
H1079 C1063 0.961 . S
H1080 C1064 0.931 . S
H1081 C1069 0.930 . S
H1082 C1070 0.956 . S
H1083 C1070 0.961 . S
H1084 C1070 0.961 . S
H1085 C1071 0.958 . S
H1086 C1071 0.961 . S
H1087 C1071 0.960 . S
C1088 C1089 1.391 . S
C1088 C1090 1.394 . S
C1088 H1104 0.931 . S
C1089 C1088 1.391 . S
C1089 C1093 1.376 . S
C1090 C1088 1.394 . S
C1090 C1091 1.369 . S
C1090 C1094 1.531 . S
C1091 C1090 1.369 . S
C1091 C1092 1.410 . S
C1091 C1099 1.503 . S
C1092 C1091 1.410 . S
C1092 C1093 1.392 . S
C1092 C1095 1.511 . S
C1093 C1089 1.376 . S
C1093 C1092 1.392 . S
C1093 H1105 0.929 . S
C1094 C1090 1.531 . S
C1094 H1106 0.960 . S
C1094 H1107 0.962 . S
C1094 H1108 0.960 . S
C1095 C1092 1.511 . S
C1095 H1109 0.961 . S
C1095 H1110 0.961 . S
C1095 H1111 0.961 . S
C1096 C1097 1.370 . S
C1096 C1098 1.363 . S
C1096 H1112 0.931 . S
C1097 C1096 1.370 . S
C1097 C1101 1.408 . S
C1098 C1096 1.363 . S
C1098 C1099 1.370 . S
C1098 C1102 1.524 . S
C1099 C1091 1.503 . S
C1099 C1098 1.370 . S
C1099 C1100 1.403 . S
C1100 C1099 1.403 . S
C1100 C1101 1.404 . S
C1100 C1103 1.539 . S
C1101 C1097 1.408 . S
C1101 C1100 1.404 . S
C1101 H1113 0.930 . S
C1102 C1098 1.524 . S
C1102 H1114 0.956 . S
C1102 H1115 0.961 . S
C1102 H1116 0.961 . S
C1103 C1100 1.539 . S
C1103 H1117 0.958 . S
C1103 H1118 0.961 . S
C1103 H1119 0.960 . S
H1104 C1088 0.931 . S
H1105 C1093 0.929 . S
H1106 C1094 0.960 . S
H1107 C1094 0.962 . S
H1108 C1094 0.960 . S
H1109 C1095 0.961 . S
H1110 C1095 0.961 . S
H1111 C1095 0.961 . S
H1112 C1096 0.931 . S
H1113 C1101 0.930 . S
H1114 C1102 0.956 . S
H1115 C1102 0.961 . S
H1116 C1102 0.961 . S
H1117 C1103 0.958 . S
H1118 C1103 0.961 . S
H1119 C1103 0.960 . S
C1120 C1121 1.391 . S
C1120 C1122 1.394 . S
C1120 H1136 0.931 . S
C1121 C1120 1.391 . S
C1121 C1125 1.376 . S
C1122 C1120 1.394 . S
C1122 C1123 1.369 . S
C1122 C1126 1.531 . S
C1123 C1122 1.369 . S
C1123 C1124 1.410 . S
C1123 C1131 1.503 . S
C1124 C1123 1.410 . S
C1124 C1125 1.392 . S
C1124 C1127 1.511 . S
C1125 C1121 1.376 . S
C1125 C1124 1.392 . S
C1125 H1137 0.929 . S
C1126 C1122 1.531 . S
C1126 H1138 0.960 . S
C1126 H1139 0.962 . S
C1126 H1140 0.960 . S
C1127 C1124 1.511 . S
C1127 H1141 0.961 . S
C1127 H1142 0.961 . S
C1127 H1143 0.961 . S
C1128 C1129 1.370 . S
C1128 C1130 1.363 . S
C1128 H1144 0.931 . S
C1129 C1128 1.370 . S
C1129 C1133 1.408 . S
C1130 C1128 1.363 . S
C1130 C1131 1.370 . S
C1130 C1134 1.524 . S
C1131 C1123 1.503 . S
C1131 C1130 1.370 . S
C1131 C1132 1.403 . S
C1132 C1131 1.403 . S
C1132 C1133 1.404 . S
C1132 C1135 1.539 . S
C1133 C1129 1.408 . S
C1133 C1132 1.404 . S
C1133 H1145 0.930 . S
C1134 C1130 1.524 . S
C1134 H1146 0.956 . S
C1134 H1147 0.961 . S
C1134 H1148 0.961 . S
C1135 C1132 1.539 . S
C1135 H1149 0.958 . S
C1135 H1150 0.961 . S
C1135 H1151 0.960 . S
H1136 C1120 0.931 . S
H1137 C1125 0.929 . S
H1138 C1126 0.960 . S
H1139 C1126 0.962 . S
H1140 C1126 0.960 . S
H1141 C1127 0.961 . S
H1142 C1127 0.961 . S
H1143 C1127 0.961 . S
H1144 C1128 0.931 . S
H1145 C1133 0.930 . S
H1146 C1134 0.956 . S
H1147 C1134 0.961 . S
H1148 C1134 0.961 . S
H1149 C1135 0.958 . S
H1150 C1135 0.961 . S
H1151 C1135 0.960 . S
C1152 C1153 1.391 . S
C1152 C1154 1.394 . S
C1152 H1168 0.931 . S
C1153 C1152 1.391 . S
C1153 C1157 1.376 . S
C1154 C1152 1.394 . S
C1154 C1155 1.369 . S
C1154 C1158 1.531 . S
C1155 C1154 1.369 . S
C1155 C1156 1.410 . S
C1155 C1163 1.503 . S
C1156 C1155 1.410 . S
C1156 C1157 1.392 . S
C1156 C1159 1.511 . S
C1157 C1153 1.376 . S
C1157 C1156 1.392 . S
C1157 H1169 0.929 . S
C1158 C1154 1.531 . S
C1158 H1170 0.960 . S
C1158 H1171 0.962 . S
C1158 H1172 0.960 . S
C1159 C1156 1.511 . S
C1159 H1173 0.961 . S
C1159 H1174 0.961 . S
C1159 H1175 0.961 . S
C1160 C1161 1.370 . S
C1160 C1162 1.363 . S
C1160 H1176 0.931 . S
C1161 C1160 1.370 . S
C1161 C1165 1.408 . S
C1162 C1160 1.363 . S
C1162 C1163 1.370 . S
C1162 C1166 1.524 . S
C1163 C1155 1.503 . S
C1163 C1162 1.370 . S
C1163 C1164 1.403 . S
C1164 C1163 1.403 . S
C1164 C1165 1.404 . S
C1164 C1167 1.539 . S
C1165 C1161 1.408 . S
C1165 C1164 1.404 . S
C1165 H1177 0.930 . S
C1166 C1162 1.524 . S
C1166 H1178 0.956 . S
C1166 H1179 0.961 . S
C1166 H1180 0.961 . S
C1167 C1164 1.539 . S
C1167 H1181 0.958 . S
C1167 H1182 0.961 . S
C1167 H1183 0.960 . S
H1168 C1152 0.931 . S
H1169 C1157 0.929 . S
H1170 C1158 0.960 . S
H1171 C1158 0.962 . S
H1172 C1158 0.960 . S
H1173 C1159 0.961 . S
H1174 C1159 0.961 . S
H1175 C1159 0.961 . S
H1176 C1160 0.931 . S
H1177 C1165 0.930 . S
H1178 C1166 0.956 . S
H1179 C1166 0.961 . S
H1180 C1166 0.961 . S
H1181 C1167 0.958 . S
H1182 C1167 0.961 . S
H1183 C1167 0.960 . S
C1184 C1185 1.391 . S
C1184 C1186 1.394 . S
C1184 H1200 0.931 . S
C1185 C1184 1.391 . S
C1185 C1189 1.376 . S
C1186 C1184 1.394 . S
C1186 C1187 1.369 . S
C1186 C1190 1.531 . S
C1187 C1186 1.369 . S
C1187 C1188 1.410 . S
C1187 C1195 1.503 . S
C1188 C1187 1.410 . S
C1188 C1189 1.392 . S
C1188 C1191 1.511 . S
C1189 C1185 1.376 . S
C1189 C1188 1.392 . S
C1189 H1201 0.929 . S
C1190 C1186 1.531 . S
C1190 H1202 0.960 . S
C1190 H1203 0.962 . S
C1190 H1204 0.960 . S
C1191 C1188 1.511 . S
C1191 H1205 0.961 . S
C1191 H1206 0.961 . S
C1191 H1207 0.961 . S
C1192 C1193 1.370 . S
C1192 C1194 1.363 . S
C1192 H1208 0.931 . S
C1193 C1192 1.370 . S
C1193 C1197 1.408 . S
C1194 C1192 1.363 . S
C1194 C1195 1.370 . S
C1194 C1198 1.524 . S
C1195 C1187 1.503 . S
C1195 C1194 1.370 . S
C1195 C1196 1.403 . S
C1196 C1195 1.403 . S
C1196 C1197 1.404 . S
C1196 C1199 1.539 . S
C1197 C1193 1.408 . S
C1197 C1196 1.404 . S
C1197 H1209 0.930 . S
C1198 C1194 1.524 . S
C1198 H1210 0.956 . S
C1198 H1211 0.961 . S
C1198 H1212 0.961 . S
C1199 C1196 1.539 . S
C1199 H1213 0.958 . S
C1199 H1214 0.961 . S
C1199 H1215 0.960 . S
H1200 C1184 0.931 . S
H1201 C1189 0.929 . S
H1202 C1190 0.960 . S
H1203 C1190 0.962 . S
H1204 C1190 0.960 . S
H1205 C1191 0.961 . S
H1206 C1191 0.961 . S
H1207 C1191 0.961 . S
H1208 C1192 0.931 . S
H1209 C1197 0.930 . S
H1210 C1198 0.956 . S
H1211 C1198 0.961 . S
H1212 C1198 0.961 . S
H1213 C1199 0.958 . S
H1214 C1199 0.961 . S
H1215 C1199 0.960 . S
C1216 C1217 1.391 . S
C1216 C1218 1.394 . S
C1216 H1232 0.931 . S
C1217 C1216 1.391 . S
C1217 C1221 1.376 . S
C1218 C1216 1.394 . S
C1218 C1219 1.369 . S
C1218 C1222 1.531 . S
C1219 C1218 1.369 . S
C1219 C1220 1.410 . S
C1219 C1227 1.503 . S
C1220 C1219 1.410 . S
C1220 C1221 1.392 . S
C1220 C1223 1.511 . S
C1221 C1217 1.376 . S
C1221 C1220 1.392 . S
C1221 H1233 0.929 . S
C1222 C1218 1.531 . S
C1222 H1234 0.960 . S
C1222 H1235 0.962 . S
C1222 H1236 0.960 . S
C1223 C1220 1.511 . S
C1223 H1237 0.961 . S
C1223 H1238 0.961 . S
C1223 H1239 0.961 . S
C1224 C1225 1.370 . S
C1224 C1226 1.363 . S
C1224 H1240 0.931 . S
C1225 C1224 1.370 . S
C1225 C1229 1.408 . S
C1226 C1224 1.363 . S
C1226 C1227 1.370 . S
C1226 C1230 1.524 . S
C1227 C1219 1.503 . S
C1227 C1226 1.370 . S
C1227 C1228 1.403 . S
C1228 C1227 1.403 . S
C1228 C1229 1.404 . S
C1228 C1231 1.539 . S
C1229 C1225 1.408 . S
C1229 C1228 1.404 . S
C1229 H1241 0.930 . S
C1230 C1226 1.524 . S
C1230 H1242 0.956 . S
C1230 H1243 0.961 . S
C1230 H1244 0.961 . S
C1231 C1228 1.539 . S
C1231 H1245 0.958 . S
C1231 H1246 0.961 . S
C1231 H1247 0.960 . S
H1232 C1216 0.931 . S
H1233 C1221 0.929 . S
H1234 C1222 0.960 . S
H1235 C1222 0.962 . S
H1236 C1222 0.960 . S
H1237 C1223 0.961 . S
H1238 C1223 0.961 . S
H1239 C1223 0.961 . S
H1240 C1224 0.931 . S
H1241 C1229 0.930 . S
H1242 C1230 0.956 . S
H1243 C1230 0.961 . S
H1244 C1230 0.961 . S
H1245 C1231 0.958 . S
H1246 C1231 0.961 . S
H1247 C1231 0.960 . S
C1248 C1249 1.391 . S
C1248 C1250 1.394 1_554 S
C1248 H1264 0.931 1_554 S
C1249 C1248 1.391 . S
C1249 C1253 1.376 . S
C1250 C1248 1.394 1_556 S
C1250 C1251 1.369 1_556 S
C1250 C1254 1.531 . S
C1251 C1250 1.369 1_554 S
C1251 C1252 1.410 . S
C1251 C1259 1.503 1_554 S
C1252 C1251 1.410 . S
C1252 C1253 1.392 . S
C1252 C1255 1.511 . S
C1253 C1249 1.376 . S
C1253 C1252 1.392 . S
C1253 H1265 0.929 . S
C1254 C1250 1.531 . S
C1254 H1266 0.960 . S
C1254 H1267 0.962 . S
C1254 H1268 0.960 . S
C1255 C1252 1.511 . S
C1255 H1269 0.961 . S
C1255 H1270 0.961 . S
C1255 H1271 0.961 . S
C1256 C1257 1.370 . S
C1256 C1258 1.363 . S
C1256 H1272 0.931 . S
C1257 C1256 1.370 . S
C1257 C1261 1.408 . S
C1258 C1256 1.363 . S
C1258 C1259 1.370 . S
C1258 C1262 1.524 . S
C1259 C1251 1.503 1_556 S
C1259 C1258 1.370 . S
C1259 C1260 1.403 . S
C1260 C1259 1.403 . S
C1260 C1261 1.404 . S
C1260 C1263 1.539 . S
C1261 C1257 1.408 . S
C1261 C1260 1.404 . S
C1261 H1273 0.930 . S
C1262 C1258 1.524 . S
C1262 H1274 0.956 . S
C1262 H1275 0.961 1_556 S
C1262 H1276 0.961 . S
C1263 C1260 1.539 . S
C1263 H1277 0.958 . S
C1263 H1278 0.961 . S
C1263 H1279 0.960 1_556 S
H1264 C1248 0.931 1_556 S
H1265 C1253 0.929 . S
H1266 C1254 0.960 . S
H1267 C1254 0.962 . S
H1268 C1254 0.960 . S
H1269 C1255 0.961 . S
H1270 C1255 0.961 . S
H1271 C1255 0.961 . S
H1272 C1256 0.931 . S
H1273 C1261 0.930 . S
H1274 C1262 0.956 . S
H1275 C1262 0.961 1_554 S
H1276 C1262 0.961 . S
H1277 C1263 0.958 . S
H1278 C1263 0.961 . S
H1279 C1263 0.960 1_554 S
C1280 C1281 1.391 . S
C1280 C1282 1.394 . S
C1280 H1296 0.931 . S
C1281 C1280 1.391 . S
C1281 C1285 1.376 . S
C1282 C1280 1.394 . S
C1282 C1283 1.369 . S
C1282 C1286 1.531 . S
C1283 C1282 1.369 . S
C1283 C1284 1.410 . S
C1283 C1291 1.503 . S
C1284 C1283 1.410 . S
C1284 C1285 1.392 . S
C1284 C1287 1.511 . S
C1285 C1281 1.376 . S
C1285 C1284 1.392 . S
C1285 H1297 0.929 . S
C1286 C1282 1.531 . S
C1286 H1298 0.960 . S
C1286 H1299 0.962 . S
C1286 H1300 0.960 . S
C1287 C1284 1.511 . S
C1287 H1301 0.961 . S
C1287 H1302 0.961 . S
C1287 H1303 0.961 . S
C1288 C1289 1.370 . S
C1288 C1290 1.363 . S
C1288 H1304 0.931 . S
C1289 C1288 1.370 . S
C1289 C1293 1.408 . S
C1290 C1288 1.363 . S
C1290 C1291 1.370 . S
C1290 C1294 1.524 . S
C1291 C1283 1.503 . S
C1291 C1290 1.370 . S
C1291 C1292 1.403 . S
C1292 C1291 1.403 . S
C1292 C1293 1.404 . S
C1292 C1295 1.539 . S
C1293 C1289 1.408 . S
C1293 C1292 1.404 . S
C1293 H1305 0.930 . S
C1294 C1290 1.524 . S
C1294 H1306 0.956 . S
C1294 H1307 0.961 . S
C1294 H1308 0.961 . S
C1295 C1292 1.539 . S
C1295 H1309 0.958 . S
C1295 H1310 0.961 . S
C1295 H1311 0.960 . S
H1296 C1280 0.931 . S
H1297 C1285 0.929 . S
H1298 C1286 0.960 . S
H1299 C1286 0.962 . S
H1300 C1286 0.960 . S
H1301 C1287 0.961 . S
H1302 C1287 0.961 . S
H1303 C1287 0.961 . S
H1304 C1288 0.931 . S
H1305 C1293 0.930 . S
H1306 C1294 0.956 . S
H1307 C1294 0.961 . S
H1308 C1294 0.961 . S
H1309 C1295 0.958 . S
H1310 C1295 0.961 . S
H1311 C1295 0.960 . S
C1312 C1313 1.391 . S
C1312 C1314 1.394 . S
C1312 H1328 0.931 . S
C1313 C1312 1.391 . S
C1313 C1317 1.376 . S
C1314 C1312 1.394 . S
C1314 C1315 1.369 . S
C1314 C1318 1.531 . S
C1315 C1314 1.369 . S
C1315 C1316 1.410 . S
C1315 C1323 1.503 . S
C1316 C1315 1.410 . S
C1316 C1317 1.392 . S
C1316 C1319 1.511 . S
C1317 C1313 1.376 . S
C1317 C1316 1.392 . S
C1317 H1329 0.929 . S
C1318 C1314 1.531 . S
C1318 H1330 0.960 . S
C1318 H1331 0.962 . S
C1318 H1332 0.960 . S
C1319 C1316 1.511 . S
C1319 H1333 0.961 . S
C1319 H1334 0.961 . S
C1319 H1335 0.961 . S
C1320 C1321 1.370 . S
C1320 C1322 1.363 . S
C1320 H1336 0.931 . S
C1321 C1320 1.370 . S
C1321 C1325 1.408 . S
C1322 C1320 1.363 . S
C1322 C1323 1.370 . S
C1322 C1326 1.524 . S
C1323 C1315 1.503 . S
C1323 C1322 1.370 . S
C1323 C1324 1.403 . S
C1324 C1323 1.403 . S
C1324 C1325 1.404 . S
C1324 C1327 1.539 . S
C1325 C1321 1.408 . S
C1325 C1324 1.404 . S
C1325 H1337 0.930 . S
C1326 C1322 1.524 . S
C1326 H1338 0.956 . S
C1326 H1339 0.961 . S
C1326 H1340 0.961 . S
C1327 C1324 1.539 . S
C1327 H1341 0.958 . S
C1327 H1342 0.961 . S
C1327 H1343 0.960 . S
H1328 C1312 0.931 . S
H1329 C1317 0.929 . S
H1330 C1318 0.960 . S
H1331 C1318 0.962 . S
H1332 C1318 0.960 . S
H1333 C1319 0.961 . S
H1334 C1319 0.961 . S
H1335 C1319 0.961 . S
H1336 C1320 0.931 . S
H1337 C1325 0.930 . S
H1338 C1326 0.956 . S
H1339 C1326 0.961 . S
H1340 C1326 0.961 . S
H1341 C1327 0.958 . S
H1342 C1327 0.961 . S
H1343 C1327 0.960 . S
C1344 C1345 1.391 . S
C1344 C1346 1.394 . S
C1344 H1360 0.931 . S
C1345 C1344 1.391 . S
C1345 C1349 1.376 . S
C1346 C1344 1.394 . S
C1346 C1347 1.369 . S
C1346 C1350 1.531 . S
C1347 C1346 1.369 . S
C1347 C1348 1.410 . S
C1347 C1355 1.503 . S
C1348 C1347 1.410 . S
C1348 C1349 1.392 . S
C1348 C1351 1.511 . S
C1349 C1345 1.376 . S
C1349 C1348 1.392 . S
C1349 H1361 0.929 . S
C1350 C1346 1.531 . S
C1350 H1362 0.960 . S
C1350 H1363 0.962 . S
C1350 H1364 0.960 . S
C1351 C1348 1.511 . S
C1351 H1365 0.961 . S
C1351 H1366 0.961 . S
C1351 H1367 0.961 . S
C1352 C1353 1.370 . S
C1352 C1354 1.363 . S
C1352 H1368 0.931 . S
C1353 C1352 1.370 . S
C1353 C1357 1.408 . S
C1354 C1352 1.363 . S
C1354 C1355 1.370 . S
C1354 C1358 1.524 . S
C1355 C1347 1.503 . S
C1355 C1354 1.370 . S
C1355 C1356 1.403 . S
C1356 C1355 1.403 . S
C1356 C1357 1.404 . S
C1356 C1359 1.539 . S
C1357 C1353 1.408 . S
C1357 C1356 1.404 . S
C1357 H1369 0.930 . S
C1358 C1354 1.524 . S
C1358 H1370 0.956 . S
C1358 H1371 0.961 . S
C1358 H1372 0.961 . S
C1359 C1356 1.539 . S
C1359 H1373 0.958 . S
C1359 H1374 0.961 . S
C1359 H1375 0.960 . S
H1360 C1344 0.931 . S
H1361 C1349 0.929 . S
H1362 C1350 0.960 . S
H1363 C1350 0.962 . S
H1364 C1350 0.960 . S
H1365 C1351 0.961 . S
H1366 C1351 0.961 . S
H1367 C1351 0.961 . S
H1368 C1352 0.931 . S
H1369 C1357 0.930 . S
H1370 C1358 0.956 . S
H1371 C1358 0.961 . S
H1372 C1358 0.961 . S
H1373 C1359 0.958 . S
H1374 C1359 0.961 . S
H1375 C1359 0.960 . S
C1376 C1377 1.391 . S
C1376 C1378 1.394 . S
C1376 H1392 0.931 . S
C1377 C1376 1.391 . S
C1377 C1381 1.376 . S
C1378 C1376 1.394 . S
C1378 C1379 1.369 . S
C1378 C1382 1.531 . S
C1379 C1378 1.369 . S
C1379 C1380 1.410 . S
C1379 C1387 1.503 . S
C1380 C1379 1.410 . S
C1380 C1381 1.392 . S
C1380 C1383 1.511 . S
C1381 C1377 1.376 . S
C1381 C1380 1.392 . S
C1381 H1393 0.929 . S
C1382 C1378 1.531 . S
C1382 H1394 0.960 . S
C1382 H1395 0.962 . S
C1382 H1396 0.960 . S
C1383 C1380 1.511 . S
C1383 H1397 0.961 . S
C1383 H1398 0.961 . S
C1383 H1399 0.961 . S
C1384 C1385 1.370 . S
C1384 C1386 1.363 . S
C1384 H1400 0.931 . S
C1385 C1384 1.370 . S
C1385 C1389 1.408 . S
C1386 C1384 1.363 . S
C1386 C1387 1.370 . S
C1386 C1390 1.524 . S
C1387 C1379 1.503 . S
C1387 C1386 1.370 . S
C1387 C1388 1.403 . S
C1388 C1387 1.403 . S
C1388 C1389 1.404 . S
C1388 C1391 1.539 . S
C1389 C1385 1.408 . S
C1389 C1388 1.404 . S
C1389 H1401 0.930 . S
C1390 C1386 1.524 . S
C1390 H1402 0.956 . S
C1390 H1403 0.961 . S
C1390 H1404 0.961 . S
C1391 C1388 1.539 . S
C1391 H1405 0.958 . S
C1391 H1406 0.961 . S
C1391 H1407 0.960 . S
H1392 C1376 0.931 . S
H1393 C1381 0.929 . S
H1394 C1382 0.960 . S
H1395 C1382 0.962 . S
H1396 C1382 0.960 . S
H1397 C1383 0.961 . S
H1398 C1383 0.961 . S
H1399 C1383 0.961 . S
H1400 C1384 0.931 . S
H1401 C1389 0.930 . S
H1402 C1390 0.956 . S
H1403 C1390 0.961 . S
H1404 C1390 0.961 . S
H1405 C1391 0.958 . S
H1406 C1391 0.961 . S
H1407 C1391 0.960 . S
C1408 C1409 1.391 . S
C1408 C1410 1.394 . S
C1408 H1424 0.931 . S
C1409 C1408 1.391 . S
C1409 C1413 1.376 . S
C1410 C1408 1.394 . S
C1410 C1411 1.369 . S
C1410 C1414 1.531 . S
C1411 C1410 1.369 . S
C1411 C1412 1.410 . S
C1411 C1419 1.503 . S
C1412 C1411 1.410 . S
C1412 C1413 1.392 . S
C1412 C1415 1.511 . S
C1413 C1409 1.376 . S
C1413 C1412 1.392 . S
C1413 H1425 0.929 . S
C1414 C1410 1.531 . S
C1414 H1426 0.960 . S
C1414 H1427 0.962 . S
C1414 H1428 0.960 . S
C1415 C1412 1.511 . S
C1415 H1429 0.961 . S
C1415 H1430 0.961 . S
C1415 H1431 0.961 . S
C1416 C1417 1.370 . S
C1416 C1418 1.363 . S
C1416 H1432 0.931 . S
C1417 C1416 1.370 . S
C1417 C1421 1.408 . S
C1418 C1416 1.363 . S
C1418 C1419 1.370 . S
C1418 C1422 1.524 . S
C1419 C1411 1.503 . S
C1419 C1418 1.370 . S
C1419 C1420 1.403 . S
C1420 C1419 1.403 . S
C1420 C1421 1.404 . S
C1420 C1423 1.539 . S
C1421 C1417 1.408 . S
C1421 C1420 1.404 . S
C1421 H1433 0.930 . S
C1422 C1418 1.524 . S
C1422 H1434 0.956 . S
C1422 H1435 0.961 . S
C1422 H1436 0.961 . S
C1423 C1420 1.539 . S
C1423 H1437 0.958 . S
C1423 H1438 0.961 . S
C1423 H1439 0.960 . S
H1424 C1408 0.931 . S
H1425 C1413 0.929 . S
H1426 C1414 0.960 . S
H1427 C1414 0.962 . S
H1428 C1414 0.960 . S
H1429 C1415 0.961 . S
H1430 C1415 0.961 . S
H1431 C1415 0.961 . S
H1432 C1416 0.931 . S
H1433 C1421 0.930 . S
H1434 C1422 0.956 . S
H1435 C1422 0.961 . S
H1436 C1422 0.961 . S
H1437 C1423 0.958 . S
H1438 C1423 0.961 . S
H1439 C1423 0.960 . S
C1440 C1441 1.391 . S
C1440 C1442 1.394 . S
C1440 H1456 0.931 . S
C1441 C1440 1.391 . S
C1441 C1445 1.376 . S
C1442 C1440 1.394 . S
C1442 C1443 1.369 . S
C1442 C1446 1.531 . S
C1443 C1442 1.369 . S
C1443 C1444 1.410 . S
C1443 C1451 1.503 . S
C1444 C1443 1.410 . S
C1444 C1445 1.392 . S
C1444 C1447 1.511 . S
C1445 C1441 1.376 . S
C1445 C1444 1.392 . S
C1445 H1457 0.929 . S
C1446 C1442 1.531 . S
C1446 H1458 0.960 . S
C1446 H1459 0.962 . S
C1446 H1460 0.960 . S
C1447 C1444 1.511 . S
C1447 H1461 0.961 . S
C1447 H1462 0.961 . S
C1447 H1463 0.961 . S
C1448 C1449 1.370 . S
C1448 C1450 1.363 . S
C1448 H1464 0.931 . S
C1449 C1448 1.370 . S
C1449 C1453 1.408 . S
C1450 C1448 1.363 . S
C1450 C1451 1.370 . S
C1450 C1454 1.524 . S
C1451 C1443 1.503 . S
C1451 C1450 1.370 . S
C1451 C1452 1.403 . S
C1452 C1451 1.403 . S
C1452 C1453 1.404 . S
C1452 C1455 1.539 . S
C1453 C1449 1.408 . S
C1453 C1452 1.404 . S
C1453 H1465 0.930 . S
C1454 C1450 1.524 . S
C1454 H1466 0.956 . S
C1454 H1467 0.961 . S
C1454 H1468 0.961 . S
C1455 C1452 1.539 . S
C1455 H1469 0.958 . S
C1455 H1470 0.961 . S
C1455 H1471 0.960 . S
H1456 C1440 0.931 . S
H1457 C1445 0.929 . S
H1458 C1446 0.960 . S
H1459 C1446 0.962 . S
H1460 C1446 0.960 . S
H1461 C1447 0.961 . S
H1462 C1447 0.961 . S
H1463 C1447 0.961 . S
H1464 C1448 0.931 . S
H1465 C1453 0.930 . S
H1466 C1454 0.956 . S
H1467 C1454 0.961 . S
H1468 C1454 0.961 . S
H1469 C1455 0.958 . S
H1470 C1455 0.961 . S
H1471 C1455 0.960 . S
C1472 C1473 1.391 . S
C1472 C1474 1.394 . S
C1472 H1488 0.931 . S
C1473 C1472 1.391 . S
C1473 C1477 1.376 . S
C1474 C1472 1.394 . S
C1474 C1475 1.369 1_556 S
C1474 C1478 1.531 . S
C1475 C1474 1.369 1_554 S
C1475 C1476 1.410 . S
C1475 C1483 1.503 . S
C1476 C1475 1.410 . S
C1476 C1477 1.392 1_554 S
C1476 C1479 1.511 . S
C1477 C1473 1.376 . S
C1477 C1476 1.392 1_556 S
C1477 H1489 0.929 . S
C1478 C1474 1.531 . S
C1478 H1490 0.960 1_556 S
C1478 H1491 0.962 . S
C1478 H1492 0.960 . S
C1479 C1476 1.511 . S
C1479 H1493 0.961 . S
C1479 H1494 0.961 . S
C1479 H1495 0.961 . S
C1480 C1481 1.370 . S
C1480 C1482 1.363 . S
C1480 H1496 0.931 . S
C1481 C1480 1.370 . S
C1481 C1485 1.408 . S
C1482 C1480 1.363 . S
C1482 C1483 1.370 . S
C1482 C1486 1.524 1_554 S
C1483 C1475 1.503 . S
C1483 C1482 1.370 . S
C1483 C1484 1.403 . S
C1484 C1483 1.403 . S
C1484 C1485 1.404 . S
C1484 C1487 1.539 . S
C1485 C1481 1.408 . S
C1485 C1484 1.404 . S
C1485 H1497 0.930 . S
C1486 C1482 1.524 1_556 S
C1486 H1498 0.956 . S
C1486 H1499 0.961 . S
C1486 H1500 0.961 . S
C1487 C1484 1.539 . S
C1487 H1501 0.958 . S
C1487 H1502 0.961 . S
C1487 H1503 0.960 . S
H1488 C1472 0.931 . S
H1489 C1477 0.929 . S
H1490 C1478 0.960 1_554 S
H1491 C1478 0.962 . S
H1492 C1478 0.960 . S
H1493 C1479 0.961 . S
H1494 C1479 0.961 . S
H1495 C1479 0.961 . S
H1496 C1480 0.931 . S
H1497 C1485 0.930 . S
H1498 C1486 0.956 . S
H1499 C1486 0.961 . S
H1500 C1486 0.961 . S
H1501 C1487 0.958 . S
H1502 C1487 0.961 . S
H1503 C1487 0.960 . S
C1504 C1505 1.391 . S
C1504 C1506 1.394 . S
C1504 H1520 0.931 . S
C1505 C1504 1.391 . S
C1505 C1509 1.376 . S
C1506 C1504 1.394 . S
C1506 C1507 1.369 . S
C1506 C1510 1.531 . S
C1507 C1506 1.369 . S
C1507 C1508 1.410 . S
C1507 C1515 1.503 . S
C1508 C1507 1.410 . S
C1508 C1509 1.392 . S
C1508 C1511 1.511 . S
C1509 C1505 1.376 . S
C1509 C1508 1.392 . S
C1509 H1521 0.929 . S
C1510 C1506 1.531 . S
C1510 H1522 0.960 . S
C1510 H1523 0.962 . S
C1510 H1524 0.960 . S
C1511 C1508 1.511 . S
C1511 H1525 0.961 . S
C1511 H1526 0.961 . S
C1511 H1527 0.961 . S
C1512 C1513 1.370 . S
C1512 C1514 1.363 . S
C1512 H1528 0.931 . S
C1513 C1512 1.370 . S
C1513 C1517 1.408 . S
C1514 C1512 1.363 . S
C1514 C1515 1.370 . S
C1514 C1518 1.524 . S
C1515 C1507 1.503 . S
C1515 C1514 1.370 . S
C1515 C1516 1.403 . S
C1516 C1515 1.403 . S
C1516 C1517 1.404 . S
C1516 C1519 1.539 . S
C1517 C1513 1.408 . S
C1517 C1516 1.404 . S
C1517 H1529 0.930 . S
C1518 C1514 1.524 . S
C1518 H1530 0.956 . S
C1518 H1531 0.961 . S
C1518 H1532 0.961 . S
C1519 C1516 1.539 . S
C1519 H1533 0.958 . S
C1519 H1534 0.961 . S
C1519 H1535 0.960 . S
H1520 C1504 0.931 . S
H1521 C1509 0.929 . S
H1522 C1510 0.960 . S
H1523 C1510 0.962 . S
H1524 C1510 0.960 . S
H1525 C1511 0.961 . S
H1526 C1511 0.961 . S
H1527 C1511 0.961 . S
H1528 C1512 0.931 . S
H1529 C1517 0.930 . S
H1530 C1518 0.956 . S
H1531 C1518 0.961 . S
H1532 C1518 0.961 . S
H1533 C1519 0.958 . S
H1534 C1519 0.961 . S
H1535 C1519 0.960 . S
C1536 C1537 1.391 . S
C1536 C1538 1.394 . S
C1536 H1552 0.931 . S
C1537 C1536 1.391 . S
C1537 C1541 1.376 . S
C1538 C1536 1.394 . S
C1538 C1539 1.369 . S
C1538 C1542 1.531 . S
C1539 C1538 1.369 . S
C1539 C1540 1.410 . S
C1539 C1547 1.503 . S
C1540 C1539 1.410 . S
C1540 C1541 1.392 . S
C1540 C1543 1.511 . S
C1541 C1537 1.376 . S
C1541 C1540 1.392 . S
C1541 H1553 0.929 . S
C1542 C1538 1.531 . S
C1542 H1554 0.960 . S
C1542 H1555 0.962 . S
C1542 H1556 0.960 . S
C1543 C1540 1.511 . S
C1543 H1557 0.961 . S
C1543 H1558 0.961 . S
C1543 H1559 0.961 . S
C1544 C1545 1.370 . S
C1544 C1546 1.363 . S
C1544 H1560 0.931 . S
C1545 C1544 1.370 . S
C1545 C1549 1.408 . S
C1546 C1544 1.363 . S
C1546 C1547 1.370 . S
C1546 C1550 1.524 . S
C1547 C1539 1.503 . S
C1547 C1546 1.370 . S
C1547 C1548 1.403 . S
C1548 C1547 1.403 . S
C1548 C1549 1.404 . S
C1548 C1551 1.539 . S
C1549 C1545 1.408 . S
C1549 C1548 1.404 . S
C1549 H1561 0.930 . S
C1550 C1546 1.524 . S
C1550 H1562 0.956 . S
C1550 H1563 0.961 . S
C1550 H1564 0.961 . S
C1551 C1548 1.539 . S
C1551 H1565 0.958 . S
C1551 H1566 0.961 . S
C1551 H1567 0.960 . S
H1552 C1536 0.931 . S
H1553 C1541 0.929 . S
H1554 C1542 0.960 . S
H1555 C1542 0.962 . S
H1556 C1542 0.960 . S
H1557 C1543 0.961 . S
H1558 C1543 0.961 . S
H1559 C1543 0.961 . S
H1560 C1544 0.931 . S
H1561 C1549 0.930 . S
H1562 C1550 0.956 . S
H1563 C1550 0.961 . S
H1564 C1550 0.961 . S
H1565 C1551 0.958 . S
H1566 C1551 0.961 . S
H1567 C1551 0.960 . S
C1568 C1569 1.391 . S
C1568 C1570 1.394 . S
C1568 H1584 0.931 . S
C1569 C1568 1.391 . S
C1569 C1573 1.376 . S
C1570 C1568 1.394 . S
C1570 C1571 1.369 . S
C1570 C1574 1.531 . S
C1571 C1570 1.369 . S
C1571 C1572 1.410 . S
C1571 C1579 1.503 . S
C1572 C1571 1.410 . S
C1572 C1573 1.392 . S
C1572 C1575 1.511 . S
C1573 C1569 1.376 . S
C1573 C1572 1.392 . S
C1573 H1585 0.929 . S
C1574 C1570 1.531 . S
C1574 H1586 0.960 . S
C1574 H1587 0.962 . S
C1574 H1588 0.960 . S
C1575 C1572 1.511 . S
C1575 H1589 0.961 . S
C1575 H1590 0.961 . S
C1575 H1591 0.961 . S
C1576 C1577 1.370 . S
C1576 C1578 1.363 . S
C1576 H1592 0.931 . S
C1577 C1576 1.370 . S
C1577 C1581 1.408 . S
C1578 C1576 1.363 . S
C1578 C1579 1.370 . S
C1578 C1582 1.524 . S
C1579 C1571 1.503 . S
C1579 C1578 1.370 . S
C1579 C1580 1.403 . S
C1580 C1579 1.403 . S
C1580 C1581 1.404 . S
C1580 C1583 1.539 . S
C1581 C1577 1.408 . S
C1581 C1580 1.404 . S
C1581 H1593 0.930 . S
C1582 C1578 1.524 . S
C1582 H1594 0.956 . S
C1582 H1595 0.961 . S
C1582 H1596 0.961 . S
C1583 C1580 1.539 . S
C1583 H1597 0.958 . S
C1583 H1598 0.961 . S
C1583 H1599 0.960 . S
H1584 C1568 0.931 . S
H1585 C1573 0.929 . S
H1586 C1574 0.960 . S
H1587 C1574 0.962 . S
H1588 C1574 0.960 . S
H1589 C1575 0.961 . S
H1590 C1575 0.961 . S
H1591 C1575 0.961 . S
H1592 C1576 0.931 . S
H1593 C1581 0.930 . S
H1594 C1582 0.956 . S
H1595 C1582 0.961 . S
H1596 C1582 0.961 . S
H1597 C1583 0.958 . S
H1598 C1583 0.961 . S
H1599 C1583 0.960 . S
C1600 C1601 1.391 . S
C1600 C1602 1.394 . S
C1600 H1616 0.931 . S
C1601 C1600 1.391 . S
C1601 C1605 1.376 . S
C1602 C1600 1.394 . S
C1602 C1603 1.369 . S
C1602 C1606 1.531 . S
C1603 C1602 1.369 . S
C1603 C1604 1.410 . S
C1603 C1611 1.503 . S
C1604 C1603 1.410 . S
C1604 C1605 1.392 . S
C1604 C1607 1.511 . S
C1605 C1601 1.376 . S
C1605 C1604 1.392 . S
C1605 H1617 0.929 . S
C1606 C1602 1.531 . S
C1606 H1618 0.960 . S
C1606 H1619 0.962 . S
C1606 H1620 0.960 . S
C1607 C1604 1.511 . S
C1607 H1621 0.961 . S
C1607 H1622 0.961 . S
C1607 H1623 0.961 . S
C1608 C1609 1.370 . S
C1608 C1610 1.363 . S
C1608 H1624 0.931 . S
C1609 C1608 1.370 . S
C1609 C1613 1.408 . S
C1610 C1608 1.363 . S
C1610 C1611 1.370 . S
C1610 C1614 1.524 . S
C1611 C1603 1.503 . S
C1611 C1610 1.370 . S
C1611 C1612 1.403 . S
C1612 C1611 1.403 . S
C1612 C1613 1.404 . S
C1612 C1615 1.539 . S
C1613 C1609 1.408 . S
C1613 C1612 1.404 . S
C1613 H1625 0.930 . S
C1614 C1610 1.524 . S
C1614 H1626 0.956 . S
C1614 H1627 0.961 . S
C1614 H1628 0.961 . S
C1615 C1612 1.539 . S
C1615 H1629 0.958 . S
C1615 H1630 0.961 . S
C1615 H1631 0.960 . S
H1616 C1600 0.931 . S
H1617 C1605 0.929 . S
H1618 C1606 0.960 . S
H1619 C1606 0.962 . S
H1620 C1606 0.960 . S
H1621 C1607 0.961 . S
H1622 C1607 0.961 . S
H1623 C1607 0.961 . S
H1624 C1608 0.931 . S
H1625 C1613 0.930 . S
H1626 C1614 0.956 . S
H1627 C1614 0.961 . S
H1628 C1614 0.961 . S
H1629 C1615 0.958 . S
H1630 C1615 0.961 . S
H1631 C1615 0.960 . S
C1632 C1633 1.391 . S
C1632 C1634 1.394 . S
C1632 H1648 0.931 . S
C1633 C1632 1.391 . S
C1633 C1637 1.376 . S
C1634 C1632 1.394 . S
C1634 C1635 1.369 . S
C1634 C1638 1.531 . S
C1635 C1634 1.369 . S
C1635 C1636 1.410 . S
C1635 C1643 1.503 . S
C1636 C1635 1.410 . S
C1636 C1637 1.392 . S
C1636 C1639 1.511 . S
C1637 C1633 1.376 . S
C1637 C1636 1.392 . S
C1637 H1649 0.929 . S
C1638 C1634 1.531 . S
C1638 H1650 0.960 . S
C1638 H1651 0.962 . S
C1638 H1652 0.960 . S
C1639 C1636 1.511 . S
C1639 H1653 0.961 . S
C1639 H1654 0.961 . S
C1639 H1655 0.961 . S
C1640 C1641 1.370 . S
C1640 C1642 1.363 . S
C1640 H1656 0.931 . S
C1641 C1640 1.370 . S
C1641 C1645 1.408 . S
C1642 C1640 1.363 . S
C1642 C1643 1.370 . S
C1642 C1646 1.524 . S
C1643 C1635 1.503 . S
C1643 C1642 1.370 . S
C1643 C1644 1.403 . S
C1644 C1643 1.403 . S
C1644 C1645 1.404 . S
C1644 C1647 1.539 . S
C1645 C1641 1.408 . S
C1645 C1644 1.404 . S
C1645 H1657 0.930 . S
C1646 C1642 1.524 . S
C1646 H1658 0.956 . S
C1646 H1659 0.961 . S
C1646 H1660 0.961 . S
C1647 C1644 1.539 . S
C1647 H1661 0.958 . S
C1647 H1662 0.961 . S
C1647 H1663 0.960 . S
H1648 C1632 0.931 . S
H1649 C1637 0.929 . S
H1650 C1638 0.960 . S
H1651 C1638 0.962 . S
H1652 C1638 0.960 . S
H1653 C1639 0.961 . S
H1654 C1639 0.961 . S
H1655 C1639 0.961 . S
H1656 C1640 0.931 . S
H1657 C1645 0.930 . S
H1658 C1646 0.956 . S
H1659 C1646 0.961 . S
H1660 C1646 0.961 . S
H1661 C1647 0.958 . S
H1662 C1647 0.961 . S
H1663 C1647 0.960 . S
C1664 C1665 1.391 . S
C1664 C1666 1.394 . S
C1664 H1680 0.931 . S
C1665 C1664 1.391 . S
C1665 C1669 1.376 . S
C1666 C1664 1.394 . S
C1666 C1667 1.369 . S
C1666 C1670 1.531 . S
C1667 C1666 1.369 . S
C1667 C1668 1.410 . S
C1667 C1675 1.503 . S
C1668 C1667 1.410 . S
C1668 C1669 1.392 . S
C1668 C1671 1.511 . S
C1669 C1665 1.376 . S
C1669 C1668 1.392 . S
C1669 H1681 0.929 . S
C1670 C1666 1.531 . S
C1670 H1682 0.960 . S
C1670 H1683 0.962 . S
C1670 H1684 0.960 . S
C1671 C1668 1.511 . S
C1671 H1685 0.961 . S
C1671 H1686 0.961 . S
C1671 H1687 0.961 . S
C1672 C1673 1.370 . S
C1672 C1674 1.363 . S
C1672 H1688 0.931 . S
C1673 C1672 1.370 . S
C1673 C1677 1.408 . S
C1674 C1672 1.363 . S
C1674 C1675 1.370 . S
C1674 C1678 1.524 . S
C1675 C1667 1.503 . S
C1675 C1674 1.370 . S
C1675 C1676 1.403 . S
C1676 C1675 1.403 . S
C1676 C1677 1.404 . S
C1676 C1679 1.539 . S
C1677 C1673 1.408 . S
C1677 C1676 1.404 . S
C1677 H1689 0.930 . S
C1678 C1674 1.524 . S
C1678 H1690 0.956 . S
C1678 H1691 0.961 . S
C1678 H1692 0.961 . S
C1679 C1676 1.539 . S
C1679 H1693 0.958 . S
C1679 H1694 0.961 . S
C1679 H1695 0.960 . S
H1680 C1664 0.931 . S
H1681 C1669 0.929 . S
H1682 C1670 0.960 . S
H1683 C1670 0.962 . S
H1684 C1670 0.960 . S
H1685 C1671 0.961 . S
H1686 C1671 0.961 . S
H1687 C1671 0.961 . S
H1688 C1672 0.931 . S
H1689 C1677 0.930 . S
H1690 C1678 0.956 . S
H1691 C1678 0.961 . S
H1692 C1678 0.961 . S
H1693 C1679 0.958 . S
H1694 C1679 0.961 . S
H1695 C1679 0.960 . S
C1696 C1697 1.391 . S
C1696 C1698 1.394 . S
C1696 H1712 0.931 . S
C1697 C1696 1.391 . S
C1697 C1701 1.376 . S
C1698 C1696 1.394 . S
C1698 C1699 1.369 . S
C1698 C1702 1.531 . S
C1699 C1698 1.369 . S
C1699 C1700 1.410 . S
C1699 C1707 1.503 . S
C1700 C1699 1.410 . S
C1700 C1701 1.392 . S
C1700 C1703 1.511 . S
C1701 C1697 1.376 . S
C1701 C1700 1.392 . S
C1701 H1713 0.929 . S
C1702 C1698 1.531 . S
C1702 H1714 0.960 . S
C1702 H1715 0.962 . S
C1702 H1716 0.960 . S
C1703 C1700 1.511 . S
C1703 H1717 0.961 . S
C1703 H1718 0.961 . S
C1703 H1719 0.961 . S
C1704 C1705 1.370 . S
C1704 C1706 1.363 . S
C1704 H1720 0.931 . S
C1705 C1704 1.370 . S
C1705 C1709 1.408 . S
C1706 C1704 1.363 . S
C1706 C1707 1.370 . S
C1706 C1710 1.524 . S
C1707 C1699 1.503 . S
C1707 C1706 1.370 . S
C1707 C1708 1.403 . S
C1708 C1707 1.403 . S
C1708 C1709 1.404 . S
C1708 C1711 1.539 . S
C1709 C1705 1.408 . S
C1709 C1708 1.404 . S
C1709 H1721 0.930 . S
C1710 C1706 1.524 . S
C1710 H1722 0.956 . S
C1710 H1723 0.961 . S
C1710 H1724 0.961 . S
C1711 C1708 1.539 . S
C1711 H1725 0.958 . S
C1711 H1726 0.961 . S
C1711 H1727 0.960 . S
H1712 C1696 0.931 . S
H1713 C1701 0.929 . S
H1714 C1702 0.960 . S
H1715 C1702 0.962 . S
H1716 C1702 0.960 . S
H1717 C1703 0.961 . S
H1718 C1703 0.961 . S
H1719 C1703 0.961 . S
H1720 C1704 0.931 . S
H1721 C1709 0.930 . S
H1722 C1710 0.956 . S
H1723 C1710 0.961 . S
H1724 C1710 0.961 . S
H1725 C1711 0.958 . S
H1726 C1711 0.961 . S
H1727 C1711 0.960 . S
C1728 C1729 1.391 . S
C1728 C1730 1.394 . S
C1728 H1744 0.931 . S
C1729 C1728 1.391 . S
C1729 C1733 1.376 . S
C1730 C1728 1.394 . S
C1730 C1731 1.369 . S
C1730 C1734 1.531 . S
C1731 C1730 1.369 . S
C1731 C1732 1.410 . S
C1731 C1739 1.503 . S
C1732 C1731 1.410 . S
C1732 C1733 1.392 . S
C1732 C1735 1.511 . S
C1733 C1729 1.376 . S
C1733 C1732 1.392 . S
C1733 H1745 0.929 . S
C1734 C1730 1.531 . S
C1734 H1746 0.960 . S
C1734 H1747 0.962 . S
C1734 H1748 0.960 . S
C1735 C1732 1.511 . S
C1735 H1749 0.961 . S
C1735 H1750 0.961 . S
C1735 H1751 0.961 . S
C1736 C1737 1.370 . S
C1736 C1738 1.363 . S
C1736 H1752 0.931 . S
C1737 C1736 1.370 . S
C1737 C1741 1.408 . S
C1738 C1736 1.363 . S
C1738 C1739 1.370 . S
C1738 C1742 1.524 . S
C1739 C1731 1.503 . S
C1739 C1738 1.370 . S
C1739 C1740 1.403 . S
C1740 C1739 1.403 . S
C1740 C1741 1.404 . S
C1740 C1743 1.539 . S
C1741 C1737 1.408 . S
C1741 C1740 1.404 . S
C1741 H1753 0.930 . S
C1742 C1738 1.524 . S
C1742 H1754 0.956 . S
C1742 H1755 0.961 . S
C1742 H1756 0.961 . S
C1743 C1740 1.539 . S
C1743 H1757 0.958 . S
C1743 H1758 0.961 . S
C1743 H1759 0.960 . S
H1744 C1728 0.931 . S
H1745 C1733 0.929 . S
H1746 C1734 0.960 . S
H1747 C1734 0.962 . S
H1748 C1734 0.960 . S
H1749 C1735 0.961 . S
H1750 C1735 0.961 . S
H1751 C1735 0.961 . S
H1752 C1736 0.931 . S
H1753 C1741 0.930 . S
H1754 C1742 0.956 . S
H1755 C1742 0.961 . S
H1756 C1742 0.961 . S
H1757 C1743 0.958 . S
H1758 C1743 0.961 . S
H1759 C1743 0.960 . S
C1760 C1761 1.391 . S
C1760 C1762 1.394 . S
C1760 H1776 0.931 . S
C1761 C1760 1.391 . S
C1761 C1765 1.376 . S
C1762 C1760 1.394 . S
C1762 C1763 1.369 . S
C1762 C1766 1.531 . S
C1763 C1762 1.369 . S
C1763 C1764 1.410 . S
C1763 C1771 1.503 . S
C1764 C1763 1.410 . S
C1764 C1765 1.392 . S
C1764 C1767 1.511 . S
C1765 C1761 1.376 . S
C1765 C1764 1.392 . S
C1765 H1777 0.929 . S
C1766 C1762 1.531 . S
C1766 H1778 0.960 . S
C1766 H1779 0.962 . S
C1766 H1780 0.960 . S
C1767 C1764 1.511 . S
C1767 H1781 0.961 . S
C1767 H1782 0.961 . S
C1767 H1783 0.961 . S
C1768 C1769 1.370 . S
C1768 C1770 1.363 . S
C1768 H1784 0.931 . S
C1769 C1768 1.370 . S
C1769 C1773 1.408 . S
C1770 C1768 1.363 . S
C1770 C1771 1.370 . S
C1770 C1774 1.524 . S
C1771 C1763 1.503 . S
C1771 C1770 1.370 . S
C1771 C1772 1.403 . S
C1772 C1771 1.403 . S
C1772 C1773 1.404 . S
C1772 C1775 1.539 . S
C1773 C1769 1.408 . S
C1773 C1772 1.404 . S
C1773 H1785 0.930 . S
C1774 C1770 1.524 . S
C1774 H1786 0.956 . S
C1774 H1787 0.961 . S
C1774 H1788 0.961 . S
C1775 C1772 1.539 . S
C1775 H1789 0.958 . S
C1775 H1790 0.961 . S
C1775 H1791 0.960 . S
H1776 C1760 0.931 . S
H1777 C1765 0.929 . S
H1778 C1766 0.960 . S
H1779 C1766 0.962 . S
H1780 C1766 0.960 . S
H1781 C1767 0.961 . S
H1782 C1767 0.961 . S
H1783 C1767 0.961 . S
H1784 C1768 0.931 . S
H1785 C1773 0.930 . S
H1786 C1774 0.956 . S
H1787 C1774 0.961 . S
H1788 C1774 0.961 . S
H1789 C1775 0.958 . S
H1790 C1775 0.961 . S
H1791 C1775 0.960 . S
C1792 C1793 1.391 . S
C1792 C1794 1.394 . S
C1792 H1808 0.931 . S
C1793 C1792 1.391 . S
C1793 C1797 1.376 . S
C1794 C1792 1.394 . S
C1794 C1795 1.369 . S
C1794 C1798 1.531 . S
C1795 C1794 1.369 . S
C1795 C1796 1.410 . S
C1795 C1803 1.503 . S
C1796 C1795 1.410 . S
C1796 C1797 1.392 . S
C1796 C1799 1.511 . S
C1797 C1793 1.376 . S
C1797 C1796 1.392 . S
C1797 H1809 0.929 . S
C1798 C1794 1.531 . S
C1798 H1810 0.960 . S
C1798 H1811 0.962 . S
C1798 H1812 0.960 . S
C1799 C1796 1.511 . S
C1799 H1813 0.961 . S
C1799 H1814 0.961 . S
C1799 H1815 0.961 . S
C1800 C1801 1.370 . S
C1800 C1802 1.363 . S
C1800 H1816 0.931 . S
C1801 C1800 1.370 . S
C1801 C1805 1.408 . S
C1802 C1800 1.363 . S
C1802 C1803 1.370 . S
C1802 C1806 1.524 . S
C1803 C1795 1.503 . S
C1803 C1802 1.370 . S
C1803 C1804 1.403 . S
C1804 C1803 1.403 . S
C1804 C1805 1.404 . S
C1804 C1807 1.539 . S
C1805 C1801 1.408 . S
C1805 C1804 1.404 . S
C1805 H1817 0.930 . S
C1806 C1802 1.524 . S
C1806 H1818 0.956 . S
C1806 H1819 0.961 . S
C1806 H1820 0.961 . S
C1807 C1804 1.539 . S
C1807 H1821 0.958 . S
C1807 H1822 0.961 . S
C1807 H1823 0.960 . S
H1808 C1792 0.931 . S
H1809 C1797 0.929 . S
H1810 C1798 0.960 . S
H1811 C1798 0.962 . S
H1812 C1798 0.960 . S
H1813 C1799 0.961 . S
H1814 C1799 0.961 . S
H1815 C1799 0.961 . S
H1816 C1800 0.931 . S
H1817 C1805 0.930 . S
H1818 C1806 0.956 . S
H1819 C1806 0.961 . S
H1820 C1806 0.961 . S
H1821 C1807 0.958 . S
H1822 C1807 0.961 . S
H1823 C1807 0.960 . S
C1057 C753 1.353 . S
C1065 C57 1.382 . S
C1089 C145 1.367 . S
C1097 C821 1.373 . S
C1121 C233 1.350 . S
C1129 C900 1.380 . S
C1153 C293 1.391 . S
C1161 C997 1.364 . S
C1185 C557 1.390 . S
C1193 C372 1.366 . S
C1217 C460 1.348 . S
C1225 C645 1.382 . S
C1249 C20 1.452 . S
C1257 C469 1.458 . S
C1281 C108 1.453 . S
C1289 C49 1.447 . S
C1313 C196 1.461 . S
C1321 C137 1.463 . S
C1345 C225 1.454 . S
C1353 C313 1.473 . S
C1377 C284 1.440 . S
C1385 C409 1.459 . S
C1409 C381 1.474 . S
C1417 C497 1.475 . S
C1441 C636 1.472 . S
C1449 C577 1.475 . S
C1473 C665 1.482 . S
C1481 C761 1.465 . S
C1505 C812 1.431 . S
C1513 C733 1.459 . S
C1537 C841 1.469 . S
C1545 C909 1.452 . S
C1569 C937 1.478 . S
C1577 C988 1.466 . S
C1601 C1017 1.471 . S
C1609 C548 1.466 . S
C1633 C929 1.127 . S
C1641 C29 1.135 . S
C1665 C1025 1.138 . S
C1673 C117 1.141 . S
C1697 C585 1.145 . S
C1705 C205 1.143 . S
C1729 C321 1.134 . S
C1737 C673 1.137 . S
C1761 C401 1.128 . S
C1769 C724 1.136 . S
C1793 C849 1.144 . S
C1801 C489 1.143 . S
