# Generated by pormake.
# Topology lcy-a-x, (5)-cn, num edge types: 1
# Building blocks:
#     Node 0, Type 0, BuildingBlock: BEQFEK_clean_sbu_0, # of connection points: 5
#     Node 1, Type 0, BuildingBlock: BEQFEK_clean_sbu_0, # of connection points: 5
#     Node 2, Type 0, BuildingBlock: BEQFEK_clean_sbu_0, # of connection points: 5
#     Node 3, Type 0, BuildingBlock: BEQFEK_clean_sbu_0, # of connection points: 5
#     Node 4, Type 0, BuildingBlock: BEQFEK_clean_sbu_0, # of connection points: 5
#     Node 5, Type 0, BuildingBlock: BEQFEK_clean_sbu_0, # of connection points: 5
#     Node 6, Type 0, BuildingBlock: BEQFEK_clean_sbu_0, # of connection points: 5
#     Node 7, Type 0, BuildingBlock: BEQFEK_clean_sbu_0, # of connection points: 5
#     Node 8, Type 0, BuildingBlock: BEQFEK_clean_sbu_0, # of connection points: 5
#     Node 9, Type 0, BuildingBlock: BEQFEK_clean_sbu_0, # of connection points: 5
#     Node 10, Type 0, BuildingBlock: BEQFEK_clean_sbu_0, # of connection points: 5
#     Node 11, Type 0, BuildingBlock: BEQFEK_clean_sbu_0, # of connection points: 5
#     Node 12, Type 0, BuildingBlock: BEQFEK_clean_sbu_0, # of connection points: 5
#     Node 13, Type 0, BuildingBlock: BEQFEK_clean_sbu_0, # of connection points: 5
#     Node 14, Type 0, BuildingBlock: BEQFEK_clean_sbu_0, # of connection points: 5
#     Node 15, Type 0, BuildingBlock: BEQFEK_clean_sbu_0, # of connection points: 5
#     Node 16, Type 0, BuildingBlock: BEQFEK_clean_sbu_0, # of connection points: 5
#     Node 17, Type 0, BuildingBlock: BEQFEK_clean_sbu_0, # of connection points: 5
#     Node 18, Type 0, BuildingBlock: BEQFEK_clean_sbu_0, # of connection points: 5
#     Node 19, Type 0, BuildingBlock: BEQFEK_clean_sbu_0, # of connection points: 5
#     Node 20, Type 0, BuildingBlock: BEQFEK_clean_sbu_0, # of connection points: 5
#     Node 21, Type 0, BuildingBlock: BEQFEK_clean_sbu_0, # of connection points: 5
#     Node 22, Type 0, BuildingBlock: BEQFEK_clean_sbu_0, # of connection points: 5
#     Node 23, Type 0, BuildingBlock: BEQFEK_clean_sbu_0, # of connection points: 5
#     Edge 24, Type (0, 0), BuildingBlock: XIVTED_clean_linker_0, # of connection points: 2
#     Edge 25, Type (0, 0), BuildingBlock: XIVTED_clean_linker_0, # of connection points: 2
#     Edge 26, Type (0, 0), BuildingBlock: XIVTED_clean_linker_0, # of connection points: 2
#     Edge 27, Type (0, 0), BuildingBlock: XIVTED_clean_linker_0, # of connection points: 2
#     Edge 28, Type (0, 0), BuildingBlock: XIVTED_clean_linker_0, # of connection points: 2
#     Edge 29, Type (0, 0), BuildingBlock: XIVTED_clean_linker_0, # of connection points: 2
#     Edge 30, Type (0, 0), BuildingBlock: XIVTED_clean_linker_0, # of connection points: 2
#     Edge 31, Type (0, 0), BuildingBlock: XIVTED_clean_linker_0, # of connection points: 2
#     Edge 32, Type (0, 0), BuildingBlock: XIVTED_clean_linker_0, # of connection points: 2
#     Edge 33, Type (0, 0), BuildingBlock: XIVTED_clean_linker_0, # of connection points: 2
#     Edge 34, Type (0, 0), BuildingBlock: XIVTED_clean_linker_0, # of connection points: 2
#     Edge 35, Type (0, 0), BuildingBlock: XIVTED_clean_linker_0, # of connection points: 2
#     Edge 36, Type (0, 0), BuildingBlock: XIVTED_clean_linker_0, # of connection points: 2
#     Edge 37, Type (0, 0), BuildingBlock: XIVTED_clean_linker_0, # of connection points: 2
#     Edge 38, Type (0, 0), BuildingBlock: XIVTED_clean_linker_0, # of connection points: 2
#     Edge 39, Type (0, 0), BuildingBlock: XIVTED_clean_linker_0, # of connection points: 2
#     Edge 40, Type (0, 0), BuildingBlock: XIVTED_clean_linker_0, # of connection points: 2
#     Edge 41, Type (0, 0), BuildingBlock: XIVTED_clean_linker_0, # of connection points: 2
#     Edge 42, Type (0, 0), BuildingBlock: XIVTED_clean_linker_0, # of connection points: 2
#     Edge 43, Type (0, 0), BuildingBlock: XIVTED_clean_linker_0, # of connection points: 2
#     Edge 44, Type (0, 0), BuildingBlock: XIVTED_clean_linker_0, # of connection points: 2
#     Edge 45, Type (0, 0), BuildingBlock: XIVTED_clean_linker_0, # of connection points: 2
#     Edge 46, Type (0, 0), BuildingBlock: XIVTED_clean_linker_0, # of connection points: 2
#     Edge 47, Type (0, 0), BuildingBlock: XIVTED_clean_linker_0, # of connection points: 2
#     Edge 48, Type (0, 0), BuildingBlock: XIVTED_clean_linker_0, # of connection points: 2
#     Edge 49, Type (0, 0), BuildingBlock: XIVTED_clean_linker_0, # of connection points: 2
#     Edge 50, Type (0, 0), BuildingBlock: XIVTED_clean_linker_0, # of connection points: 2
#     Edge 51, Type (0, 0), BuildingBlock: XIVTED_clean_linker_0, # of connection points: 2
#     Edge 52, Type (0, 0), BuildingBlock: XIVTED_clean_linker_0, # of connection points: 2
#     Edge 53, Type (0, 0), BuildingBlock: XIVTED_clean_linker_0, # of connection points: 2
#     Edge 54, Type (0, 0), BuildingBlock: XIVTED_clean_linker_0, # of connection points: 2
#     Edge 55, Type (0, 0), BuildingBlock: XIVTED_clean_linker_0, # of connection points: 2
#     Edge 56, Type (0, 0), BuildingBlock: XIVTED_clean_linker_0, # of connection points: 2
#     Edge 57, Type (0, 0), BuildingBlock: XIVTED_clean_linker_0, # of connection points: 2
#     Edge 58, Type (0, 0), BuildingBlock: XIVTED_clean_linker_0, # of connection points: 2
#     Edge 59, Type (0, 0), BuildingBlock: XIVTED_clean_linker_0, # of connection points: 2
#     Edge 60, Type (0, 0), BuildingBlock: XIVTED_clean_linker_0, # of connection points: 2
#     Edge 61, Type (0, 0), BuildingBlock: XIVTED_clean_linker_0, # of connection points: 2
#     Edge 62, Type (0, 0), BuildingBlock: XIVTED_clean_linker_0, # of connection points: 2
#     Edge 63, Type (0, 0), BuildingBlock: XIVTED_clean_linker_0, # of connection points: 2
#     Edge 64, Type (0, 0), BuildingBlock: XIVTED_clean_linker_0, # of connection points: 2
#     Edge 65, Type (0, 0), BuildingBlock: XIVTED_clean_linker_0, # of connection points: 2
#     Edge 66, Type (0, 0), BuildingBlock: XIVTED_clean_linker_0, # of connection points: 2
#     Edge 67, Type (0, 0), BuildingBlock: XIVTED_clean_linker_0, # of connection points: 2
#     Edge 68, Type (0, 0), BuildingBlock: XIVTED_clean_linker_0, # of connection points: 2
#     Edge 69, Type (0, 0), BuildingBlock: XIVTED_clean_linker_0, # of connection points: 2
#     Edge 70, Type (0, 0), BuildingBlock: XIVTED_clean_linker_0, # of connection points: 2
#     Edge 71, Type (0, 0), BuildingBlock: XIVTED_clean_linker_0, # of connection points: 2
#     Edge 72, Type (0, 0), BuildingBlock: XIVTED_clean_linker_0, # of connection points: 2
#     Edge 73, Type (0, 0), BuildingBlock: XIVTED_clean_linker_0, # of connection points: 2
#     Edge 74, Type (0, 0), BuildingBlock: XIVTED_clean_linker_0, # of connection points: 2
#     Edge 75, Type (0, 0), BuildingBlock: XIVTED_clean_linker_0, # of connection points: 2
#     Edge 76, Type (0, 0), BuildingBlock: XIVTED_clean_linker_0, # of connection points: 2
#     Edge 77, Type (0, 0), BuildingBlock: XIVTED_clean_linker_0, # of connection points: 2
#     Edge 78, Type (0, 0), BuildingBlock: XIVTED_clean_linker_0, # of connection points: 2
#     Edge 79, Type (0, 0), BuildingBlock: XIVTED_clean_linker_0, # of connection points: 2
#     Edge 80, Type (0, 0), BuildingBlock: XIVTED_clean_linker_0, # of connection points: 2
#     Edge 81, Type (0, 0), BuildingBlock: XIVTED_clean_linker_0, # of connection points: 2
#     Edge 82, Type (0, 0), BuildingBlock: XIVTED_clean_linker_0, # of connection points: 2
#     Edge 83, Type (0, 0), BuildingBlock: XIVTED_clean_linker_0, # of connection points: 2
# Relax obj value: 1.260
# Max RMSD: 0.181
# Mean RMSD: 0.181
data_MOF--net-lcy-a-x--node1-BEQFEK_clean_sbu_0--edge1-XIVTED_clean_linker_0
_symmetry_space_group_name_H-M    P1
_symmetry_Int_Tables_number       1
_symmetry_cell_setting            triclinic
loop_
_symmetry_equiv_pos_as_xyz
'x, y, z'
_cell_length_a     52.678083
_cell_length_b     52.949447
_cell_length_c     52.836199
_cell_angle_alpha  89.988057
_cell_angle_beta   90.13133
_cell_angle_gamma 90.271634
loop_
_atom_site_label
_atom_site_type_symbol
_atom_site_fract_x
_atom_site_fract_y
_atom_site_fract_z
_atom_type_partial_charge
Co0 Co 0.01231 0.05706 0.81097 0.0
Co1 Co 0.04767 0.07768 0.76825 0.0
C2 C 0.98974 0.072 0.76396 0.0
O3 O 0.98577 0.06664 0.78697 0.0
O4 O 0.01213 0.07565 0.75591 0.0
C5 C 0.98696 0.02062 0.84141 0.0
O6 O 0.00021 0.00494 0.82753 0.0
C7 C 0.05004 0.12359 0.74093 0.0
C8 C 0.08139 0.11957 0.7137 0.0
C9 C 0.06161 0.13536 0.72065 0.0
N10 N 0.06194 0.10173 0.74559 0.0
N11 N 0.08096 0.09947 0.7295 0.0
C12 C 0.02766 0.13282 0.75571 0.0
H13 H 0.02837 0.12572 0.77542 0.0
H14 H 0.02709 0.15378 0.75581 0.0
H15 H 0.0099 0.12566 0.74693 0.0
C16 C 0.03764 0.10111 0.838 0.0
N17 N 0.03438 0.08452 0.81883 0.0
N18 N 0.05171 0.08904 0.80164 0.0
C19 C 0.06786 0.10672 0.80999 0.0
C20 C 0.05896 0.11625 0.83286 0.0
C21 C 0.01908 0.10409 0.85915 0.0
H22 H 0.00186 0.09243 0.85572 0.0
H23 H 0.01362 0.12422 0.86109 0.0
H24 H 0.02808 0.09802 0.87714 0.0
O25 O 0.03146 0.02906 0.79304 0.0
O26 O 0.05994 0.0436 0.76528 0.0
H27 H 0.10002 0.09591 0.78769 0.0
H28 H 0.10623 0.12142 0.80982 0.0
C29 C 0.09209 0.11317 0.79654 0.0
H30 H 0.08837 0.12684 0.78111 0.0
H31 H 0.09285 0.08376 0.7285 0.0
O32 O 0.9921 0.0441 0.84018 0.0
C33 C 0.04879 0.02534 0.77645 0.0
Co34 Co 0.31236 0.78335 0.00484 0.0
Co35 Co 0.28398 0.82066 0.96769 0.0
C36 C 0.31351 0.77599 0.94889 0.0
O37 O 0.31934 0.76849 0.97102 0.0
O38 O 0.30025 0.79569 0.94554 0.0
C39 C 0.33485 0.73796 0.02521 0.0
O40 O 0.34574 0.7364 0.00293 0.0
C41 C 0.24963 0.83074 0.92628 0.0
C42 C 0.2413 0.87143 0.92971 0.0
C43 C 0.23617 0.85019 0.91519 0.0
N44 N 0.26245 0.83998 0.94624 0.0
N45 N 0.25753 0.86437 0.94817 0.0
C46 C 0.24848 0.80328 0.91951 0.0
H47 H 0.2526 0.79141 0.9363 0.0
H48 H 0.22949 0.79819 0.91187 0.0
H49 H 0.26284 0.79931 0.90475 0.0
C50 C 0.26036 0.77759 0.02408 0.0
N51 N 0.27723 0.78897 0.00875 0.0
N52 N 0.26513 0.8045 0.99353 0.0
C53 C 0.2401 0.80348 -0.0012 0.0
C54 C 0.23633 0.78618 0.01819 0.0
C55 C 0.26703 0.75817 0.04352 0.0
H56 H 0.28214 0.76581 0.05603 0.0
H57 H 0.27433 0.74106 0.03389 0.0
H58 H 0.25045 0.75291 0.05534 0.0
O59 O 0.33142 0.81562 0.00789 0.0
O60 O 0.31135 0.84191 0.98166 0.0
H61 H 0.22557 0.83671 0.98084 0.0
H62 H 0.20133 0.81605 0.99335 0.0
C63 C 0.22002 0.81672 0.98381 0.0
H64 H 0.21805 0.80751 0.96508 0.0
H65 H 0.26503 0.87611 0.96222 0.0
O66 O 0.32249 0.75779 0.03072 0.0
C67 C 0.3291 0.83723 -0.00263 0.0
Co68 Co 0.52413 0.03871 0.26699 0.0
Co69 Co 0.50895 -0.00304 0.22709 0.0
C70 C 0.55596 0.0272 0.22096 0.0
O71 O 0.55131 0.03973 0.24089 0.0
O72 O 0.54166 0.00908 0.21422 0.0
C73 C 0.55456 0.07613 0.29102 0.0
O74 O 0.55398 0.08629 0.26834 0.0
C75 C 0.51737 0.95169 0.19835 0.0
C76 C 0.47944 0.94137 0.18369 0.0
C77 C 0.50475 0.93419 0.1834 0.0
N78 N 0.50046 0.96848 0.20693 0.0
N79 N 0.47776 0.96226 0.19819 0.0
C80 C 0.54471 0.9515 0.20622 0.0
H81 H 0.55603 0.9626 0.19244 0.0
H82 H 0.547 0.96036 0.22512 0.0
H83 H 0.55213 0.93193 0.20678 0.0
C84 C 0.51216 -0.00355 0.30183 0.0
N85 N 0.51547 0.0059 0.27837 0.0
N86 N 0.50921 0.98854 0.26169 0.0
C87 C 0.5018 0.96747 0.27389 0.0
C88 C 0.50303 0.97189 0.2998 0.0
C89 C 0.51677 0.01105 0.32564 0.0
H90 H 0.50823 0.03009 0.32392 0.0
H91 H 0.53752 0.01351 0.32836 0.0
H92 H 0.50869 0.00121 0.34235 0.0
O93 O 0.49393 0.05392 0.25032 0.0
O94 O 0.48506 0.02472 0.22087 0.0
H95 H 0.47764 0.94572 0.24954 0.0
H96 H 0.49272 0.92716 0.27393 0.0
C97 C 0.49526 0.94318 0.26076 0.0
H98 H 0.51077 0.93814 0.24767 0.0
H99 H 0.46123 0.97234 0.20195 0.0
O100 O 0.53967 0.05773 0.29573 0.0
C101 C 0.481 0.04604 0.23129 0.0
Co102 Co 0.2334 0.26672 0.48427 0.0
Co103 Co 0.24499 0.22635 0.4421 0.0
C104 C 0.21901 0.2731 0.42858 0.0
O105 O 0.21879 0.27837 0.45199 0.0
O106 O 0.23024 0.2535 0.4205 0.0
C107 C 0.23521 0.31828 0.49582 0.0
O108 O 0.23731 0.31876 0.47109 0.0
C109 C 0.26959 0.20367 0.39871 0.0
C110 C 0.27413 0.16392 0.41057 0.0
C111 C 0.28064 0.18098 0.39175 0.0
N112 N 0.25732 0.20022 0.42068 0.0
N113 N 0.2595 0.17626 0.42737 0.0
C114 C 0.27398 0.22911 0.38698 0.0
H115 H 0.273 0.24415 0.40152 0.0
H116 H 0.29275 0.23018 0.37755 0.0
H117 H 0.259 0.23261 0.37262 0.0
C118 C 0.28849 0.26281 0.49204 0.0
N119 N 0.26702 0.25572 0.48013 0.0
N120 N 0.27237 0.23886 0.46266 0.0
C121 C 0.29769 0.2347 0.46303 0.0
C122 C 0.30867 0.24988 0.48156 0.0
C123 C 0.28957 0.28135 0.5134 0.0
H124 H 0.27349 0.27798 0.52649 0.0
H125 H 0.28793 0.30076 0.50566 0.0
H126 H 0.30767 0.27986 0.52407 0.0
O127 O 0.21158 0.23889 0.49574 0.0
O128 O 0.21665 0.21263 0.46316 0.0
H129 H 0.30293 0.19875 0.44534 0.0
H130 H 0.33192 0.21649 0.44925 0.0
C131 C 0.31142 0.21791 0.44489 0.0
H132 H 0.30958 0.22565 0.42554 0.0
H133 H 0.25253 0.16879 0.44428 0.0
O134 O 0.23311 0.29707 0.50705 0.0
C135 C 0.20567 0.21876 0.48377 0.0
Co136 Co 0.57087 0.52646 0.30785 0.0
Co137 Co 0.61507 0.51382 0.34571 0.0
C138 C 0.57 0.54409 0.36174 0.0
O139 O 0.56075 0.54253 0.33959 0.0
O140 O 0.59094 0.53351 0.36733 0.0
C141 C 0.5271 0.54858 0.28583 0.0
O142 O 0.53447 0.56815 0.2993 0.0
C143 C 0.63464 0.48782 0.38923 0.0
C144 C 0.67421 0.47933 0.37864 0.0
C145 C 0.65585 0.47434 0.39676 0.0
N146 N 0.6401 0.49997 0.36764 0.0
N147 N 0.66404 0.49551 0.36175 0.0
C148 C 0.60827 0.4856 0.39969 0.0
H149 H 0.60553 0.5005 0.41419 0.0
H150 H 0.59399 0.48831 0.3845 0.0
H151 H 0.605 0.46696 0.40872 0.0
C152 C 0.56803 0.4716 0.30444 0.0
N153 N 0.57907 0.49269 0.31333 0.0
N154 N 0.5981 0.48672 0.32833 0.0
C155 C 0.60003 0.46125 0.32889 0.0
C156 C 0.58086 0.45102 0.31404 0.0
C157 C 0.5454 0.47131 0.28723 0.0
H158 H 0.54953 0.48292 0.27024 0.0
H159 H 0.52901 0.47988 0.29714 0.0
H160 H 0.54034 0.45188 0.28112 0.0
O161 O 0.59988 0.54458 0.29382 0.0
O162 O 0.63112 0.53772 0.32138 0.0
H163 H 0.63789 0.45579 0.34269 0.0
H164 H 0.62053 0.42693 0.33719 0.0
C165 C 0.61901 0.44666 0.344 0.0
H166 H 0.61297 0.44604 0.36405 0.0
H167 H 0.67273 0.50175 0.34514 0.0
O168 O 0.54097 0.52901 0.28535 0.0
C169 C 0.62261 0.54813 0.30131 0.0
Co170 Co 0.79321 0.21329 0.49419 0.0
Co171 Co 0.82035 0.24441 0.53727 0.0
C172 C 0.81674 0.18744 0.53774 0.0
O173 O 0.80683 0.18609 0.51583 0.0
O174 O 0.82278 0.20861 0.54739 0.0
C175 C 0.78869 0.17802 0.45479 0.0
O176 O 0.81342 0.1771 0.45803 0.0
C177 C 0.86515 0.25415 0.56734 0.0
C178 C 0.85806 0.29104 0.58521 0.0
C179 C 0.8756 0.27162 0.5839 0.0
N180 N 0.84256 0.26261 0.55936 0.0
N181 N 0.83837 0.28478 0.57003 0.0
C182 C 0.877 0.23049 0.5578 0.0
H183 H 0.87077 0.22665 0.53808 0.0
H184 H 0.89797 0.23198 0.55859 0.0
H185 H 0.87075 0.21451 0.56985 0.0
C186 C 0.82489 0.24751 0.46198 0.0
N187 N 0.81748 0.23787 0.48448 0.0
N188 N 0.8289 0.25041 0.50282 0.0
C189 C 0.84408 0.26814 0.49263 0.0
C190 C 0.84177 0.26716 0.46651 0.0
C191 C 0.81507 0.23894 0.43684 0.0
H192 H 0.79445 0.23482 0.43812 0.0
H193 H 0.8249 0.22128 0.4314 0.0
H194 H 0.81862 0.25341 0.42203 0.0
O195 O 0.76656 0.22866 0.51507 0.0
O196 O 0.7846 0.25335 0.54421 0.0
H197 H 0.84879 0.29752 0.52008 0.0
H198 H 0.87267 0.29788 0.49562 0.0
C199 C 0.86074 0.28557 0.50772 0.0
H200 H 0.87356 0.27426 0.51983 0.0
H201 H 0.82205 0.29548 0.56714 0.0
O202 O 0.77641 0.19536 0.4659 0.0
C203 C 0.76497 0.24355 0.53395 0.0
Co204 Co 0.00265 0.5046 0.81197 0.0
Co205 Co 0.96294 0.52721 0.85036 0.0
C206 C 0.00727 0.49624 0.86791 0.0
O207 O 0.01507 0.49292 0.84538 0.0
O208 O 0.98748 0.50917 0.87243 0.0
C209 C 0.04993 0.48591 0.79097 0.0
O210 O 0.05255 0.47447 0.81287 0.0
C211 C 0.94604 0.55485 0.89466 0.0
C212 C 0.90499 0.55984 0.88781 0.0
C213 C 0.92403 0.56414 0.90544 0.0
N214 N 0.94028 0.54499 0.87197 0.0
N215 N 0.9157 0.54803 0.86791 0.0
C216 C 0.9725 0.55687 0.90487 0.0
H217 H 0.97599 0.54096 0.91802 0.0
H218 H 0.98653 0.556 0.88927 0.0
H219 H 0.97504 0.57479 0.91552 0.0
C220 C 0.00759 0.55802 0.79845 0.0
N221 N 0.9971 0.53965 0.81256 0.0
N222 N 0.98035 0.54956 0.82807 0.0
C223 C 0.97968 0.57476 0.8242 0.0
C224 C 0.99708 0.58084 0.80541 0.0
C225 C 0.02627 0.55351 0.77763 0.0
H226 H 0.01843 0.53916 0.76443 0.0
H227 H 0.04416 0.54612 0.78583 0.0
H228 H 0.03048 0.57091 0.76671 0.0
O229 O 0.97065 0.48739 0.80299 0.0
O230 O 0.94285 0.50198 0.83111 0.0
H231 H 0.94319 0.58626 0.83742 0.0
H232 H 0.96498 0.61219 0.83145 0.0
C233 C 0.96326 0.59259 0.83868 0.0
H234 H 0.96886 0.59224 0.85892 0.0
H235 H 0.9062 0.54185 0.85168 0.0
O236 O 0.02952 0.4978 0.78634 0.0
C237 C 0.94836 0.48801 0.81232 0.0
Co238 Co 0.78637 0.82538 0.03389 0.0
Co239 Co 0.77873 0.78348 0.0752 0.0
C240 C 0.76256 0.8383 0.08166 0.0
O241 O 0.76822 0.84545 0.05943 0.0
O242 O 0.76598 0.81563 0.08856 0.0
C243 C 0.81299 0.85809 -0.00047 0.0
O244 O 0.83315 0.84849 0.01046 0.0
C245 C 0.74253 0.76041 0.10735 0.0
C246 C 0.76635 0.7406 0.13533 0.0
C247 C 0.74178 0.74893 0.13091 0.0
N248 N 0.76637 0.75936 0.09859 0.0
N249 N 0.78044 0.74682 0.115 0.0
C250 C 0.72232 0.77638 0.09547 0.0
H251 H 0.72915 0.78515 0.07767 0.0
H252 H 0.70559 0.76445 0.09085 0.0
H253 H 0.71621 0.79128 0.10888 0.0
C254 C 0.75409 0.78751 0.00525 0.0
N255 N 0.7683 0.79503 0.0252 0.0
N256 N 0.76843 0.77677 0.042 0.0
C257 C 0.75612 0.75655 0.03285 0.0
C258 C 0.74559 0.76272 0.00948 0.0
C259 C 0.74624 0.8049 0.98436 0.0
H260 H 0.75654 0.79976 0.96682 0.0
H261 H 0.75078 0.82478 0.98923 0.0
H262 H 0.72556 0.80308 0.98066 0.0
O263 O 0.82028 0.81838 0.05033 0.0
O264 O 0.8148 0.78683 0.07767 0.0
H265 H 0.77368 0.72835 0.0561 0.0
H266 H 0.75164 0.71594 0.03278 0.0
C267 C 0.75534 0.73161 0.04626 0.0
H268 H 0.74024 0.73179 0.06082 0.0
H269 H 0.80011 0.74493 0.11364 0.0
O270 O 0.79123 0.84901 0.00486 0.0
C271 C 0.82879 0.80343 0.0673 0.0
Co272 Co 0.74879 0.0725 0.99573 0.0
Co273 Co 0.70041 0.0971 0.02031 0.0
C274 C 0.70008 0.04415 0.00017 0.0
O275 O 0.72322 0.04527 0.99388 0.0
O276 O 0.68934 0.06288 0.01041 0.0
C277 C 0.78237 0.03355 -0.00355 0.0
O278 O 0.76795 0.02922 0.01623 0.0
C279 C 0.66441 0.0913 0.05996 0.0
C280 C 0.64502 0.12793 0.06379 0.0
C281 C 0.64623 0.10377 0.07391 0.0
N282 N 0.67354 0.10707 0.04227 0.0
N283 N 0.66176 0.12897 0.04443 0.0
C284 C 0.67518 0.06566 0.06533 0.0
H285 H 0.6637 0.05116 0.05532 0.0
H286 H 0.69507 0.06441 0.05866 0.0
H287 H 0.67465 0.06145 0.0859 0.0
C288 C 0.7703 0.0852 0.04678 0.0
N289 N 0.75188 0.086 0.029 0.0
N290 N 0.73187 0.09723 0.03868 0.0
C291 C 0.73727 0.10417 0.06269 0.0
C292 C 0.76142 0.09595 0.06902 0.0
C293 C 0.79596 0.07375 0.04323 0.0
H294 H 0.80209 0.07561 0.02326 0.0
H295 H 0.79533 0.05349 0.04849 0.0
H296 H 0.81004 0.08317 0.05578 0.0
O297 O 0.73772 0.09899 0.97161 0.0
O298 O 0.70273 0.11628 0.988 0.0
H299 H 0.70643 0.12959 0.06977 0.0
H300 H 0.72909 0.12772 0.09497 0.0
C301 C 0.71895 0.11659 0.08033 0.0
H302 H 0.70746 0.102 0.09011 0.0
H303 H 0.66554 0.14473 0.03317 0.0
O304 O 0.77926 0.05383 0.98393 0.0
C305 C 0.71913 0.11438 0.97031 0.0
Co306 Co 0.29969 0.49438 0.28601 0.0
Co307 Co 0.24745 0.46728 0.29601 0.0
C308 C 0.29829 0.44434 0.30964 0.0
O309 O 0.31083 0.46401 0.30374 0.0
O310 O 0.27425 0.44354 0.3073 0.0
C311 C 0.34665 0.50485 0.26476 0.0
O312 O 0.34105 0.48303 0.25424 0.0
C313 C 0.21265 0.43818 0.32636 0.0
C314 C 0.18273 0.4286 0.29864 0.0
C315 C 0.19181 0.42255 0.32251 0.0
N316 N 0.21592 0.45253 0.30568 0.0
N317 N 0.19749 0.44732 0.28947 0.0
C318 C 0.23197 0.436 0.34705 0.0
H319 H 0.24516 0.4524 0.34675 0.0
H320 H 0.22246 0.4351 0.36573 0.0
H321 H 0.2429 0.4183 0.34452 0.0
C322 C 0.27564 0.53342 0.31738 0.0
N323 N 0.27453 0.51155 0.30455 0.0
N324 N 0.25239 0.50067 0.30847 0.0
C325 C 0.23836 0.51568 0.32349 0.0
C326 C 0.25258 0.53709 0.32967 0.0
C327 C 0.2998 0.54804 0.32116 0.0
H328 H 0.30093 0.5633 0.3068 0.0
H329 H 0.31643 0.53555 0.31896 0.0
H330 H 0.30077 0.55664 0.34027 0.0
O331 O 0.28715 0.48311 0.25275 0.0
O332 O 0.24922 0.46588 0.25907 0.0
H333 H 0.20104 0.5008 0.31692 0.0
H334 H 0.2025 0.52565 0.34047 0.0
C335 C 0.21237 0.5089 0.33269 0.0
H336 H 0.21396 0.49428 0.34765 0.0
H337 H 0.19651 0.45461 0.27114 0.0
O338 O 0.33065 0.51483 0.27966 0.0
C339 C 0.26742 0.47189 0.24449 0.0
Co340 Co 0.80042 4e-05 0.52209 0.0
Co341 Co 0.84746 -0.00395 0.55882 0.0
C342 C 0.82571 0.046 0.54328 0.0
O343 O 0.80865 0.03609 0.52939 0.0
O344 O 0.84123 0.03248 0.55563 0.0
C345 C 0.75368 0.01811 0.50549 0.0
O346 O 0.75184 0.025 0.52931 0.0
C347 C 0.87586 0.00883 0.60443 0.0
C348 C 0.90382 0.97814 0.60789 0.0
C349 C 0.89587 0.00042 0.61902 0.0
N350 N 0.87211 0.99255 0.58527 0.0
N351 N 0.88891 0.97416 0.58744 0.0
C352 C 0.8596 0.03128 0.60969 0.0
H353 H 0.83989 0.02788 0.60304 0.0
H354 H 0.85932 0.03567 0.63023 0.0
H355 H 0.86769 0.04778 0.59959 0.0
C356 C 0.77756 0.96669 0.56158 0.0
N357 N 0.79702 0.9799 0.55153 0.0
N358 N 0.81689 0.97808 0.56658 0.0
C359 C 0.81059 0.96399 0.58686 0.0
C360 C 0.78548 0.95603 0.5843 0.0
C361 C 0.75173 0.96477 0.54994 0.0
H362 H 0.75327 0.96404 0.52903 0.0
H363 H 0.74061 0.98172 0.55512 0.0
H364 H 0.74152 0.94776 0.55693 0.0
O365 O 0.82826 0.98736 0.50133 0.0
O366 O 0.86263 0.98563 0.52589 0.0
H367 H 0.84469 0.95083 0.60439 0.0
H368 H 0.81799 0.95161 0.62565 0.0
C369 C 0.82735 0.96135 0.60968 0.0
H370 H 0.8331 0.98036 0.61632 0.0
H371 H 0.89025 0.95899 0.57493 0.0
O372 O 0.77027 0.00174 0.49981 0.0
C373 C 0.85177 0.98298 0.50447 0.0
Co374 Co 0.2541 0.5815 0.73645 0.0
Co375 Co 0.29774 0.61785 0.75519 0.0
C376 C 0.25764 0.63436 0.71775 0.0
O377 O 0.24674 0.61283 0.71762 0.0
O378 O 0.27712 0.63866 0.73149 0.0
C379 C 0.20548 0.5604 0.72044 0.0
O380 O 0.20266 0.58163 0.70791 0.0
C381 C 0.31636 0.66012 0.7848 0.0
C382 C 0.35663 0.65034 0.79108 0.0
C383 C 0.33813 0.66768 0.79758 0.0
N384 N 0.32171 0.63923 0.77154 0.0
N385 N 0.34595 0.63375 0.77488 0.0
C386 C 0.29006 0.67031 0.78775 0.0
H387 H 0.27575 0.65648 0.78085 0.0
H388 H 0.28625 0.67498 0.80786 0.0
H389 H 0.28828 0.68789 0.77646 0.0
C390 C 0.24384 0.58023 0.79114 0.0
N391 N 0.25724 0.58871 0.77123 0.0
N392 N 0.27687 0.6018 0.77941 0.0
C393 C 0.27741 0.60088 0.80488 0.0
C394 C 0.25631 0.58743 0.81315 0.0
C395 C 0.21897 0.56659 0.78892 0.0
H396 H 0.2225 0.54648 0.78431 0.0
H397 H 0.20754 0.57501 0.77346 0.0
H398 H 0.20792 0.56771 0.80673 0.0
O399 O 0.28595 0.56612 0.72381 0.0
O400 O 0.3164 0.59242 0.73655 0.0
H401 H 0.31728 0.60809 0.81008 0.0
H402 H 0.30095 0.59846 0.83836 0.0
C403 C 0.29931 0.60976 0.82075 0.0
H404 H 0.29642 0.62979 0.82606 0.0
H405 H 0.35479 0.6179 0.76728 0.0
O406 O 0.22607 0.55649 0.73238 0.0
C407 C 0.30931 0.57244 0.72524 0.0
Co408 Co 0.22106 0.54051 0.06626 0.0
Co409 Co 0.18354 0.49751 0.04817 0.0
C410 C 0.16888 0.53755 0.08654 0.0
O411 O 0.19046 0.54848 0.08601 0.0
O412 O 0.16416 0.51821 0.07291 0.0
C413 C 0.24652 0.58616 0.08493 0.0
O414 O 0.22716 0.58849 0.10038 0.0
C415 C 0.13846 0.48271 0.02047 0.0
C416 C 0.14457 0.44218 0.0128 0.0
C417 C 0.12811 0.462 0.00804 0.0
N418 N 0.15995 0.47549 0.03199 0.0
N419 N 0.16333 0.45114 0.02775 0.0
C420 C 0.12997 0.50962 0.01896 0.0
H421 H 0.14557 0.52265 0.02448 0.0
H422 H 0.12343 0.5142 -0.00049 0.0
H423 H 0.11387 0.51245 0.03214 0.0
C424 C 0.22114 0.55128 0.012 0.0
N425 N 0.2128 0.53784 0.03187 0.0
N426 N 0.19937 0.51847 0.02377 0.0
C427 C 0.19974 0.51827 -0.00173 0.0
C428 C 0.21348 0.53916 0.98999 0.0
C429 C 0.23521 0.57583 0.01431 0.0
H430 H 0.25558 0.57198 0.01796 0.0
H431 H 0.2276 0.58683 0.03044 0.0
H432 H 0.23342 0.58731 -0.00316 0.0
O433 O 0.23563 0.50828 0.07792 0.0
O434 O 0.20913 0.47758 0.06616 0.0
H435 H 0.19106 0.47897 0.99274 0.0
H436 H 0.20027 0.49548 0.96435 0.0
C437 C 0.18962 0.49709 0.98236 0.0
H438 H 0.16938 0.50068 0.97785 0.0
H439 H 0.17901 0.44093 0.03407 0.0
O440 O 0.24749 0.56724 0.07017 0.0
C441 C 0.22951 0.48498 0.07684 0.0
Co442 Co 0.76422 0.0161 0.3214 0.0
Co443 Co 0.79868 0.97694 0.29292 0.0
C444 C 0.75218 0.96154 0.32272 0.0
O445 O 0.74556 0.98394 0.3281 0.0
O446 O 0.77205 0.9574 0.30993 0.0
C447 C 0.72428 0.03947 0.34962 0.0
O448 O 0.72646 0.01915 0.36372 0.0
C449 C 0.79685 0.94069 0.25352 0.0
C450 C 0.83657 0.93451 0.24201 0.0
C451 C 0.81164 0.92831 0.23599 0.0
N452 N 0.81211 0.95361 0.26925 0.0
N453 N 0.83594 0.94953 0.26267 0.0
C454 C 0.76851 0.9433 0.25305 0.0
H455 H 0.76257 0.96114 0.2622 0.0
H456 H 0.76117 0.94297 0.23335 0.0
H457 H 0.75989 0.92727 0.26354 0.0
C458 C 0.76277 0.03809 0.26923 0.0
N459 N 0.77046 0.02067 0.28626 0.0
N460 N 0.78615 0.00502 0.27509 0.0
C461 C 0.78956 0.01234 0.25096 0.0
C462 C 0.77457 0.03319 0.24626 0.0
C463 C 0.74369 0.05818 0.27465 0.0
H464 H 0.72649 0.04942 0.28305 0.0
H465 H 0.73835 0.06867 0.25727 0.0
H466 H 0.75173 0.07155 0.28874 0.0
O467 O 0.79763 0.01478 0.34061 0.0
O468 O 0.82227 0.98793 0.31918 0.0
H469 H 0.81391 0.01444 0.21814 0.0
H470 H 0.79935 0.9842 0.22367 0.0
C471 C 0.80818 0.00079 0.23304 0.0
H472 H 0.82538 0.99475 0.24344 0.0
H473 H 0.85161 0.95803 0.27136 0.0
O474 O 0.7406 0.0434 0.3323 0.0
C475 C 0.81866 0.00294 0.3377 0.0
Co476 Co 0.34733 0.51688 0.51933 0.0
Co477 Co 0.38747 0.56061 0.51615 0.0
C478 C 0.39835 0.50519 0.50389 0.0
O479 O 0.37532 0.49811 0.50481 0.0
O480 O 0.40458 0.52805 0.50822 0.0
C481 C 0.31972 0.47549 0.53842 0.0
O482 O 0.34009 0.47388 0.55272 0.0
C483 C 0.42335 0.58645 0.48465 0.0
C484 C 0.44472 0.61027 0.51163 0.0
C485 C 0.44468 0.6017 0.48683 0.0
N486 N 0.41135 0.58601 0.50699 0.0
N487 N 0.42385 0.60074 0.52296 0.0
C488 C 0.41707 0.56892 0.46327 0.0
H489 H 0.43317 0.55588 0.46001 0.0
H490 H 0.39962 0.55787 0.46739 0.0
H491 H 0.41407 0.57994 0.44568 0.0
C492 C 0.31881 0.55138 0.48658 0.0
N493 N 0.33946 0.54579 0.50035 0.0
N494 N 0.35571 0.56468 0.49933 0.0
C495 C 0.34555 0.58332 0.48519 0.0
C496 C 0.32167 0.5756 0.47677 0.0
C497 C 0.29831 0.53255 0.48064 0.0
H498 H 0.28321 0.53388 0.49518 0.0
H499 H 0.30608 0.51315 0.4809 0.0
H500 H 0.28983 0.53601 0.46173 0.0
O501 O 0.35797 0.5259 0.55376 0.0
O502 O 0.38309 0.55978 0.55308 0.0
H503 H 0.36931 0.61421 0.49689 0.0
H504 H 0.34445 0.62268 0.47466 0.0
C505 C 0.35845 0.60799 0.47998 0.0
H506 H 0.37199 0.60554 0.46413 0.0
H507 H 0.41938 0.60257 0.5421 0.0
O508 O 0.31817 0.49337 0.52242 0.0
C509 C 0.37146 0.54239 0.56508 0.0
Co510 Co 0.77544 0.02908 0.80011 0.0
Co511 Co 0.75726 0.06167 0.7537 0.0
C512 C 0.80937 0.06694 0.77491 0.0
O513 O 0.80503 0.05055 0.79182 0.0
O514 O 0.79255 0.07249 0.75873 0.0
C515 C 0.81098 -0.00438 0.81719 0.0
O516 O 0.81421 -0.00501 0.79255 0.0
C517 C 0.76563 0.07655 0.70215 0.0
C518 C 0.7321 0.09901 0.6916 0.0
C519 C 0.75545 0.09083 0.68274 0.0
N520 N 0.74933 0.07642 0.72167 0.0
N521 N 0.72919 0.08976 0.71525 0.0
C522 C 0.79001 0.06209 0.70179 0.0
H523 H 0.78909 0.0459 0.71511 0.0
H524 H 0.79411 0.05518 0.6824 0.0
H525 H 0.8058 0.0746 0.7078 0.0
C526 C 0.75717 0.98729 0.76594 0.0
N527 N 0.7616 0.01181 0.77154 0.0
N528 N 0.75329 0.02584 0.75269 0.0
C529 C 0.74314 0.01079 0.73477 0.0
C530 C 0.74543 0.98576 0.74242 0.0
C531 C 0.76339 0.96555 0.7829 0.0
H532 H 0.78269 0.95861 0.77843 0.0
H533 H 0.74981 0.94975 0.77976 0.0
H534 H 0.76285 0.9715 0.80301 0.0
O535 O 0.74922 0.05171 0.81453 0.0
O536 O 0.73749 0.07643 0.78218 0.0
H537 H 0.72111 0.00641 0.69997 0.0
H538 H 0.74919 0.0253 0.69747 0.0
C539 C 0.73308 0.02036 0.70999 0.0
H540 H 0.72149 0.03744 0.71323 0.0
H541 H 0.71375 0.09305 0.72718 0.0
O542 O 0.79166 0.00702 0.82588 0.0
C543 C 0.73623 0.06995 0.80544 0.0
Co544 Co 0.99503 0.72172 0.02994 0.0
Co545 Co 0.00036 0.6925 0.08123 0.0
C546 C 0.96296 0.67657 0.04176 0.0
O547 O 0.96886 0.69552 0.0283 0.0
O548 O 0.97418 0.67219 0.06265 0.0
C549 C 0.99184 0.72381 0.97694 0.0
O550 O 0.98811 0.6995 0.98038 0.0
C551 C 0.01829 0.64965 0.1093 0.0
C552 C 0.02447 0.66462 0.14782 0.0
C553 C 0.02806 0.6434 0.13287 0.0
N554 N 0.00951 0.67334 0.11025 0.0
N555 N 0.01255 0.68203 0.13351 0.0
C556 C 0.02122 0.63513 0.08514 0.0
H557 H 0.01677 0.64708 0.0685 0.0
H558 H 0.04088 0.62789 0.08338 0.0
H559 H 0.00809 0.61869 0.0853 0.0
C560 C 0.04961 0.71376 0.02862 0.0
N561 N 0.02677 0.70832 0.03847 0.0
N562 N 0.02973 0.69768 0.0608 0.0
C563 C 0.05479 0.6965 0.06603 0.0
C564 C 0.06811 0.70651 0.04574 0.0
C565 C 0.05346 0.72944 0.00535 0.0
H566 H 0.04473 0.74826 0.00813 0.0
H567 H 0.0439 0.72017 0.98909 0.0
H568 H 0.07389 0.73185 0.00082 0.0
O569 O 0.98639 0.74687 0.0553 0.0
O570 O 0.98714 0.72601 0.09187 0.0
H571 H 0.05391 0.69956 0.1065 0.0
H572 H 0.0855 0.69722 0.09345 0.0
C573 C 0.06557 0.69059 0.0916 0.0
H574 H 0.06528 0.66987 0.09453 0.0
H575 H 0.00818 0.7004 0.1391 0.0
O576 O 0.99579 0.73783 -0.00391 0.0
C577 C 0.98373 0.74627 0.07923 0.0
Co578 Co 0.52182 0.7835 0.01032 0.0
Co579 Co 0.55637 0.82858 0.99234 0.0
C580 C 0.54935 0.82014 0.04598 0.0
O581 O 0.53378 0.80266 0.04033 0.0
O582 O 0.56171 0.83164 0.02889 0.0
C583 C 0.52139 0.74393 0.04392 0.0
O584 O 0.54593 0.74713 0.04083 0.0
C585 C 0.58976 0.87236 0.98529 0.0
C586 C 0.59323 0.87481 0.9437 0.0
C587 C 0.60039 0.88655 0.96602 0.0
N588 N 0.57663 0.85314 0.97496 0.0
N589 N 0.5788 0.85468 0.95006 0.0
C590 C 0.59309 0.87618 0.01318 0.0
H591 H 0.60065 0.85861 0.02169 0.0
H592 H 0.60651 0.89176 0.01759 0.0
H593 H 0.57438 0.88022 0.02185 0.0
C594 C 0.55832 0.75472 0.97829 0.0
N595 N 0.54868 0.77632 0.98761 0.0
N596 N 0.56369 0.79523 0.98132 0.0
C597 C 0.58404 0.78616 0.9691 0.0
C598 C 0.58123 0.76011 0.96624 0.0
C599 C 0.54623 0.72931 0.98163 0.0
H600 H 0.52528 0.73123 0.98259 0.0
H601 H 0.55282 0.72071 -0.00042 0.0
H602 H 0.55153 0.71657 0.96583 0.0
O603 O 0.49622 0.80464 0.99385 0.0
O604 O 0.52057 0.83824 0.98596 0.0
H605 H 0.60866 0.80803 0.94538 0.0
H606 H 0.62504 0.78986 0.9691 0.0
C607 C 0.60789 0.8013 0.96525 0.0
H608 H 0.60845 0.81772 0.97819 0.0
H609 H 0.5702 0.84214 0.9374 0.0
O610 O 0.50645 0.75415 0.02801 0.0
C611 C 0.499 0.82735 0.98636 0.0
Co612 Co 0.48428 0.21074 0.26861 0.0
Co613 Co 0.44601 0.24716 0.24137 0.0
C614 C 0.43101 0.21161 0.28417 0.0
O615 O 0.45323 0.20353 0.28871 0.0
O616 O 0.42707 0.22748 0.26663 0.0
C617 C 0.5102 0.17777 0.30317 0.0
O618 O 0.48769 0.1673 0.30573 0.0
C619 C 0.41494 0.28939 0.25221 0.0
C620 C 0.39465 0.29784 0.21663 0.0
C621 C 0.39686 0.30499 0.2418 0.0
N622 N 0.42349 0.27389 0.2341 0.0
N623 N 0.41139 0.27898 0.21277 0.0
C624 C 0.42204 0.28744 0.27966 0.0
H625 H 0.40467 0.28466 0.2912 0.0
H626 H 0.43537 0.27171 0.28308 0.0
H627 H 0.43123 0.3052 0.28605 0.0
C628 C 0.51012 0.25956 0.27827 0.0
N629 N 0.49141 0.24562 0.26777 0.0
N630 N 0.47661 0.26043 0.2544 0.0
C631 C 0.48589 0.28413 0.25525 0.0
C632 C 0.50715 0.28441 0.27068 0.0
C633 C 0.52918 0.24956 0.2967 0.0
H634 H 0.54332 0.23813 0.28629 0.0
H635 H 0.51956 0.23715 0.31065 0.0
H636 H 0.53921 0.265 0.30687 0.0
O637 O 0.47837 0.19802 0.23335 0.0
O638 O 0.45196 0.22422 0.21315 0.0
H639 H 0.46529 0.29948 0.22357 0.0
H640 H 0.49088 0.31923 0.2353 0.0
C641 C 0.47537 0.30607 0.2408 0.0
H642 H 0.462 0.31668 0.25291 0.0
H643 H 0.41396 0.26912 0.19587 0.0
O644 O 0.51341 0.19432 0.286 0.0
C645 C 0.46571 0.20449 0.21367 0.0
Co646 Co 0.02701 0.29211 0.55187 0.0
Co647 Co 0.98344 0.25252 0.54221 0.0
C648 C 0.00364 0.25784 0.59288 0.0
O649 O 0.01951 0.27386 0.58421 0.0
O650 O 0.98633 0.24857 0.57886 0.0
C651 C 0.03846 0.33807 0.57591 0.0
O652 O 0.01359 0.33977 0.57545 0.0
C653 C 0.94544 0.21155 0.54017 0.0
C654 C 0.92917 0.21622 0.50191 0.0
C655 C 0.92704 0.20184 0.52375 0.0
N656 N 0.95691 0.2313 0.52888 0.0
N657 N 0.94757 0.2335 0.50577 0.0
C658 C 0.95452 0.20052 0.56464 0.0
H659 H 0.97508 0.20429 0.56714 0.0
H660 H 0.94409 0.20935 0.58054 0.0
H661 H 0.95157 0.17977 0.56508 0.0
C662 C 0.99208 0.32343 0.52068 0.0
N663 N -0.00243 0.30271 0.53447 0.0
N664 N 0.97795 0.28727 0.53407 0.0
C665 C 0.95853 0.29897 0.52247 0.0
C666 C 0.96698 0.3219 0.51282 0.0
C667 C 0.01113 0.343 0.5131 0.0
H668 H 0.03071 0.33635 0.51694 0.0
H669 H 0.00765 0.36052 0.52407 0.0
H670 H 0.009 0.34766 0.49273 0.0
O671 O 0.04579 0.26839 0.53112 0.0
O672 O 0.01564 0.23896 0.52734 0.0
H673 H 0.9287 0.2826 0.5 0.0
H674 H 0.91817 0.30333 0.52434 0.0
C675 C 0.9322 0.28843 0.51987 0.0
H676 H 0.92914 0.27236 0.53298 0.0
H677 H 0.95397 0.24664 0.49247 0.0
O678 O 0.04889 0.32043 0.56343 0.0
C679 C 0.03822 0.24682 0.52361 0.0
Co680 Co 0.05515 0.81139 0.76549 0.0
Co681 Co 0.09693 0.80474 0.72371 0.0
C682 C 0.11156 0.81536 0.77651 0.0
O683 O 0.08827 0.81627 0.78243 0.0
O684 O 0.1183 0.81031 0.75405 0.0
C685 C 0.03957 0.78821 0.80791 0.0
O686 O 0.05921 0.77519 0.80004 0.0
C687 C 0.14037 0.78141 0.70059 0.0
C688 C 0.13567 0.78851 0.65967 0.0
C689 C 0.15121 0.77674 0.67725 0.0
N690 N 0.11964 0.79564 0.69719 0.0
N691 N 0.11701 0.80011 0.6727 0.0
C692 C 0.14768 0.76977 0.72542 0.0
H693 H 0.16194 0.78204 0.73487 0.0
H694 H 0.1309 0.76786 0.7379 0.0
H695 H 0.15613 0.75082 0.72265 0.0
C696 C 0.03746 0.76312 0.74418 0.0
N697 N 0.05371 0.78278 0.74437 0.0
N698 N 0.07243 0.77833 0.72861 0.0
C699 C 0.06938 0.75476 0.7192 0.0
C700 C 0.04719 0.7443 0.72893 0.0
C701 C 0.01364 0.7616 0.75957 0.0
H702 H 0.00714 0.78068 0.76502 0.0
H703 H 0.01707 0.74994 0.77667 0.0
H704 H -0.00175 0.75241 0.74855 0.0
O705 O 0.04908 0.84114 0.74513 0.0
O706 O 0.08011 0.83803 0.71648 0.0
H707 H 0.09243 0.75421 0.68586 0.0
H708 H 0.07974 0.72375 0.6948 0.0
C709 C 0.08775 0.74178 0.70207 0.0
H710 H 0.10545 0.73769 0.71262 0.0
H711 H 0.10202 0.81028 0.66481 0.0
O712 O 0.0322 0.80704 0.79491 0.0
C713 C 0.0614 0.84984 0.72626 0.0
Co714 Co 0.57039 0.27596 0.49651 0.0
Co715 Co 0.55778 0.31654 0.53787 0.0
C716 C 0.58954 0.32777 0.49109 0.0
O717 O 0.58686 0.3061 0.481 0.0
O718 O 0.57961 0.33276 0.51237 0.0
C719 C 0.58749 0.24601 0.45408 0.0
O720 O 0.60554 0.26312 0.4523 0.0
C721 C 0.53431 0.36408 0.54447 0.0
C722 C 0.52693 0.36753 0.5854 0.0
C723 C 0.52337 0.37953 0.56233 0.0
N724 N 0.54426 0.34403 0.55624 0.0
N725 N 0.54027 0.34629 0.58083 0.0
C726 C 0.53199 0.36639 0.51626 0.0
H727 H 0.54742 0.37884 0.50916 0.0
H728 H 0.53364 0.34768 0.50704 0.0
H729 H 0.51355 0.3749 0.51085 0.0
C730 C 0.51429 0.27238 0.49526 0.0
N731 N 0.53608 0.28221 0.50441 0.0
N732 N 0.53081 0.29811 0.52274 0.0
C733 C 0.50547 0.2986 0.52614 0.0
C734 C 0.49415 0.28244 0.50875 0.0
C735 C 0.5129 0.25468 0.47321 0.0
H736 H 0.51876 0.23557 0.47947 0.0
H737 H 0.52621 0.26102 0.45824 0.0
H738 H 0.49344 0.25362 0.46521 0.0
O739 O 0.58942 0.26722 0.52788 0.0
O740 O 0.57996 0.29493 0.55822 0.0
H741 H 0.50419 0.31326 0.56397 0.0
H742 H 0.47358 0.30477 0.55104 0.0
C743 C 0.4924 0.31313 0.54659 0.0
H744 H 0.48956 0.33288 0.54022 0.0
H745 H 0.54548 0.3328 0.59425 0.0
O746 O 0.57158 0.24747 0.47207 0.0
C747 C 0.59184 0.27552 0.55048 0.0
Co748 Co 0.00745 0.31377 0.76617 0.0
Co749 Co 0.96722 0.273 0.78269 0.0
C750 C 0.98665 0.27587 0.72946 0.0
O751 O 0.00186 0.29375 0.73494 0.0
O752 O 0.97233 0.26614 0.74621 0.0
C753 C 0.05412 0.32816 0.74573 0.0
O754 O 0.05792 0.30374 0.74791 0.0
C755 C 0.94303 0.22339 0.78684 0.0
C756 C 0.91878 0.22764 0.82059 0.0
C757 C 0.92545 0.21078 0.80171 0.0
N758 N 0.94643 0.24673 0.79627 0.0
N759 N 0.93199 0.24912 0.81655 0.0
C760 C 0.95778 0.21288 0.76512 0.0
H761 H 0.97702 0.22146 0.76449 0.0
H762 H 0.95951 0.19206 0.76667 0.0
H763 H 0.94771 0.21743 0.74727 0.0
C764 C 0.03393 0.29339 0.81195 0.0
N765 N 0.01458 0.29388 0.7952 0.0
N766 N -0.0017 0.27587 0.80093 0.0
C767 C 0.00724 0.26266 0.82075 0.0
C768 C 0.02992 0.27367 0.82896 0.0
C769 C 0.0558 0.31151 0.81165 0.0
H770 H 0.04931 0.3304 0.80536 0.0
H771 H 0.07027 0.30475 0.79807 0.0
H772 H 0.06467 0.31294 0.83068 0.0
O773 O 0.97601 0.33276 0.77118 0.0
O774 O 0.94756 0.30482 0.78522 0.0
H775 H 0.98081 0.24116 0.84282 0.0
H776 H 0.01051 0.22515 0.83735 0.0
C777 C 0.99615 0.23781 0.8289 0.0
H778 H 0.98816 0.22778 0.81235 0.0
H779 H 0.93095 0.2655 0.82746 0.0
O780 O 0.03481 0.33758 0.75651 0.0
C781 C 0.95374 0.32716 0.7787 0.0
Co782 Co 0.55958 0.7605 0.26763 0.0
Co783 Co 0.59807 0.76969 0.31207 0.0
C784 C 0.60758 0.7845 0.25681 0.0
O785 O 0.58512 0.77994 0.24942 0.0
O786 O 0.61409 0.78073 0.2797 0.0
C787 C 0.52753 0.76835 0.22476 0.0
O788 O 0.53582 0.79165 0.22732 0.0
C789 C 0.6256 0.80874 0.33825 0.0
C790 C 0.64742 0.78839 0.36745 0.0
C791 C 0.64385 0.81215 0.35692 0.0
N792 N 0.61865 0.78433 0.33789 0.0
N793 N 0.63144 0.77224 0.35565 0.0
C794 C 0.61671 0.82767 0.31914 0.0
H795 H 0.6332 0.83551 0.30867 0.0
H796 H 0.60297 0.81907 0.30574 0.0
H797 H 0.60703 0.84345 0.32883 0.0
C798 C 0.52801 0.79331 0.30192 0.0
N799 N 0.54812 0.77847 0.29672 0.0
N800 N 0.56378 0.77922 0.3161 0.0
C801 C 0.55336 0.79276 0.33481 0.0
C802 C 0.53097 0.80348 0.32619 0.0
C803 C 0.50885 0.8009 0.28247 0.0
H804 H 0.50442 0.78466 0.26998 0.0
H805 H 0.51687 0.81638 0.27075 0.0
H806 H 0.49109 0.8076 0.29132 0.0
O807 O 0.57725 0.72809 0.27681 0.0
O808 O 0.60111 0.7335 0.31125 0.0
H809 H 0.57522 0.77875 0.36614 0.0
H810 H 0.5502 0.80057 0.37469 0.0
C811 C 0.56504 0.79617 0.36049 0.0
H812 H 0.57883 0.81198 0.36028 0.0
H813 H 0.63024 0.75282 0.35881 0.0
O814 O 0.53328 0.75211 0.24157 0.0
C815 C 0.59259 0.71959 0.29353 0.0
H816 H 0.08731 0.00772 0.74628 0.0
H817 H 0.01691 0.87541 0.72778 0.0
H818 H 0.01748 0.98483 0.78255 0.0
H819 H 0.09677 0.88506 0.71252 0.0
H820 H 0.01352 0.92065 0.73551 0.0
H821 H 0.08878 0.96656 0.72494 0.0
C822 C 0.07248 0.99398 0.74999 0.0
C823 C 0.0524 -0.00039 0.76648 0.0
C824 C 0.03169 0.91297 0.72991 0.0
C825 C 0.0535 0.95321 0.74147 0.0
C826 C 0.03354 0.88724 0.72516 0.0
C827 C 0.05724 0.87653 0.72008 0.0
C828 C 0.05375 0.92793 0.72979 0.0
C829 C 0.07818 0.89264 0.71664 0.0
C830 C 0.07322 0.97068 0.73762 0.0
C831 C 0.03355 0.98124 0.77037 0.0
N832 N 0.07612 0.9176 0.72224 0.0
N833 N 0.03451 0.95896 0.75786 0.0
H834 H 0.4869 0.87023 0.01117 0.0
H835 H 0.36161 0.84586 0.03688 0.0
H836 H 0.45924 0.81812 0.95471 0.0
H837 H 0.3474 0.86599 0.95903 0.0
H838 H 0.40594 0.85872 0.03161 0.0
H839 H 0.44415 0.88854 0.01414 0.0
C840 C 0.47206 0.86343 -0.00136 0.0
C841 C 0.47622 0.8426 0.9828 0.0
C842 C 0.39279 0.8615 0.01607 0.0
C843 C 0.42817 0.86357 0.98575 0.0
C844 C 0.36755 0.85411 0.01907 0.0
C845 C 0.35109 0.85438 -0.00178 0.0
C846 C 0.40153 0.86815 0.99188 0.0
C847 C 0.35964 0.86521 0.9755 0.0
C848 C 0.44784 0.87383 0.0004 0.0
C849 C 0.45653 0.83408 0.96721 0.0
N850 N 0.38467 0.87052 0.97253 0.0
N851 N 0.43317 0.84453 0.9692 0.0
H852 H 0.50051 0.17655 0.18796 0.0
H853 H 0.47838 0.05216 0.18045 0.0
H854 H 0.42019 0.18636 0.1991 0.0
H855 H 0.44958 0.08214 0.25059 0.0
H856 H 0.46579 0.09115 0.15893 0.0
H857 H 0.4928 0.13236 0.17713 0.0
C858 C 0.48112 0.16974 0.18665 0.0
C859 C 0.461 0.18476 0.19485 0.0
C860 C 0.4611 0.08853 0.17871 0.0
C861 C 0.45226 0.13434 0.18407 0.0
C862 C 0.46823 0.0664 0.19106 0.0
C863 C 0.46543 0.06434 0.21743 0.0
C864 C 0.45064 0.1082 0.19287 0.0
C865 C 0.4524 0.0833 0.23033 0.0
C866 C 0.47667 0.14452 0.18051 0.0
C867 C 0.43621 0.17511 0.19311 0.0
N868 N 0.44578 0.10471 0.21793 0.0
N869 N 0.4326 0.15001 0.18931 0.0
H870 H 0.05738 0.24245 0.476 0.0
H871 H 0.17315 0.19332 0.45245 0.0
H872 H 0.06353 0.21293 0.5517 0.0
H873 H 0.18299 0.21632 0.53023 0.0
H874 H 0.12771 0.1877 0.46015 0.0
H875 H 0.09706 0.22119 0.46496 0.0
C876 C 0.06666 0.23062 0.48993 0.0
C877 C 0.05743 0.22918 0.51465 0.0
C878 C 0.13998 0.1933 0.47566 0.0
C879 C 0.10275 0.20538 0.50258 0.0
C880 C 0.16596 0.19623 0.47141 0.0
C881 C 0.18167 0.20607 0.49059 0.0
C882 C 0.12993 0.20004 0.49925 0.0
C883 C 0.17137 0.20932 0.51479 0.0
C884 C 0.08919 0.21837 0.48367 0.0
C885 C 0.07021 0.21421 0.53236 0.0
N886 N 0.14598 0.20678 0.51834 0.0
N887 N 0.09269 0.20343 0.5262 0.0
H888 H 0.65791 0.57845 0.32431 0.0
H889 H 0.58578 0.68687 0.25392 0.0
H890 H 0.61703 0.5686 0.25417 0.0
H891 H 0.62592 0.69533 0.32485 0.0
H892 H 0.60652 0.64628 0.24768 0.0
H893 H 0.65939 0.62375 0.31666 0.0
C894 C 0.65029 0.58564 0.30668 0.0
C895 C 0.63604 0.57003 0.29052 0.0
C896 C 0.61096 0.65713 0.2645 0.0
C897 C 0.63687 0.62167 0.28215 0.0
C898 C 0.59881 0.68013 0.26827 0.0
C899 C 0.60361 0.69425 0.29025 0.0
C900 C 0.62786 0.64804 0.28295 0.0
C901 C 0.62121 0.68487 0.30786 0.0
C902 C 0.65077 0.61163 0.3025 0.0
C903 C 0.6272 0.58027 0.26767 0.0
N904 N 0.63247 0.66224 0.30394 0.0
N905 N 0.62683 0.60567 0.26459 0.0
H906 H 0.60855 0.22713 0.55403 0.0
H907 H 0.74771 0.28215 0.5645 0.0
H908 H 0.6251 0.30302 0.57879 0.0
H909 H 0.72569 0.21069 0.53159 0.0
H910 H 0.70474 0.28603 0.5823 0.0
H911 H 0.65274 0.21588 0.56142 0.0
C912 C 0.62134 0.24115 0.56198 0.0
C913 C 0.61349 0.26614 0.56517 0.0
C914 C 0.70955 0.26937 0.57147 0.0
C915 C 0.66419 0.25394 0.57225 0.0
C916 C 0.73391 0.26728 0.56116 0.0
C917 C 0.73991 0.24651 0.54585 0.0
C918 C 0.69142 0.25036 0.56664 0.0
C919 C 0.72162 0.22747 0.54254 0.0
C920 C 0.64664 0.23485 0.56593 0.0
C921 C 0.63062 0.28358 0.57574 0.0
N922 N 0.69822 0.22996 0.55265 0.0
N923 N 0.65552 0.27741 0.57806 0.0
H924 H 0.92286 0.34086 0.81791 0.0
H925 H 0.9384 0.4743 0.76376 0.0
H926 H 0.94263 0.3596 0.74108 0.0
H927 H 0.9173 0.45839 0.84088 0.0
H928 H 0.92077 0.43365 0.75095 0.0
H929 H 0.90285 0.38238 0.82235 0.0
C930 C 0.92212 0.35341 0.80173 0.0
C931 C 0.93503 0.34747 0.77941 0.0
C932 C 0.91927 0.43922 0.77061 0.0
C933 C 0.91271 0.39465 0.78428 0.0
C934 C 0.92929 0.46249 0.77784 0.0
C935 C 0.92998 0.46912 0.80345 0.0
C936 C 0.91123 0.4221 0.78935 0.0
C937 C 0.91756 0.45355 0.82097 0.0
C938 C 0.91075 0.37709 0.80422 0.0
C939 C 0.93345 0.36402 0.75885 0.0
N940 N 0.9095 0.43022 0.81376 0.0
N941 N 0.92298 0.3871 0.76193 0.0
H942 H 0.95862 0.74845 0.12461 0.0
H943 H 0.86837 0.83056 0.04665 0.0
H944 H 0.98143 0.79456 0.06123 0.0
H945 H 0.84794 0.78488 0.11126 0.0
H946 H 0.91223 0.83155 0.06189 0.0
H947 H 0.92354 0.77713 0.13233 0.0
C948 C 0.95683 0.76512 0.11287 0.0
C949 C 0.97174 0.76826 0.09118 0.0
C950 C 0.89803 0.82172 0.07299 0.0
C951 C 0.93127 0.80034 0.09917 0.0
C952 C 0.87306 0.82091 0.0641 0.0
C953 C 0.85483 0.80653 0.07699 0.0
C954 C 0.90467 0.80784 0.09472 0.0
C955 C 0.86168 0.79519 0.10001 0.0
C956 C 0.93665 0.78148 0.11717 0.0
C957 C 0.96926 0.7907 0.07728 0.0
N958 N 0.88613 0.79569 0.10787 0.0
N959 N 0.94864 0.80544 0.08084 0.0
H960 H 0.67384 0.11296 0.94603 0.0
H961 H 0.74326 0.12011 0.81291 0.0
H962 H 0.75167 0.13658 0.93675 0.0
H963 H 0.7004 0.05606 0.83984 0.0
H964 H 0.73133 0.14353 0.85125 0.0
H965 H 0.66923 0.1112 0.89991 0.0
C966 C 0.68951 0.11921 0.93431 0.0
C967 C 0.7133 0.12461 0.94509 0.0
C968 C 0.7237 0.12475 0.84814 0.0
C969 C 0.70805 0.12272 0.89269 0.0
C970 C 0.73037 0.11144 0.82634 0.0
C971 C 0.72283 0.08617 0.82348 0.0
C972 C 0.70895 0.11278 0.8667 0.0
C973 C 0.70659 0.07552 0.84153 0.0
C974 C 0.6869 0.11796 0.90804 0.0
C975 C 0.73311 0.13214 0.92907 0.0
N976 N 0.70035 0.08882 0.86257 0.0
N977 N 0.7302 0.13053 0.90356 0.0
H978 H 0.27948 0.4873 0.09014 0.0
H979 H 0.23132 0.443 0.2207 0.0
H980 H 0.21137 0.44316 0.101 0.0
H981 H 0.30269 0.48139 0.20785 0.0
H982 H 0.22996 0.43143 0.17608 0.0
H983 H 0.29589 0.47143 0.13015 0.0
C984 C 0.26839 0.47351 0.10055 0.0
C985 C 0.24359 0.46743 0.09303 0.0
C986 C 0.24611 0.44206 0.18309 0.0
C987 C 0.26158 0.45018 0.13912 0.0
C988 C 0.24671 0.44899 0.2085 0.0
C989 C 0.26666 0.464 0.21779 0.0
C990 C 0.2654 0.45055 0.1668 0.0
C991 C 0.28652 0.47047 0.20134 0.0
C992 C 0.27766 0.46455 0.1235 0.0
C993 C 0.23028 0.44895 0.10666 0.0
N994 N 0.28515 0.46408 0.17655 0.0
N995 N 0.23904 0.44168 0.12967 0.0
H996 H 0.85436 0.94367 0.47156 0.0
H997 H 0.8571 0.96929 0.34564 0.0
H998 H 0.87965 0.02011 0.48386 0.0
H999 H 0.8232 0.03631 0.37733 0.0
H1000 H 0.88029 0.96291 0.38522 0.0
H1001 H 0.85976 0.94965 0.42602 0.0
C1002 C 0.86255 0.96119 0.46471 0.0
C1003 C 0.86678 0.98137 0.4813 0.0
C1004 C 0.8683 0.97935 0.38315 0.0
C1005 C 0.87157 0.98888 0.42946 0.0
C1006 C 0.85507 0.98312 0.36059 0.0
C1007 C 0.83759 0.00304 0.35843 0.0
C1008 C 0.86428 -0.00421 0.40347 0.0
C1009 C 0.83601 0.02041 0.37838 0.0
C1010 C 0.86545 0.96472 0.43871 0.0
C1011 C 0.87651 0.00404 0.47153 0.0
N1012 N 0.84893 0.01618 0.40025 0.0
N1013 N 0.87753 0.0076 0.44609 0.0
H1014 H 0.36468 0.50058 0.59407 0.0
H1015 H 0.30328 0.52707 0.7012 0.0
H1016 H 0.38367 0.57983 0.5989 0.0
H1017 H 0.3582 0.58637 0.71486 0.0
H1018 H 0.32919 0.51189 0.66661 0.0
H1019 H 0.36069 0.49904 0.63996 0.0
C1020 C 0.36805 0.51768 0.60485 0.0
C1021 C 0.37335 0.54069 0.59272 0.0
C1022 C 0.33624 0.52759 0.67774 0.0
C1023 C 0.36826 0.53912 0.64496 0.0
C1024 C 0.32122 0.53641 0.69742 0.0
C1025 C 0.32811 0.55857 0.71021 0.0
C1026 C 0.35803 0.54132 0.67069 0.0
C1027 C 0.3518 0.56962 0.70494 0.0
C1028 C 0.3658 0.51674 0.63101 0.0
C1029 C 0.37878 0.56193 0.60754 0.0
N1030 N 0.36554 0.56138 0.68495 0.0
N1031 N 0.37551 0.56077 0.63298 0.0
H1032 H 0.04275 0.26762 0.6261 0.0
H1033 H 0.01268 0.14335 0.7062 0.0
H1034 H 0.97622 0.22062 0.61627 0.0
H1035 H 0.08779 0.1756 0.70068 0.0
H1036 H 0.99604 0.17811 0.68126 0.0
H1037 H 0.05581 0.24089 0.66161 0.0
C1038 C 0.03057 0.25207 0.63171 0.0
C1039 C 0.00851 0.24613 0.61786 0.0
C1040 C 0.01612 0.17783 0.68574 0.0
C1041 C 0.02348 0.21554 0.65829 0.0
C1042 C 0.02562 0.1581 0.70025 0.0
C1043 C 0.0516 0.15691 0.70598 0.0
C1044 C 0.03272 0.19641 0.67651 0.0
C1045 C 0.06762 0.17596 0.6967 0.0
C1046 C 0.03816 0.23675 0.65187 0.0
C1047 C 0.99349 0.22581 0.62613 0.0
N1048 N 0.05793 0.19499 0.68232 0.0
N1049 N 0.00138 0.21113 0.64562 0.0
H1050 H 0.18874 0.87 0.91058 0.0
H1051 H 0.16336 0.81013 0.77362 0.0
H1052 H 0.24448 0.82652 0.87013 0.0
H1053 H 0.10372 0.8347 0.82375 0.0
H1054 H 0.19465 0.82103 0.80622 0.0
H1055 H 0.15864 0.86305 0.87574 0.0
C1056 C 0.19466 0.85919 0.89423 0.0
C1057 C 0.21884 0.84839 0.89333 0.0
C1058 C 0.17469 0.82402 0.81002 0.0
C1059 C 0.18478 0.84038 0.85359 0.0
C1060 C 0.15683 0.81778 0.79145 0.0
C1061 C 0.13086 0.82136 0.79599 0.0
C1062 C 0.16653 0.83416 0.83316 0.0
C1063 C 0.12352 0.83145 0.81944 0.0
C1064 C 0.17749 0.85508 0.87448 0.0
C1065 C 0.22573 0.83462 0.87176 0.0
N1066 N 0.14126 0.83755 0.8371 0.0
N1067 N 0.20874 0.83092 0.85274 0.0
H1068 H 0.51901 0.80601 0.08568 0.0
H1069 H 0.54996 0.93397 0.15797 0.0
H1070 H 0.57982 0.85727 0.06591 0.0
H1071 H 0.48393 0.88795 0.1732 0.0
H1072 H 0.56643 0.90096 0.13083 0.0
H1073 H 0.51206 0.83002 0.12444 0.0
C1074 C 0.53128 0.82199 0.0897 0.0
C1075 C 0.54955 0.83011 0.0721 0.0
C1076 C 0.54854 0.89781 0.14042 0.0
C1077 C 0.54145 0.85776 0.11628 0.0
C1078 C 0.53922 0.91661 0.15621 0.0
C1079 C 0.51572 0.91352 0.16826 0.0
C1080 C 0.53407 0.8759 0.13622 0.0
C1081 C 0.50214 0.89104 0.16423 0.0
C1082 C 0.52718 0.83576 0.1118 0.0
C1083 C 0.5651 0.8507 0.07857 0.0
N1084 N 0.51144 0.87311 0.14838 0.0
N1085 N 0.5604 0.86407 0.09993 0.0
H1086 H 0.27987 0.19461 0.3421 0.0
H1087 H 0.43039 0.18151 0.32687 0.0
H1088 H 0.32766 0.16108 0.39911 0.0
H1089 H 0.38112 0.22072 0.27468 0.0
H1090 H 0.39282 0.16822 0.351 0.0
H1091 H 0.31645 0.19762 0.31389 0.0
C1092 C 0.29804 0.18746 0.34843 0.0
C1093 C 0.30095 0.17787 0.37293 0.0
C1094 C 0.39033 0.17958 0.33415 0.0
C1095 C 0.34297 0.18161 0.34113 0.0
C1096 C 0.41174 0.18722 0.32043 0.0
C1097 C 0.40895 0.20247 0.29888 0.0
C1098 C 0.36606 0.18718 0.32613 0.0
C1099 C 0.38431 0.20919 0.2913 0.0
C1100 C 0.31895 0.18928 0.33244 0.0
C1101 C 0.32476 0.16863 0.38029 0.0
N1102 N 0.36392 0.20159 0.30494 0.0
N1103 N 0.34503 0.17108 0.36457 0.0
H1104 H 0.61357 0.32637 0.44475 0.0
H1105 H 0.64355 0.47403 0.44671 0.0
H1106 H 0.5994 0.37524 0.50859 0.0
H1107 H 0.66528 0.42529 0.38526 0.0
H1108 H 0.63209 0.43685 0.47174 0.0
H1109 H 0.63632 0.36117 0.42402 0.0
C1110 C 0.61533 0.34432 0.45445 0.0
C1111 C 0.60429 0.34793 0.47832 0.0
C1112 C 0.63985 0.43417 0.45298 0.0
C1113 C 0.63035 0.3877 0.45484 0.0
C1114 C 0.64657 0.45538 0.43884 0.0
C1115 C 0.65532 0.45256 0.41404 0.0
C1116 C 0.64153 0.41002 0.44201 0.0
C1117 C 0.65872 0.42812 0.40445 0.0
C1118 C 0.6284 0.36414 0.44267 0.0
C1119 C 0.60734 0.37156 0.49008 0.0
N1120 N 0.65139 0.40774 0.41831 0.0
N1121 N 0.61989 0.39052 0.47817 0.0
H1122 H 0.99596 0.30576 0.68818 0.0
H1123 H 0.89401 0.22913 0.60703 0.0
H1124 H 0.96457 0.23341 0.70933 0.0
H1125 H 0.90936 0.30864 0.59729 0.0
H1126 H 0.92932 0.22647 0.63666 0.0
H1127 H 0.97477 0.3022 0.64707 0.0
C1128 C 0.98521 0.28878 0.68396 0.0
C1129 C 0.98132 0.27017 0.70255 0.0
C1130 C 0.92528 0.24442 0.6277 0.0
C1131 C 0.95679 0.26627 0.65581 0.0
C1132 C 0.90524 0.24592 0.61053 0.0
C1133 C 0.8988 0.26916 0.59953 0.0
C1134 C 0.93892 0.26633 0.63412 0.0
C1135 C 0.91362 0.29041 0.60552 0.0
C1136 C 0.97288 0.28693 0.66059 0.0
C1137 C 0.9674 0.24854 0.69589 0.0
N1138 N 0.9329 0.28855 0.62259 0.0
N1139 N 0.95524 0.24738 0.67324 0.0
H1140 H 0.92405 0.68467 0.0089 0.0
H1141 H 0.94431 0.54962 0.95077 0.0
H1142 H 0.96446 0.62523 0.0473 0.0
H1143 H 0.89703 0.60648 0.91663 0.0
H1144 H 0.94493 0.57387 0.99007 0.0
H1145 H 0.90608 0.65357 0.97987 0.0
C1146 C 0.92853 0.66491 0.01167 0.0
C1147 C 0.94608 0.65751 0.03021 0.0
C1148 C 0.93412 0.58095 0.97414 0.0
C1149 C 0.92625 0.62191 -0.00342 0.0
C1150 C 0.93401 0.56723 0.95162 0.0
C1151 C 0.92137 0.57661 0.93025 0.0
C1152 C 0.92168 0.60432 0.97518 0.0
C1153 C 0.90738 0.5989 0.93262 0.0
C1154 C 0.91836 0.64715 0.995 0.0
C1155 C 0.9511 0.63171 0.03314 0.0
N1156 N 0.90832 0.61229 0.95455 0.0
N1157 N 0.94174 0.61486 0.01604 0.0
H1158 H 0.74963 0.76424 0.17949 0.0
H1159 H 0.60199 0.78615 0.2053 0.0
H1160 H 0.69005 0.74453 0.12686 0.0
H1161 H 0.65893 0.78941 0.26422 0.0
H1162 H 0.63533 0.77865 0.17436 0.0
H1163 H 0.71751 0.7783 0.20967 0.0
C1164 C 0.72976 0.76258 0.17441 0.0
C1165 C 0.72244 0.75352 0.15053 0.0
C1166 C 0.64055 0.78131 0.19402 0.0
C1167 C 0.68574 0.77016 0.18461 0.0
C1168 C 0.62154 0.78591 0.2117 0.0
C1169 C 0.62759 0.7879 0.23753 0.0
C1170 C 0.66577 0.77879 0.20219 0.0
C1171 C 0.65332 0.78763 0.24457 0.0
C1172 C 0.71148 0.7709 0.19151 0.0
C1173 C 0.6965 0.752 0.14481 0.0
N1174 N 0.67146 0.78274 0.22703 0.0
N1175 N 0.67906 0.76039 0.16168 0.0
H1176 H 0.62223 0.05845 0.07686 0.0
H1177 H 0.582 0.07237 0.22192 0.0
H1178 H 0.63864 0.12535 0.12049 0.0
H1179 H 0.57224 0.00454 0.17751 0.0
H1180 H 0.60483 0.09169 0.18648 0.0
H1181 H 0.60412 0.03868 0.11432 0.0
C1182 C 0.62196 0.06898 0.09443 0.0
C1183 C 0.63223 0.09338 0.09576 0.0
C1184 C 0.59796 0.07247 0.18467 0.0
C1185 C 0.6114 0.07093 0.13887 0.0
C1186 C 0.58513 0.06131 0.20498 0.0
C1187 C 0.57491 0.03684 0.20263 0.0
C1188 C 0.60053 0.05906 0.1619 0.0
C1189 C 0.57954 0.02349 0.18018 0.0
C1190 C 0.61166 0.05768 0.11585 0.0
C1191 C 0.63086 0.10647 0.11878 0.0
N1192 N 0.59173 0.03487 0.16065 0.0
N1193 N 0.62073 0.09501 0.13956 0.0
H1194 H 0.19419 0.37503 0.30331 0.0
H1195 H 0.18796 0.31225 0.44049 0.0
H1196 H 0.17977 0.41595 0.37224 0.0
H1197 H 0.2241 0.27644 0.37667 0.0
H1198 H 0.17458 0.34658 0.41308 0.0
H1199 H 0.19485 0.33547 0.32752 0.0
C1200 C 0.19052 0.37554 0.32347 0.0
C1201 C 0.18707 0.39864 0.33596 0.0
C1202 C 0.1852 0.3311 0.40498 0.0
C1203 C 0.18801 0.35378 0.36361 0.0
C1204 C 0.19288 0.31143 0.4206 0.0
C1205 C 0.20763 0.29161 0.41095 0.0
C1206 C 0.19226 0.3311 0.37944 0.0
C1207 C 0.21297 0.29144 0.38494 0.0
C1208 C 0.19112 0.35305 0.33726 0.0
C1209 C 0.1827 0.39847 0.36205 0.0
N1210 N 0.20554 0.31111 0.37009 0.0
N1211 N 0.18347 0.37637 0.37508 0.0
H1212 H 0.91195 0.04917 0.62175 0.0
H1213 H 0.9475 0.04227 0.7684 0.0
H1214 H 0.90538 0.98103 0.66593 0.0
H1215 H 0.98644 0.09177 0.71626 0.0
H1216 H 0.92131 0.0266 0.73338 0.0
H1217 H 0.93 0.07093 0.65867 0.0
C1218 C 0.91419 0.03889 0.63933 0.0
C1219 C 0.90725 0.01335 0.64098 0.0
C1220 C 0.93527 0.04125 0.72978 0.0
C1221 C 0.92738 0.03808 0.68311 0.0
C1222 C 0.94999 0.05046 0.74977 0.0
C1223 C 0.96934 0.06819 0.74515 0.0
C1224 C 0.93968 0.05016 0.70518 0.0
C1225 C 0.97186 0.07795 0.72057 0.0
C1226 C 0.92445 0.05127 0.66029 0.0
C1227 C 0.9107 0.00071 0.66399 0.0
N1228 N 0.95733 0.06865 0.70142 0.0
N1229 N 0.92044 0.01326 0.68429 0.0
H1230 H 0.33776 0.73012 0.94737 0.0
H1231 H 0.31958 0.71576 0.79832 0.0
H1232 H 0.30816 0.78897 0.89915 0.0
H1233 H 0.36045 0.66175 0.84368 0.0
H1234 H 0.31734 0.74388 0.83489 0.0
H1235 H 0.34833 0.70557 0.90963 0.0
C1236 C 0.33361 0.73795 0.92889 0.0
C1237 C 0.32167 0.76147 0.92646 0.0
C1238 C 0.32703 0.72599 0.83684 0.0
C1239 C 0.33366 0.7335 0.88327 0.0
C1240 C 0.3282 0.70993 0.81599 0.0
C1241 C 0.33981 0.68632 0.81821 0.0
C1242 C 0.33736 0.71823 0.86011 0.0
C1243 C 0.35124 0.67983 0.8413 0.0
C1244 C 0.33968 0.72394 0.90735 0.0
C1245 C 0.3169 0.77073 0.90201 0.0
N1246 N 0.34942 0.69557 0.86152 0.0
N1247 N 0.3227 0.75664 0.88142 0.0
H1248 H 0.08174 0.48482 0.01215 0.0
H1249 H 0.05032 0.46737 0.86589 0.0
H1250 H 0.12661 0.43893 0.96203 0.0
H1251 H -0.00138 0.50182 0.9188 0.0
H1252 H 0.07718 0.45457 0.90124 0.0
H1253 H 0.04975 0.4892 0.97885 0.0
C1254 C 0.08479 0.47562 0.99413 0.0
C1255 C 0.10705 0.46198 0.98957 0.0
C1256 C 0.05985 0.46475 0.90514 0.0
C1257 C 0.07057 0.46674 0.95146 0.0
C1258 C 0.04449 0.47213 0.88493 0.0
C1259 C 0.02235 0.48613 0.88929 0.0
C1260 C 0.05317 0.47158 0.92992 0.0
C1261 C 0.0157 0.49146 0.91445 0.0
C1262 C 0.06647 0.47797 0.97518 0.0
C1263 C 0.10974 0.44976 0.9662 0.0
N1264 N 0.03119 0.48444 0.93378 0.0
N1265 N 0.09189 0.45273 0.94786 0.0
H1266 H 0.77792 0.88768 0.0819 0.0
H1267 H 0.77535 0.89173 0.23302 0.0
H1268 H 0.74092 0.83123 0.12802 0.0
H1269 H 0.82599 0.93648 0.18714 0.0
H1270 H 0.75626 0.87421 0.19453 0.0
H1271 H 0.78715 0.91215 0.12005 0.0
C1272 C 0.77085 0.88089 0.09991 0.0
C1273 C 0.75904 0.85716 0.10186 0.0
C1274 C 0.77154 0.88786 0.19285 0.0
C1275 C 0.77015 0.88468 0.14552 0.0
C1276 C 0.7825 0.89771 0.21476 0.0
C1277 C 0.80227 0.91542 0.21309 0.0
C1278 C 0.78037 0.89588 0.16911 0.0
C1279 C 0.81097 0.9226 0.18911 0.0
C1280 C 0.77653 0.89467 0.12173 0.0
C1281 C 0.7504 0.84928 0.12573 0.0
N1282 N 0.79989 0.91284 0.16799 0.0
N1283 N 0.75654 0.86279 0.1467 0.0
H1284 H 0.57751 0.54559 0.41343 0.0
H1285 H 0.44476 0.6134 0.43666 0.0
H1286 H 0.52916 0.57455 0.35413 0.0
H1287 H 0.49369 0.58928 0.49739 0.0
H1288 H 0.47858 0.60446 0.40643 0.0
H1289 H 0.55011 0.56595 0.44482 0.0
C1290 C 0.56134 0.55642 0.40699 0.0
C1291 C 0.55542 0.55802 0.38113 0.0
C1292 C 0.48214 0.60144 0.42639 0.0
C1293 C 0.52409 0.58132 0.41682 0.0
C1294 C 0.46283 0.60657 0.44359 0.0
C1295 C 0.46644 0.60173 0.46937 0.0
C1296 C 0.50511 0.59104 0.43505 0.0
C1297 C 0.49026 0.59323 0.47757 0.0
C1298 C 0.54572 0.56805 0.4249 0.0
C1299 C 0.53429 0.57242 0.37386 0.0
N1300 N 0.50861 0.58771 0.46039 0.0
N1301 N 0.51933 0.58328 0.39159 0.0
H1302 H 0.78834 0.14426 0.53164 0.0
H1303 H 0.80442 0.10685 0.67704 0.0
H1304 H 0.84024 0.18091 0.58343 0.0
H1305 H 0.7351 0.09454 0.63516 0.0
H1306 H 0.82447 0.12304 0.63877 0.0
H1307 H 0.77624 0.11486 0.56538 0.0
C1308 C 0.79778 0.14569 0.54982 0.0
C1309 C 0.81514 0.16534 0.55481 0.0
C1310 C 0.80501 0.11638 0.63784 0.0
C1311 C 0.80121 0.1319 0.59333 0.0
C1312 C 0.7936 0.1069 0.65962 0.0
C1313 C 0.76814 0.09899 0.65917 0.0
C1314 C 0.79086 0.11814 0.6154 0.0
C1315 C 0.75477 0.10047 0.63624 0.0
C1316 C 0.79064 0.12905 0.5691 0.0
C1317 C 0.82664 0.16624 0.57877 0.0
N1318 N 0.76627 0.10997 0.61522 0.0
N1319 N 0.81932 0.14993 0.59719 0.0
H1320 H 0.17187 0.57725 0.11973 0.0
H1321 H 0.02244 0.59313 0.12252 0.0
H1322 H 0.11893 0.52297 0.08855 0.0
H1323 H 0.07525 0.64743 0.1534 0.0
H1324 H 0.05695 0.56259 0.11896 0.0
H1325 H 0.13664 0.59863 0.1404 0.0
C1326 C 0.15288 0.56963 0.11746 0.0
C1327 C 0.14831 0.54857 0.10194 0.0
C1328 C 0.06093 0.58099 0.12704 0.0
C1329 C 0.10784 0.57304 0.12552 0.0
C1330 C 0.04123 0.59835 0.12912 0.0
C1331 C 0.04624 0.6229 0.13772 0.0
C1332 C 0.08579 0.5884 0.13341 0.0
C1333 C 0.0707 0.62869 0.14648 0.0
C1334 C 0.13276 0.58183 0.12934 0.0
C1335 C 0.12334 0.53935 0.10003 0.0
N1336 N 0.08974 0.61174 0.14359 0.0
N1337 N 0.10401 0.55187 0.11135 0.0
H1338 H 0.65042 0.03464 0.0119 0.0
H1339 H 0.64614 0.89893 0.94507 0.0
H1340 H 0.71555 0.00121 0.97564 0.0
H1341 H 0.58654 0.92823 0.99229 0.0
H1342 H 0.67071 0.93788 0.9524 0.0
H1343 H 0.62572 -0.00302 0.00185 0.0
C1344 C 0.65958 0.01935 0.0019 0.0
C1345 C 0.68515 0.02108 0.99471 0.0
C1346 C 0.65225 0.93577 0.96113 0.0
C1347 C 0.65682 0.97789 0.9829 0.0
C1348 C 0.63825 0.91368 0.95684 0.0
C1349 C 0.61464 0.91038 0.96852 0.0
C1350 C 0.64227 0.95466 0.97689 0.0
C1351 C 0.60498 0.92996 0.98342 0.0
C1352 C 0.64542 -0.00216 -0.00389 0.0
C1353 C 0.69591 0.00067 0.98163 0.0
N1354 N 0.61888 0.95123 0.98728 0.0
N1355 N 0.68167 0.97992 0.9761 0.0
H1356 H 0.34538 0.30918 0.24343 0.0
H1357 H 0.34897 0.43798 0.31904 0.0
H1358 H 0.41443 0.34348 0.27106 0.0
H1359 H 0.2798 0.39621 0.30478 0.0
H1360 H 0.37338 0.40093 0.30699 0.0
H1361 H 0.32082 0.33946 0.26846 0.0
C1362 C 0.35528 0.32315 0.25476 0.0
C1363 C 0.38182 0.3239 0.25541 0.0
C1364 C 0.35285 0.39966 0.30702 0.0
C1365 C 0.35417 0.35823 0.28416 0.0
C1366 C 0.3389 0.42077 0.31414 0.0
C1367 C 0.31232 0.42042 0.31223 0.0
C1368 C 0.34011 0.37825 0.29764 0.0
C1369 C 0.30028 0.3975 0.30609 0.0
C1370 C 0.34135 0.34017 0.26929 0.0
C1371 C 0.39393 0.34211 0.27046 0.0
N1372 N 0.31429 0.3775 0.29832 0.0
N1373 N 0.38001 0.35868 0.28414 0.0
H1374 H 0.908 0.18246 0.56874 0.0
H1375 H 0.82328 0.07637 0.50158 0.0
H1376 H 0.90152 0.17478 0.4876 0.0
H1377 H 0.84114 0.07738 0.5812 0.0
H1378 H 0.8447 0.11734 0.49688 0.0
H1379 H 0.87884 0.14748 0.57396 0.0
C1380 C 0.90107 0.17313 0.55193 0.0
C1381 C 0.90846 0.18095 0.52763 0.0
C1382 C 0.8437 0.10869 0.51543 0.0
C1383 C 0.87309 0.14174 0.53363 0.0
C1384 C 0.83114 0.08554 0.51819 0.0
C1385 C 0.83108 0.07327 0.54173 0.0
C1386 C 0.85612 0.11951 0.53639 0.0
C1387 C 0.84158 0.08586 0.5626 0.0
C1388 C 0.88378 0.15342 0.55498 0.0
C1389 C 0.89685 0.16914 0.50673 0.0
N1390 N 0.85401 0.10812 0.55939 0.0
N1391 N 0.87984 0.15006 0.51019 0.0
H1392 H 0.21703 0.63241 0.68528 0.0
H1393 H 0.15186 0.73689 0.64446 0.0
H1394 H 0.27226 0.68413 0.71683 0.0
H1395 H 0.19777 0.77629 0.69943 0.0
H1396 H 0.18202 0.70188 0.6453 0.0
H1397 H 0.19491 0.66784 0.66641 0.0
C1398 C 0.22482 0.65121 0.68782 0.0
C1399 C 0.24633 0.65529 0.70303 0.0
C1400 C 0.18561 0.71812 0.65719 0.0
C1401 C 0.22126 0.69626 0.68092 0.0
C1402 C 0.16862 0.73831 0.65631 0.0
C1403 C 0.17214 0.75906 0.67239 0.0
C1404 C 0.206 0.7188 0.67447 0.0
C1405 C 0.19418 0.76024 0.68721 0.0
C1406 C 0.21226 0.67156 0.67673 0.0
C1407 C 0.2556 0.68007 0.70548 0.0
N1408 N 0.21006 0.74018 0.68823 0.0
N1409 N 0.24276 0.69962 0.69491 0.0
H1410 H 0.47377 0.38346 0.57522 0.0
H1411 H 0.39202 0.45388 0.50356 0.0
H1412 H 0.53371 0.42192 0.53512 0.0
H1413 H 0.45003 0.51179 0.50705 0.0
H1414 H 0.42289 0.42313 0.51841 0.0
H1415 H 0.4431 0.41316 0.55721 0.0
C1416 C 0.48045 0.39854 0.56304 0.0
C1417 C 0.50611 0.40044 0.55656 0.0
C1418 C 0.42882 0.44258 0.5159 0.0
C1419 C 0.47134 0.43354 0.53509 0.0
C1420 C 0.41135 0.46009 0.50695 0.0
C1421 C 0.41825 0.48564 0.50468 0.0
C1422 C 0.45335 0.45065 0.52249 0.0
C1423 C 0.44374 0.49238 0.50897 0.0
C1424 C 0.46296 0.41506 0.55231 0.0
C1425 C 0.51396 0.42002 0.54046 0.0
N1426 N 0.46037 0.47499 0.51798 0.0
N1427 N 0.49658 0.43591 0.53021 0.0
H1428 H 0.82862 0.09833 0.7386 0.0
H1429 H 0.9121 0.17517 0.83666 0.0
H1430 H 0.84284 0.07155 0.81448 0.0
H1431 H 0.91089 0.19038 0.75647 0.0
H1432 H 0.88914 0.13549 0.82882 0.0
H1433 H 0.8619 0.12982 0.74401 0.0
C1434 C 0.83907 0.09874 0.75624 0.0
C1435 C 0.83271 0.08245 0.7762 0.0
C1436 C 0.89438 0.14729 0.81291 0.0
C1437 C 0.8705 0.119 0.78281 0.0
C1438 C 0.90734 0.16993 0.81739 0.0
C1439 C 0.91371 0.18584 0.79715 0.0
C1440 C 0.88732 0.14087 0.78805 0.0
C1441 C 0.90699 0.17837 0.77257 0.0
C1442 C 0.85808 0.11682 0.75937 0.0
C1443 C 0.847 0.08386 0.79864 0.0
N1444 N 0.89398 0.15655 0.76874 0.0
N1445 N 0.86493 0.10219 0.80153 0.0
H1446 H 0.69508 0.81219 0.36323 0.0
H1447 H 0.76398 0.91183 0.31756 0.0
H1448 H 0.63118 0.86258 0.35882 0.0
H1449 H 0.70644 0.96089 0.34824 0.0
H1450 H 0.7397 0.87553 0.33133 0.0
H1451 H 0.72362 0.84845 0.36018 0.0
C1452 C 0.68705 0.83093 0.36167 0.0
C1453 C 0.66074 0.8343 0.36005 0.0
C1454 C 0.73257 0.89413 0.33575 0.0
C1455 C 0.69323 0.87581 0.35538 0.0
C1456 C 0.74631 0.91502 0.3275 0.0
C1457 C 0.73727 0.93955 0.33174 0.0
C1458 C 0.70947 0.89762 0.34843 0.0
C1459 C 0.71414 0.94233 0.34459 0.0
C1460 C 0.70336 0.85162 0.35947 0.0
C1461 C 0.65136 0.85903 0.35864 0.0
N1462 N 0.70088 0.92156 0.35228 0.0
N1463 N 0.6676 0.87887 0.35595 0.0
H1464 H 0.05711 0.13385 0.88277 0.0
H1465 H 0.08063 0.2656 0.82166 0.0
H1466 H 0.07393 0.15772 0.80643 0.0
H1467 H 0.02136 0.2545 0.87663 0.0
H1468 H 0.10214 0.2287 0.83807 0.0
H1469 H 0.06282 0.17816 0.89659 0.0
C1470 C 0.06273 0.14795 0.86906 0.0
C1471 C 0.06549 0.14159 0.84333 0.0
C1472 C 0.08495 0.23492 0.84737 0.0
C1473 C 0.07372 0.19144 0.85933 0.0
C1474 C 0.07267 0.25622 0.83803 0.0
C1475 C 0.04828 0.262 0.84668 0.0
C1476 C 0.07187 0.2188 0.86406 0.0
C1477 C 0.03948 0.24949 0.86844 0.0
C1478 C 0.0664 0.17305 0.87708 0.0
C1479 C 0.07293 0.16076 0.82655 0.0
N1480 N 0.05052 0.22743 0.87559 0.0
N1481 N 0.07681 0.18452 0.83484 0.0
H1482 H 0.11244 0.68133 0.03864 0.0
H1483 H 0.19532 0.80868 0.03999 0.0
H1484 H 0.08175 0.75491 0.05438 0.0
H1485 H 0.22316 0.73694 0.01371 0.0
H1486 H 0.15485 0.78837 0.05099 0.0
H1487 H 0.15501 0.70028 0.03553 0.0
C1488 C 0.11487 0.70143 0.04171 0.0
C1489 C 0.09396 0.71678 0.04651 0.0
C1490 C 0.16987 0.77704 0.04294 0.0
C1491 C 0.1419 0.73852 0.04291 0.0
C1492 C 0.1928 0.78865 0.03662 0.0
C1493 C 0.21225 0.77439 0.02584 0.0
C1494 C 0.16657 0.75105 0.03842 0.0
C1495 C 0.20846 0.74847 0.02206 0.0
C1496 C 0.13899 0.71226 0.03987 0.0
C1497 C 0.09767 0.74266 0.05045 0.0
N1498 N 0.18598 0.7376 0.02825 0.0
N1499 N 0.12123 0.75281 0.04839 0.0
H1500 H 0.53709 0.95904 0.33612 0.0
H1501 H 0.48163 0.82047 0.33282 0.0
H1502 H 0.46202 0.94128 0.30877 0.0
H1503 H 0.56 0.84401 0.33791 0.0
H1504 H 0.46889 0.86463 0.34035 0.0
H1505 H 0.53865 0.91803 0.357 0.0
C1506 C 0.52054 0.94684 0.33533 0.0
C1507 C 0.49985 0.95286 0.3199 0.0
C1508 C 0.48883 0.85975 0.34064 0.0
C1509 C 0.50196 0.90564 0.34247 0.0
C1510 C 0.49608 0.83472 0.33602 0.0
C1511 C 0.52191 0.82855 0.33461 0.0
C1512 C 0.50763 0.8784 0.34417 0.0
C1513 C 0.53989 0.84758 0.33941 0.0
C1514 C 0.52149 0.92331 0.34702 0.0
C1515 C 0.4787 0.93666 0.31982 0.0
N1516 N 0.53242 0.87152 0.3438 0.0
N1517 N 0.48063 0.91322 0.33008 0.0
H1518 H 0.45675 0.31726 0.50329 0.0
H1519 H 0.34456 0.21489 0.4943 0.0
H1520 H 0.46954 0.23698 0.50611 0.0
H1521 H 0.33436 0.29444 0.48066 0.0
H1522 H 0.39003 0.22251 0.50134 0.0
H1523 H 0.4113 0.30933 0.49775 0.0
C1524 C 0.44988 0.29795 0.5028 0.0
C1525 C 0.46675 0.27772 0.50511 0.0
C1526 C 0.37785 0.2383 0.49681 0.0
C1527 C 0.41493 0.26842 0.4987 0.0
C1528 C 0.352 0.23393 0.49274 0.0
C1529 C 0.33593 0.25405 0.48669 0.0
C1530 C 0.38755 0.26301 0.49498 0.0
C1531 C 0.34622 0.27845 0.48533 0.0
C1532 C 0.424 0.29341 0.49955 0.0
C1533 C 0.45706 0.25305 0.50415 0.0
N1534 N 0.3714 0.28226 0.4894 0.0
N1535 N 0.43173 0.24906 0.50105 0.0
H1536 H 0.53717 0.43132 0.33179 0.0
H1537 H 0.55789 0.29548 0.26893 0.0
H1538 H 0.6058 0.41131 0.29258 0.0
H1539 H 0.48596 0.32394 0.29475 0.0
H1540 H 0.57846 0.33472 0.28362 0.0
H1541 H 0.52087 0.38859 0.32506 0.0
C1542 C 0.54885 0.41768 0.32198 0.0
C1543 C 0.57265 0.42457 0.31252 0.0
C1544 C 0.55821 0.33226 0.28617 0.0
C1545 C 0.55422 0.37595 0.30446 0.0
C1546 C 0.54657 0.30998 0.27785 0.0
C1547 C 0.52029 0.3069 0.28044 0.0
C1548 C 0.54334 0.35123 0.29727 0.0
C1549 C 0.50624 0.32595 0.2921 0.0
C1550 C 0.53959 0.39338 0.31808 0.0
C1551 C 0.5873 0.40645 0.30007 0.0
N1552 N 0.51794 0.34735 0.30004 0.0
N1553 N 0.57773 0.38288 0.29615 0.0
H1554 H 0.97863 0.31357 0.46381 0.0
H1555 H 0.83309 0.31681 0.45759 0.0
H1556 H 0.92727 0.3547 0.5115 0.0
H1557 H 0.88242 0.25563 0.43725 0.0
H1558 H 0.86821 0.34651 0.4516 0.0
H1559 H 0.94581 0.31122 0.43113 0.0
C1560 C 0.96099 0.3236 0.46671 0.0
C1561 C 0.95522 0.33374 0.49052 0.0
C1562 C 0.87102 0.32679 0.44699 0.0
C1563 C 0.91762 0.33056 0.45371 0.0
C1564 C 0.8509 0.30984 0.45019 0.0
C1565 C 0.85533 0.28379 0.44874 0.0
C1566 C 0.89547 0.31731 0.44263 0.0
C1567 C 0.87858 0.27562 0.43913 0.0
C1568 C 0.94218 0.32206 0.44812 0.0
C1569 C 0.93216 0.34633 0.49347 0.0
N1570 N 0.89817 0.29227 0.43727 0.0
N1571 N 0.9138 0.34372 0.47556 0.0
H1572 H 0.04324 0.60315 0.80679 0.0
H1573 H 0.00292 0.71908 0.71844 0.0
H1574 H 0.967 0.61369 0.77927 0.0
H1575 H 0.07794 0.709 0.74937 0.0
H1576 H 0.99012 0.6784 0.73678 0.0
H1577 H 0.0567 0.64095 0.78384 0.0
C1578 C 0.02929 0.6138 0.79616 0.0
C1579 C 0.00402 0.60566 0.79497 0.0
C1580 C 0.00949 0.6849 0.7392 0.0
C1581 C 0.01922 0.64847 0.76822 0.0
C1582 C 0.01682 0.70795 0.72859 0.0
C1583 C 0.04141 0.71731 0.73262 0.0
C1584 C 0.02696 0.67129 0.75393 0.0
C1585 C 0.05883 0.70227 0.74572 0.0
C1586 C 0.03698 0.63518 0.78287 0.0
C1587 C 0.98661 0.61972 0.7808 0.0
N1588 N 0.05119 0.68013 0.75619 0.0
N1589 N 0.99456 0.6405 0.76785 0.0
H1590 H 0.61413 0.76072 0.92614 0.0
H1591 H 0.70778 0.73526 0.03184 0.0
H1592 H 0.59735 0.72043 0.99498 0.0
H1593 H 0.73346 0.76001 0.95832 0.0
H1594 H 0.67058 0.71754 0.01294 0.0
H1595 H 0.65861 0.74821 0.93013 0.0
C1596 C 0.61954 0.74814 0.94137 0.0
C1597 C 0.60237 0.74263 0.96093 0.0
C1598 C 0.68442 0.72636 0.00062 0.0
C1599 C 0.65287 0.72843 0.96571 0.0
C1600 C 0.70622 0.7363 0.01151 0.0
C1601 C 0.72422 0.74921 -0.00321 0.0
C1602 C 0.6794 0.73072 0.97493 0.0
C1603 C 0.71984 0.75086 0.97059 0.0
C1604 C 0.64498 0.74112 0.94374 0.0
C1605 C 0.61001 0.72576 0.97982 0.0
N1606 N 0.69748 0.74241 0.96057 0.0
N1607 N 0.6349 0.71986 0.98215 0.0
H1608 H 0.78097 0.0829 0.23238 0.0
H1609 H 0.76568 0.04808 0.0857 0.0
H1610 H 0.76017 0.0096 0.2034 0.0
H1611 H 0.77191 0.12527 0.11095 0.0
H1612 H 0.76903 0.03388 0.12929 0.0
H1613 H 0.78049 0.09957 0.18875 0.0
C1614 C 0.77589 0.07051 0.21685 0.0
C1615 C 0.77063 0.04492 0.22126 0.0
C1616 C 0.76989 0.05395 0.12544 0.0
C1617 C 0.77069 0.06341 0.17178 0.0
C1618 C 0.7684 0.06203 0.10047 0.0
C1619 C 0.76862 0.08785 0.09479 0.0
C1620 C 0.77145 0.07182 0.14503 0.0
C1621 C 0.77154 0.10517 0.11469 0.0
C1622 C 0.77586 0.0799 0.19204 0.0
C1623 C 0.76448 0.02943 0.20066 0.0
N1624 N 0.77267 0.09686 0.13907 0.0
N1625 N 0.76484 0.03887 0.17685 0.0
H1626 H 0.33519 0.59729 0.43183 0.0
H1627 H 0.26167 0.588 0.32976 0.0
H1628 H 0.2701 0.58002 0.47807 0.0
H1629 H 0.2349 0.52729 0.37726 0.0
H1630 H 0.27119 0.61288 0.36785 0.0
H1631 H 0.3073 0.60219 0.3954 0.0
C1632 C 0.31489 0.5957 0.43459 0.0
C1633 C 0.30494 0.5875 0.45774 0.0
C1634 C 0.26231 0.59449 0.36978 0.0
C1635 C 0.27298 0.59238 0.41607 0.0
C1636 C 0.2568 0.58034 0.34815 0.0
C1637 C 0.24836 0.55526 0.35048 0.0
C1638 C 0.2589 0.58344 0.39367 0.0
C1639 C 0.24176 0.54638 0.37457 0.0
C1640 C 0.29887 0.59851 0.41372 0.0
C1641 C 0.2785 0.58556 0.46021 0.0
N1642 N 0.2477 0.56029 0.39532 0.0
N1643 N 0.26346 0.58688 0.43935 0.0
H1644 H 0.79371 0.91274 0.61134 0.0
H1645 H 0.78342 0.95393 0.72952 0.0
H1646 H 0.74145 0.97461 0.60356 0.0
H1647 H 0.70403 0.96784 0.71634 0.0
H1648 H 0.7854 0.93066 0.68991 0.0
H1649 H 0.77642 0.90408 0.65363 0.0
C1650 C 0.77796 0.92389 0.6182 0.0
C1651 C 0.76959 0.94499 0.60453 0.0
C1652 C 0.76718 0.93771 0.6961 0.0
C1653 C 0.74985 0.93526 0.65236 0.0
C1654 C 0.76608 0.95101 0.71883 0.0
C1655 C 0.74375 0.96356 0.72557 0.0
C1656 C 0.74596 0.93762 0.67989 0.0
C1657 C 0.72183 0.95915 0.71113 0.0
C1658 C 0.7682 0.919 0.64227 0.0
C1659 C 0.74878 0.95848 0.61377 0.0
N1660 N 0.72371 0.94753 0.68828 0.0
N1661 N 0.73997 0.95375 0.63742 0.0
H1662 H 0.25829 0.618 0.85464 0.0
H1663 H 0.25949 0.55501 0.97244 0.0
H1664 H 0.23933 0.54206 0.83128 0.0
H1665 H 0.18294 0.53833 0.94807 0.0
H1666 H 0.26976 0.56851 0.92931 0.0
H1667 H 0.24875 0.60618 0.89854 0.0
C1668 C 0.25213 0.59889 0.85874 0.0
C1669 C 0.24961 0.58093 0.83941 0.0
C1670 C 0.25076 0.56189 0.9336 0.0
C1671 C 0.23796 0.56783 0.88889 0.0
C1672 C 0.24481 0.55437 0.95808 0.0
C1673 C 0.22019 0.54602 0.96383 0.0
C1674 C 0.23215 0.56029 0.91476 0.0
C1675 C 0.20216 0.54456 0.94432 0.0
C1676 C 0.24661 0.5923 0.88362 0.0
C1677 C 0.24104 0.55658 0.8456 0.0
N1678 N 0.20856 0.55149 0.92042 0.0
N1679 N 0.23526 0.55073 0.86991 0.0
H1680 H 0.84614 0.95864 0.81217 0.0
H1681 H 0.95011 0.04919 0.8645 0.0
H1682 H 0.82775 0.0238 0.85727 0.0
H1683 H 0.96619 0.97315 0.84006 0.0
H1684 H 0.9054 0.03758 0.86898 0.0
H1685 H 0.88939 0.95994 0.82885 0.0
C1686 C 0.85103 0.97269 0.82629 0.0
C1687 C 0.83344 0.99117 0.83328 0.0
C1688 C 0.9188 0.02325 0.86326 0.0
C1689 C 0.8832 0.99355 0.85166 0.0
C1690 C 0.94441 0.02987 0.86073 0.0
C1691 C 0.9619 0.01231 0.85126 0.0
C1692 C 0.9106 -0.00098 0.85595 0.0
C1693 C 0.95336 0.9875 0.84693 0.0
C1694 C 0.87577 0.97356 0.83574 0.0
C1695 C 0.84074 0.00912 0.85148 0.0
N1696 N 0.92826 0.98177 0.84872 0.0
N1697 N 0.86529 0.0103 0.85953 0.0
H1698 H 0.3484 0.6895 0.01335 0.0
H1699 H 0.24805 0.63171 0.1098 0.0
H1700 H 0.31154 0.73315 0.0715 0.0
H1701 H 0.28781 0.58805 0.05356 0.0
H1702 H 0.27589 0.66763 0.10064 0.0
H1703 H 0.33214 0.65096 0.03281 0.0
C1704 C 0.3373 0.69101 0.0305 0.0
C1705 C 0.33073 0.71471 0.04036 0.0
C1706 C 0.27875 0.65008 0.09054 0.0
C1707 C 0.31162 0.67054 0.06254 0.0
C1708 C 0.26283 0.62954 0.09577 0.0
C1709 C 0.26531 0.60692 0.08216 0.0
C1710 C 0.29721 0.64804 0.07149 0.0
C1711 C 0.28494 0.6052 0.06431 0.0
C1712 C 0.32787 0.66894 0.04155 0.0
C1713 C 0.31651 0.71535 0.06282 0.0
N1714 N 0.2999 0.62556 0.05929 0.0
N1715 N 0.30701 0.69364 0.07287 0.0
H1716 H 0.68188 0.03086 0.37842 0.0
H1717 H 0.59479 0.10817 0.28294 0.0
H1718 H 0.7107 0.07966 0.31956 0.0
H1719 H 0.56646 0.05296 0.33609 0.0
H1720 H 0.63625 0.10631 0.30357 0.0
H1721 H 0.63927 0.04705 0.37053 0.0
C1722 C 0.67939 0.04536 0.36418 0.0
C1723 C 0.6999 0.05346 0.34923 0.0
C1724 C 0.62085 0.09494 0.31103 0.0
C1725 C 0.65096 0.07192 0.33994 0.0
C1726 C 0.59706 0.09607 0.29932 0.0
C1727 C 0.57718 0.08025 0.30739 0.0
C1728 C 0.62485 0.07782 0.33094 0.0
C1729 C 0.5813 0.06519 0.3289 0.0
C1730 C 0.65497 0.05454 0.35962 0.0
C1731 C 0.69544 0.07249 0.33125 0.0
N1732 N 0.60477 0.06401 0.33963 0.0
N1733 N 0.67141 0.08075 0.32682 0.0
H1734 H 0.27605 0.47199 0.51043 0.0
H1735 H 0.25754 0.32593 0.54231 0.0
H1736 H 0.31972 0.43229 0.56695 0.0
H1737 H 0.22175 0.3649 0.48017 0.0
H1738 H 0.27237 0.36679 0.55888 0.0
H1739 H 0.24826 0.43521 0.50646 0.0
C1740 C 0.27961 0.45566 0.52225 0.0
C1741 C 0.30056 0.45501 0.53865 0.0
C1742 C 0.2608 0.3664 0.54192 0.0
C1743 C 0.26892 0.41273 0.53407 0.0
C1744 C 0.25219 0.34313 0.5326 0.0
C1745 C 0.2388 0.34214 0.50967 0.0
C1746 C 0.25578 0.38861 0.52819 0.0
C1747 C 0.23242 0.36488 0.49772 0.0
C1748 C 0.26372 0.43464 0.51998 0.0
C1749 C 0.30402 0.43345 0.55376 0.0
N1750 N 0.24123 0.38715 0.50693 0.0
N1751 N 0.2886 0.413 0.55082 0.0
H1752 H 0.48815 0.58175 0.2937 0.0
H1753 H 0.38515 0.48706 0.23535 0.0
H1754 H 0.50632 0.51218 0.25532 0.0
H1755 H 0.36675 0.54741 0.28701 0.0
H1756 H 0.42904 0.50182 0.23456 0.0
H1757 H 0.44337 0.57508 0.28324 0.0
C1758 C 0.48281 0.56532 0.28266 0.0
C1759 C 0.50097 0.54729 0.27568 0.0
C1760 C 0.41536 0.512 0.24587 0.0
C1761 C 0.44979 0.53954 0.2638 0.0
C1762 C 0.39025 0.50361 0.24633 0.0
C1763 C 0.37232 0.51578 0.26161 0.0
C1764 C 0.42264 0.53272 0.2608 0.0
C1765 C 0.38001 0.53729 0.27518 0.0
C1766 C 0.45723 0.56148 0.27681 0.0
C1767 C 0.49294 0.52641 0.26135 0.0
N1768 N 0.40469 0.54493 0.27468 0.0
N1769 N 0.46792 0.52298 0.2561 0.0
H1770 H 0.7183 0.05558 0.50915 0.0
H1771 H 0.80789 0.13677 0.43028 0.0
H1772 H 0.77226 0.02327 0.45722 0.0
H1773 H 0.73845 0.16606 0.4617 0.0
H1774 H 0.78944 0.09448 0.43094 0.0
H1775 H 0.71817 0.09417 0.48399 0.0
C1776 C 0.72948 0.05627 0.49198 0.0
C1777 C 0.74599 0.0365 0.48583 0.0
C1778 C 0.7779 0.11022 0.437 0.0
C1779 C 0.74654 0.08089 0.45732 0.0
C1780 C 0.78847 0.13444 0.4366 0.0
C1781 C 0.77503 0.15487 0.44675 0.0
C1782 C 0.75399 0.10638 0.44817 0.0
C1783 C 0.74977 0.15077 0.45426 0.0
C1784 C 0.72948 0.07839 0.4776 0.0
C1785 C 0.75971 0.03828 0.4631 0.0
N1786 N 0.74035 0.12687 0.45558 0.0
N1787 N 0.76034 0.06044 0.45013 0.0
H1788 H 0.05228 0.5109 0.74549 0.0
H1789 H 0.20368 0.51688 0.74853 0.0
H1790 H 0.09873 0.46983 0.7987 0.0
H1791 H 0.15697 0.56515 0.70206 0.0
H1792 H 0.16584 0.4931 0.76073 0.0
H1793 H 0.09063 0.52418 0.72318 0.0
C1794 C 0.0705 0.50435 0.75229 0.0
C1795 C 0.07228 0.48967 0.77437 0.0
C1796 C 0.1639 0.50869 0.74761 0.0
C1797 C 0.11632 0.50487 0.74888 0.0
C1798 C 0.18553 0.52229 0.74058 0.0
C1799 C 0.18347 0.54335 0.72455 0.0
C1800 C 0.14 0.51617 0.73858 0.0
C1801 C 0.15945 0.54924 0.71469 0.0
C1802 C 0.09241 0.51199 0.73954 0.0
C1803 C 0.09642 0.48143 0.78198 0.0
N1804 N 0.13862 0.53592 0.72209 0.0
N1805 N 0.1175 0.48942 0.76947 0.0
H1806 H 0.82361 0.0112 0.01718 0.0
H1807 H 0.77679 0.88252 0.97136 0.0
H1808 H 0.77165 0.00644 0.95434 0.0
H1809 H 0.85289 0.89128 0.00063 0.0
H1810 H 0.77627 0.9276 0.96121 0.0
H1811 H 0.83755 0.96804 0.00839 0.0
C1812 C 0.81597 0.00135 0.00086 0.0
C1813 C 0.79681 0.01231 0.98621 0.0
C1814 C 0.79334 0.91951 0.96922 0.0
C1815 C 0.81145 0.96266 0.97689 0.0
C1816 C 0.79361 0.89378 0.97507 0.0
C1817 C 0.81471 0.88321 0.98732 0.0
C1818 C 0.81404 0.93482 0.97625 0.0
C1819 C 0.83607 0.89866 0.99149 0.0
C1820 C 0.82376 0.9767 -0.00409 0.0
C1821 C 0.78683 -0.00136 0.96573 0.0
N1822 N 0.83494 0.92383 0.98661 0.0
N1823 N 0.79376 0.97421 0.96206 0.0
H1824 H 0.01526 0.81717 0.84347 0.0
H1825 H 0.98858 0.69787 0.93251 0.0
H1826 H 0.03401 0.74028 0.82444 0.0
H1827 H -0.00167 0.77325 0.96232 0.0
H1828 H 0.99453 0.71442 0.88989 0.0
H1829 H -0.00149 0.80226 0.8844 0.0
C1830 C 0.0154 0.79717 0.84775 0.0
C1831 C 0.0262 0.7799 0.83084 0.0
C1832 C 0.99518 0.72736 0.90576 0.0
C1833 C 0.00711 0.76287 0.87699 0.0
C1834 C 0.99178 0.71795 0.9301 0.0
C1835 C 0.99334 0.73415 0.95104 0.0
C1836 C 6e-05 0.7532 0.90224 0.0
C1837 C -0.00272 0.76005 0.9467 0.0
C1838 C 0.00603 0.78872 0.87105 0.0
C1839 C 0.02611 0.75421 0.83716 0.0
N1840 N 0.00068 0.7688 0.92273 0.0
N1841 N 0.01678 0.74648 0.85974 0.0
H1842 H 0.50318 0.79735 0.18955 0.0
H1843 H 0.54147 0.71116 0.07824 0.0
H1844 H 0.52831 0.72117 0.20347 0.0
H1845 H 0.48233 0.76647 0.06921 0.0
H1846 H 0.53523 0.71257 0.12414 0.0
H1847 H 0.49363 0.78576 0.1457 0.0
C1848 C 0.50616 0.77804 0.18353 0.0
C1849 C 0.51671 0.76025 0.20015 0.0
C1850 C 0.5231 0.72385 0.11207 0.0
C1851 C 0.50635 0.747 0.14986 0.0
C1852 C 0.52659 0.72295 0.08588 0.0
C1853 C 0.51242 0.7387 0.06991 0.0
C1854 C 0.50588 0.7412 0.12238 0.0
C1855 C 0.49356 0.75387 0.0808 0.0
C1856 C 0.50065 0.77141 0.15851 0.0
C1857 C 0.52019 0.73548 0.19131 0.0
N1858 N 0.4913 0.75526 0.10642 0.0
N1859 N 0.51558 0.72973 0.16661 0.0
H1860 H 0.61243 0.24277 0.40867 0.0
H1861 H 0.50374 0.15605 0.34981 0.0
H1862 H 0.55205 0.20804 0.45167 0.0
H1863 H 0.55843 0.19762 0.30537 0.0
H1864 H 0.52843 0.16545 0.38778 0.0
H1865 H 0.59966 0.21777 0.37185 0.0
C1866 C 0.59678 0.22957 0.41053 0.0
C1867 C 0.58299 0.22787 0.43318 0.0
C1868 C 0.53529 0.17215 0.36966 0.0
C1869 C 0.56822 0.19926 0.39105 0.0
C1870 C 0.52127 0.16664 0.34789 0.0
C1871 C 0.52858 0.17676 0.32443 0.0
C1872 C 0.55675 0.18792 0.36798 0.0
C1873 C 0.55168 0.19005 0.32316 0.0
C1874 C 0.58948 0.21532 0.38946 0.0
C1875 C 0.563 0.21028 0.4345 0.0
N1876 N 0.56467 0.19571 0.34471 0.0
N1877 N 0.55601 0.19693 0.41364 0.0
H1878 H 0.09372 0.31316 0.71587 0.0
H1879 H 0.02362 0.37782 0.60531 0.0
H1880 H 0.04013 0.37379 0.72541 0.0
H1881 H 0.08493 0.32503 0.59539 0.0
H1882 H 0.03892 0.38663 0.64799 0.0
H1883 H 0.10087 0.32691 0.67245 0.0
C1884 C 0.08402 0.32985 0.70911 0.0
C1885 C 0.06552 0.34169 0.72398 0.0
C1886 C 0.0495 0.37363 0.63629 0.0
C1887 C 0.07315 0.35719 0.67405 0.0
C1888 C 0.04077 0.36864 0.61183 0.0
C1889 C 0.05247 0.35001 0.5971 0.0
C1890 C 0.06972 0.35946 0.64622 0.0
C1891 C 0.07492 0.3391 0.60632 0.0
C1892 C 0.08806 0.33769 0.6842 0.0
C1893 C 0.05401 0.36358 0.71438 0.0
N1894 N 0.08236 0.3434 0.63059 0.0
N1895 N 0.05741 0.37015 0.68976 0.0
loop_
_geom_bond_atom_site_label_1
_geom_bond_atom_site_label_2
_geom_bond_distance
_geom_bond_site_symmetry_2
_ccdc_geom_bond_type
Co0 O3 1.970 . S
Co0 N17 1.989 . S
Co0 O25 1.967 1_545 S
Co0 O32 1.920 1_545 S
Co1 O4 1.966 . S
Co1 N10 2.022 . S
Co1 N18 1.993 . S
Co1 O26 1.941 1_545 S
C2 O3 1.258 . S
C2 O4 1.263 . S
O3 Co0 1.970 . S
O3 C2 1.258 . S
O4 Co1 1.966 . S
O4 C2 1.263 . S
C5 O6 1.235 . S
C5 O32 1.289 1_645 S
O6 C5 1.235 . S
C7 C9 1.400 . S
C7 N10 1.351 . S
C7 C12 1.501 . S
C8 C9 1.387 . S
C8 N11 1.341 . S
C9 C7 1.400 . S
C9 C8 1.387 . S
N10 Co1 2.022 . S
N10 C7 1.351 . S
N10 N11 1.365 . S
N11 C8 1.341 . S
N11 N10 1.365 . S
N11 H31 0.862 . S
C12 C7 1.501 . S
C12 H13 0.961 . S
C12 H14 0.961 . S
C12 H15 0.960 . S
H13 C12 0.961 . S
H14 C12 0.961 . S
H15 C12 0.960 . S
C16 N17 1.342 . S
C16 C20 1.401 . S
C16 C21 1.499 . S
N17 Co0 1.989 . S
N17 C16 1.342 . S
N17 N18 1.388 . S
N18 Co1 1.993 . S
N18 N17 1.388 . S
N18 C19 1.346 . S
C19 N18 1.346 . S
C19 C20 1.396 . S
C19 C29 1.510 . S
C20 C16 1.401 . S
C20 C19 1.396 . S
C21 C16 1.499 . S
C21 H22 0.959 . S
C21 H23 0.960 . S
C21 H24 0.961 . S
H22 C21 0.959 . S
H23 C21 0.960 . S
H24 C21 0.961 . S
O25 Co0 1.967 1_565 S
O25 C33 1.258 . S
O26 Co1 1.941 1_565 S
O26 C33 1.266 . S
H27 C29 0.959 . S
H28 C29 0.961 . S
C29 C19 1.510 . S
C29 H27 0.959 . S
C29 H28 0.961 . S
C29 H30 0.960 . S
H30 C29 0.960 . S
H31 N11 0.862 . S
O32 Co0 1.920 1_565 S
O32 C5 1.289 1_465 S
C33 O25 1.258 . S
C33 O26 1.266 . S
Co34 O37 1.970 1_554 S
Co34 N51 1.989 . S
Co34 O59 1.967 . S
Co34 O66 1.920 . S
Co35 O38 1.966 . S
Co35 N44 2.022 . S
Co35 N52 1.993 . S
Co35 O60 1.941 . S
C36 O37 1.258 . S
C36 O38 1.263 . S
O37 Co34 1.970 1_556 S
O37 C36 1.258 . S
O38 Co35 1.966 . S
O38 C36 1.263 . S
C39 O40 1.235 . S
C39 O66 1.289 . S
O40 C39 1.235 . S
C41 C43 1.400 . S
C41 N44 1.351 . S
C41 C46 1.501 . S
C42 C43 1.387 . S
C42 N45 1.341 . S
C43 C41 1.400 . S
C43 C42 1.387 . S
N44 Co35 2.022 . S
N44 C41 1.351 . S
N44 N45 1.365 . S
N45 C42 1.341 . S
N45 N44 1.365 . S
N45 H65 0.862 . S
C46 C41 1.501 . S
C46 H47 0.961 . S
C46 H48 0.961 . S
C46 H49 0.960 . S
H47 C46 0.961 . S
H48 C46 0.961 . S
H49 C46 0.960 . S
C50 N51 1.342 . S
C50 C54 1.401 . S
C50 C55 1.499 . S
N51 Co34 1.989 . S
N51 C50 1.342 . S
N51 N52 1.388 1_554 S
N52 Co35 1.993 . S
N52 N51 1.388 1_556 S
N52 C53 1.346 . S
C53 N52 1.346 . S
C53 C54 1.396 1_556 S
C53 C63 1.510 . S
C54 C50 1.401 . S
C54 C53 1.396 1_554 S
C55 C50 1.499 . S
C55 H56 0.959 . S
C55 H57 0.960 . S
C55 H58 0.961 . S
H56 C55 0.959 . S
H57 C55 0.960 . S
H58 C55 0.961 . S
O59 Co34 1.967 . S
O59 C67 1.258 1_554 S
O60 Co35 1.941 . S
O60 C67 1.266 . S
H61 C63 0.959 . S
H62 C63 0.961 . S
C63 C53 1.510 . S
C63 H61 0.959 . S
C63 H62 0.961 . S
C63 H64 0.960 . S
H64 C63 0.960 . S
H65 N45 0.862 . S
O66 Co34 1.920 . S
O66 C39 1.289 . S
C67 O59 1.258 1_556 S
C67 O60 1.266 . S
Co68 O71 1.970 . S
Co68 N85 1.989 . S
Co68 O93 1.967 . S
Co68 O100 1.920 . S
Co69 O72 1.966 . S
Co69 N78 2.022 . S
Co69 N86 1.993 . S
Co69 O94 1.941 . S
C70 O71 1.258 . S
C70 O72 1.263 . S
O71 Co68 1.970 . S
O71 C70 1.258 . S
O72 Co69 1.966 . S
O72 C70 1.263 . S
C73 O74 1.235 . S
C73 O100 1.289 . S
O74 C73 1.235 . S
C75 C77 1.398 . S
C75 N78 1.351 . S
C75 C80 1.501 . S
C76 C77 1.387 . S
C76 N79 1.341 . S
C77 C75 1.398 . S
C77 C76 1.387 . S
N78 Co69 2.022 . S
N78 C75 1.351 . S
N78 N79 1.365 . S
N79 C76 1.341 . S
N79 N78 1.365 . S
N79 H99 0.862 . S
C80 C75 1.501 . S
C80 H81 0.961 . S
C80 H82 0.961 . S
C80 H83 0.960 . S
H81 C80 0.961 . S
H82 C80 0.961 . S
H83 C80 0.960 . S
C84 N85 1.342 . S
C84 C88 1.401 1_545 S
C84 C89 1.499 . S
N85 Co68 1.989 . S
N85 C84 1.342 . S
N85 N86 1.388 . S
N86 Co69 1.993 . S
N86 N85 1.388 . S
N86 C87 1.346 1_545 S
C87 N86 1.346 1_565 S
C87 C88 1.396 . S
C87 C97 1.510 . S
C88 C84 1.401 1_565 S
C88 C87 1.396 . S
C89 C84 1.499 . S
C89 H90 0.959 . S
C89 H91 0.960 1_545 S
C89 H92 0.961 . S
H90 C89 0.959 . S
H91 C89 0.960 1_565 S
H92 C89 0.961 . S
O93 Co68 1.967 . S
O93 C101 1.258 . S
O94 Co69 1.941 . S
O94 C101 1.266 . S
H95 C97 0.959 . S
H96 C97 0.961 . S
C97 C87 1.510 . S
C97 H95 0.959 . S
C97 H96 0.961 . S
C97 H98 0.960 . S
H98 C97 0.960 . S
H99 N79 0.862 . S
O100 Co68 1.920 . S
O100 C73 1.289 . S
C101 O93 1.258 . S
C101 O94 1.266 . S
Co102 O105 1.970 . S
Co102 N119 1.989 . S
Co102 O127 1.967 . S
Co102 O134 1.920 . S
Co103 O106 1.966 . S
Co103 N112 2.022 . S
Co103 N120 1.993 . S
Co103 O128 1.941 . S
C104 O105 1.258 . S
C104 O106 1.263 . S
O105 Co102 1.970 . S
O105 C104 1.258 . S
O106 Co103 1.966 . S
O106 C104 1.263 . S
C107 O108 1.235 . S
C107 O134 1.289 . S
O108 C107 1.235 . S
C109 C111 1.400 . S
C109 N112 1.351 . S
C109 C114 1.501 . S
C110 C111 1.387 . S
C110 N113 1.341 . S
C111 C109 1.400 . S
C111 C110 1.387 . S
N112 Co103 2.022 . S
N112 C109 1.351 . S
N112 N113 1.365 . S
N113 C110 1.341 . S
N113 N112 1.365 . S
N113 H133 0.862 . S
C114 C109 1.501 . S
C114 H115 0.961 . S
C114 H116 0.961 . S
C114 H117 0.960 . S
H115 C114 0.961 . S
H116 C114 0.961 . S
H117 C114 0.960 . S
C118 N119 1.342 . S
C118 C122 1.401 . S
C118 C123 1.499 . S
N119 Co102 1.989 . S
N119 C118 1.342 . S
N119 N120 1.388 . S
N120 Co103 1.993 . S
N120 N119 1.388 . S
N120 C121 1.346 . S
C121 N120 1.346 . S
C121 C122 1.396 . S
C121 C131 1.510 . S
C122 C118 1.401 . S
C122 C121 1.396 . S
C123 C118 1.499 . S
C123 H124 0.959 . S
C123 H125 0.960 . S
C123 H126 0.961 . S
H124 C123 0.959 . S
H125 C123 0.960 . S
H126 C123 0.961 . S
O127 Co102 1.967 . S
O127 C135 1.258 . S
O128 Co103 1.941 . S
O128 C135 1.266 . S
H129 C131 0.959 . S
H130 C131 0.961 . S
C131 C121 1.510 . S
C131 H129 0.959 . S
C131 H130 0.961 . S
C131 H132 0.960 . S
H132 C131 0.960 . S
H133 N113 0.862 . S
O134 Co102 1.920 . S
O134 C107 1.289 . S
C135 O127 1.258 . S
C135 O128 1.266 . S
Co136 O139 1.970 . S
Co136 N153 1.989 . S
Co136 O161 1.967 . S
Co136 O168 1.920 . S
Co137 O140 1.966 . S
Co137 N146 2.022 . S
Co137 N154 1.993 . S
Co137 O162 1.941 . S
C138 O139 1.258 . S
C138 O140 1.263 . S
O139 Co136 1.970 . S
O139 C138 1.258 . S
O140 Co137 1.966 . S
O140 C138 1.263 . S
C141 O142 1.235 . S
C141 O168 1.289 . S
O142 C141 1.235 . S
C143 C145 1.400 . S
C143 N146 1.351 . S
C143 C148 1.501 . S
C144 C145 1.387 . S
C144 N147 1.341 . S
C145 C143 1.400 . S
C145 C144 1.387 . S
N146 Co137 2.022 . S
N146 C143 1.351 . S
N146 N147 1.365 . S
N147 C144 1.341 . S
N147 N146 1.365 . S
N147 H167 0.862 . S
C148 C143 1.501 . S
C148 H149 0.961 . S
C148 H150 0.961 . S
C148 H151 0.960 . S
H149 C148 0.961 . S
H150 C148 0.961 . S
H151 C148 0.960 . S
C152 N153 1.342 . S
C152 C156 1.401 . S
C152 C157 1.499 . S
N153 Co136 1.989 . S
N153 C152 1.342 . S
N153 N154 1.388 . S
N154 Co137 1.993 . S
N154 N153 1.388 . S
N154 C155 1.346 . S
C155 N154 1.346 . S
C155 C156 1.396 . S
C155 C165 1.510 . S
C156 C152 1.401 . S
C156 C155 1.396 . S
C157 C152 1.499 . S
C157 H158 0.959 . S
C157 H159 0.960 . S
C157 H160 0.961 . S
H158 C157 0.959 . S
H159 C157 0.960 . S
H160 C157 0.961 . S
O161 Co136 1.967 . S
O161 C169 1.258 . S
O162 Co137 1.941 . S
O162 C169 1.266 . S
H163 C165 0.959 . S
H164 C165 0.961 . S
C165 C155 1.510 . S
C165 H163 0.959 . S
C165 H164 0.961 . S
C165 H166 0.960 . S
H166 C165 0.960 . S
H167 N147 0.862 . S
O168 Co136 1.920 . S
O168 C141 1.289 . S
C169 O161 1.258 . S
C169 O162 1.266 . S
Co170 O173 1.970 . S
Co170 N187 1.989 . S
Co170 O195 1.967 . S
Co170 O202 1.920 . S
Co171 O174 1.966 . S
Co171 N180 2.022 . S
Co171 N188 1.993 . S
Co171 O196 1.941 . S
C172 O173 1.258 . S
C172 O174 1.263 . S
O173 Co170 1.970 . S
O173 C172 1.258 . S
O174 Co171 1.966 . S
O174 C172 1.263 . S
C175 O176 1.235 . S
C175 O202 1.289 . S
O176 C175 1.235 . S
C177 C179 1.400 . S
C177 N180 1.351 . S
C177 C182 1.501 . S
C178 C179 1.387 . S
C178 N181 1.341 . S
C179 C177 1.400 . S
C179 C178 1.387 . S
N180 Co171 2.022 . S
N180 C177 1.351 . S
N180 N181 1.365 . S
N181 C178 1.341 . S
N181 N180 1.365 . S
N181 H201 0.862 . S
C182 C177 1.501 . S
C182 H183 0.961 . S
C182 H184 0.961 . S
C182 H185 0.960 . S
H183 C182 0.961 . S
H184 C182 0.961 . S
H185 C182 0.960 . S
C186 N187 1.342 . S
C186 C190 1.401 . S
C186 C191 1.499 . S
N187 Co170 1.989 . S
N187 C186 1.342 . S
N187 N188 1.388 . S
N188 Co171 1.993 . S
N188 N187 1.388 . S
N188 C189 1.346 . S
C189 N188 1.346 . S
C189 C190 1.396 . S
C189 C199 1.510 . S
C190 C186 1.401 . S
C190 C189 1.396 . S
C191 C186 1.499 . S
C191 H192 0.959 . S
C191 H193 0.960 . S
C191 H194 0.961 . S
H192 C191 0.959 . S
H193 C191 0.960 . S
H194 C191 0.961 . S
O195 Co170 1.967 . S
O195 C203 1.258 . S
O196 Co171 1.941 . S
O196 C203 1.266 . S
H197 C199 0.959 . S
H198 C199 0.961 . S
C199 C189 1.510 . S
C199 H197 0.959 . S
C199 H198 0.961 . S
C199 H200 0.960 . S
H200 C199 0.960 . S
H201 N181 0.862 . S
O202 Co170 1.920 . S
O202 C175 1.289 . S
C203 O195 1.258 . S
C203 O196 1.266 . S
Co204 O207 1.970 . S
Co204 N221 1.989 . S
Co204 O229 1.967 . S
Co204 O236 1.920 . S
Co205 O208 1.966 1_655 S
Co205 N214 2.022 . S
Co205 N222 1.993 . S
Co205 O230 1.941 . S
C206 O207 1.258 . S
C206 O208 1.263 . S
O207 Co204 1.970 . S
O207 C206 1.258 . S
O208 Co205 1.966 1_455 S
O208 C206 1.263 . S
C209 O210 1.235 . S
C209 O236 1.289 . S
O210 C209 1.235 . S
C211 C213 1.400 . S
C211 N214 1.351 . S
C211 C216 1.501 . S
C212 C213 1.387 . S
C212 N215 1.341 . S
C213 C211 1.400 . S
C213 C212 1.387 . S
N214 Co205 2.022 . S
N214 C211 1.351 . S
N214 N215 1.365 . S
N215 C212 1.341 . S
N215 N214 1.365 . S
N215 H235 0.862 . S
C216 C211 1.501 . S
C216 H217 0.961 . S
C216 H218 0.961 . S
C216 H219 0.960 . S
H217 C216 0.961 . S
H218 C216 0.961 . S
H219 C216 0.960 . S
C220 N221 1.342 . S
C220 C224 1.401 1_455 S
C220 C225 1.499 . S
N221 Co204 1.989 . S
N221 C220 1.342 . S
N221 N222 1.388 1_455 S
N222 Co205 1.993 . S
N222 N221 1.388 1_655 S
N222 C223 1.346 . S
C223 N222 1.346 . S
C223 C224 1.396 . S
C223 C233 1.510 . S
C224 C220 1.401 1_655 S
C224 C223 1.396 . S
C225 C220 1.499 . S
C225 H226 0.959 . S
C225 H227 0.960 . S
C225 H228 0.961 . S
H226 C225 0.959 . S
H227 C225 0.960 . S
H228 C225 0.961 . S
O229 Co204 1.967 . S
O229 C237 1.258 1_455 S
O230 Co205 1.941 . S
O230 C237 1.266 . S
H231 C233 0.959 . S
H232 C233 0.961 . S
C233 C223 1.510 . S
C233 H231 0.959 . S
C233 H232 0.961 . S
C233 H234 0.960 . S
H234 C233 0.960 . S
H235 N215 0.862 . S
O236 Co204 1.920 . S
O236 C209 1.289 . S
C237 O229 1.258 1_655 S
C237 O230 1.266 . S
Co238 O241 1.970 . S
Co238 N255 1.989 . S
Co238 O263 1.967 . S
Co238 O270 1.920 . S
Co239 O242 1.966 . S
Co239 N248 2.022 . S
Co239 N256 1.993 . S
Co239 O264 1.941 . S
C240 O241 1.258 . S
C240 O242 1.263 . S
O241 Co238 1.970 . S
O241 C240 1.258 . S
O242 Co239 1.966 . S
O242 C240 1.263 . S
C243 O244 1.235 . S
C243 O270 1.289 . S
O244 C243 1.235 . S
C245 C247 1.400 . S
C245 N248 1.351 . S
C245 C250 1.501 . S
C246 C247 1.387 . S
C246 N249 1.341 . S
C247 C245 1.400 . S
C247 C246 1.387 . S
N248 Co239 2.022 . S
N248 C245 1.351 . S
N248 N249 1.365 . S
N249 C246 1.341 . S
N249 N248 1.365 . S
N249 H269 0.862 . S
C250 C245 1.501 . S
C250 H251 0.961 . S
C250 H252 0.961 . S
C250 H253 0.960 . S
H251 C250 0.961 . S
H252 C250 0.961 . S
H253 C250 0.960 . S
C254 N255 1.342 . S
C254 C258 1.401 . S
C254 C259 1.499 . S
N255 Co238 1.989 . S
N255 C254 1.342 . S
N255 N256 1.388 . S
N256 Co239 1.993 . S
N256 N255 1.388 . S
N256 C257 1.346 . S
C257 N256 1.346 . S
C257 C258 1.396 . S
C257 C267 1.510 . S
C258 C254 1.401 . S
C258 C257 1.396 . S
C259 C254 1.499 . S
C259 H260 0.959 . S
C259 H261 0.960 . S
C259 H262 0.935 1_554 S
H260 C259 0.959 . S
H261 C259 0.960 . S
H262 C259 0.935 1_556 S
O263 Co238 1.967 . S
O263 C271 1.258 . S
O264 Co239 1.941 . S
O264 C271 1.266 . S
H265 C267 0.959 . S
H266 C267 0.961 . S
C267 C257 1.510 . S
C267 H265 0.959 . S
C267 H266 0.961 . S
C267 H268 0.960 . S
H268 C267 0.960 . S
H269 N249 0.862 . S
O270 Co238 1.920 . S
O270 C243 1.289 . S
C271 O263 1.258 . S
C271 O264 1.266 . S
Co272 O275 1.970 . S
Co272 N289 1.989 . S
Co272 O297 1.967 1_554 S
Co272 O304 1.920 1_554 S
Co273 O276 1.966 . S
Co273 N282 2.022 . S
Co273 N290 1.993 . S
Co273 O298 1.941 1_554 S
C274 O275 1.258 . S
C274 O276 1.263 . S
O275 Co272 1.970 . S
O275 C274 1.258 . S
O276 Co273 1.966 . S
O276 C274 1.263 . S
C277 O278 1.235 . S
C277 O304 1.289 1_564 S
O278 C277 1.235 . S
C279 C281 1.400 . S
C279 N282 1.351 . S
C279 C284 1.501 . S
C280 C281 1.387 . S
C280 N283 1.341 . S
C281 C279 1.400 . S
C281 C280 1.387 . S
N282 Co273 2.022 . S
N282 C279 1.351 . S
N282 N283 1.365 . S
N283 C280 1.341 . S
N283 N282 1.365 . S
N283 H303 0.862 . S
C284 C279 1.501 . S
C284 H285 0.961 . S
C284 H286 0.961 . S
C284 H287 0.960 . S
H285 C284 0.961 . S
H286 C284 0.961 . S
H287 C284 0.960 . S
C288 N289 1.342 . S
C288 C292 1.401 . S
C288 C293 1.499 . S
N289 Co272 1.989 . S
N289 C288 1.342 . S
N289 N290 1.388 . S
N290 Co273 1.993 . S
N290 N289 1.388 . S
N290 C291 1.346 . S
C291 N290 1.346 . S
C291 C292 1.396 . S
C291 C301 1.510 . S
C292 C288 1.401 . S
C292 C291 1.396 . S
C293 C288 1.499 . S
C293 H294 0.959 . S
C293 H295 0.960 . S
C293 H296 0.961 . S
H294 C293 0.959 . S
H295 C293 0.960 . S
H296 C293 0.961 . S
O297 Co272 1.967 1_556 S
O297 C305 1.258 . S
O298 Co273 1.941 1_556 S
O298 C305 1.266 . S
H299 C301 0.959 . S
H300 C301 0.961 . S
C301 C291 1.510 . S
C301 H299 0.959 . S
C301 H300 0.961 . S
C301 H302 0.960 . S
H302 C301 0.960 . S
H303 N283 0.862 . S
O304 Co272 1.920 1_556 S
O304 C277 1.289 1_546 S
C305 O297 1.258 . S
C305 O298 1.266 . S
Co306 O309 1.970 . S
Co306 N323 1.989 . S
Co306 O331 1.967 . S
Co306 O338 1.920 . S
Co307 O310 1.966 . S
Co307 N316 2.022 . S
Co307 N324 1.993 . S
Co307 O332 1.941 . S
C308 O309 1.258 . S
C308 O310 1.263 . S
O309 Co306 1.970 . S
O309 C308 1.258 . S
O310 Co307 1.966 . S
O310 C308 1.263 . S
C311 O312 1.235 . S
C311 O338 1.289 . S
O312 C311 1.235 . S
C313 C315 1.400 . S
C313 N316 1.351 . S
C313 C318 1.501 . S
C314 C315 1.387 . S
C314 N317 1.341 . S
C315 C313 1.400 . S
C315 C314 1.387 . S
N316 Co307 2.022 . S
N316 C313 1.351 . S
N316 N317 1.365 . S
N317 C314 1.341 . S
N317 N316 1.365 . S
N317 H337 0.862 . S
C318 C313 1.501 . S
C318 H319 0.961 . S
C318 H320 0.961 . S
C318 H321 0.960 . S
H319 C318 0.961 . S
H320 C318 0.961 . S
H321 C318 0.960 . S
C322 N323 1.342 . S
C322 C326 1.401 . S
C322 C327 1.499 . S
N323 Co306 1.989 . S
N323 C322 1.342 . S
N323 N324 1.388 . S
N324 Co307 1.993 . S
N324 N323 1.388 . S
N324 C325 1.346 . S
C325 N324 1.346 . S
C325 C326 1.396 . S
C325 C335 1.510 . S
C326 C322 1.401 . S
C326 C325 1.396 . S
C327 C322 1.499 . S
C327 H328 0.959 . S
C327 H329 0.960 . S
C327 H330 0.961 . S
H328 C327 0.959 . S
H329 C327 0.960 . S
H330 C327 0.961 . S
O331 Co306 1.967 . S
O331 C339 1.258 . S
O332 Co307 1.941 . S
O332 C339 1.266 . S
H333 C335 0.959 . S
H334 C335 0.961 . S
C335 C325 1.510 . S
C335 H333 0.959 . S
C335 H334 0.961 . S
C335 H336 0.960 . S
H336 C335 0.960 . S
H337 N317 0.862 . S
O338 Co306 1.920 . S
O338 C311 1.289 . S
C339 O331 1.258 . S
C339 O332 1.266 . S
Co340 O343 1.970 . S
Co340 N357 1.989 . S
Co340 O365 1.967 . S
Co340 O372 1.920 . S
Co341 O344 1.966 1_565 S
Co341 N350 2.022 . S
Co341 N358 1.993 . S
Co341 O366 1.941 . S
C342 O343 1.258 . S
C342 O344 1.263 . S
O343 Co340 1.970 . S
O343 C342 1.258 . S
O344 Co341 1.966 1_545 S
O344 C342 1.263 . S
C345 O346 1.235 . S
C345 O372 1.289 . S
O346 C345 1.235 . S
C347 C349 1.400 . S
C347 N350 1.351 . S
C347 C352 1.501 . S
C348 C349 1.387 . S
C348 N351 1.341 . S
C349 C347 1.400 . S
C349 C348 1.387 . S
N350 Co341 2.022 . S
N350 C347 1.351 . S
N350 N351 1.365 . S
N351 C348 1.341 . S
N351 N350 1.365 . S
N351 H371 0.862 . S
C352 C347 1.501 . S
C352 H353 0.961 . S
C352 H354 0.961 . S
C352 H355 0.960 . S
H353 C352 0.961 . S
H354 C352 0.961 . S
H355 C352 0.960 . S
C356 N357 1.342 . S
C356 C360 1.401 1_545 S
C356 C361 1.499 . S
N357 Co340 1.989 . S
N357 C356 1.342 . S
N357 N358 1.388 1_545 S
N358 Co341 1.993 . S
N358 N357 1.388 1_565 S
N358 C359 1.346 . S
C359 N358 1.346 . S
C359 C360 1.396 . S
C359 C369 1.510 . S
C360 C356 1.401 1_565 S
C360 C359 1.396 . S
C361 C356 1.499 . S
C361 H362 0.959 . S
C361 H363 0.960 . S
C361 H364 0.961 . S
H362 C361 0.959 . S
H363 C361 0.960 . S
H364 C361 0.961 . S
O365 Co340 1.967 . S
O365 C373 1.258 1_545 S
O366 Co341 1.941 . S
O366 C373 1.266 . S
H367 C369 0.959 . S
H368 C369 0.961 . S
C369 C359 1.510 . S
C369 H367 0.959 . S
C369 H368 0.961 . S
C369 H370 0.960 . S
H370 C369 0.960 . S
H371 N351 0.862 . S
O372 Co340 1.920 . S
O372 C345 1.289 . S
C373 O365 1.258 1_565 S
C373 O366 1.266 . S
Co374 O377 1.970 . S
Co374 N391 1.989 . S
Co374 O399 1.967 . S
Co374 O406 1.920 . S
Co375 O378 1.966 . S
Co375 N384 2.022 . S
Co375 N392 1.993 . S
Co375 O400 1.941 . S
C376 O377 1.258 . S
C376 O378 1.263 . S
O377 Co374 1.970 . S
O377 C376 1.258 . S
O378 Co375 1.966 . S
O378 C376 1.263 . S
C379 O380 1.235 . S
C379 O406 1.289 . S
O380 C379 1.235 . S
C381 C383 1.400 . S
C381 N384 1.351 . S
C381 C386 1.501 . S
C382 C383 1.387 . S
C382 N385 1.341 . S
C383 C381 1.400 . S
C383 C382 1.387 . S
N384 Co375 2.022 . S
N384 C381 1.351 . S
N384 N385 1.365 . S
N385 C382 1.341 . S
N385 N384 1.365 . S
N385 H405 0.862 . S
C386 C381 1.501 . S
C386 H387 0.961 . S
C386 H388 0.961 . S
C386 H389 0.960 . S
H387 C386 0.961 . S
H388 C386 0.961 . S
H389 C386 0.960 . S
C390 N391 1.342 . S
C390 C394 1.401 . S
C390 C395 1.499 . S
N391 Co374 1.989 . S
N391 C390 1.342 . S
N391 N392 1.388 . S
N392 Co375 1.993 . S
N392 N391 1.388 . S
N392 C393 1.346 . S
C393 N392 1.346 . S
C393 C394 1.396 . S
C393 C403 1.510 . S
C394 C390 1.401 . S
C394 C393 1.396 . S
C395 C390 1.499 . S
C395 H396 0.959 . S
C395 H397 0.960 . S
C395 H398 0.961 . S
H396 C395 0.959 . S
H397 C395 0.960 . S
H398 C395 0.961 . S
O399 Co374 1.967 . S
O399 C407 1.258 . S
O400 Co375 1.941 . S
O400 C407 1.266 . S
H401 C403 0.959 . S
H402 C403 0.961 . S
C403 C393 1.510 . S
C403 H401 0.959 . S
C403 H402 0.961 . S
C403 H404 0.960 . S
H404 C403 0.960 . S
H405 N385 0.862 . S
O406 Co374 1.920 . S
O406 C379 1.289 . S
C407 O399 1.258 . S
C407 O400 1.266 . S
Co408 O411 1.970 . S
Co408 N425 1.989 . S
Co408 O433 1.967 . S
Co408 O440 1.920 . S
Co409 O412 1.966 . S
Co409 N418 2.022 . S
Co409 N426 1.993 . S
Co409 O434 1.941 . S
C410 O411 1.258 . S
C410 O412 1.263 . S
O411 Co408 1.970 . S
O411 C410 1.258 . S
O412 Co409 1.966 . S
O412 C410 1.263 . S
C413 O414 1.235 . S
C413 O440 1.289 . S
O414 C413 1.235 . S
C415 C417 1.398 . S
C415 N418 1.351 . S
C415 C420 1.501 . S
C416 C417 1.387 . S
C416 N419 1.341 . S
C417 C415 1.398 . S
C417 C416 1.387 . S
N418 Co409 2.022 . S
N418 C415 1.351 . S
N418 N419 1.365 . S
N419 C416 1.341 . S
N419 N418 1.365 . S
N419 H439 0.862 . S
C420 C415 1.501 . S
C420 H421 0.961 . S
C420 H422 0.961 . S
C420 H423 0.960 . S
H421 C420 0.961 . S
H422 C420 0.961 . S
H423 C420 0.960 . S
C424 N425 1.342 . S
C424 C428 1.401 1_554 S
C424 C429 1.499 . S
N425 Co408 1.989 . S
N425 C424 1.342 . S
N425 N426 1.388 . S
N426 Co409 1.993 . S
N426 N425 1.388 . S
N426 C427 1.346 1_554 S
C427 N426 1.346 1_556 S
C427 C428 1.396 . S
C427 C437 1.510 . S
C428 C424 1.401 1_556 S
C428 C427 1.396 . S
C429 C424 1.499 . S
C429 H430 0.959 . S
C429 H431 0.960 1_554 S
C429 H432 0.961 . S
H430 C429 0.959 . S
H431 C429 0.960 1_556 S
H432 C429 0.961 . S
O433 Co408 1.967 . S
O433 C441 1.258 . S
O434 Co409 1.941 . S
O434 C441 1.266 . S
H435 C437 0.959 . S
H436 C437 0.961 . S
C437 C427 1.510 . S
C437 H435 0.959 . S
C437 H436 0.961 . S
C437 H438 0.960 . S
H438 C437 0.960 . S
H439 N419 0.862 . S
O440 Co408 1.920 . S
O440 C413 1.289 . S
C441 O433 1.258 . S
C441 O434 1.266 . S
Co442 O445 1.970 1_545 S
Co442 N459 1.989 . S
Co442 O467 1.967 . S
Co442 O474 1.920 . S
Co443 O446 1.966 . S
Co443 N452 2.022 . S
Co443 N460 1.993 . S
Co443 O468 1.941 . S
C444 O445 1.258 . S
C444 O446 1.263 . S
O445 Co442 1.970 1_565 S
O445 C444 1.258 . S
O446 Co443 1.966 . S
O446 C444 1.263 . S
C447 O448 1.235 . S
C447 O474 1.289 . S
O448 C447 1.235 . S
C449 C451 1.400 . S
C449 N452 1.351 . S
C449 C454 1.501 . S
C450 C451 1.387 . S
C450 N453 1.341 . S
C451 C449 1.400 . S
C451 C450 1.387 . S
N452 Co443 2.022 . S
N452 C449 1.351 . S
N452 N453 1.365 . S
N453 C450 1.341 . S
N453 N452 1.365 . S
N453 H473 0.862 . S
C454 C449 1.501 . S
C454 H455 0.961 . S
C454 H456 0.961 . S
C454 H457 0.960 . S
H455 C454 0.961 . S
H456 C454 0.961 . S
H457 C454 0.960 . S
C458 N459 1.342 . S
C458 C462 1.401 . S
C458 C463 1.499 . S
N459 Co442 1.989 . S
N459 C458 1.342 . S
N459 N460 1.388 1_545 S
N460 Co443 1.993 . S
N460 N459 1.388 1_565 S
N460 C461 1.346 . S
C461 N460 1.346 . S
C461 C462 1.396 1_565 S
C461 C471 1.510 . S
C462 C458 1.401 . S
C462 C461 1.396 1_545 S
C463 C458 1.499 . S
C463 H464 0.959 . S
C463 H465 0.960 . S
C463 H466 0.961 . S
H464 C463 0.959 . S
H465 C463 0.960 . S
H466 C463 0.961 . S
O467 Co442 1.967 . S
O467 C475 1.258 1_545 S
O468 Co443 1.941 . S
O468 C475 1.266 . S
H469 C471 0.959 . S
H470 C471 0.961 . S
C471 C461 1.510 . S
C471 H469 0.959 . S
C471 H470 0.961 . S
C471 H472 0.960 . S
H472 C471 0.960 . S
H473 N453 0.862 . S
O474 Co442 1.920 . S
O474 C447 1.289 . S
C475 O467 1.258 1_565 S
C475 O468 1.266 . S
Co476 O479 1.970 . S
Co476 N493 1.989 . S
Co476 O501 1.967 . S
Co476 O508 1.920 . S
Co477 O480 1.966 . S
Co477 N486 2.022 . S
Co477 N494 1.993 . S
Co477 O502 1.941 . S
C478 O479 1.258 . S
C478 O480 1.263 . S
O479 Co476 1.970 . S
O479 C478 1.258 . S
O480 Co477 1.966 . S
O480 C478 1.263 . S
C481 O482 1.235 . S
C481 O508 1.289 . S
O482 C481 1.235 . S
C483 C485 1.400 . S
C483 N486 1.351 . S
C483 C488 1.501 . S
C484 C485 1.387 . S
C484 N487 1.341 . S
C485 C483 1.400 . S
C485 C484 1.387 . S
N486 Co477 2.022 . S
N486 C483 1.351 . S
N486 N487 1.365 . S
N487 C484 1.341 . S
N487 N486 1.365 . S
N487 H507 0.862 . S
C488 C483 1.501 . S
C488 H489 0.961 . S
C488 H490 0.961 . S
C488 H491 0.960 . S
H489 C488 0.961 . S
H490 C488 0.961 . S
H491 C488 0.960 . S
C492 N493 1.342 . S
C492 C496 1.401 . S
C492 C497 1.499 . S
N493 Co476 1.989 . S
N493 C492 1.342 . S
N493 N494 1.388 . S
N494 Co477 1.993 . S
N494 N493 1.388 . S
N494 C495 1.346 . S
C495 N494 1.346 . S
C495 C496 1.396 . S
C495 C505 1.510 . S
C496 C492 1.401 . S
C496 C495 1.396 . S
C497 C492 1.499 . S
C497 H498 0.959 . S
C497 H499 0.960 . S
C497 H500 0.961 . S
H498 C497 0.959 . S
H499 C497 0.960 . S
H500 C497 0.961 . S
O501 Co476 1.967 . S
O501 C509 1.258 . S
O502 Co477 1.941 . S
O502 C509 1.266 . S
H503 C505 0.959 . S
H504 C505 0.961 . S
C505 C495 1.510 . S
C505 H503 0.959 . S
C505 H504 0.961 . S
C505 H506 0.960 . S
H506 C505 0.960 . S
H507 N487 0.862 . S
O508 Co476 1.920 . S
O508 C481 1.289 . S
C509 O501 1.258 . S
C509 O502 1.266 . S
Co510 O513 1.970 . S
Co510 N527 1.989 . S
Co510 O535 1.967 . S
Co510 O542 1.920 . S
Co511 O514 1.966 . S
Co511 N520 2.022 . S
Co511 N528 1.993 . S
Co511 O536 1.941 . S
C512 O513 1.258 . S
C512 O514 1.263 . S
O513 Co510 1.970 . S
O513 C512 1.258 . S
O514 Co511 1.966 . S
O514 C512 1.263 . S
C515 O516 1.235 . S
C515 O542 1.289 . S
O516 C515 1.235 . S
C517 C519 1.400 . S
C517 N520 1.351 . S
C517 C522 1.501 . S
C518 C519 1.387 . S
C518 N521 1.341 . S
C519 C517 1.400 . S
C519 C518 1.387 . S
N520 Co511 2.022 . S
N520 C517 1.351 . S
N520 N521 1.365 . S
N521 C518 1.341 . S
N521 N520 1.365 . S
N521 H541 0.862 . S
C522 C517 1.501 . S
C522 H523 0.961 . S
C522 H524 0.961 . S
C522 H525 0.960 . S
H523 C522 0.961 . S
H524 C522 0.961 . S
H525 C522 0.960 . S
C526 N527 1.342 . S
C526 C530 1.401 . S
C526 C531 1.499 . S
N527 Co510 1.989 . S
N527 C526 1.342 . S
N527 N528 1.388 . S
N528 Co511 1.993 . S
N528 N527 1.388 . S
N528 C529 1.346 . S
C529 N528 1.346 . S
C529 C530 1.396 . S
C529 C539 1.510 . S
C530 C526 1.401 . S
C530 C529 1.396 . S
C531 C526 1.499 . S
C531 H532 0.959 . S
C531 H533 0.960 . S
C531 H534 0.935 1_545 S
H532 C531 0.959 . S
H533 C531 0.960 . S
H534 C531 0.935 1_565 S
O535 Co510 1.967 . S
O535 C543 1.258 . S
O536 Co511 1.941 . S
O536 C543 1.266 . S
H537 C539 0.959 . S
H538 C539 0.961 . S
C539 C529 1.510 . S
C539 H537 0.959 . S
C539 H538 0.961 . S
C539 H540 0.960 . S
H540 C539 0.960 . S
H541 N521 0.862 . S
O542 Co510 1.920 . S
O542 C515 1.289 . S
C543 O535 1.258 . S
C543 O536 1.266 . S
Co544 O547 1.970 . S
Co544 N561 1.989 . S
Co544 O569 1.967 1_455 S
Co544 O576 1.920 1_455 S
Co545 O548 1.966 . S
Co545 N554 2.022 . S
Co545 N562 1.993 . S
Co545 O570 1.941 1_455 S
C546 O547 1.258 . S
C546 O548 1.263 . S
O547 Co544 1.970 . S
O547 C546 1.258 . S
O548 Co545 1.966 . S
O548 C546 1.263 . S
C549 O550 1.235 . S
C549 O576 1.289 1_456 S
O550 C549 1.235 . S
C551 C553 1.400 . S
C551 N554 1.351 . S
C551 C556 1.501 . S
C552 C553 1.387 . S
C552 N555 1.341 . S
C553 C551 1.400 . S
C553 C552 1.387 . S
N554 Co545 2.022 . S
N554 C551 1.351 . S
N554 N555 1.365 . S
N555 C552 1.341 . S
N555 N554 1.365 . S
N555 H575 0.862 . S
C556 C551 1.501 . S
C556 H557 0.961 . S
C556 H558 0.961 . S
C556 H559 0.960 . S
H557 C556 0.961 . S
H558 C556 0.961 . S
H559 C556 0.960 . S
C560 N561 1.342 . S
C560 C564 1.401 . S
C560 C565 1.499 . S
N561 Co544 1.989 . S
N561 C560 1.342 . S
N561 N562 1.388 . S
N562 Co545 1.993 . S
N562 N561 1.388 . S
N562 C563 1.346 . S
C563 N562 1.346 . S
C563 C564 1.396 . S
C563 C573 1.510 . S
C564 C560 1.401 . S
C564 C563 1.396 . S
C565 C560 1.499 . S
C565 H566 0.959 . S
C565 H567 0.960 . S
C565 H568 0.961 . S
H566 C565 0.959 . S
H567 C565 0.960 . S
H568 C565 0.961 . S
O569 Co544 1.967 1_655 S
O569 C577 1.258 . S
O570 Co545 1.941 1_655 S
O570 C577 1.266 . S
H571 C573 0.959 . S
H572 C573 0.961 . S
C573 C563 1.510 . S
C573 H571 0.959 . S
C573 H572 0.961 . S
C573 H574 0.960 . S
H574 C573 0.960 . S
H575 N555 0.862 . S
O576 Co544 1.920 1_655 S
O576 C549 1.289 1_654 S
C577 O569 1.258 . S
C577 O570 1.266 . S
Co578 O581 1.970 . S
Co578 N595 1.989 . S
Co578 O603 1.967 . S
Co578 O610 1.920 . S
Co579 O582 1.966 1_556 S
Co579 N588 2.022 . S
Co579 N596 1.993 . S
Co579 O604 1.941 . S
C580 O581 1.258 . S
C580 O582 1.263 . S
O581 Co578 1.970 . S
O581 C580 1.258 . S
O582 Co579 1.966 1_554 S
O582 C580 1.263 . S
C583 O584 1.235 . S
C583 O610 1.289 . S
O584 C583 1.235 . S
C585 C587 1.400 . S
C585 N588 1.351 . S
C585 C590 1.501 . S
C586 C587 1.387 . S
C586 N589 1.341 . S
C587 C585 1.400 . S
C587 C586 1.387 . S
N588 Co579 2.022 . S
N588 C585 1.351 . S
N588 N589 1.365 . S
N589 C586 1.341 . S
N589 N588 1.365 . S
N589 H609 0.862 . S
C590 C585 1.501 . S
C590 H591 0.961 . S
C590 H592 0.961 . S
C590 H593 0.960 . S
H591 C590 0.961 . S
H592 C590 0.961 . S
H593 C590 0.960 . S
C594 N595 1.342 . S
C594 C598 1.401 1_554 S
C594 C599 1.499 . S
N595 Co578 1.989 . S
N595 C594 1.342 . S
N595 N596 1.388 1_554 S
N596 Co579 1.993 . S
N596 N595 1.388 1_556 S
N596 C597 1.346 . S
C597 N596 1.346 . S
C597 C598 1.396 . S
C597 C607 1.510 . S
C598 C594 1.401 1_556 S
C598 C597 1.396 . S
C599 C594 1.499 . S
C599 H600 0.959 . S
C599 H601 0.960 . S
C599 H602 0.961 . S
H600 C599 0.959 . S
H601 C599 0.960 . S
H602 C599 0.961 . S
O603 Co578 1.967 . S
O603 C611 1.258 1_554 S
O604 Co579 1.941 . S
O604 C611 1.266 . S
H605 C607 0.959 . S
H606 C607 0.961 . S
C607 C597 1.510 . S
C607 H605 0.959 . S
C607 H606 0.961 . S
C607 H608 0.960 . S
H608 C607 0.960 . S
H609 N589 0.862 . S
O610 Co578 1.920 . S
O610 C583 1.289 . S
C611 O603 1.258 1_556 S
C611 O604 1.266 . S
Co612 O615 1.970 . S
Co612 N629 1.989 . S
Co612 O637 1.967 . S
Co612 O644 1.920 . S
Co613 O616 1.966 . S
Co613 N622 2.022 . S
Co613 N630 1.993 . S
Co613 O638 1.941 . S
C614 O615 1.258 . S
C614 O616 1.263 . S
O615 Co612 1.970 . S
O615 C614 1.258 . S
O616 Co613 1.966 . S
O616 C614 1.263 . S
C617 O618 1.235 . S
C617 O644 1.289 . S
O618 C617 1.235 . S
C619 C621 1.400 . S
C619 N622 1.351 . S
C619 C624 1.501 . S
C620 C621 1.387 . S
C620 N623 1.341 . S
C621 C619 1.400 . S
C621 C620 1.387 . S
N622 Co613 2.022 . S
N622 C619 1.351 . S
N622 N623 1.365 . S
N623 C620 1.341 . S
N623 N622 1.365 . S
N623 H643 0.862 . S
C624 C619 1.501 . S
C624 H625 0.961 . S
C624 H626 0.961 . S
C624 H627 0.960 . S
H625 C624 0.961 . S
H626 C624 0.961 . S
H627 C624 0.960 . S
C628 N629 1.342 . S
C628 C632 1.401 . S
C628 C633 1.499 . S
N629 Co612 1.989 . S
N629 C628 1.342 . S
N629 N630 1.388 . S
N630 Co613 1.993 . S
N630 N629 1.388 . S
N630 C631 1.346 . S
C631 N630 1.346 . S
C631 C632 1.396 . S
C631 C641 1.510 . S
C632 C628 1.401 . S
C632 C631 1.396 . S
C633 C628 1.499 . S
C633 H634 0.959 . S
C633 H635 0.960 . S
C633 H636 0.961 . S
H634 C633 0.959 . S
H635 C633 0.960 . S
H636 C633 0.961 . S
O637 Co612 1.967 . S
O637 C645 1.258 . S
O638 Co613 1.941 . S
O638 C645 1.266 . S
H639 C641 0.959 . S
H640 C641 0.961 . S
C641 C631 1.510 . S
C641 H639 0.959 . S
C641 H640 0.961 . S
C641 H642 0.960 . S
H642 C641 0.960 . S
H643 N623 0.862 . S
O644 Co612 1.920 . S
O644 C617 1.289 . S
C645 O637 1.258 . S
C645 O638 1.266 . S
Co646 O649 1.970 . S
Co646 N663 1.989 . S
Co646 O671 1.967 . S
Co646 O678 1.920 . S
Co647 O650 1.966 . S
Co647 N656 2.022 . S
Co647 N664 1.993 . S
Co647 O672 1.941 . S
C648 O649 1.258 . S
C648 O650 1.263 . S
O649 Co646 1.970 . S
O649 C648 1.258 . S
O650 Co647 1.966 . S
O650 C648 1.263 . S
C651 O652 1.235 . S
C651 O678 1.289 . S
O652 C651 1.235 . S
C653 C655 1.398 . S
C653 N656 1.351 . S
C653 C658 1.501 . S
C654 C655 1.387 . S
C654 N657 1.341 . S
C655 C653 1.398 . S
C655 C654 1.387 . S
N656 Co647 2.022 . S
N656 C653 1.351 . S
N656 N657 1.365 . S
N657 C654 1.341 . S
N657 N656 1.365 . S
N657 H677 0.862 . S
C658 C653 1.501 . S
C658 H659 0.961 . S
C658 H660 0.961 . S
C658 H661 0.960 . S
H659 C658 0.961 . S
H660 C658 0.961 . S
H661 C658 0.960 . S
C662 N663 1.342 . S
C662 C666 1.401 1_455 S
C662 C667 1.499 . S
N663 Co646 1.989 . S
N663 C662 1.342 . S
N663 N664 1.388 . S
N664 Co647 1.993 . S
N664 N663 1.388 . S
N664 C665 1.346 1_455 S
C665 N664 1.346 1_655 S
C665 C666 1.396 . S
C665 C675 1.510 . S
C666 C662 1.401 1_655 S
C666 C665 1.396 . S
C667 C662 1.499 . S
C667 H668 0.959 . S
C667 H669 0.960 1_455 S
C667 H670 0.961 . S
H668 C667 0.959 . S
H669 C667 0.960 1_655 S
H670 C667 0.961 . S
O671 Co646 1.967 . S
O671 C679 1.258 . S
O672 Co647 1.941 . S
O672 C679 1.266 . S
H673 C675 0.959 . S
H674 C675 0.961 . S
C675 C665 1.510 . S
C675 H673 0.959 . S
C675 H674 0.961 . S
C675 H676 0.960 . S
H676 C675 0.960 . S
H677 N657 0.862 . S
O678 Co646 1.920 . S
O678 C651 1.289 . S
C679 O671 1.258 . S
C679 O672 1.266 . S
Co680 O683 1.970 . S
Co680 N697 1.989 . S
Co680 O705 1.967 . S
Co680 O712 1.920 . S
Co681 O684 1.966 . S
Co681 N690 2.022 . S
Co681 N698 1.993 . S
Co681 O706 1.941 . S
C682 O683 1.258 . S
C682 O684 1.263 . S
O683 Co680 1.970 . S
O683 C682 1.258 . S
O684 Co681 1.966 . S
O684 C682 1.263 . S
C685 O686 1.235 . S
C685 O712 1.289 . S
O686 C685 1.235 . S
C687 C689 1.400 . S
C687 N690 1.351 . S
C687 C692 1.501 . S
C688 C689 1.387 . S
C688 N691 1.341 . S
C689 C687 1.400 . S
C689 C688 1.387 . S
N690 Co681 2.022 . S
N690 C687 1.351 . S
N690 N691 1.365 . S
N691 C688 1.341 . S
N691 N690 1.365 . S
N691 H711 0.862 . S
C692 C687 1.501 . S
C692 H693 0.961 . S
C692 H694 0.961 . S
C692 H695 0.960 . S
H693 C692 0.961 . S
H694 C692 0.961 . S
H695 C692 0.960 . S
C696 N697 1.342 . S
C696 C700 1.401 . S
C696 C701 1.499 . S
N697 Co680 1.989 . S
N697 C696 1.342 . S
N697 N698 1.388 . S
N698 Co681 1.993 . S
N698 N697 1.388 . S
N698 C699 1.346 . S
C699 N698 1.346 . S
C699 C700 1.396 . S
C699 C709 1.510 . S
C700 C696 1.401 . S
C700 C699 1.396 . S
C701 C696 1.499 . S
C701 H702 0.959 . S
C701 H703 0.960 . S
C701 H704 0.935 1_455 S
H702 C701 0.959 . S
H703 C701 0.960 . S
H704 C701 0.935 1_655 S
O705 Co680 1.967 . S
O705 C713 1.258 . S
O706 Co681 1.941 . S
O706 C713 1.266 . S
H707 C709 0.959 . S
H708 C709 0.961 . S
C709 C699 1.510 . S
C709 H707 0.959 . S
C709 H708 0.961 . S
C709 H710 0.960 . S
H710 C709 0.960 . S
H711 N691 0.862 . S
O712 Co680 1.920 . S
O712 C685 1.289 . S
C713 O705 1.258 . S
C713 O706 1.266 . S
Co714 O717 1.970 . S
Co714 N731 1.989 . S
Co714 O739 1.967 . S
Co714 O746 1.920 . S
Co715 O718 1.966 . S
Co715 N724 2.022 . S
Co715 N732 1.993 . S
Co715 O740 1.941 . S
C716 O717 1.258 . S
C716 O718 1.263 . S
O717 Co714 1.970 . S
O717 C716 1.258 . S
O718 Co715 1.966 . S
O718 C716 1.263 . S
C719 O720 1.235 . S
C719 O746 1.289 . S
O720 C719 1.235 . S
C721 C723 1.400 . S
C721 N724 1.351 . S
C721 C726 1.501 . S
C722 C723 1.387 . S
C722 N725 1.341 . S
C723 C721 1.400 . S
C723 C722 1.387 . S
N724 Co715 2.022 . S
N724 C721 1.351 . S
N724 N725 1.365 . S
N725 C722 1.341 . S
N725 N724 1.365 . S
N725 H745 0.862 . S
C726 C721 1.501 . S
C726 H727 0.961 . S
C726 H728 0.961 . S
C726 H729 0.960 . S
H727 C726 0.961 . S
H728 C726 0.961 . S
H729 C726 0.960 . S
C730 N731 1.342 . S
C730 C734 1.401 . S
C730 C735 1.499 . S
N731 Co714 1.989 . S
N731 C730 1.342 . S
N731 N732 1.388 . S
N732 Co715 1.993 . S
N732 N731 1.388 . S
N732 C733 1.346 . S
C733 N732 1.346 . S
C733 C734 1.396 . S
C733 C743 1.510 . S
C734 C730 1.401 . S
C734 C733 1.396 . S
C735 C730 1.499 . S
C735 H736 0.959 . S
C735 H737 0.960 . S
C735 H738 0.961 . S
H736 C735 0.959 . S
H737 C735 0.960 . S
H738 C735 0.961 . S
O739 Co714 1.967 . S
O739 C747 1.258 . S
O740 Co715 1.941 . S
O740 C747 1.266 . S
H741 C743 0.959 . S
H742 C743 0.961 . S
C743 C733 1.510 . S
C743 H741 0.959 . S
C743 H742 0.961 . S
C743 H744 0.960 . S
H744 C743 0.960 . S
H745 N725 0.862 . S
O746 Co714 1.920 . S
O746 C719 1.289 . S
C747 O739 1.258 . S
C747 O740 1.266 . S
Co748 O751 1.970 1_455 S
Co748 N765 1.989 . S
Co748 O773 1.967 . S
Co748 O780 1.920 . S
Co749 O752 1.966 . S
Co749 N758 2.022 . S
Co749 N766 1.993 . S
Co749 O774 1.941 . S
C750 O751 1.258 . S
C750 O752 1.263 . S
O751 Co748 1.970 1_655 S
O751 C750 1.258 . S
O752 Co749 1.966 . S
O752 C750 1.263 . S
C753 O754 1.235 . S
C753 O780 1.289 . S
O754 C753 1.235 . S
C755 C757 1.400 . S
C755 N758 1.351 . S
C755 C760 1.501 . S
C756 C757 1.387 . S
C756 N759 1.341 . S
C757 C755 1.400 . S
C757 C756 1.387 . S
N758 Co749 2.022 . S
N758 C755 1.351 . S
N758 N759 1.365 . S
N759 C756 1.341 . S
N759 N758 1.365 . S
N759 H779 0.862 . S
C760 C755 1.501 . S
C760 H761 0.961 . S
C760 H762 0.961 . S
C760 H763 0.960 . S
H761 C760 0.961 . S
H762 C760 0.961 . S
H763 C760 0.960 . S
C764 N765 1.342 . S
C764 C768 1.401 . S
C764 C769 1.499 . S
N765 Co748 1.989 . S
N765 C764 1.342 . S
N765 N766 1.388 1_455 S
N766 Co749 1.993 . S
N766 N765 1.388 1_655 S
N766 C767 1.346 . S
C767 N766 1.346 . S
C767 C768 1.396 1_655 S
C767 C777 1.510 . S
C768 C764 1.401 . S
C768 C767 1.396 1_455 S
C769 C764 1.499 . S
C769 H770 0.959 . S
C769 H771 0.960 . S
C769 H772 0.961 . S
H770 C769 0.959 . S
H771 C769 0.960 . S
H772 C769 0.961 . S
O773 Co748 1.967 . S
O773 C781 1.258 1_455 S
O774 Co749 1.941 . S
O774 C781 1.266 . S
H775 C777 0.959 . S
H776 C777 0.961 . S
C777 C767 1.510 . S
C777 H775 0.959 . S
C777 H776 0.961 . S
C777 H778 0.960 . S
H778 C777 0.960 . S
H779 N759 0.862 . S
O780 Co748 1.920 . S
O780 C753 1.289 . S
C781 O773 1.258 1_655 S
C781 O774 1.266 . S
Co782 O785 1.970 . S
Co782 N799 1.989 . S
Co782 O807 1.967 . S
Co782 O814 1.920 . S
Co783 O786 1.966 . S
Co783 N792 2.022 . S
Co783 N800 1.993 . S
Co783 O808 1.941 . S
C784 O785 1.258 . S
C784 O786 1.263 . S
O785 Co782 1.970 . S
O785 C784 1.258 . S
O786 Co783 1.966 . S
O786 C784 1.263 . S
C787 O788 1.235 . S
C787 O814 1.289 . S
O788 C787 1.235 . S
C789 C791 1.400 . S
C789 N792 1.351 . S
C789 C794 1.501 . S
C790 C791 1.387 . S
C790 N793 1.341 . S
C791 C789 1.400 . S
C791 C790 1.387 . S
N792 Co783 2.022 . S
N792 C789 1.351 . S
N792 N793 1.365 . S
N793 C790 1.341 . S
N793 N792 1.365 . S
N793 H813 0.862 . S
C794 C789 1.501 . S
C794 H795 0.961 . S
C794 H796 0.961 . S
C794 H797 0.960 . S
H795 C794 0.961 . S
H796 C794 0.961 . S
H797 C794 0.960 . S
C798 N799 1.342 . S
C798 C802 1.401 . S
C798 C803 1.499 . S
N799 Co782 1.989 . S
N799 C798 1.342 . S
N799 N800 1.388 . S
N800 Co783 1.993 . S
N800 N799 1.388 . S
N800 C801 1.346 . S
C801 N800 1.346 . S
C801 C802 1.396 . S
C801 C811 1.510 . S
C802 C798 1.401 . S
C802 C801 1.396 . S
C803 C798 1.499 . S
C803 H804 0.959 . S
C803 H805 0.960 . S
C803 H806 0.961 . S
H804 C803 0.959 . S
H805 C803 0.960 . S
H806 C803 0.961 . S
O807 Co782 1.967 . S
O807 C815 1.258 . S
O808 Co783 1.941 . S
O808 C815 1.266 . S
H809 C811 0.959 . S
H810 C811 0.961 . S
C811 C801 1.510 . S
C811 H809 0.959 . S
C811 H810 0.961 . S
C811 H812 0.960 . S
H812 C811 0.960 . S
H813 N793 0.862 . S
O814 Co782 1.920 . S
O814 C787 1.289 . S
C815 O807 1.258 . S
C815 O808 1.266 . S
H816 C822 0.930 . S
H817 C826 0.930 . S
H818 C831 0.929 . S
H819 C829 0.929 . S
H820 C824 0.929 . S
H821 C830 0.929 . S
C822 H816 0.930 . S
C822 C823 1.367 . S
C822 C830 1.378 . S
C823 C822 1.367 . S
C823 C831 1.433 . S
C824 H820 0.929 . S
C824 C826 1.378 . S
C824 C828 1.350 . S
C825 C828 1.463 . S
C825 C830 1.350 . S
C825 N833 1.427 . S
C826 H817 0.930 . S
C826 C824 1.378 . S
C826 C827 1.367 . S
C827 C826 1.367 . S
C827 C829 1.433 . S
C828 C824 1.350 . S
C828 C825 1.463 . S
C828 N832 1.427 . S
C829 H819 0.929 . S
C829 C827 1.433 . S
C829 N832 1.384 . S
C830 H821 0.929 . S
C830 C822 1.378 . S
C830 C825 1.350 . S
C831 H818 0.929 . S
C831 C823 1.433 . S
C831 N833 1.384 . S
N832 C828 1.427 . S
N832 C829 1.384 . S
N833 C825 1.427 . S
N833 C831 1.384 . S
H834 C840 0.930 . S
H835 C844 0.930 . S
H836 C849 0.929 . S
H837 C847 0.929 . S
H838 C842 0.923 1_554 S
H839 C848 0.929 . S
C840 H834 0.930 . S
C840 C841 1.367 . S
C840 C848 1.378 . S
C841 C840 1.367 . S
C841 C849 1.433 . S
C842 H838 0.923 1_556 S
C842 C844 1.372 1_556 S
C842 C846 1.363 . S
C843 C846 1.463 . S
C843 C848 1.350 . S
C843 N851 1.427 . S
C844 H835 0.930 . S
C844 C842 1.372 1_554 S
C844 C845 1.359 1_554 S
C845 C844 1.359 1_556 S
C845 C847 1.451 . S
C846 C842 1.363 . S
C846 C843 1.463 . S
C846 N850 1.427 . S
C847 H837 0.929 . S
C847 C845 1.451 . S
C847 N850 1.384 . S
C848 H839 0.929 . S
C848 C840 1.378 . S
C848 C843 1.350 . S
C849 H836 0.929 . S
C849 C841 1.433 . S
C849 N851 1.384 . S
N850 C846 1.427 . S
N850 C847 1.384 . S
N851 C843 1.427 . S
N851 C849 1.384 . S
H852 C858 0.930 . S
H853 C862 0.930 . S
H854 C867 0.929 . S
H855 C865 0.929 . S
H856 C860 0.929 . S
H857 C866 0.929 . S
C858 H852 0.930 . S
C858 C859 1.367 . S
C858 C866 1.378 . S
C859 C858 1.367 . S
C859 C867 1.433 . S
C860 H856 0.929 . S
C860 C862 1.378 . S
C860 C864 1.350 . S
C861 C864 1.463 . S
C861 C866 1.350 . S
C861 N869 1.427 . S
C862 H853 0.930 . S
C862 C860 1.378 . S
C862 C863 1.367 . S
C863 C862 1.367 . S
C863 C865 1.433 . S
C864 C860 1.350 . S
C864 C861 1.463 . S
C864 N868 1.427 . S
C865 H855 0.929 . S
C865 C863 1.433 . S
C865 N868 1.384 . S
C866 H857 0.929 . S
C866 C858 1.378 . S
C866 C861 1.350 . S
C867 H854 0.929 . S
C867 C859 1.433 . S
C867 N869 1.384 . S
N868 C864 1.427 . S
N868 C865 1.384 . S
N869 C861 1.427 . S
N869 C867 1.384 . S
H870 C876 0.930 . S
H871 C880 0.930 . S
H872 C885 0.929 . S
H873 C883 0.929 . S
H874 C878 0.929 . S
H875 C884 0.929 . S
C876 H870 0.930 . S
C876 C877 1.367 . S
C876 C884 1.378 . S
C877 C876 1.367 . S
C877 C885 1.433 . S
C878 H874 0.929 . S
C878 C880 1.378 . S
C878 C882 1.350 . S
C879 C882 1.463 . S
C879 C884 1.350 . S
C879 N887 1.427 . S
C880 H871 0.930 . S
C880 C878 1.378 . S
C880 C881 1.367 . S
C881 C880 1.367 . S
C881 C883 1.433 . S
C882 C878 1.350 . S
C882 C879 1.463 . S
C882 N886 1.427 . S
C883 H873 0.929 . S
C883 C881 1.433 . S
C883 N886 1.384 . S
C884 H875 0.929 . S
C884 C876 1.378 . S
C884 C879 1.350 . S
C885 H872 0.929 . S
C885 C877 1.433 . S
C885 N887 1.384 . S
N886 C882 1.427 . S
N886 C883 1.384 . S
N887 C879 1.427 . S
N887 C885 1.384 . S
H888 C894 0.930 . S
H889 C898 0.930 . S
H890 C903 0.929 . S
H891 C901 0.929 . S
H892 C896 0.929 . S
H893 C902 0.929 . S
C894 H888 0.930 . S
C894 C895 1.367 . S
C894 C902 1.378 . S
C895 C894 1.367 . S
C895 C903 1.433 . S
C896 H892 0.929 . S
C896 C898 1.378 . S
C896 C900 1.350 . S
C897 C900 1.463 . S
C897 C902 1.350 . S
C897 N905 1.427 . S
C898 H889 0.930 . S
C898 C896 1.378 . S
C898 C899 1.367 . S
C899 C898 1.367 . S
C899 C901 1.433 . S
C900 C896 1.350 . S
C900 C897 1.463 . S
C900 N904 1.427 . S
C901 H891 0.929 . S
C901 C899 1.433 . S
C901 N904 1.384 . S
C902 H893 0.929 . S
C902 C894 1.378 . S
C902 C897 1.350 . S
C903 H890 0.929 . S
C903 C895 1.433 . S
C903 N905 1.384 . S
N904 C900 1.427 . S
N904 C901 1.384 . S
N905 C897 1.427 . S
N905 C903 1.384 . S
H906 C912 0.930 . S
H907 C916 0.930 . S
H908 C921 0.929 . S
H909 C919 0.929 . S
H910 C914 0.929 . S
H911 C920 0.929 . S
C912 H906 0.930 . S
C912 C913 1.367 . S
C912 C920 1.378 . S
C913 C912 1.367 . S
C913 C921 1.433 . S
C914 H910 0.929 . S
C914 C916 1.378 . S
C914 C918 1.350 . S
C915 C918 1.463 . S
C915 C920 1.350 . S
C915 N923 1.427 . S
C916 H907 0.930 . S
C916 C914 1.378 . S
C916 C917 1.367 . S
C917 C916 1.367 . S
C917 C919 1.433 . S
C918 C914 1.350 . S
C918 C915 1.463 . S
C918 N922 1.427 . S
C919 H909 0.929 . S
C919 C917 1.433 . S
C919 N922 1.384 . S
C920 H911 0.929 . S
C920 C912 1.378 . S
C920 C915 1.350 . S
C921 H908 0.929 . S
C921 C913 1.433 . S
C921 N923 1.384 . S
N922 C918 1.427 . S
N922 C919 1.384 . S
N923 C915 1.427 . S
N923 C921 1.384 . S
H924 C930 0.930 . S
H925 C934 0.930 . S
H926 C939 0.929 . S
H927 C937 0.929 1_455 S
H928 C932 0.929 . S
H929 C938 0.929 . S
C930 H924 0.930 . S
C930 C931 1.349 1_455 S
C930 C938 1.378 . S
C931 C930 1.349 1_655 S
C931 C939 1.458 . S
C932 H928 0.929 . S
C932 C934 1.378 . S
C932 C936 1.350 . S
C933 C936 1.463 . S
C933 C938 1.350 1_655 S
C933 N941 1.427 . S
C934 H925 0.930 . S
C934 C932 1.378 . S
C934 C935 1.367 . S
C935 C934 1.367 . S
C935 C937 1.433 . S
C936 C932 1.350 . S
C936 C933 1.463 . S
C936 N940 1.427 . S
C937 H927 0.929 1_655 S
C937 C935 1.433 . S
C937 N940 1.384 . S
C938 H929 0.929 . S
C938 C930 1.378 . S
C938 C933 1.350 1_455 S
C939 H926 0.929 . S
C939 C931 1.458 . S
C939 N941 1.384 . S
N940 C936 1.427 . S
N940 C937 1.384 . S
N941 C933 1.427 . S
N941 C939 1.384 . S
H942 C948 0.930 . S
H943 C952 0.930 . S
H944 C957 0.929 . S
H945 C955 0.929 . S
H946 C950 0.929 . S
H947 C956 0.929 . S
C948 H942 0.930 . S
C948 C949 1.367 . S
C948 C956 1.378 . S
C949 C948 1.367 . S
C949 C957 1.433 . S
C950 H946 0.929 . S
C950 C952 1.378 . S
C950 C954 1.350 . S
C951 C954 1.463 . S
C951 C956 1.350 . S
C951 N959 1.427 . S
C952 H943 0.930 . S
C952 C950 1.378 . S
C952 C953 1.367 . S
C953 C952 1.367 . S
C953 C955 1.433 . S
C954 C950 1.350 . S
C954 C951 1.463 . S
C954 N958 1.427 . S
C955 H945 0.929 . S
C955 C953 1.433 . S
C955 N958 1.384 . S
C956 H947 0.929 . S
C956 C948 1.378 . S
C956 C951 1.350 . S
C957 H944 0.929 . S
C957 C949 1.433 . S
C957 N959 1.384 . S
N958 C954 1.427 . S
N958 C955 1.384 . S
N959 C951 1.427 . S
N959 C957 1.384 . S
H960 C966 0.930 . S
H961 C970 0.930 . S
H962 C975 0.929 . S
H963 C973 0.929 . S
H964 C968 0.929 . S
H965 C974 0.929 . S
C966 H960 0.930 . S
C966 C967 1.367 . S
C966 C974 1.378 . S
C967 C966 1.367 . S
C967 C975 1.433 . S
C968 H964 0.929 . S
C968 C970 1.378 . S
C968 C972 1.350 . S
C969 C972 1.463 . S
C969 C974 1.350 . S
C969 N977 1.427 . S
C970 H961 0.930 . S
C970 C968 1.378 . S
C970 C971 1.367 . S
C971 C970 1.367 . S
C971 C973 1.433 . S
C972 C968 1.350 . S
C972 C969 1.463 . S
C972 N976 1.427 . S
C973 H963 0.929 . S
C973 C971 1.433 . S
C973 N976 1.384 . S
C974 H965 0.929 . S
C974 C966 1.378 . S
C974 C969 1.350 . S
C975 H962 0.929 . S
C975 C967 1.433 . S
C975 N977 1.384 . S
N976 C972 1.427 . S
N976 C973 1.384 . S
N977 C969 1.427 . S
N977 C975 1.384 . S
H978 C984 0.930 . S
H979 C988 0.930 . S
H980 C993 0.929 . S
H981 C991 0.929 . S
H982 C986 0.929 . S
H983 C992 0.929 . S
C984 H978 0.930 . S
C984 C985 1.367 . S
C984 C992 1.378 . S
C985 C984 1.367 . S
C985 C993 1.433 . S
C986 H982 0.929 . S
C986 C988 1.378 . S
C986 C990 1.350 . S
C987 C990 1.463 . S
C987 C992 1.350 . S
C987 N995 1.427 . S
C988 H979 0.930 . S
C988 C986 1.378 . S
C988 C989 1.367 . S
C989 C988 1.367 . S
C989 C991 1.433 . S
C990 C986 1.350 . S
C990 C987 1.463 . S
C990 N994 1.427 . S
C991 H981 0.929 . S
C991 C989 1.433 . S
C991 N994 1.384 . S
C992 H983 0.929 . S
C992 C984 1.378 . S
C992 C987 1.350 . S
C993 H980 0.929 . S
C993 C985 1.433 . S
C993 N995 1.384 . S
N994 C990 1.427 . S
N994 C991 1.384 . S
N995 C987 1.427 . S
N995 C993 1.384 . S
H996 C1002 0.918 1_545 S
H997 C1006 0.930 . S
H998 C1011 0.929 . S
H999 C1009 0.929 . S
H1000 C1004 0.929 . S
H1001 C1010 0.929 . S
C1002 H996 0.918 1_565 S
C1002 C1003 1.382 . S
C1002 C1010 1.375 1_565 S
C1003 C1002 1.382 . S
C1003 C1011 1.433 . S
C1004 H1000 0.929 . S
C1004 C1006 1.378 . S
C1004 C1008 1.350 . S
C1005 C1008 1.463 . S
C1005 C1010 1.350 1_565 S
C1005 N1013 1.427 . S
C1006 H997 0.930 . S
C1006 C1004 1.378 . S
C1006 C1007 1.367 . S
C1007 C1006 1.367 . S
C1007 C1009 1.433 1_565 S
C1008 C1004 1.350 . S
C1008 C1005 1.463 . S
C1008 N1012 1.427 1_565 S
C1009 H999 0.929 . S
C1009 C1007 1.433 1_545 S
C1009 N1012 1.384 . S
C1010 H1001 0.929 . S
C1010 C1002 1.375 1_545 S
C1010 C1005 1.350 1_545 S
C1011 H998 0.929 . S
C1011 C1003 1.433 . S
C1011 N1013 1.384 . S
N1012 C1008 1.427 1_545 S
N1012 C1009 1.384 . S
N1013 C1005 1.427 . S
N1013 C1011 1.384 . S
H1014 C1020 0.930 . S
H1015 C1024 0.930 . S
H1016 C1029 0.929 . S
H1017 C1027 0.929 . S
H1018 C1022 0.929 . S
H1019 C1028 0.929 . S
C1020 H1014 0.930 . S
C1020 C1021 1.367 . S
C1020 C1028 1.378 . S
C1021 C1020 1.367 . S
C1021 C1029 1.433 . S
C1022 H1018 0.929 . S
C1022 C1024 1.378 . S
C1022 C1026 1.350 . S
C1023 C1026 1.463 . S
C1023 C1028 1.350 . S
C1023 N1031 1.427 . S
C1024 H1015 0.930 . S
C1024 C1022 1.378 . S
C1024 C1025 1.367 . S
C1025 C1024 1.367 . S
C1025 C1027 1.433 . S
C1026 C1022 1.350 . S
C1026 C1023 1.463 . S
C1026 N1030 1.427 . S
C1027 H1017 0.929 . S
C1027 C1025 1.433 . S
C1027 N1030 1.384 . S
C1028 H1019 0.929 . S
C1028 C1020 1.378 . S
C1028 C1023 1.350 . S
C1029 H1016 0.929 . S
C1029 C1021 1.433 . S
C1029 N1031 1.384 . S
N1030 C1026 1.427 . S
N1030 C1027 1.384 . S
N1031 C1023 1.427 . S
N1031 C1029 1.384 . S
H1032 C1038 0.930 . S
H1033 C1042 0.930 . S
H1034 C1047 0.929 . S
H1035 C1045 0.929 . S
H1036 C1040 0.929 . S
H1037 C1046 0.929 . S
C1038 H1032 0.930 . S
C1038 C1039 1.367 . S
C1038 C1046 1.378 . S
C1039 C1038 1.367 . S
C1039 C1047 1.433 . S
C1040 H1036 0.929 . S
C1040 C1042 1.378 . S
C1040 C1044 1.350 . S
C1041 C1044 1.463 . S
C1041 C1046 1.350 . S
C1041 N1049 1.427 . S
C1042 H1033 0.930 . S
C1042 C1040 1.378 . S
C1042 C1043 1.367 . S
C1043 C1042 1.367 . S
C1043 C1045 1.433 . S
C1044 C1040 1.350 . S
C1044 C1041 1.463 . S
C1044 N1048 1.427 . S
C1045 H1035 0.929 . S
C1045 C1043 1.433 . S
C1045 N1048 1.384 . S
C1046 H1037 0.929 . S
C1046 C1038 1.378 . S
C1046 C1041 1.350 . S
C1047 H1034 0.929 . S
C1047 C1039 1.433 . S
C1047 N1049 1.384 . S
N1048 C1044 1.427 . S
N1048 C1045 1.384 . S
N1049 C1041 1.427 . S
N1049 C1047 1.384 . S
H1050 C1056 0.930 . S
H1051 C1060 0.930 . S
H1052 C1065 0.929 . S
H1053 C1063 0.929 . S
H1054 C1058 0.929 . S
H1055 C1064 0.929 . S
C1056 H1050 0.930 . S
C1056 C1057 1.367 . S
C1056 C1064 1.378 . S
C1057 C1056 1.367 . S
C1057 C1065 1.433 . S
C1058 H1054 0.929 . S
C1058 C1060 1.378 . S
C1058 C1062 1.350 . S
C1059 C1062 1.463 . S
C1059 C1064 1.350 . S
C1059 N1067 1.427 . S
C1060 H1051 0.930 . S
C1060 C1058 1.378 . S
C1060 C1061 1.367 . S
C1061 C1060 1.367 . S
C1061 C1063 1.433 . S
C1062 C1058 1.350 . S
C1062 C1059 1.463 . S
C1062 N1066 1.427 . S
C1063 H1053 0.929 . S
C1063 C1061 1.433 . S
C1063 N1066 1.384 . S
C1064 H1055 0.929 . S
C1064 C1056 1.378 . S
C1064 C1059 1.350 . S
C1065 H1052 0.929 . S
C1065 C1057 1.433 . S
C1065 N1067 1.384 . S
N1066 C1062 1.427 . S
N1066 C1063 1.384 . S
N1067 C1059 1.427 . S
N1067 C1065 1.384 . S
H1068 C1074 0.930 . S
H1069 C1078 0.930 . S
H1070 C1083 0.929 . S
H1071 C1081 0.929 . S
H1072 C1076 0.929 . S
H1073 C1082 0.929 . S
C1074 H1068 0.930 . S
C1074 C1075 1.367 . S
C1074 C1082 1.378 . S
C1075 C1074 1.367 . S
C1075 C1083 1.433 . S
C1076 H1072 0.929 . S
C1076 C1078 1.378 . S
C1076 C1080 1.350 . S
C1077 C1080 1.463 . S
C1077 C1082 1.350 . S
C1077 N1085 1.427 . S
C1078 H1069 0.930 . S
C1078 C1076 1.378 . S
C1078 C1079 1.367 . S
C1079 C1078 1.367 . S
C1079 C1081 1.433 . S
C1080 C1076 1.350 . S
C1080 C1077 1.463 . S
C1080 N1084 1.427 . S
C1081 H1071 0.929 . S
C1081 C1079 1.433 . S
C1081 N1084 1.384 . S
C1082 H1073 0.929 . S
C1082 C1074 1.378 . S
C1082 C1077 1.350 . S
C1083 H1070 0.929 . S
C1083 C1075 1.433 . S
C1083 N1085 1.384 . S
N1084 C1080 1.427 . S
N1084 C1081 1.384 . S
N1085 C1077 1.427 . S
N1085 C1083 1.384 . S
H1086 C1092 0.930 . S
H1087 C1096 0.930 . S
H1088 C1101 0.929 . S
H1089 C1099 0.929 . S
H1090 C1094 0.929 . S
H1091 C1100 0.929 . S
C1092 H1086 0.930 . S
C1092 C1093 1.367 . S
C1092 C1100 1.378 . S
C1093 C1092 1.367 . S
C1093 C1101 1.433 . S
C1094 H1090 0.929 . S
C1094 C1096 1.378 . S
C1094 C1098 1.350 . S
C1095 C1098 1.463 . S
C1095 C1100 1.350 . S
C1095 N1103 1.427 . S
C1096 H1087 0.930 . S
C1096 C1094 1.378 . S
C1096 C1097 1.367 . S
C1097 C1096 1.367 . S
C1097 C1099 1.433 . S
C1098 C1094 1.350 . S
C1098 C1095 1.463 . S
C1098 N1102 1.427 . S
C1099 H1089 0.929 . S
C1099 C1097 1.433 . S
C1099 N1102 1.384 . S
C1100 H1091 0.929 . S
C1100 C1092 1.378 . S
C1100 C1095 1.350 . S
C1101 H1088 0.929 . S
C1101 C1093 1.433 . S
C1101 N1103 1.384 . S
N1102 C1098 1.427 . S
N1102 C1099 1.384 . S
N1103 C1095 1.427 . S
N1103 C1101 1.384 . S
H1104 C1110 0.930 . S
H1105 C1114 0.930 . S
H1106 C1119 0.929 . S
H1107 C1117 0.929 . S
H1108 C1112 0.929 . S
H1109 C1118 0.929 . S
C1110 H1104 0.930 . S
C1110 C1111 1.367 . S
C1110 C1118 1.378 . S
C1111 C1110 1.367 . S
C1111 C1119 1.433 . S
C1112 H1108 0.929 . S
C1112 C1114 1.378 . S
C1112 C1116 1.350 . S
C1113 C1116 1.463 . S
C1113 C1118 1.350 . S
C1113 N1121 1.427 . S
C1114 H1105 0.930 . S
C1114 C1112 1.378 . S
C1114 C1115 1.367 . S
C1115 C1114 1.367 . S
C1115 C1117 1.433 . S
C1116 C1112 1.350 . S
C1116 C1113 1.463 . S
C1116 N1120 1.427 . S
C1117 H1107 0.929 . S
C1117 C1115 1.433 . S
C1117 N1120 1.384 . S
C1118 H1109 0.929 . S
C1118 C1110 1.378 . S
C1118 C1113 1.350 . S
C1119 H1106 0.929 . S
C1119 C1111 1.433 . S
C1119 N1121 1.384 . S
N1120 C1116 1.427 . S
N1120 C1117 1.384 . S
N1121 C1113 1.427 . S
N1121 C1119 1.384 . S
H1122 C1128 0.930 . S
H1123 C1132 0.930 . S
H1124 C1137 0.929 . S
H1125 C1135 0.929 . S
H1126 C1130 0.929 . S
H1127 C1136 0.929 . S
C1128 H1122 0.930 . S
C1128 C1129 1.367 . S
C1128 C1136 1.378 . S
C1129 C1128 1.367 . S
C1129 C1137 1.433 . S
C1130 H1126 0.929 . S
C1130 C1132 1.378 . S
C1130 C1134 1.350 . S
C1131 C1134 1.463 . S
C1131 C1136 1.350 . S
C1131 N1139 1.427 . S
C1132 H1123 0.930 . S
C1132 C1130 1.378 . S
C1132 C1133 1.367 . S
C1133 C1132 1.367 . S
C1133 C1135 1.433 . S
C1134 C1130 1.350 . S
C1134 C1131 1.463 . S
C1134 N1138 1.427 . S
C1135 H1125 0.929 . S
C1135 C1133 1.433 . S
C1135 N1138 1.384 . S
C1136 H1127 0.929 . S
C1136 C1128 1.378 . S
C1136 C1131 1.350 . S
C1137 H1124 0.929 . S
C1137 C1129 1.433 . S
C1137 N1139 1.384 . S
N1138 C1134 1.427 . S
N1138 C1135 1.384 . S
N1139 C1131 1.427 . S
N1139 C1137 1.384 . S
H1140 C1146 0.930 1_455 S
H1141 C1150 0.930 . S
H1142 C1155 0.929 . S
H1143 C1153 0.929 . S
H1144 C1148 0.929 . S
H1145 C1154 0.929 . S
C1146 H1140 0.930 1_655 S
C1146 C1147 1.367 1_556 S
C1146 C1154 1.378 . S
C1147 C1146 1.367 1_554 S
C1147 C1155 1.433 . S
C1148 H1144 0.929 . S
C1148 C1150 1.378 . S
C1148 C1152 1.350 . S
C1149 C1152 1.463 . S
C1149 C1154 1.350 . S
C1149 N1157 1.427 1_556 S
C1150 H1141 0.930 . S
C1150 C1148 1.378 . S
C1150 C1151 1.367 . S
C1151 C1150 1.367 . S
C1151 C1153 1.433 . S
C1152 C1148 1.350 . S
C1152 C1149 1.463 . S
C1152 N1156 1.427 . S
C1153 H1143 0.929 . S
C1153 C1151 1.433 . S
C1153 N1156 1.384 . S
C1154 H1145 0.929 . S
C1154 C1146 1.378 . S
C1154 C1149 1.350 . S
C1155 H1142 0.929 . S
C1155 C1147 1.433 . S
C1155 N1157 1.384 . S
N1156 C1152 1.427 . S
N1156 C1153 1.384 . S
N1157 C1149 1.427 1_554 S
N1157 C1155 1.384 . S
H1158 C1164 0.930 . S
H1159 C1168 0.930 . S
H1160 C1173 0.929 . S
H1161 C1171 0.929 . S
H1162 C1166 0.929 . S
H1163 C1172 0.929 . S
C1164 H1158 0.930 . S
C1164 C1165 1.367 . S
C1164 C1172 1.378 . S
C1165 C1164 1.367 . S
C1165 C1173 1.433 . S
C1166 H1162 0.929 . S
C1166 C1168 1.378 . S
C1166 C1170 1.350 . S
C1167 C1170 1.463 . S
C1167 C1172 1.350 . S
C1167 N1175 1.427 . S
C1168 H1159 0.930 . S
C1168 C1166 1.378 . S
C1168 C1169 1.367 . S
C1169 C1168 1.367 . S
C1169 C1171 1.433 . S
C1170 C1166 1.350 . S
C1170 C1167 1.463 . S
C1170 N1174 1.427 . S
C1171 H1161 0.929 . S
C1171 C1169 1.433 . S
C1171 N1174 1.384 . S
C1172 H1163 0.929 . S
C1172 C1164 1.378 . S
C1172 C1167 1.350 . S
C1173 H1160 0.929 . S
C1173 C1165 1.433 . S
C1173 N1175 1.384 . S
N1174 C1170 1.427 . S
N1174 C1171 1.384 . S
N1175 C1167 1.427 . S
N1175 C1173 1.384 . S
H1176 C1182 0.930 . S
H1177 C1186 0.930 . S
H1178 C1191 0.929 . S
H1179 C1189 0.929 . S
H1180 C1184 0.929 . S
H1181 C1190 0.929 . S
C1182 H1176 0.930 . S
C1182 C1183 1.367 . S
C1182 C1190 1.378 . S
C1183 C1182 1.367 . S
C1183 C1191 1.433 . S
C1184 H1180 0.929 . S
C1184 C1186 1.378 . S
C1184 C1188 1.350 . S
C1185 C1188 1.463 . S
C1185 C1190 1.350 . S
C1185 N1193 1.427 . S
C1186 H1177 0.930 . S
C1186 C1184 1.378 . S
C1186 C1187 1.367 . S
C1187 C1186 1.367 . S
C1187 C1189 1.433 . S
C1188 C1184 1.350 . S
C1188 C1185 1.463 . S
C1188 N1192 1.427 . S
C1189 H1179 0.929 . S
C1189 C1187 1.433 . S
C1189 N1192 1.384 . S
C1190 H1181 0.929 . S
C1190 C1182 1.378 . S
C1190 C1185 1.350 . S
C1191 H1178 0.929 . S
C1191 C1183 1.433 . S
C1191 N1193 1.384 . S
N1192 C1188 1.427 . S
N1192 C1189 1.384 . S
N1193 C1185 1.427 . S
N1193 C1191 1.384 . S
H1194 C1200 0.930 . S
H1195 C1204 0.930 . S
H1196 C1209 0.929 . S
H1197 C1207 0.929 . S
H1198 C1202 0.929 . S
H1199 C1208 0.929 . S
C1200 H1194 0.930 . S
C1200 C1201 1.367 . S
C1200 C1208 1.378 . S
C1201 C1200 1.367 . S
C1201 C1209 1.433 . S
C1202 H1198 0.929 . S
C1202 C1204 1.378 . S
C1202 C1206 1.350 . S
C1203 C1206 1.463 . S
C1203 C1208 1.350 . S
C1203 N1211 1.427 . S
C1204 H1195 0.930 . S
C1204 C1202 1.378 . S
C1204 C1205 1.367 . S
C1205 C1204 1.367 . S
C1205 C1207 1.433 . S
C1206 C1202 1.350 . S
C1206 C1203 1.463 . S
C1206 N1210 1.427 . S
C1207 H1197 0.929 . S
C1207 C1205 1.433 . S
C1207 N1210 1.384 . S
C1208 H1199 0.929 . S
C1208 C1200 1.378 . S
C1208 C1203 1.350 . S
C1209 H1196 0.929 . S
C1209 C1201 1.433 . S
C1209 N1211 1.384 . S
N1210 C1206 1.427 . S
N1210 C1207 1.384 . S
N1211 C1203 1.427 . S
N1211 C1209 1.384 . S
H1212 C1218 0.930 . S
H1213 C1222 0.930 . S
H1214 C1227 0.929 . S
H1215 C1225 0.929 . S
H1216 C1220 0.929 . S
H1217 C1226 0.929 . S
C1218 H1212 0.930 . S
C1218 C1219 1.367 . S
C1218 C1226 1.378 . S
C1219 C1218 1.367 . S
C1219 C1227 1.433 . S
C1220 H1216 0.929 . S
C1220 C1222 1.378 . S
C1220 C1224 1.350 . S
C1221 C1224 1.463 . S
C1221 C1226 1.350 . S
C1221 N1229 1.427 . S
C1222 H1213 0.930 . S
C1222 C1220 1.378 . S
C1222 C1223 1.367 1_655 S
C1223 C1222 1.367 1_455 S
C1223 C1225 1.433 . S
C1224 C1220 1.350 . S
C1224 C1221 1.463 . S
C1224 N1228 1.427 1_655 S
C1225 H1215 0.929 . S
C1225 C1223 1.433 . S
C1225 N1228 1.384 . S
C1226 H1217 0.929 . S
C1226 C1218 1.378 . S
C1226 C1221 1.350 . S
C1227 H1214 0.929 . S
C1227 C1219 1.433 . S
C1227 N1229 1.384 . S
N1228 C1224 1.427 1_455 S
N1228 C1225 1.384 . S
N1229 C1221 1.427 . S
N1229 C1227 1.384 . S
H1230 C1236 0.930 . S
H1231 C1240 0.930 . S
H1232 C1245 0.929 . S
H1233 C1243 0.929 . S
H1234 C1238 0.929 . S
H1235 C1244 0.929 . S
C1236 H1230 0.930 . S
C1236 C1237 1.367 . S
C1236 C1244 1.378 . S
C1237 C1236 1.367 . S
C1237 C1245 1.433 . S
C1238 H1234 0.929 . S
C1238 C1240 1.378 . S
C1238 C1242 1.350 . S
C1239 C1242 1.463 . S
C1239 C1244 1.350 . S
C1239 N1247 1.427 . S
C1240 H1231 0.930 . S
C1240 C1238 1.378 . S
C1240 C1241 1.367 . S
C1241 C1240 1.367 . S
C1241 C1243 1.433 . S
C1242 C1238 1.350 . S
C1242 C1239 1.463 . S
C1242 N1246 1.427 . S
C1243 H1233 0.929 . S
C1243 C1241 1.433 . S
C1243 N1246 1.384 . S
C1244 H1235 0.929 . S
C1244 C1236 1.378 . S
C1244 C1239 1.350 . S
C1245 H1232 0.929 . S
C1245 C1237 1.433 . S
C1245 N1247 1.384 . S
N1246 C1242 1.427 . S
N1246 C1243 1.384 . S
N1247 C1239 1.427 . S
N1247 C1245 1.384 . S
H1248 C1254 0.930 . S
H1249 C1258 0.930 . S
H1250 C1263 0.929 . S
H1251 C1261 0.929 . S
H1252 C1256 0.929 . S
H1253 C1262 0.929 . S
C1254 H1248 0.930 . S
C1254 C1255 1.367 . S
C1254 C1262 1.378 . S
C1255 C1254 1.367 . S
C1255 C1263 1.433 . S
C1256 H1252 0.929 . S
C1256 C1258 1.378 . S
C1256 C1260 1.350 . S
C1257 C1260 1.463 . S
C1257 C1262 1.350 . S
C1257 N1265 1.427 . S
C1258 H1249 0.930 . S
C1258 C1256 1.378 . S
C1258 C1259 1.367 . S
C1259 C1258 1.367 . S
C1259 C1261 1.433 . S
C1260 C1256 1.350 . S
C1260 C1257 1.463 . S
C1260 N1264 1.427 . S
C1261 H1251 0.929 . S
C1261 C1259 1.433 . S
C1261 N1264 1.384 . S
C1262 H1253 0.929 . S
C1262 C1254 1.378 . S
C1262 C1257 1.350 . S
C1263 H1250 0.929 . S
C1263 C1255 1.433 . S
C1263 N1265 1.384 . S
N1264 C1260 1.427 . S
N1264 C1261 1.384 . S
N1265 C1257 1.427 . S
N1265 C1263 1.384 . S
H1266 C1272 0.930 . S
H1267 C1276 0.930 . S
H1268 C1281 0.929 . S
H1269 C1279 0.929 . S
H1270 C1274 0.929 . S
H1271 C1280 0.929 . S
C1272 H1266 0.930 . S
C1272 C1273 1.367 . S
C1272 C1280 1.378 . S
C1273 C1272 1.367 . S
C1273 C1281 1.433 . S
C1274 H1270 0.929 . S
C1274 C1276 1.378 . S
C1274 C1278 1.350 . S
C1275 C1278 1.463 . S
C1275 C1280 1.350 . S
C1275 N1283 1.427 . S
C1276 H1267 0.930 . S
C1276 C1274 1.378 . S
C1276 C1277 1.367 . S
C1277 C1276 1.367 . S
C1277 C1279 1.433 . S
C1278 C1274 1.350 . S
C1278 C1275 1.463 . S
C1278 N1282 1.427 . S
C1279 H1269 0.929 . S
C1279 C1277 1.433 . S
C1279 N1282 1.384 . S
C1280 H1271 0.929 . S
C1280 C1272 1.378 . S
C1280 C1275 1.350 . S
C1281 H1268 0.929 . S
C1281 C1273 1.433 . S
C1281 N1283 1.384 . S
N1282 C1278 1.427 . S
N1282 C1279 1.384 . S
N1283 C1275 1.427 . S
N1283 C1281 1.384 . S
H1284 C1290 0.930 . S
H1285 C1294 0.930 . S
H1286 C1299 0.929 . S
H1287 C1297 0.929 . S
H1288 C1292 0.929 . S
H1289 C1298 0.929 . S
C1290 H1284 0.930 . S
C1290 C1291 1.367 . S
C1290 C1298 1.378 . S
C1291 C1290 1.367 . S
C1291 C1299 1.433 . S
C1292 H1288 0.929 . S
C1292 C1294 1.378 . S
C1292 C1296 1.350 . S
C1293 C1296 1.463 . S
C1293 C1298 1.350 . S
C1293 N1301 1.427 . S
C1294 H1285 0.930 . S
C1294 C1292 1.378 . S
C1294 C1295 1.367 . S
C1295 C1294 1.367 . S
C1295 C1297 1.433 . S
C1296 C1292 1.350 . S
C1296 C1293 1.463 . S
C1296 N1300 1.427 . S
C1297 H1287 0.929 . S
C1297 C1295 1.433 . S
C1297 N1300 1.384 . S
C1298 H1289 0.929 . S
C1298 C1290 1.378 . S
C1298 C1293 1.350 . S
C1299 H1286 0.929 . S
C1299 C1291 1.433 . S
C1299 N1301 1.384 . S
N1300 C1296 1.427 . S
N1300 C1297 1.384 . S
N1301 C1293 1.427 . S
N1301 C1299 1.384 . S
H1302 C1308 0.930 . S
H1303 C1312 0.930 . S
H1304 C1317 0.929 . S
H1305 C1315 0.929 . S
H1306 C1310 0.929 . S
H1307 C1316 0.929 . S
C1308 H1302 0.930 . S
C1308 C1309 1.367 . S
C1308 C1316 1.378 . S
C1309 C1308 1.367 . S
C1309 C1317 1.433 . S
C1310 H1306 0.929 . S
C1310 C1312 1.378 . S
C1310 C1314 1.350 . S
C1311 C1314 1.463 . S
C1311 C1316 1.350 . S
C1311 N1319 1.427 . S
C1312 H1303 0.930 . S
C1312 C1310 1.378 . S
C1312 C1313 1.367 . S
C1313 C1312 1.367 . S
C1313 C1315 1.433 . S
C1314 C1310 1.350 . S
C1314 C1311 1.463 . S
C1314 N1318 1.427 . S
C1315 H1305 0.929 . S
C1315 C1313 1.433 . S
C1315 N1318 1.384 . S
C1316 H1307 0.929 . S
C1316 C1308 1.378 . S
C1316 C1311 1.350 . S
C1317 H1304 0.929 . S
C1317 C1309 1.433 . S
C1317 N1319 1.384 . S
N1318 C1314 1.427 . S
N1318 C1315 1.384 . S
N1319 C1311 1.427 . S
N1319 C1317 1.384 . S
H1320 C1326 0.930 . S
H1321 C1330 0.930 . S
H1322 C1335 0.929 . S
H1323 C1333 0.929 . S
H1324 C1328 0.929 . S
H1325 C1334 0.929 . S
C1326 H1320 0.930 . S
C1326 C1327 1.367 . S
C1326 C1334 1.378 . S
C1327 C1326 1.367 . S
C1327 C1335 1.433 . S
C1328 H1324 0.929 . S
C1328 C1330 1.378 . S
C1328 C1332 1.350 . S
C1329 C1332 1.463 . S
C1329 C1334 1.350 . S
C1329 N1337 1.427 . S
C1330 H1321 0.930 . S
C1330 C1328 1.378 . S
C1330 C1331 1.367 . S
C1331 C1330 1.367 . S
C1331 C1333 1.433 . S
C1332 C1328 1.350 . S
C1332 C1329 1.463 . S
C1332 N1336 1.427 . S
C1333 H1323 0.929 . S
C1333 C1331 1.433 . S
C1333 N1336 1.384 . S
C1334 H1325 0.929 . S
C1334 C1326 1.378 . S
C1334 C1329 1.350 . S
C1335 H1322 0.929 . S
C1335 C1327 1.433 . S
C1335 N1337 1.384 . S
N1336 C1332 1.427 . S
N1336 C1333 1.384 . S
N1337 C1329 1.427 . S
N1337 C1335 1.384 . S
H1338 C1344 0.930 . S
H1339 C1348 0.930 . S
H1340 C1353 0.929 . S
H1341 C1351 0.929 . S
H1342 C1346 0.929 . S
H1343 C1352 0.929 1_545 S
C1344 H1338 0.930 . S
C1344 C1345 1.367 . S
C1344 C1352 1.378 1_545 S
C1345 C1344 1.367 . S
C1345 C1353 1.433 1_545 S
C1346 H1342 0.929 . S
C1346 C1348 1.378 . S
C1346 C1350 1.350 . S
C1347 C1350 1.463 . S
C1347 C1352 1.350 . S
C1347 N1355 1.427 . S
C1348 H1339 0.930 . S
C1348 C1346 1.378 . S
C1348 C1349 1.367 . S
C1349 C1348 1.367 . S
C1349 C1351 1.433 . S
C1350 C1346 1.350 . S
C1350 C1347 1.463 . S
C1350 N1354 1.427 . S
C1351 H1341 0.929 . S
C1351 C1349 1.433 . S
C1351 N1354 1.384 . S
C1352 H1343 0.929 1_565 S
C1352 C1344 1.378 1_565 S
C1352 C1347 1.350 . S
C1353 H1340 0.929 . S
C1353 C1345 1.433 1_565 S
C1353 N1355 1.384 . S
N1354 C1350 1.427 . S
N1354 C1351 1.384 . S
N1355 C1347 1.427 . S
N1355 C1353 1.384 . S
H1356 C1362 0.930 . S
H1357 C1366 0.930 . S
H1358 C1371 0.929 . S
H1359 C1369 0.929 . S
H1360 C1364 0.929 . S
H1361 C1370 0.929 . S
C1362 H1356 0.930 . S
C1362 C1363 1.367 . S
C1362 C1370 1.378 . S
C1363 C1362 1.367 . S
C1363 C1371 1.433 . S
C1364 H1360 0.929 . S
C1364 C1366 1.378 . S
C1364 C1368 1.350 . S
C1365 C1368 1.463 . S
C1365 C1370 1.350 . S
C1365 N1373 1.427 . S
C1366 H1357 0.930 . S
C1366 C1364 1.378 . S
C1366 C1367 1.367 . S
C1367 C1366 1.367 . S
C1367 C1369 1.433 . S
C1368 C1364 1.350 . S
C1368 C1365 1.463 . S
C1368 N1372 1.427 . S
C1369 H1359 0.929 . S
C1369 C1367 1.433 . S
C1369 N1372 1.384 . S
C1370 H1361 0.929 . S
C1370 C1362 1.378 . S
C1370 C1365 1.350 . S
C1371 H1358 0.929 . S
C1371 C1363 1.433 . S
C1371 N1373 1.384 . S
N1372 C1368 1.427 . S
N1372 C1369 1.384 . S
N1373 C1365 1.427 . S
N1373 C1371 1.384 . S
H1374 C1380 0.930 . S
H1375 C1384 0.930 . S
H1376 C1389 0.929 . S
H1377 C1387 0.929 . S
H1378 C1382 0.929 . S
H1379 C1388 0.929 . S
C1380 H1374 0.930 . S
C1380 C1381 1.367 . S
C1380 C1388 1.378 . S
C1381 C1380 1.367 . S
C1381 C1389 1.433 . S
C1382 H1378 0.929 . S
C1382 C1384 1.378 . S
C1382 C1386 1.350 . S
C1383 C1386 1.463 . S
C1383 C1388 1.350 . S
C1383 N1391 1.427 . S
C1384 H1375 0.930 . S
C1384 C1382 1.378 . S
C1384 C1385 1.367 . S
C1385 C1384 1.367 . S
C1385 C1387 1.433 . S
C1386 C1382 1.350 . S
C1386 C1383 1.463 . S
C1386 N1390 1.427 . S
C1387 H1377 0.929 . S
C1387 C1385 1.433 . S
C1387 N1390 1.384 . S
C1388 H1379 0.929 . S
C1388 C1380 1.378 . S
C1388 C1383 1.350 . S
C1389 H1376 0.929 . S
C1389 C1381 1.433 . S
C1389 N1391 1.384 . S
N1390 C1386 1.427 . S
N1390 C1387 1.384 . S
N1391 C1383 1.427 . S
N1391 C1389 1.384 . S
H1392 C1398 0.930 . S
H1393 C1402 0.930 . S
H1394 C1407 0.929 . S
H1395 C1405 0.929 . S
H1396 C1400 0.929 . S
H1397 C1406 0.929 . S
C1398 H1392 0.930 . S
C1398 C1399 1.367 . S
C1398 C1406 1.378 . S
C1399 C1398 1.367 . S
C1399 C1407 1.433 . S
C1400 H1396 0.929 . S
C1400 C1402 1.378 . S
C1400 C1404 1.350 . S
C1401 C1404 1.463 . S
C1401 C1406 1.350 . S
C1401 N1409 1.427 . S
C1402 H1393 0.930 . S
C1402 C1400 1.378 . S
C1402 C1403 1.367 . S
C1403 C1402 1.367 . S
C1403 C1405 1.433 . S
C1404 C1400 1.350 . S
C1404 C1401 1.463 . S
C1404 N1408 1.427 . S
C1405 H1395 0.929 . S
C1405 C1403 1.433 . S
C1405 N1408 1.384 . S
C1406 H1397 0.929 . S
C1406 C1398 1.378 . S
C1406 C1401 1.350 . S
C1407 H1394 0.929 . S
C1407 C1399 1.433 . S
C1407 N1409 1.384 . S
N1408 C1404 1.427 . S
N1408 C1405 1.384 . S
N1409 C1401 1.427 . S
N1409 C1407 1.384 . S
H1410 C1416 0.930 . S
H1411 C1420 0.930 . S
H1412 C1425 0.929 . S
H1413 C1423 0.929 . S
H1414 C1418 0.929 . S
H1415 C1424 0.929 . S
C1416 H1410 0.930 . S
C1416 C1417 1.367 . S
C1416 C1424 1.378 . S
C1417 C1416 1.367 . S
C1417 C1425 1.433 . S
C1418 H1414 0.929 . S
C1418 C1420 1.378 . S
C1418 C1422 1.350 . S
C1419 C1422 1.463 . S
C1419 C1424 1.350 . S
C1419 N1427 1.427 . S
C1420 H1411 0.930 . S
C1420 C1418 1.378 . S
C1420 C1421 1.367 . S
C1421 C1420 1.367 . S
C1421 C1423 1.433 . S
C1422 C1418 1.350 . S
C1422 C1419 1.463 . S
C1422 N1426 1.427 . S
C1423 H1413 0.929 . S
C1423 C1421 1.433 . S
C1423 N1426 1.384 . S
C1424 H1415 0.929 . S
C1424 C1416 1.378 . S
C1424 C1419 1.350 . S
C1425 H1412 0.929 . S
C1425 C1417 1.433 . S
C1425 N1427 1.384 . S
N1426 C1422 1.427 . S
N1426 C1423 1.384 . S
N1427 C1419 1.427 . S
N1427 C1425 1.384 . S
H1428 C1434 0.930 . S
H1429 C1438 0.930 . S
H1430 C1443 0.929 . S
H1431 C1441 0.929 . S
H1432 C1436 0.929 . S
H1433 C1442 0.929 . S
C1434 H1428 0.930 . S
C1434 C1435 1.367 . S
C1434 C1442 1.378 . S
C1435 C1434 1.367 . S
C1435 C1443 1.433 . S
C1436 H1432 0.929 . S
C1436 C1438 1.378 . S
C1436 C1440 1.350 . S
C1437 C1440 1.463 . S
C1437 C1442 1.350 . S
C1437 N1445 1.427 . S
C1438 H1429 0.930 . S
C1438 C1436 1.378 . S
C1438 C1439 1.367 . S
C1439 C1438 1.367 . S
C1439 C1441 1.433 . S
C1440 C1436 1.350 . S
C1440 C1437 1.463 . S
C1440 N1444 1.427 . S
C1441 H1431 0.929 . S
C1441 C1439 1.433 . S
C1441 N1444 1.384 . S
C1442 H1433 0.929 . S
C1442 C1434 1.378 . S
C1442 C1437 1.350 . S
C1443 H1430 0.929 . S
C1443 C1435 1.433 . S
C1443 N1445 1.384 . S
N1444 C1440 1.427 . S
N1444 C1441 1.384 . S
N1445 C1437 1.427 . S
N1445 C1443 1.384 . S
H1446 C1452 0.930 . S
H1447 C1456 0.930 . S
H1448 C1461 0.929 . S
H1449 C1459 0.929 . S
H1450 C1454 0.929 . S
H1451 C1460 0.929 . S
C1452 H1446 0.930 . S
C1452 C1453 1.367 . S
C1452 C1460 1.378 . S
C1453 C1452 1.367 . S
C1453 C1461 1.433 . S
C1454 H1450 0.929 . S
C1454 C1456 1.378 . S
C1454 C1458 1.350 . S
C1455 C1458 1.463 . S
C1455 C1460 1.350 . S
C1455 N1463 1.427 . S
C1456 H1447 0.930 . S
C1456 C1454 1.378 . S
C1456 C1457 1.367 . S
C1457 C1456 1.367 . S
C1457 C1459 1.433 . S
C1458 C1454 1.350 . S
C1458 C1455 1.463 . S
C1458 N1462 1.427 . S
C1459 H1449 0.929 . S
C1459 C1457 1.433 . S
C1459 N1462 1.384 . S
C1460 H1451 0.929 . S
C1460 C1452 1.378 . S
C1460 C1455 1.350 . S
C1461 H1448 0.929 . S
C1461 C1453 1.433 . S
C1461 N1463 1.384 . S
N1462 C1458 1.427 . S
N1462 C1459 1.384 . S
N1463 C1455 1.427 . S
N1463 C1461 1.384 . S
H1464 C1470 0.930 . S
H1465 C1474 0.930 . S
H1466 C1479 0.929 . S
H1467 C1477 0.929 . S
H1468 C1472 0.929 . S
H1469 C1478 0.929 . S
C1470 H1464 0.930 . S
C1470 C1471 1.367 . S
C1470 C1478 1.378 . S
C1471 C1470 1.367 . S
C1471 C1479 1.433 . S
C1472 H1468 0.929 . S
C1472 C1474 1.378 . S
C1472 C1476 1.350 . S
C1473 C1476 1.463 . S
C1473 C1478 1.350 . S
C1473 N1481 1.427 . S
C1474 H1465 0.930 . S
C1474 C1472 1.378 . S
C1474 C1475 1.367 . S
C1475 C1474 1.367 . S
C1475 C1477 1.433 . S
C1476 C1472 1.350 . S
C1476 C1473 1.463 . S
C1476 N1480 1.427 . S
C1477 H1467 0.929 . S
C1477 C1475 1.433 . S
C1477 N1480 1.384 . S
C1478 H1469 0.929 . S
C1478 C1470 1.378 . S
C1478 C1473 1.350 . S
C1479 H1466 0.929 . S
C1479 C1471 1.433 . S
C1479 N1481 1.384 . S
N1480 C1476 1.427 . S
N1480 C1477 1.384 . S
N1481 C1473 1.427 . S
N1481 C1479 1.384 . S
H1482 C1488 0.930 . S
H1483 C1492 0.930 . S
H1484 C1497 0.929 . S
H1485 C1495 0.929 . S
H1486 C1490 0.929 . S
H1487 C1496 0.929 . S
C1488 H1482 0.930 . S
C1488 C1489 1.367 . S
C1488 C1496 1.378 . S
C1489 C1488 1.367 . S
C1489 C1497 1.433 . S
C1490 H1486 0.929 . S
C1490 C1492 1.378 . S
C1490 C1494 1.350 . S
C1491 C1494 1.463 . S
C1491 C1496 1.350 . S
C1491 N1499 1.427 . S
C1492 H1483 0.930 . S
C1492 C1490 1.378 . S
C1492 C1493 1.367 . S
C1493 C1492 1.367 . S
C1493 C1495 1.433 . S
C1494 C1490 1.350 . S
C1494 C1491 1.463 . S
C1494 N1498 1.427 . S
C1495 H1485 0.929 . S
C1495 C1493 1.433 . S
C1495 N1498 1.384 . S
C1496 H1487 0.929 . S
C1496 C1488 1.378 . S
C1496 C1491 1.350 . S
C1497 H1484 0.929 . S
C1497 C1489 1.433 . S
C1497 N1499 1.384 . S
N1498 C1494 1.427 . S
N1498 C1495 1.384 . S
N1499 C1491 1.427 . S
N1499 C1497 1.384 . S
H1500 C1506 0.930 . S
H1501 C1510 0.930 . S
H1502 C1515 0.929 . S
H1503 C1513 0.929 . S
H1504 C1508 0.929 . S
H1505 C1514 0.929 . S
C1506 H1500 0.930 . S
C1506 C1507 1.367 . S
C1506 C1514 1.378 . S
C1507 C1506 1.367 . S
C1507 C1515 1.433 . S
C1508 H1504 0.929 . S
C1508 C1510 1.378 . S
C1508 C1512 1.350 . S
C1509 C1512 1.463 . S
C1509 C1514 1.350 . S
C1509 N1517 1.427 . S
C1510 H1501 0.930 . S
C1510 C1508 1.378 . S
C1510 C1511 1.367 . S
C1511 C1510 1.367 . S
C1511 C1513 1.433 . S
C1512 C1508 1.350 . S
C1512 C1509 1.463 . S
C1512 N1516 1.427 . S
C1513 H1503 0.929 . S
C1513 C1511 1.433 . S
C1513 N1516 1.384 . S
C1514 H1505 0.929 . S
C1514 C1506 1.378 . S
C1514 C1509 1.350 . S
C1515 H1502 0.929 . S
C1515 C1507 1.433 . S
C1515 N1517 1.384 . S
N1516 C1512 1.427 . S
N1516 C1513 1.384 . S
N1517 C1509 1.427 . S
N1517 C1515 1.384 . S
H1518 C1524 0.930 . S
H1519 C1528 0.930 . S
H1520 C1533 0.929 . S
H1521 C1531 0.929 . S
H1522 C1526 0.929 . S
H1523 C1532 0.929 . S
C1524 H1518 0.930 . S
C1524 C1525 1.367 . S
C1524 C1532 1.378 . S
C1525 C1524 1.367 . S
C1525 C1533 1.433 . S
C1526 H1522 0.929 . S
C1526 C1528 1.378 . S
C1526 C1530 1.350 . S
C1527 C1530 1.463 . S
C1527 C1532 1.350 . S
C1527 N1535 1.427 . S
C1528 H1519 0.930 . S
C1528 C1526 1.378 . S
C1528 C1529 1.367 . S
C1529 C1528 1.367 . S
C1529 C1531 1.433 . S
C1530 C1526 1.350 . S
C1530 C1527 1.463 . S
C1530 N1534 1.427 . S
C1531 H1521 0.929 . S
C1531 C1529 1.433 . S
C1531 N1534 1.384 . S
C1532 H1523 0.929 . S
C1532 C1524 1.378 . S
C1532 C1527 1.350 . S
C1533 H1520 0.929 . S
C1533 C1525 1.433 . S
C1533 N1535 1.384 . S
N1534 C1530 1.427 . S
N1534 C1531 1.384 . S
N1535 C1527 1.427 . S
N1535 C1533 1.384 . S
H1536 C1542 0.930 . S
H1537 C1546 0.930 . S
H1538 C1551 0.929 . S
H1539 C1549 0.929 . S
H1540 C1544 0.929 . S
H1541 C1550 0.929 . S
C1542 H1536 0.930 . S
C1542 C1543 1.367 . S
C1542 C1550 1.378 . S
C1543 C1542 1.367 . S
C1543 C1551 1.433 . S
C1544 H1540 0.929 . S
C1544 C1546 1.378 . S
C1544 C1548 1.350 . S
C1545 C1548 1.463 . S
C1545 C1550 1.350 . S
C1545 N1553 1.427 . S
C1546 H1537 0.930 . S
C1546 C1544 1.378 . S
C1546 C1547 1.367 . S
C1547 C1546 1.367 . S
C1547 C1549 1.433 . S
C1548 C1544 1.350 . S
C1548 C1545 1.463 . S
C1548 N1552 1.427 . S
C1549 H1539 0.929 . S
C1549 C1547 1.433 . S
C1549 N1552 1.384 . S
C1550 H1541 0.929 . S
C1550 C1542 1.378 . S
C1550 C1545 1.350 . S
C1551 H1538 0.929 . S
C1551 C1543 1.433 . S
C1551 N1553 1.384 . S
N1552 C1548 1.427 . S
N1552 C1549 1.384 . S
N1553 C1545 1.427 . S
N1553 C1551 1.384 . S
H1554 C1560 0.930 . S
H1555 C1564 0.930 . S
H1556 C1569 0.929 . S
H1557 C1567 0.929 . S
H1558 C1562 0.929 . S
H1559 C1568 0.929 . S
C1560 H1554 0.930 . S
C1560 C1561 1.367 . S
C1560 C1568 1.378 . S
C1561 C1560 1.367 . S
C1561 C1569 1.433 . S
C1562 H1558 0.929 . S
C1562 C1564 1.378 . S
C1562 C1566 1.350 . S
C1563 C1566 1.463 . S
C1563 C1568 1.350 . S
C1563 N1571 1.427 . S
C1564 H1555 0.930 . S
C1564 C1562 1.378 . S
C1564 C1565 1.367 . S
C1565 C1564 1.367 . S
C1565 C1567 1.433 . S
C1566 C1562 1.350 . S
C1566 C1563 1.463 . S
C1566 N1570 1.427 . S
C1567 H1557 0.929 . S
C1567 C1565 1.433 . S
C1567 N1570 1.384 . S
C1568 H1559 0.929 . S
C1568 C1560 1.378 . S
C1568 C1563 1.350 . S
C1569 H1556 0.929 . S
C1569 C1561 1.433 . S
C1569 N1571 1.384 . S
N1570 C1566 1.427 . S
N1570 C1567 1.384 . S
N1571 C1563 1.427 . S
N1571 C1569 1.384 . S
H1572 C1578 0.930 . S
H1573 C1582 0.927 1_655 S
H1574 C1587 0.929 . S
H1575 C1585 0.929 . S
H1576 C1580 0.929 1_655 S
H1577 C1586 0.929 . S
C1578 H1572 0.930 . S
C1578 C1579 1.367 1_455 S
C1578 C1586 1.378 . S
C1579 C1578 1.367 1_655 S
C1579 C1587 1.433 . S
C1580 H1576 0.929 1_455 S
C1580 C1582 1.378 . S
C1580 C1584 1.350 . S
C1581 C1584 1.463 . S
C1581 C1586 1.350 . S
C1581 N1589 1.427 1_455 S
C1582 H1573 0.927 1_455 S
C1582 C1580 1.378 . S
C1582 C1583 1.367 . S
C1583 C1582 1.367 . S
C1583 C1585 1.433 . S
C1584 C1580 1.350 . S
C1584 C1581 1.463 . S
C1584 N1588 1.427 . S
C1585 H1575 0.929 . S
C1585 C1583 1.433 . S
C1585 N1588 1.384 . S
C1586 H1577 0.929 . S
C1586 C1578 1.378 . S
C1586 C1581 1.350 . S
C1587 H1574 0.929 . S
C1587 C1579 1.433 . S
C1587 N1589 1.384 . S
N1588 C1584 1.427 . S
N1588 C1585 1.384 . S
N1589 C1581 1.427 1_655 S
N1589 C1587 1.384 . S
H1590 C1596 0.930 . S
H1591 C1600 0.930 . S
H1592 C1605 0.929 . S
H1593 C1603 0.929 1_556 S
H1594 C1598 0.929 . S
H1595 C1604 0.929 . S
C1596 H1590 0.930 . S
C1596 C1597 1.367 . S
C1596 C1604 1.378 . S
C1597 C1596 1.367 . S
C1597 C1605 1.433 1_556 S
C1598 H1594 0.929 . S
C1598 C1600 1.378 . S
C1598 C1602 1.350 . S
C1599 C1602 1.463 . S
C1599 C1604 1.350 1_554 S
C1599 N1607 1.427 . S
C1600 H1591 0.930 . S
C1600 C1598 1.378 . S
C1600 C1601 1.367 . S
C1601 C1600 1.367 . S
C1601 C1603 1.433 . S
C1602 C1598 1.350 . S
C1602 C1599 1.463 . S
C1602 N1606 1.454 . S
C1603 H1593 0.929 1_554 S
C1603 C1601 1.433 . S
C1603 N1606 1.396 . S
C1604 H1595 0.929 . S
C1604 C1596 1.378 . S
C1604 C1599 1.350 1_556 S
C1605 H1592 0.929 . S
C1605 C1597 1.433 1_554 S
C1605 N1607 1.384 . S
N1606 C1602 1.454 . S
N1606 C1603 1.396 . S
N1607 C1599 1.427 . S
N1607 C1605 1.384 . S
H1608 C1614 0.930 . S
H1609 C1618 0.930 . S
H1610 C1623 0.929 1_565 S
H1611 C1621 0.929 . S
H1612 C1616 0.929 . S
H1613 C1622 0.929 . S
C1614 H1608 0.930 . S
C1614 C1615 1.367 . S
C1614 C1622 1.378 . S
C1615 C1614 1.367 . S
C1615 C1623 1.433 . S
C1616 H1612 0.929 . S
C1616 C1618 1.378 . S
C1616 C1620 1.350 . S
C1617 C1620 1.463 . S
C1617 C1622 1.350 . S
C1617 N1625 1.427 . S
C1618 H1609 0.930 . S
C1618 C1616 1.378 . S
C1618 C1619 1.367 . S
C1619 C1618 1.367 . S
C1619 C1621 1.433 . S
C1620 C1616 1.350 . S
C1620 C1617 1.463 . S
C1620 N1624 1.427 . S
C1621 H1611 0.929 . S
C1621 C1619 1.433 . S
C1621 N1624 1.384 . S
C1622 H1613 0.929 . S
C1622 C1614 1.378 . S
C1622 C1617 1.350 . S
C1623 H1610 0.929 1_545 S
C1623 C1615 1.433 . S
C1623 N1625 1.384 . S
N1624 C1620 1.427 . S
N1624 C1621 1.384 . S
N1625 C1617 1.427 . S
N1625 C1623 1.384 . S
H1626 C1632 0.930 . S
H1627 C1636 0.930 . S
H1628 C1641 0.929 . S
H1629 C1639 0.929 . S
H1630 C1634 0.929 . S
H1631 C1640 0.929 . S
C1632 H1626 0.930 . S
C1632 C1633 1.367 . S
C1632 C1640 1.378 . S
C1633 C1632 1.367 . S
C1633 C1641 1.433 . S
C1634 H1630 0.929 . S
C1634 C1636 1.378 . S
C1634 C1638 1.350 . S
C1635 C1638 1.463 . S
C1635 C1640 1.350 . S
C1635 N1643 1.427 . S
C1636 H1627 0.930 . S
C1636 C1634 1.378 . S
C1636 C1637 1.367 . S
C1637 C1636 1.367 . S
C1637 C1639 1.433 . S
C1638 C1634 1.350 . S
C1638 C1635 1.463 . S
C1638 N1642 1.427 . S
C1639 H1629 0.929 . S
C1639 C1637 1.433 . S
C1639 N1642 1.384 . S
C1640 H1631 0.929 . S
C1640 C1632 1.378 . S
C1640 C1635 1.350 . S
C1641 H1628 0.929 . S
C1641 C1633 1.433 . S
C1641 N1643 1.384 . S
N1642 C1638 1.427 . S
N1642 C1639 1.384 . S
N1643 C1635 1.427 . S
N1643 C1641 1.384 . S
H1644 C1650 0.930 . S
H1645 C1654 0.930 . S
H1646 C1659 0.929 . S
H1647 C1657 0.929 1_565 S
H1648 C1652 0.929 . S
H1649 C1658 0.929 . S
C1650 H1644 0.930 . S
C1650 C1651 1.367 . S
C1650 C1658 1.378 . S
C1651 C1650 1.367 . S
C1651 C1659 1.433 1_565 S
C1652 H1648 0.929 . S
C1652 C1654 1.378 . S
C1652 C1656 1.350 . S
C1653 C1656 1.463 . S
C1653 C1658 1.350 1_545 S
C1653 N1661 1.427 . S
C1654 H1645 0.930 . S
C1654 C1652 1.378 . S
C1654 C1655 1.367 . S
C1655 C1654 1.367 . S
C1655 C1657 1.433 . S
C1656 C1652 1.350 . S
C1656 C1653 1.463 . S
C1656 N1660 1.427 . S
C1657 H1647 0.929 1_545 S
C1657 C1655 1.433 . S
C1657 N1660 1.384 . S
C1658 H1649 0.929 . S
C1658 C1650 1.378 . S
C1658 C1653 1.350 1_565 S
C1659 H1646 0.929 . S
C1659 C1651 1.433 1_545 S
C1659 N1661 1.384 . S
N1660 C1656 1.427 . S
N1660 C1657 1.384 . S
N1661 C1653 1.427 . S
N1661 C1659 1.384 . S
H1662 C1668 0.930 . S
H1663 C1672 0.930 . S
H1664 C1677 0.929 . S
H1665 C1675 0.929 . S
H1666 C1670 0.929 . S
H1667 C1676 0.929 . S
C1668 H1662 0.930 . S
C1668 C1669 1.367 . S
C1668 C1676 1.378 . S
C1669 C1668 1.367 . S
C1669 C1677 1.433 . S
C1670 H1666 0.929 . S
C1670 C1672 1.378 . S
C1670 C1674 1.350 . S
C1671 C1674 1.463 . S
C1671 C1676 1.350 . S
C1671 N1679 1.427 . S
C1672 H1663 0.930 . S
C1672 C1670 1.378 . S
C1672 C1673 1.367 . S
C1673 C1672 1.367 . S
C1673 C1675 1.433 . S
C1674 C1670 1.350 . S
C1674 C1671 1.463 . S
C1674 N1678 1.427 . S
C1675 H1665 0.929 . S
C1675 C1673 1.433 . S
C1675 N1678 1.384 . S
C1676 H1667 0.929 . S
C1676 C1668 1.378 . S
C1676 C1671 1.350 . S
C1677 H1664 0.929 . S
C1677 C1669 1.433 . S
C1677 N1679 1.384 . S
N1678 C1674 1.427 . S
N1678 C1675 1.384 . S
N1679 C1671 1.427 . S
N1679 C1677 1.384 . S
H1680 C1686 0.930 . S
H1681 C1690 0.930 . S
H1682 C1695 0.929 . S
H1683 C1693 0.929 . S
H1684 C1688 0.929 . S
H1685 C1694 0.929 . S
C1686 H1680 0.930 . S
C1686 C1687 1.367 1_565 S
C1686 C1694 1.378 . S
C1687 C1686 1.367 1_545 S
C1687 C1695 1.433 . S
C1688 H1684 0.929 . S
C1688 C1690 1.378 . S
C1688 C1692 1.350 . S
C1689 C1692 1.463 . S
C1689 C1694 1.350 1_545 S
C1689 N1697 1.427 . S
C1690 H1681 0.930 . S
C1690 C1688 1.378 . S
C1690 C1691 1.367 . S
C1691 C1690 1.367 . S
C1691 C1693 1.433 1_545 S
C1692 C1688 1.350 . S
C1692 C1689 1.463 . S
C1692 N1696 1.427 1_545 S
C1693 H1683 0.929 . S
C1693 C1691 1.433 1_565 S
C1693 N1696 1.384 . S
C1694 H1685 0.929 . S
C1694 C1686 1.378 . S
C1694 C1689 1.350 1_565 S
C1695 H1682 0.929 . S
C1695 C1687 1.433 . S
C1695 N1697 1.384 . S
N1696 C1692 1.427 1_565 S
N1696 C1693 1.384 . S
N1697 C1689 1.427 . S
N1697 C1695 1.384 . S
H1698 C1704 0.930 . S
H1699 C1708 0.930 . S
H1700 C1713 0.929 . S
H1701 C1711 0.929 . S
H1702 C1706 0.929 . S
H1703 C1712 0.929 . S
C1704 H1698 0.930 . S
C1704 C1705 1.367 . S
C1704 C1712 1.378 . S
C1705 C1704 1.367 . S
C1705 C1713 1.433 . S
C1706 H1702 0.929 . S
C1706 C1708 1.378 . S
C1706 C1710 1.350 . S
C1707 C1710 1.463 . S
C1707 C1712 1.350 . S
C1707 N1715 1.427 . S
C1708 H1699 0.930 . S
C1708 C1706 1.378 . S
C1708 C1709 1.367 . S
C1709 C1708 1.367 . S
C1709 C1711 1.433 . S
C1710 C1706 1.350 . S
C1710 C1707 1.463 . S
C1710 N1714 1.427 . S
C1711 H1701 0.929 . S
C1711 C1709 1.433 . S
C1711 N1714 1.384 . S
C1712 H1703 0.929 . S
C1712 C1704 1.378 . S
C1712 C1707 1.350 . S
C1713 H1700 0.929 . S
C1713 C1705 1.433 . S
C1713 N1715 1.384 . S
N1714 C1710 1.427 . S
N1714 C1711 1.384 . S
N1715 C1707 1.427 . S
N1715 C1713 1.384 . S
H1716 C1722 0.930 . S
H1717 C1726 0.930 . S
H1718 C1731 0.929 . S
H1719 C1729 0.929 . S
H1720 C1724 0.929 . S
H1721 C1730 0.929 . S
C1722 H1716 0.930 . S
C1722 C1723 1.367 . S
C1722 C1730 1.378 . S
C1723 C1722 1.367 . S
C1723 C1731 1.433 . S
C1724 H1720 0.929 . S
C1724 C1726 1.378 . S
C1724 C1728 1.350 . S
C1725 C1728 1.463 . S
C1725 C1730 1.350 . S
C1725 N1733 1.427 . S
C1726 H1717 0.930 . S
C1726 C1724 1.378 . S
C1726 C1727 1.367 . S
C1727 C1726 1.367 . S
C1727 C1729 1.433 . S
C1728 C1724 1.350 . S
C1728 C1725 1.463 . S
C1728 N1732 1.427 . S
C1729 H1719 0.929 . S
C1729 C1727 1.433 . S
C1729 N1732 1.384 . S
C1730 H1721 0.929 . S
C1730 C1722 1.378 . S
C1730 C1725 1.350 . S
C1731 H1718 0.929 . S
C1731 C1723 1.433 . S
C1731 N1733 1.384 . S
N1732 C1728 1.427 . S
N1732 C1729 1.384 . S
N1733 C1725 1.427 . S
N1733 C1731 1.384 . S
H1734 C1740 0.930 . S
H1735 C1744 0.930 . S
H1736 C1749 0.929 . S
H1737 C1747 0.929 . S
H1738 C1742 0.929 . S
H1739 C1748 0.929 . S
C1740 H1734 0.930 . S
C1740 C1741 1.367 . S
C1740 C1748 1.378 . S
C1741 C1740 1.367 . S
C1741 C1749 1.433 . S
C1742 H1738 0.929 . S
C1742 C1744 1.378 . S
C1742 C1746 1.350 . S
C1743 C1746 1.463 . S
C1743 C1748 1.350 . S
C1743 N1751 1.427 . S
C1744 H1735 0.930 . S
C1744 C1742 1.378 . S
C1744 C1745 1.367 . S
C1745 C1744 1.367 . S
C1745 C1747 1.433 . S
C1746 C1742 1.350 . S
C1746 C1743 1.463 . S
C1746 N1750 1.427 . S
C1747 H1737 0.929 . S
C1747 C1745 1.433 . S
C1747 N1750 1.384 . S
C1748 H1739 0.929 . S
C1748 C1740 1.378 . S
C1748 C1743 1.350 . S
C1749 H1736 0.929 . S
C1749 C1741 1.433 . S
C1749 N1751 1.384 . S
N1750 C1746 1.427 . S
N1750 C1747 1.384 . S
N1751 C1743 1.427 . S
N1751 C1749 1.384 . S
H1752 C1758 0.930 . S
H1753 C1762 0.930 . S
H1754 C1767 0.929 . S
H1755 C1765 0.929 . S
H1756 C1760 0.929 . S
H1757 C1766 0.929 . S
C1758 H1752 0.930 . S
C1758 C1759 1.367 . S
C1758 C1766 1.378 . S
C1759 C1758 1.367 . S
C1759 C1767 1.433 . S
C1760 H1756 0.929 . S
C1760 C1762 1.378 . S
C1760 C1764 1.350 . S
C1761 C1764 1.463 . S
C1761 C1766 1.350 . S
C1761 N1769 1.427 . S
C1762 H1753 0.930 . S
C1762 C1760 1.378 . S
C1762 C1763 1.367 . S
C1763 C1762 1.367 . S
C1763 C1765 1.433 . S
C1764 C1760 1.350 . S
C1764 C1761 1.463 . S
C1764 N1768 1.427 . S
C1765 H1755 0.929 . S
C1765 C1763 1.433 . S
C1765 N1768 1.384 . S
C1766 H1757 0.929 . S
C1766 C1758 1.378 . S
C1766 C1761 1.350 . S
C1767 H1754 0.929 . S
C1767 C1759 1.433 . S
C1767 N1769 1.384 . S
N1768 C1764 1.427 . S
N1768 C1765 1.384 . S
N1769 C1761 1.427 . S
N1769 C1767 1.384 . S
H1770 C1776 0.930 . S
H1771 C1780 0.930 . S
H1772 C1785 0.929 . S
H1773 C1783 0.929 . S
H1774 C1778 0.929 . S
H1775 C1784 0.929 . S
C1776 H1770 0.930 . S
C1776 C1777 1.367 . S
C1776 C1784 1.378 . S
C1777 C1776 1.367 . S
C1777 C1785 1.433 . S
C1778 H1774 0.929 . S
C1778 C1780 1.378 . S
C1778 C1782 1.350 . S
C1779 C1782 1.463 . S
C1779 C1784 1.350 . S
C1779 N1787 1.427 . S
C1780 H1771 0.930 . S
C1780 C1778 1.378 . S
C1780 C1781 1.367 . S
C1781 C1780 1.367 . S
C1781 C1783 1.433 . S
C1782 C1778 1.350 . S
C1782 C1779 1.463 . S
C1782 N1786 1.427 . S
C1783 H1773 0.929 . S
C1783 C1781 1.433 . S
C1783 N1786 1.384 . S
C1784 H1775 0.929 . S
C1784 C1776 1.378 . S
C1784 C1779 1.350 . S
C1785 H1772 0.929 . S
C1785 C1777 1.433 . S
C1785 N1787 1.384 . S
N1786 C1782 1.427 . S
N1786 C1783 1.384 . S
N1787 C1779 1.427 . S
N1787 C1785 1.384 . S
H1788 C1794 0.930 . S
H1789 C1798 0.930 . S
H1790 C1803 0.929 . S
H1791 C1801 0.929 . S
H1792 C1796 0.929 . S
H1793 C1802 0.929 . S
C1794 H1788 0.930 . S
C1794 C1795 1.367 . S
C1794 C1802 1.378 . S
C1795 C1794 1.367 . S
C1795 C1803 1.433 . S
C1796 H1792 0.929 . S
C1796 C1798 1.378 . S
C1796 C1800 1.350 . S
C1797 C1800 1.463 . S
C1797 C1802 1.350 . S
C1797 N1805 1.427 . S
C1798 H1789 0.930 . S
C1798 C1796 1.378 . S
C1798 C1799 1.367 . S
C1799 C1798 1.367 . S
C1799 C1801 1.433 . S
C1800 C1796 1.350 . S
C1800 C1797 1.463 . S
C1800 N1804 1.427 . S
C1801 H1791 0.929 . S
C1801 C1799 1.433 . S
C1801 N1804 1.384 . S
C1802 H1793 0.929 . S
C1802 C1794 1.378 . S
C1802 C1797 1.350 . S
C1803 H1790 0.929 . S
C1803 C1795 1.433 . S
C1803 N1805 1.384 . S
N1804 C1800 1.427 . S
N1804 C1801 1.384 . S
N1805 C1797 1.427 . S
N1805 C1803 1.384 . S
H1806 C1812 0.930 . S
H1807 C1816 0.930 . S
H1808 C1821 0.929 . S
H1809 C1819 0.929 . S
H1810 C1814 0.929 . S
H1811 C1820 0.929 . S
C1812 H1806 0.930 . S
C1812 C1813 1.367 . S
C1812 C1820 1.378 . S
C1813 C1812 1.367 . S
C1813 C1821 1.433 . S
C1814 H1810 0.929 . S
C1814 C1816 1.378 . S
C1814 C1818 1.350 . S
C1815 C1818 1.463 . S
C1815 C1820 1.350 . S
C1815 N1823 1.427 . S
C1816 H1807 0.930 . S
C1816 C1814 1.378 . S
C1816 C1817 1.367 . S
C1817 C1816 1.367 . S
C1817 C1819 1.433 . S
C1818 C1814 1.350 . S
C1818 C1815 1.463 . S
C1818 N1822 1.427 . S
C1819 H1809 0.929 . S
C1819 C1817 1.433 . S
C1819 N1822 1.384 . S
C1820 H1811 0.929 . S
C1820 C1812 1.378 . S
C1820 C1815 1.350 . S
C1821 H1808 0.929 . S
C1821 C1813 1.433 . S
C1821 N1823 1.384 . S
N1822 C1818 1.427 . S
N1822 C1819 1.384 . S
N1823 C1815 1.427 . S
N1823 C1821 1.384 . S
H1824 C1830 0.930 . S
H1825 C1834 0.930 . S
H1826 C1839 0.929 . S
H1827 C1837 0.929 . S
H1828 C1832 0.929 . S
H1829 C1838 0.929 1_655 S
C1830 H1824 0.930 . S
C1830 C1831 1.367 . S
C1830 C1838 1.378 . S
C1831 C1830 1.367 . S
C1831 C1839 1.433 . S
C1832 H1828 0.929 . S
C1832 C1834 1.378 . S
C1832 C1836 1.350 . S
C1833 C1836 1.463 . S
C1833 C1838 1.350 . S
C1833 N1841 1.427 . S
C1834 H1825 0.930 . S
C1834 C1832 1.378 . S
C1834 C1835 1.367 . S
C1835 C1834 1.367 . S
C1835 C1837 1.433 1_455 S
C1836 C1832 1.350 . S
C1836 C1833 1.463 . S
C1836 N1840 1.427 1_455 S
C1837 H1827 0.929 . S
C1837 C1835 1.433 1_655 S
C1837 N1840 1.384 . S
C1838 H1829 0.929 1_455 S
C1838 C1830 1.378 . S
C1838 C1833 1.350 . S
C1839 H1826 0.929 . S
C1839 C1831 1.433 . S
C1839 N1841 1.384 . S
N1840 C1836 1.427 1_655 S
N1840 C1837 1.384 . S
N1841 C1833 1.427 . S
N1841 C1839 1.384 . S
H1842 C1848 0.930 . S
H1843 C1852 0.930 . S
H1844 C1857 0.929 . S
H1845 C1855 0.929 . S
H1846 C1850 0.929 . S
H1847 C1856 0.929 . S
C1848 H1842 0.930 . S
C1848 C1849 1.367 . S
C1848 C1856 1.378 . S
C1849 C1848 1.367 . S
C1849 C1857 1.433 . S
C1850 H1846 0.929 . S
C1850 C1852 1.378 . S
C1850 C1854 1.350 . S
C1851 C1854 1.463 . S
C1851 C1856 1.350 . S
C1851 N1859 1.427 . S
C1852 H1843 0.930 . S
C1852 C1850 1.378 . S
C1852 C1853 1.367 . S
C1853 C1852 1.367 . S
C1853 C1855 1.433 . S
C1854 C1850 1.350 . S
C1854 C1851 1.463 . S
C1854 N1858 1.427 . S
C1855 H1845 0.929 . S
C1855 C1853 1.433 . S
C1855 N1858 1.384 . S
C1856 H1847 0.929 . S
C1856 C1848 1.378 . S
C1856 C1851 1.350 . S
C1857 H1844 0.929 . S
C1857 C1849 1.433 . S
C1857 N1859 1.384 . S
N1858 C1854 1.427 . S
N1858 C1855 1.384 . S
N1859 C1851 1.427 . S
N1859 C1857 1.384 . S
H1860 C1866 0.930 . S
H1861 C1870 0.930 . S
H1862 C1875 0.929 . S
H1863 C1873 0.929 . S
H1864 C1868 0.929 . S
H1865 C1874 0.929 . S
C1866 H1860 0.930 . S
C1866 C1867 1.367 . S
C1866 C1874 1.378 . S
C1867 C1866 1.367 . S
C1867 C1875 1.433 . S
C1868 H1864 0.929 . S
C1868 C1870 1.378 . S
C1868 C1872 1.350 . S
C1869 C1872 1.463 . S
C1869 C1874 1.350 . S
C1869 N1877 1.427 . S
C1870 H1861 0.930 . S
C1870 C1868 1.378 . S
C1870 C1871 1.367 . S
C1871 C1870 1.367 . S
C1871 C1873 1.433 . S
C1872 C1868 1.350 . S
C1872 C1869 1.463 . S
C1872 N1876 1.427 . S
C1873 H1863 0.929 . S
C1873 C1871 1.433 . S
C1873 N1876 1.384 . S
C1874 H1865 0.929 . S
C1874 C1866 1.378 . S
C1874 C1869 1.350 . S
C1875 H1862 0.929 . S
C1875 C1867 1.433 . S
C1875 N1877 1.384 . S
N1876 C1872 1.427 . S
N1876 C1873 1.384 . S
N1877 C1869 1.427 . S
N1877 C1875 1.384 . S
H1878 C1884 0.930 . S
H1879 C1888 0.930 . S
H1880 C1893 0.929 . S
H1881 C1891 0.929 . S
H1882 C1886 0.929 . S
H1883 C1892 0.929 . S
C1884 H1878 0.930 . S
C1884 C1885 1.367 . S
C1884 C1892 1.378 . S
C1885 C1884 1.367 . S
C1885 C1893 1.433 . S
C1886 H1882 0.929 . S
C1886 C1888 1.378 . S
C1886 C1890 1.350 . S
C1887 C1890 1.463 . S
C1887 C1892 1.350 . S
C1887 N1895 1.427 . S
C1888 H1879 0.930 . S
C1888 C1886 1.378 . S
C1888 C1889 1.367 . S
C1889 C1888 1.367 . S
C1889 C1891 1.433 . S
C1890 C1886 1.350 . S
C1890 C1887 1.463 . S
C1890 N1894 1.427 . S
C1891 H1881 0.929 . S
C1891 C1889 1.433 . S
C1891 N1894 1.384 . S
C1892 H1883 0.929 . S
C1892 C1884 1.378 . S
C1892 C1887 1.350 . S
C1893 H1880 0.929 . S
C1893 C1885 1.433 . S
C1893 N1895 1.384 . S
N1894 C1890 1.427 . S
N1894 C1891 1.384 . S
N1895 C1887 1.427 . S
N1895 C1893 1.384 . S
C823 C33 0.567 . S
C827 C713 0.561 . S
C841 C611 0.559 . S
C845 C67 0.580 . S
C859 C645 0.563 . S
C863 C101 0.569 . S
C877 C679 0.554 . S
C881 C135 0.560 . S
C895 C169 0.573 . S
C899 C815 0.566 . S
C913 C747 0.548 . S
C917 C203 0.553 . S
C931 C781 0.614 . S
C935 C237 0.595 . S
C949 C577 0.585 . S
C953 C271 0.580 . S
C967 C305 0.541 . S
C971 C543 0.542 . S
C985 C441 0.591 . S
C989 C339 0.593 . S
C1003 C373 0.546 . S
C1007 C475 0.550 . S
C1021 C509 0.595 . S
C1025 C407 0.594 . S
C1039 C648 1.762 . S
C1043 C9 1.720 . S
C1057 C43 1.718 . S
C1061 C682 1.766 . S
C1075 C580 1.762 . S
C1079 C77 1.724 1_565 S
C1093 C111 1.712 . S
C1097 C614 1.763 . S
C1111 C716 1.764 . S
C1115 C145 1.722 . S
C1129 C750 1.762 . S
C1133 C179 1.719 . S
C1147 C546 1.762 1_655 S
C1151 C213 1.721 . S
C1165 C247 1.720 . S
C1169 C784 1.762 . S
C1183 C281 1.711 . S
C1187 C70 1.764 . S
C1201 C315 1.720 . S
C1205 C104 1.762 . S
C1219 C349 1.720 . S
C1223 C2 1.762 1_565 S
C1237 C36 1.762 . S
C1241 C383 1.721 . S
C1255 C417 1.714 1_556 S
C1259 C206 1.763 . S
C1273 C240 1.763 . S
C1277 C451 1.712 . S
C1291 C138 1.764 . S
C1295 C485 1.710 . S
C1309 C172 1.762 . S
C1313 C519 1.719 . S
C1327 C410 1.763 . S
C1331 C553 1.712 . S
C1345 C274 1.766 1_556 S
C1349 C587 1.716 . S
C1363 C621 1.722 . S
C1367 C308 1.763 . S
C1381 C655 1.714 1_655 S
C1385 C342 1.764 . S
C1399 C376 1.764 . S
C1403 C689 1.711 . S
C1417 C723 1.711 . S
C1421 C478 1.763 . S
C1435 C512 1.766 . S
C1439 C757 1.720 . S
C1453 C791 1.722 . S
C1457 C444 1.765 . S
C1471 C20 1.141 . S
C1475 C768 1.126 . S
C1489 C564 1.130 . S
C1493 C54 1.143 . S
C1507 C88 1.124 . S
C1511 C802 1.144 . S
C1525 C734 1.131 . S
C1529 C122 1.143 . S
C1543 C156 1.124 . S
C1547 C632 1.146 . S
C1561 C666 1.139 . S
C1565 C190 1.136 . S
C1579 C224 1.124 . S
C1583 C700 1.145 . S
C1597 C598 1.146 . S
C1601 C258 1.126 . S
C1615 C462 1.137 . S
C1619 C292 1.128 . S
C1633 C496 1.124 . S
C1637 C326 1.144 . S
C1651 C360 1.141 . S
C1655 C530 1.134 . S
C1669 C394 1.124 . S
C1673 C428 1.146 . S
C1687 C515 1.149 . S
C1691 C5 1.122 . S
C1705 C39 1.135 . S
C1709 C413 1.129 . S
C1723 C447 1.127 . S
C1727 C73 1.137 . S
C1741 C481 1.149 . S
C1745 C107 1.121 . S
C1759 C141 1.142 . S
C1763 C311 1.123 . S
C1777 C345 1.123 . S
C1781 C175 1.148 . S
C1795 C209 1.147 . S
C1799 C379 1.125 . S
C1813 C277 1.146 . S
C1817 C243 1.126 . S
C1831 C685 1.148 . S
C1835 C549 1.120 . S
C1849 C787 1.121 . S
C1853 C583 1.149 . S
C1867 C719 1.121 . S
C1871 C617 1.145 . S
C1885 C753 1.120 . S
C1889 C651 1.149 . S
