# Generated by pormake.
# Topology ukm, (4)-cn, num edge types: 1
# Building blocks:
#     Node 0, Type 0, BuildingBlock: CEKHIL_clean_sbu_0, # of connection points: 4
#     Node 1, Type 0, BuildingBlock: CEKHIL_clean_sbu_0, # of connection points: 4
#     Node 2, Type 0, BuildingBlock: CEKHIL_clean_sbu_0, # of connection points: 4
#     Node 3, Type 0, BuildingBlock: CEKHIL_clean_sbu_0, # of connection points: 4
#     Node 4, Type 0, BuildingBlock: CEKHIL_clean_sbu_0, # of connection points: 4
#     Node 5, Type 0, BuildingBlock: CEKHIL_clean_sbu_0, # of connection points: 4
#     Node 6, Type 0, BuildingBlock: CEKHIL_clean_sbu_0, # of connection points: 4
#     Node 7, Type 0, BuildingBlock: CEKHIL_clean_sbu_0, # of connection points: 4
#     Node 8, Type 0, BuildingBlock: CEKHIL_clean_sbu_0, # of connection points: 4
#     Node 9, Type 0, BuildingBlock: CEKHIL_clean_sbu_0, # of connection points: 4
#     Node 10, Type 0, BuildingBlock: CEKHIL_clean_sbu_0, # of connection points: 4
#     Node 11, Type 0, BuildingBlock: CEKHIL_clean_sbu_0, # of connection points: 4
#     Node 12, Type 0, BuildingBlock: CEKHIL_clean_sbu_0, # of connection points: 4
#     Node 13, Type 0, BuildingBlock: CEKHIL_clean_sbu_0, # of connection points: 4
#     Node 14, Type 0, BuildingBlock: CEKHIL_clean_sbu_0, # of connection points: 4
#     Node 15, Type 0, BuildingBlock: CEKHIL_clean_sbu_0, # of connection points: 4
#     Node 16, Type 0, BuildingBlock: CEKHIL_clean_sbu_0, # of connection points: 4
#     Node 17, Type 0, BuildingBlock: CEKHIL_clean_sbu_0, # of connection points: 4
#     Node 18, Type 0, BuildingBlock: CEKHIL_clean_sbu_0, # of connection points: 4
#     Node 19, Type 0, BuildingBlock: CEKHIL_clean_sbu_0, # of connection points: 4
#     Node 20, Type 0, BuildingBlock: CEKHIL_clean_sbu_0, # of connection points: 4
#     Node 21, Type 0, BuildingBlock: CEKHIL_clean_sbu_0, # of connection points: 4
#     Node 22, Type 0, BuildingBlock: CEKHIL_clean_sbu_0, # of connection points: 4
#     Node 23, Type 0, BuildingBlock: CEKHIL_clean_sbu_0, # of connection points: 4
#     Node 24, Type 0, BuildingBlock: CEKHIL_clean_sbu_0, # of connection points: 4
#     Node 25, Type 0, BuildingBlock: CEKHIL_clean_sbu_0, # of connection points: 4
#     Node 26, Type 0, BuildingBlock: CEKHIL_clean_sbu_0, # of connection points: 4
#     Node 27, Type 0, BuildingBlock: CEKHIL_clean_sbu_0, # of connection points: 4
#     Node 28, Type 0, BuildingBlock: CEKHIL_clean_sbu_0, # of connection points: 4
#     Node 29, Type 0, BuildingBlock: CEKHIL_clean_sbu_0, # of connection points: 4
#     Node 30, Type 0, BuildingBlock: CEKHIL_clean_sbu_0, # of connection points: 4
#     Node 31, Type 0, BuildingBlock: CEKHIL_clean_sbu_0, # of connection points: 4
#     Edge 32, Type (0, 0), BuildingBlock: KIFKEQ_clean_linker_1, # of connection points: 2
#     Edge 33, Type (0, 0), BuildingBlock: KIFKEQ_clean_linker_1, # of connection points: 2
#     Edge 34, Type (0, 0), BuildingBlock: KIFKEQ_clean_linker_1, # of connection points: 2
#     Edge 35, Type (0, 0), BuildingBlock: KIFKEQ_clean_linker_1, # of connection points: 2
#     Edge 36, Type (0, 0), BuildingBlock: KIFKEQ_clean_linker_1, # of connection points: 2
#     Edge 37, Type (0, 0), BuildingBlock: KIFKEQ_clean_linker_1, # of connection points: 2
#     Edge 38, Type (0, 0), BuildingBlock: KIFKEQ_clean_linker_1, # of connection points: 2
#     Edge 39, Type (0, 0), BuildingBlock: KIFKEQ_clean_linker_1, # of connection points: 2
#     Edge 40, Type (0, 0), BuildingBlock: KIFKEQ_clean_linker_1, # of connection points: 2
#     Edge 41, Type (0, 0), BuildingBlock: KIFKEQ_clean_linker_1, # of connection points: 2
#     Edge 42, Type (0, 0), BuildingBlock: KIFKEQ_clean_linker_1, # of connection points: 2
#     Edge 43, Type (0, 0), BuildingBlock: KIFKEQ_clean_linker_1, # of connection points: 2
#     Edge 44, Type (0, 0), BuildingBlock: KIFKEQ_clean_linker_1, # of connection points: 2
#     Edge 45, Type (0, 0), BuildingBlock: KIFKEQ_clean_linker_1, # of connection points: 2
#     Edge 46, Type (0, 0), BuildingBlock: KIFKEQ_clean_linker_1, # of connection points: 2
#     Edge 47, Type (0, 0), BuildingBlock: KIFKEQ_clean_linker_1, # of connection points: 2
#     Edge 48, Type (0, 0), BuildingBlock: KIFKEQ_clean_linker_1, # of connection points: 2
#     Edge 49, Type (0, 0), BuildingBlock: KIFKEQ_clean_linker_1, # of connection points: 2
#     Edge 50, Type (0, 0), BuildingBlock: KIFKEQ_clean_linker_1, # of connection points: 2
#     Edge 51, Type (0, 0), BuildingBlock: KIFKEQ_clean_linker_1, # of connection points: 2
#     Edge 52, Type (0, 0), BuildingBlock: KIFKEQ_clean_linker_1, # of connection points: 2
#     Edge 53, Type (0, 0), BuildingBlock: KIFKEQ_clean_linker_1, # of connection points: 2
#     Edge 54, Type (0, 0), BuildingBlock: KIFKEQ_clean_linker_1, # of connection points: 2
#     Edge 55, Type (0, 0), BuildingBlock: KIFKEQ_clean_linker_1, # of connection points: 2
#     Edge 56, Type (0, 0), BuildingBlock: KIFKEQ_clean_linker_1, # of connection points: 2
#     Edge 57, Type (0, 0), BuildingBlock: KIFKEQ_clean_linker_1, # of connection points: 2
#     Edge 58, Type (0, 0), BuildingBlock: KIFKEQ_clean_linker_1, # of connection points: 2
#     Edge 59, Type (0, 0), BuildingBlock: KIFKEQ_clean_linker_1, # of connection points: 2
#     Edge 60, Type (0, 0), BuildingBlock: KIFKEQ_clean_linker_1, # of connection points: 2
#     Edge 61, Type (0, 0), BuildingBlock: KIFKEQ_clean_linker_1, # of connection points: 2
#     Edge 62, Type (0, 0), BuildingBlock: KIFKEQ_clean_linker_1, # of connection points: 2
#     Edge 63, Type (0, 0), BuildingBlock: KIFKEQ_clean_linker_1, # of connection points: 2
#     Edge 64, Type (0, 0), BuildingBlock: KIFKEQ_clean_linker_1, # of connection points: 2
#     Edge 65, Type (0, 0), BuildingBlock: KIFKEQ_clean_linker_1, # of connection points: 2
#     Edge 66, Type (0, 0), BuildingBlock: KIFKEQ_clean_linker_1, # of connection points: 2
#     Edge 67, Type (0, 0), BuildingBlock: KIFKEQ_clean_linker_1, # of connection points: 2
#     Edge 68, Type (0, 0), BuildingBlock: KIFKEQ_clean_linker_1, # of connection points: 2
#     Edge 69, Type (0, 0), BuildingBlock: KIFKEQ_clean_linker_1, # of connection points: 2
#     Edge 70, Type (0, 0), BuildingBlock: KIFKEQ_clean_linker_1, # of connection points: 2
#     Edge 71, Type (0, 0), BuildingBlock: KIFKEQ_clean_linker_1, # of connection points: 2
#     Edge 72, Type (0, 0), BuildingBlock: KIFKEQ_clean_linker_1, # of connection points: 2
#     Edge 73, Type (0, 0), BuildingBlock: KIFKEQ_clean_linker_1, # of connection points: 2
#     Edge 74, Type (0, 0), BuildingBlock: KIFKEQ_clean_linker_1, # of connection points: 2
#     Edge 75, Type (0, 0), BuildingBlock: KIFKEQ_clean_linker_1, # of connection points: 2
#     Edge 76, Type (0, 0), BuildingBlock: KIFKEQ_clean_linker_1, # of connection points: 2
#     Edge 77, Type (0, 0), BuildingBlock: KIFKEQ_clean_linker_1, # of connection points: 2
#     Edge 78, Type (0, 0), BuildingBlock: KIFKEQ_clean_linker_1, # of connection points: 2
#     Edge 79, Type (0, 0), BuildingBlock: KIFKEQ_clean_linker_1, # of connection points: 2
#     Edge 80, Type (0, 0), BuildingBlock: KIFKEQ_clean_linker_1, # of connection points: 2
#     Edge 81, Type (0, 0), BuildingBlock: KIFKEQ_clean_linker_1, # of connection points: 2
#     Edge 82, Type (0, 0), BuildingBlock: KIFKEQ_clean_linker_1, # of connection points: 2
#     Edge 83, Type (0, 0), BuildingBlock: KIFKEQ_clean_linker_1, # of connection points: 2
#     Edge 84, Type (0, 0), BuildingBlock: KIFKEQ_clean_linker_1, # of connection points: 2
#     Edge 85, Type (0, 0), BuildingBlock: KIFKEQ_clean_linker_1, # of connection points: 2
#     Edge 86, Type (0, 0), BuildingBlock: KIFKEQ_clean_linker_1, # of connection points: 2
#     Edge 87, Type (0, 0), BuildingBlock: KIFKEQ_clean_linker_1, # of connection points: 2
#     Edge 88, Type (0, 0), BuildingBlock: KIFKEQ_clean_linker_1, # of connection points: 2
#     Edge 89, Type (0, 0), BuildingBlock: KIFKEQ_clean_linker_1, # of connection points: 2
#     Edge 90, Type (0, 0), BuildingBlock: KIFKEQ_clean_linker_1, # of connection points: 2
#     Edge 91, Type (0, 0), BuildingBlock: KIFKEQ_clean_linker_1, # of connection points: 2
#     Edge 92, Type (0, 0), BuildingBlock: KIFKEQ_clean_linker_1, # of connection points: 2
#     Edge 93, Type (0, 0), BuildingBlock: KIFKEQ_clean_linker_1, # of connection points: 2
#     Edge 94, Type (0, 0), BuildingBlock: KIFKEQ_clean_linker_1, # of connection points: 2
#     Edge 95, Type (0, 0), BuildingBlock: KIFKEQ_clean_linker_1, # of connection points: 2
# Relax obj value: 0.248
# Max RMSD: 0.190
# Mean RMSD: 0.187
data_MOF--net-ukm--node1-CEKHIL_clean_sbu_0--edge1-KIFKEQ_clean_linker_1
_symmetry_space_group_name_H-M    P1
_symmetry_Int_Tables_number       1
_symmetry_cell_setting            triclinic
loop_
_symmetry_equiv_pos_as_xyz
'x, y, z'
_cell_length_a     23.717118
_cell_length_b     104.50876
_cell_length_c     43.551776
_cell_angle_alpha  90.02191
_cell_angle_beta   89.981889
_cell_angle_gamma 90.054162
loop_
_atom_site_label
_atom_site_type_symbol
_atom_site_fract_x
_atom_site_fract_y
_atom_site_fract_z
_atom_type_partial_charge
Co0 Co 0.10284 0.31446 0.2784 0.0
O1 O 0.11586 0.29929 0.25486 0.0
O2 O 0.03249 0.30501 0.27281 0.0
C3 C 0.17897 0.31129 0.30815 0.0
O4 O 0.07515 0.32972 0.30408 0.0
Co5 Co 0.19468 0.33594 0.27945 0.0
O6 O 0.1506 0.34203 0.31505 0.0
C7 C 0.12342 0.33176 0.22445 0.0
C8 C 0.06264 0.2968 0.25736 0.0
C9 C 0.09898 0.33903 0.31862 0.0
O10 O 0.09039 0.32427 0.23951 0.0
O11 O 0.16886 0.33648 0.23565 0.0
O12 O 0.13145 0.30581 0.31528 0.0
O13 O 0.1787 0.31797 0.28342 0.0
Co14 Co 0.1318 0.9397 0.29054 0.0
O15 O 0.11441 0.95515 0.26877 0.0
O16 O 0.20066 0.94893 0.28112 0.0
C17 C 0.06295 0.94229 0.32539 0.0
O18 O 0.16534 0.92434 0.31309 0.0
Co19 Co 0.04136 0.91796 0.29558 0.0
O20 O 0.09509 0.91078 0.32575 0.0
C21 C 0.09566 0.92426 0.23663 0.0
C22 C 0.16817 0.95736 0.26804 0.0
C23 C 0.14645 0.91432 0.32694 0.0
O24 O 0.13532 0.93026 0.25069 0.0
O25 O 0.05163 0.91988 0.25004 0.0
O26 O 0.11109 0.94805 0.32943 0.0
O27 O 0.05798 0.93589 0.30036 0.0
Co28 Co 0.11181 0.94136 0.94787 0.0
O29 O 0.12495 0.95776 0.96626 0.0
O30 O 0.04196 0.95109 0.94915 0.0
C31 C 0.18842 0.94159 0.91744 0.0
O32 O 0.08409 0.92482 0.9275 0.0
Co33 Co 0.203 0.92008 0.95957 0.0
O34 O 0.1498 0.9095 0.93557 0.0
C35 C 0.13364 0.93023 0.00925 0.0
C36 C 0.07163 0.95995 0.96269 0.0
C37 C 0.10238 0.91322 0.92501 0.0
O38 O 0.09685 0.93418 0.98984 0.0
O39 O 0.18226 0.92602 0.00168 0.0
O40 O 0.14283 0.94741 0.90844 0.0
O41 O 0.18704 0.93705 0.94479 0.0
Co42 Co 0.14005 0.30851 0.94697 0.0
O43 O 0.1281 0.29307 0.96969 0.0
O44 O 0.21211 0.30103 0.95856 0.0
C45 C 0.07578 0.30355 0.91127 0.0
O46 O 0.16783 0.32429 0.92354 0.0
Co47 Co 0.0408 0.32766 0.93688 0.0
O48 O 0.09243 0.33516 0.90604 0.0
C49 C 0.09569 0.32524 -0.00238 0.0
C50 C 0.18238 0.29204 0.97156 0.0
C51 C 0.14537 0.3332 0.90715 0.0
O52 O 0.13617 0.31862 0.98602 0.0
O53 O 0.05209 0.32873 0.98243 0.0
O54 O 0.12687 0.29921 0.90834 0.0
O55 O 0.06537 0.31012 0.93549 0.0
Co56 Co 0.90002 0.6827 0.69867 0.0
O57 O 0.9413 0.67638 0.73387 0.0
O58 O 0.85579 0.68503 0.7345 0.0
C59 C 0.91501 0.66585 0.6678 0.0
O60 O 0.84057 0.68946 0.67023 0.0
Co61 Co 0.94616 0.68953 0.63593 0.0
O62 O 0.86674 0.68973 0.62114 0.0
C63 C 0.95981 0.70801 0.68655 0.0
C64 C 0.89663 0.67968 0.74943 0.0
C65 C 0.82908 0.69076 0.64176 0.0
O66 O 0.93346 0.7002 0.70418 0.0
O67 O 0.9708 0.7055 0.6584 0.0
O68 O 0.87614 0.6656 0.68876 0.0
O69 O 0.94711 0.67594 0.6671 0.0
Co70 Co 0.84858 0.06988 0.69337 0.0
O71 O 0.80114 0.0719 0.72907 0.0
O72 O 0.89323 0.06777 0.72917 0.0
C73 C 0.82051 0.08703 0.66692 0.0
O74 O 0.91297 0.06797 0.66381 0.0
Co75 Co 0.80642 0.06391 0.62862 0.0
O76 O 0.88563 0.06663 0.6147 0.0
C77 C 0.80275 0.04371 0.67539 0.0
C78 C 0.84747 0.06999 0.74449 0.0
C79 C 0.92379 0.06764 0.63507 0.0
O80 O 0.83187 0.05104 0.69289 0.0
O81 O 0.78404 0.04736 0.64924 0.0
O82 O 0.85621 0.08809 0.68936 0.0
O83 O 0.79745 0.07585 0.66312 0.0
Co84 Co 0.88865 0.07038 0.0247 0.0
O85 O 0.93184 0.07182 0.98736 0.0
O86 O 0.84035 0.06728 0.99061 0.0
C87 C 0.92052 0.08834 0.04724 0.0
O88 O 0.82797 0.06859 0.05657 0.0
Co89 Co 0.93804 0.06658 0.08894 0.0
O90 O 0.85989 0.06913 0.10479 0.0
C91 C 0.94112 0.04536 0.04443 0.0
C92 C 0.88425 0.06938 0.97362 0.0
C93 C 0.81949 0.06881 0.08556 0.0
O94 O 0.90725 0.05167 0.02719 0.0
O95 O 0.96291 0.05006 0.06888 0.0
O96 O 0.88095 0.08878 0.02667 0.0
O97 O 0.94292 0.07719 0.05205 0.0
Co98 Co 0.8481 0.6837 0.02766 0.0
O99 O 0.80606 0.67879 0.99153 0.0
O100 O 0.89424 0.68597 -0.00761 0.0
C101 C 0.82525 0.66653 0.05598 0.0
O102 O 0.90851 0.68882 0.05758 0.0
Co103 Co 0.80121 0.69013 0.09061 0.0
O104 O 0.87996 0.68994 0.10624 0.0
C105 C 0.79284 0.70936 0.04145 0.0
C106 C 0.85215 0.68158 0.97665 0.0
C107 C 0.91888 0.6902 0.08618 0.0
O108 O 0.82054 0.70178 0.02387 0.0
O109 O 0.77858 0.70639 0.0689 0.0
O110 O 0.86508 0.66603 0.03557 0.0
O111 O 0.79753 0.67723 0.05783 0.0
Co112 Co 0.12053 0.81304 0.77748 0.0
O113 O 0.13355 0.79585 0.76375 0.0
O114 O 0.05005 0.80347 0.77724 0.0
C115 C 0.19711 0.81311 0.80789 0.0
O116 O 0.09214 0.83028 0.79406 0.0
Co117 Co 0.21245 0.83412 0.76584 0.0
O118 O 0.15996 0.84527 0.78838 0.0
C119 C 0.14651 0.8229 0.71513 0.0
C120 C 0.08011 0.79387 0.76744 0.0
C121 C 0.11094 0.84182 0.79703 0.0
O122 O 0.10891 0.81859 0.73378 0.0
O123 O 0.19304 0.8279 0.72391 0.0
O124 O 0.14995 0.80844 0.8184 0.0
O125 O 0.19595 0.81711 0.78013 0.0
Co126 Co 0.13516 0.43855 0.78305 0.0
O127 O 0.11931 0.45388 0.76046 0.0
O128 O 0.20277 0.449 0.77982 0.0
C129 C 0.05634 0.43971 0.8117 0.0
O130 O 0.16618 0.42353 0.80815 0.0
Co131 Co 0.05069 0.41545 0.78006 0.0
O132 O 0.09646 0.40907 0.81472 0.0
C133 C 0.12 0.42285 0.7267 0.0
C134 C 0.17168 0.457 0.76436 0.0
C135 C 0.14575 0.41329 0.82042 0.0
O136 O 0.15326 0.42952 0.74363 0.0
O137 O 0.07403 0.41781 0.73623 0.0
O138 O 0.10079 0.44617 0.81998 0.0
O139 O 0.06069 0.43354 0.78635 0.0
Co140 Co 0.12905 0.44335 0.45104 0.0
O141 O 0.13761 0.45796 0.47735 0.0
O142 O 0.05554 0.4503 0.46146 0.0
C143 C 0.19686 0.44963 0.41857 0.0
O144 O 0.10427 0.42836 0.42389 0.0
Co145 Co 0.22957 0.42465 0.44062 0.0
O146 O 0.18056 0.41732 0.40824 0.0
C147 C 0.16989 0.42564 0.50004 0.0
C148 C 0.08315 0.45879 0.47741 0.0
C149 C 0.12775 0.41951 0.40771 0.0
O150 O 0.12907 0.43195 0.48791 0.0
O151 O 0.2159 0.42302 0.48599 0.0
O152 O 0.14588 0.45393 0.41492 0.0
O153 O 0.20513 0.44224 0.44168 0.0
Co154 Co 0.13875 0.80764 0.43141 0.0
O155 O 0.12356 0.79228 0.45379 0.0
O156 O 0.20866 0.79853 0.43917 0.0
C157 C 0.06669 0.80476 0.39901 0.0
O158 O 0.16973 0.82303 0.40782 0.0
Co159 Co 0.04818 0.8292 0.42905 0.0
O160 O 0.09791 0.83637 0.39688 0.0
C161 C 0.10749 0.82283 0.48648 0.0
C162 C 0.17737 0.79021 0.45355 0.0
C163 C 0.1492 0.83294 0.39425 0.0
O164 O 0.14581 0.81701 0.47104 0.0
O165 O 0.06277 0.82745 0.4743 0.0
O166 O 0.11475 0.79926 0.3932 0.0
O167 O 0.06379 0.8112 0.42406 0.0
Co168 Co 0.90729 0.18486 0.19447 0.0
O169 O 0.95129 0.18494 0.23178 0.0
O170 O 0.85856 0.18767 0.22841 0.0
C171 C 0.94413 0.16733 0.17269 0.0
O172 O 0.84578 0.18462 0.16277 0.0
Co173 Co 0.95478 0.18935 0.13 0.0
O174 O 0.87758 0.18565 0.11437 0.0
C175 C 0.94695 0.21105 0.17256 0.0
C176 C 0.90318 0.18693 0.24546 0.0
C177 C 0.83784 0.1844 0.13375 0.0
O178 O 0.918 0.20385 0.19045 0.0
O179 O 0.96984 0.20686 0.1479 0.0
O180 O 0.90666 0.16642 0.19433 0.0
O181 O 0.96304 0.17877 0.16699 0.0
Co182 Co 0.84813 0.57008 0.20369 0.0
O183 O 0.79995 0.56878 0.23937 0.0
O184 O 0.89354 0.5671 0.23878 0.0
C185 C 0.81055 0.58769 0.18272 0.0
O186 O 0.91324 0.57128 0.17441 0.0
Co187 Co 0.8102 0.56683 0.13698 0.0
O188 O 0.88872 0.57154 0.12494 0.0
C189 C 0.81233 0.54444 0.17779 0.0
C190 C 0.847 0.56708 0.2543 0.0
C191 C 0.92582 0.5723 0.14599 0.0
O192 O 0.84064 0.55117 0.19701 0.0
O193 O 0.79152 0.54918 0.15315 0.0
O194 O 0.84555 0.58852 0.20557 0.0
O195 O 0.79478 0.57622 0.17507 0.0
Co196 Co 0.88715 0.56493 0.53158 0.0
O197 O 0.93156 0.56367 0.49458 0.0
O198 O 0.84033 0.55913 0.49899 0.0
C199 C 0.91582 0.58439 0.54703 0.0
O200 O 0.82534 0.56563 0.5629 0.0
Co201 Co 0.93507 0.56567 0.5968 0.0
O202 O 0.85644 0.56952 0.61045 0.0
C203 C 0.94043 0.5418 0.56151 0.0
C204 C 0.88452 0.5601 0.48167 0.0
C205 C 0.81649 0.56824 0.59115 0.0
O206 O 0.90593 0.54677 0.54227 0.0
O207 O 0.96241 0.54816 0.58363 0.0
O208 O 0.87835 0.5831 0.52552 0.0
O209 O 0.93958 0.57389 0.5564 0.0
Co210 Co 0.85003 0.18697 0.52488 0.0
O211 O 0.80885 0.18468 0.48716 0.0
O212 O 0.89648 0.19203 0.49133 0.0
C213 C 0.82865 0.16793 0.54565 0.0
O214 O 0.90868 0.19011 0.55733 0.0
Co215 Co 0.79781 0.18877 0.5885 0.0
O216 O 0.87589 0.18719 0.60488 0.0
C217 C 0.79061 0.21104 0.5475 0.0
C218 C 0.8545 0.18885 0.47386 0.0
C219 C 0.91634 0.1892 0.5863 0.0
O220 O 0.82152 0.20489 0.52844 0.0
O221 O 0.77311 0.2061 0.57268 0.0
O222 O 0.86859 0.16909 0.52545 0.0
O223 O 0.79928 0.17818 0.55128 0.0
Co224 Co 0.632 0.31322 0.78286 0.0
O225 O 0.64237 0.29633 0.7668 0.0
O226 O 0.55927 0.30493 0.77753 0.0
C227 C 0.70161 0.31159 0.81761 0.0
O228 O 0.60641 0.33041 0.8004 0.0
Co229 Co 0.73291 0.33259 0.77696 0.0
O230 O 0.67928 0.34429 0.7975 0.0
C231 C 0.66766 0.32486 0.72307 0.0
C232 C 0.58804 0.29515 0.7676 0.0
C233 C 0.62823 0.34161 0.80418 0.0
O234 O 0.62831 0.32034 0.7402 0.0
O235 O 0.71571 0.32853 0.73307 0.0
O236 O 0.65207 0.30695 0.82406 0.0
O237 O 0.7076 0.31603 0.79036 0.0
Co238 Co 0.64009 0.94091 0.78384 0.0
O239 O 0.62254 0.9569 0.76451 0.0
O240 O 0.70796 0.95118 0.77959 0.0
C241 C 0.56626 0.94104 0.81622 0.0
O242 O 0.67284 0.92514 0.80522 0.0
Co243 Co 0.55261 0.91846 0.77742 0.0
O244 O 0.60957 0.90901 0.80149 0.0
C245 C 0.61573 0.92792 0.72452 0.0
C246 C 0.67569 0.95966 0.76651 0.0
C247 C 0.65711 0.91349 0.81001 0.0
O248 O 0.65261 0.93305 0.74229 0.0
O249 O 0.56903 0.92324 0.73395 0.0
O250 O 0.61155 0.94742 0.82337 0.0
O251 O 0.56605 0.93594 0.78943 0.0
Co252 Co 0.61838 0.94492 0.44786 0.0
O253 O 0.62864 0.95939 0.47431 0.0
O254 O 0.54567 0.95225 0.45818 0.0
C255 C 0.68724 0.95081 0.41568 0.0
O256 O 0.5918 0.93017 0.42066 0.0
Co257 Co 0.71645 0.92557 0.43728 0.0
O258 O 0.66636 0.91857 0.40499 0.0
C259 C 0.65809 0.92737 0.497 0.0
C260 C 0.57426 0.96049 0.47436 0.0
C261 C 0.6139 0.92116 0.40449 0.0
O262 O 0.61701 0.93351 0.48464 0.0
O263 O 0.70383 0.92459 0.48286 0.0
O264 O 0.63686 0.95544 0.41183 0.0
O265 O 0.69419 0.9433 0.43868 0.0
Co266 Co 0.6229 0.31392 0.44633 0.0
O267 O 0.60924 0.29929 0.47179 0.0
O268 O 0.69284 0.30469 0.45328 0.0
C269 C 0.54708 0.31018 0.41684 0.0
O270 O 0.65218 0.32842 0.41913 0.0
Co271 Co 0.53262 0.33559 0.44178 0.0
O272 O 0.57993 0.34146 0.40707 0.0
C273 C 0.59928 0.33162 0.49825 0.0
C274 C 0.66257 0.29682 0.46967 0.0
C275 C 0.63096 0.33788 0.4041 0.0
O276 O 0.63492 0.32462 0.48374 0.0
O277 O 0.55318 0.33571 0.48652 0.0
O278 O 0.5945 0.3045 0.41046 0.0
O279 O 0.54732 0.31747 0.44057 0.0
Co280 Co 0.39804 0.68449 0.20466 0.0
O281 O 0.44131 0.68205 0.24168 0.0
O282 O 0.35033 0.68704 0.23922 0.0
C283 C 0.42823 0.66707 0.17959 0.0
O284 O 0.33716 0.68705 0.17324 0.0
Co285 Co 0.44725 0.69017 0.14145 0.0
O286 O 0.3689 0.68931 0.12522 0.0
C287 C 0.44767 0.71046 0.188 0.0
C288 C 0.39418 0.68452 0.25588 0.0
C289 C 0.32869 0.68836 0.14443 0.0
O290 O 0.41708 0.70319 0.20486 0.0
O291 O 0.46837 0.70675 0.16235 0.0
O292 O 0.38915 0.66628 0.20039 0.0
O293 O 0.45182 0.67821 0.17613 0.0
Co294 Co 0.34125 0.06802 0.21086 0.0
O295 O 0.29759 0.06882 0.24827 0.0
O296 O 0.38856 0.06398 0.24472 0.0
C297 C 0.31101 0.08637 0.18985 0.0
O298 O 0.40253 0.06674 0.17912 0.0
Co299 Co 0.29292 0.06533 0.14598 0.0
O300 O 0.37105 0.06862 0.131 0.0
C301 C 0.29204 0.04301 0.18721 0.0
C302 C 0.34454 0.06568 0.26185 0.0
C303 C 0.41124 0.06777 0.15025 0.0
O304 O 0.32212 0.04947 0.20616 0.0
O305 O 0.27214 0.04785 0.16245 0.0
O306 O 0.34971 0.08642 0.21097 0.0
O307 O 0.28807 0.07536 0.18387 0.0
Co308 Co 0.4028 0.06861 0.54069 0.0
O309 O 0.44422 0.06855 0.50261 0.0
O310 O 0.35293 0.06429 0.50798 0.0
C311 C 0.43587 0.08715 0.55943 0.0
O312 O 0.34405 0.06832 0.5739 0.0
Co313 Co 0.45794 0.06665 0.60454 0.0
O314 O 0.38079 0.06953 0.62132 0.0
C315 C 0.45424 0.04403 0.56463 0.0
C316 C 0.39615 0.06558 0.49 0.0
C317 C 0.33897 0.06922 0.60304 0.0
O318 O 0.42001 0.05002 0.54698 0.0
O319 O 0.47911 0.04934 0.58741 0.0
O320 O 0.39627 0.08704 0.53883 0.0
O321 O 0.4584 0.07616 0.56585 0.0
Co322 Co 0.34686 0.68211 0.53602 0.0
O323 O 0.30393 0.68025 0.49867 0.0
O324 O 0.39566 0.68443 0.50184 0.0
C325 C 0.31312 0.66488 0.56045 0.0
O326 O 0.40749 0.68403 0.56782 0.0
Co327 Co 0.29759 0.68786 0.59932 0.0
O328 O 0.37587 0.68705 0.61565 0.0
C329 C 0.30093 0.70831 0.55324 0.0
C330 C 0.35171 0.68244 0.48483 0.0
C331 C 0.41593 0.68559 0.59655 0.0
O332 O 0.33098 0.70093 0.53636 0.0
O333 O 0.27909 0.70461 0.57862 0.0
O334 O 0.35241 0.66381 0.53983 0.0
O335 O 0.29159 0.67621 0.56409 0.0
Co336 Co 0.60084 0.81305 0.30075 0.0
O337 O 0.61896 0.79704 0.28184 0.0
O338 O 0.53268 0.80299 0.29482 0.0
C339 C 0.67272 0.81232 0.33416 0.0
O340 O 0.56758 0.82907 0.32097 0.0
Co341 Co 0.68963 0.83528 0.29746 0.0
O342 O 0.63783 0.84346 0.32704 0.0
C343 C 0.62981 0.82624 0.24226 0.0
C344 C 0.56558 0.79445 0.28238 0.0
C345 C 0.58728 0.83974 0.33132 0.0
O346 O 0.59244 0.82079 0.25913 0.0
O347 O 0.67433 0.83152 0.25308 0.0
O348 O 0.62599 0.80636 0.34065 0.0
O349 O 0.67473 0.81767 0.30767 0.0
Co350 Co 0.63848 0.44365 0.28819 0.0
O351 O 0.62396 0.45921 0.26613 0.0
O352 O 0.70898 0.45218 0.27843 0.0
C353 C 0.57068 0.44682 0.32336 0.0
O354 O 0.66919 0.42801 0.31101 0.0
Co355 Co 0.54389 0.42279 0.29405 0.0
O356 O 0.59609 0.41544 0.32473 0.0
C357 C 0.60216 0.42725 0.2351 0.0
C358 C 0.67811 0.46087 0.26517 0.0
C359 C 0.64821 0.41836 0.32548 0.0
O360 O 0.64028 0.43401 0.24847 0.0
O361 O 0.55816 0.42298 0.24874 0.0
O362 O 0.61953 0.45229 0.3271 0.0
O363 O 0.56415 0.44053 0.29831 0.0
Co364 Co 0.61234 0.44047 0.95126 0.0
O365 O 0.63141 0.45599 0.9724 0.0
O366 O 0.54476 0.4504 0.95908 0.0
C367 C 0.68238 0.44166 0.91672 0.0
O368 O 0.57768 0.4252 0.92861 0.0
Co369 Co 0.70109 0.41813 0.95109 0.0
O370 O 0.64299 0.40947 0.9262 0.0
C371 C 0.63928 0.42473 0.00729 0.0
C372 C 0.57804 0.45865 0.97233 0.0
C373 C 0.59403 0.41391 0.92062 0.0
O374 O 0.60414 0.43153 -0.0082 0.0
O375 O 0.68385 0.41982 -0.00429 0.0
O376 O 0.63625 0.44809 0.91198 0.0
O377 O 0.68583 0.43587 0.94264 0.0
Co378 Co 0.63627 0.81479 0.95153 0.0
O379 O 0.62045 0.79732 0.96201 0.0
O380 O 0.70618 0.80526 0.95498 0.0
C381 C 0.56787 0.81625 0.9161 0.0
O382 O 0.66788 0.83231 0.93922 0.0
Co383 Co 0.54289 0.83555 0.96215 0.0
O384 O 0.59959 0.8472 0.94428 0.0
C385 C 0.59825 0.82278 0.01382 0.0
C386 C 0.67446 0.79548 0.96172 0.0
C387 C 0.64974 0.84392 0.93729 0.0
O388 O 0.63908 0.81926 -0.00368 0.0
O389 O 0.55301 0.82792 0.00372 0.0
O390 O 0.61615 0.81123 0.90851 0.0
O391 O 0.56224 0.81924 0.94449 0.0
Co392 Co 0.39701 0.18495 0.70765 0.0
O393 O 0.44128 0.18191 0.74416 0.0
O394 O 0.35161 0.18802 0.74287 0.0
C395 C 0.42252 0.16723 0.68217 0.0
O396 O 0.33506 0.18838 0.67721 0.0
Co397 Co 0.44285 0.18986 0.64331 0.0
O398 O 0.36394 0.18804 0.62845 0.0
C399 C 0.44909 0.21046 0.68925 0.0
C400 C 0.39547 0.18497 0.75898 0.0
C401 C 0.32483 0.18861 0.64839 0.0
O402 O 0.42084 0.20333 0.70762 0.0
O403 O 0.46493 0.20673 0.66259 0.0
O404 O 0.38386 0.16684 0.70329 0.0
O405 O 0.44792 0.17813 0.67837 0.0
Co406 Co 0.33605 0.56885 0.70762 0.0
O407 O 0.29266 0.56859 0.74512 0.0
O408 O 0.38512 0.56551 0.74106 0.0
C409 C 0.29955 0.58668 0.68724 0.0
O410 O 0.3973 0.56912 0.67581 0.0
Co411 Co 0.28841 0.5654 0.6429 0.0
O412 O 0.36564 0.56933 0.62747 0.0
C413 C 0.29307 0.54325 0.68429 0.0
C414 C 0.34087 0.56629 0.75838 0.0
C415 C 0.40566 0.56994 0.64688 0.0
O416 O 0.32357 0.54999 0.70245 0.0
O417 O 0.27055 0.54789 0.66 0.0
O418 O 0.33788 0.5873 0.70849 0.0
O419 O 0.28029 0.57534 0.68088 0.0
Co420 Co 0.40491 0.56861 0.03669 0.0
O421 O 0.4459 0.56983 -0.00145 0.0
O422 O 0.3557 0.56443 0.00377 0.0
C423 C 0.43468 0.58707 0.05734 0.0
O424 O 0.34604 0.56682 0.0695 0.0
Co425 Co 0.45725 0.56596 0.10048 0.0
O426 O 0.38048 0.56993 0.11669 0.0
C427 C 0.45717 0.54372 0.05885 0.0
C428 C 0.39833 0.5665 0.98584 0.0
C429 C 0.33925 0.56845 0.09834 0.0
O430 O 0.42609 0.55018 0.04048 0.0
O431 O 0.47782 0.5485 0.08353 0.0
O432 O 0.39443 0.58692 0.03712 0.0
O433 O 0.45918 0.57619 0.06279 0.0
Co434 Co 0.35402 0.18236 0.03964 0.0
O435 O 0.31008 0.18167 0.0024 0.0
O436 O 0.40253 0.1849 0.00534 0.0
C437 C 0.31786 0.16495 0.06241 0.0
O438 O 0.41554 0.1829 0.07137 0.0
Co439 Co 0.3061 0.18709 0.10411 0.0
O440 O 0.38371 0.18404 0.11977 0.0
C441 C 0.31193 0.20847 0.06032 0.0
C442 C 0.35798 0.18356 0.98843 0.0
C443 C 0.42354 0.18299 0.10039 0.0
O444 O 0.34135 0.20134 0.04246 0.0
O445 O 0.28975 0.2043 0.08521 0.0
O446 O 0.35608 0.16391 0.04119 0.0
O447 O 0.29854 0.17639 0.06737 0.0
H448 H 0.13739 0.41124 0.34887 0.0
H449 H 0.04253 0.4055 0.43222 0.0
H450 H 0.10012 0.39118 0.32829 0.0
H451 H 0.00698 0.38507 0.41212 0.0
H452 H 0.02512 0.35575 0.29412 0.0
H453 H 0.00633 0.37705 0.31528 0.0
H454 H 0.0822 0.36565 0.40099 0.0
H455 H 0.10286 0.34458 0.37939 0.0
C456 C 0.10675 0.40592 0.36223 0.0
C457 C 0.09246 0.40992 0.39196 0.0
C458 C 0.08537 0.39445 0.35049 0.0
C459 C 0.0507 0.38658 0.36866 0.0
C460 C 0.03326 0.39101 0.3976 0.0
C461 C 0.05336 0.40271 0.40899 0.0
C462 C 0.03472 0.35757 0.31805 0.0
C463 C 0.06498 0.34853 0.33527 0.0
C464 C 0.02445 0.36979 0.33004 0.0
C465 C 0.04315 0.373 0.35967 0.0
C466 C 0.06684 0.36339 0.3782 0.0
C467 C 0.07841 0.3513 0.36593 0.0
H468 H 0.22743 0.90133 0.29651 0.0
H469 H 0.14961 0.90551 0.38539 0.0
H470 H 0.26121 0.88003 0.31104 0.0
H471 H 0.18507 0.88453 0.4004 0.0
H472 H 0.14431 0.84191 0.33602 0.0
H473 H 0.1786 0.86283 0.31968 0.0
H474 H 0.26748 0.86704 0.40555 0.0
H475 H 0.23475 0.84579 0.42135 0.0
C476 C 0.22074 0.89803 0.31982 0.0
C477 C 0.18604 0.90499 0.33992 0.0
C478 C 0.23982 0.88583 0.32805 0.0
C479 C 0.22545 0.88062 0.35674 0.0
C480 C 0.19728 0.88835 0.37825 0.0
C481 C 0.17695 0.90037 0.36972 0.0
C482 C 0.17403 0.84697 0.35052 0.0
C483 C 0.18711 0.84229 0.37981 0.0
C484 C 0.19371 0.85895 0.34123 0.0
C485 C 0.22532 0.86659 0.36151 0.0
C486 C 0.24339 0.86131 0.38949 0.0
C487 C 0.2249 0.84914 0.39843 0.0
H488 H 0.03995 0.91564 0.87206 0.0
H489 H 0.09045 0.88851 0.94138 0.0
H490 H 0.00959 0.89792 0.839 0.0
H491 H 0.06205 0.87097 0.90867 0.0
H492 H 0.03927 0.83967 0.84651 0.0
H493 H 0.00449 0.85749 0.8779 0.0
H494 H 0.072 0.88427 0.81171 0.0
H495 H 0.10487 0.86664 0.78057 0.0
C496 C 0.04272 0.90594 0.88061 0.0
C497 C 0.06884 0.9034 0.90885 0.0
C498 C 0.02573 0.89577 0.86167 0.0
C499 C 0.0347 0.88296 0.87076 0.0
C500 C 0.0543 0.88062 0.90068 0.0
C501 C 0.07129 0.89071 0.91941 0.0
C502 C 0.04455 0.84938 0.83825 0.0
C503 C 0.07597 0.85182 0.81159 0.0
C504 C 0.02499 0.8596 0.85626 0.0
C505 C 0.0366 0.87237 0.84778 0.0
C506 C 0.06201 0.87465 0.81915 0.0
C507 C 0.08158 0.8645 0.80136 0.0
H508 H 0.23116 0.39893 0.79835 0.0
H509 H 0.13707 0.40721 0.88063 0.0
H510 H 0.26056 0.37839 0.8202 0.0
H511 H 0.16774 0.38695 0.90292 0.0
H512 H 0.21828 0.34899 0.93638 0.0
H513 H 0.24785 0.37012 0.91779 0.0
H514 H 0.17891 0.36128 0.82856 0.0
H515 H 0.14769 0.34047 0.8475 0.0
C516 C 0.21979 0.39671 0.82185 0.0
C517 C 0.18223 0.40462 0.83798 0.0
C518 C 0.23625 0.38493 0.83424 0.0
C519 C 0.21612 0.38105 0.86314 0.0
C520 C 0.1844 0.38974 0.88074 0.0
C521 C 0.16692 0.40136 0.86807 0.0
C522 C 0.21205 0.35136 0.9124 0.0
C523 C 0.18106 0.34314 0.89323 0.0
C524 C 0.22865 0.36346 0.90185 0.0
C525 C 0.21562 0.36733 0.87178 0.0
C526 C 0.1902 0.3585 0.85172 0.0
C527 C 0.1723 0.34658 0.8625 0.0
H528 H 0.98718 0.59061 0.59478 0.0
H529 H 0.86563 0.6068 0.53194 0.0
H530 H 0.99414 0.6114 0.62111 0.0
H531 H 0.8723 0.62726 0.55826 0.0
H532 H 0.83166 0.65058 0.64724 0.0
H533 H 0.83964 0.63145 0.61559 0.0
H534 H 0.01961 0.637 0.60918 0.0
H535 H 0.0114 0.65655 0.64066 0.0
C536 C 0.96264 0.59861 0.58636 0.0
C537 C 0.92538 0.59702 0.56153 0.0
C538 C 0.96688 0.61049 0.60127 0.0
C539 C 0.93352 0.62086 0.59171 0.0
C540 C 0.8982 0.61938 0.56615 0.0
C541 C 0.89438 0.60764 0.55116 0.0
C542 C 0.8729 0.64781 0.63883 0.0
C543 C 0.9209 0.65503 0.64628 0.0
C544 C 0.87743 0.63689 0.62071 0.0
C545 C 0.93022 0.63277 0.61005 0.0
C546 C 0.97848 0.63999 0.61726 0.0
C547 C 0.97374 0.65118 0.63497 0.0
H548 H 0.72421 0.09656 0.64015 0.0
H549 H 0.90473 0.10141 0.64489 0.0
H550 H 0.71749 0.11603 0.60815 0.0
H551 H 0.89833 0.12041 0.6129 0.0
H552 H 0.87716 0.14533 0.53105 0.0
H553 H 0.8668 0.12487 0.55674 0.0
H554 H 0.74499 0.14133 0.61882 0.0
H555 H 0.75518 0.16213 0.59281 0.0
C556 C 0.76229 0.10166 0.63387 0.0
C557 C 0.81497 0.09757 0.64481 0.0
C558 C 0.75844 0.11279 0.61591 0.0
C559 C 0.80743 0.11967 0.60815 0.0
C560 C 0.85999 0.11525 0.6184 0.0
C561 C 0.86364 0.1044 0.63672 0.0
C562 C 0.84773 0.14464 0.55 0.0
C563 C 0.81766 0.15541 0.56026 0.0
C564 C 0.84167 0.13288 0.56459 0.0
C565 C 0.80537 0.13156 0.58979 0.0
C566 C 0.77295 0.14212 0.59924 0.0
C567 C 0.77912 0.154 0.58456 0.0
H568 H 0.98235 0.16625 0.11321 0.0
H569 H 0.93844 0.14269 0.19105 0.0
H570 H 0.99058 0.14697 0.08128 0.0
H571 H 0.94665 0.12359 0.15949 0.0
H572 H 0.98704 0.0901 0.09862 0.0
H573 H 0.0088 0.10946 0.12816 0.0
H574 H 0.91464 0.13211 0.06304 0.0
H575 H 0.89315 0.11291 0.03369 0.0
C576 C 0.97583 0.15695 0.12362 0.0
C577 C 0.95919 0.15594 0.15445 0.0
C578 C 0.98022 0.14594 0.10538 0.0
C579 C 0.96891 0.13377 0.11786 0.0
C580 C 0.9561 0.13278 0.14923 0.0
C581 C 0.95096 0.14375 0.16725 0.0
C582 C 0.97165 0.09925 0.09049 0.0
C583 C 0.93784 0.09998 0.06408 0.0
C584 C 0.98408 0.11031 0.10736 0.0
C585 C 0.96346 0.12231 0.09789 0.0
C586 C 0.9318 0.12306 0.07072 0.0
C587 C 0.91894 0.11202 0.0541 0.0
H588 H 0.77033 0.58902 0.12381 0.0
H589 H 0.81738 0.61236 0.20157 0.0
H590 H 0.76024 0.60836 0.09248 0.0
H591 H 0.80725 0.63158 0.17045 0.0
H592 H 0.76091 0.66497 0.10839 0.0
H593 H 0.74218 0.64571 0.13914 0.0
H594 H 0.8374 0.62309 0.07436 0.0
H595 H 0.85617 0.64212 0.04405 0.0
C596 C 0.77731 0.59828 0.13435 0.0
C597 C 0.7954 0.5992 0.16495 0.0
C598 C 0.77171 0.60933 0.11645 0.0
C599 C 0.78336 0.62146 0.12901 0.0
C600 C 0.79759 0.62239 0.16019 0.0
C601 C 0.80387 0.61137 0.17792 0.0
C602 C 0.77726 0.65585 0.10069 0.0
C603 C 0.81047 0.65506 0.07405 0.0
C604 C 0.76656 0.64485 0.11821 0.0
C605 C 0.78809 0.6329 0.10902 0.0
C606 C 0.8195 0.63211 0.08179 0.0
C607 C 0.83081 0.64306 0.06462 0.0
H608 H 0.54772 0.4168 0.86366 0.0
H609 H 0.55858 0.39098 0.94051 0.0
H610 H 0.52327 0.39885 0.83008 0.0
H611 H 0.53632 0.37307 0.90738 0.0
H612 H 0.53891 0.34075 0.84482 0.0
H613 H 0.49457 0.35917 0.87018 0.0
H614 H 0.59593 0.38468 0.8147 0.0
H615 H 0.63842 0.36656 0.78953 0.0
C616 C 0.54192 0.40739 0.87362 0.0
C617 C 0.55577 0.40516 0.90442 0.0
C618 C 0.5286 0.39707 0.8544 0.0
C619 C 0.53006 0.38442 0.86576 0.0
C620 C 0.53511 0.38259 0.89761 0.0
C621 C 0.54809 0.39288 0.91673 0.0
C622 C 0.55033 0.35033 0.83764 0.0
C623 C 0.5933 0.35225 0.81594 0.0
C624 C 0.52502 0.36088 0.85211 0.0
C625 C 0.54206 0.37346 0.84484 0.0
C626 C 0.58105 0.37523 0.8209 0.0
C627 C 0.60637 0.36478 0.80676 0.0
H628 H 0.73073 0.84209 0.89233 0.0
H629 H 0.65052 0.86884 0.95386 0.0
H630 H 0.76815 0.85999 0.86226 0.0
H631 H 0.68603 0.88655 0.92389 0.0
H632 H 0.71588 0.91754 0.86343 0.0
H633 H 0.74903 0.90065 0.89808 0.0
H634 H 0.71102 0.87235 0.82859 0.0
H635 H 0.67954 0.88911 0.79443 0.0
C636 C 0.7228 0.85178 0.90004 0.0
C637 C 0.68639 0.85411 0.92482 0.0
C638 C 0.74395 0.86204 0.88277 0.0
C639 C 0.72883 0.87474 0.89008 0.0
C640 C 0.69869 0.87698 0.91735 0.0
C641 C 0.6776 0.86678 0.93443 0.0
C642 C 0.71717 0.90775 0.85527 0.0
C643 C 0.69403 0.90453 0.82666 0.0
C644 C 0.73577 0.89806 0.87511 0.0
C645 C 0.73126 0.88507 0.86652 0.0
C646 C 0.71525 0.88217 0.83622 0.0
C647 C 0.69658 0.89179 0.81661 0.0
H648 H 0.57982 0.84696 0.39087 0.0
H649 H 0.51639 0.8551 0.30028 0.0
H650 H 0.55569 0.86861 0.40722 0.0
H651 H 0.49383 0.87696 0.31626 0.0
H652 H 0.52287 0.90916 0.42891 0.0
H653 H 0.48421 0.88863 0.4115 0.0
H654 H 0.58503 0.89113 0.32921 0.0
H655 H 0.62511 0.9113 0.34716 0.0
C656 C 0.55743 0.85314 0.37506 0.0
C657 C 0.54945 0.84939 0.34447 0.0
C658 C 0.54383 0.86557 0.38432 0.0
C659 C 0.5235 0.87449 0.36285 0.0
C660 C 0.50935 0.87025 0.33323 0.0
C661 C 0.52182 0.85772 0.32418 0.0
C662 C 0.53471 0.90558 0.40647 0.0
C663 C 0.57697 0.91175 0.38932 0.0
C664 C 0.51277 0.89383 0.39661 0.0
C665 C 0.53166 0.88831 0.36907 0.0
C666 C 0.56917 0.89523 0.35036 0.0
C667 C 0.59225 0.90677 0.36061 0.0
H668 H 0.61927 0.34619 0.34551 0.0
H669 H 0.72273 0.3502 0.42632 0.0
H670 H 0.65702 0.36622 0.32539 0.0
H671 H 0.75902 0.37061 0.40675 0.0
H672 H 0.71942 0.40293 0.29453 0.0
H673 H 0.74528 0.38132 0.31109 0.0
H674 H 0.68267 0.38967 0.40194 0.0
H675 H 0.65494 0.41102 0.385 0.0
C676 C 0.65219 0.35106 0.35821 0.0
C677 C 0.66829 0.34668 0.38733 0.0
C678 C 0.67387 0.36253 0.34674 0.0
C679 C 0.71068 0.36999 0.36465 0.0
C680 C 0.73094 0.36499 0.39247 0.0
C681 C 0.71039 0.3533 0.40356 0.0
C682 C 0.71425 0.40037 0.31848 0.0
C683 C 0.68553 0.40859 0.33862 0.0
C684 C 0.72871 0.38799 0.32786 0.0
C685 C 0.7157 0.38383 0.35771 0.0
C686 C 0.69376 0.39267 0.3789 0.0
C687 C 0.67798 0.40491 0.36929 0.0
H688 H 0.49229 0.58977 0.11153 0.0
H689 H 0.40955 0.6113 0.03996 0.0
H690 H 0.50579 0.60956 0.14093 0.0
H691 H 0.42321 0.63096 0.06908 0.0
H692 H 0.47835 0.66585 0.12277 0.0
H693 H 0.49465 0.64646 0.09201 0.0
H694 H 0.43159 0.62327 0.16656 0.0
H695 H 0.41503 0.64244 0.19686 0.0
C696 C 0.47794 0.59874 0.10187 0.0
C697 C 0.44924 0.599 0.0737 0.0
C698 C 0.4856 0.61004 0.11865 0.0
C699 C 0.46546 0.62179 0.10727 0.0
C700 C 0.43971 0.62209 0.07828 0.0
C701 C 0.43137 0.61081 0.06177 0.0
C702 C 0.46897 0.65657 0.13264 0.0
C703 C 0.44487 0.65562 0.16199 0.0
C704 C 0.47816 0.64551 0.11509 0.0
C705 C 0.4644 0.63337 0.12694 0.0
C706 C 0.44323 0.63246 0.15694 0.0
C707 C 0.43321 0.64346 0.17416 0.0
H708 H 0.27037 0.16438 0.11984 0.0
H709 H 0.32758 0.14011 0.04589 0.0
H710 H 0.2544 0.14538 0.15182 0.0
H711 H 0.31149 0.12127 0.0775 0.0
H712 H 0.25246 0.08854 0.13587 0.0
H713 H 0.23915 0.10796 0.1052 0.0
H714 H 0.32527 0.13005 0.17469 0.0
H715 H 0.33854 0.11076 0.20516 0.0
C716 C 0.27845 0.155 0.11026 0.0
C717 C 0.30079 0.1537 0.08058 0.0
C718 C 0.26949 0.14415 0.12853 0.0
C719 C 0.28184 0.13186 0.11715 0.0
C720 C 0.30104 0.13059 0.08682 0.0
C721 C 0.31075 0.14139 0.06881 0.0
C722 C 0.26773 0.09758 0.14474 0.0
C723 C 0.29716 0.09813 0.17268 0.0
C724 C 0.26017 0.10868 0.12721 0.0
C725 C 0.28128 0.12051 0.13755 0.0
C726 C 0.30799 0.12111 0.16627 0.0
C727 C 0.3161 0.11003 0.18357 0.0
H728 H 0.48555 0.08966 0.6159 0.0
H729 H 0.41669 0.11144 0.54049 0.0
H730 H 0.49523 0.10941 0.64589 0.0
H731 H 0.42678 0.13107 0.5702 0.0
H732 H 0.47901 0.16561 0.6273 0.0
H733 H 0.49632 0.14619 0.59693 0.0
H734 H 0.4166 0.12345 0.66742 0.0
H735 H 0.39895 0.14268 0.69739 0.0
C736 C 0.47363 0.09868 0.60553 0.0
C737 C 0.44974 0.09903 0.57607 0.0
C738 C 0.47902 0.10995 0.62267 0.0
C739 C 0.46153 0.12175 0.61036 0.0
C740 C 0.44103 0.12215 0.58017 0.0
C741 C 0.43482 0.11089 0.56328 0.0
C742 C 0.46584 0.15643 0.63636 0.0
C743 C 0.43717 0.15565 0.66451 0.0
C744 C 0.4757 0.14535 0.61903 0.0
C745 C 0.45799 0.13332 0.62992 0.0
C746 C 0.4314 0.13255 0.65864 0.0
C747 C 0.42077 0.14359 0.67564 0.0
H748 H 0.3293 0.64004 0.5455 0.0
H749 H 0.25567 0.66424 0.61519 0.0
H750 H 0.30919 0.62125 0.5764 0.0
H751 H 0.23537 0.64524 0.64647 0.0
H752 H 0.31525 0.61132 0.70458 0.0
H753 H 0.30226 0.63048 0.67369 0.0
H754 H 0.23461 0.60747 0.59995 0.0
H755 H 0.2478 0.58817 0.63106 0.0
C756 C 0.30807 0.64132 0.56732 0.0
C757 C 0.29469 0.6536 0.57817 0.0
C758 C 0.29596 0.63053 0.58487 0.0
C759 C 0.2707 0.63177 0.61385 0.0
C760 C 0.25507 0.64403 0.62422 0.0
C761 C 0.26659 0.65487 0.60637 0.0
C762 C 0.29667 0.61036 0.68197 0.0
C763 C 0.2833 0.59825 0.67 0.0
C764 C 0.28869 0.62136 0.6644 0.0
C765 C 0.2677 0.62047 0.63436 0.0
C766 C 0.25126 0.60841 0.623 0.0
C767 C 0.25868 0.59739 0.64078 0.0
H768 H 0.53108 0.30069 0.35862 0.0
H769 H 0.4428 0.31371 0.43962 0.0
H770 H 0.4402 0.29815 0.33212 0.0
H771 H 0.35326 0.31115 0.41353 0.0
H772 H 0.19585 0.29864 0.36275 0.0
H773 H 0.28651 0.29527 0.38881 0.0
H774 H 0.37182 0.31551 0.31585 0.0
H775 H 0.28258 0.3189 0.29016 0.0
C776 C 0.49239 0.30284 0.37078 0.0
C777 C 0.49382 0.30761 0.40084 0.0
C778 C 0.44062 0.30138 0.35576 0.0
C779 C 0.38991 0.30446 0.3709 0.0
C780 C 0.39156 0.30857 0.40146 0.0
C781 C 0.44297 0.3102 0.41621 0.0
C782 C 0.23409 0.30231 0.35238 0.0
C783 C 0.23215 0.30914 0.32468 0.0
C784 C 0.28579 0.30034 0.36711 0.0
C785 C 0.33605 0.30502 0.35406 0.0
C786 C 0.33393 0.31158 0.32607 0.0
C787 C 0.28258 0.31367 0.31163 0.0
H788 H 0.97496 0.92639 0.33264 0.0
H789 H 0.03589 0.9639 0.3579 0.0
H790 H 0.8815 0.93191 0.35101 0.0
H791 H 0.94118 0.96953 0.37644 0.0
H792 H 0.77648 0.96314 0.43859 0.0
H793 H 0.87126 0.963 0.41693 0.0
H794 H 0.8054 0.94661 0.33317 0.0
H795 H 0.71031 0.94663 0.35532 0.0
C796 C 0.96843 0.93577 0.34263 0.0
C797 C 0.01238 0.94474 0.34383 0.0
C798 C 0.91471 0.93901 0.35263 0.0
C799 C 0.9037 0.9513 0.36405 0.0
C800 C 0.94852 0.96004 0.36726 0.0
C801 C 0.0027 0.95677 0.35712 0.0
C802 C 0.78215 0.96005 0.41503 0.0
C803 C 0.73671 0.95493 0.39842 0.0
C804 C 0.83631 0.95994 0.40269 0.0
C805 C 0.84571 0.95455 0.37369 0.0
C806 C 0.79919 0.95062 0.35586 0.0
C807 C 0.74481 0.95079 0.36822 0.0
H808 H 0.4932 0.92139 0.81987 0.0
H809 H 0.52368 0.95957 0.854 0.0
H810 H 0.39972 0.92152 0.84285 0.0
H811 H 0.4291 0.95972 0.87722 0.0
H812 H 0.23099 0.95923 0.87724 0.0
H813 H 0.32614 0.95915 0.8547 0.0
H814 H 0.358 0.9223 0.89604 0.0
H815 H 0.26399 0.9224 0.91832 0.0
C816 C 0.4801 0.92974 0.83277 0.0
C817 C 0.51542 0.94046 0.83531 0.0
C818 C 0.42661 0.92982 0.84583 0.0
C819 C 0.40713 0.94069 0.86141 0.0
C820 C 0.4431 0.9513 0.8649 0.0
C821 C 0.49728 0.95114 0.85212 0.0
C822 C 0.25815 0.95104 0.88088 0.0
C823 C 0.24047 0.94081 0.89938 0.0
C824 C 0.31262 0.95108 0.86847 0.0
C825 C 0.34938 0.94078 0.87403 0.0
C826 C 0.33052 0.93035 0.89146 0.0
C827 C 0.27673 0.9304 0.90415 0.0
H828 H 0.78467 0.3286 0.82714 0.0
H829 H 0.73264 0.29003 0.8481 0.0
H830 H 0.87889 0.32401 0.8462 0.0
H831 H 0.828 0.28512 0.86608 0.0
H832 H 0.98996 0.28842 0.92691 0.0
H833 H 0.8959 0.28931 0.9049 0.0
H834 H 0.96012 0.31236 0.83014 0.0
H835 H 0.05415 0.31183 0.85331 0.0
C836 C 0.79342 0.31919 0.83644 0.0
C837 C 0.75172 0.3097 0.83657 0.0
C838 C 0.84762 0.31645 0.84669 0.0
C839 C 0.86152 0.30407 0.85672 0.0
C840 C 0.81873 0.29474 0.85839 0.0
C841 C 0.76402 0.29757 0.84852 0.0
C842 C 0.98418 0.2932 0.90505 0.0
C843 C 0.0288 0.29996 0.89151 0.0
C844 C 0.93026 0.29378 0.8925 0.0
C845 C 0.92019 0.30118 0.8662 0.0
C846 C 0.96633 0.30686 0.85094 0.0
C847 C 0.02036 0.30634 0.86369 0.0
H848 H 0.74351 0.69617 0.68108 0.0
H849 H 0.77846 0.68957 0.5849 0.0
H850 H 0.64358 0.69546 0.671 0.0
H851 H 0.67719 0.68951 0.57445 0.0
H852 H 0.50267 0.67184 0.57407 0.0
H853 H 0.60255 0.67489 0.58389 0.0
H854 H 0.56294 0.70482 0.64906 0.0
H855 H 0.46229 0.70129 0.64 0.0
C856 C 0.72989 0.69481 0.65757 0.0
C857 C 0.7691 0.69267 0.63382 0.0
C858 C 0.67226 0.69452 0.65178 0.0
C859 C 0.65219 0.69223 0.62203 0.0
C860 C 0.69135 0.69097 0.59783 0.0
C861 C 0.74936 0.69114 0.60369 0.0
C862 C 0.51542 0.67894 0.59084 0.0
C863 C 0.47502 0.68629 0.60646 0.0
C864 C 0.57266 0.68084 0.5961 0.0
C865 C 0.59094 0.69028 0.61677 0.0
C866 C 0.55032 0.69742 0.63307 0.0
C867 C 0.49274 0.69536 0.6281 0.0
H868 H 0.98733 0.05244 0.59733 0.0
H869 H 0.99379 0.08589 0.65535 0.0
H870 H 0.0906 0.05314 0.59205 0.0
H871 H 0.09603 0.08667 0.65006 0.0
H872 H 0.27272 0.09004 0.60426 0.0
H873 H 0.17004 0.09021 0.60977 0.0
H874 H 0.17242 0.04971 0.62968 0.0
H875 H 0.2754 0.04964 0.62409 0.0
C876 C 0.01079 0.06009 0.60824 0.0
C877 C 0.98317 0.06915 0.62656 0.0
C878 C 0.06964 0.0604 0.60564 0.0
C879 C 0.10113 0.06989 0.62097 0.0
C880 C 0.07284 0.07928 0.638 0.0
C881 C 0.01447 0.07885 0.64094 0.0
C882 C 0.25123 0.08132 0.61093 0.0
C883 C 0.28141 0.06991 0.61468 0.0
C884 C 0.19265 0.08136 0.61373 0.0
C885 C 0.16341 0.06994 0.61978 0.0
C886 C 0.19399 0.0586 0.62457 0.0
C887 C 0.25272 0.05859 0.62202 0.0
H888 H 0.45437 0.07555 0.09465 0.0
H889 H 0.50258 0.06 0.1828 0.0
H890 H 0.5537 0.0763 0.07965 0.0
H891 H 0.60076 0.0604 0.1676 0.0
H892 H 0.77663 0.07458 0.14267 0.0
H893 H 0.67731 0.07482 0.15786 0.0
H894 H 0.62979 0.06224 0.06691 0.0
H895 H 0.72783 0.06235 0.0516 0.0
C896 C 0.48601 0.07219 0.11067 0.0
C897 C 0.47058 0.06778 0.1399 0.0
C898 C 0.54288 0.0726 0.10212 0.0
C899 C 0.58523 0.06848 0.12255 0.0
C900 C 0.56948 0.06391 0.15158 0.0
C901 C 0.51297 0.0636 0.16017 0.0
C902 C 0.74488 0.07185 0.12603 0.0
C903 C 0.76017 0.06851 0.09596 0.0
C904 C 0.68802 0.07196 0.13469 0.0
C905 C 0.64555 0.06863 0.11349 0.0
C906 C 0.66116 0.06514 0.08359 0.0
C907 C 0.71762 0.06512 0.07492 0.0
H908 H 0.00997 0.69028 0.04826 0.0
H909 H 0.9636 0.69353 0.14403 0.0
H910 H 0.10849 0.69069 0.06196 0.0
H911 H 0.06346 0.69446 0.15774 0.0
H912 H 0.23864 0.67777 0.17275 0.0
H913 H 0.13994 0.67973 0.15923 0.0
H914 H 0.18536 0.7029 0.08075 0.0
H915 H 0.28514 0.70051 0.09386 0.0
C916 C 0.02071 0.69126 0.07232 0.0
C917 C 0.97867 0.6917 0.09514 0.0
C918 C 0.07754 0.69162 0.08011 0.0
C919 C 0.09402 0.69253 0.11093 0.0
C920 C 0.05209 0.69351 0.13377 0.0
C921 C 0.9949 0.69305 0.12596 0.0
C922 C 0.22761 0.68326 0.15252 0.0
C923 C 0.26953 0.68898 0.13428 0.0
C924 C 0.17091 0.68451 0.14498 0.0
C925 C 0.15457 0.69162 0.11917 0.0
C926 C 0.19658 0.69727 0.10069 0.0
C927 C 0.25367 0.69589 0.10808 0.0
H928 H 0.47751 0.83158 0.92297 0.0
H929 H 0.54608 0.80195 0.86474 0.0
H930 H 0.38699 0.82973 0.89731 0.0
H931 H 0.4546 0.80009 0.83879 0.0
H932 H 0.2993 0.81288 0.78146 0.0
H933 H 0.39087 0.81346 0.80599 0.0
H934 H 0.31057 0.81274 0.89503 0.0
H935 H 0.21745 0.81216 0.87014 0.0
C936 C 0.47336 0.82478 0.90436 0.0
C937 C 0.51858 0.81685 0.89586 0.0
C938 C 0.42134 0.82362 0.88999 0.0
C939 C 0.41356 0.81455 0.86671 0.0
C940 C 0.45963 0.8071 0.85691 0.0
C941 C 0.51197 0.80825 0.87144 0.0
C942 C 0.30096 0.81281 0.80632 0.0
C943 C 0.25134 0.81264 0.82403 0.0
C944 C 0.35352 0.81302 0.82028 0.0
C945 C 0.35768 0.81319 0.85228 0.0
C946 C 0.30818 0.81272 0.87019 0.0
C947 C 0.25514 0.81233 0.8561 0.0
H948 H 0.72704 0.46144 0.88366 0.0
H949 H 0.74683 0.42127 0.9039 0.0
H950 H 0.8194 0.46144 0.85779 0.0
H951 H 0.83796 0.42123 0.87846 0.0
H952 H 0.97057 0.42307 0.80433 0.0
H953 H 0.87663 0.42419 0.82584 0.0
H954 H 0.9233 0.45802 0.87686 0.0
H955 H 0.01874 0.45699 0.85476 0.0
C956 C 0.75048 0.45258 0.88181 0.0
C957 C 0.7302 0.44134 0.89553 0.0
C958 C 0.80343 0.45262 0.86755 0.0
C959 C 0.83583 0.44136 0.8665 0.0
C960 C 0.81383 0.43003 0.8789 0.0
C961 C 0.76167 0.43004 0.89339 0.0
C962 C 0.96125 0.43072 0.82031 0.0
C963 C 0.0021 0.43991 0.82806 0.0
C964 C 0.90729 0.43136 0.83254 0.0
C965 C 0.89274 0.44123 0.85281 0.0
C966 C 0.93351 0.45041 0.86092 0.0
C967 C 0.98812 0.44972 0.84871 0.0
H968 H 0.53703 0.46859 0.35319 0.0
H969 H 0.49349 0.42901 0.33751 0.0
H970 H 0.44187 0.47243 0.37385 0.0
H971 H 0.39969 0.43276 0.35784 0.0
H972 H 0.22232 0.4441 0.35928 0.0
H973 H 0.31708 0.44533 0.33695 0.0
H974 H 0.37646 0.46521 0.41771 0.0
H975 H 0.28181 0.46401 0.43972 0.0
C976 C 0.50777 0.46066 0.3551 0.0
C977 C 0.52213 0.44853 0.34372 0.0
C978 C 0.45329 0.46288 0.36642 0.0
C979 C 0.41301 0.45299 0.36627 0.0
C980 C 0.42924 0.44067 0.35709 0.0
C981 C 0.48319 0.43848 0.34592 0.0
C982 C 0.25512 0.44924 0.37145 0.0
C983 C 0.24534 0.45405 0.40091 0.0
C984 C 0.30934 0.4498 0.359 0.0
C985 C 0.35412 0.45516 0.37597 0.0
C986 C 0.34276 0.46106 0.40418 0.0
C987 C 0.28872 0.46041 0.41668 0.0
H988 H 0.75535 0.82969 0.34045 0.0
H989 H 0.70987 0.79085 0.36332 0.0
H990 H 0.85321 0.82522 0.35301 0.0
H991 H 0.80867 0.78619 0.37533 0.0
H992 H 0.98588 0.7902 0.42324 0.0
H993 H 0.88642 0.79103 0.40965 0.0
H994 H 0.92823 0.81307 0.32876 0.0
H995 H 0.02802 0.81258 0.34332 0.0
C996 C 0.76631 0.82027 0.34895 0.0
C997 C 0.72544 0.81061 0.35105 0.0
C998 C 0.82245 0.81762 0.35548 0.0
C999 C 0.83891 0.80522 0.36401 0.0
C1000 C 0.79724 0.7958 0.36847 0.0
C1001 C 0.74068 0.7985 0.36207 0.0
C1002 C 0.9738 0.79474 0.40185 0.0
C1003 C 0.014 0.80124 0.38406 0.0
C1004 C 0.91689 0.79528 0.39417 0.0
C1005 C 0.89944 0.80237 0.36857 0.0
C1006 C 0.94051 0.8078 0.34909 0.0
C1007 C 0.99759 0.80732 0.35695 0.0
H1008 H 0.77479 0.20041 0.09846 0.0
H1009 H 0.76975 0.16485 0.14864 0.0
H1010 H 0.67172 0.1996 0.09248 0.0
H1011 H 0.66741 0.16388 0.14224 0.0
H1012 H 0.49174 0.16282 0.0918 0.0
H1013 H 0.59441 0.16245 0.09757 0.0
H1014 H 0.59004 0.20083 0.13424 0.0
H1015 H 0.48684 0.20106 0.12895 0.0
C1016 C 0.75171 0.19225 0.10728 0.0
C1017 C 0.77961 0.18261 0.12363 0.0
C1018 C 0.693 0.19188 0.10432 0.0
C1019 C 0.66196 0.18175 0.11726 0.0
C1020 C 0.69049 0.17177 0.1321 0.0
C1021 C 0.74882 0.17228 0.13556 0.0
C1022 C 0.5128 0.17099 0.10198 0.0
C1023 C 0.48198 0.18186 0.11056 0.0
C1024 C 0.57128 0.17083 0.105 0.0
C1025 C 0.59983 0.18167 0.11594 0.0
C1026 C 0.56877 0.19242 0.12541 0.0
C1027 C 0.51 0.19249 0.12291 0.0
H1028 H 0.29254 0.58381 0.14253 0.0
H1029 H 0.25391 0.55381 0.07769 0.0
H1030 H 0.19165 0.58641 0.15308 0.0
H1031 H 0.15409 0.55603 0.08878 0.0
H1032 H 0.97726 0.57081 0.08939 0.0
H1033 H 0.07857 0.57065 0.07911 0.0
H1034 H 0.11195 0.57617 0.17578 0.0
H1035 H 0.01176 0.57685 0.18584 0.0
C1036 C 0.26253 0.57758 0.13119 0.0
C1037 C 0.28069 0.56863 0.10935 0.0
C1038 C 0.20485 0.57909 0.13701 0.0
C1039 C 0.16471 0.57159 0.12128 0.0
C1040 C 0.18358 0.56224 0.10055 0.0
C1041 C 0.24082 0.56084 0.09453 0.0
C1042 C 0.00627 0.5722 0.1083 0.0
C1043 C 0.98634 0.57366 0.13842 0.0
C1044 C 0.0643 0.57199 0.10251 0.0
C1045 C 0.10337 0.5732 0.12675 0.0
C1046 C 0.08322 0.57528 0.15657 0.0
C1047 C 0.02551 0.57555 0.16232 0.0
H1048 H 0.72988 0.57495 0.55422 0.0
H1049 H 0.76888 0.56547 0.64843 0.0
H1050 H 0.63072 0.57649 0.56689 0.0
H1051 H 0.6684 0.56665 0.66109 0.0
H1052 H 0.49115 0.58056 0.67918 0.0
H1053 H 0.5906 0.58115 0.66606 0.0
H1054 H 0.55377 0.5627 0.57946 0.0
H1055 H 0.45342 0.56249 0.59234 0.0
C1056 C 0.71716 0.57314 0.57772 0.0
C1057 C 0.75712 0.56996 0.60034 0.0
C1058 C 0.66015 0.57395 0.5849 0.0
C1059 C 0.64146 0.57153 0.61486 0.0
C1060 C 0.68154 0.56867 0.63778 0.0
C1061 C 0.73901 0.56797 0.63061 0.0
C1062 C 0.50423 0.57672 0.6572 0.0
C1063 C 0.46462 0.5714 0.6368 0.0
C1064 C 0.56132 0.57697 0.64982 0.0
C1065 C 0.58029 0.57183 0.62194 0.0
C1066 C 0.54045 0.56685 0.60106 0.0
C1067 C 0.483 0.56672 0.60835 0.0
H1068 H 0.96104 0.18084 0.64091 0.0
H1069 H 0.00405 0.20031 0.55652 0.0
H1070 H 0.06046 0.18107 0.65584 0.0
H1071 H 0.1024 0.2008 0.57165 0.0
H1072 H 0.27924 0.1852 0.59093 0.0
H1073 H 0.17948 0.18586 0.57702 0.0
H1074 H 0.13634 0.19523 0.67078 0.0
H1075 H 0.2351 0.19429 0.68481 0.0
C1076 C 0.99151 0.18532 0.62582 0.0
C1077 C 0.97483 0.19043 0.59747 0.0
C1078 C 0.0484 0.18547 0.63432 0.0
C1079 C 0.08938 0.19081 0.61469 0.0
C1080 C 0.07215 0.19633 0.58691 0.0
C1081 C 0.01563 0.19611 0.57837 0.0
C1082 C 0.24844 0.18745 0.60848 0.0
C1083 C 0.26515 0.18962 0.63895 0.0
C1084 C 0.19133 0.18787 0.60055 0.0
C1085 C 0.15 0.19054 0.62289 0.0
C1086 C 0.16696 0.19291 0.65318 0.0
C1087 C 0.22376 0.19244 0.66112 0.0
H1088 H 0.00576 0.22989 0.14224 0.0
H1089 H 0.90783 0.22298 0.22436 0.0
H1090 H 0.02647 0.25147 0.16027 0.0
H1091 H 0.92974 0.2444 0.24259 0.0
H1092 H 0.11952 0.27959 0.22276 0.0
H1093 H 0.0855 0.25991 0.20022 0.0
H1094 H 0.91885 0.2675 0.23592 0.0
H1095 H 0.9537 0.28738 0.25934 0.0
C1096 C 0.98832 0.23297 0.16401 0.0
C1097 C 0.95563 0.2246 0.18192 0.0
C1098 C 0.0004 0.24534 0.17443 0.0
C1099 C 0.98026 0.24964 0.20307 0.0
C1100 C 0.94556 0.24147 0.22034 0.0
C1101 C 0.93338 0.22912 0.20991 0.0
C1102 C 0.07545 0.27717 0.22578 0.0
C1103 C 0.03932 0.28508 0.24297 0.0
C1104 C 0.05579 0.26588 0.21252 0.0
C1105 C -0.0007 0.26214 0.21596 0.0
C1106 C 0.96274 0.27008 0.23295 0.0
C1107 C 0.98256 0.28148 0.24628 0.0
H1108 H 0.10796 0.97552 0.23781 0.0
H1109 H 0.278 0.96554 0.26403 0.0
H1110 H 0.142 0.99528 0.21504 0.0
H1111 H 0.31247 0.98533 0.24054 0.0
H1112 H 0.22241 0.02603 0.15717 0.0
H1113 H 0.19705 0.00438 0.17333 0.0
H1114 H 0.30646 0.00802 0.25213 0.0
H1115 H 0.33263 0.02939 0.23586 0.0
C1116 C 0.15279 0.97749 0.23847 0.0
C1117 C 0.19028 0.96901 0.25296 0.0
C1118 C 0.17237 0.98878 0.22511 0.0
C1119 C 0.22995 0.9919 0.22591 0.0
C1120 C 0.26773 0.98327 0.23982 0.0
C1121 C 0.24808 0.97192 0.25319 0.0
C1122 C 0.24151 0.02215 0.17774 0.0
C1123 C 0.27922 0.02952 0.19529 0.0
C1124 C 0.2268 0.00977 0.18708 0.0
C1125 C 0.24958 0.00449 0.21411 0.0
C1126 C 0.28865 0.01171 0.23102 0.0
C1127 C 0.30327 0.02405 0.22176 0.0
H1128 H 0.87704 0.02833 0.01213 0.0
H1129 H 0.0403 0.03288 0.05442 0.0
H1130 H 0.90369 0.00711 -0.00582 0.0
H1131 H 0.06885 0.01214 0.03475 0.0
H1132 H 0.09827 0.97085 0.01673 0.0
H1133 H 0.06236 0.99056 0.03863 0.0
H1134 H 0.95549 0.99569 0.95899 0.0
H1135 H 0.98884 0.97527 0.93844 0.0
C1136 C 0.91882 0.02479 0.01746 0.0
C1137 C 0.95651 0.03223 0.03483 0.0
C1138 C 0.9344 0.01264 0.0069 0.0
C1139 C 0.98865 0.00776 0.01279 0.0
C1140 C 0.02622 0.0153 0.03026 0.0
C1141 C 0.01007 0.02729 0.04147 0.0
C1142 C 0.0667 0.97618 0.00408 0.0
C1143 C 0.0465 0.97162 0.97585 0.0
C1144 C 0.0464 0.98758 0.01648 0.0
C1145 C 0.00658 0.99501 0.00048 0.0
C1146 C 0.98557 0.99026 0.97233 0.0
C1147 C 0.00482 0.97858 0.96035 0.0
H1148 H 0.35222 0.22083 0.00931 0.0
H1149 H 0.24816 0.22664 0.08967 0.0
H1150 H 0.32707 0.24205 0.99079 0.0
H1151 H 0.22393 0.24795 0.07128 0.0
H1152 H 0.29403 0.28475 0.97425 0.0
H1153 H 0.33242 0.26552 -0.00101 0.0
H1154 H 0.16492 0.25511 0.029 0.0
H1155 H 0.12717 0.27414 0.00497 0.0
C1156 C 0.32462 0.22668 0.02329 0.0
C1157 C 0.30158 0.22192 0.05083 0.0
C1158 C 0.31059 0.23891 0.01272 0.0
C1159 C 0.27311 0.24664 0.0294 0.0
C1160 C 0.25224 0.24213 0.05765 0.0
C1161 C 0.26629 0.22992 0.06824 0.0
C1162 C 0.26572 0.27839 0.98642 0.0
C1163 C 0.20761 0.28095 0.98758 0.0
C1164 C 0.28758 0.26737 0.00046 0.0
C1165 C 0.25173 0.25882 0.01611 0.0
C1166 C 0.19391 0.26158 0.01767 0.0
C1167 C 0.17218 0.27248 0.0036 0.0
H1168 H 0.98256 0.71374 0.74636 0.0
H1169 H 0.9728 0.73075 0.65612 0.0
H1170 H 0.00649 0.73461 0.76825 0.0
H1171 H 0.99541 0.75171 0.67834 0.0
H1172 H 0.97786 0.78852 0.74099 0.0
H1173 H 0.94574 0.76757 0.72179 0.0
H1174 H 0.09662 0.75002 0.75756 0.0
H1175 H 0.12936 0.77086 0.77575 0.0
C1176 C 0.98537 0.72194 0.73122 0.0
C1177 C 0.9762 0.72059 0.69947 0.0
C1178 C 0.99892 0.73386 0.74378 0.0
C1179 C 0.00221 0.74474 0.72498 0.0
C1180 C 0.99247 0.74347 0.69332 0.0
C1181 C 0.98018 0.73147 0.68061 0.0
C1182 C 0.00354 0.78013 0.74511 0.0
C1183 C 0.05599 0.78126 0.75981 0.0
C1184 C 0.98548 0.76821 0.73395 0.0
C1185 C 0.01894 0.75725 0.73815 0.0
C1186 C 0.07006 0.75832 0.75411 0.0
C1187 C 0.08872 0.77023 0.76448 0.0
H1188 H 0.61571 0.97805 0.73701 0.0
H1189 H 0.78503 0.9685 0.76545 0.0
H1190 H 0.65009 0.99765 0.71365 0.0
H1191 H 0.8198 0.98821 0.74153 0.0
H1192 H 0.84115 0.03218 0.72777 0.0
H1193 H 0.81369 0.01156 0.74885 0.0
H1194 H 0.70699 0.00484 0.67013 0.0
H1195 H 0.73375 0.02562 0.64909 0.0
C1196 C 0.66042 0.98012 0.73824 0.0
C1197 C 0.69767 0.9717 0.75314 0.0
C1198 C 0.68019 0.99132 0.72456 0.0
C1199 C 0.73775 0.99445 0.72544 0.0
C1200 C 0.77513 0.9861 0.74057 0.0
C1201 C 0.75528 0.97481 0.75423 0.0
C1202 C 0.8121 0.0263 0.71475 0.0
C1203 C 0.78932 0.03065 0.68677 0.0
C1204 C 0.79668 0.01441 0.72681 0.0
C1205 C 0.75791 0.00658 0.71129 0.0
C1206 C 0.73637 0.01074 0.68288 0.0
C1207 C 0.75195 0.02262 0.67072 0.0
H1208 H 0.6262 0.77236 0.95198 0.0
H1209 H 0.77361 0.79025 0.99129 0.0
H1210 H 0.65833 0.75152 0.97046 0.0
H1211 H 0.80497 0.76932 0.01068 0.0
H1212 H 0.77543 0.73164 0.07328 0.0
H1213 H 0.75237 0.75275 0.05206 0.0
H1214 H 0.75179 0.7368 0.96069 0.0
H1215 H 0.77616 0.71582 0.9816 0.0
C1216 C 0.66573 0.7718 0.96438 0.0
C1217 C 0.69759 0.78287 0.97016 0.0
C1218 C 0.68403 0.7599 0.97491 0.0
C1219 C 0.73384 0.75889 -0.00792 0.0
C1220 C 0.76625 0.76992 -0.00243 0.0
C1221 C 0.74862 0.78182 0.98631 0.0
C1222 C 0.77041 0.73265 0.04869 0.0
C1223 C 0.77746 0.72208 0.02911 0.0
C1224 C 0.75775 0.74472 0.03658 0.0
C1225 C 0.7507 0.74634 0.00479 0.0
C1226 C 0.75721 0.73577 0.98527 0.0
C1227 C 0.7711 0.72379 -0.00274 0.0
H1228 H 0.33288 0.5304 0.7345 0.0
H1229 H 0.22777 0.52545 0.65424 0.0
H1230 H 0.30754 0.50911 0.752 0.0
H1231 H 0.20353 0.50393 0.67152 0.0
H1232 H 0.11261 0.4751 0.73338 0.0
H1233 H 0.14652 0.49509 0.71197 0.0
H1234 H 0.31496 0.4863 0.74329 0.0
H1235 H 0.28039 0.46624 0.76554 0.0
C1236 C 0.30496 0.52471 0.72029 0.0
C1237 C 0.28194 0.52974 0.69303 0.0
C1238 C 0.29075 0.51243 0.7303 0.0
C1239 C 0.25319 0.50482 0.71333 0.0
C1240 C 0.23186 0.50963 0.68545 0.0
C1241 C 0.24602 0.52195 0.67542 0.0
C1242 C 0.15697 0.47737 0.73569 0.0
C1243 C 0.19381 0.46907 0.75125 0.0
C1244 C 0.17654 0.48882 0.72312 0.0
C1245 C 0.23357 0.49229 0.72565 0.0
C1246 C 0.27065 0.48396 0.74111 0.0
C1247 C 0.25095 0.47246 0.75379 0.0
H1248 H 0.98637 0.47149 0.46241 0.0
H1249 H 0.11808 0.4697 0.53048 0.0
H1250 H 0.94919 0.49073 0.48665 0.0
H1251 H 0.07903 0.48833 0.55628 0.0
H1252 H 0.04425 0.53107 0.56913 0.0
H1253 H 0.07481 0.51007 0.55174 0.0
H1254 H 0.90318 0.50099 0.52575 0.0
H1255 H 0.87407 0.52237 0.54116 0.0
C1256 C 0.00633 0.47504 0.4831 0.0
C1257 C 0.05523 0.46921 0.49445 0.0
C1258 C 0.98494 0.48606 0.49722 0.0
C1259 C 0.01123 0.4913 0.52348 0.0
C1260 C 0.05842 0.48491 0.53568 0.0
C1261 C 0.08056 0.47413 0.52108 0.0
C1262 C 0.01307 0.52447 0.56014 0.0
C1263 C 0.95695 0.52835 0.55632 0.0
C1264 C 0.03042 0.51236 0.5502 0.0
C1265 C 0.99169 0.50372 0.53689 0.0
C1266 C 0.93474 0.50742 0.53494 0.0
C1267 C 0.91779 0.51964 0.54412 0.0
H1268 H 0.23626 0.7271 0.57985 0.0
H1269 H 0.34129 0.71937 0.50078 0.0
H1270 H 0.21268 0.748 0.55844 0.0
H1271 H 0.31674 0.74005 0.4793 0.0
H1272 H 0.28763 0.78209 0.45656 0.0
H1273 H 0.32378 0.76336 0.48416 0.0
H1274 H 0.15504 0.75461 0.51521 0.0
H1275 H 0.11947 0.7732 0.48835 0.0
C1276 C 0.25464 0.72987 0.55807 0.0
C1277 C 0.29012 0.72146 0.54193 0.0
C1278 C 0.24098 0.74183 0.54574 0.0
C1279 C 0.26248 0.74563 0.51703 0.0
C1280 C 0.29988 0.73747 0.50157 0.0
C1281 C 0.31354 0.72554 0.51385 0.0
C1282 C 0.2585 0.77617 0.4694 0.0
C1283 C 0.20072 0.77907 0.47009 0.0
C1284 C 0.2791 0.76545 0.48516 0.0
C1285 C 0.24227 0.75753 0.502 0.0
C1286 C 0.18473 0.76061 0.50296 0.0
C1287 C 0.16424 0.77122 0.48721 0.0
H1288 H 0.78961 0.46775 0.25992 0.0
H1289 H 0.62136 0.47945 0.23443 0.0
H1290 H 0.82796 0.48678 0.23456 0.0
H1291 H 0.65927 0.49842 0.20975 0.0
H1292 H 0.74196 0.52734 0.14879 0.0
H1293 H 0.7147 0.50606 0.16657 0.0
H1294 H 0.82811 0.50977 0.24366 0.0
H1295 H 0.85617 0.53082 0.22572 0.0
C1296 C 0.76089 0.47435 0.24887 0.0
C1297 C 0.70247 0.47213 0.24934 0.0
C1298 C 0.78278 0.48526 0.2344 0.0
C1299 C 0.74669 0.49412 0.22002 0.0
C1300 C 0.68841 0.49172 0.22009 0.0
C1301 C 0.66661 0.48088 0.23455 0.0
C1302 C 0.76179 0.52353 0.16923 0.0
C1303 C 0.80084 0.53088 0.18594 0.0
C1304 C 0.74589 0.51136 0.17955 0.0
C1305 C 0.76879 0.50626 0.20674 0.0
C1306 C 0.80994 0.51334 0.22252 0.0
C1307 C 0.82573 0.52549 0.21228 0.0
H1308 H 0.72863 0.22853 0.5809 0.0
H1309 H 0.8186 0.22389 0.49521 0.0
H1310 H 0.70324 0.25033 0.56575 0.0
H1311 H 0.79237 0.24532 0.48006 0.0
H1312 H 0.77104 0.28763 0.4673 0.0
H1313 H 0.80649 0.26778 0.49001 0.0
H1314 H 0.64178 0.26028 0.52851 0.0
H1315 H 0.60706 0.28011 0.50663 0.0
C1316 C 0.74302 0.23213 0.55893 0.0
C1317 C 0.77542 0.22439 0.53929 0.0
C1318 C 0.72842 0.2446 0.55021 0.0
C1319 C 0.74592 0.24959 0.52169 0.0
C1320 C 0.77903 0.24191 0.50239 0.0
C1321 C 0.7936 0.22951 0.51105 0.0
C1322 C 0.74273 0.28179 0.4809 0.0
C1323 C 0.68619 0.28537 0.4849 0.0
C1324 C 0.76287 0.27041 0.49381 0.0
C1325 C 0.72684 0.26239 0.51095 0.0
C1326 C 0.67089 0.26626 0.5158 0.0
C1327 C 0.65085 0.2776 0.50295 0.0
H1328 H 0.63212 0.27147 0.77261 0.0
H1329 H 0.48555 0.29167 0.73944 0.0
H1330 H 0.59343 0.25137 0.75323 0.0
H1331 H 0.44748 0.27141 0.71904 0.0
H1332 H 0.47479 0.23185 0.65517 0.0
H1333 H 0.50203 0.25307 0.67472 0.0
H1334 H 0.48721 0.23923 0.76762 0.0
H1335 H 0.45889 0.21824 0.74851 0.0
C1336 C 0.59154 0.27159 0.76119 0.0
C1337 C 0.56165 0.28308 0.75756 0.0
C1338 C 0.56955 0.26011 0.75012 0.0
C1339 C 0.51788 0.25995 0.73456 0.0
C1340 C 0.48762 0.27139 0.73089 0.0
C1341 C 0.50908 0.2829 0.74271 0.0
C1342 C 0.477 0.23339 0.67974 0.0
C1343 C 0.46481 0.22338 0.70028 0.0
C1344 C 0.49206 0.24551 0.69085 0.0
C1345 C 0.49618 0.24769 0.72259 0.0
C1346 C 0.48385 0.23774 0.74306 0.0
C1347 C 0.46776 0.22575 0.73205 0.0
H1348 H 0.38285 0.02659 0.53932 0.0
H1349 H 0.55306 0.03114 0.57257 0.0
H1350 H 0.40481 0.00501 0.52209 0.0
H1351 H 0.57663 0.00994 0.55354 0.0
H1352 H 0.60569 0.96935 0.53 0.0
H1353 H 0.57044 0.98814 0.55676 0.0
H1354 H 0.45098 0.99449 0.48316 0.0
H1355 H 0.4839 0.97507 0.45784 0.0
C1356 C 0.42505 0.02293 0.54295 0.0
C1357 C 0.46635 0.03053 0.5572 0.0
C1358 C 0.43788 0.01059 0.53281 0.0
C1359 C 0.49277 0.00566 0.53595 0.0
C1360 C 0.53358 0.01321 0.55109 0.0
C1361 C 0.52029 0.02543 0.56191 0.0
C1362 C 0.57111 0.97468 0.51996 0.0
C1363 C 0.54751 0.97086 0.49189 0.0
C1364 C 0.55125 0.98555 0.53509 0.0
C1365 C 0.50845 0.9931 0.52199 0.0
C1366 C 0.48343 0.98891 0.49433 0.0
C1367 C 0.50235 0.9778 0.47964 0.0
H1368 H 0.45632 0.78559 0.27894 0.0
H1369 H 0.62738 0.77643 0.25284 0.0
H1370 H 0.42345 0.76598 0.25366 0.0
H1371 H 0.59493 0.75697 0.22817 0.0
H1372 H 0.40598 0.72189 0.23972 0.0
H1373 H 0.43064 0.74265 0.26098 0.0
H1374 H 0.54075 0.74969 0.1838 0.0
H1375 H 0.51685 0.72875 0.16258 0.0
C1376 C 0.48682 0.7794 0.26792 0.0
C1377 C 0.5444 0.78255 0.26799 0.0
C1378 C 0.46808 0.76817 0.25348 0.0
C1379 C 0.50658 0.75996 0.2387 0.0
C1380 C 0.56403 0.76318 0.23881 0.0
C1381 C 0.58268 0.7743 0.25327 0.0
C1382 C 0.43522 0.72787 0.22707 0.0
C1383 C 0.45987 0.72356 0.1995 0.0
C1384 C 0.44897 0.73984 0.23922 0.0
C1385 C 0.48783 0.7478 0.22419 0.0
C1386 C 0.51121 0.74369 0.19616 0.0
C1387 C 0.49734 0.73171 0.18392 0.0
H1388 H 0.64047 0.47715 0.00013 0.0
H1389 H 0.46855 0.46675 0.9788 0.0
H1390 H 0.60786 0.49676 0.02418 0.0
H1391 H 0.43556 0.48637 0.00363 0.0
H1392 H 0.41185 0.53011 0.01145 0.0
H1393 H 0.43809 0.50904 -0.00668 0.0
H1394 H 0.55733 0.50551 0.0678 0.0
H1395 H 0.53189 0.52692 0.08578 0.0
C1396 C 0.59556 0.47901 0.00077 0.0
C1397 C 0.55708 0.47043 0.98734 0.0
C1398 C 0.57683 0.49022 0.01488 0.0
C1399 C 0.51909 0.49314 0.01597 0.0
C1400 C 0.48042 0.48446 0.00291 0.0
C1401 C 0.49924 0.47322 0.98873 0.0
C1402 C 0.44346 0.52486 0.02423 0.0
C1403 C 0.47018 0.53031 0.04999 0.0
C1404 C 0.45813 0.51268 0.01389 0.0
C1405 C 0.49994 0.50557 0.029 0.0
C1406 C 0.52544 0.51081 0.05538 0.0
C1407 C 0.51066 0.52305 0.06581 0.0
H1408 H 0.18581 0.34588 0.1841 0.0
H1409 H 0.0351 0.3226 0.19038 0.0
H1410 H 0.17635 0.34638 0.12853 0.0
H1411 H 0.02606 0.32317 0.13467 0.0
H1412 H 0.01003 0.33411 0.03364 0.0
H1413 H 0.01228 0.33814 0.08874 0.0
H1414 H 0.18847 0.32781 0.09098 0.0
H1415 H 0.18664 0.32376 0.03589 0.0
C1416 C 0.1501 0.34106 0.17375 0.0
C1417 C 0.11166 0.33403 0.19167 0.0
C1418 C 0.14493 0.34133 0.14194 0.0
C1419 C 0.10097 0.33469 0.1275 0.0
C1420 C 0.06024 0.32841 0.1454 0.0
C1421 C 0.06557 0.32806 0.17726 0.0
C1422 C 0.04948 0.33285 0.04578 0.0
C1423 C 0.09821 0.32859 0.03044 0.0
C1424 C 0.05056 0.33511 0.07729 0.0
C1425 C 0.1005 0.33332 0.09389 0.0
C1426 C 0.1496 0.32941 0.07851 0.0
C1427 C 0.14843 0.32701 0.04706 0.0
H1428 H 0.04468 0.91921 0.03829 0.0
H1429 H 0.19469 0.94174 0.05298 0.0
H1430 H 0.03351 0.9167 0.09384 0.0
H1431 H 0.18206 0.94007 0.10824 0.0
H1432 H 0.18976 0.92293 0.20126 0.0
H1433 H 0.19473 0.92431 0.14559 0.0
H1434 H 0.01267 0.92651 0.14115 0.0
H1435 H 0.00792 0.92433 0.19671 0.0
C1436 C 0.07421 0.92389 0.05359 0.0
C1437 C 0.12064 0.93056 0.04188 0.0
C1438 C 0.06798 0.92249 0.08528 0.0
C1439 C 0.10763 0.92796 0.10547 0.0
C1440 C 0.15195 0.93534 0.09338 0.0
C1441 C 0.15884 0.93646 0.06184 0.0
C1442 C 0.15091 0.9235 0.18824 0.0
C1443 C 0.09855 0.92353 0.2031 0.0
C1444 C 0.15364 0.92445 0.15642 0.0
C1445 C 0.10408 0.9258 0.13895 0.0
C1446 C 0.05159 0.92539 0.15385 0.0
C1447 C 0.04885 0.92415 0.18566 0.0
H1448 H 0.80249 0.68307 0.78337 0.0
H1449 H 0.97669 0.67122 0.79015 0.0
H1450 H 0.79216 0.68123 0.8384 0.0
H1451 H 0.96582 0.66909 0.84588 0.0
H1452 H 0.94187 0.68803 0.94145 0.0
H1453 H 0.95366 0.68493 0.8867 0.0
H1454 H 0.78995 0.6668 0.88206 0.0
H1455 H 0.77746 0.67019 0.93723 0.0
C1456 C 0.83854 0.67992 0.79664 0.0
C1457 C 0.89075 0.67747 0.78257 0.0
C1458 C 0.8323 0.67872 0.82819 0.0
C1459 C 0.87813 0.67503 0.84642 0.0
C1460 C 0.92992 0.67208 0.83229 0.0
C1461 C 0.93617 0.67327 0.80051 0.0
C1462 C 0.90836 0.68334 0.92883 0.0
C1463 C 0.85838 0.67948 0.94349 0.0
C1464 C 0.91552 0.68141 0.8975 0.0
C1465 C 0.87289 0.67557 0.88016 0.0
C1466 C 0.82333 0.67143 0.89491 0.0
C1467 C 0.81607 0.67339 0.92638 0.0
H1468 H 0.93477 0.07822 0.7785 0.0
H1469 H 0.76594 0.06303 0.78544 0.0
H1470 H 0.94291 0.0784 0.83399 0.0
H1471 H 0.77501 0.06236 0.84132 0.0
H1472 H 0.78969 0.0741 0.94107 0.0
H1473 H 0.77928 0.07479 0.88567 0.0
H1474 H 0.95533 0.06472 0.87543 0.0
H1475 H 0.96619 0.06487 0.93111 0.0
C1476 C 0.8995 0.07483 0.79209 0.0
C1477 C 0.84976 0.07059 0.77798 0.0
C1478 C 0.90434 0.0748 0.82387 0.0
C1479 C 0.85998 0.07023 0.8422 0.0
C1480 C 0.80977 0.06611 0.82794 0.0
C1481 C 0.80448 0.06644 0.79602 0.0
C1482 C 0.82613 0.07204 0.92689 0.0
C1483 C 0.8788 0.06946 0.94015 0.0
C1484 C 0.82007 0.07235 0.89514 0.0
C1485 C 0.86637 0.06979 0.876 0.0
C1486 C 0.919 0.067 0.88944 0.0
C1487 C 0.9253 0.067 0.92128 0.0
H1488 H 0.22705 0.82357 0.67143 0.0
H1489 H 0.04661 0.82012 0.68376 0.0
H1490 H 0.21503 0.82341 0.61642 0.0
H1491 H 0.0347 0.81972 0.62774 0.0
H1492 H 0.04409 0.83639 0.52775 0.0
H1493 H 0.04965 0.83538 0.58372 0.0
H1494 H 0.18609 0.80817 0.57672 0.0
H1495 H 0.18165 0.80932 0.5212 0.0
C1496 C 0.18467 0.82274 0.66236 0.0
C1497 C 0.13761 0.82198 0.68187 0.0
C1498 C 0.17793 0.82253 0.6308 0.0
C1499 C 0.12401 0.82153 0.61795 0.0
C1500 C 0.0767 0.82059 0.63728 0.0
C1501 C 0.0835 0.82073 0.66916 0.0
C1502 C 0.0755 0.83027 0.5382 0.0
C1503 C 0.11293 0.82307 0.52009 0.0
C1504 C 0.07815 0.82958 0.57015 0.0
C1505 C 0.11818 0.82169 0.58435 0.0
C1506 C 0.15527 0.81445 0.56626 0.0
C1507 C 0.15288 0.81518 0.53446 0.0
H1508 H 0.0516 0.43129 0.68259 0.0
H1509 H 0.21241 0.41312 0.69758 0.0
H1510 H 0.06589 0.4303 0.62753 0.0
H1511 H 0.22572 0.41119 0.64191 0.0
H1512 H 0.25432 0.42484 0.54197 0.0
H1513 H 0.24453 0.42302 0.59739 0.0
H1514 H 0.0655 0.4163 0.58641 0.0
H1515 H 0.07512 0.41905 0.53119 0.0
C1516 C 0.08976 0.42691 0.67381 0.0
C1517 C 0.1309 0.42223 0.69384 0.0
C1518 C 0.09775 0.42618 0.6423 0.0
C1519 C 0.14643 0.42041 0.63017 0.0
C1520 C 0.1879 0.41576 0.65046 0.0
C1521 C 0.18042 0.41681 0.6822 0.0
C1522 C 0.21308 0.42278 0.5515 0.0
C1523 C 0.16528 0.42225 0.53256 0.0
C1524 C 0.20746 0.42168 0.58324 0.0
C1525 C 0.15405 0.41976 0.59645 0.0
C1526 C 0.10699 0.41823 0.5771 0.0
C1527 C 0.11243 0.41967 0.54548 0.0
H1528 H 0.98415 0.18272 0.28909 0.0
H1529 H 0.80993 0.19382 0.27719 0.0
H1530 H 0.97179 0.18357 0.34483 0.0
H1531 H 0.79808 0.19493 0.33243 0.0
H1532 H 0.78066 0.18006 0.43069 0.0
H1533 H 0.79404 0.1799 0.37514 0.0
H1534 H 0.9544 0.19905 0.38615 0.0
H1535 H 0.94167 0.19897 0.44156 0.0
C1536 C 0.94353 0.18545 0.29838 0.0
C1537 C 0.89797 0.18812 0.27892 0.0
C1538 C 0.93646 0.18598 0.33019 0.0
C1539 C 0.88381 0.18922 0.34287 0.0
C1540 C 0.83877 0.19216 0.32329 0.0
C1541 C 0.84575 0.1916 0.29165 0.0
C1542 C 0.81852 0.1843 0.42118 0.0
C1543 C 0.86013 0.1895 0.44034 0.0
C1544 C 0.82616 0.18424 0.38944 0.0
C1545 C 0.87541 0.18943 0.37642 0.0
C1546 C 0.91651 0.19481 0.39562 0.0
C1547 C 0.90896 0.19484 0.4273 0.0
H1548 H 0.96877 0.55695 0.43948 0.0
H1549 H 0.78778 0.55958 0.44889 0.0
H1550 H 0.95857 0.5566 0.38373 0.0
H1551 H 0.77762 0.56008 0.39367 0.0
H1552 H 0.77166 0.55453 0.29101 0.0
H1553 H 0.7823 0.55012 0.34591 0.0
H1554 H 0.93794 0.57182 0.34651 0.0
H1555 H 0.9287 0.57543 0.29184 0.0
C1556 C 0.92691 0.5574 0.42959 0.0
C1557 C 0.87919 0.55842 0.44836 0.0
C1558 C 0.92095 0.55731 0.39772 0.0
C1559 C 0.86727 0.55855 0.38416 0.0
C1560 C 0.81951 0.55896 0.40316 0.0
C1561 C 0.82541 0.55878 0.43491 0.0
C1562 C 0.80782 0.55835 0.30316 0.0
C1563 C 0.84931 0.5653 0.28754 0.0
C1564 C 0.81411 0.55583 0.33448 0.0
C1565 C 0.86137 0.5605 0.35063 0.0
C1566 C 0.90199 0.56771 0.33478 0.0
C1567 C 0.89632 0.56995 0.30352 0.0
H1568 H 0.69899 0.33599 0.52717 0.0
H1569 H 0.52048 0.33123 0.54283 0.0
H1570 H 0.71531 0.33617 0.58241 0.0
H1571 H 0.53661 0.3303 0.59768 0.0
H1572 H 0.57528 0.33554 0.69741 0.0
H1573 H 0.5597 0.3399 0.64313 0.0
H1574 H 0.71858 0.3215 0.62157 0.0
H1575 H 0.73562 0.31824 0.67605 0.0
C1576 C 0.66333 0.33507 0.54258 0.0
C1577 C 0.60861 0.33362 0.53104 0.0
C1578 C 0.67257 0.335 0.57415 0.0
C1579 C 0.62743 0.33301 0.59462 0.0
C1580 C 0.57238 0.33206 0.58283 0.0
C1581 C 0.56303 0.33254 0.55134 0.0
C1582 C 0.60657 0.33247 0.68084 0.0
C1583 C 0.65642 0.32655 0.69046 0.0
C1584 C 0.59775 0.33491 0.64978 0.0
C1585 C 0.63794 0.3311 0.62781 0.0
C1586 C 0.68741 0.32493 0.63775 0.0
C1587 C 0.69695 0.32287 0.66886 0.0
H1588 H 0.74369 0.9282 0.538 0.0
H1589 H 0.56505 0.92096 0.52995 0.0
H1590 H 0.73595 0.92782 0.5936 0.0
H1591 H 0.55757 0.91959 0.58559 0.0
H1592 H 0.54446 0.93563 0.68057 0.0
H1593 H 0.55708 0.93416 0.62541 0.0
H1594 H 0.72114 0.91692 0.63939 0.0
H1595 H 0.70946 0.91938 0.69491 0.0
C1596 C 0.70307 0.92611 0.54824 0.0
C1597 C 0.65481 0.92472 0.52993 0.0
C1598 C 0.6986 0.92585 0.58012 0.0
C1599 C 0.64594 0.9239 0.59416 0.0
C1600 C 0.59846 0.92156 0.57558 0.0
C1601 C 0.60269 0.92218 0.54374 0.0
C1602 C 0.58333 0.93163 0.67166 0.0
C1603 C 0.62605 0.9276 0.69155 0.0
C1604 C 0.59036 0.9306 0.64012 0.0
C1605 C 0.63965 0.92515 0.62786 0.0
C1606 C 0.68283 0.92125 0.64799 0.0
C1607 C 0.6763 0.92263 0.67969 0.0
H1608 H 0.27219 0.67596 0.4421 0.0
H1609 H 0.44366 0.68944 0.45198 0.0
H1610 H 0.28346 0.676 0.38631 0.0
H1611 H 0.45432 0.6898 0.39659 0.0
H1612 H 0.4723 0.67632 0.29758 0.0
H1613 H 0.46115 0.67528 0.35331 0.0
H1614 H 0.29413 0.69147 0.34518 0.0
H1615 H 0.30462 0.69219 0.28978 0.0
C1616 C 0.31205 0.67899 0.43234 0.0
C1617 C 0.35701 0.68267 0.45127 0.0
C1618 C 0.31849 0.67905 0.40049 0.0
C1619 C 0.36988 0.68287 0.38717 0.0
C1620 C 0.41462 0.6866 0.4062 0.0
C1621 C 0.40829 0.68648 0.43793 0.0
C1622 C 0.43336 0.67967 0.3078 0.0
C1623 C 0.38935 0.68431 0.28946 0.0
C1624 C 0.42697 0.6791 0.33962 0.0
C1625 C 0.37661 0.68324 0.35351 0.0
C1626 C 0.33294 0.68799 0.33508 0.0
C1627 C 0.3392 0.68849 0.30337 0.0
H1628 H 0.30308 0.05744 0.45937 0.0
H1629 H 0.47385 0.07075 0.44545 0.0
H1630 H 0.28915 0.05643 0.40408 0.0
H1631 H 0.45943 0.07002 0.39002 0.0
H1632 H 0.4329 0.0559 0.29336 0.0
H1633 H 0.445 0.05477 0.34862 0.0
H1634 H 0.27997 0.07148 0.36138 0.0
H1635 H 0.26722 0.07233 0.3057 0.0
C1636 C 0.3377 0.06013 0.44446 0.0
C1637 C 0.38956 0.06421 0.45663 0.0
C1638 C 0.32953 0.05963 0.41283 0.0
C1639 C 0.37303 0.06321 0.39279 0.0
C1640 C 0.42531 0.06706 0.40497 0.0
C1641 C 0.43356 0.06752 0.43665 0.0
C1642 C 0.39899 0.05927 0.30793 0.0
C1643 C 0.34921 0.06429 0.2953 0.0
C1644 C 0.40612 0.05868 0.33957 0.0
C1645 C 0.36374 0.06316 0.35927 0.0
C1646 C 0.3132 0.06787 0.34669 0.0
C1647 C 0.30593 0.0684 0.31489 0.0
H1648 H 0.69418 0.81865 0.04736 0.0
H1649 H 0.51367 0.82359 0.05563 0.0
H1650 H 0.70207 0.81837 0.10336 0.0
H1651 H 0.52185 0.82353 0.11107 0.0
H1652 H 0.5521 0.8124 0.21011 0.0
H1653 H 0.54677 0.80968 0.15472 0.0
H1654 H 0.68813 0.83535 0.14324 0.0
H1655 H 0.69427 0.83798 0.19864 0.0
C1656 C 0.65629 0.81955 0.06108 0.0
C1657 C 0.60348 0.82134 0.04721 0.0
C1658 C 0.66083 0.81947 0.09301 0.0
C1659 C 0.61259 0.82104 0.11135 0.0
C1660 C 0.55963 0.82223 0.09743 0.0
C1661 C 0.55511 0.82238 0.06568 0.0
C1662 C 0.58177 0.81756 0.19581 0.0
C1663 C 0.62341 0.82548 0.20874 0.0
C1664 C 0.57883 0.81594 0.16414 0.0
C1665 C 0.61736 0.82223 0.14488 0.0
C1666 C 0.65865 0.83021 0.15771 0.0
C1667 C 0.66167 0.83183 0.18938 0.0
H1668 H 0.70695 0.41223 0.04796 0.0
H1669 H 0.55022 0.4333 0.04163 0.0
H1670 H 0.69656 0.41117 0.10338 0.0
H1671 H 0.54029 0.43218 0.09732 0.0
H1672 H 0.52177 0.41799 0.19619 0.0
H1673 H 0.5284 0.41571 0.14063 0.0
H1674 H 0.70089 0.42893 0.14351 0.0
H1675 H 0.69474 0.43122 0.19907 0.0
C1676 C 0.66997 0.41652 0.05829 0.0
C1677 C 0.62962 0.42296 0.0404 0.0
C1678 C 0.66426 0.41593 0.09001 0.0
C1679 C 0.61794 0.42167 0.10439 0.0
C1680 C 0.57623 0.42762 0.08657 0.0
C1681 C 0.58209 0.4283 0.05477 0.0
C1682 C 0.56138 0.42026 0.18506 0.0
C1683 C 0.60776 0.42482 0.20198 0.0
C1684 C 0.56492 0.41902 0.15331 0.0
C1685 C 0.61503 0.42216 0.13804 0.0
C1686 C 0.66194 0.42634 0.15495 0.0
C1687 C 0.65829 0.4277 0.18667 0.0
H1688 H 0.47268 0.1757 0.80007 0.0
H1689 H 0.30975 0.19403 0.79373 0.0
H1690 H 0.46306 0.17491 0.85597 0.0
H1691 H 0.30087 0.19354 0.84918 0.0
H1692 H 0.27619 0.1784 0.94598 0.0
H1693 H 0.28663 0.17824 0.89019 0.0
H1694 H 0.46131 0.18943 0.89964 0.0
H1695 H 0.45132 0.18927 0.95513 0.0
C1696 C 0.43515 0.17964 0.81063 0.0
C1697 C 0.39195 0.18488 0.79264 0.0
C1698 C 0.42965 0.17922 0.84255 0.0
C1699 C 0.38099 0.1841 0.85687 0.0
C1700 C 0.33828 0.18948 0.83878 0.0
C1701 C 0.34363 0.18984 0.80701 0.0
C1702 C 0.31668 0.18085 0.93606 0.0
C1703 C 0.36284 0.18387 0.95481 0.0
C1704 C 0.32269 0.18078 0.90419 0.0
C1705 C 0.37487 0.18381 0.89061 0.0
C1706 C 0.42088 0.18686 0.90945 0.0
C1707 C 0.41495 0.18687 0.94123 0.0
H1708 H 0.30761 0.55706 0.95558 0.0
H1709 H 0.47306 0.5734 0.94104 0.0
H1710 H 0.29272 0.55609 0.90046 0.0
H1711 H 0.45754 0.57267 0.88562 0.0
H1712 H 0.4328 0.55789 0.78905 0.0
H1713 H 0.44697 0.5571 0.8442 0.0
H1714 H 0.27761 0.57119 0.85832 0.0
H1715 H 0.26288 0.57173 0.80277 0.0
C1716 C 0.34084 0.56045 0.94056 0.0
C1717 C 0.39149 0.56535 0.9525 0.0
C1718 C 0.33208 0.55996 0.90903 0.0
C1719 C 0.37376 0.56438 0.88884 0.0
C1720 C 0.42489 0.56908 0.90073 0.0
C1721 C 0.43376 0.56953 0.93237 0.0
C1722 C 0.39839 0.56075 0.80391 0.0
C1723 C 0.34678 0.56495 0.79173 0.0
C1724 C 0.40672 0.56037 0.83546 0.0
C1725 C 0.36367 0.56421 0.85546 0.0
C1726 C 0.3114 0.56809 0.84334 0.0
C1727 C 0.30296 0.56842 0.81164 0.0
loop_
_geom_bond_atom_site_label_1
_geom_bond_atom_site_label_2
_geom_bond_distance
_geom_bond_site_symmetry_2
_ccdc_geom_bond_type
Co0 O1 2.216 . S
Co0 O2 2.091 . S
Co0 O4 2.004 . S
Co0 O10 2.021 . S
Co0 O12 2.137 . S
Co0 O13 2.244 . S
O1 Co0 2.216 . S
O1 C8 1.247 . S
O2 Co0 2.091 . S
O2 C8 1.261 . S
C3 O12 1.247 . S
C3 O13 1.272 . S
O4 Co0 2.004 . S
O4 C9 1.259 . S
Co5 O6 2.061 . S
Co5 O11 2.052 . S
Co5 O13 2.135 . S
O6 Co5 2.061 . S
O6 C9 1.235 . S
C7 O10 1.238 . S
C7 O11 1.241 . S
C8 O1 1.247 . S
C8 O2 1.261 . S
C9 O4 1.259 . S
C9 O6 1.235 . S
O10 Co0 2.021 . S
O10 C7 1.238 . S
O11 Co5 2.052 . S
O11 C7 1.241 . S
O12 Co0 2.137 . S
O12 C3 1.247 . S
O13 Co0 2.244 . S
O13 C3 1.272 . S
O13 Co5 2.135 . S
Co14 O15 2.216 . S
Co14 O16 2.091 . S
Co14 O18 2.004 . S
Co14 O24 2.021 . S
Co14 O26 2.137 . S
Co14 O27 2.244 . S
O15 Co14 2.216 . S
O15 C22 1.247 . S
O16 Co14 2.091 . S
O16 C22 1.261 . S
C17 O26 1.247 . S
C17 O27 1.272 . S
O18 Co14 2.004 . S
O18 C23 1.259 . S
Co19 O20 2.061 . S
Co19 O25 2.052 . S
Co19 O27 2.135 . S
O20 Co19 2.061 . S
O20 C23 1.235 . S
C21 O24 1.238 . S
C21 O25 1.241 . S
C22 O15 1.247 . S
C22 O16 1.261 . S
C23 O18 1.259 . S
C23 O20 1.235 . S
O24 Co14 2.021 . S
O24 C21 1.238 . S
O25 Co19 2.052 . S
O25 C21 1.241 . S
O26 Co14 2.137 . S
O26 C17 1.247 . S
O27 Co14 2.244 . S
O27 C17 1.272 . S
O27 Co19 2.135 . S
Co28 O29 2.216 . S
Co28 O30 2.091 . S
Co28 O32 2.004 . S
Co28 O38 2.021 . S
Co28 O40 2.137 . S
Co28 O41 2.244 . S
O29 Co28 2.216 . S
O29 C36 1.247 . S
O30 Co28 2.091 . S
O30 C36 1.261 . S
C31 O40 1.247 . S
C31 O41 1.272 . S
O32 Co28 2.004 . S
O32 C37 1.259 . S
Co33 O34 2.061 . S
Co33 O39 2.052 1_556 S
Co33 O41 2.135 . S
O34 Co33 2.061 . S
O34 C37 1.235 . S
C35 O38 1.238 1_554 S
C35 O39 1.241 . S
C36 O29 1.247 . S
C36 O30 1.261 . S
C37 O32 1.259 . S
C37 O34 1.235 . S
O38 Co28 2.021 . S
O38 C35 1.238 1_556 S
O39 Co33 2.052 1_554 S
O39 C35 1.241 . S
O40 Co28 2.137 . S
O40 C31 1.247 . S
O41 Co28 2.244 . S
O41 C31 1.272 . S
O41 Co33 2.135 . S
Co42 O43 2.216 . S
Co42 O44 2.091 . S
Co42 O46 2.004 . S
Co42 O52 2.021 . S
Co42 O54 2.137 . S
Co42 O55 2.244 . S
O43 Co42 2.216 . S
O43 C50 1.247 . S
O44 Co42 2.091 . S
O44 C50 1.261 . S
C45 O54 1.247 . S
C45 O55 1.272 . S
O46 Co42 2.004 . S
O46 C51 1.259 . S
Co47 O48 2.061 . S
Co47 O53 2.052 1_556 S
Co47 O55 2.135 . S
O48 Co47 2.061 . S
O48 C51 1.235 . S
C49 O52 1.238 1_554 S
C49 O53 1.241 . S
C50 O43 1.247 . S
C50 O44 1.261 . S
C51 O46 1.259 . S
C51 O48 1.235 . S
O52 Co42 2.021 . S
O52 C49 1.238 1_556 S
O53 Co47 2.052 1_554 S
O53 C49 1.241 . S
O54 Co42 2.137 . S
O54 C45 1.247 . S
O55 Co42 2.244 . S
O55 C45 1.272 . S
O55 Co47 2.135 . S
Co56 O57 2.216 . S
Co56 O58 2.091 . S
Co56 O60 2.004 . S
Co56 O66 2.021 . S
Co56 O68 2.137 . S
Co56 O69 2.244 . S
O57 Co56 2.216 . S
O57 C64 1.247 . S
O58 Co56 2.091 . S
O58 C64 1.261 . S
C59 O68 1.247 . S
C59 O69 1.272 . S
O60 Co56 2.004 . S
O60 C65 1.259 . S
Co61 O62 2.061 . S
Co61 O67 2.052 . S
Co61 O69 2.135 . S
O62 Co61 2.061 . S
O62 C65 1.235 . S
C63 O66 1.238 . S
C63 O67 1.241 . S
C64 O57 1.247 . S
C64 O58 1.261 . S
C65 O60 1.259 . S
C65 O62 1.235 . S
O66 Co56 2.021 . S
O66 C63 1.238 . S
O67 Co61 2.052 . S
O67 C63 1.241 . S
O68 Co56 2.137 . S
O68 C59 1.247 . S
O69 Co56 2.244 . S
O69 C59 1.272 . S
O69 Co61 2.135 . S
Co70 O71 2.216 . S
Co70 O72 2.091 . S
Co70 O74 2.004 . S
Co70 O80 2.021 . S
Co70 O82 2.137 . S
Co70 O83 2.244 . S
O71 Co70 2.216 . S
O71 C78 1.247 . S
O72 Co70 2.091 . S
O72 C78 1.261 . S
C73 O82 1.247 . S
C73 O83 1.272 . S
O74 Co70 2.004 . S
O74 C79 1.259 . S
Co75 O76 2.061 . S
Co75 O81 2.052 . S
Co75 O83 2.135 . S
O76 Co75 2.061 . S
O76 C79 1.235 . S
C77 O80 1.238 . S
C77 O81 1.241 . S
C78 O71 1.247 . S
C78 O72 1.261 . S
C79 O74 1.259 . S
C79 O76 1.235 . S
O80 Co70 2.021 . S
O80 C77 1.238 . S
O81 Co75 2.052 . S
O81 C77 1.241 . S
O82 Co70 2.137 . S
O82 C73 1.247 . S
O83 Co70 2.244 . S
O83 C73 1.272 . S
O83 Co75 2.135 . S
Co84 O85 2.216 1_554 S
Co84 O86 2.091 1_554 S
Co84 O88 2.004 . S
Co84 O94 2.021 . S
Co84 O96 2.137 . S
Co84 O97 2.244 . S
O85 Co84 2.216 1_556 S
O85 C92 1.247 . S
O86 Co84 2.091 1_556 S
O86 C92 1.261 . S
C87 O96 1.247 . S
C87 O97 1.272 . S
O88 Co84 2.004 . S
O88 C93 1.259 . S
Co89 O90 2.061 . S
Co89 O95 2.052 . S
Co89 O97 2.135 . S
O90 Co89 2.061 . S
O90 C93 1.235 . S
C91 O94 1.238 . S
C91 O95 1.241 . S
C92 O85 1.247 . S
C92 O86 1.261 . S
C93 O88 1.259 . S
C93 O90 1.235 . S
O94 Co84 2.021 . S
O94 C91 1.238 . S
O95 Co89 2.052 . S
O95 C91 1.241 . S
O96 Co84 2.137 . S
O96 C87 1.247 . S
O97 Co84 2.244 . S
O97 C87 1.272 . S
O97 Co89 2.135 . S
Co98 O99 2.216 1_554 S
Co98 O100 2.091 1_554 S
Co98 O102 2.004 . S
Co98 O108 2.021 . S
Co98 O110 2.137 . S
Co98 O111 2.244 . S
O99 Co98 2.216 1_556 S
O99 C106 1.247 . S
O100 Co98 2.091 1_556 S
O100 C106 1.261 . S
C101 O110 1.247 . S
C101 O111 1.272 . S
O102 Co98 2.004 . S
O102 C107 1.259 . S
Co103 O104 2.061 . S
Co103 O109 2.052 . S
Co103 O111 2.135 . S
O104 Co103 2.061 . S
O104 C107 1.235 . S
C105 O108 1.238 . S
C105 O109 1.241 . S
C106 O99 1.247 . S
C106 O100 1.261 . S
C107 O102 1.259 . S
C107 O104 1.235 . S
O108 Co98 2.021 . S
O108 C105 1.238 . S
O109 Co103 2.052 . S
O109 C105 1.241 . S
O110 Co98 2.137 . S
O110 C101 1.247 . S
O111 Co98 2.244 . S
O111 C101 1.272 . S
O111 Co103 2.135 . S
Co112 O113 2.216 . S
Co112 O114 2.091 . S
Co112 O116 2.004 . S
Co112 O122 2.021 . S
Co112 O124 2.137 . S
Co112 O125 2.244 . S
O113 Co112 2.216 . S
O113 C120 1.247 . S
O114 Co112 2.091 . S
O114 C120 1.261 . S
C115 O124 1.247 . S
C115 O125 1.272 . S
O116 Co112 2.004 . S
O116 C121 1.259 . S
Co117 O118 2.061 . S
Co117 O123 2.052 . S
Co117 O125 2.135 . S
O118 Co117 2.061 . S
O118 C121 1.235 . S
C119 O122 1.238 . S
C119 O123 1.241 . S
C120 O113 1.247 . S
C120 O114 1.261 . S
C121 O116 1.259 . S
C121 O118 1.235 . S
O122 Co112 2.021 . S
O122 C119 1.238 . S
O123 Co117 2.052 . S
O123 C119 1.241 . S
O124 Co112 2.137 . S
O124 C115 1.247 . S
O125 Co112 2.244 . S
O125 C115 1.272 . S
O125 Co117 2.135 . S
Co126 O127 2.216 . S
Co126 O128 2.091 . S
Co126 O130 2.004 . S
Co126 O136 2.021 . S
Co126 O138 2.137 . S
Co126 O139 2.244 . S
O127 Co126 2.216 . S
O127 C134 1.247 . S
O128 Co126 2.091 . S
O128 C134 1.261 . S
C129 O138 1.247 . S
C129 O139 1.272 . S
O130 Co126 2.004 . S
O130 C135 1.259 . S
Co131 O132 2.061 . S
Co131 O137 2.052 . S
Co131 O139 2.135 . S
O132 Co131 2.061 . S
O132 C135 1.235 . S
C133 O136 1.238 . S
C133 O137 1.241 . S
C134 O127 1.247 . S
C134 O128 1.261 . S
C135 O130 1.259 . S
C135 O132 1.235 . S
O136 Co126 2.021 . S
O136 C133 1.238 . S
O137 Co131 2.052 . S
O137 C133 1.241 . S
O138 Co126 2.137 . S
O138 C129 1.247 . S
O139 Co126 2.244 . S
O139 C129 1.272 . S
O139 Co131 2.135 . S
Co140 O141 2.216 . S
Co140 O142 2.091 . S
Co140 O144 2.004 . S
Co140 O150 2.021 . S
Co140 O152 2.137 . S
Co140 O153 2.244 . S
O141 Co140 2.216 . S
O141 C148 1.247 . S
O142 Co140 2.091 . S
O142 C148 1.261 . S
C143 O152 1.247 . S
C143 O153 1.272 . S
O144 Co140 2.004 . S
O144 C149 1.259 . S
Co145 O146 2.061 . S
Co145 O151 2.052 . S
Co145 O153 2.135 . S
O146 Co145 2.061 . S
O146 C149 1.235 . S
C147 O150 1.238 . S
C147 O151 1.241 . S
C148 O141 1.247 . S
C148 O142 1.261 . S
C149 O144 1.259 . S
C149 O146 1.235 . S
O150 Co140 2.021 . S
O150 C147 1.238 . S
O151 Co145 2.052 . S
O151 C147 1.241 . S
O152 Co140 2.137 . S
O152 C143 1.247 . S
O153 Co140 2.244 . S
O153 C143 1.272 . S
O153 Co145 2.135 . S
Co154 O155 2.216 . S
Co154 O156 2.091 . S
Co154 O158 2.004 . S
Co154 O164 2.021 . S
Co154 O166 2.137 . S
Co154 O167 2.244 . S
O155 Co154 2.216 . S
O155 C162 1.247 . S
O156 Co154 2.091 . S
O156 C162 1.261 . S
C157 O166 1.247 . S
C157 O167 1.272 . S
O158 Co154 2.004 . S
O158 C163 1.259 . S
Co159 O160 2.061 . S
Co159 O165 2.052 . S
Co159 O167 2.135 . S
O160 Co159 2.061 . S
O160 C163 1.235 . S
C161 O164 1.238 . S
C161 O165 1.241 . S
C162 O155 1.247 . S
C162 O156 1.261 . S
C163 O158 1.259 . S
C163 O160 1.235 . S
O164 Co154 2.021 . S
O164 C161 1.238 . S
O165 Co159 2.052 . S
O165 C161 1.241 . S
O166 Co154 2.137 . S
O166 C157 1.247 . S
O167 Co154 2.244 . S
O167 C157 1.272 . S
O167 Co159 2.135 . S
Co168 O169 2.216 . S
Co168 O170 2.091 . S
Co168 O172 2.004 . S
Co168 O178 2.021 . S
Co168 O180 2.137 . S
Co168 O181 2.244 . S
O169 Co168 2.216 . S
O169 C176 1.247 . S
O170 Co168 2.091 . S
O170 C176 1.261 . S
C171 O180 1.247 . S
C171 O181 1.272 . S
O172 Co168 2.004 . S
O172 C177 1.259 . S
Co173 O174 2.061 . S
Co173 O179 2.052 . S
Co173 O181 2.135 . S
O174 Co173 2.061 . S
O174 C177 1.235 . S
C175 O178 1.238 . S
C175 O179 1.241 . S
C176 O169 1.247 . S
C176 O170 1.261 . S
C177 O172 1.259 . S
C177 O174 1.235 . S
O178 Co168 2.021 . S
O178 C175 1.238 . S
O179 Co173 2.052 . S
O179 C175 1.241 . S
O180 Co168 2.137 . S
O180 C171 1.247 . S
O181 Co168 2.244 . S
O181 C171 1.272 . S
O181 Co173 2.135 . S
Co182 O183 2.216 . S
Co182 O184 2.091 . S
Co182 O186 2.004 . S
Co182 O192 2.021 . S
Co182 O194 2.137 . S
Co182 O195 2.244 . S
O183 Co182 2.216 . S
O183 C190 1.247 . S
O184 Co182 2.091 . S
O184 C190 1.261 . S
C185 O194 1.247 . S
C185 O195 1.272 . S
O186 Co182 2.004 . S
O186 C191 1.259 . S
Co187 O188 2.061 . S
Co187 O193 2.052 . S
Co187 O195 2.135 . S
O188 Co187 2.061 . S
O188 C191 1.235 . S
C189 O192 1.238 . S
C189 O193 1.241 . S
C190 O183 1.247 . S
C190 O184 1.261 . S
C191 O186 1.259 . S
C191 O188 1.235 . S
O192 Co182 2.021 . S
O192 C189 1.238 . S
O193 Co187 2.052 . S
O193 C189 1.241 . S
O194 Co182 2.137 . S
O194 C185 1.247 . S
O195 Co182 2.244 . S
O195 C185 1.272 . S
O195 Co187 2.135 . S
Co196 O197 2.216 . S
Co196 O198 2.091 . S
Co196 O200 2.004 . S
Co196 O206 2.021 . S
Co196 O208 2.137 . S
Co196 O209 2.244 . S
O197 Co196 2.216 . S
O197 C204 1.247 . S
O198 Co196 2.091 . S
O198 C204 1.261 . S
C199 O208 1.247 . S
C199 O209 1.272 . S
O200 Co196 2.004 . S
O200 C205 1.259 . S
Co201 O202 2.061 . S
Co201 O207 2.052 . S
Co201 O209 2.135 . S
O202 Co201 2.061 . S
O202 C205 1.235 . S
C203 O206 1.238 . S
C203 O207 1.241 . S
C204 O197 1.247 . S
C204 O198 1.261 . S
C205 O200 1.259 . S
C205 O202 1.235 . S
O206 Co196 2.021 . S
O206 C203 1.238 . S
O207 Co201 2.052 . S
O207 C203 1.241 . S
O208 Co196 2.137 . S
O208 C199 1.247 . S
O209 Co196 2.244 . S
O209 C199 1.272 . S
O209 Co201 2.135 . S
Co210 O211 2.216 . S
Co210 O212 2.091 . S
Co210 O214 2.004 . S
Co210 O220 2.021 . S
Co210 O222 2.137 . S
Co210 O223 2.244 . S
O211 Co210 2.216 . S
O211 C218 1.247 . S
O212 Co210 2.091 . S
O212 C218 1.261 . S
C213 O222 1.247 . S
C213 O223 1.272 . S
O214 Co210 2.004 . S
O214 C219 1.259 . S
Co215 O216 2.061 . S
Co215 O221 2.052 . S
Co215 O223 2.135 . S
O216 Co215 2.061 . S
O216 C219 1.235 . S
C217 O220 1.238 . S
C217 O221 1.241 . S
C218 O211 1.247 . S
C218 O212 1.261 . S
C219 O214 1.259 . S
C219 O216 1.235 . S
O220 Co210 2.021 . S
O220 C217 1.238 . S
O221 Co215 2.052 . S
O221 C217 1.241 . S
O222 Co210 2.137 . S
O222 C213 1.247 . S
O223 Co210 2.244 . S
O223 C213 1.272 . S
O223 Co215 2.135 . S
Co224 O225 2.216 . S
Co224 O226 2.091 . S
Co224 O228 2.004 . S
Co224 O234 2.021 . S
Co224 O236 2.137 . S
Co224 O237 2.244 . S
O225 Co224 2.216 . S
O225 C232 1.247 . S
O226 Co224 2.091 . S
O226 C232 1.261 . S
C227 O236 1.247 . S
C227 O237 1.272 . S
O228 Co224 2.004 . S
O228 C233 1.259 . S
Co229 O230 2.061 . S
Co229 O235 2.052 . S
Co229 O237 2.135 . S
O230 Co229 2.061 . S
O230 C233 1.235 . S
C231 O234 1.238 . S
C231 O235 1.241 . S
C232 O225 1.247 . S
C232 O226 1.261 . S
C233 O228 1.259 . S
C233 O230 1.235 . S
O234 Co224 2.021 . S
O234 C231 1.238 . S
O235 Co229 2.052 . S
O235 C231 1.241 . S
O236 Co224 2.137 . S
O236 C227 1.247 . S
O237 Co224 2.244 . S
O237 C227 1.272 . S
O237 Co229 2.135 . S
Co238 O239 2.216 . S
Co238 O240 2.091 . S
Co238 O242 2.004 . S
Co238 O248 2.021 . S
Co238 O250 2.137 . S
Co238 O251 2.244 . S
O239 Co238 2.216 . S
O239 C246 1.247 . S
O240 Co238 2.091 . S
O240 C246 1.261 . S
C241 O250 1.247 . S
C241 O251 1.272 . S
O242 Co238 2.004 . S
O242 C247 1.259 . S
Co243 O244 2.061 . S
Co243 O249 2.052 . S
Co243 O251 2.135 . S
O244 Co243 2.061 . S
O244 C247 1.235 . S
C245 O248 1.238 . S
C245 O249 1.241 . S
C246 O239 1.247 . S
C246 O240 1.261 . S
C247 O242 1.259 . S
C247 O244 1.235 . S
O248 Co238 2.021 . S
O248 C245 1.238 . S
O249 Co243 2.052 . S
O249 C245 1.241 . S
O250 Co238 2.137 . S
O250 C241 1.247 . S
O251 Co238 2.244 . S
O251 C241 1.272 . S
O251 Co243 2.135 . S
Co252 O253 2.216 . S
Co252 O254 2.091 . S
Co252 O256 2.004 . S
Co252 O262 2.021 . S
Co252 O264 2.137 . S
Co252 O265 2.244 . S
O253 Co252 2.216 . S
O253 C260 1.247 . S
O254 Co252 2.091 . S
O254 C260 1.261 . S
C255 O264 1.247 . S
C255 O265 1.272 . S
O256 Co252 2.004 . S
O256 C261 1.259 . S
Co257 O258 2.061 . S
Co257 O263 2.052 . S
Co257 O265 2.135 . S
O258 Co257 2.061 . S
O258 C261 1.235 . S
C259 O262 1.238 . S
C259 O263 1.241 . S
C260 O253 1.247 . S
C260 O254 1.261 . S
C261 O256 1.259 . S
C261 O258 1.235 . S
O262 Co252 2.021 . S
O262 C259 1.238 . S
O263 Co257 2.052 . S
O263 C259 1.241 . S
O264 Co252 2.137 . S
O264 C255 1.247 . S
O265 Co252 2.244 . S
O265 C255 1.272 . S
O265 Co257 2.135 . S
Co266 O267 2.216 . S
Co266 O268 2.091 . S
Co266 O270 2.004 . S
Co266 O276 2.021 . S
Co266 O278 2.137 . S
Co266 O279 2.244 . S
O267 Co266 2.216 . S
O267 C274 1.247 . S
O268 Co266 2.091 . S
O268 C274 1.261 . S
C269 O278 1.247 . S
C269 O279 1.272 . S
O270 Co266 2.004 . S
O270 C275 1.259 . S
Co271 O272 2.061 . S
Co271 O277 2.052 . S
Co271 O279 2.135 . S
O272 Co271 2.061 . S
O272 C275 1.235 . S
C273 O276 1.238 . S
C273 O277 1.241 . S
C274 O267 1.247 . S
C274 O268 1.261 . S
C275 O270 1.259 . S
C275 O272 1.235 . S
O276 Co266 2.021 . S
O276 C273 1.238 . S
O277 Co271 2.052 . S
O277 C273 1.241 . S
O278 Co266 2.137 . S
O278 C269 1.247 . S
O279 Co266 2.244 . S
O279 C269 1.272 . S
O279 Co271 2.135 . S
Co280 O281 2.216 . S
Co280 O282 2.091 . S
Co280 O284 2.004 . S
Co280 O290 2.021 . S
Co280 O292 2.137 . S
Co280 O293 2.244 . S
O281 Co280 2.216 . S
O281 C288 1.247 . S
O282 Co280 2.091 . S
O282 C288 1.261 . S
C283 O292 1.247 . S
C283 O293 1.272 . S
O284 Co280 2.004 . S
O284 C289 1.259 . S
Co285 O286 2.061 . S
Co285 O291 2.052 . S
Co285 O293 2.135 . S
O286 Co285 2.061 . S
O286 C289 1.235 . S
C287 O290 1.238 . S
C287 O291 1.241 . S
C288 O281 1.247 . S
C288 O282 1.261 . S
C289 O284 1.259 . S
C289 O286 1.235 . S
O290 Co280 2.021 . S
O290 C287 1.238 . S
O291 Co285 2.052 . S
O291 C287 1.241 . S
O292 Co280 2.137 . S
O292 C283 1.247 . S
O293 Co280 2.244 . S
O293 C283 1.272 . S
O293 Co285 2.135 . S
Co294 O295 2.216 . S
Co294 O296 2.091 . S
Co294 O298 2.004 . S
Co294 O304 2.021 . S
Co294 O306 2.137 . S
Co294 O307 2.244 . S
O295 Co294 2.216 . S
O295 C302 1.247 . S
O296 Co294 2.091 . S
O296 C302 1.261 . S
C297 O306 1.247 . S
C297 O307 1.272 . S
O298 Co294 2.004 . S
O298 C303 1.259 . S
Co299 O300 2.061 . S
Co299 O305 2.052 . S
Co299 O307 2.135 . S
O300 Co299 2.061 . S
O300 C303 1.235 . S
C301 O304 1.238 . S
C301 O305 1.241 . S
C302 O295 1.247 . S
C302 O296 1.261 . S
C303 O298 1.259 . S
C303 O300 1.235 . S
O304 Co294 2.021 . S
O304 C301 1.238 . S
O305 Co299 2.052 . S
O305 C301 1.241 . S
O306 Co294 2.137 . S
O306 C297 1.247 . S
O307 Co294 2.244 . S
O307 C297 1.272 . S
O307 Co299 2.135 . S
Co308 O309 2.216 . S
Co308 O310 2.091 . S
Co308 O312 2.004 . S
Co308 O318 2.021 . S
Co308 O320 2.137 . S
Co308 O321 2.244 . S
O309 Co308 2.216 . S
O309 C316 1.247 . S
O310 Co308 2.091 . S
O310 C316 1.261 . S
C311 O320 1.247 . S
C311 O321 1.272 . S
O312 Co308 2.004 . S
O312 C317 1.259 . S
Co313 O314 2.061 . S
Co313 O319 2.052 . S
Co313 O321 2.135 . S
O314 Co313 2.061 . S
O314 C317 1.235 . S
C315 O318 1.238 . S
C315 O319 1.241 . S
C316 O309 1.247 . S
C316 O310 1.261 . S
C317 O312 1.259 . S
C317 O314 1.235 . S
O318 Co308 2.021 . S
O318 C315 1.238 . S
O319 Co313 2.052 . S
O319 C315 1.241 . S
O320 Co308 2.137 . S
O320 C311 1.247 . S
O321 Co308 2.244 . S
O321 C311 1.272 . S
O321 Co313 2.135 . S
Co322 O323 2.216 . S
Co322 O324 2.091 . S
Co322 O326 2.004 . S
Co322 O332 2.021 . S
Co322 O334 2.137 . S
Co322 O335 2.244 . S
O323 Co322 2.216 . S
O323 C330 1.247 . S
O324 Co322 2.091 . S
O324 C330 1.261 . S
C325 O334 1.247 . S
C325 O335 1.272 . S
O326 Co322 2.004 . S
O326 C331 1.259 . S
Co327 O328 2.061 . S
Co327 O333 2.052 . S
Co327 O335 2.135 . S
O328 Co327 2.061 . S
O328 C331 1.235 . S
C329 O332 1.238 . S
C329 O333 1.241 . S
C330 O323 1.247 . S
C330 O324 1.261 . S
C331 O326 1.259 . S
C331 O328 1.235 . S
O332 Co322 2.021 . S
O332 C329 1.238 . S
O333 Co327 2.052 . S
O333 C329 1.241 . S
O334 Co322 2.137 . S
O334 C325 1.247 . S
O335 Co322 2.244 . S
O335 C325 1.272 . S
O335 Co327 2.135 . S
Co336 O337 2.216 . S
Co336 O338 2.091 . S
Co336 O340 2.004 . S
Co336 O346 2.021 . S
Co336 O348 2.137 . S
Co336 O349 2.244 . S
O337 Co336 2.216 . S
O337 C344 1.247 . S
O338 Co336 2.091 . S
O338 C344 1.261 . S
C339 O348 1.247 . S
C339 O349 1.272 . S
O340 Co336 2.004 . S
O340 C345 1.259 . S
Co341 O342 2.061 . S
Co341 O347 2.052 . S
Co341 O349 2.135 . S
O342 Co341 2.061 . S
O342 C345 1.235 . S
C343 O346 1.238 . S
C343 O347 1.241 . S
C344 O337 1.247 . S
C344 O338 1.261 . S
C345 O340 1.259 . S
C345 O342 1.235 . S
O346 Co336 2.021 . S
O346 C343 1.238 . S
O347 Co341 2.052 . S
O347 C343 1.241 . S
O348 Co336 2.137 . S
O348 C339 1.247 . S
O349 Co336 2.244 . S
O349 C339 1.272 . S
O349 Co341 2.135 . S
Co350 O351 2.216 . S
Co350 O352 2.091 . S
Co350 O354 2.004 . S
Co350 O360 2.021 . S
Co350 O362 2.137 . S
Co350 O363 2.244 . S
O351 Co350 2.216 . S
O351 C358 1.247 . S
O352 Co350 2.091 . S
O352 C358 1.261 . S
C353 O362 1.247 . S
C353 O363 1.272 . S
O354 Co350 2.004 . S
O354 C359 1.259 . S
Co355 O356 2.061 . S
Co355 O361 2.052 . S
Co355 O363 2.135 . S
O356 Co355 2.061 . S
O356 C359 1.235 . S
C357 O360 1.238 . S
C357 O361 1.241 . S
C358 O351 1.247 . S
C358 O352 1.261 . S
C359 O354 1.259 . S
C359 O356 1.235 . S
O360 Co350 2.021 . S
O360 C357 1.238 . S
O361 Co355 2.052 . S
O361 C357 1.241 . S
O362 Co350 2.137 . S
O362 C353 1.247 . S
O363 Co350 2.244 . S
O363 C353 1.272 . S
O363 Co355 2.135 . S
Co364 O365 2.216 . S
Co364 O366 2.091 . S
Co364 O368 2.004 . S
Co364 O374 2.021 . S
Co364 O376 2.137 . S
Co364 O377 2.244 . S
O365 Co364 2.216 . S
O365 C372 1.247 . S
O366 Co364 2.091 . S
O366 C372 1.261 . S
C367 O376 1.247 . S
C367 O377 1.272 . S
O368 Co364 2.004 . S
O368 C373 1.259 . S
Co369 O370 2.061 . S
Co369 O375 2.052 1_556 S
Co369 O377 2.135 . S
O370 Co369 2.061 . S
O370 C373 1.235 . S
C371 O374 1.238 1_554 S
C371 O375 1.241 . S
C372 O365 1.247 . S
C372 O366 1.261 . S
C373 O368 1.259 . S
C373 O370 1.235 . S
O374 Co364 2.021 . S
O374 C371 1.238 1_556 S
O375 Co369 2.052 1_554 S
O375 C371 1.241 . S
O376 Co364 2.137 . S
O376 C367 1.247 . S
O377 Co364 2.244 . S
O377 C367 1.272 . S
O377 Co369 2.135 . S
Co378 O379 2.216 . S
Co378 O380 2.091 . S
Co378 O382 2.004 . S
Co378 O388 2.021 . S
Co378 O390 2.137 . S
Co378 O391 2.244 . S
O379 Co378 2.216 . S
O379 C386 1.247 . S
O380 Co378 2.091 . S
O380 C386 1.261 . S
C381 O390 1.247 . S
C381 O391 1.272 . S
O382 Co378 2.004 . S
O382 C387 1.259 . S
Co383 O384 2.061 . S
Co383 O389 2.052 1_556 S
Co383 O391 2.135 . S
O384 Co383 2.061 . S
O384 C387 1.235 . S
C385 O388 1.238 1_554 S
C385 O389 1.241 . S
C386 O379 1.247 . S
C386 O380 1.261 . S
C387 O382 1.259 . S
C387 O384 1.235 . S
O388 Co378 2.021 . S
O388 C385 1.238 1_556 S
O389 Co383 2.052 1_554 S
O389 C385 1.241 . S
O390 Co378 2.137 . S
O390 C381 1.247 . S
O391 Co378 2.244 . S
O391 C381 1.272 . S
O391 Co383 2.135 . S
Co392 O393 2.216 . S
Co392 O394 2.091 . S
Co392 O396 2.004 . S
Co392 O402 2.021 . S
Co392 O404 2.137 . S
Co392 O405 2.244 . S
O393 Co392 2.216 . S
O393 C400 1.247 . S
O394 Co392 2.091 . S
O394 C400 1.261 . S
C395 O404 1.247 . S
C395 O405 1.272 . S
O396 Co392 2.004 . S
O396 C401 1.259 . S
Co397 O398 2.061 . S
Co397 O403 2.052 . S
Co397 O405 2.135 . S
O398 Co397 2.061 . S
O398 C401 1.235 . S
C399 O402 1.238 . S
C399 O403 1.241 . S
C400 O393 1.247 . S
C400 O394 1.261 . S
C401 O396 1.259 . S
C401 O398 1.235 . S
O402 Co392 2.021 . S
O402 C399 1.238 . S
O403 Co397 2.052 . S
O403 C399 1.241 . S
O404 Co392 2.137 . S
O404 C395 1.247 . S
O405 Co392 2.244 . S
O405 C395 1.272 . S
O405 Co397 2.135 . S
Co406 O407 2.216 . S
Co406 O408 2.091 . S
Co406 O410 2.004 . S
Co406 O416 2.021 . S
Co406 O418 2.137 . S
Co406 O419 2.244 . S
O407 Co406 2.216 . S
O407 C414 1.247 . S
O408 Co406 2.091 . S
O408 C414 1.261 . S
C409 O418 1.247 . S
C409 O419 1.272 . S
O410 Co406 2.004 . S
O410 C415 1.259 . S
Co411 O412 2.061 . S
Co411 O417 2.052 . S
Co411 O419 2.135 . S
O412 Co411 2.061 . S
O412 C415 1.235 . S
C413 O416 1.238 . S
C413 O417 1.241 . S
C414 O407 1.247 . S
C414 O408 1.261 . S
C415 O410 1.259 . S
C415 O412 1.235 . S
O416 Co406 2.021 . S
O416 C413 1.238 . S
O417 Co411 2.052 . S
O417 C413 1.241 . S
O418 Co406 2.137 . S
O418 C409 1.247 . S
O419 Co406 2.244 . S
O419 C409 1.272 . S
O419 Co411 2.135 . S
Co420 O421 2.216 1_554 S
Co420 O422 2.091 1_554 S
Co420 O424 2.004 . S
Co420 O430 2.021 . S
Co420 O432 2.137 . S
Co420 O433 2.244 . S
O421 Co420 2.216 1_556 S
O421 C428 1.247 . S
O422 Co420 2.091 1_556 S
O422 C428 1.261 . S
C423 O432 1.247 . S
C423 O433 1.272 . S
O424 Co420 2.004 . S
O424 C429 1.259 . S
Co425 O426 2.061 . S
Co425 O431 2.052 . S
Co425 O433 2.135 . S
O426 Co425 2.061 . S
O426 C429 1.235 . S
C427 O430 1.238 . S
C427 O431 1.241 . S
C428 O421 1.247 . S
C428 O422 1.261 . S
C429 O424 1.259 . S
C429 O426 1.235 . S
O430 Co420 2.021 . S
O430 C427 1.238 . S
O431 Co425 2.052 . S
O431 C427 1.241 . S
O432 Co420 2.137 . S
O432 C423 1.247 . S
O433 Co420 2.244 . S
O433 C423 1.272 . S
O433 Co425 2.135 . S
Co434 O435 2.216 1_554 S
Co434 O436 2.091 1_554 S
Co434 O438 2.004 . S
Co434 O444 2.021 . S
Co434 O446 2.137 . S
Co434 O447 2.244 . S
O435 Co434 2.216 1_556 S
O435 C442 1.247 . S
O436 Co434 2.091 1_556 S
O436 C442 1.261 . S
C437 O446 1.247 . S
C437 O447 1.272 . S
O438 Co434 2.004 . S
O438 C443 1.259 . S
Co439 O440 2.061 . S
Co439 O445 2.052 . S
Co439 O447 2.135 . S
O440 Co439 2.061 . S
O440 C443 1.235 . S
C441 O444 1.238 . S
C441 O445 1.241 . S
C442 O435 1.247 . S
C442 O436 1.261 . S
C443 O438 1.259 . S
C443 O440 1.235 . S
O444 Co434 2.021 . S
O444 C441 1.238 . S
O445 Co439 2.052 . S
O445 C441 1.241 . S
O446 Co434 2.137 . S
O446 C437 1.247 . S
O447 Co434 2.244 . S
O447 C437 1.272 . S
O447 Co439 2.135 . S
H448 C456 0.950 . S
H449 C461 0.950 1_655 S
H450 C458 0.950 . S
H451 C460 0.950 1_655 S
H452 C462 0.950 1_655 S
H453 C464 0.950 1_655 S
H454 C466 0.950 . S
H455 C467 0.950 . S
C456 H448 0.950 . S
C456 C457 1.386 . S
C456 C458 1.391 . S
C457 C456 1.386 . S
C457 C461 1.393 . S
C458 H450 0.950 . S
C458 C456 1.391 . S
C458 C459 1.400 . S
C459 C458 1.400 . S
C459 C460 1.398 . S
C459 C465 1.491 . S
C460 H451 0.950 1_455 S
C460 C459 1.398 . S
C460 C461 1.391 . S
C461 H449 0.950 1_455 S
C461 C457 1.393 . S
C461 C460 1.391 . S
C462 H452 0.950 1_455 S
C462 C463 1.386 . S
C462 C464 1.391 . S
C463 C462 1.386 . S
C463 C467 1.393 . S
C464 H453 0.950 1_455 S
C464 C462 1.391 . S
C464 C465 1.400 . S
C465 C459 1.491 . S
C465 C464 1.400 . S
C465 C466 1.398 . S
C466 H454 0.950 . S
C466 C465 1.398 . S
C466 C467 1.391 . S
C467 H455 0.950 . S
C467 C463 1.393 . S
C467 C466 1.391 . S
H468 C476 0.950 . S
H469 C481 0.950 . S
H470 C478 0.950 . S
H471 C480 0.950 . S
H472 C482 0.950 . S
H473 C484 0.950 . S
H474 C486 0.950 . S
H475 C487 0.950 . S
C476 H468 0.950 . S
C476 C477 1.386 . S
C476 C478 1.391 . S
C477 C476 1.386 . S
C477 C481 1.393 . S
C478 H470 0.950 . S
C478 C476 1.391 . S
C478 C479 1.400 . S
C479 C478 1.400 . S
C479 C480 1.398 . S
C479 C485 1.491 . S
C480 H471 0.950 . S
C480 C479 1.398 . S
C480 C481 1.391 . S
C481 H469 0.950 . S
C481 C477 1.393 . S
C481 C480 1.391 . S
C482 H472 0.950 . S
C482 C483 1.386 . S
C482 C484 1.391 . S
C483 C482 1.386 . S
C483 C487 1.393 . S
C484 H473 0.950 . S
C484 C482 1.391 . S
C484 C485 1.400 . S
C485 C479 1.491 . S
C485 C484 1.400 . S
C485 C486 1.398 . S
C486 H474 0.950 . S
C486 C485 1.398 . S
C486 C487 1.391 . S
C487 H475 0.950 . S
C487 C483 1.393 . S
C487 C486 1.391 . S
H488 C496 0.950 . S
H489 C501 0.950 . S
H490 C498 0.950 . S
H491 C500 0.950 . S
H492 C502 0.950 . S
H493 C504 0.950 . S
H494 C506 0.950 . S
H495 C507 0.950 . S
C496 H488 0.950 . S
C496 C497 1.386 . S
C496 C498 1.391 . S
C497 C496 1.386 . S
C497 C501 1.393 . S
C498 H490 0.950 . S
C498 C496 1.391 . S
C498 C499 1.400 . S
C499 C498 1.400 . S
C499 C500 1.398 . S
C499 C505 1.491 . S
C500 H491 0.950 . S
C500 C499 1.398 . S
C500 C501 1.391 . S
C501 H489 0.950 . S
C501 C497 1.393 . S
C501 C500 1.391 . S
C502 H492 0.950 . S
C502 C503 1.386 . S
C502 C504 1.391 . S
C503 C502 1.386 . S
C503 C507 1.393 . S
C504 H493 0.950 . S
C504 C502 1.391 . S
C504 C505 1.400 . S
C505 C499 1.491 . S
C505 C504 1.400 . S
C505 C506 1.398 . S
C506 H494 0.950 . S
C506 C505 1.398 . S
C506 C507 1.391 . S
C507 H495 0.950 . S
C507 C503 1.393 . S
C507 C506 1.391 . S
H508 C516 0.950 . S
H509 C521 0.950 . S
H510 C518 0.950 . S
H511 C520 0.950 . S
H512 C522 0.950 . S
H513 C524 0.950 . S
H514 C526 0.950 . S
H515 C527 0.950 . S
C516 H508 0.950 . S
C516 C517 1.386 . S
C516 C518 1.391 . S
C517 C516 1.386 . S
C517 C521 1.393 . S
C518 H510 0.950 . S
C518 C516 1.391 . S
C518 C519 1.400 . S
C519 C518 1.400 . S
C519 C520 1.398 . S
C519 C525 1.491 . S
C520 H511 0.950 . S
C520 C519 1.398 . S
C520 C521 1.391 . S
C521 H509 0.950 . S
C521 C517 1.393 . S
C521 C520 1.391 . S
C522 H512 0.950 . S
C522 C523 1.386 . S
C522 C524 1.391 . S
C523 C522 1.386 . S
C523 C527 1.393 . S
C524 H513 0.950 . S
C524 C522 1.391 . S
C524 C525 1.400 . S
C525 C519 1.491 . S
C525 C524 1.400 . S
C525 C526 1.398 . S
C526 H514 0.950 . S
C526 C525 1.398 . S
C526 C527 1.391 . S
C527 H515 0.950 . S
C527 C523 1.393 . S
C527 C526 1.391 . S
H528 C536 0.950 1_455 S
H529 C541 0.950 . S
H530 C538 0.950 1_455 S
H531 C540 0.950 . S
H532 C542 0.950 . S
H533 C544 0.950 . S
H534 C546 0.950 1_455 S
H535 C547 0.950 1_455 S
C536 H528 0.950 1_655 S
C536 C537 1.386 . S
C536 C538 1.391 . S
C537 C536 1.386 . S
C537 C541 1.393 . S
C538 H530 0.950 1_655 S
C538 C536 1.391 . S
C538 C539 1.400 . S
C539 C538 1.400 . S
C539 C540 1.398 . S
C539 C545 1.491 . S
C540 H531 0.950 . S
C540 C539 1.398 . S
C540 C541 1.391 . S
C541 H529 0.950 . S
C541 C537 1.393 . S
C541 C540 1.391 . S
C542 H532 0.950 . S
C542 C543 1.386 . S
C542 C544 1.391 . S
C543 C542 1.386 . S
C543 C547 1.393 . S
C544 H533 0.950 . S
C544 C542 1.391 . S
C544 C545 1.400 . S
C545 C539 1.491 . S
C545 C544 1.400 . S
C545 C546 1.398 . S
C546 H534 0.950 1_655 S
C546 C545 1.398 . S
C546 C547 1.391 . S
C547 H535 0.950 1_655 S
C547 C543 1.393 . S
C547 C546 1.391 . S
H548 C556 0.950 . S
H549 C561 0.950 . S
H550 C558 0.950 . S
H551 C560 0.950 . S
H552 C562 0.950 . S
H553 C564 0.950 . S
H554 C566 0.950 . S
H555 C567 0.950 . S
C556 H548 0.950 . S
C556 C557 1.386 . S
C556 C558 1.391 . S
C557 C556 1.386 . S
C557 C561 1.393 . S
C558 H550 0.950 . S
C558 C556 1.391 . S
C558 C559 1.400 . S
C559 C558 1.400 . S
C559 C560 1.398 . S
C559 C565 1.491 . S
C560 H551 0.950 . S
C560 C559 1.398 . S
C560 C561 1.391 . S
C561 H549 0.950 . S
C561 C557 1.393 . S
C561 C560 1.391 . S
C562 H552 0.950 . S
C562 C563 1.386 . S
C562 C564 1.391 . S
C563 C562 1.386 . S
C563 C567 1.393 . S
C564 H553 0.950 . S
C564 C562 1.391 . S
C564 C565 1.400 . S
C565 C559 1.491 . S
C565 C564 1.400 . S
C565 C566 1.398 . S
C566 H554 0.950 . S
C566 C565 1.398 . S
C566 C567 1.391 . S
C567 H555 0.950 . S
C567 C563 1.393 . S
C567 C566 1.391 . S
H568 C576 0.950 . S
H569 C581 0.950 1_455 S
H570 C578 0.950 . S
H571 C580 0.950 1_455 S
H572 C582 0.950 1_455 S
H573 C584 0.950 1_455 S
H574 C586 0.950 . S
H575 C587 0.950 . S
C576 H568 0.950 . S
C576 C577 1.386 . S
C576 C578 1.391 . S
C577 C576 1.386 . S
C577 C581 1.393 . S
C578 H570 0.950 . S
C578 C576 1.391 . S
C578 C579 1.400 . S
C579 C578 1.400 . S
C579 C580 1.398 . S
C579 C585 1.491 . S
C580 H571 0.950 1_655 S
C580 C579 1.398 . S
C580 C581 1.391 . S
C581 H569 0.950 1_655 S
C581 C577 1.393 . S
C581 C580 1.391 . S
C582 H572 0.950 1_655 S
C582 C583 1.386 . S
C582 C584 1.391 . S
C583 C582 1.386 . S
C583 C587 1.393 . S
C584 H573 0.950 1_655 S
C584 C582 1.391 . S
C584 C585 1.400 . S
C585 C579 1.491 . S
C585 C584 1.400 . S
C585 C586 1.398 . S
C586 H574 0.950 . S
C586 C585 1.398 . S
C586 C587 1.391 . S
C587 H575 0.950 . S
C587 C583 1.393 . S
C587 C586 1.391 . S
H588 C596 0.950 . S
H589 C601 0.950 . S
H590 C598 0.950 . S
H591 C600 0.950 . S
H592 C602 0.950 . S
H593 C604 0.950 . S
H594 C606 0.950 . S
H595 C607 0.950 . S
C596 H588 0.950 . S
C596 C597 1.386 . S
C596 C598 1.391 . S
C597 C596 1.386 . S
C597 C601 1.393 . S
C598 H590 0.950 . S
C598 C596 1.391 . S
C598 C599 1.400 . S
C599 C598 1.400 . S
C599 C600 1.398 . S
C599 C605 1.491 . S
C600 H591 0.950 . S
C600 C599 1.398 . S
C600 C601 1.391 . S
C601 H589 0.950 . S
C601 C597 1.393 . S
C601 C600 1.391 . S
C602 H592 0.950 . S
C602 C603 1.386 . S
C602 C604 1.391 . S
C603 C602 1.386 . S
C603 C607 1.393 . S
C604 H593 0.950 . S
C604 C602 1.391 . S
C604 C605 1.400 . S
C605 C599 1.491 . S
C605 C604 1.400 . S
C605 C606 1.398 . S
C606 H594 0.950 . S
C606 C605 1.398 . S
C606 C607 1.391 . S
C607 H595 0.950 . S
C607 C603 1.393 . S
C607 C606 1.391 . S
H608 C616 0.950 . S
H609 C621 0.950 . S
H610 C618 0.950 . S
H611 C620 0.950 . S
H612 C622 0.950 . S
H613 C624 0.950 . S
H614 C626 0.950 . S
H615 C627 0.950 . S
C616 H608 0.950 . S
C616 C617 1.386 . S
C616 C618 1.391 . S
C617 C616 1.386 . S
C617 C621 1.393 . S
C618 H610 0.950 . S
C618 C616 1.391 . S
C618 C619 1.400 . S
C619 C618 1.400 . S
C619 C620 1.398 . S
C619 C625 1.491 . S
C620 H611 0.950 . S
C620 C619 1.398 . S
C620 C621 1.391 . S
C621 H609 0.950 . S
C621 C617 1.393 . S
C621 C620 1.391 . S
C622 H612 0.950 . S
C622 C623 1.386 . S
C622 C624 1.391 . S
C623 C622 1.386 . S
C623 C627 1.393 . S
C624 H613 0.950 . S
C624 C622 1.391 . S
C624 C625 1.400 . S
C625 C619 1.491 . S
C625 C624 1.400 . S
C625 C626 1.398 . S
C626 H614 0.950 . S
C626 C625 1.398 . S
C626 C627 1.391 . S
C627 H615 0.950 . S
C627 C623 1.393 . S
C627 C626 1.391 . S
H628 C636 0.950 . S
H629 C641 0.950 . S
H630 C638 0.950 . S
H631 C640 0.950 . S
H632 C642 0.950 . S
H633 C644 0.950 . S
H634 C646 0.950 . S
H635 C647 0.950 . S
C636 H628 0.950 . S
C636 C637 1.386 . S
C636 C638 1.391 . S
C637 C636 1.386 . S
C637 C641 1.393 . S
C638 H630 0.950 . S
C638 C636 1.391 . S
C638 C639 1.400 . S
C639 C638 1.400 . S
C639 C640 1.398 . S
C639 C645 1.491 . S
C640 H631 0.950 . S
C640 C639 1.398 . S
C640 C641 1.391 . S
C641 H629 0.950 . S
C641 C637 1.393 . S
C641 C640 1.391 . S
C642 H632 0.950 . S
C642 C643 1.386 . S
C642 C644 1.391 . S
C643 C642 1.386 . S
C643 C647 1.393 . S
C644 H633 0.950 . S
C644 C642 1.391 . S
C644 C645 1.400 . S
C645 C639 1.491 . S
C645 C644 1.400 . S
C645 C646 1.398 . S
C646 H634 0.950 . S
C646 C645 1.398 . S
C646 C647 1.391 . S
C647 H635 0.950 . S
C647 C643 1.393 . S
C647 C646 1.391 . S
H648 C656 0.950 . S
H649 C661 0.950 . S
H650 C658 0.950 . S
H651 C660 0.950 . S
H652 C662 0.950 . S
H653 C664 0.950 . S
H654 C666 0.950 . S
H655 C667 0.950 . S
C656 H648 0.950 . S
C656 C657 1.386 . S
C656 C658 1.391 . S
C657 C656 1.386 . S
C657 C661 1.393 . S
C658 H650 0.950 . S
C658 C656 1.391 . S
C658 C659 1.400 . S
C659 C658 1.400 . S
C659 C660 1.398 . S
C659 C665 1.491 . S
C660 H651 0.950 . S
C660 C659 1.398 . S
C660 C661 1.391 . S
C661 H649 0.950 . S
C661 C657 1.393 . S
C661 C660 1.391 . S
C662 H652 0.950 . S
C662 C663 1.386 . S
C662 C664 1.391 . S
C663 C662 1.386 . S
C663 C667 1.393 . S
C664 H653 0.950 . S
C664 C662 1.391 . S
C664 C665 1.400 . S
C665 C659 1.491 . S
C665 C664 1.400 . S
C665 C666 1.398 . S
C666 H654 0.950 . S
C666 C665 1.398 . S
C666 C667 1.391 . S
C667 H655 0.950 . S
C667 C663 1.393 . S
C667 C666 1.391 . S
H668 C676 0.950 . S
H669 C681 0.950 . S
H670 C678 0.950 . S
H671 C680 0.950 . S
H672 C682 0.950 . S
H673 C684 0.950 . S
H674 C686 0.950 . S
H675 C687 0.950 . S
C676 H668 0.950 . S
C676 C677 1.386 . S
C676 C678 1.391 . S
C677 C676 1.386 . S
C677 C681 1.393 . S
C678 H670 0.950 . S
C678 C676 1.391 . S
C678 C679 1.400 . S
C679 C678 1.400 . S
C679 C680 1.398 . S
C679 C685 1.491 . S
C680 H671 0.950 . S
C680 C679 1.398 . S
C680 C681 1.391 . S
C681 H669 0.950 . S
C681 C677 1.393 . S
C681 C680 1.391 . S
C682 H672 0.950 . S
C682 C683 1.386 . S
C682 C684 1.391 . S
C683 C682 1.386 . S
C683 C687 1.393 . S
C684 H673 0.950 . S
C684 C682 1.391 . S
C684 C685 1.400 . S
C685 C679 1.491 . S
C685 C684 1.400 . S
C685 C686 1.398 . S
C686 H674 0.950 . S
C686 C685 1.398 . S
C686 C687 1.391 . S
C687 H675 0.950 . S
C687 C683 1.393 . S
C687 C686 1.391 . S
H688 C696 0.950 . S
H689 C701 0.950 . S
H690 C698 0.950 . S
H691 C700 0.950 . S
H692 C702 0.950 . S
H693 C704 0.950 . S
H694 C706 0.950 . S
H695 C707 0.950 . S
C696 H688 0.950 . S
C696 C697 1.386 . S
C696 C698 1.391 . S
C697 C696 1.386 . S
C697 C701 1.393 . S
C698 H690 0.950 . S
C698 C696 1.391 . S
C698 C699 1.400 . S
C699 C698 1.400 . S
C699 C700 1.398 . S
C699 C705 1.491 . S
C700 H691 0.950 . S
C700 C699 1.398 . S
C700 C701 1.391 . S
C701 H689 0.950 . S
C701 C697 1.393 . S
C701 C700 1.391 . S
C702 H692 0.950 . S
C702 C703 1.386 . S
C702 C704 1.391 . S
C703 C702 1.386 . S
C703 C707 1.393 . S
C704 H693 0.950 . S
C704 C702 1.391 . S
C704 C705 1.400 . S
C705 C699 1.491 . S
C705 C704 1.400 . S
C705 C706 1.398 . S
C706 H694 0.950 . S
C706 C705 1.398 . S
C706 C707 1.391 . S
C707 H695 0.950 . S
C707 C703 1.393 . S
C707 C706 1.391 . S
H708 C716 0.950 . S
H709 C721 0.950 . S
H710 C718 0.950 . S
H711 C720 0.950 . S
H712 C722 0.950 . S
H713 C724 0.950 . S
H714 C726 0.950 . S
H715 C727 0.950 . S
C716 H708 0.950 . S
C716 C717 1.386 . S
C716 C718 1.391 . S
C717 C716 1.386 . S
C717 C721 1.393 . S
C718 H710 0.950 . S
C718 C716 1.391 . S
C718 C719 1.400 . S
C719 C718 1.400 . S
C719 C720 1.398 . S
C719 C725 1.491 . S
C720 H711 0.950 . S
C720 C719 1.398 . S
C720 C721 1.391 . S
C721 H709 0.950 . S
C721 C717 1.393 . S
C721 C720 1.391 . S
C722 H712 0.950 . S
C722 C723 1.386 . S
C722 C724 1.391 . S
C723 C722 1.386 . S
C723 C727 1.393 . S
C724 H713 0.950 . S
C724 C722 1.391 . S
C724 C725 1.400 . S
C725 C719 1.491 . S
C725 C724 1.400 . S
C725 C726 1.398 . S
C726 H714 0.950 . S
C726 C725 1.398 . S
C726 C727 1.391 . S
C727 H715 0.950 . S
C727 C723 1.393 . S
C727 C726 1.391 . S
H728 C736 0.950 . S
H729 C741 0.950 . S
H730 C738 0.950 . S
H731 C740 0.950 . S
H732 C742 0.950 . S
H733 C744 0.950 . S
H734 C746 0.950 . S
H735 C747 0.950 . S
C736 H728 0.950 . S
C736 C737 1.386 . S
C736 C738 1.391 . S
C737 C736 1.386 . S
C737 C741 1.393 . S
C738 H730 0.950 . S
C738 C736 1.391 . S
C738 C739 1.400 . S
C739 C738 1.400 . S
C739 C740 1.398 . S
C739 C745 1.491 . S
C740 H731 0.950 . S
C740 C739 1.398 . S
C740 C741 1.391 . S
C741 H729 0.950 . S
C741 C737 1.393 . S
C741 C740 1.391 . S
C742 H732 0.950 . S
C742 C743 1.386 . S
C742 C744 1.391 . S
C743 C742 1.386 . S
C743 C747 1.393 . S
C744 H733 0.950 . S
C744 C742 1.391 . S
C744 C745 1.400 . S
C745 C739 1.491 . S
C745 C744 1.400 . S
C745 C746 1.398 . S
C746 H734 0.950 . S
C746 C745 1.398 . S
C746 C747 1.391 . S
C747 H735 0.950 . S
C747 C743 1.393 . S
C747 C746 1.391 . S
H748 C756 0.950 . S
H749 C761 0.950 . S
H750 C758 0.950 . S
H751 C760 0.950 . S
H752 C762 0.950 . S
H753 C764 0.950 . S
H754 C766 0.950 . S
H755 C767 0.950 . S
C756 H748 0.950 . S
C756 C757 1.386 . S
C756 C758 1.391 . S
C757 C756 1.386 . S
C757 C761 1.393 . S
C758 H750 0.950 . S
C758 C756 1.391 . S
C758 C759 1.400 . S
C759 C758 1.400 . S
C759 C760 1.398 . S
C759 C765 1.491 . S
C760 H751 0.950 . S
C760 C759 1.398 . S
C760 C761 1.391 . S
C761 H749 0.950 . S
C761 C757 1.393 . S
C761 C760 1.391 . S
C762 H752 0.950 . S
C762 C763 1.386 . S
C762 C764 1.391 . S
C763 C762 1.386 . S
C763 C767 1.393 . S
C764 H753 0.950 . S
C764 C762 1.391 . S
C764 C765 1.400 . S
C765 C759 1.491 . S
C765 C764 1.400 . S
C765 C766 1.398 . S
C766 H754 0.950 . S
C766 C765 1.398 . S
C766 C767 1.391 . S
C767 H755 0.950 . S
C767 C763 1.393 . S
C767 C766 1.391 . S
H768 C776 0.950 . S
H769 C781 0.950 . S
H770 C778 0.950 . S
H771 C780 0.950 . S
H772 C782 0.950 . S
H773 C784 0.950 . S
H774 C786 0.950 . S
H775 C787 0.950 . S
C776 H768 0.950 . S
C776 C777 1.386 . S
C776 C778 1.391 . S
C777 C776 1.386 . S
C777 C781 1.393 . S
C778 H770 0.950 . S
C778 C776 1.391 . S
C778 C779 1.400 . S
C779 C778 1.400 . S
C779 C780 1.398 . S
C779 C785 1.491 . S
C780 H771 0.950 . S
C780 C779 1.398 . S
C780 C781 1.391 . S
C781 H769 0.950 . S
C781 C777 1.393 . S
C781 C780 1.391 . S
C782 H772 0.950 . S
C782 C783 1.386 . S
C782 C784 1.391 . S
C783 C782 1.386 . S
C783 C787 1.393 . S
C784 H773 0.950 . S
C784 C782 1.391 . S
C784 C785 1.400 . S
C785 C779 1.491 . S
C785 C784 1.400 . S
C785 C786 1.398 . S
C786 H774 0.950 . S
C786 C785 1.398 . S
C786 C787 1.391 . S
C787 H775 0.950 . S
C787 C783 1.393 . S
C787 C786 1.391 . S
H788 C796 0.950 . S
H789 C801 0.950 . S
H790 C798 0.950 . S
H791 C800 0.950 . S
H792 C802 0.950 . S
H793 C804 0.950 . S
H794 C806 0.950 . S
H795 C807 0.950 . S
C796 H788 0.950 . S
C796 C797 1.386 1_655 S
C796 C798 1.391 . S
C797 C796 1.386 1_455 S
C797 C801 1.393 . S
C798 H790 0.950 . S
C798 C796 1.391 . S
C798 C799 1.400 . S
C799 C798 1.400 . S
C799 C800 1.398 . S
C799 C805 1.491 . S
C800 H791 0.950 . S
C800 C799 1.398 . S
C800 C801 1.391 1_655 S
C801 H789 0.950 . S
C801 C797 1.393 . S
C801 C800 1.391 1_455 S
C802 H792 0.950 . S
C802 C803 1.386 . S
C802 C804 1.391 . S
C803 C802 1.386 . S
C803 C807 1.393 . S
C804 H793 0.950 . S
C804 C802 1.391 . S
C804 C805 1.400 . S
C805 C799 1.491 . S
C805 C804 1.400 . S
C805 C806 1.398 . S
C806 H794 0.950 . S
C806 C805 1.398 . S
C806 C807 1.391 . S
C807 H795 0.950 . S
C807 C803 1.393 . S
C807 C806 1.391 . S
H808 C816 0.950 . S
H809 C821 0.950 . S
H810 C818 0.950 . S
H811 C820 0.950 . S
H812 C822 0.950 . S
H813 C824 0.950 . S
H814 C826 0.950 . S
H815 C827 0.950 . S
C816 H808 0.950 . S
C816 C817 1.386 . S
C816 C818 1.391 . S
C817 C816 1.386 . S
C817 C821 1.393 . S
C818 H810 0.950 . S
C818 C816 1.391 . S
C818 C819 1.400 . S
C819 C818 1.400 . S
C819 C820 1.398 . S
C819 C825 1.491 . S
C820 H811 0.950 . S
C820 C819 1.398 . S
C820 C821 1.391 . S
C821 H809 0.950 . S
C821 C817 1.393 . S
C821 C820 1.391 . S
C822 H812 0.950 . S
C822 C823 1.386 . S
C822 C824 1.391 . S
C823 C822 1.386 . S
C823 C827 1.393 . S
C824 H813 0.950 . S
C824 C822 1.391 . S
C824 C825 1.400 . S
C825 C819 1.491 . S
C825 C824 1.400 . S
C825 C826 1.398 . S
C826 H814 0.950 . S
C826 C825 1.398 . S
C826 C827 1.391 . S
C827 H815 0.950 . S
C827 C823 1.393 . S
C827 C826 1.391 . S
H828 C836 0.950 . S
H829 C841 0.950 . S
H830 C838 0.950 . S
H831 C840 0.950 . S
H832 C842 0.950 . S
H833 C844 0.950 . S
H834 C846 0.950 . S
H835 C847 0.950 . S
C836 H828 0.950 . S
C836 C837 1.386 . S
C836 C838 1.391 . S
C837 C836 1.386 . S
C837 C841 1.393 . S
C838 H830 0.950 . S
C838 C836 1.391 . S
C838 C839 1.400 . S
C839 C838 1.400 . S
C839 C840 1.398 . S
C839 C845 1.491 . S
C840 H831 0.950 . S
C840 C839 1.398 . S
C840 C841 1.391 . S
C841 H829 0.950 . S
C841 C837 1.393 . S
C841 C840 1.391 . S
C842 H832 0.950 . S
C842 C843 1.386 1_655 S
C842 C844 1.391 . S
C843 C842 1.386 1_455 S
C843 C847 1.393 . S
C844 H833 0.950 . S
C844 C842 1.391 . S
C844 C845 1.400 . S
C845 C839 1.491 . S
C845 C844 1.400 . S
C845 C846 1.398 . S
C846 H834 0.950 . S
C846 C845 1.398 . S
C846 C847 1.391 1_655 S
C847 H835 0.950 . S
C847 C843 1.393 . S
C847 C846 1.391 1_455 S
H848 C856 0.950 . S
H849 C861 0.950 . S
H850 C858 0.950 . S
H851 C860 0.950 . S
H852 C862 0.950 . S
H853 C864 0.950 . S
H854 C866 0.950 . S
H855 C867 0.950 . S
C856 H848 0.950 . S
C856 C857 1.386 . S
C856 C858 1.391 . S
C857 C856 1.386 . S
C857 C861 1.393 . S
C858 H850 0.950 . S
C858 C856 1.391 . S
C858 C859 1.400 . S
C859 C858 1.400 . S
C859 C860 1.398 . S
C859 C865 1.491 . S
C860 H851 0.950 . S
C860 C859 1.398 . S
C860 C861 1.391 . S
C861 H849 0.950 . S
C861 C857 1.393 . S
C861 C860 1.391 . S
C862 H852 0.950 . S
C862 C863 1.386 . S
C862 C864 1.391 . S
C863 C862 1.386 . S
C863 C867 1.393 . S
C864 H853 0.950 . S
C864 C862 1.391 . S
C864 C865 1.400 . S
C865 C859 1.491 . S
C865 C864 1.400 . S
C865 C866 1.398 . S
C866 H854 0.950 . S
C866 C865 1.398 . S
C866 C867 1.391 . S
C867 H855 0.950 . S
C867 C863 1.393 . S
C867 C866 1.391 . S
H868 C876 0.950 1_655 S
H869 C881 0.953 . S
H870 C878 0.950 . S
H871 C880 0.950 . S
H872 C882 0.950 . S
H873 C884 0.950 . S
H874 C886 0.950 . S
H875 C887 0.950 . S
C876 H868 0.950 1_455 S
C876 C877 1.386 1_455 S
C876 C878 1.391 . S
C877 C876 1.386 1_655 S
C877 C881 1.393 1_655 S
C878 H870 0.950 . S
C878 C876 1.391 . S
C878 C879 1.400 . S
C879 C878 1.400 . S
C879 C880 1.398 . S
C879 C885 1.491 . S
C880 H871 0.950 . S
C880 C879 1.398 . S
C880 C881 1.391 . S
C881 H869 0.953 . S
C881 C877 1.393 1_455 S
C881 C880 1.391 . S
C882 H872 0.950 . S
C882 C883 1.386 . S
C882 C884 1.391 . S
C883 C882 1.386 . S
C883 C887 1.393 . S
C884 H873 0.950 . S
C884 C882 1.391 . S
C884 C885 1.400 . S
C885 C879 1.491 . S
C885 C884 1.400 . S
C885 C886 1.398 . S
C886 H874 0.950 . S
C886 C885 1.398 . S
C886 C887 1.391 . S
C887 H875 0.950 . S
C887 C883 1.393 . S
C887 C886 1.391 . S
H888 C896 0.950 . S
H889 C901 0.950 . S
H890 C898 0.950 . S
H891 C900 0.950 . S
H892 C902 0.950 . S
H893 C904 0.950 . S
H894 C906 0.950 . S
H895 C907 0.950 . S
C896 H888 0.950 . S
C896 C897 1.386 . S
C896 C898 1.391 . S
C897 C896 1.386 . S
C897 C901 1.393 . S
C898 H890 0.950 . S
C898 C896 1.391 . S
C898 C899 1.400 . S
C899 C898 1.400 . S
C899 C900 1.398 . S
C899 C905 1.491 . S
C900 H891 0.950 . S
C900 C899 1.398 . S
C900 C901 1.391 . S
C901 H889 0.950 . S
C901 C897 1.393 . S
C901 C900 1.391 . S
C902 H892 0.950 . S
C902 C903 1.386 . S
C902 C904 1.391 . S
C903 C902 1.386 . S
C903 C907 1.393 . S
C904 H893 0.950 . S
C904 C902 1.391 . S
C904 C905 1.400 . S
C905 C899 1.491 . S
C905 C904 1.400 . S
C905 C906 1.398 . S
C906 H894 0.950 . S
C906 C905 1.398 . S
C906 C907 1.391 . S
C907 H895 0.950 . S
C907 C903 1.393 . S
C907 C906 1.391 . S
H908 C916 0.950 . S
H909 C921 0.950 . S
H910 C918 0.950 . S
H911 C920 0.950 . S
H912 C922 0.950 . S
H913 C924 0.950 . S
H914 C926 0.950 . S
H915 C927 0.950 . S
C916 H908 0.950 . S
C916 C917 1.386 1_455 S
C916 C918 1.391 . S
C917 C916 1.386 1_655 S
C917 C921 1.393 . S
C918 H910 0.950 . S
C918 C916 1.391 . S
C918 C919 1.400 . S
C919 C918 1.400 . S
C919 C920 1.398 . S
C919 C925 1.491 . S
C920 H911 0.950 . S
C920 C919 1.398 . S
C920 C921 1.391 1_455 S
C921 H909 0.950 . S
C921 C917 1.393 . S
C921 C920 1.391 1_655 S
C922 H912 0.950 . S
C922 C923 1.386 . S
C922 C924 1.391 . S
C923 C922 1.386 . S
C923 C927 1.393 . S
C924 H913 0.950 . S
C924 C922 1.391 . S
C924 C925 1.400 . S
C925 C919 1.491 . S
C925 C924 1.400 . S
C925 C926 1.398 . S
C926 H914 0.950 . S
C926 C925 1.398 . S
C926 C927 1.391 . S
C927 H915 0.950 . S
C927 C923 1.393 . S
C927 C926 1.391 . S
H928 C936 0.950 . S
H929 C941 0.950 . S
H930 C938 0.950 . S
H931 C940 0.950 . S
H932 C942 0.950 . S
H933 C944 0.950 . S
H934 C946 0.950 . S
H935 C947 0.950 . S
C936 H928 0.950 . S
C936 C937 1.386 . S
C936 C938 1.391 . S
C937 C936 1.386 . S
C937 C941 1.393 . S
C938 H930 0.950 . S
C938 C936 1.391 . S
C938 C939 1.400 . S
C939 C938 1.400 . S
C939 C940 1.398 . S
C939 C945 1.491 . S
C940 H931 0.950 . S
C940 C939 1.398 . S
C940 C941 1.391 . S
C941 H929 0.950 . S
C941 C937 1.393 . S
C941 C940 1.391 . S
C942 H932 0.950 . S
C942 C943 1.386 . S
C942 C944 1.391 . S
C943 C942 1.386 . S
C943 C947 1.393 . S
C944 H933 0.950 . S
C944 C942 1.391 . S
C944 C945 1.400 . S
C945 C939 1.491 . S
C945 C944 1.400 . S
C945 C946 1.398 . S
C946 H934 0.950 . S
C946 C945 1.398 . S
C946 C947 1.391 . S
C947 H935 0.950 . S
C947 C943 1.393 . S
C947 C946 1.391 . S
H948 C956 0.950 . S
H949 C961 0.950 . S
H950 C958 0.950 . S
H951 C960 0.950 . S
H952 C962 0.950 . S
H953 C964 0.950 . S
H954 C966 0.950 . S
H955 C967 0.950 1_455 S
C956 H948 0.950 . S
C956 C957 1.386 . S
C956 C958 1.391 . S
C957 C956 1.386 . S
C957 C961 1.393 . S
C958 H950 0.950 . S
C958 C956 1.391 . S
C958 C959 1.400 . S
C959 C958 1.400 . S
C959 C960 1.398 . S
C959 C965 1.491 . S
C960 H951 0.950 . S
C960 C959 1.398 . S
C960 C961 1.391 . S
C961 H949 0.950 . S
C961 C957 1.393 . S
C961 C960 1.391 . S
C962 H952 0.950 . S
C962 C963 1.386 1_655 S
C962 C964 1.391 . S
C963 C962 1.386 1_455 S
C963 C967 1.393 1_455 S
C964 H953 0.950 . S
C964 C962 1.391 . S
C964 C965 1.400 . S
C965 C959 1.491 . S
C965 C964 1.400 . S
C965 C966 1.398 . S
C966 H954 0.950 . S
C966 C965 1.398 . S
C966 C967 1.391 . S
C967 H955 0.950 1_655 S
C967 C963 1.393 1_655 S
C967 C966 1.391 . S
H968 C976 0.950 . S
H969 C981 0.950 . S
H970 C978 0.950 . S
H971 C980 0.950 . S
H972 C982 0.950 . S
H973 C984 0.950 . S
H974 C986 0.950 . S
H975 C987 0.950 . S
C976 H968 0.950 . S
C976 C977 1.386 . S
C976 C978 1.391 . S
C977 C976 1.386 . S
C977 C981 1.393 . S
C978 H970 0.950 . S
C978 C976 1.391 . S
C978 C979 1.400 . S
C979 C978 1.400 . S
C979 C980 1.398 . S
C979 C985 1.491 . S
C980 H971 0.950 . S
C980 C979 1.398 . S
C980 C981 1.391 . S
C981 H969 0.950 . S
C981 C977 1.393 . S
C981 C980 1.391 . S
C982 H972 0.950 . S
C982 C983 1.386 . S
C982 C984 1.391 . S
C983 C982 1.386 . S
C983 C987 1.393 . S
C984 H973 0.950 . S
C984 C982 1.391 . S
C984 C985 1.400 . S
C985 C979 1.491 . S
C985 C984 1.400 . S
C985 C986 1.398 . S
C986 H974 0.950 . S
C986 C985 1.398 . S
C986 C987 1.391 . S
C987 H975 0.950 . S
C987 C983 1.393 . S
C987 C986 1.391 . S
H988 C996 0.950 . S
H989 C1001 0.950 . S
H990 C998 0.950 . S
H991 C1000 0.950 . S
H992 C1002 0.950 . S
H993 C1004 0.950 . S
H994 C1006 0.950 . S
H995 C1007 0.950 . S
C996 H988 0.950 . S
C996 C997 1.386 . S
C996 C998 1.391 . S
C997 C996 1.386 . S
C997 C1001 1.393 . S
C998 H990 0.950 . S
C998 C996 1.391 . S
C998 C999 1.400 . S
C999 C998 1.400 . S
C999 C1000 1.398 . S
C999 C1005 1.491 . S
C1000 H991 0.950 . S
C1000 C999 1.398 . S
C1000 C1001 1.391 . S
C1001 H989 0.950 . S
C1001 C997 1.393 . S
C1001 C1000 1.391 . S
C1002 H992 0.950 . S
C1002 C1003 1.386 1_655 S
C1002 C1004 1.391 . S
C1003 C1002 1.386 1_455 S
C1003 C1007 1.393 . S
C1004 H993 0.950 . S
C1004 C1002 1.391 . S
C1004 C1005 1.400 . S
C1005 C999 1.491 . S
C1005 C1004 1.400 . S
C1005 C1006 1.398 . S
C1006 H994 0.950 . S
C1006 C1005 1.398 . S
C1006 C1007 1.391 1_655 S
C1007 H995 0.950 . S
C1007 C1003 1.393 . S
C1007 C1006 1.391 1_455 S
H1008 C1016 0.950 . S
H1009 C1021 0.950 . S
H1010 C1018 0.950 . S
H1011 C1020 0.950 . S
H1012 C1022 0.950 . S
H1013 C1024 0.950 . S
H1014 C1026 0.950 . S
H1015 C1027 0.950 . S
C1016 H1008 0.950 . S
C1016 C1017 1.386 . S
C1016 C1018 1.391 . S
C1017 C1016 1.386 . S
C1017 C1021 1.393 . S
C1018 H1010 0.950 . S
C1018 C1016 1.391 . S
C1018 C1019 1.400 . S
C1019 C1018 1.400 . S
C1019 C1020 1.398 . S
C1019 C1025 1.491 . S
C1020 H1011 0.950 . S
C1020 C1019 1.398 . S
C1020 C1021 1.391 . S
C1021 H1009 0.950 . S
C1021 C1017 1.393 . S
C1021 C1020 1.391 . S
C1022 H1012 0.950 . S
C1022 C1023 1.386 . S
C1022 C1024 1.391 . S
C1023 C1022 1.386 . S
C1023 C1027 1.393 . S
C1024 H1013 0.950 . S
C1024 C1022 1.391 . S
C1024 C1025 1.400 . S
C1025 C1019 1.491 . S
C1025 C1024 1.400 . S
C1025 C1026 1.398 . S
C1026 H1014 0.950 . S
C1026 C1025 1.398 . S
C1026 C1027 1.391 . S
C1027 H1015 0.950 . S
C1027 C1023 1.393 . S
C1027 C1026 1.391 . S
H1028 C1036 0.950 . S
H1029 C1041 0.950 . S
H1030 C1038 0.950 . S
H1031 C1040 0.950 . S
H1032 C1042 0.950 1_655 S
H1033 C1044 0.950 . S
H1034 C1046 0.950 . S
H1035 C1047 0.950 . S
C1036 H1028 0.950 . S
C1036 C1037 1.386 . S
C1036 C1038 1.391 . S
C1037 C1036 1.386 . S
C1037 C1041 1.393 . S
C1038 H1030 0.950 . S
C1038 C1036 1.391 . S
C1038 C1039 1.400 . S
C1039 C1038 1.400 . S
C1039 C1040 1.398 . S
C1039 C1045 1.491 . S
C1040 H1031 0.950 . S
C1040 C1039 1.398 . S
C1040 C1041 1.391 . S
C1041 H1029 0.950 . S
C1041 C1037 1.393 . S
C1041 C1040 1.391 . S
C1042 H1032 0.950 1_455 S
C1042 C1043 1.386 1_455 S
C1042 C1044 1.391 . S
C1043 C1042 1.386 1_655 S
C1043 C1047 1.393 1_655 S
C1044 H1033 0.950 . S
C1044 C1042 1.391 . S
C1044 C1045 1.400 . S
C1045 C1039 1.491 . S
C1045 C1044 1.400 . S
C1045 C1046 1.398 . S
C1046 H1034 0.950 . S
C1046 C1045 1.398 . S
C1046 C1047 1.391 . S
C1047 H1035 0.950 . S
C1047 C1043 1.393 1_455 S
C1047 C1046 1.391 . S
H1048 C1056 0.950 . S
H1049 C1061 0.950 . S
H1050 C1058 0.950 . S
H1051 C1060 0.950 . S
H1052 C1062 0.950 . S
H1053 C1064 0.950 . S
H1054 C1066 0.950 . S
H1055 C1067 0.950 . S
C1056 H1048 0.950 . S
C1056 C1057 1.386 . S
C1056 C1058 1.391 . S
C1057 C1056 1.386 . S
C1057 C1061 1.393 . S
C1058 H1050 0.950 . S
C1058 C1056 1.391 . S
C1058 C1059 1.400 . S
C1059 C1058 1.400 . S
C1059 C1060 1.398 . S
C1059 C1065 1.491 . S
C1060 H1051 0.950 . S
C1060 C1059 1.398 . S
C1060 C1061 1.391 . S
C1061 H1049 0.950 . S
C1061 C1057 1.393 . S
C1061 C1060 1.391 . S
C1062 H1052 0.950 . S
C1062 C1063 1.386 . S
C1062 C1064 1.391 . S
C1063 C1062 1.386 . S
C1063 C1067 1.393 . S
C1064 H1053 0.950 . S
C1064 C1062 1.391 . S
C1064 C1065 1.400 . S
C1065 C1059 1.491 . S
C1065 C1064 1.400 . S
C1065 C1066 1.398 . S
C1066 H1054 0.950 . S
C1066 C1065 1.398 . S
C1066 C1067 1.391 . S
C1067 H1055 0.950 . S
C1067 C1063 1.393 . S
C1067 C1066 1.391 . S
H1068 C1076 0.944 1_655 S
H1069 C1081 0.950 . S
H1070 C1078 0.950 . S
H1071 C1080 0.950 . S
H1072 C1082 0.950 . S
H1073 C1084 0.950 . S
H1074 C1086 0.950 . S
H1075 C1087 0.950 . S
C1076 H1068 0.944 1_455 S
C1076 C1077 1.384 1_455 S
C1076 C1078 1.399 . S
C1077 C1076 1.384 1_655 S
C1077 C1081 1.393 1_655 S
C1078 H1070 0.950 . S
C1078 C1076 1.399 . S
C1078 C1079 1.400 . S
C1079 C1078 1.400 . S
C1079 C1080 1.398 . S
C1079 C1085 1.491 . S
C1080 H1071 0.950 . S
C1080 C1079 1.398 . S
C1080 C1081 1.391 . S
C1081 H1069 0.950 . S
C1081 C1077 1.393 1_455 S
C1081 C1080 1.391 . S
C1082 H1072 0.950 . S
C1082 C1083 1.386 . S
C1082 C1084 1.391 . S
C1083 C1082 1.386 . S
C1083 C1087 1.393 . S
C1084 H1073 0.950 . S
C1084 C1082 1.391 . S
C1084 C1085 1.400 . S
C1085 C1079 1.491 . S
C1085 C1084 1.400 . S
C1085 C1086 1.398 . S
C1086 H1074 0.950 . S
C1086 C1085 1.398 . S
C1086 C1087 1.391 . S
C1087 H1075 0.950 . S
C1087 C1083 1.393 . S
C1087 C1086 1.391 . S
H1088 C1096 0.950 . S
H1089 C1101 0.950 1_455 S
H1090 C1098 0.950 . S
H1091 C1100 0.950 . S
H1092 C1102 0.950 . S
H1093 C1104 0.950 . S
H1094 C1106 0.950 . S
H1095 C1107 0.950 . S
C1096 H1088 0.950 . S
C1096 C1097 1.386 . S
C1096 C1098 1.391 . S
C1097 C1096 1.386 . S
C1097 C1101 1.393 . S
C1098 H1090 0.950 . S
C1098 C1096 1.391 . S
C1098 C1099 1.400 . S
C1099 C1098 1.400 . S
C1099 C1100 1.398 1_655 S
C1099 C1105 1.491 1_655 S
C1100 H1091 0.950 . S
C1100 C1099 1.398 1_455 S
C1100 C1101 1.391 1_455 S
C1101 H1089 0.950 1_655 S
C1101 C1097 1.393 . S
C1101 C1100 1.391 1_655 S
C1102 H1092 0.950 . S
C1102 C1103 1.386 . S
C1102 C1104 1.391 . S
C1103 C1102 1.386 . S
C1103 C1107 1.393 1_455 S
C1104 H1093 0.950 . S
C1104 C1102 1.391 . S
C1104 C1105 1.400 . S
C1105 C1099 1.491 1_455 S
C1105 C1104 1.400 . S
C1105 C1106 1.398 1_455 S
C1106 H1094 0.950 . S
C1106 C1105 1.398 1_655 S
C1106 C1107 1.391 . S
C1107 H1095 0.950 . S
C1107 C1103 1.393 1_655 S
C1107 C1106 1.391 . S
H1108 C1116 0.950 . S
H1109 C1121 0.950 . S
H1110 C1118 0.950 1_545 S
H1111 C1120 0.950 . S
H1112 C1122 0.950 . S
H1113 C1124 0.950 . S
H1114 C1126 0.950 . S
H1115 C1127 0.950 . S
C1116 H1108 0.950 . S
C1116 C1117 1.386 . S
C1116 C1118 1.391 . S
C1117 C1116 1.386 . S
C1117 C1121 1.393 . S
C1118 H1110 0.950 1_565 S
C1118 C1116 1.391 . S
C1118 C1119 1.400 . S
C1119 C1118 1.400 . S
C1119 C1120 1.398 . S
C1119 C1125 1.491 1_565 S
C1120 H1111 0.950 . S
C1120 C1119 1.398 . S
C1120 C1121 1.391 . S
C1121 H1109 0.950 . S
C1121 C1117 1.393 . S
C1121 C1120 1.391 . S
C1122 H1112 0.950 . S
C1122 C1123 1.386 . S
C1122 C1124 1.391 . S
C1123 C1122 1.386 . S
C1123 C1127 1.393 . S
C1124 H1113 0.950 . S
C1124 C1122 1.391 . S
C1124 C1125 1.400 . S
C1125 C1119 1.491 1_545 S
C1125 C1124 1.400 . S
C1125 C1126 1.398 . S
C1126 H1114 0.950 . S
C1126 C1125 1.398 . S
C1126 C1127 1.391 . S
C1127 H1115 0.950 . S
C1127 C1123 1.393 . S
C1127 C1126 1.391 . S
H1128 C1136 0.950 1_556 S
H1129 C1141 0.950 1_455 S
H1130 C1138 0.950 . S
H1131 C1140 0.950 . S
H1132 C1142 0.950 1_554 S
H1133 C1144 0.950 . S
H1134 C1146 0.931 1_545 S
H1135 C1147 0.950 1_655 S
C1136 H1128 0.950 1_554 S
C1136 C1137 1.386 . S
C1136 C1138 1.391 1_554 S
C1137 C1136 1.386 . S
C1137 C1141 1.393 . S
C1138 H1130 0.950 . S
C1138 C1136 1.391 1_556 S
C1138 C1139 1.400 1_556 S
C1139 C1138 1.400 1_554 S
C1139 C1140 1.398 1_655 S
C1139 C1145 1.491 1_644 S
C1140 H1131 0.950 . S
C1140 C1139 1.398 1_455 S
C1140 C1141 1.391 1_455 S
C1141 H1129 0.950 1_655 S
C1141 C1137 1.393 . S
C1141 C1140 1.391 1_655 S
C1142 H1132 0.950 1_556 S
C1142 C1143 1.386 . S
C1142 C1144 1.391 1_556 S
C1143 C1142 1.386 . S
C1143 C1147 1.393 . S
C1144 H1133 0.950 . S
C1144 C1142 1.391 1_554 S
C1144 C1145 1.400 1_554 S
C1145 C1139 1.491 1_466 S
C1145 C1144 1.400 1_556 S
C1145 C1146 1.398 1_455 S
C1146 H1134 0.931 1_565 S
C1146 C1145 1.398 1_655 S
C1146 C1147 1.391 1_655 S
C1147 H1135 0.950 1_455 S
C1147 C1143 1.393 . S
C1147 C1146 1.391 1_455 S
H1148 C1156 0.950 1_556 S
H1149 C1161 0.950 . S
H1150 C1158 0.950 . S
H1151 C1160 0.950 . S
H1152 C1162 0.950 1_554 S
H1153 C1164 0.950 . S
H1154 C1166 0.950 . S
H1155 C1167 0.950 . S
C1156 H1148 0.950 1_554 S
C1156 C1157 1.386 . S
C1156 C1158 1.391 1_554 S
C1157 C1156 1.386 . S
C1157 C1161 1.393 . S
C1158 H1150 0.950 . S
C1158 C1156 1.391 1_556 S
C1158 C1159 1.400 1_556 S
C1159 C1158 1.400 1_554 S
C1159 C1160 1.398 . S
C1159 C1165 1.491 1_554 S
C1160 H1151 0.950 . S
C1160 C1159 1.398 . S
C1160 C1161 1.391 . S
C1161 H1149 0.950 . S
C1161 C1157 1.393 . S
C1161 C1160 1.391 . S
C1162 H1152 0.950 1_556 S
C1162 C1163 1.386 . S
C1162 C1164 1.391 1_556 S
C1163 C1162 1.386 . S
C1163 C1167 1.393 . S
C1164 H1153 0.950 . S
C1164 C1162 1.391 1_554 S
C1164 C1165 1.400 1_554 S
C1165 C1159 1.491 1_556 S
C1165 C1164 1.400 1_556 S
C1165 C1166 1.398 . S
C1166 H1154 0.950 . S
C1166 C1165 1.398 . S
C1166 C1167 1.391 . S
C1167 H1155 0.950 . S
C1167 C1163 1.393 . S
C1167 C1166 1.391 . S
H1168 C1176 0.950 . S
H1169 C1181 0.950 . S
H1170 C1178 0.950 . S
H1171 C1180 0.950 . S
H1172 C1182 0.950 . S
H1173 C1184 0.950 . S
H1174 C1186 0.950 . S
H1175 C1187 0.950 . S
C1176 H1168 0.950 . S
C1176 C1177 1.386 1_455 S
C1176 C1178 1.391 . S
C1177 C1176 1.386 1_655 S
C1177 C1181 1.393 . S
C1178 H1170 0.950 . S
C1178 C1176 1.391 . S
C1178 C1179 1.400 1_455 S
C1179 C1178 1.400 1_655 S
C1179 C1180 1.398 . S
C1179 C1185 1.491 1_655 S
C1180 H1171 0.950 . S
C1180 C1179 1.398 . S
C1180 C1181 1.391 . S
C1181 H1169 0.950 . S
C1181 C1177 1.393 . S
C1181 C1180 1.391 . S
C1182 H1172 0.950 . S
C1182 C1183 1.386 1_655 S
C1182 C1184 1.391 . S
C1183 C1182 1.386 1_455 S
C1183 C1187 1.393 . S
C1184 H1173 0.950 . S
C1184 C1182 1.391 . S
C1184 C1185 1.400 1_655 S
C1185 C1179 1.491 1_455 S
C1185 C1184 1.400 1_455 S
C1185 C1186 1.398 . S
C1186 H1174 0.950 . S
C1186 C1185 1.398 . S
C1186 C1187 1.391 . S
C1187 H1175 0.950 . S
C1187 C1183 1.393 . S
C1187 C1186 1.391 . S
H1188 C1196 0.950 . S
H1189 C1201 0.950 . S
H1190 C1198 0.950 . S
H1191 C1200 0.950 . S
H1192 C1202 0.950 . S
H1193 C1204 0.950 . S
H1194 C1206 0.950 . S
H1195 C1207 0.950 . S
C1196 H1188 0.950 . S
C1196 C1197 1.386 . S
C1196 C1198 1.391 . S
C1197 C1196 1.386 . S
C1197 C1201 1.393 . S
C1198 H1190 0.950 . S
C1198 C1196 1.391 . S
C1198 C1199 1.400 . S
C1199 C1198 1.400 . S
C1199 C1200 1.398 . S
C1199 C1205 1.491 1_565 S
C1200 H1191 0.950 . S
C1200 C1199 1.398 . S
C1200 C1201 1.391 . S
C1201 H1189 0.950 . S
C1201 C1197 1.393 . S
C1201 C1200 1.391 . S
C1202 H1192 0.950 . S
C1202 C1203 1.386 . S
C1202 C1204 1.391 . S
C1203 C1202 1.386 . S
C1203 C1207 1.393 . S
C1204 H1193 0.950 . S
C1204 C1202 1.391 . S
C1204 C1205 1.400 . S
C1205 C1199 1.491 1_545 S
C1205 C1204 1.400 . S
C1205 C1206 1.398 . S
C1206 H1194 0.950 . S
C1206 C1205 1.398 . S
C1206 C1207 1.391 . S
C1207 H1195 0.950 . S
C1207 C1203 1.393 . S
C1207 C1206 1.391 . S
H1208 C1216 0.950 . S
H1209 C1221 0.950 1_554 S
H1210 C1218 0.950 . S
H1211 C1220 0.950 . S
H1212 C1222 0.950 . S
H1213 C1224 0.950 . S
H1214 C1226 0.950 . S
H1215 C1227 0.950 1_556 S
C1216 H1208 0.950 . S
C1216 C1217 1.386 . S
C1216 C1218 1.391 . S
C1217 C1216 1.386 . S
C1217 C1221 1.393 . S
C1218 H1210 0.950 . S
C1218 C1216 1.391 . S
C1218 C1219 1.400 . S
C1219 C1218 1.400 . S
C1219 C1220 1.398 1_556 S
C1219 C1225 1.491 1_556 S
C1220 H1211 0.950 . S
C1220 C1219 1.398 1_554 S
C1220 C1221 1.391 1_554 S
C1221 H1209 0.950 1_556 S
C1221 C1217 1.393 . S
C1221 C1220 1.391 1_556 S
C1222 H1212 0.950 . S
C1222 C1223 1.386 . S
C1222 C1224 1.391 . S
C1223 C1222 1.386 . S
C1223 C1227 1.393 . S
C1224 H1213 0.950 . S
C1224 C1222 1.391 . S
C1224 C1225 1.400 . S
C1225 C1219 1.491 1_554 S
C1225 C1224 1.400 . S
C1225 C1226 1.398 1_554 S
C1226 H1214 0.950 . S
C1226 C1225 1.398 1_556 S
C1226 C1227 1.391 1_556 S
C1227 H1215 0.950 1_554 S
C1227 C1223 1.393 . S
C1227 C1226 1.391 1_554 S
H1228 C1236 0.950 . S
H1229 C1241 0.950 . S
H1230 C1238 0.950 . S
H1231 C1240 0.950 . S
H1232 C1242 0.950 . S
H1233 C1244 0.950 . S
H1234 C1246 0.950 . S
H1235 C1247 0.950 . S
C1236 H1228 0.950 . S
C1236 C1237 1.386 . S
C1236 C1238 1.391 . S
C1237 C1236 1.386 . S
C1237 C1241 1.393 . S
C1238 H1230 0.950 . S
C1238 C1236 1.391 . S
C1238 C1239 1.400 . S
C1239 C1238 1.400 . S
C1239 C1240 1.398 . S
C1239 C1245 1.491 . S
C1240 H1231 0.950 . S
C1240 C1239 1.398 . S
C1240 C1241 1.391 . S
C1241 H1229 0.950 . S
C1241 C1237 1.393 . S
C1241 C1240 1.391 . S
C1242 H1232 0.950 . S
C1242 C1243 1.386 . S
C1242 C1244 1.391 . S
C1243 C1242 1.386 . S
C1243 C1247 1.393 . S
C1244 H1233 0.950 . S
C1244 C1242 1.391 . S
C1244 C1245 1.400 . S
C1245 C1239 1.491 . S
C1245 C1244 1.400 . S
C1245 C1246 1.398 . S
C1246 H1234 0.950 . S
C1246 C1245 1.398 . S
C1246 C1247 1.391 . S
C1247 H1235 0.950 . S
C1247 C1243 1.393 . S
C1247 C1246 1.391 . S
H1248 C1256 0.950 . S
H1249 C1261 0.950 . S
H1250 C1258 0.950 . S
H1251 C1260 0.950 . S
H1252 C1262 0.950 . S
H1253 C1264 0.950 . S
H1254 C1266 0.950 . S
H1255 C1267 0.950 . S
C1256 H1248 0.950 . S
C1256 C1257 1.386 1_655 S
C1256 C1258 1.391 . S
C1257 C1256 1.386 1_455 S
C1257 C1261 1.393 . S
C1258 H1250 0.950 . S
C1258 C1256 1.391 . S
C1258 C1259 1.400 1_655 S
C1259 C1258 1.400 1_455 S
C1259 C1260 1.398 . S
C1259 C1265 1.491 1_455 S
C1260 H1251 0.950 . S
C1260 C1259 1.398 . S
C1260 C1261 1.391 . S
C1261 H1249 0.950 . S
C1261 C1257 1.393 . S
C1261 C1260 1.391 . S
C1262 H1252 0.950 . S
C1262 C1263 1.386 1_455 S
C1262 C1264 1.391 . S
C1263 C1262 1.386 1_655 S
C1263 C1267 1.393 . S
C1264 H1253 0.950 . S
C1264 C1262 1.391 . S
C1264 C1265 1.400 1_455 S
C1265 C1259 1.491 1_655 S
C1265 C1264 1.400 1_655 S
C1265 C1266 1.398 . S
C1266 H1254 0.950 . S
C1266 C1265 1.398 . S
C1266 C1267 1.391 . S
C1267 H1255 0.950 . S
C1267 C1263 1.393 . S
C1267 C1266 1.391 . S
H1268 C1276 0.950 . S
H1269 C1281 0.950 . S
H1270 C1278 0.950 . S
H1271 C1280 0.950 . S
H1272 C1282 0.950 . S
H1273 C1284 0.950 . S
H1274 C1286 0.950 . S
H1275 C1287 0.950 . S
C1276 H1268 0.950 . S
C1276 C1277 1.386 . S
C1276 C1278 1.391 . S
C1277 C1276 1.386 . S
C1277 C1281 1.393 . S
C1278 H1270 0.950 . S
C1278 C1276 1.391 . S
C1278 C1279 1.400 . S
C1279 C1278 1.400 . S
C1279 C1280 1.398 . S
C1279 C1285 1.491 . S
C1280 H1271 0.950 . S
C1280 C1279 1.398 . S
C1280 C1281 1.391 . S
C1281 H1269 0.950 . S
C1281 C1277 1.393 . S
C1281 C1280 1.391 . S
C1282 H1272 0.950 . S
C1282 C1283 1.386 . S
C1282 C1284 1.391 . S
C1283 C1282 1.386 . S
C1283 C1287 1.393 . S
C1284 H1273 0.950 . S
C1284 C1282 1.391 . S
C1284 C1285 1.400 . S
C1285 C1279 1.491 . S
C1285 C1284 1.400 . S
C1285 C1286 1.398 . S
C1286 H1274 0.950 . S
C1286 C1285 1.398 . S
C1286 C1287 1.391 . S
C1287 H1275 0.950 . S
C1287 C1283 1.393 . S
C1287 C1286 1.391 . S
H1288 C1296 0.950 . S
H1289 C1301 0.950 . S
H1290 C1298 0.950 . S
H1291 C1300 0.950 . S
H1292 C1302 0.950 . S
H1293 C1304 0.950 . S
H1294 C1306 0.950 . S
H1295 C1307 0.950 . S
C1296 H1288 0.950 . S
C1296 C1297 1.386 . S
C1296 C1298 1.391 . S
C1297 C1296 1.386 . S
C1297 C1301 1.393 . S
C1298 H1290 0.950 . S
C1298 C1296 1.391 . S
C1298 C1299 1.400 . S
C1299 C1298 1.400 . S
C1299 C1300 1.398 . S
C1299 C1305 1.491 . S
C1300 H1291 0.950 . S
C1300 C1299 1.398 . S
C1300 C1301 1.391 . S
C1301 H1289 0.950 . S
C1301 C1297 1.393 . S
C1301 C1300 1.391 . S
C1302 H1292 0.950 . S
C1302 C1303 1.386 . S
C1302 C1304 1.391 . S
C1303 C1302 1.386 . S
C1303 C1307 1.393 . S
C1304 H1293 0.950 . S
C1304 C1302 1.391 . S
C1304 C1305 1.400 . S
C1305 C1299 1.491 . S
C1305 C1304 1.400 . S
C1305 C1306 1.398 . S
C1306 H1294 0.950 . S
C1306 C1305 1.398 . S
C1306 C1307 1.391 . S
C1307 H1295 0.950 . S
C1307 C1303 1.393 . S
C1307 C1306 1.391 . S
H1308 C1316 0.950 . S
H1309 C1321 0.950 . S
H1310 C1318 0.950 . S
H1311 C1320 0.950 . S
H1312 C1322 0.950 . S
H1313 C1324 0.950 . S
H1314 C1326 0.950 . S
H1315 C1327 0.950 . S
C1316 H1308 0.950 . S
C1316 C1317 1.386 . S
C1316 C1318 1.391 . S
C1317 C1316 1.386 . S
C1317 C1321 1.393 . S
C1318 H1310 0.950 . S
C1318 C1316 1.391 . S
C1318 C1319 1.400 . S
C1319 C1318 1.400 . S
C1319 C1320 1.398 . S
C1319 C1325 1.491 . S
C1320 H1311 0.950 . S
C1320 C1319 1.398 . S
C1320 C1321 1.391 . S
C1321 H1309 0.950 . S
C1321 C1317 1.393 . S
C1321 C1320 1.391 . S
C1322 H1312 0.950 . S
C1322 C1323 1.386 . S
C1322 C1324 1.391 . S
C1323 C1322 1.386 . S
C1323 C1327 1.393 . S
C1324 H1313 0.950 . S
C1324 C1322 1.391 . S
C1324 C1325 1.400 . S
C1325 C1319 1.491 . S
C1325 C1324 1.400 . S
C1325 C1326 1.398 . S
C1326 H1314 0.950 . S
C1326 C1325 1.398 . S
C1326 C1327 1.391 . S
C1327 H1315 0.950 . S
C1327 C1323 1.393 . S
C1327 C1326 1.391 . S
H1328 C1336 0.950 . S
H1329 C1341 0.950 . S
H1330 C1338 0.950 . S
H1331 C1340 0.950 . S
H1332 C1342 0.950 . S
H1333 C1344 0.950 . S
H1334 C1346 0.950 . S
H1335 C1347 0.950 . S
C1336 H1328 0.950 . S
C1336 C1337 1.386 . S
C1336 C1338 1.391 . S
C1337 C1336 1.386 . S
C1337 C1341 1.393 . S
C1338 H1330 0.950 . S
C1338 C1336 1.391 . S
C1338 C1339 1.400 . S
C1339 C1338 1.400 . S
C1339 C1340 1.398 . S
C1339 C1345 1.491 . S
C1340 H1331 0.950 . S
C1340 C1339 1.398 . S
C1340 C1341 1.391 . S
C1341 H1329 0.950 . S
C1341 C1337 1.393 . S
C1341 C1340 1.391 . S
C1342 H1332 0.950 . S
C1342 C1343 1.386 . S
C1342 C1344 1.391 . S
C1343 C1342 1.386 . S
C1343 C1347 1.393 . S
C1344 H1333 0.950 . S
C1344 C1342 1.391 . S
C1344 C1345 1.400 . S
C1345 C1339 1.491 . S
C1345 C1344 1.400 . S
C1345 C1346 1.398 . S
C1346 H1334 0.950 . S
C1346 C1345 1.398 . S
C1346 C1347 1.391 . S
C1347 H1335 0.950 . S
C1347 C1343 1.393 . S
C1347 C1346 1.391 . S
H1348 C1356 0.950 . S
H1349 C1361 0.950 . S
H1350 C1358 0.950 . S
H1351 C1360 0.950 . S
H1352 C1362 0.950 . S
H1353 C1364 0.950 . S
H1354 C1366 0.950 . S
H1355 C1367 0.950 . S
C1356 H1348 0.950 . S
C1356 C1357 1.386 . S
C1356 C1358 1.391 . S
C1357 C1356 1.386 . S
C1357 C1361 1.393 . S
C1358 H1350 0.950 . S
C1358 C1356 1.391 . S
C1358 C1359 1.400 . S
C1359 C1358 1.400 . S
C1359 C1360 1.398 . S
C1359 C1365 1.491 1_545 S
C1360 H1351 0.950 . S
C1360 C1359 1.398 . S
C1360 C1361 1.391 . S
C1361 H1349 0.950 . S
C1361 C1357 1.393 . S
C1361 C1360 1.391 . S
C1362 H1352 0.950 . S
C1362 C1363 1.386 . S
C1362 C1364 1.391 . S
C1363 C1362 1.386 . S
C1363 C1367 1.393 . S
C1364 H1353 0.950 . S
C1364 C1362 1.391 . S
C1364 C1365 1.400 . S
C1365 C1359 1.491 1_565 S
C1365 C1364 1.400 . S
C1365 C1366 1.398 . S
C1366 H1354 0.950 . S
C1366 C1365 1.398 . S
C1366 C1367 1.391 . S
C1367 H1355 0.950 . S
C1367 C1363 1.393 . S
C1367 C1366 1.391 . S
H1368 C1376 0.950 . S
H1369 C1381 0.950 . S
H1370 C1378 0.950 . S
H1371 C1380 0.950 . S
H1372 C1382 0.950 . S
H1373 C1384 0.950 . S
H1374 C1386 0.950 . S
H1375 C1387 0.950 . S
C1376 H1368 0.950 . S
C1376 C1377 1.386 . S
C1376 C1378 1.391 . S
C1377 C1376 1.386 . S
C1377 C1381 1.393 . S
C1378 H1370 0.950 . S
C1378 C1376 1.391 . S
C1378 C1379 1.400 . S
C1379 C1378 1.400 . S
C1379 C1380 1.398 . S
C1379 C1385 1.491 . S
C1380 H1371 0.950 . S
C1380 C1379 1.398 . S
C1380 C1381 1.391 . S
C1381 H1369 0.950 . S
C1381 C1377 1.393 . S
C1381 C1380 1.391 . S
C1382 H1372 0.950 . S
C1382 C1383 1.386 . S
C1382 C1384 1.391 . S
C1383 C1382 1.386 . S
C1383 C1387 1.393 . S
C1384 H1373 0.950 . S
C1384 C1382 1.391 . S
C1384 C1385 1.400 . S
C1385 C1379 1.491 . S
C1385 C1384 1.400 . S
C1385 C1386 1.398 . S
C1386 H1374 0.950 . S
C1386 C1385 1.398 . S
C1386 C1387 1.391 . S
C1387 H1375 0.950 . S
C1387 C1383 1.393 . S
C1387 C1386 1.391 . S
H1388 C1396 0.950 . S
H1389 C1401 0.950 . S
H1390 C1398 0.969 . S
H1391 C1400 0.950 . S
H1392 C1402 0.950 . S
H1393 C1404 0.950 1_556 S
H1394 C1406 0.950 . S
H1395 C1407 0.950 . S
C1396 H1388 0.950 . S
C1396 C1397 1.386 . S
C1396 C1398 1.379 1_556 S
C1397 C1396 1.386 . S
C1397 C1401 1.393 . S
C1398 H1390 0.969 . S
C1398 C1396 1.379 1_554 S
C1398 C1399 1.395 1_554 S
C1399 C1398 1.395 1_556 S
C1399 C1400 1.398 . S
C1399 C1405 1.491 1_556 S
C1400 H1391 0.950 . S
C1400 C1399 1.398 . S
C1400 C1401 1.391 . S
C1401 H1389 0.950 . S
C1401 C1397 1.393 . S
C1401 C1400 1.391 . S
C1402 H1392 0.950 . S
C1402 C1403 1.386 . S
C1402 C1404 1.391 . S
C1403 C1402 1.386 . S
C1403 C1407 1.393 . S
C1404 H1393 0.950 1_554 S
C1404 C1402 1.391 . S
C1404 C1405 1.400 . S
C1405 C1399 1.491 1_554 S
C1405 C1404 1.400 . S
C1405 C1406 1.398 . S
C1406 H1394 0.950 . S
C1406 C1405 1.398 . S
C1406 C1407 1.391 . S
C1407 H1395 0.950 . S
C1407 C1403 1.393 . S
C1407 C1406 1.391 . S
H1408 C1416 0.950 . S
H1409 C1421 0.950 . S
H1410 C1418 0.950 . S
H1411 C1420 0.950 . S
H1412 C1422 0.950 . S
H1413 C1424 0.950 . S
H1414 C1426 0.950 . S
H1415 C1427 0.950 . S
C1416 H1408 0.950 . S
C1416 C1417 1.386 . S
C1416 C1418 1.391 . S
C1417 C1416 1.386 . S
C1417 C1421 1.393 . S
C1418 H1410 0.950 . S
C1418 C1416 1.391 . S
C1418 C1419 1.400 . S
C1419 C1418 1.400 . S
C1419 C1420 1.398 . S
C1419 C1425 1.491 . S
C1420 H1411 0.950 . S
C1420 C1419 1.398 . S
C1420 C1421 1.391 . S
C1421 H1409 0.950 . S
C1421 C1417 1.393 . S
C1421 C1420 1.391 . S
C1422 H1412 0.950 . S
C1422 C1423 1.386 . S
C1422 C1424 1.391 . S
C1423 C1422 1.386 . S
C1423 C1427 1.393 . S
C1424 H1413 0.950 . S
C1424 C1422 1.391 . S
C1424 C1425 1.400 . S
C1425 C1419 1.491 . S
C1425 C1424 1.400 . S
C1425 C1426 1.398 . S
C1426 H1414 0.950 . S
C1426 C1425 1.398 . S
C1426 C1427 1.391 . S
C1427 H1415 0.950 . S
C1427 C1423 1.393 . S
C1427 C1426 1.391 . S
H1428 C1436 0.950 . S
H1429 C1441 0.950 . S
H1430 C1438 0.950 . S
H1431 C1440 0.950 . S
H1432 C1442 0.950 . S
H1433 C1444 0.950 . S
H1434 C1446 0.950 . S
H1435 C1447 0.950 . S
C1436 H1428 0.950 . S
C1436 C1437 1.386 . S
C1436 C1438 1.391 . S
C1437 C1436 1.386 . S
C1437 C1441 1.393 . S
C1438 H1430 0.950 . S
C1438 C1436 1.391 . S
C1438 C1439 1.400 . S
C1439 C1438 1.400 . S
C1439 C1440 1.398 . S
C1439 C1445 1.491 . S
C1440 H1431 0.950 . S
C1440 C1439 1.398 . S
C1440 C1441 1.391 . S
C1441 H1429 0.950 . S
C1441 C1437 1.393 . S
C1441 C1440 1.391 . S
C1442 H1432 0.950 . S
C1442 C1443 1.386 . S
C1442 C1444 1.391 . S
C1443 C1442 1.386 . S
C1443 C1447 1.393 . S
C1444 H1433 0.950 . S
C1444 C1442 1.391 . S
C1444 C1445 1.400 . S
C1445 C1439 1.491 . S
C1445 C1444 1.400 . S
C1445 C1446 1.398 . S
C1446 H1434 0.950 . S
C1446 C1445 1.398 . S
C1446 C1447 1.391 . S
C1447 H1435 0.950 . S
C1447 C1443 1.393 . S
C1447 C1446 1.391 . S
H1448 C1456 0.950 . S
H1449 C1461 0.950 . S
H1450 C1458 0.950 . S
H1451 C1460 0.950 . S
H1452 C1462 0.950 . S
H1453 C1464 0.950 . S
H1454 C1466 0.950 . S
H1455 C1467 0.950 . S
C1456 H1448 0.950 . S
C1456 C1457 1.386 . S
C1456 C1458 1.391 . S
C1457 C1456 1.386 . S
C1457 C1461 1.393 . S
C1458 H1450 0.950 . S
C1458 C1456 1.391 . S
C1458 C1459 1.400 . S
C1459 C1458 1.400 . S
C1459 C1460 1.398 . S
C1459 C1465 1.491 . S
C1460 H1451 0.950 . S
C1460 C1459 1.398 . S
C1460 C1461 1.391 . S
C1461 H1449 0.950 . S
C1461 C1457 1.393 . S
C1461 C1460 1.391 . S
C1462 H1452 0.950 . S
C1462 C1463 1.386 . S
C1462 C1464 1.391 . S
C1463 C1462 1.386 . S
C1463 C1467 1.393 . S
C1464 H1453 0.950 . S
C1464 C1462 1.391 . S
C1464 C1465 1.400 . S
C1465 C1459 1.491 . S
C1465 C1464 1.400 . S
C1465 C1466 1.398 . S
C1466 H1454 0.950 . S
C1466 C1465 1.398 . S
C1466 C1467 1.391 . S
C1467 H1455 0.950 . S
C1467 C1463 1.393 . S
C1467 C1466 1.391 . S
H1468 C1476 0.950 . S
H1469 C1481 0.950 . S
H1470 C1478 0.950 . S
H1471 C1480 0.950 . S
H1472 C1482 0.950 . S
H1473 C1484 0.950 . S
H1474 C1486 0.950 . S
H1475 C1487 0.950 . S
C1476 H1468 0.950 . S
C1476 C1477 1.386 . S
C1476 C1478 1.391 . S
C1477 C1476 1.386 . S
C1477 C1481 1.393 . S
C1478 H1470 0.950 . S
C1478 C1476 1.391 . S
C1478 C1479 1.400 . S
C1479 C1478 1.400 . S
C1479 C1480 1.398 . S
C1479 C1485 1.491 . S
C1480 H1471 0.950 . S
C1480 C1479 1.398 . S
C1480 C1481 1.391 . S
C1481 H1469 0.950 . S
C1481 C1477 1.393 . S
C1481 C1480 1.391 . S
C1482 H1472 0.950 . S
C1482 C1483 1.386 . S
C1482 C1484 1.391 . S
C1483 C1482 1.386 . S
C1483 C1487 1.393 . S
C1484 H1473 0.950 . S
C1484 C1482 1.391 . S
C1484 C1485 1.400 . S
C1485 C1479 1.491 . S
C1485 C1484 1.400 . S
C1485 C1486 1.398 . S
C1486 H1474 0.950 . S
C1486 C1485 1.398 . S
C1486 C1487 1.391 . S
C1487 H1475 0.950 . S
C1487 C1483 1.393 . S
C1487 C1486 1.391 . S
H1488 C1496 0.950 . S
H1489 C1501 0.950 . S
H1490 C1498 0.950 . S
H1491 C1500 0.950 . S
H1492 C1502 0.950 . S
H1493 C1504 0.950 . S
H1494 C1506 0.950 . S
H1495 C1507 0.950 . S
C1496 H1488 0.950 . S
C1496 C1497 1.386 . S
C1496 C1498 1.391 . S
C1497 C1496 1.386 . S
C1497 C1501 1.393 . S
C1498 H1490 0.950 . S
C1498 C1496 1.391 . S
C1498 C1499 1.400 . S
C1499 C1498 1.400 . S
C1499 C1500 1.398 . S
C1499 C1505 1.491 . S
C1500 H1491 0.950 . S
C1500 C1499 1.398 . S
C1500 C1501 1.391 . S
C1501 H1489 0.950 . S
C1501 C1497 1.393 . S
C1501 C1500 1.391 . S
C1502 H1492 0.950 . S
C1502 C1503 1.386 . S
C1502 C1504 1.391 . S
C1503 C1502 1.386 . S
C1503 C1507 1.393 . S
C1504 H1493 0.950 . S
C1504 C1502 1.391 . S
C1504 C1505 1.400 . S
C1505 C1499 1.491 . S
C1505 C1504 1.400 . S
C1505 C1506 1.398 . S
C1506 H1494 0.950 . S
C1506 C1505 1.398 . S
C1506 C1507 1.391 . S
C1507 H1495 0.950 . S
C1507 C1503 1.393 . S
C1507 C1506 1.391 . S
H1508 C1516 0.950 . S
H1509 C1521 0.950 . S
H1510 C1518 0.950 . S
H1511 C1520 0.950 . S
H1512 C1522 0.950 . S
H1513 C1524 0.950 . S
H1514 C1526 0.950 . S
H1515 C1527 0.950 . S
C1516 H1508 0.950 . S
C1516 C1517 1.386 . S
C1516 C1518 1.391 . S
C1517 C1516 1.386 . S
C1517 C1521 1.393 . S
C1518 H1510 0.950 . S
C1518 C1516 1.391 . S
C1518 C1519 1.400 . S
C1519 C1518 1.400 . S
C1519 C1520 1.398 . S
C1519 C1525 1.491 . S
C1520 H1511 0.950 . S
C1520 C1519 1.398 . S
C1520 C1521 1.391 . S
C1521 H1509 0.950 . S
C1521 C1517 1.393 . S
C1521 C1520 1.391 . S
C1522 H1512 0.950 . S
C1522 C1523 1.386 . S
C1522 C1524 1.391 . S
C1523 C1522 1.386 . S
C1523 C1527 1.393 . S
C1524 H1513 0.950 . S
C1524 C1522 1.391 . S
C1524 C1525 1.400 . S
C1525 C1519 1.491 . S
C1525 C1524 1.400 . S
C1525 C1526 1.398 . S
C1526 H1514 0.950 . S
C1526 C1525 1.398 . S
C1526 C1527 1.391 . S
C1527 H1515 0.950 . S
C1527 C1523 1.393 . S
C1527 C1526 1.391 . S
H1528 C1536 0.950 . S
H1529 C1541 0.950 . S
H1530 C1538 0.950 . S
H1531 C1540 0.950 . S
H1532 C1542 0.950 . S
H1533 C1544 0.950 . S
H1534 C1546 0.950 . S
H1535 C1547 0.950 . S
C1536 H1528 0.950 . S
C1536 C1537 1.386 . S
C1536 C1538 1.391 . S
C1537 C1536 1.386 . S
C1537 C1541 1.393 . S
C1538 H1530 0.950 . S
C1538 C1536 1.391 . S
C1538 C1539 1.400 . S
C1539 C1538 1.400 . S
C1539 C1540 1.398 . S
C1539 C1545 1.491 . S
C1540 H1531 0.950 . S
C1540 C1539 1.398 . S
C1540 C1541 1.391 . S
C1541 H1529 0.950 . S
C1541 C1537 1.393 . S
C1541 C1540 1.391 . S
C1542 H1532 0.950 . S
C1542 C1543 1.386 . S
C1542 C1544 1.391 . S
C1543 C1542 1.386 . S
C1543 C1547 1.393 . S
C1544 H1533 0.950 . S
C1544 C1542 1.391 . S
C1544 C1545 1.400 . S
C1545 C1539 1.491 . S
C1545 C1544 1.400 . S
C1545 C1546 1.398 . S
C1546 H1534 0.950 . S
C1546 C1545 1.398 . S
C1546 C1547 1.391 . S
C1547 H1535 0.950 . S
C1547 C1543 1.393 . S
C1547 C1546 1.391 . S
H1548 C1556 0.950 . S
H1549 C1561 0.950 . S
H1550 C1558 0.950 . S
H1551 C1560 0.950 . S
H1552 C1562 0.950 . S
H1553 C1564 0.950 . S
H1554 C1566 0.950 . S
H1555 C1567 0.950 . S
C1556 H1548 0.950 . S
C1556 C1557 1.386 . S
C1556 C1558 1.391 . S
C1557 C1556 1.386 . S
C1557 C1561 1.393 . S
C1558 H1550 0.950 . S
C1558 C1556 1.391 . S
C1558 C1559 1.400 . S
C1559 C1558 1.400 . S
C1559 C1560 1.398 . S
C1559 C1565 1.491 . S
C1560 H1551 0.950 . S
C1560 C1559 1.398 . S
C1560 C1561 1.391 . S
C1561 H1549 0.950 . S
C1561 C1557 1.393 . S
C1561 C1560 1.391 . S
C1562 H1552 0.950 . S
C1562 C1563 1.386 . S
C1562 C1564 1.391 . S
C1563 C1562 1.386 . S
C1563 C1567 1.393 . S
C1564 H1553 0.950 . S
C1564 C1562 1.391 . S
C1564 C1565 1.400 . S
C1565 C1559 1.491 . S
C1565 C1564 1.400 . S
C1565 C1566 1.398 . S
C1566 H1554 0.950 . S
C1566 C1565 1.398 . S
C1566 C1567 1.391 . S
C1567 H1555 0.950 . S
C1567 C1563 1.393 . S
C1567 C1566 1.391 . S
H1568 C1576 0.950 . S
H1569 C1581 0.950 . S
H1570 C1578 0.950 . S
H1571 C1580 0.950 . S
H1572 C1582 0.950 . S
H1573 C1584 0.950 . S
H1574 C1586 0.950 . S
H1575 C1587 0.950 . S
C1576 H1568 0.950 . S
C1576 C1577 1.386 . S
C1576 C1578 1.391 . S
C1577 C1576 1.386 . S
C1577 C1581 1.393 . S
C1578 H1570 0.950 . S
C1578 C1576 1.391 . S
C1578 C1579 1.400 . S
C1579 C1578 1.400 . S
C1579 C1580 1.398 . S
C1579 C1585 1.491 . S
C1580 H1571 0.950 . S
C1580 C1579 1.398 . S
C1580 C1581 1.391 . S
C1581 H1569 0.950 . S
C1581 C1577 1.393 . S
C1581 C1580 1.391 . S
C1582 H1572 0.950 . S
C1582 C1583 1.386 . S
C1582 C1584 1.391 . S
C1583 C1582 1.386 . S
C1583 C1587 1.393 . S
C1584 H1573 0.950 . S
C1584 C1582 1.391 . S
C1584 C1585 1.400 . S
C1585 C1579 1.491 . S
C1585 C1584 1.400 . S
C1585 C1586 1.398 . S
C1586 H1574 0.950 . S
C1586 C1585 1.398 . S
C1586 C1587 1.391 . S
C1587 H1575 0.950 . S
C1587 C1583 1.393 . S
C1587 C1586 1.391 . S
H1588 C1596 0.950 . S
H1589 C1601 0.950 . S
H1590 C1598 0.950 . S
H1591 C1600 0.950 . S
H1592 C1602 0.950 . S
H1593 C1604 0.950 . S
H1594 C1606 0.950 . S
H1595 C1607 0.950 . S
C1596 H1588 0.950 . S
C1596 C1597 1.386 . S
C1596 C1598 1.391 . S
C1597 C1596 1.386 . S
C1597 C1601 1.393 . S
C1598 H1590 0.950 . S
C1598 C1596 1.391 . S
C1598 C1599 1.400 . S
C1599 C1598 1.400 . S
C1599 C1600 1.398 . S
C1599 C1605 1.491 . S
C1600 H1591 0.950 . S
C1600 C1599 1.398 . S
C1600 C1601 1.391 . S
C1601 H1589 0.950 . S
C1601 C1597 1.393 . S
C1601 C1600 1.391 . S
C1602 H1592 0.950 . S
C1602 C1603 1.386 . S
C1602 C1604 1.391 . S
C1603 C1602 1.386 . S
C1603 C1607 1.393 . S
C1604 H1593 0.950 . S
C1604 C1602 1.391 . S
C1604 C1605 1.400 . S
C1605 C1599 1.491 . S
C1605 C1604 1.400 . S
C1605 C1606 1.398 . S
C1606 H1594 0.950 . S
C1606 C1605 1.398 . S
C1606 C1607 1.391 . S
C1607 H1595 0.950 . S
C1607 C1603 1.393 . S
C1607 C1606 1.391 . S
H1608 C1616 0.950 . S
H1609 C1621 0.950 . S
H1610 C1618 0.950 . S
H1611 C1620 0.950 . S
H1612 C1622 0.950 . S
H1613 C1624 0.950 . S
H1614 C1626 0.950 . S
H1615 C1627 0.950 . S
C1616 H1608 0.950 . S
C1616 C1617 1.386 . S
C1616 C1618 1.391 . S
C1617 C1616 1.386 . S
C1617 C1621 1.393 . S
C1618 H1610 0.950 . S
C1618 C1616 1.391 . S
C1618 C1619 1.400 . S
C1619 C1618 1.400 . S
C1619 C1620 1.398 . S
C1619 C1625 1.491 . S
C1620 H1611 0.950 . S
C1620 C1619 1.398 . S
C1620 C1621 1.391 . S
C1621 H1609 0.950 . S
C1621 C1617 1.393 . S
C1621 C1620 1.391 . S
C1622 H1612 0.950 . S
C1622 C1623 1.386 . S
C1622 C1624 1.391 . S
C1623 C1622 1.386 . S
C1623 C1627 1.393 . S
C1624 H1613 0.950 . S
C1624 C1622 1.391 . S
C1624 C1625 1.400 . S
C1625 C1619 1.491 . S
C1625 C1624 1.400 . S
C1625 C1626 1.398 . S
C1626 H1614 0.950 . S
C1626 C1625 1.398 . S
C1626 C1627 1.391 . S
C1627 H1615 0.950 . S
C1627 C1623 1.393 . S
C1627 C1626 1.391 . S
H1628 C1636 0.950 . S
H1629 C1641 0.950 . S
H1630 C1638 0.950 . S
H1631 C1640 0.950 . S
H1632 C1642 0.950 . S
H1633 C1644 0.950 . S
H1634 C1646 0.950 . S
H1635 C1647 0.950 . S
C1636 H1628 0.950 . S
C1636 C1637 1.386 . S
C1636 C1638 1.391 . S
C1637 C1636 1.386 . S
C1637 C1641 1.393 . S
C1638 H1630 0.950 . S
C1638 C1636 1.391 . S
C1638 C1639 1.400 . S
C1639 C1638 1.400 . S
C1639 C1640 1.398 . S
C1639 C1645 1.491 . S
C1640 H1631 0.950 . S
C1640 C1639 1.398 . S
C1640 C1641 1.391 . S
C1641 H1629 0.950 . S
C1641 C1637 1.393 . S
C1641 C1640 1.391 . S
C1642 H1632 0.950 . S
C1642 C1643 1.386 . S
C1642 C1644 1.391 . S
C1643 C1642 1.386 . S
C1643 C1647 1.393 . S
C1644 H1633 0.950 . S
C1644 C1642 1.391 . S
C1644 C1645 1.400 . S
C1645 C1639 1.491 . S
C1645 C1644 1.400 . S
C1645 C1646 1.398 . S
C1646 H1634 0.950 . S
C1646 C1645 1.398 . S
C1646 C1647 1.391 . S
C1647 H1635 0.950 . S
C1647 C1643 1.393 . S
C1647 C1646 1.391 . S
H1648 C1656 0.950 . S
H1649 C1661 0.950 . S
H1650 C1658 0.950 . S
H1651 C1660 0.950 . S
H1652 C1662 0.950 . S
H1653 C1664 0.950 . S
H1654 C1666 0.950 . S
H1655 C1667 0.950 . S
C1656 H1648 0.950 . S
C1656 C1657 1.386 . S
C1656 C1658 1.391 . S
C1657 C1656 1.386 . S
C1657 C1661 1.393 . S
C1658 H1650 0.950 . S
C1658 C1656 1.391 . S
C1658 C1659 1.400 . S
C1659 C1658 1.400 . S
C1659 C1660 1.398 . S
C1659 C1665 1.491 . S
C1660 H1651 0.950 . S
C1660 C1659 1.398 . S
C1660 C1661 1.391 . S
C1661 H1649 0.950 . S
C1661 C1657 1.393 . S
C1661 C1660 1.391 . S
C1662 H1652 0.950 . S
C1662 C1663 1.386 . S
C1662 C1664 1.391 . S
C1663 C1662 1.386 . S
C1663 C1667 1.393 . S
C1664 H1653 0.950 . S
C1664 C1662 1.391 . S
C1664 C1665 1.400 . S
C1665 C1659 1.491 . S
C1665 C1664 1.400 . S
C1665 C1666 1.398 . S
C1666 H1654 0.950 . S
C1666 C1665 1.398 . S
C1666 C1667 1.391 . S
C1667 H1655 0.950 . S
C1667 C1663 1.393 . S
C1667 C1666 1.391 . S
H1668 C1676 0.950 . S
H1669 C1681 0.950 . S
H1670 C1678 0.950 . S
H1671 C1680 0.950 . S
H1672 C1682 0.950 . S
H1673 C1684 0.950 . S
H1674 C1686 0.950 . S
H1675 C1687 0.950 . S
C1676 H1668 0.950 . S
C1676 C1677 1.386 . S
C1676 C1678 1.391 . S
C1677 C1676 1.386 . S
C1677 C1681 1.393 . S
C1678 H1670 0.950 . S
C1678 C1676 1.391 . S
C1678 C1679 1.400 . S
C1679 C1678 1.400 . S
C1679 C1680 1.398 . S
C1679 C1685 1.491 . S
C1680 H1671 0.950 . S
C1680 C1679 1.398 . S
C1680 C1681 1.391 . S
C1681 H1669 0.950 . S
C1681 C1677 1.393 . S
C1681 C1680 1.391 . S
C1682 H1672 0.950 . S
C1682 C1683 1.386 . S
C1682 C1684 1.391 . S
C1683 C1682 1.386 . S
C1683 C1687 1.393 . S
C1684 H1673 0.950 . S
C1684 C1682 1.391 . S
C1684 C1685 1.400 . S
C1685 C1679 1.491 . S
C1685 C1684 1.400 . S
C1685 C1686 1.398 . S
C1686 H1674 0.950 . S
C1686 C1685 1.398 . S
C1686 C1687 1.391 . S
C1687 H1675 0.950 . S
C1687 C1683 1.393 . S
C1687 C1686 1.391 . S
H1688 C1696 0.950 . S
H1689 C1701 0.950 . S
H1690 C1698 0.950 . S
H1691 C1700 0.950 . S
H1692 C1702 0.950 . S
H1693 C1704 0.950 . S
H1694 C1706 0.950 . S
H1695 C1707 0.950 . S
C1696 H1688 0.950 . S
C1696 C1697 1.386 . S
C1696 C1698 1.391 . S
C1697 C1696 1.386 . S
C1697 C1701 1.393 . S
C1698 H1690 0.950 . S
C1698 C1696 1.391 . S
C1698 C1699 1.400 . S
C1699 C1698 1.400 . S
C1699 C1700 1.398 . S
C1699 C1705 1.491 . S
C1700 H1691 0.950 . S
C1700 C1699 1.398 . S
C1700 C1701 1.391 . S
C1701 H1689 0.950 . S
C1701 C1697 1.393 . S
C1701 C1700 1.391 . S
C1702 H1692 0.950 . S
C1702 C1703 1.386 . S
C1702 C1704 1.391 . S
C1703 C1702 1.386 . S
C1703 C1707 1.393 . S
C1704 H1693 0.950 . S
C1704 C1702 1.391 . S
C1704 C1705 1.400 . S
C1705 C1699 1.491 . S
C1705 C1704 1.400 . S
C1705 C1706 1.398 . S
C1706 H1694 0.950 . S
C1706 C1705 1.398 . S
C1706 C1707 1.391 . S
C1707 H1695 0.950 . S
C1707 C1703 1.393 . S
C1707 C1706 1.391 . S
H1708 C1716 0.950 . S
H1709 C1721 0.950 . S
H1710 C1718 0.950 . S
H1711 C1720 0.950 . S
H1712 C1722 0.950 . S
H1713 C1724 0.950 . S
H1714 C1726 0.950 . S
H1715 C1727 0.950 . S
C1716 H1708 0.950 . S
C1716 C1717 1.386 . S
C1716 C1718 1.391 . S
C1717 C1716 1.386 . S
C1717 C1721 1.393 . S
C1718 H1710 0.950 . S
C1718 C1716 1.391 . S
C1718 C1719 1.400 . S
C1719 C1718 1.400 . S
C1719 C1720 1.398 . S
C1719 C1725 1.491 . S
C1720 H1711 0.950 . S
C1720 C1719 1.398 . S
C1720 C1721 1.391 . S
C1721 H1709 0.950 . S
C1721 C1717 1.393 . S
C1721 C1720 1.391 . S
C1722 H1712 0.950 . S
C1722 C1723 1.386 . S
C1722 C1724 1.391 . S
C1723 C1722 1.386 . S
C1723 C1727 1.393 . S
C1724 H1713 0.950 . S
C1724 C1722 1.391 . S
C1724 C1725 1.400 . S
C1725 C1719 1.491 . S
C1725 C1724 1.400 . S
C1725 C1726 1.398 . S
C1726 H1714 0.950 . S
C1726 C1725 1.398 . S
C1726 C1727 1.391 . S
C1727 H1715 0.950 . S
C1727 C1723 1.393 . S
C1727 C1726 1.391 . S
C457 C149 1.302 . S
C463 C9 1.289 . S
C477 C23 1.294 . S
C483 C163 1.290 . S
C497 C37 1.281 . S
C503 C121 1.308 . S
C517 C135 1.305 . S
C523 C51 1.281 . S
C537 C199 1.222 . S
C543 C59 1.222 . S
C557 C73 1.213 . S
C563 C213 1.229 . S
C577 C171 1.227 . S
C583 C87 1.212 . S
C597 C185 1.232 . S
C603 C101 1.210 . S
C617 C373 1.293 . S
C623 C233 1.299 . S
C637 C387 1.284 . S
C643 C247 1.300 . S
C657 C345 1.296 . S
C663 C261 1.295 . S
C677 C275 1.302 . S
C683 C359 1.289 . S
C697 C423 1.227 . S
C703 C283 1.213 . S
C717 C437 1.232 . S
C723 C297 1.209 . S
C737 C311 1.227 . S
C743 C395 1.213 . S
C757 C325 1.209 . S
C763 C409 1.232 . S
C777 C269 1.414 . S
C783 C3 1.409 . S
C797 C17 1.409 . S
C803 C255 1.414 . S
C817 C241 1.412 . S
C823 C31 1.413 . S
C837 C227 1.410 . S
C843 C45 1.414 . S
C857 C65 1.235 . S
C863 C331 1.225 . S
C877 C79 1.228 . S
C883 C317 1.231 . S
C897 C303 1.228 . S
C903 C93 1.234 . S
C917 C107 1.234 . S
C923 C289 1.226 . S
C937 C381 1.410 . S
C943 C115 1.414 . S
C957 C367 1.408 . S
C963 C129 1.412 . S
C977 C353 1.412 . S
C983 C143 1.408 . S
C997 C339 1.410 . S
C1003 C157 1.414 . S
C1017 C177 1.228 . S
C1023 C443 1.231 . S
C1037 C429 1.230 . S
C1043 C191 1.233 . S
C1057 C205 1.234 . S
C1063 C415 1.226 . S
C1077 C219 1.228 . S
C1083 C401 1.234 . S
C1097 C175 1.391 . S
C1103 C8 1.363 . S
C1117 C22 1.378 . S
C1123 C301 1.398 . S
C1137 C91 1.398 . S
C1143 C36 1.376 . S
C1157 C441 1.399 . S
C1163 C50 1.380 . S
C1177 C63 1.399 . S
C1183 C120 1.383 . S
C1197 C246 1.378 . S
C1203 C77 1.394 . S
C1217 C386 1.379 . S
C1223 C105 1.399 . S
C1237 C413 1.393 . S
C1243 C134 1.365 . S
C1257 C148 1.367 . S
C1263 C203 1.395 . S
C1277 C329 1.396 . S
C1283 C162 1.382 . S
C1297 C358 1.363 . S
C1303 C189 1.391 . S
C1317 C217 1.392 . S
C1323 C274 1.373 . S
C1337 C232 1.377 . S
C1343 C399 1.399 . S
C1357 C315 1.397 . S
C1363 C260 1.373 . S
C1377 C344 1.369 . S
C1383 C287 1.391 . S
C1397 C372 1.379 . S
C1403 C427 1.395 . S
C1417 C7 1.117 . S
C1423 C49 1.113 . S
C1437 C35 1.116 . S
C1443 C21 1.121 . S
C1457 C64 0.925 . S
C1463 C106 0.919 . S
C1477 C78 0.918 . S
C1483 C92 0.907 . S
C1497 C119 1.141 . S
C1503 C161 1.138 . S
C1517 C133 1.133 . S
C1523 C147 1.128 . S
C1537 C176 0.894 . S
C1543 C218 0.901 . S
C1557 C204 0.903 . S
C1563 C190 0.914 . S
C1577 C273 1.124 . S
C1583 C231 1.129 . S
C1597 C259 1.131 . S
C1603 C245 1.126 . S
C1617 C330 0.906 . S
C1623 C288 0.917 . S
C1637 C316 0.896 . S
C1643 C302 0.892 . S
C1657 C385 1.111 . S
C1663 C343 1.115 . S
C1677 C371 1.122 . S
C1683 C357 1.117 . S
C1697 C400 0.922 . S
C1703 C442 0.925 . S
C1717 C428 0.921 . S
C1723 C414 0.911 . S
