# Generated by pormake.
# Topology kag, (6)-cn, num edge types: 1
# Building blocks:
#     Node 0, Type 0, BuildingBlock: GEDQOX_clean_sbu_0, # of connection points: 6
#     Node 1, Type 0, BuildingBlock: GEDQOX_clean_sbu_0, # of connection points: 6
#     Node 2, Type 0, BuildingBlock: GEDQOX_clean_sbu_0, # of connection points: 6
#     Edge 3, Type (0, 0), BuildingBlock: CIFDUS_clean_linker_0, # of connection points: 2
#     Edge 4, Type (0, 0), BuildingBlock: CIFDUS_clean_linker_0, # of connection points: 2
#     Edge 5, Type (0, 0), BuildingBlock: CIFDUS_clean_linker_0, # of connection points: 2
#     Edge 6, Type (0, 0), BuildingBlock: CIFDUS_clean_linker_0, # of connection points: 2
#     Edge 7, Type (0, 0), BuildingBlock: CIFDUS_clean_linker_0, # of connection points: 2
#     Edge 8, Type (0, 0), BuildingBlock: CIFDUS_clean_linker_0, # of connection points: 2
#     Edge 9, Type (0, 0), BuildingBlock: CIFDUS_clean_linker_0, # of connection points: 2
#     Edge 10, Type (0, 0), BuildingBlock: CIFDUS_clean_linker_0, # of connection points: 2
#     Edge 11, Type (0, 0), BuildingBlock: CIFDUS_clean_linker_0, # of connection points: 2
# Relax obj value: 0.092
# Max RMSD: 0.217
# Mean RMSD: 0.122
data_MOF--net-kag--node1-GEDQOX_clean_sbu_0--edge1-CIFDUS_clean_linker_0
_symmetry_space_group_name_H-M    P1
_symmetry_Int_Tables_number       1
_symmetry_cell_setting            triclinic
loop_
_symmetry_equiv_pos_as_xyz
'x, y, z'
_cell_length_a     45.489024
_cell_length_b     38.809548
_cell_length_c     12.88737
_cell_angle_alpha  94.561373
_cell_angle_beta   89.95686
_cell_angle_gamma 142.35477
loop_
_atom_site_label
_atom_site_type_symbol
_atom_site_fract_x
_atom_site_fract_y
_atom_site_fract_z
_atom_type_partial_charge
Nd0 Nd 0.05791 0.58018 0.02304 0.0
Nd1 Nd 1.05428 0.50368 0.97438 0.0
C2 C 1.04689 0.6349 0.09751 0.0
C3 C 1.00981 0.62749 0.10663 0.0
C4 C 1.00801 0.64522 0.20267 0.0
C5 C 0.97602 0.64315 0.21164 0.0
C6 C 0.94532 0.62359 0.12439 0.0
C7 C 0.94635 0.60453 0.02869 0.0
C8 C 0.97818 0.60627 0.01993 0.0
C9 C 0.06666 0.57093 0.8134 0.0
C10 C 0.94925 0.44107 0.97607 0.0
C11 C 0.0669 0.45034 0.90192 0.0
C12 C 0.10537 0.45996 0.90523 0.0
C13 C 0.0988 0.42292 0.84162 0.0
C14 C 0.13352 0.42909 0.8484 0.0
C15 C 0.17555 0.47252 0.91915 0.0
C16 C 0.18243 0.51041 0.98128 0.0
C17 C 0.14764 0.50417 0.97436 0.0
C18 C 1.04585 0.51329 0.18399 0.0
C19 C 0.16295 0.64315 0.02017 0.0
O20 O 1.04452 0.60638 0.1541 0.0
O21 O 0.05932 0.63759 1.00418 0.0
O22 O 0.09278 0.61818 0.87201 0.0
O23 O 1.03614 0.52905 0.86548 0.0
O24 O 0.97475 0.4923 0.01652 0.0
O25 O 0.97175 0.43427 0.93977 0.0
O26 O 0.07308 0.48254 0.84798 0.0
O27 O 1.0496 0.44309 0.99048 0.0
O28 O 1.01977 0.46598 0.12576 0.0
O29 O 0.07632 0.55501 0.13157 0.0
O30 O 0.13754 0.59171 0.98195 0.0
O31 O 0.14045 0.65011 0.05486 0.0
H32 H 1.0322 0.66193 0.27039 0.0
H33 H 0.97645 0.65863 0.28617 0.0
H34 H 0.9227 0.58853 0.96045 0.0
H35 H 0.97859 0.59197 0.94496 0.0
H36 H 0.0663 0.38842 0.78811 0.0
H37 H 0.12666 0.3987 0.80043 0.0
H38 H 0.2146 0.54472 0.03565 0.0
H39 H 0.15332 0.53324 0.02409 0.0
Nd40 Nd 0.55253 0.08325 0.99393 0.0
Nd41 Nd 0.5583 1.00204 0.99553 0.0
C42 C 0.5403 0.13446 0.92552 0.0
C43 C 0.54342 0.17572 0.93657 0.0
C44 C 0.54343 0.19338 0.84566 0.0
C45 C 0.54088 0.22716 0.85026 0.0
C46 C 0.53854 0.24462 0.94626 0.0
C47 C 0.54002 0.22829 0.03807 0.0
C48 C 0.54206 0.19382 0.0332 0.0
C49 C 0.56311 0.07088 0.19583 0.0
C50 C 0.65976 0.14415 0.99945 0.0
C51 C 0.56763 0.94712 0.05826 0.0
C52 C 0.56012 0.90205 0.03509 0.0
C53 C 0.51757 0.84628 0.05779 0.0
C54 C 0.51326 0.80606 0.04935 0.0
C55 C 0.55152 0.82049 0.01878 0.0
C56 C 0.59369 0.876 0.99417 0.0
C57 C 0.59796 0.91616 1.00248 0.0
C58 C 0.54748 1.01434 0.79364 0.0
C59 C 0.45129 0.94112 0.99177 0.0
O60 O 0.5793 0.15233 0.9136 0.0
O61 O 0.50879 0.08994 0.97585 0.0
O62 O 0.56037 0.10086 0.17696 0.0
O63 O 0.56219 0.05248 0.10915 0.0
O64 O 0.63441 0.14898 0.97983 0.0
O65 O 0.63886 0.09545 0.02041 0.0
O66 O 0.53023 0.9321 0.07366 0.0
O67 O 0.60076 0.99334 0.01267 0.0
O68 O 0.55042 0.98457 0.81237 0.0
O69 O 0.5485 1.0327 0.88049 0.0
O70 O 0.47676 0.9365 0.01096 0.0
O71 O 0.47199 0.98968 0.97069 0.0
H72 H 0.5442 0.17979 0.77013 0.0
H73 H 0.54058 0.23951 0.77821 0.0
H74 H 0.53807 0.24069 0.1133 0.0
H75 H 0.54161 0.18042 0.10445 0.0
H76 H 0.488 0.83403 0.08513 0.0
H77 H 0.48044 0.76413 0.07034 0.0
H78 H 0.6237 0.88868 0.96896 0.0
H79 H 0.63156 0.95885 0.9858 0.0
Nd80 Nd 0.50602 0.49851 0.00955 0.0
Nd81 Nd 0.62153 0.60213 0.05332 0.0
C82 C 0.41696 0.43222 0.93822 0.0
C83 C 0.3907 0.44037 0.92305 0.0
C84 C 0.35033 0.40328 0.84863 0.0
C85 C 0.3248 0.41022 0.83433 0.0
C86 C 0.33924 0.45452 0.89422 0.0
C87 C 0.38014 0.492 0.96813 0.0
C88 C 0.4056 0.48497 0.98239 0.0
C89 C 0.54214 0.52812 0.21546 0.0
C90 C 0.57348 0.63396 0.04064 0.0
C91 C 0.70825 0.66929 0.14335 0.0
C92 C 0.74228 0.67241 0.12661 0.0
C93 C 0.77299 0.69037 0.21116 0.0
C94 C 0.80153 0.68739 0.1988 0.0
C95 C 0.79982 0.66637 0.1015 0.0
C96 C 0.76959 0.64937 0.01644 0.0
C97 C 0.74088 0.65205 0.02904 0.0
C98 C 0.59251 0.56775 0.83895 0.0
C99 C 0.55436 0.4676 0.01756 0.0
O100 O 0.45104 0.45661 0.87702 0.0
O101 O 0.42953 0.43734 0.03527 0.0
O102 O 0.50165 0.47618 0.17391 0.0
O103 O 0.56082 0.56269 0.14989 0.0
O104 O 0.5312 0.57917 0.00994 0.0
O105 O 0.61282 0.65297 0.07054 0.0
O106 O 0.6682 0.62311 0.17991 0.0
O107 O 0.70106 0.6838 0.06881 0.0
O108 O 0.63758 0.61071 0.87741 0.0
O109 O 0.56727 0.54727 0.91454 0.0
O110 O 0.59442 0.52104 0.05986 0.0
O111 O 0.51617 0.44903 0.97745 0.0
H112 H 0.33829 0.36863 0.80208 0.0
H113 H 0.29315 0.38016 0.77769 0.0
H114 H 0.39266 0.527 0.01456 0.0
H115 H 0.43682 0.51423 0.04012 0.0
H116 H 0.77409 0.70552 0.28735 0.0
H117 H 0.82479 0.70132 0.26554 0.0
H118 H 0.76698 0.63232 0.9409 0.0
H119 H 0.71667 0.63688 0.96322 0.0
H120 H 1.0066 0.47665 0.66257 0.0
H121 H 0.13205 0.66004 0.70229 0.0
H122 H 0.13711 0.65982 0.514 0.0
H123 H 0.10599 0.60773 0.33475 0.0
H124 H 0.98051 0.42433 0.29524 0.0
H125 H 0.97547 0.4246 0.48346 0.0
C126 C 1.03505 0.51649 0.62998 0.0
C127 C 0.06876 0.56823 0.69738 0.0
C128 C 1.03782 0.51624 0.52028 0.0
C129 C 0.10539 0.61943 0.65299 0.0
C130 C 0.1084 0.61946 0.54474 0.0
C131 C 0.07754 0.5679 0.36738 0.0
C132 C 1.04382 0.51614 0.30002 0.0
C133 C 0.07478 0.56817 0.47711 0.0
C134 C 1.00719 0.46496 0.34448 0.0
C135 C 1.00419 0.46495 0.4527 0.0
H136 H 0.55396 0.0994 0.38159 0.0
H137 H 0.56943 1.0096 0.24685 0.0
H138 H 0.56501 0.9834 0.41861 0.0
H139 H 0.55663 0.98589 0.60792 0.0
H140 H 0.54103 0.07553 0.7427 0.0
H141 H 0.54551 0.10182 0.57099 0.0
C142 C 0.55652 0.07423 0.38987 0.0
C143 C 0.56201 0.05645 0.30103 0.0
C144 C 0.55379 0.05919 0.48922 0.0
C145 C 0.5651 1.02373 0.31343 0.0
C146 C 0.56256 1.00874 0.41185 0.0
C147 C 0.55406 1.01105 0.59967 0.0
C148 C 0.54855 1.0288 0.68852 0.0
C149 C 0.55678 1.02608 0.50034 0.0
C150 C 0.54542 0.06148 0.67613 0.0
C151 C 0.54798 0.0765 0.57772 0.0
H152 H 0.64265 0.63351 0.68233 0.0
H153 H 0.50373 0.4654 0.7412 0.0
H154 H 0.47638 0.43791 0.55367 0.0
H155 H 0.49236 0.4616 0.3722 0.0
H156 H 0.62906 0.63214 0.31561 0.0
H157 H 0.65705 0.65871 0.50221 0.0
C158 C 0.60635 0.59086 0.65402 0.0
C159 C 0.57522 0.55145 0.7257 0.0
C160 C 0.59064 0.57579 0.54621 0.0
C161 C 0.5282 0.49657 0.68792 0.0
C162 C 0.51268 0.48083 0.58056 0.0
C163 C 0.52833 0.50459 0.40065 0.0
C164 C 0.55892 0.54459 0.32935 0.0
C165 C 0.54361 0.52003 0.50884 0.0
C166 C 0.60507 0.6003 0.36812 0.0
C167 C 0.62101 0.61556 0.47507 0.0
H168 H 0.20823 0.45916 0.76534 0.0
H169 H 0.2218 0.49419 0.10048 0.0
H170 H 0.27545 0.4947 0.12192 0.0
H171 H 0.31465 0.47951 0.04648 0.0
H172 H 0.30036 0.44337 0.71149 0.0
H173 H 0.25017 0.44786 0.68941 0.0
C174 C 0.22281 0.46676 0.84313 0.0
C175 C 0.21075 0.47643 0.9311 0.0
C176 C 0.25319 0.46624 0.8551 0.0
C177 C 0.23078 0.48724 0.03119 0.0
C178 C 0.26123 0.48711 0.04365 0.0
C179 C 0.30115 0.4734 0.9685 0.0
C180 C 0.31106 0.4607 0.88086 0.0
C181 C 0.27224 0.47602 0.95628 0.0
C182 C 0.29267 0.45224 0.7805 0.0
C183 C 0.26414 0.45508 0.76771 0.0
H184 H 0.72283 0.25843 0.99752 0.0
H185 H 0.72043 0.14485 0.98954 0.0
H186 H 0.80735 0.22408 0.9766 0.0
H187 H 0.88565 0.32675 0.96849 0.0
H188 H 0.88935 0.44155 0.98652 0.0
H189 H 0.80174 0.36181 0.9939 0.0
C190 C 0.74119 0.25084 0.99308 0.0
C191 C 0.7141 0.1948 0.9947 0.0
C192 C 0.79213 0.29737 0.98691 0.0
C193 C 0.73948 0.18686 0.98921 0.0
C194 C 0.78959 0.23245 0.98135 0.0
C195 C 0.86733 0.33439 0.97316 0.0
C196 C 0.89476 0.39073 0.97583 0.0
C197 C 0.8165 0.28803 0.98002 0.0
C198 C 0.8698 0.39914 0.98386 0.0
C199 C 0.81937 0.35329 0.98827 0.0
H200 H 0.62204 0.83979 0.0779 0.0
H201 H 0.47243 0.7055 0.95165 0.0
H202 H 0.46571 0.63642 0.94855 0.0
H203 H 0.50242 0.61384 0.98019 0.0
H204 H 0.65233 0.7487 0.10522 0.0
H205 H 0.65875 0.81738 0.10844 0.0
C206 C 0.58805 0.79557 0.04847 0.0
C207 C 0.54785 0.77832 0.01498 0.0
C208 C 0.58441 0.75585 0.04647 0.0
C209 C 0.50392 0.72032 0.97916 0.0
C210 C 0.50008 0.68065 0.97679 0.0
C211 C 0.53651 0.65817 0.00852 0.0
C212 C 0.57677 0.6756 0.04266 0.0
C213 C 0.54007 0.69786 0.01037 0.0
C214 C 0.62061 0.73358 0.07844 0.0
C215 C 0.62439 0.77313 0.08035 0.0
H216 H 0.93063 0.65965 0.9871 0.0
H217 H 0.88945 0.59146 0.28122 0.0
H218 H 0.84106 0.59884 0.30017 0.0
H219 H 0.81119 0.6257 0.23424 0.0
H220 H 0.85261 0.69425 0.94049 0.0
H221 H 0.8995 0.68484 0.91954 0.0
C222 C 0.91057 0.64573 0.0547 0.0
C223 C 0.91375 0.62513 0.13272 0.0
C224 C 0.88294 0.65026 0.06526 0.0
C225 C 0.88808 0.60807 0.22061 0.0
C226 C 0.8603 0.61213 0.23137 0.0
C227 C 0.83083 0.63904 0.16608 0.0
C228 C 0.82856 0.6609 0.0893 0.0
C229 C 0.8578 0.63363 0.15465 0.0
C230 C 0.85345 0.67693 1.00041 0.0
C231 C 0.88042 0.67175 0.98855 0.0
H232 H 0.22541 0.75678 0.02508 0.0
H233 H 0.22365 0.64379 0.00992 0.0
H234 H 0.31119 0.72418 1.00114 0.0
H235 H 0.38937 0.82754 0.99559 0.0
H236 H 0.38984 0.93929 1.00097 0.0
H237 H 0.30296 0.85939 0.01506 0.0
C238 C 0.24414 0.74967 0.02071 0.0
C239 C 0.21732 0.69369 0.01929 0.0
C240 C 0.29486 0.79636 0.01307 0.0
C241 C 0.24275 0.68592 0.01164 0.0
C242 C 0.29313 0.73214 0.00642 0.0
C243 C 0.37059 0.83458 0.99968 0.0
C244 C 0.39706 0.89026 0.99702 0.0
C245 C 0.31975 0.78771 0.00658 0.0
C246 C 0.37121 0.89755 1.00211 0.0
C247 C 0.32116 0.85159 0.01062 0.0
H248 H 0.49913 0.36768 0.88864 0.0
H249 H 0.60821 0.47934 0.1529 0.0
H250 H 0.61171 0.4201 0.15718 0.0
H251 H 0.5863 0.33819 0.08321 0.0
H252 H 0.47964 0.22778 0.81518 0.0
H253 H 0.47301 0.28445 0.81497 0.0
C254 C 0.52334 0.37873 0.94758 0.0
C255 C 0.55335 0.42819 0.02017 0.0
C256 C 0.52597 0.34472 0.94871 0.0
C257 C 0.58485 0.44193 0.09538 0.0
C258 C 0.58691 0.40793 0.09817 0.0
C259 C 0.56126 0.32617 0.02534 0.0
C260 C 0.53365 0.27867 0.94926 0.0
C261 C 0.558 0.35947 0.0248 0.0
C262 C 0.50184 0.26441 0.87409 0.0
C263 C 0.49784 0.29674 0.87413 0.0
loop_
_geom_bond_atom_site_label_1
_geom_bond_atom_site_label_2
_geom_bond_distance
_geom_bond_site_symmetry_2
_ccdc_geom_bond_type
Nd0 C2 2.836 1_556 S
Nd0 O20 2.500 1_556 S
Nd0 O21 2.492 . S
Nd0 O22 2.487 . S
Nd0 O23 2.682 1_655 S
Nd0 O24 2.410 . S
Nd0 O29 2.414 1_556 S
Nd0 O31 2.424 1_656 S
Nd1 C11 2.836 1_554 S
Nd1 O23 2.414 1_554 S
Nd1 O25 2.424 1_454 S
Nd1 O26 2.500 1_554 S
Nd1 O27 2.492 . S
Nd1 O28 2.487 . S
Nd1 O29 2.682 1_455 S
Nd1 O30 2.410 . S
C2 Nd0 2.836 1_554 S
C2 C3 1.498 . S
C2 O20 1.258 . S
C2 O21 1.239 1_554 S
C3 C2 1.498 . S
C3 C4 1.366 . S
C3 C8 1.407 1_554 S
C4 C3 1.366 . S
C4 C5 1.392 . S
C4 H32 0.930 . S
C5 C4 1.392 . S
C5 C6 1.398 . S
C5 H33 0.929 . S
C6 C5 1.398 . S
C6 C7 1.352 1_554 S
C7 C6 1.352 1_556 S
C7 C8 1.384 . S
C7 H34 0.930 . S
C8 C3 1.407 1_556 S
C8 C7 1.384 . S
C8 H35 0.929 . S
C9 O22 1.241 1_455 S
C9 O23 1.273 . S
C10 O24 1.251 . S
C10 O25 1.268 . S
C11 Nd1 2.836 1_556 S
C11 C12 1.498 . S
C11 O26 1.258 . S
C11 O27 1.239 1_556 S
C12 C11 1.498 . S
C12 C13 1.366 . S
C12 C17 1.407 1_556 S
C13 C12 1.366 . S
C13 C14 1.392 . S
C13 H36 0.930 . S
C14 C13 1.392 . S
C14 C15 1.398 . S
C14 H37 0.929 . S
C15 C14 1.398 . S
C15 C16 1.352 1_556 S
C16 C15 1.352 1_554 S
C16 C17 1.384 . S
C16 H38 0.930 . S
C17 C12 1.407 1_554 S
C17 C16 1.384 . S
C17 H39 0.929 . S
C18 O28 1.241 . S
C18 O29 1.273 1_455 S
C19 O30 1.251 . S
C19 O31 1.268 . S
O20 Nd0 2.500 1_554 S
O20 C2 1.258 . S
O21 Nd0 2.492 . S
O21 C2 1.239 1_556 S
O22 Nd0 2.487 . S
O22 C9 1.241 1_655 S
O23 Nd0 2.682 1_455 S
O23 Nd1 2.414 1_556 S
O23 C9 1.273 . S
O24 Nd0 2.410 . S
O24 C10 1.251 . S
O25 Nd1 2.424 1_656 S
O25 C10 1.268 . S
O26 Nd1 2.500 1_556 S
O26 C11 1.258 . S
O27 Nd1 2.492 . S
O27 C11 1.239 1_554 S
O28 Nd1 2.487 . S
O28 C18 1.241 . S
O29 Nd0 2.414 1_554 S
O29 Nd1 2.682 1_655 S
O29 C18 1.273 1_655 S
O30 Nd1 2.410 . S
O30 C19 1.251 . S
O31 Nd0 2.424 1_454 S
O31 C19 1.268 . S
H32 C4 0.930 . S
H33 C5 0.929 . S
H34 C7 0.930 . S
H35 C8 0.929 . S
H36 C13 0.930 . S
H37 C14 0.929 . S
H38 C16 0.930 . S
H39 C17 0.929 . S
Nd40 C42 2.836 . S
Nd40 O60 2.500 1_554 S
Nd40 O61 2.492 . S
Nd40 O62 2.487 . S
Nd40 O63 2.682 1_545 S
Nd40 O64 2.410 . S
Nd40 O69 2.414 1_554 S
Nd40 O71 2.424 1_545 S
Nd41 C51 2.836 . S
Nd41 O63 2.414 1_556 S
Nd41 O65 2.424 1_565 S
Nd41 O66 2.500 1_556 S
Nd41 O67 2.492 . S
Nd41 O68 2.487 . S
Nd41 O69 2.682 1_565 S
Nd41 O70 2.410 . S
C42 Nd40 2.836 . S
C42 C43 1.498 . S
C42 O60 1.258 1_554 S
C42 O61 1.239 . S
C43 C42 1.498 . S
C43 C44 1.366 1_554 S
C43 C48 1.407 . S
C44 C43 1.366 1_556 S
C44 C45 1.392 . S
C44 H72 0.930 . S
C45 C44 1.392 . S
C45 C46 1.398 1_556 S
C45 H73 0.929 . S
C46 C45 1.398 1_554 S
C46 C47 1.352 . S
C47 C46 1.352 . S
C47 C48 1.384 . S
C47 H74 0.930 . S
C48 C43 1.407 . S
C48 C47 1.384 . S
C48 H75 0.929 . S
C49 O62 1.241 . S
C49 O63 1.273 1_545 S
C50 O64 1.251 . S
C50 O65 1.268 1_554 S
C51 Nd41 2.836 . S
C51 C52 1.498 . S
C51 O66 1.258 1_556 S
C51 O67 1.239 . S
C52 C51 1.498 . S
C52 C53 1.366 1_556 S
C52 C57 1.407 . S
C53 C52 1.366 1_554 S
C53 C54 1.392 . S
C53 H76 0.930 . S
C54 C53 1.392 . S
C54 C55 1.398 1_554 S
C54 H77 0.929 . S
C55 C54 1.398 1_556 S
C55 C56 1.352 . S
C56 C55 1.352 . S
C56 C57 1.384 . S
C56 H78 0.930 . S
C57 C52 1.407 . S
C57 C56 1.384 . S
C57 H79 0.929 . S
C58 O68 1.241 . S
C58 O69 1.273 1_565 S
C59 O70 1.251 . S
C59 O71 1.268 1_556 S
O60 Nd40 2.500 1_556 S
O60 C42 1.258 1_556 S
O61 Nd40 2.492 . S
O61 C42 1.239 . S
O62 Nd40 2.487 . S
O62 C49 1.241 . S
O63 Nd40 2.682 1_565 S
O63 Nd41 2.414 1_554 S
O63 C49 1.273 1_565 S
O64 Nd40 2.410 . S
O64 C50 1.251 . S
O65 Nd41 2.424 1_545 S
O65 C50 1.268 1_556 S
O66 Nd41 2.500 1_554 S
O66 C51 1.258 1_554 S
O67 Nd41 2.492 . S
O67 C51 1.239 . S
O68 Nd41 2.487 . S
O68 C58 1.241 . S
O69 Nd40 2.414 1_556 S
O69 Nd41 2.682 1_545 S
O69 C58 1.273 1_545 S
O70 Nd41 2.410 . S
O70 C59 1.251 . S
O71 Nd40 2.424 1_565 S
O71 C59 1.268 1_554 S
H72 C44 0.930 . S
H73 C45 0.929 . S
H74 C47 0.930 . S
H75 C48 0.929 . S
H76 C53 0.930 . S
H77 C54 0.929 . S
H78 C56 0.930 . S
H79 C57 0.929 . S
Nd80 C82 2.836 1_554 S
Nd80 O100 2.500 1_554 S
Nd80 O101 2.492 . S
Nd80 O102 2.487 . S
Nd80 O103 2.682 . S
Nd80 O104 2.410 . S
Nd80 O109 2.414 1_554 S
Nd80 O111 2.424 1_554 S
Nd81 C91 2.836 1_556 S
Nd81 O103 2.414 1_556 S
Nd81 O105 2.424 1_556 S
Nd81 O106 2.500 1_556 S
Nd81 O107 2.492 . S
Nd81 O108 2.487 . S
Nd81 O109 2.682 . S
Nd81 O110 2.410 . S
C82 Nd80 2.836 1_556 S
C82 C83 1.498 . S
C82 O100 1.258 . S
C82 O101 1.239 1_556 S
C83 C82 1.498 . S
C83 C84 1.366 . S
C83 C88 1.407 1_556 S
C84 C83 1.366 . S
C84 C85 1.392 . S
C84 H112 0.930 . S
C85 C84 1.392 . S
C85 C86 1.398 . S
C85 H113 0.929 . S
C86 C85 1.398 . S
C86 C87 1.352 1_556 S
C87 C86 1.352 1_554 S
C87 C88 1.384 . S
C87 H114 0.930 . S
C88 C83 1.407 1_554 S
C88 C87 1.384 . S
C88 H115 0.929 . S
C89 O102 1.241 . S
C89 O103 1.273 . S
C90 O104 1.251 . S
C90 O105 1.268 . S
C91 Nd81 2.836 1_554 S
C91 C92 1.498 . S
C91 O106 1.258 . S
C91 O107 1.239 1_554 S
C92 C91 1.498 . S
C92 C93 1.366 . S
C92 C97 1.407 1_554 S
C93 C92 1.366 . S
C93 C94 1.392 . S
C93 H116 0.930 . S
C94 C93 1.392 . S
C94 C95 1.398 . S
C94 H117 0.929 . S
C95 C94 1.398 . S
C95 C96 1.352 1_554 S
C96 C95 1.352 1_556 S
C96 C97 1.384 . S
C96 H118 0.930 . S
C97 C92 1.407 1_556 S
C97 C96 1.384 . S
C97 H119 0.929 . S
C98 O108 1.241 . S
C98 O109 1.273 . S
C99 O110 1.251 . S
C99 O111 1.268 . S
O100 Nd80 2.500 1_556 S
O100 C82 1.258 . S
O101 Nd80 2.492 . S
O101 C82 1.239 1_554 S
O102 Nd80 2.487 . S
O102 C89 1.241 . S
O103 Nd80 2.682 . S
O103 Nd81 2.414 1_554 S
O103 C89 1.273 . S
O104 Nd80 2.410 . S
O104 C90 1.251 . S
O105 Nd81 2.424 1_554 S
O105 C90 1.268 . S
O106 Nd81 2.500 1_554 S
O106 C91 1.258 . S
O107 Nd81 2.492 . S
O107 C91 1.239 1_556 S
O108 Nd81 2.487 . S
O108 C98 1.241 . S
O109 Nd80 2.414 1_556 S
O109 Nd81 2.682 . S
O109 C98 1.273 . S
O110 Nd81 2.410 . S
O110 C99 1.251 . S
O111 Nd80 2.424 1_556 S
O111 C99 1.268 . S
H112 C84 0.930 . S
H113 C85 0.929 . S
H114 C87 0.930 . S
H115 C88 0.929 . S
H116 C93 0.930 . S
H117 C94 0.929 . S
H118 C96 0.930 . S
H119 C97 0.929 . S
H120 C126 0.930 . S
H121 C129 0.930 . S
H122 C130 0.930 . S
H123 C131 0.930 . S
H124 C134 0.930 . S
H125 C135 0.930 . S
C126 H120 0.930 . S
C126 C127 1.355 1_655 S
C126 C128 1.415 . S
C127 C126 1.355 1_455 S
C127 C129 1.419 . S
C128 C126 1.415 . S
C128 C133 1.425 1_655 S
C128 C135 1.409 . S
C129 H121 0.930 . S
C129 C127 1.419 . S
C129 C130 1.362 . S
C130 H122 0.930 . S
C130 C129 1.362 . S
C130 C133 1.409 . S
C131 H123 0.930 . S
C131 C132 1.355 1_455 S
C131 C133 1.415 . S
C132 C131 1.355 1_655 S
C132 C134 1.419 . S
C133 C128 1.425 1_455 S
C133 C130 1.409 . S
C133 C131 1.415 . S
C134 H124 0.930 . S
C134 C132 1.419 . S
C134 C135 1.362 . S
C135 H125 0.930 . S
C135 C128 1.409 . S
C135 C134 1.362 . S
H136 C142 0.930 . S
H137 C145 0.930 . S
H138 C146 0.930 . S
H139 C147 0.930 . S
H140 C150 0.930 . S
H141 C151 0.930 . S
C142 H136 0.930 . S
C142 C143 1.355 1_545 S
C142 C144 1.415 . S
C143 C142 1.355 1_565 S
C143 C145 1.419 . S
C144 C142 1.415 . S
C144 C149 1.425 1_545 S
C144 C151 1.409 . S
C145 H137 0.930 . S
C145 C143 1.419 . S
C145 C146 1.362 . S
C146 H138 0.930 . S
C146 C145 1.362 . S
C146 C149 1.409 . S
C147 H139 0.930 . S
C147 C148 1.355 1_565 S
C147 C149 1.415 . S
C148 C147 1.355 1_545 S
C148 C150 1.419 . S
C149 C144 1.425 1_565 S
C149 C146 1.409 . S
C149 C147 1.415 . S
C150 H140 0.930 . S
C150 C148 1.419 . S
C150 C151 1.362 . S
C151 H141 0.930 . S
C151 C144 1.409 . S
C151 C150 1.362 . S
H152 C158 0.930 . S
H153 C161 0.930 . S
H154 C162 0.930 . S
H155 C163 0.930 . S
H156 C166 0.930 . S
H157 C167 0.930 . S
C158 H152 0.930 . S
C158 C159 1.355 . S
C158 C160 1.415 . S
C159 C158 1.355 . S
C159 C161 1.419 . S
C160 C158 1.415 . S
C160 C165 1.425 . S
C160 C167 1.409 . S
C161 H153 0.930 . S
C161 C159 1.419 . S
C161 C162 1.362 . S
C162 H154 0.930 . S
C162 C161 1.362 . S
C162 C165 1.409 . S
C163 H155 0.930 . S
C163 C164 1.355 . S
C163 C165 1.415 . S
C164 C163 1.355 . S
C164 C166 1.419 . S
C165 C160 1.425 . S
C165 C162 1.409 . S
C165 C163 1.415 . S
C166 H156 0.930 . S
C166 C164 1.419 . S
C166 C167 1.362 . S
C167 H157 0.930 . S
C167 C160 1.409 . S
C167 C166 1.362 . S
H168 C174 0.930 . S
H169 C177 0.930 . S
H170 C178 0.930 . S
H171 C179 0.930 1_554 S
H172 C182 0.930 . S
H173 C183 0.930 . S
C174 H168 0.930 . S
C174 C175 1.355 . S
C174 C176 1.415 . S
C175 C174 1.355 . S
C175 C177 1.419 1_556 S
C176 C174 1.415 . S
C176 C181 1.425 . S
C176 C183 1.409 . S
C177 H169 0.930 . S
C177 C175 1.419 1_554 S
C177 C178 1.362 . S
C178 H170 0.930 . S
C178 C177 1.362 . S
C178 C181 1.409 1_554 S
C179 H171 0.930 1_556 S
C179 C180 1.355 . S
C179 C181 1.415 . S
C180 C179 1.355 . S
C180 C182 1.419 . S
C181 C176 1.425 . S
C181 C178 1.409 1_556 S
C181 C179 1.415 . S
C182 H172 0.930 . S
C182 C180 1.419 . S
C182 C183 1.362 . S
C183 H173 0.930 . S
C183 C176 1.409 . S
C183 C182 1.362 . S
H184 C190 0.930 . S
H185 C193 0.930 . S
H186 C194 0.930 . S
H187 C195 0.930 . S
H188 C198 0.930 . S
H189 C199 0.930 . S
C190 H184 0.930 . S
C190 C191 1.355 1_554 S
C190 C192 1.415 . S
C191 C190 1.355 1_556 S
C191 C193 1.419 . S
C192 C190 1.415 . S
C192 C197 1.425 1_554 S
C192 C199 1.409 . S
C193 H185 0.930 . S
C193 C191 1.419 . S
C193 C194 1.362 . S
C194 H186 0.930 . S
C194 C193 1.362 . S
C194 C197 1.409 . S
C195 H187 0.930 . S
C195 C196 1.355 1_556 S
C195 C197 1.415 . S
C196 C195 1.355 1_554 S
C196 C198 1.419 . S
C197 C192 1.425 1_556 S
C197 C194 1.409 . S
C197 C195 1.415 . S
C198 H188 0.930 . S
C198 C196 1.419 . S
C198 C199 1.362 . S
C199 H189 0.930 . S
C199 C192 1.409 . S
C199 C198 1.362 . S
H200 C206 0.930 . S
H201 C209 0.930 . S
H202 C210 0.930 . S
H203 C211 0.930 . S
H204 C214 0.930 . S
H205 C215 0.930 . S
C206 H200 0.930 . S
C206 C207 1.360 . S
C206 C208 1.415 . S
C207 C206 1.360 . S
C207 C209 1.411 1_556 S
C208 C206 1.415 . S
C208 C213 1.425 1_556 S
C208 C215 1.409 . S
C209 H201 0.930 . S
C209 C207 1.411 1_554 S
C209 C210 1.362 . S
C210 H202 0.930 . S
C210 C209 1.362 . S
C210 C213 1.409 . S
C211 H203 0.930 . S
C211 C212 1.355 1_554 S
C211 C213 1.415 . S
C212 C211 1.355 1_556 S
C212 C214 1.419 . S
C213 C208 1.425 1_554 S
C213 C210 1.409 . S
C213 C211 1.415 . S
C214 H204 0.930 . S
C214 C212 1.419 . S
C214 C215 1.362 . S
C215 H205 0.930 . S
C215 C208 1.409 . S
C215 C214 1.362 . S
H216 C222 0.930 . S
H217 C225 0.930 . S
H218 C226 0.930 . S
H219 C227 0.930 . S
H220 C230 0.930 . S
H221 C231 0.930 . S
C222 H216 0.930 . S
C222 C223 1.355 . S
C222 C224 1.415 . S
C223 C222 1.355 . S
C223 C225 1.419 . S
C224 C222 1.415 . S
C224 C229 1.425 . S
C224 C231 1.409 . S
C225 H217 0.930 . S
C225 C223 1.419 . S
C225 C226 1.362 . S
C226 H218 0.930 . S
C226 C225 1.362 . S
C226 C229 1.409 . S
C227 H219 0.930 . S
C227 C228 1.355 . S
C227 C229 1.415 . S
C228 C227 1.355 . S
C228 C230 1.419 . S
C229 C224 1.425 . S
C229 C226 1.409 . S
C229 C227 1.415 . S
C230 H220 0.930 . S
C230 C228 1.419 . S
C230 C231 1.362 . S
C231 H221 0.930 . S
C231 C224 1.409 . S
C231 C230 1.362 . S
H232 C238 0.930 . S
H233 C241 0.930 . S
H234 C242 0.930 . S
H235 C243 0.930 . S
H236 C246 0.930 . S
H237 C247 0.930 . S
C238 H232 0.930 . S
C238 C239 1.355 1_554 S
C238 C240 1.415 . S
C239 C238 1.355 1_556 S
C239 C241 1.419 . S
C240 C238 1.415 . S
C240 C245 1.425 1_554 S
C240 C247 1.409 . S
C241 H233 0.930 . S
C241 C239 1.419 . S
C241 C242 1.362 . S
C242 H234 0.930 . S
C242 C241 1.362 . S
C242 C245 1.409 . S
C243 H235 0.930 . S
C243 C244 1.355 1_556 S
C243 C245 1.415 . S
C244 C243 1.355 1_554 S
C244 C246 1.419 . S
C245 C240 1.425 1_556 S
C245 C242 1.409 . S
C245 C243 1.415 . S
C246 H236 0.930 . S
C246 C244 1.419 . S
C246 C247 1.362 . S
C247 H237 0.930 . S
C247 C240 1.409 . S
C247 C246 1.362 . S
H248 C254 0.930 . S
H249 C257 0.930 . S
H250 C258 0.930 . S
H251 C259 0.930 . S
H252 C262 0.930 . S
H253 C263 0.930 . S
C254 H248 0.930 . S
C254 C255 1.355 1_556 S
C254 C256 1.415 . S
C255 C254 1.355 1_554 S
C255 C257 1.419 . S
C256 C254 1.415 . S
C256 C261 1.425 1_556 S
C256 C263 1.409 . S
C257 H249 0.930 . S
C257 C255 1.419 . S
C257 C258 1.362 . S
C258 H250 0.930 . S
C258 C257 1.362 . S
C258 C261 1.409 . S
C259 H251 0.930 . S
C259 C260 1.355 1_554 S
C259 C261 1.415 . S
C260 C259 1.355 1_556 S
C260 C262 1.419 . S
C261 C256 1.425 1_554 S
C261 C258 1.409 . S
C261 C259 1.415 . S
C262 H252 0.930 . S
C262 C260 1.419 . S
C262 C263 1.362 . S
C263 H253 0.930 . S
C263 C256 1.409 . S
C263 C262 1.362 . S
C127 C9 1.434 . S
C132 C18 1.434 1_655 S
C143 C49 1.434 1_565 S
C148 C58 1.434 1_545 S
C159 C98 1.428 . S
C164 C89 1.428 . S
C175 C15 0.891 . S
C180 C86 0.910 . S
C191 C50 2.568 1_556 S
C196 C10 2.635 1_554 S
C207 C55 2.092 . S
C212 C90 2.168 1_556 S
C223 C6 0.968 . S
C228 C95 0.955 . S
C239 C19 2.636 1_556 S
C244 C59 2.572 1_554 S
C255 C99 2.158 1_554 S
C260 C46 2.066 1_556 S
