# Generated by pormake.
# Topology tzs, (4)-cn, num edge types: 1
# Building blocks:
#     Node 0, Type 0, BuildingBlock: QUQFOY_clean_sbu_1, # of connection points: 4
#     Node 1, Type 0, BuildingBlock: QUQFOY_clean_sbu_1, # of connection points: 4
#     Node 2, Type 0, BuildingBlock: QUQFOY_clean_sbu_1, # of connection points: 4
#     Node 3, Type 0, BuildingBlock: QUQFOY_clean_sbu_1, # of connection points: 4
#     Node 4, Type 0, BuildingBlock: QUQFOY_clean_sbu_1, # of connection points: 4
#     Node 5, Type 0, BuildingBlock: QUQFOY_clean_sbu_1, # of connection points: 4
#     Node 6, Type 0, BuildingBlock: QUQFOY_clean_sbu_1, # of connection points: 4
#     Node 7, Type 0, BuildingBlock: QUQFOY_clean_sbu_1, # of connection points: 4
#     Node 8, Type 0, BuildingBlock: QUQFOY_clean_sbu_1, # of connection points: 4
#     Node 9, Type 0, BuildingBlock: QUQFOY_clean_sbu_1, # of connection points: 4
#     Node 10, Type 0, BuildingBlock: QUQFOY_clean_sbu_1, # of connection points: 4
#     Node 11, Type 0, BuildingBlock: QUQFOY_clean_sbu_1, # of connection points: 4
#     Node 12, Type 0, BuildingBlock: QUQFOY_clean_sbu_1, # of connection points: 4
#     Node 13, Type 0, BuildingBlock: QUQFOY_clean_sbu_1, # of connection points: 4
#     Node 14, Type 0, BuildingBlock: QUQFOY_clean_sbu_1, # of connection points: 4
#     Node 15, Type 0, BuildingBlock: QUQFOY_clean_sbu_1, # of connection points: 4
#     Edge 16, Type (0, 0), BuildingBlock: TEMPAE_clean_linker_10, # of connection points: 2
#     Edge 17, Type (0, 0), BuildingBlock: TEMPAE_clean_linker_10, # of connection points: 2
#     Edge 18, Type (0, 0), BuildingBlock: TEMPAE_clean_linker_10, # of connection points: 2
#     Edge 19, Type (0, 0), BuildingBlock: TEMPAE_clean_linker_10, # of connection points: 2
#     Edge 20, Type (0, 0), BuildingBlock: TEMPAE_clean_linker_10, # of connection points: 2
#     Edge 21, Type (0, 0), BuildingBlock: TEMPAE_clean_linker_10, # of connection points: 2
#     Edge 22, Type (0, 0), BuildingBlock: TEMPAE_clean_linker_10, # of connection points: 2
#     Edge 23, Type (0, 0), BuildingBlock: TEMPAE_clean_linker_10, # of connection points: 2
#     Edge 24, Type (0, 0), BuildingBlock: TEMPAE_clean_linker_10, # of connection points: 2
#     Edge 25, Type (0, 0), BuildingBlock: TEMPAE_clean_linker_10, # of connection points: 2
#     Edge 26, Type (0, 0), BuildingBlock: TEMPAE_clean_linker_10, # of connection points: 2
#     Edge 27, Type (0, 0), BuildingBlock: TEMPAE_clean_linker_10, # of connection points: 2
#     Edge 28, Type (0, 0), BuildingBlock: TEMPAE_clean_linker_10, # of connection points: 2
#     Edge 29, Type (0, 0), BuildingBlock: TEMPAE_clean_linker_10, # of connection points: 2
#     Edge 30, Type (0, 0), BuildingBlock: TEMPAE_clean_linker_10, # of connection points: 2
#     Edge 31, Type (0, 0), BuildingBlock: TEMPAE_clean_linker_10, # of connection points: 2
#     Edge 32, Type (0, 0), BuildingBlock: TEMPAE_clean_linker_10, # of connection points: 2
#     Edge 33, Type (0, 0), BuildingBlock: TEMPAE_clean_linker_10, # of connection points: 2
#     Edge 34, Type (0, 0), BuildingBlock: TEMPAE_clean_linker_10, # of connection points: 2
#     Edge 35, Type (0, 0), BuildingBlock: TEMPAE_clean_linker_10, # of connection points: 2
#     Edge 36, Type (0, 0), BuildingBlock: TEMPAE_clean_linker_10, # of connection points: 2
#     Edge 37, Type (0, 0), BuildingBlock: TEMPAE_clean_linker_10, # of connection points: 2
#     Edge 38, Type (0, 0), BuildingBlock: TEMPAE_clean_linker_10, # of connection points: 2
#     Edge 39, Type (0, 0), BuildingBlock: TEMPAE_clean_linker_10, # of connection points: 2
#     Edge 40, Type (0, 0), BuildingBlock: TEMPAE_clean_linker_10, # of connection points: 2
#     Edge 41, Type (0, 0), BuildingBlock: TEMPAE_clean_linker_10, # of connection points: 2
#     Edge 42, Type (0, 0), BuildingBlock: TEMPAE_clean_linker_10, # of connection points: 2
#     Edge 43, Type (0, 0), BuildingBlock: TEMPAE_clean_linker_10, # of connection points: 2
#     Edge 44, Type (0, 0), BuildingBlock: TEMPAE_clean_linker_10, # of connection points: 2
#     Edge 45, Type (0, 0), BuildingBlock: TEMPAE_clean_linker_10, # of connection points: 2
#     Edge 46, Type (0, 0), BuildingBlock: TEMPAE_clean_linker_10, # of connection points: 2
#     Edge 47, Type (0, 0), BuildingBlock: TEMPAE_clean_linker_10, # of connection points: 2
# Relax obj value: 0.147
# Max RMSD: 0.160
# Mean RMSD: 0.160
data_MOF--net-tzs--node1-QUQFOY_clean_sbu_1--edge1-TEMPAE_clean_linker_10
_symmetry_space_group_name_H-M    P1
_symmetry_Int_Tables_number       1
_symmetry_cell_setting            triclinic
loop_
_symmetry_equiv_pos_as_xyz
'x, y, z'
_cell_length_a     49.227561
_cell_length_b     49.188845
_cell_length_c     45.593877
_cell_angle_alpha  89.979178
_cell_angle_beta   90.019065
_cell_angle_gamma 90.021782
loop_
_atom_site_label
_atom_site_type_symbol
_atom_site_fract_x
_atom_site_fract_y
_atom_site_fract_z
_atom_type_partial_charge
O0 O 0.15906 0.38071 0.22002 0.0
Cd1 Cd 0.14142 0.34463 0.20776 0.0
Cd2 Cd 0.12387 0.37485 0.16122 0.0
O3 O 0.14644 0.40462 0.18149 0.0
O4 O 0.15449 0.31941 0.2385 0.0
O5 O 0.16513 0.31488 0.1916 0.0
C6 C 0.16714 0.30634 0.21829 0.0
C7 C 0.13079 0.36747 0.1113 0.0
C8 C 0.15878 0.40293 0.20589 0.0
C9 C 0.08096 0.35236 0.20034 0.0
O10 O 0.08576 0.36762 0.17845 0.0
O11 O 0.10031 0.34067 0.21372 0.0
O12 O 0.11836 0.38879 0.12076 0.0
O13 O 0.13934 0.34997 0.13034 0.0
O14 O 0.60136 0.15966 0.22801 0.0
Cd15 Cd 0.63987 0.14603 0.21999 0.0
Cd16 Cd 0.61488 0.12617 0.1702 0.0
O17 O 0.58268 0.14903 0.18558 0.0
O18 O 0.65973 0.16488 0.25183 0.0
O19 O 0.66972 0.17018 0.20483 0.0
C20 C 0.67428 0.1763 0.23192 0.0
C21 C 0.62316 0.12889 0.11976 0.0
C22 C 0.58119 0.15988 0.21076 0.0
C23 C 0.63652 0.08584 0.21482 0.0
O24 O 0.62279 0.08954 0.19146 0.0
O25 O 0.64653 0.10593 0.22852 0.0
O26 O 0.60248 0.11604 0.1301 0.0
O27 O 0.63973 0.14001 0.13817 0.0
O28 O 0.84484 0.61828 0.22245 0.0
Cd29 Cd 0.85533 0.65395 0.20199 0.0
Cd30 Cd 0.865 0.62098 0.15813 0.0
O31 O 0.83988 0.59518 0.18144 0.0
O32 O 0.84209 0.68235 0.22909 0.0
O33 O 0.82583 0.67672 0.18415 0.0
C34 C 0.82522 0.68945 0.20892 0.0
C35 C 0.85735 0.62666 0.10798 0.0
C36 C 0.8369 0.59718 0.209 0.0
C37 C 0.91279 0.64517 0.18937 0.0
O38 O 0.90453 0.62545 0.17366 0.0
O39 O 0.89585 0.6621 0.19956 0.0
O40 O 0.86777 0.60462 0.11835 0.0
O41 O 0.8511 0.64575 0.12625 0.0
O42 O 0.37918 0.82469 0.22888 0.0
Cd43 Cd 0.34367 0.83957 0.21188 0.0
Cd44 Cd 0.37588 0.8557 0.16814 0.0
O45 O 0.40283 0.82937 0.18818 0.0
O46 O 0.31561 0.82496 0.23856 0.0
O47 O 0.31811 0.81387 0.19152 0.0
C48 C 0.30636 0.81132 0.21668 0.0
C49 C 0.37029 0.85206 0.11748 0.0
C50 C 0.4008 0.82081 0.21437 0.0
C51 C 0.35248 0.89901 0.20678 0.0
O52 O 0.37044 0.8936 0.18758 0.0
O53 O 0.33757 0.88023 0.21693 0.0
O54 O 0.39205 0.86222 0.12877 0.0
O55 O 0.35133 0.84399 0.13504 0.0
O56 O 0.16742 0.59431 0.2993 0.0
Cd57 Cd 0.15062 0.63238 0.30146 0.0
Cd58 Cd 0.12232 0.60964 0.3483 0.0
O59 O 0.14225 0.57539 0.3337 0.0
O60 O 0.16826 0.65068 0.26776 0.0
O61 O 0.1734 0.66456 0.31355 0.0
C62 C 0.17846 0.66776 0.28599 0.0
C63 C 0.12588 0.61935 0.39819 0.0
C64 C 0.16026 0.57353 0.31386 0.0
C65 C 0.08863 0.63151 0.29981 0.0
O66 O 0.08797 0.62091 0.32524 0.0
O67 O 0.11119 0.637 0.28776 0.0
O68 O 0.11083 0.59978 0.38871 0.0
O69 O 0.13862 0.63408 0.37916 0.0
O70 O 0.3757 0.15542 0.2783 0.0
Cd71 Cd 0.33995 0.14151 0.29572 0.0
Cd72 Cd 0.373 0.12802 0.34084 0.0
O73 O 0.39927 0.15414 0.31938 0.0
O74 O 0.31299 0.15335 0.26614 0.0
O75 O 0.31288 0.1682 0.31195 0.0
C76 C 0.30232 0.16845 0.28603 0.0
C77 C 0.36797 0.1328 0.39156 0.0
C78 C 0.39714 0.16078 0.29256 0.0
C79 C 0.34984 0.08266 0.30466 0.0
O80 O 0.36821 0.08937 0.32293 0.0
O81 O 0.3342 0.10058 0.29401 0.0
O82 O 0.38981 0.1229 0.38022 0.0
O83 O 0.34868 0.1401 0.37401 0.0
O84 O 0.82403 0.39541 0.28553 0.0
Cd85 Cd 0.83791 0.35716 0.295 0.0
Cd86 Cd 0.85906 0.38329 0.34228 0.0
O87 O 0.83771 0.41603 0.32579 0.0
O88 O 0.8181 0.33581 0.26506 0.0
O89 O 0.81475 0.32773 0.31273 0.0
C90 C 0.80783 0.32183 0.28617 0.0
C91 C 0.85448 0.37416 0.39224 0.0
C92 C 0.82565 0.41663 0.30119 0.0
C93 C 0.89837 0.35925 0.29876 0.0
O94 O 0.89549 0.37362 0.32177 0.0
O95 O 0.87775 0.34979 0.28555 0.0
O96 O 0.86821 0.39473 0.38292 0.0
O97 O 0.84341 0.3583 0.37306 0.0
O98 O 0.60374 0.8287 0.2814 0.0
Cd99 Cd 0.6418 0.84087 0.29406 0.0
Cd100 Cd 0.61394 0.85469 0.34386 0.0
O101 O 0.58448 0.83041 0.32503 0.0
O102 O 0.66448 0.82903 0.26055 0.0
O103 O 0.66995 0.81323 0.3056 0.0
C104 C 0.67734 0.81344 0.27843 0.0
C105 C 0.62223 0.84915 0.39394 0.0
C106 C 0.58369 0.82402 0.29808 0.0
C107 C 0.63629 0.8999 0.30678 0.0
O108 O 0.61936 0.89351 0.3267 0.0
O109 O 0.64942 0.88158 0.29337 0.0
O110 O 0.60028 0.86036 0.38443 0.0
O111 O 0.63979 0.84088 0.37488 0.0
O112 O 0.87522 0.64812 0.7734 0.0
Cd113 Cd 0.83811 0.6372 0.79018 0.0
Cd114 Cd 0.86792 0.62649 0.83781 0.0
O115 O 0.89549 0.65118 0.81637 0.0
O116 O 0.8116 0.651 0.7611 0.0
O117 O 0.81387 0.6661 0.80684 0.0
C118 C 0.80284 0.6672 0.78115 0.0
C119 C 0.86213 0.63324 0.88819 0.0
C120 C 0.89546 0.65511 0.78886 0.0
C121 C 0.84492 0.57924 0.8041 0.0
O122 O 0.86307 0.58704 0.82211 0.0
O123 O 0.82989 0.59657 0.79145 0.0
O124 O 0.88386 0.62238 0.87769 0.0
O125 O 0.84335 0.64041 0.86996 0.0
O126 O 0.32338 0.89114 0.79904 0.0
Cd127 Cd 0.34132 0.85362 0.80235 0.0
Cd128 Cd 0.36786 0.8785 0.848 0.0
O129 O 0.3471 0.91211 0.83313 0.0
O130 O 0.32013 0.83426 0.7719 0.0
O131 O 0.32151 0.82085 0.8182 0.0
C132 C 0.31246 0.8175 0.79187 0.0
C133 C 0.36512 0.86917 0.89808 0.0
C134 C 0.32938 0.91266 0.81289 0.0
C135 C 0.40254 0.85683 0.79949 0.0
O136 O 0.40225 0.86798 0.82467 0.0
O137 O 0.38047 0.84983 0.78717 0.0
O138 O 0.37958 0.88901 0.88817 0.0
O139 O 0.35249 0.854 0.87937 0.0
O140 O 0.10512 0.32388 0.78464 0.0
Cd141 Cd 0.14189 0.34156 0.79406 0.0
Cd142 Cd 0.11406 0.36091 0.84228 0.0
O143 O 0.08323 0.33848 0.82376 0.0
O144 O 0.16571 0.32746 0.76255 0.0
O145 O 0.17206 0.31801 0.80954 0.0
C146 C 0.17949 0.31526 0.78255 0.0
C147 C 0.12149 0.35563 0.89249 0.0
C148 C 0.08362 0.32515 0.79991 0.0
C149 C 0.13572 0.40245 0.8007 0.0
O150 O 0.12176 0.39842 0.82373 0.0
O151 O 0.14597 0.38257 0.78686 0.0
O152 O 0.10051 0.36828 0.88254 0.0
O153 O 0.13869 0.34597 0.8738 0.0
O154 O 0.64908 0.10905 0.78622 0.0
Cd155 Cd 0.63945 0.14582 0.80485 0.0
Cd156 Cd 0.62677 0.11415 0.84998 0.0
O157 O 0.65098 0.08659 0.82797 0.0
O158 O 0.65308 0.1727 0.77607 0.0
O159 O 0.66941 0.16908 0.8212 0.0
C160 C 0.66996 0.18071 0.7958 0.0
C161 C 0.63368 0.12007 0.90022 0.0
C162 C 0.6551 0.08777 0.80052 0.0
C163 C 0.58108 0.13992 0.81672 0.0
O164 O 0.5878 0.12035 0.83348 0.0
O165 O 0.5992 0.15539 0.80617 0.0
O166 O 0.62248 0.09839 0.88992 0.0
O167 O 0.6411 0.13868 0.88188 0.0
O168 O 0.88929 0.31683 0.714 0.0
Cd169 Cd 0.85154 0.33408 0.70986 0.0
Cd170 Cd 0.8754 0.35881 0.66091 0.0
O171 O 0.90842 0.33748 0.67637 0.0
O172 O 0.83148 0.31773 0.74317 0.0
O173 O 0.81977 0.31119 0.69686 0.0
C174 C 0.8153 0.30691 0.72438 0.0
C175 C 0.86697 0.35601 0.61062 0.0
C176 C 0.90996 0.32147 0.69816 0.0
C177 C 0.85452 0.39585 0.70754 0.0
O178 O 0.86595 0.39444 0.68259 0.0
O179 O 0.84737 0.37436 0.72088 0.0
O180 O 0.88727 0.36954 0.62086 0.0
O181 O 0.85089 0.34421 0.62904 0.0
O182 O 0.65298 0.8849 0.7242 0.0
Cd183 Cd 0.64139 0.84738 0.70887 0.0
Cd184 Cd 0.62806 0.8768 0.66135 0.0
O185 O 0.65111 0.90631 0.68178 0.0
O186 O 0.65465 0.82215 0.73959 0.0
O187 O 0.66951 0.82124 0.69378 0.0
C188 C 0.67022 0.8115 0.72008 0.0
C189 C 0.63564 0.86814 0.61172 0.0
C190 C 0.65716 0.90602 0.70885 0.0
C191 C 0.58246 0.85276 0.69621 0.0
O192 O 0.589 0.87056 0.67724 0.0
O193 O 0.60071 0.83912 0.70918 0.0
O194 O 0.62377 0.89006 0.62043 0.0
O195 O 0.64349 0.85092 0.63138 0.0
O196 O 0.10187 0.66266 0.72763 0.0
Cd197 Cd 0.14011 0.64857 0.71839 0.0
Cd198 Cd 0.11388 0.63121 0.66765 0.0
O199 O 0.08253 0.65388 0.68506 0.0
O200 O 0.16082 0.66491 0.75125 0.0
O201 O 0.17042 0.67288 0.70461 0.0
C202 C 0.17555 0.67709 0.73201 0.0
C203 C 0.12064 0.63563 0.61713 0.0
C204 C 0.08142 0.66372 0.71076 0.0
C205 C 0.13596 0.58859 0.70919 0.0
O206 O 0.12164 0.59351 0.68654 0.0
O207 O 0.14634 0.60788 0.72386 0.0
O208 O 0.09983 0.62314 0.62766 0.0
O209 O 0.13817 0.64549 0.63533 0.0
O210 O 0.32485 0.10409 0.71483 0.0
Cd211 Cd 0.34264 0.14085 0.70596 0.0
Cd212 Cd 0.3676 0.11226 0.66199 0.0
O213 O 0.34545 0.08082 0.68005 0.0
O214 O 0.32602 0.16471 0.73596 0.0
O215 O 0.32029 0.17111 0.68832 0.0
C216 C 0.31561 0.17863 0.71495 0.0
C217 C 0.36383 0.11975 0.61157 0.0
C218 C 0.32928 0.08177 0.70175 0.0
C219 C 0.40409 0.13605 0.70715 0.0
O220 O 0.4032 0.12226 0.68359 0.0
O221 O 0.38241 0.14532 0.71836 0.0
O222 O 0.37736 0.09946 0.62194 0.0
O223 O 0.35257 0.13625 0.62998 0.0
C224 C 0.27737 0.21215 0.2911 0.0
C225 C 0.27951 0.18635 0.27846 0.0
C226 C 0.2579 0.23073 0.281 0.0
C227 C 0.23975 0.22285 0.25841 0.0
C228 C 0.24099 0.19627 0.24668 0.0
C229 C 0.26119 0.17845 0.25655 0.0
C230 C 0.25748 0.25912 0.2936 0.0
C231 C 0.22138 0.18687 0.2233 0.0
C232 C 0.17716 0.26677 0.25017 0.0
C233 C 0.18431 0.28308 0.2262 0.0
C234 C 0.19457 0.24627 0.26018 0.0
C235 C 0.22006 0.24273 0.24643 0.0
C236 C 0.22715 0.25882 0.2218 0.0
C237 C 0.20891 0.2786 0.21166 0.0
C238 C 0.18597 0.22887 0.28585 0.0
C239 C 0.25442 0.25593 0.20697 0.0
H240 H 0.29177 0.21827 0.30786 0.0
H241 H 0.26282 0.15836 0.24693 0.0
H242 H 0.26159 0.27412 0.27596 0.0
H243 H 0.2371 0.26378 0.30264 0.0
H244 H 0.2728 0.26189 0.31125 0.0
H245 H 0.22362 0.16487 0.21834 0.0
H246 H 0.20015 0.19077 0.23031 0.0
H247 H 0.22482 0.19854 0.20281 0.0
H248 H 0.15798 0.27021 0.26126 0.0
H249 H 0.21447 0.29147 0.1933 0.0
H250 H 0.19923 0.23308 0.30498 0.0
H251 H 0.18829 0.20701 0.28037 0.0
H252 H 0.16455 0.23265 0.29235 0.0
H253 H 0.27086 0.26046 0.2229 0.0
H254 H 0.25661 0.26978 0.18786 0.0
H255 H 0.25738 0.23472 0.19938 0.0
C256 C 0.7894 0.27534 0.29484 0.0
C257 C 0.78844 0.30002 0.27963 0.0
C258 C 0.77197 0.2539 0.28714 0.0
C259 C 0.75261 0.25783 0.26453 0.0
C260 C 0.75122 0.28304 0.24965 0.0
C261 C 0.76955 0.30367 0.25703 0.0
C262 C 0.77453 0.22699 0.30282 0.0
C263 C 0.7302 0.28834 0.22619 0.0
C264 C 0.7191 0.19901 0.22469 0.0
C265 C 0.69474 0.1966 0.24026 0.0
C266 C 0.73872 0.21819 0.23311 0.0
C267 C 0.7332 0.23593 0.25685 0.0
C268 C 0.70845 0.23366 0.27242 0.0
C269 C 0.68971 0.21366 0.26423 0.0
C270 C 0.76527 0.21954 0.21662 0.0
C271 C 0.70141 0.25284 0.29715 0.0
H272 H 0.80432 0.27255 0.31208 0.0
H273 H 0.76883 0.32291 0.24543 0.0
H274 H 0.75537 0.22219 0.3145 0.0
H275 H 0.77802 0.2105 0.28664 0.0
H276 H 0.79145 0.22691 0.31895 0.0
H277 H 0.73128 0.30942 0.21751 0.0
H278 H 0.73302 0.27399 0.20769 0.0
H279 H 0.70953 0.28485 0.23515 0.0
H280 H 0.72299 0.18557 0.20633 0.0
H281 H 0.67071 0.21186 0.2761 0.0
H282 H 0.78256 0.21832 0.2322 0.0
H283 H 0.76693 0.23927 0.20498 0.0
H284 H 0.76726 0.2029 0.20028 0.0
H285 H 0.71698 0.25163 0.31467 0.0
H286 H 0.68124 0.24834 0.30692 0.0
H287 H 0.70132 0.27409 0.28894 0.0
C288 C 0.81041 0.73068 0.23579 0.0
C289 C 0.80473 0.71034 0.2152 0.0
C290 C 0.7902 0.74879 0.24493 0.0
C291 C 0.76354 0.7459 0.23377 0.0
C292 C 0.75786 0.72583 0.21236 0.0
C293 C 0.77871 0.70845 0.203 0.0
C294 C 0.79719 0.77048 0.26713 0.0
C295 C 0.72952 0.72191 0.20038 0.0
C296 C 0.70672 0.77229 0.2821 0.0
C297 C 0.69977 0.79641 0.26766 0.0
C298 C 0.72722 0.75538 0.27099 0.0
C299 C 0.74144 0.76327 0.24535 0.0
C300 C 0.73482 0.7879 0.23105 0.0
C301 C 0.7138 0.80402 0.2422 0.0
C302 C 0.73345 0.72897 0.28649 0.0
C303 C 0.75004 0.79729 0.20413 0.0
H304 H 0.83064 0.73218 0.24508 0.0
H305 H 0.7743 0.69251 0.18729 0.0
H306 H 0.79039 0.79069 0.25918 0.0
H307 H 0.78638 0.76639 0.28801 0.0
H308 H 0.81933 0.77142 0.27172 0.0
H309 H 0.72871 0.706 0.18311 0.0
H310 H 0.71562 0.71597 0.21844 0.0
H311 H 0.72176 0.74123 0.19107 0.0
H312 H 0.69571 0.76632 0.30166 0.0
H313 H 0.70853 0.82281 0.23114 0.0
H314 H 0.75479 0.72902 0.29431 0.0
H315 H 0.73129 0.71172 0.27098 0.0
H316 H 0.71988 0.72539 0.30557 0.0
H317 H 0.77204 0.79902 0.20915 0.0
H318 H 0.74268 0.81726 0.19597 0.0
H319 H 0.74788 0.78211 0.18629 0.0
C320 C 0.26225 0.79945 0.23925 0.0
C321 C 0.28413 0.79204 0.22139 0.0
C322 C 0.24299 0.78015 0.24801 0.0
C323 C 0.24648 0.75269 0.23964 0.0
C324 C 0.26813 0.7453 0.22078 0.0
C325 C 0.28651 0.76528 0.21143 0.0
C326 C 0.21954 0.78897 0.26712 0.0
C327 C 0.27284 0.71608 0.21199 0.0
C328 C 0.21751 0.69958 0.29116 0.0
C329 C 0.19515 0.69033 0.27511 0.0
C330 C 0.2346 0.71976 0.27968 0.0
C331 C 0.22847 0.73147 0.25204 0.0
C332 C 0.20532 0.72281 0.23627 0.0
C333 C 0.18917 0.70195 0.2478 0.0
C334 C 0.25952 0.7281 0.29678 0.0
C335 C 0.19761 0.73553 0.20728 0.0
H336 H 0.26055 0.82028 0.24684 0.0
H337 H 0.30375 0.75964 0.19793 0.0
H338 H 0.20013 0.78078 0.25845 0.0
H339 H 0.22222 0.78073 0.28958 0.0
H340 H 0.21793 0.81146 0.26861 0.0
H341 H 0.28987 0.71394 0.19618 0.0
H342 H 0.27755 0.70382 0.23179 0.0
H343 H 0.25424 0.70738 0.202 0.0
H344 H 0.22214 0.69037 0.31218 0.0
H345 H 0.17165 0.69488 0.23555 0.0
H346 H 0.25848 0.75004 0.30224 0.0
H347 H 0.27797 0.72501 0.2832 0.0
H348 H 0.26181 0.7164 0.31748 0.0
H349 H 0.1957 0.75789 0.20979 0.0
H350 H 0.17816 0.72739 0.19858 0.0
H351 H 0.21379 0.73178 0.19085 0.0
C352 C 0.68178 0.77206 0.75173 0.0
C353 C 0.68853 0.78908 0.72817 0.0
C354 C 0.69939 0.75135 0.7608 0.0
C355 C 0.72464 0.74813 0.74645 0.0
C356 C 0.73156 0.76524 0.72258 0.0
C357 C 0.71318 0.78534 0.71343 0.0
C358 C 0.691 0.73298 0.78577 0.0
C359 C 0.75857 0.76271 0.70715 0.0
C360 C 0.78107 0.71246 0.78808 0.0
C361 C 0.78155 0.68714 0.7741 0.0
C362 C 0.76265 0.73262 0.77923 0.0
C363 C 0.74388 0.72689 0.75649 0.0
C364 C 0.74365 0.70095 0.74312 0.0
C365 C 0.76279 0.68149 0.75181 0.0
C366 C 0.7638 0.76026 0.79357 0.0
C367 C 0.7234 0.69385 0.71943 0.0
H368 H 0.66259 0.77486 0.76299 0.0
H369 H 0.71846 0.79867 0.69537 0.0
H370 H 0.69187 0.71142 0.77869 0.0
H371 H 0.70533 0.7353 0.80438 0.0
H372 H 0.67014 0.73745 0.79371 0.0
H373 H 0.76098 0.77787 0.68928 0.0
H374 H 0.77534 0.76548 0.72315 0.0
H375 H 0.76075 0.74206 0.69768 0.0
H376 H 0.79579 0.71688 0.80511 0.0
H377 H 0.7631 0.6618 0.74113 0.0
H378 H 0.74386 0.76527 0.80351 0.0
H379 H 0.76812 0.77602 0.77678 0.0
H380 H 0.77964 0.76141 0.81088 0.0
H381 H 0.70242 0.69772 0.72729 0.0
H382 H 0.72494 0.67225 0.7125 0.0
H383 H 0.72674 0.70695 0.69996 0.0
C384 C 0.19374 0.71048 0.76767 0.0
C385 C 0.19698 0.69597 0.74148 0.0
C386 C 0.21328 0.72933 0.77683 0.0
C387 C 0.23702 0.73304 0.75982 0.0
C388 C 0.24086 0.71769 0.73386 0.0
C389 C 0.22048 0.69963 0.72468 0.0
C390 C 0.20803 0.74599 0.80408 0.0
C391 C 0.26631 0.72059 0.71566 0.0
C392 C 0.27268 0.80102 0.76396 0.0
C393 C 0.29317 0.79579 0.78449 0.0
C394 C 0.25413 0.78079 0.75599 0.0
C395 C 0.2568 0.75445 0.7681 0.0
C396 C 0.27776 0.74892 0.78855 0.0
C397 C 0.29548 0.76991 0.79697 0.0
C398 C 0.23147 0.78775 0.73491 0.0
C399 C 0.28165 0.72082 0.8012 0.0
H400 H 0.17544 0.70773 0.78057 0.0
H401 H 0.22306 0.68814 0.70458 0.0
H402 H 0.22496 0.74354 0.8199 0.0
H403 H 0.20699 0.76787 0.79822 0.0
H404 H 0.18877 0.74019 0.81513 0.0
H405 H 0.26733 0.70529 0.69777 0.0
H406 H 0.26709 0.74116 0.70574 0.0
H407 H 0.28456 0.71837 0.72975 0.0
H408 H 0.27087 0.82118 0.7545 0.0
H409 H 0.31157 0.76591 0.81263 0.0
H410 H 0.21152 0.78324 0.74515 0.0
H411 H 0.23308 0.77505 0.7149 0.0
H412 H 0.23179 0.80948 0.72828 0.0
H413 H 0.2634 0.71475 0.81387 0.0
H414 H 0.29965 0.71963 0.81584 0.0
H415 H 0.28413 0.70584 0.7832 0.0
C416 C 0.20615 0.27268 0.78786 0.0
C417 C 0.20237 0.29783 0.77417 0.0
C418 C 0.22564 0.25434 0.77732 0.0
C419 C 0.24224 0.26191 0.75327 0.0
C420 C 0.23934 0.28789 0.74037 0.0
C421 C 0.21902 0.30538 0.75064 0.0
C422 C 0.22773 0.22651 0.79115 0.0
C423 C 0.25739 0.29705 0.71547 0.0
C424 C 0.30583 0.21958 0.74455 0.0
C425 C 0.2983 0.20199 0.72184 0.0
C426 C 0.28827 0.24015 0.75403 0.0
C427 C 0.26219 0.24231 0.74123 0.0
C428 C 0.25472 0.22489 0.71781 0.0
C429 C 0.27316 0.20515 0.708 0.0
C430 C 0.29733 0.25903 0.77825 0.0
C431 C 0.2268 0.22618 0.70415 0.0
H432 H 0.19297 0.26683 0.80585 0.0
H433 H 0.21606 0.32497 0.74022 0.0
H434 H 0.22371 0.21066 0.77439 0.0
H435 H 0.24858 0.22311 0.79958 0.0
H436 H 0.21316 0.22378 0.80952 0.0
H437 H 0.25399 0.3187 0.70959 0.0
H438 H 0.27907 0.29432 0.72148 0.0
H439 H 0.2535 0.28439 0.69579 0.0
H440 H 0.32543 0.21705 0.75509 0.0
H441 H 0.26736 0.19122 0.69067 0.0
H442 H 0.2853 0.25503 0.79836 0.0
H443 H 0.29367 0.2805 0.77188 0.0
H444 H 0.3192 0.2565 0.78359 0.0
H445 H 0.2112 0.22162 0.72102 0.0
H446 H 0.22442 0.21155 0.68577 0.0
H447 H 0.22267 0.24695 0.69582 0.0
C448 C 0.68301 0.2228 0.76944 0.0
C449 C 0.69007 0.20169 0.78857 0.0
C450 C 0.70254 0.24145 0.75973 0.0
C451 C 0.72989 0.23818 0.76857 0.0
C452 C 0.73703 0.21709 0.78829 0.0
C453 C 0.71685 0.1993 0.79848 0.0
C454 C 0.694 0.2643 0.7396 0.0
C455 C 0.76612 0.21262 0.79763 0.0
C456 C 0.78404 0.26744 0.71848 0.0
C457 C 0.79249 0.29013 0.73455 0.0
C458 C 0.76375 0.25017 0.72944 0.0
C459 C 0.75115 0.25639 0.75656 0.0
C460 C 0.759 0.27987 0.77231 0.0
C461 C 0.77994 0.29623 0.76133 0.0
C462 C 0.7563 0.22492 0.7124 0.0
C463 C 0.74537 0.28766 0.80077 0.0
H464 H 0.66218 0.22462 0.76193 0.0
H465 H 0.72226 0.18271 0.81302 0.0
H466 H 0.70127 0.28407 0.74832 0.0
H467 H 0.70336 0.2615 0.71769 0.0
H468 H 0.6716 0.26532 0.73686 0.0
H469 H 0.76822 0.19543 0.81328 0.0
H470 H 0.77884 0.20835 0.77806 0.0
H471 H 0.77433 0.23125 0.80807 0.0
H472 H 0.79397 0.26268 0.69789 0.0
H473 H 0.7864 0.31397 0.77361 0.0
H474 H 0.73446 0.2254 0.70646 0.0
H475 H 0.75956 0.20664 0.72624 0.0
H476 H 0.76842 0.22275 0.69199 0.0
H477 H 0.72307 0.28909 0.79755 0.0
H478 H 0.75287 0.3074 0.80942 0.0
H479 H 0.74903 0.27175 0.81755 0.0
C480 C 0.15159 0.35088 0.93655 0.0
C481 C 0.12549 0.35279 0.92445 0.0
C482 C 0.15538 0.35101 0.96714 0.0
C483 C 0.13246 0.35246 0.98588 0.0
C484 C 0.10603 0.35291 0.97365 0.0
C485 C 0.10289 0.35342 0.94312 0.0
C486 C 0.18388 0.351 0.97934 0.0
C487 C 0.08102 0.35387 0.99282 0.0
C488 C 0.13616 0.33709 0.06758 0.0
C489 C 0.13443 0.36331 0.07946 0.0
C490 C 0.13656 0.33313 0.03703 0.0
C491 C 0.13583 0.35598 0.0181 0.0
C492 C 0.13568 0.38251 0.03014 0.0
C493 C 0.13463 0.38583 0.06064 0.0
C494 C 0.13625 0.30454 0.02504 0.0
C495 C 0.13548 0.40744 0.01078 0.0
H496 H 0.16909 0.35048 0.92213 0.0
H497 H 0.08265 0.35457 0.93381 0.0
H498 H 0.18816 0.37098 0.98967 0.0
H499 H 0.18602 0.3353 0.99665 0.0
H500 H 0.19937 0.34725 0.9621 0.0
H501 H 0.062 0.35135 0.97998 0.0
H502 H 0.08192 0.33768 0.00974 0.0
H503 H 0.08012 0.37366 0.00443 0.0
H504 H 0.13593 0.31964 0.08212 0.0
H505 H 0.13364 0.40615 0.06978 0.0
H506 H 0.15204 0.30206 0.0079 0.0
H507 H 0.11631 0.30049 0.01456 0.0
H508 H 0.13965 0.28909 0.04244 0.0
H509 H 0.15175 0.40605 0.994 0.0
H510 H 0.13837 0.42648 0.02351 0.0
H511 H 0.11581 0.40875 0.99898 0.0
C512 C 0.63884 0.10041 0.95026 0.0
C513 C 0.6371 0.12343 0.93224 0.0
C514 C 0.63967 0.10286 0.98089 0.0
C515 C 0.63799 0.12895 0.99387 0.0
C516 C 0.63711 0.15235 0.97575 0.0
C517 C 0.63701 0.14932 0.94507 0.0
C518 C 0.64126 0.07741 0.99936 0.0
C519 C 0.63477 0.18047 0.98873 0.0
C520 C 0.60484 0.12833 0.0689 0.0
C521 C 0.62724 0.13081 0.08768 0.0
C522 C 0.60803 0.1289 0.03836 0.0
C523 C 0.63439 0.13132 0.02622 0.0
C524 C 0.65711 0.13426 0.04507 0.0
C525 C 0.65322 0.13431 0.07566 0.0
C526 C 0.58319 0.12629 0.0191 0.0
C527 C 0.68556 0.13632 0.03295 0.0
H528 H 0.63922 0.08036 0.94039 0.0
H529 H 0.63557 0.16714 0.93117 0.0
H530 H 0.65732 0.07949 0.01628 0.0
H531 H 0.6217 0.07428 0.01096 0.0
H532 H 0.64557 0.05904 0.98598 0.0
H533 H 0.63682 0.19664 0.97186 0.0
H534 H 0.61468 0.18267 0.99952 0.0
H535 H 0.65049 0.18364 0.00582 0.0
H536 H 0.58468 0.12594 0.07811 0.0
H537 H 0.67058 0.13615 0.09015 0.0
H538 H 0.58396 0.10681 0.00687 0.0
H539 H 0.58274 0.14294 1.00268 0.0
H540 H 0.56401 0.12685 0.03193 0.0
H541 H 0.69089 0.11711 0.02157 0.0
H542 H 0.70085 0.14016 0.05039 0.0
H543 H 0.6868 0.15288 0.01649 0.0
C544 C 0.88208 0.63674 0.93825 0.0
C545 C 0.85899 0.63662 0.92025 0.0
C546 C 0.87976 0.63777 0.96887 0.0
C547 C 0.85367 0.63814 0.98191 0.0
C548 C 0.83024 0.63883 0.96385 0.0
C549 C 0.83319 0.63832 0.93315 0.0
C550 C 0.90529 0.63751 0.98727 0.0
C551 C 0.80209 0.63884 0.97694 0.0
C552 C 0.85308 0.60686 0.05788 0.0
C553 C 0.85351 0.62989 0.07597 0.0
C554 C 0.85168 0.60931 0.02728 0.0
C555 C 0.8512 0.63548 0.01435 0.0
C556 C 0.85074 0.65885 0.03252 0.0
C557 C 0.85166 0.65576 0.06319 0.0
C558 C 0.85173 0.58386 0.00875 0.0
C559 C 0.85059 0.68709 0.01957 0.0
H560 H 0.90209 0.63574 0.92837 0.0
H561 H 0.81529 0.63815 0.91931 0.0
H562 H 0.90475 0.6542 1.00362 0.0
H563 H 0.90659 0.61809 0.99957 0.0
H564 H 0.92394 0.63973 0.97378 0.0
H565 H 0.78608 0.64178 0.96006 0.0
H566 H 0.7984 0.61918 0.98821 0.0
H567 H 0.8002 0.6551 0.99366 0.0
H568 H 0.8542 0.58679 0.06765 0.0
H569 H 0.85203 0.67363 0.07709 0.0
H570 H 0.87106 0.58253 0.99635 0.0
H571 H 0.83497 0.58454 0.9925 0.0
H572 H 0.84951 0.56514 0.02218 0.0
H573 H 0.87015 0.69087 0.00819 0.0
H574 H 0.84772 0.70302 0.03654 0.0
H575 H 0.83423 0.68903 1.00297 0.0
C576 C 0.39057 0.84795 0.06768 0.0
C577 C 0.36736 0.85028 0.08528 0.0
C578 C 0.38865 0.84825 0.037 0.0
C579 C 0.36295 0.85179 0.02357 0.0
C580 C 0.33933 0.85346 0.04124 0.0
C581 C 0.34178 0.8523 0.07196 0.0
C582 C 0.41427 0.84572 0.01899 0.0
C583 C 0.31166 0.85786 0.02778 0.0
C584 C 0.36665 0.88638 0.94935 0.0
C585 C 0.36295 0.86454 0.93003 0.0
C586 C 0.36552 0.88262 0.9798 0.0
C587 C 0.36134 0.8562 0.99129 0.0
C588 C 0.35728 0.83406 0.97187 0.0
C589 C 0.35777 0.83858 0.94139 0.0
C590 C 0.36932 0.90689 0.99968 0.0
C591 C 0.35341 0.80552 0.98328 0.0
H592 H 0.41035 0.84607 0.07795 0.0
H593 H 0.32383 0.85423 0.08556 0.0
H594 H 0.41161 0.83017 1.00159 0.0
H595 H 0.41865 0.86535 0.00797 0.0
H596 H 0.43213 0.84009 0.0326 0.0
H597 H 0.29512 0.85659 0.0443 0.0
H598 H 0.31095 0.87823 0.01733 0.0
H599 H 0.30776 0.84264 0.01035 0.0
H600 H 0.37034 0.90656 0.94063 0.0
H601 H 0.35499 0.82165 0.92647 0.0
H602 H 0.38851 0.90472 0.01222 0.0
H603 H 0.3525 0.908 0.01583 0.0
H604 H 0.37008 0.92633 0.9873 0.0
H605 H 0.37201 0.79893 0.99507 0.0
H606 H 0.34916 0.79077 0.96541 0.0
H607 H 0.33643 0.80487 0.99925 0.0
C608 C 0.10086 0.64035 0.56727 0.0
C609 C 0.12394 0.63818 0.58508 0.0
C610 C 0.10305 0.64042 0.53663 0.0
C611 C 0.1289 0.63734 0.52344 0.0
C612 C 0.15241 0.63597 0.54135 0.0
C613 C 0.14967 0.63682 0.57206 0.0
C614 C 0.07753 0.64269 0.51839 0.0
C615 C 0.18025 0.63202 0.52817 0.0
C616 C 0.12535 0.60234 0.44953 0.0
C617 C 0.12859 0.62413 0.43005 0.0
C618 C 0.12677 0.60625 0.47994 0.0
C619 C 0.13074 0.63277 0.49122 0.0
C620 C 0.13446 0.65485 0.47163 0.0
C621 C 0.13372 0.65019 0.44118 0.0
C622 C 0.12335 0.58204 0.49999 0.0
C623 C 0.13808 0.6835 0.48282 0.0
H624 H 0.08096 0.64173 0.57736 0.0
H625 H 0.16752 0.63501 0.58587 0.0
H626 H 0.08018 0.65816 0.5009 0.0
H627 H 0.07334 0.62297 0.50749 0.0
H628 H 0.05955 0.64827 0.53182 0.0
H629 H 0.19665 0.63391 0.54479 0.0
H630 H 0.18148 0.61151 0.51812 0.0
H631 H 0.18391 0.64706 0.51048 0.0
H632 H 0.12172 0.5821 0.44097 0.0
H633 H 0.13616 0.66707 0.42612 0.0
H634 H 0.10404 0.58391 0.51236 0.0
H635 H 0.1401 0.58135 0.51627 0.0
H636 H 0.12303 0.56251 0.48776 0.0
H637 H 0.11927 0.6901 0.49417 0.0
H638 H 0.14254 0.69811 0.46487 0.0
H639 H 0.15479 0.68435 0.4991 0.0
C640 C 0.3567 0.14943 0.56745 0.0
C641 C 0.36142 0.12363 0.57949 0.0
C642 C 0.35612 0.15329 0.53687 0.0
C643 C 0.35966 0.13067 0.51799 0.0
C644 C 0.36338 0.10444 0.53014 0.0
C645 C 0.36455 0.10131 0.56069 0.0
C646 C 0.3527 0.18164 0.52476 0.0
C647 C 0.36666 0.07969 0.51086 0.0
C648 C 0.33975 0.13349 0.4373 0.0
C649 C 0.36527 0.13502 0.42378 0.0
C650 C 0.33745 0.1328 0.46806 0.0
C651 C 0.36119 0.13438 0.48558 0.0
C652 C 0.38686 0.13734 0.47194 0.0
C653 C 0.38861 0.13725 0.44123 0.0
C654 C 0.30979 0.12905 0.48174 0.0
C655 C 0.41262 0.13974 0.48976 0.0
H656 H 0.35436 0.16675 0.58193 0.0
H657 H 0.36791 0.08126 0.5699 0.0
H658 H 0.37136 0.18766 0.51275 0.0
H659 H 0.33567 0.18223 0.50885 0.0
H660 H 0.34878 0.19684 0.54227 0.0
H661 H 0.36715 0.06051 0.52372 0.0
H662 H 0.34974 0.07851 0.49483 0.0
H663 H 0.38582 0.08128 0.49818 0.0
H664 H 0.32168 0.13164 0.42385 0.0
H665 H 0.40836 0.13872 0.43083 0.0
H666 H 0.3062 0.14471 0.4988 0.0
H667 H 0.30884 0.10893 0.49272 0.0
H668 H 0.29319 0.13018 0.46528 0.0
H669 H 0.41036 0.15571 0.50677 0.0
H670 H 0.43053 0.14471 0.47594 0.0
H671 H 0.41664 0.12027 0.50126 0.0
C672 C 0.8528 0.39118 0.44353 0.0
C673 C 0.85185 0.36918 0.42406 0.0
C674 C 0.85229 0.38709 0.47394 0.0
C675 C 0.85164 0.36027 0.4852 0.0
C676 C 0.84998 0.33795 0.46562 0.0
C677 C 0.84972 0.34271 0.43519 0.0
C678 C 0.8534 0.41149 0.49401 0.0
C679 C 0.84989 0.30905 0.47676 0.0
C680 C 0.88512 0.3552 0.55979 0.0
C681 C 0.86266 0.35431 0.57863 0.0
C682 C 0.88175 0.35553 0.52928 0.0
C683 C 0.85521 0.35583 0.51728 0.0
C684 C 0.83242 0.35425 0.5362 0.0
C685 C 0.83644 0.35311 0.56674 0.0
C686 C 0.90663 0.35648 0.50991 0.0
C687 C 0.80383 0.35517 0.52429 0.0
H688 H 0.85412 0.4117 0.43494 0.0
H689 H 0.8491 0.32568 0.42012 0.0
H690 H 0.83733 0.41006 0.51101 0.0
H691 H 0.87326 0.41202 0.50552 0.0
H692 H 0.85083 0.43092 0.48189 0.0
H693 H 0.84617 0.29411 0.45893 0.0
H694 H 0.86981 0.30443 0.48702 0.0
H695 H 0.83414 0.30637 0.4939 0.0
H696 H 0.90543 0.3558 0.56898 0.0
H697 H 0.81907 0.35252 0.58133 0.0
H698 H 0.90792 0.37659 0.49898 0.0
H699 H 0.9052 0.34084 0.49245 0.0
H700 H 0.92567 0.35313 0.52248 0.0
H701 H 0.79997 0.37544 0.51444 0.0
H702 H 0.78839 0.35144 0.5416 0.0
H703 H 0.80116 0.33987 0.50666 0.0
C704 C 0.64137 0.83627 0.56926 0.0
C705 C 0.63909 0.86287 0.58001 0.0
C706 C 0.64135 0.83113 0.5389 0.0
C707 C 0.63951 0.85318 0.51899 0.0
C708 C 0.63881 0.88014 0.52983 0.0
C709 C 0.63833 0.88463 0.56017 0.0
C710 C 0.6418 0.80211 0.52821 0.0
C711 C 0.63734 0.90427 0.50938 0.0
C712 C 0.6535 0.84611 0.43724 0.0
C713 C 0.62706 0.84679 0.42584 0.0
C714 C 0.65801 0.84713 0.4677 0.0
C715 C 0.63551 0.84831 0.48705 0.0
C716 C 0.6088 0.84741 0.47558 0.0
C717 C 0.60492 0.84696 0.44514 0.0
C718 C 0.68678 0.84843 0.47907 0.0
C719 C 0.58424 0.84808 0.49542 0.0
H720 H 0.6419 0.81939 0.58455 0.0
H721 H 0.63688 0.90526 0.56839 0.0
H722 H 0.62172 0.7969 0.51867 0.0
H723 H 0.65715 0.79954 0.51064 0.0
H724 H 0.6463 0.7875 0.54616 0.0
H725 H 0.63979 0.92388 0.52116 0.0
H726 H 0.6533 0.90279 0.49228 0.0
H727 H 0.61739 0.90442 0.49803 0.0
H728 H 0.67067 0.84605 0.42235 0.0
H729 H 0.58443 0.84716 0.4364 0.0
H730 H 0.68978 0.83358 0.49709 0.0
H731 H 0.69073 0.86895 0.48822 0.0
H732 H 0.70194 0.84434 0.46158 0.0
H733 H 0.58615 0.83254 0.51293 0.0
H734 H 0.56503 0.84442 0.48324 0.0
H735 H 0.58287 0.86823 0.50627 0.0
C736 C 0.15378 0.52354 0.31029 0.0
C737 C 0.16976 0.54647 0.30437 0.0
C738 C 0.15829 0.49904 0.29549 0.0
C739 C 0.17975 0.4973 0.27489 0.0
C740 C 0.19786 0.51939 0.27141 0.0
C741 C 0.19241 0.54395 0.28591 0.0
C742 C 0.13841 0.47596 0.29979 0.0
C743 C 0.22171 0.51786 0.25069 0.0
C744 C 0.18636 0.42608 0.24464 0.0
C745 C 0.16947 0.42778 0.2199 0.0
C746 C 0.19213 0.44923 0.26152 0.0
C747 C 0.18006 0.47433 0.25384 0.0
C748 C 0.16474 0.47652 0.22765 0.0
C749 C 0.15993 0.45324 0.21079 0.0
C750 C 0.20955 0.44637 0.28858 0.0
C751 C 0.15138 0.50292 0.21871 0.0
H752 H 0.13634 0.5253 0.32467 0.0
H753 H 0.20514 0.56151 0.28167 0.0
H754 H 0.12622 0.47324 0.27951 0.0
H755 H 0.14935 0.45665 0.30392 0.0
H756 H 0.12428 0.47973 0.31834 0.0
H757 H 0.23716 0.53364 0.25576 0.0
H758 H 0.23146 0.49754 0.25164 0.0
H759 H 0.21455 0.52113 0.22789 0.0
H760 H 0.19418 0.40649 0.25153 0.0
H761 H 0.14699 0.45474 0.19161 0.0
H762 H 0.19633 0.44454 0.30818 0.0
H763 H 0.22266 0.4645 0.29166 0.0
H764 H 0.2226 0.42797 0.28748 0.0
H765 H 0.13563 0.50846 0.23506 0.0
H766 H 0.1416 0.50158 0.19679 0.0
H767 H 0.16651 0.51961 0.21823 0.0
C768 C 0.54537 0.15499 0.24784 0.0
C769 C 0.55462 0.16779 0.22238 0.0
C770 C 0.51885 0.15899 0.25784 0.0
C771 C 0.50162 0.17731 0.24271 0.0
C772 C 0.51157 0.19178 0.21804 0.0
C773 C 0.53784 0.1862 0.20758 0.0
C774 C 0.50885 0.14231 0.28353 0.0
C775 C 0.49436 0.21243 0.20214 0.0
C776 C 0.42819 0.15713 0.2503 0.0
C777 C 0.42137 0.17 0.27665 0.0
C778 C 0.45385 0.16078 0.23772 0.0
C779 C 0.47258 0.17869 0.25121 0.0
C780 C 0.46459 0.19403 0.27603 0.0
C781 C 0.43926 0.18888 0.28906 0.0
C782 C 0.46175 0.14344 0.21174 0.0
C783 C 0.48339 0.2146 0.28983 0.0
H784 H 0.55845 0.14057 0.25902 0.0
H785 H 0.54524 0.19616 0.18792 0.0
H786 H 0.502 0.15583 0.30149 0.0
H787 H 0.49116 0.12981 0.27673 0.0
H788 H 0.52476 0.12853 0.29234 0.0
H789 H 0.5072 0.22762 0.19058 0.0
H790 H 0.48173 0.202 0.18544 0.0
H791 H 0.48058 0.22328 0.21743 0.0
H792 H 0.41429 0.14243 0.24083 0.0
H793 H 0.43374 0.19906 0.30929 0.0
H794 H 0.47815 0.12917 0.21827 0.0
H795 H 0.46977 0.15631 0.19378 0.0
H796 H 0.4444 0.1314 0.20312 0.0
H797 H 0.49892 0.20399 0.30321 0.0
H798 H 0.47221 0.22888 0.30433 0.0
H799 H 0.49419 0.22644 0.27268 0.0
C800 C 0.80367 0.56069 0.2215 0.0
C801 C 0.82886 0.57319 0.22589 0.0
C802 C 0.79726 0.53634 0.23605 0.0
C803 C 0.81715 0.52375 0.25396 0.0
C804 C 0.8424 0.53682 0.25886 0.0
C805 C 0.84769 0.56173 0.2452 0.0
C806 C 0.76966 0.52367 0.23148 0.0
C807 C 0.86456 0.52372 0.27694 0.0
C808 C 0.80893 0.46445 0.30605 0.0
C809 C 0.81784 0.44295 0.28837 0.0
C810 C 0.80588 0.49069 0.29432 0.0
C811 C 0.81328 0.49557 0.26477 0.0
C812 C 0.82098 0.47358 0.24656 0.0
C813 C 0.82259 0.44743 0.25847 0.0
C814 C 0.7962 0.51338 0.31396 0.0
C815 C 0.82995 0.47796 0.2152 0.0
H816 H 0.78913 0.56986 0.20662 0.0
H817 H 0.86722 0.57153 0.24829 0.0
H818 H 0.77134 0.50645 0.2159 0.0
H819 H 0.76158 0.51551 0.25244 0.0
H820 H 0.75488 0.53851 0.22238 0.0
H821 H 0.88292 0.53676 0.27872 0.0
H822 H 0.85709 0.51929 0.29937 0.0
H823 H 0.87053 0.50407 0.26687 0.0
H824 H 0.805 0.46089 0.32913 0.0
H825 H 0.82968 0.43083 0.24483 0.0
H826 H 0.78227 0.52718 0.30192 0.0
H827 H 0.81384 0.5256 0.32139 0.0
H828 H 0.78559 0.50543 0.33369 0.0
H829 H 0.81427 0.48929 0.20278 0.0
H830 H 0.83406 0.45852 0.20363 0.0
H831 H 0.84879 0.49038 0.21492 0.0
C832 C 0.54275 0.79405 0.29632 0.0
C833 C 0.55778 0.8158 0.28501 0.0
C834 C 0.51692 0.78791 0.28497 0.0
C835 C 0.50553 0.805 0.26317 0.0
C836 C 0.521 0.82678 0.25152 0.0
C837 C 0.54721 0.83147 0.26214 0.0
C838 C 0.50169 0.76374 0.29701 0.0
C839 C 0.50936 0.84616 0.22904 0.0
C840 C 0.44452 0.79518 0.21445 0.0
C841 C 0.42516 0.8107 0.22945 0.0
C842 C 0.47008 0.79017 0.22697 0.0
C843 C 0.4767 0.80227 0.25422 0.0
C844 C 0.45648 0.8163 0.27029 0.0
C845 C 0.43071 0.81985 0.25789 0.0
C846 C 0.49059 0.77355 0.21016 0.0
C847 C 0.46279 0.82998 0.29915 0.0
H848 H 0.55116 0.78191 0.31398 0.0
H849 H 0.55893 0.84844 0.25371 0.0
H850 H 0.48868 0.77035 0.31552 0.0
H851 H 0.48845 0.75435 0.28011 0.0
H852 H 0.51592 0.74805 0.30548 0.0
H853 H 0.52392 0.86246 0.22289 0.0
H854 H 0.50361 0.83496 0.20888 0.0
H855 H 0.49068 0.85582 0.2378 0.0
H856 H 0.44001 0.78776 0.1926 0.0
H857 H 0.41568 0.8319 0.26945 0.0
H858 H 0.50227 0.76024 0.22525 0.0
H859 H 0.50523 0.78729 0.19911 0.0
H860 H 0.4807 0.76076 0.19315 0.0
H861 H 0.4721 0.81532 0.31462 0.0
H862 H 0.4444 0.83877 0.30959 0.0
H863 H 0.47771 0.84658 0.29552 0.0
C864 C 0.82207 0.54191 0.7764 0.0
C865 C 0.84335 0.55047 0.79471 0.0
C866 C 0.82237 0.51613 0.76332 0.0
C867 C 0.84451 0.49849 0.76862 0.0
C868 C 0.8654 0.50645 0.7882 0.0
C869 C 0.86452 0.53235 0.80111 0.0
C870 C 0.79956 0.50825 0.74285 0.0
C871 C 0.88928 0.48809 0.79446 0.0
C872 C 0.83738 0.42379 0.74945 0.0
C873 C 0.85074 0.42244 0.72226 0.0
C874 C 0.83509 0.44841 0.76473 0.0
C875 C 0.84644 0.47228 0.75257 0.0
C876 C 0.85961 0.4712 0.72497 0.0
C877 C 0.86156 0.44629 0.7101 0.0
C878 C 0.82077 0.44882 0.79402 0.0
C879 C 0.87192 0.49631 0.7113 0.0
H880 H 0.80552 0.55571 0.77148 0.0
H881 H 0.88107 0.53881 0.81517 0.0
H882 H 0.80752 0.50625 0.72018 0.0
H883 H 0.79105 0.4882 0.74919 0.0
H884 H 0.78287 0.52345 0.74274 0.0
H885 H 0.90285 0.4965 0.8117 0.0
H886 H 0.88212 0.46774 0.80157 0.0
H887 H 0.90132 0.48519 0.77413 0.0
H888 H 0.8289 0.4055 0.75905 0.0
H889 H 0.87197 0.44544 0.68918 0.0
H890 H 0.80371 0.46354 0.79347 0.0
H891 H 0.83501 0.45568 0.81138 0.0
H892 H 0.81266 0.42854 0.80022 0.0
H893 H 0.8561 0.51215 0.7084 0.0
H894 H 0.88133 0.49207 0.68964 0.0
H895 H 0.88768 0.50485 0.72607 0.0
C896 C 0.5348 0.87019 0.69996 0.0
C897 C 0.55398 0.84991 0.70613 0.0
C898 C 0.50918 0.87 0.7135 0.0
C899 C 0.5026 0.84893 0.73347 0.0
C900 C 0.52126 0.82756 0.73839 0.0
C901 C 0.54673 0.82833 0.72471 0.0
C902 C 0.48974 0.89311 0.70765 0.0
C903 C 0.51486 0.80456 0.75925 0.0
C904 C 0.45253 0.86497 0.79431 0.0
C905 C 0.42849 0.85344 0.78345 0.0
C906 C 0.47678 0.86358 0.77824 0.0
C907 C 0.47705 0.8502 0.75074 0.0
C908 C 0.45302 0.83806 0.7399 0.0
C909 C 0.42901 0.83987 0.75635 0.0
C910 C 0.50206 0.87678 0.79051 0.0
C911 C 0.45262 0.82341 0.7108 0.0
H912 H 0.54025 0.88694 0.68567 0.0
H913 H 0.56135 0.81244 0.72941 0.0
H914 H 0.46941 0.88511 0.70168 0.0
H915 H 0.48725 0.90541 0.72788 0.0
H916 H 0.49696 0.90667 0.68978 0.0
H917 H 0.53048 0.78828 0.75859 0.0
H918 H 0.51368 0.81252 0.78198 0.0
H919 H 0.49481 0.79551 0.75395 0.0
H920 H 0.45231 0.87556 0.81515 0.0
H921 H 0.41056 0.83083 0.74779 0.0
H922 H 0.50949 0.89262 0.77515 0.0
H923 H 0.51844 0.86145 0.79282 0.0
H924 H 0.49847 0.88632 0.81225 0.0
H925 H 0.45819 0.83769 0.69294 0.0
H926 H 0.43239 0.81453 0.70578 0.0
H927 H 0.46792 0.80686 0.71077 0.0
C928 C 0.12245 0.45157 0.7989 0.0
C929 C 0.13856 0.43017 0.78841 0.0
C930 C 0.12313 0.47723 0.78546 0.0
C931 C 0.14048 0.48161 0.76114 0.0
C932 C 0.15735 0.46035 0.75099 0.0
C933 C 0.15613 0.43487 0.76469 0.0
C934 C 0.10482 0.49947 0.79686 0.0
C935 C 0.17634 0.46438 0.72534 0.0
C936 C 0.12219 0.53955 0.70976 0.0
C937 C 0.13897 0.56045 0.72023 0.0
C938 C 0.1228 0.5136 0.72256 0.0
C939 C 0.14077 0.50843 0.74618 0.0
C940 C 0.15848 0.52912 0.75608 0.0
C941 C 0.15732 0.55489 0.74304 0.0
C942 C 0.10361 0.49197 0.71145 0.0
C943 C 0.17814 0.52426 0.78098 0.0
H944 H 0.10875 0.44808 0.81712 0.0
H945 H 0.16875 0.41848 0.75651 0.0
H946 H 0.11707 0.51753 0.80302 0.0
H947 H 0.09054 0.50594 0.77937 0.0
H948 H 0.09284 0.4929 0.81626 0.0
H949 H 0.18882 0.44605 0.72081 0.0
H950 H 0.16447 0.46938 0.70536 0.0
H951 H 0.19015 0.48177 0.72962 0.0
H952 H 0.10791 0.5437 0.69222 0.0
H953 H 0.1705 0.57087 0.75115 0.0
H954 H 0.08929 0.48609 0.72914 0.0
H955 H 0.11511 0.47346 0.70522 0.0
H956 H 0.09167 0.49891 0.69217 0.0
H957 H 0.16672 0.51983 0.80141 0.0
H958 H 0.19156 0.54204 0.78498 0.0
H959 H 0.19101 0.50629 0.77624 0.0
C960 C 0.45418 0.12818 0.71288 0.0
C961 C 0.42995 0.13955 0.72337 0.0
C962 C 0.47815 0.12942 0.72955 0.0
C963 C 0.47781 0.14225 0.75738 0.0
C964 C 0.45358 0.15421 0.76783 0.0
C965 C 0.43 0.1528 0.75068 0.0
C966 C 0.50374 0.11666 0.71759 0.0
C967 C 0.45244 0.16806 0.79737 0.0
C968 C 0.53395 0.12166 0.81004 0.0
C969 C 0.5529 0.14257 0.80568 0.0
C970 C 0.50897 0.12172 0.79513 0.0
C971 C 0.50288 0.14319 0.77549 0.0
C972 C 0.52127 0.16506 0.77226 0.0
C973 C 0.54601 0.16452 0.78743 0.0
C974 C 0.48966 0.09819 0.79938 0.0
C975 C 0.5154 0.18843 0.7517 0.0
H976 H 0.45434 0.11789 0.69187 0.0
H977 H 0.4114 0.16165 0.75906 0.0
H978 H 0.5202 0.13205 0.7165 0.0
H979 H 0.51072 0.10027 0.73252 0.0
H980 H 0.50075 0.10792 0.69536 0.0
H981 H 0.4321 0.17679 0.80208 0.0
H982 H 0.45756 0.15329 0.81492 0.0
H983 H 0.46772 0.18461 0.79842 0.0
H984 H 0.5391 0.10462 0.82405 0.0
H985 H 0.56045 0.18087 0.78405 0.0
H986 H 0.48793 0.08653 0.77864 0.0
H987 H 0.46906 0.10577 0.80489 0.0
H988 H 0.49647 0.08416 0.81701 0.0
H989 H 0.51476 0.18089 0.72878 0.0
H990 H 0.53097 0.20473 0.75317 0.0
H991 H 0.49522 0.19737 0.75659 0.0
C992 C 0.6466 0.05475 0.76087 0.0
C993 C 0.6626 0.06297 0.78461 0.0
C994 C 0.65023 0.02917 0.74806 0.0
C995 C 0.67121 0.01197 0.75847 0.0
C996 C 0.68881 0.02114 0.78098 0.0
C997 C 0.6838 0.04634 0.79442 0.0
C998 C 0.63038 0.01985 0.72485 0.0
C999 C 0.71223 0.00397 0.79159 0.0
C1000 C 0.6547 0.93731 0.75126 0.0
C1001 C 0.66515 0.93149 0.72342 0.0
C1002 C 0.65761 0.96321 0.76357 0.0
C1003 C 0.67232 0.98339 0.74812 0.0
C1004 C 0.68494 0.97687 0.72112 0.0
C1005 C 0.68063 0.9511 0.70868 0.0
C1006 C 0.64308 0.96951 0.79196 0.0
C1007 C 0.70187 -0.00256 0.70473 0.0
H1008 H 0.63006 0.06765 0.75357 0.0
H1009 H 0.69624 0.05293 0.81271 0.0
H1010 H 0.64136 0.01362 0.70473 0.0
H1011 H 0.61902 0.00183 0.73291 0.0
H1012 H 0.61551 0.03592 0.71891 0.0
H1013 H 0.72702 0.01608 0.80456 0.0
H1014 H 0.70447 0.98733 0.80571 0.0
H1015 H 0.72298 -0.00551 0.7728 0.0
H1016 H 0.64255 0.92218 0.76256 0.0
H1017 H 0.68893 0.94647 0.68723 0.0
H1018 H 0.62714 0.98504 0.78793 0.0
H1019 H 0.65744 0.97811 0.80822 0.0
H1020 H 0.63333 0.95125 0.80169 0.0
H1021 H 0.68838 0.01236 0.69376 0.0
H1022 H 0.71472 0.98767 0.6877 0.0
H1023 H 0.71517 0.00886 0.72006 0.0
C1024 C 0.93423 0.68724 0.78255 0.0
C1025 C 0.92067 0.66342 0.77436 0.0
C1026 C 0.95978 0.69352 0.77061 0.0
C1027 C 0.97244 0.67469 0.7515 0.0
C1028 C 0.95836 0.6509 0.74274 0.0
C1029 C 0.93235 0.6459 0.75382 0.0
C1030 C 0.97355 0.71972 0.77927 0.0
C1031 C 0.97143 0.62978 0.72324 0.0
C1032 C 0.03521 0.68408 0.70483 0.0
C1033 C 0.05498 0.67213 0.72277 0.0
C1034 C 0.00855 0.6877 0.71505 0.0
C1035 C 0.00141 0.67785 0.7432 0.0
C1036 C 0.02172 0.66711 0.7619 0.0
C1037 C 0.04841 0.66492 0.75162 0.0
C1038 C 0.98775 0.70063 0.69513 0.0
C1039 C 0.01488 0.65559 0.79173 0.0
H1040 H 0.92494 0.7008 0.79839 0.0
H1041 H 0.92177 0.62736 0.74782 0.0
H1042 H 0.98906 0.71557 0.79633 0.0
H1043 H 0.98407 0.729 0.7602 0.0
H1044 H 0.95883 0.73464 0.78831 0.0
H1045 H 0.95761 0.61249 0.71846 0.0
H1046 H 0.97774 0.63905 0.70215 0.0
H1047 H 0.99 0.62171 0.73398 0.0
H1048 H 0.04042 0.68991 0.68259 0.0
H1049 H 0.06368 0.65552 0.76545 0.0
H1050 H 0.97416 0.71432 0.70773 0.0
H1051 H 0.97494 0.6846 0.68506 0.0
H1052 H -0.0025 0.71242 0.67721 0.0
H1053 H 0.0037 0.67075 0.80502 0.0
H1054 H 0.03327 0.64924 0.80408 0.0
H1055 H 0.00144 0.63763 0.78909 0.0
C1056 C 0.33111 0.03146 0.70732 0.0
C1057 C 0.31891 0.05625 0.71473 0.0
C1058 C 0.32645 0.00809 0.72412 0.0
C1059 C 0.3087 0.00946 0.74853 0.0
C1060 C 0.29413 0.03366 0.75422 0.0
C1061 C 0.29963 0.05693 0.73741 0.0
C1062 C 0.34239 0.98263 0.71724 0.0
C1063 C 0.27425 0.03559 0.77931 0.0
C1064 C 0.29792 0.93979 0.7813 0.0
C1065 C 0.31906 0.939 0.80197 0.0
C1066 C 0.29237 0.96362 0.76548 0.0
C1067 C 0.30874 0.98686 0.77008 0.0
C1068 C 0.32837 0.98688 0.7928 0.0
C1069 C 0.33309 0.96298 0.8087 0.0
C1070 C 0.27051 0.96318 0.74228 0.0
C1071 C 0.34625 0.01129 0.79848 0.0
H1072 H 0.34587 0.03069 0.6897 0.0
H1073 H 0.28977 0.07594 0.74297 0.0
H1074 H 0.35716 0.97865 0.73514 0.0
H1075 H 0.32865 0.96481 0.71591 0.0
H1076 H 0.35375 0.98429 0.69627 0.0
H1077 H 0.26019 0.05307 0.77657 0.0
H1078 H 0.26213 0.01666 0.78134 0.0
H1079 H 0.28555 0.03842 0.80014 0.0
H1080 H 0.28665 0.92142 0.77634 0.0
H1081 H 0.34931 0.9626 0.8248 0.0
H1082 H 0.27995 0.96003 0.72046 0.0
H1083 H 0.25939 0.98279 0.74161 0.0
H1084 H 0.25573 0.94647 0.74609 0.0
H1085 H 0.36007 0.01439 0.77953 0.0
H1086 H 0.35878 0.00885 0.81857 0.0
H1087 H 0.33377 0.02993 0.80078 0.0
C1088 C 0.03325 0.32555 0.79682 0.0
C1089 C 0.058 0.3143 0.78782 0.0
C1090 C 0.00927 0.32018 0.78139 0.0
C1091 C 0.00999 0.30249 0.7569 0.0
C1092 C 0.03436 0.28884 0.74963 0.0
C1093 C 0.05828 0.29526 0.76491 0.0
C1094 C 0.98373 0.33535 0.78978 0.0
C1095 C 0.03564 0.26886 0.72456 0.0
C1096 C 0.93889 0.29066 0.7287 0.0
C1097 C 0.9368 0.31161 0.70792 0.0
C1098 C 0.96364 0.28533 0.74286 0.0
C1099 C 0.9864 0.30193 0.73668 0.0
C1100 C 0.98495 0.32149 0.71392 0.0
C1101 C 0.96022 0.32581 0.69952 0.0
C1102 C 0.96481 0.26336 0.76592 0.0
C1103 C 0.00871 0.33976 0.70673 0.0
H1104 H 0.03289 0.34019 0.81459 0.0
H1105 H 0.07733 0.28615 0.75819 0.0
H1106 H 0.97816 0.3497 0.77197 0.0
H1107 H 0.96656 0.32101 0.79259 0.0
H1108 H 0.98622 0.3471 0.81042 0.0
H1109 H 0.0534 0.25506 0.72666 0.0
H1110 H 0.01684 0.25645 0.72338 0.0
H1111 H 0.03762 0.2801 0.70358 0.0
H1112 H 0.92092 0.27927 0.73488 0.0
H1113 H 0.9588 0.3419 0.68334 0.0
H1114 H 0.96246 0.27262 0.78795 0.0
H1115 H 0.98467 0.25269 0.76544 0.0
H1116 H 0.9483 0.24821 0.76293 0.0
H1117 H 0.01281 0.35345 0.72557 0.0
H1118 H 0.00489 0.35247 0.687 0.0
H1119 H 0.02729 0.32755 0.70292 0.0
C1120 C 0.32988 0.04876 0.27015 0.0
C1121 C 0.34837 0.05467 0.29276 0.0
C1122 C 0.33017 0.0236 0.25583 0.0
C1123 C 0.34917 0.00364 0.26452 0.0
C1124 C 0.36732 0.00904 0.28794 0.0
C1125 C 0.36678 0.03458 0.30174 0.0
C1126 C 0.31051 0.01861 0.23094 0.0
C1127 C 0.38759 0.988 0.29805 0.0
C1128 C 0.33337 0.93071 0.24415 0.0
C1129 C 0.3505 0.92648 0.21993 0.0
C1130 C 0.33293 0.95563 0.25897 0.0
C1131 C 0.34979 0.97703 0.24917 0.0
C1132 C 0.36671 0.9732 0.22437 0.0
C1133 C 0.36696 0.94788 0.21009 0.0
C1134 C 0.31468 0.95891 0.28538 0.0
C1135 C 0.38468 -0.00423 0.21309 0.0
H1136 H 0.31556 0.06412 0.26297 0.0
H1137 H 0.38114 0.03897 0.31912 0.0
H1138 H 0.3219 0.01428 0.21047 0.0
H1139 H 0.29779 0.00052 0.23572 0.0
H1140 H 0.2969 0.03625 0.22698 0.0
H1141 H 0.39972 -0.00493 0.31713 0.0
H1142 H 0.37691 0.96897 0.30421 0.0
H1143 H 0.40168 0.98296 0.27987 0.0
H1144 H 0.32063 0.9143 0.25207 0.0
H1145 H 0.38027 0.94478 0.19147 0.0
H1146 H 0.30011 0.97576 0.28164 0.0
H1147 H 0.327 0.96435 0.3049 0.0
H1148 H 0.30301 0.94014 0.29036 0.0
H1149 H 0.37216 0.0138 0.20748 0.0
H1150 H 0.3964 0.98962 0.19336 0.0
H1151 H 0.39916 0.00211 0.23043 0.0
C1152 C 0.9481 0.36978 0.29585 0.0
C1153 C 0.92559 0.35505 0.28573 0.0
C1154 C 0.9733 0.36794 0.28159 0.0
C1155 C 0.97603 0.35086 0.25676 0.0
C1156 C 0.95365 0.33528 0.24703 0.0
C1157 C 0.9287 0.33758 0.26159 0.0
C1158 C -0.0032 0.38483 0.29261 0.0
C1159 C 0.95588 0.31665 0.22081 0.0
C1160 C 0.03262 0.36794 0.20332 0.0
C1161 C 0.05312 0.35 0.21233 0.0
C1162 C 0.00722 0.36811 0.21728 0.0
C1163 C 0.00218 0.34976 0.2406 0.0
C1164 C 0.02239 0.33088 0.24899 0.0
C1165 C 0.04763 0.33126 0.2348 0.0
C1166 C 0.98608 0.38852 0.20772 0.0
C1167 C 0.01763 0.3108 0.27354 0.0
H1168 H 0.94587 0.38334 0.31442 0.0
H1169 H 0.91145 0.326 0.25368 0.0
H1170 H 0.01447 0.37158 0.29749 0.0
H1171 H 0.00324 0.39938 0.27535 0.0
H1172 H 0.99157 0.39647 0.31271 0.0
H1173 H 0.93691 0.30496 0.21688 0.0
H1174 H 0.96052 0.32874 0.20088 0.0
H1175 H 0.97285 0.30209 0.22394 0.0
H1176 H 0.03672 0.38253 0.18606 0.0
H1177 H 0.0633 0.3172 0.2418 0.0
H1178 H 0.98157 0.40263 0.22606 0.0
H1179 H 0.96686 0.37799 0.20203 0.0
H1180 H 0.99279 0.40066 0.18849 0.0
H1181 H 0.01462 0.32187 0.29448 0.0
H1182 H 0.03488 0.29646 0.27627 0.0
H1183 H -0.00112 0.2989 0.26933 0.0
C1184 C 0.62008 0.94818 0.30497 0.0
C1185 C 0.63906 0.92838 0.2967 0.0
C1186 C 0.62055 0.97421 0.29229 0.0
C1187 C 0.64054 0.98051 0.271 0.0
C1188 C 0.6604 0.96097 0.26348 0.0
C1189 C 0.65942 0.93517 0.27642 0.0
C1190 C 0.59913 -0.00535 0.30093 0.0
C1191 C 0.68217 0.96702 0.24105 0.0
C1192 C 0.62498 0.03621 0.21581 0.0
C1193 C 0.63913 0.05834 0.22775 0.0
C1194 C 0.62536 0.0107 0.22962 0.0
C1195 C 0.64029 0.00727 0.25593 0.0
C1196 C 0.65509 0.02933 0.26773 0.0
C1197 C 0.65435 0.05458 0.2535 0.0
C1198 C 0.60944 0.98752 0.21633 0.0
C1199 C 0.67137 0.02638 0.29564 0.0
H1200 H 0.60425 0.94308 0.32056 0.0
H1201 H 0.67429 0.92005 0.27001 0.0
H1202 H 0.60883 0.01387 0.30819 0.0
H1203 H 0.58627 -0.00046 0.28166 0.0
H1204 H 0.58584 0.98705 0.31884 0.0
H1205 H 0.69691 0.95006 0.23874 0.0
H1206 H 0.67267 0.97083 0.21937 0.0
H1207 H 0.69344 0.98569 0.24722 0.0
H1208 H 0.61311 0.03893 0.19599 0.0
H1209 H 0.6654 0.07152 0.26292 0.0
H1210 H 0.59385 0.98034 0.2321 0.0
H1211 H 0.62314 0.97013 0.21176 0.0
H1212 H 0.59915 0.99344 0.1956 0.0
H1213 H 0.65776 0.0206 0.314 0.0
H1214 H 0.68217 0.04542 0.30165 0.0
H1215 H 0.68657 0.00989 0.2932 0.0
C1216 C 0.03808 0.62767 0.29391 0.0
C1217 C 0.0633 0.63616 0.28296 0.0
C1218 C 0.01439 0.63031 0.27698 0.0
C1219 C 0.016 0.64171 0.24848 0.0
C1220 C 0.04128 0.65077 0.23753 0.0
C1221 C 0.06459 0.64792 0.2549 0.0
C1222 C 0.98768 0.62055 0.28941 0.0
C1223 C 0.04377 0.66312 0.20731 0.0
C1224 C 0.95836 0.62365 0.19672 0.0
C1225 C 0.9412 0.6462 0.19998 0.0
C1226 C 0.98327 0.62229 0.21164 0.0
C1227 C 0.99118 0.64404 0.23012 0.0
C1228 C 0.97473 0.66753 0.23208 0.0
C1229 C 0.94995 0.66834 0.21697 0.0
C1230 C 0.00046 0.59701 0.2088 0.0
C1231 C 0.98263 0.69126 0.2513 0.0
H1232 H 0.03689 0.61855 0.31551 0.0
H1233 H 0.08397 0.65461 0.2462 0.0
H1234 H 0.97276 0.63745 0.28961 0.0
H1235 H 0.9792 0.60426 0.27529 0.0
H1236 H 0.9898 0.61255 0.31209 0.0
H1237 H 0.06485 0.66972 0.20231 0.0
H1238 H 0.03735 0.64811 0.19051 0.0
H1239 H 0.03009 0.68094 0.20529 0.0
H1240 H 0.95175 0.60645 0.18368 0.0
H1241 H 0.93691 0.68593 0.21948 0.0
H1242 H 0.00107 0.58619 0.23015 0.0
H1243 H 0.02166 0.6025 0.20307 0.0
H1244 H 0.99249 0.58285 0.19188 0.0
H1245 H 0.98234 0.68488 0.27465 0.0
H1246 H 0.96869 0.70884 0.24862 0.0
H1247 H 0.00361 0.698 0.24621 0.0
loop_
_geom_bond_atom_site_label_1
_geom_bond_atom_site_label_2
_geom_bond_distance
_geom_bond_site_symmetry_2
_ccdc_geom_bond_type
O0 Cd1 2.223 . S
O0 C8 1.315 . S
Cd1 O0 2.223 . S
Cd1 O4 2.297 . S
Cd1 O5 2.439 . S
Cd1 O11 2.240 . S
Cd2 O3 2.240 . S
Cd2 O10 2.223 . S
Cd2 O12 2.297 . S
Cd2 O13 2.439 . S
O3 Cd2 2.240 . S
O3 C8 1.279 . S
O4 Cd1 2.297 . S
O4 C6 1.247 . S
O5 Cd1 2.439 . S
O5 C6 1.208 . S
C6 O4 1.247 . S
C6 O5 1.208 . S
C7 O12 1.247 . S
C7 O13 1.208 . S
C8 O0 1.315 . S
C8 O3 1.279 . S
C9 O10 1.315 . S
C9 O11 1.279 . S
O10 Cd2 2.223 . S
O10 C9 1.315 . S
O11 Cd1 2.240 . S
O11 C9 1.279 . S
O12 Cd2 2.297 . S
O12 C7 1.247 . S
O13 Cd2 2.439 . S
O13 C7 1.208 . S
O14 Cd15 2.223 . S
O14 C22 1.315 . S
Cd15 O14 2.223 . S
Cd15 O18 2.297 . S
Cd15 O19 2.439 . S
Cd15 O25 2.240 . S
Cd16 O17 2.240 . S
Cd16 O24 2.223 . S
Cd16 O26 2.297 . S
Cd16 O27 2.439 . S
O17 Cd16 2.240 . S
O17 C22 1.279 . S
O18 Cd15 2.297 . S
O18 C20 1.247 . S
O19 Cd15 2.439 . S
O19 C20 1.208 . S
C20 O18 1.247 . S
C20 O19 1.208 . S
C21 O26 1.247 . S
C21 O27 1.208 . S
C22 O14 1.315 . S
C22 O17 1.279 . S
C23 O24 1.315 . S
C23 O25 1.279 . S
O24 Cd16 2.223 . S
O24 C23 1.315 . S
O25 Cd15 2.240 . S
O25 C23 1.279 . S
O26 Cd16 2.297 . S
O26 C21 1.247 . S
O27 Cd16 2.439 . S
O27 C21 1.208 . S
O28 Cd29 2.223 . S
O28 C36 1.315 . S
Cd29 O28 2.223 . S
Cd29 O32 2.297 . S
Cd29 O33 2.439 . S
Cd29 O39 2.240 . S
Cd30 O31 2.240 . S
Cd30 O38 2.223 . S
Cd30 O40 2.297 . S
Cd30 O41 2.439 . S
O31 Cd30 2.240 . S
O31 C36 1.279 . S
O32 Cd29 2.297 . S
O32 C34 1.247 . S
O33 Cd29 2.439 . S
O33 C34 1.208 . S
C34 O32 1.247 . S
C34 O33 1.208 . S
C35 O40 1.247 . S
C35 O41 1.208 . S
C36 O28 1.315 . S
C36 O31 1.279 . S
C37 O38 1.315 . S
C37 O39 1.279 . S
O38 Cd30 2.223 . S
O38 C37 1.315 . S
O39 Cd29 2.240 . S
O39 C37 1.279 . S
O40 Cd30 2.297 . S
O40 C35 1.247 . S
O41 Cd30 2.439 . S
O41 C35 1.208 . S
O42 Cd43 2.223 . S
O42 C50 1.315 . S
Cd43 O42 2.223 . S
Cd43 O46 2.297 . S
Cd43 O47 2.439 . S
Cd43 O53 2.240 . S
Cd44 O45 2.240 . S
Cd44 O52 2.223 . S
Cd44 O54 2.297 . S
Cd44 O55 2.439 . S
O45 Cd44 2.240 . S
O45 C50 1.279 . S
O46 Cd43 2.297 . S
O46 C48 1.247 . S
O47 Cd43 2.439 . S
O47 C48 1.208 . S
C48 O46 1.247 . S
C48 O47 1.208 . S
C49 O54 1.247 . S
C49 O55 1.208 . S
C50 O42 1.315 . S
C50 O45 1.279 . S
C51 O52 1.315 . S
C51 O53 1.279 . S
O52 Cd44 2.223 . S
O52 C51 1.315 . S
O53 Cd43 2.240 . S
O53 C51 1.279 . S
O54 Cd44 2.297 . S
O54 C49 1.247 . S
O55 Cd44 2.439 . S
O55 C49 1.208 . S
O56 Cd57 2.223 . S
O56 C64 1.315 . S
Cd57 O56 2.223 . S
Cd57 O60 2.297 . S
Cd57 O61 2.439 . S
Cd57 O67 2.240 . S
Cd58 O59 2.240 . S
Cd58 O66 2.223 . S
Cd58 O68 2.297 . S
Cd58 O69 2.439 . S
O59 Cd58 2.240 . S
O59 C64 1.279 . S
O60 Cd57 2.297 . S
O60 C62 1.247 . S
O61 Cd57 2.439 . S
O61 C62 1.208 . S
C62 O60 1.247 . S
C62 O61 1.208 . S
C63 O68 1.247 . S
C63 O69 1.208 . S
C64 O56 1.315 . S
C64 O59 1.279 . S
C65 O66 1.315 . S
C65 O67 1.279 . S
O66 Cd58 2.223 . S
O66 C65 1.315 . S
O67 Cd57 2.240 . S
O67 C65 1.279 . S
O68 Cd58 2.297 . S
O68 C63 1.247 . S
O69 Cd58 2.439 . S
O69 C63 1.208 . S
O70 Cd71 2.223 . S
O70 C78 1.315 . S
Cd71 O70 2.223 . S
Cd71 O74 2.297 . S
Cd71 O75 2.439 . S
Cd71 O81 2.240 . S
Cd72 O73 2.240 . S
Cd72 O80 2.223 . S
Cd72 O82 2.297 . S
Cd72 O83 2.439 . S
O73 Cd72 2.240 . S
O73 C78 1.279 . S
O74 Cd71 2.297 . S
O74 C76 1.247 . S
O75 Cd71 2.439 . S
O75 C76 1.208 . S
C76 O74 1.247 . S
C76 O75 1.208 . S
C77 O82 1.247 . S
C77 O83 1.208 . S
C78 O70 1.315 . S
C78 O73 1.279 . S
C79 O80 1.315 . S
C79 O81 1.279 . S
O80 Cd72 2.223 . S
O80 C79 1.315 . S
O81 Cd71 2.240 . S
O81 C79 1.279 . S
O82 Cd72 2.297 . S
O82 C77 1.247 . S
O83 Cd72 2.439 . S
O83 C77 1.208 . S
O84 Cd85 2.223 . S
O84 C92 1.315 . S
Cd85 O84 2.223 . S
Cd85 O88 2.297 . S
Cd85 O89 2.439 . S
Cd85 O95 2.240 . S
Cd86 O87 2.240 . S
Cd86 O94 2.223 . S
Cd86 O96 2.297 . S
Cd86 O97 2.439 . S
O87 Cd86 2.240 . S
O87 C92 1.279 . S
O88 Cd85 2.297 . S
O88 C90 1.247 . S
O89 Cd85 2.439 . S
O89 C90 1.208 . S
C90 O88 1.247 . S
C90 O89 1.208 . S
C91 O96 1.247 . S
C91 O97 1.208 . S
C92 O84 1.315 . S
C92 O87 1.279 . S
C93 O94 1.315 . S
C93 O95 1.279 . S
O94 Cd86 2.223 . S
O94 C93 1.315 . S
O95 Cd85 2.240 . S
O95 C93 1.279 . S
O96 Cd86 2.297 . S
O96 C91 1.247 . S
O97 Cd86 2.439 . S
O97 C91 1.208 . S
O98 Cd99 2.223 . S
O98 C106 1.315 . S
Cd99 O98 2.223 . S
Cd99 O102 2.297 . S
Cd99 O103 2.439 . S
Cd99 O109 2.240 . S
Cd100 O101 2.240 . S
Cd100 O108 2.223 . S
Cd100 O110 2.297 . S
Cd100 O111 2.439 . S
O101 Cd100 2.240 . S
O101 C106 1.279 . S
O102 Cd99 2.297 . S
O102 C104 1.247 . S
O103 Cd99 2.439 . S
O103 C104 1.208 . S
C104 O102 1.247 . S
C104 O103 1.208 . S
C105 O110 1.247 . S
C105 O111 1.208 . S
C106 O98 1.315 . S
C106 O101 1.279 . S
C107 O108 1.315 . S
C107 O109 1.279 . S
O108 Cd100 2.223 . S
O108 C107 1.315 . S
O109 Cd99 2.240 . S
O109 C107 1.279 . S
O110 Cd100 2.297 . S
O110 C105 1.247 . S
O111 Cd100 2.439 . S
O111 C105 1.208 . S
O112 Cd113 2.223 . S
O112 C120 1.315 . S
Cd113 O112 2.223 . S
Cd113 O116 2.297 . S
Cd113 O117 2.439 . S
Cd113 O123 2.240 . S
Cd114 O115 2.240 . S
Cd114 O122 2.223 . S
Cd114 O124 2.297 . S
Cd114 O125 2.439 . S
O115 Cd114 2.240 . S
O115 C120 1.279 . S
O116 Cd113 2.297 . S
O116 C118 1.247 . S
O117 Cd113 2.439 . S
O117 C118 1.208 . S
C118 O116 1.247 . S
C118 O117 1.208 . S
C119 O124 1.247 . S
C119 O125 1.208 . S
C120 O112 1.315 . S
C120 O115 1.279 . S
C121 O122 1.315 . S
C121 O123 1.279 . S
O122 Cd114 2.223 . S
O122 C121 1.315 . S
O123 Cd113 2.240 . S
O123 C121 1.279 . S
O124 Cd114 2.297 . S
O124 C119 1.247 . S
O125 Cd114 2.439 . S
O125 C119 1.208 . S
O126 Cd127 2.223 . S
O126 C134 1.315 . S
Cd127 O126 2.223 . S
Cd127 O130 2.297 . S
Cd127 O131 2.439 . S
Cd127 O137 2.240 . S
Cd128 O129 2.240 . S
Cd128 O136 2.223 . S
Cd128 O138 2.297 . S
Cd128 O139 2.439 . S
O129 Cd128 2.240 . S
O129 C134 1.279 . S
O130 Cd127 2.297 . S
O130 C132 1.247 . S
O131 Cd127 2.439 . S
O131 C132 1.208 . S
C132 O130 1.247 . S
C132 O131 1.208 . S
C133 O138 1.247 . S
C133 O139 1.208 . S
C134 O126 1.315 . S
C134 O129 1.279 . S
C135 O136 1.315 . S
C135 O137 1.279 . S
O136 Cd128 2.223 . S
O136 C135 1.315 . S
O137 Cd127 2.240 . S
O137 C135 1.279 . S
O138 Cd128 2.297 . S
O138 C133 1.247 . S
O139 Cd128 2.439 . S
O139 C133 1.208 . S
O140 Cd141 2.223 . S
O140 C148 1.315 . S
Cd141 O140 2.223 . S
Cd141 O144 2.297 . S
Cd141 O145 2.439 . S
Cd141 O151 2.240 . S
Cd142 O143 2.240 . S
Cd142 O150 2.223 . S
Cd142 O152 2.297 . S
Cd142 O153 2.439 . S
O143 Cd142 2.240 . S
O143 C148 1.279 . S
O144 Cd141 2.297 . S
O144 C146 1.247 . S
O145 Cd141 2.439 . S
O145 C146 1.208 . S
C146 O144 1.247 . S
C146 O145 1.208 . S
C147 O152 1.247 . S
C147 O153 1.208 . S
C148 O140 1.315 . S
C148 O143 1.279 . S
C149 O150 1.315 . S
C149 O151 1.279 . S
O150 Cd142 2.223 . S
O150 C149 1.315 . S
O151 Cd141 2.240 . S
O151 C149 1.279 . S
O152 Cd142 2.297 . S
O152 C147 1.247 . S
O153 Cd142 2.439 . S
O153 C147 1.208 . S
O154 Cd155 2.223 . S
O154 C162 1.315 . S
Cd155 O154 2.223 . S
Cd155 O158 2.297 . S
Cd155 O159 2.439 . S
Cd155 O165 2.240 . S
Cd156 O157 2.240 . S
Cd156 O164 2.223 . S
Cd156 O166 2.297 . S
Cd156 O167 2.439 . S
O157 Cd156 2.240 . S
O157 C162 1.279 . S
O158 Cd155 2.297 . S
O158 C160 1.247 . S
O159 Cd155 2.439 . S
O159 C160 1.208 . S
C160 O158 1.247 . S
C160 O159 1.208 . S
C161 O166 1.247 . S
C161 O167 1.208 . S
C162 O154 1.315 . S
C162 O157 1.279 . S
C163 O164 1.315 . S
C163 O165 1.279 . S
O164 Cd156 2.223 . S
O164 C163 1.315 . S
O165 Cd155 2.240 . S
O165 C163 1.279 . S
O166 Cd156 2.297 . S
O166 C161 1.247 . S
O167 Cd156 2.439 . S
O167 C161 1.208 . S
O168 Cd169 2.223 . S
O168 C176 1.315 . S
Cd169 O168 2.223 . S
Cd169 O172 2.297 . S
Cd169 O173 2.439 . S
Cd169 O179 2.240 . S
Cd170 O171 2.240 . S
Cd170 O178 2.223 . S
Cd170 O180 2.297 . S
Cd170 O181 2.439 . S
O171 Cd170 2.240 . S
O171 C176 1.279 . S
O172 Cd169 2.297 . S
O172 C174 1.247 . S
O173 Cd169 2.439 . S
O173 C174 1.208 . S
C174 O172 1.247 . S
C174 O173 1.208 . S
C175 O180 1.247 . S
C175 O181 1.208 . S
C176 O168 1.315 . S
C176 O171 1.279 . S
C177 O178 1.315 . S
C177 O179 1.279 . S
O178 Cd170 2.223 . S
O178 C177 1.315 . S
O179 Cd169 2.240 . S
O179 C177 1.279 . S
O180 Cd170 2.297 . S
O180 C175 1.247 . S
O181 Cd170 2.439 . S
O181 C175 1.208 . S
O182 Cd183 2.223 . S
O182 C190 1.315 . S
Cd183 O182 2.223 . S
Cd183 O186 2.297 . S
Cd183 O187 2.439 . S
Cd183 O193 2.240 . S
Cd184 O185 2.240 . S
Cd184 O192 2.223 . S
Cd184 O194 2.297 . S
Cd184 O195 2.439 . S
O185 Cd184 2.240 . S
O185 C190 1.279 . S
O186 Cd183 2.297 . S
O186 C188 1.247 . S
O187 Cd183 2.439 . S
O187 C188 1.208 . S
C188 O186 1.247 . S
C188 O187 1.208 . S
C189 O194 1.247 . S
C189 O195 1.208 . S
C190 O182 1.315 . S
C190 O185 1.279 . S
C191 O192 1.315 . S
C191 O193 1.279 . S
O192 Cd184 2.223 . S
O192 C191 1.315 . S
O193 Cd183 2.240 . S
O193 C191 1.279 . S
O194 Cd184 2.297 . S
O194 C189 1.247 . S
O195 Cd184 2.439 . S
O195 C189 1.208 . S
O196 Cd197 2.223 . S
O196 C204 1.315 . S
Cd197 O196 2.223 . S
Cd197 O200 2.297 . S
Cd197 O201 2.439 . S
Cd197 O207 2.240 . S
Cd198 O199 2.240 . S
Cd198 O206 2.223 . S
Cd198 O208 2.297 . S
Cd198 O209 2.439 . S
O199 Cd198 2.240 . S
O199 C204 1.279 . S
O200 Cd197 2.297 . S
O200 C202 1.247 . S
O201 Cd197 2.439 . S
O201 C202 1.208 . S
C202 O200 1.247 . S
C202 O201 1.208 . S
C203 O208 1.247 . S
C203 O209 1.208 . S
C204 O196 1.315 . S
C204 O199 1.279 . S
C205 O206 1.315 . S
C205 O207 1.279 . S
O206 Cd198 2.223 . S
O206 C205 1.315 . S
O207 Cd197 2.240 . S
O207 C205 1.279 . S
O208 Cd198 2.297 . S
O208 C203 1.247 . S
O209 Cd198 2.439 . S
O209 C203 1.208 . S
O210 Cd211 2.223 . S
O210 C218 1.315 . S
Cd211 O210 2.223 . S
Cd211 O214 2.297 . S
Cd211 O215 2.439 . S
Cd211 O221 2.240 . S
Cd212 O213 2.240 . S
Cd212 O220 2.223 . S
Cd212 O222 2.297 . S
Cd212 O223 2.439 . S
O213 Cd212 2.240 . S
O213 C218 1.279 . S
O214 Cd211 2.297 . S
O214 C216 1.247 . S
O215 Cd211 2.439 . S
O215 C216 1.208 . S
C216 O214 1.247 . S
C216 O215 1.208 . S
C217 O222 1.247 . S
C217 O223 1.208 . S
C218 O210 1.315 . S
C218 O213 1.279 . S
C219 O220 1.315 . S
C219 O221 1.279 . S
O220 Cd212 2.223 . S
O220 C219 1.315 . S
O221 Cd211 2.240 . S
O221 C219 1.279 . S
O222 Cd212 2.297 . S
O222 C217 1.247 . S
O223 Cd212 2.439 . S
O223 C217 1.208 . S
C224 C225 1.391 . S
C224 C226 1.394 . S
C224 H240 0.931 . S
C225 C224 1.391 . S
C225 C229 1.376 . S
C226 C224 1.394 . S
C226 C227 1.369 . S
C226 C230 1.531 . S
C227 C226 1.369 . S
C227 C228 1.410 . S
C227 C235 1.503 . S
C228 C227 1.410 . S
C228 C229 1.392 . S
C228 C231 1.511 . S
C229 C225 1.376 . S
C229 C228 1.392 . S
C229 H241 0.929 . S
C230 C226 1.531 . S
C230 H242 0.960 . S
C230 H243 0.962 . S
C230 H244 0.960 . S
C231 C228 1.511 . S
C231 H245 0.961 . S
C231 H246 0.961 . S
C231 H247 0.961 . S
C232 C233 1.370 . S
C232 C234 1.363 . S
C232 H248 0.931 . S
C233 C232 1.370 . S
C233 C237 1.408 . S
C234 C232 1.363 . S
C234 C235 1.370 . S
C234 C238 1.524 . S
C235 C227 1.503 . S
C235 C234 1.370 . S
C235 C236 1.403 . S
C236 C235 1.403 . S
C236 C237 1.404 . S
C236 C239 1.539 . S
C237 C233 1.408 . S
C237 C236 1.404 . S
C237 H249 0.930 . S
C238 C234 1.524 . S
C238 H250 0.956 . S
C238 H251 0.961 . S
C238 H252 0.961 . S
C239 C236 1.539 . S
C239 H253 0.958 . S
C239 H254 0.961 . S
C239 H255 0.960 . S
H240 C224 0.931 . S
H241 C229 0.929 . S
H242 C230 0.960 . S
H243 C230 0.962 . S
H244 C230 0.960 . S
H245 C231 0.961 . S
H246 C231 0.961 . S
H247 C231 0.961 . S
H248 C232 0.931 . S
H249 C237 0.930 . S
H250 C238 0.956 . S
H251 C238 0.961 . S
H252 C238 0.961 . S
H253 C239 0.958 . S
H254 C239 0.961 . S
H255 C239 0.960 . S
C256 C257 1.391 . S
C256 C258 1.394 . S
C256 H272 0.931 . S
C257 C256 1.391 . S
C257 C261 1.376 . S
C258 C256 1.394 . S
C258 C259 1.369 . S
C258 C262 1.531 . S
C259 C258 1.369 . S
C259 C260 1.410 . S
C259 C267 1.503 . S
C260 C259 1.410 . S
C260 C261 1.392 . S
C260 C263 1.511 . S
C261 C257 1.376 . S
C261 C260 1.392 . S
C261 H273 0.929 . S
C262 C258 1.531 . S
C262 H274 0.960 . S
C262 H275 0.962 . S
C262 H276 0.960 . S
C263 C260 1.511 . S
C263 H277 0.961 . S
C263 H278 0.961 . S
C263 H279 0.961 . S
C264 C265 1.370 . S
C264 C266 1.363 . S
C264 H280 0.931 . S
C265 C264 1.370 . S
C265 C269 1.408 . S
C266 C264 1.363 . S
C266 C267 1.370 . S
C266 C270 1.524 . S
C267 C259 1.503 . S
C267 C266 1.370 . S
C267 C268 1.403 . S
C268 C267 1.403 . S
C268 C269 1.404 . S
C268 C271 1.539 . S
C269 C265 1.408 . S
C269 C268 1.404 . S
C269 H281 0.930 . S
C270 C266 1.524 . S
C270 H282 0.956 . S
C270 H283 0.961 . S
C270 H284 0.961 . S
C271 C268 1.539 . S
C271 H285 0.958 . S
C271 H286 0.961 . S
C271 H287 0.960 . S
H272 C256 0.931 . S
H273 C261 0.929 . S
H274 C262 0.960 . S
H275 C262 0.962 . S
H276 C262 0.960 . S
H277 C263 0.961 . S
H278 C263 0.961 . S
H279 C263 0.961 . S
H280 C264 0.931 . S
H281 C269 0.930 . S
H282 C270 0.956 . S
H283 C270 0.961 . S
H284 C270 0.961 . S
H285 C271 0.958 . S
H286 C271 0.961 . S
H287 C271 0.960 . S
C288 C289 1.391 . S
C288 C290 1.394 . S
C288 H304 0.931 . S
C289 C288 1.391 . S
C289 C293 1.376 . S
C290 C288 1.394 . S
C290 C291 1.369 . S
C290 C294 1.531 . S
C291 C290 1.369 . S
C291 C292 1.410 . S
C291 C299 1.503 . S
C292 C291 1.410 . S
C292 C293 1.392 . S
C292 C295 1.511 . S
C293 C289 1.376 . S
C293 C292 1.392 . S
C293 H305 0.929 . S
C294 C290 1.531 . S
C294 H306 0.960 . S
C294 H307 0.962 . S
C294 H308 0.960 . S
C295 C292 1.511 . S
C295 H309 0.961 . S
C295 H310 0.961 . S
C295 H311 0.961 . S
C296 C297 1.370 . S
C296 C298 1.363 . S
C296 H312 0.931 . S
C297 C296 1.370 . S
C297 C301 1.408 . S
C298 C296 1.363 . S
C298 C299 1.370 . S
C298 C302 1.524 . S
C299 C291 1.503 . S
C299 C298 1.370 . S
C299 C300 1.403 . S
C300 C299 1.403 . S
C300 C301 1.404 . S
C300 C303 1.539 . S
C301 C297 1.408 . S
C301 C300 1.404 . S
C301 H313 0.930 . S
C302 C298 1.524 . S
C302 H314 0.956 . S
C302 H315 0.961 . S
C302 H316 0.961 . S
C303 C300 1.539 . S
C303 H317 0.958 . S
C303 H318 0.961 . S
C303 H319 0.960 . S
H304 C288 0.931 . S
H305 C293 0.929 . S
H306 C294 0.960 . S
H307 C294 0.962 . S
H308 C294 0.960 . S
H309 C295 0.961 . S
H310 C295 0.961 . S
H311 C295 0.961 . S
H312 C296 0.931 . S
H313 C301 0.930 . S
H314 C302 0.956 . S
H315 C302 0.961 . S
H316 C302 0.961 . S
H317 C303 0.958 . S
H318 C303 0.961 . S
H319 C303 0.960 . S
C320 C321 1.391 . S
C320 C322 1.394 . S
C320 H336 0.931 . S
C321 C320 1.391 . S
C321 C325 1.376 . S
C322 C320 1.394 . S
C322 C323 1.369 . S
C322 C326 1.531 . S
C323 C322 1.369 . S
C323 C324 1.410 . S
C323 C331 1.503 . S
C324 C323 1.410 . S
C324 C325 1.392 . S
C324 C327 1.511 . S
C325 C321 1.376 . S
C325 C324 1.392 . S
C325 H337 0.929 . S
C326 C322 1.531 . S
C326 H338 0.960 . S
C326 H339 0.962 . S
C326 H340 0.960 . S
C327 C324 1.511 . S
C327 H341 0.961 . S
C327 H342 0.961 . S
C327 H343 0.961 . S
C328 C329 1.370 . S
C328 C330 1.363 . S
C328 H344 0.931 . S
C329 C328 1.370 . S
C329 C333 1.408 . S
C330 C328 1.363 . S
C330 C331 1.370 . S
C330 C334 1.524 . S
C331 C323 1.503 . S
C331 C330 1.370 . S
C331 C332 1.403 . S
C332 C331 1.403 . S
C332 C333 1.404 . S
C332 C335 1.539 . S
C333 C329 1.408 . S
C333 C332 1.404 . S
C333 H345 0.930 . S
C334 C330 1.524 . S
C334 H346 0.956 . S
C334 H347 0.961 . S
C334 H348 0.961 . S
C335 C332 1.539 . S
C335 H349 0.958 . S
C335 H350 0.961 . S
C335 H351 0.960 . S
H336 C320 0.931 . S
H337 C325 0.929 . S
H338 C326 0.960 . S
H339 C326 0.962 . S
H340 C326 0.960 . S
H341 C327 0.961 . S
H342 C327 0.961 . S
H343 C327 0.961 . S
H344 C328 0.931 . S
H345 C333 0.930 . S
H346 C334 0.956 . S
H347 C334 0.961 . S
H348 C334 0.961 . S
H349 C335 0.958 . S
H350 C335 0.961 . S
H351 C335 0.960 . S
C352 C353 1.391 . S
C352 C354 1.394 . S
C352 H368 0.931 . S
C353 C352 1.391 . S
C353 C357 1.376 . S
C354 C352 1.394 . S
C354 C355 1.369 . S
C354 C358 1.531 . S
C355 C354 1.369 . S
C355 C356 1.410 . S
C355 C363 1.503 . S
C356 C355 1.410 . S
C356 C357 1.392 . S
C356 C359 1.511 . S
C357 C353 1.376 . S
C357 C356 1.392 . S
C357 H369 0.929 . S
C358 C354 1.531 . S
C358 H370 0.960 . S
C358 H371 0.962 . S
C358 H372 0.960 . S
C359 C356 1.511 . S
C359 H373 0.961 . S
C359 H374 0.961 . S
C359 H375 0.961 . S
C360 C361 1.370 . S
C360 C362 1.363 . S
C360 H376 0.931 . S
C361 C360 1.370 . S
C361 C365 1.408 . S
C362 C360 1.363 . S
C362 C363 1.370 . S
C362 C366 1.524 . S
C363 C355 1.503 . S
C363 C362 1.370 . S
C363 C364 1.403 . S
C364 C363 1.403 . S
C364 C365 1.404 . S
C364 C367 1.539 . S
C365 C361 1.408 . S
C365 C364 1.404 . S
C365 H377 0.930 . S
C366 C362 1.524 . S
C366 H378 0.956 . S
C366 H379 0.961 . S
C366 H380 0.961 . S
C367 C364 1.539 . S
C367 H381 0.958 . S
C367 H382 0.961 . S
C367 H383 0.960 . S
H368 C352 0.931 . S
H369 C357 0.929 . S
H370 C358 0.960 . S
H371 C358 0.962 . S
H372 C358 0.960 . S
H373 C359 0.961 . S
H374 C359 0.961 . S
H375 C359 0.961 . S
H376 C360 0.931 . S
H377 C365 0.930 . S
H378 C366 0.956 . S
H379 C366 0.961 . S
H380 C366 0.961 . S
H381 C367 0.958 . S
H382 C367 0.961 . S
H383 C367 0.960 . S
C384 C385 1.391 . S
C384 C386 1.394 . S
C384 H400 0.931 . S
C385 C384 1.391 . S
C385 C389 1.376 . S
C386 C384 1.394 . S
C386 C387 1.369 . S
C386 C390 1.531 . S
C387 C386 1.369 . S
C387 C388 1.410 . S
C387 C395 1.503 . S
C388 C387 1.410 . S
C388 C389 1.392 . S
C388 C391 1.511 . S
C389 C385 1.376 . S
C389 C388 1.392 . S
C389 H401 0.929 . S
C390 C386 1.531 . S
C390 H402 0.960 . S
C390 H403 0.962 . S
C390 H404 0.960 . S
C391 C388 1.511 . S
C391 H405 0.961 . S
C391 H406 0.961 . S
C391 H407 0.961 . S
C392 C393 1.370 . S
C392 C394 1.363 . S
C392 H408 0.931 . S
C393 C392 1.370 . S
C393 C397 1.408 . S
C394 C392 1.363 . S
C394 C395 1.370 . S
C394 C398 1.524 . S
C395 C387 1.503 . S
C395 C394 1.370 . S
C395 C396 1.403 . S
C396 C395 1.403 . S
C396 C397 1.404 . S
C396 C399 1.539 . S
C397 C393 1.408 . S
C397 C396 1.404 . S
C397 H409 0.930 . S
C398 C394 1.524 . S
C398 H410 0.956 . S
C398 H411 0.961 . S
C398 H412 0.961 . S
C399 C396 1.539 . S
C399 H413 0.958 . S
C399 H414 0.961 . S
C399 H415 0.960 . S
H400 C384 0.931 . S
H401 C389 0.929 . S
H402 C390 0.960 . S
H403 C390 0.962 . S
H404 C390 0.960 . S
H405 C391 0.961 . S
H406 C391 0.961 . S
H407 C391 0.961 . S
H408 C392 0.931 . S
H409 C397 0.930 . S
H410 C398 0.956 . S
H411 C398 0.961 . S
H412 C398 0.961 . S
H413 C399 0.958 . S
H414 C399 0.961 . S
H415 C399 0.960 . S
C416 C417 1.391 . S
C416 C418 1.394 . S
C416 H432 0.931 . S
C417 C416 1.391 . S
C417 C421 1.376 . S
C418 C416 1.394 . S
C418 C419 1.369 . S
C418 C422 1.531 . S
C419 C418 1.369 . S
C419 C420 1.410 . S
C419 C427 1.503 . S
C420 C419 1.410 . S
C420 C421 1.392 . S
C420 C423 1.511 . S
C421 C417 1.376 . S
C421 C420 1.392 . S
C421 H433 0.929 . S
C422 C418 1.531 . S
C422 H434 0.960 . S
C422 H435 0.962 . S
C422 H436 0.960 . S
C423 C420 1.511 . S
C423 H437 0.961 . S
C423 H438 0.961 . S
C423 H439 0.961 . S
C424 C425 1.370 . S
C424 C426 1.363 . S
C424 H440 0.931 . S
C425 C424 1.370 . S
C425 C429 1.408 . S
C426 C424 1.363 . S
C426 C427 1.370 . S
C426 C430 1.524 . S
C427 C419 1.503 . S
C427 C426 1.370 . S
C427 C428 1.403 . S
C428 C427 1.403 . S
C428 C429 1.404 . S
C428 C431 1.539 . S
C429 C425 1.408 . S
C429 C428 1.404 . S
C429 H441 0.930 . S
C430 C426 1.524 . S
C430 H442 0.956 . S
C430 H443 0.961 . S
C430 H444 0.961 . S
C431 C428 1.539 . S
C431 H445 0.958 . S
C431 H446 0.961 . S
C431 H447 0.960 . S
H432 C416 0.931 . S
H433 C421 0.929 . S
H434 C422 0.960 . S
H435 C422 0.962 . S
H436 C422 0.960 . S
H437 C423 0.961 . S
H438 C423 0.961 . S
H439 C423 0.961 . S
H440 C424 0.931 . S
H441 C429 0.930 . S
H442 C430 0.956 . S
H443 C430 0.961 . S
H444 C430 0.961 . S
H445 C431 0.958 . S
H446 C431 0.961 . S
H447 C431 0.960 . S
C448 C449 1.391 . S
C448 C450 1.394 . S
C448 H464 0.931 . S
C449 C448 1.391 . S
C449 C453 1.376 . S
C450 C448 1.394 . S
C450 C451 1.369 . S
C450 C454 1.531 . S
C451 C450 1.369 . S
C451 C452 1.410 . S
C451 C459 1.503 . S
C452 C451 1.410 . S
C452 C453 1.392 . S
C452 C455 1.511 . S
C453 C449 1.376 . S
C453 C452 1.392 . S
C453 H465 0.929 . S
C454 C450 1.531 . S
C454 H466 0.960 . S
C454 H467 0.962 . S
C454 H468 0.960 . S
C455 C452 1.511 . S
C455 H469 0.961 . S
C455 H470 0.961 . S
C455 H471 0.961 . S
C456 C457 1.370 . S
C456 C458 1.363 . S
C456 H472 0.931 . S
C457 C456 1.370 . S
C457 C461 1.408 . S
C458 C456 1.363 . S
C458 C459 1.370 . S
C458 C462 1.524 . S
C459 C451 1.503 . S
C459 C458 1.370 . S
C459 C460 1.403 . S
C460 C459 1.403 . S
C460 C461 1.404 . S
C460 C463 1.539 . S
C461 C457 1.408 . S
C461 C460 1.404 . S
C461 H473 0.930 . S
C462 C458 1.524 . S
C462 H474 0.956 . S
C462 H475 0.961 . S
C462 H476 0.961 . S
C463 C460 1.539 . S
C463 H477 0.958 . S
C463 H478 0.961 . S
C463 H479 0.960 . S
H464 C448 0.931 . S
H465 C453 0.929 . S
H466 C454 0.960 . S
H467 C454 0.962 . S
H468 C454 0.960 . S
H469 C455 0.961 . S
H470 C455 0.961 . S
H471 C455 0.961 . S
H472 C456 0.931 . S
H473 C461 0.930 . S
H474 C462 0.956 . S
H475 C462 0.961 . S
H476 C462 0.961 . S
H477 C463 0.958 . S
H478 C463 0.961 . S
H479 C463 0.960 . S
C480 C481 1.391 . S
C480 C482 1.394 . S
C480 H496 0.931 . S
C481 C480 1.391 . S
C481 C485 1.376 . S
C482 C480 1.394 . S
C482 C483 1.369 . S
C482 C486 1.531 . S
C483 C482 1.369 . S
C483 C484 1.410 . S
C483 C491 1.503 1_556 S
C484 C483 1.410 . S
C484 C485 1.392 . S
C484 C487 1.511 . S
C485 C481 1.376 . S
C485 C484 1.392 . S
C485 H497 0.929 . S
C486 C482 1.531 . S
C486 H498 0.960 . S
C486 H499 0.962 . S
C486 H500 0.960 . S
C487 C484 1.511 . S
C487 H501 0.961 . S
C487 H502 0.961 1_556 S
C487 H503 0.961 . S
C488 C489 1.370 . S
C488 C490 1.363 . S
C488 H504 0.931 . S
C489 C488 1.370 . S
C489 C493 1.408 . S
C490 C488 1.363 . S
C490 C491 1.370 . S
C490 C494 1.524 . S
C491 C483 1.503 1_554 S
C491 C490 1.370 . S
C491 C492 1.403 . S
C492 C491 1.403 . S
C492 C493 1.404 . S
C492 C495 1.539 . S
C493 C489 1.408 . S
C493 C492 1.404 . S
C493 H505 0.930 . S
C494 C490 1.524 . S
C494 H506 0.967 . S
C494 H507 0.975 . S
C494 H508 0.961 . S
C495 C492 1.539 . S
C495 H509 0.958 . S
C495 H510 0.961 . S
C495 H511 0.970 . S
H496 C480 0.931 . S
H497 C485 0.929 . S
H498 C486 0.960 . S
H499 C486 0.962 . S
H500 C486 0.960 . S
H501 C487 0.961 . S
H502 C487 0.961 1_554 S
H503 C487 0.961 . S
H504 C488 0.931 . S
H505 C493 0.930 . S
H506 C494 0.967 . S
H507 C494 0.975 . S
H508 C494 0.961 . S
H509 C495 0.958 . S
H510 C495 0.961 . S
H511 C495 0.970 . S
C512 C513 1.391 . S
C512 C514 1.394 . S
C512 H528 0.931 . S
C513 C512 1.391 . S
C513 C517 1.376 . S
C514 C512 1.394 . S
C514 C515 1.369 . S
C514 C518 1.531 . S
C515 C514 1.369 . S
C515 C516 1.410 . S
C515 C523 1.503 1_556 S
C516 C515 1.410 . S
C516 C517 1.392 . S
C516 C519 1.511 . S
C517 C513 1.376 . S
C517 C516 1.392 . S
C517 H529 0.929 . S
C518 C514 1.531 . S
C518 H530 0.960 1_556 S
C518 H531 0.962 . S
C518 H532 0.960 . S
C519 C516 1.511 . S
C519 H533 0.961 . S
C519 H534 0.961 1_556 S
C519 H535 0.961 . S
C520 C521 1.370 . S
C520 C522 1.363 . S
C520 H536 0.931 . S
C521 C520 1.370 . S
C521 C525 1.408 . S
C522 C520 1.363 . S
C522 C523 1.370 . S
C522 C526 1.524 . S
C523 C515 1.503 1_554 S
C523 C522 1.370 . S
C523 C524 1.403 . S
C524 C523 1.403 . S
C524 C525 1.404 . S
C524 C527 1.539 . S
C525 C521 1.408 . S
C525 C524 1.404 . S
C525 H537 0.930 . S
C526 C522 1.524 . S
C526 H538 0.956 1_554 S
C526 H539 0.961 1_554 S
C526 H540 0.961 . S
C527 C524 1.539 . S
C527 H541 0.958 . S
C527 H542 0.961 . S
C527 H543 0.960 . S
H528 C512 0.931 . S
H529 C517 0.929 . S
H530 C518 0.960 1_554 S
H531 C518 0.962 . S
H532 C518 0.960 . S
H533 C519 0.961 . S
H534 C519 0.961 1_554 S
H535 C519 0.961 . S
H536 C520 0.931 . S
H537 C525 0.930 . S
H538 C526 0.956 1_556 S
H539 C526 0.961 1_556 S
H540 C526 0.961 . S
H541 C527 0.958 . S
H542 C527 0.961 . S
H543 C527 0.960 . S
C544 C545 1.391 . S
C544 C546 1.394 . S
C544 H560 0.931 . S
C545 C544 1.391 . S
C545 C549 1.376 . S
C546 C544 1.394 . S
C546 C547 1.369 . S
C546 C550 1.531 . S
C547 C546 1.369 . S
C547 C548 1.410 . S
C547 C555 1.503 1_556 S
C548 C547 1.410 . S
C548 C549 1.392 . S
C548 C551 1.511 . S
C549 C545 1.376 . S
C549 C548 1.392 . S
C549 H561 0.929 . S
C550 C546 1.531 . S
C550 H562 0.960 1_556 S
C550 H563 0.962 . S
C550 H564 0.960 . S
C551 C548 1.511 . S
C551 H565 0.961 . S
C551 H566 0.961 . S
C551 H567 0.961 . S
C552 C553 1.370 . S
C552 C554 1.363 . S
C552 H568 0.931 . S
C553 C552 1.370 . S
C553 C557 1.408 . S
C554 C552 1.363 . S
C554 C555 1.370 . S
C554 C558 1.524 . S
C555 C547 1.503 1_554 S
C555 C554 1.370 . S
C555 C556 1.403 . S
C556 C555 1.403 . S
C556 C557 1.404 . S
C556 C559 1.539 . S
C557 C553 1.408 . S
C557 C556 1.404 . S
C557 H569 0.930 . S
C558 C554 1.524 . S
C558 H570 0.956 . S
C558 H571 0.961 1_554 S
C558 H572 0.961 . S
C559 C556 1.539 . S
C559 H573 0.958 . S
C559 H574 0.961 . S
C559 H575 0.960 1_554 S
H560 C544 0.931 . S
H561 C549 0.929 . S
H562 C550 0.960 1_554 S
H563 C550 0.962 . S
H564 C550 0.960 . S
H565 C551 0.961 . S
H566 C551 0.961 . S
H567 C551 0.961 . S
H568 C552 0.931 . S
H569 C557 0.930 . S
H570 C558 0.956 . S
H571 C558 0.961 1_556 S
H572 C558 0.961 . S
H573 C559 0.958 . S
H574 C559 0.961 . S
H575 C559 0.960 1_556 S
C576 C577 1.391 . S
C576 C578 1.394 . S
C576 H592 0.931 . S
C577 C576 1.391 . S
C577 C581 1.376 . S
C578 C576 1.394 . S
C578 C579 1.369 . S
C578 C582 1.531 . S
C579 C578 1.369 . S
C579 C580 1.410 . S
C579 C587 1.503 1_554 S
C580 C579 1.410 . S
C580 C581 1.392 . S
C580 C583 1.511 . S
C581 C577 1.376 . S
C581 C580 1.392 . S
C581 H593 0.929 . S
C582 C578 1.531 . S
C582 H594 0.960 1_554 S
C582 H595 0.962 . S
C582 H596 0.960 . S
C583 C580 1.511 . S
C583 H597 0.961 . S
C583 H598 0.961 . S
C583 H599 0.961 . S
C584 C585 1.370 . S
C584 C586 1.363 . S
C584 H600 0.931 . S
C585 C584 1.370 . S
C585 C589 1.408 . S
C586 C584 1.363 . S
C586 C587 1.370 . S
C586 C590 1.524 . S
C587 C579 1.503 1_556 S
C587 C586 1.370 . S
C587 C588 1.403 . S
C588 C587 1.403 . S
C588 C589 1.404 . S
C588 C591 1.539 . S
C589 C585 1.408 . S
C589 C588 1.404 . S
C589 H601 0.930 . S
C590 C586 1.524 . S
C590 H602 0.957 . S
C590 H603 0.961 1_556 S
C590 H604 0.961 . S
C591 C588 1.539 . S
C591 H605 0.958 . S
C591 H606 0.961 . S
C591 H607 0.960 . S
H592 C576 0.931 . S
H593 C581 0.929 . S
H594 C582 0.960 1_556 S
H595 C582 0.962 . S
H596 C582 0.960 . S
H597 C583 0.961 . S
H598 C583 0.961 . S
H599 C583 0.961 . S
H600 C584 0.931 . S
H601 C589 0.930 . S
H602 C590 0.957 . S
H603 C590 0.961 1_554 S
H604 C590 0.961 . S
H605 C591 0.958 . S
H606 C591 0.961 . S
H607 C591 0.960 . S
C608 C609 1.391 . S
C608 C610 1.394 . S
C608 H624 0.931 . S
C609 C608 1.391 . S
C609 C613 1.376 . S
C610 C608 1.394 . S
C610 C611 1.369 . S
C610 C614 1.531 . S
C611 C610 1.369 . S
C611 C612 1.410 . S
C611 C619 1.503 . S
C612 C611 1.410 . S
C612 C613 1.392 . S
C612 C615 1.511 . S
C613 C609 1.376 . S
C613 C612 1.392 . S
C613 H625 0.929 . S
C614 C610 1.531 . S
C614 H626 0.960 . S
C614 H627 0.962 . S
C614 H628 0.960 . S
C615 C612 1.511 . S
C615 H629 0.961 . S
C615 H630 0.961 . S
C615 H631 0.961 . S
C616 C617 1.370 . S
C616 C618 1.363 . S
C616 H632 0.931 . S
C617 C616 1.370 . S
C617 C621 1.408 . S
C618 C616 1.363 . S
C618 C619 1.370 . S
C618 C622 1.524 . S
C619 C611 1.503 . S
C619 C618 1.370 . S
C619 C620 1.403 . S
C620 C619 1.403 . S
C620 C621 1.404 . S
C620 C623 1.539 . S
C621 C617 1.408 . S
C621 C620 1.404 . S
C621 H633 0.930 . S
C622 C618 1.524 . S
C622 H634 0.956 . S
C622 H635 0.961 . S
C622 H636 0.961 . S
C623 C620 1.539 . S
C623 H637 0.958 . S
C623 H638 0.961 . S
C623 H639 0.960 . S
H624 C608 0.931 . S
H625 C613 0.929 . S
H626 C614 0.960 . S
H627 C614 0.962 . S
H628 C614 0.960 . S
H629 C615 0.961 . S
H630 C615 0.961 . S
H631 C615 0.961 . S
H632 C616 0.931 . S
H633 C621 0.930 . S
H634 C622 0.956 . S
H635 C622 0.961 . S
H636 C622 0.961 . S
H637 C623 0.958 . S
H638 C623 0.961 . S
H639 C623 0.960 . S
C640 C641 1.391 . S
C640 C642 1.394 . S
C640 H656 0.931 . S
C641 C640 1.391 . S
C641 C645 1.376 . S
C642 C640 1.394 . S
C642 C643 1.369 . S
C642 C646 1.531 . S
C643 C642 1.369 . S
C643 C644 1.410 . S
C643 C651 1.503 . S
C644 C643 1.410 . S
C644 C645 1.392 . S
C644 C647 1.511 . S
C645 C641 1.376 . S
C645 C644 1.392 . S
C645 H657 0.929 . S
C646 C642 1.531 . S
C646 H658 0.960 . S
C646 H659 0.962 . S
C646 H660 0.960 . S
C647 C644 1.511 . S
C647 H661 0.961 . S
C647 H662 0.961 . S
C647 H663 0.961 . S
C648 C649 1.370 . S
C648 C650 1.363 . S
C648 H664 0.931 . S
C649 C648 1.370 . S
C649 C653 1.408 . S
C650 C648 1.363 . S
C650 C651 1.370 . S
C650 C654 1.524 . S
C651 C643 1.503 . S
C651 C650 1.370 . S
C651 C652 1.403 . S
C652 C651 1.403 . S
C652 C653 1.404 . S
C652 C655 1.539 . S
C653 C649 1.408 . S
C653 C652 1.404 . S
C653 H665 0.930 . S
C654 C650 1.524 . S
C654 H666 0.956 . S
C654 H667 0.961 . S
C654 H668 0.961 . S
C655 C652 1.539 . S
C655 H669 0.958 . S
C655 H670 0.961 . S
C655 H671 0.960 . S
H656 C640 0.931 . S
H657 C645 0.929 . S
H658 C646 0.960 . S
H659 C646 0.962 . S
H660 C646 0.960 . S
H661 C647 0.961 . S
H662 C647 0.961 . S
H663 C647 0.961 . S
H664 C648 0.931 . S
H665 C653 0.930 . S
H666 C654 0.956 . S
H667 C654 0.961 . S
H668 C654 0.961 . S
H669 C655 0.958 . S
H670 C655 0.961 . S
H671 C655 0.960 . S
C672 C673 1.391 . S
C672 C674 1.394 . S
C672 H688 0.931 . S
C673 C672 1.391 . S
C673 C677 1.376 . S
C674 C672 1.394 . S
C674 C675 1.369 . S
C674 C678 1.531 . S
C675 C674 1.369 . S
C675 C676 1.410 . S
C675 C683 1.503 . S
C676 C675 1.410 . S
C676 C677 1.392 . S
C676 C679 1.511 . S
C677 C673 1.376 . S
C677 C676 1.392 . S
C677 H689 0.929 . S
C678 C674 1.531 . S
C678 H690 0.960 . S
C678 H691 0.962 . S
C678 H692 0.960 . S
C679 C676 1.511 . S
C679 H693 0.961 . S
C679 H694 0.961 . S
C679 H695 0.961 . S
C680 C681 1.370 . S
C680 C682 1.363 . S
C680 H696 0.931 . S
C681 C680 1.370 . S
C681 C685 1.408 . S
C682 C680 1.363 . S
C682 C683 1.370 . S
C682 C686 1.524 . S
C683 C675 1.503 . S
C683 C682 1.370 . S
C683 C684 1.403 . S
C684 C683 1.403 . S
C684 C685 1.404 . S
C684 C687 1.539 . S
C685 C681 1.408 . S
C685 C684 1.404 . S
C685 H697 0.930 . S
C686 C682 1.524 . S
C686 H698 0.956 . S
C686 H699 0.961 . S
C686 H700 0.961 . S
C687 C684 1.539 . S
C687 H701 0.958 . S
C687 H702 0.961 . S
C687 H703 0.960 . S
H688 C672 0.931 . S
H689 C677 0.929 . S
H690 C678 0.960 . S
H691 C678 0.962 . S
H692 C678 0.960 . S
H693 C679 0.961 . S
H694 C679 0.961 . S
H695 C679 0.961 . S
H696 C680 0.931 . S
H697 C685 0.930 . S
H698 C686 0.956 . S
H699 C686 0.961 . S
H700 C686 0.961 . S
H701 C687 0.958 . S
H702 C687 0.961 . S
H703 C687 0.960 . S
C704 C705 1.391 . S
C704 C706 1.394 . S
C704 H720 0.931 . S
C705 C704 1.391 . S
C705 C709 1.376 . S
C706 C704 1.394 . S
C706 C707 1.369 . S
C706 C710 1.531 . S
C707 C706 1.369 . S
C707 C708 1.410 . S
C707 C715 1.503 . S
C708 C707 1.410 . S
C708 C709 1.392 . S
C708 C711 1.511 . S
C709 C705 1.376 . S
C709 C708 1.392 . S
C709 H721 0.929 . S
C710 C706 1.531 . S
C710 H722 0.960 . S
C710 H723 0.962 . S
C710 H724 0.960 . S
C711 C708 1.511 . S
C711 H725 0.961 . S
C711 H726 0.961 . S
C711 H727 0.961 . S
C712 C713 1.370 . S
C712 C714 1.363 . S
C712 H728 0.931 . S
C713 C712 1.370 . S
C713 C717 1.408 . S
C714 C712 1.363 . S
C714 C715 1.370 . S
C714 C718 1.524 . S
C715 C707 1.503 . S
C715 C714 1.370 . S
C715 C716 1.403 . S
C716 C715 1.403 . S
C716 C717 1.404 . S
C716 C719 1.539 . S
C717 C713 1.408 . S
C717 C716 1.404 . S
C717 H729 0.930 . S
C718 C714 1.524 . S
C718 H730 0.956 . S
C718 H731 0.961 . S
C718 H732 0.961 . S
C719 C716 1.539 . S
C719 H733 0.958 . S
C719 H734 0.961 . S
C719 H735 0.960 . S
H720 C704 0.931 . S
H721 C709 0.929 . S
H722 C710 0.960 . S
H723 C710 0.962 . S
H724 C710 0.960 . S
H725 C711 0.961 . S
H726 C711 0.961 . S
H727 C711 0.961 . S
H728 C712 0.931 . S
H729 C717 0.930 . S
H730 C718 0.956 . S
H731 C718 0.961 . S
H732 C718 0.961 . S
H733 C719 0.958 . S
H734 C719 0.961 . S
H735 C719 0.960 . S
C736 C737 1.391 . S
C736 C738 1.394 . S
C736 H752 0.931 . S
C737 C736 1.391 . S
C737 C741 1.376 . S
C738 C736 1.394 . S
C738 C739 1.369 . S
C738 C742 1.531 . S
C739 C738 1.369 . S
C739 C740 1.410 . S
C739 C747 1.503 . S
C740 C739 1.410 . S
C740 C741 1.392 . S
C740 C743 1.511 . S
C741 C737 1.376 . S
C741 C740 1.392 . S
C741 H753 0.929 . S
C742 C738 1.531 . S
C742 H754 0.960 . S
C742 H755 0.962 . S
C742 H756 0.960 . S
C743 C740 1.511 . S
C743 H757 0.961 . S
C743 H758 0.961 . S
C743 H759 0.961 . S
C744 C745 1.370 . S
C744 C746 1.363 . S
C744 H760 0.931 . S
C745 C744 1.370 . S
C745 C749 1.408 . S
C746 C744 1.363 . S
C746 C747 1.370 . S
C746 C750 1.524 . S
C747 C739 1.503 . S
C747 C746 1.370 . S
C747 C748 1.403 . S
C748 C747 1.403 . S
C748 C749 1.404 . S
C748 C751 1.539 . S
C749 C745 1.408 . S
C749 C748 1.404 . S
C749 H761 0.930 . S
C750 C746 1.524 . S
C750 H762 0.956 . S
C750 H763 0.961 . S
C750 H764 0.961 . S
C751 C748 1.539 . S
C751 H765 0.958 . S
C751 H766 0.961 . S
C751 H767 0.960 . S
H752 C736 0.931 . S
H753 C741 0.929 . S
H754 C742 0.960 . S
H755 C742 0.962 . S
H756 C742 0.960 . S
H757 C743 0.961 . S
H758 C743 0.961 . S
H759 C743 0.961 . S
H760 C744 0.931 . S
H761 C749 0.930 . S
H762 C750 0.956 . S
H763 C750 0.961 . S
H764 C750 0.961 . S
H765 C751 0.958 . S
H766 C751 0.961 . S
H767 C751 0.960 . S
C768 C769 1.391 . S
C768 C770 1.394 . S
C768 H784 0.931 . S
C769 C768 1.391 . S
C769 C773 1.376 . S
C770 C768 1.394 . S
C770 C771 1.369 . S
C770 C774 1.531 . S
C771 C770 1.369 . S
C771 C772 1.410 . S
C771 C779 1.503 . S
C772 C771 1.410 . S
C772 C773 1.392 . S
C772 C775 1.511 . S
C773 C769 1.376 . S
C773 C772 1.392 . S
C773 H785 0.929 . S
C774 C770 1.531 . S
C774 H786 0.960 . S
C774 H787 0.962 . S
C774 H788 0.960 . S
C775 C772 1.511 . S
C775 H789 0.961 . S
C775 H790 0.961 . S
C775 H791 0.961 . S
C776 C777 1.370 . S
C776 C778 1.363 . S
C776 H792 0.931 . S
C777 C776 1.370 . S
C777 C781 1.408 . S
C778 C776 1.363 . S
C778 C779 1.370 . S
C778 C782 1.524 . S
C779 C771 1.503 . S
C779 C778 1.370 . S
C779 C780 1.403 . S
C780 C779 1.403 . S
C780 C781 1.404 . S
C780 C783 1.539 . S
C781 C777 1.408 . S
C781 C780 1.404 . S
C781 H793 0.930 . S
C782 C778 1.524 . S
C782 H794 0.956 . S
C782 H795 0.961 . S
C782 H796 0.961 . S
C783 C780 1.539 . S
C783 H797 0.958 . S
C783 H798 0.961 . S
C783 H799 0.960 . S
H784 C768 0.931 . S
H785 C773 0.929 . S
H786 C774 0.960 . S
H787 C774 0.962 . S
H788 C774 0.960 . S
H789 C775 0.961 . S
H790 C775 0.961 . S
H791 C775 0.961 . S
H792 C776 0.931 . S
H793 C781 0.930 . S
H794 C782 0.956 . S
H795 C782 0.961 . S
H796 C782 0.961 . S
H797 C783 0.958 . S
H798 C783 0.961 . S
H799 C783 0.960 . S
C800 C801 1.391 . S
C800 C802 1.394 . S
C800 H816 0.931 . S
C801 C800 1.391 . S
C801 C805 1.376 . S
C802 C800 1.394 . S
C802 C803 1.369 . S
C802 C806 1.531 . S
C803 C802 1.369 . S
C803 C804 1.410 . S
C803 C811 1.503 . S
C804 C803 1.410 . S
C804 C805 1.392 . S
C804 C807 1.511 . S
C805 C801 1.376 . S
C805 C804 1.392 . S
C805 H817 0.929 . S
C806 C802 1.531 . S
C806 H818 0.960 . S
C806 H819 0.962 . S
C806 H820 0.960 . S
C807 C804 1.511 . S
C807 H821 0.961 . S
C807 H822 0.961 . S
C807 H823 0.961 . S
C808 C809 1.370 . S
C808 C810 1.363 . S
C808 H824 0.931 . S
C809 C808 1.370 . S
C809 C813 1.408 . S
C810 C808 1.363 . S
C810 C811 1.370 . S
C810 C814 1.524 . S
C811 C803 1.503 . S
C811 C810 1.370 . S
C811 C812 1.403 . S
C812 C811 1.403 . S
C812 C813 1.404 . S
C812 C815 1.539 . S
C813 C809 1.408 . S
C813 C812 1.404 . S
C813 H825 0.930 . S
C814 C810 1.524 . S
C814 H826 0.956 . S
C814 H827 0.961 . S
C814 H828 0.961 . S
C815 C812 1.539 . S
C815 H829 0.958 . S
C815 H830 0.961 . S
C815 H831 0.960 . S
H816 C800 0.931 . S
H817 C805 0.929 . S
H818 C806 0.960 . S
H819 C806 0.962 . S
H820 C806 0.960 . S
H821 C807 0.961 . S
H822 C807 0.961 . S
H823 C807 0.961 . S
H824 C808 0.931 . S
H825 C813 0.930 . S
H826 C814 0.956 . S
H827 C814 0.961 . S
H828 C814 0.961 . S
H829 C815 0.958 . S
H830 C815 0.961 . S
H831 C815 0.960 . S
C832 C833 1.391 . S
C832 C834 1.394 . S
C832 H848 0.931 . S
C833 C832 1.391 . S
C833 C837 1.376 . S
C834 C832 1.394 . S
C834 C835 1.369 . S
C834 C838 1.531 . S
C835 C834 1.369 . S
C835 C836 1.410 . S
C835 C843 1.503 . S
C836 C835 1.410 . S
C836 C837 1.392 . S
C836 C839 1.511 . S
C837 C833 1.376 . S
C837 C836 1.392 . S
C837 H849 0.929 . S
C838 C834 1.531 . S
C838 H850 0.960 . S
C838 H851 0.962 . S
C838 H852 0.960 . S
C839 C836 1.511 . S
C839 H853 0.961 . S
C839 H854 0.961 . S
C839 H855 0.961 . S
C840 C841 1.370 . S
C840 C842 1.363 . S
C840 H856 0.931 . S
C841 C840 1.370 . S
C841 C845 1.408 . S
C842 C840 1.363 . S
C842 C843 1.370 . S
C842 C846 1.524 . S
C843 C835 1.503 . S
C843 C842 1.370 . S
C843 C844 1.403 . S
C844 C843 1.403 . S
C844 C845 1.404 . S
C844 C847 1.539 . S
C845 C841 1.408 . S
C845 C844 1.404 . S
C845 H857 0.930 . S
C846 C842 1.524 . S
C846 H858 0.956 . S
C846 H859 0.961 . S
C846 H860 0.961 . S
C847 C844 1.539 . S
C847 H861 0.958 . S
C847 H862 0.961 . S
C847 H863 0.960 . S
H848 C832 0.931 . S
H849 C837 0.929 . S
H850 C838 0.960 . S
H851 C838 0.962 . S
H852 C838 0.960 . S
H853 C839 0.961 . S
H854 C839 0.961 . S
H855 C839 0.961 . S
H856 C840 0.931 . S
H857 C845 0.930 . S
H858 C846 0.956 . S
H859 C846 0.961 . S
H860 C846 0.961 . S
H861 C847 0.958 . S
H862 C847 0.961 . S
H863 C847 0.960 . S
C864 C865 1.391 . S
C864 C866 1.394 . S
C864 H880 0.931 . S
C865 C864 1.391 . S
C865 C869 1.376 . S
C866 C864 1.394 . S
C866 C867 1.369 . S
C866 C870 1.531 . S
C867 C866 1.369 . S
C867 C868 1.410 . S
C867 C875 1.503 . S
C868 C867 1.410 . S
C868 C869 1.392 . S
C868 C871 1.511 . S
C869 C865 1.376 . S
C869 C868 1.392 . S
C869 H881 0.929 . S
C870 C866 1.531 . S
C870 H882 0.960 . S
C870 H883 0.962 . S
C870 H884 0.960 . S
C871 C868 1.511 . S
C871 H885 0.961 . S
C871 H886 0.961 . S
C871 H887 0.961 . S
C872 C873 1.370 . S
C872 C874 1.363 . S
C872 H888 0.931 . S
C873 C872 1.370 . S
C873 C877 1.408 . S
C874 C872 1.363 . S
C874 C875 1.370 . S
C874 C878 1.524 . S
C875 C867 1.503 . S
C875 C874 1.370 . S
C875 C876 1.403 . S
C876 C875 1.403 . S
C876 C877 1.404 . S
C876 C879 1.539 . S
C877 C873 1.408 . S
C877 C876 1.404 . S
C877 H889 0.930 . S
C878 C874 1.524 . S
C878 H890 0.956 . S
C878 H891 0.961 . S
C878 H892 0.961 . S
C879 C876 1.539 . S
C879 H893 0.958 . S
C879 H894 0.961 . S
C879 H895 0.960 . S
H880 C864 0.931 . S
H881 C869 0.929 . S
H882 C870 0.960 . S
H883 C870 0.962 . S
H884 C870 0.960 . S
H885 C871 0.961 . S
H886 C871 0.961 . S
H887 C871 0.961 . S
H888 C872 0.931 . S
H889 C877 0.930 . S
H890 C878 0.956 . S
H891 C878 0.961 . S
H892 C878 0.961 . S
H893 C879 0.958 . S
H894 C879 0.961 . S
H895 C879 0.960 . S
C896 C897 1.391 . S
C896 C898 1.394 . S
C896 H912 0.931 . S
C897 C896 1.391 . S
C897 C901 1.376 . S
C898 C896 1.394 . S
C898 C899 1.369 . S
C898 C902 1.531 . S
C899 C898 1.369 . S
C899 C900 1.410 . S
C899 C907 1.503 . S
C900 C899 1.410 . S
C900 C901 1.392 . S
C900 C903 1.511 . S
C901 C897 1.376 . S
C901 C900 1.392 . S
C901 H913 0.929 . S
C902 C898 1.531 . S
C902 H914 0.960 . S
C902 H915 0.962 . S
C902 H916 0.960 . S
C903 C900 1.511 . S
C903 H917 0.961 . S
C903 H918 0.961 . S
C903 H919 0.961 . S
C904 C905 1.370 . S
C904 C906 1.363 . S
C904 H920 0.931 . S
C905 C904 1.370 . S
C905 C909 1.408 . S
C906 C904 1.363 . S
C906 C907 1.370 . S
C906 C910 1.524 . S
C907 C899 1.503 . S
C907 C906 1.370 . S
C907 C908 1.403 . S
C908 C907 1.403 . S
C908 C909 1.404 . S
C908 C911 1.539 . S
C909 C905 1.408 . S
C909 C908 1.404 . S
C909 H921 0.930 . S
C910 C906 1.524 . S
C910 H922 0.956 . S
C910 H923 0.961 . S
C910 H924 0.961 . S
C911 C908 1.539 . S
C911 H925 0.958 . S
C911 H926 0.961 . S
C911 H927 0.960 . S
H912 C896 0.931 . S
H913 C901 0.929 . S
H914 C902 0.960 . S
H915 C902 0.962 . S
H916 C902 0.960 . S
H917 C903 0.961 . S
H918 C903 0.961 . S
H919 C903 0.961 . S
H920 C904 0.931 . S
H921 C909 0.930 . S
H922 C910 0.956 . S
H923 C910 0.961 . S
H924 C910 0.961 . S
H925 C911 0.958 . S
H926 C911 0.961 . S
H927 C911 0.960 . S
C928 C929 1.391 . S
C928 C930 1.394 . S
C928 H944 0.931 . S
C929 C928 1.391 . S
C929 C933 1.376 . S
C930 C928 1.394 . S
C930 C931 1.369 . S
C930 C934 1.531 . S
C931 C930 1.369 . S
C931 C932 1.410 . S
C931 C939 1.503 . S
C932 C931 1.410 . S
C932 C933 1.392 . S
C932 C935 1.511 . S
C933 C929 1.376 . S
C933 C932 1.392 . S
C933 H945 0.929 . S
C934 C930 1.531 . S
C934 H946 0.960 . S
C934 H947 0.962 . S
C934 H948 0.960 . S
C935 C932 1.511 . S
C935 H949 0.961 . S
C935 H950 0.961 . S
C935 H951 0.961 . S
C936 C937 1.370 . S
C936 C938 1.363 . S
C936 H952 0.931 . S
C937 C936 1.370 . S
C937 C941 1.408 . S
C938 C936 1.363 . S
C938 C939 1.370 . S
C938 C942 1.524 . S
C939 C931 1.503 . S
C939 C938 1.370 . S
C939 C940 1.403 . S
C940 C939 1.403 . S
C940 C941 1.404 . S
C940 C943 1.539 . S
C941 C937 1.408 . S
C941 C940 1.404 . S
C941 H953 0.930 . S
C942 C938 1.524 . S
C942 H954 0.956 . S
C942 H955 0.961 . S
C942 H956 0.961 . S
C943 C940 1.539 . S
C943 H957 0.958 . S
C943 H958 0.961 . S
C943 H959 0.960 . S
H944 C928 0.931 . S
H945 C933 0.929 . S
H946 C934 0.960 . S
H947 C934 0.962 . S
H948 C934 0.960 . S
H949 C935 0.961 . S
H950 C935 0.961 . S
H951 C935 0.961 . S
H952 C936 0.931 . S
H953 C941 0.930 . S
H954 C942 0.956 . S
H955 C942 0.961 . S
H956 C942 0.961 . S
H957 C943 0.958 . S
H958 C943 0.961 . S
H959 C943 0.960 . S
C960 C961 1.391 . S
C960 C962 1.394 . S
C960 H976 0.931 . S
C961 C960 1.391 . S
C961 C965 1.376 . S
C962 C960 1.394 . S
C962 C963 1.369 . S
C962 C966 1.531 . S
C963 C962 1.369 . S
C963 C964 1.410 . S
C963 C971 1.503 . S
C964 C963 1.410 . S
C964 C965 1.392 . S
C964 C967 1.511 . S
C965 C961 1.376 . S
C965 C964 1.392 . S
C965 H977 0.929 . S
C966 C962 1.531 . S
C966 H978 0.960 . S
C966 H979 0.962 . S
C966 H980 0.960 . S
C967 C964 1.511 . S
C967 H981 0.961 . S
C967 H982 0.961 . S
C967 H983 0.961 . S
C968 C969 1.370 . S
C968 C970 1.363 . S
C968 H984 0.931 . S
C969 C968 1.370 . S
C969 C973 1.408 . S
C970 C968 1.363 . S
C970 C971 1.370 . S
C970 C974 1.524 . S
C971 C963 1.503 . S
C971 C970 1.370 . S
C971 C972 1.403 . S
C972 C971 1.403 . S
C972 C973 1.404 . S
C972 C975 1.539 . S
C973 C969 1.408 . S
C973 C972 1.404 . S
C973 H985 0.930 . S
C974 C970 1.524 . S
C974 H986 0.956 . S
C974 H987 0.961 . S
C974 H988 0.961 . S
C975 C972 1.539 . S
C975 H989 0.958 . S
C975 H990 0.961 . S
C975 H991 0.960 . S
H976 C960 0.931 . S
H977 C965 0.929 . S
H978 C966 0.960 . S
H979 C966 0.962 . S
H980 C966 0.960 . S
H981 C967 0.961 . S
H982 C967 0.961 . S
H983 C967 0.961 . S
H984 C968 0.931 . S
H985 C973 0.930 . S
H986 C974 0.956 . S
H987 C974 0.961 . S
H988 C974 0.961 . S
H989 C975 0.958 . S
H990 C975 0.961 . S
H991 C975 0.960 . S
C992 C993 1.391 . S
C992 C994 1.394 . S
C992 H1008 0.931 . S
C993 C992 1.391 . S
C993 C997 1.376 . S
C994 C992 1.394 . S
C994 C995 1.369 . S
C994 C998 1.531 . S
C995 C994 1.369 . S
C995 C996 1.410 . S
C995 C1003 1.503 1_545 S
C996 C995 1.410 . S
C996 C997 1.392 . S
C996 C999 1.511 . S
C997 C993 1.376 . S
C997 C996 1.392 . S
C997 H1009 0.929 . S
C998 C994 1.531 . S
C998 H1010 0.960 . S
C998 H1011 0.962 . S
C998 H1012 0.960 . S
C999 C996 1.511 . S
C999 H1013 0.961 . S
C999 H1014 0.961 1_545 S
C999 H1015 0.961 . S
C1000 C1001 1.370 . S
C1000 C1002 1.363 . S
C1000 H1016 0.931 . S
C1001 C1000 1.370 . S
C1001 C1005 1.408 . S
C1002 C1000 1.363 . S
C1002 C1003 1.370 . S
C1002 C1006 1.524 . S
C1003 C995 1.503 1_565 S
C1003 C1002 1.370 . S
C1003 C1004 1.403 . S
C1004 C1003 1.403 . S
C1004 C1005 1.404 . S
C1004 C1007 1.539 1_565 S
C1005 C1001 1.408 . S
C1005 C1004 1.404 . S
C1005 H1017 0.930 . S
C1006 C1002 1.524 . S
C1006 H1018 0.956 . S
C1006 H1019 0.961 . S
C1006 H1020 0.961 . S
C1007 C1004 1.539 1_545 S
C1007 H1021 0.958 . S
C1007 H1022 0.957 1_545 S
C1007 H1023 0.960 . S
H1008 C992 0.931 . S
H1009 C997 0.929 . S
H1010 C998 0.960 . S
H1011 C998 0.962 . S
H1012 C998 0.960 . S
H1013 C999 0.961 . S
H1014 C999 0.961 1_565 S
H1015 C999 0.961 . S
H1016 C1000 0.931 . S
H1017 C1005 0.930 . S
H1018 C1006 0.956 . S
H1019 C1006 0.961 . S
H1020 C1006 0.961 . S
H1021 C1007 0.958 . S
H1022 C1007 0.957 1_565 S
H1023 C1007 0.960 . S
C1024 C1025 1.391 . S
C1024 C1026 1.394 . S
C1024 H1040 0.931 . S
C1025 C1024 1.391 . S
C1025 C1029 1.376 . S
C1026 C1024 1.394 . S
C1026 C1027 1.369 . S
C1026 C1030 1.543 . S
C1027 C1026 1.369 . S
C1027 C1028 1.410 . S
C1027 C1035 1.503 1_655 S
C1028 C1027 1.410 . S
C1028 C1029 1.392 . S
C1028 C1031 1.511 . S
C1029 C1025 1.376 . S
C1029 C1028 1.392 . S
C1029 H1041 0.929 . S
C1030 C1026 1.543 . S
C1030 H1042 0.942 1_655 S
C1030 H1043 0.963 . S
C1030 H1044 0.965 . S
C1031 C1028 1.511 . S
C1031 H1045 0.961 . S
C1031 H1046 0.961 . S
C1031 H1047 0.961 . S
C1032 C1033 1.370 . S
C1032 C1034 1.363 . S
C1032 H1048 0.931 . S
C1033 C1032 1.370 . S
C1033 C1037 1.408 . S
C1034 C1032 1.363 . S
C1034 C1035 1.370 . S
C1034 C1038 1.524 1_455 S
C1035 C1027 1.503 1_455 S
C1035 C1034 1.370 . S
C1035 C1036 1.403 . S
C1036 C1035 1.403 . S
C1036 C1037 1.404 . S
C1036 C1039 1.539 . S
C1037 C1033 1.408 . S
C1037 C1036 1.404 . S
C1037 H1049 0.930 . S
C1038 C1034 1.524 1_655 S
C1038 H1050 0.956 . S
C1038 H1051 0.961 . S
C1038 H1052 0.970 . S
C1039 C1036 1.539 . S
C1039 H1053 0.958 . S
C1039 H1054 0.961 . S
C1039 H1055 0.960 . S
H1040 C1024 0.931 . S
H1041 C1029 0.929 . S
H1042 C1030 0.942 1_455 S
H1043 C1030 0.963 . S
H1044 C1030 0.965 . S
H1045 C1031 0.961 . S
H1046 C1031 0.961 . S
H1047 C1031 0.961 . S
H1048 C1032 0.931 . S
H1049 C1037 0.930 . S
H1050 C1038 0.956 . S
H1051 C1038 0.961 . S
H1052 C1038 0.970 . S
H1053 C1039 0.958 . S
H1054 C1039 0.961 . S
H1055 C1039 0.960 . S
C1056 C1057 1.391 . S
C1056 C1058 1.394 . S
C1056 H1072 0.931 . S
C1057 C1056 1.391 . S
C1057 C1061 1.376 . S
C1058 C1056 1.394 . S
C1058 C1059 1.369 . S
C1058 C1062 1.531 1_545 S
C1059 C1058 1.369 . S
C1059 C1060 1.410 . S
C1059 C1067 1.503 1_545 S
C1060 C1059 1.410 . S
C1060 C1061 1.392 . S
C1060 C1063 1.511 . S
C1061 C1057 1.376 . S
C1061 C1060 1.392 . S
C1061 H1073 0.929 . S
C1062 C1058 1.531 1_565 S
C1062 H1074 0.960 . S
C1062 H1075 0.962 . S
C1062 H1076 0.962 . S
C1063 C1060 1.511 . S
C1063 H1077 0.961 . S
C1063 H1078 0.961 . S
C1063 H1079 0.961 . S
C1064 C1065 1.370 . S
C1064 C1066 1.363 . S
C1064 H1080 0.931 . S
C1065 C1064 1.370 . S
C1065 C1069 1.408 . S
C1066 C1064 1.363 . S
C1066 C1067 1.370 . S
C1066 C1070 1.524 . S
C1067 C1059 1.503 1_565 S
C1067 C1066 1.370 . S
C1067 C1068 1.403 . S
C1068 C1067 1.403 . S
C1068 C1069 1.404 . S
C1068 C1071 1.539 . S
C1069 C1065 1.408 . S
C1069 C1068 1.404 . S
C1069 H1081 0.930 . S
C1070 C1066 1.524 . S
C1070 H1082 0.956 . S
C1070 H1083 0.961 1_565 S
C1070 H1084 0.961 . S
C1071 C1068 1.539 . S
C1071 H1085 0.958 . S
C1071 H1086 0.961 . S
C1071 H1087 0.960 1_565 S
H1072 C1056 0.931 . S
H1073 C1061 0.929 . S
H1074 C1062 0.960 . S
H1075 C1062 0.962 . S
H1076 C1062 0.962 . S
H1077 C1063 0.961 . S
H1078 C1063 0.961 . S
H1079 C1063 0.961 . S
H1080 C1064 0.931 . S
H1081 C1069 0.930 . S
H1082 C1070 0.956 . S
H1083 C1070 0.961 1_545 S
H1084 C1070 0.961 . S
H1085 C1071 0.958 . S
H1086 C1071 0.961 . S
H1087 C1071 0.960 1_545 S
C1088 C1089 1.391 . S
C1088 C1090 1.394 . S
C1088 H1104 0.931 . S
C1089 C1088 1.391 . S
C1089 C1093 1.376 . S
C1090 C1088 1.394 . S
C1090 C1091 1.369 . S
C1090 C1094 1.515 1_455 S
C1091 C1090 1.369 . S
C1091 C1092 1.410 . S
C1091 C1099 1.503 1_455 S
C1092 C1091 1.410 . S
C1092 C1093 1.392 . S
C1092 C1095 1.511 . S
C1093 C1089 1.376 . S
C1093 C1092 1.392 . S
C1093 H1105 0.929 . S
C1094 C1090 1.515 1_655 S
C1094 H1106 0.974 . S
C1094 H1107 0.974 . S
C1094 H1108 0.951 1_655 S
C1095 C1092 1.511 . S
C1095 H1109 0.961 . S
C1095 H1110 0.961 . S
C1095 H1111 0.961 . S
C1096 C1097 1.370 . S
C1096 C1098 1.363 . S
C1096 H1112 0.931 . S
C1097 C1096 1.370 . S
C1097 C1101 1.408 . S
C1098 C1096 1.363 . S
C1098 C1099 1.370 . S
C1098 C1102 1.524 . S
C1099 C1091 1.503 1_655 S
C1099 C1098 1.370 . S
C1099 C1100 1.403 . S
C1100 C1099 1.403 . S
C1100 C1101 1.404 . S
C1100 C1103 1.565 . S
C1101 C1097 1.408 . S
C1101 C1100 1.404 . S
C1101 H1113 0.930 . S
C1102 C1098 1.524 . S
C1102 H1114 0.956 . S
C1102 H1115 0.961 . S
C1102 H1116 0.961 . S
C1103 C1100 1.565 . S
C1103 H1117 0.961 . S
C1103 H1118 0.971 . S
C1103 H1119 0.923 1_655 S
H1104 C1088 0.931 . S
H1105 C1093 0.929 . S
H1106 C1094 0.974 . S
H1107 C1094 0.974 . S
H1108 C1094 0.951 1_455 S
H1109 C1095 0.961 . S
H1110 C1095 0.961 . S
H1111 C1095 0.961 . S
H1112 C1096 0.931 . S
H1113 C1101 0.930 . S
H1114 C1102 0.956 . S
H1115 C1102 0.961 . S
H1116 C1102 0.961 . S
H1117 C1103 0.961 . S
H1118 C1103 0.971 . S
H1119 C1103 0.923 1_455 S
C1120 C1121 1.391 . S
C1120 C1122 1.394 . S
C1120 H1136 0.931 . S
C1121 C1120 1.391 . S
C1121 C1125 1.376 . S
C1122 C1120 1.394 . S
C1122 C1123 1.369 . S
C1122 C1126 1.531 . S
C1123 C1122 1.369 . S
C1123 C1124 1.410 . S
C1123 C1131 1.503 1_545 S
C1124 C1123 1.410 . S
C1124 C1125 1.392 . S
C1124 C1127 1.511 1_545 S
C1125 C1121 1.376 . S
C1125 C1124 1.392 . S
C1125 H1137 0.929 . S
C1126 C1122 1.531 . S
C1126 H1138 0.960 . S
C1126 H1139 0.962 . S
C1126 H1140 0.960 . S
C1127 C1124 1.511 1_565 S
C1127 H1141 0.961 . S
C1127 H1142 0.961 . S
C1127 H1143 0.961 . S
C1128 C1129 1.370 . S
C1128 C1130 1.363 . S
C1128 H1144 0.931 . S
C1129 C1128 1.370 . S
C1129 C1133 1.408 . S
C1130 C1128 1.363 . S
C1130 C1131 1.370 . S
C1130 C1134 1.524 . S
C1131 C1123 1.503 1_565 S
C1131 C1130 1.370 . S
C1131 C1132 1.403 . S
C1132 C1131 1.403 . S
C1132 C1133 1.404 . S
C1132 C1135 1.539 . S
C1133 C1129 1.408 . S
C1133 C1132 1.404 . S
C1133 H1145 0.930 . S
C1134 C1130 1.524 . S
C1134 H1146 0.956 . S
C1134 H1147 0.961 . S
C1134 H1148 0.961 . S
C1135 C1132 1.539 . S
C1135 H1149 0.958 1_565 S
C1135 H1150 0.961 . S
C1135 H1151 0.960 1_565 S
H1136 C1120 0.931 . S
H1137 C1125 0.929 . S
H1138 C1126 0.960 . S
H1139 C1126 0.962 . S
H1140 C1126 0.960 . S
H1141 C1127 0.961 . S
H1142 C1127 0.961 . S
H1143 C1127 0.961 . S
H1144 C1128 0.931 . S
H1145 C1133 0.930 . S
H1146 C1134 0.956 . S
H1147 C1134 0.961 . S
H1148 C1134 0.961 . S
H1149 C1135 0.958 1_545 S
H1150 C1135 0.961 . S
H1151 C1135 0.960 1_545 S
C1152 C1153 1.391 . S
C1152 C1154 1.394 . S
C1152 H1168 0.931 . S
C1153 C1152 1.391 . S
C1153 C1157 1.376 . S
C1154 C1152 1.394 . S
C1154 C1155 1.369 . S
C1154 C1158 1.531 1_655 S
C1155 C1154 1.369 . S
C1155 C1156 1.410 . S
C1155 C1163 1.503 1_655 S
C1156 C1155 1.410 . S
C1156 C1157 1.392 . S
C1156 C1159 1.511 . S
C1157 C1153 1.376 . S
C1157 C1156 1.392 . S
C1157 H1169 0.929 . S
C1158 C1154 1.531 1_455 S
C1158 H1170 0.960 . S
C1158 H1171 0.962 . S
C1158 H1172 0.960 . S
C1159 C1156 1.511 . S
C1159 H1173 0.961 . S
C1159 H1174 0.961 . S
C1159 H1175 0.961 . S
C1160 C1161 1.370 . S
C1160 C1162 1.363 . S
C1160 H1176 0.931 . S
C1161 C1160 1.370 . S
C1161 C1165 1.408 . S
C1162 C1160 1.363 . S
C1162 C1163 1.370 . S
C1162 C1166 1.524 . S
C1163 C1155 1.503 1_455 S
C1163 C1162 1.370 . S
C1163 C1164 1.403 . S
C1164 C1163 1.403 . S
C1164 C1165 1.404 . S
C1164 C1167 1.539 . S
C1165 C1161 1.408 . S
C1165 C1164 1.404 . S
C1165 H1177 0.930 . S
C1166 C1162 1.524 . S
C1166 H1178 0.956 . S
C1166 H1179 0.961 1_455 S
C1166 H1180 0.961 . S
C1167 C1164 1.539 . S
C1167 H1181 0.958 . S
C1167 H1182 0.961 . S
C1167 H1183 0.960 1_455 S
H1168 C1152 0.931 . S
H1169 C1157 0.929 . S
H1170 C1158 0.960 . S
H1171 C1158 0.962 . S
H1172 C1158 0.960 . S
H1173 C1159 0.961 . S
H1174 C1159 0.961 . S
H1175 C1159 0.961 . S
H1176 C1160 0.931 . S
H1177 C1165 0.930 . S
H1178 C1166 0.956 . S
H1179 C1166 0.961 1_655 S
H1180 C1166 0.961 . S
H1181 C1167 0.958 . S
H1182 C1167 0.961 . S
H1183 C1167 0.960 1_655 S
C1184 C1185 1.391 . S
C1184 C1186 1.394 . S
C1184 H1200 0.931 . S
C1185 C1184 1.391 . S
C1185 C1189 1.376 . S
C1186 C1184 1.394 . S
C1186 C1187 1.369 . S
C1186 C1190 1.531 . S
C1187 C1186 1.369 . S
C1187 C1188 1.410 . S
C1187 C1195 1.503 1_565 S
C1188 C1187 1.410 . S
C1188 C1189 1.392 . S
C1188 C1191 1.511 . S
C1189 C1185 1.376 . S
C1189 C1188 1.392 . S
C1189 H1201 0.929 . S
C1190 C1186 1.531 . S
C1190 H1202 0.960 1_565 S
C1190 H1203 0.962 . S
C1190 H1204 0.960 . S
C1191 C1188 1.511 . S
C1191 H1205 0.961 . S
C1191 H1206 0.961 1_565 S
C1191 H1207 0.961 1_565 S
C1192 C1193 1.370 . S
C1192 C1194 1.363 . S
C1192 H1208 0.931 . S
C1193 C1192 1.370 . S
C1193 C1197 1.408 . S
C1194 C1192 1.363 . S
C1194 C1195 1.370 . S
C1194 C1198 1.524 1_545 S
C1195 C1187 1.503 1_545 S
C1195 C1194 1.370 . S
C1195 C1196 1.403 . S
C1196 C1195 1.403 . S
C1196 C1197 1.404 . S
C1196 C1199 1.539 . S
C1197 C1193 1.408 . S
C1197 C1196 1.404 . S
C1197 H1209 0.930 . S
C1198 C1194 1.524 1_565 S
C1198 H1210 0.956 . S
C1198 H1211 0.961 . S
C1198 H1212 0.961 . S
C1199 C1196 1.539 . S
C1199 H1213 0.958 . S
C1199 H1214 0.961 . S
C1199 H1215 0.960 . S
H1200 C1184 0.931 . S
H1201 C1189 0.929 . S
H1202 C1190 0.960 1_545 S
H1203 C1190 0.962 . S
H1204 C1190 0.960 . S
H1205 C1191 0.961 . S
H1206 C1191 0.961 1_545 S
H1207 C1191 0.961 1_545 S
H1208 C1192 0.931 . S
H1209 C1197 0.930 . S
H1210 C1198 0.956 . S
H1211 C1198 0.961 . S
H1212 C1198 0.961 . S
H1213 C1199 0.958 . S
H1214 C1199 0.961 . S
H1215 C1199 0.960 . S
C1216 C1217 1.391 . S
C1216 C1218 1.394 . S
C1216 H1232 0.931 . S
C1217 C1216 1.391 . S
C1217 C1221 1.376 . S
C1218 C1216 1.394 . S
C1218 C1219 1.369 . S
C1218 C1222 1.531 1_455 S
C1219 C1218 1.369 . S
C1219 C1220 1.410 . S
C1219 C1227 1.503 1_455 S
C1220 C1219 1.410 . S
C1220 C1221 1.392 . S
C1220 C1223 1.511 . S
C1221 C1217 1.376 . S
C1221 C1220 1.392 . S
C1221 H1233 0.929 . S
C1222 C1218 1.531 1_655 S
C1222 H1234 0.960 . S
C1222 H1235 0.962 . S
C1222 H1236 0.960 . S
C1223 C1220 1.511 . S
C1223 H1237 0.961 . S
C1223 H1238 0.961 . S
C1223 H1239 0.961 . S
C1224 C1225 1.370 . S
C1224 C1226 1.363 . S
C1224 H1240 0.931 . S
C1225 C1224 1.370 . S
C1225 C1229 1.408 . S
C1226 C1224 1.363 . S
C1226 C1227 1.370 . S
C1226 C1230 1.524 . S
C1227 C1219 1.503 1_655 S
C1227 C1226 1.370 . S
C1227 C1228 1.403 . S
C1228 C1227 1.403 . S
C1228 C1229 1.404 . S
C1228 C1231 1.539 . S
C1229 C1225 1.408 . S
C1229 C1228 1.404 . S
C1229 H1241 0.930 . S
C1230 C1226 1.524 . S
C1230 H1242 0.956 . S
C1230 H1243 0.961 1_655 S
C1230 H1244 0.961 . S
C1231 C1228 1.539 . S
C1231 H1245 0.958 . S
C1231 H1246 0.961 . S
C1231 H1247 0.960 . S
H1232 C1216 0.931 . S
H1233 C1221 0.929 . S
H1234 C1222 0.960 . S
H1235 C1222 0.962 . S
H1236 C1222 0.960 . S
H1237 C1223 0.961 . S
H1238 C1223 0.961 . S
H1239 C1223 0.961 . S
H1240 C1224 0.931 . S
H1241 C1229 0.930 . S
H1242 C1230 0.956 . S
H1243 C1230 0.961 1_455 S
H1244 C1230 0.961 . S
H1245 C1231 0.958 . S
H1246 C1231 0.961 . S
H1247 C1231 0.960 . S
C225 C76 1.567 . S
C233 C6 1.581 . S
C257 C90 1.594 . S
C265 C20 1.570 . S
C289 C34 1.581 . S
C297 C104 1.560 . S
C321 C48 1.587 . S
C329 C62 1.562 . S
C353 C188 1.567 . S
C361 C118 1.557 . S
C385 C202 1.542 . S
C393 C132 1.561 . S
C417 C146 1.569 . S
C425 C216 1.581 . S
C449 C160 1.583 . S
C457 C174 1.560 . S
C481 C147 1.478 . S
C489 C7 1.489 . S
C513 C161 1.480 . S
C521 C21 1.508 . S
C545 C119 1.517 . S
C553 C35 1.501 . S
C577 C49 1.499 . S
C585 C133 1.508 . S
C609 C203 1.513 . S
C617 C63 1.503 . S
C641 C217 1.517 . S
C649 C77 1.489 . S
C673 C91 1.475 . S
C681 C175 1.507 . S
C705 C189 1.518 . S
C713 C105 1.490 . S
C737 C64 0.498 . S
C745 C8 0.523 . S
C769 C22 0.509 . S
C777 C78 0.522 . S
C801 C36 0.527 . S
C809 C92 0.499 . S
C833 C106 0.531 . S
C841 C50 0.498 . S
C865 C121 2.322 . S
C873 C177 2.327 . S
C897 C191 2.324 . S
C905 C135 2.331 . S
C929 C149 2.321 . S
C937 C205 2.329 . S
C961 C219 2.328 . S
C969 C163 2.330 . S
C993 C162 0.492 . S
C1001 C190 0.523 . S
C1025 C120 0.528 . S
C1033 C204 0.499 . S
C1057 C218 0.493 . S
C1065 C134 0.509 . S
C1089 C148 0.486 . S
C1097 C176 0.515 . S
C1121 C79 2.320 . S
C1129 C51 2.327 . S
C1153 C93 2.328 . S
C1161 C9 2.330 . S
C1185 C107 2.321 . S
C1193 C23 2.330 . S
C1217 C65 2.327 . S
C1225 C37 2.331 . S
