# Generated by pormake.
# Topology ukm, (4)-cn, num edge types: 1
# Building blocks:
#     Node 0, Type 0, BuildingBlock: QUQFOY_clean_sbu_3, # of connection points: 4
#     Node 1, Type 0, BuildingBlock: QUQFOY_clean_sbu_3, # of connection points: 4
#     Node 2, Type 0, BuildingBlock: QUQFOY_clean_sbu_3, # of connection points: 4
#     Node 3, Type 0, BuildingBlock: QUQFOY_clean_sbu_3, # of connection points: 4
#     Node 4, Type 0, BuildingBlock: QUQFOY_clean_sbu_3, # of connection points: 4
#     Node 5, Type 0, BuildingBlock: QUQFOY_clean_sbu_3, # of connection points: 4
#     Node 6, Type 0, BuildingBlock: QUQFOY_clean_sbu_3, # of connection points: 4
#     Node 7, Type 0, BuildingBlock: QUQFOY_clean_sbu_3, # of connection points: 4
#     Node 8, Type 0, BuildingBlock: QUQFOY_clean_sbu_3, # of connection points: 4
#     Node 9, Type 0, BuildingBlock: QUQFOY_clean_sbu_3, # of connection points: 4
#     Node 10, Type 0, BuildingBlock: QUQFOY_clean_sbu_3, # of connection points: 4
#     Node 11, Type 0, BuildingBlock: QUQFOY_clean_sbu_3, # of connection points: 4
#     Node 12, Type 0, BuildingBlock: QUQFOY_clean_sbu_3, # of connection points: 4
#     Node 13, Type 0, BuildingBlock: QUQFOY_clean_sbu_3, # of connection points: 4
#     Node 14, Type 0, BuildingBlock: QUQFOY_clean_sbu_3, # of connection points: 4
#     Node 15, Type 0, BuildingBlock: QUQFOY_clean_sbu_3, # of connection points: 4
#     Node 16, Type 0, BuildingBlock: QUQFOY_clean_sbu_3, # of connection points: 4
#     Node 17, Type 0, BuildingBlock: QUQFOY_clean_sbu_3, # of connection points: 4
#     Node 18, Type 0, BuildingBlock: QUQFOY_clean_sbu_3, # of connection points: 4
#     Node 19, Type 0, BuildingBlock: QUQFOY_clean_sbu_3, # of connection points: 4
#     Node 20, Type 0, BuildingBlock: QUQFOY_clean_sbu_3, # of connection points: 4
#     Node 21, Type 0, BuildingBlock: QUQFOY_clean_sbu_3, # of connection points: 4
#     Node 22, Type 0, BuildingBlock: QUQFOY_clean_sbu_3, # of connection points: 4
#     Node 23, Type 0, BuildingBlock: QUQFOY_clean_sbu_3, # of connection points: 4
#     Node 24, Type 0, BuildingBlock: QUQFOY_clean_sbu_3, # of connection points: 4
#     Node 25, Type 0, BuildingBlock: QUQFOY_clean_sbu_3, # of connection points: 4
#     Node 26, Type 0, BuildingBlock: QUQFOY_clean_sbu_3, # of connection points: 4
#     Node 27, Type 0, BuildingBlock: QUQFOY_clean_sbu_3, # of connection points: 4
#     Node 28, Type 0, BuildingBlock: QUQFOY_clean_sbu_3, # of connection points: 4
#     Node 29, Type 0, BuildingBlock: QUQFOY_clean_sbu_3, # of connection points: 4
#     Node 30, Type 0, BuildingBlock: QUQFOY_clean_sbu_3, # of connection points: 4
#     Node 31, Type 0, BuildingBlock: QUQFOY_clean_sbu_3, # of connection points: 4
#     Edge 32, Type (0, 0), BuildingBlock: CIFDUS_clean_linker_0, # of connection points: 2
#     Edge 33, Type (0, 0), BuildingBlock: CIFDUS_clean_linker_0, # of connection points: 2
#     Edge 34, Type (0, 0), BuildingBlock: CIFDUS_clean_linker_0, # of connection points: 2
#     Edge 35, Type (0, 0), BuildingBlock: CIFDUS_clean_linker_0, # of connection points: 2
#     Edge 36, Type (0, 0), BuildingBlock: CIFDUS_clean_linker_0, # of connection points: 2
#     Edge 37, Type (0, 0), BuildingBlock: CIFDUS_clean_linker_0, # of connection points: 2
#     Edge 38, Type (0, 0), BuildingBlock: CIFDUS_clean_linker_0, # of connection points: 2
#     Edge 39, Type (0, 0), BuildingBlock: CIFDUS_clean_linker_0, # of connection points: 2
#     Edge 40, Type (0, 0), BuildingBlock: CIFDUS_clean_linker_0, # of connection points: 2
#     Edge 41, Type (0, 0), BuildingBlock: CIFDUS_clean_linker_0, # of connection points: 2
#     Edge 42, Type (0, 0), BuildingBlock: CIFDUS_clean_linker_0, # of connection points: 2
#     Edge 43, Type (0, 0), BuildingBlock: CIFDUS_clean_linker_0, # of connection points: 2
#     Edge 44, Type (0, 0), BuildingBlock: CIFDUS_clean_linker_0, # of connection points: 2
#     Edge 45, Type (0, 0), BuildingBlock: CIFDUS_clean_linker_0, # of connection points: 2
#     Edge 46, Type (0, 0), BuildingBlock: CIFDUS_clean_linker_0, # of connection points: 2
#     Edge 47, Type (0, 0), BuildingBlock: CIFDUS_clean_linker_0, # of connection points: 2
#     Edge 48, Type (0, 0), BuildingBlock: CIFDUS_clean_linker_0, # of connection points: 2
#     Edge 49, Type (0, 0), BuildingBlock: CIFDUS_clean_linker_0, # of connection points: 2
#     Edge 50, Type (0, 0), BuildingBlock: CIFDUS_clean_linker_0, # of connection points: 2
#     Edge 51, Type (0, 0), BuildingBlock: CIFDUS_clean_linker_0, # of connection points: 2
#     Edge 52, Type (0, 0), BuildingBlock: CIFDUS_clean_linker_0, # of connection points: 2
#     Edge 53, Type (0, 0), BuildingBlock: CIFDUS_clean_linker_0, # of connection points: 2
#     Edge 54, Type (0, 0), BuildingBlock: CIFDUS_clean_linker_0, # of connection points: 2
#     Edge 55, Type (0, 0), BuildingBlock: CIFDUS_clean_linker_0, # of connection points: 2
#     Edge 56, Type (0, 0), BuildingBlock: CIFDUS_clean_linker_0, # of connection points: 2
#     Edge 57, Type (0, 0), BuildingBlock: CIFDUS_clean_linker_0, # of connection points: 2
#     Edge 58, Type (0, 0), BuildingBlock: CIFDUS_clean_linker_0, # of connection points: 2
#     Edge 59, Type (0, 0), BuildingBlock: CIFDUS_clean_linker_0, # of connection points: 2
#     Edge 60, Type (0, 0), BuildingBlock: CIFDUS_clean_linker_0, # of connection points: 2
#     Edge 61, Type (0, 0), BuildingBlock: CIFDUS_clean_linker_0, # of connection points: 2
#     Edge 62, Type (0, 0), BuildingBlock: CIFDUS_clean_linker_0, # of connection points: 2
#     Edge 63, Type (0, 0), BuildingBlock: CIFDUS_clean_linker_0, # of connection points: 2
#     Edge 64, Type (0, 0), BuildingBlock: CIFDUS_clean_linker_0, # of connection points: 2
#     Edge 65, Type (0, 0), BuildingBlock: CIFDUS_clean_linker_0, # of connection points: 2
#     Edge 66, Type (0, 0), BuildingBlock: CIFDUS_clean_linker_0, # of connection points: 2
#     Edge 67, Type (0, 0), BuildingBlock: CIFDUS_clean_linker_0, # of connection points: 2
#     Edge 68, Type (0, 0), BuildingBlock: CIFDUS_clean_linker_0, # of connection points: 2
#     Edge 69, Type (0, 0), BuildingBlock: CIFDUS_clean_linker_0, # of connection points: 2
#     Edge 70, Type (0, 0), BuildingBlock: CIFDUS_clean_linker_0, # of connection points: 2
#     Edge 71, Type (0, 0), BuildingBlock: CIFDUS_clean_linker_0, # of connection points: 2
#     Edge 72, Type (0, 0), BuildingBlock: CIFDUS_clean_linker_0, # of connection points: 2
#     Edge 73, Type (0, 0), BuildingBlock: CIFDUS_clean_linker_0, # of connection points: 2
#     Edge 74, Type (0, 0), BuildingBlock: CIFDUS_clean_linker_0, # of connection points: 2
#     Edge 75, Type (0, 0), BuildingBlock: CIFDUS_clean_linker_0, # of connection points: 2
#     Edge 76, Type (0, 0), BuildingBlock: CIFDUS_clean_linker_0, # of connection points: 2
#     Edge 77, Type (0, 0), BuildingBlock: CIFDUS_clean_linker_0, # of connection points: 2
#     Edge 78, Type (0, 0), BuildingBlock: CIFDUS_clean_linker_0, # of connection points: 2
#     Edge 79, Type (0, 0), BuildingBlock: CIFDUS_clean_linker_0, # of connection points: 2
#     Edge 80, Type (0, 0), BuildingBlock: CIFDUS_clean_linker_0, # of connection points: 2
#     Edge 81, Type (0, 0), BuildingBlock: CIFDUS_clean_linker_0, # of connection points: 2
#     Edge 82, Type (0, 0), BuildingBlock: CIFDUS_clean_linker_0, # of connection points: 2
#     Edge 83, Type (0, 0), BuildingBlock: CIFDUS_clean_linker_0, # of connection points: 2
#     Edge 84, Type (0, 0), BuildingBlock: CIFDUS_clean_linker_0, # of connection points: 2
#     Edge 85, Type (0, 0), BuildingBlock: CIFDUS_clean_linker_0, # of connection points: 2
#     Edge 86, Type (0, 0), BuildingBlock: CIFDUS_clean_linker_0, # of connection points: 2
#     Edge 87, Type (0, 0), BuildingBlock: CIFDUS_clean_linker_0, # of connection points: 2
#     Edge 88, Type (0, 0), BuildingBlock: CIFDUS_clean_linker_0, # of connection points: 2
#     Edge 89, Type (0, 0), BuildingBlock: CIFDUS_clean_linker_0, # of connection points: 2
#     Edge 90, Type (0, 0), BuildingBlock: CIFDUS_clean_linker_0, # of connection points: 2
#     Edge 91, Type (0, 0), BuildingBlock: CIFDUS_clean_linker_0, # of connection points: 2
#     Edge 92, Type (0, 0), BuildingBlock: CIFDUS_clean_linker_0, # of connection points: 2
#     Edge 93, Type (0, 0), BuildingBlock: CIFDUS_clean_linker_0, # of connection points: 2
#     Edge 94, Type (0, 0), BuildingBlock: CIFDUS_clean_linker_0, # of connection points: 2
#     Edge 95, Type (0, 0), BuildingBlock: CIFDUS_clean_linker_0, # of connection points: 2
# Relax obj value: 0.275
# Max RMSD: 0.198
# Mean RMSD: 0.198
data_MOF--net-ukm--node1-QUQFOY_clean_sbu_3--edge1-CIFDUS_clean_linker_0
_symmetry_space_group_name_H-M    P1
_symmetry_Int_Tables_number       1
_symmetry_cell_setting            triclinic
loop_
_symmetry_equiv_pos_as_xyz
'x, y, z'
_cell_length_a     22.857944
_cell_length_b     92.269701
_cell_length_c     37.277178
_cell_angle_alpha  89.773643
_cell_angle_beta   90.004163
_cell_angle_gamma 89.991198
loop_
_atom_site_label
_atom_site_type_symbol
_atom_site_fract_x
_atom_site_fract_y
_atom_site_fract_z
_atom_type_partial_charge
C0 C 0.06863 0.27262 0.25733 0.0
O1 O 0.02596 0.28132 0.25405 0.0
Cd2 Cd 0.03627 0.30698 0.25679 0.0
O3 O 0.1192 0.27733 0.26578 0.0
Cd4 Cd 0.16302 0.30142 0.27876 0.0
C5 C 0.14255 0.30963 0.19248 0.0
O6 O 0.08577 0.31449 0.31026 0.0
O7 O 0.14721 0.32751 0.28006 0.0
O8 O 0.21863 0.29461 0.33251 0.0
C9 C 0.10684 0.32689 0.30333 0.0
O10 O 0.08993 0.31235 0.20151 0.0
C11 C 0.268 0.29832 0.31982 0.0
O12 O 0.17876 0.30463 0.21527 0.0
O13 O 0.26864 0.30285 0.28762 0.0
C14 C 0.24724 0.95394 0.31685 0.0
O15 O 0.29222 0.94601 0.31346 0.0
Cd16 Cd 0.28541 0.92035 0.30633 0.0
O17 O 0.19661 0.94823 0.31855 0.0
Cd18 Cd 0.15561 0.92348 0.31798 0.0
C19 C 0.19855 0.91772 0.23301 0.0
O20 O 0.22647 0.90974 0.35372 0.0
O21 O 0.17114 0.89748 0.31785 0.0
O22 O 0.08399 0.92704 0.36632 0.0
C23 C 0.20628 0.89755 0.34414 0.0
O24 O 0.25033 0.91607 0.24489 0.0
C25 C 0.03941 0.92509 0.34659 0.0
O26 O 0.15696 0.92119 0.25386 0.0
O27 O 0.04892 0.92275 0.31359 0.0
C28 C 0.93274 0.92685 0.97022 0.0
O29 O 0.90865 0.91511 0.98011 0.0
Cd30 Cd 0.95629 0.89195 0.98076 0.0
O31 O 0.9855 0.92706 0.95931 0.0
Cd32 Cd 0.06656 0.9097 0.95227 0.0
C33 C 0.06132 0.90209 0.04103 0.0
O34 O 0.01665 0.88807 0.92921 0.0
O35 O 0.10207 0.88528 0.95324 0.0
O36 O 0.10611 0.91874 0.8952 0.0
C37 C 0.05984 0.87983 0.93591 0.0
O38 O 0.01681 0.8943 0.03397 0.0
C39 C 0.15554 0.92229 0.90804 0.0
O40 O 0.08622 0.90958 0.01666 0.0
O41 O 0.16234 0.92064 0.94162 0.0
C42 C 0.30929 0.25668 0.921 0.0
O43 O 0.35309 0.26512 0.92099 0.0
Cd44 Cd 0.33998 0.29098 0.92049 0.0
O45 O 0.25774 0.26184 0.91998 0.0
Cd46 Cd 0.21138 0.28576 0.91821 0.0
C47 C 0.26584 0.29684 -0.00281 0.0
O48 O 0.2713 0.29867 0.87402 0.0
O49 O 0.21911 0.31165 0.91021 0.0
O50 O 0.12993 0.27991 0.87781 0.0
C51 C 0.24907 0.31088 0.8817 0.0
O52 O 0.3151 0.29862 0.98191 0.0
C53 C 0.09073 0.28108 0.90177 0.0
O54 O 0.22297 0.29145 0.98024 0.0
O55 O 0.10785 0.2842 0.93315 0.0
C56 C 0.93811 0.67316 0.75807 0.0
O57 O 0.98094 0.66481 0.75152 0.0
Cd58 Cd 0.97005 0.63999 0.73481 0.0
O59 O 0.88574 0.66866 0.75477 0.0
Cd60 Cd 0.83498 0.64608 0.73764 0.0
C61 C 0.89576 0.62806 0.80788 0.0
O62 O 0.8971 0.63935 0.68792 0.0
O63 O 0.83838 0.62268 0.70745 0.0
O64 O 0.75945 0.65909 0.70407 0.0
C65 C 0.87408 0.62699 0.68366 0.0
O66 O 0.94471 0.62814 0.79165 0.0
C67 C 0.71733 0.65518 0.72408 0.0
O68 O 0.85106 0.63415 0.79427 0.0
O69 O 0.72984 0.64699 0.75045 0.0
C70 C 0.79137 0.02571 0.69201 0.0
O71 O 0.75074 0.03505 0.68998 0.0
Cd72 Cd 0.7704 0.06042 0.696 0.0
O73 O 0.84454 0.0297 0.69416 0.0
Cd74 Cd 0.90249 0.0522 0.69571 0.0
C75 C 0.84141 0.05767 0.77663 0.0
O76 O 0.84712 0.06813 0.65608 0.0
O77 O 0.90427 0.07859 0.69441 0.0
O78 O 0.97089 0.04401 0.6501 0.0
C79 C 0.87201 0.07962 0.66681 0.0
O80 O 0.79616 0.06187 0.75956 0.0
C81 C 0.01617 0.04451 0.66978 0.0
O82 O 0.88619 0.05303 0.75992 0.0
O83 O 0.00876 0.04833 0.70219 0.0
C84 C 0.86835 0.00131 0.06083 0.0
O85 O 0.91751 0.00622 0.0707 0.0
Cd86 Cd 0.93634 0.03164 0.06624 0.0
O87 O 0.82576 0.00981 0.05465 0.0
Cd88 Cd 0.80588 0.03587 0.06377 0.0
C89 C 0.87126 0.04022 0.98528 0.0
O90 O 0.87824 0.04606 0.10544 0.0
O91 O 0.84393 0.06015 0.06375 0.0
O92 O 0.73592 0.03332 0.11212 0.0
C93 C 0.87285 0.05877 0.0926 0.0
O94 O 0.91779 0.03826 0.00352 0.0
C95 C 0.69257 0.03858 0.09527 0.0
O96 O 0.82112 0.03939 7e-05 0.0
O97 O 0.70087 0.0421 0.06263 0.0
C98 C 0.80748 0.69749 0.01412 0.0
O99 O 0.76355 0.6897 0.00596 0.0
Cd100 Cd 0.72964 0.66662 0.02719 0.0
O101 O 0.844 0.69341 0.03805 0.0
Cd102 Cd 0.85948 0.67105 0.07458 0.0
C103 C 0.85344 0.64829 0.00108 0.0
O104 O 0.7583 0.66579 0.08745 0.0
O105 O 0.81925 0.65162 0.11313 0.0
O106 O 0.91037 0.68149 0.12655 0.0
C107 C 0.76645 0.65424 0.10521 0.0
O108 O 0.79865 0.65057 -0.00158 0.0
C109 C 0.95892 0.67552 0.11868 0.0
O110 O 0.8845 0.65488 0.02431 0.0
O111 O 0.96075 0.66802 0.09022 0.0
C112 C 0.05389 0.75059 0.81978 0.0
O113 O 0.01322 0.75993 0.82213 0.0
Cd114 Cd 0.03046 0.78567 0.82769 0.0
O115 O 0.1072 0.75447 0.82132 0.0
Cd116 Cd 0.16493 0.77656 0.82809 0.0
C117 C 0.11022 0.79142 0.75168 0.0
O118 O 0.10506 0.78996 0.87178 0.0
O119 O 0.17858 0.80097 0.8469 0.0
O120 O 0.2345 0.76457 0.8677 0.0
C121 C 0.13731 0.80114 0.86949 0.0
O122 O 0.06259 0.79359 0.76854 0.0
C123 C 0.27888 0.76729 0.84829 0.0
O124 O 0.15277 0.7848 0.76649 0.0
O125 O 0.26952 0.77362 0.81851 0.0
C126 C 0.21187 0.43909 0.73779 0.0
O127 O 0.2564 0.43114 0.73288 0.0
Cd128 Cd 0.25095 0.40537 0.73488 0.0
O129 O 0.16294 0.43351 0.74655 0.0
Cd130 Cd 0.12268 0.40909 0.75774 0.0
C131 C 0.14529 0.4025 0.67053 0.0
O132 O 0.20361 0.39794 0.78961 0.0
O133 O 0.14309 0.38319 0.76413 0.0
O134 O 0.06469 0.41635 0.80985 0.0
C135 C 0.18479 0.38512 0.78604 0.0
O136 O 0.1986 0.40032 0.67892 0.0
C137 C 0.01601 0.41249 0.79651 0.0
O138 O 0.10853 0.40638 0.69415 0.0
O139 O 0.01707 0.40726 0.76508 0.0
C140 C 0.95791 0.45949 0.39499 0.0
O141 O 0.91793 0.44998 0.39682 0.0
Cd142 Cd 0.94238 0.42453 0.40103 0.0
O143 O 0.01132 0.45569 0.39551 0.0
Cd144 Cd 0.06927 0.43356 0.40018 0.0
C145 C 0.01627 0.42134 0.47901 0.0
O146 O 0.01795 0.41746 0.35833 0.0
O147 O 0.07676 0.40762 0.39704 0.0
O148 O 0.15177 0.43984 0.36081 0.0
C149 C 0.04574 0.40634 0.36908 0.0
O150 O 0.96873 0.41814 0.46314 0.0
C151 C 0.18716 0.4422 0.3864 0.0
O152 O 0.05696 0.42795 0.46253 0.0
O153 O 0.16757 0.44059 0.41797 0.0
C154 C 0.22458 0.76632 0.47944 0.0
O155 O 0.27071 0.77349 0.47281 0.0
Cd156 Cd 0.26437 0.79941 0.46916 0.0
O157 O 0.17496 0.77254 0.47886 0.0
Cd158 Cd 0.12955 0.79611 0.46687 0.0
C159 C 0.18681 0.80403 0.54706 0.0
O160 O 0.1957 0.80749 0.42394 0.0
O161 O 0.14358 0.82176 0.45721 0.0
O162 O 0.05694 0.78631 0.42544 0.0
C163 C 0.17759 0.8202 0.43063 0.0
O164 O 0.23595 0.80518 0.53116 0.0
C165 C 0.01288 0.79028 0.44373 0.0
O166 O 0.14107 0.80046 0.52984 0.0
O167 O 0.0232 0.79703 0.47269 0.0
C168 C 0.98101 0.19438 0.18506 0.0
O169 O 0.02457 0.18588 0.18371 0.0
Cd170 Cd 0.01389 0.16009 0.18623 0.0
O171 O 0.92919 0.18935 0.18413 0.0
Cd172 Cd 0.88304 0.1652 0.1806 0.0
C173 C 0.93273 0.15921 0.26328 0.0
O174 O 0.94666 0.14985 0.14394 0.0
O175 O 0.89511 0.13934 0.18532 0.0
O176 O 0.81728 0.16992 0.1305 0.0
C177 C 0.92626 0.13821 0.15733 0.0
O178 O 0.98094 0.15634 0.24772 0.0
C179 C 0.77031 0.16776 0.14787 0.0
O180 O 0.88876 0.16365 0.24536 0.0
O181 O 0.77537 0.16514 0.18122 0.0
C182 C 0.6993 0.53461 0.15477 0.0
O183 O 0.65888 0.54406 0.15727 0.0
Cd184 Cd 0.65133 0.56828 0.13305 0.0
O185 O 0.74473 0.53685 0.13559 0.0
Cd186 Cd 0.78782 0.55635 0.09805 0.0
C187 C 0.7796 0.58016 0.17067 0.0
O188 O 0.69838 0.56654 0.07723 0.0
O189 O 0.77316 0.57461 0.04959 0.0
O190 O 0.85106 0.54188 0.05838 0.0
C191 C 0.71951 0.57625 0.05702 0.0
O192 O 0.72385 0.58048 0.17014 0.0
C193 C 0.89788 0.5467 0.07267 0.0
O194 O 0.80841 0.57243 0.14857 0.0
O195 O 0.89252 0.5557 0.09814 0.0
C196 C 0.94116 0.54515 0.41656 0.0
O197 O 0.98286 0.55423 0.41684 0.0
Cd198 Cd 0.96684 0.57924 0.43078 0.0
O199 O 0.88954 0.54913 0.42469 0.0
Cd200 Cd 0.83951 0.5715 0.44381 0.0
C201 C 0.86953 0.58945 0.36722 0.0
O202 O 0.91165 0.58029 0.48639 0.0
O203 O 0.84518 0.59563 0.4698 0.0
O204 O 0.7781 0.55842 0.48673 0.0
C205 C 0.88598 0.59229 0.49131 0.0
O206 O 0.92256 0.59033 0.37732 0.0
C207 C 0.73 0.56147 0.47147 0.0
O208 O 0.83205 0.58266 0.38594 0.0
O209 O 0.73279 0.56915 0.44321 0.0
C210 C 0.8649 0.21303 0.53872 0.0
O211 O 0.81911 0.20549 0.54343 0.0
Cd212 Cd 0.81789 0.17968 0.55096 0.0
O213 O 0.91512 0.2071 0.53913 0.0
Cd214 Cd 0.95128 0.18196 0.5449 0.0
C215 C 0.87821 0.1715 0.47079 0.0
O216 O 0.89128 0.17082 0.59222 0.0
O217 O 0.93273 0.15646 0.55408 0.0
O218 O 0.03656 0.18629 0.58285 0.0
C219 C 0.90558 0.15801 0.58345 0.0
O220 O 0.83216 0.17083 0.48991 0.0
C221 C 0.07406 0.18327 0.55888 0.0
O222 O 0.92619 0.17606 0.48384 0.0
O223 O 0.05453 0.18005 0.52805 0.0
C224 C 0.55623 0.25593 0.79423 0.0
O225 O 0.50895 0.26278 0.7997 0.0
Cd226 Cd 0.50872 0.2883 0.81241 0.0
O227 O 0.60519 0.26229 0.79762 0.0
Cd228 Cd 0.64219 0.28627 0.81297 0.0
C229 C 0.58036 0.30073 0.73903 0.0
O230 O 0.57607 0.29457 0.86042 0.0
O231 O 0.62422 0.31083 0.83035 0.0
O232 O 0.72515 0.27863 0.85037 0.0
C233 C 0.59253 0.30765 0.85711 0.0
O234 O 0.53086 0.30013 0.75462 0.0
C235 C 0.76378 0.28287 0.82818 0.0
O236 O 0.62597 0.29568 0.75398 0.0
O237 O 0.74565 0.28861 0.79927 0.0
C238 C 0.67928 0.94884 0.76056 0.0
O239 O 0.72126 0.93982 0.76169 0.0
Cd240 Cd 0.71268 0.91442 0.77477 0.0
O241 O 0.62741 0.94493 0.76852 0.0
Cd242 Cd 0.57612 0.92255 0.78693 0.0
C243 C 0.61499 0.90733 0.70746 0.0
O244 O 0.65089 0.91153 0.82572 0.0
O245 O 0.57753 0.89814 0.81014 0.0
O246 O 0.51602 0.93484 0.83171 0.0
C247 C 0.62388 0.89957 0.82843 0.0
O248 O 0.66588 0.90555 0.72067 0.0
C249 C 0.46728 0.93107 0.81827 0.0
O250 O 0.57504 0.91377 0.72515 0.0
O251 O 0.46919 0.92391 0.78924 0.0
C252 C 0.49256 0.94367 0.43173 0.0
O253 O 0.44566 0.93671 0.42601 0.0
Cd254 Cd 0.45109 0.9106 0.42434 0.0
O255 O 0.54139 0.9371 0.43146 0.0
Cd256 Cd 0.58468 0.91333 0.4218 0.0
C257 C 0.52764 0.90563 0.50238 0.0
O258 O 0.51891 0.90017 0.38148 0.0
O259 O 0.57113 0.88774 0.41942 0.0
O260 O 0.65518 0.92073 0.37602 0.0
C261 C 0.53776 0.88793 0.39226 0.0
O262 O 0.47847 0.90475 0.48643 0.0
C263 C 0.70027 0.91819 0.39495 0.0
O264 O 0.57376 0.90918 0.48533 0.0
O265 O 0.69165 0.91341 0.42653 0.0
C266 C 0.78131 0.2926 0.47266 0.0
O267 O 0.82194 0.3017 0.47813 0.0
Cd268 Cd 0.80087 0.32721 0.48339 0.0
O269 O 0.72958 0.29695 0.46613 0.0
Cd270 Cd 0.67323 0.31942 0.4589 0.0
C271 C 0.69286 0.32396 0.54715 0.0
O272 O 0.74389 0.33705 0.43499 0.0
O273 O 0.66856 0.34538 0.46351 0.0
O274 O 0.62661 0.31257 0.40241 0.0
C275 C 0.71382 0.34793 0.44484 0.0
O276 O 0.74446 0.32803 0.53896 0.0
C277 C 0.57503 0.31212 0.41506 0.0
O278 O 0.65775 0.31943 0.52317 0.0
O279 O 0.56913 0.31509 0.44812 0.0
C280 C 0.45947 0.66573 0.28933 0.0
O281 O 0.49543 0.65531 0.29199 0.0
Cd282 Cd 0.4555 0.63115 0.28613 0.0
O283 O 0.40679 0.6633 0.28031 0.0
Cd284 Cd 0.34164 0.64369 0.26239 0.0
C285 C 0.34389 0.631 0.3466 0.0
O286 O 0.40729 0.62776 0.22826 0.0
O287 O 0.32379 0.61906 0.24556 0.0
O288 O 0.30581 0.6572 0.21052 0.0
C289 C 0.36811 0.61805 0.22526 0.0
O290 O 0.39616 0.627 0.34027 0.0
C291 C 0.25313 0.65788 0.22111 0.0
O292 O 0.31441 0.63767 0.32286 0.0
O293 O 0.24168 0.65223 0.25143 0.0
C294 C 0.22767 0.03943 0.28937 0.0
O295 O 0.18448 0.04796 0.29261 0.0
Cd296 Cd 0.19999 0.0735 0.28537 0.0
O297 O 0.27744 0.0443 0.2799 0.0
Cd298 Cd 0.32364 0.06736 0.26241 0.0
C299 C 0.3071 0.07963 0.34666 0.0
O300 O 0.24492 0.07758 0.22687 0.0
O301 O 0.31235 0.09253 0.24369 0.0
O302 O 0.37659 0.05636 0.212 0.0
C303 C 0.26987 0.08975 0.22295 0.0
O304 O 0.25272 0.08087 0.34001 0.0
C305 C 0.42715 0.05883 0.22461 0.0
O306 O 0.34173 0.0747 0.32306 0.0
O307 O 0.42953 0.06525 0.25462 0.0
C308 C 0.545 0.01691 0.53808 0.0
O309 O 0.58964 0.02511 0.53552 0.0
Cd310 Cd 0.60993 0.04889 0.55863 0.0
O311 O 0.50014 0.02056 0.55643 0.0
Cd312 Cd 0.46701 0.04173 0.59198 0.0
C313 C 0.49145 0.06494 0.51858 0.0
O314 O 0.56158 0.04767 0.61406 0.0
O315 O 0.49307 0.05904 0.64046 0.0
O316 O 0.39626 0.02981 0.63244 0.0
C317 C 0.54745 0.05788 0.63474 0.0
O318 O 0.54689 0.06357 0.5202 0.0
C319 C 0.35266 0.03654 0.61904 0.0
O320 O 0.45796 0.05822 0.54038 0.0
O321 O 0.36281 0.04521 0.59322 0.0
C322 C 0.19285 0.6911 0.58237 0.0
O323 O 0.15049 0.68224 0.57881 0.0
Cd324 Cd 0.13869 0.65698 0.59522 0.0
O325 O 0.24052 0.68746 0.59788 0.0
Cd326 Cd 0.28416 0.66552 0.62469 0.0
C327 C 0.2557 0.64487 0.54702 0.0
O328 O 0.1959 0.6558 0.64724 0.0
O329 O 0.27089 0.64712 0.67316 0.0
O330 O 0.36079 0.67557 0.66356 0.0
C331 C 0.21692 0.64576 0.66638 0.0
O332 O 0.20026 0.64546 0.55044 0.0
C333 C 0.40207 0.67051 0.6443 0.0
O334 O 0.28968 0.65102 0.56945 0.0
O335 O 0.38798 0.66368 0.61605 0.0
C336 C 0.4918 0.75082 0.31548 0.0
O337 O 0.45096 0.75982 0.30947 0.0
Cd338 Cd 0.46385 0.78515 0.30014 0.0
O339 O 0.54451 0.75513 0.31845 0.0
Cd340 Cd 0.59342 0.77912 0.31595 0.0
C341 C 0.55828 0.78538 0.22978 0.0
O342 O 0.52385 0.79473 0.34737 0.0
O343 O 0.58475 0.80535 0.31157 0.0
O344 O 0.66385 0.77667 0.3655 0.0
C345 C 0.5467 0.80641 0.33613 0.0
O346 O 0.50667 0.78836 0.24026 0.0
C347 C 0.70857 0.77656 0.34528 0.0
O348 O 0.59672 0.78087 0.25173 0.0
O349 O 0.69937 0.77718 0.31176 0.0
C350 C 0.73963 0.46844 0.29058 0.0
O351 O 0.78212 0.45948 0.29146 0.0
Cd352 Cd 0.79284 0.43501 0.31686 0.0
O353 O 0.69061 0.46542 0.30508 0.0
Cd354 Cd 0.6465 0.44419 0.33289 0.0
C355 C 0.69241 0.41995 0.26439 0.0
O356 O 0.72467 0.43276 0.36428 0.0
O357 O 0.64654 0.43483 0.39533 0.0
O358 O 0.55492 0.45553 0.35169 0.0
C359 C 0.697 0.4293 0.39232 0.0
O360 O 0.74697 0.42053 0.27114 0.0
C361 C 0.52321 0.44664 0.33424 0.0
O362 O 0.65569 0.42724 0.28264 0.0
O363 O 0.54921 0.4369 0.31621 0.0
C364 C 0.54843 0.43789 0.98313 0.0
O365 O 0.50694 0.4296 0.9927 0.0
Cd366 Cd 0.51879 0.40399 -0.00018 0.0
O367 O 0.5986 0.43268 0.97594 0.0
Cd368 Cd 0.64433 0.40846 0.97445 0.0
C369 C 0.6262 0.40267 0.06271 0.0
O370 O 0.56556 0.39461 0.94682 0.0
O371 O 0.63302 0.38221 0.97362 0.0
O372 O 0.70009 0.41355 0.91983 0.0
C373 C 0.58922 0.38242 0.95277 0.0
O374 O 0.57253 0.40021 0.05596 0.0
C375 C 0.74993 0.41219 0.93448 0.0
O376 O 0.66081 0.40671 0.03798 0.0
O377 O 0.75056 0.40919 0.96773 0.0
C378 C 0.82414 0.77869 0.95851 0.0
O379 O 0.8528 0.78981 0.96788 0.0
Cd380 Cd 0.79799 0.81225 0.97515 0.0
O381 O 0.76984 0.77973 0.95203 0.0
Cd382 Cd 0.69042 0.79696 0.95176 0.0
C383 C 0.70524 0.80139 0.04044 0.0
O384 O 0.73051 0.81982 0.92731 0.0
O385 O 0.64974 0.82041 0.95803 0.0
O386 O 0.64441 0.78799 0.89668 0.0
C387 C 0.6845 0.82669 0.93654 0.0
O388 O 0.74979 0.80914 0.03321 0.0
C389 C 0.59914 0.78322 0.91258 0.0
O390 O 0.67721 0.79503 0.01566 0.0
O391 O 0.59729 0.78467 0.94639 0.0
C392 C 0.60204 0.1805 0.69566 0.0
O393 O 0.64571 0.17194 0.69756 0.0
Cd394 Cd 0.65165 0.14697 0.6775 0.0
O395 O 0.55428 0.17669 0.68077 0.0
Cd396 Cd 0.50644 0.15625 0.65139 0.0
C397 C 0.5352 0.1348 0.72731 0.0
O398 O 0.59393 0.14777 0.62516 0.0
O399 O 0.51735 0.13806 0.60316 0.0
O400 O 0.43651 0.17083 0.61643 0.0
C401 C 0.57253 0.13773 0.60637 0.0
O402 O 0.59045 0.13511 0.72259 0.0
C403 C 0.39232 0.16574 0.6331 0.0
O404 O 0.50049 0.14136 0.70591 0.0
O405 O 0.40184 0.15628 0.65727 0.0
C406 C 0.25687 0.51832 0.65721 0.0
O407 O 0.21378 0.52634 0.66566 0.0
Cd408 Cd 0.20219 0.55209 0.66049 0.0
O409 O 0.30282 0.52361 0.64277 0.0
Cd410 Cd 0.34149 0.54772 0.62596 0.0
C411 C 0.32226 0.55964 0.71302 0.0
O412 O 0.24969 0.55765 0.60619 0.0
O413 O 0.32199 0.57232 0.60396 0.0
O414 O 0.40195 0.54142 0.57378 0.0
C415 C 0.26742 0.57042 0.60048 0.0
O416 O 0.26697 0.55981 0.7086 0.0
C417 C 0.44984 0.54429 0.58969 0.0
O418 O 0.35646 0.5554 0.68817 0.0
O419 O 0.44673 0.54827 0.6222 0.0
C420 C 0.44921 0.52072 0.99153 0.0
O421 O 0.49154 0.52931 0.9855 0.0
Cd422 Cd 0.48058 0.55524 0.98785 0.0
O423 O 0.39862 0.52568 -0.00133 0.0
Cd424 Cd 0.35184 0.5495 0.00422 0.0
C425 C 0.38655 0.56198 0.92073 0.0
O426 O 0.42723 0.56069 0.04261 0.0
O427 O 0.35381 0.57399 0.02636 0.0
O428 O 0.28155 0.54099 0.04937 0.0
C429 C 0.39824 0.57231 0.04627 0.0
O430 O 0.43963 0.56318 0.93041 0.0
C431 C 0.23678 0.54295 0.02975 0.0
O432 O 0.34849 0.55694 0.94217 0.0
O433 O 0.24573 0.5476 -0.00183 0.0
C434 C 0.29422 0.17172 0.95839 0.0
O435 O 0.25049 0.1633 0.95604 0.0
Cd436 Cd 0.25839 0.13794 0.96802 0.0
O437 O 0.34364 0.16691 0.96886 0.0
Cd438 Cd 0.38693 0.14374 0.98928 0.0
C439 C 0.36348 0.12889 0.9076 0.0
O440 O 0.30538 0.13592 0.02601 0.0
O441 O 0.37022 0.11951 0.01448 0.0
O442 O 0.44519 0.15563 0.03619 0.0
C443 C 0.32626 0.12349 0.03271 0.0
O444 O 0.30931 0.12825 0.9153 0.0
C445 C 0.49434 0.1518 0.02354 0.0
O446 O 0.39977 0.13435 0.92952 0.0
O447 O 0.49344 0.14428 -0.00489 0.0
H448 H 0.03831 0.37987 0.3989 0.0
H449 H 0.05017 0.40196 0.29709 0.0
H450 H 0.06709 0.3788 0.26676 0.0
H451 H 0.08958 0.3527 0.27077 0.0
H452 H 0.0714 0.33047 0.37209 0.0
H453 H 0.04525 0.35329 0.40135 0.0
C454 C 0.04352 0.37952 0.36998 0.0
C455 C 0.04383 0.39247 0.35011 0.0
C456 C 0.05261 0.36623 0.3529 0.0
C457 C 0.04976 0.39204 0.31271 0.0
C458 C 0.05986 0.37885 0.29549 0.0
C459 C 0.07914 0.35289 0.29916 0.0
C460 C 0.08328 0.34011 0.31957 0.0
C461 C 0.06316 0.36595 0.31552 0.0
C462 C 0.06864 0.34027 0.35608 0.0
C463 C 0.05394 0.35329 0.37277 0.0
H464 H 0.20905 0.87022 0.31865 0.0
H465 H 0.22697 0.89515 0.41565 0.0
H466 H 0.2245 0.8729 0.4515 0.0
H467 H 0.20425 0.84675 0.45525 0.0
H468 H 0.19138 0.82163 0.35836 0.0
H469 H 0.20545 0.84358 0.32214 0.0
C470 C 0.21353 0.87071 0.3476 0.0
C471 C 0.21722 0.88421 0.36469 0.0
C472 C 0.21237 0.85791 0.3679 0.0
C473 C 0.22398 0.88482 0.40206 0.0
C474 C 0.22213 0.87213 0.42253 0.0
C475 C 0.20547 0.84611 0.4262 0.0
C476 C 0.19583 0.83278 0.40925 0.0
C477 C 0.21429 0.85869 0.40577 0.0
C478 C 0.19853 0.83187 0.37175 0.0
C479 C 0.20628 0.8444 0.35113 0.0
H480 H 0.14983 0.86133 0.94373 0.0
H481 H 0.97217 0.8638 0.905 0.0
H482 H 0.97763 0.83851 0.88536 0.0
H483 H 0.03655 0.81638 0.87472 0.0
H484 H 0.2164 0.81528 0.90932 0.0
H485 H 0.20626 0.8393 0.93588 0.0
C486 C 0.11203 0.85633 0.93126 0.0
C487 C 0.06084 0.86443 0.92558 0.0
C488 C 0.11591 0.84201 0.91954 0.0
C489 C 0.01226 0.85779 0.90941 0.0
C490 C 0.01533 0.84334 0.89826 0.0
C491 C 0.07279 0.82134 0.8889 0.0
C492 C 0.12691 0.81419 0.89061 0.0
C493 C 0.06732 0.83542 0.90265 0.0
C494 C 0.17433 0.82068 0.90811 0.0
C495 C 0.16864 0.8344 0.92302 0.0
H496 H 0.20035 0.35753 0.76379 0.0
H497 H 0.22512 0.38586 0.85424 0.0
H498 H 0.25393 0.36522 0.89163 0.0
H499 H 0.26059 0.33886 0.9 0.0
H500 H 0.24171 0.31058 0.809 0.0
H501 H 0.22324 0.3315 0.76994 0.0
C502 C 0.21284 0.35914 0.79157 0.0
C503 C 0.20973 0.37304 0.80663 0.0
C504 C 0.23033 0.34729 0.81263 0.0
C505 C 0.22701 0.37518 0.84232 0.0
C506 C 0.24327 0.36341 0.86367 0.0
C507 C 0.25371 0.33736 0.87144 0.0
C508 C 0.25174 0.32333 0.85724 0.0
C509 C 0.24349 0.34939 0.84933 0.0
C510 C 0.2435 0.32137 0.82029 0.0
C511 C 0.23243 0.33329 0.7981 0.0
H512 H 0.89649 0.58208 0.55839 0.0
H513 H 0.89488 0.62154 0.4962 0.0
H514 H 0.89898 0.63591 0.55132 0.0
H515 H 0.89311 0.63711 0.61698 0.0
H516 H 0.87992 0.59765 0.67875 0.0
H517 H 0.89173 0.58328 0.62411 0.0
C518 C 0.89823 0.59383 0.55708 0.0
C519 C 0.89605 0.60085 0.52368 0.0
C520 C 0.89723 0.60193 0.58874 0.0
C521 C 0.89682 0.61602 0.52189 0.0
C522 C 0.89895 0.62419 0.55328 0.0
C523 C 0.8937 0.62536 0.6184 0.0
C524 C 0.88591 0.61836 0.65153 0.0
C525 C 0.8977 0.61725 0.58683 0.0
C526 C 0.8857 0.60318 0.6533 0.0
C527 C 0.89246 0.595 0.62217 0.0
H528 H 0.88362 0.10674 0.69365 0.0
H529 H 0.84657 0.08336 0.59626 0.0
H530 H 0.84945 0.10597 0.56194 0.0
H531 H 0.87227 0.13193 0.55893 0.0
H532 H 0.90382 0.15571 0.6563 0.0
H533 H 0.89267 0.13339 0.69163 0.0
C534 C 0.87558 0.10666 0.66497 0.0
C535 C 0.86593 0.09344 0.64731 0.0
C536 C 0.87657 0.11971 0.64552 0.0
C537 C 0.85439 0.09343 0.61033 0.0
C538 C 0.85625 0.10633 0.5907 0.0
C539 C 0.8759 0.13222 0.58795 0.0
C540 C 0.88966 0.14529 0.60514 0.0
C541 C 0.8688 0.11945 0.6079 0.0
C542 C 0.89331 0.1457 0.64267 0.0
C543 C 0.88729 0.13295 0.66276 0.0
H544 H 0.92504 0.1121 0.18996 0.0
H545 H 0.94448 0.13267 0.08655 0.0
H546 H 0.93624 0.10912 0.05704 0.0
H547 H 0.90917 0.0834 0.06067 0.0
H548 H 0.89119 0.06273 0.16405 0.0
H549 H 0.91407 0.08564 0.19383 0.0
C550 C 0.92858 0.11136 0.161 0.0
C551 C 0.93425 0.12403 0.14029 0.0
C552 C 0.92353 0.09784 0.14435 0.0
C553 C 0.93988 0.12301 0.10291 0.0
C554 C 0.93476 0.10958 0.08607 0.0
C555 C 0.91127 0.08389 0.08972 0.0
C556 C 0.8975 0.07157 0.1103 0.0
C557 C 0.92434 0.09704 0.10649 0.0
C558 C 0.9014 0.07216 0.14781 0.0
C559 C 0.91413 0.08525 0.16478 0.0
H560 H 0.68236 0.59118 0.11433 0.0
H561 H 0.71141 0.59502 0.00076 0.0
H562 H 0.71047 0.62148 0.00573 0.0
H563 H 0.72678 0.64236 0.04432 0.0
H564 H 0.72264 0.63749 0.15903 0.0
H565 H 0.68736 0.61256 0.15246 0.0
C566 C 0.68606 0.59777 0.09057 0.0
C567 C 0.69672 0.59118 0.0573 0.0
C568 C 0.69111 0.61282 0.09432 0.0
C569 C 0.70261 0.59989 0.0266 0.0
C570 C 0.70282 0.61499 0.02958 0.0
C571 C 0.71587 0.63609 0.06777 0.0
C572 C 0.72672 0.64177 0.10203 0.0
C573 C 0.70083 0.62148 0.06361 0.0
C574 C 0.71385 0.63335 0.13241 0.0
C575 C 0.69433 0.61908 0.12858 0.0
H576 H 0.59912 0.35467 0.97565 0.0
H577 H 0.53793 0.38094 0.88731 0.0
H578 H 0.52505 0.35928 0.85068 0.0
H579 H 0.54647 0.33352 0.84112 0.0
H580 H 0.60439 0.30697 0.92953 0.0
H581 H 0.60228 0.32807 0.96934 0.0
C582 C 0.58191 0.35557 0.94861 0.0
C583 C 0.57064 0.3693 0.93378 0.0
C584 C 0.57435 0.34308 0.92784 0.0
C585 C 0.54726 0.37043 0.89907 0.0
C586 C 0.54015 0.35808 0.8781 0.0
C587 C 0.55697 0.33234 0.86938 0.0
C588 C 0.57616 0.31893 0.8826 0.0
C589 C 0.55575 0.34445 0.89179 0.0
C590 C 0.58935 0.3173 0.9191 0.0
C591 C 0.58867 0.32935 0.94166 0.0
H592 H 0.75337 0.84785 0.90662 0.0
H593 H 0.57378 0.83596 0.92745 0.0
H594 H 0.53975 0.85755 0.89642 0.0
H595 H 0.55998 0.87932 0.86169 0.0
H596 H 0.73802 0.89274 0.84331 0.0
H597 H 0.77386 0.87117 0.87529 0.0
C598 C 0.70692 0.85008 0.9044 0.0
C599 C 0.6662 0.84031 0.91911 0.0
C600 C 0.68736 0.86276 0.88702 0.0
C601 C 0.60606 0.84334 0.91647 0.0
C602 C 0.58643 0.85566 0.89863 0.0
C603 C 0.60664 0.87753 0.86484 0.0
C604 C 0.64638 0.88742 0.85002 0.0
C605 C 0.62658 0.86536 0.8836 0.0
C606 C 0.70671 0.8852 0.85465 0.0
C607 C 0.72712 0.87286 0.87275 0.0
H608 H 0.54419 0.83186 0.30005 0.0
H609 H 0.50999 0.81258 0.40354 0.0
H610 H 0.49614 0.83664 0.42955 0.0
H611 H 0.50738 0.86302 0.42422 0.0
H612 H 0.53782 0.88246 0.32062 0.0
H613 H 0.53831 0.8584 0.29279 0.0
C614 C 0.53287 0.83297 0.32817 0.0
C615 C 0.52928 0.8206 0.35016 0.0
C616 C 0.52441 0.84679 0.34275 0.0
C617 C 0.51336 0.82203 0.3863 0.0
C618 C 0.50563 0.83575 0.40115 0.0
C619 C 0.51265 0.86195 0.39541 0.0
C620 C 0.52325 0.8743 0.37437 0.0
C621 C 0.51298 0.84818 0.37986 0.0
C622 C 0.52945 0.87299 0.33712 0.0
C623 C 0.5303 0.85927 0.32136 0.0
H624 H 0.67728 0.37216 0.47822 0.0
H625 H 0.78934 0.35738 0.39274 0.0
H626 H 0.80519 0.38249 0.37342 0.0
H627 H 0.77331 0.40796 0.37496 0.0
H628 H 0.65636 0.42219 0.4586 0.0
H629 H 0.658 0.39802 0.48539 0.0
C630 C 0.70577 0.37444 0.45562 0.0
C631 C 0.73095 0.36297 0.43633 0.0
C632 C 0.71395 0.3888 0.44449 0.0
C633 C 0.76888 0.36606 0.40768 0.0
C634 C 0.77789 0.3804 0.39664 0.0
C635 C 0.74984 0.4059 0.39975 0.0
C636 C 0.71405 0.41675 0.41455 0.0
C637 C 0.74881 0.3918 0.41403 0.0
C638 C 0.68382 0.41395 0.44662 0.0
C639 C 0.68427 0.4001 0.46172 0.0
H640 H 0.31314 0.57908 0.09195 0.0
H641 H 0.49789 0.58446 0.0736 0.0
H642 H 0.50612 0.59896 0.12866 0.0
H643 H 0.45883 0.61055 0.18122 0.0
H644 H 0.27499 0.60293 0.20059 0.0
H645 H 0.26845 0.58863 0.1462 0.0
C646 C 0.3551 0.58353 0.09996 0.0
C647 C 0.40458 0.58111 0.07869 0.0
C648 C 0.35964 0.59129 0.13195 0.0
C649 C 0.45917 0.58645 0.08961 0.0
C650 C 0.46381 0.59466 0.12102 0.0
C651 C 0.41759 0.60562 0.17365 0.0
C652 C 0.36743 0.6079 0.19479 0.0
C653 C 0.41414 0.5972 0.14235 0.0
C654 C 0.31433 0.60135 0.18488 0.0
C655 C 0.31035 0.59323 0.15362 0.0
H656 H 0.28521 0.13371 0.09529 0.0
H657 H 0.32216 0.09412 0.0386 0.0
H658 H 0.2971 0.07993 0.09212 0.0
H659 H 0.27574 0.07907 0.15657 0.0
H660 H 0.25427 0.11881 0.21538 0.0
H661 H 0.26121 0.13281 0.15944 0.0
C662 C 0.28667 0.12196 0.09457 0.0
C663 C 0.30515 0.11489 0.06327 0.0
C664 C 0.27512 0.11399 0.12583 0.0
C665 C 0.30807 0.09971 0.06259 0.0
C666 C 0.2938 0.09164 0.0931 0.0
C667 C 0.27107 0.09077 0.15684 0.0
C668 C 0.26356 0.09799 0.18957 0.0
C669 C 0.27873 0.09869 0.12508 0.0
C670 C 0.2594 0.11313 0.19018 0.0
C671 C 0.26372 0.12109 0.15834 0.0
H672 H 0.59091 0.07281 0.57944 0.0
H673 H 0.57718 0.07305 0.6945 0.0
H674 H 0.60409 0.09876 0.69538 0.0
H675 H 0.60524 0.12172 0.66234 0.0
H676 H 0.5964 0.12175 0.54708 0.0
H677 H 0.60669 0.09532 0.54662 0.0
C678 C 0.59675 0.0783 0.60471 0.0
C679 C 0.58288 0.0711 0.63684 0.0
C680 C 0.60734 0.09323 0.60459 0.0
C681 C 0.58833 0.07843 0.66953 0.0
C682 C 0.60312 0.09312 0.66993 0.0
C683 C 0.60845 0.11595 0.6372 0.0
C684 C 0.60073 0.12351 0.6048 0.0
C685 C 0.60904 0.10078 0.63748 0.0
C686 C 0.60303 0.11604 0.57222 0.0
C687 C 0.60818 0.10096 0.57206 0.0
H688 H 0.17167 0.63269 0.60852 0.0
H689 H 0.21588 0.62546 0.71935 0.0
H690 H 0.2206 0.59934 0.70876 0.0
H691 H 0.23926 0.58023 0.66498 0.0
H692 H 0.2149 0.58854 0.55235 0.0
H693 H 0.17573 0.61268 0.56588 0.0
C694 C 0.17977 0.62536 0.63059 0.0
C695 C 0.19378 0.63093 0.66454 0.0
C696 C 0.18792 0.61061 0.62341 0.0
C697 C 0.20476 0.62134 0.69303 0.0
C698 C 0.20838 0.60646 0.6868 0.0
C699 C 0.22304 0.58714 0.64366 0.0
C700 C 0.22929 0.58277 0.60789 0.0
C701 C 0.20418 0.60118 0.65164 0.0
C702 C 0.20981 0.59179 0.58008 0.0
C703 C 0.18782 0.60556 0.58787 0.0
H704 H 0.46576 0.30444 0.43668 0.0
H705 H 0.5703 0.3119 0.34201 0.0
H706 H 0.48513 0.30747 0.30402 0.0
H707 H 0.37992 0.30272 0.29782 0.0
H708 H 0.27574 0.29467 0.39237 0.0
H709 H 0.36196 0.2979 0.43023 0.0
C710 C 0.4699 0.30504 0.40773 0.0
C711 C 0.5241 0.30864 0.3922 0.0
C712 C 0.42087 0.30235 0.38602 0.0
C713 C 0.52902 0.3092 0.35464 0.0
C714 C 0.48033 0.30668 0.33289 0.0
C715 C 0.37618 0.30153 0.32669 0.0
C716 C 0.3214 0.29856 0.34225 0.0
C717 C 0.4259 0.30342 0.3483 0.0
C718 C 0.31738 0.29695 0.37968 0.0
C719 C 0.36662 0.29887 0.40139 0.0
H720 H 0.93696 0.92562 0.30971 0.0
H721 H 0.00728 0.92392 0.41708 0.0
H722 H 0.9085 0.92175 0.44161 0.0
H723 H 0.80228 0.91947 0.4324 0.0
H724 H 0.73203 0.92197 0.3251 0.0
H725 H 0.83061 0.9247 0.30074 0.0
C726 C 0.93066 0.92484 0.33849 0.0
C727 C 0.97942 0.92485 0.36151 0.0
C728 C 0.87376 0.92368 0.35242 0.0
C729 C 0.97049 0.92396 0.39876 0.0
C730 C 0.91402 0.92266 0.41282 0.0
C731 C 0.80858 0.92064 0.40369 0.0
C732 C 0.75995 0.92041 0.38058 0.0
C733 C 0.86537 0.92236 0.38988 0.0
C734 C 0.76873 0.9221 0.34348 0.0
C735 C 0.8251 0.92364 0.32951 0.0
H736 H 0.35664 0.92653 0.79359 0.0
H737 H 0.45275 0.94079 0.88666 0.0
H738 H 0.36293 0.94078 0.92201 0.0
H739 H 0.25951 0.93398 0.92826 0.0
H740 H 0.16301 0.91989 0.83523 0.0
H741 H 0.25027 0.92277 0.79806 0.0
C742 C 0.35776 0.92986 0.82145 0.0
C743 C 0.41148 0.93345 0.83756 0.0
C744 C 0.30592 0.92976 0.84174 0.0
C745 C 0.41208 0.9379 0.8736 0.0
C746 C 0.36073 0.93784 0.89392 0.0
C747 C 0.25733 0.93176 0.89974 0.0
C748 C 0.20506 0.92654 0.88465 0.0
C749 C 0.30777 0.93336 0.87855 0.0
C750 C 0.20275 0.92388 0.84757 0.0
C751 C 0.25274 0.92545 0.82631 0.0
H752 H 0.81563 0.27783 0.89261 0.0
H753 H 0.85366 0.28515 0.78061 0.0
H754 H 0.95843 0.28419 0.79313 0.0
H755 H 0.03925 0.28244 0.83629 0.0
H756 H 0.00128 0.27661 0.94879 0.0
H757 H 0.8966 0.27573 0.9357 0.0
C758 C 0.84689 0.2791 0.87093 0.0
C759 C 0.82697 0.28157 0.83577 0.0
C760 C 0.90709 0.27884 0.87843 0.0
C761 C 0.86793 0.2833 0.80796 0.0
C762 C 0.92785 0.28274 0.81508 0.0
C763 C 0.00806 0.28083 0.85787 0.0
C764 C 0.02789 0.27958 0.89341 0.0
C765 C 0.94792 0.28068 0.85026 0.0
C766 C 0.98701 0.27764 0.92118 0.0
C767 C 0.92717 0.27714 0.91374 0.0
H768 H 0.67428 0.66541 0.6612 0.0
H769 H 0.6237 0.65458 0.76952 0.0
H770 H 0.52181 0.66045 0.75558 0.0
H771 H 0.44593 0.66675 0.71111 0.0
H772 H 0.496 0.67504 0.60148 0.0
H773 H 0.59926 0.67236 0.61741 0.0
C774 C 0.64104 0.66449 0.68185 0.0
C775 C 0.65641 0.65954 0.71629 0.0
C776 C 0.58243 0.66747 0.67336 0.0
C777 C 0.61284 0.65828 0.74272 0.0
C778 C 0.55461 0.66166 0.73479 0.0
C779 C 0.4797 0.66828 0.691 0.0
C780 C 0.46382 0.67123 0.65531 0.0
C781 C 0.53873 0.66603 0.70003 0.0
C782 C 0.50755 0.67285 0.62917 0.0
C783 C 0.56644 0.67124 0.63823 0.0
H784 H 0.11572 0.0369 0.70582 0.0
H785 H 0.04827 0.04579 0.59985 0.0
H786 H 0.14609 0.04329 0.57459 0.0
H787 H 0.25154 0.04019 0.58297 0.0
H788 H 0.31995 0.03002 0.68784 0.0
H789 H 0.22102 0.0312 0.71317 0.0
C790 C 0.12253 0.03818 0.67719 0.0
C791 C 0.07495 0.04168 0.65479 0.0
C792 C 0.17898 0.0365 0.66267 0.0
C793 C 0.08415 0.04311 0.61768 0.0
C794 C 0.14011 0.04172 0.60319 0.0
C795 C 0.24467 0.03807 0.61132 0.0
C796 C 0.29282 0.03516 0.63361 0.0
C797 C 0.1879 0.03865 0.62549 0.0
C798 C 0.28341 0.03225 0.67017 0.0
C799 C 0.22695 0.03302 0.68466 0.0
H800 H 0.43978 0.05357 0.15321 0.0
H801 H 0.53499 0.05436 0.25315 0.0
H802 H 0.62446 0.04727 0.22205 0.0
H803 H 0.67617 0.04147 0.16652 0.0
H804 H 0.58396 0.04243 0.0656 0.0
H805 H 0.49259 0.04816 0.09697 0.0
C806 C 0.48012 0.05211 0.16813 0.0
C807 C 0.48082 0.05443 0.20542 0.0
C808 C 0.5318 0.04836 0.14991 0.0
C809 C 0.53343 0.05268 0.22441 0.0
C810 C 0.58455 0.0486 0.20667 0.0
C811 C 0.63597 0.0428 0.15139 0.0
C812 C 0.63661 0.0414 0.11385 0.0
C813 C 0.58429 0.04648 0.16945 0.0
C814 C 0.58445 0.04341 0.09455 0.0
C815 C 0.53229 0.0467 0.11247 0.0
H816 H 0.07241 0.67303 0.1 0.0
H817 H 0.95935 0.67874 0.19143 0.0
H818 H 0.04223 0.67476 0.23196 0.0
H819 H 0.14454 0.66693 0.24094 0.0
H820 H 0.25751 0.66205 0.14901 0.0
H821 H 0.17705 0.66856 0.10908 0.0
C822 C 0.06619 0.67364 0.12881 0.0
C823 C 0.00997 0.67599 0.14281 0.0
C824 C 0.11385 0.67136 0.1518 0.0
C825 C 0.00238 0.67696 0.1801 0.0
C826 C 0.04963 0.67457 0.20325 0.0
C827 C 0.15161 0.66748 0.2122 0.0
C828 C 0.20656 0.66381 0.19788 0.0
C829 C 0.10519 0.67133 0.18936 0.0
C830 C 0.21552 0.66477 0.16066 0.0
C831 C 0.1695 0.66844 0.13779 0.0
H832 H 0.50751 0.76823 0.93981 0.0
H833 H 0.57695 0.78542 0.84078 0.0
H834 H 0.4851 0.77985 0.81022 0.0
H835 H 0.38102 0.77339 0.81411 0.0
H836 H 0.31141 0.75673 0.91374 0.0
H837 H 0.40781 0.75852 0.94138 0.0
C838 C 0.50285 0.77055 0.91139 0.0
C839 C 0.54842 0.77747 0.89271 0.0
C840 C 0.44982 0.76748 0.89416 0.0
C841 C 0.54227 0.78019 0.8558 0.0
C842 C 0.48969 0.77706 0.83835 0.0
C843 C 0.38719 0.76986 0.84164 0.0
C844 C 0.33891 0.76519 0.86203 0.0
C845 C 0.4425 0.77119 0.85761 0.0
C846 C 0.34773 0.7605 0.89754 0.0
C847 C 0.40279 0.76159 0.91345 0.0
H848 H 0.76189 0.41208 0.8621 0.0
H849 H 0.86077 0.4153 0.96036 0.0
H850 H 0.9518 0.41661 0.92614 0.0
H851 H 0.00355 0.41583 0.86841 0.0
H852 H 0.90486 0.41119 0.77044 0.0
H853 H 0.81349 0.41152 0.80441 0.0
C854 C 0.80334 0.41317 0.876 0.0
C855 C 0.80463 0.4136 0.91367 0.0
C856 C 0.85554 0.41363 0.85621 0.0
C857 C 0.85867 0.4149 0.93135 0.0
C858 C 0.91073 0.41566 0.91182 0.0
C859 C 0.962 0.41502 0.8545 0.0
C860 C 0.9609 0.4135 0.817 0.0
C861 C 0.90972 0.41489 0.87426 0.0
C862 C 0.90682 0.41233 0.79933 0.0
C863 C 0.85458 0.41251 0.81872 0.0
H864 H 0.45622 0.45694 0.38846 0.0
H865 H 0.4463 0.4366 0.28467 0.0
H866 H 0.34004 0.43472 0.29016 0.0
H867 H 0.25098 0.43712 0.32647 0.0
H868 H 0.2621 0.45546 0.43251 0.0
H869 H 0.36661 0.45993 0.42416 0.0
C870 C 0.43058 0.4523 0.36687 0.0
C871 C 0.45881 0.44694 0.33621 0.0
C872 C 0.36978 0.45079 0.37076 0.0
C873 C 0.42538 0.44077 0.30858 0.0
C874 C 0.36469 0.43967 0.31172 0.0
C875 C 0.2762 0.44227 0.34753 0.0
C876 C 0.24904 0.44595 0.38003 0.0
C877 C 0.33656 0.44439 0.34298 0.0
C878 C 0.28223 0.45246 0.4073 0.0
C879 C 0.34194 0.45503 0.40255 0.0
H880 H 0.74266 0.78358 0.41284 0.0
H881 H 0.80947 0.77028 0.30984 0.0
H882 H 0.90964 0.77268 0.3318 0.0
H883 H 0.97824 0.77978 0.37917 0.0
H884 H 0.91165 0.79428 0.48125 0.0
H885 H 0.8115 0.7902 0.46076 0.0
C886 C 0.77917 0.78103 0.39537 0.0
C887 C 0.76871 0.77673 0.35981 0.0
C888 C 0.8367 0.78278 0.4079 0.0
C889 C 0.81642 0.77363 0.33733 0.0
C890 C 0.8737 0.77502 0.34984 0.0
C891 C 0.94184 0.78197 0.39701 0.0
C892 C 0.95239 0.78736 0.43164 0.0
C893 C 0.88436 0.7798 0.38489 0.0
C894 C 0.90472 0.79019 0.45439 0.0
C895 C 0.84742 0.78784 0.44272 0.0
H896 H 0.75147 0.1635 0.07711 0.0
H897 H 0.66101 0.1698 0.17738 0.0
H898 H 0.56689 0.16632 0.1472 0.0
H899 H 0.51083 0.16015 0.09277 0.0
H900 H 0.60296 0.15203 0.99384 0.0
H901 H 0.69591 0.15756 0.023 0.0
C902 C 0.71112 0.1643 0.09229 0.0
C903 C 0.71314 0.16699 0.12938 0.0
C904 C 0.65751 0.16184 0.07502 0.0
C905 C 0.66055 0.16777 0.14878 0.0
C906 C 0.60678 0.16575 0.13156 0.0
C907 C 0.55126 0.15971 0.07758 0.0
C908 C 0.55006 0.15569 0.0412 0.0
C909 C 0.60479 0.16257 0.09477 0.0
C910 C 0.60277 0.15502 0.02191 0.0
C911 C 0.65593 0.15821 0.03854 0.0
H912 H 0.13686 0.53875 0.9916 0.0
H913 H 0.20246 0.54319 0.09955 0.0
H914 H 0.10254 0.54364 0.12269 0.0
H915 H 0.99693 0.54512 0.11162 0.0
H916 H 0.93023 0.53968 0.00434 0.0
H917 H 0.03026 0.53707 0.98148 0.0
C918 C 0.12917 0.53963 0.02022 0.0
C919 C 0.17684 0.54112 0.04382 0.0
C920 C 0.07156 0.53976 0.03338 0.0
C921 C 0.16646 0.54205 0.08087 0.0
C922 C 0.10936 0.54238 0.0941 0.0
C923 C 0.00435 0.54317 0.08329 0.0
C924 C 0.95662 0.54277 0.05956 0.0
C925 C 0.06167 0.54159 0.07052 0.0
C926 C 0.96647 0.54002 0.02305 0.0
C927 C 0.02359 0.53863 0.00999 0.0
H928 H 0.71 0.55067 0.53803 0.0
H929 H 0.62279 0.56198 0.43915 0.0
H930 H 0.52821 0.55589 0.46587 0.0
H931 H 0.46971 0.5492 0.51892 0.0
H932 H 0.55706 0.53984 0.61891 0.0
H933 H 0.65217 0.5431 0.59011 0.0
C934 C 0.67036 0.55166 0.5222 0.0
C935 C 0.67334 0.55682 0.48674 0.0
C936 C 0.61612 0.54848 0.53799 0.0
C937 C 0.62158 0.55811 0.46661 0.0
C938 C 0.5675 0.55462 0.48185 0.0
C939 C 0.50966 0.54761 0.53415 0.0
C940 C 0.50658 0.54425 0.57089 0.0
C941 C 0.56414 0.55003 0.51772 0.0
C942 C 0.5585 0.54244 0.59056 0.0
C943 C 0.61283 0.54435 0.57415 0.0
H944 H 0.12309 0.17925 0.62403 0.0
H945 H 0.16605 0.18488 0.51221 0.0
H946 H 0.26991 0.18124 0.52573 0.0
H947 H 0.34775 0.17483 0.56907 0.0
H948 H 0.30181 0.16696 0.67966 0.0
H949 H 0.20008 0.17317 0.66704 0.0
C950 C 0.15529 0.17988 0.6027 0.0
C951 C 0.13711 0.18238 0.56724 0.0
C952 C 0.2144 0.17727 0.61047 0.0
C953 C 0.17913 0.18295 0.53975 0.0
C954 C 0.23844 0.18085 0.54746 0.0
C955 C 0.31544 0.17464 0.59037 0.0
C956 C 0.33204 0.17046 0.6252 0.0
C957 C 0.2565 0.17776 0.58266 0.0
C958 C 0.28984 0.17008 0.65258 0.0
C959 C 0.23173 0.17364 0.64541 0.0
H960 H 0.07896 0.20687 0.21202 0.0
H961 H 0.90271 0.21656 0.17786 0.0
H962 H 0.9137 0.24148 0.19865 0.0
H963 H 0.97222 0.26025 0.22784 0.0
H964 H 0.14803 0.2505 0.26293 0.0
H965 H 0.13778 0.22572 0.24099 0.0
C966 C 0.04322 0.21449 0.2086 0.0
C967 C 0.99021 0.20988 0.19317 0.0
C968 C 0.04934 0.22869 0.22138 0.0
C969 C 0.94405 0.21984 0.1895 0.0
C970 C 0.95016 0.23406 0.20158 0.0
C971 C 0.00823 0.2527 0.23102 0.0
C972 C 0.06075 0.25724 0.2472 0.0
C973 C 0.00232 0.23854 0.21798 0.0
C974 C 0.10702 0.2473 0.25075 0.0
C975 C 0.10133 0.23315 0.23802 0.0
H976 H 0.1601 0.97405 0.31663 0.0
H977 H 0.34827 0.96969 0.31439 0.0
H978 H 0.3584 -0.0042 0.30647 0.0
H979 H 0.31411 0.0196 0.29712 0.0
H980 H 0.12613 0.02416 0.29915 0.0
H981 H 0.11577 -0.00185 0.31019 0.0
C982 C 0.20337 0.97881 0.31475 0.0
C983 C 0.25331 0.96989 0.31586 0.0
C984 C 0.20895 -0.00618 0.30984 0.0
C985 C 0.30904 0.97627 0.31347 0.0
C986 C 0.31493 -0.0088 0.30884 0.0
C987 C 0.27079 0.01493 0.29995 0.0
C988 C 0.22095 0.02378 0.29694 0.0
C989 C 0.26518 3e-05 0.30639 0.0
C990 C 0.16522 0.01757 0.30119 0.0
C991 C 0.15926 0.00271 0.30752 0.0
H992 H 0.86934 -0.00798 0.99332 0.0
H993 H 0.86274 0.97718 0.1029 0.0
H994 H 0.87123 0.95194 0.08283 0.0
H995 H 0.89286 0.93465 0.03464 0.0
H996 H 0.91509 0.95007 0.92627 0.0
H997 H 0.88699 0.97458 0.94481 0.0
C998 C 0.86848 -0.01683 0.01258 0.0
C999 C 0.86476 -0.01379 0.04934 0.0
C1000 C 0.87631 0.96889 0.00091 0.0
C1001 C 0.86504 0.97489 0.07445 0.0
C1002 C 0.8701 0.96055 0.06297 0.0
C1003 C 0.8898 0.94334 0.01501 0.0
C1004 C 0.90484 0.94067 0.97912 0.0
C1005 C 0.87733 0.95747 0.02635 0.0
C1006 C 0.90284 0.95197 0.95393 0.0
C1007 C 0.88724 0.96594 0.96459 0.0
H1008 H 0.38049 0.19186 0.95208 0.0
H1009 H 0.1934 0.18633 0.94302 0.0
H1010 H 0.1823 0.21198 0.92864 0.0
H1011 H 0.22497 0.23604 0.92085 0.0
H1012 H 0.4119 0.24176 0.93005 0.0
H1013 H 0.42374 0.21586 0.94177 0.0
C1014 C 0.33726 0.19625 0.94695 0.0
C1015 C 0.28782 0.1872 0.94891 0.0
C1016 C 0.33114 0.21101 0.93862 0.0
C1017 C 0.2322 0.19305 0.94182 0.0
C1018 C 0.22577 0.20772 0.93358 0.0
C1019 C 0.26843 0.23164 0.92517 0.0
C1020 C 0.31743 0.24086 0.92479 0.0
C1021 C 0.27486 0.2168 0.93219 0.0
C1022 C 0.3734 0.23493 0.93026 0.0
C1023 C 0.3802 0.22012 0.93708 0.0
H1024 H 0.04178 0.68461 0.77886 0.0
H1025 H 0.85907 0.69523 0.76553 0.0
H1026 H 0.87804 0.71996 0.78559 0.0
H1027 H 0.94729 0.73878 0.80486 0.0
H1028 H 0.12989 0.72786 0.81798 0.0
H1029 H 0.10982 0.70299 0.80039 0.0
C1030 C 0.00604 0.69232 0.78026 0.0
C1031 C 0.94923 0.68811 0.7704 0.0
C1032 C 0.01714 0.70647 0.79193 0.0
C1033 C 0.90333 0.69821 0.77283 0.0
C1034 C 0.9141 0.71235 0.78432 0.0
C1035 C 0.98259 0.73093 0.80422 0.0
C1036 C 0.04003 0.73523 0.81254 0.0
C1037 C 0.97093 0.71662 0.79373 0.0
C1038 C 0.08527 0.7249 0.81155 0.0
C1039 C 0.07392 0.71066 0.8014 0.0
H1040 H 0.77963 0.95957 0.73183 0.0
H1041 H 0.60284 0.97165 0.75967 0.0
H1042 H 0.62019 -0.00386 0.73715 0.0
H1043 H 0.68674 0.01438 0.71207 0.0
H1044 H 0.86418 0.00243 0.6857 0.0
H1045 H 0.84482 0.97751 0.70446 0.0
C1046 C 0.74487 0.96756 0.73311 0.0
C1047 C 0.6902 0.96379 0.74776 0.0
C1048 C 0.75502 -0.0184 0.72001 0.0
C1049 C 0.64549 0.97426 0.74876 0.0
C1050 C 0.65527 -0.01174 0.73576 0.0
C1051 C 0.72089 0.00627 0.70979 0.0
C1052 C 0.77682 0.01026 0.69751 0.0
C1053 C 0.70995 -0.00793 0.72151 0.0
C1054 C 0.82075 -0.00035 0.69509 0.0
C1055 C 0.80983 -0.01458 0.70601 0.0
H1056 H 0.78821 0.75475 0.92439 0.0
H1057 H 0.91151 0.76952 0.00371 0.0
H1058 H 0.92263 0.74468 0.02617 0.0
H1059 H 0.8824 0.71977 0.03033 0.0
H1060 H 0.75275 0.70615 0.9531 0.0
H1061 H 0.75847 0.72952 0.92321 0.0
C1062 C 0.81887 0.75246 0.94592 0.0
C1063 C 0.84821 0.76394 0.96275 0.0
C1064 C 0.8224 0.73841 0.95987 0.0
C1065 C 0.88841 0.76085 0.99026 0.0
C1066 C 0.89398 0.74668 0.00352 0.0
C1067 C 0.85595 0.72188 0.00673 0.0
C1068 C 0.8161 0.71133 0.9946 0.0
C1069 C 0.85869 0.73553 0.98978 0.0
C1070 C 0.78274 0.71416 0.96364 0.0
C1071 C 0.78622 0.72751 0.94629 0.0
H1072 H 0.1757 0.50478 0.69848 0.0
H1073 H 0.33701 0.49727 0.64109 0.0
H1074 H 0.33936 0.47234 0.66329 0.0
H1075 H 0.29546 0.45274 0.69869 0.0
H1076 H 0.13356 0.46023 0.75538 0.0
H1077 H 0.13235 0.48531 0.73421 0.0
C1078 C 0.2112 0.49769 0.69052 0.0
C1079 C 0.25596 0.50288 0.66798 0.0
C1080 C 0.21266 0.48345 0.70367 0.0
C1081 C 0.30185 0.49354 0.65828 0.0
C1082 C 0.30341 0.47931 0.67111 0.0
C1083 C 0.2603 0.45991 0.70685 0.0
C1084 C 0.21479 0.45465 0.72871 0.0
C1085 C 0.25921 0.47419 0.69397 0.0
C1086 C 0.16917 0.46403 0.73863 0.0
C1087 C 0.16828 0.47833 0.72638 0.0
H1088 H 0.03354 0.48195 0.38918 0.0
H1089 H 0.84968 0.47216 0.4005 0.0
H1090 H 0.82795 0.498 0.40629 0.0
H1091 H 0.86216 0.52313 0.41214 0.0
H1092 H 0.04652 0.5326 0.4017 0.0
H1093 H 0.0669 0.50702 0.39152 0.0
C1094 C 0.98856 0.48543 0.39266 0.0
C1095 C 0.94337 0.47511 0.39477 0.0
C1096 C 0.97652 0.50022 0.39638 0.0
C1097 C 0.88535 0.47986 0.39894 0.0
C1098 C 0.87292 0.49463 0.40237 0.0
C1099 C 0.90679 0.51963 0.40744 0.0
C1100 C 0.9528 0.52978 0.40803 0.0
C1101 C 0.91832 0.50487 0.4018 0.0
C1102 C 0.01029 0.52504 0.4016 0.0
C1103 C 0.02203 0.5104 0.39579 0.0
H1104 H 0.28261 0.70745 0.55745 0.0
H1105 H 0.09428 0.70627 0.56551 0.0
H1106 H 0.08753 0.72887 0.53141 0.0
H1107 H 0.13499 0.749 0.50029 0.0
H1108 H 0.32338 0.75018 0.49155 0.0
H1109 H 0.33007 0.72723 0.52416 0.0
C1110 C 0.24013 0.71223 0.5521 0.0
C1111 C 0.18903 0.70533 0.56438 0.0
C1112 C 0.23653 0.72504 0.53184 0.0
C1113 C 0.13423 0.71146 0.55654 0.0
C1114 C 0.13034 0.72432 0.53691 0.0
C1115 C 0.17759 0.74419 0.50508 0.0
C1116 C 0.22862 0.75136 0.49358 0.0
C1117 C 0.18118 0.73117 0.52437 0.0
C1118 C 0.28336 0.7449 0.50001 0.0
C1119 C 0.28727 0.73184 0.51894 0.0
H1120 H 0.65039 0.48565 0.26863 0.0
H1121 H 0.83735 0.48014 0.259 0.0
H1122 H 0.84079 0.49959 0.21426 0.0
H1123 H 0.79019 0.51781 0.1771 0.0
H1124 H 0.60314 0.52298 0.18704 0.0
H1125 H 0.60023 0.50371 0.23198 0.0
C1126 C 0.69215 0.48879 0.25718 0.0
C1127 C 0.7436 0.48146 0.26735 0.0
C1128 C 0.69361 0.49971 0.23099 0.0
C1129 C 0.7971 0.48563 0.25181 0.0
C1130 C 0.79904 0.49667 0.22603 0.0
C1131 C 0.74867 0.51457 0.18871 0.0
C1132 C 0.69687 0.52175 0.17852 0.0
C1133 C 0.74743 0.50365 0.21507 0.0
C1134 C 0.64359 0.51759 0.1943 0.0
C1135 C 0.64192 0.50664 0.22016 0.0
H1136 H 0.77135 0.22601 0.50829 0.0
H1137 H 0.94681 0.23451 0.54526 0.0
H1138 H 0.93823 0.25979 0.52561 0.0
H1139 H 0.87962 0.27954 0.49913 0.0
H1140 H 0.70511 0.27044 0.46079 0.0
H1141 H 0.71521 0.24523 0.47914 0.0
C1142 C 0.80756 0.23342 0.51237 0.0
C1143 C 0.85927 0.22848 0.52873 0.0
C1144 C 0.80281 0.24777 0.50031 0.0
C1145 C 0.90633 0.23811 0.53302 0.0
C1146 C 0.90153 0.25253 0.52165 0.0
C1147 C 0.84411 0.27201 0.49431 0.0
C1148 C 0.79158 0.27694 0.47874 0.0
C1149 C 0.84992 0.25748 0.50525 0.0
C1150 C 0.746 0.26699 0.47278 0.0
C1151 C 0.75154 0.25257 0.48346 0.0
H1152 H 0.64913 0.23899 0.77713 0.0
H1153 H 0.4601 0.23959 0.77795 0.0
H1154 H 0.4582 0.2164 0.74673 0.0
H1155 H 0.50989 0.1966 0.71716 0.0
H1156 H 0.69876 0.19573 0.71679 0.0
H1157 H 0.70095 0.21863 0.74965 0.0
C1158 C 0.60743 0.23401 0.77083 0.0
C1159 C 0.55481 0.24107 0.77972 0.0
C1160 C 0.60663 0.22078 0.75253 0.0
C1161 C 0.50125 0.2344 0.77143 0.0
C1162 C 0.5001 0.22119 0.75338 0.0
C1163 C 0.55162 0.20146 0.72399 0.0
C1164 C 0.60414 0.19459 0.71416 0.0
C1165 C 0.5525 0.21443 0.7433 0.0
C1166 C 0.65777 0.20087 0.72387 0.0
C1167 C 0.65902 0.21392 0.74274 0.0
H1168 H 0.44968 0.00175 0.51553 0.0
H1169 H 0.63855 0.00204 0.51239 0.0
H1170 H 0.63818 0.98039 0.4752 0.0
H1171 H 0.58507 0.96095 0.44584 0.0
H1172 H 0.39627 0.96003 0.44919 0.0
H1173 H 0.3958 -0.0173 0.48302 0.0
C1174 C 0.49072 -0.003 0.50691 0.0
C1175 C 0.54408 0.00338 0.51708 0.0
C1176 C 0.49023 -0.01538 0.4851 0.0
C1177 C 0.5969 -0.00271 0.50511 0.0
C1178 C 0.59675 -0.01505 0.48371 0.0
C1179 C 0.54363 0.96577 0.4535 0.0
C1180 C 0.49081 0.95872 0.44522 0.0
C1181 C 0.54375 0.97851 0.47371 0.0
C1182 C 0.43761 0.96522 0.45515 0.0
C1183 C 0.43733 0.9781 0.47484 0.0
H1184 H 0.56785 0.72799 0.31223 0.0
H1185 H 0.38405 0.73852 0.31987 0.0
H1186 H 0.35882 0.71306 0.31382 0.0
H1187 H 0.38781 0.6882 0.30258 0.0
H1188 H 0.57062 0.67701 0.29434 0.0
H1189 H 0.59741 0.7024 0.30458 0.0
C1190 C 0.52234 0.72468 0.31304 0.0
C1191 C 0.4779 0.73518 0.31618 0.0
C1192 C 0.50792 0.70996 0.30909 0.0
C1193 C 0.41914 0.73071 0.31717 0.0
C1194 C 0.40458 0.71614 0.31366 0.0
C1195 C 0.43363 0.69127 0.303 0.0
C1196 C 0.47716 0.68078 0.2972 0.0
C1197 C 0.44849 0.70575 0.30887 0.0
C1198 C 0.53628 0.68491 0.29853 0.0
C1199 C 0.55156 0.69941 0.30435 0.0
H1200 H 0.44766 0.45247 -0.00335 0.0
H1201 H 0.62794 0.45896 0.9659 0.0
H1202 H 0.61308 0.48515 0.9654 0.0
H1203 H 0.54942 0.50622 0.97489 0.0
H1204 H 0.36922 0.49954 0.00576 0.0
H1205 H 0.38378 0.47341 0.00498 0.0
C1206 C 0.48376 0.45959 0.98971 0.0
C1207 C 0.53886 0.45374 0.98142 0.0
C1208 C 0.475 0.47462 0.98959 0.0
C1209 C 0.58506 0.46315 0.97243 0.0
C1210 C 0.57662 0.47814 0.97218 0.0
C1211 C 0.51327 0.49905 0.98142 0.0
C1212 C 0.45837 0.50486 0.99047 0.0
C1213 C 0.52188 0.484 0.98093 0.0
C1214 C 0.41198 0.4954 -0.00126 0.0
C1215 C 0.42024 0.48043 -0.00169 0.0
H1216 H 0.25131 0.30592 0.1639 0.0
H1217 H 0.07237 0.31578 0.1353 0.0
H1218 H 0.09679 0.31377 0.07198 0.0
H1219 H 0.16575 0.30674 0.02533 0.0
H1220 H 0.34485 0.29698 0.05255 0.0
H1221 H 0.32366 0.30155 0.11607 0.0
C1222 C 0.21782 0.30782 0.14381 0.0
C1223 C 0.15986 0.31076 0.15438 0.0
C1224 C 0.23202 0.30654 0.10733 0.0
C1225 C 0.11721 0.31339 0.12799 0.0
C1226 C 0.13103 0.31219 0.09174 0.0
C1227 C 0.20028 0.30572 0.04516 0.0
C1228 C 0.25644 0.30128 0.03461 0.0
C1229 C 0.18777 0.30835 0.08124 0.0
C1230 C 0.3012 0.30031 0.06026 0.0
C1231 C 0.28901 0.30287 0.09648 0.0
H1232 H 0.16607 0.91231 0.06555 0.0
H1233 H 0.00179 0.894 0.10087 0.0
H1234 H 0.03079 0.89704 0.16314 0.0
H1235 H 0.10023 0.90583 0.20757 0.0
H1236 H 0.26679 0.92304 0.17397 0.0
H1237 H 0.2396 0.91948 0.11086 0.0
C1238 C 0.1368 0.90894 0.0869 0.0
C1239 C 0.08164 0.90306 0.07855 0.0
C1240 C 0.15398 0.91058 0.12286 0.0
C1241 C 0.04447 0.89856 0.10649 0.0
C1242 C 0.06088 0.90033 0.14216 0.0
C1243 C 0.13059 0.90879 0.18639 0.0
C1244 C 0.18496 0.91487 0.19512 0.0
C1245 C 0.11508 0.90649 0.15059 0.0
C1246 C 0.22456 0.91838 0.16766 0.0
C1247 C 0.20895 0.91638 0.1317 0.0
H1248 H 0.97613 0.63264 0.85954 0.0
H1249 H 0.8059 0.6141 0.84049 0.0
H1250 H 0.78354 0.61531 0.90443 0.0
H1251 H 0.80217 0.62765 0.96096 0.0
H1252 H 0.96738 0.64908 0.97839 0.0
H1253 H 0.00279 0.64042 0.92044 0.0
C1254 C 0.93526 0.62828 0.86972 0.0
C1255 C 0.89224 0.6235 0.84559 0.0
C1256 C 0.92134 0.62989 0.90614 0.0
C1257 C 0.83928 0.61794 0.85878 0.0
C1258 C 0.82634 0.61876 0.89523 0.0
C1259 C 0.84652 0.6301 0.95247 0.0
C1260 C 0.88141 0.63939 0.97317 0.0
C1261 C 0.86535 0.62569 0.91854 0.0
C1262 C 0.93934 0.64213 0.96256 0.0
C1263 C 0.95943 0.63727 0.92929 0.0
H1264 H 0.92896 0.04929 0.82149 0.0
H1265 H 0.74963 0.06406 0.8209 0.0
H1266 H 0.7433 0.0601 0.8855 0.0
H1267 H 0.787 0.0513 0.94163 0.0
H1268 H 0.96649 0.0367 0.94214 0.0
H1269 H 0.97418 0.0417 0.87802 0.0
C1270 C 0.8886 0.05177 0.83549 0.0
C1271 C 0.83978 0.05687 0.81627 0.0
C1272 C 0.88504 0.04937 0.87258 0.0
C1273 C 0.78794 0.0601 0.83495 0.0
C1274 C 0.78413 0.05778 0.87191 0.0
C1275 C 0.82778 0.0492 0.9277 0.0
C1276 C 0.8759 0.04352 0.94657 0.0
C1277 C 0.8321 0.05219 0.89087 0.0
C1278 C 0.92871 0.04105 0.92824 0.0
C1279 C 0.93319 0.0439 0.89157 0.0
H1280 H 0.21005 0.79529 0.71332 0.0
H1281 H 0.02201 0.79858 0.70571 0.0
H1282 H 0.02986 0.80453 0.64209 0.0
H1283 H 0.0893 0.80653 0.58778 0.0
H1284 H 0.27734 0.80322 0.59501 0.0
H1285 H 0.2703 0.79988 0.65989 0.0
C1286 C 0.17082 0.79739 0.69777 0.0
C1287 C 0.11551 0.79626 0.71404 0.0
C1288 C 0.17562 0.80084 0.66122 0.0
C1289 C 0.06511 0.79929 0.69376 0.0
C1290 C 0.06952 0.80268 0.65737 0.0
C1291 C 0.12884 0.80529 0.60359 0.0
C1292 C 0.18367 0.80491 0.58655 0.0
C1293 C 0.12445 0.80317 0.6407 0.0
C1294 C 0.23455 0.80351 0.60746 0.0
C1295 C 0.23055 0.80148 0.64453 0.0
H1296 H 0.03551 0.40588 0.64318 0.0
H1297 H 0.2158 0.39954 0.61201 0.0
H1298 H 0.19031 0.40426 0.54964 0.0
H1299 H 0.1194 0.4125 0.50513 0.0
H1300 H 0.93871 0.41847 0.53477 0.0
H1301 H 0.96183 0.41159 0.5969 0.0
C1302 C 0.0691 0.40531 0.62268 0.0
C1303 C 0.12768 0.40257 0.63238 0.0
C1304 C 0.05427 0.40819 0.58682 0.0
C1305 C 0.17048 0.4017 0.60541 0.0
C1306 C 0.15604 0.40449 0.56973 0.0
C1307 C 0.08503 0.41227 0.52522 0.0
C1308 C 0.02775 0.41628 0.51583 0.0
C1309 C 0.09854 0.40817 0.56039 0.0
C1310 C 0.98323 0.41556 0.54166 0.0
C1311 C 0.99648 0.41163 0.57706 0.0
H1312 H 0.83656 0.16258 0.30562 0.0
H1313 H 0.02271 0.15456 0.30986 0.0
H1314 H 0.02108 0.15671 0.37487 0.0
H1315 H 0.96889 0.16295 0.42978 0.0
H1316 H 0.78286 0.17078 0.42653 0.0
H1317 H 0.78232 0.16649 0.36177 0.0
C1318 C 0.87665 0.16115 0.3208 0.0
C1319 C 0.92977 0.15862 0.30282 0.0
C1320 C 0.87556 0.16246 0.35827 0.0
C1321 C 0.98122 0.15661 0.32293 0.0
C1322 C 0.98045 0.15788 0.36014 0.0
C1323 C 0.92814 0.16363 0.41493 0.0
C1324 C 0.87619 0.16739 0.43267 0.0
C1325 C 0.92819 0.16116 0.37794 0.0
C1326 C 0.82349 0.16795 0.41333 0.0
C1327 C 0.8232 0.16556 0.37633 0.0
H1328 H 0.93318 0.58885 0.3061 0.0
H1329 H 0.76497 0.60105 0.34873 0.0
H1330 H 0.72482 0.60264 0.28819 0.0
H1331 H 0.73211 0.59525 0.22572 0.0
H1332 H 0.89759 0.5804 0.18375 0.0
H1333 H 0.94458 0.58553 0.24104 0.0
C1334 C 0.88837 0.59236 0.30193 0.0
C1335 C 0.85169 0.59462 0.33157 0.0
C1336 C 0.86481 0.5925 0.26718 0.0
C1337 C 0.79364 0.5991 0.32611 0.0
C1338 C 0.77064 0.59993 0.29156 0.0
C1339 C 0.77874 0.59344 0.22876 0.0
C1340 C 0.81082 0.587 0.20092 0.0
C1341 C 0.80489 0.5958 0.26218 0.0
C1342 C 0.87151 0.58506 0.20505 0.0
C1343 C 0.89844 0.58794 0.23788 0.0
H1344 H 0.58671 0.31639 0.5751 0.0
H1345 H 0.76108 0.32979 0.60522 0.0
H1346 H 0.7388 0.32506 0.66794 0.0
H1347 H 0.67427 0.31465 0.71318 0.0
H1348 H 0.49992 0.30115 0.68451 0.0
H1349 H 0.51747 0.30859 0.62215 0.0
C1350 C 0.61958 0.31845 0.59542 0.0
C1351 C 0.67584 0.32318 0.58534 0.0
C1352 C 0.60667 0.31561 0.63159 0.0
C1353 C 0.71763 0.32601 0.61209 0.0
C1354 C 0.70503 0.32328 0.64802 0.0
C1355 C 0.63988 0.31348 0.69332 0.0
C1356 C 0.58633 0.30715 0.70304 0.0
C1357 C 0.65041 0.31767 0.65786 0.0
C1358 C 0.54161 0.30596 0.67743 0.0
C1359 C 0.55177 0.31013 0.64184 0.0
H1360 H 0.62288 0.89807 0.54104 0.0
H1361 H 0.43977 0.90857 0.55147 0.0
H1362 H 0.44917 0.90859 0.61683 0.0
H1363 H 0.5121 0.90823 0.6704 0.0
H1364 H 0.6952 0.89751 0.65918 0.0
H1365 H 0.68276 0.89478 0.59478 0.0
C1366 C 0.58489 0.9002 0.55765 0.0
C1367 C 0.531 0.90354 0.54155 0.0
C1368 C 0.59063 0.90023 0.59504 0.0
C1369 C 0.48184 0.90602 0.56331 0.0
C1370 C 0.48724 0.9061 0.60065 0.0
C1371 C 0.5491 0.9051 0.65395 0.0
C1372 C 0.60467 0.90333 0.66959 0.0
C1373 C 0.54182 0.90362 0.61675 0.0
C1374 C 0.65198 0.89907 0.64791 0.0
C1375 C 0.64504 0.89755 0.61098 0.0
H1376 H 0.19754 0.63632 0.48732 0.0
H1377 H 0.37084 0.63903 0.53291 0.0
H1378 H 0.41357 0.63253 0.47515 0.0
H1379 H 0.40207 0.62962 0.40997 0.0
H1380 H 0.22883 0.62901 0.36404 0.0
H1381 H 0.18571 0.63094 0.42371 0.0
C1382 C 0.24462 0.63524 0.48487 0.0
C1383 C 0.28093 0.6384 0.51425 0.0
C1384 C 0.26896 0.63198 0.45136 0.0
C1385 C 0.34186 0.63685 0.51058 0.0
C1386 C 0.36638 0.63316 0.47754 0.0
C1387 C 0.3549 0.62956 0.41317 0.0
C1388 C 0.31863 0.62931 0.38275 0.0
C1389 C 0.33043 0.63123 0.44745 0.0
C1390 C 0.25759 0.62934 0.38713 0.0
C1391 C 0.23292 0.63047 0.4212 0.0
H1392 H 0.37599 0.07057 0.50662 0.0
H1393 H 0.54801 0.07706 0.46128 0.0
H1394 H 0.50437 0.08485 0.40482 0.0
H1395 H 0.41862 0.08552 0.36555 0.0
H1396 H 0.24666 0.07838 0.40989 0.0
H1397 H 0.28901 0.07546 0.46972 0.0
C1398 C 0.40399 0.07396 0.48464 0.0
C1399 C 0.4652 0.07283 0.4879 0.0
C1400 C 0.37863 0.07819 0.45195 0.0
C1401 C 0.50077 0.07758 0.45939 0.0
C1402 C 0.47586 0.08199 0.42699 0.0
C1403 C 0.39029 0.08365 0.38847 0.0
C1404 C 0.32983 0.08185 0.38328 0.0
C1405 C 0.41501 0.08167 0.42251 0.0
C1406 C 0.29343 0.07972 0.4132 0.0
C1407 C 0.31768 0.07793 0.44736 0.0
H1408 H 0.59667 0.79444 0.06386 0.0
H1409 H 0.7713 0.80408 0.10085 0.0
H1410 H 0.74096 0.79963 0.16278 0.0
H1411 H 0.66551 0.79263 0.20601 0.0
H1412 H 0.48934 0.78441 0.16991 0.0
H1413 H 0.51961 0.78868 0.10767 0.0
C1414 C 0.62803 0.79557 0.08552 0.0
C1415 C 0.68621 0.79947 0.07789 0.0
C1416 C 0.61008 0.79321 0.121 0.0
C1417 C 0.72625 0.80111 0.10614 0.0
C1418 C 0.70901 0.79852 0.14147 0.0
C1419 C 0.6338 0.7917 0.18448 0.0
C1420 C 0.57552 0.78803 0.19229 0.0
C1421 C 0.65119 0.79448 0.14913 0.0
C1422 C 0.53451 0.78717 0.16437 0.0
C1423 C 0.5518 0.7896 0.12889 0.0
H1424 H 0.56206 0.40209 0.12408 0.0
H1425 H 0.73973 0.40176 0.08476 0.0
H1426 H 0.77653 0.40459 0.14569 0.0
H1427 H 0.75785 0.41068 0.20834 0.0
H1428 H 0.58006 0.41275 0.2471 0.0
H1429 H 0.54384 0.4054 0.18835 0.0
C1430 C 0.60884 0.40236 0.12892 0.0
C1431 C 0.64804 0.40197 0.09992 0.0
C1432 C 0.62971 0.40439 0.16391 0.0
C1433 C 0.70857 0.40228 0.10661 0.0
C1434 C 0.7297 0.40388 0.14144 0.0
C1435 C 0.71126 0.4092 0.20422 0.0
C1436 C 0.6717 0.41247 0.23185 0.0
C1437 C 0.69061 0.40549 0.17008 0.0
C1438 C 0.61143 0.41047 0.22608 0.0
C1439 C 0.59064 0.40632 0.19246 0.0
H1440 H 0.42086 0.13013 0.74421 0.0
H1441 H 0.59607 0.12552 0.78617 0.0
H1442 H 0.55677 0.12084 0.84583 0.0
H1443 H 0.47403 0.12231 0.88743 0.0
H1444 H 0.29893 0.12743 0.84601 0.0
H1445 H 0.33681 0.12738 0.78472 0.0
C1446 C 0.45046 0.12782 0.76625 0.0
C1447 C 0.51135 0.12856 0.76088 0.0
C1448 C 0.42763 0.12537 0.80068 0.0
C1449 C 0.54903 0.12522 0.78957 0.0
C1450 C 0.52661 0.1226 0.8238 0.0
C1451 C 0.44404 0.1231 0.86495 0.0
C1452 C 0.38399 0.12519 0.87121 0.0
C1453 C 0.46618 0.12332 0.8299 0.0
C1454 C 0.34544 0.12592 0.84189 0.0
C1455 C 0.36712 0.12599 0.80684 0.0
H1456 H 0.45456 0.56218 0.86078 0.0
H1457 H 0.27792 0.56929 0.89767 0.0
H1458 H 0.24381 0.57114 0.8359 0.0
H1459 H 0.26182 0.56779 0.77213 0.0
H1460 H 0.43703 0.55912 0.73456 0.0
H1461 H 0.47412 0.56108 0.79581 0.0
C1462 C 0.40886 0.56443 0.85523 0.0
C1463 C 0.3687 0.56544 0.88366 0.0
C1464 C 0.38916 0.56506 0.81956 0.0
C1465 C 0.30954 0.56829 0.87617 0.0
C1466 C 0.28997 0.56935 0.84088 0.0
C1467 C 0.30828 0.5665 0.77716 0.0
C1468 C 0.34637 0.56307 0.74884 0.0
C1469 C 0.32904 0.56726 0.81243 0.0
C1470 C 0.40656 0.56162 0.7559 0.0
C1471 C 0.42783 0.5627 0.79095 0.0
loop_
_geom_bond_atom_site_label_1
_geom_bond_atom_site_label_2
_geom_bond_distance
_geom_bond_site_symmetry_2
_ccdc_geom_bond_type
C0 O1 1.306 . S
C0 O3 1.160 . S
O1 C0 1.306 . S
O1 Cd2 2.228 1_455 S
Cd2 O1 2.228 1_655 S
Cd2 O6 2.273 1_655 S
Cd2 O10 2.277 1_655 S
O3 C0 1.160 . S
O3 Cd4 2.203 . S
Cd4 O3 2.203 . S
Cd4 O6 2.411 . S
Cd4 O7 2.333 . S
Cd4 O8 2.352 . S
Cd4 O12 2.277 . S
Cd4 O13 2.356 . S
C5 O10 1.209 . S
C5 O12 1.226 . S
O6 Cd2 2.273 1_455 S
O6 Cd4 2.411 . S
O6 C9 1.320 . S
O7 Cd4 2.333 . S
O7 C9 1.214 . S
O8 Cd4 2.352 . S
O8 C11 1.258 . S
C9 O6 1.320 . S
C9 O7 1.214 . S
O10 Cd2 2.277 1_455 S
O10 C5 1.209 . S
C11 O8 1.258 . S
C11 O13 1.282 . S
O12 Cd4 2.277 . S
O12 C5 1.226 . S
O13 Cd4 2.356 . S
O13 C11 1.282 . S
C14 O15 1.306 . S
C14 O17 1.160 . S
O15 C14 1.306 . S
O15 Cd16 2.228 . S
Cd16 O15 2.228 . S
Cd16 O20 2.273 . S
Cd16 O24 2.277 . S
O17 C14 1.160 . S
O17 Cd18 2.203 . S
Cd18 O17 2.203 . S
Cd18 O20 2.411 . S
Cd18 O21 2.333 . S
Cd18 O22 2.352 . S
Cd18 O26 2.277 . S
Cd18 O27 2.356 . S
C19 O24 1.209 . S
C19 O26 1.226 . S
O20 Cd16 2.273 . S
O20 Cd18 2.411 . S
O20 C23 1.320 . S
O21 Cd18 2.333 . S
O21 C23 1.214 . S
O22 Cd18 2.352 . S
O22 C25 1.258 . S
C23 O20 1.320 . S
C23 O21 1.214 . S
O24 Cd16 2.277 . S
O24 C19 1.209 . S
C25 O22 1.258 . S
C25 O27 1.282 . S
O26 Cd18 2.277 . S
O26 C19 1.226 . S
O27 Cd18 2.356 . S
O27 C25 1.282 . S
C28 O29 1.306 . S
C28 O31 1.160 . S
O29 C28 1.306 . S
O29 Cd30 2.228 1_455 S
Cd30 O29 2.228 1_655 S
Cd30 O34 2.273 1_655 S
Cd30 O38 2.277 1_656 S
O31 C28 1.160 . S
O31 Cd32 2.203 . S
Cd32 O31 2.203 . S
Cd32 O34 2.411 . S
Cd32 O35 2.333 . S
Cd32 O36 2.352 . S
Cd32 O40 2.277 1_556 S
Cd32 O41 2.356 . S
C33 O38 1.209 . S
C33 O40 1.226 . S
O34 Cd30 2.273 1_455 S
O34 Cd32 2.411 . S
O34 C37 1.320 . S
O35 Cd32 2.333 . S
O35 C37 1.214 . S
O36 Cd32 2.352 . S
O36 C39 1.258 . S
C37 O34 1.320 . S
C37 O35 1.214 . S
O38 Cd30 2.277 1_454 S
O38 C33 1.209 . S
C39 O36 1.258 . S
C39 O41 1.282 . S
O40 Cd32 2.277 1_554 S
O40 C33 1.226 . S
O41 Cd32 2.356 . S
O41 C39 1.282 . S
C42 O43 1.306 . S
C42 O45 1.160 . S
O43 C42 1.306 . S
O43 Cd44 2.228 . S
Cd44 O43 2.228 . S
Cd44 O48 2.273 . S
Cd44 O52 2.277 1_556 S
O45 C42 1.160 . S
O45 Cd46 2.203 . S
Cd46 O45 2.203 . S
Cd46 O48 2.411 . S
Cd46 O49 2.333 . S
Cd46 O50 2.352 . S
Cd46 O54 2.277 1_556 S
Cd46 O55 2.356 . S
C47 O52 1.209 . S
C47 O54 1.226 . S
O48 Cd44 2.273 . S
O48 Cd46 2.411 . S
O48 C51 1.320 . S
O49 Cd46 2.333 . S
O49 C51 1.214 . S
O50 Cd46 2.352 . S
O50 C53 1.258 . S
C51 O48 1.320 . S
C51 O49 1.214 . S
O52 Cd44 2.277 1_554 S
O52 C47 1.209 . S
C53 O50 1.258 . S
C53 O55 1.282 . S
O54 Cd46 2.277 1_554 S
O54 C47 1.226 . S
O55 Cd46 2.356 . S
O55 C53 1.282 . S
C56 O57 1.306 . S
C56 O59 1.160 . S
O57 C56 1.306 . S
O57 Cd58 2.228 1_655 S
Cd58 O57 2.228 1_455 S
Cd58 O62 2.273 1_455 S
Cd58 O66 2.277 1_455 S
O59 C56 1.160 . S
O59 Cd60 2.203 . S
Cd60 O59 2.203 . S
Cd60 O62 2.411 . S
Cd60 O63 2.333 . S
Cd60 O64 2.352 . S
Cd60 O68 2.277 . S
Cd60 O69 2.356 . S
C61 O66 1.209 . S
C61 O68 1.226 . S
O62 Cd58 2.273 1_655 S
O62 Cd60 2.411 . S
O62 C65 1.320 . S
O63 Cd60 2.333 . S
O63 C65 1.214 . S
O64 Cd60 2.352 . S
O64 C67 1.258 . S
C65 O62 1.320 . S
C65 O63 1.214 . S
O66 Cd58 2.277 1_655 S
O66 C61 1.209 . S
C67 O64 1.258 . S
C67 O69 1.282 . S
O68 Cd60 2.277 . S
O68 C61 1.226 . S
O69 Cd60 2.356 . S
O69 C67 1.282 . S
C70 O71 1.306 . S
C70 O73 1.160 . S
O71 C70 1.306 . S
O71 Cd72 2.228 . S
Cd72 O71 2.228 . S
Cd72 O76 2.273 . S
Cd72 O80 2.277 . S
O73 C70 1.160 . S
O73 Cd74 2.203 . S
Cd74 O73 2.203 . S
Cd74 O76 2.411 . S
Cd74 O77 2.333 . S
Cd74 O78 2.352 . S
Cd74 O82 2.277 . S
Cd74 O83 2.356 . S
C75 O80 1.209 . S
C75 O82 1.226 . S
O76 Cd72 2.273 . S
O76 Cd74 2.411 . S
O76 C79 1.320 . S
O77 Cd74 2.333 . S
O77 C79 1.214 . S
O78 Cd74 2.352 . S
O78 C81 1.258 . S
C79 O76 1.320 . S
C79 O77 1.214 . S
O80 Cd72 2.277 . S
O80 C75 1.209 . S
C81 O78 1.258 . S
C81 O83 1.282 . S
O82 Cd74 2.277 . S
O82 C75 1.226 . S
O83 Cd74 2.356 . S
O83 C81 1.282 . S
C84 O85 1.306 . S
C84 O87 1.160 . S
O85 C84 1.306 . S
O85 Cd86 2.228 1_655 S
Cd86 O85 2.228 1_455 S
Cd86 O90 2.273 1_455 S
Cd86 O94 2.277 1_454 S
O87 C84 1.160 . S
O87 Cd88 2.203 . S
Cd88 O87 2.203 . S
Cd88 O90 2.411 . S
Cd88 O91 2.333 . S
Cd88 O92 2.352 . S
Cd88 O96 2.277 1_554 S
Cd88 O97 2.356 . S
C89 O94 1.209 . S
C89 O96 1.226 . S
O90 Cd86 2.273 1_655 S
O90 Cd88 2.411 . S
O90 C93 1.320 . S
O91 Cd88 2.333 . S
O91 C93 1.214 . S
O92 Cd88 2.352 . S
O92 C95 1.258 . S
C93 O90 1.320 . S
C93 O91 1.214 . S
O94 Cd86 2.277 1_656 S
O94 C89 1.209 . S
C95 O92 1.258 . S
C95 O97 1.282 . S
O96 Cd88 2.277 1_556 S
O96 C89 1.226 . S
O97 Cd88 2.356 . S
O97 C95 1.282 . S
C98 O99 1.306 . S
C98 O101 1.160 . S
O99 C98 1.306 . S
O99 Cd100 2.228 . S
Cd100 O99 2.228 . S
Cd100 O104 2.273 . S
Cd100 O108 2.277 1_554 S
O101 C98 1.160 . S
O101 Cd102 2.203 . S
Cd102 O101 2.203 . S
Cd102 O104 2.411 . S
Cd102 O105 2.333 . S
Cd102 O106 2.352 . S
Cd102 O110 2.277 1_554 S
Cd102 O111 2.356 . S
C103 O108 1.209 . S
C103 O110 1.226 . S
O104 Cd100 2.273 . S
O104 Cd102 2.411 . S
O104 C107 1.320 . S
O105 Cd102 2.333 . S
O105 C107 1.214 . S
O106 Cd102 2.352 . S
O106 C109 1.258 . S
C107 O104 1.320 . S
C107 O105 1.214 . S
O108 Cd100 2.277 1_556 S
O108 C103 1.209 . S
C109 O106 1.258 . S
C109 O111 1.282 . S
O110 Cd102 2.277 1_556 S
O110 C103 1.226 . S
O111 Cd102 2.356 . S
O111 C109 1.282 . S
C112 O113 1.306 . S
C112 O115 1.160 . S
O113 C112 1.306 . S
O113 Cd114 2.228 1_455 S
Cd114 O113 2.228 1_655 S
Cd114 O118 2.273 1_655 S
Cd114 O122 2.277 1_655 S
O115 C112 1.160 . S
O115 Cd116 2.203 . S
Cd116 O115 2.203 . S
Cd116 O118 2.411 . S
Cd116 O119 2.333 . S
Cd116 O120 2.352 . S
Cd116 O124 2.277 . S
Cd116 O125 2.356 . S
C117 O122 1.209 . S
C117 O124 1.226 . S
O118 Cd114 2.273 1_455 S
O118 Cd116 2.411 . S
O118 C121 1.320 . S
O119 Cd116 2.333 . S
O119 C121 1.214 . S
O120 Cd116 2.352 . S
O120 C123 1.258 . S
C121 O118 1.320 . S
C121 O119 1.214 . S
O122 Cd114 2.277 1_455 S
O122 C117 1.209 . S
C123 O120 1.258 . S
C123 O125 1.282 . S
O124 Cd116 2.277 . S
O124 C117 1.226 . S
O125 Cd116 2.356 . S
O125 C123 1.282 . S
C126 O127 1.306 . S
C126 O129 1.160 . S
O127 C126 1.306 . S
O127 Cd128 2.228 . S
Cd128 O127 2.228 . S
Cd128 O132 2.273 . S
Cd128 O136 2.277 . S
O129 C126 1.160 . S
O129 Cd130 2.203 . S
Cd130 O129 2.203 . S
Cd130 O132 2.411 . S
Cd130 O133 2.333 . S
Cd130 O134 2.352 . S
Cd130 O138 2.277 . S
Cd130 O139 2.356 . S
C131 O136 1.209 . S
C131 O138 1.226 . S
O132 Cd128 2.273 . S
O132 Cd130 2.411 . S
O132 C135 1.320 . S
O133 Cd130 2.333 . S
O133 C135 1.214 . S
O134 Cd130 2.352 . S
O134 C137 1.258 . S
C135 O132 1.320 . S
C135 O133 1.214 . S
O136 Cd128 2.277 . S
O136 C131 1.209 . S
C137 O134 1.258 . S
C137 O139 1.282 . S
O138 Cd130 2.277 . S
O138 C131 1.226 . S
O139 Cd130 2.356 . S
O139 C137 1.282 . S
C140 O141 1.306 . S
C140 O143 1.160 . S
O141 C140 1.306 . S
O141 Cd142 2.228 1_455 S
Cd142 O141 2.228 1_655 S
Cd142 O146 2.273 1_655 S
Cd142 O150 2.277 1_655 S
O143 C140 1.160 . S
O143 Cd144 2.203 . S
Cd144 O143 2.203 . S
Cd144 O146 2.411 . S
Cd144 O147 2.333 . S
Cd144 O148 2.352 . S
Cd144 O152 2.277 . S
Cd144 O153 2.356 . S
C145 O150 1.209 . S
C145 O152 1.226 . S
O146 Cd142 2.273 1_455 S
O146 Cd144 2.411 . S
O146 C149 1.320 . S
O147 Cd144 2.333 . S
O147 C149 1.214 . S
O148 Cd144 2.352 . S
O148 C151 1.258 . S
C149 O146 1.320 . S
C149 O147 1.214 . S
O150 Cd142 2.277 1_455 S
O150 C145 1.209 . S
C151 O148 1.258 . S
C151 O153 1.282 . S
O152 Cd144 2.277 . S
O152 C145 1.226 . S
O153 Cd144 2.356 . S
O153 C151 1.282 . S
C154 O155 1.306 . S
C154 O157 1.160 . S
O155 C154 1.306 . S
O155 Cd156 2.228 . S
Cd156 O155 2.228 . S
Cd156 O160 2.273 . S
Cd156 O164 2.277 . S
O157 C154 1.160 . S
O157 Cd158 2.203 . S
Cd158 O157 2.203 . S
Cd158 O160 2.411 . S
Cd158 O161 2.333 . S
Cd158 O162 2.352 . S
Cd158 O166 2.277 . S
Cd158 O167 2.356 . S
C159 O164 1.209 . S
C159 O166 1.226 . S
O160 Cd156 2.273 . S
O160 Cd158 2.411 . S
O160 C163 1.320 . S
O161 Cd158 2.333 . S
O161 C163 1.214 . S
O162 Cd158 2.352 . S
O162 C165 1.258 . S
C163 O160 1.320 . S
C163 O161 1.214 . S
O164 Cd156 2.277 . S
O164 C159 1.209 . S
C165 O162 1.258 . S
C165 O167 1.282 . S
O166 Cd158 2.277 . S
O166 C159 1.226 . S
O167 Cd158 2.356 . S
O167 C165 1.282 . S
C168 O169 1.306 . S
C168 O171 1.160 . S
O169 C168 1.306 . S
O169 Cd170 2.228 1_655 S
Cd170 O169 2.228 1_455 S
Cd170 O174 2.273 1_455 S
Cd170 O178 2.277 1_455 S
O171 C168 1.160 . S
O171 Cd172 2.203 . S
Cd172 O171 2.203 . S
Cd172 O174 2.411 . S
Cd172 O175 2.333 . S
Cd172 O176 2.352 . S
Cd172 O180 2.277 . S
Cd172 O181 2.356 . S
C173 O178 1.209 . S
C173 O180 1.226 . S
O174 Cd170 2.273 1_655 S
O174 Cd172 2.411 . S
O174 C177 1.320 . S
O175 Cd172 2.333 . S
O175 C177 1.214 . S
O176 Cd172 2.352 . S
O176 C179 1.258 . S
C177 O174 1.320 . S
C177 O175 1.214 . S
O178 Cd170 2.277 1_655 S
O178 C173 1.209 . S
C179 O176 1.258 . S
C179 O181 1.282 . S
O180 Cd172 2.277 . S
O180 C173 1.226 . S
O181 Cd172 2.356 . S
O181 C179 1.282 . S
C182 O183 1.306 . S
C182 O185 1.160 . S
O183 C182 1.306 . S
O183 Cd184 2.228 . S
Cd184 O183 2.228 . S
Cd184 O188 2.273 . S
Cd184 O192 2.277 . S
O185 C182 1.160 . S
O185 Cd186 2.203 . S
Cd186 O185 2.203 . S
Cd186 O188 2.411 . S
Cd186 O189 2.333 . S
Cd186 O190 2.352 . S
Cd186 O194 2.277 . S
Cd186 O195 2.356 . S
C187 O192 1.209 . S
C187 O194 1.226 . S
O188 Cd184 2.273 . S
O188 Cd186 2.411 . S
O188 C191 1.320 . S
O189 Cd186 2.333 . S
O189 C191 1.214 . S
O190 Cd186 2.352 . S
O190 C193 1.258 . S
C191 O188 1.320 . S
C191 O189 1.214 . S
O192 Cd184 2.277 . S
O192 C187 1.209 . S
C193 O190 1.258 . S
C193 O195 1.282 . S
O194 Cd186 2.277 . S
O194 C187 1.226 . S
O195 Cd186 2.356 . S
O195 C193 1.282 . S
C196 O197 1.306 . S
C196 O199 1.160 . S
O197 C196 1.306 . S
O197 Cd198 2.228 1_655 S
Cd198 O197 2.228 1_455 S
Cd198 O202 2.273 1_455 S
Cd198 O206 2.277 1_455 S
O199 C196 1.160 . S
O199 Cd200 2.203 . S
Cd200 O199 2.203 . S
Cd200 O202 2.411 . S
Cd200 O203 2.333 . S
Cd200 O204 2.352 . S
Cd200 O208 2.277 . S
Cd200 O209 2.356 . S
C201 O206 1.209 . S
C201 O208 1.226 . S
O202 Cd198 2.273 1_655 S
O202 Cd200 2.411 . S
O202 C205 1.320 . S
O203 Cd200 2.333 . S
O203 C205 1.214 . S
O204 Cd200 2.352 . S
O204 C207 1.258 . S
C205 O202 1.320 . S
C205 O203 1.214 . S
O206 Cd198 2.277 1_655 S
O206 C201 1.209 . S
C207 O204 1.258 . S
C207 O209 1.282 . S
O208 Cd200 2.277 . S
O208 C201 1.226 . S
O209 Cd200 2.356 . S
O209 C207 1.282 . S
C210 O211 1.306 . S
C210 O213 1.160 . S
O211 C210 1.306 . S
O211 Cd212 2.228 . S
Cd212 O211 2.228 . S
Cd212 O216 2.273 . S
Cd212 O220 2.277 . S
O213 C210 1.160 . S
O213 Cd214 2.203 . S
Cd214 O213 2.203 . S
Cd214 O216 2.411 . S
Cd214 O217 2.333 . S
Cd214 O218 2.352 . S
Cd214 O222 2.277 . S
Cd214 O223 2.356 . S
C215 O220 1.209 . S
C215 O222 1.226 . S
O216 Cd212 2.273 . S
O216 Cd214 2.411 . S
O216 C219 1.320 . S
O217 Cd214 2.333 . S
O217 C219 1.214 . S
O218 Cd214 2.352 . S
O218 C221 1.258 . S
C219 O216 1.320 . S
C219 O217 1.214 . S
O220 Cd212 2.277 . S
O220 C215 1.209 . S
C221 O218 1.258 . S
C221 O223 1.282 . S
O222 Cd214 2.277 . S
O222 C215 1.226 . S
O223 Cd214 2.356 . S
O223 C221 1.282 . S
C224 O225 1.306 . S
C224 O227 1.160 . S
O225 C224 1.306 . S
O225 Cd226 2.228 . S
Cd226 O225 2.228 . S
Cd226 O230 2.273 . S
Cd226 O234 2.277 . S
O227 C224 1.160 . S
O227 Cd228 2.203 . S
Cd228 O227 2.203 . S
Cd228 O230 2.411 . S
Cd228 O231 2.333 . S
Cd228 O232 2.352 . S
Cd228 O236 2.277 . S
Cd228 O237 2.356 . S
C229 O234 1.209 . S
C229 O236 1.226 . S
O230 Cd226 2.273 . S
O230 Cd228 2.411 . S
O230 C233 1.320 . S
O231 Cd228 2.333 . S
O231 C233 1.214 . S
O232 Cd228 2.352 . S
O232 C235 1.258 . S
C233 O230 1.320 . S
C233 O231 1.214 . S
O234 Cd226 2.277 . S
O234 C229 1.209 . S
C235 O232 1.258 . S
C235 O237 1.282 . S
O236 Cd228 2.277 . S
O236 C229 1.226 . S
O237 Cd228 2.356 . S
O237 C235 1.282 . S
C238 O239 1.306 . S
C238 O241 1.160 . S
O239 C238 1.306 . S
O239 Cd240 2.228 . S
Cd240 O239 2.228 . S
Cd240 O244 2.273 . S
Cd240 O248 2.277 . S
O241 C238 1.160 . S
O241 Cd242 2.203 . S
Cd242 O241 2.203 . S
Cd242 O244 2.411 . S
Cd242 O245 2.333 . S
Cd242 O246 2.352 . S
Cd242 O250 2.277 . S
Cd242 O251 2.356 . S
C243 O248 1.209 . S
C243 O250 1.226 . S
O244 Cd240 2.273 . S
O244 Cd242 2.411 . S
O244 C247 1.320 . S
O245 Cd242 2.333 . S
O245 C247 1.214 . S
O246 Cd242 2.352 . S
O246 C249 1.258 . S
C247 O244 1.320 . S
C247 O245 1.214 . S
O248 Cd240 2.277 . S
O248 C243 1.209 . S
C249 O246 1.258 . S
C249 O251 1.282 . S
O250 Cd242 2.277 . S
O250 C243 1.226 . S
O251 Cd242 2.356 . S
O251 C249 1.282 . S
C252 O253 1.306 . S
C252 O255 1.160 . S
O253 C252 1.306 . S
O253 Cd254 2.228 . S
Cd254 O253 2.228 . S
Cd254 O258 2.273 . S
Cd254 O262 2.277 . S
O255 C252 1.160 . S
O255 Cd256 2.203 . S
Cd256 O255 2.203 . S
Cd256 O258 2.411 . S
Cd256 O259 2.333 . S
Cd256 O260 2.352 . S
Cd256 O264 2.277 . S
Cd256 O265 2.356 . S
C257 O262 1.209 . S
C257 O264 1.226 . S
O258 Cd254 2.273 . S
O258 Cd256 2.411 . S
O258 C261 1.320 . S
O259 Cd256 2.333 . S
O259 C261 1.214 . S
O260 Cd256 2.352 . S
O260 C263 1.258 . S
C261 O258 1.320 . S
C261 O259 1.214 . S
O262 Cd254 2.277 . S
O262 C257 1.209 . S
C263 O260 1.258 . S
C263 O265 1.282 . S
O264 Cd256 2.277 . S
O264 C257 1.226 . S
O265 Cd256 2.356 . S
O265 C263 1.282 . S
C266 O267 1.306 . S
C266 O269 1.160 . S
O267 C266 1.306 . S
O267 Cd268 2.228 . S
Cd268 O267 2.228 . S
Cd268 O272 2.273 . S
Cd268 O276 2.277 . S
O269 C266 1.160 . S
O269 Cd270 2.203 . S
Cd270 O269 2.203 . S
Cd270 O272 2.411 . S
Cd270 O273 2.333 . S
Cd270 O274 2.352 . S
Cd270 O278 2.277 . S
Cd270 O279 2.356 . S
C271 O276 1.209 . S
C271 O278 1.226 . S
O272 Cd268 2.273 . S
O272 Cd270 2.411 . S
O272 C275 1.320 . S
O273 Cd270 2.333 . S
O273 C275 1.214 . S
O274 Cd270 2.352 . S
O274 C277 1.258 . S
C275 O272 1.320 . S
C275 O273 1.214 . S
O276 Cd268 2.277 . S
O276 C271 1.209 . S
C277 O274 1.258 . S
C277 O279 1.282 . S
O278 Cd270 2.277 . S
O278 C271 1.226 . S
O279 Cd270 2.356 . S
O279 C277 1.282 . S
C280 O281 1.306 . S
C280 O283 1.160 . S
O281 C280 1.306 . S
O281 Cd282 2.228 . S
Cd282 O281 2.228 . S
Cd282 O286 2.273 . S
Cd282 O290 2.277 . S
O283 C280 1.160 . S
O283 Cd284 2.203 . S
Cd284 O283 2.203 . S
Cd284 O286 2.411 . S
Cd284 O287 2.333 . S
Cd284 O288 2.352 . S
Cd284 O292 2.277 . S
Cd284 O293 2.356 . S
C285 O290 1.209 . S
C285 O292 1.226 . S
O286 Cd282 2.273 . S
O286 Cd284 2.411 . S
O286 C289 1.320 . S
O287 Cd284 2.333 . S
O287 C289 1.214 . S
O288 Cd284 2.352 . S
O288 C291 1.258 . S
C289 O286 1.320 . S
C289 O287 1.214 . S
O290 Cd282 2.277 . S
O290 C285 1.209 . S
C291 O288 1.258 . S
C291 O293 1.282 . S
O292 Cd284 2.277 . S
O292 C285 1.226 . S
O293 Cd284 2.356 . S
O293 C291 1.282 . S
C294 O295 1.306 . S
C294 O297 1.160 . S
O295 C294 1.306 . S
O295 Cd296 2.228 . S
Cd296 O295 2.228 . S
Cd296 O300 2.273 . S
Cd296 O304 2.277 . S
O297 C294 1.160 . S
O297 Cd298 2.203 . S
Cd298 O297 2.203 . S
Cd298 O300 2.411 . S
Cd298 O301 2.333 . S
Cd298 O302 2.352 . S
Cd298 O306 2.277 . S
Cd298 O307 2.356 . S
C299 O304 1.209 . S
C299 O306 1.226 . S
O300 Cd296 2.273 . S
O300 Cd298 2.411 . S
O300 C303 1.320 . S
O301 Cd298 2.333 . S
O301 C303 1.214 . S
O302 Cd298 2.352 . S
O302 C305 1.258 . S
C303 O300 1.320 . S
C303 O301 1.214 . S
O304 Cd296 2.277 . S
O304 C299 1.209 . S
C305 O302 1.258 . S
C305 O307 1.282 . S
O306 Cd298 2.277 . S
O306 C299 1.226 . S
O307 Cd298 2.356 . S
O307 C305 1.282 . S
C308 O309 1.306 . S
C308 O311 1.160 . S
O309 C308 1.306 . S
O309 Cd310 2.228 . S
Cd310 O309 2.228 . S
Cd310 O314 2.273 . S
Cd310 O318 2.277 . S
O311 C308 1.160 . S
O311 Cd312 2.203 . S
Cd312 O311 2.203 . S
Cd312 O314 2.411 . S
Cd312 O315 2.333 . S
Cd312 O316 2.352 . S
Cd312 O320 2.277 . S
Cd312 O321 2.356 . S
C313 O318 1.209 . S
C313 O320 1.226 . S
O314 Cd310 2.273 . S
O314 Cd312 2.411 . S
O314 C317 1.320 . S
O315 Cd312 2.333 . S
O315 C317 1.214 . S
O316 Cd312 2.352 . S
O316 C319 1.258 . S
C317 O314 1.320 . S
C317 O315 1.214 . S
O318 Cd310 2.277 . S
O318 C313 1.209 . S
C319 O316 1.258 . S
C319 O321 1.282 . S
O320 Cd312 2.277 . S
O320 C313 1.226 . S
O321 Cd312 2.356 . S
O321 C319 1.282 . S
C322 O323 1.306 . S
C322 O325 1.160 . S
O323 C322 1.306 . S
O323 Cd324 2.228 . S
Cd324 O323 2.228 . S
Cd324 O328 2.273 . S
Cd324 O332 2.277 . S
O325 C322 1.160 . S
O325 Cd326 2.203 . S
Cd326 O325 2.203 . S
Cd326 O328 2.411 . S
Cd326 O329 2.333 . S
Cd326 O330 2.352 . S
Cd326 O334 2.277 . S
Cd326 O335 2.356 . S
C327 O332 1.209 . S
C327 O334 1.226 . S
O328 Cd324 2.273 . S
O328 Cd326 2.411 . S
O328 C331 1.320 . S
O329 Cd326 2.333 . S
O329 C331 1.214 . S
O330 Cd326 2.352 . S
O330 C333 1.258 . S
C331 O328 1.320 . S
C331 O329 1.214 . S
O332 Cd324 2.277 . S
O332 C327 1.209 . S
C333 O330 1.258 . S
C333 O335 1.282 . S
O334 Cd326 2.277 . S
O334 C327 1.226 . S
O335 Cd326 2.356 . S
O335 C333 1.282 . S
C336 O337 1.306 . S
C336 O339 1.160 . S
O337 C336 1.306 . S
O337 Cd338 2.228 . S
Cd338 O337 2.228 . S
Cd338 O342 2.273 . S
Cd338 O346 2.277 . S
O339 C336 1.160 . S
O339 Cd340 2.203 . S
Cd340 O339 2.203 . S
Cd340 O342 2.411 . S
Cd340 O343 2.333 . S
Cd340 O344 2.352 . S
Cd340 O348 2.277 . S
Cd340 O349 2.356 . S
C341 O346 1.209 . S
C341 O348 1.226 . S
O342 Cd338 2.273 . S
O342 Cd340 2.411 . S
O342 C345 1.320 . S
O343 Cd340 2.333 . S
O343 C345 1.214 . S
O344 Cd340 2.352 . S
O344 C347 1.258 . S
C345 O342 1.320 . S
C345 O343 1.214 . S
O346 Cd338 2.277 . S
O346 C341 1.209 . S
C347 O344 1.258 . S
C347 O349 1.282 . S
O348 Cd340 2.277 . S
O348 C341 1.226 . S
O349 Cd340 2.356 . S
O349 C347 1.282 . S
C350 O351 1.306 . S
C350 O353 1.160 . S
O351 C350 1.306 . S
O351 Cd352 2.228 . S
Cd352 O351 2.228 . S
Cd352 O356 2.273 . S
Cd352 O360 2.277 . S
O353 C350 1.160 . S
O353 Cd354 2.203 . S
Cd354 O353 2.203 . S
Cd354 O356 2.411 . S
Cd354 O357 2.333 . S
Cd354 O358 2.352 . S
Cd354 O362 2.277 . S
Cd354 O363 2.356 . S
C355 O360 1.209 . S
C355 O362 1.226 . S
O356 Cd352 2.273 . S
O356 Cd354 2.411 . S
O356 C359 1.320 . S
O357 Cd354 2.333 . S
O357 C359 1.214 . S
O358 Cd354 2.352 . S
O358 C361 1.258 . S
C359 O356 1.320 . S
C359 O357 1.214 . S
O360 Cd352 2.277 . S
O360 C355 1.209 . S
C361 O358 1.258 . S
C361 O363 1.282 . S
O362 Cd354 2.277 . S
O362 C355 1.226 . S
O363 Cd354 2.356 . S
O363 C361 1.282 . S
C364 O365 1.306 . S
C364 O367 1.160 . S
O365 C364 1.306 . S
O365 Cd366 2.228 . S
Cd366 O365 2.228 . S
Cd366 O370 2.273 . S
Cd366 O374 2.277 1_556 S
O367 C364 1.160 . S
O367 Cd368 2.203 . S
Cd368 O367 2.203 . S
Cd368 O370 2.411 . S
Cd368 O371 2.333 . S
Cd368 O372 2.352 . S
Cd368 O376 2.277 1_556 S
Cd368 O377 2.356 . S
C369 O374 1.209 . S
C369 O376 1.226 . S
O370 Cd366 2.273 . S
O370 Cd368 2.411 . S
O370 C373 1.320 . S
O371 Cd368 2.333 . S
O371 C373 1.214 . S
O372 Cd368 2.352 . S
O372 C375 1.258 . S
C373 O370 1.320 . S
C373 O371 1.214 . S
O374 Cd366 2.277 1_554 S
O374 C369 1.209 . S
C375 O372 1.258 . S
C375 O377 1.282 . S
O376 Cd368 2.277 1_554 S
O376 C369 1.226 . S
O377 Cd368 2.356 . S
O377 C375 1.282 . S
C378 O379 1.306 . S
C378 O381 1.160 . S
O379 C378 1.306 . S
O379 Cd380 2.228 . S
Cd380 O379 2.228 . S
Cd380 O384 2.273 . S
Cd380 O388 2.277 1_556 S
O381 C378 1.160 . S
O381 Cd382 2.203 . S
Cd382 O381 2.203 . S
Cd382 O384 2.411 . S
Cd382 O385 2.333 . S
Cd382 O386 2.352 . S
Cd382 O390 2.277 1_556 S
Cd382 O391 2.356 . S
C383 O388 1.209 . S
C383 O390 1.226 . S
O384 Cd380 2.273 . S
O384 Cd382 2.411 . S
O384 C387 1.320 . S
O385 Cd382 2.333 . S
O385 C387 1.214 . S
O386 Cd382 2.352 . S
O386 C389 1.258 . S
C387 O384 1.320 . S
C387 O385 1.214 . S
O388 Cd380 2.277 1_554 S
O388 C383 1.209 . S
C389 O386 1.258 . S
C389 O391 1.282 . S
O390 Cd382 2.277 1_554 S
O390 C383 1.226 . S
O391 Cd382 2.356 . S
O391 C389 1.282 . S
C392 O393 1.306 . S
C392 O395 1.160 . S
O393 C392 1.306 . S
O393 Cd394 2.228 . S
Cd394 O393 2.228 . S
Cd394 O398 2.273 . S
Cd394 O402 2.277 . S
O395 C392 1.160 . S
O395 Cd396 2.203 . S
Cd396 O395 2.203 . S
Cd396 O398 2.411 . S
Cd396 O399 2.333 . S
Cd396 O400 2.352 . S
Cd396 O404 2.277 . S
Cd396 O405 2.356 . S
C397 O402 1.209 . S
C397 O404 1.226 . S
O398 Cd394 2.273 . S
O398 Cd396 2.411 . S
O398 C401 1.320 . S
O399 Cd396 2.333 . S
O399 C401 1.214 . S
O400 Cd396 2.352 . S
O400 C403 1.258 . S
C401 O398 1.320 . S
C401 O399 1.214 . S
O402 Cd394 2.277 . S
O402 C397 1.209 . S
C403 O400 1.258 . S
C403 O405 1.282 . S
O404 Cd396 2.277 . S
O404 C397 1.226 . S
O405 Cd396 2.356 . S
O405 C403 1.282 . S
C406 O407 1.306 . S
C406 O409 1.160 . S
O407 C406 1.306 . S
O407 Cd408 2.228 . S
Cd408 O407 2.228 . S
Cd408 O412 2.273 . S
Cd408 O416 2.277 . S
O409 C406 1.160 . S
O409 Cd410 2.203 . S
Cd410 O409 2.203 . S
Cd410 O412 2.411 . S
Cd410 O413 2.333 . S
Cd410 O414 2.352 . S
Cd410 O418 2.277 . S
Cd410 O419 2.356 . S
C411 O416 1.209 . S
C411 O418 1.226 . S
O412 Cd408 2.273 . S
O412 Cd410 2.411 . S
O412 C415 1.320 . S
O413 Cd410 2.333 . S
O413 C415 1.214 . S
O414 Cd410 2.352 . S
O414 C417 1.258 . S
C415 O412 1.320 . S
C415 O413 1.214 . S
O416 Cd408 2.277 . S
O416 C411 1.209 . S
C417 O414 1.258 . S
C417 O419 1.282 . S
O418 Cd410 2.277 . S
O418 C411 1.226 . S
O419 Cd410 2.356 . S
O419 C417 1.282 . S
C420 O421 1.306 . S
C420 O423 1.160 . S
O421 C420 1.306 . S
O421 Cd422 2.228 . S
Cd422 O421 2.228 . S
Cd422 O426 2.273 . S
Cd422 O430 2.277 1_554 S
O423 C420 1.160 . S
O423 Cd424 2.203 . S
Cd424 O423 2.203 . S
Cd424 O426 2.411 . S
Cd424 O427 2.333 . S
Cd424 O428 2.352 . S
Cd424 O432 2.277 1_554 S
Cd424 O433 2.356 . S
C425 O430 1.209 . S
C425 O432 1.226 . S
O426 Cd422 2.273 . S
O426 Cd424 2.411 . S
O426 C429 1.320 . S
O427 Cd424 2.333 . S
O427 C429 1.214 . S
O428 Cd424 2.352 . S
O428 C431 1.258 . S
C429 O426 1.320 . S
C429 O427 1.214 . S
O430 Cd422 2.277 1_556 S
O430 C425 1.209 . S
C431 O428 1.258 . S
C431 O433 1.282 . S
O432 Cd424 2.277 1_556 S
O432 C425 1.226 . S
O433 Cd424 2.356 . S
O433 C431 1.282 . S
C434 O435 1.306 . S
C434 O437 1.160 . S
O435 C434 1.306 . S
O435 Cd436 2.228 . S
Cd436 O435 2.228 . S
Cd436 O440 2.273 . S
Cd436 O444 2.277 1_554 S
O437 C434 1.160 . S
O437 Cd438 2.203 . S
Cd438 O437 2.203 . S
Cd438 O440 2.411 . S
Cd438 O441 2.333 . S
Cd438 O442 2.352 . S
Cd438 O446 2.277 1_554 S
Cd438 O447 2.356 . S
C439 O444 1.209 . S
C439 O446 1.226 . S
O440 Cd436 2.273 . S
O440 Cd438 2.411 . S
O440 C443 1.320 . S
O441 Cd438 2.333 . S
O441 C443 1.214 . S
O442 Cd438 2.352 . S
O442 C445 1.258 . S
C443 O440 1.320 . S
C443 O441 1.214 . S
O444 Cd436 2.277 1_556 S
O444 C439 1.209 . S
C445 O442 1.258 . S
C445 O447 1.282 . S
O446 Cd438 2.277 1_556 S
O446 C439 1.226 . S
O447 Cd438 2.356 . S
O447 C445 1.282 . S
H448 C454 0.930 . S
H449 C457 0.930 . S
H450 C458 0.930 . S
H451 C459 0.930 . S
H452 C462 0.930 . S
H453 C463 0.930 . S
C454 H448 0.930 . S
C454 C455 1.355 . S
C454 C456 1.415 . S
C455 C454 1.355 . S
C455 C457 1.419 . S
C456 C454 1.415 . S
C456 C461 1.425 . S
C456 C463 1.409 . S
C457 H449 0.930 . S
C457 C455 1.419 . S
C457 C458 1.362 . S
C458 H450 0.930 . S
C458 C457 1.362 . S
C458 C461 1.409 . S
C459 H451 0.930 . S
C459 C460 1.355 . S
C459 C461 1.415 . S
C460 C459 1.355 . S
C460 C462 1.419 . S
C461 C456 1.425 . S
C461 C458 1.409 . S
C461 C459 1.415 . S
C462 H452 0.930 . S
C462 C460 1.419 . S
C462 C463 1.362 . S
C463 H453 0.930 . S
C463 C456 1.409 . S
C463 C462 1.362 . S
H464 C470 0.930 . S
H465 C473 0.930 . S
H466 C474 0.930 . S
H467 C475 0.930 . S
H468 C478 0.930 . S
H469 C479 0.930 . S
C470 H464 0.930 . S
C470 C471 1.355 . S
C470 C472 1.415 . S
C471 C470 1.355 . S
C471 C473 1.419 . S
C472 C470 1.415 . S
C472 C477 1.425 . S
C472 C479 1.409 . S
C473 H465 0.930 . S
C473 C471 1.419 . S
C473 C474 1.362 . S
C474 H466 0.930 . S
C474 C473 1.362 . S
C474 C477 1.409 . S
C475 H467 0.930 . S
C475 C476 1.355 . S
C475 C477 1.415 . S
C476 C475 1.355 . S
C476 C478 1.419 . S
C477 C472 1.425 . S
C477 C474 1.409 . S
C477 C475 1.415 . S
C478 H468 0.930 . S
C478 C476 1.419 . S
C478 C479 1.362 . S
C479 H469 0.930 . S
C479 C472 1.409 . S
C479 C478 1.362 . S
H480 C486 0.930 . S
H481 C489 0.930 1_655 S
H482 C490 0.930 . S
H483 C491 0.930 1_655 S
H484 C494 0.930 . S
H485 C495 0.930 . S
C486 H480 0.930 . S
C486 C487 1.355 . S
C486 C488 1.415 . S
C487 C486 1.355 . S
C487 C489 1.419 . S
C488 C486 1.415 . S
C488 C493 1.425 . S
C488 C495 1.409 . S
C489 H481 0.930 1_455 S
C489 C487 1.419 . S
C489 C490 1.362 1_455 S
C490 H482 0.930 . S
C490 C489 1.362 1_655 S
C490 C493 1.409 1_655 S
C491 H483 0.930 1_455 S
C491 C492 1.355 . S
C491 C493 1.415 . S
C492 C491 1.355 . S
C492 C494 1.419 . S
C493 C488 1.425 . S
C493 C490 1.409 1_455 S
C493 C491 1.415 . S
C494 H484 0.930 . S
C494 C492 1.419 . S
C494 C495 1.362 . S
C495 H485 0.930 . S
C495 C488 1.409 . S
C495 C494 1.362 . S
H496 C502 0.930 . S
H497 C505 0.930 . S
H498 C506 0.930 . S
H499 C507 0.930 . S
H500 C510 0.930 . S
H501 C511 0.930 . S
C502 H496 0.930 . S
C502 C503 1.355 . S
C502 C504 1.415 . S
C503 C502 1.355 . S
C503 C505 1.419 . S
C504 C502 1.415 . S
C504 C509 1.425 . S
C504 C511 1.409 . S
C505 H497 0.930 . S
C505 C503 1.419 . S
C505 C506 1.362 . S
C506 H498 0.930 . S
C506 C505 1.362 . S
C506 C509 1.409 . S
C507 H499 0.930 . S
C507 C508 1.355 . S
C507 C509 1.415 . S
C508 C507 1.355 . S
C508 C510 1.419 . S
C509 C504 1.425 . S
C509 C506 1.409 . S
C509 C507 1.415 . S
C510 H500 0.930 . S
C510 C508 1.419 . S
C510 C511 1.362 . S
C511 H501 0.930 . S
C511 C504 1.409 . S
C511 C510 1.362 . S
H512 C518 0.930 1_455 S
H513 C521 0.930 . S
H514 C522 0.930 . S
H515 C523 0.930 . S
H516 C526 0.930 1_455 S
H517 C527 0.930 . S
C518 H512 0.930 1_655 S
C518 C519 1.355 . S
C518 C520 1.415 . S
C519 C518 1.355 . S
C519 C521 1.419 . S
C520 C518 1.415 . S
C520 C525 1.425 . S
C520 C527 1.409 1_655 S
C521 H513 0.930 . S
C521 C519 1.419 . S
C521 C522 1.362 . S
C522 H514 0.930 . S
C522 C521 1.362 . S
C522 C525 1.409 . S
C523 H515 0.930 . S
C523 C524 1.355 . S
C523 C525 1.415 . S
C524 C523 1.355 . S
C524 C526 1.419 . S
C525 C520 1.425 . S
C525 C522 1.409 . S
C525 C523 1.415 . S
C526 H516 0.930 1_655 S
C526 C524 1.419 . S
C526 C527 1.362 1_655 S
C527 H517 0.930 . S
C527 C520 1.409 1_455 S
C527 C526 1.362 1_455 S
H528 C534 0.930 . S
H529 C537 0.930 . S
H530 C538 0.930 . S
H531 C539 0.930 . S
H532 C542 0.930 . S
H533 C543 0.930 . S
C534 H528 0.930 . S
C534 C535 1.355 . S
C534 C536 1.415 . S
C535 C534 1.355 . S
C535 C537 1.419 . S
C536 C534 1.415 . S
C536 C541 1.425 . S
C536 C543 1.409 . S
C537 H529 0.930 . S
C537 C535 1.419 . S
C537 C538 1.362 . S
C538 H530 0.930 . S
C538 C537 1.362 . S
C538 C541 1.409 . S
C539 H531 0.930 . S
C539 C540 1.355 . S
C539 C541 1.415 . S
C540 C539 1.355 . S
C540 C542 1.419 . S
C541 C536 1.425 . S
C541 C538 1.409 . S
C541 C539 1.415 . S
C542 H532 0.930 . S
C542 C540 1.419 . S
C542 C543 1.362 . S
C543 H533 0.930 . S
C543 C536 1.409 . S
C543 C542 1.362 . S
H544 C550 0.930 . S
H545 C553 0.930 . S
H546 C554 0.930 1_455 S
H547 C555 0.930 . S
H548 C558 0.930 . S
H549 C559 0.930 . S
C550 H544 0.930 . S
C550 C551 1.355 . S
C550 C552 1.415 . S
C551 C550 1.355 . S
C551 C553 1.419 . S
C552 C550 1.415 . S
C552 C557 1.425 . S
C552 C559 1.409 . S
C553 H545 0.930 . S
C553 C551 1.419 . S
C553 C554 1.362 . S
C554 H546 0.930 1_655 S
C554 C553 1.362 . S
C554 C557 1.409 . S
C555 H547 0.930 . S
C555 C556 1.355 . S
C555 C557 1.415 . S
C556 C555 1.355 . S
C556 C558 1.419 . S
C557 C552 1.425 . S
C557 C554 1.409 . S
C557 C555 1.415 . S
C558 H548 0.930 . S
C558 C556 1.419 . S
C558 C559 1.362 . S
C559 H549 0.930 . S
C559 C552 1.409 . S
C559 C558 1.362 . S
H560 C566 0.930 . S
H561 C569 0.930 . S
H562 C570 0.930 . S
H563 C571 0.930 . S
H564 C574 0.930 . S
H565 C575 0.930 . S
C566 H560 0.930 . S
C566 C567 1.355 . S
C566 C568 1.415 . S
C567 C566 1.355 . S
C567 C569 1.419 . S
C568 C566 1.415 . S
C568 C573 1.425 . S
C568 C575 1.409 . S
C569 H561 0.930 . S
C569 C567 1.419 . S
C569 C570 1.362 . S
C570 H562 0.930 . S
C570 C569 1.362 . S
C570 C573 1.409 . S
C571 H563 0.930 . S
C571 C572 1.355 . S
C571 C573 1.415 . S
C572 C571 1.355 . S
C572 C574 1.419 . S
C573 C568 1.425 . S
C573 C570 1.409 . S
C573 C571 1.415 . S
C574 H564 0.930 . S
C574 C572 1.419 . S
C574 C575 1.362 . S
C575 H565 0.930 . S
C575 C568 1.409 . S
C575 C574 1.362 . S
H576 C582 0.930 . S
H577 C585 0.930 . S
H578 C586 0.930 . S
H579 C587 0.930 . S
H580 C590 0.930 . S
H581 C591 0.930 . S
C582 H576 0.930 . S
C582 C583 1.355 . S
C582 C584 1.415 . S
C583 C582 1.355 . S
C583 C585 1.419 . S
C584 C582 1.415 . S
C584 C589 1.425 . S
C584 C591 1.409 . S
C585 H577 0.930 . S
C585 C583 1.419 . S
C585 C586 1.362 . S
C586 H578 0.930 . S
C586 C585 1.362 . S
C586 C589 1.409 . S
C587 H579 0.930 . S
C587 C588 1.355 . S
C587 C589 1.415 . S
C588 C587 1.355 . S
C588 C590 1.419 . S
C589 C584 1.425 . S
C589 C586 1.409 . S
C589 C587 1.415 . S
C590 H580 0.930 . S
C590 C588 1.419 . S
C590 C591 1.362 . S
C591 H581 0.930 . S
C591 C584 1.409 . S
C591 C590 1.362 . S
H592 C598 0.930 . S
H593 C601 0.930 . S
H594 C602 0.930 . S
H595 C603 0.930 . S
H596 C606 0.930 . S
H597 C607 0.930 . S
C598 H592 0.930 . S
C598 C599 1.355 . S
C598 C600 1.415 . S
C599 C598 1.355 . S
C599 C601 1.419 . S
C600 C598 1.415 . S
C600 C605 1.425 . S
C600 C607 1.409 . S
C601 H593 0.930 . S
C601 C599 1.419 . S
C601 C602 1.362 . S
C602 H594 0.930 . S
C602 C601 1.362 . S
C602 C605 1.409 . S
C603 H595 0.930 . S
C603 C604 1.355 . S
C603 C605 1.415 . S
C604 C603 1.355 . S
C604 C606 1.419 . S
C605 C600 1.425 . S
C605 C602 1.409 . S
C605 C603 1.415 . S
C606 H596 0.930 . S
C606 C604 1.419 . S
C606 C607 1.362 . S
C607 H597 0.930 . S
C607 C600 1.409 . S
C607 C606 1.362 . S
H608 C614 0.930 . S
H609 C617 0.930 . S
H610 C618 0.930 . S
H611 C619 0.930 . S
H612 C622 0.930 . S
H613 C623 0.930 . S
C614 H608 0.930 . S
C614 C615 1.355 . S
C614 C616 1.415 . S
C615 C614 1.355 . S
C615 C617 1.419 . S
C616 C614 1.415 . S
C616 C621 1.425 . S
C616 C623 1.409 . S
C617 H609 0.930 . S
C617 C615 1.419 . S
C617 C618 1.362 . S
C618 H610 0.930 . S
C618 C617 1.362 . S
C618 C621 1.409 . S
C619 H611 0.930 . S
C619 C620 1.355 . S
C619 C621 1.415 . S
C620 C619 1.355 . S
C620 C622 1.419 . S
C621 C616 1.425 . S
C621 C618 1.409 . S
C621 C619 1.415 . S
C622 H612 0.930 . S
C622 C620 1.419 . S
C622 C623 1.362 . S
C623 H613 0.930 . S
C623 C616 1.409 . S
C623 C622 1.362 . S
H624 C630 0.930 . S
H625 C633 0.930 . S
H626 C634 0.930 . S
H627 C635 0.930 . S
H628 C638 0.930 . S
H629 C639 0.930 . S
C630 H624 0.930 . S
C630 C631 1.355 . S
C630 C632 1.415 . S
C631 C630 1.355 . S
C631 C633 1.419 . S
C632 C630 1.415 . S
C632 C637 1.425 . S
C632 C639 1.409 . S
C633 H625 0.930 . S
C633 C631 1.419 . S
C633 C634 1.362 . S
C634 H626 0.930 . S
C634 C633 1.362 . S
C634 C637 1.409 . S
C635 H627 0.930 . S
C635 C636 1.355 . S
C635 C637 1.415 . S
C636 C635 1.355 . S
C636 C638 1.419 . S
C637 C632 1.425 . S
C637 C634 1.409 . S
C637 C635 1.415 . S
C638 H628 0.930 . S
C638 C636 1.419 . S
C638 C639 1.362 . S
C639 H629 0.930 . S
C639 C632 1.409 . S
C639 C638 1.362 . S
H640 C646 0.930 . S
H641 C649 0.930 . S
H642 C650 0.930 . S
H643 C651 0.930 . S
H644 C654 0.930 . S
H645 C655 0.930 . S
C646 H640 0.930 . S
C646 C647 1.355 . S
C646 C648 1.415 . S
C647 C646 1.355 . S
C647 C649 1.419 . S
C648 C646 1.415 . S
C648 C653 1.425 . S
C648 C655 1.409 . S
C649 H641 0.930 . S
C649 C647 1.419 . S
C649 C650 1.362 . S
C650 H642 0.930 . S
C650 C649 1.362 . S
C650 C653 1.409 . S
C651 H643 0.930 . S
C651 C652 1.355 . S
C651 C653 1.415 . S
C652 C651 1.355 . S
C652 C654 1.419 . S
C653 C648 1.425 . S
C653 C650 1.409 . S
C653 C651 1.415 . S
C654 H644 0.930 . S
C654 C652 1.419 . S
C654 C655 1.362 . S
C655 H645 0.930 . S
C655 C648 1.409 . S
C655 C654 1.362 . S
H656 C662 0.930 . S
H657 C665 0.930 . S
H658 C666 0.930 . S
H659 C667 0.930 . S
H660 C670 0.930 . S
H661 C671 0.930 . S
C662 H656 0.930 . S
C662 C663 1.355 . S
C662 C664 1.415 . S
C663 C662 1.355 . S
C663 C665 1.419 . S
C664 C662 1.415 . S
C664 C669 1.425 . S
C664 C671 1.409 . S
C665 H657 0.930 . S
C665 C663 1.419 . S
C665 C666 1.362 . S
C666 H658 0.930 . S
C666 C665 1.362 . S
C666 C669 1.409 . S
C667 H659 0.930 . S
C667 C668 1.355 . S
C667 C669 1.415 . S
C668 C667 1.355 . S
C668 C670 1.419 . S
C669 C664 1.425 . S
C669 C666 1.409 . S
C669 C667 1.415 . S
C670 H660 0.930 . S
C670 C668 1.419 . S
C670 C671 1.362 . S
C671 H661 0.930 . S
C671 C664 1.409 . S
C671 C670 1.362 . S
H672 C678 0.930 . S
H673 C681 0.930 . S
H674 C682 0.930 . S
H675 C683 0.930 . S
H676 C686 0.930 . S
H677 C687 0.930 . S
C678 H672 0.930 . S
C678 C679 1.355 . S
C678 C680 1.415 . S
C679 C678 1.355 . S
C679 C681 1.419 . S
C680 C678 1.415 . S
C680 C685 1.425 . S
C680 C687 1.409 . S
C681 H673 0.930 . S
C681 C679 1.419 . S
C681 C682 1.362 . S
C682 H674 0.930 . S
C682 C681 1.362 . S
C682 C685 1.409 . S
C683 H675 0.930 . S
C683 C684 1.355 . S
C683 C685 1.415 . S
C684 C683 1.355 . S
C684 C686 1.419 . S
C685 C680 1.425 . S
C685 C682 1.409 . S
C685 C683 1.415 . S
C686 H676 0.930 . S
C686 C684 1.419 . S
C686 C687 1.362 . S
C687 H677 0.930 . S
C687 C680 1.409 . S
C687 C686 1.362 . S
H688 C694 0.930 . S
H689 C697 0.930 . S
H690 C698 0.930 . S
H691 C699 0.930 . S
H692 C702 0.930 . S
H693 C703 0.930 . S
C694 H688 0.930 . S
C694 C695 1.355 . S
C694 C696 1.415 . S
C695 C694 1.355 . S
C695 C697 1.419 . S
C696 C694 1.415 . S
C696 C701 1.425 . S
C696 C703 1.409 . S
C697 H689 0.930 . S
C697 C695 1.419 . S
C697 C698 1.362 . S
C698 H690 0.930 . S
C698 C697 1.362 . S
C698 C701 1.409 . S
C699 H691 0.930 . S
C699 C700 1.355 . S
C699 C701 1.415 . S
C700 C699 1.355 . S
C700 C702 1.419 . S
C701 C696 1.425 . S
C701 C698 1.409 . S
C701 C699 1.415 . S
C702 H692 0.930 . S
C702 C700 1.419 . S
C702 C703 1.362 . S
C703 H693 0.930 . S
C703 C696 1.409 . S
C703 C702 1.362 . S
H704 C710 0.930 . S
H705 C713 0.930 . S
H706 C714 0.930 . S
H707 C715 0.930 . S
H708 C718 0.930 . S
H709 C719 0.930 . S
C710 H704 0.930 . S
C710 C711 1.355 . S
C710 C712 1.415 . S
C711 C710 1.355 . S
C711 C713 1.419 . S
C712 C710 1.415 . S
C712 C717 1.425 . S
C712 C719 1.409 . S
C713 H705 0.930 . S
C713 C711 1.419 . S
C713 C714 1.362 . S
C714 H706 0.930 . S
C714 C713 1.362 . S
C714 C717 1.409 . S
C715 H707 0.930 . S
C715 C716 1.355 . S
C715 C717 1.415 . S
C716 C715 1.355 . S
C716 C718 1.419 . S
C717 C712 1.425 . S
C717 C714 1.409 . S
C717 C715 1.415 . S
C718 H708 0.930 . S
C718 C716 1.419 . S
C718 C719 1.362 . S
C719 H709 0.930 . S
C719 C712 1.409 . S
C719 C718 1.362 . S
H720 C726 0.930 . S
H721 C729 0.930 1_455 S
H722 C730 0.930 . S
H723 C731 0.930 . S
H724 C734 0.930 . S
H725 C735 0.930 . S
C726 H720 0.930 . S
C726 C727 1.355 . S
C726 C728 1.415 . S
C727 C726 1.355 . S
C727 C729 1.419 . S
C728 C726 1.415 . S
C728 C733 1.425 . S
C728 C735 1.409 . S
C729 H721 0.930 1_655 S
C729 C727 1.419 . S
C729 C730 1.362 . S
C730 H722 0.930 . S
C730 C729 1.362 . S
C730 C733 1.409 . S
C731 H723 0.930 . S
C731 C732 1.355 . S
C731 C733 1.415 . S
C732 C731 1.355 . S
C732 C734 1.419 . S
C733 C728 1.425 . S
C733 C730 1.409 . S
C733 C731 1.415 . S
C734 H724 0.930 . S
C734 C732 1.419 . S
C734 C735 1.362 . S
C735 H725 0.930 . S
C735 C728 1.409 . S
C735 C734 1.362 . S
H736 C742 0.930 . S
H737 C745 0.930 . S
H738 C746 0.930 . S
H739 C747 0.930 . S
H740 C750 0.930 . S
H741 C751 0.930 . S
C742 H736 0.930 . S
C742 C743 1.355 . S
C742 C744 1.415 . S
C743 C742 1.355 . S
C743 C745 1.419 . S
C744 C742 1.415 . S
C744 C749 1.425 . S
C744 C751 1.409 . S
C745 H737 0.930 . S
C745 C743 1.419 . S
C745 C746 1.362 . S
C746 H738 0.930 . S
C746 C745 1.362 . S
C746 C749 1.409 . S
C747 H739 0.930 . S
C747 C748 1.355 . S
C747 C749 1.415 . S
C748 C747 1.355 . S
C748 C750 1.419 . S
C749 C744 1.425 . S
C749 C746 1.409 . S
C749 C747 1.415 . S
C750 H740 0.930 . S
C750 C748 1.419 . S
C750 C751 1.362 . S
C751 H741 0.930 . S
C751 C744 1.409 . S
C751 C750 1.362 . S
H752 C758 0.930 . S
H753 C761 0.930 . S
H754 C762 0.930 . S
H755 C763 0.930 . S
H756 C766 0.930 . S
H757 C767 0.930 . S
C758 H752 0.930 . S
C758 C759 1.355 . S
C758 C760 1.415 . S
C759 C758 1.355 . S
C759 C761 1.419 . S
C760 C758 1.415 . S
C760 C765 1.425 . S
C760 C767 1.409 . S
C761 H753 0.930 . S
C761 C759 1.419 . S
C761 C762 1.362 . S
C762 H754 0.930 . S
C762 C761 1.362 . S
C762 C765 1.409 . S
C763 H755 0.930 . S
C763 C764 1.355 . S
C763 C765 1.415 . S
C764 C763 1.355 . S
C764 C766 1.419 . S
C765 C760 1.425 . S
C765 C762 1.409 . S
C765 C763 1.415 . S
C766 H756 0.930 . S
C766 C764 1.419 . S
C766 C767 1.362 . S
C767 H757 0.930 . S
C767 C760 1.409 . S
C767 C766 1.362 . S
H768 C774 0.930 . S
H769 C777 0.930 . S
H770 C778 0.930 . S
H771 C779 0.930 . S
H772 C782 0.930 . S
H773 C783 0.930 . S
C774 H768 0.930 . S
C774 C775 1.355 . S
C774 C776 1.415 . S
C775 C774 1.355 . S
C775 C777 1.419 . S
C776 C774 1.415 . S
C776 C781 1.425 . S
C776 C783 1.409 . S
C777 H769 0.930 . S
C777 C775 1.419 . S
C777 C778 1.362 . S
C778 H770 0.930 . S
C778 C777 1.362 . S
C778 C781 1.409 . S
C779 H771 0.930 . S
C779 C780 1.355 . S
C779 C781 1.415 . S
C780 C779 1.355 . S
C780 C782 1.419 . S
C781 C776 1.425 . S
C781 C778 1.409 . S
C781 C779 1.415 . S
C782 H772 0.930 . S
C782 C780 1.419 . S
C782 C783 1.362 . S
C783 H773 0.930 . S
C783 C776 1.409 . S
C783 C782 1.362 . S
H784 C790 0.930 . S
H785 C793 0.930 1_655 S
H786 C794 0.930 . S
H787 C795 0.930 . S
H788 C798 0.930 . S
H789 C799 0.930 . S
C790 H784 0.930 . S
C790 C791 1.355 . S
C790 C792 1.415 . S
C791 C790 1.355 . S
C791 C793 1.419 . S
C792 C790 1.415 . S
C792 C797 1.425 . S
C792 C799 1.409 . S
C793 H785 0.930 1_455 S
C793 C791 1.419 . S
C793 C794 1.362 . S
C794 H786 0.930 . S
C794 C793 1.362 . S
C794 C797 1.409 . S
C795 H787 0.930 . S
C795 C796 1.355 . S
C795 C797 1.415 . S
C796 C795 1.355 . S
C796 C798 1.419 . S
C797 C792 1.425 . S
C797 C794 1.409 . S
C797 C795 1.415 . S
C798 H788 0.930 . S
C798 C796 1.419 . S
C798 C799 1.362 . S
C799 H789 0.930 . S
C799 C792 1.409 . S
C799 C798 1.362 . S
H800 C806 0.930 . S
H801 C809 0.930 . S
H802 C810 0.930 . S
H803 C811 0.930 . S
H804 C814 0.930 . S
H805 C815 0.930 . S
C806 H800 0.930 . S
C806 C807 1.355 . S
C806 C808 1.415 . S
C807 C806 1.355 . S
C807 C809 1.419 . S
C808 C806 1.415 . S
C808 C813 1.425 . S
C808 C815 1.409 . S
C809 H801 0.930 . S
C809 C807 1.419 . S
C809 C810 1.362 . S
C810 H802 0.930 . S
C810 C809 1.362 . S
C810 C813 1.409 . S
C811 H803 0.930 . S
C811 C812 1.355 . S
C811 C813 1.415 . S
C812 C811 1.355 . S
C812 C814 1.419 . S
C813 C808 1.425 . S
C813 C810 1.409 . S
C813 C811 1.415 . S
C814 H804 0.930 . S
C814 C812 1.419 . S
C814 C815 1.362 . S
C815 H805 0.930 . S
C815 C808 1.409 . S
C815 C814 1.362 . S
H816 C822 0.930 . S
H817 C825 0.930 1_655 S
H818 C826 0.930 . S
H819 C827 0.930 . S
H820 C830 0.930 . S
H821 C831 0.930 . S
C822 H816 0.930 . S
C822 C823 1.355 . S
C822 C824 1.415 . S
C823 C822 1.355 . S
C823 C825 1.419 . S
C824 C822 1.415 . S
C824 C829 1.425 . S
C824 C831 1.409 . S
C825 H817 0.930 1_455 S
C825 C823 1.419 . S
C825 C826 1.362 . S
C826 H818 0.930 . S
C826 C825 1.362 . S
C826 C829 1.409 . S
C827 H819 0.930 . S
C827 C828 1.355 . S
C827 C829 1.415 . S
C828 C827 1.355 . S
C828 C830 1.419 . S
C829 C824 1.425 . S
C829 C826 1.409 . S
C829 C827 1.415 . S
C830 H820 0.930 . S
C830 C828 1.419 . S
C830 C831 1.362 . S
C831 H821 0.930 . S
C831 C824 1.409 . S
C831 C830 1.362 . S
H832 C838 0.930 . S
H833 C841 0.930 . S
H834 C842 0.930 . S
H835 C843 0.930 . S
H836 C846 0.930 . S
H837 C847 0.930 . S
C838 H832 0.930 . S
C838 C839 1.355 . S
C838 C840 1.415 . S
C839 C838 1.355 . S
C839 C841 1.419 . S
C840 C838 1.415 . S
C840 C845 1.425 . S
C840 C847 1.409 . S
C841 H833 0.930 . S
C841 C839 1.419 . S
C841 C842 1.362 . S
C842 H834 0.930 . S
C842 C841 1.362 . S
C842 C845 1.409 . S
C843 H835 0.930 . S
C843 C844 1.355 . S
C843 C845 1.415 . S
C844 C843 1.355 . S
C844 C846 1.419 . S
C845 C840 1.425 . S
C845 C842 1.409 . S
C845 C843 1.415 . S
C846 H836 0.930 . S
C846 C844 1.419 . S
C846 C847 1.362 . S
C847 H837 0.930 . S
C847 C840 1.409 . S
C847 C846 1.362 . S
H848 C854 0.930 . S
H849 C857 0.930 . S
H850 C858 0.930 . S
H851 C859 0.930 . S
H852 C862 0.930 . S
H853 C863 0.930 . S
C854 H848 0.930 . S
C854 C855 1.355 . S
C854 C856 1.415 . S
C855 C854 1.355 . S
C855 C857 1.419 . S
C856 C854 1.415 . S
C856 C861 1.425 . S
C856 C863 1.409 . S
C857 H849 0.930 . S
C857 C855 1.419 . S
C857 C858 1.362 . S
C858 H850 0.930 . S
C858 C857 1.362 . S
C858 C861 1.409 . S
C859 H851 0.930 . S
C859 C860 1.355 . S
C859 C861 1.415 . S
C860 C859 1.355 . S
C860 C862 1.419 . S
C861 C856 1.425 . S
C861 C858 1.409 . S
C861 C859 1.415 . S
C862 H852 0.930 . S
C862 C860 1.419 . S
C862 C863 1.362 . S
C863 H853 0.930 . S
C863 C856 1.409 . S
C863 C862 1.362 . S
H864 C870 0.930 . S
H865 C873 0.930 . S
H866 C874 0.930 . S
H867 C875 0.930 . S
H868 C878 0.930 . S
H869 C879 0.930 . S
C870 H864 0.930 . S
C870 C871 1.355 . S
C870 C872 1.415 . S
C871 C870 1.355 . S
C871 C873 1.419 . S
C872 C870 1.415 . S
C872 C877 1.425 . S
C872 C879 1.409 . S
C873 H865 0.930 . S
C873 C871 1.419 . S
C873 C874 1.362 . S
C874 H866 0.930 . S
C874 C873 1.362 . S
C874 C877 1.409 . S
C875 H867 0.930 . S
C875 C876 1.355 . S
C875 C877 1.415 . S
C876 C875 1.355 . S
C876 C878 1.419 . S
C877 C872 1.425 . S
C877 C874 1.409 . S
C877 C875 1.415 . S
C878 H868 0.930 . S
C878 C876 1.419 . S
C878 C879 1.362 . S
C879 H869 0.930 . S
C879 C872 1.409 . S
C879 C878 1.362 . S
H880 C886 0.930 . S
H881 C889 0.930 . S
H882 C890 0.930 . S
H883 C891 0.930 . S
H884 C894 0.930 . S
H885 C895 0.930 . S
C886 H880 0.930 . S
C886 C887 1.355 . S
C886 C888 1.415 . S
C887 C886 1.355 . S
C887 C889 1.419 . S
C888 C886 1.415 . S
C888 C893 1.425 . S
C888 C895 1.409 . S
C889 H881 0.930 . S
C889 C887 1.419 . S
C889 C890 1.362 . S
C890 H882 0.930 . S
C890 C889 1.362 . S
C890 C893 1.409 . S
C891 H883 0.930 . S
C891 C892 1.355 . S
C891 C893 1.415 . S
C892 C891 1.355 . S
C892 C894 1.419 . S
C893 C888 1.425 . S
C893 C890 1.409 . S
C893 C891 1.415 . S
C894 H884 0.930 . S
C894 C892 1.419 . S
C894 C895 1.362 . S
C895 H885 0.930 . S
C895 C888 1.409 . S
C895 C894 1.362 . S
H896 C902 0.930 . S
H897 C905 0.930 . S
H898 C906 0.930 . S
H899 C907 0.930 . S
H900 C910 0.930 . S
H901 C911 0.930 . S
C902 H896 0.930 . S
C902 C903 1.355 . S
C902 C904 1.415 . S
C903 C902 1.355 . S
C903 C905 1.419 . S
C904 C902 1.415 . S
C904 C909 1.425 . S
C904 C911 1.409 . S
C905 H897 0.930 . S
C905 C903 1.419 . S
C905 C906 1.362 . S
C906 H898 0.930 . S
C906 C905 1.362 . S
C906 C909 1.409 . S
C907 H899 0.930 . S
C907 C908 1.355 . S
C907 C909 1.415 . S
C908 C907 1.355 . S
C908 C910 1.419 . S
C909 C904 1.425 . S
C909 C906 1.409 . S
C909 C907 1.415 . S
C910 H900 0.930 . S
C910 C908 1.419 . S
C910 C911 1.362 . S
C911 H901 0.930 . S
C911 C904 1.409 . S
C911 C910 1.362 . S
H912 C918 0.930 . S
H913 C921 0.930 . S
H914 C922 0.930 . S
H915 C923 0.930 . S
H916 C926 0.930 1_655 S
H917 C927 0.930 . S
C918 H912 0.930 . S
C918 C919 1.355 . S
C918 C920 1.415 . S
C919 C918 1.355 . S
C919 C921 1.419 . S
C920 C918 1.415 . S
C920 C925 1.425 . S
C920 C927 1.409 . S
C921 H913 0.930 . S
C921 C919 1.419 . S
C921 C922 1.362 . S
C922 H914 0.930 . S
C922 C921 1.362 . S
C922 C925 1.409 . S
C923 H915 0.930 . S
C923 C924 1.355 . S
C923 C925 1.415 . S
C924 C923 1.355 . S
C924 C926 1.419 . S
C925 C920 1.425 . S
C925 C922 1.409 . S
C925 C923 1.415 . S
C926 H916 0.930 1_455 S
C926 C924 1.419 . S
C926 C927 1.362 . S
C927 H917 0.930 . S
C927 C920 1.409 . S
C927 C926 1.362 . S
H928 C934 0.930 . S
H929 C937 0.930 . S
H930 C938 0.930 . S
H931 C939 0.930 . S
H932 C942 0.930 . S
H933 C943 0.930 . S
C934 H928 0.930 . S
C934 C935 1.355 . S
C934 C936 1.415 . S
C935 C934 1.355 . S
C935 C937 1.419 . S
C936 C934 1.415 . S
C936 C941 1.425 . S
C936 C943 1.409 . S
C937 H929 0.930 . S
C937 C935 1.419 . S
C937 C938 1.362 . S
C938 H930 0.930 . S
C938 C937 1.362 . S
C938 C941 1.409 . S
C939 H931 0.930 . S
C939 C940 1.355 . S
C939 C941 1.415 . S
C940 C939 1.355 . S
C940 C942 1.419 . S
C941 C936 1.425 . S
C941 C938 1.409 . S
C941 C939 1.415 . S
C942 H932 0.930 . S
C942 C940 1.419 . S
C942 C943 1.362 . S
C943 H933 0.930 . S
C943 C936 1.409 . S
C943 C942 1.362 . S
H944 C950 0.930 . S
H945 C953 0.930 . S
H946 C954 0.930 . S
H947 C955 0.930 . S
H948 C958 0.930 . S
H949 C959 0.930 . S
C950 H944 0.930 . S
C950 C951 1.355 . S
C950 C952 1.415 . S
C951 C950 1.355 . S
C951 C953 1.419 . S
C952 C950 1.415 . S
C952 C957 1.425 . S
C952 C959 1.409 . S
C953 H945 0.930 . S
C953 C951 1.419 . S
C953 C954 1.362 . S
C954 H946 0.930 . S
C954 C953 1.362 . S
C954 C957 1.409 . S
C955 H947 0.930 . S
C955 C956 1.355 . S
C955 C957 1.415 . S
C956 C955 1.355 . S
C956 C958 1.419 . S
C957 C952 1.425 . S
C957 C954 1.409 . S
C957 C955 1.415 . S
C958 H948 0.930 . S
C958 C956 1.419 . S
C958 C959 1.362 . S
C959 H949 0.930 . S
C959 C952 1.409 . S
C959 C958 1.362 . S
H960 C966 0.930 . S
H961 C969 0.930 . S
H962 C970 0.930 . S
H963 C971 0.930 . S
H964 C974 0.930 . S
H965 C975 0.930 . S
C966 H960 0.930 . S
C966 C967 1.355 . S
C966 C968 1.415 . S
C967 C966 1.355 . S
C967 C969 1.419 1_655 S
C968 C966 1.415 . S
C968 C973 1.425 1_655 S
C968 C975 1.409 . S
C969 H961 0.930 . S
C969 C967 1.419 1_455 S
C969 C970 1.362 . S
C970 H962 0.930 . S
C970 C969 1.362 . S
C970 C973 1.409 . S
C971 H963 0.930 . S
C971 C972 1.355 . S
C971 C973 1.415 . S
C972 C971 1.355 . S
C972 C974 1.419 1_455 S
C973 C968 1.425 1_455 S
C973 C970 1.409 . S
C973 C971 1.415 . S
C974 H964 0.930 . S
C974 C972 1.419 1_655 S
C974 C975 1.362 . S
C975 H965 0.930 . S
C975 C968 1.409 . S
C975 C974 1.362 . S
H976 C982 0.930 . S
H977 C985 0.930 . S
H978 C986 0.930 1_545 S
H979 C987 0.930 . S
H980 C990 0.930 . S
H981 C991 0.930 1_565 S
C982 H976 0.930 . S
C982 C983 1.355 . S
C982 C984 1.415 . S
C983 C982 1.355 . S
C983 C985 1.419 . S
C984 C982 1.415 . S
C984 C989 1.425 1_565 S
C984 C991 1.409 1_565 S
C985 H977 0.930 . S
C985 C983 1.419 . S
C985 C986 1.362 . S
C986 H978 0.930 1_565 S
C986 C985 1.362 . S
C986 C989 1.409 1_565 S
C987 H979 0.930 . S
C987 C988 1.355 . S
C987 C989 1.415 . S
C988 C987 1.355 . S
C988 C990 1.419 . S
C989 C984 1.425 1_545 S
C989 C986 1.409 1_545 S
C989 C987 1.415 . S
C990 H980 0.930 . S
C990 C988 1.419 . S
C990 C991 1.362 . S
C991 H981 0.930 1_545 S
C991 C984 1.409 1_545 S
C991 C990 1.362 . S
H992 C998 0.930 1_456 S
H993 C1001 0.930 . S
H994 C1002 0.930 . S
H995 C1003 0.930 1_654 S
H996 C1006 0.930 . S
H997 C1007 0.930 . S
C998 H992 0.930 1_654 S
C998 C999 1.355 . S
C998 C1000 1.415 1_654 S
C999 C998 1.355 . S
C999 C1001 1.419 . S
C1000 C998 1.415 1_456 S
C1000 C1005 1.425 1_446 S
C1000 C1007 1.409 . S
C1001 H993 0.930 . S
C1001 C999 1.419 . S
C1001 C1002 1.362 1_545 S
C1002 H994 0.930 . S
C1002 C1001 1.362 1_565 S
C1002 C1005 1.409 . S
C1003 H995 0.930 1_456 S
C1003 C1004 1.355 . S
C1003 C1005 1.415 1_456 S
C1004 C1003 1.355 . S
C1004 C1006 1.419 . S
C1005 C1000 1.425 1_664 S
C1005 C1002 1.409 . S
C1005 C1003 1.415 1_654 S
C1006 H996 0.930 . S
C1006 C1004 1.419 . S
C1006 C1007 1.362 1_565 S
C1007 H997 0.930 . S
C1007 C1000 1.409 . S
C1007 C1006 1.362 1_545 S
H1008 C1014 0.930 . S
H1009 C1017 0.930 . S
H1010 C1018 0.923 1_556 S
H1011 C1019 0.930 . S
H1012 C1022 0.930 . S
H1013 C1023 0.923 1_554 S
C1014 H1008 0.930 . S
C1014 C1015 1.355 . S
C1014 C1016 1.415 . S
C1015 C1014 1.355 . S
C1015 C1017 1.419 . S
C1016 C1014 1.415 . S
C1016 C1021 1.425 1_554 S
C1016 C1023 1.409 1_554 S
C1017 H1009 0.930 . S
C1017 C1015 1.419 . S
C1017 C1018 1.362 . S
C1018 H1010 0.923 1_554 S
C1018 C1017 1.362 . S
C1018 C1021 1.409 1_554 S
C1019 H1011 0.930 . S
C1019 C1020 1.355 . S
C1019 C1021 1.415 . S
C1020 C1019 1.355 . S
C1020 C1022 1.419 . S
C1021 C1016 1.425 1_556 S
C1021 C1018 1.409 1_556 S
C1021 C1019 1.415 . S
C1022 H1012 0.930 . S
C1022 C1020 1.419 . S
C1022 C1023 1.362 . S
C1023 H1013 0.923 1_556 S
C1023 C1016 1.409 1_556 S
C1023 C1022 1.362 . S
H1024 C1030 0.930 . S
H1025 C1033 0.930 . S
H1026 C1034 0.930 . S
H1027 C1035 0.930 . S
H1028 C1038 0.930 . S
H1029 C1039 0.930 . S
C1030 H1024 0.930 . S
C1030 C1031 1.355 . S
C1030 C1032 1.415 . S
C1031 C1030 1.355 . S
C1031 C1033 1.419 . S
C1032 C1030 1.415 . S
C1032 C1037 1.425 1_655 S
C1032 C1039 1.409 . S
C1033 H1025 0.930 . S
C1033 C1031 1.419 . S
C1033 C1034 1.362 1_655 S
C1034 H1026 0.930 . S
C1034 C1033 1.362 1_455 S
C1034 C1037 1.409 . S
C1035 H1027 0.930 . S
C1035 C1036 1.355 . S
C1035 C1037 1.415 . S
C1036 C1035 1.355 . S
C1036 C1038 1.419 . S
C1037 C1032 1.425 1_455 S
C1037 C1034 1.409 . S
C1037 C1035 1.415 . S
C1038 H1028 0.930 . S
C1038 C1036 1.419 . S
C1038 C1039 1.362 1_455 S
C1039 H1029 0.930 . S
C1039 C1032 1.409 . S
C1039 C1038 1.362 1_655 S
H1040 C1046 0.930 . S
H1041 C1049 0.930 . S
H1042 C1050 0.930 . S
H1043 C1051 0.930 . S
H1044 C1054 0.930 . S
H1045 C1055 0.930 . S
C1046 H1040 0.930 . S
C1046 C1047 1.355 . S
C1046 C1048 1.442 . S
C1047 C1046 1.355 . S
C1047 C1049 1.419 . S
C1048 C1046 1.442 . S
C1048 C1053 1.423 1_565 S
C1048 C1055 1.385 1_565 S
C1049 H1041 0.930 . S
C1049 C1047 1.419 . S
C1049 C1050 1.362 . S
C1050 H1042 0.930 . S
C1050 C1049 1.362 . S
C1050 C1053 1.385 1_565 S
C1051 H1043 0.930 . S
C1051 C1052 1.355 . S
C1051 C1053 1.442 . S
C1052 C1051 1.355 . S
C1052 C1054 1.419 . S
C1053 C1048 1.423 1_545 S
C1053 C1050 1.385 1_545 S
C1053 C1051 1.442 . S
C1054 H1044 0.930 . S
C1054 C1052 1.419 . S
C1054 C1055 1.362 . S
C1055 H1045 0.930 . S
C1055 C1048 1.385 1_545 S
C1055 C1054 1.362 . S
H1056 C1062 0.930 . S
H1057 C1065 0.930 . S
H1058 C1066 0.930 . S
H1059 C1067 0.930 . S
H1060 C1070 0.930 . S
H1061 C1071 0.930 . S
C1062 H1056 0.930 . S
C1062 C1063 1.355 . S
C1062 C1064 1.403 1_556 S
C1063 C1062 1.355 . S
C1063 C1065 1.419 . S
C1064 C1062 1.403 1_554 S
C1064 C1069 1.424 1_554 S
C1064 C1071 1.423 . S
C1065 H1057 0.930 . S
C1065 C1063 1.419 . S
C1065 C1066 1.362 . S
C1066 H1058 0.930 . S
C1066 C1065 1.362 . S
C1066 C1069 1.423 . S
C1067 H1059 0.930 . S
C1067 C1068 1.355 . S
C1067 C1069 1.403 1_554 S
C1068 C1067 1.355 . S
C1068 C1070 1.419 . S
C1069 C1064 1.424 1_556 S
C1069 C1066 1.423 . S
C1069 C1067 1.403 1_556 S
C1070 H1060 0.930 . S
C1070 C1068 1.419 . S
C1070 C1071 1.362 . S
C1071 H1061 0.930 . S
C1071 C1064 1.423 . S
C1071 C1070 1.362 . S
H1072 C1078 0.930 . S
H1073 C1081 0.930 . S
H1074 C1082 0.930 . S
H1075 C1083 0.930 . S
H1076 C1086 0.930 . S
H1077 C1087 0.930 . S
C1078 H1072 0.930 . S
C1078 C1079 1.355 . S
C1078 C1080 1.415 . S
C1079 C1078 1.355 . S
C1079 C1081 1.419 . S
C1080 C1078 1.415 . S
C1080 C1085 1.425 . S
C1080 C1087 1.409 . S
C1081 H1073 0.930 . S
C1081 C1079 1.419 . S
C1081 C1082 1.362 . S
C1082 H1074 0.930 . S
C1082 C1081 1.362 . S
C1082 C1085 1.409 . S
C1083 H1075 0.930 . S
C1083 C1084 1.355 . S
C1083 C1085 1.415 . S
C1084 C1083 1.355 . S
C1084 C1086 1.419 . S
C1085 C1080 1.425 . S
C1085 C1082 1.409 . S
C1085 C1083 1.415 . S
C1086 H1076 0.930 . S
C1086 C1084 1.419 . S
C1086 C1087 1.362 . S
C1087 H1077 0.930 . S
C1087 C1080 1.409 . S
C1087 C1086 1.362 . S
H1088 C1094 0.930 . S
H1089 C1097 0.930 . S
H1090 C1098 0.930 . S
H1091 C1099 0.930 . S
H1092 C1102 0.930 . S
H1093 C1103 0.930 . S
C1094 H1088 0.930 . S
C1094 C1095 1.355 . S
C1094 C1096 1.415 . S
C1095 C1094 1.355 . S
C1095 C1097 1.419 1_455 S
C1096 C1094 1.415 . S
C1096 C1101 1.425 1_455 S
C1096 C1103 1.409 . S
C1097 H1089 0.930 . S
C1097 C1095 1.419 1_655 S
C1097 C1098 1.362 . S
C1098 H1090 0.930 . S
C1098 C1097 1.362 . S
C1098 C1101 1.409 . S
C1099 H1091 0.930 . S
C1099 C1100 1.355 . S
C1099 C1101 1.415 . S
C1100 C1099 1.355 . S
C1100 C1102 1.419 1_655 S
C1101 C1096 1.425 1_655 S
C1101 C1098 1.409 . S
C1101 C1099 1.415 . S
C1102 H1092 0.930 . S
C1102 C1100 1.419 1_455 S
C1102 C1103 1.362 . S
C1103 H1093 0.930 . S
C1103 C1096 1.409 . S
C1103 C1102 1.362 . S
H1104 C1110 0.930 . S
H1105 C1113 0.930 . S
H1106 C1114 0.930 . S
H1107 C1115 0.930 . S
H1108 C1118 0.930 . S
H1109 C1119 0.930 . S
C1110 H1104 0.930 . S
C1110 C1111 1.355 . S
C1110 C1112 1.415 . S
C1111 C1110 1.355 . S
C1111 C1113 1.419 . S
C1112 C1110 1.415 . S
C1112 C1117 1.425 . S
C1112 C1119 1.409 . S
C1113 H1105 0.930 . S
C1113 C1111 1.419 . S
C1113 C1114 1.362 . S
C1114 H1106 0.930 . S
C1114 C1113 1.362 . S
C1114 C1117 1.409 . S
C1115 H1107 0.930 . S
C1115 C1116 1.355 . S
C1115 C1117 1.415 . S
C1116 C1115 1.355 . S
C1116 C1118 1.419 . S
C1117 C1112 1.425 . S
C1117 C1114 1.409 . S
C1117 C1115 1.415 . S
C1118 H1108 0.930 . S
C1118 C1116 1.419 . S
C1118 C1119 1.362 . S
C1119 H1109 0.930 . S
C1119 C1112 1.409 . S
C1119 C1118 1.362 . S
H1120 C1126 0.930 . S
H1121 C1129 0.930 . S
H1122 C1130 0.930 . S
H1123 C1131 0.930 . S
H1124 C1134 0.930 . S
H1125 C1135 0.930 . S
C1126 H1120 0.930 . S
C1126 C1127 1.355 . S
C1126 C1128 1.415 . S
C1127 C1126 1.355 . S
C1127 C1129 1.419 . S
C1128 C1126 1.415 . S
C1128 C1133 1.425 . S
C1128 C1135 1.409 . S
C1129 H1121 0.930 . S
C1129 C1127 1.419 . S
C1129 C1130 1.362 . S
C1130 H1122 0.930 . S
C1130 C1129 1.362 . S
C1130 C1133 1.409 . S
C1131 H1123 0.930 . S
C1131 C1132 1.355 . S
C1131 C1133 1.415 . S
C1132 C1131 1.355 . S
C1132 C1134 1.419 . S
C1133 C1128 1.425 . S
C1133 C1130 1.409 . S
C1133 C1131 1.415 . S
C1134 H1124 0.930 . S
C1134 C1132 1.419 . S
C1134 C1135 1.362 . S
C1135 H1125 0.930 . S
C1135 C1128 1.409 . S
C1135 C1134 1.362 . S
H1136 C1142 0.930 . S
H1137 C1145 0.930 . S
H1138 C1146 0.930 . S
H1139 C1147 0.930 . S
H1140 C1150 0.930 . S
H1141 C1151 0.930 . S
C1142 H1136 0.930 . S
C1142 C1143 1.355 . S
C1142 C1144 1.415 . S
C1143 C1142 1.355 . S
C1143 C1145 1.419 . S
C1144 C1142 1.415 . S
C1144 C1149 1.425 . S
C1144 C1151 1.409 . S
C1145 H1137 0.930 . S
C1145 C1143 1.419 . S
C1145 C1146 1.362 . S
C1146 H1138 0.930 . S
C1146 C1145 1.362 . S
C1146 C1149 1.409 . S
C1147 H1139 0.930 . S
C1147 C1148 1.355 . S
C1147 C1149 1.415 . S
C1148 C1147 1.355 . S
C1148 C1150 1.419 . S
C1149 C1144 1.425 . S
C1149 C1146 1.409 . S
C1149 C1147 1.415 . S
C1150 H1140 0.930 . S
C1150 C1148 1.419 . S
C1150 C1151 1.362 . S
C1151 H1141 0.930 . S
C1151 C1144 1.409 . S
C1151 C1150 1.362 . S
H1152 C1158 0.930 . S
H1153 C1161 0.930 . S
H1154 C1162 0.930 . S
H1155 C1163 0.930 . S
H1156 C1166 0.930 . S
H1157 C1167 0.930 . S
C1158 H1152 0.930 . S
C1158 C1159 1.355 . S
C1158 C1160 1.415 . S
C1159 C1158 1.355 . S
C1159 C1161 1.419 . S
C1160 C1158 1.415 . S
C1160 C1165 1.425 . S
C1160 C1167 1.409 . S
C1161 H1153 0.930 . S
C1161 C1159 1.419 . S
C1161 C1162 1.362 . S
C1162 H1154 0.930 . S
C1162 C1161 1.362 . S
C1162 C1165 1.409 . S
C1163 H1155 0.930 . S
C1163 C1164 1.355 . S
C1163 C1165 1.415 . S
C1164 C1163 1.355 . S
C1164 C1166 1.419 . S
C1165 C1160 1.425 . S
C1165 C1162 1.409 . S
C1165 C1163 1.415 . S
C1166 H1156 0.930 . S
C1166 C1164 1.419 . S
C1166 C1167 1.362 . S
C1167 H1157 0.930 . S
C1167 C1160 1.409 . S
C1167 C1166 1.362 . S
H1168 C1174 0.930 . S
H1169 C1177 0.930 . S
H1170 C1178 0.930 1_565 S
H1171 C1179 0.930 . S
H1172 C1182 0.930 . S
H1173 C1183 0.930 1_545 S
C1174 H1168 0.930 . S
C1174 C1175 1.355 . S
C1174 C1176 1.415 . S
C1175 C1174 1.355 . S
C1175 C1177 1.419 . S
C1176 C1174 1.415 . S
C1176 C1181 1.425 1_545 S
C1176 C1183 1.409 1_545 S
C1177 H1169 0.930 . S
C1177 C1175 1.419 . S
C1177 C1178 1.362 . S
C1178 H1170 0.930 1_545 S
C1178 C1177 1.362 . S
C1178 C1181 1.409 1_545 S
C1179 H1171 0.930 . S
C1179 C1180 1.355 . S
C1179 C1181 1.415 . S
C1180 C1179 1.355 . S
C1180 C1182 1.419 . S
C1181 C1176 1.425 1_565 S
C1181 C1178 1.409 1_565 S
C1181 C1179 1.415 . S
C1182 H1172 0.930 . S
C1182 C1180 1.419 . S
C1182 C1183 1.362 . S
C1183 H1173 0.930 1_565 S
C1183 C1176 1.409 1_565 S
C1183 C1182 1.362 . S
H1184 C1190 0.930 . S
H1185 C1193 0.930 . S
H1186 C1194 0.930 . S
H1187 C1195 0.930 . S
H1188 C1198 0.930 . S
H1189 C1199 0.930 . S
C1190 H1184 0.930 . S
C1190 C1191 1.355 . S
C1190 C1192 1.415 . S
C1191 C1190 1.355 . S
C1191 C1193 1.419 . S
C1192 C1190 1.415 . S
C1192 C1197 1.425 . S
C1192 C1199 1.409 . S
C1193 H1185 0.930 . S
C1193 C1191 1.419 . S
C1193 C1194 1.362 . S
C1194 H1186 0.930 . S
C1194 C1193 1.362 . S
C1194 C1197 1.409 . S
C1195 H1187 0.930 . S
C1195 C1196 1.355 . S
C1195 C1197 1.415 . S
C1196 C1195 1.355 . S
C1196 C1198 1.419 . S
C1197 C1192 1.425 . S
C1197 C1194 1.409 . S
C1197 C1195 1.415 . S
C1198 H1188 0.930 . S
C1198 C1196 1.419 . S
C1198 C1199 1.362 . S
C1199 H1189 0.930 . S
C1199 C1192 1.409 . S
C1199 C1198 1.362 . S
H1200 C1206 0.930 . S
H1201 C1209 0.930 1_554 S
H1202 C1210 0.930 . S
H1203 C1211 0.930 . S
H1204 C1214 0.930 1_556 S
H1205 C1215 0.930 . S
C1206 H1200 0.930 . S
C1206 C1207 1.355 . S
C1206 C1208 1.415 . S
C1207 C1206 1.355 . S
C1207 C1209 1.419 . S
C1208 C1206 1.415 . S
C1208 C1213 1.425 1_556 S
C1208 C1215 1.409 . S
C1209 H1201 0.930 1_556 S
C1209 C1207 1.419 . S
C1209 C1210 1.362 1_556 S
C1210 H1202 0.930 . S
C1210 C1209 1.362 1_554 S
C1210 C1213 1.409 . S
C1211 H1203 0.930 . S
C1211 C1212 1.355 . S
C1211 C1213 1.415 . S
C1212 C1211 1.355 . S
C1212 C1214 1.419 . S
C1213 C1208 1.425 1_554 S
C1213 C1210 1.409 . S
C1213 C1211 1.415 . S
C1214 H1204 0.930 1_554 S
C1214 C1212 1.419 . S
C1214 C1215 1.362 1_554 S
C1215 H1205 0.930 . S
C1215 C1208 1.409 . S
C1215 C1214 1.362 1_556 S
H1216 C1222 0.930 . S
H1217 C1225 0.930 . S
H1218 C1226 0.930 . S
H1219 C1227 0.930 . S
H1220 C1230 0.930 . S
H1221 C1231 0.930 . S
C1222 H1216 0.930 . S
C1222 C1223 1.355 . S
C1222 C1224 1.415 . S
C1223 C1222 1.355 . S
C1223 C1225 1.419 . S
C1224 C1222 1.415 . S
C1224 C1229 1.425 . S
C1224 C1231 1.409 . S
C1225 H1217 0.930 . S
C1225 C1223 1.419 . S
C1225 C1226 1.362 . S
C1226 H1218 0.930 . S
C1226 C1225 1.362 . S
C1226 C1229 1.409 . S
C1227 H1219 0.930 . S
C1227 C1228 1.355 . S
C1227 C1229 1.415 . S
C1228 C1227 1.355 . S
C1228 C1230 1.419 . S
C1229 C1224 1.425 . S
C1229 C1226 1.409 . S
C1229 C1227 1.415 . S
C1230 H1220 0.930 . S
C1230 C1228 1.419 . S
C1230 C1231 1.362 . S
C1231 H1221 0.930 . S
C1231 C1224 1.409 . S
C1231 C1230 1.362 . S
H1232 C1238 0.930 . S
H1233 C1241 0.930 . S
H1234 C1242 0.930 . S
H1235 C1243 0.930 . S
H1236 C1246 0.930 . S
H1237 C1247 0.930 . S
C1238 H1232 0.930 . S
C1238 C1239 1.355 . S
C1238 C1240 1.415 . S
C1239 C1238 1.355 . S
C1239 C1241 1.419 . S
C1240 C1238 1.415 . S
C1240 C1245 1.425 . S
C1240 C1247 1.409 . S
C1241 H1233 0.930 . S
C1241 C1239 1.419 . S
C1241 C1242 1.362 . S
C1242 H1234 0.930 . S
C1242 C1241 1.362 . S
C1242 C1245 1.409 . S
C1243 H1235 0.930 . S
C1243 C1244 1.355 . S
C1243 C1245 1.415 . S
C1244 C1243 1.355 . S
C1244 C1246 1.419 . S
C1245 C1240 1.425 . S
C1245 C1242 1.409 . S
C1245 C1243 1.415 . S
C1246 H1236 0.930 . S
C1246 C1244 1.419 . S
C1246 C1247 1.362 . S
C1247 H1237 0.930 . S
C1247 C1240 1.409 . S
C1247 C1246 1.362 . S
H1248 C1254 0.930 . S
H1249 C1257 0.930 . S
H1250 C1258 0.930 . S
H1251 C1259 0.930 . S
H1252 C1262 0.930 . S
H1253 C1263 0.930 . S
C1254 H1248 0.930 . S
C1254 C1255 1.355 . S
C1254 C1256 1.415 . S
C1255 C1254 1.355 . S
C1255 C1257 1.419 . S
C1256 C1254 1.415 . S
C1256 C1261 1.425 . S
C1256 C1263 1.409 . S
C1257 H1249 0.930 . S
C1257 C1255 1.419 . S
C1257 C1258 1.362 . S
C1258 H1250 0.930 . S
C1258 C1257 1.362 . S
C1258 C1261 1.409 . S
C1259 H1251 0.930 . S
C1259 C1260 1.355 . S
C1259 C1261 1.415 . S
C1260 C1259 1.355 . S
C1260 C1262 1.419 . S
C1261 C1256 1.425 . S
C1261 C1258 1.409 . S
C1261 C1259 1.415 . S
C1262 H1252 0.930 . S
C1262 C1260 1.419 . S
C1262 C1263 1.362 . S
C1263 H1253 0.930 . S
C1263 C1256 1.409 . S
C1263 C1262 1.362 . S
H1264 C1270 0.930 . S
H1265 C1273 0.930 . S
H1266 C1274 0.930 . S
H1267 C1275 0.930 . S
H1268 C1278 0.930 . S
H1269 C1279 0.930 . S
C1270 H1264 0.930 . S
C1270 C1271 1.355 . S
C1270 C1272 1.415 . S
C1271 C1270 1.355 . S
C1271 C1273 1.419 . S
C1272 C1270 1.415 . S
C1272 C1277 1.425 . S
C1272 C1279 1.409 . S
C1273 H1265 0.930 . S
C1273 C1271 1.419 . S
C1273 C1274 1.362 . S
C1274 H1266 0.930 . S
C1274 C1273 1.362 . S
C1274 C1277 1.409 . S
C1275 H1267 0.930 . S
C1275 C1276 1.355 . S
C1275 C1277 1.415 . S
C1276 C1275 1.355 . S
C1276 C1278 1.419 . S
C1277 C1272 1.425 . S
C1277 C1274 1.409 . S
C1277 C1275 1.415 . S
C1278 H1268 0.930 . S
C1278 C1276 1.419 . S
C1278 C1279 1.362 . S
C1279 H1269 0.930 . S
C1279 C1272 1.409 . S
C1279 C1278 1.362 . S
H1280 C1286 0.930 . S
H1281 C1289 0.930 . S
H1282 C1290 0.930 . S
H1283 C1291 0.930 . S
H1284 C1294 0.930 . S
H1285 C1295 0.930 . S
C1286 H1280 0.930 . S
C1286 C1287 1.355 . S
C1286 C1288 1.415 . S
C1287 C1286 1.355 . S
C1287 C1289 1.419 . S
C1288 C1286 1.415 . S
C1288 C1293 1.425 . S
C1288 C1295 1.409 . S
C1289 H1281 0.930 . S
C1289 C1287 1.419 . S
C1289 C1290 1.362 . S
C1290 H1282 0.930 . S
C1290 C1289 1.362 . S
C1290 C1293 1.409 . S
C1291 H1283 0.930 . S
C1291 C1292 1.355 . S
C1291 C1293 1.415 . S
C1292 C1291 1.355 . S
C1292 C1294 1.419 . S
C1293 C1288 1.425 . S
C1293 C1290 1.409 . S
C1293 C1291 1.415 . S
C1294 H1284 0.930 . S
C1294 C1292 1.419 . S
C1294 C1295 1.362 . S
C1295 H1285 0.930 . S
C1295 C1288 1.409 . S
C1295 C1294 1.362 . S
H1296 C1302 0.930 . S
H1297 C1305 0.930 . S
H1298 C1306 0.930 . S
H1299 C1307 0.930 . S
H1300 C1310 0.930 . S
H1301 C1311 0.930 . S
C1302 H1296 0.930 . S
C1302 C1303 1.355 . S
C1302 C1304 1.415 . S
C1303 C1302 1.355 . S
C1303 C1305 1.419 . S
C1304 C1302 1.415 . S
C1304 C1309 1.425 . S
C1304 C1311 1.409 . S
C1305 H1297 0.930 . S
C1305 C1303 1.419 . S
C1305 C1306 1.362 . S
C1306 H1298 0.930 . S
C1306 C1305 1.362 . S
C1306 C1309 1.409 . S
C1307 H1299 0.930 . S
C1307 C1308 1.355 . S
C1307 C1309 1.415 . S
C1308 C1307 1.355 . S
C1308 C1310 1.419 . S
C1309 C1304 1.425 . S
C1309 C1306 1.409 . S
C1309 C1307 1.415 . S
C1310 H1300 0.930 . S
C1310 C1308 1.419 . S
C1310 C1311 1.362 . S
C1311 H1301 0.930 . S
C1311 C1304 1.409 . S
C1311 C1310 1.362 . S
H1312 C1318 0.930 . S
H1313 C1321 0.930 . S
H1314 C1322 0.930 . S
H1315 C1323 0.930 . S
H1316 C1326 0.930 . S
H1317 C1327 0.930 . S
C1318 H1312 0.930 . S
C1318 C1319 1.355 . S
C1318 C1320 1.415 . S
C1319 C1318 1.355 . S
C1319 C1321 1.419 . S
C1320 C1318 1.415 . S
C1320 C1325 1.425 . S
C1320 C1327 1.409 . S
C1321 H1313 0.930 . S
C1321 C1319 1.419 . S
C1321 C1322 1.362 . S
C1322 H1314 0.930 . S
C1322 C1321 1.362 . S
C1322 C1325 1.409 . S
C1323 H1315 0.930 . S
C1323 C1324 1.355 . S
C1323 C1325 1.415 . S
C1324 C1323 1.355 . S
C1324 C1326 1.419 . S
C1325 C1320 1.425 . S
C1325 C1322 1.409 . S
C1325 C1323 1.415 . S
C1326 H1316 0.930 . S
C1326 C1324 1.419 . S
C1326 C1327 1.362 . S
C1327 H1317 0.930 . S
C1327 C1320 1.409 . S
C1327 C1326 1.362 . S
H1328 C1334 0.930 . S
H1329 C1337 0.930 . S
H1330 C1338 0.930 . S
H1331 C1339 0.930 . S
H1332 C1342 0.930 . S
H1333 C1343 0.930 . S
C1334 H1328 0.930 . S
C1334 C1335 1.355 . S
C1334 C1336 1.415 . S
C1335 C1334 1.355 . S
C1335 C1337 1.419 . S
C1336 C1334 1.415 . S
C1336 C1341 1.425 . S
C1336 C1343 1.409 . S
C1337 H1329 0.930 . S
C1337 C1335 1.419 . S
C1337 C1338 1.362 . S
C1338 H1330 0.930 . S
C1338 C1337 1.362 . S
C1338 C1341 1.409 . S
C1339 H1331 0.930 . S
C1339 C1340 1.355 . S
C1339 C1341 1.415 . S
C1340 C1339 1.355 . S
C1340 C1342 1.419 . S
C1341 C1336 1.425 . S
C1341 C1338 1.409 . S
C1341 C1339 1.415 . S
C1342 H1332 0.930 . S
C1342 C1340 1.419 . S
C1342 C1343 1.362 . S
C1343 H1333 0.930 . S
C1343 C1336 1.409 . S
C1343 C1342 1.362 . S
H1344 C1350 0.930 . S
H1345 C1353 0.930 . S
H1346 C1354 0.930 . S
H1347 C1355 0.930 . S
H1348 C1358 0.930 . S
H1349 C1359 0.930 . S
C1350 H1344 0.930 . S
C1350 C1351 1.355 . S
C1350 C1352 1.415 . S
C1351 C1350 1.355 . S
C1351 C1353 1.419 . S
C1352 C1350 1.415 . S
C1352 C1357 1.425 . S
C1352 C1359 1.409 . S
C1353 H1345 0.930 . S
C1353 C1351 1.419 . S
C1353 C1354 1.362 . S
C1354 H1346 0.930 . S
C1354 C1353 1.362 . S
C1354 C1357 1.409 . S
C1355 H1347 0.930 . S
C1355 C1356 1.355 . S
C1355 C1357 1.415 . S
C1356 C1355 1.355 . S
C1356 C1358 1.419 . S
C1357 C1352 1.425 . S
C1357 C1354 1.409 . S
C1357 C1355 1.415 . S
C1358 H1348 0.930 . S
C1358 C1356 1.419 . S
C1358 C1359 1.362 . S
C1359 H1349 0.930 . S
C1359 C1352 1.409 . S
C1359 C1358 1.362 . S
H1360 C1366 0.930 . S
H1361 C1369 0.930 . S
H1362 C1370 0.930 . S
H1363 C1371 0.930 . S
H1364 C1374 0.930 . S
H1365 C1375 0.930 . S
C1366 H1360 0.930 . S
C1366 C1367 1.355 . S
C1366 C1368 1.415 . S
C1367 C1366 1.355 . S
C1367 C1369 1.419 . S
C1368 C1366 1.415 . S
C1368 C1373 1.425 . S
C1368 C1375 1.409 . S
C1369 H1361 0.930 . S
C1369 C1367 1.419 . S
C1369 C1370 1.362 . S
C1370 H1362 0.930 . S
C1370 C1369 1.362 . S
C1370 C1373 1.409 . S
C1371 H1363 0.930 . S
C1371 C1372 1.355 . S
C1371 C1373 1.415 . S
C1372 C1371 1.355 . S
C1372 C1374 1.419 . S
C1373 C1368 1.425 . S
C1373 C1370 1.409 . S
C1373 C1371 1.415 . S
C1374 H1364 0.930 . S
C1374 C1372 1.419 . S
C1374 C1375 1.362 . S
C1375 H1365 0.930 . S
C1375 C1368 1.409 . S
C1375 C1374 1.362 . S
H1376 C1382 0.930 . S
H1377 C1385 0.930 . S
H1378 C1386 0.930 . S
H1379 C1387 0.930 . S
H1380 C1390 0.930 . S
H1381 C1391 0.930 . S
C1382 H1376 0.930 . S
C1382 C1383 1.355 . S
C1382 C1384 1.415 . S
C1383 C1382 1.355 . S
C1383 C1385 1.419 . S
C1384 C1382 1.415 . S
C1384 C1389 1.425 . S
C1384 C1391 1.409 . S
C1385 H1377 0.930 . S
C1385 C1383 1.419 . S
C1385 C1386 1.362 . S
C1386 H1378 0.930 . S
C1386 C1385 1.362 . S
C1386 C1389 1.409 . S
C1387 H1379 0.930 . S
C1387 C1388 1.355 . S
C1387 C1389 1.415 . S
C1388 C1387 1.355 . S
C1388 C1390 1.419 . S
C1389 C1384 1.425 . S
C1389 C1386 1.409 . S
C1389 C1387 1.415 . S
C1390 H1380 0.930 . S
C1390 C1388 1.419 . S
C1390 C1391 1.362 . S
C1391 H1381 0.930 . S
C1391 C1384 1.409 . S
C1391 C1390 1.362 . S
H1392 C1398 0.930 . S
H1393 C1401 0.930 . S
H1394 C1402 0.930 . S
H1395 C1403 0.930 . S
H1396 C1406 0.930 . S
H1397 C1407 0.930 . S
C1398 H1392 0.930 . S
C1398 C1399 1.355 . S
C1398 C1400 1.415 . S
C1399 C1398 1.355 . S
C1399 C1401 1.419 . S
C1400 C1398 1.415 . S
C1400 C1405 1.425 . S
C1400 C1407 1.409 . S
C1401 H1393 0.930 . S
C1401 C1399 1.419 . S
C1401 C1402 1.362 . S
C1402 H1394 0.930 . S
C1402 C1401 1.362 . S
C1402 C1405 1.409 . S
C1403 H1395 0.930 . S
C1403 C1404 1.355 . S
C1403 C1405 1.415 . S
C1404 C1403 1.355 . S
C1404 C1406 1.419 . S
C1405 C1400 1.425 . S
C1405 C1402 1.409 . S
C1405 C1403 1.415 . S
C1406 H1396 0.930 . S
C1406 C1404 1.419 . S
C1406 C1407 1.362 . S
C1407 H1397 0.930 . S
C1407 C1400 1.409 . S
C1407 C1406 1.362 . S
H1408 C1414 0.930 . S
H1409 C1417 0.930 . S
H1410 C1418 0.930 . S
H1411 C1419 0.930 . S
H1412 C1422 0.930 . S
H1413 C1423 0.930 . S
C1414 H1408 0.930 . S
C1414 C1415 1.355 . S
C1414 C1416 1.415 . S
C1415 C1414 1.355 . S
C1415 C1417 1.419 . S
C1416 C1414 1.415 . S
C1416 C1421 1.425 . S
C1416 C1423 1.409 . S
C1417 H1409 0.930 . S
C1417 C1415 1.419 . S
C1417 C1418 1.362 . S
C1418 H1410 0.930 . S
C1418 C1417 1.362 . S
C1418 C1421 1.409 . S
C1419 H1411 0.930 . S
C1419 C1420 1.355 . S
C1419 C1421 1.415 . S
C1420 C1419 1.355 . S
C1420 C1422 1.419 . S
C1421 C1416 1.425 . S
C1421 C1418 1.409 . S
C1421 C1419 1.415 . S
C1422 H1412 0.930 . S
C1422 C1420 1.419 . S
C1422 C1423 1.362 . S
C1423 H1413 0.930 . S
C1423 C1416 1.409 . S
C1423 C1422 1.362 . S
H1424 C1430 0.930 . S
H1425 C1433 0.930 . S
H1426 C1434 0.930 . S
H1427 C1435 0.930 . S
H1428 C1438 0.930 . S
H1429 C1439 0.930 . S
C1430 H1424 0.930 . S
C1430 C1431 1.355 . S
C1430 C1432 1.415 . S
C1431 C1430 1.355 . S
C1431 C1433 1.419 . S
C1432 C1430 1.415 . S
C1432 C1437 1.425 . S
C1432 C1439 1.409 . S
C1433 H1425 0.930 . S
C1433 C1431 1.419 . S
C1433 C1434 1.362 . S
C1434 H1426 0.930 . S
C1434 C1433 1.362 . S
C1434 C1437 1.409 . S
C1435 H1427 0.930 . S
C1435 C1436 1.355 . S
C1435 C1437 1.415 . S
C1436 C1435 1.355 . S
C1436 C1438 1.419 . S
C1437 C1432 1.425 . S
C1437 C1434 1.409 . S
C1437 C1435 1.415 . S
C1438 H1428 0.930 . S
C1438 C1436 1.419 . S
C1438 C1439 1.362 . S
C1439 H1429 0.930 . S
C1439 C1432 1.409 . S
C1439 C1438 1.362 . S
H1440 C1446 0.930 . S
H1441 C1449 0.930 . S
H1442 C1450 0.930 . S
H1443 C1451 0.930 . S
H1444 C1454 0.930 . S
H1445 C1455 0.930 . S
C1446 H1440 0.930 . S
C1446 C1447 1.355 . S
C1446 C1448 1.415 . S
C1447 C1446 1.355 . S
C1447 C1449 1.419 . S
C1448 C1446 1.415 . S
C1448 C1453 1.425 . S
C1448 C1455 1.409 . S
C1449 H1441 0.930 . S
C1449 C1447 1.419 . S
C1449 C1450 1.362 . S
C1450 H1442 0.930 . S
C1450 C1449 1.362 . S
C1450 C1453 1.409 . S
C1451 H1443 0.930 . S
C1451 C1452 1.355 . S
C1451 C1453 1.415 . S
C1452 C1451 1.355 . S
C1452 C1454 1.419 . S
C1453 C1448 1.425 . S
C1453 C1450 1.409 . S
C1453 C1451 1.415 . S
C1454 H1444 0.930 . S
C1454 C1452 1.419 . S
C1454 C1455 1.362 . S
C1455 H1445 0.930 . S
C1455 C1448 1.409 . S
C1455 C1454 1.362 . S
H1456 C1462 0.930 . S
H1457 C1465 0.930 . S
H1458 C1466 0.930 . S
H1459 C1467 0.930 . S
H1460 C1470 0.930 . S
H1461 C1471 0.930 . S
C1462 H1456 0.930 . S
C1462 C1463 1.355 . S
C1462 C1464 1.415 . S
C1463 C1462 1.355 . S
C1463 C1465 1.419 . S
C1464 C1462 1.415 . S
C1464 C1469 1.425 . S
C1464 C1471 1.409 . S
C1465 H1457 0.930 . S
C1465 C1463 1.419 . S
C1465 C1466 1.362 . S
C1466 H1458 0.930 . S
C1466 C1465 1.362 . S
C1466 C1469 1.409 . S
C1467 H1459 0.930 . S
C1467 C1468 1.355 . S
C1467 C1469 1.415 . S
C1468 C1467 1.355 . S
C1468 C1470 1.419 . S
C1469 C1464 1.425 . S
C1469 C1466 1.409 . S
C1469 C1467 1.415 . S
C1470 H1460 0.930 . S
C1470 C1468 1.419 . S
C1470 C1471 1.362 . S
C1471 H1461 0.930 . S
C1471 C1464 1.409 . S
C1471 C1470 1.362 . S
C455 C149 1.264 . S
C460 C9 1.316 . S
C471 C23 1.335 . S
C476 C163 1.273 . S
C487 C37 1.333 . S
C492 C121 1.265 . S
C503 C135 1.291 . S
C508 C51 1.280 . S
C519 C205 1.262 . S
C524 C65 1.323 . S
C535 C79 1.325 . S
C540 C219 1.262 . S
C551 C177 1.322 . S
C556 C93 1.262 . S
C567 C191 1.295 . S
C572 C107 1.277 . S
C583 C373 1.302 . S
C588 C233 1.272 . S
C599 C387 1.308 . S
C604 C247 1.317 . S
C615 C345 1.303 . S
C620 C261 1.271 . S
C631 C275 1.269 . S
C636 C359 1.306 . S
C647 C429 1.335 . S
C652 C289 1.272 . S
C663 C443 1.312 . S
C668 C303 1.313 . S
C679 C317 1.301 . S
C684 C401 1.273 . S
C695 C331 1.287 . S
C700 C415 1.284 . S
C711 C277 1.342 . S
C716 C11 1.363 . S
C727 C25 1.363 1_655 S
C732 C263 1.337 . S
C743 C249 1.361 . S
C748 C39 1.332 . S
C759 C235 1.336 . S
C764 C53 1.301 1_655 S
C775 C67 1.297 . S
C780 C333 1.313 . S
C791 C81 1.358 1_455 S
C796 C319 1.356 . S
C807 C305 1.318 . S
C812 C95 1.296 . S
C823 C109 1.353 1_455 S
C828 C291 1.361 . S
C839 C389 1.355 . S
C844 C123 1.360 . S
C855 C375 1.296 . S
C860 C137 1.318 1_655 S
C871 C361 1.309 . S
C876 C151 1.298 . S
C887 C347 1.299 . S
C892 C165 1.307 1_655 S
C903 C179 1.299 . S
C908 C445 1.306 . S
C919 C431 1.356 . S
C924 C193 1.359 1_455 S
C935 C207 1.329 . S
C940 C417 1.298 . S
C951 C221 1.311 1_455 S
C956 C403 1.297 . S
C967 C168 1.426 . S
C972 C0 1.426 . S
C983 C14 1.410 . S
C988 C294 1.410 . S
C999 C84 1.407 . S
C1004 C28 1.407 . S
C1015 C434 1.393 . S
C1020 C42 1.393 . S
C1031 C56 1.424 . S
C1036 C112 1.424 . S
C1047 C238 1.356 . S
C1052 C70 1.356 . S
C1063 C378 1.381 . S
C1068 C98 1.381 . S
C1079 C406 1.402 . S
C1084 C126 1.402 . S
C1095 C140 1.380 . S
C1100 C196 1.380 . S
C1111 C322 1.395 . S
C1116 C154 1.395 . S
C1127 C350 1.378 . S
C1132 C182 1.378 . S
C1143 C210 1.340 . S
C1148 C266 1.340 . S
C1159 C224 1.368 . S
C1164 C392 1.368 . S
C1175 C308 1.425 . S
C1180 C252 1.425 . S
C1191 C336 1.409 . S
C1196 C280 1.409 . S
C1207 C364 1.358 . S
C1212 C420 1.358 . S
C1223 C5 1.169 . S
C1228 C47 1.168 . S
C1239 C33 1.146 . S
C1244 C19 1.114 . S
C1255 C61 1.141 . S
C1260 C103 1.111 . S
C1271 C75 1.149 . S
C1276 C89 1.173 . S
C1287 C117 1.169 . S
C1292 C159 1.167 . S
C1303 C131 1.170 . S
C1308 C145 1.140 . S
C1319 C173 1.173 . S
C1324 C215 1.153 . S
C1335 C201 1.127 . S
C1340 C187 1.108 . S
C1351 C271 1.170 . S
C1356 C229 1.139 . S
C1367 C257 1.146 . S
C1372 C243 1.172 . S
C1383 C327 1.141 . S
C1388 C285 1.111 . S
C1399 C313 1.156 . S
C1404 C299 1.174 . S
C1415 C383 1.173 . S
C1420 C341 1.148 . S
C1431 C369 1.108 . S
C1436 C355 1.130 . S
C1447 C397 1.167 . S
C1452 C439 1.134 . S
C1463 C425 1.118 . S
C1468 C411 1.110 . S
