# Generated by pormake.
# Topology bcu, (8)-cn, num edge types: 1
# Building blocks:
#     Node 0, Type 0, BuildingBlock: TAGTUT_clean_sbu_1, # of connection points: 8
#     Node 1, Type 0, BuildingBlock: TAGTUT_clean_sbu_1, # of connection points: 8
#     Edge 2, Type (0, 0), BuildingBlock: XUDNAN_clean_linker_2, # of connection points: 2
#     Edge 3, Type (0, 0), BuildingBlock: XUDNAN_clean_linker_2, # of connection points: 2
#     Edge 4, Type (0, 0), BuildingBlock: XUDNAN_clean_linker_2, # of connection points: 2
#     Edge 5, Type (0, 0), BuildingBlock: XUDNAN_clean_linker_2, # of connection points: 2
#     Edge 6, Type (0, 0), BuildingBlock: XUDNAN_clean_linker_2, # of connection points: 2
#     Edge 7, Type (0, 0), BuildingBlock: XUDNAN_clean_linker_2, # of connection points: 2
#     Edge 8, Type (0, 0), BuildingBlock: XUDNAN_clean_linker_2, # of connection points: 2
#     Edge 9, Type (0, 0), BuildingBlock: XUDNAN_clean_linker_2, # of connection points: 2
# Relax obj value: 0.017
# Max RMSD: 0.077
# Mean RMSD: 0.077
data_MOF--net-bcu--node1-TAGTUT_clean_sbu_1--edge1-XUDNAN_clean_linker_2
_symmetry_space_group_name_H-M    P1
_symmetry_Int_Tables_number       1
_symmetry_cell_setting            triclinic
loop_
_symmetry_equiv_pos_as_xyz
'x, y, z'
_cell_length_a     19.658494
_cell_length_b     18.490467
_cell_length_c     21.866994
_cell_angle_alpha  90.418841
_cell_angle_beta   92.63266
_cell_angle_gamma 108.20598
loop_
_atom_site_label
_atom_site_type_symbol
_atom_site_fract_x
_atom_site_fract_y
_atom_site_fract_z
_atom_type_partial_charge
C0 C 0.88141 0.1949 0.01733 0.0
C1 C 0.95169 0.15461 0.84224 0.0
C2 C 0.88703 0.86151 0.90996 0.0
Mg3 Mg 0.02122 0.17427 0.97093 0.0
O4 O 0.96981 0.0748 -0.0073 0.0
Mg5 Mg 0.87446 0.02807 0.9492 0.0
Mg6 Mg 1.01574 -0.00291 -0.02751 0.0
O7 O 0.06417 0.92094 0.95112 0.0
Mg8 Mg 0.02487 0.81551 0.96274 0.0
Mg9 Mg 0.16243 0.97283 -0.01282 0.0
C10 C 0.14458 0.12903 0.04494 0.0
C11 C 0.13944 0.07992 0.87856 0.0
O12 O 0.84492 0.12767 -0.00304 0.0
O13 O 0.94906 0.22341 0.01154 0.0
O14 O 0.90189 0.10005 0.86371 0.0
O15 O 1.00928 0.18786 0.87397 0.0
O16 O 0.12119 0.18125 0.02212 0.0
O17 O 0.11273 0.05806 0.03341 0.0
C18 C 0.88908 0.92759 0.06578 0.0
O19 O 0.95264 0.92883 0.0527 0.0
O20 O 0.85227 0.96022 0.0332 0.0
O21 O 0.19585 0.88551 0.92912 0.0
O22 O 0.0974 0.78658 0.90322 0.0
O23 O 0.14392 0.89425 0.06827 0.0
C24 C 0.16394 0.82358 0.89845 0.0
O25 O 0.05035 0.78889 0.05629 0.0
O26 O 0.91759 0.81227 0.92774 0.0
C27 C 0.10404 0.83147 0.08833 0.0
O28 O 0.9193 0.9337 0.91249 0.0
O29 O 0.07507 0.06938 0.89383 0.0
O30 O 0.18087 0.04927 0.90688 0.0
C31 C 0.3451 0.64115 0.54034 0.0
C32 C 0.39938 0.62571 0.35907 0.0
C33 C 0.40639 0.34087 0.41659 0.0
Mg34 Mg 0.48852 0.65504 0.47886 0.0
O35 O 0.45812 0.55311 0.50069 0.0
Mg36 Mg 0.36254 0.48812 0.46607 0.0
Mg37 Mg 0.51964 0.49503 0.47151 0.0
O38 O 0.58313 0.43823 0.44209 0.0
Mg39 Mg 0.56576 0.33423 0.45522 0.0
Mg40 Mg 0.67893 0.50919 0.46981 0.0
C41 C 0.6343 0.64476 0.53898 0.0
C42 C 0.61585 0.59591 0.36651 0.0
O43 O 0.31747 0.57092 0.52252 0.0
O44 O 0.40858 0.68165 0.52801 0.0
O45 O 0.36047 0.56381 0.38176 0.0
O46 O 0.45942 0.6643 0.38485 0.0
O47 O 0.59729 0.68746 0.52051 0.0
O48 O 0.61542 0.57369 0.52467 0.0
C49 C 0.41857 0.40034 0.57558 0.0
O50 O 0.48232 0.41984 0.55599 0.0
O51 O 0.36764 0.41925 0.54895 0.0
O52 O 0.72449 0.4376 0.40528 0.0
O53 O 0.63931 0.32421 0.38793 0.0
O54 O 0.69041 0.4357 0.5493 0.0
C55 C 0.69997 0.37276 0.37687 0.0
O56 O 0.61174 0.31914 0.54484 0.0
O57 O 0.45076 0.30393 0.43012 0.0
C58 C 0.66512 0.36965 0.57134 0.0
O59 O 0.42454 0.41404 0.41955 0.0
O60 O 0.5534 0.57265 0.38797 0.0
O61 O 0.66876 0.57926 0.39081 0.0
H62 H 0.20987 0.27163 0.09541 0.0
H63 H 0.18516 0.03222 0.12177 0.0
H64 H 0.22914 0.06055 0.22911 0.0
H65 H 0.37411 0.34377 0.19113 0.0
H66 H 0.34948 0.42408 0.21816 0.0
H67 H 0.31756 0.38284 0.14345 0.0
H68 H 0.18768 0.36618 0.17439 0.0
H69 H 0.21958 0.40357 0.25032 0.0
H70 H 0.15386 0.31066 0.24021 0.0
H71 H 0.26669 0.11201 0.33417 0.0
H72 H 0.33455 0.18944 0.42208 0.0
H73 H 0.33571 0.39537 0.32752 0.0
C74 C 0.21509 0.22525 0.12323 0.0
C75 C 0.19252 0.14932 0.10044 0.0
C76 C 0.20131 0.09066 0.1383 0.0
C77 C 0.22507 0.10594 0.19964 0.0
C78 C 0.24065 0.18025 0.22194 0.0
C79 C 0.23881 0.23946 0.18448 0.0
C80 C 0.2631 0.31501 0.21907 0.0
C81 C 0.33007 0.3696 0.19135 0.0
C82 C 0.2024 0.35092 0.2211 0.0
C83 C 0.28007 0.2889 0.28169 0.0
C84 C 0.26457 0.21065 0.28265 0.0
C85 C 0.27936 0.17333 0.3341 0.0
C86 C 0.31722 0.21772 0.38401 0.0
C87 C 0.341 0.29816 0.38098 0.0
C88 C 0.31746 0.33399 0.33131 0.0
H89 H 0.77075 0.13697 0.09277 0.0
H90 H 0.92176 0.34842 0.03543 0.0
H91 H 0.89008 0.41704 0.12107 0.0
H92 H 0.63507 0.22293 0.14993 0.0
H93 H 0.61556 0.15839 0.21282 0.0
H94 H 0.64222 0.12853 0.14161 0.0
H95 H 0.74497 0.09449 0.20068 0.0
H96 H 0.72015 0.12634 0.27178 0.0
H97 H 0.81018 0.16674 0.24713 0.0
H98 H 0.85547 0.45919 0.21972 0.0
H99 H 0.80605 0.47683 0.31807 0.0
H100 H 0.67664 0.23827 0.31213 0.0
C101 C 0.79477 0.1982 0.09672 0.0
C102 C 0.84827 0.23756 0.05727 0.0
C103 C 0.88034 0.31734 0.06503 0.0
C104 C 0.86296 0.35675 0.11367 0.0
C105 C 0.81312 0.3156 0.15387 0.0
C106 C 0.7782 0.23847 0.1453 0.0
C107 C 0.73001 0.20719 0.19741 0.0
C108 C 0.65102 0.17754 0.17404 0.0
C109 C 0.75273 0.14503 0.23122 0.0
C110 C 0.74475 0.27841 0.23716 0.0
C111 C 0.79292 0.34017 0.21117 0.0
C112 C 0.81695 0.41151 0.24023 0.0
C113 C 0.78912 0.42069 0.29651 0.0
C114 C 0.73746 0.35891 0.32302 0.0
C115 C 0.71596 0.28664 0.29313 0.0
H116 H 0.86974 0.78118 0.1032 0.0
H117 H 0.82682 0.9912 0.14779 0.0
H118 H 0.74027 0.92439 0.22253 0.0
H119 H 0.69207 0.65976 0.11007 0.0
H120 H 0.71434 0.58181 0.14553 0.0
H121 H 0.77744 0.64618 0.09809 0.0
H122 H 0.87504 0.6769 0.18684 0.0
H123 H 0.813 0.61017 0.23343 0.0
H124 H 0.85464 0.70699 0.2605 0.0
H125 H 0.65363 0.83479 0.28745 0.0
H126 H 0.58998 0.73154 0.35495 0.0
H127 H 0.68619 0.57902 0.26755 0.0
C128 C 0.84393 0.81322 0.13044 0.0
C129 C 0.85504 0.89111 0.12054 0.0
C130 C 0.81909 0.93136 0.1555 0.0
C131 C 0.76932 0.89387 0.19743 0.0
C132 C 0.75626 0.81613 0.20384 0.0
C133 C 0.79372 0.77647 0.17271 0.0
C134 C 0.76939 0.69317 0.1888 0.0
C135 C 0.73635 0.64226 0.13223 0.0
C136 C 0.8317 0.6705 0.21923 0.0
C137 C 0.71288 0.69275 0.23377 0.0
C138 C 0.70533 0.764 0.24104 0.0
C139 C 0.65842 0.7784 0.28196 0.0
C140 C 0.62127 0.71918 0.31923 0.0
C141 C 0.63177 0.64727 0.31494 0.0
C142 C 0.67603 0.63326 0.27027 0.0
H143 H 0.10236 0.68551 0.1171 0.0
H144 H 0.17053 0.91921 0.18583 0.0
H145 H 0.25476 0.88962 0.26025 0.0
H146 H 0.12144 0.60049 0.27478 0.0
H147 H 0.15097 0.52695 0.24098 0.0
H148 H 0.08811 0.56338 0.19898 0.0
H149 H 0.17365 0.59382 0.10954 0.0
H150 H 0.23794 0.5603 0.15221 0.0
H151 H 0.26442 0.65564 0.12332 0.0
H152 H 0.34949 0.84576 0.30699 0.0
H153 H 0.42594 0.77791 0.35488 0.0
H154 H 0.29033 0.56557 0.26942 0.0
C155 C 0.13227 0.72918 0.15005 0.0
C156 C 0.13047 0.80498 0.14544 0.0
C157 C 0.17154 0.86111 0.18837 0.0
C158 C 0.21992 0.84497 0.23053 0.0
C159 C 0.22505 0.77169 0.23049 0.0
C160 C 0.18019 0.71345 0.19383 0.0
C161 C 0.19861 0.64004 0.20346 0.0
C162 C 0.13607 0.57911 0.23123 0.0
C163 C 0.21991 0.61078 0.14354 0.0
C164 C 0.26264 0.66763 0.24903 0.0
C165 C 0.27736 0.74422 0.2626 0.0
C166 C 0.33731 0.78519 0.29852 0.0
C167 C 0.38123 0.74609 0.32465 0.0
C168 C 0.36409 0.66614 0.31629 0.0
C169 C 0.30463 0.62658 0.27683 0.0
H170 H 0.14948 0.68283 0.84502 0.0
H171 H 0.25701 0.92565 0.83023 0.0
H172 H 0.30073 0.90336 0.73083 0.0
H173 H 0.29444 0.6269 0.77935 0.0
H174 H 0.23441 0.54325 0.74066 0.0
H175 H 0.20921 0.57816 0.8104 0.0
H176 H 0.09237 0.58464 0.75423 0.0
H177 H 0.11824 0.55163 0.6839 0.0
H178 H 0.09782 0.64008 0.68609 0.0
H179 H 0.3262 0.85882 0.63199 0.0
H180 H 0.36029 0.79109 0.54776 0.0
H181 H 0.24747 0.57435 0.6269 0.0
C182 C 0.18319 0.73089 0.82111 0.0
C183 C 0.20007 0.80592 0.84542 0.0
C184 C 0.24427 0.86759 0.81302 0.0
C185 C 0.26849 0.85571 0.75601 0.0
C186 C 0.24927 0.78166 0.73245 0.0
C187 C 0.20985 0.71984 0.76453 0.0
C188 C 0.20203 0.64583 0.72992 0.0
C189 C 0.23714 0.59559 0.7673 0.0
C190 C 0.1229 0.60304 0.71251 0.0
C191 C 0.24333 0.67628 0.67359 0.0
C192 C 0.26813 0.75496 0.67574 0.0
C193 C 0.30788 0.7972 0.62991 0.0
C194 C 0.32669 0.75811 0.58215 0.0
C195 C 0.30704 0.67755 0.5811 0.0
C196 C 0.26246 0.63588 0.62619 0.0
H197 H 0.38458 0.24914 0.60145 0.0
H198 H 0.40687 0.47209 0.67883 0.0
H199 H 0.33367 0.41274 0.76454 0.0
H200 H 0.21009 0.16412 0.63038 0.0
H201 H 0.21564 0.07241 0.65272 0.0
H202 H 0.27956 0.12999 0.60225 0.0
H203 H 0.38528 0.12625 0.676 0.0
H204 H 0.32181 0.06583 0.72551 0.0
H205 H 0.38575 0.15296 0.75551 0.0
H206 H 0.24039 0.33163 0.82919 0.0
H207 H 0.15733 0.23031 0.88756 0.0
H208 H 0.20111 0.05871 0.77384 0.0
C209 C 0.37749 0.2849 0.63851 0.0
C210 C 0.40255 0.36488 0.63488 0.0
C211 C 0.38961 0.41062 0.68225 0.0
C212 C 0.3473 0.37746 0.73051 0.0
C213 C 0.31947 0.29847 0.73102 0.0
C214 C 0.33627 0.25245 0.68785 0.0
C215 C 0.29718 0.16909 0.69834 0.0
C216 C 0.24771 0.13177 0.64259 0.0
C217 C 0.35069 0.126 0.71485 0.0
C218 C 0.25416 0.176 0.75259 0.0
C219 C 0.26704 0.25123 0.77002 0.0
C220 C 0.23069 0.27238 0.81675 0.0
C221 C 0.18263 0.21474 0.84878 0.0
C222 C 0.1722 0.13741 0.83409 0.0
C223 C 0.2076 0.11776 0.78499 0.0
H224 H 0.84001 0.09676 0.75746 0.0
H225 H 0.01696 0.30046 0.80733 0.0
H226 H 0.9593 0.37676 0.74456 0.0
H227 H 0.80712 0.15835 0.59646 0.0
H228 H 0.71179 0.11376 0.60032 0.0
H229 H 0.77318 0.07405 0.6409 0.0
H230 H 0.70983 0.08189 0.74075 0.0
H231 H 0.65037 0.12481 0.70126 0.0
H232 H 0.70488 0.17267 0.76707 0.0
H233 H 0.87169 0.43369 0.6975 0.0
H234 H 0.77624 0.46654 0.6393 0.0
H235 H 0.65795 0.226 0.61238 0.0
C236 C 0.86815 0.1569 0.75309 0.0
C237 C 0.93264 0.19274 0.78795 0.0
C238 C 0.96769 0.27157 0.78111 0.0
C239 C 0.93489 0.31566 0.74611 0.0
C240 C 0.86821 0.27961 0.71699 0.0
C241 C 0.83657 0.20166 0.71768 0.0
C242 C 0.76373 0.1778 0.68352 0.0
C243 C 0.76399 0.12807 0.62692 0.0
C244 C 0.7037 0.13688 0.7257 0.0
C245 C 0.75835 0.25495 0.66561 0.0
C246 C 0.81893 0.31268 0.68627 0.0
C247 C 0.825 0.389 0.6793 0.0
C248 C 0.76989 0.40696 0.64667 0.0
C249 C 0.70993 0.34885 0.62013 0.0
C250 C 0.70302 0.27178 0.63176 0.0
H251 H 0.71149 0.78986 0.58014 0.0
H252 H 0.64706 0.55201 0.6313 0.0
H253 H 0.67935 0.59043 0.73869 0.0
H254 H 0.86878 0.84366 0.68503 0.0
H255 H 0.86195 0.937 0.70056 0.0
H256 H 0.82846 0.88977 0.62811 0.0
H257 H 0.70539 0.90781 0.64732 0.0
H258 H 0.73815 0.9512 0.72146 0.0
H259 H 0.65924 0.86877 0.7148 0.0
H260 H 0.7093 0.65103 0.8397 0.0
H261 H 0.78443 0.72681 0.92486 0.0
H262 H 0.84192 0.92543 0.8104 0.0
C263 C 0.70563 0.74605 0.61391 0.0
C264 C 0.67581 0.66813 0.59735 0.0
C265 C 0.66976 0.61219 0.6426 0.0
C266 C 0.68632 0.63335 0.7041 0.0
C267 C 0.71058 0.71049 0.71944 0.0
C268 C 0.72402 0.76603 0.67569 0.0
C269 C 0.76037 0.84423 0.70443 0.0
C270 C 0.83429 0.88077 0.67802 0.0
C271 C 0.71291 0.89602 0.69651 0.0
C272 C 0.76664 0.82308 0.77089 0.0
C273 C 0.73404 0.74603 0.77852 0.0
C274 C 0.73549 0.71137 0.83454 0.0
C275 C 0.77775 0.75498 0.88276 0.0
C276 C 0.81956 0.83122 0.87349 0.0
C277 C 0.80968 0.86742 0.81868 0.0
loop_
_geom_bond_atom_site_label_1
_geom_bond_atom_site_label_2
_geom_bond_distance
_geom_bond_site_symmetry_2
_ccdc_geom_bond_type
C0 O12 1.241 . S
C0 O13 1.280 . S
C1 O14 1.277 . S
C1 O15 1.245 . S
C2 O26 1.247 . S
C2 O28 1.289 . S
Mg3 O4 1.926 . S
Mg3 O13 1.984 . S
Mg3 O15 1.988 1_554 S
Mg3 O16 2.061 1_655 S
O4 Mg3 1.926 . S
O4 Mg5 1.986 1_554 S
O4 Mg6 1.917 1_655 S
Mg5 O4 1.986 1_556 S
Mg5 O12 2.042 1_556 S
Mg5 O14 2.041 . S
Mg5 O20 2.038 1_546 S
Mg5 O28 2.238 1_545 S
Mg6 O4 1.917 1_455 S
Mg6 O7 1.917 1_544 S
Mg6 O17 2.106 . S
Mg6 O19 2.079 1_445 S
Mg6 O28 2.106 1_444 S
Mg6 O29 2.079 1_554 S
O7 Mg6 1.917 1_566 S
O7 Mg8 1.926 . S
O7 Mg9 1.986 1_556 S
Mg8 O7 1.926 . S
Mg8 O22 1.984 . S
Mg8 O25 1.988 1_556 S
Mg8 O26 2.061 1_455 S
Mg9 O7 1.986 1_554 S
Mg9 O17 2.238 1_565 S
Mg9 O21 2.042 1_554 S
Mg9 O23 2.041 . S
Mg9 O30 2.038 1_564 S
C10 O16 1.247 . S
C10 O17 1.289 . S
C11 O29 1.245 . S
C11 O30 1.274 . S
O12 C0 1.241 . S
O12 Mg5 2.042 1_554 S
O13 C0 1.280 . S
O13 Mg3 1.984 . S
O14 C1 1.277 . S
O14 Mg5 2.041 . S
O15 C1 1.245 . S
O15 Mg3 1.988 1_556 S
O16 Mg3 2.061 1_455 S
O16 C10 1.247 . S
O17 Mg6 2.106 . S
O17 Mg9 2.238 1_545 S
O17 C10 1.289 . S
C18 O19 1.245 . S
C18 O20 1.274 . S
O19 Mg6 2.079 1_665 S
O19 C18 1.245 . S
O20 Mg5 2.038 1_564 S
O20 C18 1.274 . S
O21 Mg9 2.042 1_556 S
O21 C24 1.241 . S
O22 Mg8 1.984 . S
O22 C24 1.280 . S
O23 Mg9 2.041 . S
O23 C27 1.277 . S
C24 O21 1.241 . S
C24 O22 1.280 . S
O25 Mg8 1.988 1_554 S
O25 C27 1.245 . S
O26 C2 1.247 . S
O26 Mg8 2.061 1_655 S
C27 O23 1.277 . S
C27 O25 1.245 . S
O28 C2 1.289 . S
O28 Mg5 2.238 1_565 S
O28 Mg6 2.106 1_666 S
O29 Mg6 2.079 1_556 S
O29 C11 1.245 . S
O30 Mg9 2.038 1_546 S
O30 C11 1.274 . S
C31 O43 1.241 . S
C31 O44 1.280 . S
C32 O45 1.277 . S
C32 O46 1.245 . S
C33 O57 1.247 . S
C33 O59 1.289 . S
Mg34 O35 1.926 . S
Mg34 O44 1.984 . S
Mg34 O46 1.988 . S
Mg34 O47 2.061 . S
O35 Mg34 1.926 . S
O35 Mg36 1.986 . S
O35 Mg37 1.917 . S
Mg36 O35 1.986 . S
Mg36 O43 2.042 . S
Mg36 O45 2.041 . S
Mg36 O51 2.038 . S
Mg36 O59 2.238 . S
Mg37 O35 1.917 . S
Mg37 O38 1.917 . S
Mg37 O48 2.106 . S
Mg37 O50 2.079 . S
Mg37 O59 2.106 . S
Mg37 O60 2.079 . S
O38 Mg37 1.917 . S
O38 Mg39 1.926 . S
O38 Mg40 1.986 . S
Mg39 O38 1.926 . S
Mg39 O53 1.984 . S
Mg39 O56 1.988 . S
Mg39 O57 2.061 . S
Mg40 O38 1.986 . S
Mg40 O48 2.238 . S
Mg40 O52 2.042 . S
Mg40 O54 2.041 . S
Mg40 O61 2.038 . S
C41 O47 1.247 . S
C41 O48 1.289 . S
C42 O60 1.245 . S
C42 O61 1.274 . S
O43 C31 1.241 . S
O43 Mg36 2.042 . S
O44 C31 1.280 . S
O44 Mg34 1.984 . S
O45 C32 1.277 . S
O45 Mg36 2.041 . S
O46 C32 1.245 . S
O46 Mg34 1.988 . S
O47 Mg34 2.061 . S
O47 C41 1.247 . S
O48 Mg37 2.106 . S
O48 Mg40 2.238 . S
O48 C41 1.289 . S
C49 O50 1.245 . S
C49 O51 1.274 . S
O50 Mg37 2.079 . S
O50 C49 1.245 . S
O51 Mg36 2.038 . S
O51 C49 1.274 . S
O52 Mg40 2.042 . S
O52 C55 1.241 . S
O53 Mg39 1.984 . S
O53 C55 1.280 . S
O54 Mg40 2.041 . S
O54 C58 1.277 . S
C55 O52 1.241 . S
C55 O53 1.280 . S
O56 Mg39 1.988 . S
O56 C58 1.245 . S
O57 C33 1.247 . S
O57 Mg39 2.061 . S
C58 O54 1.277 . S
C58 O56 1.245 . S
O59 C33 1.289 . S
O59 Mg36 2.238 . S
O59 Mg37 2.106 . S
O60 Mg37 2.079 . S
O60 C42 1.245 . S
O61 Mg40 2.038 . S
O61 C42 1.274 . S
H62 C74 0.930 . S
H63 C76 0.930 . S
H64 C77 0.930 . S
H65 C81 0.959 . S
H66 C81 0.959 . S
H67 C81 0.961 . S
H68 C82 0.960 . S
H69 C82 0.961 . S
H70 C82 0.959 . S
H71 C85 0.929 . S
H72 C86 0.931 . S
H73 C88 0.930 . S
C74 H62 0.930 . S
C74 C75 1.399 . S
C74 C79 1.399 . S
C75 C74 1.399 . S
C75 C76 1.376 . S
C76 H63 0.930 . S
C76 C75 1.376 . S
C76 C77 1.388 . S
C77 H64 0.930 . S
C77 C76 1.388 . S
C77 C78 1.390 . S
C78 C77 1.390 . S
C78 C79 1.394 . S
C78 C84 1.465 . S
C79 C74 1.399 . S
C79 C78 1.394 . S
C79 C80 1.516 . S
C80 C79 1.516 . S
C80 C81 1.502 . S
C80 C82 1.561 . S
C80 C83 1.526 . S
C81 H65 0.959 . S
C81 H66 0.959 . S
C81 H67 0.961 . S
C81 C80 1.502 . S
C82 H68 0.960 . S
C82 H69 0.961 . S
C82 H70 0.959 . S
C82 C80 1.561 . S
C83 C80 1.526 . S
C83 C84 1.396 . S
C83 C88 1.390 . S
C84 C78 1.465 . S
C84 C83 1.396 . S
C84 C85 1.399 . S
C85 H71 0.929 . S
C85 C84 1.399 . S
C85 C86 1.385 . S
C86 H72 0.931 . S
C86 C85 1.385 . S
C86 C87 1.389 . S
C87 C86 1.389 . S
C87 C88 1.387 . S
C88 H73 0.930 . S
C88 C83 1.390 . S
C88 C87 1.387 . S
H89 C101 0.930 . S
H90 C103 0.930 . S
H91 C104 0.930 . S
H92 C108 0.959 . S
H93 C108 0.959 . S
H94 C108 0.961 . S
H95 C109 0.960 . S
H96 C109 0.961 . S
H97 C109 0.959 . S
H98 C112 0.929 . S
H99 C113 0.931 . S
H100 C115 0.930 . S
C101 H89 0.930 . S
C101 C102 1.399 . S
C101 C106 1.399 . S
C102 C101 1.399 . S
C102 C103 1.376 . S
C103 H90 0.930 . S
C103 C102 1.376 . S
C103 C104 1.388 . S
C104 H91 0.930 . S
C104 C103 1.388 . S
C104 C105 1.390 . S
C105 C104 1.390 . S
C105 C106 1.394 . S
C105 C111 1.465 . S
C106 C101 1.399 . S
C106 C105 1.394 . S
C106 C107 1.516 . S
C107 C106 1.516 . S
C107 C108 1.502 . S
C107 C109 1.561 . S
C107 C110 1.526 . S
C108 H92 0.959 . S
C108 H93 0.959 . S
C108 H94 0.961 . S
C108 C107 1.502 . S
C109 H95 0.960 . S
C109 H96 0.961 . S
C109 H97 0.959 . S
C109 C107 1.561 . S
C110 C107 1.526 . S
C110 C111 1.396 . S
C110 C115 1.390 . S
C111 C105 1.465 . S
C111 C110 1.396 . S
C111 C112 1.399 . S
C112 H98 0.929 . S
C112 C111 1.399 . S
C112 C113 1.385 . S
C113 H99 0.931 . S
C113 C112 1.385 . S
C113 C114 1.389 . S
C114 C113 1.389 . S
C114 C115 1.387 . S
C115 H100 0.930 . S
C115 C110 1.390 . S
C115 C114 1.387 . S
H116 C128 0.930 . S
H117 C130 0.930 . S
H118 C131 0.930 . S
H119 C135 0.959 . S
H120 C135 0.959 . S
H121 C135 0.961 . S
H122 C136 0.960 . S
H123 C136 0.961 . S
H124 C136 0.959 . S
H125 C139 0.929 . S
H126 C140 0.931 . S
H127 C142 0.930 . S
C128 H116 0.930 . S
C128 C129 1.399 . S
C128 C133 1.399 . S
C129 C128 1.399 . S
C129 C130 1.376 . S
C130 H117 0.930 . S
C130 C129 1.376 . S
C130 C131 1.388 . S
C131 H118 0.930 . S
C131 C130 1.388 . S
C131 C132 1.390 . S
C132 C131 1.390 . S
C132 C133 1.394 . S
C132 C138 1.465 . S
C133 C128 1.399 . S
C133 C132 1.394 . S
C133 C134 1.516 . S
C134 C133 1.516 . S
C134 C135 1.502 . S
C134 C136 1.561 . S
C134 C137 1.526 . S
C135 H119 0.959 . S
C135 H120 0.959 . S
C135 H121 0.961 . S
C135 C134 1.502 . S
C136 H122 0.960 . S
C136 H123 0.961 . S
C136 H124 0.959 . S
C136 C134 1.561 . S
C137 C134 1.526 . S
C137 C138 1.396 . S
C137 C142 1.390 . S
C138 C132 1.465 . S
C138 C137 1.396 . S
C138 C139 1.399 . S
C139 H125 0.929 . S
C139 C138 1.399 . S
C139 C140 1.385 . S
C140 H126 0.931 . S
C140 C139 1.385 . S
C140 C141 1.389 . S
C141 C140 1.389 . S
C141 C142 1.387 . S
C142 H127 0.930 . S
C142 C137 1.390 . S
C142 C141 1.387 . S
H143 C155 0.930 . S
H144 C157 0.930 . S
H145 C158 0.930 . S
H146 C162 0.959 . S
H147 C162 0.959 . S
H148 C162 0.961 . S
H149 C163 0.960 . S
H150 C163 0.961 . S
H151 C163 0.959 . S
H152 C166 0.929 . S
H153 C167 0.931 . S
H154 C169 0.930 . S
C155 H143 0.930 . S
C155 C156 1.399 . S
C155 C160 1.399 . S
C156 C155 1.399 . S
C156 C157 1.376 . S
C157 H144 0.930 . S
C157 C156 1.376 . S
C157 C158 1.388 . S
C158 H145 0.930 . S
C158 C157 1.388 . S
C158 C159 1.390 . S
C159 C158 1.390 . S
C159 C160 1.394 . S
C159 C165 1.465 . S
C160 C155 1.399 . S
C160 C159 1.394 . S
C160 C161 1.516 . S
C161 C160 1.516 . S
C161 C162 1.502 . S
C161 C163 1.561 . S
C161 C164 1.526 . S
C162 H146 0.959 . S
C162 H147 0.959 . S
C162 H148 0.961 . S
C162 C161 1.502 . S
C163 H149 0.960 . S
C163 H150 0.961 . S
C163 H151 0.959 . S
C163 C161 1.561 . S
C164 C161 1.526 . S
C164 C165 1.396 . S
C164 C169 1.390 . S
C165 C159 1.465 . S
C165 C164 1.396 . S
C165 C166 1.399 . S
C166 H152 0.929 . S
C166 C165 1.399 . S
C166 C167 1.385 . S
C167 H153 0.931 . S
C167 C166 1.385 . S
C167 C168 1.389 . S
C168 C167 1.389 . S
C168 C169 1.387 . S
C169 H154 0.930 . S
C169 C164 1.390 . S
C169 C168 1.387 . S
H170 C182 0.930 . S
H171 C184 0.930 . S
H172 C185 0.930 . S
H173 C189 0.959 . S
H174 C189 0.959 . S
H175 C189 0.961 . S
H176 C190 0.960 . S
H177 C190 0.961 . S
H178 C190 0.959 . S
H179 C193 0.929 . S
H180 C194 0.931 . S
H181 C196 0.930 . S
C182 H170 0.930 . S
C182 C183 1.399 . S
C182 C187 1.399 . S
C183 C182 1.399 . S
C183 C184 1.376 . S
C184 H171 0.930 . S
C184 C183 1.376 . S
C184 C185 1.388 . S
C185 H172 0.930 . S
C185 C184 1.388 . S
C185 C186 1.390 . S
C186 C185 1.390 . S
C186 C187 1.394 . S
C186 C192 1.465 . S
C187 C182 1.399 . S
C187 C186 1.394 . S
C187 C188 1.516 . S
C188 C187 1.516 . S
C188 C189 1.502 . S
C188 C190 1.561 . S
C188 C191 1.526 . S
C189 H173 0.959 . S
C189 H174 0.959 . S
C189 H175 0.961 . S
C189 C188 1.502 . S
C190 H176 0.960 . S
C190 H177 0.961 . S
C190 H178 0.959 . S
C190 C188 1.561 . S
C191 C188 1.526 . S
C191 C192 1.396 . S
C191 C196 1.390 . S
C192 C186 1.465 . S
C192 C191 1.396 . S
C192 C193 1.399 . S
C193 H179 0.929 . S
C193 C192 1.399 . S
C193 C194 1.385 . S
C194 H180 0.931 . S
C194 C193 1.385 . S
C194 C195 1.389 . S
C195 C194 1.389 . S
C195 C196 1.387 . S
C196 H181 0.930 . S
C196 C191 1.390 . S
C196 C195 1.387 . S
H197 C209 0.930 . S
H198 C211 0.930 . S
H199 C212 0.930 . S
H200 C216 0.959 . S
H201 C216 0.959 . S
H202 C216 0.961 . S
H203 C217 0.960 . S
H204 C217 0.961 . S
H205 C217 0.959 . S
H206 C220 0.929 . S
H207 C221 0.931 . S
H208 C223 0.930 . S
C209 H197 0.930 . S
C209 C210 1.399 . S
C209 C214 1.399 . S
C210 C209 1.399 . S
C210 C211 1.376 . S
C211 H198 0.930 . S
C211 C210 1.376 . S
C211 C212 1.388 . S
C212 H199 0.930 . S
C212 C211 1.388 . S
C212 C213 1.390 . S
C213 C212 1.390 . S
C213 C214 1.394 . S
C213 C219 1.465 . S
C214 C209 1.399 . S
C214 C213 1.394 . S
C214 C215 1.516 . S
C215 C214 1.516 . S
C215 C216 1.502 . S
C215 C217 1.561 . S
C215 C218 1.526 . S
C216 H200 0.959 . S
C216 H201 0.959 . S
C216 H202 0.961 . S
C216 C215 1.502 . S
C217 H203 0.960 . S
C217 H204 0.961 . S
C217 H205 0.959 . S
C217 C215 1.561 . S
C218 C215 1.526 . S
C218 C219 1.396 . S
C218 C223 1.390 . S
C219 C213 1.465 . S
C219 C218 1.396 . S
C219 C220 1.399 . S
C220 H206 0.929 . S
C220 C219 1.399 . S
C220 C221 1.385 . S
C221 H207 0.931 . S
C221 C220 1.385 . S
C221 C222 1.389 . S
C222 C221 1.389 . S
C222 C223 1.387 . S
C223 H208 0.930 . S
C223 C218 1.390 . S
C223 C222 1.387 . S
H224 C236 0.930 . S
H225 C238 0.930 . S
H226 C239 0.930 . S
H227 C243 0.959 . S
H228 C243 0.959 . S
H229 C243 0.961 . S
H230 C244 0.960 . S
H231 C244 0.961 . S
H232 C244 0.959 . S
H233 C247 0.929 . S
H234 C248 0.931 . S
H235 C250 0.930 . S
C236 H224 0.930 . S
C236 C237 1.399 . S
C236 C241 1.399 . S
C237 C236 1.399 . S
C237 C238 1.376 . S
C238 H225 0.930 . S
C238 C237 1.376 . S
C238 C239 1.388 . S
C239 H226 0.930 . S
C239 C238 1.388 . S
C239 C240 1.390 . S
C240 C239 1.390 . S
C240 C241 1.394 . S
C240 C246 1.465 . S
C241 C236 1.399 . S
C241 C240 1.394 . S
C241 C242 1.516 . S
C242 C241 1.516 . S
C242 C243 1.502 . S
C242 C244 1.561 . S
C242 C245 1.526 . S
C243 H227 0.959 . S
C243 H228 0.959 . S
C243 H229 0.961 . S
C243 C242 1.502 . S
C244 H230 0.960 . S
C244 H231 0.961 . S
C244 H232 0.959 . S
C244 C242 1.561 . S
C245 C242 1.526 . S
C245 C246 1.396 . S
C245 C250 1.390 . S
C246 C240 1.465 . S
C246 C245 1.396 . S
C246 C247 1.399 . S
C247 H233 0.929 . S
C247 C246 1.399 . S
C247 C248 1.385 . S
C248 H234 0.931 . S
C248 C247 1.385 . S
C248 C249 1.389 . S
C249 C248 1.389 . S
C249 C250 1.387 . S
C250 H235 0.930 . S
C250 C245 1.390 . S
C250 C249 1.387 . S
H251 C263 0.930 . S
H252 C265 0.930 . S
H253 C266 0.930 . S
H254 C270 0.959 . S
H255 C270 0.959 . S
H256 C270 0.961 . S
H257 C271 0.960 . S
H258 C271 0.961 . S
H259 C271 0.959 . S
H260 C274 0.929 . S
H261 C275 0.931 . S
H262 C277 0.930 . S
C263 H251 0.930 . S
C263 C264 1.399 . S
C263 C268 1.399 . S
C264 C263 1.399 . S
C264 C265 1.376 . S
C265 H252 0.930 . S
C265 C264 1.376 . S
C265 C266 1.388 . S
C266 H253 0.930 . S
C266 C265 1.388 . S
C266 C267 1.390 . S
C267 C266 1.390 . S
C267 C268 1.394 . S
C267 C273 1.465 . S
C268 C263 1.399 . S
C268 C267 1.394 . S
C268 C269 1.516 . S
C269 C268 1.516 . S
C269 C270 1.502 . S
C269 C271 1.561 . S
C269 C272 1.526 . S
C270 H254 0.959 . S
C270 H255 0.959 . S
C270 H256 0.961 . S
C270 C269 1.502 . S
C271 H257 0.960 . S
C271 H258 0.961 . S
C271 H259 0.959 . S
C271 C269 1.561 . S
C272 C269 1.526 . S
C272 C273 1.396 . S
C272 C277 1.390 . S
C273 C267 1.465 . S
C273 C272 1.396 . S
C273 C274 1.399 . S
C274 H260 0.929 . S
C274 C273 1.399 . S
C274 C275 1.385 . S
C275 H261 0.931 . S
C275 C274 1.385 . S
C275 C276 1.389 . S
C276 C275 1.389 . S
C276 C277 1.387 . S
C277 H262 0.930 . S
C277 C272 1.390 . S
C277 C276 1.387 . S
C75 C10 0.916 . S
C87 C33 0.864 . S
C102 C0 1.574 . S
C114 C55 1.556 . S
C129 C18 1.578 . S
C141 C42 1.507 . S
C156 C27 1.734 . S
C168 C32 1.694 . S
C183 C24 1.591 . S
C195 C31 1.528 . S
C210 C49 1.577 . S
C222 C11 1.501 . S
C237 C1 1.741 . S
C249 C58 1.692 . S
C264 C41 0.867 . S
C276 C2 0.917 . S
