# Generated by pormake.
# Topology umn, (4)-cn, num edge types: 1
# Building blocks:
#     Node 0, Type 0, BuildingBlock: TATPOV_clean_sbu_0, # of connection points: 4
#     Node 1, Type 0, BuildingBlock: TATPOV_clean_sbu_0, # of connection points: 4
#     Node 2, Type 0, BuildingBlock: TATPOV_clean_sbu_0, # of connection points: 4
#     Node 3, Type 0, BuildingBlock: TATPOV_clean_sbu_0, # of connection points: 4
#     Node 4, Type 0, BuildingBlock: TATPOV_clean_sbu_0, # of connection points: 4
#     Node 5, Type 0, BuildingBlock: TATPOV_clean_sbu_0, # of connection points: 4
#     Node 6, Type 0, BuildingBlock: TATPOV_clean_sbu_0, # of connection points: 4
#     Node 7, Type 0, BuildingBlock: TATPOV_clean_sbu_0, # of connection points: 4
#     Node 8, Type 0, BuildingBlock: TATPOV_clean_sbu_0, # of connection points: 4
#     Node 9, Type 0, BuildingBlock: TATPOV_clean_sbu_0, # of connection points: 4
#     Node 10, Type 0, BuildingBlock: TATPOV_clean_sbu_0, # of connection points: 4
#     Node 11, Type 0, BuildingBlock: TATPOV_clean_sbu_0, # of connection points: 4
#     Node 12, Type 0, BuildingBlock: TATPOV_clean_sbu_0, # of connection points: 4
#     Node 13, Type 0, BuildingBlock: TATPOV_clean_sbu_0, # of connection points: 4
#     Node 14, Type 0, BuildingBlock: TATPOV_clean_sbu_0, # of connection points: 4
#     Node 15, Type 0, BuildingBlock: TATPOV_clean_sbu_0, # of connection points: 4
#     Node 16, Type 0, BuildingBlock: TATPOV_clean_sbu_0, # of connection points: 4
#     Node 17, Type 0, BuildingBlock: TATPOV_clean_sbu_0, # of connection points: 4
#     Node 18, Type 0, BuildingBlock: TATPOV_clean_sbu_0, # of connection points: 4
#     Node 19, Type 0, BuildingBlock: TATPOV_clean_sbu_0, # of connection points: 4
#     Node 20, Type 0, BuildingBlock: TATPOV_clean_sbu_0, # of connection points: 4
#     Node 21, Type 0, BuildingBlock: TATPOV_clean_sbu_0, # of connection points: 4
#     Node 22, Type 0, BuildingBlock: TATPOV_clean_sbu_0, # of connection points: 4
#     Node 23, Type 0, BuildingBlock: TATPOV_clean_sbu_0, # of connection points: 4
#     Node 24, Type 0, BuildingBlock: TATPOV_clean_sbu_0, # of connection points: 4
#     Node 25, Type 0, BuildingBlock: TATPOV_clean_sbu_0, # of connection points: 4
#     Node 26, Type 0, BuildingBlock: TATPOV_clean_sbu_0, # of connection points: 4
#     Node 27, Type 0, BuildingBlock: TATPOV_clean_sbu_0, # of connection points: 4
#     Node 28, Type 0, BuildingBlock: TATPOV_clean_sbu_0, # of connection points: 4
#     Node 29, Type 0, BuildingBlock: TATPOV_clean_sbu_0, # of connection points: 4
#     Node 30, Type 0, BuildingBlock: TATPOV_clean_sbu_0, # of connection points: 4
#     Node 31, Type 0, BuildingBlock: TATPOV_clean_sbu_0, # of connection points: 4
#     Node 32, Type 0, BuildingBlock: TATPOV_clean_sbu_0, # of connection points: 4
#     Node 33, Type 0, BuildingBlock: TATPOV_clean_sbu_0, # of connection points: 4
#     Node 34, Type 0, BuildingBlock: TATPOV_clean_sbu_0, # of connection points: 4
#     Node 35, Type 0, BuildingBlock: TATPOV_clean_sbu_0, # of connection points: 4
#     Edge 36, Type (0, 0), BuildingBlock: XUDNAN_clean_linker_2, # of connection points: 2
#     Edge 37, Type (0, 0), BuildingBlock: XUDNAN_clean_linker_2, # of connection points: 2
#     Edge 38, Type (0, 0), BuildingBlock: XUDNAN_clean_linker_2, # of connection points: 2
#     Edge 39, Type (0, 0), BuildingBlock: XUDNAN_clean_linker_2, # of connection points: 2
#     Edge 40, Type (0, 0), BuildingBlock: XUDNAN_clean_linker_2, # of connection points: 2
#     Edge 41, Type (0, 0), BuildingBlock: XUDNAN_clean_linker_2, # of connection points: 2
#     Edge 42, Type (0, 0), BuildingBlock: XUDNAN_clean_linker_2, # of connection points: 2
#     Edge 43, Type (0, 0), BuildingBlock: XUDNAN_clean_linker_2, # of connection points: 2
#     Edge 44, Type (0, 0), BuildingBlock: XUDNAN_clean_linker_2, # of connection points: 2
#     Edge 45, Type (0, 0), BuildingBlock: XUDNAN_clean_linker_2, # of connection points: 2
#     Edge 46, Type (0, 0), BuildingBlock: XUDNAN_clean_linker_2, # of connection points: 2
#     Edge 47, Type (0, 0), BuildingBlock: XUDNAN_clean_linker_2, # of connection points: 2
#     Edge 48, Type (0, 0), BuildingBlock: XUDNAN_clean_linker_2, # of connection points: 2
#     Edge 49, Type (0, 0), BuildingBlock: XUDNAN_clean_linker_2, # of connection points: 2
#     Edge 50, Type (0, 0), BuildingBlock: XUDNAN_clean_linker_2, # of connection points: 2
#     Edge 51, Type (0, 0), BuildingBlock: XUDNAN_clean_linker_2, # of connection points: 2
#     Edge 52, Type (0, 0), BuildingBlock: XUDNAN_clean_linker_2, # of connection points: 2
#     Edge 53, Type (0, 0), BuildingBlock: XUDNAN_clean_linker_2, # of connection points: 2
#     Edge 54, Type (0, 0), BuildingBlock: XUDNAN_clean_linker_2, # of connection points: 2
#     Edge 55, Type (0, 0), BuildingBlock: XUDNAN_clean_linker_2, # of connection points: 2
#     Edge 56, Type (0, 0), BuildingBlock: XUDNAN_clean_linker_2, # of connection points: 2
#     Edge 57, Type (0, 0), BuildingBlock: XUDNAN_clean_linker_2, # of connection points: 2
#     Edge 58, Type (0, 0), BuildingBlock: XUDNAN_clean_linker_2, # of connection points: 2
#     Edge 59, Type (0, 0), BuildingBlock: XUDNAN_clean_linker_2, # of connection points: 2
#     Edge 60, Type (0, 0), BuildingBlock: XUDNAN_clean_linker_2, # of connection points: 2
#     Edge 61, Type (0, 0), BuildingBlock: XUDNAN_clean_linker_2, # of connection points: 2
#     Edge 62, Type (0, 0), BuildingBlock: XUDNAN_clean_linker_2, # of connection points: 2
#     Edge 63, Type (0, 0), BuildingBlock: XUDNAN_clean_linker_2, # of connection points: 2
#     Edge 64, Type (0, 0), BuildingBlock: XUDNAN_clean_linker_2, # of connection points: 2
#     Edge 65, Type (0, 0), BuildingBlock: XUDNAN_clean_linker_2, # of connection points: 2
#     Edge 66, Type (0, 0), BuildingBlock: XUDNAN_clean_linker_2, # of connection points: 2
#     Edge 67, Type (0, 0), BuildingBlock: XUDNAN_clean_linker_2, # of connection points: 2
#     Edge 68, Type (0, 0), BuildingBlock: XUDNAN_clean_linker_2, # of connection points: 2
#     Edge 69, Type (0, 0), BuildingBlock: XUDNAN_clean_linker_2, # of connection points: 2
#     Edge 70, Type (0, 0), BuildingBlock: XUDNAN_clean_linker_2, # of connection points: 2
#     Edge 71, Type (0, 0), BuildingBlock: XUDNAN_clean_linker_2, # of connection points: 2
#     Edge 72, Type (0, 0), BuildingBlock: XUDNAN_clean_linker_2, # of connection points: 2
#     Edge 73, Type (0, 0), BuildingBlock: XUDNAN_clean_linker_2, # of connection points: 2
#     Edge 74, Type (0, 0), BuildingBlock: XUDNAN_clean_linker_2, # of connection points: 2
#     Edge 75, Type (0, 0), BuildingBlock: XUDNAN_clean_linker_2, # of connection points: 2
#     Edge 76, Type (0, 0), BuildingBlock: XUDNAN_clean_linker_2, # of connection points: 2
#     Edge 77, Type (0, 0), BuildingBlock: XUDNAN_clean_linker_2, # of connection points: 2
#     Edge 78, Type (0, 0), BuildingBlock: XUDNAN_clean_linker_2, # of connection points: 2
#     Edge 79, Type (0, 0), BuildingBlock: XUDNAN_clean_linker_2, # of connection points: 2
#     Edge 80, Type (0, 0), BuildingBlock: XUDNAN_clean_linker_2, # of connection points: 2
#     Edge 81, Type (0, 0), BuildingBlock: XUDNAN_clean_linker_2, # of connection points: 2
#     Edge 82, Type (0, 0), BuildingBlock: XUDNAN_clean_linker_2, # of connection points: 2
#     Edge 83, Type (0, 0), BuildingBlock: XUDNAN_clean_linker_2, # of connection points: 2
#     Edge 84, Type (0, 0), BuildingBlock: XUDNAN_clean_linker_2, # of connection points: 2
#     Edge 85, Type (0, 0), BuildingBlock: XUDNAN_clean_linker_2, # of connection points: 2
#     Edge 86, Type (0, 0), BuildingBlock: XUDNAN_clean_linker_2, # of connection points: 2
#     Edge 87, Type (0, 0), BuildingBlock: XUDNAN_clean_linker_2, # of connection points: 2
#     Edge 88, Type (0, 0), BuildingBlock: XUDNAN_clean_linker_2, # of connection points: 2
#     Edge 89, Type (0, 0), BuildingBlock: XUDNAN_clean_linker_2, # of connection points: 2
#     Edge 90, Type (0, 0), BuildingBlock: XUDNAN_clean_linker_2, # of connection points: 2
#     Edge 91, Type (0, 0), BuildingBlock: XUDNAN_clean_linker_2, # of connection points: 2
#     Edge 92, Type (0, 0), BuildingBlock: XUDNAN_clean_linker_2, # of connection points: 2
#     Edge 93, Type (0, 0), BuildingBlock: XUDNAN_clean_linker_2, # of connection points: 2
#     Edge 94, Type (0, 0), BuildingBlock: XUDNAN_clean_linker_2, # of connection points: 2
#     Edge 95, Type (0, 0), BuildingBlock: XUDNAN_clean_linker_2, # of connection points: 2
#     Edge 96, Type (0, 0), BuildingBlock: XUDNAN_clean_linker_2, # of connection points: 2
#     Edge 97, Type (0, 0), BuildingBlock: XUDNAN_clean_linker_2, # of connection points: 2
#     Edge 98, Type (0, 0), BuildingBlock: XUDNAN_clean_linker_2, # of connection points: 2
#     Edge 99, Type (0, 0), BuildingBlock: XUDNAN_clean_linker_2, # of connection points: 2
#     Edge 100, Type (0, 0), BuildingBlock: XUDNAN_clean_linker_2, # of connection points: 2
#     Edge 101, Type (0, 0), BuildingBlock: XUDNAN_clean_linker_2, # of connection points: 2
#     Edge 102, Type (0, 0), BuildingBlock: XUDNAN_clean_linker_2, # of connection points: 2
#     Edge 103, Type (0, 0), BuildingBlock: XUDNAN_clean_linker_2, # of connection points: 2
#     Edge 104, Type (0, 0), BuildingBlock: XUDNAN_clean_linker_2, # of connection points: 2
#     Edge 105, Type (0, 0), BuildingBlock: XUDNAN_clean_linker_2, # of connection points: 2
#     Edge 106, Type (0, 0), BuildingBlock: XUDNAN_clean_linker_2, # of connection points: 2
#     Edge 107, Type (0, 0), BuildingBlock: XUDNAN_clean_linker_2, # of connection points: 2
# Relax obj value: 0.244
# Max RMSD: 0.289
# Mean RMSD: 0.289
data_MOF--net-umn--node1-TATPOV_clean_sbu_0--edge1-XUDNAN_clean_linker_2
_symmetry_space_group_name_H-M    P1
_symmetry_Int_Tables_number       1
_symmetry_cell_setting            triclinic
loop_
_symmetry_equiv_pos_as_xyz
'x, y, z'
_cell_length_a     82.91459
_cell_length_b     82.872508
_cell_length_c     36.849824
_cell_angle_alpha  90.017156
_cell_angle_beta   89.990004
_cell_angle_gamma 120.0208
loop_
_atom_site_label
_atom_site_type_symbol
_atom_site_fract_x
_atom_site_fract_y
_atom_site_fract_z
_atom_type_partial_charge
Zn0 Zn 0.38867 0.07982 0.23586 0.0
Zn1 Zn 0.37716 0.10238 0.23392 0.0
O2 O 0.40023 0.11096 0.1989 0.0
O3 O 0.41306 0.09399 0.21082 0.0
O4 O 0.37231 0.12394 0.23076 0.0
O5 O 0.38601 0.07598 0.28939 0.0
O6 O 0.3761 0.09607 0.2895 0.0
C7 C 0.41297 0.10689 0.19276 0.0
C8 C 0.35287 0.06539 0.20042 0.0
O9 O 0.35415 0.08058 0.21121 0.0
O10 O 0.36626 0.06239 0.20559 0.0
C11 C 0.36364 0.12783 0.25448 0.0
O12 O 0.35733 0.11748 0.28377 0.0
C13 C 0.37919 0.08443 0.30644 0.0
Zn14 Zn 0.90835 0.30755 0.21526 0.0
Zn15 Zn 0.89002 0.27297 0.1937 0.0
O16 O 0.88275 0.28801 0.15849 0.0
O17 O 0.89413 0.31576 0.1831 0.0
O18 O 0.87369 0.2461 0.17935 0.0
O19 O 0.90266 0.30071 0.26812 0.0
O20 O 0.88639 0.27174 0.24941 0.0
C21 C 0.88499 0.30442 0.15797 0.0
C22 C 0.93143 0.29351 0.18507 0.0
O23 O 0.91622 0.27808 0.18363 0.0
O24 O 0.93154 0.30818 0.19536 0.0
C25 C 0.87612 0.23426 0.1968 0.0
O26 O 0.88913 0.24022 0.22187 0.0
C27 C 0.89299 0.2835 0.27528 0.0
Zn28 Zn 0.69674 0.61281 0.27669 0.0
Zn29 Zn 0.72856 0.6209 0.25473 0.0
O30 O 0.70876 0.5969 0.22671 0.0
O31 O 0.68277 0.5866 0.25744 0.0
O32 O 0.75329 0.62525 0.23759 0.0
O33 O 0.70489 0.62008 0.32875 0.0
O34 O 0.73203 0.62445 0.31084 0.0
C35 C 0.6916 0.58471 0.23133 0.0
C36 C 0.71461 0.64579 0.23181 0.0
O37 O 0.72874 0.64384 0.23561 0.0
O38 O 0.69891 0.63354 0.24405 0.0
C39 C 0.76021 0.61482 0.24302 0.0
O40 O 0.75052 0.59908 0.26077 0.0
C41 C 0.7217 0.62513 0.33581 0.0
Zn42 Zn 0.09916 0.36976 0.19769 0.0
Zn43 Zn 0.0967 0.34394 0.24103 0.0
O44 O 0.10107 0.36718 0.27032 0.0
O45 O 0.1068 0.39055 0.23453 0.0
O46 O 0.10613 0.33097 0.27385 0.0
O47 O 0.11624 0.36822 0.15983 0.0
O48 O 0.10831 0.34323 0.19235 0.0
C49 C 0.10473 0.38395 0.26626 0.0
C50 C 0.06154 0.33463 0.20991 0.0
O51 O 0.06923 0.32869 0.23198 0.0
O52 O 0.07112 0.35032 0.19422 0.0
C53 C 0.10843 0.33418 0.30774 0.0
O54 O 0.10156 0.34372 0.32316 0.0
C55 C 0.11555 0.35272 0.16376 0.0
Zn56 Zn 0.61492 0.69764 0.27733 0.0
Zn57 Zn 0.63748 0.7265 0.31554 0.0
O58 O 0.61821 0.70759 0.35271 0.0
O59 O 0.60002 0.6824 0.32109 0.0
O60 O 0.64986 0.75167 0.33975 0.0
O61 O 0.60739 0.71058 0.23911 0.0
O62 O 0.63223 0.73319 0.26487 0.0
C63 C 0.60495 0.69067 0.35142 0.0
C64 C 0.65539 0.7088 0.27985 0.0
O65 O 0.65751 0.72018 0.30508 0.0
O66 O 0.6395 0.69879 0.26539 0.0
C67 C 0.6648 0.76428 0.32525 0.0
O68 O 0.67192 0.75983 0.29777 0.0
C69 C 0.62102 0.72711 0.23816 0.0
Zn70 Zn 0.27295 0.90347 0.21515 0.0
Zn71 Zn 0.24851 0.90415 0.25978 0.0
O72 O 0.26775 0.90193 0.29202 0.0
O73 O 0.28761 0.89994 0.25554 0.0
O74 O 0.22713 0.89766 0.29344 0.0
O75 O 0.25393 0.88266 0.18304 0.0
O76 O 0.23493 0.88794 0.21562 0.0
C77 C 0.28232 0.90067 0.28744 0.0
C78 C 0.27091 0.93857 0.21864 0.0
O79 O 0.25882 0.93071 0.24357 0.0
O80 O 0.2783 0.93002 0.20363 0.0
C81 C 0.21407 0.90067 0.28447 0.0
O82 O 0.21559 0.90974 0.25426 0.0
C83 C 0.23782 0.88038 0.18825 0.0
Zn84 Zn 0.62701 0.92499 0.75965 0.0
Zn85 Zn 0.62774 0.89515 0.7727 0.0
O86 O 0.60793 0.89566 0.80771 0.0
O87 O 0.60396 0.91851 0.7885 0.0
O88 O 0.62518 0.86999 0.7806 0.0
O89 O 0.62839 0.92281 0.70506 0.0
O90 O 0.62706 0.8962 0.71671 0.0
C91 C 0.59977 0.90525 0.81046 0.0
C92 C 0.6615 0.93103 0.79186 0.0
O93 O 0.6546 0.91362 0.78707 0.0
O94 O 0.65188 0.93869 0.78524 0.0
C95 C 0.63005 0.8657 0.81005 0.0
O96 O 0.63631 0.87781 0.83681 0.0
C97 C 0.62878 0.90855 0.69394 0.0
Zn98 Zn 0.0829 0.6952 0.73884 0.0
Zn99 Zn 0.10734 0.72535 0.76713 0.0
O100 O 0.10759 0.70333 0.79488 0.0
O101 O 0.0887 0.67756 0.76584 0.0
O102 O 0.13116 0.74792 0.78305 0.0
O103 O 0.08811 0.70174 0.6862 0.0
O104 O 0.10614 0.72909 0.71098 0.0
C105 C 0.09985 0.68564 0.79182 0.0
C106 C 0.06969 0.71721 0.78028 0.0
O107 O 0.08661 0.72854 0.78801 0.0
O108 O 0.06526 0.70289 0.76105 0.0
C109 C 0.13512 0.76421 0.77337 0.0
O110 O 0.12341 0.76627 0.75255 0.0
C111 C 0.09813 0.71923 0.68292 0.0
Zn112 Zn 0.30234 0.39838 0.76292 0.0
Zn113 Zn 0.26994 0.3812 0.79603 0.0
O114 O 0.28789 0.40467 0.82562 0.0
O115 O 0.3144 0.42078 0.79659 0.0
O116 O 0.24551 0.37414 0.81983 0.0
O117 O 0.29068 0.39663 0.71326 0.0
O118 O 0.26402 0.38089 0.74184 0.0
C119 C 0.30432 0.41869 0.82399 0.0
C120 C 0.29093 0.36121 0.7945 0.0
O121 O 0.27577 0.36037 0.80403 0.0
O122 O 0.30357 0.37554 0.77851 0.0
C123 C 0.2298 0.36368 0.80505 0.0
O124 O 0.22909 0.35542 0.77417 0.0
C125 C 0.27306 0.38675 0.7123 0.0
Zn126 Zn 0.91246 0.63295 0.77231 0.0
Zn127 Zn 0.91083 0.65565 0.72578 0.0
O128 O 0.91014 0.63465 0.69336 0.0
O129 O 0.91116 0.6152 0.7325 0.0
O130 O 0.90135 0.66905 0.6945 0.0
O131 O 0.89156 0.62914 0.80634 0.0
O132 O 0.89569 0.65256 0.77244 0.0
C133 C 0.91092 0.61992 0.69985 0.0
C134 C 0.94536 0.67138 0.76694 0.0
O135 O 0.93751 0.67381 0.73948 0.0
O136 O 0.93749 0.65607 0.78421 0.0
C137 C 0.90356 0.68445 0.70627 0.0
O138 O 0.91383 0.69187 0.73534 0.0
C139 C 0.88894 0.64274 0.80094 0.0
Zn140 Zn 0.37639 0.27756 0.78405 0.0
Zn141 Zn 0.35036 0.2496 0.74531 0.0
O142 O 0.37318 0.26453 0.7114 0.0
O143 O 0.39553 0.28709 0.7432 0.0
O144 O 0.33411 0.22592 0.71731 0.0
O145 O 0.37454 0.26092 0.82673 0.0
O146 O 0.35138 0.23916 0.79535 0.0
C147 C 0.38953 0.27871 0.71322 0.0
C148 C 0.34165 0.2785 0.76902 0.0
O149 O 0.33593 0.26331 0.75163 0.0
O150 O 0.35763 0.28652 0.78377 0.0
C151 C 0.34231 0.21763 0.70472 0.0
O152 O 0.36039 0.22531 0.70929 0.0
C153 C 0.36077 0.24449 0.82465 0.0
Zn154 Zn 0.712 0.07215 0.74074 0.0
Zn155 Zn 0.74293 0.08517 0.70657 0.0
O156 O 0.72403 0.08634 0.67025 0.0
O157 O 0.69719 0.07379 0.69881 0.0
O158 O 0.76778 0.10036 0.68216 0.0
O159 O 0.72167 0.08965 0.78337 0.0
O160 O 0.74831 0.09597 0.75884 0.0
C161 C 0.70662 0.0809 0.67032 0.0
C162 C 0.7273 0.0469 0.73315 0.0
O163 O 0.73936 0.05903 0.71188 0.0
O164 O 0.71492 0.04954 0.74755 0.0
C165 C 0.77539 0.11801 0.68321 0.0
O166 O 0.76653 0.1255 0.69915 0.0
C167 C 0.73916 0.09677 0.78591 0.0
Zn168 Zn 0.01418 0.38931 0.51313 0.0
Zn169 Zn 0.02048 0.42301 0.5031 0.0
O170 O 0.03973 0.42034 0.47087 0.0
O171 O 0.03714 0.39352 0.48605 0.0
O172 O 0.02687 0.44949 0.49406 0.0
O173 O 0.01309 0.39244 0.56808 0.0
O174 O 0.02136 0.42177 0.55868 0.0
C175 C 0.0451 0.40841 0.46767 0.0
C176 C 0.98349 0.39011 0.48315 0.0
O177 O 0.99364 0.40744 0.48964 0.0
O178 O 0.99039 0.37955 0.486 0.0
C179 C 0.0177 0.45609 0.50943 0.0
O180 O 0.00381 0.44532 0.531 0.0
C181 C 0.01662 0.40816 0.58043 0.0
Zn182 Zn 0.57756 0.59578 0.63205 0.0
Zn183 Zn 0.5754 0.57248 0.58496 0.0
O184 O 0.57259 0.5926 0.55478 0.0
O185 O 0.57499 0.61277 0.59606 0.0
O186 O 0.56366 0.54888 0.55535 0.0
O187 O 0.55766 0.57917 0.66815 0.0
O188 O 0.56447 0.56127 0.63565 0.0
C189 C 0.57329 0.60793 0.56305 0.0
C190 C 0.61072 0.59063 0.62013 0.0
O191 O 0.60262 0.58115 0.59191 0.0
O192 O 0.60285 0.59728 0.63984 0.0
C193 C 0.56257 0.54623 0.52126 0.0
O194 O 0.57066 0.56058 0.49922 0.0
C195 C 0.5577 0.56402 0.66449 0.0
Zn196 Zn 0.37251 0.99074 0.53943 0.0
Zn197 Zn 0.40146 0.98732 0.53147 0.0
O198 O 0.3813 0.96786 0.49604 0.0
O199 O 0.35553 0.96747 0.51156 0.0
O200 O 0.42432 0.98505 0.52273 0.0
O201 O 0.37662 0.99189 0.59405 0.0
O202 O 0.39754 0.98332 0.58651 0.0
C203 C 0.36374 0.96107 0.49244 0.0
C204 C 0.40269 0.02382 0.51617 0.0
O205 O 0.4109 0.01471 0.5235 0.0
O206 O 0.38508 0.01527 0.51418 0.0
C207 C 0.43758 0.99253 0.54556 0.0
O208 O 0.43599 0.00105 0.5734 0.0
C209 C 0.38842 0.9881 0.60744 0.0
Zn210 Zn 0.73967 0.70785 0.61172 0.0
Zn211 Zn 0.76762 0.70602 0.63519 0.0
O212 O 0.76531 0.72588 0.66698 0.0
O213 O 0.74199 0.72829 0.64506 0.0
O214 O 0.79299 0.70991 0.64768 0.0
O215 O 0.74543 0.70985 0.55826 0.0
O216 O 0.76673 0.70382 0.57863 0.0
C217 C 0.75469 0.73293 0.66859 0.0
C218 C 0.73192 0.67221 0.64518 0.0
O219 O 0.74915 0.67995 0.6528 0.0
O220 O 0.72535 0.68112 0.62888 0.0
C221 C 0.79815 0.69888 0.63534 0.0
O222 O 0.78666 0.68487 0.61472 0.0
C223 C 0.75754 0.70514 0.55213 0.0
Zn224 Zn 0.32133 0.03841 0.6187 0.0
Zn225 Zn 0.31619 0.06593 0.61352 0.0
O226 O 0.29597 0.04694 0.65054 0.0
O227 O 0.29874 0.02197 0.64752 0.0
O228 O 0.31453 0.0893 0.61806 0.0
O229 O 0.32119 0.03776 0.56388 0.0
O230 O 0.31348 0.05949 0.55878 0.0
C231 C 0.29047 0.0301 0.65995 0.0
C232 C 0.3542 0.06987 0.63464 0.0
O233 O 0.34412 0.07631 0.62284 0.0
O234 O 0.3466 0.05276 0.64253 0.0
C235 C 0.30001 0.09032 0.62464 0.0
O236 O 0.28385 0.07493 0.62776 0.0
C237 C 0.31767 0.04813 0.54406 0.0
Zn238 Zn 0.95283 0.28544 0.57671 0.0
Zn239 Zn 0.92327 0.25638 0.59345 0.0
O240 O 0.9444 0.25711 0.62666 0.0
O241 O 0.97013 0.2785 0.60076 0.0
O242 O 0.90012 0.23336 0.6103 0.0
O243 O 0.94543 0.28003 0.52399 0.0
O244 O 0.92314 0.2519 0.53833 0.0
C245 C 0.96217 0.26592 0.62445 0.0
C246 C 0.92722 0.29493 0.60096 0.0
O247 O 0.91695 0.27738 0.59714 0.0
O248 O 0.94474 0.30198 0.60164 0.0
C249 C 0.89839 0.21756 0.60325 0.0
O250 O 0.91194 0.21688 0.58612 0.0
C251 C 0.93203 0.26435 0.51438 0.0
Zn252 Zn 0.2949 0.24258 0.09156 0.0
Zn253 Zn 0.31732 0.24018 0.13521 0.0
O254 O 0.2967 0.24114 0.16683 0.0
O255 O 0.27668 0.24178 0.12886 0.0
O256 O 0.32817 0.22888 0.16899 0.0
O257 O 0.28964 0.2217 0.05649 0.0
O258 O 0.31434 0.2262 0.08654 0.0
C259 C 0.28193 0.24197 0.16117 0.0
C260 C 0.33436 0.27483 0.09657 0.0
O261 O 0.337 0.26643 0.12281 0.0
O262 O 0.31861 0.2675 0.08082 0.0
C263 C 0.33942 0.22379 0.15768 0.0
O264 O 0.34528 0.22734 0.12393 0.0
C265 C 0.30366 0.21955 0.05906 0.0
Zn266 Zn 0.75622 0.03633 0.0636 0.0
Zn267 Zn 0.7706 0.06705 0.09966 0.0
O268 O 0.77463 0.04819 0.13011 0.0
O269 O 0.7646 0.02276 0.09764 0.0
O270 O 0.78694 0.09129 0.12527 0.0
O271 O 0.76784 0.04749 0.01561 0.0
O272 O 0.7769 0.07373 0.04493 0.0
C273 C 0.77164 0.03159 0.12678 0.0
C274 C 0.72998 0.04769 0.09184 0.0
O275 O 0.74404 0.06131 0.10676 0.0
O276 O 0.73181 0.03585 0.07311 0.0
C277 C 0.78911 0.10679 0.11431 0.0
O278 O 0.77994 0.10715 0.08555 0.0
C279 C 0.77496 0.06502 0.01524 0.0
Zn280 Zn 0.94773 0.718 0.0671 0.0
Zn281 Zn 0.9207 0.69158 0.10646 0.0
O282 O 0.93627 0.71348 0.14189 0.0
O283 O 0.95738 0.73646 0.10903 0.0
O284 O 0.89825 0.67415 0.13558 0.0
O285 O 0.93012 0.71708 0.02736 0.0
O286 O 0.90917 0.69286 0.05783 0.0
C287 C 0.95016 0.73 0.13974 0.0
C288 C 0.94846 0.68283 0.07691 0.0
O289 O 0.93389 0.67747 0.09598 0.0
O290 O 0.95675 0.69902 0.06295 0.0
C291 C 0.88639 0.67929 0.14136 0.0
O292 O 0.88982 0.69559 0.12911 0.0
C293 C 0.91392 0.70299 0.02948 0.0
Zn294 Zn 0.56481 0.95435 0.09882 0.0
Zn295 Zn 0.56 0.97542 0.05211 0.0
O296 O 0.55634 0.95234 0.02349 0.0
O297 O 0.55938 0.93383 0.06191 0.0
O298 O 0.54943 0.98669 0.01783 0.0
O299 O 0.54688 0.9537 0.13704 0.0
O300 O 0.54801 0.97542 0.10145 0.0
C301 C 0.55678 0.93744 0.02975 0.0
C302 C 0.59754 0.99167 0.08169 0.0
O303 O 0.58754 0.9934 0.05757 0.0
O304 O 0.59102 0.97725 0.1016 0.0
C305 C 0.54616 0.99957 0.027 0.0
O306 O 0.55108 0.00649 0.05948 0.0
C307 C 0.5436 0.96689 0.13181 0.0
Zn308 Zn 0.05278 0.62279 0.08409 0.0
Zn309 Zn 0.03043 0.59069 0.05093 0.0
O310 O 0.05379 0.60472 0.01855 0.0
O311 O 0.07359 0.6305 0.04678 0.0
O312 O 0.01677 0.56513 0.02893 0.0
O313 O 0.04988 0.61026 0.13377 0.0
O314 O 0.03002 0.58477 0.10509 0.0
C315 C 0.06928 0.62001 0.01916 0.0
C316 C 0.01754 0.61807 0.05409 0.0
O317 O 0.01393 0.60189 0.04427 0.0
O318 O 0.03266 0.62894 0.07036 0.0
C319 C 0.00915 0.56167 0.99693 0.0
O320 O 0.01002 0.57542 0.97765 0.0
C321 C 0.03751 0.59315 0.13464 0.0
Zn322 Zn 0.35838 0.40893 0.09373 0.0
Zn323 Zn 0.3915 0.43384 0.0943 0.0
O324 O 0.37639 0.44193 0.05965 0.0
O325 O 0.34696 0.42301 0.07277 0.0
O326 O 0.41733 0.45606 0.09523 0.0
O327 O 0.35727 0.40327 0.14662 0.0
O328 O 0.3861 0.42635 0.14916 0.0
C329 C 0.35918 0.43685 0.0553 0.0
C330 C 0.38253 0.39839 0.05765 0.0
O331 O 0.39514 0.41368 0.07098 0.0
O332 O 0.36557 0.39398 0.06049 0.0
C333 C 0.42698 0.46051 0.06637 0.0
O334 O 0.41944 0.45098 0.03655 0.0
C335 C 0.37199 0.41296 0.16474 0.0
Zn336 Zn 0.70084 0.75302 0.95808 0.0
Zn337 Zn 0.67724 0.75717 0.91952 0.0
O338 O 0.7008 0.76476 0.88779 0.0
O339 O 0.72268 0.76597 0.92307 0.0
O340 O 0.66429 0.76907 0.89486 0.0
O341 O 0.69721 0.76323 0.007 0.0
O342 O 0.67545 0.76354 0.97301 0.0
C343 C 0.71735 0.76772 0.89182 0.0
C344 C 0.66673 0.71877 0.93037 0.0
O345 O 0.66135 0.72935 0.91656 0.0
O346 O 0.68216 0.72559 0.94719 0.0
C347 C 0.65657 0.7656 0.86388 0.0
O348 O 0.65616 0.7523 0.84379 0.0
C349 C 0.68311 0.7653 0.00474 0.0
Zn350 Zn 0.22918 0.94405 0.93675 0.0
Zn351 Zn 0.22992 0.91892 0.89331 0.0
O352 O 0.22706 0.93736 0.86 0.0
O353 O 0.22412 0.95714 0.89514 0.0
O354 O 0.22396 0.89704 0.86124 0.0
O355 O 0.20985 0.92503 0.9714 0.0
O356 O 0.21362 0.90552 0.93729 0.0
C357 C 0.22518 0.95164 0.8636 0.0
C358 C 0.26489 0.94357 0.93211 0.0
O359 O 0.25673 0.93033 0.90938 0.0
O360 O 0.2563 0.95114 0.94616 0.0
C361 C 0.22734 0.88453 0.87249 0.0
O362 O 0.23649 0.88724 0.90309 0.0
C363 C 0.20687 0.90869 0.96562 0.0
Zn364 Zn 0.04112 0.286 0.91327 0.0
Zn365 Zn 0.06961 0.31255 0.87359 0.0
O366 O 0.05284 0.29421 0.83476 0.0
O367 O 0.02842 0.27317 0.86507 0.0
O368 O 0.09395 0.32942 0.8492 0.0
O369 O 0.05811 0.28036 0.945 0.0
O370 O 0.07961 0.30452 0.91568 0.0
C371 C 0.0367 0.27974 0.83512 0.0
C372 C 0.04769 0.32465 0.9181 0.0
O373 O 0.05962 0.32875 0.8929 0.0
O374 O 0.03886 0.30821 0.93082 0.0
C375 C 0.10604 0.34216 0.86944 0.0
O376 O 0.10077 0.34512 0.90121 0.0
C377 C 0.07508 0.29274 0.94116 0.0
Zn378 Zn 0.41439 0.06164 0.9035 0.0
Zn379 Zn 0.43524 0.04821 0.92506 0.0
O380 O 0.44217 0.07189 0.95594 0.0
O381 O 0.42869 0.08601 0.93031 0.0
O382 O 0.45449 0.04119 0.93903 0.0
O383 O 0.41721 0.05785 0.85012 0.0
O384 O 0.43551 0.04751 0.86887 0.0
C385 C 0.43903 0.08548 0.95501 0.0
C386 C 0.39505 0.02621 0.94317 0.0
O387 O 0.41057 0.02659 0.94206 0.0
O388 O 0.39359 0.03968 0.93061 0.0
C389 C 0.45559 0.02875 0.92077 0.0
O390 O 0.44386 0.02048 0.89395 0.0
C391 C 0.42722 0.05068 0.84308 0.0
Zn392 Zn 0.94697 0.36239 0.88167 0.0
Zn393 Zn 0.95573 0.39635 0.89934 0.0
O394 O 0.9313 0.37851 0.92705 0.0
O395 O 0.92211 0.35024 0.907 0.0
O396 O 0.95928 0.42188 0.90791 0.0
O397 O 0.95129 0.36785 0.82812 0.0
O398 O 0.95892 0.39641 0.84361 0.0
C399 C 0.91969 0.36102 0.92776 0.0
C400 C 0.98067 0.38287 0.92581 0.0
O401 O 0.97801 0.39666 0.92347 0.0
O402 O 0.96946 0.36735 0.91135 0.0
C403 C 0.96503 0.43052 0.93782 0.0
O404 O 0.96845 0.4224 0.96497 0.0
C405 C 0.95742 0.38471 0.81947 0.0
Zn406 Zn 0.62155 0.55415 0.93748 0.0
Zn407 Zn 0.5901 0.54466 0.97398 0.0
O408 O 0.60603 0.53903 0.01025 0.0
O409 O 0.63168 0.54579 0.9798 0.0
O410 O 0.5651 0.53395 0.99765 0.0
O411 O 0.60727 0.53919 0.8923 0.0
O412 O 0.58241 0.53378 0.92299 0.0
C413 C 0.62211 0.54054 0.00952 0.0
C414 C 0.6144 0.5847 0.95523 0.0
O415 O 0.59957 0.57228 0.9704 0.0
O416 O 0.62562 0.58045 0.9405 0.0
C417 C 0.5615 0.53859 0.029 0.0
O418 O 0.57509 0.55136 0.04876 0.0
C419 C 0.58982 0.53279 0.89347 0.0
Zn420 Zn 0.97394 0.59574 0.41383 0.0
Zn421 Zn 0.99428 0.58643 0.45176 0.0
O422 O 0.9736 0.58438 0.48726 0.0
O423 O 0.95764 0.59439 0.45647 0.0
O424 O 0.00362 0.57133 0.47498 0.0
O425 O 0.96662 0.5766 0.37311 0.0
O426 O 0.99032 0.57653 0.39925 0.0
C427 C 0.96077 0.58864 0.486 0.0
C428 C 0.01418 0.62334 0.42238 0.0
O429 O 0.01489 0.61288 0.44683 0.0
O430 O -0.00108 0.61872 0.40627 0.0
C431 C 0.01812 0.57221 0.46135 0.0
O432 O 0.02686 0.58417 0.43507 0.0
C433 C 0.97962 0.57279 0.37196 0.0
Zn434 Zn 0.39827 0.36064 0.46234 0.0
Zn435 Zn 0.4297 0.38707 0.45454 0.0
O436 O 0.43103 0.36727 0.49022 0.0
O437 O 0.40383 0.34194 0.48267 0.0
O438 O 0.45599 0.40878 0.45138 0.0
O439 O 0.39188 0.36009 0.41008 0.0
O440 O 0.42101 0.38136 0.40023 0.0
C441 C 0.41989 0.34992 0.49651 0.0
C442 C 0.4003 0.39277 0.49091 0.0
O443 O 0.41576 0.39978 0.47421 0.0
O444 O 0.39092 0.3753 0.49537 0.0
C445 C 0.46383 0.41769 0.4802 0.0
O446 O 0.45514 0.41153 0.51132 0.0
C447 C 0.4045 0.37082 0.38831 0.0
Zn448 Zn 0.61304 0.03545 0.38665 0.0
Zn449 Zn 0.58787 0.01481 0.43282 0.0
O450 O 0.61011 0.03546 0.4629 0.0
O451 O 0.63108 0.05372 0.42329 0.0
O452 O 0.56609 0.00519 0.4672 0.0
O453 O 0.59749 0.04107 0.352 0.0
O454 O 0.57667 0.01811 0.38501 0.0
C455 C 0.62608 0.04952 0.456 0.0
C456 C 0.60353 0.9959 0.39493 0.0
O457 O 0.59297 0.99453 0.42126 0.0
O458 O 0.61257 0.01072 0.37782 0.0
C459 C 0.54954 0.99498 0.45611 0.0
O460 O 0.54687 0.98875 0.4226 0.0
C461 C 0.58084 0.0282 0.35664 0.0
Zn462 Zn 0.26226 0.30784 0.44629 0.0
Zn463 Zn 0.24845 0.32508 0.41029 0.0
O464 O 0.24725 0.30461 0.37525 0.0
O465 O 0.25984 0.29062 0.40479 0.0
O466 O 0.23033 0.33242 0.39082 0.0
O467 O 0.24582 0.3009 0.49103 0.0
O468 O 0.24049 0.32124 0.46391 0.0
C469 C 0.2526 0.29258 0.3761 0.0
C470 C 0.28669 0.34891 0.43291 0.0
O471 O 0.2743 0.34826 0.41155 0.0
O472 O 0.28427 0.33429 0.44889 0.0
C473 C 0.21594 0.3214 0.37263 0.0
O474 O 0.21368 0.30526 0.36206 0.0
C475 C 0.23948 0.31196 0.49215 0.0
Zn476 Zn 0.70621 0.96125 0.40184 0.0
Zn477 Zn 0.69887 0.92836 0.38331 0.0
O478 O 0.72148 0.94808 0.35285 0.0
O479 O 0.73057 0.97587 0.37522 0.0
O480 O 0.69851 0.90453 0.37122 0.0
O481 O 0.70292 0.95562 0.45576 0.0
O482 O 0.69684 0.92765 0.43937 0.0
C483 C 0.73255 0.96569 0.35213 0.0
C484 C 0.67118 0.93879 0.36173 0.0
O485 O 0.67455 0.92545 0.36413 0.0
O486 O 0.68273 0.95483 0.3738 0.0
C487 C 0.68657 0.88882 0.38423 0.0
O488 O 0.67353 0.88781 0.40595 0.0
C489 C 0.69784 0.93891 0.46406 0.0
Zn490 Zn 0.0336 0.74136 0.40463 0.0
Zn491 Zn 0.0623 0.77229 0.39172 0.0
O492 O 0.03972 0.77024 0.36164 0.0
O493 O 0.01425 0.74581 0.38149 0.0
O494 O 0.08278 0.79826 0.38042 0.0
O495 O 0.0392 0.74251 0.45836 0.0
O496 O 0.06318 0.77029 0.44783 0.0
C497 C 0.02201 0.75968 0.3604 0.0
C498 C 0.06218 0.73839 0.36528 0.0
O499 O 0.07198 0.75572 0.37186 0.0
O500 O 0.04506 0.72963 0.37362 0.0
C501 C 0.09933 0.80392 0.3911 0.0
O502 O 0.1028 0.79271 0.41054 0.0
C503 C 0.05375 0.75684 0.46969 0.0
H504 H 0.29928 0.96052 0.17283 0.0
H505 H 0.25642 0.96044 0.24042 0.0
H506 H 0.26902 0.99382 0.22719 0.0
H507 H 0.33425 0.99957 0.20477 0.0
H508 H 0.34701 0.00761 0.16289 0.0
H509 H 0.33155 0.98363 0.16882 0.0
H510 H 0.31387 0.98298 0.11027 0.0
H511 H 0.3293 0.00719 0.10449 0.0
H512 H 0.30446 0.99835 0.10614 0.0
H513 H 0.2897 0.02726 0.21755 0.0
H514 H 0.31798 0.0583 0.21863 0.0
H515 H 0.34767 0.03655 0.15792 0.0
C516 C 0.29215 0.96735 0.18387 0.0
C517 C 0.27688 0.95789 0.2076 0.0
C518 C 0.26815 0.96742 0.22212 0.0
C519 C 0.27509 0.98634 0.21439 0.0
C520 C 0.29062 0.99546 0.19182 0.0
C521 C 0.299 0.98621 0.17666 0.0
C522 C 0.31734 0.99961 0.15889 0.0
C523 C 0.33347 0.99762 0.17484 0.0
C524 C 0.31615 0.997 0.11749 0.0
C525 C 0.3188 0.01746 0.16921 0.0
C526 C 0.30289 0.01481 0.18675 0.0
C527 C 0.30202 0.02957 0.20303 0.0
C528 C 0.31814 0.0472 0.20339 0.0
C529 C 0.33493 0.0497 0.18834 0.0
C530 C 0.33489 0.03496 0.16919 0.0
H531 H 0.03997 0.34752 0.1814 0.0
H532 H 0.03757 0.29731 0.22251 0.0
H533 H 0.00356 0.27976 0.211 0.0
H534 H -0.00012 0.34061 0.2236 0.0
H535 H 0.99351 0.35032 0.18739 0.0
H536 H 0.01702 0.35789 0.19365 0.0
H537 H 0.01902 0.34889 0.12704 0.0
H538 H 0.99539 0.34112 0.12068 0.0
H539 H 0.00338 0.3255 0.11154 0.0
H540 H 0.97024 0.26845 0.19901 0.0
H541 H 0.939 0.26528 0.1951 0.0
H542 H 0.96427 0.32347 0.16459 0.0
C543 C 0.03239 0.33274 0.18733 0.0
C544 C 0.04139 0.32371 0.20253 0.0
C545 C 0.0309 0.30446 0.21076 0.0
C546 C 0.01165 0.29438 0.204 0.0
C547 C 0.0032 0.30379 0.18913 0.0
C548 C 0.01327 0.3226 0.1812 0.0
C549 C 0.00079 0.33006 0.16941 0.0
C550 C 0.00273 0.34562 0.19505 0.0
C551 C 0.0047 0.33678 0.12981 0.0
C552 C 0.98274 0.31266 0.17312 0.0
C553 C 0.98438 0.29751 0.18353 0.0
C554 C 0.96879 0.28016 0.19049 0.0
C555 C 0.95112 0.27847 0.18804 0.0
C556 C 0.94932 0.29416 0.17952 0.0
C557 C 0.96529 0.31125 0.17095 0.0
H558 H 0.69247 0.6516 0.18698 0.0
H559 H 0.74044 0.67964 0.25705 0.0
H560 H 0.73455 0.70575 0.26438 0.0
H561 H 0.69421 0.69878 0.15224 0.0
H562 H 0.66911 0.68611 0.15192 0.0
H563 H 0.68183 0.67468 0.13845 0.0
H564 H 0.66332 0.64892 0.1858 0.0
H565 H 0.65107 0.66037 0.20037 0.0
H566 H 0.6641 0.65522 0.23294 0.0
H567 H 0.71665 0.72046 0.28441 0.0
H568 H 0.69135 0.72558 0.3061 0.0
H569 H 0.65528 0.68897 0.22144 0.0
C570 C 0.70245 0.66397 0.20149 0.0
C571 C 0.71681 0.66381 0.22137 0.0
C572 C 0.72952 0.67977 0.24112 0.0
C573 C 0.7262 0.69463 0.24555 0.0
C574 C 0.71051 0.69347 0.22903 0.0
C575 C 0.6993 0.67891 0.2058 0.0
C576 C 0.68145 0.67885 0.19701 0.0
C577 C 0.68167 0.68498 0.15757 0.0
C578 C 0.664 0.65973 0.20456 0.0
C579 C 0.68306 0.6936 0.22317 0.0
C580 C 0.70017 0.70244 0.24038 0.0
C581 C 0.70352 0.71423 0.27003 0.0
C582 C 0.689 0.71687 0.28253 0.0
C583 C 0.67132 0.7075 0.26566 0.0
C584 C 0.66866 0.69632 0.23491 0.0
H585 H 0.67917 0.95868 0.8402 0.0
H586 H 0.68796 0.93224 0.74749 0.0
H587 H 0.71564 0.96181 0.73058 0.0
H588 H 0.68202 0.99249 0.80504 0.0
H589 H 0.69522 0.01063 0.83675 0.0
H590 H 0.68317 0.98764 0.85245 0.0
H591 H 0.71362 0.99095 0.87821 0.0
H592 H 0.72597 0.01438 0.86326 0.0
H593 H 0.73384 0.99911 0.84953 0.0
H594 H 0.73146 0.99432 0.70938 0.0
H595 H 0.73679 0.02502 0.69211 0.0
H596 H 0.71913 0.03128 0.79909 0.0
C597 C 0.68798 0.95894 0.81825 0.0
C598 C 0.68167 0.94342 0.79523 0.0
C599 C 0.69287 0.94398 0.76585 0.0
C600 C 0.7086 0.96085 0.7559 0.0
C601 C 0.71319 0.97674 0.77642 0.0
C602 C 0.70373 0.97573 0.80826 0.0
C603 C 0.70867 0.99496 0.82148 0.0
C604 C 0.69123 0.99661 0.82926 0.0
C605 C 0.72129 -0.00021 0.8551 0.0
C606 C 0.71949 0.00595 0.78906 0.0
C607 C 0.72283 0.99598 0.7641 0.0
C608 C 0.72965 0.00237 0.72934 0.0
C609 C 0.73251 0.02002 0.71955 0.0
C610 C 0.72814 0.03027 0.74426 0.0
C611 C 0.72249 0.02354 0.77979 0.0
H612 H 0.04987 0.72466 0.73345 0.0
H613 H 0.05562 0.71652 0.84747 0.0
H614 H 0.02433 0.71223 0.85903 0.0
H615 H 0.01589 0.74489 0.74534 0.0
H616 H 0.00366 0.7325 0.70501 0.0
H617 H 0.02854 0.74228 0.70817 0.0
H618 H 0.02439 0.70989 0.69368 0.0
H619 H -0.00033 0.6999 0.6913 0.0
H620 H 0.00955 0.69032 0.72223 0.0
H621 H 0.99133 0.69849 0.85464 0.0
H622 H 0.95867 0.67862 0.83584 0.0
H623 H 0.97394 0.69595 0.72429 0.0
C624 C 0.04487 0.72316 0.7611 0.0
C625 C 0.05497 0.72122 0.78975 0.0
C626 C 0.0481 0.7185 0.82551 0.0
C627 C 0.03035 0.71604 0.83217 0.0
C628 C 0.01999 0.71664 0.80278 0.0
C629 C 0.02722 0.72066 0.76795 0.0
C630 C 0.01231 0.7169 0.74009 0.0
C631 C 0.01528 0.73524 0.7237 0.0
C632 C 0.01144 0.70345 0.71015 0.0
C633 C 0.99596 0.70805 0.76403 0.0
C634 C 1e-05 0.70865 0.80027 0.0
C635 C 0.98742 0.69857 0.82666 0.0
C636 C 0.96893 0.68717 0.81569 0.0
C637 C 0.96394 0.68596 0.77868 0.0
C638 C 0.97744 0.69712 0.75285 0.0
H639 H 0.35336 0.31471 0.78363 0.0
H640 H 0.30342 0.26161 0.76369 0.0
H641 H 0.28415 0.27636 0.7746 0.0
H642 H 0.33535 0.33115 0.8543 0.0
H643 H 0.3477 0.35491 0.83845 0.0
H644 H 0.35723 0.33985 0.83079 0.0
H645 H 0.35882 0.34622 0.76155 0.0
H646 H 0.34963 0.36152 0.76909 0.0
H647 H 0.3381 0.34226 0.73798 0.0
H648 H 0.27062 0.29767 0.78759 0.0
H649 H 0.26451 0.32399 0.79331 0.0
H650 H 0.32383 0.3624 0.80323 0.0
C651 C 0.33835 0.3061 0.78175 0.0
C652 C 0.32984 0.28701 0.77313 0.0
C653 C 0.31019 0.27631 0.77024 0.0
C654 C 0.29916 0.28452 0.77669 0.0
C655 C 0.30808 0.30341 0.78573 0.0
C656 C 0.32727 0.31406 0.78772 0.0
C657 C 0.33371 0.33425 0.79549 0.0
C658 C 0.34411 0.34039 0.83193 0.0
C659 C 0.34576 0.34679 0.76416 0.0
C660 C 0.31516 0.33344 0.79741 0.0
C661 C 0.30046 0.31554 0.79228 0.0
C662 C 0.28203 0.3117 0.7918 0.0
C663 C 0.27867 0.32667 0.79535 0.0
C664 C 0.29372 0.34513 0.79876 0.0
C665 C 0.31207 0.34839 0.80078 0.0
H666 H 0.96894 0.39305 0.54403 0.0
H667 H 0.95425 0.36519 0.44045 0.0
H668 H 0.92538 0.3398 0.46686 0.0
H669 H 0.96918 0.35907 0.57237 0.0
H670 H 0.96276 0.35798 0.61903 0.0
H671 H 0.97288 0.37975 0.59595 0.0
H672 H 0.94552 0.38501 0.60747 0.0
H673 H 0.9352 0.36431 0.63522 0.0
H674 H 0.92202 0.36664 0.59872 0.0
H675 H 0.9058 0.31324 0.50552 0.0
H676 H 0.90349 0.28851 0.54538 0.0
H677 H 0.93703 0.3295 0.6261 0.0
C678 C 0.95876 0.38225 0.5265 0.0
C679 C 0.96341 0.38125 0.49018 0.0
C680 C 0.95061 0.36647 0.46812 0.0
C681 C 0.93422 0.35188 0.48324 0.0
C682 C 0.9315 0.35172 0.52081 0.0
C683 C 0.94378 0.36659 0.54233 0.0
C684 C 0.94362 0.36045 0.58118 0.0
C685 C 0.96324 0.36455 0.59275 0.0
C686 C 0.93613 0.36965 0.60718 0.0
C687 C 0.93016 0.33975 0.57801 0.0
C688 C 0.92229 0.33522 0.54369 0.0
C689 C 0.91152 0.3167 0.53266 0.0
C690 C 0.91014 0.30264 0.55577 0.0
C691 C 0.92017 0.30723 0.58882 0.0
C692 C 0.92903 0.32578 0.60121 0.0
H693 H 0.64003 0.5977 0.57633 0.0
H694 H 0.62295 0.59215 0.68872 0.0
H695 H 0.65528 0.60402 0.70837 0.0
H696 H 0.68388 0.59173 0.59276 0.0
H697 H 0.69654 0.60932 0.55894 0.0
H698 H 0.67187 0.59356 0.5536 0.0
H699 H 0.66656 0.62171 0.54731 0.0
H700 H 0.691 0.6373 0.55232 0.0
H701 H 0.6749 0.63916 0.58257 0.0
H702 H 0.68844 0.62492 0.71582 0.0
H703 H 0.71854 0.65413 0.70949 0.0
H704 H 0.71572 0.64694 0.59315 0.0
C705 C 0.64312 0.59815 0.60498 0.0
C706 C 0.62919 0.59399 0.63104 0.0
C707 C 0.63356 0.59527 0.66839 0.0
C708 C 0.65187 0.60181 0.67979 0.0
C709 C 0.66568 0.60702 0.65352 0.0
C710 C 0.66151 0.60508 0.61673 0.0
C711 C 0.67901 0.61542 0.59411 0.0
C712 C 0.68306 0.60168 0.57366 0.0
C713 C 0.67778 0.62921 0.56762 0.0
C714 C 0.69324 0.62532 0.62383 0.0
C715 C 0.68551 0.61953 0.65798 0.0
C716 C 0.69493 0.62908 0.6894 0.0
C717 C 0.71206 0.64562 0.68572 0.0
C718 C 0.71935 0.65231 0.65091 0.0
C719 C 0.71048 0.64151 0.62 0.0
H720 H 0.36668 0.08346 0.56904 0.0
H721 H 0.38443 0.07386 0.67288 0.0
H722 H 0.412 0.07551 0.64407 0.0
H723 H 0.36612 0.05084 0.53179 0.0
H724 H 0.37407 0.05945 0.48647 0.0
H725 H 0.36427 0.07009 0.5137 0.0
H726 H 0.3939 0.10224 0.5065 0.0
H727 H 0.40358 0.09151 0.47794 0.0
H728 H 0.41637 0.105 0.5169 0.0
H729 H 0.42948 0.06635 0.60526 0.0
H730 H 0.429 0.04185 0.56764 0.0
H731 H 0.39574 0.04999 0.4874 0.0
C732 C 0.37723 0.08314 0.58587 0.0
C733 C 0.37383 0.07909 0.62319 0.0
C734 C 0.38714 0.07757 0.64445 0.0
C735 C 0.40284 0.07845 0.62806 0.0
C736 C 0.40463 0.08009 0.59023 0.0
C737 C 0.39204 0.08243 0.56928 0.0
C738 C 0.39269 0.0774 0.52985 0.0
C739 C 0.37314 0.06359 0.51471 0.0
C740 C 0.40221 0.09509 0.50642 0.0
C741 C 0.40501 0.06878 0.53321 0.0
C742 C 0.41334 0.07234 0.56717 0.0
C743 C 0.42333 0.06381 0.57847 0.0
C744 C 0.42307 0.04986 0.55664 0.0
C745 C 0.41203 0.0439 0.52487 0.0
C746 C 0.40439 0.05458 0.51144 0.0
H747 H 0.36335 0.3699 0.01097 0.0
H748 H 0.40993 0.39304 0.08538 0.0
H749 H 0.40731 0.36229 0.09148 0.0
H750 H 0.33628 0.3352 0.05557 0.0
H751 H 0.32539 0.31753 0.02108 0.0
H752 H 0.33552 0.34154 0.009 0.0
H753 H 0.35672 0.33839 0.96063 0.0
H754 H 0.3462 0.31397 0.97161 0.0
H755 H 0.37113 0.32878 0.97371 0.0
H756 H 0.39237 0.32901 0.10802 0.0
H757 H 0.36942 0.29671 0.12558 0.0
H758 H 0.33281 0.29465 0.03944 0.0
C759 C 0.37375 0.36864 0.02651 0.0
C760 C 0.38671 0.38366 0.04781 0.0
C761 C 0.39999 0.3817 0.06851 0.0
C762 C 0.39854 0.3642 0.07225 0.0
C763 C 0.38413 0.34904 0.0542 0.0
C764 C 0.37242 0.35124 0.03037 0.0
C765 C 0.35603 0.33261 0.01956 0.0
C766 C 0.33723 0.33169 0.02681 0.0
C767 C 0.35761 0.32816 0.97879 0.0
C768 C 0.35899 0.31991 0.04464 0.0
C769 C 0.37558 0.32945 0.0635 0.0
C770 C 0.37973 0.32121 0.09238 0.0
C771 C 0.36653 0.30292 0.10246 0.0
C772 C 0.34931 0.29322 0.08397 0.0
C773 C 0.3459 0.30167 0.05398 0.0
H774 H 0.62535 0.00387 0.03208 0.0
H775 H 0.6132 0.00972 0.14394 0.0
H776 H 0.64682 0.03041 0.15599 0.0
H777 H 0.66123 0.99761 0.05184 0.0
H778 H 0.67558 0.00907 0.01314 0.0
H779 H 0.65077 0.99968 0.0105 0.0
H780 H 0.6551 0.03129 0.99151 0.0
H781 H 0.68002 0.04129 0.99388 0.0
H782 H 0.66884 0.05133 0.02087 0.0
H783 H 0.68158 0.04663 0.15803 0.0
H784 H 0.71451 0.0546 0.15125 0.0
H785 H 0.70365 0.03567 0.0396 0.0
C786 C 0.62983 0.01024 0.05858 0.0
C787 C 0.61693 0.00576 0.08692 0.0
C788 C 0.62307 0.01341 0.12186 0.0
C789 C 0.64206 0.02521 0.12885 0.0
C790 C 0.65465 0.02895 0.10063 0.0
C791 C 0.64878 0.02163 0.06617 0.0
C792 C 0.66505 0.02498 0.04244 0.0
C793 C 0.66303 0.00649 0.02872 0.0
C794 C 0.66742 0.03804 0.01073 0.0
C795 C 0.68081 0.03447 0.06941 0.0
C796 C 0.67467 0.03724 0.10243 0.0
C797 C 0.68661 0.04479 0.13214 0.0
C798 C 0.70523 0.04925 0.12814 0.0
C799 C 0.7114 0.0456 0.09504 0.0
C800 C 0.69915 0.03853 0.06522 0.0
H801 H 0.9842 0.69158 0.06291 0.0
H802 H 0.92806 0.64489 0.07506 0.0
H803 H 0.93949 0.62303 0.06258 0.0
H804 H -0.00083 0.6714 0.99118 0.0
H805 H 0.02216 0.68105 0.0115 0.0
H806 H 0.00924 0.69307 0.01697 0.0
H807 H 0.0127 0.6927 0.08689 0.0
H808 H 0.02573 0.68084 0.08159 0.0
H809 H 0.00516 0.67081 0.10965 0.0
H810 H 0.95722 0.60633 0.05124 0.0
H811 H 0.98045 0.59592 0.04967 0.0
H812 H 0.02426 0.65359 0.04851 0.0
C813 C 0.97431 0.67677 0.06242 0.0
C814 C 0.95528 0.66986 0.06968 0.0
C815 C 0.94273 0.6504 0.06962 0.0
C816 C 0.94905 0.63791 0.06222 0.0
C817 C 0.96794 0.64517 0.05525 0.0
C818 C 0.98042 0.66413 0.05574 0.0
C819 C -0.0005 0.66828 0.05111 0.0
C820 C 0.00803 0.6791 0.0158 0.0
C821 C 0.01147 0.67876 0.08429 0.0
C822 C 0.99699 0.64867 0.04882 0.0
C823 C 0.97825 0.63554 0.05032 0.0
C824 C 0.97193 0.61647 0.04982 0.0
C825 C 0.98519 0.61069 0.0488 0.0
C826 C 0.0037 0.62399 0.0491 0.0
C827 C 0.0096 0.64316 0.04829 0.0
H828 H 0.64817 0.61581 0.94642 0.0
H829 H 0.58931 0.59704 0.95804 0.0
H830 H 0.59591 0.62938 0.94859 0.0
H831 H 0.66444 0.65868 0.99474 0.0
H832 H 0.68457 0.6713 0.96607 0.0
H833 H 0.67482 0.64664 0.97276 0.0
H834 H 0.6715 0.64167 0.90303 0.0
H835 H 0.68099 0.6663 0.89618 0.0
H836 H 0.65853 0.64996 0.87754 0.0
H837 H 0.60922 0.66391 0.9358 0.0
H838 H 0.62858 0.69824 0.92933 0.0
H839 H 0.67842 0.69362 0.929 0.0
C840 C 0.63666 0.61849 0.947 0.0
C841 C 0.61825 0.60401 0.95273 0.0
C842 C 0.60355 0.60804 0.95381 0.0
C843 C 0.60714 0.6263 0.94817 0.0
C844 C 0.62548 0.64024 0.94193 0.0
C845 C 0.64001 0.63656 0.94196 0.0
C846 C 0.65857 0.65401 0.9364 0.0
C847 C 0.67134 0.65788 0.96947 0.0
C848 C 0.66794 0.65291 0.90119 0.0
C849 C 0.65226 0.66816 0.93331 0.0
C850 C 0.63313 0.65999 0.93596 0.0
C851 C 0.62422 0.67046 0.9338 0.0
C852 C 0.63526 0.68987 0.92988 0.0
C853 C 0.65491 0.69843 0.92882 0.0
C854 C 0.66341 0.68738 0.92991 0.0
H855 H 0.36507 0.02443 0.97621 0.0
H856 H 0.38634 0.99062 0.93293 0.0
H857 H 0.35472 0.96305 0.93563 0.0
H858 H 0.32636 0.98637 0.03586 0.0
H859 H 0.31122 0.99557 0.02598 0.0
H860 H 0.336 0.01061 0.02988 0.0
H861 H 0.33616 0.02369 0.96513 0.0
H862 H 0.31161 0.00805 0.96058 0.0
H863 H 0.32737 0.00798 0.92697 0.0
H864 H 0.32039 0.94191 0.92764 0.0
H865 H 0.2866 0.92798 0.91657 0.0
H866 H 0.28794 0.9758 0.96771 0.0
C867 C 0.36315 0.01091 0.96894 0.0
C868 C 0.37799 0.00927 0.95449 0.0
C869 C 0.37511 0.99203 0.94459 0.0
C870 C 0.3572 0.97633 0.94596 0.0
C871 C 0.34254 0.97861 0.95826 0.0
C872 C 0.34545 0.99563 0.97068 0.0
C873 C 0.32727 0.99505 0.97843 0.0
C874 C 0.32509 0.99715 0.02018 0.0
C875 C 0.32552 0.00944 0.95645 0.0
C876 C 0.31367 0.97559 0.96547 0.0
C877 C 0.32266 0.96615 0.95457 0.0
C878 C 0.31313 0.9489 0.93722 0.0
C879 C 0.29399 0.94117 0.93074 0.0
C880 C 0.28464 0.95077 0.94148 0.0
C881 C 0.29461 0.96796 0.95977 0.0
H882 H 0.05136 0.35531 0.88316 0.0
H883 H 0.0344 0.32545 0.98522 0.0
H884 H 0.02349 0.34652 0.00744 0.0
H885 H 0.06174 0.40349 0.92072 0.0
H886 H 0.05199 0.40746 0.88029 0.0
H887 H 0.06429 0.39466 0.87768 0.0
H888 H 0.03554 0.36698 0.84729 0.0
H889 H 0.02344 0.37976 0.84941 0.0
H890 H 0.01324 0.35693 0.8697 0.0
H891 H 0.00708 0.36388 0.01132 0.0
H892 H 0.98528 0.37383 0.99401 0.0
H893 H 0.01169 0.39331 0.8903 0.0
C894 C 0.04605 0.35377 0.91055 0.0
C895 C 0.04375 0.33888 0.9326 0.0
C896 C 0.03624 0.3368 0.96788 0.0
C897 C 0.0302 0.34883 0.98042 0.0
C898 C 0.03183 0.36292 0.95742 0.0
C899 C 0.03966 0.36551 0.92319 0.0
C900 C 0.03634 0.37895 0.90103 0.0
C901 C 0.05469 0.39723 0.89456 0.0
C902 C 0.02654 0.37011 0.86479 0.0
C903 C 0.0238 0.38196 0.92669 0.0
C904 C 0.0221 0.37331 0.95978 0.0
C905 C 0.00878 0.37129 0.98535 0.0
C906 C 0.99684 0.37709 0.97598 0.0
C907 C 0.9977 0.38483 0.94148 0.0
C908 C 0.01153 0.38824 0.91747 0.0
H909 H 0.0523 0.71187 0.31452 0.0
H910 H 0.08965 0.73837 0.4044 0.0
H911 H 0.08846 0.70896 0.41942 0.0
H912 H 0.02244 0.67888 0.35173 0.0
H913 H 0.01569 0.65978 0.32054 0.0
H914 H 0.02702 0.68305 0.30371 0.0
H915 H 0.05326 0.67913 0.27476 0.0
H916 H 0.04138 0.65527 0.2901 0.0
H917 H 0.06549 0.67051 0.30169 0.0
H918 H 0.07193 0.67675 0.44151 0.0
H919 H 0.04637 0.64583 0.46077 0.0
H920 H 0.01978 0.63907 0.35638 0.0
C921 C 0.06148 0.71167 0.33519 0.0
C922 C 0.07092 0.72709 0.3584 0.0
C923 C 0.08251 0.72668 0.38601 0.0
C924 C 0.08175 0.70988 0.39494 0.0
C925 C 0.06988 0.69394 0.37506 0.0
C926 C 0.06068 0.69489 0.3443 0.0
C927 C 0.04577 0.67564 0.33229 0.0
C928 C 0.02664 0.6743 0.32687 0.0
C929 C 0.05185 0.66979 0.29767 0.0
C930 C 0.04576 0.66432 0.36442 0.0
C931 C 0.0603 0.67481 0.38798 0.0
C932 C 0.061 0.66817 0.42255 0.0
C933 C 0.04634 0.65068 0.4335 0.0
C934 C 0.03106 0.64032 0.41017 0.0
C935 C 0.0313 0.64688 0.37479 0.0
H936 H 0.30197 0.35854 0.49878 0.0
H937 H 0.30943 0.37839 0.38823 0.0
H938 H 0.34127 0.40361 0.4035 0.0
H939 H 0.33752 0.40737 0.54339 0.0
H940 H 0.34494 0.3956 0.57456 0.0
H941 H 0.32092 0.38481 0.56102 0.0
H942 H 0.32121 0.35533 0.53934 0.0
H943 H 0.34474 0.36552 0.55414 0.0
H944 H 0.33892 0.3578 0.50772 0.0
H945 H 0.37381 0.41881 0.42403 0.0
H946 H 0.4019 0.41819 0.44233 0.0
H947 H 0.37442 0.38856 0.54023 0.0
C948 C 0.31009 0.3688 0.47833 0.0
C949 C 0.30347 0.36662 0.44243 0.0
C950 C 0.31428 0.38 0.416 0.0
C951 C 0.33233 0.39443 0.42464 0.0
C952 C 0.33906 0.39546 0.45996 0.0
C953 C 0.328 0.3831 0.48668 0.0
C954 C 0.33933 0.38402 0.51966 0.0
C955 C 0.33545 0.39354 0.55152 0.0
C956 C 0.33587 0.36454 0.53073 0.0
C957 C 0.35877 0.39647 0.50516 0.0
C958 C 0.35835 0.40409 0.47186 0.0
C959 C 0.37432 0.41338 0.45045 0.0
C960 C 0.39039 0.41311 0.46128 0.0
C961 C 0.39005 0.40301 0.49251 0.0
C962 C 0.37486 0.39646 0.51648 0.0
H963 H 0.66393 0.95859 0.31367 0.0
H964 H 0.63804 0.91346 0.39078 0.0
H965 H 0.61147 0.91884 0.39659 0.0
H966 H 0.65934 0.98813 0.35663 0.0
H967 H 0.65379 0.99964 0.32137 0.0
H968 H 0.66603 0.98766 0.3102 0.0
H969 H 0.64081 0.96704 0.26346 0.0
H970 H 0.62861 0.97944 0.2734 0.0
H971 H 0.61667 0.95439 0.27684 0.0
H972 H 0.59522 0.93624 0.41134 0.0
H973 H 0.58821 0.96114 0.42652 0.0
H974 H 0.62414 0.99481 0.33877 0.0
C975 C 0.65192 0.949 0.32952 0.0
C976 C 0.65275 0.93555 0.35142 0.0
C977 C 0.63733 0.92354 0.37313 0.0
C978 C 0.62224 0.92662 0.37676 0.0
C979 C 0.6227 0.94141 0.3577 0.0
C980 C 0.63683 0.95196 0.33323 0.0
C981 C 0.63619 0.9691 0.32132 0.0
C982 C 0.65493 0.98716 0.32784 0.0
C983 C 0.6302 0.96738 0.28139 0.0
C984 C 0.62111 0.96779 0.34619 0.0
C985 C 0.61302 0.95148 0.36614 0.0
C986 C 0.6009 0.9487 0.39487 0.0
C987 C 0.59714 0.963 0.40358 0.0
C988 C 0.60569 0.97993 0.3839 0.0
C989 C 0.61729 0.98198 0.35418 0.0
H990 H 0.32658 0.07698 0.49534 0.0
H991 H 0.31987 0.02169 0.50462 0.0
H992 H 0.33544 0.02585 0.44592 0.0
H993 H 0.31952 0.07481 0.39394 0.0
H994 H 0.33656 0.09911 0.38826 0.0
H995 H 0.32318 0.09121 0.42957 0.0
H996 H 0.35387 0.10584 0.46657 0.0
H997 H 0.36732 0.11339 0.42534 0.0
H998 H 0.37086 0.09889 0.45703 0.0
H999 H 0.35601 0.03746 0.39301 0.0
H1000 H 0.374 0.05271 0.33844 0.0
H1001 H 0.36574 0.09988 0.35741 0.0
C1002 C 0.32771 0.06548 0.48429 0.0
C1003 C 0.32198 0.04898 0.50476 0.0
C1004 C 0.32411 0.03443 0.48962 0.0
C1005 C 0.33306 0.0367 0.45632 0.0
C1006 C 0.33955 0.05348 0.43795 0.0
C1007 C 0.33648 0.06741 0.45053 0.0
C1008 C 0.34523 0.08411 0.42503 0.0
C1009 C 0.33023 0.08751 0.4082 0.0
C1010 C 0.36021 0.10159 0.44468 0.0
C1011 C 0.35394 0.07743 0.3967 0.0
C1012 C 0.35072 0.05985 0.4054 0.0
C1013 C 0.35826 0.05104 0.38531 0.0
C1014 C 0.36867 0.05999 0.35444 0.0
C1015 C 0.37125 0.07751 0.34318 0.0
C1016 C 0.36398 0.08648 0.36507 0.0
H1017 H 0.94104 0.29201 0.46509 0.0
H1018 H 0.9051 0.23245 0.48017 0.0
H1019 H 0.88949 0.23079 0.42168 0.0
H1020 H 0.90616 0.30035 0.43069 0.0
H1021 H 0.9215 0.31819 0.39943 0.0
H1022 H 0.93067 0.31424 0.44065 0.0
H1023 H 0.95435 0.3091 0.40387 0.0
H1024 H 0.94556 0.31344 0.36258 0.0
H1025 H 0.94609 0.29209 0.36786 0.0
H1026 H 0.87792 0.23624 0.36057 0.0
H1027 H 0.87258 0.24784 0.30246 0.0
H1028 H 0.91466 0.30412 0.33208 0.0
C1029 C 0.93017 0.27848 0.45589 0.0
C1030 C 0.9245 0.26228 0.47705 0.0
C1031 C 0.90986 0.245 0.46421 0.0
C1032 C 0.90083 0.24397 0.43117 0.0
C1033 C 0.90643 0.26038 0.41164 0.0
C1034 C 0.92083 0.27728 0.42362 0.0
C1035 C 0.92394 0.29307 0.39867 0.0
C1036 C 0.92034 0.30729 0.41854 0.0
C1037 C 0.94365 0.30247 0.38227 0.0
C1038 C 0.90919 0.28245 0.37031 0.0
C1039 C 0.89921 0.26361 0.37808 0.0
C1040 C 0.88555 0.25099 0.35447 0.0
C1041 C 0.88252 0.25772 0.32162 0.0
C1042 C 0.893 0.27694 0.31279 0.0
C1043 C 0.90609 0.28942 0.33815 0.0
H1044 H 0.72892 0.68906 0.50351 0.0
H1045 H 0.78505 0.69979 0.52265 0.0
H1046 H 0.782 0.67974 0.47012 0.0
H1047 H 0.70991 0.64141 0.48398 0.0
H1048 H 0.69384 0.64056 0.45008 0.0
H1049 H 0.70115 0.65738 0.48625 0.0
H1050 H 0.7127 0.68435 0.43965 0.0
H1051 H 0.70497 0.66759 0.40331 0.0
H1052 H 0.72879 0.68637 0.40462 0.0
H1053 H 0.77201 0.65738 0.41556 0.0
H1054 H 0.75658 0.63603 0.36377 0.0
H1055 H 0.70628 0.63833 0.38487 0.0
C1056 C 0.74084 0.68773 0.49602 0.0
C1057 C 0.75743 0.69642 0.51675 0.0
C1058 C 0.77235 0.6936 0.50677 0.0
C1059 C 0.77067 0.6821 0.47714 0.0
C1060 C 0.75386 0.67324 0.45808 0.0
C1061 C 0.73924 0.67599 0.46717 0.0
C1062 C 0.72223 0.66408 0.44404 0.0
C1063 C 0.70582 0.65003 0.46749 0.0
C1064 C 0.71687 0.67633 0.42157 0.0
C1065 C 0.72958 0.65431 0.42014 0.0
C1066 C 0.74785 0.65977 0.42847 0.0
C1067 C 0.75767 0.65297 0.40902 0.0
C1068 C 0.74874 0.64073 0.37975 0.0
C1069 C 0.7301 0.63523 0.37038 0.0
C1070 C 0.7204 0.6419 0.39155 0.0
H1071 H 0.09368 0.31671 0.14531 0.0
H1072 H 0.14152 0.36801 0.10892 0.0
H1073 H 0.14079 0.35297 0.05033 0.0
H1074 H 0.10134 0.28205 0.09002 0.0
H1075 H 0.07674 0.26841 0.08071 0.0
H1076 H 0.08473 0.28069 0.12322 0.0
H1077 H 0.06586 0.29736 0.11109 0.0
H1078 H 0.05781 0.28513 0.06892 0.0
H1079 H 0.06969 0.31025 0.06949 0.0
H1080 H 0.13157 0.33447 0.99218 0.0
H1081 H 0.1124 0.3177 0.93941 0.0
H1082 H 0.06831 0.27958 0.01201 0.0
C1083 C 0.10461 0.32446 0.1257 0.0
C1084 C 0.11806 0.34332 0.13198 0.0
C1085 C 0.13143 0.35341 0.10491 0.0
C1086 C 0.13113 0.34491 0.07167 0.0
C1087 C 0.11718 0.32643 0.06577 0.0
C1088 C 0.10403 0.31639 0.09205 0.0
C1089 C 0.08809 0.29852 0.07669 0.0
C1090 C 0.08771 0.2814 0.09367 0.0
C1091 C 0.06928 0.2978 0.08183 0.0
C1092 C 0.0937 0.30055 0.0371 0.0
C1093 C 0.11095 0.31628 0.03172 0.0
C1094 C 0.11821 0.32201 0.99619 0.0
C1095 C 0.10716 0.31231 0.96628 0.0
C1096 C 0.08869 0.29732 0.97109 0.0
C1097 C 0.08243 0.29074 0.00741 0.0
H1098 H 0.65638 0.7449 0.21319 0.0
H1099 H 0.60016 0.73002 0.18258 0.0
H1100 H 0.61157 0.74329 0.12119 0.0
H1101 H 0.6826 0.78749 0.15742 0.0
H1102 H 0.70016 0.78159 0.14589 0.0
H1103 H 0.68825 0.77439 0.18888 0.0
H1104 H 0.67838 0.74007 0.17437 0.0
H1105 H 0.69022 0.74713 0.13146 0.0
H1106 H 0.66588 0.72966 0.13298 0.0
H1107 H 0.62905 0.75628 0.06197 0.0
H1108 H 0.64917 0.7633 0.00834 0.0
H1109 H 0.6934 0.76663 0.07664 0.0
C1110 C 0.64656 0.74507 0.19401 0.0
C1111 C 0.62746 0.73702 0.20299 0.0
C1112 C 0.61489 0.73653 0.17651 0.0
C1113 C 0.62129 0.74407 0.14166 0.0
C1114 C 0.64022 0.75165 0.13357 0.0
C1115 C 0.65261 0.75194 0.15898 0.0
C1116 C 0.67158 0.75822 0.14232 0.0
C1117 C 0.68653 0.77651 0.15966 0.0
C1118 C 0.67681 0.74286 0.14546 0.0
C1119 C 0.66797 0.7612 0.10326 0.0
C1120 C 0.64995 0.75781 0.09899 0.0
C1121 C 0.64318 0.75903 0.06513 0.0
C1122 C 0.65482 0.76312 0.03474 0.0
C1123 C 0.67298 0.76556 0.03804 0.0
C1124 C 0.67973 0.76507 0.07307 0.0
H1125 H 0.2155 0.89412 0.17037 0.0
H1126 H 0.23179 0.85444 0.13542 0.0
H1127 H 0.21591 0.85102 0.07672 0.0
H1128 H 0.17098 0.87658 0.11296 0.0
H1129 H 0.17701 0.90031 0.10367 0.0
H1130 H 0.18308 0.8944 0.1467 0.0
H1131 H 0.21759 0.91957 0.13638 0.0
H1132 H 0.21169 0.92546 0.09357 0.0
H1133 H 0.22925 0.91872 0.09572 0.0
H1134 H 0.20454 0.85686 0.01854 0.0
H1135 H 0.20331 0.87402 0.96448 0.0
H1136 H 0.19754 0.9127 0.03612 0.0
C1137 C 0.21478 0.88388 0.15117 0.0
C1138 C 0.22439 0.87411 0.1578 0.0
C1139 C 0.22411 0.86168 0.1312 0.0
C1140 C 0.21506 0.85965 0.09782 0.0
C1141 C 0.20661 0.87034 0.09128 0.0
C1142 C 0.20647 0.8823 0.11733 0.0
C1143 C 0.20058 0.89542 0.1013 0.0
C1144 C 0.18179 0.89143 0.1171 0.0
C1145 C 0.21568 0.91598 0.10706 0.0
C1146 C 0.19867 0.8899 0.06167 0.0
C1147 C 0.20131 0.87482 0.05674 0.0
C1148 C 0.20214 0.86845 0.02218 0.0
C1149 C 0.20137 0.87831 0.99113 0.0
C1150 C 0.20044 0.89484 0.99561 0.0
C1151 C 0.19801 0.90002 0.03173 0.0
H1152 H 0.64466 0.93749 0.64538 0.0
H1153 H 0.62935 0.87953 0.659 0.0
H1154 H 0.64641 0.88125 0.60277 0.0
H1155 H 0.64246 0.93737 0.54585 0.0
H1156 H 0.66229 0.96056 0.54256 0.0
H1157 H 0.64738 0.95396 0.58181 0.0
H1158 H 0.67613 0.96375 0.62304 0.0
H1159 H 0.69106 0.96989 0.58389 0.0
H1160 H 0.69043 0.95328 0.61624 0.0
H1161 H 0.66684 0.88998 0.54654 0.0
H1162 H 0.68627 0.90406 0.49204 0.0
H1163 H 0.68912 0.95663 0.51707 0.0
C1164 C 0.6444 0.92497 0.63607 0.0
C1165 C 0.63544 0.90829 0.65656 0.0
C1166 C 0.63591 0.8924 0.64368 0.0
C1167 C 0.6457 0.89329 0.61188 0.0
C1168 C 0.65504 0.91019 0.59326 0.0
C1169 C 0.65426 0.92567 0.60466 0.0
C1170 C 0.666 0.94234 0.58057 0.0
C1171 C 0.6538 0.94894 0.56157 0.0
C1172 C 0.68184 0.95825 0.60224 0.0
C1173 C 0.67354 0.93385 0.55382 0.0
C1174 C 0.66709 0.9153 0.56159 0.0
C1175 C 0.67195 0.90449 0.54022 0.0
C1176 C 0.68313 0.91267 0.50943 0.0
C1177 C 0.68942 0.93153 0.50027 0.0
C1178 C 0.68484 0.94228 0.52344 0.0
H1179 H 0.04313 0.72623 0.51265 0.0
H1180 H 0.0836 0.78526 0.50592 0.0
H1181 H 0.10034 0.78216 0.55875 0.0
H1182 H 0.04258 0.72179 0.61147 0.0
H1183 H 0.04043 0.69908 0.60898 0.0
H1184 H 0.03096 0.70675 0.57337 0.0
H1185 H 0.05034 0.70034 0.52628 0.0
H1186 H 0.06025 0.69314 0.56185 0.0
H1187 H 0.07528 0.71162 0.53138 0.0
H1188 H 0.11316 0.77192 0.61218 0.0
H1189 H 0.11977 0.75595 0.66197 0.0
H1190 H 0.07204 0.70343 0.6292 0.0
C1191 C 0.05522 0.73867 0.52277 0.0
C1192 C 0.06185 0.75608 0.50531 0.0
C1193 C 0.07807 0.77183 0.51905 0.0
C1194 C 0.08775 0.77016 0.54892 0.0
C1195 C 0.08117 0.75261 0.56457 0.0
C1196 C 0.06518 0.73719 0.55201 0.0
C1197 C 0.06138 0.71972 0.57222 0.0
C1198 C 0.04274 0.71135 0.59273 0.0
C1199 C 0.06185 0.70537 0.54638 0.0
C1200 C 0.07773 0.72764 0.59816 0.0
C1201 C 0.08897 0.74665 0.59362 0.0
C1202 C 0.10449 0.75702 0.61573 0.0
C1203 C 0.10824 0.7478 0.64379 0.0
C1204 C 0.09667 0.72836 0.64924 0.0
C1205 C 0.08148 0.71821 0.62541 0.0
H1206 H 0.2694 0.33885 0.52512 0.0
H1207 H 0.20952 0.30537 0.53594 0.0
H1208 H 0.21096 0.32335 0.59138 0.0
H1209 H 0.28132 0.34365 0.61829 0.0
H1210 H 0.29998 0.36739 0.61379 0.0
H1211 H 0.29353 0.35171 0.5758 0.0
H1212 H 0.28851 0.37499 0.53663 0.0
H1213 H 0.2946 0.39061 0.57476 0.0
H1214 H 0.27259 0.38231 0.55213 0.0
H1215 H 0.22001 0.34502 0.64743 0.0
H1216 H 0.23535 0.3662 0.69929 0.0
H1217 H 0.28909 0.38626 0.64771 0.0
C1218 C 0.25662 0.33516 0.53953 0.0
C1219 C 0.23941 0.32051 0.52713 0.0
C1220 C 0.22286 0.31632 0.54573 0.0
C1221 C 0.22358 0.32659 0.5769 0.0
C1222 C 0.2409 0.34118 0.58827 0.0
C1223 C 0.25708 0.34541 0.56993 0.0
C1224 C 0.27398 0.36161 0.58709 0.0
C1225 C 0.28803 0.35574 0.59948 0.0
C1226 C 0.28296 0.37836 0.56111 0.0
C1227 C 0.26504 0.36557 0.61897 0.0
C1228 C 0.24592 0.35384 0.61911 0.0
C1229 C 0.23493 0.35434 0.64725 0.0
C1230 C 0.24378 0.36653 0.67655 0.0
C1231 C 0.26346 0.37805 0.6776 0.0
C1232 C 0.27403 0.37796 0.64762 0.0
H1233 H 0.89555 0.66695 0.00817 0.0
H1234 H 0.90906 0.72221 0.97283 0.0
H1235 H 0.89616 0.70979 0.91189 0.0
H1236 H 0.91271 0.65786 0.93255 0.0
H1237 H 0.89618 0.63325 0.92994 0.0
H1238 H 0.90097 0.645 0.97285 0.0
H1239 H 0.86586 0.63362 0.98121 0.0
H1240 H 0.86093 0.62178 0.9381 0.0
H1241 H 0.85352 0.6385 0.94661 0.0
H1242 H 0.88648 0.69249 0.85275 0.0
H1243 H 0.8854 0.67387 0.79985 0.0
H1244 H 0.88101 0.63035 0.87163 0.0
C1245 C 0.89484 0.67619 0.98748 0.0
C1246 C 0.90267 0.6954 0.99511 0.0
C1247 C 0.90267 0.70738 0.9678 0.0
C1248 C 0.89533 0.7004 0.93316 0.0
C1249 C 0.88833 0.68146 0.92609 0.0
C1250 C 0.88817 0.66955 0.95253 0.0
C1251 C 0.88347 0.65081 0.93654 0.0
C1252 C 0.89927 0.6465 0.94336 0.0
C1253 C 0.86483 0.63526 0.95151 0.0
C1254 C 0.88184 0.65426 0.89667 0.0
C1255 C 0.884 0.67177 0.89139 0.0
C1256 C 0.88454 0.67868 0.85667 0.0
C1257 C 0.88386 0.66791 0.82667 0.0
C1258 C 0.88316 0.65057 0.8314 0.0
C1259 C 0.88125 0.64336 0.86694 0.0
H1260 H 0.33911 0.23757 0.03461 0.0
H1261 H 0.28384 0.19287 0.00736 0.0
H1262 H 0.29521 0.19021 0.94579 0.0
H1263 H 0.34558 0.25999 0.95376 0.0
H1264 H 0.37029 0.26881 0.95025 0.0
H1265 H 0.35935 0.26371 0.99405 0.0
H1266 H 0.37222 0.24161 0.00866 0.0
H1267 H 0.38324 0.24663 0.96389 0.0
H1268 H 0.3674 0.22284 0.97681 0.0
H1269 H 0.31155 0.19544 0.88574 0.0
H1270 H 0.32941 0.21012 0.83021 0.0
H1271 H 0.37335 0.25359 0.89513 0.0
C1272 C 0.32965 0.2266 0.01651 0.0
C1273 C 0.31074 0.21492 0.0261 0.0
C1274 C 0.29842 0.20149 1.00001 0.0
C1275 C 0.30483 0.19994 0.96551 0.0
C1276 C 0.32346 0.21211 0.95646 0.0
C1277 C 0.33563 0.22527 0.98081 0.0
C1278 C 0.35386 0.23893 0.96263 0.0
C1279 C 0.35746 0.25903 0.96532 0.0
C1280 C 0.37013 0.23738 0.97874 0.0
C1281 C 0.3499 0.23183 0.92389 0.0
C1282 C 0.33252 0.21601 0.92115 0.0
C1283 C 0.32525 0.20768 0.88771 0.0
C1284 C 0.33558 0.21615 0.85621 0.0
C1285 C 0.35287 0.23307 0.85809 0.0
C1286 C 0.36036 0.24054 0.89264 0.0
H1287 H 0.72275 0.07601 0.84523 0.0
H1288 H 0.77516 0.1218 0.80716 0.0
H1289 H 0.79047 0.12026 0.864 0.0
H1290 H 0.72882 0.0848 0.94402 0.0
H1291 H 0.71833 0.06025 0.95356 0.0
H1292 H 0.71122 0.06796 0.91415 0.0
H1293 H 0.7189 0.04705 0.87379 0.0
H1294 H 0.72655 0.03967 0.91281 0.0
H1295 H 0.74204 0.05021 0.87482 0.0
H1296 H 0.80006 0.11202 0.92562 0.0
H1297 H 0.80302 0.09681 0.98166 0.0
H1298 H 0.74517 0.05382 0.97149 0.0
C1299 C 0.73725 0.08634 0.84954 0.0
C1300 C 0.74762 0.09953 0.82243 0.0
C1301 C 0.76685 0.112 0.82815 0.0
C1302 C 0.77566 0.11111 0.86024 0.0
C1303 C 0.76512 0.09736 0.88582 0.0
C1304 C 0.74631 0.08514 0.8805 0.0
C1305 C 0.73847 0.06994 0.90889 0.0
C1306 C 0.72332 0.0708 0.9315 0.0
C1307 C 0.73106 0.05059 0.89153 0.0
C1308 C 0.75574 0.07542 0.93117 0.0
C1309 C 0.77096 0.09147 0.91817 0.0
C1310 C 0.78825 0.09934 0.93568 0.0
C1311 C 0.78988 0.09061 0.96727 0.0
C1312 C 0.7745 0.07388 0.98 0.0
C1313 C 0.75732 0.06629 0.96158 0.0
H1314 H 0.00659 0.38238 0.63576 0.0
H1315 H 0.01421 0.43699 0.61089 0.0
H1316 H -0.00019 0.43704 0.66934 0.0
H1317 H 0.96318 0.36256 0.68003 0.0
H1318 H 0.9694 0.3508 0.71328 0.0
H1319 H 0.98053 0.35603 0.66959 0.0
H1320 H 0.01167 0.3731 0.70454 0.0
H1321 H -0.00045 0.36846 0.74725 0.0
H1322 H 0.01617 0.39207 0.73463 0.0
H1323 H 0.98246 0.42989 0.72799 0.0
H1324 H 0.96521 0.41735 0.78554 0.0
H1325 H 0.96967 0.36769 0.77229 0.0
C1326 C 0.00565 0.39455 0.64295 0.0
C1327 C 0.01162 0.4097 0.61857 0.0
C1328 C 0.00994 0.42527 0.62906 0.0
C1329 C 0.00163 0.42539 0.66216 0.0
C1330 C 0.99598 0.40994 0.68486 0.0
C1331 C 0.99822 0.39495 0.67607 0.0
C1332 C 0.99027 0.3802 0.70558 0.0
C1333 C 0.97496 0.36129 0.69111 0.0
C1334 C 0.00516 0.37835 0.7241 0.0
C1335 C 0.98222 0.38872 0.73099 0.0
C1336 C 0.98585 0.40598 0.71887 0.0
C1337 C 0.97962 0.41641 0.73781 0.0
C1338 C 0.96969 0.40912 0.77028 0.0
C1339 C 0.96583 0.39143 0.78315 0.0
C1340 C 0.97208 0.38111 0.7629 0.0
H1341 H 0.60184 0.53527 0.82266 0.0
H1342 H 0.55294 0.52216 0.88702 0.0
H1343 H 0.53716 0.52446 0.83244 0.0
H1344 H 0.60212 0.56884 0.77083 0.0
H1345 H 0.60899 0.56292 0.72875 0.0
H1346 H 0.61514 0.55675 0.77113 0.0
H1347 H 0.59888 0.52213 0.75102 0.0
H1348 H 0.59278 0.52836 0.70838 0.0
H1349 H 0.5749 0.51067 0.73653 0.0
H1350 H 0.52989 0.53598 0.77491 0.0
H1351 H 0.53006 0.55088 0.71634 0.0
H1352 H 0.58186 0.55335 0.68738 0.0
C1353 C 0.58752 0.53204 0.82503 0.0
C1354 C 0.57874 0.52857 0.85936 0.0
C1355 C 0.56006 0.5248 0.86118 0.0
C1356 C 0.55093 0.52612 0.83023 0.0
C1357 C 0.56039 0.53072 0.79725 0.0
C1358 C 0.57807 0.53303 0.79418 0.0
C1359 C 0.5857 0.53924 0.75617 0.0
C1360 C 0.60406 0.55805 0.7568 0.0
C1361 C 0.58821 0.5242 0.73688 0.0
C1362 C 0.57005 0.54109 0.73911 0.0
C1363 C 0.55553 0.53609 0.76318 0.0
C1364 C 0.5408 0.53921 0.75527 0.0
C1365 C 0.54098 0.5477 0.72205 0.0
C1366 C 0.55558 0.55259 0.6969 0.0
C1367 C 0.57007 0.54892 0.70543 0.0
H1368 H 0.40458 0.04777 0.78608 0.0
H1369 H 0.44673 0.03413 0.81822 0.0
H1370 H 0.44046 0.01523 0.76263 0.0
H1371 H 0.37231 0.00366 0.75266 0.0
H1372 H 0.36459 0.01202 0.7151 0.0
H1373 H 0.37349 0.02595 0.75551 0.0
H1374 H 0.39823 0.05372 0.71764 0.0
H1375 H 0.38904 0.04003 0.67705 0.0
H1376 H 0.41341 0.05018 0.68779 0.0
H1377 H 0.42824 0.99681 0.7046 0.0
H1378 H 0.41334 0.98216 0.64627 0.0
H1379 H 0.37848 0.00688 0.65409 0.0
C1380 C 0.41286 0.04123 0.78108 0.0
C1381 C 0.42624 0.04257 0.80659 0.0
C1382 C 0.43649 0.03345 0.79909 0.0
C1383 C 0.43294 0.02256 0.76765 0.0
C1384 C 0.4191 0.02091 0.74392 0.0
C1385 C 0.40942 0.03023 0.75001 0.0
C1386 C 0.39491 0.0258 0.72084 0.0
C1387 C 0.37516 0.01629 0.73701 0.0
C1388 C 0.39916 0.04348 0.69958 0.0
C1389 C 0.39781 0.0124 0.69755 0.0
C1390 C 0.41183 0.00976 0.71121 0.0
C1391 C 0.41723 0.99878 0.69369 0.0
C1392 C 0.40857 0.99038 0.66071 0.0
C1393 C 0.39456 0.99339 0.64563 0.0
C1394 C 0.38888 0.00396 0.665 0.0
H1395 H 0.53743 0.95514 0.2029 0.0
H1396 H 0.54262 0.99946 0.13257 0.0
H1397 H 0.54699 0.01854 0.18594 0.0
H1398 H 0.51445 0.96646 0.28269 0.0
H1399 H 0.52702 0.96047 0.31477 0.0
H1400 H 0.51967 0.94833 0.272 0.0
H1401 H 0.55372 0.95695 0.25853 0.0
H1402 H 0.5612 0.96924 0.30081 0.0
H1403 H 0.57178 0.98112 0.25899 0.0
H1404 H 0.56 0.03616 0.24397 0.0
H1405 H 0.57583 0.04841 0.30298 0.0
H1406 H 0.55908 0.9927 0.33723 0.0
C1407 C 0.53853 0.96859 0.19878 0.0
C1408 C 0.53974 0.9757 0.16335 0.0
C1409 C 0.54157 0.99357 0.15927 0.0
C1410 C 0.54411 0.00438 0.18956 0.0
C1411 C 0.54421 0.99796 0.22397 0.0
C1412 C 0.54083 0.97997 0.22884 0.0
C1413 C 0.54362 0.97656 0.26816 0.0
C1414 C 0.52508 0.9621 0.28543 0.0
C1415 C 0.55846 0.97064 0.2718 0.0
C1416 C 0.55036 0.99578 0.28403 0.0
C1417 C 0.55052 0.00746 0.25823 0.0
C1418 C 0.55918 0.02662 0.2649 0.0
C1419 C 0.56816 0.0335 0.29844 0.0
C1420 C 0.5681 0.02121 0.32509 0.0
C1421 C 0.55857 0.00184 0.31803 0.0
H1422 H 0.01313 0.5937 0.34338 0.0
H1423 H 0.95965 0.54617 0.31993 0.0
H1424 H 0.97092 0.54355 0.25884 0.0
H1425 H 0.01853 0.6143 0.25834 0.0
H1426 H 0.0434 0.62393 0.25611 0.0
H1427 H 0.03206 0.61987 0.29946 0.0
H1428 H 0.0462 0.59954 0.31878 0.0
H1429 H 0.05753 0.60342 0.27531 0.0
H1430 H 0.04231 0.57998 0.29105 0.0
H1431 H 0.98799 0.54718 0.19958 0.0
H1432 H 0.00608 0.55923 0.14411 0.0
H1433 H 0.04822 0.6066 0.20456 0.0
C1434 C 0.00381 0.58239 0.32571 0.0
C1435 C 0.98607 0.56973 0.33658 0.0
C1436 C 0.97395 0.55571 0.31225 0.0
C1437 C 0.98028 0.55413 0.27765 0.0
C1438 C 0.99862 0.56695 0.26768 0.0
C1439 C 0.00973 0.58101 0.29088 0.0
C1440 C 0.02787 0.59451 0.2722 0.0
C1441 C 0.03061 0.61431 0.27147 0.0
C1442 C 0.04446 0.59434 0.29042 0.0
C1443 C 0.02436 0.58605 0.23453 0.0
C1444 C 0.0072 0.56988 0.23281 0.0
C1445 C 0.0007 0.5598 0.20069 0.0
C1446 C 0.01161 0.56677 0.16926 0.0
C1447 C 0.02873 0.58394 0.16971 0.0
C1448 C 0.03534 0.59338 0.20319 0.0
H1449 H 0.40286 0.42647 0.2106 0.0
H1450 H 0.34477 0.38316 0.20093 0.0
H1451 H 0.34826 0.36703 0.2534 0.0
H1452 H 0.42111 0.39774 0.23728 0.0
H1453 H 0.43713 0.41341 0.27079 0.0
H1454 H 0.43052 0.42252 0.23279 0.0
H1455 H 0.4193 0.43943 0.27633 0.0
H1456 H 0.42634 0.43077 0.31442 0.0
H1457 H 0.40276 0.42633 0.31153 0.0
H1458 H 0.35824 0.35361 0.30175 0.0
H1459 H 0.37204 0.34713 0.35462 0.0
H1460 H 0.42323 0.39987 0.33894 0.0
C1461 C 0.39077 0.41383 0.22005 0.0
C1462 C 0.37356 0.40607 0.20116 0.0
C1463 C 0.35813 0.38945 0.21454 0.0
C1464 C 0.35999 0.38003 0.24427 0.0
C1465 C 0.37727 0.38752 0.26106 0.0
C1466 C 0.39226 0.40432 0.25043 0.0
C1467 C 0.40902 0.40941 0.27467 0.0
C1468 C 0.42541 0.41085 0.25255 0.0
C1469 C 0.41469 0.42756 0.29548 0.0
C1470 C 0.40107 0.39269 0.3001 0.0
C1471 C 0.38282 0.38014 0.29103 0.0
C1472 C 0.37242 0.36344 0.30956 0.0
C1473 C 0.38049 0.35985 0.3395 0.0
C1474 C 0.39871 0.37301 0.35129 0.0
C1475 C 0.40935 0.38944 0.33054 0.0
H1476 H 0.35899 0.20649 0.13844 0.0
H1477 H 0.32962 0.21382 0.22875 0.0
H1478 H 0.33433 0.19144 0.26493 0.0
H1479 H 0.33983 0.1584 0.14813 0.0
H1480 H 0.36075 0.15811 0.13606 0.0
H1481 H 0.3568 0.17611 0.11862 0.0
H1482 H 0.38837 0.20139 0.14528 0.0
H1483 H 0.39249 0.18345 0.16262 0.0
H1484 H 0.39309 0.20083 0.19287 0.0
H1485 H 0.34 0.16627 0.28941 0.0
H1486 H 0.34682 0.1409 0.30071 0.0
H1487 H 0.37241 0.15013 0.19424 0.0
C1488 C 0.35385 0.20369 0.16607 0.0
C1489 C 0.34399 0.21198 0.18078 0.0
C1490 C 0.33728 0.20771 0.21691 0.0
C1491 C 0.33989 0.19501 0.23769 0.0
C1492 C 0.34931 0.18676 0.22204 0.0
C1493 C 0.3563 0.19104 0.18714 0.0
C1494 C 0.36502 0.17952 0.17593 0.0
C1495 C 0.355 0.16731 0.14273 0.0
C1496 C 0.38599 0.19205 0.16876 0.0
C1497 C 0.36151 0.16784 0.20971 0.0
C1498 C 0.35254 0.17229 0.2361 0.0
C1499 C 0.3472 0.16281 0.26909 0.0
C1500 C 0.35109 0.14838 0.27521 0.0
C1501 C 0.3602 0.14354 0.24844 0.0
C1502 C 0.36556 0.15355 0.2154 0.0
H1503 H 0.79808 0.1426 0.09695 0.0
H1504 H 0.81073 0.11055 0.17334 0.0
H1505 H 0.83408 0.13966 0.20283 0.0
H1506 H 0.8447 0.1801 0.08617 0.0
H1507 H 0.83831 0.19791 0.08361 0.0
H1508 H 0.82214 0.17453 0.06896 0.0
H1509 H 0.79726 0.17325 0.11331 0.0
H1510 H 0.81334 0.19666 0.12801 0.0
H1511 H 0.80286 0.17807 0.16079 0.0
H1512 H 0.85663 0.17207 0.22295 0.0
H1513 H 0.87642 0.20581 0.23357 0.0
H1514 H 0.84907 0.21697 0.14451 0.0
C1515 C 0.80567 0.14168 0.12001 0.0
C1516 C 0.80255 0.12427 0.13281 0.0
C1517 C 0.81284 0.1237 0.16302 0.0
C1518 C 0.82615 0.14017 0.17997 0.0
C1519 C 0.82899 0.15708 0.16648 0.0
C1520 C 0.819 0.15799 0.13731 0.0
C1521 C 0.82491 0.178 0.12801 0.0
C1522 C 0.833 0.18292 0.0894 0.0
C1523 C 0.80862 0.18171 0.13283 0.0
C1524 C 0.83986 0.18819 0.15639 0.0
C1525 C 0.84197 0.17584 0.17826 0.0
C1526 C 0.85506 0.18189 0.2061 0.0
C1527 C 0.86627 0.2011 0.21185 0.0
C1528 C 0.8643 0.21405 0.18991 0.0
C1529 C 0.85089 0.20743 0.16181 0.0
H1530 H 0.78446 0.64811 0.21174 0.0
H1531 H 0.77928 0.59555 0.24569 0.0
H1532 H 0.81148 0.60646 0.22451 0.0
H1533 H 0.81054 0.65398 0.13115 0.0
H1534 H 0.8247 0.67888 0.13636 0.0
H1535 H 0.80143 0.66683 0.15452 0.0
H1536 H 0.81429 0.68064 0.21816 0.0
H1537 H 0.83762 0.69269 0.20023 0.0
H1538 H 0.83214 0.67717 0.23833 0.0
H1539 H 0.84433 0.62334 0.19848 0.0
H1540 H 0.87473 0.6445 0.16983 0.0
H1541 H 0.85771 0.68577 0.15428 0.0
C1542 C 0.79001 0.63881 0.21475 0.0
C1543 C 0.77933 0.62094 0.23031 0.0
C1544 C 0.78722 0.6093 0.23383 0.0
C1545 C 0.80548 0.61538 0.22191 0.0
C1546 C 0.81562 0.63314 0.20675 0.0
C1547 C 0.80813 0.64466 0.20323 0.0
C1548 C 0.82175 0.66307 0.18601 0.0
C1549 C 0.81415 0.66584 0.14987 0.0
C1550 C 0.82675 0.67935 0.21226 0.0
C1551 C 0.8381 0.66012 0.18003 0.0
C1552 C 0.83437 0.64281 0.1922 0.0
C1553 C 0.8474 0.63694 0.18898 0.0
C1554 C 0.86462 0.64905 0.17269 0.0
C1555 C 0.86861 0.6668 0.15987 0.0
C1556 C 0.85515 0.67234 0.16389 0.0
H1557 H 0.12388 0.31316 0.28599 0.0
H1558 H 0.12515 0.34935 0.37258 0.0
H1559 H 0.15254 0.34953 0.39904 0.0
H1560 H 0.13885 0.286 0.34312 0.0
H1561 H 0.15232 0.28404 0.30678 0.0
H1562 H 0.13178 0.28541 0.29665 0.0
H1563 H 0.15143 0.31372 0.25481 0.0
H1564 H 0.17209 0.31269 0.26534 0.0
H1565 H 0.17162 0.33393 0.27301 0.0
H1566 H 0.18208 0.34927 0.41132 0.0
H1567 H 0.20915 0.34452 0.41445 0.0
H1568 H 0.18789 0.30712 0.32202 0.0
C1569 C 0.12964 0.32076 0.31101 0.0
C1570 C 0.12238 0.33127 0.32716 0.0
C1571 C 0.13038 0.3411 0.35979 0.0
C1572 C 0.14602 0.34138 0.37494 0.0
C1573 C 0.15329 0.3315 0.3575 0.0
C1574 C 0.14511 0.32099 0.32677 0.0
C1575 C 0.15592 0.31193 0.31298 0.0
C1576 C 0.14401 0.29058 0.31502 0.0
C1577 C 0.16319 0.31847 0.27425 0.0
C1578 C 0.17172 0.31941 0.34019 0.0
C1579 C 0.16999 0.33077 0.36548 0.0
C1580 C 0.18343 0.34015 0.39207 0.0
C1581 C 0.19884 0.3375 0.3934 0.0
C1582 C 0.20057 0.32541 0.36855 0.0
C1583 C 0.18684 0.31632 0.34154 0.0
H1584 H 0.66148 0.85246 0.40191 0.0
H1585 H 0.71368 0.88692 0.34536 0.0
H1586 H 0.71502 0.85881 0.32869 0.0
H1587 H 0.6728 0.8178 0.43622 0.0
H1588 H 0.64949 0.79864 0.42942 0.0
H1589 H 0.65323 0.82157 0.43923 0.0
H1590 H 0.63532 0.82047 0.38078 0.0
H1591 H 0.63147 0.79754 0.3709 0.0
H1592 H 0.64264 0.81589 0.33779 0.0
H1593 H 0.7099 0.82707 0.31511 0.0
H1594 H 0.6981 0.79367 0.30381 0.0
H1595 H 0.64927 0.77968 0.36925 0.0
C1596 C 0.6733 0.85412 0.38635 0.0
C1597 C 0.6875 0.87192 0.37502 0.0
C1598 C 0.70263 0.87345 0.35437 0.0
C1599 C 0.70357 0.85757 0.34488 0.0
C1600 C 0.6893 0.84024 0.35632 0.0
C1601 C 0.67444 0.8384 0.37656 0.0
C1602 C 0.66046 0.81808 0.38374 0.0
C1603 C 0.65891 0.81377 0.42458 0.0
C1604 C 0.64135 0.81268 0.36731 0.0
C1605 C 0.66962 0.80879 0.36376 0.0
C1606 C 0.68633 0.82185 0.34844 0.0
C1607 C 0.69692 0.8167 0.32724 0.0
C1608 C 0.69009 0.79769 0.32097 0.0
C1609 C 0.67281 0.78405 0.33577 0.0
C1610 C 0.66264 0.78974 0.35797 0.0
H1611 H 0.13677 0.81796 0.40054 0.0
H1612 H 0.09666 0.83092 0.35315 0.0
H1613 H 0.1224 0.85987 0.32736 0.0
H1614 H 0.17369 0.86694 0.42007 0.0
H1615 H 0.192 0.86221 0.40805 0.0
H1616 H 0.17059 0.84405 0.42738 0.0
H1617 H 0.16623 0.82286 0.37213 0.0
H1618 H 0.18755 0.84091 0.3527 0.0
H1619 H 0.16622 0.83126 0.327 0.0
H1620 H 0.1521 0.88511 0.30029 0.0
H1621 H 0.18338 0.90438 0.2736 0.0
H1622 H 0.20405 0.87506 0.33913 0.0
C1623 C 0.13339 0.82711 0.38551 0.0
C1624 C 0.1147 0.82221 0.37898 0.0
C1625 C 0.11088 0.83441 0.35861 0.0
C1626 C 0.12541 0.85093 0.34397 0.0
C1627 C 0.14368 0.85513 0.35018 0.0
C1628 C 0.14771 0.84361 0.37066 0.0
C1629 C 0.16838 0.85035 0.37051 0.0
C1630 C 0.17665 0.85624 0.40878 0.0
C1631 C 0.17231 0.83547 0.35463 0.0
C1632 C 0.17525 0.86703 0.34562 0.0
C1633 C 0.16085 0.86974 0.3346 0.0
C1634 C 0.16356 0.88335 0.30924 0.0
C1635 C 0.18137 0.89422 0.29418 0.0
C1636 C 0.19619 0.89131 0.30441 0.0
C1637 C 0.19311 0.87785 0.33115 0.0
H1638 H 0.64193 0.85331 0.86741 0.0
H1639 H 0.61866 0.83803 0.75896 0.0
H1640 H 0.62106 0.80953 0.76211 0.0
H1641 H 0.67519 0.83934 0.85742 0.0
H1642 H 0.67297 0.83068 0.90308 0.0
H1643 H 0.66791 0.84897 0.89349 0.0
H1644 H 0.63495 0.82912 0.92126 0.0
H1645 H 0.63995 0.81077 0.93108 0.0
H1646 H 0.61978 0.80589 0.90441 0.0
H1647 H 0.6282 0.78378 0.77554 0.0
H1648 H 0.6391 0.76284 0.79871 0.0
H1649 H 0.65738 0.79521 0.89818 0.0
C1650 C 0.63707 0.84385 0.84451 0.0
C1651 C 0.63008 0.8479 0.81298 0.0
C1652 C 0.62403 0.83521 0.78348 0.0
C1653 C 0.62532 0.81897 0.785 0.0
C1654 C 0.63258 0.81556 0.81627 0.0
C1655 C 0.63824 0.82761 0.84557 0.0
C1656 C 0.64634 0.82125 0.87533 0.0
C1657 C 0.66681 0.83593 0.88274 0.0
C1658 C 0.63454 0.81647 0.91007 0.0
C1659 C 0.64468 0.80395 0.85794 0.0
C1660 C 0.63661 0.80079 0.82398 0.0
C1661 C 0.63436 0.78601 0.80227 0.0
C1662 C 0.64062 0.77421 0.81562 0.0
C1663 C 0.64905 0.77733 0.85028 0.0
C1664 C 0.65089 0.79233 0.87166 0.0
H1665 H 0.1461 0.80107 0.76309 0.0
H1666 H 0.16288 0.76461 0.81442 0.0
H1667 H 0.19058 0.79204 0.83979 0.0
H1668 H 0.19347 0.8396 0.74213 0.0
H1669 H 0.18737 0.85717 0.75218 0.0
H1670 H 0.16999 0.83481 0.73475 0.0
H1671 H 0.14881 0.83038 0.79003 0.0
H1672 H 0.16607 0.85269 0.80752 0.0
H1673 H 0.15786 0.83213 0.83525 0.0
H1674 H 0.21471 0.8231 0.86434 0.0
H1675 H 0.23301 0.85536 0.88717 0.0
H1676 H 0.20067 0.87153 0.81929 0.0
C1677 C 0.15576 0.79885 0.77914 0.0
C1678 C 0.15234 0.78068 0.78667 0.0
C1679 C 0.16521 0.77839 0.80821 0.0
C1680 C 0.18104 0.79389 0.82263 0.0
C1681 C 0.18386 0.81159 0.81508 0.0
C1682 C 0.1716 0.81415 0.79375 0.0
C1683 C 0.17709 0.83452 0.79189 0.0
C1684 C 0.18229 0.84196 0.75291 0.0
C1685 C 0.16154 0.8376 0.80709 0.0
C1686 C 0.19402 0.84295 0.81637 0.0
C1687 C 0.19783 0.82953 0.82914 0.0
C1688 C 0.21203 0.83378 0.85411 0.0
C1689 C 0.22235 0.85214 0.86694 0.0
C1690 C 0.21837 0.866 0.85487 0.0
C1691 C 0.20428 0.86135 0.82862 0.0
H1692 H 0.12218 0.33353 0.81328 0.0
H1693 H 0.13523 0.36872 0.90865 0.0
H1694 H 0.16845 0.37848 0.90174 0.0
H1695 H 0.15258 0.31707 0.83203 0.0
H1696 H 0.15952 0.317 0.7857 0.0
H1697 H 0.13699 0.31423 0.79533 0.0
H1698 H 0.14433 0.34249 0.75432 0.0
H1699 H 0.16677 0.34515 0.74397 0.0
H1700 H 0.16521 0.3645 0.76226 0.0
H1701 H 0.19961 0.3821 0.88811 0.0
H1702 H 0.22731 0.3816 0.86533 0.0
H1703 H 0.19404 0.34402 0.77881 0.0
C1704 C 0.13207 0.34366 0.83217 0.0
C1705 C 0.1261 0.35041 0.86144 0.0
C1706 C 0.13947 0.36342 0.88591 0.0
C1707 C 0.15837 0.36901 0.8823 0.0
C1708 C 0.16368 0.36154 0.85397 0.0
C1709 C 0.15099 0.34936 0.829 0.0
C1710 C 0.16024 0.34278 0.80199 0.0
C1711 C 0.15183 0.32151 0.8039 0.0
C1712 C 0.15907 0.34912 0.76335 0.0
C1713 C 0.18004 0.35291 0.81609 0.0
C1714 C 0.18172 0.36366 0.84605 0.0
C1715 C 0.19853 0.3739 0.86442 0.0
C1716 C 0.21416 0.37343 0.85137 0.0
C1717 C 0.21287 0.36279 0.82023 0.0
C1718 C 0.1955 0.3523 0.80263 0.0
H1719 H 0.87408 0.66774 0.65904 0.0
H1720 H 0.90646 0.71799 0.72261 0.0
H1721 H 0.88428 0.72852 0.70676 0.0
H1722 H 0.85896 0.6891 0.58724 0.0
H1723 H 0.83619 0.66864 0.58429 0.0
H1724 H 0.85607 0.66641 0.59621 0.0
H1725 H 0.83921 0.64882 0.65486 0.0
H1726 H 0.8194 0.65116 0.64341 0.0
H1727 H 0.83092 0.65967 0.68643 0.0
H1728 H 0.8567 0.73175 0.69033 0.0
H1729 H 0.82631 0.72801 0.67253 0.0
H1730 H 0.81184 0.6756 0.61986 0.0
C1731 C 0.87684 0.68122 0.66874 0.0
C1732 C 0.89208 0.6921 0.6919 0.0
C1733 C 0.89493 0.70946 0.70469 0.0
C1734 C 0.88241 0.71557 0.69581 0.0
C1735 C 0.86717 0.70421 0.67397 0.0
C1736 C 0.86443 0.68749 0.66028 0.0
C1737 C 0.84616 0.6772 0.63985 0.0
C1738 C 0.84956 0.67523 0.5995 0.0
C1739 C 0.83316 0.65809 0.65719 0.0
C1740 C 0.8388 0.69048 0.64513 0.0
C1741 C 0.8512 0.70605 0.66458 0.0
C1742 C 0.847 0.71975 0.6746 0.0
C1743 C 0.82966 0.71746 0.6645 0.0
C1744 C 0.8167 0.70155 0.64469 0.0
C1745 C 0.82149 0.68801 0.63468 0.0
H1746 H 0.35645 0.19824 0.6704 0.0
H1747 H 0.30428 0.19447 0.70227 0.0
H1748 H 0.28716 0.16192 0.68006 0.0
H1749 H 0.33857 0.16883 0.58835 0.0
H1750 H 0.35307 0.15865 0.59584 0.0
H1751 H 0.3608 0.18215 0.61056 0.0
H1752 H 0.36515 0.17336 0.67589 0.0
H1753 H 0.35736 0.14986 0.66147 0.0
H1754 H 0.34578 0.15413 0.6985 0.0
H1755 H 0.27617 0.12863 0.65994 0.0
H1756 H 0.27235 0.09803 0.64278 0.0
H1757 H 0.33189 0.12432 0.62382 0.0
C1758 C 0.34139 0.19071 0.67218 0.0
C1759 C 0.3317 0.1989 0.68806 0.0
C1760 C 0.312 0.18851 0.69001 0.0
C1761 C 0.30216 0.17001 0.67747 0.0
C1762 C 0.31222 0.16223 0.6627 0.0
C1763 C 0.3314 0.17235 0.65969 0.0
C1764 C 0.33911 0.16059 0.64472 0.0
C1765 C 0.34844 0.168 0.60766 0.0
C1766 C 0.35264 0.15942 0.67177 0.0
C1767 C 0.32135 0.14206 0.64087 0.0
C1768 C 0.30593 0.14326 0.65098 0.0
C1769 C 0.28813 0.1276 0.65149 0.0
C1770 C 0.2861 0.11027 0.64175 0.0
C1771 C 0.3018 0.10875 0.63184 0.0
C1772 C 0.31956 0.12497 0.63095 0.0
H1773 H 0.86738 0.21406 0.63747 0.0
H1774 H 0.89033 0.18168 0.59097 0.0
H1775 H 0.86129 0.15265 0.60594 0.0
H1776 H 0.84332 0.18301 0.71182 0.0
H1777 H 0.82364 0.18663 0.70961 0.0
H1778 H 0.84629 0.20482 0.69538 0.0
H1779 H 0.83276 0.20594 0.63263 0.0
H1780 H 0.81008 0.1877 0.64663 0.0
H1781 H 0.82062 0.18491 0.60611 0.0
H1782 H 0.82959 0.12712 0.62559 0.0
H1783 H 0.79779 0.107 0.64942 0.0
H1784 H 0.79571 0.15618 0.68289 0.0
C1785 C 0.86635 0.20087 0.6305 0.0
C1786 C 0.88115 0.20016 0.61304 0.0
C1787 C 0.87919 0.1826 0.60437 0.0
C1788 C 0.86274 0.16602 0.61273 0.0
C1789 C 0.84839 0.16724 0.62977 0.0
C1790 C 0.85005 0.18421 0.63864 0.0
C1791 C 0.83257 0.18169 0.65684 0.0
C1792 C 0.83671 0.1895 0.69572 0.0
C1793 C 0.82347 0.19059 0.63419 0.0
C1794 C 0.82081 0.16065 0.6568 0.0
C1795 C 0.83017 0.15256 0.64105 0.0
C1796 C 0.82212 0.13329 0.63799 0.0
C1797 C 0.80405 0.12198 0.65158 0.0
C1798 C 0.79424 0.13 0.66801 0.0
C1799 C 0.8028 0.1496 0.67046 0.0
H1800 H 0.99902 0.4732 0.53108 0.0
H1801 H 0.04762 0.48293 0.47178 0.0
H1802 H 0.05481 0.51503 0.4583 0.0
H1803 H 0.98559 0.49702 0.47067 0.0
H1804 H 0.97726 0.50646 0.50521 0.0
H1805 H 0.97703 0.48494 0.51319 0.0
H1806 H 0.99659 0.49884 0.5716 0.0
H1807 H 0.99693 0.52047 0.56371 0.0
H1808 H 0.01776 0.52038 0.56903 0.0
H1809 H 0.05541 0.54519 0.44755 0.0
H1810 H 0.04877 0.57079 0.43839 0.0
H1811 H -0.00097 0.54139 0.50468 0.0
C1812 C 0.01075 0.48215 0.5157 0.0
C1813 C 0.02242 0.47557 0.50259 0.0
C1814 C 0.03847 0.48767 0.48215 0.0
C1815 C 0.04272 0.50595 0.47448 0.0
C1816 C 0.03083 0.51195 0.48754 0.0
C1817 C 0.01517 0.50042 0.50771 0.0
C1818 C 0.00402 0.50985 0.5165 0.0
C1819 C 0.985 0.49892 0.50042 0.0
C1820 C 0.00343 0.51254 0.55766 0.0
C1821 C 0.01562 0.52832 0.49739 0.0
C1822 C 0.03114 0.52934 0.48122 0.0
C1823 C 0.04342 0.54464 0.46041 0.0
C1824 C 0.03951 0.55912 0.45536 0.0
C1825 C 0.02342 0.55814 0.47092 0.0
C1826 C 0.01157 0.54268 0.4928 0.0
H1827 H 0.54128 0.51457 0.56056 0.0
H1828 H 0.55675 0.53449 0.45002 0.0
H1829 H 0.53512 0.50271 0.42719 0.0
H1830 H 0.53513 0.46796 0.54672 0.0
H1831 H 0.51544 0.45725 0.57699 0.0
H1832 H 0.53356 0.48101 0.58435 0.0
H1833 H 0.50901 0.49165 0.58287 0.0
H1834 H 0.49085 0.46798 0.57549 0.0
H1835 H 0.49387 0.48595 0.54407 0.0
H1836 H 0.50991 0.46903 0.4167 0.0
H1837 H 0.48288 0.43705 0.41934 0.0
H1838 H 0.48401 0.4399 0.537 0.0
C1839 C 0.54042 0.51226 0.53153 0.0
C1840 C 0.55081 0.52705 0.50707 0.0
C1841 C 0.549 0.52338 0.46929 0.0
C1842 C 0.53678 0.50536 0.45609 0.0
C1843 C 0.52653 0.49118 0.48104 0.0
C1844 C 0.52828 0.49448 0.51797 0.0
C1845 C 0.51485 0.47731 0.53916 0.0
C1846 C 0.52538 0.47048 0.56322 0.0
C1847 C 0.50135 0.48095 0.5617 0.0
C1848 C 0.5049 0.46389 0.50838 0.0
C1849 C 0.51197 0.47202 0.47505 0.0
C1850 C 0.50441 0.46248 0.44268 0.0
C1851 C 0.48905 0.44431 0.44446 0.0
C1852 C 0.48132 0.43593 0.47839 0.0
C1853 C 0.48963 0.44583 0.51064 0.0
H1854 H 0.51314 0.98007 0.43502 0.0
H1855 H 0.54994 0.00366 0.52766 0.0
H1856 H 0.52418 0.00293 0.56257 0.0
H1857 H 0.49123 0.00552 0.44316 0.0
H1858 H 0.46839 0.98775 0.42981 0.0
H1859 H 0.48876 0.98751 0.41376 0.0
H1860 H 0.47623 0.95438 0.44015 0.0
H1861 H 0.45568 0.95441 0.45601 0.0
H1862 H 0.46979 0.95011 0.48737 0.0
H1863 H 0.49574 0.00302 0.58483 0.0
H1864 H 0.46629 0.00308 0.59363 0.0
H1865 H 0.44793 0.97955 0.48641 0.0
C1866 C 0.51566 0.98472 0.46297 0.0
C1867 C 0.53354 0.99208 0.47867 0.0
C1868 C 0.53634 0.99838 0.51511 0.0
C1869 C 0.52178 0.998 0.53517 0.0
C1870 C 0.5045 0.99121 0.51849 0.0
C1871 C 0.50132 0.98452 0.48332 0.0
C1872 C 0.4819 0.97932 0.47078 0.0
C1873 C 0.48263 0.99084 0.43742 0.0
C1874 C 0.47021 0.9583 0.46314 0.0
C1875 C 0.47486 0.98467 0.504 0.0
C1876 C 0.48805 0.99131 0.53133 0.0
C1877 C 0.48519 0.99808 0.56383 0.0
C1878 C 0.46844 0.99814 0.56849 0.0
C1879 C 0.45477 0.99152 0.54075 0.0
C1880 C 0.45801 0.98452 0.50827 0.0
H1881 H 0.47844 0.03867 0.98059 0.0
H1882 H 0.4652 0.00736 0.87987 0.0
H1883 H 0.48879 0.99896 0.89378 0.0
H1884 H 0.52846 0.05536 0.98018 0.0
H1885 H 0.52954 0.05283 0.02942 0.0
H1886 H 0.5125 0.05787 0.01048 0.0
H1887 H 0.48608 0.02866 0.04218 0.0
H1888 H 0.50302 0.02359 0.0613 0.0
H1889 H 0.48409 0.00624 0.03449 0.0
H1890 H 0.51271 0.99229 0.91961 0.0
H1891 H 0.53432 0.98706 0.95705 0.0
H1892 H 0.53196 0.02199 0.04224 0.0
C1893 C 0.48064 0.03011 0.96128 0.0
C1894 C 0.47001 0.02376 0.92908 0.0
C1895 C 0.47315 0.01238 0.90473 0.0
C1896 C 0.48659 0.00732 0.9123 0.0
C1897 C 0.49678 0.01373 0.94432 0.0
C1898 C 0.49394 0.02482 0.96851 0.0
C1899 C 0.5061 0.02904 0.00279 0.0
C1900 C 0.51999 0.05004 0.00611 0.0
C1901 C 0.4941 0.02142 0.03721 0.0
C1902 C 0.5159 0.01825 0.99296 0.0
C1903 C 0.51049 0.00973 0.95944 0.0
C1904 C 0.51716 0.99899 0.94581 0.0
C1905 C 0.52944 0.99611 0.9673 0.0
C1906 C 0.53491 0.00392 0.003 0.0
C1907 C 0.52824 0.01563 0.01562 0.0
H1908 H 0.00615 0.53064 0.03044 0.0
H1909 H 0.99228 0.5493 0.93129 0.0
H1910 H 0.97784 0.51733 0.90653 0.0
H1911 H 0.01845 0.50003 0.98693 0.0
H1912 H 0.00911 0.48277 0.02316 0.0
H1913 H 0.01736 0.50685 0.03381 0.0
H1914 H 0.986 0.49789 0.06177 0.0
H1915 H 0.97763 0.47375 0.05121 0.0
H1916 H 0.9652 0.48498 0.03492 0.0
H1917 H 0.96618 0.4836 0.8916 0.0
H1918 H 0.95834 0.45074 0.88734 0.0
H1919 H 0.98056 0.45427 0.99562 0.0
C1920 C -0.00019 0.52804 0.00381 0.0
C1921 C -7e-05 0.54245 0.98237 0.0
C1922 C 0.99229 0.53843 0.94757 0.0
C1923 C 0.98403 0.52031 0.9333 0.0
C1924 C 0.98423 0.5064 0.95424 0.0
C1925 C 0.99221 0.51002 0.98833 0.0
C1926 C 0.99117 0.49285 0.00574 0.0
C1927 C 0.01002 0.49582 0.01304 0.0
C1928 C 0.97929 0.48703 0.04046 0.0
C1929 C 0.98147 0.47892 0.97456 0.0
C1930 C 0.97752 0.48702 0.94566 0.0
C1931 C 0.9691 0.47709 0.91414 0.0
C1932 C 0.96472 0.45843 0.91199 0.0
C1933 C 0.9688 0.4499 0.94117 0.0
C1934 C 0.97714 0.46032 0.97293 0.0
H1935 H 0.4524 0.46984 0.01171 0.0
H1936 H 0.44666 0.48379 0.12272 0.0
H1937 H 0.48043 0.50648 0.12478 0.0
H1938 H 0.49493 0.47089 0.0241 0.0
H1939 H 0.50412 0.48066 0.9793 0.0
H1940 H 0.47934 0.46671 0.98569 0.0
H1941 H 0.47511 0.49379 0.96178 0.0
H1942 H 0.4999 0.5078 0.9551 0.0
H1943 H 0.4879 0.51644 0.98269 0.0
H1944 H 0.51534 0.52663 0.11532 0.0
H1945 H 0.54822 0.54237 0.09506 0.0
H1946 H 0.53042 0.51436 0.99001 0.0
C1947 C 0.45815 0.47784 0.03632 0.0
C1948 C 0.44688 0.47509 0.067 0.0
C1949 C 0.45503 0.4857 0.09882 0.0
C1950 C 0.47419 0.49863 0.10024 0.0
C1951 C 0.48496 0.50077 0.06964 0.0
C1952 C 0.4772 0.49069 0.03825 0.0
C1953 C 0.49184 0.49489 0.00964 0.0
C1954 C 0.49257 0.47721 0.99868 0.0
C1955 C 0.48847 0.50375 0.9751 0.0
C1956 C 0.50911 0.50873 0.02996 0.0
C1957 C 0.50492 0.51209 0.06442 0.0
C1958 C 0.51877 0.52417 0.08831 0.0
C1959 C 0.5374 0.53303 0.0766 0.0
C1960 C 0.54194 0.52961 0.04144 0.0
C1961 C 0.52752 0.51734 0.01795 0.0
H1962 H 0.45103 0.0817 0.02284 0.0
H1963 H 0.43609 0.11693 0.96072 0.0
H1964 H 0.43495 0.13213 0.01831 0.0
H1965 H 0.42009 0.07099 0.08786 0.0
H1966 H 0.43387 0.07072 0.12543 0.0
H1967 H 0.43909 0.06667 0.0803 0.0
H1968 H 0.47302 0.09387 0.08695 0.0
H1969 H 0.46794 0.09796 0.13251 0.0
H1970 H 0.47729 0.11666 0.09987 0.0
H1971 H 0.42756 0.13761 0.08134 0.0
H1972 H 0.41538 0.13317 0.1439 0.0
H1973 H 0.43568 0.09492 0.16479 0.0
C1974 C 0.44847 0.09327 0.02112 0.0
C1975 C 0.44375 0.09814 0.98677 0.0
C1976 C 0.43987 0.11297 0.98594 0.0
C1977 C 0.43924 0.12176 0.01898 0.0
C1978 C 0.44271 0.11571 0.05186 0.0
C1979 C 0.4476 0.10201 0.05307 0.0
C1980 C 0.44781 0.09595 0.09179 0.0
C1981 C 0.43441 0.07485 0.09659 0.0
C1982 C 0.4677 0.10145 0.10347 0.0
C1983 C 0.44098 0.10736 0.11188 0.0
C1984 C 0.43855 0.11903 0.08856 0.0
C1985 C 0.42995 0.12897 0.10006 0.0
C1986 C 0.42306 0.12637 0.13575 0.0
C1987 C 0.42467 0.11381 0.15951 0.0
C1988 C 0.43454 0.10493 0.14769 0.0
H1989 H 0.88043 0.29076 0.08891 0.0
H1990 H 0.88152 0.33547 0.15186 0.0
H1991 H 0.88342 0.35228 0.0954 0.0
H1992 H 0.91431 0.31771 0.03275 0.0
H1993 H 0.90516 0.30397 0.99117 0.0
H1994 H 0.89828 0.29298 0.03554 0.0
H1995 H 0.86359 0.28015 0.0192 0.0
H1996 H 0.87037 0.29102 0.97438 0.0
H1997 H 0.85591 0.29595 0.00442 0.0
H1998 H 0.89297 0.36753 0.03483 0.0
H1999 H 0.90871 0.37932 0.97514 0.0
H2000 H 0.90118 0.32479 0.9506 0.0
C2001 C 0.88004 0.3036 0.09072 0.0
C2002 C 0.8806 0.31168 0.12483 0.0
C2003 C 0.88088 0.3289 0.12607 0.0
C2004 C 0.88193 0.33856 0.09405 0.0
C2005 C 0.88254 0.33077 0.06088 0.0
C2006 C 0.8813 0.3135 0.05895 0.0
C2007 C 0.88526 0.30955 0.02078 0.0
C2008 C 0.90175 0.30587 0.02028 0.0
C2009 C 0.86775 0.29322 0.00392 0.0
C2010 C 0.89017 0.32777 0.0022 0.0
C2011 C 0.88807 0.33967 0.0255 0.0
C2012 C 0.89413 0.35814 0.01598 0.0
C2013 C 0.90306 0.36472 0.98158 0.0
C2014 C 0.90602 0.35297 0.95795 0.0
C2015 C 0.89872 0.33403 0.96751 0.0
H2016 H 0.65909 0.55933 0.02777 0.0
H2017 H 0.60441 0.52043 0.07034 0.0
H2018 H 0.61807 0.52336 0.13127 0.0
H2019 H 0.68734 0.54679 0.09041 0.0
H2020 H 0.70535 0.57086 0.09443 0.0
H2021 H 0.69216 0.56256 0.05295 0.0
H2022 H 0.68312 0.58821 0.05763 0.0
H2023 H 0.69619 0.59653 0.099 0.0
H2024 H 0.67189 0.58986 0.09825 0.0
H2025 H 0.63653 0.53423 0.18881 0.0
H2026 H 0.6577 0.55301 0.23822 0.0
H2027 H 0.70052 0.58565 0.15915 0.0
C2028 C 0.65013 0.5508 0.04958 0.0
C2029 C 0.63071 0.5393 0.04407 0.0
C2030 C 0.61934 0.52906 0.07374 0.0
C2031 C 0.62701 0.53063 0.10847 0.0
C2032 C 0.6461 0.54258 0.11327 0.0
C2033 C 0.65754 0.55247 0.08458 0.0
C2034 C 0.67703 0.56632 0.09778 0.0
C2035 C 0.69132 0.56133 0.08301 0.0
C2036 C 0.68235 0.58641 0.08757 0.0
C2037 C 0.67459 0.56323 0.13849 0.0
C2038 C 0.65675 0.54919 0.14677 0.0
C2039 C 0.65064 0.54497 0.1826 0.0
C2040 C 0.66279 0.55573 0.21056 0.0
C2041 C 0.68089 0.57067 0.20273 0.0
C2042 C 0.687 0.574 0.16618 0.0
H2043 H 0.09406 0.37095 0.33542 0.0
H2044 H 0.10991 0.41949 0.26794 0.0
H2045 H 0.10022 0.43334 0.31672 0.0
H2046 H 0.05365 0.36664 0.36603 0.0
H2047 H 0.05484 0.35911 0.41134 0.0
H2048 H 0.06655 0.35484 0.37479 0.0
H2049 H 0.09783 0.37213 0.40962 0.0
H2050 H 0.08616 0.37629 0.44668 0.0
H2051 H 0.10611 0.39556 0.42556 0.0
H2052 H 0.0841 0.43949 0.36905 0.0
H2053 H 0.06368 0.43753 0.41981 0.0
H2054 H 0.05822 0.38467 0.45218 0.0
C2055 C 0.09622 0.38481 0.33128 0.0
C2056 C 0.10295 0.39417 0.29782 0.0
C2057 C 0.10499 0.41209 0.29339 0.0
C2058 C 0.09949 0.42007 0.321 0.0
C2059 C 0.09212 0.41004 0.35303 0.0
C2060 C 0.09071 0.39287 0.3584 0.0
C2061 C 0.08047 0.38392 0.3933 0.0
C2062 C 0.06284 0.36502 0.38589 0.0
C2063 C 0.09342 0.38186 0.4204 0.0
C2064 C 0.07563 0.39835 0.40606 0.0
C2065 C 0.08272 0.41348 0.38286 0.0
C2066 C 0.0788 0.42787 0.38774 0.0
C2067 C 0.06714 0.42662 0.41666 0.0
C2068 C 0.05937 0.41099 0.4402 0.0
C2069 C 0.06407 0.39693 0.43505 0.0
H2070 H 0.57444 0.60505 0.48796 0.0
H2071 H 0.57488 0.64135 0.57344 0.0
H2072 H 0.58058 0.66542 0.52813 0.0
H2073 H 0.61076 0.63972 0.43634 0.0
H2074 H 0.6007 0.63032 0.39261 0.0
H2075 H 0.59489 0.61507 0.43116 0.0
H2076 H 0.55983 0.60318 0.4207 0.0
H2077 H 0.56553 0.61836 0.38196 0.0
H2078 H 0.55172 0.61968 0.41837 0.0
H2079 H 0.59019 0.68722 0.47486 0.0
H2080 H 0.60064 0.70411 0.41646 0.0
H2081 H 0.59221 0.65356 0.36427 0.0
C2082 C 0.5753 0.61788 0.49707 0.0
C2083 C 0.57414 0.62117 0.53451 0.0
C2084 C 0.57564 0.63834 0.5451 0.0
C2085 C 0.5789 0.65218 0.51949 0.0
C2086 C 0.58044 0.64871 0.48305 0.0
C2087 C 0.57842 0.63189 0.47169 0.0
C2088 C 0.58143 0.63209 0.43095 0.0
C2089 C 0.59792 0.62913 0.42228 0.0
C2090 C 0.56356 0.61746 0.41187 0.0
C2091 C 0.58589 0.65176 0.42145 0.0
C2092 C 0.58527 0.66112 0.45196 0.0
C2093 C 0.59033 0.67991 0.45063 0.0
C2094 C 0.59627 0.68942 0.41736 0.0
C2095 C 0.59688 0.68011 0.38563 0.0
C2096 C 0.59137 0.66094 0.3878 0.0
H2097 H 0.32661 0.94539 0.47675 0.0
H2098 H 0.37678 0.94564 0.44227 0.0
H2099 H 0.35962 0.92571 0.3899 0.0
H2100 H 0.29256 0.89707 0.44585 0.0
H2101 H 0.2761 0.904 0.4317 0.0
H2102 H 0.29145 0.91556 0.46943 0.0
H2103 H 0.30336 0.94744 0.43767 0.0
H2104 H 0.28811 0.93602 0.39997 0.0
H2105 H 0.31276 0.95079 0.3924 0.0
H2106 H 0.33807 0.9094 0.33684 0.0
H2107 H 0.3146 0.89895 0.28791 0.0
H2108 H 0.27862 0.9094 0.3576 0.0
C2109 C 0.33392 0.94088 0.4588 0.0
C2110 C 0.35307 0.94705 0.46383 0.0
C2111 C 0.36211 0.94102 0.43922 0.0
C2112 C 0.35245 0.92965 0.4094 0.0
C2113 C 0.3337 0.92427 0.40472 0.0
C2114 C 0.32452 0.92959 0.42898 0.0
C2115 C 0.30493 0.92355 0.4162 0.0
C2116 C 0.29041 0.90919 0.44235 0.0
C2117 C 0.30214 0.94046 0.41125 0.0
C2118 C 0.30475 0.91469 0.38015 0.0
C2119 C 0.32133 0.91492 0.37424 0.0
C2120 C 0.32492 0.90886 0.3415 0.0
C2121 C 0.31147 0.90292 0.31382 0.0
C2122 C 0.29465 0.9032 0.31886 0.0
C2123 C 0.29113 0.90867 0.35296 0.0
H2124 H 0.58421 0.92662 0.82839 0.0
H2125 H 0.58915 0.87967 0.86605 0.0
H2126 H 0.57423 0.87995 0.92398 0.0
H2127 H 0.5971 0.95096 0.90812 0.0
H2128 H 0.58152 0.96015 0.90494 0.0
H2129 H 0.58933 0.9541 0.86438 0.0
H2130 H 0.5551 0.93208 0.84497 0.0
H2131 H 0.54715 0.93815 0.88552 0.0
H2132 H 0.5394 0.91406 0.87555 0.0
H2133 H 0.56303 0.88843 0.98119 0.0
H2134 H 0.55669 0.90419 0.03246 0.0
H2135 H 0.55906 0.94548 0.9562 0.0
C2136 C 0.58163 0.91597 0.84827 0.0
C2137 C 0.58775 0.903 0.84236 0.0
C2138 C 0.58444 0.88963 0.86963 0.0
C2139 C 0.57596 0.88969 0.9027 0.0
C2140 C 0.57072 0.90312 0.90809 0.0
C2141 C 0.57328 0.9159 0.8814 0.0
C2142 C 0.56821 0.93007 0.89502 0.0
C2143 C 0.58504 0.94998 0.893 0.0
C2144 C 0.55146 0.92848 0.87402 0.0
C2145 C 0.56303 0.92371 0.93398 0.0
C2146 C 0.56431 0.90799 0.94093 0.0
C2147 C 0.56165 0.90052 0.97581 0.0
C2148 C 0.55807 0.90961 0.00521 0.0
C2149 C 0.55714 0.92597 0.99798 0.0
C2150 C 0.55924 0.93277 0.96203 0.0
H2151 H 0.09135 0.65636 0.99778 0.0
H2152 H 0.06952 0.59967 0.95984 0.0
H2153 H 0.08054 0.61144 0.89794 0.0
H2154 H 0.07569 0.67052 0.92704 0.0
H2155 H 0.09511 0.69396 0.92385 0.0
H2156 H 0.08983 0.68179 0.96638 0.0
H2157 H 0.12332 0.68704 0.96969 0.0
H2158 H 0.12879 0.69943 0.92715 0.0
H2159 H 0.13227 0.67975 0.9324 0.0
H2160 H 0.08837 0.62858 0.83883 0.0
H2161 H 0.09241 0.64957 0.78779 0.0
H2162 H 0.10902 0.69535 0.8633 0.0
C2163 C 0.08971 0.64648 0.97683 0.0
C2164 C 0.07988 0.62708 0.9839 0.0
C2165 C 0.07726 0.61458 0.95528 0.0
C2166 C 0.08348 0.62116 0.91997 0.0
C2167 C 0.09234 0.64031 0.91355 0.0
C2168 C 0.09562 0.65283 0.94129 0.0
C2169 C 0.10306 0.6724 0.92647 0.0
C2170 C 0.09015 0.6801 0.93653 0.0
C2171 C 0.12305 0.68543 0.93972 0.0
C2172 C 0.10266 0.66882 0.88599 0.0
C2173 C 0.09675 0.65027 0.87916 0.0
C2174 C 0.09344 0.64321 0.84388 0.0
C2175 C 0.09576 0.65525 0.815 0.0
C2176 C 0.10131 0.6742 0.82138 0.0
C2177 C 0.1053 0.6811 0.85736 0.0
H2178 H 0.34034 0.43444 0.84724 0.0
H2179 H 0.28638 0.42671 0.87705 0.0
H2180 H 0.29814 0.43845 0.9386 0.0
H2181 H 0.34627 0.41584 0.92258 0.0
H2182 H 0.37106 0.43092 0.92748 0.0
H2183 H 0.36052 0.42738 0.88352 0.0
H2184 H 0.37447 0.463 0.87614 0.0
H2185 H 0.38517 0.46667 0.92027 0.0
H2186 H 0.37005 0.47589 0.91029 0.0
H2187 H 0.31291 0.44386 0.99913 0.0
H2188 H 0.32906 0.44168 0.0544 0.0
H2189 H 0.37369 0.44576 0.98612 0.0
C2190 C 0.33133 0.43619 0.86617 0.0
C2191 C 0.31256 0.43006 0.85712 0.0
C2192 C 0.30089 0.43163 0.8832 0.0
C2193 C 0.30749 0.43833 0.91824 0.0
C2194 C 0.32581 0.4434 0.92693 0.0
C2195 C 0.33765 0.44255 0.90152 0.0
C2196 C 0.35554 0.44569 0.91923 0.0
C2197 C 0.3585 0.42896 0.91283 0.0
C2198 C 0.3723 0.4639 0.90567 0.0
C2199 C 0.35146 0.44729 0.9588 0.0
C2200 C 0.33443 0.44643 0.96251 0.0
C2201 C 0.32649 0.44513 0.99653 0.0
C2202 C 0.3358 0.44396 0.02822 0.0
C2203 C 0.35285 0.44404 0.02497 0.0
C2204 C 0.36108 0.44646 0.9895 0.0
H2205 H 0.91548 0.6283 0.62646 0.0
H2206 H 0.91479 0.58904 0.7053 0.0
H2207 H 0.92525 0.57526 0.65809 0.0
H2208 H 0.89993 0.59571 0.54764 0.0
H2209 H 0.91488 0.61386 0.51652 0.0
H2210 H 0.90548 0.61941 0.55559 0.0
H2211 H 0.93886 0.64399 0.57551 0.0
H2212 H 0.94836 0.63843 0.53673 0.0
H2213 H 0.95609 0.63703 0.58173 0.0
H2214 H 0.93976 0.56837 0.60439 0.0
H2215 H 0.95468 0.56733 0.54694 0.0
H2216 H 0.94461 0.60981 0.50175 0.0
C2217 C 0.91704 0.61648 0.63363 0.0
C2218 C 0.91419 0.60977 0.6698 0.0
C2219 C 0.91675 0.59445 0.67792 0.0
C2220 C 0.92274 0.58651 0.65122 0.0
C2221 C 0.92597 0.59383 0.6162 0.0
C2222 C 0.92292 0.60828 0.60717 0.0
C2223 C 0.92824 0.61409 0.56789 0.0
C2224 C 0.91111 0.61055 0.54559 0.0
C2225 C 0.94381 0.6346 0.56534 0.0
C2226 C 0.93519 0.60099 0.55657 0.0
C2227 C 0.93377 0.58942 0.58487 0.0
C2228 C 0.94059 0.57711 0.58182 0.0
C2229 C 0.9491 0.57664 0.54911 0.0
C2230 C 0.95057 0.58825 0.51959 0.0
C2231 C 0.94331 0.60042 0.52346 0.0
H2232 H 0.41137 0.3157 0.69707 0.0
H2233 H 0.38984 0.26046 0.65161 0.0
H2234 H 0.40236 0.27437 0.59153 0.0
H2235 H 0.39712 0.33235 0.62752 0.0
H2236 H 0.41656 0.35585 0.62792 0.0
H2237 H 0.41028 0.34209 0.66859 0.0
H2238 H 0.44377 0.34739 0.67327 0.0
H2239 H 0.45015 0.36119 0.63238 0.0
H2240 H 0.45356 0.34139 0.63547 0.0
H2241 H 0.41194 0.29343 0.53528 0.0
H2242 H 0.41569 0.31567 0.48701 0.0
H2243 H 0.43051 0.35895 0.56737 0.0
C2244 C 0.41006 0.3066 0.67479 0.0
C2245 C 0.40005 0.28699 0.67919 0.0
C2246 C 0.39776 0.2755 0.64899 0.0
C2247 C 0.40488 0.2833 0.61478 0.0
C2248 C 0.41417 0.30267 0.61103 0.0
C2249 C 0.41677 0.31419 0.64025 0.0
C2250 C 0.42449 0.33424 0.62793 0.0
C2251 C 0.41132 0.34154 0.63861 0.0
C2252 C 0.44416 0.3468 0.64317 0.0
C2253 C 0.42502 0.33207 0.58708 0.0
C2254 C 0.41946 0.3138 0.57805 0.0
C2255 C 0.41679 0.30785 0.54204 0.0
C2256 C 0.41905 0.32061 0.51473 0.0
C2257 C 0.42396 0.33916 0.52337 0.0
C2258 C 0.42761 0.34511 0.55991 0.0
H2259 H 0.62212 0.04171 0.52949 0.0
H2260 H 0.66127 0.07966 0.44975 0.0
H2261 H 0.6855 0.09351 0.49695 0.0
H2262 H 0.63958 0.0749 0.60705 0.0
H2263 H 0.63597 0.0569 0.63894 0.0
H2264 H 0.62112 0.05127 0.59971 0.0
H2265 H 0.62931 0.02607 0.58118 0.0
H2266 H 0.64425 0.03168 0.62015 0.0
H2267 H 0.6534 0.03252 0.57538 0.0
H2268 H 0.70667 0.10074 0.55118 0.0
H2269 H 0.72235 0.10193 0.60909 0.0
H2270 H 0.66935 0.06024 0.65425 0.0
C2271 C 0.63564 0.05324 0.52209 0.0
C2272 C 0.63968 0.05959 0.48574 0.0
C2273 C 0.65771 0.07454 0.4773 0.0
C2274 C 0.67163 0.08253 0.50399 0.0
C2275 C 0.66735 0.0756 0.53926 0.0
C2276 C 0.64972 0.06146 0.54849 0.0
C2277 C 0.64903 0.05593 0.58798 0.0
C2278 C 0.63563 0.06 0.6097 0.0
C2279 C 0.64369 0.03533 0.59135 0.0
C2280 C 0.66911 0.06883 0.5992 0.0
C2281 C 0.67946 0.0801 0.57073 0.0
C2282 C 0.69862 0.09222 0.57386 0.0
C2283 C 0.70743 0.09278 0.60684 0.0
C2284 C 0.69709 0.08139 0.63644 0.0
C2285 C 0.67762 0.06943 0.63247 0.0
H2286 H 0.72852 0.74218 0.68954 0.0
H2287 H 0.78155 0.74814 0.72177 0.0
H2288 H 0.77986 0.76224 0.77977 0.0
H2289 H 0.73418 0.78502 0.73546 0.0
H2290 H 0.70997 0.77344 0.7484 0.0
H2291 H 0.71689 0.76683 0.70717 0.0
H2292 H 0.70077 0.73257 0.72921 0.0
H2293 H 0.69385 0.73906 0.7704 0.0
H2294 H 0.70717 0.72731 0.77253 0.0
H2295 H 0.77034 0.77186 0.83762 0.0
H2296 H 0.75366 0.7753 0.88993 0.0
H2297 H 0.70671 0.76285 0.82011 0.0
C2298 C 0.74011 0.74701 0.70821 0.0
C2299 C 0.75532 0.74423 0.70071 0.0
C2300 C 0.76986 0.75027 0.72657 0.0
C2301 C 0.76902 0.75832 0.75965 0.0
C2302 C 0.75356 0.76033 0.7666 0.0
C2303 C 0.7394 0.75493 0.74146 0.0
C2304 C 0.72342 0.75677 0.75686 0.0
C2305 C 0.72098 0.77139 0.73571 0.0
C2306 C 0.70524 0.7378 0.75728 0.0
C2307 C 0.73047 0.76347 0.79502 0.0
C2308 C 0.74801 0.76572 0.79997 0.0
C2309 C 0.75675 0.77044 0.8338 0.0
C2310 C 0.74715 0.7724 0.86343 0.0
C2311 C 0.7289 0.76956 0.85928 0.0
C2312 C 0.72077 0.76553 0.82424 0.0
H2313 H 0.27265 0.99352 0.67591 0.0
H2314 H 0.27491 0.04462 0.70681 0.0
H2315 H 0.25358 0.02827 0.75818 0.0
H2316 H 0.22325 0.96122 0.70391 0.0
H2317 H 0.22894 0.94406 0.7196 0.0
H2318 H 0.24154 0.95906 0.68207 0.0
H2319 H 0.27267 0.96977 0.71598 0.0
H2320 H 0.26021 0.95488 0.75347 0.0
H2321 H 0.2757 0.97942 0.76099 0.0
H2322 H 0.23596 0.00716 0.81162 0.0
H2323 H 0.22436 0.98446 0.8612 0.0
H2324 H 0.23353 0.94681 0.79399 0.0
C2325 C 0.26832 0.00085 0.69287 0.0
C2326 C 0.27547 0.02014 0.68725 0.0
C2327 C 0.26952 0.02982 0.71034 0.0
C2328 C 0.25739 0.02062 0.73959 0.0
C2329 C 0.25111 0.00168 0.74501 0.0
C2330 C 0.25624 0.99239 0.72191 0.0
C2331 C 0.24918 0.97268 0.73522 0.0
C2332 C 0.23487 0.95842 0.70861 0.0
C2333 C 0.2654 0.96899 0.74182 0.0
C2334 C 0.24 0.97309 0.77042 0.0
C2335 C 0.24092 0.99007 0.77541 0.0
C2336 C 0.23484 0.99419 0.80758 0.0
C2337 C 0.22823 0.98088 0.83564 0.0
C2338 C 0.22787 0.96369 0.83155 0.0
C2339 C 0.23327 0.95962 0.79792 0.0
H2340 H 0.95524 0.2559 0.69662 0.0
H2341 H 0.99615 0.26985 0.61132 0.0
H2342 H 0.01759 0.26983 0.65577 0.0
H2343 H 0.98593 0.28575 0.76016 0.0
H2344 H 0.97557 0.27104 0.79922 0.0
H2345 H 0.96152 0.26843 0.76011 0.0
H2346 H 0.9517 0.2335 0.7559 0.0
H2347 H 0.96573 0.236 0.7952 0.0
H2348 H 0.96935 0.2269 0.75348 0.0
H2349 H 0.03698 0.27344 0.70962 0.0
H2350 H 0.05223 0.28031 0.76962 0.0
H2351 H -0.00075 0.26383 0.82138 0.0
C2352 C 0.96861 0.25823 0.68719 0.0
C2353 C 0.9739 0.26264 0.65042 0.0
C2354 C 0.99177 0.26631 0.63929 0.0
C2355 C 0.00372 0.26627 0.66434 0.0
C2356 C 0.99911 0.26251 0.70059 0.0
C2357 C 0.98158 0.25844 0.71208 0.0
C2358 C 0.98021 0.25706 0.75321 0.0
C2359 C 0.97554 0.27143 0.76909 0.0
C2360 C 0.9659 0.23718 0.76515 0.0
C2361 C -0.00084 0.26174 0.76298 0.0
C2362 C 0.00972 0.26456 0.73212 0.0
C2363 C 0.02876 0.27083 0.734 0.0
C2364 C 0.03732 0.27473 0.76819 0.0
C2365 C 0.02689 0.27228 0.80018 0.0
C2366 C 0.00746 0.26525 0.79748 0.0
H2367 H 0.29153 0.2475 0.23391 0.0
H2368 H 0.25071 0.24528 0.15726 0.0
H2369 H 0.2372 0.25563 0.20518 0.0
H2370 H 0.26017 0.23198 0.31444 0.0
H2371 H 0.27861 0.24745 0.34455 0.0
H2372 H 0.28389 0.23801 0.30519 0.0
H2373 H 0.3076 0.27144 0.28386 0.0
H2374 H 0.30231 0.28097 0.32294 0.0
H2375 H 0.30002 0.28822 0.27805 0.0
H2376 H 0.23052 0.27 0.2593 0.0
H2377 H 0.23 0.28523 0.3167 0.0
H2378 H 0.27409 0.27694 0.3593 0.0
C2379 C 0.27946 0.24873 0.22739 0.0
C2380 C 0.2722 0.24547 0.19164 0.0
C2381 C 0.25654 0.24758 0.18432 0.0
C2382 C 0.24874 0.25349 0.21143 0.0
C2383 C 0.25656 0.25708 0.24603 0.0
C2384 C 0.27141 0.25454 0.25426 0.0
C2385 C 0.27774 0.26025 0.29317 0.0
C2386 C 0.27493 0.24341 0.31567 0.0
C2387 C 0.29812 0.27616 0.29456 0.0
C2388 C 0.26447 0.26685 0.30517 0.0
C2389 C 0.25234 0.26488 0.27758 0.0
C2390 C 0.23972 0.27127 0.28133 0.0
C2391 C 0.23954 0.27995 0.31401 0.0
C2392 C 0.25179 0.28206 0.34275 0.0
C2393 C 0.26424 0.27517 0.33821 0.0
H2394 H 0.77351 0.04124 0.19842 0.0
H2395 H 0.77149 0.9989 0.12782 0.0
H2396 H 0.76689 0.97902 0.18117 0.0
H2397 H 0.79525 0.03143 0.28001 0.0
H2398 H 0.78091 0.03576 0.31072 0.0
H2399 H 0.78832 0.04821 0.2683 0.0
H2400 H 0.75391 0.03685 0.2517 0.0
H2401 H 0.74641 0.02432 0.29378 0.0
H2402 H 0.73734 0.0122 0.25148 0.0
H2403 H 0.75679 0.96166 0.24029 0.0
H2404 H 0.74195 0.94844 0.29932 0.0
H2405 H 0.75037 0.00196 0.33172 0.0
C2406 C 0.77292 0.02803 0.19429 0.0
C2407 C 0.77312 0.02151 0.15887 0.0
C2408 C 0.7716 0.00381 0.15464 0.0
C2409 C 0.76899 0.9929 0.18486 0.0
C2410 C 0.76803 0.9994 0.21927 0.0
C2411 C 0.77013 0.01641 0.22416 0.0
C2412 C 0.76608 0.01916 0.26312 0.0
C2413 C 0.78369 0.03456 0.28163 0.0
C2414 C 0.74998 0.02337 0.26511 0.0
C2415 C 0.7605 0.00019 0.27897 0.0
C2416 C 0.76206 0.9893 0.25346 0.0
C2417 C 0.75592 0.97058 0.26072 0.0
C2418 C 0.74749 0.96317 0.2944 0.0
C2419 C 0.74513 0.9744 0.32046 0.0
C2420 C 0.75232 0.99355 0.31286 0.0
H2421 H 0.98712 0.73443 0.33938 0.0
H2422 H 0.03314 0.7887 0.31214 0.0
H2423 H 0.01691 0.78906 0.25613 0.0
H2424 H 0.98052 0.71622 0.25406 0.0
H2425 H 0.95546 0.7026 0.25609 0.0
H2426 H 0.96889 0.7082 0.29715 0.0
H2427 H 0.95055 0.72321 0.32373 0.0
H2428 H 0.93695 0.71756 0.28268 0.0
H2429 H 0.94939 0.74129 0.2987 0.0
H2430 H 0.99846 0.78138 0.19884 0.0
H2431 H 0.97853 0.76629 0.14546 0.0
H2432 H 0.94441 0.71682 0.20977 0.0
C2433 C 0.9937 0.74672 0.32237 0.0
C2434 C 0.011 0.76166 0.33054 0.0
C2435 C 0.01928 0.77718 0.3068 0.0
C2436 C 0.01013 0.77751 0.27488 0.0
C2437 C 0.99339 0.76224 0.26703 0.0
C2438 C 0.98483 0.74718 0.29029 0.0
C2439 C 0.96707 0.7316 0.27379 0.0
C2440 C 0.96806 0.71361 0.27005 0.0
C2441 C 0.94998 0.72822 0.29605 0.0
C2442 C 0.9673 0.73992 0.23703 0.0
C2443 C 0.98242 0.75773 0.23386 0.0
C2444 C 0.9864 0.76759 0.20131 0.0
C2445 C 0.97497 0.75888 0.17106 0.0
C2446 C 0.95975 0.7404 0.17334 0.0
C2447 C 0.95565 0.73109 0.20718 0.0
loop_
_geom_bond_atom_site_label_1
_geom_bond_atom_site_label_2
_geom_bond_distance
_geom_bond_site_symmetry_2
_ccdc_geom_bond_type
Zn0 O3 2.031 . S
Zn0 O5 2.049 . S
Zn0 O10 2.067 . S
Zn1 O2 1.962 . S
Zn1 O4 1.986 . S
Zn1 O6 1.996 . S
Zn1 O9 1.943 . S
O2 Zn1 1.962 . S
O2 C7 1.254 . S
O3 Zn0 2.031 . S
O3 C7 1.269 . S
O4 Zn1 1.986 . S
O4 C11 1.262 . S
O5 Zn0 2.049 . S
O5 C13 1.260 . S
O6 Zn1 1.996 . S
O6 C13 1.257 . S
C7 O2 1.254 . S
C7 O3 1.269 . S
C8 O9 1.249 . S
C8 O10 1.270 . S
O9 Zn1 1.943 . S
O9 C8 1.249 . S
O10 Zn0 2.067 . S
O10 C8 1.270 . S
C11 O4 1.262 . S
C11 O12 1.232 . S
O12 C11 1.232 . S
C13 O5 1.260 . S
C13 O6 1.257 . S
Zn14 O17 2.031 . S
Zn14 O19 2.049 . S
Zn14 O24 2.067 . S
Zn15 O16 1.962 . S
Zn15 O18 1.986 . S
Zn15 O20 1.996 . S
Zn15 O23 1.943 . S
O16 Zn15 1.962 . S
O16 C21 1.254 . S
O17 Zn14 2.031 . S
O17 C21 1.269 . S
O18 Zn15 1.986 . S
O18 C25 1.262 . S
O19 Zn14 2.049 . S
O19 C27 1.260 . S
O20 Zn15 1.996 . S
O20 C27 1.257 . S
C21 O16 1.254 . S
C21 O17 1.269 . S
C22 O23 1.249 . S
C22 O24 1.270 . S
O23 Zn15 1.943 . S
O23 C22 1.249 . S
O24 Zn14 2.067 . S
O24 C22 1.270 . S
C25 O18 1.262 . S
C25 O26 1.232 . S
O26 C25 1.232 . S
C27 O19 1.260 . S
C27 O20 1.257 . S
Zn28 O31 2.031 . S
Zn28 O33 2.049 . S
Zn28 O38 2.067 . S
Zn29 O30 1.962 . S
Zn29 O32 1.986 . S
Zn29 O34 1.996 . S
Zn29 O37 1.943 . S
O30 Zn29 1.962 . S
O30 C35 1.254 . S
O31 Zn28 2.031 . S
O31 C35 1.269 . S
O32 Zn29 1.986 . S
O32 C39 1.262 . S
O33 Zn28 2.049 . S
O33 C41 1.260 . S
O34 Zn29 1.996 . S
O34 C41 1.257 . S
C35 O30 1.254 . S
C35 O31 1.269 . S
C36 O37 1.249 . S
C36 O38 1.270 . S
O37 Zn29 1.943 . S
O37 C36 1.249 . S
O38 Zn28 2.067 . S
O38 C36 1.270 . S
C39 O32 1.262 . S
C39 O40 1.232 . S
O40 C39 1.232 . S
C41 O33 1.260 . S
C41 O34 1.257 . S
Zn42 O45 2.031 . S
Zn42 O47 2.049 . S
Zn42 O52 2.067 . S
Zn43 O44 1.962 . S
Zn43 O46 1.986 . S
Zn43 O48 1.996 . S
Zn43 O51 1.943 . S
O44 Zn43 1.962 . S
O44 C49 1.254 . S
O45 Zn42 2.031 . S
O45 C49 1.269 . S
O46 Zn43 1.986 . S
O46 C53 1.262 . S
O47 Zn42 2.049 . S
O47 C55 1.260 . S
O48 Zn43 1.996 . S
O48 C55 1.257 . S
C49 O44 1.254 . S
C49 O45 1.269 . S
C50 O51 1.249 . S
C50 O52 1.270 . S
O51 Zn43 1.943 . S
O51 C50 1.249 . S
O52 Zn42 2.067 . S
O52 C50 1.270 . S
C53 O46 1.262 . S
C53 O54 1.232 . S
O54 C53 1.232 . S
C55 O47 1.260 . S
C55 O48 1.257 . S
Zn56 O59 2.031 . S
Zn56 O61 2.049 . S
Zn56 O66 2.067 . S
Zn57 O58 1.962 . S
Zn57 O60 1.986 . S
Zn57 O62 1.996 . S
Zn57 O65 1.943 . S
O58 Zn57 1.962 . S
O58 C63 1.254 . S
O59 Zn56 2.031 . S
O59 C63 1.269 . S
O60 Zn57 1.986 . S
O60 C67 1.262 . S
O61 Zn56 2.049 . S
O61 C69 1.260 . S
O62 Zn57 1.996 . S
O62 C69 1.257 . S
C63 O58 1.254 . S
C63 O59 1.269 . S
C64 O65 1.249 . S
C64 O66 1.270 . S
O65 Zn57 1.943 . S
O65 C64 1.249 . S
O66 Zn56 2.067 . S
O66 C64 1.270 . S
C67 O60 1.262 . S
C67 O68 1.232 . S
O68 C67 1.232 . S
C69 O61 1.260 . S
C69 O62 1.257 . S
Zn70 O73 2.031 . S
Zn70 O75 2.049 . S
Zn70 O80 2.067 . S
Zn71 O72 1.962 . S
Zn71 O74 1.986 . S
Zn71 O76 1.996 . S
Zn71 O79 1.943 . S
O72 Zn71 1.962 . S
O72 C77 1.254 . S
O73 Zn70 2.031 . S
O73 C77 1.269 . S
O74 Zn71 1.986 . S
O74 C81 1.262 . S
O75 Zn70 2.049 . S
O75 C83 1.260 . S
O76 Zn71 1.996 . S
O76 C83 1.257 . S
C77 O72 1.254 . S
C77 O73 1.269 . S
C78 O79 1.249 . S
C78 O80 1.270 . S
O79 Zn71 1.943 . S
O79 C78 1.249 . S
O80 Zn70 2.067 . S
O80 C78 1.270 . S
C81 O74 1.262 . S
C81 O82 1.232 . S
O82 C81 1.232 . S
C83 O75 1.260 . S
C83 O76 1.257 . S
Zn84 O87 2.031 . S
Zn84 O89 2.049 . S
Zn84 O94 2.067 . S
Zn85 O86 1.962 . S
Zn85 O88 1.986 . S
Zn85 O90 1.996 . S
Zn85 O93 1.943 . S
O86 Zn85 1.962 . S
O86 C91 1.254 . S
O87 Zn84 2.031 . S
O87 C91 1.269 . S
O88 Zn85 1.986 . S
O88 C95 1.262 . S
O89 Zn84 2.049 . S
O89 C97 1.260 . S
O90 Zn85 1.996 . S
O90 C97 1.257 . S
C91 O86 1.254 . S
C91 O87 1.269 . S
C92 O93 1.249 . S
C92 O94 1.270 . S
O93 Zn85 1.943 . S
O93 C92 1.249 . S
O94 Zn84 2.067 . S
O94 C92 1.270 . S
C95 O88 1.262 . S
C95 O96 1.232 . S
O96 C95 1.232 . S
C97 O89 1.260 . S
C97 O90 1.257 . S
Zn98 O101 2.031 . S
Zn98 O103 2.049 . S
Zn98 O108 2.067 . S
Zn99 O100 1.962 . S
Zn99 O102 1.986 . S
Zn99 O104 1.996 . S
Zn99 O107 1.943 . S
O100 Zn99 1.962 . S
O100 C105 1.254 . S
O101 Zn98 2.031 . S
O101 C105 1.269 . S
O102 Zn99 1.986 . S
O102 C109 1.262 . S
O103 Zn98 2.049 . S
O103 C111 1.260 . S
O104 Zn99 1.996 . S
O104 C111 1.257 . S
C105 O100 1.254 . S
C105 O101 1.269 . S
C106 O107 1.249 . S
C106 O108 1.270 . S
O107 Zn99 1.943 . S
O107 C106 1.249 . S
O108 Zn98 2.067 . S
O108 C106 1.270 . S
C109 O102 1.262 . S
C109 O110 1.232 . S
O110 C109 1.232 . S
C111 O103 1.260 . S
C111 O104 1.257 . S
Zn112 O115 2.031 . S
Zn112 O117 2.049 . S
Zn112 O122 2.067 . S
Zn113 O114 1.962 . S
Zn113 O116 1.986 . S
Zn113 O118 1.996 . S
Zn113 O121 1.943 . S
O114 Zn113 1.962 . S
O114 C119 1.254 . S
O115 Zn112 2.031 . S
O115 C119 1.269 . S
O116 Zn113 1.986 . S
O116 C123 1.262 . S
O117 Zn112 2.049 . S
O117 C125 1.260 . S
O118 Zn113 1.996 . S
O118 C125 1.257 . S
C119 O114 1.254 . S
C119 O115 1.269 . S
C120 O121 1.249 . S
C120 O122 1.270 . S
O121 Zn113 1.943 . S
O121 C120 1.249 . S
O122 Zn112 2.067 . S
O122 C120 1.270 . S
C123 O116 1.262 . S
C123 O124 1.232 . S
O124 C123 1.232 . S
C125 O117 1.260 . S
C125 O118 1.257 . S
Zn126 O129 2.031 . S
Zn126 O131 2.049 . S
Zn126 O136 2.067 . S
Zn127 O128 1.962 . S
Zn127 O130 1.986 . S
Zn127 O132 1.996 . S
Zn127 O135 1.943 . S
O128 Zn127 1.962 . S
O128 C133 1.254 . S
O129 Zn126 2.031 . S
O129 C133 1.269 . S
O130 Zn127 1.986 . S
O130 C137 1.262 . S
O131 Zn126 2.049 . S
O131 C139 1.260 . S
O132 Zn127 1.996 . S
O132 C139 1.257 . S
C133 O128 1.254 . S
C133 O129 1.269 . S
C134 O135 1.249 . S
C134 O136 1.270 . S
O135 Zn127 1.943 . S
O135 C134 1.249 . S
O136 Zn126 2.067 . S
O136 C134 1.270 . S
C137 O130 1.262 . S
C137 O138 1.232 . S
O138 C137 1.232 . S
C139 O131 1.260 . S
C139 O132 1.257 . S
Zn140 O143 2.031 . S
Zn140 O145 2.049 . S
Zn140 O150 2.067 . S
Zn141 O142 1.962 . S
Zn141 O144 1.986 . S
Zn141 O146 1.996 . S
Zn141 O149 1.943 . S
O142 Zn141 1.962 . S
O142 C147 1.254 . S
O143 Zn140 2.031 . S
O143 C147 1.269 . S
O144 Zn141 1.986 . S
O144 C151 1.262 . S
O145 Zn140 2.049 . S
O145 C153 1.260 . S
O146 Zn141 1.996 . S
O146 C153 1.257 . S
C147 O142 1.254 . S
C147 O143 1.269 . S
C148 O149 1.249 . S
C148 O150 1.270 . S
O149 Zn141 1.943 . S
O149 C148 1.249 . S
O150 Zn140 2.067 . S
O150 C148 1.270 . S
C151 O144 1.262 . S
C151 O152 1.232 . S
O152 C151 1.232 . S
C153 O145 1.260 . S
C153 O146 1.257 . S
Zn154 O157 2.031 . S
Zn154 O159 2.049 . S
Zn154 O164 2.067 . S
Zn155 O156 1.962 . S
Zn155 O158 1.986 . S
Zn155 O160 1.996 . S
Zn155 O163 1.943 . S
O156 Zn155 1.962 . S
O156 C161 1.254 . S
O157 Zn154 2.031 . S
O157 C161 1.269 . S
O158 Zn155 1.986 . S
O158 C165 1.262 . S
O159 Zn154 2.049 . S
O159 C167 1.260 . S
O160 Zn155 1.996 . S
O160 C167 1.257 . S
C161 O156 1.254 . S
C161 O157 1.269 . S
C162 O163 1.249 . S
C162 O164 1.270 . S
O163 Zn155 1.943 . S
O163 C162 1.249 . S
O164 Zn154 2.067 . S
O164 C162 1.270 . S
C165 O158 1.262 . S
C165 O166 1.232 . S
O166 C165 1.232 . S
C167 O159 1.260 . S
C167 O160 1.257 . S
Zn168 O171 2.031 . S
Zn168 O173 2.049 . S
Zn168 O178 2.067 1_455 S
Zn169 O170 1.962 . S
Zn169 O172 1.986 . S
Zn169 O174 1.996 . S
Zn169 O177 1.943 1_455 S
O170 Zn169 1.962 . S
O170 C175 1.254 . S
O171 Zn168 2.031 . S
O171 C175 1.269 . S
O172 Zn169 1.986 . S
O172 C179 1.262 1_455 S
O173 Zn168 2.049 . S
O173 C181 1.260 . S
O174 Zn169 1.996 . S
O174 C181 1.257 . S
C175 O170 1.254 . S
C175 O171 1.269 . S
C176 O177 1.249 . S
C176 O178 1.270 . S
O177 Zn169 1.943 1_655 S
O177 C176 1.249 . S
O178 Zn168 2.067 1_655 S
O178 C176 1.270 . S
C179 O172 1.262 1_655 S
C179 O180 1.256 . S
O180 C179 1.256 . S
C181 O173 1.260 . S
C181 O174 1.257 . S
Zn182 O185 2.031 . S
Zn182 O187 2.049 . S
Zn182 O192 2.067 . S
Zn183 O184 1.962 . S
Zn183 O186 1.986 . S
Zn183 O188 1.996 . S
Zn183 O191 1.943 . S
O184 Zn183 1.962 . S
O184 C189 1.254 . S
O185 Zn182 2.031 . S
O185 C189 1.269 . S
O186 Zn183 1.986 . S
O186 C193 1.262 . S
O187 Zn182 2.049 . S
O187 C195 1.260 . S
O188 Zn183 1.996 . S
O188 C195 1.257 . S
C189 O184 1.254 . S
C189 O185 1.269 . S
C190 O191 1.249 . S
C190 O192 1.270 . S
O191 Zn183 1.943 . S
O191 C190 1.249 . S
O192 Zn182 2.067 . S
O192 C190 1.270 . S
C193 O186 1.262 . S
C193 O194 1.232 . S
O194 C193 1.232 . S
C195 O187 1.260 . S
C195 O188 1.257 . S
Zn196 O199 2.031 . S
Zn196 O201 2.049 . S
Zn196 O206 2.067 1_565 S
Zn197 O198 1.962 . S
Zn197 O200 1.986 . S
Zn197 O202 1.996 . S
Zn197 O205 1.943 1_565 S
O198 Zn197 1.962 . S
O198 C203 1.254 . S
O199 Zn196 2.031 . S
O199 C203 1.269 . S
O200 Zn197 1.986 . S
O200 C207 1.261 1_565 S
O201 Zn196 2.049 . S
O201 C209 1.260 . S
O202 Zn197 1.996 . S
O202 C209 1.257 . S
C203 O198 1.254 . S
C203 O199 1.269 . S
C204 O205 1.249 . S
C204 O206 1.270 . S
O205 Zn197 1.943 1_545 S
O205 C204 1.249 . S
O206 Zn196 2.067 1_545 S
O206 C204 1.270 . S
C207 O200 1.261 1_545 S
C207 O208 1.234 . S
O208 C207 1.234 . S
C209 O201 1.260 . S
C209 O202 1.257 . S
Zn210 O213 2.031 . S
Zn210 O215 2.049 . S
Zn210 O220 2.067 . S
Zn211 O212 1.962 . S
Zn211 O214 1.986 . S
Zn211 O216 1.996 . S
Zn211 O219 1.943 . S
O212 Zn211 1.962 . S
O212 C217 1.254 . S
O213 Zn210 2.031 . S
O213 C217 1.269 . S
O214 Zn211 1.986 . S
O214 C221 1.262 . S
O215 Zn210 2.049 . S
O215 C223 1.260 . S
O216 Zn211 1.996 . S
O216 C223 1.257 . S
C217 O212 1.254 . S
C217 O213 1.269 . S
C218 O219 1.249 . S
C218 O220 1.270 . S
O219 Zn211 1.943 . S
O219 C218 1.249 . S
O220 Zn210 2.067 . S
O220 C218 1.270 . S
C221 O214 1.262 . S
C221 O222 1.232 . S
O222 C221 1.232 . S
C223 O215 1.260 . S
C223 O216 1.257 . S
Zn224 O227 2.031 . S
Zn224 O229 2.049 . S
Zn224 O234 2.067 . S
Zn225 O226 1.962 . S
Zn225 O228 1.986 . S
Zn225 O230 1.996 . S
Zn225 O233 1.943 . S
O226 Zn225 1.962 . S
O226 C231 1.254 . S
O227 Zn224 2.031 . S
O227 C231 1.269 . S
O228 Zn225 1.986 . S
O228 C235 1.262 . S
O229 Zn224 2.049 . S
O229 C237 1.260 . S
O230 Zn225 1.996 . S
O230 C237 1.257 . S
C231 O226 1.254 . S
C231 O227 1.269 . S
C232 O233 1.249 . S
C232 O234 1.270 . S
O233 Zn225 1.943 . S
O233 C232 1.249 . S
O234 Zn224 2.067 . S
O234 C232 1.270 . S
C235 O228 1.262 . S
C235 O236 1.232 . S
O236 C235 1.232 . S
C237 O229 1.260 . S
C237 O230 1.257 . S
Zn238 O241 2.031 . S
Zn238 O243 2.049 . S
Zn238 O248 2.067 . S
Zn239 O240 1.962 . S
Zn239 O242 1.986 . S
Zn239 O244 1.996 . S
Zn239 O247 1.943 . S
O240 Zn239 1.962 . S
O240 C245 1.254 . S
O241 Zn238 2.031 . S
O241 C245 1.269 . S
O242 Zn239 1.986 . S
O242 C249 1.262 . S
O243 Zn238 2.049 . S
O243 C251 1.260 . S
O244 Zn239 1.996 . S
O244 C251 1.257 . S
C245 O240 1.254 . S
C245 O241 1.269 . S
C246 O247 1.249 . S
C246 O248 1.270 . S
O247 Zn239 1.943 . S
O247 C246 1.249 . S
O248 Zn238 2.067 . S
O248 C246 1.270 . S
C249 O242 1.262 . S
C249 O250 1.232 . S
O250 C249 1.232 . S
C251 O243 1.260 . S
C251 O244 1.257 . S
Zn252 O255 2.031 . S
Zn252 O257 2.049 . S
Zn252 O262 2.067 . S
Zn253 O254 1.962 . S
Zn253 O256 1.986 . S
Zn253 O258 1.996 . S
Zn253 O261 1.943 . S
O254 Zn253 1.962 . S
O254 C259 1.254 . S
O255 Zn252 2.031 . S
O255 C259 1.269 . S
O256 Zn253 1.986 . S
O256 C263 1.262 . S
O257 Zn252 2.049 . S
O257 C265 1.260 . S
O258 Zn253 1.996 . S
O258 C265 1.257 . S
C259 O254 1.254 . S
C259 O255 1.269 . S
C260 O261 1.249 . S
C260 O262 1.270 . S
O261 Zn253 1.943 . S
O261 C260 1.249 . S
O262 Zn252 2.067 . S
O262 C260 1.270 . S
C263 O256 1.262 . S
C263 O264 1.232 . S
O264 C263 1.232 . S
C265 O257 1.260 . S
C265 O258 1.257 . S
Zn266 O269 2.031 . S
Zn266 O271 2.049 . S
Zn266 O276 2.067 . S
Zn267 O268 1.962 . S
Zn267 O270 1.986 . S
Zn267 O272 1.996 . S
Zn267 O275 1.943 . S
O268 Zn267 1.962 . S
O268 C273 1.254 . S
O269 Zn266 2.031 . S
O269 C273 1.269 . S
O270 Zn267 1.986 . S
O270 C277 1.262 . S
O271 Zn266 2.049 . S
O271 C279 1.260 . S
O272 Zn267 1.996 . S
O272 C279 1.257 . S
C273 O268 1.254 . S
C273 O269 1.269 . S
C274 O275 1.249 . S
C274 O276 1.270 . S
O275 Zn267 1.943 . S
O275 C274 1.249 . S
O276 Zn266 2.067 . S
O276 C274 1.270 . S
C277 O270 1.262 . S
C277 O278 1.232 . S
O278 C277 1.232 . S
C279 O271 1.260 . S
C279 O272 1.257 . S
Zn280 O283 2.031 . S
Zn280 O285 2.049 . S
Zn280 O290 2.067 . S
Zn281 O282 1.962 . S
Zn281 O284 1.986 . S
Zn281 O286 1.996 . S
Zn281 O289 1.943 . S
O282 Zn281 1.962 . S
O282 C287 1.254 . S
O283 Zn280 2.031 . S
O283 C287 1.269 . S
O284 Zn281 1.986 . S
O284 C291 1.262 . S
O285 Zn280 2.049 . S
O285 C293 1.260 . S
O286 Zn281 1.996 . S
O286 C293 1.257 . S
C287 O282 1.254 . S
C287 O283 1.269 . S
C288 O289 1.249 . S
C288 O290 1.270 . S
O289 Zn281 1.943 . S
O289 C288 1.249 . S
O290 Zn280 2.067 . S
O290 C288 1.270 . S
C291 O284 1.262 . S
C291 O292 1.232 . S
O292 C291 1.232 . S
C293 O285 1.260 . S
C293 O286 1.257 . S
Zn294 O297 2.031 . S
Zn294 O299 2.049 . S
Zn294 O304 2.067 1_565 S
Zn295 O296 1.962 . S
Zn295 O298 1.986 . S
Zn295 O300 1.996 . S
Zn295 O303 1.943 1_565 S
O296 Zn295 1.962 . S
O296 C301 1.254 . S
O297 Zn294 2.031 . S
O297 C301 1.269 . S
O298 Zn295 1.986 . S
O298 C305 1.262 1_565 S
O299 Zn294 2.049 . S
O299 C307 1.260 . S
O300 Zn295 1.996 . S
O300 C307 1.257 . S
C301 O296 1.254 . S
C301 O297 1.269 . S
C302 O303 1.249 . S
C302 O304 1.270 . S
O303 Zn295 1.943 1_545 S
O303 C302 1.249 . S
O304 Zn294 2.067 1_545 S
O304 C302 1.270 . S
C305 O298 1.262 1_545 S
C305 O306 1.256 . S
O306 C305 1.256 . S
C307 O299 1.260 . S
C307 O300 1.257 . S
Zn308 O311 2.031 . S
Zn308 O313 2.049 . S
Zn308 O318 2.067 1_455 S
Zn309 O310 1.962 . S
Zn309 O312 1.986 . S
Zn309 O314 1.996 . S
Zn309 O317 1.943 1_455 S
O310 Zn309 1.962 . S
O310 C315 1.254 . S
O311 Zn308 2.031 . S
O311 C315 1.269 . S
O312 Zn309 1.986 . S
O312 C319 1.261 1_455 S
O313 Zn308 2.049 . S
O313 C321 1.260 . S
O314 Zn309 1.996 . S
O314 C321 1.257 . S
C315 O310 1.254 . S
C315 O311 1.269 . S
C316 O317 1.249 . S
C316 O318 1.270 . S
O317 Zn309 1.943 1_655 S
O317 C316 1.249 . S
O318 Zn308 2.067 1_655 S
O318 C316 1.270 . S
C319 O312 1.261 1_655 S
C319 O320 1.235 . S
O320 C319 1.235 . S
C321 O313 1.260 . S
C321 O314 1.257 . S
Zn322 O325 2.031 . S
Zn322 O327 2.049 . S
Zn322 O332 2.067 . S
Zn323 O324 1.962 . S
Zn323 O326 1.986 . S
Zn323 O328 1.996 . S
Zn323 O331 1.943 . S
O324 Zn323 1.962 . S
O324 C329 1.254 . S
O325 Zn322 2.031 . S
O325 C329 1.269 . S
O326 Zn323 1.986 . S
O326 C333 1.262 . S
O327 Zn322 2.049 . S
O327 C335 1.260 . S
O328 Zn323 1.996 . S
O328 C335 1.257 . S
C329 O324 1.254 . S
C329 O325 1.269 . S
C330 O331 1.249 . S
C330 O332 1.270 . S
O331 Zn323 1.943 . S
O331 C330 1.249 . S
O332 Zn322 2.067 . S
O332 C330 1.270 . S
C333 O326 1.262 . S
C333 O334 1.232 . S
O334 C333 1.232 . S
C335 O327 1.260 . S
C335 O328 1.257 . S
Zn336 O339 2.031 . S
Zn336 O341 2.049 . S
Zn336 O346 2.067 . S
Zn337 O338 1.962 . S
Zn337 O340 1.986 . S
Zn337 O342 1.996 . S
Zn337 O345 1.943 . S
O338 Zn337 1.962 . S
O338 C343 1.254 . S
O339 Zn336 2.031 . S
O339 C343 1.269 . S
O340 Zn337 1.986 . S
O340 C347 1.262 . S
O341 Zn336 2.049 . S
O341 C349 1.260 . S
O342 Zn337 1.996 . S
O342 C349 1.257 . S
C343 O338 1.254 . S
C343 O339 1.269 . S
C344 O345 1.249 . S
C344 O346 1.270 . S
O345 Zn337 1.943 . S
O345 C344 1.249 . S
O346 Zn336 2.067 . S
O346 C344 1.270 . S
C347 O340 1.262 . S
C347 O348 1.232 . S
O348 C347 1.232 . S
C349 O341 1.260 . S
C349 O342 1.257 . S
Zn350 O353 2.031 . S
Zn350 O355 2.049 . S
Zn350 O360 2.067 . S
Zn351 O352 1.962 . S
Zn351 O354 1.986 . S
Zn351 O356 1.996 . S
Zn351 O359 1.943 . S
O352 Zn351 1.962 . S
O352 C357 1.254 . S
O353 Zn350 2.031 . S
O353 C357 1.269 . S
O354 Zn351 1.986 . S
O354 C361 1.262 . S
O355 Zn350 2.049 . S
O355 C363 1.260 . S
O356 Zn351 1.996 . S
O356 C363 1.257 . S
C357 O352 1.254 . S
C357 O353 1.269 . S
C358 O359 1.249 . S
C358 O360 1.270 . S
O359 Zn351 1.943 . S
O359 C358 1.249 . S
O360 Zn350 2.067 . S
O360 C358 1.270 . S
C361 O354 1.262 . S
C361 O362 1.232 . S
O362 C361 1.232 . S
C363 O355 1.260 . S
C363 O356 1.257 . S
Zn364 O367 2.031 . S
Zn364 O369 2.049 . S
Zn364 O374 2.067 . S
Zn365 O366 1.962 . S
Zn365 O368 1.986 . S
Zn365 O370 1.996 . S
Zn365 O373 1.943 . S
O366 Zn365 1.962 . S
O366 C371 1.254 . S
O367 Zn364 2.031 . S
O367 C371 1.269 . S
O368 Zn365 1.986 . S
O368 C375 1.262 . S
O369 Zn364 2.049 . S
O369 C377 1.260 . S
O370 Zn365 1.996 . S
O370 C377 1.257 . S
C371 O366 1.254 . S
C371 O367 1.269 . S
C372 O373 1.249 . S
C372 O374 1.270 . S
O373 Zn365 1.943 . S
O373 C372 1.249 . S
O374 Zn364 2.067 . S
O374 C372 1.270 . S
C375 O368 1.262 . S
C375 O376 1.232 . S
O376 C375 1.232 . S
C377 O369 1.260 . S
C377 O370 1.257 . S
Zn378 O381 2.031 . S
Zn378 O383 2.049 . S
Zn378 O388 2.067 1_545 S
Zn379 O380 1.962 . S
Zn379 O382 1.986 . S
Zn379 O384 1.996 . S
Zn379 O387 1.943 1_545 S
O380 Zn379 1.962 . S
O380 C385 1.254 . S
O381 Zn378 2.031 . S
O381 C385 1.269 . S
O382 Zn379 1.986 . S
O382 C389 1.262 1_545 S
O383 Zn378 2.049 . S
O383 C391 1.260 . S
O384 Zn379 1.996 . S
O384 C391 1.257 . S
C385 O380 1.254 . S
C385 O381 1.269 . S
C386 O387 1.249 . S
C386 O388 1.270 . S
O387 Zn379 1.943 1_565 S
O387 C386 1.249 . S
O388 Zn378 2.067 1_565 S
O388 C386 1.270 . S
C389 O382 1.262 1_565 S
C389 O390 1.256 . S
O390 C389 1.256 . S
C391 O383 1.260 . S
C391 O384 1.257 . S
Zn392 O395 2.031 . S
Zn392 O397 2.049 . S
Zn392 O402 2.067 1_655 S
Zn393 O394 1.962 . S
Zn393 O396 1.986 . S
Zn393 O398 1.996 . S
Zn393 O401 1.943 1_655 S
O394 Zn393 1.962 . S
O394 C399 1.254 . S
O395 Zn392 2.031 . S
O395 C399 1.269 . S
O396 Zn393 1.986 . S
O396 C403 1.261 1_655 S
O397 Zn392 2.049 . S
O397 C405 1.260 . S
O398 Zn393 1.996 . S
O398 C405 1.257 . S
C399 O394 1.254 . S
C399 O395 1.269 . S
C400 O401 1.249 . S
C400 O402 1.270 . S
O401 Zn393 1.943 1_455 S
O401 C400 1.249 . S
O402 Zn392 2.067 1_455 S
O402 C400 1.270 . S
C403 O396 1.261 1_455 S
C403 O404 1.235 . S
O404 C403 1.235 . S
C405 O397 1.260 . S
C405 O398 1.257 . S
Zn406 O409 2.031 . S
Zn406 O411 2.049 . S
Zn406 O416 2.067 . S
Zn407 O408 1.962 . S
Zn407 O410 1.986 . S
Zn407 O412 1.996 . S
Zn407 O415 1.943 . S
O408 Zn407 1.962 . S
O408 C413 1.254 . S
O409 Zn406 2.031 . S
O409 C413 1.269 . S
O410 Zn407 1.986 . S
O410 C417 1.262 . S
O411 Zn406 2.049 . S
O411 C419 1.260 . S
O412 Zn407 1.996 . S
O412 C419 1.257 . S
C413 O408 1.254 . S
C413 O409 1.269 . S
C414 O415 1.249 . S
C414 O416 1.270 . S
O415 Zn407 1.943 . S
O415 C414 1.249 . S
O416 Zn406 2.067 . S
O416 C414 1.270 . S
C417 O410 1.262 . S
C417 O418 1.232 . S
O418 C417 1.232 . S
C419 O411 1.260 . S
C419 O412 1.257 . S
Zn420 O423 2.031 . S
Zn420 O425 2.049 . S
Zn420 O430 2.067 1_655 S
Zn421 O422 1.962 . S
Zn421 O424 1.986 . S
Zn421 O426 1.996 . S
Zn421 O429 1.943 1_655 S
O422 Zn421 1.962 . S
O422 C427 1.254 . S
O423 Zn420 2.031 . S
O423 C427 1.269 . S
O424 Zn421 1.986 . S
O424 C431 1.262 1_655 S
O425 Zn420 2.049 . S
O425 C433 1.260 . S
O426 Zn421 1.996 . S
O426 C433 1.257 . S
C427 O422 1.254 . S
C427 O423 1.269 . S
C428 O429 1.249 . S
C428 O430 1.270 . S
O429 Zn421 1.943 1_455 S
O429 C428 1.249 . S
O430 Zn420 2.067 1_455 S
O430 C428 1.270 . S
C431 O424 1.262 1_455 S
C431 O432 1.256 . S
O432 C431 1.256 . S
C433 O425 1.260 . S
C433 O426 1.257 . S
Zn434 O437 2.031 . S
Zn434 O439 2.049 . S
Zn434 O444 2.067 . S
Zn435 O436 1.962 . S
Zn435 O438 1.986 . S
Zn435 O440 1.996 . S
Zn435 O443 1.943 . S
O436 Zn435 1.962 . S
O436 C441 1.254 . S
O437 Zn434 2.031 . S
O437 C441 1.269 . S
O438 Zn435 1.986 . S
O438 C445 1.262 . S
O439 Zn434 2.049 . S
O439 C447 1.260 . S
O440 Zn435 1.996 . S
O440 C447 1.257 . S
C441 O436 1.254 . S
C441 O437 1.269 . S
C442 O443 1.249 . S
C442 O444 1.270 . S
O443 Zn435 1.943 . S
O443 C442 1.249 . S
O444 Zn434 2.067 . S
O444 C442 1.270 . S
C445 O438 1.262 . S
C445 O446 1.232 . S
O446 C445 1.232 . S
C447 O439 1.260 . S
C447 O440 1.257 . S
Zn448 O451 2.031 . S
Zn448 O453 2.049 . S
Zn448 O458 2.067 1_545 S
Zn449 O450 1.962 . S
Zn449 O452 1.986 . S
Zn449 O454 1.996 . S
Zn449 O457 1.943 1_545 S
O450 Zn449 1.962 . S
O450 C455 1.254 . S
O451 Zn448 2.031 . S
O451 C455 1.269 . S
O452 Zn449 1.986 . S
O452 C459 1.261 1_545 S
O453 Zn448 2.049 . S
O453 C461 1.260 . S
O454 Zn449 1.996 . S
O454 C461 1.257 . S
C455 O450 1.254 . S
C455 O451 1.269 . S
C456 O457 1.249 . S
C456 O458 1.270 . S
O457 Zn449 1.943 1_565 S
O457 C456 1.249 . S
O458 Zn448 2.067 1_565 S
O458 C456 1.270 . S
C459 O452 1.261 1_565 S
C459 O460 1.235 . S
O460 C459 1.235 . S
C461 O453 1.260 . S
C461 O454 1.257 . S
Zn462 O465 2.031 . S
Zn462 O467 2.049 . S
Zn462 O472 2.067 . S
Zn463 O464 1.962 . S
Zn463 O466 1.986 . S
Zn463 O468 1.996 . S
Zn463 O471 1.943 . S
O464 Zn463 1.962 . S
O464 C469 1.254 . S
O465 Zn462 2.031 . S
O465 C469 1.269 . S
O466 Zn463 1.986 . S
O466 C473 1.262 . S
O467 Zn462 2.049 . S
O467 C475 1.260 . S
O468 Zn463 1.996 . S
O468 C475 1.257 . S
C469 O464 1.254 . S
C469 O465 1.269 . S
C470 O471 1.249 . S
C470 O472 1.270 . S
O471 Zn463 1.943 . S
O471 C470 1.249 . S
O472 Zn462 2.067 . S
O472 C470 1.270 . S
C473 O466 1.262 . S
C473 O474 1.232 . S
O474 C473 1.232 . S
C475 O467 1.260 . S
C475 O468 1.257 . S
Zn476 O479 2.031 . S
Zn476 O481 2.049 . S
Zn476 O486 2.067 . S
Zn477 O478 1.962 . S
Zn477 O480 1.986 . S
Zn477 O482 1.996 . S
Zn477 O485 1.943 . S
O478 Zn477 1.962 . S
O478 C483 1.254 . S
O479 Zn476 2.031 . S
O479 C483 1.269 . S
O480 Zn477 1.986 . S
O480 C487 1.262 . S
O481 Zn476 2.049 . S
O481 C489 1.260 . S
O482 Zn477 1.996 . S
O482 C489 1.257 . S
C483 O478 1.254 . S
C483 O479 1.269 . S
C484 O485 1.249 . S
C484 O486 1.270 . S
O485 Zn477 1.943 . S
O485 C484 1.249 . S
O486 Zn476 2.067 . S
O486 C484 1.270 . S
C487 O480 1.262 . S
C487 O488 1.232 . S
O488 C487 1.232 . S
C489 O481 1.260 . S
C489 O482 1.257 . S
Zn490 O493 2.031 . S
Zn490 O495 2.049 . S
Zn490 O500 2.067 . S
Zn491 O492 1.962 . S
Zn491 O494 1.986 . S
Zn491 O496 1.996 . S
Zn491 O499 1.943 . S
O492 Zn491 1.962 . S
O492 C497 1.254 . S
O493 Zn490 2.031 . S
O493 C497 1.269 . S
O494 Zn491 1.986 . S
O494 C501 1.262 . S
O495 Zn490 2.049 . S
O495 C503 1.260 . S
O496 Zn491 1.996 . S
O496 C503 1.257 . S
C497 O492 1.254 . S
C497 O493 1.269 . S
C498 O499 1.249 . S
C498 O500 1.270 . S
O499 Zn491 1.943 . S
O499 C498 1.249 . S
O500 Zn490 2.067 . S
O500 C498 1.270 . S
C501 O494 1.262 . S
C501 O502 1.232 . S
O502 C501 1.232 . S
C503 O495 1.260 . S
C503 O496 1.257 . S
H504 C516 0.930 . S
H505 C518 0.930 . S
H506 C519 0.930 . S
H507 C523 0.959 . S
H508 C523 0.959 . S
H509 C523 0.961 . S
H510 C524 0.960 . S
H511 C524 0.961 . S
H512 C524 0.959 . S
H513 C527 0.929 . S
H514 C528 0.931 . S
H515 C530 0.930 . S
C516 H504 0.930 . S
C516 C517 1.399 . S
C516 C521 1.399 . S
C517 C516 1.399 . S
C517 C518 1.376 . S
C518 H505 0.930 . S
C518 C517 1.376 . S
C518 C519 1.388 . S
C519 H506 0.930 . S
C519 C518 1.388 . S
C519 C520 1.390 . S
C520 C519 1.390 . S
C520 C521 1.394 . S
C520 C526 1.465 1_565 S
C521 C516 1.399 . S
C521 C520 1.394 . S
C521 C522 1.516 . S
C522 C521 1.516 . S
C522 C523 1.502 . S
C522 C524 1.561 . S
C522 C525 1.526 1_565 S
C523 H507 0.959 . S
C523 H508 0.959 . S
C523 H509 0.961 . S
C523 C522 1.502 . S
C524 H510 0.960 . S
C524 H511 0.961 . S
C524 H512 0.959 . S
C524 C522 1.561 . S
C525 C522 1.526 1_545 S
C525 C526 1.396 . S
C525 C530 1.390 . S
C526 C520 1.465 1_545 S
C526 C525 1.396 . S
C526 C527 1.399 . S
C527 H513 0.929 . S
C527 C526 1.399 . S
C527 C528 1.385 . S
C528 H514 0.931 . S
C528 C527 1.385 . S
C528 C529 1.389 . S
C529 C528 1.389 . S
C529 C530 1.387 . S
C530 H515 0.930 . S
C530 C525 1.390 . S
C530 C529 1.387 . S
H531 C543 0.930 . S
H532 C545 0.930 . S
H533 C546 0.930 . S
H534 C550 0.959 . S
H535 C550 0.959 . S
H536 C550 0.961 1_455 S
H537 C551 0.960 . S
H538 C551 0.961 1_655 S
H539 C551 0.959 . S
H540 C554 0.929 . S
H541 C555 0.931 . S
H542 C557 0.930 . S
C543 H531 0.930 . S
C543 C544 1.399 . S
C543 C548 1.399 . S
C544 C543 1.399 . S
C544 C545 1.376 . S
C545 H532 0.930 . S
C545 C544 1.376 . S
C545 C546 1.388 . S
C546 H533 0.930 . S
C546 C545 1.388 . S
C546 C547 1.390 . S
C547 C546 1.390 . S
C547 C548 1.394 . S
C547 C553 1.465 1_455 S
C548 C543 1.399 . S
C548 C547 1.394 . S
C548 C549 1.574 . S
C549 C548 1.574 . S
C549 C550 1.469 1_455 S
C549 C551 1.563 . S
C549 C552 1.506 1_455 S
C550 H534 0.959 . S
C550 H535 0.959 . S
C550 H536 0.961 1_655 S
C550 C549 1.469 1_655 S
C551 H537 0.960 . S
C551 H538 0.961 1_455 S
C551 H539 0.959 . S
C551 C549 1.563 . S
C552 C549 1.506 1_655 S
C552 C553 1.396 . S
C552 C557 1.390 . S
C553 C547 1.465 1_655 S
C553 C552 1.396 . S
C553 C554 1.399 . S
C554 H540 0.929 . S
C554 C553 1.399 . S
C554 C555 1.385 . S
C555 H541 0.931 . S
C555 C554 1.385 . S
C555 C556 1.389 . S
C556 C555 1.389 . S
C556 C557 1.387 . S
C557 H542 0.930 . S
C557 C552 1.390 . S
C557 C556 1.387 . S
H558 C570 0.930 . S
H559 C572 0.930 . S
H560 C573 0.930 . S
H561 C577 0.959 . S
H562 C577 0.959 . S
H563 C577 0.961 . S
H564 C578 0.960 . S
H565 C578 0.961 . S
H566 C578 0.959 . S
H567 C581 0.929 . S
H568 C582 0.931 . S
H569 C584 0.930 . S
C570 H558 0.930 . S
C570 C571 1.399 . S
C570 C575 1.399 . S
C571 C570 1.399 . S
C571 C572 1.376 . S
C572 H559 0.930 . S
C572 C571 1.376 . S
C572 C573 1.388 . S
C573 H560 0.930 . S
C573 C572 1.388 . S
C573 C574 1.390 . S
C574 C573 1.390 . S
C574 C575 1.394 . S
C574 C580 1.465 . S
C575 C570 1.399 . S
C575 C574 1.394 . S
C575 C576 1.516 . S
C576 C575 1.516 . S
C576 C577 1.502 . S
C576 C578 1.561 . S
C576 C579 1.526 . S
C577 H561 0.959 . S
C577 H562 0.959 . S
C577 H563 0.961 . S
C577 C576 1.502 . S
C578 H564 0.960 . S
C578 H565 0.961 . S
C578 H566 0.959 . S
C578 C576 1.561 . S
C579 C576 1.526 . S
C579 C580 1.396 . S
C579 C584 1.390 . S
C580 C574 1.465 . S
C580 C579 1.396 . S
C580 C581 1.399 . S
C581 H567 0.929 . S
C581 C580 1.399 . S
C581 C582 1.385 . S
C582 H568 0.931 . S
C582 C581 1.385 . S
C582 C583 1.389 . S
C583 C582 1.389 . S
C583 C584 1.387 . S
C584 H569 0.930 . S
C584 C579 1.390 . S
C584 C583 1.387 . S
H585 C597 0.930 . S
H586 C599 0.930 . S
H587 C600 0.930 . S
H588 C604 0.959 . S
H589 C604 0.959 . S
H590 C604 0.961 . S
H591 C605 0.960 . S
H592 C605 0.961 . S
H593 C605 0.959 . S
H594 C608 0.929 . S
H595 C609 0.931 . S
H596 C611 0.930 . S
C597 H585 0.930 . S
C597 C598 1.399 . S
C597 C602 1.399 . S
C598 C597 1.399 . S
C598 C599 1.376 . S
C599 H586 0.930 . S
C599 C598 1.376 . S
C599 C600 1.388 . S
C600 H587 0.930 . S
C600 C599 1.388 . S
C600 C601 1.390 . S
C601 C600 1.390 . S
C601 C602 1.394 . S
C601 C607 1.465 1_565 S
C602 C597 1.399 . S
C602 C601 1.394 . S
C602 C603 1.516 1_565 S
C603 C602 1.516 1_545 S
C603 C604 1.502 . S
C603 C605 1.561 . S
C603 C606 1.526 . S
C604 H588 0.959 . S
C604 H589 0.959 . S
C604 H590 0.961 . S
C604 C603 1.502 . S
C605 H591 0.960 . S
C605 H592 0.961 . S
C605 H593 0.959 . S
C605 C603 1.561 . S
C606 C603 1.526 . S
C606 C607 1.396 . S
C606 C611 1.390 . S
C607 C601 1.465 1_545 S
C607 C606 1.396 . S
C607 C608 1.399 . S
C608 H594 0.929 . S
C608 C607 1.399 . S
C608 C609 1.385 . S
C609 H595 0.931 . S
C609 C608 1.385 . S
C609 C610 1.389 . S
C610 C609 1.389 . S
C610 C611 1.387 . S
C611 H596 0.930 . S
C611 C606 1.390 . S
C611 C610 1.387 . S
H612 C624 0.930 . S
H613 C626 0.930 . S
H614 C627 0.930 . S
H615 C631 0.959 1_655 S
H616 C631 0.959 1_655 S
H617 C631 0.961 . S
H618 C632 0.960 . S
H619 C632 0.961 . S
H620 C632 0.959 . S
H621 C635 0.929 . S
H622 C636 0.931 . S
H623 C638 0.930 . S
C624 H612 0.930 . S
C624 C625 1.399 . S
C624 C629 1.399 . S
C625 C624 1.399 . S
C625 C626 1.376 . S
C626 H613 0.930 . S
C626 C625 1.376 . S
C626 C627 1.388 . S
C627 H614 0.930 . S
C627 C626 1.388 . S
C627 C628 1.390 . S
C628 C627 1.390 . S
C628 C629 1.394 . S
C628 C634 1.465 1_455 S
C629 C624 1.399 . S
C629 C628 1.394 . S
C629 C630 1.516 . S
C630 C629 1.516 . S
C630 C631 1.502 . S
C630 C632 1.561 . S
C630 C633 1.526 1_455 S
C631 H615 0.959 1_455 S
C631 H616 0.959 1_455 S
C631 H617 0.961 . S
C631 C630 1.502 . S
C632 H618 0.960 . S
C632 H619 0.961 . S
C632 H620 0.959 . S
C632 C630 1.561 . S
C633 C630 1.526 1_655 S
C633 C634 1.396 . S
C633 C638 1.390 . S
C634 C628 1.465 1_655 S
C634 C633 1.396 . S
C634 C635 1.399 . S
C635 H621 0.929 . S
C635 C634 1.399 . S
C635 C636 1.385 . S
C636 H622 0.931 . S
C636 C635 1.385 . S
C636 C637 1.389 . S
C637 C636 1.389 . S
C637 C638 1.387 . S
C638 H623 0.930 . S
C638 C633 1.390 . S
C638 C637 1.387 . S
H639 C651 0.930 . S
H640 C653 0.930 . S
H641 C654 0.930 . S
H642 C658 0.959 . S
H643 C658 0.959 . S
H644 C658 0.961 . S
H645 C659 0.960 . S
H646 C659 0.961 . S
H647 C659 0.959 . S
H648 C662 0.929 . S
H649 C663 0.931 . S
H650 C665 0.930 . S
C651 H639 0.930 . S
C651 C652 1.399 . S
C651 C656 1.399 . S
C652 C651 1.399 . S
C652 C653 1.376 . S
C653 H640 0.930 . S
C653 C652 1.376 . S
C653 C654 1.388 . S
C654 H641 0.930 . S
C654 C653 1.388 . S
C654 C655 1.390 . S
C655 C654 1.390 . S
C655 C656 1.394 . S
C655 C661 1.465 . S
C656 C651 1.399 . S
C656 C655 1.394 . S
C656 C657 1.516 . S
C657 C656 1.516 . S
C657 C658 1.502 . S
C657 C659 1.561 . S
C657 C660 1.526 . S
C658 H642 0.959 . S
C658 H643 0.959 . S
C658 H644 0.961 . S
C658 C657 1.502 . S
C659 H645 0.960 . S
C659 H646 0.961 . S
C659 H647 0.959 . S
C659 C657 1.561 . S
C660 C657 1.526 . S
C660 C661 1.396 . S
C660 C665 1.390 . S
C661 C655 1.465 . S
C661 C660 1.396 . S
C661 C662 1.399 . S
C662 H648 0.929 . S
C662 C661 1.399 . S
C662 C663 1.385 . S
C663 H649 0.931 . S
C663 C662 1.385 . S
C663 C664 1.389 . S
C664 C663 1.389 . S
C664 C665 1.387 . S
C665 H650 0.930 . S
C665 C660 1.390 . S
C665 C664 1.387 . S
H666 C678 0.930 . S
H667 C680 0.930 . S
H668 C681 0.930 . S
H669 C685 0.959 . S
H670 C685 0.959 . S
H671 C685 0.978 . S
H672 C686 0.960 . S
H673 C686 0.961 . S
H674 C686 0.959 . S
H675 C689 0.929 . S
H676 C690 0.931 . S
H677 C692 0.930 . S
C678 H666 0.930 . S
C678 C679 1.399 . S
C678 C683 1.399 . S
C679 C678 1.399 . S
C679 C680 1.376 . S
C680 H667 0.930 . S
C680 C679 1.376 . S
C680 C681 1.388 . S
C681 H668 0.930 . S
C681 C680 1.388 . S
C681 C682 1.390 . S
C682 C681 1.390 . S
C682 C683 1.394 . S
C682 C688 1.465 . S
C683 C678 1.399 . S
C683 C682 1.394 . S
C683 C684 1.516 . S
C684 C683 1.516 . S
C684 C685 1.502 . S
C684 C686 1.561 . S
C684 C687 1.526 . S
C685 H669 0.959 . S
C685 H670 0.959 . S
C685 H671 0.978 . S
C685 C684 1.502 . S
C686 H672 0.960 . S
C686 H673 0.961 . S
C686 H674 0.959 . S
C686 C684 1.561 . S
C687 C684 1.526 . S
C687 C688 1.396 . S
C687 C692 1.390 . S
C688 C682 1.465 . S
C688 C687 1.396 . S
C688 C689 1.399 . S
C689 H675 0.929 . S
C689 C688 1.399 . S
C689 C690 1.385 . S
C690 H676 0.931 . S
C690 C689 1.385 . S
C690 C691 1.389 . S
C691 C690 1.389 . S
C691 C692 1.387 . S
C692 H677 0.930 . S
C692 C687 1.390 . S
C692 C691 1.387 . S
H693 C705 0.930 . S
H694 C707 0.930 . S
H695 C708 0.930 . S
H696 C712 0.959 . S
H697 C712 0.959 . S
H698 C712 0.961 . S
H699 C713 0.960 . S
H700 C713 0.961 . S
H701 C713 0.959 . S
H702 C716 0.929 . S
H703 C717 0.931 . S
H704 C719 0.930 . S
C705 H693 0.930 . S
C705 C706 1.399 . S
C705 C710 1.399 . S
C706 C705 1.399 . S
C706 C707 1.376 . S
C707 H694 0.930 . S
C707 C706 1.376 . S
C707 C708 1.388 . S
C708 H695 0.930 . S
C708 C707 1.388 . S
C708 C709 1.390 . S
C709 C708 1.390 . S
C709 C710 1.394 . S
C709 C715 1.465 . S
C710 C705 1.399 . S
C710 C709 1.394 . S
C710 C711 1.516 . S
C711 C710 1.516 . S
C711 C712 1.502 . S
C711 C713 1.561 . S
C711 C714 1.526 . S
C712 H696 0.959 . S
C712 H697 0.959 . S
C712 H698 0.961 . S
C712 C711 1.502 . S
C713 H699 0.960 . S
C713 H700 0.961 . S
C713 H701 0.959 . S
C713 C711 1.561 . S
C714 C711 1.526 . S
C714 C715 1.396 . S
C714 C719 1.390 . S
C715 C709 1.465 . S
C715 C714 1.396 . S
C715 C716 1.399 . S
C716 H702 0.929 . S
C716 C715 1.399 . S
C716 C717 1.385 . S
C717 H703 0.931 . S
C717 C716 1.385 . S
C717 C718 1.389 . S
C718 C717 1.389 . S
C718 C719 1.387 . S
C719 H704 0.930 . S
C719 C714 1.390 . S
C719 C718 1.387 . S
H720 C732 0.930 . S
H721 C734 0.930 . S
H722 C735 0.930 . S
H723 C739 0.959 . S
H724 C739 0.959 . S
H725 C739 0.961 . S
H726 C740 0.960 . S
H727 C740 0.961 . S
H728 C740 0.959 . S
H729 C743 0.929 . S
H730 C744 0.931 . S
H731 C746 0.930 . S
C732 H720 0.930 . S
C732 C733 1.399 . S
C732 C737 1.399 . S
C733 C732 1.399 . S
C733 C734 1.376 . S
C734 H721 0.930 . S
C734 C733 1.376 . S
C734 C735 1.388 . S
C735 H722 0.930 . S
C735 C734 1.388 . S
C735 C736 1.390 . S
C736 C735 1.390 . S
C736 C737 1.394 . S
C736 C742 1.465 . S
C737 C732 1.399 . S
C737 C736 1.394 . S
C737 C738 1.516 . S
C738 C737 1.516 . S
C738 C739 1.502 . S
C738 C740 1.561 . S
C738 C741 1.526 . S
C739 H723 0.959 . S
C739 H724 0.959 . S
C739 H725 0.961 . S
C739 C738 1.502 . S
C740 H726 0.960 . S
C740 H727 0.961 . S
C740 H728 0.959 . S
C740 C738 1.561 . S
C741 C738 1.526 . S
C741 C742 1.396 . S
C741 C746 1.390 . S
C742 C736 1.465 . S
C742 C741 1.396 . S
C742 C743 1.399 . S
C743 H729 0.929 . S
C743 C742 1.399 . S
C743 C744 1.385 . S
C744 H730 0.931 . S
C744 C743 1.385 . S
C744 C745 1.389 . S
C745 C744 1.389 . S
C745 C746 1.387 . S
C746 H731 0.930 . S
C746 C741 1.390 . S
C746 C745 1.387 . S
H747 C759 0.930 . S
H748 C761 0.930 . S
H749 C762 0.930 . S
H750 C766 0.959 . S
H751 C766 0.959 . S
H752 C766 0.961 . S
H753 C767 0.960 1_556 S
H754 C767 0.961 . S
H755 C767 0.959 . S
H756 C770 0.929 . S
H757 C771 0.931 . S
H758 C773 0.930 . S
C759 H747 0.930 . S
C759 C760 1.399 . S
C759 C764 1.399 . S
C760 C759 1.399 . S
C760 C761 1.376 . S
C761 H748 0.930 . S
C761 C760 1.376 . S
C761 C762 1.388 . S
C762 H749 0.930 . S
C762 C761 1.388 . S
C762 C763 1.390 . S
C763 C762 1.390 . S
C763 C764 1.394 . S
C763 C769 1.465 . S
C764 C759 1.399 . S
C764 C763 1.394 . S
C764 C765 1.516 . S
C765 C764 1.516 . S
C765 C766 1.502 . S
C765 C767 1.561 . S
C765 C768 1.526 . S
C766 H750 0.959 . S
C766 H751 0.959 . S
C766 H752 0.961 . S
C766 C765 1.502 . S
C767 H753 0.960 1_554 S
C767 H754 0.961 . S
C767 H755 0.959 . S
C767 C765 1.561 . S
C768 C765 1.526 . S
C768 C769 1.396 . S
C768 C773 1.390 . S
C769 C763 1.465 . S
C769 C768 1.396 . S
C769 C770 1.399 . S
C770 H756 0.929 . S
C770 C769 1.399 . S
C770 C771 1.385 . S
C771 H757 0.931 . S
C771 C770 1.385 . S
C771 C772 1.389 . S
C772 C771 1.389 . S
C772 C773 1.387 . S
C773 H758 0.930 . S
C773 C768 1.390 . S
C773 C772 1.387 . S
H774 C786 0.930 . S
H775 C788 0.930 . S
H776 C789 0.930 . S
H777 C793 0.959 . S
H778 C793 0.959 . S
H779 C793 0.961 1_556 S
H780 C794 0.960 . S
H781 C794 0.961 . S
H782 C794 0.959 . S
H783 C797 0.929 . S
H784 C798 0.931 . S
H785 C800 0.930 . S
C786 H774 0.930 . S
C786 C787 1.399 . S
C786 C791 1.399 . S
C787 C786 1.399 . S
C787 C788 1.376 . S
C788 H775 0.930 . S
C788 C787 1.376 . S
C788 C789 1.388 . S
C789 H776 0.930 . S
C789 C788 1.388 . S
C789 C790 1.390 . S
C790 C789 1.390 . S
C790 C791 1.394 . S
C790 C796 1.465 . S
C791 C786 1.399 . S
C791 C790 1.394 . S
C791 C792 1.516 . S
C792 C791 1.516 . S
C792 C793 1.502 . S
C792 C794 1.561 . S
C792 C795 1.526 . S
C793 H777 0.959 . S
C793 H778 0.959 . S
C793 H779 0.961 1_554 S
C793 C792 1.502 . S
C794 H780 0.960 . S
C794 H781 0.961 . S
C794 H782 0.959 . S
C794 C792 1.561 . S
C795 C792 1.526 . S
C795 C796 1.396 . S
C795 C800 1.390 . S
C796 C790 1.465 . S
C796 C795 1.396 . S
C796 C797 1.399 . S
C797 H783 0.929 . S
C797 C796 1.399 . S
C797 C798 1.385 . S
C798 H784 0.931 . S
C798 C797 1.385 . S
C798 C799 1.389 . S
C799 C798 1.389 . S
C799 C800 1.387 . S
C800 H785 0.930 . S
C800 C795 1.390 . S
C800 C799 1.387 . S
H801 C813 0.930 . S
H802 C815 0.930 . S
H803 C816 0.930 . S
H804 C820 0.959 . S
H805 C820 0.959 1_556 S
H806 C820 0.961 . S
H807 C821 0.960 . S
H808 C821 0.961 . S
H809 C821 0.959 . S
H810 C824 0.929 . S
H811 C825 0.931 . S
H812 C827 0.930 . S
C813 H801 0.930 . S
C813 C814 1.399 . S
C813 C818 1.399 . S
C814 C813 1.399 . S
C814 C815 1.376 . S
C815 H802 0.930 . S
C815 C814 1.376 . S
C815 C816 1.388 . S
C816 H803 0.930 . S
C816 C815 1.388 . S
C816 C817 1.390 . S
C817 C816 1.390 . S
C817 C818 1.394 . S
C817 C823 1.465 . S
C818 C813 1.399 . S
C818 C817 1.394 . S
C818 C819 1.516 . S
C819 C818 1.516 . S
C819 C820 1.502 . S
C819 C821 1.561 . S
C819 C822 1.526 . S
C820 H804 0.959 . S
C820 H805 0.959 1_554 S
C820 H806 0.961 . S
C820 C819 1.502 . S
C821 H807 0.960 . S
C821 H808 0.961 . S
C821 H809 0.959 . S
C821 C819 1.561 . S
C822 C819 1.526 . S
C822 C823 1.396 . S
C822 C827 1.390 . S
C823 C817 1.465 . S
C823 C822 1.396 . S
C823 C824 1.399 . S
C824 H810 0.929 . S
C824 C823 1.399 . S
C824 C825 1.385 . S
C825 H811 0.931 . S
C825 C824 1.385 . S
C825 C826 1.389 . S
C826 C825 1.389 . S
C826 C827 1.387 . S
C827 H812 0.930 . S
C827 C822 1.390 . S
C827 C826 1.387 . S
H828 C840 0.930 . S
H829 C842 0.930 . S
H830 C843 0.930 . S
H831 C847 0.959 . S
H832 C847 0.959 . S
H833 C847 0.961 . S
H834 C848 0.960 . S
H835 C848 0.961 . S
H836 C848 0.959 . S
H837 C851 0.929 . S
H838 C852 0.931 . S
H839 C854 0.930 . S
C840 H828 0.930 . S
C840 C841 1.399 . S
C840 C845 1.399 . S
C841 C840 1.399 . S
C841 C842 1.376 . S
C842 H829 0.930 . S
C842 C841 1.376 . S
C842 C843 1.388 . S
C843 H830 0.930 . S
C843 C842 1.388 . S
C843 C844 1.390 . S
C844 C843 1.390 . S
C844 C845 1.394 . S
C844 C850 1.465 . S
C845 C840 1.399 . S
C845 C844 1.394 . S
C845 C846 1.516 . S
C846 C845 1.516 . S
C846 C847 1.502 . S
C846 C848 1.561 . S
C846 C849 1.526 . S
C847 H831 0.959 . S
C847 H832 0.959 . S
C847 H833 0.961 . S
C847 C846 1.502 . S
C848 H834 0.960 . S
C848 H835 0.961 . S
C848 H836 0.959 . S
C848 C846 1.561 . S
C849 C846 1.526 . S
C849 C850 1.396 . S
C849 C854 1.390 . S
C850 C844 1.465 . S
C850 C849 1.396 . S
C850 C851 1.399 . S
C851 H837 0.929 . S
C851 C850 1.399 . S
C851 C852 1.385 . S
C852 H838 0.931 . S
C852 C851 1.385 . S
C852 C853 1.389 . S
C853 C852 1.389 . S
C853 C854 1.387 . S
C854 H839 0.930 . S
C854 C849 1.390 . S
C854 C853 1.387 . S
H855 C867 0.930 . S
H856 C869 0.930 . S
H857 C870 0.930 . S
H858 C874 0.959 . S
H859 C874 0.959 . S
H860 C874 0.961 . S
H861 C875 0.954 1_545 S
H862 C875 0.961 . S
H863 C875 0.959 . S
H864 C878 0.929 . S
H865 C879 0.931 . S
H866 C881 0.930 . S
C867 H855 0.930 . S
C867 C868 1.399 . S
C867 C872 1.399 . S
C868 C867 1.399 . S
C868 C869 1.376 . S
C869 H856 0.930 . S
C869 C868 1.376 . S
C869 C870 1.388 . S
C870 H857 0.930 . S
C870 C869 1.388 . S
C870 C871 1.390 . S
C871 C870 1.390 . S
C871 C872 1.394 . S
C871 C877 1.465 . S
C872 C867 1.399 . S
C872 C871 1.394 . S
C872 C873 1.516 . S
C873 C872 1.516 . S
C873 C874 1.502 . S
C873 C875 1.561 . S
C873 C876 1.526 . S
C874 H858 0.959 . S
C874 H859 0.959 . S
C874 H860 0.961 . S
C874 C873 1.502 . S
C875 H861 0.954 1_565 S
C875 H862 0.961 . S
C875 H863 0.959 . S
C875 C873 1.561 . S
C876 C873 1.526 . S
C876 C877 1.396 . S
C876 C881 1.390 . S
C877 C871 1.465 . S
C877 C876 1.396 . S
C877 C878 1.399 . S
C878 H864 0.929 . S
C878 C877 1.399 . S
C878 C879 1.385 . S
C879 H865 0.931 . S
C879 C878 1.385 . S
C879 C880 1.389 . S
C880 C879 1.389 . S
C880 C881 1.387 . S
C881 H866 0.930 . S
C881 C876 1.390 . S
C881 C880 1.387 . S
H882 C894 0.930 . S
H883 C896 0.930 . S
H884 C897 0.930 . S
H885 C901 0.959 . S
H886 C901 0.959 . S
H887 C901 0.961 . S
H888 C902 0.960 . S
H889 C902 0.961 . S
H890 C902 0.959 . S
H891 C905 0.929 . S
H892 C906 0.931 1_655 S
H893 C908 0.930 . S
C894 H882 0.930 . S
C894 C895 1.399 . S
C894 C899 1.399 . S
C895 C894 1.399 . S
C895 C896 1.376 . S
C896 H883 0.930 . S
C896 C895 1.376 . S
C896 C897 1.388 . S
C897 H884 0.930 . S
C897 C896 1.388 . S
C897 C898 1.390 . S
C898 C897 1.390 . S
C898 C899 1.394 . S
C898 C904 1.465 . S
C899 C894 1.399 . S
C899 C898 1.394 . S
C899 C900 1.516 . S
C900 C899 1.516 . S
C900 C901 1.502 . S
C900 C902 1.561 . S
C900 C903 1.526 . S
C901 H885 0.959 . S
C901 H886 0.959 . S
C901 H887 0.961 . S
C901 C900 1.502 . S
C902 H888 0.960 . S
C902 H889 0.961 . S
C902 H890 0.959 . S
C902 C900 1.561 . S
C903 C900 1.526 . S
C903 C904 1.396 . S
C903 C908 1.390 . S
C904 C898 1.465 . S
C904 C903 1.396 . S
C904 C905 1.399 . S
C905 H891 0.929 . S
C905 C904 1.399 . S
C905 C906 1.385 . S
C906 H892 0.931 1_455 S
C906 C905 1.385 . S
C906 C907 1.389 . S
C907 C906 1.389 . S
C907 C908 1.387 . S
C908 H893 0.930 . S
C908 C903 1.390 . S
C908 C907 1.387 . S
H909 C921 0.930 . S
H910 C923 0.930 . S
H911 C924 0.930 . S
H912 C928 0.959 . S
H913 C928 0.959 . S
H914 C928 0.961 . S
H915 C929 0.960 . S
H916 C929 0.961 . S
H917 C929 0.959 . S
H918 C932 0.929 . S
H919 C933 0.931 . S
H920 C935 0.930 . S
C921 H909 0.930 . S
C921 C922 1.399 . S
C921 C926 1.399 . S
C922 C921 1.399 . S
C922 C923 1.376 . S
C923 H910 0.930 . S
C923 C922 1.376 . S
C923 C924 1.388 . S
C924 H911 0.930 . S
C924 C923 1.388 . S
C924 C925 1.390 . S
C925 C924 1.390 . S
C925 C926 1.394 . S
C925 C931 1.465 . S
C926 C921 1.399 . S
C926 C925 1.394 . S
C926 C927 1.516 . S
C927 C926 1.516 . S
C927 C928 1.502 . S
C927 C929 1.561 . S
C927 C930 1.526 . S
C928 H912 0.959 . S
C928 H913 0.959 . S
C928 H914 0.961 . S
C928 C927 1.502 . S
C929 H915 0.960 . S
C929 H916 0.961 . S
C929 H917 0.959 . S
C929 C927 1.561 . S
C930 C927 1.526 . S
C930 C931 1.396 . S
C930 C935 1.390 . S
C931 C925 1.465 . S
C931 C930 1.396 . S
C931 C932 1.399 . S
C932 H918 0.929 . S
C932 C931 1.399 . S
C932 C933 1.385 . S
C933 H919 0.931 . S
C933 C932 1.385 . S
C933 C934 1.389 . S
C934 C933 1.389 . S
C934 C935 1.387 . S
C935 H920 0.930 . S
C935 C930 1.390 . S
C935 C934 1.387 . S
H936 C948 0.930 . S
H937 C950 0.930 . S
H938 C951 0.930 . S
H939 C955 0.959 . S
H940 C955 0.959 . S
H941 C955 0.961 . S
H942 C956 0.960 . S
H943 C956 0.961 . S
H944 C956 0.959 . S
H945 C959 0.929 . S
H946 C960 0.931 . S
H947 C962 0.930 . S
C948 H936 0.930 . S
C948 C949 1.399 . S
C948 C953 1.399 . S
C949 C948 1.399 . S
C949 C950 1.376 . S
C950 H937 0.930 . S
C950 C949 1.376 . S
C950 C951 1.388 . S
C951 H938 0.930 . S
C951 C950 1.388 . S
C951 C952 1.390 . S
C952 C951 1.390 . S
C952 C953 1.394 . S
C952 C958 1.465 . S
C953 C948 1.399 . S
C953 C952 1.394 . S
C953 C954 1.516 . S
C954 C953 1.516 . S
C954 C955 1.502 . S
C954 C956 1.561 . S
C954 C957 1.526 . S
C955 H939 0.959 . S
C955 H940 0.959 . S
C955 H941 0.961 . S
C955 C954 1.502 . S
C956 H942 0.960 . S
C956 H943 0.961 . S
C956 H944 0.959 . S
C956 C954 1.561 . S
C957 C954 1.526 . S
C957 C958 1.396 . S
C957 C962 1.390 . S
C958 C952 1.465 . S
C958 C957 1.396 . S
C958 C959 1.399 . S
C959 H945 0.929 . S
C959 C958 1.399 . S
C959 C960 1.385 . S
C960 H946 0.931 . S
C960 C959 1.385 . S
C960 C961 1.389 . S
C961 C960 1.389 . S
C961 C962 1.387 . S
C962 H947 0.930 . S
C962 C957 1.390 . S
C962 C961 1.387 . S
H963 C975 0.930 . S
H964 C977 0.930 . S
H965 C978 0.930 . S
H966 C982 0.959 . S
H967 C982 0.959 . S
H968 C982 0.961 . S
H969 C983 0.960 . S
H970 C983 0.961 . S
H971 C983 0.959 . S
H972 C986 0.929 . S
H973 C987 0.931 . S
H974 C989 0.930 . S
C975 H963 0.930 . S
C975 C976 1.399 . S
C975 C980 1.399 . S
C976 C975 1.399 . S
C976 C977 1.376 . S
C977 H964 0.930 . S
C977 C976 1.376 . S
C977 C978 1.388 . S
C978 H965 0.930 . S
C978 C977 1.388 . S
C978 C979 1.390 . S
C979 C978 1.390 . S
C979 C980 1.394 . S
C979 C985 1.465 . S
C980 C975 1.399 . S
C980 C979 1.394 . S
C980 C981 1.516 . S
C981 C980 1.516 . S
C981 C982 1.502 . S
C981 C983 1.561 . S
C981 C984 1.526 . S
C982 H966 0.959 . S
C982 H967 0.959 . S
C982 H968 0.961 . S
C982 C981 1.502 . S
C983 H969 0.960 . S
C983 H970 0.961 . S
C983 H971 0.959 . S
C983 C981 1.561 . S
C984 C981 1.526 . S
C984 C985 1.396 . S
C984 C989 1.390 . S
C985 C979 1.465 . S
C985 C984 1.396 . S
C985 C986 1.399 . S
C986 H972 0.929 . S
C986 C985 1.399 . S
C986 C987 1.385 . S
C987 H973 0.931 . S
C987 C986 1.385 . S
C987 C988 1.389 . S
C988 C987 1.389 . S
C988 C989 1.387 . S
C989 H974 0.930 . S
C989 C984 1.390 . S
C989 C988 1.387 . S
H990 C1002 0.930 . S
H991 C1004 0.930 . S
H992 C1005 0.930 . S
H993 C1009 0.959 . S
H994 C1009 0.959 . S
H995 C1009 0.961 . S
H996 C1010 0.960 . S
H997 C1010 0.961 . S
H998 C1010 0.959 . S
H999 C1013 0.929 . S
H1000 C1014 0.931 . S
H1001 C1016 0.930 . S
C1002 H990 0.930 . S
C1002 C1003 1.399 . S
C1002 C1007 1.399 . S
C1003 C1002 1.399 . S
C1003 C1004 1.376 . S
C1004 H991 0.930 . S
C1004 C1003 1.376 . S
C1004 C1005 1.388 . S
C1005 H992 0.930 . S
C1005 C1004 1.388 . S
C1005 C1006 1.390 . S
C1006 C1005 1.390 . S
C1006 C1007 1.394 . S
C1006 C1012 1.465 . S
C1007 C1002 1.399 . S
C1007 C1006 1.394 . S
C1007 C1008 1.516 . S
C1008 C1007 1.516 . S
C1008 C1009 1.502 . S
C1008 C1010 1.561 . S
C1008 C1011 1.526 . S
C1009 H993 0.959 . S
C1009 H994 0.959 . S
C1009 H995 0.961 . S
C1009 C1008 1.502 . S
C1010 H996 0.960 . S
C1010 H997 0.961 . S
C1010 H998 0.959 . S
C1010 C1008 1.561 . S
C1011 C1008 1.526 . S
C1011 C1012 1.396 . S
C1011 C1016 1.390 . S
C1012 C1006 1.465 . S
C1012 C1011 1.396 . S
C1012 C1013 1.399 . S
C1013 H999 0.929 . S
C1013 C1012 1.399 . S
C1013 C1014 1.385 . S
C1014 H1000 0.931 . S
C1014 C1013 1.385 . S
C1014 C1015 1.389 . S
C1015 C1014 1.389 . S
C1015 C1016 1.387 . S
C1016 H1001 0.930 . S
C1016 C1011 1.390 . S
C1016 C1015 1.387 . S
H1017 C1029 0.930 . S
H1018 C1031 0.930 . S
H1019 C1032 0.930 . S
H1020 C1036 0.959 . S
H1021 C1036 0.959 . S
H1022 C1036 0.961 . S
H1023 C1037 0.960 . S
H1024 C1037 0.961 . S
H1025 C1037 0.959 . S
H1026 C1040 0.929 . S
H1027 C1041 0.931 . S
H1028 C1043 0.930 . S
C1029 H1017 0.930 . S
C1029 C1030 1.399 . S
C1029 C1034 1.399 . S
C1030 C1029 1.399 . S
C1030 C1031 1.376 . S
C1031 H1018 0.930 . S
C1031 C1030 1.376 . S
C1031 C1032 1.388 . S
C1032 H1019 0.930 . S
C1032 C1031 1.388 . S
C1032 C1033 1.390 . S
C1033 C1032 1.390 . S
C1033 C1034 1.394 . S
C1033 C1039 1.465 . S
C1034 C1029 1.399 . S
C1034 C1033 1.394 . S
C1034 C1035 1.516 . S
C1035 C1034 1.516 . S
C1035 C1036 1.502 . S
C1035 C1037 1.561 . S
C1035 C1038 1.526 . S
C1036 H1020 0.959 . S
C1036 H1021 0.959 . S
C1036 H1022 0.961 . S
C1036 C1035 1.502 . S
C1037 H1023 0.960 . S
C1037 H1024 0.961 . S
C1037 H1025 0.959 . S
C1037 C1035 1.561 . S
C1038 C1035 1.526 . S
C1038 C1039 1.396 . S
C1038 C1043 1.390 . S
C1039 C1033 1.465 . S
C1039 C1038 1.396 . S
C1039 C1040 1.399 . S
C1040 H1026 0.929 . S
C1040 C1039 1.399 . S
C1040 C1041 1.385 . S
C1041 H1027 0.931 . S
C1041 C1040 1.385 . S
C1041 C1042 1.389 . S
C1042 C1041 1.389 . S
C1042 C1043 1.387 . S
C1043 H1028 0.930 . S
C1043 C1038 1.390 . S
C1043 C1042 1.387 . S
H1044 C1056 0.930 . S
H1045 C1058 0.930 . S
H1046 C1059 0.930 . S
H1047 C1063 0.959 . S
H1048 C1063 0.959 . S
H1049 C1063 0.961 . S
H1050 C1064 0.960 . S
H1051 C1064 0.961 . S
H1052 C1064 0.959 . S
H1053 C1067 0.929 . S
H1054 C1068 0.931 . S
H1055 C1070 0.930 . S
C1056 H1044 0.930 . S
C1056 C1057 1.399 . S
C1056 C1061 1.399 . S
C1057 C1056 1.399 . S
C1057 C1058 1.376 . S
C1058 H1045 0.930 . S
C1058 C1057 1.376 . S
C1058 C1059 1.388 . S
C1059 H1046 0.930 . S
C1059 C1058 1.388 . S
C1059 C1060 1.390 . S
C1060 C1059 1.390 . S
C1060 C1061 1.394 . S
C1060 C1066 1.465 . S
C1061 C1056 1.399 . S
C1061 C1060 1.394 . S
C1061 C1062 1.516 . S
C1062 C1061 1.516 . S
C1062 C1063 1.502 . S
C1062 C1064 1.561 . S
C1062 C1065 1.526 . S
C1063 H1047 0.959 . S
C1063 H1048 0.959 . S
C1063 H1049 0.961 . S
C1063 C1062 1.502 . S
C1064 H1050 0.960 . S
C1064 H1051 0.961 . S
C1064 H1052 0.959 . S
C1064 C1062 1.561 . S
C1065 C1062 1.526 . S
C1065 C1066 1.396 . S
C1065 C1070 1.390 . S
C1066 C1060 1.465 . S
C1066 C1065 1.396 . S
C1066 C1067 1.399 . S
C1067 H1053 0.929 . S
C1067 C1066 1.399 . S
C1067 C1068 1.385 . S
C1068 H1054 0.931 . S
C1068 C1067 1.385 . S
C1068 C1069 1.389 . S
C1069 C1068 1.389 . S
C1069 C1070 1.387 . S
C1070 H1055 0.930 . S
C1070 C1065 1.390 . S
C1070 C1069 1.387 . S
H1071 C1083 0.930 . S
H1072 C1085 0.930 . S
H1073 C1086 0.930 . S
H1074 C1090 0.959 . S
H1075 C1090 0.959 . S
H1076 C1090 0.961 . S
H1077 C1091 0.960 . S
H1078 C1091 0.961 . S
H1079 C1091 0.959 . S
H1080 C1094 0.929 . S
H1081 C1095 0.931 . S
H1082 C1097 0.930 . S
C1083 H1071 0.930 . S
C1083 C1084 1.399 . S
C1083 C1088 1.399 . S
C1084 C1083 1.399 . S
C1084 C1085 1.376 . S
C1085 H1072 0.930 . S
C1085 C1084 1.376 . S
C1085 C1086 1.388 . S
C1086 H1073 0.930 . S
C1086 C1085 1.388 . S
C1086 C1087 1.390 . S
C1087 C1086 1.390 . S
C1087 C1088 1.394 . S
C1087 C1093 1.465 . S
C1088 C1083 1.399 . S
C1088 C1087 1.394 . S
C1088 C1089 1.516 . S
C1089 C1088 1.516 . S
C1089 C1090 1.502 . S
C1089 C1091 1.561 . S
C1089 C1092 1.526 . S
C1090 H1074 0.959 . S
C1090 H1075 0.959 . S
C1090 H1076 0.961 . S
C1090 C1089 1.502 . S
C1091 H1077 0.960 . S
C1091 H1078 0.961 . S
C1091 H1079 0.959 . S
C1091 C1089 1.561 . S
C1092 C1089 1.526 . S
C1092 C1093 1.396 . S
C1092 C1097 1.390 . S
C1093 C1087 1.465 . S
C1093 C1092 1.396 . S
C1093 C1094 1.399 . S
C1094 H1080 0.929 . S
C1094 C1093 1.399 . S
C1094 C1095 1.385 1_554 S
C1095 H1081 0.931 . S
C1095 C1094 1.385 1_556 S
C1095 C1096 1.389 . S
C1096 C1095 1.389 . S
C1096 C1097 1.387 1_556 S
C1097 H1082 0.930 . S
C1097 C1092 1.390 . S
C1097 C1096 1.387 1_554 S
H1098 C1110 0.930 . S
H1099 C1112 0.930 . S
H1100 C1113 0.930 . S
H1101 C1117 0.959 . S
H1102 C1117 0.959 . S
H1103 C1117 0.961 . S
H1104 C1118 0.960 . S
H1105 C1118 0.961 . S
H1106 C1118 0.959 . S
H1107 C1121 0.929 . S
H1108 C1122 0.931 1_556 S
H1109 C1124 0.930 . S
C1110 H1098 0.930 . S
C1110 C1111 1.399 . S
C1110 C1115 1.399 . S
C1111 C1110 1.399 . S
C1111 C1112 1.376 . S
C1112 H1099 0.930 . S
C1112 C1111 1.376 . S
C1112 C1113 1.388 . S
C1113 H1100 0.930 . S
C1113 C1112 1.388 . S
C1113 C1114 1.390 . S
C1114 C1113 1.390 . S
C1114 C1115 1.394 . S
C1114 C1120 1.465 . S
C1115 C1110 1.399 . S
C1115 C1114 1.394 . S
C1115 C1116 1.516 . S
C1116 C1115 1.516 . S
C1116 C1117 1.502 . S
C1116 C1118 1.561 . S
C1116 C1119 1.526 . S
C1117 H1101 0.959 . S
C1117 H1102 0.959 . S
C1117 H1103 0.961 . S
C1117 C1116 1.502 . S
C1118 H1104 0.960 . S
C1118 H1105 0.961 . S
C1118 H1106 0.959 . S
C1118 C1116 1.561 . S
C1119 C1116 1.526 . S
C1119 C1120 1.396 . S
C1119 C1124 1.390 . S
C1120 C1114 1.465 . S
C1120 C1119 1.396 . S
C1120 C1121 1.399 . S
C1121 H1107 0.929 . S
C1121 C1120 1.399 . S
C1121 C1122 1.385 . S
C1122 H1108 0.931 1_554 S
C1122 C1121 1.385 . S
C1122 C1123 1.389 1_554 S
C1123 C1122 1.389 1_556 S
C1123 C1124 1.387 1_556 S
C1124 H1109 0.930 . S
C1124 C1119 1.390 . S
C1124 C1123 1.387 1_554 S
H1125 C1137 0.930 . S
H1126 C1139 0.930 . S
H1127 C1140 0.930 . S
H1128 C1144 0.959 . S
H1129 C1144 0.959 . S
H1130 C1144 0.961 . S
H1131 C1145 0.960 . S
H1132 C1145 0.961 . S
H1133 C1145 0.959 . S
H1134 C1148 0.929 . S
H1135 C1149 0.931 . S
H1136 C1151 0.930 . S
C1137 H1125 0.930 . S
C1137 C1138 1.399 . S
C1137 C1142 1.399 . S
C1138 C1137 1.399 . S
C1138 C1139 1.376 . S
C1139 H1126 0.930 . S
C1139 C1138 1.376 . S
C1139 C1140 1.388 . S
C1140 H1127 0.930 . S
C1140 C1139 1.388 . S
C1140 C1141 1.390 . S
C1141 C1140 1.390 . S
C1141 C1142 1.394 . S
C1141 C1147 1.465 . S
C1142 C1137 1.399 . S
C1142 C1141 1.394 . S
C1142 C1143 1.516 . S
C1143 C1142 1.516 . S
C1143 C1144 1.502 . S
C1143 C1145 1.561 . S
C1143 C1146 1.526 . S
C1144 H1128 0.959 . S
C1144 H1129 0.959 . S
C1144 H1130 0.961 . S
C1144 C1143 1.502 . S
C1145 H1131 0.960 . S
C1145 H1132 0.961 . S
C1145 H1133 0.959 . S
C1145 C1143 1.561 . S
C1146 C1143 1.526 . S
C1146 C1147 1.396 . S
C1146 C1151 1.390 . S
C1147 C1141 1.465 . S
C1147 C1146 1.396 . S
C1147 C1148 1.399 . S
C1148 H1134 0.929 . S
C1148 C1147 1.399 . S
C1148 C1149 1.385 1_554 S
C1149 H1135 0.931 . S
C1149 C1148 1.385 1_556 S
C1149 C1150 1.389 . S
C1150 C1149 1.389 . S
C1150 C1151 1.387 1_556 S
C1151 H1136 0.930 . S
C1151 C1146 1.390 . S
C1151 C1150 1.387 1_554 S
H1152 C1164 0.930 . S
H1153 C1166 0.930 . S
H1154 C1167 0.930 . S
H1155 C1171 0.959 . S
H1156 C1171 0.959 . S
H1157 C1171 0.961 . S
H1158 C1172 0.960 . S
H1159 C1172 0.961 . S
H1160 C1172 0.959 . S
H1161 C1175 0.929 . S
H1162 C1176 0.931 . S
H1163 C1178 0.930 . S
C1164 H1152 0.930 . S
C1164 C1165 1.399 . S
C1164 C1169 1.399 . S
C1165 C1164 1.399 . S
C1165 C1166 1.376 . S
C1166 H1153 0.930 . S
C1166 C1165 1.376 . S
C1166 C1167 1.388 . S
C1167 H1154 0.930 . S
C1167 C1166 1.388 . S
C1167 C1168 1.390 . S
C1168 C1167 1.390 . S
C1168 C1169 1.394 . S
C1168 C1174 1.465 . S
C1169 C1164 1.399 . S
C1169 C1168 1.394 . S
C1169 C1170 1.516 . S
C1170 C1169 1.516 . S
C1170 C1171 1.502 . S
C1170 C1172 1.561 . S
C1170 C1173 1.526 . S
C1171 H1155 0.959 . S
C1171 H1156 0.959 . S
C1171 H1157 0.961 . S
C1171 C1170 1.502 . S
C1172 H1158 0.960 . S
C1172 H1159 0.961 . S
C1172 H1160 0.959 . S
C1172 C1170 1.561 . S
C1173 C1170 1.526 . S
C1173 C1174 1.396 . S
C1173 C1178 1.390 . S
C1174 C1168 1.465 . S
C1174 C1173 1.396 . S
C1174 C1175 1.399 . S
C1175 H1161 0.929 . S
C1175 C1174 1.399 . S
C1175 C1176 1.385 . S
C1176 H1162 0.931 . S
C1176 C1175 1.385 . S
C1176 C1177 1.389 . S
C1177 C1176 1.389 . S
C1177 C1178 1.387 . S
C1178 H1163 0.930 . S
C1178 C1173 1.390 . S
C1178 C1177 1.387 . S
H1179 C1191 0.930 . S
H1180 C1193 0.930 . S
H1181 C1194 0.930 . S
H1182 C1198 0.959 . S
H1183 C1198 0.959 . S
H1184 C1198 0.961 . S
H1185 C1199 0.960 . S
H1186 C1199 0.961 . S
H1187 C1199 0.959 . S
H1188 C1202 0.929 . S
H1189 C1203 0.931 . S
H1190 C1205 0.930 . S
C1191 H1179 0.930 . S
C1191 C1192 1.399 . S
C1191 C1196 1.399 . S
C1192 C1191 1.399 . S
C1192 C1193 1.376 . S
C1193 H1180 0.930 . S
C1193 C1192 1.376 . S
C1193 C1194 1.388 . S
C1194 H1181 0.930 . S
C1194 C1193 1.388 . S
C1194 C1195 1.390 . S
C1195 C1194 1.390 . S
C1195 C1196 1.394 . S
C1195 C1201 1.465 . S
C1196 C1191 1.399 . S
C1196 C1195 1.394 . S
C1196 C1197 1.516 . S
C1197 C1196 1.516 . S
C1197 C1198 1.502 . S
C1197 C1199 1.561 . S
C1197 C1200 1.526 . S
C1198 H1182 0.959 . S
C1198 H1183 0.959 . S
C1198 H1184 0.961 . S
C1198 C1197 1.502 . S
C1199 H1185 0.960 . S
C1199 H1186 0.961 . S
C1199 H1187 0.959 . S
C1199 C1197 1.561 . S
C1200 C1197 1.526 . S
C1200 C1201 1.396 . S
C1200 C1205 1.390 . S
C1201 C1195 1.465 . S
C1201 C1200 1.396 . S
C1201 C1202 1.399 . S
C1202 H1188 0.929 . S
C1202 C1201 1.399 . S
C1202 C1203 1.385 . S
C1203 H1189 0.931 . S
C1203 C1202 1.385 . S
C1203 C1204 1.389 . S
C1204 C1203 1.389 . S
C1204 C1205 1.387 . S
C1205 H1190 0.930 . S
C1205 C1200 1.390 . S
C1205 C1204 1.387 . S
H1206 C1218 0.930 . S
H1207 C1220 0.930 . S
H1208 C1221 0.930 . S
H1209 C1225 0.959 . S
H1210 C1225 0.959 . S
H1211 C1225 0.961 . S
H1212 C1226 0.960 . S
H1213 C1226 0.961 . S
H1214 C1226 0.959 . S
H1215 C1229 0.929 . S
H1216 C1230 0.931 . S
H1217 C1232 0.930 . S
C1218 H1206 0.930 . S
C1218 C1219 1.399 . S
C1218 C1223 1.399 . S
C1219 C1218 1.399 . S
C1219 C1220 1.376 . S
C1220 H1207 0.930 . S
C1220 C1219 1.376 . S
C1220 C1221 1.388 . S
C1221 H1208 0.930 . S
C1221 C1220 1.388 . S
C1221 C1222 1.390 . S
C1222 C1221 1.390 . S
C1222 C1223 1.394 . S
C1222 C1228 1.465 . S
C1223 C1218 1.399 . S
C1223 C1222 1.394 . S
C1223 C1224 1.516 . S
C1224 C1223 1.516 . S
C1224 C1225 1.502 . S
C1224 C1226 1.561 . S
C1224 C1227 1.526 . S
C1225 H1209 0.959 . S
C1225 H1210 0.959 . S
C1225 H1211 0.961 . S
C1225 C1224 1.502 . S
C1226 H1212 0.960 . S
C1226 H1213 0.961 . S
C1226 H1214 0.959 . S
C1226 C1224 1.561 . S
C1227 C1224 1.526 . S
C1227 C1228 1.396 . S
C1227 C1232 1.390 . S
C1228 C1222 1.465 . S
C1228 C1227 1.396 . S
C1228 C1229 1.399 . S
C1229 H1215 0.929 . S
C1229 C1228 1.399 . S
C1229 C1230 1.385 . S
C1230 H1216 0.931 . S
C1230 C1229 1.385 . S
C1230 C1231 1.389 . S
C1231 C1230 1.389 . S
C1231 C1232 1.387 . S
C1232 H1217 0.930 . S
C1232 C1227 1.390 . S
C1232 C1231 1.387 . S
H1233 C1245 0.930 . S
H1234 C1247 0.930 . S
H1235 C1248 0.930 . S
H1236 C1252 0.959 . S
H1237 C1252 0.959 . S
H1238 C1252 0.961 . S
H1239 C1253 0.960 . S
H1240 C1253 0.961 . S
H1241 C1253 0.959 . S
H1242 C1256 0.929 . S
H1243 C1257 0.931 . S
H1244 C1259 0.930 . S
C1245 H1233 0.930 . S
C1245 C1246 1.399 1_556 S
C1245 C1250 1.399 . S
C1246 C1245 1.399 1_554 S
C1246 C1247 1.376 1_554 S
C1247 H1234 0.930 . S
C1247 C1246 1.376 1_556 S
C1247 C1248 1.388 . S
C1248 H1235 0.930 . S
C1248 C1247 1.388 . S
C1248 C1249 1.390 . S
C1249 C1248 1.390 . S
C1249 C1250 1.394 . S
C1249 C1255 1.465 . S
C1250 C1245 1.399 . S
C1250 C1249 1.394 . S
C1250 C1251 1.516 . S
C1251 C1250 1.516 . S
C1251 C1252 1.502 . S
C1251 C1253 1.561 . S
C1251 C1254 1.526 . S
C1252 H1236 0.959 . S
C1252 H1237 0.959 . S
C1252 H1238 0.961 . S
C1252 C1251 1.502 . S
C1253 H1239 0.960 . S
C1253 H1240 0.961 . S
C1253 H1241 0.959 . S
C1253 C1251 1.561 . S
C1254 C1251 1.526 . S
C1254 C1255 1.396 . S
C1254 C1259 1.390 . S
C1255 C1249 1.465 . S
C1255 C1254 1.396 . S
C1255 C1256 1.399 . S
C1256 H1242 0.929 . S
C1256 C1255 1.399 . S
C1256 C1257 1.385 . S
C1257 H1243 0.931 . S
C1257 C1256 1.385 . S
C1257 C1258 1.389 . S
C1258 C1257 1.389 . S
C1258 C1259 1.387 . S
C1259 H1244 0.930 . S
C1259 C1254 1.390 . S
C1259 C1258 1.387 . S
H1260 C1272 0.930 1_554 S
H1261 C1274 0.930 . S
H1262 C1275 0.930 . S
H1263 C1279 0.959 . S
H1264 C1279 0.959 . S
H1265 C1279 0.961 . S
H1266 C1280 0.960 . S
H1267 C1280 0.961 . S
H1268 C1280 0.959 . S
H1269 C1283 0.929 . S
H1270 C1284 0.931 . S
H1271 C1286 0.930 . S
C1272 H1260 0.930 1_556 S
C1272 C1273 1.399 1_556 S
C1272 C1277 1.399 . S
C1273 C1272 1.399 1_554 S
C1273 C1274 1.376 1_554 S
C1274 H1261 0.930 . S
C1274 C1273 1.376 1_556 S
C1274 C1275 1.388 . S
C1275 H1262 0.930 . S
C1275 C1274 1.388 . S
C1275 C1276 1.390 . S
C1276 C1275 1.390 . S
C1276 C1277 1.394 . S
C1276 C1282 1.465 . S
C1277 C1272 1.399 . S
C1277 C1276 1.394 . S
C1277 C1278 1.516 . S
C1278 C1277 1.516 . S
C1278 C1279 1.502 . S
C1278 C1280 1.561 . S
C1278 C1281 1.526 . S
C1279 H1263 0.959 . S
C1279 H1264 0.959 . S
C1279 H1265 0.961 . S
C1279 C1278 1.502 . S
C1280 H1266 0.960 . S
C1280 H1267 0.961 . S
C1280 H1268 0.959 . S
C1280 C1278 1.561 . S
C1281 C1278 1.526 . S
C1281 C1282 1.396 . S
C1281 C1286 1.390 . S
C1282 C1276 1.465 . S
C1282 C1281 1.396 . S
C1282 C1283 1.399 . S
C1283 H1269 0.929 . S
C1283 C1282 1.399 . S
C1283 C1284 1.385 . S
C1284 H1270 0.931 . S
C1284 C1283 1.385 . S
C1284 C1285 1.389 . S
C1285 C1284 1.389 . S
C1285 C1286 1.387 . S
C1286 H1271 0.930 . S
C1286 C1281 1.390 . S
C1286 C1285 1.387 . S
H1287 C1299 0.930 . S
H1288 C1301 0.930 . S
H1289 C1302 0.930 . S
H1290 C1306 0.959 . S
H1291 C1306 0.959 . S
H1292 C1306 0.961 . S
H1293 C1307 0.960 . S
H1294 C1307 0.961 . S
H1295 C1307 0.959 . S
H1296 C1310 0.929 . S
H1297 C1311 0.931 1_554 S
H1298 C1313 0.930 . S
C1299 H1287 0.930 . S
C1299 C1300 1.399 . S
C1299 C1304 1.399 . S
C1300 C1299 1.399 . S
C1300 C1301 1.376 . S
C1301 H1288 0.930 . S
C1301 C1300 1.376 . S
C1301 C1302 1.388 . S
C1302 H1289 0.930 . S
C1302 C1301 1.388 . S
C1302 C1303 1.390 . S
C1303 C1302 1.390 . S
C1303 C1304 1.394 . S
C1303 C1309 1.465 . S
C1304 C1299 1.399 . S
C1304 C1303 1.394 . S
C1304 C1305 1.516 . S
C1305 C1304 1.516 . S
C1305 C1306 1.502 . S
C1305 C1307 1.561 . S
C1305 C1308 1.526 . S
C1306 H1290 0.959 . S
C1306 H1291 0.959 . S
C1306 H1292 0.961 . S
C1306 C1305 1.502 . S
C1307 H1293 0.960 . S
C1307 H1294 0.961 . S
C1307 H1295 0.959 . S
C1307 C1305 1.561 . S
C1308 C1305 1.526 . S
C1308 C1309 1.396 . S
C1308 C1313 1.390 . S
C1309 C1303 1.465 . S
C1309 C1308 1.396 . S
C1309 C1310 1.399 . S
C1310 H1296 0.929 . S
C1310 C1309 1.399 . S
C1310 C1311 1.385 . S
C1311 H1297 0.931 1_556 S
C1311 C1310 1.385 . S
C1311 C1312 1.389 1_556 S
C1312 C1311 1.389 1_554 S
C1312 C1313 1.387 1_554 S
C1313 H1298 0.930 . S
C1313 C1308 1.390 . S
C1313 C1312 1.387 1_556 S
H1314 C1326 0.926 1_655 S
H1315 C1328 0.930 . S
H1316 C1329 0.930 . S
H1317 C1333 0.959 . S
H1318 C1333 0.959 . S
H1319 C1333 0.961 . S
H1320 C1334 0.960 . S
H1321 C1334 0.961 . S
H1322 C1334 0.959 1_455 S
H1323 C1337 0.929 . S
H1324 C1338 0.931 . S
H1325 C1340 0.930 . S
C1326 H1314 0.926 1_455 S
C1326 C1327 1.399 . S
C1326 C1331 1.399 . S
C1327 C1326 1.399 . S
C1327 C1328 1.376 . S
C1328 H1315 0.930 . S
C1328 C1327 1.376 . S
C1328 C1329 1.388 . S
C1329 H1316 0.930 . S
C1329 C1328 1.388 . S
C1329 C1330 1.390 . S
C1330 C1329 1.390 . S
C1330 C1331 1.394 . S
C1330 C1336 1.465 . S
C1331 C1326 1.399 . S
C1331 C1330 1.394 . S
C1331 C1332 1.516 1_455 S
C1332 C1331 1.516 1_655 S
C1332 C1333 1.502 . S
C1332 C1334 1.561 . S
C1332 C1335 1.526 . S
C1333 H1317 0.959 . S
C1333 H1318 0.959 . S
C1333 H1319 0.961 . S
C1333 C1332 1.502 . S
C1334 H1320 0.960 . S
C1334 H1321 0.961 . S
C1334 H1322 0.959 1_655 S
C1334 C1332 1.561 . S
C1335 C1332 1.526 . S
C1335 C1336 1.396 1_655 S
C1335 C1340 1.390 . S
C1336 C1330 1.465 . S
C1336 C1335 1.396 1_455 S
C1336 C1337 1.399 . S
C1337 H1323 0.929 . S
C1337 C1336 1.399 . S
C1337 C1338 1.385 1_455 S
C1338 H1324 0.931 . S
C1338 C1337 1.385 1_655 S
C1338 C1339 1.389 . S
C1339 C1338 1.389 . S
C1339 C1340 1.387 . S
C1340 H1325 0.930 . S
C1340 C1335 1.390 . S
C1340 C1339 1.387 . S
H1341 C1353 0.930 . S
H1342 C1355 0.930 . S
H1343 C1356 0.930 . S
H1344 C1360 0.959 . S
H1345 C1360 0.959 . S
H1346 C1360 0.961 . S
H1347 C1361 0.960 . S
H1348 C1361 0.961 . S
H1349 C1361 0.959 . S
H1350 C1364 0.929 . S
H1351 C1365 0.931 . S
H1352 C1367 0.930 . S
C1353 H1341 0.930 . S
C1353 C1354 1.399 . S
C1353 C1358 1.399 . S
C1354 C1353 1.399 . S
C1354 C1355 1.376 . S
C1355 H1342 0.930 . S
C1355 C1354 1.376 . S
C1355 C1356 1.388 . S
C1356 H1343 0.930 . S
C1356 C1355 1.388 . S
C1356 C1357 1.390 . S
C1357 C1356 1.390 . S
C1357 C1358 1.394 . S
C1357 C1363 1.465 . S
C1358 C1353 1.399 . S
C1358 C1357 1.394 . S
C1358 C1359 1.516 . S
C1359 C1358 1.516 . S
C1359 C1360 1.502 . S
C1359 C1361 1.561 . S
C1359 C1362 1.526 . S
C1360 H1344 0.959 . S
C1360 H1345 0.959 . S
C1360 H1346 0.961 . S
C1360 C1359 1.502 . S
C1361 H1347 0.960 . S
C1361 H1348 0.961 . S
C1361 H1349 0.959 . S
C1361 C1359 1.561 . S
C1362 C1359 1.526 . S
C1362 C1363 1.396 . S
C1362 C1367 1.390 . S
C1363 C1357 1.465 . S
C1363 C1362 1.396 . S
C1363 C1364 1.399 . S
C1364 H1350 0.929 . S
C1364 C1363 1.399 . S
C1364 C1365 1.385 . S
C1365 H1351 0.931 . S
C1365 C1364 1.385 . S
C1365 C1366 1.389 . S
C1366 C1365 1.389 . S
C1366 C1367 1.387 . S
C1367 H1352 0.930 . S
C1367 C1362 1.390 . S
C1367 C1366 1.387 . S
H1368 C1380 0.930 . S
H1369 C1382 0.930 . S
H1370 C1383 0.930 . S
H1371 C1387 0.959 . S
H1372 C1387 0.959 . S
H1373 C1387 0.961 . S
H1374 C1388 0.960 . S
H1375 C1388 0.961 . S
H1376 C1388 0.959 . S
H1377 C1391 0.929 . S
H1378 C1392 0.931 . S
H1379 C1394 0.930 1_545 S
C1380 H1368 0.930 . S
C1380 C1381 1.399 . S
C1380 C1385 1.399 . S
C1381 C1380 1.399 . S
C1381 C1382 1.376 1_545 S
C1382 H1369 0.930 . S
C1382 C1381 1.376 1_565 S
C1382 C1383 1.388 . S
C1383 H1370 0.930 . S
C1383 C1382 1.388 . S
C1383 C1384 1.390 . S
C1384 C1383 1.390 . S
C1384 C1385 1.394 1_565 S
C1384 C1390 1.465 . S
C1385 C1380 1.399 . S
C1385 C1384 1.394 1_545 S
C1385 C1386 1.516 . S
C1386 C1385 1.516 . S
C1386 C1387 1.502 . S
C1386 C1388 1.561 . S
C1386 C1389 1.526 . S
C1387 H1371 0.959 . S
C1387 H1372 0.959 . S
C1387 H1373 0.961 . S
C1387 C1386 1.502 . S
C1388 H1374 0.960 . S
C1388 H1375 0.961 . S
C1388 H1376 0.959 . S
C1388 C1386 1.561 . S
C1389 C1386 1.526 . S
C1389 C1390 1.396 1_545 S
C1389 C1394 1.390 1_545 S
C1390 C1384 1.465 . S
C1390 C1389 1.396 1_565 S
C1390 C1391 1.399 . S
C1391 H1377 0.929 . S
C1391 C1390 1.399 . S
C1391 C1392 1.385 . S
C1392 H1378 0.931 . S
C1392 C1391 1.385 . S
C1392 C1393 1.389 . S
C1393 C1392 1.389 . S
C1393 C1394 1.387 . S
C1394 H1379 0.930 1_565 S
C1394 C1389 1.390 1_565 S
C1394 C1393 1.387 . S
H1395 C1407 0.930 . S
H1396 C1409 0.930 . S
H1397 C1410 0.930 . S
H1398 C1414 0.959 . S
H1399 C1414 0.959 . S
H1400 C1414 0.961 . S
H1401 C1415 0.960 . S
H1402 C1415 0.961 . S
H1403 C1415 0.959 . S
H1404 C1418 0.929 . S
H1405 C1419 0.931 . S
H1406 C1421 0.930 1_565 S
C1407 H1395 0.930 . S
C1407 C1408 1.399 . S
C1407 C1412 1.399 . S
C1408 C1407 1.399 . S
C1408 C1409 1.376 1_565 S
C1409 H1396 0.930 . S
C1409 C1408 1.376 1_545 S
C1409 C1410 1.388 . S
C1410 H1397 0.930 . S
C1410 C1409 1.388 . S
C1410 C1411 1.390 . S
C1411 C1410 1.390 . S
C1411 C1412 1.394 1_545 S
C1411 C1417 1.465 . S
C1412 C1407 1.399 . S
C1412 C1411 1.394 1_565 S
C1412 C1413 1.516 . S
C1413 C1412 1.516 . S
C1413 C1414 1.502 . S
C1413 C1415 1.561 . S
C1413 C1416 1.526 . S
C1414 H1398 0.959 . S
C1414 H1399 0.959 . S
C1414 H1400 0.961 . S
C1414 C1413 1.502 . S
C1415 H1401 0.960 . S
C1415 H1402 0.961 . S
C1415 H1403 0.959 . S
C1415 C1413 1.561 . S
C1416 C1413 1.526 . S
C1416 C1417 1.396 1_565 S
C1416 C1421 1.390 1_565 S
C1417 C1411 1.465 . S
C1417 C1416 1.396 1_545 S
C1417 C1418 1.399 . S
C1418 H1404 0.929 . S
C1418 C1417 1.399 . S
C1418 C1419 1.385 . S
C1419 H1405 0.931 . S
C1419 C1418 1.385 . S
C1419 C1420 1.389 . S
C1420 C1419 1.389 . S
C1420 C1421 1.387 . S
C1421 H1406 0.930 1_545 S
C1421 C1416 1.390 1_545 S
C1421 C1420 1.387 . S
H1422 C1434 0.930 . S
H1423 C1436 0.930 . S
H1424 C1437 0.930 . S
H1425 C1441 0.959 . S
H1426 C1441 0.959 . S
H1427 C1441 0.961 . S
H1428 C1442 0.960 . S
H1429 C1442 0.961 . S
H1430 C1442 0.959 . S
H1431 C1445 0.929 . S
H1432 C1446 0.931 . S
H1433 C1448 0.930 . S
C1434 H1422 0.930 . S
C1434 C1435 1.399 . S
C1434 C1439 1.399 . S
C1435 C1434 1.399 . S
C1435 C1436 1.376 . S
C1436 H1423 0.930 . S
C1436 C1435 1.376 . S
C1436 C1437 1.388 . S
C1437 H1424 0.930 . S
C1437 C1436 1.388 . S
C1437 C1438 1.390 . S
C1438 C1437 1.390 . S
C1438 C1439 1.394 . S
C1438 C1444 1.465 1_655 S
C1439 C1434 1.399 . S
C1439 C1438 1.394 . S
C1439 C1440 1.516 . S
C1440 C1439 1.516 . S
C1440 C1441 1.502 1_655 S
C1440 C1442 1.561 . S
C1440 C1443 1.526 1_655 S
C1441 H1425 0.959 . S
C1441 H1426 0.959 . S
C1441 H1427 0.961 . S
C1441 C1440 1.502 1_455 S
C1442 H1428 0.960 . S
C1442 H1429 0.961 . S
C1442 H1430 0.959 . S
C1442 C1440 1.561 . S
C1443 C1440 1.526 1_455 S
C1443 C1444 1.396 . S
C1443 C1448 1.390 . S
C1444 C1438 1.465 1_455 S
C1444 C1443 1.396 . S
C1444 C1445 1.399 . S
C1445 H1431 0.929 . S
C1445 C1444 1.399 . S
C1445 C1446 1.385 . S
C1446 H1432 0.931 . S
C1446 C1445 1.385 . S
C1446 C1447 1.389 . S
C1447 C1446 1.389 . S
C1447 C1448 1.387 . S
C1448 H1433 0.930 . S
C1448 C1443 1.390 . S
C1448 C1447 1.387 . S
H1449 C1461 0.930 . S
H1450 C1463 0.930 . S
H1451 C1464 0.930 . S
H1452 C1468 0.959 . S
H1453 C1468 0.959 . S
H1454 C1468 0.961 . S
H1455 C1469 0.960 . S
H1456 C1469 0.961 . S
H1457 C1469 0.959 . S
H1458 C1472 0.929 . S
H1459 C1473 0.931 . S
H1460 C1475 0.930 . S
C1461 H1449 0.930 . S
C1461 C1462 1.399 . S
C1461 C1466 1.399 . S
C1462 C1461 1.399 . S
C1462 C1463 1.376 . S
C1463 H1450 0.930 . S
C1463 C1462 1.376 . S
C1463 C1464 1.388 . S
C1464 H1451 0.930 . S
C1464 C1463 1.388 . S
C1464 C1465 1.390 . S
C1465 C1464 1.390 . S
C1465 C1466 1.394 . S
C1465 C1471 1.465 . S
C1466 C1461 1.399 . S
C1466 C1465 1.394 . S
C1466 C1467 1.516 . S
C1467 C1466 1.516 . S
C1467 C1468 1.502 . S
C1467 C1469 1.561 . S
C1467 C1470 1.526 . S
C1468 H1452 0.959 . S
C1468 H1453 0.959 . S
C1468 H1454 0.961 . S
C1468 C1467 1.502 . S
C1469 H1455 0.960 . S
C1469 H1456 0.961 . S
C1469 H1457 0.959 . S
C1469 C1467 1.561 . S
C1470 C1467 1.526 . S
C1470 C1471 1.396 . S
C1470 C1475 1.390 . S
C1471 C1465 1.465 . S
C1471 C1470 1.396 . S
C1471 C1472 1.399 . S
C1472 H1458 0.929 . S
C1472 C1471 1.399 . S
C1472 C1473 1.385 . S
C1473 H1459 0.931 . S
C1473 C1472 1.385 . S
C1473 C1474 1.389 . S
C1474 C1473 1.389 . S
C1474 C1475 1.387 . S
C1475 H1460 0.930 . S
C1475 C1470 1.390 . S
C1475 C1474 1.387 . S
H1476 C1488 0.930 . S
H1477 C1490 0.930 . S
H1478 C1491 0.930 . S
H1479 C1495 0.959 . S
H1480 C1495 0.959 . S
H1481 C1495 0.961 . S
H1482 C1496 0.960 . S
H1483 C1496 0.961 . S
H1484 C1496 0.959 . S
H1485 C1499 0.929 . S
H1486 C1500 0.931 . S
H1487 C1502 0.930 . S
C1488 H1476 0.930 . S
C1488 C1489 1.399 . S
C1488 C1493 1.399 . S
C1489 C1488 1.399 . S
C1489 C1490 1.376 . S
C1490 H1477 0.930 . S
C1490 C1489 1.376 . S
C1490 C1491 1.388 . S
C1491 H1478 0.930 . S
C1491 C1490 1.388 . S
C1491 C1492 1.390 . S
C1492 C1491 1.390 . S
C1492 C1493 1.394 . S
C1492 C1498 1.465 . S
C1493 C1488 1.399 . S
C1493 C1492 1.394 . S
C1493 C1494 1.516 . S
C1494 C1493 1.516 . S
C1494 C1495 1.502 . S
C1494 C1496 1.561 . S
C1494 C1497 1.526 . S
C1495 H1479 0.959 . S
C1495 H1480 0.959 . S
C1495 H1481 0.961 . S
C1495 C1494 1.502 . S
C1496 H1482 0.960 . S
C1496 H1483 0.961 . S
C1496 H1484 0.959 . S
C1496 C1494 1.561 . S
C1497 C1494 1.526 . S
C1497 C1498 1.396 . S
C1497 C1502 1.390 . S
C1498 C1492 1.465 . S
C1498 C1497 1.396 . S
C1498 C1499 1.399 . S
C1499 H1485 0.929 . S
C1499 C1498 1.399 . S
C1499 C1500 1.385 . S
C1500 H1486 0.931 . S
C1500 C1499 1.385 . S
C1500 C1501 1.389 . S
C1501 C1500 1.389 . S
C1501 C1502 1.387 . S
C1502 H1487 0.930 . S
C1502 C1497 1.390 . S
C1502 C1501 1.387 . S
H1503 C1515 0.930 . S
H1504 C1517 0.930 . S
H1505 C1518 0.930 . S
H1506 C1522 0.959 . S
H1507 C1522 0.959 . S
H1508 C1522 0.961 . S
H1509 C1523 0.960 . S
H1510 C1523 0.961 . S
H1511 C1523 0.959 . S
H1512 C1526 0.929 . S
H1513 C1527 0.931 . S
H1514 C1529 0.930 . S
C1515 H1503 0.930 . S
C1515 C1516 1.399 . S
C1515 C1520 1.399 . S
C1516 C1515 1.399 . S
C1516 C1517 1.376 . S
C1517 H1504 0.930 . S
C1517 C1516 1.376 . S
C1517 C1518 1.388 . S
C1518 H1505 0.930 . S
C1518 C1517 1.388 . S
C1518 C1519 1.390 . S
C1519 C1518 1.390 . S
C1519 C1520 1.394 . S
C1519 C1525 1.465 . S
C1520 C1515 1.399 . S
C1520 C1519 1.394 . S
C1520 C1521 1.516 . S
C1521 C1520 1.516 . S
C1521 C1522 1.502 . S
C1521 C1523 1.561 . S
C1521 C1524 1.526 . S
C1522 H1506 0.959 . S
C1522 H1507 0.959 . S
C1522 H1508 0.961 . S
C1522 C1521 1.502 . S
C1523 H1509 0.960 . S
C1523 H1510 0.961 . S
C1523 H1511 0.959 . S
C1523 C1521 1.561 . S
C1524 C1521 1.526 . S
C1524 C1525 1.396 . S
C1524 C1529 1.390 . S
C1525 C1519 1.465 . S
C1525 C1524 1.396 . S
C1525 C1526 1.399 . S
C1526 H1512 0.929 . S
C1526 C1525 1.399 . S
C1526 C1527 1.385 . S
C1527 H1513 0.931 . S
C1527 C1526 1.385 . S
C1527 C1528 1.389 . S
C1528 C1527 1.389 . S
C1528 C1529 1.387 . S
C1529 H1514 0.930 . S
C1529 C1524 1.390 . S
C1529 C1528 1.387 . S
H1530 C1542 0.930 . S
H1531 C1544 0.930 . S
H1532 C1545 0.930 . S
H1533 C1549 0.959 . S
H1534 C1549 0.959 . S
H1535 C1549 0.961 . S
H1536 C1550 0.960 . S
H1537 C1550 0.961 . S
H1538 C1550 0.959 . S
H1539 C1553 0.929 . S
H1540 C1554 0.931 . S
H1541 C1556 0.930 . S
C1542 H1530 0.930 . S
C1542 C1543 1.399 . S
C1542 C1547 1.399 . S
C1543 C1542 1.399 . S
C1543 C1544 1.376 . S
C1544 H1531 0.930 . S
C1544 C1543 1.376 . S
C1544 C1545 1.388 . S
C1545 H1532 0.930 . S
C1545 C1544 1.388 . S
C1545 C1546 1.390 . S
C1546 C1545 1.390 . S
C1546 C1547 1.394 . S
C1546 C1552 1.465 . S
C1547 C1542 1.399 . S
C1547 C1546 1.394 . S
C1547 C1548 1.516 . S
C1548 C1547 1.516 . S
C1548 C1549 1.502 . S
C1548 C1550 1.561 . S
C1548 C1551 1.526 . S
C1549 H1533 0.959 . S
C1549 H1534 0.959 . S
C1549 H1535 0.961 . S
C1549 C1548 1.502 . S
C1550 H1536 0.960 . S
C1550 H1537 0.961 . S
C1550 H1538 0.959 . S
C1550 C1548 1.561 . S
C1551 C1548 1.526 . S
C1551 C1552 1.396 . S
C1551 C1556 1.390 . S
C1552 C1546 1.465 . S
C1552 C1551 1.396 . S
C1552 C1553 1.399 . S
C1553 H1539 0.929 . S
C1553 C1552 1.399 . S
C1553 C1554 1.385 . S
C1554 H1540 0.931 . S
C1554 C1553 1.385 . S
C1554 C1555 1.389 . S
C1555 C1554 1.389 . S
C1555 C1556 1.387 . S
C1556 H1541 0.930 . S
C1556 C1551 1.390 . S
C1556 C1555 1.387 . S
H1557 C1569 0.930 . S
H1558 C1571 0.930 . S
H1559 C1572 0.930 . S
H1560 C1576 0.959 . S
H1561 C1576 0.959 . S
H1562 C1576 0.961 . S
H1563 C1577 0.960 . S
H1564 C1577 0.961 . S
H1565 C1577 0.959 . S
H1566 C1580 0.929 . S
H1567 C1581 0.931 . S
H1568 C1583 0.930 . S
C1569 H1557 0.930 . S
C1569 C1570 1.399 . S
C1569 C1574 1.399 . S
C1570 C1569 1.399 . S
C1570 C1571 1.376 . S
C1571 H1558 0.930 . S
C1571 C1570 1.376 . S
C1571 C1572 1.388 . S
C1572 H1559 0.930 . S
C1572 C1571 1.388 . S
C1572 C1573 1.390 . S
C1573 C1572 1.390 . S
C1573 C1574 1.394 . S
C1573 C1579 1.465 . S
C1574 C1569 1.399 . S
C1574 C1573 1.394 . S
C1574 C1575 1.516 . S
C1575 C1574 1.516 . S
C1575 C1576 1.502 . S
C1575 C1577 1.561 . S
C1575 C1578 1.526 . S
C1576 H1560 0.959 . S
C1576 H1561 0.959 . S
C1576 H1562 0.961 . S
C1576 C1575 1.502 . S
C1577 H1563 0.960 . S
C1577 H1564 0.961 . S
C1577 H1565 0.959 . S
C1577 C1575 1.561 . S
C1578 C1575 1.526 . S
C1578 C1579 1.396 . S
C1578 C1583 1.390 . S
C1579 C1573 1.465 . S
C1579 C1578 1.396 . S
C1579 C1580 1.399 . S
C1580 H1566 0.929 . S
C1580 C1579 1.399 . S
C1580 C1581 1.385 . S
C1581 H1567 0.931 . S
C1581 C1580 1.385 . S
C1581 C1582 1.389 . S
C1582 C1581 1.389 . S
C1582 C1583 1.387 . S
C1583 H1568 0.930 . S
C1583 C1578 1.390 . S
C1583 C1582 1.387 . S
H1584 C1596 0.930 . S
H1585 C1598 0.930 . S
H1586 C1599 0.930 . S
H1587 C1603 0.959 . S
H1588 C1603 0.959 . S
H1589 C1603 0.961 . S
H1590 C1604 0.960 . S
H1591 C1604 0.961 . S
H1592 C1604 0.959 . S
H1593 C1607 0.929 . S
H1594 C1608 0.931 . S
H1595 C1610 0.930 . S
C1596 H1584 0.930 . S
C1596 C1597 1.399 . S
C1596 C1601 1.399 . S
C1597 C1596 1.399 . S
C1597 C1598 1.376 . S
C1598 H1585 0.930 . S
C1598 C1597 1.376 . S
C1598 C1599 1.388 . S
C1599 H1586 0.930 . S
C1599 C1598 1.388 . S
C1599 C1600 1.390 . S
C1600 C1599 1.390 . S
C1600 C1601 1.394 . S
C1600 C1606 1.465 . S
C1601 C1596 1.399 . S
C1601 C1600 1.394 . S
C1601 C1602 1.516 . S
C1602 C1601 1.516 . S
C1602 C1603 1.502 . S
C1602 C1604 1.561 . S
C1602 C1605 1.526 . S
C1603 H1587 0.959 . S
C1603 H1588 0.959 . S
C1603 H1589 0.961 . S
C1603 C1602 1.502 . S
C1604 H1590 0.960 . S
C1604 H1591 0.961 . S
C1604 H1592 0.959 . S
C1604 C1602 1.561 . S
C1605 C1602 1.526 . S
C1605 C1606 1.396 . S
C1605 C1610 1.390 . S
C1606 C1600 1.465 . S
C1606 C1605 1.396 . S
C1606 C1607 1.399 . S
C1607 H1593 0.929 . S
C1607 C1606 1.399 . S
C1607 C1608 1.385 . S
C1608 H1594 0.931 . S
C1608 C1607 1.385 . S
C1608 C1609 1.389 . S
C1609 C1608 1.389 . S
C1609 C1610 1.387 . S
C1610 H1595 0.930 . S
C1610 C1605 1.390 . S
C1610 C1609 1.387 . S
H1611 C1623 0.930 . S
H1612 C1625 0.930 . S
H1613 C1626 0.930 . S
H1614 C1630 0.959 . S
H1615 C1630 0.959 . S
H1616 C1630 0.961 . S
H1617 C1631 0.960 . S
H1618 C1631 0.961 . S
H1619 C1631 0.959 . S
H1620 C1634 0.929 . S
H1621 C1635 0.931 . S
H1622 C1637 0.930 . S
C1623 H1611 0.930 . S
C1623 C1624 1.399 . S
C1623 C1628 1.399 . S
C1624 C1623 1.399 . S
C1624 C1625 1.376 . S
C1625 H1612 0.930 . S
C1625 C1624 1.376 . S
C1625 C1626 1.388 . S
C1626 H1613 0.930 . S
C1626 C1625 1.388 . S
C1626 C1627 1.390 . S
C1627 C1626 1.390 . S
C1627 C1628 1.394 . S
C1627 C1633 1.465 . S
C1628 C1623 1.399 . S
C1628 C1627 1.394 . S
C1628 C1629 1.516 . S
C1629 C1628 1.516 . S
C1629 C1630 1.502 . S
C1629 C1631 1.561 . S
C1629 C1632 1.526 . S
C1630 H1614 0.959 . S
C1630 H1615 0.959 . S
C1630 H1616 0.961 . S
C1630 C1629 1.502 . S
C1631 H1617 0.960 . S
C1631 H1618 0.961 . S
C1631 H1619 0.959 . S
C1631 C1629 1.561 . S
C1632 C1629 1.526 . S
C1632 C1633 1.396 . S
C1632 C1637 1.390 . S
C1633 C1627 1.465 . S
C1633 C1632 1.396 . S
C1633 C1634 1.399 . S
C1634 H1620 0.929 . S
C1634 C1633 1.399 . S
C1634 C1635 1.385 . S
C1635 H1621 0.931 . S
C1635 C1634 1.385 . S
C1635 C1636 1.389 . S
C1636 C1635 1.389 . S
C1636 C1637 1.387 . S
C1637 H1622 0.930 . S
C1637 C1632 1.390 . S
C1637 C1636 1.387 . S
H1638 C1650 0.930 . S
H1639 C1652 0.930 . S
H1640 C1653 0.930 . S
H1641 C1657 0.959 . S
H1642 C1657 0.959 . S
H1643 C1657 0.961 . S
H1644 C1658 0.960 . S
H1645 C1658 0.961 . S
H1646 C1658 0.959 . S
H1647 C1661 0.929 . S
H1648 C1662 0.931 . S
H1649 C1664 0.930 . S
C1650 H1638 0.930 . S
C1650 C1651 1.399 . S
C1650 C1655 1.399 . S
C1651 C1650 1.399 . S
C1651 C1652 1.376 . S
C1652 H1639 0.930 . S
C1652 C1651 1.376 . S
C1652 C1653 1.388 . S
C1653 H1640 0.930 . S
C1653 C1652 1.388 . S
C1653 C1654 1.390 . S
C1654 C1653 1.390 . S
C1654 C1655 1.394 . S
C1654 C1660 1.465 . S
C1655 C1650 1.399 . S
C1655 C1654 1.394 . S
C1655 C1656 1.516 . S
C1656 C1655 1.516 . S
C1656 C1657 1.502 . S
C1656 C1658 1.561 . S
C1656 C1659 1.526 . S
C1657 H1641 0.959 . S
C1657 H1642 0.959 . S
C1657 H1643 0.961 . S
C1657 C1656 1.502 . S
C1658 H1644 0.960 . S
C1658 H1645 0.961 . S
C1658 H1646 0.959 . S
C1658 C1656 1.561 . S
C1659 C1656 1.526 . S
C1659 C1660 1.396 . S
C1659 C1664 1.390 . S
C1660 C1654 1.465 . S
C1660 C1659 1.396 . S
C1660 C1661 1.399 . S
C1661 H1647 0.929 . S
C1661 C1660 1.399 . S
C1661 C1662 1.385 . S
C1662 H1648 0.931 . S
C1662 C1661 1.385 . S
C1662 C1663 1.389 . S
C1663 C1662 1.389 . S
C1663 C1664 1.387 . S
C1664 H1649 0.930 . S
C1664 C1659 1.390 . S
C1664 C1663 1.387 . S
H1665 C1677 0.930 . S
H1666 C1679 0.930 . S
H1667 C1680 0.930 . S
H1668 C1684 0.959 . S
H1669 C1684 0.959 . S
H1670 C1684 0.961 . S
H1671 C1685 0.960 . S
H1672 C1685 0.961 . S
H1673 C1685 0.959 . S
H1674 C1688 0.929 . S
H1675 C1689 0.931 . S
H1676 C1691 0.930 . S
C1677 H1665 0.930 . S
C1677 C1678 1.399 . S
C1677 C1682 1.399 . S
C1678 C1677 1.399 . S
C1678 C1679 1.376 . S
C1679 H1666 0.930 . S
C1679 C1678 1.376 . S
C1679 C1680 1.388 . S
C1680 H1667 0.930 . S
C1680 C1679 1.388 . S
C1680 C1681 1.390 . S
C1681 C1680 1.390 . S
C1681 C1682 1.394 . S
C1681 C1687 1.465 . S
C1682 C1677 1.399 . S
C1682 C1681 1.394 . S
C1682 C1683 1.516 . S
C1683 C1682 1.516 . S
C1683 C1684 1.502 . S
C1683 C1685 1.561 . S
C1683 C1686 1.526 . S
C1684 H1668 0.959 . S
C1684 H1669 0.959 . S
C1684 H1670 0.961 . S
C1684 C1683 1.502 . S
C1685 H1671 0.960 . S
C1685 H1672 0.961 . S
C1685 H1673 0.959 . S
C1685 C1683 1.561 . S
C1686 C1683 1.526 . S
C1686 C1687 1.396 . S
C1686 C1691 1.390 . S
C1687 C1681 1.465 . S
C1687 C1686 1.396 . S
C1687 C1688 1.399 . S
C1688 H1674 0.929 . S
C1688 C1687 1.399 . S
C1688 C1689 1.385 . S
C1689 H1675 0.931 . S
C1689 C1688 1.385 . S
C1689 C1690 1.389 . S
C1690 C1689 1.389 . S
C1690 C1691 1.387 . S
C1691 H1676 0.930 . S
C1691 C1686 1.390 . S
C1691 C1690 1.387 . S
H1692 C1704 0.930 . S
H1693 C1706 0.930 . S
H1694 C1707 0.930 . S
H1695 C1711 0.959 . S
H1696 C1711 0.959 . S
H1697 C1711 0.961 . S
H1698 C1712 0.960 . S
H1699 C1712 0.961 . S
H1700 C1712 0.959 . S
H1701 C1715 0.929 . S
H1702 C1716 0.931 . S
H1703 C1718 0.930 . S
C1704 H1692 0.930 . S
C1704 C1705 1.399 . S
C1704 C1709 1.399 . S
C1705 C1704 1.399 . S
C1705 C1706 1.376 . S
C1706 H1693 0.930 . S
C1706 C1705 1.376 . S
C1706 C1707 1.388 . S
C1707 H1694 0.930 . S
C1707 C1706 1.388 . S
C1707 C1708 1.390 . S
C1708 C1707 1.390 . S
C1708 C1709 1.394 . S
C1708 C1714 1.465 . S
C1709 C1704 1.399 . S
C1709 C1708 1.394 . S
C1709 C1710 1.516 . S
C1710 C1709 1.516 . S
C1710 C1711 1.502 . S
C1710 C1712 1.561 . S
C1710 C1713 1.526 . S
C1711 H1695 0.959 . S
C1711 H1696 0.959 . S
C1711 H1697 0.961 . S
C1711 C1710 1.502 . S
C1712 H1698 0.960 . S
C1712 H1699 0.961 . S
C1712 H1700 0.959 . S
C1712 C1710 1.561 . S
C1713 C1710 1.526 . S
C1713 C1714 1.396 . S
C1713 C1718 1.390 . S
C1714 C1708 1.465 . S
C1714 C1713 1.396 . S
C1714 C1715 1.399 . S
C1715 H1701 0.929 . S
C1715 C1714 1.399 . S
C1715 C1716 1.385 . S
C1716 H1702 0.931 . S
C1716 C1715 1.385 . S
C1716 C1717 1.389 . S
C1717 C1716 1.389 . S
C1717 C1718 1.387 . S
C1718 H1703 0.930 . S
C1718 C1713 1.390 . S
C1718 C1717 1.387 . S
H1719 C1731 0.930 . S
H1720 C1733 0.930 . S
H1721 C1734 0.930 . S
H1722 C1738 0.959 . S
H1723 C1738 0.959 . S
H1724 C1738 0.961 . S
H1725 C1739 0.960 . S
H1726 C1739 0.961 . S
H1727 C1739 0.959 . S
H1728 C1742 0.929 . S
H1729 C1743 0.931 . S
H1730 C1745 0.930 . S
C1731 H1719 0.930 . S
C1731 C1732 1.399 . S
C1731 C1736 1.399 . S
C1732 C1731 1.399 . S
C1732 C1733 1.376 . S
C1733 H1720 0.930 . S
C1733 C1732 1.376 . S
C1733 C1734 1.388 . S
C1734 H1721 0.930 . S
C1734 C1733 1.388 . S
C1734 C1735 1.390 . S
C1735 C1734 1.390 . S
C1735 C1736 1.394 . S
C1735 C1741 1.465 . S
C1736 C1731 1.399 . S
C1736 C1735 1.394 . S
C1736 C1737 1.516 . S
C1737 C1736 1.516 . S
C1737 C1738 1.502 . S
C1737 C1739 1.561 . S
C1737 C1740 1.526 . S
C1738 H1722 0.959 . S
C1738 H1723 0.959 . S
C1738 H1724 0.961 . S
C1738 C1737 1.502 . S
C1739 H1725 0.960 . S
C1739 H1726 0.961 . S
C1739 H1727 0.959 . S
C1739 C1737 1.561 . S
C1740 C1737 1.526 . S
C1740 C1741 1.396 . S
C1740 C1745 1.390 . S
C1741 C1735 1.465 . S
C1741 C1740 1.396 . S
C1741 C1742 1.399 . S
C1742 H1728 0.929 . S
C1742 C1741 1.399 . S
C1742 C1743 1.385 . S
C1743 H1729 0.931 . S
C1743 C1742 1.385 . S
C1743 C1744 1.389 . S
C1744 C1743 1.389 . S
C1744 C1745 1.387 . S
C1745 H1730 0.930 . S
C1745 C1740 1.390 . S
C1745 C1744 1.387 . S
H1746 C1758 0.930 . S
H1747 C1760 0.930 . S
H1748 C1761 0.930 . S
H1749 C1765 0.959 . S
H1750 C1765 0.959 . S
H1751 C1765 0.961 . S
H1752 C1766 0.960 . S
H1753 C1766 0.961 . S
H1754 C1766 0.959 . S
H1755 C1769 0.929 . S
H1756 C1770 0.931 . S
H1757 C1772 0.930 . S
C1758 H1746 0.930 . S
C1758 C1759 1.399 . S
C1758 C1763 1.399 . S
C1759 C1758 1.399 . S
C1759 C1760 1.376 . S
C1760 H1747 0.930 . S
C1760 C1759 1.376 . S
C1760 C1761 1.388 . S
C1761 H1748 0.930 . S
C1761 C1760 1.388 . S
C1761 C1762 1.390 . S
C1762 C1761 1.390 . S
C1762 C1763 1.394 . S
C1762 C1768 1.465 . S
C1763 C1758 1.399 . S
C1763 C1762 1.394 . S
C1763 C1764 1.516 . S
C1764 C1763 1.516 . S
C1764 C1765 1.502 . S
C1764 C1766 1.561 . S
C1764 C1767 1.526 . S
C1765 H1749 0.959 . S
C1765 H1750 0.959 . S
C1765 H1751 0.961 . S
C1765 C1764 1.502 . S
C1766 H1752 0.960 . S
C1766 H1753 0.961 . S
C1766 H1754 0.959 . S
C1766 C1764 1.561 . S
C1767 C1764 1.526 . S
C1767 C1768 1.396 . S
C1767 C1772 1.390 . S
C1768 C1762 1.465 . S
C1768 C1767 1.396 . S
C1768 C1769 1.399 . S
C1769 H1755 0.929 . S
C1769 C1768 1.399 . S
C1769 C1770 1.385 . S
C1770 H1756 0.931 . S
C1770 C1769 1.385 . S
C1770 C1771 1.389 . S
C1771 C1770 1.389 . S
C1771 C1772 1.387 . S
C1772 H1757 0.930 . S
C1772 C1767 1.390 . S
C1772 C1771 1.387 . S
H1773 C1785 0.930 . S
H1774 C1787 0.930 . S
H1775 C1788 0.930 . S
H1776 C1792 0.959 . S
H1777 C1792 0.959 . S
H1778 C1792 0.961 . S
H1779 C1793 0.960 . S
H1780 C1793 0.961 . S
H1781 C1793 0.959 . S
H1782 C1796 0.929 . S
H1783 C1797 0.931 . S
H1784 C1799 0.930 . S
C1785 H1773 0.930 . S
C1785 C1786 1.399 . S
C1785 C1790 1.399 . S
C1786 C1785 1.399 . S
C1786 C1787 1.376 . S
C1787 H1774 0.930 . S
C1787 C1786 1.376 . S
C1787 C1788 1.388 . S
C1788 H1775 0.930 . S
C1788 C1787 1.388 . S
C1788 C1789 1.390 . S
C1789 C1788 1.390 . S
C1789 C1790 1.394 . S
C1789 C1795 1.465 . S
C1790 C1785 1.399 . S
C1790 C1789 1.394 . S
C1790 C1791 1.516 . S
C1791 C1790 1.516 . S
C1791 C1792 1.502 . S
C1791 C1793 1.561 . S
C1791 C1794 1.526 . S
C1792 H1776 0.959 . S
C1792 H1777 0.959 . S
C1792 H1778 0.961 . S
C1792 C1791 1.502 . S
C1793 H1779 0.960 . S
C1793 H1780 0.961 . S
C1793 H1781 0.959 . S
C1793 C1791 1.561 . S
C1794 C1791 1.526 . S
C1794 C1795 1.396 . S
C1794 C1799 1.390 . S
C1795 C1789 1.465 . S
C1795 C1794 1.396 . S
C1795 C1796 1.399 . S
C1796 H1782 0.929 . S
C1796 C1795 1.399 . S
C1796 C1797 1.385 . S
C1797 H1783 0.931 . S
C1797 C1796 1.385 . S
C1797 C1798 1.389 . S
C1798 C1797 1.389 . S
C1798 C1799 1.387 . S
C1799 H1784 0.930 . S
C1799 C1794 1.390 . S
C1799 C1798 1.387 . S
H1800 C1812 0.930 . S
H1801 C1814 0.930 . S
H1802 C1815 0.930 . S
H1803 C1819 0.959 . S
H1804 C1819 0.959 . S
H1805 C1819 0.961 . S
H1806 C1820 0.960 . S
H1807 C1820 0.961 . S
H1808 C1820 0.959 . S
H1809 C1823 0.929 . S
H1810 C1824 0.931 . S
H1811 C1826 0.930 . S
C1812 H1800 0.930 . S
C1812 C1813 1.399 1_455 S
C1812 C1817 1.399 . S
C1813 C1812 1.399 1_655 S
C1813 C1814 1.376 . S
C1814 H1801 0.930 . S
C1814 C1813 1.376 . S
C1814 C1815 1.388 . S
C1815 H1802 0.930 . S
C1815 C1814 1.388 . S
C1815 C1816 1.390 . S
C1816 C1815 1.390 . S
C1816 C1817 1.394 1_655 S
C1816 C1822 1.465 . S
C1817 C1812 1.399 . S
C1817 C1816 1.394 1_455 S
C1817 C1818 1.516 . S
C1818 C1817 1.516 . S
C1818 C1819 1.502 . S
C1818 C1820 1.561 1_455 S
C1818 C1821 1.526 . S
C1819 H1803 0.959 . S
C1819 H1804 0.959 . S
C1819 H1805 0.961 . S
C1819 C1818 1.502 . S
C1820 H1806 0.960 . S
C1820 H1807 0.961 . S
C1820 H1808 0.959 . S
C1820 C1818 1.561 1_655 S
C1821 C1818 1.526 . S
C1821 C1822 1.396 1_455 S
C1821 C1826 1.390 . S
C1822 C1816 1.465 . S
C1822 C1821 1.396 1_655 S
C1822 C1823 1.399 . S
C1823 H1809 0.929 . S
C1823 C1822 1.399 . S
C1823 C1824 1.385 . S
C1824 H1810 0.931 . S
C1824 C1823 1.385 . S
C1824 C1825 1.389 1_655 S
C1825 C1824 1.389 1_455 S
C1825 C1826 1.387 . S
C1826 H1811 0.930 . S
C1826 C1821 1.390 . S
C1826 C1825 1.387 . S
H1827 C1839 0.930 . S
H1828 C1841 0.930 . S
H1829 C1842 0.930 . S
H1830 C1846 0.959 . S
H1831 C1846 0.959 . S
H1832 C1846 0.961 . S
H1833 C1847 0.960 . S
H1834 C1847 0.961 . S
H1835 C1847 0.959 . S
H1836 C1850 0.929 . S
H1837 C1851 0.931 . S
H1838 C1853 0.930 . S
C1839 H1827 0.930 . S
C1839 C1840 1.399 . S
C1839 C1844 1.399 . S
C1840 C1839 1.399 . S
C1840 C1841 1.376 . S
C1841 H1828 0.930 . S
C1841 C1840 1.376 . S
C1841 C1842 1.388 . S
C1842 H1829 0.930 . S
C1842 C1841 1.388 . S
C1842 C1843 1.390 . S
C1843 C1842 1.390 . S
C1843 C1844 1.394 . S
C1843 C1849 1.465 . S
C1844 C1839 1.399 . S
C1844 C1843 1.394 . S
C1844 C1845 1.516 . S
C1845 C1844 1.516 . S
C1845 C1846 1.502 . S
C1845 C1847 1.561 . S
C1845 C1848 1.526 . S
C1846 H1830 0.959 . S
C1846 H1831 0.959 . S
C1846 H1832 0.961 . S
C1846 C1845 1.502 . S
C1847 H1833 0.960 . S
C1847 H1834 0.961 . S
C1847 H1835 0.959 . S
C1847 C1845 1.561 . S
C1848 C1845 1.526 . S
C1848 C1849 1.396 . S
C1848 C1853 1.390 . S
C1849 C1843 1.465 . S
C1849 C1848 1.396 . S
C1849 C1850 1.399 . S
C1850 H1836 0.929 . S
C1850 C1849 1.399 . S
C1850 C1851 1.385 . S
C1851 H1837 0.931 . S
C1851 C1850 1.385 . S
C1851 C1852 1.389 . S
C1852 C1851 1.389 . S
C1852 C1853 1.387 . S
C1853 H1838 0.930 . S
C1853 C1848 1.390 . S
C1853 C1852 1.387 . S
H1854 C1866 0.930 . S
H1855 C1868 0.930 . S
H1856 C1869 0.930 . S
H1857 C1873 0.959 . S
H1858 C1873 0.959 . S
H1859 C1873 0.961 . S
H1860 C1874 0.960 . S
H1861 C1874 0.961 . S
H1862 C1874 0.959 . S
H1863 C1877 0.929 . S
H1864 C1878 0.931 . S
H1865 C1880 0.930 . S
C1866 H1854 0.930 . S
C1866 C1867 1.399 . S
C1866 C1871 1.399 . S
C1867 C1866 1.399 . S
C1867 C1868 1.376 1_565 S
C1868 H1855 0.930 . S
C1868 C1867 1.376 1_545 S
C1868 C1869 1.388 . S
C1869 H1856 0.930 . S
C1869 C1868 1.388 . S
C1869 C1870 1.390 . S
C1870 C1869 1.390 . S
C1870 C1871 1.394 1_545 S
C1870 C1876 1.465 . S
C1871 C1866 1.399 . S
C1871 C1870 1.394 1_565 S
C1871 C1872 1.516 . S
C1872 C1871 1.516 . S
C1872 C1873 1.502 . S
C1872 C1874 1.561 . S
C1872 C1875 1.526 . S
C1873 H1857 0.959 . S
C1873 H1858 0.959 . S
C1873 H1859 0.961 . S
C1873 C1872 1.502 . S
C1874 H1860 0.960 . S
C1874 H1861 0.961 . S
C1874 H1862 0.959 . S
C1874 C1872 1.561 . S
C1875 C1872 1.526 . S
C1875 C1876 1.396 1_565 S
C1875 C1880 1.390 . S
C1876 C1870 1.465 . S
C1876 C1875 1.396 1_545 S
C1876 C1877 1.399 . S
C1877 H1863 0.929 . S
C1877 C1876 1.399 . S
C1877 C1878 1.385 . S
C1878 H1864 0.931 . S
C1878 C1877 1.385 . S
C1878 C1879 1.389 . S
C1879 C1878 1.389 . S
C1879 C1880 1.387 1_545 S
C1880 H1865 0.930 . S
C1880 C1875 1.390 . S
C1880 C1879 1.387 1_565 S
H1881 C1893 0.930 . S
H1882 C1895 0.930 . S
H1883 C1896 0.930 . S
H1884 C1900 0.959 . S
H1885 C1900 0.959 . S
H1886 C1900 0.961 . S
H1887 C1901 0.960 1_556 S
H1888 C1901 0.959 1_556 S
H1889 C1901 0.959 . S
H1890 C1904 0.929 . S
H1891 C1905 0.931 . S
H1892 C1907 0.930 1_556 S
C1893 H1881 0.930 . S
C1893 C1894 1.399 1_545 S
C1893 C1898 1.399 . S
C1894 C1893 1.399 1_565 S
C1894 C1895 1.376 1_556 S
C1895 H1882 0.930 . S
C1895 C1894 1.376 1_554 S
C1895 C1896 1.388 . S
C1896 H1883 0.930 . S
C1896 C1895 1.388 . S
C1896 C1897 1.390 . S
C1897 C1896 1.390 . S
C1897 C1898 1.394 1_564 S
C1897 C1903 1.465 . S
C1898 C1893 1.399 . S
C1898 C1897 1.394 1_546 S
C1898 C1899 1.516 . S
C1899 C1898 1.516 . S
C1899 C1900 1.502 . S
C1899 C1901 1.561 1_556 S
C1899 C1902 1.516 1_556 S
C1900 H1884 0.959 . S
C1900 H1885 0.959 . S
C1900 H1886 0.961 . S
C1900 C1899 1.502 . S
C1901 H1887 0.960 1_554 S
C1901 H1888 0.959 1_554 S
C1901 H1889 0.959 . S
C1901 C1899 1.561 1_554 S
C1902 C1899 1.516 1_554 S
C1902 C1903 1.406 1_545 S
C1902 C1907 1.392 . S
C1903 C1897 1.465 . S
C1903 C1902 1.406 1_565 S
C1903 C1904 1.399 . S
C1904 H1890 0.929 . S
C1904 C1903 1.399 . S
C1904 C1905 1.385 . S
C1905 H1891 0.931 . S
C1905 C1904 1.385 . S
C1905 C1906 1.389 1_565 S
C1906 C1905 1.389 1_545 S
C1906 C1907 1.387 . S
C1907 H1892 0.930 1_554 S
C1907 C1902 1.392 . S
C1907 C1906 1.387 . S
H1908 C1920 0.930 . S
H1909 C1922 0.930 . S
H1910 C1923 0.926 1_455 S
H1911 C1927 0.959 . S
H1912 C1927 0.959 . S
H1913 C1927 0.961 . S
H1914 C1928 0.960 . S
H1915 C1928 0.961 . S
H1916 C1928 0.959 . S
H1917 C1931 0.929 . S
H1918 C1932 0.931 . S
H1919 C1934 0.926 . S
C1920 H1908 0.930 . S
C1920 C1921 1.399 . S
C1920 C1925 1.399 . S
C1921 C1920 1.399 . S
C1921 C1922 1.376 1_554 S
C1922 H1909 0.930 . S
C1922 C1921 1.376 1_556 S
C1922 C1923 1.402 . S
C1923 H1910 0.926 1_655 S
C1923 C1922 1.402 . S
C1923 C1924 1.381 . S
C1924 C1923 1.381 . S
C1924 C1925 1.394 1_556 S
C1924 C1930 1.461 1_655 S
C1925 C1920 1.399 . S
C1925 C1924 1.394 1_554 S
C1925 C1926 1.516 . S
C1926 C1925 1.516 . S
C1926 C1927 1.502 1_655 S
C1926 C1928 1.561 . S
C1926 C1929 1.526 . S
C1927 H1911 0.959 . S
C1927 H1912 0.959 . S
C1927 H1913 0.961 . S
C1927 C1926 1.502 1_455 S
C1928 H1914 0.960 . S
C1928 H1915 0.961 . S
C1928 H1916 0.959 . S
C1928 C1926 1.561 . S
C1929 C1926 1.526 . S
C1929 C1930 1.397 1_654 S
C1929 C1934 1.401 . S
C1930 C1924 1.461 1_455 S
C1930 C1929 1.397 1_456 S
C1930 C1931 1.401 . S
C1931 H1917 0.929 . S
C1931 C1930 1.401 . S
C1931 C1932 1.385 . S
C1932 H1918 0.931 . S
C1932 C1931 1.385 . S
C1932 C1933 1.389 . S
C1933 C1932 1.389 . S
C1933 C1934 1.379 1_456 S
C1934 H1919 0.926 . S
C1934 C1929 1.401 . S
C1934 C1933 1.379 1_654 S
H1935 C1947 0.930 1_556 S
H1936 C1949 0.930 . S
H1937 C1950 0.930 . S
H1938 C1954 0.959 1_554 S
H1939 C1954 0.959 . S
H1940 C1954 0.961 . S
H1941 C1955 0.960 . S
H1942 C1955 0.961 . S
H1943 C1955 0.959 . S
H1944 C1958 0.929 . S
H1945 C1959 0.931 1_554 S
H1946 C1961 0.930 . S
C1947 H1935 0.930 1_554 S
C1947 C1948 1.399 . S
C1947 C1952 1.399 1_554 S
C1948 C1947 1.399 . S
C1948 C1949 1.376 . S
C1949 H1936 0.930 . S
C1949 C1948 1.376 . S
C1949 C1950 1.388 . S
C1950 H1937 0.930 . S
C1950 C1949 1.388 . S
C1950 C1951 1.390 . S
C1951 C1950 1.390 . S
C1951 C1952 1.394 1_554 S
C1951 C1957 1.465 . S
C1952 C1947 1.399 1_556 S
C1952 C1951 1.394 1_556 S
C1952 C1953 1.516 . S
C1953 C1952 1.516 . S
C1953 C1954 1.502 . S
C1953 C1955 1.561 . S
C1953 C1956 1.526 . S
C1954 H1938 0.959 1_556 S
C1954 H1939 0.959 . S
C1954 H1940 0.961 . S
C1954 C1953 1.502 . S
C1955 H1941 0.960 . S
C1955 H1942 0.961 . S
C1955 H1943 0.959 . S
C1955 C1953 1.561 . S
C1956 C1953 1.526 . S
C1956 C1957 1.396 1_556 S
C1956 C1961 1.390 . S
C1957 C1951 1.465 . S
C1957 C1956 1.396 1_554 S
C1957 C1958 1.399 . S
C1958 H1944 0.929 . S
C1958 C1957 1.399 . S
C1958 C1959 1.386 1_554 S
C1959 H1945 0.931 1_556 S
C1959 C1958 1.386 1_556 S
C1959 C1960 1.389 . S
C1960 C1959 1.389 . S
C1960 C1961 1.387 . S
C1961 H1946 0.930 . S
C1961 C1956 1.390 . S
C1961 C1960 1.387 . S
H1962 C1974 0.930 . S
H1963 C1976 0.930 . S
H1964 C1977 0.930 . S
H1965 C1981 0.959 . S
H1966 C1981 0.959 . S
H1967 C1981 0.961 . S
H1968 C1982 0.960 . S
H1969 C1982 0.961 . S
H1970 C1982 0.959 . S
H1971 C1985 0.929 . S
H1972 C1986 0.931 . S
H1973 C1988 0.930 . S
C1974 H1962 0.930 . S
C1974 C1975 1.399 . S
C1974 C1979 1.399 . S
C1975 C1974 1.399 . S
C1975 C1976 1.376 . S
C1976 H1963 0.930 . S
C1976 C1975 1.376 . S
C1976 C1977 1.388 . S
C1977 H1964 0.930 . S
C1977 C1976 1.388 . S
C1977 C1978 1.390 . S
C1978 C1977 1.390 . S
C1978 C1979 1.394 . S
C1978 C1984 1.465 . S
C1979 C1974 1.399 . S
C1979 C1978 1.394 . S
C1979 C1980 1.516 . S
C1980 C1979 1.516 . S
C1980 C1981 1.502 . S
C1980 C1982 1.561 . S
C1980 C1983 1.526 . S
C1981 H1965 0.959 . S
C1981 H1966 0.959 . S
C1981 H1967 0.961 . S
C1981 C1980 1.502 . S
C1982 H1968 0.960 . S
C1982 H1969 0.961 . S
C1982 H1970 0.959 . S
C1982 C1980 1.561 . S
C1983 C1980 1.526 . S
C1983 C1984 1.396 . S
C1983 C1988 1.390 . S
C1984 C1978 1.465 . S
C1984 C1983 1.396 . S
C1984 C1985 1.399 . S
C1985 H1971 0.929 . S
C1985 C1984 1.399 . S
C1985 C1986 1.385 . S
C1986 H1972 0.931 . S
C1986 C1985 1.385 . S
C1986 C1987 1.389 . S
C1987 C1986 1.389 . S
C1987 C1988 1.387 . S
C1988 H1973 0.930 . S
C1988 C1983 1.390 . S
C1988 C1987 1.387 . S
H1989 C2001 0.930 . S
H1990 C2003 0.930 . S
H1991 C2004 0.930 . S
H1992 C2008 0.959 . S
H1993 C2008 0.959 . S
H1994 C2008 0.961 . S
H1995 C2009 0.960 . S
H1996 C2009 0.961 . S
H1997 C2009 0.959 . S
H1998 C2012 0.929 . S
H1999 C2013 0.931 . S
H2000 C2015 0.930 1_556 S
C2001 H1989 0.930 . S
C2001 C2002 1.399 . S
C2001 C2006 1.399 . S
C2002 C2001 1.399 . S
C2002 C2003 1.376 . S
C2003 H1990 0.930 . S
C2003 C2002 1.376 . S
C2003 C2004 1.388 . S
C2004 H1991 0.930 . S
C2004 C2003 1.388 . S
C2004 C2005 1.390 . S
C2005 C2004 1.390 . S
C2005 C2006 1.394 . S
C2005 C2011 1.465 . S
C2006 C2001 1.399 . S
C2006 C2005 1.394 . S
C2006 C2007 1.516 . S
C2007 C2006 1.516 . S
C2007 C2008 1.502 . S
C2007 C2009 1.561 . S
C2007 C2010 1.526 . S
C2008 H1992 0.959 . S
C2008 H1993 0.959 . S
C2008 H1994 0.961 . S
C2008 C2007 1.502 . S
C2009 H1995 0.960 . S
C2009 H1996 0.961 . S
C2009 H1997 0.959 . S
C2009 C2007 1.561 . S
C2010 C2007 1.526 . S
C2010 C2011 1.396 . S
C2010 C2015 1.390 . S
C2011 C2005 1.465 . S
C2011 C2010 1.396 . S
C2011 C2012 1.399 . S
C2012 H1998 0.929 . S
C2012 C2011 1.399 . S
C2012 C2013 1.385 . S
C2013 H1999 0.931 . S
C2013 C2012 1.385 . S
C2013 C2014 1.389 . S
C2014 C2013 1.389 . S
C2014 C2015 1.387 . S
C2015 H2000 0.930 1_554 S
C2015 C2010 1.390 . S
C2015 C2014 1.387 . S
H2016 C2028 0.930 1_556 S
H2017 C2030 0.930 . S
H2018 C2031 0.930 . S
H2019 C2035 0.959 . S
H2020 C2035 0.959 . S
H2021 C2035 0.961 . S
H2022 C2036 0.960 . S
H2023 C2036 0.961 . S
H2024 C2036 0.959 . S
H2025 C2039 0.929 . S
H2026 C2040 0.931 . S
H2027 C2042 0.930 . S
C2028 H2016 0.930 1_554 S
C2028 C2029 1.399 . S
C2028 C2033 1.399 . S
C2029 C2028 1.399 . S
C2029 C2030 1.376 . S
C2030 H2017 0.930 . S
C2030 C2029 1.376 . S
C2030 C2031 1.388 . S
C2031 H2018 0.930 . S
C2031 C2030 1.388 . S
C2031 C2032 1.390 . S
C2032 C2031 1.390 . S
C2032 C2033 1.394 . S
C2032 C2038 1.465 . S
C2033 C2028 1.399 . S
C2033 C2032 1.394 . S
C2033 C2034 1.516 . S
C2034 C2033 1.516 . S
C2034 C2035 1.502 . S
C2034 C2036 1.561 . S
C2034 C2037 1.526 . S
C2035 H2019 0.959 . S
C2035 H2020 0.959 . S
C2035 H2021 0.961 . S
C2035 C2034 1.502 . S
C2036 H2022 0.960 . S
C2036 H2023 0.961 . S
C2036 H2024 0.959 . S
C2036 C2034 1.561 . S
C2037 C2034 1.526 . S
C2037 C2038 1.396 . S
C2037 C2042 1.390 . S
C2038 C2032 1.465 . S
C2038 C2037 1.396 . S
C2038 C2039 1.399 . S
C2039 H2025 0.929 . S
C2039 C2038 1.399 . S
C2039 C2040 1.385 . S
C2040 H2026 0.931 . S
C2040 C2039 1.385 . S
C2040 C2041 1.389 . S
C2041 C2040 1.389 . S
C2041 C2042 1.387 . S
C2042 H2027 0.930 . S
C2042 C2037 1.390 . S
C2042 C2041 1.387 . S
H2043 C2055 0.930 . S
H2044 C2057 0.930 . S
H2045 C2058 0.930 . S
H2046 C2062 0.959 . S
H2047 C2062 0.959 . S
H2048 C2062 0.961 . S
H2049 C2063 0.960 . S
H2050 C2063 0.961 . S
H2051 C2063 0.959 . S
H2052 C2066 0.929 . S
H2053 C2067 0.931 . S
H2054 C2069 0.930 . S
C2055 H2043 0.930 . S
C2055 C2056 1.399 . S
C2055 C2060 1.399 . S
C2056 C2055 1.399 . S
C2056 C2057 1.376 . S
C2057 H2044 0.930 . S
C2057 C2056 1.376 . S
C2057 C2058 1.388 . S
C2058 H2045 0.930 . S
C2058 C2057 1.388 . S
C2058 C2059 1.390 . S
C2059 C2058 1.390 . S
C2059 C2060 1.394 . S
C2059 C2065 1.465 . S
C2060 C2055 1.399 . S
C2060 C2059 1.394 . S
C2060 C2061 1.516 . S
C2061 C2060 1.516 . S
C2061 C2062 1.502 . S
C2061 C2063 1.561 . S
C2061 C2064 1.526 . S
C2062 H2046 0.959 . S
C2062 H2047 0.959 . S
C2062 H2048 0.961 . S
C2062 C2061 1.502 . S
C2063 H2049 0.960 . S
C2063 H2050 0.961 . S
C2063 H2051 0.959 . S
C2063 C2061 1.561 . S
C2064 C2061 1.526 . S
C2064 C2065 1.396 . S
C2064 C2069 1.390 . S
C2065 C2059 1.465 . S
C2065 C2064 1.396 . S
C2065 C2066 1.399 . S
C2066 H2052 0.929 . S
C2066 C2065 1.399 . S
C2066 C2067 1.385 . S
C2067 H2053 0.931 . S
C2067 C2066 1.385 . S
C2067 C2068 1.389 . S
C2068 C2067 1.389 . S
C2068 C2069 1.387 . S
C2069 H2054 0.930 . S
C2069 C2064 1.390 . S
C2069 C2068 1.387 . S
H2070 C2082 0.930 . S
H2071 C2084 0.930 . S
H2072 C2085 0.930 . S
H2073 C2089 0.959 . S
H2074 C2089 0.959 . S
H2075 C2089 0.961 . S
H2076 C2090 0.960 . S
H2077 C2090 0.961 . S
H2078 C2090 0.959 . S
H2079 C2093 0.929 . S
H2080 C2094 0.931 . S
H2081 C2096 0.930 . S
C2082 H2070 0.930 . S
C2082 C2083 1.399 . S
C2082 C2087 1.399 . S
C2083 C2082 1.399 . S
C2083 C2084 1.376 . S
C2084 H2071 0.930 . S
C2084 C2083 1.376 . S
C2084 C2085 1.388 . S
C2085 H2072 0.930 . S
C2085 C2084 1.388 . S
C2085 C2086 1.390 . S
C2086 C2085 1.390 . S
C2086 C2087 1.394 . S
C2086 C2092 1.465 . S
C2087 C2082 1.399 . S
C2087 C2086 1.394 . S
C2087 C2088 1.516 . S
C2088 C2087 1.516 . S
C2088 C2089 1.502 . S
C2088 C2090 1.561 . S
C2088 C2091 1.526 . S
C2089 H2073 0.959 . S
C2089 H2074 0.959 . S
C2089 H2075 0.961 . S
C2089 C2088 1.502 . S
C2090 H2076 0.960 . S
C2090 H2077 0.961 . S
C2090 H2078 0.959 . S
C2090 C2088 1.561 . S
C2091 C2088 1.526 . S
C2091 C2092 1.396 . S
C2091 C2096 1.390 . S
C2092 C2086 1.465 . S
C2092 C2091 1.396 . S
C2092 C2093 1.399 . S
C2093 H2079 0.929 . S
C2093 C2092 1.399 . S
C2093 C2094 1.385 . S
C2094 H2080 0.931 . S
C2094 C2093 1.385 . S
C2094 C2095 1.389 . S
C2095 C2094 1.389 . S
C2095 C2096 1.387 . S
C2096 H2081 0.930 . S
C2096 C2091 1.390 . S
C2096 C2095 1.387 . S
H2097 C2109 0.930 . S
H2098 C2111 0.930 . S
H2099 C2112 0.930 . S
H2100 C2116 0.959 . S
H2101 C2116 0.959 . S
H2102 C2116 0.961 . S
H2103 C2117 0.960 . S
H2104 C2117 0.961 . S
H2105 C2117 0.959 . S
H2106 C2120 0.929 . S
H2107 C2121 0.931 . S
H2108 C2123 0.930 . S
C2109 H2097 0.930 . S
C2109 C2110 1.399 . S
C2109 C2114 1.399 . S
C2110 C2109 1.399 . S
C2110 C2111 1.376 . S
C2111 H2098 0.930 . S
C2111 C2110 1.376 . S
C2111 C2112 1.388 . S
C2112 H2099 0.930 . S
C2112 C2111 1.388 . S
C2112 C2113 1.390 . S
C2113 C2112 1.390 . S
C2113 C2114 1.394 . S
C2113 C2119 1.465 . S
C2114 C2109 1.399 . S
C2114 C2113 1.394 . S
C2114 C2115 1.516 . S
C2115 C2114 1.516 . S
C2115 C2116 1.502 . S
C2115 C2117 1.561 . S
C2115 C2118 1.526 . S
C2116 H2100 0.959 . S
C2116 H2101 0.959 . S
C2116 H2102 0.961 . S
C2116 C2115 1.502 . S
C2117 H2103 0.960 . S
C2117 H2104 0.961 . S
C2117 H2105 0.959 . S
C2117 C2115 1.561 . S
C2118 C2115 1.526 . S
C2118 C2119 1.396 . S
C2118 C2123 1.390 . S
C2119 C2113 1.465 . S
C2119 C2118 1.396 . S
C2119 C2120 1.399 . S
C2120 H2106 0.929 . S
C2120 C2119 1.399 . S
C2120 C2121 1.385 . S
C2121 H2107 0.931 . S
C2121 C2120 1.385 . S
C2121 C2122 1.389 . S
C2122 C2121 1.389 . S
C2122 C2123 1.387 . S
C2123 H2108 0.930 . S
C2123 C2118 1.390 . S
C2123 C2122 1.387 . S
H2124 C2136 0.930 . S
H2125 C2138 0.930 . S
H2126 C2139 0.930 . S
H2127 C2143 0.959 . S
H2128 C2143 0.959 . S
H2129 C2143 0.961 . S
H2130 C2144 0.960 . S
H2131 C2144 0.961 . S
H2132 C2144 0.959 . S
H2133 C2147 0.929 . S
H2134 C2148 0.953 . S
H2135 C2150 0.930 . S
C2136 H2124 0.930 . S
C2136 C2137 1.399 . S
C2136 C2141 1.399 . S
C2137 C2136 1.399 . S
C2137 C2138 1.376 . S
C2138 H2125 0.930 . S
C2138 C2137 1.376 . S
C2138 C2139 1.388 . S
C2139 H2126 0.930 . S
C2139 C2138 1.388 . S
C2139 C2140 1.390 . S
C2140 C2139 1.390 . S
C2140 C2141 1.394 . S
C2140 C2146 1.465 . S
C2141 C2136 1.399 . S
C2141 C2140 1.394 . S
C2141 C2142 1.516 . S
C2142 C2141 1.516 . S
C2142 C2143 1.502 . S
C2142 C2144 1.561 . S
C2142 C2145 1.526 . S
C2143 H2127 0.959 . S
C2143 H2128 0.959 . S
C2143 H2129 0.961 . S
C2143 C2142 1.502 . S
C2144 H2130 0.960 . S
C2144 H2131 0.961 . S
C2144 H2132 0.959 . S
C2144 C2142 1.561 . S
C2145 C2142 1.526 . S
C2145 C2146 1.396 . S
C2145 C2150 1.390 . S
C2146 C2140 1.465 . S
C2146 C2145 1.396 . S
C2146 C2147 1.399 . S
C2147 H2133 0.929 . S
C2147 C2146 1.399 . S
C2147 C2148 1.371 1_556 S
C2148 H2134 0.953 . S
C2148 C2147 1.371 1_554 S
C2148 C2149 1.382 1_554 S
C2149 C2148 1.382 1_556 S
C2149 C2150 1.387 . S
C2150 H2135 0.930 . S
C2150 C2145 1.390 . S
C2150 C2149 1.387 . S
H2151 C2163 0.930 1_554 S
H2152 C2165 0.930 . S
H2153 C2166 0.930 . S
H2154 C2170 0.959 . S
H2155 C2170 0.959 . S
H2156 C2170 0.961 . S
H2157 C2171 0.960 . S
H2158 C2171 0.961 . S
H2159 C2171 0.959 . S
H2160 C2174 0.929 . S
H2161 C2175 0.931 . S
H2162 C2177 0.930 . S
C2163 H2151 0.930 1_556 S
C2163 C2164 1.399 . S
C2163 C2168 1.399 . S
C2164 C2163 1.399 . S
C2164 C2165 1.376 . S
C2165 H2152 0.930 . S
C2165 C2164 1.376 . S
C2165 C2166 1.388 . S
C2166 H2153 0.930 . S
C2166 C2165 1.388 . S
C2166 C2167 1.390 . S
C2167 C2166 1.390 . S
C2167 C2168 1.394 . S
C2167 C2173 1.465 . S
C2168 C2163 1.399 . S
C2168 C2167 1.394 . S
C2168 C2169 1.516 . S
C2169 C2168 1.516 . S
C2169 C2170 1.502 . S
C2169 C2171 1.561 . S
C2169 C2172 1.526 . S
C2170 H2154 0.959 . S
C2170 H2155 0.959 . S
C2170 H2156 0.961 . S
C2170 C2169 1.502 . S
C2171 H2157 0.960 . S
C2171 H2158 0.961 . S
C2171 H2159 0.959 . S
C2171 C2169 1.561 . S
C2172 C2169 1.526 . S
C2172 C2173 1.396 . S
C2172 C2177 1.390 . S
C2173 C2167 1.465 . S
C2173 C2172 1.396 . S
C2173 C2174 1.399 . S
C2174 H2160 0.929 . S
C2174 C2173 1.399 . S
C2174 C2175 1.385 . S
C2175 H2161 0.931 . S
C2175 C2174 1.385 . S
C2175 C2176 1.389 . S
C2176 C2175 1.389 . S
C2176 C2177 1.387 . S
C2177 H2162 0.930 . S
C2177 C2172 1.390 . S
C2177 C2176 1.387 . S
H2178 C2190 0.930 . S
H2179 C2192 0.930 . S
H2180 C2193 0.930 . S
H2181 C2197 0.959 . S
H2182 C2197 0.959 . S
H2183 C2197 0.961 . S
H2184 C2198 0.960 . S
H2185 C2198 0.961 . S
H2186 C2198 0.959 . S
H2187 C2201 0.929 . S
H2188 C2202 0.931 . S
H2189 C2204 0.930 . S
C2190 H2178 0.930 . S
C2190 C2191 1.399 . S
C2190 C2195 1.399 . S
C2191 C2190 1.399 . S
C2191 C2192 1.376 . S
C2192 H2179 0.930 . S
C2192 C2191 1.376 . S
C2192 C2193 1.388 . S
C2193 H2180 0.930 . S
C2193 C2192 1.388 . S
C2193 C2194 1.390 . S
C2194 C2193 1.390 . S
C2194 C2195 1.394 . S
C2194 C2200 1.465 . S
C2195 C2190 1.399 . S
C2195 C2194 1.394 . S
C2195 C2196 1.516 . S
C2196 C2195 1.516 . S
C2196 C2197 1.502 . S
C2196 C2198 1.561 . S
C2196 C2199 1.526 . S
C2197 H2181 0.959 . S
C2197 H2182 0.959 . S
C2197 H2183 0.961 . S
C2197 C2196 1.502 . S
C2198 H2184 0.960 . S
C2198 H2185 0.961 . S
C2198 H2186 0.959 . S
C2198 C2196 1.561 . S
C2199 C2196 1.526 . S
C2199 C2200 1.396 . S
C2199 C2204 1.390 . S
C2200 C2194 1.465 . S
C2200 C2199 1.396 . S
C2200 C2201 1.399 . S
C2201 H2187 0.929 . S
C2201 C2200 1.399 . S
C2201 C2202 1.385 1_556 S
C2202 H2188 0.931 . S
C2202 C2201 1.385 1_554 S
C2202 C2203 1.389 1_554 S
C2203 C2202 1.389 1_556 S
C2203 C2204 1.387 . S
C2204 H2189 0.930 . S
C2204 C2199 1.390 . S
C2204 C2203 1.387 . S
H2205 C2217 0.930 . S
H2206 C2219 0.930 . S
H2207 C2220 0.930 . S
H2208 C2224 0.959 . S
H2209 C2224 0.959 . S
H2210 C2224 0.961 . S
H2211 C2225 0.960 . S
H2212 C2225 0.961 . S
H2213 C2225 0.959 . S
H2214 C2228 0.929 . S
H2215 C2229 0.931 . S
H2216 C2231 0.930 . S
C2217 H2205 0.930 . S
C2217 C2218 1.399 . S
C2217 C2222 1.399 . S
C2218 C2217 1.399 . S
C2218 C2219 1.376 . S
C2219 H2206 0.930 . S
C2219 C2218 1.376 . S
C2219 C2220 1.388 . S
C2220 H2207 0.930 . S
C2220 C2219 1.388 . S
C2220 C2221 1.390 . S
C2221 C2220 1.390 . S
C2221 C2222 1.394 . S
C2221 C2227 1.465 . S
C2222 C2217 1.399 . S
C2222 C2221 1.394 . S
C2222 C2223 1.516 . S
C2223 C2222 1.516 . S
C2223 C2224 1.502 . S
C2223 C2225 1.561 . S
C2223 C2226 1.526 . S
C2224 H2208 0.959 . S
C2224 H2209 0.959 . S
C2224 H2210 0.961 . S
C2224 C2223 1.502 . S
C2225 H2211 0.960 . S
C2225 H2212 0.961 . S
C2225 H2213 0.959 . S
C2225 C2223 1.561 . S
C2226 C2223 1.526 . S
C2226 C2227 1.396 . S
C2226 C2231 1.390 . S
C2227 C2221 1.465 . S
C2227 C2226 1.396 . S
C2227 C2228 1.399 . S
C2228 H2214 0.929 . S
C2228 C2227 1.399 . S
C2228 C2229 1.385 . S
C2229 H2215 0.931 . S
C2229 C2228 1.385 . S
C2229 C2230 1.389 . S
C2230 C2229 1.389 . S
C2230 C2231 1.387 . S
C2231 H2216 0.930 . S
C2231 C2226 1.390 . S
C2231 C2230 1.387 . S
H2232 C2244 0.930 . S
H2233 C2246 0.930 . S
H2234 C2247 0.930 . S
H2235 C2251 0.959 . S
H2236 C2251 0.959 . S
H2237 C2251 0.961 . S
H2238 C2252 0.960 . S
H2239 C2252 0.961 . S
H2240 C2252 0.959 . S
H2241 C2255 0.929 . S
H2242 C2256 0.931 . S
H2243 C2258 0.930 . S
C2244 H2232 0.930 . S
C2244 C2245 1.399 . S
C2244 C2249 1.399 . S
C2245 C2244 1.399 . S
C2245 C2246 1.376 . S
C2246 H2233 0.930 . S
C2246 C2245 1.376 . S
C2246 C2247 1.388 . S
C2247 H2234 0.930 . S
C2247 C2246 1.388 . S
C2247 C2248 1.390 . S
C2248 C2247 1.390 . S
C2248 C2249 1.394 . S
C2248 C2254 1.465 . S
C2249 C2244 1.399 . S
C2249 C2248 1.394 . S
C2249 C2250 1.516 . S
C2250 C2249 1.516 . S
C2250 C2251 1.502 . S
C2250 C2252 1.561 . S
C2250 C2253 1.526 . S
C2251 H2235 0.959 . S
C2251 H2236 0.959 . S
C2251 H2237 0.961 . S
C2251 C2250 1.502 . S
C2252 H2238 0.960 . S
C2252 H2239 0.961 . S
C2252 H2240 0.959 . S
C2252 C2250 1.561 . S
C2253 C2250 1.526 . S
C2253 C2254 1.396 . S
C2253 C2258 1.390 . S
C2254 C2248 1.465 . S
C2254 C2253 1.396 . S
C2254 C2255 1.399 . S
C2255 H2241 0.929 . S
C2255 C2254 1.399 . S
C2255 C2256 1.385 . S
C2256 H2242 0.931 . S
C2256 C2255 1.385 . S
C2256 C2257 1.389 . S
C2257 C2256 1.389 . S
C2257 C2258 1.387 . S
C2258 H2243 0.930 . S
C2258 C2253 1.390 . S
C2258 C2257 1.387 . S
H2259 C2271 0.930 . S
H2260 C2273 0.930 . S
H2261 C2274 0.930 . S
H2262 C2278 0.959 . S
H2263 C2278 0.959 . S
H2264 C2278 0.961 . S
H2265 C2279 0.960 . S
H2266 C2279 0.961 . S
H2267 C2279 0.959 . S
H2268 C2282 0.929 . S
H2269 C2283 0.931 . S
H2270 C2285 0.930 . S
C2271 H2259 0.930 . S
C2271 C2272 1.399 . S
C2271 C2276 1.399 . S
C2272 C2271 1.399 . S
C2272 C2273 1.376 . S
C2273 H2260 0.930 . S
C2273 C2272 1.376 . S
C2273 C2274 1.388 . S
C2274 H2261 0.930 . S
C2274 C2273 1.388 . S
C2274 C2275 1.390 . S
C2275 C2274 1.390 . S
C2275 C2276 1.394 . S
C2275 C2281 1.465 . S
C2276 C2271 1.399 . S
C2276 C2275 1.394 . S
C2276 C2277 1.516 . S
C2277 C2276 1.516 . S
C2277 C2278 1.502 . S
C2277 C2279 1.561 . S
C2277 C2280 1.526 . S
C2278 H2262 0.959 . S
C2278 H2263 0.959 . S
C2278 H2264 0.961 . S
C2278 C2277 1.502 . S
C2279 H2265 0.960 . S
C2279 H2266 0.961 . S
C2279 H2267 0.959 . S
C2279 C2277 1.561 . S
C2280 C2277 1.526 . S
C2280 C2281 1.396 . S
C2280 C2285 1.390 . S
C2281 C2275 1.465 . S
C2281 C2280 1.396 . S
C2281 C2282 1.399 . S
C2282 H2268 0.929 . S
C2282 C2281 1.399 . S
C2282 C2283 1.385 . S
C2283 H2269 0.931 . S
C2283 C2282 1.385 . S
C2283 C2284 1.389 . S
C2284 C2283 1.389 . S
C2284 C2285 1.387 . S
C2285 H2270 0.930 . S
C2285 C2280 1.390 . S
C2285 C2284 1.387 . S
H2286 C2298 0.930 . S
H2287 C2300 0.930 . S
H2288 C2301 0.930 . S
H2289 C2305 0.959 . S
H2290 C2305 0.959 . S
H2291 C2305 0.961 . S
H2292 C2306 0.960 . S
H2293 C2306 0.961 . S
H2294 C2306 0.959 . S
H2295 C2309 0.929 . S
H2296 C2310 0.931 . S
H2297 C2312 0.930 . S
C2298 H2286 0.930 . S
C2298 C2299 1.399 . S
C2298 C2303 1.399 . S
C2299 C2298 1.399 . S
C2299 C2300 1.376 . S
C2300 H2287 0.930 . S
C2300 C2299 1.376 . S
C2300 C2301 1.388 . S
C2301 H2288 0.930 . S
C2301 C2300 1.388 . S
C2301 C2302 1.390 . S
C2302 C2301 1.390 . S
C2302 C2303 1.394 . S
C2302 C2308 1.465 . S
C2303 C2298 1.399 . S
C2303 C2302 1.394 . S
C2303 C2304 1.516 . S
C2304 C2303 1.516 . S
C2304 C2305 1.502 . S
C2304 C2306 1.561 . S
C2304 C2307 1.526 . S
C2305 H2289 0.959 . S
C2305 H2290 0.959 . S
C2305 H2291 0.961 . S
C2305 C2304 1.502 . S
C2306 H2292 0.960 . S
C2306 H2293 0.961 . S
C2306 H2294 0.959 . S
C2306 C2304 1.561 . S
C2307 C2304 1.526 . S
C2307 C2308 1.396 . S
C2307 C2312 1.390 . S
C2308 C2302 1.465 . S
C2308 C2307 1.396 . S
C2308 C2309 1.399 . S
C2309 H2295 0.929 . S
C2309 C2308 1.399 . S
C2309 C2310 1.385 . S
C2310 H2296 0.931 . S
C2310 C2309 1.385 . S
C2310 C2311 1.389 . S
C2311 C2310 1.389 . S
C2311 C2312 1.387 . S
C2312 H2297 0.930 . S
C2312 C2307 1.390 . S
C2312 C2311 1.387 . S
H2313 C2325 0.930 . S
H2314 C2327 0.930 . S
H2315 C2328 0.930 . S
H2316 C2332 0.959 . S
H2317 C2332 0.959 . S
H2318 C2332 0.961 . S
H2319 C2333 0.960 . S
H2320 C2333 0.961 . S
H2321 C2333 0.959 . S
H2322 C2336 0.929 . S
H2323 C2337 0.931 . S
H2324 C2339 0.930 . S
C2325 H2313 0.930 . S
C2325 C2326 1.399 . S
C2325 C2330 1.399 . S
C2326 C2325 1.399 . S
C2326 C2327 1.376 . S
C2327 H2314 0.930 . S
C2327 C2326 1.376 . S
C2327 C2328 1.388 . S
C2328 H2315 0.930 . S
C2328 C2327 1.388 . S
C2328 C2329 1.390 . S
C2329 C2328 1.390 . S
C2329 C2330 1.394 . S
C2329 C2335 1.488 . S
C2330 C2325 1.399 . S
C2330 C2329 1.394 . S
C2330 C2331 1.516 1_545 S
C2331 C2330 1.516 1_565 S
C2331 C2332 1.502 . S
C2331 C2333 1.561 . S
C2331 C2334 1.526 . S
C2332 H2316 0.959 . S
C2332 H2317 0.959 . S
C2332 H2318 0.961 . S
C2332 C2331 1.502 . S
C2333 H2319 0.960 . S
C2333 H2320 0.961 . S
C2333 H2321 0.959 . S
C2333 C2331 1.561 . S
C2334 C2331 1.526 . S
C2334 C2335 1.363 1_565 S
C2334 C2339 1.390 . S
C2335 C2329 1.488 . S
C2335 C2334 1.363 1_545 S
C2335 C2336 1.405 . S
C2336 H2322 0.929 . S
C2336 C2335 1.405 . S
C2336 C2337 1.385 1_545 S
C2337 H2323 0.931 . S
C2337 C2336 1.385 1_565 S
C2337 C2338 1.389 . S
C2338 C2337 1.389 . S
C2338 C2339 1.387 . S
C2339 H2324 0.930 . S
C2339 C2334 1.390 . S
C2339 C2338 1.387 . S
H2340 C2352 0.930 . S
H2341 C2354 0.930 . S
H2342 C2355 0.930 . S
H2343 C2359 0.959 . S
H2344 C2359 0.959 . S
H2345 C2359 0.961 . S
H2346 C2360 0.960 . S
H2347 C2360 0.961 . S
H2348 C2360 0.959 . S
H2349 C2363 0.929 . S
H2350 C2364 0.931 . S
H2351 C2366 0.930 . S
C2352 H2340 0.930 . S
C2352 C2353 1.399 . S
C2352 C2357 1.399 . S
C2353 C2352 1.399 . S
C2353 C2354 1.376 . S
C2354 H2341 0.930 . S
C2354 C2353 1.376 . S
C2354 C2355 1.388 . S
C2355 H2342 0.930 . S
C2355 C2354 1.388 . S
C2355 C2356 1.390 . S
C2356 C2355 1.390 . S
C2356 C2357 1.394 . S
C2356 C2362 1.465 1_655 S
C2357 C2352 1.399 . S
C2357 C2356 1.394 . S
C2357 C2358 1.516 . S
C2358 C2357 1.516 . S
C2358 C2359 1.502 . S
C2358 C2360 1.561 1_655 S
C2358 C2361 1.526 1_655 S
C2359 H2343 0.959 . S
C2359 H2344 0.959 . S
C2359 H2345 0.961 . S
C2359 C2358 1.502 . S
C2360 H2346 0.960 . S
C2360 H2347 0.961 . S
C2360 H2348 0.959 . S
C2360 C2358 1.561 1_455 S
C2361 C2358 1.526 1_455 S
C2361 C2362 1.396 . S
C2361 C2366 1.390 . S
C2362 C2356 1.465 1_455 S
C2362 C2361 1.396 . S
C2362 C2363 1.399 . S
C2363 H2349 0.929 . S
C2363 C2362 1.399 . S
C2363 C2364 1.385 . S
C2364 H2350 0.931 . S
C2364 C2363 1.385 . S
C2364 C2365 1.389 . S
C2365 C2364 1.389 . S
C2365 C2366 1.387 . S
C2366 H2351 0.930 . S
C2366 C2361 1.390 . S
C2366 C2365 1.387 . S
H2367 C2379 0.930 . S
H2368 C2381 0.930 . S
H2369 C2382 0.930 . S
H2370 C2386 0.959 . S
H2371 C2386 0.959 . S
H2372 C2386 0.961 . S
H2373 C2387 0.960 . S
H2374 C2387 0.961 . S
H2375 C2387 0.959 . S
H2376 C2390 0.929 . S
H2377 C2391 0.931 . S
H2378 C2393 0.930 . S
C2379 H2367 0.930 . S
C2379 C2380 1.399 . S
C2379 C2384 1.399 . S
C2380 C2379 1.399 . S
C2380 C2381 1.376 . S
C2381 H2368 0.930 . S
C2381 C2380 1.376 . S
C2381 C2382 1.388 . S
C2382 H2369 0.930 . S
C2382 C2381 1.388 . S
C2382 C2383 1.390 . S
C2383 C2382 1.390 . S
C2383 C2384 1.394 . S
C2383 C2389 1.465 . S
C2384 C2379 1.399 . S
C2384 C2383 1.394 . S
C2384 C2385 1.516 . S
C2385 C2384 1.516 . S
C2385 C2386 1.502 . S
C2385 C2387 1.561 . S
C2385 C2388 1.526 . S
C2386 H2370 0.959 . S
C2386 H2371 0.959 . S
C2386 H2372 0.961 . S
C2386 C2385 1.502 . S
C2387 H2373 0.960 . S
C2387 H2374 0.961 . S
C2387 H2375 0.959 . S
C2387 C2385 1.561 . S
C2388 C2385 1.526 . S
C2388 C2389 1.396 . S
C2388 C2393 1.390 . S
C2389 C2383 1.465 . S
C2389 C2388 1.396 . S
C2389 C2390 1.399 . S
C2390 H2376 0.929 . S
C2390 C2389 1.399 . S
C2390 C2391 1.385 . S
C2391 H2377 0.931 . S
C2391 C2390 1.385 . S
C2391 C2392 1.389 . S
C2392 C2391 1.389 . S
C2392 C2393 1.387 . S
C2393 H2378 0.930 . S
C2393 C2388 1.390 . S
C2393 C2392 1.387 . S
H2394 C2406 0.930 . S
H2395 C2408 0.930 . S
H2396 C2409 0.930 . S
H2397 C2413 0.959 . S
H2398 C2413 0.959 . S
H2399 C2413 0.961 . S
H2400 C2414 0.960 . S
H2401 C2414 0.961 . S
H2402 C2414 0.959 . S
H2403 C2417 0.929 . S
H2404 C2418 0.931 . S
H2405 C2420 0.930 . S
C2406 H2394 0.930 . S
C2406 C2407 1.399 . S
C2406 C2411 1.399 . S
C2407 C2406 1.399 . S
C2407 C2408 1.376 . S
C2408 H2395 0.930 . S
C2408 C2407 1.376 . S
C2408 C2409 1.388 1_545 S
C2409 H2396 0.930 . S
C2409 C2408 1.388 1_565 S
C2409 C2410 1.390 1_565 S
C2410 C2409 1.390 1_545 S
C2410 C2411 1.390 . S
C2410 C2416 1.468 1_545 S
C2411 C2406 1.399 . S
C2411 C2410 1.390 . S
C2411 C2412 1.516 . S
C2412 C2411 1.516 . S
C2412 C2413 1.502 . S
C2412 C2414 1.561 . S
C2412 C2415 1.526 1_545 S
C2413 H2397 0.959 . S
C2413 H2398 0.959 . S
C2413 H2399 0.961 . S
C2413 C2412 1.502 . S
C2414 H2400 0.960 . S
C2414 H2401 0.961 . S
C2414 H2402 0.959 . S
C2414 C2412 1.561 . S
C2415 C2412 1.526 1_565 S
C2415 C2416 1.396 . S
C2415 C2420 1.390 . S
C2416 C2410 1.468 1_565 S
C2416 C2415 1.396 . S
C2416 C2417 1.399 . S
C2417 H2403 0.929 . S
C2417 C2416 1.399 . S
C2417 C2418 1.385 . S
C2418 H2404 0.931 . S
C2418 C2417 1.385 . S
C2418 C2419 1.389 . S
C2419 C2418 1.389 . S
C2419 C2420 1.387 . S
C2420 H2405 0.930 . S
C2420 C2415 1.390 . S
C2420 C2419 1.387 . S
H2421 C2433 0.930 . S
H2422 C2435 0.930 . S
H2423 C2436 0.930 . S
H2424 C2440 0.959 . S
H2425 C2440 0.959 1_655 S
H2426 C2440 0.961 . S
H2427 C2441 0.960 . S
H2428 C2441 0.961 . S
H2429 C2441 0.959 . S
H2430 C2444 0.929 . S
H2431 C2445 0.931 . S
H2432 C2447 0.930 . S
C2433 H2421 0.930 . S
C2433 C2434 1.399 . S
C2433 C2438 1.399 . S
C2434 C2433 1.399 . S
C2434 C2435 1.376 . S
C2435 H2422 0.930 . S
C2435 C2434 1.376 . S
C2435 C2436 1.388 . S
C2436 H2423 0.930 . S
C2436 C2435 1.388 . S
C2436 C2437 1.390 . S
C2437 C2436 1.390 . S
C2437 C2438 1.394 . S
C2437 C2443 1.465 1_455 S
C2438 C2433 1.399 . S
C2438 C2437 1.394 . S
C2438 C2439 1.516 1_455 S
C2439 C2438 1.516 1_655 S
C2439 C2440 1.502 1_655 S
C2439 C2441 1.561 . S
C2439 C2442 1.526 . S
C2440 H2424 0.959 . S
C2440 H2425 0.959 1_455 S
C2440 H2426 0.961 . S
C2440 C2439 1.502 1_455 S
C2441 H2427 0.960 . S
C2441 H2428 0.961 . S
C2441 H2429 0.959 . S
C2441 C2439 1.561 . S
C2442 C2439 1.526 . S
C2442 C2443 1.396 . S
C2442 C2447 1.390 . S
C2443 C2437 1.465 1_655 S
C2443 C2442 1.396 . S
C2443 C2444 1.399 . S
C2444 H2430 0.929 . S
C2444 C2443 1.399 . S
C2444 C2445 1.385 . S
C2445 H2431 0.931 . S
C2445 C2444 1.385 . S
C2445 C2446 1.389 . S
C2446 C2445 1.389 . S
C2446 C2447 1.387 . S
C2447 H2432 0.930 . S
C2447 C2442 1.390 . S
C2447 C2446 1.387 . S
C517 C78 0.757 . S
C529 C8 0.530 . S
C544 C50 0.670 . S
C556 C22 0.725 . S
C571 C36 0.550 . S
C583 C64 0.759 . S
C598 C92 0.611 . S
C610 C162 0.756 . S
C625 C106 0.571 . S
C637 C134 0.512 . S
C652 C148 0.653 . S
C664 C120 0.759 . S
C679 C176 0.736 . S
C691 C246 0.655 . S
C706 C190 0.490 . S
C718 C218 0.707 . S
C733 C232 0.755 . S
C745 C204 0.525 . S
C760 C330 0.614 . S
C772 C260 0.756 . S
C787 C302 0.531 . S
C799 C274 0.717 . S
C814 C288 0.742 . S
C826 C316 0.567 . S
C841 C414 0.689 . S
C853 C344 0.711 . S
C868 C386 0.608 . S
C880 C358 0.753 . S
C895 C372 0.577 . S
C907 C400 0.573 . S
C922 C498 0.608 . S
C934 C428 0.755 . S
C949 C470 0.725 . S
C961 C442 0.540 . S
C976 C484 0.686 . S
C988 C456 0.754 . S
C1003 C237 1.128 . S
C1015 C13 1.133 . S
C1030 C251 1.243 . S
C1042 C27 1.222 . S
C1057 C223 1.211 . S
C1069 C41 1.186 . S
C1084 C55 1.179 . S
C1096 C377 1.157 . S
C1111 C69 1.129 . S
C1123 C349 1.131 . S
C1138 C83 1.235 . S
C1150 C363 1.212 . S
C1165 C97 1.242 . S
C1177 C489 1.181 . S
C1192 C503 1.262 . S
C1204 C111 1.243 . S
C1219 C475 1.249 . S
C1231 C125 1.191 . S
C1246 C293 1.262 . S
C1258 C139 1.243 . S
C1273 C265 1.203 . S
C1285 C153 1.144 . S
C1300 C167 1.257 . S
C1312 C279 1.253 . S
C1327 C181 1.242 . S
C1339 C405 1.221 . S
C1354 C419 1.162 . S
C1366 C195 1.187 . S
C1381 C391 1.219 . S
C1393 C209 1.240 . S
C1408 C307 1.135 . S
C1420 C461 1.190 . S
C1435 C433 1.149 . S
C1447 C321 1.131 . S
C1462 C335 1.140 . S
C1474 C447 1.135 . S
C1489 C263 1.225 . S
C1501 C11 1.275 . S
C1516 C277 1.230 . S
C1528 C25 1.268 . S
C1543 C39 1.279 . S
C1555 C291 1.223 . S
C1570 C53 1.232 . S
C1582 C473 1.266 . S
C1597 C487 1.227 . S
C1609 C67 1.283 . S
C1624 C501 1.220 . S
C1636 C81 1.284 . S
C1651 C95 1.235 . S
C1663 C347 1.263 . S
C1678 C109 1.227 . S
C1690 C361 1.272 . S
C1705 C375 1.269 . S
C1717 C123 1.230 . S
C1732 C137 1.267 . S
C1744 C221 1.232 . S
C1759 C151 1.245 . S
C1771 C235 1.252 . S
C1786 C249 1.228 . S
C1798 C165 1.270 . S
C1813 C179 1.279 . S
C1825 C431 1.236 . S
C1840 C193 1.226 . S
C1852 C445 1.272 . S
C1867 C459 1.230 . S
C1879 C207 1.278 . S
C1894 C389 1.271 . S
C1906 C305 1.229 . S
C1921 C319 1.260 . S
C1933 C403 1.252 . S
C1948 C333 1.221 . S
C1960 C417 1.282 . S
C1975 C385 1.597 1_554 S
C1987 C7 1.598 . S
C2002 C21 1.620 . S
C2014 C399 1.621 1_554 S
C2029 C413 1.618 1_554 S
C2041 C35 1.618 . S
C2056 C49 1.638 . S
C2068 C175 1.638 . S
C2083 C189 1.639 . S
C2095 C63 1.639 . S
C2110 C203 1.597 . S
C2122 C77 1.598 . S
C2137 C91 1.637 . S
C2149 C301 1.627 1_556 S
C2164 C315 1.634 1_556 S
C2176 C105 1.622 . S
C2191 C119 1.627 . S
C2203 C329 1.615 1_556 S
C2218 C133 1.601 . S
C2230 C427 1.613 . S
C2245 C147 1.640 . S
C2257 C441 1.636 . S
C2272 C455 1.597 . S
C2284 C161 1.599 . S
C2299 C217 1.597 . S
C2311 C343 1.597 . S
C2326 C231 1.614 . S
C2338 C357 1.614 . S
C2353 C245 1.599 . S
C2365 C371 1.600 . S
C2380 C259 1.607 . S
C2392 C469 1.620 . S
C2407 C273 1.603 . S
C2419 C483 1.615 . S
C2434 C497 1.637 . S
C2446 C287 1.640 . S
