# Generated by pormake.
# Topology pcl, (4)-cn, num edge types: 1
# Building blocks:
#     Node 0, Type 0, BuildingBlock: QUQFOY_clean_sbu_3, # of connection points: 4
#     Node 1, Type 0, BuildingBlock: QUQFOY_clean_sbu_3, # of connection points: 4
#     Node 2, Type 0, BuildingBlock: QUQFOY_clean_sbu_3, # of connection points: 4
#     Node 3, Type 0, BuildingBlock: QUQFOY_clean_sbu_3, # of connection points: 4
#     Node 4, Type 0, BuildingBlock: QUQFOY_clean_sbu_3, # of connection points: 4
#     Node 5, Type 0, BuildingBlock: QUQFOY_clean_sbu_3, # of connection points: 4
#     Node 6, Type 0, BuildingBlock: QUQFOY_clean_sbu_3, # of connection points: 4
#     Node 7, Type 0, BuildingBlock: QUQFOY_clean_sbu_3, # of connection points: 4
#     Node 8, Type 0, BuildingBlock: QUQFOY_clean_sbu_3, # of connection points: 4
#     Node 9, Type 0, BuildingBlock: QUQFOY_clean_sbu_3, # of connection points: 4
#     Node 10, Type 0, BuildingBlock: QUQFOY_clean_sbu_3, # of connection points: 4
#     Node 11, Type 0, BuildingBlock: QUQFOY_clean_sbu_3, # of connection points: 4
#     Node 12, Type 0, BuildingBlock: QUQFOY_clean_sbu_3, # of connection points: 4
#     Node 13, Type 0, BuildingBlock: QUQFOY_clean_sbu_3, # of connection points: 4
#     Node 14, Type 0, BuildingBlock: QUQFOY_clean_sbu_3, # of connection points: 4
#     Node 15, Type 0, BuildingBlock: QUQFOY_clean_sbu_3, # of connection points: 4
#     Edge 16, Type (0, 0), BuildingBlock: MIFKUJ_clean_linker_0, # of connection points: 2
#     Edge 17, Type (0, 0), BuildingBlock: MIFKUJ_clean_linker_0, # of connection points: 2
#     Edge 18, Type (0, 0), BuildingBlock: MIFKUJ_clean_linker_0, # of connection points: 2
#     Edge 19, Type (0, 0), BuildingBlock: MIFKUJ_clean_linker_0, # of connection points: 2
#     Edge 20, Type (0, 0), BuildingBlock: MIFKUJ_clean_linker_0, # of connection points: 2
#     Edge 21, Type (0, 0), BuildingBlock: MIFKUJ_clean_linker_0, # of connection points: 2
#     Edge 22, Type (0, 0), BuildingBlock: MIFKUJ_clean_linker_0, # of connection points: 2
#     Edge 23, Type (0, 0), BuildingBlock: MIFKUJ_clean_linker_0, # of connection points: 2
#     Edge 24, Type (0, 0), BuildingBlock: MIFKUJ_clean_linker_0, # of connection points: 2
#     Edge 25, Type (0, 0), BuildingBlock: MIFKUJ_clean_linker_0, # of connection points: 2
#     Edge 26, Type (0, 0), BuildingBlock: MIFKUJ_clean_linker_0, # of connection points: 2
#     Edge 27, Type (0, 0), BuildingBlock: MIFKUJ_clean_linker_0, # of connection points: 2
#     Edge 28, Type (0, 0), BuildingBlock: MIFKUJ_clean_linker_0, # of connection points: 2
#     Edge 29, Type (0, 0), BuildingBlock: MIFKUJ_clean_linker_0, # of connection points: 2
#     Edge 30, Type (0, 0), BuildingBlock: MIFKUJ_clean_linker_0, # of connection points: 2
#     Edge 31, Type (0, 0), BuildingBlock: MIFKUJ_clean_linker_0, # of connection points: 2
#     Edge 32, Type (0, 0), BuildingBlock: MIFKUJ_clean_linker_0, # of connection points: 2
#     Edge 33, Type (0, 0), BuildingBlock: MIFKUJ_clean_linker_0, # of connection points: 2
#     Edge 34, Type (0, 0), BuildingBlock: MIFKUJ_clean_linker_0, # of connection points: 2
#     Edge 35, Type (0, 0), BuildingBlock: MIFKUJ_clean_linker_0, # of connection points: 2
#     Edge 36, Type (0, 0), BuildingBlock: MIFKUJ_clean_linker_0, # of connection points: 2
#     Edge 37, Type (0, 0), BuildingBlock: MIFKUJ_clean_linker_0, # of connection points: 2
#     Edge 38, Type (0, 0), BuildingBlock: MIFKUJ_clean_linker_0, # of connection points: 2
#     Edge 39, Type (0, 0), BuildingBlock: MIFKUJ_clean_linker_0, # of connection points: 2
#     Edge 40, Type (0, 0), BuildingBlock: MIFKUJ_clean_linker_0, # of connection points: 2
#     Edge 41, Type (0, 0), BuildingBlock: MIFKUJ_clean_linker_0, # of connection points: 2
#     Edge 42, Type (0, 0), BuildingBlock: MIFKUJ_clean_linker_0, # of connection points: 2
#     Edge 43, Type (0, 0), BuildingBlock: MIFKUJ_clean_linker_0, # of connection points: 2
#     Edge 44, Type (0, 0), BuildingBlock: MIFKUJ_clean_linker_0, # of connection points: 2
#     Edge 45, Type (0, 0), BuildingBlock: MIFKUJ_clean_linker_0, # of connection points: 2
#     Edge 46, Type (0, 0), BuildingBlock: MIFKUJ_clean_linker_0, # of connection points: 2
#     Edge 47, Type (0, 0), BuildingBlock: MIFKUJ_clean_linker_0, # of connection points: 2
# Relax obj value: 0.064
# Max RMSD: 0.050
# Mean RMSD: 0.046
data_MOF--net-pcl--node1-QUQFOY_clean_sbu_3--edge1-MIFKUJ_clean_linker_0
_symmetry_space_group_name_H-M    P1
_symmetry_Int_Tables_number       1
_symmetry_cell_setting            triclinic
loop_
_symmetry_equiv_pos_as_xyz
'x, y, z'
_cell_length_a     69.676108
_cell_length_b     55.697187
_cell_length_c     57.813406
_cell_angle_alpha  90.007023
_cell_angle_beta   90.107223
_cell_angle_gamma 89.950895
loop_
_atom_site_label
_atom_site_type_symbol
_atom_site_fract_x
_atom_site_fract_y
_atom_site_fract_z
_atom_type_partial_charge
C0 C 0.13292 0.39177 0.06346 0.0
O1 O 0.12818 0.39631 0.08419 0.0
Cd2 Cd 0.12107 0.3651 0.11129 0.0
O3 O 0.13545 0.37019 0.05684 0.0
Cd4 Cd 0.13591 0.32882 0.07245 0.0
C5 C 0.08824 0.33184 0.07919 0.0
O6 O 0.14744 0.33788 0.11082 0.0
O7 O 0.13459 0.30288 0.10674 0.0
O8 O 0.16732 0.32483 0.05581 0.0
C9 C 0.14354 0.31761 0.11955 0.0
O10 O 0.09222 0.3456 0.09615 0.0
C11 C 0.16375 0.30629 0.04385 0.0
O12 O 0.10147 0.32368 0.06617 0.0
O13 O 0.14677 0.29797 0.04485 0.0
C14 C 0.85491 0.59882 0.56596 0.0
O15 O 0.85926 0.59742 0.58727 0.0
Cd16 Cd 0.86084 0.63196 0.61204 0.0
O17 O 0.8503 0.61889 0.55697 0.0
Cd18 Cd 0.84545 0.66139 0.56777 0.0
C19 C 0.89251 0.66635 0.58033 0.0
O20 O 0.83199 0.65375 0.60522 0.0
O21 O 0.83979 0.69061 0.59936 0.0
O22 O 0.8162 0.66068 0.54529 0.0
C23 C 0.83231 0.67511 0.61264 0.0
O24 O 0.88873 0.65476 0.59877 0.0
C25 C 0.82035 0.67858 0.53269 0.0
O26 O 0.87968 0.66999 0.56501 0.0
O27 O 0.83651 0.68853 0.5362 0.0
C28 C 0.1402 0.59308 0.90953 0.0
O29 O 0.13634 0.5909 0.88816 0.0
Cd30 Cd 0.12904 0.62522 0.86484 0.0
O31 O 0.14213 0.6138 0.91859 0.0
Cd32 Cd 0.14295 0.65712 0.9091 0.0
C33 C 0.09533 0.65253 0.90084 0.0
O34 O 0.15462 0.65297 0.87039 0.0
O35 O 0.14349 0.68804 0.87858 0.0
O36 O 0.17362 0.6572 0.92818 0.0
C37 C 0.15136 0.6743 0.86388 0.0
O38 O 0.09972 0.64049 0.88285 0.0
C39 C 0.16996 0.67416 0.94212 0.0
O40 O 0.10826 0.66073 0.91432 0.0
O41 O 0.15331 0.68351 0.94093 0.0
C42 C 0.8581 0.39044 0.41956 0.0
O43 O 0.86327 0.39272 0.39863 0.0
Cd44 Cd 0.86572 0.35898 0.37315 0.0
O45 O 0.85277 0.37011 0.42733 0.0
Cd46 Cd 0.84697 0.32847 0.41407 0.0
C47 C 0.89449 0.32174 0.40649 0.0
O48 O 0.83587 0.3383 0.37583 0.0
O49 O 0.84296 0.30102 0.38076 0.0
O50 O 0.81627 0.33117 0.43315 0.0
C51 C 0.83627 0.31725 0.36762 0.0
O52 O 0.89217 0.335 0.38874 0.0
C53 C 0.81832 0.3125 0.44546 0.0
O54 O 0.88049 0.31715 0.41992 0.0
O55 O 0.83403 0.30105 0.44339 0.0
C56 C 0.8472 0.64708 0.85004 0.0
O57 O 0.85163 0.62513 0.85278 0.0
Cd58 Cd 0.85871 0.60757 0.88951 0.0
O59 O 0.84538 0.661 0.86739 0.0
Cd60 Cd 0.84604 0.65938 0.91022 0.0
C61 C 0.89344 0.6472 0.90965 0.0
O62 O 0.83248 0.61952 0.91294 0.0
O63 O 0.84229 0.63441 0.94518 0.0
O64 O 0.81748 0.68335 0.9053 0.0
C65 C 0.83434 0.61715 0.93458 0.0
O66 O 0.88839 0.62655 0.90239 0.0
C67 C 0.82105 0.69804 0.9215 0.0
O68 O 0.88102 0.66364 0.91308 0.0
O69 O 0.83682 0.69531 0.93228 0.0
C70 C 0.12619 0.34581 0.36233 0.0
O71 O 0.11843 0.36588 0.36697 0.0
Cd72 Cd 0.11654 0.38238 0.40514 0.0
O73 O 0.13338 0.33288 0.37832 0.0
Cd74 Cd 0.13762 0.33376 0.42073 0.0
C75 C 0.08981 0.33785 0.43057 0.0
O76 O 0.14727 0.37546 0.422 0.0
O77 O 0.14334 0.35879 0.45525 0.0
O78 O 0.16834 0.31513 0.41294 0.0
C79 C 0.14834 0.37714 0.44378 0.0
O80 O 0.09144 0.35959 0.42408 0.0
C81 C 0.1666 0.29844 0.4277 0.0
O82 O 0.10411 0.32359 0.42974 0.0
O83 O 0.15099 0.29772 0.43901 0.0
C84 C 0.84951 0.35401 0.12763 0.0
O85 O 0.85677 0.37462 0.12421 0.0
Cd86 Cd 0.86088 0.39272 0.08688 0.0
O87 O 0.8436 0.34135 0.11071 0.0
Cd88 Cd 0.84131 0.34413 0.06814 0.0
C89 C 0.88949 0.34942 0.06218 0.0
O90 O 0.83172 0.38601 0.06644 0.0
O91 O 0.83845 0.36952 0.03368 0.0
O92 O 0.80983 0.32584 0.07064 0.0
C93 C 0.83252 0.3878 0.04462 0.0
O94 O 0.88732 0.37095 0.06912 0.0
C95 C 0.81347 0.30861 0.05697 0.0
O96 O 0.87535 0.33493 0.06162 0.0
O97 O 0.83035 0.30754 0.04874 0.0
C98 C 0.12894 0.64638 0.6255 0.0
O99 O 0.12232 0.6254 0.62226 0.0
Cd100 Cd 0.12031 0.60621 0.58526 0.0
O101 O 0.13532 0.65867 0.60861 0.0
Cd102 Cd 0.13947 0.65432 0.56638 0.0
C103 C 0.09175 0.64777 0.55818 0.0
O104 O 0.15042 0.61309 0.56715 0.0
O105 O 0.14405 0.62698 0.53325 0.0
O106 O 0.17018 0.67418 0.57062 0.0
C107 C 0.15044 0.60984 0.5455 0.0
O108 O 0.09408 0.62634 0.56531 0.0
C109 C 0.16703 0.69017 0.55545 0.0
O110 O 0.1056 0.66268 0.55832 0.0
O111 O 0.1507 0.68989 0.54561 0.0
C112 C 0.63156 0.88722 0.07205 0.0
O113 O 0.62881 0.88811 0.09374 0.0
Cd114 Cd 0.627 0.85263 0.11718 0.0
O115 O 0.63479 0.86724 0.06203 0.0
Cd116 Cd 0.63935 0.82404 0.07023 0.0
C117 C 0.59268 0.82196 0.085 0.0
O118 O 0.65422 0.82915 0.10726 0.0
O119 O 0.64468 0.79319 0.10028 0.0
O120 O 0.66715 0.82762 0.04568 0.0
C121 C 0.653 0.8076 0.11401 0.0
O122 O 0.59784 0.83258 0.10355 0.0
C123 C 0.66394 0.80884 0.03388 0.0
O124 O 0.60465 0.8178 0.06883 0.0
O125 O 0.64878 0.79711 0.03862 0.0
C126 C 0.35342 0.10618 0.57916 0.0
O127 O 0.35961 0.10652 0.59982 0.0
Cd128 Cd 0.36242 0.14311 0.62153 0.0
O129 O 0.34859 0.12553 0.56896 0.0
Cd130 Cd 0.34699 0.16923 0.57585 0.0
C131 C 0.3947 0.17157 0.58599 0.0
O132 O 0.33419 0.16633 0.61429 0.0
O133 O 0.34405 0.20162 0.60491 0.0
O134 O 0.31707 0.16809 0.55479 0.0
C135 C 0.33586 0.18825 0.61966 0.0
O136 O 0.3908 0.16246 0.60564 0.0
C137 C 0.32127 0.18453 0.54051 0.0
O138 O 0.38167 0.17445 0.57075 0.0
O139 O 0.33779 0.19401 0.54244 0.0
C140 C 0.62862 0.0935 0.92366 0.0
O141 O 0.62476 0.08963 0.90251 0.0
Cd142 Cd 0.62288 0.12051 0.87389 0.0
O143 O 0.63284 0.11456 0.93068 0.0
Cd144 Cd 0.63784 0.15575 0.91545 0.0
C145 C 0.59076 0.15844 0.90185 0.0
O146 O 0.65117 0.14348 0.87911 0.0
O147 O 0.64427 0.18106 0.88108 0.0
O148 O 0.66697 0.15619 0.93807 0.0
C149 C 0.65114 0.16381 0.86938 0.0
O150 O 0.59494 0.14396 0.88554 0.0
C151 C 0.66367 0.17591 0.9483 0.0
O152 O 0.60346 0.16514 0.91637 0.0
O153 O 0.6479 0.18635 0.9436 0.0
C154 C 0.36155 0.89838 0.43312 0.0
O155 O 0.3689 0.90198 0.41333 0.0
Cd156 Cd 0.37058 0.87229 0.38344 0.0
O157 O 0.35459 0.87796 0.43844 0.0
Cd158 Cd 0.34995 0.83752 0.42148 0.0
C159 C 0.39766 0.83011 0.41272 0.0
O160 O 0.34042 0.85251 0.38439 0.0
O161 O 0.34433 0.81423 0.38551 0.0
O162 O 0.31909 0.83743 0.44045 0.0
C163 C 0.33967 0.83263 0.37386 0.0
O164 O 0.39573 0.84509 0.39622 0.0
C165 C 0.3214 0.81761 0.45088 0.0
O166 O 0.38361 0.82506 0.42594 0.0
O167 O 0.33732 0.80687 0.44787 0.0
C168 C 0.34728 0.14739 0.85002 0.0
O169 O 0.35359 0.12599 0.84979 0.0
Cd170 Cd 0.36117 0.10384 0.88395 0.0
O171 O 0.34354 0.15784 0.86908 0.0
Cd172 Cd 0.34379 0.14903 0.91102 0.0
C173 C 0.39198 0.1453 0.90864 0.0
O174 O 0.33419 0.10721 0.90903 0.0
O175 O 0.3451 0.11922 0.94202 0.0
O176 O 0.31201 0.16624 0.91249 0.0
C177 C 0.33747 0.10263 0.93014 0.0
O178 O 0.38909 0.12519 0.89873 0.0
C179 C 0.31565 0.1813 0.92835 0.0
O180 O 0.37796 0.15864 0.91457 0.0
O181 O 0.33275 0.18177 0.93607 0.0
C182 C 0.62947 0.84343 0.35106 0.0
O183 O 0.62231 0.86422 0.35383 0.0
Cd184 Cd 0.61979 0.8837 0.3907 0.0
O185 O 0.6361 0.83176 0.36824 0.0
Cd186 Cd 0.64074 0.8365 0.4103 0.0
C187 C 0.59302 0.84138 0.41974 0.0
O188 O 0.65028 0.87833 0.40865 0.0
O189 O 0.64612 0.86392 0.44289 0.0
O190 O 0.67165 0.81771 0.40433 0.0
C191 C 0.65113 0.88147 0.43031 0.0
O192 O 0.59456 0.8624 0.41127 0.0
C193 C 0.66955 0.80166 0.41969 0.0
O194 O 0.60738 0.82721 0.42026 0.0
O195 O 0.65372 0.80149 0.43058 0.0
C196 C 0.34515 0.85763 0.1284 0.0
O197 O 0.34995 0.87863 0.12211 0.0
Cd198 Cd 0.35631 0.8899 0.08294 0.0
O199 O 0.34249 0.84111 0.1135 0.0
Cd200 Cd 0.34263 0.83646 0.07094 0.0
C201 C 0.3902 0.84674 0.06948 0.0
O202 O 0.32987 0.87562 0.06096 0.0
O203 O 0.34244 0.85582 0.03279 0.0
O204 O 0.31239 0.8156 0.07452 0.0
C205 C 0.33332 0.87424 0.03951 0.0
O206 O 0.38575 0.86874 0.07233 0.0
C207 C 0.31728 0.7974 0.06272 0.0
O208 O 0.37741 0.8304 0.06989 0.0
O209 O 0.33444 0.79686 0.05529 0.0
C210 C 0.63979 0.13374 0.62786 0.0
O211 O 0.6341 0.11259 0.62336 0.0
Cd212 Cd 0.62781 0.09819 0.58499 0.0
O213 O 0.64306 0.14864 0.61164 0.0
Cd214 Cd 0.64291 0.14974 0.56894 0.0
C215 C 0.59512 0.14037 0.56619 0.0
O216 O 0.65522 0.10948 0.56312 0.0
O217 O 0.64539 0.12738 0.53228 0.0
O218 O 0.67307 0.1709 0.57194 0.0
C219 C 0.65324 0.10912 0.54137 0.0
O220 O 0.59898 0.11862 0.57118 0.0
C221 C 0.66828 0.18834 0.55906 0.0
O222 O 0.60825 0.15626 0.5658 0.0
O223 O 0.65127 0.18826 0.55109 0.0
H224 H 0.0732 0.305 0.04347 0.0
H225 H 0.03917 0.29774 0.03506 0.0
H226 H 0.02342 0.33863 0.09551 0.0
H227 H 0.05705 0.34557 0.10422 0.0
H228 H 0.00133 0.29999 0.09184 0.0
H229 H 0.02445 0.36376 0.04068 0.0
H230 H 0.04519 0.37985 0.0098 0.0
H231 H 0.02458 0.32577 0.96302 0.0
H232 H 0.00387 0.30922 -0.00627 0.0
H233 H 0.92042 0.37703 0.05172 0.0
H234 H 0.95363 0.36415 0.04758 0.0
H235 H 0.93629 0.29023 0.05505 0.0
H236 H 0.90277 0.30306 0.05933 0.0
H237 H 0.97463 0.33465 0.01956 0.0
H238 H 0.97051 0.26462 0.0913 0.0
H239 H 0.94991 0.25322 0.12424 0.0
H240 H 0.93277 0.32677 0.13275 0.0
H241 H 0.95343 0.33859 0.10008 0.0
C242 C 0.06247 0.31224 0.05507 0.0
C243 C 0.06787 0.32603 0.07442 0.0
C244 C 0.04304 0.30808 0.05022 0.0
C245 C 0.02875 0.31775 0.06459 0.0
C246 C 0.03418 0.33087 0.08424 0.0
C247 C 0.05347 0.33497 0.08911 0.0
C248 C 0.00807 0.31579 0.05882 0.0
C249 C -0.00449 0.30711 0.07582 0.0
C250 C 0.00044 0.3251 0.03795 0.0
C251 C 0.01283 0.33509 0.01954 0.0
C252 C 0.02446 0.35522 0.02384 0.0
C253 C 0.03618 0.36443 0.00638 0.0
C254 C 0.03626 0.35379 0.98449 0.0
C255 C 0.02455 0.33395 0.98 0.0
C256 C 0.01282 0.32465 -0.00258 0.0
C257 C 0.92358 0.35799 0.05213 0.0
C258 C 0.90901 0.34108 0.0562 0.0
C259 C 0.94257 0.35064 0.04956 0.0
C260 C 0.94744 0.32627 0.05119 0.0
C261 C 0.93281 0.30915 0.05385 0.0
C262 C 0.9137 0.3165 0.05628 0.0
C263 C 0.96796 0.31957 0.0529 0.0
C264 C 0.98047 0.32659 0.03515 0.0
C265 C 0.97559 0.30923 0.07329 0.0
C266 C 0.96327 0.30239 0.09308 0.0
C267 C 0.96234 0.27833 0.10024 0.0
C268 C 0.95068 0.2718 0.11886 0.0
C269 C 0.93998 0.28924 0.13052 0.0
C270 C 0.941 0.31326 0.12365 0.0
C271 C 0.95267 0.31988 0.10508 0.0
H272 H 0.93094 0.28415 0.14491 0.0
H273 H 0.04534 0.36095 0.97098 0.0
H274 H 0.91983 0.67679 0.61241 0.0
H275 H 0.95402 0.68317 0.60573 0.0
H276 H 0.94472 0.67756 0.53207 0.0
H277 H 0.91033 0.6723 0.53868 0.0
H278 H 0.97615 0.65137 0.58996 0.0
H279 H 0.98181 0.70188 0.50196 0.0
H280 H 0.96527 0.73451 0.48105 0.0
H281 H 0.94514 0.76352 0.5454 0.0
H282 H 0.96176 0.73128 0.56673 0.0
H283 H 0.06227 0.62025 0.5426 0.0
H284 H 0.02838 0.63121 0.54147 0.0
H285 H 0.04274 0.70391 0.56045 0.0
H286 H 0.07688 0.69319 0.56102 0.0
H287 H 0.01001 0.70144 0.53196 0.0
H288 H 0.03379 0.66696 0.60237 0.0
H289 H 0.0512 0.63703 0.62584 0.0
H290 H 0.01282 0.58184 0.60236 0.0
H291 H -0.00462 0.6114 0.57845 0.0
C292 C 0.92503 0.67748 0.59477 0.0
C293 C 0.91249 0.67384 0.57607 0.0
C294 C 0.94456 0.68112 0.59096 0.0
C295 C 0.95201 0.68078 0.5684 0.0
C296 C 0.93933 0.67832 0.54961 0.0
C297 C 0.91968 0.67517 0.55341 0.0
C298 C 0.9731 0.67979 0.56485 0.0
C299 C 0.98347 0.66252 0.57738 0.0
C300 C 0.98282 0.69441 0.54858 0.0
C301 C 0.97291 0.71401 0.53592 0.0
C302 C 0.97393 0.71528 0.51166 0.0
C303 C 0.96452 0.7337 0.49974 0.0
C304 C 0.95411 0.75104 0.51189 0.0
C305 C 0.95314 0.75003 0.536 0.0
C306 C 0.96253 0.73166 0.54802 0.0
C307 C 0.05827 0.63874 0.5459 0.0
C308 C 0.07215 0.65577 0.55232 0.0
C309 C 0.03892 0.64498 0.54521 0.0
C310 C 0.03307 0.66822 0.5514 0.0
C311 C 0.04699 0.68586 0.5557 0.0
C312 C 0.06647 0.67969 0.55608 0.0
C313 C 0.01264 0.67281 0.55677 0.0
C314 C 0.00251 0.69058 0.54462 0.0
C315 C 0.00311 0.65913 0.57385 0.0
C316 C 0.01338 0.64136 0.58848 0.0
C317 C 0.02914 0.64841 0.60211 0.0
C318 C 0.03901 0.63152 0.61549 0.0
C319 C 0.03314 0.60754 0.61556 0.0
C320 C 0.01736 0.60042 0.60228 0.0
C321 C 0.00747 0.61724 0.58882 0.0
H322 H 0.0408 0.59448 0.62593 0.0
H323 H 0.94684 0.76527 0.50262 0.0
H324 H 0.92308 0.61602 0.90351 0.0
H325 H 0.95707 0.62313 0.90938 0.0
H326 H 0.94518 0.69571 0.93113 0.0
H327 H 0.91072 0.68884 0.92488 0.0
H328 H 0.97508 0.69404 0.90121 0.0
H329 H 0.95923 0.65506 0.97113 0.0
H330 H 0.94418 0.62495 -0.00348 0.0
H331 H 0.9774 0.56917 0.96452 0.0
H332 H 0.99244 0.59888 0.93868 0.0
H333 H 0.07872 0.68855 0.92638 0.0
H334 H 0.0443 0.69382 0.93467 0.0
H335 H 0.03171 0.62907 0.89671 0.0
H336 H 0.06569 0.62405 0.88786 0.0
H337 H 0.01454 0.63482 0.94442 0.0
H338 H 0.02377 0.67427 0.86922 0.0
H339 H 0.03879 0.70473 0.84415 0.0
H340 H 0.01806 0.76077 0.88861 0.0
H341 H 0.00316 0.73056 0.91415 0.0
C342 C 0.92756 0.63351 0.90964 0.0
C343 C 0.91411 0.65184 0.91379 0.0
C344 C 0.94706 0.6375 0.91314 0.0
C345 C 0.95365 0.6598 0.92112 0.0
C346 C 0.94036 0.6783 0.92514 0.0
C347 C 0.9207 0.67433 0.92159 0.0
C348 C 0.97456 0.66358 0.92423 0.0
C349 C 0.98368 0.68152 0.9112 0.0
C350 C 0.98582 0.64725 0.93726 0.0
C351 C 0.97693 0.62924 0.95289 0.0
C352 C 0.96325 0.63636 0.9694 0.0
C353 C 0.95473 0.61935 0.98389 0.0
C354 C 0.95982 0.59516 0.98212 0.0
C355 C 0.97348 0.58792 0.96588 0.0
C356 C 0.98204 0.60485 0.95134 0.0
C357 C 0.06856 0.67548 0.91986 0.0
C358 C 0.07484 0.65595 0.9064 0.0
C359 C 0.04899 0.67852 0.92458 0.0
C360 C 0.0356 0.66177 0.91631 0.0
C361 C 0.0419 0.64211 0.90326 0.0
C362 C 0.06129 0.63936 0.89813 0.0
C363 C 0.01486 0.66455 0.92069 0.0
C364 C 0.00585 0.64781 0.93512 0.0
C365 C 0.00374 0.68208 0.90916 0.0
C366 C 0.01261 0.70017 0.89376 0.0
C367 C 0.0226 0.69307 0.87378 0.0
C368 C 0.03105 0.71029 0.85946 0.0
C369 C 0.02944 0.73467 0.86483 0.0
C370 C 0.01933 0.74188 0.88451 0.0
C371 C 0.01088 0.72472 0.89891 0.0
H372 H 0.03598 0.74797 0.85372 0.0
H373 H 0.9532 0.58202 -0.00665 0.0
H374 H 0.07808 0.29116 0.43738 0.0
H375 H 0.04497 0.27708 0.4423 0.0
H376 H 0.02514 0.35051 0.44295 0.0
H377 H 0.05787 0.36459 0.43869 0.0
H378 H 0.00403 0.32492 0.47128 0.0
H379 H 0.0282 0.31669 0.39194 0.0
H380 H 0.0502 0.30013 0.36256 0.0
H381 H 0.03374 0.2285 0.38152 0.0
H382 H 0.01179 0.2447 0.41119 0.0
H383 H 0.92686 0.32657 0.38057 0.0
H384 H 0.95967 0.31752 0.39187 0.0
H385 H 0.9396 0.2879 0.4564 0.0
H386 H 0.90647 0.29745 0.44538 0.0
H387 H 0.98056 0.27962 0.40298 0.0
H388 H 0.97254 0.30442 0.49818 0.0
H389 H 0.95073 0.32668 0.52412 0.0
H390 H 0.93488 0.37347 0.46821 0.0
H391 H 0.95676 0.35165 0.44206 0.0
C392 C 0.06669 0.30427 0.43911 0.0
C393 C 0.07057 0.32899 0.43723 0.0
C394 C 0.04778 0.2962 0.44187 0.0
C395 C 0.03254 0.31273 0.44264 0.0
C396 C 0.03663 0.33738 0.44241 0.0
C397 C 0.0554 0.34542 0.43976 0.0
C398 C 0.01222 0.30501 0.4409 0.0
C399 C -0.00109 0.31453 0.45664 0.0
C400 C 0.00548 0.29156 0.42176 0.0
C401 C 0.01858 0.28186 0.40393 0.0
C402 C 0.02938 0.29741 0.38991 0.0
C403 C 0.04182 0.2881 0.37321 0.0
C404 C 0.04341 0.26327 0.37023 0.0
C405 C 0.03253 0.24772 0.3839 0.0
C406 C 0.02009 0.25695 0.40065 0.0
C407 C 0.92932 0.31788 0.39708 0.0
C408 C 0.91404 0.3131 0.41223 0.0
C409 C 0.94813 0.31252 0.40344 0.0
C410 C 0.95213 0.30225 0.42508 0.0
C411 C 0.93684 0.29608 0.43972 0.0
C412 C 0.91793 0.30153 0.43337 0.0
C413 C 0.9724 0.30049 0.43277 0.0
C414 C 0.98567 0.28908 0.41821 0.0
C415 C 0.97911 0.31285 0.45259 0.0
C416 C 0.96604 0.3262 0.46815 0.0
C417 C 0.96439 0.31947 0.49147 0.0
C418 C 0.95204 0.33201 0.5062 0.0
C419 C 0.94136 0.35141 0.49779 0.0
C420 C 0.94309 0.35838 0.47467 0.0
C421 C 0.95545 0.34593 0.45989 0.0
H422 H 0.93179 0.36107 0.50921 0.0
H423 H 0.05305 0.2561 0.35729 0.0
H424 H 0.41923 0.87602 0.05575 0.0
H425 H 0.4534 0.8669 0.05436 0.0
H426 H 0.44187 0.79427 0.07632 0.0
H427 H 0.40743 0.80313 0.077 0.0
H428 H 0.47515 0.85677 0.08862 0.0
H429 H 0.47871 0.75728 0.0591 0.0
H430 H 0.4612 0.72952 0.03337 0.0
H431 H 0.44137 0.78904 -0.00739 0.0
H432 H 0.45896 0.81712 0.0179 0.0
H433 H 0.5656 0.81611 0.11835 0.0
H434 H 0.53089 0.81401 0.11307 0.0
H435 H 0.53837 0.81458 0.03901 0.0
H436 H 0.57326 0.81584 0.0442 0.0
H437 H 0.50749 0.78772 0.05088 0.0
H438 H 0.53147 0.86668 0.06734 0.0
H439 H 0.54973 0.89695 0.08939 0.0
H440 H 0.51489 0.88354 0.1492 0.0
H441 H 0.4966 0.85292 0.12757 0.0
C442 C 0.42392 0.85801 0.06001 0.0
C443 C 0.41065 0.84033 0.06664 0.0
C444 C 0.44348 0.85282 0.05922 0.0
C445 C 0.45025 0.82992 0.06526 0.0
C446 C 0.43699 0.81198 0.07126 0.0
C447 C 0.41732 0.81709 0.07174 0.0
C448 C 0.47124 0.82561 0.06697 0.0
C449 C 0.48215 0.84165 0.08032 0.0
C450 C 0.4805 0.80604 0.05599 0.0
C451 C 0.46999 0.7893 0.04056 0.0
C452 C 0.47066 0.76443 0.0446 0.0
C453 C 0.46072 0.74864 0.0301 0.0
C454 C 0.45013 0.75752 0.01141 0.0
C455 C 0.44951 0.7822 0.00714 0.0
C456 C 0.45944 0.79806 0.02158 0.0
C457 C 0.55988 0.81526 0.10094 0.0
C458 C 0.57211 0.81651 0.08169 0.0
C459 C 0.54005 0.81408 0.09794 0.0
C460 C 0.53205 0.81473 0.07565 0.0
C461 C 0.54425 0.81417 0.05637 0.0
C462 C 0.56418 0.81496 0.05936 0.0
C463 C 0.51117 0.81878 0.07263 0.0
C464 C 0.50035 0.80275 0.05916 0.0
C465 C 0.50198 0.83876 0.08294 0.0
C466 C 0.51279 0.85737 0.09591 0.0
C467 C 0.52778 0.87009 0.08523 0.0
C468 C 0.53813 0.88732 0.09765 0.0
C469 C 0.5335 0.89212 0.1207 0.0
C470 C 0.51848 0.87977 0.13135 0.0
C471 C 0.5081 0.86249 0.11902 0.0
H472 H 0.54153 0.90546 0.13028 0.0
H473 H 0.44243 0.74527 0.00021 0.0
H474 H 0.56626 0.11126 0.55158 0.0
H475 H 0.53225 0.12099 0.54829 0.0
H476 H 0.54412 0.19405 0.56869 0.0
H477 H 0.57838 0.18458 0.57113 0.0
H478 H 0.51034 0.13198 0.58159 0.0
H479 H 0.50799 0.23139 0.55081 0.0
H480 H 0.52571 0.25827 0.52452 0.0
H481 H 0.54462 0.19755 0.48485 0.0
H482 H 0.52681 0.17034 0.51069 0.0
H483 H 0.42397 0.1791 0.6163 0.0
H484 H 0.45822 0.17945 0.60777 0.0
H485 H 0.44587 0.17473 0.53479 0.0
H486 H 0.41137 0.17487 0.54317 0.0
H487 H 0.47891 0.20189 0.54408 0.0
H488 H 0.45292 0.12459 0.56225 0.0
H489 H 0.43434 0.09551 0.58527 0.0
H490 H 0.47159 0.10728 0.64344 0.0
H491 H 0.49021 0.13674 0.62085 0.0
C492 C 0.56167 0.12951 0.55501 0.0
C493 C 0.57494 0.14712 0.56181 0.0
C494 C 0.54222 0.13505 0.55311 0.0
C495 C 0.53556 0.15824 0.55826 0.0
C496 C 0.5489 0.17613 0.56426 0.0
C497 C 0.56847 0.17067 0.56578 0.0
C498 C 0.5146 0.16284 0.55965 0.0
C499 C 0.50355 0.14724 0.57325 0.0
C500 C 0.50558 0.18259 0.54861 0.0
C501 C 0.51621 0.19882 0.53284 0.0
C502 C 0.51587 0.22378 0.53643 0.0
C503 C 0.52594 0.23908 0.52161 0.0
C504 C 0.53633 0.22962 0.50307 0.0
C505 C 0.53663 0.20485 0.49927 0.0
C506 C 0.52657 0.18948 0.51402 0.0
C507 C 0.4285 0.17866 0.59839 0.0
C508 C 0.415 0.17652 0.58042 0.0
C509 C 0.44808 0.17891 0.59355 0.0
C510 C 0.45454 0.17661 0.57069 0.0
C511 C 0.44114 0.17645 0.55255 0.0
C512 C 0.42145 0.17646 0.55738 0.0
C513 C 0.47502 0.17124 0.56624 0.0
C514 C 0.48587 0.18665 0.55223 0.0
C515 C 0.48388 0.15093 0.57636 0.0
C516 C 0.47286 0.13301 0.58992 0.0
C517 C 0.45707 0.12109 0.58 0.0
C518 C 0.44654 0.10453 0.59296 0.0
C519 C 0.45176 0.09959 0.61582 0.0
C520 C 0.46755 0.11115 0.62574 0.0
C521 C 0.47811 0.12777 0.61286 0.0
H522 H 0.44359 0.08676 0.62583 0.0
H523 H 0.54412 0.24149 0.49163 0.0
H524 H 0.5749 0.18683 0.93589 0.0
H525 H 0.54083 0.19659 0.9411 0.0
H526 H 0.52708 0.15707 0.87905 0.0
H527 H 0.56076 0.14781 0.87345 0.0
H528 H 0.50606 0.19615 0.88093 0.0
H529 H 0.5241 0.13193 0.9344 0.0
H530 H 0.54246 0.11483 0.96702 0.0
H531 H 0.52136 0.17042 0.01175 0.0
H532 H 0.50303 0.18798 0.97929 0.0
H533 H 0.4239 0.12731 0.8881 0.0
H534 H 0.45678 0.14151 0.89157 0.0
H535 H 0.43872 0.19604 0.93979 0.0
H536 H 0.40531 0.18213 0.93613 0.0
H537 H 0.47439 0.16338 0.95093 0.0
H538 H 0.44897 0.21949 0.89609 0.0
H539 H 0.42964 0.23135 0.86219 0.0
H540 H 0.4642 0.18646 0.81854 0.0
H541 H 0.48357 0.17403 0.85224 0.0
C542 C 0.56462 0.18051 0.92322 0.0
C543 C 0.57056 0.16634 0.90437 0.0
C544 C 0.54516 0.18605 0.92626 0.0
C545 C 0.53138 0.17737 0.91058 0.0
C546 C 0.53743 0.16406 0.89133 0.0
C547 C 0.55675 0.15863 0.88824 0.0
C548 C 0.51049 0.18043 0.91458 0.0
C549 C 0.49915 0.18925 0.89636 0.0
C550 C 0.50144 0.17197 0.93494 0.0
C551 C 0.51244 0.16144 0.95439 0.0
C552 C 0.52351 0.14059 0.95116 0.0
C553 C 0.53388 0.1308 0.96962 0.0
C554 C 0.53314 0.14159 0.99143 0.0
C555 C 0.52197 0.16213 -0.00516 0.0
C556 C 0.51159 0.17201 0.97642 0.0
C557 C 0.42682 0.14226 0.89956 0.0
C558 C 0.41196 0.15361 0.91184 0.0
C559 C 0.44562 0.15039 0.90145 0.0
C560 C 0.45006 0.16987 0.9158 0.0
C561 C 0.43546 0.18101 0.92857 0.0
C562 C 0.41645 0.17307 0.92642 0.0
C563 C 0.47015 0.17814 0.91692 0.0
C564 C 0.48132 0.17132 0.93599 0.0
C565 C 0.47908 0.18804 0.89719 0.0
C566 C 0.4677 0.19579 0.87674 0.0
C567 C 0.45239 0.21204 0.87929 0.0
C568 C 0.44143 0.21888 0.8601 0.0
C569 C 0.44569 0.20965 0.83823 0.0
C570 C 0.46094 0.19361 0.83549 0.0
C571 C 0.47194 0.1867 0.85463 0.0
H572 H 0.43718 0.21496 0.8234 0.0
H573 H 0.54117 0.13398 0.0057 0.0
H574 H 0.41054 0.80599 0.45135 0.0
H575 H 0.44385 0.79479 0.46019 0.0
H576 H 0.46145 0.82067 0.39315 0.0
H577 H 0.42852 0.83137 0.38411 0.0
H578 H 0.4819 0.78226 0.4045 0.0
H579 H 0.46149 0.85744 0.44177 0.0
H580 H 0.44135 0.88086 0.46866 0.0
H581 H 0.45937 0.8359 0.52502 0.0
H582 H 0.47946 0.81207 0.49836 0.0
H583 H 0.56126 0.8688 0.42684 0.0
H584 H 0.52878 0.85524 0.43453 0.0
H585 H 0.54867 0.78197 0.43857 0.0
H586 H 0.5815 0.79546 0.43046 0.0
H587 H 0.50981 0.83165 0.46755 0.0
H588 H 0.51359 0.74765 0.41177 0.0
H589 H 0.5335 0.7295 0.38107 0.0
H590 H 0.54864 0.79971 0.35644 0.0
H591 H 0.52866 0.81821 0.38683 0.0
C592 C 0.42148 0.80879 0.43834 0.0
C593 C 0.41695 0.81994 0.41717 0.0
C594 C 0.44048 0.80241 0.44343 0.0
C595 C 0.45516 0.80715 0.42743 0.0
C596 C 0.45039 0.81678 0.40576 0.0
C597 C 0.43152 0.82311 0.40069 0.0
C598 C 0.47574 0.80503 0.4337 0.0
C599 C 0.488 0.79255 0.41865 0.0
C600 C 0.48374 0.8185 0.45209 0.0
C601 C 0.47174 0.83282 0.46808 0.0
C602 C 0.46105 0.85248 0.45988 0.0
C603 C 0.44966 0.86583 0.47506 0.0
C604 C 0.44903 0.85982 0.49852 0.0
C605 C 0.45983 0.84049 0.50684 0.0
C606 C 0.47121 0.82706 0.49171 0.0
C607 C 0.55886 0.84981 0.42964 0.0
C608 C 0.57394 0.83317 0.42766 0.0
C609 C 0.54026 0.8421 0.43425 0.0
C610 C 0.53626 0.81758 0.43694 0.0
C611 C 0.55144 0.80097 0.43638 0.0
C612 C 0.57017 0.80871 0.43176 0.0
C613 C 0.51593 0.80981 0.43769 0.0
C614 C 0.50374 0.82035 0.45411 0.0
C615 C 0.50798 0.79513 0.42015 0.0
C616 C 0.51989 0.78425 0.40173 0.0
C617 C 0.52118 0.75917 0.39978 0.0
C618 C 0.53245 0.74884 0.38243 0.0
C619 C 0.54239 0.76345 0.36688 0.0
C620 C 0.541 0.78842 0.36856 0.0
C621 C 0.52972 0.79883 0.38584 0.0
H622 H 0.55113 0.75542 0.35348 0.0
H623 H 0.44021 0.87017 0.51026 0.0
H624 H 0.17027 0.33708 0.14797 0.0
H625 H 0.17097 0.33564 0.1902 0.0
H626 H 0.12103 0.28974 0.18975 0.0
H627 H 0.12102 0.29008 0.14749 0.0
H628 H 0.14656 0.3539 0.21641 0.0
H629 H 0.11595 0.25953 0.2397 0.0
H630 H 0.11834 0.21774 0.22588 0.0
H631 H 0.17325 0.23296 0.19568 0.0
H632 H 0.17133 0.27474 0.20958 0.0
H633 H 0.10538 0.36167 0.32536 0.0
H634 H 0.1101 0.35146 0.2847 0.0
H635 H 0.15584 0.30293 0.30357 0.0
H636 H 0.15071 0.31238 0.3444 0.0
H637 H 0.13635 0.28467 0.26892 0.0
H638 H 0.16566 0.36016 0.28498 0.0
H639 H 0.16755 0.40169 0.29962 0.0
H640 H 0.1235 0.42335 0.25194 0.0
H641 H 0.12116 0.38186 0.23724 0.0
C642 C 0.15976 0.32621 0.15694 0.0
C643 C 0.14557 0.31375 0.14459 0.0
C644 C 0.16012 0.32544 0.18104 0.0
C645 C 0.14604 0.31261 0.19324 0.0
C646 C 0.13228 0.29938 0.18082 0.0
C647 C 0.13222 0.29967 0.15665 0.0
C648 C 0.14451 0.31532 0.2187 0.0
C649 C 0.14448 0.33868 0.22783 0.0
C650 C 0.14203 0.29552 0.23378 0.0
C651 C 0.1434 0.27034 0.22552 0.0
C652 C 0.12858 0.25394 0.2302 0.0
C653 C 0.12984 0.23025 0.22233 0.0
C654 C 0.14591 0.22272 0.20985 0.0
C655 C 0.16078 0.23884 0.20527 0.0
C656 C 0.15959 0.26254 0.21311 0.0
C657 C 0.11631 0.34864 0.32087 0.0
C658 C 0.12784 0.33805 0.33802 0.0
C659 C 0.11902 0.34286 0.29764 0.0
C660 C 0.13362 0.32686 0.29108 0.0
C661 C 0.14455 0.3154 0.30824 0.0
C662 C 0.14163 0.32088 0.33155 0.0
C663 C 0.13813 0.32318 0.26631 0.0
C664 C 0.13863 0.29975 0.25738 0.0
C665 C 0.14171 0.34284 0.25145 0.0
C666 C 0.14313 0.36786 0.26015 0.0
C667 C 0.15629 0.37375 0.27772 0.0
C668 C 0.15746 0.39728 0.28602 0.0
C669 C 0.14562 0.41513 0.27675 0.0
C670 C 0.13264 0.4095 0.25912 0.0
C671 C 0.1314 0.38598 0.25079 0.0
H672 H 0.14654 0.43334 0.28319 0.0
H673 H 0.14686 0.20438 0.20376 0.0
H674 H 0.81775 0.64433 0.64443 0.0
H675 H 0.81501 0.65044 0.68583 0.0
H676 H 0.83417 0.72368 0.67808 0.0
H677 H 0.83745 0.71741 0.63625 0.0
H678 H 0.85421 0.70237 0.71018 0.0
H679 H 0.78799 0.71114 0.69753 0.0
H680 H 0.75592 0.70304 0.68128 0.0
H681 H 0.75533 0.63391 0.71412 0.0
H682 H 0.78752 0.6414 0.7303 0.0
H683 H 0.84629 0.6939 0.83555 0.0
H684 H 0.83927 0.7087 0.79643 0.0
H685 H 0.83162 0.63588 0.77283 0.0
H686 H 0.83891 0.62094 0.81155 0.0
H687 H 0.80175 0.67021 0.75908 0.0
H688 H 0.87185 0.66008 0.76216 0.0
H689 H 0.90383 0.66918 0.77828 0.0
H690 H 0.89556 0.74406 0.76358 0.0
H691 H 0.8634 0.73539 0.74764 0.0
C692 C 0.82107 0.6619 0.65141 0.0
C693 C 0.82797 0.68033 0.63711 0.0
C694 C 0.81931 0.66545 0.67513 0.0
C695 C 0.82415 0.68763 0.68509 0.0
C696 C 0.83027 0.70646 0.67073 0.0
C697 C 0.83211 0.70287 0.64687 0.0
C698 C 0.82493 0.68975 0.71063 0.0
C699 C 0.84249 0.69607 0.72092 0.0
C700 C 0.80969 0.68152 0.72473 0.0
C701 C 0.79024 0.67685 0.71511 0.0
C702 C 0.78109 0.69414 0.70119 0.0
C703 C 0.76287 0.68966 0.692 0.0
C704 C 0.75359 0.66797 0.69666 0.0
C705 C 0.76252 0.65072 0.71055 0.0
C706 C 0.78074 0.65511 0.71979 0.0
C707 C 0.84311 0.68107 0.822 0.0
C708 C 0.84324 0.65625 0.82656 0.0
C709 C 0.83908 0.68956 0.79974 0.0
C710 C 0.83485 0.67334 0.78191 0.0
C711 C 0.83474 0.64863 0.78649 0.0
C712 C 0.83906 0.64014 0.80855 0.0
C713 C 0.83119 0.68168 0.75809 0.0
C714 C 0.81312 0.67734 0.74829 0.0
C715 C 0.84584 0.69201 0.7445 0.0
C716 C 0.86515 0.69715 0.75403 0.0
C717 C 0.87678 0.67851 0.76258 0.0
C718 C 0.89495 0.68358 0.77163 0.0
C719 C 0.90169 0.7072 0.77204 0.0
C720 C 0.8903 0.72578 0.76331 0.0
C721 C 0.87211 0.7208 0.75427 0.0
H722 H 0.91576 0.71109 0.77905 0.0
H723 H 0.73949 0.66454 0.68952 0.0
H724 H 0.13533 0.71307 0.84195 0.0
H725 H 0.1328 0.71923 0.80006 0.0
H726 H 0.16741 0.6561 0.7885 0.0
H727 H 0.17006 0.64991 0.83011 0.0
H728 H 0.17482 0.69134 0.75651 0.0
H729 H 0.11988 0.65089 0.79159 0.0
H730 H 0.09278 0.6488 0.81891 0.0
H731 H 0.06798 0.71187 0.78826 0.0
H732 H 0.09513 0.71451 0.76097 0.0
H733 H 0.11705 0.62502 0.66547 0.0
H734 H 0.12081 0.63991 0.70484 0.0
H735 H 0.14621 0.70513 0.67883 0.0
H736 H 0.14278 0.6902 0.63923 0.0
H737 H 0.1082 0.67831 0.72865 0.0
H738 H 0.18228 0.72067 0.7169 0.0
H739 H 0.21011 0.71865 0.69057 0.0
H740 H 0.19719 0.64495 0.67533 0.0
H741 H 0.16945 0.64647 0.70175 0.0
C742 C 0.14278 0.70087 0.83046 0.0
C743 C 0.15264 0.68079 0.83922 0.0
C744 C 0.14131 0.70441 0.80658 0.0
C745 C 0.14973 0.68795 0.79125 0.0
C746 C 0.16082 0.66901 0.80005 0.0
C747 C 0.16221 0.6654 0.82383 0.0
C748 C 0.14512 0.68826 0.7663 0.0
C749 C 0.16022 0.68898 0.75033 0.0
C750 C 0.12609 0.68489 0.75835 0.0
C751 C 0.10962 0.68306 0.77445 0.0
C752 C 0.1087 0.66438 0.79078 0.0
C753 C 0.09334 0.6631 0.80625 0.0
C754 C 0.07869 0.68024 0.80537 0.0
C755 C 0.07936 0.69864 0.78896 0.0
C756 C 0.09473 0.70004 0.77349 0.0
C757 C 0.12331 0.64262 0.66805 0.0
C758 C 0.12982 0.65629 0.64921 0.0
C759 C 0.12533 0.65117 0.69058 0.0
C760 C 0.13392 0.67353 0.69474 0.0
C761 C 0.13972 0.68771 0.67596 0.0
C762 C 0.13774 0.67914 0.65337 0.0
C763 C 0.13796 0.6809 0.71885 0.0
C764 C 0.12272 0.68158 0.73467 0.0
C765 C 0.15691 0.68507 0.72672 0.0
C766 C 0.17368 0.6838 0.71104 0.0
C767 C 0.18543 0.70403 0.70795 0.0
C768 C 0.20117 0.70298 0.69302 0.0
C769 C 0.20537 0.68172 0.68122 0.0
C770 C 0.19388 0.66143 0.68441 0.0
C771 C 0.17814 0.66239 0.69934 0.0
H772 H 0.21755 0.68094 0.66965 0.0
H773 H 0.06681 0.67923 0.81737 0.0
H774 H 0.83176 0.31272 0.14199 0.0
H775 H 0.82799 0.29833 0.18172 0.0
H776 H 0.85931 0.35983 0.20686 0.0
H777 H 0.86326 0.37427 0.16734 0.0
H778 H 0.87041 0.31858 0.22851 0.0
H779 H 0.81115 0.35952 0.20794 0.0
H780 H 0.78213 0.36611 0.18426 0.0
H781 H 0.76316 0.29438 0.19892 0.0
H782 H 0.79221 0.28728 0.22247 0.0
H783 H 0.81813 0.34702 0.33757 0.0
H784 H 0.81763 0.34419 0.2955 0.0
H785 H 0.84675 0.2759 0.29907 0.0
H786 H 0.84733 0.27863 0.34142 0.0
H787 H 0.80496 0.31277 0.26181 0.0
H788 H 0.88228 0.27908 0.25713 0.0
H789 H 0.9112 0.27622 0.28174 0.0
H790 H 0.8939 0.33951 0.3187 0.0
H791 H 0.86507 0.34292 0.29407 0.0
C792 C 0.83794 0.32312 0.15596 0.0
C793 C 0.84772 0.34474 0.15151 0.0
C794 C 0.83575 0.31487 0.17863 0.0
C795 C 0.8433 0.32808 0.19719 0.0
C796 C 0.85344 0.34933 0.19275 0.0
C797 C 0.85558 0.35763 0.17015 0.0
C798 C 0.84008 0.32053 0.22139 0.0
C799 C 0.8561 0.31695 0.23571 0.0
C800 C 0.82141 0.31849 0.23078 0.0
C801 C 0.80394 0.32278 0.2167 0.0
C802 C 0.80086 0.34509 0.20595 0.0
C803 C 0.7844 0.34893 0.19259 0.0
C804 C 0.77084 0.33065 0.19002 0.0
C805 C 0.77369 0.30851 0.20088 0.0
C806 C 0.79015 0.30457 0.21424 0.0
C807 C 0.82409 0.33116 0.32944 0.0
C808 C 0.83303 0.31322 0.34271 0.0
C809 C 0.82366 0.32949 0.30541 0.0
C810 C 0.83232 0.30997 0.29422 0.0
C811 C 0.84009 0.29117 0.30745 0.0
C812 C 0.8404 0.29276 0.33159 0.0
C813 C 0.83529 0.31115 0.26894 0.0
C814 C 0.81925 0.3136 0.25442 0.0
C815 C 0.85395 0.31256 0.25941 0.0
C816 C 0.87143 0.31104 0.27397 0.0
C817 C 0.88471 0.29241 0.27046 0.0
C818 C 0.90108 0.2907 0.28441 0.0
C819 C 0.90435 0.30762 0.30183 0.0
C820 C 0.89132 0.32637 0.30525 0.0
C821 C 0.87497 0.32819 0.29131 0.0
H822 H 0.917 0.30623 0.31264 0.0
H823 H 0.7581 0.33365 0.17968 0.0
H824 H 0.6449 0.80011 0.33851 0.0
H825 H 0.64968 0.78474 0.29932 0.0
H826 H 0.6227 0.84818 0.27135 0.0
H827 H 0.61761 0.86353 0.31035 0.0
H828 H 0.6116 0.80868 0.24822 0.0
H829 H 0.67123 0.84397 0.27532 0.0
H830 H 0.69868 0.84801 0.30205 0.0
H831 H 0.71462 0.77472 0.28921 0.0
H832 H 0.6871 0.77017 0.26261 0.0
H833 H 0.67261 0.83359 0.1459 0.0
H834 H 0.67089 0.82937 0.18781 0.0
H835 H 0.63768 0.76453 0.17992 0.0
H836 H 0.63927 0.7687 0.13778 0.0
H837 H 0.67879 0.79673 0.22218 0.0
H838 H 0.5994 0.77102 0.21785 0.0
H839 H 0.57227 0.77167 0.19032 0.0
H840 H 0.59644 0.83317 0.15639 0.0
H841 H 0.62353 0.8331 0.18395 0.0
C842 C 0.6398 0.81069 0.32403 0.0
C843 C 0.63102 0.83317 0.32755 0.0
C844 C 0.64257 0.80187 0.30166 0.0
C845 C 0.63672 0.81544 0.28247 0.0
C846 C 0.6273 0.83742 0.28596 0.0
C847 C 0.62449 0.84622 0.30827 0.0
C848 C 0.64129 0.80764 0.25866 0.0
C849 C 0.62626 0.8057 0.2426 0.0
C850 C 0.66043 0.80389 0.25132 0.0
C851 C 0.67699 0.80665 0.26722 0.0
C852 C 0.68051 0.82867 0.27834 0.0
C853 C 0.69609 0.83106 0.29344 0.0
C854 C 0.70835 0.81161 0.29739 0.0
C855 C 0.70508 0.78975 0.28618 0.0
C856 C 0.68951 0.78726 0.27109 0.0
C857 C 0.66537 0.81808 0.15307 0.0
C858 C 0.65576 0.80173 0.13864 0.0
C859 C 0.6645 0.81561 0.17702 0.0
C860 C 0.65391 0.79685 0.1869 0.0
C861 C 0.64578 0.77924 0.17254 0.0
C862 C 0.64672 0.78165 0.14851 0.0
C863 C 0.64912 0.79808 0.21175 0.0
C864 C 0.66408 0.79887 0.22798 0.0
C865 C 0.62995 0.80132 0.21918 0.0
C866 C 0.61359 0.80182 0.20275 0.0
C867 C 0.59888 0.7847 0.20454 0.0
C868 C 0.58352 0.78498 0.18895 0.0
C869 C 0.58267 0.80239 0.17157 0.0
C870 C 0.59715 0.81964 0.16981 0.0
C871 C 0.61251 0.81949 0.1854 0.0
H872 H 0.57076 0.80255 0.15953 0.0
H873 H 0.7204 0.81349 0.30908 0.0
H874 H 0.35878 0.13317 0.80714 0.0
H875 H 0.3551 0.15471 0.77077 0.0
H876 H 0.32651 0.21269 0.80623 0.0
H877 H 0.33012 0.19116 0.843 0.0
H878 H 0.30766 0.19859 0.76634 0.0
H879 H 0.3696 0.22393 0.78742 0.0
H880 H 0.40255 0.22005 0.80255 0.0
H881 H 0.41721 0.17349 0.74608 0.0
H882 H 0.38426 0.17674 0.7308 0.0
H883 H 0.34904 0.22891 0.64122 0.0
H884 H 0.34757 0.23774 0.68276 0.0
H885 H 0.31365 0.1739 0.69339 0.0
H886 H 0.31494 0.16517 0.65222 0.0
H887 H 0.36348 0.20968 0.71425 0.0
H888 H 0.28594 0.17728 0.73881 0.0
H889 H 0.25294 0.18242 0.72424 0.0
H890 H 0.26929 0.24779 0.69027 0.0
H891 H 0.30234 0.24329 0.70491 0.0
C892 C 0.35171 0.1505 0.8073 0.0
C893 C 0.34475 0.16045 0.82798 0.0
C894 C 0.34975 0.16287 0.78651 0.0
C895 C 0.3408 0.18543 0.78593 0.0
C896 C 0.33359 0.19537 0.80642 0.0
C897 C 0.33568 0.18304 0.82736 0.0
C898 C 0.33844 0.19779 0.76349 0.0
C899 C 0.31981 0.20143 0.75497 0.0
C900 C 0.3544 0.20238 0.74909 0.0
C901 C 0.37439 0.20058 0.75797 0.0
C902 C 0.37981 0.21276 0.77827 0.0
C903 C 0.39851 0.21068 0.78688 0.0
C904 C 0.41197 0.19653 0.77528 0.0
C905 C 0.40677 0.18447 0.75502 0.0
C906 C 0.38809 0.18647 0.74635 0.0
C907 C 0.34084 0.21716 0.65238 0.0
C908 C 0.33227 0.19621 0.64358 0.0
C909 C 0.34003 0.22222 0.67607 0.0
C910 C 0.3304 0.20658 0.69115 0.0
C911 C 0.32086 0.18649 0.68208 0.0
C912 C 0.32176 0.18138 0.65854 0.0
C913 C 0.33261 0.20873 0.71655 0.0
C914 C 0.35126 0.20776 0.72571 0.0
C915 C 0.31666 0.20696 0.73158 0.0
C916 C 0.29669 0.20991 0.72297 0.0
C917 C 0.28249 0.19288 0.72841 0.0
C918 C 0.26377 0.19565 0.72008 0.0
C919 C 0.25903 0.21541 0.70633 0.0
C920 C 0.27299 0.23247 0.70089 0.0
C921 C 0.29174 0.22979 0.70917 0.0
H922 H 0.24453 0.21751 0.69989 0.0
H923 H 0.42643 0.19491 0.78199 0.0
H924 H 0.66154 0.12819 0.83988 0.0
H925 H 0.66432 0.13033 0.79806 0.0
H926 H 0.65281 0.20646 0.80023 0.0
H927 H 0.64943 0.20428 0.8424 0.0
H928 H 0.63106 0.1862 0.76916 0.0
H929 H 0.6976 0.18463 0.784 0.0
H930 H 0.72809 0.17175 0.80182 0.0
H931 H 0.72167 0.10171 0.77177 0.0
H932 H 0.691 0.11402 0.75404 0.0
H933 H 0.6438 0.17923 0.64509 0.0
H934 H 0.64975 0.19087 0.68537 0.0
H935 H 0.64985 0.1163 0.70543 0.0
H936 H 0.64367 0.1045 0.6654 0.0
H937 H 0.68133 0.14472 0.72341 0.0
H938 H 0.61153 0.1464 0.71509 0.0
H939 H 0.58141 0.16052 0.6972 0.0
H940 H 0.59567 0.23328 0.71476 0.0
H941 H 0.62602 0.21958 0.73249 0.0
C942 C 0.65988 0.14549 0.83155 0.0
C943 C 0.65516 0.16605 0.84442 0.0
C944 C 0.66163 0.14673 0.8076 0.0
C945 C 0.65903 0.16862 0.79598 0.0
C946 C 0.65494 0.1894 0.80885 0.0
C947 C 0.65305 0.18814 0.83291 0.0
C948 C 0.6588 0.169 0.77034 0.0
C949 C 0.64232 0.17772 0.75911 0.0
C950 C 0.67342 0.1578 0.75719 0.0
C951 C 0.69192 0.15025 0.76776 0.0
C952 C 0.70262 0.16643 0.78131 0.0
C953 C 0.71995 0.15923 0.79138 0.0
C954 C 0.7268 0.13593 0.78794 0.0
C955 C 0.71635 0.11977 0.7744 0.0
C956 C 0.699 0.12686 0.7643 0.0
C957 C 0.64509 0.16532 0.65809 0.0
C958 C 0.6432 0.14094 0.65211 0.0
C959 C 0.64849 0.17201 0.68103 0.0
C960 C 0.65026 0.15441 0.69824 0.0
C961 C 0.6486 0.1301 0.6923 0.0
C962 C 0.64494 0.12341 0.66947 0.0
C963 C 0.65337 0.16112 0.72266 0.0
C964 C 0.67038 0.15375 0.73352 0.0
C965 C 0.63939 0.17383 0.73542 0.0
C966 C 0.62114 0.18201 0.72482 0.0
C967 C 0.60833 0.16543 0.71493 0.0
C968 C 0.59119 0.17335 0.70487 0.0
C969 C 0.58666 0.19779 0.70477 0.0
C970 C 0.59922 0.21436 0.7148 0.0
C971 C 0.61638 0.20653 0.72486 0.0
H972 H 0.57338 0.20389 0.69698 0.0
H973 H 0.74022 0.13039 0.79576 0.0
H974 H 0.34349 0.88964 0.16402 0.0
H975 H 0.3413 0.88093 0.20522 0.0
H976 H 0.34005 0.80499 0.19057 0.0
H977 H 0.34173 0.81358 0.14908 0.0
H978 H 0.31534 0.8158 0.22443 0.0
H979 H 0.38123 0.83101 0.20929 0.0
H980 H 0.40923 0.85267 0.19375 0.0
H981 H 0.39581 0.91361 0.23626 0.0
H982 H 0.36756 0.89245 0.25182 0.0
H983 H 0.34011 0.79317 0.34539 0.0
H984 H 0.33938 0.79309 0.30291 0.0
H985 H 0.3332 0.87015 0.30292 0.0
H986 H 0.33382 0.87043 0.34504 0.0
H987 H 0.36385 0.85302 0.27611 0.0
H988 H 0.29619 0.8369 0.28901 0.0
H989 H 0.26904 0.81357 0.30453 0.0
H990 H 0.28764 0.75158 0.26649 0.0
H991 H 0.31507 0.77447 0.25098 0.0
C992 C 0.3427 0.87107 0.16951 0.0
C993 C 0.34298 0.85229 0.15329 0.0
C994 C 0.3415 0.86612 0.19308 0.0
C995 C 0.34091 0.8423 0.20097 0.0
C996 C 0.34059 0.82349 0.18483 0.0
C997 C 0.3416 0.82844 0.16116 0.0
C998 C 0.34104 0.83727 0.22611 0.0
C999 C 0.32612 0.82359 0.23571 0.0
C1000 C 0.35513 0.84741 0.24081 0.0
C1001 C 0.37219 0.86019 0.2316 0.0
C1002 C 0.38417 0.84909 0.21521 0.0
C1003 C 0.4001 0.86127 0.20641 0.0
C1004 C 0.40428 0.88452 0.21398 0.0
C1005 C 0.39255 0.89561 0.23041 0.0
C1006 C 0.37659 0.88352 0.23924 0.0
C1007 C 0.33834 0.81003 0.3363 0.0
C1008 C 0.33718 0.83182 0.34852 0.0
C1009 C 0.33789 0.80994 0.31209 0.0
C1010 C 0.33632 0.83163 0.29989 0.0
C1011 C 0.33451 0.85325 0.31209 0.0
C1012 C 0.33484 0.85335 0.33616 0.0
C1013 C 0.3378 0.83232 0.27443 0.0
C1014 C 0.35317 0.84505 0.26478 0.0
C1015 C 0.3243 0.82102 0.25977 0.0
C1016 C 0.30781 0.80731 0.26907 0.0
C1017 C 0.2946 0.81822 0.28413 0.0
C1018 C 0.27914 0.8051 0.29289 0.0
C1019 C 0.27666 0.78108 0.28656 0.0
C1020 C 0.2896 0.77017 0.27141 0.0
C1021 C 0.3051 0.78321 0.26262 0.0
H1022 H 0.26467 0.77095 0.29335 0.0
H1023 H 0.41662 0.89392 0.20715 0.0
H1024 H 0.3193 0.21786 0.9597 0.0
H1025 H 0.29345 0.24126 0.97738 0.0
H1026 H 0.25169 0.20214 0.93707 0.0
H1027 H 0.27741 0.17927 0.91886 0.0
H1028 H 0.24186 0.24757 0.93904 0.0
H1029 H 0.26126 0.18771 -0.00594 0.0
H1030 H 0.28398 0.16532 0.01871 0.0
H1031 H 0.2981 0.23014 0.05517 0.0
H1032 H 0.27564 0.25298 0.03051 0.0
H1033 H 0.1602 0.26992 0.01212 0.0
H1034 H 0.18613 0.25048 0.99033 0.0
H1035 H 0.22748 0.29712 0.02299 0.0
H1036 H 0.20182 0.31668 0.04458 0.0
H1037 H 0.23728 0.24838 0.02468 0.0
H1038 H 0.21634 0.30766 0.96944 0.0
H1039 H 0.19265 0.32869 0.94502 0.0
H1040 H 0.18012 0.26289 0.90936 0.0
H1041 H 0.20355 0.24138 0.93382 0.0
C1042 C 0.30462 0.21441 0.95448 0.0
C1043 C 0.30036 0.19662 0.93803 0.0
C1044 C 0.28986 0.22771 0.96465 0.0
C1045 C 0.27062 0.22313 0.95884 0.0
C1046 C 0.26642 0.20594 0.94186 0.0
C1047 C 0.28115 0.19283 0.93152 0.0
C1048 C 0.25478 0.23562 0.97096 0.0
C1049 C 0.24075 0.24753 0.95776 0.0
C1050 C 0.25344 0.2358 -0.00461 0.0
C1051 C 0.26692 0.22209 0.01028 0.0
C1052 C 0.26932 0.19722 0.00722 0.0
C1053 C 0.28213 0.18444 0.02121 0.0
C1054 C 0.29252 0.19631 0.03845 0.0
C1055 C 0.29007 0.22098 0.04178 0.0
C1056 C 0.27729 0.23384 0.02782 0.0
C1057 C 0.17481 0.27608 0.01454 0.0
C1058 C 0.17899 0.29479 0.03005 0.0
C1059 C 0.18956 0.26504 0.00206 0.0
C1060 C 0.20866 0.27247 0.00507 0.0
C1061 C 0.21282 0.29116 0.02048 0.0
C1062 C 0.19812 0.30233 0.03274 0.0
C1063 C 0.22448 0.26033 -0.00723 0.0
C1064 C 0.23845 0.24844 0.00596 0.0
C1065 C 0.22562 0.25995 0.96838 0.0
C1066 C 0.21155 0.27286 0.95363 0.0
C1067 C 0.20841 0.29763 0.95654 0.0
C1068 C 0.19505 0.30964 0.94266 0.0
C1069 C 0.18484 0.29712 0.9257 0.0
C1070 C 0.18801 0.27256 0.92254 0.0
C1071 C 0.20134 0.26045 0.93639 0.0
H1072 H 0.17451 0.30646 0.91496 0.0
H1073 H 0.30243 0.18639 0.04927 0.0
H1074 H 0.78284 0.66618 0.52783 0.0
H1075 H 0.75912 0.68404 0.50211 0.0
H1076 H 0.80282 0.72963 0.47269 0.0
H1077 H 0.82658 0.71236 0.49918 0.0
H1078 H 0.77338 0.75518 0.48286 0.0
H1079 H 0.7813 0.68225 0.44152 0.0
H1080 H 0.78379 0.63852 0.43565 0.0
H1081 H 0.7259 0.62953 0.45942 0.0
H1082 H 0.72313 0.67318 0.46576 0.0
H1083 H 0.70613 0.80239 0.40315 0.0
H1084 H 0.73325 0.77802 0.41615 0.0
H1085 H 0.69597 0.73918 0.46234 0.0
H1086 H 0.66869 0.76362 0.44956 0.0
H1087 H 0.72426 0.71003 0.43836 0.0
H1088 H 0.71911 0.78307 0.48411 0.0
H1089 H 0.7171 0.82699 0.489 0.0
H1090 H 0.77127 0.83533 0.45464 0.0
H1091 H 0.77345 0.79145 0.44925 0.0
C1092 C 0.78747 0.6798 0.51569 0.0
C1093 C 0.80655 0.68795 0.51556 0.0
C1094 C 0.77391 0.68987 0.50083 0.0
C1095 C 0.77922 0.70794 0.48519 0.0
C1096 C 0.79841 0.71566 0.48458 0.0
C1097 C 0.81196 0.70579 0.4997 0.0
C1098 C 0.76436 0.72019 0.47108 0.0
C1099 C 0.76295 0.74527 0.47268 0.0
C1100 C 0.7505 0.70731 0.4581 0.0
C1101 C 0.75206 0.68101 0.45426 0.0
C1102 C 0.76914 0.67094 0.44565 0.0
C1103 C 0.77059 0.64616 0.44222 0.0
C1104 C 0.75502 0.63125 0.44719 0.0
C1105 C 0.73795 0.6411 0.45558 0.0
C1106 C 0.73642 0.66587 0.45906 0.0
C1107 C 0.70362 0.78843 0.41583 0.0
C1108 C 0.68533 0.78506 0.42554 0.0
C1109 C 0.71913 0.77454 0.4232 0.0
C1110 C 0.71657 0.757 0.44028 0.0
C1111 C 0.69816 0.75266 0.4491 0.0
C1112 C 0.68264 0.7667 0.44188 0.0
C1113 C 0.73334 0.74472 0.4505 0.0
C1114 C 0.735 0.71976 0.44821 0.0
C1115 C 0.74758 0.75768 0.46265 0.0
C1116 C 0.74633 0.78403 0.46604 0.0
C1117 C 0.73051 0.79429 0.47742 0.0
C1118 C 0.72935 0.81917 0.48031 0.0
C1119 C 0.74402 0.83395 0.47207 0.0
C1120 C 0.7599 0.82387 0.46097 0.0
C1121 C 0.76111 0.799 0.458 0.0
H1122 H 0.7431 0.85321 0.47432 0.0
H1123 H 0.75618 0.61207 0.44452 0.0
H1124 H 0.32321 0.75626 0.03781 0.0
H1125 H 0.29862 0.72966 0.02178 0.0
H1126 H 0.25458 0.77114 0.05576 0.0
H1127 H 0.27904 0.79729 0.07236 0.0
H1128 H 0.24489 0.72498 0.05526 0.0
H1129 H 0.26749 0.78303 -5e-05 0.0
H1130 H 0.2918 0.80427 0.97672 0.0
H1131 H 0.30789 0.73791 0.94425 0.0
H1132 H 0.28383 0.71622 0.96754 0.0
H1133 H 0.16646 0.70858 0.97582 0.0
H1134 H 0.19204 0.72441 0.00074 0.0
H1135 H 0.23244 0.67545 0.96961 0.0
H1136 H 0.20713 0.65954 0.94482 0.0
H1137 H 0.24467 0.72256 0.96946 0.0
H1138 H 0.21865 0.66554 0.02314 0.0
H1139 H 0.19311 0.64616 0.04592 0.0
H1140 H 0.18184 0.71273 0.08082 0.0
H1141 H 0.20714 0.73261 0.058 0.0
C1142 C 0.30832 0.75939 0.04224 0.0
C1143 C 0.30303 0.77905 0.05606 0.0
C1144 C 0.29429 0.74425 0.03302 0.0
C1145 C 0.27475 0.74877 0.03718 0.0
C1146 C 0.26956 0.76738 0.05225 0.0
C1147 C 0.28357 0.78237 0.06165 0.0
C1148 C 0.25967 0.7357 0.02423 0.0
C1149 C 0.24477 0.72454 0.0365 0.0
C1150 C 0.25961 0.73497 -0.00025 0.0
C1151 C 0.27403 0.74798 0.98567 0.0
C1152 C 0.27632 0.77295 0.98797 0.0
C1153 C 0.29003 0.78507 0.97478 0.0
C1154 C 0.30142 0.77243 0.95907 0.0
C1155 C 0.29908 0.74766 0.95646 0.0
C1156 C 0.28541 0.73545 0.96965 0.0
C1157 C 0.18076 0.70106 0.97447 0.0
C1158 C 0.18481 0.68292 0.95829 0.0
C1159 C 0.1953 0.71002 0.98876 0.0
C1160 C 0.21407 0.70099 0.98702 0.0
C1161 C 0.21804 0.68261 0.9712 0.0
C1162 C 0.20353 0.67356 0.95706 0.0
C1163 C 0.22991 0.71182 0.00047 0.0
C1164 C 0.2449 0.72271 0.98823 0.0
C1165 C 0.22987 0.71254 0.02491 0.0
C1166 C 0.21467 0.70062 0.03869 0.0
C1167 C 0.21061 0.6761 0.03552 0.0
C1168 C 0.19621 0.66501 0.04847 0.0
C1169 C 0.18583 0.67822 0.06477 0.0
C1170 C 0.18988 0.70253 0.06818 0.0
C1171 C 0.20426 0.71371 0.05526 0.0
H1172 H 0.17468 0.6696 0.07478 0.0
H1173 H 0.31203 0.78184 0.94886 0.0
H1174 H 0.66209 0.22936 0.53401 0.0
H1175 H 0.68645 0.25676 0.51879 0.0
H1176 H 0.73077 0.21547 0.55269 0.0
H1177 H 0.70654 0.18863 0.56854 0.0
H1178 H 0.7398 0.26118 0.55401 0.0
H1179 H 0.71817 0.20568 0.49546 0.0
H1180 H 0.69426 0.18558 0.47062 0.0
H1181 H 0.6784 0.25348 0.44102 0.0
H1182 H 0.70206 0.27402 0.46592 0.0
H1183 H 0.81958 0.27645 0.47761 0.0
H1184 H 0.79291 0.26135 0.50104 0.0
H1185 H 0.75529 0.31438 0.47091 0.0
H1186 H 0.78181 0.3297 0.44763 0.0
H1187 H 0.74141 0.2673 0.46841 0.0
H1188 H 0.7674 0.32146 0.5247 0.0
H1189 H 0.79281 0.33937 0.54887 0.0
H1190 H 0.80231 0.27139 0.582 0.0
H1191 H 0.77713 0.25296 0.55777 0.0
C1192 C 0.67699 0.22639 0.53851 0.0
C1193 C 0.68244 0.20669 0.55221 0.0
C1194 C 0.6909 0.24199 0.52976 0.0
C1195 C 0.71045 0.23785 0.53422 0.0
C1196 C 0.71578 0.21899 0.54897 0.0
C1197 C 0.7019 0.20359 0.55794 0.0
C1198 C 0.72551 0.25181 0.52217 0.0
C1199 C 0.74021 0.26244 0.53529 0.0
C1200 C 0.7259 0.25372 0.49775 0.0
C1201 C 0.71171 0.24141 0.48274 0.0
C1202 C 0.70948 0.21634 0.48377 0.0
C1203 C 0.69599 0.20487 0.46967 0.0
C1204 C 0.68477 0.21826 0.4543 0.0
C1205 C 0.68707 0.24314 0.45296 0.0
C1206 C 0.70051 0.25471 0.46706 0.0
C1207 C 0.80568 0.28503 0.47617 0.0
C1208 C 0.80275 0.30418 0.46074 0.0
C1209 C 0.79051 0.27648 0.48962 0.0
C1210 C 0.77221 0.28687 0.48772 0.0
C1211 C 0.76934 0.30621 0.47262 0.0
C1212 C 0.78451 0.31492 0.45937 0.0
C1213 C 0.75575 0.27643 0.50024 0.0
C1214 C 0.74084 0.26637 0.48715 0.0
C1215 C 0.75536 0.27474 0.52462 0.0
C1216 C 0.77048 0.28578 0.53926 0.0
C1217 C 0.77501 0.31027 0.53699 0.0
C1218 C 0.78935 0.32053 0.55074 0.0
C1219 C 0.79919 0.30652 0.56692 0.0
C1220 C 0.79468 0.28222 0.56944 0.0
C1221 C 0.78036 0.27186 0.55572 0.0
H1222 H 0.81029 0.3145 0.57755 0.0
H1223 H 0.67434 0.20934 0.44339 0.0
H1224 H 0.69564 0.83239 0.01839 0.0
H1225 H 0.72124 0.81639 -0.00589 0.0
H1226 H 0.69 0.75001 0.98649 0.0
H1227 H 0.66429 0.76586 0.01097 0.0
H1228 H 0.72634 0.7426 0.00091 0.0
H1229 H 0.69527 0.78692 0.94083 0.0
H1230 H 0.68061 0.8224 0.92239 0.0
H1231 H 0.7342 0.8601 0.92715 0.0
H1232 H 0.74912 0.82495 0.94593 0.0
H1233 H 0.7888 0.71137 0.89812 0.0
H1234 H 0.76175 0.73445 0.9132 0.0
H1235 H 0.79296 0.74727 0.97649 0.0
H1236 H 0.82016 0.72415 0.96153 0.0
H1237 H 0.75529 0.7805 0.93156 0.0
H1238 H 0.76151 0.73429 0.02032 0.0
H1239 H 0.77513 0.69737 0.03735 0.0
H1240 H 0.76846 0.66084 0.97242 0.0
H1241 H 0.75455 0.69742 0.95513 0.0
C1242 C 0.69406 0.81451 0.01126 0.0
C1243 C 0.67802 0.8003 0.01671 0.0
C1244 C 0.70867 0.80545 -0.00271 0.0
C1245 C 0.70749 0.78205 0.98848 0.0
C1246 C 0.69115 0.76813 -0.00685 0.0
C1247 C 0.67647 0.77723 0.00707 0.0
C1248 C 0.72405 0.77143 0.97619 0.0
C1249 C 0.7326 0.75087 0.9857 0.0
C1250 C 0.73218 0.78219 0.95631 0.0
C1251 C 0.72327 0.80335 0.94497 0.0
C1252 C 0.70389 0.80284 0.93812 0.0
C1253 C 0.69554 0.82288 0.92757 0.0
C1254 C 0.70646 0.84351 0.92365 0.0
C1255 C 0.72576 0.84412 0.93022 0.0
C1256 C 0.73417 0.82412 0.94079 0.0
C1257 C 0.79008 0.71953 0.91506 0.0
C1258 C 0.80648 0.71571 0.9288 0.0
C1259 C 0.77465 0.7328 0.92359 0.0
C1260 C 0.77531 0.74223 0.94604 0.0
C1261 C 0.79218 0.7399 0.95917 0.0
C1262 C 0.8077 0.72676 0.95059 0.0
C1263 C 0.75766 0.75203 0.95659 0.0
C1264 C 0.74897 0.77235 0.94678 0.0
C1265 C 0.7492 0.74091 0.97604 0.0
C1266 C 0.75719 0.71867 0.98639 0.0
C1267 C 0.76289 0.71835 0.00972 0.0
C1268 C 0.77066 0.69749 0.01941 0.0
C1269 C 0.77272 0.6768 0.00595 0.0
C1270 C 0.76693 0.6769 0.9828 0.0
C1271 C 0.75911 0.69769 0.97304 0.0
H1272 H 0.77877 0.66068 0.01348 0.0
H1273 H 0.69997 0.85901 0.91547 0.0
H1274 H 0.28378 0.17149 0.53714 0.0
H1275 H 0.2596 0.18729 0.51084 0.0
H1276 H 0.30244 0.23158 0.47799 0.0
H1277 H 0.32673 0.21634 0.50497 0.0
H1278 H 0.2726 0.25723 0.48739 0.0
H1279 H 0.28125 0.18232 0.44983 0.0
H1280 H 0.28446 0.1384 0.44622 0.0
H1281 H 0.22707 0.12919 0.4716 0.0
H1282 H 0.22358 0.17305 0.47569 0.0
H1283 H 0.20249 0.29931 0.40906 0.0
H1284 H 0.2304 0.27595 0.42131 0.0
H1285 H 0.19523 0.23719 0.46992 0.0
H1286 H 0.16716 0.26056 0.45783 0.0
H1287 H 0.22358 0.20832 0.44657 0.0
H1288 H 0.21789 0.28334 0.48914 0.0
H1289 H 0.215 0.32737 0.4921 0.0
H1290 H 0.26812 0.33581 0.45544 0.0
H1291 H 0.27116 0.29179 0.45197 0.0
C1292 C 0.28815 0.18439 0.52416 0.0
C1293 C 0.30715 0.19276 0.52317 0.0
C1294 C 0.27431 0.19327 0.50897 0.0
C1295 C 0.27924 0.21036 0.49217 0.0
C1296 C 0.29833 0.21833 0.49076 0.0
C1297 C 0.31218 0.20962 0.50616 0.0
C1298 C 0.26404 0.22141 0.47765 0.0
C1299 C 0.26219 0.24649 0.47799 0.0
C1300 C 0.25022 0.20744 0.46569 0.0
C1301 C 0.2522 0.18101 0.4632 0.0
C1302 C 0.26935 0.17093 0.4548 0.0
C1303 C 0.27122 0.14604 0.45264 0.0
C1304 C 0.25599 0.13101 0.45871 0.0
C1305 C 0.23885 0.14085 0.46691 0.0
C1306 C 0.23691 0.16574 0.46911 0.0
C1307 C 0.2006 0.28554 0.42208 0.0
C1308 C 0.18268 0.28196 0.43271 0.0
C1309 C 0.21656 0.27221 0.42902 0.0
C1310 C 0.21485 0.25508 0.44664 0.0
C1311 C 0.19678 0.25037 0.45626 0.0
C1312 C 0.1808 0.2638 0.44942 0.0
C1313 C 0.23217 0.24388 0.45672 0.0
C1314 C 0.23431 0.21889 0.45559 0.0
C1315 C 0.24639 0.25788 0.46781 0.0
C1316 C 0.24463 0.28432 0.47006 0.0
C1317 C 0.22887 0.2946 0.48155 0.0
C1318 C 0.22722 0.31955 0.48334 0.0
C1319 C 0.24134 0.33438 0.4739 0.0
C1320 C 0.25717 0.3243 0.4627 0.0
C1321 C 0.25887 0.29936 0.46082 0.0
H1322 H 0.24004 0.3537 0.47531 0.0
H1323 H 0.25747 0.11175 0.45703 0.0
H1324 H 0.77507 0.31216 0.06492 0.0
H1325 H 0.74974 0.28612 0.05024 0.0
H1326 H 0.79229 0.24006 0.019 0.0
H1327 H 0.81773 0.26667 0.03294 0.0
H1328 H 0.76587 0.2493 0.9892 0.0
H1329 H 0.765 0.22285 0.06755 0.0
H1330 H 0.76386 0.22673 0.11 0.0
H1331 H 0.70827 0.25974 0.10532 0.0
H1332 H 0.70918 0.25636 0.0628 0.0
H1333 H 0.69981 0.15958 0.95685 0.0
H1334 H 0.72497 0.17927 0.97928 0.0
H1335 H 0.68574 0.23616 -0.0027 0.0
H1336 H 0.66036 0.21662 0.97465 0.0
H1337 H 0.71066 0.21909 0.0348 0.0
H1338 H 0.71352 0.24712 0.95558 0.0
H1339 H 0.71514 0.24163 0.91331 0.0
H1340 H 0.76824 0.20315 0.92063 0.0
H1341 H 0.76677 0.2081 0.96301 0.0
C1342 C 0.77906 0.29632 0.05516 0.0
C1343 C 0.79838 0.29147 0.05001 0.0
C1344 C 0.76455 0.28134 0.0469 0.0
C1345 C 0.76909 0.26094 0.03374 0.0
C1346 C 0.78844 0.2557 0.02913 0.0
C1347 C 0.80296 0.27088 0.03713 0.0
C1348 C 0.75361 0.2462 0.0233 0.0
C1349 C 0.75402 0.24233 -0.00068 0.0
C1350 C 0.73787 0.23752 0.03636 0.0
C1351 C 0.73724 0.23953 0.06195 0.0
C1352 C 0.75259 0.2311 0.07555 0.0
C1353 C 0.75197 0.23318 0.09964 0.0
C1354 C 0.73602 0.24353 0.11035 0.0
C1355 C 0.72063 0.25175 0.097 0.0
C1356 C 0.72118 0.24973 0.0729 0.0
C1357 C 0.69642 0.17613 0.96579 0.0
C1358 C 0.67814 0.18669 0.96382 0.0
C1359 C 0.71082 0.18733 0.97859 0.0
C1360 C 0.7072 0.2092 0.98974 0.0
C1361 C 0.68874 0.21925 0.98878 0.0
C1362 C 0.67432 0.20814 0.97578 0.0
C1363 C 0.72309 0.22236 0.00092 0.0
C1364 C 0.72267 0.22596 0.02491 0.0
C1365 C 0.73896 0.23058 0.98796 0.0
C1366 C 0.73993 0.22775 0.96247 0.0
C1367 C 0.72545 0.2373 0.94819 0.0
C1368 C 0.72636 0.23432 0.92421 0.0
C1369 C 0.74175 0.22199 0.91429 0.0
C1370 C 0.7563 0.21266 0.92834 0.0
C1371 C 0.75545 0.21557 0.95234 0.0
H1372 H 0.74243 0.2197 0.89572 0.0
H1373 H 0.73558 0.24512 0.129 0.0
H1374 H 0.20484 0.6888 0.56725 0.0
H1375 H 0.23053 0.71426 0.5527 0.0
H1376 H 0.18921 0.75589 0.51399 0.0
H1377 H 0.16344 0.72978 0.52785 0.0
H1378 H 0.2174 0.74462 0.48744 0.0
H1379 H 0.21343 0.77848 0.56294 0.0
H1380 H 0.21214 0.77869 0.60555 0.0
H1381 H 0.26824 0.74691 0.6087 0.0
H1382 H 0.26977 0.74619 0.56608 0.0
H1383 H 0.2845 0.83323 0.45404 0.0
H1384 H 0.25811 0.8146 0.47517 0.0
H1385 H 0.29662 0.76013 0.50094 0.0
H1386 H 0.32321 0.77854 0.47957 0.0
H1387 H 0.26951 0.78047 0.53477 0.0
H1388 H 0.27154 0.74475 0.45844 0.0
H1389 H 0.27234 0.74601 0.41582 0.0
H1390 H 0.21861 0.78382 0.4149 0.0
H1391 H 0.21764 0.78309 0.45757 0.0
C1392 C 0.20117 0.70357 0.55588 0.0
C1393 C 0.18214 0.70727 0.54861 0.0
C1394 C 0.21588 0.71823 0.54769 0.0
C1395 C 0.2118 0.73719 0.53245 0.0
C1396 C 0.19269 0.74137 0.52574 0.0
C1397 C 0.17799 0.72649 0.53369 0.0
C1398 C 0.22763 0.75132 0.52209 0.0
C1399 C 0.22856 0.75284 0.49788 0.0
C1400 C 0.24246 0.76163 0.53563 0.0
C1401 C 0.24164 0.7621 0.56129 0.0
C1402 C 0.22544 0.77137 0.57271 0.0
C1403 C 0.22467 0.77161 0.59687 0.0
C1404 C 0.24008 0.76277 0.60982 0.0
C1405 C 0.25631 0.75373 0.59864 0.0
C1406 C 0.25714 0.75343 0.57448 0.0
C1407 C 0.28743 0.81741 0.46436 0.0
C1408 C 0.30589 0.80722 0.46503 0.0
C1409 C 0.27234 0.80682 0.47641 0.0
C1410 C 0.27547 0.78599 0.48946 0.0
C1411 C 0.294 0.77626 0.49094 0.0
C1412 C 0.30911 0.78671 0.47866 0.0
C1413 C 0.25911 0.77359 0.50035 0.0
C1414 C 0.25817 0.77238 0.52453 0.0
C1415 C 0.24412 0.76379 0.48684 0.0
C1416 C 0.24463 0.7641 0.46119 0.0
C1417 C 0.25998 0.75352 0.44916 0.0
C1418 C 0.26045 0.7541 0.42499 0.0
C1419 C 0.24556 0.76505 0.41266 0.0
C1420 C 0.23014 0.77538 0.42448 0.0
C1421 C 0.22962 0.77487 0.44865 0.0
H1422 H 0.24595 0.76548 0.39395 0.0
H1423 H 0.23946 0.76296 0.62853 0.0
H1424 H 0.14028 0.54594 0.89596 0.0
H1425 H 0.14151 0.51042 0.92076 0.0
H1426 H 0.14472 0.55582 0.98113 0.0
H1427 H 0.14399 0.59135 0.95651 0.0
H1428 H 0.16839 0.51904 0.98558 0.0
H1429 H 0.10225 0.52969 0.9638 0.0
H1430 H 0.07516 0.53445 0.93667 0.0
H1431 H 0.08777 0.46574 0.90661 0.0
H1432 H 0.11512 0.46072 0.93338 0.0
H1433 H 0.13426 0.43992 0.07261 0.0
H1434 H 0.13804 0.47269 0.04487 0.0
H1435 H 0.14107 0.42152 0.989 0.0
H1436 H 0.13734 0.38857 0.01659 0.0
H1437 H 0.11576 0.45928 0.98058 0.0
H1438 H 0.18082 0.44797 0.00541 0.0
H1439 H 0.20705 0.4438 0.03382 0.0
H1440 H 0.19538 0.51459 0.05966 0.0
H1441 H 0.16889 0.51905 0.03162 0.0
C1442 C 0.14136 0.54837 0.91451 0.0
C1443 C 0.14191 0.57148 0.92427 0.0
C1444 C 0.14199 0.52805 0.92865 0.0
C1445 C 0.14291 0.53049 0.9528 0.0
C1446 C 0.14399 0.55352 0.96253 0.0
C1447 C 0.14351 0.57382 0.94842 0.0
C1448 C 0.14224 0.50915 0.96806 0.0
C1449 C 0.15679 0.50609 0.98462 0.0
C1450 C 0.1273 0.49199 0.96649 0.0
C1451 C 0.11085 0.49495 0.95041 0.0
C1452 C 0.09934 0.51569 0.95128 0.0
C1453 C 0.08392 0.51842 0.93599 0.0
C1454 C 0.07978 0.50044 0.91988 0.0
C1455 C 0.09102 0.47967 0.91907 0.0
C1456 C 0.10647 0.47686 0.9343 0.0
C1457 C 0.13578 0.43561 0.05443 0.0
C1458 C 0.13551 0.41164 0.0468 0.0
C1459 C 0.13803 0.45435 0.03864 0.0
C1460 C 0.13997 0.44946 0.01496 0.0
C1461 C 0.13963 0.4256 0.00724 0.0
C1462 C 0.13755 0.40683 0.02304 0.0
C1463 C 0.14179 0.46935 -0.00181 0.0
C1464 C 0.12744 0.47213 0.98138 0.0
C1465 C 0.15679 0.48636 -0.00031 0.0
C1466 C 0.17275 0.48375 0.01654 0.0
C1467 C 0.18374 0.46257 0.01728 0.0
C1468 C 0.19868 0.46017 0.03329 0.0
C1469 C 0.20285 0.47889 0.04857 0.0
C1470 C 0.19212 0.50009 0.04783 0.0
C1471 C 0.17715 0.50257 0.03187 0.0
H1472 H 0.21442 0.477 0.06095 0.0
H1473 H 0.06784 0.50259 0.90806 0.0
H1474 H 0.85778 0.552 0.57997 0.0
H1475 H 0.85827 0.51615 0.5556 0.0
H1476 H 0.85388 0.56055 0.49464 0.0
H1477 H 0.85279 0.59638 0.51887 0.0
H1478 H 0.83088 0.52393 0.49067 0.0
H1479 H 0.89692 0.5341 0.51195 0.0
H1480 H 0.9243 0.53921 0.53857 0.0
H1481 H 0.9117 0.4713 0.57023 0.0
H1482 H 0.88407 0.46593 0.54399 0.0
H1483 H 0.86098 0.43775 0.40746 0.0
H1484 H 0.86026 0.47265 0.43315 0.0
H1485 H 0.85456 0.42592 0.4922 0.0
H1486 H 0.85511 0.39088 0.46667 0.0
H1487 H 0.88242 0.46279 0.49757 0.0
H1488 H 0.81643 0.45305 0.47471 0.0
H1489 H 0.78988 0.44845 0.44681 0.0
H1490 H 0.80373 0.51665 0.41654 0.0
H1491 H 0.83056 0.5215 0.44405 0.0
C1492 C 0.85694 0.55413 0.56137 0.0
C1493 C 0.85529 0.57704 0.55135 0.0
C1494 C 0.85731 0.53362 0.54746 0.0
C1495 C 0.85638 0.53568 0.52327 0.0
C1496 C 0.85462 0.55853 0.51326 0.0
C1497 C 0.85403 0.579 0.52715 0.0
C1498 C 0.857 0.51405 0.50834 0.0
C1499 C 0.8423 0.51074 0.492 0.0
C1500 C 0.87168 0.49657 0.51037 0.0
C1501 C 0.8883 0.49974 0.52616 0.0
C1502 C 0.89989 0.52034 0.52471 0.0
C1503 C 0.91548 0.52327 0.53971 0.0
C1504 C 0.91971 0.50562 0.55613 0.0
C1505 C 0.90839 0.48498 0.55753 0.0
C1506 C 0.89277 0.48197 0.54259 0.0
C1507 C 0.85961 0.43488 0.42591 0.0
C1508 C 0.85803 0.41156 0.43504 0.0
C1509 C 0.85915 0.45482 0.44053 0.0
C1510 C 0.85724 0.45178 0.4645 0.0
C1511 C 0.85602 0.42856 0.47372 0.0
C1512 C 0.85626 0.40861 0.4591 0.0
C1513 C 0.85641 0.47289 0.47993 0.0
C1514 C 0.87104 0.47604 0.49633 0.0
C1515 C 0.84179 0.49036 0.4778 0.0
C1516 C 0.82563 0.48752 0.46129 0.0
C1517 C 0.81393 0.46697 0.46197 0.0
C1518 C 0.7988 0.46434 0.44625 0.0
C1519 C 0.79515 0.48222 0.42987 0.0
C1520 C 0.80659 0.5028 0.42921 0.0
C1521 C 0.82175 0.50551 0.44488 0.0
H1522 H 0.78343 0.48015 0.41772 0.0
H1523 H 0.93178 0.50792 0.56772 0.0
H1524 H 0.82693 0.43158 0.06464 0.0
H1525 H 0.82371 0.47031 0.04531 0.0
H1526 H 0.82689 0.43518 0.97888 0.0
H1527 H 0.8307 0.39638 -0.00183 0.0
H1528 H 0.84985 0.47203 0.97962 0.0
H1529 H 0.78426 0.45955 0.00012 0.0
H1530 H 0.75702 0.45041 0.02579 0.0
H1531 H 0.77029 0.51213 0.06734 0.0
H1532 H 0.7978 0.52147 0.04209 0.0
H1533 H 0.82522 0.57458 0.91418 0.0
H1534 H 0.82146 0.53554 0.93291 0.0
H1535 H 0.8304 0.5684 -0.00039 0.0
H1536 H 0.83437 0.60763 0.98097 0.0
H1537 H 0.7999 0.53276 -0.00231 0.0
H1538 H 0.86664 0.54328 0.97763 0.0
H1539 H 0.89327 0.55242 0.95102 0.0
H1540 H 0.87661 0.49355 0.90744 0.0
H1541 H 0.84968 0.4843 0.93363 0.0
C1542 C 0.82675 0.43206 0.04591 0.0
C1543 C 0.82912 0.41096 0.03289 0.0
C1544 C 0.8248 0.45422 0.03488 0.0
C1545 C 0.82483 0.45564 0.01063 0.0
C1546 C 0.82681 0.43451 -0.00239 0.0
C1547 C 0.82896 0.41235 0.00863 0.0
C1548 C 0.82404 0.47931 -0.00107 0.0
C1549 C 0.8387 0.4851 0.98329 0.0
C1550 C 0.80976 0.49662 0.0041 0.0
C1551 C 0.7932 0.49108 0.01932 0.0
C1552 C 0.78147 0.47107 0.01483 0.0
C1553 C 0.76596 0.46587 0.02929 0.0
C1554 C 0.76195 0.48064 0.04821 0.0
C1555 C 0.77343 0.50069 0.05268 0.0
C1556 C 0.78897 0.50596 0.03829 0.0
C1557 C 0.82617 0.57358 0.93286 0.0
C1558 C 0.83026 0.59411 0.94612 0.0
C1559 C 0.82403 0.55128 0.9435 0.0
C1560 C 0.8258 0.54917 0.96757 0.0
C1561 C 0.82899 0.56976 0.98099 0.0
C1562 C 0.83133 0.59208 0.97033 0.0
C1563 C 0.82564 0.52522 0.97851 0.0
C1564 C 0.81089 0.51949 -0.00601 0.0
C1565 C 0.83974 0.50786 0.97311 0.0
C1566 C 0.85603 0.51326 0.95745 0.0
C1567 C 0.86856 0.53241 0.96227 0.0
C1568 C 0.88372 0.53759 0.94728 0.0
C1569 C 0.8866 0.52362 0.92751 0.0
C1570 C 0.87434 0.50439 0.92274 0.0
C1571 C 0.85914 0.49916 0.93765 0.0
H1572 H 0.89834 0.52766 0.91593 0.0
H1573 H 0.74994 0.47659 0.05938 0.0
H1574 H 0.1539 0.38575 0.48987 0.0
H1575 H 0.15894 0.42469 0.50854 0.0
H1576 H 0.15717 0.45955 0.4419 0.0
H1577 H 0.15272 0.42072 0.42312 0.0
H1578 H 0.18368 0.47978 0.46816 0.0
H1579 H 0.11744 0.4571 0.47717 0.0
H1580 H 0.09073 0.43073 0.48883 0.0
H1581 H 0.10975 0.43371 0.55946 0.0
H1582 H 0.13674 0.45986 0.54816 0.0
H1583 H 0.15144 0.59716 0.4998 0.0
H1584 H 0.15586 0.55681 0.48383 0.0
H1585 H 0.16337 0.52853 0.55271 0.0
H1586 H 0.15899 0.5687 0.56881 0.0
H1587 H 0.13618 0.50422 0.52752 0.0
H1588 H 0.20097 0.53111 0.51771 0.0
H1589 H 0.22651 0.5586 0.5048 0.0
H1590 H 0.20883 0.54917 0.4342 0.0
H1591 H 0.18298 0.52187 0.44671 0.0
C1592 C 0.15476 0.40171 0.47921 0.0
C1593 C 0.15272 0.40025 0.45508 0.0
C1594 C 0.1576 0.42393 0.48989 0.0
C1595 C 0.1581 0.44505 0.47663 0.0
C1596 C 0.15681 0.44349 0.45246 0.0
C1597 C 0.15418 0.42128 0.44177 0.0
C1598 C 0.15894 0.46892 0.48788 0.0
C1599 C 0.17322 0.4852 0.48103 0.0
C1600 C 0.14547 0.47584 0.50493 0.0
C1601 C 0.12923 0.4602 0.51178 0.0
C1602 C 0.11601 0.45198 0.49516 0.0
C1603 C 0.10081 0.4371 0.5017 0.0
C1604 C 0.09858 0.43049 0.52486 0.0
C1605 C 0.11152 0.43881 0.54153 0.0
C1606 C 0.12676 0.45366 0.53506 0.0
C1607 C 0.15426 0.58238 0.51151 0.0
C1608 C 0.15476 0.58605 0.53555 0.0
C1609 C 0.15687 0.55939 0.50236 0.0
C1610 C 0.16 0.53976 0.51712 0.0
C1611 C 0.16098 0.54348 0.54107 0.0
C1612 C 0.15849 0.56645 0.55021 0.0
C1613 C 0.16084 0.5151 0.50772 0.0
C1614 C 0.14679 0.4987 0.51487 0.0
C1615 C 0.17436 0.50824 0.49076 0.0
C1616 C 0.18993 0.5246 0.48318 0.0
C1617 C 0.20242 0.53505 0.49945 0.0
C1618 C 0.21698 0.55057 0.4922 0.0
C1619 C 0.21926 0.55567 0.4687 0.0
C1620 C 0.20703 0.54522 0.4524 0.0
C1621 C 0.19244 0.5297 0.45956 0.0
H1622 H 0.23054 0.56769 0.46313 0.0
H1623 H 0.08681 0.41898 0.52989 0.0
H1624 H 0.62441 0.04576 0.91414 0.0
H1625 H 0.62392 0.01247 0.94148 0.0
H1626 H 0.63123 0.06206 -0.00185 0.0
H1627 H 0.63219 0.09554 0.97081 0.0
H1628 H 0.65385 0.02428 0.00366 0.0
H1629 H 0.58753 0.03619 0.98717 0.0
H1630 H 0.55876 0.04163 0.96283 0.0
H1631 H 0.56724 0.97178 0.9331 0.0
H1632 H 0.59623 0.96605 0.95703 0.0
H1633 H 0.63073 0.93372 0.08753 0.0
H1634 H 0.62945 0.97034 0.06412 0.0
H1635 H 0.62934 0.92765 0.00188 0.0
H1636 H 0.6307 0.89103 0.02501 0.0
H1637 H 0.60149 0.96395 0.00213 0.0
H1638 H 0.66931 0.95401 0.01765 0.0
H1639 H 0.69768 0.94918 0.04279 0.0
H1640 H 0.68523 0.01644 0.07584 0.0
H1641 H 0.65661 0.02152 0.05109 0.0
C1642 C 0.62587 0.04965 0.93241 0.0
C1643 C 0.62827 0.07334 0.94029 0.0
C1644 C 0.6255 0.03058 0.94804 0.0
C1645 C 0.62723 0.03482 0.97188 0.0
C1646 C 0.6298 0.05841 0.97982 0.0
C1647 C 0.63031 0.07751 0.96417 0.0
C1648 C 0.6267 0.0145 0.9884 0.0
C1649 C 0.64222 0.01133 0.00362 0.0
C1650 C 0.61164 -0.00255 0.98815 0.0
C1651 C 0.59416 0.00077 0.97377 0.0
C1652 C 0.58335 0.02206 0.97532 0.0
C1653 C 0.56698 0.02518 0.96162 0.0
C1654 C 0.5612 0.00708 0.9464 0.0
C1655 C 0.57175 0.98579 0.94489 0.0
C1656 C 0.58813 0.98258 0.95854 0.0
C1657 C 0.63044 0.93213 0.06886 0.0
C1658 C 0.63087 0.90947 0.05812 0.0
C1659 C 0.62975 0.95305 0.05555 0.0
C1660 C 0.62937 0.95163 0.03132 0.0
C1661 C 0.6296 0.92907 0.02058 0.0
C1662 C 0.63047 0.90818 0.03383 0.0
C1663 C 0.62875 0.9736 0.01702 0.0
C1664 C 0.61299 0.97707 0.00228 0.0
C1665 C 0.64348 0.99102 0.01787 0.0
C1666 C 0.6607 0.988 0.03271 0.0
C1667 C 0.67252 0.96767 0.03042 0.0
C1668 C 0.68867 0.9649 0.04457 0.0
C1669 C 0.69322 0.98246 0.06095 0.0
C1670 C 0.68166 0.00284 0.06317 0.0
C1671 C 0.66549 0.00567 0.04908 0.0
H1672 H 0.70573 0.98029 0.07188 0.0
H1673 H 0.54853 0.00954 0.9358 0.0
H1674 H 0.33736 0.90282 0.46996 0.0
H1675 H 0.33421 0.93713 0.49606 0.0
H1676 H 0.38085 0.97267 0.46093 0.0
H1677 H 0.38345 0.93892 0.43417 0.0
H1678 H 0.35516 0.95777 0.52649 0.0
H1679 H 0.37477 0.03184 0.45955 0.0
H1680 H 0.3719 0.03914 0.41759 0.0
H1681 H 0.32408 0.9907 0.41401 0.0
H1682 H 0.3265 0.98336 0.45598 0.0
H1683 H 0.37578 0.06641 0.58491 0.0
H1684 H 0.37552 0.02981 0.56158 0.0
H1685 H 0.32768 0.05746 0.52208 0.0
H1686 H 0.3287 0.09461 0.54449 0.0
H1687 H 0.3508 0.04002 0.49402 0.0
H1688 H 0.3239 0.00987 0.56377 0.0
H1689 H 0.32148 0.00208 0.60565 0.0
H1690 H 0.37412 0.962 0.60367 0.0
H1691 H 0.377 0.96982 0.56182 0.0
C1692 C 0.34696 0.91795 0.46785 0.0
C1693 C 0.36051 0.91833 0.44988 0.0
C1694 C 0.34518 0.93752 0.48281 0.0
C1695 C 0.35705 0.95769 0.48021 0.0
C1696 C 0.37116 0.95761 0.46289 0.0
C1697 C 0.37271 0.93826 0.44766 0.0
C1698 C 0.35449 0.97898 0.49533 0.0
C1699 C 0.35416 0.97576 0.51941 0.0
C1700 C 0.35262 0.00241 0.48611 0.0
C1701 C 0.35095 0.00689 0.46087 0.0
C1702 C 0.3636 0.02283 0.44982 0.0
C1703 C 0.36206 0.02695 0.42603 0.0
C1704 C 0.34786 0.01533 0.41313 0.0
C1705 C 0.33512 -0.00038 0.424 0.0
C1706 C 0.33658 0.99545 0.44779 0.0
C1707 C 0.36511 0.06453 0.57137 0.0
C1708 C 0.35227 0.08329 0.56645 0.0
C1709 C 0.36489 0.04355 0.55812 0.0
C1710 C 0.35142 0.04066 0.5402 0.0
C1711 C 0.33827 0.05924 0.53571 0.0
C1712 C 0.33882 0.08044 0.54855 0.0
C1713 C 0.35167 0.01893 0.5253 0.0
C1714 C 0.35166 0.02205 0.50119 0.0
C1715 C 0.35241 0.99538 0.53452 0.0
C1716 C 0.35075 0.99062 0.55969 0.0
C1717 C 0.33504 -0.00045 0.57229 0.0
C1718 C 0.33357 0.9951 0.59602 0.0
C1719 C 0.34766 0.9816 0.60732 0.0
C1720 C 0.36323 0.97248 0.5949 0.0
C1721 C 0.36477 0.97689 0.57117 0.0
H1722 H 0.3465 0.97818 0.6257 0.0
H1723 H 0.3467 0.01854 0.39472 0.0
H1724 H 0.31292 0.91477 0.04897 0.0
H1725 H 0.31079 0.95117 0.02554 0.0
H1726 H 0.34471 0.91747 0.97228 0.0
H1727 H 0.34691 0.88089 -0.00436 0.0
H1728 H 0.35894 0.96109 0.98539 0.0
H1729 H 0.29875 0.92854 0.96179 0.0
H1730 H 0.2668 0.91037 0.96705 0.0
H1731 H 0.24807 0.97268 0.00451 0.0
H1732 H 0.28 0.99109 -0.00024 0.0
H1733 H 0.32037 0.06437 0.90901 0.0
H1734 H 0.31731 0.02343 0.92395 0.0
H1735 H 0.34494 0.04502 0.98745 0.0
H1736 H 0.34807 0.08597 0.97269 0.0
H1737 H 0.29955 0.00482 0.96338 0.0
H1738 H 0.37587 0.0001 0.00249 0.0
H1739 H 0.40786 0.01777 -0.00404 0.0
H1740 H 0.3944 0.02802 0.92413 0.0
H1741 H 0.36245 0.01008 0.93015 0.0
C1742 C 0.31969 0.91498 0.03212 0.0
C1743 C 0.33019 0.89506 0.02419 0.0
C1744 C 0.31838 0.93574 0.01872 0.0
C1745 C 0.32755 0.93694 -0.00283 0.0
C1746 C 0.33753 0.91683 0.98887 0.0
C1747 C 0.33873 0.89597 0.00221 0.0
C1748 C 0.32804 0.95987 0.98433 0.0
C1749 C 0.34596 0.97057 0.98043 0.0
C1750 C 0.31109 0.97209 0.97772 0.0
C1751 C 0.29183 0.96112 0.98056 0.0
C1752 C 0.28787 0.93829 0.97131 0.0
C1753 C 0.26975 0.92797 0.97417 0.0
C1754 C 0.25542 0.94035 0.98614 0.0
C1755 C 0.25918 0.96311 -0.00476 0.0
C1756 C 0.27728 0.97351 -0.00756 0.0
C1757 C 0.32569 0.06043 0.92621 0.0
C1758 C 0.33459 0.07832 0.93963 0.0
C1759 C 0.32386 0.03708 0.93472 0.0
C1760 C 0.33107 0.03123 0.95666 0.0
C1761 C 0.33948 0.04919 0.97035 0.0
C1762 C 0.34122 0.07255 0.96192 0.0
C1763 C 0.33041 0.00618 0.96503 0.0
C1764 C 0.3125 0.99518 0.96815 0.0
C1765 C 0.34737 0.99354 0.97075 0.0
C1766 C 0.36671 0.00393 0.96684 0.0
C1767 C 0.37978 0.00601 0.98528 0.0
C1768 C 0.3979 0.0161 0.98167 0.0
C1769 C 0.40314 0.02408 0.95966 0.0
C1770 C 0.3903 0.02191 0.94119 0.0
C1771 C 0.37217 0.01181 0.9447 0.0
H1772 H 0.41716 0.0319 0.95691 0.0
H1773 H 0.2414 0.93232 0.98834 0.0
H1774 H 0.66314 0.06511 0.55804 0.0
H1775 H 0.66717 0.02801 0.53628 0.0
H1776 H 0.65697 0.06633 0.47253 0.0
H1777 H 0.6523 0.10354 0.49439 0.0
H1778 H 0.63619 0.02771 0.4735 0.0
H1779 H 0.70224 0.0438 0.48721 0.0
H1780 H 0.73111 0.05412 0.50983 0.0
H1781 H 0.72412 0.99041 0.55074 0.0
H1782 H 0.69504 0.97985 0.52859 0.0
H1783 H 0.65609 0.92361 0.40709 0.0
H1784 H 0.66076 0.96357 0.42365 0.0
H1785 H 0.66067 0.93324 0.49228 0.0
H1786 H 0.65595 0.89313 0.47587 0.0
H1787 H 0.68913 0.96926 0.4852 0.0
H1788 H 0.62103 0.95636 0.47333 0.0
H1789 H 0.5925 0.94625 0.44997 0.0
H1790 H 0.60449 0.00507 0.40423 0.0
H1791 H 0.63327 0.01531 0.42715 0.0
C1792 C 0.66197 0.06572 0.53936 0.0
C1793 C 0.65734 0.08721 0.5279 0.0
C1794 C 0.66442 0.0445 0.52692 0.0
C1795 C 0.66263 0.04442 0.50273 0.0
C1796 C 0.65845 0.066 0.49119 0.0
C1797 C 0.65581 0.08722 0.50367 0.0
C1798 C 0.66361 0.02146 0.48981 0.0
C1799 C 0.648 0.01519 0.47568 0.0
C1800 C 0.67883 0.00489 0.49297 0.0
C1801 C 0.69636 0.01113 0.50633 0.0
C1802 C 0.70677 0.03207 0.50114 0.0
C1803 C 0.72319 0.03795 0.51386 0.0
C1804 C 0.72942 0.02296 0.53174 0.0
C1805 C 0.71927 0.00201 0.5369 0.0
C1806 C 0.70283 -0.00394 0.52424 0.0
C1807 C 0.65726 0.92539 0.42571 0.0
C1808 C 0.65548 0.90527 0.44024 0.0
C1809 C 0.65991 0.94822 0.4351 0.0
C1810 C 0.6609 0.9513 0.45914 0.0
C1811 C 0.65995 0.93116 0.47366 0.0
C1812 C 0.65715 0.9083 0.46429 0.0
C1813 C 0.66168 0.97564 0.46923 0.0
C1814 C 0.67754 0.98206 0.48282 0.0
C1815 C 0.64679 0.99245 0.46546 0.0
C1816 C 0.62941 0.98642 0.45179 0.0
C1817 C 0.61767 0.96701 0.45817 0.0
C1818 C 0.60144 0.96128 0.44504 0.0
C1819 C 0.59672 0.97496 0.42559 0.0
C1820 C 0.60819 0.99446 0.41927 0.0
C1821 C 0.62445 0.00024 0.43233 0.0
H1822 H 0.58415 0.9705 0.41544 0.0
H1823 H 0.74214 0.02754 0.54157 0.0
loop_
_geom_bond_atom_site_label_1
_geom_bond_atom_site_label_2
_geom_bond_distance
_geom_bond_site_symmetry_2
_ccdc_geom_bond_type
C0 O1 1.306 . S
C0 O3 1.160 . S
O1 C0 1.306 . S
O1 Cd2 2.228 . S
Cd2 O1 2.228 . S
Cd2 O6 2.273 . S
Cd2 O10 2.277 . S
O3 C0 1.160 . S
O3 Cd4 2.203 . S
Cd4 O3 2.203 . S
Cd4 O6 2.411 . S
Cd4 O7 2.333 . S
Cd4 O8 2.352 . S
Cd4 O12 2.277 . S
Cd4 O13 2.356 . S
C5 O10 1.209 . S
C5 O12 1.226 . S
O6 Cd2 2.273 . S
O6 Cd4 2.411 . S
O6 C9 1.320 . S
O7 Cd4 2.333 . S
O7 C9 1.214 . S
O8 Cd4 2.352 . S
O8 C11 1.258 . S
C9 O6 1.320 . S
C9 O7 1.214 . S
O10 Cd2 2.277 . S
O10 C5 1.209 . S
C11 O8 1.258 . S
C11 O13 1.282 . S
O12 Cd4 2.277 . S
O12 C5 1.226 . S
O13 Cd4 2.356 . S
O13 C11 1.282 . S
C14 O15 1.306 . S
C14 O17 1.160 . S
O15 C14 1.306 . S
O15 Cd16 2.228 . S
Cd16 O15 2.228 . S
Cd16 O20 2.273 . S
Cd16 O24 2.277 . S
O17 C14 1.160 . S
O17 Cd18 2.203 . S
Cd18 O17 2.203 . S
Cd18 O20 2.411 . S
Cd18 O21 2.333 . S
Cd18 O22 2.352 . S
Cd18 O26 2.277 . S
Cd18 O27 2.356 . S
C19 O24 1.209 . S
C19 O26 1.226 . S
O20 Cd16 2.273 . S
O20 Cd18 2.411 . S
O20 C23 1.320 . S
O21 Cd18 2.333 . S
O21 C23 1.214 . S
O22 Cd18 2.352 . S
O22 C25 1.258 . S
C23 O20 1.320 . S
C23 O21 1.214 . S
O24 Cd16 2.277 . S
O24 C19 1.209 . S
C25 O22 1.258 . S
C25 O27 1.282 . S
O26 Cd18 2.277 . S
O26 C19 1.226 . S
O27 Cd18 2.356 . S
O27 C25 1.282 . S
C28 O29 1.306 . S
C28 O31 1.160 . S
O29 C28 1.306 . S
O29 Cd30 2.228 . S
Cd30 O29 2.228 . S
Cd30 O34 2.273 . S
Cd30 O38 2.277 . S
O31 C28 1.160 . S
O31 Cd32 2.203 . S
Cd32 O31 2.203 . S
Cd32 O34 2.411 . S
Cd32 O35 2.333 . S
Cd32 O36 2.352 . S
Cd32 O40 2.277 . S
Cd32 O41 2.356 . S
C33 O38 1.209 . S
C33 O40 1.226 . S
O34 Cd30 2.273 . S
O34 Cd32 2.411 . S
O34 C37 1.320 . S
O35 Cd32 2.333 . S
O35 C37 1.214 . S
O36 Cd32 2.352 . S
O36 C39 1.258 . S
C37 O34 1.320 . S
C37 O35 1.214 . S
O38 Cd30 2.277 . S
O38 C33 1.209 . S
C39 O36 1.258 . S
C39 O41 1.282 . S
O40 Cd32 2.277 . S
O40 C33 1.226 . S
O41 Cd32 2.356 . S
O41 C39 1.282 . S
C42 O43 1.306 . S
C42 O45 1.160 . S
O43 C42 1.306 . S
O43 Cd44 2.228 . S
Cd44 O43 2.228 . S
Cd44 O48 2.273 . S
Cd44 O52 2.277 . S
O45 C42 1.160 . S
O45 Cd46 2.203 . S
Cd46 O45 2.203 . S
Cd46 O48 2.411 . S
Cd46 O49 2.333 . S
Cd46 O50 2.352 . S
Cd46 O54 2.277 . S
Cd46 O55 2.356 . S
C47 O52 1.209 . S
C47 O54 1.226 . S
O48 Cd44 2.273 . S
O48 Cd46 2.411 . S
O48 C51 1.320 . S
O49 Cd46 2.333 . S
O49 C51 1.214 . S
O50 Cd46 2.352 . S
O50 C53 1.258 . S
C51 O48 1.320 . S
C51 O49 1.214 . S
O52 Cd44 2.277 . S
O52 C47 1.209 . S
C53 O50 1.258 . S
C53 O55 1.282 . S
O54 Cd46 2.277 . S
O54 C47 1.226 . S
O55 Cd46 2.356 . S
O55 C53 1.282 . S
C56 O57 1.306 . S
C56 O59 1.160 . S
O57 C56 1.306 . S
O57 Cd58 2.228 . S
Cd58 O57 2.228 . S
Cd58 O62 2.273 . S
Cd58 O66 2.277 . S
O59 C56 1.160 . S
O59 Cd60 2.203 . S
Cd60 O59 2.203 . S
Cd60 O62 2.411 . S
Cd60 O63 2.333 . S
Cd60 O64 2.352 . S
Cd60 O68 2.277 . S
Cd60 O69 2.356 . S
C61 O66 1.209 . S
C61 O68 1.226 . S
O62 Cd58 2.273 . S
O62 Cd60 2.411 . S
O62 C65 1.320 . S
O63 Cd60 2.333 . S
O63 C65 1.214 . S
O64 Cd60 2.352 . S
O64 C67 1.258 . S
C65 O62 1.320 . S
C65 O63 1.214 . S
O66 Cd58 2.277 . S
O66 C61 1.209 . S
C67 O64 1.258 . S
C67 O69 1.282 . S
O68 Cd60 2.277 . S
O68 C61 1.226 . S
O69 Cd60 2.356 . S
O69 C67 1.282 . S
C70 O71 1.306 . S
C70 O73 1.160 . S
O71 C70 1.306 . S
O71 Cd72 2.228 . S
Cd72 O71 2.228 . S
Cd72 O76 2.273 . S
Cd72 O80 2.277 . S
O73 C70 1.160 . S
O73 Cd74 2.203 . S
Cd74 O73 2.203 . S
Cd74 O76 2.411 . S
Cd74 O77 2.333 . S
Cd74 O78 2.352 . S
Cd74 O82 2.277 . S
Cd74 O83 2.356 . S
C75 O80 1.209 . S
C75 O82 1.226 . S
O76 Cd72 2.273 . S
O76 Cd74 2.411 . S
O76 C79 1.320 . S
O77 Cd74 2.333 . S
O77 C79 1.214 . S
O78 Cd74 2.352 . S
O78 C81 1.258 . S
C79 O76 1.320 . S
C79 O77 1.214 . S
O80 Cd72 2.277 . S
O80 C75 1.209 . S
C81 O78 1.258 . S
C81 O83 1.282 . S
O82 Cd74 2.277 . S
O82 C75 1.226 . S
O83 Cd74 2.356 . S
O83 C81 1.282 . S
C84 O85 1.306 . S
C84 O87 1.160 . S
O85 C84 1.306 . S
O85 Cd86 2.228 . S
Cd86 O85 2.228 . S
Cd86 O90 2.273 . S
Cd86 O94 2.277 . S
O87 C84 1.160 . S
O87 Cd88 2.203 . S
Cd88 O87 2.203 . S
Cd88 O90 2.411 . S
Cd88 O91 2.333 . S
Cd88 O92 2.352 . S
Cd88 O96 2.277 . S
Cd88 O97 2.356 . S
C89 O94 1.209 . S
C89 O96 1.226 . S
O90 Cd86 2.273 . S
O90 Cd88 2.411 . S
O90 C93 1.320 . S
O91 Cd88 2.333 . S
O91 C93 1.214 . S
O92 Cd88 2.352 . S
O92 C95 1.258 . S
C93 O90 1.320 . S
C93 O91 1.214 . S
O94 Cd86 2.277 . S
O94 C89 1.209 . S
C95 O92 1.258 . S
C95 O97 1.282 . S
O96 Cd88 2.277 . S
O96 C89 1.226 . S
O97 Cd88 2.356 . S
O97 C95 1.282 . S
C98 O99 1.306 . S
C98 O101 1.160 . S
O99 C98 1.306 . S
O99 Cd100 2.228 . S
Cd100 O99 2.228 . S
Cd100 O104 2.273 . S
Cd100 O108 2.277 . S
O101 C98 1.160 . S
O101 Cd102 2.203 . S
Cd102 O101 2.203 . S
Cd102 O104 2.411 . S
Cd102 O105 2.333 . S
Cd102 O106 2.352 . S
Cd102 O110 2.277 . S
Cd102 O111 2.356 . S
C103 O108 1.209 . S
C103 O110 1.226 . S
O104 Cd100 2.273 . S
O104 Cd102 2.411 . S
O104 C107 1.320 . S
O105 Cd102 2.333 . S
O105 C107 1.214 . S
O106 Cd102 2.352 . S
O106 C109 1.258 . S
C107 O104 1.320 . S
C107 O105 1.214 . S
O108 Cd100 2.277 . S
O108 C103 1.209 . S
C109 O106 1.258 . S
C109 O111 1.282 . S
O110 Cd102 2.277 . S
O110 C103 1.226 . S
O111 Cd102 2.356 . S
O111 C109 1.282 . S
C112 O113 1.306 . S
C112 O115 1.160 . S
O113 C112 1.306 . S
O113 Cd114 2.228 . S
Cd114 O113 2.228 . S
Cd114 O118 2.273 . S
Cd114 O122 2.277 . S
O115 C112 1.160 . S
O115 Cd116 2.203 . S
Cd116 O115 2.203 . S
Cd116 O118 2.411 . S
Cd116 O119 2.333 . S
Cd116 O120 2.352 . S
Cd116 O124 2.277 . S
Cd116 O125 2.356 . S
C117 O122 1.209 . S
C117 O124 1.226 . S
O118 Cd114 2.273 . S
O118 Cd116 2.411 . S
O118 C121 1.320 . S
O119 Cd116 2.333 . S
O119 C121 1.214 . S
O120 Cd116 2.352 . S
O120 C123 1.258 . S
C121 O118 1.320 . S
C121 O119 1.214 . S
O122 Cd114 2.277 . S
O122 C117 1.209 . S
C123 O120 1.258 . S
C123 O125 1.282 . S
O124 Cd116 2.277 . S
O124 C117 1.226 . S
O125 Cd116 2.356 . S
O125 C123 1.282 . S
C126 O127 1.306 . S
C126 O129 1.160 . S
O127 C126 1.306 . S
O127 Cd128 2.228 . S
Cd128 O127 2.228 . S
Cd128 O132 2.273 . S
Cd128 O136 2.277 . S
O129 C126 1.160 . S
O129 Cd130 2.203 . S
Cd130 O129 2.203 . S
Cd130 O132 2.411 . S
Cd130 O133 2.333 . S
Cd130 O134 2.352 . S
Cd130 O138 2.277 . S
Cd130 O139 2.356 . S
C131 O136 1.209 . S
C131 O138 1.226 . S
O132 Cd128 2.273 . S
O132 Cd130 2.411 . S
O132 C135 1.320 . S
O133 Cd130 2.333 . S
O133 C135 1.214 . S
O134 Cd130 2.352 . S
O134 C137 1.258 . S
C135 O132 1.320 . S
C135 O133 1.214 . S
O136 Cd128 2.277 . S
O136 C131 1.209 . S
C137 O134 1.258 . S
C137 O139 1.282 . S
O138 Cd130 2.277 . S
O138 C131 1.226 . S
O139 Cd130 2.356 . S
O139 C137 1.282 . S
C140 O141 1.306 . S
C140 O143 1.160 . S
O141 C140 1.306 . S
O141 Cd142 2.228 . S
Cd142 O141 2.228 . S
Cd142 O146 2.273 . S
Cd142 O150 2.277 . S
O143 C140 1.160 . S
O143 Cd144 2.203 . S
Cd144 O143 2.203 . S
Cd144 O146 2.411 . S
Cd144 O147 2.333 . S
Cd144 O148 2.352 . S
Cd144 O152 2.277 . S
Cd144 O153 2.356 . S
C145 O150 1.209 . S
C145 O152 1.226 . S
O146 Cd142 2.273 . S
O146 Cd144 2.411 . S
O146 C149 1.320 . S
O147 Cd144 2.333 . S
O147 C149 1.214 . S
O148 Cd144 2.352 . S
O148 C151 1.258 . S
C149 O146 1.320 . S
C149 O147 1.214 . S
O150 Cd142 2.277 . S
O150 C145 1.209 . S
C151 O148 1.258 . S
C151 O153 1.282 . S
O152 Cd144 2.277 . S
O152 C145 1.226 . S
O153 Cd144 2.356 . S
O153 C151 1.282 . S
C154 O155 1.306 . S
C154 O157 1.160 . S
O155 C154 1.306 . S
O155 Cd156 2.228 . S
Cd156 O155 2.228 . S
Cd156 O160 2.273 . S
Cd156 O164 2.277 . S
O157 C154 1.160 . S
O157 Cd158 2.203 . S
Cd158 O157 2.203 . S
Cd158 O160 2.411 . S
Cd158 O161 2.333 . S
Cd158 O162 2.352 . S
Cd158 O166 2.277 . S
Cd158 O167 2.356 . S
C159 O164 1.209 . S
C159 O166 1.226 . S
O160 Cd156 2.273 . S
O160 Cd158 2.411 . S
O160 C163 1.320 . S
O161 Cd158 2.333 . S
O161 C163 1.214 . S
O162 Cd158 2.352 . S
O162 C165 1.258 . S
C163 O160 1.320 . S
C163 O161 1.214 . S
O164 Cd156 2.277 . S
O164 C159 1.209 . S
C165 O162 1.258 . S
C165 O167 1.282 . S
O166 Cd158 2.277 . S
O166 C159 1.226 . S
O167 Cd158 2.356 . S
O167 C165 1.282 . S
C168 O169 1.306 . S
C168 O171 1.160 . S
O169 C168 1.306 . S
O169 Cd170 2.228 . S
Cd170 O169 2.228 . S
Cd170 O174 2.273 . S
Cd170 O178 2.277 . S
O171 C168 1.160 . S
O171 Cd172 2.203 . S
Cd172 O171 2.203 . S
Cd172 O174 2.411 . S
Cd172 O175 2.333 . S
Cd172 O176 2.352 . S
Cd172 O180 2.277 . S
Cd172 O181 2.356 . S
C173 O178 1.209 . S
C173 O180 1.226 . S
O174 Cd170 2.273 . S
O174 Cd172 2.411 . S
O174 C177 1.320 . S
O175 Cd172 2.333 . S
O175 C177 1.214 . S
O176 Cd172 2.352 . S
O176 C179 1.258 . S
C177 O174 1.320 . S
C177 O175 1.214 . S
O178 Cd170 2.277 . S
O178 C173 1.209 . S
C179 O176 1.258 . S
C179 O181 1.282 . S
O180 Cd172 2.277 . S
O180 C173 1.226 . S
O181 Cd172 2.356 . S
O181 C179 1.282 . S
C182 O183 1.306 . S
C182 O185 1.160 . S
O183 C182 1.306 . S
O183 Cd184 2.228 . S
Cd184 O183 2.228 . S
Cd184 O188 2.273 . S
Cd184 O192 2.277 . S
O185 C182 1.160 . S
O185 Cd186 2.203 . S
Cd186 O185 2.203 . S
Cd186 O188 2.411 . S
Cd186 O189 2.333 . S
Cd186 O190 2.352 . S
Cd186 O194 2.277 . S
Cd186 O195 2.356 . S
C187 O192 1.209 . S
C187 O194 1.226 . S
O188 Cd184 2.273 . S
O188 Cd186 2.411 . S
O188 C191 1.320 . S
O189 Cd186 2.333 . S
O189 C191 1.214 . S
O190 Cd186 2.352 . S
O190 C193 1.258 . S
C191 O188 1.320 . S
C191 O189 1.214 . S
O192 Cd184 2.277 . S
O192 C187 1.209 . S
C193 O190 1.258 . S
C193 O195 1.282 . S
O194 Cd186 2.277 . S
O194 C187 1.226 . S
O195 Cd186 2.356 . S
O195 C193 1.282 . S
C196 O197 1.306 . S
C196 O199 1.160 . S
O197 C196 1.306 . S
O197 Cd198 2.228 . S
Cd198 O197 2.228 . S
Cd198 O202 2.273 . S
Cd198 O206 2.277 . S
O199 C196 1.160 . S
O199 Cd200 2.203 . S
Cd200 O199 2.203 . S
Cd200 O202 2.411 . S
Cd200 O203 2.333 . S
Cd200 O204 2.352 . S
Cd200 O208 2.277 . S
Cd200 O209 2.356 . S
C201 O206 1.209 . S
C201 O208 1.226 . S
O202 Cd198 2.273 . S
O202 Cd200 2.411 . S
O202 C205 1.320 . S
O203 Cd200 2.333 . S
O203 C205 1.214 . S
O204 Cd200 2.352 . S
O204 C207 1.258 . S
C205 O202 1.320 . S
C205 O203 1.214 . S
O206 Cd198 2.277 . S
O206 C201 1.209 . S
C207 O204 1.258 . S
C207 O209 1.282 . S
O208 Cd200 2.277 . S
O208 C201 1.226 . S
O209 Cd200 2.356 . S
O209 C207 1.282 . S
C210 O211 1.306 . S
C210 O213 1.160 . S
O211 C210 1.306 . S
O211 Cd212 2.228 . S
Cd212 O211 2.228 . S
Cd212 O216 2.273 . S
Cd212 O220 2.277 . S
O213 C210 1.160 . S
O213 Cd214 2.203 . S
Cd214 O213 2.203 . S
Cd214 O216 2.411 . S
Cd214 O217 2.333 . S
Cd214 O218 2.352 . S
Cd214 O222 2.277 . S
Cd214 O223 2.356 . S
C215 O220 1.209 . S
C215 O222 1.226 . S
O216 Cd212 2.273 . S
O216 Cd214 2.411 . S
O216 C219 1.320 . S
O217 Cd214 2.333 . S
O217 C219 1.214 . S
O218 Cd214 2.352 . S
O218 C221 1.258 . S
C219 O216 1.320 . S
C219 O217 1.214 . S
O220 Cd212 2.277 . S
O220 C215 1.209 . S
C221 O218 1.258 . S
C221 O223 1.282 . S
O222 Cd214 2.277 . S
O222 C215 1.226 . S
O223 Cd214 2.356 . S
O223 C221 1.282 . S
H224 C242 0.951 . S
H225 C244 0.951 . S
H226 C246 0.950 . S
H227 C247 0.950 . S
H228 C249 0.950 . S
H229 C252 0.950 . S
H230 C253 0.950 . S
H231 C255 0.950 . S
H232 C256 0.950 . S
H233 C257 0.951 . S
H234 C259 0.951 . S
H235 C261 0.950 . S
H236 C262 0.950 . S
H237 C264 0.950 . S
H238 C267 0.950 . S
H239 C268 0.950 . S
H240 C270 0.950 . S
H241 C271 0.950 . S
C242 H224 0.951 . S
C242 C243 1.366 . S
C242 C244 1.388 . S
C243 C242 1.366 . S
C243 C247 1.385 . S
C244 H225 0.951 . S
C244 C242 1.388 . S
C244 C245 1.366 . S
C245 C244 1.366 . S
C245 C246 1.414 . S
C245 C248 1.499 . S
C246 H226 0.950 . S
C246 C245 1.414 . S
C246 C247 1.374 . S
C247 H227 0.950 . S
C247 C243 1.385 . S
C247 C246 1.374 . S
C248 C245 1.499 . S
C248 C249 1.373 . S
C248 C250 1.389 . S
C249 H228 0.950 . S
C249 C248 1.373 . S
C249 C265 1.377 1_455 S
C250 C248 1.389 . S
C250 C251 1.524 . S
C250 C264 1.377 1_455 S
C251 C250 1.524 . S
C251 C252 1.397 . S
C251 C256 1.363 . S
C252 H229 0.950 . S
C252 C251 1.397 . S
C252 C253 1.334 . S
C253 H230 0.950 . S
C253 C252 1.334 . S
C253 C254 1.287 . S
C254 C253 1.287 . S
C254 C255 1.524 . S
C254 H273 0.913 . S
C255 H231 0.950 . S
C255 C254 1.524 . S
C255 C256 1.415 . S
C256 H232 0.950 . S
C256 C251 1.363 . S
C256 C255 1.415 . S
C257 H233 0.951 . S
C257 C258 1.366 . S
C257 C259 1.388 . S
C258 C257 1.366 . S
C258 C262 1.385 . S
C259 H234 0.951 . S
C259 C257 1.388 . S
C259 C260 1.366 . S
C260 C259 1.366 . S
C260 C261 1.414 . S
C260 C263 1.499 . S
C261 H235 0.950 . S
C261 C260 1.414 . S
C261 C262 1.374 . S
C262 H236 0.950 . S
C262 C258 1.385 . S
C262 C261 1.374 . S
C263 C260 1.499 . S
C263 C264 1.373 . S
C263 C265 1.389 . S
C264 H237 0.950 . S
C264 C250 1.377 1_655 S
C264 C263 1.373 . S
C265 C249 1.377 1_655 S
C265 C263 1.389 . S
C265 C266 1.524 . S
C266 C265 1.524 . S
C266 C267 1.397 . S
C266 C271 1.363 . S
C267 H238 0.950 . S
C267 C266 1.397 . S
C267 C268 1.334 . S
C268 H239 0.950 . S
C268 C267 1.334 . S
C268 C269 1.287 . S
C269 C268 1.287 . S
C269 C270 1.524 . S
C269 H272 0.999 . S
C270 H240 0.950 . S
C270 C269 1.524 . S
C270 C271 1.415 . S
C271 H241 0.950 . S
C271 C266 1.363 . S
C271 C270 1.415 . S
H272 C269 0.999 . S
H273 C254 0.913 . S
H274 C292 0.951 . S
H275 C294 0.951 . S
H276 C296 0.950 . S
H277 C297 0.950 . S
H278 C299 0.950 . S
H279 C302 0.950 . S
H280 C303 0.950 . S
H281 C305 0.950 . S
H282 C306 0.950 . S
H283 C307 0.951 . S
H284 C309 0.951 . S
H285 C311 0.950 . S
H286 C312 0.950 . S
H287 C314 0.950 . S
H288 C317 0.950 . S
H289 C318 0.950 . S
H290 C320 0.950 . S
H291 C321 0.950 . S
C292 H274 0.951 . S
C292 C293 1.366 . S
C292 C294 1.388 . S
C293 C292 1.366 . S
C293 C297 1.385 . S
C294 H275 0.951 . S
C294 C292 1.388 . S
C294 C295 1.366 . S
C295 C294 1.366 . S
C295 C296 1.414 . S
C295 C298 1.499 . S
C296 H276 0.950 . S
C296 C295 1.414 . S
C296 C297 1.374 . S
C297 H277 0.950 . S
C297 C293 1.385 . S
C297 C296 1.374 . S
C298 C295 1.499 . S
C298 C299 1.373 . S
C298 C300 1.389 . S
C299 H278 0.950 . S
C299 C298 1.373 . S
C299 C315 1.377 1_655 S
C300 C298 1.389 . S
C300 C301 1.524 . S
C300 C314 1.377 1_655 S
C301 C300 1.524 . S
C301 C302 1.397 . S
C301 C306 1.363 . S
C302 H279 0.950 . S
C302 C301 1.397 . S
C302 C303 1.334 . S
C303 H280 0.950 . S
C303 C302 1.334 . S
C303 C304 1.287 . S
C304 C303 1.287 . S
C304 C305 1.524 . S
C304 H323 0.913 . S
C305 H281 0.950 . S
C305 C304 1.524 . S
C305 C306 1.415 . S
C306 H282 0.950 . S
C306 C301 1.363 . S
C306 C305 1.415 . S
C307 H283 0.951 . S
C307 C308 1.366 . S
C307 C309 1.388 . S
C308 C307 1.366 . S
C308 C312 1.385 . S
C309 H284 0.951 . S
C309 C307 1.388 . S
C309 C310 1.366 . S
C310 C309 1.366 . S
C310 C311 1.414 . S
C310 C313 1.499 . S
C311 H285 0.950 . S
C311 C310 1.414 . S
C311 C312 1.374 . S
C312 H286 0.950 . S
C312 C308 1.385 . S
C312 C311 1.374 . S
C313 C310 1.499 . S
C313 C314 1.373 . S
C313 C315 1.389 . S
C314 H287 0.950 . S
C314 C300 1.377 1_455 S
C314 C313 1.373 . S
C315 C299 1.377 1_455 S
C315 C313 1.389 . S
C315 C316 1.524 . S
C316 C315 1.524 . S
C316 C317 1.397 . S
C316 C321 1.363 . S
C317 H288 0.950 . S
C317 C316 1.397 . S
C317 C318 1.334 . S
C318 H289 0.950 . S
C318 C317 1.334 . S
C318 C319 1.287 . S
C319 C318 1.287 . S
C319 C320 1.524 . S
C319 H322 0.999 . S
C320 H290 0.950 . S
C320 C319 1.524 . S
C320 C321 1.415 . S
C321 H291 0.950 . S
C321 C316 1.363 . S
C321 C320 1.415 . S
H322 C319 0.999 . S
H323 C304 0.913 . S
H324 C342 0.951 . S
H325 C344 0.951 . S
H326 C346 0.950 . S
H327 C347 0.950 . S
H328 C349 0.950 . S
H329 C352 0.950 . S
H330 C353 0.950 . S
H331 C355 0.950 . S
H332 C356 0.950 . S
H333 C357 0.951 . S
H334 C359 0.951 . S
H335 C361 0.950 . S
H336 C362 0.950 . S
H337 C364 0.950 . S
H338 C367 0.950 . S
H339 C368 0.950 . S
H340 C370 0.950 . S
H341 C371 0.950 . S
C342 H324 0.951 . S
C342 C343 1.366 . S
C342 C344 1.388 . S
C343 C342 1.366 . S
C343 C347 1.385 . S
C344 H325 0.951 . S
C344 C342 1.388 . S
C344 C345 1.366 . S
C345 C344 1.366 . S
C345 C346 1.414 . S
C345 C348 1.499 . S
C346 H326 0.950 . S
C346 C345 1.414 . S
C346 C347 1.374 . S
C347 H327 0.950 . S
C347 C343 1.385 . S
C347 C346 1.374 . S
C348 C345 1.499 . S
C348 C349 1.373 . S
C348 C350 1.389 . S
C349 H328 0.950 . S
C349 C348 1.373 . S
C349 C365 1.377 1_655 S
C350 C348 1.389 . S
C350 C351 1.524 . S
C350 C364 1.377 1_655 S
C351 C350 1.524 . S
C351 C352 1.397 . S
C351 C356 1.363 . S
C352 H329 0.950 . S
C352 C351 1.397 . S
C352 C353 1.334 . S
C353 H330 0.950 . S
C353 C352 1.334 . S
C353 C354 1.287 . S
C354 C353 1.287 . S
C354 C355 1.524 . S
C354 H373 0.913 . S
C355 H331 0.950 . S
C355 C354 1.524 . S
C355 C356 1.415 . S
C356 H332 0.950 . S
C356 C351 1.363 . S
C356 C355 1.415 . S
C357 H333 0.951 . S
C357 C358 1.366 . S
C357 C359 1.388 . S
C358 C357 1.366 . S
C358 C362 1.385 . S
C359 H334 0.951 . S
C359 C357 1.388 . S
C359 C360 1.366 . S
C360 C359 1.366 . S
C360 C361 1.414 . S
C360 C363 1.499 . S
C361 H335 0.950 . S
C361 C360 1.414 . S
C361 C362 1.374 . S
C362 H336 0.950 . S
C362 C358 1.385 . S
C362 C361 1.374 . S
C363 C360 1.499 . S
C363 C364 1.373 . S
C363 C365 1.389 . S
C364 H337 0.950 . S
C364 C350 1.377 1_455 S
C364 C363 1.373 . S
C365 C349 1.377 1_455 S
C365 C363 1.389 . S
C365 C366 1.524 . S
C366 C365 1.524 . S
C366 C367 1.397 . S
C366 C371 1.363 . S
C367 H338 0.950 . S
C367 C366 1.397 . S
C367 C368 1.334 . S
C368 H339 0.950 . S
C368 C367 1.334 . S
C368 C369 1.287 . S
C369 C368 1.287 . S
C369 C370 1.524 . S
C369 H372 0.999 . S
C370 H340 0.950 . S
C370 C369 1.524 . S
C370 C371 1.415 . S
C371 H341 0.950 . S
C371 C366 1.363 . S
C371 C370 1.415 . S
H372 C369 0.999 . S
H373 C354 0.913 . S
H374 C392 0.951 . S
H375 C394 0.951 . S
H376 C396 0.950 . S
H377 C397 0.950 . S
H378 C399 0.950 . S
H379 C402 0.950 . S
H380 C403 0.950 . S
H381 C405 0.950 . S
H382 C406 0.950 . S
H383 C407 0.951 . S
H384 C409 0.951 . S
H385 C411 0.950 . S
H386 C412 0.950 . S
H387 C414 0.950 . S
H388 C417 0.950 . S
H389 C418 0.950 . S
H390 C420 0.950 . S
H391 C421 0.950 . S
C392 H374 0.951 . S
C392 C393 1.366 . S
C392 C394 1.388 . S
C393 C392 1.366 . S
C393 C397 1.385 . S
C394 H375 0.951 . S
C394 C392 1.388 . S
C394 C395 1.366 . S
C395 C394 1.366 . S
C395 C396 1.414 . S
C395 C398 1.499 . S
C396 H376 0.950 . S
C396 C395 1.414 . S
C396 C397 1.374 . S
C397 H377 0.950 . S
C397 C393 1.385 . S
C397 C396 1.374 . S
C398 C395 1.499 . S
C398 C399 1.373 . S
C398 C400 1.389 . S
C399 H378 0.950 . S
C399 C398 1.373 . S
C399 C415 1.377 1_455 S
C400 C398 1.389 . S
C400 C401 1.524 . S
C400 C414 1.377 1_455 S
C401 C400 1.524 . S
C401 C402 1.397 . S
C401 C406 1.363 . S
C402 H379 0.950 . S
C402 C401 1.397 . S
C402 C403 1.334 . S
C403 H380 0.950 . S
C403 C402 1.334 . S
C403 C404 1.287 . S
C404 C403 1.287 . S
C404 C405 1.524 . S
C404 H423 0.913 . S
C405 H381 0.950 . S
C405 C404 1.524 . S
C405 C406 1.415 . S
C406 H382 0.950 . S
C406 C401 1.363 . S
C406 C405 1.415 . S
C407 H383 0.951 . S
C407 C408 1.366 . S
C407 C409 1.388 . S
C408 C407 1.366 . S
C408 C412 1.385 . S
C409 H384 0.951 . S
C409 C407 1.388 . S
C409 C410 1.366 . S
C410 C409 1.366 . S
C410 C411 1.414 . S
C410 C413 1.499 . S
C411 H385 0.950 . S
C411 C410 1.414 . S
C411 C412 1.374 . S
C412 H386 0.950 . S
C412 C408 1.385 . S
C412 C411 1.374 . S
C413 C410 1.499 . S
C413 C414 1.373 . S
C413 C415 1.389 . S
C414 H387 0.950 . S
C414 C400 1.377 1_655 S
C414 C413 1.373 . S
C415 C399 1.377 1_655 S
C415 C413 1.389 . S
C415 C416 1.524 . S
C416 C415 1.524 . S
C416 C417 1.397 . S
C416 C421 1.363 . S
C417 H388 0.950 . S
C417 C416 1.397 . S
C417 C418 1.334 . S
C418 H389 0.950 . S
C418 C417 1.334 . S
C418 C419 1.287 . S
C419 C418 1.287 . S
C419 C420 1.524 . S
C419 H422 0.999 . S
C420 H390 0.950 . S
C420 C419 1.524 . S
C420 C421 1.415 . S
C421 H391 0.950 . S
C421 C416 1.363 . S
C421 C420 1.415 . S
H422 C419 0.999 . S
H423 C404 0.913 . S
H424 C442 0.951 . S
H425 C444 0.951 . S
H426 C446 0.950 . S
H427 C447 0.950 . S
H428 C449 0.950 . S
H429 C452 0.950 . S
H430 C453 0.950 . S
H431 C455 0.950 . S
H432 C456 0.950 . S
H433 C457 0.951 . S
H434 C459 0.951 . S
H435 C461 0.950 . S
H436 C462 0.950 . S
H437 C464 0.950 . S
H438 C467 0.950 . S
H439 C468 0.950 . S
H440 C470 0.950 . S
H441 C471 0.950 . S
C442 H424 0.951 . S
C442 C443 1.366 . S
C442 C444 1.388 . S
C443 C442 1.366 . S
C443 C447 1.385 . S
C444 H425 0.951 . S
C444 C442 1.388 . S
C444 C445 1.366 . S
C445 C444 1.366 . S
C445 C446 1.414 . S
C445 C448 1.499 . S
C446 H426 0.950 . S
C446 C445 1.414 . S
C446 C447 1.374 . S
C447 H427 0.950 . S
C447 C443 1.385 . S
C447 C446 1.374 . S
C448 C445 1.499 . S
C448 C449 1.373 . S
C448 C450 1.389 . S
C449 H428 0.950 . S
C449 C448 1.373 . S
C449 C465 1.377 . S
C450 C448 1.389 . S
C450 C451 1.524 . S
C450 C464 1.377 . S
C451 C450 1.524 . S
C451 C452 1.397 . S
C451 C456 1.363 . S
C452 H429 0.950 . S
C452 C451 1.397 . S
C452 C453 1.334 . S
C453 H430 0.950 . S
C453 C452 1.334 . S
C453 C454 1.287 1_554 S
C454 C453 1.287 1_556 S
C454 C455 1.524 . S
C454 H473 0.913 . S
C455 H431 0.950 . S
C455 C454 1.524 . S
C455 C456 1.415 1_556 S
C456 H432 0.950 . S
C456 C451 1.363 . S
C456 C455 1.415 1_554 S
C457 H433 0.951 . S
C457 C458 1.366 . S
C457 C459 1.388 . S
C458 C457 1.366 . S
C458 C462 1.385 . S
C459 H434 0.951 . S
C459 C457 1.388 . S
C459 C460 1.366 . S
C460 C459 1.366 . S
C460 C461 1.414 . S
C460 C463 1.499 . S
C461 H435 0.950 . S
C461 C460 1.414 . S
C461 C462 1.374 . S
C462 H436 0.950 . S
C462 C458 1.385 . S
C462 C461 1.374 . S
C463 C460 1.499 . S
C463 C464 1.373 . S
C463 C465 1.389 . S
C464 H437 0.950 . S
C464 C450 1.377 . S
C464 C463 1.373 . S
C465 C449 1.377 . S
C465 C463 1.389 . S
C465 C466 1.524 . S
C466 C465 1.524 . S
C466 C467 1.397 . S
C466 C471 1.363 . S
C467 H438 0.950 . S
C467 C466 1.397 . S
C467 C468 1.334 . S
C468 H439 0.950 . S
C468 C467 1.334 . S
C468 C469 1.287 . S
C469 C468 1.287 . S
C469 C470 1.524 . S
C469 H472 0.999 . S
C470 H440 0.950 . S
C470 C469 1.524 . S
C470 C471 1.415 . S
C471 H441 0.950 . S
C471 C466 1.363 . S
C471 C470 1.415 . S
H472 C469 0.999 . S
H473 C454 0.913 . S
H474 C492 0.951 . S
H475 C494 0.951 . S
H476 C496 0.950 . S
H477 C497 0.950 . S
H478 C499 0.950 . S
H479 C502 0.950 . S
H480 C503 0.950 . S
H481 C505 0.950 . S
H482 C506 0.950 . S
H483 C507 0.951 . S
H484 C509 0.951 . S
H485 C511 0.950 . S
H486 C512 0.950 . S
H487 C514 0.950 . S
H488 C517 0.950 . S
H489 C518 0.950 . S
H490 C520 0.950 . S
H491 C521 0.950 . S
C492 H474 0.951 . S
C492 C493 1.366 . S
C492 C494 1.388 . S
C493 C492 1.366 . S
C493 C497 1.385 . S
C494 H475 0.951 . S
C494 C492 1.388 . S
C494 C495 1.366 . S
C495 C494 1.366 . S
C495 C496 1.414 . S
C495 C498 1.499 . S
C496 H476 0.950 . S
C496 C495 1.414 . S
C496 C497 1.374 . S
C497 H477 0.950 . S
C497 C493 1.385 . S
C497 C496 1.374 . S
C498 C495 1.499 . S
C498 C499 1.373 . S
C498 C500 1.389 . S
C499 H478 0.950 . S
C499 C498 1.373 . S
C499 C515 1.377 . S
C500 C498 1.389 . S
C500 C501 1.524 . S
C500 C514 1.377 . S
C501 C500 1.524 . S
C501 C502 1.397 . S
C501 C506 1.363 . S
C502 H479 0.950 . S
C502 C501 1.397 . S
C502 C503 1.334 . S
C503 H480 0.950 . S
C503 C502 1.334 . S
C503 C504 1.287 . S
C504 C503 1.287 . S
C504 C505 1.524 . S
C504 H523 0.913 . S
C505 H481 0.950 . S
C505 C504 1.524 . S
C505 C506 1.415 . S
C506 H482 0.950 . S
C506 C501 1.363 . S
C506 C505 1.415 . S
C507 H483 0.951 . S
C507 C508 1.366 . S
C507 C509 1.388 . S
C508 C507 1.366 . S
C508 C512 1.385 . S
C509 H484 0.951 . S
C509 C507 1.388 . S
C509 C510 1.366 . S
C510 C509 1.366 . S
C510 C511 1.414 . S
C510 C513 1.499 . S
C511 H485 0.950 . S
C511 C510 1.414 . S
C511 C512 1.374 . S
C512 H486 0.950 . S
C512 C508 1.385 . S
C512 C511 1.374 . S
C513 C510 1.499 . S
C513 C514 1.373 . S
C513 C515 1.389 . S
C514 H487 0.950 . S
C514 C500 1.377 . S
C514 C513 1.373 . S
C515 C499 1.377 . S
C515 C513 1.389 . S
C515 C516 1.524 . S
C516 C515 1.524 . S
C516 C517 1.397 . S
C516 C521 1.363 . S
C517 H488 0.950 . S
C517 C516 1.397 . S
C517 C518 1.334 . S
C518 H489 0.950 . S
C518 C517 1.334 . S
C518 C519 1.287 . S
C519 C518 1.287 . S
C519 C520 1.524 . S
C519 H522 0.999 . S
C520 H490 0.950 . S
C520 C519 1.524 . S
C520 C521 1.415 . S
C521 H491 0.950 . S
C521 C516 1.363 . S
C521 C520 1.415 . S
H522 C519 0.999 . S
H523 C504 0.913 . S
H524 C542 0.951 . S
H525 C544 0.951 . S
H526 C546 0.950 . S
H527 C547 0.950 . S
H528 C549 0.950 . S
H529 C552 0.950 . S
H530 C553 0.950 1_554 S
H531 C555 0.950 . S
H532 C556 0.950 . S
H533 C557 0.951 . S
H534 C559 0.951 . S
H535 C561 0.950 . S
H536 C562 0.950 . S
H537 C564 0.950 . S
H538 C567 0.950 . S
H539 C568 0.950 . S
H540 C570 0.950 . S
H541 C571 0.950 . S
C542 H524 0.951 . S
C542 C543 1.366 . S
C542 C544 1.388 . S
C543 C542 1.366 . S
C543 C547 1.385 . S
C544 H525 0.951 . S
C544 C542 1.388 . S
C544 C545 1.366 . S
C545 C544 1.366 . S
C545 C546 1.414 . S
C545 C548 1.499 . S
C546 H526 0.950 . S
C546 C545 1.414 . S
C546 C547 1.374 . S
C547 H527 0.950 . S
C547 C543 1.385 . S
C547 C546 1.374 . S
C548 C545 1.499 . S
C548 C549 1.373 . S
C548 C550 1.389 . S
C549 H528 0.950 . S
C549 C548 1.373 . S
C549 C565 1.377 . S
C550 C548 1.389 . S
C550 C551 1.524 . S
C550 C564 1.377 . S
C551 C550 1.524 . S
C551 C552 1.397 . S
C551 C556 1.363 . S
C552 H529 0.950 . S
C552 C551 1.397 . S
C552 C553 1.334 . S
C553 H530 0.950 1_556 S
C553 C552 1.334 . S
C553 C554 1.287 1_556 S
C554 C553 1.287 1_554 S
C554 C555 1.524 . S
C554 H573 0.913 . S
C555 H531 0.950 . S
C555 C554 1.524 . S
C555 C556 1.415 1_554 S
C556 H532 0.950 . S
C556 C551 1.363 . S
C556 C555 1.415 1_556 S
C557 H533 0.951 . S
C557 C558 1.366 . S
C557 C559 1.388 . S
C558 C557 1.366 . S
C558 C562 1.385 . S
C559 H534 0.951 . S
C559 C557 1.388 . S
C559 C560 1.366 . S
C560 C559 1.366 . S
C560 C561 1.414 . S
C560 C563 1.499 . S
C561 H535 0.950 . S
C561 C560 1.414 . S
C561 C562 1.374 . S
C562 H536 0.950 . S
C562 C558 1.385 . S
C562 C561 1.374 . S
C563 C560 1.499 . S
C563 C564 1.373 . S
C563 C565 1.389 . S
C564 H537 0.950 . S
C564 C550 1.377 . S
C564 C563 1.373 . S
C565 C549 1.377 . S
C565 C563 1.389 . S
C565 C566 1.524 . S
C566 C565 1.524 . S
C566 C567 1.397 . S
C566 C571 1.363 . S
C567 H538 0.950 . S
C567 C566 1.397 . S
C567 C568 1.334 . S
C568 H539 0.950 . S
C568 C567 1.334 . S
C568 C569 1.287 . S
C569 C568 1.287 . S
C569 C570 1.524 . S
C569 H572 0.999 . S
C570 H540 0.950 . S
C570 C569 1.524 . S
C570 C571 1.415 . S
C571 H541 0.950 . S
C571 C566 1.363 . S
C571 C570 1.415 . S
H572 C569 0.999 . S
H573 C554 0.913 . S
H574 C592 0.951 . S
H575 C594 0.951 . S
H576 C596 0.950 . S
H577 C597 0.950 . S
H578 C599 0.950 . S
H579 C602 0.950 . S
H580 C603 0.950 . S
H581 C605 0.950 . S
H582 C606 0.950 . S
H583 C607 0.951 . S
H584 C609 0.951 . S
H585 C611 0.950 . S
H586 C612 0.950 . S
H587 C614 0.950 . S
H588 C617 0.950 . S
H589 C618 0.950 . S
H590 C620 0.950 . S
H591 C621 0.950 . S
C592 H574 0.951 . S
C592 C593 1.366 . S
C592 C594 1.388 . S
C593 C592 1.366 . S
C593 C597 1.385 . S
C594 H575 0.951 . S
C594 C592 1.388 . S
C594 C595 1.366 . S
C595 C594 1.366 . S
C595 C596 1.414 . S
C595 C598 1.499 . S
C596 H576 0.950 . S
C596 C595 1.414 . S
C596 C597 1.374 . S
C597 H577 0.950 . S
C597 C593 1.385 . S
C597 C596 1.374 . S
C598 C595 1.499 . S
C598 C599 1.373 . S
C598 C600 1.389 . S
C599 H578 0.950 . S
C599 C598 1.373 . S
C599 C615 1.377 . S
C600 C598 1.389 . S
C600 C601 1.524 . S
C600 C614 1.377 . S
C601 C600 1.524 . S
C601 C602 1.397 . S
C601 C606 1.363 . S
C602 H579 0.950 . S
C602 C601 1.397 . S
C602 C603 1.334 . S
C603 H580 0.950 . S
C603 C602 1.334 . S
C603 C604 1.287 . S
C604 C603 1.287 . S
C604 C605 1.524 . S
C604 H623 0.913 . S
C605 H581 0.950 . S
C605 C604 1.524 . S
C605 C606 1.415 . S
C606 H582 0.950 . S
C606 C601 1.363 . S
C606 C605 1.415 . S
C607 H583 0.951 . S
C607 C608 1.366 . S
C607 C609 1.388 . S
C608 C607 1.366 . S
C608 C612 1.385 . S
C609 H584 0.951 . S
C609 C607 1.388 . S
C609 C610 1.366 . S
C610 C609 1.366 . S
C610 C611 1.414 . S
C610 C613 1.499 . S
C611 H585 0.950 . S
C611 C610 1.414 . S
C611 C612 1.374 . S
C612 H586 0.950 . S
C612 C608 1.385 . S
C612 C611 1.374 . S
C613 C610 1.499 . S
C613 C614 1.373 . S
C613 C615 1.389 . S
C614 H587 0.950 . S
C614 C600 1.377 . S
C614 C613 1.373 . S
C615 C599 1.377 . S
C615 C613 1.389 . S
C615 C616 1.524 . S
C616 C615 1.524 . S
C616 C617 1.397 . S
C616 C621 1.363 . S
C617 H588 0.950 . S
C617 C616 1.397 . S
C617 C618 1.334 . S
C618 H589 0.950 . S
C618 C617 1.334 . S
C618 C619 1.287 . S
C619 C618 1.287 . S
C619 C620 1.524 . S
C619 H622 0.999 . S
C620 H590 0.950 . S
C620 C619 1.524 . S
C620 C621 1.415 . S
C621 H591 0.950 . S
C621 C616 1.363 . S
C621 C620 1.415 . S
H622 C619 0.999 . S
H623 C604 0.913 . S
H624 C642 0.951 . S
H625 C644 0.951 . S
H626 C646 0.950 . S
H627 C647 0.950 . S
H628 C649 0.950 . S
H629 C652 0.950 . S
H630 C653 0.950 . S
H631 C655 0.950 . S
H632 C656 0.950 . S
H633 C657 0.951 . S
H634 C659 0.951 . S
H635 C661 0.950 . S
H636 C662 0.950 . S
H637 C664 0.950 . S
H638 C667 0.950 . S
H639 C668 0.950 . S
H640 C670 0.950 . S
H641 C671 0.950 . S
C642 H624 0.951 . S
C642 C643 1.366 . S
C642 C644 1.388 . S
C643 C642 1.366 . S
C643 C647 1.385 . S
C644 H625 0.951 . S
C644 C642 1.388 . S
C644 C645 1.366 . S
C645 C644 1.366 . S
C645 C646 1.414 . S
C645 C648 1.499 . S
C646 H626 0.950 . S
C646 C645 1.414 . S
C646 C647 1.374 . S
C647 H627 0.950 . S
C647 C643 1.385 . S
C647 C646 1.374 . S
C648 C645 1.499 . S
C648 C649 1.373 . S
C648 C650 1.389 . S
C649 H628 0.950 . S
C649 C648 1.373 . S
C649 C665 1.377 . S
C650 C648 1.389 . S
C650 C651 1.524 . S
C650 C664 1.377 . S
C651 C650 1.524 . S
C651 C652 1.397 . S
C651 C656 1.363 . S
C652 H629 0.950 . S
C652 C651 1.397 . S
C652 C653 1.334 . S
C653 H630 0.950 . S
C653 C652 1.334 . S
C653 C654 1.287 . S
C654 C653 1.287 . S
C654 C655 1.524 . S
C654 H673 0.913 . S
C655 H631 0.950 . S
C655 C654 1.524 . S
C655 C656 1.415 . S
C656 H632 0.950 . S
C656 C651 1.363 . S
C656 C655 1.415 . S
C657 H633 0.951 . S
C657 C658 1.366 . S
C657 C659 1.388 . S
C658 C657 1.366 . S
C658 C662 1.385 . S
C659 H634 0.951 . S
C659 C657 1.388 . S
C659 C660 1.366 . S
C660 C659 1.366 . S
C660 C661 1.414 . S
C660 C663 1.499 . S
C661 H635 0.950 . S
C661 C660 1.414 . S
C661 C662 1.374 . S
C662 H636 0.950 . S
C662 C658 1.385 . S
C662 C661 1.374 . S
C663 C660 1.499 . S
C663 C664 1.373 . S
C663 C665 1.389 . S
C664 H637 0.950 . S
C664 C650 1.377 . S
C664 C663 1.373 . S
C665 C649 1.377 . S
C665 C663 1.389 . S
C665 C666 1.524 . S
C666 C665 1.524 . S
C666 C667 1.397 . S
C666 C671 1.363 . S
C667 H638 0.950 . S
C667 C666 1.397 . S
C667 C668 1.334 . S
C668 H639 0.950 . S
C668 C667 1.334 . S
C668 C669 1.287 . S
C669 C668 1.287 . S
C669 C670 1.524 . S
C669 H672 0.999 . S
C670 H640 0.950 . S
C670 C669 1.524 . S
C670 C671 1.415 . S
C671 H641 0.950 . S
C671 C666 1.363 . S
C671 C670 1.415 . S
H672 C669 0.999 . S
H673 C654 0.913 . S
H674 C692 0.951 . S
H675 C694 0.951 . S
H676 C696 0.950 . S
H677 C697 0.950 . S
H678 C699 0.950 . S
H679 C702 0.950 . S
H680 C703 0.950 . S
H681 C705 0.950 . S
H682 C706 0.950 . S
H683 C707 0.951 . S
H684 C709 0.951 . S
H685 C711 0.950 . S
H686 C712 0.950 . S
H687 C714 0.950 . S
H688 C717 0.950 . S
H689 C718 0.950 . S
H690 C720 0.950 . S
H691 C721 0.950 . S
C692 H674 0.951 . S
C692 C693 1.366 . S
C692 C694 1.388 . S
C693 C692 1.366 . S
C693 C697 1.385 . S
C694 H675 0.951 . S
C694 C692 1.388 . S
C694 C695 1.366 . S
C695 C694 1.366 . S
C695 C696 1.414 . S
C695 C698 1.499 . S
C696 H676 0.950 . S
C696 C695 1.414 . S
C696 C697 1.374 . S
C697 H677 0.950 . S
C697 C693 1.385 . S
C697 C696 1.374 . S
C698 C695 1.499 . S
C698 C699 1.373 . S
C698 C700 1.389 . S
C699 H678 0.950 . S
C699 C698 1.373 . S
C699 C715 1.377 . S
C700 C698 1.389 . S
C700 C701 1.524 . S
C700 C714 1.377 . S
C701 C700 1.524 . S
C701 C702 1.397 . S
C701 C706 1.363 . S
C702 H679 0.950 . S
C702 C701 1.397 . S
C702 C703 1.334 . S
C703 H680 0.950 . S
C703 C702 1.334 . S
C703 C704 1.287 . S
C704 C703 1.287 . S
C704 C705 1.524 . S
C704 H723 0.913 . S
C705 H681 0.950 . S
C705 C704 1.524 . S
C705 C706 1.415 . S
C706 H682 0.950 . S
C706 C701 1.363 . S
C706 C705 1.415 . S
C707 H683 0.951 . S
C707 C708 1.366 . S
C707 C709 1.388 . S
C708 C707 1.366 . S
C708 C712 1.385 . S
C709 H684 0.951 . S
C709 C707 1.388 . S
C709 C710 1.366 . S
C710 C709 1.366 . S
C710 C711 1.414 . S
C710 C713 1.499 . S
C711 H685 0.950 . S
C711 C710 1.414 . S
C711 C712 1.374 . S
C712 H686 0.950 . S
C712 C708 1.385 . S
C712 C711 1.374 . S
C713 C710 1.499 . S
C713 C714 1.373 . S
C713 C715 1.389 . S
C714 H687 0.950 . S
C714 C700 1.377 . S
C714 C713 1.373 . S
C715 C699 1.377 . S
C715 C713 1.389 . S
C715 C716 1.524 . S
C716 C715 1.524 . S
C716 C717 1.397 . S
C716 C721 1.363 . S
C717 H688 0.950 . S
C717 C716 1.397 . S
C717 C718 1.334 . S
C718 H689 0.950 . S
C718 C717 1.334 . S
C718 C719 1.287 . S
C719 C718 1.287 . S
C719 C720 1.524 . S
C719 H722 0.999 . S
C720 H690 0.950 . S
C720 C719 1.524 . S
C720 C721 1.415 . S
C721 H691 0.950 . S
C721 C716 1.363 . S
C721 C720 1.415 . S
H722 C719 0.999 . S
H723 C704 0.913 . S
H724 C742 0.951 . S
H725 C744 0.951 . S
H726 C746 0.950 . S
H727 C747 0.950 . S
H728 C749 0.950 . S
H729 C752 0.950 . S
H730 C753 0.950 . S
H731 C755 0.950 . S
H732 C756 0.950 . S
H733 C757 0.951 . S
H734 C759 0.951 . S
H735 C761 0.950 . S
H736 C762 0.950 . S
H737 C764 0.950 . S
H738 C767 0.950 . S
H739 C768 0.950 . S
H740 C770 0.950 . S
H741 C771 0.950 . S
C742 H724 0.951 . S
C742 C743 1.366 . S
C742 C744 1.388 . S
C743 C742 1.366 . S
C743 C747 1.385 . S
C744 H725 0.951 . S
C744 C742 1.388 . S
C744 C745 1.366 . S
C745 C744 1.366 . S
C745 C746 1.414 . S
C745 C748 1.499 . S
C746 H726 0.950 . S
C746 C745 1.414 . S
C746 C747 1.374 . S
C747 H727 0.950 . S
C747 C743 1.385 . S
C747 C746 1.374 . S
C748 C745 1.499 . S
C748 C749 1.373 . S
C748 C750 1.389 . S
C749 H728 0.950 . S
C749 C748 1.373 . S
C749 C765 1.377 . S
C750 C748 1.389 . S
C750 C751 1.524 . S
C750 C764 1.377 . S
C751 C750 1.524 . S
C751 C752 1.397 . S
C751 C756 1.363 . S
C752 H729 0.950 . S
C752 C751 1.397 . S
C752 C753 1.334 . S
C753 H730 0.950 . S
C753 C752 1.334 . S
C753 C754 1.287 . S
C754 C753 1.287 . S
C754 C755 1.524 . S
C754 H773 0.913 . S
C755 H731 0.950 . S
C755 C754 1.524 . S
C755 C756 1.415 . S
C756 H732 0.950 . S
C756 C751 1.363 . S
C756 C755 1.415 . S
C757 H733 0.951 . S
C757 C758 1.366 . S
C757 C759 1.388 . S
C758 C757 1.366 . S
C758 C762 1.385 . S
C759 H734 0.951 . S
C759 C757 1.388 . S
C759 C760 1.366 . S
C760 C759 1.366 . S
C760 C761 1.414 . S
C760 C763 1.499 . S
C761 H735 0.950 . S
C761 C760 1.414 . S
C761 C762 1.374 . S
C762 H736 0.950 . S
C762 C758 1.385 . S
C762 C761 1.374 . S
C763 C760 1.499 . S
C763 C764 1.373 . S
C763 C765 1.389 . S
C764 H737 0.950 . S
C764 C750 1.377 . S
C764 C763 1.373 . S
C765 C749 1.377 . S
C765 C763 1.389 . S
C765 C766 1.524 . S
C766 C765 1.524 . S
C766 C767 1.397 . S
C766 C771 1.363 . S
C767 H738 0.950 . S
C767 C766 1.397 . S
C767 C768 1.334 . S
C768 H739 0.950 . S
C768 C767 1.334 . S
C768 C769 1.287 . S
C769 C768 1.287 . S
C769 C770 1.524 . S
C769 H772 0.999 . S
C770 H740 0.950 . S
C770 C769 1.524 . S
C770 C771 1.415 . S
C771 H741 0.950 . S
C771 C766 1.363 . S
C771 C770 1.415 . S
H772 C769 0.999 . S
H773 C754 0.913 . S
H774 C792 0.951 . S
H775 C794 0.951 . S
H776 C796 0.950 . S
H777 C797 0.950 . S
H778 C799 0.950 . S
H779 C802 0.950 . S
H780 C803 0.950 . S
H781 C805 0.950 . S
H782 C806 0.950 . S
H783 C807 0.951 . S
H784 C809 0.951 . S
H785 C811 0.950 . S
H786 C812 0.950 . S
H787 C814 0.950 . S
H788 C817 0.950 . S
H789 C818 0.950 . S
H790 C820 0.950 . S
H791 C821 0.950 . S
C792 H774 0.951 . S
C792 C793 1.366 . S
C792 C794 1.388 . S
C793 C792 1.366 . S
C793 C797 1.385 . S
C794 H775 0.951 . S
C794 C792 1.388 . S
C794 C795 1.366 . S
C795 C794 1.366 . S
C795 C796 1.414 . S
C795 C798 1.499 . S
C796 H776 0.950 . S
C796 C795 1.414 . S
C796 C797 1.374 . S
C797 H777 0.950 . S
C797 C793 1.385 . S
C797 C796 1.374 . S
C798 C795 1.499 . S
C798 C799 1.373 . S
C798 C800 1.389 . S
C799 H778 0.950 . S
C799 C798 1.373 . S
C799 C815 1.377 . S
C800 C798 1.389 . S
C800 C801 1.524 . S
C800 C814 1.377 . S
C801 C800 1.524 . S
C801 C802 1.397 . S
C801 C806 1.363 . S
C802 H779 0.950 . S
C802 C801 1.397 . S
C802 C803 1.334 . S
C803 H780 0.950 . S
C803 C802 1.334 . S
C803 C804 1.287 . S
C804 C803 1.287 . S
C804 C805 1.524 . S
C804 H823 0.913 . S
C805 H781 0.950 . S
C805 C804 1.524 . S
C805 C806 1.415 . S
C806 H782 0.950 . S
C806 C801 1.363 . S
C806 C805 1.415 . S
C807 H783 0.951 . S
C807 C808 1.366 . S
C807 C809 1.388 . S
C808 C807 1.366 . S
C808 C812 1.385 . S
C809 H784 0.951 . S
C809 C807 1.388 . S
C809 C810 1.366 . S
C810 C809 1.366 . S
C810 C811 1.414 . S
C810 C813 1.499 . S
C811 H785 0.950 . S
C811 C810 1.414 . S
C811 C812 1.374 . S
C812 H786 0.950 . S
C812 C808 1.385 . S
C812 C811 1.374 . S
C813 C810 1.499 . S
C813 C814 1.373 . S
C813 C815 1.389 . S
C814 H787 0.950 . S
C814 C800 1.377 . S
C814 C813 1.373 . S
C815 C799 1.377 . S
C815 C813 1.389 . S
C815 C816 1.524 . S
C816 C815 1.524 . S
C816 C817 1.397 . S
C816 C821 1.363 . S
C817 H788 0.950 . S
C817 C816 1.397 . S
C817 C818 1.334 . S
C818 H789 0.950 . S
C818 C817 1.334 . S
C818 C819 1.287 . S
C819 C818 1.287 . S
C819 C820 1.524 . S
C819 H822 0.999 . S
C820 H790 0.950 . S
C820 C819 1.524 . S
C820 C821 1.415 . S
C821 H791 0.950 . S
C821 C816 1.363 . S
C821 C820 1.415 . S
H822 C819 0.999 . S
H823 C804 0.913 . S
H824 C842 0.951 . S
H825 C844 0.951 . S
H826 C846 0.950 . S
H827 C847 0.950 . S
H828 C849 0.950 . S
H829 C852 0.950 . S
H830 C853 0.950 . S
H831 C855 0.950 . S
H832 C856 0.950 . S
H833 C857 0.951 . S
H834 C859 0.951 . S
H835 C861 0.950 . S
H836 C862 0.950 . S
H837 C864 0.950 . S
H838 C867 0.950 . S
H839 C868 0.950 . S
H840 C870 0.950 . S
H841 C871 0.950 . S
C842 H824 0.951 . S
C842 C843 1.366 . S
C842 C844 1.388 . S
C843 C842 1.366 . S
C843 C847 1.385 . S
C844 H825 0.951 . S
C844 C842 1.388 . S
C844 C845 1.366 . S
C845 C844 1.366 . S
C845 C846 1.414 . S
C845 C848 1.499 . S
C846 H826 0.950 . S
C846 C845 1.414 . S
C846 C847 1.374 . S
C847 H827 0.950 . S
C847 C843 1.385 . S
C847 C846 1.374 . S
C848 C845 1.499 . S
C848 C849 1.373 . S
C848 C850 1.389 . S
C849 H828 0.950 . S
C849 C848 1.373 . S
C849 C865 1.377 . S
C850 C848 1.389 . S
C850 C851 1.524 . S
C850 C864 1.377 . S
C851 C850 1.524 . S
C851 C852 1.397 . S
C851 C856 1.363 . S
C852 H829 0.950 . S
C852 C851 1.397 . S
C852 C853 1.334 . S
C853 H830 0.950 . S
C853 C852 1.334 . S
C853 C854 1.287 . S
C854 C853 1.287 . S
C854 C855 1.524 . S
C854 H873 0.913 . S
C855 H831 0.950 . S
C855 C854 1.524 . S
C855 C856 1.415 . S
C856 H832 0.950 . S
C856 C851 1.363 . S
C856 C855 1.415 . S
C857 H833 0.951 . S
C857 C858 1.366 . S
C857 C859 1.388 . S
C858 C857 1.366 . S
C858 C862 1.385 . S
C859 H834 0.951 . S
C859 C857 1.388 . S
C859 C860 1.366 . S
C860 C859 1.366 . S
C860 C861 1.414 . S
C860 C863 1.499 . S
C861 H835 0.950 . S
C861 C860 1.414 . S
C861 C862 1.374 . S
C862 H836 0.950 . S
C862 C858 1.385 . S
C862 C861 1.374 . S
C863 C860 1.499 . S
C863 C864 1.373 . S
C863 C865 1.389 . S
C864 H837 0.950 . S
C864 C850 1.377 . S
C864 C863 1.373 . S
C865 C849 1.377 . S
C865 C863 1.389 . S
C865 C866 1.524 . S
C866 C865 1.524 . S
C866 C867 1.397 . S
C866 C871 1.363 . S
C867 H838 0.950 . S
C867 C866 1.397 . S
C867 C868 1.334 . S
C868 H839 0.950 . S
C868 C867 1.334 . S
C868 C869 1.287 . S
C869 C868 1.287 . S
C869 C870 1.524 . S
C869 H872 0.999 . S
C870 H840 0.950 . S
C870 C869 1.524 . S
C870 C871 1.415 . S
C871 H841 0.950 . S
C871 C866 1.363 . S
C871 C870 1.415 . S
H872 C869 0.999 . S
H873 C854 0.913 . S
H874 C892 0.951 . S
H875 C894 0.951 . S
H876 C896 0.950 . S
H877 C897 0.950 . S
H878 C899 0.950 . S
H879 C902 0.950 . S
H880 C903 0.950 . S
H881 C905 0.950 . S
H882 C906 0.950 . S
H883 C907 0.951 . S
H884 C909 0.951 . S
H885 C911 0.950 . S
H886 C912 0.950 . S
H887 C914 0.950 . S
H888 C917 0.950 . S
H889 C918 0.950 . S
H890 C920 0.950 . S
H891 C921 0.950 . S
C892 H874 0.951 . S
C892 C893 1.366 . S
C892 C894 1.388 . S
C893 C892 1.366 . S
C893 C897 1.385 . S
C894 H875 0.951 . S
C894 C892 1.388 . S
C894 C895 1.366 . S
C895 C894 1.366 . S
C895 C896 1.414 . S
C895 C898 1.499 . S
C896 H876 0.950 . S
C896 C895 1.414 . S
C896 C897 1.374 . S
C897 H877 0.950 . S
C897 C893 1.385 . S
C897 C896 1.374 . S
C898 C895 1.499 . S
C898 C899 1.373 . S
C898 C900 1.389 . S
C899 H878 0.950 . S
C899 C898 1.373 . S
C899 C915 1.377 . S
C900 C898 1.389 . S
C900 C901 1.524 . S
C900 C914 1.377 . S
C901 C900 1.524 . S
C901 C902 1.397 . S
C901 C906 1.363 . S
C902 H879 0.950 . S
C902 C901 1.397 . S
C902 C903 1.334 . S
C903 H880 0.950 . S
C903 C902 1.334 . S
C903 C904 1.287 . S
C904 C903 1.287 . S
C904 C905 1.524 . S
C904 H923 0.913 . S
C905 H881 0.950 . S
C905 C904 1.524 . S
C905 C906 1.415 . S
C906 H882 0.950 . S
C906 C901 1.363 . S
C906 C905 1.415 . S
C907 H883 0.951 . S
C907 C908 1.366 . S
C907 C909 1.388 . S
C908 C907 1.366 . S
C908 C912 1.385 . S
C909 H884 0.951 . S
C909 C907 1.388 . S
C909 C910 1.366 . S
C910 C909 1.366 . S
C910 C911 1.414 . S
C910 C913 1.499 . S
C911 H885 0.950 . S
C911 C910 1.414 . S
C911 C912 1.374 . S
C912 H886 0.950 . S
C912 C908 1.385 . S
C912 C911 1.374 . S
C913 C910 1.499 . S
C913 C914 1.373 . S
C913 C915 1.389 . S
C914 H887 0.950 . S
C914 C900 1.377 . S
C914 C913 1.373 . S
C915 C899 1.377 . S
C915 C913 1.389 . S
C915 C916 1.524 . S
C916 C915 1.524 . S
C916 C917 1.397 . S
C916 C921 1.363 . S
C917 H888 0.950 . S
C917 C916 1.397 . S
C917 C918 1.334 . S
C918 H889 0.950 . S
C918 C917 1.334 . S
C918 C919 1.287 . S
C919 C918 1.287 . S
C919 C920 1.524 . S
C919 H922 0.999 . S
C920 H890 0.950 . S
C920 C919 1.524 . S
C920 C921 1.415 . S
C921 H891 0.950 . S
C921 C916 1.363 . S
C921 C920 1.415 . S
H922 C919 0.999 . S
H923 C904 0.913 . S
H924 C942 0.951 . S
H925 C944 0.951 . S
H926 C946 0.950 . S
H927 C947 0.950 . S
H928 C949 0.950 . S
H929 C952 0.950 . S
H930 C953 0.950 . S
H931 C955 0.950 . S
H932 C956 0.950 . S
H933 C957 0.951 . S
H934 C959 0.951 . S
H935 C961 0.950 . S
H936 C962 0.950 . S
H937 C964 0.950 . S
H938 C967 0.950 . S
H939 C968 0.950 . S
H940 C970 0.950 . S
H941 C971 0.950 . S
C942 H924 0.951 . S
C942 C943 1.366 . S
C942 C944 1.388 . S
C943 C942 1.366 . S
C943 C947 1.385 . S
C944 H925 0.951 . S
C944 C942 1.388 . S
C944 C945 1.366 . S
C945 C944 1.366 . S
C945 C946 1.414 . S
C945 C948 1.499 . S
C946 H926 0.950 . S
C946 C945 1.414 . S
C946 C947 1.374 . S
C947 H927 0.950 . S
C947 C943 1.385 . S
C947 C946 1.374 . S
C948 C945 1.499 . S
C948 C949 1.373 . S
C948 C950 1.389 . S
C949 H928 0.950 . S
C949 C948 1.373 . S
C949 C965 1.377 . S
C950 C948 1.389 . S
C950 C951 1.524 . S
C950 C964 1.377 . S
C951 C950 1.524 . S
C951 C952 1.397 . S
C951 C956 1.363 . S
C952 H929 0.950 . S
C952 C951 1.397 . S
C952 C953 1.334 . S
C953 H930 0.950 . S
C953 C952 1.334 . S
C953 C954 1.287 . S
C954 C953 1.287 . S
C954 C955 1.524 . S
C954 H973 0.913 . S
C955 H931 0.950 . S
C955 C954 1.524 . S
C955 C956 1.415 . S
C956 H932 0.950 . S
C956 C951 1.363 . S
C956 C955 1.415 . S
C957 H933 0.951 . S
C957 C958 1.366 . S
C957 C959 1.388 . S
C958 C957 1.366 . S
C958 C962 1.385 . S
C959 H934 0.951 . S
C959 C957 1.388 . S
C959 C960 1.366 . S
C960 C959 1.366 . S
C960 C961 1.414 . S
C960 C963 1.499 . S
C961 H935 0.950 . S
C961 C960 1.414 . S
C961 C962 1.374 . S
C962 H936 0.950 . S
C962 C958 1.385 . S
C962 C961 1.374 . S
C963 C960 1.499 . S
C963 C964 1.373 . S
C963 C965 1.389 . S
C964 H937 0.950 . S
C964 C950 1.377 . S
C964 C963 1.373 . S
C965 C949 1.377 . S
C965 C963 1.389 . S
C965 C966 1.524 . S
C966 C965 1.524 . S
C966 C967 1.397 . S
C966 C971 1.363 . S
C967 H938 0.950 . S
C967 C966 1.397 . S
C967 C968 1.334 . S
C968 H939 0.950 . S
C968 C967 1.334 . S
C968 C969 1.287 . S
C969 C968 1.287 . S
C969 C970 1.524 . S
C969 H972 0.999 . S
C970 H940 0.950 . S
C970 C969 1.524 . S
C970 C971 1.415 . S
C971 H941 0.950 . S
C971 C966 1.363 . S
C971 C970 1.415 . S
H972 C969 0.999 . S
H973 C954 0.913 . S
H974 C992 0.951 . S
H975 C994 0.951 . S
H976 C996 0.950 . S
H977 C997 0.950 . S
H978 C999 0.950 . S
H979 C1002 0.950 . S
H980 C1003 0.950 . S
H981 C1005 0.950 . S
H982 C1006 0.950 . S
H983 C1007 0.951 . S
H984 C1009 0.951 . S
H985 C1011 0.950 . S
H986 C1012 0.950 . S
H987 C1014 0.950 . S
H988 C1017 0.950 . S
H989 C1018 0.950 . S
H990 C1020 0.950 . S
H991 C1021 0.950 . S
C992 H974 0.951 . S
C992 C993 1.366 . S
C992 C994 1.388 . S
C993 C992 1.366 . S
C993 C997 1.385 . S
C994 H975 0.951 . S
C994 C992 1.388 . S
C994 C995 1.366 . S
C995 C994 1.366 . S
C995 C996 1.414 . S
C995 C998 1.499 . S
C996 H976 0.950 . S
C996 C995 1.414 . S
C996 C997 1.374 . S
C997 H977 0.950 . S
C997 C993 1.385 . S
C997 C996 1.374 . S
C998 C995 1.499 . S
C998 C999 1.373 . S
C998 C1000 1.389 . S
C999 H978 0.950 . S
C999 C998 1.373 . S
C999 C1015 1.377 . S
C1000 C998 1.389 . S
C1000 C1001 1.524 . S
C1000 C1014 1.377 . S
C1001 C1000 1.524 . S
C1001 C1002 1.397 . S
C1001 C1006 1.363 . S
C1002 H979 0.950 . S
C1002 C1001 1.397 . S
C1002 C1003 1.334 . S
C1003 H980 0.950 . S
C1003 C1002 1.334 . S
C1003 C1004 1.287 . S
C1004 C1003 1.287 . S
C1004 C1005 1.524 . S
C1004 H1023 0.913 . S
C1005 H981 0.950 . S
C1005 C1004 1.524 . S
C1005 C1006 1.415 . S
C1006 H982 0.950 . S
C1006 C1001 1.363 . S
C1006 C1005 1.415 . S
C1007 H983 0.951 . S
C1007 C1008 1.366 . S
C1007 C1009 1.388 . S
C1008 C1007 1.366 . S
C1008 C1012 1.385 . S
C1009 H984 0.951 . S
C1009 C1007 1.388 . S
C1009 C1010 1.366 . S
C1010 C1009 1.366 . S
C1010 C1011 1.414 . S
C1010 C1013 1.499 . S
C1011 H985 0.950 . S
C1011 C1010 1.414 . S
C1011 C1012 1.374 . S
C1012 H986 0.950 . S
C1012 C1008 1.385 . S
C1012 C1011 1.374 . S
C1013 C1010 1.499 . S
C1013 C1014 1.373 . S
C1013 C1015 1.389 . S
C1014 H987 0.950 . S
C1014 C1000 1.377 . S
C1014 C1013 1.373 . S
C1015 C999 1.377 . S
C1015 C1013 1.389 . S
C1015 C1016 1.524 . S
C1016 C1015 1.524 . S
C1016 C1017 1.397 . S
C1016 C1021 1.363 . S
C1017 H988 0.950 . S
C1017 C1016 1.397 . S
C1017 C1018 1.334 . S
C1018 H989 0.950 . S
C1018 C1017 1.334 . S
C1018 C1019 1.287 . S
C1019 C1018 1.287 . S
C1019 C1020 1.524 . S
C1019 H1022 0.999 . S
C1020 H990 0.950 . S
C1020 C1019 1.524 . S
C1020 C1021 1.415 . S
C1021 H991 0.950 . S
C1021 C1016 1.363 . S
C1021 C1020 1.415 . S
H1022 C1019 0.999 . S
H1023 C1004 0.913 . S
H1024 C1042 0.951 . S
H1025 C1044 0.951 1_554 S
H1026 C1046 0.950 . S
H1027 C1047 0.950 . S
H1028 C1049 0.950 . S
H1029 C1052 0.950 1_556 S
H1030 C1053 0.959 . S
H1031 C1055 0.950 . S
H1032 C1056 0.950 . S
H1033 C1057 0.951 . S
H1034 C1059 0.951 1_556 S
H1035 C1061 0.950 . S
H1036 C1062 0.950 . S
H1037 C1064 0.950 . S
H1038 C1067 0.950 1_554 S
H1039 C1068 0.976 . S
H1040 C1070 0.950 . S
H1041 C1071 0.950 . S
C1042 H1024 0.951 . S
C1042 C1043 1.366 . S
C1042 C1044 1.388 . S
C1043 C1042 1.366 . S
C1043 C1047 1.385 . S
C1044 H1025 0.951 1_556 S
C1044 C1042 1.388 . S
C1044 C1045 1.366 . S
C1045 C1044 1.366 . S
C1045 C1046 1.414 . S
C1045 C1048 1.499 . S
C1046 H1026 0.950 . S
C1046 C1045 1.414 . S
C1046 C1047 1.374 . S
C1047 H1027 0.950 . S
C1047 C1043 1.385 . S
C1047 C1046 1.374 . S
C1048 C1045 1.499 . S
C1048 C1049 1.373 . S
C1048 C1050 1.389 1_556 S
C1049 H1028 0.950 . S
C1049 C1048 1.373 . S
C1049 C1065 1.377 . S
C1050 C1048 1.389 1_554 S
C1050 C1051 1.524 . S
C1050 C1064 1.377 . S
C1051 C1050 1.524 . S
C1051 C1052 1.397 . S
C1051 C1056 1.363 . S
C1052 H1029 0.950 1_554 S
C1052 C1051 1.397 . S
C1052 C1053 1.334 . S
C1053 H1030 0.959 . S
C1053 C1052 1.334 . S
C1053 C1054 1.287 . S
C1054 C1053 1.287 . S
C1054 C1055 1.524 . S
C1054 H1073 0.913 . S
C1055 H1031 0.950 . S
C1055 C1054 1.524 . S
C1055 C1056 1.415 . S
C1056 H1032 0.950 . S
C1056 C1051 1.363 . S
C1056 C1055 1.415 . S
C1057 H1033 0.951 . S
C1057 C1058 1.366 . S
C1057 C1059 1.388 . S
C1058 C1057 1.366 . S
C1058 C1062 1.385 . S
C1059 H1034 0.951 1_554 S
C1059 C1057 1.388 . S
C1059 C1060 1.366 . S
C1060 C1059 1.366 . S
C1060 C1061 1.414 . S
C1060 C1063 1.499 . S
C1061 H1035 0.950 . S
C1061 C1060 1.414 . S
C1061 C1062 1.374 . S
C1062 H1036 0.950 . S
C1062 C1058 1.385 . S
C1062 C1061 1.374 . S
C1063 C1060 1.499 . S
C1063 C1064 1.373 . S
C1063 C1065 1.389 1_554 S
C1064 H1037 0.950 . S
C1064 C1050 1.377 . S
C1064 C1063 1.373 . S
C1065 C1049 1.377 . S
C1065 C1063 1.389 1_556 S
C1065 C1066 1.524 . S
C1066 C1065 1.524 . S
C1066 C1067 1.397 . S
C1066 C1071 1.363 . S
C1067 H1038 0.950 1_556 S
C1067 C1066 1.397 . S
C1067 C1068 1.334 . S
C1068 H1039 0.976 . S
C1068 C1067 1.334 . S
C1068 C1069 1.287 . S
C1069 C1068 1.287 . S
C1069 C1070 1.524 . S
C1069 H1072 0.999 . S
C1070 H1040 0.950 . S
C1070 C1069 1.524 . S
C1070 C1071 1.415 . S
C1071 H1041 0.950 . S
C1071 C1066 1.363 . S
C1071 C1070 1.415 . S
H1072 C1069 0.999 . S
H1073 C1054 0.913 . S
H1074 C1092 0.951 . S
H1075 C1094 0.951 . S
H1076 C1096 0.950 . S
H1077 C1097 0.950 . S
H1078 C1099 0.950 . S
H1079 C1102 0.950 . S
H1080 C1103 0.950 . S
H1081 C1105 0.950 . S
H1082 C1106 0.950 . S
H1083 C1107 0.951 . S
H1084 C1109 0.951 . S
H1085 C1111 0.950 . S
H1086 C1112 0.950 . S
H1087 C1114 0.950 . S
H1088 C1117 0.950 . S
H1089 C1118 0.950 . S
H1090 C1120 0.950 . S
H1091 C1121 0.950 . S
C1092 H1074 0.951 . S
C1092 C1093 1.366 . S
C1092 C1094 1.388 . S
C1093 C1092 1.366 . S
C1093 C1097 1.385 . S
C1094 H1075 0.951 . S
C1094 C1092 1.388 . S
C1094 C1095 1.366 . S
C1095 C1094 1.366 . S
C1095 C1096 1.414 . S
C1095 C1098 1.499 . S
C1096 H1076 0.950 . S
C1096 C1095 1.414 . S
C1096 C1097 1.374 . S
C1097 H1077 0.950 . S
C1097 C1093 1.385 . S
C1097 C1096 1.374 . S
C1098 C1095 1.499 . S
C1098 C1099 1.373 . S
C1098 C1100 1.389 . S
C1099 H1078 0.950 . S
C1099 C1098 1.373 . S
C1099 C1115 1.377 . S
C1100 C1098 1.389 . S
C1100 C1101 1.524 . S
C1100 C1114 1.377 . S
C1101 C1100 1.524 . S
C1101 C1102 1.397 . S
C1101 C1106 1.363 . S
C1102 H1079 0.950 . S
C1102 C1101 1.397 . S
C1102 C1103 1.334 . S
C1103 H1080 0.950 . S
C1103 C1102 1.334 . S
C1103 C1104 1.287 . S
C1104 C1103 1.287 . S
C1104 C1105 1.524 . S
C1104 H1123 0.913 . S
C1105 H1081 0.950 . S
C1105 C1104 1.524 . S
C1105 C1106 1.415 . S
C1106 H1082 0.950 . S
C1106 C1101 1.363 . S
C1106 C1105 1.415 . S
C1107 H1083 0.951 . S
C1107 C1108 1.366 . S
C1107 C1109 1.388 . S
C1108 C1107 1.366 . S
C1108 C1112 1.385 . S
C1109 H1084 0.951 . S
C1109 C1107 1.388 . S
C1109 C1110 1.366 . S
C1110 C1109 1.366 . S
C1110 C1111 1.414 . S
C1110 C1113 1.499 . S
C1111 H1085 0.950 . S
C1111 C1110 1.414 . S
C1111 C1112 1.374 . S
C1112 H1086 0.950 . S
C1112 C1108 1.385 . S
C1112 C1111 1.374 . S
C1113 C1110 1.499 . S
C1113 C1114 1.373 . S
C1113 C1115 1.389 . S
C1114 H1087 0.950 . S
C1114 C1100 1.377 . S
C1114 C1113 1.373 . S
C1115 C1099 1.377 . S
C1115 C1113 1.389 . S
C1115 C1116 1.524 . S
C1116 C1115 1.524 . S
C1116 C1117 1.397 . S
C1116 C1121 1.363 . S
C1117 H1088 0.950 . S
C1117 C1116 1.397 . S
C1117 C1118 1.334 . S
C1118 H1089 0.950 . S
C1118 C1117 1.334 . S
C1118 C1119 1.287 . S
C1119 C1118 1.287 . S
C1119 C1120 1.524 . S
C1119 H1122 0.999 . S
C1120 H1090 0.950 . S
C1120 C1119 1.524 . S
C1120 C1121 1.415 . S
C1121 H1091 0.950 . S
C1121 C1116 1.363 . S
C1121 C1120 1.415 . S
H1122 C1119 0.999 . S
H1123 C1104 0.913 . S
H1124 C1142 0.951 . S
H1125 C1144 0.985 . S
H1126 C1146 0.950 . S
H1127 C1147 0.950 . S
H1128 C1149 0.950 . S
H1129 C1152 0.950 . S
H1130 C1153 0.950 . S
H1131 C1155 0.950 . S
H1132 C1156 0.950 . S
H1133 C1157 0.951 . S
H1134 C1159 0.962 . S
H1135 C1161 0.950 . S
H1136 C1162 0.950 . S
H1137 C1164 0.950 . S
H1138 C1167 0.950 . S
H1139 C1168 0.950 . S
H1140 C1170 0.950 . S
H1141 C1171 0.950 . S
C1142 H1124 0.951 . S
C1142 C1143 1.366 . S
C1142 C1144 1.388 . S
C1143 C1142 1.366 . S
C1143 C1147 1.385 . S
C1144 H1125 0.985 . S
C1144 C1142 1.388 . S
C1144 C1145 1.366 . S
C1145 C1144 1.366 . S
C1145 C1146 1.414 . S
C1145 C1148 1.499 . S
C1146 H1126 0.950 . S
C1146 C1145 1.414 . S
C1146 C1147 1.374 . S
C1147 H1127 0.950 . S
C1147 C1143 1.385 . S
C1147 C1146 1.374 . S
C1148 C1145 1.499 . S
C1148 C1149 1.373 . S
C1148 C1150 1.389 1_554 S
C1149 H1128 0.950 . S
C1149 C1148 1.373 . S
C1149 C1165 1.377 . S
C1150 C1148 1.389 1_556 S
C1150 C1151 1.524 . S
C1150 C1164 1.377 . S
C1151 C1150 1.524 . S
C1151 C1152 1.397 . S
C1151 C1156 1.363 . S
C1152 H1129 0.950 . S
C1152 C1151 1.397 . S
C1152 C1153 1.334 . S
C1153 H1130 0.950 . S
C1153 C1152 1.334 . S
C1153 C1154 1.287 . S
C1154 C1153 1.287 . S
C1154 C1155 1.524 . S
C1154 H1173 0.913 . S
C1155 H1131 0.950 . S
C1155 C1154 1.524 . S
C1155 C1156 1.415 . S
C1156 H1132 0.950 . S
C1156 C1151 1.363 . S
C1156 C1155 1.415 . S
C1157 H1133 0.951 . S
C1157 C1158 1.366 . S
C1157 C1159 1.388 . S
C1158 C1157 1.366 . S
C1158 C1162 1.385 . S
C1159 H1134 0.962 . S
C1159 C1157 1.388 . S
C1159 C1160 1.366 . S
C1160 C1159 1.366 . S
C1160 C1161 1.414 . S
C1160 C1163 1.499 . S
C1161 H1135 0.950 . S
C1161 C1160 1.414 . S
C1161 C1162 1.374 . S
C1162 H1136 0.950 . S
C1162 C1158 1.385 . S
C1162 C1161 1.374 . S
C1163 C1160 1.499 . S
C1163 C1164 1.373 . S
C1163 C1165 1.389 1_556 S
C1164 H1137 0.950 . S
C1164 C1150 1.377 . S
C1164 C1163 1.373 . S
C1165 C1149 1.377 . S
C1165 C1163 1.389 1_554 S
C1165 C1166 1.524 . S
C1166 C1165 1.524 . S
C1166 C1167 1.397 . S
C1166 C1171 1.363 . S
C1167 H1138 0.950 . S
C1167 C1166 1.397 . S
C1167 C1168 1.334 . S
C1168 H1139 0.950 . S
C1168 C1167 1.334 . S
C1168 C1169 1.287 . S
C1169 C1168 1.287 . S
C1169 C1170 1.524 . S
C1169 H1172 0.999 . S
C1170 H1140 0.950 . S
C1170 C1169 1.524 . S
C1170 C1171 1.415 . S
C1171 H1141 0.950 . S
C1171 C1166 1.363 . S
C1171 C1170 1.415 . S
H1172 C1169 0.999 . S
H1173 C1154 0.913 . S
H1174 C1192 0.951 . S
H1175 C1194 0.951 . S
H1176 C1196 0.950 . S
H1177 C1197 0.950 . S
H1178 C1199 0.950 . S
H1179 C1202 0.950 . S
H1180 C1203 0.950 . S
H1181 C1205 0.950 . S
H1182 C1206 0.950 . S
H1183 C1207 0.951 . S
H1184 C1209 0.951 . S
H1185 C1211 0.950 . S
H1186 C1212 0.950 . S
H1187 C1214 0.950 . S
H1188 C1217 0.950 . S
H1189 C1218 0.950 . S
H1190 C1220 0.950 . S
H1191 C1221 0.950 . S
C1192 H1174 0.951 . S
C1192 C1193 1.366 . S
C1192 C1194 1.388 . S
C1193 C1192 1.366 . S
C1193 C1197 1.385 . S
C1194 H1175 0.951 . S
C1194 C1192 1.388 . S
C1194 C1195 1.366 . S
C1195 C1194 1.366 . S
C1195 C1196 1.414 . S
C1195 C1198 1.499 . S
C1196 H1176 0.950 . S
C1196 C1195 1.414 . S
C1196 C1197 1.374 . S
C1197 H1177 0.950 . S
C1197 C1193 1.385 . S
C1197 C1196 1.374 . S
C1198 C1195 1.499 . S
C1198 C1199 1.373 . S
C1198 C1200 1.389 . S
C1199 H1178 0.950 . S
C1199 C1198 1.373 . S
C1199 C1215 1.377 . S
C1200 C1198 1.389 . S
C1200 C1201 1.524 . S
C1200 C1214 1.377 . S
C1201 C1200 1.524 . S
C1201 C1202 1.397 . S
C1201 C1206 1.363 . S
C1202 H1179 0.950 . S
C1202 C1201 1.397 . S
C1202 C1203 1.334 . S
C1203 H1180 0.950 . S
C1203 C1202 1.334 . S
C1203 C1204 1.287 . S
C1204 C1203 1.287 . S
C1204 C1205 1.524 . S
C1204 H1223 0.913 . S
C1205 H1181 0.950 . S
C1205 C1204 1.524 . S
C1205 C1206 1.415 . S
C1206 H1182 0.950 . S
C1206 C1201 1.363 . S
C1206 C1205 1.415 . S
C1207 H1183 0.951 . S
C1207 C1208 1.366 . S
C1207 C1209 1.388 . S
C1208 C1207 1.366 . S
C1208 C1212 1.385 . S
C1209 H1184 0.951 . S
C1209 C1207 1.388 . S
C1209 C1210 1.366 . S
C1210 C1209 1.366 . S
C1210 C1211 1.414 . S
C1210 C1213 1.499 . S
C1211 H1185 0.950 . S
C1211 C1210 1.414 . S
C1211 C1212 1.374 . S
C1212 H1186 0.950 . S
C1212 C1208 1.385 . S
C1212 C1211 1.374 . S
C1213 C1210 1.499 . S
C1213 C1214 1.373 . S
C1213 C1215 1.389 . S
C1214 H1187 0.950 . S
C1214 C1200 1.377 . S
C1214 C1213 1.373 . S
C1215 C1199 1.377 . S
C1215 C1213 1.389 . S
C1215 C1216 1.524 . S
C1216 C1215 1.524 . S
C1216 C1217 1.397 . S
C1216 C1221 1.363 . S
C1217 H1188 0.950 . S
C1217 C1216 1.397 . S
C1217 C1218 1.334 . S
C1218 H1189 0.950 . S
C1218 C1217 1.334 . S
C1218 C1219 1.287 . S
C1219 C1218 1.287 . S
C1219 C1220 1.524 . S
C1219 H1222 0.999 . S
C1220 H1190 0.950 . S
C1220 C1219 1.524 . S
C1220 C1221 1.415 . S
C1221 H1191 0.950 . S
C1221 C1216 1.363 . S
C1221 C1220 1.415 . S
H1222 C1219 0.999 . S
H1223 C1204 0.913 . S
H1224 C1242 0.951 . S
H1225 C1244 0.951 . S
H1226 C1246 0.950 . S
H1227 C1247 0.950 . S
H1228 C1249 0.950 . S
H1229 C1252 0.950 . S
H1230 C1253 0.950 . S
H1231 C1255 0.950 . S
H1232 C1256 0.950 . S
H1233 C1257 0.951 . S
H1234 C1259 0.951 . S
H1235 C1261 0.950 . S
H1236 C1262 0.950 . S
H1237 C1264 0.950 . S
H1238 C1267 0.950 . S
H1239 C1268 0.950 . S
H1240 C1270 0.950 . S
H1241 C1271 0.950 . S
C1242 H1224 0.951 . S
C1242 C1243 1.366 . S
C1242 C1244 1.388 . S
C1243 C1242 1.366 . S
C1243 C1247 1.385 . S
C1244 H1225 0.951 . S
C1244 C1242 1.388 . S
C1244 C1245 1.366 . S
C1245 C1244 1.366 . S
C1245 C1246 1.414 . S
C1245 C1248 1.499 . S
C1246 H1226 0.950 . S
C1246 C1245 1.414 . S
C1246 C1247 1.374 . S
C1247 H1227 0.950 . S
C1247 C1243 1.385 . S
C1247 C1246 1.374 . S
C1248 C1245 1.499 . S
C1248 C1249 1.373 . S
C1248 C1250 1.389 1_554 S
C1249 H1228 0.950 . S
C1249 C1248 1.373 . S
C1249 C1265 1.377 . S
C1250 C1248 1.389 1_556 S
C1250 C1251 1.524 . S
C1250 C1264 1.377 . S
C1251 C1250 1.524 . S
C1251 C1252 1.397 . S
C1251 C1256 1.363 . S
C1252 H1229 0.950 . S
C1252 C1251 1.397 . S
C1252 C1253 1.334 . S
C1253 H1230 0.950 . S
C1253 C1252 1.334 . S
C1253 C1254 1.287 . S
C1254 C1253 1.287 . S
C1254 C1255 1.524 . S
C1254 H1273 0.913 . S
C1255 H1231 0.950 . S
C1255 C1254 1.524 . S
C1255 C1256 1.415 . S
C1256 H1232 0.950 . S
C1256 C1251 1.363 . S
C1256 C1255 1.415 . S
C1257 H1233 0.951 . S
C1257 C1258 1.366 . S
C1257 C1259 1.388 . S
C1258 C1257 1.366 . S
C1258 C1262 1.385 . S
C1259 H1234 0.951 . S
C1259 C1257 1.388 . S
C1259 C1260 1.366 . S
C1260 C1259 1.366 . S
C1260 C1261 1.414 . S
C1260 C1263 1.499 . S
C1261 H1235 0.950 . S
C1261 C1260 1.414 . S
C1261 C1262 1.374 . S
C1262 H1236 0.950 . S
C1262 C1258 1.385 . S
C1262 C1261 1.374 . S
C1263 C1260 1.499 . S
C1263 C1264 1.373 . S
C1263 C1265 1.389 1_556 S
C1264 H1237 0.950 . S
C1264 C1250 1.377 . S
C1264 C1263 1.373 . S
C1265 C1249 1.377 . S
C1265 C1263 1.389 1_554 S
C1265 C1266 1.524 . S
C1266 C1265 1.524 . S
C1266 C1267 1.397 . S
C1266 C1271 1.363 . S
C1267 H1238 0.950 . S
C1267 C1266 1.397 . S
C1267 C1268 1.334 . S
C1268 H1239 0.950 . S
C1268 C1267 1.334 . S
C1268 C1269 1.287 . S
C1269 C1268 1.287 . S
C1269 C1270 1.524 . S
C1269 H1272 0.999 . S
C1270 H1240 0.950 . S
C1270 C1269 1.524 . S
C1270 C1271 1.415 . S
C1271 H1241 0.950 . S
C1271 C1266 1.363 . S
C1271 C1270 1.415 . S
H1272 C1269 0.999 . S
H1273 C1254 0.913 . S
H1274 C1292 0.951 . S
H1275 C1294 0.951 . S
H1276 C1296 0.950 . S
H1277 C1297 0.950 . S
H1278 C1299 0.950 . S
H1279 C1302 0.950 . S
H1280 C1303 0.950 . S
H1281 C1305 0.950 . S
H1282 C1306 0.950 . S
H1283 C1307 0.951 . S
H1284 C1309 0.951 . S
H1285 C1311 0.950 . S
H1286 C1312 0.950 . S
H1287 C1314 0.950 . S
H1288 C1317 0.950 . S
H1289 C1318 0.950 . S
H1290 C1320 0.950 . S
H1291 C1321 0.950 . S
C1292 H1274 0.951 . S
C1292 C1293 1.366 . S
C1292 C1294 1.388 . S
C1293 C1292 1.366 . S
C1293 C1297 1.385 . S
C1294 H1275 0.951 . S
C1294 C1292 1.388 . S
C1294 C1295 1.366 . S
C1295 C1294 1.366 . S
C1295 C1296 1.414 . S
C1295 C1298 1.499 . S
C1296 H1276 0.950 . S
C1296 C1295 1.414 . S
C1296 C1297 1.374 . S
C1297 H1277 0.950 . S
C1297 C1293 1.385 . S
C1297 C1296 1.374 . S
C1298 C1295 1.499 . S
C1298 C1299 1.373 . S
C1298 C1300 1.389 . S
C1299 H1278 0.950 . S
C1299 C1298 1.373 . S
C1299 C1315 1.377 . S
C1300 C1298 1.389 . S
C1300 C1301 1.524 . S
C1300 C1314 1.377 . S
C1301 C1300 1.524 . S
C1301 C1302 1.397 . S
C1301 C1306 1.363 . S
C1302 H1279 0.950 . S
C1302 C1301 1.397 . S
C1302 C1303 1.334 . S
C1303 H1280 0.950 . S
C1303 C1302 1.334 . S
C1303 C1304 1.287 . S
C1304 C1303 1.287 . S
C1304 C1305 1.524 . S
C1304 H1323 0.913 . S
C1305 H1281 0.950 . S
C1305 C1304 1.524 . S
C1305 C1306 1.415 . S
C1306 H1282 0.950 . S
C1306 C1301 1.363 . S
C1306 C1305 1.415 . S
C1307 H1283 0.951 . S
C1307 C1308 1.366 . S
C1307 C1309 1.388 . S
C1308 C1307 1.366 . S
C1308 C1312 1.385 . S
C1309 H1284 0.951 . S
C1309 C1307 1.388 . S
C1309 C1310 1.366 . S
C1310 C1309 1.366 . S
C1310 C1311 1.414 . S
C1310 C1313 1.499 . S
C1311 H1285 0.950 . S
C1311 C1310 1.414 . S
C1311 C1312 1.374 . S
C1312 H1286 0.950 . S
C1312 C1308 1.385 . S
C1312 C1311 1.374 . S
C1313 C1310 1.499 . S
C1313 C1314 1.373 . S
C1313 C1315 1.389 . S
C1314 H1287 0.950 . S
C1314 C1300 1.377 . S
C1314 C1313 1.373 . S
C1315 C1299 1.377 . S
C1315 C1313 1.389 . S
C1315 C1316 1.524 . S
C1316 C1315 1.524 . S
C1316 C1317 1.397 . S
C1316 C1321 1.363 . S
C1317 H1288 0.950 . S
C1317 C1316 1.397 . S
C1317 C1318 1.334 . S
C1318 H1289 0.950 . S
C1318 C1317 1.334 . S
C1318 C1319 1.287 . S
C1319 C1318 1.287 . S
C1319 C1320 1.524 . S
C1319 H1322 0.999 . S
C1320 H1290 0.950 . S
C1320 C1319 1.524 . S
C1320 C1321 1.415 . S
C1321 H1291 0.950 . S
C1321 C1316 1.363 . S
C1321 C1320 1.415 . S
H1322 C1319 0.999 . S
H1323 C1304 0.913 . S
H1324 C1342 0.951 . S
H1325 C1344 0.951 . S
H1326 C1346 0.950 . S
H1327 C1347 0.950 . S
H1328 C1349 0.950 . S
H1329 C1352 0.950 . S
H1330 C1353 0.950 . S
H1331 C1355 0.950 . S
H1332 C1356 0.950 . S
H1333 C1357 0.951 . S
H1334 C1359 0.951 . S
H1335 C1361 0.950 . S
H1336 C1362 0.950 . S
H1337 C1364 0.950 . S
H1338 C1367 0.950 . S
H1339 C1368 0.950 . S
H1340 C1370 0.950 . S
H1341 C1371 0.950 . S
C1342 H1324 0.951 . S
C1342 C1343 1.366 . S
C1342 C1344 1.388 . S
C1343 C1342 1.366 . S
C1343 C1347 1.385 . S
C1344 H1325 0.951 . S
C1344 C1342 1.388 . S
C1344 C1345 1.366 . S
C1345 C1344 1.366 . S
C1345 C1346 1.414 . S
C1345 C1348 1.499 . S
C1346 H1326 0.950 . S
C1346 C1345 1.414 . S
C1346 C1347 1.374 . S
C1347 H1327 0.950 . S
C1347 C1343 1.385 . S
C1347 C1346 1.374 . S
C1348 C1345 1.499 . S
C1348 C1349 1.373 1_554 S
C1348 C1350 1.389 . S
C1349 H1328 0.950 . S
C1349 C1348 1.373 1_556 S
C1349 C1365 1.377 . S
C1350 C1348 1.389 . S
C1350 C1351 1.524 . S
C1350 C1364 1.377 . S
C1351 C1350 1.524 . S
C1351 C1352 1.397 . S
C1351 C1356 1.363 . S
C1352 H1329 0.950 . S
C1352 C1351 1.397 . S
C1352 C1353 1.334 . S
C1353 H1330 0.950 . S
C1353 C1352 1.334 . S
C1353 C1354 1.287 . S
C1354 C1353 1.287 . S
C1354 C1355 1.524 . S
C1354 H1373 0.913 . S
C1355 H1331 0.950 . S
C1355 C1354 1.524 . S
C1355 C1356 1.415 . S
C1356 H1332 0.950 . S
C1356 C1351 1.363 . S
C1356 C1355 1.415 . S
C1357 H1333 0.951 . S
C1357 C1358 1.366 . S
C1357 C1359 1.388 . S
C1358 C1357 1.366 . S
C1358 C1362 1.385 . S
C1359 H1334 0.951 . S
C1359 C1357 1.388 . S
C1359 C1360 1.366 . S
C1360 C1359 1.366 . S
C1360 C1361 1.414 . S
C1360 C1363 1.499 . S
C1361 H1335 0.950 . S
C1361 C1360 1.414 . S
C1361 C1362 1.374 . S
C1362 H1336 0.950 . S
C1362 C1358 1.385 . S
C1362 C1361 1.374 . S
C1363 C1360 1.499 . S
C1363 C1364 1.373 1_556 S
C1363 C1365 1.389 . S
C1364 H1337 0.950 . S
C1364 C1350 1.377 . S
C1364 C1363 1.373 1_554 S
C1365 C1349 1.377 . S
C1365 C1363 1.389 . S
C1365 C1366 1.524 . S
C1366 C1365 1.524 . S
C1366 C1367 1.397 . S
C1366 C1371 1.363 . S
C1367 H1338 0.950 . S
C1367 C1366 1.397 . S
C1367 C1368 1.334 . S
C1368 H1339 0.950 . S
C1368 C1367 1.334 . S
C1368 C1369 1.287 . S
C1369 C1368 1.287 . S
C1369 C1370 1.524 . S
C1369 H1372 0.999 . S
C1370 H1340 0.950 . S
C1370 C1369 1.524 . S
C1370 C1371 1.415 . S
C1371 H1341 0.950 . S
C1371 C1366 1.363 . S
C1371 C1370 1.415 . S
H1372 C1369 0.999 . S
H1373 C1354 0.913 . S
H1374 C1392 0.951 . S
H1375 C1394 0.951 . S
H1376 C1396 0.950 . S
H1377 C1397 0.950 . S
H1378 C1399 0.950 . S
H1379 C1402 0.950 . S
H1380 C1403 0.950 . S
H1381 C1405 0.950 . S
H1382 C1406 0.950 . S
H1383 C1407 0.951 . S
H1384 C1409 0.951 . S
H1385 C1411 0.950 . S
H1386 C1412 0.950 . S
H1387 C1414 0.950 . S
H1388 C1417 0.950 . S
H1389 C1418 0.950 . S
H1390 C1420 0.950 . S
H1391 C1421 0.950 . S
C1392 H1374 0.951 . S
C1392 C1393 1.366 . S
C1392 C1394 1.388 . S
C1393 C1392 1.366 . S
C1393 C1397 1.385 . S
C1394 H1375 0.951 . S
C1394 C1392 1.388 . S
C1394 C1395 1.366 . S
C1395 C1394 1.366 . S
C1395 C1396 1.414 . S
C1395 C1398 1.499 . S
C1396 H1376 0.950 . S
C1396 C1395 1.414 . S
C1396 C1397 1.374 . S
C1397 H1377 0.950 . S
C1397 C1393 1.385 . S
C1397 C1396 1.374 . S
C1398 C1395 1.499 . S
C1398 C1399 1.373 . S
C1398 C1400 1.389 . S
C1399 H1378 0.950 . S
C1399 C1398 1.373 . S
C1399 C1415 1.377 . S
C1400 C1398 1.389 . S
C1400 C1401 1.524 . S
C1400 C1414 1.377 . S
C1401 C1400 1.524 . S
C1401 C1402 1.397 . S
C1401 C1406 1.363 . S
C1402 H1379 0.950 . S
C1402 C1401 1.397 . S
C1402 C1403 1.334 . S
C1403 H1380 0.950 . S
C1403 C1402 1.334 . S
C1403 C1404 1.287 . S
C1404 C1403 1.287 . S
C1404 C1405 1.524 . S
C1404 H1423 0.913 . S
C1405 H1381 0.950 . S
C1405 C1404 1.524 . S
C1405 C1406 1.415 . S
C1406 H1382 0.950 . S
C1406 C1401 1.363 . S
C1406 C1405 1.415 . S
C1407 H1383 0.951 . S
C1407 C1408 1.366 . S
C1407 C1409 1.388 . S
C1408 C1407 1.366 . S
C1408 C1412 1.385 . S
C1409 H1384 0.951 . S
C1409 C1407 1.388 . S
C1409 C1410 1.366 . S
C1410 C1409 1.366 . S
C1410 C1411 1.414 . S
C1410 C1413 1.499 . S
C1411 H1385 0.950 . S
C1411 C1410 1.414 . S
C1411 C1412 1.374 . S
C1412 H1386 0.950 . S
C1412 C1408 1.385 . S
C1412 C1411 1.374 . S
C1413 C1410 1.499 . S
C1413 C1414 1.373 . S
C1413 C1415 1.389 . S
C1414 H1387 0.950 . S
C1414 C1400 1.377 . S
C1414 C1413 1.373 . S
C1415 C1399 1.377 . S
C1415 C1413 1.389 . S
C1415 C1416 1.524 . S
C1416 C1415 1.524 . S
C1416 C1417 1.397 . S
C1416 C1421 1.363 . S
C1417 H1388 0.950 . S
C1417 C1416 1.397 . S
C1417 C1418 1.334 . S
C1418 H1389 0.950 . S
C1418 C1417 1.334 . S
C1418 C1419 1.287 . S
C1419 C1418 1.287 . S
C1419 C1420 1.524 . S
C1419 H1422 0.999 . S
C1420 H1390 0.950 . S
C1420 C1419 1.524 . S
C1420 C1421 1.415 . S
C1421 H1391 0.950 . S
C1421 C1416 1.363 . S
C1421 C1420 1.415 . S
H1422 C1419 0.999 . S
H1423 C1404 0.913 . S
H1424 C1442 0.951 . S
H1425 C1444 0.951 . S
H1426 C1446 0.950 1_554 S
H1427 C1447 0.950 . S
H1428 C1449 0.950 . S
H1429 C1452 0.950 . S
H1430 C1453 0.950 . S
H1431 C1455 0.950 . S
H1432 C1456 0.950 . S
H1433 C1457 0.951 . S
H1434 C1459 0.951 . S
H1435 C1461 0.950 1_556 S
H1436 C1462 0.950 . S
H1437 C1464 0.950 . S
H1438 C1467 0.950 . S
H1439 C1468 0.950 . S
H1440 C1470 0.950 . S
H1441 C1471 0.950 . S
C1442 H1424 0.951 . S
C1442 C1443 1.366 . S
C1442 C1444 1.388 . S
C1443 C1442 1.366 . S
C1443 C1447 1.385 . S
C1444 H1425 0.951 . S
C1444 C1442 1.388 . S
C1444 C1445 1.366 . S
C1445 C1444 1.366 . S
C1445 C1446 1.414 . S
C1445 C1448 1.499 . S
C1446 H1426 0.950 1_556 S
C1446 C1445 1.414 . S
C1446 C1447 1.374 . S
C1447 H1427 0.950 . S
C1447 C1443 1.385 . S
C1447 C1446 1.374 . S
C1448 C1445 1.499 . S
C1448 C1449 1.373 1_556 S
C1448 C1450 1.389 . S
C1449 H1428 0.950 . S
C1449 C1448 1.373 1_554 S
C1449 C1465 1.377 . S
C1450 C1448 1.389 . S
C1450 C1451 1.524 . S
C1450 C1464 1.377 . S
C1451 C1450 1.524 . S
C1451 C1452 1.397 . S
C1451 C1456 1.363 . S
C1452 H1429 0.950 . S
C1452 C1451 1.397 . S
C1452 C1453 1.334 . S
C1453 H1430 0.950 . S
C1453 C1452 1.334 . S
C1453 C1454 1.287 . S
C1454 C1453 1.287 . S
C1454 C1455 1.524 . S
C1454 H1473 0.913 . S
C1455 H1431 0.950 . S
C1455 C1454 1.524 . S
C1455 C1456 1.415 . S
C1456 H1432 0.950 . S
C1456 C1451 1.363 . S
C1456 C1455 1.415 . S
C1457 H1433 0.951 . S
C1457 C1458 1.366 . S
C1457 C1459 1.388 . S
C1458 C1457 1.366 . S
C1458 C1462 1.385 . S
C1459 H1434 0.951 . S
C1459 C1457 1.388 . S
C1459 C1460 1.366 . S
C1460 C1459 1.366 . S
C1460 C1461 1.414 . S
C1460 C1463 1.499 . S
C1461 H1435 0.950 1_554 S
C1461 C1460 1.414 . S
C1461 C1462 1.374 . S
C1462 H1436 0.950 . S
C1462 C1458 1.385 . S
C1462 C1461 1.374 . S
C1463 C1460 1.499 . S
C1463 C1464 1.373 1_554 S
C1463 C1465 1.389 . S
C1464 H1437 0.950 . S
C1464 C1450 1.377 . S
C1464 C1463 1.373 1_556 S
C1465 C1449 1.377 . S
C1465 C1463 1.389 . S
C1465 C1466 1.524 . S
C1466 C1465 1.524 . S
C1466 C1467 1.397 . S
C1466 C1471 1.363 . S
C1467 H1438 0.950 . S
C1467 C1466 1.397 . S
C1467 C1468 1.334 . S
C1468 H1439 0.950 . S
C1468 C1467 1.334 . S
C1468 C1469 1.287 . S
C1469 C1468 1.287 . S
C1469 C1470 1.524 . S
C1469 H1472 0.999 . S
C1470 H1440 0.950 . S
C1470 C1469 1.524 . S
C1470 C1471 1.415 . S
C1471 H1441 0.950 . S
C1471 C1466 1.363 . S
C1471 C1470 1.415 . S
H1472 C1469 0.999 . S
H1473 C1454 0.913 . S
H1474 C1492 0.951 . S
H1475 C1494 0.951 . S
H1476 C1496 0.950 . S
H1477 C1497 0.950 . S
H1478 C1499 0.950 . S
H1479 C1502 0.950 . S
H1480 C1503 0.950 . S
H1481 C1505 0.950 . S
H1482 C1506 0.950 . S
H1483 C1507 0.951 . S
H1484 C1509 0.951 . S
H1485 C1511 0.950 . S
H1486 C1512 0.950 . S
H1487 C1514 0.950 . S
H1488 C1517 0.950 . S
H1489 C1518 0.950 . S
H1490 C1520 0.950 . S
H1491 C1521 0.950 . S
C1492 H1474 0.951 . S
C1492 C1493 1.366 . S
C1492 C1494 1.388 . S
C1493 C1492 1.366 . S
C1493 C1497 1.385 . S
C1494 H1475 0.951 . S
C1494 C1492 1.388 . S
C1494 C1495 1.366 . S
C1495 C1494 1.366 . S
C1495 C1496 1.414 . S
C1495 C1498 1.499 . S
C1496 H1476 0.950 . S
C1496 C1495 1.414 . S
C1496 C1497 1.374 . S
C1497 H1477 0.950 . S
C1497 C1493 1.385 . S
C1497 C1496 1.374 . S
C1498 C1495 1.499 . S
C1498 C1499 1.373 . S
C1498 C1500 1.389 . S
C1499 H1478 0.950 . S
C1499 C1498 1.373 . S
C1499 C1515 1.377 . S
C1500 C1498 1.389 . S
C1500 C1501 1.524 . S
C1500 C1514 1.377 . S
C1501 C1500 1.524 . S
C1501 C1502 1.397 . S
C1501 C1506 1.363 . S
C1502 H1479 0.950 . S
C1502 C1501 1.397 . S
C1502 C1503 1.334 . S
C1503 H1480 0.950 . S
C1503 C1502 1.334 . S
C1503 C1504 1.287 . S
C1504 C1503 1.287 . S
C1504 C1505 1.524 . S
C1504 H1523 0.913 . S
C1505 H1481 0.950 . S
C1505 C1504 1.524 . S
C1505 C1506 1.415 . S
C1506 H1482 0.950 . S
C1506 C1501 1.363 . S
C1506 C1505 1.415 . S
C1507 H1483 0.951 . S
C1507 C1508 1.366 . S
C1507 C1509 1.388 . S
C1508 C1507 1.366 . S
C1508 C1512 1.385 . S
C1509 H1484 0.951 . S
C1509 C1507 1.388 . S
C1509 C1510 1.366 . S
C1510 C1509 1.366 . S
C1510 C1511 1.414 . S
C1510 C1513 1.499 . S
C1511 H1485 0.950 . S
C1511 C1510 1.414 . S
C1511 C1512 1.374 . S
C1512 H1486 0.950 . S
C1512 C1508 1.385 . S
C1512 C1511 1.374 . S
C1513 C1510 1.499 . S
C1513 C1514 1.373 . S
C1513 C1515 1.389 . S
C1514 H1487 0.950 . S
C1514 C1500 1.377 . S
C1514 C1513 1.373 . S
C1515 C1499 1.377 . S
C1515 C1513 1.389 . S
C1515 C1516 1.524 . S
C1516 C1515 1.524 . S
C1516 C1517 1.397 . S
C1516 C1521 1.363 . S
C1517 H1488 0.950 . S
C1517 C1516 1.397 . S
C1517 C1518 1.334 . S
C1518 H1489 0.950 . S
C1518 C1517 1.334 . S
C1518 C1519 1.287 . S
C1519 C1518 1.287 . S
C1519 C1520 1.524 . S
C1519 H1522 0.999 . S
C1520 H1490 0.950 . S
C1520 C1519 1.524 . S
C1520 C1521 1.415 . S
C1521 H1491 0.950 . S
C1521 C1516 1.363 . S
C1521 C1520 1.415 . S
H1522 C1519 0.999 . S
H1523 C1504 0.913 . S
H1524 C1542 0.951 . S
H1525 C1544 0.951 . S
H1526 C1546 0.929 1_556 S
H1527 C1547 0.950 . S
H1528 C1549 0.950 . S
H1529 C1552 0.950 . S
H1530 C1553 0.950 . S
H1531 C1555 0.950 . S
H1532 C1556 0.950 . S
H1533 C1557 0.951 . S
H1534 C1559 0.951 . S
H1535 C1561 0.929 1_554 S
H1536 C1562 0.950 . S
H1537 C1564 0.950 . S
H1538 C1567 0.950 . S
H1539 C1568 0.950 . S
H1540 C1570 0.950 . S
H1541 C1571 0.950 . S
C1542 H1524 0.951 . S
C1542 C1543 1.366 . S
C1542 C1544 1.388 . S
C1543 C1542 1.366 . S
C1543 C1547 1.385 . S
C1544 H1525 0.951 . S
C1544 C1542 1.388 . S
C1544 C1545 1.366 . S
C1545 C1544 1.366 . S
C1545 C1546 1.414 . S
C1545 C1548 1.499 . S
C1546 H1526 0.929 1_554 S
C1546 C1545 1.414 . S
C1546 C1547 1.374 . S
C1547 H1527 0.950 . S
C1547 C1543 1.385 . S
C1547 C1546 1.374 . S
C1548 C1545 1.499 . S
C1548 C1549 1.373 . S
C1548 C1550 1.389 . S
C1549 H1528 0.950 . S
C1549 C1548 1.373 . S
C1549 C1565 1.377 1_554 S
C1550 C1548 1.389 . S
C1550 C1551 1.524 . S
C1550 C1564 1.377 1_554 S
C1551 C1550 1.524 . S
C1551 C1552 1.397 1_554 S
C1551 C1556 1.363 . S
C1552 H1529 0.950 . S
C1552 C1551 1.397 1_556 S
C1552 C1553 1.334 . S
C1553 H1530 0.950 . S
C1553 C1552 1.334 . S
C1553 C1554 1.287 1_556 S
C1554 C1553 1.287 1_554 S
C1554 C1555 1.524 . S
C1554 H1573 0.913 . S
C1555 H1531 0.950 . S
C1555 C1554 1.524 . S
C1555 C1556 1.415 . S
C1556 H1532 0.950 . S
C1556 C1551 1.363 . S
C1556 C1555 1.415 . S
C1557 H1533 0.951 . S
C1557 C1558 1.366 . S
C1557 C1559 1.388 . S
C1558 C1557 1.366 . S
C1558 C1562 1.385 . S
C1559 H1534 0.951 . S
C1559 C1557 1.388 . S
C1559 C1560 1.366 . S
C1560 C1559 1.366 . S
C1560 C1561 1.414 . S
C1560 C1563 1.499 . S
C1561 H1535 0.929 1_556 S
C1561 C1560 1.414 . S
C1561 C1562 1.374 . S
C1562 H1536 0.950 . S
C1562 C1558 1.385 . S
C1562 C1561 1.374 . S
C1563 C1560 1.499 . S
C1563 C1564 1.373 . S
C1563 C1565 1.389 . S
C1564 H1537 0.950 . S
C1564 C1550 1.377 1_556 S
C1564 C1563 1.373 . S
C1565 C1549 1.377 1_556 S
C1565 C1563 1.389 . S
C1565 C1566 1.524 . S
C1566 C1565 1.524 . S
C1566 C1567 1.397 1_556 S
C1566 C1571 1.363 . S
C1567 H1538 0.950 . S
C1567 C1566 1.397 1_554 S
C1567 C1568 1.334 . S
C1568 H1539 0.950 . S
C1568 C1567 1.334 . S
C1568 C1569 1.287 1_554 S
C1569 C1568 1.287 1_556 S
C1569 C1570 1.524 . S
C1569 H1572 0.999 . S
C1570 H1540 0.950 . S
C1570 C1569 1.524 . S
C1570 C1571 1.415 . S
C1571 H1541 0.950 . S
C1571 C1566 1.363 . S
C1571 C1570 1.415 . S
H1572 C1569 0.999 . S
H1573 C1554 0.913 . S
H1574 C1592 0.951 . S
H1575 C1594 0.951 . S
H1576 C1596 0.950 . S
H1577 C1597 0.950 . S
H1578 C1599 0.950 . S
H1579 C1602 0.950 . S
H1580 C1603 0.950 . S
H1581 C1605 0.950 . S
H1582 C1606 0.950 . S
H1583 C1607 0.951 . S
H1584 C1609 0.951 . S
H1585 C1611 0.950 . S
H1586 C1612 0.950 . S
H1587 C1614 0.950 . S
H1588 C1617 0.950 . S
H1589 C1618 0.950 . S
H1590 C1620 0.950 . S
H1591 C1621 0.950 . S
C1592 H1574 0.951 . S
C1592 C1593 1.366 . S
C1592 C1594 1.388 . S
C1593 C1592 1.366 . S
C1593 C1597 1.385 . S
C1594 H1575 0.951 . S
C1594 C1592 1.388 . S
C1594 C1595 1.366 . S
C1595 C1594 1.366 . S
C1595 C1596 1.414 . S
C1595 C1598 1.499 . S
C1596 H1576 0.950 . S
C1596 C1595 1.414 . S
C1596 C1597 1.374 . S
C1597 H1577 0.950 . S
C1597 C1593 1.385 . S
C1597 C1596 1.374 . S
C1598 C1595 1.499 . S
C1598 C1599 1.373 . S
C1598 C1600 1.389 . S
C1599 H1578 0.950 . S
C1599 C1598 1.373 . S
C1599 C1615 1.377 . S
C1600 C1598 1.389 . S
C1600 C1601 1.524 . S
C1600 C1614 1.377 . S
C1601 C1600 1.524 . S
C1601 C1602 1.397 . S
C1601 C1606 1.363 . S
C1602 H1579 0.950 . S
C1602 C1601 1.397 . S
C1602 C1603 1.334 . S
C1603 H1580 0.950 . S
C1603 C1602 1.334 . S
C1603 C1604 1.287 . S
C1604 C1603 1.287 . S
C1604 C1605 1.524 . S
C1604 H1623 0.913 . S
C1605 H1581 0.950 . S
C1605 C1604 1.524 . S
C1605 C1606 1.415 . S
C1606 H1582 0.950 . S
C1606 C1601 1.363 . S
C1606 C1605 1.415 . S
C1607 H1583 0.951 . S
C1607 C1608 1.366 . S
C1607 C1609 1.388 . S
C1608 C1607 1.366 . S
C1608 C1612 1.385 . S
C1609 H1584 0.951 . S
C1609 C1607 1.388 . S
C1609 C1610 1.366 . S
C1610 C1609 1.366 . S
C1610 C1611 1.414 . S
C1610 C1613 1.499 . S
C1611 H1585 0.950 . S
C1611 C1610 1.414 . S
C1611 C1612 1.374 . S
C1612 H1586 0.950 . S
C1612 C1608 1.385 . S
C1612 C1611 1.374 . S
C1613 C1610 1.499 . S
C1613 C1614 1.373 . S
C1613 C1615 1.389 . S
C1614 H1587 0.950 . S
C1614 C1600 1.377 . S
C1614 C1613 1.373 . S
C1615 C1599 1.377 . S
C1615 C1613 1.389 . S
C1615 C1616 1.524 . S
C1616 C1615 1.524 . S
C1616 C1617 1.397 . S
C1616 C1621 1.363 . S
C1617 H1588 0.950 . S
C1617 C1616 1.397 . S
C1617 C1618 1.334 . S
C1618 H1589 0.950 . S
C1618 C1617 1.334 . S
C1618 C1619 1.287 . S
C1619 C1618 1.287 . S
C1619 C1620 1.524 . S
C1619 H1622 0.999 . S
C1620 H1590 0.950 . S
C1620 C1619 1.524 . S
C1620 C1621 1.415 . S
C1621 H1591 0.950 . S
C1621 C1616 1.363 . S
C1621 C1620 1.415 . S
H1622 C1619 0.999 . S
H1623 C1604 0.913 . S
H1624 C1642 0.951 . S
H1625 C1644 0.951 . S
H1626 C1646 0.950 1_554 S
H1627 C1647 0.950 . S
H1628 C1649 0.950 . S
H1629 C1652 0.950 . S
H1630 C1653 0.950 . S
H1631 C1655 0.934 1_565 S
H1632 C1656 0.950 . S
H1633 C1657 0.951 . S
H1634 C1659 0.951 . S
H1635 C1661 0.950 1_556 S
H1636 C1662 0.950 . S
H1637 C1664 0.950 . S
H1638 C1667 0.950 . S
H1639 C1668 0.950 . S
H1640 C1670 0.934 1_545 S
H1641 C1671 0.950 . S
C1642 H1624 0.951 . S
C1642 C1643 1.366 . S
C1642 C1644 1.388 . S
C1643 C1642 1.366 . S
C1643 C1647 1.385 . S
C1644 H1625 0.951 . S
C1644 C1642 1.388 . S
C1644 C1645 1.366 . S
C1645 C1644 1.366 . S
C1645 C1646 1.414 . S
C1645 C1648 1.499 . S
C1646 H1626 0.950 1_556 S
C1646 C1645 1.414 . S
C1646 C1647 1.374 . S
C1647 H1627 0.950 . S
C1647 C1643 1.385 . S
C1647 C1646 1.374 . S
C1648 C1645 1.499 . S
C1648 C1649 1.373 1_556 S
C1648 C1650 1.389 . S
C1649 H1628 0.950 . S
C1649 C1648 1.373 1_554 S
C1649 C1665 1.377 1_545 S
C1650 C1648 1.389 . S
C1650 C1651 1.524 . S
C1650 C1664 1.377 1_545 S
C1651 C1650 1.524 . S
C1651 C1652 1.397 . S
C1651 C1656 1.363 1_545 S
C1652 H1629 0.950 . S
C1652 C1651 1.397 . S
C1652 C1653 1.334 . S
C1653 H1630 0.950 . S
C1653 C1652 1.334 . S
C1653 C1654 1.287 . S
C1654 C1653 1.287 . S
C1654 C1655 1.547 . S
C1654 H1673 0.913 . S
C1655 H1631 0.934 1_545 S
C1655 C1654 1.547 . S
C1655 C1656 1.410 1_545 S
C1656 H1632 0.950 . S
C1656 C1651 1.363 1_565 S
C1656 C1655 1.410 1_565 S
C1657 H1633 0.951 . S
C1657 C1658 1.366 . S
C1657 C1659 1.388 . S
C1658 C1657 1.366 . S
C1658 C1662 1.385 . S
C1659 H1634 0.951 . S
C1659 C1657 1.388 . S
C1659 C1660 1.366 . S
C1660 C1659 1.366 . S
C1660 C1661 1.414 . S
C1660 C1663 1.499 . S
C1661 H1635 0.950 1_554 S
C1661 C1660 1.414 . S
C1661 C1662 1.374 . S
C1662 H1636 0.950 . S
C1662 C1658 1.385 . S
C1662 C1661 1.374 . S
C1663 C1660 1.499 . S
C1663 C1664 1.373 1_554 S
C1663 C1665 1.389 . S
C1664 H1637 0.950 . S
C1664 C1650 1.377 1_565 S
C1664 C1663 1.373 1_556 S
C1665 C1649 1.377 1_565 S
C1665 C1663 1.389 . S
C1665 C1666 1.524 . S
C1666 C1665 1.524 . S
C1666 C1667 1.397 . S
C1666 C1671 1.363 1_565 S
C1667 H1638 0.950 . S
C1667 C1666 1.397 . S
C1667 C1668 1.334 . S
C1668 H1639 0.950 . S
C1668 C1667 1.334 . S
C1668 C1669 1.287 . S
C1669 C1668 1.287 . S
C1669 C1670 1.547 . S
C1669 H1672 0.999 . S
C1670 H1640 0.934 1_565 S
C1670 C1669 1.547 . S
C1670 C1671 1.410 1_565 S
C1671 H1641 0.950 . S
C1671 C1666 1.363 1_545 S
C1671 C1670 1.410 1_545 S
H1672 C1669 0.999 . S
H1673 C1654 0.913 . S
H1674 C1692 0.951 . S
H1675 C1694 0.951 . S
H1676 C1696 0.950 . S
H1677 C1697 0.950 . S
H1678 C1699 0.950 . S
H1679 C1702 0.950 . S
H1680 C1703 0.950 . S
H1681 C1705 0.950 . S
H1682 C1706 0.950 . S
H1683 C1707 0.951 . S
H1684 C1709 0.951 . S
H1685 C1711 0.950 . S
H1686 C1712 0.950 . S
H1687 C1714 0.950 . S
H1688 C1717 0.950 . S
H1689 C1718 0.950 . S
H1690 C1720 0.950 . S
H1691 C1721 0.950 . S
C1692 H1674 0.951 . S
C1692 C1693 1.366 . S
C1692 C1694 1.388 . S
C1693 C1692 1.366 . S
C1693 C1697 1.385 . S
C1694 H1675 0.951 . S
C1694 C1692 1.388 . S
C1694 C1695 1.366 . S
C1695 C1694 1.366 . S
C1695 C1696 1.414 . S
C1695 C1698 1.499 . S
C1696 H1676 0.950 . S
C1696 C1695 1.414 . S
C1696 C1697 1.374 . S
C1697 H1677 0.950 . S
C1697 C1693 1.385 . S
C1697 C1696 1.374 . S
C1698 C1695 1.499 . S
C1698 C1699 1.373 . S
C1698 C1700 1.389 . S
C1699 H1678 0.950 . S
C1699 C1698 1.373 . S
C1699 C1715 1.377 1_565 S
C1700 C1698 1.389 . S
C1700 C1701 1.524 . S
C1700 C1714 1.377 1_565 S
C1701 C1700 1.524 . S
C1701 C1702 1.397 . S
C1701 C1706 1.363 1_565 S
C1702 H1679 0.950 . S
C1702 C1701 1.397 . S
C1702 C1703 1.334 . S
C1703 H1680 0.950 . S
C1703 C1702 1.334 . S
C1703 C1704 1.287 . S
C1704 C1703 1.287 . S
C1704 C1705 1.524 1_565 S
C1704 H1723 0.913 . S
C1705 H1681 0.950 . S
C1705 C1704 1.524 1_545 S
C1705 C1706 1.415 . S
C1706 H1682 0.950 . S
C1706 C1701 1.363 1_545 S
C1706 C1705 1.415 . S
C1707 H1683 0.951 . S
C1707 C1708 1.366 . S
C1707 C1709 1.388 . S
C1708 C1707 1.366 . S
C1708 C1712 1.385 . S
C1709 H1684 0.951 . S
C1709 C1707 1.388 . S
C1709 C1710 1.366 . S
C1710 C1709 1.366 . S
C1710 C1711 1.414 . S
C1710 C1713 1.499 . S
C1711 H1685 0.950 . S
C1711 C1710 1.414 . S
C1711 C1712 1.374 . S
C1712 H1686 0.950 . S
C1712 C1708 1.385 . S
C1712 C1711 1.374 . S
C1713 C1710 1.499 . S
C1713 C1714 1.373 . S
C1713 C1715 1.389 . S
C1714 H1687 0.950 . S
C1714 C1700 1.377 1_545 S
C1714 C1713 1.373 . S
C1715 C1699 1.377 1_545 S
C1715 C1713 1.389 . S
C1715 C1716 1.524 . S
C1716 C1715 1.524 . S
C1716 C1717 1.397 . S
C1716 C1721 1.363 1_545 S
C1717 H1688 0.950 . S
C1717 C1716 1.397 . S
C1717 C1718 1.334 . S
C1718 H1689 0.950 . S
C1718 C1717 1.334 . S
C1718 C1719 1.287 . S
C1719 C1718 1.287 . S
C1719 C1720 1.524 1_545 S
C1719 H1722 0.999 . S
C1720 H1690 0.950 . S
C1720 C1719 1.524 1_565 S
C1720 C1721 1.415 . S
C1721 H1691 0.950 . S
C1721 C1716 1.363 1_565 S
C1721 C1720 1.415 . S
H1722 C1719 0.999 . S
H1723 C1704 0.913 . S
H1724 C1742 0.951 . S
H1725 C1744 0.951 . S
H1726 C1746 0.950 . S
H1727 C1747 0.950 . S
H1728 C1749 0.950 . S
H1729 C1752 0.950 . S
H1730 C1753 0.950 . S
H1731 C1755 0.950 . S
H1732 C1756 0.950 . S
H1733 C1757 0.951 . S
H1734 C1759 0.951 . S
H1735 C1761 0.950 . S
H1736 C1762 0.950 . S
H1737 C1764 0.950 . S
H1738 C1767 0.950 . S
H1739 C1768 0.950 . S
H1740 C1770 0.950 . S
H1741 C1771 0.950 . S
C1742 H1724 0.951 . S
C1742 C1743 1.366 . S
C1742 C1744 1.388 . S
C1743 C1742 1.366 . S
C1743 C1747 1.385 . S
C1744 H1725 0.951 . S
C1744 C1742 1.388 . S
C1744 C1745 1.366 . S
C1745 C1744 1.366 . S
C1745 C1746 1.414 . S
C1745 C1748 1.499 . S
C1746 H1726 0.950 . S
C1746 C1745 1.414 . S
C1746 C1747 1.374 . S
C1747 H1727 0.950 . S
C1747 C1743 1.385 . S
C1747 C1746 1.374 . S
C1748 C1745 1.499 . S
C1748 C1749 1.373 . S
C1748 C1750 1.389 1_554 S
C1749 H1728 0.950 . S
C1749 C1748 1.373 . S
C1749 C1765 1.377 1_565 S
C1750 C1748 1.389 1_556 S
C1750 C1751 1.524 . S
C1750 C1764 1.377 1_565 S
C1751 C1750 1.524 . S
C1751 C1752 1.397 . S
C1751 C1756 1.363 . S
C1752 H1729 0.950 . S
C1752 C1751 1.397 . S
C1752 C1753 1.334 . S
C1753 H1730 0.950 . S
C1753 C1752 1.334 . S
C1753 C1754 1.287 . S
C1754 C1753 1.287 . S
C1754 C1755 1.524 . S
C1754 H1773 0.913 . S
C1755 H1731 0.950 . S
C1755 C1754 1.524 . S
C1755 C1756 1.415 . S
C1756 H1732 0.950 . S
C1756 C1751 1.363 . S
C1756 C1755 1.415 . S
C1757 H1733 0.951 . S
C1757 C1758 1.366 . S
C1757 C1759 1.388 . S
C1758 C1757 1.366 . S
C1758 C1762 1.385 . S
C1759 H1734 0.951 . S
C1759 C1757 1.388 . S
C1759 C1760 1.366 . S
C1760 C1759 1.366 . S
C1760 C1761 1.414 . S
C1760 C1763 1.499 . S
C1761 H1735 0.950 . S
C1761 C1760 1.414 . S
C1761 C1762 1.374 . S
C1762 H1736 0.950 . S
C1762 C1758 1.385 . S
C1762 C1761 1.374 . S
C1763 C1760 1.499 . S
C1763 C1764 1.373 . S
C1763 C1765 1.389 1_556 S
C1764 H1737 0.950 . S
C1764 C1750 1.377 1_545 S
C1764 C1763 1.373 . S
C1765 C1749 1.377 1_545 S
C1765 C1763 1.389 1_554 S
C1765 C1766 1.524 . S
C1766 C1765 1.524 . S
C1766 C1767 1.397 . S
C1766 C1771 1.363 . S
C1767 H1738 0.950 . S
C1767 C1766 1.397 . S
C1767 C1768 1.334 . S
C1768 H1739 0.950 . S
C1768 C1767 1.334 . S
C1768 C1769 1.287 . S
C1769 C1768 1.287 . S
C1769 C1770 1.524 . S
C1769 H1772 0.999 . S
C1770 H1740 0.950 . S
C1770 C1769 1.524 . S
C1770 C1771 1.415 . S
C1771 H1741 0.950 . S
C1771 C1766 1.363 . S
C1771 C1770 1.415 . S
H1772 C1769 0.999 . S
H1773 C1754 0.913 . S
H1774 C1792 0.951 . S
H1775 C1794 0.951 . S
H1776 C1796 0.950 . S
H1777 C1797 0.950 . S
H1778 C1799 0.950 . S
H1779 C1802 0.950 . S
H1780 C1803 0.950 . S
H1781 C1805 0.969 . S
H1782 C1806 0.950 . S
H1783 C1807 0.951 . S
H1784 C1809 0.951 . S
H1785 C1811 0.950 . S
H1786 C1812 0.950 . S
H1787 C1814 0.950 . S
H1788 C1817 0.950 . S
H1789 C1818 0.950 . S
H1790 C1820 0.969 . S
H1791 C1821 0.950 . S
C1792 H1774 0.951 . S
C1792 C1793 1.366 . S
C1792 C1794 1.388 . S
C1793 C1792 1.366 . S
C1793 C1797 1.385 . S
C1794 H1775 0.951 . S
C1794 C1792 1.388 . S
C1794 C1795 1.366 . S
C1795 C1794 1.366 . S
C1795 C1796 1.414 . S
C1795 C1798 1.499 . S
C1796 H1776 0.950 . S
C1796 C1795 1.414 . S
C1796 C1797 1.374 . S
C1797 H1777 0.950 . S
C1797 C1793 1.385 . S
C1797 C1796 1.374 . S
C1798 C1795 1.499 . S
C1798 C1799 1.373 . S
C1798 C1800 1.389 . S
C1799 H1778 0.950 . S
C1799 C1798 1.373 . S
C1799 C1815 1.377 1_545 S
C1800 C1798 1.389 . S
C1800 C1801 1.524 . S
C1800 C1814 1.377 1_545 S
C1801 C1800 1.524 . S
C1801 C1802 1.397 . S
C1801 C1806 1.363 1_545 S
C1802 H1779 0.950 . S
C1802 C1801 1.397 . S
C1802 C1803 1.334 . S
C1803 H1780 0.950 . S
C1803 C1802 1.334 . S
C1803 C1804 1.287 . S
C1804 C1803 1.287 . S
C1804 C1805 1.497 1_545 S
C1804 H1823 0.913 . S
C1805 H1781 0.969 . S
C1805 C1804 1.497 1_565 S
C1805 C1806 1.421 . S
C1806 H1782 0.950 . S
C1806 C1801 1.363 1_565 S
C1806 C1805 1.421 . S
C1807 H1783 0.951 . S
C1807 C1808 1.366 . S
C1807 C1809 1.388 . S
C1808 C1807 1.366 . S
C1808 C1812 1.385 . S
C1809 H1784 0.951 . S
C1809 C1807 1.388 . S
C1809 C1810 1.366 . S
C1810 C1809 1.366 . S
C1810 C1811 1.414 . S
C1810 C1813 1.499 . S
C1811 H1785 0.950 . S
C1811 C1810 1.414 . S
C1811 C1812 1.374 . S
C1812 H1786 0.950 . S
C1812 C1808 1.385 . S
C1812 C1811 1.374 . S
C1813 C1810 1.499 . S
C1813 C1814 1.373 . S
C1813 C1815 1.389 . S
C1814 H1787 0.950 . S
C1814 C1800 1.377 1_565 S
C1814 C1813 1.373 . S
C1815 C1799 1.377 1_565 S
C1815 C1813 1.389 . S
C1815 C1816 1.524 . S
C1816 C1815 1.524 . S
C1816 C1817 1.397 . S
C1816 C1821 1.363 1_565 S
C1817 H1788 0.950 . S
C1817 C1816 1.397 . S
C1817 C1818 1.334 . S
C1818 H1789 0.950 . S
C1818 C1817 1.334 . S
C1818 C1819 1.287 . S
C1819 C1818 1.287 . S
C1819 C1820 1.497 1_565 S
C1819 H1822 0.999 . S
C1820 H1790 0.969 . S
C1820 C1819 1.497 1_545 S
C1820 C1821 1.421 . S
C1821 H1791 0.950 . S
C1821 C1816 1.363 1_545 S
C1821 C1820 1.421 . S
H1822 C1819 0.999 . S
H1823 C1804 0.913 . S
C243 C5 1.429 . S
C258 C89 1.430 . S
C293 C19 1.429 . S
C308 C103 1.430 . S
C343 C61 1.429 . S
C358 C33 1.429 . S
C393 C75 1.429 . S
C408 C47 1.429 . S
C443 C201 1.429 . S
C458 C117 1.429 . S
C493 C215 1.429 . S
C508 C131 1.429 . S
C543 C145 1.429 . S
C558 C173 1.429 . S
C593 C159 1.429 . S
C608 C187 1.429 . S
C643 C9 1.472 . S
C658 C70 1.449 . S
C693 C23 1.472 . S
C708 C56 1.449 . S
C743 C37 1.472 . S
C758 C98 1.448 . S
C793 C84 1.449 . S
C808 C51 1.472 . S
C843 C182 1.449 . S
C858 C121 1.472 . S
C893 C168 1.449 . S
C908 C135 1.472 . S
C943 C149 1.472 . S
C958 C210 1.449 . S
C993 C196 1.449 . S
C1008 C163 1.472 . S
C1043 C179 1.363 . S
C1058 C11 1.368 . S
C1093 C25 1.368 . S
C1108 C193 1.363 . S
C1143 C207 1.364 . S
C1158 C39 1.368 . S
C1193 C221 1.364 . S
C1208 C53 1.368 . S
C1243 C123 1.368 . S
C1258 C67 1.364 . S
C1293 C137 1.368 . S
C1308 C81 1.363 . S
C1343 C95 1.363 . S
C1358 C151 1.368 . S
C1393 C109 1.363 . S
C1408 C165 1.368 . S
C1443 C28 1.436 . S
C1458 C0 1.436 . S
C1493 C14 1.436 . S
C1508 C42 1.436 . S
C1543 C93 1.490 . S
C1558 C65 1.490 . S
C1593 C79 1.490 . S
C1608 C107 1.490 . S
C1643 C140 1.436 . S
C1658 C112 1.436 . S
C1693 C154 1.436 . S
C1708 C126 1.436 . S
C1743 C205 1.490 . S
C1758 C177 1.490 . S
C1793 C219 1.490 . S
C1808 C191 1.490 . S
