# Generated by pormake.
# Topology smu, (6)-cn, num edge types: 1
# Building blocks:
#     Node 0, Type 0, BuildingBlock: UKALOJ_clean_sbu_0, # of connection points: 6
#     Node 1, Type 0, BuildingBlock: UKALOJ_clean_sbu_0, # of connection points: 6
#     Node 2, Type 0, BuildingBlock: UKALOJ_clean_sbu_0, # of connection points: 6
#     Node 3, Type 0, BuildingBlock: UKALOJ_clean_sbu_0, # of connection points: 6
#     Node 4, Type 0, BuildingBlock: UKALOJ_clean_sbu_0, # of connection points: 6
#     Node 5, Type 0, BuildingBlock: UKALOJ_clean_sbu_0, # of connection points: 6
#     Edge 6, Type (0, 0), BuildingBlock: EZIPEK_clean_linker_0, # of connection points: 2
#     Edge 7, Type (0, 0), BuildingBlock: EZIPEK_clean_linker_0, # of connection points: 2
#     Edge 8, Type (0, 0), BuildingBlock: EZIPEK_clean_linker_0, # of connection points: 2
#     Edge 9, Type (0, 0), BuildingBlock: EZIPEK_clean_linker_0, # of connection points: 2
#     Edge 10, Type (0, 0), BuildingBlock: EZIPEK_clean_linker_0, # of connection points: 2
#     Edge 11, Type (0, 0), BuildingBlock: EZIPEK_clean_linker_0, # of connection points: 2
#     Edge 12, Type (0, 0), BuildingBlock: EZIPEK_clean_linker_0, # of connection points: 2
#     Edge 13, Type (0, 0), BuildingBlock: EZIPEK_clean_linker_0, # of connection points: 2
#     Edge 14, Type (0, 0), BuildingBlock: EZIPEK_clean_linker_0, # of connection points: 2
#     Edge 15, Type (0, 0), BuildingBlock: EZIPEK_clean_linker_0, # of connection points: 2
#     Edge 16, Type (0, 0), BuildingBlock: EZIPEK_clean_linker_0, # of connection points: 2
#     Edge 17, Type (0, 0), BuildingBlock: EZIPEK_clean_linker_0, # of connection points: 2
#     Edge 18, Type (0, 0), BuildingBlock: EZIPEK_clean_linker_0, # of connection points: 2
#     Edge 19, Type (0, 0), BuildingBlock: EZIPEK_clean_linker_0, # of connection points: 2
#     Edge 20, Type (0, 0), BuildingBlock: EZIPEK_clean_linker_0, # of connection points: 2
#     Edge 21, Type (0, 0), BuildingBlock: EZIPEK_clean_linker_0, # of connection points: 2
#     Edge 22, Type (0, 0), BuildingBlock: EZIPEK_clean_linker_0, # of connection points: 2
#     Edge 23, Type (0, 0), BuildingBlock: EZIPEK_clean_linker_0, # of connection points: 2
# Relax obj value: 0.157
# Max RMSD: 0.224
# Mean RMSD: 0.224
data_MOF--net-smu--node1-UKALOJ_clean_sbu_0--edge1-EZIPEK_clean_linker_0
_symmetry_space_group_name_H-M    P1
_symmetry_Int_Tables_number       1
_symmetry_cell_setting            triclinic
loop_
_symmetry_equiv_pos_as_xyz
'x, y, z'
_cell_length_a     20.513666
_cell_length_b     20.400115
_cell_length_c     31.582294
_cell_angle_alpha  90.679002
_cell_angle_beta   89.699175
_cell_angle_gamma 119.7857
loop_
_atom_site_label
_atom_site_type_symbol
_atom_site_fract_x
_atom_site_fract_y
_atom_site_fract_z
_atom_type_partial_charge
Zn0 Zn 0.30361 0.05033 0.31468 0.0
O1 O 0.21538 0.07287 0.31186 0.0
C2 C 0.19926 0.90107 0.28244 0.0
Zn3 Zn 0.30852 0.05039 0.2448 0.0
C4 C 0.19099 0.0819 0.27671 0.0
O5 O 0.22121 0.07607 0.24259 0.0
C6 C 0.42451 0.02495 0.28371 0.0
O7 O 0.38751 0.16709 0.24164 0.0
O8 O 0.37767 0.16654 0.31115 0.0
N9 N 0.30997 0.03406 0.18105 0.0
C10 C 0.29395 0.05842 0.14518 0.0
C11 C 0.31954 0.97235 0.12748 0.0
N12 N 0.32615 0.98096 0.16972 0.0
N13 N 0.29951 0.02036 0.11139 0.0
C14 C 0.25927 0.02057 0.4103 0.0
C15 C 0.36848 0.07111 0.43796 0.0
N16 N 0.30941 0.05673 0.37919 0.0
N17 N 0.37704 0.08878 0.39667 0.0
N18 N 0.29516 0.0277 0.44722 0.0
H19 H 0.15347 0.01443 0.41911 0.0
H20 H 0.1495 0.92533 0.42216 0.0
H21 H 0.15966 0.9693 0.37119 0.0
C22 C 0.17575 0.97949 0.40495 0.0
C23 C 0.27064 0.11699 0.14309 0.0
H24 H 0.28152 0.14823 0.17353 0.0
H25 H 0.20995 0.08907 0.13533 0.0
H26 H 0.30153 0.15696 0.11721 0.0
O27 O 0.39676 0.02757 0.24853 0.0
O28 O 0.39357 0.03072 0.31712 0.0
C29 C 0.40406 0.20247 0.27695 0.0
O30 O 0.22731 0.9352 0.31715 0.0
O31 O 0.2273 0.93587 0.24825 0.0
Zn32 Zn 0.73457 0.64293 0.25057 0.0
O33 O 0.77445 0.56512 0.24779 0.0
C34 C 0.59857 0.52193 0.28925 0.0
Zn35 Zn 0.74555 0.64926 0.32131 0.0
C36 C 0.80247 0.55441 0.28106 0.0
O37 O 0.79672 0.58246 0.31616 0.0
C38 C 0.68729 0.7462 0.29097 0.0
O39 O 0.85229 0.74161 0.31919 0.0
O40 O 0.84809 0.73084 0.25007 0.0
N41 N 0.74479 0.64466 0.38753 0.0
C42 C 0.76023 0.69619 0.41896 0.0
C43 C 0.70274 0.58762 0.4472 0.0
N44 N 0.70989 0.57747 0.40555 0.0
N45 N 0.73328 0.66167 0.45659 0.0
C46 C 0.73801 0.69417 0.15573 0.0
C47 C 0.68893 0.58821 0.1232 0.0
N48 N 0.72645 0.64122 0.18482 0.0
N49 N 0.69641 0.57562 0.16425 0.0
N50 N 0.71463 0.66222 0.11698 0.0
H51 H 0.81487 0.8099 0.14189 0.0
H52 H 0.7927 0.7914 0.19757 0.0
H53 H 0.7252 0.7915 0.16078 0.0
C54 C 0.76979 0.77651 0.16503 0.0
C55 C 0.80335 0.77991 0.41324 0.0
H56 H 0.86185 0.80116 0.42414 0.0
H57 H 0.77955 0.80801 0.43312 0.0
H58 H 0.80469 0.79502 0.3796 0.0
O59 O 0.69873 0.71926 0.32433 0.0
O60 O 0.69722 0.72301 0.25525 0.0
C61 C 0.88532 0.76234 0.28365 0.0
O62 O 0.62333 0.55138 0.2533 0.0
O63 O 0.63907 0.553 0.32156 0.0
Zn64 Zn 0.88292 0.21696 0.31375 0.0
O65 O 0.83218 0.10055 0.31934 0.0
C66 C 0.02556 0.23505 0.27975 0.0
Zn67 Zn 0.88353 0.21113 0.24362 0.0
C68 C 0.82092 0.06055 0.28615 0.0
O69 O 0.84453 0.09298 0.25063 0.0
C70 C 0.93186 0.36569 0.27359 0.0
O71 O 0.77245 0.18567 0.24327 0.0
O72 O 0.77522 0.20266 0.31169 0.0
N73 N 0.88141 0.1974 0.17873 0.0
C74 C 0.93044 0.23795 0.14793 0.0
C75 C 0.842 0.13938 0.11853 0.0
N76 N 0.82658 0.1362 0.16029 0.0
N77 N 0.90711 0.20261 0.11009 0.0
C78 C 0.91485 0.21402 0.41139 0.0
C79 C 0.88108 0.29081 0.43522 0.0
N80 N 0.88616 0.23326 0.37845 0.0
N81 N 0.8647 0.28041 0.39361 0.0
N82 N 0.91302 0.25013 0.44715 0.0
H83 H 0.94961 0.14553 0.37591 0.0
H84 H 0.90323 0.10686 0.42545 0.0
H85 H -0.0019 0.18269 0.42572 0.0
C86 C 0.94353 0.15947 0.40904 0.0
C87 C 0.00078 0.31214 0.15434 0.0
H88 H -0.00448 0.3565 0.13723 0.0
H89 H 0.04912 0.3094 0.14036 0.0
H90 H 0.01181 0.32795 0.18821 0.0
O91 O 0.91658 0.32824 0.239 0.0
O92 O 0.92841 0.33198 0.30762 0.0
C93 C 0.73928 0.18697 0.27699 0.0
O94 O -0.00975 0.22894 0.31397 0.0
O95 O -0.0058 0.23354 0.24497 0.0
Zn96 Zn 0.07027 0.32271 0.81582 0.0
O97 O 0.1838 0.39257 0.81495 0.0
C98 C 0.051 0.44985 0.78646 0.0
Zn99 Zn 0.06877 0.33093 0.74549 0.0
C100 C 0.22017 0.42185 0.78138 0.0
O101 O 0.18584 0.40967 0.74622 0.0
C102 C 0.91926 0.22385 0.78122 0.0
O103 O 0.09869 0.24904 0.74127 0.0
O104 O 0.09059 0.2309 0.81029 0.0
N105 N 0.06501 0.33819 0.68064 0.0
C106 C 0.03432 0.28625 0.64915 0.0
C107 C 0.07029 0.39411 0.62201 0.0
N108 N 0.08764 0.40505 0.6635 0.0
N109 N 0.03637 0.32001 0.61219 0.0
C110 C 0.03776 0.27105 0.91122 0.0
C111 C 0.09427 0.37803 0.94267 0.0
N112 N 0.07339 0.3236 0.88114 0.0
N113 N 0.1091 0.38984 0.90099 0.0
N114 N 0.04962 0.30388 0.94994 0.0
H115 H -0.01651 0.1746 0.86883 0.0
H116 H 0.93591 0.16617 0.91907 0.0
H117 H 0.01917 0.15926 0.91754 0.0
C118 C -0.00899 0.18803 0.90313 0.0
C119 C 0.00364 0.20316 0.65433 0.0
H120 H -0.01921 0.185 0.68653 0.0
H121 H 0.05006 0.19077 0.64952 0.0
H122 H 0.95957 0.17019 0.63045 0.0
O123 O 0.95402 0.24902 0.74654 0.0
O124 O 0.95494 0.25024 0.81568 0.0
C125 C 0.10839 0.2184 0.77356 0.0
O126 O 0.0579 0.41893 0.8194 0.0
O127 O 0.04366 0.41832 0.75068 0.0
Zn128 Zn 0.21698 0.92401 0.80868 0.0
O129 O 0.17731 0.81222 0.82642 0.0
C130 C 0.35684 0.94058 0.77819 0.0
Zn131 Zn 0.20575 0.89803 0.73991 0.0
C132 C 0.1611 0.76576 0.79582 0.0
O133 O 0.17152 0.7881 0.7577 0.0
C134 C 0.255 0.05586 0.7531 0.0
O135 O 0.09358 0.86819 0.73635 0.0
O136 O 0.10519 0.89827 0.80333 0.0
N137 N 0.20928 0.87217 0.67734 0.0
C138 C 0.18897 0.89456 0.6422 0.0
C139 C 0.26433 0.85647 0.6229 0.0
N140 N 0.25509 0.84731 0.66509 0.0
N141 N 0.22385 0.88661 0.60783 0.0
C142 C 0.2441 0.95444 0.90652 0.0
C143 C 0.18776 0.01749 0.91712 0.0
N144 N 0.21551 0.95894 0.86911 0.0
N145 N 0.18069 -0.00183 0.87586 0.0
N146 N 0.22749 -0.00916 0.93693 0.0
H147 H 0.27946 0.87511 0.88723 0.0
H148 H 0.27485 0.88696 0.9441 0.0
H149 H 0.34967 0.95939 0.91383 0.0
C150 C 0.28919 0.91608 0.91315 0.0
C151 C 0.13579 0.92485 0.64112 0.0
H152 H 0.13096 0.94673 0.67236 0.0
H153 H 0.0796 0.87823 0.63166 0.0
H154 H 0.15292 0.96972 0.61718 0.0
O155 O 0.23841 0.00828 0.72326 0.0
O156 O 0.25377 0.03466 0.79078 0.0
C157 C 0.06442 0.87482 0.77045 0.0
O158 O 0.32852 0.9458 0.81312 0.0
O159 O 0.31721 0.92475 0.74498 0.0
Zn160 Zn 0.64582 0.75573 0.75361 0.0
O161 O 0.73508 0.86815 0.74864 0.0
C162 C 0.75388 0.72144 0.78963 0.0
Zn163 Zn 0.64154 0.76081 0.8239 0.0
C164 C 0.74409 0.90808 0.78169 0.0
O165 O 0.7124 0.87578 0.81594 0.0
C166 C 0.53285 0.61217 0.79633 0.0
O167 O 0.5522 0.78369 0.82303 0.0
O168 O 0.57256 0.79966 0.7543 0.0
N169 N 0.65286 0.77498 0.88949 0.0
C170 C 0.6607 0.73339 0.92006 0.0
C171 C 0.67158 0.8324 0.95011 0.0
N172 N 0.65979 0.83649 0.90842 0.0
N173 N 0.67256 0.76821 0.95819 0.0
C174 C 0.6891 0.76035 0.65678 0.0
C175 C 0.5832 0.68205 0.62982 0.0
N176 N 0.63732 0.7398 0.68807 0.0
N177 N 0.57166 0.69148 0.67096 0.0
N178 N 0.65656 0.72415 0.61996 0.0
H179 H 0.79212 0.80336 0.69178 0.0
H180 H 0.77861 0.87324 0.66591 0.0
H181 H 0.80447 0.81498 0.63493 0.0
C182 C 0.77102 0.81567 0.66245 0.0
C183 C 0.6562 0.65848 0.91321 0.0
H184 H 0.60216 0.61356 0.92616 0.0
H185 H 0.7019 0.65665 0.93083 0.0
H186 H 0.6598 0.64656 0.87933 0.0
O187 O 0.5667 0.64752 0.82964 0.0
O188 O 0.55405 0.64502 0.76083 0.0
C189 C 0.541 0.80604 0.78773 0.0
O190 O 0.72033 0.71556 0.755 0.0
O191 O 0.73267 0.74166 0.82269 0.0
C192 C 0.31649 0.05864 0.99485 0.0
C193 C 0.2456 -0.00019 0.98117 0.0
C194 C 0.20589 0.96539 0.05458 0.0
C195 C 0.27886 0.02 0.06807 0.0
N196 N 0.40525 0.1158 0.05292 0.0
N197 N 0.12436 0.89355 0.99593 0.0
C198 C 0.3346 0.06632 0.03866 0.0
C199 C 0.19042 0.95237 1.01056 0.0
N200 N 0.36543 0.10766 0.96577 0.0
N201 N 0.15186 0.92644 0.08421 0.0
H202 H 0.1122 0.88304 0.9637 0.0
H203 H 0.08365 0.85244 1.0152 0.0
H204 H 0.16257 0.93468 0.11666 0.0
H205 H 0.09561 0.88994 0.07707 0.0
H206 H 0.41559 0.15603 0.97364 0.0
H207 H 0.35349 0.10206 0.93342 0.0
H208 H 0.45113 0.14634 0.03319 0.0
H209 H 0.41863 0.12375 0.08511 0.0
C210 C 0.73455 0.6885 0.57469 0.0
C211 C 0.68878 0.72234 0.57921 0.0
C212 C 0.67625 0.72104 0.50179 0.0
C213 C 0.72576 0.69154 0.49714 0.0
N214 N 0.81449 0.66256 0.52853 0.0
N215 N 0.63112 0.78695 0.54719 0.0
C216 C 0.75925 0.68074 0.53354 0.0
C217 C 0.66498 0.74421 0.54263 0.0
N218 N 0.75007 0.65898 0.60921 0.0
N219 N 0.63567 0.72172 0.46786 0.0
H220 H 0.62309 0.80501 0.57684 0.0
H221 H 0.61812 0.81041 0.52171 0.0
H222 H 0.63955 0.70174 0.43799 0.0
H223 H 0.59327 0.73557 0.47021 0.0
H224 H 0.77682 0.627 0.60731 0.0
H225 H 0.73045 0.66088 0.63943 0.0
H226 H 0.84602 0.66021 0.55361 0.0
H227 H 0.83332 0.65699 0.49865 0.0
C228 C 0.00313 0.2151 0.05803 0.0
C229 C 0.94214 0.22605 0.06918 0.0
C230 C 0.9455 0.27732 0.99891 0.0
C231 C 0.01039 0.27235 0.98901 0.0
N232 N 0.10467 0.24164 1.0086 0.0
N233 N 0.85972 0.27429 0.05321 0.0
C234 C 0.0401 0.24228 1.01844 0.0
C235 C 0.91427 0.25869 0.04028 0.0
N236 N 0.02431 0.17743 0.08517 0.0
N237 N 0.91343 0.2989 0.9683 0.0
H238 H 0.8362 0.26126 0.08344 0.0
H239 H 0.84159 0.30481 0.03541 0.0
H240 H 0.93569 0.31353 0.93787 0.0
H241 H 0.86203 0.29695 0.97183 0.0
H242 H 0.06418 0.16165 0.07796 0.0
H243 H -0.00169 0.15781 0.11441 0.0
H244 H 0.13397 0.22713 1.02979 0.0
H245 H 0.13112 0.25952 0.9793 0.0
C246 C 0.28019 0.03468 0.52392 0.0
C247 C 0.26669 -0.00979 0.48694 0.0
C248 C 0.21208 0.876 0.53006 0.0
C249 C 0.23468 0.92149 0.56709 0.0
N250 N 0.30731 0.04546 0.59878 0.0
N251 N 0.23455 0.86956 0.45526 0.0
C252 C 0.2732 0.0014 0.56399 0.0
C253 C 0.236 0.91083 0.48996 0.0
N254 N 0.30004 0.10892 0.5205 0.0
N255 N 0.16792 0.7996 0.53342 0.0
H256 H 0.25506 0.89368 0.42581 0.0
H257 H 0.21934 0.81273 0.45663 0.0
H258 H 0.14999 0.77315 0.56266 0.0
H259 H 0.14398 0.76383 0.50735 0.0
H260 H 0.30441 0.14277 0.54652 0.0
H261 H 0.30469 0.13414 0.49123 0.0
H262 H 0.34181 0.10386 0.59737 0.0
H263 H 0.30752 0.02311 0.62824 0.0
C264 C 0.62498 0.71278 1.0287 0.0
C265 C 0.6844 0.74403 0.99892 0.0
C266 C 0.76536 0.72392 0.04809 0.0
C267 C 0.7067 0.69505 0.07837 0.0
N268 N 0.58512 0.67155 0.10091 0.0
N269 N 0.81371 0.78926 0.98135 0.0
C270 C 0.63779 0.69256 0.06964 0.0
C271 C 0.75552 0.75248 1.009 0.0
N272 N 0.55557 0.69994 1.01699 0.0
N273 N 0.82964 0.72215 0.05663 0.0
H274 H 0.80741 0.81002 0.95254 0.0
H275 H 0.86888 0.80336 0.9878 0.0
H276 H 0.83848 0.70351 0.08554 0.0
H277 H 0.87233 0.73534 0.03471 0.0
H278 H 0.50754 0.67083 0.0354 0.0
H279 H 0.54497 0.71404 0.98715 0.0
H280 H 0.53643 0.67513 0.09842 0.0
H281 H 0.59292 0.65549 0.13086 0.0
C282 C 0.02352 0.29494 0.4945 0.0
C283 C 0.94457 0.25404 0.48845 0.0
C284 C 0.92558 0.24982 0.56526 0.0
C285 C 0.00455 0.28796 0.57134 0.0
N286 N 0.12772 0.33115 0.54299 0.0
N287 N 0.82116 0.17814 0.51718 0.0
C288 C 0.05311 0.30492 0.53618 0.0
C289 C 0.89591 0.22639 0.52373 0.0
N290 N 0.06989 0.32874 0.46086 0.0
N291 N 0.87934 0.24064 0.59865 0.0
H292 H 0.79876 0.16045 0.48685 0.0
H293 H 0.78321 0.15058 0.54157 0.0
H294 H 0.89932 0.25908 0.62924 0.0
H295 H 0.8219 0.22018 0.59545 0.0
H296 H 0.12737 0.36573 0.46393 0.0
H297 H 0.05001 0.32465 0.43009 0.0
H298 H 0.16547 0.33863 0.51881 0.0
H299 H 0.15008 0.33845 0.57343 0.0
C300 C 0.54597 0.07789 0.32168 0.0
C301 C 0.50361 0.04162 0.28504 0.0
C302 C 0.61409 0.11263 0.24093 0.0
C303 C 0.656 0.15218 0.27748 0.0
N304 N 0.6505 0.19251 0.34899 0.0
N305 N 0.50534 -0.00012 0.214 0.0
C306 C 0.6189 0.14043 0.31704 0.0
C307 C 0.5407 0.05084 0.24599 0.0
N308 N 0.51712 0.05112 0.36077 0.0
N309 N 0.64109 0.1386 0.20138 0.0
H310 H 0.45241 0.95244 0.21834 0.0
H311 H 0.53175 9e-05 0.18568 0.0
H312 H 0.68875 0.19107 0.19651 0.0
H313 H 0.61037 0.11435 0.17382 0.0
H314 H 0.54794 0.07268 0.38862 0.0
H315 H 0.46612 0.00109 0.36449 0.0
H316 H 0.62286 0.189 0.37738 0.0
H317 H 0.69904 0.24451 0.34452 0.0
C318 C 0.53559 0.39426 0.32238 0.0
C319 C 0.53302 0.44369 0.2921 0.0
C320 C 0.43236 0.33299 0.25543 0.0
C321 C 0.4508 0.28565 0.27935 0.0
N322 N 0.5321 0.27556 0.33092 0.0
N323 N 0.47036 0.45997 0.23213 0.0
C324 C 0.50626 0.31763 0.31136 0.0
C325 C 0.47885 0.41293 0.25909 0.0
N326 N 0.56167 0.41871 0.36242 0.0
N327 N 0.36832 0.30224 0.23155 0.0
H328 H 0.49519 0.51797 0.23785 0.0
H329 H 0.43954 0.44146 0.20413 0.0
H330 H 0.33051 0.24445 0.22999 0.0
H331 H 0.34861 0.33432 0.21669 0.0
H332 H 0.56119 0.38267 0.38573 0.0
H333 H 0.5706 0.47042 0.37425 0.0
H334 H 0.57686 0.29916 0.35226 0.0
H335 H 0.51483 0.21975 0.32226 0.0
C336 C 0.92739 0.47642 0.24035 0.0
C337 C 0.92926 0.43757 0.2768 0.0
C338 C 0.85036 0.47563 0.31485 0.0
C339 C 0.84691 0.51481 0.27891 0.0
N340 N 0.91009 0.57775 0.21397 0.0
N341 N 0.93325 0.44617 0.35327 0.0
C342 C 0.89357 0.52287 0.24325 0.0
C343 C 0.90478 0.45292 0.31571 0.0
N344 N 0.95936 0.47061 0.20358 0.0
N345 N 0.79975 0.45583 0.34717 0.0
H346 H -0.02094 0.43717 0.35456 0.0
H347 H 0.91807 0.45997 0.38221 0.0
H348 H 0.75271 0.46268 0.34593 0.0
H349 H 0.7994 0.42326 0.3725 0.0
H350 H 0.95135 0.48959 0.17462 0.0
H351 H -0.00658 0.44601 0.20245 0.0
H352 H 0.94815 0.58904 0.18938 0.0
H353 H 0.89385 0.61849 0.21719 0.0
C354 C 0.03172 0.55668 0.81088 0.0
C355 C 0.07512 0.53089 0.78865 0.0
C356 C 0.18202 0.65899 0.78811 0.0
C357 C 0.13525 0.68611 0.80319 0.0
N358 N 0.0139 0.66355 0.82675 0.0
N359 N 0.18663 0.56265 0.74663 0.0
C360 C 0.05959 0.6358 0.81449 0.0
C361 C 0.14899 0.58333 0.77463 0.0
N362 N 0.96412 0.50593 0.82795 0.0
N363 N 0.25798 0.70629 0.7859 0.0
H364 H 0.16207 0.5107 0.73132 0.0
H365 H 0.23852 0.60082 0.73368 0.0
H366 H 0.28353 0.76266 0.79588 0.0
H367 H 0.29566 0.68744 0.77879 0.0
H368 H 0.93358 0.52153 0.84804 0.0
H369 H 0.9406 0.44769 0.82377 0.0
H370 H 0.95612 0.62977 0.83076 0.0
H371 H 0.03348 0.72122 0.83074 0.0
C372 C 0.46851 0.94227 0.81381 0.0
C373 C 0.4251 0.93214 0.77698 0.0
C374 C 0.45653 0.84006 0.74896 0.0
C375 C 0.4995 0.84815 0.78559 0.0
N376 N 0.56954 0.92995 0.84472 0.0
N377 N 0.42173 0.90887 0.70158 0.0
C378 C 0.51234 0.90583 0.816 0.0
C379 C 0.43349 0.89338 0.7418 0.0
N380 N 0.46992 -0.01165 0.84587 0.0
N381 N 0.43512 0.78042 0.72166 0.0
H382 H 0.41364 0.95437 0.69503 0.0
H383 H 0.43096 0.88372 0.67499 0.0
H384 H 0.44531 0.73606 0.72743 0.0
H385 H 0.39934 0.77097 0.69611 0.0
H386 H 0.49131 -0.01071 0.87587 0.0
H387 H 0.44941 0.0256 0.84214 0.0
H388 H 0.58503 0.97609 0.86492 0.0
H389 H 0.60755 0.91022 0.84523 0.0
C390 C 0.33327 0.51763 0.81918 0.0
C391 C 0.3024 0.46684 0.78449 0.0
C392 C 0.42852 0.49415 0.76386 0.0
C393 C 0.45792 0.54373 0.79925 0.0
N394 N 0.43193 0.56635 0.87112 0.0
N395 N 0.31891 0.38915 0.73163 0.0
C396 C 0.40838 0.54362 0.83053 0.0
C397 C 0.34934 0.44962 0.75888 0.0
N398 N 0.29183 0.54283 0.84068 0.0
N399 N 0.4764 0.48994 0.73522 0.0
H400 H 0.26129 0.35337 0.72808 0.0
H401 H 0.35085 0.37015 0.71544 0.0
H402 H 0.5342 0.51627 0.74063 0.0
H403 H 0.45898 0.46232 0.70604 0.0
H404 H 0.31492 0.58455 0.86419 0.0
H405 H 0.23741 0.52862 0.83177 0.0
H406 H 0.39554 0.56348 0.89515 0.0
H407 H 0.48382 0.57597 0.88205 0.0
C408 C 0.12809 0.14341 0.23836 0.0
C409 C 0.14007 0.11464 0.27646 0.0
C410 C 0.10549 0.19501 0.31747 0.0
C411 C 0.08972 0.22039 0.27964 0.0
N412 N 0.12008 0.24609 0.20595 0.0
N413 N 0.10517 0.08915 0.3501 0.0
C414 C 0.11207 0.20333 0.24054 0.0
C415 C 0.11944 0.13398 0.31565 0.0
N416 N 0.12378 0.10839 0.20055 0.0
N417 N 0.10868 0.23036 0.35495 0.0
H418 H 0.10129 0.03634 0.34758 0.0
H419 H 0.08515 0.0984 0.37866 0.0
H420 H 0.10385 0.27896 0.35626 0.0
H421 H 0.12519 0.21702 0.38324 0.0
H422 H 0.10985 0.12416 0.17223 0.0
H423 H 0.1222 0.05655 0.1987 0.0
H424 H 0.14136 0.23964 0.17713 0.0
H425 H 0.11458 0.29422 0.20826 0.0
C426 C 0.00739 0.81425 0.24327 0.0
C427 C 0.96936 0.80557 0.28241 0.0
C428 C 0.08029 0.82212 0.3203 0.0
C429 C 0.12011 0.83791 0.2819 0.0
N430 N 0.11189 0.81373 0.20712 0.0
N431 N -0.01543 0.83473 0.35741 0.0
C432 C 0.0801 0.82202 0.24336 0.0
C433 C 0.00971 0.81832 0.32094 0.0
N434 N -0.02242 0.82284 0.20661 0.0
N435 N 0.11069 0.81168 0.3561 0.0
H436 H 0.94076 0.84677 0.35738 0.0
H437 H 0.01438 0.84831 0.38581 0.0
H438 H 0.16185 0.81215 0.35536 0.0
H439 H 0.08141 0.79467 0.38463 0.0
H440 H 0.0054 0.83461 0.17762 0.0
H441 H 0.93042 0.82959 0.20643 0.0
H442 H 0.08354 0.79648 0.17829 0.0
H443 H 0.1638 0.81579 0.20761 0.0
C444 C 0.7726 0.93893 0.32599 0.0
C445 C 0.77272 0.97697 0.28858 0.0
C446 C 0.6812 0.8547 0.25704 0.0
C447 C 0.68627 0.81869 0.2939 0.0
N448 N 0.69376 0.83231 0.36972 0.0
N449 N 0.69919 0.97137 0.22709 0.0
C450 C 0.71702 0.86286 0.33069 0.0
C451 C 0.71859 0.9352 0.25632 0.0
N452 N 0.82791 0.97255 0.35567 0.0
N453 N 0.63979 0.81209 0.22341 0.0
H454 H 0.71877 0.02923 0.22819 0.0
H455 H 0.65636 0.94301 0.20502 0.0
H456 H 0.60536 0.75361 0.2255 0.0
H457 H 0.6406 0.83457 0.19384 0.0
H458 H 0.83028 0.94386 0.38223 0.0
H459 H 0.87617 0.02426 0.35067 0.0
H460 H 0.71236 0.86487 0.39741 0.0
H461 H 0.64939 0.77721 0.37337 0.0
C462 C 0.13982 0.13462 0.73164 0.0
C463 C 0.15438 0.18184 0.76776 0.0
C464 C 0.26902 0.17582 0.78128 0.0
C465 C 0.24973 0.12473 0.74688 0.0
N466 N 0.19806 0.09788 0.6768 0.0
N467 N 0.24765 0.26695 0.81894 0.0
C468 C 0.19572 0.11871 0.71762 0.0
C469 C 0.22358 0.20873 0.79036 0.0
N470 N 0.07186 0.10264 0.71166 0.0
N471 N 0.32903 0.18979 0.80602 0.0
H472 H 0.21667 0.29236 0.82785 0.0
H473 H 0.30145 0.29415 0.8319 0.0
H474 H 0.36555 0.17006 0.79737 0.0
H475 H 0.34084 0.21797 0.8351 0.0
H476 H 0.05789 0.06378 0.68682 0.0
H477 H 0.02722 0.10866 0.723 0.0
H478 H 0.16163 0.09675 0.65351 0.0
H479 H 0.2423 0.09073 0.66592 0.0
C480 C 0.94948 0.82916 0.81586 0.0
C481 C -0.01868 0.83856 0.77473 0.0
C482 C 0.86224 0.73536 0.74828 0.0
C483 C 0.83011 0.73039 0.78846 0.0
N484 N 0.85209 0.74344 0.8633 0.0
N485 N 0.95633 0.81979 0.69962 0.0
C486 C 0.8772 0.76737 0.8233 0.0
C487 C 0.93481 0.79634 0.74013 0.0
N488 N -0.01557 0.88327 0.8465 0.0
N489 N 0.82264 0.68209 0.71805 0.0
H490 H 0.0025 0.87248 0.69324 0.0
H491 H 0.92226 0.7936 0.67337 0.0
H492 H 0.77002 0.63566 0.72464 0.0
H493 H 0.84542 0.67986 0.68885 0.0
H494 H 0.96073 0.88072 0.87614 0.0
H495 H 0.03072 0.9359 0.83995 0.0
H496 H 0.88602 0.76538 0.89007 0.0
H497 H 0.8 0.69541 0.8685 0.0
C498 C 0.81451 0.11024 0.7438 0.0
C499 C 0.84777 0.15024 0.78187 0.0
C500 C 0.81273 0.03392 0.8181 0.0
C501 C 0.78136 -0.0082 0.78018 0.0
N502 N 0.7241 -0.00958 0.71251 0.0
N503 N 0.83052 0.14363 0.85735 0.0
C504 C 0.77377 0.02974 0.74429 0.0
C505 C 0.82992 0.10968 0.81986 0.0
N506 N 0.82039 0.1489 0.70772 0.0
N507 N 0.83033 0.0039 0.85162 0.0
H508 H 0.84001 0.1989 0.85865 0.0
H509 H 0.81273 0.11361 0.88556 0.0
H510 H 0.82826 0.9518 0.85009 0.0
H511 H 0.85625 0.03539 0.87887 0.0
H512 H 0.80697 0.12357 0.67779 0.0
H513 H 0.83951 0.20683 0.70818 0.0
H514 H 0.71307 0.01649 0.6876 0.0
H515 H 0.6866 0.93265 0.71344 0.0
loop_
_geom_bond_atom_site_label_1
_geom_bond_atom_site_label_2
_geom_bond_distance
_geom_bond_site_symmetry_2
_ccdc_geom_bond_type
Zn0 O1 2.055 . S
Zn0 O8 2.046 . S
Zn0 N16 2.036 . S
Zn0 O28 2.053 . S
Zn0 O30 2.066 . S
O1 Zn0 2.055 . S
O1 C4 1.259 . S
C2 O30 1.256 1_565 S
C2 O31 1.244 1_565 S
Zn3 O5 2.046 . S
Zn3 O7 2.055 . S
Zn3 N9 2.036 . S
Zn3 O27 2.066 . S
Zn3 O31 2.053 . S
C4 O1 1.259 . S
C4 O5 1.254 . S
O5 Zn3 2.046 . S
O5 C4 1.254 . S
C6 O27 1.256 . S
C6 O28 1.244 . S
O7 Zn3 2.055 . S
O7 C29 1.259 . S
O8 Zn0 2.046 . S
O8 C29 1.254 . S
N9 Zn3 2.036 . S
N9 C10 1.298 . S
N9 N12 1.398 . S
C10 N9 1.298 . S
C10 N13 1.367 . S
C10 C23 1.481 . S
C11 N12 1.299 . S
C11 N13 1.379 . S
N12 N9 1.398 . S
N12 C11 1.299 . S
N13 C10 1.367 . S
N13 C11 1.379 . S
C14 N16 1.298 . S
C14 N18 1.367 . S
C14 C22 1.481 . S
C15 N17 1.299 . S
C15 N18 1.379 . S
N16 Zn0 2.036 . S
N16 C14 1.298 . S
N16 N17 1.398 . S
N17 C15 1.299 . S
N17 N16 1.398 . S
N18 C14 1.367 . S
N18 C15 1.379 . S
H19 C22 0.980 . S
H20 C22 0.981 . S
H21 C22 0.981 . S
C22 C14 1.481 . S
C22 H19 0.980 . S
C22 H20 0.981 . S
C22 H21 0.981 . S
C23 C10 1.481 . S
C23 H24 0.980 . S
C23 H25 0.981 . S
C23 H26 0.981 . S
H24 C23 0.980 . S
H25 C23 0.981 . S
H26 C23 0.981 . S
O27 Zn3 2.066 . S
O27 C6 1.256 . S
O28 Zn0 2.053 . S
O28 C6 1.244 . S
C29 O7 1.259 . S
C29 O8 1.254 . S
O30 Zn0 2.066 . S
O30 C2 1.256 1_545 S
O31 C2 1.244 1_545 S
O31 Zn3 2.053 . S
Zn32 O33 2.055 . S
Zn32 O40 2.046 . S
Zn32 N48 2.036 . S
Zn32 O60 2.053 . S
Zn32 O62 2.066 . S
O33 Zn32 2.055 . S
O33 C36 1.259 . S
C34 O62 1.256 . S
C34 O63 1.244 . S
Zn35 O37 2.046 . S
Zn35 O39 2.055 . S
Zn35 N41 2.036 . S
Zn35 O59 2.066 . S
Zn35 O63 2.053 . S
C36 O33 1.259 . S
C36 O37 1.254 . S
O37 Zn35 2.046 . S
O37 C36 1.254 . S
C38 O59 1.256 . S
C38 O60 1.244 . S
O39 Zn35 2.055 . S
O39 C61 1.259 . S
O40 Zn32 2.046 . S
O40 C61 1.254 . S
N41 Zn35 2.036 . S
N41 C42 1.298 . S
N41 N44 1.398 . S
C42 N41 1.298 . S
C42 N45 1.367 . S
C42 C55 1.481 . S
C43 N44 1.299 . S
C43 N45 1.379 . S
N44 N41 1.398 . S
N44 C43 1.299 . S
N45 C42 1.367 . S
N45 C43 1.379 . S
C46 N48 1.298 . S
C46 N50 1.367 . S
C46 C54 1.481 . S
C47 N49 1.299 . S
C47 N50 1.379 . S
N48 Zn32 2.036 . S
N48 C46 1.298 . S
N48 N49 1.398 . S
N49 C47 1.299 . S
N49 N48 1.398 . S
N50 C46 1.367 . S
N50 C47 1.379 . S
H51 C54 0.980 . S
H52 C54 0.981 . S
H53 C54 0.981 . S
C54 C46 1.481 . S
C54 H51 0.980 . S
C54 H52 0.981 . S
C54 H53 0.981 . S
C55 C42 1.481 . S
C55 H56 0.980 . S
C55 H57 0.981 . S
C55 H58 0.981 . S
H56 C55 0.980 . S
H57 C55 0.981 . S
H58 C55 0.981 . S
O59 Zn35 2.066 . S
O59 C38 1.256 . S
O60 Zn32 2.053 . S
O60 C38 1.244 . S
C61 O39 1.259 . S
C61 O40 1.254 . S
O62 Zn32 2.066 . S
O62 C34 1.256 . S
O63 C34 1.244 . S
O63 Zn35 2.053 . S
Zn64 O65 2.055 . S
Zn64 O72 2.046 . S
Zn64 N80 2.036 . S
Zn64 O92 2.053 . S
Zn64 O94 2.066 . S
O65 Zn64 2.055 . S
O65 C68 1.259 . S
C66 O94 1.256 1_455 S
C66 O95 1.244 1_455 S
Zn67 O69 2.046 . S
Zn67 O71 2.055 . S
Zn67 N73 2.036 . S
Zn67 O91 2.066 . S
Zn67 O95 2.053 . S
C68 O65 1.259 . S
C68 O69 1.254 . S
O69 Zn67 2.046 . S
O69 C68 1.254 . S
C70 O91 1.256 . S
C70 O92 1.244 . S
O71 Zn67 2.055 . S
O71 C93 1.259 . S
O72 Zn64 2.046 . S
O72 C93 1.254 . S
N73 Zn67 2.036 . S
N73 C74 1.298 . S
N73 N76 1.398 . S
C74 N73 1.298 . S
C74 N77 1.367 . S
C74 C87 1.481 . S
C75 N76 1.299 . S
C75 N77 1.379 . S
N76 N73 1.398 . S
N76 C75 1.299 . S
N77 C74 1.367 . S
N77 C75 1.379 . S
C78 N80 1.298 . S
C78 N82 1.367 . S
C78 C86 1.481 . S
C79 N81 1.299 . S
C79 N82 1.379 . S
N80 Zn64 2.036 . S
N80 C78 1.298 . S
N80 N81 1.398 . S
N81 C79 1.299 . S
N81 N80 1.398 . S
N82 C78 1.367 . S
N82 C79 1.379 . S
H83 C86 0.980 . S
H84 C86 0.981 . S
H85 C86 0.981 . S
C86 C78 1.481 . S
C86 H83 0.980 . S
C86 H84 0.981 . S
C86 H85 0.981 . S
C87 C74 1.481 . S
C87 H88 0.980 . S
C87 H89 0.981 . S
C87 H90 0.981 . S
H88 C87 0.980 . S
H89 C87 0.981 . S
H90 C87 0.981 . S
O91 Zn67 2.066 . S
O91 C70 1.256 . S
O92 Zn64 2.053 . S
O92 C70 1.244 . S
C93 O71 1.259 . S
C93 O72 1.254 . S
O94 Zn64 2.066 . S
O94 C66 1.256 1_655 S
O95 C66 1.244 1_655 S
O95 Zn67 2.053 . S
Zn96 O97 2.055 . S
Zn96 O104 2.046 . S
Zn96 N112 2.036 . S
Zn96 O124 2.053 . S
Zn96 O126 2.066 . S
O97 Zn96 2.055 . S
O97 C100 1.259 . S
C98 O126 1.256 . S
C98 O127 1.244 . S
Zn99 O101 2.046 . S
Zn99 O103 2.055 . S
Zn99 N105 2.036 . S
Zn99 O123 2.066 . S
Zn99 O127 2.053 . S
C100 O97 1.259 . S
C100 O101 1.254 . S
O101 Zn99 2.046 . S
O101 C100 1.254 . S
C102 O123 1.256 1_655 S
C102 O124 1.244 1_655 S
O103 Zn99 2.055 . S
O103 C125 1.259 . S
O104 Zn96 2.046 . S
O104 C125 1.254 . S
N105 Zn99 2.036 . S
N105 C106 1.298 . S
N105 N108 1.398 . S
C106 N105 1.298 . S
C106 N109 1.367 . S
C106 C119 1.481 . S
C107 N108 1.299 . S
C107 N109 1.379 . S
N108 N105 1.398 . S
N108 C107 1.299 . S
N109 C106 1.367 . S
N109 C107 1.379 . S
C110 N112 1.298 . S
C110 N114 1.367 . S
C110 C118 1.481 . S
C111 N113 1.299 . S
C111 N114 1.379 . S
N112 Zn96 2.036 . S
N112 C110 1.298 . S
N112 N113 1.398 . S
N113 C111 1.299 . S
N113 N112 1.398 . S
N114 C110 1.367 . S
N114 C111 1.379 . S
H115 C118 0.980 . S
H116 C118 0.981 . S
H117 C118 0.981 . S
C118 C110 1.481 . S
C118 H115 0.980 . S
C118 H116 0.981 . S
C118 H117 0.981 . S
C119 C106 1.481 . S
C119 H120 0.980 . S
C119 H121 0.981 . S
C119 H122 0.981 . S
H120 C119 0.980 . S
H121 C119 0.981 . S
H122 C119 0.981 . S
O123 Zn99 2.066 . S
O123 C102 1.256 1_455 S
O124 Zn96 2.053 . S
O124 C102 1.244 1_455 S
C125 O103 1.259 . S
C125 O104 1.254 . S
O126 Zn96 2.066 . S
O126 C98 1.256 . S
O127 C98 1.244 . S
O127 Zn99 2.053 . S
Zn128 O129 2.055 . S
Zn128 O136 2.046 . S
Zn128 N144 2.036 . S
Zn128 O156 2.053 . S
Zn128 O158 2.066 . S
O129 Zn128 2.055 . S
O129 C132 1.259 . S
C130 O158 1.256 . S
C130 O159 1.244 . S
Zn131 O133 2.046 . S
Zn131 O135 2.055 . S
Zn131 N137 2.036 . S
Zn131 O155 2.066 . S
Zn131 O159 2.053 . S
C132 O129 1.259 . S
C132 O133 1.254 . S
O133 Zn131 2.046 . S
O133 C132 1.254 . S
C134 O155 1.256 1_545 S
C134 O156 1.244 1_545 S
O135 Zn131 2.055 . S
O135 C157 1.259 . S
O136 Zn128 2.046 . S
O136 C157 1.254 . S
N137 Zn131 2.036 . S
N137 C138 1.298 . S
N137 N140 1.398 . S
C138 N137 1.298 . S
C138 N141 1.367 . S
C138 C151 1.481 . S
C139 N140 1.299 . S
C139 N141 1.379 . S
N140 N137 1.398 . S
N140 C139 1.299 . S
N141 C138 1.367 . S
N141 C139 1.379 . S
C142 N144 1.298 . S
C142 N146 1.367 . S
C142 C150 1.481 . S
C143 N145 1.299 . S
C143 N146 1.379 . S
N144 Zn128 2.036 . S
N144 C142 1.298 . S
N144 N145 1.398 . S
N145 C143 1.299 . S
N145 N144 1.398 . S
N146 C142 1.367 . S
N146 C143 1.379 . S
H147 C150 0.980 . S
H148 C150 0.981 . S
H149 C150 0.981 . S
C150 C142 1.481 . S
C150 H147 0.980 . S
C150 H148 0.981 . S
C150 H149 0.981 . S
C151 C138 1.481 . S
C151 H152 0.980 . S
C151 H153 0.981 . S
C151 H154 0.981 . S
H152 C151 0.980 . S
H153 C151 0.981 . S
H154 C151 0.981 . S
O155 Zn131 2.066 . S
O155 C134 1.256 1_565 S
O156 Zn128 2.053 . S
O156 C134 1.244 1_565 S
C157 O135 1.259 . S
C157 O136 1.254 . S
O158 Zn128 2.066 . S
O158 C130 1.256 . S
O159 C130 1.244 . S
O159 Zn131 2.053 . S
Zn160 O161 2.055 . S
Zn160 O168 2.046 . S
Zn160 N176 2.036 . S
Zn160 O188 2.053 . S
Zn160 O190 2.066 . S
O161 Zn160 2.055 . S
O161 C164 1.259 . S
C162 O190 1.256 . S
C162 O191 1.244 . S
Zn163 O165 2.046 . S
Zn163 O167 2.055 . S
Zn163 N169 2.036 . S
Zn163 O187 2.066 . S
Zn163 O191 2.053 . S
C164 O161 1.259 . S
C164 O165 1.254 . S
O165 Zn163 2.046 . S
O165 C164 1.254 . S
C166 O187 1.256 . S
C166 O188 1.244 . S
O167 Zn163 2.055 . S
O167 C189 1.259 . S
O168 Zn160 2.046 . S
O168 C189 1.254 . S
N169 Zn163 2.036 . S
N169 C170 1.298 . S
N169 N172 1.398 . S
C170 N169 1.298 . S
C170 N173 1.367 . S
C170 C183 1.481 . S
C171 N172 1.299 . S
C171 N173 1.379 . S
N172 N169 1.398 . S
N172 C171 1.299 . S
N173 C170 1.367 . S
N173 C171 1.379 . S
C174 N176 1.298 . S
C174 N178 1.367 . S
C174 C182 1.481 . S
C175 N177 1.299 . S
C175 N178 1.379 . S
N176 Zn160 2.036 . S
N176 C174 1.298 . S
N176 N177 1.398 . S
N177 C175 1.299 . S
N177 N176 1.398 . S
N178 C174 1.367 . S
N178 C175 1.379 . S
H179 C182 0.980 . S
H180 C182 0.981 . S
H181 C182 0.981 . S
C182 C174 1.481 . S
C182 H179 0.980 . S
C182 H180 0.981 . S
C182 H181 0.981 . S
C183 C170 1.481 . S
C183 H184 0.980 . S
C183 H185 0.981 . S
C183 H186 0.981 . S
H184 C183 0.980 . S
H185 C183 0.981 . S
H186 C183 0.981 . S
O187 Zn163 2.066 . S
O187 C166 1.256 . S
O188 Zn160 2.053 . S
O188 C166 1.244 . S
C189 O167 1.259 . S
C189 O168 1.254 . S
O190 Zn160 2.066 . S
O190 C162 1.256 . S
O191 C162 1.244 . S
O191 Zn163 2.053 . S
C192 C193 1.363 . S
C192 C198 1.379 1_566 S
C192 N200 1.356 . S
C193 C192 1.363 . S
C193 C199 1.363 . S
C194 C195 1.363 . S
C194 C199 1.379 1_544 S
C194 N201 1.356 . S
C195 C194 1.363 . S
C195 C198 1.363 . S
N196 C198 1.356 . S
N196 H208 0.984 . S
N196 H209 0.985 . S
N197 C199 1.356 . S
N197 H202 0.984 . S
N197 H203 0.985 . S
C198 C192 1.379 1_544 S
C198 C195 1.363 . S
C198 N196 1.356 . S
C199 C193 1.363 . S
C199 C194 1.379 1_566 S
C199 N197 1.356 . S
N200 C192 1.356 . S
N200 H206 0.984 . S
N200 H207 0.984 . S
N201 C194 1.356 . S
N201 H204 0.984 . S
N201 H205 0.985 . S
H202 N197 0.984 . S
H203 N197 0.985 . S
H204 N201 0.984 . S
H205 N201 0.985 . S
H206 N200 0.984 . S
H207 N200 0.984 . S
H208 N196 0.984 . S
H209 N196 0.985 . S
C210 C211 1.363 . S
C210 C216 1.379 . S
C210 N218 1.356 . S
C211 C210 1.363 . S
C211 C217 1.363 . S
C212 C213 1.363 . S
C212 C217 1.379 . S
C212 N219 1.356 . S
C213 C212 1.363 . S
C213 C216 1.363 . S
N214 C216 1.356 . S
N214 H226 0.984 . S
N214 H227 0.985 . S
N215 C217 1.356 . S
N215 H220 0.984 . S
N215 H221 0.985 . S
C216 C210 1.379 . S
C216 C213 1.363 . S
C216 N214 1.356 . S
C217 C211 1.363 . S
C217 C212 1.379 . S
C217 N215 1.356 . S
N218 C210 1.356 . S
N218 H224 0.984 . S
N218 H225 0.984 . S
N219 C212 1.356 . S
N219 H222 0.984 . S
N219 H223 0.985 . S
H220 N215 0.984 . S
H221 N215 0.985 . S
H222 N219 0.984 . S
H223 N219 0.985 . S
H224 N218 0.984 . S
H225 N218 0.984 . S
H226 N214 0.984 . S
H227 N214 0.985 . S
C228 C229 1.363 1_455 S
C228 C234 1.379 1_554 S
C228 N236 1.356 1_455 S
C229 C228 1.363 1_655 S
C229 C235 1.363 . S
C230 C231 1.363 1_655 S
C230 C235 1.379 1_556 S
C230 N237 1.356 1_655 S
C231 C230 1.363 1_455 S
C231 C234 1.363 . S
N232 C234 1.356 . S
N232 H244 0.984 . S
N232 H245 0.985 . S
N233 C235 1.356 . S
N233 H238 0.984 . S
N233 H239 0.985 . S
C234 C228 1.379 1_556 S
C234 C231 1.363 . S
C234 N232 1.356 . S
C235 C229 1.363 . S
C235 C230 1.379 1_554 S
C235 N233 1.356 . S
N236 C228 1.356 1_655 S
N236 H242 0.984 1_655 S
N236 H243 0.984 . S
N237 C230 1.356 1_455 S
N237 H240 0.984 . S
N237 H241 0.985 1_455 S
H238 N233 0.984 . S
H239 N233 0.985 . S
H240 N237 0.984 . S
H241 N237 0.985 1_655 S
H242 N236 0.984 1_455 S
H243 N236 0.984 . S
H244 N232 0.984 . S
H245 N232 0.985 . S
C246 C247 1.363 . S
C246 C252 1.379 . S
C246 N254 1.356 . S
C247 C246 1.363 . S
C247 C253 1.363 1_545 S
C248 C249 1.363 . S
C248 C253 1.379 . S
C248 N255 1.356 . S
C249 C248 1.363 . S
C249 C252 1.363 1_565 S
N250 C252 1.356 . S
N250 H262 0.984 . S
N250 H263 0.985 . S
N251 C253 1.356 . S
N251 H256 0.984 . S
N251 H257 0.985 . S
C252 C246 1.379 . S
C252 C249 1.363 1_545 S
C252 N250 1.356 . S
C253 C247 1.363 1_565 S
C253 C248 1.379 . S
C253 N251 1.356 . S
N254 C246 1.356 . S
N254 H260 0.984 . S
N254 H261 0.984 . S
N255 C248 1.356 . S
N255 H258 0.984 . S
N255 H259 0.985 . S
H256 N251 0.984 . S
H257 N251 0.985 . S
H258 N255 0.984 . S
H259 N255 0.985 . S
H260 N254 0.984 . S
H261 N254 0.984 . S
H262 N250 0.984 . S
H263 N250 0.985 . S
C264 C265 1.363 . S
C264 C270 1.379 1_556 S
C264 N272 1.356 . S
C265 C264 1.363 . S
C265 C271 1.363 . S
C266 C267 1.363 . S
C266 C271 1.379 1_554 S
C266 N273 1.356 . S
C267 C266 1.363 . S
C267 C270 1.363 . S
N268 C270 1.356 . S
N268 H280 0.984 . S
N268 H281 0.985 . S
N269 C271 1.356 . S
N269 H274 0.984 . S
N269 H275 0.985 . S
C270 C264 1.379 1_554 S
C270 C267 1.363 . S
C270 N268 1.356 . S
C271 C265 1.363 . S
C271 C266 1.379 1_556 S
C271 N269 1.356 . S
N272 C264 1.356 . S
N272 H278 0.984 . S
N272 H279 0.984 . S
N273 C266 1.356 . S
N273 H276 0.984 . S
N273 H277 0.985 . S
H274 N269 0.984 . S
H275 N269 0.985 . S
H276 N273 0.984 . S
H277 N273 0.985 . S
H278 N272 0.984 . S
H279 N272 0.984 . S
H280 N268 0.984 . S
H281 N268 0.985 . S
C282 C283 1.363 1_455 S
C282 C288 1.379 . S
C282 N290 1.356 . S
C283 C282 1.363 1_655 S
C283 C289 1.363 . S
C284 C285 1.363 1_655 S
C284 C289 1.379 . S
C284 N291 1.356 . S
C285 C284 1.363 1_455 S
C285 C288 1.363 . S
N286 C288 1.356 . S
N286 H298 0.984 . S
N286 H299 0.985 . S
N287 C289 1.356 . S
N287 H292 0.984 . S
N287 H293 0.985 . S
C288 C282 1.379 . S
C288 C285 1.363 . S
C288 N286 1.356 . S
C289 C283 1.363 . S
C289 C284 1.379 . S
C289 N287 1.356 . S
N290 C282 1.356 . S
N290 H296 0.984 . S
N290 H297 0.984 . S
N291 C284 1.356 . S
N291 H294 0.984 . S
N291 H295 0.985 . S
H292 N287 0.984 . S
H293 N287 0.985 . S
H294 N291 0.984 . S
H295 N291 0.985 . S
H296 N290 0.984 . S
H297 N290 0.984 . S
H298 N286 0.984 . S
H299 N286 0.985 . S
C300 C301 1.363 . S
C300 C306 1.379 . S
C300 N308 1.356 . S
C301 C300 1.363 . S
C301 C307 1.363 . S
C302 C303 1.363 . S
C302 C307 1.379 . S
C302 N309 1.356 . S
C303 C302 1.363 . S
C303 C306 1.363 . S
N304 C306 1.356 . S
N304 H316 0.984 . S
N304 H317 0.985 . S
N305 C307 1.356 . S
N305 H310 0.984 . S
N305 H311 0.985 . S
C306 C300 1.379 . S
C306 C303 1.363 . S
C306 N304 1.356 . S
C307 C301 1.363 . S
C307 C302 1.379 . S
C307 N305 1.356 . S
N308 C300 1.356 . S
N308 H314 0.984 . S
N308 H315 0.984 . S
N309 C302 1.356 . S
N309 H312 0.984 . S
N309 H313 0.985 . S
H310 N305 0.984 . S
H311 N305 0.985 . S
H312 N309 0.984 . S
H313 N309 0.985 . S
H314 N308 0.984 . S
H315 N308 0.984 . S
H316 N304 0.984 . S
H317 N304 0.985 . S
C318 C319 1.363 . S
C318 C324 1.379 . S
C318 N326 1.356 . S
C319 C318 1.363 . S
C319 C325 1.363 . S
C320 C321 1.363 . S
C320 C325 1.379 . S
C320 N327 1.356 . S
C321 C320 1.363 . S
C321 C324 1.363 . S
N322 C324 1.356 . S
N322 H334 0.984 . S
N322 H335 0.985 . S
N323 C325 1.356 . S
N323 H328 0.984 . S
N323 H329 0.985 . S
C324 C318 1.379 . S
C324 C321 1.363 . S
C324 N322 1.356 . S
C325 C319 1.363 . S
C325 C320 1.379 . S
C325 N323 1.356 . S
N326 C318 1.356 . S
N326 H332 0.984 . S
N326 H333 0.984 . S
N327 C320 1.356 . S
N327 H330 0.984 . S
N327 H331 0.985 . S
H328 N323 0.984 . S
H329 N323 0.985 . S
H330 N327 0.984 . S
H331 N327 0.985 . S
H332 N326 0.984 . S
H333 N326 0.984 . S
H334 N322 0.984 . S
H335 N322 0.985 . S
C336 C337 1.363 . S
C336 C342 1.379 . S
C336 N344 1.356 . S
C337 C336 1.363 . S
C337 C343 1.363 . S
C338 C339 1.363 . S
C338 C343 1.379 . S
C338 N345 1.356 . S
C339 C338 1.363 . S
C339 C342 1.363 . S
N340 C342 1.356 . S
N340 H352 0.984 . S
N340 H353 0.985 . S
N341 C343 1.356 . S
N341 H346 0.984 . S
N341 H347 0.985 . S
C342 C336 1.379 . S
C342 C339 1.363 . S
C342 N340 1.356 . S
C343 C337 1.363 . S
C343 C338 1.379 . S
C343 N341 1.356 . S
N344 C336 1.356 . S
N344 H350 0.984 1_655 S
N344 H351 0.984 1_655 S
N345 C338 1.356 . S
N345 H348 0.984 . S
N345 H349 0.985 . S
H346 N341 0.984 . S
H347 N341 0.985 . S
H348 N345 0.984 . S
H349 N345 0.985 . S
H350 N344 0.984 1_455 S
H351 N344 0.984 1_455 S
H352 N340 0.984 . S
H353 N340 0.985 . S
C354 C355 1.363 . S
C354 C360 1.379 . S
C354 N362 1.356 . S
C355 C354 1.363 . S
C355 C361 1.363 . S
C356 C357 1.363 . S
C356 C361 1.379 . S
C356 N363 1.356 . S
C357 C356 1.363 . S
C357 C360 1.363 . S
N358 C360 1.356 . S
N358 H370 0.984 . S
N358 H371 0.985 . S
N359 C361 1.356 . S
N359 H364 0.984 . S
N359 H365 0.985 . S
C360 C354 1.379 . S
C360 C357 1.363 . S
C360 N358 1.356 . S
C361 C355 1.363 . S
C361 C356 1.379 . S
C361 N359 1.356 . S
N362 C354 1.356 . S
N362 H368 0.984 1_455 S
N362 H369 0.984 . S
N363 C356 1.356 . S
N363 H366 0.984 . S
N363 H367 0.985 . S
H364 N359 0.984 . S
H365 N359 0.985 . S
H366 N363 0.984 . S
H367 N363 0.985 . S
H368 N362 0.984 1_655 S
H369 N362 0.984 . S
H370 N358 0.984 . S
H371 N358 0.985 . S
C372 C373 1.363 . S
C372 C378 1.379 . S
C372 N380 1.356 . S
C373 C372 1.363 . S
C373 C379 1.363 . S
C374 C375 1.363 . S
C374 C379 1.379 . S
C374 N381 1.356 . S
C375 C374 1.363 . S
C375 C378 1.363 . S
N376 C378 1.356 . S
N376 H388 0.984 . S
N376 H389 0.985 . S
N377 C379 1.356 . S
N377 H382 0.984 . S
N377 H383 0.985 . S
C378 C372 1.379 . S
C378 C375 1.363 . S
C378 N376 1.356 . S
C379 C373 1.363 . S
C379 C374 1.379 . S
C379 N377 1.356 . S
N380 C372 1.356 . S
N380 H386 0.984 . S
N380 H387 0.984 . S
N381 C374 1.356 . S
N381 H384 0.984 . S
N381 H385 0.985 . S
H382 N377 0.984 . S
H383 N377 0.985 . S
H384 N381 0.984 . S
H385 N381 0.985 . S
H386 N380 0.984 . S
H387 N380 0.984 . S
H388 N376 0.984 . S
H389 N376 0.985 . S
C390 C391 1.363 . S
C390 C396 1.379 . S
C390 N398 1.356 . S
C391 C390 1.363 . S
C391 C397 1.363 . S
C392 C393 1.363 . S
C392 C397 1.379 . S
C392 N399 1.356 . S
C393 C392 1.363 . S
C393 C396 1.363 . S
N394 C396 1.356 . S
N394 H406 0.984 . S
N394 H407 0.985 . S
N395 C397 1.356 . S
N395 H400 0.984 . S
N395 H401 0.985 . S
C396 C390 1.379 . S
C396 C393 1.363 . S
C396 N394 1.356 . S
C397 C391 1.363 . S
C397 C392 1.379 . S
C397 N395 1.356 . S
N398 C390 1.356 . S
N398 H404 0.984 . S
N398 H405 0.984 . S
N399 C392 1.356 . S
N399 H402 0.984 . S
N399 H403 0.985 . S
H400 N395 0.984 . S
H401 N395 0.985 . S
H402 N399 0.984 . S
H403 N399 0.985 . S
H404 N398 0.984 . S
H405 N398 0.984 . S
H406 N394 0.984 . S
H407 N394 0.985 . S
C408 C409 1.363 . S
C408 C414 1.379 . S
C408 N416 1.356 . S
C409 C408 1.363 . S
C409 C415 1.363 . S
C410 C411 1.363 . S
C410 C415 1.379 . S
C410 N417 1.356 . S
C411 C410 1.363 . S
C411 C414 1.363 . S
N412 C414 1.356 . S
N412 H424 0.984 . S
N412 H425 0.985 . S
N413 C415 1.356 . S
N413 H418 0.984 . S
N413 H419 0.985 . S
C414 C408 1.379 . S
C414 C411 1.363 . S
C414 N412 1.356 . S
C415 C409 1.363 . S
C415 C410 1.379 . S
C415 N413 1.356 . S
N416 C408 1.356 . S
N416 H422 0.984 . S
N416 H423 0.984 . S
N417 C410 1.356 . S
N417 H420 0.984 1_455 S
N417 H421 0.985 1_455 S
H418 N413 0.984 . S
H419 N413 0.985 . S
H420 N417 0.984 1_655 S
H421 N417 0.985 1_655 S
H422 N416 0.984 . S
H423 N416 0.984 . S
H424 N412 0.984 . S
H425 N412 0.985 . S
C426 C427 1.363 1_455 S
C426 C432 1.379 . S
C426 N434 1.356 1_455 S
C427 C426 1.363 1_655 S
C427 C433 1.363 1_655 S
C428 C429 1.363 . S
C428 C433 1.379 . S
C428 N435 1.356 . S
C429 C428 1.363 . S
C429 C432 1.363 . S
N430 C432 1.356 . S
N430 H442 0.984 . S
N430 H443 0.985 . S
N431 C433 1.356 1_655 S
N431 H436 0.984 . S
N431 H437 0.985 . S
C432 C426 1.379 . S
C432 C429 1.363 . S
C432 N430 1.356 . S
C433 C427 1.363 1_455 S
C433 C428 1.379 . S
C433 N431 1.356 1_455 S
N434 C426 1.356 1_655 S
N434 H440 0.989 . S
N434 H441 0.984 . S
N435 C428 1.356 . S
N435 H438 0.984 . S
N435 H439 0.985 . S
H436 N431 0.984 . S
H437 N431 0.985 . S
H438 N435 0.984 . S
H439 N435 0.985 . S
H440 N434 0.989 . S
H441 N434 0.984 . S
H442 N430 0.984 . S
H443 N430 0.985 . S
C444 C445 1.363 1_565 S
C444 C450 1.379 . S
C444 N452 1.356 1_565 S
C445 C444 1.363 1_545 S
C445 C451 1.363 1_545 S
C446 C447 1.363 . S
C446 C451 1.379 . S
C446 N453 1.356 . S
C447 C446 1.363 . S
C447 C450 1.363 . S
N448 C450 1.356 . S
N448 H460 0.984 . S
N448 H461 0.985 . S
N449 C451 1.356 1_545 S
N449 H454 0.984 . S
N449 H455 0.985 . S
C450 C444 1.379 . S
C450 C447 1.363 . S
C450 N448 1.356 . S
C451 C445 1.363 1_565 S
C451 C446 1.379 . S
C451 N449 1.356 1_565 S
N452 C444 1.356 1_545 S
N452 H458 0.984 . S
N452 H459 0.984 . S
N453 C446 1.356 . S
N453 H456 0.984 . S
N453 H457 0.985 . S
H454 N449 0.984 . S
H455 N449 0.985 . S
H456 N453 0.984 . S
H457 N453 0.985 . S
H458 N452 0.984 . S
H459 N452 0.984 . S
H460 N448 0.984 . S
H461 N448 0.985 . S
C462 C463 1.363 . S
C462 C468 1.379 . S
C462 N470 1.356 . S
C463 C462 1.363 . S
C463 C469 1.363 . S
C464 C465 1.363 . S
C464 C469 1.379 . S
C464 N471 1.356 . S
C465 C464 1.363 . S
C465 C468 1.363 . S
N466 C468 1.356 . S
N466 H478 0.984 . S
N466 H479 0.985 . S
N467 C469 1.356 . S
N467 H472 0.984 . S
N467 H473 0.985 . S
C468 C462 1.379 . S
C468 C465 1.363 . S
C468 N466 1.356 . S
C469 C463 1.363 . S
C469 C464 1.379 . S
C469 N467 1.356 . S
N470 C462 1.356 . S
N470 H476 0.984 . S
N470 H477 0.984 . S
N471 C464 1.356 . S
N471 H474 0.984 . S
N471 H475 0.985 . S
H472 N467 0.984 . S
H473 N467 0.985 . S
H474 N471 0.984 . S
H475 N471 0.985 . S
H476 N470 0.984 . S
H477 N470 0.984 . S
H478 N466 0.984 . S
H479 N466 0.985 . S
C480 C481 1.363 1_655 S
C480 C486 1.379 . S
C480 N488 1.356 1_655 S
C481 C480 1.363 1_455 S
C481 C487 1.363 1_455 S
C482 C483 1.363 . S
C482 C487 1.379 . S
C482 N489 1.356 . S
C483 C482 1.363 . S
C483 C486 1.363 . S
N484 C486 1.356 . S
N484 H496 0.984 . S
N484 H497 0.985 . S
N485 C487 1.356 1_455 S
N485 H490 0.984 . S
N485 H491 0.985 . S
C486 C480 1.379 . S
C486 C483 1.363 . S
C486 N484 1.356 . S
C487 C481 1.363 1_655 S
C487 C482 1.379 . S
C487 N485 1.356 1_655 S
N488 C480 1.356 1_455 S
N488 H494 0.984 . S
N488 H495 0.984 . S
N489 C482 1.356 . S
N489 H492 0.984 . S
N489 H493 0.985 . S
H490 N485 0.984 . S
H491 N485 0.985 . S
H492 N489 0.984 . S
H493 N489 0.985 . S
H494 N488 0.984 . S
H495 N488 0.984 . S
H496 N484 0.984 . S
H497 N484 0.985 . S
C498 C499 1.363 . S
C498 C504 1.379 . S
C498 N506 1.356 . S
C499 C498 1.363 . S
C499 C505 1.363 . S
C500 C501 1.363 1_545 S
C500 C505 1.379 . S
C500 N507 1.356 1_545 S
C501 C500 1.363 1_565 S
C501 C504 1.363 1_565 S
N502 C504 1.356 1_565 S
N502 H514 0.984 . S
N502 H515 0.985 . S
N503 C505 1.356 . S
N503 H508 0.984 1_655 S
N503 H509 0.985 1_655 S
C504 C498 1.379 . S
C504 C501 1.363 1_545 S
C504 N502 1.356 1_545 S
C505 C499 1.363 . S
C505 C500 1.379 . S
C505 N503 1.356 . S
N506 C498 1.356 . S
N506 H512 0.984 . S
N506 H513 0.984 . S
N507 C500 1.356 1_565 S
N507 H510 0.984 . S
N507 H511 0.985 . S
H508 N503 0.984 1_455 S
H509 N503 0.985 1_455 S
H510 N507 0.984 . S
H511 N507 0.985 . S
H512 N506 0.984 . S
H513 N506 0.984 . S
H514 N502 0.984 . S
H515 N502 0.985 . S
C193 N146 1.830 . S
C195 N13 1.830 . S
C211 N178 1.688 . S
C213 N45 1.688 . S
C229 N77 1.830 . S
C231 N114 1.830 . S
C247 N18 1.688 . S
C249 N141 1.688 . S
C265 N173 1.830 . S
C267 N50 1.830 . S
C283 N82 1.688 . S
C285 N109 1.688 . S
C301 C6 1.383 . S
C303 C93 1.415 . S
C319 C34 1.383 . S
C321 C29 1.415 . S
C337 C70 1.382 . S
C339 C36 1.415 . S
C355 C98 1.383 . S
C357 C132 1.415 . S
C373 C130 1.382 . S
C375 C189 1.415 . S
C391 C100 1.415 . S
C393 C166 1.383 . S
C409 C4 1.108 . S
C411 C66 1.086 . S
C427 C61 1.108 . S
C429 C2 1.086 . S
C445 C68 1.109 . S
C447 C38 1.086 . S
C463 C125 1.108 . S
C465 C134 1.086 . S
C481 C157 1.109 . S
C483 C162 1.086 . S
C499 C102 1.086 . S
C501 C164 1.108 . S
