# Generated by pormake.
# Topology uon, (4)-cn, num edge types: 1
# Building blocks:
#     Node 0, Type 0, BuildingBlock: KOZSID_clean_sbu_0, # of connection points: 4
#     Node 1, Type 0, BuildingBlock: KOZSID_clean_sbu_0, # of connection points: 4
#     Node 2, Type 0, BuildingBlock: KOZSID_clean_sbu_0, # of connection points: 4
#     Node 3, Type 0, BuildingBlock: KOZSID_clean_sbu_0, # of connection points: 4
#     Node 4, Type 0, BuildingBlock: KOZSID_clean_sbu_0, # of connection points: 4
#     Node 5, Type 0, BuildingBlock: KOZSID_clean_sbu_0, # of connection points: 4
#     Edge 6, Type (0, 0), BuildingBlock: CIFDUS_clean_linker_0, # of connection points: 2
#     Edge 7, Type (0, 0), BuildingBlock: CIFDUS_clean_linker_0, # of connection points: 2
#     Edge 8, Type (0, 0), BuildingBlock: CIFDUS_clean_linker_0, # of connection points: 2
#     Edge 9, Type (0, 0), BuildingBlock: CIFDUS_clean_linker_0, # of connection points: 2
#     Edge 10, Type (0, 0), BuildingBlock: CIFDUS_clean_linker_0, # of connection points: 2
#     Edge 11, Type (0, 0), BuildingBlock: CIFDUS_clean_linker_0, # of connection points: 2
#     Edge 12, Type (0, 0), BuildingBlock: CIFDUS_clean_linker_0, # of connection points: 2
#     Edge 13, Type (0, 0), BuildingBlock: CIFDUS_clean_linker_0, # of connection points: 2
#     Edge 14, Type (0, 0), BuildingBlock: CIFDUS_clean_linker_0, # of connection points: 2
#     Edge 15, Type (0, 0), BuildingBlock: CIFDUS_clean_linker_0, # of connection points: 2
#     Edge 16, Type (0, 0), BuildingBlock: CIFDUS_clean_linker_0, # of connection points: 2
#     Edge 17, Type (0, 0), BuildingBlock: CIFDUS_clean_linker_0, # of connection points: 2
# Relax obj value: 0.068
# Max RMSD: 0.128
# Mean RMSD: 0.128
data_MOF--net-uon--node1-KOZSID_clean_sbu_0--edge1-CIFDUS_clean_linker_0
_symmetry_space_group_name_H-M    P1
_symmetry_Int_Tables_number       1
_symmetry_cell_setting            triclinic
loop_
_symmetry_equiv_pos_as_xyz
'x, y, z'
_cell_length_a     34.172961
_cell_length_b     34.14356
_cell_length_c     29.940317
_cell_angle_alpha  90.131468
_cell_angle_beta   90.074622
_cell_angle_gamma 120.0624
loop_
_atom_site_label
_atom_site_type_symbol
_atom_site_fract_x
_atom_site_fract_y
_atom_site_fract_z
_atom_type_partial_charge
C0 C 0.13823 0.34754 0.03894 0.0
C1 C 0.0935 0.32624 0.02484 0.0
C2 C 0.09318 0.34494 0.98474 0.0
C3 C 0.13753 0.37629 0.97665 0.0
N4 N 0.1663 0.37827 1.00877 0.0
Co5 Co 0.23354 0.41939 0.01063 0.0
N6 N 0.23204 0.45279 0.95616 0.0
C7 C 0.19495 0.44476 0.93251 0.0
C8 C 0.20418 0.47253 0.8964 0.0
C9 C 0.24991 0.50017 0.89699 0.0
C10 C 0.26607 0.48781 0.93383 0.0
N11 N 0.30104 0.45954 0.01146 0.0
C12 C 0.32881 0.49343 0.98345 0.0
C13 C 0.37384 0.51186 0.99575 0.0
C14 C 0.37462 0.48847 0.03235 0.0
C15 C 0.33023 0.45727 0.04046 0.0
N16 N 0.23441 0.38707 0.06629 0.0
C17 C 0.27121 0.39486 0.09023 0.0
C18 C 0.26099 0.37024 0.12892 0.0
C19 C 0.21483 0.34599 0.13032 0.0
C20 C 0.19959 0.35718 0.09217 0.0
N21 N 0.24134 0.3756 0.97225 0.0
C22 C 0.25856 0.31965 0.91471 0.0
C23 C 0.27829 0.33193 0.95712 0.0
C24 C 0.26921 0.35944 0.98504 0.0
C25 C 0.22899 0.33492 0.90226 0.0
C26 C 0.2208 0.3623 0.93123 0.0
N27 N 0.22621 0.46306 0.04895 0.0
C28 C 0.25069 0.51518 0.11165 0.0
C29 C 0.21431 0.5227 0.10606 0.0
C30 C 0.18413 0.49978 0.0709 0.0
C31 C 0.19081 0.47068 0.04285 0.0
C32 C 0.25583 0.48548 0.0832 0.0
H33 H 0.16677 0.4544 0.01655 0.0
H34 H 0.2841 0.48114 0.08966 0.0
H35 H 0.28559 0.36737 0.01666 0.0
H36 H 0.19815 0.37273 0.91925 0.0
C37 C 0.15233 0.40854 0.94285 0.0
C38 C 0.15184 0.34007 0.08274 0.0
C39 C 0.3141 0.50969 0.94536 0.0
C40 C 0.31468 0.42727 0.07651 0.0
H41 H 0.06402 0.30108 0.04259 0.0
H42 H 0.06386 0.3382 0.96503 0.0
H43 H 0.18059 0.47195 0.87187 0.0
H44 H 0.26916 0.52594 0.87247 0.0
H45 H 0.40313 0.53956 0.98011 0.0
H46 H 0.40403 0.494 0.05119 0.0
H47 H 0.2843 0.37093 0.15385 0.0
H48 H 0.19459 0.32341 0.1568 0.0
H49 H 0.30063 0.32028 0.96902 0.0
H50 H 0.21288 0.32677 0.86974 0.0
H51 H 0.27572 0.53257 0.13753 0.0
H52 H 0.15503 0.50374 0.06513 0.0
C53 C 0.78444 0.13424 0.36637 0.0
C54 C 0.75889 0.08966 0.35224 0.0
C55 C 0.74288 0.09086 0.31056 0.0
C56 C 0.75962 0.13595 0.30168 0.0
N57 N 0.78548 0.16313 0.335 0.0
Co58 Co 0.8155 0.23012 0.33698 0.0
N59 N 0.77522 0.23077 0.28926 0.0
C60 C 0.74722 0.19542 0.26319 0.0
C61 C 0.72215 0.20519 0.2343 0.0
C62 C 0.73592 0.24978 0.2418 0.0
C63 C 0.76929 0.26501 0.27454 0.0
N64 N 0.8468 0.29751 0.33806 0.0
C65 C 0.83719 0.32659 0.31627 0.0
C66 C 0.87098 0.37114 0.32342 0.0
C67 C 0.90309 0.36983 0.34974 0.0
C68 C 0.88741 0.32478 0.3572 0.0
N69 N 0.85435 0.22849 0.38558 0.0
C70 C 0.89392 0.26321 0.39973 0.0
C71 C 0.91151 0.25193 0.43556 0.0
C72 C 0.88087 0.20734 0.44447 0.0
C73 C 0.84636 0.19398 0.41342 0.0
N74 N 0.85963 0.23456 0.29199 0.0
C75 C 0.93713 0.26096 0.2398 0.0
C76 C 0.92514 0.22831 0.27339 0.0
C77 C 0.88593 0.21524 0.29889 0.0
C78 C 0.90696 0.27618 0.23003 0.0
C79 C 0.86877 0.26269 0.25627 0.0
N80 N 0.77263 0.22675 0.38255 0.0
C81 C 0.75984 0.25387 0.45229 0.0
C82 C 0.71401 0.2204 0.45188 0.0
C83 C 0.69811 0.19052 0.4152 0.0
C84 C 0.72781 0.1945 0.38082 0.0
C85 C 0.78837 0.25615 0.41788 0.0
H86 H 0.7146 0.17105 0.35322 0.0
H87 H 0.82347 0.28165 0.42033 0.0
H88 H 0.87835 0.19147 0.32575 0.0
H89 H 0.84843 0.27757 0.24892 0.0
C90 C 0.74301 0.15285 0.26891 0.0
C91 C 0.80719 0.1482 0.40963 0.0
C92 C 0.80034 0.31336 0.28363 0.0
C93 C 0.90821 0.30704 0.38444 0.0
H94 H 0.75169 0.05951 0.3706 0.0
H95 H 0.71923 0.06217 0.29063 0.0
H96 H 0.69699 0.18266 0.21051 0.0
H97 H 0.72454 0.26955 0.22348 0.0
H98 H 0.87317 0.40145 0.30971 0.0
H99 H 0.93428 0.39836 0.36176 0.0
H100 H 0.94169 0.27406 0.45449 0.0
H101 H 0.88342 0.18719 0.47093 0.0
H102 H 0.94703 0.21489 0.28157 0.0
H103 H 0.91381 0.30012 0.20332 0.0
H104 H 0.77395 0.27866 0.47893 0.0
H105 H 0.66318 0.16372 0.4132 0.0
C106 C 0.66213 0.79519 0.70561 0.0
C107 C 0.68284 0.77165 0.69032 0.0
C108 C 0.66408 0.75401 0.64971 0.0
C109 C 0.63318 0.76779 0.64255 0.0
N110 N 0.63174 0.79402 0.67565 0.0
Co111 Co 0.59001 0.81926 0.67997 0.0
N112 N 0.55698 0.78678 0.62416 0.0
C113 C 0.56506 0.75871 0.59886 0.0
C114 C 0.53635 0.74037 0.56318 0.0
C115 C 0.50869 0.75836 0.56528 0.0
C116 C 0.52257 0.78726 0.60199 0.0
N117 N 0.54834 0.84474 0.68403 0.0
C118 C 0.51609 0.84151 0.65505 0.0
C119 C 0.4975 0.86741 0.66923 0.0
C120 C 0.51862 0.88765 0.70834 0.0
C121 C 0.54908 0.87339 0.7158 0.0
N122 N 0.62284 0.85109 0.73627 0.0
C123 C 0.61518 0.87935 0.76174 0.0
C124 C 0.64044 0.89299 0.80023 0.0
C125 C 0.66494 0.87134 0.79988 0.0
C126 C 0.65317 0.84571 0.76104 0.0
N127 N 0.63241 0.87277 0.64331 0.0
C128 C 0.68027 0.94808 0.58638 0.0
C129 C 0.6668 0.95312 0.62889 0.0
C130 C 0.64375 0.91563 0.65664 0.0
C131 C 0.67208 0.90514 0.57379 0.0
C132 C 0.64817 0.86813 0.60258 0.0
N133 N 0.54755 0.76626 0.71667 0.0
C134 C 0.50348 0.73698 0.78417 0.0
C135 C 0.49125 0.69248 0.77291 0.0
C136 C 0.50775 0.6858 0.73237 0.0
C137 C 0.53591 0.72285 0.70522 0.0
C138 C 0.53051 0.77264 0.75564 0.0
H139 H 0.54811 0.71567 0.67526 0.0
H140 H 0.53765 0.80526 0.7663 0.0
H141 H 0.63439 0.92229 0.68824 0.0
H142 H 0.64171 0.83594 0.59069 0.0
C143 C 0.60113 0.75181 0.60834 0.0
C144 C 0.66974 0.81489 0.75023 0.0
C145 C 0.50354 0.81612 0.61286 0.0
C146 C 0.58057 0.88837 0.75086 0.0
H147 H 0.70757 0.76625 0.7076 0.0
H148 H 0.67041 0.73173 0.62903 0.0
H149 H 0.53614 0.71735 0.53813 0.0
H150 H 0.48192 0.75164 0.5418 0.0
H151 H 0.47209 0.87217 0.65257 0.0
H152 H 0.51335 0.9111 0.72826 0.0
H153 H 0.63955 0.9144 0.82646 0.0
H154 H 0.68777 0.87298 0.82587 0.0
H155 H 0.67328 0.98595 0.64046 0.0
H156 H 0.68227 0.89974 0.54117 0.0
H157 H 0.49301 0.74493 0.81535 0.0
H158 H 0.49896 0.65219 0.72124 0.0
C159 C 0.87171 0.65218 0.03896 0.0
C160 C 0.916 0.6731 0.02406 0.0
C161 C 0.91425 0.65911 0.98067 0.0
C162 C 0.86912 0.63054 0.97173 0.0
N163 N 0.84261 0.62607 1.00667 0.0
Co164 Co 0.77612 0.58705 0.00977 0.0
N165 N 0.77576 0.54863 0.95976 0.0
C166 C 0.80962 0.56031 0.93027 0.0
C167 C 0.7995 0.52823 0.89784 0.0
C168 C 0.75637 0.49458 0.90698 0.0
C169 C 0.74238 0.50793 0.94482 0.0
N170 N 0.70933 0.54871 0.01258 0.0
C171 C 0.68121 0.50827 0.9929 0.0
C172 C 0.63646 0.49418 1.0032 0.0
C173 C 0.63671 0.52765 0.02888 0.0
C174 C 0.68142 0.56016 0.03327 0.0
N175 N 0.77767 0.62559 0.06012 0.0
C176 C 0.7428 0.62922 0.0757 0.0
C177 C 0.75425 0.65624 0.11321 0.0
C178 C 0.799 0.67004 0.1216 0.0
C179 C 0.81221 0.65058 0.08869 0.0
N180 N 0.76832 0.62646 0.96697 0.0
C181 C 0.74234 0.67814 0.9148 0.0
C182 C 0.7763 0.69885 0.94745 0.0
C183 C 0.78887 0.67235 0.97319 0.0
C184 C 0.72445 0.6319 0.90676 0.0
C185 C 0.73779 0.60694 0.93287 0.0
N186 N 0.78256 0.54748 0.05299 0.0
C187 C 0.75975 0.50761 0.12292 0.0
C188 C 0.79311 0.49539 0.11957 0.0
C189 C 0.82048 0.50897 0.08119 0.0
C190 C 0.81459 0.53493 0.04826 0.0
C191 C 0.75521 0.53354 0.08971 0.0
H192 H 0.83633 0.54546 0.01938 0.0
H193 H 0.7297 0.54281 0.0943 0.0
H194 H 0.81374 0.68859 0.99934 0.0
H195 H 0.72137 0.57122 0.92655 0.0
C196 C 0.8517 0.59954 0.93641 0.0
C197 C 0.85787 0.65737 0.08367 0.0
C198 C 0.69528 0.48479 0.96086 0.0
C199 C 0.69873 0.59863 0.06103 0.0
H200 H 0.94625 0.69525 0.04287 0.0
H201 H 0.94268 0.66641 0.95939 0.0
H202 H 0.82091 0.5291 0.8708 0.0
H203 H 0.73697 0.4646 0.88677 0.0
H204 H 0.60663 0.46337 0.99254 0.0
H205 H 0.60776 0.52776 0.04337 0.0
H206 H 0.73207 0.66274 0.13374 0.0
H207 H 0.81936 0.69136 0.14891 0.0
H208 H 0.79143 0.73467 0.95449 0.0
H209 H 0.69901 0.61459 0.88115 0.0
H210 H 0.73684 0.49706 0.15104 0.0
H211 H 0.84684 0.50052 0.07698 0.0
C212 C 0.22367 0.86921 0.375 0.0
C213 C 0.24732 0.91368 0.36038 0.0
C214 C 0.25979 0.91228 0.31712 0.0
C215 C 0.243 0.86719 0.30784 0.0
N216 N 0.22065 0.84026 0.34247 0.0
Co217 Co 0.19201 0.77341 0.34424 0.0
N218 N 0.22831 0.77295 0.29264 0.0
C219 C 0.25184 0.80766 0.26439 0.0
C220 C 0.27421 0.79804 0.23208 0.0
C221 C 0.26349 0.7543 0.2399 0.0
C222 C 0.23454 0.73934 0.27639 0.0
N223 N 0.16257 0.70629 0.34574 0.0
C224 C 0.17334 0.6779 0.3242 0.0
C225 C 0.14143 0.63304 0.33282 0.0
C226 C 0.10947 0.6335 0.36009 0.0
C227 C 0.12339 0.6784 0.36662 0.0
N228 N 0.15629 0.77457 0.39593 0.0
C229 C 0.11785 0.73949 0.41146 0.0
C230 C 0.10189 0.75056 0.44874 0.0
C231 C 0.13234 0.79542 0.45705 0.0
C232 C 0.16514 0.80915 0.42423 0.0
N233 N 0.14425 0.76759 0.30309 0.0
C234 C 0.06984 0.75185 0.24955 0.0
C235 C 0.0859 0.78482 0.28343 0.0
C236 C 0.12296 0.79204 0.30987 0.0
C237 C 0.09297 0.72825 0.24216 0.0
C238 C 0.13003 0.7368 0.26886 0.0
N239 N 0.239 0.77874 0.38589 0.0
C240 C 0.25835 0.75523 0.45428 0.0
C241 C 0.30349 0.79037 0.45145 0.0
C242 C 0.31573 0.81867 0.41378 0.0
C243 C 0.2832 0.81197 0.38128 0.0
C244 C 0.22686 0.75041 0.4218 0.0
H245 H 0.29364 0.83441 0.35296 0.0
H246 H 0.19234 0.72405 0.42636 0.0
H247 H 0.13378 0.81676 0.33643 0.0
H248 H 0.1465 0.71762 0.26213 0.0
C249 C 0.25602 0.85005 0.27199 0.0
C250 C 0.20337 0.85533 0.4193 0.0
C251 C 0.20964 0.69181 0.29098 0.0
C252 C 0.10344 0.69564 0.39571 0.0
H253 H 0.25523 0.94387 0.37921 0.0
H254 H 0.28091 0.94088 0.29602 0.0
H255 H 0.29625 0.82035 0.20633 0.0
H256 H 0.27482 0.73527 0.22019 0.0
H257 H 0.14052 0.60305 0.31967 0.0
H258 H 0.07984 0.60453 0.3738 0.0
H259 H 0.07296 0.72819 0.46888 0.0
H260 H 0.13079 0.81555 0.48421 0.0
H261 H 0.06923 0.80406 0.29032 0.0
H262 H 0.08257 0.70323 0.21574 0.0
H263 H 0.24692 0.7313 0.48155 0.0
H264 H 0.34988 0.84653 0.4097 0.0
C265 C 0.36157 0.22544 0.70131 0.0
C266 C 0.34008 0.24811 0.68587 0.0
C267 C 0.35392 0.26011 0.64256 0.0
C268 C 0.38307 0.24425 0.63413 0.0
N269 N 0.38796 0.22264 0.66928 0.0
Co270 Co 0.42848 0.19681 0.67323 0.0
N271 N 0.46557 0.23399 0.62219 0.0
C272 C 0.45423 0.25717 0.5936 0.0
C273 C 0.48711 0.28126 0.56263 0.0
C274 C 0.5208 0.27181 0.57148 0.0
C275 C 0.50626 0.24178 0.60713 0.0
N276 N 0.46848 0.17012 0.67707 0.0
C277 C 0.50726 0.18079 0.65487 0.0
C278 C 0.52159 0.15027 0.66502 0.0
C279 C 0.49037 0.1191 0.69369 0.0
C280 C 0.45866 0.13206 0.69952 0.0
N281 N 0.39142 0.16078 0.7246 0.0
C282 C 0.38943 0.12345 0.74154 0.0
C283 C 0.36299 0.10829 0.77925 0.0
C284 C 0.34782 0.13828 0.78641 0.0
C285 C 0.36599 0.17003 0.75262 0.0
N286 N 0.38895 0.14757 0.63181 0.0
C287 C 0.33805 0.06778 0.58159 0.0
C288 C 0.31741 0.08054 0.61467 0.0
C289 C 0.34348 0.12074 0.63931 0.0
C290 C 0.38357 0.09767 0.57208 0.0
C291 C 0.40812 0.13688 0.5973 0.0
N292 N 0.46803 0.24504 0.71505 0.0
C293 C 0.50689 0.2668 0.78594 0.0
C294 C 0.52123 0.31257 0.77819 0.0
C295 C 0.50832 0.32349 0.73748 0.0
C296 C 0.48145 0.28935 0.70678 0.0
C297 C 0.48121 0.23401 0.75392 0.0
H298 H 0.47138 0.29885 0.67644 0.0
H299 H 0.47134 0.19943 0.76119 0.0
H300 H 0.3273 0.12912 0.66562 0.0
H301 H 0.44327 0.15729 0.58978 0.0
C302 C 0.41458 0.25904 0.59949 0.0
C303 C 0.35738 0.2076 0.7465 0.0
C304 C 0.5274 0.21476 0.6191 0.0
C305 C 0.42089 0.11103 0.72777 0.0
H306 H 0.31792 0.25638 0.70421 0.0
H307 H 0.34642 0.28101 0.62113 0.0
H308 H 0.48672 0.30316 0.53676 0.0
H309 H 0.55152 0.28369 0.55232 0.0
H310 H 0.55058 0.14943 0.65174 0.0
H311 H 0.4906 0.09022 0.70822 0.0
H312 H 0.35778 0.08061 0.80068 0.0
H313 H 0.32647 0.13738 0.81353 0.0
H314 H 0.28207 0.05878 0.6228 0.0
H315 H 0.40077 0.09019 0.54594 0.0
H316 H 0.51462 0.25578 0.81687 0.0
H317 H 0.519 0.35817 0.72892 0.0
H318 H 0.33979 0.32322 0.90176 0.0
H319 H 0.20086 0.2528 0.85709 0.0
H320 H 0.2184 0.21019 0.80314 0.0
H321 H 0.27396 0.1948 0.76612 0.0
H322 H 0.41249 0.26484 0.81054 0.0
H323 H 0.39425 0.30467 0.86784 0.0
C324 C 0.3131 0.29807 0.88078 0.0
C325 C 0.26904 0.29172 0.88351 0.0
C326 C 0.32338 0.27337 0.8498 0.0
C327 C 0.23524 0.25926 0.85536 0.0
C328 C 0.24516 0.23454 0.82461 0.0
C329 C 0.29987 0.21843 0.78881 0.0
C330 C 0.34445 0.22706 0.78435 0.0
C331 C 0.28918 0.24163 0.82115 0.0
C332 C 0.37792 0.25765 0.81369 0.0
C333 C 0.36752 0.28057 0.84619 0.0
H334 H 0.98194 0.21991 0.20394 0.0
H335 H 0.99332 0.35037 0.22465 0.0
H336 H 0.0627 0.38663 0.18125 0.0
H337 H 0.11723 0.3811 0.13229 0.0
H338 H 0.10723 0.25189 0.11007 0.0
H339 H 0.04102 0.2154 0.15945 0.0
C340 C 0.99999 0.2563 0.19941 0.0
C341 C 0.98182 0.28218 0.21682 0.0
C342 C 0.04023 0.27721 0.17408 0.0
C343 C 1.00581 0.32941 0.2107 0.0
C344 C 0.04571 0.35031 0.18606 0.0
C345 C 0.10099 0.34511 0.13917 0.0
C346 C 0.11697 0.31911 0.11822 0.0
C347 C 0.06275 0.32452 0.16685 0.0
C348 C 0.09556 0.27245 0.12651 0.0
C349 C 0.0576 0.25165 0.15442 0.0
H350 H 0.73278 0.11605 0.46077 0.0
H351 H 0.84934 0.10216 0.43669 0.0
H352 H 0.82025 0.038 0.48859 0.0
H353 H 0.75955 0.98385 0.53911 0.0
H354 H 0.64399 0.9998 0.56356 0.0
H355 H 0.67433 0.0647 0.51334 0.0
C356 C 0.75208 0.09938 0.46769 0.0
C357 C 0.79343 0.11409 0.44585 0.0
C358 C 0.73492 0.06247 0.4972 0.0
C359 C 0.81789 0.09187 0.45408 0.0
C360 C 0.80101 0.05497 0.48334 0.0
C361 C 0.74112 1.00157 0.53324 0.0
C362 C 0.69954 0.98699 0.55492 0.0
C363 C 0.75923 0.03956 0.50475 0.0
C364 C 0.67614 0.0105 0.54741 0.0
C365 C 0.69346 0.04762 0.5187 0.0
H366 H 0.78679 0.76067 0.87222 0.0
H367 H 0.65353 0.65054 0.90325 0.0
H368 H 0.61939 0.68464 0.85779 0.0
H369 H 0.62702 0.74283 0.80464 0.0
H370 H 0.7592 0.85276 0.77187 0.0
H371 H 0.79413 0.82233 0.82252 0.0
C372 C 0.75031 0.74459 0.86949 0.0
C373 C 0.72285 0.70273 0.89068 0.0
C374 C 0.73066 0.76433 0.84275 0.0
C375 C 0.67555 0.68229 0.88668 0.0
C376 C 0.6559 0.70183 0.86075 0.0
C377 C 0.66341 0.76039 0.80933 0.0
C378 C 0.69064 0.79998 0.78507 0.0
C379 C 0.68306 0.74234 0.83796 0.0
C380 C 0.73775 0.82238 0.79071 0.0
C381 C 0.75763 0.80484 0.81945 0.0
H382 H 0.91842 0.74042 0.11773 0.0
H383 H 0.86972 0.59799 0.13273 0.0
H384 H 0.9299 0.61423 0.18677 0.0
H385 H 0.99946 0.66919 0.22588 0.0
H386 H 0.04913 0.81206 0.21093 0.0
H387 H 0.98557 0.79569 0.16143 0.0
C388 C 0.9206 0.71311 0.13374 0.0
C389 C 0.88957 0.66805 0.12185 0.0
C390 C 0.95577 0.72287 0.16442 0.0
C391 C 0.893 0.63282 0.14192 0.0
C392 C 0.92757 0.64216 0.17254 0.0
C393 C 0.99637 0.69678 0.21182 0.0
C394 C 0.02938 0.74185 0.22185 0.0
C395 C 0.95971 0.68707 0.18337 0.0
C396 C 0.02426 0.77709 0.20397 0.0
C397 C 0.98796 0.76773 0.17547 0.0
H398 H 0.25269 0.0239 0.54401 0.0
H399 H 0.37016 0.01053 0.56687 0.0
H400 H 0.33742 0.94201 0.52158 0.0
H401 H 0.27833 0.88892 0.47026 0.0
H402 H 0.16051 0.90073 0.44646 0.0
H403 H 0.18981 0.96603 0.49738 0.0
C404 C 0.27071 0.00555 0.53961 0.0
C405 C 0.31427 0.023 0.55822 0.0
C406 C 0.25161 0.9658 0.51316 0.0
C407 C 0.33709 0.99862 0.55215 0.0
C408 C 0.31833 0.95923 0.52634 0.0
C409 C 0.25877 0.90534 0.47709 0.0
C410 C 0.21721 0.88995 0.45532 0.0
C411 C 0.27611 0.94302 0.5059 0.0
C412 C 0.19231 0.91173 0.46359 0.0
C413 C 0.20925 0.94923 0.4924 0.0
H414 H 0.18333 0.6701 0.20451 0.0
H415 H 0.23942 0.63404 0.31516 0.0
H416 H 0.24426 0.57729 0.26856 0.0
H417 H 0.23387 0.53923 0.19577 0.0
H418 H 0.18214 0.5795 0.08392 0.0
H419 H 0.17385 0.63276 0.13156 0.0
C420 C 0.19678 0.64985 0.21823 0.0
C421 C 0.21157 0.65649 0.26295 0.0
C422 C 0.20011 0.61797 0.19103 0.0
C423 C 0.22822 0.62967 0.28071 0.0
C424 C 0.23099 0.59733 0.25405 0.0
C425 C 0.22121 0.5599 0.18152 0.0
C426 C 0.20862 0.55488 0.13595 0.0
C427 C 0.21742 0.59146 0.20899 0.0
C428 C 0.1914 0.58164 0.1188 0.0
C429 C 0.18697 0.61256 0.14601 0.0
H430 H 0.61515 0.23375 0.62632 0.0
H431 H 0.5031 0.18314 0.53426 0.0
H432 H 0.55 0.17948 0.47488 0.0
H433 H 0.62393 0.19468 0.44782 0.0
H434 H 0.73483 0.23918 0.54114 0.0
H435 H 0.68766 0.24152 0.60071 0.0
C436 C 0.6011 0.22157 0.59332 0.0
C437 C 0.55599 0.20941 0.58451 0.0
C438 C 0.62818 0.21888 0.55929 0.0
C439 C 0.53792 0.19322 0.54174 0.0
C440 C 0.56472 0.19111 0.50773 0.0
C441 C 0.63778 0.2041 0.48125 0.0
C442 C 0.68348 0.21759 0.48925 0.0
C443 C 0.61009 0.20439 0.51592 0.0
C444 C 0.70037 0.22999 0.53316 0.0
C445 C 0.67323 0.23098 0.5676 0.0
H446 H 0.42497 0.68535 0.82983 0.0
H447 H 0.49049 0.61187 0.78549 0.0
H448 H 0.44221 0.54944 0.83478 0.0
H449 H 0.38052 0.51502 0.89069 0.0
H450 H 0.32114 0.59222 0.93951 0.0
H451 H 0.36921 0.65463 0.88955 0.0
C452 C 0.42977 0.65634 0.83135 0.0
C453 C 0.46176 0.65393 0.80338 0.0
C454 C 0.4031 0.62116 0.86108 0.0
C455 C 0.46578 0.61484 0.80554 0.0
C456 C 0.43843 0.57911 0.83424 0.0
C457 C 0.37877 0.54587 0.89071 0.0
C458 C 0.34738 0.54919 0.91852 0.0
C459 C 0.40692 0.58185 0.86216 0.0
C460 C 0.3451 0.5891 0.9183 0.0
C461 C 0.37241 0.62461 0.88963 0.0
H462 H 0.81363 0.4275 0.11213 0.0
H463 H 0.78481 0.50273 0.20986 0.0
H464 H 0.78454 0.45372 0.26898 0.0
H465 H 0.78876 0.38663 0.293 0.0
H466 H 0.82248 0.31484 0.19613 0.0
H467 H 0.82509 0.36537 0.13713 0.0
C468 C 0.80806 0.43376 0.1464 0.0
C469 C 0.79831 0.46837 0.15604 0.0
C470 C 0.80853 0.40572 0.18063 0.0
C471 C 0.79107 0.47561 0.20094 0.0
C472 C 0.79118 0.44771 0.235 0.0
C473 C 0.797 0.38245 0.259 0.0
C474 C 0.80473 0.34672 0.2488 0.0
C475 C 0.79908 0.41213 0.2252 0.0
C476 C 0.81584 0.34179 0.2047 0.0
C477 C 0.8174 0.37072 0.17093 0.0
H478 H 0.3956 0.82408 0.44468 0.0
H479 H 0.28737 0.77291 0.54136 0.0
H480 H 0.33906 0.77694 0.5993 0.0
H481 H 0.41455 0.79142 0.62256 0.0
H482 H 0.52418 0.84925 0.52831 0.0
H483 H 0.47279 0.84716 0.47 0.0
C484 C 0.3832 0.81452 0.47847 0.0
C485 C 0.33685 0.79701 0.48772 0.0
C486 C 0.41359 0.81821 0.51244 0.0
C487 C 0.32216 0.78481 0.53219 0.0
C488 C 0.35192 0.78759 0.56579 0.0
C489 C 0.42725 0.8044 0.58948 0.0
C490 C 0.47302 0.8204 0.57968 0.0
C491 C 0.39757 0.8036 0.55624 0.0
C492 C 0.48902 0.83675 0.53656 0.0
C493 C 0.45961 0.8354 0.50321 0.0
H494 H 0.58167 0.31288 0.83965 0.0
H495 H 0.52412 0.39361 0.79478 0.0
H496 H 0.57165 0.45287 0.84752 0.0
H497 H 0.63163 0.48335 0.90505 0.0
H498 H 0.68351 0.39995 0.95484 0.0
H499 H 0.63492 0.33953 0.9025 0.0
C500 C 0.57842 0.34279 0.84176 0.0
C501 C 0.54921 0.34832 0.81223 0.0
C502 C 0.60472 0.37633 0.8735 0.0
C503 C 0.54694 0.38834 0.81564 0.0
C504 C 0.57383 0.42229 0.84635 0.0
C505 C 0.63133 0.45144 0.90516 0.0
C506 C 0.66065 0.44576 0.93405 0.0
C507 C 0.60306 0.41681 0.87523 0.0
C508 C 0.6608 0.40473 0.93323 0.0
C509 C 0.63328 0.37041 0.90311 0.0
loop_
_geom_bond_atom_site_label_1
_geom_bond_atom_site_label_2
_geom_bond_distance
_geom_bond_site_symmetry_2
_ccdc_geom_bond_type
C0 C1 1.443 . S
C0 N4 1.376 . S
C0 C38 1.389 . S
C1 C0 1.443 . S
C1 C2 1.340 1_554 S
C1 H41 0.951 . S
C2 C1 1.340 1_556 S
C2 C3 1.439 . S
C2 H42 0.950 . S
C3 C2 1.439 . S
C3 N4 1.374 1_556 S
C3 C37 1.395 . S
N4 C0 1.376 . S
N4 C3 1.374 1_554 S
N4 Co5 2.008 . S
Co5 N4 2.008 . S
Co5 N6 1.995 1_554 S
Co5 N11 2.008 . S
Co5 N16 1.995 . S
Co5 N21 2.282 1_554 S
Co5 N27 2.282 . S
N6 Co5 1.995 1_556 S
N6 C7 1.376 . S
N6 C10 1.383 . S
C7 N6 1.376 . S
C7 C8 1.446 . S
C7 C37 1.391 . S
C8 C7 1.446 . S
C8 C9 1.339 . S
C8 H43 0.949 . S
C9 C8 1.339 . S
C9 C10 1.439 . S
C9 H44 0.950 . S
C10 N6 1.383 . S
C10 C9 1.439 . S
C10 C39 1.392 . S
N11 Co5 2.008 . S
N11 C12 1.376 1_554 S
N11 C15 1.374 . S
C12 N11 1.376 1_556 S
C12 C13 1.443 . S
C12 C39 1.389 . S
C13 C12 1.443 . S
C13 C14 1.340 1_556 S
C13 H45 0.951 . S
C14 C13 1.340 1_554 S
C14 C15 1.439 . S
C14 H46 0.950 . S
C15 N11 1.374 . S
C15 C14 1.439 . S
C15 C40 1.395 . S
N16 Co5 1.995 . S
N16 C17 1.376 . S
N16 C20 1.383 . S
C17 N16 1.376 . S
C17 C18 1.446 . S
C17 C40 1.391 . S
C18 C17 1.446 . S
C18 C19 1.339 . S
C18 H47 0.949 . S
C19 C18 1.339 . S
C19 C20 1.439 . S
C19 H48 0.950 . S
C20 N16 1.383 . S
C20 C19 1.439 . S
C20 C38 1.392 . S
N21 Co5 2.282 1_556 S
N21 C24 1.332 . S
N21 C26 1.332 . S
C22 C23 1.386 . S
C22 C25 1.388 . S
C23 C22 1.386 . S
C23 C24 1.382 . S
C23 H49 0.950 . S
C24 N21 1.332 . S
C24 C23 1.382 . S
C24 H35 0.952 1_556 S
C25 C22 1.388 . S
C25 C26 1.382 . S
C25 H50 0.950 . S
C26 N21 1.332 . S
C26 C25 1.382 . S
C26 H36 0.948 . S
N27 Co5 2.282 . S
N27 C31 1.332 . S
N27 C32 1.332 . S
C28 C29 1.388 . S
C28 C32 1.382 . S
C28 H51 0.950 . S
C29 C28 1.388 . S
C29 C30 1.386 . S
C30 C29 1.386 . S
C30 C31 1.382 . S
C30 H52 0.950 . S
C31 N27 1.332 . S
C31 C30 1.382 . S
C31 H33 0.952 . S
C32 N27 1.332 . S
C32 C28 1.382 . S
C32 H34 0.948 . S
H33 C31 0.952 . S
H34 C32 0.948 . S
H35 C24 0.952 1_554 S
H36 C26 0.948 . S
C37 C3 1.395 . S
C37 C7 1.391 . S
C38 C0 1.389 . S
C38 C20 1.392 . S
C39 C10 1.392 . S
C39 C12 1.389 . S
C40 C15 1.395 . S
C40 C17 1.391 . S
H41 C1 0.951 . S
H42 C2 0.950 . S
H43 C8 0.949 . S
H44 C9 0.950 . S
H45 C13 0.951 . S
H46 C14 0.950 . S
H47 C18 0.949 . S
H48 C19 0.950 . S
H49 C23 0.950 . S
H50 C25 0.950 . S
H51 C28 0.950 . S
H52 C30 0.950 . S
C53 C54 1.443 . S
C53 N57 1.376 . S
C53 C91 1.389 . S
C54 C53 1.443 . S
C54 C55 1.340 . S
C54 H94 0.951 . S
C55 C54 1.340 . S
C55 C56 1.439 . S
C55 H95 0.950 . S
C56 C55 1.439 . S
C56 N57 1.374 . S
C56 C90 1.395 . S
N57 C53 1.376 . S
N57 C56 1.374 . S
N57 Co58 2.008 . S
Co58 N57 2.008 . S
Co58 N59 1.995 . S
Co58 N64 2.008 . S
Co58 N69 1.995 . S
Co58 N74 2.282 . S
Co58 N80 2.282 . S
N59 Co58 1.995 . S
N59 C60 1.376 . S
N59 C63 1.383 . S
C60 N59 1.376 . S
C60 C61 1.446 . S
C60 C90 1.391 . S
C61 C60 1.446 . S
C61 C62 1.339 . S
C61 H96 0.949 . S
C62 C61 1.339 . S
C62 C63 1.439 . S
C62 H97 0.950 . S
C63 N59 1.383 . S
C63 C62 1.439 . S
C63 C92 1.392 . S
N64 Co58 2.008 . S
N64 C65 1.376 . S
N64 C68 1.374 . S
C65 N64 1.376 . S
C65 C66 1.443 . S
C65 C92 1.389 . S
C66 C65 1.443 . S
C66 C67 1.340 . S
C66 H98 0.951 . S
C67 C66 1.340 . S
C67 C68 1.439 . S
C67 H99 0.950 . S
C68 N64 1.374 . S
C68 C67 1.439 . S
C68 C93 1.395 . S
N69 Co58 1.995 . S
N69 C70 1.376 . S
N69 C73 1.383 . S
C70 N69 1.376 . S
C70 C71 1.446 . S
C70 C93 1.391 . S
C71 C70 1.446 . S
C71 C72 1.339 . S
C71 H100 0.949 . S
C72 C71 1.339 . S
C72 C73 1.439 . S
C72 H101 0.950 . S
C73 N69 1.383 . S
C73 C72 1.439 . S
C73 C91 1.392 . S
N74 Co58 2.282 . S
N74 C77 1.332 . S
N74 C79 1.332 . S
C75 C76 1.386 . S
C75 C78 1.388 . S
C76 C75 1.386 . S
C76 C77 1.382 . S
C76 H102 0.950 . S
C77 N74 1.332 . S
C77 C76 1.382 . S
C77 H88 0.952 . S
C78 C75 1.388 . S
C78 C79 1.382 . S
C78 H103 0.950 . S
C79 N74 1.332 . S
C79 C78 1.382 . S
C79 H89 0.948 . S
N80 Co58 2.282 . S
N80 C84 1.332 . S
N80 C85 1.332 . S
C81 C82 1.388 . S
C81 C85 1.382 . S
C81 H104 0.950 . S
C82 C81 1.388 . S
C82 C83 1.386 . S
C83 C82 1.386 . S
C83 C84 1.382 . S
C83 H105 0.950 . S
C84 N80 1.332 . S
C84 C83 1.382 . S
C84 H86 0.952 . S
C85 N80 1.332 . S
C85 C81 1.382 . S
C85 H87 0.948 . S
H86 C84 0.952 . S
H87 C85 0.948 . S
H88 C77 0.952 . S
H89 C79 0.948 . S
C90 C56 1.395 . S
C90 C60 1.391 . S
C91 C53 1.389 . S
C91 C73 1.392 . S
C92 C63 1.392 . S
C92 C65 1.389 . S
C93 C68 1.395 . S
C93 C70 1.391 . S
H94 C54 0.951 . S
H95 C55 0.950 . S
H96 C61 0.949 . S
H97 C62 0.950 . S
H98 C66 0.951 . S
H99 C67 0.950 . S
H100 C71 0.949 . S
H101 C72 0.950 . S
H102 C76 0.950 . S
H103 C78 0.950 . S
H104 C81 0.950 . S
H105 C83 0.950 . S
C106 C107 1.443 . S
C106 N110 1.376 . S
C106 C144 1.389 . S
C107 C106 1.443 . S
C107 C108 1.340 . S
C107 H147 0.951 . S
C108 C107 1.340 . S
C108 C109 1.439 . S
C108 H148 0.950 . S
C109 C108 1.439 . S
C109 N110 1.374 . S
C109 C143 1.395 . S
N110 C106 1.376 . S
N110 C109 1.374 . S
N110 Co111 2.008 . S
Co111 N110 2.008 . S
Co111 N112 1.995 . S
Co111 N117 2.008 . S
Co111 N122 1.995 . S
Co111 N127 2.282 . S
Co111 N133 2.282 . S
N112 Co111 1.995 . S
N112 C113 1.376 . S
N112 C116 1.383 . S
C113 N112 1.376 . S
C113 C114 1.446 . S
C113 C143 1.391 . S
C114 C113 1.446 . S
C114 C115 1.339 . S
C114 H149 0.949 . S
C115 C114 1.339 . S
C115 C116 1.439 . S
C115 H150 0.950 . S
C116 N112 1.383 . S
C116 C115 1.439 . S
C116 C145 1.392 . S
N117 Co111 2.008 . S
N117 C118 1.376 . S
N117 C121 1.374 . S
C118 N117 1.376 . S
C118 C119 1.443 . S
C118 C145 1.389 . S
C119 C118 1.443 . S
C119 C120 1.340 . S
C119 H151 0.951 . S
C120 C119 1.340 . S
C120 C121 1.439 . S
C120 H152 0.950 . S
C121 N117 1.374 . S
C121 C120 1.439 . S
C121 C146 1.395 . S
N122 Co111 1.995 . S
N122 C123 1.376 . S
N122 C126 1.383 . S
C123 N122 1.376 . S
C123 C124 1.446 . S
C123 C146 1.391 . S
C124 C123 1.446 . S
C124 C125 1.339 . S
C124 H153 0.949 . S
C125 C124 1.339 . S
C125 C126 1.439 . S
C125 H154 0.950 . S
C126 N122 1.383 . S
C126 C125 1.439 . S
C126 C144 1.392 . S
N127 Co111 2.282 . S
N127 C130 1.332 . S
N127 C132 1.332 . S
C128 C129 1.386 . S
C128 C131 1.388 . S
C129 C128 1.386 . S
C129 C130 1.382 . S
C129 H155 0.950 . S
C130 N127 1.332 . S
C130 C129 1.382 . S
C130 H141 0.952 . S
C131 C128 1.388 . S
C131 C132 1.382 . S
C131 H156 0.950 . S
C132 N127 1.332 . S
C132 C131 1.382 . S
C132 H142 0.948 . S
N133 Co111 2.282 . S
N133 C137 1.332 . S
N133 C138 1.332 . S
C134 C135 1.388 . S
C134 C138 1.382 . S
C134 H157 0.950 . S
C135 C134 1.388 . S
C135 C136 1.386 . S
C136 C135 1.386 . S
C136 C137 1.382 . S
C136 H158 0.950 . S
C137 N133 1.332 . S
C137 C136 1.382 . S
C137 H139 0.952 . S
C138 N133 1.332 . S
C138 C134 1.382 . S
C138 H140 0.948 . S
H139 C137 0.952 . S
H140 C138 0.948 . S
H141 C130 0.952 . S
H142 C132 0.948 . S
C143 C109 1.395 . S
C143 C113 1.391 . S
C144 C106 1.389 . S
C144 C126 1.392 . S
C145 C116 1.392 . S
C145 C118 1.389 . S
C146 C121 1.395 . S
C146 C123 1.391 . S
H147 C107 0.951 . S
H148 C108 0.950 . S
H149 C114 0.949 . S
H150 C115 0.950 . S
H151 C119 0.951 . S
H152 C120 0.950 . S
H153 C124 0.949 . S
H154 C125 0.950 . S
H155 C129 0.950 . S
H156 C131 0.950 . S
H157 C134 0.950 . S
H158 C136 0.950 . S
C159 C160 1.443 . S
C159 N163 1.376 . S
C159 C197 1.389 . S
C160 C159 1.443 . S
C160 C161 1.340 1_554 S
C160 H200 0.951 . S
C161 C160 1.340 1_556 S
C161 C162 1.439 . S
C161 H201 0.950 . S
C162 C161 1.439 . S
C162 N163 1.374 1_556 S
C162 C196 1.395 . S
N163 C159 1.376 . S
N163 C162 1.374 1_554 S
N163 Co164 2.008 . S
Co164 N163 2.008 . S
Co164 N165 1.995 1_554 S
Co164 N170 2.008 . S
Co164 N175 1.995 . S
Co164 N180 2.282 1_554 S
Co164 N186 2.282 . S
N165 Co164 1.995 1_556 S
N165 C166 1.376 . S
N165 C169 1.383 . S
C166 N165 1.376 . S
C166 C167 1.446 . S
C166 C196 1.391 . S
C167 C166 1.446 . S
C167 C168 1.339 . S
C167 H202 0.949 . S
C168 C167 1.339 . S
C168 C169 1.439 . S
C168 H203 0.950 . S
C169 N165 1.383 . S
C169 C168 1.439 . S
C169 C198 1.392 . S
N170 Co164 2.008 . S
N170 C171 1.376 1_554 S
N170 C174 1.374 . S
C171 N170 1.376 1_556 S
C171 C172 1.443 . S
C171 C198 1.389 . S
C172 C171 1.443 . S
C172 C173 1.340 1_556 S
C172 H204 0.951 . S
C173 C172 1.340 1_554 S
C173 C174 1.439 . S
C173 H205 0.950 . S
C174 N170 1.374 . S
C174 C173 1.439 . S
C174 C199 1.395 . S
N175 Co164 1.995 . S
N175 C176 1.376 . S
N175 C179 1.383 . S
C176 N175 1.376 . S
C176 C177 1.446 . S
C176 C199 1.391 . S
C177 C176 1.446 . S
C177 C178 1.339 . S
C177 H206 0.949 . S
C178 C177 1.339 . S
C178 C179 1.439 . S
C178 H207 0.950 . S
C179 N175 1.383 . S
C179 C178 1.439 . S
C179 C197 1.392 . S
N180 Co164 2.282 1_556 S
N180 C183 1.332 . S
N180 C185 1.332 . S
C181 C182 1.386 . S
C181 C184 1.388 . S
C182 C181 1.386 . S
C182 C183 1.382 . S
C182 H208 0.950 . S
C183 N180 1.332 . S
C183 C182 1.382 . S
C183 H194 0.952 1_556 S
C184 C181 1.388 . S
C184 C185 1.382 . S
C184 H209 0.950 . S
C185 N180 1.332 . S
C185 C184 1.382 . S
C185 H195 0.948 . S
N186 Co164 2.282 . S
N186 C190 1.332 . S
N186 C191 1.332 . S
C187 C188 1.388 . S
C187 C191 1.382 . S
C187 H210 0.950 . S
C188 C187 1.388 . S
C188 C189 1.386 . S
C189 C188 1.386 . S
C189 C190 1.382 . S
C189 H211 0.950 . S
C190 N186 1.332 . S
C190 C189 1.382 . S
C190 H192 0.952 . S
C191 N186 1.332 . S
C191 C187 1.382 . S
C191 H193 0.948 . S
H192 C190 0.952 . S
H193 C191 0.948 . S
H194 C183 0.952 1_554 S
H195 C185 0.948 . S
C196 C162 1.395 . S
C196 C166 1.391 . S
C197 C159 1.389 . S
C197 C179 1.392 . S
C198 C169 1.392 . S
C198 C171 1.389 . S
C199 C174 1.395 . S
C199 C176 1.391 . S
H200 C160 0.951 . S
H201 C161 0.950 . S
H202 C167 0.949 . S
H203 C168 0.950 . S
H204 C172 0.951 . S
H205 C173 0.950 . S
H206 C177 0.949 . S
H207 C178 0.950 . S
H208 C182 0.950 . S
H209 C184 0.950 . S
H210 C187 0.950 . S
H211 C189 0.950 . S
C212 C213 1.443 . S
C212 N216 1.376 . S
C212 C250 1.389 . S
C213 C212 1.443 . S
C213 C214 1.340 . S
C213 H253 0.951 . S
C214 C213 1.340 . S
C214 C215 1.439 . S
C214 H254 0.950 . S
C215 C214 1.439 . S
C215 N216 1.374 . S
C215 C249 1.395 . S
N216 C212 1.376 . S
N216 C215 1.374 . S
N216 Co217 2.008 . S
Co217 N216 2.008 . S
Co217 N218 1.995 . S
Co217 N223 2.008 . S
Co217 N228 1.995 . S
Co217 N233 2.282 . S
Co217 N239 2.282 . S
N218 Co217 1.995 . S
N218 C219 1.376 . S
N218 C222 1.383 . S
C219 N218 1.376 . S
C219 C220 1.446 . S
C219 C249 1.391 . S
C220 C219 1.446 . S
C220 C221 1.339 . S
C220 H255 0.949 . S
C221 C220 1.339 . S
C221 C222 1.439 . S
C221 H256 0.950 . S
C222 N218 1.383 . S
C222 C221 1.439 . S
C222 C251 1.392 . S
N223 Co217 2.008 . S
N223 C224 1.376 . S
N223 C227 1.374 . S
C224 N223 1.376 . S
C224 C225 1.443 . S
C224 C251 1.389 . S
C225 C224 1.443 . S
C225 C226 1.340 . S
C225 H257 0.951 . S
C226 C225 1.340 . S
C226 C227 1.439 . S
C226 H258 0.950 . S
C227 N223 1.374 . S
C227 C226 1.439 . S
C227 C252 1.395 . S
N228 Co217 1.995 . S
N228 C229 1.376 . S
N228 C232 1.383 . S
C229 N228 1.376 . S
C229 C230 1.446 . S
C229 C252 1.391 . S
C230 C229 1.446 . S
C230 C231 1.339 . S
C230 H259 0.949 . S
C231 C230 1.339 . S
C231 C232 1.439 . S
C231 H260 0.950 . S
C232 N228 1.383 . S
C232 C231 1.439 . S
C232 C250 1.392 . S
N233 Co217 2.282 . S
N233 C236 1.332 . S
N233 C238 1.332 . S
C234 C235 1.386 . S
C234 C237 1.388 . S
C235 C234 1.386 . S
C235 C236 1.382 . S
C235 H261 0.950 . S
C236 N233 1.332 . S
C236 C235 1.382 . S
C236 H247 0.952 . S
C237 C234 1.388 . S
C237 C238 1.382 . S
C237 H262 0.950 . S
C238 N233 1.332 . S
C238 C237 1.382 . S
C238 H248 0.948 . S
N239 Co217 2.282 . S
N239 C243 1.332 . S
N239 C244 1.332 . S
C240 C241 1.388 . S
C240 C244 1.382 . S
C240 H263 0.950 . S
C241 C240 1.388 . S
C241 C242 1.386 . S
C242 C241 1.386 . S
C242 C243 1.382 . S
C242 H264 0.950 . S
C243 N239 1.332 . S
C243 C242 1.382 . S
C243 H245 0.952 . S
C244 N239 1.332 . S
C244 C240 1.382 . S
C244 H246 0.948 . S
H245 C243 0.952 . S
H246 C244 0.948 . S
H247 C236 0.952 . S
H248 C238 0.948 . S
C249 C215 1.395 . S
C249 C219 1.391 . S
C250 C212 1.389 . S
C250 C232 1.392 . S
C251 C222 1.392 . S
C251 C224 1.389 . S
C252 C227 1.395 . S
C252 C229 1.391 . S
H253 C213 0.951 . S
H254 C214 0.950 . S
H255 C220 0.949 . S
H256 C221 0.950 . S
H257 C225 0.951 . S
H258 C226 0.950 . S
H259 C230 0.949 . S
H260 C231 0.950 . S
H261 C235 0.950 . S
H262 C237 0.950 . S
H263 C240 0.950 . S
H264 C242 0.950 . S
C265 C266 1.443 . S
C265 N269 1.376 . S
C265 C303 1.389 . S
C266 C265 1.443 . S
C266 C267 1.340 . S
C266 H306 0.951 . S
C267 C266 1.340 . S
C267 C268 1.439 . S
C267 H307 0.950 . S
C268 C267 1.439 . S
C268 N269 1.374 . S
C268 C302 1.395 . S
N269 C265 1.376 . S
N269 C268 1.374 . S
N269 Co270 2.008 . S
Co270 N269 2.008 . S
Co270 N271 1.995 . S
Co270 N276 2.008 . S
Co270 N281 1.995 . S
Co270 N286 2.282 . S
Co270 N292 2.282 . S
N271 Co270 1.995 . S
N271 C272 1.376 . S
N271 C275 1.383 . S
C272 N271 1.376 . S
C272 C273 1.446 . S
C272 C302 1.391 . S
C273 C272 1.446 . S
C273 C274 1.339 . S
C273 H308 0.949 . S
C274 C273 1.339 . S
C274 C275 1.439 . S
C274 H309 0.950 . S
C275 N271 1.383 . S
C275 C274 1.439 . S
C275 C304 1.392 . S
N276 Co270 2.008 . S
N276 C277 1.376 . S
N276 C280 1.374 . S
C277 N276 1.376 . S
C277 C278 1.443 . S
C277 C304 1.389 . S
C278 C277 1.443 . S
C278 C279 1.340 . S
C278 H310 0.951 . S
C279 C278 1.340 . S
C279 C280 1.439 . S
C279 H311 0.950 . S
C280 N276 1.374 . S
C280 C279 1.439 . S
C280 C305 1.395 . S
N281 Co270 1.995 . S
N281 C282 1.376 . S
N281 C285 1.383 . S
C282 N281 1.376 . S
C282 C283 1.446 . S
C282 C305 1.391 . S
C283 C282 1.446 . S
C283 C284 1.339 . S
C283 H312 0.949 . S
C284 C283 1.339 . S
C284 C285 1.439 . S
C284 H313 0.950 . S
C285 N281 1.383 . S
C285 C284 1.439 . S
C285 C303 1.392 . S
N286 Co270 2.282 . S
N286 C289 1.332 . S
N286 C291 1.332 . S
C287 C288 1.386 . S
C287 C290 1.388 . S
C288 C287 1.386 . S
C288 C289 1.382 . S
C288 H314 0.950 . S
C289 N286 1.332 . S
C289 C288 1.382 . S
C289 H300 0.952 . S
C290 C287 1.388 . S
C290 C291 1.382 . S
C290 H315 0.950 . S
C291 N286 1.332 . S
C291 C290 1.382 . S
C291 H301 0.948 . S
N292 Co270 2.282 . S
N292 C296 1.332 . S
N292 C297 1.332 . S
C293 C294 1.388 . S
C293 C297 1.382 . S
C293 H316 0.950 . S
C294 C293 1.388 . S
C294 C295 1.386 . S
C295 C294 1.386 . S
C295 C296 1.382 . S
C295 H317 0.950 . S
C296 N292 1.332 . S
C296 C295 1.382 . S
C296 H298 0.952 . S
C297 N292 1.332 . S
C297 C293 1.382 . S
C297 H299 0.948 . S
H298 C296 0.952 . S
H299 C297 0.948 . S
H300 C289 0.952 . S
H301 C291 0.948 . S
C302 C268 1.395 . S
C302 C272 1.391 . S
C303 C265 1.389 . S
C303 C285 1.392 . S
C304 C275 1.392 . S
C304 C277 1.389 . S
C305 C280 1.395 . S
C305 C282 1.391 . S
H306 C266 0.951 . S
H307 C267 0.950 . S
H308 C273 0.949 . S
H309 C274 0.950 . S
H310 C278 0.951 . S
H311 C279 0.950 . S
H312 C283 0.949 . S
H313 C284 0.950 . S
H314 C288 0.950 . S
H315 C290 0.950 . S
H316 C293 0.950 . S
H317 C295 0.950 . S
H318 C324 0.930 . S
H319 C327 0.930 . S
H320 C328 0.930 . S
H321 C329 0.930 . S
H322 C332 0.930 . S
H323 C333 0.930 . S
C324 H318 0.930 . S
C324 C325 1.355 . S
C324 C326 1.415 . S
C325 C324 1.355 . S
C325 C327 1.419 . S
C326 C324 1.415 . S
C326 C331 1.425 . S
C326 C333 1.409 . S
C327 H319 0.930 . S
C327 C325 1.419 . S
C327 C328 1.362 . S
C328 H320 0.930 . S
C328 C327 1.362 . S
C328 C331 1.409 . S
C329 H321 0.930 . S
C329 C330 1.355 . S
C329 C331 1.415 . S
C330 C329 1.355 . S
C330 C332 1.419 . S
C331 C326 1.425 . S
C331 C328 1.409 . S
C331 C329 1.415 . S
C332 H322 0.930 . S
C332 C330 1.419 . S
C332 C333 1.362 . S
C333 H323 0.930 . S
C333 C326 1.409 . S
C333 C332 1.362 . S
H334 C340 0.930 . S
H335 C343 0.930 . S
H336 C344 0.930 . S
H337 C345 0.930 . S
H338 C348 0.930 . S
H339 C349 0.930 . S
C340 H334 0.930 . S
C340 C341 1.355 . S
C340 C342 1.415 1_655 S
C341 C340 1.355 . S
C341 C343 1.419 . S
C342 C340 1.415 1_455 S
C342 C347 1.425 . S
C342 C349 1.409 . S
C343 H335 0.930 . S
C343 C341 1.419 . S
C343 C344 1.362 . S
C344 H336 0.930 . S
C344 C343 1.362 . S
C344 C347 1.409 1_655 S
C345 H337 0.930 . S
C345 C346 1.355 . S
C345 C347 1.415 . S
C346 C345 1.355 . S
C346 C348 1.419 . S
C347 C342 1.425 . S
C347 C344 1.409 1_455 S
C347 C345 1.415 . S
C348 H338 0.930 . S
C348 C346 1.419 . S
C348 C349 1.362 . S
C349 H339 0.930 . S
C349 C342 1.409 . S
C349 C348 1.362 . S
H350 C356 0.930 . S
H351 C359 0.930 . S
H352 C360 0.930 . S
H353 C361 0.930 . S
H354 C364 0.930 . S
H355 C365 0.930 . S
C356 H350 0.930 . S
C356 C357 1.355 . S
C356 C358 1.415 . S
C357 C356 1.355 . S
C357 C359 1.419 . S
C358 C356 1.415 . S
C358 C363 1.425 . S
C358 C365 1.409 1_545 S
C359 H351 0.930 . S
C359 C357 1.419 . S
C359 C360 1.362 . S
C360 H352 0.930 . S
C360 C359 1.362 . S
C360 C363 1.409 . S
C361 H353 0.930 . S
C361 C362 1.355 . S
C361 C363 1.415 1_565 S
C362 C361 1.355 . S
C362 C364 1.419 . S
C363 C358 1.425 . S
C363 C360 1.409 . S
C363 C361 1.415 1_545 S
C364 H354 0.930 . S
C364 C362 1.419 . S
C364 C365 1.362 . S
C365 H355 0.930 . S
C365 C358 1.409 1_565 S
C365 C364 1.362 . S
H366 C372 0.930 . S
H367 C375 0.930 . S
H368 C376 0.930 . S
H369 C377 0.930 . S
H370 C380 0.930 . S
H371 C381 0.930 . S
C372 H366 0.930 . S
C372 C373 1.355 . S
C372 C374 1.415 . S
C373 C372 1.355 . S
C373 C375 1.419 . S
C374 C372 1.415 . S
C374 C379 1.425 . S
C374 C381 1.409 . S
C375 H367 0.930 . S
C375 C373 1.419 . S
C375 C376 1.362 . S
C376 H368 0.930 . S
C376 C375 1.362 . S
C376 C379 1.409 . S
C377 H369 0.930 . S
C377 C378 1.355 . S
C377 C379 1.415 . S
C378 C377 1.355 . S
C378 C380 1.419 . S
C379 C374 1.425 . S
C379 C376 1.409 . S
C379 C377 1.415 . S
C380 H370 0.930 . S
C380 C378 1.419 . S
C380 C381 1.362 . S
C381 H371 0.930 . S
C381 C374 1.409 . S
C381 C380 1.362 . S
H382 C388 0.930 . S
H383 C391 0.930 . S
H384 C392 0.930 1_455 S
H385 C393 0.930 . S
H386 C396 0.930 . S
H387 C397 0.930 . S
C388 H382 0.930 . S
C388 C389 1.355 . S
C388 C390 1.415 . S
C389 C388 1.355 . S
C389 C391 1.419 . S
C390 C388 1.415 . S
C390 C395 1.425 . S
C390 C397 1.409 . S
C391 H383 0.930 . S
C391 C389 1.419 . S
C391 C392 1.362 . S
C392 H384 0.930 1_655 S
C392 C391 1.362 . S
C392 C395 1.409 . S
C393 H385 0.930 . S
C393 C394 1.355 . S
C393 C395 1.415 1_455 S
C394 C393 1.355 . S
C394 C396 1.419 . S
C395 C390 1.425 . S
C395 C392 1.409 . S
C395 C393 1.415 1_655 S
C396 H386 0.930 . S
C396 C394 1.419 . S
C396 C397 1.362 1_455 S
C397 H387 0.930 . S
C397 C390 1.409 . S
C397 C396 1.362 1_655 S
H398 C404 0.930 1_565 S
H399 C407 0.930 . S
H400 C408 0.930 . S
H401 C409 0.930 . S
H402 C412 0.930 . S
H403 C413 0.930 . S
C404 H398 0.930 1_545 S
C404 C405 1.355 . S
C404 C406 1.415 1_545 S
C405 C404 1.355 . S
C405 C407 1.419 . S
C406 C404 1.415 1_565 S
C406 C411 1.425 . S
C406 C413 1.409 . S
C407 H399 0.930 . S
C407 C405 1.419 . S
C407 C408 1.362 . S
C408 H400 0.930 . S
C408 C407 1.362 . S
C408 C411 1.409 1_545 S
C409 H401 0.930 . S
C409 C410 1.355 . S
C409 C411 1.415 . S
C410 C409 1.355 . S
C410 C412 1.419 . S
C411 C406 1.425 . S
C411 C408 1.409 1_565 S
C411 C409 1.415 . S
C412 H402 0.930 . S
C412 C410 1.419 . S
C412 C413 1.362 . S
C413 H403 0.930 . S
C413 C406 1.409 . S
C413 C412 1.362 . S
H414 C420 0.930 . S
H415 C423 0.930 . S
H416 C424 0.930 . S
H417 C425 0.930 . S
H418 C428 0.930 . S
H419 C429 0.930 . S
C420 H414 0.930 . S
C420 C421 1.355 . S
C420 C422 1.415 . S
C421 C420 1.355 . S
C421 C423 1.419 . S
C422 C420 1.415 . S
C422 C427 1.425 . S
C422 C429 1.409 . S
C423 H415 0.930 . S
C423 C421 1.419 . S
C423 C424 1.362 . S
C424 H416 0.930 . S
C424 C423 1.362 . S
C424 C427 1.409 . S
C425 H417 0.930 . S
C425 C426 1.355 . S
C425 C427 1.415 . S
C426 C425 1.355 . S
C426 C428 1.419 . S
C427 C422 1.425 . S
C427 C424 1.409 . S
C427 C425 1.415 . S
C428 H418 0.930 . S
C428 C426 1.419 . S
C428 C429 1.362 . S
C429 H419 0.930 . S
C429 C422 1.409 . S
C429 C428 1.362 . S
H430 C436 0.930 . S
H431 C439 0.930 . S
H432 C440 0.930 . S
H433 C441 0.930 . S
H434 C444 0.930 . S
H435 C445 0.930 . S
C436 H430 0.930 . S
C436 C437 1.355 . S
C436 C438 1.415 . S
C437 C436 1.355 . S
C437 C439 1.419 . S
C438 C436 1.415 . S
C438 C443 1.425 . S
C438 C445 1.409 . S
C439 H431 0.930 . S
C439 C437 1.419 . S
C439 C440 1.362 . S
C440 H432 0.930 . S
C440 C439 1.362 . S
C440 C443 1.409 . S
C441 H433 0.930 . S
C441 C442 1.355 . S
C441 C443 1.415 . S
C442 C441 1.355 . S
C442 C444 1.419 . S
C443 C438 1.425 . S
C443 C440 1.409 . S
C443 C441 1.415 . S
C444 H434 0.930 . S
C444 C442 1.419 . S
C444 C445 1.362 . S
C445 H435 0.930 . S
C445 C438 1.409 . S
C445 C444 1.362 . S
H446 C452 0.930 . S
H447 C455 0.930 . S
H448 C456 0.930 . S
H449 C457 0.930 . S
H450 C460 0.930 . S
H451 C461 0.930 . S
C452 H446 0.930 . S
C452 C453 1.355 . S
C452 C454 1.415 . S
C453 C452 1.355 . S
C453 C455 1.419 . S
C454 C452 1.415 . S
C454 C459 1.425 . S
C454 C461 1.409 . S
C455 H447 0.930 . S
C455 C453 1.419 . S
C455 C456 1.362 . S
C456 H448 0.930 . S
C456 C455 1.362 . S
C456 C459 1.409 . S
C457 H449 0.930 . S
C457 C458 1.355 . S
C457 C459 1.415 . S
C458 C457 1.355 . S
C458 C460 1.419 . S
C459 C454 1.425 . S
C459 C456 1.409 . S
C459 C457 1.415 . S
C460 H450 0.930 . S
C460 C458 1.419 . S
C460 C461 1.362 . S
C461 H451 0.930 . S
C461 C454 1.409 . S
C461 C460 1.362 . S
H462 C468 0.930 . S
H463 C471 0.930 . S
H464 C472 0.930 . S
H465 C473 0.930 . S
H466 C476 0.930 . S
H467 C477 0.930 . S
C468 H462 0.930 . S
C468 C469 1.355 . S
C468 C470 1.415 . S
C469 C468 1.355 . S
C469 C471 1.419 . S
C470 C468 1.415 . S
C470 C475 1.425 . S
C470 C477 1.409 . S
C471 H463 0.930 . S
C471 C469 1.419 . S
C471 C472 1.362 . S
C472 H464 0.930 . S
C472 C471 1.362 . S
C472 C475 1.409 . S
C473 H465 0.930 . S
C473 C474 1.355 . S
C473 C475 1.415 . S
C474 C473 1.355 . S
C474 C476 1.419 . S
C475 C470 1.425 . S
C475 C472 1.409 . S
C475 C473 1.415 . S
C476 H466 0.930 . S
C476 C474 1.419 . S
C476 C477 1.362 . S
C477 H467 0.930 . S
C477 C470 1.409 . S
C477 C476 1.362 . S
H478 C484 0.930 . S
H479 C487 0.930 . S
H480 C488 0.930 . S
H481 C489 0.930 . S
H482 C492 0.930 . S
H483 C493 0.930 . S
C484 H478 0.930 . S
C484 C485 1.355 . S
C484 C486 1.415 . S
C485 C484 1.355 . S
C485 C487 1.419 . S
C486 C484 1.415 . S
C486 C491 1.425 . S
C486 C493 1.409 . S
C487 H479 0.930 . S
C487 C485 1.419 . S
C487 C488 1.362 . S
C488 H480 0.930 . S
C488 C487 1.362 . S
C488 C491 1.409 . S
C489 H481 0.930 . S
C489 C490 1.355 . S
C489 C491 1.415 . S
C490 C489 1.355 . S
C490 C492 1.419 . S
C491 C486 1.425 . S
C491 C488 1.409 . S
C491 C489 1.415 . S
C492 H482 0.930 . S
C492 C490 1.419 . S
C492 C493 1.362 . S
C493 H483 0.930 . S
C493 C486 1.409 . S
C493 C492 1.362 . S
H494 C500 0.930 . S
H495 C503 0.930 . S
H496 C504 0.930 . S
H497 C505 0.930 . S
H498 C508 0.930 . S
H499 C509 0.930 . S
C500 H494 0.930 . S
C500 C501 1.355 . S
C500 C502 1.415 . S
C501 C500 1.355 . S
C501 C503 1.419 . S
C502 C500 1.415 . S
C502 C507 1.425 . S
C502 C509 1.409 . S
C503 H495 0.930 . S
C503 C501 1.419 . S
C503 C504 1.362 . S
C504 H496 0.930 . S
C504 C503 1.362 . S
C504 C507 1.409 . S
C505 H497 0.930 . S
C505 C506 1.355 . S
C505 C507 1.415 . S
C506 C505 1.355 . S
C506 C508 1.419 . S
C507 C502 1.425 . S
C507 C504 1.409 . S
C507 C505 1.415 . S
C508 H498 0.930 . S
C508 C506 1.419 . S
C508 C509 1.362 . S
C509 H499 0.930 . S
C509 C502 1.409 . S
C509 C508 1.362 . S
C325 C22 1.481 . S
C330 C303 1.470 . S
C341 C75 1.446 . S
C346 C38 1.484 . S
C357 C91 1.486 . S
C362 C128 1.450 . S
C373 C181 1.453 . S
C378 C144 1.477 . S
C389 C197 1.464 . S
C394 C234 1.475 . S
C405 C287 1.450 . S
C410 C250 1.486 . S
C421 C251 1.511 . S
C426 C29 1.488 . S
C437 C304 1.503 . S
C442 C82 1.515 . S
C453 C135 1.513 . S
C458 C39 1.496 . S
C469 C188 1.503 . S
C474 C92 1.512 . S
C485 C241 1.504 . S
C490 C145 1.511 . S
C501 C294 1.516 . S
C506 C198 1.497 . S
