# Generated by pormake.
# Topology uli, (4)-cn, num edge types: 1
# Building blocks:
#     Node 0, Type 0, BuildingBlock: QUQFOY_clean_sbu_3, # of connection points: 4
#     Node 1, Type 0, BuildingBlock: QUQFOY_clean_sbu_3, # of connection points: 4
#     Node 2, Type 0, BuildingBlock: QUQFOY_clean_sbu_3, # of connection points: 4
#     Node 3, Type 0, BuildingBlock: QUQFOY_clean_sbu_3, # of connection points: 4
#     Node 4, Type 0, BuildingBlock: QUQFOY_clean_sbu_3, # of connection points: 4
#     Node 5, Type 0, BuildingBlock: QUQFOY_clean_sbu_3, # of connection points: 4
#     Node 6, Type 0, BuildingBlock: QUQFOY_clean_sbu_3, # of connection points: 4
#     Node 7, Type 0, BuildingBlock: QUQFOY_clean_sbu_3, # of connection points: 4
#     Node 8, Type 0, BuildingBlock: QUQFOY_clean_sbu_3, # of connection points: 4
#     Node 9, Type 0, BuildingBlock: QUQFOY_clean_sbu_3, # of connection points: 4
#     Node 10, Type 0, BuildingBlock: QUQFOY_clean_sbu_3, # of connection points: 4
#     Node 11, Type 0, BuildingBlock: QUQFOY_clean_sbu_3, # of connection points: 4
#     Node 12, Type 0, BuildingBlock: QUQFOY_clean_sbu_3, # of connection points: 4
#     Node 13, Type 0, BuildingBlock: QUQFOY_clean_sbu_3, # of connection points: 4
#     Node 14, Type 0, BuildingBlock: QUQFOY_clean_sbu_3, # of connection points: 4
#     Node 15, Type 0, BuildingBlock: QUQFOY_clean_sbu_3, # of connection points: 4
#     Node 16, Type 0, BuildingBlock: QUQFOY_clean_sbu_3, # of connection points: 4
#     Node 17, Type 0, BuildingBlock: QUQFOY_clean_sbu_3, # of connection points: 4
#     Node 18, Type 0, BuildingBlock: QUQFOY_clean_sbu_3, # of connection points: 4
#     Node 19, Type 0, BuildingBlock: QUQFOY_clean_sbu_3, # of connection points: 4
#     Node 20, Type 0, BuildingBlock: QUQFOY_clean_sbu_3, # of connection points: 4
#     Node 21, Type 0, BuildingBlock: QUQFOY_clean_sbu_3, # of connection points: 4
#     Node 22, Type 0, BuildingBlock: QUQFOY_clean_sbu_3, # of connection points: 4
#     Node 23, Type 0, BuildingBlock: QUQFOY_clean_sbu_3, # of connection points: 4
#     Node 24, Type 0, BuildingBlock: QUQFOY_clean_sbu_3, # of connection points: 4
#     Node 25, Type 0, BuildingBlock: QUQFOY_clean_sbu_3, # of connection points: 4
#     Node 26, Type 0, BuildingBlock: QUQFOY_clean_sbu_3, # of connection points: 4
#     Node 27, Type 0, BuildingBlock: QUQFOY_clean_sbu_3, # of connection points: 4
#     Node 28, Type 0, BuildingBlock: QUQFOY_clean_sbu_3, # of connection points: 4
#     Node 29, Type 0, BuildingBlock: QUQFOY_clean_sbu_3, # of connection points: 4
#     Node 30, Type 0, BuildingBlock: QUQFOY_clean_sbu_3, # of connection points: 4
#     Node 31, Type 0, BuildingBlock: QUQFOY_clean_sbu_3, # of connection points: 4
#     Node 32, Type 0, BuildingBlock: QUQFOY_clean_sbu_3, # of connection points: 4
#     Node 33, Type 0, BuildingBlock: QUQFOY_clean_sbu_3, # of connection points: 4
#     Node 34, Type 0, BuildingBlock: QUQFOY_clean_sbu_3, # of connection points: 4
#     Node 35, Type 0, BuildingBlock: QUQFOY_clean_sbu_3, # of connection points: 4
#     Node 36, Type 0, BuildingBlock: QUQFOY_clean_sbu_3, # of connection points: 4
#     Node 37, Type 0, BuildingBlock: QUQFOY_clean_sbu_3, # of connection points: 4
#     Node 38, Type 0, BuildingBlock: QUQFOY_clean_sbu_3, # of connection points: 4
#     Node 39, Type 0, BuildingBlock: QUQFOY_clean_sbu_3, # of connection points: 4
#     Node 40, Type 0, BuildingBlock: QUQFOY_clean_sbu_3, # of connection points: 4
#     Node 41, Type 0, BuildingBlock: QUQFOY_clean_sbu_3, # of connection points: 4
#     Node 42, Type 0, BuildingBlock: QUQFOY_clean_sbu_3, # of connection points: 4
#     Node 43, Type 0, BuildingBlock: QUQFOY_clean_sbu_3, # of connection points: 4
#     Node 44, Type 0, BuildingBlock: QUQFOY_clean_sbu_3, # of connection points: 4
#     Node 45, Type 0, BuildingBlock: QUQFOY_clean_sbu_3, # of connection points: 4
#     Node 46, Type 0, BuildingBlock: QUQFOY_clean_sbu_3, # of connection points: 4
#     Node 47, Type 0, BuildingBlock: QUQFOY_clean_sbu_3, # of connection points: 4
#     Edge 48, Type (0, 0), BuildingBlock: KIFKEQ_clean_linker_1, # of connection points: 2
#     Edge 49, Type (0, 0), BuildingBlock: KIFKEQ_clean_linker_1, # of connection points: 2
#     Edge 50, Type (0, 0), BuildingBlock: KIFKEQ_clean_linker_1, # of connection points: 2
#     Edge 51, Type (0, 0), BuildingBlock: KIFKEQ_clean_linker_1, # of connection points: 2
#     Edge 52, Type (0, 0), BuildingBlock: KIFKEQ_clean_linker_1, # of connection points: 2
#     Edge 53, Type (0, 0), BuildingBlock: KIFKEQ_clean_linker_1, # of connection points: 2
#     Edge 54, Type (0, 0), BuildingBlock: KIFKEQ_clean_linker_1, # of connection points: 2
#     Edge 55, Type (0, 0), BuildingBlock: KIFKEQ_clean_linker_1, # of connection points: 2
#     Edge 56, Type (0, 0), BuildingBlock: KIFKEQ_clean_linker_1, # of connection points: 2
#     Edge 57, Type (0, 0), BuildingBlock: KIFKEQ_clean_linker_1, # of connection points: 2
#     Edge 58, Type (0, 0), BuildingBlock: KIFKEQ_clean_linker_1, # of connection points: 2
#     Edge 59, Type (0, 0), BuildingBlock: KIFKEQ_clean_linker_1, # of connection points: 2
#     Edge 60, Type (0, 0), BuildingBlock: KIFKEQ_clean_linker_1, # of connection points: 2
#     Edge 61, Type (0, 0), BuildingBlock: KIFKEQ_clean_linker_1, # of connection points: 2
#     Edge 62, Type (0, 0), BuildingBlock: KIFKEQ_clean_linker_1, # of connection points: 2
#     Edge 63, Type (0, 0), BuildingBlock: KIFKEQ_clean_linker_1, # of connection points: 2
#     Edge 64, Type (0, 0), BuildingBlock: KIFKEQ_clean_linker_1, # of connection points: 2
#     Edge 65, Type (0, 0), BuildingBlock: KIFKEQ_clean_linker_1, # of connection points: 2
#     Edge 66, Type (0, 0), BuildingBlock: KIFKEQ_clean_linker_1, # of connection points: 2
#     Edge 67, Type (0, 0), BuildingBlock: KIFKEQ_clean_linker_1, # of connection points: 2
#     Edge 68, Type (0, 0), BuildingBlock: KIFKEQ_clean_linker_1, # of connection points: 2
#     Edge 69, Type (0, 0), BuildingBlock: KIFKEQ_clean_linker_1, # of connection points: 2
#     Edge 70, Type (0, 0), BuildingBlock: KIFKEQ_clean_linker_1, # of connection points: 2
#     Edge 71, Type (0, 0), BuildingBlock: KIFKEQ_clean_linker_1, # of connection points: 2
#     Edge 72, Type (0, 0), BuildingBlock: KIFKEQ_clean_linker_1, # of connection points: 2
#     Edge 73, Type (0, 0), BuildingBlock: KIFKEQ_clean_linker_1, # of connection points: 2
#     Edge 74, Type (0, 0), BuildingBlock: KIFKEQ_clean_linker_1, # of connection points: 2
#     Edge 75, Type (0, 0), BuildingBlock: KIFKEQ_clean_linker_1, # of connection points: 2
#     Edge 76, Type (0, 0), BuildingBlock: KIFKEQ_clean_linker_1, # of connection points: 2
#     Edge 77, Type (0, 0), BuildingBlock: KIFKEQ_clean_linker_1, # of connection points: 2
#     Edge 78, Type (0, 0), BuildingBlock: KIFKEQ_clean_linker_1, # of connection points: 2
#     Edge 79, Type (0, 0), BuildingBlock: KIFKEQ_clean_linker_1, # of connection points: 2
#     Edge 80, Type (0, 0), BuildingBlock: KIFKEQ_clean_linker_1, # of connection points: 2
#     Edge 81, Type (0, 0), BuildingBlock: KIFKEQ_clean_linker_1, # of connection points: 2
#     Edge 82, Type (0, 0), BuildingBlock: KIFKEQ_clean_linker_1, # of connection points: 2
#     Edge 83, Type (0, 0), BuildingBlock: KIFKEQ_clean_linker_1, # of connection points: 2
#     Edge 84, Type (0, 0), BuildingBlock: KIFKEQ_clean_linker_1, # of connection points: 2
#     Edge 85, Type (0, 0), BuildingBlock: KIFKEQ_clean_linker_1, # of connection points: 2
#     Edge 86, Type (0, 0), BuildingBlock: KIFKEQ_clean_linker_1, # of connection points: 2
#     Edge 87, Type (0, 0), BuildingBlock: KIFKEQ_clean_linker_1, # of connection points: 2
#     Edge 88, Type (0, 0), BuildingBlock: KIFKEQ_clean_linker_1, # of connection points: 2
#     Edge 89, Type (0, 0), BuildingBlock: KIFKEQ_clean_linker_1, # of connection points: 2
#     Edge 90, Type (0, 0), BuildingBlock: KIFKEQ_clean_linker_1, # of connection points: 2
#     Edge 91, Type (0, 0), BuildingBlock: KIFKEQ_clean_linker_1, # of connection points: 2
#     Edge 92, Type (0, 0), BuildingBlock: KIFKEQ_clean_linker_1, # of connection points: 2
#     Edge 93, Type (0, 0), BuildingBlock: KIFKEQ_clean_linker_1, # of connection points: 2
#     Edge 94, Type (0, 0), BuildingBlock: KIFKEQ_clean_linker_1, # of connection points: 2
#     Edge 95, Type (0, 0), BuildingBlock: KIFKEQ_clean_linker_1, # of connection points: 2
#     Edge 96, Type (0, 0), BuildingBlock: KIFKEQ_clean_linker_1, # of connection points: 2
#     Edge 97, Type (0, 0), BuildingBlock: KIFKEQ_clean_linker_1, # of connection points: 2
#     Edge 98, Type (0, 0), BuildingBlock: KIFKEQ_clean_linker_1, # of connection points: 2
#     Edge 99, Type (0, 0), BuildingBlock: KIFKEQ_clean_linker_1, # of connection points: 2
#     Edge 100, Type (0, 0), BuildingBlock: KIFKEQ_clean_linker_1, # of connection points: 2
#     Edge 101, Type (0, 0), BuildingBlock: KIFKEQ_clean_linker_1, # of connection points: 2
#     Edge 102, Type (0, 0), BuildingBlock: KIFKEQ_clean_linker_1, # of connection points: 2
#     Edge 103, Type (0, 0), BuildingBlock: KIFKEQ_clean_linker_1, # of connection points: 2
#     Edge 104, Type (0, 0), BuildingBlock: KIFKEQ_clean_linker_1, # of connection points: 2
#     Edge 105, Type (0, 0), BuildingBlock: KIFKEQ_clean_linker_1, # of connection points: 2
#     Edge 106, Type (0, 0), BuildingBlock: KIFKEQ_clean_linker_1, # of connection points: 2
#     Edge 107, Type (0, 0), BuildingBlock: KIFKEQ_clean_linker_1, # of connection points: 2
#     Edge 108, Type (0, 0), BuildingBlock: KIFKEQ_clean_linker_1, # of connection points: 2
#     Edge 109, Type (0, 0), BuildingBlock: KIFKEQ_clean_linker_1, # of connection points: 2
#     Edge 110, Type (0, 0), BuildingBlock: KIFKEQ_clean_linker_1, # of connection points: 2
#     Edge 111, Type (0, 0), BuildingBlock: KIFKEQ_clean_linker_1, # of connection points: 2
#     Edge 112, Type (0, 0), BuildingBlock: KIFKEQ_clean_linker_1, # of connection points: 2
#     Edge 113, Type (0, 0), BuildingBlock: KIFKEQ_clean_linker_1, # of connection points: 2
#     Edge 114, Type (0, 0), BuildingBlock: KIFKEQ_clean_linker_1, # of connection points: 2
#     Edge 115, Type (0, 0), BuildingBlock: KIFKEQ_clean_linker_1, # of connection points: 2
#     Edge 116, Type (0, 0), BuildingBlock: KIFKEQ_clean_linker_1, # of connection points: 2
#     Edge 117, Type (0, 0), BuildingBlock: KIFKEQ_clean_linker_1, # of connection points: 2
#     Edge 118, Type (0, 0), BuildingBlock: KIFKEQ_clean_linker_1, # of connection points: 2
#     Edge 119, Type (0, 0), BuildingBlock: KIFKEQ_clean_linker_1, # of connection points: 2
#     Edge 120, Type (0, 0), BuildingBlock: KIFKEQ_clean_linker_1, # of connection points: 2
#     Edge 121, Type (0, 0), BuildingBlock: KIFKEQ_clean_linker_1, # of connection points: 2
#     Edge 122, Type (0, 0), BuildingBlock: KIFKEQ_clean_linker_1, # of connection points: 2
#     Edge 123, Type (0, 0), BuildingBlock: KIFKEQ_clean_linker_1, # of connection points: 2
#     Edge 124, Type (0, 0), BuildingBlock: KIFKEQ_clean_linker_1, # of connection points: 2
#     Edge 125, Type (0, 0), BuildingBlock: KIFKEQ_clean_linker_1, # of connection points: 2
#     Edge 126, Type (0, 0), BuildingBlock: KIFKEQ_clean_linker_1, # of connection points: 2
#     Edge 127, Type (0, 0), BuildingBlock: KIFKEQ_clean_linker_1, # of connection points: 2
#     Edge 128, Type (0, 0), BuildingBlock: KIFKEQ_clean_linker_1, # of connection points: 2
#     Edge 129, Type (0, 0), BuildingBlock: KIFKEQ_clean_linker_1, # of connection points: 2
#     Edge 130, Type (0, 0), BuildingBlock: KIFKEQ_clean_linker_1, # of connection points: 2
#     Edge 131, Type (0, 0), BuildingBlock: KIFKEQ_clean_linker_1, # of connection points: 2
#     Edge 132, Type (0, 0), BuildingBlock: KIFKEQ_clean_linker_1, # of connection points: 2
#     Edge 133, Type (0, 0), BuildingBlock: KIFKEQ_clean_linker_1, # of connection points: 2
#     Edge 134, Type (0, 0), BuildingBlock: KIFKEQ_clean_linker_1, # of connection points: 2
#     Edge 135, Type (0, 0), BuildingBlock: KIFKEQ_clean_linker_1, # of connection points: 2
#     Edge 136, Type (0, 0), BuildingBlock: KIFKEQ_clean_linker_1, # of connection points: 2
#     Edge 137, Type (0, 0), BuildingBlock: KIFKEQ_clean_linker_1, # of connection points: 2
#     Edge 138, Type (0, 0), BuildingBlock: KIFKEQ_clean_linker_1, # of connection points: 2
#     Edge 139, Type (0, 0), BuildingBlock: KIFKEQ_clean_linker_1, # of connection points: 2
#     Edge 140, Type (0, 0), BuildingBlock: KIFKEQ_clean_linker_1, # of connection points: 2
#     Edge 141, Type (0, 0), BuildingBlock: KIFKEQ_clean_linker_1, # of connection points: 2
#     Edge 142, Type (0, 0), BuildingBlock: KIFKEQ_clean_linker_1, # of connection points: 2
#     Edge 143, Type (0, 0), BuildingBlock: KIFKEQ_clean_linker_1, # of connection points: 2
# Relax obj value: 0.448
# Max RMSD: 0.153
# Mean RMSD: 0.153
data_MOF--net-uli--node1-QUQFOY_clean_sbu_3--edge1-KIFKEQ_clean_linker_1
_symmetry_space_group_name_H-M    P1
_symmetry_Int_Tables_number       1
_symmetry_cell_setting            triclinic
loop_
_symmetry_equiv_pos_as_xyz
'x, y, z'
_cell_length_a     70.604046
_cell_length_b     70.480978
_cell_length_c     70.349978
_cell_angle_alpha  90.071877
_cell_angle_beta   89.967003
_cell_angle_gamma 90.27186
loop_
_atom_site_label
_atom_site_type_symbol
_atom_site_fract_x
_atom_site_fract_y
_atom_site_fract_z
_atom_type_partial_charge
C0 C 0.10403 0.22836 0.2064 0.0
O1 O 0.11804 0.2383 0.2119 0.0
Cd2 Cd 0.12334 0.27035 0.2026 0.0
O3 O 0.09057 0.23564 0.19687 0.0
Cd4 Cd 0.0794 0.26733 0.18525 0.0
C5 C 0.11471 0.2605 0.15457 0.0
O6 O 0.09479 0.28597 0.20834 0.0
O7 O 0.08373 0.30281 0.18535 0.0
O8 O 0.05579 0.25848 0.20622 0.0
C9 C 0.09259 0.30219 0.20107 0.0
O10 O 0.12522 0.26513 0.16857 0.0
C11 C 0.04217 0.25821 0.19454 0.0
O12 O 0.09679 0.25894 0.15628 0.0
O13 O 0.04529 0.26385 0.17758 0.0
C14 C 0.74847 0.11132 0.20339 0.0
O15 O 0.7374 0.12542 0.20494 0.0
Cd16 Cd 0.70536 0.12732 0.19575 0.0
O17 O 0.74269 0.09562 0.19632 0.0
Cd18 Cd 0.71221 0.08163 0.18405 0.0
C19 C 0.71558 0.11515 0.14935 0.0
O20 O 0.69619 0.09793 0.20692 0.0
O21 O 0.67615 0.08569 0.18762 0.0
O22 O 0.72125 0.05922 0.20719 0.0
C23 C 0.67915 0.09507 0.20279 0.0
O24 O 0.70859 0.12635 0.16168 0.0
C25 C 0.71961 0.04443 0.19713 0.0
O26 O 0.71982 0.09804 0.15357 0.0
O27 O 0.71449 0.0466 0.17986 0.0
C28 C 0.86775 0.75184 0.19571 0.0
O29 O 0.85339 0.74149 0.19199 0.0
Cd30 Cd 0.85345 0.7078 0.18667 0.0
O31 O 0.88448 0.74531 0.19397 0.0
Cd32 Cd 0.89815 0.7149 0.18248 0.0
C33 C 0.86996 0.71263 0.14636 0.0
O34 O 0.87907 0.7001 0.20634 0.0
O35 O 0.89267 0.67972 0.18826 0.0
O36 O 0.92185 0.7232 0.20443 0.0
C37 C 0.88278 0.68295 0.20305 0.0
O38 O 0.86681 0.69827 0.15665 0.0
C39 C 0.93617 0.72142 0.19378 0.0
O40 O 0.88364 0.72334 0.15126 0.0
O41 O 0.93324 0.71657 0.17657 0.0
C42 C 0.22706 0.86862 0.20352 0.0
O43 O 0.23799 0.85465 0.20649 0.0
Cd44 Cd 0.2698 0.85182 0.19646 0.0
O45 O 0.23295 0.88357 0.19511 0.0
Cd46 Cd 0.26372 0.89743 0.18342 0.0
C47 C 0.26239 0.86476 0.14895 0.0
O48 O 0.27972 0.88135 0.20669 0.0
O49 O 0.29959 0.89375 0.18725 0.0
O50 O 0.25327 0.91913 0.20643 0.0
C51 C 0.29671 0.88448 0.20248 0.0
O52 O 0.26697 0.85352 0.16232 0.0
C53 C 0.25541 0.93419 0.19693 0.0
O54 O 0.25869 0.88218 0.15221 0.0
O55 O 0.26152 0.93254 0.17992 0.0
C56 C 0.1107 0.7477 0.77634 0.0
O57 O 0.12451 0.73638 0.77419 0.0
Cd58 Cd 0.12488 0.70433 0.78439 0.0
O59 O 0.0952 0.74208 0.7838 0.0
Cd60 Cd 0.08034 0.71222 0.79569 0.0
C61 C 0.11318 0.71602 0.8304 0.0
O62 O 0.09547 0.69499 0.77246 0.0
O63 O 0.08384 0.67635 0.79364 0.0
O64 O 0.05897 0.72335 0.77278 0.0
C65 C 0.09191 0.6783 0.77759 0.0
O66 O 0.1245 0.70826 0.81865 0.0
C67 C 0.04389 0.72171 0.78236 0.0
O68 O 0.09629 0.72028 0.82565 0.0
O69 O 0.04539 0.71537 0.7993 0.0
C70 C 0.22933 0.10923 0.77423 0.0
O71 O 0.24122 0.12233 0.77073 0.0
Cd72 Cd 0.27308 0.12226 0.78052 0.0
O73 O 0.23437 0.09424 0.783 0.0
Cd74 Cd 0.26442 0.08016 0.79567 0.0
C75 C 0.26289 0.1143 0.8282 0.0
O76 O 0.28245 0.09217 0.77035 0.0
O77 O 0.30008 0.08523 0.79405 0.0
O78 O 0.25407 0.05483 0.77651 0.0
C79 C 0.29894 0.09061 0.77683 0.0
O80 O 0.2697 0.12427 0.81473 0.0
C81 C 0.2553 0.04175 0.78871 0.0
O82 O 0.25793 0.09711 0.82548 0.0
O83 O 0.26138 0.04614 0.8052 0.0
C84 C 0.8731 0.22853 0.7731 0.0
O85 O 0.86131 0.23954 0.76525 0.0
Cd86 Cd 0.85731 0.27119 0.7759 0.0
O87 O 0.88545 0.23485 0.78468 0.0
Cd88 Cd 0.89791 0.26654 0.79465 0.0
C89 C 0.86295 0.26115 0.82476 0.0
O90 O 0.88579 0.28721 0.77093 0.0
O91 O 0.89152 0.30139 0.79741 0.0
O92 O 0.91975 0.25835 0.7713 0.0
C93 C 0.88655 0.30259 0.78009 0.0
O94 O 0.8539 0.26586 0.80984 0.0
C95 C 0.93446 0.25886 0.78156 0.0
O96 O 0.88086 0.2588 0.82435 0.0
O97 O 0.93247 0.26353 0.79903 0.0
C98 C 0.74773 0.86689 0.78271 0.0
O99 O 0.73772 0.85186 0.78361 0.0
Cd100 Cd 0.70494 0.84933 0.79341 0.0
O101 O 0.74103 0.88285 0.78789 0.0
Cd102 Cd 0.71068 0.89698 0.79958 0.0
C103 C 0.70968 0.86887 0.8356 0.0
O104 O 0.69631 0.87661 0.77705 0.0
O105 O 0.6758 0.89387 0.79145 0.0
O106 O 0.72668 0.91634 0.77864 0.0
C107 C 0.67924 0.88125 0.77898 0.0
O108 O 0.69692 0.86273 0.82446 0.0
C109 C 0.723 0.93225 0.78603 0.0
O110 O 0.71752 0.88458 0.83147 0.0
O111 O 0.7124 0.93236 0.80074 0.0
C112 C 0.19975 0.11054 0.23134 0.0
O113 O 0.20453 0.12536 0.24057 0.0
Cd114 Cd 0.19738 0.12873 0.27338 0.0
O115 O 0.19161 0.09644 0.23946 0.0
Cd116 Cd 0.17887 0.08055 0.26938 0.0
C117 C 0.15093 0.11119 0.26471 0.0
O118 O 0.20499 0.09778 0.28354 0.0
O119 O 0.18714 0.08402 0.30415 0.0
O120 O 0.19591 0.06096 0.24929 0.0
C121 C 0.20173 0.09411 0.30075 0.0
O122 O 0.1679 0.11408 0.2693 0.0
C123 C 0.19053 0.04493 0.25521 0.0
O124 O 0.14551 0.09402 0.26505 0.0
O125 O 0.17851 0.04472 0.26877 0.0
C126 C 0.87064 0.20399 0.22943 0.0
O127 O 0.85786 0.20949 0.24084 0.0
Cd128 Cd 0.85623 0.20117 0.27337 0.0
O129 O 0.8849 0.19469 0.23528 0.0
Cd130 Cd 0.89775 0.18427 0.26656 0.0
C131 C 0.86272 0.15278 0.26459 0.0
O132 O 0.88586 0.20886 0.28592 0.0
O133 O 0.89292 0.18385 0.30176 0.0
O134 O 0.92032 0.20651 0.25799 0.0
C135 C 0.88784 0.20114 0.30192 0.0
O136 O 0.85315 0.167 0.27025 0.0
C137 C 0.93476 0.19605 0.2592 0.0
O138 O 0.88024 0.15447 0.26042 0.0
O139 O 0.93223 0.17868 0.26383 0.0
C140 C 0.77476 0.87115 0.23026 0.0
O141 O 0.76795 0.85798 0.24053 0.0
Cd142 Cd 0.77496 0.85521 0.27312 0.0
O143 O 0.78449 0.88472 0.23737 0.0
Cd144 Cd 0.79565 0.89888 0.26826 0.0
C145 C 0.82442 0.86237 0.2657 0.0
O146 O 0.7696 0.88571 0.28381 0.0
O147 O 0.79072 0.89451 0.30384 0.0
O148 O 0.7768 0.92025 0.25232 0.0
C149 C 0.77455 0.88704 0.30091 0.0
O150 O 0.80889 0.85383 0.26928 0.0
C151 C 0.78596 0.93538 0.25541 0.0
O152 O 0.8249 0.88032 0.26325 0.0
O153 O 0.80078 0.93429 0.26578 0.0
C154 C 0.10502 0.77371 0.22911 0.0
O155 O 0.11888 0.76942 0.23973 0.0
Cd156 Cd 0.12186 0.7793 0.27183 0.0
O157 O 0.09078 0.78274 0.23551 0.0
Cd158 Cd 0.07861 0.79542 0.26633 0.0
C159 C 0.11354 0.82751 0.26441 0.0
O160 O 0.09213 0.7704 0.28338 0.0
O161 O 0.08428 0.7933 0.30187 0.0
O162 O 0.05292 0.77511 0.26059 0.0
C163 C 0.09051 0.77647 0.30011 0.0
O164 O 0.12395 0.81367 0.26942 0.0
C165 C 0.03988 0.78727 0.25963 0.0
O166 O 0.09601 0.82513 0.26073 0.0
O167 O 0.04447 0.80462 0.2621 0.0
C168 C 0.20272 0.87189 0.75195 0.0
O169 O 0.20759 0.85811 0.74141 0.0
Cd170 Cd 0.19777 0.85437 0.70939 0.0
O171 O 0.19335 0.88585 0.74543 0.0
Cd172 Cd 0.18133 0.89803 0.71436 0.0
C173 C 0.14944 0.86306 0.71696 0.0
O174 O 0.2058 0.88403 0.69738 0.0
O175 O 0.18325 0.89258 0.67882 0.0
O176 O 0.20356 0.92151 0.72203 0.0
C177 C 0.19987 0.88592 0.68065 0.0
O178 O 0.1636 0.85288 0.71238 0.0
C179 C 0.19297 0.93586 0.72077 0.0
O180 O 0.15132 0.88077 0.72031 0.0
O181 O 0.1756 0.93296 0.71653 0.0
C182 C 0.10674 0.20257 0.75181 0.0
O183 O 0.12154 0.207 0.74253 0.0
Cd184 Cd 0.12607 0.19822 0.71013 0.0
O185 O 0.09285 0.19404 0.74387 0.0
Cd186 Cd 0.08068 0.18176 0.7126 0.0
C187 C 0.11511 0.14974 0.71581 0.0
O188 O 0.09668 0.20624 0.69766 0.0
O189 O 0.08481 0.18717 0.67701 0.0
O190 O 0.05895 0.20173 0.72653 0.0
C191 C 0.09434 0.20215 0.68041 0.0
O192 O 0.12591 0.16388 0.71243 0.0
C193 C 0.04405 0.19204 0.72407 0.0
O194 O 0.09731 0.15173 0.71812 0.0
O195 O 0.04544 0.17659 0.71467 0.0
C196 C 0.77812 0.11066 0.74986 0.0
O197 O 0.77544 0.12588 0.74043 0.0
Cd198 Cd 0.78311 0.13012 0.70727 0.0
O199 O 0.78494 0.09576 0.74205 0.0
Cd200 Cd 0.79671 0.07981 0.7121 0.0
C201 C 0.82615 0.10881 0.71669 0.0
O202 O 0.77419 0.09974 0.69566 0.0
O203 O 0.79076 0.08192 0.67707 0.0
O204 O 0.77341 0.06015 0.72519 0.0
C205 C 0.77786 0.09431 0.67897 0.0
O206 O 0.80993 0.11137 0.70992 0.0
C207 C 0.78157 0.04446 0.72247 0.0
O208 O 0.83106 0.09159 0.71802 0.0
O209 O 0.79782 0.04483 0.71454 0.0
C210 C 0.87012 0.77371 0.75057 0.0
O211 O 0.8572 0.76756 0.73959 0.0
Cd212 Cd 0.85345 0.77884 0.70775 0.0
O213 O 0.88322 0.78456 0.74441 0.0
Cd214 Cd 0.89587 0.79712 0.71362 0.0
C215 C 0.85974 0.82751 0.71693 0.0
O216 O 0.88319 0.77241 0.69447 0.0
O217 O 0.89305 0.7961 0.67796 0.0
O218 O 0.91747 0.77612 0.72616 0.0
C219 C 0.88613 0.77943 0.67827 0.0
O220 O 0.85004 0.81305 0.71186 0.0
C221 C 0.93221 0.78634 0.72554 0.0
O222 O 0.87749 0.82623 0.72014 0.0
O223 O 0.93081 0.80277 0.71799 0.0
C224 C 0.22801 0.20488 0.10831 0.0
O225 O 0.2379 0.20851 0.12294 0.0
Cd226 Cd 0.2702 0.19928 0.12586 0.0
O227 O 0.23508 0.19681 0.09379 0.0
Cd228 Cd 0.26549 0.18445 0.0819 0.0
C229 C 0.25983 0.1521 0.11723 0.0
O230 O 0.28312 0.20851 0.09647 0.0
O231 O 0.30052 0.18503 0.08764 0.0
O232 O 0.25897 0.20684 0.05796 0.0
C233 C 0.29947 0.20186 0.09414 0.0
O234 O 0.26635 0.1651 0.12802 0.0
C235 C 0.25919 0.19574 0.04383 0.0
O236 O 0.25664 0.15519 0.09963 0.0
O237 O 0.26262 0.17826 0.04708 0.0
C238 C 0.22703 0.77391 0.87466 0.0
O239 O 0.23688 0.76886 0.86043 0.0
Cd240 Cd 0.26937 0.77599 0.85659 0.0
O241 O 0.23439 0.7827 0.88872 0.0
Cd242 Cd 0.26561 0.79486 0.90081 0.0
C243 C 0.26206 0.8247 0.86419 0.0
O244 O 0.28122 0.76979 0.88671 0.0
O245 O 0.30112 0.79111 0.89564 0.0
O246 O 0.25556 0.77569 0.92593 0.0
C247 C 0.29823 0.77501 0.88793 0.0
O248 O 0.26629 0.81008 0.85443 0.0
C249 C 0.25664 0.78786 0.9391 0.0
O250 O 0.25951 0.82375 0.88212 0.0
O251 O 0.26291 0.80433 0.93493 0.0
C252 C 0.20308 0.22779 0.87165 0.0
O253 O 0.20669 0.23743 0.85683 0.0
Cd254 Cd 0.19752 0.26954 0.85251 0.0
O255 O 0.19511 0.23522 0.88612 0.0
Cd256 Cd 0.1827 0.26606 0.89887 0.0
C257 C 0.14977 0.2622 0.8642 0.0
O258 O 0.20668 0.2814 0.88198 0.0
O259 O 0.18901 0.30176 0.89589 0.0
O260 O 0.20163 0.25242 0.92265 0.0
C261 C 0.2031 0.29858 0.8851 0.0
O262 O 0.16345 0.26625 0.8531 0.0
C263 C 0.19111 0.25576 0.93681 0.0
O264 O 0.15234 0.25997 0.88203 0.0
O265 O 0.17582 0.26486 0.93387 0.0
C266 C 0.7492 0.20216 0.87148 0.0
O267 O 0.73999 0.20331 0.85601 0.0
Cd268 Cd 0.70798 0.19287 0.85129 0.0
O269 O 0.74159 0.19566 0.88657 0.0
Cd270 Cd 0.71091 0.1825 0.89834 0.0
C271 C 0.71764 0.14724 0.86478 0.0
O272 O 0.69421 0.20397 0.8793 0.0
O273 O 0.67507 0.18605 0.89493 0.0
O274 O 0.71841 0.20535 0.92162 0.0
C275 C 0.67733 0.19958 0.88318 0.0
O276 O 0.71101 0.15878 0.85261 0.0
C277 C 0.71815 0.19479 0.93616 0.0
O278 O 0.72043 0.15226 0.88205 0.0
O279 O 0.71411 0.1773 0.93354 0.0
C280 C 0.7728 0.75087 0.87331 0.0
O281 O 0.76854 0.74052 0.85916 0.0
Cd282 Cd 0.77577 0.70793 0.85661 0.0
O283 O 0.78084 0.74407 0.88798 0.0
Cd284 Cd 0.79215 0.71296 0.89993 0.0
C285 C 0.82381 0.71637 0.86462 0.0
O286 O 0.76732 0.69546 0.88617 0.0
O287 O 0.79111 0.67789 0.89326 0.0
O288 O 0.77093 0.71889 0.9248 0.0
C289 C 0.77408 0.67901 0.88744 0.0
O290 O 0.80981 0.71088 0.85458 0.0
C291 C 0.78246 0.71826 0.93852 0.0
O292 O 0.82188 0.71995 0.88232 0.0
O293 O 0.79981 0.7151 0.93458 0.0
C294 C 0.74893 0.7784 0.11105 0.0
O295 O 0.73776 0.78047 0.12506 0.0
Cd296 Cd 0.70474 0.78881 0.1236 0.0
O297 O 0.74332 0.78214 0.09424 0.0
Cd298 Cd 0.71315 0.79529 0.08097 0.0
C299 C 0.71282 0.83195 0.11111 0.0
O300 O 0.69415 0.77176 0.0967 0.0
O301 O 0.67784 0.79426 0.08425 0.0
O302 O 0.71935 0.77532 0.05483 0.0
C303 C 0.67809 0.77799 0.09206 0.0
O304 O 0.69896 0.82242 0.11754 0.0
C305 C 0.72051 0.78815 0.04234 0.0
O306 O 0.7218 0.82528 0.09695 0.0
O307 O 0.71781 0.80523 0.04752 0.0
C308 C 0.20437 0.74951 0.11077 0.0
O309 O 0.20868 0.73765 0.12361 0.0
Cd310 Cd 0.19851 0.70594 0.12417 0.0
O311 O 0.195 0.74437 0.0961 0.0
Cd312 Cd 0.18294 0.71407 0.08162 0.0
C313 C 0.15055 0.71589 0.11491 0.0
O314 O 0.20767 0.69618 0.09409 0.0
O315 O 0.18368 0.67864 0.08752 0.0
O316 O 0.20458 0.72212 0.05764 0.0
C317 C 0.20093 0.67973 0.09264 0.0
O318 O 0.1647 0.71044 0.12464 0.0
C319 C 0.19374 0.72009 0.04349 0.0
O320 O 0.15235 0.72007 0.09737 0.0
O321 O 0.17652 0.71562 0.04679 0.0
C322 C 0.77675 0.2293 0.11013 0.0
O323 O 0.77208 0.23887 0.12476 0.0
Cd324 Cd 0.77907 0.27181 0.12814 0.0
O325 O 0.78478 0.23702 0.09573 0.0
Cd326 Cd 0.79721 0.26699 0.08014 0.0
C327 C 0.82513 0.26329 0.1109 0.0
O328 O 0.7715 0.28238 0.0971 0.0
O329 O 0.79143 0.30208 0.08484 0.0
O330 O 0.77696 0.25374 0.05678 0.0
C331 C 0.77605 0.29938 0.09393 0.0
O332 O 0.80811 0.26779 0.11318 0.0
C333 C 0.78739 0.25658 0.04247 0.0
O334 O 0.83062 0.26234 0.09379 0.0
O335 O 0.80319 0.26497 0.04514 0.0
C336 C 0.6078 0.73164 0.70894 0.0
O337 O 0.62024 0.74361 0.71417 0.0
Cd338 Cd 0.62349 0.77446 0.70114 0.0
O339 O 0.59456 0.7364 0.69763 0.0
Cd340 Cd 0.58193 0.76723 0.68492 0.0
C341 C 0.61537 0.76313 0.65309 0.0
O342 O 0.59433 0.78808 0.70819 0.0
O343 O 0.58658 0.80253 0.68246 0.0
O344 O 0.56027 0.75998 0.70819 0.0
C345 C 0.59207 0.80358 0.69964 0.0
O346 O 0.62523 0.76868 0.66721 0.0
C347 C 0.54558 0.75891 0.698 0.0
O348 O 0.59772 0.75971 0.65484 0.0
O349 O 0.54727 0.76281 0.68033 0.0
C350 C 0.24761 0.61017 0.70557 0.0
O351 O 0.23684 0.62381 0.71014 0.0
Cd352 Cd 0.20493 0.62594 0.69946 0.0
O353 O 0.24138 0.5958 0.69655 0.0
Cd354 Cd 0.21131 0.58246 0.68466 0.0
C355 C 0.21572 0.61718 0.65198 0.0
O356 O 0.19312 0.59622 0.70883 0.0
O357 O 0.17614 0.58658 0.68528 0.0
O358 O 0.2202 0.56012 0.70771 0.0
C359 C 0.17689 0.59303 0.70216 0.0
O360 O 0.20944 0.62771 0.66527 0.0
C361 C 0.21916 0.5454 0.69747 0.0
O362 O 0.21916 0.59963 0.65484 0.0
O363 O 0.21441 0.54759 0.68008 0.0
C364 C 0.3691 0.24987 0.69986 0.0
O365 O 0.35409 0.23989 0.6993 0.0
Cd366 Cd 0.35325 0.20646 0.69235 0.0
O367 O 0.38508 0.24278 0.69553 0.0
Cd368 Cd 0.39734 0.21196 0.68389 0.0
C369 C 0.36697 0.21108 0.64895 0.0
O370 O 0.38038 0.19649 0.70885 0.0
O371 O 0.39136 0.17703 0.688 0.0
O372 O 0.42117 0.21976 0.70538 0.0
C373 C 0.38341 0.17954 0.70406 0.0
O374 O 0.36119 0.19791 0.65979 0.0
C375 C 0.43526 0.21889 0.69432 0.0
O376 O 0.38199 0.2199 0.65361 0.0
O377 O 0.43212 0.2145 0.67701 0.0
C378 C 0.72744 0.36907 0.69938 0.0
O379 O 0.73713 0.35406 0.69721 0.0
Cd380 Cd 0.77066 0.3517 0.69148 0.0
O381 O 0.73472 0.38541 0.69646 0.0
Cd382 Cd 0.76565 0.39788 0.68437 0.0
C383 C 0.76572 0.36662 0.64889 0.0
O384 O 0.78027 0.37892 0.70771 0.0
O385 O 0.80078 0.39316 0.69012 0.0
O386 O 0.75725 0.42143 0.70604 0.0
C387 C 0.79743 0.38238 0.70426 0.0
O388 O 0.77918 0.36084 0.65927 0.0
C389 C 0.75885 0.4358 0.69539 0.0
O390 O 0.75727 0.38175 0.65392 0.0
O391 O 0.76383 0.43295 0.67819 0.0
C392 C 0.60757 0.24803 0.27512 0.0
O393 O 0.6201 0.23715 0.26823 0.0
Cd394 Cd 0.62233 0.20471 0.27713 0.0
O395 O 0.59417 0.2416 0.28545 0.0
Cd396 Cd 0.57986 0.21096 0.29662 0.0
C397 C 0.61525 0.21394 0.32635 0.0
O398 O 0.59225 0.19206 0.27185 0.0
O399 O 0.58295 0.17556 0.29579 0.0
O400 O 0.55925 0.22382 0.2751 0.0
C401 C 0.58969 0.17589 0.27904 0.0
O402 O 0.624 0.20958 0.31113 0.0
C403 C 0.5442 0.22298 0.28479 0.0
O404 O 0.59743 0.21685 0.32628 0.0
O405 O 0.54505 0.21525 0.30121 0.0
C406 C 0.72944 0.60785 0.27165 0.0
O407 O 0.73962 0.62246 0.26878 0.0
Cd408 Cd 0.77225 0.62425 0.27777 0.0
O409 O 0.73621 0.59304 0.27935 0.0
Cd410 Cd 0.76603 0.58099 0.293 0.0
C411 C 0.76161 0.61675 0.32485 0.0
O412 O 0.78521 0.59461 0.26904 0.0
O413 O 0.80126 0.58598 0.29355 0.0
O414 O 0.76109 0.5546 0.27308 0.0
C415 C 0.80123 0.59225 0.27658 0.0
O416 O 0.76881 0.62726 0.312 0.0
C417 C 0.75833 0.5422 0.28577 0.0
O418 O 0.75771 0.59934 0.32166 0.0
O419 O 0.75974 0.54746 0.30306 0.0
C420 C 0.37058 0.73046 0.27339 0.0
O421 O 0.35651 0.74071 0.26902 0.0
Cd422 Cd 0.35351 0.77321 0.27749 0.0
O423 O 0.38501 0.73741 0.28176 0.0
Cd424 Cd 0.39726 0.7684 0.29329 0.0
C425 C 0.36245 0.76341 0.32529 0.0
O426 O 0.38278 0.78706 0.27009 0.0
O427 O 0.39305 0.8036 0.29374 0.0
O428 O 0.41994 0.76132 0.27033 0.0
C429 C 0.38558 0.80323 0.2773 0.0
O430 O 0.35211 0.76884 0.31152 0.0
C431 C 0.43427 0.76162 0.28111 0.0
O432 O 0.38016 0.76052 0.32311 0.0
O433 O 0.43161 0.76551 0.29866 0.0
C434 C 0.24735 0.36726 0.2821 0.0
O435 O 0.2375 0.35209 0.2826 0.0
Cd436 Cd 0.20495 0.34891 0.29362 0.0
O437 O 0.24049 0.38301 0.28766 0.0
Cd438 Cd 0.21037 0.3972 0.29964 0.0
C439 C 0.21075 0.3694 0.33542 0.0
O440 O 0.1946 0.37621 0.27814 0.0
O441 O 0.17539 0.3953 0.29221 0.0
O442 O 0.22644 0.41615 0.27821 0.0
C443 C 0.17781 0.38172 0.28056 0.0
O444 O 0.19788 0.36342 0.32434 0.0
C445 C 0.22279 0.43215 0.28546 0.0
O446 O 0.21807 0.38546 0.33173 0.0
O447 O 0.21216 0.43246 0.30015 0.0
C448 C 0.70254 0.60799 0.7293 0.0
O449 O 0.70738 0.62248 0.73901 0.0
Cd450 Cd 0.69964 0.62622 0.77152 0.0
O451 O 0.69398 0.59376 0.73671 0.0
Cd452 Cd 0.68086 0.57898 0.76672 0.0
C453 C 0.65275 0.60994 0.76222 0.0
O454 O 0.70629 0.59556 0.78259 0.0
O455 O 0.68537 0.58473 0.80205 0.0
O456 O 0.70229 0.55441 0.75962 0.0
C457 C 0.70119 0.59315 0.79957 0.0
O458 O 0.66987 0.61296 0.76604 0.0
C459 C 0.69071 0.54073 0.75914 0.0
O460 O 0.64775 0.59268 0.76109 0.0
O461 O 0.6734 0.54436 0.76256 0.0
C462 C 0.36953 0.70582 0.73073 0.0
O463 O 0.35641 0.71147 0.74165 0.0
Cd464 Cd 0.35434 0.70252 0.77404 0.0
O465 O 0.38342 0.69627 0.73707 0.0
Cd466 Cd 0.39646 0.68486 0.76804 0.0
C467 C 0.36124 0.65423 0.76424 0.0
O468 O 0.38411 0.70934 0.78706 0.0
O469 O 0.39307 0.68533 0.80349 0.0
O470 O 0.41878 0.70545 0.75652 0.0
C471 C 0.38659 0.70212 0.80326 0.0
O472 O 0.35156 0.66847 0.76967 0.0
C473 C 0.43286 0.69445 0.75705 0.0
O474 O 0.37894 0.65567 0.76098 0.0
O475 O 0.43061 0.67796 0.76424 0.0
C476 C 0.27023 0.36904 0.7317 0.0
O477 O 0.26572 0.35661 0.74397 0.0
Cd478 Cd 0.27638 0.35583 0.77587 0.0
O479 O 0.28016 0.38344 0.73648 0.0
Cd480 Cd 0.29324 0.39728 0.76687 0.0
C481 C 0.32424 0.36189 0.76486 0.0
O482 O 0.26914 0.38597 0.78771 0.0
O483 O 0.29468 0.39349 0.80242 0.0
O484 O 0.27296 0.42144 0.75722 0.0
C485 C 0.27747 0.38823 0.80339 0.0
O486 O 0.31027 0.35248 0.77147 0.0
C487 C 0.28472 0.43501 0.75704 0.0
O488 O 0.32243 0.37926 0.76014 0.0
O489 O 0.30164 0.43158 0.76237 0.0
C490 C 0.6081 0.28018 0.73105 0.0
O491 O 0.62253 0.28436 0.74107 0.0
Cd492 Cd 0.62348 0.29371 0.77394 0.0
O493 O 0.59138 0.28255 0.73748 0.0
Cd494 Cd 0.57822 0.29593 0.76767 0.0
C495 C 0.60678 0.33442 0.76578 0.0
O496 O 0.59813 0.27496 0.78476 0.0
O497 O 0.58134 0.29222 0.80348 0.0
O498 O 0.55409 0.27375 0.76146 0.0
C499 C 0.59316 0.27878 0.80152 0.0
O500 O 0.61434 0.32635 0.77992 0.0
C501 C 0.54038 0.2852 0.76033 0.0
O502 O 0.59253 0.32647 0.75799 0.0
O503 O 0.54389 0.30275 0.76304 0.0
C504 C 0.69902 0.36916 0.25104 0.0
O505 O 0.70233 0.35389 0.24192 0.0
Cd506 Cd 0.69449 0.34856 0.20931 0.0
O507 O 0.69162 0.38368 0.24307 0.0
Cd508 Cd 0.67926 0.39813 0.21251 0.0
C509 C 0.65031 0.36841 0.21634 0.0
O510 O 0.70391 0.37887 0.19798 0.0
O511 O 0.68554 0.39243 0.17768 0.0
O512 O 0.70215 0.42105 0.22051 0.0
C513 C 0.70014 0.38234 0.18082 0.0
O514 O 0.6669 0.36621 0.21039 0.0
C515 C 0.69201 0.43575 0.22014 0.0
O516 O 0.64494 0.3855 0.21725 0.0
O517 O 0.67462 0.43351 0.21584 0.0
C518 C 0.60844 0.70302 0.24988 0.0
O519 O 0.62237 0.70677 0.23906 0.0
Cd520 Cd 0.62485 0.69898 0.20662 0.0
O521 O 0.59336 0.69531 0.2434 0.0
Cd522 Cd 0.57975 0.68394 0.21212 0.0
C523 C 0.61446 0.65168 0.21646 0.0
O524 O 0.59511 0.70827 0.19633 0.0
O525 O 0.58328 0.68888 0.17608 0.0
O526 O 0.55735 0.70342 0.22573 0.0
C527 C 0.59267 0.70402 0.17915 0.0
O528 O 0.62538 0.66495 0.2108 0.0
C529 C 0.54295 0.69287 0.22376 0.0
O530 O 0.59684 0.65446 0.21934 0.0
O531 O 0.54497 0.67724 0.21481 0.0
C532 C 0.27265 0.61054 0.24738 0.0
O533 O 0.26828 0.62405 0.23631 0.0
Cd534 Cd 0.28002 0.62628 0.20474 0.0
O535 O 0.28181 0.59619 0.24145 0.0
Cd536 Cd 0.29353 0.5822 0.21124 0.0
C537 C 0.3266 0.61574 0.21694 0.0
O538 O 0.26972 0.5966 0.1939 0.0
O539 O 0.29152 0.58595 0.17548 0.0
O540 O 0.27103 0.56119 0.2232 0.0
C541 C 0.27523 0.59339 0.17723 0.0
O542 O 0.31399 0.62703 0.21077 0.0
C543 C 0.2804 0.54604 0.22161 0.0
O544 O 0.32307 0.59818 0.21945 0.0
O545 O 0.29712 0.5473 0.21473 0.0
C546 C 0.36503 0.27498 0.24929 0.0
O547 O 0.35184 0.27171 0.23743 0.0
Cd548 Cd 0.35069 0.28189 0.2055 0.0
O549 O 0.37993 0.284 0.24431 0.0
Cd550 Cd 0.39421 0.29663 0.21421 0.0
C551 C 0.35965 0.32945 0.21558 0.0
O552 O 0.3808 0.27241 0.1965 0.0
O553 O 0.39125 0.29438 0.17818 0.0
O554 O 0.41515 0.27407 0.22585 0.0
C555 C 0.38408 0.27789 0.17986 0.0
O556 O 0.34937 0.31605 0.20907 0.0
C557 C 0.43045 0.28327 0.22418 0.0
O558 O 0.37689 0.32659 0.2203 0.0
O559 O 0.42937 0.30019 0.21771 0.0
C560 C 0.72754 0.70395 0.60788 0.0
O561 O 0.73685 0.70685 0.62306 0.0
Cd562 Cd 0.76902 0.69815 0.62774 0.0
O563 O 0.73516 0.69652 0.59322 0.0
Cd564 Cd 0.76582 0.68373 0.58117 0.0
C565 C 0.76161 0.65072 0.61609 0.0
O566 O 0.78117 0.70714 0.59841 0.0
O567 O 0.80152 0.68856 0.58563 0.0
O568 O 0.75942 0.70476 0.55614 0.0
C569 C 0.79832 0.70308 0.59591 0.0
O570 O 0.76621 0.66402 0.62747 0.0
C571 C 0.75844 0.69291 0.54267 0.0
O572 O 0.75911 0.65377 0.59837 0.0
O573 O 0.76135 0.67552 0.54667 0.0
C574 C 0.73043 0.2749 0.36793 0.0
O575 O 0.74193 0.27162 0.35445 0.0
Cd576 Cd 0.77425 0.27994 0.35374 0.0
O577 O 0.73607 0.28282 0.38327 0.0
Cd578 Cd 0.76659 0.29501 0.39747 0.0
C579 C 0.76415 0.32717 0.36232 0.0
O580 O 0.7829 0.26997 0.38398 0.0
O581 O 0.80238 0.29134 0.39344 0.0
O582 O 0.75451 0.27543 0.42094 0.0
C583 C 0.79984 0.27497 0.38622 0.0
O584 O 0.77115 0.3141 0.352 0.0
C585 C 0.75558 0.28664 0.43494 0.0
O586 O 0.75976 0.32416 0.37965 0.0
O587 O 0.76313 0.30289 0.43219 0.0
C588 C 0.70309 0.72944 0.37226 0.0
O589 O 0.70932 0.73966 0.35871 0.0
Cd590 Cd 0.70172 0.77219 0.35516 0.0
O591 O 0.69352 0.73644 0.38601 0.0
Cd592 Cd 0.68099 0.76683 0.40024 0.0
C593 C 0.65288 0.76299 0.36763 0.0
O594 O 0.7068 0.78392 0.38582 0.0
O595 O 0.68373 0.80194 0.39427 0.0
O596 O 0.70264 0.76104 0.42463 0.0
C597 C 0.70044 0.80048 0.3876 0.0
O598 O 0.66992 0.7662 0.36329 0.0
C599 C 0.6914 0.75974 0.43852 0.0
O600 O 0.64884 0.76189 0.38519 0.0
O601 O 0.67383 0.76202 0.4351 0.0
C602 C 0.24882 0.70634 0.37126 0.0
O603 O 0.23805 0.71299 0.35849 0.0
Cd604 Cd 0.20637 0.70265 0.35503 0.0
O605 O 0.24241 0.69585 0.38454 0.0
Cd606 Cd 0.21146 0.68466 0.39746 0.0
C607 C 0.21523 0.65382 0.36287 0.0
O608 O 0.19354 0.70961 0.38464 0.0
O609 O 0.17622 0.6854 0.39138 0.0
O610 O 0.22051 0.70701 0.42038 0.0
C611 C 0.17718 0.70257 0.38589 0.0
O612 O 0.21094 0.66871 0.35361 0.0
C613 C 0.21889 0.69664 0.43494 0.0
O614 O 0.21791 0.65444 0.38079 0.0
O615 O 0.2137 0.67942 0.4324 0.0
C616 C 0.2723 0.25021 0.37343 0.0
O617 O 0.26808 0.23944 0.35958 0.0
Cd618 Cd 0.27552 0.20675 0.35779 0.0
O619 O 0.28081 0.24392 0.38804 0.0
Cd620 Cd 0.29329 0.21327 0.39992 0.0
C621 C 0.32387 0.21428 0.36375 0.0
O622 O 0.26799 0.19503 0.38797 0.0
O623 O 0.29246 0.17808 0.39415 0.0
O624 O 0.27447 0.21778 0.42681 0.0
C625 C 0.27516 0.17875 0.38912 0.0
O626 O 0.30968 0.20855 0.3541 0.0
C627 C 0.28751 0.2199 0.43892 0.0
O628 O 0.32218 0.21875 0.38123 0.0
O629 O 0.30456 0.21852 0.43318 0.0
C630 C 0.24902 0.27292 0.60731 0.0
O631 O 0.23811 0.26875 0.62104 0.0
Cd632 Cd 0.20551 0.27664 0.62281 0.0
O633 O 0.24285 0.28129 0.59253 0.0
Cd634 Cd 0.21205 0.29328 0.57998 0.0
C635 C 0.21388 0.32487 0.61549 0.0
O636 O 0.19278 0.26913 0.593 0.0
O637 O 0.17695 0.29365 0.58454 0.0
O638 O 0.21741 0.2722 0.55533 0.0
C639 C 0.1768 0.27668 0.59063 0.0
O640 O 0.20817 0.31085 0.62541 0.0
C641 C 0.21777 0.28382 0.54165 0.0
O642 O 0.21814 0.32287 0.59796 0.0
O643 O 0.21556 0.30136 0.54555 0.0
C644 C 0.69519 0.25012 0.61066 0.0
O645 O 0.69376 0.24017 0.62566 0.0
Cd646 Cd 0.6895 0.2063 0.62676 0.0
O647 O 0.6923 0.2429 0.59429 0.0
Cd648 Cd 0.68167 0.21199 0.58078 0.0
C649 C 0.64733 0.21175 0.61128 0.0
O650 O 0.70525 0.19777 0.59908 0.0
O651 O 0.68704 0.1769 0.58616 0.0
O652 O 0.70463 0.22298 0.55963 0.0
C653 C 0.7017 0.18051 0.59608 0.0
O654 O 0.65808 0.19801 0.61545 0.0
C655 C 0.69584 0.2195 0.54436 0.0
O656 O 0.65085 0.22063 0.59594 0.0
O657 O 0.67916 0.21252 0.54568 0.0
C658 C 0.27776 0.73109 0.61278 0.0
O659 O 0.2744 0.74008 0.62812 0.0
Cd660 Cd 0.28127 0.7732 0.63121 0.0
O661 O 0.2849 0.73938 0.59825 0.0
Cd662 Cd 0.29757 0.76891 0.58194 0.0
C663 C 0.32585 0.7656 0.61175 0.0
O664 O 0.27159 0.78289 0.60022 0.0
O665 O 0.28923 0.80323 0.5856 0.0
O666 O 0.28103 0.74856 0.56201 0.0
C667 C 0.27479 0.79997 0.59592 0.0
O668 O 0.30925 0.77156 0.61381 0.0
C669 C 0.28607 0.75508 0.54608 0.0
O670 O 0.33155 0.76473 0.5947 0.0
O671 O 0.29743 0.7692 0.54613 0.0
H672 H 0.96549 0.17726 0.24511 0.0
H673 H 0.94489 0.23297 0.25977 0.0
H674 H -0.01025 0.19164 0.2272 0.0
H675 H 0.97111 0.2475 0.24297 0.0
H676 H 0.0052 0.27054 0.19571 0.0
H677 H 0.98078 0.25444 0.21261 0.0
H678 H 0.01701 0.20772 0.22521 0.0
H679 H 0.04166 0.22299 0.20713 0.0
C680 C 0.96688 0.19258 0.24501 0.0
C681 C 0.95306 0.204 0.25338 0.0
C682 C 0.9816 0.20094 0.2347 0.0
C683 C 0.98295 0.22087 0.23301 0.0
C684 C 0.97008 0.23217 0.24311 0.0
C685 C 0.95524 0.22383 0.25307 0.0
C686 C 0.00746 0.25649 0.2015 0.0
C687 C 0.02518 0.24783 0.20016 0.0
C688 C -0.0071 0.24743 0.21159 0.0
C689 C -0.00388 0.22983 0.2207 0.0
C690 C 0.01372 0.22101 0.21831 0.0
C691 C 0.02794 0.2298 0.20797 0.0
H692 H 0.78409 0.97215 0.26941 0.0
H693 H 0.7716 0.93715 0.22062 0.0
H694 H 0.76667 -0.00332 0.255 0.0
H695 H 0.7525 0.96174 0.20723 0.0
H696 H 0.73237 0.01316 0.17821 0.0
H697 H 0.74961 0.98878 0.19191 0.0
H698 H 0.73709 0.00801 0.24844 0.0
H699 H 0.72061 0.03469 0.2344 0.0
C700 C 0.7778 0.97019 0.25551 0.0
C701 C 0.7792 0.95273 0.24608 0.0
C702 C 0.76711 0.98489 0.2474 0.0
C703 C 0.7575 0.98217 0.22992 0.0
C704 C 0.75977 0.96481 0.22041 0.0
C705 C 0.7707 0.95052 0.22821 0.0
C706 C 0.73305 0.01194 0.19354 0.0
C707 C 0.72555 0.02612 0.20519 0.0
C708 C 0.74323 -0.00299 0.20156 0.0
C709 C 0.74565 -0.00436 0.22147 0.0
C710 C 0.7364 0.00893 0.2331 0.0
C711 C 0.72663 0.02408 0.22505 0.0
H712 H 0.02178 0.75684 0.27322 0.0
H713 H 0.0166 0.80187 0.2322 0.0
H714 H -0.00089 0.73797 0.25598 0.0
H715 H -0.00776 0.78364 0.21539 0.0
H716 H 0.96503 0.74187 0.17718 0.0
H717 H -0.0114 0.75855 0.19469 0.0
H718 H 0.97204 0.73015 0.24629 0.0
H719 H 0.94868 0.71274 0.22852 0.0
C720 C 0.01498 0.76304 0.26091 0.0
C721 C 0.02099 0.78068 0.25394 0.0
C722 C 0.00191 0.75216 0.25086 0.0
C723 C -0.00598 0.75889 0.23379 0.0
C724 C -0.00146 0.77756 0.22799 0.0
C725 C 0.01204 0.78834 0.23794 0.0
C726 C 0.96716 0.73868 0.19209 0.0
C727 C 0.95484 0.72631 0.20164 0.0
C728 C 0.98112 0.74861 0.2023 0.0
C729 C 0.98272 0.74643 0.2222 0.0
C730 C 0.9715 0.73248 0.23112 0.0
C731 C 0.95795 0.7224 0.2209 0.0
H732 H 0.24519 0.96687 0.17877 0.0
H733 H 0.25186 0.94207 0.23442 0.0
H734 H 0.22911 -0.00803 0.19282 0.0
H735 H 0.23655 0.96924 0.24881 0.0
H736 H 0.19072 0.00778 0.26825 0.0
H737 H 0.20762 0.98276 0.25414 0.0
H738 H 0.22842 0.01859 0.20963 0.0
H739 H 0.20996 0.04389 0.22249 0.0
C740 C 0.24359 0.96744 0.19408 0.0
C741 C 0.24944 0.95229 0.20543 0.0
C742 C 0.23412 0.98276 0.20228 0.0
C743 C 0.23076 0.9835 0.22209 0.0
C744 C 0.23809 0.96894 0.23351 0.0
C745 C 0.24716 0.95347 0.22526 0.0
C746 C 0.19857 0.01001 0.2552 0.0
C747 C 0.19898 0.0279 0.24651 0.0
C748 C 0.20886 -0.00506 0.24725 0.0
C749 C 0.2199 -0.00236 0.23066 0.0
C750 C 0.2199 0.01558 0.22206 0.0
C751 C 0.20938 0.0303 0.22965 0.0
H752 H 0.96992 0.79132 0.71552 0.0
H753 H 0.93284 0.76431 0.75622 0.0
H754 H -0.00449 0.77465 0.72956 0.0
H755 H 0.95891 0.74679 0.76912 0.0
H756 H 0.0103 0.72918 0.80047 0.0
H757 H 0.98493 0.74617 0.78731 0.0
H758 H 0.01008 0.74556 0.73182 0.0
H759 H 0.0372 0.72964 0.74532 0.0
C760 C 0.96763 0.78199 0.72754 0.0
C761 C 0.94937 0.77901 0.73475 0.0
C762 C 0.98299 0.77213 0.7354 0.0
C763 C 0.98021 0.7591 0.75047 0.0
C764 C 0.9619 0.7568 0.75785 0.0
C765 C 0.94681 0.76676 0.75026 0.0
C766 C 0.01026 0.73254 0.78545 0.0
C767 C 0.02599 0.72847 0.77406 0.0
C768 C -0.00516 0.74227 0.77778 0.0
C769 C -0.00532 0.74777 0.75846 0.0
C770 C 0.00991 0.74235 0.74686 0.0
C771 C 0.0254 0.73293 0.75458 0.0
H772 H 0.27264 0.00955 0.77622 0.0
H773 H 0.21851 0.03425 0.78882 0.0
H774 H 0.25688 0.98626 0.75808 0.0
H775 H 0.20291 0.01116 0.76958 0.0
H776 H 0.17449 0.96622 0.73623 0.0
H777 H 0.18948 -0.01016 0.75405 0.0
H778 H 0.24435 0.9729 0.73431 0.0
H779 H 0.22937 0.94727 0.71766 0.0
C780 C 0.25731 0.00925 0.77542 0.0
C781 C 0.24664 0.02349 0.78408 0.0
C782 C 0.24834 -0.00463 0.76433 0.0
C783 C 0.22851 -0.00408 0.76097 0.0
C784 C 0.218 0.00968 0.77102 0.0
C785 C 0.22694 0.02307 0.78251 0.0
C786 C 0.18975 0.96786 0.73561 0.0
C787 C 0.20083 0.95444 0.72623 0.0
C788 C 0.19841 0.98233 0.74613 0.0
C789 C 0.21844 0.9839 0.7473 0.0
C790 C 0.22916 0.97181 0.73548 0.0
C791 C 0.2205 0.95717 0.72536 0.0
H792 H 0.04256 0.20879 0.75782 0.0
H793 H 0.00691 0.19089 0.71127 0.0
H794 H 0.01718 0.22685 0.77114 0.0
H795 H 0.98164 0.20778 0.72572 0.0
H796 H 0.94276 0.25435 0.74422 0.0
H797 H 0.9691 0.23717 0.73065 0.0
H798 H -0.00954 0.22898 0.78723 0.0
H799 H 0.96618 0.24736 0.80045 0.0
C800 C 0.02895 0.20834 0.7507 0.0
C801 C 0.02671 0.19868 0.73342 0.0
C802 C 0.01419 0.21861 0.75851 0.0
C803 C -0.00356 0.21906 0.74959 0.0
C804 C -0.00621 0.20826 0.7328 0.0
C805 C 0.00891 0.19821 0.72467 0.0
C806 C 0.95369 0.24921 0.75369 0.0
C807 C 0.95235 0.25197 0.77345 0.0
C808 C 0.96866 0.23901 0.74591 0.0
C809 C 0.98254 0.23108 0.75774 0.0
C810 C 0.98169 0.23487 0.77746 0.0
C811 C 0.96688 0.24544 0.78518 0.0
H812 H 0.74547 0.04057 0.73481 0.0
H813 H 0.79728 0.00926 0.72637 0.0
H814 H 0.73112 0.01335 0.75005 0.0
H815 H 0.78295 0.98377 0.74277 0.0
H816 H 0.74935 0.93288 0.75851 0.0
H817 H 0.76214 0.95957 0.74183 0.0
H818 H 0.73025 -0.00406 0.77773 0.0
H819 H 0.71558 0.97001 0.79371 0.0
C820 C 0.75382 0.02779 0.73623 0.0
C821 C 0.77258 0.02703 0.72957 0.0
C822 C 0.74564 0.01223 0.74524 0.0
C823 C 0.75612 -0.00439 0.74804 0.0
C824 C 0.77474 -0.00531 0.74074 0.0
C825 C 0.7828 0.01019 0.73139 0.0
C826 C 0.74477 0.94688 0.76286 0.0
C827 C 0.73129 0.94934 0.77734 0.0
C828 C 0.7524 0.96231 0.75339 0.0
C829 C 0.7472 0.98081 0.7584 0.0
C830 C 0.73392 0.9834 0.77322 0.0
C831 C 0.72593 0.96774 0.78257 0.0
H832 H 0.26309 0.23166 0.03073 0.0
H833 H 0.24099 0.17665 0.01542 0.0
H834 H 0.24587 0.24605 0.00496 0.0
H835 H 0.22222 0.19081 -0.00922 0.0
H836 H 0.1928 0.21881 0.94352 0.0
H837 H 0.21173 0.20356 0.9671 0.0
H838 H 0.21985 0.2581 -0.00591 0.0
H839 H 0.20241 0.27311 0.96989 0.0
C840 C 0.25457 0.22261 0.02162 0.0
C841 C 0.25305 0.20308 0.02525 0.0
C842 C 0.24417 0.23096 0.00701 0.0
C843 C 0.23144 0.22009 -0.00402 0.0
C844 C 0.23143 0.20016 -0.0013 0.0
C845 C 0.24234 0.19177 0.01296 0.0
C846 C 0.19836 0.22734 0.9551 0.0
C847 C 0.19615 0.24703 0.95498 0.0
C848 C 0.20943 0.21858 0.96885 0.0
C849 C 0.2183 0.22922 0.98334 0.0
C850 C 0.21442 0.24895 0.98412 0.0
C851 C 0.20373 0.2578 0.96988 0.0
H852 H 0.27249 0.77733 0.97295 0.0
H853 H 0.21959 0.78598 0.94396 0.0
H854 H 0.25613 0.75908 -0.00402 0.0
H855 H 0.20359 0.76578 0.96614 0.0
H856 H 0.17486 0.73693 0.01434 0.0
H857 H 0.18967 0.7552 0.99086 0.0
H858 H 0.24423 0.73183 0.00463 0.0
H859 H 0.22934 0.71492 0.0305 0.0
C860 C 0.25725 0.77565 0.97216 0.0
C861 C 0.24713 0.78331 0.95694 0.0
C862 C 0.2479 0.76439 0.98565 0.0
C863 C 0.22842 0.75984 0.98361 0.0
C864 C 0.21836 0.76869 0.9688 0.0
C865 C 0.22755 0.78053 0.95594 0.0
C866 C 0.18995 0.73549 0.012 0.0
C867 C 0.20106 0.72511 0.02463 0.0
C868 C 0.19862 0.74623 -0.00227 0.0
C869 C 0.21856 0.74631 -0.00453 0.0
C870 C 0.22914 0.7335 0.00653 0.0
C871 C 0.22053 0.7233 0.02114 0.0
H872 H 0.73398 0.17679 0.96716 0.0
H873 H 0.71613 0.23141 0.94651 0.0
H874 H 0.75046 0.19246 -0.00795 0.0
H875 H 0.73397 0.24699 0.9707 0.0
H876 H 0.76398 0.27439 0.01838 0.0
H877 H 0.74403 0.25921 -0.00481 0.0
H878 H 0.77582 0.20705 0.00222 0.0
H879 H 0.7944 0.22238 0.02684 0.0
C880 C 0.73347 0.1921 0.96836 0.0
C881 C 0.72417 0.20292 0.95456 0.0
C882 C 0.74347 0.20114 0.98309 0.0
C883 C 0.74477 0.22121 0.98402 0.0
C884 C 0.73387 0.23169 0.97098 0.0
C885 C 0.72355 0.22268 0.95674 0.0
C886 C 0.76695 0.25984 0.01442 0.0
C887 C 0.7809 0.24964 0.02399 0.0
C888 C 0.75537 0.25086 0.00104 0.0
C889 C 0.75767 0.23141 -0.00342 0.0
C890 C 0.77276 0.2217 0.00543 0.0
C891 C 0.784 0.23064 0.01918 0.0
H892 H 0.74782 0.71114 0.95285 0.0
H893 H 0.80127 0.73725 0.96685 0.0
H894 H 0.7325 0.72837 0.97752 0.0
H895 H 0.78622 0.75525 -0.00938 0.0
H896 H 0.75563 0.7947 0.02954 0.0
H897 H 0.77185 0.77555 0.00665 0.0
H898 H 0.71796 0.74945 -0.0088 0.0
H899 H 0.70259 0.76842 0.01477 0.0
C900 C 0.75634 0.72056 0.96159 0.0
C901 C 0.77554 0.72349 0.9575 0.0
C902 C 0.74742 0.73104 0.97572 0.0
C903 C 0.75739 0.74509 0.98607 0.0
C904 C 0.77736 0.74572 0.98368 0.0
C905 C 0.78629 0.73507 0.96949 0.0
C906 C 0.74738 0.7852 0.02065 0.0
C907 C 0.72797 0.78298 0.02375 0.0
C908 C 0.75676 0.77356 0.00767 0.0
C909 C 0.7469 0.75935 -0.00264 0.0
C910 C 0.72689 0.75897 -0.00082 0.0
C911 C 0.71765 0.7704 0.01242 0.0
H912 H 0.50956 0.75718 0.68314 0.0
H913 H 0.54276 0.74291 0.73254 0.0
H914 H 0.48301 0.74036 0.69625 0.0
H915 H 0.51656 0.72721 0.74643 0.0
H916 H 0.46992 0.69096 0.76853 0.0
H917 H 0.49693 0.7062 0.75395 0.0
H918 H 0.45973 0.72881 0.71013 0.0
H919 H 0.43401 0.71223 0.724 0.0
C920 C 0.51102 0.75055 0.69695 0.0
C921 C 0.52827 0.75109 0.70659 0.0
C922 C 0.49564 0.74076 0.70479 0.0
C923 C 0.49714 0.73132 0.72258 0.0
C924 C 0.51436 0.7331 0.73249 0.0
C925 C 0.52963 0.74264 0.72457 0.0
C926 C 0.46798 0.69887 0.75548 0.0
C927 C 0.45006 0.70065 0.74741 0.0
C928 C 0.48342 0.70821 0.74716 0.0
C929 C 0.48108 0.71985 0.73081 0.0
C930 C 0.46295 0.72049 0.72252 0.0
C931 C 0.44783 0.71091 0.73059 0.0
H932 H 0.27306 0.4372 0.72152 0.0
H933 H 0.28174 0.47122 0.7717 0.0
H934 H 0.25424 0.46175 0.70751 0.0
H935 H 0.26434 0.4973 0.7569 0.0
H936 H 0.21958 0.53557 0.7347 0.0
H937 H 0.2358 0.50895 0.74899 0.0
H938 H 0.25043 0.48864 0.69267 0.0
H939 H 0.23281 0.51441 0.67871 0.0
C940 C 0.27155 0.45047 0.72917 0.0
C941 C 0.27897 0.45248 0.7475 0.0
C942 C 0.26072 0.46472 0.7211 0.0
C943 C 0.25745 0.4818 0.73089 0.0
C944 C 0.26598 0.48425 0.74897 0.0
C945 C 0.27646 0.46957 0.75733 0.0
C946 C 0.22591 0.52506 0.72543 0.0
C947 C 0.22525 0.52717 0.70557 0.0
C948 C 0.23557 0.50993 0.73365 0.0
C949 C 0.24521 0.49675 0.72219 0.0
C950 C 0.24328 0.49825 0.70223 0.0
C951 C 0.23316 0.51313 0.69404 0.0
H952 H 0.46293 0.2409 0.67772 0.0
H953 H 0.44848 0.21005 0.72864 0.0
H954 H 0.48785 0.25787 0.69518 0.0
H955 H 0.47169 0.22771 0.74637 0.0
H956 H 0.52435 0.25276 0.77175 0.0
H957 H 0.50132 0.23443 0.75435 0.0
H958 H 0.49134 0.2824 0.71727 0.0
H959 H 0.51589 0.3003 0.73425 0.0
C960 C 0.46549 0.23739 0.69248 0.0
C961 C 0.45383 0.22431 0.70194 0.0
C962 C 0.47936 0.24746 0.70266 0.0
C963 C 0.48153 0.24467 0.72242 0.0
C964 C 0.47076 0.23036 0.73126 0.0
C965 C 0.45733 0.22014 0.72107 0.0
C966 C 0.51687 0.25953 0.76016 0.0
C967 C 0.52194 0.2778 0.75421 0.0
C968 C 0.50357 0.24901 0.75008 0.0
C969 C 0.49461 0.25668 0.73399 0.0
C970 C 0.49841 0.27575 0.72915 0.0
C971 C 0.51206 0.28623 0.73917 0.0
H972 H 0.76453 0.44727 0.7311 0.0
H973 H 0.74072 0.46564 0.67781 0.0
H974 H 0.74662 0.47076 0.74786 0.0
H975 H 0.72374 0.49095 0.69447 0.0
H976 H 0.67836 0.51913 0.72945 0.0
H977 H 0.69725 0.49515 0.71309 0.0
H978 H 0.73954 0.4995 0.75754 0.0
H979 H 0.71999 0.52206 0.7741 0.0
C980 C 0.75594 0.45698 0.72288 0.0
C981 C 0.75363 0.45438 0.70327 0.0
C982 C 0.74561 0.47065 0.73253 0.0
C983 C 0.7331 0.48262 0.72273 0.0
C984 C 0.73255 0.48148 0.70267 0.0
C985 C 0.74265 0.46732 0.69299 0.0
C986 C 0.69125 0.5141 0.73605 0.0
C987 C 0.69771 0.52217 0.75307 0.0
C988 C 0.70243 0.50082 0.72641 0.0
C989 C 0.72033 0.49558 0.73358 0.0
C990 C 0.72592 0.50281 0.75141 0.0
C991 C 0.71465 0.51578 0.76108 0.0
H992 H 0.46594 0.29927 0.2281 0.0
H993 H 0.43489 0.24672 0.23475 0.0
H994 H 0.4932 0.28492 0.24348 0.0
H995 H 0.46218 0.23203 0.24891 0.0
H996 H 0.50643 0.21501 0.29186 0.0
H997 H 0.47925 0.22978 0.27624 0.0
H998 H 0.5176 0.26482 0.24317 0.0
H999 H 0.54398 0.25135 0.25969 0.0
C1000 C 0.46507 0.28458 0.23255 0.0
C1001 C 0.44816 0.27432 0.23064 0.0
C1002 C 0.48074 0.27621 0.2413 0.0
C1003 C 0.47988 0.25729 0.24796 0.0
C1004 C 0.46327 0.24678 0.24478 0.0
C1005 C 0.44762 0.2552 0.23637 0.0
C1006 C 0.50882 0.22614 0.28151 0.0
C1007 C 0.52722 0.232 0.27694 0.0
C1008 C 0.49333 0.23443 0.27227 0.0
C1009 C 0.4961 0.24857 0.25824 0.0
C1010 C 0.51465 0.25438 0.25404 0.0
C1011 C 0.5299 0.24639 0.2634 0.0
H1012 H 0.67551 0.46585 0.23898 0.0
H1013 H 0.72823 0.44596 0.21543 0.0
H1014 H 0.69269 0.49101 0.25589 0.0
H1015 H 0.74544 0.46929 0.23328 0.0
H1016 H 0.7726 0.52143 0.25741 0.0
H1017 H 0.75565 0.49802 0.23917 0.0
H1018 H 0.71143 0.49686 0.28195 0.0
H1019 H 0.72818 0.52184 0.29942 0.0
C1020 C 0.6907 0.46712 0.23715 0.0
C1021 C 0.70061 0.45387 0.22612 0.0
C1022 C 0.70067 0.48121 0.24721 0.0
C1023 C 0.72068 0.48205 0.24657 0.0
C1024 C 0.73017 0.46952 0.23428 0.0
C1025 C 0.72025 0.4559 0.22401 0.0
C1026 C 0.75951 0.51574 0.26316 0.0
C1027 C 0.75169 0.52338 0.27975 0.0
C1028 C 0.74963 0.50222 0.25266 0.0
C1029 C 0.73177 0.49555 0.25872 0.0
C1030 C 0.72478 0.50202 0.27638 0.0
C1031 C 0.73462 0.51592 0.28677 0.0
H1032 H 0.50612 0.69342 0.21035 0.0
H1033 H 0.54129 0.70609 0.2589 0.0
H1034 H 0.47998 0.71093 0.22515 0.0
H1035 H 0.51654 0.72477 0.27273 0.0
H1036 H 0.46417 0.74742 0.30087 0.0
H1037 H 0.48914 0.72792 0.2878 0.0
H1038 H 0.4705 0.74167 0.23079 0.0
H1039 H 0.44479 0.76009 0.24411 0.0
C1040 C 0.50806 0.69961 0.22432 0.0
C1041 C 0.5256 0.69858 0.23353 0.0
C1042 C 0.49334 0.71004 0.23264 0.0
C1043 C 0.49619 0.71974 0.25004 0.0
C1044 C 0.51348 0.71747 0.25954 0.0
C1045 C 0.52782 0.7068 0.25153 0.0
C1046 C 0.4657 0.74655 0.28557 0.0
C1047 C 0.45239 0.75489 0.27354 0.0
C1048 C 0.48003 0.73531 0.27796 0.0
C1049 C 0.48163 0.73266 0.25812 0.0
C1050 C 0.46928 0.7426 0.2461 0.0
C1051 C 0.45475 0.7535 0.25374 0.0
H1052 H 0.29792 0.51209 0.22879 0.0
H1053 H 0.24366 0.54013 0.23062 0.0
H1054 H 0.28416 0.48489 0.24514 0.0
H1055 H 0.22963 0.51278 0.24582 0.0
H1056 H 0.21304 0.46971 0.29041 0.0
H1057 H 0.22729 0.49702 0.2743 0.0
H1058 H 0.26487 0.45924 0.24384 0.0
H1059 H 0.25175 0.4327 0.26073 0.0
C1060 C 0.28299 0.51225 0.23234 0.0
C1061 C 0.27197 0.52828 0.22868 0.0
C1062 C 0.275 0.49665 0.24167 0.0
C1063 C 0.25574 0.49668 0.24715 0.0
C1064 C 0.24459 0.51241 0.24248 0.0
C1065 C 0.25263 0.52804 0.23349 0.0
C1066 C 0.22453 0.46745 0.28046 0.0
C1067 C 0.23124 0.44914 0.27678 0.0
C1068 C 0.23256 0.483 0.271 0.0
C1069 C 0.24729 0.48041 0.25764 0.0
C1070 C 0.25391 0.462 0.25423 0.0
C1071 C 0.24614 0.44666 0.26379 0.0
H1072 H 0.77047 0.72459 0.52565 0.0
H1073 H 0.73188 0.67757 0.51857 0.0
H1074 H 0.75298 0.74286 0.50292 0.0
H1075 H 0.71485 0.69527 0.49407 0.0
H1076 H 0.67547 0.73632 0.46557 0.0
H1077 H 0.69322 0.71911 0.48992 0.0
H1078 H 0.74362 0.75096 0.47455 0.0
H1079 H 0.72552 0.76895 0.45219 0.0
C1080 C 0.75863 0.71787 0.51845 0.0
C1081 C 0.75241 0.6998 0.52394 0.0
C1082 C 0.74846 0.72838 0.50528 0.0
C1083 C 0.73199 0.7209 0.49674 0.0
C1084 C 0.72696 0.7019 0.50082 0.0
C1085 C 0.73703 0.69147 0.51443 0.0
C1086 C 0.69012 0.7401 0.46819 0.0
C1087 C 0.69922 0.75378 0.45693 0.0
C1088 C 0.70051 0.72989 0.48173 0.0
C1089 C 0.72018 0.73303 0.48397 0.0
C1090 C 0.72863 0.74792 0.47364 0.0
C1091 C 0.7182 0.75834 0.46063 0.0
H1092 H 0.76863 0.28613 0.47208 0.0
H1093 H 0.72064 0.27343 0.43635 0.0
H1094 H 0.75374 0.26855 0.4981 0.0
H1095 H 0.70699 0.25414 0.46058 0.0
H1096 H 0.6781 0.22884 0.51131 0.0
H1097 H 0.69166 0.24723 0.48588 0.0
H1098 H 0.74748 0.2405 0.51081 0.0
H1099 H 0.73322 0.22367 0.5371 0.0
C1100 C 0.75475 0.27984 0.46998 0.0
C1101 C 0.74569 0.28104 0.45234 0.0
C1102 C 0.74638 0.26921 0.48465 0.0
C1103 C 0.72916 0.2592 0.48161 0.0
C1104 C 0.71992 0.26157 0.46409 0.0
C1105 C 0.72787 0.27265 0.44993 0.0
C1106 C 0.69329 0.23111 0.5111 0.0
C1107 C 0.7045 0.22538 0.52635 0.0
C1108 C 0.70129 0.24172 0.49639 0.0
C1109 C 0.72086 0.24625 0.49631 0.0
C1110 C 0.7323 0.23846 0.51067 0.0
C1111 C 0.72417 0.22838 0.52562 0.0
H1112 H 0.23332 0.67764 0.46539 0.0
H1113 H 0.21821 0.73348 0.44566 0.0
H1114 H 0.25078 0.69166 0.49148 0.0
H1115 H 0.2343 0.74774 0.47258 0.0
H1116 H 0.28096 0.77053 0.51027 0.0
H1117 H 0.26312 0.75605 0.48412 0.0
H1118 H 0.25349 0.70617 0.51891 0.0
H1119 H 0.27262 0.7197 0.54349 0.0
C1120 C 0.23318 0.69292 0.4671 0.0
C1121 C 0.22475 0.70446 0.4534 0.0
C1122 C 0.24321 0.70112 0.48213 0.0
C1123 C 0.2445 0.72107 0.48411 0.0
C1124 C 0.23446 0.73245 0.47123 0.0
C1125 C 0.22489 0.72425 0.45595 0.0
C1126 C 0.27545 0.75625 0.51188 0.0
C1127 C 0.2781 0.74626 0.52888 0.0
C1128 C 0.26484 0.74804 0.49711 0.0
C1129 C 0.2565 0.72985 0.49928 0.0
C1130 C 0.25981 0.71991 0.51622 0.0
C1131 C 0.2707 0.72784 0.53057 0.0
H1132 H 0.23742 0.30164 0.51285 0.0
H1133 H 0.20995 0.24915 0.52826 0.0
H1134 H 0.25489 0.2852 0.48806 0.0
H1135 H 0.2285 0.23227 0.50589 0.0
H1136 H 0.26259 0.2028 0.46176 0.0
H1137 H 0.24225 0.21911 0.48319 0.0
H1138 H 0.27951 0.26836 0.48074 0.0
H1139 H 0.2987 0.25195 0.45738 0.0
C1140 C 0.23493 0.28662 0.51067 0.0
C1141 C 0.22289 0.27649 0.52281 0.0
C1142 C 0.24544 0.27691 0.49686 0.0
C1143 C 0.24452 0.25686 0.49545 0.0
C1144 C 0.23049 0.24743 0.50622 0.0
C1145 C 0.2196 0.2572 0.51935 0.0
C1146 C 0.26668 0.21692 0.46638 0.0
C1147 C 0.28207 0.22616 0.45794 0.0
C1148 C 0.2548 0.22663 0.47874 0.0
C1149 C 0.25834 0.2458 0.48356 0.0
C1150 C 0.27535 0.25412 0.47682 0.0
C1151 C 0.28696 0.24446 0.46394 0.0
H1152 H 0.11221 0.11489 0.25868 0.0
H1153 H 0.16632 0.14167 0.24783 0.0
H1154 H 0.09644 0.1405 0.24081 0.0
H1155 H 0.15102 0.1666 0.23056 0.0
H1156 H 0.12768 0.20362 0.19001 0.0
H1157 H 0.13516 0.17183 0.20114 0.0
H1158 H 0.09032 0.17557 0.24282 0.0
H1159 H 0.08223 0.20724 0.23076 0.0
C1160 C 0.12068 0.12614 0.25248 0.0
C1161 C 0.14047 0.12629 0.2547 0.0
C1162 C 0.11171 0.14075 0.24229 0.0
C1163 C 0.1225 0.15538 0.23386 0.0
C1164 C 0.14224 0.15535 0.2363 0.0
C1165 C 0.15104 0.14111 0.24653 0.0
C1166 C 0.11901 0.19732 0.20108 0.0
C1167 C 0.10464 0.20782 0.20979 0.0
C1168 C 0.12334 0.1792 0.20757 0.0
C1169 C 0.1138 0.17147 0.22337 0.0
C1170 C 0.09804 0.18119 0.23075 0.0
C1171 C 0.09344 0.19931 0.22393 0.0
H1172 H 0.86593 0.13131 0.2323 0.0
H1173 H 0.83363 0.13717 0.28403 0.0
H1174 H 0.83886 0.11551 0.21717 0.0
H1175 H 0.80689 0.1212 0.26914 0.0
H1176 H 0.7605 0.1384 0.22777 0.0
H1177 H 0.79045 0.1408 0.24398 0.0
H1178 H 0.81032 0.09056 0.21517 0.0
H1179 H 0.7796 0.08793 0.19861 0.0
C1180 C 0.8535 0.1282 0.24079 0.0
C1181 C 0.85167 0.13581 0.25918 0.0
C1182 C 0.83795 0.11925 0.23208 0.0
C1183 C 0.82061 0.11778 0.2418 0.0
C1184 C 0.81998 0.12257 0.26119 0.0
C1185 C 0.83535 0.13156 0.26978 0.0
C1186 C 0.77114 0.1278 0.22471 0.0
C1187 C 0.76756 0.1129 0.21193 0.0
C1188 C 0.7883 0.12906 0.23424 0.0
C1189 C 0.80254 0.11556 0.23125 0.0
C1190 C 0.79943 0.10097 0.21794 0.0
C1191 C 0.78192 0.09951 0.20848 0.0
H1192 H 0.89358 0.7808 0.20147 0.0
H1193 H 0.83513 0.76501 0.21121 0.0
H1194 H 0.88891 0.80968 0.2206 0.0
H1195 H 0.83074 0.79333 0.23028 0.0
H1196 H 0.83231 0.82829 0.28078 0.0
H1197 H 0.8462 0.80225 0.26313 0.0
H1198 H 0.86615 0.84141 0.22042 0.0
H1199 H 0.85152 0.86775 0.23793 0.0
C1200 C 0.87974 0.78357 0.20747 0.0
C1201 C 0.86474 0.77056 0.20484 0.0
C1202 C 0.87712 0.80004 0.21841 0.0
C1203 C 0.8596 0.80348 0.22719 0.0
C1204 C 0.8445 0.79084 0.22395 0.0
C1205 C 0.84699 0.77468 0.21284 0.0
C1206 C 0.84037 0.83154 0.26806 0.0
C1207 C 0.84038 0.84996 0.26045 0.0
C1208 C 0.84817 0.81657 0.25787 0.0
C1209 C 0.85665 0.81979 0.24013 0.0
C1210 C 0.85941 0.83858 0.23397 0.0
C1211 C 0.85123 0.85368 0.24409 0.0
H1212 H 0.19314 0.88344 0.19087 0.0
H1213 H 0.21913 0.85378 0.23762 0.0
H1214 H 0.16246 0.88202 0.20738 0.0
H1215 H 0.18915 0.85176 0.25366 0.0
H1216 H 0.13928 0.84781 0.28464 0.0
H1217 H 0.16533 0.86548 0.27045 0.0
H1218 H 0.13815 0.86102 0.2155 0.0
H1219 H 0.11139 0.84496 0.23024 0.0
C1220 C 0.19227 0.87672 0.20469 0.0
C1221 C 0.20838 0.86846 0.21288 0.0
C1222 C 0.17473 0.87585 0.21415 0.0
C1223 C 0.17316 0.86697 0.23207 0.0
C1224 C 0.18959 0.85922 0.24024 0.0
C1225 C 0.20686 0.85999 0.23081 0.0
C1226 C 0.13842 0.85166 0.26976 0.0
C1227 C 0.12355 0.84482 0.25845 0.0
C1228 C 0.15355 0.8614 0.26146 0.0
C1229 C 0.15447 0.86368 0.24157 0.0
C1230 C 0.13821 0.85932 0.23078 0.0
C1231 C 0.12273 0.85015 0.23926 0.0
H1232 H 0.08843 0.77898 0.78366 0.0
H1233 H 0.13609 0.75988 0.75023 0.0
H1234 H 0.09013 0.81006 0.76776 0.0
H1235 H 0.13761 0.79035 0.73457 0.0
H1236 H 0.13208 0.83546 0.69677 0.0
H1237 H 0.11691 0.80814 0.71151 0.0
H1238 H 0.11445 0.83823 0.76492 0.0
H1239 H 0.12936 0.86585 0.74993 0.0
C1240 C 0.09922 0.7814 0.77297 0.0
C1241 C 0.11209 0.76695 0.76814 0.0
C1242 C 0.10014 0.79911 0.76389 0.0
C1243 C 0.11364 0.80241 0.74956 0.0
C1244 C 0.12667 0.78806 0.74514 0.0
C1245 C 0.12596 0.77064 0.75433 0.0
C1246 C 0.12722 0.83668 0.71134 0.0
C1247 C 0.13219 0.85257 0.72233 0.0
C1248 C 0.11877 0.82094 0.71986 0.0
C1249 C 0.11524 0.82085 0.73952 0.0
C1250 C 0.11725 0.83787 0.74978 0.0
C1251 C 0.12563 0.85376 0.74115 0.0
H1252 H 0.19722 0.08843 0.78314 0.0
H1253 H 0.21775 0.13391 0.74732 0.0
H1254 H 0.16598 0.09061 0.76772 0.0
H1255 H 0.18716 0.13595 0.73223 0.0
H1256 H 0.14147 0.13098 0.69549 0.0
H1257 H 0.16827 0.11526 0.71029 0.0
H1258 H 0.13885 0.11525 0.7641 0.0
H1259 H 0.11169 0.13048 0.74901 0.0
C1260 C 0.19509 0.09882 0.77203 0.0
C1261 C 0.21001 0.11088 0.76633 0.0
C1262 C 0.17728 0.10003 0.76322 0.0
C1263 C 0.17435 0.113 0.74836 0.0
C1264 C 0.18914 0.12534 0.74318 0.0
C1265 C 0.20667 0.12433 0.75204 0.0
C1266 C 0.14023 0.12647 0.71017 0.0
C1267 C 0.12473 0.13216 0.72121 0.0
C1268 C 0.15568 0.11774 0.71873 0.0
C1269 C 0.1559 0.11479 0.73849 0.0
C1270 C 0.13913 0.11757 0.74889 0.0
C1271 C 0.1235 0.12613 0.7402 0.0
H1272 H 0.84432 0.20735 0.78582 0.0
H1273 H 0.89619 0.20408 0.7537 0.0
H1274 H 0.83572 0.17547 0.77567 0.0
H1275 H 0.88712 0.17229 0.74237 0.0
H1276 H 0.86372 0.1119 0.72793 0.0
H1277 H 0.87823 0.13857 0.74551 0.0
H1278 H 0.82421 0.16722 0.74557 0.0
H1279 H 0.81011 0.14116 0.72876 0.0
C1280 C 0.85402 0.19954 0.77681 0.0
C1281 C 0.87069 0.20807 0.77026 0.0
C1282 C 0.84907 0.18137 0.77083 0.0
C1283 C 0.86038 0.17158 0.7576 0.0
C1284 C 0.87802 0.17947 0.75243 0.0
C1285 C 0.88319 0.19765 0.75882 0.0
C1286 C 0.85507 0.12392 0.73191 0.0
C1287 C 0.83577 0.1244 0.72701 0.0
C1288 C 0.86334 0.13917 0.7419 0.0
C1289 C 0.85231 0.15489 0.74736 0.0
C1290 C 0.83309 0.15519 0.74223 0.0
C1291 C 0.825 0.14024 0.73226 0.0
H1292 H 0.86295 0.84787 0.74977 0.0
H1293 H 0.83114 0.84414 0.6976 0.0
H1294 H 0.83624 0.86365 0.76512 0.0
H1295 H 0.80477 0.86055 0.71258 0.0
H1296 H 0.75637 0.84431 0.7531 0.0
H1297 H 0.78542 0.84298 0.73495 0.0
H1298 H 0.80986 0.88692 0.77026 0.0
H1299 H 0.78011 0.88838 0.78859 0.0
C1300 C 0.8507 0.85146 0.74127 0.0
C1301 C 0.84888 0.8444 0.72267 0.0
C1302 C 0.83531 0.86043 0.7501 0.0
C1303 C 0.81808 0.8626 0.74029 0.0
C1304 C 0.81762 0.85846 0.72072 0.0
C1305 C 0.83281 0.84927 0.71204 0.0
C1306 C 0.76792 0.85368 0.7571 0.0
C1307 C 0.76606 0.86621 0.77247 0.0
C1308 C 0.78452 0.85318 0.74644 0.0
C1309 C 0.79996 0.86506 0.75092 0.0
C1310 C 0.7982 0.87767 0.76637 0.0
C1311 C 0.78125 0.87845 0.77689 0.0
H1312 H 0.18613 0.13118 0.20205 0.0
H1313 H 0.22645 0.08765 0.21586 0.0
H1314 H 0.19967 0.13393 0.17028 0.0
H1315 H 0.24018 0.09017 0.18395 0.0
H1316 H 0.27649 0.1298 0.14374 0.0
H1317 H 0.25962 0.1135 0.1691 0.0
H1318 H 0.20681 0.12217 0.13936 0.0
H1319 H 0.22389 0.13873 0.11411 0.0
C1320 C 0.19759 0.12183 0.19799 0.0
C1321 C 0.20528 0.10923 0.21123 0.0
C1322 C 0.20533 0.12327 0.17974 0.0
C1323 C 0.22116 0.11233 0.17445 0.0
C1324 C 0.22814 0.09894 0.18753 0.0
C1325 C 0.22021 0.09736 0.20573 0.0
C1326 C 0.26141 0.12735 0.1422 0.0
C1327 C 0.25151 0.13554 0.12701 0.0
C1328 C 0.25165 0.11805 0.1568 0.0
C1329 C 0.23172 0.11693 0.1566 0.0
C1330 C 0.2221 0.12315 0.14022 0.0
C1331 C 0.23192 0.13232 0.12552 0.0
H1332 H 0.86123 0.24775 0.11167 0.0
H1333 H 0.81261 0.26023 0.14688 0.0
H1334 H 0.87543 0.23015 0.13839 0.0
H1335 H 0.82647 0.24306 0.17283 0.0
H1336 H 0.83955 0.19656 0.209 0.0
H1337 H 0.83163 0.20904 0.17783 0.0
H1338 H 0.88754 0.23381 0.1732 0.0
H1339 H 0.89577 0.22034 0.20442 0.0
C1340 C 0.85371 0.24692 0.12507 0.0
C1341 C 0.83568 0.25513 0.12706 0.0
C1342 C 0.86179 0.23685 0.14028 0.0
C1343 C 0.85176 0.23472 0.15745 0.0
C1344 C 0.83429 0.24388 0.15959 0.0
C1345 C 0.82641 0.25394 0.14468 0.0
C1346 C 0.85031 0.20422 0.20108 0.0
C1347 C 0.86806 0.20789 0.20913 0.0
C1348 C 0.84579 0.21142 0.18329 0.0
C1349 C 0.85876 0.22296 0.17341 0.0
C1350 C 0.87724 0.2251 0.1806 0.0
C1351 C 0.88192 0.21747 0.19842 0.0
H1352 H 0.78883 0.84637 0.20492 0.0
H1353 H 0.75134 0.89413 0.2102 0.0
H1354 H 0.77741 0.84059 0.17286 0.0
H1355 H 0.73832 0.88741 0.17865 0.0
H1356 H 0.71812 0.87035 0.11895 0.0
H1357 H 0.737 0.88349 0.14544 0.0
H1358 H 0.75054 0.82625 0.16302 0.0
H1359 H 0.73293 0.81388 0.13665 0.0
C1360 C 0.77828 0.85578 0.19898 0.0
C1361 C 0.77083 0.87057 0.20985 0.0
C1362 C 0.77144 0.85234 0.18073 0.0
C1363 C 0.75629 0.86302 0.17334 0.0
C1364 C 0.74989 0.87882 0.18378 0.0
C1365 C 0.75727 0.88265 0.20188 0.0
C1366 C 0.7256 0.86083 0.12837 0.0
C1367 C 0.72452 0.84113 0.12569 0.0
C1368 C 0.73627 0.86826 0.1436 0.0
C1369 C 0.7458 0.85601 0.15627 0.0
C1370 C 0.74431 0.83633 0.1533 0.0
C1371 C 0.734 0.8291 0.1382 0.0
H1372 H 0.09848 0.73724 0.22099 0.0
H1373 H 0.10972 0.79131 0.19483 0.0
H1374 H 0.10001 0.72175 0.19037 0.0
H1375 H 0.11359 0.77579 0.16407 0.0
H1376 H 0.12654 0.74634 0.11076 0.0
H1377 H 0.10823 0.76006 0.13682 0.0
H1378 H 0.12099 0.71056 0.17101 0.0
H1379 H 0.13694 0.69658 0.14466 0.0
C1380 C 0.10135 0.74575 0.20848 0.0
C1381 C 0.10419 0.7653 0.2101 0.0
C1382 C 0.10258 0.73687 0.19084 0.0
C1383 C 0.10773 0.74719 0.17443 0.0
C1384 C 0.10957 0.76712 0.17609 0.0
C1385 C 0.10758 0.77611 0.19376 0.0
C1386 C 0.12433 0.73806 0.12355 0.0
C1387 C 0.13342 0.72055 0.12588 0.0
C1388 C 0.11429 0.74613 0.13877 0.0
C1389 C 0.11356 0.73696 0.15663 0.0
C1390 C 0.12081 0.7184 0.15783 0.0
C1391 C 0.13018 0.7102 0.14255 0.0
H1392 H 0.23842 0.88139 0.7605 0.0
H1393 H 0.18542 0.86473 0.78594 0.0
H1394 H 0.25406 0.87913 0.79111 0.0
H1395 H 0.20119 0.86061 0.81654 0.0
H1396 H 0.23164 0.84825 0.86934 0.0
H1397 H 0.21716 0.86715 0.84413 0.0
H1398 H 0.26558 0.85546 0.80814 0.0
H1399 H 0.28014 0.83823 0.83355 0.0
C1400 C 0.23014 0.87735 0.77285 0.0
C1401 C 0.21089 0.87304 0.77104 0.0
C1402 C 0.23911 0.87578 0.7904 0.0
C1403 C 0.22919 0.869 0.80644 0.0
C1404 C 0.20947 0.86591 0.80473 0.0
C1405 C 0.20037 0.86806 0.78716 0.0
C1406 C 0.23952 0.85075 0.85635 0.0
C1407 C 0.25692 0.84169 0.85325 0.0
C1408 C 0.23105 0.86119 0.84168 0.0
C1409 C 0.23979 0.86252 0.82367 0.0
C1410 C 0.2582 0.85514 0.82161 0.0
C1411 C 0.2667 0.84509 0.83627 0.0
H1412 H 0.09099 0.23563 0.76247 0.0
H1413 H 0.11851 0.18596 0.78459 0.0
H1414 H 0.09218 0.25046 0.79374 0.0
H1415 H 0.12086 0.20093 0.81576 0.0
H1416 H 0.12978 0.22938 0.86945 0.0
H1417 H 0.11164 0.21377 0.8443 0.0
H1418 H 0.11443 0.26541 0.81111 0.0
H1419 H 0.13132 0.28088 0.83656 0.0
C1420 C 0.09703 0.22781 0.77424 0.0
C1421 C 0.10473 0.20977 0.77129 0.0
C1422 C 0.09794 0.23635 0.79216 0.0
C1423 C 0.10701 0.22721 0.80746 0.0
C1424 C 0.11361 0.20852 0.80459 0.0
C1425 C 0.11246 0.19991 0.78666 0.0
C1426 C 0.12543 0.23763 0.85723 0.0
C1427 C 0.13209 0.25626 0.8548 0.0
C1428 C 0.11544 0.22856 0.84254 0.0
C1429 C 0.11212 0.23796 0.82516 0.0
C1430 C 0.11658 0.25744 0.82405 0.0
C1431 C 0.1263 0.26649 0.83876 0.0
H1432 H 0.75752 0.08332 0.76828 0.0
H1433 H 0.78566 0.13709 0.77676 0.0
H1434 H 0.74474 0.08488 0.80075 0.0
H1435 H 0.77328 0.13864 0.80905 0.0
H1436 H 0.75499 0.1398 0.867 0.0
H1437 H 0.77288 0.12547 0.84109 0.0
H1438 H 0.72073 0.10502 0.8162 0.0
H1439 H 0.70295 0.1195 0.84212 0.0
C1440 C 0.7613 0.09524 0.77727 0.0
C1441 C 0.77247 0.11016 0.77008 0.0
C1442 C 0.75395 0.09618 0.79581 0.0
C1443 C 0.75804 0.11183 0.80761 0.0
C1444 C 0.77005 0.12621 0.80057 0.0
C1445 C 0.77702 0.12546 0.78199 0.0
C1446 C 0.74745 0.13122 0.85666 0.0
C1447 C 0.72756 0.1308 0.85654 0.0
C1448 C 0.75768 0.12332 0.84155 0.0
C1449 C 0.74821 0.11461 0.82622 0.0
C1450 C 0.72852 0.11171 0.82767 0.0
C1451 C 0.71828 0.11985 0.84265 0.0
H1452 H 0.84598 0.74826 0.86887 0.0
H1453 H 0.83923 0.69746 0.83537 0.0
H1454 H 0.86479 0.76256 0.84339 0.0
H1455 H 0.85637 0.71173 0.80965 0.0
H1456 H 0.88075 0.73854 0.76058 0.0
H1457 H 0.87903 0.724 0.7918 0.0
H1458 H 0.85856 0.77702 0.81517 0.0
H1459 H 0.86222 0.79177 0.78401 0.0
C1460 C 0.84917 0.73988 0.85637 0.0
C1461 C 0.841 0.72183 0.85397 0.0
C1462 C 0.85956 0.74823 0.84149 0.0
C1463 C 0.86172 0.73873 0.82392 0.0
C1464 C 0.85535 0.71978 0.82269 0.0
C1465 C 0.84536 0.71142 0.83758 0.0
C1466 C 0.8763 0.7471 0.77258 0.0
C1467 C 0.87126 0.76609 0.76998 0.0
C1468 C 0.87507 0.73875 0.79052 0.0
C1469 C 0.86789 0.74896 0.8062 0.0
C1470 C 0.86413 0.76848 0.80369 0.0
C1471 C 0.866 0.777 0.78576 0.0
H1472 H 0.14153 0.27915 0.13492 0.0
H1473 H 0.11115 0.22606 0.13744 0.0
H1474 H 0.16679 0.26416 0.11738 0.0
H1475 H 0.13618 0.2108 0.11898 0.0
H1476 H 0.19784 0.18776 0.12477 0.0
H1477 H 0.16611 0.2008 0.12833 0.0
H1478 H 0.1824 0.24881 0.09347 0.0
H1479 H 0.21432 0.23591 0.09083 0.0
C1480 C 0.13984 0.26444 0.13072 0.0
C1481 C 0.12453 0.25374 0.13751 0.0
C1482 C 0.15437 0.25572 0.12063 0.0
C1483 C 0.15387 0.23605 0.11707 0.0
C1484 C 0.13732 0.22585 0.12189 0.0
C1485 C 0.12275 0.23465 0.1321 0.0
C1486 C 0.19439 0.20096 0.11772 0.0
C1487 C 0.20831 0.21107 0.1078 0.0
C1488 C 0.17616 0.20838 0.11951 0.0
C1489 C 0.17161 0.2261 0.11142 0.0
C1490 C 0.18542 0.2354 0.10029 0.0
C1491 C 0.20365 0.22801 0.09862 0.0
H1492 H 0.20689 0.75307 0.90037 0.0
H1493 H 0.20193 0.7843 0.84798 0.0
H1494 H 0.1745 0.74085 0.89624 0.0
H1495 H 0.16981 0.77237 0.84377 0.0
H1496 H 0.1121 0.75329 0.83832 0.0
H1497 H 0.13721 0.77076 0.85452 0.0
H1498 H 0.16136 0.71785 0.87349 0.0
H1499 H 0.13624 0.70047 0.85711 0.0
C1500 C 0.19861 0.75772 0.8883 0.0
C1501 C 0.20671 0.76953 0.87444 0.0
C1502 C 0.18018 0.75067 0.88585 0.0
C1503 C 0.16954 0.75561 0.86969 0.0
C1504 C 0.17741 0.76846 0.85653 0.0
C1505 C 0.19586 0.77522 0.85883 0.0
C1506 C 0.12214 0.74547 0.8469 0.0
C1507 C 0.1222 0.72556 0.84662 0.0
C1508 C 0.13674 0.75546 0.85589 0.0
C1509 C 0.1515 0.7457 0.865 0.0
C1510 C 0.1502 0.72584 0.86667 0.0
C1511 C 0.13576 0.71584 0.8574 0.0
H1512 H 0.18553 0.19334 0.86763 0.0
H1513 H 0.2393 0.21991 0.87902 0.0
H1514 H 0.20088 0.16274 0.86465 0.0
H1515 H 0.25472 0.18956 0.87836 0.0
H1516 H 0.28208 0.14246 0.8455 0.0
H1517 H 0.26782 0.1683 0.86184 0.0
H1518 H 0.2156 0.13584 0.86698 0.0
H1519 H 0.23008 0.11047 0.84875 0.0
C1520 C 0.20066 0.1924 0.86998 0.0
C1521 C 0.21138 0.20882 0.87318 0.0
C1522 C 0.20964 0.17474 0.86847 0.0
C1523 C 0.22954 0.17312 0.87053 0.0
C1524 C 0.23972 0.18972 0.8755 0.0
C1525 C 0.23084 0.20732 0.8763 0.0
C1526 C 0.26771 0.14067 0.85066 0.0
C1527 C 0.25706 0.12475 0.84537 0.0
C1528 C 0.25923 0.15571 0.8602 0.0
C1529 C 0.23983 0.15512 0.86519 0.0
C1530 C 0.23013 0.1377 0.86252 0.0
C1531 C 0.23861 0.12272 0.85252 0.0
H1532 H 0.78419 0.18557 0.87143 0.0
H1533 H 0.75587 0.23941 0.87425 0.0
H1534 H 0.81451 0.20167 0.86759 0.0
H1535 H 0.78584 0.2558 0.87285 0.0
H1536 H 0.83239 0.27988 0.83675 0.0
H1537 H 0.80645 0.26661 0.85374 0.0
H1538 H 0.84098 0.21814 0.86902 0.0
H1539 H 0.86671 0.23128 0.84986 0.0
C1540 C 0.78465 0.20094 0.87167 0.0
C1541 C 0.76784 0.21137 0.87258 0.0
C1542 C 0.80211 0.21034 0.86967 0.0
C1543 C 0.8031 0.2304 0.86895 0.0
C1544 C 0.78611 0.24052 0.87197 0.0
C1545 C 0.76873 0.23114 0.87319 0.0
C1546 C 0.8346 0.2666 0.84418 0.0
C1547 C 0.85135 0.25643 0.84157 0.0
C1548 C 0.81952 0.25878 0.85422 0.0
C1549 C 0.82083 0.2406 0.86253 0.0
C1550 C 0.83876 0.23166 0.86216 0.0
C1551 C 0.85383 0.2394 0.85157 0.0
H1552 H 0.71811 0.86238 0.87327 0.0
H1553 H 0.72877 0.84278 0.81633 0.0
H1554 H 0.73768 0.83635 0.88575 0.0
H1555 H 0.74729 0.81694 0.82813 0.0
H1556 H 0.78633 0.77555 0.84759 0.0
H1557 H 0.77519 0.80761 0.84169 0.0
H1558 H 0.73703 0.80285 0.88966 0.0
H1559 H 0.74961 0.77126 0.89638 0.0
C1560 C 0.72481 0.85262 0.86347 0.0
C1561 C 0.72209 0.85447 0.84384 0.0
C1562 C 0.73588 0.8377 0.87054 0.0
C1563 C 0.74434 0.82461 0.85797 0.0
C1564 C 0.74164 0.82694 0.83833 0.0
C1565 C 0.73077 0.84168 0.83145 0.0
C1566 C 0.77598 0.78169 0.85716 0.0
C1567 C 0.76859 0.77111 0.87226 0.0
C1568 C 0.76942 0.79994 0.85372 0.0
C1569 C 0.7547 0.80762 0.8648 0.0
C1570 C 0.74836 0.79746 0.88084 0.0
C1571 C 0.75544 0.77935 0.88465 0.0
H1572 H 0.77871 0.77416 0.08577 0.0
H1573 H 0.76255 0.76426 0.14422 0.0
H1574 H 0.80907 0.75825 0.09168 0.0
H1575 H 0.79248 0.74868 0.14996 0.0
H1576 H 0.83324 0.7013 0.14917 0.0
H1577 H 0.80529 0.71797 0.13894 0.0
H1578 H 0.84011 0.76046 0.11167 0.0
H1579 H 0.86872 0.74365 0.12227 0.0
C1580 C 0.78164 0.76875 0.09986 0.0
C1581 C 0.76806 0.77034 0.11447 0.0
C1582 C 0.79905 0.75972 0.10324 0.0
C1583 C 0.80302 0.75194 0.1212 0.0
C1584 C 0.7897 0.75417 0.13586 0.0
C1585 C 0.77253 0.76325 0.13257 0.0
C1586 C 0.83516 0.71401 0.14072 0.0
C1587 C 0.85335 0.72125 0.13676 0.0
C1588 C 0.81902 0.72367 0.13498 0.0
C1589 C 0.82047 0.74076 0.12486 0.0
C1590 C 0.83858 0.74738 0.1196 0.0
C1591 C 0.85492 0.73778 0.12566 0.0
H1592 H 0.19323 0.78173 0.09164 0.0
H1593 H 0.23329 0.76113 0.13313 0.0
H1594 H 0.2084 0.81321 0.09299 0.0
H1595 H 0.24813 0.79201 0.13446 0.0
H1596 H 0.28267 0.83952 0.12852 0.0
H1597 H 0.26778 0.8121 0.11364 0.0
H1598 H 0.21356 0.84006 0.11635 0.0
H1599 H 0.2287 0.86778 0.13072 0.0
C1600 C 0.20523 0.78391 0.10098 0.0
C1601 C 0.21217 0.76893 0.11215 0.0
C1602 C 0.2139 0.80185 0.10172 0.0
C1603 C 0.22984 0.8049 0.11333 0.0
C1604 C 0.23632 0.78999 0.12483 0.0
C1605 C 0.22759 0.7723 0.12428 0.0
C1606 C 0.26782 0.84032 0.12474 0.0
C1607 C 0.25673 0.85552 0.13112 0.0
C1608 C 0.2592 0.82447 0.11656 0.0
C1609 C 0.23939 0.82364 0.1147 0.0
C1610 C 0.22882 0.8402 0.11789 0.0
C1611 C 0.23754 0.8562 0.12592 0.0
H1612 H 0.69844 0.14139 0.12741 0.0
H1613 H 0.75104 0.11147 0.13453 0.0
H1614 H 0.71507 0.16748 0.11259 0.0
H1615 H 0.76792 0.13725 0.11866 0.0
H1616 H 0.79164 0.19834 0.12754 0.0
H1617 H 0.77738 0.1668 0.12962 0.0
H1618 H 0.73264 0.18467 0.09164 0.0
H1619 H 0.74677 0.21628 0.09034 0.0
C1620 C 0.71348 0.13992 0.12472 0.0
C1621 C 0.72345 0.12453 0.13235 0.0
C1622 C 0.72317 0.15502 0.11626 0.0
C1623 C 0.74308 0.15493 0.11493 0.0
C1624 C 0.75269 0.13819 0.12004 0.0
C1625 C 0.74295 0.12312 0.1287 0.0
C1626 C 0.77894 0.19527 0.11943 0.0
C1627 C 0.77022 0.20955 0.10881 0.0
C1628 C 0.77079 0.17714 0.12043 0.0
C1629 C 0.75364 0.173 0.11091 0.0
C1630 C 0.74559 0.18725 0.09947 0.0
C1631 C 0.75376 0.20534 0.09851 0.0
H1632 H 0.66064 0.64638 0.76912 0.0
H1633 H 0.61873 0.61059 0.74204 0.0
H1634 H 0.64604 0.674 0.75622 0.0
H1635 H 0.60285 0.63922 0.72971 0.0
H1636 H 0.60085 0.69672 0.69226 0.0
H1637 H 0.60732 0.6655 0.70654 0.0
H1638 H 0.61986 0.69315 0.76001 0.0
H1639 H 0.61494 0.72379 0.74546 0.0
C1640 C 0.64791 0.64442 0.76074 0.0
C1641 C 0.64087 0.62623 0.75665 0.0
C1642 C 0.63933 0.66043 0.75343 0.0
C1643 C 0.62296 0.65902 0.74218 0.0
C1644 C 0.61543 0.64082 0.73836 0.0
C1645 C 0.62435 0.62448 0.74559 0.0
C1646 C 0.60487 0.69593 0.70709 0.0
C1647 C 0.60808 0.71261 0.71763 0.0
C1648 C 0.60842 0.67809 0.71532 0.0
C1649 C 0.61479 0.67683 0.73427 0.0
C1650 C 0.61581 0.69355 0.74516 0.0
C1651 C 0.61291 0.71117 0.73687 0.0
H1652 H 0.28126 0.61706 0.68781 0.0
H1653 H 0.25634 0.601 0.74131 0.0
H1654 H 0.31217 0.61993 0.70293 0.0
H1655 H 0.2872 0.60152 0.75624 0.0
H1656 H 0.33216 0.63872 0.78321 0.0
H1657 H 0.30629 0.62212 0.76885 0.0
H1658 H 0.33959 0.61419 0.71761 0.0
H1659 H 0.36514 0.63266 0.73203 0.0
C1660 C 0.28263 0.61376 0.70278 0.0
C1661 C 0.26661 0.60944 0.71367 0.0
C1662 C 0.30041 0.61509 0.71152 0.0
C1663 C 0.30246 0.61163 0.73121 0.0
C1664 C 0.28638 0.6054 0.74141 0.0
C1665 C 0.26862 0.60481 0.73284 0.0
C1666 C 0.33417 0.63283 0.76911 0.0
C1667 C 0.35041 0.63728 0.75862 0.0
C1668 C 0.31921 0.62311 0.76068 0.0
C1669 C 0.32024 0.61714 0.74155 0.0
C1670 C 0.33775 0.61923 0.73202 0.0
C1671 C 0.35268 0.62939 0.74044 0.0
H1672 H 0.36472 0.25412 0.73714 0.0
H1673 H 0.37308 0.286 0.68576 0.0
H1674 H 0.36255 0.28255 0.75519 0.0
H1675 H 0.37033 0.3154 0.70334 0.0
H1676 H 0.34682 0.3659 0.73332 0.0
H1677 H 0.36433 0.34046 0.71871 0.0
H1678 H 0.35669 0.30706 0.77009 0.0
H1679 H 0.33931 0.33238 0.78387 0.0
C1680 C 0.36599 0.26756 0.72976 0.0
C1681 C 0.36862 0.26799 0.71013 0.0
C1682 C 0.36475 0.28432 0.74017 0.0
C1683 C 0.36563 0.30231 0.73122 0.0
C1684 C 0.36918 0.30242 0.71134 0.0
C1685 C 0.37075 0.28545 0.70097 0.0
C1686 C 0.34947 0.3532 0.74153 0.0
C1687 C 0.34106 0.35078 0.7594 0.0
C1688 C 0.35925 0.33814 0.73297 0.0
C1689 C 0.36071 0.32027 0.7421 0.0
C1690 C 0.355 0.31947 0.76138 0.0
C1691 C 0.34519 0.3344 0.76977 0.0
H1692 H 0.61762 0.32284 0.73127 0.0
H1693 H 0.62711 0.36705 0.77248 0.0
H1694 H 0.64423 0.33331 0.7132 0.0
H1695 H 0.65491 0.37751 0.75505 0.0
H1696 H 0.70746 0.39341 0.72228 0.0
H1697 H 0.67633 0.38829 0.73597 0.0
H1698 H 0.67322 0.33403 0.70664 0.0
H1699 H 0.70322 0.34023 0.69232 0.0
C1700 C 0.62532 0.33523 0.7362 0.0
C1701 C 0.62012 0.34432 0.75309 0.0
C1702 C 0.64124 0.34106 0.72606 0.0
C1703 C 0.65288 0.35608 0.73261 0.0
C1704 C 0.64684 0.36589 0.74914 0.0
C1705 C 0.63073 0.35998 0.75929 0.0
C1706 C 0.69968 0.38066 0.7185 0.0
C1707 C 0.70773 0.3672 0.70625 0.0
C1708 C 0.68179 0.37744 0.72665 0.0
C1709 C 0.6715 0.36056 0.72285 0.0
C1710 C 0.67973 0.34747 0.71004 0.0
C1711 C 0.69739 0.35083 0.70182 0.0
H1712 H 0.66778 0.34064 0.23525 0.0
H1713 H 0.61197 0.36098 0.22122 0.0
H1714 H 0.65434 0.3142 0.25196 0.0
H1715 H 0.59796 0.33401 0.2387 0.0
H1716 H 0.5863 0.26835 0.2502 0.0
H1717 H 0.59384 0.30002 0.23785 0.0
H1718 H 0.63881 0.30515 0.27934 0.0
H1719 H 0.63202 0.27313 0.29047 0.0
C1720 C 0.65251 0.33952 0.23591 0.0
C1721 C 0.64096 0.35293 0.22697 0.0
C1722 C 0.6447 0.32439 0.24581 0.0
C1723 C 0.62498 0.32205 0.24716 0.0
C1724 C 0.61323 0.33543 0.23808 0.0
C1725 C 0.62118 0.35089 0.22817 0.0
C1726 C 0.59755 0.27653 0.25679 0.0
C1727 C 0.60883 0.26839 0.271 0.0
C1728 C 0.60183 0.29469 0.24982 0.0
C1729 C 0.61735 0.30497 0.25716 0.0
C1730 C 0.62724 0.29739 0.2728 0.0
C1731 C 0.62327 0.27915 0.27938 0.0
H1732 H 0.70126 0.62891 0.28674 0.0
H1733 H 0.71316 0.58714 0.24364 0.0
H1734 H 0.66903 0.63216 0.2747 0.0
H1735 H 0.6808 0.58994 0.23159 0.0
H1736 H 0.63963 0.62952 0.19827 0.0
H1737 H 0.66548 0.61327 0.21382 0.0
H1738 H 0.63793 0.62104 0.26819 0.0
H1739 H 0.61218 0.63783 0.25234 0.0
C1740 C 0.69675 0.62022 0.27484 0.0
C1741 C 0.70953 0.60802 0.26586 0.0
C1742 C 0.67823 0.62185 0.26805 0.0
C1743 C 0.67226 0.61141 0.25201 0.0
C1744 C 0.68495 0.5984 0.24377 0.0
C1745 C 0.70342 0.59671 0.25067 0.0
C1746 C 0.63864 0.62683 0.2134 0.0
C1747 C 0.62397 0.63485 0.22408 0.0
C1748 C 0.65354 0.61757 0.22243 0.0
C1749 C 0.65408 0.61619 0.24238 0.0
C1750 C 0.63818 0.62222 0.25284 0.0
C1751 C 0.6232 0.63147 0.24374 0.0
H1752 H 0.35549 0.63704 0.20236 0.0
H1753 H 0.33115 0.61625 0.25457 0.0
H1754 H 0.3718 0.66215 0.21996 0.0
H1755 H 0.34717 0.64134 0.27224 0.0
H1756 H 0.34206 0.70662 0.28204 0.0
H1757 H 0.33777 0.6741 0.27132 0.0
H1758 H 0.39277 0.67587 0.24424 0.0
H1759 H 0.39697 0.70874 0.25523 0.0
C1760 C 0.3545 0.63727 0.21773 0.0
C1761 C 0.34231 0.62469 0.22718 0.0
C1762 C 0.36374 0.65169 0.22785 0.0
C1763 C 0.36045 0.65398 0.24747 0.0
C1764 C 0.34981 0.6401 0.25712 0.0
C1765 C 0.34089 0.62553 0.24705 0.0
C1766 C 0.35335 0.69989 0.27409 0.0
C1767 C 0.36968 0.71009 0.26919 0.0
C1768 C 0.35103 0.68119 0.26811 0.0
C1769 C 0.36494 0.67235 0.25686 0.0
C1770 C 0.38178 0.68232 0.2528 0.0
C1771 C 0.38422 0.70104 0.2591 0.0
H1772 H 0.36253 0.34713 0.24984 0.0
H1773 H 0.33246 0.34887 0.19659 0.0
H1774 H 0.33583 0.36196 0.26569 0.0
H1775 H 0.3062 0.36497 0.21198 0.0
H1776 H 0.25381 0.35207 0.24771 0.0
H1777 H 0.2831 0.35094 0.22994 0.0
H1778 H 0.31145 0.38218 0.27476 0.0
H1779 H 0.28162 0.38291 0.29274 0.0
C1780 C 0.35067 0.35177 0.24129 0.0
C1781 C 0.34935 0.34642 0.22211 0.0
C1782 C 0.33517 0.3602 0.25042 0.0
C1783 C 0.31829 0.36379 0.24037 0.0
C1784 C 0.3185 0.36149 0.22046 0.0
C1785 C 0.33375 0.35265 0.21148 0.0
C1786 C 0.26634 0.35864 0.25378 0.0
C1787 C 0.26558 0.36718 0.27174 0.0
C1788 C 0.28317 0.35837 0.24341 0.0
C1789 C 0.29991 0.36658 0.25071 0.0
C1790 C 0.299 0.37557 0.26864 0.0
C1791 C 0.28194 0.37603 0.27898 0.0
H1792 H 0.68795 0.62701 0.69932 0.0
H1793 H 0.73158 0.58762 0.71528 0.0
H1794 H 0.70188 0.62994 0.66771 0.0
H1795 H 0.7455 0.59001 0.68355 0.0
H1796 H 0.77955 0.62921 0.64214 0.0
H1797 H 0.76332 0.61302 0.66783 0.0
H1798 H 0.71034 0.61818 0.63747 0.0
H1799 H 0.72679 0.63496 0.61198 0.0
C1800 C 0.70025 0.61858 0.69576 0.0
C1801 C 0.70873 0.60705 0.70947 0.0
C1802 C 0.70821 0.6201 0.67762 0.0
C1803 C 0.72492 0.61022 0.67296 0.0
C1804 C 0.73278 0.59796 0.68661 0.0
C1805 C 0.72476 0.59643 0.70471 0.0
C1806 C 0.76462 0.62593 0.64052 0.0
C1807 C 0.75441 0.63338 0.62518 0.0
C1808 C 0.7552 0.61673 0.65534 0.0
C1809 C 0.73534 0.61475 0.65506 0.0
C1810 C 0.72555 0.61992 0.63842 0.0
C1811 C 0.73504 0.62914 0.62356 0.0
H1812 H 0.39322 0.7265 0.70779 0.0
H1813 H 0.34152 0.69371 0.70805 0.0
H1814 H 0.38519 0.73897 0.67616 0.0
H1815 H 0.33401 0.70506 0.6763 0.0
H1816 H 0.3094 0.75395 0.64423 0.0
H1817 H 0.32296 0.73638 0.67002 0.0
H1818 H 0.37714 0.73591 0.6414 0.0
H1819 H 0.36321 0.75409 0.61494 0.0
C1820 C 0.3805 0.72149 0.70074 0.0
C1821 C 0.36771 0.70955 0.71031 0.0
C1822 C 0.37594 0.72852 0.68265 0.0
C1823 C 0.35867 0.72345 0.674 0.0
C1824 C 0.34711 0.70974 0.68285 0.0
C1825 C 0.35142 0.70314 0.70096 0.0
C1826 C 0.32422 0.75021 0.64327 0.0
C1827 C 0.33521 0.7554 0.62748 0.0
C1828 C 0.33198 0.73984 0.65804 0.0
C1829 C 0.35105 0.7343 0.65761 0.0
C1830 C 0.36234 0.73983 0.64204 0.0
C1831 C 0.35441 0.75018 0.62694 0.0
H1832 H 0.27642 0.39189 0.70008 0.0
H1833 H 0.24727 0.34107 0.71865 0.0
H1834 H 0.26171 0.38839 0.66844 0.0
H1835 H 0.23289 0.33782 0.68775 0.0
H1836 H 0.19384 0.34155 0.6435 0.0
H1837 H 0.20808 0.35802 0.67033 0.0
H1838 H 0.26101 0.36209 0.63989 0.0
H1839 H 0.24652 0.34579 0.61267 0.0
C1840 C 0.26696 0.38003 0.69747 0.0
C1841 C 0.26282 0.36691 0.71204 0.0
C1842 C 0.25856 0.37807 0.67941 0.0
C1843 C 0.24571 0.36318 0.67586 0.0
C1844 C 0.24225 0.34981 0.69023 0.0
C1845 C 0.25066 0.35162 0.70798 0.0
C1846 C 0.20818 0.34693 0.64208 0.0
C1847 C 0.21919 0.34208 0.6262 0.0
C1848 C 0.21641 0.35621 0.65751 0.0
C1849 C 0.23582 0.36069 0.6574 0.0
C1850 C 0.24606 0.3586 0.64039 0.0
C1851 C 0.23772 0.34937 0.62476 0.0
H1852 H 0.6658 0.22033 0.64349 0.0
H1853 H 0.61206 0.22837 0.61575 0.0
H1854 H 0.65541 0.23769 0.67033 0.0
H1855 H 0.60009 0.24417 0.64454 0.0
H1856 H 0.58922 0.2837 0.69671 0.0
H1857 H 0.5972 0.26774 0.66673 0.0
H1858 H 0.63968 0.23516 0.69666 0.0
H1859 H 0.63327 0.25261 0.7252 0.0
C1860 C 0.6515 0.22556 0.64326 0.0
C1861 C 0.63977 0.22276 0.62747 0.0
C1862 C 0.64521 0.23529 0.65912 0.0
C1863 C 0.62643 0.24172 0.66045 0.0
C1864 C 0.61461 0.23937 0.64435 0.0
C1865 C 0.62136 0.2302 0.62786 0.0
C1866 C 0.60047 0.27331 0.69654 0.0
C1867 C 0.61116 0.26989 0.71302 0.0
C1868 C 0.60497 0.26398 0.67941 0.0
C1869 C 0.61982 0.25062 0.6787 0.0
C1870 C 0.62914 0.2462 0.69586 0.0
C1871 C 0.62527 0.25605 0.71252 0.0
H1872 H 0.73171 0.38609 0.26126 0.0
H1873 H 0.68397 0.35521 0.28377 0.0
H1874 H 0.74767 0.38412 0.29188 0.0
H1875 H 0.70003 0.3523 0.3143 0.0
H1876 H 0.73019 0.34478 0.36749 0.0
H1877 H 0.71316 0.36186 0.34274 0.0
H1878 H 0.76382 0.36169 0.30803 0.0
H1879 H 0.78073 0.34573 0.33309 0.0
C1880 C 0.7245 0.37923 0.27301 0.0
C1881 C 0.70667 0.37086 0.27036 0.0
C1882 C 0.73372 0.37784 0.29053 0.0
C1883 C 0.72541 0.36775 0.30572 0.0
C1884 C 0.70694 0.36037 0.3032 0.0
C1885 C 0.69771 0.36187 0.28566 0.0
C1886 C 0.73788 0.34939 0.35498 0.0
C1887 C 0.75673 0.34379 0.35209 0.0
C1888 C 0.72801 0.35879 0.34053 0.0
C1889 C 0.73679 0.36267 0.32294 0.0
C1890 C 0.75635 0.35909 0.3212 0.0
C1891 C 0.76619 0.34988 0.33565 0.0
H1892 H 0.58135 0.71668 0.27471 0.0
H1893 H 0.64006 0.70022 0.27078 0.0
H1894 H 0.58779 0.73154 0.30587 0.0
H1895 H 0.64628 0.71452 0.30155 0.0
H1896 H 0.6584 0.76883 0.33033 0.0
H1897 H 0.644 0.75184 0.30429 0.0
H1898 H 0.60386 0.72598 0.34272 0.0
H1899 H 0.61885 0.74297 0.36958 0.0
C1900 C 0.59542 0.71573 0.28076 0.0
C1901 C 0.61037 0.70781 0.2702 0.0
C1902 C 0.59907 0.72417 0.29853 0.0
C1903 C 0.61761 0.72452 0.3058 0.0
C1904 C 0.63194 0.71476 0.29607 0.0
C1905 C 0.62839 0.70661 0.27844 0.0
C1906 C 0.64626 0.75987 0.33338 0.0
C1907 C 0.64006 0.7569 0.35214 0.0
C1908 C 0.63806 0.75007 0.31839 0.0
C1909 C 0.62321 0.73722 0.32161 0.0
C1910 C 0.6155 0.73566 0.33999 0.0
C1911 C 0.62399 0.74543 0.35529 0.0
H1912 H 0.19585 0.64198 0.33257 0.0
H1913 H 0.24489 0.6286 0.3663 0.0
H1914 H 0.20924 0.62648 0.30583 0.0
H1915 H 0.25803 0.6106 0.33972 0.0
H1916 H 0.2899 0.61116 0.28226 0.0
H1917 H 0.27425 0.61412 0.31301 0.0
H1918 H 0.21988 0.60757 0.28486 0.0
H1919 H 0.23569 0.6074 0.25455 0.0
C1920 C 0.20919 0.63465 0.3345 0.0
C1921 C 0.21951 0.63693 0.35131 0.0
C1922 C 0.21708 0.6255 0.31894 0.0
C1923 C 0.23535 0.6175 0.3199 0.0
C1924 C 0.2444 0.61727 0.33785 0.0
C1925 C 0.23665 0.62713 0.35339 0.0
C1926 C 0.27458 0.6106 0.28293 0.0
C1927 C 0.26386 0.60982 0.26622 0.0
C1928 C 0.26546 0.61202 0.30061 0.0
C1929 C 0.24544 0.612 0.30186 0.0
C1930 C 0.2351 0.60906 0.28491 0.0
C1931 C 0.24416 0.60862 0.26735 0.0
H1932 H 0.34466 0.24686 0.36675 0.0
H1933 H 0.34016 0.1945 0.33521 0.0
H1934 H 0.36063 0.26175 0.33968 0.0
H1935 H 0.35655 0.2091 0.30852 0.0
H1936 H 0.33911 0.24916 0.26089 0.0
H1937 H 0.33702 0.23301 0.29095 0.0
H1938 H 0.38544 0.26439 0.31176 0.0
H1939 H 0.38772 0.28092 0.28096 0.0
C1940 C 0.34814 0.2382 0.35451 0.0
C1941 C 0.34084 0.21968 0.35283 0.0
C1942 C 0.35721 0.24677 0.33897 0.0
C1943 C 0.35918 0.23675 0.3218 0.0
C1944 C 0.35476 0.21728 0.32144 0.0
C1945 C 0.34554 0.20885 0.33678 0.0
C1946 C 0.34938 0.25278 0.27175 0.0
C1947 C 0.36361 0.26635 0.26843 0.0
C1948 C 0.34833 0.24327 0.28898 0.0
C1949 C 0.3614 0.24703 0.30354 0.0
C1950 C 0.37537 0.26102 0.30063 0.0
C1951 C 0.37661 0.27049 0.28308 0.0
H1952 H 0.71893 0.73929 0.59709 0.0
H1953 H 0.69383 0.68676 0.61587 0.0
H1954 H 0.68832 0.75474 0.5987 0.0
H1955 H 0.66323 0.70233 0.61914 0.0
H1956 H 0.61046 0.73182 0.63033 0.0
H1957 H 0.63574 0.71731 0.61163 0.0
H1958 H 0.67046 0.76731 0.62113 0.0
H1959 H 0.6449 0.78188 0.63808 0.0
C1960 C 0.70665 0.73106 0.60139 0.0
C1961 C 0.70854 0.71199 0.60644 0.0
C1962 C 0.68908 0.73993 0.60261 0.0
C1963 C 0.67309 0.73009 0.6096 0.0
C1964 C 0.67496 0.71053 0.61357 0.0
C1965 C 0.69254 0.70156 0.61192 0.0
C1966 C 0.62316 0.73999 0.6274 0.0
C1967 C 0.62596 0.7578 0.6359 0.0
C1968 C 0.63789 0.73152 0.61707 0.0
C1969 C 0.65565 0.74067 0.61537 0.0
C1970 C 0.65725 0.75953 0.62189 0.0
C1971 C 0.6425 0.76803 0.63177 0.0
H1972 H 0.70213 0.27241 0.39517 0.0
H1973 H 0.71371 0.26251 0.33559 0.0
H1974 H 0.67102 0.25679 0.3914 0.0
H1975 H 0.68322 0.24711 0.3321 0.0
H1976 H 0.64786 0.19728 0.33626 0.0
H1977 H 0.67442 0.21396 0.35046 0.0
H1978 H 0.63756 0.25977 0.36692 0.0
H1979 H 0.61066 0.24311 0.35208 0.0
C1980 C 0.69798 0.2672 0.38128 0.0
C1981 C 0.71059 0.2683 0.36577 0.0
C1982 C 0.68023 0.25831 0.37917 0.0
C1983 C 0.67505 0.25041 0.36159 0.0
C1984 C 0.68709 0.25275 0.3459 0.0
C1985 C 0.7046 0.26159 0.34795 0.0
C1986 C 0.64516 0.21046 0.34371 0.0
C1987 C 0.62734 0.21914 0.34263 0.0
C1988 C 0.66042 0.22007 0.35172 0.0
C1989 C 0.65805 0.23833 0.35926 0.0
C1990 C 0.63969 0.24575 0.36098 0.0
C1991 C 0.62429 0.23614 0.35266 0.0
H1992 H 0.77863 0.64329 0.347 0.0
H1993 H 0.72578 0.61364 0.33842 0.0
H1994 H 0.76223 0.66802 0.36443 0.0
H1995 H 0.70916 0.63824 0.3562 0.0
H1996 H 0.68781 0.70091 0.35145 0.0
H1997 H 0.70108 0.66936 0.34671 0.0
H1998 H 0.74413 0.68166 0.38878 0.0
H1999 H 0.7309 0.71339 0.39301 0.0
C2000 C 0.7636 0.64163 0.3497 0.0
C2001 C 0.75348 0.62662 0.34138 0.0
C2002 C 0.7541 0.65585 0.35968 0.0
C2003 C 0.73422 0.65543 0.3614 0.0
C2004 C 0.7244 0.63926 0.35481 0.0
C2005 C 0.73397 0.62495 0.34494 0.0
C2006 C 0.6998 0.69657 0.35999 0.0
C2007 C 0.7084 0.70937 0.37257 0.0
C2008 C 0.70738 0.67845 0.35741 0.0
C2009 C 0.72385 0.6729 0.36725 0.0
C2010 C 0.73164 0.68548 0.38076 0.0
C2011 C 0.724 0.70357 0.38334 0.0
H2012 H 0.28121 0.68795 0.36124 0.0
H2013 H 0.25982 0.74057 0.38354 0.0
H2014 H 0.31255 0.70224 0.35759 0.0
H2015 H 0.29123 0.75455 0.38187 0.0
H2016 H 0.33438 0.7822 0.34256 0.0
H2017 H 0.30874 0.76758 0.35949 0.0
H2018 H 0.34112 0.7157 0.36419 0.0
H2019 H 0.36645 0.73044 0.34557 0.0
C2020 C 0.28349 0.70245 0.36586 0.0
C2021 C 0.26829 0.71339 0.37229 0.0
C2022 C 0.3015 0.71068 0.36401 0.0
C2023 C 0.30461 0.72991 0.36891 0.0
C2024 C 0.28947 0.74006 0.37708 0.0
C2025 C 0.27145 0.73202 0.37832 0.0
C2026 C 0.33633 0.76791 0.34788 0.0
C2027 C 0.35225 0.75741 0.34255 0.0
C2028 C 0.3215 0.75935 0.35774 0.0
C2029 C 0.32235 0.74007 0.36296 0.0
C2030 C 0.33952 0.73033 0.35986 0.0
C2031 C 0.35432 0.7389 0.3496 0.0
H2032 H 0.25029 0.27183 0.39677 0.0
H2033 H 0.28486 0.27376 0.3463 0.0
H2034 H 0.23831 0.30363 0.38973 0.0
H2035 H 0.27448 0.30595 0.34006 0.0
H2036 H 0.22906 0.34285 0.3158 0.0
H2037 H 0.24686 0.31647 0.32738 0.0
H2038 H 0.23967 0.33689 0.38502 0.0
H2039 H 0.22057 0.36337 0.37278 0.0
C2040 C 0.25574 0.27939 0.38452 0.0
C2041 C 0.2681 0.27044 0.37179 0.0
C2042 C 0.24902 0.29764 0.38053 0.0
C2043 C 0.25498 0.30721 0.36399 0.0
C2044 C 0.26893 0.29876 0.35247 0.0
C2045 C 0.27506 0.2804 0.3561 0.0
C2046 C 0.23139 0.34184 0.33087 0.0
C2047 C 0.22341 0.35501 0.34334 0.0
C2048 C 0.2419 0.32677 0.33764 0.0
C2049 C 0.24504 0.32452 0.35723 0.0
C2050 C 0.23747 0.33811 0.36985 0.0
C2051 C 0.2267 0.35331 0.36291 0.0
H2052 H 0.36245 0.22125 0.6113 0.0
H2053 H 0.33796 0.22657 0.6672 0.0
H2054 H 0.33621 0.24018 0.59812 0.0
H2055 H 0.31212 0.24469 0.65453 0.0
H2056 H 0.27226 0.28533 0.63486 0.0
H2057 H 0.30399 0.27408 0.64201 0.0
H2058 H 0.30231 0.23819 0.5921 0.0
H2059 H 0.2709 0.25074 0.58429 0.0
C2060 C 0.35153 0.22658 0.6207 0.0
C2061 C 0.35207 0.22253 0.6402 0.0
C2062 C 0.33655 0.23731 0.61323 0.0
C2063 C 0.32218 0.24426 0.6253 0.0
C2064 C 0.32311 0.24017 0.64481 0.0
C2065 C 0.33784 0.22952 0.65211 0.0
C2066 C 0.27896 0.27544 0.62518 0.0
C2067 C 0.26923 0.26864 0.60923 0.0
C2068 C 0.29704 0.26886 0.6293 0.0
C2069 C 0.30546 0.25473 0.61798 0.0
C2070 C 0.29626 0.24903 0.60114 0.0
C2071 C 0.27827 0.2561 0.59671 0.0
H2072 H 0.71999 0.26912 0.58756 0.0
H2073 H 0.68561 0.27548 0.63787 0.0
H2074 H 0.7357 0.29948 0.59443 0.0
H2075 H 0.70028 0.30615 0.64411 0.0
H2076 H 0.75003 0.33791 0.66778 0.0
H2077 H 0.73092 0.31217 0.65605 0.0
H2078 H 0.73563 0.33447 0.59899 0.0
H2079 H 0.75526 0.36092 0.6113 0.0
C2080 C 0.71539 0.27734 0.59974 0.0
C2081 C 0.70183 0.26991 0.61239 0.0
C2082 C 0.72432 0.29474 0.60362 0.0
C2083 C 0.71955 0.30506 0.62006 0.0
C2084 C 0.70473 0.2983 0.63166 0.0
C2085 C 0.69621 0.28079 0.62806 0.0
C2086 C 0.74677 0.33759 0.6528 0.0
C2087 C 0.7538 0.35159 0.64055 0.0
C2088 C 0.73569 0.32281 0.64601 0.0
C2089 C 0.73128 0.32142 0.62661 0.0
C2090 C 0.73863 0.33524 0.61407 0.0
C2091 C 0.74973 0.35039 0.62105 0.0
H2092 H 0.25055 0.61335 0.63587 0.0
H2093 H 0.19857 0.64487 0.63174 0.0
H2094 H 0.26742 0.63892 0.61958 0.0
H2095 H 0.21523 0.67061 0.61609 0.0
H2096 H 0.24779 0.71851 0.59237 0.0
H2097 H 0.23301 0.68709 0.59369 0.0
H2098 H 0.27731 0.6684 0.63172 0.0
H2099 H 0.29201 0.69975 0.62997 0.0
C2100 C 0.24254 0.62532 0.63061 0.0
C2101 C 0.22329 0.62724 0.63521 0.0
C2102 C 0.25228 0.64022 0.62164 0.0
C2103 C 0.24291 0.65724 0.61708 0.0
C2104 C 0.2231 0.65789 0.61938 0.0
C2105 C 0.21342 0.64304 0.62833 0.0
C2106 C 0.25455 0.70743 0.60057 0.0
C2107 C 0.27096 0.71139 0.61109 0.0
C2108 C 0.24603 0.68946 0.60148 0.0
C2109 C 0.25379 0.67507 0.61294 0.0
C2110 C 0.27095 0.6789 0.62253 0.0
C2111 C 0.27936 0.69691 0.62171 0.0
H2112 H 0.17476 0.34405 0.2752 0.0
H2113 H 0.14625 0.39679 0.26369 0.0
H2114 H 0.15302 0.32736 0.2544 0.0
H2115 H 0.12462 0.38009 0.24188 0.0
H2116 H 0.08019 0.33499 0.21765 0.0
H2117 H 0.09942 0.35624 0.23766 0.0
H2118 H 0.14973 0.32577 0.2208 0.0
H2119 H 0.13053 0.30464 0.20141 0.0
C2120 C 0.16369 0.35204 0.26827 0.0
C2121 C 0.16225 0.3717 0.27087 0.0
C2122 C 0.15135 0.34253 0.25613 0.0
C2123 C 0.13749 0.35249 0.2459 0.0
C2124 C 0.13524 0.37204 0.24943 0.0
C2125 C 0.14752 0.38158 0.26194 0.0
C2126 C 0.09543 0.33331 0.2179 0.0
C2127 C 0.10394 0.31813 0.20828 0.0
C2128 C 0.10643 0.34537 0.22939 0.0
C2129 C 0.12602 0.34227 0.23136 0.0
C2130 C 0.13459 0.32812 0.2202 0.0
C2131 C 0.12365 0.31612 0.20892 0.0
H2132 H 0.68575 0.11916 0.23156 0.0
H2133 H 0.63996 0.09529 0.19856 0.0
H2134 H 0.66441 0.13712 0.24962 0.0
H2135 H 0.6174 0.11232 0.21812 0.0
H2136 H 0.57872 0.15141 0.25142 0.0
H2137 H 0.59921 0.1315 0.2326 0.0
H2138 H 0.64579 0.14572 0.27065 0.0
H2139 H 0.62524 0.16627 0.288 0.0
C2140 C 0.67082 0.11748 0.22837 0.0
C2141 C 0.66461 0.10554 0.21365 0.0
C2142 C 0.65815 0.12778 0.23923 0.0
C2143 C 0.63844 0.12615 0.23645 0.0
C2144 C 0.63221 0.11428 0.22132 0.0
C2145 C 0.64517 0.10423 0.20996 0.0
C2146 C 0.59336 0.14979 0.25572 0.0
C2147 C 0.60044 0.16003 0.2712 0.0
C2148 C 0.60539 0.13838 0.24481 0.0
C2149 C 0.62491 0.13697 0.24912 0.0
C2150 C 0.63141 0.14658 0.26564 0.0
C2151 C 0.61943 0.15813 0.27627 0.0
H2152 H 0.82054 0.62231 0.29085 0.0
H2153 H 0.81703 0.58505 0.24241 0.0
H2154 H 0.84201 0.6431 0.27348 0.0
H2155 H 0.83774 0.60612 0.22441 0.0
H2156 H 0.88286 0.64405 0.19784 0.0
H2157 H 0.86579 0.62038 0.21671 0.0
H2158 H 0.84159 0.66543 0.25073 0.0
H2159 H 0.8595 0.68843 0.23301 0.0
C2160 C 0.8249 0.61833 0.27662 0.0
C2161 C 0.81757 0.60195 0.26805 0.0
C2162 C 0.83683 0.63048 0.26639 0.0
C2163 C 0.8415 0.62664 0.24723 0.0
C2164 C 0.83477 0.60963 0.23908 0.0
C2165 C 0.82288 0.59748 0.24938 0.0
C2166 C 0.87409 0.64873 0.20956 0.0
C2167 C 0.87277 0.66808 0.21405 0.0
C2168 C 0.86409 0.6352 0.22031 0.0
C2169 C 0.85241 0.64078 0.23563 0.0
C2170 C 0.85089 0.66027 0.23966 0.0
C2171 C 0.86106 0.67362 0.22922 0.0
H2172 H 0.39736 0.83193 0.25414 0.0
H2173 H 0.34864 0.80827 0.28244 0.0
H2174 H 0.37689 0.85321 0.23615 0.0
H2175 H 0.32802 0.82704 0.26316 0.0
H2176 H 0.29197 0.86948 0.23702 0.0
H2177 H 0.31398 0.85299 0.25631 0.0
H2178 H 0.3568 0.85917 0.21245 0.0
H2179 H 0.33448 0.87778 0.19364 0.0
C2180 C 0.38223 0.83167 0.25673 0.0
C2181 C 0.37447 0.81901 0.26998 0.0
C2182 C 0.37037 0.84346 0.24605 0.0
C2183 C 0.35048 0.84225 0.24797 0.0
C2184 C 0.34305 0.8294 0.26149 0.0
C2185 C 0.3549 0.81834 0.27261 0.0
C2186 C 0.30615 0.86752 0.23146 0.0
C2187 C 0.31147 0.87498 0.21377 0.0
C2188 C 0.31889 0.85757 0.24251 0.0
C2189 C 0.3374 0.85402 0.23607 0.0
C2190 C 0.34285 0.86164 0.21825 0.0
C2191 C 0.33004 0.87225 0.20729 0.0
H2192 H 0.10622 0.64424 0.79028 0.0
H2193 H 0.09784 0.67832 0.74026 0.0
H2194 H 0.12496 0.62222 0.77206 0.0
H2195 H 0.11658 0.65756 0.722 0.0
H2196 H 0.15396 0.62011 0.6883 0.0
H2197 H 0.13242 0.63928 0.70583 0.0
H2198 H 0.14382 0.6055 0.75639 0.0
H2199 H 0.16533 0.58667 0.73801 0.0
C2200 C 0.10815 0.64673 0.7752 0.0
C2201 C 0.10051 0.66283 0.76663 0.0
C2202 C 0.11929 0.63419 0.76451 0.0
C2203 C 0.12306 0.63749 0.74492 0.0
C2204 C 0.11465 0.65362 0.73663 0.0
C2205 C 0.10357 0.66589 0.74724 0.0
C2206 C 0.15118 0.61657 0.70303 0.0
C2207 C 0.16074 0.60168 0.71171 0.0
C2208 C 0.1389 0.6279 0.71359 0.0
C2209 C 0.13572 0.62464 0.73327 0.0
C2210 C 0.14522 0.60909 0.74158 0.0
C2211 C 0.15762 0.59791 0.73097 0.0
H2212 H 0.36926 0.14576 0.69079 0.0
H2213 H 0.37566 0.17957 0.74155 0.0
H2214 H 0.35079 0.12253 0.70861 0.0
H2215 H 0.35635 0.15722 0.7592 0.0
H2216 H 0.33044 0.10866 0.79141 0.0
H2217 H 0.35263 0.12878 0.7739 0.0
H2218 H 0.32232 0.11639 0.7218 0.0
H2219 H 0.30139 0.09545 0.73908 0.0
C2220 C 0.36691 0.14804 0.70584 0.0
C2221 C 0.37407 0.16427 0.71486 0.0
C2222 C 0.35599 0.13493 0.71606 0.0
C2223 C 0.3519 0.13784 0.73552 0.0
C2224 C 0.3594 0.15408 0.74446 0.0
C2225 C 0.3704 0.16704 0.73428 0.0
C2226 C 0.32905 0.1098 0.77612 0.0
C2227 C 0.31441 0.10029 0.76656 0.0
C2228 C 0.34149 0.12168 0.76606 0.0
C2229 C 0.33942 0.12439 0.74626 0.0
C2230 C 0.32488 0.11447 0.73683 0.0
C2231 C 0.31271 0.10247 0.7468 0.0
H2232 H 0.83552 0.39033 0.70822 0.0
H2233 H 0.7923 0.34941 0.72298 0.0
H2234 H 0.85803 0.37359 0.7285 0.0
H2235 H 0.81467 0.33194 0.74169 0.0
H2236 H 0.85014 0.31041 0.78783 0.0
H2237 H 0.82941 0.33093 0.76968 0.0
H2238 H 0.87731 0.34903 0.73554 0.0
H2239 H 0.89798 0.3292 0.75476 0.0
C2240 C 0.83095 0.37761 0.71557 0.0
C2241 C 0.81209 0.37145 0.71435 0.0
C2242 C 0.84385 0.36788 0.72717 0.0
C2243 C 0.83819 0.35157 0.73743 0.0
C2244 C 0.81954 0.34489 0.73501 0.0
C2245 C 0.80666 0.35481 0.72393 0.0
C2246 C 0.85624 0.31945 0.77695 0.0
C2247 C 0.87561 0.31863 0.77287 0.0
C2248 C 0.84431 0.33086 0.76609 0.0
C2249 C 0.85142 0.3414 0.75055 0.0
C2250 C 0.87113 0.34131 0.7473 0.0
C2251 C 0.88308 0.33 0.75835 0.0
H2252 H 0.68423 0.84945 0.75816 0.0
H2253 H 0.64122 0.88935 0.77543 0.0
H2254 H 0.66168 0.8333 0.73799 0.0
H2255 H 0.61843 0.87332 0.75447 0.0
H2256 H 0.58033 0.82472 0.72929 0.0
H2257 H 0.60058 0.8447 0.74921 0.0
H2258 H 0.64615 0.83823 0.70863 0.0
H2259 H 0.62587 0.81798 0.68909 0.0
C2260 C 0.6699 0.85486 0.75759 0.0
C2261 C 0.66456 0.87092 0.76815 0.0
C2262 C 0.65699 0.84566 0.74582 0.0
C2263 C 0.63837 0.85235 0.7441 0.0
C2264 C 0.63272 0.8679 0.75535 0.0
C2265 C 0.64573 0.87711 0.76733 0.0
C2266 C 0.59444 0.82831 0.72434 0.0
C2267 C 0.60148 0.82033 0.70751 0.0
C2268 C 0.60609 0.83961 0.73578 0.0
C2269 C 0.62509 0.84286 0.73069 0.0
C2270 C 0.63169 0.83576 0.71317 0.0
C2271 C 0.61999 0.82454 0.70172 0.0
H2272 H 0.23776 0.1718 0.38944 0.0
H2273 H 0.29033 0.15144 0.36607 0.0
H2274 H 0.22012 0.15089 0.36862 0.0
H2275 H 0.27291 0.12928 0.34596 0.0
H2276 H 0.23763 0.10671 0.29758 0.0
H2277 H 0.25542 0.12603 0.31967 0.0
H2278 H 0.20901 0.12244 0.35988 0.0
H2279 H 0.19077 0.1041 0.33686 0.0
C2280 C 0.24552 0.16231 0.38018 0.0
C2281 C 0.26536 0.163 0.37951 0.0
C2282 C 0.23541 0.15017 0.36823 0.0
C2283 C 0.24488 0.13816 0.35539 0.0
C2284 C 0.26491 0.13846 0.35529 0.0
C2285 C 0.27503 0.15083 0.36716 0.0
C2286 C 0.23128 0.11005 0.3112 0.0
C2287 C 0.21286 0.10387 0.31556 0.0
C2288 C 0.2416 0.12101 0.32406 0.0
C2289 C 0.23391 0.12591 0.34185 0.0
C2290 C 0.21548 0.11934 0.3463 0.0
C2291 C 0.20505 0.10849 0.33326 0.0
H2292 H 0.89902 0.2291 0.32602 0.0
H2293 H 0.85215 0.19279 0.31126 0.0
H2294 H 0.87885 0.24698 0.34754 0.0
H2295 H 0.83124 0.21164 0.33042 0.0
H2296 H 0.79678 0.23887 0.37457 0.0
H2297 H 0.81847 0.22043 0.35648 0.0
H2298 H 0.85741 0.26826 0.35477 0.0
H2299 H 0.83574 0.28621 0.37477 0.0
C2300 C 0.88438 0.22478 0.3278 0.0
C2301 C 0.87721 0.20917 0.31778 0.0
C2302 C 0.87255 0.23535 0.33974 0.0
C2303 C 0.85305 0.23101 0.34124 0.0
C2304 C 0.8461 0.2153 0.33077 0.0
C2305 C 0.8581 0.20432 0.31958 0.0
C2306 C 0.81013 0.2454 0.37059 0.0
C2307 C 0.8146 0.26397 0.37629 0.0
C2308 C 0.82263 0.23484 0.35968 0.0
C2309 C 0.84 0.24259 0.35351 0.0
C2310 C 0.84451 0.26134 0.35932 0.0
C2311 C 0.83204 0.27182 0.3708 0.0
H2312 H 0.73981 0.87177 0.29655 0.0
H2313 H 0.78529 0.87672 0.33727 0.0
H2314 H 0.72265 0.85128 0.31765 0.0
H2315 H 0.76719 0.85739 0.35963 0.0
H2316 H 0.73752 0.80881 0.3902 0.0
H2317 H 0.75589 0.82964 0.36983 0.0
H2318 H 0.704 0.84781 0.34251 0.0
H2319 H 0.68611 0.82586 0.36224 0.0
C2320 C 0.746 0.86878 0.31031 0.0
C2321 C 0.76385 0.8761 0.31531 0.0
C2322 C 0.73593 0.8571 0.32267 0.0
C2323 C 0.74305 0.85277 0.34081 0.0
C2324 C 0.76106 0.86014 0.34584 0.0
C2325 C 0.77141 0.87156 0.33316 0.0
C2326 C 0.73014 0.81755 0.37995 0.0
C2327 C 0.71044 0.81603 0.37793 0.0
C2328 C 0.74066 0.82962 0.36824 0.0
C2329 C 0.7317 0.84058 0.35416 0.0
C2330 C 0.71173 0.8394 0.3527 0.0
C2331 C 0.70126 0.82717 0.36436 0.0
H2332 H 0.17197 0.74022 0.38543 0.0
H2333 H 0.14794 0.68781 0.36488 0.0
H2334 H 0.15091 0.75806 0.36573 0.0
H2335 H 0.12532 0.70531 0.34615 0.0
H2336 H 0.09503 0.73875 0.30181 0.0
H2337 H 0.11498 0.72098 0.3226 0.0
H2338 H 0.12698 0.7725 0.35455 0.0
H2339 H 0.10817 0.79028 0.33213 0.0
C2340 C 0.16163 0.73255 0.37696 0.0
C2341 C 0.16146 0.71268 0.37676 0.0
C2342 C 0.14925 0.74285 0.36556 0.0
C2343 C 0.1359 0.7336 0.35379 0.0
C2344 C 0.1354 0.71347 0.35433 0.0
C2345 C 0.14811 0.70317 0.36554 0.0
C2346 C 0.10191 0.74619 0.31343 0.0
C2347 C 0.09995 0.76587 0.31544 0.0
C2348 C 0.11341 0.73588 0.3257 0.0
C2349 C 0.12305 0.74482 0.34085 0.0
C2350 C 0.12044 0.76465 0.34311 0.0
C2351 C 0.10918 0.77504 0.33047 0.0
H2352 H 0.23693 0.80129 0.6 0.0
H2353 H 0.28825 0.8317 0.61358 0.0
H2354 H 0.21864 0.82331 0.61907 0.0
H2355 H 0.27011 0.85461 0.63187 0.0
H2356 H 0.2373 0.8801 0.68009 0.0
H2357 H 0.25507 0.86008 0.659 0.0
H2358 H 0.20482 0.85147 0.6246 0.0
H2359 H 0.18664 0.87047 0.64715 0.0
C2360 C 0.24419 0.81304 0.60683 0.0
C2361 C 0.26388 0.81501 0.60524 0.0
C2362 C 0.2337 0.82583 0.61768 0.0
C2363 C 0.24269 0.84097 0.62722 0.0
C2364 C 0.26251 0.84305 0.62516 0.0
C2365 C 0.27299 0.83016 0.61434 0.0
C2366 C 0.23008 0.87403 0.66791 0.0
C2367 C 0.2106 0.87681 0.66524 0.0
C2368 C 0.24037 0.86261 0.65558 0.0
C2369 C 0.23161 0.85398 0.63981 0.0
C2370 C 0.21214 0.85748 0.63671 0.0
C2371 C 0.2017 0.86871 0.64938 0.0
H2372 H 0.17027 0.2835 0.62725 0.0
H2373 H 0.14948 0.25168 0.57936 0.0
H2374 H 0.15155 0.26474 0.64837 0.0
H2375 H 0.12814 0.23407 0.60004 0.0
H2376 H 0.10072 0.19386 0.6424 0.0
H2377 H 0.11961 0.21232 0.62012 0.0
H2378 H 0.12826 0.25491 0.66404 0.0
H2379 H 0.1115 0.2357 0.68593 0.0
C2380 C 0.16079 0.27294 0.62124 0.0
C2381 C 0.16098 0.26921 0.60177 0.0
C2382 C 0.14971 0.26202 0.63341 0.0
C2383 C 0.13766 0.2475 0.62639 0.0
C2384 C 0.13726 0.2446 0.60649 0.0
C2385 C 0.14912 0.25507 0.59438 0.0
C2386 C 0.1069 0.20716 0.64708 0.0
C2387 C 0.10461 0.21329 0.6659 0.0
C2388 C 0.1177 0.21801 0.63424 0.0
C2389 C 0.12601 0.23551 0.63982 0.0
C2390 C 0.12313 0.24149 0.65873 0.0
C2391 C 0.11299 0.23047 0.67151 0.0
H2392 H 0.74965 0.08197 0.65582 0.0
H2393 H 0.78661 0.12938 0.66715 0.0
H2394 H 0.73028 0.10173 0.63523 0.0
H2395 H 0.76903 0.14872 0.64512 0.0
H2396 H 0.72606 0.1876 0.62454 0.0
H2397 H 0.7439 0.16592 0.64304 0.0
H2398 H 0.72038 0.11893 0.61074 0.0
H2399 H 0.7006 0.14129 0.59327 0.0
C2400 C 0.75396 0.09652 0.65322 0.0
C2401 C 0.76951 0.10429 0.66288 0.0
C2402 C 0.74287 0.10795 0.6414 0.0
C2403 C 0.74741 0.1273 0.63878 0.0
C2404 C 0.76412 0.13435 0.64738 0.0
C2405 C 0.77469 0.12314 0.65967 0.0
C2406 C 0.72456 0.17263 0.62132 0.0
C2407 C 0.71213 0.1662 0.60713 0.0
C2408 C 0.73524 0.16 0.63182 0.0
C2409 C 0.7346 0.1404 0.62804 0.0
C2410 C 0.7216 0.13384 0.61417 0.0
C2411 C 0.7103 0.14664 0.60395 0.0
H2412 H 0.83739 0.70328 0.59167 0.0
H2413 H 0.79202 0.72634 0.62565 0.0
H2414 H 0.86008 0.72314 0.6091 0.0
H2415 H 0.81423 0.74456 0.64382 0.0
H2416 H 0.85174 0.78919 0.6653 0.0
H2417 H 0.83168 0.77096 0.64397 0.0
H2418 H 0.87713 0.73066 0.63572 0.0
H2419 H 0.89738 0.7499 0.6563 0.0
C2420 C 0.83232 0.71237 0.60298 0.0
C2421 C 0.81289 0.71341 0.60704 0.0
C2422 C 0.8453 0.72372 0.6131 0.0
C2423 C 0.8391 0.73607 0.62768 0.0
C2424 C 0.81971 0.73614 0.63221 0.0
C2425 C 0.80685 0.7253 0.62188 0.0
C2426 C 0.85758 0.77684 0.65825 0.0
C2427 C 0.87614 0.77112 0.66199 0.0
C2428 C 0.84595 0.76599 0.64639 0.0
C2429 C 0.85246 0.74884 0.63833 0.0
C2430 C 0.87148 0.74372 0.64144 0.0
C2431 C 0.88317 0.75474 0.65321 0.0
H2432 H 0.30732 0.23894 0.091 0.0
H2433 H 0.32622 0.18762 0.11789 0.0
H2434 H 0.32847 0.25746 0.11025 0.0
H2435 H 0.34866 0.20542 0.13647 0.0
H2436 H 0.379 0.24039 0.17926 0.0
H2437 H 0.35974 0.22213 0.15843 0.0
H2438 H 0.3511 0.27221 0.1234 0.0
H2439 H 0.36921 0.29067 0.14602 0.0
C2440 C 0.31661 0.23163 0.10081 0.0
C2441 C 0.31543 0.21192 0.10285 0.0
C2442 C 0.32898 0.24229 0.11202 0.0
C2443 C 0.34076 0.2335 0.1256 0.0
C2444 C 0.33987 0.21341 0.1269 0.0
C2445 C 0.32727 0.20282 0.11578 0.0
C2446 C 0.37305 0.2474 0.16694 0.0
C2447 C 0.37567 0.26691 0.1642 0.0
C2448 C 0.36191 0.23677 0.1546 0.0
C2449 C 0.35336 0.24512 0.13855 0.0
C2450 C 0.35678 0.26477 0.13549 0.0
C2451 C 0.36766 0.27554 0.14826 0.0
H2452 H 0.39817 0.72571 0.83178 0.0
H2453 H 0.34956 0.69685 0.80852 0.0
H2454 H 0.3776 0.74356 0.85322 0.0
H2455 H 0.32882 0.71602 0.82752 0.0
H2456 H 0.2936 0.74046 0.87253 0.0
H2457 H 0.31536 0.72207 0.85446 0.0
H2458 H 0.35705 0.76727 0.85866 0.0
H2459 H 0.33512 0.78524 0.87862 0.0
C2460 C 0.38305 0.72301 0.83158 0.0
C2461 C 0.37537 0.70964 0.81899 0.0
C2462 C 0.37114 0.73359 0.84347 0.0
C2463 C 0.35127 0.73145 0.84244 0.0
C2464 C 0.34387 0.71786 0.82963 0.0
C2465 C 0.35578 0.70683 0.81846 0.0
C2466 C 0.30749 0.7465 0.86981 0.0
C2467 C 0.31266 0.76429 0.8772 0.0
C2468 C 0.32004 0.73598 0.85898 0.0
C2469 C 0.33819 0.74302 0.85457 0.0
C2470 C 0.34341 0.76102 0.86189 0.0
C2471 C 0.33082 0.77147 0.87327 0.0
H2472 H 0.20465 0.33736 0.89137 0.0
H2473 H 0.22483 0.29319 0.854 0.0
H2474 H 0.22426 0.36052 0.8742 0.0
H2475 H 0.24303 0.316 0.8363 0.0
H2476 H 0.28822 0.35392 0.81616 0.0
H2477 H 0.27036 0.33324 0.83735 0.0
H2478 H 0.2298 0.37818 0.84676 0.0
H2479 H 0.24835 0.39893 0.82602 0.0
C2480 C 0.21306 0.33266 0.87939 0.0
C2481 C 0.21337 0.31341 0.87425 0.0
C2482 C 0.22426 0.34591 0.86946 0.0
C2483 C 0.23575 0.34016 0.85406 0.0
C2484 C 0.23516 0.32101 0.84851 0.0
C2485 C 0.2244 0.30785 0.85858 0.0
C2486 C 0.27592 0.35954 0.82345 0.0
C2487 C 0.26985 0.37808 0.81992 0.0
C2488 C 0.26535 0.34757 0.83524 0.0
C2489 C 0.24826 0.3538 0.84357 0.0
C2490 C 0.24285 0.37281 0.84078 0.0
C2491 C 0.25349 0.38477 0.82896 0.0
H2492 H 0.63097 0.27704 0.80426 0.0
H2493 H 0.57981 0.26105 0.83376 0.0
H2494 H 0.64951 0.25781 0.82559 0.0
H2495 H 0.59841 0.24053 0.85492 0.0
H2496 H 0.6435 0.21385 0.8966 0.0
H2497 H 0.62184 0.23479 0.87908 0.0
H2498 H 0.65481 0.22577 0.82805 0.0
H2499 H 0.67651 0.20614 0.84563 0.0
C2500 C 0.62371 0.26951 0.81554 0.0
C2501 C 0.60397 0.27046 0.81733 0.0
C2502 C 0.63431 0.25816 0.82764 0.0
C2503 C 0.62545 0.24689 0.84158 0.0
C2504 C 0.60574 0.24885 0.84427 0.0
C2505 C 0.59507 0.26064 0.83223 0.0
C2506 C 0.6458 0.21621 0.88156 0.0
C2507 C 0.66178 0.20857 0.87249 0.0
C2508 C 0.63347 0.22824 0.87152 0.0
C2509 C 0.6369 0.23261 0.85225 0.0
C2510 C 0.6521 0.22358 0.84304 0.0
C2511 C 0.66447 0.21202 0.85307 0.0
H2512 H 0.68836 0.60647 0.83407 0.0
H2513 H 0.73818 0.60234 0.79883 0.0
H2514 H 0.70628 0.62501 0.85722 0.0
H2515 H 0.75573 0.6219 0.8208 0.0
H2516 H 0.789 0.64938 0.86715 0.0
H2517 H 0.77156 0.62671 0.84766 0.0
H2518 H 0.71887 0.65288 0.86512 0.0
H2519 H 0.73639 0.67425 0.88547 0.0
C2520 C 0.7032 0.60941 0.8314 0.0
C2521 C 0.71191 0.60286 0.81477 0.0
C2522 C 0.7135 0.62039 0.84448 0.0
C2523 C 0.73269 0.62521 0.84111 0.0
C2524 C 0.74127 0.61831 0.82444 0.0
C2525 C 0.73109 0.60719 0.8116 0.0
C2526 C 0.77366 0.64974 0.86721 0.0
C2527 C 0.764 0.66335 0.87794 0.0
C2528 C 0.76355 0.63702 0.85568 0.0
C2529 C 0.74356 0.6378 0.85447 0.0
C2530 C 0.73408 0.65128 0.86574 0.0
C2531 C 0.74416 0.66374 0.87739 0.0
H2532 H 0.66487 0.78813 0.12631 0.0
H2533 H 0.65552 0.74894 0.08026 0.0
H2534 H 0.64269 0.77076 0.14595 0.0
H2535 H 0.63423 0.73025 0.10023 0.0
H2536 H 0.59028 0.7025 0.13968 0.0
H2537 H 0.60845 0.72171 0.11704 0.0
H2538 H 0.64038 0.74569 0.16394 0.0
H2539 H 0.62125 0.72849 0.18586 0.0
C2540 C 0.65763 0.77591 0.12032 0.0
C2541 C 0.66149 0.77004 0.10175 0.0
C2542 C 0.64527 0.76547 0.13175 0.0
C2543 C 0.6369 0.74843 0.12514 0.0
C2544 C 0.64018 0.74317 0.10606 0.0
C2545 C 0.65237 0.75389 0.0945 0.0
C2546 C 0.60106 0.71213 0.14497 0.0
C2547 C 0.604 0.71419 0.16459 0.0
C2548 C 0.61166 0.7231 0.132 0.0
C2549 C 0.6257 0.73601 0.13844 0.0
C2550 C 0.62916 0.73698 0.1581 0.0
C2551 C 0.61827 0.72666 0.17087 0.0
H2552 H 0.2889 0.61093 0.14524 0.0
H2553 H 0.23756 0.59629 0.17504 0.0
H2554 H 0.27078 0.62988 0.12299 0.0
H2555 H 0.2195 0.61648 0.15446 0.0
H2556 H 0.18666 0.64817 0.11069 0.0
H2557 H 0.20446 0.62526 0.12908 0.0
H2558 H 0.25629 0.65602 0.11602 0.0
H2559 H 0.23858 0.67722 0.09627 0.0
C2560 C 0.27365 0.61157 0.14676 0.0
C2561 C 0.26456 0.60201 0.1616 0.0
C2562 C 0.26315 0.62291 0.13433 0.0
C2563 C 0.24335 0.62521 0.13672 0.0
C2564 C 0.23444 0.61506 0.15148 0.0
C2565 C 0.24486 0.60346 0.16352 0.0
C2566 C 0.20194 0.64945 0.1113 0.0
C2567 C 0.21129 0.6642 0.1018 0.0
C2568 C 0.21228 0.63659 0.1223 0.0
C2569 C 0.23218 0.63841 0.12433 0.0
C2570 C 0.24128 0.65334 0.11461 0.0
C2571 C 0.23103 0.66579 0.10331 0.0
H2572 H 0.73725 0.37398 0.18232 0.0
H2573 H 0.68831 0.36956 0.14589 0.0
H2574 H 0.75578 0.35567 0.15983 0.0
H2575 H 0.70701 0.35165 0.12278 0.0
H2576 H 0.73839 0.30044 0.09868 0.0
H2577 H 0.7202 0.32191 0.11842 0.0
H2578 H 0.7712 0.35398 0.13061 0.0
H2579 H 0.7895 0.33177 0.11117 0.0
C2580 C 0.73056 0.36928 0.16927 0.0
C2581 C 0.71138 0.37317 0.16578 0.0
C2582 C 0.74124 0.35891 0.15626 0.0
C2583 C 0.73301 0.35211 0.13937 0.0
C2584 C 0.71383 0.35642 0.13571 0.0
C2585 C 0.70313 0.3669 0.14879 0.0
C2586 C 0.74564 0.31227 0.10538 0.0
C2587 C 0.76528 0.31458 0.10332 0.0
C2588 C 0.73519 0.32469 0.11663 0.0
C2589 C 0.74412 0.33981 0.12618 0.0
C2590 C 0.76381 0.3424 0.12367 0.0
C2591 C 0.7743 0.32991 0.11229 0.0
loop_
_geom_bond_atom_site_label_1
_geom_bond_atom_site_label_2
_geom_bond_distance
_geom_bond_site_symmetry_2
_ccdc_geom_bond_type
C0 O1 1.306 . S
C0 O3 1.160 . S
O1 C0 1.306 . S
O1 Cd2 2.228 . S
Cd2 O1 2.228 . S
Cd2 O6 2.273 . S
Cd2 O10 2.277 . S
O3 C0 1.160 . S
O3 Cd4 2.203 . S
Cd4 O3 2.203 . S
Cd4 O6 2.411 . S
Cd4 O7 2.333 . S
Cd4 O8 2.352 . S
Cd4 O12 2.277 . S
Cd4 O13 2.356 . S
C5 O10 1.209 . S
C5 O12 1.226 . S
O6 Cd2 2.273 . S
O6 Cd4 2.411 . S
O6 C9 1.320 . S
O7 Cd4 2.333 . S
O7 C9 1.214 . S
O8 Cd4 2.352 . S
O8 C11 1.258 . S
C9 O6 1.320 . S
C9 O7 1.214 . S
O10 Cd2 2.277 . S
O10 C5 1.209 . S
C11 O8 1.258 . S
C11 O13 1.282 . S
O12 Cd4 2.277 . S
O12 C5 1.226 . S
O13 Cd4 2.356 . S
O13 C11 1.282 . S
C14 O15 1.306 . S
C14 O17 1.160 . S
O15 C14 1.306 . S
O15 Cd16 2.228 . S
Cd16 O15 2.228 . S
Cd16 O20 2.273 . S
Cd16 O24 2.277 . S
O17 C14 1.160 . S
O17 Cd18 2.203 . S
Cd18 O17 2.203 . S
Cd18 O20 2.411 . S
Cd18 O21 2.333 . S
Cd18 O22 2.352 . S
Cd18 O26 2.277 . S
Cd18 O27 2.356 . S
C19 O24 1.209 . S
C19 O26 1.226 . S
O20 Cd16 2.273 . S
O20 Cd18 2.411 . S
O20 C23 1.320 . S
O21 Cd18 2.333 . S
O21 C23 1.214 . S
O22 Cd18 2.352 . S
O22 C25 1.258 . S
C23 O20 1.320 . S
C23 O21 1.214 . S
O24 Cd16 2.277 . S
O24 C19 1.209 . S
C25 O22 1.258 . S
C25 O27 1.282 . S
O26 Cd18 2.277 . S
O26 C19 1.226 . S
O27 Cd18 2.356 . S
O27 C25 1.282 . S
C28 O29 1.306 . S
C28 O31 1.160 . S
O29 C28 1.306 . S
O29 Cd30 2.228 . S
Cd30 O29 2.228 . S
Cd30 O34 2.273 . S
Cd30 O38 2.277 . S
O31 C28 1.160 . S
O31 Cd32 2.203 . S
Cd32 O31 2.203 . S
Cd32 O34 2.411 . S
Cd32 O35 2.333 . S
Cd32 O36 2.352 . S
Cd32 O40 2.277 . S
Cd32 O41 2.356 . S
C33 O38 1.209 . S
C33 O40 1.226 . S
O34 Cd30 2.273 . S
O34 Cd32 2.411 . S
O34 C37 1.320 . S
O35 Cd32 2.333 . S
O35 C37 1.214 . S
O36 Cd32 2.352 . S
O36 C39 1.258 . S
C37 O34 1.320 . S
C37 O35 1.214 . S
O38 Cd30 2.277 . S
O38 C33 1.209 . S
C39 O36 1.258 . S
C39 O41 1.282 . S
O40 Cd32 2.277 . S
O40 C33 1.226 . S
O41 Cd32 2.356 . S
O41 C39 1.282 . S
C42 O43 1.306 . S
C42 O45 1.160 . S
O43 C42 1.306 . S
O43 Cd44 2.228 . S
Cd44 O43 2.228 . S
Cd44 O48 2.273 . S
Cd44 O52 2.277 . S
O45 C42 1.160 . S
O45 Cd46 2.203 . S
Cd46 O45 2.203 . S
Cd46 O48 2.411 . S
Cd46 O49 2.333 . S
Cd46 O50 2.352 . S
Cd46 O54 2.277 . S
Cd46 O55 2.356 . S
C47 O52 1.209 . S
C47 O54 1.226 . S
O48 Cd44 2.273 . S
O48 Cd46 2.411 . S
O48 C51 1.320 . S
O49 Cd46 2.333 . S
O49 C51 1.214 . S
O50 Cd46 2.352 . S
O50 C53 1.258 . S
C51 O48 1.320 . S
C51 O49 1.214 . S
O52 Cd44 2.277 . S
O52 C47 1.209 . S
C53 O50 1.258 . S
C53 O55 1.282 . S
O54 Cd46 2.277 . S
O54 C47 1.226 . S
O55 Cd46 2.356 . S
O55 C53 1.282 . S
C56 O57 1.306 . S
C56 O59 1.160 . S
O57 C56 1.306 . S
O57 Cd58 2.228 . S
Cd58 O57 2.228 . S
Cd58 O62 2.273 . S
Cd58 O66 2.277 . S
O59 C56 1.160 . S
O59 Cd60 2.203 . S
Cd60 O59 2.203 . S
Cd60 O62 2.411 . S
Cd60 O63 2.333 . S
Cd60 O64 2.352 . S
Cd60 O68 2.277 . S
Cd60 O69 2.356 . S
C61 O66 1.209 . S
C61 O68 1.226 . S
O62 Cd58 2.273 . S
O62 Cd60 2.411 . S
O62 C65 1.320 . S
O63 Cd60 2.333 . S
O63 C65 1.214 . S
O64 Cd60 2.352 . S
O64 C67 1.258 . S
C65 O62 1.320 . S
C65 O63 1.214 . S
O66 Cd58 2.277 . S
O66 C61 1.209 . S
C67 O64 1.258 . S
C67 O69 1.282 . S
O68 Cd60 2.277 . S
O68 C61 1.226 . S
O69 Cd60 2.356 . S
O69 C67 1.282 . S
C70 O71 1.306 . S
C70 O73 1.160 . S
O71 C70 1.306 . S
O71 Cd72 2.228 . S
Cd72 O71 2.228 . S
Cd72 O76 2.273 . S
Cd72 O80 2.277 . S
O73 C70 1.160 . S
O73 Cd74 2.203 . S
Cd74 O73 2.203 . S
Cd74 O76 2.411 . S
Cd74 O77 2.333 . S
Cd74 O78 2.352 . S
Cd74 O82 2.277 . S
Cd74 O83 2.356 . S
C75 O80 1.209 . S
C75 O82 1.226 . S
O76 Cd72 2.273 . S
O76 Cd74 2.411 . S
O76 C79 1.320 . S
O77 Cd74 2.333 . S
O77 C79 1.214 . S
O78 Cd74 2.352 . S
O78 C81 1.258 . S
C79 O76 1.320 . S
C79 O77 1.214 . S
O80 Cd72 2.277 . S
O80 C75 1.209 . S
C81 O78 1.258 . S
C81 O83 1.282 . S
O82 Cd74 2.277 . S
O82 C75 1.226 . S
O83 Cd74 2.356 . S
O83 C81 1.282 . S
C84 O85 1.306 . S
C84 O87 1.160 . S
O85 C84 1.306 . S
O85 Cd86 2.228 . S
Cd86 O85 2.228 . S
Cd86 O90 2.273 . S
Cd86 O94 2.277 . S
O87 C84 1.160 . S
O87 Cd88 2.203 . S
Cd88 O87 2.203 . S
Cd88 O90 2.411 . S
Cd88 O91 2.333 . S
Cd88 O92 2.352 . S
Cd88 O96 2.277 . S
Cd88 O97 2.356 . S
C89 O94 1.209 . S
C89 O96 1.226 . S
O90 Cd86 2.273 . S
O90 Cd88 2.411 . S
O90 C93 1.320 . S
O91 Cd88 2.333 . S
O91 C93 1.214 . S
O92 Cd88 2.352 . S
O92 C95 1.258 . S
C93 O90 1.320 . S
C93 O91 1.214 . S
O94 Cd86 2.277 . S
O94 C89 1.209 . S
C95 O92 1.258 . S
C95 O97 1.282 . S
O96 Cd88 2.277 . S
O96 C89 1.226 . S
O97 Cd88 2.356 . S
O97 C95 1.282 . S
C98 O99 1.306 . S
C98 O101 1.160 . S
O99 C98 1.306 . S
O99 Cd100 2.228 . S
Cd100 O99 2.228 . S
Cd100 O104 2.273 . S
Cd100 O108 2.277 . S
O101 C98 1.160 . S
O101 Cd102 2.203 . S
Cd102 O101 2.203 . S
Cd102 O104 2.411 . S
Cd102 O105 2.333 . S
Cd102 O106 2.352 . S
Cd102 O110 2.277 . S
Cd102 O111 2.356 . S
C103 O108 1.209 . S
C103 O110 1.226 . S
O104 Cd100 2.273 . S
O104 Cd102 2.411 . S
O104 C107 1.320 . S
O105 Cd102 2.333 . S
O105 C107 1.214 . S
O106 Cd102 2.352 . S
O106 C109 1.258 . S
C107 O104 1.320 . S
C107 O105 1.214 . S
O108 Cd100 2.277 . S
O108 C103 1.209 . S
C109 O106 1.258 . S
C109 O111 1.282 . S
O110 Cd102 2.277 . S
O110 C103 1.226 . S
O111 Cd102 2.356 . S
O111 C109 1.282 . S
C112 O113 1.306 . S
C112 O115 1.160 . S
O113 C112 1.306 . S
O113 Cd114 2.228 . S
Cd114 O113 2.228 . S
Cd114 O118 2.273 . S
Cd114 O122 2.277 . S
O115 C112 1.160 . S
O115 Cd116 2.203 . S
Cd116 O115 2.203 . S
Cd116 O118 2.411 . S
Cd116 O119 2.333 . S
Cd116 O120 2.352 . S
Cd116 O124 2.277 . S
Cd116 O125 2.356 . S
C117 O122 1.209 . S
C117 O124 1.226 . S
O118 Cd114 2.273 . S
O118 Cd116 2.411 . S
O118 C121 1.320 . S
O119 Cd116 2.333 . S
O119 C121 1.214 . S
O120 Cd116 2.352 . S
O120 C123 1.258 . S
C121 O118 1.320 . S
C121 O119 1.214 . S
O122 Cd114 2.277 . S
O122 C117 1.209 . S
C123 O120 1.258 . S
C123 O125 1.282 . S
O124 Cd116 2.277 . S
O124 C117 1.226 . S
O125 Cd116 2.356 . S
O125 C123 1.282 . S
C126 O127 1.306 . S
C126 O129 1.160 . S
O127 C126 1.306 . S
O127 Cd128 2.228 . S
Cd128 O127 2.228 . S
Cd128 O132 2.273 . S
Cd128 O136 2.277 . S
O129 C126 1.160 . S
O129 Cd130 2.203 . S
Cd130 O129 2.203 . S
Cd130 O132 2.411 . S
Cd130 O133 2.333 . S
Cd130 O134 2.352 . S
Cd130 O138 2.277 . S
Cd130 O139 2.356 . S
C131 O136 1.209 . S
C131 O138 1.226 . S
O132 Cd128 2.273 . S
O132 Cd130 2.411 . S
O132 C135 1.320 . S
O133 Cd130 2.333 . S
O133 C135 1.214 . S
O134 Cd130 2.352 . S
O134 C137 1.258 . S
C135 O132 1.320 . S
C135 O133 1.214 . S
O136 Cd128 2.277 . S
O136 C131 1.209 . S
C137 O134 1.258 . S
C137 O139 1.282 . S
O138 Cd130 2.277 . S
O138 C131 1.226 . S
O139 Cd130 2.356 . S
O139 C137 1.282 . S
C140 O141 1.306 . S
C140 O143 1.160 . S
O141 C140 1.306 . S
O141 Cd142 2.228 . S
Cd142 O141 2.228 . S
Cd142 O146 2.273 . S
Cd142 O150 2.277 . S
O143 C140 1.160 . S
O143 Cd144 2.203 . S
Cd144 O143 2.203 . S
Cd144 O146 2.411 . S
Cd144 O147 2.333 . S
Cd144 O148 2.352 . S
Cd144 O152 2.277 . S
Cd144 O153 2.356 . S
C145 O150 1.209 . S
C145 O152 1.226 . S
O146 Cd142 2.273 . S
O146 Cd144 2.411 . S
O146 C149 1.320 . S
O147 Cd144 2.333 . S
O147 C149 1.214 . S
O148 Cd144 2.352 . S
O148 C151 1.258 . S
C149 O146 1.320 . S
C149 O147 1.214 . S
O150 Cd142 2.277 . S
O150 C145 1.209 . S
C151 O148 1.258 . S
C151 O153 1.282 . S
O152 Cd144 2.277 . S
O152 C145 1.226 . S
O153 Cd144 2.356 . S
O153 C151 1.282 . S
C154 O155 1.306 . S
C154 O157 1.160 . S
O155 C154 1.306 . S
O155 Cd156 2.228 . S
Cd156 O155 2.228 . S
Cd156 O160 2.273 . S
Cd156 O164 2.277 . S
O157 C154 1.160 . S
O157 Cd158 2.203 . S
Cd158 O157 2.203 . S
Cd158 O160 2.411 . S
Cd158 O161 2.333 . S
Cd158 O162 2.352 . S
Cd158 O166 2.277 . S
Cd158 O167 2.356 . S
C159 O164 1.209 . S
C159 O166 1.226 . S
O160 Cd156 2.273 . S
O160 Cd158 2.411 . S
O160 C163 1.320 . S
O161 Cd158 2.333 . S
O161 C163 1.214 . S
O162 Cd158 2.352 . S
O162 C165 1.258 . S
C163 O160 1.320 . S
C163 O161 1.214 . S
O164 Cd156 2.277 . S
O164 C159 1.209 . S
C165 O162 1.258 . S
C165 O167 1.282 . S
O166 Cd158 2.277 . S
O166 C159 1.226 . S
O167 Cd158 2.356 . S
O167 C165 1.282 . S
C168 O169 1.306 . S
C168 O171 1.160 . S
O169 C168 1.306 . S
O169 Cd170 2.228 . S
Cd170 O169 2.228 . S
Cd170 O174 2.273 . S
Cd170 O178 2.277 . S
O171 C168 1.160 . S
O171 Cd172 2.203 . S
Cd172 O171 2.203 . S
Cd172 O174 2.411 . S
Cd172 O175 2.333 . S
Cd172 O176 2.352 . S
Cd172 O180 2.277 . S
Cd172 O181 2.356 . S
C173 O178 1.209 . S
C173 O180 1.226 . S
O174 Cd170 2.273 . S
O174 Cd172 2.411 . S
O174 C177 1.320 . S
O175 Cd172 2.333 . S
O175 C177 1.214 . S
O176 Cd172 2.352 . S
O176 C179 1.258 . S
C177 O174 1.320 . S
C177 O175 1.214 . S
O178 Cd170 2.277 . S
O178 C173 1.209 . S
C179 O176 1.258 . S
C179 O181 1.282 . S
O180 Cd172 2.277 . S
O180 C173 1.226 . S
O181 Cd172 2.356 . S
O181 C179 1.282 . S
C182 O183 1.306 . S
C182 O185 1.160 . S
O183 C182 1.306 . S
O183 Cd184 2.228 . S
Cd184 O183 2.228 . S
Cd184 O188 2.273 . S
Cd184 O192 2.277 . S
O185 C182 1.160 . S
O185 Cd186 2.203 . S
Cd186 O185 2.203 . S
Cd186 O188 2.411 . S
Cd186 O189 2.333 . S
Cd186 O190 2.352 . S
Cd186 O194 2.277 . S
Cd186 O195 2.356 . S
C187 O192 1.209 . S
C187 O194 1.226 . S
O188 Cd184 2.273 . S
O188 Cd186 2.411 . S
O188 C191 1.320 . S
O189 Cd186 2.333 . S
O189 C191 1.214 . S
O190 Cd186 2.352 . S
O190 C193 1.258 . S
C191 O188 1.320 . S
C191 O189 1.214 . S
O192 Cd184 2.277 . S
O192 C187 1.209 . S
C193 O190 1.258 . S
C193 O195 1.282 . S
O194 Cd186 2.277 . S
O194 C187 1.226 . S
O195 Cd186 2.356 . S
O195 C193 1.282 . S
C196 O197 1.306 . S
C196 O199 1.160 . S
O197 C196 1.306 . S
O197 Cd198 2.228 . S
Cd198 O197 2.228 . S
Cd198 O202 2.273 . S
Cd198 O206 2.277 . S
O199 C196 1.160 . S
O199 Cd200 2.203 . S
Cd200 O199 2.203 . S
Cd200 O202 2.411 . S
Cd200 O203 2.333 . S
Cd200 O204 2.352 . S
Cd200 O208 2.277 . S
Cd200 O209 2.356 . S
C201 O206 1.209 . S
C201 O208 1.226 . S
O202 Cd198 2.273 . S
O202 Cd200 2.411 . S
O202 C205 1.320 . S
O203 Cd200 2.333 . S
O203 C205 1.214 . S
O204 Cd200 2.352 . S
O204 C207 1.258 . S
C205 O202 1.320 . S
C205 O203 1.214 . S
O206 Cd198 2.277 . S
O206 C201 1.209 . S
C207 O204 1.258 . S
C207 O209 1.282 . S
O208 Cd200 2.277 . S
O208 C201 1.226 . S
O209 Cd200 2.356 . S
O209 C207 1.282 . S
C210 O211 1.306 . S
C210 O213 1.160 . S
O211 C210 1.306 . S
O211 Cd212 2.228 . S
Cd212 O211 2.228 . S
Cd212 O216 2.273 . S
Cd212 O220 2.277 . S
O213 C210 1.160 . S
O213 Cd214 2.203 . S
Cd214 O213 2.203 . S
Cd214 O216 2.411 . S
Cd214 O217 2.333 . S
Cd214 O218 2.352 . S
Cd214 O222 2.277 . S
Cd214 O223 2.356 . S
C215 O220 1.209 . S
C215 O222 1.226 . S
O216 Cd212 2.273 . S
O216 Cd214 2.411 . S
O216 C219 1.320 . S
O217 Cd214 2.333 . S
O217 C219 1.214 . S
O218 Cd214 2.352 . S
O218 C221 1.258 . S
C219 O216 1.320 . S
C219 O217 1.214 . S
O220 Cd212 2.277 . S
O220 C215 1.209 . S
C221 O218 1.258 . S
C221 O223 1.282 . S
O222 Cd214 2.277 . S
O222 C215 1.226 . S
O223 Cd214 2.356 . S
O223 C221 1.282 . S
C224 O225 1.306 . S
C224 O227 1.160 . S
O225 C224 1.306 . S
O225 Cd226 2.228 . S
Cd226 O225 2.228 . S
Cd226 O230 2.273 . S
Cd226 O234 2.277 . S
O227 C224 1.160 . S
O227 Cd228 2.203 . S
Cd228 O227 2.203 . S
Cd228 O230 2.411 . S
Cd228 O231 2.333 . S
Cd228 O232 2.352 . S
Cd228 O236 2.277 . S
Cd228 O237 2.356 . S
C229 O234 1.209 . S
C229 O236 1.226 . S
O230 Cd226 2.273 . S
O230 Cd228 2.411 . S
O230 C233 1.320 . S
O231 Cd228 2.333 . S
O231 C233 1.214 . S
O232 Cd228 2.352 . S
O232 C235 1.258 . S
C233 O230 1.320 . S
C233 O231 1.214 . S
O234 Cd226 2.277 . S
O234 C229 1.209 . S
C235 O232 1.258 . S
C235 O237 1.282 . S
O236 Cd228 2.277 . S
O236 C229 1.226 . S
O237 Cd228 2.356 . S
O237 C235 1.282 . S
C238 O239 1.306 . S
C238 O241 1.160 . S
O239 C238 1.306 . S
O239 Cd240 2.228 . S
Cd240 O239 2.228 . S
Cd240 O244 2.273 . S
Cd240 O248 2.277 . S
O241 C238 1.160 . S
O241 Cd242 2.203 . S
Cd242 O241 2.203 . S
Cd242 O244 2.411 . S
Cd242 O245 2.333 . S
Cd242 O246 2.352 . S
Cd242 O250 2.277 . S
Cd242 O251 2.356 . S
C243 O248 1.209 . S
C243 O250 1.226 . S
O244 Cd240 2.273 . S
O244 Cd242 2.411 . S
O244 C247 1.320 . S
O245 Cd242 2.333 . S
O245 C247 1.214 . S
O246 Cd242 2.352 . S
O246 C249 1.258 . S
C247 O244 1.320 . S
C247 O245 1.214 . S
O248 Cd240 2.277 . S
O248 C243 1.209 . S
C249 O246 1.258 . S
C249 O251 1.282 . S
O250 Cd242 2.277 . S
O250 C243 1.226 . S
O251 Cd242 2.356 . S
O251 C249 1.282 . S
C252 O253 1.306 . S
C252 O255 1.160 . S
O253 C252 1.306 . S
O253 Cd254 2.228 . S
Cd254 O253 2.228 . S
Cd254 O258 2.273 . S
Cd254 O262 2.277 . S
O255 C252 1.160 . S
O255 Cd256 2.203 . S
Cd256 O255 2.203 . S
Cd256 O258 2.411 . S
Cd256 O259 2.333 . S
Cd256 O260 2.352 . S
Cd256 O264 2.277 . S
Cd256 O265 2.356 . S
C257 O262 1.209 . S
C257 O264 1.226 . S
O258 Cd254 2.273 . S
O258 Cd256 2.411 . S
O258 C261 1.320 . S
O259 Cd256 2.333 . S
O259 C261 1.214 . S
O260 Cd256 2.352 . S
O260 C263 1.258 . S
C261 O258 1.320 . S
C261 O259 1.214 . S
O262 Cd254 2.277 . S
O262 C257 1.209 . S
C263 O260 1.258 . S
C263 O265 1.282 . S
O264 Cd256 2.277 . S
O264 C257 1.226 . S
O265 Cd256 2.356 . S
O265 C263 1.282 . S
C266 O267 1.306 . S
C266 O269 1.160 . S
O267 C266 1.306 . S
O267 Cd268 2.228 . S
Cd268 O267 2.228 . S
Cd268 O272 2.273 . S
Cd268 O276 2.277 . S
O269 C266 1.160 . S
O269 Cd270 2.203 . S
Cd270 O269 2.203 . S
Cd270 O272 2.411 . S
Cd270 O273 2.333 . S
Cd270 O274 2.352 . S
Cd270 O278 2.277 . S
Cd270 O279 2.356 . S
C271 O276 1.209 . S
C271 O278 1.226 . S
O272 Cd268 2.273 . S
O272 Cd270 2.411 . S
O272 C275 1.320 . S
O273 Cd270 2.333 . S
O273 C275 1.214 . S
O274 Cd270 2.352 . S
O274 C277 1.258 . S
C275 O272 1.320 . S
C275 O273 1.214 . S
O276 Cd268 2.277 . S
O276 C271 1.209 . S
C277 O274 1.258 . S
C277 O279 1.282 . S
O278 Cd270 2.277 . S
O278 C271 1.226 . S
O279 Cd270 2.356 . S
O279 C277 1.282 . S
C280 O281 1.306 . S
C280 O283 1.160 . S
O281 C280 1.306 . S
O281 Cd282 2.228 . S
Cd282 O281 2.228 . S
Cd282 O286 2.273 . S
Cd282 O290 2.277 . S
O283 C280 1.160 . S
O283 Cd284 2.203 . S
Cd284 O283 2.203 . S
Cd284 O286 2.411 . S
Cd284 O287 2.333 . S
Cd284 O288 2.352 . S
Cd284 O292 2.277 . S
Cd284 O293 2.356 . S
C285 O290 1.209 . S
C285 O292 1.226 . S
O286 Cd282 2.273 . S
O286 Cd284 2.411 . S
O286 C289 1.320 . S
O287 Cd284 2.333 . S
O287 C289 1.214 . S
O288 Cd284 2.352 . S
O288 C291 1.258 . S
C289 O286 1.320 . S
C289 O287 1.214 . S
O290 Cd282 2.277 . S
O290 C285 1.209 . S
C291 O288 1.258 . S
C291 O293 1.282 . S
O292 Cd284 2.277 . S
O292 C285 1.226 . S
O293 Cd284 2.356 . S
O293 C291 1.282 . S
C294 O295 1.306 . S
C294 O297 1.160 . S
O295 C294 1.306 . S
O295 Cd296 2.228 . S
Cd296 O295 2.228 . S
Cd296 O300 2.273 . S
Cd296 O304 2.277 . S
O297 C294 1.160 . S
O297 Cd298 2.203 . S
Cd298 O297 2.203 . S
Cd298 O300 2.411 . S
Cd298 O301 2.333 . S
Cd298 O302 2.352 . S
Cd298 O306 2.277 . S
Cd298 O307 2.356 . S
C299 O304 1.209 . S
C299 O306 1.226 . S
O300 Cd296 2.273 . S
O300 Cd298 2.411 . S
O300 C303 1.320 . S
O301 Cd298 2.333 . S
O301 C303 1.214 . S
O302 Cd298 2.352 . S
O302 C305 1.258 . S
C303 O300 1.320 . S
C303 O301 1.214 . S
O304 Cd296 2.277 . S
O304 C299 1.209 . S
C305 O302 1.258 . S
C305 O307 1.282 . S
O306 Cd298 2.277 . S
O306 C299 1.226 . S
O307 Cd298 2.356 . S
O307 C305 1.282 . S
C308 O309 1.306 . S
C308 O311 1.160 . S
O309 C308 1.306 . S
O309 Cd310 2.228 . S
Cd310 O309 2.228 . S
Cd310 O314 2.273 . S
Cd310 O318 2.277 . S
O311 C308 1.160 . S
O311 Cd312 2.203 . S
Cd312 O311 2.203 . S
Cd312 O314 2.411 . S
Cd312 O315 2.333 . S
Cd312 O316 2.352 . S
Cd312 O320 2.277 . S
Cd312 O321 2.356 . S
C313 O318 1.209 . S
C313 O320 1.226 . S
O314 Cd310 2.273 . S
O314 Cd312 2.411 . S
O314 C317 1.320 . S
O315 Cd312 2.333 . S
O315 C317 1.214 . S
O316 Cd312 2.352 . S
O316 C319 1.258 . S
C317 O314 1.320 . S
C317 O315 1.214 . S
O318 Cd310 2.277 . S
O318 C313 1.209 . S
C319 O316 1.258 . S
C319 O321 1.282 . S
O320 Cd312 2.277 . S
O320 C313 1.226 . S
O321 Cd312 2.356 . S
O321 C319 1.282 . S
C322 O323 1.306 . S
C322 O325 1.160 . S
O323 C322 1.306 . S
O323 Cd324 2.228 . S
Cd324 O323 2.228 . S
Cd324 O328 2.273 . S
Cd324 O332 2.277 . S
O325 C322 1.160 . S
O325 Cd326 2.203 . S
Cd326 O325 2.203 . S
Cd326 O328 2.411 . S
Cd326 O329 2.333 . S
Cd326 O330 2.352 . S
Cd326 O334 2.277 . S
Cd326 O335 2.356 . S
C327 O332 1.209 . S
C327 O334 1.226 . S
O328 Cd324 2.273 . S
O328 Cd326 2.411 . S
O328 C331 1.320 . S
O329 Cd326 2.333 . S
O329 C331 1.214 . S
O330 Cd326 2.352 . S
O330 C333 1.258 . S
C331 O328 1.320 . S
C331 O329 1.214 . S
O332 Cd324 2.277 . S
O332 C327 1.209 . S
C333 O330 1.258 . S
C333 O335 1.282 . S
O334 Cd326 2.277 . S
O334 C327 1.226 . S
O335 Cd326 2.356 . S
O335 C333 1.282 . S
C336 O337 1.306 . S
C336 O339 1.160 . S
O337 C336 1.306 . S
O337 Cd338 2.228 . S
Cd338 O337 2.228 . S
Cd338 O342 2.273 . S
Cd338 O346 2.277 . S
O339 C336 1.160 . S
O339 Cd340 2.203 . S
Cd340 O339 2.203 . S
Cd340 O342 2.411 . S
Cd340 O343 2.333 . S
Cd340 O344 2.352 . S
Cd340 O348 2.277 . S
Cd340 O349 2.356 . S
C341 O346 1.209 . S
C341 O348 1.226 . S
O342 Cd338 2.273 . S
O342 Cd340 2.411 . S
O342 C345 1.320 . S
O343 Cd340 2.333 . S
O343 C345 1.214 . S
O344 Cd340 2.352 . S
O344 C347 1.258 . S
C345 O342 1.320 . S
C345 O343 1.214 . S
O346 Cd338 2.277 . S
O346 C341 1.209 . S
C347 O344 1.258 . S
C347 O349 1.282 . S
O348 Cd340 2.277 . S
O348 C341 1.226 . S
O349 Cd340 2.356 . S
O349 C347 1.282 . S
C350 O351 1.306 . S
C350 O353 1.160 . S
O351 C350 1.306 . S
O351 Cd352 2.228 . S
Cd352 O351 2.228 . S
Cd352 O356 2.273 . S
Cd352 O360 2.277 . S
O353 C350 1.160 . S
O353 Cd354 2.203 . S
Cd354 O353 2.203 . S
Cd354 O356 2.411 . S
Cd354 O357 2.333 . S
Cd354 O358 2.352 . S
Cd354 O362 2.277 . S
Cd354 O363 2.356 . S
C355 O360 1.209 . S
C355 O362 1.226 . S
O356 Cd352 2.273 . S
O356 Cd354 2.411 . S
O356 C359 1.320 . S
O357 Cd354 2.333 . S
O357 C359 1.214 . S
O358 Cd354 2.352 . S
O358 C361 1.258 . S
C359 O356 1.320 . S
C359 O357 1.214 . S
O360 Cd352 2.277 . S
O360 C355 1.209 . S
C361 O358 1.258 . S
C361 O363 1.282 . S
O362 Cd354 2.277 . S
O362 C355 1.226 . S
O363 Cd354 2.356 . S
O363 C361 1.282 . S
C364 O365 1.306 . S
C364 O367 1.160 . S
O365 C364 1.306 . S
O365 Cd366 2.228 . S
Cd366 O365 2.228 . S
Cd366 O370 2.273 . S
Cd366 O374 2.277 . S
O367 C364 1.160 . S
O367 Cd368 2.203 . S
Cd368 O367 2.203 . S
Cd368 O370 2.411 . S
Cd368 O371 2.333 . S
Cd368 O372 2.352 . S
Cd368 O376 2.277 . S
Cd368 O377 2.356 . S
C369 O374 1.209 . S
C369 O376 1.226 . S
O370 Cd366 2.273 . S
O370 Cd368 2.411 . S
O370 C373 1.320 . S
O371 Cd368 2.333 . S
O371 C373 1.214 . S
O372 Cd368 2.352 . S
O372 C375 1.258 . S
C373 O370 1.320 . S
C373 O371 1.214 . S
O374 Cd366 2.277 . S
O374 C369 1.209 . S
C375 O372 1.258 . S
C375 O377 1.282 . S
O376 Cd368 2.277 . S
O376 C369 1.226 . S
O377 Cd368 2.356 . S
O377 C375 1.282 . S
C378 O379 1.306 . S
C378 O381 1.160 . S
O379 C378 1.306 . S
O379 Cd380 2.228 . S
Cd380 O379 2.228 . S
Cd380 O384 2.273 . S
Cd380 O388 2.277 . S
O381 C378 1.160 . S
O381 Cd382 2.203 . S
Cd382 O381 2.203 . S
Cd382 O384 2.411 . S
Cd382 O385 2.333 . S
Cd382 O386 2.352 . S
Cd382 O390 2.277 . S
Cd382 O391 2.356 . S
C383 O388 1.209 . S
C383 O390 1.226 . S
O384 Cd380 2.273 . S
O384 Cd382 2.411 . S
O384 C387 1.320 . S
O385 Cd382 2.333 . S
O385 C387 1.214 . S
O386 Cd382 2.352 . S
O386 C389 1.258 . S
C387 O384 1.320 . S
C387 O385 1.214 . S
O388 Cd380 2.277 . S
O388 C383 1.209 . S
C389 O386 1.258 . S
C389 O391 1.282 . S
O390 Cd382 2.277 . S
O390 C383 1.226 . S
O391 Cd382 2.356 . S
O391 C389 1.282 . S
C392 O393 1.306 . S
C392 O395 1.160 . S
O393 C392 1.306 . S
O393 Cd394 2.228 . S
Cd394 O393 2.228 . S
Cd394 O398 2.273 . S
Cd394 O402 2.277 . S
O395 C392 1.160 . S
O395 Cd396 2.203 . S
Cd396 O395 2.203 . S
Cd396 O398 2.411 . S
Cd396 O399 2.333 . S
Cd396 O400 2.352 . S
Cd396 O404 2.277 . S
Cd396 O405 2.356 . S
C397 O402 1.209 . S
C397 O404 1.226 . S
O398 Cd394 2.273 . S
O398 Cd396 2.411 . S
O398 C401 1.320 . S
O399 Cd396 2.333 . S
O399 C401 1.214 . S
O400 Cd396 2.352 . S
O400 C403 1.258 . S
C401 O398 1.320 . S
C401 O399 1.214 . S
O402 Cd394 2.277 . S
O402 C397 1.209 . S
C403 O400 1.258 . S
C403 O405 1.282 . S
O404 Cd396 2.277 . S
O404 C397 1.226 . S
O405 Cd396 2.356 . S
O405 C403 1.282 . S
C406 O407 1.306 . S
C406 O409 1.160 . S
O407 C406 1.306 . S
O407 Cd408 2.228 . S
Cd408 O407 2.228 . S
Cd408 O412 2.273 . S
Cd408 O416 2.277 . S
O409 C406 1.160 . S
O409 Cd410 2.203 . S
Cd410 O409 2.203 . S
Cd410 O412 2.411 . S
Cd410 O413 2.333 . S
Cd410 O414 2.352 . S
Cd410 O418 2.277 . S
Cd410 O419 2.356 . S
C411 O416 1.209 . S
C411 O418 1.226 . S
O412 Cd408 2.273 . S
O412 Cd410 2.411 . S
O412 C415 1.320 . S
O413 Cd410 2.333 . S
O413 C415 1.214 . S
O414 Cd410 2.352 . S
O414 C417 1.258 . S
C415 O412 1.320 . S
C415 O413 1.214 . S
O416 Cd408 2.277 . S
O416 C411 1.209 . S
C417 O414 1.258 . S
C417 O419 1.282 . S
O418 Cd410 2.277 . S
O418 C411 1.226 . S
O419 Cd410 2.356 . S
O419 C417 1.282 . S
C420 O421 1.306 . S
C420 O423 1.160 . S
O421 C420 1.306 . S
O421 Cd422 2.228 . S
Cd422 O421 2.228 . S
Cd422 O426 2.273 . S
Cd422 O430 2.277 . S
O423 C420 1.160 . S
O423 Cd424 2.203 . S
Cd424 O423 2.203 . S
Cd424 O426 2.411 . S
Cd424 O427 2.333 . S
Cd424 O428 2.352 . S
Cd424 O432 2.277 . S
Cd424 O433 2.356 . S
C425 O430 1.209 . S
C425 O432 1.226 . S
O426 Cd422 2.273 . S
O426 Cd424 2.411 . S
O426 C429 1.320 . S
O427 Cd424 2.333 . S
O427 C429 1.214 . S
O428 Cd424 2.352 . S
O428 C431 1.258 . S
C429 O426 1.320 . S
C429 O427 1.214 . S
O430 Cd422 2.277 . S
O430 C425 1.209 . S
C431 O428 1.258 . S
C431 O433 1.282 . S
O432 Cd424 2.277 . S
O432 C425 1.226 . S
O433 Cd424 2.356 . S
O433 C431 1.282 . S
C434 O435 1.306 . S
C434 O437 1.160 . S
O435 C434 1.306 . S
O435 Cd436 2.228 . S
Cd436 O435 2.228 . S
Cd436 O440 2.273 . S
Cd436 O444 2.277 . S
O437 C434 1.160 . S
O437 Cd438 2.203 . S
Cd438 O437 2.203 . S
Cd438 O440 2.411 . S
Cd438 O441 2.333 . S
Cd438 O442 2.352 . S
Cd438 O446 2.277 . S
Cd438 O447 2.356 . S
C439 O444 1.209 . S
C439 O446 1.226 . S
O440 Cd436 2.273 . S
O440 Cd438 2.411 . S
O440 C443 1.320 . S
O441 Cd438 2.333 . S
O441 C443 1.214 . S
O442 Cd438 2.352 . S
O442 C445 1.258 . S
C443 O440 1.320 . S
C443 O441 1.214 . S
O444 Cd436 2.277 . S
O444 C439 1.209 . S
C445 O442 1.258 . S
C445 O447 1.282 . S
O446 Cd438 2.277 . S
O446 C439 1.226 . S
O447 Cd438 2.356 . S
O447 C445 1.282 . S
C448 O449 1.306 . S
C448 O451 1.160 . S
O449 C448 1.306 . S
O449 Cd450 2.228 . S
Cd450 O449 2.228 . S
Cd450 O454 2.273 . S
Cd450 O458 2.277 . S
O451 C448 1.160 . S
O451 Cd452 2.203 . S
Cd452 O451 2.203 . S
Cd452 O454 2.411 . S
Cd452 O455 2.333 . S
Cd452 O456 2.352 . S
Cd452 O460 2.277 . S
Cd452 O461 2.356 . S
C453 O458 1.209 . S
C453 O460 1.226 . S
O454 Cd450 2.273 . S
O454 Cd452 2.411 . S
O454 C457 1.320 . S
O455 Cd452 2.333 . S
O455 C457 1.214 . S
O456 Cd452 2.352 . S
O456 C459 1.258 . S
C457 O454 1.320 . S
C457 O455 1.214 . S
O458 Cd450 2.277 . S
O458 C453 1.209 . S
C459 O456 1.258 . S
C459 O461 1.282 . S
O460 Cd452 2.277 . S
O460 C453 1.226 . S
O461 Cd452 2.356 . S
O461 C459 1.282 . S
C462 O463 1.306 . S
C462 O465 1.160 . S
O463 C462 1.306 . S
O463 Cd464 2.228 . S
Cd464 O463 2.228 . S
Cd464 O468 2.273 . S
Cd464 O472 2.277 . S
O465 C462 1.160 . S
O465 Cd466 2.203 . S
Cd466 O465 2.203 . S
Cd466 O468 2.411 . S
Cd466 O469 2.333 . S
Cd466 O470 2.352 . S
Cd466 O474 2.277 . S
Cd466 O475 2.356 . S
C467 O472 1.209 . S
C467 O474 1.226 . S
O468 Cd464 2.273 . S
O468 Cd466 2.411 . S
O468 C471 1.320 . S
O469 Cd466 2.333 . S
O469 C471 1.214 . S
O470 Cd466 2.352 . S
O470 C473 1.258 . S
C471 O468 1.320 . S
C471 O469 1.214 . S
O472 Cd464 2.277 . S
O472 C467 1.209 . S
C473 O470 1.258 . S
C473 O475 1.282 . S
O474 Cd466 2.277 . S
O474 C467 1.226 . S
O475 Cd466 2.356 . S
O475 C473 1.282 . S
C476 O477 1.306 . S
C476 O479 1.160 . S
O477 C476 1.306 . S
O477 Cd478 2.228 . S
Cd478 O477 2.228 . S
Cd478 O482 2.273 . S
Cd478 O486 2.277 . S
O479 C476 1.160 . S
O479 Cd480 2.203 . S
Cd480 O479 2.203 . S
Cd480 O482 2.411 . S
Cd480 O483 2.333 . S
Cd480 O484 2.352 . S
Cd480 O488 2.277 . S
Cd480 O489 2.356 . S
C481 O486 1.209 . S
C481 O488 1.226 . S
O482 Cd478 2.273 . S
O482 Cd480 2.411 . S
O482 C485 1.320 . S
O483 Cd480 2.333 . S
O483 C485 1.214 . S
O484 Cd480 2.352 . S
O484 C487 1.258 . S
C485 O482 1.320 . S
C485 O483 1.214 . S
O486 Cd478 2.277 . S
O486 C481 1.209 . S
C487 O484 1.258 . S
C487 O489 1.282 . S
O488 Cd480 2.277 . S
O488 C481 1.226 . S
O489 Cd480 2.356 . S
O489 C487 1.282 . S
C490 O491 1.306 . S
C490 O493 1.160 . S
O491 C490 1.306 . S
O491 Cd492 2.228 . S
Cd492 O491 2.228 . S
Cd492 O496 2.273 . S
Cd492 O500 2.277 . S
O493 C490 1.160 . S
O493 Cd494 2.203 . S
Cd494 O493 2.203 . S
Cd494 O496 2.411 . S
Cd494 O497 2.333 . S
Cd494 O498 2.352 . S
Cd494 O502 2.277 . S
Cd494 O503 2.356 . S
C495 O500 1.209 . S
C495 O502 1.226 . S
O496 Cd492 2.273 . S
O496 Cd494 2.411 . S
O496 C499 1.320 . S
O497 Cd494 2.333 . S
O497 C499 1.214 . S
O498 Cd494 2.352 . S
O498 C501 1.258 . S
C499 O496 1.320 . S
C499 O497 1.214 . S
O500 Cd492 2.277 . S
O500 C495 1.209 . S
C501 O498 1.258 . S
C501 O503 1.282 . S
O502 Cd494 2.277 . S
O502 C495 1.226 . S
O503 Cd494 2.356 . S
O503 C501 1.282 . S
C504 O505 1.306 . S
C504 O507 1.160 . S
O505 C504 1.306 . S
O505 Cd506 2.228 . S
Cd506 O505 2.228 . S
Cd506 O510 2.273 . S
Cd506 O514 2.277 . S
O507 C504 1.160 . S
O507 Cd508 2.203 . S
Cd508 O507 2.203 . S
Cd508 O510 2.411 . S
Cd508 O511 2.333 . S
Cd508 O512 2.352 . S
Cd508 O516 2.277 . S
Cd508 O517 2.356 . S
C509 O514 1.209 . S
C509 O516 1.226 . S
O510 Cd506 2.273 . S
O510 Cd508 2.411 . S
O510 C513 1.320 . S
O511 Cd508 2.333 . S
O511 C513 1.214 . S
O512 Cd508 2.352 . S
O512 C515 1.258 . S
C513 O510 1.320 . S
C513 O511 1.214 . S
O514 Cd506 2.277 . S
O514 C509 1.209 . S
C515 O512 1.258 . S
C515 O517 1.282 . S
O516 Cd508 2.277 . S
O516 C509 1.226 . S
O517 Cd508 2.356 . S
O517 C515 1.282 . S
C518 O519 1.306 . S
C518 O521 1.160 . S
O519 C518 1.306 . S
O519 Cd520 2.228 . S
Cd520 O519 2.228 . S
Cd520 O524 2.273 . S
Cd520 O528 2.277 . S
O521 C518 1.160 . S
O521 Cd522 2.203 . S
Cd522 O521 2.203 . S
Cd522 O524 2.411 . S
Cd522 O525 2.333 . S
Cd522 O526 2.352 . S
Cd522 O530 2.277 . S
Cd522 O531 2.356 . S
C523 O528 1.209 . S
C523 O530 1.226 . S
O524 Cd520 2.273 . S
O524 Cd522 2.411 . S
O524 C527 1.320 . S
O525 Cd522 2.333 . S
O525 C527 1.214 . S
O526 Cd522 2.352 . S
O526 C529 1.258 . S
C527 O524 1.320 . S
C527 O525 1.214 . S
O528 Cd520 2.277 . S
O528 C523 1.209 . S
C529 O526 1.258 . S
C529 O531 1.282 . S
O530 Cd522 2.277 . S
O530 C523 1.226 . S
O531 Cd522 2.356 . S
O531 C529 1.282 . S
C532 O533 1.306 . S
C532 O535 1.160 . S
O533 C532 1.306 . S
O533 Cd534 2.228 . S
Cd534 O533 2.228 . S
Cd534 O538 2.273 . S
Cd534 O542 2.277 . S
O535 C532 1.160 . S
O535 Cd536 2.203 . S
Cd536 O535 2.203 . S
Cd536 O538 2.411 . S
Cd536 O539 2.333 . S
Cd536 O540 2.352 . S
Cd536 O544 2.277 . S
Cd536 O545 2.356 . S
C537 O542 1.209 . S
C537 O544 1.226 . S
O538 Cd534 2.273 . S
O538 Cd536 2.411 . S
O538 C541 1.320 . S
O539 Cd536 2.333 . S
O539 C541 1.214 . S
O540 Cd536 2.352 . S
O540 C543 1.258 . S
C541 O538 1.320 . S
C541 O539 1.214 . S
O542 Cd534 2.277 . S
O542 C537 1.209 . S
C543 O540 1.258 . S
C543 O545 1.282 . S
O544 Cd536 2.277 . S
O544 C537 1.226 . S
O545 Cd536 2.356 . S
O545 C543 1.282 . S
C546 O547 1.306 . S
C546 O549 1.160 . S
O547 C546 1.306 . S
O547 Cd548 2.228 . S
Cd548 O547 2.228 . S
Cd548 O552 2.273 . S
Cd548 O556 2.277 . S
O549 C546 1.160 . S
O549 Cd550 2.203 . S
Cd550 O549 2.203 . S
Cd550 O552 2.411 . S
Cd550 O553 2.333 . S
Cd550 O554 2.352 . S
Cd550 O558 2.277 . S
Cd550 O559 2.356 . S
C551 O556 1.209 . S
C551 O558 1.226 . S
O552 Cd548 2.273 . S
O552 Cd550 2.411 . S
O552 C555 1.320 . S
O553 Cd550 2.333 . S
O553 C555 1.214 . S
O554 Cd550 2.352 . S
O554 C557 1.258 . S
C555 O552 1.320 . S
C555 O553 1.214 . S
O556 Cd548 2.277 . S
O556 C551 1.209 . S
C557 O554 1.258 . S
C557 O559 1.282 . S
O558 Cd550 2.277 . S
O558 C551 1.226 . S
O559 Cd550 2.356 . S
O559 C557 1.282 . S
C560 O561 1.306 . S
C560 O563 1.160 . S
O561 C560 1.306 . S
O561 Cd562 2.228 . S
Cd562 O561 2.228 . S
Cd562 O566 2.273 . S
Cd562 O570 2.277 . S
O563 C560 1.160 . S
O563 Cd564 2.203 . S
Cd564 O563 2.203 . S
Cd564 O566 2.411 . S
Cd564 O567 2.333 . S
Cd564 O568 2.352 . S
Cd564 O572 2.277 . S
Cd564 O573 2.356 . S
C565 O570 1.209 . S
C565 O572 1.226 . S
O566 Cd562 2.273 . S
O566 Cd564 2.411 . S
O566 C569 1.320 . S
O567 Cd564 2.333 . S
O567 C569 1.214 . S
O568 Cd564 2.352 . S
O568 C571 1.258 . S
C569 O566 1.320 . S
C569 O567 1.214 . S
O570 Cd562 2.277 . S
O570 C565 1.209 . S
C571 O568 1.258 . S
C571 O573 1.282 . S
O572 Cd564 2.277 . S
O572 C565 1.226 . S
O573 Cd564 2.356 . S
O573 C571 1.282 . S
C574 O575 1.306 . S
C574 O577 1.160 . S
O575 C574 1.306 . S
O575 Cd576 2.228 . S
Cd576 O575 2.228 . S
Cd576 O580 2.273 . S
Cd576 O584 2.277 . S
O577 C574 1.160 . S
O577 Cd578 2.203 . S
Cd578 O577 2.203 . S
Cd578 O580 2.411 . S
Cd578 O581 2.333 . S
Cd578 O582 2.352 . S
Cd578 O586 2.277 . S
Cd578 O587 2.356 . S
C579 O584 1.209 . S
C579 O586 1.226 . S
O580 Cd576 2.273 . S
O580 Cd578 2.411 . S
O580 C583 1.320 . S
O581 Cd578 2.333 . S
O581 C583 1.214 . S
O582 Cd578 2.352 . S
O582 C585 1.258 . S
C583 O580 1.320 . S
C583 O581 1.214 . S
O584 Cd576 2.277 . S
O584 C579 1.209 . S
C585 O582 1.258 . S
C585 O587 1.282 . S
O586 Cd578 2.277 . S
O586 C579 1.226 . S
O587 Cd578 2.356 . S
O587 C585 1.282 . S
C588 O589 1.306 . S
C588 O591 1.160 . S
O589 C588 1.306 . S
O589 Cd590 2.228 . S
Cd590 O589 2.228 . S
Cd590 O594 2.273 . S
Cd590 O598 2.277 . S
O591 C588 1.160 . S
O591 Cd592 2.203 . S
Cd592 O591 2.203 . S
Cd592 O594 2.411 . S
Cd592 O595 2.333 . S
Cd592 O596 2.352 . S
Cd592 O600 2.277 . S
Cd592 O601 2.356 . S
C593 O598 1.209 . S
C593 O600 1.226 . S
O594 Cd590 2.273 . S
O594 Cd592 2.411 . S
O594 C597 1.320 . S
O595 Cd592 2.333 . S
O595 C597 1.214 . S
O596 Cd592 2.352 . S
O596 C599 1.258 . S
C597 O594 1.320 . S
C597 O595 1.214 . S
O598 Cd590 2.277 . S
O598 C593 1.209 . S
C599 O596 1.258 . S
C599 O601 1.282 . S
O600 Cd592 2.277 . S
O600 C593 1.226 . S
O601 Cd592 2.356 . S
O601 C599 1.282 . S
C602 O603 1.306 . S
C602 O605 1.160 . S
O603 C602 1.306 . S
O603 Cd604 2.228 . S
Cd604 O603 2.228 . S
Cd604 O608 2.273 . S
Cd604 O612 2.277 . S
O605 C602 1.160 . S
O605 Cd606 2.203 . S
Cd606 O605 2.203 . S
Cd606 O608 2.411 . S
Cd606 O609 2.333 . S
Cd606 O610 2.352 . S
Cd606 O614 2.277 . S
Cd606 O615 2.356 . S
C607 O612 1.209 . S
C607 O614 1.226 . S
O608 Cd604 2.273 . S
O608 Cd606 2.411 . S
O608 C611 1.320 . S
O609 Cd606 2.333 . S
O609 C611 1.214 . S
O610 Cd606 2.352 . S
O610 C613 1.258 . S
C611 O608 1.320 . S
C611 O609 1.214 . S
O612 Cd604 2.277 . S
O612 C607 1.209 . S
C613 O610 1.258 . S
C613 O615 1.282 . S
O614 Cd606 2.277 . S
O614 C607 1.226 . S
O615 Cd606 2.356 . S
O615 C613 1.282 . S
C616 O617 1.306 . S
C616 O619 1.160 . S
O617 C616 1.306 . S
O617 Cd618 2.228 . S
Cd618 O617 2.228 . S
Cd618 O622 2.273 . S
Cd618 O626 2.277 . S
O619 C616 1.160 . S
O619 Cd620 2.203 . S
Cd620 O619 2.203 . S
Cd620 O622 2.411 . S
Cd620 O623 2.333 . S
Cd620 O624 2.352 . S
Cd620 O628 2.277 . S
Cd620 O629 2.356 . S
C621 O626 1.209 . S
C621 O628 1.226 . S
O622 Cd618 2.273 . S
O622 Cd620 2.411 . S
O622 C625 1.320 . S
O623 Cd620 2.333 . S
O623 C625 1.214 . S
O624 Cd620 2.352 . S
O624 C627 1.258 . S
C625 O622 1.320 . S
C625 O623 1.214 . S
O626 Cd618 2.277 . S
O626 C621 1.209 . S
C627 O624 1.258 . S
C627 O629 1.282 . S
O628 Cd620 2.277 . S
O628 C621 1.226 . S
O629 Cd620 2.356 . S
O629 C627 1.282 . S
C630 O631 1.306 . S
C630 O633 1.160 . S
O631 C630 1.306 . S
O631 Cd632 2.228 . S
Cd632 O631 2.228 . S
Cd632 O636 2.273 . S
Cd632 O640 2.277 . S
O633 C630 1.160 . S
O633 Cd634 2.203 . S
Cd634 O633 2.203 . S
Cd634 O636 2.411 . S
Cd634 O637 2.333 . S
Cd634 O638 2.352 . S
Cd634 O642 2.277 . S
Cd634 O643 2.356 . S
C635 O640 1.209 . S
C635 O642 1.226 . S
O636 Cd632 2.273 . S
O636 Cd634 2.411 . S
O636 C639 1.320 . S
O637 Cd634 2.333 . S
O637 C639 1.214 . S
O638 Cd634 2.352 . S
O638 C641 1.258 . S
C639 O636 1.320 . S
C639 O637 1.214 . S
O640 Cd632 2.277 . S
O640 C635 1.209 . S
C641 O638 1.258 . S
C641 O643 1.282 . S
O642 Cd634 2.277 . S
O642 C635 1.226 . S
O643 Cd634 2.356 . S
O643 C641 1.282 . S
C644 O645 1.306 . S
C644 O647 1.160 . S
O645 C644 1.306 . S
O645 Cd646 2.228 . S
Cd646 O645 2.228 . S
Cd646 O650 2.273 . S
Cd646 O654 2.277 . S
O647 C644 1.160 . S
O647 Cd648 2.203 . S
Cd648 O647 2.203 . S
Cd648 O650 2.411 . S
Cd648 O651 2.333 . S
Cd648 O652 2.352 . S
Cd648 O656 2.277 . S
Cd648 O657 2.356 . S
C649 O654 1.209 . S
C649 O656 1.226 . S
O650 Cd646 2.273 . S
O650 Cd648 2.411 . S
O650 C653 1.320 . S
O651 Cd648 2.333 . S
O651 C653 1.214 . S
O652 Cd648 2.352 . S
O652 C655 1.258 . S
C653 O650 1.320 . S
C653 O651 1.214 . S
O654 Cd646 2.277 . S
O654 C649 1.209 . S
C655 O652 1.258 . S
C655 O657 1.282 . S
O656 Cd648 2.277 . S
O656 C649 1.226 . S
O657 Cd648 2.356 . S
O657 C655 1.282 . S
C658 O659 1.306 . S
C658 O661 1.160 . S
O659 C658 1.306 . S
O659 Cd660 2.228 . S
Cd660 O659 2.228 . S
Cd660 O664 2.273 . S
Cd660 O668 2.277 . S
O661 C658 1.160 . S
O661 Cd662 2.203 . S
Cd662 O661 2.203 . S
Cd662 O664 2.411 . S
Cd662 O665 2.333 . S
Cd662 O666 2.352 . S
Cd662 O670 2.277 . S
Cd662 O671 2.356 . S
C663 O668 1.209 . S
C663 O670 1.226 . S
O664 Cd660 2.273 . S
O664 Cd662 2.411 . S
O664 C667 1.320 . S
O665 Cd662 2.333 . S
O665 C667 1.214 . S
O666 Cd662 2.352 . S
O666 C669 1.258 . S
C667 O664 1.320 . S
C667 O665 1.214 . S
O668 Cd660 2.277 . S
O668 C663 1.209 . S
C669 O666 1.258 . S
C669 O671 1.282 . S
O670 Cd662 2.277 . S
O670 C663 1.226 . S
O671 Cd662 2.356 . S
O671 C669 1.282 . S
H672 C680 0.950 . S
H673 C685 0.950 . S
H674 C682 0.950 1_455 S
H675 C684 0.950 . S
H676 C686 0.950 . S
H677 C688 0.950 1_655 S
H678 C690 0.950 . S
H679 C691 0.950 . S
C680 H672 0.950 . S
C680 C681 1.386 . S
C680 C682 1.391 . S
C681 C680 1.386 . S
C681 C685 1.393 . S
C682 H674 0.950 1_655 S
C682 C680 1.391 . S
C682 C683 1.400 . S
C683 C682 1.400 . S
C683 C684 1.398 . S
C683 C689 1.491 1_655 S
C684 H675 0.950 . S
C684 C683 1.398 . S
C684 C685 1.391 . S
C685 H673 0.950 . S
C685 C681 1.393 . S
C685 C684 1.391 . S
C686 H676 0.950 . S
C686 C687 1.386 . S
C686 C688 1.391 . S
C687 C686 1.386 . S
C687 C691 1.393 . S
C688 H677 0.950 1_455 S
C688 C686 1.391 . S
C688 C689 1.400 . S
C689 C683 1.491 1_455 S
C689 C688 1.400 . S
C689 C690 1.398 . S
C690 H678 0.950 . S
C690 C689 1.398 . S
C690 C691 1.391 . S
C691 H679 0.950 . S
C691 C687 1.393 . S
C691 C690 1.391 . S
H692 C700 0.950 . S
H693 C705 0.950 . S
H694 C702 0.950 1_545 S
H695 C704 0.950 . S
H696 C706 0.950 . S
H697 C708 0.950 1_565 S
H698 C710 0.950 . S
H699 C711 0.950 . S
C700 H692 0.950 . S
C700 C701 1.386 . S
C700 C702 1.391 . S
C701 C700 1.386 . S
C701 C705 1.393 . S
C702 H694 0.950 1_565 S
C702 C700 1.391 . S
C702 C703 1.400 . S
C703 C702 1.400 . S
C703 C704 1.398 . S
C703 C709 1.491 1_565 S
C704 H695 0.950 . S
C704 C703 1.398 . S
C704 C705 1.391 . S
C705 H693 0.950 . S
C705 C701 1.393 . S
C705 C704 1.391 . S
C706 H696 0.950 . S
C706 C707 1.386 . S
C706 C708 1.391 . S
C707 C706 1.386 . S
C707 C711 1.393 . S
C708 H697 0.950 1_545 S
C708 C706 1.391 . S
C708 C709 1.400 . S
C709 C703 1.491 1_545 S
C709 C708 1.400 . S
C709 C710 1.398 . S
C710 H698 0.950 . S
C710 C709 1.398 . S
C710 C711 1.391 . S
C711 H699 0.950 . S
C711 C707 1.393 . S
C711 C710 1.391 . S
H712 C720 0.950 . S
H713 C725 0.950 . S
H714 C722 0.950 . S
H715 C724 0.950 . S
H716 C726 0.950 . S
H717 C728 0.950 . S
H718 C730 0.950 . S
H719 C731 0.950 . S
C720 H712 0.950 . S
C720 C721 1.386 . S
C720 C722 1.391 . S
C721 C720 1.386 . S
C721 C725 1.393 . S
C722 H714 0.950 . S
C722 C720 1.391 . S
C722 C723 1.400 . S
C723 C722 1.400 . S
C723 C724 1.398 . S
C723 C729 1.491 1_455 S
C724 H715 0.950 . S
C724 C723 1.398 . S
C724 C725 1.391 . S
C725 H713 0.950 . S
C725 C721 1.393 . S
C725 C724 1.391 . S
C726 H716 0.950 . S
C726 C727 1.386 . S
C726 C728 1.391 . S
C727 C726 1.386 . S
C727 C731 1.393 . S
C728 H717 0.950 . S
C728 C726 1.391 . S
C728 C729 1.400 . S
C729 C723 1.491 1_655 S
C729 C728 1.400 . S
C729 C730 1.398 . S
C730 H718 0.950 . S
C730 C729 1.398 . S
C730 C731 1.391 . S
C731 H719 0.950 . S
C731 C727 1.393 . S
C731 C730 1.391 . S
H732 C740 0.950 . S
H733 C745 0.950 . S
H734 C742 0.950 1_545 S
H735 C744 0.950 . S
H736 C746 0.950 . S
H737 C748 0.950 1_565 S
H738 C750 0.950 . S
H739 C751 0.950 . S
C740 H732 0.950 . S
C740 C741 1.386 . S
C740 C742 1.391 . S
C741 C740 1.386 . S
C741 C745 1.393 . S
C742 H734 0.950 1_565 S
C742 C740 1.391 . S
C742 C743 1.400 . S
C743 C742 1.400 . S
C743 C744 1.398 . S
C743 C749 1.491 1_565 S
C744 H735 0.950 . S
C744 C743 1.398 . S
C744 C745 1.391 . S
C745 H733 0.950 . S
C745 C741 1.393 . S
C745 C744 1.391 . S
C746 H736 0.950 . S
C746 C747 1.386 . S
C746 C748 1.391 . S
C747 C746 1.386 . S
C747 C751 1.393 . S
C748 H737 0.950 1_545 S
C748 C746 1.391 . S
C748 C749 1.400 . S
C749 C743 1.491 1_545 S
C749 C748 1.400 . S
C749 C750 1.398 . S
C750 H738 0.950 . S
C750 C749 1.398 . S
C750 C751 1.391 . S
C751 H739 0.950 . S
C751 C747 1.393 . S
C751 C750 1.391 . S
H752 C760 0.950 . S
H753 C765 0.950 . S
H754 C762 0.950 1_455 S
H755 C764 0.950 . S
H756 C766 0.950 . S
H757 C768 0.950 1_655 S
H758 C770 0.950 . S
H759 C771 0.950 . S
C760 H752 0.950 . S
C760 C761 1.386 . S
C760 C762 1.391 . S
C761 C760 1.386 . S
C761 C765 1.393 . S
C762 H754 0.950 1_655 S
C762 C760 1.391 . S
C762 C763 1.400 . S
C763 C762 1.400 . S
C763 C764 1.398 . S
C763 C769 1.491 1_655 S
C764 H755 0.950 . S
C764 C763 1.398 . S
C764 C765 1.391 . S
C765 H753 0.950 . S
C765 C761 1.393 . S
C765 C764 1.391 . S
C766 H756 0.950 . S
C766 C767 1.386 . S
C766 C768 1.391 . S
C767 C766 1.386 . S
C767 C771 1.393 . S
C768 H757 0.950 1_455 S
C768 C766 1.391 . S
C768 C769 1.400 . S
C769 C763 1.491 1_455 S
C769 C768 1.400 . S
C769 C770 1.398 . S
C770 H758 0.950 . S
C770 C769 1.398 . S
C770 C771 1.391 . S
C771 H759 0.950 . S
C771 C767 1.393 . S
C771 C770 1.391 . S
H772 C780 0.950 . S
H773 C785 0.950 . S
H774 C782 0.950 1_565 S
H775 C784 0.950 . S
H776 C786 0.950 . S
H777 C788 0.950 1_545 S
H778 C790 0.950 . S
H779 C791 0.950 . S
C780 H772 0.950 . S
C780 C781 1.386 . S
C780 C782 1.391 . S
C781 C780 1.386 . S
C781 C785 1.393 . S
C782 H774 0.950 1_545 S
C782 C780 1.391 . S
C782 C783 1.400 . S
C783 C782 1.400 . S
C783 C784 1.398 . S
C783 C789 1.491 1_545 S
C784 H775 0.950 . S
C784 C783 1.398 . S
C784 C785 1.391 . S
C785 H773 0.950 . S
C785 C781 1.393 . S
C785 C784 1.391 . S
C786 H776 0.950 . S
C786 C787 1.386 . S
C786 C788 1.391 . S
C787 C786 1.386 . S
C787 C791 1.393 . S
C788 H777 0.950 1_565 S
C788 C786 1.391 . S
C788 C789 1.400 . S
C789 C783 1.491 1_565 S
C789 C788 1.400 . S
C789 C790 1.398 . S
C790 H778 0.950 . S
C790 C789 1.398 . S
C790 C791 1.391 . S
C791 H779 0.950 . S
C791 C787 1.393 . S
C791 C790 1.391 . S
H792 C800 0.950 . S
H793 C805 0.950 . S
H794 C802 0.950 . S
H795 C804 0.950 1_655 S
H796 C806 0.950 . S
H797 C808 0.950 . S
H798 C810 0.950 1_455 S
H799 C811 0.950 . S
C800 H792 0.950 . S
C800 C801 1.386 . S
C800 C802 1.391 . S
C801 C800 1.386 . S
C801 C805 1.393 . S
C802 H794 0.950 . S
C802 C800 1.391 . S
C802 C803 1.400 . S
C803 C802 1.400 . S
C803 C804 1.398 . S
C803 C809 1.491 1_455 S
C804 H795 0.950 1_455 S
C804 C803 1.398 . S
C804 C805 1.391 . S
C805 H793 0.950 . S
C805 C801 1.393 . S
C805 C804 1.391 . S
C806 H796 0.950 . S
C806 C807 1.386 . S
C806 C808 1.391 . S
C807 C806 1.386 . S
C807 C811 1.393 . S
C808 H797 0.950 . S
C808 C806 1.391 . S
C808 C809 1.400 . S
C809 C803 1.491 1_655 S
C809 C808 1.400 . S
C809 C810 1.398 . S
C810 H798 0.950 1_655 S
C810 C809 1.398 . S
C810 C811 1.391 . S
C811 H799 0.950 . S
C811 C807 1.393 . S
C811 C810 1.391 . S
H812 C820 0.950 . S
H813 C825 0.950 . S
H814 C822 0.950 . S
H815 C824 0.950 1_565 S
H816 C826 0.950 . S
H817 C828 0.950 . S
H818 C830 0.950 1_545 S
H819 C831 0.950 . S
C820 H812 0.950 . S
C820 C821 1.386 . S
C820 C822 1.391 . S
C821 C820 1.386 . S
C821 C825 1.393 . S
C822 H814 0.950 . S
C822 C820 1.391 . S
C822 C823 1.400 . S
C823 C822 1.400 . S
C823 C824 1.398 . S
C823 C829 1.491 1_545 S
C824 H815 0.950 1_545 S
C824 C823 1.398 . S
C824 C825 1.391 . S
C825 H813 0.950 . S
C825 C821 1.393 . S
C825 C824 1.391 . S
C826 H816 0.950 . S
C826 C827 1.386 . S
C826 C828 1.391 . S
C827 C826 1.386 . S
C827 C831 1.393 . S
C828 H817 0.950 . S
C828 C826 1.391 . S
C828 C829 1.400 . S
C829 C823 1.491 1_565 S
C829 C828 1.400 . S
C829 C830 1.398 . S
C830 H818 0.950 1_565 S
C830 C829 1.398 . S
C830 C831 1.391 . S
C831 H819 0.950 . S
C831 C827 1.393 . S
C831 C830 1.391 . S
H832 C840 0.950 . S
H833 C845 0.950 . S
H834 C842 0.950 . S
H835 C844 0.950 1_556 S
H836 C846 0.950 . S
H837 C848 0.950 . S
H838 C850 0.950 1_554 S
H839 C851 0.950 . S
C840 H832 0.950 . S
C840 C841 1.386 . S
C840 C842 1.391 . S
C841 C840 1.386 . S
C841 C845 1.393 . S
C842 H834 0.950 . S
C842 C840 1.391 . S
C842 C843 1.400 . S
C843 C842 1.400 . S
C843 C844 1.398 . S
C843 C849 1.491 1_554 S
C844 H835 0.950 1_554 S
C844 C843 1.398 . S
C844 C845 1.391 . S
C845 H833 0.950 . S
C845 C841 1.393 . S
C845 C844 1.391 . S
C846 H836 0.950 . S
C846 C847 1.386 . S
C846 C848 1.391 . S
C847 C846 1.386 . S
C847 C851 1.393 . S
C848 H837 0.950 . S
C848 C846 1.391 . S
C848 C849 1.400 . S
C849 C843 1.491 1_556 S
C849 C848 1.400 . S
C849 C850 1.398 . S
C850 H838 0.950 1_556 S
C850 C849 1.398 . S
C850 C851 1.391 . S
C851 H839 0.950 . S
C851 C847 1.393 . S
C851 C850 1.391 . S
H852 C860 0.950 . S
H853 C865 0.950 . S
H854 C862 0.950 1_554 S
H855 C864 0.950 . S
H856 C866 0.950 . S
H857 C868 0.950 1_556 S
H858 C870 0.950 . S
H859 C871 0.950 . S
C860 H852 0.950 . S
C860 C861 1.386 . S
C860 C862 1.391 . S
C861 C860 1.386 . S
C861 C865 1.393 . S
C862 H854 0.950 1_556 S
C862 C860 1.391 . S
C862 C863 1.400 . S
C863 C862 1.400 . S
C863 C864 1.398 . S
C863 C869 1.491 1_556 S
C864 H855 0.950 . S
C864 C863 1.398 . S
C864 C865 1.391 . S
C865 H853 0.950 . S
C865 C861 1.393 . S
C865 C864 1.391 . S
C866 H856 0.950 . S
C866 C867 1.386 . S
C866 C868 1.391 . S
C867 C866 1.386 . S
C867 C871 1.393 . S
C868 H857 0.950 1_554 S
C868 C866 1.391 . S
C868 C869 1.400 . S
C869 C863 1.491 1_554 S
C869 C868 1.400 . S
C869 C870 1.398 . S
C870 H858 0.950 . S
C870 C869 1.398 . S
C870 C871 1.391 . S
C871 H859 0.950 . S
C871 C867 1.393 . S
C871 C870 1.391 . S
H872 C880 0.950 . S
H873 C885 0.950 . S
H874 C882 0.985 . S
H875 C884 0.950 . S
H876 C886 0.950 . S
H877 C888 0.985 . S
H878 C890 0.950 . S
H879 C891 0.950 . S
C880 H872 0.950 . S
C880 C881 1.386 . S
C880 C882 1.391 . S
C881 C880 1.386 . S
C881 C885 1.393 . S
C882 H874 0.985 . S
C882 C880 1.391 . S
C882 C883 1.400 . S
C883 C882 1.400 . S
C883 C884 1.398 . S
C883 C889 1.491 1_556 S
C884 H875 0.950 . S
C884 C883 1.398 . S
C884 C885 1.391 . S
C885 H873 0.950 . S
C885 C881 1.393 . S
C885 C884 1.391 . S
C886 H876 0.950 . S
C886 C887 1.386 . S
C886 C888 1.391 . S
C887 C886 1.386 . S
C887 C891 1.393 . S
C888 H877 0.985 . S
C888 C886 1.391 . S
C888 C889 1.400 . S
C889 C883 1.491 1_554 S
C889 C888 1.400 . S
C889 C890 1.398 . S
C890 H878 0.950 . S
C890 C889 1.398 . S
C890 C891 1.391 . S
C891 H879 0.950 . S
C891 C887 1.393 . S
C891 C890 1.391 . S
H892 C900 0.950 . S
H893 C905 0.950 . S
H894 C902 0.950 . S
H895 C904 0.950 1_554 S
H896 C906 0.950 . S
H897 C908 0.950 . S
H898 C910 0.950 1_556 S
H899 C911 0.950 . S
C900 H892 0.950 . S
C900 C901 1.386 . S
C900 C902 1.391 . S
C901 C900 1.386 . S
C901 C905 1.393 . S
C902 H894 0.950 . S
C902 C900 1.391 . S
C902 C903 1.400 . S
C903 C902 1.400 . S
C903 C904 1.398 . S
C903 C909 1.491 1_556 S
C904 H895 0.950 1_556 S
C904 C903 1.398 . S
C904 C905 1.391 . S
C905 H893 0.950 . S
C905 C901 1.393 . S
C905 C904 1.391 . S
C906 H896 0.950 . S
C906 C907 1.386 . S
C906 C908 1.391 . S
C907 C906 1.386 . S
C907 C911 1.393 . S
C908 H897 0.950 . S
C908 C906 1.391 . S
C908 C909 1.400 . S
C909 C903 1.491 1_554 S
C909 C908 1.400 . S
C909 C910 1.398 . S
C910 H898 0.950 1_554 S
C910 C909 1.398 . S
C910 C911 1.391 . S
C911 H899 0.950 . S
C911 C907 1.393 . S
C911 C910 1.391 . S
H912 C920 0.950 . S
H913 C925 0.950 . S
H914 C922 0.950 . S
H915 C924 0.950 . S
H916 C926 0.950 . S
H917 C928 0.950 . S
H918 C930 0.950 . S
H919 C931 0.950 . S
C920 H912 0.950 . S
C920 C921 1.386 . S
C920 C922 1.391 . S
C921 C920 1.386 . S
C921 C925 1.393 . S
C922 H914 0.950 . S
C922 C920 1.391 . S
C922 C923 1.400 . S
C923 C922 1.400 . S
C923 C924 1.398 . S
C923 C929 1.491 . S
C924 H915 0.950 . S
C924 C923 1.398 . S
C924 C925 1.391 . S
C925 H913 0.950 . S
C925 C921 1.393 . S
C925 C924 1.391 . S
C926 H916 0.950 . S
C926 C927 1.386 . S
C926 C928 1.391 . S
C927 C926 1.386 . S
C927 C931 1.393 . S
C928 H917 0.950 . S
C928 C926 1.391 . S
C928 C929 1.400 . S
C929 C923 1.491 . S
C929 C928 1.400 . S
C929 C930 1.398 . S
C930 H918 0.950 . S
C930 C929 1.398 . S
C930 C931 1.391 . S
C931 H919 0.950 . S
C931 C927 1.393 . S
C931 C930 1.391 . S
H932 C940 0.950 . S
H933 C945 0.950 . S
H934 C942 0.950 . S
H935 C944 0.950 . S
H936 C946 0.950 . S
H937 C948 0.950 . S
H938 C950 0.950 . S
H939 C951 0.950 . S
C940 H932 0.950 . S
C940 C941 1.386 . S
C940 C942 1.391 . S
C941 C940 1.386 . S
C941 C945 1.393 . S
C942 H934 0.950 . S
C942 C940 1.391 . S
C942 C943 1.400 . S
C943 C942 1.400 . S
C943 C944 1.398 . S
C943 C949 1.491 . S
C944 H935 0.950 . S
C944 C943 1.398 . S
C944 C945 1.391 . S
C945 H933 0.950 . S
C945 C941 1.393 . S
C945 C944 1.391 . S
C946 H936 0.950 . S
C946 C947 1.386 . S
C946 C948 1.391 . S
C947 C946 1.386 . S
C947 C951 1.393 . S
C948 H937 0.950 . S
C948 C946 1.391 . S
C948 C949 1.400 . S
C949 C943 1.491 . S
C949 C948 1.400 . S
C949 C950 1.398 . S
C950 H938 0.950 . S
C950 C949 1.398 . S
C950 C951 1.391 . S
C951 H939 0.950 . S
C951 C947 1.393 . S
C951 C950 1.391 . S
H952 C960 0.950 . S
H953 C965 0.950 . S
H954 C962 0.950 . S
H955 C964 0.950 . S
H956 C966 0.950 . S
H957 C968 0.950 . S
H958 C970 0.950 . S
H959 C971 0.950 . S
C960 H952 0.950 . S
C960 C961 1.386 . S
C960 C962 1.391 . S
C961 C960 1.386 . S
C961 C965 1.393 . S
C962 H954 0.950 . S
C962 C960 1.391 . S
C962 C963 1.400 . S
C963 C962 1.400 . S
C963 C964 1.398 . S
C963 C969 1.491 . S
C964 H955 0.950 . S
C964 C963 1.398 . S
C964 C965 1.391 . S
C965 H953 0.950 . S
C965 C961 1.393 . S
C965 C964 1.391 . S
C966 H956 0.950 . S
C966 C967 1.386 . S
C966 C968 1.391 . S
C967 C966 1.386 . S
C967 C971 1.393 . S
C968 H957 0.950 . S
C968 C966 1.391 . S
C968 C969 1.400 . S
C969 C963 1.491 . S
C969 C968 1.400 . S
C969 C970 1.398 . S
C970 H958 0.950 . S
C970 C969 1.398 . S
C970 C971 1.391 . S
C971 H959 0.950 . S
C971 C967 1.393 . S
C971 C970 1.391 . S
H972 C980 0.950 . S
H973 C985 0.950 . S
H974 C982 0.950 . S
H975 C984 0.950 . S
H976 C986 0.950 . S
H977 C988 0.950 . S
H978 C990 0.950 . S
H979 C991 0.950 . S
C980 H972 0.950 . S
C980 C981 1.386 . S
C980 C982 1.391 . S
C981 C980 1.386 . S
C981 C985 1.393 . S
C982 H974 0.950 . S
C982 C980 1.391 . S
C982 C983 1.400 . S
C983 C982 1.400 . S
C983 C984 1.398 . S
C983 C989 1.491 . S
C984 H975 0.950 . S
C984 C983 1.398 . S
C984 C985 1.391 . S
C985 H973 0.950 . S
C985 C981 1.393 . S
C985 C984 1.391 . S
C986 H976 0.950 . S
C986 C987 1.386 . S
C986 C988 1.391 . S
C987 C986 1.386 . S
C987 C991 1.393 . S
C988 H977 0.950 . S
C988 C986 1.391 . S
C988 C989 1.400 . S
C989 C983 1.491 . S
C989 C988 1.400 . S
C989 C990 1.398 . S
C990 H978 0.950 . S
C990 C989 1.398 . S
C990 C991 1.391 . S
C991 H979 0.950 . S
C991 C987 1.393 . S
C991 C990 1.391 . S
H992 C1000 0.950 . S
H993 C1005 0.950 . S
H994 C1002 0.950 . S
H995 C1004 0.950 . S
H996 C1006 0.950 . S
H997 C1008 0.950 . S
H998 C1010 0.950 . S
H999 C1011 0.950 . S
C1000 H992 0.950 . S
C1000 C1001 1.386 . S
C1000 C1002 1.391 . S
C1001 C1000 1.386 . S
C1001 C1005 1.393 . S
C1002 H994 0.950 . S
C1002 C1000 1.391 . S
C1002 C1003 1.400 . S
C1003 C1002 1.400 . S
C1003 C1004 1.398 . S
C1003 C1009 1.491 . S
C1004 H995 0.950 . S
C1004 C1003 1.398 . S
C1004 C1005 1.391 . S
C1005 H993 0.950 . S
C1005 C1001 1.393 . S
C1005 C1004 1.391 . S
C1006 H996 0.950 . S
C1006 C1007 1.386 . S
C1006 C1008 1.391 . S
C1007 C1006 1.386 . S
C1007 C1011 1.393 . S
C1008 H997 0.950 . S
C1008 C1006 1.391 . S
C1008 C1009 1.400 . S
C1009 C1003 1.491 . S
C1009 C1008 1.400 . S
C1009 C1010 1.398 . S
C1010 H998 0.950 . S
C1010 C1009 1.398 . S
C1010 C1011 1.391 . S
C1011 H999 0.950 . S
C1011 C1007 1.393 . S
C1011 C1010 1.391 . S
H1012 C1020 0.950 . S
H1013 C1025 0.950 . S
H1014 C1022 0.950 . S
H1015 C1024 0.950 . S
H1016 C1026 0.950 . S
H1017 C1028 0.950 . S
H1018 C1030 0.950 . S
H1019 C1031 0.950 . S
C1020 H1012 0.950 . S
C1020 C1021 1.386 . S
C1020 C1022 1.391 . S
C1021 C1020 1.386 . S
C1021 C1025 1.393 . S
C1022 H1014 0.950 . S
C1022 C1020 1.391 . S
C1022 C1023 1.400 . S
C1023 C1022 1.400 . S
C1023 C1024 1.398 . S
C1023 C1029 1.491 . S
C1024 H1015 0.950 . S
C1024 C1023 1.398 . S
C1024 C1025 1.391 . S
C1025 H1013 0.950 . S
C1025 C1021 1.393 . S
C1025 C1024 1.391 . S
C1026 H1016 0.950 . S
C1026 C1027 1.386 . S
C1026 C1028 1.391 . S
C1027 C1026 1.386 . S
C1027 C1031 1.393 . S
C1028 H1017 0.950 . S
C1028 C1026 1.391 . S
C1028 C1029 1.400 . S
C1029 C1023 1.491 . S
C1029 C1028 1.400 . S
C1029 C1030 1.398 . S
C1030 H1018 0.950 . S
C1030 C1029 1.398 . S
C1030 C1031 1.391 . S
C1031 H1019 0.950 . S
C1031 C1027 1.393 . S
C1031 C1030 1.391 . S
H1032 C1040 0.950 . S
H1033 C1045 0.950 . S
H1034 C1042 0.950 . S
H1035 C1044 0.950 . S
H1036 C1046 0.950 . S
H1037 C1048 0.950 . S
H1038 C1050 0.950 . S
H1039 C1051 0.950 . S
C1040 H1032 0.950 . S
C1040 C1041 1.386 . S
C1040 C1042 1.391 . S
C1041 C1040 1.386 . S
C1041 C1045 1.393 . S
C1042 H1034 0.950 . S
C1042 C1040 1.391 . S
C1042 C1043 1.400 . S
C1043 C1042 1.400 . S
C1043 C1044 1.398 . S
C1043 C1049 1.491 . S
C1044 H1035 0.950 . S
C1044 C1043 1.398 . S
C1044 C1045 1.391 . S
C1045 H1033 0.950 . S
C1045 C1041 1.393 . S
C1045 C1044 1.391 . S
C1046 H1036 0.950 . S
C1046 C1047 1.386 . S
C1046 C1048 1.391 . S
C1047 C1046 1.386 . S
C1047 C1051 1.393 . S
C1048 H1037 0.950 . S
C1048 C1046 1.391 . S
C1048 C1049 1.400 . S
C1049 C1043 1.491 . S
C1049 C1048 1.400 . S
C1049 C1050 1.398 . S
C1050 H1038 0.950 . S
C1050 C1049 1.398 . S
C1050 C1051 1.391 . S
C1051 H1039 0.950 . S
C1051 C1047 1.393 . S
C1051 C1050 1.391 . S
H1052 C1060 0.950 . S
H1053 C1065 0.950 . S
H1054 C1062 0.950 . S
H1055 C1064 0.950 . S
H1056 C1066 0.950 . S
H1057 C1068 0.950 . S
H1058 C1070 0.950 . S
H1059 C1071 0.950 . S
C1060 H1052 0.950 . S
C1060 C1061 1.386 . S
C1060 C1062 1.391 . S
C1061 C1060 1.386 . S
C1061 C1065 1.393 . S
C1062 H1054 0.950 . S
C1062 C1060 1.391 . S
C1062 C1063 1.400 . S
C1063 C1062 1.400 . S
C1063 C1064 1.398 . S
C1063 C1069 1.491 . S
C1064 H1055 0.950 . S
C1064 C1063 1.398 . S
C1064 C1065 1.391 . S
C1065 H1053 0.950 . S
C1065 C1061 1.393 . S
C1065 C1064 1.391 . S
C1066 H1056 0.950 . S
C1066 C1067 1.386 . S
C1066 C1068 1.391 . S
C1067 C1066 1.386 . S
C1067 C1071 1.393 . S
C1068 H1057 0.950 . S
C1068 C1066 1.391 . S
C1068 C1069 1.400 . S
C1069 C1063 1.491 . S
C1069 C1068 1.400 . S
C1069 C1070 1.398 . S
C1070 H1058 0.950 . S
C1070 C1069 1.398 . S
C1070 C1071 1.391 . S
C1071 H1059 0.950 . S
C1071 C1067 1.393 . S
C1071 C1070 1.391 . S
H1072 C1080 0.950 . S
H1073 C1085 0.950 . S
H1074 C1082 0.950 . S
H1075 C1084 0.950 . S
H1076 C1086 0.950 . S
H1077 C1088 0.950 . S
H1078 C1090 0.950 . S
H1079 C1091 0.950 . S
C1080 H1072 0.950 . S
C1080 C1081 1.386 . S
C1080 C1082 1.391 . S
C1081 C1080 1.386 . S
C1081 C1085 1.393 . S
C1082 H1074 0.950 . S
C1082 C1080 1.391 . S
C1082 C1083 1.400 . S
C1083 C1082 1.400 . S
C1083 C1084 1.398 . S
C1083 C1089 1.491 . S
C1084 H1075 0.950 . S
C1084 C1083 1.398 . S
C1084 C1085 1.391 . S
C1085 H1073 0.950 . S
C1085 C1081 1.393 . S
C1085 C1084 1.391 . S
C1086 H1076 0.950 . S
C1086 C1087 1.386 . S
C1086 C1088 1.391 . S
C1087 C1086 1.386 . S
C1087 C1091 1.393 . S
C1088 H1077 0.950 . S
C1088 C1086 1.391 . S
C1088 C1089 1.400 . S
C1089 C1083 1.491 . S
C1089 C1088 1.400 . S
C1089 C1090 1.398 . S
C1090 H1078 0.950 . S
C1090 C1089 1.398 . S
C1090 C1091 1.391 . S
C1091 H1079 0.950 . S
C1091 C1087 1.393 . S
C1091 C1090 1.391 . S
H1092 C1100 0.950 . S
H1093 C1105 0.950 . S
H1094 C1102 0.950 . S
H1095 C1104 0.950 . S
H1096 C1106 0.950 . S
H1097 C1108 0.950 . S
H1098 C1110 0.950 . S
H1099 C1111 0.950 . S
C1100 H1092 0.950 . S
C1100 C1101 1.386 . S
C1100 C1102 1.391 . S
C1101 C1100 1.386 . S
C1101 C1105 1.393 . S
C1102 H1094 0.950 . S
C1102 C1100 1.391 . S
C1102 C1103 1.400 . S
C1103 C1102 1.400 . S
C1103 C1104 1.398 . S
C1103 C1109 1.491 . S
C1104 H1095 0.950 . S
C1104 C1103 1.398 . S
C1104 C1105 1.391 . S
C1105 H1093 0.950 . S
C1105 C1101 1.393 . S
C1105 C1104 1.391 . S
C1106 H1096 0.950 . S
C1106 C1107 1.386 . S
C1106 C1108 1.391 . S
C1107 C1106 1.386 . S
C1107 C1111 1.393 . S
C1108 H1097 0.950 . S
C1108 C1106 1.391 . S
C1108 C1109 1.400 . S
C1109 C1103 1.491 . S
C1109 C1108 1.400 . S
C1109 C1110 1.398 . S
C1110 H1098 0.950 . S
C1110 C1109 1.398 . S
C1110 C1111 1.391 . S
C1111 H1099 0.950 . S
C1111 C1107 1.393 . S
C1111 C1110 1.391 . S
H1112 C1120 0.950 . S
H1113 C1125 0.950 . S
H1114 C1122 0.950 . S
H1115 C1124 0.950 . S
H1116 C1126 0.950 . S
H1117 C1128 0.950 . S
H1118 C1130 0.950 . S
H1119 C1131 0.950 . S
C1120 H1112 0.950 . S
C1120 C1121 1.386 . S
C1120 C1122 1.391 . S
C1121 C1120 1.386 . S
C1121 C1125 1.393 . S
C1122 H1114 0.950 . S
C1122 C1120 1.391 . S
C1122 C1123 1.400 . S
C1123 C1122 1.400 . S
C1123 C1124 1.398 . S
C1123 C1129 1.491 . S
C1124 H1115 0.950 . S
C1124 C1123 1.398 . S
C1124 C1125 1.391 . S
C1125 H1113 0.950 . S
C1125 C1121 1.393 . S
C1125 C1124 1.391 . S
C1126 H1116 0.950 . S
C1126 C1127 1.386 . S
C1126 C1128 1.391 . S
C1127 C1126 1.386 . S
C1127 C1131 1.393 . S
C1128 H1117 0.950 . S
C1128 C1126 1.391 . S
C1128 C1129 1.400 . S
C1129 C1123 1.491 . S
C1129 C1128 1.400 . S
C1129 C1130 1.398 . S
C1130 H1118 0.950 . S
C1130 C1129 1.398 . S
C1130 C1131 1.391 . S
C1131 H1119 0.950 . S
C1131 C1127 1.393 . S
C1131 C1130 1.391 . S
H1132 C1140 0.950 . S
H1133 C1145 0.950 . S
H1134 C1142 0.950 . S
H1135 C1144 0.950 . S
H1136 C1146 0.950 . S
H1137 C1148 0.950 . S
H1138 C1150 0.950 . S
H1139 C1151 0.950 . S
C1140 H1132 0.950 . S
C1140 C1141 1.386 . S
C1140 C1142 1.391 . S
C1141 C1140 1.386 . S
C1141 C1145 1.393 . S
C1142 H1134 0.950 . S
C1142 C1140 1.391 . S
C1142 C1143 1.400 . S
C1143 C1142 1.400 . S
C1143 C1144 1.398 . S
C1143 C1149 1.491 . S
C1144 H1135 0.950 . S
C1144 C1143 1.398 . S
C1144 C1145 1.391 . S
C1145 H1133 0.950 . S
C1145 C1141 1.393 . S
C1145 C1144 1.391 . S
C1146 H1136 0.950 . S
C1146 C1147 1.386 . S
C1146 C1148 1.391 . S
C1147 C1146 1.386 . S
C1147 C1151 1.393 . S
C1148 H1137 0.950 . S
C1148 C1146 1.391 . S
C1148 C1149 1.400 . S
C1149 C1143 1.491 . S
C1149 C1148 1.400 . S
C1149 C1150 1.398 . S
C1150 H1138 0.950 . S
C1150 C1149 1.398 . S
C1150 C1151 1.391 . S
C1151 H1139 0.950 . S
C1151 C1147 1.393 . S
C1151 C1150 1.391 . S
H1152 C1160 0.950 . S
H1153 C1165 0.950 . S
H1154 C1162 0.950 . S
H1155 C1164 0.950 . S
H1156 C1166 0.950 . S
H1157 C1168 0.950 . S
H1158 C1170 0.950 . S
H1159 C1171 0.950 . S
C1160 H1152 0.950 . S
C1160 C1161 1.386 . S
C1160 C1162 1.391 . S
C1161 C1160 1.386 . S
C1161 C1165 1.393 . S
C1162 H1154 0.950 . S
C1162 C1160 1.391 . S
C1162 C1163 1.400 . S
C1163 C1162 1.400 . S
C1163 C1164 1.398 . S
C1163 C1169 1.491 . S
C1164 H1155 0.950 . S
C1164 C1163 1.398 . S
C1164 C1165 1.391 . S
C1165 H1153 0.950 . S
C1165 C1161 1.393 . S
C1165 C1164 1.391 . S
C1166 H1156 0.950 . S
C1166 C1167 1.386 . S
C1166 C1168 1.391 . S
C1167 C1166 1.386 . S
C1167 C1171 1.393 . S
C1168 H1157 0.950 . S
C1168 C1166 1.391 . S
C1168 C1169 1.400 . S
C1169 C1163 1.491 . S
C1169 C1168 1.400 . S
C1169 C1170 1.398 . S
C1170 H1158 0.950 . S
C1170 C1169 1.398 . S
C1170 C1171 1.391 . S
C1171 H1159 0.950 . S
C1171 C1167 1.393 . S
C1171 C1170 1.391 . S
H1172 C1180 0.950 . S
H1173 C1185 0.950 . S
H1174 C1182 0.950 . S
H1175 C1184 0.950 . S
H1176 C1186 0.950 . S
H1177 C1188 0.950 . S
H1178 C1190 0.950 . S
H1179 C1191 0.950 . S
C1180 H1172 0.950 . S
C1180 C1181 1.386 . S
C1180 C1182 1.391 . S
C1181 C1180 1.386 . S
C1181 C1185 1.393 . S
C1182 H1174 0.950 . S
C1182 C1180 1.391 . S
C1182 C1183 1.400 . S
C1183 C1182 1.400 . S
C1183 C1184 1.398 . S
C1183 C1189 1.491 . S
C1184 H1175 0.950 . S
C1184 C1183 1.398 . S
C1184 C1185 1.391 . S
C1185 H1173 0.950 . S
C1185 C1181 1.393 . S
C1185 C1184 1.391 . S
C1186 H1176 0.950 . S
C1186 C1187 1.386 . S
C1186 C1188 1.391 . S
C1187 C1186 1.386 . S
C1187 C1191 1.393 . S
C1188 H1177 0.950 . S
C1188 C1186 1.391 . S
C1188 C1189 1.400 . S
C1189 C1183 1.491 . S
C1189 C1188 1.400 . S
C1189 C1190 1.398 . S
C1190 H1178 0.950 . S
C1190 C1189 1.398 . S
C1190 C1191 1.391 . S
C1191 H1179 0.950 . S
C1191 C1187 1.393 . S
C1191 C1190 1.391 . S
H1192 C1200 0.950 . S
H1193 C1205 0.950 . S
H1194 C1202 0.950 . S
H1195 C1204 0.950 . S
H1196 C1206 0.950 . S
H1197 C1208 0.950 . S
H1198 C1210 0.950 . S
H1199 C1211 0.950 . S
C1200 H1192 0.950 . S
C1200 C1201 1.386 . S
C1200 C1202 1.391 . S
C1201 C1200 1.386 . S
C1201 C1205 1.393 . S
C1202 H1194 0.950 . S
C1202 C1200 1.391 . S
C1202 C1203 1.400 . S
C1203 C1202 1.400 . S
C1203 C1204 1.398 . S
C1203 C1209 1.491 . S
C1204 H1195 0.950 . S
C1204 C1203 1.398 . S
C1204 C1205 1.391 . S
C1205 H1193 0.950 . S
C1205 C1201 1.393 . S
C1205 C1204 1.391 . S
C1206 H1196 0.950 . S
C1206 C1207 1.386 . S
C1206 C1208 1.391 . S
C1207 C1206 1.386 . S
C1207 C1211 1.393 . S
C1208 H1197 0.950 . S
C1208 C1206 1.391 . S
C1208 C1209 1.400 . S
C1209 C1203 1.491 . S
C1209 C1208 1.400 . S
C1209 C1210 1.398 . S
C1210 H1198 0.950 . S
C1210 C1209 1.398 . S
C1210 C1211 1.391 . S
C1211 H1199 0.950 . S
C1211 C1207 1.393 . S
C1211 C1210 1.391 . S
H1212 C1220 0.950 . S
H1213 C1225 0.950 . S
H1214 C1222 0.950 . S
H1215 C1224 0.950 . S
H1216 C1226 0.950 . S
H1217 C1228 0.950 . S
H1218 C1230 0.950 . S
H1219 C1231 0.950 . S
C1220 H1212 0.950 . S
C1220 C1221 1.386 . S
C1220 C1222 1.391 . S
C1221 C1220 1.386 . S
C1221 C1225 1.393 . S
C1222 H1214 0.950 . S
C1222 C1220 1.391 . S
C1222 C1223 1.400 . S
C1223 C1222 1.400 . S
C1223 C1224 1.398 . S
C1223 C1229 1.491 . S
C1224 H1215 0.950 . S
C1224 C1223 1.398 . S
C1224 C1225 1.391 . S
C1225 H1213 0.950 . S
C1225 C1221 1.393 . S
C1225 C1224 1.391 . S
C1226 H1216 0.950 . S
C1226 C1227 1.386 . S
C1226 C1228 1.391 . S
C1227 C1226 1.386 . S
C1227 C1231 1.393 . S
C1228 H1217 0.950 . S
C1228 C1226 1.391 . S
C1228 C1229 1.400 . S
C1229 C1223 1.491 . S
C1229 C1228 1.400 . S
C1229 C1230 1.398 . S
C1230 H1218 0.950 . S
C1230 C1229 1.398 . S
C1230 C1231 1.391 . S
C1231 H1219 0.950 . S
C1231 C1227 1.393 . S
C1231 C1230 1.391 . S
H1232 C1240 0.950 . S
H1233 C1245 0.950 . S
H1234 C1242 0.950 . S
H1235 C1244 0.950 . S
H1236 C1246 0.950 . S
H1237 C1248 0.950 . S
H1238 C1250 0.950 . S
H1239 C1251 0.950 . S
C1240 H1232 0.950 . S
C1240 C1241 1.386 . S
C1240 C1242 1.391 . S
C1241 C1240 1.386 . S
C1241 C1245 1.393 . S
C1242 H1234 0.950 . S
C1242 C1240 1.391 . S
C1242 C1243 1.400 . S
C1243 C1242 1.400 . S
C1243 C1244 1.398 . S
C1243 C1249 1.491 . S
C1244 H1235 0.950 . S
C1244 C1243 1.398 . S
C1244 C1245 1.391 . S
C1245 H1233 0.950 . S
C1245 C1241 1.393 . S
C1245 C1244 1.391 . S
C1246 H1236 0.950 . S
C1246 C1247 1.386 . S
C1246 C1248 1.391 . S
C1247 C1246 1.386 . S
C1247 C1251 1.393 . S
C1248 H1237 0.950 . S
C1248 C1246 1.391 . S
C1248 C1249 1.400 . S
C1249 C1243 1.491 . S
C1249 C1248 1.400 . S
C1249 C1250 1.398 . S
C1250 H1238 0.950 . S
C1250 C1249 1.398 . S
C1250 C1251 1.391 . S
C1251 H1239 0.950 . S
C1251 C1247 1.393 . S
C1251 C1250 1.391 . S
H1252 C1260 0.950 . S
H1253 C1265 0.950 . S
H1254 C1262 0.950 . S
H1255 C1264 0.950 . S
H1256 C1266 0.950 . S
H1257 C1268 0.950 . S
H1258 C1270 0.950 . S
H1259 C1271 0.950 . S
C1260 H1252 0.950 . S
C1260 C1261 1.386 . S
C1260 C1262 1.391 . S
C1261 C1260 1.386 . S
C1261 C1265 1.393 . S
C1262 H1254 0.950 . S
C1262 C1260 1.391 . S
C1262 C1263 1.400 . S
C1263 C1262 1.400 . S
C1263 C1264 1.398 . S
C1263 C1269 1.491 . S
C1264 H1255 0.950 . S
C1264 C1263 1.398 . S
C1264 C1265 1.391 . S
C1265 H1253 0.950 . S
C1265 C1261 1.393 . S
C1265 C1264 1.391 . S
C1266 H1256 0.950 . S
C1266 C1267 1.386 . S
C1266 C1268 1.391 . S
C1267 C1266 1.386 . S
C1267 C1271 1.393 . S
C1268 H1257 0.950 . S
C1268 C1266 1.391 . S
C1268 C1269 1.400 . S
C1269 C1263 1.491 . S
C1269 C1268 1.400 . S
C1269 C1270 1.398 . S
C1270 H1258 0.950 . S
C1270 C1269 1.398 . S
C1270 C1271 1.391 . S
C1271 H1259 0.950 . S
C1271 C1267 1.393 . S
C1271 C1270 1.391 . S
H1272 C1280 0.950 . S
H1273 C1285 0.950 . S
H1274 C1282 0.950 . S
H1275 C1284 0.950 . S
H1276 C1286 0.950 . S
H1277 C1288 0.950 . S
H1278 C1290 0.950 . S
H1279 C1291 0.950 . S
C1280 H1272 0.950 . S
C1280 C1281 1.386 . S
C1280 C1282 1.391 . S
C1281 C1280 1.386 . S
C1281 C1285 1.393 . S
C1282 H1274 0.950 . S
C1282 C1280 1.391 . S
C1282 C1283 1.400 . S
C1283 C1282 1.400 . S
C1283 C1284 1.398 . S
C1283 C1289 1.491 . S
C1284 H1275 0.950 . S
C1284 C1283 1.398 . S
C1284 C1285 1.391 . S
C1285 H1273 0.950 . S
C1285 C1281 1.393 . S
C1285 C1284 1.391 . S
C1286 H1276 0.950 . S
C1286 C1287 1.386 . S
C1286 C1288 1.391 . S
C1287 C1286 1.386 . S
C1287 C1291 1.393 . S
C1288 H1277 0.950 . S
C1288 C1286 1.391 . S
C1288 C1289 1.400 . S
C1289 C1283 1.491 . S
C1289 C1288 1.400 . S
C1289 C1290 1.398 . S
C1290 H1278 0.950 . S
C1290 C1289 1.398 . S
C1290 C1291 1.391 . S
C1291 H1279 0.950 . S
C1291 C1287 1.393 . S
C1291 C1290 1.391 . S
H1292 C1300 0.950 . S
H1293 C1305 0.950 . S
H1294 C1302 0.950 . S
H1295 C1304 0.950 . S
H1296 C1306 0.950 . S
H1297 C1308 0.950 . S
H1298 C1310 0.950 . S
H1299 C1311 0.950 . S
C1300 H1292 0.950 . S
C1300 C1301 1.386 . S
C1300 C1302 1.391 . S
C1301 C1300 1.386 . S
C1301 C1305 1.393 . S
C1302 H1294 0.950 . S
C1302 C1300 1.391 . S
C1302 C1303 1.400 . S
C1303 C1302 1.400 . S
C1303 C1304 1.398 . S
C1303 C1309 1.491 . S
C1304 H1295 0.950 . S
C1304 C1303 1.398 . S
C1304 C1305 1.391 . S
C1305 H1293 0.950 . S
C1305 C1301 1.393 . S
C1305 C1304 1.391 . S
C1306 H1296 0.950 . S
C1306 C1307 1.386 . S
C1306 C1308 1.391 . S
C1307 C1306 1.386 . S
C1307 C1311 1.393 . S
C1308 H1297 0.950 . S
C1308 C1306 1.391 . S
C1308 C1309 1.400 . S
C1309 C1303 1.491 . S
C1309 C1308 1.400 . S
C1309 C1310 1.398 . S
C1310 H1298 0.950 . S
C1310 C1309 1.398 . S
C1310 C1311 1.391 . S
C1311 H1299 0.950 . S
C1311 C1307 1.393 . S
C1311 C1310 1.391 . S
H1312 C1320 0.950 . S
H1313 C1325 0.950 . S
H1314 C1322 0.950 . S
H1315 C1324 0.950 . S
H1316 C1326 0.950 . S
H1317 C1328 0.950 . S
H1318 C1330 0.950 . S
H1319 C1331 0.950 . S
C1320 H1312 0.950 . S
C1320 C1321 1.386 . S
C1320 C1322 1.391 . S
C1321 C1320 1.386 . S
C1321 C1325 1.393 . S
C1322 H1314 0.950 . S
C1322 C1320 1.391 . S
C1322 C1323 1.400 . S
C1323 C1322 1.400 . S
C1323 C1324 1.398 . S
C1323 C1329 1.491 . S
C1324 H1315 0.950 . S
C1324 C1323 1.398 . S
C1324 C1325 1.391 . S
C1325 H1313 0.950 . S
C1325 C1321 1.393 . S
C1325 C1324 1.391 . S
C1326 H1316 0.950 . S
C1326 C1327 1.386 . S
C1326 C1328 1.391 . S
C1327 C1326 1.386 . S
C1327 C1331 1.393 . S
C1328 H1317 0.950 . S
C1328 C1326 1.391 . S
C1328 C1329 1.400 . S
C1329 C1323 1.491 . S
C1329 C1328 1.400 . S
C1329 C1330 1.398 . S
C1330 H1318 0.950 . S
C1330 C1329 1.398 . S
C1330 C1331 1.391 . S
C1331 H1319 0.950 . S
C1331 C1327 1.393 . S
C1331 C1330 1.391 . S
H1332 C1340 0.950 . S
H1333 C1345 0.950 . S
H1334 C1342 0.950 . S
H1335 C1344 0.950 . S
H1336 C1346 0.950 . S
H1337 C1348 0.950 . S
H1338 C1350 0.950 . S
H1339 C1351 0.950 . S
C1340 H1332 0.950 . S
C1340 C1341 1.386 . S
C1340 C1342 1.391 . S
C1341 C1340 1.386 . S
C1341 C1345 1.393 . S
C1342 H1334 0.950 . S
C1342 C1340 1.391 . S
C1342 C1343 1.400 . S
C1343 C1342 1.400 . S
C1343 C1344 1.398 . S
C1343 C1349 1.491 . S
C1344 H1335 0.950 . S
C1344 C1343 1.398 . S
C1344 C1345 1.391 . S
C1345 H1333 0.950 . S
C1345 C1341 1.393 . S
C1345 C1344 1.391 . S
C1346 H1336 0.950 . S
C1346 C1347 1.386 . S
C1346 C1348 1.391 . S
C1347 C1346 1.386 . S
C1347 C1351 1.393 . S
C1348 H1337 0.950 . S
C1348 C1346 1.391 . S
C1348 C1349 1.400 . S
C1349 C1343 1.491 . S
C1349 C1348 1.400 . S
C1349 C1350 1.398 . S
C1350 H1338 0.950 . S
C1350 C1349 1.398 . S
C1350 C1351 1.391 . S
C1351 H1339 0.950 . S
C1351 C1347 1.393 . S
C1351 C1350 1.391 . S
H1352 C1360 0.950 . S
H1353 C1365 0.950 . S
H1354 C1362 0.950 . S
H1355 C1364 0.950 . S
H1356 C1366 0.950 . S
H1357 C1368 0.950 . S
H1358 C1370 0.950 . S
H1359 C1371 0.950 . S
C1360 H1352 0.950 . S
C1360 C1361 1.386 . S
C1360 C1362 1.391 . S
C1361 C1360 1.386 . S
C1361 C1365 1.393 . S
C1362 H1354 0.950 . S
C1362 C1360 1.391 . S
C1362 C1363 1.400 . S
C1363 C1362 1.400 . S
C1363 C1364 1.398 . S
C1363 C1369 1.491 . S
C1364 H1355 0.950 . S
C1364 C1363 1.398 . S
C1364 C1365 1.391 . S
C1365 H1353 0.950 . S
C1365 C1361 1.393 . S
C1365 C1364 1.391 . S
C1366 H1356 0.950 . S
C1366 C1367 1.386 . S
C1366 C1368 1.391 . S
C1367 C1366 1.386 . S
C1367 C1371 1.393 . S
C1368 H1357 0.950 . S
C1368 C1366 1.391 . S
C1368 C1369 1.400 . S
C1369 C1363 1.491 . S
C1369 C1368 1.400 . S
C1369 C1370 1.398 . S
C1370 H1358 0.950 . S
C1370 C1369 1.398 . S
C1370 C1371 1.391 . S
C1371 H1359 0.950 . S
C1371 C1367 1.393 . S
C1371 C1370 1.391 . S
H1372 C1380 0.950 . S
H1373 C1385 0.950 . S
H1374 C1382 0.950 . S
H1375 C1384 0.950 . S
H1376 C1386 0.950 . S
H1377 C1388 0.950 . S
H1378 C1390 0.950 . S
H1379 C1391 0.950 . S
C1380 H1372 0.950 . S
C1380 C1381 1.386 . S
C1380 C1382 1.391 . S
C1381 C1380 1.386 . S
C1381 C1385 1.393 . S
C1382 H1374 0.950 . S
C1382 C1380 1.391 . S
C1382 C1383 1.400 . S
C1383 C1382 1.400 . S
C1383 C1384 1.398 . S
C1383 C1389 1.491 . S
C1384 H1375 0.950 . S
C1384 C1383 1.398 . S
C1384 C1385 1.391 . S
C1385 H1373 0.950 . S
C1385 C1381 1.393 . S
C1385 C1384 1.391 . S
C1386 H1376 0.950 . S
C1386 C1387 1.386 . S
C1386 C1388 1.391 . S
C1387 C1386 1.386 . S
C1387 C1391 1.393 . S
C1388 H1377 0.950 . S
C1388 C1386 1.391 . S
C1388 C1389 1.400 . S
C1389 C1383 1.491 . S
C1389 C1388 1.400 . S
C1389 C1390 1.398 . S
C1390 H1378 0.950 . S
C1390 C1389 1.398 . S
C1390 C1391 1.391 . S
C1391 H1379 0.950 . S
C1391 C1387 1.393 . S
C1391 C1390 1.391 . S
H1392 C1400 0.950 . S
H1393 C1405 0.950 . S
H1394 C1402 0.950 . S
H1395 C1404 0.950 . S
H1396 C1406 0.950 . S
H1397 C1408 0.950 . S
H1398 C1410 0.950 . S
H1399 C1411 0.950 . S
C1400 H1392 0.950 . S
C1400 C1401 1.386 . S
C1400 C1402 1.391 . S
C1401 C1400 1.386 . S
C1401 C1405 1.393 . S
C1402 H1394 0.950 . S
C1402 C1400 1.391 . S
C1402 C1403 1.400 . S
C1403 C1402 1.400 . S
C1403 C1404 1.398 . S
C1403 C1409 1.491 . S
C1404 H1395 0.950 . S
C1404 C1403 1.398 . S
C1404 C1405 1.391 . S
C1405 H1393 0.950 . S
C1405 C1401 1.393 . S
C1405 C1404 1.391 . S
C1406 H1396 0.950 . S
C1406 C1407 1.386 . S
C1406 C1408 1.391 . S
C1407 C1406 1.386 . S
C1407 C1411 1.393 . S
C1408 H1397 0.950 . S
C1408 C1406 1.391 . S
C1408 C1409 1.400 . S
C1409 C1403 1.491 . S
C1409 C1408 1.400 . S
C1409 C1410 1.398 . S
C1410 H1398 0.950 . S
C1410 C1409 1.398 . S
C1410 C1411 1.391 . S
C1411 H1399 0.950 . S
C1411 C1407 1.393 . S
C1411 C1410 1.391 . S
H1412 C1420 0.950 . S
H1413 C1425 0.950 . S
H1414 C1422 0.950 . S
H1415 C1424 0.950 . S
H1416 C1426 0.950 . S
H1417 C1428 0.950 . S
H1418 C1430 0.950 . S
H1419 C1431 0.950 . S
C1420 H1412 0.950 . S
C1420 C1421 1.386 . S
C1420 C1422 1.391 . S
C1421 C1420 1.386 . S
C1421 C1425 1.393 . S
C1422 H1414 0.950 . S
C1422 C1420 1.391 . S
C1422 C1423 1.400 . S
C1423 C1422 1.400 . S
C1423 C1424 1.398 . S
C1423 C1429 1.491 . S
C1424 H1415 0.950 . S
C1424 C1423 1.398 . S
C1424 C1425 1.391 . S
C1425 H1413 0.950 . S
C1425 C1421 1.393 . S
C1425 C1424 1.391 . S
C1426 H1416 0.950 . S
C1426 C1427 1.386 . S
C1426 C1428 1.391 . S
C1427 C1426 1.386 . S
C1427 C1431 1.393 . S
C1428 H1417 0.950 . S
C1428 C1426 1.391 . S
C1428 C1429 1.400 . S
C1429 C1423 1.491 . S
C1429 C1428 1.400 . S
C1429 C1430 1.398 . S
C1430 H1418 0.950 . S
C1430 C1429 1.398 . S
C1430 C1431 1.391 . S
C1431 H1419 0.950 . S
C1431 C1427 1.393 . S
C1431 C1430 1.391 . S
H1432 C1440 0.950 . S
H1433 C1445 0.950 . S
H1434 C1442 0.950 . S
H1435 C1444 0.950 . S
H1436 C1446 0.950 . S
H1437 C1448 0.950 . S
H1438 C1450 0.950 . S
H1439 C1451 0.950 . S
C1440 H1432 0.950 . S
C1440 C1441 1.386 . S
C1440 C1442 1.391 . S
C1441 C1440 1.386 . S
C1441 C1445 1.393 . S
C1442 H1434 0.950 . S
C1442 C1440 1.391 . S
C1442 C1443 1.400 . S
C1443 C1442 1.400 . S
C1443 C1444 1.398 . S
C1443 C1449 1.491 . S
C1444 H1435 0.950 . S
C1444 C1443 1.398 . S
C1444 C1445 1.391 . S
C1445 H1433 0.950 . S
C1445 C1441 1.393 . S
C1445 C1444 1.391 . S
C1446 H1436 0.950 . S
C1446 C1447 1.386 . S
C1446 C1448 1.391 . S
C1447 C1446 1.386 . S
C1447 C1451 1.393 . S
C1448 H1437 0.950 . S
C1448 C1446 1.391 . S
C1448 C1449 1.400 . S
C1449 C1443 1.491 . S
C1449 C1448 1.400 . S
C1449 C1450 1.398 . S
C1450 H1438 0.950 . S
C1450 C1449 1.398 . S
C1450 C1451 1.391 . S
C1451 H1439 0.950 . S
C1451 C1447 1.393 . S
C1451 C1450 1.391 . S
H1452 C1460 0.950 . S
H1453 C1465 0.950 . S
H1454 C1462 0.950 . S
H1455 C1464 0.950 . S
H1456 C1466 0.950 . S
H1457 C1468 0.950 . S
H1458 C1470 0.950 . S
H1459 C1471 0.950 . S
C1460 H1452 0.950 . S
C1460 C1461 1.386 . S
C1460 C1462 1.391 . S
C1461 C1460 1.386 . S
C1461 C1465 1.393 . S
C1462 H1454 0.950 . S
C1462 C1460 1.391 . S
C1462 C1463 1.400 . S
C1463 C1462 1.400 . S
C1463 C1464 1.398 . S
C1463 C1469 1.491 . S
C1464 H1455 0.950 . S
C1464 C1463 1.398 . S
C1464 C1465 1.391 . S
C1465 H1453 0.950 . S
C1465 C1461 1.393 . S
C1465 C1464 1.391 . S
C1466 H1456 0.950 . S
C1466 C1467 1.386 . S
C1466 C1468 1.391 . S
C1467 C1466 1.386 . S
C1467 C1471 1.393 . S
C1468 H1457 0.950 . S
C1468 C1466 1.391 . S
C1468 C1469 1.400 . S
C1469 C1463 1.491 . S
C1469 C1468 1.400 . S
C1469 C1470 1.398 . S
C1470 H1458 0.950 . S
C1470 C1469 1.398 . S
C1470 C1471 1.391 . S
C1471 H1459 0.950 . S
C1471 C1467 1.393 . S
C1471 C1470 1.391 . S
H1472 C1480 0.950 . S
H1473 C1485 0.950 . S
H1474 C1482 0.950 . S
H1475 C1484 0.950 . S
H1476 C1486 0.950 . S
H1477 C1488 0.950 . S
H1478 C1490 0.950 . S
H1479 C1491 0.950 . S
C1480 H1472 0.950 . S
C1480 C1481 1.386 . S
C1480 C1482 1.391 . S
C1481 C1480 1.386 . S
C1481 C1485 1.393 . S
C1482 H1474 0.950 . S
C1482 C1480 1.391 . S
C1482 C1483 1.400 . S
C1483 C1482 1.400 . S
C1483 C1484 1.398 . S
C1483 C1489 1.491 . S
C1484 H1475 0.950 . S
C1484 C1483 1.398 . S
C1484 C1485 1.391 . S
C1485 H1473 0.950 . S
C1485 C1481 1.393 . S
C1485 C1484 1.391 . S
C1486 H1476 0.950 . S
C1486 C1487 1.386 . S
C1486 C1488 1.391 . S
C1487 C1486 1.386 . S
C1487 C1491 1.393 . S
C1488 H1477 0.950 . S
C1488 C1486 1.391 . S
C1488 C1489 1.400 . S
C1489 C1483 1.491 . S
C1489 C1488 1.400 . S
C1489 C1490 1.398 . S
C1490 H1478 0.950 . S
C1490 C1489 1.398 . S
C1490 C1491 1.391 . S
C1491 H1479 0.950 . S
C1491 C1487 1.393 . S
C1491 C1490 1.391 . S
H1492 C1500 0.950 . S
H1493 C1505 0.950 . S
H1494 C1502 0.950 . S
H1495 C1504 0.950 . S
H1496 C1506 0.950 . S
H1497 C1508 0.950 . S
H1498 C1510 0.950 . S
H1499 C1511 0.950 . S
C1500 H1492 0.950 . S
C1500 C1501 1.386 . S
C1500 C1502 1.391 . S
C1501 C1500 1.386 . S
C1501 C1505 1.393 . S
C1502 H1494 0.950 . S
C1502 C1500 1.391 . S
C1502 C1503 1.400 . S
C1503 C1502 1.400 . S
C1503 C1504 1.398 . S
C1503 C1509 1.491 . S
C1504 H1495 0.950 . S
C1504 C1503 1.398 . S
C1504 C1505 1.391 . S
C1505 H1493 0.950 . S
C1505 C1501 1.393 . S
C1505 C1504 1.391 . S
C1506 H1496 0.950 . S
C1506 C1507 1.386 . S
C1506 C1508 1.391 . S
C1507 C1506 1.386 . S
C1507 C1511 1.393 . S
C1508 H1497 0.950 . S
C1508 C1506 1.391 . S
C1508 C1509 1.400 . S
C1509 C1503 1.491 . S
C1509 C1508 1.400 . S
C1509 C1510 1.398 . S
C1510 H1498 0.950 . S
C1510 C1509 1.398 . S
C1510 C1511 1.391 . S
C1511 H1499 0.950 . S
C1511 C1507 1.393 . S
C1511 C1510 1.391 . S
H1512 C1520 0.950 . S
H1513 C1525 0.950 . S
H1514 C1522 0.950 . S
H1515 C1524 0.950 . S
H1516 C1526 0.950 . S
H1517 C1528 0.950 . S
H1518 C1530 0.950 . S
H1519 C1531 0.950 . S
C1520 H1512 0.950 . S
C1520 C1521 1.386 . S
C1520 C1522 1.391 . S
C1521 C1520 1.386 . S
C1521 C1525 1.393 . S
C1522 H1514 0.950 . S
C1522 C1520 1.391 . S
C1522 C1523 1.400 . S
C1523 C1522 1.400 . S
C1523 C1524 1.398 . S
C1523 C1529 1.491 . S
C1524 H1515 0.950 . S
C1524 C1523 1.398 . S
C1524 C1525 1.391 . S
C1525 H1513 0.950 . S
C1525 C1521 1.393 . S
C1525 C1524 1.391 . S
C1526 H1516 0.950 . S
C1526 C1527 1.386 . S
C1526 C1528 1.391 . S
C1527 C1526 1.386 . S
C1527 C1531 1.393 . S
C1528 H1517 0.950 . S
C1528 C1526 1.391 . S
C1528 C1529 1.400 . S
C1529 C1523 1.491 . S
C1529 C1528 1.400 . S
C1529 C1530 1.398 . S
C1530 H1518 0.950 . S
C1530 C1529 1.398 . S
C1530 C1531 1.391 . S
C1531 H1519 0.950 . S
C1531 C1527 1.393 . S
C1531 C1530 1.391 . S
H1532 C1540 0.950 . S
H1533 C1545 0.950 . S
H1534 C1542 0.950 . S
H1535 C1544 0.950 . S
H1536 C1546 0.950 . S
H1537 C1548 0.950 . S
H1538 C1550 0.950 . S
H1539 C1551 0.950 . S
C1540 H1532 0.950 . S
C1540 C1541 1.386 . S
C1540 C1542 1.391 . S
C1541 C1540 1.386 . S
C1541 C1545 1.393 . S
C1542 H1534 0.950 . S
C1542 C1540 1.391 . S
C1542 C1543 1.400 . S
C1543 C1542 1.400 . S
C1543 C1544 1.398 . S
C1543 C1549 1.491 . S
C1544 H1535 0.950 . S
C1544 C1543 1.398 . S
C1544 C1545 1.391 . S
C1545 H1533 0.950 . S
C1545 C1541 1.393 . S
C1545 C1544 1.391 . S
C1546 H1536 0.950 . S
C1546 C1547 1.386 . S
C1546 C1548 1.391 . S
C1547 C1546 1.386 . S
C1547 C1551 1.393 . S
C1548 H1537 0.950 . S
C1548 C1546 1.391 . S
C1548 C1549 1.400 . S
C1549 C1543 1.491 . S
C1549 C1548 1.400 . S
C1549 C1550 1.398 . S
C1550 H1538 0.950 . S
C1550 C1549 1.398 . S
C1550 C1551 1.391 . S
C1551 H1539 0.950 . S
C1551 C1547 1.393 . S
C1551 C1550 1.391 . S
H1552 C1560 0.950 . S
H1553 C1565 0.950 . S
H1554 C1562 0.950 . S
H1555 C1564 0.950 . S
H1556 C1566 0.950 . S
H1557 C1568 0.950 . S
H1558 C1570 0.950 . S
H1559 C1571 0.950 . S
C1560 H1552 0.950 . S
C1560 C1561 1.386 . S
C1560 C1562 1.391 . S
C1561 C1560 1.386 . S
C1561 C1565 1.393 . S
C1562 H1554 0.950 . S
C1562 C1560 1.391 . S
C1562 C1563 1.400 . S
C1563 C1562 1.400 . S
C1563 C1564 1.398 . S
C1563 C1569 1.491 . S
C1564 H1555 0.950 . S
C1564 C1563 1.398 . S
C1564 C1565 1.391 . S
C1565 H1553 0.950 . S
C1565 C1561 1.393 . S
C1565 C1564 1.391 . S
C1566 H1556 0.950 . S
C1566 C1567 1.386 . S
C1566 C1568 1.391 . S
C1567 C1566 1.386 . S
C1567 C1571 1.393 . S
C1568 H1557 0.950 . S
C1568 C1566 1.391 . S
C1568 C1569 1.400 . S
C1569 C1563 1.491 . S
C1569 C1568 1.400 . S
C1569 C1570 1.398 . S
C1570 H1558 0.950 . S
C1570 C1569 1.398 . S
C1570 C1571 1.391 . S
C1571 H1559 0.950 . S
C1571 C1567 1.393 . S
C1571 C1570 1.391 . S
H1572 C1580 0.950 . S
H1573 C1585 0.950 . S
H1574 C1582 0.950 . S
H1575 C1584 0.950 . S
H1576 C1586 0.950 . S
H1577 C1588 0.950 . S
H1578 C1590 0.950 . S
H1579 C1591 0.950 . S
C1580 H1572 0.950 . S
C1580 C1581 1.386 . S
C1580 C1582 1.391 . S
C1581 C1580 1.386 . S
C1581 C1585 1.393 . S
C1582 H1574 0.950 . S
C1582 C1580 1.391 . S
C1582 C1583 1.400 . S
C1583 C1582 1.400 . S
C1583 C1584 1.398 . S
C1583 C1589 1.491 . S
C1584 H1575 0.950 . S
C1584 C1583 1.398 . S
C1584 C1585 1.391 . S
C1585 H1573 0.950 . S
C1585 C1581 1.393 . S
C1585 C1584 1.391 . S
C1586 H1576 0.950 . S
C1586 C1587 1.386 . S
C1586 C1588 1.391 . S
C1587 C1586 1.386 . S
C1587 C1591 1.393 . S
C1588 H1577 0.950 . S
C1588 C1586 1.391 . S
C1588 C1589 1.400 . S
C1589 C1583 1.491 . S
C1589 C1588 1.400 . S
C1589 C1590 1.398 . S
C1590 H1578 0.950 . S
C1590 C1589 1.398 . S
C1590 C1591 1.391 . S
C1591 H1579 0.950 . S
C1591 C1587 1.393 . S
C1591 C1590 1.391 . S
H1592 C1600 0.950 . S
H1593 C1605 0.950 . S
H1594 C1602 0.950 . S
H1595 C1604 0.950 . S
H1596 C1606 0.950 . S
H1597 C1608 0.950 . S
H1598 C1610 0.950 . S
H1599 C1611 0.950 . S
C1600 H1592 0.950 . S
C1600 C1601 1.386 . S
C1600 C1602 1.391 . S
C1601 C1600 1.386 . S
C1601 C1605 1.393 . S
C1602 H1594 0.950 . S
C1602 C1600 1.391 . S
C1602 C1603 1.400 . S
C1603 C1602 1.400 . S
C1603 C1604 1.398 . S
C1603 C1609 1.491 . S
C1604 H1595 0.950 . S
C1604 C1603 1.398 . S
C1604 C1605 1.391 . S
C1605 H1593 0.950 . S
C1605 C1601 1.393 . S
C1605 C1604 1.391 . S
C1606 H1596 0.950 . S
C1606 C1607 1.386 . S
C1606 C1608 1.391 . S
C1607 C1606 1.386 . S
C1607 C1611 1.393 . S
C1608 H1597 0.950 . S
C1608 C1606 1.391 . S
C1608 C1609 1.400 . S
C1609 C1603 1.491 . S
C1609 C1608 1.400 . S
C1609 C1610 1.398 . S
C1610 H1598 0.950 . S
C1610 C1609 1.398 . S
C1610 C1611 1.391 . S
C1611 H1599 0.950 . S
C1611 C1607 1.393 . S
C1611 C1610 1.391 . S
H1612 C1620 0.950 . S
H1613 C1625 0.950 . S
H1614 C1622 0.950 . S
H1615 C1624 0.950 . S
H1616 C1626 0.950 . S
H1617 C1628 0.950 . S
H1618 C1630 0.950 . S
H1619 C1631 0.950 . S
C1620 H1612 0.950 . S
C1620 C1621 1.386 . S
C1620 C1622 1.391 . S
C1621 C1620 1.386 . S
C1621 C1625 1.393 . S
C1622 H1614 0.950 . S
C1622 C1620 1.391 . S
C1622 C1623 1.400 . S
C1623 C1622 1.400 . S
C1623 C1624 1.398 . S
C1623 C1629 1.491 . S
C1624 H1615 0.950 . S
C1624 C1623 1.398 . S
C1624 C1625 1.391 . S
C1625 H1613 0.950 . S
C1625 C1621 1.393 . S
C1625 C1624 1.391 . S
C1626 H1616 0.950 . S
C1626 C1627 1.386 . S
C1626 C1628 1.391 . S
C1627 C1626 1.386 . S
C1627 C1631 1.393 . S
C1628 H1617 0.950 . S
C1628 C1626 1.391 . S
C1628 C1629 1.400 . S
C1629 C1623 1.491 . S
C1629 C1628 1.400 . S
C1629 C1630 1.398 . S
C1630 H1618 0.950 . S
C1630 C1629 1.398 . S
C1630 C1631 1.391 . S
C1631 H1619 0.950 . S
C1631 C1627 1.393 . S
C1631 C1630 1.391 . S
H1632 C1640 0.950 . S
H1633 C1645 0.950 . S
H1634 C1642 0.950 . S
H1635 C1644 0.950 . S
H1636 C1646 0.950 . S
H1637 C1648 0.950 . S
H1638 C1650 0.950 . S
H1639 C1651 0.950 . S
C1640 H1632 0.950 . S
C1640 C1641 1.386 . S
C1640 C1642 1.391 . S
C1641 C1640 1.386 . S
C1641 C1645 1.393 . S
C1642 H1634 0.950 . S
C1642 C1640 1.391 . S
C1642 C1643 1.400 . S
C1643 C1642 1.400 . S
C1643 C1644 1.398 . S
C1643 C1649 1.491 . S
C1644 H1635 0.950 . S
C1644 C1643 1.398 . S
C1644 C1645 1.391 . S
C1645 H1633 0.950 . S
C1645 C1641 1.393 . S
C1645 C1644 1.391 . S
C1646 H1636 0.950 . S
C1646 C1647 1.386 . S
C1646 C1648 1.391 . S
C1647 C1646 1.386 . S
C1647 C1651 1.393 . S
C1648 H1637 0.950 . S
C1648 C1646 1.391 . S
C1648 C1649 1.400 . S
C1649 C1643 1.491 . S
C1649 C1648 1.400 . S
C1649 C1650 1.398 . S
C1650 H1638 0.950 . S
C1650 C1649 1.398 . S
C1650 C1651 1.391 . S
C1651 H1639 0.950 . S
C1651 C1647 1.393 . S
C1651 C1650 1.391 . S
H1652 C1660 0.950 . S
H1653 C1665 0.950 . S
H1654 C1662 0.950 . S
H1655 C1664 0.950 . S
H1656 C1666 0.950 . S
H1657 C1668 0.950 . S
H1658 C1670 0.950 . S
H1659 C1671 0.950 . S
C1660 H1652 0.950 . S
C1660 C1661 1.386 . S
C1660 C1662 1.391 . S
C1661 C1660 1.386 . S
C1661 C1665 1.393 . S
C1662 H1654 0.950 . S
C1662 C1660 1.391 . S
C1662 C1663 1.400 . S
C1663 C1662 1.400 . S
C1663 C1664 1.398 . S
C1663 C1669 1.491 . S
C1664 H1655 0.950 . S
C1664 C1663 1.398 . S
C1664 C1665 1.391 . S
C1665 H1653 0.950 . S
C1665 C1661 1.393 . S
C1665 C1664 1.391 . S
C1666 H1656 0.950 . S
C1666 C1667 1.386 . S
C1666 C1668 1.391 . S
C1667 C1666 1.386 . S
C1667 C1671 1.393 . S
C1668 H1657 0.950 . S
C1668 C1666 1.391 . S
C1668 C1669 1.400 . S
C1669 C1663 1.491 . S
C1669 C1668 1.400 . S
C1669 C1670 1.398 . S
C1670 H1658 0.950 . S
C1670 C1669 1.398 . S
C1670 C1671 1.391 . S
C1671 H1659 0.950 . S
C1671 C1667 1.393 . S
C1671 C1670 1.391 . S
H1672 C1680 0.950 . S
H1673 C1685 0.950 . S
H1674 C1682 0.950 . S
H1675 C1684 0.950 . S
H1676 C1686 0.950 . S
H1677 C1688 0.950 . S
H1678 C1690 0.950 . S
H1679 C1691 0.950 . S
C1680 H1672 0.950 . S
C1680 C1681 1.386 . S
C1680 C1682 1.391 . S
C1681 C1680 1.386 . S
C1681 C1685 1.393 . S
C1682 H1674 0.950 . S
C1682 C1680 1.391 . S
C1682 C1683 1.400 . S
C1683 C1682 1.400 . S
C1683 C1684 1.398 . S
C1683 C1689 1.491 . S
C1684 H1675 0.950 . S
C1684 C1683 1.398 . S
C1684 C1685 1.391 . S
C1685 H1673 0.950 . S
C1685 C1681 1.393 . S
C1685 C1684 1.391 . S
C1686 H1676 0.950 . S
C1686 C1687 1.386 . S
C1686 C1688 1.391 . S
C1687 C1686 1.386 . S
C1687 C1691 1.393 . S
C1688 H1677 0.950 . S
C1688 C1686 1.391 . S
C1688 C1689 1.400 . S
C1689 C1683 1.491 . S
C1689 C1688 1.400 . S
C1689 C1690 1.398 . S
C1690 H1678 0.950 . S
C1690 C1689 1.398 . S
C1690 C1691 1.391 . S
C1691 H1679 0.950 . S
C1691 C1687 1.393 . S
C1691 C1690 1.391 . S
H1692 C1700 0.950 . S
H1693 C1705 0.950 . S
H1694 C1702 0.950 . S
H1695 C1704 0.950 . S
H1696 C1706 0.950 . S
H1697 C1708 0.950 . S
H1698 C1710 0.950 . S
H1699 C1711 0.950 . S
C1700 H1692 0.950 . S
C1700 C1701 1.386 . S
C1700 C1702 1.391 . S
C1701 C1700 1.386 . S
C1701 C1705 1.393 . S
C1702 H1694 0.950 . S
C1702 C1700 1.391 . S
C1702 C1703 1.400 . S
C1703 C1702 1.400 . S
C1703 C1704 1.398 . S
C1703 C1709 1.491 . S
C1704 H1695 0.950 . S
C1704 C1703 1.398 . S
C1704 C1705 1.391 . S
C1705 H1693 0.950 . S
C1705 C1701 1.393 . S
C1705 C1704 1.391 . S
C1706 H1696 0.950 . S
C1706 C1707 1.386 . S
C1706 C1708 1.391 . S
C1707 C1706 1.386 . S
C1707 C1711 1.393 . S
C1708 H1697 0.950 . S
C1708 C1706 1.391 . S
C1708 C1709 1.400 . S
C1709 C1703 1.491 . S
C1709 C1708 1.400 . S
C1709 C1710 1.398 . S
C1710 H1698 0.950 . S
C1710 C1709 1.398 . S
C1710 C1711 1.391 . S
C1711 H1699 0.950 . S
C1711 C1707 1.393 . S
C1711 C1710 1.391 . S
H1712 C1720 0.950 . S
H1713 C1725 0.950 . S
H1714 C1722 0.950 . S
H1715 C1724 0.950 . S
H1716 C1726 0.950 . S
H1717 C1728 0.950 . S
H1718 C1730 0.950 . S
H1719 C1731 0.950 . S
C1720 H1712 0.950 . S
C1720 C1721 1.386 . S
C1720 C1722 1.391 . S
C1721 C1720 1.386 . S
C1721 C1725 1.393 . S
C1722 H1714 0.950 . S
C1722 C1720 1.391 . S
C1722 C1723 1.400 . S
C1723 C1722 1.400 . S
C1723 C1724 1.398 . S
C1723 C1729 1.491 . S
C1724 H1715 0.950 . S
C1724 C1723 1.398 . S
C1724 C1725 1.391 . S
C1725 H1713 0.950 . S
C1725 C1721 1.393 . S
C1725 C1724 1.391 . S
C1726 H1716 0.950 . S
C1726 C1727 1.386 . S
C1726 C1728 1.391 . S
C1727 C1726 1.386 . S
C1727 C1731 1.393 . S
C1728 H1717 0.950 . S
C1728 C1726 1.391 . S
C1728 C1729 1.400 . S
C1729 C1723 1.491 . S
C1729 C1728 1.400 . S
C1729 C1730 1.398 . S
C1730 H1718 0.950 . S
C1730 C1729 1.398 . S
C1730 C1731 1.391 . S
C1731 H1719 0.950 . S
C1731 C1727 1.393 . S
C1731 C1730 1.391 . S
H1732 C1740 0.950 . S
H1733 C1745 0.950 . S
H1734 C1742 0.950 . S
H1735 C1744 0.950 . S
H1736 C1746 0.950 . S
H1737 C1748 0.950 . S
H1738 C1750 0.950 . S
H1739 C1751 0.950 . S
C1740 H1732 0.950 . S
C1740 C1741 1.386 . S
C1740 C1742 1.391 . S
C1741 C1740 1.386 . S
C1741 C1745 1.393 . S
C1742 H1734 0.950 . S
C1742 C1740 1.391 . S
C1742 C1743 1.400 . S
C1743 C1742 1.400 . S
C1743 C1744 1.398 . S
C1743 C1749 1.491 . S
C1744 H1735 0.950 . S
C1744 C1743 1.398 . S
C1744 C1745 1.391 . S
C1745 H1733 0.950 . S
C1745 C1741 1.393 . S
C1745 C1744 1.391 . S
C1746 H1736 0.950 . S
C1746 C1747 1.386 . S
C1746 C1748 1.391 . S
C1747 C1746 1.386 . S
C1747 C1751 1.393 . S
C1748 H1737 0.950 . S
C1748 C1746 1.391 . S
C1748 C1749 1.400 . S
C1749 C1743 1.491 . S
C1749 C1748 1.400 . S
C1749 C1750 1.398 . S
C1750 H1738 0.950 . S
C1750 C1749 1.398 . S
C1750 C1751 1.391 . S
C1751 H1739 0.950 . S
C1751 C1747 1.393 . S
C1751 C1750 1.391 . S
H1752 C1760 0.950 . S
H1753 C1765 0.950 . S
H1754 C1762 0.950 . S
H1755 C1764 0.950 . S
H1756 C1766 0.950 . S
H1757 C1768 0.950 . S
H1758 C1770 0.950 . S
H1759 C1771 0.950 . S
C1760 H1752 0.950 . S
C1760 C1761 1.386 . S
C1760 C1762 1.391 . S
C1761 C1760 1.386 . S
C1761 C1765 1.393 . S
C1762 H1754 0.950 . S
C1762 C1760 1.391 . S
C1762 C1763 1.400 . S
C1763 C1762 1.400 . S
C1763 C1764 1.398 . S
C1763 C1769 1.491 . S
C1764 H1755 0.950 . S
C1764 C1763 1.398 . S
C1764 C1765 1.391 . S
C1765 H1753 0.950 . S
C1765 C1761 1.393 . S
C1765 C1764 1.391 . S
C1766 H1756 0.950 . S
C1766 C1767 1.386 . S
C1766 C1768 1.391 . S
C1767 C1766 1.386 . S
C1767 C1771 1.393 . S
C1768 H1757 0.950 . S
C1768 C1766 1.391 . S
C1768 C1769 1.400 . S
C1769 C1763 1.491 . S
C1769 C1768 1.400 . S
C1769 C1770 1.398 . S
C1770 H1758 0.950 . S
C1770 C1769 1.398 . S
C1770 C1771 1.391 . S
C1771 H1759 0.950 . S
C1771 C1767 1.393 . S
C1771 C1770 1.391 . S
H1772 C1780 0.950 . S
H1773 C1785 0.950 . S
H1774 C1782 0.950 . S
H1775 C1784 0.950 . S
H1776 C1786 0.950 . S
H1777 C1788 0.950 . S
H1778 C1790 0.950 . S
H1779 C1791 0.950 . S
C1780 H1772 0.950 . S
C1780 C1781 1.386 . S
C1780 C1782 1.391 . S
C1781 C1780 1.386 . S
C1781 C1785 1.393 . S
C1782 H1774 0.950 . S
C1782 C1780 1.391 . S
C1782 C1783 1.400 . S
C1783 C1782 1.400 . S
C1783 C1784 1.398 . S
C1783 C1789 1.491 . S
C1784 H1775 0.950 . S
C1784 C1783 1.398 . S
C1784 C1785 1.391 . S
C1785 H1773 0.950 . S
C1785 C1781 1.393 . S
C1785 C1784 1.391 . S
C1786 H1776 0.950 . S
C1786 C1787 1.386 . S
C1786 C1788 1.391 . S
C1787 C1786 1.386 . S
C1787 C1791 1.393 . S
C1788 H1777 0.950 . S
C1788 C1786 1.391 . S
C1788 C1789 1.400 . S
C1789 C1783 1.491 . S
C1789 C1788 1.400 . S
C1789 C1790 1.398 . S
C1790 H1778 0.950 . S
C1790 C1789 1.398 . S
C1790 C1791 1.391 . S
C1791 H1779 0.950 . S
C1791 C1787 1.393 . S
C1791 C1790 1.391 . S
H1792 C1800 0.950 . S
H1793 C1805 0.950 . S
H1794 C1802 0.950 . S
H1795 C1804 0.950 . S
H1796 C1806 0.950 . S
H1797 C1808 0.950 . S
H1798 C1810 0.950 . S
H1799 C1811 0.950 . S
C1800 H1792 0.950 . S
C1800 C1801 1.386 . S
C1800 C1802 1.391 . S
C1801 C1800 1.386 . S
C1801 C1805 1.393 . S
C1802 H1794 0.950 . S
C1802 C1800 1.391 . S
C1802 C1803 1.400 . S
C1803 C1802 1.400 . S
C1803 C1804 1.398 . S
C1803 C1809 1.491 . S
C1804 H1795 0.950 . S
C1804 C1803 1.398 . S
C1804 C1805 1.391 . S
C1805 H1793 0.950 . S
C1805 C1801 1.393 . S
C1805 C1804 1.391 . S
C1806 H1796 0.950 . S
C1806 C1807 1.386 . S
C1806 C1808 1.391 . S
C1807 C1806 1.386 . S
C1807 C1811 1.393 . S
C1808 H1797 0.950 . S
C1808 C1806 1.391 . S
C1808 C1809 1.400 . S
C1809 C1803 1.491 . S
C1809 C1808 1.400 . S
C1809 C1810 1.398 . S
C1810 H1798 0.950 . S
C1810 C1809 1.398 . S
C1810 C1811 1.391 . S
C1811 H1799 0.950 . S
C1811 C1807 1.393 . S
C1811 C1810 1.391 . S
H1812 C1820 0.950 . S
H1813 C1825 0.950 . S
H1814 C1822 0.950 . S
H1815 C1824 0.950 . S
H1816 C1826 0.950 . S
H1817 C1828 0.950 . S
H1818 C1830 0.950 . S
H1819 C1831 0.950 . S
C1820 H1812 0.950 . S
C1820 C1821 1.386 . S
C1820 C1822 1.391 . S
C1821 C1820 1.386 . S
C1821 C1825 1.393 . S
C1822 H1814 0.950 . S
C1822 C1820 1.391 . S
C1822 C1823 1.400 . S
C1823 C1822 1.400 . S
C1823 C1824 1.398 . S
C1823 C1829 1.491 . S
C1824 H1815 0.950 . S
C1824 C1823 1.398 . S
C1824 C1825 1.391 . S
C1825 H1813 0.950 . S
C1825 C1821 1.393 . S
C1825 C1824 1.391 . S
C1826 H1816 0.950 . S
C1826 C1827 1.386 . S
C1826 C1828 1.391 . S
C1827 C1826 1.386 . S
C1827 C1831 1.393 . S
C1828 H1817 0.950 . S
C1828 C1826 1.391 . S
C1828 C1829 1.400 . S
C1829 C1823 1.491 . S
C1829 C1828 1.400 . S
C1829 C1830 1.398 . S
C1830 H1818 0.950 . S
C1830 C1829 1.398 . S
C1830 C1831 1.391 . S
C1831 H1819 0.950 . S
C1831 C1827 1.393 . S
C1831 C1830 1.391 . S
H1832 C1840 0.950 . S
H1833 C1845 0.950 . S
H1834 C1842 0.950 . S
H1835 C1844 0.950 . S
H1836 C1846 0.950 . S
H1837 C1848 0.950 . S
H1838 C1850 0.950 . S
H1839 C1851 0.950 . S
C1840 H1832 0.950 . S
C1840 C1841 1.386 . S
C1840 C1842 1.391 . S
C1841 C1840 1.386 . S
C1841 C1845 1.393 . S
C1842 H1834 0.950 . S
C1842 C1840 1.391 . S
C1842 C1843 1.400 . S
C1843 C1842 1.400 . S
C1843 C1844 1.398 . S
C1843 C1849 1.491 . S
C1844 H1835 0.950 . S
C1844 C1843 1.398 . S
C1844 C1845 1.391 . S
C1845 H1833 0.950 . S
C1845 C1841 1.393 . S
C1845 C1844 1.391 . S
C1846 H1836 0.950 . S
C1846 C1847 1.386 . S
C1846 C1848 1.391 . S
C1847 C1846 1.386 . S
C1847 C1851 1.393 . S
C1848 H1837 0.950 . S
C1848 C1846 1.391 . S
C1848 C1849 1.400 . S
C1849 C1843 1.491 . S
C1849 C1848 1.400 . S
C1849 C1850 1.398 . S
C1850 H1838 0.950 . S
C1850 C1849 1.398 . S
C1850 C1851 1.391 . S
C1851 H1839 0.950 . S
C1851 C1847 1.393 . S
C1851 C1850 1.391 . S
H1852 C1860 0.950 . S
H1853 C1865 0.950 . S
H1854 C1862 0.950 . S
H1855 C1864 0.950 . S
H1856 C1866 0.950 . S
H1857 C1868 0.950 . S
H1858 C1870 0.950 . S
H1859 C1871 0.950 . S
C1860 H1852 0.950 . S
C1860 C1861 1.386 . S
C1860 C1862 1.391 . S
C1861 C1860 1.386 . S
C1861 C1865 1.393 . S
C1862 H1854 0.950 . S
C1862 C1860 1.391 . S
C1862 C1863 1.400 . S
C1863 C1862 1.400 . S
C1863 C1864 1.398 . S
C1863 C1869 1.491 . S
C1864 H1855 0.950 . S
C1864 C1863 1.398 . S
C1864 C1865 1.391 . S
C1865 H1853 0.950 . S
C1865 C1861 1.393 . S
C1865 C1864 1.391 . S
C1866 H1856 0.950 . S
C1866 C1867 1.386 . S
C1866 C1868 1.391 . S
C1867 C1866 1.386 . S
C1867 C1871 1.393 . S
C1868 H1857 0.950 . S
C1868 C1866 1.391 . S
C1868 C1869 1.400 . S
C1869 C1863 1.491 . S
C1869 C1868 1.400 . S
C1869 C1870 1.398 . S
C1870 H1858 0.950 . S
C1870 C1869 1.398 . S
C1870 C1871 1.391 . S
C1871 H1859 0.950 . S
C1871 C1867 1.393 . S
C1871 C1870 1.391 . S
H1872 C1880 0.950 . S
H1873 C1885 0.950 . S
H1874 C1882 0.950 . S
H1875 C1884 0.950 . S
H1876 C1886 0.950 . S
H1877 C1888 0.950 . S
H1878 C1890 0.950 . S
H1879 C1891 0.950 . S
C1880 H1872 0.950 . S
C1880 C1881 1.386 . S
C1880 C1882 1.391 . S
C1881 C1880 1.386 . S
C1881 C1885 1.393 . S
C1882 H1874 0.950 . S
C1882 C1880 1.391 . S
C1882 C1883 1.400 . S
C1883 C1882 1.400 . S
C1883 C1884 1.398 . S
C1883 C1889 1.491 . S
C1884 H1875 0.950 . S
C1884 C1883 1.398 . S
C1884 C1885 1.391 . S
C1885 H1873 0.950 . S
C1885 C1881 1.393 . S
C1885 C1884 1.391 . S
C1886 H1876 0.950 . S
C1886 C1887 1.386 . S
C1886 C1888 1.391 . S
C1887 C1886 1.386 . S
C1887 C1891 1.393 . S
C1888 H1877 0.950 . S
C1888 C1886 1.391 . S
C1888 C1889 1.400 . S
C1889 C1883 1.491 . S
C1889 C1888 1.400 . S
C1889 C1890 1.398 . S
C1890 H1878 0.950 . S
C1890 C1889 1.398 . S
C1890 C1891 1.391 . S
C1891 H1879 0.950 . S
C1891 C1887 1.393 . S
C1891 C1890 1.391 . S
H1892 C1900 0.950 . S
H1893 C1905 0.950 . S
H1894 C1902 0.950 . S
H1895 C1904 0.950 . S
H1896 C1906 0.950 . S
H1897 C1908 0.950 . S
H1898 C1910 0.950 . S
H1899 C1911 0.950 . S
C1900 H1892 0.950 . S
C1900 C1901 1.386 . S
C1900 C1902 1.391 . S
C1901 C1900 1.386 . S
C1901 C1905 1.393 . S
C1902 H1894 0.950 . S
C1902 C1900 1.391 . S
C1902 C1903 1.400 . S
C1903 C1902 1.400 . S
C1903 C1904 1.398 . S
C1903 C1909 1.491 . S
C1904 H1895 0.950 . S
C1904 C1903 1.398 . S
C1904 C1905 1.391 . S
C1905 H1893 0.950 . S
C1905 C1901 1.393 . S
C1905 C1904 1.391 . S
C1906 H1896 0.950 . S
C1906 C1907 1.386 . S
C1906 C1908 1.391 . S
C1907 C1906 1.386 . S
C1907 C1911 1.393 . S
C1908 H1897 0.950 . S
C1908 C1906 1.391 . S
C1908 C1909 1.400 . S
C1909 C1903 1.491 . S
C1909 C1908 1.400 . S
C1909 C1910 1.398 . S
C1910 H1898 0.950 . S
C1910 C1909 1.398 . S
C1910 C1911 1.391 . S
C1911 H1899 0.950 . S
C1911 C1907 1.393 . S
C1911 C1910 1.391 . S
H1912 C1920 0.950 . S
H1913 C1925 0.950 . S
H1914 C1922 0.950 . S
H1915 C1924 0.950 . S
H1916 C1926 0.950 . S
H1917 C1928 0.950 . S
H1918 C1930 0.950 . S
H1919 C1931 0.950 . S
C1920 H1912 0.950 . S
C1920 C1921 1.386 . S
C1920 C1922 1.391 . S
C1921 C1920 1.386 . S
C1921 C1925 1.393 . S
C1922 H1914 0.950 . S
C1922 C1920 1.391 . S
C1922 C1923 1.400 . S
C1923 C1922 1.400 . S
C1923 C1924 1.398 . S
C1923 C1929 1.491 . S
C1924 H1915 0.950 . S
C1924 C1923 1.398 . S
C1924 C1925 1.391 . S
C1925 H1913 0.950 . S
C1925 C1921 1.393 . S
C1925 C1924 1.391 . S
C1926 H1916 0.950 . S
C1926 C1927 1.386 . S
C1926 C1928 1.391 . S
C1927 C1926 1.386 . S
C1927 C1931 1.393 . S
C1928 H1917 0.950 . S
C1928 C1926 1.391 . S
C1928 C1929 1.400 . S
C1929 C1923 1.491 . S
C1929 C1928 1.400 . S
C1929 C1930 1.398 . S
C1930 H1918 0.950 . S
C1930 C1929 1.398 . S
C1930 C1931 1.391 . S
C1931 H1919 0.950 . S
C1931 C1927 1.393 . S
C1931 C1930 1.391 . S
H1932 C1940 0.950 . S
H1933 C1945 0.950 . S
H1934 C1942 0.950 . S
H1935 C1944 0.950 . S
H1936 C1946 0.950 . S
H1937 C1948 0.950 . S
H1938 C1950 0.950 . S
H1939 C1951 0.950 . S
C1940 H1932 0.950 . S
C1940 C1941 1.386 . S
C1940 C1942 1.391 . S
C1941 C1940 1.386 . S
C1941 C1945 1.393 . S
C1942 H1934 0.950 . S
C1942 C1940 1.391 . S
C1942 C1943 1.400 . S
C1943 C1942 1.400 . S
C1943 C1944 1.398 . S
C1943 C1949 1.491 . S
C1944 H1935 0.950 . S
C1944 C1943 1.398 . S
C1944 C1945 1.391 . S
C1945 H1933 0.950 . S
C1945 C1941 1.393 . S
C1945 C1944 1.391 . S
C1946 H1936 0.950 . S
C1946 C1947 1.386 . S
C1946 C1948 1.391 . S
C1947 C1946 1.386 . S
C1947 C1951 1.393 . S
C1948 H1937 0.950 . S
C1948 C1946 1.391 . S
C1948 C1949 1.400 . S
C1949 C1943 1.491 . S
C1949 C1948 1.400 . S
C1949 C1950 1.398 . S
C1950 H1938 0.950 . S
C1950 C1949 1.398 . S
C1950 C1951 1.391 . S
C1951 H1939 0.950 . S
C1951 C1947 1.393 . S
C1951 C1950 1.391 . S
H1952 C1960 0.950 . S
H1953 C1965 0.950 . S
H1954 C1962 0.950 . S
H1955 C1964 0.950 . S
H1956 C1966 0.950 . S
H1957 C1968 0.950 . S
H1958 C1970 0.950 . S
H1959 C1971 0.950 . S
C1960 H1952 0.950 . S
C1960 C1961 1.386 . S
C1960 C1962 1.391 . S
C1961 C1960 1.386 . S
C1961 C1965 1.393 . S
C1962 H1954 0.950 . S
C1962 C1960 1.391 . S
C1962 C1963 1.400 . S
C1963 C1962 1.400 . S
C1963 C1964 1.398 . S
C1963 C1969 1.491 . S
C1964 H1955 0.950 . S
C1964 C1963 1.398 . S
C1964 C1965 1.391 . S
C1965 H1953 0.950 . S
C1965 C1961 1.393 . S
C1965 C1964 1.391 . S
C1966 H1956 0.950 . S
C1966 C1967 1.386 . S
C1966 C1968 1.391 . S
C1967 C1966 1.386 . S
C1967 C1971 1.393 . S
C1968 H1957 0.950 . S
C1968 C1966 1.391 . S
C1968 C1969 1.400 . S
C1969 C1963 1.491 . S
C1969 C1968 1.400 . S
C1969 C1970 1.398 . S
C1970 H1958 0.950 . S
C1970 C1969 1.398 . S
C1970 C1971 1.391 . S
C1971 H1959 0.950 . S
C1971 C1967 1.393 . S
C1971 C1970 1.391 . S
H1972 C1980 0.950 . S
H1973 C1985 0.950 . S
H1974 C1982 0.950 . S
H1975 C1984 0.950 . S
H1976 C1986 0.950 . S
H1977 C1988 0.950 . S
H1978 C1990 0.950 . S
H1979 C1991 0.950 . S
C1980 H1972 0.950 . S
C1980 C1981 1.386 . S
C1980 C1982 1.391 . S
C1981 C1980 1.386 . S
C1981 C1985 1.393 . S
C1982 H1974 0.950 . S
C1982 C1980 1.391 . S
C1982 C1983 1.400 . S
C1983 C1982 1.400 . S
C1983 C1984 1.398 . S
C1983 C1989 1.491 . S
C1984 H1975 0.950 . S
C1984 C1983 1.398 . S
C1984 C1985 1.391 . S
C1985 H1973 0.950 . S
C1985 C1981 1.393 . S
C1985 C1984 1.391 . S
C1986 H1976 0.950 . S
C1986 C1987 1.386 . S
C1986 C1988 1.391 . S
C1987 C1986 1.386 . S
C1987 C1991 1.393 . S
C1988 H1977 0.950 . S
C1988 C1986 1.391 . S
C1988 C1989 1.400 . S
C1989 C1983 1.491 . S
C1989 C1988 1.400 . S
C1989 C1990 1.398 . S
C1990 H1978 0.950 . S
C1990 C1989 1.398 . S
C1990 C1991 1.391 . S
C1991 H1979 0.950 . S
C1991 C1987 1.393 . S
C1991 C1990 1.391 . S
H1992 C2000 0.950 . S
H1993 C2005 0.950 . S
H1994 C2002 0.950 . S
H1995 C2004 0.950 . S
H1996 C2006 0.950 . S
H1997 C2008 0.950 . S
H1998 C2010 0.950 . S
H1999 C2011 0.950 . S
C2000 H1992 0.950 . S
C2000 C2001 1.386 . S
C2000 C2002 1.391 . S
C2001 C2000 1.386 . S
C2001 C2005 1.393 . S
C2002 H1994 0.950 . S
C2002 C2000 1.391 . S
C2002 C2003 1.400 . S
C2003 C2002 1.400 . S
C2003 C2004 1.398 . S
C2003 C2009 1.491 . S
C2004 H1995 0.950 . S
C2004 C2003 1.398 . S
C2004 C2005 1.391 . S
C2005 H1993 0.950 . S
C2005 C2001 1.393 . S
C2005 C2004 1.391 . S
C2006 H1996 0.950 . S
C2006 C2007 1.386 . S
C2006 C2008 1.391 . S
C2007 C2006 1.386 . S
C2007 C2011 1.393 . S
C2008 H1997 0.950 . S
C2008 C2006 1.391 . S
C2008 C2009 1.400 . S
C2009 C2003 1.491 . S
C2009 C2008 1.400 . S
C2009 C2010 1.398 . S
C2010 H1998 0.950 . S
C2010 C2009 1.398 . S
C2010 C2011 1.391 . S
C2011 H1999 0.950 . S
C2011 C2007 1.393 . S
C2011 C2010 1.391 . S
H2012 C2020 0.950 . S
H2013 C2025 0.950 . S
H2014 C2022 0.950 . S
H2015 C2024 0.950 . S
H2016 C2026 0.950 . S
H2017 C2028 0.950 . S
H2018 C2030 0.950 . S
H2019 C2031 0.950 . S
C2020 H2012 0.950 . S
C2020 C2021 1.386 . S
C2020 C2022 1.391 . S
C2021 C2020 1.386 . S
C2021 C2025 1.393 . S
C2022 H2014 0.950 . S
C2022 C2020 1.391 . S
C2022 C2023 1.400 . S
C2023 C2022 1.400 . S
C2023 C2024 1.398 . S
C2023 C2029 1.491 . S
C2024 H2015 0.950 . S
C2024 C2023 1.398 . S
C2024 C2025 1.391 . S
C2025 H2013 0.950 . S
C2025 C2021 1.393 . S
C2025 C2024 1.391 . S
C2026 H2016 0.950 . S
C2026 C2027 1.386 . S
C2026 C2028 1.391 . S
C2027 C2026 1.386 . S
C2027 C2031 1.393 . S
C2028 H2017 0.950 . S
C2028 C2026 1.391 . S
C2028 C2029 1.400 . S
C2029 C2023 1.491 . S
C2029 C2028 1.400 . S
C2029 C2030 1.398 . S
C2030 H2018 0.950 . S
C2030 C2029 1.398 . S
C2030 C2031 1.391 . S
C2031 H2019 0.950 . S
C2031 C2027 1.393 . S
C2031 C2030 1.391 . S
H2032 C2040 0.950 . S
H2033 C2045 0.950 . S
H2034 C2042 0.950 . S
H2035 C2044 0.950 . S
H2036 C2046 0.950 . S
H2037 C2048 0.950 . S
H2038 C2050 0.950 . S
H2039 C2051 0.950 . S
C2040 H2032 0.950 . S
C2040 C2041 1.386 . S
C2040 C2042 1.391 . S
C2041 C2040 1.386 . S
C2041 C2045 1.393 . S
C2042 H2034 0.950 . S
C2042 C2040 1.391 . S
C2042 C2043 1.400 . S
C2043 C2042 1.400 . S
C2043 C2044 1.398 . S
C2043 C2049 1.491 . S
C2044 H2035 0.950 . S
C2044 C2043 1.398 . S
C2044 C2045 1.391 . S
C2045 H2033 0.950 . S
C2045 C2041 1.393 . S
C2045 C2044 1.391 . S
C2046 H2036 0.950 . S
C2046 C2047 1.386 . S
C2046 C2048 1.391 . S
C2047 C2046 1.386 . S
C2047 C2051 1.393 . S
C2048 H2037 0.950 . S
C2048 C2046 1.391 . S
C2048 C2049 1.400 . S
C2049 C2043 1.491 . S
C2049 C2048 1.400 . S
C2049 C2050 1.398 . S
C2050 H2038 0.950 . S
C2050 C2049 1.398 . S
C2050 C2051 1.391 . S
C2051 H2039 0.950 . S
C2051 C2047 1.393 . S
C2051 C2050 1.391 . S
H2052 C2060 0.950 . S
H2053 C2065 0.950 . S
H2054 C2062 0.950 . S
H2055 C2064 0.950 . S
H2056 C2066 0.950 . S
H2057 C2068 0.950 . S
H2058 C2070 0.950 . S
H2059 C2071 0.950 . S
C2060 H2052 0.950 . S
C2060 C2061 1.386 . S
C2060 C2062 1.391 . S
C2061 C2060 1.386 . S
C2061 C2065 1.393 . S
C2062 H2054 0.950 . S
C2062 C2060 1.391 . S
C2062 C2063 1.400 . S
C2063 C2062 1.400 . S
C2063 C2064 1.398 . S
C2063 C2069 1.491 . S
C2064 H2055 0.950 . S
C2064 C2063 1.398 . S
C2064 C2065 1.391 . S
C2065 H2053 0.950 . S
C2065 C2061 1.393 . S
C2065 C2064 1.391 . S
C2066 H2056 0.950 . S
C2066 C2067 1.386 . S
C2066 C2068 1.391 . S
C2067 C2066 1.386 . S
C2067 C2071 1.393 . S
C2068 H2057 0.950 . S
C2068 C2066 1.391 . S
C2068 C2069 1.400 . S
C2069 C2063 1.491 . S
C2069 C2068 1.400 . S
C2069 C2070 1.398 . S
C2070 H2058 0.950 . S
C2070 C2069 1.398 . S
C2070 C2071 1.391 . S
C2071 H2059 0.950 . S
C2071 C2067 1.393 . S
C2071 C2070 1.391 . S
H2072 C2080 0.950 . S
H2073 C2085 0.950 . S
H2074 C2082 0.950 . S
H2075 C2084 0.950 . S
H2076 C2086 0.950 . S
H2077 C2088 0.950 . S
H2078 C2090 0.950 . S
H2079 C2091 0.950 . S
C2080 H2072 0.950 . S
C2080 C2081 1.386 . S
C2080 C2082 1.391 . S
C2081 C2080 1.386 . S
C2081 C2085 1.393 . S
C2082 H2074 0.950 . S
C2082 C2080 1.391 . S
C2082 C2083 1.400 . S
C2083 C2082 1.400 . S
C2083 C2084 1.398 . S
C2083 C2089 1.491 . S
C2084 H2075 0.950 . S
C2084 C2083 1.398 . S
C2084 C2085 1.391 . S
C2085 H2073 0.950 . S
C2085 C2081 1.393 . S
C2085 C2084 1.391 . S
C2086 H2076 0.950 . S
C2086 C2087 1.386 . S
C2086 C2088 1.391 . S
C2087 C2086 1.386 . S
C2087 C2091 1.393 . S
C2088 H2077 0.950 . S
C2088 C2086 1.391 . S
C2088 C2089 1.400 . S
C2089 C2083 1.491 . S
C2089 C2088 1.400 . S
C2089 C2090 1.398 . S
C2090 H2078 0.950 . S
C2090 C2089 1.398 . S
C2090 C2091 1.391 . S
C2091 H2079 0.950 . S
C2091 C2087 1.393 . S
C2091 C2090 1.391 . S
H2092 C2100 0.950 . S
H2093 C2105 0.950 . S
H2094 C2102 0.950 . S
H2095 C2104 0.950 . S
H2096 C2106 0.950 . S
H2097 C2108 0.950 . S
H2098 C2110 0.950 . S
H2099 C2111 0.950 . S
C2100 H2092 0.950 . S
C2100 C2101 1.386 . S
C2100 C2102 1.391 . S
C2101 C2100 1.386 . S
C2101 C2105 1.393 . S
C2102 H2094 0.950 . S
C2102 C2100 1.391 . S
C2102 C2103 1.400 . S
C2103 C2102 1.400 . S
C2103 C2104 1.398 . S
C2103 C2109 1.491 . S
C2104 H2095 0.950 . S
C2104 C2103 1.398 . S
C2104 C2105 1.391 . S
C2105 H2093 0.950 . S
C2105 C2101 1.393 . S
C2105 C2104 1.391 . S
C2106 H2096 0.950 . S
C2106 C2107 1.386 . S
C2106 C2108 1.391 . S
C2107 C2106 1.386 . S
C2107 C2111 1.393 . S
C2108 H2097 0.950 . S
C2108 C2106 1.391 . S
C2108 C2109 1.400 . S
C2109 C2103 1.491 . S
C2109 C2108 1.400 . S
C2109 C2110 1.398 . S
C2110 H2098 0.950 . S
C2110 C2109 1.398 . S
C2110 C2111 1.391 . S
C2111 H2099 0.950 . S
C2111 C2107 1.393 . S
C2111 C2110 1.391 . S
H2112 C2120 0.950 . S
H2113 C2125 0.950 . S
H2114 C2122 0.950 . S
H2115 C2124 0.950 . S
H2116 C2126 0.950 . S
H2117 C2128 0.950 . S
H2118 C2130 0.950 . S
H2119 C2131 0.950 . S
C2120 H2112 0.950 . S
C2120 C2121 1.386 . S
C2120 C2122 1.391 . S
C2121 C2120 1.386 . S
C2121 C2125 1.393 . S
C2122 H2114 0.950 . S
C2122 C2120 1.391 . S
C2122 C2123 1.400 . S
C2123 C2122 1.400 . S
C2123 C2124 1.398 . S
C2123 C2129 1.491 . S
C2124 H2115 0.950 . S
C2124 C2123 1.398 . S
C2124 C2125 1.391 . S
C2125 H2113 0.950 . S
C2125 C2121 1.393 . S
C2125 C2124 1.391 . S
C2126 H2116 0.950 . S
C2126 C2127 1.386 . S
C2126 C2128 1.391 . S
C2127 C2126 1.386 . S
C2127 C2131 1.393 . S
C2128 H2117 0.950 . S
C2128 C2126 1.391 . S
C2128 C2129 1.400 . S
C2129 C2123 1.491 . S
C2129 C2128 1.400 . S
C2129 C2130 1.398 . S
C2130 H2118 0.950 . S
C2130 C2129 1.398 . S
C2130 C2131 1.391 . S
C2131 H2119 0.950 . S
C2131 C2127 1.393 . S
C2131 C2130 1.391 . S
H2132 C2140 0.950 . S
H2133 C2145 0.950 . S
H2134 C2142 0.950 . S
H2135 C2144 0.950 . S
H2136 C2146 0.950 . S
H2137 C2148 0.950 . S
H2138 C2150 0.950 . S
H2139 C2151 0.950 . S
C2140 H2132 0.950 . S
C2140 C2141 1.386 . S
C2140 C2142 1.391 . S
C2141 C2140 1.386 . S
C2141 C2145 1.393 . S
C2142 H2134 0.950 . S
C2142 C2140 1.391 . S
C2142 C2143 1.400 . S
C2143 C2142 1.400 . S
C2143 C2144 1.398 . S
C2143 C2149 1.491 . S
C2144 H2135 0.950 . S
C2144 C2143 1.398 . S
C2144 C2145 1.391 . S
C2145 H2133 0.950 . S
C2145 C2141 1.393 . S
C2145 C2144 1.391 . S
C2146 H2136 0.950 . S
C2146 C2147 1.386 . S
C2146 C2148 1.391 . S
C2147 C2146 1.386 . S
C2147 C2151 1.393 . S
C2148 H2137 0.950 . S
C2148 C2146 1.391 . S
C2148 C2149 1.400 . S
C2149 C2143 1.491 . S
C2149 C2148 1.400 . S
C2149 C2150 1.398 . S
C2150 H2138 0.950 . S
C2150 C2149 1.398 . S
C2150 C2151 1.391 . S
C2151 H2139 0.950 . S
C2151 C2147 1.393 . S
C2151 C2150 1.391 . S
H2152 C2160 0.950 . S
H2153 C2165 0.950 . S
H2154 C2162 0.950 . S
H2155 C2164 0.950 . S
H2156 C2166 0.950 . S
H2157 C2168 0.950 . S
H2158 C2170 0.950 . S
H2159 C2171 0.950 . S
C2160 H2152 0.950 . S
C2160 C2161 1.386 . S
C2160 C2162 1.391 . S
C2161 C2160 1.386 . S
C2161 C2165 1.393 . S
C2162 H2154 0.950 . S
C2162 C2160 1.391 . S
C2162 C2163 1.400 . S
C2163 C2162 1.400 . S
C2163 C2164 1.398 . S
C2163 C2169 1.491 . S
C2164 H2155 0.950 . S
C2164 C2163 1.398 . S
C2164 C2165 1.391 . S
C2165 H2153 0.950 . S
C2165 C2161 1.393 . S
C2165 C2164 1.391 . S
C2166 H2156 0.950 . S
C2166 C2167 1.386 . S
C2166 C2168 1.391 . S
C2167 C2166 1.386 . S
C2167 C2171 1.393 . S
C2168 H2157 0.950 . S
C2168 C2166 1.391 . S
C2168 C2169 1.400 . S
C2169 C2163 1.491 . S
C2169 C2168 1.400 . S
C2169 C2170 1.398 . S
C2170 H2158 0.950 . S
C2170 C2169 1.398 . S
C2170 C2171 1.391 . S
C2171 H2159 0.950 . S
C2171 C2167 1.393 . S
C2171 C2170 1.391 . S
H2172 C2180 0.950 . S
H2173 C2185 0.950 . S
H2174 C2182 0.950 . S
H2175 C2184 0.950 . S
H2176 C2186 0.950 . S
H2177 C2188 0.950 . S
H2178 C2190 0.950 . S
H2179 C2191 0.950 . S
C2180 H2172 0.950 . S
C2180 C2181 1.386 . S
C2180 C2182 1.391 . S
C2181 C2180 1.386 . S
C2181 C2185 1.393 . S
C2182 H2174 0.950 . S
C2182 C2180 1.391 . S
C2182 C2183 1.400 . S
C2183 C2182 1.400 . S
C2183 C2184 1.398 . S
C2183 C2189 1.491 . S
C2184 H2175 0.950 . S
C2184 C2183 1.398 . S
C2184 C2185 1.391 . S
C2185 H2173 0.950 . S
C2185 C2181 1.393 . S
C2185 C2184 1.391 . S
C2186 H2176 0.950 . S
C2186 C2187 1.386 . S
C2186 C2188 1.391 . S
C2187 C2186 1.386 . S
C2187 C2191 1.393 . S
C2188 H2177 0.950 . S
C2188 C2186 1.391 . S
C2188 C2189 1.400 . S
C2189 C2183 1.491 . S
C2189 C2188 1.400 . S
C2189 C2190 1.398 . S
C2190 H2178 0.950 . S
C2190 C2189 1.398 . S
C2190 C2191 1.391 . S
C2191 H2179 0.950 . S
C2191 C2187 1.393 . S
C2191 C2190 1.391 . S
H2192 C2200 0.950 . S
H2193 C2205 0.950 . S
H2194 C2202 0.950 . S
H2195 C2204 0.950 . S
H2196 C2206 0.950 . S
H2197 C2208 0.950 . S
H2198 C2210 0.950 . S
H2199 C2211 0.950 . S
C2200 H2192 0.950 . S
C2200 C2201 1.386 . S
C2200 C2202 1.391 . S
C2201 C2200 1.386 . S
C2201 C2205 1.393 . S
C2202 H2194 0.950 . S
C2202 C2200 1.391 . S
C2202 C2203 1.400 . S
C2203 C2202 1.400 . S
C2203 C2204 1.398 . S
C2203 C2209 1.491 . S
C2204 H2195 0.950 . S
C2204 C2203 1.398 . S
C2204 C2205 1.391 . S
C2205 H2193 0.950 . S
C2205 C2201 1.393 . S
C2205 C2204 1.391 . S
C2206 H2196 0.950 . S
C2206 C2207 1.386 . S
C2206 C2208 1.391 . S
C2207 C2206 1.386 . S
C2207 C2211 1.393 . S
C2208 H2197 0.950 . S
C2208 C2206 1.391 . S
C2208 C2209 1.400 . S
C2209 C2203 1.491 . S
C2209 C2208 1.400 . S
C2209 C2210 1.398 . S
C2210 H2198 0.950 . S
C2210 C2209 1.398 . S
C2210 C2211 1.391 . S
C2211 H2199 0.950 . S
C2211 C2207 1.393 . S
C2211 C2210 1.391 . S
H2212 C2220 0.950 . S
H2213 C2225 0.950 . S
H2214 C2222 0.950 . S
H2215 C2224 0.950 . S
H2216 C2226 0.950 . S
H2217 C2228 0.950 . S
H2218 C2230 0.950 . S
H2219 C2231 0.950 . S
C2220 H2212 0.950 . S
C2220 C2221 1.386 . S
C2220 C2222 1.391 . S
C2221 C2220 1.386 . S
C2221 C2225 1.393 . S
C2222 H2214 0.950 . S
C2222 C2220 1.391 . S
C2222 C2223 1.400 . S
C2223 C2222 1.400 . S
C2223 C2224 1.398 . S
C2223 C2229 1.491 . S
C2224 H2215 0.950 . S
C2224 C2223 1.398 . S
C2224 C2225 1.391 . S
C2225 H2213 0.950 . S
C2225 C2221 1.393 . S
C2225 C2224 1.391 . S
C2226 H2216 0.950 . S
C2226 C2227 1.386 . S
C2226 C2228 1.391 . S
C2227 C2226 1.386 . S
C2227 C2231 1.393 . S
C2228 H2217 0.950 . S
C2228 C2226 1.391 . S
C2228 C2229 1.400 . S
C2229 C2223 1.491 . S
C2229 C2228 1.400 . S
C2229 C2230 1.398 . S
C2230 H2218 0.950 . S
C2230 C2229 1.398 . S
C2230 C2231 1.391 . S
C2231 H2219 0.950 . S
C2231 C2227 1.393 . S
C2231 C2230 1.391 . S
H2232 C2240 0.950 . S
H2233 C2245 0.950 . S
H2234 C2242 0.950 . S
H2235 C2244 0.950 . S
H2236 C2246 0.950 . S
H2237 C2248 0.950 . S
H2238 C2250 0.950 . S
H2239 C2251 0.950 . S
C2240 H2232 0.950 . S
C2240 C2241 1.386 . S
C2240 C2242 1.391 . S
C2241 C2240 1.386 . S
C2241 C2245 1.393 . S
C2242 H2234 0.950 . S
C2242 C2240 1.391 . S
C2242 C2243 1.400 . S
C2243 C2242 1.400 . S
C2243 C2244 1.398 . S
C2243 C2249 1.491 . S
C2244 H2235 0.950 . S
C2244 C2243 1.398 . S
C2244 C2245 1.391 . S
C2245 H2233 0.950 . S
C2245 C2241 1.393 . S
C2245 C2244 1.391 . S
C2246 H2236 0.950 . S
C2246 C2247 1.386 . S
C2246 C2248 1.391 . S
C2247 C2246 1.386 . S
C2247 C2251 1.393 . S
C2248 H2237 0.950 . S
C2248 C2246 1.391 . S
C2248 C2249 1.400 . S
C2249 C2243 1.491 . S
C2249 C2248 1.400 . S
C2249 C2250 1.398 . S
C2250 H2238 0.950 . S
C2250 C2249 1.398 . S
C2250 C2251 1.391 . S
C2251 H2239 0.950 . S
C2251 C2247 1.393 . S
C2251 C2250 1.391 . S
H2252 C2260 0.950 . S
H2253 C2265 0.950 . S
H2254 C2262 0.950 . S
H2255 C2264 0.950 . S
H2256 C2266 0.950 . S
H2257 C2268 0.950 . S
H2258 C2270 0.950 . S
H2259 C2271 0.950 . S
C2260 H2252 0.950 . S
C2260 C2261 1.386 . S
C2260 C2262 1.391 . S
C2261 C2260 1.386 . S
C2261 C2265 1.393 . S
C2262 H2254 0.950 . S
C2262 C2260 1.391 . S
C2262 C2263 1.400 . S
C2263 C2262 1.400 . S
C2263 C2264 1.398 . S
C2263 C2269 1.491 . S
C2264 H2255 0.950 . S
C2264 C2263 1.398 . S
C2264 C2265 1.391 . S
C2265 H2253 0.950 . S
C2265 C2261 1.393 . S
C2265 C2264 1.391 . S
C2266 H2256 0.950 . S
C2266 C2267 1.386 . S
C2266 C2268 1.391 . S
C2267 C2266 1.386 . S
C2267 C2271 1.393 . S
C2268 H2257 0.950 . S
C2268 C2266 1.391 . S
C2268 C2269 1.400 . S
C2269 C2263 1.491 . S
C2269 C2268 1.400 . S
C2269 C2270 1.398 . S
C2270 H2258 0.950 . S
C2270 C2269 1.398 . S
C2270 C2271 1.391 . S
C2271 H2259 0.950 . S
C2271 C2267 1.393 . S
C2271 C2270 1.391 . S
H2272 C2280 0.950 . S
H2273 C2285 0.950 . S
H2274 C2282 0.950 . S
H2275 C2284 0.950 . S
H2276 C2286 0.950 . S
H2277 C2288 0.950 . S
H2278 C2290 0.950 . S
H2279 C2291 0.950 . S
C2280 H2272 0.950 . S
C2280 C2281 1.386 . S
C2280 C2282 1.391 . S
C2281 C2280 1.386 . S
C2281 C2285 1.393 . S
C2282 H2274 0.950 . S
C2282 C2280 1.391 . S
C2282 C2283 1.400 . S
C2283 C2282 1.400 . S
C2283 C2284 1.398 . S
C2283 C2289 1.491 . S
C2284 H2275 0.950 . S
C2284 C2283 1.398 . S
C2284 C2285 1.391 . S
C2285 H2273 0.950 . S
C2285 C2281 1.393 . S
C2285 C2284 1.391 . S
C2286 H2276 0.950 . S
C2286 C2287 1.386 . S
C2286 C2288 1.391 . S
C2287 C2286 1.386 . S
C2287 C2291 1.393 . S
C2288 H2277 0.950 . S
C2288 C2286 1.391 . S
C2288 C2289 1.400 . S
C2289 C2283 1.491 . S
C2289 C2288 1.400 . S
C2289 C2290 1.398 . S
C2290 H2278 0.950 . S
C2290 C2289 1.398 . S
C2290 C2291 1.391 . S
C2291 H2279 0.950 . S
C2291 C2287 1.393 . S
C2291 C2290 1.391 . S
H2292 C2300 0.950 . S
H2293 C2305 0.950 . S
H2294 C2302 0.950 . S
H2295 C2304 0.950 . S
H2296 C2306 0.950 . S
H2297 C2308 0.950 . S
H2298 C2310 0.950 . S
H2299 C2311 0.950 . S
C2300 H2292 0.950 . S
C2300 C2301 1.386 . S
C2300 C2302 1.391 . S
C2301 C2300 1.386 . S
C2301 C2305 1.393 . S
C2302 H2294 0.950 . S
C2302 C2300 1.391 . S
C2302 C2303 1.400 . S
C2303 C2302 1.400 . S
C2303 C2304 1.398 . S
C2303 C2309 1.491 . S
C2304 H2295 0.950 . S
C2304 C2303 1.398 . S
C2304 C2305 1.391 . S
C2305 H2293 0.950 . S
C2305 C2301 1.393 . S
C2305 C2304 1.391 . S
C2306 H2296 0.950 . S
C2306 C2307 1.386 . S
C2306 C2308 1.391 . S
C2307 C2306 1.386 . S
C2307 C2311 1.393 . S
C2308 H2297 0.950 . S
C2308 C2306 1.391 . S
C2308 C2309 1.400 . S
C2309 C2303 1.491 . S
C2309 C2308 1.400 . S
C2309 C2310 1.398 . S
C2310 H2298 0.950 . S
C2310 C2309 1.398 . S
C2310 C2311 1.391 . S
C2311 H2299 0.950 . S
C2311 C2307 1.393 . S
C2311 C2310 1.391 . S
H2312 C2320 0.950 . S
H2313 C2325 0.950 . S
H2314 C2322 0.950 . S
H2315 C2324 0.950 . S
H2316 C2326 0.950 . S
H2317 C2328 0.950 . S
H2318 C2330 0.950 . S
H2319 C2331 0.950 . S
C2320 H2312 0.950 . S
C2320 C2321 1.386 . S
C2320 C2322 1.391 . S
C2321 C2320 1.386 . S
C2321 C2325 1.393 . S
C2322 H2314 0.950 . S
C2322 C2320 1.391 . S
C2322 C2323 1.400 . S
C2323 C2322 1.400 . S
C2323 C2324 1.398 . S
C2323 C2329 1.491 . S
C2324 H2315 0.950 . S
C2324 C2323 1.398 . S
C2324 C2325 1.391 . S
C2325 H2313 0.950 . S
C2325 C2321 1.393 . S
C2325 C2324 1.391 . S
C2326 H2316 0.950 . S
C2326 C2327 1.386 . S
C2326 C2328 1.391 . S
C2327 C2326 1.386 . S
C2327 C2331 1.393 . S
C2328 H2317 0.950 . S
C2328 C2326 1.391 . S
C2328 C2329 1.400 . S
C2329 C2323 1.491 . S
C2329 C2328 1.400 . S
C2329 C2330 1.398 . S
C2330 H2318 0.950 . S
C2330 C2329 1.398 . S
C2330 C2331 1.391 . S
C2331 H2319 0.950 . S
C2331 C2327 1.393 . S
C2331 C2330 1.391 . S
H2332 C2340 0.950 . S
H2333 C2345 0.950 . S
H2334 C2342 0.950 . S
H2335 C2344 0.950 . S
H2336 C2346 0.950 . S
H2337 C2348 0.950 . S
H2338 C2350 0.950 . S
H2339 C2351 0.950 . S
C2340 H2332 0.950 . S
C2340 C2341 1.386 . S
C2340 C2342 1.391 . S
C2341 C2340 1.386 . S
C2341 C2345 1.393 . S
C2342 H2334 0.950 . S
C2342 C2340 1.391 . S
C2342 C2343 1.400 . S
C2343 C2342 1.400 . S
C2343 C2344 1.398 . S
C2343 C2349 1.491 . S
C2344 H2335 0.950 . S
C2344 C2343 1.398 . S
C2344 C2345 1.391 . S
C2345 H2333 0.950 . S
C2345 C2341 1.393 . S
C2345 C2344 1.391 . S
C2346 H2336 0.950 . S
C2346 C2347 1.386 . S
C2346 C2348 1.391 . S
C2347 C2346 1.386 . S
C2347 C2351 1.393 . S
C2348 H2337 0.950 . S
C2348 C2346 1.391 . S
C2348 C2349 1.400 . S
C2349 C2343 1.491 . S
C2349 C2348 1.400 . S
C2349 C2350 1.398 . S
C2350 H2338 0.950 . S
C2350 C2349 1.398 . S
C2350 C2351 1.391 . S
C2351 H2339 0.950 . S
C2351 C2347 1.393 . S
C2351 C2350 1.391 . S
H2352 C2360 0.950 . S
H2353 C2365 0.950 . S
H2354 C2362 0.950 . S
H2355 C2364 0.950 . S
H2356 C2366 0.950 . S
H2357 C2368 0.950 . S
H2358 C2370 0.950 . S
H2359 C2371 0.950 . S
C2360 H2352 0.950 . S
C2360 C2361 1.386 . S
C2360 C2362 1.391 . S
C2361 C2360 1.386 . S
C2361 C2365 1.393 . S
C2362 H2354 0.950 . S
C2362 C2360 1.391 . S
C2362 C2363 1.400 . S
C2363 C2362 1.400 . S
C2363 C2364 1.398 . S
C2363 C2369 1.491 . S
C2364 H2355 0.950 . S
C2364 C2363 1.398 . S
C2364 C2365 1.391 . S
C2365 H2353 0.950 . S
C2365 C2361 1.393 . S
C2365 C2364 1.391 . S
C2366 H2356 0.950 . S
C2366 C2367 1.386 . S
C2366 C2368 1.391 . S
C2367 C2366 1.386 . S
C2367 C2371 1.393 . S
C2368 H2357 0.950 . S
C2368 C2366 1.391 . S
C2368 C2369 1.400 . S
C2369 C2363 1.491 . S
C2369 C2368 1.400 . S
C2369 C2370 1.398 . S
C2370 H2358 0.950 . S
C2370 C2369 1.398 . S
C2370 C2371 1.391 . S
C2371 H2359 0.950 . S
C2371 C2367 1.393 . S
C2371 C2370 1.391 . S
H2372 C2380 0.950 . S
H2373 C2385 0.950 . S
H2374 C2382 0.950 . S
H2375 C2384 0.950 . S
H2376 C2386 0.950 . S
H2377 C2388 0.950 . S
H2378 C2390 0.950 . S
H2379 C2391 0.950 . S
C2380 H2372 0.950 . S
C2380 C2381 1.386 . S
C2380 C2382 1.391 . S
C2381 C2380 1.386 . S
C2381 C2385 1.393 . S
C2382 H2374 0.950 . S
C2382 C2380 1.391 . S
C2382 C2383 1.400 . S
C2383 C2382 1.400 . S
C2383 C2384 1.398 . S
C2383 C2389 1.491 . S
C2384 H2375 0.950 . S
C2384 C2383 1.398 . S
C2384 C2385 1.391 . S
C2385 H2373 0.950 . S
C2385 C2381 1.393 . S
C2385 C2384 1.391 . S
C2386 H2376 0.950 . S
C2386 C2387 1.386 . S
C2386 C2388 1.391 . S
C2387 C2386 1.386 . S
C2387 C2391 1.393 . S
C2388 H2377 0.950 . S
C2388 C2386 1.391 . S
C2388 C2389 1.400 . S
C2389 C2383 1.491 . S
C2389 C2388 1.400 . S
C2389 C2390 1.398 . S
C2390 H2378 0.950 . S
C2390 C2389 1.398 . S
C2390 C2391 1.391 . S
C2391 H2379 0.950 . S
C2391 C2387 1.393 . S
C2391 C2390 1.391 . S
H2392 C2400 0.950 . S
H2393 C2405 0.950 . S
H2394 C2402 0.950 . S
H2395 C2404 0.950 . S
H2396 C2406 0.950 . S
H2397 C2408 0.950 . S
H2398 C2410 0.950 . S
H2399 C2411 0.950 . S
C2400 H2392 0.950 . S
C2400 C2401 1.386 . S
C2400 C2402 1.391 . S
C2401 C2400 1.386 . S
C2401 C2405 1.393 . S
C2402 H2394 0.950 . S
C2402 C2400 1.391 . S
C2402 C2403 1.400 . S
C2403 C2402 1.400 . S
C2403 C2404 1.398 . S
C2403 C2409 1.491 . S
C2404 H2395 0.950 . S
C2404 C2403 1.398 . S
C2404 C2405 1.391 . S
C2405 H2393 0.950 . S
C2405 C2401 1.393 . S
C2405 C2404 1.391 . S
C2406 H2396 0.950 . S
C2406 C2407 1.386 . S
C2406 C2408 1.391 . S
C2407 C2406 1.386 . S
C2407 C2411 1.393 . S
C2408 H2397 0.950 . S
C2408 C2406 1.391 . S
C2408 C2409 1.400 . S
C2409 C2403 1.491 . S
C2409 C2408 1.400 . S
C2409 C2410 1.398 . S
C2410 H2398 0.950 . S
C2410 C2409 1.398 . S
C2410 C2411 1.391 . S
C2411 H2399 0.950 . S
C2411 C2407 1.393 . S
C2411 C2410 1.391 . S
H2412 C2420 0.950 . S
H2413 C2425 0.950 . S
H2414 C2422 0.950 . S
H2415 C2424 0.950 . S
H2416 C2426 0.950 . S
H2417 C2428 0.950 . S
H2418 C2430 0.950 . S
H2419 C2431 0.950 . S
C2420 H2412 0.950 . S
C2420 C2421 1.386 . S
C2420 C2422 1.391 . S
C2421 C2420 1.386 . S
C2421 C2425 1.393 . S
C2422 H2414 0.950 . S
C2422 C2420 1.391 . S
C2422 C2423 1.400 . S
C2423 C2422 1.400 . S
C2423 C2424 1.398 . S
C2423 C2429 1.491 . S
C2424 H2415 0.950 . S
C2424 C2423 1.398 . S
C2424 C2425 1.391 . S
C2425 H2413 0.950 . S
C2425 C2421 1.393 . S
C2425 C2424 1.391 . S
C2426 H2416 0.950 . S
C2426 C2427 1.386 . S
C2426 C2428 1.391 . S
C2427 C2426 1.386 . S
C2427 C2431 1.393 . S
C2428 H2417 0.950 . S
C2428 C2426 1.391 . S
C2428 C2429 1.400 . S
C2429 C2423 1.491 . S
C2429 C2428 1.400 . S
C2429 C2430 1.398 . S
C2430 H2418 0.950 . S
C2430 C2429 1.398 . S
C2430 C2431 1.391 . S
C2431 H2419 0.950 . S
C2431 C2427 1.393 . S
C2431 C2430 1.391 . S
H2432 C2440 0.950 . S
H2433 C2445 0.950 . S
H2434 C2442 0.950 . S
H2435 C2444 0.950 . S
H2436 C2446 0.950 . S
H2437 C2448 0.950 . S
H2438 C2450 0.950 . S
H2439 C2451 0.950 . S
C2440 H2432 0.950 . S
C2440 C2441 1.386 . S
C2440 C2442 1.391 . S
C2441 C2440 1.386 . S
C2441 C2445 1.393 . S
C2442 H2434 0.950 . S
C2442 C2440 1.391 . S
C2442 C2443 1.400 . S
C2443 C2442 1.400 . S
C2443 C2444 1.398 . S
C2443 C2449 1.491 . S
C2444 H2435 0.950 . S
C2444 C2443 1.398 . S
C2444 C2445 1.391 . S
C2445 H2433 0.950 . S
C2445 C2441 1.393 . S
C2445 C2444 1.391 . S
C2446 H2436 0.950 . S
C2446 C2447 1.386 . S
C2446 C2448 1.391 . S
C2447 C2446 1.386 . S
C2447 C2451 1.393 . S
C2448 H2437 0.950 . S
C2448 C2446 1.391 . S
C2448 C2449 1.400 . S
C2449 C2443 1.491 . S
C2449 C2448 1.400 . S
C2449 C2450 1.398 . S
C2450 H2438 0.950 . S
C2450 C2449 1.398 . S
C2450 C2451 1.391 . S
C2451 H2439 0.950 . S
C2451 C2447 1.393 . S
C2451 C2450 1.391 . S
H2452 C2460 0.950 . S
H2453 C2465 0.950 . S
H2454 C2462 0.950 . S
H2455 C2464 0.950 . S
H2456 C2466 0.950 . S
H2457 C2468 0.950 . S
H2458 C2470 0.950 . S
H2459 C2471 0.950 . S
C2460 H2452 0.950 . S
C2460 C2461 1.386 . S
C2460 C2462 1.391 . S
C2461 C2460 1.386 . S
C2461 C2465 1.393 . S
C2462 H2454 0.950 . S
C2462 C2460 1.391 . S
C2462 C2463 1.400 . S
C2463 C2462 1.400 . S
C2463 C2464 1.398 . S
C2463 C2469 1.491 . S
C2464 H2455 0.950 . S
C2464 C2463 1.398 . S
C2464 C2465 1.391 . S
C2465 H2453 0.950 . S
C2465 C2461 1.393 . S
C2465 C2464 1.391 . S
C2466 H2456 0.950 . S
C2466 C2467 1.386 . S
C2466 C2468 1.391 . S
C2467 C2466 1.386 . S
C2467 C2471 1.393 . S
C2468 H2457 0.950 . S
C2468 C2466 1.391 . S
C2468 C2469 1.400 . S
C2469 C2463 1.491 . S
C2469 C2468 1.400 . S
C2469 C2470 1.398 . S
C2470 H2458 0.950 . S
C2470 C2469 1.398 . S
C2470 C2471 1.391 . S
C2471 H2459 0.950 . S
C2471 C2467 1.393 . S
C2471 C2470 1.391 . S
H2472 C2480 0.950 . S
H2473 C2485 0.950 . S
H2474 C2482 0.950 . S
H2475 C2484 0.950 . S
H2476 C2486 0.950 . S
H2477 C2488 0.950 . S
H2478 C2490 0.950 . S
H2479 C2491 0.950 . S
C2480 H2472 0.950 . S
C2480 C2481 1.386 . S
C2480 C2482 1.391 . S
C2481 C2480 1.386 . S
C2481 C2485 1.393 . S
C2482 H2474 0.950 . S
C2482 C2480 1.391 . S
C2482 C2483 1.400 . S
C2483 C2482 1.400 . S
C2483 C2484 1.398 . S
C2483 C2489 1.491 . S
C2484 H2475 0.950 . S
C2484 C2483 1.398 . S
C2484 C2485 1.391 . S
C2485 H2473 0.950 . S
C2485 C2481 1.393 . S
C2485 C2484 1.391 . S
C2486 H2476 0.950 . S
C2486 C2487 1.386 . S
C2486 C2488 1.391 . S
C2487 C2486 1.386 . S
C2487 C2491 1.393 . S
C2488 H2477 0.950 . S
C2488 C2486 1.391 . S
C2488 C2489 1.400 . S
C2489 C2483 1.491 . S
C2489 C2488 1.400 . S
C2489 C2490 1.398 . S
C2490 H2478 0.950 . S
C2490 C2489 1.398 . S
C2490 C2491 1.391 . S
C2491 H2479 0.950 . S
C2491 C2487 1.393 . S
C2491 C2490 1.391 . S
H2492 C2500 0.950 . S
H2493 C2505 0.950 . S
H2494 C2502 0.950 . S
H2495 C2504 0.950 . S
H2496 C2506 0.950 . S
H2497 C2508 0.950 . S
H2498 C2510 0.950 . S
H2499 C2511 0.950 . S
C2500 H2492 0.950 . S
C2500 C2501 1.386 . S
C2500 C2502 1.391 . S
C2501 C2500 1.386 . S
C2501 C2505 1.393 . S
C2502 H2494 0.950 . S
C2502 C2500 1.391 . S
C2502 C2503 1.400 . S
C2503 C2502 1.400 . S
C2503 C2504 1.398 . S
C2503 C2509 1.491 . S
C2504 H2495 0.950 . S
C2504 C2503 1.398 . S
C2504 C2505 1.391 . S
C2505 H2493 0.950 . S
C2505 C2501 1.393 . S
C2505 C2504 1.391 . S
C2506 H2496 0.950 . S
C2506 C2507 1.386 . S
C2506 C2508 1.391 . S
C2507 C2506 1.386 . S
C2507 C2511 1.393 . S
C2508 H2497 0.950 . S
C2508 C2506 1.391 . S
C2508 C2509 1.400 . S
C2509 C2503 1.491 . S
C2509 C2508 1.400 . S
C2509 C2510 1.398 . S
C2510 H2498 0.950 . S
C2510 C2509 1.398 . S
C2510 C2511 1.391 . S
C2511 H2499 0.950 . S
C2511 C2507 1.393 . S
C2511 C2510 1.391 . S
H2512 C2520 0.950 . S
H2513 C2525 0.950 . S
H2514 C2522 0.950 . S
H2515 C2524 0.950 . S
H2516 C2526 0.950 . S
H2517 C2528 0.950 . S
H2518 C2530 0.950 . S
H2519 C2531 0.950 . S
C2520 H2512 0.950 . S
C2520 C2521 1.386 . S
C2520 C2522 1.391 . S
C2521 C2520 1.386 . S
C2521 C2525 1.393 . S
C2522 H2514 0.950 . S
C2522 C2520 1.391 . S
C2522 C2523 1.400 . S
C2523 C2522 1.400 . S
C2523 C2524 1.398 . S
C2523 C2529 1.491 . S
C2524 H2515 0.950 . S
C2524 C2523 1.398 . S
C2524 C2525 1.391 . S
C2525 H2513 0.950 . S
C2525 C2521 1.393 . S
C2525 C2524 1.391 . S
C2526 H2516 0.950 . S
C2526 C2527 1.386 . S
C2526 C2528 1.391 . S
C2527 C2526 1.386 . S
C2527 C2531 1.393 . S
C2528 H2517 0.950 . S
C2528 C2526 1.391 . S
C2528 C2529 1.400 . S
C2529 C2523 1.491 . S
C2529 C2528 1.400 . S
C2529 C2530 1.398 . S
C2530 H2518 0.950 . S
C2530 C2529 1.398 . S
C2530 C2531 1.391 . S
C2531 H2519 0.950 . S
C2531 C2527 1.393 . S
C2531 C2530 1.391 . S
H2532 C2540 0.950 . S
H2533 C2545 0.950 . S
H2534 C2542 0.950 . S
H2535 C2544 0.950 . S
H2536 C2546 0.950 . S
H2537 C2548 0.950 . S
H2538 C2550 0.950 . S
H2539 C2551 0.950 . S
C2540 H2532 0.950 . S
C2540 C2541 1.386 . S
C2540 C2542 1.391 . S
C2541 C2540 1.386 . S
C2541 C2545 1.393 . S
C2542 H2534 0.950 . S
C2542 C2540 1.391 . S
C2542 C2543 1.400 . S
C2543 C2542 1.400 . S
C2543 C2544 1.398 . S
C2543 C2549 1.491 . S
C2544 H2535 0.950 . S
C2544 C2543 1.398 . S
C2544 C2545 1.391 . S
C2545 H2533 0.950 . S
C2545 C2541 1.393 . S
C2545 C2544 1.391 . S
C2546 H2536 0.950 . S
C2546 C2547 1.386 . S
C2546 C2548 1.391 . S
C2547 C2546 1.386 . S
C2547 C2551 1.393 . S
C2548 H2537 0.950 . S
C2548 C2546 1.391 . S
C2548 C2549 1.400 . S
C2549 C2543 1.491 . S
C2549 C2548 1.400 . S
C2549 C2550 1.398 . S
C2550 H2538 0.950 . S
C2550 C2549 1.398 . S
C2550 C2551 1.391 . S
C2551 H2539 0.950 . S
C2551 C2547 1.393 . S
C2551 C2550 1.391 . S
H2552 C2560 0.950 . S
H2553 C2565 0.950 . S
H2554 C2562 0.950 . S
H2555 C2564 0.950 . S
H2556 C2566 0.950 . S
H2557 C2568 0.950 . S
H2558 C2570 0.950 . S
H2559 C2571 0.950 . S
C2560 H2552 0.950 . S
C2560 C2561 1.386 . S
C2560 C2562 1.391 . S
C2561 C2560 1.386 . S
C2561 C2565 1.393 . S
C2562 H2554 0.950 . S
C2562 C2560 1.391 . S
C2562 C2563 1.400 . S
C2563 C2562 1.400 . S
C2563 C2564 1.398 . S
C2563 C2569 1.491 . S
C2564 H2555 0.950 . S
C2564 C2563 1.398 . S
C2564 C2565 1.391 . S
C2565 H2553 0.950 . S
C2565 C2561 1.393 . S
C2565 C2564 1.391 . S
C2566 H2556 0.950 . S
C2566 C2567 1.386 . S
C2566 C2568 1.391 . S
C2567 C2566 1.386 . S
C2567 C2571 1.393 . S
C2568 H2557 0.950 . S
C2568 C2566 1.391 . S
C2568 C2569 1.400 . S
C2569 C2563 1.491 . S
C2569 C2568 1.400 . S
C2569 C2570 1.398 . S
C2570 H2558 0.950 . S
C2570 C2569 1.398 . S
C2570 C2571 1.391 . S
C2571 H2559 0.950 . S
C2571 C2567 1.393 . S
C2571 C2570 1.391 . S
H2572 C2580 0.950 . S
H2573 C2585 0.950 . S
H2574 C2582 0.950 . S
H2575 C2584 0.950 . S
H2576 C2586 0.950 . S
H2577 C2588 0.950 . S
H2578 C2590 0.950 . S
H2579 C2591 0.950 . S
C2580 H2572 0.950 . S
C2580 C2581 1.386 . S
C2580 C2582 1.391 . S
C2581 C2580 1.386 . S
C2581 C2585 1.393 . S
C2582 H2574 0.950 . S
C2582 C2580 1.391 . S
C2582 C2583 1.400 . S
C2583 C2582 1.400 . S
C2583 C2584 1.398 . S
C2583 C2589 1.491 . S
C2584 H2575 0.950 . S
C2584 C2583 1.398 . S
C2584 C2585 1.391 . S
C2585 H2573 0.950 . S
C2585 C2581 1.393 . S
C2585 C2584 1.391 . S
C2586 H2576 0.950 . S
C2586 C2587 1.386 . S
C2586 C2588 1.391 . S
C2587 C2586 1.386 . S
C2587 C2591 1.393 . S
C2588 H2577 0.950 . S
C2588 C2586 1.391 . S
C2588 C2589 1.400 . S
C2589 C2583 1.491 . S
C2589 C2588 1.400 . S
C2589 C2590 1.398 . S
C2590 H2578 0.950 . S
C2590 C2589 1.398 . S
C2590 C2591 1.391 . S
C2591 H2579 0.950 . S
C2591 C2587 1.393 . S
C2591 C2590 1.391 . S
C681 C137 1.603 . S
C687 C11 1.608 . S
C701 C151 1.615 . S
C707 C25 1.621 . S
C721 C165 1.624 . S
C727 C39 1.626 . S
C741 C53 1.604 . S
C747 C123 1.609 . S
C761 C221 1.612 . S
C767 C67 1.618 . S
C781 C81 1.618 . S
C787 C179 1.623 . S
C801 C193 1.612 . S
C807 C95 1.607 . S
C821 C207 1.620 . S
C827 C109 1.614 . S
C841 C235 1.625 . S
C847 C263 1.622 . S
C861 C249 1.618 . S
C867 C319 1.623 . S
C881 C277 1.601 . S
C887 C333 1.603 . S
C901 C291 1.626 . S
C907 C305 1.623 . S
C921 C347 1.606 . S
C927 C473 1.611 . S
C941 C487 1.611 . S
C947 C361 1.605 . S
C961 C375 1.601 . S
C967 C501 1.601 . S
C981 C389 1.626 . S
C987 C459 1.625 . S
C1001 C557 1.606 . S
C1007 C403 1.612 . S
C1021 C515 1.601 . S
C1027 C417 1.602 . S
C1041 C529 1.615 . S
C1047 C431 1.621 . S
C1061 C543 1.605 . S
C1067 C445 1.610 . S
C1081 C571 1.625 . S
C1087 C599 1.626 . S
C1101 C585 1.614 . S
C1107 C655 1.620 . S
C1121 C613 1.602 . S
C1127 C669 1.607 . S
C1141 C641 1.601 . S
C1147 C627 1.602 . S
C1161 C117 1.145 . S
C1167 C0 1.210 . S
C1181 C131 1.165 . S
C1187 C14 1.199 . S
C1201 C28 1.199 . S
C1207 C145 1.165 . S
C1221 C42 1.195 . S
C1227 C159 1.167 . S
C1241 C56 1.196 . S
C1247 C173 1.167 . S
C1261 C70 1.196 . S
C1267 C187 1.167 . S
C1281 C84 1.200 . S
C1287 C201 1.137 . S
C1301 C215 1.165 . S
C1307 C98 1.198 . S
C1321 C112 1.193 . S
C1327 C229 1.156 . S
C1341 C327 1.153 . S
C1347 C126 1.206 . S
C1361 C140 1.198 . S
C1367 C299 1.142 . S
C1381 C154 1.211 . S
C1387 C313 1.126 . S
C1401 C168 1.212 . S
C1407 C243 1.126 . S
C1421 C182 1.212 . S
C1427 C257 1.129 . S
C1441 C196 1.210 . S
C1447 C271 1.143 . S
C1461 C285 1.167 . S
C1467 C210 1.194 . S
C1481 C5 1.128 . S
C1487 C224 1.212 . S
C1501 C238 1.211 . S
C1507 C61 1.142 . S
C1521 C252 1.193 . S
C1527 C75 1.166 . S
C1541 C266 1.194 . S
C1547 C89 1.167 . S
C1561 C103 1.145 . S
C1567 C280 1.210 . S
C1581 C294 1.199 . S
C1587 C33 1.165 . S
C1601 C308 1.195 . S
C1607 C47 1.167 . S
C1621 C19 1.129 . S
C1627 C322 1.212 . S
C1641 C453 1.128 . S
C1647 C336 1.206 . S
C1661 C350 1.193 . S
C1667 C467 1.165 . S
C1681 C364 1.210 . S
C1687 C481 1.125 . S
C1701 C495 1.150 . S
C1707 C378 1.195 . S
C1721 C509 1.148 . S
C1727 C392 1.195 . S
C1741 C406 1.193 . S
C1747 C523 1.158 . S
C1761 C537 1.140 . S
C1767 C420 1.211 . S
C1781 C551 1.167 . S
C1787 C434 1.196 . S
C1801 C448 1.193 . S
C1807 C565 1.159 . S
C1821 C462 1.206 . S
C1827 C663 1.154 . S
C1841 C476 1.197 . S
C1847 C635 1.167 . S
C1861 C649 1.134 . S
C1867 C490 1.202 . S
C1881 C504 1.212 . S
C1887 C579 1.130 . S
C1901 C518 1.202 . S
C1907 C593 1.161 . S
C1921 C607 1.126 . S
C1927 C532 1.208 . S
C1941 C621 1.165 . S
C1947 C546 1.199 . S
C1961 C560 1.212 . S
C1967 C341 1.126 . S
C1981 C574 1.199 . S
C1987 C397 1.165 . S
C2001 C411 1.131 . S
C2007 C588 1.212 . S
C2021 C602 1.193 . S
C2027 C425 1.164 . S
C2041 C616 1.207 . S
C2047 C439 1.153 . S
C2061 C369 1.146 . S
C2067 C630 1.209 . S
C2081 C644 1.207 . S
C2087 C383 1.152 . S
C2101 C355 1.163 . S
C2107 C658 1.193 . S
C2121 C443 1.460 . S
C2127 C9 1.456 . S
C2141 C23 1.454 . S
C2147 C401 1.461 . S
C2161 C415 1.463 . S
C2167 C37 1.450 . S
C2181 C429 1.447 . S
C2187 C51 1.458 . S
C2201 C65 1.460 . S
C2207 C359 1.446 . S
C2221 C373 1.462 . S
C2227 C79 1.446 . S
C2241 C387 1.452 . S
C2247 C93 1.450 . S
C2261 C107 1.455 . S
C2267 C345 1.460 . S
C2281 C625 1.446 . S
C2287 C121 1.462 . S
C2301 C135 1.446 . S
C2307 C583 1.459 . S
C2321 C149 1.449 . S
C2327 C597 1.463 . S
C2341 C611 1.447 . S
C2347 C163 1.463 . S
C2361 C667 1.447 . S
C2367 C177 1.463 . S
C2381 C639 1.463 . S
C2387 C191 1.451 . S
C2401 C205 1.447 . S
C2407 C653 1.457 . S
C2421 C569 1.454 . S
C2427 C219 1.449 . S
C2441 C233 1.446 . S
C2447 C555 1.462 . S
C2461 C471 1.447 . S
C2467 C247 1.458 . S
C2481 C261 1.453 . S
C2487 C485 1.450 . S
C2501 C499 1.459 . S
C2507 C275 1.457 . S
C2521 C457 1.461 . S
C2527 C289 1.446 . S
C2541 C303 1.462 . S
C2547 C527 1.453 . S
C2561 C541 1.462 . S
C2567 C317 1.446 . S
C2581 C513 1.447 . S
C2587 C331 1.463 . S
