# Generated by pormake.
# Topology wfa, (4)-cn, num edge types: 1
# Building blocks:
#     Node 0, Type 0, BuildingBlock: NAWXER_clean_sbu_0, # of connection points: 4
#     Node 1, Type 0, BuildingBlock: NAWXER_clean_sbu_0, # of connection points: 4
#     Node 2, Type 0, BuildingBlock: NAWXER_clean_sbu_0, # of connection points: 4
#     Node 3, Type 0, BuildingBlock: NAWXER_clean_sbu_0, # of connection points: 4
#     Node 4, Type 0, BuildingBlock: NAWXER_clean_sbu_0, # of connection points: 4
#     Node 5, Type 0, BuildingBlock: NAWXER_clean_sbu_0, # of connection points: 4
#     Node 6, Type 0, BuildingBlock: NAWXER_clean_sbu_0, # of connection points: 4
#     Node 7, Type 0, BuildingBlock: NAWXER_clean_sbu_0, # of connection points: 4
#     Node 8, Type 0, BuildingBlock: NAWXER_clean_sbu_0, # of connection points: 4
#     Node 9, Type 0, BuildingBlock: NAWXER_clean_sbu_0, # of connection points: 4
#     Node 10, Type 0, BuildingBlock: NAWXER_clean_sbu_0, # of connection points: 4
#     Node 11, Type 0, BuildingBlock: NAWXER_clean_sbu_0, # of connection points: 4
#     Node 12, Type 0, BuildingBlock: NAWXER_clean_sbu_0, # of connection points: 4
#     Node 13, Type 0, BuildingBlock: NAWXER_clean_sbu_0, # of connection points: 4
#     Node 14, Type 0, BuildingBlock: NAWXER_clean_sbu_0, # of connection points: 4
#     Node 15, Type 0, BuildingBlock: NAWXER_clean_sbu_0, # of connection points: 4
#     Edge 16, Type (0, 0), BuildingBlock: KIFKEQ_clean_linker_1, # of connection points: 2
#     Edge 17, Type (0, 0), BuildingBlock: KIFKEQ_clean_linker_1, # of connection points: 2
#     Edge 18, Type (0, 0), BuildingBlock: KIFKEQ_clean_linker_1, # of connection points: 2
#     Edge 19, Type (0, 0), BuildingBlock: KIFKEQ_clean_linker_1, # of connection points: 2
#     Edge 20, Type (0, 0), BuildingBlock: KIFKEQ_clean_linker_1, # of connection points: 2
#     Edge 21, Type (0, 0), BuildingBlock: KIFKEQ_clean_linker_1, # of connection points: 2
#     Edge 22, Type (0, 0), BuildingBlock: KIFKEQ_clean_linker_1, # of connection points: 2
#     Edge 23, Type (0, 0), BuildingBlock: KIFKEQ_clean_linker_1, # of connection points: 2
#     Edge 24, Type (0, 0), BuildingBlock: KIFKEQ_clean_linker_1, # of connection points: 2
#     Edge 25, Type (0, 0), BuildingBlock: KIFKEQ_clean_linker_1, # of connection points: 2
#     Edge 26, Type (0, 0), BuildingBlock: KIFKEQ_clean_linker_1, # of connection points: 2
#     Edge 27, Type (0, 0), BuildingBlock: KIFKEQ_clean_linker_1, # of connection points: 2
#     Edge 28, Type (0, 0), BuildingBlock: KIFKEQ_clean_linker_1, # of connection points: 2
#     Edge 29, Type (0, 0), BuildingBlock: KIFKEQ_clean_linker_1, # of connection points: 2
#     Edge 30, Type (0, 0), BuildingBlock: KIFKEQ_clean_linker_1, # of connection points: 2
#     Edge 31, Type (0, 0), BuildingBlock: KIFKEQ_clean_linker_1, # of connection points: 2
#     Edge 32, Type (0, 0), BuildingBlock: KIFKEQ_clean_linker_1, # of connection points: 2
#     Edge 33, Type (0, 0), BuildingBlock: KIFKEQ_clean_linker_1, # of connection points: 2
#     Edge 34, Type (0, 0), BuildingBlock: KIFKEQ_clean_linker_1, # of connection points: 2
#     Edge 35, Type (0, 0), BuildingBlock: KIFKEQ_clean_linker_1, # of connection points: 2
#     Edge 36, Type (0, 0), BuildingBlock: KIFKEQ_clean_linker_1, # of connection points: 2
#     Edge 37, Type (0, 0), BuildingBlock: KIFKEQ_clean_linker_1, # of connection points: 2
#     Edge 38, Type (0, 0), BuildingBlock: KIFKEQ_clean_linker_1, # of connection points: 2
#     Edge 39, Type (0, 0), BuildingBlock: KIFKEQ_clean_linker_1, # of connection points: 2
#     Edge 40, Type (0, 0), BuildingBlock: KIFKEQ_clean_linker_1, # of connection points: 2
#     Edge 41, Type (0, 0), BuildingBlock: KIFKEQ_clean_linker_1, # of connection points: 2
#     Edge 42, Type (0, 0), BuildingBlock: KIFKEQ_clean_linker_1, # of connection points: 2
#     Edge 43, Type (0, 0), BuildingBlock: KIFKEQ_clean_linker_1, # of connection points: 2
#     Edge 44, Type (0, 0), BuildingBlock: KIFKEQ_clean_linker_1, # of connection points: 2
#     Edge 45, Type (0, 0), BuildingBlock: KIFKEQ_clean_linker_1, # of connection points: 2
#     Edge 46, Type (0, 0), BuildingBlock: KIFKEQ_clean_linker_1, # of connection points: 2
#     Edge 47, Type (0, 0), BuildingBlock: KIFKEQ_clean_linker_1, # of connection points: 2
# Relax obj value: 0.153
# Max RMSD: 0.233
# Mean RMSD: 0.220
data_MOF--net-wfa--node1-NAWXER_clean_sbu_0--edge1-KIFKEQ_clean_linker_1
_symmetry_space_group_name_H-M    P1
_symmetry_Int_Tables_number       1
_symmetry_cell_setting            triclinic
loop_
_symmetry_equiv_pos_as_xyz
'x, y, z'
_cell_length_a     49.017131
_cell_length_b     48.965921
_cell_length_c     23.101339
_cell_angle_alpha  88.521624
_cell_angle_beta   89.234552
_cell_angle_gamma 88.959903
loop_
_atom_site_label
_atom_site_type_symbol
_atom_site_fract_x
_atom_site_fract_y
_atom_site_fract_z
_atom_type_partial_charge
C0 C 0.67219 0.0443 0.15243 0.0
C1 C 0.72058 1.00731 0.9861 0.0
O2 O 0.68291 0.05693 0.10935 0.0
Zn3 Zn 0.69459 0.02483 0.07013 0.0
O4 O 0.67317 0.01803 0.15518 0.0
Zn5 Zn 0.68983 0.98512 0.10148 0.0
O6 O 0.71509 0.96756 0.15494 0.0
O7 O 0.72588 1.00987 0.13077 0.0
O8 O 0.71367 0.98776 0.02119 0.0
O9 O 0.71286 0.03144 0.99712 0.0
O10 O 0.65497 1.00771 0.05115 0.0
O11 O 0.65689 0.9654 0.0851 0.0
C12 C 0.73075 0.9877 0.16027 0.0
C13 C 0.64333 0.9847 0.06074 0.0
C14 C 0.53551 0.69695 0.0168 0.0
C15 C 0.52786 0.60269 0.95553 0.0
O16 O 0.55317 0.67768 0.02107 0.0
Zn17 Zn 0.53479 0.65183 0.97423 0.0
O18 O 0.51459 0.69389 0.9847 0.0
Zn19 Zn 0.49768 0.66088 0.93466 0.0
O20 O 0.46265 0.65903 0.97205 0.0
O21 O 0.49787 0.64694 0.02666 0.0
O22 O 0.50796 0.61762 0.93671 0.0
O23 O 0.54851 0.61424 0.97598 0.0
O24 O 0.53958 0.66857 0.88691 0.0
O25 O 0.49755 0.67249 0.8551 0.0
C26 C 0.47203 0.65034 0.02034 0.0
C27 C 0.5229 0.67504 0.84622 0.0
C28 C 0.81385 0.51151 0.11646 0.0
C29 C 0.89639 0.50797 0.99171 0.0
O30 O 0.82295 0.53474 0.09929 0.0
Zn31 Zn 0.85274 0.55106 0.04107 0.0
O32 O 0.82419 0.48981 0.09537 0.0
Zn33 Zn 0.85243 0.50662 0.04548 0.0
O34 O 0.87675 0.52478 0.10833 0.0
O35 O 0.87745 0.56958 0.09581 0.0
O36 O 0.88375 0.48697 0.01103 0.0
O37 O 0.8855 0.53168 0.9971 0.0
O38 O 0.8307 0.56813 0.97716 0.0
O39 O 0.83062 0.52328 0.97307 0.0
C40 C 0.88575 0.54787 0.12269 0.0
C41 C 0.82328 0.54668 0.9519 0.0
C42 C 0.03371 0.90924 0.1556 0.0
C43 C 1.00491 0.85054 1.00218 0.0
O44 O 0.04729 0.89614 0.11795 0.0
Zn45 Zn 0.01707 0.88057 0.08283 0.0
O46 O 1.00756 0.9068 0.15885 0.0
Zn47 Zn 0.97686 0.88497 0.10631 0.0
O48 O 0.96005 0.86077 0.16504 0.0
O49 O 1.00367 0.85148 0.15191 0.0
O50 O 0.98353 0.85783 0.03146 0.0
O51 O 0.02764 0.85979 0.0166 0.0
O52 O 0.99787 0.91901 0.05154 0.0
O53 O 0.95472 0.91668 0.07724 0.0
C54 C 0.98103 0.84656 0.17885 0.0
C55 C 0.97399 0.93023 0.05381 0.0
C56 C 0.16076 0.98977 0.42088 0.0
C57 C 0.21505 0.98307 0.59865 0.0
O58 O 0.16912 0.96562 0.43488 0.0
Zn59 Zn 0.19127 0.94443 0.50193 0.0
O60 O 0.16685 1.00995 0.45174 0.0
Zn61 Zn 0.18807 0.98799 0.50801 0.0
O62 O 0.22122 0.97361 0.4539 0.0
O63 O 0.22111 0.92853 0.45702 0.0
O64 O 0.20537 1.00457 0.57402 0.0
O65 O 0.2109 0.95987 0.57608 0.0
O66 O 0.16132 0.9219 0.53217 0.0
O67 O 0.15436 0.96601 0.54402 0.0
C68 C 0.23146 0.95067 0.43776 0.0
C69 C 0.14584 0.94146 0.54861 0.0
C70 C 0.49759 0.19285 0.45829 0.0
C71 C 0.50606 0.09927 0.53289 0.0
O72 O 0.4794 0.17465 0.45941 0.0
Zn73 Zn 0.49902 0.14835 0.50759 0.0
O74 O 0.51956 0.18878 0.48728 0.0
Zn75 Zn 0.53758 0.156 0.54029 0.0
O76 O 0.57135 0.15157 0.49813 0.0
O77 O 0.53439 0.14032 0.45079 0.0
O78 O 0.52668 0.11353 0.54574 0.0
O79 O 0.48446 0.11147 0.51555 0.0
O80 O 0.49711 0.16724 0.59144 0.0
O81 O 0.53989 0.16909 0.61805 0.0
C82 C 0.56048 0.14223 0.45313 0.0
C83 C 0.51486 0.17368 0.62885 0.0
C84 C 0.39068 0.52434 0.4613 0.0
C85 C 0.3024 0.51882 0.35847 0.0
O86 O 0.37854 0.50323 0.4447 0.0
Zn87 Zn 0.34343 0.5201 0.42066 0.0
O88 O 0.37723 0.54713 0.46147 0.0
Zn89 Zn 0.33649 0.56137 0.43458 0.0
O90 O 0.31707 0.57308 0.50161 0.0
O91 O 0.31913 0.52827 0.49946 0.0
O92 O 0.3062 0.54239 0.38001 0.0
O93 O 0.31884 0.49934 0.37201 0.0
O94 O 0.3583 0.54902 0.35445 0.0
O95 O 0.34653 0.59045 0.38298 0.0
C96 C 0.31066 0.55023 0.52407 0.0
C97 C 0.35781 0.57506 0.34588 0.0
C98 C 0.99932 0.42759 0.33403 0.0
C99 C 0.987 0.35922 0.49893 0.0
O100 O 0.97524 0.42016 0.3473 0.0
Zn101 Zn 0.9529 0.39579 0.40597 0.0
O102 O 0.01967 0.41645 0.36033 0.0
Zn103 Zn 0.99794 0.39136 0.41285 0.0
O104 O 0.9809 0.36528 0.35232 0.0
O105 O 0.93622 0.37024 0.34993 0.0
O106 O 0.01009 0.36585 0.47698 0.0
O107 O 0.96528 0.36937 0.47599 0.0
O108 O 0.93696 0.42899 0.44543 0.0
O109 O 0.98112 0.42377 0.45885 0.0
C110 C 0.95805 0.35862 0.3312 0.0
C111 C 0.95914 0.43756 0.4667 0.0
C112 C 0.40262 0.92477 0.908 0.0
C113 C 0.36203 0.94638 0.09461 0.0
O114 O 0.40245 0.95059 0.91668 0.0
Zn115 Zn 0.38929 0.97797 0.98529 0.0
O116 O 0.39381 0.90841 0.94729 0.0
Zn117 Zn 0.38457 0.93615 1.00135 0.0
O118 O 0.35164 0.95625 0.95352 0.0
O119 O 0.36226 0.99963 0.94237 0.0
O120 O 0.36813 0.92361 0.07268 0.0
O121 O 0.36877 0.96847 0.06721 0.0
O122 O 0.42346 0.99514 1.00449 0.0
O123 O 0.42504 0.95069 0.0206 0.0
C124 C 0.34609 0.98027 0.93279 0.0
C125 C 0.43708 0.97379 0.019 0.0
C126 C 0.49193 0.30691 0.9517 0.0
C127 C 0.49483 0.39989 0.02648 0.0
O128 O 0.51337 0.31135 0.98114 0.0
Zn129 Zn 0.52909 0.34333 0.03345 0.0
O130 O 0.47231 0.32431 0.95241 0.0
Zn131 Zn 0.48966 0.35113 1.00047 0.0
O132 O 0.52417 0.36112 0.94471 0.0
O133 O 0.56229 0.35031 0.99108 0.0
O134 O 0.47392 0.38843 0.00667 0.0
O135 O 0.51561 0.38501 0.04028 0.0
O136 O 0.53252 0.32915 0.11082 0.0
O137 O 0.48929 0.3322 0.08617 0.0
C138 C 0.55032 0.3603 0.94652 0.0
C139 C 0.50762 0.32535 0.12326 0.0
C140 C 0.16828 0.51371 0.02316 0.0
C141 C 0.10067 0.51459 0.86066 0.0
O142 O 0.1591 0.49239 1.00007 0.0
Zn143 Zn 0.13633 0.50997 0.93776 0.0
O144 O 0.16102 0.53719 1.00213 0.0
Zn145 Zn 0.13671 0.55482 0.93434 0.0
O146 O 0.10593 0.57381 0.97502 0.0
O147 O 0.10547 0.529 0.98598 0.0
O148 O 0.11054 0.53741 0.87428 0.0
O149 O 0.10948 0.49261 0.88575 0.0
O150 O 0.16502 0.52658 0.87759 0.0
O151 O 0.16386 0.57155 0.88109 0.0
C152 C 0.09436 0.55228 0.99494 0.0
C153 C 0.17385 0.54978 0.85948 0.0
C154 C 0.98 0.21617 0.0175 0.0
C155 C 0.01214 0.15901 0.85575 0.0
O156 O 1.00409 0.20768 1.00598 0.0
Zn157 Zn 0.99796 0.18671 0.93644 0.0
O158 O 0.96042 0.2086 0.98555 0.0
Zn159 Zn 0.95613 0.18337 0.91092 0.0
O160 O 0.93691 0.14906 0.93787 0.0
O161 O 0.97959 0.14929 0.96544 0.0
O162 O 0.98641 0.16368 0.85862 0.0
O163 O 0.02792 0.16859 0.89348 0.0
O164 O 0.98548 0.21668 0.87096 0.0
O165 O 0.94258 0.20945 0.84994 0.0
C166 C 0.9571 0.13659 0.96171 0.0
C167 C 0.96437 0.22288 0.84068 0.0
C168 C 0.85986 0.98374 0.661 0.0
C169 C 0.94237 0.95844 0.55417 0.0
O170 O 0.86713 1.00354 0.62677 0.0
Zn171 Zn 0.89855 1.00854 0.55871 0.0
O172 O 0.87258 0.96103 0.65842 0.0
Zn173 Zn 0.89869 0.97074 0.59923 0.0
O174 O 0.92326 1.00289 0.63993 0.0
O175 O 0.91748 0.03945 0.58293 0.0
O176 O 0.92696 0.94341 0.58536 0.0
O177 O 0.93398 0.9826 0.53945 0.0
O178 O 0.88021 0.01476 0.48704 0.0
O179 O 0.87437 0.97281 0.51995 0.0
C180 C 0.92878 0.02791 0.6264 0.0
C181 C 0.86968 0.99163 0.48131 0.0
C182 C 0.53975 0.80406 0.50938 0.0
C183 C 0.53295 0.89894 0.44111 0.0
O184 O 0.51675 0.80987 0.48564 0.0
Zn185 Zn 0.49789 0.84411 0.43904 0.0
O186 O 0.55898 0.8211 0.50488 0.0
Zn187 Zn 0.53858 0.84942 0.46297 0.0
O188 O 0.50719 0.85792 0.52777 0.0
O189 O 0.46693 0.84962 0.49034 0.0
O190 O 0.55434 0.88543 0.45519 0.0
O191 O 0.51101 0.88602 0.43132 0.0
O192 O 0.49089 0.83129 0.36254 0.0
O193 O 0.53498 0.83297 0.3775 0.0
C194 C 0.48109 0.85724 0.53265 0.0
C195 C 0.51511 0.82694 0.34476 0.0
C196 C 0.63778 0.47226 0.63164 0.0
C197 C 0.6788 0.50464 0.45378 0.0
O198 O 0.63463 0.49843 0.62768 0.0
Zn199 Zn 0.64598 0.53037 0.56212 0.0
O200 O 0.64881 0.45933 0.59033 0.0
Zn201 Zn 0.65482 0.49035 0.54335 0.0
O202 O 0.68468 0.50975 0.59876 0.0
O203 O 0.67006 0.55202 0.61018 0.0
O204 O 0.67328 0.48118 0.47392 0.0
O205 O 0.66994 0.52566 0.48122 0.0
O206 O 0.60973 0.54583 0.54091 0.0
O207 O 0.61258 0.50209 0.52336 0.0
C208 C 0.68748 0.53314 0.62185 0.0
C209 C 0.59816 0.52425 0.52523 0.0
C210 C 0.97423 0.70632 0.51746 0.0
C211 C 0.97391 0.63668 0.68262 0.0
O212 O 0.95267 0.69773 0.54313 0.0
Zn213 Zn 0.96948 0.6734 0.60458 0.0
O214 O 0.9975 0.69832 0.53688 0.0
Zn215 Zn 0.01432 0.67341 0.6054 0.0
O216 O 0.0328 0.64276 0.56386 0.0
O217 O 0.98812 0.64278 0.5544 0.0
O218 O 0.99668 0.64655 0.66637 0.0
O219 O 0.95194 0.64594 0.6594 0.0
O220 O 0.98556 0.70187 0.66266 0.0
O221 O 0.03043 0.69998 0.65897 0.0
C222 C 0.01143 0.63185 0.54407 0.0
C223 C 1.00851 0.71035 0.68022 0.0
H224 H 0.54408 0.11014 0.36636 0.0
H225 H 0.61548 0.14827 0.43385 0.0
H226 H 0.5724 0.08745 0.29422 0.0
H227 H 0.64387 0.12553 0.36059 0.0
H228 H 0.6749 0.0989 0.174 0.0
H229 H 0.64871 0.12444 0.24639 0.0
H230 H 0.61015 0.04997 0.305 0.0
H231 H 0.63637 0.02438 0.2334 0.0
C232 C 0.56577 0.114 0.36535 0.0
C233 C 0.57757 0.13097 0.40596 0.0
C234 C 0.58198 0.10082 0.32427 0.0
C235 C 0.61028 0.10458 0.32235 0.0
C236 C 0.62205 0.12236 0.3613 0.0
C237 C 0.60584 0.1353 0.40315 0.0
C238 C 0.66095 0.08798 0.2026 0.0
C239 C 0.65761 0.05965 0.19793 0.0
C240 C 0.6461 0.10258 0.24407 0.0
C241 C 0.62735 0.08915 0.28081 0.0
C242 C 0.62431 0.06081 0.2767 0.0
C243 C 0.63943 0.04617 0.23596 0.0
H244 H 0.3914 0.54891 0.27014 0.0
H245 H 0.35489 0.628 0.30506 0.0
H246 H 0.41706 0.56904 0.18939 0.0
H247 H 0.3807 0.64804 0.22343 0.0
H248 H 0.41665 0.65901 0.02943 0.0
H249 H 0.38627 0.64174 0.10687 0.0
H250 H 0.45565 0.60578 0.19536 0.0
H251 H 0.48589 0.62296 0.11936 0.0
C252 C 0.3886 0.57051 0.2602 0.0
C253 C 0.37138 0.58696 0.29425 0.0
C254 C 0.40332 0.58198 0.21412 0.0
C255 C 0.40087 0.61002 0.2009 0.0
C256 C 0.38276 0.62633 0.23304 0.0
C257 C 0.3682 0.6149 0.27975 0.0
C258 C 0.42536 0.64763 0.06572 0.0
C259 C 0.45359 0.64219 0.06821 0.0
C260 C 0.40804 0.63785 0.10984 0.0
C261 C 0.41877 0.62225 0.15624 0.0
C262 C 0.44697 0.61749 0.15943 0.0
C263 C 0.46424 0.62747 0.11603 0.0
H264 H 0.939 0.55238 0.09159 0.0
H265 H 0.8861 0.53585 0.23813 0.0
H266 H 0.97697 0.52923 0.14228 0.0
H267 H 0.92403 0.51328 0.28921 0.0
H268 H 0.99863 0.47836 0.37571 0.0
H269 H 0.97576 0.51749 0.3281 0.0
H270 H 0.97566 0.47414 0.16807 0.0
H271 H 0.99743 0.43455 0.21658 0.0
C272 C 0.93589 0.54533 0.13601 0.0
C273 C 0.90965 0.54665 0.16144 0.0
C274 C 0.95752 0.53156 0.16453 0.0
C275 C 0.95346 0.51912 0.21946 0.0
C276 C 0.92794 0.52282 0.24715 0.0
C277 C 0.90623 0.53608 0.21818 0.0
C278 C 0.9953 0.4778 0.32946 0.0
C279 C 1.00061 0.4535 0.2996 0.0
C280 C 0.98172 0.50011 0.30243 0.0
C281 C 0.97379 0.49896 0.24428 0.0
C282 C 0.9818 0.47586 0.21267 0.0
C283 C 0.99468 0.45324 0.24024 0.0
H284 H 0.02539 0.9217 0.27024 0.0
H285 H 0.07446 0.9418 0.11926 0.0
H286 H 0.05433 0.95027 0.32892 0.0
H287 H 0.10227 0.9713 0.17627 0.0
H288 H 0.17052 0.97446 0.3119 0.0
H289 H 0.13638 0.96101 0.24387 0.0
H290 H 0.07278 0.99382 0.35499 0.0
H291 H 0.1076 1.00689 0.42398 0.0
C292 C 0.04197 0.93272 0.24949 0.0
C293 C 0.04818 0.92904 0.19072 0.0
C294 C 0.05843 0.94928 0.28284 0.0
C295 C 0.08101 0.9628 0.25755 0.0
C296 C 0.08563 0.96065 0.19766 0.0
C297 C 0.06966 0.94374 0.16491 0.0
C298 C 0.14934 0.97999 0.32033 0.0
C299 C 0.1417 0.99215 0.37244 0.0
C300 C 0.12962 0.97215 0.28147 0.0
C301 C 0.10164 0.97608 0.29398 0.0
C302 C 0.09409 0.9902 0.34428 0.0
C303 C 0.11401 0.99822 0.3832 0.0
H304 H 0.39758 0.87333 0.86579 0.0
H305 H 0.43017 0.95296 0.82347 0.0
H306 H 0.41481 0.85657 0.773 0.0
H307 H 0.44728 0.93616 0.73135 0.0
H308 H 0.50482 0.8853 0.61748 0.0
H309 H 0.48435 0.90106 0.7071 0.0
H310 H 0.40768 0.86581 0.66171 0.0
H311 H 0.42825 0.84986 0.5708 0.0
C312 C 0.40838 0.88722 0.83676 0.0
C313 C 0.41271 0.9144 0.85209 0.0
C314 C 0.418 0.87769 0.78358 0.0
C315 C 0.43239 0.89509 0.74533 0.0
C316 C 0.43642 0.92229 0.76039 0.0
C317 C 0.42659 0.93189 0.81308 0.0
C318 C 0.4836 0.88078 0.62641 0.0
C319 C 0.46812 0.86632 0.58703 0.0
C320 C 0.47187 0.88998 0.67764 0.0
C321 C 0.44446 0.88476 0.69102 0.0
C322 C 0.42893 0.86999 0.65227 0.0
C323 C 0.44063 0.86101 0.60031 0.0
H324 H 0.60083 0.48869 0.71349 0.0
H325 H 0.65404 0.4212 0.66647 0.0
H326 H 0.58219 0.46091 0.79367 0.0
H327 H 0.63547 0.39365 0.74668 0.0
H328 H 0.60594 0.36454 0.93357 0.0
H329 H 0.63019 0.39302 0.86137 0.0
H330 H 0.55339 0.41679 0.78403 0.0
H331 H 0.52927 0.38847 0.85452 0.0
C332 C 0.6088 0.46813 0.72082 0.0
C333 C 0.62851 0.45691 0.68342 0.0
C334 C 0.59815 0.45229 0.76645 0.0
C335 C 0.60738 0.42521 0.77567 0.0
C336 C 0.62818 0.41453 0.74035 0.0
C337 C 0.63856 0.43021 0.69431 0.0
C338 C 0.59434 0.37559 0.90066 0.0
C339 C 0.56573 0.37432 0.89983 0.0
C340 C 0.60817 0.39191 0.85974 0.0
C341 C 0.59346 0.40739 0.8183 0.0
C342 C 0.56504 0.40546 0.81649 0.0
C343 C 0.55132 0.38899 0.85657 0.0
H344 H 0.98545 0.63006 0.79724 0.0
H345 H 0.97209 0.58543 0.64232 0.0
H346 H 0.01053 0.59069 0.83893 0.0
H347 H 0.99821 0.54642 0.68298 0.0
H348 H 0.04953 0.51071 0.9047 0.0
H349 H 1.00945 0.53492 0.86523 0.0
H350 H 0.05355 0.55127 0.70607 0.0
H351 H 0.09398 0.52794 0.74635 0.0
C352 C 0.98645 0.61128 0.77345 0.0
C353 C 0.97601 0.61071 0.71705 0.0
C354 C 1.00124 0.58881 0.79696 0.0
C355 C 1.0067 0.56552 0.7639 0.0
C356 C 0.99446 0.56408 0.70938 0.0
C357 C 0.97903 0.58627 0.68657 0.0
C358 C 0.0502 0.5181 0.86009 0.0
C359 C 0.07479 0.51661 0.82805 0.0
C360 C 0.02734 0.53246 0.83794 0.0
C361 C 0.02829 0.5452 0.78272 0.0
C362 C 0.05201 0.54148 0.74856 0.0
C363 C 0.07511 0.52775 0.7713 0.0
H364 H 0.03066 0.10711 0.87616 0.0
H365 H 1.0095 0.16515 0.74028 0.0
H366 H 0.01752 0.06964 0.81503 0.0
H367 H 0.99599 0.12846 0.67957 0.0
H368 H 0.96548 0.06231 0.57804 0.0
H369 H 0.99903 0.0895 0.62589 0.0
H370 H 0.97327 0.0549 0.79151 0.0
H371 H 0.94085 0.02626 0.74238 0.0
C372 C 0.02474 0.11173 0.83194 0.0
C373 C 0.02097 0.13898 0.81291 0.0
C374 C 0.01656 0.09032 0.79731 0.0
C375 C 1.00476 0.09592 0.74289 0.0
C376 C 1.00492 0.12304 0.72099 0.0
C377 C 0.01304 0.14429 0.7556 0.0
C378 C 0.96721 0.06034 0.62468 0.0
C379 C 0.95016 0.04268 0.65675 0.0
C380 C 0.98647 0.07595 0.6522 0.0
C381 C 0.98869 0.07494 0.71285 0.0
C382 C 0.97249 0.05613 0.74471 0.0
C383 C 0.95362 0.03991 0.71678 0.0
H384 H 0.7273 0.04033 0.89012 0.0
H385 H 0.75494 0.96355 0.96645 0.0
H386 H 0.75877 0.03429 0.80901 0.0
H387 H 0.78758 0.95803 0.8869 0.0
H388 H 0.83056 0.94376 0.71624 0.0
H389 H 0.79531 0.94863 0.79043 0.0
H390 H 0.80426 0.03635 0.78123 0.0
H391 H 0.83857 0.03134 0.70462 0.0
C392 C 0.74018 0.02212 0.88961 0.0
C393 C 0.73856 1.00241 0.93484 0.0
C394 C 0.75851 0.01876 0.84319 0.0
C395 C 0.77616 0.99577 0.84101 0.0
C396 C 0.77417 0.97583 0.88606 0.0
C397 C 0.75547 0.979 0.93206 0.0
C398 C 0.82485 0.96412 0.72978 0.0
C399 C 0.83743 0.98717 0.70443 0.0
C400 C 0.80471 0.96693 0.77289 0.0
C401 C 0.79682 0.99288 0.79279 0.0
C402 C 0.80928 0.01599 0.76679 0.0
C403 C 0.82914 0.01318 0.72288 0.0
H404 H 0.58456 0.78476 0.56985 0.0
H405 H 0.49978 0.7683 0.53902 0.0
H406 H 0.58557 0.74855 0.64472 0.0
H407 H 0.50027 0.73356 0.61487 0.0
H408 H 0.50394 0.66534 0.73921 0.0
H409 H 0.51312 0.69113 0.64984 0.0
H410 H 0.57034 0.7405 0.74011 0.0
H411 H 0.5624 0.71312 0.82842 0.0
C412 C 0.56625 0.77322 0.57849 0.0
C413 C 0.54208 0.77954 0.54842 0.0
C414 C 0.56672 0.75261 0.6219 0.0
C415 C 0.54297 0.73802 0.63658 0.0
C416 C 0.5192 0.74374 0.60456 0.0
C417 C 0.51884 0.76398 0.56095 0.0
C418 C 0.519 0.68128 0.73936 0.0
C419 C 0.53235 0.68738 0.79064 0.0
C420 C 0.52408 0.69633 0.68829 0.0
C421 C 0.54194 0.71855 0.68764 0.0
C422 C 0.55656 0.72352 0.7384 0.0
C423 C 0.55199 0.70789 0.78925 0.0
H424 H 0.78408 0.58528 0.91892 0.0
H425 H 0.82267 0.51017 0.86521 0.0
H426 H 0.75232 0.58316 0.83828 0.0
H427 H 0.79256 0.50876 0.783 0.0
H428 H 0.71757 0.49359 0.67862 0.0
H429 H 0.75016 0.4984 0.75528 0.0
H430 H 0.74055 0.58629 0.74175 0.0
H431 H 0.70641 0.58109 0.66674 0.0
C432 C 0.78615 0.56861 0.88918 0.0
C433 C 0.80584 0.54779 0.89903 0.0
C434 C 0.76793 0.56736 0.8425 0.0
C435 C 0.76916 0.54549 0.80359 0.0
C436 C 0.78989 0.52547 0.8124 0.0
C437 C 0.80757 0.52642 0.85954 0.0
C438 C 0.72252 0.51401 0.69151 0.0
C439 C 0.70931 0.53692 0.66583 0.0
C440 C 0.74156 0.51687 0.73572 0.0
C441 C 0.74867 0.54283 0.75543 0.0
C442 C 0.73565 0.56586 0.72903 0.0
C443 C 0.71614 0.56293 0.68531 0.0
H444 H 0.9634 0.81635 0.97037 0.0
H445 H 0.04514 0.84011 0.92253 0.0
H446 H 0.96463 0.78258 0.89396 0.0
H447 H 0.04611 0.80739 0.84548 0.0
H448 H 0.05154 0.72811 0.74543 0.0
H449 H 0.05003 0.76135 0.82272 0.0
H450 H 0.9638 0.77469 0.79458 0.0
H451 H 0.96522 0.74097 0.71936 0.0
C452 C 0.98149 0.81466 0.94317 0.0
C453 C 1.00414 0.83105 0.95308 0.0
C454 C 0.98224 0.79527 0.89899 0.0
C455 C 1.0056 0.79182 0.86301 0.0
C456 C 0.02796 0.80869 0.87256 0.0
C457 C 0.02728 0.82781 0.91679 0.0
C458 C 0.0323 0.7382 0.75566 0.0
C459 C 1.00856 0.73167 0.72583 0.0
C460 C 0.03138 0.75746 0.80004 0.0
C461 C 1.00671 0.77099 0.81572 0.0
C462 C 0.9831 0.76455 0.78521 0.0
C463 C 0.98399 0.74522 0.74134 0.0
H464 H 0.22769 0.02822 0.6615 0.0
H465 H 0.24055 0.94082 0.65656 0.0
H466 H 0.25621 0.02972 0.74754 0.0
H467 H 0.2694 0.94237 0.74073 0.0
H468 H 0.30353 0.94611 0.91729 0.0
H469 H 0.26946 0.94862 0.84165 0.0
H470 H 0.3028 0.02497 0.77819 0.0
H471 H 0.33638 0.02285 0.85542 0.0
C472 C 0.23654 1.00934 0.67872 0.0
C473 C 0.23171 0.9844 0.65199 0.0
C474 C 0.25304 1.0102 0.72793 0.0
C475 C 0.26511 0.98615 0.75163 0.0
C476 C 0.26008 0.96127 0.72483 0.0
C477 C 0.24361 0.9604 0.676 0.0
C478 C 0.30334 0.96368 0.88782 0.0
C479 C 0.32286 0.98418 0.89232 0.0
C480 C 0.28391 0.96502 0.84396 0.0
C481 C 0.28358 0.98673 0.80277 0.0
C482 C 0.30224 1.00798 0.8091 0.0
C483 C 0.32158 1.00676 0.85344 0.0
H484 H 0.53885 0.1699 0.73434 0.0
H485 H 0.4733 0.21112 0.64293 0.0
H486 H 0.52985 0.19788 0.81812 0.0
H487 H 0.46538 0.24076 0.72504 0.0
H488 H 0.44913 0.28637 0.89045 0.0
H489 H 0.45129 0.25059 0.81847 0.0
H490 H 0.53796 0.24076 0.84753 0.0
H491 H 0.53532 0.27485 0.92093 0.0
C492 C 0.52242 0.18499 0.73233 0.0
C493 C 0.50687 0.18838 0.68201 0.0
C494 C 0.5174 0.20136 0.78021 0.0
C495 C 0.49726 0.22231 0.77855 0.0
C496 C 0.48092 0.22486 0.72877 0.0
C497 C 0.4855 0.2079 0.68136 0.0
C498 C 0.46849 0.27612 0.88206 0.0
C499 C 0.492 0.28346 0.91184 0.0
C500 C 0.46984 0.25573 0.84025 0.0
C501 C 0.49483 0.24247 0.82648 0.0
C502 C 0.51813 0.24969 0.8573 0.0
C503 C 0.51667 0.26959 0.89954 0.0
H504 H 0.28128 0.59277 0.56815 0.0
H505 H 0.29807 0.50673 0.59774 0.0
H506 H 0.24954 0.59276 0.64923 0.0
H507 H 0.26707 0.50689 0.68159 0.0
H508 H 0.18787 0.50873 0.78702 0.0
H509 H 0.22146 0.50863 0.70915 0.0
H510 H 0.24257 0.59143 0.74843 0.0
H511 H 0.20767 0.59185 0.825 0.0
C512 C 0.27851 0.57383 0.59258 0.0
C513 C 0.2923 0.5497 0.57611 0.0
C514 C 0.26033 0.57388 0.63974 0.0
C515 C 0.25551 0.54988 0.67275 0.0
C516 C 0.26972 0.52576 0.65689 0.0
C517 C 0.28771 0.52563 0.60894 0.0
C518 C 0.19967 0.52698 0.77918 0.0
C519 C 0.19495 0.55036 0.81238 0.0
C520 C 0.21925 0.52683 0.73455 0.0
C521 C 0.2351 0.54995 0.72197 0.0
C522 C 0.23057 0.57331 0.75575 0.0
C523 C 0.2106 0.57358 0.80003 0.0
H524 H 0.94055 0.34598 0.5596 0.0
H525 H 0.02706 0.32813 0.55532 0.0
H526 H 0.93489 0.31452 0.64157 0.0
H527 H 0.02131 0.29572 0.63691 0.0
H528 H 1.00685 0.25733 0.81717 0.0
H529 H 0.01252 0.28996 0.73691 0.0
H530 H 0.93359 0.26866 0.67246 0.0
H531 H 0.92764 0.23651 0.75413 0.0
C532 C 0.95847 0.33523 0.5759 0.0
C533 C 0.98433 0.33981 0.55027 0.0
C534 C 0.95514 0.31685 0.62307 0.0
C535 C 0.97752 0.30212 0.64654 0.0
C536 C 1.00349 0.30678 0.62105 0.0
C537 C 1.00685 0.32535 0.5738 0.0
C538 C 0.99053 0.25969 0.7862 0.0
C539 C 0.96667 0.24417 0.79277 0.0
C540 C 0.99395 0.27836 0.73946 0.0
C541 C 0.97367 0.28219 0.69718 0.0
C542 C 0.94964 0.26681 0.70412 0.0
C543 C 0.94618 0.24819 0.75114 0.0
H544 H 0.26583 0.90814 0.40839 0.0
H545 H 0.24694 0.99263 0.36551 0.0
H546 H 0.30018 0.90746 0.33102 0.0
H547 H 0.27997 0.99168 0.28643 0.0
H548 H 0.35322 0.98958 0.16673 0.0
H549 H 0.32493 0.99065 0.25446 0.0
H550 H 0.30441 0.90611 0.23142 0.0
H551 H 0.33373 0.90479 0.14621 0.0
C552 C 0.26901 0.92656 0.38241 0.0
C553 C 0.25363 0.95041 0.39323 0.0
C554 C 0.28858 0.92616 0.33757 0.0
C555 C 0.29292 0.94947 0.30161 0.0
C556 C 0.27777 0.97343 0.3134 0.0
C557 C 0.25859 0.97394 0.35878 0.0
C558 C 0.34285 0.97119 0.18088 0.0
C559 C 0.34579 0.94712 0.14941 0.0
C560 C 0.32641 0.9718 0.23105 0.0
C561 C 0.3121 0.94848 0.2505 0.0
C562 C 0.31539 0.92437 0.21904 0.0
C563 C 0.33214 0.92365 0.1696 0.0
H564 H 0.4523 0.21256 0.40049 0.0
H565 H 0.53796 0.2273 0.42431 0.0
H566 H 0.45053 0.249 0.32633 0.0
H567 H 0.53675 0.26224 0.34871 0.0
H568 H 0.53092 0.33218 0.22753 0.0
H569 H 0.52428 0.30496 0.31599 0.0
H570 H 0.46332 0.25806 0.23062 0.0
H571 H 0.46874 0.28691 0.14364 0.0
C572 C 0.4707 0.22371 0.39021 0.0
C573 C 0.49526 0.21699 0.41838 0.0
C574 C 0.46978 0.24447 0.34723 0.0
C575 C 0.49351 0.25871 0.33079 0.0
C576 C 0.51782 0.25239 0.36053 0.0
C577 C 0.5186 0.23206 0.40397 0.0
C578 C 0.5157 0.3164 0.22831 0.0
C579 C 0.50047 0.31149 0.17879 0.0
C580 C 0.51205 0.30053 0.27883 0.0
C581 C 0.49374 0.27866 0.28053 0.0
C582 C 0.47747 0.27474 0.2316 0.0
C583 C 0.48062 0.2912 0.18146 0.0
H584 H 0.26055 0.55437 0.33016 0.0
H585 H 0.29473 0.47578 0.28547 0.0
H586 H 0.22758 0.55134 0.25303 0.0
H587 H 0.26219 0.47307 0.20645 0.0
H588 H 0.1859 0.46863 0.0896 0.0
H589 H 0.21649 0.46811 0.173 0.0
H590 H 0.22523 0.55545 0.15267 0.0
H591 H 0.19444 0.55601 0.07166 0.0
C592 C 0.26104 0.53634 0.30395 0.0
C593 C 0.28054 0.51539 0.31434 0.0
C594 C 0.24217 0.53468 0.25899 0.0
C595 C 0.24223 0.51214 0.22208 0.0
C596 C 0.26118 0.49072 0.23371 0.0
C597 C 0.28 0.4923 0.27916 0.0
C598 C 0.19432 0.4877 0.10314 0.0
C599 C 0.18737 0.51237 0.07368 0.0
C600 C 0.21204 0.48742 0.15098 0.0
C601 C 0.22336 0.5118 0.17074 0.0
C602 C 0.21658 0.53628 0.14045 0.0
C603 C 0.19892 0.53657 0.09319 0.0
H604 H 0.93328 0.24626 0.04176 0.0
H605 H 0.01483 0.23008 0.10341 0.0
H606 H 0.92616 0.28018 0.1167 0.0
H607 H 1.00748 0.26295 0.17936 0.0
H608 H 1.0015 0.34392 0.26453 0.0
H609 H 1.00506 0.3098 0.1912 0.0
H610 H 0.91988 0.29117 0.21682 0.0
H611 H 0.9161 0.32668 0.29019 0.0
C612 C 0.94961 0.24967 0.0717 0.0
C613 C 0.97477 0.2355 0.06591 0.0
C614 C 0.94546 0.26911 0.11506 0.0
C615 C 0.9663 0.27487 0.15419 0.0
C616 C 0.99108 0.25988 0.14941 0.0
C617 C 0.9953 0.24073 0.10587 0.0
C618 C 0.98338 0.33264 0.2549 0.0
C619 C 0.95853 0.33806 0.28412 0.0
C620 C 0.98552 0.3127 0.21274 0.0
C621 C 0.96298 0.29699 0.19829 0.0
C622 C 0.93778 0.30277 0.22642 0.0
C623 C 0.93556 0.32313 0.2687 0.0
H624 H 0.76095 0.02983 0.1986 0.0
H625 H 0.75093 0.94276 0.22069 0.0
H626 H 0.79492 0.02873 0.27413 0.0
H627 H 0.78595 0.94135 0.29499 0.0
H628 H 0.82808 0.95493 0.47076 0.0
H629 H 0.79558 0.95267 0.39144 0.0
H630 H 0.83925 0.01618 0.29792 0.0
H631 H 0.87055 0.01918 0.37784 0.0
C632 C 0.76635 1.01031 0.21888 0.0
C633 C 0.75318 0.98639 0.20327 0.0
C634 C 0.78605 1.00962 0.26226 0.0
C635 C 0.79352 0.9849 0.29101 0.0
C636 C 0.7806 0.96085 0.27469 0.0
C637 C 0.76063 0.96161 0.2316 0.0
C638 C 0.83078 0.96818 0.43294 0.0
C639 C 0.85174 0.98741 0.43095 0.0
C640 C 0.81219 0.96688 0.38723 0.0
C641 C 0.81436 0.98455 0.33815 0.0
C642 C 0.83622 1.0028 0.3354 0.0
C643 C 0.85442 1.00437 0.38121 0.0
H644 H 0.56426 0.81288 0.29372 0.0
H645 H 0.47722 0.80855 0.26996 0.0
H646 H 0.57191 0.78577 0.20748 0.0
H647 H 0.48474 0.78089 0.1854 0.0
H648 H 0.50262 0.74286 0.01597 0.0
H649 H 0.49995 0.77823 0.08825 0.0
H650 H 0.56761 0.73979 0.17879 0.0
H651 H 0.57085 0.70506 0.10546 0.0
C652 C 0.54676 0.80635 0.2699 0.0
C653 C 0.52012 0.81287 0.28908 0.0
C654 C 0.55113 0.7906 0.22059 0.0
C655 C 0.52898 0.78089 0.18926 0.0
C656 C 0.50239 0.78824 0.20754 0.0
C657 C 0.49804 0.80403 0.25655 0.0
C658 C 0.51729 0.74226 0.05065 0.0
C659 C 0.53684 0.72095 0.05495 0.0
C660 C 0.5156 0.76245 0.09254 0.0
C661 C 0.53326 0.76176 0.1402 0.0
C662 C 0.55376 0.74126 0.14268 0.0
C663 C 0.55558 0.72119 0.10054 0.0
H664 H 0.68953 0.54977 0.38271 0.0
H665 H 0.70924 0.46393 0.40634 0.0
H666 H 0.7198 0.55163 0.29747 0.0
H667 H 0.74013 0.46596 0.32426 0.0
H668 H 0.78017 0.46913 0.14848 0.0
H669 H 0.74535 0.46851 0.22503 0.0
H670 H 0.76531 0.55127 0.26723 0.0
H671 H 0.79884 0.55223 0.18907 0.0
C672 C 0.70035 0.53137 0.3699 0.0
C673 C 0.69676 0.50673 0.40134 0.0
C674 C 0.71789 0.53239 0.32118 0.0
C675 C 0.73256 0.50888 0.30327 0.0
C676 C 0.72886 0.48437 0.33517 0.0
C677 C 0.71116 0.48328 0.38297 0.0
C678 C 0.77696 0.4872 0.17397 0.0
C679 C 0.79234 0.51067 0.16255 0.0
C680 C 0.75707 0.48686 0.21827 0.0
C681 C 0.75238 0.50983 0.25312 0.0
C682 C 0.76774 0.53334 0.2411 0.0
C683 C 0.78725 0.5338 0.19632 0.0
H684 H 0.93539 0.82256 0.22725 0.0
H685 H 0.02302 0.82217 0.24019 0.0
H686 H 0.9327 0.78829 0.30547 0.0
H687 H 0.02051 0.78919 0.3205 0.0
H688 H 0.01371 0.71373 0.4345 0.0
H689 H 0.0146 0.74568 0.35268 0.0
H690 H 0.93456 0.77629 0.40203 0.0
H691 H 0.93325 0.7428 0.48247 0.0
C692 C 0.95415 0.81528 0.24703 0.0
C693 C 0.97946 0.82517 0.22673 0.0
C694 C 0.95262 0.79564 0.29265 0.0
C695 C 0.97634 0.78542 0.32045 0.0
C696 C 1.00164 0.79563 0.30013 0.0
C697 C 1.00317 0.8149 0.25389 0.0
C698 C 0.99616 0.72716 0.42782 0.0
C699 C 0.97341 0.72555 0.46558 0.0
C700 C 0.99678 0.74591 0.38077 0.0
C701 C 0.97487 0.76437 0.36999 0.0
C702 C 0.95185 0.76248 0.40756 0.0
C703 C 0.95106 0.74324 0.45424 0.0
H704 H 0.46839 0.0192 0.0322 0.0
H705 H 0.47411 0.93128 0.02548 0.0
H706 H 0.51782 0.02127 0.04107 0.0
H707 H 0.52351 0.93329 0.03168 0.0
H708 H 0.61003 0.94317 0.09737 0.0
H709 H 0.56072 0.94072 0.08989 0.0
H710 H 0.55948 0.017 0.99141 0.0
H711 H 0.6088 0.01996 1.00133 0.0
C712 C 0.48018 1.00028 0.03266 0.0
C713 C 0.46712 0.97507 0.02846 0.0
C714 C 0.50869 1.00145 0.03709 0.0
C715 C 0.52508 0.97746 0.03674 0.0
C716 C 0.51185 0.95225 0.03307 0.0
C717 C 0.48335 0.95107 0.02933 0.0
C718 C 0.59931 0.95932 0.07358 0.0
C719 C 0.61356 0.98175 0.04988 0.0
C720 C 0.57085 0.95789 0.06911 0.0
C721 C 0.55569 0.97871 0.04021 0.0
C722 C 0.57012 1.0008 0.01512 0.0
C723 C 0.59858 1.00237 0.02018 0.0
H724 H 0.54122 0.42819 0.0428 0.0
H725 H 0.45631 0.44032 1.00001 0.0
H726 H 0.54957 0.47584 0.02268 0.0
H727 H 0.46428 0.48911 0.98319 0.0
H728 H 0.49178 0.57002 0.9008 0.0
H729 H 0.48302 0.52174 0.92037 0.0
H730 H 0.54576 0.51983 0.05038 0.0
H731 H 0.55547 0.56733 0.02801 0.0
C732 C 0.52402 0.4412 0.03062 0.0
C733 C 0.49797 0.43019 0.0234 0.0
C734 C 0.52885 0.46887 0.01914 0.0
C735 C 0.50771 0.48684 1.00112 0.0
C736 C 0.48134 0.47603 0.99581 0.0
C737 C 0.47658 0.44804 0.00635 0.0
C738 C 0.50404 0.55907 0.93275 0.0
C739 C 0.52461 0.57254 0.96219 0.0
C740 C 0.49873 0.53138 0.94474 0.0
C741 C 0.51349 0.51645 0.98736 0.0
C742 C 0.53422 0.53008 0.01638 0.0
C743 C 0.53986 0.55754 1.00356 0.0
H744 H 0.93479 0.47983 0.05353 0.0
H745 H 0.92506 0.53835 0.91277 0.0
H746 H 0.98124 0.49346 0.06502 0.0
H747 H 0.97202 0.55157 0.92136 0.0
H748 H 0.05195 0.58703 0.96254 0.0
H749 H 1.00418 0.57468 0.961 0.0
H750 H 0.02415 0.49955 0.05595 0.0
H751 H 0.07034 0.51376 0.06281 0.0
C752 C 0.94316 0.49461 0.02275 0.0
C753 C 0.92628 0.50766 0.98166 0.0
C754 C 0.9701 0.50299 0.02977 0.0
C755 C 0.98123 0.52453 0.99536 0.0
C756 C 0.96472 0.53575 0.95073 0.0
C757 C 0.9377 0.52759 0.94436 0.0
C758 C 0.04565 0.56865 0.98573 0.0
C759 C 0.0651 0.55141 0.01266 0.0
C760 C 0.01819 0.56085 0.98315 0.0
C761 C 1.00959 0.53516 1.00582 0.0
C762 C 0.02892 0.51935 0.03731 0.0
C763 C 0.05591 0.52762 0.04162 0.0
H764 H 0.91415 0.10173 0.99282 0.0
H765 H 1.0009 0.10231 0.96054 0.0
H766 H 0.91711 0.05242 0.01483 0.0
H767 H 1.00371 0.05376 0.97625 0.0
H768 H 0.01203 0.96996 0.05398 0.0
H769 H 1.00651 0.01843 0.03596 0.0
H770 H 0.92164 1.00718 0.99474 0.0
H771 H 0.92708 0.95833 0.01818 0.0
C772 C 0.93382 0.09138 0.99008 0.0
C773 C 0.95734 0.10637 0.97589 0.0
C774 C 0.93559 0.06284 1.00215 0.0
C775 C 0.96084 0.04825 0.99874 0.0
C776 C 0.98397 0.06352 0.98238 0.0
C777 C 0.98232 0.09183 0.97242 0.0
C778 C 0.9922 0.97771 0.04049 0.0
C779 C 0.97015 0.95991 0.03681 0.0
C780 C 0.98893 1.00591 0.0295 0.0
C781 C 0.96362 0.01764 0.01228 0.0
C782 C 0.94148 0.99962 0.00823 0.0
C783 C 0.94463 0.97132 0.02106 0.0
H784 H 0.11094 0.97729 0.60013 0.0
H785 H 0.11357 0.89783 0.52297 0.0
H786 H 0.06141 0.97767 0.59704 0.0
H787 H 0.06342 0.89818 0.52072 0.0
H788 H 0.98222 0.989 0.50219 0.0
H789 H 0.03127 0.98069 0.50526 0.0
H790 H 0.0184 0.90208 0.58873 0.0
H791 H 0.96891 0.91039 0.5862 0.0
C792 C 0.10095 0.95955 0.58381 0.0
C793 C 0.11633 0.93762 0.56136 0.0
C794 C 0.07252 0.95992 0.58157 0.0
C795 C 0.0586 0.93827 0.55732 0.0
C796 C 0.07368 0.91523 0.53927 0.0
C797 C 0.10237 0.91494 0.54105 0.0
C798 C 0.98966 0.96966 0.52015 0.0
C799 C 0.9715 0.95049 0.54444 0.0
C800 C 0.01784 0.96501 0.52233 0.0
C801 C 0.02865 0.94098 0.54832 0.0
C802 C 0.01061 0.92084 0.56871 0.0
C803 C 0.98227 0.92561 0.56709 0.0
H804 H 0.49452 0.93524 0.39831 0.0
H805 H 0.56723 0.93068 0.50158 0.0
H806 H 0.48813 0.98314 0.42222 0.0
H807 H 0.56013 0.97786 0.52845 0.0
H808 H 0.55389 0.07017 0.53049 0.0
H809 H 0.56138 0.0232 0.5037 0.0
H810 H 0.47416 0.01252 0.49434 0.0
H811 H 0.46684 0.06047 0.51783 0.0
C812 C 0.50931 0.94456 0.42569 0.0
C813 C 0.53154 0.92911 0.44749 0.0
C814 C 0.50541 0.972 0.44032 0.0
C815 C 0.52334 0.98468 0.47812 0.0
C816 C 0.54599 0.96928 0.49859 0.0
C817 C 0.55016 0.94203 0.48306 0.0
C818 C 0.53621 0.05775 0.52368 0.0
C819 C 0.5097 0.0692 0.52676 0.0
C820 C 0.54054 0.03057 0.50821 0.0
C821 C 0.51847 0.01366 0.49633 0.0
C822 C 0.49182 0.02486 0.50166 0.0
C823 C 0.48752 0.05232 0.51611 0.0
H824 H 0.56283 0.56808 0.50658 0.0
H825 H 0.56452 0.48009 0.51889 0.0
H826 H 0.51369 0.56778 0.49174 0.0
H827 H 0.51528 0.4796 0.50728 0.0
H828 H 0.4285 0.48367 0.43794 0.0
H829 H 0.47769 0.48381 0.45062 0.0
H830 H 0.4706 0.56284 0.52918 0.0
H831 H 0.42154 0.56313 0.51337 0.0
C832 C 0.55272 0.5486 0.50629 0.0
C833 C 0.56797 0.52412 0.51359 0.0
C834 C 0.52423 0.54837 0.49838 0.0
C835 C 0.50973 0.52365 0.49842 0.0
C836 C 0.52519 0.49917 0.50569 0.0
C837 C 0.55371 0.4994 0.51269 0.0
C838 C 0.43738 0.50102 0.45835 0.0
C839 C 0.42072 0.52334 0.47469 0.0
C840 C 0.46588 0.5011 0.46595 0.0
C841 C 0.4789 0.52338 0.491 0.0
C842 C 0.46198 0.54546 0.50853 0.0
C843 C 0.43353 0.54552 0.50009 0.0
H844 H 0.03346 0.58621 0.59559 0.0
H845 H 0.985 0.61319 0.45038 0.0
H846 H 0.01837 0.53989 0.58413 0.0
H847 H 0.97123 0.56645 0.43511 0.0
H848 H 0.92905 0.4853 0.44431 0.0
H849 H 0.94381 0.53187 0.46058 0.0
H850 H 0.01551 0.49931 0.54756 0.0
H851 H 0.99934 0.45385 0.53617 0.0
C852 C 0.02075 0.58191 0.559 0.0
C853 C 0.011 0.60339 0.52314 0.0
C854 C 0.01162 0.55511 0.55255 0.0
C855 C 0.99279 0.5487 0.50912 0.0
C856 C 0.98478 0.57011 0.47053 0.0
C857 C 0.99336 0.59701 0.47807 0.0
C858 C 0.94729 0.48829 0.46916 0.0
C859 C 0.96276 0.46563 0.48929 0.0
C860 C 0.95637 0.51514 0.47718 0.0
C861 C 0.9815 0.52013 0.50453 0.0
C862 C 0.99602 0.49723 0.52698 0.0
C863 C 0.98664 0.4707 0.52027 0.0
loop_
_geom_bond_atom_site_label_1
_geom_bond_atom_site_label_2
_geom_bond_distance
_geom_bond_site_symmetry_2
_ccdc_geom_bond_type
C0 O2 1.247 . S
C0 O4 1.258 1_545 S
C1 O8 1.247 . S
C1 O9 1.258 1_565 S
O2 C0 1.247 . S
O2 Zn3 2.028 . S
Zn3 O2 2.028 . S
Zn3 O7 2.035 . S
Zn3 O9 2.035 . S
Zn3 O10 2.028 . S
O4 C0 1.258 1_565 S
O4 Zn5 2.035 . S
Zn5 O4 2.035 . S
Zn5 O6 2.028 . S
Zn5 O8 2.028 . S
Zn5 O11 2.035 . S
O6 Zn5 2.028 . S
O6 C12 1.247 1_565 S
O7 Zn3 2.035 . S
O7 C12 1.258 . S
O8 C1 1.247 . S
O8 Zn5 2.028 . S
O9 C1 1.258 1_545 S
O9 Zn3 2.035 . S
O10 Zn3 2.028 . S
O10 C13 1.247 1_545 S
O11 Zn5 2.035 . S
O11 C13 1.258 . S
C12 O6 1.247 1_545 S
C12 O7 1.258 . S
C13 O10 1.247 1_565 S
C13 O11 1.258 . S
C14 O16 1.247 . S
C14 O18 1.258 . S
C15 O22 1.247 . S
C15 O23 1.258 . S
O16 C14 1.247 . S
O16 Zn17 2.028 . S
Zn17 O16 2.028 . S
Zn17 O21 2.035 . S
Zn17 O23 2.035 . S
Zn17 O24 2.028 . S
O18 C14 1.258 . S
O18 Zn19 2.035 . S
Zn19 O18 2.035 . S
Zn19 O20 2.028 . S
Zn19 O22 2.028 . S
Zn19 O25 2.035 . S
O20 Zn19 2.028 . S
O20 C26 1.247 . S
O21 Zn17 2.035 . S
O21 C26 1.258 . S
O22 C15 1.247 . S
O22 Zn19 2.028 . S
O23 C15 1.258 . S
O23 Zn17 2.035 . S
O24 Zn17 2.028 . S
O24 C27 1.247 . S
O25 Zn19 2.035 . S
O25 C27 1.258 . S
C26 O20 1.247 . S
C26 O21 1.258 . S
C27 O24 1.247 . S
C27 O25 1.258 . S
C28 O30 1.247 . S
C28 O32 1.258 . S
C29 O36 1.247 . S
C29 O37 1.258 . S
O30 C28 1.247 . S
O30 Zn31 2.028 . S
Zn31 O30 2.028 . S
Zn31 O35 2.035 . S
Zn31 O37 2.035 . S
Zn31 O38 2.028 . S
O32 C28 1.258 . S
O32 Zn33 2.035 . S
Zn33 O32 2.035 . S
Zn33 O34 2.028 . S
Zn33 O36 2.028 . S
Zn33 O39 2.035 . S
O34 Zn33 2.028 . S
O34 C40 1.247 . S
O35 Zn31 2.035 . S
O35 C40 1.258 . S
O36 C29 1.247 . S
O36 Zn33 2.028 . S
O37 C29 1.258 . S
O37 Zn31 2.035 . S
O38 Zn31 2.028 . S
O38 C41 1.247 . S
O39 Zn33 2.035 . S
O39 C41 1.258 . S
C40 O34 1.247 . S
C40 O35 1.258 . S
C41 O38 1.247 . S
C41 O39 1.258 . S
C42 O44 1.247 . S
C42 O46 1.258 1_455 S
C43 O50 1.247 . S
C43 O51 1.258 1_655 S
O44 C42 1.247 . S
O44 Zn45 2.028 . S
Zn45 O44 2.028 . S
Zn45 O49 2.035 . S
Zn45 O51 2.035 . S
Zn45 O52 2.028 . S
O46 C42 1.258 1_655 S
O46 Zn47 2.035 . S
Zn47 O46 2.035 . S
Zn47 O48 2.028 . S
Zn47 O50 2.028 . S
Zn47 O53 2.035 . S
O48 Zn47 2.028 . S
O48 C54 1.211 1_655 S
O49 Zn45 2.035 . S
O49 C54 1.295 . S
O50 C43 1.247 . S
O50 Zn47 2.028 . S
O51 C43 1.258 1_455 S
O51 Zn45 2.035 . S
O52 Zn45 2.028 . S
O52 C55 1.219 1_455 S
O53 Zn47 2.035 . S
O53 C55 1.287 . S
C54 O48 1.211 1_455 S
C54 O49 1.295 . S
C55 O52 1.219 1_655 S
C55 O53 1.287 . S
C56 O58 1.247 . S
C56 O60 1.258 1_565 S
C57 O64 1.247 . S
C57 O65 1.258 1_545 S
O58 C56 1.247 . S
O58 Zn59 2.028 . S
Zn59 O58 2.028 . S
Zn59 O63 2.035 . S
Zn59 O65 2.035 . S
Zn59 O66 2.028 . S
O60 C56 1.258 1_545 S
O60 Zn61 2.035 . S
Zn61 O60 2.035 . S
Zn61 O62 2.028 . S
Zn61 O64 2.028 . S
Zn61 O67 2.035 . S
O62 Zn61 2.028 . S
O62 C68 1.211 1_545 S
O63 Zn59 2.035 . S
O63 C68 1.295 . S
O64 C57 1.247 . S
O64 Zn61 2.028 . S
O65 C57 1.258 1_565 S
O65 Zn59 2.035 . S
O66 Zn59 2.028 . S
O66 C69 1.219 1_565 S
O67 Zn61 2.035 . S
O67 C69 1.287 . S
C68 O62 1.211 1_565 S
C68 O63 1.295 . S
C69 O66 1.219 1_545 S
C69 O67 1.287 . S
C70 O72 1.247 . S
C70 O74 1.258 . S
C71 O78 1.247 . S
C71 O79 1.258 . S
O72 C70 1.247 . S
O72 Zn73 2.028 . S
Zn73 O72 2.028 . S
Zn73 O77 2.035 . S
Zn73 O79 2.035 . S
Zn73 O80 2.028 . S
O74 C70 1.258 . S
O74 Zn75 2.035 . S
Zn75 O74 2.035 . S
Zn75 O76 2.028 . S
Zn75 O78 2.028 . S
Zn75 O81 2.035 . S
O76 Zn75 2.028 . S
O76 C82 1.247 . S
O77 Zn73 2.035 . S
O77 C82 1.258 . S
O78 C71 1.247 . S
O78 Zn75 2.028 . S
O79 C71 1.258 . S
O79 Zn73 2.035 . S
O80 Zn73 2.028 . S
O80 C83 1.247 . S
O81 Zn75 2.035 . S
O81 C83 1.258 . S
C82 O76 1.247 . S
C82 O77 1.258 . S
C83 O80 1.247 . S
C83 O81 1.258 . S
C84 O86 1.247 . S
C84 O88 1.258 . S
C85 O92 1.247 . S
C85 O93 1.258 . S
O86 C84 1.247 . S
O86 Zn87 2.028 . S
Zn87 O86 2.028 . S
Zn87 O91 2.035 . S
Zn87 O93 2.035 . S
Zn87 O94 2.028 . S
O88 C84 1.258 . S
O88 Zn89 2.035 . S
Zn89 O88 2.035 . S
Zn89 O90 2.028 . S
Zn89 O92 2.028 . S
Zn89 O95 2.035 . S
O90 Zn89 2.028 . S
O90 C96 1.247 . S
O91 Zn87 2.035 . S
O91 C96 1.258 . S
O92 C85 1.247 . S
O92 Zn89 2.028 . S
O93 C85 1.258 . S
O93 Zn87 2.035 . S
O94 Zn87 2.028 . S
O94 C97 1.247 . S
O95 Zn89 2.035 . S
O95 C97 1.258 . S
C96 O90 1.247 . S
C96 O91 1.258 . S
C97 O94 1.247 . S
C97 O95 1.258 . S
C98 O100 1.247 . S
C98 O102 1.258 1_655 S
C99 O106 1.247 . S
C99 O107 1.258 1_455 S
O100 C98 1.247 . S
O100 Zn101 2.028 . S
Zn101 O100 2.028 . S
Zn101 O105 2.035 . S
Zn101 O107 2.035 . S
Zn101 O108 2.028 . S
O102 C98 1.258 1_455 S
O102 Zn103 2.035 . S
Zn103 O102 2.035 . S
Zn103 O104 2.028 . S
Zn103 O106 2.028 . S
Zn103 O109 2.035 . S
O104 Zn103 2.028 . S
O104 C110 1.247 1_455 S
O105 Zn101 2.035 . S
O105 C110 1.258 . S
O106 C99 1.247 . S
O106 Zn103 2.028 . S
O107 C99 1.258 1_655 S
O107 Zn101 2.035 . S
O108 Zn101 2.028 . S
O108 C111 1.247 1_655 S
O109 Zn103 2.035 . S
O109 C111 1.258 . S
C110 O104 1.247 1_655 S
C110 O105 1.258 . S
C111 O108 1.247 1_455 S
C111 O109 1.258 . S
C112 O114 1.247 1_565 S
C112 O116 1.258 . S
C113 O120 1.247 1_545 S
C113 O121 1.258 . S
O114 C112 1.247 1_545 S
O114 Zn115 2.028 . S
Zn115 O114 2.028 . S
Zn115 O119 2.035 . S
Zn115 O121 2.035 . S
Zn115 O122 2.028 . S
O116 C112 1.258 . S
O116 Zn117 2.035 . S
Zn117 O116 2.035 . S
Zn117 O118 2.028 . S
Zn117 O120 2.028 . S
Zn117 O123 2.035 . S
O118 Zn117 2.028 . S
O118 C124 1.247 . S
O119 Zn115 2.035 . S
O119 C124 1.258 1_545 S
O120 C113 1.247 1_565 S
O120 Zn117 2.028 . S
O121 C113 1.258 . S
O121 Zn115 2.035 . S
O122 Zn115 2.028 . S
O122 C125 1.247 . S
O123 Zn117 2.035 . S
O123 C125 1.258 1_565 S
C124 O118 1.247 . S
C124 O119 1.258 1_565 S
C125 O122 1.247 . S
C125 O123 1.258 1_545 S
C126 O128 1.247 . S
C126 O130 1.258 . S
C127 O134 1.247 . S
C127 O135 1.258 . S
O128 C126 1.247 . S
O128 Zn129 2.028 . S
Zn129 O128 2.028 . S
Zn129 O133 2.035 . S
Zn129 O135 2.035 . S
Zn129 O136 2.028 . S
O130 C126 1.258 . S
O130 Zn131 2.035 . S
Zn131 O130 2.035 . S
Zn131 O132 2.028 . S
Zn131 O134 2.028 . S
Zn131 O137 2.035 . S
O132 Zn131 2.028 . S
O132 C138 1.247 . S
O133 Zn129 2.035 . S
O133 C138 1.258 . S
O134 C127 1.247 . S
O134 Zn131 2.028 . S
O135 C127 1.258 . S
O135 Zn129 2.035 . S
O136 Zn129 2.028 . S
O136 C139 1.247 . S
O137 Zn131 2.035 . S
O137 C139 1.258 . S
C138 O132 1.247 . S
C138 O133 1.258 . S
C139 O136 1.247 . S
C139 O137 1.258 . S
C140 O142 1.247 . S
C140 O144 1.258 . S
C141 O148 1.247 . S
C141 O149 1.258 . S
O142 C140 1.247 . S
O142 Zn143 2.028 . S
Zn143 O142 2.028 . S
Zn143 O147 2.035 . S
Zn143 O149 2.035 . S
Zn143 O150 2.028 . S
O144 C140 1.258 . S
O144 Zn145 2.035 . S
Zn145 O144 2.035 . S
Zn145 O146 2.028 . S
Zn145 O148 2.028 . S
Zn145 O151 2.035 . S
O146 Zn145 2.028 . S
O146 C152 1.247 . S
O147 Zn143 2.035 . S
O147 C152 1.258 . S
O148 C141 1.247 . S
O148 Zn145 2.028 . S
O149 C141 1.258 . S
O149 Zn143 2.035 . S
O150 Zn143 2.028 . S
O150 C153 1.247 . S
O151 Zn145 2.035 . S
O151 C153 1.258 . S
C152 O146 1.247 . S
C152 O147 1.258 . S
C153 O150 1.247 . S
C153 O151 1.258 . S
C154 O156 1.247 . S
C154 O158 1.258 1_455 S
C155 O162 1.247 . S
C155 O163 1.258 1_655 S
O156 C154 1.247 . S
O156 Zn157 2.028 . S
Zn157 O156 2.028 . S
Zn157 O161 2.035 . S
Zn157 O163 2.035 . S
Zn157 O164 2.028 . S
O158 C154 1.258 1_655 S
O158 Zn159 2.035 . S
Zn159 O158 2.035 . S
Zn159 O160 2.028 . S
Zn159 O162 2.028 . S
Zn159 O165 2.035 . S
O160 Zn159 2.028 . S
O160 C166 1.219 1_655 S
O161 Zn157 2.035 . S
O161 C166 1.287 . S
O162 C155 1.247 . S
O162 Zn159 2.028 . S
O163 C155 1.258 1_455 S
O163 Zn157 2.035 . S
O164 Zn157 2.028 . S
O164 C167 1.211 1_455 S
O165 Zn159 2.035 . S
O165 C167 1.295 . S
C166 O160 1.219 1_455 S
C166 O161 1.287 . S
C167 O164 1.211 1_655 S
C167 O165 1.295 . S
C168 O170 1.247 . S
C168 O172 1.258 1_545 S
C169 O176 1.283 . S
C169 O177 1.223 1_565 S
O170 C168 1.247 . S
O170 Zn171 2.028 . S
Zn171 O170 2.028 . S
Zn171 O175 2.035 . S
Zn171 O177 2.035 . S
Zn171 O178 2.028 . S
O172 C168 1.258 1_565 S
O172 Zn173 2.035 . S
Zn173 O172 2.035 . S
Zn173 O174 2.028 . S
Zn173 O176 2.028 . S
Zn173 O179 2.035 . S
O174 Zn173 2.028 . S
O174 C180 1.247 1_565 S
O175 Zn171 2.035 . S
O175 C180 1.258 . S
O176 C169 1.283 . S
O176 Zn173 2.028 . S
O177 C169 1.223 1_545 S
O177 Zn171 2.035 . S
O178 Zn171 2.028 . S
O178 C181 1.247 1_545 S
O179 Zn173 2.035 . S
O179 C181 1.258 . S
C180 O174 1.247 1_545 S
C180 O175 1.258 . S
C181 O178 1.247 1_565 S
C181 O179 1.258 . S
C182 O184 1.247 . S
C182 O186 1.258 . S
C183 O190 1.247 . S
C183 O191 1.258 . S
O184 C182 1.247 . S
O184 Zn185 2.028 . S
Zn185 O184 2.028 . S
Zn185 O189 2.035 . S
Zn185 O191 2.035 . S
Zn185 O192 2.028 . S
O186 C182 1.258 . S
O186 Zn187 2.035 . S
Zn187 O186 2.035 . S
Zn187 O188 2.028 . S
Zn187 O190 2.028 . S
Zn187 O193 2.035 . S
O188 Zn187 2.028 . S
O188 C194 1.247 . S
O189 Zn185 2.035 . S
O189 C194 1.258 . S
O190 C183 1.247 . S
O190 Zn187 2.028 . S
O191 C183 1.258 . S
O191 Zn185 2.035 . S
O192 Zn185 2.028 . S
O192 C195 1.247 . S
O193 Zn187 2.035 . S
O193 C195 1.258 . S
C194 O188 1.247 . S
C194 O189 1.258 . S
C195 O192 1.247 . S
C195 O193 1.258 . S
C196 O198 1.247 . S
C196 O200 1.258 . S
C197 O204 1.247 . S
C197 O205 1.258 . S
O198 C196 1.247 . S
O198 Zn199 2.028 . S
Zn199 O198 2.028 . S
Zn199 O203 2.035 . S
Zn199 O205 2.035 . S
Zn199 O206 2.028 . S
O200 C196 1.258 . S
O200 Zn201 2.035 . S
Zn201 O200 2.035 . S
Zn201 O202 2.028 . S
Zn201 O204 2.028 . S
Zn201 O207 2.035 . S
O202 Zn201 2.028 . S
O202 C208 1.247 . S
O203 Zn199 2.035 . S
O203 C208 1.258 . S
O204 C197 1.247 . S
O204 Zn201 2.028 . S
O205 C197 1.258 . S
O205 Zn199 2.035 . S
O206 Zn199 2.028 . S
O206 C209 1.247 . S
O207 Zn201 2.035 . S
O207 C209 1.258 . S
C208 O202 1.247 . S
C208 O203 1.258 . S
C209 O206 1.247 . S
C209 O207 1.258 . S
C210 O212 1.247 . S
C210 O214 1.258 1_655 S
C211 O218 1.247 . S
C211 O219 1.258 1_455 S
O212 C210 1.247 . S
O212 Zn213 2.028 . S
Zn213 O212 2.028 . S
Zn213 O217 2.035 . S
Zn213 O219 2.035 . S
Zn213 O220 2.028 . S
O214 C210 1.258 1_455 S
O214 Zn215 2.035 . S
Zn215 O214 2.035 . S
Zn215 O216 2.028 . S
Zn215 O218 2.028 . S
Zn215 O221 2.035 . S
O216 Zn215 2.028 . S
O216 C222 1.247 1_455 S
O217 Zn213 2.035 . S
O217 C222 1.258 . S
O218 C211 1.247 . S
O218 Zn215 2.028 . S
O219 C211 1.258 1_655 S
O219 Zn213 2.035 . S
O220 Zn213 2.028 . S
O220 C223 1.247 1_655 S
O221 Zn215 2.035 . S
O221 C223 1.258 . S
C222 O216 1.247 1_655 S
C222 O217 1.258 . S
C223 O220 1.247 1_455 S
C223 O221 1.258 . S
H224 C232 0.950 . S
H225 C237 0.950 . S
H226 C234 0.950 . S
H227 C236 0.950 . S
H228 C238 0.950 . S
H229 C240 0.950 . S
H230 C242 0.950 . S
H231 C243 0.950 1_565 S
C232 H224 0.950 . S
C232 C233 1.386 . S
C232 C234 1.391 . S
C233 C232 1.386 . S
C233 C237 1.393 . S
C234 H226 0.950 . S
C234 C232 1.391 . S
C234 C235 1.400 . S
C235 C234 1.400 . S
C235 C236 1.398 . S
C235 C241 1.491 . S
C236 H227 0.950 . S
C236 C235 1.398 . S
C236 C237 1.391 . S
C237 H225 0.950 . S
C237 C233 1.393 . S
C237 C236 1.391 . S
C238 H228 0.950 . S
C238 C239 1.386 . S
C238 C240 1.391 . S
C239 C238 1.386 . S
C239 C243 1.393 . S
C240 H229 0.950 . S
C240 C238 1.391 . S
C240 C241 1.400 . S
C241 C235 1.491 . S
C241 C240 1.400 . S
C241 C242 1.398 . S
C242 H230 0.950 . S
C242 C241 1.398 . S
C242 C243 1.391 . S
C243 H231 0.950 1_545 S
C243 C239 1.393 . S
C243 C242 1.391 . S
H244 C252 0.950 . S
H245 C257 0.950 . S
H246 C254 0.950 . S
H247 C256 0.950 . S
H248 C258 0.950 . S
H249 C260 0.950 . S
H250 C262 0.950 . S
H251 C263 0.950 . S
C252 H244 0.950 . S
C252 C253 1.386 . S
C252 C254 1.391 . S
C253 C252 1.386 . S
C253 C257 1.393 . S
C254 H246 0.950 . S
C254 C252 1.391 . S
C254 C255 1.400 . S
C255 C254 1.400 . S
C255 C256 1.398 . S
C255 C261 1.491 . S
C256 H247 0.950 . S
C256 C255 1.398 . S
C256 C257 1.391 . S
C257 H245 0.950 . S
C257 C253 1.393 . S
C257 C256 1.391 . S
C258 H248 0.950 . S
C258 C259 1.386 . S
C258 C260 1.391 . S
C259 C258 1.386 . S
C259 C263 1.393 . S
C260 H249 0.950 . S
C260 C258 1.391 . S
C260 C261 1.400 . S
C261 C255 1.491 . S
C261 C260 1.400 . S
C261 C262 1.398 . S
C262 H250 0.950 . S
C262 C261 1.398 . S
C262 C263 1.391 . S
C263 H251 0.950 . S
C263 C259 1.393 . S
C263 C262 1.391 . S
H264 C272 0.950 . S
H265 C277 0.950 . S
H266 C274 0.950 . S
H267 C276 0.950 . S
H268 C278 0.950 . S
H269 C280 0.950 . S
H270 C282 0.950 . S
H271 C283 0.950 . S
C272 H264 0.950 . S
C272 C273 1.386 . S
C272 C274 1.391 . S
C273 C272 1.386 . S
C273 C277 1.393 . S
C274 H266 0.950 . S
C274 C272 1.391 . S
C274 C275 1.400 . S
C275 C274 1.400 . S
C275 C276 1.398 . S
C275 C281 1.491 . S
C276 H267 0.950 . S
C276 C275 1.398 . S
C276 C277 1.391 . S
C277 H265 0.950 . S
C277 C273 1.393 . S
C277 C276 1.391 . S
C278 H268 0.950 . S
C278 C279 1.386 . S
C278 C280 1.391 . S
C279 C278 1.386 . S
C279 C283 1.393 . S
C280 H269 0.950 . S
C280 C278 1.391 . S
C280 C281 1.400 . S
C281 C275 1.491 . S
C281 C280 1.400 . S
C281 C282 1.398 . S
C282 H270 0.950 . S
C282 C281 1.398 . S
C282 C283 1.391 . S
C283 H271 0.950 . S
C283 C279 1.393 . S
C283 C282 1.391 . S
H284 C292 0.950 1_655 S
H285 C297 0.950 . S
H286 C294 0.950 . S
H287 C296 0.950 . S
H288 C298 0.950 . S
H289 C300 0.950 . S
H290 C302 0.950 . S
H291 C303 0.950 . S
C292 H284 0.950 1_455 S
C292 C293 1.386 . S
C292 C294 1.391 . S
C293 C292 1.386 . S
C293 C297 1.393 . S
C294 H286 0.950 . S
C294 C292 1.391 . S
C294 C295 1.400 . S
C295 C294 1.400 . S
C295 C296 1.398 . S
C295 C301 1.491 . S
C296 H287 0.950 . S
C296 C295 1.398 . S
C296 C297 1.391 . S
C297 H285 0.950 . S
C297 C293 1.393 . S
C297 C296 1.391 . S
C298 H288 0.950 . S
C298 C299 1.386 . S
C298 C300 1.391 . S
C299 C298 1.386 . S
C299 C303 1.393 . S
C300 H289 0.950 . S
C300 C298 1.391 . S
C300 C301 1.400 . S
C301 C295 1.491 . S
C301 C300 1.400 . S
C301 C302 1.398 . S
C302 H290 0.950 . S
C302 C301 1.398 . S
C302 C303 1.391 . S
C303 H291 0.950 . S
C303 C299 1.393 . S
C303 C302 1.391 . S
H304 C312 0.950 . S
H305 C317 0.950 . S
H306 C314 0.950 . S
H307 C316 0.950 . S
H308 C318 0.950 . S
H309 C320 0.950 . S
H310 C322 0.950 . S
H311 C323 0.950 . S
C312 H304 0.950 . S
C312 C313 1.386 . S
C312 C314 1.391 . S
C313 C312 1.386 . S
C313 C317 1.393 . S
C314 H306 0.950 . S
C314 C312 1.391 . S
C314 C315 1.400 . S
C315 C314 1.400 . S
C315 C316 1.398 . S
C315 C321 1.491 . S
C316 H307 0.950 . S
C316 C315 1.398 . S
C316 C317 1.391 . S
C317 H305 0.950 . S
C317 C313 1.393 . S
C317 C316 1.391 . S
C318 H308 0.950 . S
C318 C319 1.386 . S
C318 C320 1.391 . S
C319 C318 1.386 . S
C319 C323 1.393 . S
C320 H309 0.950 . S
C320 C318 1.391 . S
C320 C321 1.400 . S
C321 C315 1.491 . S
C321 C320 1.400 . S
C321 C322 1.398 . S
C322 H310 0.950 . S
C322 C321 1.398 . S
C322 C323 1.391 . S
C323 H311 0.950 . S
C323 C319 1.393 . S
C323 C322 1.391 . S
H324 C332 0.950 . S
H325 C337 0.950 . S
H326 C334 0.950 . S
H327 C336 0.950 . S
H328 C338 0.950 . S
H329 C340 0.950 . S
H330 C342 0.950 . S
H331 C343 0.950 . S
C332 H324 0.950 . S
C332 C333 1.386 . S
C332 C334 1.391 . S
C333 C332 1.386 . S
C333 C337 1.393 . S
C334 H326 0.950 . S
C334 C332 1.391 . S
C334 C335 1.400 . S
C335 C334 1.400 . S
C335 C336 1.398 . S
C335 C341 1.491 . S
C336 H327 0.950 . S
C336 C335 1.398 . S
C336 C337 1.391 . S
C337 H325 0.950 . S
C337 C333 1.393 . S
C337 C336 1.391 . S
C338 H328 0.950 . S
C338 C339 1.386 . S
C338 C340 1.391 . S
C339 C338 1.386 . S
C339 C343 1.393 . S
C340 H329 0.950 . S
C340 C338 1.391 . S
C340 C341 1.400 . S
C341 C335 1.491 . S
C341 C340 1.400 . S
C341 C342 1.398 . S
C342 H330 0.950 . S
C342 C341 1.398 . S
C342 C343 1.391 . S
C343 H331 0.950 . S
C343 C339 1.393 . S
C343 C342 1.391 . S
H344 C352 0.950 . S
H345 C357 0.983 . S
H346 C354 0.950 . S
H347 C356 0.950 . S
H348 C358 0.950 . S
H349 C360 0.950 . S
H350 C362 0.950 . S
H351 C363 0.950 . S
C352 H344 0.950 . S
C352 C353 1.386 . S
C352 C354 1.391 . S
C353 C352 1.386 . S
C353 C357 1.393 . S
C354 H346 0.950 . S
C354 C352 1.391 . S
C354 C355 1.400 . S
C355 C354 1.400 . S
C355 C356 1.398 . S
C355 C361 1.491 . S
C356 H347 0.950 . S
C356 C355 1.398 . S
C356 C357 1.391 . S
C357 H345 0.983 . S
C357 C353 1.393 . S
C357 C356 1.391 . S
C358 H348 0.950 . S
C358 C359 1.386 . S
C358 C360 1.391 . S
C359 C358 1.386 . S
C359 C363 1.393 . S
C360 H349 0.950 . S
C360 C358 1.391 . S
C360 C361 1.400 . S
C361 C355 1.491 . S
C361 C360 1.400 . S
C361 C362 1.398 . S
C362 H350 0.950 . S
C362 C361 1.398 . S
C362 C363 1.391 . S
C363 H351 0.950 . S
C363 C359 1.393 . S
C363 C362 1.391 . S
H364 C372 0.950 . S
H365 C377 0.950 . S
H366 C374 0.950 . S
H367 C376 0.950 . S
H368 C378 0.950 . S
H369 C380 0.950 . S
H370 C382 0.950 . S
H371 C383 0.950 1_565 S
C372 H364 0.950 . S
C372 C373 1.386 . S
C372 C374 1.391 . S
C373 C372 1.386 . S
C373 C377 1.393 . S
C374 H366 0.950 . S
C374 C372 1.391 . S
C374 C375 1.400 . S
C375 C374 1.400 . S
C375 C376 1.398 . S
C375 C381 1.491 . S
C376 H367 0.950 . S
C376 C375 1.398 . S
C376 C377 1.391 . S
C377 H365 0.950 . S
C377 C373 1.393 . S
C377 C376 1.391 . S
C378 H368 0.950 . S
C378 C379 1.386 . S
C378 C380 1.391 . S
C379 C378 1.386 . S
C379 C383 1.393 . S
C380 H369 0.950 . S
C380 C378 1.391 . S
C380 C381 1.400 . S
C381 C375 1.491 . S
C381 C380 1.400 . S
C381 C382 1.398 . S
C382 H370 0.950 . S
C382 C381 1.398 . S
C382 C383 1.391 . S
C383 H371 0.950 1_545 S
C383 C379 1.393 . S
C383 C382 1.391 . S
H384 C392 0.950 . S
H385 C397 0.950 1_554 S
H386 C394 0.950 . S
H387 C396 0.950 . S
H388 C398 0.950 . S
H389 C400 0.950 . S
H390 C402 0.950 . S
H391 C403 0.950 . S
C392 H384 0.950 . S
C392 C393 1.386 . S
C392 C394 1.391 . S
C393 C392 1.386 . S
C393 C397 1.393 . S
C394 H386 0.950 . S
C394 C392 1.391 . S
C394 C395 1.400 . S
C395 C394 1.400 . S
C395 C396 1.398 . S
C395 C401 1.491 . S
C396 H387 0.950 . S
C396 C395 1.398 . S
C396 C397 1.391 . S
C397 H385 0.950 1_556 S
C397 C393 1.393 . S
C397 C396 1.391 . S
C398 H388 0.950 . S
C398 C399 1.386 . S
C398 C400 1.391 . S
C399 C398 1.386 . S
C399 C403 1.393 1_565 S
C400 H389 0.950 . S
C400 C398 1.391 . S
C400 C401 1.400 . S
C401 C395 1.491 . S
C401 C400 1.400 . S
C401 C402 1.398 . S
C402 H390 0.950 . S
C402 C401 1.398 . S
C402 C403 1.391 1_565 S
C403 H391 0.950 . S
C403 C399 1.393 1_545 S
C403 C402 1.391 1_545 S
H404 C412 0.950 . S
H405 C417 0.950 . S
H406 C414 0.950 . S
H407 C416 0.950 . S
H408 C418 0.950 . S
H409 C420 0.950 . S
H410 C422 0.950 . S
H411 C423 0.950 1_554 S
C412 H404 0.950 . S
C412 C413 1.386 . S
C412 C414 1.391 . S
C413 C412 1.386 . S
C413 C417 1.393 . S
C414 H406 0.950 . S
C414 C412 1.391 . S
C414 C415 1.400 . S
C415 C414 1.400 . S
C415 C416 1.398 . S
C415 C421 1.491 . S
C416 H407 0.950 . S
C416 C415 1.398 . S
C416 C417 1.391 . S
C417 H405 0.950 . S
C417 C413 1.393 . S
C417 C416 1.391 . S
C418 H408 0.950 . S
C418 C419 1.386 . S
C418 C420 1.391 . S
C419 C418 1.386 . S
C419 C423 1.393 . S
C420 H409 0.950 . S
C420 C418 1.391 . S
C420 C421 1.400 . S
C421 C415 1.491 . S
C421 C420 1.400 . S
C421 C422 1.398 . S
C422 H410 0.950 . S
C422 C421 1.398 . S
C422 C423 1.391 . S
C423 H411 0.950 1_556 S
C423 C419 1.393 . S
C423 C422 1.391 . S
H424 C432 0.950 . S
H425 C437 0.950 . S
H426 C434 0.950 . S
H427 C436 0.950 . S
H428 C438 0.950 . S
H429 C440 0.950 . S
H430 C442 0.950 . S
H431 C443 0.950 . S
C432 H424 0.950 . S
C432 C433 1.386 . S
C432 C434 1.391 . S
C433 C432 1.386 . S
C433 C437 1.393 . S
C434 H426 0.950 . S
C434 C432 1.391 . S
C434 C435 1.400 . S
C435 C434 1.400 . S
C435 C436 1.398 . S
C435 C441 1.491 . S
C436 H427 0.950 . S
C436 C435 1.398 . S
C436 C437 1.391 . S
C437 H425 0.950 . S
C437 C433 1.393 . S
C437 C436 1.391 . S
C438 H428 0.950 . S
C438 C439 1.386 . S
C438 C440 1.391 . S
C439 C438 1.386 . S
C439 C443 1.393 . S
C440 H429 0.950 . S
C440 C438 1.391 . S
C440 C441 1.400 . S
C441 C435 1.491 . S
C441 C440 1.400 . S
C441 C442 1.398 . S
C442 H430 0.950 . S
C442 C441 1.398 . S
C442 C443 1.391 . S
C443 H431 0.950 . S
C443 C439 1.393 . S
C443 C442 1.391 . S
H444 C452 0.950 . S
H445 C457 0.934 1_455 S
H446 C454 0.950 . S
H447 C456 0.950 . S
H448 C458 0.950 . S
H449 C460 0.950 . S
H450 C462 0.950 . S
H451 C463 0.950 . S
C452 H444 0.950 . S
C452 C453 1.386 . S
C452 C454 1.391 . S
C453 C452 1.386 . S
C453 C457 1.412 . S
C454 H446 0.950 . S
C454 C452 1.391 . S
C454 C455 1.400 . S
C455 C454 1.400 . S
C455 C456 1.398 1_655 S
C455 C461 1.491 . S
C456 H447 0.950 . S
C456 C455 1.398 1_455 S
C456 C457 1.389 1_455 S
C457 H445 0.934 1_655 S
C457 C453 1.412 . S
C457 C456 1.389 1_655 S
C458 H448 0.950 . S
C458 C459 1.366 1_455 S
C458 C460 1.391 . S
C459 C458 1.366 1_655 S
C459 C463 1.416 . S
C460 H449 0.950 . S
C460 C458 1.391 . S
C460 C461 1.400 1_455 S
C461 C455 1.491 . S
C461 C460 1.400 1_655 S
C461 C462 1.398 . S
C462 H450 0.950 . S
C462 C461 1.398 . S
C462 C463 1.391 . S
C463 H451 0.950 . S
C463 C459 1.416 . S
C463 C462 1.391 . S
H464 C472 0.950 . S
H465 C477 0.950 . S
H466 C474 0.950 . S
H467 C476 0.950 . S
H468 C478 0.950 . S
H469 C480 0.950 . S
H470 C482 0.950 . S
H471 C483 0.950 . S
C472 H464 0.950 . S
C472 C473 1.386 . S
C472 C474 1.391 . S
C473 C472 1.386 . S
C473 C477 1.393 1_545 S
C474 H466 0.950 . S
C474 C472 1.391 . S
C474 C475 1.400 . S
C475 C474 1.400 . S
C475 C476 1.398 1_545 S
C475 C481 1.491 . S
C476 H467 0.950 . S
C476 C475 1.398 1_565 S
C476 C477 1.391 . S
C477 H465 0.950 . S
C477 C473 1.393 1_565 S
C477 C476 1.391 . S
C478 H468 0.950 . S
C478 C479 1.386 1_565 S
C478 C480 1.391 . S
C479 C478 1.386 1_545 S
C479 C483 1.393 . S
C480 H469 0.950 . S
C480 C478 1.391 . S
C480 C481 1.400 1_565 S
C481 C475 1.491 . S
C481 C480 1.400 1_545 S
C481 C482 1.398 . S
C482 H470 0.950 . S
C482 C481 1.398 . S
C482 C483 1.391 . S
C483 H471 0.950 . S
C483 C479 1.393 . S
C483 C482 1.391 . S
H484 C492 0.950 . S
H485 C497 0.950 . S
H486 C494 0.950 . S
H487 C496 0.950 . S
H488 C498 0.950 . S
H489 C500 0.950 . S
H490 C502 0.950 . S
H491 C503 0.950 . S
C492 H484 0.950 . S
C492 C493 1.386 . S
C492 C494 1.391 . S
C493 C492 1.386 . S
C493 C497 1.393 . S
C494 H486 0.950 . S
C494 C492 1.391 . S
C494 C495 1.400 . S
C495 C494 1.400 . S
C495 C496 1.398 . S
C495 C501 1.491 . S
C496 H487 0.950 . S
C496 C495 1.398 . S
C496 C497 1.391 . S
C497 H485 0.950 . S
C497 C493 1.393 . S
C497 C496 1.391 . S
C498 H488 0.950 . S
C498 C499 1.386 . S
C498 C500 1.391 . S
C499 C498 1.386 . S
C499 C503 1.393 . S
C500 H489 0.950 . S
C500 C498 1.391 . S
C500 C501 1.400 . S
C501 C495 1.491 . S
C501 C500 1.400 . S
C501 C502 1.398 . S
C502 H490 0.950 . S
C502 C501 1.398 . S
C502 C503 1.391 . S
C503 H491 0.950 . S
C503 C499 1.393 . S
C503 C502 1.391 . S
H504 C512 0.950 . S
H505 C517 0.950 . S
H506 C514 0.950 . S
H507 C516 0.950 . S
H508 C518 0.950 . S
H509 C520 0.950 . S
H510 C522 0.950 . S
H511 C523 0.950 . S
C512 H504 0.950 . S
C512 C513 1.386 . S
C512 C514 1.391 . S
C513 C512 1.386 . S
C513 C517 1.393 . S
C514 H506 0.950 . S
C514 C512 1.391 . S
C514 C515 1.400 . S
C515 C514 1.400 . S
C515 C516 1.398 . S
C515 C521 1.491 . S
C516 H507 0.950 . S
C516 C515 1.398 . S
C516 C517 1.391 . S
C517 H505 0.950 . S
C517 C513 1.393 . S
C517 C516 1.391 . S
C518 H508 0.950 . S
C518 C519 1.386 . S
C518 C520 1.391 . S
C519 C518 1.386 . S
C519 C523 1.393 . S
C520 H509 0.950 . S
C520 C518 1.391 . S
C520 C521 1.400 . S
C521 C515 1.491 . S
C521 C520 1.400 . S
C521 C522 1.398 . S
C522 H510 0.950 . S
C522 C521 1.398 . S
C522 C523 1.391 . S
C523 H511 0.950 . S
C523 C519 1.393 . S
C523 C522 1.391 . S
H524 C532 0.950 . S
H525 C537 0.950 . S
H526 C534 0.950 . S
H527 C536 0.950 . S
H528 C538 0.950 . S
H529 C540 0.950 . S
H530 C542 0.950 . S
H531 C543 0.950 . S
C532 H524 0.950 . S
C532 C533 1.386 1_655 S
C532 C534 1.391 . S
C533 C532 1.386 1_455 S
C533 C537 1.393 . S
C534 H526 0.950 . S
C534 C532 1.391 . S
C534 C535 1.400 1_655 S
C535 C534 1.400 1_455 S
C535 C536 1.398 . S
C535 C541 1.491 . S
C536 H527 0.950 . S
C536 C535 1.398 . S
C536 C537 1.391 . S
C537 H525 0.950 . S
C537 C533 1.393 . S
C537 C536 1.391 . S
C538 H528 0.950 . S
C538 C539 1.386 . S
C538 C540 1.391 . S
C539 C538 1.386 . S
C539 C543 1.393 1_455 S
C540 H529 0.950 . S
C540 C538 1.391 . S
C540 C541 1.400 . S
C541 C535 1.491 . S
C541 C540 1.400 . S
C541 C542 1.398 1_455 S
C542 H530 0.950 . S
C542 C541 1.398 1_655 S
C542 C543 1.391 . S
C543 H531 0.950 . S
C543 C539 1.393 1_655 S
C543 C542 1.391 . S
H544 C552 0.950 . S
H545 C557 0.950 . S
H546 C554 0.950 . S
H547 C556 0.950 . S
H548 C558 0.950 . S
H549 C560 0.950 . S
H550 C562 0.950 . S
H551 C563 0.950 . S
C552 H544 0.950 . S
C552 C553 1.386 1_565 S
C552 C554 1.391 . S
C553 C552 1.386 1_545 S
C553 C557 1.393 . S
C554 H546 0.950 . S
C554 C552 1.391 . S
C554 C555 1.400 1_565 S
C555 C554 1.400 1_545 S
C555 C556 1.398 . S
C555 C561 1.491 . S
C556 H547 0.950 . S
C556 C555 1.398 . S
C556 C557 1.391 . S
C557 H545 0.950 . S
C557 C553 1.393 . S
C557 C556 1.391 . S
C558 H548 0.950 . S
C558 C559 1.386 . S
C558 C560 1.391 . S
C559 C558 1.386 . S
C559 C563 1.393 1_545 S
C560 H549 0.950 . S
C560 C558 1.391 . S
C560 C561 1.400 . S
C561 C555 1.491 . S
C561 C560 1.400 . S
C561 C562 1.398 1_545 S
C562 H550 0.950 . S
C562 C561 1.398 1_565 S
C562 C563 1.391 . S
C563 H551 0.950 . S
C563 C559 1.393 1_565 S
C563 C562 1.391 . S
H564 C572 0.950 . S
H565 C577 0.950 . S
H566 C574 0.950 . S
H567 C576 0.950 . S
H568 C578 0.950 . S
H569 C580 0.950 . S
H570 C582 0.950 . S
H571 C583 0.950 1_556 S
C572 H564 0.950 . S
C572 C573 1.386 . S
C572 C574 1.391 . S
C573 C572 1.386 . S
C573 C577 1.393 . S
C574 H566 0.950 . S
C574 C572 1.391 . S
C574 C575 1.400 . S
C575 C574 1.400 . S
C575 C576 1.398 . S
C575 C581 1.491 . S
C576 H567 0.950 . S
C576 C575 1.398 . S
C576 C577 1.391 . S
C577 H565 0.950 . S
C577 C573 1.393 . S
C577 C576 1.391 . S
C578 H568 0.950 . S
C578 C579 1.386 . S
C578 C580 1.391 . S
C579 C578 1.386 . S
C579 C583 1.393 . S
C580 H569 0.950 . S
C580 C578 1.391 . S
C580 C581 1.400 . S
C581 C575 1.491 . S
C581 C580 1.400 . S
C581 C582 1.398 . S
C582 H570 0.950 . S
C582 C581 1.398 . S
C582 C583 1.391 . S
C583 H571 0.950 1_554 S
C583 C579 1.393 . S
C583 C582 1.391 . S
H584 C592 0.950 . S
H585 C597 0.950 . S
H586 C594 0.950 . S
H587 C596 0.950 . S
H588 C598 0.950 . S
H589 C600 0.950 . S
H590 C602 0.950 . S
H591 C603 0.950 . S
C592 H584 0.950 . S
C592 C593 1.386 . S
C592 C594 1.391 . S
C593 C592 1.386 . S
C593 C597 1.393 . S
C594 H586 0.950 . S
C594 C592 1.391 . S
C594 C595 1.400 . S
C595 C594 1.400 . S
C595 C596 1.398 . S
C595 C601 1.491 . S
C596 H587 0.950 . S
C596 C595 1.398 . S
C596 C597 1.391 . S
C597 H585 0.950 . S
C597 C593 1.393 . S
C597 C596 1.391 . S
C598 H588 0.950 . S
C598 C599 1.386 . S
C598 C600 1.391 . S
C599 C598 1.386 . S
C599 C603 1.393 . S
C600 H589 0.950 . S
C600 C598 1.391 . S
C600 C601 1.400 . S
C601 C595 1.491 . S
C601 C600 1.400 . S
C601 C602 1.398 . S
C602 H590 0.950 . S
C602 C601 1.398 . S
C602 C603 1.391 . S
C603 H591 0.950 . S
C603 C599 1.393 . S
C603 C602 1.391 . S
H604 C612 0.963 1_655 S
H605 C617 0.950 . S
H606 C614 0.954 . S
H607 C616 0.950 . S
H608 C618 0.950 . S
H609 C620 0.950 . S
H610 C622 0.950 . S
H611 C623 0.950 . S
C612 H604 0.963 1_455 S
C612 C613 1.386 . S
C612 C614 1.391 1_455 S
C613 C612 1.386 . S
C613 C617 1.393 . S
C614 H606 0.954 . S
C614 C612 1.391 1_655 S
C614 C615 1.397 1_655 S
C615 C614 1.397 1_455 S
C615 C616 1.398 . S
C615 C621 1.491 . S
C616 H607 0.950 . S
C616 C615 1.398 . S
C616 C617 1.391 . S
C617 H605 0.950 . S
C617 C613 1.393 . S
C617 C616 1.391 . S
C618 H608 0.950 . S
C618 C619 1.386 . S
C618 C620 1.391 . S
C619 C618 1.386 . S
C619 C623 1.393 1_455 S
C620 H609 0.950 . S
C620 C618 1.391 . S
C620 C621 1.400 . S
C621 C615 1.491 . S
C621 C620 1.400 . S
C621 C622 1.398 1_455 S
C622 H610 0.950 . S
C622 C621 1.398 1_655 S
C622 C623 1.391 . S
C623 H611 0.950 . S
C623 C619 1.393 1_655 S
C623 C622 1.391 . S
H624 C632 0.950 . S
H625 C637 0.950 . S
H626 C634 0.950 . S
H627 C636 0.950 . S
H628 C638 0.950 . S
H629 C640 0.950 . S
H630 C642 0.950 . S
H631 C643 0.950 . S
C632 H624 0.950 . S
C632 C633 1.386 1_545 S
C632 C634 1.391 . S
C633 C632 1.386 1_565 S
C633 C637 1.393 . S
C634 H626 0.950 . S
C634 C632 1.391 . S
C634 C635 1.400 1_545 S
C635 C634 1.400 1_565 S
C635 C636 1.398 . S
C635 C641 1.491 . S
C636 H627 0.950 . S
C636 C635 1.398 . S
C636 C637 1.391 . S
C637 H625 0.950 . S
C637 C633 1.393 . S
C637 C636 1.391 . S
C638 H628 0.950 . S
C638 C639 1.386 . S
C638 C640 1.391 . S
C639 C638 1.386 . S
C639 C643 1.393 1_565 S
C640 H629 0.950 . S
C640 C638 1.391 . S
C640 C641 1.400 . S
C641 C635 1.491 . S
C641 C640 1.400 . S
C641 C642 1.398 1_565 S
C642 H630 0.950 . S
C642 C641 1.398 1_545 S
C642 C643 1.391 . S
C643 H631 0.950 . S
C643 C639 1.393 1_545 S
C643 C642 1.391 . S
H644 C652 0.950 . S
H645 C657 0.950 . S
H646 C654 0.950 . S
H647 C656 0.950 . S
H648 C658 0.950 . S
H649 C660 0.950 . S
H650 C662 0.950 . S
H651 C663 0.950 . S
C652 H644 0.950 . S
C652 C653 1.386 . S
C652 C654 1.391 . S
C653 C652 1.386 . S
C653 C657 1.393 . S
C654 H646 0.950 . S
C654 C652 1.391 . S
C654 C655 1.400 . S
C655 C654 1.400 . S
C655 C656 1.398 . S
C655 C661 1.491 . S
C656 H647 0.950 . S
C656 C655 1.398 . S
C656 C657 1.391 . S
C657 H645 0.950 . S
C657 C653 1.393 . S
C657 C656 1.391 . S
C658 H648 0.950 . S
C658 C659 1.386 . S
C658 C660 1.391 . S
C659 C658 1.386 . S
C659 C663 1.393 . S
C660 H649 0.950 . S
C660 C658 1.391 . S
C660 C661 1.400 . S
C661 C655 1.491 . S
C661 C660 1.400 . S
C661 C662 1.398 . S
C662 H650 0.950 . S
C662 C661 1.398 . S
C662 C663 1.391 . S
C663 H651 0.950 . S
C663 C659 1.393 . S
C663 C662 1.391 . S
H664 C672 0.950 . S
H665 C677 0.950 . S
H666 C674 0.950 . S
H667 C676 0.950 . S
H668 C678 0.950 . S
H669 C680 0.950 . S
H670 C682 0.950 . S
H671 C683 0.950 . S
C672 H664 0.950 . S
C672 C673 1.386 . S
C672 C674 1.391 . S
C673 C672 1.386 . S
C673 C677 1.393 . S
C674 H666 0.950 . S
C674 C672 1.391 . S
C674 C675 1.400 . S
C675 C674 1.400 . S
C675 C676 1.398 . S
C675 C681 1.491 . S
C676 H667 0.950 . S
C676 C675 1.398 . S
C676 C677 1.391 . S
C677 H665 0.950 . S
C677 C673 1.393 . S
C677 C676 1.391 . S
C678 H668 0.950 . S
C678 C679 1.386 . S
C678 C680 1.391 . S
C679 C678 1.386 . S
C679 C683 1.393 . S
C680 H669 0.950 . S
C680 C678 1.391 . S
C680 C681 1.400 . S
C681 C675 1.491 . S
C681 C680 1.400 . S
C681 C682 1.398 . S
C682 H670 0.950 . S
C682 C681 1.398 . S
C682 C683 1.391 . S
C683 H671 0.950 . S
C683 C679 1.393 . S
C683 C682 1.391 . S
H684 C692 0.950 . S
H685 C697 0.950 . S
H686 C694 0.950 . S
H687 C696 0.950 . S
H688 C698 0.950 . S
H689 C700 0.950 . S
H690 C702 0.950 . S
H691 C703 0.950 . S
C692 H684 0.950 . S
C692 C693 1.386 . S
C692 C694 1.391 . S
C693 C692 1.386 . S
C693 C697 1.393 1_655 S
C694 H686 0.950 . S
C694 C692 1.391 . S
C694 C695 1.400 . S
C695 C694 1.400 . S
C695 C696 1.398 1_655 S
C695 C701 1.491 . S
C696 H687 0.950 . S
C696 C695 1.398 1_455 S
C696 C697 1.391 . S
C697 H685 0.950 . S
C697 C693 1.393 1_455 S
C697 C696 1.391 . S
C698 H688 0.950 . S
C698 C699 1.386 1_455 S
C698 C700 1.391 . S
C699 C698 1.386 1_655 S
C699 C703 1.393 . S
C700 H689 0.950 . S
C700 C698 1.391 . S
C700 C701 1.400 1_455 S
C701 C695 1.491 . S
C701 C700 1.400 1_655 S
C701 C702 1.398 . S
C702 H690 0.950 . S
C702 C701 1.398 . S
C702 C703 1.391 . S
C703 H691 0.950 . S
C703 C699 1.393 . S
C703 C702 1.391 . S
H704 C712 0.950 . S
H705 C717 0.950 . S
H706 C714 0.950 . S
H707 C716 0.950 . S
H708 C718 0.950 . S
H709 C720 0.950 . S
H710 C722 0.950 . S
H711 C723 0.950 . S
C712 H704 0.950 . S
C712 C713 1.386 . S
C712 C714 1.391 . S
C713 C712 1.386 . S
C713 C717 1.393 1_546 S
C714 H706 0.950 . S
C714 C712 1.391 . S
C714 C715 1.409 . S
C715 C714 1.409 . S
C715 C716 1.391 1_546 S
C715 C721 1.490 1_546 S
C716 H707 0.950 . S
C716 C715 1.391 1_564 S
C716 C717 1.391 . S
C717 H705 0.950 . S
C717 C713 1.393 1_564 S
C717 C716 1.391 . S
C718 H708 0.950 . S
C718 C719 1.386 . S
C718 C720 1.391 . S
C719 C718 1.386 . S
C719 C723 1.393 1_564 S
C720 H709 0.950 . S
C720 C718 1.391 . S
C720 C721 1.412 . S
C721 C715 1.490 1_564 S
C721 C720 1.412 . S
C721 C722 1.388 1_564 S
C722 H710 0.950 . S
C722 C721 1.388 1_546 S
C722 C723 1.391 . S
C723 H711 0.950 . S
C723 C719 1.393 1_546 S
C723 C722 1.391 . S
H724 C732 0.950 . S
H725 C737 0.950 . S
H726 C734 0.950 . S
H727 C736 0.949 1_554 S
H728 C738 0.950 . S
H729 C740 0.950 . S
H730 C742 0.949 1_556 S
H731 C743 0.950 . S
C732 H724 0.950 . S
C732 C733 1.386 . S
C732 C734 1.391 . S
C733 C732 1.386 . S
C733 C737 1.393 . S
C734 H726 0.950 . S
C734 C732 1.391 . S
C734 C735 1.400 . S
C735 C734 1.400 . S
C735 C736 1.398 . S
C735 C741 1.491 1_556 S
C736 H727 0.949 1_556 S
C736 C735 1.398 . S
C736 C737 1.391 . S
C737 H725 0.950 . S
C737 C733 1.393 . S
C737 C736 1.391 . S
C738 H728 0.950 . S
C738 C739 1.386 . S
C738 C740 1.391 . S
C739 C738 1.386 . S
C739 C743 1.393 . S
C740 H729 0.950 . S
C740 C738 1.391 . S
C740 C741 1.400 . S
C741 C735 1.491 1_554 S
C741 C740 1.400 . S
C741 C742 1.398 . S
C742 H730 0.949 1_554 S
C742 C741 1.398 . S
C742 C743 1.391 . S
C743 H731 0.950 . S
C743 C739 1.393 . S
C743 C742 1.391 . S
H744 C752 0.950 . S
H745 C757 0.950 . S
H746 C754 0.950 1_556 S
H747 C756 0.950 . S
H748 C758 0.950 . S
H749 C760 0.950 1_554 S
H750 C762 0.950 . S
H751 C763 0.950 . S
C752 H744 0.950 . S
C752 C753 1.386 . S
C752 C754 1.391 . S
C753 C752 1.386 . S
C753 C757 1.393 . S
C754 H746 0.950 1_554 S
C754 C752 1.391 . S
C754 C755 1.400 . S
C755 C754 1.400 . S
C755 C756 1.398 . S
C755 C761 1.491 1_654 S
C756 H747 0.950 . S
C756 C755 1.398 . S
C756 C757 1.391 . S
C757 H745 0.950 . S
C757 C753 1.393 . S
C757 C756 1.391 . S
C758 H748 0.950 . S
C758 C759 1.386 . S
C758 C760 1.391 . S
C759 C758 1.386 . S
C759 C763 1.393 . S
C760 H749 0.950 1_556 S
C760 C758 1.391 . S
C760 C761 1.400 . S
C761 C755 1.491 1_456 S
C761 C760 1.400 . S
C761 C762 1.398 . S
C762 H750 0.950 . S
C762 C761 1.398 . S
C762 C763 1.391 . S
C763 H751 0.950 . S
C763 C759 1.393 . S
C763 C762 1.391 . S
H764 C772 0.950 . S
H765 C777 0.950 . S
H766 C774 0.950 . S
H767 C776 0.950 . S
H768 C778 0.950 . S
H769 C780 0.950 . S
H770 C782 0.950 . S
H771 C783 0.950 . S
C772 H764 0.950 . S
C772 C773 1.386 1_655 S
C772 C774 1.391 . S
C773 C772 1.386 1_455 S
C773 C777 1.393 1_556 S
C774 H766 0.950 . S
C774 C772 1.391 . S
C774 C775 1.392 1_655 S
C775 C774 1.392 1_455 S
C775 C776 1.407 1_556 S
C775 C781 1.490 1_446 S
C776 H767 0.950 . S
C776 C775 1.407 1_554 S
C776 C777 1.391 . S
C777 H765 0.950 . S
C777 C773 1.393 1_554 S
C777 C776 1.391 . S
C778 H768 0.950 . S
C778 C779 1.386 1_455 S
C778 C780 1.391 . S
C779 C778 1.386 1_655 S
C779 C783 1.393 1_554 S
C780 H769 0.950 . S
C780 C778 1.391 . S
C780 C781 1.385 1_455 S
C781 C775 1.490 1_664 S
C781 C780 1.385 1_655 S
C781 C782 1.415 1_554 S
C782 H770 0.950 . S
C782 C781 1.415 1_556 S
C782 C783 1.391 . S
C783 H771 0.950 . S
C783 C779 1.393 1_556 S
C783 C782 1.391 . S
H784 C792 0.950 . S
H785 C797 0.950 . S
H786 C794 0.950 . S
H787 C796 0.950 . S
H788 C798 0.950 . S
H789 C800 0.950 . S
H790 C802 0.950 . S
H791 C803 0.950 . S
C792 H784 0.950 . S
C792 C793 1.386 . S
C792 C794 1.391 . S
C793 C792 1.386 . S
C793 C797 1.393 1_545 S
C794 H786 0.950 . S
C794 C792 1.391 . S
C794 C795 1.405 . S
C795 C794 1.405 . S
C795 C796 1.395 1_545 S
C795 C801 1.489 1_445 S
C796 H787 0.950 . S
C796 C795 1.395 1_565 S
C796 C797 1.391 . S
C797 H785 0.950 . S
C797 C793 1.393 1_565 S
C797 C796 1.391 . S
C798 H788 0.950 . S
C798 C799 1.386 . S
C798 C800 1.391 . S
C799 C798 1.386 . S
C799 C803 1.393 1_565 S
C800 H789 0.950 . S
C800 C798 1.391 . S
C800 C801 1.407 . S
C801 C795 1.489 1_665 S
C801 C800 1.407 . S
C801 C802 1.394 1_565 S
C802 H790 0.950 . S
C802 C801 1.394 1_545 S
C802 C803 1.391 . S
C803 H791 0.950 . S
C803 C799 1.393 1_545 S
C803 C802 1.391 . S
H804 C812 0.950 . S
H805 C817 0.950 . S
H806 C814 0.950 . S
H807 C816 0.950 . S
H808 C818 0.950 . S
H809 C820 0.950 . S
H810 C822 0.950 . S
H811 C823 0.950 . S
C812 H804 0.950 . S
C812 C813 1.386 . S
C812 C814 1.391 . S
C813 C812 1.386 . S
C813 C817 1.393 . S
C814 H806 0.950 . S
C814 C812 1.391 . S
C814 C815 1.400 . S
C815 C814 1.400 . S
C815 C816 1.398 . S
C815 C821 1.491 1_565 S
C816 H807 0.950 . S
C816 C815 1.398 . S
C816 C817 1.391 . S
C817 H805 0.950 . S
C817 C813 1.393 . S
C817 C816 1.391 . S
C818 H808 0.950 . S
C818 C819 1.386 . S
C818 C820 1.391 . S
C819 C818 1.386 . S
C819 C823 1.393 . S
C820 H809 0.950 . S
C820 C818 1.391 . S
C820 C821 1.400 . S
C821 C815 1.491 1_545 S
C821 C820 1.400 . S
C821 C822 1.398 . S
C822 H810 0.950 . S
C822 C821 1.398 . S
C822 C823 1.391 . S
C823 H811 0.950 . S
C823 C819 1.393 . S
C823 C822 1.391 . S
H824 C832 0.950 . S
H825 C837 0.950 . S
H826 C834 0.950 . S
H827 C836 0.950 . S
H828 C838 0.950 . S
H829 C840 0.950 . S
H830 C842 0.950 . S
H831 C843 0.950 . S
C832 H824 0.950 . S
C832 C833 1.386 . S
C832 C834 1.391 . S
C833 C832 1.386 . S
C833 C837 1.393 . S
C834 H826 0.950 . S
C834 C832 1.391 . S
C834 C835 1.400 . S
C835 C834 1.400 . S
C835 C836 1.398 . S
C835 C841 1.491 . S
C836 H827 0.950 . S
C836 C835 1.398 . S
C836 C837 1.391 . S
C837 H825 0.950 . S
C837 C833 1.393 . S
C837 C836 1.391 . S
C838 H828 0.950 . S
C838 C839 1.386 . S
C838 C840 1.391 . S
C839 C838 1.386 . S
C839 C843 1.393 . S
C840 H829 0.950 . S
C840 C838 1.391 . S
C840 C841 1.400 . S
C841 C835 1.491 . S
C841 C840 1.400 . S
C841 C842 1.398 . S
C842 H830 0.950 . S
C842 C841 1.398 . S
C842 C843 1.391 . S
C843 H831 0.950 . S
C843 C839 1.393 . S
C843 C842 1.391 . S
H844 C852 0.950 . S
H845 C857 0.950 . S
H846 C854 0.950 . S
H847 C856 0.950 . S
H848 C858 0.950 . S
H849 C860 0.950 . S
H850 C862 0.950 . S
H851 C863 0.950 . S
C852 H844 0.950 . S
C852 C853 1.362 1_455 S
C852 C854 1.391 . S
C853 C852 1.362 1_655 S
C853 C857 1.417 . S
C854 H846 0.950 . S
C854 C852 1.391 . S
C854 C855 1.397 . S
C855 C854 1.397 . S
C855 C856 1.402 1_455 S
C855 C861 1.491 . S
C856 H847 0.950 . S
C856 C855 1.402 1_655 S
C856 C857 1.391 . S
C857 H845 0.950 . S
C857 C853 1.417 . S
C857 C856 1.391 . S
C858 H848 0.950 . S
C858 C859 1.354 1_655 S
C858 C860 1.391 . S
C859 C858 1.354 1_455 S
C859 C863 1.425 . S
C860 H849 0.950 . S
C860 C858 1.391 . S
C860 C861 1.397 1_655 S
C861 C855 1.491 . S
C861 C860 1.397 1_455 S
C861 C862 1.402 . S
C862 H850 0.950 . S
C862 C861 1.402 . S
C862 C863 1.391 . S
C863 H851 0.950 . S
C863 C859 1.425 . S
C863 C862 1.391 . S
C233 C82 0.822 . S
C239 C0 0.802 . S
C253 C97 1.041 . S
C259 C26 1.023 . S
C273 C40 0.800 . S
C279 C98 0.782 . S
C293 C42 0.516 . S
C299 C56 0.546 . S
C313 C112 0.797 . S
C319 C194 0.815 . S
C333 C196 1.010 . S
C339 C138 1.024 . S
C353 C211 0.819 . S
C359 C141 0.796 . S
C373 C155 0.494 . S
C379 C180 0.523 . S
C393 C1 1.880 1_556 S
C399 C168 1.891 1_565 S
C413 C182 2.038 . S
C419 C27 2.031 1_556 S
C433 C41 2.137 1_556 S
C439 C208 2.166 . S
C453 C43 1.970 1_556 S
C459 C223 1.975 1_655 S
C473 C57 1.961 . S
C479 C124 1.975 1_545 S
C493 C83 2.131 . S
C499 C126 2.173 . S
C513 C96 2.024 . S
C519 C153 2.044 . S
C533 C99 1.888 . S
C539 C167 1.893 1_455 S
C553 C68 1.878 1_545 S
C559 C113 1.878 1_554 S
C573 C70 2.041 . S
C579 C139 2.016 1_554 S
C593 C85 2.167 . S
C599 C140 2.129 1_554 S
C613 C154 1.959 1_554 S
C619 C110 1.974 1_455 S
C633 C12 1.974 1_565 S
C639 C181 1.964 . S
C653 C195 2.136 . S
C659 C14 2.174 . S
C673 C197 2.028 . S
C679 C28 2.041 . S
C693 C54 1.890 1_655 S
C699 C210 1.884 . S
C713 C125 1.462 . S
C719 C13 1.463 . S
C733 C127 1.541 . S
C739 C15 1.541 . S
C753 C29 1.865 . S
C759 C152 1.865 . S
C773 C166 1.706 . S
C779 C55 1.707 . S
C793 C69 1.711 . S
C799 C169 1.710 . S
C813 C183 1.849 . S
C819 C71 1.849 . S
C833 C209 1.561 . S
C839 C84 1.561 . S
C853 C222 1.446 . S
C859 C111 1.446 . S
