# Generated by pormake.
# Topology ecn, (8)-cn, num edge types: 1
# Building blocks:
#     Node 0, Type 0, BuildingBlock: TAGTUT_clean_sbu_3, # of connection points: 8
#     Node 1, Type 0, BuildingBlock: TAGTUT_clean_sbu_3, # of connection points: 8
#     Node 2, Type 0, BuildingBlock: TAGTUT_clean_sbu_3, # of connection points: 8
#     Node 3, Type 0, BuildingBlock: TAGTUT_clean_sbu_3, # of connection points: 8
#     Node 4, Type 0, BuildingBlock: TAGTUT_clean_sbu_3, # of connection points: 8
#     Node 5, Type 0, BuildingBlock: TAGTUT_clean_sbu_3, # of connection points: 8
#     Node 6, Type 0, BuildingBlock: TAGTUT_clean_sbu_3, # of connection points: 8
#     Node 7, Type 0, BuildingBlock: TAGTUT_clean_sbu_3, # of connection points: 8
#     Node 8, Type 0, BuildingBlock: TAGTUT_clean_sbu_3, # of connection points: 8
#     Edge 9, Type (0, 0), BuildingBlock: EYOCIG_clean_linker_4, # of connection points: 2
#     Edge 10, Type (0, 0), BuildingBlock: EYOCIG_clean_linker_4, # of connection points: 2
#     Edge 11, Type (0, 0), BuildingBlock: EYOCIG_clean_linker_4, # of connection points: 2
#     Edge 12, Type (0, 0), BuildingBlock: EYOCIG_clean_linker_4, # of connection points: 2
#     Edge 13, Type (0, 0), BuildingBlock: EYOCIG_clean_linker_4, # of connection points: 2
#     Edge 14, Type (0, 0), BuildingBlock: EYOCIG_clean_linker_4, # of connection points: 2
#     Edge 15, Type (0, 0), BuildingBlock: EYOCIG_clean_linker_4, # of connection points: 2
#     Edge 16, Type (0, 0), BuildingBlock: EYOCIG_clean_linker_4, # of connection points: 2
#     Edge 17, Type (0, 0), BuildingBlock: EYOCIG_clean_linker_4, # of connection points: 2
#     Edge 18, Type (0, 0), BuildingBlock: EYOCIG_clean_linker_4, # of connection points: 2
#     Edge 19, Type (0, 0), BuildingBlock: EYOCIG_clean_linker_4, # of connection points: 2
#     Edge 20, Type (0, 0), BuildingBlock: EYOCIG_clean_linker_4, # of connection points: 2
#     Edge 21, Type (0, 0), BuildingBlock: EYOCIG_clean_linker_4, # of connection points: 2
#     Edge 22, Type (0, 0), BuildingBlock: EYOCIG_clean_linker_4, # of connection points: 2
#     Edge 23, Type (0, 0), BuildingBlock: EYOCIG_clean_linker_4, # of connection points: 2
#     Edge 24, Type (0, 0), BuildingBlock: EYOCIG_clean_linker_4, # of connection points: 2
#     Edge 25, Type (0, 0), BuildingBlock: EYOCIG_clean_linker_4, # of connection points: 2
#     Edge 26, Type (0, 0), BuildingBlock: EYOCIG_clean_linker_4, # of connection points: 2
#     Edge 27, Type (0, 0), BuildingBlock: EYOCIG_clean_linker_4, # of connection points: 2
#     Edge 28, Type (0, 0), BuildingBlock: EYOCIG_clean_linker_4, # of connection points: 2
#     Edge 29, Type (0, 0), BuildingBlock: EYOCIG_clean_linker_4, # of connection points: 2
#     Edge 30, Type (0, 0), BuildingBlock: EYOCIG_clean_linker_4, # of connection points: 2
#     Edge 31, Type (0, 0), BuildingBlock: EYOCIG_clean_linker_4, # of connection points: 2
#     Edge 32, Type (0, 0), BuildingBlock: EYOCIG_clean_linker_4, # of connection points: 2
#     Edge 33, Type (0, 0), BuildingBlock: EYOCIG_clean_linker_4, # of connection points: 2
#     Edge 34, Type (0, 0), BuildingBlock: EYOCIG_clean_linker_4, # of connection points: 2
#     Edge 35, Type (0, 0), BuildingBlock: EYOCIG_clean_linker_4, # of connection points: 2
#     Edge 36, Type (0, 0), BuildingBlock: EYOCIG_clean_linker_4, # of connection points: 2
#     Edge 37, Type (0, 0), BuildingBlock: EYOCIG_clean_linker_4, # of connection points: 2
#     Edge 38, Type (0, 0), BuildingBlock: EYOCIG_clean_linker_4, # of connection points: 2
#     Edge 39, Type (0, 0), BuildingBlock: EYOCIG_clean_linker_4, # of connection points: 2
#     Edge 40, Type (0, 0), BuildingBlock: EYOCIG_clean_linker_4, # of connection points: 2
#     Edge 41, Type (0, 0), BuildingBlock: EYOCIG_clean_linker_4, # of connection points: 2
#     Edge 42, Type (0, 0), BuildingBlock: EYOCIG_clean_linker_4, # of connection points: 2
#     Edge 43, Type (0, 0), BuildingBlock: EYOCIG_clean_linker_4, # of connection points: 2
#     Edge 44, Type (0, 0), BuildingBlock: EYOCIG_clean_linker_4, # of connection points: 2
# Relax obj value: 0.151
# Max RMSD: 0.271
# Mean RMSD: 0.271
data_MOF--net-ecn--node1-TAGTUT_clean_sbu_3--edge1-EYOCIG_clean_linker_4
_symmetry_space_group_name_H-M    P1
_symmetry_Int_Tables_number       1
_symmetry_cell_setting            triclinic
loop_
_symmetry_equiv_pos_as_xyz
'x, y, z'
_cell_length_a     42.186729
_cell_length_b     42.19251
_cell_length_c     12.678703
_cell_angle_alpha  90.006289
_cell_angle_beta   89.993071
_cell_angle_gamma 119.95172
loop_
_atom_site_label
_atom_site_type_symbol
_atom_site_fract_x
_atom_site_fract_y
_atom_site_fract_z
_atom_type_partial_charge
C0 C 0.10052 0.2885 -0.01125 0.0
C1 C 0.96276 0.20492 0.00065 0.0
C2 C 0.98957 0.11984 0.04697 0.0
Mg3 Mg 0.17153 0.27587 0.01763 0.0
Mg4 Mg 0.16871 0.21001 0.87005 0.0
O5 O 0.14758 0.2227 -0.02195 0.0
Mg6 Mg 0.09586 0.21125 -0.04229 0.0
O7 O 0.04509 0.20519 0.94933 0.0
Mg8 Mg 0.03903 0.21078 0.10252 0.0
Mg9 Mg 0.00401 0.17513 0.86793 0.0
C10 C 0.09823 0.13498 0.93261 0.0
O11 O 0.09487 0.20786 0.7771 0.0
O12 O 0.22428 0.27322 0.05701 0.0
O13 O 0.03559 0.18218 0.72374 0.0
O14 O 0.19685 0.29444 0.85755 0.0
O15 O 0.21949 0.22843 0.94869 0.0
O16 O 0.1838 0.24936 0.74323 0.0
O17 O 0.09236 0.21158 0.13216 0.0
O18 O 0.14756 0.25554 0.18145 0.0
C19 C 0.11552 0.22972 0.20361 0.0
C20 C 0.23666 0.25343 0.01725 0.0
O21 O 0.08039 0.15072 -0.03719 0.0
O22 O 0.98622 0.21042 0.07162 0.0
O23 O 0.12908 0.15174 0.88395 0.0
O24 O 0.00573 0.14556 0.11603 0.0
O25 O 0.96459 0.19377 0.9077 0.0
O26 O 0.9869 0.12587 0.94989 0.0
O27 O 0.11681 0.27148 -0.04078 0.0
O28 O 0.07243 0.27323 0.05029 0.0
C29 C 0.1994 0.28333 0.76656 0.0
C30 C 0.06995 0.1953 0.70568 0.0
C31 C 0.71316 0.8109 -0.01351 0.0
C32 C 0.79724 0.75728 -0.00296 0.0
C33 C 0.88182 0.86935 0.04356 0.0
Mg34 Mg 0.72514 0.89415 0.01777 0.0
Mg35 Mg 0.79143 0.95831 0.8739 0.0
O36 O 0.77843 0.92373 -0.02035 0.0
Mg37 Mg 0.79022 0.88378 -0.04227 0.0
O38 O 0.79648 0.83923 0.94774 0.0
Mg39 Mg 0.79092 0.82724 0.10046 0.0
Mg40 Mg 0.8264 0.82828 0.86533 0.0
C41 C 0.86652 0.96282 0.93583 0.0
O42 O 0.79369 0.88672 0.77732 0.0
O43 O 0.72736 0.94913 0.06 0.0
O44 O 0.81884 0.85278 0.72222 0.0
O45 O 0.70706 0.90176 0.85794 0.0
O46 O 0.77263 0.99 -0.04533 0.0
O47 O 0.75252 0.93492 0.74581 0.0
O48 O 0.7896 0.87938 0.13193 0.0
O49 O 0.74496 0.8897 0.18111 0.0
C50 C 0.77097 0.88376 0.20326 0.0
C51 C 0.74729 0.9816 0.02251 0.0
O52 O 0.85083 0.92909 -0.03554 0.0
O53 O 0.79169 0.77511 0.06829 0.0
O54 O 0.84971 0.97709 0.8883 0.0
O55 O 0.85619 0.85956 0.11312 0.0
O56 O 0.8082 0.7703 0.90408 0.0
O57 O 0.87569 0.86062 0.94653 0.0
O58 O 0.73001 0.84426 -0.04227 0.0
O59 O 0.72849 0.79806 0.04786 0.0
C60 C 0.71847 0.91617 0.76789 0.0
C61 C 0.80588 0.87422 0.70521 0.0
C62 C 0.1901 0.90147 -0.01346 0.0
C63 C 0.24493 0.03937 -0.00019 0.0
C64 C 0.1331 0.01283 0.04552 0.0
Mg65 Mg 0.10647 0.83082 0.01665 0.0
Mg66 Mg 0.04332 0.83347 0.86907 0.0
O67 O 0.07738 0.8549 -0.02381 0.0
Mg68 Mg 0.11772 0.90659 -0.04443 0.0
O69 O 0.16262 0.95727 0.94738 0.0
Mg70 Mg 0.17427 0.96316 0.10067 0.0
Mg71 Mg 0.17404 0.99853 0.86637 0.0
C72 C 0.03903 0.90432 0.93028 0.0
O73 O 0.11547 0.90775 0.77483 0.0
O74 O 0.05117 0.77825 0.0569 0.0
O75 O 0.14941 0.96708 0.72205 0.0
O76 O 0.09971 0.80528 0.85699 0.0
O77 O 0.01101 0.78288 0.94893 0.0
O78 O 0.06744 0.81803 0.7426 0.0
O79 O 0.12157 0.91014 0.12991 0.0
O80 O 0.11011 0.85497 0.18015 0.0
C81 C 0.1164 0.88707 0.20174 0.0
C82 C 0.01895 0.76583 0.01767 0.0
O83 O 0.07262 0.92218 -0.03969 0.0
O84 O 0.22685 0.01583 0.07042 0.0
O85 O 0.02489 0.87334 0.88227 0.0
O86 O 0.14259 0.99659 0.11451 0.0
O87 O 0.23208 0.03773 0.90679 0.0
O88 O 0.1419 0.01564 0.9485 0.0
O89 O 0.15679 0.88533 -0.04259 0.0
O90 O 0.20308 0.92955 0.04812 0.0
C91 C 0.08596 0.80258 0.76607 0.0
C92 C 0.12801 0.93279 0.70367 0.0
C93 C 0.76695 0.62201 0.31879 0.0
C94 C 0.62891 0.53857 0.33096 0.0
C95 C 0.6558 0.45366 0.37926 0.0
Mg96 Mg 0.83767 0.60913 0.35063 0.0
Mg97 Mg 0.83516 0.54287 0.2056 0.0
O98 O 0.81361 0.5559 0.31136 0.0
Mg99 Mg 0.76195 0.54453 0.28977 0.0
O100 O 0.71126 0.5387 0.28042 0.0
Mg101 Mg 0.70516 0.54461 0.4334 0.0
Mg102 Mg 0.67013 0.50855 0.19931 0.0
C103 C 0.76417 0.46804 0.26697 0.0
O104 O 0.76106 0.54086 0.10912 0.0
O105 O 0.89016 0.60639 0.3926 0.0
O106 O 0.70179 0.5154 0.05556 0.0
O107 O 0.86357 0.62744 0.19102 0.0
O108 O 0.88552 0.56115 0.2866 0.0
O109 O 0.85112 0.5821 0.07819 0.0
O110 O 0.75824 0.54514 0.46402 0.0
O111 O 0.81331 0.58908 0.51406 0.0
C112 C 0.78124 0.56328 0.53576 0.0
C113 C 0.90253 0.58636 0.35472 0.0
O114 O 0.7463 0.48387 0.29598 0.0
O115 O 0.65245 0.54428 0.40182 0.0
O116 O 0.79525 0.4847 0.21942 0.0
O117 O 0.67184 0.4795 0.44801 0.0
O118 O 0.63064 0.52716 0.23831 0.0
O119 O 0.65315 0.45949 0.28201 0.0
O120 O 0.78318 0.60484 0.29026 0.0
O121 O 0.73876 0.60695 0.38002 0.0
C122 C 0.86656 0.61611 0.10079 0.0
C123 C 0.73613 0.52834 0.03765 0.0
C124 C 0.38028 0.14539 0.32123 0.0
C125 C 0.46387 0.09124 0.3348 0.0
C126 C 0.54886 0.2032 0.38028 0.0
Mg127 Mg 0.39282 0.22897 0.34996 0.0
Mg128 Mg 0.45894 0.2922 0.20354 0.0
O129 O 0.44605 0.25819 0.31095 0.0
Mg130 Mg 0.45756 0.21797 0.29071 0.0
O131 O 0.46362 0.17326 0.28258 0.0
Mg132 Mg 0.45795 0.1617 0.43583 0.0
Mg133 Mg 0.49363 0.16207 0.20135 0.0
C134 C 0.53391 0.29666 0.26669 0.0
O135 O 0.46107 0.22032 0.11003 0.0
O136 O 0.39532 0.28422 0.38967 0.0
O137 O 0.48653 0.18646 0.05684 0.0
O138 O 0.37453 0.23593 0.18951 0.0
O139 O 0.4403 0.3244 0.28228 0.0
O140 O 0.41988 0.26812 0.07609 0.0
O141 O 0.45705 0.21415 0.46518 0.0
O142 O 0.41289 0.22519 0.51415 0.0
C143 C 0.43878 0.21907 0.53652 0.0
C144 C 0.41515 0.31643 0.35048 0.0
O145 O 0.51815 0.26306 0.29646 0.0
O146 O 0.45837 0.10929 0.40549 0.0
O147 O 0.51719 0.31082 0.21808 0.0
O148 O 0.52315 0.19369 0.44938 0.0
O149 O 0.47501 0.10409 0.24175 0.0
O150 O 0.54283 0.19434 0.2833 0.0
O151 O 0.39729 0.17867 0.29158 0.0
O152 O 0.39552 0.13263 0.3832 0.0
C153 C 0.38586 0.24974 0.09877 0.0
C154 C 0.47351 0.20778 0.03864 0.0
C155 C 0.85687 0.235 0.3205 0.0
C156 C 0.91153 0.37301 0.33257 0.0
C157 C 0.79954 0.34627 0.37872 0.0
Mg158 Mg 0.77315 0.16435 0.35165 0.0
Mg159 Mg 0.70966 0.16692 0.20528 0.0
O160 O 0.74418 0.18852 0.31108 0.0
Mg161 Mg 0.78448 0.24012 0.28982 0.0
O162 O 0.82936 0.29079 0.28095 0.0
Mg163 Mg 0.84103 0.29685 0.43417 0.0
Mg164 Mg 0.84052 0.33197 0.19982 0.0
C165 C 0.70576 0.23796 0.26596 0.0
O166 O 0.78196 0.24108 0.10916 0.0
O167 O 0.71781 0.11208 0.39354 0.0
O168 O 0.81584 0.30037 0.05594 0.0
O169 O 0.76569 0.13813 0.1926 0.0
O170 O 0.67738 0.11679 0.28694 0.0
O171 O 0.73284 0.15037 0.07893 0.0
O172 O 0.78847 0.24386 0.46404 0.0
O173 O 0.77724 0.18881 0.51468 0.0
C174 C 0.78347 0.2209 0.53602 0.0
C175 C 0.68545 0.0998 0.35551 0.0
O176 O 0.73942 0.2558 0.29525 0.0
O177 O 0.89354 0.34952 0.40335 0.0
O178 O 0.69144 0.20694 0.21814 0.0
O179 O 0.8092 0.33019 0.44777 0.0
O180 O 0.89857 0.37131 0.23967 0.0
O181 O 0.80829 0.34901 0.28167 0.0
O182 O 0.82355 0.21877 0.29127 0.0
O183 O 0.8698 0.26315 0.38186 0.0
C184 C 0.75133 0.13487 0.10232 0.0
C185 C 0.79444 0.26606 0.03785 0.0
C186 C 0.43338 0.95548 0.65568 0.0
C187 C 0.29547 0.87179 0.6644 0.0
C188 C 0.32271 0.78678 0.70888 0.0
Mg189 Mg 0.50429 0.9427 0.68615 0.0
Mg190 Mg 0.50173 0.87674 0.53974 0.0
O191 O 0.48032 0.88952 0.64664 0.0
Mg192 Mg 0.42875 0.87823 0.62475 0.0
O193 O 0.3781 0.8724 0.61477 0.0
Mg194 Mg 0.37155 0.87752 0.7677 0.0
Mg195 Mg 0.33726 0.84269 0.53213 0.0
C196 C 0.43098 0.80171 0.59983 0.0
O197 O 0.42838 0.87517 0.44447 0.0
O198 O 0.55677 0.93977 0.7275 0.0
O199 O 0.36935 0.85028 0.38929 0.0
O200 O 0.53011 0.96123 0.52682 0.0
O201 O 0.55209 0.89478 0.62027 0.0
O202 O 0.51757 0.91616 0.41295 0.0
O203 O 0.42481 0.87842 0.79883 0.0
O204 O 0.47985 0.92253 0.8489 0.0
C205 C 0.44779 0.89671 0.87049 0.0
C206 C 0.56911 0.91979 0.68889 0.0
O207 O 0.41312 0.81748 0.62972 0.0
O208 O 0.31877 0.8771 0.73568 0.0
O209 O 0.46198 0.81852 0.55201 0.0
O210 O 0.33849 0.81222 0.77891 0.0
O211 O 0.29757 0.86098 0.57125 0.0
O212 O 0.32018 0.79316 0.61204 0.0
O213 O 0.44977 0.93851 0.62643 0.0
O214 O 0.40511 0.9401 0.71659 0.0
C215 C 0.53302 0.95012 0.43622 0.0
C216 C 0.40371 0.8631 0.37238 0.0
C217 C 0.0471 0.47858 0.65364 0.0
C218 C 0.13048 0.42388 0.66694 0.0
C219 C 0.21561 0.53584 0.71242 0.0
Mg220 Mg 0.06024 0.56242 0.68357 0.0
Mg221 Mg 0.12601 0.62527 0.53531 0.0
O222 O 0.11334 0.59126 0.64259 0.0
Mg223 Mg 0.12457 0.55084 0.62212 0.0
O224 O 0.13034 0.50591 0.61405 0.0
Mg225 Mg 0.12475 0.49449 0.76751 0.0
Mg226 Mg 0.16047 0.49474 0.53339 0.0
C227 C 0.20105 0.62931 0.59566 0.0
O228 O 0.12791 0.55301 0.44143 0.0
O229 O 0.06338 0.61792 0.72393 0.0
O230 O 0.15355 0.51923 0.3889 0.0
O231 O 0.04136 0.56936 0.52427 0.0
O232 O 0.10824 0.65787 0.61584 0.0
O233 O 0.08618 0.60159 0.40943 0.0
O234 O 0.12436 0.54715 0.7965 0.0
O235 O 0.0807 0.55866 0.84693 0.0
C236 C 0.10649 0.55233 0.86842 0.0
C237 C 0.08336 0.65011 0.68478 0.0
O238 O 0.18527 0.5958 0.6264 0.0
O239 O 0.12492 0.44193 0.73746 0.0
O240 O 0.18424 0.64345 0.54734 0.0
O241 O 0.18985 0.52625 0.78133 0.0
O242 O 0.14179 0.43675 0.574 0.0
O243 O 0.20967 0.52704 0.6154 0.0
O244 O 0.0642 0.51187 0.62421 0.0
O245 O 0.0623 0.46567 0.71522 0.0
C246 C 0.05226 0.58323 0.43341 0.0
C247 C 0.1405 0.54051 0.37037 0.0
C248 C 0.52365 0.568 0.65431 0.0
C249 C 0.57815 0.70572 0.66449 0.0
C250 C 0.46626 0.67927 0.71051 0.0
Mg251 Mg 0.43997 0.49719 0.68458 0.0
Mg252 Mg 0.37666 0.50026 0.53905 0.0
O253 O 0.41085 0.52137 0.64598 0.0
Mg254 Mg 0.45117 0.57291 0.62448 0.0
O255 O 0.49597 0.62349 0.61483 0.0
Mg256 Mg 0.50774 0.62982 0.76774 0.0
Mg257 Mg 0.50715 0.66444 0.53254 0.0
C258 C 0.37267 0.57108 0.60087 0.0
O259 O 0.44843 0.57349 0.44406 0.0
O260 O 0.38458 0.44471 0.72547 0.0
O261 O 0.48251 0.63254 0.38926 0.0
O262 O 0.43258 0.47162 0.5245 0.0
O263 O 0.34437 0.4497 0.6186 0.0
O264 O 0.4003 0.48483 0.41146 0.0
O265 O 0.45532 0.57662 0.79872 0.0
O266 O 0.44426 0.52144 0.848 0.0
C267 C 0.45053 0.55351 0.87011 0.0
C268 C 0.35231 0.4325 0.68681 0.0
O269 O 0.40631 0.58879 0.63031 0.0
O270 O 0.56015 0.68245 0.73578 0.0
O271 O 0.35832 0.54011 0.55283 0.0
O272 O 0.47581 0.66323 0.78007 0.0
O273 O 0.56521 0.70376 0.57146 0.0
O274 O 0.47504 0.68182 0.61353 0.0
O275 O 0.4903 0.55171 0.62531 0.0
O276 O 0.53657 0.59614 0.7157 0.0
C277 C 0.41861 0.46908 0.43398 0.0
C278 C 0.46099 0.59821 0.37209 0.0
C279 C 0.3016 0.26131 0.0372 0.0
C280 C 0.27311 0.26137 0.03851 0.0
C281 C 0.33332 0.25831 0.029 0.0
C282 C 0.3605 0.25629 0.04203 0.0
C283 C 0.74214 0.07309 0.03602 0.0
C284 C 0.74434 0.10242 0.04788 0.0
C285 C 0.73908 0.03836 0.04449 0.0
C286 C 0.73905 0.00983 0.04506 0.0
C287 C 0.96218 0.70078 0.03907 0.0
C288 C 0.99057 0.72938 0.03951 0.0
C289 C 0.92766 0.66884 0.03158 0.0
C290 C 0.89858 0.64156 0.04473 0.0
C291 C 0.78603 0.69773 0.09155 0.0
C292 C 0.79238 0.72251 0.03115 0.0
C293 C 0.77828 0.67282 0.17681 0.0
C294 C 0.77105 0.6504 0.24633 0.0
C295 C 0.30444 0.08758 0.0953 0.0
C296 C 0.27965 0.06912 0.0349 0.0
C297 C 0.3294 0.1051 0.18024 0.0
C298 C 0.35188 0.12071 0.24938 0.0
C299 C 0.91443 0.21631 0.09511 0.0
C300 C 0.93295 0.20992 0.03509 0.0
C301 C 0.89693 0.22394 0.17973 0.0
C302 C 0.88141 0.23102 0.24866 0.0
C303 C 0.96753 0.59451 0.37562 0.0
C304 C 0.93901 0.5945 0.37664 0.0
C305 C 0.99932 0.59168 0.3666 0.0
C306 C 0.02661 0.58975 0.37825 0.0
C307 C 0.40991 0.40798 0.3637 0.0
C308 C 0.41195 0.43716 0.37719 0.0
C309 C 0.40701 0.37332 0.37122 0.0
C310 C 0.40709 0.34485 0.372 0.0
C311 C 0.59408 0.00305 0.36824 0.0
C312 C 0.56499 0.9757 0.38038 0.0
C313 C 0.6286 0.03491 0.37691 0.0
C314 C 0.65707 0.06341 0.37766 0.0
C315 C 0.45231 0.03162 0.43003 0.0
C316 C 0.45879 0.05646 0.36965 0.0
C317 C 0.44453 0.00658 0.51494 0.0
C318 C 0.43736 0.98401 0.58397 0.0
C319 C 0.99613 0.43858 0.51256 0.0
C320 C 0.01864 0.45404 0.58172 0.0
C321 C 0.97112 0.42119 0.42763 0.0
C322 C 0.94629 0.40277 0.36731 0.0
C323 C 0.56345 0.55728 0.51191 0.0
C324 C 0.54813 0.56424 0.5817 0.0
C325 C 0.58065 0.54975 0.42628 0.0
C326 C 0.59902 0.54341 0.36555 0.0
C327 C 0.63402 0.92768 0.70926 0.0
C328 C 0.60555 0.92777 0.71061 0.0
C329 C 0.66579 0.92483 0.70011 0.0
C330 C 0.69307 0.92289 0.71213 0.0
C331 C 0.07561 0.70721 0.70563 0.0
C332 C 0.07555 0.67868 0.70656 0.0
C333 C 0.07828 0.74176 0.69717 0.0
C334 C 0.07988 0.77079 0.70967 0.0
C335 C 0.2605 0.33606 0.69799 0.0
C336 C 0.23132 0.30882 0.71024 0.0
C337 C 0.2952 0.36771 0.7069 0.0
C338 C 0.32379 0.3961 0.7083 0.0
C339 C 0.11139 0.33943 0.84771 0.0
C340 C 0.10435 0.31695 0.91695 0.0
C341 C 0.11902 0.36436 0.7626 0.0
C342 C 0.12546 0.38914 0.70204 0.0
C343 C 0.66262 0.77102 0.84438 0.0
C344 C 0.68494 0.78638 0.91402 0.0
C345 C 0.63779 0.7538 0.75905 0.0
C346 C 0.61299 0.73543 0.69865 0.0
C347 C 0.2471 0.88294 0.75916 0.0
C348 C 0.26559 0.87668 0.69867 0.0
C349 C 0.22984 0.8905 0.84454 0.0
C350 C 0.21454 0.89756 0.91415 0.0
C351 C 0.09809 0.04841 0.05839 0.0
C352 C 0.11259 0.03033 0.07324 0.0
C353 C 0.08903 0.07415 0.01794 0.0
C354 C 0.08967 0.10103 -0.01741 0.0
C355 C 0.95348 0.04923 0.06025 0.0
C356 C 0.97176 0.08181 0.07474 0.0
C357 C 0.92755 0.01435 0.02055 0.0
C358 C 0.90063 0.98806 -0.01452 0.0
C359 C 0.95244 0.90452 0.05507 0.0
C360 C 0.91989 0.88994 0.07055 0.0
C361 C 0.98729 0.91364 0.0146 0.0
C362 C 0.01363 0.91305 -0.0203 0.0
C363 C 0.76415 0.38152 0.39184 0.0
C364 C 0.77888 0.36363 0.40638 0.0
C365 C 0.75478 0.40712 0.35192 0.0
C366 C 0.75526 0.43395 0.31677 0.0
C367 C 0.62027 0.38313 0.3928 0.0
C368 C 0.63829 0.41571 0.40745 0.0
C369 C 0.59462 0.34829 0.35244 0.0
C370 C 0.56783 0.32199 0.31695 0.0
C371 C 0.61945 0.23823 0.39252 0.0
C372 C 0.58689 0.22374 0.40773 0.0
C373 C 0.65426 0.24733 0.35179 0.0
C374 C 0.68053 0.24675 0.31619 0.0
C375 C 0.42183 0.74064 0.68324 0.0
C376 C 0.42219 0.76752 0.64886 0.0
C377 C 0.43118 0.71494 0.72266 0.0
C378 C 0.44576 0.69691 0.73744 0.0
C379 C 0.26209 0.68117 0.67919 0.0
C380 C 0.23519 0.65473 0.64472 0.0
C381 C 0.28763 0.7161 0.71939 0.0
C382 C 0.3054 0.74865 0.73504 0.0
C383 C 0.32115 0.58048 0.686 0.0
C384 C 0.34749 0.57997 0.65081 0.0
C385 C 0.28619 0.57116 0.72585 0.0
C386 C 0.25359 0.55648 0.74025 0.0
C387 C 0.09018 0.20095 0.50766 0.0
C388 C 0.08145 0.19859 0.59861 0.0
C389 C 0.09932 0.20887 0.40086 0.0
C390 C 0.10661 0.21831 0.31062 0.0
C391 C 0.79175 0.88901 0.40053 0.0
C392 C 0.78243 0.88657 0.31017 0.0
C393 C 0.79968 0.88836 0.50746 0.0
C394 C 0.8022 0.88236 0.59853 0.0
C395 C 0.11326 0.91288 0.50547 0.0
C396 C 0.11971 0.92147 0.59648 0.0
C397 C 0.11192 0.90371 0.39866 0.0
C398 C 0.11399 0.89625 0.30855 0.0
C399 C 0.765 0.54199 0.73263 0.0
C400 C 0.77226 0.55159 0.64251 0.0
C401 C 0.75611 0.53396 0.83948 0.0
C402 C 0.74761 0.53165 0.93059 0.0
C403 C 0.4676 0.22219 0.84056 0.0
C404 C 0.47011 0.21587 0.93148 0.0
C405 C 0.45955 0.22348 0.73387 0.0
C406 C 0.45009 0.22145 0.64366 0.0
C407 C 0.77865 0.23735 0.73279 0.0
C408 C 0.7809 0.23006 0.64266 0.0
C409 C 0.77975 0.24624 0.8397 0.0
C410 C 0.7861 0.25468 0.93079 0.0
C411 C 0.42378 0.86858 0.17472 0.0
C412 C 0.41547 0.86642 0.26583 0.0
C413 C 0.43209 0.87606 0.06761 0.0
C414 C 0.4389 0.88521 -0.02282 0.0
C415 C 0.1353 0.5552 0.17216 0.0
C416 C 0.13747 0.54876 0.26315 0.0
C417 C 0.1275 0.5566 0.06536 0.0
C418 C 0.11802 0.55462 -0.02478 0.0
C419 C 0.44644 0.57795 0.17434 0.0
C420 C 0.45265 0.58648 0.26537 0.0
C421 C 0.44553 0.56927 0.06738 0.0
C422 C 0.44786 0.56229 -0.02298 0.0
loop_
_geom_bond_atom_site_label_1
_geom_bond_atom_site_label_2
_geom_bond_distance
_geom_bond_site_symmetry_2
_ccdc_geom_bond_type
C0 O27 1.312 . S
C0 O28 1.208 . S
C1 O22 1.331 1_556 S
C1 O25 1.244 . S
C2 O24 1.264 1_655 S
C2 O26 1.273 1_655 S
Mg3 O5 1.936 . S
Mg3 O12 2.081 . S
Mg3 O14 2.023 1_554 S
Mg3 O18 2.031 . S
Mg3 O27 2.291 . S
Mg4 O5 1.963 1_556 S
Mg4 O15 1.942 1_556 S
Mg4 O16 1.955 . S
Mg4 O23 1.986 . S
O5 Mg3 1.936 . S
O5 Mg4 1.963 1_554 S
O5 Mg6 1.915 1_554 S
Mg6 O5 1.915 1_556 S
Mg6 O7 1.915 . S
Mg6 O11 2.013 . S
Mg6 O17 2.114 1_556 S
Mg6 O21 2.013 . S
Mg6 O27 2.114 1_556 S
O7 Mg6 1.915 . S
O7 Mg8 1.936 1_556 S
O7 Mg9 1.963 . S
Mg8 O7 1.936 1_554 S
Mg8 O17 2.291 . S
Mg8 O22 2.081 1_455 S
Mg8 O24 2.023 . S
Mg8 O28 2.031 . S
Mg9 O7 1.963 . S
Mg9 O13 1.986 . S
Mg9 O25 1.942 1_455 S
Mg9 O26 1.955 1_556 S
C10 O21 1.191 . S
C10 O23 1.307 . S
O11 Mg6 2.013 . S
O11 C30 1.191 . S
O12 Mg3 2.081 . S
O12 C20 1.331 . S
O13 Mg9 1.986 . S
O13 C30 1.307 . S
O14 Mg3 2.023 1_556 S
O14 C29 1.264 . S
O15 Mg4 1.942 1_554 S
O15 C20 1.244 . S
O16 Mg4 1.955 . S
O16 C29 1.273 . S
O17 Mg6 2.114 1_554 S
O17 Mg8 2.291 . S
O17 C19 1.312 . S
O18 Mg3 2.031 . S
O18 C19 1.208 . S
C19 O17 1.312 . S
C19 O18 1.208 . S
C20 O12 1.331 . S
C20 O15 1.244 . S
O21 Mg6 2.013 . S
O21 C10 1.191 . S
O22 C1 1.331 1_554 S
O22 Mg8 2.081 1_655 S
O23 Mg4 1.986 . S
O23 C10 1.307 . S
O24 C2 1.264 1_455 S
O24 Mg8 2.023 . S
O25 C1 1.244 . S
O25 Mg9 1.942 1_655 S
O26 C2 1.273 1_455 S
O26 Mg9 1.955 1_554 S
O27 C0 1.312 . S
O27 Mg3 2.291 . S
O27 Mg6 2.114 1_554 S
O28 C0 1.208 . S
O28 Mg8 2.031 . S
C29 O14 1.264 . S
C29 O16 1.273 . S
C30 O11 1.191 . S
C30 O13 1.307 . S
C31 O58 1.312 . S
C31 O59 1.208 . S
C32 O53 1.331 1_556 S
C32 O56 1.244 . S
C33 O55 1.264 . S
C33 O57 1.273 . S
Mg34 O36 1.936 . S
Mg34 O43 2.081 . S
Mg34 O45 2.023 1_554 S
Mg34 O49 2.031 . S
Mg34 O58 2.291 . S
Mg35 O36 1.963 1_556 S
Mg35 O46 1.942 1_556 S
Mg35 O47 1.955 . S
Mg35 O54 1.986 . S
O36 Mg34 1.936 . S
O36 Mg35 1.963 1_554 S
O36 Mg37 1.915 1_554 S
Mg37 O36 1.915 1_556 S
Mg37 O38 1.915 . S
Mg37 O42 2.013 . S
Mg37 O48 2.114 1_556 S
Mg37 O52 2.013 . S
Mg37 O58 2.114 1_556 S
O38 Mg37 1.915 . S
O38 Mg39 1.936 1_556 S
O38 Mg40 1.963 . S
Mg39 O38 1.936 1_554 S
Mg39 O48 2.291 . S
Mg39 O53 2.081 . S
Mg39 O55 2.023 . S
Mg39 O59 2.031 . S
Mg40 O38 1.963 . S
Mg40 O44 1.986 . S
Mg40 O56 1.942 . S
Mg40 O57 1.955 1_556 S
C41 O52 1.191 . S
C41 O54 1.307 . S
O42 Mg37 2.013 . S
O42 C61 1.191 . S
O43 Mg34 2.081 . S
O43 C51 1.331 . S
O44 Mg40 1.986 . S
O44 C61 1.307 . S
O45 Mg34 2.023 1_556 S
O45 C60 1.264 . S
O46 Mg35 1.942 1_554 S
O46 C51 1.244 . S
O47 Mg35 1.955 . S
O47 C60 1.273 . S
O48 Mg37 2.114 1_554 S
O48 Mg39 2.291 . S
O48 C50 1.312 . S
O49 Mg34 2.031 . S
O49 C50 1.208 . S
C50 O48 1.312 . S
C50 O49 1.208 . S
C51 O43 1.331 . S
C51 O46 1.244 . S
O52 Mg37 2.013 . S
O52 C41 1.191 . S
O53 C32 1.331 1_554 S
O53 Mg39 2.081 . S
O54 Mg35 1.986 . S
O54 C41 1.307 . S
O55 C33 1.264 . S
O55 Mg39 2.023 . S
O56 C32 1.244 . S
O56 Mg40 1.942 . S
O57 C33 1.273 . S
O57 Mg40 1.955 1_554 S
O58 C31 1.312 . S
O58 Mg34 2.291 . S
O58 Mg37 2.114 1_554 S
O59 C31 1.208 . S
O59 Mg39 2.031 . S
C60 O45 1.264 . S
C60 O47 1.273 . S
C61 O42 1.191 . S
C61 O44 1.307 . S
C62 O89 1.312 . S
C62 O90 1.208 . S
C63 O84 1.331 1_556 S
C63 O87 1.244 . S
C64 O86 1.264 1_545 S
C64 O88 1.273 1_545 S
Mg65 O67 1.936 . S
Mg65 O74 2.081 . S
Mg65 O76 2.023 1_554 S
Mg65 O80 2.031 . S
Mg65 O89 2.291 . S
Mg66 O67 1.963 1_556 S
Mg66 O77 1.942 1_556 S
Mg66 O78 1.955 . S
Mg66 O85 1.986 . S
O67 Mg65 1.936 . S
O67 Mg66 1.963 1_554 S
O67 Mg68 1.915 1_554 S
Mg68 O67 1.915 1_556 S
Mg68 O69 1.915 . S
Mg68 O73 2.013 . S
Mg68 O79 2.114 1_556 S
Mg68 O83 2.013 . S
Mg68 O89 2.114 1_556 S
O69 Mg68 1.915 . S
O69 Mg70 1.936 1_556 S
O69 Mg71 1.963 . S
Mg70 O69 1.936 1_554 S
Mg70 O79 2.291 . S
Mg70 O84 2.081 1_565 S
Mg70 O86 2.023 . S
Mg70 O90 2.031 . S
Mg71 O69 1.963 . S
Mg71 O75 1.986 . S
Mg71 O87 1.942 1_565 S
Mg71 O88 1.955 1_556 S
C72 O83 1.191 . S
C72 O85 1.307 . S
O73 Mg68 2.013 . S
O73 C92 1.191 . S
O74 Mg65 2.081 . S
O74 C82 1.331 . S
O75 Mg71 1.986 . S
O75 C92 1.307 . S
O76 Mg65 2.023 1_556 S
O76 C91 1.264 . S
O77 Mg66 1.942 1_554 S
O77 C82 1.244 . S
O78 Mg66 1.955 . S
O78 C91 1.273 . S
O79 Mg68 2.114 1_554 S
O79 Mg70 2.291 . S
O79 C81 1.312 . S
O80 Mg65 2.031 . S
O80 C81 1.208 . S
C81 O79 1.312 . S
C81 O80 1.208 . S
C82 O74 1.331 . S
C82 O77 1.244 . S
O83 Mg68 2.013 . S
O83 C72 1.191 . S
O84 C63 1.331 1_554 S
O84 Mg70 2.081 1_545 S
O85 Mg66 1.986 . S
O85 C72 1.307 . S
O86 C64 1.264 1_565 S
O86 Mg70 2.023 . S
O87 C63 1.244 . S
O87 Mg71 1.942 1_545 S
O88 C64 1.273 1_565 S
O88 Mg71 1.955 1_554 S
O89 C62 1.312 . S
O89 Mg65 2.291 . S
O89 Mg68 2.114 1_554 S
O90 C62 1.208 . S
O90 Mg70 2.031 . S
C91 O76 1.264 . S
C91 O78 1.273 . S
C92 O73 1.191 . S
C92 O75 1.307 . S
C93 O120 1.312 . S
C93 O121 1.208 . S
C94 O115 1.331 . S
C94 O118 1.244 . S
C95 O117 1.264 . S
C95 O119 1.273 . S
Mg96 O98 1.936 . S
Mg96 O105 2.081 . S
Mg96 O107 2.023 . S
Mg96 O111 2.031 . S
Mg96 O120 2.291 . S
Mg97 O98 1.963 . S
Mg97 O108 1.942 . S
Mg97 O109 1.955 . S
Mg97 O116 1.986 . S
O98 Mg96 1.936 . S
O98 Mg97 1.963 . S
O98 Mg99 1.915 . S
Mg99 O98 1.915 . S
Mg99 O100 1.915 . S
Mg99 O104 2.013 . S
Mg99 O110 2.114 . S
Mg99 O114 2.013 . S
Mg99 O120 2.114 . S
O100 Mg99 1.915 . S
O100 Mg101 1.936 . S
O100 Mg102 1.963 . S
Mg101 O100 1.936 . S
Mg101 O110 2.291 . S
Mg101 O115 2.081 . S
Mg101 O117 2.023 . S
Mg101 O121 2.031 . S
Mg102 O100 1.963 . S
Mg102 O106 1.986 . S
Mg102 O118 1.942 . S
Mg102 O119 1.955 . S
C103 O114 1.191 . S
C103 O116 1.307 . S
O104 Mg99 2.013 . S
O104 C123 1.191 . S
O105 Mg96 2.081 . S
O105 C113 1.331 . S
O106 Mg102 1.986 . S
O106 C123 1.307 . S
O107 Mg96 2.023 . S
O107 C122 1.264 . S
O108 Mg97 1.942 . S
O108 C113 1.244 . S
O109 Mg97 1.955 . S
O109 C122 1.273 . S
O110 Mg99 2.114 . S
O110 Mg101 2.291 . S
O110 C112 1.312 . S
O111 Mg96 2.031 . S
O111 C112 1.208 . S
C112 O110 1.312 . S
C112 O111 1.208 . S
C113 O105 1.331 . S
C113 O108 1.244 . S
O114 Mg99 2.013 . S
O114 C103 1.191 . S
O115 C94 1.331 . S
O115 Mg101 2.081 . S
O116 Mg97 1.986 . S
O116 C103 1.307 . S
O117 C95 1.264 . S
O117 Mg101 2.023 . S
O118 C94 1.244 . S
O118 Mg102 1.942 . S
O119 C95 1.273 . S
O119 Mg102 1.955 . S
O120 C93 1.312 . S
O120 Mg96 2.291 . S
O120 Mg99 2.114 . S
O121 C93 1.208 . S
O121 Mg101 2.031 . S
C122 O107 1.264 . S
C122 O109 1.273 . S
C123 O104 1.191 . S
C123 O106 1.307 . S
C124 O151 1.312 . S
C124 O152 1.208 . S
C125 O146 1.331 . S
C125 O149 1.244 . S
C126 O148 1.264 . S
C126 O150 1.273 . S
Mg127 O129 1.936 . S
Mg127 O136 2.081 . S
Mg127 O138 2.023 . S
Mg127 O142 2.031 . S
Mg127 O151 2.291 . S
Mg128 O129 1.963 . S
Mg128 O139 1.942 . S
Mg128 O140 1.955 . S
Mg128 O147 1.986 . S
O129 Mg127 1.936 . S
O129 Mg128 1.963 . S
O129 Mg130 1.915 . S
Mg130 O129 1.915 . S
Mg130 O131 1.915 . S
Mg130 O135 2.013 . S
Mg130 O141 2.114 . S
Mg130 O145 2.013 . S
Mg130 O151 2.114 . S
O131 Mg130 1.915 . S
O131 Mg132 1.936 . S
O131 Mg133 1.963 . S
Mg132 O131 1.936 . S
Mg132 O141 2.291 . S
Mg132 O146 2.081 . S
Mg132 O148 2.023 . S
Mg132 O152 2.031 . S
Mg133 O131 1.963 . S
Mg133 O137 1.986 . S
Mg133 O149 1.942 . S
Mg133 O150 1.955 . S
C134 O145 1.191 . S
C134 O147 1.307 . S
O135 Mg130 2.013 . S
O135 C154 1.191 . S
O136 Mg127 2.081 . S
O136 C144 1.331 . S
O137 Mg133 1.986 . S
O137 C154 1.307 . S
O138 Mg127 2.023 . S
O138 C153 1.264 . S
O139 Mg128 1.942 . S
O139 C144 1.244 . S
O140 Mg128 1.955 . S
O140 C153 1.273 . S
O141 Mg130 2.114 . S
O141 Mg132 2.291 . S
O141 C143 1.312 . S
O142 Mg127 2.031 . S
O142 C143 1.208 . S
C143 O141 1.312 . S
C143 O142 1.208 . S
C144 O136 1.331 . S
C144 O139 1.244 . S
O145 Mg130 2.013 . S
O145 C134 1.191 . S
O146 C125 1.331 . S
O146 Mg132 2.081 . S
O147 Mg128 1.986 . S
O147 C134 1.307 . S
O148 C126 1.264 . S
O148 Mg132 2.023 . S
O149 C125 1.244 . S
O149 Mg133 1.942 . S
O150 C126 1.273 . S
O150 Mg133 1.955 . S
O151 C124 1.312 . S
O151 Mg127 2.291 . S
O151 Mg130 2.114 . S
O152 C124 1.208 . S
O152 Mg132 2.031 . S
C153 O138 1.264 . S
C153 O140 1.273 . S
C154 O135 1.191 . S
C154 O137 1.307 . S
C155 O182 1.312 . S
C155 O183 1.208 . S
C156 O177 1.331 . S
C156 O180 1.244 . S
C157 O179 1.264 . S
C157 O181 1.273 . S
Mg158 O160 1.936 . S
Mg158 O167 2.081 . S
Mg158 O169 2.023 . S
Mg158 O173 2.031 . S
Mg158 O182 2.291 . S
Mg159 O160 1.963 . S
Mg159 O170 1.942 . S
Mg159 O171 1.955 . S
Mg159 O178 1.986 . S
O160 Mg158 1.936 . S
O160 Mg159 1.963 . S
O160 Mg161 1.915 . S
Mg161 O160 1.915 . S
Mg161 O162 1.915 . S
Mg161 O166 2.013 . S
Mg161 O172 2.114 . S
Mg161 O176 2.013 . S
Mg161 O182 2.114 . S
O162 Mg161 1.915 . S
O162 Mg163 1.936 . S
O162 Mg164 1.963 . S
Mg163 O162 1.936 . S
Mg163 O172 2.291 . S
Mg163 O177 2.081 . S
Mg163 O179 2.023 . S
Mg163 O183 2.031 . S
Mg164 O162 1.963 . S
Mg164 O168 1.986 . S
Mg164 O180 1.942 . S
Mg164 O181 1.955 . S
C165 O176 1.191 . S
C165 O178 1.307 . S
O166 Mg161 2.013 . S
O166 C185 1.191 . S
O167 Mg158 2.081 . S
O167 C175 1.331 . S
O168 Mg164 1.986 . S
O168 C185 1.307 . S
O169 Mg158 2.023 . S
O169 C184 1.264 . S
O170 Mg159 1.942 . S
O170 C175 1.244 . S
O171 Mg159 1.955 . S
O171 C184 1.273 . S
O172 Mg161 2.114 . S
O172 Mg163 2.291 . S
O172 C174 1.312 . S
O173 Mg158 2.031 . S
O173 C174 1.208 . S
C174 O172 1.312 . S
C174 O173 1.208 . S
C175 O167 1.331 . S
C175 O170 1.244 . S
O176 Mg161 2.013 . S
O176 C165 1.191 . S
O177 C156 1.331 . S
O177 Mg163 2.081 . S
O178 Mg159 1.986 . S
O178 C165 1.307 . S
O179 C157 1.264 . S
O179 Mg163 2.023 . S
O180 C156 1.244 . S
O180 Mg164 1.942 . S
O181 C157 1.273 . S
O181 Mg164 1.955 . S
O182 C155 1.312 . S
O182 Mg158 2.291 . S
O182 Mg161 2.114 . S
O183 C155 1.208 . S
O183 Mg163 2.031 . S
C184 O169 1.264 . S
C184 O171 1.273 . S
C185 O166 1.191 . S
C185 O168 1.307 . S
C186 O213 1.312 . S
C186 O214 1.208 . S
C187 O208 1.331 . S
C187 O211 1.244 . S
C188 O210 1.264 . S
C188 O212 1.273 . S
Mg189 O191 1.936 . S
Mg189 O198 2.081 . S
Mg189 O200 2.023 . S
Mg189 O204 2.031 . S
Mg189 O213 2.291 . S
Mg190 O191 1.963 . S
Mg190 O201 1.942 . S
Mg190 O202 1.955 . S
Mg190 O209 1.986 . S
O191 Mg189 1.936 . S
O191 Mg190 1.963 . S
O191 Mg192 1.915 . S
Mg192 O191 1.915 . S
Mg192 O193 1.915 . S
Mg192 O197 2.013 . S
Mg192 O203 2.114 . S
Mg192 O207 2.013 . S
Mg192 O213 2.114 . S
O193 Mg192 1.915 . S
O193 Mg194 1.936 . S
O193 Mg195 1.963 . S
Mg194 O193 1.936 . S
Mg194 O203 2.291 . S
Mg194 O208 2.081 . S
Mg194 O210 2.023 . S
Mg194 O214 2.031 . S
Mg195 O193 1.963 . S
Mg195 O199 1.986 . S
Mg195 O211 1.942 . S
Mg195 O212 1.955 . S
C196 O207 1.191 . S
C196 O209 1.307 . S
O197 Mg192 2.013 . S
O197 C216 1.191 . S
O198 Mg189 2.081 . S
O198 C206 1.331 . S
O199 Mg195 1.986 . S
O199 C216 1.307 . S
O200 Mg189 2.023 . S
O200 C215 1.264 . S
O201 Mg190 1.942 . S
O201 C206 1.244 . S
O202 Mg190 1.955 . S
O202 C215 1.273 . S
O203 Mg192 2.114 . S
O203 Mg194 2.291 . S
O203 C205 1.312 . S
O204 Mg189 2.031 . S
O204 C205 1.208 . S
C205 O203 1.312 . S
C205 O204 1.208 . S
C206 O198 1.331 . S
C206 O201 1.244 . S
O207 Mg192 2.013 . S
O207 C196 1.191 . S
O208 C187 1.331 . S
O208 Mg194 2.081 . S
O209 Mg190 1.986 . S
O209 C196 1.307 . S
O210 C188 1.264 . S
O210 Mg194 2.023 . S
O211 C187 1.244 . S
O211 Mg195 1.942 . S
O212 C188 1.273 . S
O212 Mg195 1.955 . S
O213 C186 1.312 . S
O213 Mg189 2.291 . S
O213 Mg192 2.114 . S
O214 C186 1.208 . S
O214 Mg194 2.031 . S
C215 O200 1.264 . S
C215 O202 1.273 . S
C216 O197 1.191 . S
C216 O199 1.307 . S
C217 O244 1.312 . S
C217 O245 1.208 . S
C218 O239 1.331 . S
C218 O242 1.244 . S
C219 O241 1.264 . S
C219 O243 1.273 . S
Mg220 O222 1.936 . S
Mg220 O229 2.081 . S
Mg220 O231 2.023 . S
Mg220 O235 2.031 . S
Mg220 O244 2.291 . S
Mg221 O222 1.963 . S
Mg221 O232 1.942 . S
Mg221 O233 1.955 . S
Mg221 O240 1.986 . S
O222 Mg220 1.936 . S
O222 Mg221 1.963 . S
O222 Mg223 1.915 . S
Mg223 O222 1.915 . S
Mg223 O224 1.915 . S
Mg223 O228 2.013 . S
Mg223 O234 2.114 . S
Mg223 O238 2.013 . S
Mg223 O244 2.114 . S
O224 Mg223 1.915 . S
O224 Mg225 1.936 . S
O224 Mg226 1.963 . S
Mg225 O224 1.936 . S
Mg225 O234 2.291 . S
Mg225 O239 2.081 . S
Mg225 O241 2.023 . S
Mg225 O245 2.031 . S
Mg226 O224 1.963 . S
Mg226 O230 1.986 . S
Mg226 O242 1.942 . S
Mg226 O243 1.955 . S
C227 O238 1.191 . S
C227 O240 1.307 . S
O228 Mg223 2.013 . S
O228 C247 1.191 . S
O229 Mg220 2.081 . S
O229 C237 1.331 . S
O230 Mg226 1.986 . S
O230 C247 1.307 . S
O231 Mg220 2.023 . S
O231 C246 1.264 . S
O232 Mg221 1.942 . S
O232 C237 1.244 . S
O233 Mg221 1.955 . S
O233 C246 1.273 . S
O234 Mg223 2.114 . S
O234 Mg225 2.291 . S
O234 C236 1.312 . S
O235 Mg220 2.031 . S
O235 C236 1.208 . S
C236 O234 1.312 . S
C236 O235 1.208 . S
C237 O229 1.331 . S
C237 O232 1.244 . S
O238 Mg223 2.013 . S
O238 C227 1.191 . S
O239 C218 1.331 . S
O239 Mg225 2.081 . S
O240 Mg221 1.986 . S
O240 C227 1.307 . S
O241 C219 1.264 . S
O241 Mg225 2.023 . S
O242 C218 1.244 . S
O242 Mg226 1.942 . S
O243 C219 1.273 . S
O243 Mg226 1.955 . S
O244 C217 1.312 . S
O244 Mg220 2.291 . S
O244 Mg223 2.114 . S
O245 C217 1.208 . S
O245 Mg225 2.031 . S
C246 O231 1.264 . S
C246 O233 1.273 . S
C247 O228 1.191 . S
C247 O230 1.307 . S
C248 O275 1.312 . S
C248 O276 1.208 . S
C249 O270 1.331 . S
C249 O273 1.244 . S
C250 O272 1.264 . S
C250 O274 1.273 . S
Mg251 O253 1.936 . S
Mg251 O260 2.081 . S
Mg251 O262 2.023 . S
Mg251 O266 2.031 . S
Mg251 O275 2.291 . S
Mg252 O253 1.963 . S
Mg252 O263 1.942 . S
Mg252 O264 1.955 . S
Mg252 O271 1.986 . S
O253 Mg251 1.936 . S
O253 Mg252 1.963 . S
O253 Mg254 1.915 . S
Mg254 O253 1.915 . S
Mg254 O255 1.915 . S
Mg254 O259 2.013 . S
Mg254 O265 2.114 . S
Mg254 O269 2.013 . S
Mg254 O275 2.114 . S
O255 Mg254 1.915 . S
O255 Mg256 1.936 . S
O255 Mg257 1.963 . S
Mg256 O255 1.936 . S
Mg256 O265 2.291 . S
Mg256 O270 2.081 . S
Mg256 O272 2.023 . S
Mg256 O276 2.031 . S
Mg257 O255 1.963 . S
Mg257 O261 1.986 . S
Mg257 O273 1.942 . S
Mg257 O274 1.955 . S
C258 O269 1.191 . S
C258 O271 1.307 . S
O259 Mg254 2.013 . S
O259 C278 1.191 . S
O260 Mg251 2.081 . S
O260 C268 1.331 . S
O261 Mg257 1.986 . S
O261 C278 1.307 . S
O262 Mg251 2.023 . S
O262 C277 1.264 . S
O263 Mg252 1.942 . S
O263 C268 1.244 . S
O264 Mg252 1.955 . S
O264 C277 1.273 . S
O265 Mg254 2.114 . S
O265 Mg256 2.291 . S
O265 C267 1.312 . S
O266 Mg251 2.031 . S
O266 C267 1.208 . S
C267 O265 1.312 . S
C267 O266 1.208 . S
C268 O260 1.331 . S
C268 O263 1.244 . S
O269 Mg254 2.013 . S
O269 C258 1.191 . S
O270 C249 1.331 . S
O270 Mg256 2.081 . S
O271 Mg252 1.986 . S
O271 C258 1.307 . S
O272 C250 1.264 . S
O272 Mg256 2.023 . S
O273 C249 1.244 . S
O273 Mg257 1.942 . S
O274 C250 1.273 . S
O274 Mg257 1.955 . S
O275 C248 1.312 . S
O275 Mg251 2.291 . S
O275 Mg254 2.114 . S
O276 C248 1.208 . S
O276 Mg256 2.031 . S
C277 O262 1.264 . S
C277 O264 1.273 . S
C278 O259 1.191 . S
C278 O261 1.307 . S
C279 C280 1.170 . S
C279 C281 1.380 . S
C280 C279 1.170 . S
C281 C279 1.380 . S
C281 C282 1.170 . S
C282 C281 1.170 . S
C283 C284 1.170 . S
C283 C285 1.380 . S
C284 C283 1.170 . S
C285 C283 1.380 . S
C285 C286 1.170 . S
C286 C285 1.170 . S
C287 C288 1.170 . S
C287 C289 1.380 . S
C288 C287 1.170 . S
C289 C287 1.380 . S
C289 C290 1.170 . S
C290 C289 1.170 . S
C291 C292 1.170 . S
C291 C293 1.380 . S
C292 C291 1.170 . S
C293 C291 1.380 . S
C293 C294 1.170 . S
C294 C293 1.170 . S
C295 C296 1.170 . S
C295 C297 1.380 . S
C296 C295 1.170 . S
C297 C295 1.380 . S
C297 C298 1.170 . S
C298 C297 1.170 . S
C299 C300 1.170 . S
C299 C301 1.380 . S
C300 C299 1.170 . S
C301 C299 1.380 . S
C301 C302 1.170 . S
C302 C301 1.170 . S
C303 C304 1.170 . S
C303 C305 1.380 . S
C304 C303 1.170 . S
C305 C303 1.380 . S
C305 C306 1.170 1_655 S
C306 C305 1.170 1_455 S
C307 C308 1.170 . S
C307 C309 1.380 . S
C308 C307 1.170 . S
C309 C307 1.380 . S
C309 C310 1.170 . S
C310 C309 1.170 . S
C311 C312 1.170 1_545 S
C311 C313 1.380 . S
C312 C311 1.170 1_565 S
C313 C311 1.380 . S
C313 C314 1.170 . S
C314 C313 1.170 . S
C315 C316 1.170 . S
C315 C317 1.380 . S
C316 C315 1.170 . S
C317 C315 1.380 . S
C317 C318 1.170 . S
C318 C317 1.170 . S
C319 C320 1.162 1_655 S
C319 C321 1.380 . S
C320 C319 1.162 1_455 S
C321 C319 1.380 . S
C321 C322 1.170 . S
C322 C321 1.170 . S
C323 C324 1.170 . S
C323 C325 1.380 . S
C324 C323 1.170 . S
C325 C323 1.380 . S
C325 C326 1.170 . S
C326 C325 1.170 . S
C327 C328 1.170 . S
C327 C329 1.380 . S
C328 C327 1.170 . S
C329 C327 1.380 . S
C329 C330 1.170 . S
C330 C329 1.170 . S
C331 C332 1.170 . S
C331 C333 1.380 . S
C332 C331 1.170 . S
C333 C331 1.380 . S
C333 C334 1.170 . S
C334 C333 1.170 . S
C335 C336 1.170 . S
C335 C337 1.380 . S
C336 C335 1.170 . S
C337 C335 1.380 . S
C337 C338 1.170 . S
C338 C337 1.170 . S
C339 C340 1.170 . S
C339 C341 1.380 . S
C340 C339 1.170 . S
C341 C339 1.380 . S
C341 C342 1.170 . S
C342 C341 1.170 . S
C343 C344 1.170 . S
C343 C345 1.380 . S
C344 C343 1.170 . S
C345 C343 1.380 . S
C345 C346 1.170 . S
C346 C345 1.170 . S
C347 C348 1.170 . S
C347 C349 1.380 . S
C348 C347 1.170 . S
C349 C347 1.380 . S
C349 C350 1.170 . S
C350 C349 1.170 . S
C351 C352 1.170 . S
C351 C353 1.380 . S
C352 C351 1.170 . S
C353 C351 1.380 . S
C353 C354 1.170 . S
C354 C353 1.170 . S
C355 C356 1.170 . S
C355 C357 1.380 . S
C356 C355 1.170 . S
C357 C355 1.380 . S
C357 C358 1.170 1_545 S
C358 C357 1.170 1_565 S
C359 C360 1.170 . S
C359 C361 1.380 . S
C360 C359 1.170 . S
C361 C359 1.380 . S
C361 C362 1.170 1_655 S
C362 C361 1.170 1_455 S
C363 C364 1.170 . S
C363 C365 1.380 . S
C364 C363 1.170 . S
C365 C363 1.380 . S
C365 C366 1.170 . S
C366 C365 1.170 . S
C367 C368 1.170 . S
C367 C369 1.380 . S
C368 C367 1.170 . S
C369 C367 1.380 . S
C369 C370 1.170 . S
C370 C369 1.170 . S
C371 C372 1.170 . S
C371 C373 1.380 . S
C372 C371 1.170 . S
C373 C371 1.380 . S
C373 C374 1.170 . S
C374 C373 1.170 . S
C375 C376 1.170 . S
C375 C377 1.380 . S
C376 C375 1.170 . S
C377 C375 1.380 . S
C377 C378 1.170 . S
C378 C377 1.170 . S
C379 C380 1.170 . S
C379 C381 1.380 . S
C380 C379 1.170 . S
C381 C379 1.380 . S
C381 C382 1.170 . S
C382 C381 1.170 . S
C383 C384 1.170 . S
C383 C385 1.380 . S
C384 C383 1.170 . S
C385 C383 1.380 . S
C385 C386 1.170 . S
C386 C385 1.170 . S
C387 C388 1.170 . S
C387 C389 1.380 . S
C388 C387 1.170 . S
C389 C387 1.380 . S
C389 C390 1.170 . S
C390 C389 1.170 . S
C391 C392 1.170 . S
C391 C393 1.380 . S
C392 C391 1.170 . S
C393 C391 1.380 . S
C393 C394 1.170 . S
C394 C393 1.170 . S
C395 C396 1.170 . S
C395 C397 1.380 . S
C396 C395 1.170 . S
C397 C395 1.380 . S
C397 C398 1.170 . S
C398 C397 1.170 . S
C399 C400 1.170 . S
C399 C401 1.380 . S
C400 C399 1.170 . S
C401 C399 1.380 . S
C401 C402 1.170 . S
C402 C401 1.170 . S
C403 C404 1.170 . S
C403 C405 1.380 . S
C404 C403 1.170 . S
C405 C403 1.380 . S
C405 C406 1.170 . S
C406 C405 1.170 . S
C407 C408 1.170 . S
C407 C409 1.380 . S
C408 C407 1.170 . S
C409 C407 1.380 . S
C409 C410 1.170 . S
C410 C409 1.170 . S
C411 C412 1.170 . S
C411 C413 1.380 . S
C412 C411 1.170 . S
C413 C411 1.380 . S
C413 C414 1.170 . S
C414 C413 1.170 . S
C415 C416 1.170 . S
C415 C417 1.380 . S
C416 C415 1.170 . S
C417 C415 1.380 . S
C417 C418 1.170 . S
C418 C417 1.170 . S
C419 C420 1.170 . S
C419 C421 1.380 . S
C420 C419 1.170 . S
C421 C419 1.380 . S
C421 C422 1.170 . S
C422 C421 1.170 . S
C280 C20 1.279 . S
C282 C153 1.322 . S
C284 C184 1.298 . S
C286 C51 1.297 1_545 S
C288 C82 1.295 1_655 S
C290 C122 1.301 . S
C292 C32 2.170 1_554 S
C294 C93 2.530 . S
C296 C63 2.215 1_554 S
C298 C124 2.517 . S
C300 C1 2.194 1_554 S
C302 C155 2.518 . S
C304 C113 1.292 . S
C306 C246 1.304 . S
C308 C277 1.317 . S
C310 C144 1.287 . S
C312 C215 1.277 . S
C314 C175 1.324 . S
C316 C125 2.171 . S
C318 C186 2.530 1_545 S
C320 C217 2.530 . S
C322 C156 2.210 . S
C324 C248 2.514 . S
C326 C94 2.217 . S
C328 C206 1.283 . S
C330 C60 1.320 . S
C332 C237 1.284 . S
C334 C91 1.319 . S
C336 C29 1.305 . S
C338 C268 1.299 . S
C340 C0 2.515 1_556 S
C342 C218 2.203 . S
C344 C31 2.522 1_556 S
C346 C249 2.209 . S
C348 C187 2.197 . S
C350 C62 2.517 1_556 S
C352 C64 1.580 . S
C354 C10 1.705 1_554 S
C356 C2 1.577 . S
C358 C41 1.705 1_554 S
C360 C33 1.557 . S
C362 C72 1.717 1_554 S
C364 C157 1.607 . S
C366 C103 1.719 . S
C368 C95 1.597 . S
C370 C134 1.712 . S
C372 C126 1.567 . S
C374 C165 1.704 . S
C376 C196 1.704 . S
C378 C250 1.560 . S
C380 C227 1.727 . S
C382 C188 1.570 . S
C384 C258 1.708 . S
C386 C219 1.589 . S
C388 C30 1.065 . S
C390 C19 1.023 . S
C392 C50 1.014 . S
C394 C61 1.085 . S
C396 C92 1.044 . S
C398 C81 1.072 . S
C400 C112 1.057 . S
C402 C123 1.062 1_556 S
C404 C154 1.059 1_556 S
C406 C143 1.029 . S
C408 C174 1.057 . S
C410 C185 1.061 1_556 S
C412 C216 1.085 . S
C414 C205 1.017 1_554 S
C416 C247 1.049 . S
C418 C236 1.070 1_554 S
C420 C278 1.084 . S
C422 C267 1.012 1_554 S
