# Generated by pormake.
# Topology smc, (6)-cn, num edge types: 1
# Building blocks:
#     Node 0, Type 0, BuildingBlock: NUHQIS_clean_sbu_0, # of connection points: 6
#     Node 1, Type 0, BuildingBlock: NUHQIS_clean_sbu_0, # of connection points: 6
#     Node 2, Type 0, BuildingBlock: NUHQIS_clean_sbu_0, # of connection points: 6
#     Node 3, Type 0, BuildingBlock: NUHQIS_clean_sbu_0, # of connection points: 6
#     Node 4, Type 0, BuildingBlock: NUHQIS_clean_sbu_0, # of connection points: 6
#     Node 5, Type 0, BuildingBlock: NUHQIS_clean_sbu_0, # of connection points: 6
#     Node 6, Type 0, BuildingBlock: NUHQIS_clean_sbu_0, # of connection points: 6
#     Node 7, Type 0, BuildingBlock: NUHQIS_clean_sbu_0, # of connection points: 6
#     Node 8, Type 0, BuildingBlock: NUHQIS_clean_sbu_0, # of connection points: 6
#     Edge 9, Type (0, 0), BuildingBlock: MIFKUJ_clean_linker_0, # of connection points: 2
#     Edge 10, Type (0, 0), BuildingBlock: MIFKUJ_clean_linker_0, # of connection points: 2
#     Edge 11, Type (0, 0), BuildingBlock: MIFKUJ_clean_linker_0, # of connection points: 2
#     Edge 12, Type (0, 0), BuildingBlock: MIFKUJ_clean_linker_0, # of connection points: 2
#     Edge 13, Type (0, 0), BuildingBlock: MIFKUJ_clean_linker_0, # of connection points: 2
#     Edge 14, Type (0, 0), BuildingBlock: MIFKUJ_clean_linker_0, # of connection points: 2
#     Edge 15, Type (0, 0), BuildingBlock: MIFKUJ_clean_linker_0, # of connection points: 2
#     Edge 16, Type (0, 0), BuildingBlock: MIFKUJ_clean_linker_0, # of connection points: 2
#     Edge 17, Type (0, 0), BuildingBlock: MIFKUJ_clean_linker_0, # of connection points: 2
#     Edge 18, Type (0, 0), BuildingBlock: MIFKUJ_clean_linker_0, # of connection points: 2
#     Edge 19, Type (0, 0), BuildingBlock: MIFKUJ_clean_linker_0, # of connection points: 2
#     Edge 20, Type (0, 0), BuildingBlock: MIFKUJ_clean_linker_0, # of connection points: 2
#     Edge 21, Type (0, 0), BuildingBlock: MIFKUJ_clean_linker_0, # of connection points: 2
#     Edge 22, Type (0, 0), BuildingBlock: MIFKUJ_clean_linker_0, # of connection points: 2
#     Edge 23, Type (0, 0), BuildingBlock: MIFKUJ_clean_linker_0, # of connection points: 2
#     Edge 24, Type (0, 0), BuildingBlock: MIFKUJ_clean_linker_0, # of connection points: 2
#     Edge 25, Type (0, 0), BuildingBlock: MIFKUJ_clean_linker_0, # of connection points: 2
#     Edge 26, Type (0, 0), BuildingBlock: MIFKUJ_clean_linker_0, # of connection points: 2
#     Edge 27, Type (0, 0), BuildingBlock: MIFKUJ_clean_linker_0, # of connection points: 2
#     Edge 28, Type (0, 0), BuildingBlock: MIFKUJ_clean_linker_0, # of connection points: 2
#     Edge 29, Type (0, 0), BuildingBlock: MIFKUJ_clean_linker_0, # of connection points: 2
#     Edge 30, Type (0, 0), BuildingBlock: MIFKUJ_clean_linker_0, # of connection points: 2
#     Edge 31, Type (0, 0), BuildingBlock: MIFKUJ_clean_linker_0, # of connection points: 2
#     Edge 32, Type (0, 0), BuildingBlock: MIFKUJ_clean_linker_0, # of connection points: 2
#     Edge 33, Type (0, 0), BuildingBlock: MIFKUJ_clean_linker_0, # of connection points: 2
#     Edge 34, Type (0, 0), BuildingBlock: MIFKUJ_clean_linker_0, # of connection points: 2
#     Edge 35, Type (0, 0), BuildingBlock: MIFKUJ_clean_linker_0, # of connection points: 2
# Relax obj value: 0.267
# Max RMSD: 0.347
# Mean RMSD: 0.306
data_MOF--net-smc--node1-NUHQIS_clean_sbu_0--edge1-MIFKUJ_clean_linker_0
_symmetry_space_group_name_H-M    P1
_symmetry_Int_Tables_number       1
_symmetry_cell_setting            triclinic
loop_
_symmetry_equiv_pos_as_xyz
'x, y, z'
_cell_length_a     51.65832
_cell_length_b     40.440893
_cell_length_c     52.316404
_cell_angle_alpha  91.460748
_cell_angle_beta   90.780066
_cell_angle_gamma 118.96194
loop_
_atom_site_label
_atom_site_type_symbol
_atom_site_fract_x
_atom_site_fract_y
_atom_site_fract_z
_atom_type_partial_charge
Tb0 Tb 0.05787 0.47755 0.02743 0.0
Eu1 Eu 0.07321 0.41119 1.01298 0.0
C2 C 0.08833 0.45069 0.06868 0.0
C3 C 0.12016 0.49882 1.00827 0.0
C4 C 1.01901 0.53196 0.04105 0.0
C5 C 0.99395 0.56674 0.05402 0.0
C6 C 1.02004 0.56493 0.05118 0.0
C7 C 0.99174 0.5008 0.03355 0.0
C8 C 0.96564 0.5026 0.03633 0.0
C9 C 0.96651 0.53553 0.04672 0.0
C10 C 1.04629 0.52972 0.03935 0.0
O11 O 1.03032 0.44972 0.99267 0.0
O12 O 0.05763 0.424 0.97582 0.0
O13 O 1.02335 0.38176 1.01567 0.0
O14 O 1.02099 0.42677 0.0415 0.0
C15 C 1.03694 0.43388 0.97326 0.0
O16 O 0.09661 0.3895 0.9895 0.0
O17 O 0.06966 0.35618 0.02021 0.0
O18 O 0.07692 0.4182 0.05591 0.0
O19 O 0.08853 0.48013 0.05823 0.0
O20 O 0.09682 0.50286 1.00442 0.0
O21 O 0.11693 0.46661 1.01643 0.0
C22 C 1.00847 0.39271 0.03065 0.0
O23 O 0.04921 0.50809 0.05582 0.0
O24 O 0.05327 0.52405 1.01646 0.0
C25 C 0.11812 0.36481 1.01721 0.0
C26 C 0.17631 0.40507 0.03692 0.0
C27 C 0.17075 0.3903 1.01159 0.0
C28 C 0.14174 0.37025 1.00177 0.0
C29 C 0.12362 0.37411 0.04357 0.0
C30 C 0.15259 0.39451 0.05332 0.0
C31 C 0.0913 0.36226 1.00504 0.0
H32 H 0.99522 0.59256 0.06183 0.0
H33 H 1.041 0.58913 0.05709 0.0
H34 H 0.99067 0.475 0.02586 0.0
H35 H 0.94475 0.47802 0.0309 0.0
H36 H 0.18874 0.39813 0.99853 0.0
H37 H 0.13807 0.36334 0.98143 0.0
H38 H 0.10581 0.36967 0.05606 0.0
H39 H 0.15641 0.4052 0.073 0.0
Tb40 Tb 0.56444 0.60274 1.00228 0.0
Eu41 Eu 0.62658 0.63607 0.03154 0.0
C42 C 0.62391 0.63094 0.97011 0.0
C43 C 0.58791 0.54373 1.01573 0.0
C44 C 0.49322 0.59639 0.98856 0.0
C45 C 0.44856 0.59902 0.97767 0.0
C46 C 0.46832 0.58549 0.97253 0.0
C47 C 0.49906 0.62247 1.00901 0.0
C48 C 0.47929 0.63585 1.01424 0.0
C49 C 0.45346 0.62349 0.99901 0.0
C50 C 0.51303 0.58047 0.98434 0.0
O51 O 0.56276 0.61965 0.04304 0.0
O52 O 0.59127 0.59653 0.05622 0.0
O53 O 0.61328 0.68402 0.03427 0.0
O54 O 0.57919 0.66319 1.00125 0.0
C55 C 0.5732 0.6088 0.06227 0.0
O56 O 0.65106 0.65489 0.06818 0.0
O57 O 0.67438 0.66014 0.03315 0.0
O58 O 0.63948 0.64832 0.99085 0.0
O59 O 0.59485 0.60867 0.97073 0.0
O60 O 0.56616 0.5498 1.00792 0.0
O61 O 0.61378 0.57276 0.0237 0.0
C62 C 0.59505 0.68935 1.01879 0.0
O63 O 0.53689 0.60185 0.97207 0.0
O64 O 0.51878 0.56636 1.00443 0.0
C65 C 0.69185 0.64389 0.06909 0.0
C66 C 0.72594 0.60843 0.07849 0.0
C67 C 0.73875 0.64799 0.08113 0.0
C68 C 0.7218 0.66563 0.07626 0.0
C69 C 0.67847 0.60429 0.06839 0.0
C70 C 0.69544 0.58665 0.07298 0.0
C71 C 0.67613 0.6622 0.05806 0.0
H72 H 0.42859 0.58857 0.96584 0.0
H73 H 0.46368 0.56567 0.95654 0.0
H74 H 0.51849 0.63165 0.02138 0.0
H75 H 0.4836 0.65473 0.03074 0.0
H76 H 0.76228 0.66542 0.08509 0.0
H77 H 0.73247 0.69624 0.07653 0.0
H78 H 0.65534 0.58714 0.06273 0.0
H79 H 0.68507 0.55612 0.07099 0.0
Tb80 Tb 0.54695 0.08959 0.04865 0.0
Eu81 Eu 0.47969 1.04359 0.02882 0.0
C82 C 0.49399 0.06063 0.08659 0.0
C83 C 0.52044 1.00235 0.03644 0.0
C84 C 0.63046 0.15105 0.05859 0.0
C85 C 0.6806 0.19501 0.07384 0.0
C86 C 0.65047 0.17262 0.07851 0.0
C87 C 0.64083 0.15373 0.03361 0.0
C88 C 0.671 0.17588 0.02896 0.0
C89 C 0.69133 0.19599 0.04915 0.0
C90 C 0.60034 0.1218 0.06495 0.0
O91 O 0.54619 0.10614 1.00848 0.0
O92 O 0.50678 0.05062 0.99459 0.0
O93 O 0.49254 0.10739 0.02297 0.0
O94 O 0.53564 0.13542 0.04772 0.0
C95 C 0.52904 0.08343 0.98957 0.0
O96 O 0.44394 1.0125 0.9999 0.0
O97 O 0.43366 1.01274 0.03972 0.0
O98 O 0.48052 0.06731 0.06793 0.0
O99 O 0.51877 0.06003 0.08162 0.0
O100 O 0.54293 1.03618 0.0336 0.0
O101 O 0.4939 0.99905 0.03976 0.0
C102 C 0.51506 0.13836 0.03424 0.0
O103 O 0.58126 0.13224 0.07216 0.0
O104 O 0.58817 0.09189 0.04979 0.0
C105 C 0.40462 0.95503 1.01582 0.0
C106 C 0.36637 0.87527 1.01373 0.0
C107 C 0.37459 0.8959 0.99118 0.0
C108 C 0.39336 0.93529 0.99224 0.0
C109 C 0.3967 0.93426 0.03831 0.0
C110 C 0.37789 0.89505 0.03726 0.0
C111 C 0.42378 0.99706 1.01708 0.0
H112 H 0.69568 0.20995 0.08984 0.0
H113 H 0.64303 0.1707 0.09795 0.0
H114 H 0.62586 0.13739 1.01785 0.0
H115 H 0.67853 0.17653 1.00966 0.0
H116 H 0.36593 0.88174 0.97272 0.0
H117 H 0.39883 0.95037 0.97459 0.0
H118 H 0.40488 0.94825 0.05689 0.0
H119 H 0.37245 0.88018 0.05499 0.0
Tb120 Tb 0.69101 0.81613 0.36803 0.0
Eu121 Eu 0.74368 0.78669 0.35226 0.0
C122 C 0.73197 0.80414 0.41088 0.0
C123 C 0.75626 0.87353 0.35522 0.0
C124 C 0.62687 0.84326 0.3711 0.0
C125 C 0.61026 0.89095 0.36774 0.0
C126 C 0.63303 0.8813 0.37138 0.0
C127 C 0.59704 0.81542 0.36679 0.0
C128 C 0.57427 0.82493 0.36352 0.0
C129 C 0.58013 0.86297 0.36413 0.0
C130 C 0.64987 0.83207 0.37923 0.0
O131 O 0.68115 0.79522 0.32765 0.0
O132 O 0.72038 0.78577 0.31505 0.0
O133 O 0.69556 0.73576 0.34919 0.0
O134 O 0.67854 0.75987 0.3806 0.0
C135 C 0.69538 0.78632 0.31013 0.0
O136 O 0.78319 0.8009 0.32976 0.0
O137 O 0.77066 0.75747 0.35739 0.0
O138 O 0.73854 0.78386 0.39478 0.0
O139 O 0.71809 0.82314 0.40363 0.0
O140 O 0.72826 0.86408 0.35138 0.0
O141 O 0.76465 0.84904 0.36201 0.0
C142 C 0.67389 0.73226 0.36439 0.0
O143 O 0.64563 0.79848 0.37257 0.0
O144 O 0.6781 0.85666 0.38015 0.0
C145 C 0.8237 0.79052 0.34516 0.0
C146 C 0.88709 0.81308 0.34649 0.0
C147 C 0.8646 0.77467 0.34423 0.0
C148 C 0.83389 0.76379 0.34362 0.0
C149 C 0.84598 0.82893 0.34772 0.0
C150 C 0.8768 0.83987 0.34858 0.0
C151 C 0.79054 0.77795 0.34088 0.0
H152 H 0.6165 0.92064 0.36794 0.0
H153 H 0.65549 0.90381 0.375 0.0
H154 H 0.591 0.78582 0.36679 0.0
H155 H 0.55182 0.80194 0.36138 0.0
H156 H 0.87062 0.75253 0.34294 0.0
H157 H 0.81793 0.73401 0.34131 0.0
H158 H 0.83964 0.85082 0.3486 0.0
H159 H 0.89261 0.86974 0.35012 0.0
Tb160 Tb 0.25349 0.88103 0.34386 0.0
Eu161 Eu 0.28068 0.96957 0.34521 0.0
C162 C 0.26966 0.92719 0.39646 0.0
C163 C 0.20811 0.91243 0.3426 0.0
C164 C 0.25539 0.79513 0.33268 0.0
C165 C 0.30169 0.79316 0.33614 0.0
C166 C 0.282 0.80424 0.34604 0.0
C167 C 0.24884 0.77447 0.30935 0.0
C168 C 0.26856 0.76345 0.29943 0.0
C169 C 0.29527 0.77281 0.31266 0.0
C170 C 0.23688 0.8119 0.34083 0.0
O171 O 0.28095 0.89969 0.30939 0.0
O172 O 0.28223 0.95596 0.30356 0.0
O173 O 0.32263 0.96253 0.34352 0.0
O174 O 0.30015 0.89964 0.35311 0.0
C175 C 0.28792 0.92938 0.29542 0.0
O176 O 0.28542 1.02031 0.32735 0.0
O177 O 0.30316 1.02438 0.36566 0.0
O178 O 0.28921 0.95573 0.38419 0.0
O179 O 0.24869 0.89749 0.38367 0.0
O180 O 0.21428 0.88664 0.3331 0.0
O181 O 0.23024 0.94448 0.35216 0.0
C182 C 0.3243 0.93168 0.34901 0.0
O183 O 0.24465 0.83144 0.3625 0.0
O184 O 0.23077 0.82933 0.32301 0.0
C185 C 0.27782 0.05802 0.35739 0.0
C186 C 0.23857 0.08547 0.36914 0.0
C187 C 0.2636 0.1067 0.35445 0.0
C188 C 0.283 0.09294 0.3485 0.0
C189 C 0.25346 1.03734 0.37278 0.0
C190 C 0.23399 0.05093 0.37861 0.0
C191 C 0.29555 1.04096 0.34839 0.0
H192 H 0.32199 0.80061 0.34684 0.0
H193 H 0.28808 0.82074 0.36389 0.0
H194 H 0.22866 0.76741 0.29855 0.0
H195 H 0.26246 0.74668 0.28169 0.0
H196 H 0.2681 0.13384 0.34735 0.0
H197 H 0.30159 0.1091 0.33649 0.0
H198 H 0.24901 1.01012 0.37971 0.0
H199 H 0.21488 1.03382 0.38984 0.0
Tb200 Tb 0.20014 0.44663 0.38373 0.0
Eu201 Eu 0.12559 0.40578 0.37111 0.0
C202 C 0.15164 0.43243 0.42639 0.0
C203 C 0.15947 0.35911 0.38353 0.0
C204 C 0.28756 0.49567 0.38527 0.0
C205 C 0.33535 0.49746 0.3932 0.0
C206 C 0.30463 0.4814 0.39706 0.0
C207 C 0.30237 0.52625 0.36899 0.0
C208 C 0.33311 0.54228 0.36509 0.0
C209 C 0.35047 0.52878 0.3775 0.0
C210 C 0.25617 0.48292 0.39336 0.0
O211 O 0.19359 0.44343 0.34142 0.0
O212 O 0.1466 0.39255 0.33797 0.0
O213 O 0.14687 0.46317 0.35415 0.0
O214 O 0.18276 0.48582 0.38495 0.0
C215 C 0.1707 0.41793 0.32726 0.0
O216 O 0.08674 0.3817 0.34514 0.0
O217 O 0.08124 0.38333 0.38598 0.0
O218 O 0.13669 0.43832 0.40838 0.0
O219 O 0.17569 0.42986 0.42059 0.0
O220 O 0.18445 0.38691 0.37551 0.0
O221 O 0.1362 0.36315 0.38829 0.0
C222 C 0.17121 0.49139 0.36414 0.0
O223 O 0.23891 0.44793 0.39942 0.0
O224 O 0.24103 0.49695 0.3824 0.0
C225 C 1.04398 0.33165 0.36216 0.0
C226 C 0.99681 0.25659 0.36121 0.0
C227 C 0.99199 0.28662 0.35425 0.0
C228 C 1.01537 0.32377 0.35472 0.0
C229 C 0.0491 0.30187 0.36885 0.0
C230 C 1.02573 0.26466 0.36839 0.0
C231 C 0.06803 0.37107 0.36364 0.0
H232 H 0.34726 0.48531 0.40282 0.0
H233 H 0.29437 0.45837 0.41004 0.0
H234 H 0.29043 0.53879 0.35986 0.0
H235 H 0.34338 0.56629 0.35299 0.0
H236 H 0.97016 0.28141 0.34823 0.0
H237 H 1.01104 0.34642 0.34948 0.0
H238 H 0.07109 0.30748 0.37475 0.0
H239 H 1.03021 0.24233 0.3741 0.0
Tb240 Tb 0.3813 0.13271 0.70215 0.0
Eu241 Eu 0.40141 0.07065 0.69057 0.0
C242 C 0.41188 0.10922 0.74557 0.0
C243 C 0.4456 0.15928 0.68612 0.0
C244 C 0.34005 0.18617 0.71059 0.0
C245 C 0.31643 0.22475 0.71611 0.0
C246 C 0.34176 0.22087 0.71724 0.0
C247 C 0.31281 0.15519 0.70275 0.0
C248 C 0.28738 0.15908 0.70158 0.0
C249 C 0.289 0.19391 0.70831 0.0
C250 C 0.36697 0.183 0.71185 0.0
O251 O 0.35658 0.10272 0.66647 0.0
O252 O 0.39087 0.08682 0.65268 0.0
O253 O 0.35111 1.03736 0.69067 0.0
O254 O 0.34464 0.08058 0.71497 0.0
C255 C 0.36762 0.09088 0.64801 0.0
O256 O 0.4212 0.04673 0.66468 0.0
O257 O 0.40622 1.02196 0.70136 0.0
O258 O 0.40123 0.07656 0.73323 0.0
O259 O 0.41154 0.13786 0.73435 0.0
O260 O 0.4214 0.16067 0.68064 0.0
O261 O 0.4437 0.12818 0.69528 0.0
C262 C 0.3341 0.04662 0.70423 0.0
O263 O 0.36754 0.16023 0.72873 0.0
O264 O 0.37691 0.17877 0.68996 0.0
C265 C 0.45312 1.03361 0.68814 0.0
C266 C 0.51511 0.07589 0.68867 0.0
C267 C 0.49997 0.0459 0.67054 0.0
C268 C 0.46905 1.0251 0.67013 0.0
C269 C 0.46838 0.05994 0.70822 0.0
C270 C 0.49902 0.08109 0.70835 0.0
C271 C 0.42275 1.02504 0.68194 0.0
H272 H 0.31839 0.25209 0.72098 0.0
H273 H 0.36272 0.24502 0.7232 0.0
H274 H 0.31127 0.12816 0.69757 0.0
H275 H 0.26648 0.13489 0.69571 0.0
H276 H 0.51177 1.04053 0.65547 0.0
H277 H 0.4576 1.00504 0.65439 0.0
H278 H 0.45659 0.06745 0.72217 0.0
H279 H 0.50955 0.1042 0.72235 0.0
Tb280 Tb 0.89079 0.27925 0.66928 0.0
Eu281 Eu 0.95121 0.30982 0.70019 0.0
C282 C 0.95144 0.30191 0.63894 0.0
C283 C 0.91198 0.2183 0.68431 0.0
C284 C 0.82333 0.27583 0.64465 0.0
C285 C 0.78206 0.27881 0.62487 0.0
C286 C 0.79944 0.26126 0.62717 0.0
C287 C 0.83086 0.30939 0.65869 0.0
C288 C 0.81408 0.3277 0.65587 0.0
C289 C 0.78859 0.31178 0.63975 0.0
C290 C 0.84082 0.25658 0.64788 0.0
O291 O 0.88706 0.29775 0.70926 0.0
O292 O 0.91562 0.2768 0.72685 0.0
O293 O 0.93864 0.35898 0.70142 0.0
O294 O 0.90561 0.33965 0.66774 0.0
C295 C 0.89636 0.28808 0.72992 0.0
O296 O 0.9781 0.30824 0.73224 0.0
O297 O 0.99584 0.35623 0.70779 0.0
O298 O 0.96627 0.30912 0.66062 0.0
O299 O 0.92275 0.29081 0.63809 0.0
O300 O 0.89078 0.22555 0.67674 0.0
O301 O 0.93831 0.24672 0.69179 0.0
C302 C 0.92168 0.36574 0.68522 0.0
O303 O 0.86549 0.27134 0.63574 0.0
O304 O 0.84448 0.24909 0.67132 0.0
C305 C 1.02769 0.33354 0.72126 0.0
C306 C 0.07262 0.31443 0.71359 0.0
C307 C 0.06631 0.32211 0.73843 0.0
C308 C 1.04395 0.33158 0.74223 0.0
C309 C 1.03462 0.32715 0.69639 0.0
C310 C 0.05697 0.31783 0.69258 0.0
C311 C 1.00171 0.3384 0.72541 0.0
H312 H 0.76239 0.26476 0.61263 0.0
H313 H 0.79352 0.23548 0.61605 0.0
H314 H 0.84929 0.32089 0.67237 0.0
H315 H 0.82036 0.3533 0.66728 0.0
H316 H 0.0783 0.32012 0.75494 0.0
H317 H 1.03877 0.33625 0.76153 0.0
H318 H 1.02213 0.32812 0.6799 0.0
H319 H 0.06111 0.31168 0.67325 0.0
Tb320 Tb 0.86842 0.76663 0.71075 0.0
Eu321 Eu 0.80068 0.71495 0.69166 0.0
C322 C 0.81491 0.73909 0.7495 0.0
C323 C 0.84638 0.6801 0.69866 0.0
C324 C 0.95337 0.81912 0.71788 0.0
C325 C 0.99744 0.81131 0.71845 0.0
C326 C 0.96702 0.79686 0.72231 0.0
C327 C 0.97075 0.85577 0.70898 0.0
C328 C 1.00103 0.87018 0.70517 0.0
C329 C 1.01498 0.84849 0.71032 0.0
C330 C 0.92235 0.8068 0.72533 0.0
O331 O 0.86455 0.77975 0.67004 0.0
O332 O 0.82653 0.7228 0.65656 0.0
O333 O 0.81251 0.77899 0.68651 0.0
O334 O 0.85037 0.80512 0.71659 0.0
C335 C 0.84729 0.75655 0.6513 0.0
O336 O 0.76365 0.68552 0.6635 0.0
O337 O 0.75608 0.67702 0.70387 0.0
O338 O 0.79912 0.73902 0.7299 0.0
O339 O 0.84147 0.74259 0.74569 0.0
O340 O 0.86778 0.71488 0.69558 0.0
O341 O 0.81916 0.67449 0.70223 0.0
C342 C 0.83248 0.80933 0.70042 0.0
O343 O 0.90746 0.81906 0.71207 0.0
O344 O 0.9056 0.77191 0.73167 0.0
C345 C 0.72494 0.62505 0.6764 0.0
C346 C 0.68412 0.54579 0.67487 0.0
C347 C 0.67494 0.57238 0.66869 0.0
C348 C 0.69505 0.61136 0.66945 0.0
C349 C 0.73451 0.59879 0.68198 0.0
C350 C 0.71441 0.5597 0.68115 0.0
C351 C 0.74462 0.66648 0.68084 0.0
H352 H 1.00742 0.79387 0.7228 0.0
H353 H 0.95445 0.7687 0.72951 0.0
H354 H 0.96109 0.87388 0.70565 0.0
H355 H 1.01365 0.89867 0.69851 0.0
H356 H 0.65192 0.56331 0.66414 0.0
H357 H 0.68697 0.63097 0.66542 0.0
H358 H 0.75741 0.60856 0.68761 0.0
H359 H 0.72265 0.54043 0.68564 0.0
H360 H 0.42026 0.64641 0.97072 0.0
H361 H 0.37184 0.63856 0.98208 0.0
H362 H 0.38323 0.6052 0.05742 0.0
H363 H 0.43162 0.61485 0.04654 0.0
H364 H 0.33185 0.57501 0.9858 0.0
H365 H 0.33641 0.59571 0.09944 0.0
H366 H 0.36155 0.64838 0.1312 0.0
H367 H 0.38055 0.72837 0.07235 0.0
H368 H 0.35536 0.6763 0.04022 0.0
H369 H 0.23096 0.41128 0.0319 0.0
H370 H 0.27776 0.47055 0.03121 0.0
H371 H 0.23334 0.53274 0.05474 0.0
H372 H 0.18665 0.4735 0.05601 0.0
H373 H 0.29176 0.56781 0.07228 0.0
H374 H 0.23805 0.52473 0.99467 0.0
H375 H 0.20739 0.47768 0.961 0.0
H376 H 0.27981 0.45796 0.94326 0.0
H377 H 0.31074 0.50435 0.97724 0.0
C378 C 0.41281 0.63903 0.99004 0.0
C379 C 0.42933 0.6305 1.0076 0.0
C380 C 0.38518 0.6346 0.99657 0.0
C381 C 0.37341 0.62062 0.0205 0.0
C382 C 0.39161 0.61654 0.03896 0.0
C383 C 0.4194 0.62174 0.03262 0.0
C384 C 0.34086 0.60073 0.02394 0.0
C385 C 0.32306 0.57444 1.00457 0.0
C386 C 0.3284 0.60057 0.04794 0.0
C387 C 0.34405 0.63194 0.06732 0.0
C388 C 0.34582 0.6245 0.09323 0.0
C389 C 0.36017 0.6543 0.11132 0.0
C390 C 0.37276 0.69171 0.10378 0.0
C391 C 0.37101 0.69941 0.07814 0.0
C392 C 0.35678 0.66974 0.05996 0.0
C393 C 0.23146 0.43746 0.0378 0.0
C394 C 0.2053 0.43796 0.04374 0.0
C395 C 0.25806 0.47125 0.03733 0.0
C396 C 0.25867 0.50596 0.04223 0.0
C397 C 0.2332 0.50626 0.05066 0.0
C398 C 0.2066 0.47238 0.05143 0.0
C399 C 0.28469 0.54129 0.03488 0.0
C400 C 0.30064 0.57001 0.05338 0.0
C401 C 0.29483 0.5452 1.00962 0.0
C402 C 0.27671 0.51803 0.98857 0.0
C403 C 0.24742 0.5103 0.98365 0.0
C404 C 0.22997 0.48369 0.96453 0.0
C405 C 0.24165 0.46484 0.94999 0.0
C406 C 0.27081 0.47262 0.95452 0.0
C407 C 0.28833 0.49912 0.9737 0.0
H408 H 0.22809 0.44422 0.9352 0.0
H409 H 0.38381 0.71474 0.11782 0.0
H410 H 0.48267 0.92552 0.02318 0.0
H411 H 0.49468 0.87374 0.02036 0.0
H412 H 0.58374 0.95024 0.04771 0.0
H413 H 0.57228 1.00204 0.04862 0.0
H414 H 0.59203 0.91021 1.01855 0.0
H415 H 0.51836 0.86773 0.08272 0.0
H416 H 0.46991 0.84908 0.10162 0.0
H417 H 0.42698 0.76163 0.04317 0.0
H418 H 0.47513 0.78008 0.02375 0.0
H419 H 0.62588 0.75833 0.04771 0.0
H420 H 0.61381 0.81038 0.0518 0.0
H421 H 0.53738 0.74812 1.00183 0.0
H422 H 0.54971 0.69734 0.997 0.0
H423 H 0.52299 0.77963 0.04326 0.0
H424 H 0.59897 0.82359 0.98067 0.0
H425 H 0.64853 0.84139 0.96462 0.0
H426 H 0.68846 0.92622 0.02507 0.0
H427 H 0.63912 0.90854 0.04169 0.0
C428 C 0.50479 0.93132 0.02873 0.0
C429 C 0.52631 0.96861 0.03622 0.0
C430 C 0.51176 0.90123 0.02735 0.0
C431 C 0.54032 0.90665 0.03428 0.0
C432 C 0.56158 0.94401 0.04199 0.0
C433 C 0.55485 0.9741 0.04269 0.0
C434 C 0.54859 0.87451 0.03306 0.0
C435 C 0.57681 0.882 0.02453 0.0
C436 C 0.52931 0.83653 0.04013 0.0
C437 C 0.50031 0.82561 0.05161 0.0
C438 C 0.49855 0.84472 0.07379 0.0
C439 C 0.47115 0.83415 0.08461 0.0
C440 C 0.44537 0.80428 0.07356 0.0
C441 C 0.44695 0.78483 0.05169 0.0
C442 C 0.47429 0.79533 0.04077 0.0
C443 C 0.60663 0.75574 0.03741 0.0
C444 C 0.58911 0.72299 0.02183 0.0
C445 C 0.59962 0.78578 0.03978 0.0
C446 C 0.57445 0.78396 0.02713 0.0
C447 C 0.55683 0.75101 1.01197 0.0
C448 C 0.56415 0.72163 1.00915 0.0
C449 C 0.56629 0.81585 0.02923 0.0
C450 C 0.53812 0.80814 0.03767 0.0
C451 C 0.58576 0.85372 0.02259 0.0
C452 C 0.61538 0.86446 1.01258 0.0
C453 C 0.61833 0.84582 0.99066 0.0
C454 C 0.64638 0.85593 0.98144 0.0
C455 C 0.67163 0.88484 0.99386 0.0
C456 C 0.66888 0.90378 1.01549 0.0
C457 C 0.64088 0.89374 0.02482 0.0
H458 H 0.69333 0.89263 0.98669 0.0
H459 H 0.4242 0.79615 0.08199 0.0
H460 H 0.36419 0.82048 0.97993 0.0
H461 H 0.32869 0.75267 0.97811 0.0
H462 H 0.28519 0.76767 0.04364 0.0
H463 H 0.32071 0.8352 0.04572 0.0
H464 H 0.28639 0.7034 0.04738 0.0
H465 H 0.25883 0.76228 0.98076 0.0
H466 H 0.26699 0.79971 0.94226 0.0
H467 H 0.2854 0.72182 0.89946 0.0
H468 H 0.27769 0.68418 0.93783 0.0
H469 H 0.13175 0.56681 0.99008 0.0
H470 H 0.17843 0.62494 0.98994 0.0
H471 H 0.22361 0.56735 1.01937 0.0
H472 H 0.17601 0.5082 0.02021 0.0
H473 H 0.22723 0.64901 0.96689 0.0
H474 H 0.28657 0.63847 0.05813 0.0
H475 H 0.27513 0.6038 0.09822 0.0
H476 H 0.18657 0.58716 0.09418 0.0
H477 H 0.19784 0.62326 0.05481 0.0
C478 C 0.34704 0.80937 0.99394 0.0
C479 C 0.34531 0.83354 1.01288 0.0
C480 C 0.32676 0.77047 0.99294 0.0
C481 C 0.30391 0.75481 1.01058 0.0
C482 C 0.3026 0.77876 0.02986 0.0
C483 C 0.32299 0.81754 0.031 0.0
C484 C 0.28034 0.71413 1.00823 0.0
C485 C 0.2736 0.69139 0.02971 0.0
C486 C 0.26346 0.69818 0.98526 0.0
C487 C 0.26804 0.7207 0.9622 0.0
C488 C 0.26482 0.75331 0.96317 0.0
C489 C 0.26934 0.77453 0.94138 0.0
C490 C 0.2768 0.76322 0.91845 0.0
C491 C 0.27968 0.73059 0.91725 0.0
C492 C 0.27524 0.7093 0.939 0.0
C493 C 0.1515 0.56606 0.9964 0.0
C494 C 0.14988 0.53262 1.00542 0.0
C495 C 0.17841 0.59958 0.99619 0.0
C496 C 0.20474 0.60097 1.00488 0.0
C497 C 0.20359 0.56726 1.0129 0.0
C498 C 0.17638 0.5334 1.01325 0.0
C499 C 0.23262 0.63837 1.00622 0.0
C500 C 0.24033 0.66059 0.98447 0.0
C501 C 0.24986 0.65396 0.02914 0.0
C502 C 0.24289 0.63285 0.05315 0.0
C503 C 0.26468 0.62749 0.06583 0.0
C504 C 0.25825 0.60767 0.08846 0.0
C505 C 0.23003 0.59282 0.09852 0.0
C506 C 0.20834 0.59839 0.08624 0.0
C507 C 0.21478 0.61869 0.06382 0.0
H508 H 0.22504 0.57723 0.11593 0.0
H509 H 0.28028 0.77968 0.90159 0.0
H510 H 0.48616 0.16692 1.00218 0.0
H511 H 0.49701 0.23309 0.99798 0.0
H512 H 0.56657 0.26904 0.05566 0.0
H513 H 0.55546 0.20388 0.06017 0.0
H514 H 0.54489 0.31121 0.06443 0.0
H515 H 0.575 0.2808 0.98605 0.0
H516 H 0.5705 0.24619 0.94532 0.0
H517 H 0.50578 0.27501 0.9172 0.0
H518 H 0.5092 0.30885 0.9581 0.0
H519 H 0.61905 0.51229 0.04094 0.0
H520 H 0.60652 0.44539 0.04324 0.0
H521 H 0.52988 0.41295 0.99414 0.0
H522 H 0.54209 0.47936 0.99202 0.0
H523 H 0.55436 0.36929 0.98047 0.0
H524 H 0.52578 0.39991 0.06109 0.0
H525 H 0.53375 0.43617 0.10178 0.0
H526 H 0.60112 0.409 0.12492 0.0
H527 H 0.5938 0.37297 0.0842 0.0
C528 C 0.5036 0.1888 1.01413 0.0
C529 C 0.51963 0.17883 0.0316 0.0
C530 C 0.51015 0.22727 1.01156 0.0
C531 C 0.53318 0.2577 0.02627 0.0
C532 C 0.54869 0.24735 0.0439 0.0
C533 C 0.54222 0.20928 0.04642 0.0
C534 C 0.54144 0.2999 0.02371 0.0
C535 C 0.54721 0.32357 0.04589 0.0
C536 C 0.5445 0.31765 0.99982 0.0
C537 C 0.54208 0.29698 0.9753 0.0
C538 C 0.55954 0.2794 0.97131 0.0
C539 C 0.5572 0.25993 0.94818 0.0
C540 C 0.53786 0.25838 0.9287 0.0
C541 C 0.52076 0.27624 0.93232 0.0
C542 C 0.5228 0.29544 0.95552 0.0
C543 C 0.59958 0.4911 0.03047 0.0
C544 C 0.58179 0.50236 1.01628 0.0
C545 C 0.59219 0.45227 0.03192 0.0
C546 C 0.5668 0.42269 1.01906 0.0
C547 C 0.54954 0.43415 1.00439 0.0
C548 C 0.55665 0.47275 1.00324 0.0
C549 C 0.55786 0.38029 0.02116 0.0
C550 C 0.55196 0.35669 0.99893 0.0
C551 C 0.55515 0.36266 0.04497 0.0
C552 C 0.55944 0.38407 0.0695 0.0
C553 C 0.54243 0.40189 0.07479 0.0
C554 C 0.54681 0.42236 0.09786 0.0
C555 C 0.56798 0.42497 0.11589 0.0
C556 C 0.58476 0.40701 0.11092 0.0
C557 C 0.58049 0.38653 0.08785 0.0
H558 H 0.57134 0.44084 0.13375 0.0
H559 H 0.53614 0.24336 0.91078 0.0
H560 H 0.72283 0.17024 0.02131 0.0
H561 H 0.77646 0.20095 1.01632 0.0
H562 H 0.78694 0.29643 0.06288 0.0
H563 H 0.73323 0.26605 0.0677 0.0
H564 H 0.8207 0.31764 0.01972 0.0
H565 H 0.80104 0.23149 0.08816 0.0
H566 H 0.77686 0.16918 0.10777 0.0
H567 H 0.81263 0.12548 0.05089 0.0
H568 H 0.8367 0.18743 0.03071 0.0
H569 H 0.97079 0.40968 0.05683 0.0
H570 H 0.91708 0.37335 0.05757 0.0
H571 H 0.91827 0.28452 1.01112 0.0
H572 H 0.97249 0.32092 1.01018 0.0
H573 H 0.87829 0.25679 0.05031 0.0
H574 H 0.90236 0.34471 0.98442 0.0
H575 H 0.92562 0.40627 0.96392 0.0
H576 H 0.88014 0.44563 1.01377 0.0
H577 H 0.85765 0.38503 0.03533 0.0
C578 C 0.73651 0.19801 0.0302 0.0
C579 C 0.72376 0.21574 0.04489 0.0
C580 C 0.76718 0.21535 0.02753 0.0
C581 C 0.78574 0.2508 0.03945 0.0
C582 C 0.77304 0.269 0.05359 0.0
C583 C 0.74238 0.25155 0.05643 0.0
C584 C 0.81842 0.26891 0.03737 0.0
C585 C 0.83337 0.30459 0.02667 0.0
C586 C 0.83477 0.25117 0.04561 0.0
C587 C 0.82039 0.21396 0.05776 0.0
C588 C 0.80354 0.2085 0.0797 0.0
C589 C 0.78989 0.17327 0.09095 0.0
C590 C 0.79313 0.14336 0.08054 0.0
C591 C 0.81009 0.14866 0.0589 0.0
C592 C 0.82376 0.18382 0.04756 0.0
C593 C 0.95982 0.38224 0.04695 0.0
C594 C 0.97608 0.36831 0.03335 0.0
C595 C 0.929 0.36158 0.0473 0.0
C596 C 0.91361 0.32649 0.03408 0.0
C597 C 0.92972 0.31164 0.02136 0.0
C598 C 0.9607 0.33247 0.02086 0.0
C599 C 0.88071 0.30604 0.03321 0.0
C600 C 0.86568 0.26985 0.04324 0.0
C601 C 0.86425 0.32328 0.02424 0.0
C602 C 0.87854 0.36033 1.01173 0.0
C603 C 0.89772 0.36671 0.99134 0.0
C604 C 0.91081 0.40151 0.97952 0.0
C605 C 0.90455 0.43 0.98763 0.0
C606 C 0.88522 0.42375 1.00762 0.0
C607 C 0.87236 0.3892 0.01971 0.0
H608 H 0.9146 0.45686 0.97838 0.0
H609 H 0.78255 0.11611 0.08928 0.0
H610 H 0.92038 0.51352 1.0125 0.0
H611 H 0.87468 0.51671 1.01833 0.0
H612 H 0.90546 0.56627 0.09419 0.0
H613 H 0.95053 0.56156 0.08884 0.0
H614 H 0.84779 0.5146 0.09376 0.0
H615 H 0.91167 0.62095 0.04397 0.0
H616 H 0.94318 0.65226 1.00762 0.0
H617 H 0.86931 0.59 0.95535 0.0
H618 H 0.83744 0.55792 0.9914 0.0
H619 H 0.77017 0.61912 0.11257 0.0
H620 H 0.80638 0.59681 0.10746 0.0
H621 H 0.76183 0.53719 0.03709 0.0
H622 H 0.72559 0.55919 0.04212 0.0
H623 H 0.82286 0.58783 0.03292 0.0
H624 H 0.75789 0.48609 0.08403 0.0
H625 H 0.72691 0.45676 0.12101 0.0
H626 H 0.80334 0.51254 0.1715 0.0
H627 H 0.83473 0.54269 0.13483 0.0
C628 C 0.9171 0.52449 0.03054 0.0
C629 C 0.93887 0.53725 0.05023 0.0
C630 C 0.89118 0.52662 0.03377 0.0
C631 C 0.88687 0.54206 0.05661 0.0
C632 C 0.90839 0.55425 0.07644 0.0
C633 C 0.93421 0.55192 0.07326 0.0
C634 C 0.86045 0.54683 0.0596 0.0
C635 C 0.84243 0.53084 0.08058 0.0
C636 C 0.85318 0.56732 0.04205 0.0
C637 C 0.87226 0.58672 0.02036 0.0
C638 C 0.9022 0.61372 0.02471 0.0
C639 C 0.92012 0.63164 1.00416 0.0
C640 C 0.90827 0.62304 0.97918 0.0
C641 C 0.87846 0.59658 0.97471 0.0
C642 C 0.86046 0.57853 0.99519 0.0
C643 C 0.76785 0.60067 0.0963 0.0
C644 C 0.7451 0.59072 0.0778 0.0
C645 C 0.78841 0.58789 0.09344 0.0
C646 C 0.78662 0.56536 0.07192 0.0
C647 C 0.76341 0.55445 0.05385 0.0
C648 C 0.74266 0.56679 0.05686 0.0
C649 C 0.81043 0.55596 0.06721 0.0
C650 C 0.82801 0.5712 0.04592 0.0
C651 C 0.81739 0.53505 0.08457 0.0
C652 C 0.79862 0.51693 0.10669 0.0
C653 C 0.76806 0.49239 0.10304 0.0
C654 C 0.75043 0.47555 0.12394 0.0
C655 C 0.76313 0.48285 0.1486 0.0
C656 C 0.79352 0.50694 0.15239 0.0
C657 C 0.81125 0.52388 0.13155 0.0
H658 H 0.74945 0.46978 0.16476 0.0
H659 H 0.92218 0.63694 0.9633 0.0
H660 H 0.91572 0.77802 0.32158 0.0
H661 H 0.96806 0.79586 0.32106 0.0
H662 H 0.98901 0.89299 0.37029 0.0
H663 H 0.93646 0.8756 0.37041 0.0
H664 H 1.03304 0.91575 0.34168 0.0
H665 H 0.98921 0.80282 0.38865 0.0
H666 H 0.95436 0.73628 0.39737 0.0
H667 H 0.98391 0.69962 0.33161 0.0
H668 H 1.0187 0.76599 0.32232 0.0
H669 H 0.18359 0.95278 0.36737 0.0
H670 H 0.1317 0.93807 0.36932 0.0
H671 H 0.10588 0.83929 0.32023 0.0
H672 H 0.15752 0.85306 0.31932 0.0
H673 H 0.06456 0.8187 0.35041 0.0
H674 H 0.10896 0.93497 0.30405 0.0
H675 H 0.14527 1.00209 0.29856 0.0
H676 H 0.11586 1.03321 0.36688 0.0
H677 H 0.0795 0.96621 0.37287 0.0
C678 C 0.93113 0.80303 0.33266 0.0
C679 C 0.92059 0.82473 0.34627 0.0
C680 C 0.96172 0.81337 0.33242 0.0
C681 C 0.98378 0.84572 0.34616 0.0
C682 C 0.97339 0.86784 0.35942 0.0
C683 C 0.94276 0.85769 0.35947 0.0
C684 C 1.01713 0.85634 0.34655 0.0
C685 C 1.03962 0.89426 0.34389 0.0
C686 C 1.02721 0.82928 0.34915 0.0
C687 C 1.00633 0.78938 0.35464 0.0
C688 C 0.98813 0.78057 0.37595 0.0
C689 C 0.96841 0.74289 0.38101 0.0
C690 C 0.96686 0.71375 0.36501 0.0
C691 C 0.98509 0.72222 0.34396 0.0
C692 C 1.00483 0.75986 0.33879 0.0
C693 C 0.167 0.92796 0.35682 0.0
C694 C 0.17567 0.90448 0.34304 0.0
C695 C 0.1368 0.91955 0.35774 0.0
C696 C 0.11357 0.88761 0.34446 0.0
C697 C 0.12238 0.86416 0.33079 0.0
C698 C 0.15246 0.87229 0.33015 0.0
C699 C 0.08047 0.87795 0.34506 0.0
C700 C 0.05798 0.84017 0.34801 0.0
C701 C 0.07049 0.90523 0.34301 0.0
C702 C 0.09169 0.94556 0.339 0.0
C703 C 0.11027 0.95613 0.31791 0.0
C704 C 0.13086 0.99414 0.31472 0.0
C705 C 0.13292 1.02188 0.3324 0.0
C706 C 0.11425 1.01168 0.35322 0.0
C707 C 0.09361 0.97371 0.35649 0.0
H708 H 0.14893 0.05126 0.32995 0.0
H709 H 0.95158 0.68459 0.36896 0.0
H710 H 0.1903 0.33024 0.35876 0.0
H711 H 0.1868 0.26833 0.36394 0.0
H712 H 0.12083 0.24224 0.42099 0.0
H713 H 0.12343 0.30393 0.4153 0.0
H714 H 0.18633 0.23898 0.42637 0.0
H715 H 0.08762 0.18687 0.39013 0.0
H716 H 0.05015 0.18627 0.36012 0.0
H717 H 0.09817 0.17679 0.29656 0.0
H718 H 0.13625 0.17813 0.3262 0.0
H719 H 0.21006 0.08215 0.41368 0.0
H720 H 0.17894 0.11088 0.42302 0.0
H721 H 0.18855 0.14953 0.34582 0.0
H722 H 0.21824 0.11925 0.33601 0.0
H723 H 0.13532 0.13313 0.36223 0.0
H724 H 0.23806 0.20388 0.39535 0.0
H725 H 0.28029 0.21139 0.42228 0.0
H726 H 0.22823 0.19064 0.48928 0.0
H727 H 0.18558 0.18262 0.46264 0.0
C728 C 0.17496 0.31129 0.37232 0.0
C729 C 0.15716 0.32177 0.38665 0.0
C730 C 0.17288 0.27598 0.37516 0.0
C731 C 0.15337 0.25089 0.39264 0.0
C732 C 0.1357 0.26123 0.4072 0.0
C733 C 0.13728 0.29635 0.40394 0.0
C734 C 0.15319 0.21484 0.39608 0.0
C735 C 0.17435 0.21498 0.41311 0.0
C736 C 0.1379 0.18423 0.37836 0.0
C737 C 0.11492 0.18293 0.3604 0.0
C738 C 0.09035 0.18506 0.36975 0.0
C739 C 0.06896 0.1845 0.35281 0.0
C740 C 0.0718 0.18156 0.32645 0.0
C741 C 0.096 0.17909 0.31698 0.0
C742 C 0.11748 0.17971 0.33385 0.0
C743 C 0.2049 0.09591 0.39852 0.0
C744 C 0.21724 0.09929 0.37428 0.0
C745 C 0.18717 0.11238 0.40392 0.0
C746 C 0.18191 0.13293 0.38527 0.0
C747 C 0.19242 0.13395 0.36056 0.0
C748 C 0.20985 0.11721 0.35509 0.0
C749 C 0.16931 0.15786 0.39197 0.0
C750 C 0.14607 0.15588 0.37658 0.0
C751 C 0.18297 0.18716 0.41103 0.0
C752 C 0.20859 0.19216 0.42702 0.0
C753 C 0.23561 0.20072 0.41581 0.0
C754 C 0.2596 0.20508 0.43101 0.0
C755 C 0.25691 0.20135 0.45747 0.0
C756 C 0.23024 0.1934 0.46878 0.0
C757 C 0.20616 0.18893 0.45365 0.0
H758 H 0.27551 0.20474 0.46921 0.0
H759 H 0.05522 0.18113 0.31336 0.0
H760 H 0.99658 0.19131 0.34505 0.0
H761 H 0.95504 0.12683 0.34387 0.0
H762 H 0.89856 0.16792 0.37496 0.0
H763 H 0.94024 0.23231 0.37702 0.0
H764 H 0.88884 0.10388 0.39715 0.0
H765 H 0.89546 0.14542 0.31117 0.0
H766 H 0.92035 0.17199 0.27097 0.0
H767 H 0.9399 0.08073 0.261 0.0
H768 H 0.91547 0.05388 0.30135 0.0
H769 H 0.7514 0.93774 0.36281 0.0
H770 H 0.79165 1.00358 0.36335 0.0
H771 H 0.85371 0.96498 0.34403 0.0
H772 H 0.81394 0.89941 0.34397 0.0
H773 H 0.85926 1.02799 0.31545 0.0
H774 H 0.85456 0.98782 0.4017 0.0
H775 H 0.82993 0.96068 0.44187 0.0
H776 H 0.80695 0.04901 0.4512 0.0
H777 H 0.83105 0.07633 0.41081 0.0
C778 C 0.97542 0.18662 0.35191 0.0
C779 C 0.97174 0.21711 0.36096 0.0
C780 C 0.95159 0.14974 0.35099 0.0
C781 C 0.92352 0.14255 0.35896 0.0
C782 C 0.91994 0.17277 0.36856 0.0
C783 C 0.94375 0.20964 0.3695 0.0
C784 C 0.89783 0.1036 0.35706 0.0
C785 C 0.88212 0.08755 0.37919 0.0
C786 C 0.88933 0.08189 0.33374 0.0
C787 C 0.90387 0.09783 0.3094 0.0
C788 C 0.90525 0.13116 0.3005 0.0
C789 C 0.91925 0.14625 0.27767 0.0
C790 C 0.93176 0.12811 0.26347 0.0
C791 C 0.93023 0.09478 0.27204 0.0
C792 C 0.91628 0.07959 0.29487 0.0
C793 C 0.77357 0.94337 0.35842 0.0
C794 C 0.77955 0.91345 0.35343 0.0
C795 C 0.79653 0.98091 0.35885 0.0
C796 C 0.82565 0.98906 0.35384 0.0
C797 C 0.83141 0.95928 0.34795 0.0
C798 C 0.80866 0.92185 0.34801 0.0
C799 C 0.8504 1.0285 0.35549 0.0
C800 C 0.86592 1.04453 0.33333 0.0
C801 C 0.85873 0.05015 0.37876 0.0
C802 C 0.84427 1.03385 0.40306 0.0
C803 C 0.84399 1.00124 0.41217 0.0
C804 C 0.83019 0.98587 0.43501 0.0
C805 C 0.81682 1.00305 0.44904 0.0
C806 C 0.81728 1.03569 0.44028 0.0
C807 C 0.831 0.05114 0.41742 0.0
H808 H 0.80616 0.99113 0.46673 0.0
H809 H 0.94259 0.13984 0.24581 0.0
H810 H 0.3194 0.73954 0.34161 0.0
H811 H 0.32843 0.68982 0.32686 0.0
H812 H 0.32172 0.71679 0.24849 0.0
H813 H 0.31245 0.76757 0.26372 0.0
H814 H 0.27543 0.65991 0.25515 0.0
H815 H 0.36373 0.66403 0.26615 0.0
H816 H 0.41453 0.68077 0.27991 0.0
H817 H 0.38443 0.6393 0.35446 0.0
H818 H 0.33359 0.6229 0.34146 0.0
H819 H 0.16616 0.49202 0.31205 0.0
H820 H 0.20531 0.53056 0.28332 0.0
H821 H 0.26107 0.59521 0.34814 0.0
H822 H 0.22264 0.55525 0.37704 0.0
H823 H 0.29304 0.58057 0.3158 0.0
H824 H 0.21606 0.62355 0.30304 0.0
H825 H 0.16617 0.60979 0.28798 0.0
H826 H 0.17866 0.56641 0.21612 0.0
H827 H 0.22851 0.57968 0.23091 0.0
C828 C 0.3217 0.73667 0.32127 0.0
C829 C 0.31367 0.75608 0.30383 0.0
C830 C 0.32718 0.70792 0.31258 0.0
C831 C 0.32385 0.69756 0.28632 0.0
C832 C 0.3231 0.72305 0.26888 0.0
C833 C 0.31737 0.75179 0.27759 0.0
C834 C 0.30813 0.65627 0.27952 0.0
C835 C 0.27989 0.64231 0.2678 0.0
C836 C 0.31379 0.63132 0.29408 0.0
C837 C 0.34452 0.64165 0.30258 0.0
C838 C 0.36787 0.65854 0.28552 0.0
C839 C 0.39674 0.668 0.29321 0.0
C840 C 0.40267 0.66091 0.31799 0.0
C841 C 0.37977 0.64455 0.3352 0.0
C842 C 0.35084 0.63497 0.32761 0.0
C843 C 0.18658 0.51484 0.3202 0.0
C844 C 0.19141 0.52043 0.34686 0.0
C845 C 0.20905 0.53672 0.30368 0.0
C846 C 0.23633 0.56552 0.31346 0.0
C847 C 0.24048 0.57254 0.34007 0.0
C848 C 0.2183 0.55016 0.3566 0.0
C849 C 0.26035 0.59017 0.29648 0.0
C850 C 0.28949 0.59838 0.30266 0.0
C851 C 0.25563 0.61025 0.2769 0.0
C852 C 0.22575 0.60225 0.26813 0.0
C853 C 0.20806 0.611 0.28407 0.0
C854 C 0.17985 0.60333 0.27558 0.0
C855 C 0.16929 0.58732 0.25109 0.0
C856 C 0.18692 0.57895 0.23504 0.0
C857 C 0.21511 0.58646 0.24348 0.0
H858 H 0.1474 0.58128 0.24459 0.0
H859 H 0.42502 0.66817 0.3239 0.0
H860 H 0.38466 0.56584 0.33592 0.0
H861 H 0.43839 0.59734 0.33225 0.0
H862 H 0.44732 0.56627 0.40868 0.0
H863 H 0.39376 0.53621 0.41298 0.0
H864 H 0.48946 0.6354 0.40301 0.0
H865 H 0.46028 0.52026 0.35189 0.0
H866 H 0.43056 0.47246 0.3181 0.0
H867 H 0.46045 0.55883 0.26255 0.0
H868 H 0.48981 0.6071 0.29614 0.0
H869 H 0.64041 0.68353 0.40064 0.0
H870 H 0.58635 0.64591 0.40116 0.0
H871 H 0.58051 0.67863 0.32455 0.0
H872 H 0.63479 0.71412 0.32339 0.0
H873 H 0.53654 0.60851 0.32925 0.0
H874 H 0.57096 0.72246 0.38008 0.0
H875 H 0.60011 0.7701 0.41415 0.0
H876 H 0.55867 0.68693 0.47094 0.0
H877 H 0.52957 0.63878 0.43717 0.0
C878 C 0.39784 0.56572 0.35213 0.0
C879 C 0.38403 0.54774 0.37475 0.0
C880 C 0.42893 0.58353 0.34984 0.0
C881 C 0.44759 0.58395 0.36997 0.0
C882 C 0.43392 0.56646 0.39264 0.0
C883 C 0.40288 0.5487 0.39497 0.0
C884 C 0.48113 0.60297 0.3677 0.0
C885 C 0.49962 0.62901 0.387 0.0
C886 C 0.4951 0.59598 0.34661 0.0
C887 C 0.47749 0.56717 0.32641 0.0
C888 C 0.46048 0.52898 0.33245 0.0
C889 C 0.44365 0.50183 0.31336 0.0
C890 C 0.4437 0.51257 0.28817 0.0
C891 C 0.46056 0.5505 0.28203 0.0
C892 C 0.4774 0.57775 0.30106 0.0
C893 C 0.62768 0.68127 0.38343 0.0
C894 C 0.64232 0.70097 0.36167 0.0
C895 C 0.5965 0.66025 0.38389 0.0
C896 C 0.57859 0.65934 0.36296 0.0
C897 C 0.59327 0.67793 0.34085 0.0
C898 C 0.62457 0.69823 0.34014 0.0
C899 C 0.54498 0.64089 0.36468 0.0
C900 C 0.52645 0.61501 0.34526 0.0
C901 C 0.53094 0.64815 0.38568 0.0
C902 C 0.5483 0.67701 0.40607 0.0
C903 C 0.56821 0.71437 0.39983 0.0
C904 C 0.5847 0.74143 0.41907 0.0
C905 C 0.58128 0.73152 0.44468 0.0
C906 C 0.56131 0.69455 0.45109 0.0
C907 C 0.5448 0.66738 0.4319 0.0
H908 H 0.59407 0.7525 0.45955 0.0
H909 H 0.43064 0.49152 0.27342 0.0
H910 H 0.33216 0.87346 0.33164 0.0
H911 H 0.37582 0.86522 0.33403 0.0
H912 H 0.42644 0.97774 0.36759 0.0
H913 H 0.38211 0.98606 0.36492 0.0
H914 H 0.46153 0.96506 0.33708 0.0
H915 H 0.39769 0.89359 0.40236 0.0
H916 H 0.35195 0.84696 0.42221 0.0
H917 H 0.35383 0.75728 0.37804 0.0
H918 H 0.39871 0.80351 0.3569 0.0
H919 H 0.57787 0.92741 0.3823 0.0
H920 H 0.53752 0.94239 0.37884 0.0
H921 H 0.48356 0.8364 0.338 0.0
H922 H 0.52405 0.82176 0.3402 0.0
H923 H 0.45143 0.84812 0.37452 0.0
H924 H 0.5138 0.92104 0.30758 0.0
H925 H 0.56022 0.96805 0.28875 0.0
H926 H 0.56244 0.055 0.33908 0.0
H927 H 0.51621 1.00836 0.35846 0.0
C928 C 0.35246 0.89645 0.33979 0.0
C929 C 0.35306 0.93009 0.34864 0.0
C930 C 0.3777 0.8917 0.34114 0.0
C931 C 0.40484 0.92027 0.35174 0.0
C932 C 0.406 0.9548 0.35955 0.0
C933 C 0.38052 0.95967 0.35799 0.0
C934 C 0.43136 0.91345 0.35482 0.0
C935 C 0.45923 0.93969 0.34568 0.0
C936 C 0.429 0.88009 0.36561 0.0
C937 C 0.40147 0.85219 0.37779 0.0
C938 C 0.38809 0.86401 0.39652 0.0
C939 C 0.36224 0.83763 0.40796 0.0
C940 C 0.34984 0.79921 0.40122 0.0
C941 C 0.36326 0.7871 0.38301 0.0
C942 C 0.38884 0.81341 0.37121 0.0
C943 C 0.55779 0.90729 0.37209 0.0
C944 C 0.55506 0.87302 0.36162 0.0
C945 C 0.53436 0.916 0.37025 0.0
C946 C 0.50699 0.89075 0.35807 0.0
C947 C 0.50409 0.85658 0.34768 0.0
C948 C 0.52759 0.84806 0.34917 0.0
C949 C 0.48133 0.8994 0.35651 0.0
C950 C 0.45363 0.87348 0.36598 0.0
C951 C 0.48391 0.93307 0.34621 0.0
C952 C 0.51173 0.96112 0.33468 0.0
C953 C 0.52433 0.95012 0.3148 0.0
C954 C 0.55058 0.97671 0.30399 0.0
C955 C 0.56432 1.01447 0.31277 0.0
C956 C 0.5518 1.02573 0.33234 0.0
C957 C 0.52557 0.99923 0.34323 0.0
H958 H 0.58463 1.03502 0.30437 0.0
H959 H 0.32992 0.7788 0.4102 0.0
H960 H 0.77699 0.34427 0.6822 0.0
H961 H 0.72745 0.32932 0.69317 0.0
H962 H 0.69689 0.28879 0.61577 0.0
H963 H 0.74724 0.30766 0.6037 0.0
H964 H 0.65419 0.29264 0.64136 0.0
H965 H 0.71688 0.23148 0.65589 0.0
H966 H 0.76196 0.23263 0.67352 0.0
H967 H 0.74576 0.26573 0.74762 0.0
H968 H 0.70041 0.26433 0.73045 0.0
H969 H 0.54182 0.10287 0.64315 0.0
H970 H 0.5884 0.16007 0.63701 0.0
H971 H 0.60313 0.1772 0.71882 0.0
H972 H 0.55835 0.11792 0.72505 0.0
H973 H 0.65126 0.19446 0.69811 0.0
H974 H 0.57098 0.21808 0.67712 0.0
H975 H 0.52598 0.20578 0.65263 0.0
H976 H 0.57527 0.2407 0.58411 0.0
H977 H 0.62007 0.24991 0.60744 0.0
C978 C 0.76045 0.33467 0.66686 0.0
C979 C 0.76561 0.32376 0.64245 0.0
C980 C 0.73181 0.32588 0.67335 0.0
C981 C 0.70833 0.30503 0.65581 0.0
C982 C 0.71461 0.30325 0.62999 0.0
C983 C 0.74346 0.31345 0.62321 0.0
C984 C 0.67963 0.27555 0.665 0.0
C985 C 0.65325 0.27121 0.65395 0.0
C986 C 0.67861 0.24769 0.68148 0.0
C987 C 0.70557 0.24816 0.69189 0.0
C988 C 0.72299 0.23895 0.67595 0.0
C989 C 0.74855 0.23967 0.68583 0.0
C990 C 0.75683 0.24951 0.71161 0.0
C991 C 0.73938 0.25826 0.72764 0.0
C992 C 0.71371 0.25739 0.71788 0.0
C993 C 0.55542 0.11794 0.65987 0.0
C994 C 0.54596 0.10589 0.68471 0.0
C995 C 0.58173 0.15128 0.6563 0.0
C996 C 0.59851 0.17388 0.67747 0.0
C997 C 0.59015 0.16072 0.70218 0.0
C998 C 0.56441 0.12681 0.70573 0.0
C999 C 0.62537 0.21064 0.67405 0.0
C1000 C 0.65155 0.21624 0.68621 0.0
C1001 C 0.62598 0.23883 0.65797 0.0
C1002 C 0.59906 0.23453 0.64415 0.0
C1003 C 0.57228 0.22279 0.65679 0.0
C1004 C 0.54674 0.21632 0.64309 0.0
C1005 C 0.54784 0.22303 0.61699 0.0
C1006 C 0.57444 0.23567 0.60438 0.0
C1007 C 0.59989 0.24117 0.61779 0.0
H1008 H 0.52803 0.21823 0.60653 0.0
H1009 H 0.77669 0.25021 0.71919 0.0
H1010 H 0.94875 0.43118 0.71835 0.0
H1011 H 0.93859 0.48459 0.7212 0.0
H1012 H 0.87116 0.43139 0.66158 0.0
H1013 H 0.88384 0.38139 0.65672 0.0
H1014 H 0.88594 0.49423 0.65377 0.0
H1015 H 0.86435 0.44322 0.73706 0.0
H1016 H 0.87416 0.42212 0.77815 0.0
H1017 H 0.94475 0.53433 0.79615 0.0
H1018 H 0.93566 0.55596 0.75497 0.0
H1019 H 0.80985 0.60227 0.68801 0.0
H1020 H 0.82318 0.55129 0.6866 0.0
H1021 H 0.91308 0.63176 0.70846 0.0
H1022 H 0.90021 0.68283 0.70891 0.0
H1023 H 0.88704 0.55732 0.73644 0.0
H1024 H 0.90218 0.60459 0.65031 0.0
H1025 H 0.8858 0.62022 0.61007 0.0
H1026 H 0.81661 0.50512 0.59977 0.0
H1027 H 0.83234 0.48893 0.64015 0.0
C1028 C 0.93196 0.431 0.70564 0.0
C1029 C 0.91704 0.40069 0.6875 0.0
C1030 C 0.92557 0.4617 0.70757 0.0
C1031 C 0.90305 0.46294 0.69221 0.0
C1032 C 0.88858 0.43269 0.67399 0.0
C1033 C 0.89569 0.40304 0.67144 0.0
C1034 C 0.8946 0.49509 0.69437 0.0
C1035 C 0.88586 0.5071 0.67216 0.0
C1036 C 0.89429 0.51378 0.71791 0.0
C1037 C 0.89954 0.5011 0.74282 0.0
C1038 C 0.88204 0.46335 0.74975 0.0
C1039 C 0.88749 0.45129 0.77304 0.0
C1040 C 0.91012 0.47684 0.78971 0.0
C1041 C 0.92727 0.51455 0.78318 0.0
C1042 C 0.92199 0.52673 0.75987 0.0
C1043 C 0.8325 0.60932 0.69257 0.0
C1044 C 0.85378 0.64744 0.69852 0.0
C1045 C 0.8402 0.57983 0.69175 0.0
C1046 C 0.86936 0.58682 0.69753 0.0
C1047 C 0.89041 0.62472 0.704 0.0
C1048 C 0.88293 0.65429 0.70414 0.0
C1049 C 0.87815 0.55532 0.69603 0.0
C1050 C 0.887 0.54378 0.71827 0.0
C1051 C 0.87747 0.536 0.67273 0.0
C1052 C 0.86825 0.54566 0.64836 0.0
C1053 C 0.88332 0.58269 0.63956 0.0
C1054 C 0.87419 0.59164 0.61671 0.0
C1055 C 0.85013 0.5637 0.60241 0.0
C1056 C 0.83521 0.52674 0.61089 0.0
C1057 C 0.84425 0.51766 0.63374 0.0
H1058 H 0.84308 0.57068 0.58473 0.0
H1059 H 0.91433 0.46745 0.80772 0.0
H1060 H 0.68307 0.49239 0.7076 0.0
H1061 H 0.64603 0.42563 0.70966 0.0
H1062 H 0.59718 0.43735 0.64638 0.0
H1063 H 0.63438 0.50383 0.64377 0.0
H1064 H 0.5606 0.40023 0.68408 0.0
H1065 H 0.63708 0.38953 0.63931 0.0
H1066 H 0.68841 0.40237 0.63374 0.0
H1067 H 0.68506 0.34655 0.70332 0.0
H1068 H 0.63374 0.33359 0.7094 0.0
H1069 H 0.45794 0.21337 0.65157 0.0
H1070 H 0.50097 0.27612 0.65049 0.0
H1071 H 0.54112 0.25035 0.71423 0.0
H1072 H 0.49787 0.18635 0.71494 0.0
H1073 H 0.58318 0.29416 0.67998 0.0
H1074 H 0.50582 0.30205 0.72369 0.0
H1075 H 0.45488 0.29043 0.72982 0.0
H1076 H 0.46008 0.35232 0.66284 0.0
H1077 H 0.51089 0.36377 0.65605 0.0
C1078 C 0.66479 0.4808 0.69376 0.0
C1079 C 0.66202 0.50411 0.67551 0.0
C1080 C 0.64344 0.44238 0.69505 0.0
C1081 C 0.61865 0.42601 0.67812 0.0
C1082 C 0.61591 0.44908 0.6598 0.0
C1083 C 0.63728 0.48738 0.65841 0.0
C1084 C 0.59509 0.38533 0.67989 0.0
C1085 C 0.56558 0.3771 0.68284 0.0
C1086 C 0.60139 0.3548 0.67913 0.0
C1087 C 0.63176 0.36115 0.67502 0.0
C1088 C 0.64735 0.38016 0.65349 0.0
C1089 C 0.67641 0.38742 0.65023 0.0
C1090 C 0.69008 0.37564 0.6683 0.0
C1091 C 0.67452 0.35595 0.68945 0.0
C1092 C 0.64541 0.34852 0.69277 0.0
C1093 C 0.47608 0.22071 0.66517 0.0
C1094 C 0.47433 0.19472 0.68338 0.0
C1095 C 0.50068 0.25687 0.66465 0.0
C1096 C 0.52417 0.26869 0.68268 0.0
C1097 C 0.52326 0.24222 0.70021 0.0
C1098 C 0.49858 0.20553 0.70054 0.0
C1099 C 0.54863 0.3091 0.68358 0.0
C1100 C 0.57822 0.31728 0.68124 0.0
C1101 C 0.54247 0.33972 0.68496 0.0
C1102 C 0.51211 0.33354 0.68926 0.0
C1103 C 0.49605 0.31301 0.71018 0.0
C1104 C 0.4672 0.30646 0.71378 0.0
C1105 C 0.45423 0.32057 0.6967 0.0
C1106 C 0.47014 0.34138 0.67604 0.0
C1107 C 0.49898 0.34795 0.67232 0.0
H1108 H 0.43188 0.31542 0.6995 0.0
H1109 H 0.7127 0.38173 0.66585 0.0
H1110 H 0.80264 0.83892 0.67001 0.0
H1111 H 0.81399 0.90531 0.66664 0.0
H1112 H 0.8872 0.94023 0.72043 0.0
H1113 H 0.87517 0.87483 0.7247 0.0
H1114 H 0.86972 0.98466 0.73121 0.0
H1115 H 0.88958 0.95316 0.64744 0.0
H1116 H 0.8776 0.91551 0.60692 0.0
H1117 H 0.80724 0.94033 0.59067 0.0
H1118 H 0.81867 0.97792 0.63125 0.0
H1119 H 0.94375 0.18518 0.70641 0.0
H1120 H 0.93006 0.11786 0.70815 0.0
H1121 H 0.84965 0.08742 0.66502 0.0
H1122 H 0.86314 0.15429 0.66333 0.0
H1123 H 0.86953 1.04104 0.64835 0.0
H1124 H 0.85295 0.07537 0.7329 0.0
H1125 H 0.8667 0.11257 0.77371 0.0
H1126 H 0.93463 0.08258 0.788 0.0
H1127 H 0.92151 0.04557 0.74711 0.0
C1128 C 0.82101 0.8606 0.68132 0.0
C1129 C 0.83759 0.85013 0.69781 0.0
C1130 C 0.82792 0.89931 0.67915 0.0
C1131 C 0.85215 0.92965 0.69293 0.0
C1132 C 0.86836 0.91879 0.70943 0.0
C1133 C 0.86131 0.88047 0.71182 0.0
C1134 C 0.86091 0.9722 0.69072 0.0
C1135 C 0.86998 0.99661 0.71285 0.0
C1136 C 0.8612 0.9896 0.66719 0.0
C1137 C 0.85477 0.96799 0.64249 0.0
C1138 C 0.87151 0.9505 0.63525 0.0
C1139 C 0.86481 0.92917 0.61228 0.0
C1140 C 0.84158 0.92537 0.59629 0.0
C1141 C 0.82517 0.94322 0.60312 0.0
C1142 C 0.83178 0.96459 0.62608 0.0
C1143 C 0.92317 0.16435 0.69717 0.0
C1144 C 0.90479 0.17641 0.68475 0.0
C1145 C 0.9151 0.12523 0.69831 0.0
C1146 C 0.8883 0.09601 0.68697 0.0
C1147 C 0.87038 0.10823 0.67408 0.0
C1148 C 0.87824 0.14716 0.67319 0.0
C1149 C 0.87869 0.05327 0.68878 0.0
C1150 C 0.86938 1.02892 0.66663 0.0
C1151 C 0.87863 1.03598 0.71223 0.0
C1152 C 0.88644 0.05802 0.73684 0.0
C1153 C 0.87094 0.07692 0.74468 0.0
C1154 C 0.8786 0.09794 0.76783 0.0
C1155 C 0.90157 0.10002 0.78341 0.0
C1156 C 0.91687 0.08099 0.7759 0.0
C1157 C 0.90932 0.05997 0.75275 0.0
H1158 H 0.90747 0.11631 0.80132 0.0
H1159 H 0.83629 0.90859 0.57863 0.0
H1160 H 1.04691 0.81546 0.69116 0.0
H1161 H 0.10077 0.84403 0.688 0.0
H1162 H 0.11127 0.94818 0.72215 0.0
H1163 H 0.05772 0.91998 0.72522 0.0
H1164 H 0.14612 0.96375 0.68339 0.0
H1165 H 0.12532 0.88397 0.75561 0.0
H1166 H 0.10126 0.82394 0.77807 0.0
H1167 H 0.13841 0.77556 0.726 0.0
H1168 H 0.1624 0.8352 0.70301 0.0
H1169 H 0.29329 0.05983 0.72834 0.0
H1170 H 0.23971 1.02127 0.72671 0.0
H1171 H 0.24655 0.93579 0.68101 0.0
H1172 H 0.30082 0.9747 0.68232 0.0
H1173 H 0.2034 0.90652 0.72066 0.0
H1174 H 0.22876 0.99076 0.6515 0.0
H1175 H 0.25357 0.0523 0.63096 0.0
H1176 H 0.20797 0.09372 0.67898 0.0
H1177 H 0.18331 1.03267 0.70019 0.0
C1178 C 0.06071 0.84437 0.69814 0.0
C1179 C 0.04784 0.8654 0.70834 0.0
C1180 C 0.09157 0.86072 0.69633 0.0
C1181 C 0.11031 0.89831 0.70499 0.0
C1182 C 0.09744 0.91925 0.71517 0.0
C1183 C 0.0667 0.90306 0.71684 0.0
C1184 C 0.14327 0.91627 0.70342 0.0
C1185 C 0.15857 0.95128 0.69174 0.0
C1186 C 0.15973 0.8997 0.71362 0.0
C1187 C 0.14535 0.86387 0.72741 0.0
C1188 C 0.12816 0.86042 0.74882 0.0
C1189 C 0.11457 0.82649 0.76167 0.0
C1190 C 0.11822 0.79591 0.75341 0.0
C1191 C 0.13555 0.79924 0.73234 0.0
C1192 C 0.14916 0.8331 0.7194 0.0
C1193 C 0.28365 1.03268 0.71811 0.0
C1194 C 0.3016 1.02051 0.7054 0.0
C1195 C 0.25285 1.01068 0.71714 0.0
C1196 C 0.23902 0.97582 0.7035 0.0
C1197 C 0.25674 0.96266 0.69162 0.0
C1198 C 0.28777 0.98493 0.6924 0.0
C1199 C 0.20605 0.95423 0.70117 0.0
C1200 C 0.19082 0.91865 0.71206 0.0
C1201 C 0.18962 0.97038 0.69041 0.0
C1202 C 0.20434 1.00716 0.6776 0.0
C1203 C 0.22421 1.01308 0.65786 0.0
C1204 C 0.23824 0.04789 0.64608 0.0
C1205 C 0.2324 0.07693 0.6537 0.0
C1206 C 0.21246 0.07119 0.67309 0.0
C1207 C 0.19847 1.03649 0.68501 0.0
H1208 H 0.2433 0.10387 0.64458 0.0
H1209 H 0.10769 0.76967 0.76339 0.0
H1210 H 0.24715 0.17055 0.66953 0.0
H1211 H 0.20722 0.18661 0.66493 0.0
H1212 H 0.23151 0.24434 0.739 0.0
H1213 H 0.27119 0.22838 0.74374 0.0
H1214 H 0.15838 0.17539 0.69344 0.0
H1215 H 0.23397 0.3284 0.73385 0.0
H1216 H 0.28709 0.37539 0.73615 0.0
H1217 H 0.3014 0.32457 0.66859 0.0
H1218 H 0.24831 0.27767 0.66564 0.0
H1219 H 0.07849 0.26181 0.74079 0.0
H1220 H 0.11281 0.23739 0.73365 0.0
H1221 H 0.14846 0.30975 0.66962 0.0
H1222 H 0.11469 0.33523 0.67717 0.0
H1223 H 0.1914 0.31293 0.69997 0.0
H1224 H 0.10425 0.21619 0.65895 0.0
H1225 H 0.05132 0.16922 0.6541 0.0
H1226 H 0.05991 0.10789 0.71647 0.0
H1227 H 0.11282 0.15482 0.72197 0.0
C1228 C 0.24354 0.18603 0.685 0.0
C1229 C 0.2625 0.19882 0.70681 0.0
C1230 C 0.22083 0.19521 0.68233 0.0
C1231 C 0.21694 0.21729 0.7014 0.0
C1232 C 0.23463 0.22793 0.72386 0.0
C1233 C 0.25728 0.21889 0.72652 0.0
C1234 C 0.19573 0.23142 0.69749 0.0
C1235 C 0.16549 0.20541 0.69471 0.0
C1236 C 0.20529 0.27066 0.69837 0.0
C1237 C 0.23717 0.29936 0.69964 0.0
C1238 C 0.24841 0.32741 0.71939 0.0
C1239 C 0.27853 0.354 0.72082 0.0
C1240 C 0.29762 0.35291 0.70256 0.0
C1241 C 0.28661 0.32532 0.68276 0.0
C1242 C 0.25651 0.29871 0.68121 0.0
C1243 C 0.09386 0.27284 0.72537 0.0
C1244 C 0.09405 0.30056 0.70961 0.0
C1245 C 0.11313 0.25845 0.72107 0.0
C1246 C 0.13279 0.27133 0.70085 0.0
C1247 C 0.13325 0.29925 0.68519 0.0
C1248 C 0.11394 0.31367 0.68948 0.0
C1249 C 0.15384 0.25687 0.69701 0.0
C1250 C 0.18417 0.28288 0.69832 0.0
C1251 C 0.14432 0.21769 0.69428 0.0
C1252 C 0.11251 0.1892 0.69097 0.0
C1253 C 0.09482 0.19284 0.67176 0.0
C1254 C 0.06482 0.1662 0.66887 0.0
C1255 C 0.05225 0.13562 0.68499 0.0
C1256 C 0.06968 0.13159 0.704 0.0
C1257 C 0.0997 0.15819 0.70699 0.0
H1258 H 1.02901 0.11503 0.68273 0.0
H1259 H 0.32093 0.37348 0.70374 0.0
H1260 H 0.21446 0.46529 0.29471 0.0
H1261 H 0.20743 0.47869 0.25022 0.0
H1262 H 0.11572 0.39318 0.25129 0.0
H1263 H 0.12237 0.37975 0.2951 0.0
H1264 H 0.18843 0.43941 0.20344 0.0
H1265 H 0.0729 0.42618 0.22392 0.0
H1266 H 1.04751 0.43765 0.25987 0.0
H1267 H 0.13138 0.51658 0.29503 0.0
H1268 H 0.15722 0.50551 0.25934 0.0
H1269 H 0.09719 0.39742 0.0926 0.0
H1270 H 0.11898 0.40101 0.13478 0.0
H1271 H 0.13152 0.51358 0.14744 0.0
H1272 H 0.11025 0.51059 0.10446 0.0
H1273 H 0.10684 0.46916 0.18905 0.0
H1274 H 0.19255 0.50646 0.14132 0.0
H1275 H 0.22387 0.50587 0.10643 0.0
H1276 H 0.20693 0.39487 0.1262 0.0
H1277 H 0.17562 0.39494 0.16142 0.0
C1278 C 0.19295 0.44884 0.2853 0.0
C1279 C 0.16899 0.42173 0.29887 0.0
C1280 C 0.18892 0.4566 0.25981 0.0
C1281 C 0.1608 0.43762 0.24744 0.0
C1282 C 0.13747 0.40891 0.26044 0.0
C1283 C 0.14147 0.40105 0.28564 0.0
C1284 C 0.15499 0.44828 0.22151 0.0
C1285 C 0.17062 0.44594 0.20037 0.0
C1286 C 0.1325 0.45834 0.21732 0.0
C1287 C 0.11702 0.4649 0.23896 0.0
C1288 C 0.08593 0.44604 0.23929 0.0
C1289 C 0.07145 0.45238 0.25967 0.0
C1290 C 0.08783 0.47772 0.27977 0.0
C1291 C 0.11872 0.49676 0.27954 0.0
C1292 C 0.13329 0.49038 0.25927 0.0
C1293 C 0.10487 0.42326 0.10404 0.0
C1294 C 0.10198 0.45379 0.09478 0.0
C1295 C 0.11744 0.42526 0.12834 0.0
C1296 C 0.12723 0.45766 0.14443 0.0
C1297 C 0.12426 0.48825 0.13544 0.0
C1298 C 0.11207 0.4865 0.11081 0.0
C1299 C 0.13921 0.4583 0.1709 0.0
C1300 C 0.12473 0.46278 0.19215 0.0
C1301 C 0.16326 0.45128 0.17525 0.0
C1302 C 0.1816 0.45061 0.1539 0.0
C1303 C 0.19533 0.4818 0.13812 0.0
C1304 C 0.21315 0.48161 0.11833 0.0
C1305 C 0.21732 0.45028 0.11404 0.0
C1306 C 0.20369 0.41911 0.12957 0.0
C1307 C 0.18601 0.41928 0.14953 0.0
H1308 H 0.23121 0.45021 0.09876 0.0
H1309 H 0.07658 0.48264 0.2955 0.0
H1310 H 0.64473 0.7841 0.28972 0.0
H1311 H 0.62055 0.75825 0.24783 0.0
H1312 H 0.68883 0.73015 0.22928 0.0
H1313 H 0.71356 0.75708 0.27053 0.0
H1314 H 0.67659 0.75237 0.18848 0.0
H1315 H 0.61487 0.66137 0.24826 0.0
H1316 H 0.58434 0.63895 0.28639 0.0
H1317 H 0.52572 0.6769 0.25663 0.0
H1318 H 0.55594 0.6995 0.21824 0.0
H1319 H 0.59357 0.58978 0.10448 0.0
H1320 H 0.61022 0.62431 0.14559 0.0
H1321 H 0.57831 0.69993 0.12255 0.0
H1322 H 0.56227 0.666 0.08057 0.0
H1323 H 0.56972 0.65822 0.18242 0.0
H1324 H 0.63529 0.74636 0.11928 0.0
H1325 H 0.66655 0.76023 0.08155 0.0
H1326 H 0.71921 0.71917 0.11926 0.0
H1327 H 0.68778 0.70421 0.15695 0.0
C1328 C 0.65482 0.77278 0.27666 0.0
C1329 C 0.6813 0.77293 0.28381 0.0
C1330 C 0.64073 0.75756 0.25264 0.0
C1331 C 0.65237 0.74139 0.23515 0.0
C1332 C 0.67914 0.74231 0.2421 0.0
C1333 C 0.69335 0.75781 0.26593 0.0
C1334 C 0.63678 0.72313 0.20985 0.0
C1335 C 0.65319 0.73192 0.18736 0.0
C1336 C 0.60613 0.69624 0.20775 0.0
C1337 C 0.58783 0.68252 0.2306 0.0
C1338 C 0.59554 0.66508 0.24992 0.0
C1339 C 0.57827 0.65226 0.27152 0.0
C1340 C 0.55324 0.65674 0.27397 0.0
C1341 C 0.54519 0.67359 0.2547 0.0
C1342 C 0.56232 0.6863 0.23299 0.0
C1343 C 0.58949 0.61331 0.10818 0.0
C1344 C 0.5765 0.62496 0.089 0.0
C1345 C 0.59916 0.63314 0.13179 0.0
C1346 C 0.59584 0.66498 0.13719 0.0
C1347 C 0.58122 0.67549 0.11882 0.0
C1348 C 0.5718 0.65583 0.09487 0.0
C1349 C 0.6095 0.68806 0.1614 0.0
C1350 C 0.59289 0.67957 0.18364 0.0
C1351 C 0.64005 0.71467 0.16339 0.0
C1352 C 0.65901 0.72381 0.1408 0.0
C1353 C 0.65331 0.73986 0.11938 0.0
C1354 C 0.6711 0.74801 0.09803 0.0
C1355 C 0.69485 0.74057 0.098 0.0
C1356 C 0.7008 0.7249 0.11929 0.0
C1357 C 0.683 0.71657 0.14064 0.0
H1358 H 0.70863 0.74694 0.08147 0.0
H1359 H 0.54018 0.64732 0.29085 0.0
H1360 H 0.45275 0.07807 0.10431 0.0
H1361 H 0.42105 0.05372 0.14075 0.0
H1362 H 0.46555 0.99131 0.16189 0.0
H1363 H 0.49761 1.01565 0.12467 0.0
H1364 H 0.40528 0.94719 0.1654 0.0
H1365 H 0.47598 0.06988 0.19766 0.0
H1366 H 0.5072 0.13917 0.19741 0.0
H1367 H 0.42958 0.15202 0.19151 0.0
H1368 H 0.39788 0.08276 0.19136 0.0
H1369 H 0.32386 0.89875 0.28277 0.0
H1370 H 0.36119 0.91889 0.24975 0.0
H1371 H 0.33407 0.99811 0.22369 0.0
H1372 H 0.29764 0.97908 0.25723 0.0
H1373 H 0.39022 1.03266 0.22557 0.0
H1374 H 0.31974 0.90923 0.18972 0.0
H1375 H 0.28872 0.83989 0.19031 0.0
H1376 H 0.36613 0.82837 0.20366 0.0
H1377 H 0.39757 0.8977 0.2034 0.0
C1378 C 0.45626 0.05957 0.11681 0.0
C1379 C 0.47812 0.04922 0.11144 0.0
C1380 C 0.43796 0.0456 0.13785 0.0
C1381 C 0.44074 1.02072 0.15453 0.0
C1382 C 0.4628 1.01049 0.14949 0.0
C1383 C 0.48142 1.02478 0.12832 0.0
C1384 C 0.42005 1.00531 0.17663 0.0
C1385 C 0.4024 0.96595 0.17883 0.0
C1386 C 0.41558 1.02937 0.19414 0.0
C1387 C 0.43456 0.07108 0.19432 0.0
C1388 C 0.46557 0.08746 0.19613 0.0
C1389 C 0.48335 0.12674 0.19609 0.0
C1390 C 0.47039 0.14998 0.19439 0.0
C1391 C 0.4396 0.13398 0.1928 0.0
C1392 C 0.42171 0.09471 0.19282 0.0
C1393 C 0.32539 0.91991 0.26967 0.0
C1394 C 0.30733 0.93694 0.27268 0.0
C1395 C 0.34692 0.93152 0.25065 0.0
C1396 C 0.35071 0.96006 0.2337 0.0
C1397 C 0.33205 0.97624 0.23635 0.0
C1398 C 0.31089 0.96505 0.25553 0.0
C1399 C 0.37469 0.97446 0.21398 0.0
C1400 C 0.39309 1.01377 0.21226 0.0
C1401 C 0.37979 0.9503 0.19699 0.0
C1402 C 0.36096 0.90865 0.19679 0.0
C1403 C 0.33012 0.89191 0.19291 0.0
C1404 C 0.31247 0.85262 0.19317 0.0
C1405 C 0.32544 0.82974 0.1971 0.0
C1406 C 0.35611 0.84612 0.20066 0.0
C1407 C 0.37385 0.8854 0.20043 0.0
H1408 H 0.31174 0.79933 0.19733 0.0
H1409 H 0.4842 0.18038 0.19436 0.0
H1410 H 0.54136 0.15436 0.97426 0.0
H1411 H 0.52809 0.16958 0.93246 0.0
H1412 H 0.50083 0.05595 0.90423 0.0
H1413 H 0.51439 1.0411 0.94543 0.0
H1414 H 0.52557 0.10144 0.86747 0.0
H1415 H 0.45339 0.08657 0.92981 0.0
H1416 H 0.4355 0.10203 0.96937 0.0
H1417 H 0.45992 0.21244 0.94245 0.0
H1418 H 0.47849 0.19788 0.90285 0.0
H1419 H 0.41631 0.05479 0.77207 0.0
H1420 H 0.44217 0.06092 0.81253 0.0
H1421 H 0.4675 0.17927 0.81867 0.0
H1422 H 0.44118 0.17331 0.77768 0.0
H1423 H 0.4499 0.14345 0.86577 0.0
H1424 H 0.51976 0.15498 0.80192 0.0
H1425 H 0.53627 0.13679 0.76264 0.0
H1426 H 0.51222 1.02812 0.79271 0.0
H1427 H 0.49572 0.04582 0.83228 0.0
C1428 C 0.53361 0.13315 0.9588 0.0
C1429 C 0.52923 0.09657 0.96315 0.0
C1430 C 0.52551 0.14165 0.93499 0.0
C1431 C 0.51284 0.11373 0.91509 0.0
C1432 C 0.51041 0.0781 0.91905 0.0
C1433 C 0.51834 0.06962 0.9427 0.0
C1434 C 0.5006 0.12012 0.89056 0.0
C1435 C 0.509 0.1106 0.86725 0.0
C1436 C 0.47928 0.1328 0.88986 0.0
C1437 C 0.46794 0.14144 0.91359 0.0
C1438 C 0.45529 0.11432 0.93243 0.0
C1439 C 0.44494 0.12288 0.95483 0.0
C1440 C 0.44671 0.15827 0.95845 0.0
C1441 C 0.45873 0.18512 0.93965 0.0
C1442 C 0.46919 0.17674 0.91724 0.0
C1443 C 0.4272 0.08226 0.78191 0.0
C1444 C 0.42659 0.11361 0.77132 0.0
C1445 C 0.4422 0.08573 0.80516 0.0
C1446 C 0.45732 0.12068 0.81867 0.0
C1447 C 0.45616 0.15197 0.80864 0.0
C1448 C 0.44109 0.14854 0.78515 0.0
C1449 C 0.47448 0.12391 0.84293 0.0
C1450 C 0.46692 0.13507 0.86608 0.0
C1451 C 0.49634 0.1123 0.84365 0.0
C1452 C 0.50638 0.10166 0.81997 0.0
C1453 C 0.51789 0.12715 0.80009 0.0
C1454 C 0.52728 0.11693 0.77779 0.0
C1455 C 0.52515 0.0812 0.77511 0.0
C1456 C 0.51383 0.05575 0.79481 0.0
C1457 C 0.50458 0.06593 0.81722 0.0
H1458 H 0.53229 0.07318 0.75782 0.0
H1459 H 0.4387 0.16486 0.97581 0.0
H1460 H 0.04827 0.40833 0.92796 0.0
H1461 H 1.01865 0.38877 0.88819 0.0
H1462 H 0.95568 0.41658 0.92198 0.0
H1463 H 0.98527 0.43607 0.96219 0.0
H1464 H 0.92708 0.34975 0.89582 0.0
H1465 H 1.00346 0.47288 0.87699 0.0
H1466 H 0.05468 0.52479 0.87405 0.0
H1467 H 0.0743 0.45678 0.82188 0.0
H1468 H 1.02331 0.40424 0.82478 0.0
H1469 H 0.9054 0.35883 0.74493 0.0
H1470 H 0.92287 0.38904 0.78769 0.0
H1471 H 0.90789 0.28258 0.81678 0.0
H1472 H 0.89068 0.25268 0.77432 0.0
H1473 H 0.9717 0.3975 0.81213 0.0
H1474 H 0.89779 0.27922 0.88069 0.0
H1475 H 0.84554 0.23029 0.88376 0.0
H1476 H 0.81868 0.29425 0.8365 0.0
H1477 H 0.8707 0.34383 0.83345 0.0
C1478 C 1.02824 0.41061 0.92702 0.0
C1479 C 1.0194 0.42409 0.94846 0.0
C1480 C 1.01128 0.39947 0.90408 0.0
C1481 C 0.9849 0.40142 0.90174 0.0
C1482 C 0.97591 0.41478 0.92312 0.0
C1483 C 0.993 0.42618 0.94612 0.0
C1484 C 0.96665 0.38875 0.87715 0.0
C1485 C 0.93685 0.36033 0.87755 0.0
C1486 C 0.97893 0.40295 0.85315 0.0
C1487 C 1.0096 0.43452 0.85125 0.0
C1488 C 1.01875 0.4689 0.86503 0.0
C1489 C 0.04774 0.49845 0.86335 0.0
C1490 C 0.06775 0.49406 0.84783 0.0
C1491 C 0.05879 0.46013 0.8339 0.0
C1492 C 1.02983 0.43047 0.83554 0.0
C1493 C 0.90455 0.34152 0.7607 0.0
C1494 C 0.89615 0.3031 0.75622 0.0
C1495 C 0.91503 0.35898 0.78514 0.0
C1496 C 0.91689 0.33828 0.80573 0.0
C1497 C 0.90644 0.29932 0.80156 0.0
C1498 C 0.89633 0.28207 0.7772 0.0
C1499 C 0.9324 0.35754 0.8307 0.0
C1500 C 0.96178 0.38714 0.83039 0.0
C1501 C 0.91961 0.34467 0.85477 0.0
C1502 C 0.88821 0.31512 0.85669 0.0
C1503 C 0.88073 0.28295 0.87106 0.0
C1504 C 0.85115 0.25507 0.87277 0.0
C1505 C 0.82881 0.25911 0.86028 0.0
C1506 C 0.83601 0.29109 0.8461 0.0
C1507 C 0.86555 0.31906 0.84434 0.0
H1508 H 0.80593 0.23748 0.86162 0.0
H1509 H 0.09019 0.51698 0.84655 0.0
H1510 H 0.82424 0.70786 0.7937 0.0
H1511 H 0.7934 0.68893 0.83187 0.0
H1512 H 0.73993 0.73394 0.80017 0.0
H1513 H 0.77077 0.75363 0.76303 0.0
H1514 H 0.74354 0.74862 0.84743 0.0
H1515 H 0.71931 0.63478 0.79905 0.0
H1516 H 0.72866 0.58696 0.77725 0.0
H1517 H 0.76012 0.56621 0.84821 0.0
H1518 H 0.75131 0.61431 0.87037 0.0
H1519 H 0.61201 0.64602 0.92099 0.0
H1520 H 0.64516 0.66386 0.88427 0.0
H1521 H 0.70804 0.64618 0.92853 0.0
H1522 H 0.67566 0.62966 0.9652 0.0
H1523 H 0.70003 0.61692 0.87612 0.0
H1524 H 0.72165 0.73162 0.9238 0.0
H1525 H 0.70899 0.7775 0.94398 0.0
H1526 H 0.67826 0.79405 0.87126 0.0
H1527 H 0.69033 0.74778 0.8507 0.0
C1528 C 0.80632 0.71443 0.79517 0.0
C1529 C 0.8002 0.73234 0.77503 0.0
C1530 C 0.78829 0.70307 0.81692 0.0
C1531 C 0.76358 0.70916 0.81907 0.0
C1532 C 0.7585 0.72854 0.79941 0.0
C1533 C 0.77635 0.73982 0.77792 0.0
C1534 C 0.74245 0.69504 0.84112 0.0
C1535 C 0.73392 0.71964 0.85337 0.0
C1536 C 0.72962 0.65732 0.84953 0.0
C1537 C 0.735 0.62846 0.8363 0.0
C1538 C 0.72845 0.62023 0.80996 0.0
C1539 C 0.73361 0.59305 0.79755 0.0
C1540 C 0.74508 0.57365 0.81132 0.0
C1541 C 0.75132 0.58133 0.83755 0.0
C1542 C 0.74623 0.60854 0.85006 0.0
C1543 C 0.63264 0.64529 0.92271 0.0
C1544 C 0.64101 0.63618 0.94611 0.0
C1545 C 0.65174 0.65575 0.90173 0.0
C1546 C 0.67938 0.65657 0.90344 0.0
C1547 C 0.687 0.64581 0.92646 0.0
C1548 C 0.66836 0.63633 0.9475 0.0
C1549 C 0.70111 0.67041 0.882 0.0
C1550 C 0.70974 0.64584 0.87002 0.0
C1551 C 0.71366 0.70794 0.8735 0.0
C1552 C 0.70658 0.73592 0.88577 0.0
C1553 C 0.71195 0.74479 0.91215 0.0
C1554 C 0.70492 0.77091 0.92365 0.0
C1555 C 0.69274 0.7886 0.90893 0.0
C1556 C 0.68764 0.78028 0.88265 0.0
C1557 C 0.69458 0.75412 0.87106 0.0
H1558 H 0.68732 0.80882 0.91786 0.0
H1559 H 0.74904 0.55259 0.80168 0.0
H1560 H 0.75139 0.86139 0.44895 0.0
H1561 H 0.77226 0.86145 0.49174 0.0
H1562 H 0.75443 0.74686 0.47693 0.0
H1563 H 0.73371 0.74663 0.43488 0.0
H1564 H 0.74113 0.75426 0.5248 0.0
H1565 H 0.82521 0.82555 0.47079 0.0
H1566 H 0.85456 0.87821 0.44269 0.0
H1567 H 0.865 0.95834 0.50285 0.0
H1568 H 0.83542 0.90609 0.5312 0.0
H1569 H 0.82955 0.71633 0.60597 0.0
H1570 H 0.81215 0.73261 0.56714 0.0
H1571 H 0.83813 0.84342 0.60002 0.0
H1572 H 0.8563 0.82741 0.63902 0.0
H1573 H 0.84592 0.8463 0.54723 0.0
H1574 H 0.76768 0.77636 0.60304 0.0
H1575 H 0.73811 0.72464 0.63166 0.0
H1576 H 0.71484 0.64359 0.56909 0.0
H1577 H 0.74465 0.6948 0.54014 0.0
C1578 C 0.75145 0.83604 0.45507 0.0
C1579 C 0.74084 0.80404 0.43832 0.0
C1580 C 0.7637 0.83618 0.47948 0.0
C1581 C 0.7654 0.80424 0.48772 0.0
C1582 C 0.75359 0.77194 0.47132 0.0
C1583 C 0.74172 0.77191 0.44708 0.0
C1584 C 0.77993 0.80385 0.51287 0.0
C1585 C 0.76409 0.77435 0.52954 0.0
C1586 C 0.80966 0.83061 0.51985 0.0
C1587 C 0.82797 0.86197 0.50304 0.0
C1588 C 0.8337 0.85441 0.47799 0.0
C1589 C 0.85037 0.88417 0.46201 0.0
C1590 C 0.86161 0.9216 0.47097 0.0
C1591 C 0.85629 0.92934 0.49595 0.0
C1592 C 0.83961 0.89967 0.51199 0.0
C1593 C 0.83248 0.74464 0.60471 0.0
C1594 C 0.84458 0.77056 0.62569 0.0
C1595 C 0.8222 0.75385 0.58249 0.0
C1596 C 0.82312 0.78906 0.58063 0.0
C1597 C 0.83706 0.81607 0.60083 0.0
C1598 C 0.84768 0.80694 0.62312 0.0
C1599 C 0.80736 0.79583 0.55855 0.0
C1600 C 0.82288 0.82648 0.5426 0.0
C1601 C 0.77716 0.77031 0.55227 0.0
C1602 C 0.75858 0.73943 0.56944 0.0
C1603 C 0.75637 0.74749 0.59539 0.0
C1604 C 0.73957 0.71827 0.61169 0.0
C1605 C 0.72466 0.68084 0.60222 0.0
C1606 C 0.72642 0.6726 0.5764 0.0
C1607 C 0.74323 0.70172 0.56003 0.0
H1608 H 0.71173 0.65824 0.61488 0.0
H1609 H 0.87445 0.9446 0.45856 0.0
H1610 H 0.22651 0.91653 0.43109 0.0
H1611 H 0.23508 0.93867 0.4764 0.0
H1612 H 0.32759 0.97168 0.47034 0.0
H1613 H 0.31908 0.94984 0.42558 0.0
H1614 H 0.30837 0.94191 0.51583 0.0
H1615 H 0.30149 1.03464 0.4634 0.0
H1616 H 0.27581 0.05571 0.43321 0.0
H1617 H 0.20697 1.0297 0.48688 0.0
H1618 H 0.23201 1.00786 0.51723 0.0
H1619 H 0.39267 0.0865 0.60369 0.0
H1620 H 0.36815 0.05412 0.56347 0.0
H1621 H 0.28371 1.03011 0.59337 0.0
H1622 H 0.30847 0.0631 0.63415 0.0
H1623 H 0.28941 0.04769 0.53969 0.0
H1624 H 0.30087 0.96266 0.59452 0.0
H1625 H 0.32816 0.94339 0.62424 0.0
H1626 H 0.38916 0.95549 0.56556 0.0
H1627 H 0.36254 0.97547 0.5356 0.0
C1628 C 0.2484 0.92734 0.43976 0.0
C1629 C 0.27206 0.93103 0.42487 0.0
C1630 C 0.25342 0.9405 0.46557 0.0
C1631 C 0.28214 0.9574 0.47689 0.0
C1632 C 0.30525 0.95886 0.46228 0.0
C1633 C 0.30034 0.9462 0.43664 0.0
C1634 C 0.28909 0.97567 0.50328 0.0
C1635 C 0.30415 0.96498 0.52098 0.0
C1636 C 0.28316 1.00539 0.51046 0.0
C1637 C 0.26842 1.01919 0.49245 0.0
C1638 C 0.28077 1.03318 0.46869 0.0
C1639 C 0.26635 0.04528 0.45156 0.0
C1640 C 0.23973 1.04392 0.4581 0.0
C1641 C 0.22755 1.03064 0.48183 0.0
C1642 C 0.24185 1.0184 0.499 0.0
C1643 C 0.36892 0.07496 0.60169 0.0
C1644 C 0.35258 0.07733 0.62231 0.0
C1645 C 0.35487 0.05628 0.5786 0.0
C1646 C 0.32396 1.03892 0.57538 0.0
C1647 C 0.30758 1.04311 0.59533 0.0
C1648 C 0.32177 0.06212 0.61862 0.0
C1649 C 0.3093 1.01443 0.55186 0.0
C1650 C 0.29299 1.02404 0.53473 0.0
C1651 C 0.31411 0.98368 0.54508 0.0
C1652 C 0.32977 0.97075 0.56284 0.0
C1653 C 0.32019 0.96138 0.58798 0.0
C1654 C 0.33554 0.95034 0.60487 0.0
C1655 C 0.3604 0.94826 0.5968 0.0
C1656 C 0.3699 0.95711 0.57179 0.0
C1657 C 0.35466 0.96825 0.55483 0.0
H1658 H 0.37229 0.93976 0.60992 0.0
H1659 H 0.22858 0.05323 0.44481 0.0
H1660 H 0.99602 0.28558 0.63069 0.0
H1661 H 1.03 0.3036 0.59534 0.0
H1662 H 0.98301 0.35414 0.5588 0.0
H1663 H 0.94764 0.33381 0.59371 0.0
H1664 H 1.00127 0.32648 0.5231 0.0
H1665 H 0.05284 0.40548 0.59777 0.0
H1666 H 0.07008 0.41598 0.64297 0.0
H1667 H 0.11913 0.35717 0.62862 0.0
H1668 H 0.10186 0.34589 0.58341 0.0
H1669 H 0.11309 0.45356 0.4458 0.0
H1670 H 0.08085 0.42841 0.4819 0.0
H1671 H 0.12329 0.36298 0.50145 0.0
H1672 H 0.15583 0.38797 0.46458 0.0
H1673 H 0.10873 0.39498 0.54558 0.0
H1674 H 0.05981 0.3189 0.47093 0.0
H1675 H 1.04157 0.30584 0.42605 0.0
H1676 H 0.98748 0.35774 0.44045 0.0
H1677 H 1.00576 0.37165 0.48537 0.0
C1678 C 0.99254 0.29994 0.6149 0.0
C1679 C 0.96895 0.30814 0.61515 0.0
C1680 C 1.01238 0.31081 0.59472 0.0
C1681 C 1.01016 0.33171 0.57449 0.0
C1682 C 0.98573 0.33845 0.57411 0.0
C1683 C 0.96531 0.32665 0.59409 0.0
C1684 C 1.03352 0.34713 0.55424 0.0
C1685 C 1.02469 0.34187 0.5282 0.0
C1686 C 0.06448 0.36641 0.56036 0.0
C1687 C 0.07588 0.37461 0.58726 0.0
C1688 C 0.06729 0.39478 0.60427 0.0
C1689 C 0.07703 0.40082 0.62989 0.0
C1690 C 0.09563 0.38718 0.63867 0.0
C1691 C 0.1047 0.36769 0.6218 0.0
C1692 C 0.09498 0.36151 0.59617 0.0
C1693 C 0.11611 0.43429 0.45792 0.0
C1694 C 0.13728 0.42291 0.45201 0.0
C1695 C 0.09738 0.41971 0.47863 0.0
C1696 C 0.09903 0.39314 0.49437 0.0
C1697 C 0.12135 0.38331 0.48963 0.0
C1698 C 0.14018 0.39787 0.4686 0.0
C1699 C 0.07631 0.37474 0.51466 0.0
C1700 C 0.08527 0.37951 0.5406 0.0
C1701 C 1.04548 0.35497 0.5085 0.0
C1702 C 1.03436 0.34662 0.48149 0.0
C1703 C 1.04422 0.32784 0.46448 0.0
C1704 C 1.03385 0.32023 0.43903 0.0
C1705 C 1.01342 0.33101 0.43039 0.0
C1706 C 1.00332 0.34942 0.44718 0.0
C1707 C 1.01367 0.35715 0.47265 0.0
H1708 H 1.00533 0.325 0.41072 0.0
H1709 H 0.10304 0.39174 0.65854 0.0
loop_
_geom_bond_atom_site_label_1
_geom_bond_atom_site_label_2
_geom_bond_distance
_geom_bond_site_symmetry_2
_ccdc_geom_bond_type
Tb0 C10 2.825 . S
Tb0 O11 2.347 1_554 S
Tb0 O14 2.366 . S
Tb0 O19 2.418 . S
Tb0 O20 2.384 1_655 S
Tb0 O23 2.479 . S
Tb0 O24 2.471 1_554 S
Eu1 O12 2.418 1_554 S
Eu1 O13 2.384 1_455 S
Eu1 O16 2.479 1_554 S
Eu1 O17 2.471 . S
Eu1 O18 2.347 . S
Eu1 O21 2.366 1_554 S
Eu1 C31 2.825 . S
C2 O18 1.259 . S
C2 O19 1.265 1_455 S
C3 O20 1.255 . S
C3 O21 1.265 1_554 S
C4 C6 1.380 . S
C4 C7 1.374 1_554 S
C4 C10 1.507 . S
C5 C6 1.384 . S
C5 C9 1.387 . S
C5 H32 0.930 . S
C6 C4 1.380 . S
C6 C5 1.384 . S
C6 H33 0.931 . S
C7 C4 1.374 1_556 S
C7 C8 1.390 . S
C7 H34 0.930 . S
C8 C7 1.390 . S
C8 C9 1.391 1_556 S
C8 H35 0.930 . S
C9 C5 1.387 . S
C9 C8 1.391 1_554 S
C10 Tb0 2.825 . S
C10 C4 1.507 . S
C10 O23 1.238 . S
C10 O24 1.247 1_554 S
O11 Tb0 2.347 1_556 S
O11 C15 1.259 . S
O12 Eu1 2.418 1_556 S
O12 C15 1.265 1_455 S
O13 Eu1 2.384 1_655 S
O13 C22 1.255 . S
O14 Tb0 2.366 . S
O14 C22 1.265 . S
C15 O11 1.259 . S
C15 O12 1.265 1_655 S
O16 Eu1 2.479 1_556 S
O16 C31 1.238 1_556 S
O17 Eu1 2.471 . S
O17 C31 1.247 . S
O18 Eu1 2.347 . S
O18 C2 1.259 . S
O19 Tb0 2.418 . S
O19 C2 1.265 1_655 S
O20 Tb0 2.384 1_455 S
O20 C3 1.255 . S
O21 Eu1 2.366 1_556 S
O21 C3 1.265 1_556 S
C22 O13 1.255 . S
C22 O14 1.265 . S
O23 Tb0 2.479 . S
O23 C10 1.238 . S
O24 Tb0 2.471 1_556 S
O24 C10 1.247 1_556 S
C25 C28 1.380 1_554 S
C25 C29 1.374 . S
C25 C31 1.507 . S
C26 C27 1.387 1_554 S
C26 C30 1.391 . S
C27 C26 1.387 1_556 S
C27 C28 1.384 . S
C27 H36 0.930 . S
C28 C25 1.380 1_556 S
C28 C27 1.384 . S
C28 H37 0.931 . S
C29 C25 1.374 . S
C29 C30 1.390 . S
C29 H38 0.930 . S
C30 C26 1.391 . S
C30 C29 1.390 . S
C30 H39 0.930 . S
C31 Eu1 2.825 . S
C31 O16 1.238 1_554 S
C31 O17 1.247 . S
C31 C25 1.507 . S
H32 C5 0.930 . S
H33 C6 0.931 . S
H34 C7 0.930 . S
H35 C8 0.930 . S
H36 C27 0.930 . S
H37 C28 0.931 . S
H38 C29 0.930 . S
H39 C30 0.930 . S
Tb40 C50 2.825 . S
Tb40 O51 2.347 1_556 S
Tb40 O54 2.366 . S
Tb40 O59 2.418 . S
Tb40 O60 2.384 . S
Tb40 O63 2.479 . S
Tb40 O64 2.471 1_556 S
Eu41 O52 2.418 . S
Eu41 O53 2.384 . S
Eu41 O56 2.479 . S
Eu41 O57 2.471 1_554 S
Eu41 O58 2.347 1_554 S
Eu41 O61 2.366 . S
Eu41 C71 2.825 . S
C42 O58 1.259 . S
C42 O59 1.265 . S
C43 O60 1.255 1_554 S
C43 O61 1.265 . S
C44 C46 1.380 . S
C44 C47 1.374 1_556 S
C44 C50 1.507 . S
C45 C46 1.384 . S
C45 C49 1.387 . S
C45 H72 0.930 . S
C46 C44 1.380 . S
C46 C45 1.384 . S
C46 H73 0.931 . S
C47 C44 1.374 1_554 S
C47 C48 1.390 . S
C47 H74 0.930 . S
C48 C47 1.390 . S
C48 C49 1.391 1_554 S
C48 H75 0.930 . S
C49 C45 1.387 . S
C49 C48 1.391 1_556 S
C50 Tb40 2.825 . S
C50 C44 1.507 . S
C50 O63 1.238 . S
C50 O64 1.247 1_556 S
O51 Tb40 2.347 1_554 S
O51 C55 1.259 . S
O52 Eu41 2.418 . S
O52 C55 1.265 . S
O53 Eu41 2.384 . S
O53 C62 1.255 1_554 S
O54 Tb40 2.366 . S
O54 C62 1.265 . S
C55 O51 1.259 . S
C55 O52 1.265 . S
O56 Eu41 2.479 . S
O56 C71 1.238 . S
O57 Eu41 2.471 1_556 S
O57 C71 1.247 1_556 S
O58 Eu41 2.347 1_556 S
O58 C42 1.259 . S
O59 Tb40 2.418 . S
O59 C42 1.265 . S
O60 Tb40 2.384 . S
O60 C43 1.255 1_556 S
O61 Eu41 2.366 . S
O61 C43 1.265 . S
C62 O53 1.255 1_556 S
C62 O54 1.265 . S
O63 Tb40 2.479 . S
O63 C50 1.238 . S
O64 Tb40 2.471 1_554 S
O64 C50 1.247 1_554 S
C65 C68 1.380 . S
C65 C69 1.374 1_554 S
C65 C71 1.507 . S
C66 C67 1.387 . S
C66 C70 1.391 1_554 S
C67 C66 1.387 . S
C67 C68 1.384 . S
C67 H76 0.930 . S
C68 C65 1.380 . S
C68 C67 1.384 . S
C68 H77 0.931 . S
C69 C65 1.374 1_556 S
C69 C70 1.390 . S
C69 H78 0.930 . S
C70 C66 1.391 1_556 S
C70 C69 1.390 . S
C70 H79 0.930 . S
C71 Eu41 2.825 . S
C71 O56 1.238 . S
C71 O57 1.247 1_554 S
C71 C65 1.507 . S
H72 C45 0.930 . S
H73 C46 0.931 . S
H74 C47 0.930 . S
H75 C48 0.930 . S
H76 C67 0.930 . S
H77 C68 0.931 . S
H78 C69 0.930 . S
H79 C70 0.930 . S
Tb80 C90 2.825 . S
Tb80 O91 2.347 1_554 S
Tb80 O94 2.366 . S
Tb80 O99 2.418 . S
Tb80 O100 2.384 1_545 S
Tb80 O103 2.479 . S
Tb80 O104 2.471 1_554 S
Eu81 O92 2.402 1_554 S
Eu81 O93 2.385 1_565 S
Eu81 O96 2.473 1_554 S
Eu81 O97 2.480 . S
Eu81 O98 2.360 . S
Eu81 O101 2.365 1_554 S
Eu81 C111 2.823 . S
C82 O98 1.258 . S
C82 O99 1.265 1_565 S
C83 O100 1.255 . S
C83 O101 1.265 1_554 S
C84 C86 1.380 . S
C84 C87 1.374 1_554 S
C84 C90 1.507 . S
C85 C86 1.384 . S
C85 C89 1.387 . S
C85 H112 0.930 . S
C86 C84 1.380 . S
C86 C85 1.384 . S
C86 H113 0.931 . S
C87 C84 1.374 1_556 S
C87 C88 1.390 . S
C87 H114 0.930 . S
C88 C87 1.390 . S
C88 C89 1.391 1_556 S
C88 H115 0.930 . S
C89 C85 1.387 . S
C89 C88 1.391 1_554 S
C90 Tb80 2.825 . S
C90 C84 1.507 . S
C90 O103 1.238 . S
C90 O104 1.247 1_554 S
O91 Tb80 2.347 1_556 S
O91 C95 1.259 . S
O92 Eu81 2.402 1_556 S
O92 C95 1.265 1_565 S
O93 Eu81 2.385 1_545 S
O93 C102 1.255 . S
O94 Tb80 2.366 . S
O94 C102 1.265 . S
C95 O91 1.259 . S
C95 O92 1.265 1_545 S
O96 Eu81 2.473 1_556 S
O96 C111 1.196 1_556 S
O97 Eu81 2.480 . S
O97 C111 1.287 . S
O98 Eu81 2.360 . S
O98 C82 1.258 . S
O99 Tb80 2.418 . S
O99 C82 1.265 1_545 S
O100 Tb80 2.384 1_565 S
O100 C83 1.255 . S
O101 Eu81 2.365 1_556 S
O101 C83 1.265 1_556 S
C102 O93 1.255 . S
C102 O94 1.265 . S
O103 Tb80 2.479 . S
O103 C90 1.238 . S
O104 Tb80 2.471 1_556 S
O104 C90 1.247 1_556 S
C105 C108 1.345 1_554 S
C105 C109 1.413 . S
C105 C111 1.507 . S
C106 C107 1.387 1_554 S
C106 C110 1.391 . S
C107 C106 1.387 1_556 S
C107 C108 1.384 . S
C107 H116 0.930 . S
C108 C105 1.345 1_556 S
C108 C107 1.384 . S
C108 H117 0.931 . S
C109 C105 1.413 . S
C109 C110 1.390 . S
C109 H118 0.930 . S
C110 C106 1.391 . S
C110 C109 1.390 . S
C110 H119 0.930 . S
C111 Eu81 2.823 . S
C111 O96 1.196 1_554 S
C111 O97 1.287 . S
C111 C105 1.507 . S
H112 C85 0.930 . S
H113 C86 0.931 . S
H114 C87 0.930 . S
H115 C88 0.930 . S
H116 C107 0.930 . S
H117 C108 0.931 . S
H118 C109 0.930 . S
H119 C110 0.930 . S
Tb120 C130 2.825 . S
Tb120 O131 2.347 . S
Tb120 O134 2.366 . S
Tb120 O139 2.418 . S
Tb120 O140 2.384 . S
Tb120 O143 2.479 . S
Tb120 O144 2.471 . S
Eu121 O132 2.418 . S
Eu121 O133 2.384 . S
Eu121 O136 2.479 . S
Eu121 O137 2.471 . S
Eu121 O138 2.347 . S
Eu121 O141 2.366 . S
Eu121 C151 2.825 . S
C122 O138 1.259 . S
C122 O139 1.265 . S
C123 O140 1.255 . S
C123 O141 1.265 . S
C124 C126 1.380 . S
C124 C127 1.374 . S
C124 C130 1.507 . S
C125 C126 1.384 . S
C125 C129 1.387 . S
C125 H152 0.930 . S
C126 C124 1.380 . S
C126 C125 1.384 . S
C126 H153 0.931 . S
C127 C124 1.374 . S
C127 C128 1.390 . S
C127 H154 0.930 . S
C128 C127 1.390 . S
C128 C129 1.391 . S
C128 H155 0.930 . S
C129 C125 1.387 . S
C129 C128 1.391 . S
C130 Tb120 2.825 . S
C130 C124 1.507 . S
C130 O143 1.238 . S
C130 O144 1.247 . S
O131 Tb120 2.347 . S
O131 C135 1.259 . S
O132 Eu121 2.418 . S
O132 C135 1.265 . S
O133 Eu121 2.384 . S
O133 C142 1.255 . S
O134 Tb120 2.366 . S
O134 C142 1.265 . S
C135 O131 1.259 . S
C135 O132 1.265 . S
O136 Eu121 2.479 . S
O136 C151 1.238 . S
O137 Eu121 2.471 . S
O137 C151 1.247 . S
O138 Eu121 2.347 . S
O138 C122 1.259 . S
O139 Tb120 2.418 . S
O139 C122 1.265 . S
O140 Tb120 2.384 . S
O140 C123 1.255 . S
O141 Eu121 2.366 . S
O141 C123 1.265 . S
C142 O133 1.255 . S
C142 O134 1.265 . S
O143 Tb120 2.479 . S
O143 C130 1.238 . S
O144 Tb120 2.471 . S
O144 C130 1.247 . S
C145 C148 1.380 . S
C145 C149 1.374 . S
C145 C151 1.507 . S
C146 C147 1.387 . S
C146 C150 1.391 . S
C147 C146 1.387 . S
C147 C148 1.384 . S
C147 H156 0.930 . S
C148 C145 1.380 . S
C148 C147 1.384 . S
C148 H157 0.931 . S
C149 C145 1.374 . S
C149 C150 1.390 . S
C149 H158 0.930 . S
C150 C146 1.391 . S
C150 C149 1.390 . S
C150 H159 0.930 . S
C151 Eu121 2.825 . S
C151 O136 1.238 . S
C151 O137 1.247 . S
C151 C145 1.507 . S
H152 C125 0.930 . S
H153 C126 0.931 . S
H154 C127 0.930 . S
H155 C128 0.930 . S
H156 C147 0.930 . S
H157 C148 0.931 . S
H158 C149 0.930 . S
H159 C150 0.930 . S
Tb160 C170 2.825 . S
Tb160 O171 2.347 . S
Tb160 O174 2.366 . S
Tb160 O179 2.418 . S
Tb160 O180 2.384 . S
Tb160 O183 2.479 . S
Tb160 O184 2.471 . S
Eu161 O172 2.418 . S
Eu161 O173 2.384 . S
Eu161 O176 2.479 . S
Eu161 O177 2.471 . S
Eu161 O178 2.347 . S
Eu161 O181 2.366 . S
Eu161 C191 2.862 . S
C162 O178 1.259 . S
C162 O179 1.265 . S
C163 O180 1.255 . S
C163 O181 1.265 . S
C164 C166 1.380 . S
C164 C167 1.374 . S
C164 C170 1.507 . S
C165 C166 1.384 . S
C165 C169 1.387 . S
C165 H192 0.930 . S
C166 C164 1.380 . S
C166 C165 1.384 . S
C166 H193 0.931 . S
C167 C164 1.374 . S
C167 C168 1.390 . S
C167 H194 0.930 . S
C168 C167 1.390 . S
C168 C169 1.391 . S
C168 H195 0.930 . S
C169 C165 1.387 . S
C169 C168 1.391 . S
C170 Tb160 2.825 . S
C170 C164 1.507 . S
C170 O183 1.238 . S
C170 O184 1.247 . S
O171 Tb160 2.347 . S
O171 C175 1.259 . S
O172 Eu161 2.418 . S
O172 C175 1.265 . S
O173 Eu161 2.384 . S
O173 C182 1.255 . S
O174 Tb160 2.366 . S
O174 C182 1.265 . S
C175 O171 1.259 . S
C175 O172 1.265 . S
O176 Eu161 2.479 . S
O176 C191 1.253 . S
O177 Eu161 2.471 . S
O177 C191 1.268 . S
O178 Eu161 2.347 . S
O178 C162 1.259 . S
O179 Tb160 2.418 . S
O179 C162 1.265 . S
O180 Tb160 2.384 . S
O180 C163 1.255 . S
O181 Eu161 2.366 . S
O181 C163 1.265 . S
C182 O173 1.255 . S
C182 O174 1.265 . S
O183 Tb160 2.479 . S
O183 C170 1.238 . S
O184 Tb160 2.471 . S
O184 C170 1.247 . S
C185 C188 1.380 . S
C185 C189 1.374 . S
C185 C191 1.470 1_545 S
C186 C187 1.387 . S
C186 C190 1.391 . S
C187 C186 1.387 . S
C187 C188 1.384 . S
C187 H196 0.930 . S
C188 C185 1.380 . S
C188 C187 1.384 . S
C188 H197 0.931 . S
C189 C185 1.374 . S
C189 C190 1.390 . S
C189 H198 0.930 . S
C190 C186 1.391 . S
C190 C189 1.390 . S
C190 H199 0.930 . S
C191 Eu161 2.862 . S
C191 O176 1.253 . S
C191 O177 1.268 . S
C191 C185 1.470 1_565 S
H192 C165 0.930 . S
H193 C166 0.931 . S
H194 C167 0.930 . S
H195 C168 0.930 . S
H196 C187 0.930 . S
H197 C188 0.931 . S
H198 C189 0.930 . S
H199 C190 0.930 . S
Tb200 C210 2.825 . S
Tb200 O211 2.347 . S
Tb200 O214 2.366 . S
Tb200 O219 2.418 . S
Tb200 O220 2.384 . S
Tb200 O223 2.479 . S
Tb200 O224 2.471 . S
Eu201 O212 2.418 . S
Eu201 O213 2.384 . S
Eu201 O216 2.479 . S
Eu201 O217 2.471 . S
Eu201 O218 2.347 . S
Eu201 O221 2.366 . S
Eu201 C231 2.825 . S
C202 O218 1.259 . S
C202 O219 1.265 . S
C203 O220 1.255 . S
C203 O221 1.265 . S
C204 C206 1.380 . S
C204 C207 1.374 . S
C204 C210 1.507 . S
C205 C206 1.384 . S
C205 C209 1.387 . S
C205 H232 0.930 . S
C206 C204 1.380 . S
C206 C205 1.384 . S
C206 H233 0.931 . S
C207 C204 1.374 . S
C207 C208 1.390 . S
C207 H234 0.930 . S
C208 C207 1.390 . S
C208 C209 1.391 . S
C208 H235 0.930 . S
C209 C205 1.387 . S
C209 C208 1.391 . S
C210 Tb200 2.825 . S
C210 C204 1.507 . S
C210 O223 1.238 . S
C210 O224 1.247 . S
O211 Tb200 2.347 . S
O211 C215 1.259 . S
O212 Eu201 2.418 . S
O212 C215 1.265 . S
O213 Eu201 2.384 . S
O213 C222 1.255 . S
O214 Tb200 2.366 . S
O214 C222 1.265 . S
C215 O211 1.259 . S
C215 O212 1.265 . S
O216 Eu201 2.479 . S
O216 C231 1.238 . S
O217 Eu201 2.471 . S
O217 C231 1.247 . S
O218 Eu201 2.347 . S
O218 C202 1.259 . S
O219 Tb200 2.418 . S
O219 C202 1.265 . S
O220 Tb200 2.384 . S
O220 C203 1.255 . S
O221 Eu201 2.366 . S
O221 C203 1.265 . S
C222 O213 1.255 . S
C222 O214 1.265 . S
O223 Tb200 2.479 . S
O223 C210 1.238 . S
O224 Tb200 2.471 . S
O224 C210 1.247 . S
C225 C228 1.380 1_455 S
C225 C229 1.374 . S
C225 C231 1.507 . S
C226 C227 1.387 . S
C226 C230 1.391 . S
C227 C226 1.387 . S
C227 C228 1.384 . S
C227 H236 0.930 . S
C228 C225 1.380 1_655 S
C228 C227 1.384 . S
C228 H237 0.931 . S
C229 C225 1.374 . S
C229 C230 1.390 1_455 S
C229 H238 0.930 . S
C230 C226 1.391 . S
C230 C229 1.390 1_655 S
C230 H239 0.930 . S
C231 Eu201 2.825 . S
C231 O216 1.238 . S
C231 O217 1.247 . S
C231 C225 1.507 . S
H232 C205 0.930 . S
H233 C206 0.931 . S
H234 C207 0.930 . S
H235 C208 0.930 . S
H236 C227 0.930 . S
H237 C228 0.931 . S
H238 C229 0.930 . S
H239 C230 0.930 . S
Tb240 C250 2.825 . S
Tb240 O251 2.347 . S
Tb240 O254 2.366 . S
Tb240 O259 2.418 . S
Tb240 O260 2.384 . S
Tb240 O263 2.479 . S
Tb240 O264 2.471 . S
Eu241 O252 2.418 . S
Eu241 O253 2.384 . S
Eu241 O256 2.479 . S
Eu241 O257 2.471 . S
Eu241 O258 2.347 . S
Eu241 O261 2.366 . S
Eu241 C271 2.825 . S
C242 O258 1.259 . S
C242 O259 1.265 . S
C243 O260 1.255 . S
C243 O261 1.265 . S
C244 C246 1.380 . S
C244 C247 1.374 . S
C244 C250 1.507 . S
C245 C246 1.384 . S
C245 C249 1.387 . S
C245 H272 0.930 . S
C246 C244 1.380 . S
C246 C245 1.384 . S
C246 H273 0.931 . S
C247 C244 1.374 . S
C247 C248 1.390 . S
C247 H274 0.930 . S
C248 C247 1.390 . S
C248 C249 1.391 . S
C248 H275 0.930 . S
C249 C245 1.387 . S
C249 C248 1.391 . S
C250 Tb240 2.825 . S
C250 C244 1.507 . S
C250 O263 1.238 . S
C250 O264 1.247 . S
O251 Tb240 2.347 . S
O251 C255 1.259 . S
O252 Eu241 2.418 . S
O252 C255 1.265 . S
O253 Eu241 2.384 . S
O253 C262 1.255 . S
O254 Tb240 2.366 . S
O254 C262 1.265 . S
C255 O251 1.259 . S
C255 O252 1.265 . S
O256 Eu241 2.479 . S
O256 C271 1.238 . S
O257 Eu241 2.471 . S
O257 C271 1.247 . S
O258 Eu241 2.347 . S
O258 C242 1.259 . S
O259 Tb240 2.418 . S
O259 C242 1.265 . S
O260 Tb240 2.384 . S
O260 C243 1.255 . S
O261 Eu241 2.366 . S
O261 C243 1.265 . S
C262 O253 1.255 . S
C262 O254 1.265 . S
O263 Tb240 2.479 . S
O263 C250 1.238 . S
O264 Tb240 2.471 . S
O264 C250 1.247 . S
C265 C268 1.380 . S
C265 C269 1.374 . S
C265 C271 1.507 . S
C266 C267 1.387 . S
C266 C270 1.391 . S
C267 C266 1.387 . S
C267 C268 1.384 . S
C267 H276 0.930 . S
C268 C265 1.380 . S
C268 C267 1.384 . S
C268 H277 0.931 . S
C269 C265 1.374 . S
C269 C270 1.390 . S
C269 H278 0.930 . S
C270 C266 1.391 . S
C270 C269 1.390 . S
C270 H279 0.930 . S
C271 Eu241 2.825 . S
C271 O256 1.238 . S
C271 O257 1.247 . S
C271 C265 1.507 . S
H272 C245 0.930 . S
H273 C246 0.931 . S
H274 C247 0.930 . S
H275 C248 0.930 . S
H276 C267 0.930 . S
H277 C268 0.931 . S
H278 C269 0.930 . S
H279 C270 0.930 . S
Tb280 C290 2.825 . S
Tb280 O291 2.347 . S
Tb280 O294 2.366 . S
Tb280 O299 2.418 . S
Tb280 O300 2.384 . S
Tb280 O303 2.479 . S
Tb280 O304 2.471 . S
Eu281 O292 2.418 . S
Eu281 O293 2.384 . S
Eu281 O296 2.479 . S
Eu281 O297 2.471 . S
Eu281 O298 2.347 . S
Eu281 O301 2.366 . S
Eu281 C311 2.825 . S
C282 O298 1.259 . S
C282 O299 1.265 . S
C283 O300 1.255 . S
C283 O301 1.265 . S
C284 C286 1.380 . S
C284 C287 1.374 . S
C284 C290 1.507 . S
C285 C286 1.384 . S
C285 C289 1.387 . S
C285 H312 0.930 . S
C286 C284 1.380 . S
C286 C285 1.384 . S
C286 H313 0.931 . S
C287 C284 1.374 . S
C287 C288 1.390 . S
C287 H314 0.930 . S
C288 C287 1.390 . S
C288 C289 1.391 . S
C288 H315 0.930 . S
C289 C285 1.387 . S
C289 C288 1.391 . S
C290 Tb280 2.825 . S
C290 C284 1.507 . S
C290 O303 1.238 . S
C290 O304 1.247 . S
O291 Tb280 2.347 . S
O291 C295 1.259 . S
O292 Eu281 2.418 . S
O292 C295 1.265 . S
O293 Eu281 2.384 . S
O293 C302 1.255 . S
O294 Tb280 2.366 . S
O294 C302 1.265 . S
C295 O291 1.259 . S
C295 O292 1.265 . S
O296 Eu281 2.479 . S
O296 C311 1.238 . S
O297 Eu281 2.471 . S
O297 C311 1.247 . S
O298 Eu281 2.347 . S
O298 C282 1.259 . S
O299 Tb280 2.418 . S
O299 C282 1.265 . S
O300 Tb280 2.384 . S
O300 C283 1.255 . S
O301 Eu281 2.366 . S
O301 C283 1.265 . S
C302 O293 1.255 . S
C302 O294 1.265 . S
O303 Tb280 2.479 . S
O303 C290 1.238 . S
O304 Tb280 2.471 . S
O304 C290 1.247 . S
C305 C308 1.380 . S
C305 C309 1.374 . S
C305 C311 1.507 1_455 S
C306 C307 1.387 . S
C306 C310 1.391 . S
C307 C306 1.387 . S
C307 C308 1.384 . S
C307 H316 0.930 . S
C308 C305 1.380 . S
C308 C307 1.384 . S
C308 H317 0.931 . S
C309 C305 1.374 . S
C309 C310 1.390 . S
C309 H318 0.930 1_455 S
C310 C306 1.391 . S
C310 C309 1.390 . S
C310 H319 0.930 . S
C311 Eu281 2.825 . S
C311 O296 1.238 . S
C311 O297 1.247 . S
C311 C305 1.507 1_655 S
H312 C285 0.930 . S
H313 C286 0.931 . S
H314 C287 0.930 . S
H315 C288 0.930 . S
H316 C307 0.930 . S
H317 C308 0.931 . S
H318 C309 0.930 1_655 S
H319 C310 0.930 . S
Tb320 C330 2.825 . S
Tb320 O331 2.347 . S
Tb320 O334 2.366 . S
Tb320 O339 2.418 . S
Tb320 O340 2.384 . S
Tb320 O343 2.479 . S
Tb320 O344 2.471 . S
Eu321 O332 2.418 . S
Eu321 O333 2.384 . S
Eu321 O336 2.479 . S
Eu321 O337 2.471 . S
Eu321 O338 2.347 . S
Eu321 O341 2.366 . S
Eu321 C351 2.825 . S
C322 O338 1.259 . S
C322 O339 1.265 . S
C323 O340 1.255 . S
C323 O341 1.265 . S
C324 C326 1.380 . S
C324 C327 1.374 . S
C324 C330 1.507 . S
C325 C326 1.384 . S
C325 C329 1.387 . S
C325 H352 0.930 . S
C326 C324 1.380 . S
C326 C325 1.384 . S
C326 H353 0.931 . S
C327 C324 1.374 . S
C327 C328 1.390 . S
C327 H354 0.930 . S
C328 C327 1.390 . S
C328 C329 1.391 . S
C328 H355 0.930 . S
C329 C325 1.387 . S
C329 C328 1.391 . S
C330 Tb320 2.825 . S
C330 C324 1.507 . S
C330 O343 1.238 . S
C330 O344 1.247 . S
O331 Tb320 2.347 . S
O331 C335 1.259 . S
O332 Eu321 2.418 . S
O332 C335 1.265 . S
O333 Eu321 2.384 . S
O333 C342 1.255 . S
O334 Tb320 2.366 . S
O334 C342 1.265 . S
C335 O331 1.259 . S
C335 O332 1.265 . S
O336 Eu321 2.479 . S
O336 C351 1.238 . S
O337 Eu321 2.471 . S
O337 C351 1.247 . S
O338 Eu321 2.347 . S
O338 C322 1.259 . S
O339 Tb320 2.418 . S
O339 C322 1.265 . S
O340 Tb320 2.384 . S
O340 C323 1.255 . S
O341 Eu321 2.366 . S
O341 C323 1.265 . S
C342 O333 1.255 . S
C342 O334 1.265 . S
O343 Tb320 2.479 . S
O343 C330 1.238 . S
O344 Tb320 2.471 . S
O344 C330 1.247 . S
C345 C348 1.380 . S
C345 C349 1.374 . S
C345 C351 1.507 . S
C346 C347 1.387 . S
C346 C350 1.391 . S
C347 C346 1.387 . S
C347 C348 1.384 . S
C347 H356 0.930 . S
C348 C345 1.380 . S
C348 C347 1.384 . S
C348 H357 0.931 . S
C349 C345 1.374 . S
C349 C350 1.390 . S
C349 H358 0.930 . S
C350 C346 1.391 . S
C350 C349 1.390 . S
C350 H359 0.930 . S
C351 Eu321 2.825 . S
C351 O336 1.238 . S
C351 O337 1.247 . S
C351 C345 1.507 . S
H352 C325 0.930 . S
H353 C326 0.931 . S
H354 C327 0.930 . S
H355 C328 0.930 . S
H356 C347 0.930 . S
H357 C348 0.931 . S
H358 C349 0.930 . S
H359 C350 0.930 . S
H360 C378 0.952 . S
H361 C380 0.951 . S
H362 C382 0.950 . S
H363 C383 0.950 . S
H364 C385 0.950 . S
H365 C388 0.950 . S
H366 C389 0.950 . S
H367 C391 0.950 . S
H368 C392 0.950 . S
H369 C393 0.951 . S
H370 C395 0.951 1_556 S
H371 C397 0.950 . S
H372 C398 0.950 . S
H373 C400 0.950 . S
H374 C403 0.950 . S
H375 C404 0.950 . S
H376 C406 0.950 . S
H377 C407 0.950 . S
C378 H360 0.952 . S
C378 C379 1.362 1_554 S
C378 C380 1.391 . S
C379 C378 1.362 1_556 S
C379 C383 1.385 . S
C380 H361 0.951 . S
C380 C378 1.391 . S
C380 C381 1.365 1_554 S
C381 C380 1.365 1_556 S
C381 C382 1.415 . S
C381 C384 1.498 1_556 S
C382 H362 0.950 . S
C382 C381 1.415 . S
C382 C383 1.374 . S
C383 H363 0.950 . S
C383 C379 1.385 . S
C383 C382 1.374 . S
C384 C381 1.498 1_554 S
C384 C385 1.373 1_554 S
C384 C386 1.389 . S
C385 H364 0.950 . S
C385 C384 1.373 1_556 S
C385 C401 1.377 . S
C386 C384 1.389 . S
C386 C387 1.524 . S
C386 C400 1.377 . S
C387 C386 1.524 . S
C387 C388 1.397 . S
C387 C392 1.363 . S
C388 H365 0.950 . S
C388 C387 1.397 . S
C388 C389 1.334 . S
C389 H366 0.950 . S
C389 C388 1.334 . S
C389 C390 1.287 . S
C390 C389 1.287 . S
C390 C391 1.524 . S
C390 H409 0.913 . S
C391 H367 0.950 . S
C391 C390 1.524 . S
C391 C392 1.415 . S
C392 H368 0.950 . S
C392 C387 1.363 . S
C392 C391 1.415 . S
C393 H369 0.951 . S
C393 C394 1.366 . S
C393 C395 1.388 . S
C394 C393 1.366 . S
C394 C398 1.385 . S
C395 H370 0.951 1_554 S
C395 C393 1.388 . S
C395 C396 1.366 . S
C396 C395 1.366 . S
C396 C397 1.414 . S
C396 C399 1.499 . S
C397 H371 0.950 . S
C397 C396 1.414 . S
C397 C398 1.374 . S
C398 H372 0.950 . S
C398 C394 1.385 . S
C398 C397 1.374 . S
C399 C396 1.499 . S
C399 C400 1.373 . S
C399 C401 1.389 1_554 S
C400 H373 0.950 . S
C400 C386 1.377 . S
C400 C399 1.373 . S
C401 C385 1.377 . S
C401 C399 1.389 1_556 S
C401 C402 1.524 . S
C402 C401 1.524 . S
C402 C403 1.397 . S
C402 C407 1.363 . S
C403 H374 0.950 . S
C403 C402 1.397 . S
C403 C404 1.334 . S
C404 H375 0.950 . S
C404 C403 1.334 . S
C404 C405 1.287 . S
C405 C404 1.287 . S
C405 C406 1.524 . S
C405 H408 0.999 . S
C406 H376 0.950 . S
C406 C405 1.524 . S
C406 C407 1.415 . S
C407 H377 0.950 . S
C407 C402 1.363 . S
C407 C406 1.415 . S
H408 C405 0.999 . S
H409 C390 0.913 . S
H410 C428 0.951 . S
H411 C430 0.951 . S
H412 C432 0.950 . S
H413 C433 0.950 . S
H414 C435 0.950 . S
H415 C438 0.950 . S
H416 C439 0.950 . S
H417 C441 0.950 . S
H418 C442 0.950 . S
H419 C443 0.949 1_554 S
H420 C445 0.949 1_554 S
H421 C447 0.950 . S
H422 C448 0.950 . S
H423 C450 0.950 . S
H424 C453 0.950 . S
H425 C454 0.950 . S
H426 C456 0.950 . S
H427 C457 0.950 . S
C428 H410 0.951 . S
C428 C429 1.366 . S
C428 C430 1.388 . S
C429 C428 1.366 . S
C429 C433 1.385 1_556 S
C430 H411 0.951 . S
C430 C428 1.388 . S
C430 C431 1.364 1_556 S
C431 C430 1.364 1_554 S
C431 C432 1.415 . S
C431 C434 1.499 . S
C432 H412 0.950 . S
C432 C431 1.415 . S
C432 C433 1.374 . S
C433 H413 0.950 . S
C433 C429 1.385 1_554 S
C433 C432 1.374 . S
C434 C431 1.499 . S
C434 C435 1.373 1_554 S
C434 C436 1.389 . S
C435 H414 0.950 . S
C435 C434 1.373 1_556 S
C435 C451 1.377 . S
C436 C434 1.389 . S
C436 C437 1.524 . S
C436 C450 1.377 . S
C437 C436 1.524 . S
C437 C438 1.397 . S
C437 C442 1.363 . S
C438 H415 0.950 . S
C438 C437 1.397 . S
C438 C439 1.334 . S
C439 H416 0.950 . S
C439 C438 1.334 . S
C439 C440 1.287 . S
C440 C439 1.287 . S
C440 C441 1.524 . S
C440 H459 0.913 . S
C441 H417 0.950 . S
C441 C440 1.524 . S
C441 C442 1.415 . S
C442 H418 0.950 . S
C442 C437 1.363 . S
C442 C441 1.415 . S
C443 H419 0.949 1_556 S
C443 C444 1.367 . S
C443 C445 1.388 . S
C444 C443 1.367 . S
C444 C448 1.385 . S
C445 H420 0.949 1_556 S
C445 C443 1.388 . S
C445 C446 1.369 . S
C446 C445 1.369 . S
C446 C447 1.414 . S
C446 C449 1.499 . S
C447 H421 0.950 . S
C447 C446 1.414 . S
C447 C448 1.374 . S
C448 H422 0.950 . S
C448 C444 1.385 . S
C448 C447 1.374 . S
C449 C446 1.499 . S
C449 C450 1.373 1_556 S
C449 C451 1.389 . S
C450 H423 0.950 . S
C450 C436 1.377 . S
C450 C449 1.373 1_554 S
C451 C435 1.377 . S
C451 C449 1.389 . S
C451 C452 1.524 . S
C452 C451 1.524 . S
C452 C453 1.397 . S
C452 C457 1.363 . S
C453 H424 0.950 . S
C453 C452 1.397 . S
C453 C454 1.334 . S
C454 H425 0.950 . S
C454 C453 1.334 . S
C454 C455 1.287 . S
C455 C454 1.287 . S
C455 C456 1.524 . S
C455 H458 0.999 . S
C456 H426 0.950 . S
C456 C455 1.524 . S
C456 C457 1.415 . S
C457 H427 0.950 . S
C457 C452 1.363 . S
C457 C456 1.415 . S
H458 C455 0.999 . S
H459 C440 0.913 . S
H460 C478 0.951 . S
H461 C480 0.951 . S
H462 C482 0.950 . S
H463 C483 0.950 . S
H464 C485 0.950 . S
H465 C488 0.950 . S
H466 C489 0.950 . S
H467 C491 0.950 . S
H468 C492 0.950 . S
H469 C493 0.951 . S
H470 C495 0.951 . S
H471 C497 0.950 . S
H472 C498 0.950 . S
H473 C500 0.950 . S
H474 C503 0.950 . S
H475 C504 0.950 . S
H476 C506 0.950 . S
H477 C507 0.950 . S
C478 H460 0.951 . S
C478 C479 1.366 1_556 S
C478 C480 1.388 . S
C479 C478 1.366 1_554 S
C479 C483 1.385 . S
C480 H461 0.951 . S
C480 C478 1.388 . S
C480 C481 1.366 1_556 S
C481 C480 1.366 1_554 S
C481 C482 1.414 . S
C481 C484 1.499 . S
C482 H462 0.950 . S
C482 C481 1.414 . S
C482 C483 1.374 . S
C483 H463 0.950 . S
C483 C479 1.385 . S
C483 C482 1.374 . S
C484 C481 1.499 . S
C484 C485 1.373 . S
C484 C486 1.389 1_554 S
C485 H464 0.950 . S
C485 C484 1.373 . S
C485 C501 1.377 . S
C486 C484 1.389 1_556 S
C486 C487 1.524 . S
C486 C500 1.377 . S
C487 C486 1.524 . S
C487 C488 1.397 . S
C487 C492 1.363 . S
C488 H465 0.950 . S
C488 C487 1.397 . S
C488 C489 1.334 . S
C489 H466 0.950 . S
C489 C488 1.334 . S
C489 C490 1.287 . S
C490 C489 1.287 . S
C490 C491 1.524 . S
C490 H509 0.913 . S
C491 H467 0.950 . S
C491 C490 1.524 . S
C491 C492 1.415 . S
C492 H468 0.950 . S
C492 C487 1.363 . S
C492 C491 1.415 . S
C493 H469 0.951 . S
C493 C494 1.366 . S
C493 C495 1.388 . S
C494 C493 1.366 . S
C494 C498 1.385 1_554 S
C495 H470 0.951 . S
C495 C493 1.388 . S
C495 C496 1.366 . S
C496 C495 1.366 . S
C496 C497 1.414 1_554 S
C496 C499 1.499 . S
C497 H471 0.950 . S
C497 C496 1.414 1_556 S
C497 C498 1.374 . S
C498 H472 0.950 . S
C498 C494 1.385 1_556 S
C498 C497 1.374 . S
C499 C496 1.499 . S
C499 C500 1.373 1_554 S
C499 C501 1.389 . S
C500 H473 0.950 . S
C500 C486 1.377 . S
C500 C499 1.373 1_556 S
C501 C485 1.377 . S
C501 C499 1.389 . S
C501 C502 1.524 . S
C502 C501 1.524 . S
C502 C503 1.397 . S
C502 C507 1.363 . S
C503 H474 0.950 . S
C503 C502 1.397 . S
C503 C504 1.334 . S
C504 H475 0.950 . S
C504 C503 1.334 . S
C504 C505 1.287 . S
C505 C504 1.287 . S
C505 C506 1.524 . S
C505 H508 0.999 . S
C506 H476 0.950 . S
C506 C505 1.524 . S
C506 C507 1.415 . S
C507 H477 0.950 . S
C507 C502 1.363 . S
C507 C506 1.415 . S
H508 C505 0.999 . S
H509 C490 0.913 . S
H510 C528 0.951 . S
H511 C530 0.951 . S
H512 C532 0.950 . S
H513 C533 0.950 . S
H514 C535 0.950 . S
H515 C538 0.913 1_554 S
H516 C539 0.950 . S
H517 C541 0.950 . S
H518 C542 0.950 . S
H519 C543 0.951 . S
H520 C545 0.951 . S
H521 C547 0.950 . S
H522 C548 0.950 . S
H523 C550 0.950 . S
H524 C553 0.950 . S
H525 C554 0.950 . S
H526 C556 0.950 . S
H527 C557 0.950 . S
C528 H510 0.951 . S
C528 C529 1.366 1_556 S
C528 C530 1.388 . S
C529 C528 1.366 1_554 S
C529 C533 1.385 . S
C530 H511 0.951 . S
C530 C528 1.388 . S
C530 C531 1.366 1_556 S
C531 C530 1.366 1_554 S
C531 C532 1.414 . S
C531 C534 1.499 . S
C532 H512 0.950 . S
C532 C531 1.414 . S
C532 C533 1.374 . S
C533 H513 0.950 . S
C533 C529 1.385 . S
C533 C532 1.374 . S
C534 C531 1.499 . S
C534 C535 1.373 . S
C534 C536 1.389 1_554 S
C535 H514 0.950 . S
C535 C534 1.373 . S
C535 C551 1.377 . S
C536 C534 1.389 1_556 S
C536 C537 1.524 . S
C536 C550 1.377 . S
C537 C536 1.524 . S
C537 C538 1.418 . S
C537 C542 1.363 . S
C538 H515 0.913 1_556 S
C538 C537 1.418 . S
C538 C539 1.350 . S
C539 H516 0.950 . S
C539 C538 1.350 . S
C539 C540 1.287 . S
C540 C539 1.287 . S
C540 C541 1.524 . S
C540 H559 0.913 . S
C541 H517 0.950 . S
C541 C540 1.524 . S
C541 C542 1.415 . S
C542 H518 0.950 . S
C542 C537 1.363 . S
C542 C541 1.415 . S
C543 H519 0.951 . S
C543 C544 1.366 . S
C543 C545 1.388 . S
C544 C543 1.366 . S
C544 C548 1.385 1_554 S
C545 H520 0.951 . S
C545 C543 1.388 . S
C545 C546 1.366 . S
C546 C545 1.366 . S
C546 C547 1.414 1_554 S
C546 C549 1.499 . S
C547 H521 0.950 . S
C547 C546 1.414 1_556 S
C547 C548 1.374 . S
C548 H522 0.950 . S
C548 C544 1.385 1_556 S
C548 C547 1.374 . S
C549 C546 1.499 . S
C549 C550 1.373 1_554 S
C549 C551 1.389 . S
C550 H523 0.950 . S
C550 C536 1.377 . S
C550 C549 1.373 1_556 S
C551 C535 1.377 . S
C551 C549 1.389 . S
C551 C552 1.524 . S
C552 C551 1.524 . S
C552 C553 1.397 . S
C552 C557 1.363 . S
C553 H524 0.950 . S
C553 C552 1.397 . S
C553 C554 1.334 . S
C554 H525 0.950 . S
C554 C553 1.334 . S
C554 C555 1.287 . S
C555 C554 1.287 . S
C555 C556 1.524 . S
C555 H558 0.999 . S
C556 H526 0.950 . S
C556 C555 1.524 . S
C556 C557 1.415 . S
C557 H527 0.950 . S
C557 C552 1.363 . S
C557 C556 1.415 . S
H558 C555 0.999 . S
H559 C540 0.913 . S
H560 C578 0.951 . S
H561 C580 0.951 . S
H562 C582 0.950 . S
H563 C583 0.950 . S
H564 C585 0.950 1_556 S
H565 C588 0.950 . S
H566 C589 0.950 . S
H567 C591 0.950 . S
H568 C592 0.950 . S
H569 C593 0.951 . S
H570 C595 0.951 . S
H571 C597 0.950 . S
H572 C598 0.950 . S
H573 C600 0.950 . S
H574 C603 0.950 . S
H575 C604 0.950 . S
H576 C606 0.950 . S
H577 C607 0.950 . S
C578 H560 0.951 . S
C578 C579 1.366 . S
C578 C580 1.388 . S
C579 C578 1.366 . S
C579 C583 1.385 . S
C580 H561 0.951 . S
C580 C578 1.388 . S
C580 C581 1.366 . S
C581 C580 1.366 . S
C581 C582 1.414 . S
C581 C584 1.499 . S
C582 H562 0.950 . S
C582 C581 1.414 . S
C582 C583 1.374 . S
C583 H563 0.950 . S
C583 C579 1.385 . S
C583 C582 1.374 . S
C584 C581 1.499 . S
C584 C585 1.373 . S
C584 C586 1.389 . S
C585 H564 0.950 1_554 S
C585 C584 1.373 . S
C585 C601 1.377 . S
C586 C584 1.389 . S
C586 C587 1.524 . S
C586 C600 1.377 . S
C587 C586 1.524 . S
C587 C588 1.397 . S
C587 C592 1.363 . S
C588 H565 0.950 . S
C588 C587 1.397 . S
C588 C589 1.334 . S
C589 H566 0.950 . S
C589 C588 1.334 . S
C589 C590 1.287 . S
C590 C589 1.287 . S
C590 C591 1.524 . S
C590 H609 0.913 . S
C591 H567 0.950 . S
C591 C590 1.524 . S
C591 C592 1.415 . S
C592 H568 0.950 . S
C592 C587 1.363 . S
C592 C591 1.415 . S
C593 H569 0.951 . S
C593 C594 1.366 . S
C593 C595 1.388 . S
C594 C593 1.366 . S
C594 C598 1.385 . S
C595 H570 0.951 . S
C595 C593 1.388 . S
C595 C596 1.366 . S
C596 C595 1.366 . S
C596 C597 1.414 . S
C596 C599 1.499 . S
C597 H571 0.950 . S
C597 C596 1.414 . S
C597 C598 1.374 . S
C598 H572 0.950 . S
C598 C594 1.385 . S
C598 C597 1.374 . S
C599 C596 1.499 . S
C599 C600 1.373 . S
C599 C601 1.389 . S
C600 H573 0.950 . S
C600 C586 1.377 . S
C600 C599 1.373 . S
C601 C585 1.377 . S
C601 C599 1.389 . S
C601 C602 1.524 1_554 S
C602 C601 1.524 1_556 S
C602 C603 1.397 . S
C602 C607 1.363 . S
C603 H574 0.950 . S
C603 C602 1.397 . S
C603 C604 1.334 . S
C604 H575 0.950 . S
C604 C603 1.334 . S
C604 C605 1.287 . S
C605 C604 1.287 . S
C605 C606 1.524 . S
C605 H608 0.999 . S
C606 H576 0.950 . S
C606 C605 1.524 . S
C606 C607 1.415 . S
C607 H577 0.950 . S
C607 C602 1.363 . S
C607 C606 1.415 . S
H608 C605 0.999 . S
H609 C590 0.913 . S
H610 C628 0.951 . S
H611 C630 0.951 . S
H612 C632 0.950 . S
H613 C633 0.950 . S
H614 C635 0.950 . S
H615 C638 0.950 1_554 S
H616 C639 0.950 . S
H617 C641 0.950 . S
H618 C642 0.950 . S
H619 C643 0.951 . S
H620 C645 0.951 . S
H621 C647 0.950 . S
H622 C648 0.950 . S
H623 C650 0.950 . S
H624 C653 0.950 . S
H625 C654 0.950 . S
H626 C656 0.950 . S
H627 C657 0.950 . S
C628 H610 0.951 . S
C628 C629 1.366 1_556 S
C628 C630 1.388 . S
C629 C628 1.366 1_554 S
C629 C633 1.385 . S
C630 H611 0.951 . S
C630 C628 1.388 . S
C630 C631 1.366 1_556 S
C631 C630 1.366 1_554 S
C631 C632 1.414 . S
C631 C634 1.499 . S
C632 H612 0.950 . S
C632 C631 1.414 . S
C632 C633 1.374 . S
C633 H613 0.950 . S
C633 C629 1.385 . S
C633 C632 1.374 . S
C634 C631 1.499 . S
C634 C635 1.373 . S
C634 C636 1.389 1_554 S
C635 H614 0.950 . S
C635 C634 1.373 . S
C635 C651 1.377 . S
C636 C634 1.389 1_556 S
C636 C637 1.524 . S
C636 C650 1.377 . S
C637 C636 1.524 . S
C637 C638 1.397 . S
C637 C642 1.363 . S
C638 H615 0.950 1_556 S
C638 C637 1.397 . S
C638 C639 1.334 . S
C639 H616 0.950 . S
C639 C638 1.334 . S
C639 C640 1.287 . S
C640 C639 1.287 . S
C640 C641 1.524 . S
C640 H659 0.913 . S
C641 H617 0.950 . S
C641 C640 1.524 . S
C641 C642 1.415 . S
C642 H618 0.950 . S
C642 C637 1.363 . S
C642 C641 1.415 . S
C643 H619 0.951 . S
C643 C644 1.366 . S
C643 C645 1.388 . S
C644 C643 1.366 . S
C644 C648 1.385 1_554 S
C645 H620 0.951 . S
C645 C643 1.388 . S
C645 C646 1.366 . S
C646 C645 1.366 . S
C646 C647 1.414 1_554 S
C646 C649 1.499 . S
C647 H621 0.950 . S
C647 C646 1.414 1_556 S
C647 C648 1.374 . S
C648 H622 0.950 . S
C648 C644 1.385 1_556 S
C648 C647 1.374 . S
C649 C646 1.499 . S
C649 C650 1.373 1_554 S
C649 C651 1.389 . S
C650 H623 0.950 . S
C650 C636 1.377 . S
C650 C649 1.373 1_556 S
C651 C635 1.377 . S
C651 C649 1.389 . S
C651 C652 1.524 . S
C652 C651 1.524 . S
C652 C653 1.397 . S
C652 C657 1.363 . S
C653 H624 0.950 . S
C653 C652 1.397 . S
C653 C654 1.334 . S
C654 H625 0.950 . S
C654 C653 1.334 . S
C654 C655 1.287 . S
C655 C654 1.287 . S
C655 C656 1.524 . S
C655 H658 0.999 . S
C656 H626 0.950 . S
C656 C655 1.524 . S
C656 C657 1.415 . S
C657 H627 0.950 . S
C657 C652 1.363 . S
C657 C656 1.415 . S
H658 C655 0.999 . S
H659 C640 0.913 . S
H660 C678 0.951 . S
H661 C680 0.951 . S
H662 C682 0.950 . S
H663 C683 0.950 . S
H664 C685 0.950 . S
H665 C688 0.950 . S
H666 C689 0.950 . S
H667 C691 0.950 . S
H668 C692 0.950 . S
H669 C693 0.951 . S
H670 C695 0.951 . S
H671 C697 0.950 . S
H672 C698 0.950 . S
H673 C700 0.950 . S
H674 C703 0.950 . S
H675 C704 0.950 . S
H676 C706 0.950 . S
H677 C707 0.950 . S
C678 H660 0.951 . S
C678 C679 1.366 . S
C678 C680 1.388 . S
C679 C678 1.366 . S
C679 C683 1.385 . S
C680 H661 0.951 . S
C680 C678 1.388 . S
C680 C681 1.366 . S
C681 C680 1.366 . S
C681 C682 1.414 . S
C681 C684 1.499 . S
C682 H662 0.950 . S
C682 C681 1.414 . S
C682 C683 1.374 . S
C683 H663 0.950 . S
C683 C679 1.385 . S
C683 C682 1.374 . S
C684 C681 1.499 . S
C684 C685 1.373 . S
C684 C686 1.389 . S
C685 H664 0.950 . S
C685 C684 1.373 . S
C685 C701 1.377 1_655 S
C686 C684 1.389 . S
C686 C687 1.524 . S
C686 C700 1.377 1_655 S
C687 C686 1.524 . S
C687 C688 1.397 . S
C687 C692 1.363 . S
C688 H665 0.950 . S
C688 C687 1.397 . S
C688 C689 1.334 . S
C689 H666 0.950 . S
C689 C688 1.334 . S
C689 C690 1.287 . S
C690 C689 1.287 . S
C690 C691 1.524 . S
C690 H709 0.913 . S
C691 H667 0.950 . S
C691 C690 1.524 . S
C691 C692 1.415 . S
C692 H668 0.950 . S
C692 C687 1.363 . S
C692 C691 1.415 . S
C693 H669 0.951 . S
C693 C694 1.366 . S
C693 C695 1.388 . S
C694 C693 1.366 . S
C694 C698 1.385 . S
C695 H670 0.951 . S
C695 C693 1.388 . S
C695 C696 1.366 . S
C696 C695 1.366 . S
C696 C697 1.414 . S
C696 C699 1.499 . S
C697 H671 0.950 . S
C697 C696 1.414 . S
C697 C698 1.374 . S
C698 H672 0.950 . S
C698 C694 1.385 . S
C698 C697 1.374 . S
C699 C696 1.499 . S
C699 C700 1.373 . S
C699 C701 1.389 . S
C700 H673 0.950 . S
C700 C686 1.377 1_455 S
C700 C699 1.373 . S
C701 C685 1.377 1_455 S
C701 C699 1.389 . S
C701 C702 1.524 . S
C702 C701 1.524 . S
C702 C703 1.397 . S
C702 C707 1.363 . S
C703 H674 0.950 . S
C703 C702 1.397 . S
C703 C704 1.334 . S
C704 H675 0.950 . S
C704 C703 1.334 . S
C704 C705 1.287 . S
C705 C704 1.287 . S
C705 C706 1.524 . S
C705 H708 0.999 1_565 S
C706 H676 0.950 . S
C706 C705 1.524 . S
C706 C707 1.415 . S
C707 H677 0.950 . S
C707 C702 1.363 . S
C707 C706 1.415 . S
H708 C705 0.999 1_545 S
H709 C690 0.913 . S
H710 C728 0.951 . S
H711 C730 0.951 . S
H712 C732 0.950 . S
H713 C733 0.950 . S
H714 C735 0.950 . S
H715 C738 0.950 . S
H716 C739 0.950 . S
H717 C741 0.950 . S
H718 C742 0.950 . S
H719 C743 0.951 . S
H720 C745 0.951 . S
H721 C747 0.950 . S
H722 C748 0.950 . S
H723 C750 0.950 . S
H724 C753 0.950 . S
H725 C754 0.950 . S
H726 C756 0.950 . S
H727 C757 0.950 . S
C728 H710 0.951 . S
C728 C729 1.366 . S
C728 C730 1.388 . S
C729 C728 1.366 . S
C729 C733 1.385 . S
C730 H711 0.951 . S
C730 C728 1.388 . S
C730 C731 1.366 . S
C731 C730 1.366 . S
C731 C732 1.414 . S
C731 C734 1.499 . S
C732 H712 0.950 . S
C732 C731 1.414 . S
C732 C733 1.374 . S
C733 H713 0.950 . S
C733 C729 1.385 . S
C733 C732 1.374 . S
C734 C731 1.499 . S
C734 C735 1.373 . S
C734 C736 1.389 . S
C735 H714 0.950 . S
C735 C734 1.373 . S
C735 C751 1.377 . S
C736 C734 1.389 . S
C736 C737 1.524 . S
C736 C750 1.377 . S
C737 C736 1.524 . S
C737 C738 1.397 . S
C737 C742 1.363 . S
C738 H715 0.950 . S
C738 C737 1.397 . S
C738 C739 1.334 . S
C739 H716 0.950 . S
C739 C738 1.334 . S
C739 C740 1.287 . S
C740 C739 1.287 . S
C740 C741 1.524 . S
C740 H759 0.913 . S
C741 H717 0.950 . S
C741 C740 1.524 . S
C741 C742 1.415 . S
C742 H718 0.950 . S
C742 C737 1.363 . S
C742 C741 1.415 . S
C743 H719 0.951 . S
C743 C744 1.366 . S
C743 C745 1.388 . S
C744 C743 1.366 . S
C744 C748 1.385 . S
C745 H720 0.951 . S
C745 C743 1.388 . S
C745 C746 1.366 . S
C746 C745 1.366 . S
C746 C747 1.414 . S
C746 C749 1.499 . S
C747 H721 0.950 . S
C747 C746 1.414 . S
C747 C748 1.374 . S
C748 H722 0.950 . S
C748 C744 1.385 . S
C748 C747 1.374 . S
C749 C746 1.499 . S
C749 C750 1.373 . S
C749 C751 1.389 . S
C750 H723 0.950 . S
C750 C736 1.377 . S
C750 C749 1.373 . S
C751 C735 1.377 . S
C751 C749 1.389 . S
C751 C752 1.524 . S
C752 C751 1.524 . S
C752 C753 1.397 . S
C752 C757 1.363 . S
C753 H724 0.950 . S
C753 C752 1.397 . S
C753 C754 1.334 . S
C754 H725 0.950 . S
C754 C753 1.334 . S
C754 C755 1.287 . S
C755 C754 1.287 . S
C755 C756 1.524 . S
C755 H758 0.999 . S
C756 H726 0.950 . S
C756 C755 1.524 . S
C756 C757 1.415 . S
C757 H727 0.950 . S
C757 C752 1.363 . S
C757 C756 1.415 . S
H758 C755 0.999 . S
H759 C740 0.913 . S
H760 C778 0.951 . S
H761 C780 0.951 . S
H762 C782 0.950 . S
H763 C783 0.950 . S
H764 C785 0.950 . S
H765 C788 0.950 . S
H766 C789 0.950 . S
H767 C791 0.950 . S
H768 C792 0.950 . S
H769 C793 0.951 . S
H770 C795 0.951 . S
H771 C797 0.950 . S
H772 C798 0.950 . S
H773 C800 0.950 . S
H774 C803 0.950 . S
H775 C804 0.950 . S
H776 C806 0.950 1_545 S
H777 C807 0.950 . S
C778 H760 0.951 . S
C778 C779 1.366 . S
C778 C780 1.388 . S
C779 C778 1.366 . S
C779 C783 1.385 . S
C780 H761 0.951 . S
C780 C778 1.388 . S
C780 C781 1.366 . S
C781 C780 1.366 . S
C781 C782 1.414 . S
C781 C784 1.499 . S
C782 H762 0.950 . S
C782 C781 1.414 . S
C782 C783 1.374 . S
C783 H763 0.950 . S
C783 C779 1.385 . S
C783 C782 1.374 . S
C784 C781 1.499 . S
C784 C785 1.373 . S
C784 C786 1.389 1_545 S
C785 H764 0.950 . S
C785 C784 1.373 . S
C785 C801 1.377 1_545 S
C786 C784 1.389 1_565 S
C786 C787 1.524 1_565 S
C786 C800 1.377 . S
C787 C786 1.524 1_545 S
C787 C788 1.397 . S
C787 C792 1.363 1_545 S
C788 H765 0.950 . S
C788 C787 1.397 . S
C788 C789 1.334 . S
C789 H766 0.950 . S
C789 C788 1.334 . S
C789 C790 1.287 . S
C790 C789 1.287 . S
C790 C791 1.524 1_545 S
C790 H809 0.913 . S
C791 H767 0.950 . S
C791 C790 1.524 1_565 S
C791 C792 1.415 . S
C792 H768 0.950 . S
C792 C787 1.363 1_565 S
C792 C791 1.415 . S
C793 H769 0.951 . S
C793 C794 1.366 . S
C793 C795 1.388 . S
C794 C793 1.366 . S
C794 C798 1.385 . S
C795 H770 0.951 . S
C795 C793 1.388 . S
C795 C796 1.366 . S
C796 C795 1.366 . S
C796 C797 1.414 . S
C796 C799 1.499 . S
C797 H771 0.950 . S
C797 C796 1.414 . S
C797 C798 1.374 . S
C798 H772 0.950 . S
C798 C794 1.385 . S
C798 C797 1.374 . S
C799 C796 1.499 . S
C799 C800 1.373 . S
C799 C801 1.389 . S
C800 H773 0.950 . S
C800 C786 1.377 . S
C800 C799 1.373 . S
C801 C785 1.377 1_565 S
C801 C799 1.389 . S
C801 C802 1.524 . S
C802 C801 1.524 . S
C802 C803 1.397 . S
C802 C807 1.363 1_565 S
C803 H774 0.950 . S
C803 C802 1.397 . S
C803 C804 1.334 . S
C804 H775 0.950 . S
C804 C803 1.334 . S
C804 C805 1.287 . S
C805 C804 1.287 . S
C805 C806 1.524 . S
C805 H808 0.999 . S
C806 H776 0.950 1_565 S
C806 C805 1.524 . S
C806 C807 1.415 1_565 S
C807 H777 0.950 . S
C807 C802 1.363 1_545 S
C807 C806 1.415 1_545 S
H808 C805 0.999 . S
H809 C790 0.913 . S
H810 C828 0.951 . S
H811 C830 0.951 . S
H812 C832 0.950 . S
H813 C833 0.950 . S
H814 C835 0.950 . S
H815 C838 0.950 . S
H816 C839 0.950 . S
H817 C841 0.950 . S
H818 C842 0.950 . S
H819 C843 0.951 . S
H820 C845 0.951 . S
H821 C847 0.950 . S
H822 C848 0.950 . S
H823 C850 0.950 . S
H824 C853 0.950 . S
H825 C854 0.950 . S
H826 C856 0.950 . S
H827 C857 0.950 . S
C828 H810 0.951 . S
C828 C829 1.366 . S
C828 C830 1.388 . S
C829 C828 1.366 . S
C829 C833 1.385 . S
C830 H811 0.951 . S
C830 C828 1.388 . S
C830 C831 1.366 . S
C831 C830 1.366 . S
C831 C832 1.414 . S
C831 C834 1.499 . S
C832 H812 0.950 . S
C832 C831 1.414 . S
C832 C833 1.374 . S
C833 H813 0.950 . S
C833 C829 1.385 . S
C833 C832 1.374 . S
C834 C831 1.499 . S
C834 C835 1.373 . S
C834 C836 1.389 . S
C835 H814 0.950 . S
C835 C834 1.373 . S
C835 C851 1.377 . S
C836 C834 1.389 . S
C836 C837 1.524 . S
C836 C850 1.377 . S
C837 C836 1.524 . S
C837 C838 1.397 . S
C837 C842 1.363 . S
C838 H815 0.950 . S
C838 C837 1.397 . S
C838 C839 1.334 . S
C839 H816 0.950 . S
C839 C838 1.334 . S
C839 C840 1.287 . S
C840 C839 1.287 . S
C840 C841 1.524 . S
C840 H859 0.913 . S
C841 H817 0.950 . S
C841 C840 1.524 . S
C841 C842 1.415 . S
C842 H818 0.950 . S
C842 C837 1.363 . S
C842 C841 1.415 . S
C843 H819 0.951 . S
C843 C844 1.366 . S
C843 C845 1.388 . S
C844 C843 1.366 . S
C844 C848 1.385 . S
C845 H820 0.951 . S
C845 C843 1.388 . S
C845 C846 1.366 . S
C846 C845 1.366 . S
C846 C847 1.414 . S
C846 C849 1.499 . S
C847 H821 0.950 . S
C847 C846 1.414 . S
C847 C848 1.374 . S
C848 H822 0.950 . S
C848 C844 1.385 . S
C848 C847 1.374 . S
C849 C846 1.499 . S
C849 C850 1.373 . S
C849 C851 1.389 . S
C850 H823 0.950 . S
C850 C836 1.377 . S
C850 C849 1.373 . S
C851 C835 1.377 . S
C851 C849 1.389 . S
C851 C852 1.524 . S
C852 C851 1.524 . S
C852 C853 1.397 . S
C852 C857 1.363 . S
C853 H824 0.950 . S
C853 C852 1.397 . S
C853 C854 1.334 . S
C854 H825 0.950 . S
C854 C853 1.334 . S
C854 C855 1.287 . S
C855 C854 1.287 . S
C855 C856 1.524 . S
C855 H858 0.999 . S
C856 H826 0.950 . S
C856 C855 1.524 . S
C856 C857 1.415 . S
C857 H827 0.950 . S
C857 C852 1.363 . S
C857 C856 1.415 . S
H858 C855 0.999 . S
H859 C840 0.913 . S
H860 C878 0.951 . S
H861 C880 0.951 . S
H862 C882 0.950 . S
H863 C883 0.950 . S
H864 C885 0.950 . S
H865 C888 0.950 . S
H866 C889 0.950 . S
H867 C891 0.950 . S
H868 C892 0.950 . S
H869 C893 0.951 . S
H870 C895 0.951 . S
H871 C897 0.950 . S
H872 C898 0.950 . S
H873 C900 0.950 . S
H874 C903 0.950 . S
H875 C904 0.950 . S
H876 C906 0.950 . S
H877 C907 0.950 . S
C878 H860 0.951 . S
C878 C879 1.366 . S
C878 C880 1.388 . S
C879 C878 1.366 . S
C879 C883 1.385 . S
C880 H861 0.951 . S
C880 C878 1.388 . S
C880 C881 1.366 . S
C881 C880 1.366 . S
C881 C882 1.414 . S
C881 C884 1.499 . S
C882 H862 0.950 . S
C882 C881 1.414 . S
C882 C883 1.374 . S
C883 H863 0.950 . S
C883 C879 1.385 . S
C883 C882 1.374 . S
C884 C881 1.499 . S
C884 C885 1.373 . S
C884 C886 1.389 . S
C885 H864 0.950 . S
C885 C884 1.373 . S
C885 C901 1.377 . S
C886 C884 1.389 . S
C886 C887 1.524 . S
C886 C900 1.377 . S
C887 C886 1.524 . S
C887 C888 1.397 . S
C887 C892 1.363 . S
C888 H865 0.950 . S
C888 C887 1.397 . S
C888 C889 1.334 . S
C889 H866 0.950 . S
C889 C888 1.334 . S
C889 C890 1.287 . S
C890 C889 1.287 . S
C890 C891 1.524 . S
C890 H909 0.913 . S
C891 H867 0.950 . S
C891 C890 1.524 . S
C891 C892 1.415 . S
C892 H868 0.950 . S
C892 C887 1.363 . S
C892 C891 1.415 . S
C893 H869 0.951 . S
C893 C894 1.366 . S
C893 C895 1.388 . S
C894 C893 1.366 . S
C894 C898 1.385 . S
C895 H870 0.951 . S
C895 C893 1.388 . S
C895 C896 1.366 . S
C896 C895 1.366 . S
C896 C897 1.414 . S
C896 C899 1.499 . S
C897 H871 0.950 . S
C897 C896 1.414 . S
C897 C898 1.374 . S
C898 H872 0.950 . S
C898 C894 1.385 . S
C898 C897 1.374 . S
C899 C896 1.499 . S
C899 C900 1.373 . S
C899 C901 1.389 . S
C900 H873 0.950 . S
C900 C886 1.377 . S
C900 C899 1.373 . S
C901 C885 1.377 . S
C901 C899 1.389 . S
C901 C902 1.524 . S
C902 C901 1.524 . S
C902 C903 1.397 . S
C902 C907 1.363 . S
C903 H874 0.950 . S
C903 C902 1.397 . S
C903 C904 1.334 . S
C904 H875 0.950 . S
C904 C903 1.334 . S
C904 C905 1.287 . S
C905 C904 1.287 . S
C905 C906 1.524 . S
C905 H908 0.999 . S
C906 H876 0.950 . S
C906 C905 1.524 . S
C906 C907 1.415 . S
C907 H877 0.950 . S
C907 C902 1.363 . S
C907 C906 1.415 . S
H908 C905 0.999 . S
H909 C890 0.913 . S
H910 C928 0.951 . S
H911 C930 0.951 . S
H912 C932 0.950 . S
H913 C933 0.950 . S
H914 C935 0.950 . S
H915 C938 0.950 . S
H916 C939 0.950 . S
H917 C941 0.950 . S
H918 C942 0.950 . S
H919 C943 0.951 . S
H920 C945 0.951 . S
H921 C947 0.950 . S
H922 C948 0.950 . S
H923 C950 0.950 . S
H924 C953 0.950 . S
H925 C954 0.950 . S
H926 C956 0.950 . S
H927 C957 0.950 . S
C928 H910 0.951 . S
C928 C929 1.366 . S
C928 C930 1.388 . S
C929 C928 1.366 . S
C929 C933 1.385 . S
C930 H911 0.951 . S
C930 C928 1.388 . S
C930 C931 1.366 . S
C931 C930 1.366 . S
C931 C932 1.414 . S
C931 C934 1.499 . S
C932 H912 0.950 . S
C932 C931 1.414 . S
C932 C933 1.374 . S
C933 H913 0.950 . S
C933 C929 1.385 . S
C933 C932 1.374 . S
C934 C931 1.499 . S
C934 C935 1.373 . S
C934 C936 1.389 . S
C935 H914 0.950 . S
C935 C934 1.373 . S
C935 C951 1.377 . S
C936 C934 1.389 . S
C936 C937 1.524 . S
C936 C950 1.377 . S
C937 C936 1.524 . S
C937 C938 1.397 . S
C937 C942 1.363 . S
C938 H915 0.950 . S
C938 C937 1.397 . S
C938 C939 1.334 . S
C939 H916 0.950 . S
C939 C938 1.334 . S
C939 C940 1.287 . S
C940 C939 1.287 . S
C940 C941 1.524 . S
C940 H959 0.913 . S
C941 H917 0.950 . S
C941 C940 1.524 . S
C941 C942 1.415 . S
C942 H918 0.950 . S
C942 C937 1.363 . S
C942 C941 1.415 . S
C943 H919 0.951 . S
C943 C944 1.366 . S
C943 C945 1.388 . S
C944 C943 1.366 . S
C944 C948 1.385 . S
C945 H920 0.951 . S
C945 C943 1.388 . S
C945 C946 1.366 . S
C946 C945 1.366 . S
C946 C947 1.414 . S
C946 C949 1.499 . S
C947 H921 0.950 . S
C947 C946 1.414 . S
C947 C948 1.374 . S
C948 H922 0.950 . S
C948 C944 1.385 . S
C948 C947 1.374 . S
C949 C946 1.499 . S
C949 C950 1.373 . S
C949 C951 1.389 . S
C950 H923 0.950 . S
C950 C936 1.377 . S
C950 C949 1.373 . S
C951 C935 1.377 . S
C951 C949 1.389 . S
C951 C952 1.524 . S
C952 C951 1.524 . S
C952 C953 1.397 . S
C952 C957 1.363 . S
C953 H924 0.950 . S
C953 C952 1.397 . S
C953 C954 1.334 . S
C954 H925 0.950 . S
C954 C953 1.334 . S
C954 C955 1.287 . S
C955 C954 1.287 . S
C955 C956 1.524 . S
C955 H958 0.999 . S
C956 H926 0.950 . S
C956 C955 1.524 . S
C956 C957 1.415 . S
C957 H927 0.950 . S
C957 C952 1.363 . S
C957 C956 1.415 . S
H958 C955 0.999 . S
H959 C940 0.913 . S
H960 C978 0.951 . S
H961 C980 0.951 . S
H962 C982 0.950 . S
H963 C983 0.950 . S
H964 C985 0.950 . S
H965 C988 0.950 . S
H966 C989 0.950 . S
H967 C991 0.950 . S
H968 C992 0.950 . S
H969 C993 0.951 . S
H970 C995 0.951 . S
H971 C997 0.950 . S
H972 C998 0.950 . S
H973 C1000 0.950 . S
H974 C1003 0.950 . S
H975 C1004 0.950 . S
H976 C1006 0.950 . S
H977 C1007 0.950 . S
C978 H960 0.951 . S
C978 C979 1.366 . S
C978 C980 1.388 . S
C979 C978 1.366 . S
C979 C983 1.385 . S
C980 H961 0.951 . S
C980 C978 1.388 . S
C980 C981 1.366 . S
C981 C980 1.366 . S
C981 C982 1.414 . S
C981 C984 1.499 . S
C982 H962 0.950 . S
C982 C981 1.414 . S
C982 C983 1.374 . S
C983 H963 0.950 . S
C983 C979 1.385 . S
C983 C982 1.374 . S
C984 C981 1.499 . S
C984 C985 1.373 . S
C984 C986 1.389 . S
C985 H964 0.950 . S
C985 C984 1.373 . S
C985 C1001 1.377 . S
C986 C984 1.389 . S
C986 C987 1.524 . S
C986 C1000 1.377 . S
C987 C986 1.524 . S
C987 C988 1.397 . S
C987 C992 1.363 . S
C988 H965 0.950 . S
C988 C987 1.397 . S
C988 C989 1.334 . S
C989 H966 0.950 . S
C989 C988 1.334 . S
C989 C990 1.287 . S
C990 C989 1.287 . S
C990 C991 1.524 . S
C990 H1009 0.913 . S
C991 H967 0.950 . S
C991 C990 1.524 . S
C991 C992 1.415 . S
C992 H968 0.950 . S
C992 C987 1.363 . S
C992 C991 1.415 . S
C993 H969 0.951 . S
C993 C994 1.366 . S
C993 C995 1.388 . S
C994 C993 1.366 . S
C994 C998 1.385 . S
C995 H970 0.951 . S
C995 C993 1.388 . S
C995 C996 1.366 . S
C996 C995 1.366 . S
C996 C997 1.414 . S
C996 C999 1.499 . S
C997 H971 0.950 . S
C997 C996 1.414 . S
C997 C998 1.374 . S
C998 H972 0.950 . S
C998 C994 1.385 . S
C998 C997 1.374 . S
C999 C996 1.499 . S
C999 C1000 1.373 . S
C999 C1001 1.389 . S
C1000 H973 0.950 . S
C1000 C986 1.377 . S
C1000 C999 1.373 . S
C1001 C985 1.377 . S
C1001 C999 1.389 . S
C1001 C1002 1.524 . S
C1002 C1001 1.524 . S
C1002 C1003 1.397 . S
C1002 C1007 1.363 . S
C1003 H974 0.950 . S
C1003 C1002 1.397 . S
C1003 C1004 1.334 . S
C1004 H975 0.950 . S
C1004 C1003 1.334 . S
C1004 C1005 1.287 . S
C1005 C1004 1.287 . S
C1005 C1006 1.524 . S
C1005 H1008 0.999 . S
C1006 H976 0.950 . S
C1006 C1005 1.524 . S
C1006 C1007 1.415 . S
C1007 H977 0.950 . S
C1007 C1002 1.363 . S
C1007 C1006 1.415 . S
H1008 C1005 0.999 . S
H1009 C990 0.913 . S
H1010 C1028 0.951 . S
H1011 C1030 0.951 . S
H1012 C1032 0.950 . S
H1013 C1033 0.950 . S
H1014 C1035 0.950 . S
H1015 C1038 0.950 . S
H1016 C1039 0.950 . S
H1017 C1041 0.950 . S
H1018 C1042 0.950 . S
H1019 C1043 0.951 . S
H1020 C1045 0.951 . S
H1021 C1047 0.950 . S
H1022 C1048 0.950 . S
H1023 C1050 0.950 . S
H1024 C1053 0.950 . S
H1025 C1054 0.950 . S
H1026 C1056 0.950 . S
H1027 C1057 0.950 . S
C1028 H1010 0.951 . S
C1028 C1029 1.366 . S
C1028 C1030 1.388 . S
C1029 C1028 1.366 . S
C1029 C1033 1.385 . S
C1030 H1011 0.951 . S
C1030 C1028 1.388 . S
C1030 C1031 1.366 . S
C1031 C1030 1.366 . S
C1031 C1032 1.414 . S
C1031 C1034 1.499 . S
C1032 H1012 0.950 . S
C1032 C1031 1.414 . S
C1032 C1033 1.374 . S
C1033 H1013 0.950 . S
C1033 C1029 1.385 . S
C1033 C1032 1.374 . S
C1034 C1031 1.499 . S
C1034 C1035 1.373 . S
C1034 C1036 1.389 . S
C1035 H1014 0.950 . S
C1035 C1034 1.373 . S
C1035 C1051 1.377 . S
C1036 C1034 1.389 . S
C1036 C1037 1.524 . S
C1036 C1050 1.377 . S
C1037 C1036 1.524 . S
C1037 C1038 1.397 . S
C1037 C1042 1.363 . S
C1038 H1015 0.950 . S
C1038 C1037 1.397 . S
C1038 C1039 1.334 . S
C1039 H1016 0.950 . S
C1039 C1038 1.334 . S
C1039 C1040 1.287 . S
C1040 C1039 1.287 . S
C1040 C1041 1.524 . S
C1040 H1059 0.913 . S
C1041 H1017 0.950 . S
C1041 C1040 1.524 . S
C1041 C1042 1.415 . S
C1042 H1018 0.950 . S
C1042 C1037 1.363 . S
C1042 C1041 1.415 . S
C1043 H1019 0.951 . S
C1043 C1044 1.366 . S
C1043 C1045 1.388 . S
C1044 C1043 1.366 . S
C1044 C1048 1.385 . S
C1045 H1020 0.951 . S
C1045 C1043 1.388 . S
C1045 C1046 1.366 . S
C1046 C1045 1.366 . S
C1046 C1047 1.414 . S
C1046 C1049 1.499 . S
C1047 H1021 0.950 . S
C1047 C1046 1.414 . S
C1047 C1048 1.374 . S
C1048 H1022 0.950 . S
C1048 C1044 1.385 . S
C1048 C1047 1.374 . S
C1049 C1046 1.499 . S
C1049 C1050 1.373 . S
C1049 C1051 1.389 . S
C1050 H1023 0.950 . S
C1050 C1036 1.377 . S
C1050 C1049 1.373 . S
C1051 C1035 1.377 . S
C1051 C1049 1.389 . S
C1051 C1052 1.524 . S
C1052 C1051 1.524 . S
C1052 C1053 1.397 . S
C1052 C1057 1.363 . S
C1053 H1024 0.950 . S
C1053 C1052 1.397 . S
C1053 C1054 1.334 . S
C1054 H1025 0.950 . S
C1054 C1053 1.334 . S
C1054 C1055 1.287 . S
C1055 C1054 1.287 . S
C1055 C1056 1.524 . S
C1055 H1058 0.999 . S
C1056 H1026 0.950 . S
C1056 C1055 1.524 . S
C1056 C1057 1.415 . S
C1057 H1027 0.950 . S
C1057 C1052 1.363 . S
C1057 C1056 1.415 . S
H1058 C1055 0.999 . S
H1059 C1040 0.913 . S
H1060 C1078 0.951 . S
H1061 C1080 0.951 . S
H1062 C1082 0.950 . S
H1063 C1083 0.950 . S
H1064 C1085 0.950 . S
H1065 C1088 0.950 . S
H1066 C1089 0.950 . S
H1067 C1091 0.950 . S
H1068 C1092 0.950 . S
H1069 C1093 0.951 . S
H1070 C1095 0.951 . S
H1071 C1097 0.950 . S
H1072 C1098 0.950 . S
H1073 C1100 0.950 . S
H1074 C1103 0.950 . S
H1075 C1104 0.950 . S
H1076 C1106 0.950 . S
H1077 C1107 0.950 . S
C1078 H1060 0.951 . S
C1078 C1079 1.366 . S
C1078 C1080 1.388 . S
C1079 C1078 1.366 . S
C1079 C1083 1.385 . S
C1080 H1061 0.951 . S
C1080 C1078 1.388 . S
C1080 C1081 1.366 . S
C1081 C1080 1.366 . S
C1081 C1082 1.414 . S
C1081 C1084 1.499 . S
C1082 H1062 0.950 . S
C1082 C1081 1.414 . S
C1082 C1083 1.374 . S
C1083 H1063 0.950 . S
C1083 C1079 1.385 . S
C1083 C1082 1.374 . S
C1084 C1081 1.499 . S
C1084 C1085 1.373 . S
C1084 C1086 1.389 . S
C1085 H1064 0.950 . S
C1085 C1084 1.373 . S
C1085 C1101 1.377 . S
C1086 C1084 1.389 . S
C1086 C1087 1.524 . S
C1086 C1100 1.377 . S
C1087 C1086 1.524 . S
C1087 C1088 1.397 . S
C1087 C1092 1.363 . S
C1088 H1065 0.950 . S
C1088 C1087 1.397 . S
C1088 C1089 1.334 . S
C1089 H1066 0.950 . S
C1089 C1088 1.334 . S
C1089 C1090 1.287 . S
C1090 C1089 1.287 . S
C1090 C1091 1.524 . S
C1090 H1109 0.913 . S
C1091 H1067 0.950 . S
C1091 C1090 1.524 . S
C1091 C1092 1.415 . S
C1092 H1068 0.950 . S
C1092 C1087 1.363 . S
C1092 C1091 1.415 . S
C1093 H1069 0.951 . S
C1093 C1094 1.366 . S
C1093 C1095 1.388 . S
C1094 C1093 1.366 . S
C1094 C1098 1.385 . S
C1095 H1070 0.951 . S
C1095 C1093 1.388 . S
C1095 C1096 1.366 . S
C1096 C1095 1.366 . S
C1096 C1097 1.414 . S
C1096 C1099 1.499 . S
C1097 H1071 0.950 . S
C1097 C1096 1.414 . S
C1097 C1098 1.374 . S
C1098 H1072 0.950 . S
C1098 C1094 1.385 . S
C1098 C1097 1.374 . S
C1099 C1096 1.499 . S
C1099 C1100 1.373 . S
C1099 C1101 1.389 . S
C1100 H1073 0.950 . S
C1100 C1086 1.377 . S
C1100 C1099 1.373 . S
C1101 C1085 1.377 . S
C1101 C1099 1.389 . S
C1101 C1102 1.524 . S
C1102 C1101 1.524 . S
C1102 C1103 1.397 . S
C1102 C1107 1.363 . S
C1103 H1074 0.950 . S
C1103 C1102 1.397 . S
C1103 C1104 1.334 . S
C1104 H1075 0.950 . S
C1104 C1103 1.334 . S
C1104 C1105 1.287 . S
C1105 C1104 1.287 . S
C1105 C1106 1.524 . S
C1105 H1108 0.999 . S
C1106 H1076 0.950 . S
C1106 C1105 1.524 . S
C1106 C1107 1.415 . S
C1107 H1077 0.950 . S
C1107 C1102 1.363 . S
C1107 C1106 1.415 . S
H1108 C1105 0.999 . S
H1109 C1090 0.913 . S
H1110 C1128 0.951 . S
H1111 C1130 0.951 . S
H1112 C1132 0.950 . S
H1113 C1133 0.950 . S
H1114 C1135 0.950 . S
H1115 C1138 0.950 . S
H1116 C1139 0.950 . S
H1117 C1141 0.950 . S
H1118 C1142 0.950 . S
H1119 C1143 0.951 . S
H1120 C1145 0.951 . S
H1121 C1147 0.950 . S
H1122 C1148 0.950 . S
H1123 C1150 0.950 . S
H1124 C1153 0.950 . S
H1125 C1154 0.950 1_545 S
H1126 C1156 0.950 . S
H1127 C1157 0.950 . S
C1128 H1110 0.951 . S
C1128 C1129 1.366 . S
C1128 C1130 1.388 . S
C1129 C1128 1.366 . S
C1129 C1133 1.385 . S
C1130 H1111 0.951 . S
C1130 C1128 1.388 . S
C1130 C1131 1.366 . S
C1131 C1130 1.366 . S
C1131 C1132 1.414 . S
C1131 C1134 1.499 . S
C1132 H1112 0.950 . S
C1132 C1131 1.414 . S
C1132 C1133 1.374 . S
C1133 H1113 0.950 . S
C1133 C1129 1.385 . S
C1133 C1132 1.374 . S
C1134 C1131 1.499 . S
C1134 C1135 1.373 . S
C1134 C1136 1.389 . S
C1135 H1114 0.950 . S
C1135 C1134 1.373 . S
C1135 C1151 1.377 . S
C1136 C1134 1.389 . S
C1136 C1137 1.524 . S
C1136 C1150 1.377 . S
C1137 C1136 1.524 . S
C1137 C1138 1.397 . S
C1137 C1142 1.363 . S
C1138 H1115 0.950 . S
C1138 C1137 1.397 . S
C1138 C1139 1.334 . S
C1139 H1116 0.950 . S
C1139 C1138 1.334 . S
C1139 C1140 1.287 . S
C1140 C1139 1.287 . S
C1140 C1141 1.524 . S
C1140 H1159 0.913 . S
C1141 H1117 0.950 . S
C1141 C1140 1.524 . S
C1141 C1142 1.415 . S
C1142 H1118 0.950 . S
C1142 C1137 1.363 . S
C1142 C1141 1.415 . S
C1143 H1119 0.951 . S
C1143 C1144 1.366 . S
C1143 C1145 1.388 . S
C1144 C1143 1.366 . S
C1144 C1148 1.385 . S
C1145 H1120 0.951 . S
C1145 C1143 1.388 . S
C1145 C1146 1.366 . S
C1146 C1145 1.366 . S
C1146 C1147 1.414 . S
C1146 C1149 1.499 1_545 S
C1147 H1121 0.950 . S
C1147 C1146 1.414 . S
C1147 C1148 1.374 . S
C1148 H1122 0.950 . S
C1148 C1144 1.385 . S
C1148 C1147 1.374 . S
C1149 C1146 1.499 1_565 S
C1149 C1150 1.373 . S
C1149 C1151 1.389 . S
C1150 H1123 0.950 . S
C1150 C1136 1.377 . S
C1150 C1149 1.373 . S
C1151 C1135 1.377 . S
C1151 C1149 1.389 . S
C1151 C1152 1.524 . S
C1152 C1151 1.524 . S
C1152 C1153 1.397 . S
C1152 C1157 1.363 . S
C1153 H1124 0.950 . S
C1153 C1152 1.397 . S
C1153 C1154 1.334 . S
C1154 H1125 0.950 1_565 S
C1154 C1153 1.334 . S
C1154 C1155 1.287 . S
C1155 C1154 1.287 . S
C1155 C1156 1.524 . S
C1155 H1158 0.999 . S
C1156 H1126 0.950 . S
C1156 C1155 1.524 . S
C1156 C1157 1.415 . S
C1157 H1127 0.950 . S
C1157 C1152 1.363 . S
C1157 C1156 1.415 . S
H1158 C1155 0.999 . S
H1159 C1140 0.913 . S
H1160 C1178 0.951 . S
H1161 C1180 0.951 . S
H1162 C1182 0.950 . S
H1163 C1183 0.950 . S
H1164 C1185 0.950 . S
H1165 C1188 0.950 . S
H1166 C1189 0.950 . S
H1167 C1191 0.950 . S
H1168 C1192 0.950 . S
H1169 C1193 0.951 . S
H1170 C1195 0.951 . S
H1171 C1197 0.950 . S
H1172 C1198 0.950 . S
H1173 C1200 0.950 . S
H1174 C1203 0.950 . S
H1175 C1204 0.950 1_565 S
H1176 C1206 0.950 . S
H1177 C1207 0.950 . S
C1178 H1160 0.951 . S
C1178 C1179 1.366 . S
C1178 C1180 1.388 . S
C1179 C1178 1.366 . S
C1179 C1183 1.385 . S
C1180 H1161 0.951 . S
C1180 C1178 1.388 . S
C1180 C1181 1.366 . S
C1181 C1180 1.366 . S
C1181 C1182 1.414 . S
C1181 C1184 1.499 . S
C1182 H1162 0.950 . S
C1182 C1181 1.414 . S
C1182 C1183 1.374 . S
C1183 H1163 0.950 . S
C1183 C1179 1.385 . S
C1183 C1182 1.374 . S
C1184 C1181 1.499 . S
C1184 C1185 1.373 . S
C1184 C1186 1.389 . S
C1185 H1164 0.950 . S
C1185 C1184 1.373 . S
C1185 C1201 1.377 . S
C1186 C1184 1.389 . S
C1186 C1187 1.524 . S
C1186 C1200 1.377 . S
C1187 C1186 1.524 . S
C1187 C1188 1.397 . S
C1187 C1192 1.363 . S
C1188 H1165 0.950 . S
C1188 C1187 1.397 . S
C1188 C1189 1.334 . S
C1189 H1166 0.950 . S
C1189 C1188 1.334 . S
C1189 C1190 1.287 . S
C1190 C1189 1.287 . S
C1190 C1191 1.524 . S
C1190 H1209 0.913 . S
C1191 H1167 0.950 . S
C1191 C1190 1.524 . S
C1191 C1192 1.415 . S
C1192 H1168 0.950 . S
C1192 C1187 1.363 . S
C1192 C1191 1.415 . S
C1193 H1169 0.951 . S
C1193 C1194 1.366 . S
C1193 C1195 1.388 . S
C1194 C1193 1.366 . S
C1194 C1198 1.385 1_545 S
C1195 H1170 0.951 . S
C1195 C1193 1.388 . S
C1195 C1196 1.366 1_545 S
C1196 C1195 1.366 1_565 S
C1196 C1197 1.414 . S
C1196 C1199 1.499 . S
C1197 H1171 0.950 . S
C1197 C1196 1.414 . S
C1197 C1198 1.374 . S
C1198 H1172 0.950 . S
C1198 C1194 1.385 1_565 S
C1198 C1197 1.374 . S
C1199 C1196 1.499 . S
C1199 C1200 1.373 . S
C1199 C1201 1.389 . S
C1200 H1173 0.950 . S
C1200 C1186 1.377 . S
C1200 C1199 1.373 . S
C1201 C1185 1.377 . S
C1201 C1199 1.389 . S
C1201 C1202 1.524 1_565 S
C1202 C1201 1.524 1_545 S
C1202 C1203 1.397 1_545 S
C1202 C1207 1.363 . S
C1203 H1174 0.950 . S
C1203 C1202 1.397 1_565 S
C1203 C1204 1.334 1_565 S
C1204 H1175 0.950 1_545 S
C1204 C1203 1.334 1_545 S
C1204 C1205 1.287 . S
C1205 C1204 1.287 . S
C1205 C1206 1.524 . S
C1205 H1208 0.999 . S
C1206 H1176 0.950 . S
C1206 C1205 1.524 . S
C1206 C1207 1.415 . S
C1207 H1177 0.950 . S
C1207 C1202 1.363 . S
C1207 C1206 1.415 . S
H1208 C1205 0.999 . S
H1209 C1190 0.913 . S
H1210 C1228 0.951 . S
H1211 C1230 0.951 . S
H1212 C1232 0.950 . S
H1213 C1233 0.950 . S
H1214 C1235 0.950 . S
H1215 C1238 0.950 . S
H1216 C1239 0.950 . S
H1217 C1241 0.950 . S
H1218 C1242 0.950 . S
H1219 C1243 0.951 . S
H1220 C1245 0.951 . S
H1221 C1247 0.950 . S
H1222 C1248 0.950 . S
H1223 C1250 0.950 . S
H1224 C1253 0.950 . S
H1225 C1254 0.950 . S
H1226 C1256 0.950 . S
H1227 C1257 0.950 . S
C1228 H1210 0.951 . S
C1228 C1229 1.366 . S
C1228 C1230 1.388 . S
C1229 C1228 1.366 . S
C1229 C1233 1.385 . S
C1230 H1211 0.951 . S
C1230 C1228 1.388 . S
C1230 C1231 1.366 . S
C1231 C1230 1.366 . S
C1231 C1232 1.414 . S
C1231 C1234 1.499 . S
C1232 H1212 0.950 . S
C1232 C1231 1.414 . S
C1232 C1233 1.374 . S
C1233 H1213 0.950 . S
C1233 C1229 1.385 . S
C1233 C1232 1.374 . S
C1234 C1231 1.499 . S
C1234 C1235 1.373 . S
C1234 C1236 1.389 . S
C1235 H1214 0.950 . S
C1235 C1234 1.373 . S
C1235 C1251 1.377 . S
C1236 C1234 1.389 . S
C1236 C1237 1.524 . S
C1236 C1250 1.377 . S
C1237 C1236 1.524 . S
C1237 C1238 1.397 . S
C1237 C1242 1.363 . S
C1238 H1215 0.950 . S
C1238 C1237 1.397 . S
C1238 C1239 1.334 . S
C1239 H1216 0.950 . S
C1239 C1238 1.334 . S
C1239 C1240 1.287 . S
C1240 C1239 1.287 . S
C1240 C1241 1.524 . S
C1240 H1259 0.913 . S
C1241 H1217 0.950 . S
C1241 C1240 1.524 . S
C1241 C1242 1.415 . S
C1242 H1218 0.950 . S
C1242 C1237 1.363 . S
C1242 C1241 1.415 . S
C1243 H1219 0.951 . S
C1243 C1244 1.366 . S
C1243 C1245 1.388 . S
C1244 C1243 1.366 . S
C1244 C1248 1.385 . S
C1245 H1220 0.951 . S
C1245 C1243 1.388 . S
C1245 C1246 1.366 . S
C1246 C1245 1.366 . S
C1246 C1247 1.414 . S
C1246 C1249 1.499 . S
C1247 H1221 0.950 . S
C1247 C1246 1.414 . S
C1247 C1248 1.374 . S
C1248 H1222 0.950 . S
C1248 C1244 1.385 . S
C1248 C1247 1.374 . S
C1249 C1246 1.499 . S
C1249 C1250 1.373 . S
C1249 C1251 1.389 . S
C1250 H1223 0.950 . S
C1250 C1236 1.377 . S
C1250 C1249 1.373 . S
C1251 C1235 1.377 . S
C1251 C1249 1.389 . S
C1251 C1252 1.524 . S
C1252 C1251 1.524 . S
C1252 C1253 1.397 . S
C1252 C1257 1.363 . S
C1253 H1224 0.950 . S
C1253 C1252 1.397 . S
C1253 C1254 1.334 . S
C1254 H1225 0.950 . S
C1254 C1253 1.334 . S
C1254 C1255 1.287 . S
C1255 C1254 1.287 . S
C1255 C1256 1.524 . S
C1255 H1258 0.999 1_455 S
C1256 H1226 0.950 . S
C1256 C1255 1.524 . S
C1256 C1257 1.415 . S
C1257 H1227 0.950 . S
C1257 C1252 1.363 . S
C1257 C1256 1.415 . S
H1258 C1255 0.999 1_655 S
H1259 C1240 0.913 . S
H1260 C1278 0.951 . S
H1261 C1280 0.951 . S
H1262 C1282 0.950 . S
H1263 C1283 0.950 . S
H1264 C1285 0.950 . S
H1265 C1288 0.950 . S
H1266 C1289 0.950 . S
H1267 C1291 0.950 . S
H1268 C1292 0.950 . S
H1269 C1293 0.951 1_655 S
H1270 C1295 0.951 . S
H1271 C1297 0.950 . S
H1272 C1298 0.950 . S
H1273 C1300 0.950 . S
H1274 C1303 0.950 . S
H1275 C1304 0.950 . S
H1276 C1306 0.950 1_655 S
H1277 C1307 0.950 . S
C1278 H1260 0.951 . S
C1278 C1279 1.366 . S
C1278 C1280 1.388 . S
C1279 C1278 1.366 . S
C1279 C1283 1.385 . S
C1280 H1261 0.951 . S
C1280 C1278 1.388 . S
C1280 C1281 1.366 . S
C1281 C1280 1.366 . S
C1281 C1282 1.414 . S
C1281 C1284 1.499 . S
C1282 H1262 0.950 . S
C1282 C1281 1.414 . S
C1282 C1283 1.374 . S
C1283 H1263 0.950 . S
C1283 C1279 1.385 . S
C1283 C1282 1.374 . S
C1284 C1281 1.499 . S
C1284 C1285 1.373 . S
C1284 C1286 1.389 . S
C1285 H1264 0.950 . S
C1285 C1284 1.373 . S
C1285 C1301 1.377 . S
C1286 C1284 1.389 . S
C1286 C1287 1.524 . S
C1286 C1300 1.377 . S
C1287 C1286 1.524 . S
C1287 C1288 1.397 . S
C1287 C1292 1.363 . S
C1288 H1265 0.950 . S
C1288 C1287 1.397 . S
C1288 C1289 1.334 . S
C1289 H1266 0.950 . S
C1289 C1288 1.334 . S
C1289 C1290 1.287 . S
C1290 C1289 1.287 . S
C1290 C1291 1.524 . S
C1290 H1309 0.913 . S
C1291 H1267 0.950 . S
C1291 C1290 1.524 . S
C1291 C1292 1.415 . S
C1292 H1268 0.950 . S
C1292 C1287 1.363 . S
C1292 C1291 1.415 . S
C1293 H1269 0.951 1_455 S
C1293 C1294 1.366 . S
C1293 C1295 1.388 . S
C1294 C1293 1.366 . S
C1294 C1298 1.385 . S
C1295 H1270 0.951 . S
C1295 C1293 1.388 . S
C1295 C1296 1.366 . S
C1296 C1295 1.366 . S
C1296 C1297 1.414 . S
C1296 C1299 1.499 . S
C1297 H1271 0.950 . S
C1297 C1296 1.414 . S
C1297 C1298 1.374 . S
C1298 H1272 0.950 . S
C1298 C1294 1.385 . S
C1298 C1297 1.374 . S
C1299 C1296 1.499 . S
C1299 C1300 1.373 . S
C1299 C1301 1.389 . S
C1300 H1273 0.950 . S
C1300 C1286 1.377 . S
C1300 C1299 1.373 . S
C1301 C1285 1.377 . S
C1301 C1299 1.389 . S
C1301 C1302 1.524 . S
C1302 C1301 1.524 . S
C1302 C1303 1.397 . S
C1302 C1307 1.363 . S
C1303 H1274 0.950 . S
C1303 C1302 1.397 . S
C1303 C1304 1.334 . S
C1304 H1275 0.950 . S
C1304 C1303 1.334 . S
C1304 C1305 1.287 . S
C1305 C1304 1.287 . S
C1305 C1306 1.524 . S
C1305 H1308 0.999 . S
C1306 H1276 0.950 1_455 S
C1306 C1305 1.524 . S
C1306 C1307 1.415 . S
C1307 H1277 0.950 . S
C1307 C1302 1.363 . S
C1307 C1306 1.415 . S
H1308 C1305 0.999 . S
H1309 C1290 0.913 . S
H1310 C1328 0.951 . S
H1311 C1330 0.951 . S
H1312 C1332 0.950 . S
H1313 C1333 0.950 . S
H1314 C1335 0.950 . S
H1315 C1338 0.950 . S
H1316 C1339 0.950 . S
H1317 C1341 0.950 . S
H1318 C1342 0.950 . S
H1319 C1343 0.951 . S
H1320 C1345 0.951 . S
H1321 C1347 0.950 . S
H1322 C1348 0.950 . S
H1323 C1350 0.950 . S
H1324 C1353 0.950 . S
H1325 C1354 0.950 . S
H1326 C1356 0.950 . S
H1327 C1357 0.950 . S
C1328 H1310 0.951 . S
C1328 C1329 1.366 . S
C1328 C1330 1.388 . S
C1329 C1328 1.366 . S
C1329 C1333 1.385 . S
C1330 H1311 0.951 . S
C1330 C1328 1.388 . S
C1330 C1331 1.366 . S
C1331 C1330 1.366 . S
C1331 C1332 1.414 . S
C1331 C1334 1.499 . S
C1332 H1312 0.950 . S
C1332 C1331 1.414 . S
C1332 C1333 1.374 . S
C1333 H1313 0.950 . S
C1333 C1329 1.385 . S
C1333 C1332 1.374 . S
C1334 C1331 1.499 . S
C1334 C1335 1.373 . S
C1334 C1336 1.389 . S
C1335 H1314 0.950 . S
C1335 C1334 1.373 . S
C1335 C1351 1.377 . S
C1336 C1334 1.389 . S
C1336 C1337 1.524 . S
C1336 C1350 1.377 . S
C1337 C1336 1.524 . S
C1337 C1338 1.397 . S
C1337 C1342 1.363 . S
C1338 H1315 0.950 . S
C1338 C1337 1.397 . S
C1338 C1339 1.334 . S
C1339 H1316 0.950 . S
C1339 C1338 1.334 . S
C1339 C1340 1.287 . S
C1340 C1339 1.287 . S
C1340 C1341 1.524 . S
C1340 H1359 0.913 . S
C1341 H1317 0.950 . S
C1341 C1340 1.524 . S
C1341 C1342 1.415 . S
C1342 H1318 0.950 . S
C1342 C1337 1.363 . S
C1342 C1341 1.415 . S
C1343 H1319 0.951 . S
C1343 C1344 1.366 . S
C1343 C1345 1.388 . S
C1344 C1343 1.366 . S
C1344 C1348 1.385 . S
C1345 H1320 0.951 . S
C1345 C1343 1.388 . S
C1345 C1346 1.366 . S
C1346 C1345 1.366 . S
C1346 C1347 1.414 . S
C1346 C1349 1.499 . S
C1347 H1321 0.950 . S
C1347 C1346 1.414 . S
C1347 C1348 1.374 . S
C1348 H1322 0.950 . S
C1348 C1344 1.385 . S
C1348 C1347 1.374 . S
C1349 C1346 1.499 . S
C1349 C1350 1.373 . S
C1349 C1351 1.389 . S
C1350 H1323 0.950 . S
C1350 C1336 1.377 . S
C1350 C1349 1.373 . S
C1351 C1335 1.377 . S
C1351 C1349 1.389 . S
C1351 C1352 1.524 . S
C1352 C1351 1.524 . S
C1352 C1353 1.397 . S
C1352 C1357 1.363 . S
C1353 H1324 0.950 . S
C1353 C1352 1.397 . S
C1353 C1354 1.334 . S
C1354 H1325 0.950 . S
C1354 C1353 1.334 . S
C1354 C1355 1.287 . S
C1355 C1354 1.287 . S
C1355 C1356 1.524 . S
C1355 H1358 0.999 . S
C1356 H1326 0.950 . S
C1356 C1355 1.524 . S
C1356 C1357 1.415 . S
C1357 H1327 0.950 . S
C1357 C1352 1.363 . S
C1357 C1356 1.415 . S
H1358 C1355 0.999 . S
H1359 C1340 0.913 . S
H1360 C1378 0.951 . S
H1361 C1380 0.951 . S
H1362 C1382 0.950 . S
H1363 C1383 0.950 . S
H1364 C1385 0.950 . S
H1365 C1388 0.950 . S
H1366 C1389 0.950 . S
H1367 C1391 0.950 . S
H1368 C1392 0.944 1_565 S
H1369 C1393 0.951 . S
H1370 C1395 0.951 . S
H1371 C1397 0.950 . S
H1372 C1398 0.950 . S
H1373 C1400 0.950 . S
H1374 C1403 0.950 . S
H1375 C1404 0.950 . S
H1376 C1406 0.950 . S
H1377 C1407 0.950 . S
C1378 H1360 0.951 . S
C1378 C1379 1.366 . S
C1378 C1380 1.388 . S
C1379 C1378 1.366 . S
C1379 C1383 1.385 . S
C1380 H1361 0.951 . S
C1380 C1378 1.388 . S
C1380 C1381 1.366 . S
C1381 C1380 1.366 . S
C1381 C1382 1.414 . S
C1381 C1384 1.499 . S
C1382 H1362 0.950 . S
C1382 C1381 1.414 . S
C1382 C1383 1.374 . S
C1383 H1363 0.950 . S
C1383 C1379 1.385 . S
C1383 C1382 1.374 . S
C1384 C1381 1.499 . S
C1384 C1385 1.373 . S
C1384 C1386 1.389 . S
C1385 H1364 0.950 . S
C1385 C1384 1.373 . S
C1385 C1401 1.377 . S
C1386 C1384 1.389 . S
C1386 C1387 1.524 . S
C1386 C1400 1.377 . S
C1387 C1386 1.524 . S
C1387 C1388 1.397 1_565 S
C1387 C1392 1.353 1_565 S
C1388 H1365 0.950 . S
C1388 C1387 1.397 1_545 S
C1388 C1389 1.334 . S
C1389 H1366 0.950 . S
C1389 C1388 1.334 . S
C1389 C1390 1.287 . S
C1390 C1389 1.287 . S
C1390 C1391 1.524 . S
C1390 H1409 0.913 . S
C1391 H1367 0.950 . S
C1391 C1390 1.524 . S
C1391 C1392 1.431 . S
C1392 H1368 0.944 1_545 S
C1392 C1387 1.353 1_545 S
C1392 C1391 1.431 . S
C1393 H1369 0.951 . S
C1393 C1394 1.366 . S
C1393 C1395 1.388 . S
C1394 C1393 1.366 . S
C1394 C1398 1.385 . S
C1395 H1370 0.951 . S
C1395 C1393 1.388 . S
C1395 C1396 1.366 . S
C1396 C1395 1.366 . S
C1396 C1397 1.414 . S
C1396 C1399 1.499 . S
C1397 H1371 0.950 . S
C1397 C1396 1.414 . S
C1397 C1398 1.374 . S
C1398 H1372 0.950 . S
C1398 C1394 1.385 . S
C1398 C1397 1.374 . S
C1399 C1396 1.499 . S
C1399 C1400 1.373 . S
C1399 C1401 1.389 . S
C1400 H1373 0.950 . S
C1400 C1386 1.377 . S
C1400 C1399 1.373 . S
C1401 C1385 1.377 . S
C1401 C1399 1.389 . S
C1401 C1402 1.524 . S
C1402 C1401 1.524 . S
C1402 C1403 1.397 . S
C1402 C1407 1.363 . S
C1403 H1374 0.950 . S
C1403 C1402 1.397 . S
C1403 C1404 1.334 . S
C1404 H1375 0.950 . S
C1404 C1403 1.334 . S
C1404 C1405 1.287 . S
C1405 C1404 1.287 . S
C1405 C1406 1.524 . S
C1405 H1408 0.999 . S
C1406 H1376 0.950 . S
C1406 C1405 1.524 . S
C1406 C1407 1.415 . S
C1407 H1377 0.950 . S
C1407 C1402 1.363 . S
C1407 C1406 1.415 . S
H1408 C1405 0.999 . S
H1409 C1390 0.913 . S
H1410 C1428 0.951 . S
H1411 C1430 0.951 . S
H1412 C1432 0.950 . S
H1413 C1433 0.950 1_565 S
H1414 C1435 0.950 . S
H1415 C1438 0.950 . S
H1416 C1439 0.950 . S
H1417 C1441 0.950 . S
H1418 C1442 0.950 . S
H1419 C1443 0.951 . S
H1420 C1445 0.951 . S
H1421 C1447 0.950 . S
H1422 C1448 0.950 . S
H1423 C1450 0.950 . S
H1424 C1453 0.950 . S
H1425 C1454 0.950 . S
H1426 C1456 0.950 . S
H1427 C1457 0.950 . S
C1428 H1410 0.951 . S
C1428 C1429 1.366 . S
C1428 C1430 1.388 . S
C1429 C1428 1.366 . S
C1429 C1433 1.385 . S
C1430 H1411 0.951 . S
C1430 C1428 1.388 . S
C1430 C1431 1.366 . S
C1431 C1430 1.366 . S
C1431 C1432 1.414 . S
C1431 C1434 1.499 . S
C1432 H1412 0.950 . S
C1432 C1431 1.414 . S
C1432 C1433 1.374 . S
C1433 H1413 0.950 1_545 S
C1433 C1429 1.385 . S
C1433 C1432 1.374 . S
C1434 C1431 1.499 . S
C1434 C1435 1.373 . S
C1434 C1436 1.389 . S
C1435 H1414 0.950 . S
C1435 C1434 1.373 . S
C1435 C1451 1.377 . S
C1436 C1434 1.389 . S
C1436 C1437 1.524 . S
C1436 C1450 1.377 . S
C1437 C1436 1.524 . S
C1437 C1438 1.397 . S
C1437 C1442 1.363 . S
C1438 H1415 0.950 . S
C1438 C1437 1.397 . S
C1438 C1439 1.334 . S
C1439 H1416 0.950 . S
C1439 C1438 1.334 . S
C1439 C1440 1.287 . S
C1440 C1439 1.287 . S
C1440 C1441 1.524 . S
C1440 H1459 0.913 . S
C1441 H1417 0.950 . S
C1441 C1440 1.524 . S
C1441 C1442 1.415 . S
C1442 H1418 0.950 . S
C1442 C1437 1.363 . S
C1442 C1441 1.415 . S
C1443 H1419 0.951 . S
C1443 C1444 1.366 . S
C1443 C1445 1.388 . S
C1444 C1443 1.366 . S
C1444 C1448 1.385 . S
C1445 H1420 0.951 . S
C1445 C1443 1.388 . S
C1445 C1446 1.366 . S
C1446 C1445 1.366 . S
C1446 C1447 1.414 . S
C1446 C1449 1.499 . S
C1447 H1421 0.950 . S
C1447 C1446 1.414 . S
C1447 C1448 1.374 . S
C1448 H1422 0.950 . S
C1448 C1444 1.385 . S
C1448 C1447 1.374 . S
C1449 C1446 1.499 . S
C1449 C1450 1.373 . S
C1449 C1451 1.389 . S
C1450 H1423 0.950 . S
C1450 C1436 1.377 . S
C1450 C1449 1.373 . S
C1451 C1435 1.377 . S
C1451 C1449 1.389 . S
C1451 C1452 1.524 . S
C1452 C1451 1.524 . S
C1452 C1453 1.397 . S
C1452 C1457 1.363 1_545 S
C1453 H1424 0.950 . S
C1453 C1452 1.397 . S
C1453 C1454 1.334 1_545 S
C1454 H1425 0.950 . S
C1454 C1453 1.334 1_565 S
C1454 C1455 1.287 . S
C1455 C1454 1.287 . S
C1455 C1456 1.524 . S
C1455 H1458 0.999 . S
C1456 H1426 0.950 . S
C1456 C1455 1.524 . S
C1456 C1457 1.415 . S
C1457 H1427 0.950 . S
C1457 C1452 1.363 1_565 S
C1457 C1456 1.415 . S
H1458 C1455 0.999 . S
H1459 C1440 0.913 . S
H1460 C1478 0.951 1_455 S
H1461 C1480 0.951 . S
H1462 C1482 0.950 . S
H1463 C1483 0.950 . S
H1464 C1485 0.950 . S
H1465 C1488 0.950 1_655 S
H1466 C1489 0.950 . S
H1467 C1491 0.950 . S
H1468 C1492 0.950 . S
H1469 C1493 0.951 . S
H1470 C1495 0.951 . S
H1471 C1497 0.950 . S
H1472 C1498 0.950 . S
H1473 C1500 0.950 . S
H1474 C1503 0.950 . S
H1475 C1504 0.950 . S
H1476 C1506 0.950 . S
H1477 C1507 0.950 . S
C1478 H1460 0.951 1_655 S
C1478 C1479 1.366 . S
C1478 C1480 1.388 . S
C1479 C1478 1.366 . S
C1479 C1483 1.385 . S
C1480 H1461 0.951 . S
C1480 C1478 1.388 . S
C1480 C1481 1.366 . S
C1481 C1480 1.366 . S
C1481 C1482 1.414 . S
C1481 C1484 1.499 . S
C1482 H1462 0.950 . S
C1482 C1481 1.414 . S
C1482 C1483 1.374 . S
C1483 H1463 0.950 . S
C1483 C1479 1.385 . S
C1483 C1482 1.374 . S
C1484 C1481 1.499 . S
C1484 C1485 1.373 . S
C1484 C1486 1.389 . S
C1485 H1464 0.950 . S
C1485 C1484 1.373 . S
C1485 C1501 1.377 . S
C1486 C1484 1.389 . S
C1486 C1487 1.524 . S
C1486 C1500 1.377 . S
C1487 C1486 1.524 . S
C1487 C1488 1.397 1_655 S
C1487 C1492 1.363 1_655 S
C1488 H1465 0.950 1_455 S
C1488 C1487 1.397 1_455 S
C1488 C1489 1.334 . S
C1489 H1466 0.950 . S
C1489 C1488 1.334 . S
C1489 C1490 1.287 . S
C1490 C1489 1.287 . S
C1490 C1491 1.524 . S
C1490 H1509 0.913 . S
C1491 H1467 0.950 . S
C1491 C1490 1.524 . S
C1491 C1492 1.415 . S
C1492 H1468 0.950 . S
C1492 C1487 1.363 1_455 S
C1492 C1491 1.415 . S
C1493 H1469 0.951 . S
C1493 C1494 1.366 . S
C1493 C1495 1.388 . S
C1494 C1493 1.366 . S
C1494 C1498 1.385 . S
C1495 H1470 0.951 . S
C1495 C1493 1.388 . S
C1495 C1496 1.366 . S
C1496 C1495 1.366 . S
C1496 C1497 1.414 . S
C1496 C1499 1.499 . S
C1497 H1471 0.950 . S
C1497 C1496 1.414 . S
C1497 C1498 1.374 . S
C1498 H1472 0.950 . S
C1498 C1494 1.385 . S
C1498 C1497 1.374 . S
C1499 C1496 1.499 . S
C1499 C1500 1.373 . S
C1499 C1501 1.389 . S
C1500 H1473 0.950 . S
C1500 C1486 1.377 . S
C1500 C1499 1.373 . S
C1501 C1485 1.377 . S
C1501 C1499 1.389 . S
C1501 C1502 1.524 . S
C1502 C1501 1.524 . S
C1502 C1503 1.397 . S
C1502 C1507 1.363 . S
C1503 H1474 0.950 . S
C1503 C1502 1.397 . S
C1503 C1504 1.334 . S
C1504 H1475 0.950 . S
C1504 C1503 1.334 . S
C1504 C1505 1.287 . S
C1505 C1504 1.287 . S
C1505 C1506 1.524 . S
C1505 H1508 0.999 . S
C1506 H1476 0.950 . S
C1506 C1505 1.524 . S
C1506 C1507 1.415 . S
C1507 H1477 0.950 . S
C1507 C1502 1.363 . S
C1507 C1506 1.415 . S
H1508 C1505 0.999 . S
H1509 C1490 0.913 . S
H1510 C1528 0.951 . S
H1511 C1530 0.951 . S
H1512 C1532 0.950 . S
H1513 C1533 0.950 . S
H1514 C1535 0.950 . S
H1515 C1538 0.950 . S
H1516 C1539 0.950 . S
H1517 C1541 0.950 . S
H1518 C1542 0.950 . S
H1519 C1543 0.951 . S
H1520 C1545 0.951 . S
H1521 C1547 0.950 . S
H1522 C1548 0.950 . S
H1523 C1550 0.950 . S
H1524 C1553 0.950 . S
H1525 C1554 0.950 . S
H1526 C1556 0.950 . S
H1527 C1557 0.950 . S
C1528 H1510 0.951 . S
C1528 C1529 1.366 . S
C1528 C1530 1.388 . S
C1529 C1528 1.366 . S
C1529 C1533 1.385 . S
C1530 H1511 0.951 . S
C1530 C1528 1.388 . S
C1530 C1531 1.366 . S
C1531 C1530 1.366 . S
C1531 C1532 1.414 . S
C1531 C1534 1.499 . S
C1532 H1512 0.950 . S
C1532 C1531 1.414 . S
C1532 C1533 1.374 . S
C1533 H1513 0.950 . S
C1533 C1529 1.385 . S
C1533 C1532 1.374 . S
C1534 C1531 1.499 . S
C1534 C1535 1.373 . S
C1534 C1536 1.389 . S
C1535 H1514 0.950 . S
C1535 C1534 1.373 . S
C1535 C1551 1.377 . S
C1536 C1534 1.389 . S
C1536 C1537 1.524 . S
C1536 C1550 1.377 . S
C1537 C1536 1.524 . S
C1537 C1538 1.397 . S
C1537 C1542 1.363 . S
C1538 H1515 0.950 . S
C1538 C1537 1.397 . S
C1538 C1539 1.334 . S
C1539 H1516 0.950 . S
C1539 C1538 1.334 . S
C1539 C1540 1.287 . S
C1540 C1539 1.287 . S
C1540 C1541 1.524 . S
C1540 H1559 0.913 . S
C1541 H1517 0.950 . S
C1541 C1540 1.524 . S
C1541 C1542 1.415 . S
C1542 H1518 0.950 . S
C1542 C1537 1.363 . S
C1542 C1541 1.415 . S
C1543 H1519 0.951 . S
C1543 C1544 1.366 . S
C1543 C1545 1.388 . S
C1544 C1543 1.366 . S
C1544 C1548 1.385 . S
C1545 H1520 0.951 . S
C1545 C1543 1.388 . S
C1545 C1546 1.366 . S
C1546 C1545 1.366 . S
C1546 C1547 1.414 . S
C1546 C1549 1.499 . S
C1547 H1521 0.950 . S
C1547 C1546 1.414 . S
C1547 C1548 1.374 . S
C1548 H1522 0.950 . S
C1548 C1544 1.385 . S
C1548 C1547 1.374 . S
C1549 C1546 1.499 . S
C1549 C1550 1.373 . S
C1549 C1551 1.389 . S
C1550 H1523 0.950 . S
C1550 C1536 1.377 . S
C1550 C1549 1.373 . S
C1551 C1535 1.377 . S
C1551 C1549 1.389 . S
C1551 C1552 1.524 . S
C1552 C1551 1.524 . S
C1552 C1553 1.397 . S
C1552 C1557 1.363 . S
C1553 H1524 0.950 . S
C1553 C1552 1.397 . S
C1553 C1554 1.334 . S
C1554 H1525 0.950 . S
C1554 C1553 1.334 . S
C1554 C1555 1.287 . S
C1555 C1554 1.287 . S
C1555 C1556 1.524 . S
C1555 H1558 0.999 . S
C1556 H1526 0.950 . S
C1556 C1555 1.524 . S
C1556 C1557 1.415 . S
C1557 H1527 0.950 . S
C1557 C1552 1.363 . S
C1557 C1556 1.415 . S
H1558 C1555 0.999 . S
H1559 C1540 0.913 . S
H1560 C1578 0.951 . S
H1561 C1580 0.951 . S
H1562 C1582 0.950 . S
H1563 C1583 0.950 . S
H1564 C1585 0.950 . S
H1565 C1588 0.950 . S
H1566 C1589 0.950 . S
H1567 C1591 0.950 . S
H1568 C1592 0.950 . S
H1569 C1593 0.951 . S
H1570 C1595 0.951 . S
H1571 C1597 0.950 . S
H1572 C1598 0.950 . S
H1573 C1600 0.950 . S
H1574 C1603 0.950 . S
H1575 C1604 0.950 . S
H1576 C1606 0.950 . S
H1577 C1607 0.950 . S
C1578 H1560 0.951 . S
C1578 C1579 1.366 . S
C1578 C1580 1.388 . S
C1579 C1578 1.366 . S
C1579 C1583 1.385 . S
C1580 H1561 0.951 . S
C1580 C1578 1.388 . S
C1580 C1581 1.366 . S
C1581 C1580 1.366 . S
C1581 C1582 1.414 . S
C1581 C1584 1.499 . S
C1582 H1562 0.950 . S
C1582 C1581 1.414 . S
C1582 C1583 1.374 . S
C1583 H1563 0.950 . S
C1583 C1579 1.385 . S
C1583 C1582 1.374 . S
C1584 C1581 1.499 . S
C1584 C1585 1.373 . S
C1584 C1586 1.389 . S
C1585 H1564 0.950 . S
C1585 C1584 1.373 . S
C1585 C1601 1.377 . S
C1586 C1584 1.389 . S
C1586 C1587 1.524 . S
C1586 C1600 1.377 . S
C1587 C1586 1.524 . S
C1587 C1588 1.397 . S
C1587 C1592 1.363 . S
C1588 H1565 0.950 . S
C1588 C1587 1.397 . S
C1588 C1589 1.334 . S
C1589 H1566 0.950 . S
C1589 C1588 1.334 . S
C1589 C1590 1.287 . S
C1590 C1589 1.287 . S
C1590 C1591 1.524 . S
C1590 H1609 0.913 . S
C1591 H1567 0.950 . S
C1591 C1590 1.524 . S
C1591 C1592 1.415 . S
C1592 H1568 0.950 . S
C1592 C1587 1.363 . S
C1592 C1591 1.415 . S
C1593 H1569 0.951 . S
C1593 C1594 1.366 . S
C1593 C1595 1.388 . S
C1594 C1593 1.366 . S
C1594 C1598 1.385 . S
C1595 H1570 0.951 . S
C1595 C1593 1.388 . S
C1595 C1596 1.366 . S
C1596 C1595 1.366 . S
C1596 C1597 1.414 . S
C1596 C1599 1.499 . S
C1597 H1571 0.950 . S
C1597 C1596 1.414 . S
C1597 C1598 1.374 . S
C1598 H1572 0.950 . S
C1598 C1594 1.385 . S
C1598 C1597 1.374 . S
C1599 C1596 1.499 . S
C1599 C1600 1.373 . S
C1599 C1601 1.389 . S
C1600 H1573 0.950 . S
C1600 C1586 1.377 . S
C1600 C1599 1.373 . S
C1601 C1585 1.377 . S
C1601 C1599 1.389 . S
C1601 C1602 1.524 . S
C1602 C1601 1.524 . S
C1602 C1603 1.397 . S
C1602 C1607 1.363 . S
C1603 H1574 0.950 . S
C1603 C1602 1.397 . S
C1603 C1604 1.334 . S
C1604 H1575 0.950 . S
C1604 C1603 1.334 . S
C1604 C1605 1.287 . S
C1605 C1604 1.287 . S
C1605 C1606 1.524 . S
C1605 H1608 0.999 . S
C1606 H1576 0.950 . S
C1606 C1605 1.524 . S
C1606 C1607 1.415 . S
C1607 H1577 0.950 . S
C1607 C1602 1.363 . S
C1607 C1606 1.415 . S
H1608 C1605 0.999 . S
H1609 C1590 0.913 . S
H1610 C1628 0.951 . S
H1611 C1630 0.951 . S
H1612 C1632 0.950 1_545 S
H1613 C1633 0.950 . S
H1614 C1635 0.950 . S
H1615 C1638 0.950 . S
H1616 C1639 0.950 . S
H1617 C1641 0.950 . S
H1618 C1642 0.950 . S
H1619 C1643 0.951 . S
H1620 C1645 0.951 . S
H1621 C1647 0.950 . S
H1622 C1648 0.950 . S
H1623 C1650 0.950 . S
H1624 C1653 0.950 . S
H1625 C1654 0.950 . S
H1626 C1656 0.950 . S
H1627 C1657 0.950 . S
C1628 H1610 0.951 . S
C1628 C1629 1.366 . S
C1628 C1630 1.388 . S
C1629 C1628 1.366 . S
C1629 C1633 1.385 . S
C1630 H1611 0.951 . S
C1630 C1628 1.388 . S
C1630 C1631 1.366 . S
C1631 C1630 1.366 . S
C1631 C1632 1.414 . S
C1631 C1634 1.499 . S
C1632 H1612 0.950 1_565 S
C1632 C1631 1.414 . S
C1632 C1633 1.374 . S
C1633 H1613 0.950 . S
C1633 C1629 1.385 . S
C1633 C1632 1.374 . S
C1634 C1631 1.499 . S
C1634 C1635 1.373 1_565 S
C1634 C1636 1.389 . S
C1635 H1614 0.950 . S
C1635 C1634 1.373 1_545 S
C1635 C1651 1.377 . S
C1636 C1634 1.389 . S
C1636 C1637 1.524 . S
C1636 C1650 1.377 1_565 S
C1637 C1636 1.524 . S
C1637 C1638 1.397 . S
C1637 C1642 1.363 . S
C1638 H1615 0.950 . S
C1638 C1637 1.397 . S
C1638 C1639 1.334 . S
C1639 H1616 0.950 . S
C1639 C1638 1.334 . S
C1639 C1640 1.287 . S
C1640 C1639 1.287 . S
C1640 C1641 1.524 . S
C1640 H1659 0.913 . S
C1641 H1617 0.950 . S
C1641 C1640 1.524 . S
C1641 C1642 1.415 . S
C1642 H1618 0.950 . S
C1642 C1637 1.363 . S
C1642 C1641 1.415 . S
C1643 H1619 0.951 . S
C1643 C1644 1.366 . S
C1643 C1645 1.388 . S
C1644 C1643 1.366 . S
C1644 C1648 1.385 . S
C1645 H1620 0.951 . S
C1645 C1643 1.388 . S
C1645 C1646 1.366 . S
C1646 C1645 1.366 . S
C1646 C1647 1.414 . S
C1646 C1649 1.499 . S
C1647 H1621 0.950 . S
C1647 C1646 1.414 . S
C1647 C1648 1.374 . S
C1648 H1622 0.950 . S
C1648 C1644 1.385 . S
C1648 C1647 1.374 . S
C1649 C1646 1.499 . S
C1649 C1650 1.373 . S
C1649 C1651 1.389 . S
C1650 H1623 0.950 . S
C1650 C1636 1.377 1_545 S
C1650 C1649 1.373 . S
C1651 C1635 1.377 . S
C1651 C1649 1.389 . S
C1651 C1652 1.524 . S
C1652 C1651 1.524 . S
C1652 C1653 1.397 . S
C1652 C1657 1.363 . S
C1653 H1624 0.950 . S
C1653 C1652 1.397 . S
C1653 C1654 1.334 . S
C1654 H1625 0.950 . S
C1654 C1653 1.334 . S
C1654 C1655 1.287 . S
C1655 C1654 1.287 . S
C1655 C1656 1.524 . S
C1655 H1658 0.999 . S
C1656 H1626 0.950 . S
C1656 C1655 1.524 . S
C1656 C1657 1.415 . S
C1657 H1627 0.950 . S
C1657 C1652 1.363 . S
C1657 C1656 1.415 . S
H1658 C1655 0.999 . S
H1659 C1640 0.913 . S
H1660 C1678 0.951 . S
H1661 C1680 0.951 . S
H1662 C1682 0.950 . S
H1663 C1683 0.950 . S
H1664 C1685 0.950 . S
H1665 C1688 0.950 . S
H1666 C1689 0.950 . S
H1667 C1691 0.950 . S
H1668 C1692 0.950 . S
H1669 C1693 0.951 . S
H1670 C1695 0.951 . S
H1671 C1697 0.950 . S
H1672 C1698 0.950 . S
H1673 C1700 0.950 . S
H1674 C1703 0.931 1_455 S
H1675 C1704 0.950 . S
H1676 C1706 0.950 . S
H1677 C1707 0.950 . S
C1678 H1660 0.951 . S
C1678 C1679 1.366 . S
C1678 C1680 1.388 . S
C1679 C1678 1.366 . S
C1679 C1683 1.385 . S
C1680 H1661 0.951 . S
C1680 C1678 1.388 . S
C1680 C1681 1.366 . S
C1681 C1680 1.366 . S
C1681 C1682 1.414 . S
C1681 C1684 1.499 . S
C1682 H1662 0.950 . S
C1682 C1681 1.414 . S
C1682 C1683 1.374 . S
C1683 H1663 0.950 . S
C1683 C1679 1.385 . S
C1683 C1682 1.374 . S
C1684 C1681 1.499 . S
C1684 C1685 1.373 . S
C1684 C1686 1.389 1_655 S
C1685 H1664 0.950 . S
C1685 C1684 1.373 . S
C1685 C1701 1.381 . S
C1686 C1684 1.389 1_455 S
C1686 C1687 1.524 . S
C1686 C1700 1.377 . S
C1687 C1686 1.524 . S
C1687 C1688 1.397 . S
C1687 C1692 1.363 . S
C1688 H1665 0.950 . S
C1688 C1687 1.397 . S
C1688 C1689 1.334 . S
C1689 H1666 0.950 . S
C1689 C1688 1.334 . S
C1689 C1690 1.287 . S
C1690 C1689 1.287 . S
C1690 C1691 1.524 . S
C1690 H1709 0.913 . S
C1691 H1667 0.950 . S
C1691 C1690 1.524 . S
C1691 C1692 1.415 . S
C1692 H1668 0.950 . S
C1692 C1687 1.363 . S
C1692 C1691 1.415 . S
C1693 H1669 0.951 . S
C1693 C1694 1.366 . S
C1693 C1695 1.388 . S
C1694 C1693 1.366 . S
C1694 C1698 1.385 . S
C1695 H1670 0.951 . S
C1695 C1693 1.388 . S
C1695 C1696 1.366 . S
C1696 C1695 1.366 . S
C1696 C1697 1.414 . S
C1696 C1699 1.499 . S
C1697 H1671 0.950 . S
C1697 C1696 1.414 . S
C1697 C1698 1.374 . S
C1698 H1672 0.950 . S
C1698 C1694 1.385 . S
C1698 C1697 1.374 . S
C1699 C1696 1.499 . S
C1699 C1700 1.373 . S
C1699 C1701 1.384 1_455 S
C1700 H1673 0.950 . S
C1700 C1686 1.377 . S
C1700 C1699 1.373 . S
C1701 C1685 1.381 . S
C1701 C1699 1.384 1_655 S
C1701 C1702 1.525 . S
C1702 C1701 1.525 . S
C1702 C1703 1.414 . S
C1702 C1707 1.363 . S
C1703 H1674 0.931 1_655 S
C1703 C1702 1.414 . S
C1703 C1704 1.335 . S
C1704 H1675 0.950 . S
C1704 C1703 1.335 . S
C1704 C1705 1.287 . S
C1705 C1704 1.287 . S
C1705 C1706 1.524 . S
C1705 H1708 0.999 . S
C1706 H1676 0.950 . S
C1706 C1705 1.524 . S
C1706 C1707 1.415 . S
C1707 H1677 0.950 . S
C1707 C1702 1.363 . S
C1707 C1706 1.415 . S
H1708 C1705 0.999 . S
H1709 C1690 0.913 . S
C379 C49 0.526 . S
C394 C26 0.366 . S
C429 C83 3.246 1_556 S
C444 C62 3.293 . S
C479 C106 1.022 . S
C494 C3 1.015 . S
C529 C102 3.063 . S
C544 C43 3.038 . S
C579 C89 1.998 . S
C594 C22 2.088 . S
C629 C9 0.575 . S
C644 C66 0.330 . S
C679 C146 2.841 . S
C694 C163 2.802 . S
C729 C203 0.647 . S
C744 C186 0.623 . S
C779 C226 0.886 . S
C794 C123 0.882 . S
C829 C169 0.487 . S
C844 C222 0.328 . S
C879 C209 2.066 . S
C894 C142 2.154 . S
C929 C182 2.426 . S
C944 C129 2.395 . S
C979 C289 0.522 . S
C994 C266 0.318 . S
C1029 C302 3.320 . S
C1044 C323 3.273 . S
C1079 C346 1.023 . S
C1094 C243 1.017 . S
C1129 C342 2.983 . S
C1144 C283 2.960 . S
C1179 C329 2.003 1_455 S
C1194 C262 2.094 . S
C1229 C249 0.547 . S
C1244 C306 0.305 . S
C1279 C215 2.287 . S
C1294 C2 2.559 . S
C1329 C135 1.991 . S
C1344 C55 1.965 . S
C1379 C82 2.979 . S
C1394 C175 2.729 . S
C1429 C95 2.300 . S
C1444 C242 2.564 . S
C1479 C15 1.884 . S
C1494 C295 1.859 . S
C1529 C322 2.965 . S
C1544 C42 2.969 . S
C1579 C122 2.623 . S
C1594 C335 2.349 . S
C1629 C162 2.072 . S
C1644 C255 1.894 . S
C1679 C282 2.863 . S
C1694 C202 2.857 . S
