# Generated by pormake.
# Topology ecf, (8)-cn, num edge types: 1
# Building blocks:
#     Node 0, Type 0, BuildingBlock: GIZVER_clean_sbu_0, # of connection points: 8
#     Node 1, Type 0, BuildingBlock: GIZVER_clean_sbu_0, # of connection points: 8
#     Node 2, Type 0, BuildingBlock: GIZVER_clean_sbu_0, # of connection points: 8
#     Node 3, Type 0, BuildingBlock: GIZVER_clean_sbu_0, # of connection points: 8
#     Node 4, Type 0, BuildingBlock: GIZVER_clean_sbu_0, # of connection points: 8
#     Node 5, Type 0, BuildingBlock: GIZVER_clean_sbu_0, # of connection points: 8
#     Edge 6, Type (0, 0), BuildingBlock: MIFKUJ_clean_linker_0, # of connection points: 2
#     Edge 7, Type (0, 0), BuildingBlock: MIFKUJ_clean_linker_0, # of connection points: 2
#     Edge 8, Type (0, 0), BuildingBlock: MIFKUJ_clean_linker_0, # of connection points: 2
#     Edge 9, Type (0, 0), BuildingBlock: MIFKUJ_clean_linker_0, # of connection points: 2
#     Edge 10, Type (0, 0), BuildingBlock: MIFKUJ_clean_linker_0, # of connection points: 2
#     Edge 11, Type (0, 0), BuildingBlock: MIFKUJ_clean_linker_0, # of connection points: 2
#     Edge 12, Type (0, 0), BuildingBlock: MIFKUJ_clean_linker_0, # of connection points: 2
#     Edge 13, Type (0, 0), BuildingBlock: MIFKUJ_clean_linker_0, # of connection points: 2
#     Edge 14, Type (0, 0), BuildingBlock: MIFKUJ_clean_linker_0, # of connection points: 2
#     Edge 15, Type (0, 0), BuildingBlock: MIFKUJ_clean_linker_0, # of connection points: 2
#     Edge 16, Type (0, 0), BuildingBlock: MIFKUJ_clean_linker_0, # of connection points: 2
#     Edge 17, Type (0, 0), BuildingBlock: MIFKUJ_clean_linker_0, # of connection points: 2
#     Edge 18, Type (0, 0), BuildingBlock: MIFKUJ_clean_linker_0, # of connection points: 2
#     Edge 19, Type (0, 0), BuildingBlock: MIFKUJ_clean_linker_0, # of connection points: 2
#     Edge 20, Type (0, 0), BuildingBlock: MIFKUJ_clean_linker_0, # of connection points: 2
#     Edge 21, Type (0, 0), BuildingBlock: MIFKUJ_clean_linker_0, # of connection points: 2
#     Edge 22, Type (0, 0), BuildingBlock: MIFKUJ_clean_linker_0, # of connection points: 2
#     Edge 23, Type (0, 0), BuildingBlock: MIFKUJ_clean_linker_0, # of connection points: 2
#     Edge 24, Type (0, 0), BuildingBlock: MIFKUJ_clean_linker_0, # of connection points: 2
#     Edge 25, Type (0, 0), BuildingBlock: MIFKUJ_clean_linker_0, # of connection points: 2
#     Edge 26, Type (0, 0), BuildingBlock: MIFKUJ_clean_linker_0, # of connection points: 2
#     Edge 27, Type (0, 0), BuildingBlock: MIFKUJ_clean_linker_0, # of connection points: 2
#     Edge 28, Type (0, 0), BuildingBlock: MIFKUJ_clean_linker_0, # of connection points: 2
#     Edge 29, Type (0, 0), BuildingBlock: MIFKUJ_clean_linker_0, # of connection points: 2
# Relax obj value: 0.354
# Max RMSD: 0.255
# Mean RMSD: 0.255
data_MOF--net-ecf--node1-GIZVER_clean_sbu_0--edge1-MIFKUJ_clean_linker_0
_symmetry_space_group_name_H-M    P1
_symmetry_Int_Tables_number       1
_symmetry_cell_setting            triclinic
loop_
_symmetry_equiv_pos_as_xyz
'x, y, z'
_cell_length_a     46.869336
_cell_length_b     46.723281
_cell_length_c     31.920392
_cell_angle_alpha  90.020214
_cell_angle_beta   90.395576
_cell_angle_gamma 119.76872
loop_
_atom_site_label
_atom_site_type_symbol
_atom_site_fract_x
_atom_site_fract_y
_atom_site_fract_z
_atom_type_partial_charge
Co0 Co 0.22956 0.413 0.33036 0.0
Co1 Co 0.17341 0.40096 0.33752 0.0
Co2 Co 0.16421 0.33351 0.29927 0.0
O3 O 0.18929 0.3833 0.298 0.0
H4 H 0.18922 0.39159 0.27029 0.0
O5 O 0.13989 0.2861 0.30573 0.0
Co6 Co 0.10241 0.26083 0.27399 0.0
Co7 Co 0.15626 0.26174 0.28632 0.0
H8 H 0.13601 0.2805 0.33508 0.0
O9 O 0.16481 0.43125 0.31569 0.0
O10 O 0.20929 0.43953 0.35429 0.0
O11 O 0.14582 0.37411 0.38304 0.0
O12 O 0.12997 0.32885 0.34505 0.0
O13 O 0.13256 0.33204 0.25146 0.0
O14 O 0.0647 0.23429 0.24852 0.0
O15 O 0.07905 0.23648 0.31661 0.0
O16 O 0.12302 0.28437 0.22554 0.0
O17 O 0.19568 0.33328 0.25103 0.0
O18 O 0.19003 0.28249 0.24735 0.0
O19 O 0.11848 0.23006 0.26144 0.0
O20 O 0.14748 0.22469 0.31485 0.0
C21 C 0.27253 0.45778 0.32019 0.0
C22 C 0.20871 0.35173 0.37743 0.0
C23 C 0.12666 0.34355 0.37748 0.0
C24 C 0.19255 0.45121 0.33414 0.0
C25 C 0.0575 0.22304 0.28658 0.0
C26 C 0.12178 0.31062 0.22114 0.0
C27 C 0.20278 0.31187 0.23431 0.0
C28 C 0.12242 0.21193 0.28923 0.0
O29 O 0.26779 0.44145 0.3548 0.0
O30 O 0.24974 0.44574 0.29094 0.0
O31 O 0.19461 0.33293 0.34552 0.0
O32 O 0.21525 0.38189 0.37746 0.0
Co33 Co 0.87927 0.11256 0.83129 0.0
Co34 Co 0.91947 0.16841 0.79283 0.0
Co35 Co 0.85176 0.16118 0.79011 0.0
O36 O 0.87588 0.13705 0.78589 0.0
H37 H 0.87311 0.12622 0.75916 0.0
O38 O 0.82627 0.1855 0.79235 0.0
Co39 Co 0.83339 0.22247 0.75556 0.0
Co40 Co 0.78579 0.16349 0.76419 0.0
H41 H 0.82304 0.18976 0.82105 0.0
O42 O 0.95052 0.16097 0.77068 0.0
O43 O 0.92701 0.14626 0.83494 0.0
O44 O 0.93128 0.21134 0.81338 0.0
O45 O 0.8817 0.19193 0.83964 0.0
O46 O 0.88258 0.19319 0.74607 0.0
O47 O 0.83898 0.25776 0.7266 0.0
O48 O 0.82205 0.24486 0.79314 0.0
O49 O 0.84922 0.20568 0.71035 0.0
O50 O 0.82412 0.12886 0.74116 0.0
O51 O 0.77682 0.12698 0.72674 0.0
O52 O 0.78592 0.19781 0.73508 0.0
O53 O 0.75128 0.16615 0.78628 0.0
C54 C 0.88987 0.07581 0.83741 0.0
C55 C 0.83579 0.12344 0.86919 0.0
C56 C 0.91333 0.21088 0.84303 0.0
C57 C 0.94814 0.1478 0.80726 0.0
C58 C 0.82914 0.26476 0.76116 0.0
C59 C 0.87599 0.20455 0.71292 0.0
C60 C 0.79693 0.11681 0.71992 0.0
C61 C 0.75958 0.18882 0.75796 0.0
O62 O 0.88401 0.08833 0.87037 0.0
O63 O 0.88871 0.08672 0.80018 0.0
O64 O 0.82268 0.12822 0.83593 0.0
O65 O 0.86678 0.13488 0.8697 0.0
Co66 Co 0.62609 0.83051 0.3269 0.0
Co67 Co 0.63973 0.78791 0.33464 0.0
Co68 Co 0.70494 0.8449 0.29294 0.0
O69 O 0.65515 0.81981 0.29339 0.0
H70 H 0.64596 0.81056 0.26623 0.0
O71 O 0.75196 0.86999 0.29523 0.0
Co72 Co 0.77577 0.84746 0.30232 0.0
Co73 Co 0.77051 0.87936 0.24482 0.0
H74 H 0.76013 0.88969 0.31215 0.0
O75 O 0.61036 0.74749 0.3161 0.0
O76 O 0.60076 0.78401 0.35184 0.0
O77 O 0.66891 0.7902 0.37951 0.0
O78 O 0.71199 0.816 0.3378 0.0
O79 O 0.70526 0.81509 0.24464 0.0
O80 O 0.80092 0.83005 0.31259 0.0
O81 O 0.80049 0.87293 0.34416 0.0
O82 O 0.75343 0.81861 0.25804 0.0
O83 O 0.70488 0.87666 0.24575 0.0
O84 O 0.7401 0.87399 0.20038 0.0
O85 O 0.80734 0.87664 0.25889 0.0
O86 O 0.80243 0.92163 0.24567 0.0
C87 C 0.58061 0.82804 0.31902 0.0
C88 C 0.68799 0.87133 0.37221 0.0
C89 C 0.69889 0.80022 0.37202 0.0
C90 C 0.5901 0.75461 0.33486 0.0
C91 C 0.81409 0.85481 0.33868 0.0
C92 C 0.72772 0.80774 0.2356 0.0
C93 C 0.71901 0.8828 0.2089 0.0
C94 C 0.81959 0.90854 0.25884 0.0
O95 O 0.59825 0.83987 0.35281 0.0
O96 O 0.59216 0.81797 0.28852 0.0
O97 O 0.70632 0.87567 0.34022 0.0
O98 O 0.65814 0.84763 0.37278 0.0
Co99 Co 0.94561 0.77313 0.77411 0.0
Co100 Co 0.90806 0.77562 0.82434 0.0
Co101 Co 0.87708 0.70351 0.78764 0.0
O102 O 0.89931 0.75108 0.78026 0.0
H103 H 0.88881 0.75765 0.75921 0.0
O104 O 0.85298 0.65382 0.79103 0.0
Co105 Co 0.81633 0.62324 0.75384 0.0
Co106 Co 0.87513 0.63554 0.76311 0.0
H107 H 0.84902 0.64661 0.81984 0.0
O108 O 0.90504 0.81197 0.81293 0.0
O109 O 0.95134 0.8079 0.81541 0.0
O110 O 0.88261 0.7509 0.87221 0.0
O111 O 0.84704 0.70552 0.83533 0.0
O112 O 0.84535 0.70138 0.74204 0.0
O113 O 0.78119 0.59352 0.7247 0.0
O114 O 0.79339 0.58992 0.79189 0.0
O115 O 0.83351 0.65521 0.70755 0.0
O116 O 0.91014 0.70797 0.74054 0.0
O117 O 0.91173 0.66242 0.72589 0.0
O118 O 0.84106 0.59921 0.73677 0.0
O119 O 0.87499 0.60133 0.78928 0.0
C120 C 0.97709 0.80591 0.73252 0.0
C121 C 0.93737 0.72878 0.84513 0.0
C122 C 0.85474 0.72461 0.86854 0.0
C123 C 0.93689 0.82548 0.81255 0.0
C124 C 0.7735 0.57712 0.75963 0.0
C125 C 0.83485 0.68336 0.70889 0.0
C126 C 0.92229 0.69284 0.71965 0.0
C127 C 0.85162 0.58422 0.76241 0.0
O128 O 0.9877 0.79474 0.76258 0.0
O129 O 0.94602 0.79687 0.7296 0.0
O130 O 0.90815 0.70556 0.83605 0.0
O131 O 0.95148 0.75305 0.8208 0.0
Co132 Co 0.20939 0.81269 0.33068 0.0
Co133 Co 0.25573 0.87185 0.32258 0.0
Co134 Co 0.19037 0.87365 0.2957 0.0
O135 O 0.21576 0.84944 0.29421 0.0
H136 H 0.21943 0.84543 0.26558 0.0
O137 O 0.16589 0.89726 0.29934 0.0
Co138 Co 0.16894 0.92603 0.25619 0.0
Co139 Co 0.12254 0.8706 0.28584 0.0
H140 H 0.16708 0.90635 0.32692 0.0
O141 O 0.28974 0.87154 0.29717 0.0
O142 O 0.2577 0.83791 0.34921 0.0
O143 O 0.26458 0.9079 0.3604 0.0
O144 O 0.21805 0.90696 0.34401 0.0
O145 O 0.21974 0.90596 0.24858 0.0
O146 O 0.17099 0.95465 0.21892 0.0
O147 O 0.16476 0.95413 0.28911 0.0
O148 O 0.1759 0.90082 0.21676 0.0
O149 O 0.16083 0.84194 0.24641 0.0
O150 O 0.10908 0.83023 0.25688 0.0
O151 O 0.12024 0.89966 0.24892 0.0
O152 O 0.09305 0.87935 0.31007 0.0
C153 C 0.2141 0.77063 0.32492 0.0
C154 C 0.16714 0.83178 0.37484 0.0
C155 C 0.24484 0.91867 0.36609 0.0
C156 C 0.28313 0.84814 0.32398 0.0
C157 C 0.16682 0.96756 0.25269 0.0
C158 C 0.20654 0.91104 0.21555 0.0
C159 C 0.12972 0.82622 0.23614 0.0
C160 C 0.09931 0.89776 0.27709 0.0
O161 O 0.20459 0.77775 0.35965 0.0
O162 O 0.2205 0.79022 0.29272 0.0
O163 O 0.16009 0.84263 0.34139 0.0
O164 O 0.19328 0.82924 0.37644 0.0
Co165 Co 0.26372 0.15873 0.84249 0.0
Co166 Co 0.28112 0.12202 0.80119 0.0
Co167 Co 0.33806 0.18917 0.79514 0.0
O168 O 0.29009 0.16469 0.79458 0.0
H169 H 0.28049 0.16671 0.76865 0.0
O170 O 0.38784 0.21448 0.79476 0.0
Co171 Co 0.41622 0.20415 0.75957 0.0
Co172 Co 0.40607 0.25211 0.76208 0.0
H173 H 0.39639 0.21997 0.82303 0.0
O174 O 0.24505 0.09126 0.77737 0.0
O175 O 0.25244 0.11108 0.84461 0.0
O176 O 0.31362 0.11034 0.81787 0.0
O177 O 0.34129 0.16034 0.84399 0.0
O178 O 0.33664 0.15749 0.74925 0.0
O179 O 0.44387 0.19505 0.73228 0.0
O180 O 0.45053 0.21631 0.79706 0.0
O181 O 0.38333 0.18739 0.71434 0.0
O182 O 0.33131 0.21663 0.74742 0.0
O183 O 0.37795 0.25778 0.72259 0.0
O184 O 0.44064 0.25102 0.73633 0.0
O185 O 0.44201 0.28805 0.78371 0.0
C186 C 0.21642 0.14416 0.85233 0.0
C187 C 0.31912 0.20588 0.87611 0.0
C188 C 0.33071 0.12903 0.84745 0.0
C189 C 0.23471 0.08958 0.81548 0.0
C190 C 0.46159 0.20609 0.76619 0.0
C191 C 0.35407 0.1626 0.7161 0.0
C192 C 0.34684 0.24067 0.72127 0.0
C193 C 0.45716 0.27855 0.75812 0.0
O194 O 0.23613 0.15156 0.88427 0.0
O195 O 0.22708 0.14644 0.81421 0.0
O196 O 0.33565 0.21857 0.84208 0.0
O197 O 0.30081 0.1746 0.87806 0.0
H198 H 0.17587 0.48238 0.27557 0.0
H199 H 0.18715 0.53909 0.27476 0.0
H200 H 0.24418 0.55924 0.38848 0.0
H201 H 0.23295 0.50167 0.3894 0.0
H202 H 0.19602 0.58041 0.38962 0.0
H203 H 0.28089 0.58884 0.29805 0.0
H204 H 0.30092 0.57117 0.23763 0.0
H205 H 0.24325 0.59433 0.15411 0.0
H206 H 0.22162 0.61076 0.214 0.0
H207 H 0.23486 0.74659 0.38845 0.0
H208 H 0.23917 0.69669 0.38985 0.0
H209 H 0.20627 0.67664 0.26109 0.0
H210 H 0.20402 0.72812 0.259 0.0
H211 H 0.24687 0.6566 0.27015 0.0
H212 H 0.15449 0.63706 0.3525 0.0
H213 H 0.12392 0.647 0.40783 0.0
H214 H 0.18548 0.63894 0.50187 0.0
H215 H 0.2167 0.62936 0.44703 0.0
C216 C 0.19109 0.49879 0.3004 0.0
C217 C 0.2033 0.4872 0.33277 0.0
C218 C 0.19763 0.53143 0.29973 0.0
C219 C 0.21659 0.55371 0.33143 0.0
C220 C 0.22946 0.54256 0.36358 0.0
C221 C 0.22321 0.5097 0.364 0.0
C222 C 0.22141 0.58798 0.33134 0.0
C223 C 0.20785 0.59741 0.36398 0.0
C224 C 0.2354 0.60964 0.29687 0.0
C225 C 0.24942 0.60086 0.2607 0.0
C226 C 0.27225 0.58996 0.26687 0.0
C227 C 0.28386 0.58011 0.2327 0.0
C228 C 0.27345 0.58171 0.19212 0.0
C229 C 0.25132 0.59312 0.18558 0.0
C230 C 0.23928 0.60261 0.21964 0.0
C231 C 0.22871 0.73166 0.3603 0.0
C232 C 0.21869 0.74119 0.32374 0.0
C233 C 0.23093 0.70282 0.36121 0.0
C234 C 0.22199 0.68181 0.32606 0.0
C235 C 0.21311 0.69198 0.28892 0.0
C236 C 0.21175 0.72146 0.28767 0.0
C237 C 0.2213 0.64917 0.32848 0.0
C238 C 0.23546 0.63993 0.29618 0.0
C239 C 0.20682 0.62708 0.36256 0.0
C240 C 0.18817 0.63288 0.39563 0.0
C241 C 0.16166 0.63766 0.38496 0.0
C242 C 0.1442 0.64318 0.41624 0.0
C243 C 0.15282 0.6437 0.45833 0.0
C244 C 0.17888 0.6386 0.46925 0.0
C245 C 0.19645 0.6331 0.43809 0.0
H246 H 0.13926 0.64797 0.4825 0.0
H247 H 0.28251 0.5741 0.16574 0.0
H248 H 0.4828 0.17366 0.71564 0.0
H249 H 0.53619 0.1767 0.71463 0.0
H250 H 0.56899 0.24538 0.81797 0.0
H251 H 0.51482 0.24212 0.81957 0.0
H252 H 0.61632 0.26338 0.75 0.0
H253 H 0.55181 0.17106 0.83886 0.0
H254 H 0.50311 0.11854 0.85843 0.0
H255 H 0.51672 0.07108 0.75135 0.0
H256 H 0.56525 0.12346 0.73078 0.0
H257 H 0.75656 0.23986 0.7957 0.0
H258 H 0.70954 0.24952 0.79489 0.0
H259 H 0.66051 0.17155 0.70391 0.0
H260 H 0.70753 0.16214 0.70452 0.0
H261 H 0.6224 0.1613 0.76964 0.0
H262 H 0.69029 0.25267 0.68366 0.0
H263 H 0.737 0.30539 0.66105 0.0
H264 H 0.71616 0.35645 0.75719 0.0
H265 H 0.67057 0.30378 0.78229 0.0
C266 C 0.5012 0.18941 0.73839 0.0
C267 C 0.49425 0.20757 0.76783 0.0
C268 C 0.53187 0.19111 0.7377 0.0
C269 C 0.5568 0.21121 0.76622 0.0
C270 C 0.55023 0.22971 0.79555 0.0
C271 C 0.51916 0.22766 0.79663 0.0
C272 C 0.58918 0.21193 0.76536 0.0
C273 C 0.61799 0.24131 0.75519 0.0
C274 C 0.59111 0.18286 0.77073 0.0
C275 C 0.56201 0.15127 0.78309 0.0
C276 C 0.54427 0.14949 0.8193 0.0
C277 C 0.51672 0.11974 0.83061 0.0
C278 C 0.50679 0.09151 0.8061 0.0
C279 C 0.52443 0.09297 0.77028 0.0
C280 C 0.55198 0.12268 0.75881 0.0
C281 C 0.7363 0.22573 0.7743 0.0
C282 C 0.73607 0.20076 0.74937 0.0
C283 C 0.70927 0.23112 0.77407 0.0
C284 C 0.68119 0.21127 0.74944 0.0
C285 C 0.68171 0.18727 0.72324 0.0
C286 C 0.70877 0.1821 0.72321 0.0
C287 C 0.65008 0.21286 0.754 0.0
C288 C 0.62125 0.1837 0.76486 0.0
C289 C 0.6484 0.24228 0.74913 0.0
C290 C 0.67715 0.27391 0.73545 0.0
C291 C 0.69609 0.27492 0.70082 0.0
C292 C 0.72239 0.30489 0.68745 0.0
C293 C 0.72959 0.33425 0.70771 0.0
C294 C 0.71053 0.33368 0.74148 0.0
C295 C 0.68468 0.3037 0.7556 0.0
H296 H 0.74991 0.35743 0.69726 0.0
H297 H 0.48546 0.0685 0.81491 0.0
H298 H 0.2804 0.51794 0.29551 0.0
H299 H 0.33094 0.57198 0.30037 0.0
H300 H 0.38495 0.52412 0.34029 0.0
H301 H 0.33435 0.47087 0.33829 0.0
H302 H 0.40372 0.57319 0.38634 0.0
H303 H 0.38952 0.56164 0.23575 0.0
H304 H 0.36234 0.55542 0.1672 0.0
H305 H 0.35643 0.6428 0.19098 0.0
H306 H 0.38272 0.64894 0.26017 0.0
H307 H 0.56778 0.6887 0.33308 0.0
H308 H 0.51137 0.64322 0.33265 0.0
H309 H 0.47579 0.71201 0.34341 0.0
H310 H 0.53293 0.75826 0.34444 0.0
H311 H 0.44493 0.65799 0.27504 0.0
H312 H 0.466 0.67204 0.42339 0.0
H313 H 0.49845 0.67925 0.48763 0.0
H314 H 0.49422 0.58665 0.46474 0.0
H315 H 0.46216 0.57911 0.39999 0.0
C316 C 0.30325 0.51902 0.30448 0.0
C317 C 0.30348 0.49004 0.31595 0.0
C318 C 0.33225 0.54998 0.30718 0.0
C319 C 0.36233 0.55259 0.32015 0.0
C320 C 0.3624 0.52331 0.3304 0.0
C321 C 0.33342 0.49267 0.32885 0.0
C322 C 0.39351 0.58542 0.32495 0.0
C323 C 0.41256 0.59153 0.36172 0.0
C324 C 0.4052 0.61036 0.29379 0.0
C325 C 0.38795 0.60568 0.25316 0.0
C326 C 0.38207 0.57929 0.22654 0.0
C327 C 0.36686 0.5758 0.18756 0.0
C328 C 0.35776 0.59876 0.17468 0.0
C329 C 0.36362 0.62511 0.2009 0.0
C330 C 0.37856 0.62854 0.24004 0.0
C331 C 0.54811 0.69441 0.3356 0.0
C332 C 0.55515 0.72741 0.33866 0.0
C333 C 0.51571 0.6682 0.33533 0.0
C334 C 0.48914 0.67399 0.33761 0.0
C335 C 0.49583 0.70684 0.34115 0.0
C336 C 0.52855 0.73329 0.34213 0.0
C337 C 0.45475 0.64527 0.33603 0.0
C338 C 0.43541 0.63988 0.29991 0.0
C339 C 0.44283 0.62083 0.36754 0.0
C340 C 0.46186 0.62513 0.40667 0.0
C341 C 0.4722 0.65333 0.43187 0.0
C342 C 0.49048 0.65746 0.46842 0.0
C343 C 0.49844 0.63345 0.48023 0.0
C344 C 0.48805 0.60523 0.45556 0.0
C345 C 0.46978 0.601 0.41896 0.0
H346 H 0.5126 0.63669 0.50852 0.0
H347 H 0.3461 0.59607 0.14444 0.0
H348 H 0.83817 0.30619 0.82778 0.0
H349 H 0.83518 0.3572 0.8269 0.0
H350 H 0.80556 0.34007 0.6968 0.0
H351 H 0.81064 0.29052 0.6971 0.0
H352 H 0.84672 0.40021 0.70361 0.0
H353 H 0.75604 0.3273 0.78879 0.0
H354 H 0.72524 0.29197 0.84788 0.0
H355 H 0.77664 0.37316 0.93298 0.0
H356 H 0.80774 0.40922 0.87442 0.0
H357 H 0.81989 0.53897 0.69752 0.0
H358 H 0.8072 0.48102 0.69514 0.0
H359 H 0.84313 0.48974 0.82188 0.0
H360 H 0.85532 0.54661 0.82452 0.0
H361 H 0.79198 0.43109 0.81245 0.0
H362 H 0.89119 0.49796 0.73353 0.0
H363 H 0.92346 0.53604 0.67692 0.0
H364 H 0.85876 0.46657 0.58498 0.0
H365 H 0.82586 0.42824 0.64115 0.0
C366 C 0.83087 0.31329 0.79912 0.0
C367 C 0.82483 0.29435 0.76248 0.0
C368 C 0.82898 0.34247 0.7986 0.0
C369 C 0.81976 0.35276 0.76183 0.0
C370 C 0.81296 0.3332 0.72558 0.0
C371 C 0.81575 0.30467 0.72581 0.0
C372 C 0.81828 0.38429 0.76029 0.0
C373 C 0.83417 0.40647 0.72722 0.0
C374 C 0.80255 0.39333 0.79136 0.0
C375 C 0.78417 0.37122 0.82681 0.0
C376 C 0.76075 0.33782 0.81994 0.0
C377 C 0.74326 0.31757 0.85344 0.0
C378 C 0.74895 0.3303 0.89412 0.0
C379 C 0.77218 0.36333 0.90141 0.0
C380 C 0.78968 0.38373 0.86801 0.0
C381 C 0.82456 0.5283 0.72502 0.0
C382 C 0.83911 0.5478 0.76096 0.0
C383 C 0.81747 0.49516 0.72361 0.0
C384 C 0.82462 0.48079 0.75819 0.0
C385 C 0.83738 0.49986 0.79467 0.0
C386 C 0.84456 0.5327 0.796 0.0
C387 C 0.82094 0.44688 0.75649 0.0
C388 C 0.8041 0.42433 0.78881 0.0
C389 C 0.83608 0.43753 0.72523 0.0
C390 C 0.85588 0.46044 0.69149 0.0
C391 C 0.88373 0.49092 0.70124 0.0
C392 C 0.90215 0.51253 0.66925 0.0
C393 C 0.8931 0.50377 0.62738 0.0
C394 C 0.86569 0.47334 0.61742 0.0
C395 C 0.84715 0.45167 0.64931 0.0
H396 H 0.90739 0.52054 0.60266 0.0
H397 H 0.73539 0.31455 0.92001 0.0
H398 H 0.30673 0.82952 0.39263 0.0
H399 H 0.35346 0.81912 0.39316 0.0
H400 H 0.35903 0.82764 0.2586 0.0
H401 H 0.31296 0.83807 0.25805 0.0
H402 H 0.37225 0.77992 0.28412 0.0
H403 H 0.40765 0.89323 0.31993 0.0
H404 H 0.40752 0.93759 0.36168 0.0
H405 H 0.4341 0.90321 0.4719 0.0
H406 H 0.43393 0.85834 0.43086 0.0
H407 H 0.54018 0.82015 0.25052 0.0
H408 H 0.48653 0.81779 0.25127 0.0
H409 H 0.4913 0.82458 0.3862 0.0
H410 H 0.54484 0.82834 0.38539 0.0
H411 H 0.47114 0.8624 0.36175 0.0
H412 H 0.43868 0.75032 0.32554 0.0
H413 H 0.43899 0.70622 0.28361 0.0
H414 H 0.4067 0.73695 0.1752 0.0
H415 H 0.40656 0.7816 0.21636 0.0
C416 C 0.31743 0.82832 0.36319 0.0
C417 C 0.30625 0.83486 0.32535 0.0
C418 C 0.34434 0.82265 0.36346 0.0
C419 C 0.36029 0.82307 0.32588 0.0
C420 C 0.34746 0.82726 0.28802 0.0
C421 C 0.32105 0.83331 0.2878 0.0
C422 C 0.39174 0.82186 0.32562 0.0
C423 C 0.39391 0.79802 0.30102 0.0
C424 C 0.42013 0.84519 0.34781 0.0
C425 C 0.4204 0.87222 0.37245 0.0
C426 C 0.41321 0.89499 0.35314 0.0
C427 C 0.41323 0.92024 0.37666 0.0
C428 C 0.4207 0.92316 0.41945 0.0
C429 C 0.42825 0.90088 0.43878 0.0
C430 C 0.42821 0.87554 0.4154 0.0
C431 C 0.52967 0.82105 0.28027 0.0
C432 C 0.54714 0.82475 0.3178 0.0
C433 C 0.4988 0.81948 0.28078 0.0
C434 C 0.48431 0.82077 0.31892 0.0
C435 C 0.50164 0.8238 0.35626 0.0
C436 C 0.53248 0.82591 0.3557 0.0
C437 C 0.45182 0.82011 0.32061 0.0
C438 C 0.44948 0.84389 0.34525 0.0
C439 C 0.42329 0.79659 0.29858 0.0
C440 C 0.42298 0.76954 0.27392 0.0
C441 C 0.43185 0.74783 0.29269 0.0
C442 C 0.432 0.72273 0.26905 0.0
C443 C 0.42308 0.71889 0.22671 0.0
C444 C 0.41373 0.74002 0.20797 0.0
C445 C 0.41358 0.76522 0.23144 0.0
H446 H 0.42334 0.69951 0.20845 0.0
H447 H 0.42071 0.94273 0.43761 0.0
H448 H 0.50505 0.29174 0.81562 0.0
H449 H 0.56169 0.33771 0.81581 0.0
H450 H 0.54623 0.36561 0.69256 0.0
H451 H 0.48993 0.31839 0.69172 0.0
H452 H 0.6076 0.3794 0.69835 0.0
H453 H 0.53853 0.4018 0.7891 0.0
H454 H 0.5006 0.39037 0.84803 0.0
H455 H 0.57272 0.39258 0.93368 0.0
H456 H 0.61094 0.40364 0.87517 0.0
H457 H 0.72539 0.54883 0.69976 0.0
H458 H 0.67549 0.49532 0.70016 0.0
H459 H 0.70104 0.47561 0.82256 0.0
H460 H 0.75129 0.53003 0.82268 0.0
H461 H 0.63722 0.45547 0.81985 0.0
H462 H 0.70777 0.43659 0.73134 0.0
H463 H 0.74634 0.44778 0.67333 0.0
H464 H 0.67288 0.43865 0.58475 0.0
H465 H 0.63392 0.42767 0.64228 0.0
C466 C 0.51416 0.307 0.78796 0.0
C467 C 0.4932 0.301 0.75333 0.0
C468 C 0.54647 0.33374 0.78834 0.0
C469 C 0.55838 0.35612 0.75473 0.0
C470 C 0.53793 0.34907 0.7191 0.0
C471 C 0.50572 0.32185 0.71843 0.0
C472 C 0.59116 0.38762 0.75761 0.0
C473 C 0.61382 0.39611 0.72478 0.0
C474 C 0.60023 0.40942 0.79254 0.0
C475 C 0.57745 0.40326 0.82774 0.0
C476 C 0.54623 0.39971 0.82049 0.0
C477 C 0.52469 0.3933 0.8538 0.0
C478 C 0.53422 0.39068 0.89455 0.0
C479 C 0.56536 0.39458 0.9021 0.0
C480 C 0.58698 0.40095 0.86889 0.0
C481 C 0.72064 0.53323 0.7269 0.0
C482 C 0.74272 0.54403 0.7612 0.0
C483 C 0.69195 0.5023 0.72692 0.0
C484 C 0.68438 0.48071 0.761 0.0
C485 C 0.70614 0.49151 0.79568 0.0
C486 C 0.73497 0.52273 0.79575 0.0
C487 C 0.65346 0.44742 0.76038 0.0
C488 C 0.63113 0.43864 0.79357 0.0
C489 C 0.64478 0.4253 0.72591 0.0
C490 C 0.668 0.43154 0.69116 0.0
C491 C 0.69989 0.43714 0.69951 0.0
C492 C 0.72182 0.44342 0.66671 0.0
C493 C 0.7121 0.44402 0.62539 0.0
C494 C 0.68038 0.4382 0.61677 0.0
C495 C 0.65833 0.43187 0.64946 0.0
H496 H 0.72913 0.44894 0.60004 0.0
H497 H 0.51749 0.38569 0.9203 0.0
H498 H 0.07415 0.17497 0.2321 0.0
H499 H 0.04755 0.11529 0.22372 0.0
H500 H 0.09601 0.11032 0.33695 0.0
H501 H 0.11964 0.16852 0.34722 0.0
H502 H 0.09172 0.10265 0.20406 0.0
H503 H 0.08083 0.05916 0.37602 0.0
H504 H 0.04 0.03599 0.43267 0.0
H505 H 0.96199 0.99666 0.34153 0.0
H506 H 1.00203 0.02222 0.2847 0.0
H507 H 0.17924 0.01627 0.30847 0.0
H508 H 0.15353 0.0509 0.30822 0.0
H509 H 0.10614 1.00788 0.19005 0.0
H510 H 0.13244 0.97418 0.18956 0.0
H511 H 0.08737 0.02355 0.31026 0.0
H512 H 0.09099 0.06521 0.13801 0.0
H513 H 0.12769 0.08215 0.07685 0.0
H514 H 0.21109 0.11151 0.15804 0.0
H515 H 0.17511 0.09534 0.21969 0.0
C516 C 0.07753 0.16071 0.25635 0.0
C517 C 0.09992 0.17629 0.28946 0.0
C518 C 0.06203 0.12656 0.25174 0.0
C519 C 0.07011 0.10813 0.27913 0.0
C520 C 0.0888 0.12343 0.31534 0.0
C521 C 0.10328 0.1572 0.32067 0.0
C522 C 0.0713 0.07913 0.26338 0.0
C523 C 0.08909 0.08389 0.22618 0.0
C524 C 0.06824 0.05472 0.29174 0.0
C525 C 0.04434 0.04331 0.32628 0.0
C526 C 0.05487 0.04648 0.36823 0.0
C527 C 0.03184 0.03317 0.40037 0.0
C528 C 0.99831 0.01557 0.39074 0.0
C529 C 0.98781 1.01143 0.34902 0.0
C530 C 1.01061 0.02585 0.31691 0.0
C531 C 0.16427 1.01523 0.28186 0.0
C532 C 0.15802 0.99316 0.2488 0.0
C533 C 0.14952 0.0347 0.28183 0.0
C534 C 0.12824 0.03187 0.24897 0.0
C535 C 0.12307 1.01078 0.21516 0.0
C536 C 0.13817 0.99171 0.21488 0.0
C537 C 0.10872 0.04827 0.25227 0.0
C538 C 0.08834 0.04091 0.28713 0.0
C539 C 0.10827 0.06897 0.22046 0.0
C540 C 0.13018 0.07844 0.18348 0.0
C541 C 0.11714 0.07519 0.14283 0.0
C542 C 0.13783 0.08474 0.10806 0.0
C543 C 0.17164 0.09776 0.11354 0.0
C544 C 0.18487 0.10134 0.15382 0.0
C545 C 0.16432 0.09187 0.18869 0.0
H546 H 0.18759 0.10507 0.08658 0.0
H547 H 0.98046 1.0047 0.41553 0.0
H548 H 0.98552 0.1522 0.87474 0.0
H549 H 1.01766 0.12438 0.88365 0.0
H550 H 0.97748 0.07171 0.76711 0.0
H551 H 0.94889 0.10261 0.7561 0.0
H552 H 1.01201 0.06999 0.89429 0.0
H553 H 0.03044 0.05254 0.71924 0.0
H554 H 0.02986 0.07537 0.64975 0.0
H555 H 0.05453 0.1682 0.70679 0.0
H556 H 0.05531 0.14574 0.77649 0.0
H557 H 0.17664 0.08891 0.896 0.0
H558 H 0.11639 0.0568 0.88895 0.0
H559 H 0.11871 0.13669 0.81767 0.0
H560 H 0.17831 0.16668 0.8214 0.0
H561 H 0.08457 0.07977 0.77676 0.0
H562 H 0.08875 0.11441 0.93727 0.0
H563 H 0.09951 0.10332 1.00975 0.0
H564 H 0.04793 0.99925 0.98397 0.0
H565 H 0.03722 1.0099 0.91135 0.0
C566 C 0.98405 0.13489 0.85105 0.0
C567 C 0.96572 0.12992 0.8144 0.0
C568 C 1.00195 0.11864 0.85627 0.0
C569 C 1.00059 0.09631 0.82558 0.0
C570 C 0.98008 0.08967 0.79045 0.0
C571 C 0.96371 0.10724 0.78418 0.0
C572 C 0.02299 0.08267 0.8289 0.0
C573 C 0.02784 0.07233 0.86838 0.0
C574 C 0.04255 0.08336 0.79473 0.0
C575 C 0.04181 0.09704 0.75307 0.0
C576 C 0.03531 0.07762 0.71689 0.0
C577 C 0.03512 0.09057 0.67749 0.0
C578 C 0.04184 0.12314 0.67389 0.0
C579 C 0.04904 0.14288 0.70965 0.0
C580 C 0.04931 0.13003 0.7491 0.0
C581 C 0.16382 0.09953 0.87959 0.0
C582 C 0.18142 0.1298 0.85873 0.0
C583 C 0.12964 0.08116 0.87533 0.0
C584 C 0.1132 0.09383 0.8516 0.0
C585 C 0.131 0.12576 0.83467 0.0
C586 C 0.16491 0.14323 0.83734 0.0
C587 C 0.07758 0.07516 0.84334 0.0
C588 C 0.06788 0.07648 0.80212 0.0
C589 C 0.05541 0.06904 0.87608 0.0
C590 C 0.06229 0.06291 0.91923 0.0
C591 C 0.0798 0.08922 0.94722 0.0
C592 C 0.08592 0.08302 0.98821 0.0
C593 C 0.07438 0.05059 1.00145 0.0
C594 C 0.05687 0.02434 0.97367 0.0
C595 C 0.05084 0.03043 0.93262 0.0
H596 H 0.07892 0.04576 1.03324 0.0
H597 H 0.04169 0.13314 0.64336 0.0
H598 H 0.02807 0.19953 0.36169 0.0
H599 H 0.98486 0.1433 0.37585 0.0
H600 H 0.97947 0.11977 0.24437 0.0
H601 H 1.02012 0.17627 0.22957 0.0
H602 H 0.92465 0.09003 0.26755 0.0
H603 H 0.02455 0.10283 0.3427 0.0
H604 H 0.0677 0.12574 0.39805 0.0
H605 H 0.99372 0.09861 0.49189 0.0
H606 H 0.95043 0.07572 0.43732 0.0
H607 H 0.88457 0.93364 0.24255 0.0
H608 H 0.92747 0.98571 0.27288 0.0
H609 H 0.85894 0.98307 0.3643 0.0
H610 H 0.81594 0.9329 0.33266 0.0
H611 H 0.93917 0.02509 0.38009 0.0
H612 H 0.84269 0.01676 0.30309 0.0
H613 H 0.7989 0.98967 0.24955 0.0
H614 H 0.87122 1.005 0.15706 0.0
H615 H 0.91536 0.03217 0.21021 0.0
C616 C 1.01683 0.18247 0.33577 0.0
C617 C 0.02742 0.19203 0.29456 0.0
C618 C 0.99251 0.15027 0.34404 0.0
C619 C 0.9792 0.12698 0.31168 0.0
C620 C 0.98896 0.13714 0.27022 0.0
C621 C 1.01226 0.16956 0.26165 0.0
C622 C 0.95513 0.092 0.32002 0.0
C623 C 0.9288 0.07607 0.29161 0.0
C624 C 0.95836 0.0736 0.35347 0.0
C625 C 0.98448 0.08803 0.38594 0.0
C626 C 1.01771 0.10204 0.37512 0.0
C627 C 0.04209 0.11493 0.40628 0.0
C628 C 0.03345 0.11374 0.44829 0.0
C629 C 1.00041 0.09958 0.45932 0.0
C630 C 0.97596 0.08664 0.42832 0.0
C631 C 0.87938 0.94325 0.27061 0.0
C632 C 0.84736 0.92946 0.28563 0.0
C633 C 0.90381 0.9727 0.28812 0.0
C634 C 0.89594 0.98786 0.3206 0.0
C635 C 0.86533 0.97132 0.33968 0.0
C636 C 0.84081 0.94265 0.32145 0.0
C637 C 0.91383 0.02371 0.3233 0.0
C638 C 0.93682 0.03957 0.35517 0.0
C639 C 0.90845 0.04213 0.29256 0.0
C640 C 0.88215 0.0263 0.26048 0.0
C641 C 0.84916 1.01431 0.2713 0.0
C642 C 0.82432 0.999 0.24106 0.0
C643 C 0.83227 0.99561 0.19992 0.0
C644 C 0.86509 1.00765 0.18892 0.0
C645 C 0.89003 0.02307 0.21904 0.0
H646 H 0.81301 0.98364 0.17659 0.0
H647 H 0.05236 0.1237 0.47232 0.0
H648 H 0.88424 0.02869 0.78269 0.0
H649 H 0.91263 0.99681 0.78703 0.0
H650 H 0.95383 0.04147 0.9071 0.0
H651 H 0.92515 0.07284 0.90303 0.0
H652 H 0.9758 0.02045 0.7863 0.0
H653 H 0.97933 0.99687 0.95919 0.0
H654 H 0.9481 0.98906 1.02424 0.0
H655 H 0.85779 0.9451 0.95371 0.0
H656 H 0.88858 0.95302 0.88819 0.0
H657 H 0.98712 0.86544 0.86489 0.0
H658 H 1.00864 0.92488 0.87453 0.0
H659 H 0.94924 0.92357 0.76954 0.0
H660 H 0.92879 0.86526 0.75972 0.0
H661 H 0.96588 0.94242 0.89782 0.0
H662 H 0.96729 0.98274 0.72499 0.0
H663 H 0.99582 0.98405 0.65981 0.0
H664 H 0.07701 0.99131 0.73148 0.0
H665 H 0.04913 0.99018 0.797 0.0
C666 C 0.89881 0.03106 0.81033 0.0
C667 C 0.90239 0.05289 0.84264 0.0
C668 C 0.91516 1.01308 0.81274 0.0
C669 C 0.93562 0.017 0.84722 0.0
C670 C 0.93806 0.03781 0.88035 0.0
C671 C 0.92152 0.05561 0.87806 0.0
C672 C 0.95551 1.00049 0.84685 0.0
C673 C 0.97401 1.00372 0.81096 0.0
C674 C 0.955 0.98024 0.88005 0.0
C675 C 0.93625 0.97584 0.91892 0.0
C676 C 0.95282 0.98565 0.95762 0.0
C677 C 0.93522 0.98129 0.99451 0.0
C678 C 0.901 0.96681 0.99304 0.0
C679 C 0.88432 0.95662 0.9547 0.0
C680 C 0.90183 0.96114 0.91769 0.0
C681 C 0.9802 0.8785 0.84273 0.0
C682 C 0.95639 0.86128 0.81167 0.0
C683 C 0.99241 0.9123 0.84827 0.0
C684 C 0.9809 0.92885 0.82255 0.0
C685 C 0.95939 0.91183 0.78909 0.0
C686 C 0.94721 0.87832 0.78378 0.0
C687 C 0.98365 0.96039 0.83571 0.0
C688 C 0.96956 0.96066 0.87427 0.0
C689 C 0.98873 0.98434 0.80539 0.0
C690 C 1.00622 0.9866 0.76591 0.0
C691 C 0.9914 0.98497 0.72683 0.0
C692 C 1.00739 0.98549 0.6898 0.0
C693 C 0.03824 0.98777 0.69145 0.0
C694 C 0.05318 0.98957 0.73015 0.0
C695 C 0.03726 0.98892 0.76726 0.0
H696 H 0.05045 0.98802 0.66272 0.0
H697 H 0.88739 0.96335 1.02164 0.0
H698 H 0.85404 0.83091 0.3172 0.0
H699 H 0.91349 0.86277 0.31603 0.0
H700 H 0.91198 0.94013 0.38792 0.0
H701 H 0.85168 0.90785 0.39003 0.0
H702 H 0.93793 0.93419 0.27932 0.0
H703 H 1.00322 0.96581 0.43663 0.0
H704 H 0.99376 0.94744 0.51015 0.0
H705 H 0.92994 0.84768 0.46969 0.0
H706 H 0.93944 0.86553 0.39601 0.0
H707 H 0.11247 0.95036 0.3245 0.0
H708 H 0.07634 0.97283 0.33539 0.0
H709 H 1.01102 0.90761 0.23904 0.0
H710 H 0.04918 0.88774 0.22566 0.0
H711 H 0.0264 0.93899 0.36953 0.0
H712 H 0.94512 0.91424 0.21537 0.0
H713 H 0.95313 0.92904 0.14083 0.0
H714 H 0.05008 1.00893 0.16766 0.0
H715 H 0.04229 0.9948 0.24237 0.0
C716 C 0.86614 0.85408 0.33418 0.0
C717 C 0.84817 0.86734 0.35264 0.0
C718 C 0.90013 0.87234 0.33323 0.0
C719 C 0.91666 0.90386 0.35114 0.0
C720 C 0.89931 0.91578 0.37385 0.0
C721 C 0.865 0.8973 0.37501 0.0
C722 C 0.9512 0.92501 0.34018 0.0
C723 C 0.9578 0.93585 0.29864 0.0
C724 C 0.97672 0.92836 0.36666 0.0
C725 C 0.97096 0.91726 0.41085 0.0
C726 C 0.98682 0.94007 0.44344 0.0
C727 C 0.98164 0.92971 0.48516 0.0
C728 C 0.96093 0.89647 0.49463 0.0
C729 C 0.94563 0.87349 0.46237 0.0
C730 C 0.95079 0.88376 0.42062 0.0
C731 C 0.09154 0.94266 0.30371 0.0
C732 C 0.08362 0.91784 0.27383 0.0
C733 C 0.07074 0.95545 0.30998 0.0
C734 C 0.04074 0.94226 0.28808 0.0
C735 C 0.0343 0.91926 0.25566 0.0
C736 C 0.05593 0.90747 0.2482 0.0
C737 C 1.01322 0.94522 0.30616 0.0
C738 C 1.00777 0.93933 0.34957 0.0
C739 C 0.98844 0.94555 0.2807 0.0
C740 C 0.9931 0.95389 0.23516 0.0
C741 C 0.96802 0.93533 0.20572 0.0
C742 C 0.97251 0.94345 0.16319 0.0
C743 C 1.00203 0.97002 0.14947 0.0
C744 C 0.02713 0.98844 0.17825 0.0
C745 C 0.02267 0.9804 0.22074 0.0
H746 H 1.00549 0.97625 0.11654 0.0
H747 H 0.95697 0.88848 0.52694 0.0
H748 H 0.22294 0.03232 0.84901 0.0
H749 H 0.17884 0.98038 0.82142 0.0
H750 H 0.13043 0.03118 0.77113 0.0
H751 H 0.17623 0.08333 0.79491 0.0
H752 H 0.11914 0.93997 0.81682 0.0
H753 H 0.10882 1.00695 0.66346 0.0
H754 H 0.14292 0.05932 0.62687 0.0
H755 H 0.22883 0.07074 0.69078 0.0
H756 H 0.19554 0.01826 0.72704 0.0
H757 H 0.97879 0.8629 0.71259 0.0
H758 H 0.0302 0.91458 0.70501 0.0
H759 H 0.08189 0.86086 0.68623 0.0
H760 H 0.03064 0.80901 0.69601 0.0
H761 H 0.10161 0.95132 0.66541 0.0
H762 H 0.11382 0.86851 0.75754 0.0
H763 H 0.08953 0.81598 0.79633 0.0
H764 H 1.01919 0.83792 0.85142 0.0
H765 H 0.04269 0.89012 0.81204 0.0
C766 C 0.20187 0.03201 0.83428 0.0
C767 C 0.2027 0.06156 0.82424 0.0
C768 C 0.17687 1.0024 0.81798 0.0
C769 C 0.15225 1.00233 0.79256 0.0
C770 C 0.14992 0.03101 0.78939 0.0
C771 C 0.17559 0.06073 0.80417 0.0
C772 C 0.132 0.97376 0.76522 0.0
C773 C 0.11591 0.94263 0.78361 0.0
C774 C 0.12885 0.97696 0.7213 0.0
C775 C 0.14933 1.0086 0.69872 0.0
C776 C 0.13495 0.02049 0.66975 0.0
C777 C 0.15423 0.05028 0.6489 0.0
C778 C 0.18805 0.06843 0.65651 0.0
C779 C 0.20266 0.05674 0.68485 0.0
C780 C 0.18353 0.02695 0.70562 0.0
C781 C 1.00074 0.86205 0.70431 0.0
C782 C 1.00136 0.83243 0.70648 0.0
C783 C 0.03014 0.89163 0.69966 0.0
C784 C 0.05984 0.89131 0.69672 0.0
C785 C 0.05917 0.86141 0.68939 0.0
C786 C 0.02994 0.83185 0.69514 0.0
C787 C 0.08869 0.91834 0.71762 0.0
C788 C 0.10602 0.94914 0.69833 0.0
C789 C 0.0951 0.91486 0.76009 0.0
C790 C 0.07952 0.88271 0.78154 0.0
C791 C 0.09286 0.86178 0.77755 0.0
C792 C 0.07928 0.83212 0.7996 0.0
C793 C 0.05273 0.82348 0.82623 0.0
C794 C 0.03956 0.84442 0.83059 0.0
C795 C 0.05285 0.87394 0.80825 0.0
H796 H 0.04254 0.80066 0.84356 0.0
H797 H 0.20295 0.09149 0.64041 0.0
H798 H 0.25797 0.30673 0.22907 0.0
H799 H 0.28029 0.29487 0.16691 0.0
H800 H 0.21567 0.31306 0.08888 0.0
H801 H 0.19269 0.32428 0.15197 0.0
H802 H 0.2135 0.26027 0.05944 0.0
H803 H 0.30625 0.36481 0.09277 0.0
H804 H 0.34991 0.40774 0.13695 0.0
H805 H 0.38938 0.34377 0.16139 0.0
H806 H 0.3457 0.30028 0.11778 0.0
H807 H 0.29386 0.24834 0.87008 0.0
H808 H 0.27697 0.27196 0.92753 0.0
H809 H 0.31532 0.23101 1.0177 0.0
H810 H 0.33091 0.20633 0.9605 0.0
H811 H 0.33163 0.29857 1.03726 0.0
H812 H 0.2377 0.19378 1.0054 0.0
H813 H 0.19401 0.15095 0.96115 0.0
H814 H 0.15734 0.21664 0.93249 0.0
H815 H 0.20116 0.2601 0.97608 0.0
C816 C 0.24954 0.30988 0.19864 0.0
C817 C 0.22431 0.31807 0.19622 0.0
C818 C 0.26224 0.30265 0.16257 0.0
C819 C 0.25038 0.30318 0.12193 0.0
C820 C 0.22582 0.31241 0.11921 0.0
C821 C 0.21306 0.31969 0.15556 0.0
C822 C 0.26237 0.29244 0.08333 0.0
C823 C 0.23945 0.26935 0.05443 0.0
C824 C 0.2962 0.30311 0.07605 0.0
C825 C 0.32252 0.32918 0.10229 0.0
C826 C 0.3241 0.35981 0.1078 0.0
C827 C 0.34888 0.38426 0.13271 0.0
C828 C 0.37235 0.37846 0.15205 0.0
C829 C 0.37115 0.34822 0.14643 0.0
C830 C 0.34642 0.32367 0.12158 0.0
C831 C 0.29948 0.24504 0.90208 0.0
C832 C 0.31478 0.22608 0.91021 0.0
C833 C 0.28938 0.2583 0.9352 0.0
C834 C 0.2947 0.25358 0.9777 0.0
C835 C 0.31089 0.23547 0.98566 0.0
C836 C 0.32011 0.22147 0.95268 0.0
C837 C 0.28281 0.2666 1.01373 0.0
C838 C 0.30574 0.2899 1.04216 0.0
C839 C 0.24907 0.25626 1.02039 0.0
C840 C 0.22301 0.23038 0.9936 0.0
C841 C 0.22059 0.19927 0.98924 0.0
C842 C 0.19574 0.17483 0.96439 0.0
C843 C 0.17297 0.1811 0.94396 0.0
C844 C 0.17504 0.21184 0.94829 0.0
C845 C 0.19988 0.23639 0.97308 0.0
H846 H 0.15363 0.16209 0.92494 0.0
H847 H 0.39151 0.39741 0.17131 0.0
H848 H 0.94167 0.22121 0.71393 0.0
H849 H 0.9825 0.24495 0.65799 0.0
H850 H 0.9089 0.24326 0.57496 0.0
H851 H 0.86805 0.22005 0.63108 0.0
H852 H 0.94508 0.22069 0.53482 0.0
H853 H 0.97076 0.31623 0.61679 0.0
H854 H 0.98517 0.34985 0.68123 0.0
H855 H 0.07399 0.34509 0.69382 0.0
H856 H 0.05988 0.31103 0.62974 0.0
H857 H 0.0589 0.30328 0.36628 0.0
H858 H 1.01607 0.28077 0.41962 0.0
H859 H 0.09081 0.31807 0.51644 0.0
H860 H 0.13299 0.34331 0.46296 0.0
H861 H 0.0512 0.3243 0.55057 0.0
H862 H 1.0149 0.21272 0.48955 0.0
H863 H 0.99092 0.16534 0.44131 0.0
H864 H 0.92246 0.19417 0.39534 0.0
H865 H 0.94529 0.24096 0.44507 0.0
C866 C 0.93398 0.22585 0.68383 0.0
C867 C 0.90107 0.21844 0.67765 0.0
C868 C 0.95766 0.23978 0.65164 0.0
C869 C 0.94943 0.24656 0.61164 0.0
C870 C 0.91645 0.23866 0.60518 0.0
C871 C 0.89288 0.22526 0.63759 0.0
C872 C 0.97468 0.26076 0.57638 0.0
C873 C 0.96819 0.24361 0.53822 0.0
C874 C 1.00551 0.29024 0.58027 0.0
C875 C 1.0141 0.31082 0.61867 0.0
C876 C 0.99324 0.32213 0.63348 0.0
C877 C 1.00137 0.34131 0.66991 0.0
C878 C 0.03044 0.34953 0.69166 0.0
C879 C 0.05147 0.33866 0.67697 0.0
C880 C 0.04342 0.31945 0.64057 0.0
C881 C 0.06619 0.30636 0.39898 0.0
C882 C 0.09981 0.3252 0.40981 0.0
C883 C 0.04134 0.29293 0.43015 0.0
C884 C 0.04898 0.29657 0.4737 0.0
C885 C 0.08293 0.31465 0.484 0.0
C886 C 0.10754 0.32901 0.45298 0.0
C887 C 1.02252 0.28347 0.50845 0.0
C888 C 0.0285 0.30114 0.54673 0.0
C889 C 0.99135 0.25399 0.50513 0.0
C890 C 0.98235 0.23069 0.46998 0.0
C891 C 0.99537 0.20943 0.46827 0.0
C892 C 0.98163 0.18241 0.44105 0.0
C893 C 0.95529 0.17688 0.41482 0.0
C894 C 0.94293 0.19858 0.41548 0.0
C895 C 0.95613 0.22522 0.44332 0.0
H896 H 0.94402 0.15555 0.39441 0.0
H897 H 0.0367 0.36439 0.71986 0.0
H898 H 0.73717 0.94856 0.21764 0.0
H899 H 0.75234 0.98929 0.16152 0.0
H900 H 0.71668 0.91121 0.06955 0.0
H901 H 0.70324 0.87098 0.1257 0.0
H902 H 0.7682 0.95455 1.0394 0.0
H903 H 0.6801 0.96598 0.09692 0.0
H904 H 0.64866 0.97523 0.15172 0.0
H905 H 0.73148 0.07081 0.17772 0.0
H906 H 0.76355 0.06196 0.1234 0.0
H907 H 0.77817 0.06214 0.86599 0.0
H908 H 0.75336 0.02148 0.92298 0.0
H909 H 0.82518 0.09053 1.00979 0.0
H910 H 0.85068 0.13054 0.95298 0.0
H911 H 0.7533 0.05241 1.04075 0.0
H912 H 0.84238 0.0362 0.9924 0.0
H913 H 0.87459 0.02773 0.93832 0.0
H914 H 0.78754 0.94211 0.89315 0.0
H915 H 0.75485 0.94967 0.94804 0.0
C916 C 0.73111 0.93988 0.18559 0.0
C917 C 0.71746 0.90593 0.17683 0.0
C918 C 0.74014 0.96345 0.15298 0.0
C919 C 0.73549 0.95408 0.11011 0.0
C920 C 0.72083 0.91994 0.10166 0.0
C921 C 0.71237 0.89655 0.13415 0.0
C922 C 0.74744 0.97937 0.07425 0.0
C923 C 0.76408 0.97542 1.03984 0.0
C924 C 0.74348 1.00777 0.07373 0.0
C925 C 0.72431 1.01317 0.10638 0.0
C926 C 0.69167 0.98888 0.11452 0.0
C927 C 0.67373 0.99406 0.14546 0.0
C928 C 0.68809 0.02355 0.16826 0.0
C929 C 0.7204 0.04796 0.16008 0.0
C930 C 0.73846 0.04289 0.12919 0.0
C931 C 0.78827 0.069 0.89736 0.0
C932 C 0.81627 0.1002 0.90455 0.0
C933 C 0.77418 0.0455 0.93011 0.0
C934 C 0.78708 0.05258 0.97141 0.0
C935 C 0.81433 0.08411 0.97876 0.0
C936 C 0.82889 0.10718 0.94597 0.0
C937 C 0.77333 0.02699 1.00641 0.0
C938 C 0.75671 0.03109 1.04051 0.0
C939 C 0.77697 0.99862 1.00665 0.0
C940 C 0.7962 0.99375 0.9738 0.0
C941 C 0.8301 0.01569 0.97073 0.0
C942 C 0.84844 1.01105 0.93995 0.0
C943 C 0.83308 0.98475 0.9117 0.0
C944 C 0.79937 0.96264 0.9148 0.0
C945 C 0.78095 0.96696 0.94592 0.0
H946 H 0.84737 0.98133 0.88774 0.0
H947 H 0.67417 0.02752 0.1922 0.0
H948 H 0.81844 0.73258 0.70801 0.0
H949 H 0.79671 0.75102 0.65049 0.0
H950 H 0.80061 0.68014 0.56806 0.0
H951 H 0.82177 0.66095 0.62604 0.0
H952 H 0.82479 0.74266 0.52961 0.0
H953 H 0.72768 0.66655 0.60332 0.0
H954 H 0.69231 0.64365 0.66519 0.0
H955 H 0.69257 0.73487 0.68295 0.0
H956 H 0.72835 0.7585 0.6215 0.0
H957 H 0.741 0.77466 0.35974 0.0
H958 H 0.76456 0.75419 0.41265 0.0
H959 H 0.72515 0.78814 0.51037 0.0
H960 H 0.69927 0.8055 0.45742 0.0
H961 H 0.71821 0.73998 0.54071 0.0
H962 H 0.8251 0.82095 0.48128 0.0
H963 H 0.87018 0.8484 0.43051 0.0
H964 H 0.85599 0.75439 0.39068 0.0
H965 H 0.81162 0.72652 0.44227 0.0
C966 C 0.81474 0.72073 0.67774 0.0
C967 C 0.82207 0.69501 0.67233 0.0
C968 C 0.80206 0.73134 0.64459 0.0
C969 C 0.79654 0.71708 0.60429 0.0
C970 C 0.80439 0.69178 0.59849 0.0
C971 C 0.81652 0.68069 0.63195 0.0
C972 C 0.78287 0.72871 0.5686 0.0
C973 C 0.80127 0.74175 0.53192 0.0
C974 C 0.75258 0.72861 0.5712 0.0
C975 C 0.73095 0.71439 0.60803 0.0
C976 C 0.72042 0.68182 0.62061 0.0
C977 C 0.70025 0.66869 0.65557 0.0
C978 C 0.69026 0.68782 0.67805 0.0
C979 C 0.70035 0.7201 0.66554 0.0
C980 C 0.72055 0.73336 0.63062 0.0
C981 C 0.7377 0.77809 0.39255 0.0
C982 C 0.71806 0.79194 0.40385 0.0
C983 C 0.75164 0.76653 0.42339 0.0
C984 C 0.74756 0.76943 0.46699 0.0
C985 C 0.72885 0.78455 0.47778 0.0
C986 C 0.7141 0.79499 0.4471 0.0
C987 C 0.7607 0.75552 0.50134 0.0
C988 C 0.74196 0.74154 0.53799 0.0
C989 C 0.79111 0.75545 0.49911 0.0
C990 C 0.81478 0.77171 0.46498 0.0
C991 C 0.83126 0.80617 0.46116 0.0
C992 C 0.85687 0.82179 0.43252 0.0
C993 C 0.86575 0.80311 0.40717 0.0
C994 C 0.84902 0.76879 0.41026 0.0
C995 C 0.8238 0.7531 0.43932 0.0
H996 H 0.88575 0.81514 0.38531 0.0
H997 H 0.67465 0.67761 0.70511 0.0
H998 H 0.9899 0.7839 0.87642 0.0
H999 H 1.02132 0.79353 0.94013 0.0
H1000 H 0.95811 0.69269 0.97665 0.0
H1001 H 0.9258 0.68261 0.91085 0.0
H1002 H 0.97428 0.73742 1.04537 0.0
H1003 H 0.03846 0.71989 0.94104 0.0
H1004 H 0.06522 0.72966 0.87216 0.0
H1005 H 0.12485 0.83262 0.90142 0.0
H1006 H 0.09827 0.82351 0.97036 0.0
H1007 H 0.07792 0.76387 0.22184 0.0
H1008 H 0.0464 0.74154 0.15696 0.0
H1009 H 0.11587 0.82902 0.09133 0.0
H1010 H 0.14858 0.85016 0.15588 0.0
H1011 H 0.09519 0.78607 1.03639 0.0
H1012 H 0.03223 0.80938 0.13278 0.0
H1013 H 1.00416 0.80681 0.19892 0.0
H1014 H 0.9416 0.70235 0.18304 0.0
H1015 H 0.96959 0.70425 0.11703 0.0
C1016 C 0.98268 0.76318 0.89706 0.0
C1017 C 0.95545 0.73202 0.88663 0.0
C1018 C 1.00094 0.76896 0.93429 0.0
C1019 C 0.9932 0.7439 0.96374 0.0
C1020 C 0.9653 0.71271 0.95465 0.0
C1021 C 0.94673 0.70682 0.91668 0.0
C1022 C 1.01455 0.7512 1.00328 0.0
C1023 C 1.00061 0.74728 1.04332 0.0
C1024 C 0.0494 0.76573 1.00157 0.0
C1025 C 0.06633 0.771 0.96084 0.0
C1026 C 0.05729 0.74461 0.93278 0.0
C1027 C 0.07241 0.75004 0.89372 0.0
C1028 C 0.09674 0.78173 0.88245 0.0
C1029 C 0.10607 0.80806 0.91026 0.0
C1030 C 0.09105 0.80276 0.94938 0.0
C1031 C 0.08728 0.77781 0.19322 0.0
C1032 C 0.11663 0.80857 0.19451 0.0
C1033 C 0.06857 0.76534 0.15588 0.0
C1034 C 0.07743 0.78374 0.11831 0.0
C1035 C 0.10769 0.81384 0.11911 0.0
C1036 C 0.12689 0.82594 0.15635 0.0
C1037 C 0.05505 0.77224 0.07907 0.0
C1038 C 0.06883 0.77569 1.03888 0.0
C1039 C 1.02013 0.75817 0.08061 0.0
C1040 C 1.00326 0.75689 0.12025 0.0
C1041 C 1.01263 0.78583 0.14355 0.0
C1042 C 0.99672 0.7845 0.18099 0.0
C1043 C 0.97118 0.75442 0.19524 0.0
C1044 C 0.96143 0.72562 0.17201 0.0
C1045 C 0.9773 0.7268 0.13457 0.0
H1046 H 0.95888 0.75343 0.22422 0.0
H1047 H 0.10835 0.7859 0.85216 0.0
H1048 H 0.28929 0.11583 0.6956 0.0
H1049 H 0.26843 0.07637 0.63703 0.0
H1050 H 0.36764 0.11184 0.59555 0.0
H1051 H 0.3882 0.15252 0.65232 0.0
H1052 H 0.33709 0.09904 0.53016 0.0
H1053 H 0.30818 0.03154 0.65239 0.0
H1054 H 0.28191 1.00629 0.71939 0.0
H1055 H 0.18656 0.97022 0.66324 0.0
H1056 H 0.21221 0.9965 0.59644 0.0
H1057 H 0.30549 0.96005 0.40167 0.0
H1058 H 0.3207 1.00042 0.45821 0.0
H1059 H 0.2201 0.97794 0.46729 0.0
H1060 H 0.20466 0.93744 0.40968 0.0
H1061 H 0.24807 0.98345 0.54725 0.0
H1062 H 0.27895 0.05112 0.4247 0.0
H1063 H 0.30645 0.07203 0.35697 0.0
H1064 H 0.40025 0.103 0.41516 0.0
H1065 H 0.37326 0.08186 0.48317 0.0
C1066 C 0.30677 0.11534 0.67402 0.0
C1067 C 0.34071 0.1379 0.6795 0.0
C1068 C 0.29471 0.0922 0.64033 0.0
C1069 C 0.31603 0.08964 0.61116 0.0
C1070 C 0.34996 0.11243 0.61666 0.0
C1071 C 0.36194 0.13602 0.64971 0.0
C1072 C 0.30349 0.06419 0.5748 0.0
C1073 C 0.31791 0.07372 0.53471 0.0
C1074 C 0.27763 0.03069 0.57859 0.0
C1075 C 0.2622 0.01647 0.61948 0.0
C1076 C 0.28162 0.01877 0.65451 0.0
C1077 C 0.26683 1.00425 0.69248 0.0
C1078 C 0.2326 0.98678 0.69562 0.0
C1079 C 0.21309 0.98389 0.66083 0.0
C1080 C 0.22774 0.99881 0.62299 0.0
C1081 C 0.28638 0.96365 0.41522 0.0
C1082 C 0.25365 0.94507 0.40009 0.0
C1083 C 0.29528 0.98711 0.44795 0.0
C1084 C 0.27189 0.99307 0.46779 0.0
C1085 C 0.23903 0.97438 0.45309 0.0
C1086 C 0.23014 0.95115 0.41964 0.0
C1087 C 0.28201 0.01847 0.50358 0.0
C1088 C 0.26717 1.00889 0.54324 0.0
C1089 C 0.30773 0.05174 0.49973 0.0
C1090 C 0.32404 0.06466 0.45896 0.0
C1091 C 0.30542 0.06218 0.423 0.0
C1092 C 0.32092 0.07411 0.38456 0.0
C1093 C 0.35507 0.08877 0.38174 0.0
C1094 C 0.3738 0.09161 0.41738 0.0
C1095 C 0.35841 0.07969 0.45589 0.0
H1096 H 0.36703 0.09798 0.35195 0.0
H1097 H 0.22118 0.97543 0.72499 0.0
H1098 H 0.86047 0.7165 0.95234 0.0
H1099 H 0.83132 0.72498 1.01021 0.0
H1100 H 0.76835 0.73695 0.92167 0.0
H1101 H 0.79739 0.72787 0.8635 0.0
H1102 H 0.79174 0.78665 0.98253 0.0
H1103 H 0.73775 0.66867 0.98496 0.0
H1104 H 0.73443 0.61433 0.98658 0.0
H1105 H 0.78713 0.63931 0.10367 0.0
H1106 H 0.79115 0.694 0.10248 0.0
H1107 H 0.70289 0.8069 0.15465 0.0
H1108 H 0.71572 0.78729 0.08946 0.0
H1109 H 0.76999 0.75168 0.16102 0.0
H1110 H 0.7562 0.76974 0.22525 0.0
H1111 H 0.74503 0.71131 0.10341 0.0
H1112 H 0.80435 0.82998 0.09961 0.0
H1113 H 0.81062 0.88562 0.09922 0.0
H1114 H 0.7521 0.86176 0.98694 0.0
H1115 H 0.74508 0.80578 0.98702 0.0
C1116 C 0.83951 0.71954 0.94509 0.0
C1117 C 0.83064 0.72003 0.90283 0.0
C1118 C 0.82295 0.72485 0.97847 0.0
C1119 C 0.79718 0.73167 0.97114 0.0
C1120 C 0.78791 0.73173 0.92889 0.0
C1121 C 0.8042 0.72584 0.89539 0.0
C1122 C 0.78098 0.73958 1.00744 0.0
C1123 C 0.78103 0.76984 1.00859 0.0
C1124 C 0.76747 0.71844 1.04253 0.0
C1125 C 0.76497 0.68553 1.04345 0.0
C1126 C 0.74884 0.66267 1.01091 0.0
C1127 C 0.74679 0.63179 1.01178 0.0
C1128 C 0.76062 0.6234 1.04516 0.0
C1129 C 0.77645 0.64585 0.07781 0.0
C1130 C 0.77859 0.67678 0.07708 0.0
C1131 C 0.71663 0.79393 0.1566 0.0
C1132 C 0.72806 0.78978 0.19595 0.0
C1133 C 0.72468 0.78322 0.11892 0.0
C1134 C 0.74476 0.76834 0.11916 0.0
C1135 C 0.75464 0.76292 0.15876 0.0
C1136 C 0.74655 0.77336 0.19602 0.0
C1137 C 0.75629 0.75881 0.07924 0.0
C1138 C 0.75548 0.72818 0.07736 0.0
C1139 C 0.76954 0.77988 1.04384 0.0
C1140 C 0.77383 0.81354 1.04363 0.0
C1141 C 0.79262 0.83652 0.07501 0.0
C1142 C 0.79632 0.86812 0.07483 0.0
C1143 C 0.78166 0.87718 1.04316 0.0
C1144 C 0.76336 0.85468 1.01152 0.0
C1145 C 0.7595 0.823 1.01162 0.0
H1146 H 0.78454 0.90165 1.04308 0.0
H1147 H 0.75901 0.59948 0.04578 0.0
H1148 H 0.11669 0.84507 0.39328 0.0
H1149 H 0.07754 0.82499 0.45159 0.0
H1150 H 0.12253 0.77054 0.49921 0.0
H1151 H 0.16216 0.79112 0.44156 0.0
H1152 H 0.05524 0.73194 0.50104 0.0
H1153 H 0.13259 0.84148 0.54743 0.0
H1154 H 0.16478 0.90217 0.54416 0.0
H1155 H 0.07567 0.90682 0.53658 0.0
H1156 H 0.04293 0.84612 0.53907 0.0
H1157 H 0.96904 0.67761 0.69293 0.0
H1158 H 1.01055 0.703 0.63875 0.0
H1159 H 0.97808 0.773 0.61401 0.0
H1160 H 0.9373 0.74834 0.67028 0.0
H1161 H 0.03848 0.80456 0.59891 0.0
H1162 H 0.96062 0.69747 0.54795 0.0
H1163 H 0.92613 0.63689 0.54915 0.0
H1164 H 1.01246 0.6275 0.56059 0.0
H1165 H 0.04745 0.68806 0.55995 0.0
C1166 C 0.11858 0.82901 0.41623 0.0
C1167 C 0.14326 0.82011 0.41197 0.0
C1168 C 0.09596 0.81747 0.45004 0.0
C1169 C 0.0965 0.79601 0.48094 0.0
C1170 C 0.12099 0.78694 0.47651 0.0
C1171 C 0.14401 0.79898 0.4432 0.0
C1172 C 0.07139 0.78242 0.5169 0.0
C1173 C 0.05204 0.74804 0.52263 0.0
C1174 C 0.06562 0.8027 0.54506 0.0
C1175 C 0.0853 0.83918 0.54287 0.0
C1176 C 0.11985 0.8554 0.54455 0.0
C1177 C 0.1382 0.88982 0.54295 0.0
C1178 C 0.12229 0.90833 0.54003 0.0
C1179 C 0.08798 0.89245 0.53874 0.0
C1180 C 0.06951 0.85804 0.54024 0.0
C1181 C 0.97059 0.69848 0.67619 0.0
C1182 C 0.94917 0.71051 0.6867 0.0
C1183 C 0.99447 0.713 0.6443 0.0
C1184 C 0.99759 0.73969 0.61992 0.0
C1185 C 0.97675 0.7524 0.63118 0.0
C1186 C 0.95316 0.73819 0.66385 0.0
C1187 C 1.02221 0.75389 0.58321 0.0
C1188 C 0.0415 0.78837 0.57729 0.0
C1189 C 0.02753 0.73371 0.55421 0.0
C1190 C 1.00662 0.6973 0.55431 0.0
C1191 C 0.97223 0.68248 0.55094 0.0
C1192 C 0.9526 0.64815 0.5515 0.0
C1193 C 0.96709 0.62836 0.55506 0.0
C1194 C 1.00126 0.64286 0.5579 0.0
C1195 C 1.02101 0.67719 0.5574 0.0
H1196 H 0.95185 0.60178 0.55554 0.0
H1197 H 0.13654 0.93497 0.53889 0.0
H1198 H 0.33055 0.15016 0.92969 0.0
H1199 H 0.3155 0.11706 0.9942 0.0
H1200 H 0.30921 0.03504 0.9249 0.0
H1201 H 0.3237 0.06769 0.86072 0.0
H1202 H 0.26021 0.06189 1.01598 0.0
H1203 H 0.32303 0.98363 0.98949 0.0
H1204 H 0.37317 0.9892 0.95712 0.0
H1205 H 0.42202 0.09412 0.97506 0.0
H1206 H 0.37235 0.08915 1.00804 0.0
H1207 H 0.18148 0.91783 0.14096 0.0
H1208 H 0.20748 0.95699 0.0845 0.0
H1209 H 0.30077 0.99751 0.1485 0.0
H1210 H 0.27441 0.95762 0.20611 0.0
H1211 H 0.31145 0.99725 0.0659 0.0
H1212 H 0.2516 0.03815 0.1439 0.0
H1213 H 0.20427 0.03838 0.17692 0.0
H1214 H 0.15278 1.01344 0.059 0.0
H1215 H 0.1997 1.0129 1.02529 0.0
C1216 C 0.32683 0.1254 0.92819 0.0
C1217 C 0.329 0.11219 0.88924 0.0
C1218 C 0.31775 0.10612 0.9654 0.0
C1219 C 0.31109 0.07302 0.96549 0.0
C1220 C 0.31444 0.06033 0.92685 0.0
C1221 C 0.32296 0.07933 0.88972 0.0
C1222 C 0.29919 0.05133 1.00489 0.0
C1223 C 0.27156 0.04782 1.02664 0.0
C1224 C 0.31372 0.0328 1.02024 0.0
C1225 C 0.34384 0.03601 1.00089 0.0
C1226 C 0.34451 1.00787 0.98669 0.0
C1227 C 0.37285 1.01093 0.9682 0.0
C1228 C 0.40073 0.042 0.96392 0.0
C1229 C 0.40037 0.07008 0.97824 0.0
C1230 C 0.37211 0.06716 0.99679 0.0
C1231 C 0.20765 0.93487 0.1435 0.0
C1232 C 0.22544 0.93403 0.17914 0.0
C1233 C 0.22262 0.95779 0.11076 0.0
C1234 C 0.25635 0.98145 0.11162 0.0
C1235 C 0.2747 0.98006 0.1464 0.0
C1236 C 0.25954 0.95693 0.17962 0.0
C1237 C 0.27176 1.00701 0.07627 0.0
C1238 C 0.30003 1.01124 0.05523 0.0
C1239 C 0.25781 0.02627 0.06148 0.0
C1240 C 0.22907 0.0252 0.08217 0.0
C1241 C 0.23004 0.03233 0.12513 0.0
C1242 C 0.2033 0.03259 0.14393 0.0
C1243 C 0.17549 0.02574 0.12007 0.0
C1244 C 0.17431 0.01862 0.07742 0.0
C1245 C 0.20097 0.0184 0.05845 0.0
H1246 H 0.15493 0.02623 0.13444 0.0
H1247 H 0.42263 0.04431 0.94957 0.0
H1248 H 0.28022 0.22379 0.71324 0.0
H1249 H 0.25448 0.24084 0.6585 0.0
H1250 H 0.34747 0.29306 0.59534 0.0
H1251 H 0.37317 0.2776 0.6504 0.0
H1252 H 0.3246 0.329 0.58532 0.0
H1253 H 0.27198 0.21212 0.56307 0.0
H1254 H 0.23942 0.15335 0.5821 0.0
H1255 H 0.15698 0.16592 0.61117 0.0
H1256 H 0.1892 0.22486 0.59284 0.0
H1257 H 0.2077 0.29187 0.38581 0.0
H1258 H 0.22818 0.27224 0.44358 0.0
H1259 H 0.25439 0.3612 0.51282 0.0
H1260 H 0.23509 0.38137 0.45455 0.0
H1261 H 0.2168 0.25388 0.5193 0.0
H1262 H 0.31589 0.38159 0.58235 0.0
H1263 H 0.35266 0.43778 0.55611 0.0
H1264 H 0.34925 0.39888 0.43312 0.0
H1265 H 0.31281 0.34247 0.45874 0.0
C1266 C 0.2952 0.23885 0.68767 0.0
C1267 C 0.32913 0.24918 0.68711 0.0
C1268 C 0.2803 0.24857 0.65576 0.0
C1269 C 0.29849 0.26837 0.62135 0.0
C1270 C 0.33225 0.27823 0.6209 0.0
C1271 C 0.34713 0.26906 0.65287 0.0
C1272 C 0.28336 0.27954 0.58627 0.0
C1273 C 0.30091 0.31229 0.5713 0.0
C1274 C 0.25259 0.25841 0.56621 0.0
C1275 C 0.23312 0.22297 0.57701 0.0
C1276 C 0.24697 0.20238 0.57376 0.0
C1277 C 0.22858 0.16904 0.5844 0.0
C1278 C 0.19618 0.15594 0.59794 0.0
C1279 C 0.18209 0.17612 0.60075 0.0
C1280 C 0.20041 0.20949 0.59023 0.0
C1281 C 0.21784 0.30743 0.41325 0.0
C1282 C 0.21974 0.33863 0.41455 0.0
C1283 C 0.2296 0.29598 0.44679 0.0
C1284 C 0.24383 0.31512 0.48334 0.0
C1285 C 0.24469 0.34583 0.48517 0.0
C1286 C 0.23325 0.35742 0.45151 0.0
C1287 C 0.25803 0.30332 0.51878 0.0
C1288 C 0.24038 0.27053 0.53365 0.0
C1289 C 0.28922 0.32408 0.53798 0.0
C1290 C 0.31132 0.35787 0.52238 0.0
C1291 C 0.32307 0.38504 0.54974 0.0
C1292 C 0.34384 0.41692 0.53497 0.0
C1293 C 0.35318 0.4219 0.49294 0.0
C1294 C 0.34189 0.395 0.46563 0.0
C1295 C 0.32116 0.36308 0.48025 0.0
H1296 H 0.36924 0.4466 0.48156 0.0
H1297 H 0.18197 0.13013 0.60614 0.0
H1298 H 0.13155 0.30184 0.13919 0.0
H1299 H 0.09435 0.28957 0.07925 0.0
H1300 H 0.02739 0.30331 0.157 0.0
H1301 H 0.06529 0.31633 0.21732 0.0
H1302 H 0.99431 0.24448 0.10667 0.0
H1303 H 0.07042 0.35952 0.08186 0.0
H1304 H 0.12551 0.40814 0.07352 0.0
H1305 H 0.14455 0.36102 0.97053 0.0
H1306 H 0.08973 0.31194 0.97859 0.0
H1307 H 0.88931 0.21437 0.92335 0.0
H1308 H 0.92114 0.23623 0.9889 0.0
H1309 H 1.01032 0.26135 0.92246 0.0
H1310 H 0.97964 0.24256 0.8579 0.0
H1311 H 0.02944 0.30458 0.97224 0.0
H1312 H 0.95944 0.18829 0.99842 0.0
H1313 H 0.90672 0.1365 1.0062 0.0
H1314 H 0.87878 0.18041 0.10425 0.0
H1315 H 0.9311 0.23262 0.09658 0.0
C1316 C 0.1095 0.3035 0.14338 0.0
C1317 C 0.10241 0.31146 0.18325 0.0
C1318 C 0.08784 0.29602 0.10886 0.0
C1319 C 0.05756 0.29537 0.11269 0.0
C1320 C 0.05038 0.30356 0.15247 0.0
C1321 C 0.07249 0.31168 0.18704 0.0
C1322 C 0.03376 0.28573 0.07532 0.0
C1323 C 1.00189 0.25797 0.07745 0.0
C1324 C 0.04326 0.3023 1.03625 0.0
C1325 C 0.07604 0.33198 1.03101 0.0
C1326 C 0.08643 0.35946 0.05758 0.0
C1327 C 0.1176 0.38711 0.05288 0.0
C1328 C 0.13854 0.38764 1.02156 0.0
C1329 C 0.12831 0.36057 0.99478 0.0
C1330 C 0.09717 0.33285 0.99936 0.0
C1331 C 0.91577 0.22516 0.92258 0.0
C1332 C 0.93135 0.22661 0.88424 0.0
C1333 C 0.93422 0.23729 0.96063 0.0
C1334 C 0.96886 0.25034 0.96216 0.0
C1335 C 0.98407 0.252 0.92362 0.0
C1336 C 0.96601 0.24085 0.88593 0.0
C1337 C 0.98989 0.26238 1.00259 0.0
C1338 C 1.02147 0.29081 1.0012 0.0
C1339 C 0.98037 0.24581 1.04192 0.0
C1340 C 0.949 0.21445 0.0466 0.0
C1341 C 0.94195 0.18695 1.02145 0.0
C1342 C 0.91215 0.15753 1.02585 0.0
C1343 C 0.88941 0.15521 0.05565 0.0
C1344 C 0.89641 0.18228 0.08113 0.0
C1345 C 0.92611 0.21178 0.07677 0.0
H1346 H 0.86641 0.13241 0.05913 0.0
H1347 H 0.16267 0.40906 1.018 0.0
H1348 H 0.83692 0.0971 0.67779 0.0
H1349 H 0.82173 0.05653 0.62046 0.0
H1350 H 0.72161 0.0361 0.62619 0.0
H1351 H 0.7366 0.07654 0.68263 0.0
H1352 H 0.72191 0.97869 0.61771 0.0
H1353 H 0.77704 0.08396 0.54699 0.0
H1354 H 0.82389 0.13913 0.53222 0.0
H1355 H 0.88319 0.09601 0.50005 0.0
H1356 H 0.83685 0.0406 0.51532 0.0
H1357 H 0.65308 0.88367 0.43236 0.0
H1358 H 0.67303 0.92427 0.48895 0.0
H1359 H 0.77299 0.95566 0.45429 0.0
H1360 H 0.7528 0.91622 0.39563 0.0
H1361 H 0.77619 1.00719 0.47936 0.0
H1362 H 0.7267 0.90429 0.54957 0.0
H1363 H 0.68388 0.8478 0.56759 0.0
H1364 H 0.61963 0.88384 0.60537 0.0
H1365 H 0.66194 0.94051 0.58707 0.0
C1366 C 0.81161 0.08395 0.66704 0.0
C1367 C 0.7882 0.09065 0.68562 0.0
C1368 C 0.80287 0.06066 0.63373 0.0
C1369 C 0.77027 0.04279 0.61785 0.0
C1370 C 0.7469 0.04908 0.63704 0.0
C1371 C 0.75567 0.07257 0.66971 0.0
C1372 C 0.76008 0.01757 0.58183 0.0
C1373 C 0.73368 0.98523 0.58737 0.0
C1374 C 0.77577 0.02484 0.54207 0.0
C1375 C 0.80357 0.05815 0.53277 0.0
C1376 C 0.80015 0.08626 0.53712 0.0
C1377 C 0.82661 0.11757 0.52861 0.0
C1378 C 0.85654 0.12109 0.51533 0.0
C1379 C 0.86003 0.09327 0.51043 0.0
C1380 C 0.83367 0.0619 0.51901 0.0
C1381 C 0.67938 0.89897 0.43672 0.0
C1382 C 0.70104 0.89587 0.40889 0.0
C1383 C 0.69101 0.92239 0.46987 0.0
C1384 C 0.725 0.94328 0.478 0.0
C1385 C 0.74671 0.94033 0.44992 0.0
C1386 C 0.73503 0.91734 0.41606 0.0
C1387 C 0.73757 0.96812 0.51495 0.0
C1388 C 0.76441 1.00043 0.50966 0.0
C1389 C 0.72288 0.96059 0.55544 0.0
C1390 C 0.69738 0.9266 0.56656 0.0
C1391 C 0.70337 0.90013 0.56148 0.0
C1392 C 0.67919 0.86809 0.57177 0.0
C1393 C 0.64902 0.86223 0.58751 0.0
C1394 C 0.643 0.88842 0.59311 0.0
C1395 C 0.66707 0.92051 0.58282 0.0
H1396 H 0.63034 0.8374 0.59546 0.0
H1397 H 0.87699 0.14535 0.50873 0.0
loop_
_geom_bond_atom_site_label_1
_geom_bond_atom_site_label_2
_geom_bond_distance
_geom_bond_site_symmetry_2
_ccdc_geom_bond_type
Co0 O3 2.042 . S
Co0 O10 2.264 . S
Co0 O29 2.286 . S
Co0 O30 2.069 . S
Co0 O32 2.015 . S
Co1 O3 2.122 . S
Co1 O9 2.073 . S
Co1 O10 2.327 . S
Co1 O11 1.976 . S
Co2 O3 2.087 . S
Co2 O5 2.087 . S
Co2 O12 2.111 . S
Co2 O13 2.143 . S
Co2 O17 2.111 . S
Co2 O31 2.143 . S
O3 Co0 2.042 . S
O3 Co1 2.122 . S
O3 Co2 2.087 . S
O3 H4 0.980 . S
H4 O3 0.980 . S
O5 Co2 2.087 . S
O5 Co6 2.042 . S
O5 Co7 2.122 . S
O5 H8 0.980 . S
Co6 O5 2.042 . S
Co6 O14 2.286 . S
Co6 O15 2.069 . S
Co6 O16 2.015 . S
Co6 O19 2.264 . S
Co7 O5 2.122 . S
Co7 O18 1.976 . S
Co7 O19 2.327 . S
Co7 O20 2.073 . S
H8 O5 0.980 . S
O9 Co1 2.073 . S
O9 C24 1.245 . S
O10 Co0 2.264 . S
O10 Co1 2.327 . S
O10 C24 1.257 . S
O11 Co1 1.976 . S
O11 C23 1.251 . S
O12 Co2 2.111 . S
O12 C23 1.274 . S
O13 Co2 2.143 . S
O13 C26 1.246 . S
O14 Co6 2.286 . S
O14 C25 1.259 . S
O15 Co6 2.069 . S
O15 C25 1.289 . S
O16 Co6 2.015 . S
O16 C26 1.257 . S
O17 Co2 2.111 . S
O17 C27 1.274 . S
O18 Co7 1.976 . S
O18 C27 1.251 . S
O19 Co6 2.264 . S
O19 Co7 2.327 . S
O19 C28 1.257 . S
O20 Co7 2.073 . S
O20 C28 1.245 . S
C21 O29 1.259 . S
C21 O30 1.289 . S
C22 O31 1.246 . S
C22 O32 1.257 . S
C23 O11 1.251 . S
C23 O12 1.274 . S
C24 O9 1.245 . S
C24 O10 1.257 . S
C25 O14 1.259 . S
C25 O15 1.289 . S
C26 O13 1.246 . S
C26 O16 1.257 . S
C27 O17 1.274 . S
C27 O18 1.251 . S
C28 O19 1.257 . S
C28 O20 1.245 . S
O29 Co0 2.286 . S
O29 C21 1.259 . S
O30 Co0 2.069 . S
O30 C21 1.289 . S
O31 Co2 2.143 . S
O31 C22 1.246 . S
O32 Co0 2.015 . S
O32 C22 1.257 . S
Co33 O36 2.042 . S
Co33 O43 2.264 . S
Co33 O62 2.286 . S
Co33 O63 2.069 . S
Co33 O65 2.015 . S
Co34 O36 2.122 . S
Co34 O42 2.073 . S
Co34 O43 2.327 . S
Co34 O44 1.976 . S
Co35 O36 2.087 . S
Co35 O38 2.087 . S
Co35 O45 2.111 . S
Co35 O46 2.143 . S
Co35 O50 2.111 . S
Co35 O64 2.143 . S
O36 Co33 2.042 . S
O36 Co34 2.122 . S
O36 Co35 2.087 . S
O36 H37 0.980 . S
H37 O36 0.980 . S
O38 Co35 2.087 . S
O38 Co39 2.042 . S
O38 Co40 2.122 . S
O38 H41 0.980 . S
Co39 O38 2.042 . S
Co39 O47 2.286 . S
Co39 O48 2.069 . S
Co39 O49 2.015 . S
Co39 O52 2.264 . S
Co40 O38 2.122 . S
Co40 O51 1.976 . S
Co40 O52 2.327 . S
Co40 O53 2.073 . S
H41 O38 0.980 . S
O42 Co34 2.073 . S
O42 C57 1.245 . S
O43 Co33 2.264 . S
O43 Co34 2.327 . S
O43 C57 1.257 . S
O44 Co34 1.976 . S
O44 C56 1.251 . S
O45 Co35 2.111 . S
O45 C56 1.274 . S
O46 Co35 2.143 . S
O46 C59 1.246 . S
O47 Co39 2.286 . S
O47 C58 1.259 . S
O48 Co39 2.069 . S
O48 C58 1.289 . S
O49 Co39 2.015 . S
O49 C59 1.257 . S
O50 Co35 2.111 . S
O50 C60 1.274 . S
O51 Co40 1.976 . S
O51 C60 1.251 . S
O52 Co39 2.264 . S
O52 Co40 2.327 . S
O52 C61 1.257 . S
O53 Co40 2.073 . S
O53 C61 1.245 . S
C54 O62 1.259 . S
C54 O63 1.289 . S
C55 O64 1.246 . S
C55 O65 1.257 . S
C56 O44 1.251 . S
C56 O45 1.274 . S
C57 O42 1.245 . S
C57 O43 1.257 . S
C58 O47 1.259 . S
C58 O48 1.289 . S
C59 O46 1.246 . S
C59 O49 1.257 . S
C60 O50 1.274 . S
C60 O51 1.251 . S
C61 O52 1.257 . S
C61 O53 1.245 . S
O62 Co33 2.286 . S
O62 C54 1.259 . S
O63 Co33 2.069 . S
O63 C54 1.289 . S
O64 Co35 2.143 . S
O64 C55 1.246 . S
O65 Co33 2.015 . S
O65 C55 1.257 . S
Co66 O69 2.042 . S
Co66 O76 2.264 . S
Co66 O95 2.286 . S
Co66 O96 2.069 . S
Co66 O98 2.015 . S
Co67 O69 2.122 . S
Co67 O75 2.073 . S
Co67 O76 2.327 . S
Co67 O77 1.976 . S
Co68 O69 2.087 . S
Co68 O71 2.087 . S
Co68 O78 2.111 . S
Co68 O79 2.143 . S
Co68 O83 2.111 . S
Co68 O97 2.143 . S
O69 Co66 2.042 . S
O69 Co67 2.122 . S
O69 Co68 2.087 . S
O69 H70 0.980 . S
H70 O69 0.980 . S
O71 Co68 2.087 . S
O71 Co72 2.042 . S
O71 Co73 2.122 . S
O71 H74 0.980 . S
Co72 O71 2.042 . S
Co72 O80 2.286 . S
Co72 O81 2.069 . S
Co72 O82 2.015 . S
Co72 O85 2.264 . S
Co73 O71 2.122 . S
Co73 O84 1.976 . S
Co73 O85 2.327 . S
Co73 O86 2.073 . S
H74 O71 0.980 . S
O75 Co67 2.073 . S
O75 C90 1.245 . S
O76 Co66 2.264 . S
O76 Co67 2.327 . S
O76 C90 1.257 . S
O77 Co67 1.976 . S
O77 C89 1.251 . S
O78 Co68 2.111 . S
O78 C89 1.274 . S
O79 Co68 2.143 . S
O79 C92 1.246 . S
O80 Co72 2.286 . S
O80 C91 1.259 . S
O81 Co72 2.069 . S
O81 C91 1.289 . S
O82 Co72 2.015 . S
O82 C92 1.257 . S
O83 Co68 2.111 . S
O83 C93 1.274 . S
O84 Co73 1.976 . S
O84 C93 1.251 . S
O85 Co72 2.264 . S
O85 Co73 2.327 . S
O85 C94 1.257 . S
O86 Co73 2.073 . S
O86 C94 1.245 . S
C87 O95 1.259 . S
C87 O96 1.289 . S
C88 O97 1.246 . S
C88 O98 1.257 . S
C89 O77 1.251 . S
C89 O78 1.274 . S
C90 O75 1.245 . S
C90 O76 1.257 . S
C91 O80 1.259 . S
C91 O81 1.289 . S
C92 O79 1.246 . S
C92 O82 1.257 . S
C93 O83 1.274 . S
C93 O84 1.251 . S
C94 O85 1.257 . S
C94 O86 1.245 . S
O95 Co66 2.286 . S
O95 C87 1.259 . S
O96 Co66 2.069 . S
O96 C87 1.289 . S
O97 Co68 2.143 . S
O97 C88 1.246 . S
O98 Co66 2.015 . S
O98 C88 1.257 . S
Co99 O102 2.042 . S
Co99 O109 2.264 . S
Co99 O128 2.286 . S
Co99 O129 2.069 . S
Co99 O131 2.015 . S
Co100 O102 2.122 . S
Co100 O108 2.073 . S
Co100 O109 2.327 . S
Co100 O110 1.976 . S
Co101 O102 2.087 . S
Co101 O104 2.087 . S
Co101 O111 2.111 . S
Co101 O112 2.143 . S
Co101 O116 2.111 . S
Co101 O130 2.143 . S
O102 Co99 2.042 . S
O102 Co100 2.122 . S
O102 Co101 2.087 . S
O102 H103 0.980 . S
H103 O102 0.980 . S
O104 Co101 2.087 . S
O104 Co105 2.042 . S
O104 Co106 2.122 . S
O104 H107 0.980 . S
Co105 O104 2.042 . S
Co105 O113 2.286 . S
Co105 O114 2.069 . S
Co105 O115 2.015 . S
Co105 O118 2.264 . S
Co106 O104 2.122 . S
Co106 O117 1.976 . S
Co106 O118 2.327 . S
Co106 O119 2.073 . S
H107 O104 0.980 . S
O108 Co100 2.073 . S
O108 C123 1.245 . S
O109 Co99 2.264 . S
O109 Co100 2.327 . S
O109 C123 1.257 . S
O110 Co100 1.976 . S
O110 C122 1.251 . S
O111 Co101 2.111 . S
O111 C122 1.274 . S
O112 Co101 2.143 . S
O112 C125 1.246 . S
O113 Co105 2.286 . S
O113 C124 1.259 . S
O114 Co105 2.069 . S
O114 C124 1.289 . S
O115 Co105 2.015 . S
O115 C125 1.257 . S
O116 Co101 2.111 . S
O116 C126 1.274 . S
O117 Co106 1.976 . S
O117 C126 1.251 . S
O118 Co105 2.264 . S
O118 Co106 2.327 . S
O118 C127 1.257 . S
O119 Co106 2.073 . S
O119 C127 1.245 . S
C120 O128 1.259 . S
C120 O129 1.289 . S
C121 O130 1.246 . S
C121 O131 1.257 . S
C122 O110 1.251 . S
C122 O111 1.274 . S
C123 O108 1.245 . S
C123 O109 1.257 . S
C124 O113 1.259 . S
C124 O114 1.289 . S
C125 O112 1.246 . S
C125 O115 1.257 . S
C126 O116 1.274 . S
C126 O117 1.251 . S
C127 O118 1.257 . S
C127 O119 1.245 . S
O128 Co99 2.286 . S
O128 C120 1.259 . S
O129 Co99 2.069 . S
O129 C120 1.289 . S
O130 Co101 2.143 . S
O130 C121 1.246 . S
O131 Co99 2.015 . S
O131 C121 1.257 . S
Co132 O135 2.042 . S
Co132 O142 2.264 . S
Co132 O161 2.286 . S
Co132 O162 2.069 . S
Co132 O164 2.015 . S
Co133 O135 2.122 . S
Co133 O141 2.073 . S
Co133 O142 2.327 . S
Co133 O143 1.976 . S
Co134 O135 2.087 . S
Co134 O137 2.087 . S
Co134 O144 2.111 . S
Co134 O145 2.143 . S
Co134 O149 2.111 . S
Co134 O163 2.143 . S
O135 Co132 2.042 . S
O135 Co133 2.122 . S
O135 Co134 2.087 . S
O135 H136 0.980 . S
H136 O135 0.980 . S
O137 Co134 2.087 . S
O137 Co138 2.042 . S
O137 Co139 2.122 . S
O137 H140 0.980 . S
Co138 O137 2.042 . S
Co138 O146 2.286 . S
Co138 O147 2.069 . S
Co138 O148 2.015 . S
Co138 O151 2.264 . S
Co139 O137 2.122 . S
Co139 O150 1.976 . S
Co139 O151 2.327 . S
Co139 O152 2.073 . S
H140 O137 0.980 . S
O141 Co133 2.073 . S
O141 C156 1.245 . S
O142 Co132 2.264 . S
O142 Co133 2.327 . S
O142 C156 1.257 . S
O143 Co133 1.976 . S
O143 C155 1.251 . S
O144 Co134 2.111 . S
O144 C155 1.274 . S
O145 Co134 2.143 . S
O145 C158 1.246 . S
O146 Co138 2.286 . S
O146 C157 1.259 . S
O147 Co138 2.069 . S
O147 C157 1.289 . S
O148 Co138 2.015 . S
O148 C158 1.257 . S
O149 Co134 2.111 . S
O149 C159 1.274 . S
O150 Co139 1.976 . S
O150 C159 1.251 . S
O151 Co138 2.264 . S
O151 Co139 2.327 . S
O151 C160 1.257 . S
O152 Co139 2.073 . S
O152 C160 1.245 . S
C153 O161 1.259 . S
C153 O162 1.289 . S
C154 O163 1.246 . S
C154 O164 1.257 . S
C155 O143 1.251 . S
C155 O144 1.274 . S
C156 O141 1.245 . S
C156 O142 1.257 . S
C157 O146 1.259 . S
C157 O147 1.289 . S
C158 O145 1.246 . S
C158 O148 1.257 . S
C159 O149 1.274 . S
C159 O150 1.251 . S
C160 O151 1.257 . S
C160 O152 1.245 . S
O161 Co132 2.286 . S
O161 C153 1.259 . S
O162 Co132 2.069 . S
O162 C153 1.289 . S
O163 Co134 2.143 . S
O163 C154 1.246 . S
O164 Co132 2.015 . S
O164 C154 1.257 . S
Co165 O168 2.042 . S
Co165 O175 2.264 . S
Co165 O194 2.286 . S
Co165 O195 2.069 . S
Co165 O197 2.015 . S
Co166 O168 2.122 . S
Co166 O174 2.073 . S
Co166 O175 2.327 . S
Co166 O176 1.976 . S
Co167 O168 2.087 . S
Co167 O170 2.087 . S
Co167 O177 2.111 . S
Co167 O178 2.143 . S
Co167 O182 2.111 . S
Co167 O196 2.143 . S
O168 Co165 2.042 . S
O168 Co166 2.122 . S
O168 Co167 2.087 . S
O168 H169 0.980 . S
H169 O168 0.980 . S
O170 Co167 2.087 . S
O170 Co171 2.042 . S
O170 Co172 2.122 . S
O170 H173 0.980 . S
Co171 O170 2.042 . S
Co171 O179 2.286 . S
Co171 O180 2.069 . S
Co171 O181 2.015 . S
Co171 O184 2.264 . S
Co172 O170 2.122 . S
Co172 O183 1.976 . S
Co172 O184 2.327 . S
Co172 O185 2.073 . S
H173 O170 0.980 . S
O174 Co166 2.073 . S
O174 C189 1.245 . S
O175 Co165 2.264 . S
O175 Co166 2.327 . S
O175 C189 1.257 . S
O176 Co166 1.976 . S
O176 C188 1.251 . S
O177 Co167 2.111 . S
O177 C188 1.274 . S
O178 Co167 2.143 . S
O178 C191 1.246 . S
O179 Co171 2.286 . S
O179 C190 1.259 . S
O180 Co171 2.069 . S
O180 C190 1.289 . S
O181 Co171 2.015 . S
O181 C191 1.257 . S
O182 Co167 2.111 . S
O182 C192 1.274 . S
O183 Co172 1.976 . S
O183 C192 1.251 . S
O184 Co171 2.264 . S
O184 Co172 2.327 . S
O184 C193 1.257 . S
O185 Co172 2.073 . S
O185 C193 1.245 . S
C186 O194 1.259 . S
C186 O195 1.289 . S
C187 O196 1.246 . S
C187 O197 1.257 . S
C188 O176 1.251 . S
C188 O177 1.274 . S
C189 O174 1.245 . S
C189 O175 1.257 . S
C190 O179 1.259 . S
C190 O180 1.289 . S
C191 O178 1.246 . S
C191 O181 1.257 . S
C192 O182 1.274 . S
C192 O183 1.251 . S
C193 O184 1.257 . S
C193 O185 1.245 . S
O194 Co165 2.286 . S
O194 C186 1.259 . S
O195 Co165 2.069 . S
O195 C186 1.289 . S
O196 Co167 2.143 . S
O196 C187 1.246 . S
O197 Co165 2.015 . S
O197 C187 1.257 . S
H198 C216 0.951 . S
H199 C218 0.951 . S
H200 C220 0.950 . S
H201 C221 0.950 . S
H202 C223 0.950 . S
H203 C226 0.950 . S
H204 C227 0.950 . S
H205 C229 0.950 . S
H206 C230 0.950 . S
H207 C231 0.951 . S
H208 C233 0.951 . S
H209 C235 0.950 . S
H210 C236 0.950 . S
H211 C238 0.950 . S
H212 C241 0.950 . S
H213 C242 0.950 . S
H214 C244 0.950 . S
H215 C245 0.950 . S
C216 H198 0.951 . S
C216 C217 1.366 . S
C216 C218 1.388 . S
C217 C216 1.366 . S
C217 C221 1.385 . S
C218 H199 0.951 . S
C218 C216 1.388 . S
C218 C219 1.366 . S
C219 C218 1.366 . S
C219 C220 1.414 . S
C219 C222 1.499 . S
C220 H200 0.950 . S
C220 C219 1.414 . S
C220 C221 1.374 . S
C221 H201 0.950 . S
C221 C217 1.385 . S
C221 C220 1.374 . S
C222 C219 1.499 . S
C222 C223 1.373 . S
C222 C224 1.389 . S
C223 H202 0.950 . S
C223 C222 1.373 . S
C223 C239 1.377 . S
C224 C222 1.389 . S
C224 C225 1.524 . S
C224 C238 1.377 . S
C225 C224 1.524 . S
C225 C226 1.397 . S
C225 C230 1.363 . S
C226 H203 0.950 . S
C226 C225 1.397 . S
C226 C227 1.334 . S
C227 H204 0.950 . S
C227 C226 1.334 . S
C227 C228 1.287 . S
C228 C227 1.287 . S
C228 C229 1.524 . S
C228 H247 0.913 . S
C229 H205 0.950 . S
C229 C228 1.524 . S
C229 C230 1.415 . S
C230 H206 0.950 . S
C230 C225 1.363 . S
C230 C229 1.415 . S
C231 H207 0.951 . S
C231 C232 1.366 . S
C231 C233 1.388 . S
C232 C231 1.366 . S
C232 C236 1.385 . S
C233 H208 0.951 . S
C233 C231 1.388 . S
C233 C234 1.366 . S
C234 C233 1.366 . S
C234 C235 1.414 . S
C234 C237 1.499 . S
C235 H209 0.950 . S
C235 C234 1.414 . S
C235 C236 1.374 . S
C236 H210 0.950 . S
C236 C232 1.385 . S
C236 C235 1.374 . S
C237 C234 1.499 . S
C237 C238 1.373 . S
C237 C239 1.389 . S
C238 H211 0.950 . S
C238 C224 1.377 . S
C238 C237 1.373 . S
C239 C223 1.377 . S
C239 C237 1.389 . S
C239 C240 1.524 . S
C240 C239 1.524 . S
C240 C241 1.397 . S
C240 C245 1.363 . S
C241 H212 0.950 . S
C241 C240 1.397 . S
C241 C242 1.334 . S
C242 H213 0.950 . S
C242 C241 1.334 . S
C242 C243 1.287 . S
C243 C242 1.287 . S
C243 C244 1.524 . S
C243 H246 0.999 . S
C244 H214 0.950 . S
C244 C243 1.524 . S
C244 C245 1.415 . S
C245 H215 0.950 . S
C245 C240 1.363 . S
C245 C244 1.415 . S
H246 C243 0.999 . S
H247 C228 0.913 . S
H248 C266 0.951 . S
H249 C268 0.951 . S
H250 C270 0.950 . S
H251 C271 0.950 . S
H252 C273 0.950 . S
H253 C276 0.950 . S
H254 C277 0.950 . S
H255 C279 0.950 . S
H256 C280 0.950 . S
H257 C281 0.951 . S
H258 C283 0.951 . S
H259 C285 0.950 . S
H260 C286 0.950 . S
H261 C288 0.950 . S
H262 C291 0.950 . S
H263 C292 0.950 . S
H264 C294 0.950 . S
H265 C295 0.950 . S
C266 H248 0.951 . S
C266 C267 1.366 . S
C266 C268 1.388 . S
C267 C266 1.366 . S
C267 C271 1.385 . S
C268 H249 0.951 . S
C268 C266 1.388 . S
C268 C269 1.366 . S
C269 C268 1.366 . S
C269 C270 1.414 . S
C269 C272 1.499 . S
C270 H250 0.950 . S
C270 C269 1.414 . S
C270 C271 1.374 . S
C271 H251 0.950 . S
C271 C267 1.385 . S
C271 C270 1.374 . S
C272 C269 1.499 . S
C272 C273 1.373 . S
C272 C274 1.389 . S
C273 H252 0.950 . S
C273 C272 1.373 . S
C273 C289 1.377 . S
C274 C272 1.389 . S
C274 C275 1.524 . S
C274 C288 1.377 . S
C275 C274 1.524 . S
C275 C276 1.397 . S
C275 C280 1.363 . S
C276 H253 0.950 . S
C276 C275 1.397 . S
C276 C277 1.334 . S
C277 H254 0.950 . S
C277 C276 1.334 . S
C277 C278 1.287 . S
C278 C277 1.287 . S
C278 C279 1.524 . S
C278 H297 0.913 . S
C279 H255 0.950 . S
C279 C278 1.524 . S
C279 C280 1.415 . S
C280 H256 0.950 . S
C280 C275 1.363 . S
C280 C279 1.415 . S
C281 H257 0.951 . S
C281 C282 1.366 . S
C281 C283 1.388 . S
C282 C281 1.366 . S
C282 C286 1.385 . S
C283 H258 0.951 . S
C283 C281 1.388 . S
C283 C284 1.366 . S
C284 C283 1.366 . S
C284 C285 1.414 . S
C284 C287 1.499 . S
C285 H259 0.950 . S
C285 C284 1.414 . S
C285 C286 1.374 . S
C286 H260 0.950 . S
C286 C282 1.385 . S
C286 C285 1.374 . S
C287 C284 1.499 . S
C287 C288 1.373 . S
C287 C289 1.389 . S
C288 H261 0.950 . S
C288 C274 1.377 . S
C288 C287 1.373 . S
C289 C273 1.377 . S
C289 C287 1.389 . S
C289 C290 1.524 . S
C290 C289 1.524 . S
C290 C291 1.397 . S
C290 C295 1.363 . S
C291 H262 0.950 . S
C291 C290 1.397 . S
C291 C292 1.334 . S
C292 H263 0.950 . S
C292 C291 1.334 . S
C292 C293 1.287 . S
C293 C292 1.287 . S
C293 C294 1.524 . S
C293 H296 0.999 . S
C294 H264 0.950 . S
C294 C293 1.524 . S
C294 C295 1.415 . S
C295 H265 0.950 . S
C295 C290 1.363 . S
C295 C294 1.415 . S
H296 C293 0.999 . S
H297 C278 0.913 . S
H298 C316 0.951 . S
H299 C318 0.951 . S
H300 C320 0.950 . S
H301 C321 0.950 . S
H302 C323 0.950 . S
H303 C326 0.950 . S
H304 C327 0.950 . S
H305 C329 0.950 . S
H306 C330 0.950 . S
H307 C331 0.951 . S
H308 C333 0.951 . S
H309 C335 0.950 . S
H310 C336 0.950 . S
H311 C338 0.950 . S
H312 C341 0.950 . S
H313 C342 0.950 . S
H314 C344 0.950 . S
H315 C345 0.950 . S
C316 H298 0.951 . S
C316 C317 1.366 . S
C316 C318 1.388 . S
C317 C316 1.366 . S
C317 C321 1.385 . S
C318 H299 0.951 . S
C318 C316 1.388 . S
C318 C319 1.366 . S
C319 C318 1.366 . S
C319 C320 1.414 . S
C319 C322 1.499 . S
C320 H300 0.950 . S
C320 C319 1.414 . S
C320 C321 1.374 . S
C321 H301 0.950 . S
C321 C317 1.385 . S
C321 C320 1.374 . S
C322 C319 1.499 . S
C322 C323 1.373 . S
C322 C324 1.389 . S
C323 H302 0.950 . S
C323 C322 1.373 . S
C323 C339 1.377 . S
C324 C322 1.389 . S
C324 C325 1.524 . S
C324 C338 1.377 . S
C325 C324 1.524 . S
C325 C326 1.397 . S
C325 C330 1.363 . S
C326 H303 0.950 . S
C326 C325 1.397 . S
C326 C327 1.334 . S
C327 H304 0.950 . S
C327 C326 1.334 . S
C327 C328 1.287 . S
C328 C327 1.287 . S
C328 C329 1.524 . S
C328 H347 0.913 . S
C329 H305 0.950 . S
C329 C328 1.524 . S
C329 C330 1.415 . S
C330 H306 0.950 . S
C330 C325 1.363 . S
C330 C329 1.415 . S
C331 H307 0.951 . S
C331 C332 1.366 . S
C331 C333 1.388 . S
C332 C331 1.366 . S
C332 C336 1.385 . S
C333 H308 0.951 . S
C333 C331 1.388 . S
C333 C334 1.366 . S
C334 C333 1.366 . S
C334 C335 1.414 . S
C334 C337 1.499 . S
C335 H309 0.950 . S
C335 C334 1.414 . S
C335 C336 1.374 . S
C336 H310 0.950 . S
C336 C332 1.385 . S
C336 C335 1.374 . S
C337 C334 1.499 . S
C337 C338 1.373 . S
C337 C339 1.389 . S
C338 H311 0.950 . S
C338 C324 1.377 . S
C338 C337 1.373 . S
C339 C323 1.377 . S
C339 C337 1.389 . S
C339 C340 1.524 . S
C340 C339 1.524 . S
C340 C341 1.397 . S
C340 C345 1.363 . S
C341 H312 0.950 . S
C341 C340 1.397 . S
C341 C342 1.334 . S
C342 H313 0.950 . S
C342 C341 1.334 . S
C342 C343 1.287 . S
C343 C342 1.287 . S
C343 C344 1.524 . S
C343 H346 0.999 . S
C344 H314 0.950 . S
C344 C343 1.524 . S
C344 C345 1.415 . S
C345 H315 0.950 . S
C345 C340 1.363 . S
C345 C344 1.415 . S
H346 C343 0.999 . S
H347 C328 0.913 . S
H348 C366 0.951 . S
H349 C368 0.951 . S
H350 C370 0.950 . S
H351 C371 0.950 . S
H352 C373 0.950 . S
H353 C376 0.950 . S
H354 C377 0.950 . S
H355 C379 0.950 . S
H356 C380 0.950 . S
H357 C381 0.951 . S
H358 C383 0.951 . S
H359 C385 0.950 . S
H360 C386 0.950 . S
H361 C388 0.950 . S
H362 C391 0.950 . S
H363 C392 0.950 . S
H364 C394 0.950 . S
H365 C395 0.950 . S
C366 H348 0.951 . S
C366 C367 1.366 . S
C366 C368 1.388 . S
C367 C366 1.366 . S
C367 C371 1.385 . S
C368 H349 0.951 . S
C368 C366 1.388 . S
C368 C369 1.366 . S
C369 C368 1.366 . S
C369 C370 1.414 . S
C369 C372 1.499 . S
C370 H350 0.950 . S
C370 C369 1.414 . S
C370 C371 1.374 . S
C371 H351 0.950 . S
C371 C367 1.385 . S
C371 C370 1.374 . S
C372 C369 1.499 . S
C372 C373 1.373 . S
C372 C374 1.389 . S
C373 H352 0.950 . S
C373 C372 1.373 . S
C373 C389 1.377 . S
C374 C372 1.389 . S
C374 C375 1.524 . S
C374 C388 1.377 . S
C375 C374 1.524 . S
C375 C376 1.397 . S
C375 C380 1.363 . S
C376 H353 0.950 . S
C376 C375 1.397 . S
C376 C377 1.334 . S
C377 H354 0.950 . S
C377 C376 1.334 . S
C377 C378 1.287 . S
C378 C377 1.287 . S
C378 C379 1.524 . S
C378 H397 0.913 . S
C379 H355 0.950 . S
C379 C378 1.524 . S
C379 C380 1.415 . S
C380 H356 0.950 . S
C380 C375 1.363 . S
C380 C379 1.415 . S
C381 H357 0.951 . S
C381 C382 1.366 . S
C381 C383 1.388 . S
C382 C381 1.366 . S
C382 C386 1.385 . S
C383 H358 0.951 . S
C383 C381 1.388 . S
C383 C384 1.366 . S
C384 C383 1.366 . S
C384 C385 1.414 . S
C384 C387 1.499 . S
C385 H359 0.950 . S
C385 C384 1.414 . S
C385 C386 1.374 . S
C386 H360 0.950 . S
C386 C382 1.385 . S
C386 C385 1.374 . S
C387 C384 1.499 . S
C387 C388 1.373 . S
C387 C389 1.389 . S
C388 H361 0.950 . S
C388 C374 1.377 . S
C388 C387 1.373 . S
C389 C373 1.377 . S
C389 C387 1.389 . S
C389 C390 1.524 . S
C390 C389 1.524 . S
C390 C391 1.397 . S
C390 C395 1.363 . S
C391 H362 0.950 . S
C391 C390 1.397 . S
C391 C392 1.334 . S
C392 H363 0.950 . S
C392 C391 1.334 . S
C392 C393 1.287 . S
C393 C392 1.287 . S
C393 C394 1.524 . S
C393 H396 0.999 . S
C394 H364 0.950 . S
C394 C393 1.524 . S
C394 C395 1.415 . S
C395 H365 0.950 . S
C395 C390 1.363 . S
C395 C394 1.415 . S
H396 C393 0.999 . S
H397 C378 0.913 . S
H398 C416 0.951 . S
H399 C418 0.951 . S
H400 C420 0.950 . S
H401 C421 0.950 . S
H402 C423 0.950 . S
H403 C426 0.950 . S
H404 C427 0.950 . S
H405 C429 0.950 . S
H406 C430 0.950 . S
H407 C431 0.951 . S
H408 C433 0.951 . S
H409 C435 0.950 . S
H410 C436 0.950 . S
H411 C438 0.950 . S
H412 C441 0.950 . S
H413 C442 0.950 . S
H414 C444 0.950 . S
H415 C445 0.950 . S
C416 H398 0.951 . S
C416 C417 1.366 . S
C416 C418 1.388 . S
C417 C416 1.366 . S
C417 C421 1.385 . S
C418 H399 0.951 . S
C418 C416 1.388 . S
C418 C419 1.366 . S
C419 C418 1.366 . S
C419 C420 1.414 . S
C419 C422 1.499 . S
C420 H400 0.950 . S
C420 C419 1.414 . S
C420 C421 1.374 . S
C421 H401 0.950 . S
C421 C417 1.385 . S
C421 C420 1.374 . S
C422 C419 1.499 . S
C422 C423 1.373 . S
C422 C424 1.389 . S
C423 H402 0.950 . S
C423 C422 1.373 . S
C423 C439 1.377 . S
C424 C422 1.389 . S
C424 C425 1.524 . S
C424 C438 1.377 . S
C425 C424 1.524 . S
C425 C426 1.397 . S
C425 C430 1.363 . S
C426 H403 0.950 . S
C426 C425 1.397 . S
C426 C427 1.334 . S
C427 H404 0.950 . S
C427 C426 1.334 . S
C427 C428 1.287 . S
C428 C427 1.287 . S
C428 C429 1.524 . S
C428 H447 0.913 . S
C429 H405 0.950 . S
C429 C428 1.524 . S
C429 C430 1.415 . S
C430 H406 0.950 . S
C430 C425 1.363 . S
C430 C429 1.415 . S
C431 H407 0.951 . S
C431 C432 1.366 . S
C431 C433 1.388 . S
C432 C431 1.366 . S
C432 C436 1.385 . S
C433 H408 0.951 . S
C433 C431 1.388 . S
C433 C434 1.366 . S
C434 C433 1.366 . S
C434 C435 1.414 . S
C434 C437 1.499 . S
C435 H409 0.950 . S
C435 C434 1.414 . S
C435 C436 1.374 . S
C436 H410 0.950 . S
C436 C432 1.385 . S
C436 C435 1.374 . S
C437 C434 1.499 . S
C437 C438 1.373 . S
C437 C439 1.389 . S
C438 H411 0.950 . S
C438 C424 1.377 . S
C438 C437 1.373 . S
C439 C423 1.377 . S
C439 C437 1.389 . S
C439 C440 1.524 . S
C440 C439 1.524 . S
C440 C441 1.397 . S
C440 C445 1.363 . S
C441 H412 0.950 . S
C441 C440 1.397 . S
C441 C442 1.334 . S
C442 H413 0.950 . S
C442 C441 1.334 . S
C442 C443 1.287 . S
C443 C442 1.287 . S
C443 C444 1.524 . S
C443 H446 0.999 . S
C444 H414 0.950 . S
C444 C443 1.524 . S
C444 C445 1.415 . S
C445 H415 0.950 . S
C445 C440 1.363 . S
C445 C444 1.415 . S
H446 C443 0.999 . S
H447 C428 0.913 . S
H448 C466 0.951 . S
H449 C468 0.951 . S
H450 C470 0.950 . S
H451 C471 0.950 . S
H452 C473 0.950 . S
H453 C476 0.950 . S
H454 C477 0.950 . S
H455 C479 0.950 . S
H456 C480 0.950 . S
H457 C481 0.951 . S
H458 C483 0.951 . S
H459 C485 0.950 . S
H460 C486 0.950 . S
H461 C488 0.950 . S
H462 C491 0.950 . S
H463 C492 0.950 . S
H464 C494 0.950 . S
H465 C495 0.950 . S
C466 H448 0.951 . S
C466 C467 1.366 . S
C466 C468 1.388 . S
C467 C466 1.366 . S
C467 C471 1.385 . S
C468 H449 0.951 . S
C468 C466 1.388 . S
C468 C469 1.366 . S
C469 C468 1.366 . S
C469 C470 1.414 . S
C469 C472 1.499 . S
C470 H450 0.950 . S
C470 C469 1.414 . S
C470 C471 1.374 . S
C471 H451 0.950 . S
C471 C467 1.385 . S
C471 C470 1.374 . S
C472 C469 1.499 . S
C472 C473 1.373 . S
C472 C474 1.389 . S
C473 H452 0.950 . S
C473 C472 1.373 . S
C473 C489 1.377 . S
C474 C472 1.389 . S
C474 C475 1.524 . S
C474 C488 1.377 . S
C475 C474 1.524 . S
C475 C476 1.397 . S
C475 C480 1.363 . S
C476 H453 0.950 . S
C476 C475 1.397 . S
C476 C477 1.334 . S
C477 H454 0.950 . S
C477 C476 1.334 . S
C477 C478 1.287 . S
C478 C477 1.287 . S
C478 C479 1.524 . S
C478 H497 0.913 . S
C479 H455 0.950 . S
C479 C478 1.524 . S
C479 C480 1.415 . S
C480 H456 0.950 . S
C480 C475 1.363 . S
C480 C479 1.415 . S
C481 H457 0.951 . S
C481 C482 1.366 . S
C481 C483 1.388 . S
C482 C481 1.366 . S
C482 C486 1.385 . S
C483 H458 0.951 . S
C483 C481 1.388 . S
C483 C484 1.366 . S
C484 C483 1.366 . S
C484 C485 1.414 . S
C484 C487 1.499 . S
C485 H459 0.950 . S
C485 C484 1.414 . S
C485 C486 1.374 . S
C486 H460 0.950 . S
C486 C482 1.385 . S
C486 C485 1.374 . S
C487 C484 1.499 . S
C487 C488 1.373 . S
C487 C489 1.389 . S
C488 H461 0.950 . S
C488 C474 1.377 . S
C488 C487 1.373 . S
C489 C473 1.377 . S
C489 C487 1.389 . S
C489 C490 1.524 . S
C490 C489 1.524 . S
C490 C491 1.397 . S
C490 C495 1.363 . S
C491 H462 0.950 . S
C491 C490 1.397 . S
C491 C492 1.334 . S
C492 H463 0.950 . S
C492 C491 1.334 . S
C492 C493 1.287 . S
C493 C492 1.287 . S
C493 C494 1.524 . S
C493 H496 0.999 . S
C494 H464 0.950 . S
C494 C493 1.524 . S
C494 C495 1.415 . S
C495 H465 0.950 . S
C495 C490 1.363 . S
C495 C494 1.415 . S
H496 C493 0.999 . S
H497 C478 0.913 . S
H498 C516 0.951 . S
H499 C518 0.951 . S
H500 C520 0.950 . S
H501 C521 0.950 . S
H502 C523 0.950 . S
H503 C526 0.950 . S
H504 C527 0.950 . S
H505 C529 0.950 . S
H506 C530 0.950 . S
H507 C531 0.951 . S
H508 C533 0.951 . S
H509 C535 0.950 . S
H510 C536 0.950 . S
H511 C538 0.950 . S
H512 C541 0.950 . S
H513 C542 0.950 . S
H514 C544 0.950 . S
H515 C545 0.950 . S
C516 H498 0.951 . S
C516 C517 1.366 . S
C516 C518 1.388 . S
C517 C516 1.366 . S
C517 C521 1.385 . S
C518 H499 0.951 . S
C518 C516 1.388 . S
C518 C519 1.366 . S
C519 C518 1.366 . S
C519 C520 1.414 . S
C519 C522 1.499 . S
C520 H500 0.950 . S
C520 C519 1.414 . S
C520 C521 1.374 . S
C521 H501 0.950 . S
C521 C517 1.385 . S
C521 C520 1.374 . S
C522 C519 1.499 . S
C522 C523 1.373 . S
C522 C524 1.389 . S
C523 H502 0.950 . S
C523 C522 1.373 . S
C523 C539 1.377 . S
C524 C522 1.389 . S
C524 C525 1.524 . S
C524 C538 1.377 . S
C525 C524 1.524 . S
C525 C526 1.397 . S
C525 C530 1.363 . S
C526 H503 0.950 . S
C526 C525 1.397 . S
C526 C527 1.334 . S
C527 H504 0.950 . S
C527 C526 1.334 . S
C527 C528 1.280 1_455 S
C528 C527 1.280 1_655 S
C528 C529 1.522 . S
C528 H547 0.923 . S
C529 H505 0.950 . S
C529 C528 1.522 . S
C529 C530 1.415 1_655 S
C530 H506 0.950 . S
C530 C525 1.363 . S
C530 C529 1.415 1_455 S
C531 H507 0.951 . S
C531 C532 1.366 . S
C531 C533 1.388 1_565 S
C532 C531 1.366 . S
C532 C536 1.385 . S
C533 H508 0.951 . S
C533 C531 1.388 1_545 S
C533 C534 1.366 . S
C534 C533 1.366 . S
C534 C535 1.414 1_545 S
C534 C537 1.499 . S
C535 H509 0.950 . S
C535 C534 1.414 1_565 S
C535 C536 1.374 . S
C536 H510 0.950 . S
C536 C532 1.385 . S
C536 C535 1.374 . S
C537 C534 1.499 . S
C537 C538 1.373 . S
C537 C539 1.389 . S
C538 H511 0.950 . S
C538 C524 1.377 . S
C538 C537 1.373 . S
C539 C523 1.377 . S
C539 C537 1.389 . S
C539 C540 1.524 . S
C540 C539 1.524 . S
C540 C541 1.397 . S
C540 C545 1.363 . S
C541 H512 0.950 . S
C541 C540 1.397 . S
C541 C542 1.334 . S
C542 H513 0.950 . S
C542 C541 1.334 . S
C542 C543 1.287 . S
C543 C542 1.287 . S
C543 C544 1.524 . S
C543 H546 0.999 . S
C544 H514 0.950 . S
C544 C543 1.524 . S
C544 C545 1.415 . S
C545 H515 0.950 . S
C545 C540 1.363 . S
C545 C544 1.415 . S
H546 C543 0.999 . S
H547 C528 0.923 . S
H548 C566 0.951 . S
H549 C568 0.951 . S
H550 C570 0.950 . S
H551 C571 0.950 . S
H552 C573 0.954 . S
H553 C576 0.950 . S
H554 C577 0.950 1_655 S
H555 C579 0.950 . S
H556 C580 0.950 . S
H557 C581 0.951 . S
H558 C583 0.951 . S
H559 C585 0.950 . S
H560 C586 0.950 . S
H561 C588 0.950 . S
H562 C591 0.950 . S
H563 C592 0.950 . S
H564 C594 0.950 1_565 S
H565 C595 0.950 . S
C566 H548 0.951 . S
C566 C567 1.366 . S
C566 C568 1.388 . S
C567 C566 1.366 . S
C567 C571 1.385 . S
C568 H549 0.951 . S
C568 C566 1.388 . S
C568 C569 1.366 . S
C569 C568 1.366 . S
C569 C570 1.414 . S
C569 C572 1.499 1_655 S
C570 H550 0.950 . S
C570 C569 1.414 . S
C570 C571 1.374 . S
C571 H551 0.950 . S
C571 C567 1.385 . S
C571 C570 1.374 . S
C572 C569 1.499 1_455 S
C572 C573 1.373 . S
C572 C574 1.389 . S
C573 H552 0.954 . S
C573 C572 1.373 . S
C573 C589 1.377 . S
C574 C572 1.389 . S
C574 C575 1.524 . S
C574 C588 1.377 . S
C575 C574 1.524 . S
C575 C576 1.397 . S
C575 C580 1.363 . S
C576 H553 0.950 . S
C576 C575 1.397 . S
C576 C577 1.334 . S
C577 H554 0.950 1_455 S
C577 C576 1.334 . S
C577 C578 1.287 . S
C578 C577 1.287 . S
C578 C579 1.524 . S
C578 H597 0.913 . S
C579 H555 0.950 . S
C579 C578 1.524 . S
C579 C580 1.415 . S
C580 H556 0.950 . S
C580 C575 1.363 . S
C580 C579 1.415 . S
C581 H557 0.951 . S
C581 C582 1.366 . S
C581 C583 1.388 . S
C582 C581 1.366 . S
C582 C586 1.385 . S
C583 H558 0.951 . S
C583 C581 1.388 . S
C583 C584 1.366 . S
C584 C583 1.366 . S
C584 C585 1.414 . S
C584 C587 1.499 . S
C585 H559 0.950 . S
C585 C584 1.414 . S
C585 C586 1.374 . S
C586 H560 0.950 . S
C586 C582 1.385 . S
C586 C585 1.374 . S
C587 C584 1.499 . S
C587 C588 1.373 . S
C587 C589 1.389 . S
C588 H561 0.950 . S
C588 C574 1.377 . S
C588 C587 1.373 . S
C589 C573 1.377 . S
C589 C587 1.389 . S
C589 C590 1.524 . S
C590 C589 1.524 . S
C590 C591 1.397 . S
C590 C595 1.363 . S
C591 H562 0.950 . S
C591 C590 1.397 . S
C591 C592 1.334 . S
C592 H563 0.950 . S
C592 C591 1.334 . S
C592 C593 1.287 . S
C593 C592 1.287 . S
C593 C594 1.524 . S
C593 H596 0.999 . S
C594 H564 0.950 1_545 S
C594 C593 1.524 . S
C594 C595 1.415 . S
C595 H565 0.950 . S
C595 C590 1.363 . S
C595 C594 1.415 . S
H596 C593 0.999 . S
H597 C578 0.913 . S
H598 C616 0.951 . S
H599 C618 0.951 . S
H600 C620 0.950 . S
H601 C621 0.950 . S
H602 C623 0.950 . S
H603 C626 0.950 1_455 S
H604 C627 0.950 . S
H605 C629 0.950 . S
H606 C630 0.950 . S
H607 C631 0.951 . S
H608 C633 0.951 . S
H609 C635 0.950 . S
H610 C636 0.950 . S
H611 C638 0.950 . S
H612 C641 0.950 . S
H613 C642 0.950 1_565 S
H614 C644 0.950 . S
H615 C645 0.950 . S
C616 H598 0.951 . S
C616 C617 1.366 . S
C616 C618 1.388 1_455 S
C617 C616 1.366 . S
C617 C621 1.385 . S
C618 H599 0.951 . S
C618 C616 1.388 1_655 S
C618 C619 1.366 . S
C619 C618 1.366 . S
C619 C620 1.414 1_655 S
C619 C622 1.499 . S
C620 H600 0.950 . S
C620 C619 1.414 1_455 S
C620 C621 1.374 . S
C621 H601 0.950 . S
C621 C617 1.385 . S
C621 C620 1.374 . S
C622 C619 1.499 . S
C622 C623 1.373 . S
C622 C624 1.389 . S
C623 H602 0.950 . S
C623 C622 1.373 . S
C623 C639 1.377 . S
C624 C622 1.389 . S
C624 C625 1.524 . S
C624 C638 1.377 . S
C625 C624 1.524 . S
C625 C626 1.397 . S
C625 C630 1.363 . S
C626 H603 0.950 1_655 S
C626 C625 1.397 . S
C626 C627 1.334 1_655 S
C627 H604 0.950 . S
C627 C626 1.334 1_455 S
C627 C628 1.287 1_455 S
C628 C627 1.287 1_655 S
C628 C629 1.524 . S
C628 H647 0.913 1_655 S
C629 H605 0.950 . S
C629 C628 1.524 . S
C629 C630 1.415 . S
C630 H606 0.950 . S
C630 C625 1.363 . S
C630 C629 1.415 . S
C631 H607 0.951 . S
C631 C632 1.366 . S
C631 C633 1.388 . S
C632 C631 1.366 . S
C632 C636 1.385 . S
C633 H608 0.951 . S
C633 C631 1.388 . S
C633 C634 1.366 . S
C634 C633 1.366 . S
C634 C635 1.414 . S
C634 C637 1.499 1_565 S
C635 H609 0.950 . S
C635 C634 1.414 . S
C635 C636 1.374 . S
C636 H610 0.950 . S
C636 C632 1.385 . S
C636 C635 1.374 . S
C637 C634 1.499 1_545 S
C637 C638 1.373 . S
C637 C639 1.389 . S
C638 H611 0.950 . S
C638 C624 1.377 . S
C638 C637 1.373 . S
C639 C623 1.377 . S
C639 C637 1.389 . S
C639 C640 1.524 . S
C640 C639 1.524 . S
C640 C641 1.397 . S
C640 C645 1.363 . S
C641 H612 0.950 . S
C641 C640 1.397 . S
C641 C642 1.334 . S
C642 H613 0.950 1_545 S
C642 C641 1.334 . S
C642 C643 1.287 . S
C643 C642 1.287 . S
C643 C644 1.524 . S
C643 H646 0.999 1_545 S
C644 H614 0.950 . S
C644 C643 1.524 . S
C644 C645 1.415 . S
C645 H615 0.950 . S
C645 C640 1.363 . S
C645 C644 1.415 . S
H646 C643 0.999 1_565 S
H647 C628 0.913 1_455 S
H648 C666 0.951 . S
H649 C668 0.951 . S
H650 C670 0.950 . S
H651 C671 0.950 . S
H652 C673 0.950 . S
H653 C676 0.950 . S
H654 C677 0.950 . S
H655 C679 0.950 . S
H656 C680 0.950 . S
H657 C681 0.951 . S
H658 C683 0.951 . S
H659 C685 0.950 . S
H660 C686 0.950 . S
H661 C688 0.950 . S
H662 C691 0.950 . S
H663 C692 0.950 . S
H664 C694 0.950 1_455 S
H665 C695 0.950 . S
C666 H648 0.951 . S
C666 C667 1.366 . S
C666 C668 1.388 1_545 S
C667 C666 1.366 . S
C667 C671 1.385 . S
C668 H649 0.951 . S
C668 C666 1.388 1_565 S
C668 C669 1.366 . S
C669 C668 1.366 . S
C669 C670 1.414 1_565 S
C669 C672 1.499 . S
C670 H650 0.950 . S
C670 C669 1.414 1_545 S
C670 C671 1.374 . S
C671 H651 0.950 . S
C671 C667 1.385 . S
C671 C670 1.374 . S
C672 C669 1.499 . S
C672 C673 1.373 . S
C672 C674 1.389 . S
C673 H652 0.950 . S
C673 C672 1.373 . S
C673 C689 1.377 . S
C674 C672 1.389 . S
C674 C675 1.524 . S
C674 C688 1.377 . S
C675 C674 1.524 . S
C675 C676 1.397 . S
C675 C680 1.363 . S
C676 H653 0.950 . S
C676 C675 1.397 . S
C676 C677 1.334 . S
C677 H654 0.950 . S
C677 C676 1.334 . S
C677 C678 1.287 . S
C678 C677 1.287 . S
C678 C679 1.524 . S
C678 H697 0.913 . S
C679 H655 0.950 . S
C679 C678 1.524 . S
C679 C680 1.415 . S
C680 H656 0.950 . S
C680 C675 1.363 . S
C680 C679 1.415 . S
C681 H657 0.951 . S
C681 C682 1.366 . S
C681 C683 1.388 . S
C682 C681 1.366 . S
C682 C686 1.385 . S
C683 H658 0.951 . S
C683 C681 1.388 . S
C683 C684 1.366 . S
C684 C683 1.366 . S
C684 C685 1.414 . S
C684 C687 1.499 . S
C685 H659 0.950 . S
C685 C684 1.414 . S
C685 C686 1.374 . S
C686 H660 0.950 . S
C686 C682 1.385 . S
C686 C685 1.374 . S
C687 C684 1.499 . S
C687 C688 1.373 . S
C687 C689 1.389 . S
C688 H661 0.950 . S
C688 C674 1.377 . S
C688 C687 1.373 . S
C689 C673 1.377 . S
C689 C687 1.389 . S
C689 C690 1.524 . S
C690 C689 1.524 . S
C690 C691 1.397 . S
C690 C695 1.363 . S
C691 H662 0.950 . S
C691 C690 1.397 . S
C691 C692 1.334 . S
C692 H663 0.950 . S
C692 C691 1.334 . S
C692 C693 1.287 . S
C693 C692 1.287 . S
C693 C694 1.524 . S
C693 H696 0.999 . S
C694 H664 0.950 1_655 S
C694 C693 1.524 . S
C694 C695 1.415 . S
C695 H665 0.950 . S
C695 C690 1.363 . S
C695 C694 1.415 . S
H696 C693 0.999 . S
H697 C678 0.913 . S
H698 C716 0.951 . S
H699 C718 0.951 . S
H700 C720 0.950 . S
H701 C721 0.950 . S
H702 C723 0.950 . S
H703 C726 0.950 . S
H704 C727 0.950 . S
H705 C729 0.950 . S
H706 C730 0.950 . S
H707 C731 0.951 . S
H708 C733 0.951 . S
H709 C735 0.950 . S
H710 C736 0.950 . S
H711 C738 0.950 . S
H712 C741 0.950 . S
H713 C742 0.950 . S
H714 C744 0.950 . S
H715 C745 0.950 1_655 S
C716 H698 0.951 . S
C716 C717 1.366 . S
C716 C718 1.388 . S
C717 C716 1.366 . S
C717 C721 1.385 . S
C718 H699 0.951 . S
C718 C716 1.388 . S
C718 C719 1.366 . S
C719 C718 1.366 . S
C719 C720 1.414 . S
C719 C722 1.499 . S
C720 H700 0.950 . S
C720 C719 1.414 . S
C720 C721 1.374 . S
C721 H701 0.950 . S
C721 C717 1.385 . S
C721 C720 1.374 . S
C722 C719 1.499 . S
C722 C723 1.373 . S
C722 C724 1.389 . S
C723 H702 0.950 . S
C723 C722 1.373 . S
C723 C739 1.377 . S
C724 C722 1.389 . S
C724 C725 1.524 . S
C724 C738 1.377 . S
C725 C724 1.524 . S
C725 C726 1.397 . S
C725 C730 1.363 . S
C726 H703 0.950 . S
C726 C725 1.397 . S
C726 C727 1.334 . S
C727 H704 0.950 . S
C727 C726 1.334 . S
C727 C728 1.287 . S
C728 C727 1.287 . S
C728 C729 1.524 . S
C728 H747 0.913 . S
C729 H705 0.950 . S
C729 C728 1.524 . S
C729 C730 1.415 . S
C730 H706 0.950 . S
C730 C725 1.363 . S
C730 C729 1.415 . S
C731 H707 0.951 . S
C731 C732 1.366 . S
C731 C733 1.388 . S
C732 C731 1.366 . S
C732 C736 1.385 . S
C733 H708 0.951 . S
C733 C731 1.388 . S
C733 C734 1.366 . S
C734 C733 1.366 . S
C734 C735 1.414 . S
C734 C737 1.499 1_455 S
C735 H709 0.950 . S
C735 C734 1.414 . S
C735 C736 1.374 . S
C736 H710 0.950 . S
C736 C732 1.385 . S
C736 C735 1.374 . S
C737 C734 1.499 1_655 S
C737 C738 1.373 . S
C737 C739 1.389 . S
C738 H711 0.950 . S
C738 C724 1.377 . S
C738 C737 1.373 . S
C739 C723 1.377 . S
C739 C737 1.389 . S
C739 C740 1.524 . S
C740 C739 1.524 . S
C740 C741 1.397 1_655 S
C740 C745 1.363 1_655 S
C741 H712 0.950 . S
C741 C740 1.397 1_455 S
C741 C742 1.334 . S
C742 H713 0.950 . S
C742 C741 1.334 . S
C742 C743 1.287 . S
C743 C742 1.287 . S
C743 C744 1.524 . S
C743 H746 0.999 . S
C744 H714 0.950 . S
C744 C743 1.524 . S
C744 C745 1.415 . S
C745 H715 0.950 1_455 S
C745 C740 1.363 1_455 S
C745 C744 1.415 . S
H746 C743 0.999 . S
H747 C728 0.913 . S
H748 C766 0.951 . S
H749 C768 0.951 . S
H750 C770 0.950 . S
H751 C771 0.950 . S
H752 C773 0.911 1_545 S
H753 C776 0.950 . S
H754 C777 0.950 1_545 S
H755 C779 0.950 . S
H756 C780 0.950 . S
H757 C781 0.951 . S
H758 C783 0.951 . S
H759 C785 0.950 . S
H760 C786 0.950 . S
H761 C788 0.950 . S
H762 C791 0.950 . S
H763 C792 0.950 . S
H764 C794 0.950 . S
H765 C795 0.950 . S
C766 H748 0.951 . S
C766 C767 1.366 . S
C766 C768 1.388 . S
C767 C766 1.366 . S
C767 C771 1.385 . S
C768 H749 0.951 . S
C768 C766 1.388 . S
C768 C769 1.366 . S
C769 C768 1.366 . S
C769 C770 1.414 . S
C769 C772 1.499 1_545 S
C770 H750 0.950 . S
C770 C769 1.414 . S
C770 C771 1.374 . S
C771 H751 0.950 . S
C771 C767 1.385 . S
C771 C770 1.374 . S
C772 C769 1.499 1_565 S
C772 C773 1.373 . S
C772 C774 1.389 . S
C773 H752 0.911 1_565 S
C773 C772 1.373 . S
C773 C789 1.377 . S
C774 C772 1.389 . S
C774 C775 1.524 . S
C774 C788 1.377 . S
C775 C774 1.524 . S
C775 C776 1.397 . S
C775 C780 1.363 . S
C776 H753 0.950 . S
C776 C775 1.397 . S
C776 C777 1.334 . S
C777 H754 0.950 1_565 S
C777 C776 1.334 . S
C777 C778 1.287 . S
C778 C777 1.287 . S
C778 C779 1.524 . S
C778 H797 0.913 . S
C779 H755 0.950 . S
C779 C778 1.524 . S
C779 C780 1.415 . S
C780 H756 0.950 . S
C780 C775 1.363 . S
C780 C779 1.415 . S
C781 H757 0.951 . S
C781 C782 1.366 . S
C781 C783 1.388 . S
C782 C781 1.366 . S
C782 C786 1.385 . S
C783 H758 0.951 . S
C783 C781 1.388 . S
C783 C784 1.366 1_655 S
C784 C783 1.366 1_455 S
C784 C785 1.414 . S
C784 C787 1.499 . S
C785 H759 0.950 . S
C785 C784 1.414 . S
C785 C786 1.374 1_455 S
C786 H760 0.950 . S
C786 C782 1.385 . S
C786 C785 1.374 1_655 S
C787 C784 1.499 . S
C787 C788 1.373 . S
C787 C789 1.389 . S
C788 H761 0.950 . S
C788 C774 1.377 . S
C788 C787 1.373 . S
C789 C773 1.377 . S
C789 C787 1.389 . S
C789 C790 1.524 . S
C790 C789 1.524 . S
C790 C791 1.397 . S
C790 C795 1.363 . S
C791 H762 0.950 . S
C791 C790 1.397 . S
C791 C792 1.334 1_455 S
C792 H763 0.950 . S
C792 C791 1.334 1_655 S
C792 C793 1.287 . S
C793 C792 1.287 . S
C793 C794 1.524 . S
C793 H796 0.999 . S
C794 H764 0.950 . S
C794 C793 1.524 . S
C794 C795 1.415 1_655 S
C795 H765 0.950 . S
C795 C790 1.363 . S
C795 C794 1.415 1_455 S
H796 C793 0.999 . S
H797 C778 0.913 . S
H798 C816 0.951 . S
H799 C818 0.951 . S
H800 C820 0.950 . S
H801 C821 0.950 . S
H802 C823 0.950 . S
H803 C826 0.950 . S
H804 C827 0.950 . S
H805 C829 0.950 . S
H806 C830 0.950 . S
H807 C831 0.951 . S
H808 C833 0.951 . S
H809 C835 0.950 . S
H810 C836 0.950 . S
H811 C838 0.950 . S
H812 C841 0.950 . S
H813 C842 0.950 . S
H814 C844 0.950 . S
H815 C845 0.950 . S
C816 H798 0.951 . S
C816 C817 1.366 . S
C816 C818 1.388 . S
C817 C816 1.366 . S
C817 C821 1.385 . S
C818 H799 0.951 . S
C818 C816 1.388 . S
C818 C819 1.366 . S
C819 C818 1.366 . S
C819 C820 1.414 . S
C819 C822 1.499 . S
C820 H800 0.950 . S
C820 C819 1.414 . S
C820 C821 1.374 . S
C821 H801 0.950 . S
C821 C817 1.385 . S
C821 C820 1.374 . S
C822 C819 1.499 . S
C822 C823 1.373 . S
C822 C824 1.389 . S
C823 H802 0.950 . S
C823 C822 1.373 . S
C823 C839 1.377 1_554 S
C824 C822 1.389 . S
C824 C825 1.524 . S
C824 C838 1.377 1_554 S
C825 C824 1.524 . S
C825 C826 1.397 . S
C825 C830 1.363 . S
C826 H803 0.950 . S
C826 C825 1.397 . S
C826 C827 1.334 . S
C827 H804 0.950 . S
C827 C826 1.334 . S
C827 C828 1.287 . S
C828 C827 1.287 . S
C828 C829 1.524 . S
C828 H847 0.913 . S
C829 H805 0.950 . S
C829 C828 1.524 . S
C829 C830 1.415 . S
C830 H806 0.950 . S
C830 C825 1.363 . S
C830 C829 1.415 . S
C831 H807 0.951 . S
C831 C832 1.366 . S
C831 C833 1.388 . S
C832 C831 1.366 . S
C832 C836 1.385 . S
C833 H808 0.951 . S
C833 C831 1.388 . S
C833 C834 1.366 . S
C834 C833 1.366 . S
C834 C835 1.414 . S
C834 C837 1.499 . S
C835 H809 0.950 . S
C835 C834 1.414 . S
C835 C836 1.374 . S
C836 H810 0.950 . S
C836 C832 1.385 . S
C836 C835 1.374 . S
C837 C834 1.499 . S
C837 C838 1.373 . S
C837 C839 1.389 . S
C838 H811 0.950 . S
C838 C824 1.377 1_556 S
C838 C837 1.373 . S
C839 C823 1.377 1_556 S
C839 C837 1.389 . S
C839 C840 1.524 . S
C840 C839 1.524 . S
C840 C841 1.397 . S
C840 C845 1.363 . S
C841 H812 0.950 . S
C841 C840 1.397 . S
C841 C842 1.334 . S
C842 H813 0.950 . S
C842 C841 1.334 . S
C842 C843 1.287 . S
C843 C842 1.287 . S
C843 C844 1.524 . S
C843 H846 0.999 . S
C844 H814 0.950 . S
C844 C843 1.524 . S
C844 C845 1.415 . S
C845 H815 0.950 . S
C845 C840 1.363 . S
C845 C844 1.415 . S
H846 C843 0.999 . S
H847 C828 0.913 . S
H848 C866 0.951 . S
H849 C868 0.951 . S
H850 C870 0.950 . S
H851 C871 0.950 . S
H852 C873 0.950 . S
H853 C876 0.950 . S
H854 C877 0.950 1_655 S
H855 C879 0.950 . S
H856 C880 0.950 . S
H857 C881 0.951 . S
H858 C883 0.951 . S
H859 C885 0.950 . S
H860 C886 0.950 . S
H861 C888 0.950 . S
H862 C891 0.950 . S
H863 C892 0.950 . S
H864 C894 0.950 . S
H865 C895 0.950 . S
C866 H848 0.951 . S
C866 C867 1.366 . S
C866 C868 1.388 . S
C867 C866 1.366 . S
C867 C871 1.385 . S
C868 H849 0.951 . S
C868 C866 1.388 . S
C868 C869 1.366 . S
C869 C868 1.366 . S
C869 C870 1.414 . S
C869 C872 1.499 . S
C870 H850 0.950 . S
C870 C869 1.414 . S
C870 C871 1.374 . S
C871 H851 0.950 . S
C871 C867 1.385 . S
C871 C870 1.374 . S
C872 C869 1.499 . S
C872 C873 1.373 . S
C872 C874 1.389 . S
C873 H852 0.950 . S
C873 C872 1.373 . S
C873 C889 1.377 . S
C874 C872 1.389 . S
C874 C875 1.524 1_655 S
C874 C888 1.377 1_655 S
C875 C874 1.524 1_455 S
C875 C876 1.397 1_455 S
C875 C880 1.363 . S
C876 H853 0.950 . S
C876 C875 1.397 1_655 S
C876 C877 1.334 1_655 S
C877 H854 0.950 1_455 S
C877 C876 1.334 1_455 S
C877 C878 1.287 . S
C878 C877 1.287 . S
C878 C879 1.524 . S
C878 H897 0.913 . S
C879 H855 0.950 . S
C879 C878 1.524 . S
C879 C880 1.415 . S
C880 H856 0.950 . S
C880 C875 1.363 . S
C880 C879 1.415 . S
C881 H857 0.951 . S
C881 C882 1.366 . S
C881 C883 1.388 . S
C882 C881 1.366 . S
C882 C886 1.385 . S
C883 H858 0.951 . S
C883 C881 1.388 . S
C883 C884 1.366 . S
C884 C883 1.366 . S
C884 C885 1.414 . S
C884 C887 1.499 . S
C885 H859 0.950 . S
C885 C884 1.414 . S
C885 C886 1.374 . S
C886 H860 0.950 . S
C886 C882 1.385 . S
C886 C885 1.374 . S
C887 C884 1.499 . S
C887 C888 1.373 . S
C887 C889 1.389 1_455 S
C888 H861 0.950 . S
C888 C874 1.377 1_455 S
C888 C887 1.373 . S
C889 C873 1.377 . S
C889 C887 1.389 1_655 S
C889 C890 1.524 . S
C890 C889 1.524 . S
C890 C891 1.397 . S
C890 C895 1.363 . S
C891 H862 0.950 . S
C891 C890 1.397 . S
C891 C892 1.334 . S
C892 H863 0.950 . S
C892 C891 1.334 . S
C892 C893 1.287 . S
C893 C892 1.287 . S
C893 C894 1.524 . S
C893 H896 0.999 . S
C894 H864 0.950 . S
C894 C893 1.524 . S
C894 C895 1.415 . S
C895 H865 0.950 . S
C895 C890 1.363 . S
C895 C894 1.415 . S
H896 C893 0.999 . S
H897 C878 0.913 . S
H898 C916 0.951 . S
H899 C918 0.951 . S
H900 C920 0.950 . S
H901 C921 0.950 . S
H902 C923 0.950 . S
H903 C926 0.950 . S
H904 C927 0.950 . S
H905 C929 0.950 . S
H906 C930 0.950 . S
H907 C931 0.951 . S
H908 C933 0.951 . S
H909 C935 0.950 . S
H910 C936 0.950 . S
H911 C938 0.956 . S
H912 C941 0.950 . S
H913 C942 0.950 . S
H914 C944 0.950 1_565 S
H915 C945 0.950 . S
C916 H898 0.951 . S
C916 C917 1.366 . S
C916 C918 1.388 . S
C917 C916 1.366 . S
C917 C921 1.385 . S
C918 H899 0.951 . S
C918 C916 1.388 . S
C918 C919 1.366 . S
C919 C918 1.366 . S
C919 C920 1.414 . S
C919 C922 1.499 . S
C920 H900 0.950 . S
C920 C919 1.414 . S
C920 C921 1.374 . S
C921 H901 0.950 . S
C921 C917 1.385 . S
C921 C920 1.374 . S
C922 C919 1.499 . S
C922 C923 1.373 . S
C922 C924 1.389 . S
C923 H902 0.950 . S
C923 C922 1.373 . S
C923 C939 1.377 1_554 S
C924 C922 1.389 . S
C924 C925 1.524 . S
C924 C938 1.377 1_554 S
C925 C924 1.524 . S
C925 C926 1.397 . S
C925 C930 1.363 . S
C926 H903 0.950 . S
C926 C925 1.397 . S
C926 C927 1.334 . S
C927 H904 0.950 . S
C927 C926 1.334 . S
C927 C928 1.287 . S
C928 C927 1.287 . S
C928 C929 1.524 . S
C928 H947 0.913 . S
C929 H905 0.950 . S
C929 C928 1.524 . S
C929 C930 1.415 . S
C930 H906 0.950 . S
C930 C925 1.363 . S
C930 C929 1.415 . S
C931 H907 0.951 . S
C931 C932 1.366 . S
C931 C933 1.388 . S
C932 C931 1.366 . S
C932 C936 1.385 . S
C933 H908 0.951 . S
C933 C931 1.388 . S
C933 C934 1.366 . S
C934 C933 1.366 . S
C934 C935 1.414 . S
C934 C937 1.499 . S
C935 H909 0.950 . S
C935 C934 1.414 . S
C935 C936 1.374 . S
C936 H910 0.950 . S
C936 C932 1.385 . S
C936 C935 1.374 . S
C937 C934 1.499 . S
C937 C938 1.373 1_545 S
C937 C939 1.389 1_545 S
C938 H911 0.956 . S
C938 C924 1.377 1_556 S
C938 C937 1.373 1_565 S
C939 C923 1.377 1_556 S
C939 C937 1.389 1_565 S
C939 C940 1.524 1_565 S
C940 C939 1.524 1_545 S
C940 C941 1.397 . S
C940 C945 1.363 1_545 S
C941 H912 0.950 . S
C941 C940 1.397 . S
C941 C942 1.334 . S
C942 H913 0.950 . S
C942 C941 1.334 . S
C942 C943 1.287 . S
C943 C942 1.287 . S
C943 C944 1.524 . S
C943 H946 0.999 . S
C944 H914 0.950 1_545 S
C944 C943 1.524 . S
C944 C945 1.415 1_545 S
C945 H915 0.950 . S
C945 C940 1.363 1_565 S
C945 C944 1.415 1_565 S
H946 C943 0.999 . S
H947 C928 0.913 . S
H948 C966 0.951 . S
H949 C968 0.951 . S
H950 C970 0.950 . S
H951 C971 0.950 . S
H952 C973 0.950 . S
H953 C976 0.950 . S
H954 C977 0.950 . S
H955 C979 0.950 . S
H956 C980 0.950 . S
H957 C981 0.951 . S
H958 C983 0.951 . S
H959 C985 0.950 . S
H960 C986 0.950 . S
H961 C988 0.950 . S
H962 C991 0.950 . S
H963 C992 0.950 . S
H964 C994 0.950 . S
H965 C995 0.950 . S
C966 H948 0.951 . S
C966 C967 1.366 . S
C966 C968 1.388 . S
C967 C966 1.366 . S
C967 C971 1.385 . S
C968 H949 0.951 . S
C968 C966 1.388 . S
C968 C969 1.366 . S
C969 C968 1.366 . S
C969 C970 1.414 . S
C969 C972 1.499 . S
C970 H950 0.950 . S
C970 C969 1.414 . S
C970 C971 1.374 . S
C971 H951 0.950 . S
C971 C967 1.385 . S
C971 C970 1.374 . S
C972 C969 1.499 . S
C972 C973 1.373 . S
C972 C974 1.389 . S
C973 H952 0.950 . S
C973 C972 1.373 . S
C973 C989 1.377 . S
C974 C972 1.389 . S
C974 C975 1.524 . S
C974 C988 1.377 . S
C975 C974 1.524 . S
C975 C976 1.397 . S
C975 C980 1.363 . S
C976 H953 0.950 . S
C976 C975 1.397 . S
C976 C977 1.334 . S
C977 H954 0.950 . S
C977 C976 1.334 . S
C977 C978 1.287 . S
C978 C977 1.287 . S
C978 C979 1.524 . S
C978 H997 0.913 . S
C979 H955 0.950 . S
C979 C978 1.524 . S
C979 C980 1.415 . S
C980 H956 0.950 . S
C980 C975 1.363 . S
C980 C979 1.415 . S
C981 H957 0.951 . S
C981 C982 1.366 . S
C981 C983 1.388 . S
C982 C981 1.366 . S
C982 C986 1.385 . S
C983 H958 0.951 . S
C983 C981 1.388 . S
C983 C984 1.366 . S
C984 C983 1.366 . S
C984 C985 1.414 . S
C984 C987 1.499 . S
C985 H959 0.950 . S
C985 C984 1.414 . S
C985 C986 1.374 . S
C986 H960 0.950 . S
C986 C982 1.385 . S
C986 C985 1.374 . S
C987 C984 1.499 . S
C987 C988 1.373 . S
C987 C989 1.389 . S
C988 H961 0.950 . S
C988 C974 1.377 . S
C988 C987 1.373 . S
C989 C973 1.377 . S
C989 C987 1.389 . S
C989 C990 1.524 . S
C990 C989 1.524 . S
C990 C991 1.397 . S
C990 C995 1.363 . S
C991 H962 0.950 . S
C991 C990 1.397 . S
C991 C992 1.334 . S
C992 H963 0.950 . S
C992 C991 1.334 . S
C992 C993 1.287 . S
C993 C992 1.287 . S
C993 C994 1.524 . S
C993 H996 0.999 . S
C994 H964 0.950 . S
C994 C993 1.524 . S
C994 C995 1.415 . S
C995 H965 0.950 . S
C995 C990 1.363 . S
C995 C994 1.415 . S
H996 C993 0.999 . S
H997 C978 0.913 . S
H998 C1016 0.951 . S
H999 C1018 0.951 . S
H1000 C1020 0.950 . S
H1001 C1021 0.950 . S
H1002 C1023 0.950 . S
H1003 C1026 0.950 . S
H1004 C1027 0.950 . S
H1005 C1029 0.950 . S
H1006 C1030 0.950 . S
H1007 C1031 0.951 . S
H1008 C1033 0.951 . S
H1009 C1035 0.950 . S
H1010 C1036 0.950 . S
H1011 C1038 0.950 . S
H1012 C1041 0.950 1_455 S
H1013 C1042 0.950 . S
H1014 C1044 0.950 . S
H1015 C1045 0.950 . S
C1016 H998 0.951 . S
C1016 C1017 1.366 . S
C1016 C1018 1.388 . S
C1017 C1016 1.366 . S
C1017 C1021 1.385 . S
C1018 H999 0.951 . S
C1018 C1016 1.388 . S
C1018 C1019 1.366 . S
C1019 C1018 1.366 . S
C1019 C1020 1.414 . S
C1019 C1022 1.499 . S
C1020 H1000 0.950 . S
C1020 C1019 1.414 . S
C1020 C1021 1.374 . S
C1021 H1001 0.950 . S
C1021 C1017 1.385 . S
C1021 C1020 1.374 . S
C1022 C1019 1.499 . S
C1022 C1023 1.373 1_556 S
C1022 C1024 1.389 1_655 S
C1023 H1002 0.950 . S
C1023 C1022 1.373 1_554 S
C1023 C1039 1.377 1_655 S
C1024 C1022 1.389 1_455 S
C1024 C1025 1.524 . S
C1024 C1038 1.377 . S
C1025 C1024 1.524 . S
C1025 C1026 1.397 . S
C1025 C1030 1.363 . S
C1026 H1003 0.950 . S
C1026 C1025 1.397 . S
C1026 C1027 1.334 . S
C1027 H1004 0.950 . S
C1027 C1026 1.334 . S
C1027 C1028 1.287 . S
C1028 C1027 1.287 . S
C1028 C1029 1.524 . S
C1028 H1047 0.913 . S
C1029 H1005 0.950 . S
C1029 C1028 1.524 . S
C1029 C1030 1.415 . S
C1030 H1006 0.950 . S
C1030 C1025 1.363 . S
C1030 C1029 1.415 . S
C1031 H1007 0.951 . S
C1031 C1032 1.366 . S
C1031 C1033 1.388 . S
C1032 C1031 1.366 . S
C1032 C1036 1.385 . S
C1033 H1008 0.951 . S
C1033 C1031 1.388 . S
C1033 C1034 1.366 . S
C1034 C1033 1.366 . S
C1034 C1035 1.414 . S
C1034 C1037 1.499 . S
C1035 H1009 0.950 . S
C1035 C1034 1.414 . S
C1035 C1036 1.374 . S
C1036 H1010 0.950 . S
C1036 C1032 1.385 . S
C1036 C1035 1.374 . S
C1037 C1034 1.499 . S
C1037 C1038 1.373 1_554 S
C1037 C1039 1.389 . S
C1038 H1011 0.950 . S
C1038 C1024 1.377 . S
C1038 C1037 1.373 1_556 S
C1039 C1023 1.377 1_455 S
C1039 C1037 1.389 . S
C1039 C1040 1.524 1_455 S
C1040 C1039 1.524 1_655 S
C1040 C1041 1.397 . S
C1040 C1045 1.363 . S
C1041 H1012 0.950 1_655 S
C1041 C1040 1.397 . S
C1041 C1042 1.334 . S
C1042 H1013 0.950 . S
C1042 C1041 1.334 . S
C1042 C1043 1.287 . S
C1043 C1042 1.287 . S
C1043 C1044 1.524 . S
C1043 H1046 0.999 . S
C1044 H1014 0.950 . S
C1044 C1043 1.524 . S
C1044 C1045 1.415 . S
C1045 H1015 0.950 . S
C1045 C1040 1.363 . S
C1045 C1044 1.415 . S
H1046 C1043 0.999 . S
H1047 C1028 0.913 . S
H1048 C1066 0.951 . S
H1049 C1068 0.951 . S
H1050 C1070 0.950 . S
H1051 C1071 0.950 . S
H1052 C1073 0.950 . S
H1053 C1076 0.950 1_545 S
H1054 C1077 0.950 . S
H1055 C1079 0.950 . S
H1056 C1080 0.950 . S
H1057 C1081 0.951 . S
H1058 C1083 0.951 . S
H1059 C1085 0.950 . S
H1060 C1086 0.950 . S
H1061 C1088 0.950 . S
H1062 C1091 0.950 . S
H1063 C1092 0.950 . S
H1064 C1094 0.950 . S
H1065 C1095 0.950 . S
C1066 H1048 0.951 . S
C1066 C1067 1.366 . S
C1066 C1068 1.388 . S
C1067 C1066 1.366 . S
C1067 C1071 1.385 . S
C1068 H1049 0.951 . S
C1068 C1066 1.388 . S
C1068 C1069 1.366 . S
C1069 C1068 1.366 . S
C1069 C1070 1.414 . S
C1069 C1072 1.499 . S
C1070 H1050 0.950 . S
C1070 C1069 1.414 . S
C1070 C1071 1.374 . S
C1071 H1051 0.950 . S
C1071 C1067 1.385 . S
C1071 C1070 1.374 . S
C1072 C1069 1.499 . S
C1072 C1073 1.373 . S
C1072 C1074 1.389 . S
C1073 H1052 0.950 . S
C1073 C1072 1.373 . S
C1073 C1089 1.377 . S
C1074 C1072 1.389 . S
C1074 C1075 1.523 . S
C1074 C1088 1.377 1_545 S
C1075 C1074 1.523 . S
C1075 C1076 1.386 1_545 S
C1075 C1080 1.373 1_545 S
C1076 H1053 0.950 1_565 S
C1076 C1075 1.386 1_565 S
C1076 C1077 1.334 . S
C1077 H1054 0.950 . S
C1077 C1076 1.334 . S
C1077 C1078 1.287 . S
C1078 C1077 1.287 . S
C1078 C1079 1.524 . S
C1078 H1097 0.913 . S
C1079 H1055 0.950 . S
C1079 C1078 1.524 . S
C1079 C1080 1.415 . S
C1080 H1056 0.950 . S
C1080 C1075 1.373 1_565 S
C1080 C1079 1.415 . S
C1081 H1057 0.951 . S
C1081 C1082 1.366 . S
C1081 C1083 1.388 . S
C1082 C1081 1.366 . S
C1082 C1086 1.385 . S
C1083 H1058 0.951 . S
C1083 C1081 1.388 . S
C1083 C1084 1.366 . S
C1084 C1083 1.366 . S
C1084 C1085 1.414 . S
C1084 C1087 1.499 . S
C1085 H1059 0.950 . S
C1085 C1084 1.414 . S
C1085 C1086 1.374 . S
C1086 H1060 0.950 . S
C1086 C1082 1.385 . S
C1086 C1085 1.374 . S
C1087 C1084 1.499 . S
C1087 C1088 1.373 . S
C1087 C1089 1.389 1_565 S
C1088 H1061 0.950 . S
C1088 C1074 1.377 1_565 S
C1088 C1087 1.373 . S
C1089 C1073 1.377 . S
C1089 C1087 1.389 1_545 S
C1089 C1090 1.524 . S
C1090 C1089 1.524 . S
C1090 C1091 1.397 . S
C1090 C1095 1.363 . S
C1091 H1062 0.950 . S
C1091 C1090 1.397 . S
C1091 C1092 1.334 . S
C1092 H1063 0.950 . S
C1092 C1091 1.334 . S
C1092 C1093 1.287 . S
C1093 C1092 1.287 . S
C1093 C1094 1.524 . S
C1093 H1096 0.999 . S
C1094 H1064 0.950 . S
C1094 C1093 1.524 . S
C1094 C1095 1.415 . S
C1095 H1065 0.950 . S
C1095 C1090 1.363 . S
C1095 C1094 1.415 . S
H1096 C1093 0.999 . S
H1097 C1078 0.913 . S
H1098 C1116 0.951 . S
H1099 C1118 0.951 . S
H1100 C1120 0.950 . S
H1101 C1121 0.950 . S
H1102 C1123 0.950 . S
H1103 C1126 0.950 . S
H1104 C1127 0.950 . S
H1105 C1129 0.950 . S
H1106 C1130 0.950 . S
H1107 C1131 0.951 . S
H1108 C1133 0.951 . S
H1109 C1135 0.950 . S
H1110 C1136 0.950 . S
H1111 C1138 0.950 . S
H1112 C1141 0.950 . S
H1113 C1142 0.950 . S
H1114 C1144 0.950 . S
H1115 C1145 0.950 . S
C1116 H1098 0.951 . S
C1116 C1117 1.366 . S
C1116 C1118 1.388 . S
C1117 C1116 1.366 . S
C1117 C1121 1.385 . S
C1118 H1099 0.951 . S
C1118 C1116 1.388 . S
C1118 C1119 1.366 . S
C1119 C1118 1.366 . S
C1119 C1120 1.414 . S
C1119 C1122 1.499 . S
C1120 H1100 0.950 . S
C1120 C1119 1.414 . S
C1120 C1121 1.374 . S
C1121 H1101 0.950 . S
C1121 C1117 1.385 . S
C1121 C1120 1.374 . S
C1122 C1119 1.499 . S
C1122 C1123 1.373 . S
C1122 C1124 1.389 . S
C1123 H1102 0.950 . S
C1123 C1122 1.373 . S
C1123 C1139 1.377 . S
C1124 C1122 1.389 . S
C1124 C1125 1.525 . S
C1124 C1138 1.377 1_556 S
C1125 C1124 1.525 . S
C1125 C1126 1.411 . S
C1125 C1130 1.348 1_556 S
C1126 H1103 0.950 . S
C1126 C1125 1.411 . S
C1126 C1127 1.334 . S
C1127 H1104 0.950 . S
C1127 C1126 1.334 . S
C1127 C1128 1.287 . S
C1128 C1127 1.287 . S
C1128 C1129 1.524 1_556 S
C1128 H1147 0.913 . S
C1129 H1105 0.950 . S
C1129 C1128 1.524 1_554 S
C1129 C1130 1.415 . S
C1130 H1106 0.950 . S
C1130 C1125 1.348 1_554 S
C1130 C1129 1.415 . S
C1131 H1107 0.951 . S
C1131 C1132 1.366 . S
C1131 C1133 1.388 . S
C1132 C1131 1.366 . S
C1132 C1136 1.385 . S
C1133 H1108 0.951 . S
C1133 C1131 1.388 . S
C1133 C1134 1.366 . S
C1134 C1133 1.366 . S
C1134 C1135 1.414 . S
C1134 C1137 1.499 . S
C1135 H1109 0.950 . S
C1135 C1134 1.414 . S
C1135 C1136 1.374 . S
C1136 H1110 0.950 . S
C1136 C1132 1.385 . S
C1136 C1135 1.374 . S
C1137 C1134 1.499 . S
C1137 C1138 1.373 . S
C1137 C1139 1.389 1_554 S
C1138 H1111 0.950 . S
C1138 C1124 1.377 1_554 S
C1138 C1137 1.373 . S
C1139 C1123 1.377 . S
C1139 C1137 1.389 1_556 S
C1139 C1140 1.524 . S
C1140 C1139 1.524 . S
C1140 C1141 1.397 1_556 S
C1140 C1145 1.363 . S
C1141 H1112 0.950 . S
C1141 C1140 1.397 1_554 S
C1141 C1142 1.334 . S
C1142 H1113 0.950 . S
C1142 C1141 1.334 . S
C1142 C1143 1.304 . S
C1143 C1142 1.304 . S
C1143 C1144 1.506 1_554 S
C1143 H1146 0.999 . S
C1144 H1114 0.950 . S
C1144 C1143 1.506 1_556 S
C1144 C1145 1.415 . S
C1145 H1115 0.950 . S
C1145 C1140 1.363 . S
C1145 C1144 1.415 . S
H1146 C1143 0.999 . S
H1147 C1128 0.913 . S
H1148 C1166 0.951 . S
H1149 C1168 0.951 . S
H1150 C1170 0.950 . S
H1151 C1171 0.950 . S
H1152 C1173 0.950 . S
H1153 C1176 0.950 . S
H1154 C1177 0.950 . S
H1155 C1179 0.950 . S
H1156 C1180 0.950 . S
H1157 C1181 0.951 . S
H1158 C1183 0.975 . S
H1159 C1185 0.950 . S
H1160 C1186 0.950 . S
H1161 C1188 0.950 . S
H1162 C1191 0.950 . S
H1163 C1192 0.950 . S
H1164 C1194 0.950 . S
H1165 C1195 0.950 . S
C1166 H1148 0.951 . S
C1166 C1167 1.366 . S
C1166 C1168 1.388 . S
C1167 C1166 1.366 . S
C1167 C1171 1.385 . S
C1168 H1149 0.951 . S
C1168 C1166 1.388 . S
C1168 C1169 1.366 . S
C1169 C1168 1.366 . S
C1169 C1170 1.414 . S
C1169 C1172 1.499 . S
C1170 H1150 0.950 . S
C1170 C1169 1.414 . S
C1170 C1171 1.374 . S
C1171 H1151 0.950 . S
C1171 C1167 1.385 . S
C1171 C1170 1.374 . S
C1172 C1169 1.499 . S
C1172 C1173 1.373 . S
C1172 C1174 1.389 . S
C1173 H1152 0.950 . S
C1173 C1172 1.373 . S
C1173 C1189 1.377 . S
C1174 C1172 1.389 . S
C1174 C1175 1.524 . S
C1174 C1188 1.377 1_455 S
C1175 C1174 1.524 . S
C1175 C1176 1.397 . S
C1175 C1180 1.363 1_455 S
C1176 H1153 0.950 . S
C1176 C1175 1.397 . S
C1176 C1177 1.334 . S
C1177 H1154 0.950 . S
C1177 C1176 1.334 . S
C1177 C1178 1.287 . S
C1178 C1177 1.287 . S
C1178 C1179 1.524 1_455 S
C1178 H1197 0.913 . S
C1179 H1155 0.950 . S
C1179 C1178 1.524 1_655 S
C1179 C1180 1.415 . S
C1180 H1156 0.950 . S
C1180 C1175 1.363 1_655 S
C1180 C1179 1.415 . S
C1181 H1157 0.951 . S
C1181 C1182 1.366 . S
C1181 C1183 1.388 . S
C1182 C1181 1.366 . S
C1182 C1186 1.385 . S
C1183 H1158 0.975 . S
C1183 C1181 1.388 . S
C1183 C1184 1.366 . S
C1184 C1183 1.366 . S
C1184 C1185 1.414 . S
C1184 C1187 1.499 . S
C1185 H1159 0.950 . S
C1185 C1184 1.414 . S
C1185 C1186 1.374 . S
C1186 H1160 0.950 . S
C1186 C1182 1.385 . S
C1186 C1185 1.374 . S
C1187 C1184 1.499 . S
C1187 C1188 1.373 . S
C1187 C1189 1.389 1_655 S
C1188 H1161 0.950 . S
C1188 C1174 1.377 1_655 S
C1188 C1187 1.373 . S
C1189 C1173 1.377 . S
C1189 C1187 1.389 1_455 S
C1189 C1190 1.524 . S
C1190 C1189 1.524 . S
C1190 C1191 1.397 1_455 S
C1190 C1195 1.363 . S
C1191 H1162 0.950 . S
C1191 C1190 1.397 1_655 S
C1191 C1192 1.334 . S
C1192 H1163 0.950 . S
C1192 C1191 1.334 . S
C1192 C1193 1.287 1_655 S
C1193 C1192 1.287 1_455 S
C1193 C1194 1.524 . S
C1193 H1196 0.999 . S
C1194 H1164 0.950 . S
C1194 C1193 1.524 . S
C1194 C1195 1.415 . S
C1195 H1165 0.950 . S
C1195 C1190 1.363 . S
C1195 C1194 1.415 . S
H1196 C1193 0.999 . S
H1197 C1178 0.913 . S
H1198 C1216 0.951 . S
H1199 C1218 0.951 . S
H1200 C1220 0.950 . S
H1201 C1221 0.950 . S
H1202 C1223 0.950 . S
H1203 C1226 0.950 . S
H1204 C1227 0.953 . S
H1205 C1229 0.950 . S
H1206 C1230 0.950 . S
H1207 C1231 0.951 . S
H1208 C1233 0.951 . S
H1209 C1235 0.950 . S
H1210 C1236 0.950 . S
H1211 C1238 0.950 . S
H1212 C1241 0.950 . S
H1213 C1242 0.950 . S
H1214 C1244 0.950 . S
H1215 C1245 0.950 . S
C1216 H1198 0.951 . S
C1216 C1217 1.366 . S
C1216 C1218 1.388 . S
C1217 C1216 1.366 . S
C1217 C1221 1.385 . S
C1218 H1199 0.951 . S
C1218 C1216 1.388 . S
C1218 C1219 1.366 . S
C1219 C1218 1.366 . S
C1219 C1220 1.414 . S
C1219 C1222 1.499 . S
C1220 H1200 0.950 . S
C1220 C1219 1.414 . S
C1220 C1221 1.374 . S
C1221 H1201 0.950 . S
C1221 C1217 1.385 . S
C1221 C1220 1.374 . S
C1222 C1219 1.499 . S
C1222 C1223 1.373 . S
C1222 C1224 1.389 . S
C1223 H1202 0.950 . S
C1223 C1222 1.373 . S
C1223 C1239 1.377 1_556 S
C1224 C1222 1.389 . S
C1224 C1225 1.524 . S
C1224 C1238 1.377 1_546 S
C1225 C1224 1.524 . S
C1225 C1226 1.397 . S
C1225 C1230 1.363 . S
C1226 H1203 0.950 . S
C1226 C1225 1.397 . S
C1226 C1227 1.334 . S
C1227 H1204 0.953 . S
C1227 C1226 1.334 . S
C1227 C1228 1.287 . S
C1228 C1227 1.287 . S
C1228 C1229 1.524 . S
C1228 H1247 0.913 . S
C1229 H1205 0.950 . S
C1229 C1228 1.524 . S
C1229 C1230 1.415 . S
C1230 H1206 0.950 . S
C1230 C1225 1.363 . S
C1230 C1229 1.415 . S
C1231 H1207 0.951 . S
C1231 C1232 1.366 . S
C1231 C1233 1.388 . S
C1232 C1231 1.366 . S
C1232 C1236 1.385 . S
C1233 H1208 0.951 . S
C1233 C1231 1.388 . S
C1233 C1234 1.366 . S
C1234 C1233 1.366 . S
C1234 C1235 1.414 . S
C1234 C1237 1.499 . S
C1235 H1209 0.950 . S
C1235 C1234 1.414 . S
C1235 C1236 1.374 . S
C1236 H1210 0.950 . S
C1236 C1232 1.385 . S
C1236 C1235 1.374 . S
C1237 C1234 1.499 . S
C1237 C1238 1.373 . S
C1237 C1239 1.389 1_565 S
C1238 H1211 0.950 . S
C1238 C1224 1.377 1_564 S
C1238 C1237 1.373 . S
C1239 C1223 1.377 1_554 S
C1239 C1237 1.389 1_545 S
C1239 C1240 1.524 . S
C1240 C1239 1.524 . S
C1240 C1241 1.397 . S
C1240 C1245 1.363 . S
C1241 H1212 0.950 . S
C1241 C1240 1.397 . S
C1241 C1242 1.334 . S
C1242 H1213 0.950 . S
C1242 C1241 1.334 . S
C1242 C1243 1.287 . S
C1243 C1242 1.287 . S
C1243 C1244 1.524 . S
C1243 H1246 0.999 . S
C1244 H1214 0.950 . S
C1244 C1243 1.524 . S
C1244 C1245 1.415 . S
C1245 H1215 0.950 . S
C1245 C1240 1.363 . S
C1245 C1244 1.415 . S
H1246 C1243 0.999 . S
H1247 C1228 0.913 . S
H1248 C1266 0.951 . S
H1249 C1268 0.951 . S
H1250 C1270 0.950 . S
H1251 C1271 0.950 . S
H1252 C1273 0.950 . S
H1253 C1276 0.950 . S
H1254 C1277 0.950 . S
H1255 C1279 0.950 . S
H1256 C1280 0.950 . S
H1257 C1281 0.951 . S
H1258 C1283 0.951 . S
H1259 C1285 0.950 . S
H1260 C1286 0.950 . S
H1261 C1288 0.950 . S
H1262 C1291 0.950 . S
H1263 C1292 0.950 . S
H1264 C1294 0.950 . S
H1265 C1295 0.950 . S
C1266 H1248 0.951 . S
C1266 C1267 1.366 . S
C1266 C1268 1.388 . S
C1267 C1266 1.366 . S
C1267 C1271 1.385 . S
C1268 H1249 0.951 . S
C1268 C1266 1.388 . S
C1268 C1269 1.366 . S
C1269 C1268 1.366 . S
C1269 C1270 1.414 . S
C1269 C1272 1.499 . S
C1270 H1250 0.950 . S
C1270 C1269 1.414 . S
C1270 C1271 1.374 . S
C1271 H1251 0.950 . S
C1271 C1267 1.385 . S
C1271 C1270 1.374 . S
C1272 C1269 1.499 . S
C1272 C1273 1.373 . S
C1272 C1274 1.389 . S
C1273 H1252 0.950 . S
C1273 C1272 1.373 . S
C1273 C1289 1.377 . S
C1274 C1272 1.389 . S
C1274 C1275 1.524 . S
C1274 C1288 1.377 . S
C1275 C1274 1.524 . S
C1275 C1276 1.397 . S
C1275 C1280 1.363 . S
C1276 H1253 0.950 . S
C1276 C1275 1.397 . S
C1276 C1277 1.334 . S
C1277 H1254 0.950 . S
C1277 C1276 1.334 . S
C1277 C1278 1.287 . S
C1278 C1277 1.287 . S
C1278 C1279 1.524 . S
C1278 H1297 0.913 . S
C1279 H1255 0.950 . S
C1279 C1278 1.524 . S
C1279 C1280 1.415 . S
C1280 H1256 0.950 . S
C1280 C1275 1.363 . S
C1280 C1279 1.415 . S
C1281 H1257 0.951 . S
C1281 C1282 1.366 . S
C1281 C1283 1.388 . S
C1282 C1281 1.366 . S
C1282 C1286 1.385 . S
C1283 H1258 0.951 . S
C1283 C1281 1.388 . S
C1283 C1284 1.366 . S
C1284 C1283 1.366 . S
C1284 C1285 1.414 . S
C1284 C1287 1.499 . S
C1285 H1259 0.950 . S
C1285 C1284 1.414 . S
C1285 C1286 1.374 . S
C1286 H1260 0.950 . S
C1286 C1282 1.385 . S
C1286 C1285 1.374 . S
C1287 C1284 1.499 . S
C1287 C1288 1.373 . S
C1287 C1289 1.389 . S
C1288 H1261 0.950 . S
C1288 C1274 1.377 . S
C1288 C1287 1.373 . S
C1289 C1273 1.377 . S
C1289 C1287 1.389 . S
C1289 C1290 1.524 . S
C1290 C1289 1.524 . S
C1290 C1291 1.397 . S
C1290 C1295 1.363 . S
C1291 H1262 0.950 . S
C1291 C1290 1.397 . S
C1291 C1292 1.334 . S
C1292 H1263 0.950 . S
C1292 C1291 1.334 . S
C1292 C1293 1.287 . S
C1293 C1292 1.287 . S
C1293 C1294 1.524 . S
C1293 H1296 0.999 . S
C1294 H1264 0.950 . S
C1294 C1293 1.524 . S
C1294 C1295 1.415 . S
C1295 H1265 0.950 . S
C1295 C1290 1.363 . S
C1295 C1294 1.415 . S
H1296 C1293 0.999 . S
H1297 C1278 0.913 . S
H1298 C1316 0.951 . S
H1299 C1318 0.951 . S
H1300 C1320 0.950 . S
H1301 C1321 0.950 . S
H1302 C1323 0.950 . S
H1303 C1326 0.950 1_554 S
H1304 C1327 0.950 . S
H1305 C1329 0.950 . S
H1306 C1330 0.950 . S
H1307 C1331 0.951 . S
H1308 C1333 0.951 . S
H1309 C1335 0.950 . S
H1310 C1336 0.950 . S
H1311 C1338 0.964 . S
H1312 C1341 0.950 1_556 S
H1313 C1342 0.950 . S
H1314 C1344 0.950 . S
H1315 C1345 0.950 . S
C1316 H1298 0.951 . S
C1316 C1317 1.366 . S
C1316 C1318 1.388 . S
C1317 C1316 1.366 . S
C1317 C1321 1.385 . S
C1318 H1299 0.951 . S
C1318 C1316 1.388 . S
C1318 C1319 1.366 . S
C1319 C1318 1.366 . S
C1319 C1320 1.414 . S
C1319 C1322 1.499 . S
C1320 H1300 0.950 . S
C1320 C1319 1.414 . S
C1320 C1321 1.374 . S
C1321 H1301 0.950 . S
C1321 C1317 1.385 . S
C1321 C1320 1.374 . S
C1322 C1319 1.499 . S
C1322 C1323 1.373 1_455 S
C1322 C1324 1.389 1_554 S
C1323 H1302 0.950 . S
C1323 C1322 1.373 1_655 S
C1323 C1339 1.377 . S
C1324 C1322 1.389 1_556 S
C1324 C1325 1.524 . S
C1324 C1338 1.377 1_455 S
C1325 C1324 1.524 . S
C1325 C1326 1.397 . S
C1325 C1330 1.363 . S
C1326 H1303 0.950 1_556 S
C1326 C1325 1.397 . S
C1326 C1327 1.334 . S
C1327 H1304 0.950 . S
C1327 C1326 1.334 . S
C1327 C1328 1.287 . S
C1328 C1327 1.287 . S
C1328 C1329 1.524 . S
C1328 H1347 0.913 . S
C1329 H1305 0.950 . S
C1329 C1328 1.524 . S
C1329 C1330 1.415 . S
C1330 H1306 0.950 . S
C1330 C1325 1.363 . S
C1330 C1329 1.415 . S
C1331 H1307 0.951 . S
C1331 C1332 1.366 . S
C1331 C1333 1.388 . S
C1332 C1331 1.366 . S
C1332 C1336 1.385 . S
C1333 H1308 0.951 . S
C1333 C1331 1.388 . S
C1333 C1334 1.366 . S
C1334 C1333 1.366 . S
C1334 C1335 1.414 . S
C1334 C1337 1.499 . S
C1335 H1309 0.950 . S
C1335 C1334 1.414 . S
C1335 C1336 1.374 . S
C1336 H1310 0.950 . S
C1336 C1332 1.385 . S
C1336 C1335 1.374 . S
C1337 C1334 1.499 . S
C1337 C1338 1.373 . S
C1337 C1339 1.389 1_556 S
C1338 H1311 0.964 . S
C1338 C1324 1.377 1_655 S
C1338 C1337 1.373 . S
C1339 C1323 1.377 . S
C1339 C1337 1.389 1_554 S
C1339 C1340 1.524 . S
C1340 C1339 1.524 . S
C1340 C1341 1.397 . S
C1340 C1345 1.363 . S
C1341 H1312 0.950 1_554 S
C1341 C1340 1.397 . S
C1341 C1342 1.334 . S
C1342 H1313 0.950 . S
C1342 C1341 1.334 . S
C1342 C1343 1.287 . S
C1343 C1342 1.287 . S
C1343 C1344 1.524 . S
C1343 H1346 0.999 . S
C1344 H1314 0.950 . S
C1344 C1343 1.524 . S
C1344 C1345 1.415 . S
C1345 H1315 0.950 . S
C1345 C1340 1.363 . S
C1345 C1344 1.415 . S
H1346 C1343 0.999 . S
H1347 C1328 0.913 . S
H1348 C1366 0.951 . S
H1349 C1368 0.951 . S
H1350 C1370 0.950 . S
H1351 C1371 0.950 . S
H1352 C1373 0.950 . S
H1353 C1376 0.950 . S
H1354 C1377 0.950 . S
H1355 C1379 0.950 . S
H1356 C1380 0.950 . S
H1357 C1381 0.951 . S
H1358 C1383 0.951 . S
H1359 C1385 0.950 . S
H1360 C1386 0.950 . S
H1361 C1388 0.950 . S
H1362 C1391 0.950 . S
H1363 C1392 0.950 . S
H1364 C1394 0.950 . S
H1365 C1395 0.950 . S
C1366 H1348 0.951 . S
C1366 C1367 1.366 . S
C1366 C1368 1.388 . S
C1367 C1366 1.366 . S
C1367 C1371 1.385 . S
C1368 H1349 0.951 . S
C1368 C1366 1.388 . S
C1368 C1369 1.366 . S
C1369 C1368 1.366 . S
C1369 C1370 1.414 . S
C1369 C1372 1.499 . S
C1370 H1350 0.950 . S
C1370 C1369 1.414 . S
C1370 C1371 1.374 . S
C1371 H1351 0.950 . S
C1371 C1367 1.385 . S
C1371 C1370 1.374 . S
C1372 C1369 1.499 . S
C1372 C1373 1.373 1_545 S
C1372 C1374 1.389 . S
C1373 H1352 0.950 . S
C1373 C1372 1.373 1_565 S
C1373 C1389 1.377 . S
C1374 C1372 1.389 . S
C1374 C1375 1.524 . S
C1374 C1388 1.377 1_545 S
C1375 C1374 1.524 . S
C1375 C1376 1.397 . S
C1375 C1380 1.363 . S
C1376 H1353 0.950 . S
C1376 C1375 1.397 . S
C1376 C1377 1.334 . S
C1377 H1354 0.950 . S
C1377 C1376 1.334 . S
C1377 C1378 1.287 . S
C1378 C1377 1.287 . S
C1378 C1379 1.524 . S
C1378 H1397 0.913 . S
C1379 H1355 0.950 . S
C1379 C1378 1.524 . S
C1379 C1380 1.415 . S
C1380 H1356 0.950 . S
C1380 C1375 1.363 . S
C1380 C1379 1.415 . S
C1381 H1357 0.951 . S
C1381 C1382 1.366 . S
C1381 C1383 1.388 . S
C1382 C1381 1.366 . S
C1382 C1386 1.385 . S
C1383 H1358 0.951 . S
C1383 C1381 1.388 . S
C1383 C1384 1.366 . S
C1384 C1383 1.366 . S
C1384 C1385 1.414 . S
C1384 C1387 1.499 . S
C1385 H1359 0.950 . S
C1385 C1384 1.414 . S
C1385 C1386 1.374 . S
C1386 H1360 0.950 . S
C1386 C1382 1.385 . S
C1386 C1385 1.374 . S
C1387 C1384 1.499 . S
C1387 C1388 1.373 . S
C1387 C1389 1.389 . S
C1388 H1361 0.950 . S
C1388 C1374 1.377 1_565 S
C1388 C1387 1.373 . S
C1389 C1373 1.377 . S
C1389 C1387 1.389 . S
C1389 C1390 1.524 . S
C1390 C1389 1.524 . S
C1390 C1391 1.397 . S
C1390 C1395 1.363 . S
C1391 H1362 0.950 . S
C1391 C1390 1.397 . S
C1391 C1392 1.334 . S
C1392 H1363 0.950 . S
C1392 C1391 1.334 . S
C1392 C1393 1.287 . S
C1393 C1392 1.287 . S
C1393 C1394 1.524 . S
C1393 H1396 0.999 . S
C1394 H1364 0.950 . S
C1394 C1393 1.524 . S
C1394 C1395 1.415 . S
C1395 H1365 0.950 . S
C1395 C1390 1.363 . S
C1395 C1394 1.415 . S
H1396 C1393 0.999 . S
H1397 C1378 0.913 . S
C217 C24 2.045 . S
C232 C153 2.108 . S
C267 C190 2.107 . S
C282 C61 2.045 . S
C317 C21 2.107 . S
C332 C90 2.046 . S
C367 C58 2.107 . S
C382 C127 2.046 . S
C417 C156 2.046 . S
C432 C87 2.107 . S
C467 C193 2.046 . S
C482 C124 2.107 . S
C517 C28 0.616 . S
C532 C157 0.184 . S
C567 C57 0.618 . S
C582 C186 0.183 . S
C617 C25 0.180 . S
C632 C94 0.619 . S
C667 C54 0.184 . S
C682 C123 0.617 . S
C717 C91 0.181 . S
C732 C160 0.618 . S
C767 C189 0.619 . S
C782 C120 0.183 . S
C817 C27 2.045 . S
C832 C187 2.139 . S
C867 C59 2.506 . S
C882 C23 2.407 . S
C917 C93 2.044 . S
C932 C55 2.139 . S
C967 C125 2.506 . S
C982 C89 2.407 . S
C1017 C121 2.139 . S
C1032 C159 2.046 . S
C1067 C191 2.506 . S
C1082 C155 2.407 . S
C1117 C122 2.045 . S
C1132 C92 2.139 . S
C1167 C154 2.505 . S
C1182 C126 2.407 . S
C1217 C188 2.045 . S
C1232 C158 2.139 . S
C1267 C192 2.407 . S
C1282 C22 2.506 . S
C1317 C26 2.138 . S
C1332 C56 2.044 . S
C1367 C60 2.407 . S
C1382 C88 2.505 . S
