# Generated by pormake.
# Topology uke, (4)-cn, num edge types: 1
# Building blocks:
#     Node 0, Type 0, BuildingBlock: UXUYUI_clean_sbu_0, # of connection points: 4
#     Node 1, Type 0, BuildingBlock: UXUYUI_clean_sbu_0, # of connection points: 4
#     Node 2, Type 0, BuildingBlock: UXUYUI_clean_sbu_0, # of connection points: 4
#     Node 3, Type 0, BuildingBlock: UXUYUI_clean_sbu_0, # of connection points: 4
#     Node 4, Type 0, BuildingBlock: UXUYUI_clean_sbu_0, # of connection points: 4
#     Node 5, Type 0, BuildingBlock: UXUYUI_clean_sbu_0, # of connection points: 4
#     Node 6, Type 0, BuildingBlock: UXUYUI_clean_sbu_0, # of connection points: 4
#     Node 7, Type 0, BuildingBlock: UXUYUI_clean_sbu_0, # of connection points: 4
#     Node 8, Type 0, BuildingBlock: UXUYUI_clean_sbu_0, # of connection points: 4
#     Node 9, Type 0, BuildingBlock: UXUYUI_clean_sbu_0, # of connection points: 4
#     Node 10, Type 0, BuildingBlock: UXUYUI_clean_sbu_0, # of connection points: 4
#     Node 11, Type 0, BuildingBlock: UXUYUI_clean_sbu_0, # of connection points: 4
#     Node 12, Type 0, BuildingBlock: UXUYUI_clean_sbu_0, # of connection points: 4
#     Node 13, Type 0, BuildingBlock: UXUYUI_clean_sbu_0, # of connection points: 4
#     Node 14, Type 0, BuildingBlock: UXUYUI_clean_sbu_0, # of connection points: 4
#     Node 15, Type 0, BuildingBlock: UXUYUI_clean_sbu_0, # of connection points: 4
#     Node 16, Type 0, BuildingBlock: UXUYUI_clean_sbu_0, # of connection points: 4
#     Node 17, Type 0, BuildingBlock: UXUYUI_clean_sbu_0, # of connection points: 4
#     Node 18, Type 0, BuildingBlock: UXUYUI_clean_sbu_0, # of connection points: 4
#     Node 19, Type 0, BuildingBlock: UXUYUI_clean_sbu_0, # of connection points: 4
#     Node 20, Type 0, BuildingBlock: UXUYUI_clean_sbu_0, # of connection points: 4
#     Node 21, Type 0, BuildingBlock: UXUYUI_clean_sbu_0, # of connection points: 4
#     Node 22, Type 0, BuildingBlock: UXUYUI_clean_sbu_0, # of connection points: 4
#     Node 23, Type 0, BuildingBlock: UXUYUI_clean_sbu_0, # of connection points: 4
#     Node 24, Type 0, BuildingBlock: UXUYUI_clean_sbu_0, # of connection points: 4
#     Node 25, Type 0, BuildingBlock: UXUYUI_clean_sbu_0, # of connection points: 4
#     Node 26, Type 0, BuildingBlock: UXUYUI_clean_sbu_0, # of connection points: 4
#     Node 27, Type 0, BuildingBlock: UXUYUI_clean_sbu_0, # of connection points: 4
#     Node 28, Type 0, BuildingBlock: UXUYUI_clean_sbu_0, # of connection points: 4
#     Node 29, Type 0, BuildingBlock: UXUYUI_clean_sbu_0, # of connection points: 4
#     Node 30, Type 0, BuildingBlock: UXUYUI_clean_sbu_0, # of connection points: 4
#     Node 31, Type 0, BuildingBlock: UXUYUI_clean_sbu_0, # of connection points: 4
#     Edge 32, Type (0, 0), None
#     Edge 33, Type (0, 0), None
#     Edge 34, Type (0, 0), None
#     Edge 35, Type (0, 0), None
#     Edge 36, Type (0, 0), None
#     Edge 37, Type (0, 0), None
#     Edge 38, Type (0, 0), None
#     Edge 39, Type (0, 0), None
#     Edge 40, Type (0, 0), None
#     Edge 41, Type (0, 0), None
#     Edge 42, Type (0, 0), None
#     Edge 43, Type (0, 0), None
#     Edge 44, Type (0, 0), None
#     Edge 45, Type (0, 0), None
#     Edge 46, Type (0, 0), None
#     Edge 47, Type (0, 0), None
#     Edge 48, Type (0, 0), None
#     Edge 49, Type (0, 0), None
#     Edge 50, Type (0, 0), None
#     Edge 51, Type (0, 0), None
#     Edge 52, Type (0, 0), None
#     Edge 53, Type (0, 0), None
#     Edge 54, Type (0, 0), None
#     Edge 55, Type (0, 0), None
#     Edge 56, Type (0, 0), None
#     Edge 57, Type (0, 0), None
#     Edge 58, Type (0, 0), None
#     Edge 59, Type (0, 0), None
#     Edge 60, Type (0, 0), None
#     Edge 61, Type (0, 0), None
#     Edge 62, Type (0, 0), None
#     Edge 63, Type (0, 0), None
#     Edge 64, Type (0, 0), None
#     Edge 65, Type (0, 0), None
#     Edge 66, Type (0, 0), None
#     Edge 67, Type (0, 0), None
#     Edge 68, Type (0, 0), None
#     Edge 69, Type (0, 0), None
#     Edge 70, Type (0, 0), None
#     Edge 71, Type (0, 0), None
#     Edge 72, Type (0, 0), None
#     Edge 73, Type (0, 0), None
#     Edge 74, Type (0, 0), None
#     Edge 75, Type (0, 0), None
#     Edge 76, Type (0, 0), None
#     Edge 77, Type (0, 0), None
#     Edge 78, Type (0, 0), None
#     Edge 79, Type (0, 0), None
#     Edge 80, Type (0, 0), None
#     Edge 81, Type (0, 0), None
#     Edge 82, Type (0, 0), None
#     Edge 83, Type (0, 0), None
#     Edge 84, Type (0, 0), None
#     Edge 85, Type (0, 0), None
#     Edge 86, Type (0, 0), None
#     Edge 87, Type (0, 0), None
#     Edge 88, Type (0, 0), None
#     Edge 89, Type (0, 0), None
#     Edge 90, Type (0, 0), None
#     Edge 91, Type (0, 0), None
#     Edge 92, Type (0, 0), None
#     Edge 93, Type (0, 0), None
#     Edge 94, Type (0, 0), None
#     Edge 95, Type (0, 0), None
# Relax obj value: 0.349
# Max RMSD: 0.294
# Mean RMSD: 0.293
data_MOF--net-uke--node1-UXUYUI_clean_sbu_0--edge1-none
_symmetry_space_group_name_H-M    P1
_symmetry_Int_Tables_number       1
_symmetry_cell_setting            triclinic
loop_
_symmetry_equiv_pos_as_xyz
'x, y, z'
_cell_length_a     24.493983
_cell_length_b     95.206484
_cell_length_c     43.153701
_cell_angle_alpha  90.002622
_cell_angle_beta   90.000018
_cell_angle_gamma 90.001985
loop_
_atom_site_label
_atom_site_type_symbol
_atom_site_fract_x
_atom_site_fract_y
_atom_site_fract_z
_atom_type_partial_charge
Li0 Li 0.0372 0.05582 0.29074 0.0
Li1 Li 0.11108 0.07289 0.28905 0.0
Li2 Li 0.08128 0.06264 0.242 0.0
Li3 Li 0.13457 0.04841 0.27681 0.0
C4 C 0.01243 0.08348 0.25114 0.0
N5 N 0.96123 0.10191 0.21108 0.0
C6 C 0.03621 0.09648 0.24435 0.0
C7 C 0.96243 0.07991 0.23768 0.0
C8 C 0.00973 0.10564 0.22402 0.0
C9 C 0.93725 0.08935 0.21744 0.0
C10 C 0.12519 0.06193 0.34297 0.0
C11 C 0.20099 0.07067 0.37289 0.0
N12 N 0.16558 0.07513 0.3951 0.0
C13 C 0.08951 0.06654 0.3661 0.0
C14 C 0.18137 0.06395 0.34635 0.0
C15 C 0.11077 0.07321 0.39229 0.0
C16 C 0.96986 0.03979 0.33147 0.0
N17 N 0.97446 0.05179 0.31458 0.0
C18 C 0.89843 0.06197 0.34072 0.0
C19 C 0.93923 0.06267 0.31835 0.0
C20 C 0.89412 0.05002 0.35963 0.0
C21 C 0.92926 0.03862 0.35419 0.0
H22 H 0.99945 0.03146 0.32846 0.0
H23 H 0.94465 0.0722 0.3051 0.0
C24 C 0.17159 0.09827 0.29942 0.0
N25 N 0.12661 0.09068 0.30706 0.0
C26 C 0.17273 0.11274 0.30501 0.0
C27 C 0.08246 0.11109 0.3274 0.0
C28 C 0.08332 0.09667 0.32174 0.0
C29 C 0.12677 0.11939 0.31803 0.0
H30 H 0.20464 0.09331 0.28691 0.0
H31 H 0.04748 0.09042 0.32671 0.0
C32 C 0.02991 0.03551 0.23878 0.0
N33 N 0.96182 0.01937 0.20217 0.0
C34 C 0.0515 0.02477 0.22036 0.0
C35 C 0.97365 0.03792 0.23883 0.0
C36 C 0.01641 0.01676 0.20194 0.0
C37 C 0.93992 0.02968 0.22009 0.0
C38 C 0.19451 0.06256 0.23234 0.0
C39 C 0.18487 0.05101 0.21308 0.0
C40 C 0.24029 0.071 0.22718 0.0
C41 C 0.2213 0.04806 0.18906 0.0
C42 C 0.27582 0.06769 0.20291 0.0
N43 N 0.26565 0.05639 0.18451 0.0
C44 C 0.10663 0.0783 0.19027 0.0
C45 C 0.05983 0.0573 0.17735 0.0
C46 C 0.1243 0.07991 0.15977 0.0
N47 N 0.07704 0.06681 0.19871 0.0
C48 C 0.07735 0.05837 0.14671 0.0
C49 C 0.11176 0.06947 0.13815 0.0
H50 H 0.12118 0.08549 0.2078 0.0
H51 H 0.03615 0.04832 0.18425 0.0
C52 C 0.15464 0.01987 0.27625 0.0
N53 N 0.18169 0.03233 0.27569 0.0
C54 C 0.1802 0.00759 0.26619 0.0
C55 C 0.26257 0.02095 0.25732 0.0
C56 C 0.2354 0.03301 0.26774 0.0
C57 C 0.23434 0.0081 0.25552 0.0
H58 H 0.11186 0.01964 0.28243 0.0
H59 H 0.25616 0.04303 0.26745 0.0
O60 O 0.03786 0.07432 0.27089 0.0
O61 O 0.10516 0.05571 0.31682 0.0
O62 O 0.06354 0.04339 0.25718 0.0
O63 O 0.15831 0.066 0.25533 0.0
H64 H 0.07506 0.09942 0.25429 0.0
H65 H 0.94318 0.06997 0.24279 0.0
H66 H 0.02784 0.11569 0.21847 0.0
H67 H 0.89861 0.0867 0.2068 0.0
H68 H 0.24436 0.07238 0.37579 0.0
H69 H 0.04588 0.06508 0.3637 0.0
H70 H 0.20939 0.06048 0.32851 0.0
H71 H 0.08367 0.07689 0.41034 0.0
H72 H 0.8716 0.0709 0.34389 0.0
H73 H 0.92728 0.02926 0.36842 0.0
H74 H 0.20738 0.11882 0.29703 0.0
H75 H 0.04636 0.11582 0.33748 0.0
H76 H 0.09492 0.02271 0.21998 0.0
H77 H 0.95615 0.04602 0.25326 0.0
H78 H 0.03259 0.00848 0.18743 0.0
H79 H 0.89631 0.03147 0.21985 0.0
H80 H 0.14951 0.04442 0.21656 0.0
H81 H 0.24811 0.08006 0.24165 0.0
H82 H 0.21422 0.03916 0.17399 0.0
H83 H 0.31139 0.07415 0.19865 0.0
H84 H 0.15081 0.0886 0.15374 0.0
H85 H 0.06637 0.05026 0.13022 0.0
H86 H 0.15674 0.99796 0.26523 0.0
H87 H 0.30475 0.02176 0.25001 0.0
Li88 Li 0.21211 0.19851 0.29074 0.0
Li89 Li 0.13823 0.18144 0.28905 0.0
Li90 Li 0.16802 0.19168 0.242 0.0
Li91 Li 0.11474 0.20592 0.27681 0.0
C92 C 0.23687 0.17084 0.25114 0.0
N93 N 0.28807 0.15241 0.21108 0.0
C94 C 0.21308 0.15785 0.24435 0.0
C95 C 0.28687 0.17441 0.23768 0.0
C96 C 0.23956 0.14869 0.22402 0.0
C97 C 0.31205 0.16497 0.21744 0.0
C98 C 0.12412 0.1924 0.34297 0.0
C99 C 0.04832 0.18366 0.37289 0.0
N100 N 0.08373 0.1792 0.3951 0.0
C101 C 0.15979 0.18779 0.3661 0.0
C102 C 0.06794 0.19038 0.34635 0.0
C103 C 0.13855 0.18112 0.39229 0.0
C104 C 0.27945 0.21454 0.33147 0.0
N105 N 0.27485 0.20253 0.31458 0.0
C106 C 0.35087 0.19235 0.34072 0.0
C107 C 0.31007 0.19166 0.31835 0.0
C108 C 0.35519 0.2043 0.35963 0.0
C109 C 0.32006 0.21571 0.35419 0.0
H110 H 0.24987 0.22287 0.32846 0.0
H111 H 0.30464 0.18213 0.3051 0.0
C112 C 0.07771 0.15606 0.29942 0.0
N113 N 0.12269 0.16365 0.30706 0.0
C114 C 0.07657 0.14159 0.30501 0.0
C115 C 0.16685 0.14324 0.3274 0.0
C116 C 0.16599 0.15766 0.32174 0.0
C117 C 0.12254 0.13494 0.31803 0.0
H118 H 0.04466 0.16101 0.28691 0.0
H119 H 0.20183 0.16391 0.32671 0.0
C120 C 0.2194 0.21882 0.23878 0.0
N121 N 0.28749 0.23495 0.20217 0.0
C122 C 0.19781 0.22956 0.22035 0.0
C123 C 0.27566 0.2164 0.23883 0.0
C124 C 0.2329 0.23756 0.20194 0.0
C125 C 0.30939 0.22464 0.22009 0.0
C126 C 0.05479 0.19177 0.23234 0.0
C127 C 0.06444 0.20332 0.21308 0.0
C128 C 0.00901 0.18333 0.22718 0.0
C129 C 0.028 0.20627 0.18906 0.0
C130 C 0.97348 0.18663 0.20292 0.0
N131 N 0.98364 0.19793 0.18451 0.0
C132 C 0.14266 0.17602 0.19027 0.0
C133 C 0.18947 0.19703 0.17735 0.0
C134 C 0.125 0.17442 0.15977 0.0
N135 N 0.17226 0.18752 0.19871 0.0
C136 C 0.17195 0.19595 0.14671 0.0
C137 C 0.13753 0.18485 0.13814 0.0
H138 H 0.12811 0.16883 0.2078 0.0
H139 H 0.21316 0.206 0.18425 0.0
C140 C 0.09467 0.23446 0.27625 0.0
N141 N 0.06761 0.222 0.27569 0.0
C142 C 0.06911 0.24673 0.26619 0.0
C143 C 0.98674 0.23338 0.25732 0.0
C144 C 0.01391 0.22132 0.26774 0.0
C145 C 0.01496 0.24623 0.25551 0.0
H146 H 0.13745 0.23469 0.28242 0.0
H147 H 0.99315 0.2113 0.26746 0.0
O148 O 0.21144 0.18001 0.27089 0.0
O149 O 0.14414 0.19862 0.31682 0.0
O150 O 0.18577 0.21094 0.25718 0.0
O151 O 0.091 0.18833 0.25533 0.0
H152 H 0.17423 0.15491 0.25429 0.0
H153 H 0.30612 0.18435 0.2428 0.0
H154 H 0.22145 0.13863 0.21846 0.0
H155 H 0.3507 0.16762 0.20681 0.0
H156 H 0.00495 0.18195 0.37579 0.0
H157 H 0.20343 0.18925 0.3637 0.0
H158 H 0.03992 0.19384 0.32851 0.0
H159 H 0.16564 0.17744 0.41034 0.0
H160 H 0.37769 0.18342 0.34389 0.0
H161 H 0.32205 0.22506 0.36841 0.0
H162 H 0.04192 0.13551 0.29703 0.0
H163 H 0.20294 0.13851 0.33748 0.0
H164 H 0.15439 0.23161 0.21998 0.0
H165 H 0.29316 0.2083 0.25326 0.0
H166 H 0.21672 0.24584 0.18743 0.0
H167 H 0.353 0.22285 0.21985 0.0
H168 H 0.09979 0.20991 0.21656 0.0
H169 H 0.00119 0.17427 0.24166 0.0
H170 H 0.03508 0.21517 0.17399 0.0
H171 H 0.9379 0.18018 0.19865 0.0
H172 H 0.09849 0.16573 0.15373 0.0
H173 H 0.18294 0.20406 0.13022 0.0
H174 H 0.09257 0.25636 0.26522 0.0
H175 H 0.94456 0.23257 0.25002 0.0
Li176 Li 0.08125 0.19168 0.00358 0.0
Li177 Li 0.13455 0.20592 0.96877 0.0
Li178 Li 0.03719 0.1985 0.95483 0.0
Li179 Li 0.11106 0.18144 0.95653 0.0
C180 C 0.02987 0.21881 0.00679 0.0
N181 N 0.96175 0.23494 0.04339 0.0
C182 C 0.05145 0.22956 0.02522 0.0
C183 C 0.97361 0.21639 0.00674 0.0
C184 C 0.01634 0.23756 0.04363 0.0
C185 C 0.93987 0.22463 0.02547 0.0
C186 C 0.19447 0.19177 0.01325 0.0
C187 C 0.27578 0.18664 0.04269 0.0
N188 N 0.2656 0.19794 0.06109 0.0
C189 C 0.18482 0.20332 0.03251 0.0
C190 C 0.24025 0.18333 0.01842 0.0
C191 C 0.22124 0.20627 0.05654 0.0
C192 C 0.10659 0.17602 0.05531 0.0
N193 N 0.077 0.18751 0.04686 0.0
C194 C 0.0773 0.19595 0.09887 0.0
C195 C 0.05978 0.19703 0.06823 0.0
C196 C 0.11171 0.18485 0.10743 0.0
C197 C 0.12425 0.17441 0.08581 0.0
H198 H 0.12114 0.16883 0.03778 0.0
H199 H 0.0361 0.206 0.06132 0.0
C200 C 0.15462 0.23445 0.96935 0.0
N201 N 0.18168 0.22199 0.9699 0.0
C202 C 0.18018 0.24673 0.97941 0.0
C203 C 0.26255 0.23337 0.98828 0.0
C204 C 0.23538 0.22132 0.97785 0.0
C205 C 0.23433 0.24622 0.99008 0.0
H206 H 0.11184 0.23468 0.96316 0.0
H207 H 0.25614 0.2113 0.97814 0.0
C208 C 0.0124 0.17084 0.99441 0.0
N209 N 0.96115 0.1524 0.03446 0.0
C210 C 0.03619 0.15784 0.00122 0.0
C211 C 0.96237 0.1744 0.00785 0.0
C212 C 0.00969 0.14868 0.02153 0.0
C213 C 0.93717 0.16496 0.02808 0.0
C214 C 0.1252 0.19239 0.90261 0.0
C215 C 0.08953 0.18778 0.87948 0.0
C216 C 0.18137 0.19037 0.89924 0.0
C217 C 0.11079 0.18111 0.85329 0.0
C218 C 0.20101 0.18365 0.8727 0.0
N219 N 0.16561 0.17919 0.85048 0.0
C220 C 0.96982 0.21454 0.91412 0.0
C221 C 0.93928 0.19165 0.92718 0.0
C222 C 0.92922 0.21571 0.8914 0.0
N223 N 0.97445 0.20252 0.93098 0.0
C224 C 0.89849 0.19234 0.9048 0.0
C225 C 0.89414 0.2043 0.88592 0.0
H226 H 0.99936 0.22287 0.91717 0.0
H227 H 0.94473 0.18211 0.9404 0.0
C228 C 0.17158 0.15606 0.94617 0.0
N229 N 0.1266 0.16365 0.93852 0.0
C230 C 0.17273 0.14158 0.94057 0.0
C231 C 0.08246 0.14323 0.91818 0.0
C232 C 0.08331 0.15766 0.92384 0.0
C233 C 0.12677 0.13494 0.92755 0.0
H234 H 0.20463 0.16101 0.95868 0.0
H235 H 0.04747 0.1639 0.91886 0.0
O236 O 0.06351 0.21093 0.9884 0.0
O237 O 0.15828 0.18832 0.99025 0.0
O238 O 0.03784 0.18001 0.97468 0.0
O239 O 0.10516 0.19862 0.92876 0.0
H240 H 0.09486 0.23161 0.0256 0.0
H241 H 0.95612 0.20829 0.9923 0.0
H242 H 0.03251 0.24584 0.05814 0.0
H243 H 0.89626 0.22284 0.0257 0.0
H244 H 0.31135 0.18019 0.04696 0.0
H245 H 0.14947 0.20991 0.02902 0.0
H246 H 0.24808 0.17427 0.00394 0.0
H247 H 0.21416 0.21517 0.0716 0.0
H248 H 0.06631 0.20406 0.11536 0.0
H249 H 0.15076 0.16573 0.09184 0.0
H250 H 0.15672 0.25636 0.98038 0.0
H251 H 0.30473 0.23256 0.99558 0.0
H252 H 0.07506 0.15491 0.9913 0.0
H253 H 0.94312 0.18434 0.00273 0.0
H254 H 0.0278 0.13863 0.0271 0.0
H255 H 0.89851 0.16761 0.0387 0.0
H256 H 0.04589 0.18924 0.88187 0.0
H257 H 0.20939 0.19384 0.91708 0.0
H258 H 0.0837 0.17743 0.83524 0.0
H259 H 0.24438 0.18194 0.8698 0.0
H260 H 0.9272 0.22507 0.87721 0.0
H261 H 0.8717 0.1834 0.9016 0.0
H262 H 0.20738 0.13551 0.94855 0.0
H263 H 0.04637 0.1385 0.9081 0.0
Li264 Li 0.16805 0.06264 0.00358 0.0
Li265 Li 0.11475 0.0484 0.96877 0.0
Li266 Li 0.21212 0.05582 0.95483 0.0
Li267 Li 0.13824 0.07288 0.95653 0.0
C268 C 0.21944 0.03551 0.00679 0.0
N269 N 0.28755 0.01938 0.0434 0.0
C270 C 0.19786 0.02477 0.02522 0.0
C271 C 0.27569 0.03793 0.00674 0.0
C272 C 0.23296 0.01677 0.04364 0.0
C273 C 0.30944 0.02969 0.02547 0.0
C274 C 0.05483 0.06256 0.01325 0.0
C275 C 0.97352 0.06769 0.04269 0.0
N276 N 0.9837 0.05639 0.06109 0.0
C277 C 0.06448 0.051 0.03251 0.0
C278 C 0.00905 0.07099 0.01842 0.0
C279 C 0.02806 0.04805 0.05653 0.0
C280 C 0.14271 0.0783 0.05531 0.0
N281 N 0.1723 0.06681 0.04687 0.0
C282 C 0.17201 0.05837 0.09887 0.0
C283 C 0.18952 0.0573 0.06823 0.0
C284 C 0.13759 0.06947 0.10743 0.0
C285 C 0.12505 0.07991 0.08581 0.0
H286 H 0.12816 0.08549 0.03778 0.0
H287 H 0.21321 0.04832 0.06132 0.0
C288 C 0.09469 0.01987 0.96935 0.0
N289 N 0.06763 0.03233 0.9699 0.0
C290 C 0.06913 0.00759 0.97941 0.0
C291 C 0.98675 0.02095 0.98828 0.0
C292 C 0.01393 0.033 0.97785 0.0
C293 C 0.01498 0.0081 0.99009 0.0
H294 H 0.13747 0.01964 0.96317 0.0
H295 H 0.99317 0.04302 0.97813 0.0
C296 C 0.2369 0.08349 0.99442 0.0
N297 N 0.28814 0.10192 0.03447 0.0
C298 C 0.21311 0.09648 0.00122 0.0
C299 C 0.28693 0.07992 0.00786 0.0
C300 C 0.23961 0.10564 0.02154 0.0
C301 C 0.31212 0.08937 0.02809 0.0
C302 C 0.12411 0.06193 0.90261 0.0
C303 C 0.15978 0.06654 0.87948 0.0
C304 C 0.06794 0.06395 0.89924 0.0
C305 C 0.13852 0.07321 0.85329 0.0
C306 C 0.0483 0.07067 0.8727 0.0
N307 N 0.0837 0.07512 0.85048 0.0
C308 C 0.27949 0.03978 0.91412 0.0
C309 C 0.31004 0.06268 0.92719 0.0
C310 C 0.32009 0.03861 0.8914 0.0
N311 N 0.27486 0.0518 0.93098 0.0
C312 C 0.35083 0.06198 0.90481 0.0
C313 C 0.35518 0.05002 0.88592 0.0
H314 H 0.24994 0.03145 0.91715 0.0
H315 H 0.30459 0.07221 0.94041 0.0
C316 C 0.07772 0.09826 0.94617 0.0
N317 N 0.1227 0.09067 0.93852 0.0
C318 C 0.07658 0.11274 0.94057 0.0
C319 C 0.16685 0.11109 0.91819 0.0
C320 C 0.16599 0.09666 0.92384 0.0
C321 C 0.12254 0.11938 0.92756 0.0
H322 H 0.04467 0.09331 0.95868 0.0
H323 H 0.20183 0.09042 0.91886 0.0
O324 O 0.18579 0.04339 0.9884 0.0
O325 O 0.09102 0.066 0.99025 0.0
O326 O 0.21146 0.07432 0.97469 0.0
O327 O 0.14415 0.0557 0.92876 0.0
H328 H 0.15444 0.02271 0.0256 0.0
H329 H 0.29318 0.04603 0.9923 0.0
H330 H 0.21679 0.00849 0.05815 0.0
H331 H 0.35305 0.03148 0.02571 0.0
H332 H 0.93795 0.07414 0.04695 0.0
H333 H 0.09983 0.04441 0.02902 0.0
H334 H 0.00122 0.08005 0.00394 0.0
H335 H 0.03514 0.03916 0.0716 0.0
H336 H 0.18299 0.05027 0.11536 0.0
H337 H 0.09854 0.0886 0.09185 0.0
H338 H 0.09259 0.99796 0.98038 0.0
H339 H 0.94458 0.02176 0.99558 0.0
H340 H 0.17425 0.09941 0.9913 0.0
H341 H 0.30618 0.06998 0.00274 0.0
H342 H 0.2215 0.11569 0.0271 0.0
H343 H 0.35078 0.08672 0.03871 0.0
H344 H 0.20342 0.06508 0.88187 0.0
H345 H 0.03992 0.06048 0.91708 0.0
H346 H 0.16561 0.07689 0.83524 0.0
H347 H 0.00494 0.07238 0.8698 0.0
H348 H 0.3221 0.02925 0.87719 0.0
H349 H 0.37762 0.07092 0.90162 0.0
H350 H 0.04193 0.11881 0.94855 0.0
H351 H 0.20294 0.11582 0.9081 0.0
Li352 Li 0.91353 0.94109 0.75073 0.0
Li353 Li 0.88497 0.93126 0.70189 0.0
Li354 Li 0.95628 0.94808 0.70136 0.0
Li355 Li 0.86028 0.95595 0.71371 0.0
C356 C 0.98332 0.91969 0.73914 0.0
N357 N 0.03786 0.89962 0.77357 0.0
C358 C 0.96013 0.90642 0.7437 0.0
C359 C 0.0343 0.92273 0.75206 0.0
C360 C 0.98839 0.89642 0.76113 0.0
C361 C 0.06115 0.91246 0.76945 0.0
C362 C 0.79851 0.92941 0.74406 0.0
C363 C 0.70418 0.92216 0.74429 0.0
N364 N 0.71797 0.91065 0.76127 0.0
C365 C 0.81172 0.91755 0.76159 0.0
C366 C 0.74432 0.93177 0.73535 0.0
C367 C 0.77044 0.90817 0.77002 0.0
C368 C 0.88924 0.9512 0.80684 0.0
N369 N 0.91306 0.93962 0.7944 0.0
C370 C 0.90938 0.92781 0.84321 0.0
C371 C 0.924 0.92806 0.81187 0.0
C372 C 0.88345 0.93956 0.85639 0.0
C373 C 0.87426 0.95143 0.8379 0.0
H374 H 0.8795 0.96005 0.79214 0.0
H375 H 0.94155 0.91883 0.80139 0.0
C376 C 0.91521 0.90781 0.66909 0.0
N377 N 0.86999 0.91352 0.68239 0.0
C378 C 0.91711 0.89351 0.66213 0.0
C379 C 0.82401 0.89143 0.67998 0.0
C380 C 0.82379 0.90583 0.68637 0.0
C381 C 0.87206 0.88496 0.66907 0.0
H382 H 0.95148 0.91416 0.6662 0.0
H383 H 0.78797 0.91055 0.69646 0.0
C384 C 0.97351 0.96867 0.74249 0.0
N385 N 0.06225 0.98559 0.75526 0.0
C386 C 0.97741 0.982 0.72914 0.0
C387 C 0.01446 0.96397 0.76249 0.0
C388 C 0.02268 0.99039 0.73583 0.0
C389 C 0.05907 0.97268 0.76862 0.0
C390 C 0.86947 0.94222 0.64835 0.0
C391 C 0.90443 0.93735 0.62514 0.0
C392 C 0.81318 0.94021 0.64558 0.0
C393 C 0.88237 0.93043 0.59949 0.0
C394 C 0.79273 0.93323 0.61958 0.0
N395 N 0.82746 0.92852 0.59728 0.0
C396 C 0.05653 0.94148 0.67581 0.0
C397 C 0.02618 0.96426 0.66182 0.0
C398 C 0.09891 0.94223 0.6544 0.0
N399 N 0.02078 0.95229 0.67879 0.0
C400 C 0.06844 0.96549 0.64008 0.0
C401 C 0.10431 0.95416 0.63555 0.0
H402 H 0.05038 0.93191 0.68878 0.0
H403 H 0.99604 0.9725 0.66391 0.0
C404 C 0.77886 0.97035 0.74407 0.0
N405 N 0.81249 0.9715 0.71913 0.0
C406 C 0.75209 0.98213 0.75584 0.0
C407 C 0.79454 0.99616 0.71588 0.0
C408 C 0.82049 0.98404 0.70476 0.0
C409 C 0.76054 0.99533 0.74215 0.0
H410 H 0.77539 0.96044 0.75607 0.0
H411 H 0.84915 0.98477 0.68576 0.0
O412 O 0.95697 0.92958 0.7216 0.0
O413 O 0.83828 0.93869 0.73542 0.0
O414 O 0.92992 0.96024 0.73589 0.0
O415 O 0.89035 0.94865 0.67403 0.0
H416 H 0.92063 0.90384 0.73414 0.0
H417 H 0.05306 0.93289 0.74857 0.0
H418 H 0.97091 0.88611 0.76484 0.0
H419 H 0.1006 0.91468 0.7796 0.0
H420 H 0.66208 0.92382 0.73766 0.0
H421 H 0.8534 0.91552 0.76838 0.0
H422 H 0.73346 0.94087 0.72165 0.0
H423 H 0.78014 0.89891 0.78345 0.0
H424 H 0.91761 0.9185 0.85684 0.0
H425 H 0.8538 0.96063 0.84703 0.0
H426 H 0.95459 0.88908 0.65312 0.0
H427 H 0.78821 0.88531 0.68583 0.0
H428 H 0.94597 0.98578 0.71361 0.0
H429 H 0.01175 0.95372 0.77318 0.0
H430 H 0.02639 1.00071 0.72556 0.0
H431 H 0.09116 0.96917 0.78401 0.0
H432 H 0.94816 0.93879 0.62708 0.0
H433 H 0.78571 0.94387 0.66351 0.0
H434 H 0.90891 0.92653 0.58138 0.0
H435 H 0.74928 0.93152 0.61717 0.0
H436 H 0.12611 0.93333 0.65187 0.0
H437 H 0.07113 0.97482 0.62581 0.0
H438 H 0.72707 0.981 0.77638 0.0
H439 H 0.80181 0.0061 0.70442 0.0
Li440 Li 0.86435 0.82306 0.7019 0.0
Li441 Li 0.83579 0.81324 0.75073 0.0
Li442 Li 0.88903 0.79837 0.71371 0.0
Li443 Li 0.79303 0.80625 0.70136 0.0
C444 C 0.95079 0.82492 0.74407 0.0
N445 N 0.03132 0.84368 0.76129 0.0
C446 C 0.93758 0.83678 0.7616 0.0
C447 C 0.005 0.82256 0.73536 0.0
C448 C 0.97885 0.84616 0.77003 0.0
C449 C 0.04513 0.83217 0.74431 0.0
C450 C 0.766 0.83463 0.73914 0.0
C451 C 0.68815 0.84187 0.76945 0.0
N452 N 0.71144 0.8547 0.77357 0.0
C453 C 0.78918 0.84791 0.74371 0.0
C454 C 0.71501 0.8316 0.75206 0.0
C455 C 0.76092 0.85791 0.76113 0.0
C456 C 0.83411 0.84651 0.6691 0.0
N457 N 0.87932 0.8408 0.6824 0.0
C458 C 0.9253 0.86289 0.67999 0.0
C459 C 0.92552 0.84849 0.68638 0.0
C460 C 0.87724 0.86936 0.66907 0.0
C461 C 0.8322 0.86081 0.66213 0.0
H462 H 0.79783 0.84016 0.6662 0.0
H463 H 0.96134 0.84377 0.69647 0.0
C464 C 0.8601 0.80313 0.80683 0.0
N465 N 0.83626 0.81471 0.7944 0.0
C466 C 0.87508 0.8029 0.8379 0.0
C467 C 0.83992 0.82651 0.84321 0.0
C468 C 0.8253 0.82626 0.81188 0.0
C469 C 0.86587 0.81477 0.8564 0.0
H470 H 0.86986 0.79428 0.79213 0.0
H471 H 0.80773 0.83549 0.8014 0.0
C472 C 0.87984 0.8121 0.64835 0.0
N473 N 0.92186 0.8258 0.59728 0.0
C474 C 0.84488 0.81697 0.62514 0.0
C475 C 0.93613 0.81411 0.64559 0.0
C476 C 0.86695 0.82389 0.59949 0.0
C477 C 0.95659 0.82109 0.61958 0.0
C478 C 0.7758 0.78565 0.7425 0.0
C479 C 0.7719 0.77232 0.72915 0.0
C480 C 0.73486 0.79036 0.76249 0.0
C481 C 0.72662 0.76393 0.73585 0.0
C482 C 0.69025 0.78165 0.76864 0.0
N483 N 0.68706 0.76874 0.75528 0.0
C484 C 0.97046 0.78397 0.74406 0.0
C485 C 0.92882 0.77028 0.70476 0.0
C486 C 0.99723 0.77219 0.75583 0.0
N487 N 0.93683 0.78282 0.71913 0.0
C488 C 0.95477 0.75816 0.71589 0.0
C489 C 0.98877 0.75899 0.74215 0.0
H490 H 0.97394 0.79389 0.75607 0.0
H491 H 0.90015 0.76955 0.68576 0.0
C492 C 0.6928 0.81285 0.6758 0.0
N493 N 0.72853 0.80204 0.6788 0.0
C494 C 0.65042 0.8121 0.6544 0.0
C495 C 0.68085 0.78884 0.64009 0.0
C496 C 0.72311 0.79007 0.66183 0.0
C497 C 0.64499 0.80017 0.63555 0.0
H498 H 0.69897 0.82242 0.68876 0.0
H499 H 0.75324 0.78182 0.66392 0.0
O500 O 0.91104 0.81563 0.73542 0.0
O501 O 0.79235 0.82475 0.7216 0.0
O502 O 0.85896 0.80567 0.67403 0.0
O503 O 0.81939 0.79409 0.73589 0.0
H504 H 0.8959 0.8388 0.76838 0.0
H505 H 0.01586 0.81346 0.72166 0.0
H506 H 0.96914 0.85542 0.78346 0.0
H507 H 0.08723 0.83051 0.73768 0.0
H508 H 0.6487 0.83964 0.77959 0.0
H509 H 0.82868 0.85048 0.73415 0.0
H510 H 0.69624 0.82143 0.74857 0.0
H511 H 0.7784 0.86821 0.76485 0.0
H512 H 0.96109 0.86901 0.68584 0.0
H513 H 0.79472 0.86524 0.65312 0.0
H514 H 0.89556 0.7937 0.84702 0.0
H515 H 0.83167 0.83582 0.85685 0.0
H516 H 0.80116 0.81553 0.62708 0.0
H517 H 0.9636 0.81045 0.66352 0.0
H518 H 0.84041 0.82779 0.58138 0.0
H519 H 4e-05 0.8228 0.61718 0.0
H520 H 0.80332 0.76855 0.71362 0.0
H521 H 0.73758 0.80062 0.77318 0.0
H522 H 0.7229 0.75361 0.72559 0.0
H523 H 0.65817 0.78516 0.78403 0.0
H524 H 0.02225 0.77333 0.77637 0.0
H525 H 0.94749 0.74822 0.70442 0.0
H526 H 0.62322 0.821 0.65186 0.0
H527 H 0.67815 0.7795 0.62582 0.0
Li528 Li 0.95628 0.80625 0.04426 0.0
Li529 Li 0.86028 0.79837 0.03188 0.0
Li530 Li 0.91356 0.81324 0.99488 0.0
Li531 Li 0.88496 0.82306 0.0437 0.0
C532 C 0.97354 0.78566 0.00311 0.0
N533 N 0.06229 0.76875 0.9903 0.0
C534 C 0.97741 0.77232 0.01641 0.0
C535 C 0.01452 0.79038 0.98315 0.0
C536 C 0.0227 0.76393 0.00969 0.0
C537 C 0.05913 0.78168 0.977 0.0
C538 C 0.86942 0.81211 0.09724 0.0
C539 C 0.79266 0.8211 0.126 0.0
N540 N 0.82738 0.82581 0.14831 0.0
C541 C 0.90437 0.81698 0.12046 0.0
C542 C 0.81313 0.81411 0.1 0.0
C543 C 0.88229 0.8239 0.14611 0.0
C544 C 0.05641 0.81288 0.06991 0.0
N545 N 0.02076 0.80205 0.06685 0.0
C546 C 0.0685 0.78883 0.1055 0.0
C547 C 0.02626 0.79006 0.08375 0.0
C548 C 0.10427 0.80017 0.11011 0.0
C549 C 0.09877 0.81213 0.09133 0.0
H550 H 0.05018 0.82245 0.057 0.0
H551 H 0.9962 0.7818 0.0816 0.0
C552 C 0.77886 0.78397 0.00151 0.0
N553 N 0.81249 0.78282 0.02645 0.0
C554 C 0.7521 0.77219 0.98974 0.0
C555 C 0.79454 0.75816 0.02969 0.0
C556 C 0.82049 0.77028 0.04082 0.0
C557 C 0.76055 0.75899 0.00342 0.0
H558 H 0.7754 0.79389 0.98951 0.0
H559 H 0.84915 0.76955 0.05983 0.0
C560 C 0.98334 0.83464 0.0065 0.0
N561 N 0.03792 0.85472 0.97213 0.0
C562 C 0.96012 0.8479 0.00191 0.0
C563 C 0.03438 0.83161 0.99364 0.0
C564 C 0.9884 0.85791 0.98451 0.0
C565 C 0.06125 0.84189 0.97627 0.0
C566 C 0.79852 0.82491 0.00153 0.0
C567 C 0.8117 0.83677 0.98398 0.0
C568 C 0.74434 0.82255 0.01026 0.0
C569 C 0.77041 0.84614 0.97557 0.0
C570 C 0.70418 0.83216 0.00133 0.0
N571 N 0.71795 0.84366 0.98433 0.0
C572 C 0.88931 0.80313 0.93877 0.0
C573 C 0.92409 0.82626 0.93374 0.0
C574 C 0.87434 0.80289 0.9077 0.0
N575 N 0.91314 0.81471 0.95121 0.0
C576 C 0.90949 0.82651 0.9024 0.0
C577 C 0.88355 0.81477 0.88921 0.0
H578 H 0.87955 0.79427 0.95346 0.0
H579 H 0.94165 0.83549 0.94423 0.0
C580 C 0.91519 0.84651 0.0765 0.0
N581 N 0.86998 0.8408 0.06319 0.0
C582 C 0.91709 0.86081 0.08346 0.0
C583 C 0.824 0.86289 0.0656 0.0
C584 C 0.82378 0.84849 0.05921 0.0
C585 C 0.87205 0.86936 0.07652 0.0
H586 H 0.95146 0.84016 0.0794 0.0
H587 H 0.78796 0.84377 0.04912 0.0
O588 O 0.92994 0.79408 0.00973 0.0
O589 O 0.89032 0.80568 0.07157 0.0
O590 O 0.95697 0.82474 0.02402 0.0
O591 O 0.8383 0.81563 0.01017 0.0
H592 H 0.94596 0.76853 0.03191 0.0
H593 H 0.01182 0.80064 0.97251 0.0
H594 H 0.02639 0.7536 0.01992 0.0
H595 H 0.09124 0.7852 0.96164 0.0
H596 H 0.74921 0.82281 0.12839 0.0
H597 H 0.94809 0.81554 0.11853 0.0
H598 H 0.78568 0.81045 0.08207 0.0
H599 H 0.90882 0.8278 0.16421 0.0
H600 H 0.07127 0.77948 0.11971 0.0
H601 H 0.12589 0.82104 0.09392 0.0
H602 H 0.72709 0.77333 0.9692 0.0
H603 H 0.80181 0.74822 0.04116 0.0
H604 H 0.92058 0.85047 0.01143 0.0
H605 H 0.05317 0.82145 0.99715 0.0
H606 H 0.97088 0.86821 0.98078 0.0
H607 H 0.10074 0.83968 0.96617 0.0
H608 H 0.85337 0.83879 0.97718 0.0
H609 H 0.7335 0.81345 0.02397 0.0
H610 H 0.78009 0.8554 0.96212 0.0
H611 H 0.66209 0.83049 0.00797 0.0
H612 H 0.85387 0.7937 0.89856 0.0
H613 H 0.91773 0.83582 0.88877 0.0
H614 H 0.95458 0.86525 0.09247 0.0
H615 H 0.78821 0.86901 0.05975 0.0
Li616 Li 0.88902 0.95596 0.03188 0.0
Li617 Li 0.79302 0.94808 0.04426 0.0
Li618 Li 0.86434 0.93127 0.0437 0.0
Li619 Li 0.83575 0.94109 0.99488 0.0
C620 C 0.87987 0.94222 0.09724 0.0
N621 N 0.9219 0.92851 0.14831 0.0
C622 C 0.84491 0.93735 0.12046 0.0
C623 C 0.93616 0.94021 0.1 0.0
C624 C 0.86698 0.93042 0.14611 0.0
C625 C 0.95662 0.93323 0.126 0.0
C626 C 0.77577 0.96867 0.0031 0.0
C627 C 0.69019 0.97265 0.97698 0.0
N628 N 0.68703 0.98558 0.99028 0.0
C629 C 0.77189 0.98201 0.0164 0.0
C630 C 0.73481 0.96395 0.98314 0.0
C631 C 0.72662 0.9904 0.00968 0.0
C632 C 0.97045 0.97035 0.00152 0.0
N633 N 0.93682 0.9715 0.02645 0.0
C634 C 0.95476 0.99616 0.02969 0.0
C635 C 0.92882 0.98404 0.04082 0.0
C636 C 0.98877 0.99533 0.00343 0.0
C637 C 0.99722 0.98213 0.98975 0.0
H638 H 0.97392 0.96044 0.98952 0.0
H639 H 0.90015 0.98478 0.05983 0.0
C640 C 0.6929 0.94145 0.06991 0.0
N641 N 0.72854 0.95228 0.06684 0.0
C642 C 0.65053 0.9422 0.09132 0.0
C643 C 0.6808 0.9655 0.1055 0.0
C644 C 0.72304 0.96427 0.08375 0.0
C645 C 0.64503 0.95416 0.11011 0.0
H646 H 0.69913 0.93188 0.05699 0.0
H647 H 0.75309 0.97253 0.0816 0.0
C648 C 0.95077 0.92941 0.00153 0.0
N649 N 0.03132 0.91066 0.98432 0.0
C650 C 0.93757 0.91756 0.98398 0.0
C651 C 0.00496 0.93177 0.01025 0.0
C652 C 0.97885 0.90818 0.97555 0.0
C653 C 0.04511 0.92216 0.00131 0.0
C654 C 0.76595 0.91969 0.0065 0.0
C655 C 0.78916 0.90642 0.0019 0.0
C656 C 0.71492 0.92272 0.99363 0.0
C657 C 0.76088 0.89642 0.9845 0.0
C658 C 0.68804 0.91244 0.97626 0.0
N659 N 0.71135 0.89961 0.97211 0.0
C660 C 0.8341 0.90782 0.07649 0.0
C661 C 0.92551 0.90583 0.05921 0.0
C662 C 0.83219 0.89352 0.08345 0.0
N663 N 0.87931 0.91353 0.06319 0.0
C664 C 0.92529 0.89143 0.0656 0.0
C665 C 0.87724 0.88496 0.07651 0.0
H666 H 0.79783 0.91417 0.07939 0.0
H667 H 0.96133 0.91055 0.04912 0.0
C668 C 0.86003 0.9512 0.93877 0.0
N669 N 0.83618 0.93962 0.95121 0.0
C670 C 0.875 0.95143 0.90771 0.0
C671 C 0.8398 0.92782 0.9024 0.0
C672 C 0.8252 0.92807 0.93373 0.0
C673 C 0.86577 0.93956 0.88921 0.0
H674 H 0.86981 0.96005 0.95347 0.0
H675 H 0.80762 0.91884 0.94422 0.0
O676 O 0.85898 0.94865 0.07157 0.0
O677 O 0.81937 0.96024 0.00973 0.0
O678 O 0.911 0.9387 0.01017 0.0
O679 O 0.79233 0.92958 0.02401 0.0
H680 H 0.80119 0.93879 0.11852 0.0
H681 H 0.96362 0.94387 0.08207 0.0
H682 H 0.84045 0.92653 0.16421 0.0
H683 H 7e-05 0.93152 0.1284 0.0
H684 H 0.65809 0.96913 0.96161 0.0
H685 H 0.80334 0.9858 0.03191 0.0
H686 H 0.7375 0.95369 0.97249 0.0
H687 H 0.72292 1.00073 0.01991 0.0
H688 H 0.94749 0.00611 0.04116 0.0
H689 H 0.02224 0.98099 0.96921 0.0
H690 H 0.62342 0.93329 0.09392 0.0
H691 H 0.67802 0.97485 0.11971 0.0
H692 H 0.8959 0.91553 0.97718 0.0
H693 H 0.01582 0.94087 0.02396 0.0
H694 H 0.96916 0.89892 0.96211 0.0
H695 H 0.0872 0.92383 0.00795 0.0
H696 H 0.8287 0.90386 0.01142 0.0
H697 H 0.69613 0.93288 0.99715 0.0
H698 H 0.77838 0.88612 0.98076 0.0
H699 H 0.64855 0.91466 0.96615 0.0
H700 H 0.79471 0.88908 0.09246 0.0
H701 H 0.96108 0.88531 0.05975 0.0
H702 H 0.89549 0.96062 0.89857 0.0
H703 H 0.83155 0.91851 0.88876 0.0
Li704 Li 0.03718 0.55582 0.79073 0.0
Li705 Li 0.11106 0.57289 0.78904 0.0
Li706 Li 0.08127 0.56265 0.74199 0.0
Li707 Li 0.13455 0.54841 0.7768 0.0
C708 C 0.01242 0.58349 0.75114 0.0
N709 N 0.96121 0.60192 0.71108 0.0
C710 C 0.0362 0.59648 0.74435 0.0
C711 C 0.96241 0.57992 0.73768 0.0
C712 C 0.00972 0.60564 0.72402 0.0
C713 C 0.93723 0.58936 0.71744 0.0
C714 C 0.12518 0.56193 0.84296 0.0
C715 C 0.20099 0.57067 0.87288 0.0
N716 N 0.16559 0.57513 0.89509 0.0
C717 C 0.08951 0.56654 0.86609 0.0
C718 C 0.18136 0.56395 0.84634 0.0
C719 C 0.11077 0.57321 0.89228 0.0
C720 C 0.96985 0.53979 0.83146 0.0
N721 N 0.97445 0.5518 0.81457 0.0
C722 C 0.89843 0.56197 0.84072 0.0
C723 C 0.93922 0.56267 0.81834 0.0
C724 C 0.89412 0.55002 0.85963 0.0
C725 C 0.92925 0.53862 0.85418 0.0
H726 H 0.99943 0.53146 0.82845 0.0
H727 H 0.94464 0.5722 0.8051 0.0
C728 C 0.17158 0.59827 0.79941 0.0
N729 N 0.1266 0.59068 0.80705 0.0
C730 C 0.17273 0.61274 0.80501 0.0
C731 C 0.08245 0.61109 0.82739 0.0
C732 C 0.08331 0.59667 0.82173 0.0
C733 C 0.12676 0.61939 0.81802 0.0
H734 H 0.20463 0.59331 0.7869 0.0
H735 H 0.04747 0.59042 0.82671 0.0
C736 C 0.02989 0.53551 0.73877 0.0
N737 N 0.96179 0.51938 0.70216 0.0
C738 C 0.05147 0.52477 0.72034 0.0
C739 C 0.97363 0.53793 0.73882 0.0
C740 C 0.01638 0.51676 0.70192 0.0
C741 C 0.93989 0.52969 0.72008 0.0
C742 C 0.19449 0.56256 0.73233 0.0
C743 C 0.18484 0.55101 0.71307 0.0
C744 C 0.24027 0.571 0.72716 0.0
C745 C 0.22127 0.54806 0.68904 0.0
C746 C 0.2758 0.56769 0.7029 0.0
N747 N 0.26563 0.55639 0.68449 0.0
C748 C 0.10661 0.57831 0.69026 0.0
C749 C 0.05981 0.5573 0.67734 0.0
C750 C 0.12428 0.57991 0.65976 0.0
N751 N 0.07702 0.56681 0.6987 0.0
C752 C 0.07732 0.55837 0.6467 0.0
C753 C 0.11174 0.56948 0.63814 0.0
H754 H 0.12117 0.5855 0.70779 0.0
H755 H 0.03612 0.54833 0.68424 0.0
C756 C 0.15462 0.51987 0.77623 0.0
N757 N 0.18168 0.53233 0.77567 0.0
C758 C 0.18018 0.50759 0.76617 0.0
C759 C 0.26255 0.52095 0.7573 0.0
C760 C 0.23538 0.53301 0.76772 0.0
C761 C 0.23432 0.5081 0.75549 0.0
H762 H 0.11184 0.51964 0.78241 0.0
H763 H 0.25614 0.54303 0.76744 0.0
O764 O 0.03784 0.57432 0.77088 0.0
O765 O 0.10515 0.55571 0.81681 0.0
O766 O 0.06352 0.54339 0.75716 0.0
O767 O 0.15829 0.566 0.75532 0.0
H768 H 0.07505 0.59942 0.75429 0.0
H769 H 0.94316 0.56997 0.74279 0.0
H770 H 0.02782 0.61569 0.71846 0.0
H771 H 0.89858 0.58671 0.70681 0.0
H772 H 0.24436 0.57238 0.87578 0.0
H773 H 0.04587 0.56508 0.86369 0.0
H774 H 0.20938 0.56048 0.8285 0.0
H775 H 0.08367 0.57689 0.91033 0.0
H776 H 0.8716 0.5709 0.84389 0.0
H777 H 0.92727 0.52926 0.8684 0.0
H778 H 0.20738 0.61882 0.79703 0.0
H779 H 0.04636 0.61582 0.83747 0.0
H780 H 0.09489 0.52272 0.71996 0.0
H781 H 0.95613 0.54602 0.75325 0.0
H782 H 0.03256 0.50849 0.68741 0.0
H783 H 0.89628 0.53147 0.71984 0.0
H784 H 0.14949 0.54442 0.71655 0.0
H785 H 0.24809 0.58006 0.74164 0.0
H786 H 0.21419 0.53916 0.67397 0.0
H787 H 0.31137 0.57414 0.69863 0.0
H788 H 0.15079 0.5886 0.65373 0.0
H789 H 0.06634 0.55027 0.63021 0.0
H790 H 0.15672 0.49796 0.7652 0.0
H791 H 0.30473 0.52176 0.75 0.0
Li792 Li 0.21212 0.69851 0.79073 0.0
Li793 Li 0.13824 0.68144 0.78904 0.0
Li794 Li 0.16804 0.69168 0.74199 0.0
Li795 Li 0.11475 0.70592 0.77679 0.0
C796 C 0.23688 0.67084 0.75114 0.0
N797 N 0.28809 0.65241 0.71107 0.0
C798 C 0.2131 0.65784 0.74435 0.0
C799 C 0.28689 0.67441 0.73768 0.0
C800 C 0.23958 0.64868 0.72402 0.0
C801 C 0.31207 0.66496 0.71744 0.0
C802 C 0.12412 0.6924 0.84296 0.0
C803 C 0.04832 0.68366 0.87288 0.0
N804 N 0.08373 0.6792 0.89509 0.0
C805 C 0.1598 0.68779 0.86608 0.0
C806 C 0.06795 0.69038 0.84634 0.0
C807 C 0.13855 0.68112 0.89228 0.0
C808 C 0.27946 0.71454 0.83146 0.0
N809 N 0.27486 0.70253 0.81457 0.0
C810 C 0.35088 0.69235 0.84072 0.0
C811 C 0.31008 0.69166 0.81834 0.0
C812 C 0.35519 0.7043 0.85963 0.0
C813 C 0.32007 0.71571 0.85418 0.0
H814 H 0.24988 0.72286 0.82845 0.0
H815 H 0.30466 0.68213 0.8051 0.0
C816 C 0.07772 0.65606 0.79941 0.0
N817 N 0.1227 0.66365 0.80705 0.0
C818 C 0.07658 0.64159 0.805 0.0
C819 C 0.16685 0.64324 0.82739 0.0
C820 C 0.16599 0.65766 0.82173 0.0
C821 C 0.12254 0.63494 0.81802 0.0
H822 H 0.04467 0.66101 0.7869 0.0
H823 H 0.20183 0.66391 0.82671 0.0
C824 C 0.21942 0.71881 0.73877 0.0
N825 N 0.28752 0.73495 0.70215 0.0
C826 C 0.19784 0.72955 0.72034 0.0
C827 C 0.27568 0.7164 0.73882 0.0
C828 C 0.23294 0.73756 0.70192 0.0
C829 C 0.30942 0.72463 0.72008 0.0
C830 C 0.05482 0.69176 0.73233 0.0
C831 C 0.06446 0.70332 0.71306 0.0
C832 C 0.00903 0.68333 0.72716 0.0
C833 C 0.02803 0.70627 0.68904 0.0
C834 C 0.9735 0.68663 0.7029 0.0
N835 N 0.98367 0.69793 0.68449 0.0
C836 C 0.14269 0.67602 0.69026 0.0
C837 C 0.1895 0.69702 0.67734 0.0
C838 C 0.12502 0.67441 0.65976 0.0
N839 N 0.17228 0.68751 0.6987 0.0
C840 C 0.17198 0.69595 0.6467 0.0
C841 C 0.13756 0.68485 0.63813 0.0
H842 H 0.12813 0.66883 0.70779 0.0
H843 H 0.21319 0.706 0.68424 0.0
C844 C 0.09469 0.73445 0.77622 0.0
N845 N 0.06763 0.722 0.77567 0.0
C846 C 0.06914 0.74673 0.76616 0.0
C847 C 0.98676 0.73338 0.7573 0.0
C848 C 0.01393 0.72132 0.76772 0.0
C849 C 0.01499 0.74623 0.75549 0.0
H850 H 0.13747 0.73469 0.7824 0.0
H851 H 0.99317 0.7113 0.76744 0.0
O852 O 0.21146 0.68001 0.77088 0.0
O853 O 0.14415 0.69862 0.81681 0.0
O854 O 0.18579 0.71093 0.75716 0.0
O855 O 0.09101 0.68832 0.75532 0.0
H856 H 0.17424 0.65491 0.75428 0.0
H857 H 0.30614 0.68435 0.74279 0.0
H858 H 0.22147 0.63863 0.71846 0.0
H859 H 0.35072 0.66761 0.7068 0.0
H860 H 0.00495 0.68195 0.87578 0.0
H861 H 0.20343 0.68925 0.86369 0.0
H862 H 0.03993 0.69385 0.8285 0.0
H863 H 0.16564 0.67744 0.91033 0.0
H864 H 0.3777 0.68342 0.84388 0.0
H865 H 0.32205 0.72506 0.86841 0.0
H866 H 0.04192 0.63551 0.79702 0.0
H867 H 0.20294 0.63851 0.83747 0.0
H868 H 0.15442 0.73161 0.71996 0.0
H869 H 0.29318 0.7083 0.75325 0.0
H870 H 0.21676 0.74584 0.68741 0.0
H871 H 0.35303 0.72285 0.71984 0.0
H872 H 0.09982 0.70991 0.71655 0.0
H873 H 0.0012 0.67427 0.74164 0.0
H874 H 0.03512 0.71516 0.67397 0.0
H875 H 0.93793 0.68018 0.69863 0.0
H876 H 0.09851 0.66572 0.65373 0.0
H877 H 0.18297 0.70405 0.63021 0.0
H878 H 0.0926 0.75636 0.76519 0.0
H879 H 0.94458 0.73257 0.75 0.0
Li880 Li 0.13456 0.70592 0.46877 0.0
Li881 Li 0.08127 0.69168 0.50357 0.0
Li882 Li 0.11107 0.68144 0.45652 0.0
Li883 Li 0.03719 0.6985 0.45483 0.0
C884 C 0.19449 0.69176 0.51323 0.0
N885 N 0.26563 0.69793 0.56108 0.0
C886 C 0.18484 0.70332 0.5325 0.0
C887 C 0.24027 0.68333 0.5184 0.0
C888 C 0.22126 0.70627 0.55652 0.0
C889 C 0.2758 0.68663 0.54267 0.0
C890 C 0.02988 0.71881 0.50679 0.0
C891 C 0.93988 0.72462 0.52548 0.0
N892 N 0.96176 0.73494 0.5434 0.0
C893 C 0.05146 0.72955 0.52522 0.0
C894 C 0.97362 0.71639 0.50674 0.0
C895 C 0.01635 0.73755 0.54364 0.0
C896 C 0.15462 0.73445 0.46935 0.0
N897 N 0.18168 0.72199 0.4699 0.0
C898 C 0.26255 0.73337 0.48828 0.0
C899 C 0.23538 0.72132 0.47785 0.0
C900 C 0.23432 0.74622 0.49009 0.0
C901 C 0.18017 0.74673 0.47941 0.0
H902 H 0.11184 0.73468 0.46317 0.0
H903 H 0.25614 0.7113 0.47812 0.0
C904 C 0.10662 0.67602 0.5553 0.0
N905 N 0.07702 0.68751 0.54686 0.0
C906 C 0.12428 0.67441 0.5858 0.0
C907 C 0.07731 0.69594 0.59886 0.0
C908 C 0.0598 0.69702 0.56822 0.0
C909 C 0.11174 0.68484 0.60742 0.0
H910 H 0.12117 0.66883 0.53776 0.0
H911 H 0.0361 0.70599 0.56132 0.0
C912 C 0.1252 0.6924 0.4026 0.0
N913 N 0.16562 0.6792 0.35047 0.0
C914 C 0.08954 0.68778 0.37947 0.0
C915 C 0.18138 0.69037 0.39923 0.0
C916 C 0.1108 0.68112 0.35328 0.0
C917 C 0.20102 0.68365 0.37269 0.0
C918 C 0.01242 0.67083 0.49441 0.0
C919 C 0.03621 0.65784 0.50121 0.0
C920 C 0.96239 0.6744 0.50785 0.0
C921 C 0.00971 0.64868 0.52153 0.0
C922 C 0.9372 0.66495 0.52808 0.0
N923 N 0.96119 0.6524 0.53445 0.0
C924 C 0.17159 0.65606 0.44615 0.0
C925 C 0.08332 0.65766 0.42383 0.0
C926 C 0.17273 0.64158 0.44056 0.0
N927 N 0.12661 0.66365 0.43851 0.0
C928 C 0.08246 0.64323 0.41817 0.0
C929 C 0.12677 0.63494 0.42754 0.0
H930 H 0.20464 0.66101 0.45866 0.0
H931 H 0.04748 0.6639 0.41885 0.0
C932 C 0.96982 0.71454 0.41412 0.0
N933 N 0.97446 0.70252 0.43098 0.0
C934 C 0.92921 0.71571 0.39141 0.0
C935 C 0.89849 0.69234 0.4048 0.0
C936 C 0.93928 0.69164 0.42718 0.0
C937 C 0.89413 0.7043 0.38592 0.0
H938 H 0.99936 0.72287 0.41717 0.0
H939 H 0.94473 0.68211 0.4404 0.0
O940 O 0.1583 0.68832 0.49024 0.0
O941 O 0.06352 0.71093 0.4884 0.0
O942 O 0.10516 0.69862 0.42875 0.0
O943 O 0.03785 0.68 0.47468 0.0
H944 H 0.14948 0.7099 0.52902 0.0
H945 H 0.24811 0.67427 0.50392 0.0
H946 H 0.21418 0.71516 0.57159 0.0
H947 H 0.31138 0.68019 0.54693 0.0
H948 H 0.89627 0.72283 0.52571 0.0
H949 H 0.09487 0.73161 0.52561 0.0
H950 H 0.95613 0.70829 0.4923 0.0
H951 H 0.03252 0.74583 0.55816 0.0
H952 H 0.30473 0.73256 0.49558 0.0
H953 H 0.15671 0.75636 0.48039 0.0
H954 H 0.1508 0.66572 0.59183 0.0
H955 H 0.06633 0.70405 0.61535 0.0
H956 H 0.0459 0.68924 0.38186 0.0
H957 H 0.20939 0.69384 0.41707 0.0
H958 H 0.08371 0.67743 0.33523 0.0
H959 H 0.24438 0.68195 0.3698 0.0
H960 H 0.07508 0.6549 0.49128 0.0
H961 H 0.94313 0.68434 0.50273 0.0
H962 H 0.02783 0.63863 0.52709 0.0
H963 H 0.89854 0.6676 0.5387 0.0
H964 H 0.20738 0.63551 0.44854 0.0
H965 H 0.04637 0.6385 0.40809 0.0
H966 H 0.9272 0.72507 0.37721 0.0
H967 H 0.87169 0.6834 0.40161 0.0
Li968 Li 0.16803 0.56264 0.50357 0.0
Li969 Li 0.11474 0.5484 0.46877 0.0
Li970 Li 0.21211 0.55582 0.45483 0.0
Li971 Li 0.13823 0.57288 0.45652 0.0
C972 C 0.21942 0.53551 0.50679 0.0
N973 N 0.28754 0.51939 0.5434 0.0
C974 C 0.19785 0.52477 0.52522 0.0
C975 C 0.27568 0.53793 0.50674 0.0
C976 C 0.23295 0.51677 0.54364 0.0
C977 C 0.30942 0.5297 0.52548 0.0
C978 C 0.05481 0.56256 0.51323 0.0
C979 C 0.97349 0.56769 0.54267 0.0
N980 N 0.98367 0.55639 0.56107 0.0
C981 C 0.06446 0.551 0.5325 0.0
C982 C 0.00902 0.57099 0.5184 0.0
C983 C 0.02803 0.54805 0.55652 0.0
C984 C 0.14268 0.57831 0.5553 0.0
N985 N 0.17228 0.56681 0.54686 0.0
C986 C 0.17199 0.55838 0.59886 0.0
C987 C 0.1895 0.5573 0.56822 0.0
C988 C 0.13756 0.56948 0.60742 0.0
C989 C 0.12502 0.57991 0.5858 0.0
H990 H 0.12812 0.5855 0.53777 0.0
H991 H 0.2132 0.54833 0.56132 0.0
C992 C 0.09468 0.51987 0.46935 0.0
N993 N 0.06762 0.53233 0.4699 0.0
C994 C 0.06913 0.50759 0.47941 0.0
C995 C 0.98675 0.52095 0.48827 0.0
C996 C 0.01392 0.533 0.47784 0.0
C997 C 0.01498 0.5081 0.49009 0.0
H998 H 0.13747 0.51964 0.46317 0.0
H999 H 0.99316 0.54302 0.47812 0.0
C1000 C 0.23688 0.58349 0.49441 0.0
N1001 N 0.28811 0.60193 0.53446 0.0
C1002 C 0.21309 0.59648 0.50121 0.0
C1003 C 0.28691 0.57992 0.50785 0.0
C1004 C 0.23958 0.60564 0.52153 0.0
C1005 C 0.3121 0.58937 0.52809 0.0
C1006 C 0.1241 0.56192 0.4026 0.0
C1007 C 0.15977 0.56653 0.37947 0.0
C1008 C 0.06793 0.56394 0.39923 0.0
C1009 C 0.13851 0.5732 0.35328 0.0
C1010 C 0.04829 0.57066 0.37269 0.0
N1011 N 0.08369 0.57512 0.35047 0.0
C1012 C 0.27949 0.53978 0.41412 0.0
C1013 C 0.31003 0.56268 0.42719 0.0
C1014 C 0.32009 0.53861 0.3914 0.0
N1015 N 0.27485 0.5518 0.43098 0.0
C1016 C 0.35082 0.56198 0.40481 0.0
C1017 C 0.35518 0.55002 0.38593 0.0
H1018 H 0.24994 0.53145 0.41716 0.0
H1019 H 0.30458 0.57221 0.44041 0.0
C1020 C 0.07771 0.59826 0.44615 0.0
N1021 N 0.12269 0.59067 0.43851 0.0
C1022 C 0.07657 0.61274 0.44056 0.0
C1023 C 0.16684 0.61109 0.41817 0.0
C1024 C 0.16598 0.59666 0.42383 0.0
C1025 C 0.12254 0.61938 0.42754 0.0
H1026 H 0.04466 0.59331 0.45866 0.0
H1027 H 0.20182 0.59042 0.41885 0.0
O1028 O 0.18578 0.54339 0.4884 0.0
O1029 O 0.091 0.566 0.49024 0.0
O1030 O 0.21145 0.57432 0.47468 0.0
O1031 O 0.14414 0.5557 0.42875 0.0
H1032 H 0.15443 0.52272 0.52561 0.0
H1033 H 0.29317 0.54603 0.4923 0.0
H1034 H 0.21678 0.50849 0.55815 0.0
H1035 H 0.35304 0.53149 0.52571 0.0
H1036 H 0.93792 0.57413 0.54693 0.0
H1037 H 0.09982 0.54442 0.52901 0.0
H1038 H 0.00119 0.58005 0.50392 0.0
H1039 H 0.03512 0.53916 0.57159 0.0
H1040 H 0.18298 0.55027 0.61535 0.0
H1041 H 0.0985 0.5886 0.59183 0.0
H1042 H 0.09259 0.49796 0.48039 0.0
H1043 H 0.94457 0.52176 0.49557 0.0
H1044 H 0.17422 0.59942 0.49129 0.0
H1045 H 0.30616 0.56998 0.50273 0.0
H1046 H 0.22146 0.6157 0.52709 0.0
H1047 H 0.35076 0.58672 0.53871 0.0
H1048 H 0.20341 0.56508 0.38186 0.0
H1049 H 0.03991 0.56048 0.41707 0.0
H1050 H 0.1656 0.57688 0.33523 0.0
H1051 H 0.00492 0.57237 0.3698 0.0
H1052 H 0.32211 0.52925 0.3772 0.0
H1053 H 0.37761 0.57092 0.40162 0.0
H1054 H 0.04192 0.61881 0.44854 0.0
H1055 H 0.20294 0.61581 0.40809 0.0
Li1056 Li 0.91355 0.44108 0.25074 0.0
Li1057 Li 0.88498 0.43126 0.20191 0.0
Li1058 Li 0.9563 0.44807 0.20137 0.0
Li1059 Li 0.8603 0.45595 0.21373 0.0
C1060 C 0.98333 0.41969 0.23914 0.0
N1061 N 0.03787 0.39961 0.27356 0.0
C1062 C 0.96014 0.40641 0.24371 0.0
C1063 C 0.03432 0.42272 0.25206 0.0
C1064 C 0.9884 0.39641 0.26113 0.0
C1065 C 0.06117 0.41245 0.26944 0.0
C1066 C 0.79852 0.42941 0.24407 0.0
C1067 C 0.70418 0.42216 0.24429 0.0
N1068 N 0.71795 0.41066 0.26126 0.0
C1069 C 0.81171 0.41754 0.2616 0.0
C1070 C 0.74433 0.43177 0.23535 0.0
C1071 C 0.77042 0.40817 0.27002 0.0
C1072 C 0.88932 0.45119 0.30686 0.0
N1073 N 0.9131 0.43961 0.29441 0.0
C1074 C 0.90939 0.4278 0.34321 0.0
C1075 C 0.924 0.42805 0.31188 0.0
C1076 C 0.8835 0.43955 0.35641 0.0
C1077 C 0.87435 0.45143 0.33792 0.0
H1078 H 0.8796 0.46005 0.29217 0.0
H1079 H 0.94152 0.41882 0.30139 0.0
C1080 C 0.91521 0.40781 0.1691 0.0
N1081 N 0.87 0.41352 0.18241 0.0
C1082 C 0.91711 0.39351 0.16214 0.0
C1083 C 0.82401 0.39143 0.17999 0.0
C1084 C 0.82379 0.40583 0.18638 0.0
C1085 C 0.87206 0.38496 0.16908 0.0
H1086 H 0.95148 0.41416 0.16621 0.0
H1087 H 0.78797 0.41055 0.19647 0.0
C1088 C 0.97354 0.46867 0.24251 0.0
N1089 N 0.06227 0.48559 0.25527 0.0
C1090 C 0.97742 0.482 0.22916 0.0
C1091 C 0.0145 0.46396 0.26249 0.0
C1092 C 0.0227 0.49039 0.23585 0.0
C1093 C 0.05911 0.47267 0.26862 0.0
C1094 C 0.86947 0.44222 0.14837 0.0
C1095 C 0.90442 0.43735 0.12515 0.0
C1096 C 0.81318 0.44022 0.14561 0.0
C1097 C 0.88235 0.43043 0.0995 0.0
C1098 C 0.79272 0.43324 0.1196 0.0
N1099 N 0.82744 0.42852 0.0973 0.0
C1100 C 0.05653 0.44147 0.1758 0.0
C1101 C 0.0262 0.46425 0.16184 0.0
C1102 C 0.0989 0.44222 0.1544 0.0
N1103 N 0.02079 0.45228 0.1788 0.0
C1104 C 0.06845 0.46549 0.14009 0.0
C1105 C 0.10431 0.45416 0.13555 0.0
H1106 H 0.05036 0.4319 0.18876 0.0
H1107 H 0.99607 0.4725 0.16393 0.0
C1108 C 0.77889 0.47035 0.2441 0.0
N1109 N 0.81251 0.4715 0.21916 0.0
C1110 C 0.75212 0.48213 0.25587 0.0
C1111 C 0.79456 0.49616 0.21591 0.0
C1112 C 0.8205 0.48404 0.20478 0.0
C1113 C 0.76056 0.49533 0.24218 0.0
H1114 H 0.77543 0.46044 0.25611 0.0
H1115 H 0.84916 0.48477 0.18578 0.0
O1116 O 0.95698 0.42957 0.2216 0.0
O1117 O 0.8383 0.43869 0.23544 0.0
O1118 O 0.92994 0.46023 0.2359 0.0
O1119 O 0.89036 0.44865 0.17405 0.0
H1120 H 0.92063 0.40384 0.23415 0.0
H1121 H 0.05309 0.43289 0.24857 0.0
H1122 H 0.97091 0.38611 0.26484 0.0
H1123 H 0.10062 0.41467 0.27959 0.0
H1124 H 0.66209 0.42383 0.23765 0.0
H1125 H 0.85339 0.41552 0.26839 0.0
H1126 H 0.73349 0.44088 0.22166 0.0
H1127 H 0.7801 0.3989 0.28344 0.0
H1128 H 0.91759 0.41849 0.35684 0.0
H1129 H 0.85392 0.46063 0.34706 0.0
H1130 H 0.95459 0.38908 0.15313 0.0
H1131 H 0.78821 0.38531 0.18584 0.0
H1132 H 0.94598 0.48577 0.21363 0.0
H1133 H 0.01179 0.45371 0.27318 0.0
H1134 H 0.0264 0.50071 0.22558 0.0
H1135 H 0.0912 0.46917 0.284 0.0
H1136 H 0.94815 0.43879 0.1271 0.0
H1137 H 0.78572 0.44388 0.16354 0.0
H1138 H 0.90888 0.42653 0.0814 0.0
H1139 H 0.74926 0.43153 0.1172 0.0
H1140 H 0.12609 0.43332 0.15185 0.0
H1141 H 0.07115 0.47482 0.12583 0.0
H1142 H 0.72711 0.481 0.27641 0.0
H1143 H 0.80182 0.5061 0.20444 0.0
Li1144 Li 0.86433 0.32306 0.20191 0.0
Li1145 Li 0.83576 0.31324 0.25074 0.0
Li1146 Li 0.88901 0.29837 0.21373 0.0
Li1147 Li 0.79301 0.30625 0.20137 0.0
C1148 C 0.95078 0.32492 0.24408 0.0
N1149 N 0.03132 0.34367 0.26129 0.0
C1150 C 0.93757 0.33678 0.26161 0.0
C1151 C 0.00497 0.32256 0.23537 0.0
C1152 C 0.97884 0.34616 0.27004 0.0
C1153 C 0.04511 0.33217 0.24431 0.0
C1154 C 0.76597 0.33463 0.23914 0.0
C1155 C 0.6881 0.34187 0.26942 0.0
N1156 N 0.7114 0.35471 0.27354 0.0
C1157 C 0.78916 0.34791 0.24371 0.0
C1158 C 0.71497 0.3316 0.25204 0.0
C1159 C 0.76088 0.35791 0.26113 0.0
C1160 C 0.8341 0.34651 0.16911 0.0
N1161 N 0.87931 0.3408 0.18241 0.0
C1162 C 0.92529 0.36289 0.18 0.0
C1163 C 0.92551 0.34849 0.18639 0.0
C1164 C 0.87724 0.36936 0.16908 0.0
C1165 C 0.8322 0.36081 0.16214 0.0
H1166 H 0.79783 0.34016 0.16621 0.0
H1167 H 0.96133 0.34377 0.19648 0.0
C1168 C 0.86004 0.30313 0.30685 0.0
N1169 N 0.83621 0.31471 0.29441 0.0
C1170 C 0.87501 0.3029 0.33791 0.0
C1171 C 0.83988 0.32652 0.34322 0.0
C1172 C 0.82527 0.32627 0.31188 0.0
C1173 C 0.86582 0.31477 0.35641 0.0
H1174 H 0.86979 0.29428 0.29215 0.0
H1175 H 0.80772 0.3355 0.3014 0.0
C1176 C 0.87984 0.3121 0.14837 0.0
N1177 N 0.92187 0.3258 0.0973 0.0
C1178 C 0.84489 0.31697 0.12515 0.0
C1179 C 0.93614 0.31411 0.14561 0.0
C1180 C 0.86696 0.32389 0.0995 0.0
C1181 C 0.95659 0.32109 0.1196 0.0
C1182 C 0.77577 0.28566 0.24251 0.0
C1183 C 0.77189 0.27232 0.22918 0.0
C1184 C 0.73482 0.29037 0.2625 0.0
C1185 C 0.72661 0.26393 0.23589 0.0
C1186 C 0.69021 0.28166 0.26864 0.0
N1187 N 0.68704 0.26874 0.25531 0.0
C1188 C 0.97044 0.28397 0.24409 0.0
C1189 C 0.9288 0.27028 0.20478 0.0
C1190 C 0.9972 0.2722 0.25586 0.0
N1191 N 0.93681 0.28282 0.21915 0.0
C1192 C 0.95475 0.25816 0.21591 0.0
C1193 C 0.98875 0.25899 0.24218 0.0
H1194 H 0.97391 0.29389 0.25609 0.0
H1195 H 0.90014 0.26955 0.18578 0.0
C1196 C 0.69282 0.31286 0.17577 0.0
N1197 N 0.72852 0.30204 0.1788 0.0
C1198 C 0.65045 0.31211 0.15436 0.0
C1199 C 0.68082 0.28883 0.14011 0.0
C1200 C 0.72307 0.29006 0.16185 0.0
C1201 C 0.645 0.30017 0.13554 0.0
H1202 H 0.69902 0.32243 0.18872 0.0
H1203 H 0.75317 0.28181 0.16397 0.0
O1204 O 0.91101 0.31563 0.23544 0.0
O1205 O 0.79233 0.32475 0.2216 0.0
O1206 O 0.85896 0.30567 0.17405 0.0
O1207 O 0.81937 0.29409 0.23589 0.0
H1208 H 0.89589 0.3388 0.2684 0.0
H1209 H 0.01583 0.31345 0.22167 0.0
H1210 H 0.96914 0.35542 0.28347 0.0
H1211 H 0.08721 0.3305 0.23768 0.0
H1212 H 0.64864 0.33965 0.27955 0.0
H1213 H 0.82867 0.35048 0.23416 0.0
H1214 H 0.6962 0.32144 0.24854 0.0
H1215 H 0.77837 0.36821 0.26485 0.0
H1216 H 0.96108 0.36901 0.18585 0.0
H1217 H 0.79471 0.36524 0.15313 0.0
H1218 H 0.89547 0.2937 0.34705 0.0
H1219 H 0.83165 0.33583 0.35685 0.0
H1220 H 0.80117 0.31553 0.12709 0.0
H1221 H 0.9636 0.31045 0.16354 0.0
H1222 H 0.84043 0.32779 0.0814 0.0
H1223 H 5e-05 0.3228 0.1172 0.0
H1224 H 0.80332 0.26854 0.21366 0.0
H1225 H 0.73753 0.30062 0.27317 0.0
H1226 H 0.7229 0.25361 0.22564 0.0
H1227 H 0.65813 0.28517 0.28403 0.0
H1228 H 0.02222 0.27333 0.2764 0.0
H1229 H 0.94747 0.24822 0.20444 0.0
H1230 H 0.62329 0.32102 0.1518 0.0
H1231 H 0.67809 0.27949 0.12586 0.0
Li1232 Li 0.95627 0.30625 0.54427 0.0
Li1233 Li 0.86027 0.29837 0.53189 0.0
Li1234 Li 0.91353 0.31324 0.49489 0.0
Li1235 Li 0.88495 0.32306 0.54372 0.0
C1236 C 0.97353 0.28566 0.5031 0.0
N1237 N 0.06227 0.26875 0.49028 0.0
C1238 C 0.97742 0.27232 0.5164 0.0
C1239 C 0.01448 0.29038 0.48314 0.0
C1240 C 0.0227 0.26394 0.50968 0.0
C1241 C 0.0591 0.28168 0.47697 0.0
C1242 C 0.86943 0.3121 0.59726 0.0
C1243 C 0.79267 0.32109 0.62601 0.0
N1244 N 0.82739 0.32581 0.64832 0.0
C1245 C 0.90438 0.31698 0.62048 0.0
C1246 C 0.81314 0.31411 0.60001 0.0
C1247 C 0.8823 0.3239 0.64612 0.0
C1248 C 0.05642 0.31287 0.5699 0.0
N1249 N 0.02076 0.30205 0.56684 0.0
C1250 C 0.0685 0.28883 0.6055 0.0
C1251 C 0.02625 0.29006 0.58375 0.0
C1252 C 0.10428 0.30017 0.6101 0.0
C1253 C 0.09878 0.31212 0.59131 0.0
H1254 H 0.05019 0.32245 0.55698 0.0
H1255 H 0.99618 0.2818 0.58161 0.0
C1256 C 0.77885 0.28397 0.50153 0.0
N1257 N 0.81248 0.28282 0.52646 0.0
C1258 C 0.75208 0.2722 0.48975 0.0
C1259 C 0.79455 0.25816 0.52969 0.0
C1260 C 0.82049 0.27028 0.54083 0.0
C1261 C 0.76054 0.25899 0.50343 0.0
H1262 H 0.77537 0.29389 0.48953 0.0
H1263 H 0.84916 0.26955 0.55983 0.0
C1264 C 0.98332 0.33464 0.50651 0.0
N1265 N 0.0379 0.35472 0.47213 0.0
C1266 C 0.96011 0.34791 0.50192 0.0
C1267 C 0.03435 0.33161 0.49363 0.0
C1268 C 0.98838 0.35792 0.48452 0.0
C1269 C 0.06122 0.34189 0.47626 0.0
C1270 C 0.79851 0.32491 0.50154 0.0
C1271 C 0.81171 0.33677 0.484 0.0
C1272 C 0.74432 0.32256 0.51027 0.0
C1273 C 0.77043 0.34615 0.47558 0.0
C1274 C 0.70417 0.33216 0.50133 0.0
N1275 N 0.71796 0.34367 0.48434 0.0
C1276 C 0.88924 0.30313 0.43878 0.0
C1277 C 0.92407 0.32626 0.43374 0.0
C1278 C 0.87426 0.3029 0.40772 0.0
N1279 N 0.91309 0.31471 0.45122 0.0
C1280 C 0.90946 0.32651 0.40241 0.0
C1281 C 0.88349 0.31477 0.38922 0.0
H1282 H 0.87946 0.29428 0.45348 0.0
H1283 H 0.94165 0.33549 0.44423 0.0
C1284 C 0.91519 0.34651 0.57652 0.0
N1285 N 0.86997 0.3408 0.56321 0.0
C1286 C 0.91709 0.36081 0.58348 0.0
C1287 C 0.824 0.36289 0.56562 0.0
C1288 C 0.82377 0.34849 0.55923 0.0
C1289 C 0.87205 0.36936 0.57654 0.0
H1290 H 0.95146 0.34016 0.57941 0.0
H1291 H 0.78796 0.34377 0.54914 0.0
O1292 O 0.92993 0.29409 0.50973 0.0
O1293 O 0.89032 0.30568 0.57158 0.0
O1294 O 0.95696 0.32475 0.52403 0.0
O1295 O 0.83828 0.31563 0.51018 0.0
H1296 H 0.94597 0.26853 0.53191 0.0
H1297 H 0.01177 0.30065 0.47249 0.0
H1298 H 0.02641 0.25361 0.51991 0.0
H1299 H 0.09119 0.2852 0.4616 0.0
H1300 H 0.74922 0.3228 0.62841 0.0
H1301 H 0.9481 0.31554 0.61854 0.0
H1302 H 0.78568 0.31045 0.58208 0.0
H1303 H 0.90883 0.32779 0.66423 0.0
H1304 H 0.07126 0.27948 0.61972 0.0
H1305 H 0.12591 0.32103 0.5939 0.0
H1306 H 0.72706 0.27333 0.46922 0.0
H1307 H 0.80183 0.24822 0.54115 0.0
H1308 H 0.92057 0.35047 0.51145 0.0
H1309 H 0.05314 0.32145 0.49714 0.0
H1310 H 0.97087 0.36821 0.48079 0.0
H1311 H 0.1007 0.33968 0.46615 0.0
H1312 H 0.85338 0.33879 0.4772 0.0
H1313 H 0.73347 0.31345 0.52398 0.0
H1314 H 0.78012 0.35541 0.46214 0.0
H1315 H 0.66208 0.3305 0.50797 0.0
H1316 H 0.85377 0.29371 0.39858 0.0
H1317 H 0.91772 0.33582 0.38877 0.0
H1318 H 0.95458 0.36524 0.59249 0.0
H1319 H 0.78821 0.36901 0.55977 0.0
Li1320 Li 0.88904 0.45596 0.5319 0.0
Li1321 Li 0.79304 0.44808 0.54427 0.0
Li1322 Li 0.86436 0.43127 0.54372 0.0
Li1323 Li 0.83578 0.44109 0.49489 0.0
C1324 C 0.87988 0.44222 0.59726 0.0
N1325 N 0.92191 0.42852 0.64832 0.0
C1326 C 0.84493 0.43735 0.62048 0.0
C1327 C 0.93617 0.44021 0.60002 0.0
C1328 C 0.867 0.43043 0.64612 0.0
C1329 C 0.95663 0.43323 0.62601 0.0
C1330 C 0.77579 0.46866 0.50309 0.0
C1331 C 0.69022 0.47264 0.47695 0.0
N1332 N 0.68704 0.48557 0.49024 0.0
C1333 C 0.77189 0.48201 0.51638 0.0
C1334 C 0.73484 0.46394 0.48313 0.0
C1335 C 0.72661 0.49039 0.50965 0.0
C1336 C 0.97048 0.47035 0.50154 0.0
N1337 N 0.93683 0.4715 0.52647 0.0
C1338 C 0.95475 0.49617 0.52969 0.0
C1339 C 0.92881 0.48405 0.54083 0.0
C1340 C 0.98877 0.49533 0.50343 0.0
C1341 C 0.99724 0.48213 0.48976 0.0
H1342 H 0.97396 0.46043 0.48955 0.0
H1343 H 0.90014 0.48478 0.55982 0.0
C1344 C 0.69292 0.44145 0.56992 0.0
N1345 N 0.72855 0.45228 0.56685 0.0
C1346 C 0.65055 0.4422 0.59133 0.0
C1347 C 0.68078 0.4655 0.60549 0.0
C1348 C 0.72303 0.46427 0.58374 0.0
C1349 C 0.64503 0.45415 0.61011 0.0
H1350 H 0.69917 0.43187 0.55702 0.0
H1351 H 0.75307 0.47254 0.58158 0.0
C1352 C 0.95079 0.42941 0.50154 0.0
N1353 N 0.03131 0.41065 0.48431 0.0
C1354 C 0.93757 0.41755 0.48399 0.0
C1355 C 0.00498 0.43176 0.51025 0.0
C1356 C 0.97883 0.40817 0.47556 0.0
C1357 C 0.04512 0.42215 0.5013 0.0
C1358 C 0.76597 0.41969 0.50651 0.0
C1359 C 0.78918 0.40642 0.50191 0.0
C1360 C 0.71494 0.42271 0.49365 0.0
C1361 C 0.7609 0.39641 0.48452 0.0
C1362 C 0.68806 0.41244 0.47628 0.0
N1363 N 0.71137 0.39961 0.47214 0.0
C1364 C 0.83412 0.40782 0.57651 0.0
C1365 C 0.92553 0.40583 0.55922 0.0
C1366 C 0.83221 0.39352 0.58347 0.0
N1367 N 0.87933 0.41352 0.56321 0.0
C1368 C 0.9253 0.39143 0.56562 0.0
C1369 C 0.87725 0.38496 0.57653 0.0
H1370 H 0.79785 0.41417 0.57941 0.0
H1371 H 0.96135 0.41055 0.54913 0.0
C1372 C 0.86012 0.45119 0.43879 0.0
N1373 N 0.83622 0.43962 0.45122 0.0
C1374 C 0.8751 0.45142 0.40773 0.0
C1375 C 0.83981 0.42782 0.4024 0.0
C1376 C 0.82521 0.42807 0.43374 0.0
C1377 C 0.86583 0.43955 0.38922 0.0
H1378 H 0.86993 0.46004 0.4535 0.0
H1379 H 0.80759 0.41884 0.44422 0.0
O1380 O 0.85899 0.44865 0.57158 0.0
O1381 O 0.81938 0.46024 0.50974 0.0
O1382 O 0.91103 0.4387 0.51019 0.0
O1383 O 0.79235 0.42958 0.52403 0.0
H1384 H 0.8012 0.43879 0.61854 0.0
H1385 H 0.96363 0.44387 0.58208 0.0
H1386 H 0.84047 0.42653 0.66423 0.0
H1387 H 9e-05 0.43152 0.62841 0.0
H1388 H 0.65814 0.46911 0.46158 0.0
H1389 H 0.80332 0.4858 0.53189 0.0
H1390 H 0.73755 0.45367 0.47249 0.0
H1391 H 0.72289 0.50072 0.51986 0.0
H1392 H 0.94747 0.50611 0.54115 0.0
H1393 H 0.02227 0.48099 0.46923 0.0
H1394 H 0.62345 0.43328 0.59394 0.0
H1395 H 0.678 0.47485 0.61969 0.0
H1396 H 0.89589 0.41553 0.4772 0.0
H1397 H 0.01585 0.44086 0.52396 0.0
H1398 H 0.96913 0.39891 0.46211 0.0
H1399 H 0.08721 0.42381 0.50794 0.0
H1400 H 0.82872 0.40385 0.51144 0.0
H1401 H 0.69615 0.43288 0.49716 0.0
H1402 H 0.7784 0.38612 0.48078 0.0
H1403 H 0.64857 0.41465 0.46618 0.0
H1404 H 0.79472 0.38908 0.59249 0.0
H1405 H 0.96109 0.38531 0.55976 0.0
H1406 H 0.89562 0.46061 0.3986 0.0
H1407 H 0.83153 0.41851 0.38876 0.0
Li1408 Li 0.61108 0.07288 0.78904 0.0
Li1409 Li 0.53719 0.05582 0.79073 0.0
Li1410 Li 0.63456 0.0484 0.77679 0.0
Li1411 Li 0.58127 0.06264 0.74199 0.0
C1412 C 0.6252 0.06193 0.84296 0.0
N1413 N 0.66562 0.07513 0.89509 0.0
C1414 C 0.58953 0.06654 0.86609 0.0
C1415 C 0.68138 0.06395 0.84633 0.0
C1416 C 0.6108 0.07321 0.89228 0.0
C1417 C 0.70102 0.07067 0.87287 0.0
C1418 C 0.51242 0.08349 0.75115 0.0
C1419 C 0.4372 0.08936 0.71747 0.0
N1420 N 0.46118 0.10192 0.7111 0.0
C1421 C 0.5362 0.09648 0.74435 0.0
C1422 C 0.46239 0.07992 0.73771 0.0
C1423 C 0.50971 0.10564 0.72403 0.0
C1424 C 0.6716 0.09826 0.7994 0.0
N1425 N 0.62662 0.09067 0.80705 0.0
C1426 C 0.58247 0.11109 0.82738 0.0
C1427 C 0.58333 0.09667 0.82173 0.0
C1428 C 0.62678 0.11939 0.81801 0.0
C1429 C 0.67274 0.11274 0.805 0.0
H1430 H 0.70465 0.09331 0.7869 0.0
H1431 H 0.54749 0.09042 0.82671 0.0
C1432 C 0.46982 0.03979 0.83144 0.0
N1433 N 0.47446 0.0518 0.81458 0.0
C1434 C 0.42922 0.03862 0.85416 0.0
C1435 C 0.39849 0.06198 0.84076 0.0
C1436 C 0.43928 0.06268 0.81838 0.0
C1437 C 0.39414 0.05002 0.85964 0.0
H1438 H 0.49937 0.03145 0.82841 0.0
H1439 H 0.44472 0.07221 0.80515 0.0
C1440 C 0.69449 0.06256 0.73233 0.0
N1441 N 0.76562 0.05639 0.68448 0.0
C1442 C 0.68484 0.051 0.71306 0.0
C1443 C 0.74027 0.07099 0.72715 0.0
C1444 C 0.72126 0.04805 0.68904 0.0
C1445 C 0.7758 0.06769 0.70289 0.0
C1446 C 0.52988 0.03551 0.73877 0.0
C1447 C 0.55146 0.02477 0.72034 0.0
C1448 C 0.47362 0.03793 0.73882 0.0
C1449 C 0.51636 0.01677 0.70192 0.0
C1450 C 0.43988 0.02969 0.72009 0.0
N1451 N 0.46177 0.01938 0.70216 0.0
C1452 C 0.65462 0.01987 0.77622 0.0
C1453 C 0.73538 0.033 0.76772 0.0
C1454 C 0.68018 0.00759 0.76617 0.0
N1455 N 0.68168 0.03233 0.77566 0.0
C1456 C 0.76255 0.02095 0.75729 0.0
C1457 C 0.73432 0.0081 0.75549 0.0
H1458 H 0.61184 0.01964 0.7824 0.0
H1459 H 0.75614 0.04303 0.76744 0.0
C1460 C 0.60661 0.0783 0.69027 0.0
N1461 N 0.57702 0.06681 0.6987 0.0
C1462 C 0.62428 0.07991 0.65977 0.0
C1463 C 0.57732 0.05837 0.6467 0.0
C1464 C 0.55981 0.0573 0.67734 0.0
C1465 C 0.61174 0.06948 0.63814 0.0
H1466 H 0.62117 0.0855 0.7078 0.0
H1467 H 0.53612 0.04832 0.68424 0.0
O1468 O 0.60516 0.05571 0.81681 0.0
O1469 O 0.53785 0.07432 0.77088 0.0
O1470 O 0.6583 0.066 0.75532 0.0
O1471 O 0.56352 0.04339 0.75716 0.0
H1472 H 0.5459 0.06508 0.8637 0.0
H1473 H 0.70939 0.06048 0.82849 0.0
H1474 H 0.58371 0.07689 0.91033 0.0
H1475 H 0.74438 0.07238 0.87577 0.0
H1476 H 0.39854 0.08671 0.70685 0.0
H1477 H 0.57507 0.09942 0.75428 0.0
H1478 H 0.44314 0.06998 0.74283 0.0
H1479 H 0.52782 0.11569 0.71847 0.0
H1480 H 0.54638 0.11582 0.83747 0.0
H1481 H 0.70739 0.11881 0.79702 0.0
H1482 H 0.42721 0.02925 0.86837 0.0
H1483 H 0.37169 0.07092 0.84395 0.0
H1484 H 0.64948 0.04442 0.71655 0.0
H1485 H 0.7481 0.08006 0.74163 0.0
H1486 H 0.71418 0.03916 0.67397 0.0
H1487 H 0.81137 0.07414 0.69862 0.0
H1488 H 0.59487 0.02271 0.71996 0.0
H1489 H 0.45613 0.04603 0.75326 0.0
H1490 H 0.53253 0.00849 0.68741 0.0
H1491 H 0.39627 0.03148 0.71985 0.0
H1492 H 0.65672 0.99796 0.7652 0.0
H1493 H 0.80473 0.02176 0.74999 0.0
H1494 H 0.65079 0.0886 0.65373 0.0
H1495 H 0.56634 0.05027 0.63021 0.0
Li1496 Li 0.71212 0.1985 0.79073 0.0
Li1497 Li 0.63824 0.18144 0.78903 0.0
Li1498 Li 0.66804 0.19168 0.74198 0.0
Li1499 Li 0.61475 0.20592 0.77679 0.0
C1500 C 0.73689 0.17084 0.75114 0.0
N1501 N 0.78812 0.15241 0.71109 0.0
C1502 C 0.7131 0.15785 0.74434 0.0
C1503 C 0.78691 0.17441 0.73769 0.0
C1504 C 0.73959 0.14868 0.72402 0.0
C1505 C 0.8121 0.16496 0.71746 0.0
C1506 C 0.62412 0.1924 0.84295 0.0
C1507 C 0.5483 0.18365 0.87287 0.0
N1508 N 0.58371 0.1792 0.89508 0.0
C1509 C 0.65979 0.18779 0.86608 0.0
C1510 C 0.56794 0.19037 0.84633 0.0
C1511 C 0.63853 0.18112 0.89227 0.0
C1512 C 0.77948 0.21454 0.83145 0.0
N1513 N 0.77486 0.20253 0.81458 0.0
C1514 C 0.85084 0.19235 0.84074 0.0
C1515 C 0.81004 0.19165 0.81836 0.0
C1516 C 0.85518 0.2043 0.85964 0.0
C1517 C 0.82008 0.21571 0.85417 0.0
H1518 H 0.74993 0.22287 0.82842 0.0
H1519 H 0.80461 0.18212 0.80513 0.0
C1520 C 0.57773 0.15606 0.7994 0.0
N1521 N 0.6227 0.16365 0.80705 0.0
C1522 C 0.57658 0.14158 0.805 0.0
C1523 C 0.66686 0.14324 0.82738 0.0
C1524 C 0.666 0.15766 0.82172 0.0
C1525 C 0.62255 0.13494 0.81801 0.0
H1526 H 0.54467 0.16101 0.78689 0.0
H1527 H 0.70183 0.16391 0.8267 0.0
C1528 C 0.71943 0.21881 0.73878 0.0
N1529 N 0.78754 0.23495 0.70216 0.0
C1530 C 0.69785 0.22956 0.72034 0.0
C1531 C 0.77569 0.2164 0.73882 0.0
C1532 C 0.73295 0.23756 0.70193 0.0
C1533 C 0.80943 0.22463 0.72009 0.0
C1534 C 0.55482 0.19177 0.73232 0.0
C1535 C 0.56447 0.20332 0.71306 0.0
C1536 C 0.50904 0.18333 0.72715 0.0
C1537 C 0.52804 0.20627 0.68904 0.0
C1538 C 0.47351 0.18663 0.70289 0.0
N1539 N 0.48368 0.19793 0.68448 0.0
C1540 C 0.64269 0.17602 0.69026 0.0
C1541 C 0.6895 0.19703 0.67734 0.0
C1542 C 0.62503 0.17441 0.65976 0.0
N1543 N 0.67229 0.18751 0.6987 0.0
C1544 C 0.67199 0.19595 0.6467 0.0
C1545 C 0.63757 0.18485 0.63813 0.0
H1546 H 0.62814 0.16883 0.70779 0.0
H1547 H 0.71319 0.206 0.68424 0.0
C1548 C 0.59469 0.23445 0.77622 0.0
N1549 N 0.56763 0.222 0.77567 0.0
C1550 C 0.56913 0.24673 0.76617 0.0
C1551 C 0.48676 0.23337 0.7573 0.0
C1552 C 0.51393 0.22132 0.76772 0.0
C1553 C 0.51499 0.24623 0.75549 0.0
H1554 H 0.63747 0.23468 0.7824 0.0
H1555 H 0.49317 0.2113 0.76744 0.0
O1556 O 0.71146 0.18001 0.77088 0.0
O1557 O 0.64415 0.19862 0.81681 0.0
O1558 O 0.68579 0.21093 0.75716 0.0
O1559 O 0.59102 0.18832 0.75531 0.0
H1560 H 0.67424 0.15491 0.75427 0.0
H1561 H 0.80616 0.18435 0.74281 0.0
H1562 H 0.72148 0.13863 0.71846 0.0
H1563 H 0.85076 0.16761 0.70684 0.0
H1564 H 0.50494 0.18195 0.87576 0.0
H1565 H 0.70342 0.18925 0.86369 0.0
H1566 H 0.53992 0.19384 0.82849 0.0
H1567 H 0.66562 0.17744 0.91033 0.0
H1568 H 0.87764 0.18341 0.84393 0.0
H1569 H 0.82209 0.22507 0.86838 0.0
H1570 H 0.54193 0.13551 0.79702 0.0
H1571 H 0.70295 0.13851 0.83747 0.0
H1572 H 0.65443 0.23161 0.71996 0.0
H1573 H 0.79318 0.2083 0.75326 0.0
H1574 H 0.71678 0.24584 0.68742 0.0
H1575 H 0.85304 0.22285 0.71985 0.0
H1576 H 0.59982 0.20991 0.71655 0.0
H1577 H 0.50121 0.17427 0.74163 0.0
H1578 H 0.53512 0.21517 0.67397 0.0
H1579 H 0.43794 0.18018 0.69862 0.0
H1580 H 0.59852 0.16573 0.65372 0.0
H1581 H 0.68297 0.20406 0.63021 0.0
H1582 H 0.5926 0.25636 0.7652 0.0
H1583 H 0.44458 0.23257 0.75 0.0
Li1584 Li 0.63457 0.20592 0.46877 0.0
Li1585 Li 0.58128 0.19168 0.50357 0.0
Li1586 Li 0.61109 0.18144 0.45652 0.0
Li1587 Li 0.5372 0.1985 0.45482 0.0
C1588 C 0.69449 0.19177 0.51324 0.0
N1589 N 0.76563 0.19794 0.56108 0.0
C1590 C 0.68484 0.20332 0.5325 0.0
C1591 C 0.74028 0.18333 0.51841 0.0
C1592 C 0.72126 0.20627 0.55653 0.0
C1593 C 0.7758 0.18664 0.54267 0.0
C1594 C 0.52988 0.21881 0.50678 0.0
C1595 C 0.43988 0.22462 0.52547 0.0
N1596 N 0.46176 0.23494 0.54339 0.0
C1597 C 0.55145 0.22955 0.52522 0.0
C1598 C 0.47362 0.21639 0.50673 0.0
C1599 C 0.51634 0.23756 0.54363 0.0
C1600 C 0.65463 0.23445 0.46934 0.0
N1601 N 0.68169 0.222 0.4699 0.0
C1602 C 0.76256 0.23338 0.48827 0.0
C1603 C 0.73539 0.22132 0.47785 0.0
C1604 C 0.73433 0.24623 0.49009 0.0
C1605 C 0.68018 0.24673 0.47941 0.0
H1606 H 0.61185 0.23468 0.46316 0.0
H1607 H 0.75615 0.2113 0.47812 0.0
C1608 C 0.60662 0.17602 0.55529 0.0
N1609 N 0.57702 0.18751 0.54685 0.0
C1610 C 0.62428 0.17441 0.58579 0.0
C1611 C 0.57732 0.19595 0.59886 0.0
C1612 C 0.55981 0.19702 0.56822 0.0
C1613 C 0.61174 0.18485 0.60742 0.0
H1614 H 0.62117 0.16883 0.53776 0.0
H1615 H 0.53612 0.206 0.56131 0.0
C1616 C 0.62522 0.1924 0.4026 0.0
N1617 N 0.66564 0.1792 0.35048 0.0
C1618 C 0.58956 0.18779 0.37947 0.0
C1619 C 0.6814 0.19038 0.39923 0.0
C1620 C 0.61082 0.18112 0.35328 0.0
C1621 C 0.70104 0.18365 0.3727 0.0
C1622 C 0.51242 0.17084 0.4944 0.0
C1623 C 0.53621 0.15784 0.5012 0.0
C1624 C 0.46238 0.1744 0.50783 0.0
C1625 C 0.50971 0.14868 0.52152 0.0
C1626 C 0.43717 0.16495 0.52805 0.0
N1627 N 0.46117 0.1524 0.53443 0.0
C1628 C 0.6716 0.15606 0.44616 0.0
C1629 C 0.58333 0.15766 0.42383 0.0
C1630 C 0.67274 0.14158 0.44056 0.0
N1631 N 0.62662 0.16365 0.43851 0.0
C1632 C 0.58247 0.14323 0.41817 0.0
C1633 C 0.62677 0.13494 0.42754 0.0
H1634 H 0.70465 0.16101 0.45867 0.0
H1635 H 0.54749 0.1639 0.41885 0.0
C1636 C 0.4698 0.21454 0.41413 0.0
N1637 N 0.47447 0.20252 0.43097 0.0
C1638 C 0.4292 0.21571 0.39142 0.0
C1639 C 0.39853 0.19233 0.40477 0.0
C1640 C 0.43932 0.19164 0.42715 0.0
C1641 C 0.39415 0.2043 0.38591 0.0
H1642 H 0.49932 0.22288 0.41719 0.0
H1643 H 0.4448 0.1821 0.44035 0.0
O1644 O 0.6583 0.18832 0.49024 0.0
O1645 O 0.56353 0.21093 0.48839 0.0
O1646 O 0.60518 0.19862 0.42875 0.0
O1647 O 0.53786 0.18001 0.47467 0.0
H1648 H 0.64948 0.20991 0.52901 0.0
H1649 H 0.74811 0.17427 0.50393 0.0
H1650 H 0.71418 0.21517 0.57159 0.0
H1651 H 0.81138 0.18019 0.54694 0.0
H1652 H 0.39627 0.22283 0.5257 0.0
H1653 H 0.59487 0.23161 0.5256 0.0
H1654 H 0.45614 0.20829 0.49229 0.0
H1655 H 0.53251 0.24584 0.55814 0.0
H1656 H 0.80474 0.23257 0.49558 0.0
H1657 H 0.65672 0.25636 0.48038 0.0
H1658 H 0.65079 0.16573 0.59183 0.0
H1659 H 0.56634 0.20405 0.61535 0.0
H1660 H 0.54592 0.18924 0.38185 0.0
H1661 H 0.70941 0.19384 0.41708 0.0
H1662 H 0.58374 0.17743 0.33522 0.0
H1663 H 0.74441 0.18195 0.3698 0.0
H1664 H 0.57509 0.15491 0.49129 0.0
H1665 H 0.44312 0.18434 0.5027 0.0
H1666 H 0.52782 0.13863 0.52708 0.0
H1667 H 0.3985 0.1676 0.53866 0.0
H1668 H 0.70739 0.13551 0.44854 0.0
H1669 H 0.54637 0.13851 0.40809 0.0
H1670 H 0.42716 0.22508 0.37723 0.0
H1671 H 0.37177 0.18339 0.40156 0.0
Li1672 Li 0.61475 0.0484 0.46877 0.0
Li1673 Li 0.66803 0.06265 0.50357 0.0
Li1674 Li 0.63822 0.07288 0.45653 0.0
Li1675 Li 0.71211 0.05582 0.45483 0.0
C1676 C 0.55481 0.06256 0.51324 0.0
N1677 N 0.48368 0.05639 0.56108 0.0
C1678 C 0.56447 0.051 0.5325 0.0
C1679 C 0.50903 0.07099 0.51841 0.0
C1680 C 0.52805 0.04805 0.55653 0.0
C1681 C 0.4735 0.06769 0.54267 0.0
C1682 C 0.71943 0.03552 0.50678 0.0
C1683 C 0.80944 0.0297 0.52547 0.0
N1684 N 0.78756 0.01939 0.54339 0.0
C1685 C 0.69787 0.02477 0.52522 0.0
C1686 C 0.77569 0.03794 0.50673 0.0
C1687 C 0.73298 0.01677 0.54364 0.0
C1688 C 0.59469 0.01987 0.46935 0.0
N1689 N 0.56763 0.03233 0.4699 0.0
C1690 C 0.48675 0.02095 0.48828 0.0
C1691 C 0.51392 0.033 0.47785 0.0
C1692 C 0.51499 0.0081 0.49009 0.0
C1693 C 0.56914 0.00759 0.47941 0.0
H1694 H 0.63747 0.01964 0.46317 0.0
H1695 H 0.49316 0.04302 0.47812 0.0
C1696 C 0.64269 0.07831 0.5553 0.0
N1697 N 0.67229 0.06681 0.54686 0.0
C1698 C 0.62502 0.07991 0.5858 0.0
C1699 C 0.67199 0.05838 0.59886 0.0
C1700 C 0.68951 0.0573 0.56822 0.0
C1701 C 0.63757 0.06948 0.60743 0.0
H1702 H 0.62813 0.0855 0.53777 0.0
H1703 H 0.7132 0.04833 0.56132 0.0
C1704 C 0.62409 0.06193 0.40261 0.0
N1705 N 0.58367 0.07512 0.35048 0.0
C1706 C 0.65976 0.06654 0.37947 0.0
C1707 C 0.56792 0.06395 0.39924 0.0
C1708 C 0.63849 0.07321 0.35328 0.0
C1709 C 0.54827 0.07067 0.3727 0.0
C1710 C 0.73689 0.08349 0.4944 0.0
C1711 C 0.71309 0.09648 0.50121 0.0
C1712 C 0.78693 0.07993 0.50783 0.0
C1713 C 0.73959 0.10565 0.52152 0.0
C1714 C 0.81213 0.08938 0.52806 0.0
N1715 N 0.78814 0.10193 0.53443 0.0
C1716 C 0.57771 0.09826 0.44616 0.0
C1717 C 0.66598 0.09666 0.42383 0.0
C1718 C 0.57657 0.11274 0.44056 0.0
N1719 N 0.62269 0.09067 0.43851 0.0
C1720 C 0.66685 0.11109 0.41818 0.0
C1721 C 0.62254 0.11938 0.42755 0.0
H1722 H 0.54466 0.09331 0.45867 0.0
H1723 H 0.70182 0.09042 0.41886 0.0
C1724 C 0.77952 0.03978 0.41414 0.0
N1725 N 0.77484 0.0518 0.43098 0.0
C1726 C 0.82012 0.03861 0.39142 0.0
C1727 C 0.85077 0.06199 0.40477 0.0
C1728 C 0.80998 0.06269 0.42715 0.0
C1729 C 0.85516 0.05003 0.38591 0.0
H1730 H 0.75 0.03144 0.4172 0.0
H1731 H 0.8045 0.07223 0.44035 0.0
O1732 O 0.59101 0.066 0.49025 0.0
O1733 O 0.68579 0.04339 0.4884 0.0
O1734 O 0.64413 0.05571 0.42875 0.0
O1735 O 0.71145 0.07432 0.47468 0.0
H1736 H 0.59983 0.04442 0.52902 0.0
H1737 H 0.50119 0.08005 0.50393 0.0
H1738 H 0.53513 0.03916 0.5716 0.0
H1739 H 0.43793 0.07413 0.54694 0.0
H1740 H 0.85305 0.0315 0.5257 0.0
H1741 H 0.65445 0.02272 0.5256 0.0
H1742 H 0.79317 0.04604 0.4923 0.0
H1743 H 0.71681 0.00849 0.55815 0.0
H1744 H 0.44457 0.02176 0.49558 0.0
H1745 H 0.5926 0.99796 0.48039 0.0
H1746 H 0.59851 0.0886 0.59184 0.0
H1747 H 0.68298 0.05027 0.61535 0.0
H1748 H 0.70339 0.06508 0.38186 0.0
H1749 H 0.5399 0.06048 0.41708 0.0
H1750 H 0.66557 0.07689 0.33523 0.0
H1751 H 0.50491 0.07237 0.36981 0.0
H1752 H 0.67421 0.09941 0.4913 0.0
H1753 H 0.80619 0.06999 0.5027 0.0
H1754 H 0.72148 0.1157 0.52709 0.0
H1755 H 0.85081 0.08673 0.53866 0.0
H1756 H 0.54193 0.11882 0.44854 0.0
H1757 H 0.70294 0.11581 0.40809 0.0
H1758 H 0.82216 0.02924 0.37724 0.0
H1759 H 0.87753 0.07094 0.40156 0.0
Li1760 Li 0.41355 0.94109 0.25074 0.0
Li1761 Li 0.38497 0.93127 0.20191 0.0
Li1762 Li 0.45629 0.94808 0.20137 0.0
Li1763 Li 0.36029 0.95596 0.21373 0.0
C1764 C 0.48333 0.91969 0.23914 0.0
N1765 N 0.53789 0.89962 0.27355 0.0
C1766 C 0.46014 0.90642 0.24372 0.0
C1767 C 0.53433 0.92272 0.25204 0.0
C1768 C 0.4884 0.89642 0.26113 0.0
C1769 C 0.56119 0.91245 0.26942 0.0
C1770 C 0.29852 0.92941 0.24407 0.0
C1771 C 0.20417 0.92217 0.24428 0.0
N1772 N 0.21794 0.91066 0.26126 0.0
C1773 C 0.3117 0.91755 0.26161 0.0
C1774 C 0.24433 0.93177 0.23535 0.0
C1775 C 0.27041 0.90818 0.27002 0.0
C1776 C 0.38933 0.9512 0.30686 0.0
N1777 N 0.41311 0.93962 0.29442 0.0
C1778 C 0.4094 0.92781 0.34322 0.0
C1779 C 0.42401 0.92806 0.31188 0.0
C1780 C 0.38351 0.93956 0.35641 0.0
C1781 C 0.37436 0.95144 0.33792 0.0
H1782 H 0.37961 0.96006 0.29217 0.0
H1783 H 0.44153 0.91882 0.30139 0.0
C1784 C 0.4152 0.90782 0.16911 0.0
N1785 N 0.36999 0.91352 0.18241 0.0
C1786 C 0.41711 0.89351 0.16215 0.0
C1787 C 0.32401 0.89143 0.18 0.0
C1788 C 0.32379 0.90583 0.18639 0.0
C1789 C 0.37206 0.88496 0.16909 0.0
H1790 H 0.45148 0.91416 0.16622 0.0
H1791 H 0.28797 0.91055 0.19648 0.0
C1792 C 0.47353 0.96867 0.24251 0.0
N1793 N 0.56226 0.98559 0.25528 0.0
C1794 C 0.47741 0.98201 0.22917 0.0
C1795 C 0.5145 0.96396 0.26248 0.0
C1796 C 0.52268 0.9904 0.23587 0.0
C1797 C 0.55911 0.97267 0.26862 0.0
C1798 C 0.36946 0.94222 0.14837 0.0
C1799 C 0.40441 0.93735 0.12516 0.0
C1800 C 0.31317 0.94022 0.14561 0.0
C1801 C 0.38234 0.93043 0.09951 0.0
C1802 C 0.29271 0.93323 0.11961 0.0
N1803 N 0.32743 0.92852 0.0973 0.0
C1804 C 0.55649 0.94147 0.17577 0.0
C1805 C 0.52622 0.96426 0.16185 0.0
C1806 C 0.59886 0.94222 0.15436 0.0
N1807 N 0.52077 0.95229 0.17879 0.0
C1808 C 0.56846 0.96549 0.1401 0.0
C1809 C 0.60429 0.95416 0.13553 0.0
H1810 H 0.55031 0.9319 0.18872 0.0
H1811 H 0.49611 0.97252 0.16396 0.0
C1812 C 0.27888 0.97036 0.2441 0.0
N1813 N 0.3125 0.9715 0.21916 0.0
C1814 C 0.25211 0.98213 0.25587 0.0
C1815 C 0.29455 0.99616 0.21591 0.0
C1816 C 0.32049 0.98404 0.20478 0.0
C1817 C 0.26056 0.99533 0.24218 0.0
H1818 H 0.27542 0.96044 0.25611 0.0
H1819 H 0.34915 0.98477 0.18577 0.0
O1820 O 0.45698 0.92958 0.22161 0.0
O1821 O 0.3383 0.9387 0.23544 0.0
O1822 O 0.42994 0.96024 0.2359 0.0
O1823 O 0.39035 0.94865 0.17405 0.0
H1824 H 0.42062 0.90385 0.23417 0.0
H1825 H 0.55311 0.93289 0.24854 0.0
H1826 H 0.47091 0.88612 0.26485 0.0
H1827 H 0.60066 0.91467 0.27956 0.0
H1828 H 0.16209 0.92384 0.23764 0.0
H1829 H 0.35337 0.91553 0.2684 0.0
H1830 H 0.23349 0.94088 0.22165 0.0
H1831 H 0.28009 0.89891 0.28346 0.0
H1832 H 0.4176 0.9185 0.35685 0.0
H1833 H 0.35393 0.96064 0.34706 0.0
H1834 H 0.45459 0.88908 0.15314 0.0
H1835 H 0.28821 0.88531 0.18585 0.0
H1836 H 0.44596 0.98579 0.21365 0.0
H1837 H 0.5118 0.95371 0.27316 0.0
H1838 H 0.52638 1.00072 0.22562 0.0
H1839 H 0.59121 0.96916 0.284 0.0
H1840 H 0.44814 0.93879 0.1271 0.0
H1841 H 0.2857 0.94388 0.16354 0.0
H1842 H 0.40887 0.92653 0.0814 0.0
H1843 H 0.24925 0.93152 0.1172 0.0
H1844 H 0.62603 0.93331 0.15181 0.0
H1845 H 0.57118 0.97483 0.12585 0.0
H1846 H 0.2271 0.981 0.27641 0.0
H1847 H 0.30182 0.0061 0.20444 0.0
Li1848 Li 0.33576 0.81324 0.25074 0.0
Li1849 Li 0.36434 0.82306 0.20191 0.0
Li1850 Li 0.29302 0.80625 0.20137 0.0
Li1851 Li 0.38902 0.79837 0.21373 0.0
C1852 C 0.26598 0.83463 0.23914 0.0
N1853 N 0.21142 0.85471 0.27356 0.0
C1854 C 0.28917 0.84791 0.24372 0.0
C1855 C 0.21498 0.8316 0.25204 0.0
C1856 C 0.26091 0.85791 0.26114 0.0
C1857 C 0.18812 0.84187 0.26943 0.0
C1858 C 0.45079 0.82491 0.24408 0.0
C1859 C 0.54514 0.83216 0.24429 0.0
N1860 N 0.53136 0.84367 0.26127 0.0
C1861 C 0.4376 0.83678 0.26162 0.0
C1862 C 0.50498 0.82255 0.23535 0.0
C1863 C 0.4789 0.84615 0.27003 0.0
C1864 C 0.35999 0.80312 0.30686 0.0
N1865 N 0.33621 0.81471 0.29442 0.0
C1866 C 0.33991 0.82651 0.34322 0.0
C1867 C 0.3253 0.82627 0.31189 0.0
C1868 C 0.36581 0.81477 0.35641 0.0
C1869 C 0.37496 0.80289 0.33792 0.0
H1870 H 0.36971 0.79427 0.29216 0.0
H1871 H 0.30778 0.8355 0.3014 0.0
C1872 C 0.3341 0.84651 0.16912 0.0
N1873 N 0.37932 0.8408 0.18242 0.0
C1874 C 0.3322 0.86081 0.16215 0.0
C1875 C 0.4253 0.86289 0.18001 0.0
C1876 C 0.42552 0.84849 0.1864 0.0
C1877 C 0.37724 0.86936 0.16909 0.0
H1878 H 0.29783 0.84016 0.16622 0.0
H1879 H 0.46134 0.84377 0.19649 0.0
C1880 C 0.27578 0.78565 0.24251 0.0
N1881 N 0.18705 0.76873 0.25528 0.0
C1882 C 0.2719 0.77232 0.22917 0.0
C1883 C 0.23482 0.79036 0.26248 0.0
C1884 C 0.22662 0.76393 0.23587 0.0
C1885 C 0.19021 0.78165 0.26862 0.0
C1886 C 0.37985 0.8121 0.14837 0.0
C1887 C 0.34489 0.81697 0.12516 0.0
C1888 C 0.43614 0.81411 0.14561 0.0
C1889 C 0.36697 0.8239 0.09951 0.0
C1890 C 0.4566 0.82109 0.11961 0.0
N1891 N 0.42188 0.82581 0.09731 0.0
C1892 C 0.19282 0.81286 0.17578 0.0
C1893 C 0.22308 0.79006 0.16185 0.0
C1894 C 0.15045 0.81211 0.15437 0.0
N1895 N 0.22853 0.80204 0.1788 0.0
C1896 C 0.18083 0.78883 0.1401 0.0
C1897 C 0.14501 0.80017 0.13554 0.0
H1898 H 0.19901 0.82243 0.18872 0.0
H1899 H 0.25318 0.78181 0.16396 0.0
C1900 C 0.47043 0.78397 0.2441 0.0
N1901 N 0.43681 0.78282 0.21916 0.0
C1902 C 0.4972 0.77219 0.25587 0.0
C1903 C 0.45476 0.75816 0.21591 0.0
C1904 C 0.42881 0.77028 0.20478 0.0
C1905 C 0.48875 0.75899 0.24218 0.0
H1906 H 0.47389 0.79389 0.2561 0.0
H1907 H 0.40016 0.76955 0.18577 0.0
O1908 O 0.29233 0.82475 0.22161 0.0
O1909 O 0.41101 0.81563 0.23544 0.0
O1910 O 0.31937 0.79409 0.2359 0.0
O1911 O 0.35896 0.80568 0.17405 0.0
H1912 H 0.32869 0.85048 0.23417 0.0
H1913 H 0.1962 0.82144 0.24855 0.0
H1914 H 0.2784 0.86821 0.26486 0.0
H1915 H 0.14866 0.83966 0.27956 0.0
H1916 H 0.58722 0.83049 0.23765 0.0
H1917 H 0.39593 0.8388 0.26841 0.0
H1918 H 0.51582 0.81345 0.22165 0.0
H1919 H 0.46922 0.85542 0.28346 0.0
H1920 H 0.33171 0.83583 0.35685 0.0
H1921 H 0.39539 0.79369 0.34706 0.0
H1922 H 0.29471 0.86524 0.15314 0.0
H1923 H 0.46109 0.86901 0.18586 0.0
H1924 H 0.30334 0.76854 0.21365 0.0
H1925 H 0.23752 0.80062 0.27316 0.0
H1926 H 0.22292 0.7536 0.22562 0.0
H1927 H 0.15811 0.78517 0.284 0.0
H1928 H 0.30117 0.81553 0.1271 0.0
H1929 H 0.4636 0.81045 0.16354 0.0
H1930 H 0.34044 0.82779 0.0814 0.0
H1931 H 0.50006 0.8228 0.11721 0.0
H1932 H 0.12329 0.82102 0.15181 0.0
H1933 H 0.17811 0.7795 0.12585 0.0
H1934 H 0.52221 0.77333 0.27641 0.0
H1935 H 0.44749 0.74822 0.20444 0.0
Li1936 Li 0.45626 0.80625 0.54428 0.0
Li1937 Li 0.36026 0.79837 0.5319 0.0
Li1938 Li 0.41353 0.81323 0.49489 0.0
Li1939 Li 0.38494 0.82306 0.54372 0.0
C1940 C 0.47352 0.78566 0.5031 0.0
N1941 N 0.56227 0.76876 0.49024 0.0
C1942 C 0.47741 0.77231 0.51637 0.0
C1943 C 0.51448 0.79039 0.48314 0.0
C1944 C 0.5227 0.76393 0.50963 0.0
C1945 C 0.5591 0.78169 0.47696 0.0
C1946 C 0.36941 0.81211 0.59726 0.0
C1947 C 0.29265 0.8211 0.62601 0.0
N1948 N 0.32736 0.82581 0.64832 0.0
C1949 C 0.40436 0.81698 0.62048 0.0
C1950 C 0.31311 0.81411 0.60001 0.0
C1951 C 0.38227 0.8239 0.64612 0.0
C1952 C 0.55635 0.81288 0.56995 0.0
N1953 N 0.52074 0.80205 0.56686 0.0
C1954 C 0.56852 0.78882 0.60549 0.0
C1955 C 0.52628 0.79005 0.58374 0.0
C1956 C 0.60425 0.80017 0.61012 0.0
C1957 C 0.59872 0.81213 0.59136 0.0
H1958 H 0.55009 0.82246 0.55705 0.0
H1959 H 0.49625 0.78178 0.58157 0.0
C1960 C 0.27882 0.78397 0.50154 0.0
N1961 N 0.31247 0.78282 0.52647 0.0
C1962 C 0.25206 0.77219 0.48976 0.0
C1963 C 0.29454 0.75816 0.5297 0.0
C1964 C 0.32049 0.77028 0.54083 0.0
C1965 C 0.26053 0.75899 0.50343 0.0
H1966 H 0.27535 0.79389 0.48954 0.0
H1967 H 0.34916 0.76954 0.55983 0.0
C1968 C 0.48332 0.83463 0.50652 0.0
N1969 N 0.53792 0.85472 0.47216 0.0
C1970 C 0.4601 0.8479 0.50191 0.0
C1971 C 0.53437 0.83161 0.49367 0.0
C1972 C 0.48838 0.85791 0.48452 0.0
C1973 C 0.56125 0.84189 0.47631 0.0
C1974 C 0.29851 0.82491 0.50154 0.0
C1975 C 0.31171 0.83676 0.48398 0.0
C1976 C 0.24431 0.82256 0.51027 0.0
C1977 C 0.27043 0.84614 0.47556 0.0
C1978 C 0.20417 0.83216 0.50132 0.0
N1979 N 0.21796 0.84366 0.48432 0.0
C1980 C 0.38919 0.80313 0.43879 0.0
C1981 C 0.4241 0.82625 0.43374 0.0
C1982 C 0.37422 0.8029 0.40773 0.0
N1983 N 0.41309 0.8147 0.45122 0.0
C1984 C 0.40949 0.8265 0.40241 0.0
C1985 C 0.38348 0.81477 0.38923 0.0
H1986 H 0.37939 0.79428 0.45349 0.0
H1987 H 0.44172 0.83547 0.44423 0.0
C1988 C 0.41517 0.84651 0.57651 0.0
N1989 N 0.36996 0.8408 0.56321 0.0
C1990 C 0.41708 0.86081 0.58347 0.0
C1991 C 0.324 0.86289 0.56561 0.0
C1992 C 0.32376 0.84849 0.55922 0.0
C1993 C 0.37205 0.86936 0.57652 0.0
H1994 H 0.45144 0.84016 0.57941 0.0
H1995 H 0.28795 0.84377 0.54912 0.0
O1996 O 0.42992 0.79408 0.50975 0.0
O1997 O 0.3903 0.80567 0.57159 0.0
O1998 O 0.45694 0.82474 0.52403 0.0
O1999 O 0.33827 0.81562 0.51018 0.0
H2000 H 0.44597 0.76852 0.53187 0.0
H2001 H 0.51177 0.80066 0.47251 0.0
H2002 H 0.52641 0.7536 0.51984 0.0
H2003 H 0.59119 0.78522 0.4616 0.0
H2004 H 0.24919 0.82281 0.62841 0.0
H2005 H 0.44808 0.81554 0.61854 0.0
H2006 H 0.28566 0.81045 0.58208 0.0
H2007 H 0.4088 0.8278 0.66423 0.0
H2008 H 0.57132 0.77947 0.61968 0.0
H2009 H 0.62581 0.82105 0.59397 0.0
H2010 H 0.22704 0.77333 0.46923 0.0
H2011 H 0.30183 0.74821 0.54115 0.0
H2012 H 0.42055 0.85046 0.51143 0.0
H2013 H 0.55317 0.82145 0.49719 0.0
H2014 H 0.47087 0.8682 0.48078 0.0
H2015 H 0.60075 0.83968 0.46622 0.0
H2016 H 0.35338 0.83878 0.47718 0.0
H2017 H 0.23346 0.81345 0.52398 0.0
H2018 H 0.28012 0.8554 0.46211 0.0
H2019 H 0.16208 0.8305 0.50796 0.0
H2020 H 0.3537 0.79371 0.3986 0.0
H2021 H 0.41778 0.83581 0.38877 0.0
H2022 H 0.45457 0.86524 0.59248 0.0
H2023 H 0.28821 0.86901 0.55975 0.0
Li2024 Li 0.38905 0.95596 0.5319 0.0
Li2025 Li 0.29305 0.94808 0.54427 0.0
Li2026 Li 0.36436 0.93127 0.54371 0.0
Li2027 Li 0.33578 0.94109 0.49489 0.0
C2028 C 0.37989 0.94222 0.59726 0.0
N2029 N 0.42191 0.92851 0.64832 0.0
C2030 C 0.34493 0.93735 0.62047 0.0
C2031 C 0.43618 0.94021 0.60002 0.0
C2032 C 0.367 0.93042 0.64612 0.0
C2033 C 0.45663 0.93322 0.62601 0.0
C2034 C 0.27579 0.96867 0.50309 0.0
C2035 C 0.19022 0.97263 0.47695 0.0
N2036 N 0.18705 0.98557 0.49023 0.0
C2037 C 0.2719 0.98201 0.51636 0.0
C2038 C 0.23484 0.96393 0.48314 0.0
C2039 C 0.22662 0.99039 0.50962 0.0
C2040 C 0.47049 0.97035 0.50154 0.0
N2041 N 0.43684 0.9715 0.52647 0.0
C2042 C 0.45476 0.99617 0.5297 0.0
C2043 C 0.42882 0.98405 0.54083 0.0
C2044 C 0.48878 0.99533 0.50344 0.0
C2045 C 0.49725 0.98213 0.48977 0.0
H2046 H 0.47397 0.96043 0.48955 0.0
H2047 H 0.40014 0.98478 0.55983 0.0
C2048 C 0.19296 0.94144 0.56995 0.0
N2049 N 0.22856 0.95228 0.56685 0.0
C2050 C 0.1506 0.94219 0.59137 0.0
C2051 C 0.18077 0.96551 0.60548 0.0
C2052 C 0.22301 0.96427 0.58373 0.0
C2053 C 0.14505 0.95415 0.61012 0.0
H2054 H 0.19923 0.93186 0.55706 0.0
H2055 H 0.25303 0.97255 0.58155 0.0
C2056 C 0.4508 0.92941 0.50154 0.0
N2057 N 0.53134 0.91066 0.48432 0.0
C2058 C 0.43759 0.91756 0.48398 0.0
C2059 C 0.50499 0.93176 0.51027 0.0
C2060 C 0.47887 0.90818 0.47555 0.0
C2061 C 0.54513 0.92216 0.50132 0.0
C2062 C 0.26598 0.91969 0.50651 0.0
C2063 C 0.2892 0.90643 0.5019 0.0
C2064 C 0.21493 0.92271 0.49367 0.0
C2065 C 0.26091 0.89642 0.48451 0.0
C2066 C 0.18804 0.91244 0.47631 0.0
N2067 N 0.21137 0.89961 0.47215 0.0
C2068 C 0.33412 0.90782 0.5765 0.0
C2069 C 0.42553 0.90583 0.55921 0.0
C2070 C 0.3322 0.89352 0.58346 0.0
N2071 N 0.37933 0.91352 0.5632 0.0
C2072 C 0.42529 0.89143 0.5656 0.0
C2073 C 0.37724 0.88496 0.57652 0.0
H2074 H 0.29785 0.91417 0.5794 0.0
H2075 H 0.46135 0.91055 0.54912 0.0
C2076 C 0.36013 0.95119 0.43879 0.0
N2077 N 0.33622 0.93962 0.45122 0.0
C2078 C 0.3751 0.95143 0.40773 0.0
C2079 C 0.33981 0.92783 0.4024 0.0
C2080 C 0.3252 0.92808 0.43374 0.0
C2081 C 0.36583 0.93956 0.38922 0.0
H2082 H 0.36993 0.96004 0.4535 0.0
H2083 H 0.30758 0.91885 0.44422 0.0
O2084 O 0.359 0.94865 0.57159 0.0
O2085 O 0.31939 0.96024 0.50975 0.0
O2086 O 0.41104 0.9387 0.51018 0.0
O2087 O 0.29236 0.92958 0.52402 0.0
H2088 H 0.30121 0.93879 0.61854 0.0
H2089 H 0.46364 0.94387 0.58208 0.0
H2090 H 0.34047 0.92653 0.66422 0.0
H2091 H 0.50009 0.93151 0.62841 0.0
H2092 H 0.15813 0.9691 0.46159 0.0
H2093 H 0.30334 0.98581 0.53186 0.0
H2094 H 0.23755 0.95366 0.47251 0.0
H2095 H 0.22291 1.00073 0.51982 0.0
H2096 H 0.44747 0.00611 0.54115 0.0
H2097 H 0.52228 0.98099 0.46923 0.0
H2098 H 0.12352 0.93327 0.59398 0.0
H2099 H 0.17796 0.97486 0.61966 0.0
H2100 H 0.39592 0.91554 0.47718 0.0
H2101 H 0.51585 0.94087 0.52399 0.0
H2102 H 0.46918 0.89892 0.4621 0.0
H2103 H 0.58722 0.92382 0.50797 0.0
H2104 H 0.32875 0.90386 0.51141 0.0
H2105 H 0.19612 0.93287 0.49719 0.0
H2106 H 0.27843 0.88612 0.48077 0.0
H2107 H 0.14854 0.91465 0.46622 0.0
H2108 H 0.29471 0.88908 0.59247 0.0
H2109 H 0.46108 0.88531 0.55975 0.0
H2110 H 0.39563 0.96062 0.3986 0.0
H2111 H 0.33152 0.91852 0.38876 0.0
Li2112 Li 0.61109 0.57288 0.28905 0.0
Li2113 Li 0.53721 0.55582 0.29074 0.0
Li2114 Li 0.63458 0.5484 0.27681 0.0
Li2115 Li 0.58129 0.56264 0.242 0.0
C2116 C 0.62521 0.56193 0.34297 0.0
N2117 N 0.66561 0.57513 0.3951 0.0
C2118 C 0.58954 0.56654 0.3661 0.0
C2119 C 0.68138 0.56395 0.34635 0.0
C2120 C 0.61079 0.57321 0.39229 0.0
C2121 C 0.70102 0.57067 0.37288 0.0
C2122 C 0.51243 0.58348 0.25115 0.0
C2123 C 0.43722 0.58936 0.21747 0.0
N2124 N 0.4612 0.60191 0.2111 0.0
C2125 C 0.53622 0.59647 0.24436 0.0
C2126 C 0.46241 0.57991 0.23771 0.0
C2127 C 0.50972 0.60564 0.22403 0.0
C2128 C 0.6716 0.59826 0.29941 0.0
N2129 N 0.62662 0.59067 0.30706 0.0
C2130 C 0.58247 0.61109 0.32739 0.0
C2131 C 0.58333 0.59666 0.32173 0.0
C2132 C 0.62678 0.61939 0.31802 0.0
C2133 C 0.67274 0.61274 0.30501 0.0
H2134 H 0.70466 0.59331 0.28691 0.0
H2135 H 0.54749 0.59042 0.32671 0.0
C2136 C 0.46983 0.53978 0.33146 0.0
N2137 N 0.47447 0.55179 0.31459 0.0
C2138 C 0.42923 0.53861 0.35417 0.0
C2139 C 0.39849 0.56198 0.34076 0.0
C2140 C 0.43929 0.56267 0.31838 0.0
C2141 C 0.39414 0.55002 0.35965 0.0
H2142 H 0.49939 0.53145 0.32842 0.0
H2143 H 0.44473 0.57221 0.30516 0.0
C2144 C 0.69451 0.56256 0.23234 0.0
N2145 N 0.76565 0.55639 0.1845 0.0
C2146 C 0.68487 0.551 0.21308 0.0
C2147 C 0.74029 0.57099 0.22717 0.0
C2148 C 0.72129 0.54805 0.18906 0.0
C2149 C 0.77582 0.56769 0.20291 0.0
C2150 C 0.52991 0.5355 0.23879 0.0
C2151 C 0.55149 0.52476 0.22036 0.0
C2152 C 0.47365 0.53792 0.23884 0.0
C2153 C 0.51639 0.51676 0.20194 0.0
C2154 C 0.43991 0.52968 0.2201 0.0
N2155 N 0.4618 0.51937 0.20218 0.0
C2156 C 0.65464 0.51987 0.27625 0.0
C2157 C 0.7354 0.533 0.26774 0.0
C2158 C 0.6802 0.50759 0.26619 0.0
N2159 N 0.6817 0.53233 0.27569 0.0
C2160 C 0.76258 0.52095 0.25732 0.0
C2161 C 0.73435 0.5081 0.25551 0.0
H2162 H 0.61186 0.51964 0.28243 0.0
H2163 H 0.75616 0.54302 0.26745 0.0
C2164 C 0.60663 0.5783 0.19027 0.0
N2165 N 0.57705 0.5668 0.19871 0.0
C2166 C 0.6243 0.5799 0.15977 0.0
C2167 C 0.57736 0.55836 0.14671 0.0
C2168 C 0.55984 0.55729 0.17735 0.0
C2169 C 0.61177 0.56947 0.13815 0.0
H2170 H 0.62118 0.58549 0.2078 0.0
H2171 H 0.53615 0.54832 0.18426 0.0
O2172 O 0.60518 0.55571 0.31682 0.0
O2173 O 0.53787 0.57431 0.27089 0.0
O2174 O 0.65831 0.566 0.25533 0.0
O2175 O 0.56354 0.54339 0.25718 0.0
H2176 H 0.5459 0.56508 0.36371 0.0
H2177 H 0.7094 0.56048 0.32851 0.0
H2178 H 0.58371 0.57689 0.41034 0.0
H2179 H 0.74438 0.57238 0.37578 0.0
H2180 H 0.39856 0.58671 0.20685 0.0
H2181 H 0.57508 0.59941 0.25428 0.0
H2182 H 0.44316 0.56997 0.24283 0.0
H2183 H 0.52783 0.61569 0.21847 0.0
H2184 H 0.54637 0.61582 0.33747 0.0
H2185 H 0.70739 0.61881 0.29703 0.0
H2186 H 0.42722 0.52925 0.36838 0.0
H2187 H 0.37169 0.57092 0.34395 0.0
H2188 H 0.64951 0.54441 0.21657 0.0
H2189 H 0.74812 0.58005 0.24165 0.0
H2190 H 0.71421 0.53915 0.17399 0.0
H2191 H 0.81139 0.57414 0.19864 0.0
H2192 H 0.59491 0.52271 0.21998 0.0
H2193 H 0.45615 0.54602 0.25327 0.0
H2194 H 0.53257 0.50848 0.18744 0.0
H2195 H 0.3963 0.53147 0.21986 0.0
H2196 H 0.65674 0.49796 0.26523 0.0
H2197 H 0.80475 0.52176 0.25001 0.0
H2198 H 0.6508 0.58859 0.15374 0.0
H2199 H 0.56638 0.55026 0.13022 0.0
Li2200 Li 0.7121 0.69851 0.29074 0.0
Li2201 Li 0.63822 0.68144 0.28904 0.0
Li2202 Li 0.66802 0.69168 0.24199 0.0
Li2203 Li 0.61473 0.70592 0.27681 0.0
C2204 C 0.73688 0.67084 0.25115 0.0
N2205 N 0.78811 0.65241 0.21109 0.0
C2206 C 0.71309 0.65785 0.24435 0.0
C2207 C 0.7869 0.67441 0.2377 0.0
C2208 C 0.73959 0.64869 0.22402 0.0
C2209 C 0.81209 0.66497 0.21746 0.0
C2210 C 0.6241 0.6924 0.34297 0.0
C2211 C 0.5483 0.68365 0.37288 0.0
N2212 N 0.5837 0.6792 0.39509 0.0
C2213 C 0.65978 0.68779 0.36609 0.0
C2214 C 0.56793 0.69037 0.34634 0.0
C2215 C 0.63852 0.68112 0.39228 0.0
C2216 C 0.77947 0.71454 0.33146 0.0
N2217 N 0.77484 0.70253 0.31459 0.0
C2218 C 0.85082 0.69234 0.34075 0.0
C2219 C 0.81003 0.69165 0.31837 0.0
C2220 C 0.85517 0.7043 0.35964 0.0
C2221 C 0.82008 0.71571 0.35418 0.0
H2222 H 0.74992 0.72287 0.32843 0.0
H2223 H 0.80458 0.68212 0.30514 0.0
C2224 C 0.57772 0.65606 0.29941 0.0
N2225 N 0.62269 0.66365 0.30705 0.0
C2226 C 0.57658 0.64158 0.305 0.0
C2227 C 0.66685 0.64324 0.32739 0.0
C2228 C 0.66599 0.65766 0.32173 0.0
C2229 C 0.62255 0.63494 0.31802 0.0
H2230 H 0.54466 0.66101 0.2869 0.0
H2231 H 0.70183 0.66391 0.32671 0.0
C2232 C 0.7194 0.71882 0.23879 0.0
N2233 N 0.7875 0.73495 0.20218 0.0
C2234 C 0.69781 0.72956 0.22036 0.0
C2235 C 0.77566 0.7164 0.23884 0.0
C2236 C 0.73291 0.73757 0.20195 0.0
C2237 C 0.8094 0.72464 0.2201 0.0
C2238 C 0.5548 0.69177 0.23234 0.0
C2239 C 0.56444 0.70332 0.21308 0.0
C2240 C 0.50902 0.68333 0.22717 0.0
C2241 C 0.52801 0.70627 0.18905 0.0
C2242 C 0.47349 0.68663 0.2029 0.0
N2243 N 0.48366 0.69793 0.1845 0.0
C2244 C 0.64268 0.67603 0.19027 0.0
C2245 C 0.68947 0.69703 0.17735 0.0
C2246 C 0.62501 0.67442 0.15977 0.0
N2247 N 0.67227 0.68752 0.19871 0.0
C2248 C 0.67196 0.69596 0.14671 0.0
C2249 C 0.63754 0.68486 0.13814 0.0
H2250 H 0.62813 0.66883 0.20779 0.0
H2251 H 0.71316 0.70601 0.18426 0.0
C2252 C 0.59466 0.73445 0.27625 0.0
N2253 N 0.56761 0.722 0.27569 0.0
C2254 C 0.56911 0.74673 0.26619 0.0
C2255 C 0.48674 0.73337 0.25731 0.0
C2256 C 0.51391 0.72132 0.26773 0.0
C2257 C 0.51496 0.74623 0.25551 0.0
H2258 H 0.63745 0.73469 0.28243 0.0
H2259 H 0.49315 0.7113 0.26745 0.0
O2260 O 0.71144 0.68001 0.27088 0.0
O2261 O 0.64413 0.69862 0.31682 0.0
O2262 O 0.68577 0.71094 0.25718 0.0
O2263 O 0.591 0.68832 0.25533 0.0
H2264 H 0.67423 0.65491 0.25427 0.0
H2265 H 0.80615 0.68435 0.24282 0.0
H2266 H 0.72148 0.63864 0.21846 0.0
H2267 H 0.85074 0.66762 0.20684 0.0
H2268 H 0.50493 0.68194 0.37578 0.0
H2269 H 0.70341 0.68924 0.3637 0.0
H2270 H 0.53991 0.69384 0.3285 0.0
H2271 H 0.66561 0.67743 0.41034 0.0
H2272 H 0.87762 0.68341 0.34394 0.0
H2273 H 0.82208 0.72507 0.36839 0.0
H2274 H 0.54193 0.63551 0.29702 0.0
H2275 H 0.70295 0.63851 0.33747 0.0
H2276 H 0.6544 0.73161 0.21998 0.0
H2277 H 0.79316 0.7083 0.25327 0.0
H2278 H 0.71674 0.74584 0.18744 0.0
H2279 H 0.85301 0.72285 0.21986 0.0
H2280 H 0.5998 0.70991 0.21656 0.0
H2281 H 0.5012 0.67427 0.24164 0.0
H2282 H 0.53509 0.71517 0.17399 0.0
H2283 H 0.43792 0.68018 0.19863 0.0
H2284 H 0.5985 0.66573 0.15373 0.0
H2285 H 0.68294 0.70406 0.13022 0.0
H2286 H 0.59257 0.75636 0.26523 0.0
H2287 H 0.44456 0.73257 0.25001 0.0
Li2288 Li 0.63456 0.70592 0.96877 0.0
Li2289 Li 0.58126 0.69168 0.00358 0.0
Li2290 Li 0.61107 0.68144 0.95653 0.0
Li2291 Li 0.53719 0.6985 0.95483 0.0
C2292 C 0.69448 0.69177 0.01325 0.0
N2293 N 0.7656 0.69794 0.0611 0.0
C2294 C 0.68483 0.70332 0.03251 0.0
C2295 C 0.74025 0.68333 0.01842 0.0
C2296 C 0.72124 0.70628 0.05654 0.0
C2297 C 0.77578 0.68664 0.04269 0.0
C2298 C 0.52987 0.71881 0.00678 0.0
C2299 C 0.43987 0.72463 0.02546 0.0
N2300 N 0.46175 0.73495 0.04338 0.0
C2301 C 0.55144 0.72956 0.02521 0.0
C2302 C 0.47361 0.71639 0.00673 0.0
C2303 C 0.51633 0.73756 0.04363 0.0
C2304 C 0.65463 0.73445 0.96934 0.0
N2305 N 0.68168 0.722 0.9699 0.0
C2306 C 0.76256 0.73337 0.98828 0.0
C2307 C 0.73538 0.72132 0.97785 0.0
C2308 C 0.73433 0.74623 0.99008 0.0
C2309 C 0.68019 0.74673 0.9794 0.0
H2310 H 0.61185 0.73468 0.96316 0.0
H2311 H 0.75614 0.7113 0.97814 0.0
C2312 C 0.60659 0.67602 0.0553 0.0
N2313 N 0.577 0.68752 0.04686 0.0
C2314 C 0.62425 0.67442 0.0858 0.0
C2315 C 0.57731 0.69596 0.09886 0.0
C2316 C 0.55979 0.69703 0.06822 0.0
C2317 C 0.61172 0.68486 0.10743 0.0
H2318 H 0.62114 0.66883 0.03777 0.0
H2319 H 0.53611 0.706 0.06132 0.0
C2320 C 0.62521 0.69239 0.90261 0.0
N2321 N 0.66563 0.67919 0.85049 0.0
C2322 C 0.58955 0.68778 0.87948 0.0
C2323 C 0.68139 0.69037 0.89924 0.0
C2324 C 0.61081 0.68111 0.85329 0.0
C2325 C 0.70103 0.68365 0.87271 0.0
C2326 C 0.5124 0.67084 0.99441 0.0
C2327 C 0.53619 0.65785 0.00121 0.0
C2328 C 0.46236 0.6744 0.00783 0.0
C2329 C 0.50968 0.64868 0.02153 0.0
C2330 C 0.43715 0.66496 0.02806 0.0
N2331 N 0.46113 0.6524 0.03444 0.0
C2332 C 0.67159 0.65606 0.94617 0.0
C2333 C 0.58332 0.65766 0.92384 0.0
C2334 C 0.67273 0.64158 0.94058 0.0
N2335 N 0.62661 0.66365 0.93852 0.0
C2336 C 0.58246 0.64323 0.91819 0.0
C2337 C 0.62677 0.63494 0.92756 0.0
H2338 H 0.70464 0.66101 0.95868 0.0
H2339 H 0.54748 0.6639 0.91886 0.0
C2340 C 0.4698 0.71454 0.91414 0.0
N2341 N 0.47446 0.70252 0.93097 0.0
C2342 C 0.4292 0.71571 0.89141 0.0
C2343 C 0.39853 0.69233 0.90477 0.0
C2344 C 0.43932 0.69164 0.92715 0.0
C2345 C 0.39415 0.7043 0.88591 0.0
H2346 H 0.49932 0.72288 0.9172 0.0
H2347 H 0.44479 0.6821 0.94035 0.0
O2348 O 0.65829 0.68833 0.99025 0.0
O2349 O 0.56352 0.71093 0.9884 0.0
O2350 O 0.60517 0.69862 0.92875 0.0
O2351 O 0.53785 0.68001 0.97468 0.0
H2352 H 0.64947 0.70991 0.02902 0.0
H2353 H 0.74809 0.67427 0.00395 0.0
H2354 H 0.71416 0.71517 0.0716 0.0
H2355 H 0.81135 0.68019 0.04696 0.0
H2356 H 0.39626 0.72284 0.0257 0.0
H2357 H 0.59486 0.73162 0.0256 0.0
H2358 H 0.45613 0.70829 0.9923 0.0
H2359 H 0.5325 0.74584 0.05813 0.0
H2360 H 0.80474 0.73257 0.99558 0.0
H2361 H 0.65673 0.75636 0.98037 0.0
H2362 H 0.65076 0.66573 0.09184 0.0
H2363 H 0.56633 0.70406 0.11535 0.0
H2364 H 0.54591 0.68924 0.88186 0.0
H2365 H 0.7094 0.69384 0.91708 0.0
H2366 H 0.58373 0.67743 0.83524 0.0
H2367 H 0.7444 0.68194 0.86981 0.0
H2368 H 0.57507 0.65491 0.9913 0.0
H2369 H 0.4431 0.68434 0.0027 0.0
H2370 H 0.52779 0.63863 0.0271 0.0
H2371 H 0.39847 0.6676 0.03866 0.0
H2372 H 0.70739 0.63551 0.94856 0.0
H2373 H 0.54637 0.6385 0.90811 0.0
H2374 H 0.42716 0.72508 0.87723 0.0
H2375 H 0.37177 0.68339 0.90156 0.0
Li2376 Li 0.66805 0.56264 0.00358 0.0
Li2377 Li 0.61475 0.5484 0.96877 0.0
Li2378 Li 0.71212 0.55582 0.95483 0.0
Li2379 Li 0.63824 0.57288 0.95654 0.0
C2380 C 0.71944 0.53551 0.00678 0.0
N2381 N 0.78757 0.51938 0.04339 0.0
C2382 C 0.69787 0.52477 0.02521 0.0
C2383 C 0.7757 0.53793 0.00673 0.0
C2384 C 0.73298 0.51676 0.04363 0.0
C2385 C 0.80945 0.5297 0.02546 0.0
C2386 C 0.55483 0.56255 0.01325 0.0
C2387 C 0.47353 0.56768 0.04269 0.0
N2388 N 0.4837 0.55638 0.0611 0.0
C2389 C 0.56448 0.551 0.03251 0.0
C2390 C 0.50905 0.57099 0.01843 0.0
C2391 C 0.52806 0.54805 0.05654 0.0
C2392 C 0.64271 0.5783 0.05531 0.0
N2393 N 0.67231 0.56681 0.04687 0.0
C2394 C 0.67201 0.55837 0.09887 0.0
C2395 C 0.68952 0.5573 0.06823 0.0
C2396 C 0.63759 0.56947 0.10743 0.0
C2397 C 0.62505 0.57991 0.08581 0.0
H2398 H 0.62816 0.58549 0.03778 0.0
H2399 H 0.71321 0.54832 0.06132 0.0
C2400 C 0.59468 0.51987 0.96935 0.0
N2401 N 0.56763 0.53233 0.9699 0.0
C2402 C 0.56913 0.50759 0.97941 0.0
C2403 C 0.48675 0.52095 0.98828 0.0
C2404 C 0.51393 0.533 0.97785 0.0
C2405 C 0.51498 0.5081 0.99009 0.0
H2406 H 0.63747 0.51964 0.96316 0.0
H2407 H 0.49317 0.54302 0.97813 0.0
C2408 C 0.73691 0.58349 0.99441 0.0
N2409 N 0.78817 0.60192 0.03444 0.0
C2410 C 0.71311 0.59648 0.00122 0.0
C2411 C 0.78695 0.57992 0.00784 0.0
C2412 C 0.73962 0.60564 0.02154 0.0
C2413 C 0.81216 0.58937 0.02806 0.0
C2414 C 0.6241 0.56193 0.90261 0.0
C2415 C 0.65976 0.56654 0.87948 0.0
C2416 C 0.56792 0.56395 0.89924 0.0
C2417 C 0.6385 0.57321 0.8533 0.0
C2418 C 0.54828 0.57067 0.87271 0.0
N2419 N 0.58368 0.57513 0.85049 0.0
C2420 C 0.77952 0.53978 0.91414 0.0
C2421 C 0.80999 0.56268 0.92716 0.0
C2422 C 0.82011 0.53861 0.89141 0.0
N2423 N 0.77485 0.5518 0.93098 0.0
C2424 C 0.85077 0.56199 0.90477 0.0
C2425 C 0.85516 0.55003 0.88591 0.0
H2426 H 0.75 0.53144 0.9172 0.0
H2427 H 0.80451 0.57222 0.94036 0.0
C2428 C 0.57772 0.59826 0.94618 0.0
N2429 N 0.6227 0.59067 0.93853 0.0
C2430 C 0.57658 0.61274 0.94058 0.0
C2431 C 0.66685 0.61109 0.91819 0.0
C2432 C 0.66599 0.59666 0.92385 0.0
C2433 C 0.62255 0.61938 0.92756 0.0
H2434 H 0.54467 0.59331 0.95868 0.0
H2435 H 0.70183 0.59042 0.91887 0.0
O2436 O 0.68579 0.54339 0.9884 0.0
O2437 O 0.59102 0.566 0.99026 0.0
O2438 O 0.71146 0.57432 0.97469 0.0
O2439 O 0.64414 0.55571 0.92876 0.0
H2440 H 0.65446 0.52271 0.0256 0.0
H2441 H 0.79318 0.54603 0.9923 0.0
H2442 H 0.71682 0.50848 0.05814 0.0
H2443 H 0.85306 0.53149 0.0257 0.0
H2444 H 0.43796 0.57413 0.04696 0.0
H2445 H 0.59984 0.54441 0.02902 0.0
H2446 H 0.50122 0.58005 0.00395 0.0
H2447 H 0.53515 0.53915 0.0716 0.0
H2448 H 0.68299 0.55026 0.11536 0.0
H2449 H 0.59854 0.58859 0.09185 0.0
H2450 H 0.59259 0.49796 0.98038 0.0
H2451 H 0.44458 0.52176 0.99558 0.0
H2452 H 0.67424 0.59941 0.99131 0.0
H2453 H 0.80621 0.56998 0.00271 0.0
H2454 H 0.72151 0.61569 0.02711 0.0
H2455 H 0.85083 0.58672 0.03867 0.0
H2456 H 0.7034 0.56508 0.88187 0.0
H2457 H 0.53991 0.56048 0.91709 0.0
H2458 H 0.66558 0.57689 0.83524 0.0
H2459 H 0.50492 0.57238 0.86982 0.0
H2460 H 0.82215 0.52924 0.87723 0.0
H2461 H 0.87754 0.57093 0.90156 0.0
H2462 H 0.54193 0.61881 0.94856 0.0
H2463 H 0.70294 0.61582 0.90811 0.0
Li2464 Li 0.41353 0.44109 0.75073 0.0
Li2465 Li 0.38496 0.43127 0.7019 0.0
Li2466 Li 0.45628 0.44808 0.70136 0.0
Li2467 Li 0.36028 0.45596 0.71372 0.0
C2468 C 0.48331 0.41969 0.73913 0.0
N2469 N 0.53787 0.39962 0.77355 0.0
C2470 C 0.46012 0.40642 0.74371 0.0
C2471 C 0.53431 0.42272 0.75204 0.0
C2472 C 0.48838 0.39642 0.76113 0.0
C2473 C 0.56117 0.41245 0.76942 0.0
C2474 C 0.29851 0.42941 0.74406 0.0
C2475 C 0.20417 0.42216 0.74429 0.0
N2476 N 0.21795 0.41066 0.76127 0.0
C2477 C 0.31171 0.41755 0.7616 0.0
C2478 C 0.24431 0.43177 0.73535 0.0
C2479 C 0.27042 0.40818 0.77002 0.0
C2480 C 0.38925 0.4512 0.80684 0.0
N2481 N 0.41307 0.43962 0.7944 0.0
C2482 C 0.40939 0.42782 0.84321 0.0
C2483 C 0.424 0.42806 0.81187 0.0
C2484 C 0.38346 0.43956 0.8564 0.0
C2485 C 0.37427 0.45143 0.8379 0.0
H2486 H 0.3795 0.46005 0.79214 0.0
H2487 H 0.44156 0.41883 0.80139 0.0
C2488 C 0.4152 0.40782 0.6691 0.0
N2489 N 0.36998 0.41352 0.6824 0.0
C2490 C 0.4171 0.39352 0.66214 0.0
C2491 C 0.32401 0.39143 0.67999 0.0
C2492 C 0.32378 0.40583 0.68638 0.0
C2493 C 0.37206 0.38496 0.66908 0.0
H2494 H 0.45147 0.41416 0.66621 0.0
H2495 H 0.28796 0.41055 0.69647 0.0
C2496 C 0.47351 0.46867 0.7425 0.0
N2497 N 0.56225 0.48559 0.75528 0.0
C2498 C 0.47741 0.482 0.72916 0.0
C2499 C 0.51447 0.46396 0.76248 0.0
C2500 C 0.52269 0.49039 0.73586 0.0
C2501 C 0.55908 0.47267 0.76863 0.0
C2502 C 0.36945 0.44222 0.64836 0.0
C2503 C 0.40441 0.43735 0.62514 0.0
C2504 C 0.31316 0.44022 0.64559 0.0
C2505 C 0.38234 0.43043 0.59949 0.0
C2506 C 0.29271 0.43323 0.61959 0.0
N2507 N 0.32743 0.42852 0.59729 0.0
C2508 C 0.55649 0.44147 0.67578 0.0
C2509 C 0.5262 0.46426 0.66183 0.0
C2510 C 0.59886 0.44222 0.65437 0.0
N2511 N 0.52077 0.45229 0.67879 0.0
C2512 C 0.56845 0.46549 0.64009 0.0
C2513 C 0.60429 0.45416 0.63553 0.0
H2514 H 0.55031 0.4319 0.68873 0.0
H2515 H 0.49609 0.47251 0.66394 0.0
C2516 C 0.27885 0.47036 0.74408 0.0
N2517 N 0.31248 0.4715 0.71914 0.0
C2518 C 0.25209 0.48213 0.75584 0.0
C2519 C 0.29454 0.49616 0.71589 0.0
C2520 C 0.32049 0.48404 0.70477 0.0
C2521 C 0.26054 0.49533 0.74216 0.0
H2522 H 0.27539 0.46044 0.75608 0.0
H2523 H 0.34915 0.48478 0.68576 0.0
O2524 O 0.45696 0.42958 0.7216 0.0
O2525 O 0.33828 0.4387 0.73543 0.0
O2526 O 0.42992 0.46024 0.73589 0.0
O2527 O 0.39034 0.44865 0.67404 0.0
H2528 H 0.42061 0.40385 0.73416 0.0
H2529 H 0.55309 0.43289 0.74854 0.0
H2530 H 0.47089 0.38612 0.76484 0.0
H2531 H 0.60063 0.41467 0.77956 0.0
H2532 H 0.16208 0.42383 0.73765 0.0
H2533 H 0.35338 0.41553 0.76839 0.0
H2534 H 0.23346 0.44088 0.72164 0.0
H2535 H 0.28011 0.39891 0.78346 0.0
H2536 H 0.41762 0.4185 0.85684 0.0
H2537 H 0.35381 0.46063 0.84704 0.0
H2538 H 0.45459 0.38908 0.65313 0.0
H2539 H 0.28821 0.38531 0.68584 0.0
H2540 H 0.44597 0.48578 0.71364 0.0
H2541 H 0.51176 0.45371 0.77316 0.0
H2542 H 0.52639 0.50072 0.72561 0.0
H2543 H 0.59117 0.46916 0.78401 0.0
H2544 H 0.44813 0.43879 0.62709 0.0
H2545 H 0.2857 0.44387 0.66352 0.0
H2546 H 0.40888 0.42653 0.58139 0.0
H2547 H 0.24925 0.43152 0.61719 0.0
H2548 H 0.62604 0.43332 0.65182 0.0
H2549 H 0.57117 0.47483 0.62584 0.0
H2550 H 0.22707 0.481 0.77638 0.0
H2551 H 0.30181 0.50611 0.70442 0.0
Li2552 Li 0.36435 0.32306 0.7019 0.0
Li2553 Li 0.33579 0.31324 0.75073 0.0
Li2554 Li 0.38904 0.29837 0.71371 0.0
Li2555 Li 0.29303 0.30625 0.70135 0.0
C2556 C 0.4508 0.32491 0.74407 0.0
N2557 N 0.53135 0.34367 0.76128 0.0
C2558 C 0.4376 0.33677 0.76161 0.0
C2559 C 0.50499 0.32256 0.73535 0.0
C2560 C 0.47888 0.34615 0.77003 0.0
C2561 C 0.54514 0.33217 0.74429 0.0
C2562 C 0.26599 0.33463 0.73913 0.0
C2563 C 0.18812 0.34187 0.76941 0.0
N2564 N 0.21143 0.35471 0.77354 0.0
C2565 C 0.28919 0.3479 0.74371 0.0
C2566 C 0.21499 0.3316 0.75202 0.0
C2567 C 0.26092 0.35791 0.76113 0.0
C2568 C 0.33411 0.34651 0.6691 0.0
N2569 N 0.37932 0.3408 0.68241 0.0
C2570 C 0.42529 0.36289 0.68 0.0
C2571 C 0.42552 0.34849 0.68639 0.0
C2572 C 0.37724 0.36936 0.66908 0.0
C2573 C 0.3322 0.36081 0.66214 0.0
H2574 H 0.29784 0.34016 0.66621 0.0
H2575 H 0.46134 0.34377 0.69648 0.0
C2576 C 0.36009 0.30313 0.80683 0.0
N2577 N 0.33624 0.31471 0.7944 0.0
C2578 C 0.37506 0.30289 0.8379 0.0
C2579 C 0.3399 0.32651 0.84321 0.0
C2580 C 0.32528 0.32626 0.81188 0.0
C2581 C 0.36585 0.31477 0.8564 0.0
H2582 H 0.36985 0.29428 0.79213 0.0
H2583 H 0.30771 0.33549 0.8014 0.0
C2584 C 0.37985 0.31211 0.64836 0.0
N2585 N 0.42187 0.32581 0.59729 0.0
C2586 C 0.34489 0.31697 0.62514 0.0
C2587 C 0.43615 0.31411 0.64559 0.0
C2588 C 0.36696 0.3239 0.59949 0.0
C2589 C 0.4566 0.3211 0.61959 0.0
C2590 C 0.2758 0.28565 0.7425 0.0
C2591 C 0.2719 0.27232 0.72918 0.0
C2592 C 0.23485 0.29037 0.76248 0.0
C2593 C 0.22663 0.26393 0.73589 0.0
C2594 C 0.19023 0.28166 0.76864 0.0
N2595 N 0.18706 0.26874 0.75531 0.0
C2596 C 0.47047 0.28397 0.74407 0.0
C2597 C 0.42882 0.27028 0.70476 0.0
C2598 C 0.49723 0.27219 0.75584 0.0
N2599 N 0.43683 0.28282 0.71913 0.0
C2600 C 0.45477 0.25816 0.71589 0.0
C2601 C 0.48877 0.25899 0.74215 0.0
H2602 H 0.47394 0.29389 0.75607 0.0
H2603 H 0.40015 0.26955 0.68576 0.0
C2604 C 0.19285 0.31286 0.67575 0.0
N2605 N 0.22854 0.30204 0.67878 0.0
C2606 C 0.15048 0.31211 0.65435 0.0
C2607 C 0.18083 0.28883 0.6401 0.0
C2608 C 0.22308 0.29006 0.66185 0.0
C2609 C 0.14502 0.30017 0.63553 0.0
H2610 H 0.19905 0.32243 0.6887 0.0
H2611 H 0.25317 0.28181 0.66397 0.0
O2612 O 0.41103 0.31563 0.73543 0.0
O2613 O 0.29235 0.32474 0.7216 0.0
O2614 O 0.35897 0.30567 0.67403 0.0
O2615 O 0.31939 0.29408 0.73588 0.0
H2616 H 0.39592 0.33879 0.7684 0.0
H2617 H 0.51585 0.31345 0.72164 0.0
H2618 H 0.46918 0.35541 0.78348 0.0
H2619 H 0.58723 0.3305 0.73765 0.0
H2620 H 0.14866 0.33966 0.77954 0.0
H2621 H 0.32871 0.35047 0.73417 0.0
H2622 H 0.1962 0.32144 0.74852 0.0
H2623 H 0.27842 0.36821 0.76485 0.0
H2624 H 0.46109 0.36902 0.68585 0.0
H2625 H 0.29471 0.36524 0.65313 0.0
H2626 H 0.39554 0.2937 0.84703 0.0
H2627 H 0.33165 0.33582 0.85685 0.0
H2628 H 0.30117 0.31553 0.62708 0.0
H2629 H 0.46361 0.31045 0.66352 0.0
H2630 H 0.34042 0.32779 0.58139 0.0
H2631 H 0.50005 0.32281 0.61719 0.0
H2632 H 0.30334 0.26854 0.71365 0.0
H2633 H 0.23756 0.30063 0.77315 0.0
H2634 H 0.22291 0.2536 0.72564 0.0
H2635 H 0.15815 0.28518 0.78402 0.0
H2636 H 0.52225 0.27333 0.77637 0.0
H2637 H 0.44749 0.24822 0.70442 0.0
H2638 H 0.12332 0.32102 0.65178 0.0
H2639 H 0.17809 0.27949 0.62586 0.0
Li2640 Li 0.36028 0.29837 0.03188 0.0
Li2641 Li 0.45628 0.30625 0.04426 0.0
Li2642 Li 0.38496 0.32306 0.0437 0.0
Li2643 Li 0.41355 0.31323 0.99488 0.0
C2644 C 0.36942 0.31211 0.09724 0.0
N2645 N 0.32738 0.32581 0.1483 0.0
C2646 C 0.40437 0.31698 0.12046 0.0
C2647 C 0.31313 0.31411 0.1 0.0
C2648 C 0.38229 0.3239 0.14611 0.0
C2649 C 0.29267 0.3211 0.126 0.0
C2650 C 0.47353 0.28565 0.00311 0.0
C2651 C 0.55912 0.28167 0.97699 0.0
N2652 N 0.56228 0.26874 0.9903 0.0
C2653 C 0.47741 0.27231 0.01641 0.0
C2654 C 0.5145 0.29037 0.98315 0.0
C2655 C 0.52269 0.26393 0.00969 0.0
C2656 C 0.27886 0.28397 0.00152 0.0
N2657 N 0.31248 0.28282 0.02645 0.0
C2658 C 0.29454 0.25816 0.02969 0.0
C2659 C 0.32048 0.27028 0.04082 0.0
C2660 C 0.26054 0.25899 0.00343 0.0
C2661 C 0.25209 0.27219 0.98974 0.0
H2662 H 0.27539 0.29389 0.98951 0.0
H2663 H 0.34914 0.26955 0.05983 0.0
C2664 C 0.55641 0.31287 0.06991 0.0
N2665 N 0.52075 0.30204 0.06684 0.0
C2666 C 0.59877 0.31212 0.09132 0.0
C2667 C 0.56849 0.28883 0.1055 0.0
C2668 C 0.52625 0.29006 0.08375 0.0
C2669 C 0.60426 0.30017 0.11011 0.0
H2670 H 0.55018 0.32245 0.05699 0.0
H2671 H 0.49618 0.28179 0.08161 0.0
C2672 C 0.29852 0.32491 0.00153 0.0
N2673 N 0.21796 0.34366 0.98433 0.0
C2674 C 0.31171 0.33677 0.98398 0.0
C2675 C 0.24433 0.32255 0.01026 0.0
C2676 C 0.27042 0.34614 0.97556 0.0
C2677 C 0.20418 0.33216 0.00132 0.0
C2678 C 0.48334 0.33463 0.0065 0.0
C2679 C 0.46013 0.3479 0.0019 0.0
C2680 C 0.53437 0.33161 0.99363 0.0
C2681 C 0.48841 0.35791 0.9845 0.0
C2682 C 0.56125 0.34188 0.97626 0.0
N2683 N 0.53793 0.35471 0.97212 0.0
C2684 C 0.41519 0.34651 0.0765 0.0
C2685 C 0.32378 0.34849 0.05921 0.0
C2686 C 0.4171 0.36081 0.08346 0.0
N2687 N 0.36998 0.3408 0.06319 0.0
C2688 C 0.32401 0.36289 0.0656 0.0
C2689 C 0.37206 0.36936 0.07652 0.0
H2690 H 0.45147 0.34016 0.0794 0.0
H2691 H 0.28796 0.34377 0.04912 0.0
C2692 C 0.38929 0.30312 0.93877 0.0
N2693 N 0.41312 0.3147 0.95121 0.0
C2694 C 0.37432 0.30289 0.9077 0.0
C2695 C 0.40948 0.3265 0.9024 0.0
C2696 C 0.42408 0.32625 0.93374 0.0
C2697 C 0.38353 0.31476 0.88921 0.0
H2698 H 0.37953 0.29427 0.95346 0.0
H2699 H 0.44165 0.33549 0.94422 0.0
O2700 O 0.39032 0.30567 0.07157 0.0
O2701 O 0.42994 0.29408 0.00973 0.0
O2702 O 0.3383 0.31562 0.01017 0.0
O2703 O 0.45697 0.32474 0.02402 0.0
H2704 H 0.4481 0.31554 0.11853 0.0
H2705 H 0.28568 0.31045 0.08207 0.0
H2706 H 0.40882 0.3278 0.16421 0.0
H2707 H 0.24921 0.32281 0.1284 0.0
H2708 H 0.59122 0.28519 0.96163 0.0
H2709 H 0.44596 0.26853 0.03191 0.0
H2710 H 0.51181 0.30064 0.9725 0.0
H2711 H 0.52639 0.2536 0.01992 0.0
H2712 H 0.30181 0.24822 0.04116 0.0
H2713 H 0.22708 0.27333 0.9692 0.0
H2714 H 0.6259 0.32103 0.09391 0.0
H2715 H 0.57125 0.27948 0.11972 0.0
H2716 H 0.35338 0.33879 0.97718 0.0
H2717 H 0.23349 0.31345 0.02397 0.0
H2718 H 0.28011 0.3554 0.96212 0.0
H2719 H 0.1621 0.33049 0.00797 0.0
H2720 H 0.42059 0.35047 0.01143 0.0
H2721 H 0.55317 0.32145 0.99714 0.0
H2722 H 0.4709 0.3682 0.98077 0.0
H2723 H 0.60073 0.33967 0.96615 0.0
H2724 H 0.45458 0.36524 0.09246 0.0
H2725 H 0.28821 0.36901 0.05974 0.0
H2726 H 0.35385 0.2937 0.89857 0.0
H2727 H 0.41772 0.33582 0.88877 0.0
Li2728 Li 0.38904 0.45596 0.03189 0.0
Li2729 Li 0.29303 0.44808 0.04427 0.0
Li2730 Li 0.36435 0.43127 0.0437 0.0
Li2731 Li 0.33576 0.44109 0.99488 0.0
C2732 C 0.37988 0.44222 0.09725 0.0
N2733 N 0.42192 0.42851 0.1483 0.0
C2734 C 0.34493 0.43735 0.12046 0.0
C2735 C 0.43618 0.44021 0.1 0.0
C2736 C 0.36701 0.43042 0.14611 0.0
C2737 C 0.45664 0.43322 0.126 0.0
C2738 C 0.27577 0.46867 0.0031 0.0
C2739 C 0.19019 0.47264 0.97698 0.0
N2740 N 0.18703 0.48557 0.99027 0.0
C2741 C 0.2719 0.48201 0.01638 0.0
C2742 C 0.2348 0.46394 0.98315 0.0
C2743 C 0.22662 0.4904 0.00965 0.0
C2744 C 0.47046 0.47035 0.00152 0.0
N2745 N 0.43683 0.4715 0.02646 0.0
C2746 C 0.45477 0.49616 0.02969 0.0
C2747 C 0.42882 0.48404 0.04082 0.0
C2748 C 0.48877 0.49533 0.00343 0.0
C2749 C 0.49723 0.48213 0.98975 0.0
H2750 H 0.47393 0.46043 0.98952 0.0
H2751 H 0.40016 0.48478 0.05983 0.0
C2752 C 0.19294 0.44144 0.06994 0.0
N2753 N 0.22856 0.45228 0.06685 0.0
C2754 C 0.15058 0.44219 0.09135 0.0
C2755 C 0.18079 0.4655 0.10549 0.0
C2756 C 0.22303 0.46427 0.08374 0.0
C2757 C 0.14505 0.45415 0.11012 0.0
H2758 H 0.19919 0.43186 0.05704 0.0
H2759 H 0.25306 0.47254 0.08157 0.0
C2760 C 0.45079 0.42941 0.00153 0.0
N2761 N 0.53135 0.41066 0.98433 0.0
C2762 C 0.4376 0.41756 0.98397 0.0
C2763 C 0.50497 0.43177 0.01026 0.0
C2764 C 0.47889 0.40818 0.97555 0.0
C2765 C 0.54513 0.42216 0.00132 0.0
C2766 C 0.26597 0.41969 0.0065 0.0
C2767 C 0.28919 0.40642 0.0019 0.0
C2768 C 0.21492 0.42271 0.99365 0.0
C2769 C 0.26091 0.39641 0.9845 0.0
C2770 C 0.18804 0.41243 0.97629 0.0
N2771 N 0.21137 0.39961 0.97213 0.0
C2772 C 0.33411 0.40782 0.07649 0.0
C2773 C 0.42553 0.40583 0.0592 0.0
C2774 C 0.3322 0.39351 0.08345 0.0
N2775 N 0.37933 0.41352 0.06319 0.0
C2776 C 0.4253 0.39143 0.06559 0.0
C2777 C 0.37724 0.38496 0.07651 0.0
H2778 H 0.29784 0.41416 0.07939 0.0
H2779 H 0.46134 0.41055 0.04911 0.0
C2780 C 0.36004 0.4512 0.93877 0.0
N2781 N 0.33618 0.43962 0.95121 0.0
C2782 C 0.37501 0.45143 0.90771 0.0
C2783 C 0.33981 0.42782 0.9024 0.0
C2784 C 0.3252 0.42807 0.93373 0.0
C2785 C 0.36578 0.43956 0.88921 0.0
H2786 H 0.36982 0.46005 0.95347 0.0
H2787 H 0.30762 0.41884 0.94422 0.0
O2788 O 0.35899 0.44865 0.07157 0.0
O2789 O 0.31937 0.46024 0.00974 0.0
O2790 O 0.41101 0.4387 0.01017 0.0
O2791 O 0.29234 0.42958 0.02402 0.0
H2792 H 0.30121 0.43879 0.11853 0.0
H2793 H 0.46364 0.44387 0.08207 0.0
H2794 H 0.34048 0.42652 0.16421 0.0
H2795 H 0.50009 0.43151 0.1284 0.0
H2796 H 0.15809 0.46911 0.96162 0.0
H2797 H 0.30335 0.48581 0.03188 0.0
H2798 H 0.2375 0.45367 0.97251 0.0
H2799 H 0.22292 0.50073 0.01987 0.0
H2800 H 0.44749 0.50611 0.04116 0.0
H2801 H 0.52224 0.48099 0.96921 0.0
H2802 H 0.12349 0.43327 0.09396 0.0
H2803 H 0.17799 0.47485 0.11969 0.0
H2804 H 0.39593 0.41554 0.97717 0.0
H2805 H 0.51582 0.44087 0.02398 0.0
H2806 H 0.46921 0.39892 0.9621 0.0
H2807 H 0.58721 0.42383 0.00798 0.0
H2808 H 0.32874 0.40386 0.01141 0.0
H2809 H 0.19612 0.43287 0.99718 0.0
H2810 H 0.27842 0.38612 0.98076 0.0
H2811 H 0.14854 0.41464 0.96619 0.0
H2812 H 0.29472 0.38908 0.09246 0.0
H2813 H 0.46109 0.38531 0.05974 0.0
H2814 H 0.3955 0.46062 0.89858 0.0
H2815 H 0.33155 0.41851 0.88876 0.0
loop_
_geom_bond_atom_site_label_1
_geom_bond_atom_site_label_2
_geom_bond_distance
_geom_bond_site_symmetry_2
_ccdc_geom_bond_type
Li0 N17 1.990 1_455 S
Li0 O60 1.956 . S
Li0 O61 1.970 . S
Li0 O62 1.961 . S
Li1 N25 1.990 . S
Li1 O60 1.970 . S
Li1 O61 1.956 . S
Li1 O63 1.961 . S
Li2 N47 1.990 . S
Li2 O60 1.961 . S
Li2 O62 1.956 . S
Li2 O63 1.970 . S
Li3 N53 1.990 . S
Li3 O61 1.961 . S
Li3 O62 1.970 . S
Li3 O63 1.956 . S
C4 C6 1.348 . S
C4 C7 1.356 1_455 S
C4 O60 1.325 . S
N5 C8 1.314 . S
N5 C9 1.279 . S
C6 C4 1.348 . S
C6 C8 1.353 1_455 S
C6 H64 0.929 . S
C7 C4 1.356 1_655 S
C7 C9 1.358 . S
C7 H65 0.930 . S
C8 N5 1.314 . S
C8 C6 1.353 1_655 S
C8 H66 0.930 . S
C9 N5 1.279 . S
C9 C7 1.358 . S
C9 H67 0.930 . S
C10 C13 1.348 . S
C10 C14 1.356 . S
C10 O61 1.325 . S
C11 N12 1.279 . S
C11 C14 1.358 . S
C11 H68 0.930 . S
N12 C11 1.279 . S
N12 C15 1.314 . S
C13 C10 1.348 . S
C13 C15 1.353 . S
C13 H69 0.929 . S
C14 C10 1.356 . S
C14 C11 1.358 . S
C14 H70 0.930 . S
C15 N12 1.314 . S
C15 C13 1.353 . S
C15 H71 0.930 . S
C16 N17 1.314 . S
C16 C21 1.353 . S
C16 H22 0.930 . S
N17 Li0 1.990 1_655 S
N17 C16 1.314 . S
N17 C19 1.279 . S
C18 C19 1.358 . S
C18 C20 1.356 . S
C18 H72 0.930 . S
C19 N17 1.279 . S
C19 C18 1.358 . S
C19 H23 0.930 . S
C20 C18 1.356 . S
C20 C21 1.348 . S
C21 C16 1.353 . S
C21 C20 1.348 . S
C21 H73 0.929 . S
H22 C16 0.930 . S
H23 C19 0.930 . S
C24 N25 1.314 . S
C24 C26 1.353 . S
C24 H30 0.930 . S
N25 Li1 1.990 . S
N25 C24 1.314 . S
N25 C28 1.279 . S
C26 C24 1.353 . S
C26 C29 1.348 . S
C26 H74 0.929 . S
C27 C28 1.358 . S
C27 C29 1.356 . S
C27 H75 0.930 . S
C28 N25 1.279 . S
C28 C27 1.358 . S
C28 H31 0.930 . S
C29 C26 1.348 . S
C29 C27 1.356 . S
H30 C24 0.930 . S
H31 C28 0.930 . S
C32 C34 1.348 . S
C32 C35 1.356 1_455 S
C32 O62 1.325 . S
N33 C36 1.314 1_565 S
N33 C37 1.279 1_465 S
C34 C32 1.348 . S
C34 C36 1.353 . S
C34 H76 0.929 . S
C35 C32 1.356 1_655 S
C35 C37 1.358 . S
C35 H77 0.930 . S
C36 N33 1.314 1_545 S
C36 C34 1.353 . S
C36 H78 0.930 1_545 S
C37 N33 1.279 1_645 S
C37 C35 1.358 . S
C37 H79 0.930 . S
C38 C39 1.348 . S
C38 C40 1.356 . S
C38 O63 1.325 . S
C39 C38 1.348 . S
C39 C41 1.353 . S
C39 H80 0.929 . S
C40 C38 1.356 . S
C40 C42 1.358 . S
C40 H81 0.930 . S
C41 C39 1.353 . S
C41 N43 1.314 . S
C41 H82 0.930 . S
C42 C40 1.358 . S
C42 N43 1.279 . S
C42 H83 0.930 . S
N43 C41 1.314 . S
N43 C42 1.279 . S
C44 C46 1.353 . S
C44 N47 1.314 . S
C44 H50 0.930 . S
C45 N47 1.279 . S
C45 C48 1.358 . S
C45 H51 0.930 . S
C46 C44 1.353 . S
C46 C49 1.348 . S
C46 H84 0.929 . S
N47 Li2 1.990 . S
N47 C44 1.314 . S
N47 C45 1.279 . S
C48 C45 1.358 . S
C48 C49 1.356 . S
C48 H85 0.930 . S
C49 C46 1.348 . S
C49 C48 1.356 . S
H50 C44 0.930 . S
H51 C45 0.930 . S
C52 N53 1.314 . S
C52 C54 1.353 . S
C52 H58 0.930 . S
N53 Li3 1.990 . S
N53 C52 1.314 . S
N53 C56 1.279 . S
C54 C52 1.353 . S
C54 C57 1.348 . S
C54 H86 0.929 . S
C55 C56 1.358 . S
C55 C57 1.356 . S
C55 H87 0.930 . S
C56 N53 1.279 . S
C56 C55 1.358 . S
C56 H59 0.930 . S
C57 C54 1.348 . S
C57 C55 1.356 . S
H58 C52 0.930 . S
H59 C56 0.930 . S
O60 Li0 1.956 . S
O60 Li1 1.970 . S
O60 Li2 1.961 . S
O60 C4 1.325 . S
O61 Li0 1.970 . S
O61 Li1 1.956 . S
O61 Li3 1.961 . S
O61 C10 1.325 . S
O62 Li0 1.961 . S
O62 Li2 1.956 . S
O62 Li3 1.970 . S
O62 C32 1.325 . S
O63 Li1 1.961 . S
O63 Li2 1.970 . S
O63 Li3 1.956 . S
O63 C38 1.325 . S
H64 C6 0.929 . S
H65 C7 0.930 . S
H66 C8 0.930 . S
H67 C9 0.930 . S
H68 C11 0.930 . S
H69 C13 0.929 . S
H70 C14 0.930 . S
H71 C15 0.930 . S
H72 C18 0.930 . S
H73 C21 0.929 . S
H74 C26 0.929 . S
H75 C27 0.930 . S
H76 C34 0.929 . S
H77 C35 0.930 . S
H78 C36 0.930 1_565 S
H79 C37 0.930 . S
H80 C39 0.929 . S
H81 C40 0.930 . S
H82 C41 0.930 . S
H83 C42 0.930 . S
H84 C46 0.929 . S
H85 C48 0.930 . S
H86 C54 0.929 . S
H87 C55 0.930 . S
Li88 N105 1.990 . S
Li88 O148 1.956 . S
Li88 O149 1.970 . S
Li88 O150 1.961 . S
Li89 N113 1.990 . S
Li89 O148 1.970 . S
Li89 O149 1.956 . S
Li89 O151 1.961 . S
Li90 N135 1.990 . S
Li90 O148 1.961 . S
Li90 O150 1.956 . S
Li90 O151 1.970 . S
Li91 N141 1.990 . S
Li91 O149 1.961 . S
Li91 O150 1.970 . S
Li91 O151 1.956 . S
C92 C94 1.348 . S
C92 C95 1.356 . S
C92 O148 1.325 . S
N93 C96 1.314 . S
N93 C97 1.279 . S
C94 C92 1.348 . S
C94 C96 1.353 . S
C94 H152 0.929 . S
C95 C92 1.356 . S
C95 C97 1.358 . S
C95 H153 0.930 . S
C96 N93 1.314 . S
C96 C94 1.353 . S
C96 H154 0.930 . S
C97 N93 1.279 . S
C97 C95 1.358 . S
C97 H155 0.930 . S
C98 C101 1.348 . S
C98 C102 1.356 . S
C98 O149 1.325 . S
C99 N100 1.279 . S
C99 C102 1.358 . S
C99 H156 0.930 . S
N100 C99 1.279 . S
N100 C103 1.314 . S
C101 C98 1.348 . S
C101 C103 1.353 . S
C101 H157 0.929 . S
C102 C98 1.356 . S
C102 C99 1.358 . S
C102 H158 0.930 . S
C103 N100 1.314 . S
C103 C101 1.353 . S
C103 H159 0.930 . S
C104 N105 1.314 . S
C104 C109 1.353 . S
C104 H110 0.930 . S
N105 Li88 1.990 . S
N105 C104 1.314 . S
N105 C107 1.279 . S
C106 C107 1.358 . S
C106 C108 1.356 . S
C106 H160 0.930 . S
C107 N105 1.279 . S
C107 C106 1.358 . S
C107 H111 0.930 . S
C108 C106 1.356 . S
C108 C109 1.348 . S
C109 C104 1.353 . S
C109 C108 1.348 . S
C109 H161 0.929 . S
H110 C104 0.930 . S
H111 C107 0.930 . S
C112 N113 1.314 . S
C112 C114 1.353 . S
C112 H118 0.930 . S
N113 Li89 1.990 . S
N113 C112 1.314 . S
N113 C116 1.279 . S
C114 C112 1.353 . S
C114 C117 1.348 . S
C114 H162 0.929 . S
C115 C116 1.358 . S
C115 C117 1.356 . S
C115 H163 0.930 . S
C116 N113 1.279 . S
C116 C115 1.358 . S
C116 H119 0.930 . S
C117 C114 1.348 . S
C117 C115 1.356 . S
H118 C112 0.930 . S
H119 C116 0.930 . S
C120 C122 1.348 . S
C120 C123 1.356 . S
C120 O150 1.325 . S
N121 C124 1.314 . S
N121 C125 1.279 . S
C122 C120 1.348 . S
C122 C124 1.353 . S
C122 H164 0.929 . S
C123 C120 1.356 . S
C123 C125 1.358 . S
C123 H165 0.930 . S
C124 N121 1.314 . S
C124 C122 1.353 . S
C124 H166 0.930 . S
C125 N121 1.279 . S
C125 C123 1.358 . S
C125 H167 0.930 . S
C126 C127 1.348 . S
C126 C128 1.356 . S
C126 O151 1.325 . S
C127 C126 1.348 . S
C127 C129 1.353 1_455 S
C127 H168 0.929 . S
C128 C126 1.356 . S
C128 C130 1.358 1_455 S
C128 H169 0.930 . S
C129 C127 1.353 1_655 S
C129 N131 1.314 . S
C129 H170 0.930 . S
C130 C128 1.358 1_655 S
C130 N131 1.279 . S
C130 H171 0.930 . S
N131 C129 1.314 . S
N131 C130 1.279 . S
C132 C134 1.353 . S
C132 N135 1.314 . S
C132 H138 0.930 . S
C133 N135 1.279 . S
C133 C136 1.358 . S
C133 H139 0.930 . S
C134 C132 1.353 . S
C134 C137 1.348 . S
C134 H172 0.929 . S
N135 Li90 1.990 . S
N135 C132 1.314 . S
N135 C133 1.279 . S
C136 C133 1.358 . S
C136 C137 1.356 . S
C136 H173 0.930 . S
C137 C134 1.348 . S
C137 C136 1.356 . S
H138 C132 0.930 . S
H139 C133 0.930 . S
C140 N141 1.314 . S
C140 C142 1.353 . S
C140 H146 0.930 . S
N141 Li91 1.990 . S
N141 C140 1.314 . S
N141 C144 1.279 . S
C142 C140 1.353 . S
C142 C145 1.348 1_455 S
C142 H174 0.929 . S
C143 C144 1.358 1_655 S
C143 C145 1.356 . S
C143 H175 0.930 . S
C144 N141 1.279 . S
C144 C143 1.358 1_455 S
C144 H147 0.932 . S
C145 C142 1.348 1_655 S
C145 C143 1.356 . S
H146 C140 0.930 . S
H147 C144 0.932 . S
O148 Li88 1.956 . S
O148 Li89 1.970 . S
O148 Li90 1.961 . S
O148 C92 1.325 . S
O149 Li88 1.970 . S
O149 Li89 1.956 . S
O149 Li91 1.961 . S
O149 C98 1.325 . S
O150 Li88 1.961 . S
O150 Li90 1.956 . S
O150 Li91 1.970 . S
O150 C120 1.325 . S
O151 Li89 1.961 . S
O151 Li90 1.970 . S
O151 Li91 1.956 . S
O151 C126 1.325 . S
H152 C94 0.929 . S
H153 C95 0.930 . S
H154 C96 0.930 . S
H155 C97 0.930 . S
H156 C99 0.930 . S
H157 C101 0.929 . S
H158 C102 0.930 . S
H159 C103 0.930 . S
H160 C106 0.930 . S
H161 C109 0.929 . S
H162 C114 0.929 . S
H163 C115 0.930 . S
H164 C122 0.929 . S
H165 C123 0.930 . S
H166 C124 0.930 . S
H167 C125 0.930 . S
H168 C127 0.929 . S
H169 C128 0.930 . S
H170 C129 0.930 . S
H171 C130 0.930 . S
H172 C134 0.929 . S
H173 C136 0.930 . S
H174 C142 0.929 . S
H175 C143 0.930 . S
Li176 N193 1.990 . S
Li176 O236 1.956 1_554 S
Li176 O237 1.970 . S
Li176 O238 1.961 1_554 S
Li177 N201 1.990 . S
Li177 O236 1.970 . S
Li177 O237 1.956 1_556 S
Li177 O239 1.961 . S
Li178 N223 1.990 1_455 S
Li178 O236 1.961 . S
Li178 O238 1.956 . S
Li178 O239 1.970 . S
Li179 N229 1.990 . S
Li179 O237 1.961 1_556 S
Li179 O238 1.970 . S
Li179 O239 1.956 . S
C180 C182 1.348 1_556 S
C180 C183 1.356 1_456 S
C180 O236 1.325 . S
N181 C184 1.314 . S
N181 C185 1.279 1_455 S
C182 C180 1.348 1_554 S
C182 C184 1.353 . S
C182 H240 0.928 1_554 S
C183 C180 1.356 1_654 S
C183 C185 1.358 . S
C183 H241 0.930 . S
C184 N181 1.314 . S
C184 C182 1.353 . S
C184 H242 0.930 . S
C185 N181 1.279 1_655 S
C185 C183 1.358 . S
C185 H243 0.930 . S
C186 C189 1.348 . S
C186 C190 1.356 . S
C186 O237 1.325 . S
C187 N188 1.279 . S
C187 C190 1.358 . S
C187 H244 0.930 . S
N188 C187 1.279 . S
N188 C191 1.314 . S
C189 C186 1.348 . S
C189 C191 1.353 . S
C189 H245 0.929 . S
C190 C186 1.356 . S
C190 C187 1.358 . S
C190 H246 0.930 1_554 S
C191 N188 1.314 . S
C191 C189 1.353 . S
C191 H247 0.930 . S
C192 N193 1.314 . S
C192 C197 1.353 . S
C192 H198 0.930 . S
N193 Li176 1.990 . S
N193 C192 1.314 . S
N193 C195 1.279 . S
C194 C195 1.358 . S
C194 C196 1.356 . S
C194 H248 0.930 . S
C195 N193 1.279 . S
C195 C194 1.358 . S
C195 H199 0.930 . S
C196 C194 1.356 . S
C196 C197 1.348 . S
C197 C192 1.353 . S
C197 C196 1.348 . S
C197 H249 0.929 . S
H198 C192 0.930 . S
H199 C195 0.930 . S
C200 N201 1.314 . S
C200 C202 1.353 . S
C200 H206 0.930 . S
N201 Li177 1.990 . S
N201 C200 1.314 . S
N201 C204 1.279 . S
C202 C200 1.353 . S
C202 C205 1.348 . S
C202 H250 0.929 . S
C203 C204 1.358 . S
C203 C205 1.356 . S
C203 H251 0.930 . S
C204 N201 1.279 . S
C204 C203 1.358 . S
C204 H207 0.930 . S
C205 C202 1.348 . S
C205 C203 1.356 . S
H206 C200 0.930 . S
H207 C204 0.930 . S
C208 C210 1.346 1_554 S
C208 C211 1.358 1_455 S
C208 O238 1.324 1_554 S
N209 C212 1.314 1_554 S
N209 C213 1.279 . S
C210 C208 1.346 1_556 S
C210 C212 1.353 1_455 S
C210 H252 0.929 . S
C211 C208 1.358 1_655 S
C211 C213 1.358 . S
C211 H253 0.930 . S
C212 N209 1.314 1_556 S
C212 C210 1.353 1_655 S
C212 H254 0.930 . S
C213 N209 1.279 . S
C213 C211 1.358 . S
C213 H255 0.930 . S
C214 C215 1.348 . S
C214 C216 1.356 . S
C214 O239 1.325 . S
C215 C214 1.348 . S
C215 C217 1.353 . S
C215 H256 0.929 . S
C216 C214 1.356 . S
C216 C218 1.358 . S
C216 H257 0.930 . S
C217 C215 1.353 . S
C217 N219 1.314 . S
C217 H258 0.930 . S
C218 C216 1.358 . S
C218 N219 1.279 . S
C218 H259 0.930 . S
N219 C217 1.314 . S
N219 C218 1.279 . S
C220 C222 1.353 . S
C220 N223 1.314 . S
C220 H226 0.930 . S
C221 N223 1.279 . S
C221 C224 1.358 . S
C221 H227 0.930 . S
C222 C220 1.353 . S
C222 C225 1.348 . S
C222 H260 0.929 . S
N223 Li178 1.990 1_655 S
N223 C220 1.314 . S
N223 C221 1.279 . S
C224 C221 1.358 . S
C224 C225 1.356 . S
C224 H261 0.930 . S
C225 C222 1.348 . S
C225 C224 1.356 . S
H226 C220 0.930 . S
H227 C221 0.930 . S
C228 N229 1.314 . S
C228 C230 1.353 . S
C228 H234 0.930 1_556 S
N229 Li179 1.990 . S
N229 C228 1.314 . S
N229 C232 1.279 . S
C230 C228 1.353 . S
C230 C233 1.348 . S
C230 H262 0.929 . S
C231 C232 1.358 . S
C231 C233 1.356 . S
C231 H263 0.930 . S
C232 N229 1.279 . S
C232 C231 1.358 . S
C232 H235 0.930 . S
C233 C230 1.348 . S
C233 C231 1.356 . S
H234 C228 0.930 1_554 S
H235 C232 0.930 . S
O236 Li176 1.956 1_556 S
O236 Li177 1.970 . S
O236 Li178 1.961 . S
O236 C180 1.325 . S
O237 Li176 1.970 . S
O237 Li177 1.956 1_554 S
O237 Li179 1.961 1_554 S
O237 C186 1.325 . S
O238 Li176 1.961 1_556 S
O238 Li178 1.956 . S
O238 Li179 1.970 . S
O238 C208 1.324 1_556 S
O239 Li177 1.961 . S
O239 Li178 1.970 . S
O239 Li179 1.956 . S
O239 C214 1.325 . S
H240 C182 0.928 1_556 S
H241 C183 0.930 . S
H242 C184 0.930 . S
H243 C185 0.930 . S
H244 C187 0.930 . S
H245 C189 0.929 . S
H246 C190 0.930 1_556 S
H247 C191 0.930 . S
H248 C194 0.930 . S
H249 C197 0.929 . S
H250 C202 0.929 . S
H251 C203 0.930 . S
H252 C210 0.929 . S
H253 C211 0.930 . S
H254 C212 0.930 . S
H255 C213 0.930 . S
H256 C215 0.929 . S
H257 C216 0.930 . S
H258 C217 0.930 . S
H259 C218 0.930 . S
H260 C222 0.929 . S
H261 C224 0.930 . S
H262 C230 0.929 . S
H263 C231 0.930 . S
Li264 N281 1.990 . S
Li264 O324 1.956 1_554 S
Li264 O325 1.970 . S
Li264 O326 1.961 1_554 S
Li265 N289 1.990 . S
Li265 O324 1.970 . S
Li265 O325 1.956 1_556 S
Li265 O327 1.961 . S
Li266 N311 1.990 . S
Li266 O324 1.961 . S
Li266 O326 1.956 . S
Li266 O327 1.970 . S
Li267 N317 1.990 . S
Li267 O325 1.961 1_556 S
Li267 O326 1.970 . S
Li267 O327 1.956 . S
C268 C270 1.348 1_556 S
C268 C271 1.356 1_556 S
C268 O324 1.325 . S
N269 C272 1.314 1_565 S
N269 C273 1.279 1_565 S
C270 C268 1.348 1_554 S
C270 C272 1.353 . S
C270 H328 0.928 1_554 S
C271 C268 1.356 1_554 S
C271 C273 1.358 . S
C271 H329 0.930 . S
C272 N269 1.314 1_545 S
C272 C270 1.353 . S
C272 H330 0.930 1_545 S
C273 N269 1.279 1_545 S
C273 C271 1.358 . S
C273 H331 0.930 . S
C274 C277 1.348 . S
C274 C278 1.356 . S
C274 O325 1.325 . S
C275 N276 1.279 . S
C275 C278 1.358 1_655 S
C275 H332 0.930 . S
N276 C275 1.279 . S
N276 C279 1.314 . S
C277 C274 1.348 . S
C277 C279 1.353 1_455 S
C277 H333 0.929 . S
C278 C274 1.356 . S
C278 C275 1.358 1_455 S
C278 H334 0.930 1_554 S
C279 N276 1.314 . S
C279 C277 1.353 1_655 S
C279 H335 0.930 . S
C280 N281 1.314 . S
C280 C285 1.353 . S
C280 H286 0.930 . S
N281 Li264 1.990 . S
N281 C280 1.314 . S
N281 C283 1.279 . S
C282 C283 1.358 . S
C282 C284 1.356 . S
C282 H336 0.930 . S
C283 N281 1.279 . S
C283 C282 1.358 . S
C283 H287 0.930 . S
C284 C282 1.356 . S
C284 C285 1.348 . S
C285 C280 1.353 . S
C285 C284 1.348 . S
C285 H337 0.929 . S
H286 C280 0.930 . S
H287 C283 0.930 . S
C288 N289 1.314 . S
C288 C290 1.353 . S
C288 H294 0.930 . S
N289 Li265 1.990 . S
N289 C288 1.314 . S
N289 C292 1.279 . S
C290 C288 1.353 . S
C290 C293 1.348 1_455 S
C290 H338 0.929 . S
C291 C292 1.358 1_655 S
C291 C293 1.356 . S
C291 H339 0.930 . S
C292 N289 1.279 . S
C292 C291 1.358 1_455 S
C292 H295 0.932 . S
C293 C290 1.348 1_655 S
C293 C291 1.356 . S
H294 C288 0.930 . S
H295 C292 0.932 . S
C296 C298 1.346 1_554 S
C296 C299 1.358 . S
C296 O326 1.324 1_554 S
N297 C300 1.314 1_554 S
N297 C301 1.279 . S
C298 C296 1.346 1_556 S
C298 C300 1.353 . S
C298 H340 0.929 . S
C299 C296 1.358 . S
C299 C301 1.358 . S
C299 H341 0.930 . S
C300 N297 1.314 1_556 S
C300 C298 1.353 . S
C300 H342 0.930 . S
C301 N297 1.279 . S
C301 C299 1.358 . S
C301 H343 0.930 . S
C302 C303 1.348 . S
C302 C304 1.356 . S
C302 O327 1.325 . S
C303 C302 1.348 . S
C303 C305 1.353 . S
C303 H344 0.929 . S
C304 C302 1.356 . S
C304 C306 1.358 . S
C304 H345 0.930 . S
C305 C303 1.353 . S
C305 N307 1.314 . S
C305 H346 0.930 . S
C306 C304 1.358 . S
C306 N307 1.279 . S
C306 H347 0.930 . S
N307 C305 1.314 . S
N307 C306 1.279 . S
C308 C310 1.353 . S
C308 N311 1.314 . S
C308 H314 0.930 . S
C309 N311 1.279 . S
C309 C312 1.358 . S
C309 H315 0.930 . S
C310 C308 1.353 . S
C310 C313 1.348 . S
C310 H348 0.929 . S
N311 Li266 1.990 . S
N311 C308 1.314 . S
N311 C309 1.279 . S
C312 C309 1.358 . S
C312 C313 1.356 . S
C312 H349 0.930 . S
C313 C310 1.348 . S
C313 C312 1.356 . S
H314 C308 0.930 . S
H315 C309 0.930 . S
C316 N317 1.314 . S
C316 C318 1.353 . S
C316 H322 0.930 1_556 S
N317 Li267 1.990 . S
N317 C316 1.314 . S
N317 C320 1.279 . S
C318 C316 1.353 . S
C318 C321 1.348 . S
C318 H350 0.929 . S
C319 C320 1.358 . S
C319 C321 1.356 . S
C319 H351 0.930 . S
C320 N317 1.279 . S
C320 C319 1.358 . S
C320 H323 0.930 . S
C321 C318 1.348 . S
C321 C319 1.356 . S
H322 C316 0.930 1_554 S
H323 C320 0.930 . S
O324 Li264 1.956 1_556 S
O324 Li265 1.970 . S
O324 Li266 1.961 . S
O324 C268 1.325 . S
O325 Li264 1.970 . S
O325 Li265 1.956 1_554 S
O325 Li267 1.961 1_554 S
O325 C274 1.325 . S
O326 Li264 1.961 1_556 S
O326 Li266 1.956 . S
O326 Li267 1.970 . S
O326 C296 1.324 1_556 S
O327 Li265 1.961 . S
O327 Li266 1.970 . S
O327 Li267 1.956 . S
O327 C302 1.325 . S
H328 C270 0.928 1_556 S
H329 C271 0.930 . S
H330 C272 0.930 1_565 S
H331 C273 0.930 . S
H332 C275 0.930 . S
H333 C277 0.929 . S
H334 C278 0.930 1_556 S
H335 C279 0.930 . S
H336 C282 0.930 . S
H337 C285 0.929 . S
H338 C290 0.929 . S
H339 C291 0.930 . S
H340 C298 0.929 . S
H341 C299 0.930 . S
H342 C300 0.930 . S
H343 C301 0.930 . S
H344 C303 0.929 . S
H345 C304 0.930 . S
H346 C305 0.930 . S
H347 C306 0.930 . S
H348 C310 0.929 . S
H349 C312 0.930 . S
H350 C318 0.929 . S
H351 C319 0.930 . S
Li352 N369 1.990 . S
Li352 O412 1.956 . S
Li352 O413 1.970 . S
Li352 O414 1.961 . S
Li353 N377 1.990 . S
Li353 O412 1.970 . S
Li353 O413 1.956 . S
Li353 O415 1.961 . S
Li354 N399 1.990 1_655 S
Li354 O412 1.961 . S
Li354 O414 1.956 . S
Li354 O415 1.970 . S
Li355 N405 1.990 . S
Li355 O413 1.961 . S
Li355 O414 1.970 . S
Li355 O415 1.956 . S
C356 C358 1.348 . S
C356 C359 1.356 1_655 S
C356 O412 1.325 . S
N357 C360 1.314 . S
N357 C361 1.279 . S
C358 C356 1.348 . S
C358 C360 1.353 1_655 S
C358 H416 0.929 . S
C359 C356 1.356 1_455 S
C359 C361 1.358 . S
C359 H417 0.930 . S
C360 N357 1.314 . S
C360 C358 1.353 1_455 S
C360 H418 0.930 . S
C361 N357 1.279 . S
C361 C359 1.358 . S
C361 H419 0.930 . S
C362 C365 1.348 . S
C362 C366 1.356 . S
C362 O413 1.325 . S
C363 N364 1.279 . S
C363 C366 1.358 . S
C363 H420 0.930 . S
N364 C363 1.279 . S
N364 C367 1.314 . S
C365 C362 1.348 . S
C365 C367 1.353 . S
C365 H421 0.929 . S
C366 C362 1.356 . S
C366 C363 1.358 . S
C366 H422 0.930 . S
C367 N364 1.314 . S
C367 C365 1.353 . S
C367 H423 0.930 . S
C368 N369 1.314 . S
C368 C373 1.353 . S
C368 H374 0.930 . S
N369 Li352 1.990 . S
N369 C368 1.314 . S
N369 C371 1.279 . S
C370 C371 1.358 . S
C370 C372 1.356 . S
C370 H424 0.930 . S
C371 N369 1.279 . S
C371 C370 1.358 . S
C371 H375 0.930 . S
C372 C370 1.356 . S
C372 C373 1.348 . S
C373 C368 1.353 . S
C373 C372 1.348 . S
C373 H425 0.929 . S
H374 C368 0.930 . S
H375 C371 0.930 . S
C376 N377 1.314 . S
C376 C378 1.353 . S
C376 H382 0.930 . S
N377 Li353 1.990 . S
N377 C376 1.314 . S
N377 C380 1.279 . S
C378 C376 1.353 . S
C378 C381 1.348 . S
C378 H426 0.929 . S
C379 C380 1.358 . S
C379 C381 1.356 . S
C379 H427 0.930 . S
C380 N377 1.279 . S
C380 C379 1.358 . S
C380 H383 0.930 . S
C381 C378 1.348 . S
C381 C379 1.356 . S
H382 C376 0.930 . S
H383 C380 0.930 . S
C384 C386 1.348 . S
C384 C387 1.356 . S
C384 O414 1.325 . S
N385 C388 1.305 1_545 S
N385 C389 1.279 1_645 S
C386 C384 1.348 . S
C386 C388 1.414 . S
C386 H428 0.929 . S
C387 C384 1.356 . S
C387 C389 1.358 1_655 S
C387 H429 0.930 1_655 S
C388 N385 1.305 1_565 S
C388 C386 1.414 . S
C388 H430 0.874 1_565 S
C389 N385 1.279 1_465 S
C389 C387 1.358 1_455 S
C389 H431 0.930 . S
C390 C391 1.348 . S
C390 C392 1.356 . S
C390 O415 1.325 . S
C391 C390 1.348 . S
C391 C393 1.353 . S
C391 H432 0.929 . S
C392 C390 1.356 . S
C392 C394 1.358 . S
C392 H433 0.930 . S
C393 C391 1.353 . S
C393 N395 1.314 . S
C393 H434 0.930 . S
C394 C392 1.358 . S
C394 N395 1.279 . S
C394 H435 0.930 . S
N395 C393 1.314 . S
N395 C394 1.279 . S
C396 C398 1.353 . S
C396 N399 1.314 . S
C396 H402 0.930 . S
C397 N399 1.279 . S
C397 C400 1.358 . S
C397 H403 0.930 . S
C398 C396 1.353 . S
C398 C401 1.348 . S
C398 H436 0.929 . S
N399 Li354 1.990 1_455 S
N399 C396 1.314 . S
N399 C397 1.279 . S
C400 C397 1.358 . S
C400 C401 1.356 . S
C400 H437 0.930 . S
C401 C398 1.348 . S
C401 C400 1.356 . S
H402 C396 0.930 . S
H403 C397 0.930 . S
C404 N405 1.314 . S
C404 C406 1.353 . S
C404 H410 0.930 . S
N405 Li355 1.990 . S
N405 C404 1.314 . S
N405 C408 1.279 . S
C406 C404 1.353 . S
C406 C409 1.348 . S
C406 H438 0.929 . S
C407 C408 1.358 . S
C407 C409 1.356 . S
C407 H439 0.930 . S
C408 N405 1.279 . S
C408 C407 1.358 . S
C408 H411 0.930 . S
C409 C406 1.348 . S
C409 C407 1.356 . S
H410 C404 0.930 . S
H411 C408 0.930 . S
O412 Li352 1.956 . S
O412 Li353 1.970 . S
O412 Li354 1.961 . S
O412 C356 1.325 . S
O413 Li352 1.970 . S
O413 Li353 1.956 . S
O413 Li355 1.961 . S
O413 C362 1.325 . S
O414 Li352 1.961 . S
O414 Li354 1.956 . S
O414 Li355 1.970 . S
O414 C384 1.325 . S
O415 Li353 1.961 . S
O415 Li354 1.970 . S
O415 Li355 1.956 . S
O415 C390 1.325 . S
H416 C358 0.929 . S
H417 C359 0.930 . S
H418 C360 0.930 . S
H419 C361 0.930 . S
H420 C363 0.930 . S
H421 C365 0.929 . S
H422 C366 0.930 . S
H423 C367 0.930 . S
H424 C370 0.930 . S
H425 C373 0.929 . S
H426 C378 0.929 . S
H427 C379 0.930 . S
H428 C386 0.929 . S
H429 C387 0.930 1_455 S
H430 C388 0.874 1_545 S
H431 C389 0.930 . S
H432 C391 0.929 . S
H433 C392 0.930 . S
H434 C393 0.930 . S
H435 C394 0.930 . S
H436 C398 0.929 . S
H437 C400 0.930 . S
H438 C406 0.929 . S
H439 C407 0.930 . S
Li440 N457 1.990 . S
Li440 O500 1.956 . S
Li440 O501 1.970 . S
Li440 O502 1.961 . S
Li441 N465 1.990 . S
Li441 O500 1.970 . S
Li441 O501 1.956 . S
Li441 O503 1.961 . S
Li442 N487 1.990 . S
Li442 O500 1.961 . S
Li442 O502 1.956 . S
Li442 O503 1.970 . S
Li443 N493 1.990 . S
Li443 O501 1.961 . S
Li443 O502 1.970 . S
Li443 O503 1.956 . S
C444 C446 1.348 . S
C444 C447 1.363 . S
C444 O500 1.325 . S
N445 C448 1.314 1_455 S
N445 C449 1.279 . S
C446 C444 1.348 . S
C446 C448 1.353 . S
C446 H504 0.929 . S
C447 C444 1.363 . S
C447 C449 1.353 1_655 S
C447 H505 0.929 1_655 S
C448 N445 1.314 1_655 S
C448 C446 1.353 . S
C448 H506 0.930 . S
C449 N445 1.279 . S
C449 C447 1.353 1_455 S
C449 H507 0.930 . S
C450 C453 1.348 . S
C450 C454 1.356 . S
C450 O501 1.325 . S
C451 N452 1.279 . S
C451 C454 1.358 . S
C451 H508 0.930 . S
N452 C451 1.279 . S
N452 C455 1.314 . S
C453 C450 1.348 . S
C453 C455 1.353 . S
C453 H509 0.929 . S
C454 C450 1.356 . S
C454 C451 1.358 . S
C454 H510 0.930 . S
C455 N452 1.314 . S
C455 C453 1.353 . S
C455 H511 0.930 . S
C456 N457 1.314 . S
C456 C461 1.353 . S
C456 H462 0.930 . S
N457 Li440 1.990 . S
N457 C456 1.314 . S
N457 C459 1.279 . S
C458 C459 1.358 . S
C458 C460 1.356 . S
C458 H512 0.930 . S
C459 N457 1.279 . S
C459 C458 1.358 . S
C459 H463 0.930 . S
C460 C458 1.356 . S
C460 C461 1.348 . S
C461 C456 1.353 . S
C461 C460 1.348 . S
C461 H513 0.929 . S
H462 C456 0.930 . S
H463 C459 0.930 . S
C464 N465 1.314 . S
C464 C466 1.353 . S
C464 H470 0.930 . S
N465 Li441 1.990 . S
N465 C464 1.314 . S
N465 C468 1.279 . S
C466 C464 1.353 . S
C466 C469 1.348 . S
C466 H514 0.929 . S
C467 C468 1.358 . S
C467 C469 1.356 . S
C467 H515 0.930 . S
C468 N465 1.279 . S
C468 C467 1.358 . S
C468 H471 0.930 . S
C469 C466 1.348 . S
C469 C467 1.356 . S
H470 C464 0.930 . S
H471 C468 0.930 . S
C472 C474 1.348 . S
C472 C475 1.356 . S
C472 O502 1.325 . S
N473 C476 1.314 . S
N473 C477 1.279 . S
C474 C472 1.348 . S
C474 C476 1.353 . S
C474 H516 0.929 . S
C475 C472 1.356 . S
C475 C477 1.358 . S
C475 H517 0.930 . S
C476 N473 1.314 . S
C476 C474 1.353 . S
C476 H518 0.930 . S
C477 N473 1.279 . S
C477 C475 1.358 . S
C477 H519 0.930 . S
C478 C479 1.348 . S
C478 C480 1.356 . S
C478 O503 1.325 . S
C479 C478 1.348 . S
C479 C481 1.353 . S
C479 H520 0.929 . S
C480 C478 1.356 . S
C480 C482 1.358 . S
C480 H521 0.930 . S
C481 C479 1.353 . S
C481 N483 1.314 . S
C481 H522 0.930 . S
C482 C480 1.358 . S
C482 N483 1.279 . S
C482 H523 0.930 . S
N483 C481 1.314 . S
N483 C482 1.279 . S
C484 C486 1.353 1_655 S
C484 N487 1.314 . S
C484 H490 0.930 . S
C485 N487 1.279 . S
C485 C488 1.358 . S
C485 H491 0.930 . S
C486 C484 1.353 1_455 S
C486 C489 1.348 . S
C486 H524 0.929 . S
N487 Li442 1.990 . S
N487 C484 1.314 . S
N487 C485 1.279 . S
C488 C485 1.358 . S
C488 C489 1.356 1_655 S
C488 H525 0.930 1_655 S
C489 C486 1.348 . S
C489 C488 1.356 1_455 S
H490 C484 0.930 . S
H491 C485 0.930 . S
C492 N493 1.314 . S
C492 C494 1.353 . S
C492 H498 0.930 . S
N493 Li443 1.990 . S
N493 C492 1.314 . S
N493 C496 1.279 . S
C494 C492 1.353 . S
C494 C497 1.348 . S
C494 H526 0.929 . S
C495 C496 1.358 . S
C495 C497 1.356 . S
C495 H527 0.930 . S
C496 N493 1.279 . S
C496 C495 1.358 . S
C496 H499 0.930 . S
C497 C494 1.348 . S
C497 C495 1.356 . S
H498 C492 0.930 . S
H499 C496 0.930 . S
O500 Li440 1.956 . S
O500 Li441 1.970 . S
O500 Li442 1.961 . S
O500 C444 1.325 . S
O501 Li440 1.970 . S
O501 Li441 1.956 . S
O501 Li443 1.961 . S
O501 C450 1.325 . S
O502 Li440 1.961 . S
O502 Li442 1.956 . S
O502 Li443 1.970 . S
O502 C472 1.325 . S
O503 Li441 1.961 . S
O503 Li442 1.970 . S
O503 Li443 1.956 . S
O503 C478 1.325 . S
H504 C446 0.929 . S
H505 C447 0.929 1_455 S
H506 C448 0.930 . S
H507 C449 0.930 . S
H508 C451 0.930 . S
H509 C453 0.929 . S
H510 C454 0.930 . S
H511 C455 0.930 . S
H512 C458 0.930 . S
H513 C461 0.929 . S
H514 C466 0.929 . S
H515 C467 0.930 . S
H516 C474 0.929 . S
H517 C475 0.930 . S
H518 C476 0.930 . S
H519 C477 0.930 . S
H520 C479 0.929 . S
H521 C480 0.930 . S
H522 C481 0.930 . S
H523 C482 0.930 . S
H524 C486 0.929 . S
H525 C488 0.930 1_455 S
H526 C494 0.929 . S
H527 C495 0.930 . S
Li528 N545 1.990 1_655 S
Li528 O588 1.956 . S
Li528 O589 1.970 . S
Li528 O590 1.961 . S
Li529 N553 1.990 . S
Li529 O588 1.970 . S
Li529 O589 1.956 . S
Li529 O591 1.961 1_554 S
Li530 N575 1.990 . S
Li530 O588 1.961 1_556 S
Li530 O590 1.956 1_556 S
Li530 O591 1.970 . S
Li531 N581 1.990 . S
Li531 O589 1.961 . S
Li531 O590 1.970 . S
Li531 O591 1.956 1_554 S
C532 C534 1.348 . S
C532 C535 1.356 1_554 S
C532 O588 1.325 . S
N533 C536 1.314 1_556 S
N533 C537 1.279 1_655 S
C534 C532 1.348 . S
C534 C536 1.353 . S
C534 H592 0.929 . S
C535 C532 1.356 1_556 S
C535 C537 1.358 1_655 S
C535 H593 0.930 1_655 S
C536 N533 1.314 1_554 S
C536 C534 1.353 . S
C536 H594 0.930 . S
C537 N533 1.279 1_455 S
C537 C535 1.358 1_455 S
C537 H595 0.930 . S
C538 C541 1.348 . S
C538 C542 1.356 . S
C538 O589 1.325 . S
C539 N540 1.279 . S
C539 C542 1.358 . S
C539 H596 0.930 . S
N540 C539 1.279 . S
N540 C543 1.314 . S
C541 C538 1.348 . S
C541 C543 1.353 . S
C541 H597 0.929 . S
C542 C538 1.356 . S
C542 C539 1.358 . S
C542 H598 0.930 . S
C543 N540 1.314 . S
C543 C541 1.353 . S
C543 H599 0.930 . S
C544 N545 1.314 . S
C544 C549 1.353 . S
C544 H550 0.930 . S
N545 Li528 1.990 1_455 S
N545 C544 1.314 . S
N545 C547 1.279 . S
C546 C547 1.358 . S
C546 C548 1.356 . S
C546 H600 0.930 . S
C547 N545 1.279 . S
C547 C546 1.358 . S
C547 H551 0.930 . S
C548 C546 1.356 . S
C548 C549 1.348 . S
C549 C544 1.353 . S
C549 C548 1.348 . S
C549 H601 0.929 . S
H550 C544 0.930 . S
H551 C547 0.930 . S
C552 N553 1.314 . S
C552 C554 1.353 . S
C552 H558 0.930 1_554 S
N553 Li529 1.990 . S
N553 C552 1.314 . S
N553 C556 1.279 . S
C554 C552 1.353 . S
C554 C557 1.348 . S
C554 H602 0.929 . S
C555 C556 1.358 . S
C555 C557 1.356 . S
C555 H603 0.930 . S
C556 N553 1.279 . S
C556 C555 1.358 . S
C556 H559 0.930 . S
C557 C554 1.348 . S
C557 C555 1.356 . S
H558 C552 0.930 1_556 S
H559 C556 0.930 . S
C560 C562 1.346 1_554 S
C560 C563 1.354 1_654 S
C560 O590 1.327 . S
N561 C564 1.314 . S
N561 C565 1.279 . S
C562 C560 1.346 1_556 S
C562 C564 1.353 1_655 S
C562 H604 0.929 . S
C563 C560 1.354 1_456 S
C563 C565 1.358 . S
C563 H605 0.930 . S
C564 N561 1.314 . S
C564 C562 1.353 1_455 S
C564 H606 0.930 . S
C565 N561 1.279 . S
C565 C563 1.358 . S
C565 H607 0.930 . S
C566 C567 1.348 . S
C566 C568 1.356 . S
C566 O591 1.325 . S
C567 C566 1.348 . S
C567 C569 1.353 . S
C567 H608 0.929 . S
C568 C566 1.356 . S
C568 C570 1.358 . S
C568 H609 0.930 1_556 S
C569 C567 1.353 . S
C569 N571 1.314 . S
C569 H610 0.930 . S
C570 C568 1.358 . S
C570 N571 1.279 . S
C570 H611 0.930 . S
N571 C569 1.314 . S
N571 C570 1.279 . S
C572 C574 1.353 . S
C572 N575 1.314 . S
C572 H578 0.930 . S
C573 N575 1.279 . S
C573 C576 1.358 . S
C573 H579 0.930 . S
C574 C572 1.353 . S
C574 C577 1.348 . S
C574 H612 0.929 . S
N575 Li530 1.990 . S
N575 C572 1.314 . S
N575 C573 1.279 . S
C576 C573 1.358 . S
C576 C577 1.356 . S
C576 H613 0.930 . S
C577 C574 1.348 . S
C577 C576 1.356 . S
H578 C572 0.930 . S
H579 C573 0.930 . S
C580 N581 1.314 . S
C580 C582 1.353 . S
C580 H586 0.930 . S
N581 Li531 1.990 . S
N581 C580 1.314 . S
N581 C584 1.279 . S
C582 C580 1.353 . S
C582 C585 1.348 . S
C582 H614 0.929 . S
C583 C584 1.358 . S
C583 C585 1.356 . S
C583 H615 0.930 . S
C584 N581 1.279 . S
C584 C583 1.358 . S
C584 H587 0.941 . S
C585 C582 1.348 . S
C585 C583 1.356 . S
H586 C580 0.930 . S
H587 C584 0.941 . S
O588 Li528 1.956 . S
O588 Li529 1.970 . S
O588 Li530 1.961 1_554 S
O588 C532 1.325 . S
O589 Li528 1.970 . S
O589 Li529 1.956 . S
O589 Li531 1.961 . S
O589 C538 1.325 . S
O590 Li528 1.961 . S
O590 Li530 1.956 1_554 S
O590 Li531 1.970 . S
O590 C560 1.327 . S
O591 Li529 1.961 1_556 S
O591 Li530 1.970 . S
O591 Li531 1.956 1_556 S
O591 C566 1.325 . S
H592 C534 0.929 . S
H593 C535 0.930 1_455 S
H594 C536 0.930 . S
H595 C537 0.930 . S
H596 C539 0.930 . S
H597 C541 0.929 . S
H598 C542 0.930 . S
H599 C543 0.930 . S
H600 C546 0.930 . S
H601 C549 0.929 . S
H602 C554 0.929 . S
H603 C555 0.930 . S
H604 C562 0.929 . S
H605 C563 0.930 . S
H606 C564 0.930 . S
H607 C565 0.930 . S
H608 C567 0.929 . S
H609 C568 0.930 1_554 S
H610 C569 0.930 . S
H611 C570 0.930 . S
H612 C574 0.929 . S
H613 C576 0.930 . S
H614 C582 0.929 . S
H615 C583 0.930 . S
Li616 N633 1.990 . S
Li616 O676 1.956 . S
Li616 O677 1.970 . S
Li616 O678 1.961 1_554 S
Li617 N641 1.990 . S
Li617 O676 1.970 . S
Li617 O677 1.956 . S
Li617 O679 1.961 . S
Li618 N663 1.990 . S
Li618 O676 1.961 . S
Li618 O678 1.956 1_554 S
Li618 O679 1.970 . S
Li619 N669 1.990 . S
Li619 O677 1.961 1_556 S
Li619 O678 1.970 . S
Li619 O679 1.956 1_556 S
C620 C622 1.348 . S
C620 C623 1.356 . S
C620 O676 1.325 . S
N621 C624 1.314 . S
N621 C625 1.279 . S
C622 C620 1.348 . S
C622 C624 1.353 . S
C622 H680 0.929 . S
C623 C620 1.356 . S
C623 C625 1.358 . S
C623 H681 0.930 . S
C624 N621 1.314 . S
C624 C622 1.353 . S
C624 H682 0.930 . S
C625 N621 1.279 . S
C625 C623 1.358 . S
C625 H683 0.930 . S
C626 C629 1.348 . S
C626 C630 1.356 1_554 S
C626 O677 1.325 . S
C627 N628 1.279 1_565 S
C627 C630 1.358 . S
C627 H684 0.930 . S
N628 C627 1.279 1_545 S
N628 C631 1.305 1_546 S
C629 C626 1.348 . S
C629 C631 1.415 . S
C629 H685 0.929 . S
C630 C626 1.356 1_556 S
C630 C627 1.358 . S
C630 H686 0.930 . S
C631 N628 1.305 1_564 S
C631 C629 1.415 . S
C631 H687 0.874 1_565 S
C632 N633 1.314 . S
C632 C637 1.353 1_655 S
C632 H638 0.930 1_554 S
N633 Li616 1.990 . S
N633 C632 1.314 . S
N633 C635 1.279 . S
C634 C635 1.358 . S
C634 C636 1.356 1_655 S
C634 H688 0.930 1_655 S
C635 N633 1.279 . S
C635 C634 1.358 . S
C635 H639 0.930 . S
C636 C634 1.356 1_455 S
C636 C637 1.348 . S
C637 C632 1.353 1_455 S
C637 C636 1.348 . S
C637 H689 0.929 . S
H638 C632 0.930 1_556 S
H639 C635 0.930 . S
C640 N641 1.314 . S
C640 C642 1.353 . S
C640 H646 0.930 . S
N641 Li617 1.990 . S
N641 C640 1.314 . S
N641 C644 1.279 . S
C642 C640 1.353 . S
C642 C645 1.348 . S
C642 H690 0.929 . S
C643 C644 1.358 . S
C643 C645 1.356 . S
C643 H691 0.930 . S
C644 N641 1.279 . S
C644 C643 1.358 . S
C644 H647 0.930 . S
C645 C642 1.348 . S
C645 C643 1.356 . S
H646 C640 0.930 . S
H647 C644 0.930 . S
C648 C650 1.348 . S
C648 C651 1.362 . S
C648 O678 1.325 . S
N649 C652 1.314 1_455 S
N649 C653 1.279 . S
C650 C648 1.348 . S
C650 C652 1.353 . S
C650 H692 0.929 . S
C651 C648 1.362 . S
C651 C653 1.353 1_655 S
C651 H693 0.929 1_656 S
C652 N649 1.314 1_655 S
C652 C650 1.353 . S
C652 H694 0.930 . S
C653 N649 1.279 . S
C653 C651 1.353 1_455 S
C653 H695 0.930 . S
C654 C655 1.346 1_554 S
C654 C656 1.354 1_554 S
C654 O679 1.327 . S
C655 C654 1.346 1_556 S
C655 C657 1.353 . S
C655 H696 0.929 . S
C656 C654 1.354 1_556 S
C656 C658 1.358 . S
C656 H697 0.930 . S
C657 C655 1.353 . S
C657 N659 1.314 . S
C657 H698 0.930 . S
C658 C656 1.358 . S
C658 N659 1.279 . S
C658 H699 0.930 . S
N659 C657 1.314 . S
N659 C658 1.279 . S
C660 C662 1.353 . S
C660 N663 1.314 . S
C660 H666 0.930 . S
C661 N663 1.279 . S
C661 C664 1.358 . S
C661 H667 0.941 . S
C662 C660 1.353 . S
C662 C665 1.348 . S
C662 H700 0.929 . S
N663 Li618 1.990 . S
N663 C660 1.314 . S
N663 C661 1.279 . S
C664 C661 1.358 . S
C664 C665 1.356 . S
C664 H701 0.930 . S
C665 C662 1.348 . S
C665 C664 1.356 . S
H666 C660 0.930 . S
H667 C661 0.941 . S
C668 N669 1.314 . S
C668 C670 1.353 . S
C668 H674 0.930 . S
N669 Li619 1.990 . S
N669 C668 1.314 . S
N669 C672 1.279 . S
C670 C668 1.353 . S
C670 C673 1.348 . S
C670 H702 0.929 . S
C671 C672 1.358 . S
C671 C673 1.356 . S
C671 H703 0.930 . S
C672 N669 1.279 . S
C672 C671 1.358 . S
C672 H675 0.930 . S
C673 C670 1.348 . S
C673 C671 1.356 . S
H674 C668 0.930 . S
H675 C672 0.930 . S
O676 Li616 1.956 . S
O676 Li617 1.970 . S
O676 Li618 1.961 . S
O676 C620 1.325 . S
O677 Li616 1.970 . S
O677 Li617 1.956 . S
O677 Li619 1.961 1_554 S
O677 C626 1.325 . S
O678 Li616 1.961 1_556 S
O678 Li618 1.956 1_556 S
O678 Li619 1.970 . S
O678 C648 1.325 . S
O679 Li617 1.961 . S
O679 Li618 1.970 . S
O679 Li619 1.956 1_554 S
O679 C654 1.327 . S
H680 C622 0.929 . S
H681 C623 0.930 . S
H682 C624 0.930 . S
H683 C625 0.930 . S
H684 C627 0.930 . S
H685 C629 0.929 . S
H686 C630 0.930 . S
H687 C631 0.874 1_545 S
H688 C634 0.930 1_455 S
H689 C637 0.929 . S
H690 C642 0.929 . S
H691 C643 0.930 . S
H692 C650 0.929 . S
H693 C651 0.929 1_454 S
H694 C652 0.930 . S
H695 C653 0.930 . S
H696 C655 0.929 . S
H697 C656 0.930 . S
H698 C657 0.930 . S
H699 C658 0.930 . S
H700 C662 0.929 . S
H701 C664 0.930 . S
H702 C670 0.929 . S
H703 C671 0.930 . S
Li704 N721 1.990 1_455 S
Li704 O764 1.956 . S
Li704 O765 1.970 . S
Li704 O766 1.961 . S
Li705 N729 1.990 . S
Li705 O764 1.970 . S
Li705 O765 1.956 . S
Li705 O767 1.961 . S
Li706 N751 1.990 . S
Li706 O764 1.961 . S
Li706 O766 1.956 . S
Li706 O767 1.970 . S
Li707 N757 1.990 . S
Li707 O765 1.961 . S
Li707 O766 1.970 . S
Li707 O767 1.956 . S
C708 C710 1.348 . S
C708 C711 1.356 1_455 S
C708 O764 1.325 . S
N709 C712 1.314 . S
N709 C713 1.279 . S
C710 C708 1.348 . S
C710 C712 1.353 1_455 S
C710 H768 0.929 . S
C711 C708 1.356 1_655 S
C711 C713 1.358 . S
C711 H769 0.930 . S
C712 N709 1.314 . S
C712 C710 1.353 1_655 S
C712 H770 0.930 . S
C713 N709 1.279 . S
C713 C711 1.358 . S
C713 H771 0.930 . S
C714 C717 1.348 . S
C714 C718 1.356 . S
C714 O765 1.325 . S
C715 N716 1.279 . S
C715 C718 1.358 . S
C715 H772 0.930 . S
N716 C715 1.279 . S
N716 C719 1.314 . S
C717 C714 1.348 . S
C717 C719 1.353 . S
C717 H773 0.929 . S
C718 C714 1.356 . S
C718 C715 1.358 . S
C718 H774 0.930 . S
C719 N716 1.314 . S
C719 C717 1.353 . S
C719 H775 0.930 . S
C720 N721 1.314 . S
C720 C725 1.353 . S
C720 H726 0.930 . S
N721 Li704 1.990 1_655 S
N721 C720 1.314 . S
N721 C723 1.279 . S
C722 C723 1.358 . S
C722 C724 1.356 . S
C722 H776 0.930 . S
C723 N721 1.279 . S
C723 C722 1.358 . S
C723 H727 0.930 . S
C724 C722 1.356 . S
C724 C725 1.348 . S
C725 C720 1.353 . S
C725 C724 1.348 . S
C725 H777 0.929 . S
H726 C720 0.930 . S
H727 C723 0.930 . S
C728 N729 1.314 . S
C728 C730 1.353 . S
C728 H734 0.930 . S
N729 Li705 1.990 . S
N729 C728 1.314 . S
N729 C732 1.279 . S
C730 C728 1.353 . S
C730 C733 1.348 . S
C730 H778 0.929 . S
C731 C732 1.358 . S
C731 C733 1.356 . S
C731 H779 0.930 . S
C732 N729 1.279 . S
C732 C731 1.358 . S
C732 H735 0.930 . S
C733 C730 1.348 . S
C733 C731 1.356 . S
H734 C728 0.930 . S
H735 C732 0.930 . S
C736 C738 1.348 . S
C736 C739 1.356 1_455 S
C736 O766 1.325 . S
N737 C740 1.314 . S
N737 C741 1.279 1_455 S
C738 C736 1.348 . S
C738 C740 1.353 . S
C738 H780 0.929 . S
C739 C736 1.356 1_655 S
C739 C741 1.358 . S
C739 H781 0.930 . S
C740 N737 1.314 . S
C740 C738 1.353 . S
C740 H782 0.930 . S
C741 N737 1.279 1_655 S
C741 C739 1.358 . S
C741 H783 0.930 . S
C742 C743 1.348 . S
C742 C744 1.356 . S
C742 O767 1.325 . S
C743 C742 1.348 . S
C743 C745 1.353 . S
C743 H784 0.929 . S
C744 C742 1.356 . S
C744 C746 1.358 . S
C744 H785 0.930 . S
C745 C743 1.353 . S
C745 N747 1.314 . S
C745 H786 0.930 . S
C746 C744 1.358 . S
C746 N747 1.279 . S
C746 H787 0.930 . S
N747 C745 1.314 . S
N747 C746 1.279 . S
C748 C750 1.353 . S
C748 N751 1.314 . S
C748 H754 0.930 . S
C749 N751 1.279 . S
C749 C752 1.358 . S
C749 H755 0.930 . S
C750 C748 1.353 . S
C750 C753 1.348 . S
C750 H788 0.929 . S
N751 Li706 1.990 . S
N751 C748 1.314 . S
N751 C749 1.279 . S
C752 C749 1.358 . S
C752 C753 1.356 . S
C752 H789 0.930 . S
C753 C750 1.348 . S
C753 C752 1.356 . S
H754 C748 0.930 . S
H755 C749 0.930 . S
C756 N757 1.314 . S
C756 C758 1.353 . S
C756 H762 0.930 . S
N757 Li707 1.990 . S
N757 C756 1.314 . S
N757 C760 1.279 . S
C758 C756 1.353 . S
C758 C761 1.348 . S
C758 H790 0.929 . S
C759 C760 1.358 . S
C759 C761 1.356 . S
C759 H791 0.930 . S
C760 N757 1.279 . S
C760 C759 1.358 . S
C760 H763 0.930 . S
C761 C758 1.348 . S
C761 C759 1.356 . S
H762 C756 0.930 . S
H763 C760 0.930 . S
O764 Li704 1.956 . S
O764 Li705 1.970 . S
O764 Li706 1.961 . S
O764 C708 1.325 . S
O765 Li704 1.970 . S
O765 Li705 1.956 . S
O765 Li707 1.961 . S
O765 C714 1.325 . S
O766 Li704 1.961 . S
O766 Li706 1.956 . S
O766 Li707 1.970 . S
O766 C736 1.325 . S
O767 Li705 1.961 . S
O767 Li706 1.970 . S
O767 Li707 1.956 . S
O767 C742 1.325 . S
H768 C710 0.929 . S
H769 C711 0.930 . S
H770 C712 0.930 . S
H771 C713 0.930 . S
H772 C715 0.930 . S
H773 C717 0.929 . S
H774 C718 0.930 . S
H775 C719 0.930 . S
H776 C722 0.930 . S
H777 C725 0.929 . S
H778 C730 0.929 . S
H779 C731 0.930 . S
H780 C738 0.929 . S
H781 C739 0.930 . S
H782 C740 0.930 . S
H783 C741 0.930 . S
H784 C743 0.929 . S
H785 C744 0.930 . S
H786 C745 0.930 . S
H787 C746 0.930 . S
H788 C750 0.929 . S
H789 C752 0.930 . S
H790 C758 0.929 . S
H791 C759 0.930 . S
Li792 N809 1.990 . S
Li792 O852 1.956 . S
Li792 O853 1.970 . S
Li792 O854 1.961 . S
Li793 N817 1.990 . S
Li793 O852 1.970 . S
Li793 O853 1.956 . S
Li793 O855 1.961 . S
Li794 N839 1.990 . S
Li794 O852 1.961 . S
Li794 O854 1.956 . S
Li794 O855 1.970 . S
Li795 N845 1.990 . S
Li795 O853 1.961 . S
Li795 O854 1.970 . S
Li795 O855 1.956 . S
C796 C798 1.348 . S
C796 C799 1.356 . S
C796 O852 1.325 . S
N797 C800 1.314 . S
N797 C801 1.279 . S
C798 C796 1.348 . S
C798 C800 1.353 . S
C798 H856 0.929 . S
C799 C796 1.356 . S
C799 C801 1.358 . S
C799 H857 0.930 . S
C800 N797 1.314 . S
C800 C798 1.353 . S
C800 H858 0.930 . S
C801 N797 1.279 . S
C801 C799 1.358 . S
C801 H859 0.930 . S
C802 C805 1.348 . S
C802 C806 1.356 . S
C802 O853 1.325 . S
C803 N804 1.279 . S
C803 C806 1.358 . S
C803 H860 0.930 . S
N804 C803 1.279 . S
N804 C807 1.314 . S
C805 C802 1.348 . S
C805 C807 1.353 . S
C805 H861 0.929 . S
C806 C802 1.356 . S
C806 C803 1.358 . S
C806 H862 0.930 . S
C807 N804 1.314 . S
C807 C805 1.353 . S
C807 H863 0.930 . S
C808 N809 1.314 . S
C808 C813 1.353 . S
C808 H814 0.930 . S
N809 Li792 1.990 . S
N809 C808 1.314 . S
N809 C811 1.279 . S
C810 C811 1.358 . S
C810 C812 1.356 . S
C810 H864 0.930 . S
C811 N809 1.279 . S
C811 C810 1.358 . S
C811 H815 0.930 . S
C812 C810 1.356 . S
C812 C813 1.348 . S
C813 C808 1.353 . S
C813 C812 1.348 . S
C813 H865 0.929 . S
H814 C808 0.930 . S
H815 C811 0.930 . S
C816 N817 1.314 . S
C816 C818 1.353 . S
C816 H822 0.930 . S
N817 Li793 1.990 . S
N817 C816 1.314 . S
N817 C820 1.279 . S
C818 C816 1.353 . S
C818 C821 1.348 . S
C818 H866 0.929 . S
C819 C820 1.358 . S
C819 C821 1.356 . S
C819 H867 0.930 . S
C820 N817 1.279 . S
C820 C819 1.358 . S
C820 H823 0.930 . S
C821 C818 1.348 . S
C821 C819 1.356 . S
H822 C816 0.930 . S
H823 C820 0.930 . S
C824 C826 1.348 . S
C824 C827 1.356 . S
C824 O854 1.325 . S
N825 C828 1.314 . S
N825 C829 1.279 . S
C826 C824 1.348 . S
C826 C828 1.353 . S
C826 H868 0.929 . S
C827 C824 1.356 . S
C827 C829 1.358 . S
C827 H869 0.930 . S
C828 N825 1.314 . S
C828 C826 1.353 . S
C828 H870 0.930 . S
C829 N825 1.279 . S
C829 C827 1.358 . S
C829 H871 0.930 . S
C830 C831 1.348 . S
C830 C832 1.356 . S
C830 O855 1.325 . S
C831 C830 1.348 . S
C831 C833 1.353 1_455 S
C831 H872 0.929 . S
C832 C830 1.356 . S
C832 C834 1.358 1_455 S
C832 H873 0.930 . S
C833 C831 1.353 1_655 S
C833 N835 1.314 . S
C833 H874 0.930 . S
C834 C832 1.358 1_655 S
C834 N835 1.279 . S
C834 H875 0.930 . S
N835 C833 1.314 . S
N835 C834 1.279 . S
C836 C838 1.353 . S
C836 N839 1.314 . S
C836 H842 0.930 . S
C837 N839 1.279 . S
C837 C840 1.358 . S
C837 H843 0.930 . S
C838 C836 1.353 . S
C838 C841 1.348 . S
C838 H876 0.929 . S
N839 Li794 1.990 . S
N839 C836 1.314 . S
N839 C837 1.279 . S
C840 C837 1.358 . S
C840 C841 1.356 . S
C840 H877 0.930 . S
C841 C838 1.348 . S
C841 C840 1.356 . S
H842 C836 0.930 . S
H843 C837 0.930 . S
C844 N845 1.314 . S
C844 C846 1.353 . S
C844 H850 0.930 . S
N845 Li795 1.990 . S
N845 C844 1.314 . S
N845 C848 1.279 . S
C846 C844 1.353 . S
C846 C849 1.348 1_455 S
C846 H878 0.929 . S
C847 C848 1.358 1_655 S
C847 C849 1.356 . S
C847 H879 0.930 . S
C848 N845 1.279 . S
C848 C847 1.358 1_455 S
C848 H851 0.932 . S
C849 C846 1.348 1_655 S
C849 C847 1.356 . S
H850 C844 0.930 . S
H851 C848 0.932 . S
O852 Li792 1.956 . S
O852 Li793 1.970 . S
O852 Li794 1.961 . S
O852 C796 1.325 . S
O853 Li792 1.970 . S
O853 Li793 1.956 . S
O853 Li795 1.961 . S
O853 C802 1.325 . S
O854 Li792 1.961 . S
O854 Li794 1.956 . S
O854 Li795 1.970 . S
O854 C824 1.325 . S
O855 Li793 1.961 . S
O855 Li794 1.970 . S
O855 Li795 1.956 . S
O855 C830 1.325 . S
H856 C798 0.929 . S
H857 C799 0.930 . S
H858 C800 0.930 . S
H859 C801 0.930 . S
H860 C803 0.930 . S
H861 C805 0.929 . S
H862 C806 0.930 . S
H863 C807 0.930 . S
H864 C810 0.930 . S
H865 C813 0.929 . S
H866 C818 0.929 . S
H867 C819 0.930 . S
H868 C826 0.929 . S
H869 C827 0.930 . S
H870 C828 0.930 . S
H871 C829 0.930 . S
H872 C831 0.929 . S
H873 C832 0.930 . S
H874 C833 0.930 . S
H875 C834 0.930 . S
H876 C838 0.929 . S
H877 C840 0.930 . S
H878 C846 0.929 . S
H879 C847 0.930 . S
Li880 N897 1.990 . S
Li880 O940 1.956 . S
Li880 O941 1.970 . S
Li880 O942 1.961 . S
Li881 N905 1.990 . S
Li881 O940 1.970 . S
Li881 O941 1.956 . S
Li881 O943 1.961 . S
Li882 N927 1.990 . S
Li882 O940 1.961 . S
Li882 O942 1.956 . S
Li882 O943 1.970 . S
Li883 N933 1.990 1_455 S
Li883 O941 1.961 . S
Li883 O942 1.970 . S
Li883 O943 1.956 . S
C884 C886 1.348 . S
C884 C887 1.356 . S
C884 O940 1.325 . S
N885 C888 1.314 . S
N885 C889 1.279 . S
C886 C884 1.348 . S
C886 C888 1.353 . S
C886 H944 0.929 . S
C887 C884 1.356 . S
C887 C889 1.358 . S
C887 H945 0.930 . S
C888 N885 1.314 . S
C888 C886 1.353 . S
C888 H946 0.930 . S
C889 N885 1.279 . S
C889 C887 1.358 . S
C889 H947 0.930 . S
C890 C893 1.348 . S
C890 C894 1.356 1_455 S
C890 O941 1.325 . S
C891 N892 1.279 1_655 S
C891 C894 1.358 . S
C891 H948 0.930 . S
N892 C891 1.279 1_455 S
N892 C895 1.314 . S
C893 C890 1.348 . S
C893 C895 1.353 . S
C893 H949 0.929 . S
C894 C890 1.356 1_655 S
C894 C891 1.358 . S
C894 H950 0.930 . S
C895 N892 1.314 . S
C895 C893 1.353 . S
C895 H951 0.930 . S
C896 N897 1.314 . S
C896 C901 1.353 . S
C896 H902 0.930 . S
N897 Li880 1.990 . S
N897 C896 1.314 . S
N897 C899 1.279 . S
C898 C899 1.358 . S
C898 C900 1.356 . S
C898 H952 0.930 . S
C899 N897 1.279 . S
C899 C898 1.358 . S
C899 H903 0.930 . S
C900 C898 1.356 . S
C900 C901 1.348 . S
C901 C896 1.353 . S
C901 C900 1.348 . S
C901 H953 0.929 . S
H902 C896 0.930 . S
H903 C899 0.930 . S
C904 N905 1.314 . S
C904 C906 1.353 . S
C904 H910 0.930 . S
N905 Li881 1.990 . S
N905 C904 1.314 . S
N905 C908 1.279 . S
C906 C904 1.353 . S
C906 C909 1.348 . S
C906 H954 0.929 . S
C907 C908 1.358 . S
C907 C909 1.356 . S
C907 H955 0.930 . S
C908 N905 1.279 . S
C908 C907 1.358 . S
C908 H911 0.930 . S
C909 C906 1.348 . S
C909 C907 1.356 . S
H910 C904 0.930 . S
H911 C908 0.930 . S
C912 C914 1.348 . S
C912 C915 1.356 . S
C912 O942 1.325 . S
N913 C916 1.314 . S
N913 C917 1.279 . S
C914 C912 1.348 . S
C914 C916 1.353 . S
C914 H956 0.929 . S
C915 C912 1.356 . S
C915 C917 1.358 . S
C915 H957 0.930 . S
C916 N913 1.314 . S
C916 C914 1.353 . S
C916 H958 0.930 . S
C917 N913 1.279 . S
C917 C915 1.358 . S
C917 H959 0.930 . S
C918 C919 1.348 . S
C918 C920 1.356 1_455 S
C918 O943 1.325 . S
C919 C918 1.348 . S
C919 C921 1.353 1_455 S
C919 H960 0.929 . S
C920 C918 1.356 1_655 S
C920 C922 1.358 . S
C920 H961 0.930 . S
C921 C919 1.353 1_655 S
C921 N923 1.314 . S
C921 H962 0.930 . S
C922 C920 1.358 . S
C922 N923 1.279 . S
C922 H963 0.930 . S
N923 C921 1.314 . S
N923 C922 1.279 . S
C924 C926 1.353 . S
C924 N927 1.314 . S
C924 H930 0.930 . S
C925 N927 1.279 . S
C925 C928 1.358 . S
C925 H931 0.930 . S
C926 C924 1.353 . S
C926 C929 1.348 . S
C926 H964 0.929 . S
N927 Li882 1.990 . S
N927 C924 1.314 . S
N927 C925 1.279 . S
C928 C925 1.358 . S
C928 C929 1.356 . S
C928 H965 0.930 . S
C929 C926 1.348 . S
C929 C928 1.356 . S
H930 C924 0.930 . S
H931 C925 0.930 . S
C932 N933 1.314 . S
C932 C934 1.353 . S
C932 H938 0.930 . S
N933 Li883 1.990 1_655 S
N933 C932 1.314 . S
N933 C936 1.279 . S
C934 C932 1.353 . S
C934 C937 1.348 . S
C934 H966 0.929 . S
C935 C936 1.358 . S
C935 C937 1.356 . S
C935 H967 0.930 . S
C936 N933 1.279 . S
C936 C935 1.358 . S
C936 H939 0.930 . S
C937 C934 1.348 . S
C937 C935 1.356 . S
H938 C932 0.930 . S
H939 C936 0.930 . S
O940 Li880 1.956 . S
O940 Li881 1.970 . S
O940 Li882 1.961 . S
O940 C884 1.325 . S
O941 Li880 1.970 . S
O941 Li881 1.956 . S
O941 Li883 1.961 . S
O941 C890 1.325 . S
O942 Li880 1.961 . S
O942 Li882 1.956 . S
O942 Li883 1.970 . S
O942 C912 1.325 . S
O943 Li881 1.961 . S
O943 Li882 1.970 . S
O943 Li883 1.956 . S
O943 C918 1.325 . S
H944 C886 0.929 . S
H945 C887 0.930 . S
H946 C888 0.930 . S
H947 C889 0.930 . S
H948 C891 0.930 . S
H949 C893 0.929 . S
H950 C894 0.930 . S
H951 C895 0.930 . S
H952 C898 0.930 . S
H953 C901 0.929 . S
H954 C906 0.929 . S
H955 C907 0.930 . S
H956 C914 0.929 . S
H957 C915 0.930 . S
H958 C916 0.930 . S
H959 C917 0.930 . S
H960 C919 0.929 . S
H961 C920 0.930 . S
H962 C921 0.930 . S
H963 C922 0.930 . S
H964 C926 0.929 . S
H965 C928 0.930 . S
H966 C934 0.929 . S
H967 C935 0.930 . S
Li968 N985 1.990 . S
Li968 O1028 1.956 . S
Li968 O1029 1.970 . S
Li968 O1030 1.961 . S
Li969 N993 1.990 . S
Li969 O1028 1.970 . S
Li969 O1029 1.956 . S
Li969 O1031 1.961 . S
Li970 N1015 1.990 . S
Li970 O1028 1.961 . S
Li970 O1030 1.956 . S
Li970 O1031 1.970 . S
Li971 N1021 1.990 . S
Li971 O1029 1.961 . S
Li971 O1030 1.970 . S
Li971 O1031 1.956 . S
C972 C974 1.348 . S
C972 C975 1.356 . S
C972 O1028 1.325 . S
N973 C976 1.314 . S
N973 C977 1.279 . S
C974 C972 1.348 . S
C974 C976 1.353 . S
C974 H1032 0.929 . S
C975 C972 1.356 . S
C975 C977 1.358 . S
C975 H1033 0.930 . S
C976 N973 1.314 . S
C976 C974 1.353 . S
C976 H1034 0.930 . S
C977 N973 1.279 . S
C977 C975 1.358 . S
C977 H1035 0.930 . S
C978 C981 1.348 . S
C978 C982 1.356 . S
C978 O1029 1.325 . S
C979 N980 1.279 . S
C979 C982 1.358 1_655 S
C979 H1036 0.930 . S
N980 C979 1.279 . S
N980 C983 1.314 . S
C981 C978 1.348 . S
C981 C983 1.353 1_455 S
C981 H1037 0.929 . S
C982 C978 1.356 . S
C982 C979 1.358 1_455 S
C982 H1038 0.930 . S
C983 N980 1.314 . S
C983 C981 1.353 1_655 S
C983 H1039 0.930 . S
C984 N985 1.314 . S
C984 C989 1.353 . S
C984 H990 0.930 . S
N985 Li968 1.990 . S
N985 C984 1.314 . S
N985 C987 1.279 . S
C986 C987 1.358 . S
C986 C988 1.356 . S
C986 H1040 0.930 . S
C987 N985 1.279 . S
C987 C986 1.358 . S
C987 H991 0.930 . S
C988 C986 1.356 . S
C988 C989 1.348 . S
C989 C984 1.353 . S
C989 C988 1.348 . S
C989 H1041 0.929 . S
H990 C984 0.930 . S
H991 C987 0.930 . S
C992 N993 1.314 . S
C992 C994 1.353 . S
C992 H998 0.930 . S
N993 Li969 1.990 . S
N993 C992 1.314 . S
N993 C996 1.279 . S
C994 C992 1.353 . S
C994 C997 1.348 1_455 S
C994 H1042 0.929 . S
C995 C996 1.358 1_655 S
C995 C997 1.356 . S
C995 H1043 0.930 . S
C996 N993 1.279 . S
C996 C995 1.358 1_455 S
C996 H999 0.932 . S
C997 C994 1.348 1_655 S
C997 C995 1.356 . S
H998 C992 0.930 . S
H999 C996 0.932 . S
C1000 C1002 1.348 . S
C1000 C1003 1.356 . S
C1000 O1030 1.325 . S
N1001 C1004 1.314 . S
N1001 C1005 1.279 . S
C1002 C1000 1.348 . S
C1002 C1004 1.353 . S
C1002 H1044 0.929 . S
C1003 C1000 1.356 . S
C1003 C1005 1.358 . S
C1003 H1045 0.930 . S
C1004 N1001 1.314 . S
C1004 C1002 1.353 . S
C1004 H1046 0.930 . S
C1005 N1001 1.279 . S
C1005 C1003 1.358 . S
C1005 H1047 0.930 . S
C1006 C1007 1.348 . S
C1006 C1008 1.356 . S
C1006 O1031 1.325 . S
C1007 C1006 1.348 . S
C1007 C1009 1.353 . S
C1007 H1048 0.929 . S
C1008 C1006 1.356 . S
C1008 C1010 1.358 . S
C1008 H1049 0.930 . S
C1009 C1007 1.353 . S
C1009 N1011 1.314 . S
C1009 H1050 0.930 . S
C1010 C1008 1.358 . S
C1010 N1011 1.279 . S
C1010 H1051 0.930 . S
N1011 C1009 1.314 . S
N1011 C1010 1.279 . S
C1012 C1014 1.353 . S
C1012 N1015 1.314 . S
C1012 H1018 0.930 . S
C1013 N1015 1.279 . S
C1013 C1016 1.358 . S
C1013 H1019 0.930 . S
C1014 C1012 1.353 . S
C1014 C1017 1.348 . S
C1014 H1052 0.929 . S
N1015 Li970 1.990 . S
N1015 C1012 1.314 . S
N1015 C1013 1.279 . S
C1016 C1013 1.358 . S
C1016 C1017 1.356 . S
C1016 H1053 0.930 . S
C1017 C1014 1.348 . S
C1017 C1016 1.356 . S
H1018 C1012 0.930 . S
H1019 C1013 0.930 . S
C1020 N1021 1.314 . S
C1020 C1022 1.353 . S
C1020 H1026 0.930 . S
N1021 Li971 1.990 . S
N1021 C1020 1.314 . S
N1021 C1024 1.279 . S
C1022 C1020 1.353 . S
C1022 C1025 1.348 . S
C1022 H1054 0.929 . S
C1023 C1024 1.358 . S
C1023 C1025 1.356 . S
C1023 H1055 0.930 . S
C1024 N1021 1.279 . S
C1024 C1023 1.358 . S
C1024 H1027 0.930 . S
C1025 C1022 1.348 . S
C1025 C1023 1.356 . S
H1026 C1020 0.930 . S
H1027 C1024 0.930 . S
O1028 Li968 1.956 . S
O1028 Li969 1.970 . S
O1028 Li970 1.961 . S
O1028 C972 1.325 . S
O1029 Li968 1.970 . S
O1029 Li969 1.956 . S
O1029 Li971 1.961 . S
O1029 C978 1.325 . S
O1030 Li968 1.961 . S
O1030 Li970 1.956 . S
O1030 Li971 1.970 . S
O1030 C1000 1.325 . S
O1031 Li969 1.961 . S
O1031 Li970 1.970 . S
O1031 Li971 1.956 . S
O1031 C1006 1.325 . S
H1032 C974 0.929 . S
H1033 C975 0.930 . S
H1034 C976 0.930 . S
H1035 C977 0.930 . S
H1036 C979 0.930 . S
H1037 C981 0.929 . S
H1038 C982 0.930 . S
H1039 C983 0.930 . S
H1040 C986 0.930 . S
H1041 C989 0.929 . S
H1042 C994 0.929 . S
H1043 C995 0.930 . S
H1044 C1002 0.929 . S
H1045 C1003 0.930 . S
H1046 C1004 0.930 . S
H1047 C1005 0.930 . S
H1048 C1007 0.929 . S
H1049 C1008 0.930 . S
H1050 C1009 0.930 . S
H1051 C1010 0.930 . S
H1052 C1014 0.929 . S
H1053 C1016 0.930 . S
H1054 C1022 0.929 . S
H1055 C1023 0.930 . S
Li1056 N1073 1.990 . S
Li1056 O1116 1.956 . S
Li1056 O1117 1.970 . S
Li1056 O1118 1.961 . S
Li1057 N1081 1.990 . S
Li1057 O1116 1.970 . S
Li1057 O1117 1.956 . S
Li1057 O1119 1.961 . S
Li1058 N1103 1.990 1_655 S
Li1058 O1116 1.961 . S
Li1058 O1118 1.956 . S
Li1058 O1119 1.970 . S
Li1059 N1109 1.990 . S
Li1059 O1117 1.961 . S
Li1059 O1118 1.970 . S
Li1059 O1119 1.956 . S
C1060 C1062 1.348 . S
C1060 C1063 1.356 1_655 S
C1060 O1116 1.325 . S
N1061 C1064 1.314 . S
N1061 C1065 1.279 . S
C1062 C1060 1.348 . S
C1062 C1064 1.353 1_655 S
C1062 H1120 0.929 . S
C1063 C1060 1.356 1_455 S
C1063 C1065 1.358 . S
C1063 H1121 0.930 . S
C1064 N1061 1.314 . S
C1064 C1062 1.353 1_455 S
C1064 H1122 0.930 . S
C1065 N1061 1.279 . S
C1065 C1063 1.358 . S
C1065 H1123 0.930 . S
C1066 C1069 1.348 . S
C1066 C1070 1.356 . S
C1066 O1117 1.325 . S
C1067 N1068 1.279 . S
C1067 C1070 1.358 . S
C1067 H1124 0.930 . S
N1068 C1067 1.279 . S
N1068 C1071 1.314 . S
C1069 C1066 1.348 . S
C1069 C1071 1.353 . S
C1069 H1125 0.929 . S
C1070 C1066 1.356 . S
C1070 C1067 1.358 . S
C1070 H1126 0.930 . S
C1071 N1068 1.314 . S
C1071 C1069 1.353 . S
C1071 H1127 0.930 . S
C1072 N1073 1.314 . S
C1072 C1077 1.353 . S
C1072 H1078 0.930 . S
N1073 Li1056 1.990 . S
N1073 C1072 1.314 . S
N1073 C1075 1.279 . S
C1074 C1075 1.358 . S
C1074 C1076 1.356 . S
C1074 H1128 0.930 . S
C1075 N1073 1.279 . S
C1075 C1074 1.358 . S
C1075 H1079 0.930 . S
C1076 C1074 1.356 . S
C1076 C1077 1.348 . S
C1077 C1072 1.353 . S
C1077 C1076 1.348 . S
C1077 H1129 0.929 . S
H1078 C1072 0.930 . S
H1079 C1075 0.930 . S
C1080 N1081 1.314 . S
C1080 C1082 1.353 . S
C1080 H1086 0.930 . S
N1081 Li1057 1.990 . S
N1081 C1080 1.314 . S
N1081 C1084 1.279 . S
C1082 C1080 1.353 . S
C1082 C1085 1.348 . S
C1082 H1130 0.929 . S
C1083 C1084 1.358 . S
C1083 C1085 1.356 . S
C1083 H1131 0.930 . S
C1084 N1081 1.279 . S
C1084 C1083 1.358 . S
C1084 H1087 0.930 . S
C1085 C1082 1.348 . S
C1085 C1083 1.356 . S
H1086 C1080 0.930 . S
H1087 C1084 0.930 . S
C1088 C1090 1.348 . S
C1088 C1091 1.356 . S
C1088 O1118 1.325 . S
N1089 C1092 1.314 . S
N1089 C1093 1.279 1_655 S
C1090 C1088 1.348 . S
C1090 C1092 1.353 . S
C1090 H1132 0.929 . S
C1091 C1088 1.356 . S
C1091 C1093 1.358 1_655 S
C1091 H1133 0.930 1_655 S
C1092 N1089 1.314 . S
C1092 C1090 1.353 . S
C1092 H1134 0.930 . S
C1093 N1089 1.279 1_455 S
C1093 C1091 1.358 1_455 S
C1093 H1135 0.930 . S
C1094 C1095 1.348 . S
C1094 C1096 1.356 . S
C1094 O1119 1.325 . S
C1095 C1094 1.348 . S
C1095 C1097 1.353 . S
C1095 H1136 0.929 . S
C1096 C1094 1.356 . S
C1096 C1098 1.358 . S
C1096 H1137 0.930 . S
C1097 C1095 1.353 . S
C1097 N1099 1.314 . S
C1097 H1138 0.930 . S
C1098 C1096 1.358 . S
C1098 N1099 1.279 . S
C1098 H1139 0.930 . S
N1099 C1097 1.314 . S
N1099 C1098 1.279 . S
C1100 C1102 1.353 . S
C1100 N1103 1.314 . S
C1100 H1106 0.930 . S
C1101 N1103 1.279 . S
C1101 C1104 1.358 . S
C1101 H1107 0.930 . S
C1102 C1100 1.353 . S
C1102 C1105 1.348 . S
C1102 H1140 0.929 . S
N1103 Li1058 1.990 1_455 S
N1103 C1100 1.314 . S
N1103 C1101 1.279 . S
C1104 C1101 1.358 . S
C1104 C1105 1.356 . S
C1104 H1141 0.930 . S
C1105 C1102 1.348 . S
C1105 C1104 1.356 . S
H1106 C1100 0.930 . S
H1107 C1101 0.930 . S
C1108 N1109 1.314 . S
C1108 C1110 1.353 . S
C1108 H1114 0.930 . S
N1109 Li1059 1.990 . S
N1109 C1108 1.314 . S
N1109 C1112 1.279 . S
C1110 C1108 1.353 . S
C1110 C1113 1.348 . S
C1110 H1142 0.929 . S
C1111 C1112 1.358 . S
C1111 C1113 1.356 . S
C1111 H1143 0.930 . S
C1112 N1109 1.279 . S
C1112 C1111 1.358 . S
C1112 H1115 0.930 . S
C1113 C1110 1.348 . S
C1113 C1111 1.356 . S
H1114 C1108 0.930 . S
H1115 C1112 0.930 . S
O1116 Li1056 1.956 . S
O1116 Li1057 1.970 . S
O1116 Li1058 1.961 . S
O1116 C1060 1.325 . S
O1117 Li1056 1.970 . S
O1117 Li1057 1.956 . S
O1117 Li1059 1.961 . S
O1117 C1066 1.325 . S
O1118 Li1056 1.961 . S
O1118 Li1058 1.956 . S
O1118 Li1059 1.970 . S
O1118 C1088 1.325 . S
O1119 Li1057 1.961 . S
O1119 Li1058 1.970 . S
O1119 Li1059 1.956 . S
O1119 C1094 1.325 . S
H1120 C1062 0.929 . S
H1121 C1063 0.930 . S
H1122 C1064 0.930 . S
H1123 C1065 0.930 . S
H1124 C1067 0.930 . S
H1125 C1069 0.929 . S
H1126 C1070 0.930 . S
H1127 C1071 0.930 . S
H1128 C1074 0.930 . S
H1129 C1077 0.929 . S
H1130 C1082 0.929 . S
H1131 C1083 0.930 . S
H1132 C1090 0.929 . S
H1133 C1091 0.930 1_455 S
H1134 C1092 0.930 . S
H1135 C1093 0.930 . S
H1136 C1095 0.929 . S
H1137 C1096 0.930 . S
H1138 C1097 0.930 . S
H1139 C1098 0.930 . S
H1140 C1102 0.929 . S
H1141 C1104 0.930 . S
H1142 C1110 0.929 . S
H1143 C1111 0.930 . S
Li1144 N1161 1.990 . S
Li1144 O1204 1.956 . S
Li1144 O1205 1.970 . S
Li1144 O1206 1.961 . S
Li1145 N1169 1.990 . S
Li1145 O1204 1.970 . S
Li1145 O1205 1.956 . S
Li1145 O1207 1.961 . S
Li1146 N1191 1.990 . S
Li1146 O1204 1.961 . S
Li1146 O1206 1.956 . S
Li1146 O1207 1.970 . S
Li1147 N1197 1.990 . S
Li1147 O1205 1.961 . S
Li1147 O1206 1.970 . S
Li1147 O1207 1.956 . S
C1148 C1150 1.348 . S
C1148 C1151 1.363 . S
C1148 O1204 1.325 . S
N1149 C1152 1.314 1_455 S
N1149 C1153 1.279 . S
C1150 C1148 1.348 . S
C1150 C1152 1.353 . S
C1150 H1208 0.929 . S
C1151 C1148 1.363 . S
C1151 C1153 1.352 1_655 S
C1151 H1209 0.929 1_655 S
C1152 N1149 1.314 1_655 S
C1152 C1150 1.353 . S
C1152 H1210 0.930 . S
C1153 N1149 1.279 . S
C1153 C1151 1.352 1_455 S
C1153 H1211 0.930 . S
C1154 C1157 1.348 . S
C1154 C1158 1.356 . S
C1154 O1205 1.325 . S
C1155 N1156 1.279 . S
C1155 C1158 1.358 . S
C1155 H1212 0.930 . S
N1156 C1155 1.279 . S
N1156 C1159 1.314 . S
C1157 C1154 1.348 . S
C1157 C1159 1.353 . S
C1157 H1213 0.929 . S
C1158 C1154 1.356 . S
C1158 C1155 1.358 . S
C1158 H1214 0.930 . S
C1159 N1156 1.314 . S
C1159 C1157 1.353 . S
C1159 H1215 0.930 . S
C1160 N1161 1.314 . S
C1160 C1165 1.353 . S
C1160 H1166 0.930 . S
N1161 Li1144 1.990 . S
N1161 C1160 1.314 . S
N1161 C1163 1.279 . S
C1162 C1163 1.358 . S
C1162 C1164 1.356 . S
C1162 H1216 0.930 . S
C1163 N1161 1.279 . S
C1163 C1162 1.358 . S
C1163 H1167 0.930 . S
C1164 C1162 1.356 . S
C1164 C1165 1.348 . S
C1165 C1160 1.353 . S
C1165 C1164 1.348 . S
C1165 H1217 0.929 . S
H1166 C1160 0.930 . S
H1167 C1163 0.930 . S
C1168 N1169 1.314 . S
C1168 C1170 1.353 . S
C1168 H1174 0.930 . S
N1169 Li1145 1.990 . S
N1169 C1168 1.314 . S
N1169 C1172 1.279 . S
C1170 C1168 1.353 . S
C1170 C1173 1.348 . S
C1170 H1218 0.929 . S
C1171 C1172 1.358 . S
C1171 C1173 1.356 . S
C1171 H1219 0.930 . S
C1172 N1169 1.279 . S
C1172 C1171 1.358 . S
C1172 H1175 0.930 . S
C1173 C1170 1.348 . S
C1173 C1171 1.356 . S
H1174 C1168 0.930 . S
H1175 C1172 0.930 . S
C1176 C1178 1.348 . S
C1176 C1179 1.356 . S
C1176 O1206 1.325 . S
N1177 C1180 1.314 . S
N1177 C1181 1.279 . S
C1178 C1176 1.348 . S
C1178 C1180 1.353 . S
C1178 H1220 0.929 . S
C1179 C1176 1.356 . S
C1179 C1181 1.358 . S
C1179 H1221 0.930 . S
C1180 N1177 1.314 . S
C1180 C1178 1.353 . S
C1180 H1222 0.930 . S
C1181 N1177 1.279 . S
C1181 C1179 1.358 . S
C1181 H1223 0.930 . S
C1182 C1183 1.348 . S
C1182 C1184 1.356 . S
C1182 O1207 1.325 . S
C1183 C1182 1.348 . S
C1183 C1185 1.353 . S
C1183 H1224 0.929 . S
C1184 C1182 1.356 . S
C1184 C1186 1.358 . S
C1184 H1225 0.930 . S
C1185 C1183 1.353 . S
C1185 N1187 1.314 . S
C1185 H1226 0.930 . S
C1186 C1184 1.358 . S
C1186 N1187 1.279 . S
C1186 H1227 0.930 . S
N1187 C1185 1.314 . S
N1187 C1186 1.279 . S
C1188 C1190 1.353 1_655 S
C1188 N1191 1.314 . S
C1188 H1194 0.930 . S
C1189 N1191 1.279 . S
C1189 C1192 1.358 . S
C1189 H1195 0.930 . S
C1190 C1188 1.353 1_455 S
C1190 C1193 1.348 . S
C1190 H1228 0.929 . S
N1191 Li1146 1.990 . S
N1191 C1188 1.314 . S
N1191 C1189 1.279 . S
C1192 C1189 1.358 . S
C1192 C1193 1.356 1_655 S
C1192 H1229 0.930 1_655 S
C1193 C1190 1.348 . S
C1193 C1192 1.356 1_455 S
H1194 C1188 0.930 . S
H1195 C1189 0.930 . S
C1196 N1197 1.314 . S
C1196 C1198 1.353 . S
C1196 H1202 0.930 . S
N1197 Li1147 1.990 . S
N1197 C1196 1.314 . S
N1197 C1200 1.279 . S
C1198 C1196 1.353 . S
C1198 C1201 1.348 . S
C1198 H1230 0.929 . S
C1199 C1200 1.358 . S
C1199 C1201 1.356 . S
C1199 H1231 0.930 . S
C1200 N1197 1.279 . S
C1200 C1199 1.358 . S
C1200 H1203 0.930 . S
C1201 C1198 1.348 . S
C1201 C1199 1.356 . S
H1202 C1196 0.930 . S
H1203 C1200 0.930 . S
O1204 Li1144 1.956 . S
O1204 Li1145 1.970 . S
O1204 Li1146 1.961 . S
O1204 C1148 1.325 . S
O1205 Li1144 1.970 . S
O1205 Li1145 1.956 . S
O1205 Li1147 1.961 . S
O1205 C1154 1.325 . S
O1206 Li1144 1.961 . S
O1206 Li1146 1.956 . S
O1206 Li1147 1.970 . S
O1206 C1176 1.325 . S
O1207 Li1145 1.961 . S
O1207 Li1146 1.970 . S
O1207 Li1147 1.956 . S
O1207 C1182 1.325 . S
H1208 C1150 0.929 . S
H1209 C1151 0.929 1_455 S
H1210 C1152 0.930 . S
H1211 C1153 0.930 . S
H1212 C1155 0.930 . S
H1213 C1157 0.929 . S
H1214 C1158 0.930 . S
H1215 C1159 0.930 . S
H1216 C1162 0.930 . S
H1217 C1165 0.929 . S
H1218 C1170 0.929 . S
H1219 C1171 0.930 . S
H1220 C1178 0.929 . S
H1221 C1179 0.930 . S
H1222 C1180 0.930 . S
H1223 C1181 0.930 . S
H1224 C1183 0.929 . S
H1225 C1184 0.930 . S
H1226 C1185 0.930 . S
H1227 C1186 0.930 . S
H1228 C1190 0.929 . S
H1229 C1192 0.930 1_455 S
H1230 C1198 0.929 . S
H1231 C1199 0.930 . S
Li1232 N1249 1.990 1_655 S
Li1232 O1292 1.956 . S
Li1232 O1293 1.970 . S
Li1232 O1294 1.961 . S
Li1233 N1257 1.990 . S
Li1233 O1292 1.970 . S
Li1233 O1293 1.956 . S
Li1233 O1295 1.961 . S
Li1234 N1279 1.990 . S
Li1234 O1292 1.961 . S
Li1234 O1294 1.956 . S
Li1234 O1295 1.970 . S
Li1235 N1285 1.990 . S
Li1235 O1293 1.961 . S
Li1235 O1294 1.970 . S
Li1235 O1295 1.956 . S
C1236 C1238 1.348 . S
C1236 C1239 1.356 . S
C1236 O1292 1.325 . S
N1237 C1240 1.314 . S
N1237 C1241 1.279 1_655 S
C1238 C1236 1.348 . S
C1238 C1240 1.353 . S
C1238 H1296 0.929 . S
C1239 C1236 1.356 . S
C1239 C1241 1.358 1_655 S
C1239 H1297 0.930 1_655 S
C1240 N1237 1.314 . S
C1240 C1238 1.353 . S
C1240 H1298 0.930 . S
C1241 N1237 1.279 1_455 S
C1241 C1239 1.358 1_455 S
C1241 H1299 0.930 . S
C1242 C1245 1.348 . S
C1242 C1246 1.356 . S
C1242 O1293 1.325 . S
C1243 N1244 1.279 . S
C1243 C1246 1.358 . S
C1243 H1300 0.930 . S
N1244 C1243 1.279 . S
N1244 C1247 1.314 . S
C1245 C1242 1.348 . S
C1245 C1247 1.353 . S
C1245 H1301 0.929 . S
C1246 C1242 1.356 . S
C1246 C1243 1.358 . S
C1246 H1302 0.930 . S
C1247 N1244 1.314 . S
C1247 C1245 1.353 . S
C1247 H1303 0.930 . S
C1248 N1249 1.314 . S
C1248 C1253 1.353 . S
C1248 H1254 0.930 . S
N1249 Li1232 1.990 1_455 S
N1249 C1248 1.314 . S
N1249 C1251 1.279 . S
C1250 C1251 1.358 . S
C1250 C1252 1.356 . S
C1250 H1304 0.930 . S
C1251 N1249 1.279 . S
C1251 C1250 1.358 . S
C1251 H1255 0.930 . S
C1252 C1250 1.356 . S
C1252 C1253 1.348 . S
C1253 C1248 1.353 . S
C1253 C1252 1.348 . S
C1253 H1305 0.929 . S
H1254 C1248 0.930 . S
H1255 C1251 0.930 . S
C1256 N1257 1.314 . S
C1256 C1258 1.353 . S
C1256 H1262 0.930 . S
N1257 Li1233 1.990 . S
N1257 C1256 1.314 . S
N1257 C1260 1.279 . S
C1258 C1256 1.353 . S
C1258 C1261 1.348 . S
C1258 H1306 0.929 . S
C1259 C1260 1.358 . S
C1259 C1261 1.356 . S
C1259 H1307 0.930 . S
C1260 N1257 1.279 . S
C1260 C1259 1.358 . S
C1260 H1263 0.930 . S
C1261 C1258 1.348 . S
C1261 C1259 1.356 . S
H1262 C1256 0.930 . S
H1263 C1260 0.930 . S
C1264 C1266 1.348 . S
C1264 C1267 1.356 1_655 S
C1264 O1294 1.325 . S
N1265 C1268 1.314 . S
N1265 C1269 1.279 . S
C1266 C1264 1.348 . S
C1266 C1268 1.353 1_655 S
C1266 H1308 0.929 . S
C1267 C1264 1.356 1_455 S
C1267 C1269 1.358 . S
C1267 H1309 0.930 . S
C1268 N1265 1.314 . S
C1268 C1266 1.353 1_455 S
C1268 H1310 0.930 . S
C1269 N1265 1.279 . S
C1269 C1267 1.358 . S
C1269 H1311 0.930 . S
C1270 C1271 1.348 . S
C1270 C1272 1.356 . S
C1270 O1295 1.325 . S
C1271 C1270 1.348 . S
C1271 C1273 1.353 . S
C1271 H1312 0.929 . S
C1272 C1270 1.356 . S
C1272 C1274 1.358 . S
C1272 H1313 0.930 . S
C1273 C1271 1.353 . S
C1273 N1275 1.314 . S
C1273 H1314 0.930 . S
C1274 C1272 1.358 . S
C1274 N1275 1.279 . S
C1274 H1315 0.930 . S
N1275 C1273 1.314 . S
N1275 C1274 1.279 . S
C1276 C1278 1.353 . S
C1276 N1279 1.314 . S
C1276 H1282 0.930 . S
C1277 N1279 1.279 . S
C1277 C1280 1.358 . S
C1277 H1283 0.930 . S
C1278 C1276 1.353 . S
C1278 C1281 1.348 . S
C1278 H1316 0.929 . S
N1279 Li1234 1.990 . S
N1279 C1276 1.314 . S
N1279 C1277 1.279 . S
C1280 C1277 1.358 . S
C1280 C1281 1.356 . S
C1280 H1317 0.930 . S
C1281 C1278 1.348 . S
C1281 C1280 1.356 . S
H1282 C1276 0.930 . S
H1283 C1277 0.930 . S
C1284 N1285 1.314 . S
C1284 C1286 1.353 . S
C1284 H1290 0.930 . S
N1285 Li1235 1.990 . S
N1285 C1284 1.314 . S
N1285 C1288 1.279 . S
C1286 C1284 1.353 . S
C1286 C1289 1.348 . S
C1286 H1318 0.929 . S
C1287 C1288 1.358 . S
C1287 C1289 1.356 . S
C1287 H1319 0.930 . S
C1288 N1285 1.279 . S
C1288 C1287 1.358 . S
C1288 H1291 0.930 . S
C1289 C1286 1.348 . S
C1289 C1287 1.356 . S
H1290 C1284 0.930 . S
H1291 C1288 0.930 . S
O1292 Li1232 1.956 . S
O1292 Li1233 1.970 . S
O1292 Li1234 1.961 . S
O1292 C1236 1.325 . S
O1293 Li1232 1.970 . S
O1293 Li1233 1.956 . S
O1293 Li1235 1.961 . S
O1293 C1242 1.325 . S
O1294 Li1232 1.961 . S
O1294 Li1234 1.956 . S
O1294 Li1235 1.970 . S
O1294 C1264 1.325 . S
O1295 Li1233 1.961 . S
O1295 Li1234 1.970 . S
O1295 Li1235 1.956 . S
O1295 C1270 1.325 . S
H1296 C1238 0.929 . S
H1297 C1239 0.930 1_455 S
H1298 C1240 0.930 . S
H1299 C1241 0.930 . S
H1300 C1243 0.930 . S
H1301 C1245 0.929 . S
H1302 C1246 0.930 . S
H1303 C1247 0.930 . S
H1304 C1250 0.930 . S
H1305 C1253 0.929 . S
H1306 C1258 0.929 . S
H1307 C1259 0.930 . S
H1308 C1266 0.929 . S
H1309 C1267 0.930 . S
H1310 C1268 0.930 . S
H1311 C1269 0.930 . S
H1312 C1271 0.929 . S
H1313 C1272 0.930 . S
H1314 C1273 0.930 . S
H1315 C1274 0.930 . S
H1316 C1278 0.929 . S
H1317 C1280 0.930 . S
H1318 C1286 0.929 . S
H1319 C1287 0.930 . S
Li1320 N1337 1.990 . S
Li1320 O1380 1.956 . S
Li1320 O1381 1.970 . S
Li1320 O1382 1.961 . S
Li1321 N1345 1.990 . S
Li1321 O1380 1.970 . S
Li1321 O1381 1.956 . S
Li1321 O1383 1.961 . S
Li1322 N1367 1.990 . S
Li1322 O1380 1.961 . S
Li1322 O1382 1.956 . S
Li1322 O1383 1.970 . S
Li1323 N1373 1.990 . S
Li1323 O1381 1.961 . S
Li1323 O1382 1.970 . S
Li1323 O1383 1.956 . S
C1324 C1326 1.348 . S
C1324 C1327 1.356 . S
C1324 O1380 1.325 . S
N1325 C1328 1.314 . S
N1325 C1329 1.279 . S
C1326 C1324 1.348 . S
C1326 C1328 1.353 . S
C1326 H1384 0.929 . S
C1327 C1324 1.356 . S
C1327 C1329 1.358 . S
C1327 H1385 0.930 . S
C1328 N1325 1.314 . S
C1328 C1326 1.353 . S
C1328 H1386 0.930 . S
C1329 N1325 1.279 . S
C1329 C1327 1.358 . S
C1329 H1387 0.930 . S
C1330 C1333 1.348 . S
C1330 C1334 1.356 . S
C1330 O1381 1.325 . S
C1331 N1332 1.279 . S
C1331 C1334 1.358 . S
C1331 H1388 0.930 . S
N1332 C1331 1.279 . S
N1332 C1335 1.314 . S
C1333 C1330 1.348 . S
C1333 C1335 1.353 . S
C1333 H1389 0.929 . S
C1334 C1330 1.356 . S
C1334 C1331 1.358 . S
C1334 H1390 0.930 . S
C1335 N1332 1.314 . S
C1335 C1333 1.353 . S
C1335 H1391 0.930 . S
C1336 N1337 1.314 . S
C1336 C1341 1.353 1_655 S
C1336 H1342 0.930 . S
N1337 Li1320 1.990 . S
N1337 C1336 1.314 . S
N1337 C1339 1.279 . S
C1338 C1339 1.358 . S
C1338 C1340 1.356 1_655 S
C1338 H1392 0.930 1_655 S
C1339 N1337 1.279 . S
C1339 C1338 1.358 . S
C1339 H1343 0.930 . S
C1340 C1338 1.356 1_455 S
C1340 C1341 1.348 . S
C1341 C1336 1.353 1_455 S
C1341 C1340 1.348 . S
C1341 H1393 0.929 . S
H1342 C1336 0.930 . S
H1343 C1339 0.930 . S
C1344 N1345 1.314 . S
C1344 C1346 1.353 . S
C1344 H1350 0.930 . S
N1345 Li1321 1.990 . S
N1345 C1344 1.314 . S
N1345 C1348 1.279 . S
C1346 C1344 1.353 . S
C1346 C1349 1.348 . S
C1346 H1394 0.929 . S
C1347 C1348 1.358 . S
C1347 C1349 1.356 . S
C1347 H1395 0.930 . S
C1348 N1345 1.279 . S
C1348 C1347 1.358 . S
C1348 H1351 0.930 . S
C1349 C1346 1.348 . S
C1349 C1347 1.356 . S
H1350 C1344 0.930 . S
H1351 C1348 0.930 . S
C1352 C1354 1.348 . S
C1352 C1355 1.361 . S
C1352 O1382 1.325 . S
N1353 C1356 1.314 1_455 S
N1353 C1357 1.279 . S
C1354 C1352 1.348 . S
C1354 C1356 1.353 . S
C1354 H1396 0.929 . S
C1355 C1352 1.361 . S
C1355 C1357 1.354 1_655 S
C1355 H1397 0.929 1_655 S
C1356 N1353 1.314 1_655 S
C1356 C1354 1.353 . S
C1356 H1398 0.930 . S
C1357 N1353 1.279 . S
C1357 C1355 1.354 1_455 S
C1357 H1399 0.930 . S
C1358 C1359 1.348 . S
C1358 C1360 1.356 . S
C1358 O1383 1.325 . S
C1359 C1358 1.348 . S
C1359 C1361 1.353 . S
C1359 H1400 0.929 . S
C1360 C1358 1.356 . S
C1360 C1362 1.358 . S
C1360 H1401 0.930 . S
C1361 C1359 1.353 . S
C1361 N1363 1.314 . S
C1361 H1402 0.930 . S
C1362 C1360 1.358 . S
C1362 N1363 1.279 . S
C1362 H1403 0.930 . S
N1363 C1361 1.314 . S
N1363 C1362 1.279 . S
C1364 C1366 1.353 . S
C1364 N1367 1.314 . S
C1364 H1370 0.930 . S
C1365 N1367 1.279 . S
C1365 C1368 1.358 . S
C1365 H1371 0.930 . S
C1366 C1364 1.353 . S
C1366 C1369 1.348 . S
C1366 H1404 0.929 . S
N1367 Li1322 1.990 . S
N1367 C1364 1.314 . S
N1367 C1365 1.279 . S
C1368 C1365 1.358 . S
C1368 C1369 1.356 . S
C1368 H1405 0.930 . S
C1369 C1366 1.348 . S
C1369 C1368 1.356 . S
H1370 C1364 0.930 . S
H1371 C1365 0.930 . S
C1372 N1373 1.314 . S
C1372 C1374 1.353 . S
C1372 H1378 0.930 . S
N1373 Li1323 1.990 . S
N1373 C1372 1.314 . S
N1373 C1376 1.279 . S
C1374 C1372 1.353 . S
C1374 C1377 1.348 . S
C1374 H1406 0.929 . S
C1375 C1376 1.358 . S
C1375 C1377 1.356 . S
C1375 H1407 0.930 . S
C1376 N1373 1.279 . S
C1376 C1375 1.358 . S
C1376 H1379 0.930 . S
C1377 C1374 1.348 . S
C1377 C1375 1.356 . S
H1378 C1372 0.930 . S
H1379 C1376 0.930 . S
O1380 Li1320 1.956 . S
O1380 Li1321 1.970 . S
O1380 Li1322 1.961 . S
O1380 C1324 1.325 . S
O1381 Li1320 1.970 . S
O1381 Li1321 1.956 . S
O1381 Li1323 1.961 . S
O1381 C1330 1.325 . S
O1382 Li1320 1.961 . S
O1382 Li1322 1.956 . S
O1382 Li1323 1.970 . S
O1382 C1352 1.325 . S
O1383 Li1321 1.961 . S
O1383 Li1322 1.970 . S
O1383 Li1323 1.956 . S
O1383 C1358 1.325 . S
H1384 C1326 0.929 . S
H1385 C1327 0.930 . S
H1386 C1328 0.930 . S
H1387 C1329 0.930 . S
H1388 C1331 0.930 . S
H1389 C1333 0.929 . S
H1390 C1334 0.930 . S
H1391 C1335 0.930 . S
H1392 C1338 0.930 1_455 S
H1393 C1341 0.929 . S
H1394 C1346 0.929 . S
H1395 C1347 0.930 . S
H1396 C1354 0.929 . S
H1397 C1355 0.929 1_455 S
H1398 C1356 0.930 . S
H1399 C1357 0.930 . S
H1400 C1359 0.929 . S
H1401 C1360 0.930 . S
H1402 C1361 0.930 . S
H1403 C1362 0.930 . S
H1404 C1366 0.929 . S
H1405 C1368 0.930 . S
H1406 C1374 0.929 . S
H1407 C1375 0.930 . S
Li1408 N1425 1.990 . S
Li1408 O1468 1.956 . S
Li1408 O1469 1.970 . S
Li1408 O1470 1.961 . S
Li1409 N1433 1.990 . S
Li1409 O1468 1.970 . S
Li1409 O1469 1.956 . S
Li1409 O1471 1.961 . S
Li1410 N1455 1.990 . S
Li1410 O1468 1.961 . S
Li1410 O1470 1.956 . S
Li1410 O1471 1.970 . S
Li1411 N1461 1.990 . S
Li1411 O1469 1.961 . S
Li1411 O1470 1.970 . S
Li1411 O1471 1.956 . S
C1412 C1414 1.348 . S
C1412 C1415 1.356 . S
C1412 O1468 1.325 . S
N1413 C1416 1.314 . S
N1413 C1417 1.279 . S
C1414 C1412 1.348 . S
C1414 C1416 1.353 . S
C1414 H1472 0.929 . S
C1415 C1412 1.356 . S
C1415 C1417 1.358 . S
C1415 H1473 0.930 . S
C1416 N1413 1.314 . S
C1416 C1414 1.353 . S
C1416 H1474 0.930 . S
C1417 N1413 1.279 . S
C1417 C1415 1.358 . S
C1417 H1475 0.930 . S
C1418 C1421 1.348 . S
C1418 C1422 1.356 . S
C1418 O1469 1.325 . S
C1419 N1420 1.279 . S
C1419 C1422 1.358 . S
C1419 H1476 0.930 . S
N1420 C1419 1.279 . S
N1420 C1423 1.314 . S
C1421 C1418 1.348 . S
C1421 C1423 1.353 . S
C1421 H1477 0.929 . S
C1422 C1418 1.356 . S
C1422 C1419 1.358 . S
C1422 H1478 0.930 . S
C1423 N1420 1.314 . S
C1423 C1421 1.353 . S
C1423 H1479 0.930 . S
C1424 N1425 1.314 . S
C1424 C1429 1.353 . S
C1424 H1430 0.930 . S
N1425 Li1408 1.990 . S
N1425 C1424 1.314 . S
N1425 C1427 1.279 . S
C1426 C1427 1.358 . S
C1426 C1428 1.356 . S
C1426 H1480 0.930 . S
C1427 N1425 1.279 . S
C1427 C1426 1.358 . S
C1427 H1431 0.930 . S
C1428 C1426 1.356 . S
C1428 C1429 1.348 . S
C1429 C1424 1.353 . S
C1429 C1428 1.348 . S
C1429 H1481 0.929 . S
H1430 C1424 0.930 . S
H1431 C1427 0.930 . S
C1432 N1433 1.314 . S
C1432 C1434 1.353 . S
C1432 H1438 0.930 . S
N1433 Li1409 1.990 . S
N1433 C1432 1.314 . S
N1433 C1436 1.279 . S
C1434 C1432 1.353 . S
C1434 C1437 1.348 . S
C1434 H1482 0.929 . S
C1435 C1436 1.358 . S
C1435 C1437 1.356 . S
C1435 H1483 0.930 . S
C1436 N1433 1.279 . S
C1436 C1435 1.358 . S
C1436 H1439 0.930 . S
C1437 C1434 1.348 . S
C1437 C1435 1.356 . S
H1438 C1432 0.930 . S
H1439 C1436 0.930 . S
C1440 C1442 1.348 . S
C1440 C1443 1.356 . S
C1440 O1470 1.325 . S
N1441 C1444 1.314 . S
N1441 C1445 1.279 . S
C1442 C1440 1.348 . S
C1442 C1444 1.353 . S
C1442 H1484 0.929 . S
C1443 C1440 1.356 . S
C1443 C1445 1.358 . S
C1443 H1485 0.930 . S
C1444 N1441 1.314 . S
C1444 C1442 1.353 . S
C1444 H1486 0.930 . S
C1445 N1441 1.279 . S
C1445 C1443 1.358 . S
C1445 H1487 0.930 . S
C1446 C1447 1.348 . S
C1446 C1448 1.356 . S
C1446 O1471 1.325 . S
C1447 C1446 1.348 . S
C1447 C1449 1.353 . S
C1447 H1488 0.929 . S
C1448 C1446 1.356 . S
C1448 C1450 1.358 . S
C1448 H1489 0.930 . S
C1449 C1447 1.353 . S
C1449 N1451 1.314 1_545 S
C1449 H1490 0.930 1_545 S
C1450 C1448 1.358 . S
C1450 N1451 1.279 1_545 S
C1450 H1491 0.930 . S
N1451 C1449 1.314 1_565 S
N1451 C1450 1.279 1_565 S
C1452 C1454 1.353 . S
C1452 N1455 1.314 . S
C1452 H1458 0.930 . S
C1453 N1455 1.279 . S
C1453 C1456 1.358 . S
C1453 H1459 0.930 . S
C1454 C1452 1.353 . S
C1454 C1457 1.348 . S
C1454 H1492 0.929 . S
N1455 Li1410 1.990 . S
N1455 C1452 1.314 . S
N1455 C1453 1.279 . S
C1456 C1453 1.358 . S
C1456 C1457 1.356 . S
C1456 H1493 0.930 . S
C1457 C1454 1.348 . S
C1457 C1456 1.356 . S
H1458 C1452 0.930 . S
H1459 C1453 0.930 . S
C1460 N1461 1.314 . S
C1460 C1462 1.353 . S
C1460 H1466 0.930 . S
N1461 Li1411 1.990 . S
N1461 C1460 1.314 . S
N1461 C1464 1.279 . S
C1462 C1460 1.353 . S
C1462 C1465 1.348 . S
C1462 H1494 0.929 . S
C1463 C1464 1.358 . S
C1463 C1465 1.356 . S
C1463 H1495 0.930 . S
C1464 N1461 1.279 . S
C1464 C1463 1.358 . S
C1464 H1467 0.930 . S
C1465 C1462 1.348 . S
C1465 C1463 1.356 . S
H1466 C1460 0.930 . S
H1467 C1464 0.930 . S
O1468 Li1408 1.956 . S
O1468 Li1409 1.970 . S
O1468 Li1410 1.961 . S
O1468 C1412 1.325 . S
O1469 Li1408 1.970 . S
O1469 Li1409 1.956 . S
O1469 Li1411 1.961 . S
O1469 C1418 1.325 . S
O1470 Li1408 1.961 . S
O1470 Li1410 1.956 . S
O1470 Li1411 1.970 . S
O1470 C1440 1.325 . S
O1471 Li1409 1.961 . S
O1471 Li1410 1.970 . S
O1471 Li1411 1.956 . S
O1471 C1446 1.325 . S
H1472 C1414 0.929 . S
H1473 C1415 0.930 . S
H1474 C1416 0.930 . S
H1475 C1417 0.930 . S
H1476 C1419 0.930 . S
H1477 C1421 0.929 . S
H1478 C1422 0.930 . S
H1479 C1423 0.930 . S
H1480 C1426 0.930 . S
H1481 C1429 0.929 . S
H1482 C1434 0.929 . S
H1483 C1435 0.930 . S
H1484 C1442 0.929 . S
H1485 C1443 0.930 . S
H1486 C1444 0.930 . S
H1487 C1445 0.930 . S
H1488 C1447 0.929 . S
H1489 C1448 0.930 . S
H1490 C1449 0.930 1_565 S
H1491 C1450 0.930 . S
H1492 C1454 0.929 . S
H1493 C1456 0.930 . S
H1494 C1462 0.929 . S
H1495 C1463 0.930 . S
Li1496 N1513 1.990 . S
Li1496 O1556 1.956 . S
Li1496 O1557 1.970 . S
Li1496 O1558 1.961 . S
Li1497 N1521 1.990 . S
Li1497 O1556 1.970 . S
Li1497 O1557 1.956 . S
Li1497 O1559 1.961 . S
Li1498 N1543 1.990 . S
Li1498 O1556 1.961 . S
Li1498 O1558 1.956 . S
Li1498 O1559 1.970 . S
Li1499 N1549 1.990 . S
Li1499 O1557 1.961 . S
Li1499 O1558 1.970 . S
Li1499 O1559 1.956 . S
C1500 C1502 1.348 . S
C1500 C1503 1.356 . S
C1500 O1556 1.325 . S
N1501 C1504 1.314 . S
N1501 C1505 1.279 . S
C1502 C1500 1.348 . S
C1502 C1504 1.353 . S
C1502 H1560 0.929 . S
C1503 C1500 1.356 . S
C1503 C1505 1.358 . S
C1503 H1561 0.930 . S
C1504 N1501 1.314 . S
C1504 C1502 1.353 . S
C1504 H1562 0.930 . S
C1505 N1501 1.279 . S
C1505 C1503 1.358 . S
C1505 H1563 0.930 . S
C1506 C1509 1.348 . S
C1506 C1510 1.356 . S
C1506 O1557 1.325 . S
C1507 N1508 1.279 . S
C1507 C1510 1.358 . S
C1507 H1564 0.930 . S
N1508 C1507 1.279 . S
N1508 C1511 1.314 . S
C1509 C1506 1.348 . S
C1509 C1511 1.353 . S
C1509 H1565 0.929 . S
C1510 C1506 1.356 . S
C1510 C1507 1.358 . S
C1510 H1566 0.930 . S
C1511 N1508 1.314 . S
C1511 C1509 1.353 . S
C1511 H1567 0.930 . S
C1512 N1513 1.314 . S
C1512 C1517 1.353 . S
C1512 H1518 0.930 . S
N1513 Li1496 1.990 . S
N1513 C1512 1.314 . S
N1513 C1515 1.279 . S
C1514 C1515 1.358 . S
C1514 C1516 1.356 . S
C1514 H1568 0.930 . S
C1515 N1513 1.279 . S
C1515 C1514 1.358 . S
C1515 H1519 0.930 . S
C1516 C1514 1.356 . S
C1516 C1517 1.348 . S
C1517 C1512 1.353 . S
C1517 C1516 1.348 . S
C1517 H1569 0.929 . S
H1518 C1512 0.930 . S
H1519 C1515 0.930 . S
C1520 N1521 1.314 . S
C1520 C1522 1.353 . S
C1520 H1526 0.930 . S
N1521 Li1497 1.990 . S
N1521 C1520 1.314 . S
N1521 C1524 1.279 . S
C1522 C1520 1.353 . S
C1522 C1525 1.348 . S
C1522 H1570 0.929 . S
C1523 C1524 1.358 . S
C1523 C1525 1.356 . S
C1523 H1571 0.930 . S
C1524 N1521 1.279 . S
C1524 C1523 1.358 . S
C1524 H1527 0.930 . S
C1525 C1522 1.348 . S
C1525 C1523 1.356 . S
H1526 C1520 0.930 . S
H1527 C1524 0.930 . S
C1528 C1530 1.348 . S
C1528 C1531 1.356 . S
C1528 O1558 1.325 . S
N1529 C1532 1.314 . S
N1529 C1533 1.279 . S
C1530 C1528 1.348 . S
C1530 C1532 1.353 . S
C1530 H1572 0.929 . S
C1531 C1528 1.356 . S
C1531 C1533 1.358 . S
C1531 H1573 0.930 . S
C1532 N1529 1.314 . S
C1532 C1530 1.353 . S
C1532 H1574 0.930 . S
C1533 N1529 1.279 . S
C1533 C1531 1.358 . S
C1533 H1575 0.930 . S
C1534 C1535 1.348 . S
C1534 C1536 1.356 . S
C1534 O1559 1.325 . S
C1535 C1534 1.348 . S
C1535 C1537 1.353 . S
C1535 H1576 0.929 . S
C1536 C1534 1.356 . S
C1536 C1538 1.358 . S
C1536 H1577 0.930 . S
C1537 C1535 1.353 . S
C1537 N1539 1.314 . S
C1537 H1578 0.930 . S
C1538 C1536 1.358 . S
C1538 N1539 1.279 . S
C1538 H1579 0.930 . S
N1539 C1537 1.314 . S
N1539 C1538 1.279 . S
C1540 C1542 1.353 . S
C1540 N1543 1.314 . S
C1540 H1546 0.930 . S
C1541 N1543 1.279 . S
C1541 C1544 1.358 . S
C1541 H1547 0.930 . S
C1542 C1540 1.353 . S
C1542 C1545 1.348 . S
C1542 H1580 0.929 . S
N1543 Li1498 1.990 . S
N1543 C1540 1.314 . S
N1543 C1541 1.279 . S
C1544 C1541 1.358 . S
C1544 C1545 1.356 . S
C1544 H1581 0.930 . S
C1545 C1542 1.348 . S
C1545 C1544 1.356 . S
H1546 C1540 0.930 . S
H1547 C1541 0.930 . S
C1548 N1549 1.314 . S
C1548 C1550 1.353 . S
C1548 H1554 0.930 . S
N1549 Li1499 1.990 . S
N1549 C1548 1.314 . S
N1549 C1552 1.279 . S
C1550 C1548 1.353 . S
C1550 C1553 1.348 . S
C1550 H1582 0.929 . S
C1551 C1552 1.358 . S
C1551 C1553 1.356 . S
C1551 H1583 0.930 . S
C1552 N1549 1.279 . S
C1552 C1551 1.358 . S
C1552 H1555 0.930 . S
C1553 C1550 1.348 . S
C1553 C1551 1.356 . S
H1554 C1548 0.930 . S
H1555 C1552 0.930 . S
O1556 Li1496 1.956 . S
O1556 Li1497 1.970 . S
O1556 Li1498 1.961 . S
O1556 C1500 1.325 . S
O1557 Li1496 1.970 . S
O1557 Li1497 1.956 . S
O1557 Li1499 1.961 . S
O1557 C1506 1.325 . S
O1558 Li1496 1.961 . S
O1558 Li1498 1.956 . S
O1558 Li1499 1.970 . S
O1558 C1528 1.325 . S
O1559 Li1497 1.961 . S
O1559 Li1498 1.970 . S
O1559 Li1499 1.956 . S
O1559 C1534 1.325 . S
H1560 C1502 0.929 . S
H1561 C1503 0.930 . S
H1562 C1504 0.930 . S
H1563 C1505 0.930 . S
H1564 C1507 0.930 . S
H1565 C1509 0.929 . S
H1566 C1510 0.930 . S
H1567 C1511 0.930 . S
H1568 C1514 0.930 . S
H1569 C1517 0.929 . S
H1570 C1522 0.929 . S
H1571 C1523 0.930 . S
H1572 C1530 0.929 . S
H1573 C1531 0.930 . S
H1574 C1532 0.930 . S
H1575 C1533 0.930 . S
H1576 C1535 0.929 . S
H1577 C1536 0.930 . S
H1578 C1537 0.930 . S
H1579 C1538 0.930 . S
H1580 C1542 0.929 . S
H1581 C1544 0.930 . S
H1582 C1550 0.929 . S
H1583 C1551 0.930 . S
Li1584 N1601 1.990 . S
Li1584 O1644 1.956 . S
Li1584 O1645 1.970 . S
Li1584 O1646 1.961 . S
Li1585 N1609 1.990 . S
Li1585 O1644 1.970 . S
Li1585 O1645 1.956 . S
Li1585 O1647 1.961 . S
Li1586 N1631 1.990 . S
Li1586 O1644 1.961 . S
Li1586 O1646 1.956 . S
Li1586 O1647 1.970 . S
Li1587 N1637 1.990 . S
Li1587 O1645 1.961 . S
Li1587 O1646 1.970 . S
Li1587 O1647 1.956 . S
C1588 C1590 1.348 . S
C1588 C1591 1.356 . S
C1588 O1644 1.325 . S
N1589 C1592 1.314 . S
N1589 C1593 1.279 . S
C1590 C1588 1.348 . S
C1590 C1592 1.353 . S
C1590 H1648 0.929 . S
C1591 C1588 1.356 . S
C1591 C1593 1.358 . S
C1591 H1649 0.930 . S
C1592 N1589 1.314 . S
C1592 C1590 1.353 . S
C1592 H1650 0.930 . S
C1593 N1589 1.279 . S
C1593 C1591 1.358 . S
C1593 H1651 0.930 . S
C1594 C1597 1.348 . S
C1594 C1598 1.356 . S
C1594 O1645 1.325 . S
C1595 N1596 1.279 . S
C1595 C1598 1.358 . S
C1595 H1652 0.930 . S
N1596 C1595 1.279 . S
N1596 C1599 1.314 . S
C1597 C1594 1.348 . S
C1597 C1599 1.353 . S
C1597 H1653 0.929 . S
C1598 C1594 1.356 . S
C1598 C1595 1.358 . S
C1598 H1654 0.930 . S
C1599 N1596 1.314 . S
C1599 C1597 1.353 . S
C1599 H1655 0.930 . S
C1600 N1601 1.314 . S
C1600 C1605 1.353 . S
C1600 H1606 0.930 . S
N1601 Li1584 1.990 . S
N1601 C1600 1.314 . S
N1601 C1603 1.279 . S
C1602 C1603 1.358 . S
C1602 C1604 1.356 . S
C1602 H1656 0.930 . S
C1603 N1601 1.279 . S
C1603 C1602 1.358 . S
C1603 H1607 0.930 . S
C1604 C1602 1.356 . S
C1604 C1605 1.348 . S
C1605 C1600 1.353 . S
C1605 C1604 1.348 . S
C1605 H1657 0.929 . S
H1606 C1600 0.930 . S
H1607 C1603 0.930 . S
C1608 N1609 1.314 . S
C1608 C1610 1.353 . S
C1608 H1614 0.930 . S
N1609 Li1585 1.990 . S
N1609 C1608 1.314 . S
N1609 C1612 1.279 . S
C1610 C1608 1.353 . S
C1610 C1613 1.348 . S
C1610 H1658 0.929 . S
C1611 C1612 1.358 . S
C1611 C1613 1.356 . S
C1611 H1659 0.930 . S
C1612 N1609 1.279 . S
C1612 C1611 1.358 . S
C1612 H1615 0.930 . S
C1613 C1610 1.348 . S
C1613 C1611 1.356 . S
H1614 C1608 0.930 . S
H1615 C1612 0.930 . S
C1616 C1618 1.348 . S
C1616 C1619 1.356 . S
C1616 O1646 1.325 . S
N1617 C1620 1.314 . S
N1617 C1621 1.279 . S
C1618 C1616 1.348 . S
C1618 C1620 1.353 . S
C1618 H1660 0.929 . S
C1619 C1616 1.356 . S
C1619 C1621 1.358 . S
C1619 H1661 0.930 . S
C1620 N1617 1.314 . S
C1620 C1618 1.353 . S
C1620 H1662 0.930 . S
C1621 N1617 1.279 . S
C1621 C1619 1.358 . S
C1621 H1663 0.930 . S
C1622 C1623 1.348 . S
C1622 C1624 1.356 . S
C1622 O1647 1.325 . S
C1623 C1622 1.348 . S
C1623 C1625 1.353 . S
C1623 H1664 0.929 . S
C1624 C1622 1.356 . S
C1624 C1626 1.358 . S
C1624 H1665 0.930 . S
C1625 C1623 1.353 . S
C1625 N1627 1.314 . S
C1625 H1666 0.930 . S
C1626 C1624 1.358 . S
C1626 N1627 1.279 . S
C1626 H1667 0.930 . S
N1627 C1625 1.314 . S
N1627 C1626 1.279 . S
C1628 C1630 1.353 . S
C1628 N1631 1.314 . S
C1628 H1634 0.930 . S
C1629 N1631 1.279 . S
C1629 C1632 1.358 . S
C1629 H1635 0.930 . S
C1630 C1628 1.353 . S
C1630 C1633 1.348 . S
C1630 H1668 0.929 . S
N1631 Li1586 1.990 . S
N1631 C1628 1.314 . S
N1631 C1629 1.279 . S
C1632 C1629 1.358 . S
C1632 C1633 1.356 . S
C1632 H1669 0.930 . S
C1633 C1630 1.348 . S
C1633 C1632 1.356 . S
H1634 C1628 0.930 . S
H1635 C1629 0.930 . S
C1636 N1637 1.314 . S
C1636 C1638 1.353 . S
C1636 H1642 0.930 . S
N1637 Li1587 1.990 . S
N1637 C1636 1.314 . S
N1637 C1640 1.279 . S
C1638 C1636 1.353 . S
C1638 C1641 1.348 . S
C1638 H1670 0.929 . S
C1639 C1640 1.358 . S
C1639 C1641 1.356 . S
C1639 H1671 0.930 . S
C1640 N1637 1.279 . S
C1640 C1639 1.358 . S
C1640 H1643 0.930 . S
C1641 C1638 1.348 . S
C1641 C1639 1.356 . S
H1642 C1636 0.930 . S
H1643 C1640 0.930 . S
O1644 Li1584 1.956 . S
O1644 Li1585 1.970 . S
O1644 Li1586 1.961 . S
O1644 C1588 1.325 . S
O1645 Li1584 1.970 . S
O1645 Li1585 1.956 . S
O1645 Li1587 1.961 . S
O1645 C1594 1.325 . S
O1646 Li1584 1.961 . S
O1646 Li1586 1.956 . S
O1646 Li1587 1.970 . S
O1646 C1616 1.325 . S
O1647 Li1585 1.961 . S
O1647 Li1586 1.970 . S
O1647 Li1587 1.956 . S
O1647 C1622 1.325 . S
H1648 C1590 0.929 . S
H1649 C1591 0.930 . S
H1650 C1592 0.930 . S
H1651 C1593 0.930 . S
H1652 C1595 0.930 . S
H1653 C1597 0.929 . S
H1654 C1598 0.930 . S
H1655 C1599 0.930 . S
H1656 C1602 0.930 . S
H1657 C1605 0.929 . S
H1658 C1610 0.929 . S
H1659 C1611 0.930 . S
H1660 C1618 0.929 . S
H1661 C1619 0.930 . S
H1662 C1620 0.930 . S
H1663 C1621 0.930 . S
H1664 C1623 0.929 . S
H1665 C1624 0.930 . S
H1666 C1625 0.930 . S
H1667 C1626 0.930 . S
H1668 C1630 0.929 . S
H1669 C1632 0.930 . S
H1670 C1638 0.929 . S
H1671 C1639 0.930 . S
Li1672 N1689 1.990 . S
Li1672 O1732 1.956 . S
Li1672 O1733 1.970 . S
Li1672 O1734 1.961 . S
Li1673 N1697 1.990 . S
Li1673 O1732 1.970 . S
Li1673 O1733 1.956 . S
Li1673 O1735 1.961 . S
Li1674 N1719 1.990 . S
Li1674 O1732 1.961 . S
Li1674 O1734 1.956 . S
Li1674 O1735 1.970 . S
Li1675 N1725 1.990 . S
Li1675 O1733 1.961 . S
Li1675 O1734 1.970 . S
Li1675 O1735 1.956 . S
C1676 C1678 1.348 . S
C1676 C1679 1.356 . S
C1676 O1732 1.325 . S
N1677 C1680 1.314 . S
N1677 C1681 1.279 . S
C1678 C1676 1.348 . S
C1678 C1680 1.353 . S
C1678 H1736 0.929 . S
C1679 C1676 1.356 . S
C1679 C1681 1.358 . S
C1679 H1737 0.930 . S
C1680 N1677 1.314 . S
C1680 C1678 1.353 . S
C1680 H1738 0.930 . S
C1681 N1677 1.279 . S
C1681 C1679 1.358 . S
C1681 H1739 0.930 . S
C1682 C1685 1.348 . S
C1682 C1686 1.356 . S
C1682 O1733 1.325 . S
C1683 N1684 1.279 1_545 S
C1683 C1686 1.358 . S
C1683 H1740 0.930 . S
N1684 C1683 1.279 1_565 S
N1684 C1687 1.314 1_565 S
C1685 C1682 1.348 . S
C1685 C1687 1.353 . S
C1685 H1741 0.929 . S
C1686 C1682 1.356 . S
C1686 C1683 1.358 . S
C1686 H1742 0.930 . S
C1687 N1684 1.314 1_545 S
C1687 C1685 1.353 . S
C1687 H1743 0.930 1_545 S
C1688 N1689 1.314 . S
C1688 C1693 1.353 . S
C1688 H1694 0.930 . S
N1689 Li1672 1.990 . S
N1689 C1688 1.314 . S
N1689 C1691 1.279 . S
C1690 C1691 1.358 . S
C1690 C1692 1.356 . S
C1690 H1744 0.930 . S
C1691 N1689 1.279 . S
C1691 C1690 1.358 . S
C1691 H1695 0.930 . S
C1692 C1690 1.356 . S
C1692 C1693 1.348 . S
C1693 C1688 1.353 . S
C1693 C1692 1.348 . S
C1693 H1745 0.929 . S
H1694 C1688 0.930 . S
H1695 C1691 0.930 . S
C1696 N1697 1.314 . S
C1696 C1698 1.353 . S
C1696 H1702 0.930 . S
N1697 Li1673 1.990 . S
N1697 C1696 1.314 . S
N1697 C1700 1.279 . S
C1698 C1696 1.353 . S
C1698 C1701 1.348 . S
C1698 H1746 0.929 . S
C1699 C1700 1.358 . S
C1699 C1701 1.356 . S
C1699 H1747 0.930 . S
C1700 N1697 1.279 . S
C1700 C1699 1.358 . S
C1700 H1703 0.930 . S
C1701 C1698 1.348 . S
C1701 C1699 1.356 . S
H1702 C1696 0.930 . S
H1703 C1700 0.930 . S
C1704 C1706 1.348 . S
C1704 C1707 1.356 . S
C1704 O1734 1.325 . S
N1705 C1708 1.314 . S
N1705 C1709 1.279 . S
C1706 C1704 1.348 . S
C1706 C1708 1.353 . S
C1706 H1748 0.929 . S
C1707 C1704 1.356 . S
C1707 C1709 1.358 . S
C1707 H1749 0.930 . S
C1708 N1705 1.314 . S
C1708 C1706 1.353 . S
C1708 H1750 0.930 . S
C1709 N1705 1.279 . S
C1709 C1707 1.358 . S
C1709 H1751 0.930 . S
C1710 C1711 1.348 . S
C1710 C1712 1.356 . S
C1710 O1735 1.325 . S
C1711 C1710 1.348 . S
C1711 C1713 1.353 . S
C1711 H1752 0.929 . S
C1712 C1710 1.356 . S
C1712 C1714 1.358 . S
C1712 H1753 0.930 . S
C1713 C1711 1.353 . S
C1713 N1715 1.314 . S
C1713 H1754 0.930 . S
C1714 C1712 1.358 . S
C1714 N1715 1.279 . S
C1714 H1755 0.930 . S
N1715 C1713 1.314 . S
N1715 C1714 1.279 . S
C1716 C1718 1.353 . S
C1716 N1719 1.314 . S
C1716 H1722 0.930 . S
C1717 N1719 1.279 . S
C1717 C1720 1.358 . S
C1717 H1723 0.930 . S
C1718 C1716 1.353 . S
C1718 C1721 1.348 . S
C1718 H1756 0.929 . S
N1719 Li1674 1.990 . S
N1719 C1716 1.314 . S
N1719 C1717 1.279 . S
C1720 C1717 1.358 . S
C1720 C1721 1.356 . S
C1720 H1757 0.930 . S
C1721 C1718 1.348 . S
C1721 C1720 1.356 . S
H1722 C1716 0.930 . S
H1723 C1717 0.930 . S
C1724 N1725 1.314 . S
C1724 C1726 1.353 . S
C1724 H1730 0.930 . S
N1725 Li1675 1.990 . S
N1725 C1724 1.314 . S
N1725 C1728 1.279 . S
C1726 C1724 1.353 . S
C1726 C1729 1.348 . S
C1726 H1758 0.929 . S
C1727 C1728 1.358 . S
C1727 C1729 1.356 . S
C1727 H1759 0.930 . S
C1728 N1725 1.279 . S
C1728 C1727 1.358 . S
C1728 H1731 0.930 . S
C1729 C1726 1.348 . S
C1729 C1727 1.356 . S
H1730 C1724 0.930 . S
H1731 C1728 0.930 . S
O1732 Li1672 1.956 . S
O1732 Li1673 1.970 . S
O1732 Li1674 1.961 . S
O1732 C1676 1.325 . S
O1733 Li1672 1.970 . S
O1733 Li1673 1.956 . S
O1733 Li1675 1.961 . S
O1733 C1682 1.325 . S
O1734 Li1672 1.961 . S
O1734 Li1674 1.956 . S
O1734 Li1675 1.970 . S
O1734 C1704 1.325 . S
O1735 Li1673 1.961 . S
O1735 Li1674 1.970 . S
O1735 Li1675 1.956 . S
O1735 C1710 1.325 . S
H1736 C1678 0.929 . S
H1737 C1679 0.930 . S
H1738 C1680 0.930 . S
H1739 C1681 0.930 . S
H1740 C1683 0.930 . S
H1741 C1685 0.929 . S
H1742 C1686 0.930 . S
H1743 C1687 0.930 1_565 S
H1744 C1690 0.930 . S
H1745 C1693 0.929 . S
H1746 C1698 0.929 . S
H1747 C1699 0.930 . S
H1748 C1706 0.929 . S
H1749 C1707 0.930 . S
H1750 C1708 0.930 . S
H1751 C1709 0.930 . S
H1752 C1711 0.929 . S
H1753 C1712 0.930 . S
H1754 C1713 0.930 . S
H1755 C1714 0.930 . S
H1756 C1718 0.929 . S
H1757 C1720 0.930 . S
H1758 C1726 0.929 . S
H1759 C1727 0.930 . S
Li1760 N1777 1.990 . S
Li1760 O1820 1.956 . S
Li1760 O1821 1.970 . S
Li1760 O1822 1.961 . S
Li1761 N1785 1.990 . S
Li1761 O1820 1.970 . S
Li1761 O1821 1.956 . S
Li1761 O1823 1.961 . S
Li1762 N1807 1.990 . S
Li1762 O1820 1.961 . S
Li1762 O1822 1.956 . S
Li1762 O1823 1.970 . S
Li1763 N1813 1.990 . S
Li1763 O1821 1.961 . S
Li1763 O1822 1.970 . S
Li1763 O1823 1.956 . S
C1764 C1766 1.348 . S
C1764 C1767 1.356 . S
C1764 O1820 1.325 . S
N1765 C1768 1.314 . S
N1765 C1769 1.279 . S
C1766 C1764 1.348 . S
C1766 C1768 1.353 . S
C1766 H1824 0.929 . S
C1767 C1764 1.356 . S
C1767 C1769 1.358 . S
C1767 H1825 0.930 . S
C1768 N1765 1.314 . S
C1768 C1766 1.353 . S
C1768 H1826 0.930 . S
C1769 N1765 1.279 . S
C1769 C1767 1.358 . S
C1769 H1827 0.930 . S
C1770 C1773 1.348 . S
C1770 C1774 1.356 . S
C1770 O1821 1.325 . S
C1771 N1772 1.279 . S
C1771 C1774 1.358 . S
C1771 H1828 0.930 . S
N1772 C1771 1.279 . S
N1772 C1775 1.314 . S
C1773 C1770 1.348 . S
C1773 C1775 1.353 . S
C1773 H1829 0.929 . S
C1774 C1770 1.356 . S
C1774 C1771 1.358 . S
C1774 H1830 0.930 . S
C1775 N1772 1.314 . S
C1775 C1773 1.353 . S
C1775 H1831 0.930 . S
C1776 N1777 1.314 . S
C1776 C1781 1.353 . S
C1776 H1782 0.930 . S
N1777 Li1760 1.990 . S
N1777 C1776 1.314 . S
N1777 C1779 1.279 . S
C1778 C1779 1.358 . S
C1778 C1780 1.356 . S
C1778 H1832 0.930 . S
C1779 N1777 1.279 . S
C1779 C1778 1.358 . S
C1779 H1783 0.930 . S
C1780 C1778 1.356 . S
C1780 C1781 1.348 . S
C1781 C1776 1.353 . S
C1781 C1780 1.348 . S
C1781 H1833 0.929 . S
H1782 C1776 0.930 . S
H1783 C1779 0.930 . S
C1784 N1785 1.314 . S
C1784 C1786 1.353 . S
C1784 H1790 0.930 . S
N1785 Li1761 1.990 . S
N1785 C1784 1.314 . S
N1785 C1788 1.279 . S
C1786 C1784 1.353 . S
C1786 C1789 1.348 . S
C1786 H1834 0.929 . S
C1787 C1788 1.358 . S
C1787 C1789 1.356 . S
C1787 H1835 0.930 . S
C1788 N1785 1.279 . S
C1788 C1787 1.358 . S
C1788 H1791 0.930 . S
C1789 C1786 1.348 . S
C1789 C1787 1.356 . S
H1790 C1784 0.930 . S
H1791 C1788 0.930 . S
C1792 C1794 1.348 . S
C1792 C1795 1.356 . S
C1792 O1822 1.325 . S
N1793 C1796 1.305 1_545 S
N1793 C1797 1.279 1_545 S
C1794 C1792 1.348 . S
C1794 C1796 1.414 . S
C1794 H1836 0.929 . S
C1795 C1792 1.356 . S
C1795 C1797 1.358 . S
C1795 H1837 0.930 . S
C1796 N1793 1.305 1_565 S
C1796 C1794 1.414 . S
C1796 H1838 0.874 1_565 S
C1797 N1793 1.279 1_565 S
C1797 C1795 1.358 . S
C1797 H1839 0.930 . S
C1798 C1799 1.348 . S
C1798 C1800 1.356 . S
C1798 O1823 1.325 . S
C1799 C1798 1.348 . S
C1799 C1801 1.353 . S
C1799 H1840 0.929 . S
C1800 C1798 1.356 . S
C1800 C1802 1.358 . S
C1800 H1841 0.930 . S
C1801 C1799 1.353 . S
C1801 N1803 1.314 . S
C1801 H1842 0.930 . S
C1802 C1800 1.358 . S
C1802 N1803 1.279 . S
C1802 H1843 0.930 . S
N1803 C1801 1.314 . S
N1803 C1802 1.279 . S
C1804 C1806 1.353 . S
C1804 N1807 1.314 . S
C1804 H1810 0.930 . S
C1805 N1807 1.279 . S
C1805 C1808 1.358 . S
C1805 H1811 0.930 . S
C1806 C1804 1.353 . S
C1806 C1809 1.348 . S
C1806 H1844 0.929 . S
N1807 Li1762 1.990 . S
N1807 C1804 1.314 . S
N1807 C1805 1.279 . S
C1808 C1805 1.358 . S
C1808 C1809 1.356 . S
C1808 H1845 0.930 . S
C1809 C1806 1.348 . S
C1809 C1808 1.356 . S
H1810 C1804 0.930 . S
H1811 C1805 0.930 . S
C1812 N1813 1.314 . S
C1812 C1814 1.353 . S
C1812 H1818 0.930 . S
N1813 Li1763 1.990 . S
N1813 C1812 1.314 . S
N1813 C1816 1.279 . S
C1814 C1812 1.353 . S
C1814 C1817 1.348 . S
C1814 H1846 0.929 . S
C1815 C1816 1.358 . S
C1815 C1817 1.356 . S
C1815 H1847 0.930 . S
C1816 N1813 1.279 . S
C1816 C1815 1.358 . S
C1816 H1819 0.930 . S
C1817 C1814 1.348 . S
C1817 C1815 1.356 . S
H1818 C1812 0.930 . S
H1819 C1816 0.930 . S
O1820 Li1760 1.956 . S
O1820 Li1761 1.970 . S
O1820 Li1762 1.961 . S
O1820 C1764 1.325 . S
O1821 Li1760 1.970 . S
O1821 Li1761 1.956 . S
O1821 Li1763 1.961 . S
O1821 C1770 1.325 . S
O1822 Li1760 1.961 . S
O1822 Li1762 1.956 . S
O1822 Li1763 1.970 . S
O1822 C1792 1.325 . S
O1823 Li1761 1.961 . S
O1823 Li1762 1.970 . S
O1823 Li1763 1.956 . S
O1823 C1798 1.325 . S
H1824 C1766 0.929 . S
H1825 C1767 0.930 . S
H1826 C1768 0.930 . S
H1827 C1769 0.930 . S
H1828 C1771 0.930 . S
H1829 C1773 0.929 . S
H1830 C1774 0.930 . S
H1831 C1775 0.930 . S
H1832 C1778 0.930 . S
H1833 C1781 0.929 . S
H1834 C1786 0.929 . S
H1835 C1787 0.930 . S
H1836 C1794 0.929 . S
H1837 C1795 0.930 . S
H1838 C1796 0.874 1_545 S
H1839 C1797 0.930 . S
H1840 C1799 0.929 . S
H1841 C1800 0.930 . S
H1842 C1801 0.930 . S
H1843 C1802 0.930 . S
H1844 C1806 0.929 . S
H1845 C1808 0.930 . S
H1846 C1814 0.929 . S
H1847 C1815 0.930 . S
Li1848 N1865 1.990 . S
Li1848 O1908 1.956 . S
Li1848 O1909 1.970 . S
Li1848 O1910 1.961 . S
Li1849 N1873 1.990 . S
Li1849 O1908 1.970 . S
Li1849 O1909 1.956 . S
Li1849 O1911 1.961 . S
Li1850 N1895 1.990 . S
Li1850 O1908 1.961 . S
Li1850 O1910 1.956 . S
Li1850 O1911 1.970 . S
Li1851 N1901 1.990 . S
Li1851 O1909 1.961 . S
Li1851 O1910 1.970 . S
Li1851 O1911 1.956 . S
C1852 C1854 1.348 . S
C1852 C1855 1.356 . S
C1852 O1908 1.325 . S
N1853 C1856 1.314 . S
N1853 C1857 1.279 . S
C1854 C1852 1.348 . S
C1854 C1856 1.353 . S
C1854 H1912 0.929 . S
C1855 C1852 1.356 . S
C1855 C1857 1.358 . S
C1855 H1913 0.930 . S
C1856 N1853 1.314 . S
C1856 C1854 1.353 . S
C1856 H1914 0.930 . S
C1857 N1853 1.279 . S
C1857 C1855 1.358 . S
C1857 H1915 0.930 . S
C1858 C1861 1.348 . S
C1858 C1862 1.356 . S
C1858 O1909 1.325 . S
C1859 N1860 1.279 . S
C1859 C1862 1.358 . S
C1859 H1916 0.930 . S
N1860 C1859 1.279 . S
N1860 C1863 1.314 . S
C1861 C1858 1.348 . S
C1861 C1863 1.353 . S
C1861 H1917 0.929 . S
C1862 C1858 1.356 . S
C1862 C1859 1.358 . S
C1862 H1918 0.930 . S
C1863 N1860 1.314 . S
C1863 C1861 1.353 . S
C1863 H1919 0.930 . S
C1864 N1865 1.314 . S
C1864 C1869 1.353 . S
C1864 H1870 0.930 . S
N1865 Li1848 1.990 . S
N1865 C1864 1.314 . S
N1865 C1867 1.279 . S
C1866 C1867 1.358 . S
C1866 C1868 1.356 . S
C1866 H1920 0.930 . S
C1867 N1865 1.279 . S
C1867 C1866 1.358 . S
C1867 H1871 0.930 . S
C1868 C1866 1.356 . S
C1868 C1869 1.348 . S
C1869 C1864 1.353 . S
C1869 C1868 1.348 . S
C1869 H1921 0.929 . S
H1870 C1864 0.930 . S
H1871 C1867 0.930 . S
C1872 N1873 1.314 . S
C1872 C1874 1.353 . S
C1872 H1878 0.930 . S
N1873 Li1849 1.990 . S
N1873 C1872 1.314 . S
N1873 C1876 1.279 . S
C1874 C1872 1.353 . S
C1874 C1877 1.348 . S
C1874 H1922 0.929 . S
C1875 C1876 1.358 . S
C1875 C1877 1.356 . S
C1875 H1923 0.930 . S
C1876 N1873 1.279 . S
C1876 C1875 1.358 . S
C1876 H1879 0.930 . S
C1877 C1874 1.348 . S
C1877 C1875 1.356 . S
H1878 C1872 0.930 . S
H1879 C1876 0.930 . S
C1880 C1882 1.348 . S
C1880 C1883 1.356 . S
C1880 O1910 1.325 . S
N1881 C1884 1.314 . S
N1881 C1885 1.279 . S
C1882 C1880 1.348 . S
C1882 C1884 1.353 . S
C1882 H1924 0.929 . S
C1883 C1880 1.356 . S
C1883 C1885 1.358 . S
C1883 H1925 0.930 . S
C1884 N1881 1.314 . S
C1884 C1882 1.353 . S
C1884 H1926 0.930 . S
C1885 N1881 1.279 . S
C1885 C1883 1.358 . S
C1885 H1927 0.930 . S
C1886 C1887 1.348 . S
C1886 C1888 1.356 . S
C1886 O1911 1.325 . S
C1887 C1886 1.348 . S
C1887 C1889 1.353 . S
C1887 H1928 0.929 . S
C1888 C1886 1.356 . S
C1888 C1890 1.358 . S
C1888 H1929 0.930 . S
C1889 C1887 1.353 . S
C1889 N1891 1.314 . S
C1889 H1930 0.930 . S
C1890 C1888 1.358 . S
C1890 N1891 1.279 . S
C1890 H1931 0.930 . S
N1891 C1889 1.314 . S
N1891 C1890 1.279 . S
C1892 C1894 1.353 . S
C1892 N1895 1.314 . S
C1892 H1898 0.930 . S
C1893 N1895 1.279 . S
C1893 C1896 1.358 . S
C1893 H1899 0.930 . S
C1894 C1892 1.353 . S
C1894 C1897 1.348 . S
C1894 H1932 0.929 . S
N1895 Li1850 1.990 . S
N1895 C1892 1.314 . S
N1895 C1893 1.279 . S
C1896 C1893 1.358 . S
C1896 C1897 1.356 . S
C1896 H1933 0.930 . S
C1897 C1894 1.348 . S
C1897 C1896 1.356 . S
H1898 C1892 0.930 . S
H1899 C1893 0.930 . S
C1900 N1901 1.314 . S
C1900 C1902 1.353 . S
C1900 H1906 0.930 . S
N1901 Li1851 1.990 . S
N1901 C1900 1.314 . S
N1901 C1904 1.279 . S
C1902 C1900 1.353 . S
C1902 C1905 1.348 . S
C1902 H1934 0.929 . S
C1903 C1904 1.358 . S
C1903 C1905 1.356 . S
C1903 H1935 0.930 . S
C1904 N1901 1.279 . S
C1904 C1903 1.358 . S
C1904 H1907 0.930 . S
C1905 C1902 1.348 . S
C1905 C1903 1.356 . S
H1906 C1900 0.930 . S
H1907 C1904 0.930 . S
O1908 Li1848 1.956 . S
O1908 Li1849 1.970 . S
O1908 Li1850 1.961 . S
O1908 C1852 1.325 . S
O1909 Li1848 1.970 . S
O1909 Li1849 1.956 . S
O1909 Li1851 1.961 . S
O1909 C1858 1.325 . S
O1910 Li1848 1.961 . S
O1910 Li1850 1.956 . S
O1910 Li1851 1.970 . S
O1910 C1880 1.325 . S
O1911 Li1849 1.961 . S
O1911 Li1850 1.970 . S
O1911 Li1851 1.956 . S
O1911 C1886 1.325 . S
H1912 C1854 0.929 . S
H1913 C1855 0.930 . S
H1914 C1856 0.930 . S
H1915 C1857 0.930 . S
H1916 C1859 0.930 . S
H1917 C1861 0.929 . S
H1918 C1862 0.930 . S
H1919 C1863 0.930 . S
H1920 C1866 0.930 . S
H1921 C1869 0.929 . S
H1922 C1874 0.929 . S
H1923 C1875 0.930 . S
H1924 C1882 0.929 . S
H1925 C1883 0.930 . S
H1926 C1884 0.930 . S
H1927 C1885 0.930 . S
H1928 C1887 0.929 . S
H1929 C1888 0.930 . S
H1930 C1889 0.930 . S
H1931 C1890 0.930 . S
H1932 C1894 0.929 . S
H1933 C1896 0.930 . S
H1934 C1902 0.929 . S
H1935 C1903 0.930 . S
Li1936 N1953 1.990 . S
Li1936 O1996 1.956 . S
Li1936 O1997 1.970 . S
Li1936 O1998 1.961 . S
Li1937 N1961 1.990 . S
Li1937 O1996 1.970 . S
Li1937 O1997 1.956 . S
Li1937 O1999 1.961 . S
Li1938 N1983 1.990 . S
Li1938 O1996 1.961 . S
Li1938 O1998 1.956 . S
Li1938 O1999 1.970 . S
Li1939 N1989 1.990 . S
Li1939 O1997 1.961 . S
Li1939 O1998 1.970 . S
Li1939 O1999 1.956 . S
C1940 C1942 1.348 . S
C1940 C1943 1.356 . S
C1940 O1996 1.325 . S
N1941 C1944 1.314 . S
N1941 C1945 1.279 . S
C1942 C1940 1.348 . S
C1942 C1944 1.353 . S
C1942 H2000 0.929 . S
C1943 C1940 1.356 . S
C1943 C1945 1.358 . S
C1943 H2001 0.930 . S
C1944 N1941 1.314 . S
C1944 C1942 1.353 . S
C1944 H2002 0.930 . S
C1945 N1941 1.279 . S
C1945 C1943 1.358 . S
C1945 H2003 0.930 . S
C1946 C1949 1.348 . S
C1946 C1950 1.356 . S
C1946 O1997 1.325 . S
C1947 N1948 1.279 . S
C1947 C1950 1.358 . S
C1947 H2004 0.930 . S
N1948 C1947 1.279 . S
N1948 C1951 1.314 . S
C1949 C1946 1.348 . S
C1949 C1951 1.353 . S
C1949 H2005 0.929 . S
C1950 C1946 1.356 . S
C1950 C1947 1.358 . S
C1950 H2006 0.930 . S
C1951 N1948 1.314 . S
C1951 C1949 1.353 . S
C1951 H2007 0.930 . S
C1952 N1953 1.314 . S
C1952 C1957 1.353 . S
C1952 H1958 0.930 . S
N1953 Li1936 1.990 . S
N1953 C1952 1.314 . S
N1953 C1955 1.279 . S
C1954 C1955 1.358 . S
C1954 C1956 1.356 . S
C1954 H2008 0.930 . S
C1955 N1953 1.279 . S
C1955 C1954 1.358 . S
C1955 H1959 0.930 . S
C1956 C1954 1.356 . S
C1956 C1957 1.348 . S
C1957 C1952 1.353 . S
C1957 C1956 1.348 . S
C1957 H2009 0.929 . S
H1958 C1952 0.930 . S
H1959 C1955 0.930 . S
C1960 N1961 1.314 . S
C1960 C1962 1.353 . S
C1960 H1966 0.930 . S
N1961 Li1937 1.990 . S
N1961 C1960 1.314 . S
N1961 C1964 1.279 . S
C1962 C1960 1.353 . S
C1962 C1965 1.348 . S
C1962 H2010 0.929 . S
C1963 C1964 1.358 . S
C1963 C1965 1.356 . S
C1963 H2011 0.930 . S
C1964 N1961 1.279 . S
C1964 C1963 1.358 . S
C1964 H1967 0.930 . S
C1965 C1962 1.348 . S
C1965 C1963 1.356 . S
H1966 C1960 0.930 . S
H1967 C1964 0.930 . S
C1968 C1970 1.348 . S
C1968 C1971 1.356 . S
C1968 O1998 1.325 . S
N1969 C1972 1.314 . S
N1969 C1973 1.279 . S
C1970 C1968 1.348 . S
C1970 C1972 1.353 . S
C1970 H2012 0.929 . S
C1971 C1968 1.356 . S
C1971 C1973 1.358 . S
C1971 H2013 0.930 . S
C1972 N1969 1.314 . S
C1972 C1970 1.353 . S
C1972 H2014 0.930 . S
C1973 N1969 1.279 . S
C1973 C1971 1.358 . S
C1973 H2015 0.930 . S
C1974 C1975 1.348 . S
C1974 C1976 1.356 . S
C1974 O1999 1.325 . S
C1975 C1974 1.348 . S
C1975 C1977 1.353 . S
C1975 H2016 0.929 . S
C1976 C1974 1.356 . S
C1976 C1978 1.358 . S
C1976 H2017 0.930 . S
C1977 C1975 1.353 . S
C1977 N1979 1.314 . S
C1977 H2018 0.930 . S
C1978 C1976 1.358 . S
C1978 N1979 1.279 . S
C1978 H2019 0.930 . S
N1979 C1977 1.314 . S
N1979 C1978 1.279 . S
C1980 C1982 1.353 . S
C1980 N1983 1.314 . S
C1980 H1986 0.930 . S
C1981 N1983 1.279 . S
C1981 C1984 1.358 . S
C1981 H1987 0.930 . S
C1982 C1980 1.353 . S
C1982 C1985 1.348 . S
C1982 H2020 0.929 . S
N1983 Li1938 1.990 . S
N1983 C1980 1.314 . S
N1983 C1981 1.279 . S
C1984 C1981 1.358 . S
C1984 C1985 1.356 . S
C1984 H2021 0.930 . S
C1985 C1982 1.348 . S
C1985 C1984 1.356 . S
H1986 C1980 0.930 . S
H1987 C1981 0.930 . S
C1988 N1989 1.314 . S
C1988 C1990 1.353 . S
C1988 H1994 0.930 . S
N1989 Li1939 1.990 . S
N1989 C1988 1.314 . S
N1989 C1992 1.279 . S
C1990 C1988 1.353 . S
C1990 C1993 1.348 . S
C1990 H2022 0.929 . S
C1991 C1992 1.358 . S
C1991 C1993 1.356 . S
C1991 H2023 0.930 . S
C1992 N1989 1.279 . S
C1992 C1991 1.358 . S
C1992 H1995 0.930 . S
C1993 C1990 1.348 . S
C1993 C1991 1.356 . S
H1994 C1988 0.930 . S
H1995 C1992 0.930 . S
O1996 Li1936 1.956 . S
O1996 Li1937 1.970 . S
O1996 Li1938 1.961 . S
O1996 C1940 1.325 . S
O1997 Li1936 1.970 . S
O1997 Li1937 1.956 . S
O1997 Li1939 1.961 . S
O1997 C1946 1.325 . S
O1998 Li1936 1.961 . S
O1998 Li1938 1.956 . S
O1998 Li1939 1.970 . S
O1998 C1968 1.325 . S
O1999 Li1937 1.961 . S
O1999 Li1938 1.970 . S
O1999 Li1939 1.956 . S
O1999 C1974 1.325 . S
H2000 C1942 0.929 . S
H2001 C1943 0.930 . S
H2002 C1944 0.930 . S
H2003 C1945 0.930 . S
H2004 C1947 0.930 . S
H2005 C1949 0.929 . S
H2006 C1950 0.930 . S
H2007 C1951 0.930 . S
H2008 C1954 0.930 . S
H2009 C1957 0.929 . S
H2010 C1962 0.929 . S
H2011 C1963 0.930 . S
H2012 C1970 0.929 . S
H2013 C1971 0.930 . S
H2014 C1972 0.930 . S
H2015 C1973 0.930 . S
H2016 C1975 0.929 . S
H2017 C1976 0.930 . S
H2018 C1977 0.930 . S
H2019 C1978 0.930 . S
H2020 C1982 0.929 . S
H2021 C1984 0.930 . S
H2022 C1990 0.929 . S
H2023 C1991 0.930 . S
Li2024 N2041 1.990 . S
Li2024 O2084 1.956 . S
Li2024 O2085 1.970 . S
Li2024 O2086 1.961 . S
Li2025 N2049 1.990 . S
Li2025 O2084 1.970 . S
Li2025 O2085 1.956 . S
Li2025 O2087 1.961 . S
Li2026 N2071 1.990 . S
Li2026 O2084 1.961 . S
Li2026 O2086 1.956 . S
Li2026 O2087 1.970 . S
Li2027 N2077 1.990 . S
Li2027 O2085 1.961 . S
Li2027 O2086 1.970 . S
Li2027 O2087 1.956 . S
C2028 C2030 1.348 . S
C2028 C2031 1.356 . S
C2028 O2084 1.325 . S
N2029 C2032 1.314 . S
N2029 C2033 1.279 . S
C2030 C2028 1.348 . S
C2030 C2032 1.353 . S
C2030 H2088 0.929 . S
C2031 C2028 1.356 . S
C2031 C2033 1.358 . S
C2031 H2089 0.930 . S
C2032 N2029 1.314 . S
C2032 C2030 1.353 . S
C2032 H2090 0.930 . S
C2033 N2029 1.279 . S
C2033 C2031 1.358 . S
C2033 H2091 0.930 . S
C2034 C2037 1.348 . S
C2034 C2038 1.356 . S
C2034 O2085 1.325 . S
C2035 N2036 1.279 1_565 S
C2035 C2038 1.358 . S
C2035 H2092 0.930 . S
N2036 C2035 1.279 1_545 S
N2036 C2039 1.305 1_545 S
C2037 C2034 1.348 . S
C2037 C2039 1.414 . S
C2037 H2093 0.929 . S
C2038 C2034 1.356 . S
C2038 C2035 1.358 . S
C2038 H2094 0.930 . S
C2039 N2036 1.305 1_565 S
C2039 C2037 1.414 . S
C2039 H2095 0.874 1_565 S
C2040 N2041 1.314 . S
C2040 C2045 1.353 . S
C2040 H2046 0.930 . S
N2041 Li2024 1.990 . S
N2041 C2040 1.314 . S
N2041 C2043 1.279 . S
C2042 C2043 1.358 . S
C2042 C2044 1.356 . S
C2042 H2096 0.930 . S
C2043 N2041 1.279 . S
C2043 C2042 1.358 . S
C2043 H2047 0.930 . S
C2044 C2042 1.356 . S
C2044 C2045 1.348 . S
C2045 C2040 1.353 . S
C2045 C2044 1.348 . S
C2045 H2097 0.929 . S
H2046 C2040 0.930 . S
H2047 C2043 0.930 . S
C2048 N2049 1.314 . S
C2048 C2050 1.353 . S
C2048 H2054 0.930 . S
N2049 Li2025 1.990 . S
N2049 C2048 1.314 . S
N2049 C2052 1.279 . S
C2050 C2048 1.353 . S
C2050 C2053 1.348 . S
C2050 H2098 0.929 . S
C2051 C2052 1.358 . S
C2051 C2053 1.356 . S
C2051 H2099 0.930 . S
C2052 N2049 1.279 . S
C2052 C2051 1.358 . S
C2052 H2055 0.930 . S
C2053 C2050 1.348 . S
C2053 C2051 1.356 . S
H2054 C2048 0.930 . S
H2055 C2052 0.930 . S
C2056 C2058 1.348 . S
C2056 C2059 1.356 . S
C2056 O2086 1.325 . S
N2057 C2060 1.314 . S
N2057 C2061 1.279 . S
C2058 C2056 1.348 . S
C2058 C2060 1.353 . S
C2058 H2100 0.929 . S
C2059 C2056 1.356 . S
C2059 C2061 1.358 . S
C2059 H2101 0.930 . S
C2060 N2057 1.314 . S
C2060 C2058 1.353 . S
C2060 H2102 0.930 . S
C2061 N2057 1.279 . S
C2061 C2059 1.358 . S
C2061 H2103 0.930 . S
C2062 C2063 1.348 . S
C2062 C2064 1.356 . S
C2062 O2087 1.325 . S
C2063 C2062 1.348 . S
C2063 C2065 1.353 . S
C2063 H2104 0.929 . S
C2064 C2062 1.356 . S
C2064 C2066 1.358 . S
C2064 H2105 0.930 . S
C2065 C2063 1.353 . S
C2065 N2067 1.314 . S
C2065 H2106 0.930 . S
C2066 C2064 1.358 . S
C2066 N2067 1.279 . S
C2066 H2107 0.930 . S
N2067 C2065 1.314 . S
N2067 C2066 1.279 . S
C2068 C2070 1.353 . S
C2068 N2071 1.314 . S
C2068 H2074 0.930 . S
C2069 N2071 1.279 . S
C2069 C2072 1.358 . S
C2069 H2075 0.930 . S
C2070 C2068 1.353 . S
C2070 C2073 1.348 . S
C2070 H2108 0.929 . S
N2071 Li2026 1.990 . S
N2071 C2068 1.314 . S
N2071 C2069 1.279 . S
C2072 C2069 1.358 . S
C2072 C2073 1.356 . S
C2072 H2109 0.930 . S
C2073 C2070 1.348 . S
C2073 C2072 1.356 . S
H2074 C2068 0.930 . S
H2075 C2069 0.930 . S
C2076 N2077 1.314 . S
C2076 C2078 1.353 . S
C2076 H2082 0.930 . S
N2077 Li2027 1.990 . S
N2077 C2076 1.314 . S
N2077 C2080 1.279 . S
C2078 C2076 1.353 . S
C2078 C2081 1.348 . S
C2078 H2110 0.929 . S
C2079 C2080 1.358 . S
C2079 C2081 1.356 . S
C2079 H2111 0.930 . S
C2080 N2077 1.279 . S
C2080 C2079 1.358 . S
C2080 H2083 0.930 . S
C2081 C2078 1.348 . S
C2081 C2079 1.356 . S
H2082 C2076 0.930 . S
H2083 C2080 0.930 . S
O2084 Li2024 1.956 . S
O2084 Li2025 1.970 . S
O2084 Li2026 1.961 . S
O2084 C2028 1.325 . S
O2085 Li2024 1.970 . S
O2085 Li2025 1.956 . S
O2085 Li2027 1.961 . S
O2085 C2034 1.325 . S
O2086 Li2024 1.961 . S
O2086 Li2026 1.956 . S
O2086 Li2027 1.970 . S
O2086 C2056 1.325 . S
O2087 Li2025 1.961 . S
O2087 Li2026 1.970 . S
O2087 Li2027 1.956 . S
O2087 C2062 1.325 . S
H2088 C2030 0.929 . S
H2089 C2031 0.930 . S
H2090 C2032 0.930 . S
H2091 C2033 0.930 . S
H2092 C2035 0.930 . S
H2093 C2037 0.929 . S
H2094 C2038 0.930 . S
H2095 C2039 0.874 1_545 S
H2096 C2042 0.930 . S
H2097 C2045 0.929 . S
H2098 C2050 0.929 . S
H2099 C2051 0.930 . S
H2100 C2058 0.929 . S
H2101 C2059 0.930 . S
H2102 C2060 0.930 . S
H2103 C2061 0.930 . S
H2104 C2063 0.929 . S
H2105 C2064 0.930 . S
H2106 C2065 0.930 . S
H2107 C2066 0.930 . S
H2108 C2070 0.929 . S
H2109 C2072 0.930 . S
H2110 C2078 0.929 . S
H2111 C2079 0.930 . S
Li2112 N2129 1.990 . S
Li2112 O2172 1.956 . S
Li2112 O2173 1.970 . S
Li2112 O2174 1.961 . S
Li2113 N2137 1.990 . S
Li2113 O2172 1.970 . S
Li2113 O2173 1.956 . S
Li2113 O2175 1.961 . S
Li2114 N2159 1.990 . S
Li2114 O2172 1.961 . S
Li2114 O2174 1.956 . S
Li2114 O2175 1.970 . S
Li2115 N2165 1.990 . S
Li2115 O2173 1.961 . S
Li2115 O2174 1.970 . S
Li2115 O2175 1.956 . S
C2116 C2118 1.348 . S
C2116 C2119 1.356 . S
C2116 O2172 1.325 . S
N2117 C2120 1.314 . S
N2117 C2121 1.279 . S
C2118 C2116 1.348 . S
C2118 C2120 1.353 . S
C2118 H2176 0.929 . S
C2119 C2116 1.356 . S
C2119 C2121 1.358 . S
C2119 H2177 0.930 . S
C2120 N2117 1.314 . S
C2120 C2118 1.353 . S
C2120 H2178 0.930 . S
C2121 N2117 1.279 . S
C2121 C2119 1.358 . S
C2121 H2179 0.930 . S
C2122 C2125 1.348 . S
C2122 C2126 1.356 . S
C2122 O2173 1.325 . S
C2123 N2124 1.279 . S
C2123 C2126 1.358 . S
C2123 H2180 0.930 . S
N2124 C2123 1.279 . S
N2124 C2127 1.314 . S
C2125 C2122 1.348 . S
C2125 C2127 1.353 . S
C2125 H2181 0.929 . S
C2126 C2122 1.356 . S
C2126 C2123 1.358 . S
C2126 H2182 0.930 . S
C2127 N2124 1.314 . S
C2127 C2125 1.353 . S
C2127 H2183 0.930 . S
C2128 N2129 1.314 . S
C2128 C2133 1.353 . S
C2128 H2134 0.930 . S
N2129 Li2112 1.990 . S
N2129 C2128 1.314 . S
N2129 C2131 1.279 . S
C2130 C2131 1.358 . S
C2130 C2132 1.356 . S
C2130 H2184 0.930 . S
C2131 N2129 1.279 . S
C2131 C2130 1.358 . S
C2131 H2135 0.930 . S
C2132 C2130 1.356 . S
C2132 C2133 1.348 . S
C2133 C2128 1.353 . S
C2133 C2132 1.348 . S
C2133 H2185 0.929 . S
H2134 C2128 0.930 . S
H2135 C2131 0.930 . S
C2136 N2137 1.314 . S
C2136 C2138 1.353 . S
C2136 H2142 0.930 . S
N2137 Li2113 1.990 . S
N2137 C2136 1.314 . S
N2137 C2140 1.279 . S
C2138 C2136 1.353 . S
C2138 C2141 1.348 . S
C2138 H2186 0.929 . S
C2139 C2140 1.358 . S
C2139 C2141 1.356 . S
C2139 H2187 0.930 . S
C2140 N2137 1.279 . S
C2140 C2139 1.358 . S
C2140 H2143 0.930 . S
C2141 C2138 1.348 . S
C2141 C2139 1.356 . S
H2142 C2136 0.930 . S
H2143 C2140 0.930 . S
C2144 C2146 1.348 . S
C2144 C2147 1.356 . S
C2144 O2174 1.325 . S
N2145 C2148 1.314 . S
N2145 C2149 1.279 . S
C2146 C2144 1.348 . S
C2146 C2148 1.353 . S
C2146 H2188 0.929 . S
C2147 C2144 1.356 . S
C2147 C2149 1.358 . S
C2147 H2189 0.930 . S
C2148 N2145 1.314 . S
C2148 C2146 1.353 . S
C2148 H2190 0.930 . S
C2149 N2145 1.279 . S
C2149 C2147 1.358 . S
C2149 H2191 0.930 . S
C2150 C2151 1.348 . S
C2150 C2152 1.356 . S
C2150 O2175 1.325 . S
C2151 C2150 1.348 . S
C2151 C2153 1.353 . S
C2151 H2192 0.929 . S
C2152 C2150 1.356 . S
C2152 C2154 1.358 . S
C2152 H2193 0.930 . S
C2153 C2151 1.353 . S
C2153 N2155 1.314 . S
C2153 H2194 0.930 . S
C2154 C2152 1.358 . S
C2154 N2155 1.279 . S
C2154 H2195 0.930 . S
N2155 C2153 1.314 . S
N2155 C2154 1.279 . S
C2156 C2158 1.353 . S
C2156 N2159 1.314 . S
C2156 H2162 0.930 . S
C2157 N2159 1.279 . S
C2157 C2160 1.358 . S
C2157 H2163 0.930 . S
C2158 C2156 1.353 . S
C2158 C2161 1.348 . S
C2158 H2196 0.929 . S
N2159 Li2114 1.990 . S
N2159 C2156 1.314 . S
N2159 C2157 1.279 . S
C2160 C2157 1.358 . S
C2160 C2161 1.356 . S
C2160 H2197 0.930 . S
C2161 C2158 1.348 . S
C2161 C2160 1.356 . S
H2162 C2156 0.930 . S
H2163 C2157 0.930 . S
C2164 N2165 1.314 . S
C2164 C2166 1.353 . S
C2164 H2170 0.930 . S
N2165 Li2115 1.990 . S
N2165 C2164 1.314 . S
N2165 C2168 1.279 . S
C2166 C2164 1.353 . S
C2166 C2169 1.348 . S
C2166 H2198 0.929 . S
C2167 C2168 1.358 . S
C2167 C2169 1.356 . S
C2167 H2199 0.930 . S
C2168 N2165 1.279 . S
C2168 C2167 1.358 . S
C2168 H2171 0.930 . S
C2169 C2166 1.348 . S
C2169 C2167 1.356 . S
H2170 C2164 0.930 . S
H2171 C2168 0.930 . S
O2172 Li2112 1.956 . S
O2172 Li2113 1.970 . S
O2172 Li2114 1.961 . S
O2172 C2116 1.325 . S
O2173 Li2112 1.970 . S
O2173 Li2113 1.956 . S
O2173 Li2115 1.961 . S
O2173 C2122 1.325 . S
O2174 Li2112 1.961 . S
O2174 Li2114 1.956 . S
O2174 Li2115 1.970 . S
O2174 C2144 1.325 . S
O2175 Li2113 1.961 . S
O2175 Li2114 1.970 . S
O2175 Li2115 1.956 . S
O2175 C2150 1.325 . S
H2176 C2118 0.929 . S
H2177 C2119 0.930 . S
H2178 C2120 0.930 . S
H2179 C2121 0.930 . S
H2180 C2123 0.930 . S
H2181 C2125 0.929 . S
H2182 C2126 0.930 . S
H2183 C2127 0.930 . S
H2184 C2130 0.930 . S
H2185 C2133 0.929 . S
H2186 C2138 0.929 . S
H2187 C2139 0.930 . S
H2188 C2146 0.929 . S
H2189 C2147 0.930 . S
H2190 C2148 0.930 . S
H2191 C2149 0.930 . S
H2192 C2151 0.929 . S
H2193 C2152 0.930 . S
H2194 C2153 0.930 . S
H2195 C2154 0.930 . S
H2196 C2158 0.929 . S
H2197 C2160 0.930 . S
H2198 C2166 0.929 . S
H2199 C2167 0.930 . S
Li2200 N2217 1.990 . S
Li2200 O2260 1.956 . S
Li2200 O2261 1.970 . S
Li2200 O2262 1.961 . S
Li2201 N2225 1.990 . S
Li2201 O2260 1.970 . S
Li2201 O2261 1.956 . S
Li2201 O2263 1.961 . S
Li2202 N2247 1.990 . S
Li2202 O2260 1.961 . S
Li2202 O2262 1.956 . S
Li2202 O2263 1.970 . S
Li2203 N2253 1.990 . S
Li2203 O2261 1.961 . S
Li2203 O2262 1.970 . S
Li2203 O2263 1.956 . S
C2204 C2206 1.348 . S
C2204 C2207 1.356 . S
C2204 O2260 1.325 . S
N2205 C2208 1.314 . S
N2205 C2209 1.279 . S
C2206 C2204 1.348 . S
C2206 C2208 1.353 . S
C2206 H2264 0.929 . S
C2207 C2204 1.356 . S
C2207 C2209 1.358 . S
C2207 H2265 0.930 . S
C2208 N2205 1.314 . S
C2208 C2206 1.353 . S
C2208 H2266 0.930 . S
C2209 N2205 1.279 . S
C2209 C2207 1.358 . S
C2209 H2267 0.930 . S
C2210 C2213 1.348 . S
C2210 C2214 1.356 . S
C2210 O2261 1.325 . S
C2211 N2212 1.279 . S
C2211 C2214 1.358 . S
C2211 H2268 0.930 . S
N2212 C2211 1.279 . S
N2212 C2215 1.314 . S
C2213 C2210 1.348 . S
C2213 C2215 1.353 . S
C2213 H2269 0.929 . S
C2214 C2210 1.356 . S
C2214 C2211 1.358 . S
C2214 H2270 0.930 . S
C2215 N2212 1.314 . S
C2215 C2213 1.353 . S
C2215 H2271 0.930 . S
C2216 N2217 1.314 . S
C2216 C2221 1.353 . S
C2216 H2222 0.930 . S
N2217 Li2200 1.990 . S
N2217 C2216 1.314 . S
N2217 C2219 1.279 . S
C2218 C2219 1.358 . S
C2218 C2220 1.356 . S
C2218 H2272 0.930 . S
C2219 N2217 1.279 . S
C2219 C2218 1.358 . S
C2219 H2223 0.930 . S
C2220 C2218 1.356 . S
C2220 C2221 1.348 . S
C2221 C2216 1.353 . S
C2221 C2220 1.348 . S
C2221 H2273 0.929 . S
H2222 C2216 0.930 . S
H2223 C2219 0.930 . S
C2224 N2225 1.314 . S
C2224 C2226 1.353 . S
C2224 H2230 0.930 . S
N2225 Li2201 1.990 . S
N2225 C2224 1.314 . S
N2225 C2228 1.279 . S
C2226 C2224 1.353 . S
C2226 C2229 1.348 . S
C2226 H2274 0.929 . S
C2227 C2228 1.358 . S
C2227 C2229 1.356 . S
C2227 H2275 0.930 . S
C2228 N2225 1.279 . S
C2228 C2227 1.358 . S
C2228 H2231 0.930 . S
C2229 C2226 1.348 . S
C2229 C2227 1.356 . S
H2230 C2224 0.930 . S
H2231 C2228 0.930 . S
C2232 C2234 1.348 . S
C2232 C2235 1.356 . S
C2232 O2262 1.325 . S
N2233 C2236 1.314 . S
N2233 C2237 1.279 . S
C2234 C2232 1.348 . S
C2234 C2236 1.353 . S
C2234 H2276 0.929 . S
C2235 C2232 1.356 . S
C2235 C2237 1.358 . S
C2235 H2277 0.930 . S
C2236 N2233 1.314 . S
C2236 C2234 1.353 . S
C2236 H2278 0.930 . S
C2237 N2233 1.279 . S
C2237 C2235 1.358 . S
C2237 H2279 0.930 . S
C2238 C2239 1.348 . S
C2238 C2240 1.356 . S
C2238 O2263 1.325 . S
C2239 C2238 1.348 . S
C2239 C2241 1.353 . S
C2239 H2280 0.929 . S
C2240 C2238 1.356 . S
C2240 C2242 1.358 . S
C2240 H2281 0.930 . S
C2241 C2239 1.353 . S
C2241 N2243 1.314 . S
C2241 H2282 0.930 . S
C2242 C2240 1.358 . S
C2242 N2243 1.279 . S
C2242 H2283 0.930 . S
N2243 C2241 1.314 . S
N2243 C2242 1.279 . S
C2244 C2246 1.353 . S
C2244 N2247 1.314 . S
C2244 H2250 0.930 . S
C2245 N2247 1.279 . S
C2245 C2248 1.358 . S
C2245 H2251 0.930 . S
C2246 C2244 1.353 . S
C2246 C2249 1.348 . S
C2246 H2284 0.929 . S
N2247 Li2202 1.990 . S
N2247 C2244 1.314 . S
N2247 C2245 1.279 . S
C2248 C2245 1.358 . S
C2248 C2249 1.356 . S
C2248 H2285 0.930 . S
C2249 C2246 1.348 . S
C2249 C2248 1.356 . S
H2250 C2244 0.930 . S
H2251 C2245 0.930 . S
C2252 N2253 1.314 . S
C2252 C2254 1.353 . S
C2252 H2258 0.930 . S
N2253 Li2203 1.990 . S
N2253 C2252 1.314 . S
N2253 C2256 1.279 . S
C2254 C2252 1.353 . S
C2254 C2257 1.348 . S
C2254 H2286 0.929 . S
C2255 C2256 1.358 . S
C2255 C2257 1.356 . S
C2255 H2287 0.930 . S
C2256 N2253 1.279 . S
C2256 C2255 1.358 . S
C2256 H2259 0.930 . S
C2257 C2254 1.348 . S
C2257 C2255 1.356 . S
H2258 C2252 0.930 . S
H2259 C2256 0.930 . S
O2260 Li2200 1.956 . S
O2260 Li2201 1.970 . S
O2260 Li2202 1.961 . S
O2260 C2204 1.325 . S
O2261 Li2200 1.970 . S
O2261 Li2201 1.956 . S
O2261 Li2203 1.961 . S
O2261 C2210 1.325 . S
O2262 Li2200 1.961 . S
O2262 Li2202 1.956 . S
O2262 Li2203 1.970 . S
O2262 C2232 1.325 . S
O2263 Li2201 1.961 . S
O2263 Li2202 1.970 . S
O2263 Li2203 1.956 . S
O2263 C2238 1.325 . S
H2264 C2206 0.929 . S
H2265 C2207 0.930 . S
H2266 C2208 0.930 . S
H2267 C2209 0.930 . S
H2268 C2211 0.930 . S
H2269 C2213 0.929 . S
H2270 C2214 0.930 . S
H2271 C2215 0.930 . S
H2272 C2218 0.930 . S
H2273 C2221 0.929 . S
H2274 C2226 0.929 . S
H2275 C2227 0.930 . S
H2276 C2234 0.929 . S
H2277 C2235 0.930 . S
H2278 C2236 0.930 . S
H2279 C2237 0.930 . S
H2280 C2239 0.929 . S
H2281 C2240 0.930 . S
H2282 C2241 0.930 . S
H2283 C2242 0.930 . S
H2284 C2246 0.929 . S
H2285 C2248 0.930 . S
H2286 C2254 0.929 . S
H2287 C2255 0.930 . S
Li2288 N2305 1.990 . S
Li2288 O2348 1.956 1_556 S
Li2288 O2349 1.970 . S
Li2288 O2350 1.961 . S
Li2289 N2313 1.990 . S
Li2289 O2348 1.970 . S
Li2289 O2349 1.956 1_554 S
Li2289 O2351 1.961 1_554 S
Li2290 N2335 1.990 . S
Li2290 O2348 1.961 1_556 S
Li2290 O2350 1.956 . S
Li2290 O2351 1.970 . S
Li2291 N2341 1.990 . S
Li2291 O2349 1.961 . S
Li2291 O2350 1.970 . S
Li2291 O2351 1.956 . S
C2292 C2294 1.348 . S
C2292 C2295 1.356 . S
C2292 O2348 1.325 . S
N2293 C2296 1.314 . S
N2293 C2297 1.279 . S
C2294 C2292 1.348 . S
C2294 C2296 1.353 . S
C2294 H2352 0.929 . S
C2295 C2292 1.356 . S
C2295 C2297 1.358 . S
C2295 H2353 0.930 1_554 S
C2296 N2293 1.314 . S
C2296 C2294 1.353 . S
C2296 H2354 0.930 . S
C2297 N2293 1.279 . S
C2297 C2295 1.358 . S
C2297 H2355 0.930 . S
C2298 C2301 1.348 1_556 S
C2298 C2302 1.356 1_556 S
C2298 O2349 1.325 . S
C2299 N2300 1.279 . S
C2299 C2302 1.358 . S
C2299 H2356 0.930 . S
N2300 C2299 1.279 . S
N2300 C2303 1.314 . S
C2301 C2298 1.348 1_554 S
C2301 C2303 1.353 . S
C2301 H2357 0.928 1_554 S
C2302 C2298 1.356 1_554 S
C2302 C2299 1.358 . S
C2302 H2358 0.930 . S
C2303 N2300 1.314 . S
C2303 C2301 1.353 . S
C2303 H2359 0.930 . S
C2304 N2305 1.314 . S
C2304 C2309 1.353 . S
C2304 H2310 0.930 . S
N2305 Li2288 1.990 . S
N2305 C2304 1.314 . S
N2305 C2307 1.279 . S
C2306 C2307 1.358 . S
C2306 C2308 1.356 . S
C2306 H2360 0.930 . S
C2307 N2305 1.279 . S
C2307 C2306 1.358 . S
C2307 H2311 0.930 . S
C2308 C2306 1.356 . S
C2308 C2309 1.348 . S
C2309 C2304 1.353 . S
C2309 C2308 1.348 . S
C2309 H2361 0.929 . S
H2310 C2304 0.930 . S
H2311 C2307 0.930 . S
C2312 N2313 1.314 . S
C2312 C2314 1.353 . S
C2312 H2318 0.930 . S
N2313 Li2289 1.990 . S
N2313 C2312 1.314 . S
N2313 C2316 1.279 . S
C2314 C2312 1.353 . S
C2314 C2317 1.348 . S
C2314 H2362 0.929 . S
C2315 C2316 1.358 . S
C2315 C2317 1.356 . S
C2315 H2363 0.930 . S
C2316 N2313 1.279 . S
C2316 C2315 1.358 . S
C2316 H2319 0.930 . S
C2317 C2314 1.348 . S
C2317 C2315 1.356 . S
H2318 C2312 0.930 . S
H2319 C2316 0.930 . S
C2320 C2322 1.348 . S
C2320 C2323 1.356 . S
C2320 O2350 1.325 . S
N2321 C2324 1.314 . S
N2321 C2325 1.279 . S
C2322 C2320 1.348 . S
C2322 C2324 1.353 . S
C2322 H2364 0.929 . S
C2323 C2320 1.356 . S
C2323 C2325 1.358 . S
C2323 H2365 0.930 . S
C2324 N2321 1.314 . S
C2324 C2322 1.353 . S
C2324 H2366 0.930 . S
C2325 N2321 1.279 . S
C2325 C2323 1.358 . S
C2325 H2367 0.930 . S
C2326 C2327 1.346 1_554 S
C2326 C2328 1.358 . S
C2326 O2351 1.324 1_554 S
C2327 C2326 1.346 1_556 S
C2327 C2329 1.353 . S
C2327 H2368 0.929 . S
C2328 C2326 1.358 . S
C2328 C2330 1.358 . S
C2328 H2369 0.930 . S
C2329 C2327 1.353 . S
C2329 N2331 1.314 1_556 S
C2329 H2370 0.930 . S
C2330 C2328 1.358 . S
C2330 N2331 1.279 . S
C2330 H2371 0.930 . S
N2331 C2329 1.314 1_554 S
N2331 C2330 1.279 . S
C2332 C2334 1.353 . S
C2332 N2335 1.314 . S
C2332 H2338 0.930 1_556 S
C2333 N2335 1.279 . S
C2333 C2336 1.358 . S
C2333 H2339 0.930 . S
C2334 C2332 1.353 . S
C2334 C2337 1.348 . S
C2334 H2372 0.929 . S
N2335 Li2290 1.990 . S
N2335 C2332 1.314 . S
N2335 C2333 1.279 . S
C2336 C2333 1.358 . S
C2336 C2337 1.356 . S
C2336 H2373 0.930 . S
C2337 C2334 1.348 . S
C2337 C2336 1.356 . S
H2338 C2332 0.930 1_554 S
H2339 C2333 0.930 . S
C2340 N2341 1.314 . S
C2340 C2342 1.353 . S
C2340 H2346 0.930 . S
N2341 Li2291 1.990 . S
N2341 C2340 1.314 . S
N2341 C2344 1.279 . S
C2342 C2340 1.353 . S
C2342 C2345 1.348 . S
C2342 H2374 0.929 . S
C2343 C2344 1.358 . S
C2343 C2345 1.356 . S
C2343 H2375 0.930 . S
C2344 N2341 1.279 . S
C2344 C2343 1.358 . S
C2344 H2347 0.930 . S
C2345 C2342 1.348 . S
C2345 C2343 1.356 . S
H2346 C2340 0.930 . S
H2347 C2344 0.930 . S
O2348 Li2288 1.956 1_554 S
O2348 Li2289 1.970 . S
O2348 Li2290 1.961 1_554 S
O2348 C2292 1.325 . S
O2349 Li2288 1.970 . S
O2349 Li2289 1.956 1_556 S
O2349 Li2291 1.961 . S
O2349 C2298 1.325 . S
O2350 Li2288 1.961 . S
O2350 Li2290 1.956 . S
O2350 Li2291 1.970 . S
O2350 C2320 1.325 . S
O2351 Li2289 1.961 1_556 S
O2351 Li2290 1.970 . S
O2351 Li2291 1.956 . S
O2351 C2326 1.324 1_556 S
H2352 C2294 0.929 . S
H2353 C2295 0.930 1_556 S
H2354 C2296 0.930 . S
H2355 C2297 0.930 . S
H2356 C2299 0.930 . S
H2357 C2301 0.928 1_556 S
H2358 C2302 0.930 . S
H2359 C2303 0.930 . S
H2360 C2306 0.930 . S
H2361 C2309 0.929 . S
H2362 C2314 0.929 . S
H2363 C2315 0.930 . S
H2364 C2322 0.929 . S
H2365 C2323 0.930 . S
H2366 C2324 0.930 . S
H2367 C2325 0.930 . S
H2368 C2327 0.929 . S
H2369 C2328 0.930 . S
H2370 C2329 0.930 . S
H2371 C2330 0.930 . S
H2372 C2334 0.929 . S
H2373 C2336 0.930 . S
H2374 C2342 0.929 . S
H2375 C2343 0.930 . S
Li2376 N2393 1.990 . S
Li2376 O2436 1.956 1_554 S
Li2376 O2437 1.970 . S
Li2376 O2438 1.961 1_554 S
Li2377 N2401 1.990 . S
Li2377 O2436 1.970 . S
Li2377 O2437 1.956 1_556 S
Li2377 O2439 1.961 . S
Li2378 N2423 1.990 . S
Li2378 O2436 1.961 . S
Li2378 O2438 1.956 . S
Li2378 O2439 1.970 . S
Li2379 N2429 1.990 . S
Li2379 O2437 1.961 1_556 S
Li2379 O2438 1.970 . S
Li2379 O2439 1.956 . S
C2380 C2382 1.348 1_556 S
C2380 C2383 1.356 1_556 S
C2380 O2436 1.325 . S
N2381 C2384 1.314 . S
N2381 C2385 1.279 . S
C2382 C2380 1.348 1_554 S
C2382 C2384 1.353 . S
C2382 H2440 0.928 1_554 S
C2383 C2380 1.356 1_554 S
C2383 C2385 1.358 . S
C2383 H2441 0.930 . S
C2384 N2381 1.314 . S
C2384 C2382 1.353 . S
C2384 H2442 0.930 . S
C2385 N2381 1.279 . S
C2385 C2383 1.358 . S
C2385 H2443 0.930 . S
C2386 C2389 1.348 . S
C2386 C2390 1.356 . S
C2386 O2437 1.325 . S
C2387 N2388 1.279 . S
C2387 C2390 1.358 . S
C2387 H2444 0.930 . S
N2388 C2387 1.279 . S
N2388 C2391 1.314 . S
C2389 C2386 1.348 . S
C2389 C2391 1.353 . S
C2389 H2445 0.929 . S
C2390 C2386 1.356 . S
C2390 C2387 1.358 . S
C2390 H2446 0.930 1_554 S
C2391 N2388 1.314 . S
C2391 C2389 1.353 . S
C2391 H2447 0.930 . S
C2392 N2393 1.314 . S
C2392 C2397 1.353 . S
C2392 H2398 0.930 . S
N2393 Li2376 1.990 . S
N2393 C2392 1.314 . S
N2393 C2395 1.279 . S
C2394 C2395 1.358 . S
C2394 C2396 1.356 . S
C2394 H2448 0.930 . S
C2395 N2393 1.279 . S
C2395 C2394 1.358 . S
C2395 H2399 0.930 . S
C2396 C2394 1.356 . S
C2396 C2397 1.348 . S
C2397 C2392 1.353 . S
C2397 C2396 1.348 . S
C2397 H2449 0.929 . S
H2398 C2392 0.930 . S
H2399 C2395 0.930 . S
C2400 N2401 1.314 . S
C2400 C2402 1.353 . S
C2400 H2406 0.930 . S
N2401 Li2377 1.990 . S
N2401 C2400 1.314 . S
N2401 C2404 1.279 . S
C2402 C2400 1.353 . S
C2402 C2405 1.348 . S
C2402 H2450 0.929 . S
C2403 C2404 1.358 . S
C2403 C2405 1.356 . S
C2403 H2451 0.930 . S
C2404 N2401 1.279 . S
C2404 C2403 1.358 . S
C2404 H2407 0.930 . S
C2405 C2402 1.348 . S
C2405 C2403 1.356 . S
H2406 C2400 0.930 . S
H2407 C2404 0.930 . S
C2408 C2410 1.346 1_554 S
C2408 C2411 1.358 . S
C2408 O2438 1.324 1_554 S
N2409 C2412 1.314 1_554 S
N2409 C2413 1.279 . S
C2410 C2408 1.346 1_556 S
C2410 C2412 1.353 . S
C2410 H2452 0.929 . S
C2411 C2408 1.358 . S
C2411 C2413 1.358 . S
C2411 H2453 0.930 . S
C2412 N2409 1.314 1_556 S
C2412 C2410 1.353 . S
C2412 H2454 0.930 . S
C2413 N2409 1.279 . S
C2413 C2411 1.358 . S
C2413 H2455 0.930 . S
C2414 C2415 1.348 . S
C2414 C2416 1.356 . S
C2414 O2439 1.325 . S
C2415 C2414 1.348 . S
C2415 C2417 1.353 . S
C2415 H2456 0.929 . S
C2416 C2414 1.356 . S
C2416 C2418 1.358 . S
C2416 H2457 0.930 . S
C2417 C2415 1.353 . S
C2417 N2419 1.314 . S
C2417 H2458 0.930 . S
C2418 C2416 1.358 . S
C2418 N2419 1.279 . S
C2418 H2459 0.930 . S
N2419 C2417 1.314 . S
N2419 C2418 1.279 . S
C2420 C2422 1.353 . S
C2420 N2423 1.314 . S
C2420 H2426 0.930 . S
C2421 N2423 1.279 . S
C2421 C2424 1.358 . S
C2421 H2427 0.930 . S
C2422 C2420 1.353 . S
C2422 C2425 1.348 . S
C2422 H2460 0.929 . S
N2423 Li2378 1.990 . S
N2423 C2420 1.314 . S
N2423 C2421 1.279 . S
C2424 C2421 1.358 . S
C2424 C2425 1.356 . S
C2424 H2461 0.930 . S
C2425 C2422 1.348 . S
C2425 C2424 1.356 . S
H2426 C2420 0.930 . S
H2427 C2421 0.930 . S
C2428 N2429 1.314 . S
C2428 C2430 1.353 . S
C2428 H2434 0.930 1_556 S
N2429 Li2379 1.990 . S
N2429 C2428 1.314 . S
N2429 C2432 1.279 . S
C2430 C2428 1.353 . S
C2430 C2433 1.348 . S
C2430 H2462 0.929 . S
C2431 C2432 1.358 . S
C2431 C2433 1.356 . S
C2431 H2463 0.930 . S
C2432 N2429 1.279 . S
C2432 C2431 1.358 . S
C2432 H2435 0.930 . S
C2433 C2430 1.348 . S
C2433 C2431 1.356 . S
H2434 C2428 0.930 1_554 S
H2435 C2432 0.930 . S
O2436 Li2376 1.956 1_556 S
O2436 Li2377 1.970 . S
O2436 Li2378 1.961 . S
O2436 C2380 1.325 . S
O2437 Li2376 1.970 . S
O2437 Li2377 1.956 1_554 S
O2437 Li2379 1.961 1_554 S
O2437 C2386 1.325 . S
O2438 Li2376 1.961 1_556 S
O2438 Li2378 1.956 . S
O2438 Li2379 1.970 . S
O2438 C2408 1.324 1_556 S
O2439 Li2377 1.961 . S
O2439 Li2378 1.970 . S
O2439 Li2379 1.956 . S
O2439 C2414 1.325 . S
H2440 C2382 0.928 1_556 S
H2441 C2383 0.930 . S
H2442 C2384 0.930 . S
H2443 C2385 0.930 . S
H2444 C2387 0.930 . S
H2445 C2389 0.929 . S
H2446 C2390 0.930 1_556 S
H2447 C2391 0.930 . S
H2448 C2394 0.930 . S
H2449 C2397 0.929 . S
H2450 C2402 0.929 . S
H2451 C2403 0.930 . S
H2452 C2410 0.929 . S
H2453 C2411 0.930 . S
H2454 C2412 0.930 . S
H2455 C2413 0.930 . S
H2456 C2415 0.929 . S
H2457 C2416 0.930 . S
H2458 C2417 0.930 . S
H2459 C2418 0.930 . S
H2460 C2422 0.929 . S
H2461 C2424 0.930 . S
H2462 C2430 0.929 . S
H2463 C2431 0.930 . S
Li2464 N2481 1.990 . S
Li2464 O2524 1.956 . S
Li2464 O2525 1.970 . S
Li2464 O2526 1.961 . S
Li2465 N2489 1.990 . S
Li2465 O2524 1.970 . S
Li2465 O2525 1.956 . S
Li2465 O2527 1.961 . S
Li2466 N2511 1.990 . S
Li2466 O2524 1.961 . S
Li2466 O2526 1.956 . S
Li2466 O2527 1.970 . S
Li2467 N2517 1.990 . S
Li2467 O2525 1.961 . S
Li2467 O2526 1.970 . S
Li2467 O2527 1.956 . S
C2468 C2470 1.348 . S
C2468 C2471 1.356 . S
C2468 O2524 1.325 . S
N2469 C2472 1.314 . S
N2469 C2473 1.279 . S
C2470 C2468 1.348 . S
C2470 C2472 1.353 . S
C2470 H2528 0.929 . S
C2471 C2468 1.356 . S
C2471 C2473 1.358 . S
C2471 H2529 0.930 . S
C2472 N2469 1.314 . S
C2472 C2470 1.353 . S
C2472 H2530 0.930 . S
C2473 N2469 1.279 . S
C2473 C2471 1.358 . S
C2473 H2531 0.930 . S
C2474 C2477 1.348 . S
C2474 C2478 1.356 . S
C2474 O2525 1.325 . S
C2475 N2476 1.279 . S
C2475 C2478 1.358 . S
C2475 H2532 0.930 . S
N2476 C2475 1.279 . S
N2476 C2479 1.314 . S
C2477 C2474 1.348 . S
C2477 C2479 1.353 . S
C2477 H2533 0.929 . S
C2478 C2474 1.356 . S
C2478 C2475 1.358 . S
C2478 H2534 0.930 . S
C2479 N2476 1.314 . S
C2479 C2477 1.353 . S
C2479 H2535 0.930 . S
C2480 N2481 1.314 . S
C2480 C2485 1.353 . S
C2480 H2486 0.930 . S
N2481 Li2464 1.990 . S
N2481 C2480 1.314 . S
N2481 C2483 1.279 . S
C2482 C2483 1.358 . S
C2482 C2484 1.356 . S
C2482 H2536 0.930 . S
C2483 N2481 1.279 . S
C2483 C2482 1.358 . S
C2483 H2487 0.930 . S
C2484 C2482 1.356 . S
C2484 C2485 1.348 . S
C2485 C2480 1.353 . S
C2485 C2484 1.348 . S
C2485 H2537 0.929 . S
H2486 C2480 0.930 . S
H2487 C2483 0.930 . S
C2488 N2489 1.314 . S
C2488 C2490 1.353 . S
C2488 H2494 0.930 . S
N2489 Li2465 1.990 . S
N2489 C2488 1.314 . S
N2489 C2492 1.279 . S
C2490 C2488 1.353 . S
C2490 C2493 1.348 . S
C2490 H2538 0.929 . S
C2491 C2492 1.358 . S
C2491 C2493 1.356 . S
C2491 H2539 0.930 . S
C2492 N2489 1.279 . S
C2492 C2491 1.358 . S
C2492 H2495 0.930 . S
C2493 C2490 1.348 . S
C2493 C2491 1.356 . S
H2494 C2488 0.930 . S
H2495 C2492 0.930 . S
C2496 C2498 1.348 . S
C2496 C2499 1.356 . S
C2496 O2526 1.325 . S
N2497 C2500 1.314 . S
N2497 C2501 1.279 . S
C2498 C2496 1.348 . S
C2498 C2500 1.353 . S
C2498 H2540 0.929 . S
C2499 C2496 1.356 . S
C2499 C2501 1.358 . S
C2499 H2541 0.930 . S
C2500 N2497 1.314 . S
C2500 C2498 1.353 . S
C2500 H2542 0.930 . S
C2501 N2497 1.279 . S
C2501 C2499 1.358 . S
C2501 H2543 0.930 . S
C2502 C2503 1.348 . S
C2502 C2504 1.356 . S
C2502 O2527 1.325 . S
C2503 C2502 1.348 . S
C2503 C2505 1.353 . S
C2503 H2544 0.929 . S
C2504 C2502 1.356 . S
C2504 C2506 1.358 . S
C2504 H2545 0.930 . S
C2505 C2503 1.353 . S
C2505 N2507 1.314 . S
C2505 H2546 0.930 . S
C2506 C2504 1.358 . S
C2506 N2507 1.279 . S
C2506 H2547 0.930 . S
N2507 C2505 1.314 . S
N2507 C2506 1.279 . S
C2508 C2510 1.353 . S
C2508 N2511 1.314 . S
C2508 H2514 0.930 . S
C2509 N2511 1.279 . S
C2509 C2512 1.358 . S
C2509 H2515 0.930 . S
C2510 C2508 1.353 . S
C2510 C2513 1.348 . S
C2510 H2548 0.929 . S
N2511 Li2466 1.990 . S
N2511 C2508 1.314 . S
N2511 C2509 1.279 . S
C2512 C2509 1.358 . S
C2512 C2513 1.356 . S
C2512 H2549 0.930 . S
C2513 C2510 1.348 . S
C2513 C2512 1.356 . S
H2514 C2508 0.930 . S
H2515 C2509 0.930 . S
C2516 N2517 1.314 . S
C2516 C2518 1.353 . S
C2516 H2522 0.930 . S
N2517 Li2467 1.990 . S
N2517 C2516 1.314 . S
N2517 C2520 1.279 . S
C2518 C2516 1.353 . S
C2518 C2521 1.348 . S
C2518 H2550 0.929 . S
C2519 C2520 1.358 . S
C2519 C2521 1.356 . S
C2519 H2551 0.930 . S
C2520 N2517 1.279 . S
C2520 C2519 1.358 . S
C2520 H2523 0.930 . S
C2521 C2518 1.348 . S
C2521 C2519 1.356 . S
H2522 C2516 0.930 . S
H2523 C2520 0.930 . S
O2524 Li2464 1.956 . S
O2524 Li2465 1.970 . S
O2524 Li2466 1.961 . S
O2524 C2468 1.325 . S
O2525 Li2464 1.970 . S
O2525 Li2465 1.956 . S
O2525 Li2467 1.961 . S
O2525 C2474 1.325 . S
O2526 Li2464 1.961 . S
O2526 Li2466 1.956 . S
O2526 Li2467 1.970 . S
O2526 C2496 1.325 . S
O2527 Li2465 1.961 . S
O2527 Li2466 1.970 . S
O2527 Li2467 1.956 . S
O2527 C2502 1.325 . S
H2528 C2470 0.929 . S
H2529 C2471 0.930 . S
H2530 C2472 0.930 . S
H2531 C2473 0.930 . S
H2532 C2475 0.930 . S
H2533 C2477 0.929 . S
H2534 C2478 0.930 . S
H2535 C2479 0.930 . S
H2536 C2482 0.930 . S
H2537 C2485 0.929 . S
H2538 C2490 0.929 . S
H2539 C2491 0.930 . S
H2540 C2498 0.929 . S
H2541 C2499 0.930 . S
H2542 C2500 0.930 . S
H2543 C2501 0.930 . S
H2544 C2503 0.929 . S
H2545 C2504 0.930 . S
H2546 C2505 0.930 . S
H2547 C2506 0.930 . S
H2548 C2510 0.929 . S
H2549 C2512 0.930 . S
H2550 C2518 0.929 . S
H2551 C2519 0.930 . S
Li2552 N2569 1.990 . S
Li2552 O2612 1.956 . S
Li2552 O2613 1.970 . S
Li2552 O2614 1.961 . S
Li2553 N2577 1.990 . S
Li2553 O2612 1.970 . S
Li2553 O2613 1.956 . S
Li2553 O2615 1.961 . S
Li2554 N2599 1.990 . S
Li2554 O2612 1.961 . S
Li2554 O2614 1.956 . S
Li2554 O2615 1.970 . S
Li2555 N2605 1.990 . S
Li2555 O2613 1.961 . S
Li2555 O2614 1.970 . S
Li2555 O2615 1.956 . S
C2556 C2558 1.348 . S
C2556 C2559 1.356 . S
C2556 O2612 1.325 . S
N2557 C2560 1.314 . S
N2557 C2561 1.279 . S
C2558 C2556 1.348 . S
C2558 C2560 1.353 . S
C2558 H2616 0.929 . S
C2559 C2556 1.356 . S
C2559 C2561 1.358 . S
C2559 H2617 0.930 . S
C2560 N2557 1.314 . S
C2560 C2558 1.353 . S
C2560 H2618 0.930 . S
C2561 N2557 1.279 . S
C2561 C2559 1.358 . S
C2561 H2619 0.930 . S
C2562 C2565 1.348 . S
C2562 C2566 1.356 . S
C2562 O2613 1.325 . S
C2563 N2564 1.279 . S
C2563 C2566 1.358 . S
C2563 H2620 0.930 . S
N2564 C2563 1.279 . S
N2564 C2567 1.314 . S
C2565 C2562 1.348 . S
C2565 C2567 1.353 . S
C2565 H2621 0.929 . S
C2566 C2562 1.356 . S
C2566 C2563 1.358 . S
C2566 H2622 0.930 . S
C2567 N2564 1.314 . S
C2567 C2565 1.353 . S
C2567 H2623 0.930 . S
C2568 N2569 1.314 . S
C2568 C2573 1.353 . S
C2568 H2574 0.930 . S
N2569 Li2552 1.990 . S
N2569 C2568 1.314 . S
N2569 C2571 1.279 . S
C2570 C2571 1.358 . S
C2570 C2572 1.356 . S
C2570 H2624 0.930 . S
C2571 N2569 1.279 . S
C2571 C2570 1.358 . S
C2571 H2575 0.930 . S
C2572 C2570 1.356 . S
C2572 C2573 1.348 . S
C2573 C2568 1.353 . S
C2573 C2572 1.348 . S
C2573 H2625 0.929 . S
H2574 C2568 0.930 . S
H2575 C2571 0.930 . S
C2576 N2577 1.314 . S
C2576 C2578 1.353 . S
C2576 H2582 0.930 . S
N2577 Li2553 1.990 . S
N2577 C2576 1.314 . S
N2577 C2580 1.279 . S
C2578 C2576 1.353 . S
C2578 C2581 1.348 . S
C2578 H2626 0.929 . S
C2579 C2580 1.358 . S
C2579 C2581 1.356 . S
C2579 H2627 0.930 . S
C2580 N2577 1.279 . S
C2580 C2579 1.358 . S
C2580 H2583 0.930 . S
C2581 C2578 1.348 . S
C2581 C2579 1.356 . S
H2582 C2576 0.930 . S
H2583 C2580 0.930 . S
C2584 C2586 1.348 . S
C2584 C2587 1.356 . S
C2584 O2614 1.325 . S
N2585 C2588 1.314 . S
N2585 C2589 1.279 . S
C2586 C2584 1.348 . S
C2586 C2588 1.353 . S
C2586 H2628 0.929 . S
C2587 C2584 1.356 . S
C2587 C2589 1.358 . S
C2587 H2629 0.930 . S
C2588 N2585 1.314 . S
C2588 C2586 1.353 . S
C2588 H2630 0.930 . S
C2589 N2585 1.279 . S
C2589 C2587 1.358 . S
C2589 H2631 0.930 . S
C2590 C2591 1.348 . S
C2590 C2592 1.356 . S
C2590 O2615 1.325 . S
C2591 C2590 1.348 . S
C2591 C2593 1.353 . S
C2591 H2632 0.929 . S
C2592 C2590 1.356 . S
C2592 C2594 1.358 . S
C2592 H2633 0.930 . S
C2593 C2591 1.353 . S
C2593 N2595 1.314 . S
C2593 H2634 0.930 . S
C2594 C2592 1.358 . S
C2594 N2595 1.279 . S
C2594 H2635 0.930 . S
N2595 C2593 1.314 . S
N2595 C2594 1.279 . S
C2596 C2598 1.353 . S
C2596 N2599 1.314 . S
C2596 H2602 0.930 . S
C2597 N2599 1.279 . S
C2597 C2600 1.358 . S
C2597 H2603 0.930 . S
C2598 C2596 1.353 . S
C2598 C2601 1.348 . S
C2598 H2636 0.929 . S
N2599 Li2554 1.990 . S
N2599 C2596 1.314 . S
N2599 C2597 1.279 . S
C2600 C2597 1.358 . S
C2600 C2601 1.356 . S
C2600 H2637 0.930 . S
C2601 C2598 1.348 . S
C2601 C2600 1.356 . S
H2602 C2596 0.930 . S
H2603 C2597 0.930 . S
C2604 N2605 1.314 . S
C2604 C2606 1.353 . S
C2604 H2610 0.930 . S
N2605 Li2555 1.990 . S
N2605 C2604 1.314 . S
N2605 C2608 1.279 . S
C2606 C2604 1.353 . S
C2606 C2609 1.348 . S
C2606 H2638 0.929 . S
C2607 C2608 1.358 . S
C2607 C2609 1.356 . S
C2607 H2639 0.930 . S
C2608 N2605 1.279 . S
C2608 C2607 1.358 . S
C2608 H2611 0.930 . S
C2609 C2606 1.348 . S
C2609 C2607 1.356 . S
H2610 C2604 0.930 . S
H2611 C2608 0.930 . S
O2612 Li2552 1.956 . S
O2612 Li2553 1.970 . S
O2612 Li2554 1.961 . S
O2612 C2556 1.325 . S
O2613 Li2552 1.970 . S
O2613 Li2553 1.956 . S
O2613 Li2555 1.961 . S
O2613 C2562 1.325 . S
O2614 Li2552 1.961 . S
O2614 Li2554 1.956 . S
O2614 Li2555 1.970 . S
O2614 C2584 1.325 . S
O2615 Li2553 1.961 . S
O2615 Li2554 1.970 . S
O2615 Li2555 1.956 . S
O2615 C2590 1.325 . S
H2616 C2558 0.929 . S
H2617 C2559 0.930 . S
H2618 C2560 0.930 . S
H2619 C2561 0.930 . S
H2620 C2563 0.930 . S
H2621 C2565 0.929 . S
H2622 C2566 0.930 . S
H2623 C2567 0.930 . S
H2624 C2570 0.930 . S
H2625 C2573 0.929 . S
H2626 C2578 0.929 . S
H2627 C2579 0.930 . S
H2628 C2586 0.929 . S
H2629 C2587 0.930 . S
H2630 C2588 0.930 . S
H2631 C2589 0.930 . S
H2632 C2591 0.929 . S
H2633 C2592 0.930 . S
H2634 C2593 0.930 . S
H2635 C2594 0.930 . S
H2636 C2598 0.929 . S
H2637 C2600 0.930 . S
H2638 C2606 0.929 . S
H2639 C2607 0.930 . S
Li2640 N2657 1.990 . S
Li2640 O2700 1.956 . S
Li2640 O2701 1.970 . S
Li2640 O2702 1.961 1_554 S
Li2641 N2665 1.990 . S
Li2641 O2700 1.970 . S
Li2641 O2701 1.956 . S
Li2641 O2703 1.961 . S
Li2642 N2687 1.990 . S
Li2642 O2700 1.961 . S
Li2642 O2702 1.956 1_554 S
Li2642 O2703 1.970 . S
Li2643 N2693 1.990 . S
Li2643 O2701 1.961 1_556 S
Li2643 O2702 1.970 . S
Li2643 O2703 1.956 1_556 S
C2644 C2646 1.348 . S
C2644 C2647 1.356 . S
C2644 O2700 1.325 . S
N2645 C2648 1.314 . S
N2645 C2649 1.279 . S
C2646 C2644 1.348 . S
C2646 C2648 1.353 . S
C2646 H2704 0.929 . S
C2647 C2644 1.356 . S
C2647 C2649 1.358 . S
C2647 H2705 0.930 . S
C2648 N2645 1.314 . S
C2648 C2646 1.353 . S
C2648 H2706 0.930 . S
C2649 N2645 1.279 . S
C2649 C2647 1.358 . S
C2649 H2707 0.930 . S
C2650 C2653 1.348 . S
C2650 C2654 1.356 1_554 S
C2650 O2701 1.325 . S
C2651 N2652 1.279 . S
C2651 C2654 1.358 . S
C2651 H2708 0.930 . S
N2652 C2651 1.279 . S
N2652 C2655 1.314 1_556 S
C2653 C2650 1.348 . S
C2653 C2655 1.353 . S
C2653 H2709 0.929 . S
C2654 C2650 1.356 1_556 S
C2654 C2651 1.358 . S
C2654 H2710 0.930 . S
C2655 N2652 1.314 1_554 S
C2655 C2653 1.353 . S
C2655 H2711 0.930 . S
C2656 N2657 1.314 . S
C2656 C2661 1.353 . S
C2656 H2662 0.930 1_554 S
N2657 Li2640 1.990 . S
N2657 C2656 1.314 . S
N2657 C2659 1.279 . S
C2658 C2659 1.358 . S
C2658 C2660 1.356 . S
C2658 H2712 0.930 . S
C2659 N2657 1.279 . S
C2659 C2658 1.358 . S
C2659 H2663 0.930 . S
C2660 C2658 1.356 . S
C2660 C2661 1.348 . S
C2661 C2656 1.353 . S
C2661 C2660 1.348 . S
C2661 H2713 0.929 . S
H2662 C2656 0.930 1_556 S
H2663 C2659 0.930 . S
C2664 N2665 1.314 . S
C2664 C2666 1.353 . S
C2664 H2670 0.930 . S
N2665 Li2641 1.990 . S
N2665 C2664 1.314 . S
N2665 C2668 1.279 . S
C2666 C2664 1.353 . S
C2666 C2669 1.348 . S
C2666 H2714 0.929 . S
C2667 C2668 1.358 . S
C2667 C2669 1.356 . S
C2667 H2715 0.930 . S
C2668 N2665 1.279 . S
C2668 C2667 1.358 . S
C2668 H2671 0.930 . S
C2669 C2666 1.348 . S
C2669 C2667 1.356 . S
H2670 C2664 0.930 . S
H2671 C2668 0.930 . S
C2672 C2674 1.348 . S
C2672 C2675 1.356 . S
C2672 O2702 1.325 . S
N2673 C2676 1.314 . S
N2673 C2677 1.279 . S
C2674 C2672 1.348 . S
C2674 C2676 1.353 . S
C2674 H2716 0.929 . S
C2675 C2672 1.356 . S
C2675 C2677 1.358 . S
C2675 H2717 0.930 1_556 S
C2676 N2673 1.314 . S
C2676 C2674 1.353 . S
C2676 H2718 0.930 . S
C2677 N2673 1.279 . S
C2677 C2675 1.358 . S
C2677 H2719 0.930 . S
C2678 C2679 1.346 1_554 S
C2678 C2680 1.354 1_554 S
C2678 O2703 1.327 . S
C2679 C2678 1.346 1_556 S
C2679 C2681 1.353 . S
C2679 H2720 0.929 . S
C2680 C2678 1.354 1_556 S
C2680 C2682 1.358 . S
C2680 H2721 0.930 . S
C2681 C2679 1.353 . S
C2681 N2683 1.314 . S
C2681 H2722 0.930 . S
C2682 C2680 1.358 . S
C2682 N2683 1.279 . S
C2682 H2723 0.930 . S
N2683 C2681 1.314 . S
N2683 C2682 1.279 . S
C2684 C2686 1.353 . S
C2684 N2687 1.314 . S
C2684 H2690 0.930 . S
C2685 N2687 1.279 . S
C2685 C2688 1.358 . S
C2685 H2691 0.941 . S
C2686 C2684 1.353 . S
C2686 C2689 1.348 . S
C2686 H2724 0.929 . S
N2687 Li2642 1.990 . S
N2687 C2684 1.314 . S
N2687 C2685 1.279 . S
C2688 C2685 1.358 . S
C2688 C2689 1.356 . S
C2688 H2725 0.930 . S
C2689 C2686 1.348 . S
C2689 C2688 1.356 . S
H2690 C2684 0.930 . S
H2691 C2685 0.941 . S
C2692 N2693 1.314 . S
C2692 C2694 1.353 . S
C2692 H2698 0.930 . S
N2693 Li2643 1.990 . S
N2693 C2692 1.314 . S
N2693 C2696 1.279 . S
C2694 C2692 1.353 . S
C2694 C2697 1.348 . S
C2694 H2726 0.929 . S
C2695 C2696 1.358 . S
C2695 C2697 1.356 . S
C2695 H2727 0.930 . S
C2696 N2693 1.279 . S
C2696 C2695 1.358 . S
C2696 H2699 0.930 . S
C2697 C2694 1.348 . S
C2697 C2695 1.356 . S
H2698 C2692 0.930 . S
H2699 C2696 0.930 . S
O2700 Li2640 1.956 . S
O2700 Li2641 1.970 . S
O2700 Li2642 1.961 . S
O2700 C2644 1.325 . S
O2701 Li2640 1.970 . S
O2701 Li2641 1.956 . S
O2701 Li2643 1.961 1_554 S
O2701 C2650 1.325 . S
O2702 Li2640 1.961 1_556 S
O2702 Li2642 1.956 1_556 S
O2702 Li2643 1.970 . S
O2702 C2672 1.325 . S
O2703 Li2641 1.961 . S
O2703 Li2642 1.970 . S
O2703 Li2643 1.956 1_554 S
O2703 C2678 1.327 . S
H2704 C2646 0.929 . S
H2705 C2647 0.930 . S
H2706 C2648 0.930 . S
H2707 C2649 0.930 . S
H2708 C2651 0.930 . S
H2709 C2653 0.929 . S
H2710 C2654 0.930 . S
H2711 C2655 0.930 . S
H2712 C2658 0.930 . S
H2713 C2661 0.929 . S
H2714 C2666 0.929 . S
H2715 C2667 0.930 . S
H2716 C2674 0.929 . S
H2717 C2675 0.930 1_554 S
H2718 C2676 0.930 . S
H2719 C2677 0.930 . S
H2720 C2679 0.929 . S
H2721 C2680 0.930 . S
H2722 C2681 0.930 . S
H2723 C2682 0.930 . S
H2724 C2686 0.929 . S
H2725 C2688 0.930 . S
H2726 C2694 0.929 . S
H2727 C2695 0.930 . S
Li2728 N2745 1.990 . S
Li2728 O2788 1.956 . S
Li2728 O2789 1.970 . S
Li2728 O2790 1.961 1_554 S
Li2729 N2753 1.990 . S
Li2729 O2788 1.970 . S
Li2729 O2789 1.956 . S
Li2729 O2791 1.961 . S
Li2730 N2775 1.990 . S
Li2730 O2788 1.961 . S
Li2730 O2790 1.956 1_554 S
Li2730 O2791 1.970 . S
Li2731 N2781 1.990 . S
Li2731 O2789 1.961 1_556 S
Li2731 O2790 1.970 . S
Li2731 O2791 1.956 1_556 S
C2732 C2734 1.348 . S
C2732 C2735 1.356 . S
C2732 O2788 1.325 . S
N2733 C2736 1.314 . S
N2733 C2737 1.279 . S
C2734 C2732 1.348 . S
C2734 C2736 1.353 . S
C2734 H2792 0.929 . S
C2735 C2732 1.356 . S
C2735 C2737 1.358 . S
C2735 H2793 0.930 . S
C2736 N2733 1.314 . S
C2736 C2734 1.353 . S
C2736 H2794 0.930 . S
C2737 N2733 1.279 . S
C2737 C2735 1.358 . S
C2737 H2795 0.930 . S
C2738 C2741 1.348 . S
C2738 C2742 1.356 1_554 S
C2738 O2789 1.325 . S
C2739 N2740 1.279 . S
C2739 C2742 1.358 . S
C2739 H2796 0.930 . S
N2740 C2739 1.279 . S
N2740 C2743 1.314 1_556 S
C2741 C2738 1.348 . S
C2741 C2743 1.353 . S
C2741 H2797 0.929 . S
C2742 C2738 1.356 1_556 S
C2742 C2739 1.358 . S
C2742 H2798 0.930 . S
C2743 N2740 1.314 1_554 S
C2743 C2741 1.353 . S
C2743 H2799 0.930 . S
C2744 N2745 1.314 . S
C2744 C2749 1.353 . S
C2744 H2750 0.930 1_554 S
N2745 Li2728 1.990 . S
N2745 C2744 1.314 . S
N2745 C2747 1.279 . S
C2746 C2747 1.358 . S
C2746 C2748 1.356 . S
C2746 H2800 0.930 . S
C2747 N2745 1.279 . S
C2747 C2746 1.358 . S
C2747 H2751 0.930 . S
C2748 C2746 1.356 . S
C2748 C2749 1.348 . S
C2749 C2744 1.353 . S
C2749 C2748 1.348 . S
C2749 H2801 0.929 . S
H2750 C2744 0.930 1_556 S
H2751 C2747 0.930 . S
C2752 N2753 1.314 . S
C2752 C2754 1.353 . S
C2752 H2758 0.930 . S
N2753 Li2729 1.990 . S
N2753 C2752 1.314 . S
N2753 C2756 1.279 . S
C2754 C2752 1.353 . S
C2754 C2757 1.348 . S
C2754 H2802 0.929 . S
C2755 C2756 1.358 . S
C2755 C2757 1.356 . S
C2755 H2803 0.930 . S
C2756 N2753 1.279 . S
C2756 C2755 1.358 . S
C2756 H2759 0.930 . S
C2757 C2754 1.348 . S
C2757 C2755 1.356 . S
H2758 C2752 0.930 . S
H2759 C2756 0.930 . S
C2760 C2762 1.348 . S
C2760 C2763 1.356 . S
C2760 O2790 1.325 . S
N2761 C2764 1.314 . S
N2761 C2765 1.279 . S
C2762 C2760 1.348 . S
C2762 C2764 1.353 . S
C2762 H2804 0.929 . S
C2763 C2760 1.356 . S
C2763 C2765 1.358 . S
C2763 H2805 0.930 1_556 S
C2764 N2761 1.314 . S
C2764 C2762 1.353 . S
C2764 H2806 0.930 . S
C2765 N2761 1.279 . S
C2765 C2763 1.358 . S
C2765 H2807 0.930 . S
C2766 C2767 1.346 1_554 S
C2766 C2768 1.354 1_554 S
C2766 O2791 1.327 . S
C2767 C2766 1.346 1_556 S
C2767 C2769 1.353 . S
C2767 H2808 0.929 . S
C2768 C2766 1.354 1_556 S
C2768 C2770 1.358 . S
C2768 H2809 0.930 . S
C2769 C2767 1.353 . S
C2769 N2771 1.314 . S
C2769 H2810 0.930 . S
C2770 C2768 1.358 . S
C2770 N2771 1.279 . S
C2770 H2811 0.930 . S
N2771 C2769 1.314 . S
N2771 C2770 1.279 . S
C2772 C2774 1.353 . S
C2772 N2775 1.314 . S
C2772 H2778 0.930 . S
C2773 N2775 1.279 . S
C2773 C2776 1.358 . S
C2773 H2779 0.941 . S
C2774 C2772 1.353 . S
C2774 C2777 1.348 . S
C2774 H2812 0.929 . S
N2775 Li2730 1.990 . S
N2775 C2772 1.314 . S
N2775 C2773 1.279 . S
C2776 C2773 1.358 . S
C2776 C2777 1.356 . S
C2776 H2813 0.930 . S
C2777 C2774 1.348 . S
C2777 C2776 1.356 . S
H2778 C2772 0.930 . S
H2779 C2773 0.941 . S
C2780 N2781 1.314 . S
C2780 C2782 1.353 . S
C2780 H2786 0.930 . S
N2781 Li2731 1.990 . S
N2781 C2780 1.314 . S
N2781 C2784 1.279 . S
C2782 C2780 1.353 . S
C2782 C2785 1.348 . S
C2782 H2814 0.929 . S
C2783 C2784 1.358 . S
C2783 C2785 1.356 . S
C2783 H2815 0.930 . S
C2784 N2781 1.279 . S
C2784 C2783 1.358 . S
C2784 H2787 0.930 . S
C2785 C2782 1.348 . S
C2785 C2783 1.356 . S
H2786 C2780 0.930 . S
H2787 C2784 0.930 . S
O2788 Li2728 1.956 . S
O2788 Li2729 1.970 . S
O2788 Li2730 1.961 . S
O2788 C2732 1.325 . S
O2789 Li2728 1.970 . S
O2789 Li2729 1.956 . S
O2789 Li2731 1.961 1_554 S
O2789 C2738 1.325 . S
O2790 Li2728 1.961 1_556 S
O2790 Li2730 1.956 1_556 S
O2790 Li2731 1.970 . S
O2790 C2760 1.325 . S
O2791 Li2729 1.961 . S
O2791 Li2730 1.970 . S
O2791 Li2731 1.956 1_554 S
O2791 C2766 1.327 . S
H2792 C2734 0.929 . S
H2793 C2735 0.930 . S
H2794 C2736 0.930 . S
H2795 C2737 0.930 . S
H2796 C2739 0.930 . S
H2797 C2741 0.929 . S
H2798 C2742 0.930 . S
H2799 C2743 0.930 . S
H2800 C2746 0.930 . S
H2801 C2749 0.929 . S
H2802 C2754 0.929 . S
H2803 C2755 0.930 . S
H2804 C2762 0.929 . S
H2805 C2763 0.930 1_554 S
H2806 C2764 0.930 . S
H2807 C2765 0.930 . S
H2808 C2767 0.929 . S
H2809 C2768 0.930 . S
H2810 C2769 0.930 . S
H2811 C2770 0.930 . S
H2812 C2774 0.929 . S
H2813 C2776 0.930 . S
H2814 C2782 0.929 . S
H2815 C2783 0.930 . S
C284 C49 4.211 . S
C196 C137 4.211 . S
C673 C372 4.193 . S
C577 C469 4.193 . S
C753 C988 4.211 . S
C841 C909 4.211 . S
C1377 C1076 4.193 . S
C1173 C1281 4.193 . S
C1465 C1701 4.211 . S
C1545 C1613 4.211 . S
C2081 C1780 4.193 . S
C1985 C1868 4.193 . S
C2396 C2169 4.211 . S
C2249 C2317 4.211 . S
C2484 C2785 4.193 . S
C2581 C2697 4.193 . S
C1817 C57 4.983 1_565 S
C1193 C145 4.983 1_455 S
C205 C2660 4.985 1_556 S
C293 C636 4.985 1_646 S
C1457 C409 4.983 1_545 S
C849 C489 4.983 1_655 S
C2308 C557 4.985 1_556 S
C761 C2521 4.983 . S
C1965 C900 4.987 . S
C1340 C997 4.987 1_455 S
C2161 C1113 4.983 . S
C1261 C1604 4.987 . S
C2601 C1553 4.983 . S
C1692 C2044 4.987 1_545 S
C2257 C1905 4.983 . S
C2748 C2405 4.985 1_554 S
C117 C29 3.474 . S
C233 C321 3.475 . S
C381 C460 3.486 . S
C665 C585 3.487 . S
C733 C821 3.473 . S
C929 C1025 3.476 . S
C1164 C1085 3.486 . S
C1289 C1369 3.488 . S
C1428 C1525 3.473 . S
C1633 C1721 3.476 . S
C1789 C1877 3.486 . S
C2073 C1993 3.488 . S
C2229 C2132 3.474 . S
C2337 C2433 3.475 . S
C2493 C2572 3.486 . S
C2777 C2689 3.487 . S
C20 C1729 2.416 . S
C108 C1641 2.416 . S
C1516 C225 2.417 . S
C313 C1437 2.417 . S
C2053 C401 2.407 . S
C497 C1956 2.407 . S
C1897 C548 2.407 . S
C645 C1809 2.407 . S
C724 C2425 2.417 . S
C812 C2345 2.417 . S
C937 C2220 2.416 . S
C2141 C1017 2.416 . S
C1105 C2757 2.407 . S
C1201 C2669 2.407 . S
C1252 C2609 2.407 . S
C2513 C1349 2.407 . S
