# Generated by pormake.
# Topology wmi, (6)-cn, num edge types: 1
# Building blocks:
#     Node 0, Type 0, BuildingBlock: MIFKUJ_clean_sbu_0, # of connection points: 6
#     Node 1, Type 0, BuildingBlock: MIFKUJ_clean_sbu_0, # of connection points: 6
#     Node 2, Type 0, BuildingBlock: MIFKUJ_clean_sbu_0, # of connection points: 6
#     Node 3, Type 0, BuildingBlock: MIFKUJ_clean_sbu_0, # of connection points: 6
#     Node 4, Type 0, BuildingBlock: MIFKUJ_clean_sbu_0, # of connection points: 6
#     Node 5, Type 0, BuildingBlock: MIFKUJ_clean_sbu_0, # of connection points: 6
#     Node 6, Type 0, BuildingBlock: MIFKUJ_clean_sbu_0, # of connection points: 6
#     Node 7, Type 0, BuildingBlock: MIFKUJ_clean_sbu_0, # of connection points: 6
#     Node 8, Type 0, BuildingBlock: MIFKUJ_clean_sbu_0, # of connection points: 6
#     Node 9, Type 0, BuildingBlock: MIFKUJ_clean_sbu_0, # of connection points: 6
#     Node 10, Type 0, BuildingBlock: MIFKUJ_clean_sbu_0, # of connection points: 6
#     Node 11, Type 0, BuildingBlock: MIFKUJ_clean_sbu_0, # of connection points: 6
#     Node 12, Type 0, BuildingBlock: MIFKUJ_clean_sbu_0, # of connection points: 6
#     Node 13, Type 0, BuildingBlock: MIFKUJ_clean_sbu_0, # of connection points: 6
#     Node 14, Type 0, BuildingBlock: MIFKUJ_clean_sbu_0, # of connection points: 6
#     Node 15, Type 0, BuildingBlock: MIFKUJ_clean_sbu_0, # of connection points: 6
#     Node 16, Type 0, BuildingBlock: MIFKUJ_clean_sbu_0, # of connection points: 6
#     Node 17, Type 0, BuildingBlock: MIFKUJ_clean_sbu_0, # of connection points: 6
#     Edge 18, Type (0, 0), BuildingBlock: AJUNOK_clean_linker_0, # of connection points: 2
#     Edge 19, Type (0, 0), BuildingBlock: AJUNOK_clean_linker_0, # of connection points: 2
#     Edge 20, Type (0, 0), BuildingBlock: AJUNOK_clean_linker_0, # of connection points: 2
#     Edge 21, Type (0, 0), BuildingBlock: AJUNOK_clean_linker_0, # of connection points: 2
#     Edge 22, Type (0, 0), BuildingBlock: AJUNOK_clean_linker_0, # of connection points: 2
#     Edge 23, Type (0, 0), BuildingBlock: AJUNOK_clean_linker_0, # of connection points: 2
#     Edge 24, Type (0, 0), BuildingBlock: AJUNOK_clean_linker_0, # of connection points: 2
#     Edge 25, Type (0, 0), BuildingBlock: AJUNOK_clean_linker_0, # of connection points: 2
#     Edge 26, Type (0, 0), BuildingBlock: AJUNOK_clean_linker_0, # of connection points: 2
#     Edge 27, Type (0, 0), BuildingBlock: AJUNOK_clean_linker_0, # of connection points: 2
#     Edge 28, Type (0, 0), BuildingBlock: AJUNOK_clean_linker_0, # of connection points: 2
#     Edge 29, Type (0, 0), BuildingBlock: AJUNOK_clean_linker_0, # of connection points: 2
#     Edge 30, Type (0, 0), BuildingBlock: AJUNOK_clean_linker_0, # of connection points: 2
#     Edge 31, Type (0, 0), BuildingBlock: AJUNOK_clean_linker_0, # of connection points: 2
#     Edge 32, Type (0, 0), BuildingBlock: AJUNOK_clean_linker_0, # of connection points: 2
#     Edge 33, Type (0, 0), BuildingBlock: AJUNOK_clean_linker_0, # of connection points: 2
#     Edge 34, Type (0, 0), BuildingBlock: AJUNOK_clean_linker_0, # of connection points: 2
#     Edge 35, Type (0, 0), BuildingBlock: AJUNOK_clean_linker_0, # of connection points: 2
#     Edge 36, Type (0, 0), BuildingBlock: AJUNOK_clean_linker_0, # of connection points: 2
#     Edge 37, Type (0, 0), BuildingBlock: AJUNOK_clean_linker_0, # of connection points: 2
#     Edge 38, Type (0, 0), BuildingBlock: AJUNOK_clean_linker_0, # of connection points: 2
#     Edge 39, Type (0, 0), BuildingBlock: AJUNOK_clean_linker_0, # of connection points: 2
#     Edge 40, Type (0, 0), BuildingBlock: AJUNOK_clean_linker_0, # of connection points: 2
#     Edge 41, Type (0, 0), BuildingBlock: AJUNOK_clean_linker_0, # of connection points: 2
#     Edge 42, Type (0, 0), BuildingBlock: AJUNOK_clean_linker_0, # of connection points: 2
#     Edge 43, Type (0, 0), BuildingBlock: AJUNOK_clean_linker_0, # of connection points: 2
#     Edge 44, Type (0, 0), BuildingBlock: AJUNOK_clean_linker_0, # of connection points: 2
#     Edge 45, Type (0, 0), BuildingBlock: AJUNOK_clean_linker_0, # of connection points: 2
#     Edge 46, Type (0, 0), BuildingBlock: AJUNOK_clean_linker_0, # of connection points: 2
#     Edge 47, Type (0, 0), BuildingBlock: AJUNOK_clean_linker_0, # of connection points: 2
#     Edge 48, Type (0, 0), BuildingBlock: AJUNOK_clean_linker_0, # of connection points: 2
#     Edge 49, Type (0, 0), BuildingBlock: AJUNOK_clean_linker_0, # of connection points: 2
#     Edge 50, Type (0, 0), BuildingBlock: AJUNOK_clean_linker_0, # of connection points: 2
#     Edge 51, Type (0, 0), BuildingBlock: AJUNOK_clean_linker_0, # of connection points: 2
#     Edge 52, Type (0, 0), BuildingBlock: AJUNOK_clean_linker_0, # of connection points: 2
#     Edge 53, Type (0, 0), BuildingBlock: AJUNOK_clean_linker_0, # of connection points: 2
#     Edge 54, Type (0, 0), BuildingBlock: AJUNOK_clean_linker_0, # of connection points: 2
#     Edge 55, Type (0, 0), BuildingBlock: AJUNOK_clean_linker_0, # of connection points: 2
#     Edge 56, Type (0, 0), BuildingBlock: AJUNOK_clean_linker_0, # of connection points: 2
#     Edge 57, Type (0, 0), BuildingBlock: AJUNOK_clean_linker_0, # of connection points: 2
#     Edge 58, Type (0, 0), BuildingBlock: AJUNOK_clean_linker_0, # of connection points: 2
#     Edge 59, Type (0, 0), BuildingBlock: AJUNOK_clean_linker_0, # of connection points: 2
#     Edge 60, Type (0, 0), BuildingBlock: AJUNOK_clean_linker_0, # of connection points: 2
#     Edge 61, Type (0, 0), BuildingBlock: AJUNOK_clean_linker_0, # of connection points: 2
#     Edge 62, Type (0, 0), BuildingBlock: AJUNOK_clean_linker_0, # of connection points: 2
#     Edge 63, Type (0, 0), BuildingBlock: AJUNOK_clean_linker_0, # of connection points: 2
#     Edge 64, Type (0, 0), BuildingBlock: AJUNOK_clean_linker_0, # of connection points: 2
#     Edge 65, Type (0, 0), BuildingBlock: AJUNOK_clean_linker_0, # of connection points: 2
#     Edge 66, Type (0, 0), BuildingBlock: AJUNOK_clean_linker_0, # of connection points: 2
#     Edge 67, Type (0, 0), BuildingBlock: AJUNOK_clean_linker_0, # of connection points: 2
#     Edge 68, Type (0, 0), BuildingBlock: AJUNOK_clean_linker_0, # of connection points: 2
#     Edge 69, Type (0, 0), BuildingBlock: AJUNOK_clean_linker_0, # of connection points: 2
#     Edge 70, Type (0, 0), BuildingBlock: AJUNOK_clean_linker_0, # of connection points: 2
#     Edge 71, Type (0, 0), BuildingBlock: AJUNOK_clean_linker_0, # of connection points: 2
# Relax obj value: 0.088
# Max RMSD: 0.198
# Mean RMSD: 0.198
data_MOF--net-wmi--node1-MIFKUJ_clean_sbu_0--edge1-AJUNOK_clean_linker_0
_symmetry_space_group_name_H-M    P1
_symmetry_Int_Tables_number       1
_symmetry_cell_setting            triclinic
loop_
_symmetry_equiv_pos_as_xyz
'x, y, z'
_cell_length_a     27.344628
_cell_length_b     26.991472
_cell_length_c     57.204326
_cell_angle_alpha  89.968577
_cell_angle_beta   89.860451
_cell_angle_gamma 119.97128
loop_
_atom_site_label
_atom_site_type_symbol
_atom_site_fract_x
_atom_site_fract_y
_atom_site_fract_z
_atom_type_partial_charge
Zn0 Zn 0.40494 0.93776 0.05849 0.0
Zn1 Zn 0.52269 0.07546 0.07187 0.0
C2 C 0.47797 0.89492 0.05727 0.0
O3 O 0.46022 0.88933 0.03559 0.0
C4 C 0.50639 0.17253 0.0852 0.0
O5 O 0.49691 0.15258 0.10669 0.0
O6 O 0.3322 0.86227 0.05474 0.0
O7 O 0.38985 0.98736 0.0791 0.0
O8 O 0.47033 0.02679 0.09821 0.0
C9 C 0.3104 0.82718 0.07166 0.0
O10 O 0.33509 0.84133 0.09218 0.0
O11 O 0.46115 0.91852 0.07194 0.0
C12 C 0.64266 0.13229 0.06456 0.0
O13 O 0.62556 0.12166 0.0428 0.0
O14 O 0.60572 0.11146 0.08076 0.0
O15 O 0.51024 0.049 0.03815 0.0
O16 O 0.43136 0.9716 0.02734 0.0
O17 O 0.51478 0.14511 0.06917 0.0
C18 C 0.41662 1.00191 0.09818 0.0
C19 C 0.47844 0.01519 0.02237 0.0
Zn20 Zn 0.09341 0.47168 0.05954 0.0
Zn21 Zn 0.95504 0.44436 0.06694 0.0
C22 C 0.14374 0.58995 0.05425 0.0
O23 O 0.14865 0.57236 0.03344 0.0
C24 C 0.8602 0.33476 0.08207 0.0
O25 O 0.86637 0.36218 0.1018 0.0
O26 O 0.16703 0.47228 0.05907 0.0
O27 O 0.0429 0.40836 0.08104 0.0
O28 O 0.00334 0.45518 0.09517 0.0
C29 C 0.19583 0.48491 0.07779 0.0
O30 O 0.1746 0.49352 0.09698 0.0
O31 O 0.11699 0.55266 0.07005 0.0
C32 C 0.86928 0.47159 0.06076 0.0
O33 O 0.85918 0.43592 0.04341 0.0
O34 O 0.91166 0.48479 0.07374 0.0
O35 O 0.98613 0.46396 0.03376 0.0
O36 O 0.06452 0.46084 0.02729 0.0
O37 O 0.89483 0.36052 0.06547 0.0
C38 C 0.0229 0.42188 0.09823 0.0
C39 C 0.02327 0.46535 0.01985 0.0
Zn40 Zn 0.54988 0.63288 0.07235 0.0
Zn41 Zn 0.58621 0.51606 0.08011 0.0
C42 C 0.43575 0.57716 0.06991 0.0
O43 O 0.45414 0.60472 0.05001 0.0
C44 C 0.69382 0.52082 0.08888 0.0
O45 O 0.67603 0.50807 0.11058 0.0
O46 O 0.55959 0.71062 0.06814 0.0
O47 O 0.61532 0.63917 0.08963 0.0
O48 O 0.58701 0.55984 0.10913 0.0
C49 C 0.55481 0.73979 0.08447 0.0
O50 O 0.54683 0.7202 0.10599 0.0
O51 O 0.47141 0.58257 0.08544 0.0
C52 C 0.54785 0.40343 0.06897 0.0
O53 O 0.57305 0.43155 0.04982 0.0
O54 O 0.54281 0.43116 0.08587 0.0
O55 O 0.5654 0.53308 0.04824 0.0
O56 O 0.54936 0.60446 0.04104 0.0
O57 O 0.66471 0.53036 0.07422 0.0
C58 C 0.60594 0.6134 0.10896 0.0
C59 C 0.55316 0.56194 0.0343 0.0
Zn60 Zn 0.92519 0.42126 0.87778 0.0
Zn61 Zn 0.10131 0.52294 0.8798 0.0
C62 C 0.85681 0.46636 0.88748 0.0
O63 O 0.84522 0.43026 0.90484 0.0
C64 C 0.19823 0.51415 0.87384 0.0
O65 O 0.19007 0.52517 0.8523 0.0
O66 O 0.87011 0.33956 0.87003 0.0
O67 O 0.99829 0.455 0.86353 0.0
O68 O 0.07876 0.48607 0.84733 0.0
C69 C 0.8402 0.32784 0.85171 0.0
O70 O 0.85087 0.36917 0.83682 0.0
O71 O 0.89064 0.46945 0.8716 0.0
C72 C 0.16415 0.63872 0.89506 0.0
O73 O 0.16378 0.61235 0.91443 0.0
O74 O 0.13632 0.6087 0.87761 0.0
O75 O 0.03888 0.48727 0.90549 0.0
O76 O 0.94645 0.43126 0.91126 0.0
O77 O 0.16408 0.5105 0.88973 0.0
C78 C 0.02617 0.45323 0.8465 0.0
C79 C 0.9962 0.46256 0.91922 0.0
Zn80 Zn 0.64669 0.6041 0.89721 0.0
Zn81 Zn 0.53527 0.60261 0.8896 0.0
C82 C 0.58856 0.4839 0.89917 0.0
O83 O 0.61772 0.49917 0.91864 0.0
C84 C 0.54219 0.71012 0.87965 0.0
O85 O 0.53073 0.68762 0.85862 0.0
O86 O 0.719 0.60462 0.89877 0.0
O87 O 0.6578 0.66766 0.87684 0.0
O88 O 0.57947 0.60594 0.86029 0.0
C89 C 0.73416 0.58828 0.88079 0.0
O90 O 0.70673 0.58113 0.86111 0.0
O91 O 0.5918 0.52291 0.88559 0.0
C92 C 0.41992 0.55445 0.89678 0.0
O93 O 0.43952 0.57471 0.91768 0.0
O94 O 0.45449 0.55986 0.88079 0.0
O95 O 0.53798 0.56652 0.92075 0.0
O96 O 0.6286 0.61307 0.92913 0.0
O97 O 0.54915 0.6825 0.89611 0.0
C98 C 0.62991 0.6469 0.85841 0.0
C99 C 0.57784 0.5822 0.93541 0.0
Zn100 Zn 0.51287 0.14224 0.88662 0.0
Zn101 Zn 0.45333 0.96812 0.88415 0.0
C102 C 0.61433 0.14776 0.86753 0.0
O103 O 0.60102 0.10398 0.88138 0.0
C104 C 0.34491 0.87121 0.87837 0.0
O105 O 0.36223 0.88294 0.85657 0.0
O106 O 0.50109 0.21055 0.89054 0.0
O107 O 0.44622 0.06929 0.87664 0.0
O108 O 0.44397 1.0029 0.85441 0.0
C109 C 0.51488 0.2487 0.87478 0.0
O110 O 0.53058 0.24002 0.85417 0.0
O111 O 0.58071 0.16725 0.86595 0.0
C112 C 0.50144 0.89943 0.89577 0.0
O113 O 0.47999 0.9021 0.91598 0.0
O114 O 0.49837 0.928 0.87868 0.0
O115 O 0.48941 0.02982 0.90912 0.0
O116 O 0.5288 0.12148 0.91804 0.0
O117 O 0.37637 0.90468 0.89434 0.0
C118 C 0.44375 0.04965 0.85639 0.0
C119 C 0.51239 0.07003 0.92406 0.0
Zn120 Zn 0.03965 0.28798 0.40174 0.0
Zn121 Zn 0.16884 0.43372 0.40695 0.0
C122 C 0.06931 0.20492 0.40079 0.0
O123 O 0.03046 0.1909 0.38467 0.0
C124 C 0.15778 0.53226 0.41983 0.0
O125 O 0.16453 0.51891 0.4412 0.0
O126 O 0.9576 0.22652 0.4024 0.0
O127 O 0.04986 0.35686 0.41844 0.0
O128 O 0.12969 0.39193 0.43668 0.0
C129 C 0.9394 0.19489 0.42049 0.0
O130 O 0.97316 0.20765 0.43854 0.0
O131 O 0.08429 0.2503 0.41264 0.0
C132 C 0.28676 0.4993 0.39589 0.0
O133 O 0.26638 0.50039 0.37525 0.0
O134 O 0.25261 0.47019 0.41213 0.0
O135 O 0.14612 0.39231 0.37535 0.0
O136 O 0.06542 0.31076 0.36955 0.0
O137 O 0.15632 0.50079 0.40302 0.0
C138 C 0.0763 0.36622 0.4374 0.0
C139 C 0.1116 0.35208 0.36201 0.0
Zn140 Zn 0.76947 0.85355 0.40037 0.0
Zn141 Zn 0.61798 0.78437 0.40784 0.0
C142 C 0.77119 0.96048 0.40423 0.0
O143 O 0.75072 0.94692 0.38298 0.0
C144 C 0.51365 0.67956 0.41847 0.0
O145 O 0.52289 0.70049 0.43977 0.0
O146 O 0.84774 0.86743 0.39845 0.0
O147 O 0.73417 0.78077 0.41804 0.0
O148 O 0.65901 0.77363 0.43543 0.0
C149 C 0.85527 0.8286 0.38959 0.0
O150 O 0.81261 0.78389 0.37984 0.0
O151 O 0.77625 0.92356 0.4162 0.0
C152 C 0.54961 0.83277 0.40118 0.0
O153 O 0.54545 0.80735 0.38112 0.0
O154 O 0.58363 0.83311 0.41639 0.0
O155 O 0.65216 0.80315 0.37511 0.0
O156 O 0.7436 0.8449 0.36811 0.0
O157 O 0.54971 0.70713 0.40261 0.0
C158 C 0.70096 0.76546 0.4353 0.0
C159 C 0.69346 0.82314 0.36085 0.0
Zn160 Zn 0.18597 0.96218 0.39874 0.0
Zn161 Zn 0.26526 0.88014 0.40634 0.0
C162 C 0.08229 0.86815 0.38735 0.0
O163 O 0.10302 0.88334 0.36615 0.0
C164 C 0.36736 0.87905 0.42045 0.0
O165 O 0.34884 0.878 0.44175 0.0
O166 O 0.15619 0.01745 0.39719 0.0
O167 O 0.23565 0.98503 0.42651 0.0
O168 O 0.2765 0.93288 0.43277 0.0
C169 C 0.18254 0.07044 0.4022 0.0
O170 O 0.23649 0.09531 0.40728 0.0
O171 O 0.1156 0.88839 0.4046 0.0
C172 C 0.20485 0.7619 0.39811 0.0
O173 O 0.23014 0.78153 0.37788 0.0
O174 O 0.20889 0.79769 0.41351 0.0
O175 O 0.25645 0.90649 0.37488 0.0
O176 O 0.21969 0.96176 0.36788 0.0
O177 O 0.33888 0.88062 0.40321 0.0
C178 C 0.26625 0.9721 0.43875 0.0
C179 C 0.24324 0.93418 0.3608 0.0
Zn180 Zn 0.59095 0.72904 0.22022 0.0
Zn181 Zn 0.76866 0.8343 0.22263 0.0
C182 C 0.57249 0.8208 0.20753 0.0
O183 O 0.62118 0.8512 0.21813 0.0
C184 C 0.86996 0.83394 0.21955 0.0
O185 O 0.85933 0.83986 0.19768 0.0
O186 O 0.54081 0.64411 0.22007 0.0
O187 O 0.66516 0.75709 0.20729 0.0
O188 O 0.74694 0.78945 0.19198 0.0
C189 C 0.51083 0.61882 0.20234 0.0
O190 O 0.51748 0.6487 0.18326 0.0
O191 O 0.55182 0.76711 0.20576 0.0
C192 C 0.82733 0.95363 0.23078 0.0
O193 O 0.82834 0.93481 0.25187 0.0
O194 O 0.80012 0.91737 0.2149 0.0
O195 O 0.70352 0.80734 0.24725 0.0
O196 O 0.61062 0.75591 0.2528 0.0
O197 O 0.83504 0.82959 0.23528 0.0
C198 C 0.69456 0.75564 0.19078 0.0
C199 C 0.66023 0.78826 0.26071 0.0
Zn200 Zn 0.33941 0.9207 0.22076 0.0
Zn201 Zn 0.21601 0.95329 0.21911 0.0
C202 C 0.30316 0.80719 0.22449 0.0
O203 O 0.34545 0.83324 0.23913 0.0
C204 C 0.22264 0.05984 0.20499 0.0
O205 O 0.21706 0.03847 0.1839 0.0
O206 O 0.41725 0.934 0.21425 0.0
O207 O 0.32558 0.97772 0.20496 0.0
O208 O 0.24573 0.94837 0.1874 0.0
C209 C 0.42122 0.90985 0.19583 0.0
O210 O 0.37909 0.88883 0.18096 0.0
O211 O 0.28681 0.83699 0.21318 0.0
C212 C 0.10263 0.90032 0.23645 0.0
O213 O 0.1279 0.93454 0.25418 0.0
O214 O 0.13267 0.89854 0.21986 0.0
O215 O 0.25541 0.94161 0.24713 0.0
O216 O 0.32699 0.92726 0.25416 0.0
O217 O 0.22469 0.03151 0.22236 0.0
C218 C 0.29736 0.96279 0.18633 0.0
C219 C 0.28658 0.93369 0.26145 0.0
Zn220 Zn 0.19162 0.44855 0.21984 0.0
Zn221 Zn 0.10534 0.2903 0.21733 0.0
C222 C 0.2903 0.43733 0.22163 0.0
O223 O 0.2767 0.42723 0.24387 0.0
C224 C 0.99924 0.18631 0.20755 0.0
O225 O 0.00908 0.20548 0.18596 0.0
O226 O 0.22542 0.53417 0.22087 0.0
O227 O 0.12967 0.42216 0.19666 0.0
O228 O 0.08501 0.32788 0.19192 0.0
C229 C 0.19672 0.55938 0.21977 0.0
O230 O 0.14144 0.52853 0.21885 0.0
O231 O 0.255 0.43875 0.20767 0.0
C232 C 0.17206 0.24045 0.22378 0.0
O233 O 0.15284 0.23959 0.24494 0.0
O234 O 0.16129 0.26623 0.20775 0.0
O235 O 0.1223 0.32732 0.24875 0.0
O236 O 0.17004 0.42127 0.25259 0.0
O237 O 0.03425 0.21569 0.22341 0.0
C238 C 0.09339 0.37709 0.18638 0.0
C239 C 0.14377 0.37161 0.26149 0.0
Zn240 Zn 0.72887 0.60229 0.73619 0.0
Zn241 Zn 0.84273 0.74681 0.7397 0.0
C242 C 0.82428 0.58416 0.74478 0.0
O243 O 0.84528 0.61479 0.72573 0.0
C244 C 0.83654 0.84832 0.75133 0.0
O245 O 0.84613 0.837 0.77261 0.0
O246 O 0.65287 0.53165 0.73721 0.0
O247 O 0.71721 0.66172 0.75164 0.0
O248 O 0.79952 0.70678 0.76877 0.0
C249 C 0.63537 0.50693 0.75687 0.0
O250 O 0.66733 0.52882 0.77541 0.0
O251 O 0.77919 0.57927 0.75342 0.0
C252 C 0.95837 0.81724 0.73085 0.0
O253 O 0.93622 0.82558 0.71196 0.0
O254 O 0.92555 0.78114 0.74586 0.0
O255 O 0.82374 0.70724 0.70845 0.0
O256 O 0.75223 0.61971 0.7031 0.0
O257 O 0.83185 0.81468 0.73486 0.0
C258 C 0.74629 0.68413 0.76975 0.0
C259 C 0.79368 0.66522 0.69514 0.0
Zn260 Zn 0.44509 0.16082 0.7451 0.0
Zn261 Zn 0.27733 0.11048 0.74735 0.0
C262 C 0.45756 0.27216 0.75345 0.0
O263 O 0.41231 0.25267 0.74036 0.0
C264 C 0.18618 0.99352 0.75352 0.0
O265 O 0.20511 1.00072 0.77504 0.0
O266 O 0.50439 0.13757 0.74771 0.0
O267 O 0.37022 0.10629 0.75661 0.0
O268 O 0.30659 0.10385 0.77935 0.0
C269 C 0.53787 0.15596 0.76505 0.0
O270 O 0.52863 0.18402 0.78162 0.0
O271 O 0.47586 0.23886 0.75908 0.0
C272 C 0.21349 0.16318 0.73416 0.0
O273 O 0.20906 0.13495 0.71484 0.0
O274 O 0.24468 0.16249 0.75043 0.0
O275 O 0.33622 0.13551 0.72041 0.0
O276 O 0.4264 0.16613 0.71209 0.0
O277 O 0.2117 0.03382 0.73882 0.0
C278 C 0.35345 0.10584 0.77706 0.0
C279 C 0.37647 0.15201 0.70555 0.0
Zn280 Zn 0.87387 0.30314 0.74013 0.0
Zn281 Zn 0.92163 0.19297 0.74435 0.0
C282 C 0.76495 0.20198 0.74986 0.0
O283 O 0.77735 0.18088 0.73161 0.0
C284 C 0.03475 0.21381 0.75349 0.0
O285 O 0.02165 0.21787 0.77523 0.0
O286 O 0.88192 0.38143 0.74115 0.0
O287 O 0.9438 0.30702 0.75123 0.0
O288 O 0.92704 0.23639 0.77414 0.0
C289 C 0.86786 0.39788 0.75953 0.0
O290 O 0.85113 0.36436 0.77799 0.0
O291 O 0.80232 0.25015 0.75786 0.0
C292 C 0.87195 0.07572 0.73313 0.0
O293 O 0.89364 0.09933 0.71282 0.0
O294 O 0.87516 0.10796 0.74996 0.0
O295 O 0.89665 0.21597 0.7143 0.0
O296 O 0.8662 0.27705 0.70768 0.0
O297 O 0.99928 0.20536 0.73747 0.0
C298 C 0.94075 0.28835 0.77165 0.0
C299 C 0.87868 0.2403 0.70034 0.0
Zn300 Zn 0.2734 0.04848 0.56647 0.0
Zn301 Zn 0.41633 0.17031 0.55986 0.0
C302 C 0.21206 0.10148 0.57073 0.0
O303 O 0.2006 0.06793 0.589 0.0
C304 C 0.51183 0.15924 0.54391 0.0
O305 O 0.4996 0.17319 0.52364 0.0
O306 O 0.19972 0.97223 0.56695 0.0
O307 O 0.3297 0.0431 0.546 0.0
O308 O 0.36819 0.13051 0.53211 0.0
C309 C 0.16919 0.95521 0.54863 0.0
O310 O 0.1896 0.98387 0.52907 0.0
O311 O 0.24789 0.10357 0.55588 0.0
C312 C 0.49282 0.28976 0.56665 0.0
O313 O 0.5003 0.2706 0.58667 0.0
O314 O 0.45559 0.2546 0.5527 0.0
O315 O 0.38153 0.15463 0.59224 0.0
O316 O 0.30217 0.07225 0.59863 0.0
O317 O 0.48049 0.15303 0.56144 0.0
C318 C 0.34575 0.07714 0.52884 0.0
C319 C 0.34301 0.1192 0.60591 0.0
Zn320 Zn 0.96085 0.20013 0.56294 0.0
Zn321 Zn 0.85348 0.23823 0.55224 0.0
C322 C 0.87134 0.08556 0.56324 0.0
O323 O 0.87604 0.09634 0.58575 0.0
C324 C 0.85613 0.3432 0.53839 0.0
O325 O 0.8366 0.31645 0.51844 0.0
O326 O 0.0274 0.18885 0.5682 0.0
O327 O 0.98533 0.26575 0.54135 0.0
O328 O 0.9024 0.23876 0.52517 0.0
C329 C 0.06024 0.1894 0.5523 0.0
O330 O 0.05254 0.20012 0.53063 0.0
O331 O 0.90131 0.12599 0.54914 0.0
C332 C 0.73667 0.19377 0.56006 0.0
O333 O 0.75817 0.21711 0.58034 0.0
O334 O 0.7697 0.1935 0.54438 0.0
O335 O 0.86596 0.22373 0.58578 0.0
O336 O 0.93861 0.21225 0.59418 0.0
O337 O 0.86833 0.31877 0.55446 0.0
C338 C 0.9561 0.26469 0.524 0.0
C339 C 0.89687 0.21715 0.60055 0.0
Zn340 Zn 0.80968 0.75373 0.55568 0.0
Zn341 Zn 0.78423 0.61198 0.54862 0.0
C342 C 0.92557 0.81519 0.55838 0.0
O343 O 0.9065 0.82777 0.57723 0.0
C344 C 0.67402 0.51338 0.53819 0.0
O345 O 0.69364 0.52053 0.51673 0.0
O346 O 0.80219 0.82332 0.5582 0.0
O347 O 0.74326 0.69719 0.53751 0.0
O348 O 0.7854 0.65726 0.5197 0.0
C349 C 0.80749 0.85412 0.54054 0.0
O350 O 0.81737 0.83939 0.51993 0.0
O351 O 0.88976 0.78069 0.54365 0.0
C352 C 0.82679 0.53787 0.55743 0.0
O353 O 0.80676 0.53967 0.57811 0.0
O354 O 0.82468 0.56872 0.5411 0.0
O355 O 0.80703 0.6458 0.5814 0.0
O356 O 0.80647 0.72673 0.58743 0.0
O357 O 0.70419 0.54887 0.55383 0.0
C358 C 0.75492 0.68049 0.51886 0.0
C359 C 0.81137 0.68531 0.59488 0.0
C360 C 0.52122 0.83533 0.04797 0.0
C361 C 0.50848 0.86524 0.06476 0.0
C362 C 0.53992 0.79783 0.05454 0.0
C363 C 0.54656 0.7884 0.07822 0.0
H364 H 0.51414 0.83859 0.02954 0.0
H365 H 0.54622 0.7738 0.04086 0.0
S366 S 0.53191 0.86647 0.12867 0.0
N367 N 0.51306 0.89049 0.10586 0.0
N368 N 0.54821 0.81943 0.11831 0.0
C369 C 0.53914 0.82202 0.09511 0.0
C370 C 0.52015 0.86061 0.08836 0.0
C371 C 0.2429 0.72761 0.08588 0.0
C372 C 0.2614 0.76875 0.06781 0.0
C373 C 0.20167 0.67026 0.0819 0.0
C374 C 0.17755 0.65184 0.05967 0.0
H375 H 0.26196 0.73912 0.10304 0.0
H376 H 0.19106 0.63966 0.09598 0.0
S377 S 0.2043 0.74358 0.00741 0.0
N378 N 0.247 0.78769 0.02753 0.0
N379 N 0.17015 0.68022 0.02011 0.0
C380 C 0.19284 0.6931 0.0419 0.0
C381 C 0.23454 0.75143 0.04595 0.0
C382 C 0.29169 0.52751 0.09612 0.0
C383 C 0.25559 0.49868 0.07717 0.0
C384 C 0.35023 0.54964 0.09442 0.0
C385 C 0.3744 0.54346 0.07377 0.0
H386 H 0.27517 0.53581 0.11195 0.0
H387 H 0.37695 0.5749 0.10871 0.0
S388 S 0.2985 0.46401 0.02063 0.0
N389 N 0.24835 0.4594 0.03818 0.0
N390 N 0.35814 0.50131 0.03509 0.0
C391 C 0.33866 0.51142 0.05539 0.0
C392 C 0.27926 0.48881 0.05708 0.0
C393 C 0.82345 0.52257 0.86477 0.0
C394 C 0.83048 0.50232 0.88642 0.0
C395 C 0.79435 0.55282 0.86319 0.0
C396 C 0.77232 0.56478 0.88327 0.0
H397 H 0.83873 0.51322 0.84883 0.0
H398 H 0.7878 0.56557 0.84605 0.0
S399 S 0.78534 0.52646 0.94449 0.0
N400 N 0.81721 0.49996 0.92854 0.0
N401 N 0.76331 0.55755 0.92576 0.0
C402 C 0.78196 0.54749 0.90521 0.0
C403 C 0.81077 0.51595 0.90674 0.0
C404 C 0.54161 0.34925 0.86335 0.0
C405 C 0.52293 0.30619 0.88067 0.0
C406 C 0.55903 0.40638 0.86912 0.0
C407 C 0.5589 0.42267 0.89244 0.0
H408 H 0.54524 0.33939 0.8453 0.0
H409 H 0.57593 0.43845 0.85542 0.0
S410 S 0.50626 0.32598 0.9439 0.0
N411 N 0.4993 0.28357 0.92184 0.0
N412 N 0.53272 0.39061 0.93255 0.0
C413 C 0.53681 0.37965 0.90965 0.0
C414 C 0.51856 0.32151 0.9038 0.0
C415 C 0.68471 0.22775 0.84264 0.0
C416 C 0.67281 0.18344 0.85864 0.0
C417 C 0.74015 0.27171 0.83859 0.0
C418 C 0.78568 0.27352 0.85073 0.0
H419 H 0.65067 0.23068 0.83436 0.0
H420 H 0.74659 0.30681 0.82735 0.0
S421 S 0.77863 0.16173 0.89065 0.0
N422 N 0.71226 0.13907 0.88359 0.0
N423 N 0.81632 0.22255 0.87642 0.0
C424 C 0.77502 0.2265 0.86488 0.0
C425 C 0.71857 0.18119 0.86872 0.0
C426 C 0.18096 0.16173 0.4093 0.0
C427 C 0.15214 0.10339 0.40298 0.0
C428 C 0.15348 0.19404 0.40967 0.0
C429 C 0.09626 0.16932 0.40356 0.0
H430 H 0.22536 0.18298 0.41372 0.0
H431 H 0.17771 0.23909 0.41395 0.0
S432 S 0.99974 0.01715 0.38816 0.0
N433 N 0.06149 0.02153 0.39224 0.0
N434 N 0.01043 0.08214 0.39285 0.0
C435 C 0.06641 0.11067 0.39808 0.0
C436 C 0.09415 0.07775 0.3978 0.0
C437 C 0.85659 0.12121 0.39802 0.0
C438 C 0.88708 0.13823 0.41907 0.0
C439 C 0.81522 0.06415 0.39416 0.0
C440 C 0.80287 0.02166 0.41115 0.0
H441 H 0.86698 0.15137 0.38378 0.0
H442 H 0.79572 0.05285 0.37707 0.0
S443 S 0.86136 0.04616 0.47119 0.0
N444 N 0.89495 0.10975 0.45866 0.0
N445 N 0.81759 1.00235 0.45127 0.0
C446 C 0.82881 0.03913 0.43314 0.0
C447 C 0.8708 0.09743 0.43714 0.0
C448 C 0.98294 0.81629 0.37337 0.0
C449 C 0.02186 0.84848 0.39092 0.0
C450 C 0.92811 0.808 0.37354 0.0
C451 C 0.91098 0.83286 0.39096 0.0
H452 H 0.99567 0.79935 0.3589 0.0
H453 H 0.89994 0.78433 0.35934 0.0
S454 S 0.99481 0.91661 0.442 0.0
N455 N 0.03769 0.90151 0.42727 0.0
N456 N 0.93508 0.88668 0.42725 0.0
C457 C 0.94841 0.86267 0.40923 0.0
C458 C 0.00376 0.87019 0.40934 0.0
C459 C 0.51446 0.92214 0.20753 0.0
C460 C 0.46421 0.89198 0.19473 0.0
C461 C 0.55107 0.90039 0.2104 0.0
C462 C 0.53823 0.84712 0.20093 0.0
H463 H 0.52457 0.96187 0.21614 0.0
H464 H 0.58818 0.92421 0.22115 0.0
S465 S 0.41416 0.75345 0.16418 0.0
N466 N 0.4056 0.80809 0.17093 0.0
N467 N 0.47389 0.76684 0.17666 0.0
C468 C 0.48955 0.81791 0.18706 0.0
C469 C 0.45271 0.84047 0.18385 0.0
C470 C 0.21904 0.71044 0.21714 0.0
C471 C 0.27717 0.74474 0.22126 0.0
C472 C 0.19344 0.65053 0.2165 0.0
C473 C 0.22521 0.62289 0.21965 0.0
H474 H 0.19288 0.72984 0.21517 0.0
H475 H 0.14827 0.62578 0.21377 0.0
S476 S 0.3805 0.6947 0.22835 0.0
N477 N 0.36663 0.7475 0.22683 0.0
N478 N 0.31909 0.63552 0.22529 0.0
C479 C 0.28394 0.6572 0.22277 0.0
C480 C 0.30974 0.71795 0.22367 0.0
C481 C 0.44632 0.53624 0.22763 0.0
C482 C 0.46107 0.56084 0.20517 0.0
C483 C 0.39215 0.49065 0.23235 0.0
C484 C 0.35074 0.46812 0.21479 0.0
H485 H 0.47507 0.55516 0.24217 0.0
H486 H 0.38144 0.47679 0.25034 0.0
S487 S 0.37411 0.50462 0.15166 0.0
N488 N 0.43454 0.5501 0.16412 0.0
N489 N 0.33253 0.46424 0.17301 0.0
C490 C 0.36764 0.48661 0.19163 0.0
C491 C 0.42289 0.53316 0.18681 0.0
C492 C 0.88155 0.53683 0.73775 0.0
C493 C 0.84367 0.54398 0.75215 0.0
C494 C 0.89119 0.49099 0.74101 0.0
C495 C 0.86398 0.45077 0.75898 0.0
H496 H 0.90163 0.56489 0.72296 0.0
H497 H 0.91865 0.48592 0.72876 0.0
S498 S 0.76727 0.45471 0.80373 0.0
N499 N 0.78358 0.51036 0.78674 0.0
N500 N 0.80215 0.42451 0.79299 0.0
C501 C 0.82952 0.4599 0.7747 0.0
C502 C 0.81929 0.50643 0.77126 0.0
C503 C 0.57985 0.41067 0.77523 0.0
C504 C 0.5839 0.45019 0.75822 0.0
C505 C 0.53631 0.35361 0.77452 0.0
C506 C 0.49474 0.33429 0.75701 0.0
H507 H 0.61233 0.42293 0.78839 0.0
H508 H 0.53669 0.32385 0.78714 0.0
S509 S 0.48156 0.42341 0.71073 0.0
N510 N 0.53941 0.46798 0.72505 0.0
N511 N 0.45685 0.36091 0.72389 0.0
C512 C 0.49569 0.37456 0.7411 0.0
C513 C 0.54058 0.43248 0.74162 0.0
C514 C 0.63694 0.19451 0.77878 0.0
C515 C 0.59243 0.15661 0.76424 0.0
C516 C 0.69215 0.20544 0.77523 0.0
C517 C 0.70512 0.17879 0.75702 0.0
H518 H 0.63001 0.21893 0.79205 0.0
H519 H 0.72536 0.23766 0.78598 0.0
S520 S 0.60163 0.06721 0.71709 0.0
N521 N 0.56341 0.08598 0.73322 0.0
N522 N 0.66707 0.10616 0.72654 0.0
C523 C 0.66004 0.13659 0.74383 0.0
C524 C 0.60375 0.12568 0.7474 0.0
C525 C 0.13799 0.17072 0.54005 0.0
C526 C 0.10339 0.17297 0.55786 0.0
C527 C 0.17517 0.15005 0.54446 0.0
C528 C 0.17897 0.13066 0.56684 0.0
H529 H 0.13534 0.18355 0.52237 0.0
H530 H 0.19944 0.14727 0.53004 0.0
S531 S 0.10213 0.13299 0.62016 0.0
N532 N 0.07887 0.15791 0.59924 0.0
N533 N 0.14846 0.11953 0.60748 0.0
C534 C 0.14666 0.13526 0.58504 0.0
C535 C 0.10897 0.15628 0.58058 0.0
C536 C 0.84464 0.95558 0.52842 0.0
C537 C 0.81244 0.91066 0.54408 0.0
C538 C 0.86006 0.01209 0.53394 0.0
C539 C 0.84337 0.02552 0.55519 0.0
H540 H 0.86139 0.94778 0.51254 0.0
H541 H 0.88854 0.04577 0.52222 0.0
S542 S 0.74865 0.92172 0.59977 0.0
N543 N 0.7572 0.8821 0.58001 0.0
N544 N 0.7856 0.98823 0.59023 0.0
C545 C 0.80668 0.98031 0.56992 0.0
C546 C 0.79133 0.92286 0.56439 0.0
C547 C 0.08174 0.89797 0.5725 0.0
C548 C 0.10807 0.91164 0.55043 0.0
C549 C 0.02297 0.86474 0.5747 0.0
C550 C 0.98771 0.84299 0.55499 0.0
H551 H 0.10637 0.91527 0.58826 0.0
H552 H 0.00492 0.85738 0.59211 0.0
S553 S 0.0356 0.86013 0.49332 0.0
N554 N 0.09446 0.89643 0.50843 0.0
N555 N 0.98379 0.83332 0.51272 0.0
C556 C 0.01348 0.85314 0.53287 0.0
C557 C 0.07362 0.88766 0.53057 0.0
C558 C 0.46792 0.98647 -0.01948 0.0
C559 C 0.49418 0.02933 -0.00246 0.0
C560 C 0.47688 0.99953 0.95672 0.0
C561 C 0.5124 0.05599 0.949 0.0
H562 H 0.4388 0.94265 -0.01442 0.0
H563 H 0.45338 0.96545 0.94435 0.0
S564 S 0.59573 0.18305 -0.01353 0.0
N565 N 0.5601 0.13008 0.00503 0.0
N566 N 0.57806 0.15428 0.96022 0.0
C567 C 0.54155 0.09873 0.96581 0.0
C568 C 0.53219 0.0855 -0.0099 0.0
C569 C 0.05478 0.47727 0.95474 0.0
C570 C 0.00411 0.46824 0.94478 0.0
C571 C 0.06094 0.47741 0.97904 0.0
C572 C 0.01688 0.4692 -0.00571 0.0
H573 H 0.08929 0.48238 0.94372 0.0
H574 H 0.10036 0.48317 -0.01412 0.0
S575 S 0.87802 0.45086 0.97669 0.0
N576 N 0.91084 0.45582 0.95181 0.0
N577 N 0.92234 0.45639 -0.0026 0.0
C578 C 0.96694 0.46292 -0.01555 0.0
C579 C 0.96056 0.46231 0.95972 0.0
C580 C 0.51866 0.56307 0.97098 0.0
C581 C 0.56562 0.56513 0.96003 0.0
C582 C 0.51239 0.55761 -0.00473 0.0
C583 C 0.552 0.55239 0.00911 0.0
H584 H 0.48882 0.5697 0.96097 0.0
H585 H 0.47797 0.56035 0.0034 0.0
S586 S 0.67798 0.54775 -0.01164 0.0
N587 N 0.64945 0.55635 0.96444 0.0
N588 N 0.63647 0.54418 0.01009 0.0
C589 C 0.59634 0.54941 -0.00183 0.0
C590 C 0.60352 0.55638 0.97355 0.0
C591 C 0.15648 0.40906 0.32595 0.0
C592 C 0.12315 0.35557 0.3367 0.0
C593 C 0.16341 0.41375 0.30165 0.0
C594 C 0.13761 0.36507 0.28721 0.0
H595 H 0.17597 0.44784 0.33628 0.0
H596 H 0.1886 0.45604 0.29417 0.0
S597 S 0.05108 0.21427 0.30725 0.0
N598 N 0.06774 0.25251 0.33143 0.0
N599 N 0.08057 0.26098 0.28581 0.0
C600 C 0.10601 0.31099 0.29791 0.0
C601 C 0.09882 0.30634 0.32263 0.0
C602 C 0.72971 0.83814 0.31983 0.0
C603 C 0.68345 0.81826 0.33529 0.0
C604 C 0.72188 0.82983 0.29571 0.0
C605 C 0.66747 0.80143 0.28601 0.0
H606 H 0.77257 0.85915 0.32637 0.0
H607 H 0.75887 0.84449 0.2847 0.0
S608 S 0.53214 0.74609 0.31861 0.0
N609 N 0.58127 0.77214 0.33896 0.0
N610 N 0.5664 0.75735 0.29363 0.0
C611 C 0.62079 0.78361 0.30115 0.0
C612 C 0.62881 0.79182 0.32577 0.0
C613 C 0.24458 0.9573 0.2954 0.0
C614 C 0.27645 0.93341 0.2868 0.0
C615 C 0.23457 0.95786 0.31935 0.0
C616 C 0.25574 0.93422 0.33562 0.0
H617 H 0.22753 0.9762 0.28358 0.0
H618 H 0.20966 0.97667 0.32507 0.0
S619 S 0.34042 0.86467 0.32192 0.0
N620 N 0.32814 0.88429 0.29629 0.0
N621 N 0.30968 0.88549 0.34131 0.0
C622 C 0.28749 0.90983 0.32721 0.0
C623 C 0.29778 0.90943 0.30281 0.0
C624 C 0.78176 0.62175 0.6555 0.0
C625 C 0.80533 0.67078 0.66976 0.0
C626 C 0.78723 0.62642 0.63113 0.0
C627 C 0.81586 0.6803 0.62027 0.0
H628 H 0.75754 0.5795 0.66314 0.0
H629 H 0.76625 0.58781 0.62073 0.0
S630 S 0.89059 0.82147 0.64963 0.0
N631 N 0.86246 0.77473 0.67114 0.0
N632 N 0.87268 0.78318 0.62545 0.0
C633 C 0.84238 0.72938 0.63433 0.0
C634 C 0.83714 0.72471 0.65907 0.0
C635 C 0.40168 0.17037 0.64048 0.0
C636 C 0.34852 0.13137 0.63121 0.0
C637 C 0.40962 0.17869 0.66456 0.0
C638 C 0.36464 0.14878 0.68029 0.0
H639 H 0.43808 0.19315 0.62915 0.0
H640 H 0.45178 0.20769 0.67091 0.0
S641 S 0.21554 0.04685 0.66479 0.0
N642 N 0.24899 0.06636 0.63947 0.0
N643 N 0.26402 0.08188 0.68485 0.0
C644 C 0.31053 0.11209 0.67123 0.0
C645 C 0.30248 0.10331 0.64665 0.0
C646 C 0.90891 0.19578 0.64183 0.0
C647 C 0.88633 0.21851 0.62581 0.0
C648 C 0.90404 0.2008 0.66592 0.0
C649 C 0.87662 0.22904 0.67496 0.0
H650 H 0.93156 0.17482 0.63573 0.0
H651 H 0.92376 0.18417 0.67748 0.0
S652 S 0.80669 0.29265 0.64037 0.0
N653 N 0.83327 0.26807 0.62064 0.0
N654 N 0.82313 0.27667 0.66593 0.0
C655 C 0.8517 0.24985 0.65912 0.0
C656 C 0.85676 0.24477 0.63456 0.0
C657 C 0.38545 1.00227 0.16264 0.0
C658 C 0.32617 0.9692 0.16376 0.0
C659 C 0.41427 0.01211 0.14143 0.0
C660 C 0.38497 0.98945 0.12044 0.0
H661 H 0.41 0.02157 0.17826 0.0
H662 H 0.45985 0.03839 0.14151 0.0
S663 S 0.22957 0.89641 0.11414 0.0
N664 N 0.2392 0.91128 0.14231 0.0
N665 N 0.29311 0.92994 0.10226 0.0
C666 C 0.32561 0.95522 0.12136 0.0
C667 C 0.29629 0.9451 0.14304 0.0
C668 C 0.03945 0.35897 0.12477 0.0
C669 C 0.03193 0.4065 0.12187 0.0
C670 C 0.05561 0.34734 0.14629 0.0
C671 C 0.06561 0.38339 0.16554 0.0
H672 H 0.03457 0.33151 0.1101 0.0
H673 H 0.06344 0.31182 0.14745 0.0
S674 S 0.04499 0.50907 0.16794 0.0
N675 N 0.03024 0.48653 0.14066 0.0
N676 N 0.06117 0.4648 0.18116 0.0
C677 C 0.0549 0.42895 0.1633 0.0
C678 C 0.0378 0.44046 0.14143 0.0
C679 C 0.67573 0.74253 0.1485 0.0
C680 C 0.66935 0.71826 0.17067 0.0
C681 C 0.65373 0.70793 0.12881 0.0
C682 C 0.62533 0.64774 0.13059 0.0
H683 H 0.6979 0.7886 0.14636 0.0
H684 H 0.65999 0.72888 0.11202 0.0
S685 S 0.59921 0.56415 0.18534 0.0
N686 N 0.63384 0.63164 0.19382 0.0
N687 N 0.59203 0.56573 0.15672 0.0
C688 C 0.61843 0.62306 0.1529 0.0
C689 C 0.64066 0.6586 0.17299 0.0
C690 C 0.00348 0.42785 0.80488 0.0
C691 C 1.00016 0.4104 0.82811 0.0
C692 C 0.98221 0.3876 0.78689 0.0
C693 C 0.95779 0.32852 0.79152 0.0
H694 H 0.02307 0.47291 0.80057 0.0
H695 H 0.98635 0.40328 0.76915 0.0
S696 S 0.9409 0.26212 0.84995 0.0
N697 N 0.97158 0.33142 0.85524 0.0
N698 N 0.93155 0.25511 0.82137 0.0
C699 C 0.9538 0.3107 0.81489 0.0
C700 C 0.97509 0.35188 0.83322 0.0
C701 C 0.6302 0.63424 0.81523 0.0
C702 C 0.65976 0.66129 0.83569 0.0
C703 C 0.65844 0.64288 0.7939 0.0
C704 C 0.71741 0.67858 0.79225 0.0
H705 H 0.58502 0.60522 0.81571 0.0
H706 H 0.63381 0.62024 0.77872 0.0
S707 S 0.81413 0.76266 0.84039 0.0
N708 N 0.75115 0.72814 0.8527 0.0
N709 N 0.80407 0.74355 0.81266 0.0
C710 C 0.74732 0.70727 0.81243 0.0
C711 C 0.71854 0.69892 0.83412 0.0
C712 C 0.41404 0.07176 0.79429 0.0
C713 C 0.38487 0.10198 0.79702 0.0
C714 C 0.43634 0.05814 0.81353 0.0
C715 C 0.43033 0.07443 0.83617 0.0
H716 H 0.41699 0.05566 0.77731 0.0
H717 H 0.45619 0.03249 0.81075 0.0
S718 S 0.36357 0.16069 0.85209 0.0
N719 N 0.35568 0.15264 0.82348 0.0
N720 N 0.39756 0.12719 0.85997 0.0
C721 C 0.40459 0.10818 0.83893 0.0
C722 C 0.38156 0.12169 0.81926 0.0
C723 C 0.04412 0.31245 0.49983 0.0
C724 C 0.9855 0.291 0.50176 0.0
C725 C 0.07325 0.33702 0.47904 0.0
C726 C 0.04498 0.34113 0.45934 0.0
H727 H 0.06795 0.31003 0.51444 0.0
H728 H 0.11818 0.35235 0.47839 0.0
S729 S 0.89226 0.29425 0.45543 0.0
N730 N 0.90058 0.27716 0.48223 0.0
N731 N 0.95543 0.32397 0.44325 0.0
C732 C 0.98657 0.32082 0.46108 0.0
C733 C 0.95682 0.29555 0.48224 0.0
C734 C 0.67845 0.72371 0.47565 0.0
C735 C 0.71302 0.73912 0.45566 0.0
C736 C 0.69158 0.70302 0.4957 0.0
C737 C 0.73947 0.69639 0.49653 0.0
H738 H 0.6416 0.72882 0.47606 0.0
H739 H 0.66436 0.69293 0.51086 0.0
S740 S 0.84389 0.72992 0.44905 0.0
N741 N 0.79748 0.74548 0.438 0.0
N742 N 0.82138 0.70628 0.47577 0.0
C743 C 0.77367 0.71008 0.47658 0.0
C744 C 0.76067 0.73159 0.45615 0.0
C745 C 0.31405 0.98118 0.47682 0.0
C746 C 0.28856 1.00176 0.46119 0.0
C747 C 0.33293 1.00633 0.49868 0.0
C748 C 0.32797 0.05351 0.50546 0.0
H749 H 0.31856 0.94466 0.4724 0.0
H750 H 0.35155 0.98875 0.51038 0.0
S751 S 0.2639 0.12358 0.47166 0.0
N752 N 0.2587 0.07204 0.4545 0.0
N753 N 0.2956 0.1198 0.49555 0.0
C754 C 0.30344 0.07521 0.49011 0.0
C755 C 0.28332 0.04914 0.46797 0.0
C756 C 0.50471 0.31193 0.09206 0.0
C757 C 0.53313 0.34284 0.07185 0.0
C758 C 0.49506 0.2564 0.09604 0.0
C759 C 0.51333 0.22958 0.07994 0.0
H760 H 0.49065 0.33109 0.10514 0.0
H761 H 0.47373 0.23465 0.112 0.0
S762 S 0.59049 0.29236 0.02434 0.0
N763 N 0.57947 0.34223 0.03552 0.0
N764 N 0.56152 0.23851 0.04297 0.0
C765 C 0.54099 0.2597 0.05946 0.0
C766 C 0.55082 0.31611 0.05542 0.0
C767 C 0.71612 0.20276 0.09199 0.0
C768 C 0.70185 0.17728 0.06973 0.0
C769 C 0.76847 0.25204 0.0961 0.0
C770 C 0.80891 0.2779 0.07814 0.0
H771 H 0.68564 0.18626 0.10614 0.0
H772 H 0.77627 0.27118 0.1133 0.0
S773 S 0.79545 0.22354 0.01745 0.0
N774 N 0.73495 0.17838 0.03008 0.0
N775 N 0.83295 0.27064 0.03776 0.0
C776 C 0.79662 0.25067 0.05619 0.0
C777 C 0.74327 0.20053 0.05201 0.0
C778 C 0.7846 0.52192 0.0962 0.0
C779 C 0.74177 0.51446 0.08061 0.0
C780 C 0.82733 0.51054 0.08932 0.0
C781 C 0.82814 0.49019 0.06673 0.0
H782 H 0.78459 0.53576 0.11398 0.0
H783 H 0.85866 0.51568 0.10212 0.0
S784 S 0.72589 0.46394 0.01921 0.0
N785 N 0.70353 0.48659 0.04136 0.0
N786 N 0.78323 0.46469 0.02859 0.0
C787 C 0.78629 0.48384 0.05082 0.0
C788 C 0.74328 0.49611 0.05771 0.0
C789 C 0.32472 0.53651 0.90853 0.0
C790 C 0.36018 0.53419 0.89123 0.0
C791 C 0.27087 0.52672 0.90301 0.0
C792 C 0.25066 0.51447 0.87996 0.0
H793 H 0.3394 0.54844 0.92632 0.0
H794 H 0.24622 0.53172 0.91669 0.0
S795 S 0.32261 0.49322 0.8291 0.0
N796 N 0.3682 0.51113 0.85073 0.0
N797 N 0.26686 0.49297 0.84036 0.0
C798 C 0.28386 0.50777 0.86285 0.0
C799 C 0.33867 0.5175 0.86849 0.0
C800 C 0.52474 0.83973 0.86942 0.0
C801 C 0.52028 0.85688 0.89218 0.0
C802 C 0.53416 0.79379 0.86561 0.0
C803 C 0.53992 0.76322 0.88437 0.0
H804 H 0.51855 0.86029 0.85436 0.0
H805 H 0.53522 0.78115 0.84773 0.0
S806 S 0.53838 0.79535 0.94742 0.0
N807 N 0.52734 0.8428 0.9338 0.0
N808 N 0.54517 0.75678 0.92664 0.0
C809 C 0.53879 0.78204 0.90722 0.0
C810 C 0.52891 0.82869 0.91111 0.0
C811 C 0.25829 0.78189 0.86578 0.0
C812 C 0.29359 0.81581 0.88403 0.0
C813 C 0.21447 0.72586 0.86978 0.0
C814 C 0.20417 0.70108 0.8922 0.0
H815 H 0.26568 0.79793 0.84801 0.0
H816 H 0.19018 0.70105 0.8549 0.0
S817 S 0.27986 0.77407 0.94661 0.0
N818 N 0.31178 0.82232 0.92586 0.0
N819 N 0.22949 0.71702 0.93341 0.0
C820 C 0.23685 0.7357 0.91091 0.0
C821 C 0.28148 0.79301 0.90683 0.0
C822 C 0.17742 0.66231 0.38631 0.0
C823 C 0.18241 0.70064 0.40406 0.0
C824 C 0.16646 0.607 0.39155 0.0
C825 C 0.16032 0.58759 0.4148 0.0
H826 H 0.18425 0.67579 0.36818 0.0
H827 H 0.16533 0.58025 0.37721 0.0
S828 S 0.16187 0.66827 0.46764 0.0
N829 N 0.1745 0.71312 0.44578 0.0
N830 N 0.15407 0.60915 0.45564 0.0
C831 C 0.16149 0.62408 0.43266 0.0
C832 C 0.1724 0.68051 0.4273 0.0
C833 C 0.4185 0.59905 0.43006 0.0
C834 C 0.45875 0.62847 0.41242 0.0
C835 C 0.36388 0.55518 0.42463 0.0
C836 C 0.34707 0.53919 0.40131 0.0
H837 H 0.42855 0.6111 0.44822 0.0
H838 H 0.33394 0.53548 0.43882 0.0
S839 S 0.43823 0.59762 0.34874 0.0
N840 N 0.47938 0.63448 0.3707 0.0
N841 N 0.37665 0.55243 0.36058 0.0
C842 C 0.38771 0.56603 0.38358 0.0
C843 C 0.44352 0.6105 0.3891 0.0
C844 C 0.47648 0.85647 0.38856 0.0
C845 C 0.50902 0.85251 0.40671 0.0
C846 C 0.43222 0.86699 0.39318 0.0
C847 C 0.41822 0.87374 0.4162 0.0
H848 H 0.48417 0.84985 0.37055 0.0
H849 H 0.40776 0.86808 0.37852 0.0
S850 S 0.49338 0.87218 0.46998 0.0
N851 N 0.52661 0.85996 0.44858 0.0
N852 N 0.44324 0.87969 0.45734 0.0
C853 C 0.45199 0.87245 0.4345 0.0
C854 C 0.49744 0.86195 0.42975 0.0
C855 C 0.9517 0.86594 0.24673 0.0
C856 C 0.92528 0.84026 0.22556 0.0
C857 C 0.00837 0.88221 0.25072 0.0
C858 C 0.04046 0.87301 0.23375 0.0
H859 H 0.92959 0.87663 0.25973 0.0
H860 H 0.02775 0.90458 0.26678 0.0
S861 S 0.98704 0.79776 0.17713 0.0
N862 N 0.93271 0.79972 0.18872 0.0
N863 N 0.03878 0.8295 0.19621 0.0
C864 C 0.01288 0.84307 0.21331 0.0
C865 C 0.95542 0.82699 0.20921 0.0
C866 C 0.21502 0.12835 0.23203 0.0
C867 C 0.21894 0.11226 0.20901 0.0
C868 C 0.20339 0.17237 0.23654 0.0
C869 C 0.19521 0.20237 0.21825 0.0
H870 H 0.21859 0.10526 0.24681 0.0
H871 H 0.19845 0.18118 0.25459 0.0
S872 S 0.20955 0.18294 0.15482 0.0
N873 N 0.22011 0.1343 0.16766 0.0
N874 N 0.19815 0.21712 0.17617 0.0
C875 C 0.20302 0.1896 0.19515 0.0
C876 C 0.21482 0.1445 0.19053 0.0
C877 C 0.9024 0.05204 0.24194 0.0
C878 C 0.86514 0.01489 0.22488 0.0
C879 C 0.94422 0.10785 0.23628 0.0
C880 C 0.95064 0.12909 0.21332 0.0
H881 H 0.90074 0.03744 0.25971 0.0
H882 H 0.97279 0.13389 0.24999 0.0
S883 S 0.85928 0.0517 0.16275 0.0
N884 N 0.83396 1.00516 0.18446 0.0
N885 N 0.9126 0.11016 0.17383 0.0
C886 C 0.91168 0.09355 0.19634 0.0
C887 C 0.86894 0.03651 0.20212 0.0
C888 C 0.84391 0.94022 0.76468 0.0
C889 C 0.83756 0.90289 0.74626 0.0
C890 C 0.85176 0.99488 0.76033 0.0
C891 C 0.85396 0.01465 0.73737 0.0
H892 H 0.84464 0.92797 0.78265 0.0
H893 H 0.85871 0.02268 0.77511 0.0
S894 S 0.83257 0.93126 0.68296 0.0
N895 N 0.82866 0.88785 0.70413 0.0
N896 N 0.84365 0.99048 0.69602 0.0
C897 C 0.84449 0.97664 0.71882 0.0
C898 C 0.83622 0.92084 0.72324 0.0
C899 C 0.10786 0.94082 0.72507 0.0
C900 C 0.13137 0.94293 0.74717 0.0
C901 C 0.05291 0.89819 0.71961 0.0
C902 C 0.01905 0.85576 0.73597 0.0
H903 H 0.13116 0.97363 0.71211 0.0
H904 H 0.03626 0.89998 0.70266 0.0
S905 S 0.06328 0.8372 0.79514 0.0
N906 N 0.11857 0.89519 0.78468 0.0
N907 N 0.01512 0.81499 0.77438 0.0
C908 C 0.04323 0.85505 0.75759 0.0
C909 C 0.09938 0.89864 0.76318 0.0
C910 C 0.13499 0.17882 0.7212 0.0
C911 C 0.1747 0.18592 0.7384 0.0
C912 C 0.09167 0.1908 0.72588 0.0
C913 C 0.08606 0.21028 0.748 0.0
H914 H 0.13576 0.16157 0.7042 0.0
H915 H 0.06092 0.18221 0.71229 0.0
S916 S 0.18415 0.24466 0.79801 0.0
N917 N 0.20943 0.22017 0.77765 0.0
N918 N 0.12789 0.24255 0.78645 0.0
C919 C 0.12768 0.22134 0.76488 0.0
C920 C 0.17202 0.20927 0.76008 0.0
C921 C 0.58617 0.16096 0.56996 0.0
C922 C 0.56595 0.15936 0.5472 0.0
C923 C 0.64036 0.16925 0.57379 0.0
C924 C 0.67669 0.17581 0.55507 0.0
H925 H 0.56096 0.15823 0.58506 0.0
H926 H 0.65447 0.17233 0.59169 0.0
S927 S 0.64193 0.16822 0.49202 0.0
N928 N 0.58496 0.16006 0.50556 0.0
N929 N 0.68673 0.17539 0.51283 0.0
C930 C 0.65588 0.17085 0.5322 0.0
C931 C 0.60064 0.16278 0.52826 0.0
C932 C 0.84537 0.42571 0.52506 0.0
C933 C 0.85675 0.39761 0.54318 0.0
C934 C 0.83885 0.47317 0.5296 0.0
C935 C 0.84288 0.494 0.55247 0.0
H936 H 0.83976 0.40999 0.50729 0.0
H937 H 0.82798 0.49191 0.5152 0.0
S938 S 0.87811 0.43995 0.6058 0.0
N939 N 0.87653 0.3975 0.5847 0.0
N940 N 0.86374 0.48615 0.59314 0.0
C941 C 0.85703 0.46819 0.57057 0.0
C942 C 0.86415 0.4202 0.56595 0.0
C943 C 0.57013 0.38883 0.57566 0.0
C944 C 0.5329 0.3494 0.5592 0.0
C945 C 0.6137 0.44288 0.56881 0.0
C946 C 0.62235 0.45964 0.54514 0.0
H947 H 0.56677 0.37732 0.59398 0.0
H948 H 0.64232 0.47066 0.58214 0.0
S949 S 0.53294 0.37492 0.49535 0.0
N950 N 0.50461 0.33293 0.51831 0.0
N951 N 0.58693 0.43435 0.50545 0.0
C952 C 0.5837 0.42188 0.52862 0.0
C953 C 0.53887 0.36688 0.53563 0.0
loop_
_geom_bond_atom_site_label_1
_geom_bond_atom_site_label_2
_geom_bond_distance
_geom_bond_site_symmetry_2
_ccdc_geom_bond_type
Zn0 O6 1.969 . S
Zn0 O7 1.965 . S
Zn0 O11 2.024 . S
Zn0 O16 1.969 . S
Zn1 O8 1.969 . S
Zn1 O14 1.969 . S
Zn1 O15 1.965 . S
Zn1 O17 2.024 . S
C2 O3 1.229 . S
C2 O11 1.058 . S
O3 C2 1.229 . S
C4 O5 1.229 . S
C4 O17 1.058 . S
O5 C4 1.229 . S
O6 Zn0 1.969 . S
O6 C9 1.267 . S
O7 Zn0 1.965 . S
O7 C18 1.260 1_565 S
O8 Zn1 1.969 . S
O8 C18 1.258 . S
C9 O6 1.267 . S
C9 O10 1.228 . S
O10 C9 1.228 . S
O11 Zn0 2.024 . S
O11 C2 1.058 . S
C12 O13 1.228 . S
C12 O14 1.267 . S
O13 C12 1.228 . S
O14 Zn1 1.969 . S
O14 C12 1.267 . S
O15 Zn1 1.965 . S
O15 C19 1.260 . S
O16 Zn0 1.969 . S
O16 C19 1.258 1_565 S
O17 Zn1 2.024 . S
O17 C4 1.058 . S
C18 O7 1.260 1_545 S
C18 O8 1.258 . S
C19 O15 1.260 . S
C19 O16 1.258 1_545 S
Zn20 O26 1.969 . S
Zn20 O27 1.965 . S
Zn20 O31 2.024 . S
Zn20 O36 1.969 . S
Zn21 O28 1.969 . S
Zn21 O34 1.969 . S
Zn21 O35 1.965 . S
Zn21 O37 2.024 . S
C22 O23 1.229 . S
C22 O31 1.058 . S
O23 C22 1.229 . S
C24 O25 1.229 . S
C24 O37 1.058 . S
O25 C24 1.229 . S
O26 Zn20 1.969 . S
O26 C29 1.267 . S
O27 Zn20 1.965 . S
O27 C38 1.260 . S
O28 Zn21 1.969 . S
O28 C38 1.258 1_655 S
C29 O26 1.267 . S
C29 O30 1.228 . S
O30 C29 1.228 . S
O31 Zn20 2.024 . S
O31 C22 1.058 . S
C32 O33 1.228 . S
C32 O34 1.267 . S
O33 C32 1.228 . S
O34 Zn21 1.969 . S
O34 C32 1.267 . S
O35 Zn21 1.965 . S
O35 C39 1.260 1_655 S
O36 Zn20 1.969 . S
O36 C39 1.258 . S
O37 Zn21 2.024 . S
O37 C24 1.058 . S
C38 O27 1.260 . S
C38 O28 1.258 1_455 S
C39 O35 1.260 1_455 S
C39 O36 1.258 . S
Zn40 O46 1.969 . S
Zn40 O47 1.965 . S
Zn40 O51 2.024 . S
Zn40 O56 1.969 . S
Zn41 O48 1.969 . S
Zn41 O54 1.969 . S
Zn41 O55 1.965 . S
Zn41 O57 2.024 . S
C42 O43 1.229 . S
C42 O51 1.058 . S
O43 C42 1.229 . S
C44 O45 1.229 . S
C44 O57 1.058 . S
O45 C44 1.229 . S
O46 Zn40 1.969 . S
O46 C49 1.267 . S
O47 Zn40 1.965 . S
O47 C58 1.260 . S
O48 Zn41 1.969 . S
O48 C58 1.258 . S
C49 O46 1.267 . S
C49 O50 1.228 . S
O50 C49 1.228 . S
O51 Zn40 2.024 . S
O51 C42 1.058 . S
C52 O53 1.228 . S
C52 O54 1.267 . S
O53 C52 1.228 . S
O54 Zn41 1.969 . S
O54 C52 1.267 . S
O55 Zn41 1.965 . S
O55 C59 1.260 . S
O56 Zn40 1.969 . S
O56 C59 1.258 . S
O57 Zn41 2.024 . S
O57 C44 1.058 . S
C58 O47 1.260 . S
C58 O48 1.258 . S
C59 O55 1.260 . S
C59 O56 1.258 . S
Zn60 O66 1.969 . S
Zn60 O67 1.965 . S
Zn60 O71 2.024 . S
Zn60 O76 1.969 . S
Zn61 O68 1.969 . S
Zn61 O74 1.969 . S
Zn61 O75 1.965 . S
Zn61 O77 2.024 . S
C62 O63 1.229 . S
C62 O71 1.058 . S
O63 C62 1.229 . S
C64 O65 1.229 . S
C64 O77 1.058 . S
O65 C64 1.229 . S
O66 Zn60 1.969 . S
O66 C69 1.267 . S
O67 Zn60 1.965 . S
O67 C78 1.260 1_655 S
O68 Zn61 1.969 . S
O68 C78 1.258 . S
C69 O66 1.267 . S
C69 O70 1.228 . S
O70 C69 1.228 . S
O71 Zn60 2.024 . S
O71 C62 1.058 . S
C72 O73 1.228 . S
C72 O74 1.267 . S
O73 C72 1.228 . S
O74 Zn61 1.969 . S
O74 C72 1.267 . S
O75 Zn61 1.965 . S
O75 C79 1.260 . S
O76 Zn60 1.969 . S
O76 C79 1.258 1_655 S
O77 Zn61 2.024 . S
O77 C64 1.058 . S
C78 O67 1.260 1_455 S
C78 O68 1.258 . S
C79 O75 1.260 . S
C79 O76 1.258 1_455 S
Zn80 O86 1.969 . S
Zn80 O87 1.965 . S
Zn80 O91 2.024 . S
Zn80 O96 1.969 . S
Zn81 O88 1.969 . S
Zn81 O94 1.969 . S
Zn81 O95 1.965 . S
Zn81 O97 2.024 . S
C82 O83 1.229 . S
C82 O91 1.058 . S
O83 C82 1.229 . S
C84 O85 1.229 . S
C84 O97 1.058 . S
O85 C84 1.229 . S
O86 Zn80 1.969 . S
O86 C89 1.267 . S
O87 Zn80 1.965 . S
O87 C98 1.260 . S
O88 Zn81 1.969 . S
O88 C98 1.258 . S
C89 O86 1.267 . S
C89 O90 1.228 . S
O90 C89 1.228 . S
O91 Zn80 2.024 . S
O91 C82 1.058 . S
C92 O93 1.228 . S
C92 O94 1.267 . S
O93 C92 1.228 . S
O94 Zn81 1.969 . S
O94 C92 1.267 . S
O95 Zn81 1.965 . S
O95 C99 1.260 . S
O96 Zn80 1.969 . S
O96 C99 1.258 . S
O97 Zn81 2.024 . S
O97 C84 1.058 . S
C98 O87 1.260 . S
C98 O88 1.258 . S
C99 O95 1.260 . S
C99 O96 1.258 . S
Zn100 O106 1.969 . S
Zn100 O107 1.965 . S
Zn100 O111 2.024 . S
Zn100 O116 1.969 . S
Zn101 O108 1.969 . S
Zn101 O114 1.969 . S
Zn101 O115 1.965 . S
Zn101 O117 2.024 . S
C102 O103 1.229 . S
C102 O111 1.058 . S
O103 C102 1.229 . S
C104 O105 1.229 . S
C104 O117 1.058 . S
O105 C104 1.229 . S
O106 Zn100 1.969 . S
O106 C109 1.267 . S
O107 Zn100 1.965 . S
O107 C118 1.260 . S
O108 Zn101 1.969 . S
O108 C118 1.258 1_565 S
C109 O106 1.267 . S
C109 O110 1.228 . S
O110 C109 1.228 . S
O111 Zn100 2.024 . S
O111 C102 1.058 . S
C112 O113 1.228 . S
C112 O114 1.267 . S
O113 C112 1.228 . S
O114 Zn101 1.969 . S
O114 C112 1.267 . S
O115 Zn101 1.965 . S
O115 C119 1.260 1_565 S
O116 Zn100 1.969 . S
O116 C119 1.258 . S
O117 Zn101 2.024 . S
O117 C104 1.058 . S
C118 O107 1.260 . S
C118 O108 1.258 1_545 S
C119 O115 1.260 1_545 S
C119 O116 1.258 . S
Zn120 O126 1.969 . S
Zn120 O127 1.965 . S
Zn120 O131 2.024 . S
Zn120 O136 1.969 . S
Zn121 O128 1.969 . S
Zn121 O134 1.969 . S
Zn121 O135 1.965 . S
Zn121 O137 2.024 . S
C122 O123 1.229 . S
C122 O131 1.058 . S
O123 C122 1.229 . S
C124 O125 1.229 . S
C124 O137 1.058 . S
O125 C124 1.229 . S
O126 Zn120 1.969 . S
O126 C129 1.267 1_455 S
O127 Zn120 1.965 . S
O127 C138 1.260 . S
O128 Zn121 1.969 . S
O128 C138 1.258 . S
C129 O126 1.267 1_655 S
C129 O130 1.228 1_655 S
O130 C129 1.228 1_455 S
O131 Zn120 2.024 . S
O131 C122 1.058 . S
C132 O133 1.228 . S
C132 O134 1.267 . S
O133 C132 1.228 . S
O134 Zn121 1.969 . S
O134 C132 1.267 . S
O135 Zn121 1.965 . S
O135 C139 1.260 . S
O136 Zn120 1.969 . S
O136 C139 1.258 . S
O137 Zn121 2.024 . S
O137 C124 1.058 . S
C138 O127 1.260 . S
C138 O128 1.258 . S
C139 O135 1.260 . S
C139 O136 1.258 . S
Zn140 O146 1.969 . S
Zn140 O147 1.965 . S
Zn140 O151 2.024 . S
Zn140 O156 1.969 . S
Zn141 O148 1.969 . S
Zn141 O154 1.969 . S
Zn141 O155 1.965 . S
Zn141 O157 2.024 . S
C142 O143 1.229 . S
C142 O151 1.058 . S
O143 C142 1.229 . S
C144 O145 1.229 . S
C144 O157 1.058 . S
O145 C144 1.229 . S
O146 Zn140 1.969 . S
O146 C149 1.267 . S
O147 Zn140 1.965 . S
O147 C158 1.260 . S
O148 Zn141 1.969 . S
O148 C158 1.258 . S
C149 O146 1.267 . S
C149 O150 1.228 . S
O150 C149 1.228 . S
O151 Zn140 2.024 . S
O151 C142 1.058 . S
C152 O153 1.228 . S
C152 O154 1.267 . S
O153 C152 1.228 . S
O154 Zn141 1.969 . S
O154 C152 1.267 . S
O155 Zn141 1.965 . S
O155 C159 1.260 . S
O156 Zn140 1.969 . S
O156 C159 1.258 . S
O157 Zn141 2.024 . S
O157 C144 1.058 . S
C158 O147 1.260 . S
C158 O148 1.258 . S
C159 O155 1.260 . S
C159 O156 1.258 . S
Zn160 O166 1.969 1_565 S
Zn160 O167 1.965 . S
Zn160 O171 2.024 . S
Zn160 O176 1.969 . S
Zn161 O168 1.969 . S
Zn161 O174 1.969 . S
Zn161 O175 1.965 . S
Zn161 O177 2.024 . S
C162 O163 1.229 . S
C162 O171 1.058 . S
O163 C162 1.229 . S
C164 O165 1.229 . S
C164 O177 1.058 . S
O165 C164 1.229 . S
O166 Zn160 1.969 1_545 S
O166 C169 1.267 . S
O167 Zn160 1.965 . S
O167 C178 1.260 . S
O168 Zn161 1.969 . S
O168 C178 1.258 . S
C169 O166 1.267 . S
C169 O170 1.228 . S
O170 C169 1.228 . S
O171 Zn160 2.024 . S
O171 C162 1.058 . S
C172 O173 1.228 . S
C172 O174 1.267 . S
O173 C172 1.228 . S
O174 Zn161 1.969 . S
O174 C172 1.267 . S
O175 Zn161 1.965 . S
O175 C179 1.260 . S
O176 Zn160 1.969 . S
O176 C179 1.258 . S
O177 Zn161 2.024 . S
O177 C164 1.058 . S
C178 O167 1.260 . S
C178 O168 1.258 . S
C179 O175 1.260 . S
C179 O176 1.258 . S
Zn180 O186 1.969 . S
Zn180 O187 1.965 . S
Zn180 O191 2.024 . S
Zn180 O196 1.969 . S
Zn181 O188 1.969 . S
Zn181 O194 1.969 . S
Zn181 O195 1.965 . S
Zn181 O197 2.024 . S
C182 O183 1.229 . S
C182 O191 1.058 . S
O183 C182 1.229 . S
C184 O185 1.229 . S
C184 O197 1.058 . S
O185 C184 1.229 . S
O186 Zn180 1.969 . S
O186 C189 1.267 . S
O187 Zn180 1.965 . S
O187 C198 1.260 . S
O188 Zn181 1.969 . S
O188 C198 1.258 . S
C189 O186 1.267 . S
C189 O190 1.228 . S
O190 C189 1.228 . S
O191 Zn180 2.024 . S
O191 C182 1.058 . S
C192 O193 1.228 . S
C192 O194 1.267 . S
O193 C192 1.228 . S
O194 Zn181 1.969 . S
O194 C192 1.267 . S
O195 Zn181 1.965 . S
O195 C199 1.260 . S
O196 Zn180 1.969 . S
O196 C199 1.258 . S
O197 Zn181 2.024 . S
O197 C184 1.058 . S
C198 O187 1.260 . S
C198 O188 1.258 . S
C199 O195 1.260 . S
C199 O196 1.258 . S
Zn200 O206 1.969 . S
Zn200 O207 1.965 . S
Zn200 O211 2.024 . S
Zn200 O216 1.969 . S
Zn201 O208 1.969 . S
Zn201 O214 1.969 . S
Zn201 O215 1.965 . S
Zn201 O217 2.024 . S
C202 O203 1.229 . S
C202 O211 1.058 . S
O203 C202 1.229 . S
C204 O205 1.229 . S
C204 O217 1.058 1_545 S
O205 C204 1.229 . S
O206 Zn200 1.969 . S
O206 C209 1.267 . S
O207 Zn200 1.965 . S
O207 C218 1.260 . S
O208 Zn201 1.969 . S
O208 C218 1.258 . S
C209 O206 1.267 . S
C209 O210 1.228 . S
O210 C209 1.228 . S
O211 Zn200 2.024 . S
O211 C202 1.058 . S
C212 O213 1.228 . S
C212 O214 1.267 . S
O213 C212 1.228 . S
O214 Zn201 1.969 . S
O214 C212 1.267 . S
O215 Zn201 1.965 . S
O215 C219 1.260 . S
O216 Zn200 1.969 . S
O216 C219 1.258 . S
O217 Zn201 2.024 . S
O217 C204 1.058 1_565 S
C218 O207 1.260 . S
C218 O208 1.258 . S
C219 O215 1.260 . S
C219 O216 1.258 . S
Zn220 O226 1.969 . S
Zn220 O227 1.965 . S
Zn220 O231 2.024 . S
Zn220 O236 1.969 . S
Zn221 O228 1.969 . S
Zn221 O234 1.969 . S
Zn221 O235 1.965 . S
Zn221 O237 2.024 . S
C222 O223 1.229 . S
C222 O231 1.058 . S
O223 C222 1.229 . S
C224 O225 1.229 . S
C224 O237 1.058 . S
O225 C224 1.229 . S
O226 Zn220 1.969 . S
O226 C229 1.267 . S
O227 Zn220 1.965 . S
O227 C238 1.260 . S
O228 Zn221 1.969 . S
O228 C238 1.258 . S
C229 O226 1.267 . S
C229 O230 1.228 . S
O230 C229 1.228 . S
O231 Zn220 2.024 . S
O231 C222 1.058 . S
C232 O233 1.228 . S
C232 O234 1.267 . S
O233 C232 1.228 . S
O234 Zn221 1.969 . S
O234 C232 1.267 . S
O235 Zn221 1.965 . S
O235 C239 1.260 . S
O236 Zn220 1.969 . S
O236 C239 1.258 . S
O237 Zn221 2.024 . S
O237 C224 1.058 . S
C238 O227 1.260 . S
C238 O228 1.258 . S
C239 O235 1.260 . S
C239 O236 1.258 . S
Zn240 O246 1.969 . S
Zn240 O247 1.965 . S
Zn240 O251 2.024 . S
Zn240 O256 1.969 . S
Zn241 O248 1.969 . S
Zn241 O254 1.969 . S
Zn241 O255 1.965 . S
Zn241 O257 2.024 . S
C242 O243 1.229 . S
C242 O251 1.058 . S
O243 C242 1.229 . S
C244 O245 1.229 . S
C244 O257 1.058 . S
O245 C244 1.229 . S
O246 Zn240 1.969 . S
O246 C249 1.267 . S
O247 Zn240 1.965 . S
O247 C258 1.260 . S
O248 Zn241 1.969 . S
O248 C258 1.258 . S
C249 O246 1.267 . S
C249 O250 1.228 . S
O250 C249 1.228 . S
O251 Zn240 2.024 . S
O251 C242 1.058 . S
C252 O253 1.228 . S
C252 O254 1.267 . S
O253 C252 1.228 . S
O254 Zn241 1.969 . S
O254 C252 1.267 . S
O255 Zn241 1.965 . S
O255 C259 1.260 . S
O256 Zn240 1.969 . S
O256 C259 1.258 . S
O257 Zn241 2.024 . S
O257 C244 1.058 . S
C258 O247 1.260 . S
C258 O248 1.258 . S
C259 O255 1.260 . S
C259 O256 1.258 . S
Zn260 O266 1.969 . S
Zn260 O267 1.965 . S
Zn260 O271 2.024 . S
Zn260 O276 1.969 . S
Zn261 O268 1.969 . S
Zn261 O274 1.969 . S
Zn261 O275 1.965 . S
Zn261 O277 2.024 . S
C262 O263 1.229 . S
C262 O271 1.058 . S
O263 C262 1.229 . S
C264 O265 1.229 . S
C264 O277 1.058 . S
O265 C264 1.229 . S
O266 Zn260 1.969 . S
O266 C269 1.267 . S
O267 Zn260 1.965 . S
O267 C278 1.260 . S
O268 Zn261 1.969 . S
O268 C278 1.258 . S
C269 O266 1.267 . S
C269 O270 1.228 . S
O270 C269 1.228 . S
O271 Zn260 2.024 . S
O271 C262 1.058 . S
C272 O273 1.228 . S
C272 O274 1.267 . S
O273 C272 1.228 . S
O274 Zn261 1.969 . S
O274 C272 1.267 . S
O275 Zn261 1.965 . S
O275 C279 1.260 . S
O276 Zn260 1.969 . S
O276 C279 1.258 . S
O277 Zn261 2.024 . S
O277 C264 1.058 . S
C278 O267 1.260 . S
C278 O268 1.258 . S
C279 O275 1.260 . S
C279 O276 1.258 . S
Zn280 O286 1.969 . S
Zn280 O287 1.965 . S
Zn280 O291 2.024 . S
Zn280 O296 1.969 . S
Zn281 O288 1.969 . S
Zn281 O294 1.969 . S
Zn281 O295 1.965 . S
Zn281 O297 2.024 . S
C282 O283 1.229 . S
C282 O291 1.058 . S
O283 C282 1.229 . S
C284 O285 1.229 . S
C284 O297 1.058 1_455 S
O285 C284 1.229 . S
O286 Zn280 1.969 . S
O286 C289 1.267 . S
O287 Zn280 1.965 . S
O287 C298 1.260 . S
O288 Zn281 1.969 . S
O288 C298 1.258 . S
C289 O286 1.267 . S
C289 O290 1.228 . S
O290 C289 1.228 . S
O291 Zn280 2.024 . S
O291 C282 1.058 . S
C292 O293 1.228 . S
C292 O294 1.267 . S
O293 C292 1.228 . S
O294 Zn281 1.969 . S
O294 C292 1.267 . S
O295 Zn281 1.965 . S
O295 C299 1.260 . S
O296 Zn280 1.969 . S
O296 C299 1.258 . S
O297 Zn281 2.024 . S
O297 C284 1.058 1_655 S
C298 O287 1.260 . S
C298 O288 1.258 . S
C299 O295 1.260 . S
C299 O296 1.258 . S
Zn300 O306 1.969 . S
Zn300 O307 1.965 . S
Zn300 O311 2.024 . S
Zn300 O316 1.969 . S
Zn301 O308 1.969 . S
Zn301 O314 1.969 . S
Zn301 O315 1.965 . S
Zn301 O317 2.024 . S
C302 O303 1.229 . S
C302 O311 1.058 . S
O303 C302 1.229 . S
C304 O305 1.229 . S
C304 O317 1.058 . S
O305 C304 1.229 . S
O306 Zn300 1.969 . S
O306 C309 1.267 1_545 S
O307 Zn300 1.965 . S
O307 C318 1.260 . S
O308 Zn301 1.969 . S
O308 C318 1.258 . S
C309 O306 1.267 1_565 S
C309 O310 1.228 1_565 S
O310 C309 1.228 1_545 S
O311 Zn300 2.024 . S
O311 C302 1.058 . S
C312 O313 1.228 . S
C312 O314 1.267 . S
O313 C312 1.228 . S
O314 Zn301 1.969 . S
O314 C312 1.267 . S
O315 Zn301 1.965 . S
O315 C319 1.260 . S
O316 Zn300 1.969 . S
O316 C319 1.258 . S
O317 Zn301 2.024 . S
O317 C304 1.058 . S
C318 O307 1.260 . S
C318 O308 1.258 . S
C319 O315 1.260 . S
C319 O316 1.258 . S
Zn320 O326 1.969 1_655 S
Zn320 O327 1.965 . S
Zn320 O331 2.024 . S
Zn320 O336 1.969 . S
Zn321 O328 1.969 . S
Zn321 O334 1.969 . S
Zn321 O335 1.965 . S
Zn321 O337 2.024 . S
C322 O323 1.229 . S
C322 O331 1.058 . S
O323 C322 1.229 . S
C324 O325 1.229 . S
C324 O337 1.058 . S
O325 C324 1.229 . S
O326 Zn320 1.969 1_455 S
O326 C329 1.267 . S
O327 Zn320 1.965 . S
O327 C338 1.260 . S
O328 Zn321 1.969 . S
O328 C338 1.258 . S
C329 O326 1.267 . S
C329 O330 1.228 . S
O330 C329 1.228 . S
O331 Zn320 2.024 . S
O331 C322 1.058 . S
C332 O333 1.228 . S
C332 O334 1.267 . S
O333 C332 1.228 . S
O334 Zn321 1.969 . S
O334 C332 1.267 . S
O335 Zn321 1.965 . S
O335 C339 1.260 . S
O336 Zn320 1.969 . S
O336 C339 1.258 . S
O337 Zn321 2.024 . S
O337 C324 1.058 . S
C338 O327 1.260 . S
C338 O328 1.258 . S
C339 O335 1.260 . S
C339 O336 1.258 . S
Zn340 O346 1.969 . S
Zn340 O347 1.965 . S
Zn340 O351 2.024 . S
Zn340 O356 1.969 . S
Zn341 O348 1.969 . S
Zn341 O354 1.969 . S
Zn341 O355 1.965 . S
Zn341 O357 2.024 . S
C342 O343 1.229 . S
C342 O351 1.058 . S
O343 C342 1.229 . S
C344 O345 1.229 . S
C344 O357 1.058 . S
O345 C344 1.229 . S
O346 Zn340 1.969 . S
O346 C349 1.267 . S
O347 Zn340 1.965 . S
O347 C358 1.260 . S
O348 Zn341 1.969 . S
O348 C358 1.258 . S
C349 O346 1.267 . S
C349 O350 1.228 . S
O350 C349 1.228 . S
O351 Zn340 2.024 . S
O351 C342 1.058 . S
C352 O353 1.228 . S
C352 O354 1.267 . S
O353 C352 1.228 . S
O354 Zn341 1.969 . S
O354 C352 1.267 . S
O355 Zn341 1.965 . S
O355 C359 1.260 . S
O356 Zn340 1.969 . S
O356 C359 1.258 . S
O357 Zn341 2.024 . S
O357 C344 1.058 . S
C358 O347 1.260 . S
C358 O348 1.258 . S
C359 O355 1.260 . S
C359 O356 1.258 . S
C360 C361 1.369 . S
C360 C362 1.419 . S
C360 H364 0.930 . S
C361 C360 1.369 . S
C361 C370 1.429 . S
C362 C360 1.419 . S
C362 C363 1.363 . S
C362 H365 0.929 . S
C363 C362 1.363 . S
C363 C369 1.428 . S
H364 C360 0.930 . S
H365 C362 0.929 . S
S366 N367 1.613 . S
S366 N368 1.610 . S
N367 S366 1.613 . S
N367 C370 1.350 . S
N368 S366 1.610 . S
N368 C369 1.351 . S
C369 C363 1.428 . S
C369 N368 1.351 . S
C369 C370 1.434 . S
C370 C361 1.429 . S
C370 N367 1.350 . S
C370 C369 1.434 . S
C371 C372 1.369 . S
C371 C373 1.419 . S
C371 H375 0.930 . S
C372 C371 1.369 . S
C372 C381 1.429 . S
C373 C371 1.419 . S
C373 C374 1.363 . S
C373 H376 0.929 . S
C374 C373 1.363 . S
C374 C380 1.428 . S
H375 C371 0.930 . S
H376 C373 0.929 . S
S377 N378 1.613 . S
S377 N379 1.610 . S
N378 S377 1.613 . S
N378 C381 1.350 . S
N379 S377 1.610 . S
N379 C380 1.351 . S
C380 C374 1.428 . S
C380 N379 1.351 . S
C380 C381 1.434 . S
C381 C372 1.429 . S
C381 N378 1.350 . S
C381 C380 1.434 . S
C382 C383 1.369 . S
C382 C384 1.419 . S
C382 H386 0.930 . S
C383 C382 1.369 . S
C383 C392 1.429 . S
C384 C382 1.419 . S
C384 C385 1.363 . S
C384 H387 0.929 . S
C385 C384 1.363 . S
C385 C391 1.428 . S
H386 C382 0.930 . S
H387 C384 0.929 . S
S388 N389 1.613 . S
S388 N390 1.610 . S
N389 S388 1.613 . S
N389 C392 1.350 . S
N390 S388 1.610 . S
N390 C391 1.351 . S
C391 C385 1.428 . S
C391 N390 1.351 . S
C391 C392 1.434 . S
C392 C383 1.429 . S
C392 N389 1.350 . S
C392 C391 1.434 . S
C393 C394 1.369 . S
C393 C395 1.419 . S
C393 H397 0.930 . S
C394 C393 1.369 . S
C394 C403 1.429 . S
C395 C393 1.419 . S
C395 C396 1.363 . S
C395 H398 0.929 . S
C396 C395 1.363 . S
C396 C402 1.428 . S
H397 C393 0.930 . S
H398 C395 0.929 . S
S399 N400 1.613 . S
S399 N401 1.610 . S
N400 S399 1.613 . S
N400 C403 1.350 . S
N401 S399 1.610 . S
N401 C402 1.351 . S
C402 C396 1.428 . S
C402 N401 1.351 . S
C402 C403 1.434 . S
C403 C394 1.429 . S
C403 N400 1.350 . S
C403 C402 1.434 . S
C404 C405 1.369 . S
C404 C406 1.419 . S
C404 H408 0.930 . S
C405 C404 1.369 . S
C405 C414 1.429 . S
C406 C404 1.419 . S
C406 C407 1.363 . S
C406 H409 0.929 . S
C407 C406 1.363 . S
C407 C413 1.428 . S
H408 C404 0.930 . S
H409 C406 0.929 . S
S410 N411 1.613 . S
S410 N412 1.610 . S
N411 S410 1.613 . S
N411 C414 1.350 . S
N412 S410 1.610 . S
N412 C413 1.351 . S
C413 C407 1.428 . S
C413 N412 1.351 . S
C413 C414 1.434 . S
C414 C405 1.429 . S
C414 N411 1.350 . S
C414 C413 1.434 . S
C415 C416 1.369 . S
C415 C417 1.419 . S
C415 H419 0.930 . S
C416 C415 1.369 . S
C416 C425 1.429 . S
C417 C415 1.419 . S
C417 C418 1.363 . S
C417 H420 0.929 . S
C418 C417 1.363 . S
C418 C424 1.428 . S
H419 C415 0.930 . S
H420 C417 0.929 . S
S421 N422 1.613 . S
S421 N423 1.610 . S
N422 S421 1.613 . S
N422 C425 1.350 . S
N423 S421 1.610 . S
N423 C424 1.351 . S
C424 C418 1.428 . S
C424 N423 1.351 . S
C424 C425 1.434 . S
C425 C416 1.429 . S
C425 N422 1.350 . S
C425 C424 1.434 . S
C426 C427 1.369 . S
C426 C428 1.419 . S
C426 H430 0.930 . S
C427 C426 1.369 . S
C427 C436 1.429 . S
C428 C426 1.419 . S
C428 C429 1.363 . S
C428 H431 0.929 . S
C429 C428 1.363 . S
C429 C435 1.428 . S
H430 C426 0.930 . S
H431 C428 0.929 . S
S432 N433 1.613 . S
S432 N434 1.610 . S
N433 S432 1.613 . S
N433 C436 1.350 . S
N434 S432 1.610 . S
N434 C435 1.351 . S
C435 C429 1.428 . S
C435 N434 1.351 . S
C435 C436 1.434 . S
C436 C427 1.429 . S
C436 N433 1.350 . S
C436 C435 1.434 . S
C437 C438 1.369 . S
C437 C439 1.419 . S
C437 H441 0.930 . S
C438 C437 1.369 . S
C438 C447 1.429 . S
C439 C437 1.419 . S
C439 C440 1.363 . S
C439 H442 0.929 . S
C440 C439 1.363 . S
C440 C446 1.428 . S
H441 C437 0.930 . S
H442 C439 0.929 . S
S443 N444 1.613 . S
S443 N445 1.610 . S
N444 S443 1.613 . S
N444 C447 1.350 . S
N445 S443 1.610 . S
N445 C446 1.351 . S
C446 C440 1.428 . S
C446 N445 1.351 . S
C446 C447 1.434 . S
C447 C438 1.429 . S
C447 N444 1.350 . S
C447 C446 1.434 . S
C448 C449 1.369 1_655 S
C448 C450 1.419 . S
C448 H452 0.930 . S
C449 C448 1.369 1_455 S
C449 C458 1.429 1_455 S
C450 C448 1.419 . S
C450 C451 1.363 . S
C450 H453 0.929 . S
C451 C450 1.363 . S
C451 C457 1.428 . S
H452 C448 0.930 . S
H453 C450 0.929 . S
S454 N455 1.613 1_655 S
S454 N456 1.610 . S
N455 S454 1.613 1_455 S
N455 C458 1.350 1_455 S
N456 S454 1.610 . S
N456 C457 1.351 . S
C457 C451 1.428 . S
C457 N456 1.351 . S
C457 C458 1.434 . S
C458 C449 1.429 1_655 S
C458 N455 1.350 1_655 S
C458 C457 1.434 . S
C459 C460 1.369 . S
C459 C461 1.419 . S
C459 H463 0.930 . S
C460 C459 1.369 . S
C460 C469 1.429 . S
C461 C459 1.419 . S
C461 C462 1.363 . S
C461 H464 0.929 . S
C462 C461 1.363 . S
C462 C468 1.428 . S
H463 C459 0.930 . S
H464 C461 0.929 . S
S465 N466 1.613 . S
S465 N467 1.610 . S
N466 S465 1.613 . S
N466 C469 1.350 . S
N467 S465 1.610 . S
N467 C468 1.351 . S
C468 C462 1.428 . S
C468 N467 1.351 . S
C468 C469 1.434 . S
C469 C460 1.429 . S
C469 N466 1.350 . S
C469 C468 1.434 . S
C470 C471 1.369 . S
C470 C472 1.419 . S
C470 H474 0.930 . S
C471 C470 1.369 . S
C471 C480 1.429 . S
C472 C470 1.419 . S
C472 C473 1.363 . S
C472 H475 0.929 . S
C473 C472 1.363 . S
C473 C479 1.428 . S
H474 C470 0.930 . S
H475 C472 0.929 . S
S476 N477 1.613 . S
S476 N478 1.610 . S
N477 S476 1.613 . S
N477 C480 1.350 . S
N478 S476 1.610 . S
N478 C479 1.351 . S
C479 C473 1.428 . S
C479 N478 1.351 . S
C479 C480 1.434 . S
C480 C471 1.429 . S
C480 N477 1.350 . S
C480 C479 1.434 . S
C481 C482 1.369 . S
C481 C483 1.419 . S
C481 H485 0.930 . S
C482 C481 1.369 . S
C482 C491 1.429 . S
C483 C481 1.419 . S
C483 C484 1.363 . S
C483 H486 0.929 . S
C484 C483 1.363 . S
C484 C490 1.428 . S
H485 C481 0.930 . S
H486 C483 0.929 . S
S487 N488 1.613 . S
S487 N489 1.610 . S
N488 S487 1.613 . S
N488 C491 1.350 . S
N489 S487 1.610 . S
N489 C490 1.351 . S
C490 C484 1.428 . S
C490 N489 1.351 . S
C490 C491 1.434 . S
C491 C482 1.429 . S
C491 N488 1.350 . S
C491 C490 1.434 . S
C492 C493 1.369 . S
C492 C494 1.419 . S
C492 H496 0.930 . S
C493 C492 1.369 . S
C493 C502 1.429 . S
C494 C492 1.419 . S
C494 C495 1.363 . S
C494 H497 0.929 . S
C495 C494 1.363 . S
C495 C501 1.428 . S
H496 C492 0.930 . S
H497 C494 0.929 . S
S498 N499 1.613 . S
S498 N500 1.610 . S
N499 S498 1.613 . S
N499 C502 1.350 . S
N500 S498 1.610 . S
N500 C501 1.351 . S
C501 C495 1.428 . S
C501 N500 1.351 . S
C501 C502 1.434 . S
C502 C493 1.429 . S
C502 N499 1.350 . S
C502 C501 1.434 . S
C503 C504 1.369 . S
C503 C505 1.419 . S
C503 H507 0.930 . S
C504 C503 1.369 . S
C504 C513 1.429 . S
C505 C503 1.419 . S
C505 C506 1.363 . S
C505 H508 0.929 . S
C506 C505 1.363 . S
C506 C512 1.428 . S
H507 C503 0.930 . S
H508 C505 0.929 . S
S509 N510 1.613 . S
S509 N511 1.610 . S
N510 S509 1.613 . S
N510 C513 1.350 . S
N511 S509 1.610 . S
N511 C512 1.351 . S
C512 C506 1.428 . S
C512 N511 1.351 . S
C512 C513 1.434 . S
C513 C504 1.429 . S
C513 N510 1.350 . S
C513 C512 1.434 . S
C514 C515 1.369 . S
C514 C516 1.419 . S
C514 H518 0.930 . S
C515 C514 1.369 . S
C515 C524 1.429 . S
C516 C514 1.419 . S
C516 C517 1.363 . S
C516 H519 0.929 . S
C517 C516 1.363 . S
C517 C523 1.428 . S
H518 C514 0.930 . S
H519 C516 0.929 . S
S520 N521 1.613 . S
S520 N522 1.610 . S
N521 S520 1.613 . S
N521 C524 1.350 . S
N522 S520 1.610 . S
N522 C523 1.351 . S
C523 C517 1.428 . S
C523 N522 1.351 . S
C523 C524 1.434 . S
C524 C515 1.429 . S
C524 N521 1.350 . S
C524 C523 1.434 . S
C525 C526 1.369 . S
C525 C527 1.419 . S
C525 H529 0.930 . S
C526 C525 1.369 . S
C526 C535 1.429 . S
C527 C525 1.419 . S
C527 C528 1.363 . S
C527 H530 0.929 . S
C528 C527 1.363 . S
C528 C534 1.428 . S
H529 C525 0.930 . S
H530 C527 0.929 . S
S531 N532 1.613 . S
S531 N533 1.610 . S
N532 S531 1.613 . S
N532 C535 1.350 . S
N533 S531 1.610 . S
N533 C534 1.351 . S
C534 C528 1.428 . S
C534 N533 1.351 . S
C534 C535 1.434 . S
C535 C526 1.429 . S
C535 N532 1.350 . S
C535 C534 1.434 . S
C536 C537 1.369 . S
C536 C538 1.419 . S
C536 H540 0.930 . S
C537 C536 1.369 . S
C537 C546 1.429 . S
C538 C536 1.419 . S
C538 C539 1.363 1_565 S
C538 H541 0.929 . S
C539 C538 1.363 1_545 S
C539 C545 1.428 1_545 S
H540 C536 0.930 . S
H541 C538 0.929 . S
S542 N543 1.613 . S
S542 N544 1.610 1_565 S
N543 S542 1.613 . S
N543 C546 1.350 . S
N544 S542 1.610 1_545 S
N544 C545 1.351 1_545 S
C545 C539 1.428 1_565 S
C545 N544 1.351 1_565 S
C545 C546 1.434 . S
C546 C537 1.429 . S
C546 N543 1.350 . S
C546 C545 1.434 . S
C547 C548 1.369 . S
C547 C549 1.419 . S
C547 H551 0.930 . S
C548 C547 1.369 . S
C548 C557 1.429 . S
C549 C547 1.419 . S
C549 C550 1.363 . S
C549 H552 0.929 . S
C550 C549 1.363 . S
C550 C556 1.428 . S
H551 C547 0.930 . S
H552 C549 0.929 . S
S553 N554 1.613 . S
S553 N555 1.610 . S
N554 S553 1.613 . S
N554 C557 1.350 . S
N555 S553 1.610 . S
N555 C556 1.351 . S
C556 C550 1.428 . S
C556 N555 1.351 . S
C556 C557 1.434 . S
C557 C548 1.429 . S
C557 N554 1.350 . S
C557 C556 1.434 . S
C558 C559 1.369 1_565 S
C558 C560 1.419 1_554 S
C558 H562 0.930 . S
C559 C558 1.369 1_545 S
C559 C568 1.429 . S
C560 C558 1.419 1_556 S
C560 C561 1.363 1_565 S
C560 H563 0.929 . S
C561 C560 1.363 1_545 S
C561 C567 1.428 . S
H562 C558 0.930 . S
H563 C560 0.929 . S
S564 N565 1.613 1_556 S
S564 N566 1.610 . S
N565 S564 1.613 1_554 S
N565 C568 1.350 . S
N566 S564 1.610 . S
N566 C567 1.351 . S
C567 C561 1.428 . S
C567 N566 1.351 . S
C567 C568 1.434 1_556 S
C568 C559 1.429 . S
C568 N565 1.350 . S
C568 C567 1.434 1_554 S
C569 C570 1.369 . S
C569 C571 1.419 1_556 S
C569 H573 0.930 . S
C570 C569 1.369 . S
C570 C579 1.429 . S
C571 C569 1.419 1_554 S
C571 C572 1.363 . S
C571 H574 0.929 . S
C572 C571 1.363 . S
C572 C578 1.428 . S
H573 C569 0.930 . S
H574 C571 0.929 . S
S575 N576 1.646 . S
S575 N577 1.582 1_556 S
N576 S575 1.646 . S
N576 C579 1.345 1_655 S
N577 S575 1.582 1_554 S
N577 C578 1.351 1_655 S
C578 C572 1.428 . S
C578 N577 1.351 1_455 S
C578 C579 1.434 1_554 S
C579 C570 1.429 . S
C579 N576 1.345 1_455 S
C579 C578 1.434 1_556 S
C580 C581 1.369 . S
C580 C582 1.419 1_556 S
C580 H584 0.930 . S
C581 C580 1.369 . S
C581 C590 1.429 . S
C582 C580 1.419 1_554 S
C582 C583 1.363 . S
C582 H585 0.929 . S
C583 C582 1.363 . S
C583 C589 1.428 . S
H584 C580 0.930 . S
H585 C582 0.929 . S
S586 N587 1.613 . S
S586 N588 1.610 1_556 S
N587 S586 1.613 . S
N587 C590 1.350 . S
N588 S586 1.610 1_554 S
N588 C589 1.351 . S
C589 C583 1.428 . S
C589 N588 1.351 . S
C589 C590 1.434 1_554 S
C590 C581 1.429 . S
C590 N587 1.350 . S
C590 C589 1.434 1_556 S
C591 C592 1.369 . S
C591 C593 1.419 . S
C591 H595 0.930 . S
C592 C591 1.369 . S
C592 C601 1.429 . S
C593 C591 1.419 . S
C593 C594 1.363 . S
C593 H596 0.929 . S
C594 C593 1.363 . S
C594 C600 1.428 . S
H595 C591 0.930 . S
H596 C593 0.929 . S
S597 N598 1.613 . S
S597 N599 1.610 . S
N598 S597 1.613 . S
N598 C601 1.350 . S
N599 S597 1.610 . S
N599 C600 1.351 . S
C600 C594 1.428 . S
C600 N599 1.351 . S
C600 C601 1.434 . S
C601 C592 1.429 . S
C601 N598 1.350 . S
C601 C600 1.434 . S
C602 C603 1.369 . S
C602 C604 1.419 . S
C602 H606 0.930 . S
C603 C602 1.369 . S
C603 C612 1.429 . S
C604 C602 1.419 . S
C604 C605 1.363 . S
C604 H607 0.929 . S
C605 C604 1.363 . S
C605 C611 1.428 . S
H606 C602 0.930 . S
H607 C604 0.929 . S
S608 N609 1.613 . S
S608 N610 1.610 . S
N609 S608 1.613 . S
N609 C612 1.350 . S
N610 S608 1.610 . S
N610 C611 1.351 . S
C611 C605 1.428 . S
C611 N610 1.351 . S
C611 C612 1.434 . S
C612 C603 1.429 . S
C612 N609 1.350 . S
C612 C611 1.434 . S
C613 C614 1.369 . S
C613 C615 1.419 . S
C613 H617 0.930 . S
C614 C613 1.369 . S
C614 C623 1.429 . S
C615 C613 1.419 . S
C615 C616 1.363 . S
C615 H618 0.929 . S
C616 C615 1.363 . S
C616 C622 1.428 . S
H617 C613 0.930 . S
H618 C615 0.929 . S
S619 N620 1.613 . S
S619 N621 1.610 . S
N620 S619 1.613 . S
N620 C623 1.350 . S
N621 S619 1.610 . S
N621 C622 1.351 . S
C622 C616 1.428 . S
C622 N621 1.351 . S
C622 C623 1.434 . S
C623 C614 1.429 . S
C623 N620 1.350 . S
C623 C622 1.434 . S
C624 C625 1.369 . S
C624 C626 1.419 . S
C624 H628 0.930 . S
C625 C624 1.369 . S
C625 C634 1.429 . S
C626 C624 1.419 . S
C626 C627 1.363 . S
C626 H629 0.929 . S
C627 C626 1.363 . S
C627 C633 1.428 . S
H628 C624 0.930 . S
H629 C626 0.929 . S
S630 N631 1.613 . S
S630 N632 1.610 . S
N631 S630 1.613 . S
N631 C634 1.350 . S
N632 S630 1.610 . S
N632 C633 1.351 . S
C633 C627 1.428 . S
C633 N632 1.351 . S
C633 C634 1.434 . S
C634 C625 1.429 . S
C634 N631 1.350 . S
C634 C633 1.434 . S
C635 C636 1.369 . S
C635 C637 1.419 . S
C635 H639 0.930 . S
C636 C635 1.369 . S
C636 C645 1.429 . S
C637 C635 1.419 . S
C637 C638 1.363 . S
C637 H640 0.929 . S
C638 C637 1.363 . S
C638 C644 1.428 . S
H639 C635 0.930 . S
H640 C637 0.929 . S
S641 N642 1.613 . S
S641 N643 1.610 . S
N642 S641 1.613 . S
N642 C645 1.350 . S
N643 S641 1.610 . S
N643 C644 1.351 . S
C644 C638 1.428 . S
C644 N643 1.351 . S
C644 C645 1.434 . S
C645 C636 1.429 . S
C645 N642 1.350 . S
C645 C644 1.434 . S
C646 C647 1.369 . S
C646 C648 1.419 . S
C646 H650 0.930 . S
C647 C646 1.369 . S
C647 C656 1.429 . S
C648 C646 1.419 . S
C648 C649 1.363 . S
C648 H651 0.929 . S
C649 C648 1.363 . S
C649 C655 1.428 . S
H650 C646 0.930 . S
H651 C648 0.929 . S
S652 N653 1.613 . S
S652 N654 1.610 . S
N653 S652 1.613 . S
N653 C656 1.350 . S
N654 S652 1.610 . S
N654 C655 1.351 . S
C655 C649 1.428 . S
C655 N654 1.351 . S
C655 C656 1.434 . S
C656 C647 1.429 . S
C656 N653 1.350 . S
C656 C655 1.434 . S
C657 C658 1.369 . S
C657 C659 1.419 . S
C657 H661 0.930 . S
C658 C657 1.369 . S
C658 C667 1.429 . S
C659 C657 1.419 . S
C659 C660 1.363 . S
C659 H662 0.929 . S
C660 C659 1.363 . S
C660 C666 1.428 . S
H661 C657 0.930 . S
H662 C659 0.929 . S
S663 N664 1.613 . S
S663 N665 1.610 . S
N664 S663 1.613 . S
N664 C667 1.350 . S
N665 S663 1.610 . S
N665 C666 1.351 . S
C666 C660 1.428 . S
C666 N665 1.351 . S
C666 C667 1.434 . S
C667 C658 1.429 . S
C667 N664 1.350 . S
C667 C666 1.434 . S
C668 C669 1.369 . S
C668 C670 1.419 . S
C668 H672 0.930 . S
C669 C668 1.369 . S
C669 C678 1.429 . S
C670 C668 1.419 . S
C670 C671 1.363 . S
C670 H673 0.929 . S
C671 C670 1.363 . S
C671 C677 1.428 . S
H672 C668 0.930 . S
H673 C670 0.929 . S
S674 N675 1.613 . S
S674 N676 1.610 . S
N675 S674 1.613 . S
N675 C678 1.350 . S
N676 S674 1.610 . S
N676 C677 1.351 . S
C677 C671 1.428 . S
C677 N676 1.351 . S
C677 C678 1.434 . S
C678 C669 1.429 . S
C678 N675 1.350 . S
C678 C677 1.434 . S
C679 C680 1.369 . S
C679 C681 1.419 . S
C679 H683 0.930 . S
C680 C679 1.369 . S
C680 C689 1.429 . S
C681 C679 1.419 . S
C681 C682 1.363 . S
C681 H684 0.929 . S
C682 C681 1.363 . S
C682 C688 1.428 . S
H683 C679 0.930 . S
H684 C681 0.929 . S
S685 N686 1.613 . S
S685 N687 1.610 . S
N686 S685 1.613 . S
N686 C689 1.350 . S
N687 S685 1.610 . S
N687 C688 1.351 . S
C688 C682 1.428 . S
C688 N687 1.351 . S
C688 C689 1.434 . S
C689 C680 1.429 . S
C689 N686 1.350 . S
C689 C688 1.434 . S
C690 C691 1.369 . S
C690 C692 1.419 . S
C690 H694 0.930 1_655 S
C691 C690 1.369 . S
C691 C700 1.429 . S
C692 C690 1.419 . S
C692 C693 1.363 . S
C692 H695 0.929 . S
C693 C692 1.363 . S
C693 C699 1.428 . S
H694 C690 0.930 1_455 S
H695 C692 0.929 . S
S696 N697 1.613 . S
S696 N698 1.610 . S
N697 S696 1.613 . S
N697 C700 1.350 . S
N698 S696 1.610 . S
N698 C699 1.351 . S
C699 C693 1.428 . S
C699 N698 1.351 . S
C699 C700 1.434 . S
C700 C691 1.429 . S
C700 N697 1.350 . S
C700 C699 1.434 . S
C701 C702 1.369 . S
C701 C703 1.419 . S
C701 H705 0.930 . S
C702 C701 1.369 . S
C702 C711 1.429 . S
C703 C701 1.419 . S
C703 C704 1.363 . S
C703 H706 0.929 . S
C704 C703 1.363 . S
C704 C710 1.428 . S
H705 C701 0.930 . S
H706 C703 0.929 . S
S707 N708 1.613 . S
S707 N709 1.610 . S
N708 S707 1.613 . S
N708 C711 1.350 . S
N709 S707 1.610 . S
N709 C710 1.351 . S
C710 C704 1.428 . S
C710 N709 1.351 . S
C710 C711 1.434 . S
C711 C702 1.429 . S
C711 N708 1.350 . S
C711 C710 1.434 . S
C712 C713 1.369 . S
C712 C714 1.419 . S
C712 H716 0.930 . S
C713 C712 1.369 . S
C713 C722 1.429 . S
C714 C712 1.419 . S
C714 C715 1.363 . S
C714 H717 0.929 . S
C715 C714 1.363 . S
C715 C721 1.428 . S
H716 C712 0.930 . S
H717 C714 0.929 . S
S718 N719 1.613 . S
S718 N720 1.610 . S
N719 S718 1.613 . S
N719 C722 1.350 . S
N720 S718 1.610 . S
N720 C721 1.351 . S
C721 C715 1.428 . S
C721 N720 1.351 . S
C721 C722 1.434 . S
C722 C713 1.429 . S
C722 N719 1.350 . S
C722 C721 1.434 . S
C723 C724 1.369 . S
C723 C725 1.419 1_655 S
C723 H727 0.930 . S
C724 C723 1.369 . S
C724 C733 1.431 . S
C725 C723 1.419 1_455 S
C725 C726 1.363 . S
C725 H728 0.929 . S
C726 C725 1.363 . S
C726 C732 1.428 . S
H727 C723 0.930 . S
H728 C725 0.929 . S
S729 N730 1.613 1_455 S
S729 N731 1.610 . S
N730 S729 1.613 1_655 S
N730 C733 1.357 . S
N731 S729 1.610 . S
N731 C732 1.351 . S
C732 C726 1.428 . S
C732 N731 1.351 . S
C732 C733 1.425 1_455 S
C733 C724 1.431 . S
C733 N730 1.357 . S
C733 C732 1.425 1_655 S
C734 C735 1.369 . S
C734 C736 1.419 . S
C734 H738 0.930 . S
C735 C734 1.369 . S
C735 C744 1.429 . S
C736 C734 1.419 . S
C736 C737 1.363 . S
C736 H739 0.929 . S
C737 C736 1.363 . S
C737 C743 1.428 . S
H738 C734 0.930 . S
H739 C736 0.929 . S
S740 N741 1.613 . S
S740 N742 1.610 . S
N741 S740 1.613 . S
N741 C744 1.350 . S
N742 S740 1.610 . S
N742 C743 1.351 . S
C743 C737 1.428 . S
C743 N742 1.351 . S
C743 C744 1.434 . S
C744 C735 1.429 . S
C744 N741 1.350 . S
C744 C743 1.434 . S
C745 C746 1.369 . S
C745 C747 1.419 1_565 S
C745 H749 0.930 . S
C746 C745 1.369 . S
C746 C755 1.429 . S
C747 C745 1.419 1_545 S
C747 C748 1.363 . S
C747 H750 0.929 . S
C748 C747 1.363 . S
C748 C754 1.428 . S
H749 C745 0.930 . S
H750 C747 0.929 . S
S751 N752 1.613 1_545 S
S751 N753 1.610 . S
N752 S751 1.613 1_565 S
N752 C755 1.350 . S
N753 S751 1.610 . S
N753 C754 1.351 . S
C754 C748 1.428 . S
C754 N753 1.351 . S
C754 C755 1.434 1_545 S
C755 C746 1.429 . S
C755 N752 1.350 . S
C755 C754 1.434 1_565 S
C756 C757 1.369 . S
C756 C758 1.419 . S
C756 H760 0.930 . S
C757 C756 1.369 . S
C757 C766 1.429 . S
C758 C756 1.419 . S
C758 C759 1.363 . S
C758 H761 0.929 . S
C759 C758 1.363 . S
C759 C765 1.428 . S
H760 C756 0.930 . S
H761 C758 0.929 . S
S762 N763 1.613 . S
S762 N764 1.610 . S
N763 S762 1.613 . S
N763 C766 1.350 . S
N764 S762 1.610 . S
N764 C765 1.351 . S
C765 C759 1.428 . S
C765 N764 1.351 . S
C765 C766 1.434 . S
C766 C757 1.429 . S
C766 N763 1.350 . S
C766 C765 1.434 . S
C767 C768 1.369 . S
C767 C769 1.419 . S
C767 H771 0.930 . S
C768 C767 1.369 . S
C768 C777 1.429 . S
C769 C767 1.419 . S
C769 C770 1.363 . S
C769 H772 0.929 . S
C770 C769 1.363 . S
C770 C776 1.428 . S
H771 C767 0.930 . S
H772 C769 0.929 . S
S773 N774 1.613 . S
S773 N775 1.610 . S
N774 S773 1.613 . S
N774 C777 1.350 . S
N775 S773 1.610 . S
N775 C776 1.351 . S
C776 C770 1.428 . S
C776 N775 1.351 . S
C776 C777 1.434 . S
C777 C768 1.429 . S
C777 N774 1.350 . S
C777 C776 1.434 . S
C778 C779 1.369 . S
C778 C780 1.419 . S
C778 H782 0.930 . S
C779 C778 1.369 . S
C779 C788 1.429 . S
C780 C778 1.419 . S
C780 C781 1.363 . S
C780 H783 0.929 . S
C781 C780 1.363 . S
C781 C787 1.428 . S
H782 C778 0.930 . S
H783 C780 0.929 . S
S784 N785 1.613 . S
S784 N786 1.610 . S
N785 S784 1.613 . S
N785 C788 1.350 . S
N786 S784 1.610 . S
N786 C787 1.351 . S
C787 C781 1.428 . S
C787 N786 1.351 . S
C787 C788 1.434 . S
C788 C779 1.429 . S
C788 N785 1.350 . S
C788 C787 1.434 . S
C789 C790 1.369 . S
C789 C791 1.419 . S
C789 H793 0.930 . S
C790 C789 1.369 . S
C790 C799 1.429 . S
C791 C789 1.419 . S
C791 C792 1.363 . S
C791 H794 0.929 . S
C792 C791 1.363 . S
C792 C798 1.428 . S
H793 C789 0.930 . S
H794 C791 0.929 . S
S795 N796 1.613 . S
S795 N797 1.610 . S
N796 S795 1.613 . S
N796 C799 1.350 . S
N797 S795 1.610 . S
N797 C798 1.351 . S
C798 C792 1.428 . S
C798 N797 1.351 . S
C798 C799 1.434 . S
C799 C790 1.429 . S
C799 N796 1.350 . S
C799 C798 1.434 . S
C800 C801 1.369 . S
C800 C802 1.419 . S
C800 H804 0.930 . S
C801 C800 1.369 . S
C801 C810 1.429 . S
C802 C800 1.419 . S
C802 C803 1.363 . S
C802 H805 0.929 . S
C803 C802 1.363 . S
C803 C809 1.428 . S
H804 C800 0.930 . S
H805 C802 0.929 . S
S806 N807 1.613 . S
S806 N808 1.610 . S
N807 S806 1.613 . S
N807 C810 1.350 . S
N808 S806 1.610 . S
N808 C809 1.351 . S
C809 C803 1.428 . S
C809 N808 1.351 . S
C809 C810 1.434 . S
C810 C801 1.429 . S
C810 N807 1.350 . S
C810 C809 1.434 . S
C811 C812 1.369 . S
C811 C813 1.419 . S
C811 H815 0.930 . S
C812 C811 1.369 . S
C812 C821 1.429 . S
C813 C811 1.419 . S
C813 C814 1.363 . S
C813 H816 0.929 . S
C814 C813 1.363 . S
C814 C820 1.428 . S
H815 C811 0.930 . S
H816 C813 0.929 . S
S817 N818 1.613 . S
S817 N819 1.610 . S
N818 S817 1.613 . S
N818 C821 1.350 . S
N819 S817 1.610 . S
N819 C820 1.351 . S
C820 C814 1.428 . S
C820 N819 1.351 . S
C820 C821 1.434 . S
C821 C812 1.429 . S
C821 N818 1.350 . S
C821 C820 1.434 . S
C822 C823 1.369 . S
C822 C824 1.419 . S
C822 H826 0.930 . S
C823 C822 1.369 . S
C823 C832 1.429 . S
C824 C822 1.419 . S
C824 C825 1.363 . S
C824 H827 0.929 . S
C825 C824 1.363 . S
C825 C831 1.428 . S
H826 C822 0.930 . S
H827 C824 0.929 . S
S828 N829 1.613 . S
S828 N830 1.610 . S
N829 S828 1.613 . S
N829 C832 1.350 . S
N830 S828 1.610 . S
N830 C831 1.351 . S
C831 C825 1.428 . S
C831 N830 1.351 . S
C831 C832 1.434 . S
C832 C823 1.429 . S
C832 N829 1.350 . S
C832 C831 1.434 . S
C833 C834 1.369 . S
C833 C835 1.419 . S
C833 H837 0.930 . S
C834 C833 1.369 . S
C834 C843 1.429 . S
C835 C833 1.419 . S
C835 C836 1.363 . S
C835 H838 0.929 . S
C836 C835 1.363 . S
C836 C842 1.428 . S
H837 C833 0.930 . S
H838 C835 0.929 . S
S839 N840 1.613 . S
S839 N841 1.610 . S
N840 S839 1.613 . S
N840 C843 1.350 . S
N841 S839 1.610 . S
N841 C842 1.351 . S
C842 C836 1.428 . S
C842 N841 1.351 . S
C842 C843 1.434 . S
C843 C834 1.429 . S
C843 N840 1.350 . S
C843 C842 1.434 . S
C844 C845 1.369 . S
C844 C846 1.419 . S
C844 H848 0.930 . S
C845 C844 1.369 . S
C845 C854 1.429 . S
C846 C844 1.419 . S
C846 C847 1.363 . S
C846 H849 0.929 . S
C847 C846 1.363 . S
C847 C853 1.428 . S
H848 C844 0.930 . S
H849 C846 0.929 . S
S850 N851 1.613 . S
S850 N852 1.610 . S
N851 S850 1.613 . S
N851 C854 1.350 . S
N852 S850 1.610 . S
N852 C853 1.351 . S
C853 C847 1.428 . S
C853 N852 1.351 . S
C853 C854 1.434 . S
C854 C845 1.429 . S
C854 N851 1.350 . S
C854 C853 1.434 . S
C855 C856 1.369 . S
C855 C857 1.419 . S
C855 H859 0.930 . S
C856 C855 1.369 . S
C856 C865 1.429 . S
C857 C855 1.419 . S
C857 C858 1.363 . S
C857 H860 0.929 . S
C858 C857 1.363 . S
C858 C864 1.428 . S
H859 C855 0.930 . S
H860 C857 0.929 . S
S861 N862 1.613 . S
S861 N863 1.610 . S
N862 S861 1.613 . S
N862 C865 1.350 . S
N863 S861 1.610 . S
N863 C864 1.351 . S
C864 C858 1.428 . S
C864 N863 1.351 . S
C864 C865 1.434 . S
C865 C856 1.429 . S
C865 N862 1.350 . S
C865 C864 1.434 . S
C866 C867 1.369 . S
C866 C868 1.419 . S
C866 H870 0.930 . S
C867 C866 1.369 . S
C867 C876 1.429 . S
C868 C866 1.419 . S
C868 C869 1.363 . S
C868 H871 0.929 . S
C869 C868 1.363 . S
C869 C875 1.428 . S
H870 C866 0.930 . S
H871 C868 0.929 . S
S872 N873 1.613 . S
S872 N874 1.610 . S
N873 S872 1.613 . S
N873 C876 1.350 . S
N874 S872 1.610 . S
N874 C875 1.351 . S
C875 C869 1.428 . S
C875 N874 1.351 . S
C875 C876 1.434 . S
C876 C867 1.429 . S
C876 N873 1.350 . S
C876 C875 1.434 . S
C877 C878 1.369 . S
C877 C879 1.419 . S
C877 H881 0.930 . S
C878 C877 1.369 . S
C878 C887 1.429 . S
C879 C877 1.419 . S
C879 C880 1.363 . S
C879 H882 0.929 . S
C880 C879 1.363 . S
C880 C886 1.428 . S
H881 C877 0.930 . S
H882 C879 0.929 . S
S883 N884 1.613 . S
S883 N885 1.610 . S
N884 S883 1.613 . S
N884 C887 1.350 . S
N885 S883 1.610 . S
N885 C886 1.351 . S
C886 C880 1.428 . S
C886 N885 1.351 . S
C886 C887 1.434 . S
C887 C878 1.429 . S
C887 N884 1.350 . S
C887 C886 1.434 . S
C888 C889 1.369 . S
C888 C890 1.419 . S
C888 H892 0.930 . S
C889 C888 1.369 . S
C889 C898 1.429 . S
C890 C888 1.419 . S
C890 C891 1.363 . S
C890 H893 0.929 . S
C891 C890 1.363 . S
C891 C897 1.428 . S
H892 C888 0.930 . S
H893 C890 0.929 . S
S894 N895 1.613 . S
S894 N896 1.610 . S
N895 S894 1.613 . S
N895 C898 1.350 . S
N896 S894 1.610 . S
N896 C897 1.351 . S
C897 C891 1.428 . S
C897 N896 1.351 . S
C897 C898 1.434 . S
C898 C889 1.429 . S
C898 N895 1.350 . S
C898 C897 1.434 . S
C899 C900 1.369 . S
C899 C901 1.419 . S
C899 H903 0.930 1_565 S
C900 C899 1.369 . S
C900 C909 1.429 . S
C901 C899 1.419 . S
C901 C902 1.363 . S
C901 H904 0.929 . S
C902 C901 1.363 . S
C902 C908 1.428 . S
H903 C899 0.930 1_545 S
H904 C901 0.929 . S
S905 N906 1.613 . S
S905 N907 1.610 . S
N906 S905 1.613 . S
N906 C909 1.350 . S
N907 S905 1.610 . S
N907 C908 1.351 . S
C908 C902 1.428 . S
C908 N907 1.351 . S
C908 C909 1.434 . S
C909 C900 1.429 . S
C909 N906 1.350 . S
C909 C908 1.434 . S
C910 C911 1.369 . S
C910 C912 1.419 . S
C910 H914 0.930 . S
C911 C910 1.369 . S
C911 C920 1.429 . S
C912 C910 1.419 . S
C912 C913 1.363 . S
C912 H915 0.929 . S
C913 C912 1.363 . S
C913 C919 1.428 . S
H914 C910 0.930 . S
H915 C912 0.929 . S
S916 N917 1.613 . S
S916 N918 1.610 . S
N917 S916 1.613 . S
N917 C920 1.350 . S
N918 S916 1.610 . S
N918 C919 1.351 . S
C919 C913 1.428 . S
C919 N918 1.351 . S
C919 C920 1.434 . S
C920 C911 1.429 . S
C920 N917 1.350 . S
C920 C919 1.434 . S
C921 C922 1.369 . S
C921 C923 1.419 . S
C921 H925 0.930 . S
C922 C921 1.369 . S
C922 C931 1.429 . S
C923 C921 1.419 . S
C923 C924 1.363 . S
C923 H926 0.929 . S
C924 C923 1.363 . S
C924 C930 1.428 . S
H925 C921 0.930 . S
H926 C923 0.929 . S
S927 N928 1.613 . S
S927 N929 1.610 . S
N928 S927 1.613 . S
N928 C931 1.350 . S
N929 S927 1.610 . S
N929 C930 1.351 . S
C930 C924 1.428 . S
C930 N929 1.351 . S
C930 C931 1.434 . S
C931 C922 1.429 . S
C931 N928 1.350 . S
C931 C930 1.434 . S
C932 C933 1.369 . S
C932 C934 1.419 . S
C932 H936 0.930 . S
C933 C932 1.369 . S
C933 C942 1.429 . S
C934 C932 1.419 . S
C934 C935 1.363 . S
C934 H937 0.929 . S
C935 C934 1.363 . S
C935 C941 1.428 . S
H936 C932 0.930 . S
H937 C934 0.929 . S
S938 N939 1.613 . S
S938 N940 1.610 . S
N939 S938 1.613 . S
N939 C942 1.350 . S
N940 S938 1.610 . S
N940 C941 1.351 . S
C941 C935 1.428 . S
C941 N940 1.351 . S
C941 C942 1.434 . S
C942 C933 1.429 . S
C942 N939 1.350 . S
C942 C941 1.434 . S
C943 C944 1.369 . S
C943 C945 1.419 . S
C943 H947 0.930 . S
C944 C943 1.369 . S
C944 C953 1.429 . S
C945 C943 1.419 . S
C945 C946 1.363 . S
C945 H948 0.929 . S
C946 C945 1.363 . S
C946 C952 1.428 . S
H947 C943 0.930 . S
H948 C945 0.929 . S
S949 N950 1.613 . S
S949 N951 1.610 . S
N950 S949 1.613 . S
N950 C953 1.350 . S
N951 S949 1.610 . S
N951 C952 1.351 . S
C952 C946 1.428 . S
C952 N951 1.351 . S
C952 C953 1.434 . S
C953 C944 1.429 . S
C953 N950 1.350 . S
C953 C952 1.434 . S
C361 C2 1.161 . S
C363 C49 1.094 . S
C372 C9 1.105 . S
C374 C22 1.157 . S
C383 C29 1.105 . S
C385 C42 1.156 . S
C394 C62 1.151 . S
C396 C89 1.098 . S
C405 C109 1.097 . S
C407 C82 1.160 . S
C416 C102 1.150 . S
C418 C69 1.094 . S
C427 C169 1.095 . S
C429 C122 1.152 . S
C438 C129 1.097 . S
C440 C142 1.161 1_545 S
C449 C162 1.158 . S
C451 C149 1.091 . S
C460 C209 1.090 . S
C462 C182 1.152 . S
C471 C202 1.153 . S
C473 C229 1.090 . S
C482 C189 1.094 . S
C484 C222 1.160 . S
C493 C242 1.161 . S
C495 C289 1.094 . S
C504 C249 1.105 . S
C506 C262 1.159 . S
C515 C269 1.105 . S
C517 C282 1.159 . S
C526 C329 1.095 . S
C528 C302 1.152 . S
C537 C349 1.099 . S
C539 C322 1.152 . S
C548 C309 1.098 . S
C550 C342 1.161 1_455 S
C559 C19 1.710 . S
C561 C119 1.704 . S
C570 C79 1.708 . S
C572 C39 1.707 . S
C581 C99 1.703 . S
C583 C59 1.708 . S
C592 C139 1.703 . S
C594 C239 1.709 . S
C603 C159 1.709 . S
C605 C199 1.704 . S
C614 C219 1.704 . S
C616 C179 1.708 . S
C625 C259 1.710 . S
C627 C359 1.704 . S
C636 C319 1.704 . S
C638 C279 1.708 . S
C647 C339 1.710 . S
C649 C299 1.704 . S
C658 C218 1.979 . S
C660 C18 1.971 1_565 S
C669 C38 1.977 . S
C671 C238 1.976 . S
C680 C198 1.974 . S
C682 C58 1.973 . S
C691 C78 1.971 1_655 S
C693 C298 1.979 . S
C702 C98 1.970 . S
C704 C258 1.979 . S
C713 C278 1.980 . S
C715 C118 1.974 . S
C724 C338 1.973 . S
C726 C138 1.974 . S
C735 C158 1.975 . S
C737 C358 1.978 . S
C746 C178 1.974 . S
C748 C318 1.978 . S
C757 C52 1.515 . S
C759 C4 1.349 . S
C768 C12 1.516 . S
C770 C24 1.360 . S
C779 C44 1.351 . S
C781 C32 1.515 . S
C790 C92 1.520 . S
C792 C64 1.351 . S
C801 C112 1.516 . S
C803 C84 1.360 . S
C812 C104 1.346 . S
C814 C72 1.517 . S
C823 C172 1.521 . S
C825 C124 1.358 . S
C834 C144 1.347 . S
C836 C132 1.515 . S
C845 C152 1.520 . S
C847 C164 1.351 . S
C856 C184 1.362 . S
C858 C212 1.519 1_655 S
C867 C204 1.363 . S
C869 C232 1.518 . S
C878 C192 1.521 1_545 S
C880 C224 1.355 1_655 S
C889 C244 1.356 . S
C891 C292 1.515 1_565 S
C900 C264 1.363 1_565 S
C902 C252 1.517 1_455 S
C911 C272 1.519 . S
C913 C284 1.349 . S
C922 C304 1.362 . S
C924 C332 1.519 . S
C933 C324 1.350 . S
C935 C352 1.515 . S
C944 C312 1.521 . S
C946 C344 1.353 . S
