# Generated by pormake.
# Topology snk, (6)-cn, num edge types: 1
# Building blocks:
#     Node 0, Type 0, BuildingBlock: KUMJIN_clean_sbu_0, # of connection points: 6
#     Node 1, Type 0, BuildingBlock: KUMJIN_clean_sbu_0, # of connection points: 6
#     Node 2, Type 0, BuildingBlock: KUMJIN_clean_sbu_0, # of connection points: 6
#     Node 3, Type 0, BuildingBlock: KUMJIN_clean_sbu_0, # of connection points: 6
#     Node 4, Type 0, BuildingBlock: KUMJIN_clean_sbu_0, # of connection points: 6
#     Node 5, Type 0, BuildingBlock: KUMJIN_clean_sbu_0, # of connection points: 6
#     Node 6, Type 0, BuildingBlock: KUMJIN_clean_sbu_0, # of connection points: 6
#     Node 7, Type 0, BuildingBlock: KUMJIN_clean_sbu_0, # of connection points: 6
#     Edge 8, Type (0, 0), BuildingBlock: CIFDUS_clean_linker_0, # of connection points: 2
#     Edge 9, Type (0, 0), BuildingBlock: CIFDUS_clean_linker_0, # of connection points: 2
#     Edge 10, Type (0, 0), BuildingBlock: CIFDUS_clean_linker_0, # of connection points: 2
#     Edge 11, Type (0, 0), BuildingBlock: CIFDUS_clean_linker_0, # of connection points: 2
#     Edge 12, Type (0, 0), BuildingBlock: CIFDUS_clean_linker_0, # of connection points: 2
#     Edge 13, Type (0, 0), BuildingBlock: CIFDUS_clean_linker_0, # of connection points: 2
#     Edge 14, Type (0, 0), BuildingBlock: CIFDUS_clean_linker_0, # of connection points: 2
#     Edge 15, Type (0, 0), BuildingBlock: CIFDUS_clean_linker_0, # of connection points: 2
#     Edge 16, Type (0, 0), BuildingBlock: CIFDUS_clean_linker_0, # of connection points: 2
#     Edge 17, Type (0, 0), BuildingBlock: CIFDUS_clean_linker_0, # of connection points: 2
#     Edge 18, Type (0, 0), BuildingBlock: CIFDUS_clean_linker_0, # of connection points: 2
#     Edge 19, Type (0, 0), BuildingBlock: CIFDUS_clean_linker_0, # of connection points: 2
#     Edge 20, Type (0, 0), BuildingBlock: CIFDUS_clean_linker_0, # of connection points: 2
#     Edge 21, Type (0, 0), BuildingBlock: CIFDUS_clean_linker_0, # of connection points: 2
#     Edge 22, Type (0, 0), BuildingBlock: CIFDUS_clean_linker_0, # of connection points: 2
#     Edge 23, Type (0, 0), BuildingBlock: CIFDUS_clean_linker_0, # of connection points: 2
#     Edge 24, Type (0, 0), BuildingBlock: CIFDUS_clean_linker_0, # of connection points: 2
#     Edge 25, Type (0, 0), BuildingBlock: CIFDUS_clean_linker_0, # of connection points: 2
#     Edge 26, Type (0, 0), BuildingBlock: CIFDUS_clean_linker_0, # of connection points: 2
#     Edge 27, Type (0, 0), BuildingBlock: CIFDUS_clean_linker_0, # of connection points: 2
#     Edge 28, Type (0, 0), BuildingBlock: CIFDUS_clean_linker_0, # of connection points: 2
#     Edge 29, Type (0, 0), BuildingBlock: CIFDUS_clean_linker_0, # of connection points: 2
#     Edge 30, Type (0, 0), BuildingBlock: CIFDUS_clean_linker_0, # of connection points: 2
#     Edge 31, Type (0, 0), BuildingBlock: CIFDUS_clean_linker_0, # of connection points: 2
# Relax obj value: 0.003
# Max RMSD: 0.042
# Mean RMSD: 0.040
data_MOF--net-snk--node1-KUMJIN_clean_sbu_0--edge1-CIFDUS_clean_linker_0
_symmetry_space_group_name_H-M    P1
_symmetry_Int_Tables_number       1
_symmetry_cell_setting            triclinic
loop_
_symmetry_equiv_pos_as_xyz
'x, y, z'
_cell_length_a     32.518439
_cell_length_b     32.532805
_cell_length_c     22.684533
_cell_angle_alpha  86.745727
_cell_angle_beta   86.491425
_cell_angle_gamma 90.023733
loop_
_atom_site_label
_atom_site_type_symbol
_atom_site_fract_x
_atom_site_fract_y
_atom_site_fract_z
_atom_type_partial_charge
Eu0 Eu 1.00255 0.96587 0.46339 0.0
C1 C 0.99925 0.13981 0.56611 0.0
C2 C 0.06791 0.16808 0.5468 0.0
C3 C 0.00867 0.21362 0.54691 0.0
C4 C 0.0412 0.134 0.55834 0.0
C5 C 0.98248 0.17976 0.5617 0.0
C6 C 0.05135 0.20779 0.53951 0.0
C7 C 0.9157 0.15001 0.59079 0.0
N8 N 0.97494 0.1064 0.58032 0.0
C9 C 0.93381 0.11103 0.59477 0.0
C10 C 0.94005 0.1845 0.57344 0.0
Eu11 Eu 1.00714 0.04087 0.57923 0.0
N12 N 0.05607 0.09524 0.56564 0.0
C13 C 0.09745 0.08886 0.56776 0.0
C14 C 0.11045 0.16133 0.54483 0.0
C15 C 0.12526 0.12162 0.55657 0.0
H16 H 0.91465 0.0845 0.60737 0.0
H17 H 0.15808 0.11614 0.55656 0.0
H18 H 0.07133 0.23429 0.52974 0.0
H19 H 0.88295 0.15341 0.6008 0.0
H20 H 0.10928 0.05832 0.57646 0.0
H21 H 0.84709 0.90024 0.48717 0.0
H22 H 0.13202 0.18664 0.536 0.0
H23 H 0.09252 0.91788 0.43755 0.0
H24 H 0.89914 0.95523 0.47459 0.0
H25 H 0.11979 0.84716 0.43583 0.0
H26 H 0.99633 0.24452 0.5426 0.0
H27 H 0.86866 0.82732 0.49319 0.0
H28 H 0.92588 0.77578 0.48854 0.0
H29 H 0.92595 0.21466 0.5704 0.0
H30 H 1.00011 0.7612 0.47514 0.0
N31 N 0.9503 0.91445 0.47502 0.0
C32 C 0.90928 0.92375 0.47702 0.0
C33 C 0.89179 0.85146 0.4877 0.0
C34 C 0.93377 0.842 0.48287 0.0
C35 C 0.8795 0.89254 0.4842 0.0
C36 C 0.96262 0.87461 0.47611 0.0
H37 H 0.07256 0.78761 0.45521 0.0
N38 N 0.03062 0.8987 0.45935 0.0
C39 C 0.08719 0.85213 0.44517 0.0
C40 C 1.00414 0.86647 0.46826 0.0
C41 C 0.0716 0.89216 0.44603 0.0
C42 C 0.06046 0.81861 0.45626 0.0
C43 C 0.01828 0.82551 0.46718 0.0
O44 O 0.03064 0.97027 0.3733 0.0
O45 O 0.02827 0.0265 0.48694 0.0
O46 O 0.97262 0.07029 0.5041 0.0
O47 O 0.94804 0.01073 0.46645 0.0
O48 O 0.06664 0.99009 0.43591 0.0
O49 O 0.96448 0.97561 0.38763 0.0
O50 O 0.97962 0.03592 0.66966 0.0
O51 O 0.98364 0.97908 0.55656 0.0
O52 O 0.04049 0.93763 0.53679 0.0
O53 O 0.06273 0.99796 0.57614 0.0
O54 O 0.94347 0.01387 0.60617 0.0
O55 O 0.04602 0.03571 0.6546 0.0
C56 C 0.06364 0.02502 0.45976 0.0
C57 C 0.99067 0.95334 0.29486 0.0
C58 C 0.99459 0.95471 0.18667 0.0
C59 C 0.99789 0.97474 0.23966 0.0
C60 C 0.98354 0.91274 0.19021 0.0
C61 C 0.97985 0.91157 0.29749 0.0
C62 C 0.97621 0.89145 0.24523 0.0
C63 C 0.94641 0.051 0.47289 0.0
C64 C 0.99572 0.97529 0.34874 0.0
C65 C 0.98984 0.79287 0.47567 0.0
C66 C 0.94764 0.80113 0.48339 0.0
C67 C 0.94821 0.97871 0.58327 0.0
C68 C 0.01838 0.05715 0.74717 0.0
C69 C 0.01075 0.03635 0.80272 0.0
C70 C 0.0131 0.0571 0.85526 0.0
C71 C 0.02359 0.09921 0.85099 0.0
C72 C 0.02853 0.0991 0.74375 0.0
C73 C 0.03121 0.11995 0.7956 0.0
C74 C 0.06603 0.95796 0.56826 0.0
C75 C 0.01492 0.0342 0.69381 0.0
H76 H 1.00586 1.00717 0.23816 0.0
H77 H 0.98125 0.89612 0.1505 0.0
H78 H 0.97443 0.89461 0.33975 0.0
H79 H 0.96798 0.85914 0.24734 0.0
H80 H 1.00329 1.00379 0.80489 0.0
H81 H 0.02523 0.1163 0.89038 0.0
H82 H 0.03427 0.11561 0.70119 0.0
H83 H 0.03898 0.15239 0.7929 0.0
Eu84 Eu 0.30517 0.76053 0.69607 0.0
C85 C 0.13791 0.76731 0.85492 0.0
C86 C 0.11067 0.83492 0.83021 0.0
C87 C 0.06405 0.77921 0.86539 0.0
C88 C 0.14429 0.80772 0.83459 0.0
C89 C 0.0978 0.75278 0.87188 0.0
C90 C 0.07046 0.82019 0.84435 0.0
C91 C 0.12775 0.68849 0.90599 0.0
N92 N 0.17123 0.74287 0.86157 0.0
C93 C 0.16691 0.70436 0.8886 0.0
C94 C 0.09297 0.71259 0.89678 0.0
Eu95 Eu 0.23659 0.77128 0.8304 0.0
N96 N 0.18359 0.82111 0.82278 0.0
C97 C 0.19159 0.86207 0.8109 0.0
C98 C 0.11861 0.87641 0.81391 0.0
C99 C 0.1593 0.89015 0.80513 0.0
H100 H 0.19351 0.68543 0.896 0.0
H101 H 0.16585 0.92236 0.79388 0.0
H102 H 0.04424 0.84054 0.84093 0.0
H103 H 0.12444 0.65767 0.92636 0.0
H104 H 0.22284 0.87321 0.80406 0.0
H105 H 0.36656 0.60454 0.71799 0.0
H106 H 0.09367 0.89825 0.80976 0.0
H107 H 0.35368 0.84896 0.65405 0.0
H108 H 0.31254 0.65763 0.71526 0.0
H109 H 0.42486 0.8744 0.63034 0.0
H110 H 0.03302 0.76855 0.87805 0.0
H111 H 0.43993 0.62462 0.70195 0.0
H112 H 0.49245 0.68031 0.67613 0.0
H113 H 0.06268 0.70029 0.91041 0.0
H114 H 0.50824 0.75349 0.65158 0.0
N115 N 0.35488 0.70762 0.7016 0.0
C116 C 0.34444 0.66692 0.70915 0.0
C117 C 0.41636 0.64815 0.70166 0.0
C118 C 0.42673 0.68975 0.6906 0.0
C119 C 0.37498 0.63669 0.71054 0.0
C120 C 0.39488 0.7192 0.69108 0.0
H121 H 0.48346 0.82608 0.63572 0.0
N122 N 0.37226 0.78757 0.67546 0.0
C123 C 0.41939 0.8423 0.6437 0.0
C124 C 0.40383 0.7604 0.67743 0.0
C125 C 0.37922 0.82786 0.65718 0.0
C126 C 0.45238 0.81494 0.64688 0.0
C127 C 0.44479 0.77331 0.66292 0.0
O128 O 0.29985 0.78636 0.60599 0.0
O129 O 0.24575 0.78468 0.73312 0.0
O130 O 0.20265 0.73067 0.77251 0.0
O131 O 0.25689 0.70891 0.70862 0.0
O132 O 0.27788 0.82322 0.67144 0.0
O133 O 0.29796 0.72003 0.62394 0.0
O134 O 0.2521 0.74973 0.91922 0.0
O135 O 0.29537 0.74513 0.79265 0.0
O136 O 0.33804 0.79806 0.75987 0.0
O137 O 0.28029 0.82562 0.80845 0.0
O138 O 0.26078 0.70717 0.85219 0.0
O139 O 0.24455 0.81492 0.89854 0.0
C140 C 0.24394 0.81863 0.70369 0.0
C141 C 0.32192 0.74541 0.52783 0.0
C142 C 0.32567 0.75254 0.41989 0.0
C143 C 0.30365 0.75596 0.47472 0.0
C144 C 0.36642 0.73795 0.41919 0.0
C145 C 0.36259 0.73109 0.52646 0.0
C146 C 0.38467 0.72732 0.47221 0.0
C147 C 0.21821 0.70671 0.73137 0.0
C148 C 0.29776 0.75039 0.58372 0.0
C149 C 0.47663 0.74419 0.66309 0.0
C150 C 0.46764 0.70252 0.67708 0.0
C151 C 0.29462 0.71007 0.81959 0.0
C152 C 0.2282 0.7896 0.99712 0.0
C153 C 0.24861 0.77985 0.04874 0.0
C154 C 0.22791 0.78177 0.10477 0.0
C155 C 0.1863 0.7938 0.10828 0.0
C156 C 0.18664 0.8012 1.00131 0.0
C157 C 0.16587 0.80336 0.05679 0.0
C158 C 0.32027 0.82561 0.79363 0.0
C159 C 0.25076 0.78629 0.93959 0.0
H160 H 0.272 0.76653 0.47625 0.0
H161 H 0.38438 0.73531 0.37778 0.0
H162 H 0.37719 0.72287 0.56704 0.0
H163 H 0.4161 0.71632 0.47125 0.0
H164 H 0.2808 0.77106 0.04517 0.0
H165 H 0.16939 0.79518 0.15075 0.0
H166 H 0.17031 0.80848 0.96187 0.0
H167 H 0.13378 0.81228 0.05992 0.0
Eu168 Eu 0.52069 0.97332 0.08611 0.0
C169 C 0.49807 0.14661 0.97424 0.0
C170 C 0.42498 0.15669 0.99315 0.0
C171 C 0.47287 0.2122 1.00698 0.0
C172 C 0.45863 0.13109 0.97871 0.0
C173 C 0.50571 0.18779 0.98619 0.0
C174 C 0.43239 0.197 1.00918 0.0
C175 C 0.57657 0.17814 0.95102 0.0
N176 N 0.52887 0.12165 0.95577 0.0
C177 C 0.56729 0.1373 0.94032 0.0
C178 C 0.54593 0.20312 0.97593 0.0
Eu179 Eu 0.51368 0.05025 0.95821 0.0
N180 N 0.45315 0.09124 0.9667 0.0
C181 C 0.41433 0.07618 0.96197 0.0
C182 C 0.38512 0.1409 0.9911 0.0
C183 C 0.3798 0.10075 0.97401 0.0
H184 H 0.59137 0.11738 0.9236 0.0
H185 H 0.3491 0.08839 0.9714 0.0
H186 H 0.4071 0.21673 1.02272 0.0
H187 H 0.60749 0.19001 0.94132 0.0
H188 H 0.40951 0.04502 0.95017 0.0
H189 H 0.68148 0.92332 0.0846 0.0
H190 H 0.35837 0.15954 1.00179 0.0
H191 H 0.43549 0.91444 0.10593 0.0
H192 H 0.62401 0.97186 0.09849 0.0
H193 H 0.41504 0.84279 0.08935 0.0
H194 H 0.47829 0.24314 1.0199 0.0
H195 H 0.66775 0.85199 0.05835 0.0
H196 H 0.61584 0.79803 0.03674 0.0
H197 H 0.55333 0.23447 0.98524 0.0
H198 H 0.54316 0.77735 0.03338 0.0
N199 N 0.57784 0.92814 0.08247 0.0
C200 C 0.61736 0.94056 0.08882 0.0
C201 C 0.64227 0.87288 0.06598 0.0
C202 C 0.60154 0.85996 0.06196 0.0
C203 C 0.65013 0.91312 0.08076 0.0
C204 C 0.56958 0.88837 0.07246 0.0
H205 H 0.46797 0.79258 0.05781 0.0
N206 N 0.49921 0.90381 0.08634 0.0
C207 C 0.44719 0.85175 0.08474 0.0
C208 C 0.52894 0.87588 0.07389 0.0
C209 C 0.45883 0.89205 0.09482 0.0
C210 C 0.47719 0.82347 0.06696 0.0
C211 C 0.51878 0.8352 0.06233 0.0
O212 O 0.48705 0.96617 0.17257 0.0
O213 O 0.49419 0.03245 0.05202 0.0
O214 O 0.55011 0.07914 0.02682 0.0
O215 O 0.56978 0.02295 0.0884 0.0
O216 O 0.45412 0.99412 0.10239 0.0
O217 O 0.5516 0.98411 0.16653 0.0
O218 O 0.54505 0.05939 0.87034 0.0
O219 O 0.54294 0.99338 0.99436 0.0
O220 O 0.49625 0.94269 1.00857 0.0
O221 O 0.46566 0.9986 0.96081 0.0
O222 O 0.58071 0.03173 0.93994 0.0
O223 O 0.48386 0.03289 0.87944 0.0
C224 C 0.45815 0.03008 0.0756 0.0
C225 C 0.52457 0.95402 0.25838 0.0
C226 C 0.52181 0.95475 0.3664 0.0
C227 C 0.51587 0.97442 0.31064 0.0
C228 C 0.5367 0.9141 0.36874 0.0
C229 C 0.53924 0.91354 0.26155 0.0
C230 C 0.54524 0.89372 0.31666 0.0
C231 C 0.57203 0.06211 0.0689 0.0
C232 C 0.51876 0.97626 0.20137 0.0
C233 C 0.55038 0.80787 0.04625 0.0
C234 C 0.59174 0.81989 0.0473 0.0
C235 C 0.57896 0.99713 0.97071 0.0
C236 C 0.50538 0.06437 0.786 0.0
C237 C 0.51289 0.04287 0.73444 0.0
C238 C 0.50451 0.06093 0.6785 0.0
C239 C 0.48811 0.10101 0.67545 0.0
C240 C 0.48906 0.10417 0.78207 0.0
C241 C 0.48044 0.12233 0.72688 0.0
C242 C 0.4709 0.95846 0.97018 0.0
C243 C 0.51487 0.04424 0.84313 0.0
H244 H 0.5051 1.00597 0.30769 0.0
H245 H 0.54124 0.89786 0.41084 0.0
H246 H 0.54612 0.89747 0.22158 0.0
H247 H 0.55654 0.86241 0.31906 0.0
H248 H 0.52492 0.01182 0.73816 0.0
H249 H 0.48179 0.11619 0.63326 0.0
H250 H 0.48306 0.12106 0.8215 0.0
H251 H 0.46796 0.15317 0.72387 0.0
Eu252 Eu 0.28443 0.258 0.31683 0.0
C253 C 0.11801 0.24807 0.18245 0.0
C254 C 0.0947 0.17716 0.19329 0.0
C255 C 0.04649 0.23144 0.16827 0.0
C256 C 0.12636 0.20683 0.1938 0.0
C257 C 0.07789 0.26087 0.16979 0.0
C258 C 0.05474 0.18971 0.18061 0.0
C259 C 0.10317 0.33078 0.15787 0.0
N260 N 0.14939 0.27558 0.18192 0.0
C261 C 0.1426 0.31655 0.16933 0.0
C262 C 0.07066 0.30281 0.15785 0.0
Eu263 Eu 0.21616 0.24865 0.19572 0.0
N264 N 0.16568 0.19555 0.20328 0.0
C265 C 0.17548 0.15487 0.21147 0.0
C266 C 0.10437 0.13562 0.2039 0.0
C267 C 0.14498 0.12445 0.21297 0.0
H268 H 0.16741 0.33858 0.16853 0.0
H269 H 0.15293 0.09237 0.22061 0.0
H270 H 0.03014 0.16734 0.17943 0.0
H271 H 0.09797 0.36329 0.14844 0.0
H272 H 0.20667 0.1455 0.21799 0.0
H273 H 0.33605 0.41835 0.30536 0.0
H274 H 0.08089 0.11194 0.20423 0.0
H275 H 0.34061 0.17346 0.34563 0.0
H276 H 0.2857 0.36138 0.31857 0.0
H277 H 0.41391 0.15249 0.3412 0.0
H278 H 0.01575 0.24063 0.15728 0.0
H279 H 0.41019 0.40351 0.28677 0.0
H280 H 0.46663 0.3509 0.27841 0.0
H281 H 0.04024 0.31386 0.14811 0.0
H282 H 0.4878 0.27828 0.28722 0.0
N283 N 0.33069 0.31462 0.30663 0.0
C284 C 0.31796 0.35439 0.31103 0.0
C285 C 0.38823 0.37833 0.2929 0.0
C286 C 0.40133 0.33739 0.29226 0.0
C287 C 0.34643 0.38682 0.30352 0.0
C288 C 0.37144 0.30579 0.30034 0.0
H289 H 0.4685 0.20422 0.31293 0.0
N290 N 0.35388 0.23595 0.31866 0.0
C291 C 0.40575 0.18424 0.33098 0.0
C292 C 0.38341 0.26511 0.30623 0.0
C293 C 0.36439 0.1962 0.33377 0.0
C294 C 0.43646 0.21349 0.31476 0.0
C295 C 0.42554 0.25467 0.30331 0.0
O296 O 0.28718 0.22961 0.40598 0.0
O297 O 0.22585 0.23056 0.29027 0.0
O298 O 0.17918 0.27907 0.26844 0.0
O299 O 0.23261 0.30693 0.31777 0.0
O300 O 0.26047 0.19308 0.34332 0.0
O301 O 0.27102 0.29413 0.39378 0.0
O302 O 0.22463 0.27484 0.10499 0.0
O303 O 0.27475 0.27755 0.22288 0.0
O304 O 0.31797 0.22168 0.24516 0.0
O305 O 0.26109 0.19528 0.2033 0.0
O306 O 0.23685 0.31465 0.17366 0.0
O307 O 0.22984 0.20896 0.12263 0.0
C308 C 0.22599 0.19568 0.31812 0.0
C309 C 0.30173 0.27297 0.48203 0.0
C310 C 0.30313 0.27915 0.58853 0.0
C311 C 0.28168 0.27095 0.53853 0.0
C312 C 0.34523 0.28946 0.58095 0.0
C313 C 0.34361 0.28344 0.47499 0.0
C314 C 0.36523 0.29167 0.52443 0.0
C315 C 0.1929 0.30423 0.30684 0.0
C316 C 0.27805 0.26361 0.43157 0.0
C317 C 0.45532 0.28576 0.29098 0.0
C318 C 0.44326 0.3271 0.28577 0.0
C319 C 0.27132 0.31339 0.19856 0.0
C320 C 0.20885 0.23247 0.02861 0.0
C321 C 0.23056 0.23858 0.97349 0.0
C322 C 0.21102 0.23305 0.92085 0.0
C323 C 0.16924 0.22134 0.92436 0.0
C324 C 0.16729 0.22067 0.03135 0.0
C325 C 0.14762 0.21516 0.97934 0.0
C326 C 0.30081 0.19462 0.21267 0.0
C327 C 0.23024 0.23922 0.08234 0.0
H328 H 0.2494 0.26223 0.54359 0.0
H329 H 0.36254 0.2962 0.61857 0.0
H330 H 0.35949 0.28513 0.43156 0.0
H331 H 0.39759 0.29976 0.51896 0.0
H332 H 0.26257 0.24821 0.97165 0.0
H333 H 0.15344 0.21641 0.88467 0.0
H334 H 0.15013 0.21575 0.07343 0.0
H335 H 0.11553 0.20598 0.98163 0.0
Eu336 Eu 0.78872 0.25669 0.23187 0.0
C337 C 0.61827 0.27192 0.37945 0.0
C338 C 0.59754 0.34183 0.35406 0.0
C339 C 0.54555 0.28968 0.38319 0.0
C340 C 0.62859 0.31195 0.36095 0.0
C341 C 0.57669 0.26048 0.39207 0.0
C342 C 0.55594 0.33026 0.36394 0.0
C343 C 0.6 0.19338 0.42679 0.0
N344 N 0.6491 0.24471 0.38849 0.0
C345 C 0.64076 0.20632 0.41397 0.0
C346 C 0.56777 0.22041 0.41507 0.0
Eu347 Eu 0.71735 0.26797 0.36474 0.0
N348 N 0.66908 0.32219 0.353 0.0
C349 C 0.68063 0.36246 0.34248 0.0
C350 C 0.60926 0.3827 0.33944 0.0
C351 C 0.65101 0.39313 0.33446 0.0
H352 H 0.66564 0.18533 0.42296 0.0
H353 H 0.66043 0.42479 0.32444 0.0
H354 H 0.53165 0.35271 0.35849 0.0
H355 H 0.59349 0.1626 0.44569 0.0
H356 H 0.71273 0.37109 0.33845 0.0
H357 H 0.82552 0.09176 0.25009 0.0
H358 H 0.58638 0.40655 0.33358 0.0
H359 H 0.85479 0.33254 0.18467 0.0
H360 H 0.78128 0.1518 0.23389 0.0
H361 H 0.92945 0.34774 0.18666 0.0
H362 H 0.51343 0.28145 0.39253 0.0
H363 H 0.89929 0.10114 0.26684 0.0
H364 H 0.95907 0.1495 0.27366 0.0
H365 H 0.53622 0.2104 0.42528 0.0
H366 H 0.98685 0.22003 0.26088 0.0
N367 N 0.82926 0.19582 0.2406 0.0
C368 C 0.81338 0.15689 0.24018 0.0
C369 C 0.8801 0.12784 0.25871 0.0
C370 C 0.89661 0.16762 0.25616 0.0
C371 C 0.83849 0.12244 0.24927 0.0
C372 C 0.87024 0.20129 0.24538 0.0
H373 H 0.97673 0.29394 0.22398 0.0
N374 N 0.86027 0.27142 0.22134 0.0
C375 C 0.91764 0.31752 0.20131 0.0
C376 C 0.88615 0.24055 0.23637 0.0
C377 C 0.87556 0.30882 0.19992 0.0
C378 C 0.94421 0.28711 0.22253 0.0
C379 C 0.92874 0.24765 0.2388 0.0
O380 O 0.79315 0.28712 0.1434 0.0
O381 O 0.72943 0.28256 0.26768 0.0
O382 O 0.68362 0.22681 0.30707 0.0
O383 O 0.73718 0.20888 0.23926 0.0
O384 O 0.76544 0.32124 0.2107 0.0
O385 O 0.77555 0.22279 0.15486 0.0
O386 O 0.72487 0.24264 0.45468 0.0
O387 O 0.77607 0.24188 0.32794 0.0
O388 O 0.82032 0.29731 0.29275 0.0
O389 O 0.76524 0.31953 0.35422 0.0
O390 O 0.74132 0.20357 0.38703 0.0
O391 O 0.72586 0.30871 0.43627 0.0
C392 C 0.73019 0.31737 0.23996 0.0
C393 C 0.80559 0.24619 0.06154 0.0
C394 C 0.80467 0.24204 0.95454 0.0
C395 C 0.78428 0.24866 1.00961 0.0
C396 C 0.84701 0.23284 0.95238 0.0
C397 C 0.84768 0.23679 0.05887 0.0
C398 C 0.86825 0.23013 1.00431 0.0
C399 C 0.69923 0.20475 0.2639 0.0
C400 C 0.78297 0.25421 0.11749 0.0
C401 C 0.95446 0.2149 0.25553 0.0
C402 C 0.93856 0.17479 0.26331 0.0
C403 C 0.77544 0.20692 0.35499 0.0
C404 C 0.70529 0.28386 0.53364 0.0
C405 C 0.72707 0.28 0.58511 0.0
C406 C 0.70695 0.28438 0.64108 0.0
C407 C 0.6644 0.29262 0.64454 0.0
C408 C 0.66296 0.2921 0.53776 0.0
C409 C 0.64265 0.29646 0.59314 0.0
C410 C 0.80401 0.32161 0.33266 0.0
C411 C 0.72764 0.27861 0.47651 0.0
H412 H 0.75182 0.25649 1.01208 0.0
H413 H 0.86354 0.2273 0.91069 0.0
H414 H 0.86448 0.23475 0.09872 0.0
H415 H 0.90077 0.22287 1.00223 0.0
H416 H 0.75969 0.27296 0.58148 0.0
H417 H 0.64803 0.2966 0.68684 0.0
H418 H 0.64574 0.29511 0.49837 0.0
H419 H 0.60997 0.30292 0.59627 0.0
Eu420 Eu 0.79143 0.76274 0.83083 0.0
C421 C 0.61692 0.74764 0.738 0.0
C422 C 0.59876 0.67557 0.75335 0.0
C423 C 0.54605 0.7278 0.766 0.0
C424 C 0.62856 0.70689 0.7409 0.0
C425 C 0.57533 0.75861 0.74874 0.0
C426 C 0.55766 0.68628 0.76774 0.0
C427 C 0.59454 0.82919 0.72122 0.0
N428 N 0.64622 0.77654 0.72254 0.0
C429 C 0.63552 0.81679 0.71181 0.0
C430 C 0.56439 0.80008 0.7408 0.0
Eu431 Eu 0.71574 0.75406 0.71726 0.0
N432 N 0.66875 0.69781 0.72858 0.0
C433 C 0.68053 0.65794 0.72209 0.0
C434 C 0.61109 0.63454 0.74996 0.0
C435 C 0.65201 0.62575 0.73307 0.0
H436 H 0.65886 0.83959 0.69821 0.0
H437 H 0.66178 0.59416 0.72939 0.0
H438 H 0.53449 0.6627 0.77895 0.0
H439 H 0.58633 0.86125 0.7141 0.0
H440 H 0.71214 0.65053 0.71024 0.0
H441 H 0.84096 0.92407 0.81709 0.0
H442 H 0.58919 0.60955 0.75921 0.0
H443 H 0.84973 0.67919 0.85443 0.0
H444 H 0.79187 0.8665 0.83395 0.0
H445 H 0.92314 0.65931 0.84532 0.0
H446 H 0.51416 0.73568 0.7764 0.0
H447 H 0.91483 0.9104 0.79366 0.0
H448 H 0.97173 0.85863 0.781 0.0
H449 H 0.53272 0.80977 0.7484 0.0
H450 H 0.99402 0.78628 0.78751 0.0
N451 N 0.83703 0.82018 0.81946 0.0
C452 C 0.82393 0.85981 0.82436 0.0
C453 C 0.89339 0.88489 0.80145 0.0
C454 C 0.90701 0.84416 0.80008 0.0
C455 C 0.85175 0.8927 0.81477 0.0
C456 C 0.87775 0.81211 0.81039 0.0
H457 H 0.97643 0.71189 0.81448 0.0
N458 N 0.86146 0.7422 0.82884 0.0
C459 C 0.91435 0.69103 0.83644 0.0
C460 C 0.89037 0.77171 0.81499 0.0
C461 C 0.87284 0.70242 0.84185 0.0
C462 C 0.94431 0.72075 0.81877 0.0
C463 C 0.93256 0.76182 0.80873 0.0
O464 O 0.79448 0.73262 0.91909 0.0
O465 O 0.73273 0.73285 0.80783 0.0
O466 O 0.68429 0.78292 0.79665 0.0
O467 O 0.74121 0.81238 0.83505 0.0
O468 O 0.77306 0.69602 0.85353 0.0
O469 O 0.777 0.79671 0.90993 0.0
O470 O 0.71196 0.78457 0.62937 0.0
O471 O 0.77531 0.78322 0.7394 0.0
O472 O 0.82251 0.72907 0.7543 0.0
O473 O 0.76436 0.70368 0.71324 0.0
O474 O 0.73457 0.82082 0.69594 0.0
O475 O 0.72834 0.72009 0.63777 0.0
C476 C 0.7374 0.69707 0.83172 0.0
C477 C 0.80464 0.77347 1.00006 0.0
C478 C 0.80141 0.77686 0.1078 0.0
C479 C 0.78229 0.76987 0.05515 0.0
C480 C 0.84348 0.78759 0.10408 0.0
C481 C 0.84643 0.78426 0.99724 0.0
C482 C 0.8657 0.79129 0.04918 0.0
C483 C 0.70084 0.80956 0.83031 0.0
C484 C 0.78352 0.76537 0.94648 0.0
C485 C 0.9616 0.79333 0.79426 0.0
C486 C 0.94888 0.8345 0.79027 0.0
C487 C 0.77069 0.81923 0.71631 0.0
C488 C 0.70031 0.74419 0.5483 0.0
C489 C 0.72241 0.74746 0.493 0.0
C490 C 0.70289 0.74074 0.44057 0.0
C491 C 0.66064 0.73071 0.44475 0.0
C492 C 0.65834 0.73411 0.55157 0.0
C493 C 0.63865 0.72742 0.49986 0.0
C494 C 0.80467 0.70402 0.7192 0.0
C495 C 0.72199 0.7517 0.6016 0.0
H496 H 0.75006 0.76101 0.05696 0.0
H497 H 0.8591 0.7937 0.14349 0.0
H498 H 0.86403 0.78716 0.95506 0.0
H499 H 0.89799 0.79972 0.0469 0.0
H500 H 0.75477 0.7558 0.49089 0.0
H501 H 0.64469 0.72483 0.40554 0.0
H502 H 0.64094 0.73147 0.59392 0.0
H503 H 0.60622 0.71954 0.50247 0.0
Eu504 Eu 0.50731 0.46962 0.96145 0.0
C505 C 0.50206 0.63692 0.09175 0.0
C506 C 0.57177 0.66386 0.08679 0.0
C507 C 0.51395 0.70917 0.10726 0.0
C508 C 0.5441 0.63075 0.08356 0.0
C509 C 0.48651 0.67629 0.10342 0.0
C510 C 0.55648 0.70299 0.09881 0.0
C511 C 0.41801 0.64695 0.11261 0.0
N512 N 0.4765 0.60399 0.09161 0.0
C513 C 0.43497 0.60827 0.10279 0.0
C514 C 0.44391 0.68114 0.11309 0.0
Eu515 Eu 0.50782 0.53892 0.08191 0.0
N516 N 0.55806 0.59197 0.07616 0.0
C517 C 0.59941 0.58419 0.07264 0.0
C518 C 0.6141 0.65632 0.08036 0.0
C519 C 0.62796 0.61626 0.07328 0.0
H520 H 0.41481 0.58185 0.10367 0.0
H521 H 0.66065 0.60993 0.06921 0.0
H522 H 0.57738 0.72845 0.10298 0.0
H523 H 0.38507 0.65025 0.12074 0.0
H524 H 0.61076 0.55336 0.06849 0.0
H525 H 0.35296 0.40213 0.972 0.0
H526 H 0.6363 0.68101 0.08212 0.0
H527 H 0.59917 0.42516 0.93875 0.0
H528 H 0.40412 0.45737 0.97482 0.0
H529 H 0.62741 0.35685 0.91696 0.0
H530 H 0.50263 0.73928 0.11803 0.0
H531 H 0.37569 0.33092 0.95587 0.0
H532 H 0.43357 0.28278 0.93161 0.0
H533 H 0.43079 0.71095 0.12191 0.0
H534 H 0.50782 0.27121 0.91333 0.0
N535 N 0.45593 0.41763 0.96632 0.0
C536 C 0.41477 0.42637 0.96972 0.0
C537 C 0.39844 0.35494 0.95894 0.0
C538 C 0.44058 0.34656 0.95197 0.0
C539 C 0.3855 0.39508 0.96779 0.0
C540 C 0.469 0.37879 0.9571 0.0
H541 H 0.58035 0.29761 0.91162 0.0
N542 N 0.53713 0.40405 0.95034 0.0
C543 C 0.59458 0.36062 0.92578 0.0
C544 C 0.51087 0.37186 0.94839 0.0
C545 C 0.5785 0.39919 0.93844 0.0
C546 C 0.56794 0.32725 0.92297 0.0
C547 C 0.52549 0.33275 0.93348 0.0
O548 O 0.53575 0.47473 0.87155 0.0
O549 O 0.52945 0.53075 0.9881 0.0
O550 O 0.47499 0.57207 1.00748 0.0
O551 O 0.45225 0.51367 0.96478 0.0
O552 O 0.57127 0.49717 0.93934 0.0
O553 O 0.46963 0.48148 0.886 0.0
O554 O 0.48008 0.53447 0.1722 0.0
O555 O 0.48579 0.47756 0.05535 0.0
O556 O 0.54262 0.43739 0.03472 0.0
O557 O 0.56365 0.49632 0.07801 0.0
O558 O 0.44387 0.51113 0.10387 0.0
O559 O 0.54615 0.52772 0.15673 0.0
C560 C 0.5655 0.53182 0.96334 0.0
C561 C 0.49464 0.45753 0.79428 0.0
C562 C 0.49177 0.45838 0.68709 0.0
C563 C 0.49743 0.47895 0.73887 0.0
C564 C 0.48338 0.41585 0.69165 0.0
C565 C 0.48612 0.41521 0.79809 0.0
C566 C 0.48056 0.39448 0.74693 0.0
C567 C 0.45055 0.55379 0.97233 0.0
C568 C 0.50077 0.48022 0.84711 0.0
C569 C 0.49728 0.30093 0.92705 0.0
C570 C 0.45497 0.30763 0.93704 0.0
C571 C 0.44965 0.47652 0.0798 0.0
C572 C 0.52197 0.55263 0.24815 0.0
C573 C 0.52064 0.53162 0.30384 0.0
C574 C 0.52688 0.55277 0.35493 0.0
C575 C 0.53448 0.59543 0.34937 0.0
C576 C 0.52961 0.59511 0.24333 0.0
C577 C 0.53584 0.61639 0.29379 0.0
C578 C 0.56686 0.45648 0.06944 0.0
C579 C 0.51532 0.52932 0.19608 0.0
H580 H 0.5045 0.51162 0.7361 0.0
H581 H 0.47848 0.39925 0.65261 0.0
H582 H 0.4837 0.39822 0.84028 0.0
H583 H 0.47392 0.3618 0.75016 0.0
H584 H 0.51415 0.49884 0.30738 0.0
H585 H 0.53979 0.61249 0.38785 0.0
H586 H 0.53079 0.6118 0.20088 0.0
H587 H 0.54182 0.6492 0.28981 0.0
Eu588 Eu 0.01836 0.47886 0.60354 0.0
C589 C 0.94858 0.61548 0.47333 0.0
C590 C 0.89136 0.60098 0.41416 0.0
C591 C 0.89042 0.66251 0.47008 0.0
C592 C 0.92938 0.58974 0.43713 0.0
C593 C 0.92975 0.65275 0.489 0.0
C594 C 0.87129 0.63672 0.43253 0.0
C595 C 0.99166 0.66992 0.53579 0.0
N596 N 0.98672 0.60528 0.49039 0.0
C597 C 0.00894 0.63254 0.51948 0.0
C598 C 0.95153 0.67963 0.5217 0.0
Eu599 Eu 0.01269 0.54013 0.46353 0.0
N600 N 0.94978 0.55576 0.41974 0.0
C601 C 0.93717 0.53544 0.37287 0.0
C602 C 0.87584 0.5772 0.37096 0.0
C603 C 0.89942 0.54489 0.34909 0.0
H604 H 0.03981 0.62569 0.53113 0.0
H605 H 0.8888 0.52762 0.31353 0.0
H606 H 0.84176 0.64552 0.41612 0.0
H607 H 0.00915 0.69096 0.5599 0.0
H608 H 0.95614 0.51142 0.35471 0.0
H609 H 0.17898 0.4308 0.57941 0.0
H610 H 0.84681 0.58484 0.35206 0.0
H611 H 0.93723 0.42215 0.65655 0.0
H612 H 0.12143 0.47982 0.58834 0.0
H613 H 0.91741 0.3487 0.6736 0.0
H614 H 0.87524 0.69068 0.48244 0.0
H615 H 0.1649 0.35594 0.58205 0.0
H616 H 0.11328 0.29814 0.59739 0.0
H617 H 0.93802 0.70827 0.53523 0.0
H618 H 0.0419 0.27578 0.62397 0.0
N619 N 0.07507 0.43342 0.5948 0.0
C620 C 0.11481 0.4473 0.58974 0.0
C621 C 0.13949 0.37736 0.58592 0.0
C622 C 0.0988 0.36325 0.59459 0.0
C623 C 0.14757 0.41956 0.5847 0.0
C624 C 0.0669 0.39247 0.59945 0.0
H625 H 0.96854 0.29431 0.6522 0.0
N626 N 0.99788 0.40913 0.62265 0.0
C627 C 0.94824 0.357 0.65635 0.0
C628 C 0.02688 0.37989 0.61376 0.0
C629 C 0.9595 0.39846 0.64665 0.0
C630 C 0.97715 0.32641 0.64406 0.0
C631 C 0.01735 0.33768 0.6239 0.0
O632 O 0.98895 0.48262 0.69286 0.0
O633 O 0.99733 0.5386 0.56126 0.0
O634 O 0.07058 0.56129 0.50449 0.0
O635 O 0.06453 0.53035 0.59999 0.0
O636 O 0.95434 0.50469 0.6156 0.0
O637 O 0.05463 0.48968 0.67924 0.0
O638 O 0.04433 0.58825 0.40602 0.0
O639 O 0.04736 0.48969 0.51141 0.0
O640 O 0.97307 0.44732 0.54785 0.0
O641 O 0.9567 0.498 0.47519 0.0
O642 O 0.02441 0.47704 0.4306 0.0
O643 O 0.03793 0.52762 0.37475 0.0
C644 C 0.96084 0.53879 0.58464 0.0
C645 C 0.02893 0.46762 0.77557 0.0
C646 C 0.03549 0.47173 0.88245 0.0
C647 C 0.02779 0.49056 0.82648 0.0
C648 C 0.04383 0.42917 0.88604 0.0
C649 C 0.03708 0.42536 0.7805 0.0
C650 C 0.04436 0.40629 0.83558 0.0
C651 C 0.08194 0.55643 0.5594 0.0
C652 C 0.02324 0.48888 0.71758 0.0
C653 C 0.04858 0.30831 0.61623 0.0
C654 C 0.08925 0.32107 0.60134 0.0
C655 C 0.04639 0.46303 0.47264 0.0
C656 C 0.03384 0.58273 0.30303 0.0
C657 C 0.03646 0.55882 0.25281 0.0
C658 C 0.02289 0.5745 0.19801 0.0
C659 C 1.00672 0.61458 0.19422 0.0
C660 C 0.0173 0.62258 0.2978 0.0
C661 C 1.00391 0.63828 0.24374 0.0
C662 C 0.95057 0.4619 0.5046 0.0
C663 C 0.04802 0.56559 0.36042 0.0
H664 H 0.02087 0.52313 0.82215 0.0
H665 H 0.0508 0.41352 0.92761 0.0
H666 H 0.03823 0.40729 0.74175 0.0
H667 H 0.05098 0.37367 0.83912 0.0
H668 H 0.04932 0.52811 0.25632 0.0
H669 H 0.99549 0.62738 0.15313 0.0
H670 H 0.01451 0.64164 0.33546 0.0
H671 H 0.99108 0.66895 0.24026 0.0
H672 H 0.05711 0.10686 0.41677 0.0
H673 H 0.14427 0.01344 0.46713 0.0
H674 H 0.20126 0.0571 0.42695 0.0
H675 H 0.22705 0.11971 0.37221 0.0
H676 H 0.14233 0.21515 0.32189 0.0
H677 H 0.08433 0.17316 0.36567 0.0
C678 C 0.08865 0.09667 0.42027 0.0
C679 C 0.09634 0.05709 0.44659 0.0
C680 C 0.12187 0.12193 0.39534 0.0
C681 C 0.13743 0.04393 0.44859 0.0
C682 C 0.17013 0.06877 0.42496 0.0
C683 C 0.19588 0.13139 0.37052 0.0
C684 C 0.18933 0.17021 0.34182 0.0
C685 C 0.1628 0.10742 0.39717 0.0
C686 C 0.14858 0.18498 0.34167 0.0
C687 C 0.11527 0.161 0.36744 0.0
H688 H 0.07205 0.87776 0.61176 0.0
H689 H 0.14158 0.99055 0.57862 0.0
H690 H 0.20188 0.95783 0.61882 0.0
H691 H 0.23574 0.8971 0.66243 0.0
H692 H 0.16663 0.7848 0.70077 0.0
H693 H 0.10551 0.81722 0.66078 0.0
C694 C 0.10048 0.895 0.61329 0.0
C695 C 0.1023 0.93654 0.59197 0.0
C696 C 0.13512 0.87615 0.63799 0.0
C697 C 0.13921 0.95865 0.59488 0.0
C698 C 0.17382 0.93995 0.61786 0.0
C699 C 0.20716 0.87989 0.66239 0.0
C700 C 0.2056 0.83883 0.68508 0.0
C701 C 0.17218 0.89879 0.63955 0.0
C702 C 0.16848 0.81669 0.68449 0.0
C703 C 0.13358 0.83515 0.66116 0.0
H704 H 0.39663 0.81562 0.83239 0.0
H705 H 0.30004 0.90502 0.81149 0.0
H706 H 0.33929 0.95523 0.86181 0.0
H707 H 0.39928 0.9722 0.91667 0.0
H708 H 0.49272 0.8803 0.94543 0.0
H709 H 0.45647 0.83247 0.88776 0.0
C710 C 0.38457 0.84632 0.83821 0.0
C711 C 0.34582 0.85691 0.81814 0.0
C712 C 0.40647 0.87433 0.86929 0.0
C713 C 0.32995 0.8964 0.8267 0.0
C714 C 0.35228 0.925 0.85555 0.0
C715 C 0.41175 0.94179 0.91005 0.0
C716 C 0.44853 0.92982 0.93535 0.0
C717 C 0.39026 0.91407 0.87791 0.0
C718 C 0.46423 0.89017 0.92683 0.0
C719 C 0.44363 0.86282 0.89362 0.0
H720 H 0.37604 0.03535 0.09972 0.0
H721 H 0.48894 0.10345 0.10738 0.0
H722 H 0.45112 0.15987 0.1527 0.0
H723 H 0.38504 0.19027 0.19008 0.0
H724 H 0.27235 0.12183 0.17812 0.0
H725 H 0.31062 0.06585 0.13476 0.0
C726 C 0.39221 0.06274 0.1109 0.0
C727 C 0.43499 0.06564 0.09881 0.0
C728 C 0.3702 0.09518 0.13652 0.0
C729 C 0.45581 0.10091 0.11469 0.0
C730 C 0.4342 0.13309 0.14109 0.0
C731 C 0.36895 0.163 0.17829 0.0
C732 C 0.32572 0.16048 0.18778 0.0
C733 C 0.39126 0.13067 0.15217 0.0
C734 C 0.30545 0.12497 0.17145 0.0
C735 C 0.32736 0.0927 0.14655 0.0
H736 H 0.86805 0.9802 0.62011 0.0
H737 H 0.96929 0.89602 0.60007 0.0
H738 H 0.92463 0.83878 0.64092 0.0
H739 H 0.85489 0.81239 0.68195 0.0
H740 H 0.75651 0.89998 0.70537 0.0
H741 H 0.80159 0.95556 0.66447 0.0
C742 C 0.88039 0.94926 0.62425 0.0
C743 C 0.9217 0.94239 0.60488 0.0
C744 C 0.85481 0.91687 0.64914 0.0
C745 C 0.93728 0.90215 0.61239 0.0
C746 C 0.91174 0.86942 0.6364 0.0
C747 C 0.84367 0.84376 0.67901 0.0
C748 C 0.80222 0.85192 0.69792 0.0
C749 C 0.8702 0.87629 0.65493 0.0
C750 C 0.78813 0.89272 0.69204 0.0
C751 C 0.81392 0.92465 0.66834 0.0
H752 H 0.94188 0.13403 0.44674 0.0
H753 H 0.87238 0.02118 0.44396 0.0
H754 H 0.81379 0.05939 0.40765 0.0
H755 H 0.78122 0.12508 0.37849 0.0
H756 H 0.85124 0.23765 0.37523 0.0
H757 H 0.91029 0.1997 0.41261 0.0
C758 C 0.91391 0.11782 0.43817 0.0
C759 C 0.91159 0.0747 0.4485 0.0
C760 C 0.88028 0.14003 0.41636 0.0
C761 C 0.87523 0.05421 0.43641 0.0
C762 C 0.84153 0.0761 0.41581 0.0
C763 C 0.80961 0.14112 0.38551 0.0
C764 C 0.81229 0.18383 0.37286 0.0
C765 C 0.8436 0.11899 0.40589 0.0
C766 C 0.84886 0.20457 0.38318 0.0
C767 C 0.88252 0.18291 0.4049 0.0
H768 H 0.69894 0.18926 0.14914 0.0
H769 H 0.63915 0.15501 0.3197 0.0
H770 H 0.59524 0.1061 0.27424 0.0
H771 H 0.57394 0.07344 0.18515 0.0
H772 H 0.63224 0.1105 1.01473 0.0
H773 H 0.6772 0.15798 0.06081 0.0
C774 C 0.67654 0.17083 0.17645 0.0
C775 C 0.67233 0.17541 0.23766 0.0
C776 C 0.65132 0.14338 0.14992 0.0
C777 C 0.64261 0.15214 0.27243 0.0
C778 C 0.61775 0.12405 0.24649 0.0
C779 C 0.59681 0.09178 0.1585 0.0
C780 C 0.60013 0.08887 0.09695 0.0
C781 C 0.62189 0.11943 0.18526 0.0
C782 C 0.62914 0.11289 0.06219 0.0
C783 C 0.65484 0.13979 0.08851 0.0
H784 H 0.7213 0.88151 0.87823 0.0
H785 H 0.61751 0.80299 0.85334 0.0
H786 H 0.57086 0.85242 0.89906 0.0
H787 H 0.55899 0.9202 0.94027 0.0
H788 H 0.66214 0.99972 0.96208 0.0
H789 H 0.70963 0.94777 0.92363 0.0
C790 C 0.68854 0.87501 0.88314 0.0
C791 C 0.67302 0.83872 0.86149 0.0
C792 C 0.66173 0.90384 0.90901 0.0
C793 C 0.63036 0.83094 0.86852 0.0
C794 C 0.60359 0.85917 0.89486 0.0
C795 C 0.59189 0.92564 0.93806 0.0
C796 C 0.60721 0.96318 0.95565 0.0
C797 C 0.61884 0.89601 0.91453 0.0
C798 C 0.64982 0.97064 0.94993 0.0
C799 C 0.6769 0.94105 0.92769 0.0
H800 H 0.64443 0.53246 0.92027 0.0
H801 H 0.54317 0.61467 0.95444 0.0
H802 H 0.58599 0.67347 0.91465 0.0
H803 H 0.6541 0.7018 0.87037 0.0
H804 H 0.75254 0.6165 0.83331 0.0
H805 H 0.70911 0.55914 0.87263 0.0
C806 C 0.63165 0.56327 0.91935 0.0
C807 C 0.5909 0.56902 0.94222 0.0
C808 C 0.65607 0.59662 0.89489 0.0
C809 C 0.57477 0.60924 0.93914 0.0
C810 C 0.59925 0.64291 0.91576 0.0
C811 C 0.66561 0.67055 0.86986 0.0
C812 C 0.70653 0.66349 0.84755 0.0
C813 C 0.64016 0.63708 0.89339 0.0
C814 C 0.72118 0.62284 0.84913 0.0
C815 C 0.69638 0.58993 0.87203 0.0
H816 H 0.72726 0.39407 0.18955 0.0
H817 H 0.6516 0.28669 0.23359 0.0
H818 H 0.59457 0.31917 0.18275 0.0
H819 H 0.56678 0.37817 0.12223 0.0
H820 H 0.64349 0.4854 0.08111 0.0
H821 H 0.69942 0.45287 0.13294 0.0
C822 C 0.69812 0.37795 0.18846 0.0
C823 C 0.6936 0.33826 0.21592 0.0
C824 C 0.66573 0.39663 0.1586 0.0
C825 C 0.65576 0.31757 0.21373 0.0
C826 C 0.62323 0.33601 0.18409 0.0
C827 C 0.59592 0.3941 0.12427 0.0
C828 C 0.60104 0.4341 0.09745 0.0
C829 C 0.62799 0.37541 0.15559 0.0
C830 C 0.6387 0.45469 0.10136 0.0
C831 C 0.67074 0.43612 0.13113 0.0
H832 H 0.93981 0.44699 0.3919 0.0
H833 H 0.89256 0.4146 0.5698 0.0
H834 H 0.84129 0.36902 0.53202 0.0
H835 H 0.81062 0.33822 0.44728 0.0
H836 H 0.85781 0.37335 0.26992 0.0
H837 H 0.90781 0.41929 0.30814 0.0
C838 C 0.91749 0.43098 0.42224 0.0
C839 C 0.91922 0.43475 0.48325 0.0
C840 C 0.88824 0.4054 0.40014 0.0
C841 C 0.89172 0.41202 0.52255 0.0
C842 C 0.86231 0.38624 0.50092 0.0
C843 C 0.83159 0.35638 0.4172 0.0
C844 C 0.83119 0.35207 0.35591 0.0
C845 C 0.86031 0.38272 0.4397 0.0
C846 C 0.85853 0.37535 0.3172 0.0
C847 C 0.88684 0.40183 0.33904 0.0
H848 H 0.88877 0.6916 0.71593 0.0
H849 H 0.77732 0.64732 0.64629 0.0
H850 H 0.81613 0.59512 0.59501 0.0
H851 H 0.88101 0.55844 0.57409 0.0
H852 H 0.99214 0.59943 0.64652 0.0
H853 H 0.95443 0.65565 0.69299 0.0
C854 C 0.87288 0.67035 0.69008 0.0
C855 C 0.82982 0.67324 0.68649 0.0
C856 C 0.89545 0.63956 0.6609 0.0
C857 C 0.8102 0.64589 0.65103 0.0
C858 C 0.83242 0.61581 0.62137 0.0
C859 C 0.89695 0.58024 0.59917 0.0
C860 C 0.93942 0.57588 0.60518 0.0
C861 C 0.87491 0.61194 0.62656 0.0
C862 C 0.95966 0.60324 0.63957 0.0
C863 C 0.93802 0.63511 0.66658 0.0
H864 H 0.35612 0.3075 0.16636 0.0
H865 H 0.25705 0.39403 0.19205 0.0
H866 H 0.30245 0.45072 0.15642 0.0
H867 H 0.36934 0.47673 0.11605 0.0
H868 H 0.47069 0.39331 0.0903 0.0
H869 H 0.42595 0.33502 0.12704 0.0
C870 C 0.34482 0.33885 0.16506 0.0
C871 C 0.30311 0.34641 0.18336 0.0
C872 C 0.37145 0.37202 0.14344 0.0
C873 C 0.28889 0.38723 0.17934 0.0
C874 C 0.31487 0.4198 0.15863 0.0
C875 C 0.38175 0.44577 0.11818 0.0
C876 C 0.42322 0.43957 0.09898 0.0
C877 C 0.35602 0.41267 0.14013 0.0
C878 C 0.43871 0.39912 0.10323 0.0
C879 C 0.41307 0.36573 0.12472 0.0
H880 H 0.4546 0.63395 0.92764 0.0
H881 H 0.37464 0.52758 0.94871 0.0
H882 H 0.32088 0.56578 0.89929 0.0
H883 H 0.29512 0.63001 0.85383 0.0
H884 H 0.37458 0.73624 0.82793 0.0
H885 H 0.43025 0.69751 0.87382 0.0
C886 C 0.42533 0.6193 0.92142 0.0
C887 C 0.41844 0.57808 0.94247 0.0
C888 C 0.39465 0.64129 0.89145 0.0
C889 C 0.38071 0.55922 0.93313 0.0
C890 C 0.34992 0.58104 0.90479 0.0
C891 C 0.32488 0.64445 0.85751 0.0
C892 C 0.33084 0.68576 0.8373 0.0
C893 C 0.35642 0.62209 0.88412 0.0
C894 C 0.36942 0.70429 0.84245 0.0
C895 C 0.40109 0.68223 0.86925 0.0
H896 H 0.22563 0.67282 0.62404 0.0
H897 H 0.14682 0.67541 0.78398 0.0
H898 H 0.09864 0.62889 0.74439 0.0
H899 H 0.07821 0.58848 0.66467 0.0
H900 H 0.15272 0.58803 0.50086 0.0
H901 H 0.20338 0.63339 0.54126 0.0
C902 C 0.19815 0.66281 0.65043 0.0
C903 C 0.19023 0.67701 0.70756 0.0
C904 C 0.16978 0.63686 0.62646 0.0
C905 C 0.15399 0.6646 0.74051 0.0
C906 C 0.12627 0.6381 0.71773 0.0
C907 C 0.10574 0.59804 0.63787 0.0
C908 C 0.11233 0.58463 0.5804 0.0
C909 C 0.13385 0.62419 0.66088 0.0
C910 C 0.14732 0.59806 0.54539 0.0
C911 C 0.17619 0.62375 0.56856 0.0
H912 H 0.20455 0.37352 0.36827 0.0
H913 H 0.1106 0.28912 0.32256 0.0
H914 H 0.0583 0.32745 0.37737 0.0
H915 H 0.0378 0.38746 0.43315 0.0
H916 H 0.1293 0.47667 0.46908 0.0
H917 H 0.18372 0.43394 0.42496 0.0
C918 C 0.17267 0.36344 0.37057 0.0
C919 C 0.16174 0.32847 0.34093 0.0
C920 C 0.14218 0.38633 0.40132 0.0
C921 C 0.12012 0.31605 0.34429 0.0
C922 C 0.09002 0.33788 0.37596 0.0
C923 C 0.06985 0.39685 0.4327 0.0
C924 C 0.07983 0.43399 0.45721 0.0
C925 C 0.10056 0.37328 0.40413 0.0
C926 C 0.12115 0.44705 0.45349 0.0
C927 C 0.15217 0.42296 0.42724 0.0
H928 H 0.05366 0.0637 0.95644 0.0
H929 H 0.95229 1.00037 0.88652 0.0
H930 H 0.93801 0.96304 0.98192 0.0
H931 H 0.95357 0.94887 0.08574 0.0
H932 H 0.05521 0.01187 0.15559 0.0
H933 H 0.06922 0.04953 0.06041 0.0
C934 C 0.02819 0.04204 0.96218 0.0
C935 C 1.00422 0.03488 0.91407 0.0
C936 C 0.01994 0.02073 1.0174 0.0
C937 C 0.9717 1.00616 0.92232 0.0
C938 C 0.96331 0.98492 0.97706 0.0
C939 C 0.97906 0.97052 0.08008 0.0
C940 C 1.00317 0.97745 0.12812 0.0
C941 C 0.98726 0.99189 0.02491 0.0
C942 C 0.03566 1.00623 0.1199 0.0
C943 C 0.04392 0.02765 0.06525 0.0
H944 H 0.33026 0.71278 0.3169 0.0
H945 H 0.27657 0.81901 0.39714 0.0
H946 H 0.24131 0.83697 0.30746 0.0
H947 H 0.22544 0.82258 0.20628 0.0
H948 H 0.27959 0.71694 0.12529 0.0
H949 H 0.31566 0.69929 0.2146 0.0
C950 C 0.31125 0.74013 0.31453 0.0
C951 C 0.3059 0.7643 0.36395 0.0
C952 C 0.29118 0.75049 0.26259 0.0
C953 C 0.28071 0.7994 0.36023 0.0
C954 C 0.26067 0.80986 0.30881 0.0
C955 C 0.24487 0.79551 0.20837 0.0
C956 C 0.2497 0.77109 0.15925 0.0
C957 C 0.26546 0.78549 0.25988 0.0
C958 C 0.27561 0.7365 0.16229 0.0
C959 C 0.2961 0.72626 0.21345 0.0
H960 H 0.45859 0.05904 0.58139 0.0
H961 H 0.57053 0.01148 0.65186 0.0
H962 H 0.58502 0.97378 0.56308 0.0
H963 H 0.56687 0.95528 0.46421 0.0
H964 H 0.4556 1.00372 0.39299 0.0
H965 H 0.44056 0.04075 0.48243 0.0
C966 C 0.48638 0.04078 0.5772 0.0
C967 C 0.51329 0.03816 0.62369 0.0
C968 C 0.49485 0.01943 0.52555 0.0
C969 C 0.54883 0.01368 0.61748 0.0
C970 C 0.55734 0.99226 0.56642 0.0
C971 C 0.53913 0.97362 0.46845 0.0
C972 C 0.51249 0.97668 0.4217 0.0
C973 C 0.5306 0.9949 0.52014 0.0
C974 C 0.47697 1.00116 0.4278 0.0
C975 C 0.46821 0.02222 0.47914 0.0
H976 H 0.18533 0.27286 0.82098 0.0
H977 H 0.28912 0.20765 0.89004 0.0
H978 H 0.32747 0.21785 0.79434 0.0
H979 H 0.33067 0.24324 0.68999 0.0
H980 H 0.22669 0.30809 0.62088 0.0
H981 H 0.18908 0.29956 0.71729 0.0
C982 C 0.21622 0.26062 0.81494 0.0
C983 C 0.23426 0.23946 0.86257 0.0
C984 C 0.23803 0.26641 0.75972 0.0
C985 C 0.27463 0.22441 0.8543 0.0
C986 C 0.29653 0.23006 0.7995 0.0
C987 C 0.3 0.25597 0.69626 0.0
C988 C 0.28149 0.27612 0.64824 0.0
C989 C 0.27849 0.25089 0.75184 0.0
C990 C 0.24146 0.29197 0.65692 0.0
C991 C 0.21997 0.28723 0.71208 0.0
H992 H 0.82899 0.28046 0.84827 0.0
H993 H 0.72835 0.21107 0.93814 0.0
H994 H 0.68905 0.2186 0.84984 0.0
H995 H 0.68332 0.24461 0.74683 0.0
H996 H 0.78367 0.3147 0.65731 0.0
H997 H 0.82323 0.30651 0.74521 0.0
C998 C 0.79865 0.26661 0.84829 0.0
C999 C 0.78167 0.24528 0.89978 0.0
C1000 C 0.77615 0.27111 0.79735 0.0
C1001 C 0.742 0.22803 0.89933 0.0
C1002 C 0.71954 0.2322 0.84878 0.0
C1003 C 0.71367 0.25845 0.74673 0.0
C1004 C 0.73045 0.28017 0.6954 0.0
C1005 C 0.73622 0.25383 0.79761 0.0
C1006 C 0.77015 0.29736 0.69587 0.0
C1007 C 0.79276 0.29286 0.74625 0.0
H1008 H 0.67829 0.7753 0.33577 0.0
H1009 H 0.78112 0.7135 0.41325 0.0
H1010 H 0.82057 0.71964 0.31812 0.0
H1011 H 0.82584 0.74192 0.21239 0.0
H1012 H 0.72294 0.80346 0.13479 0.0
H1013 H 0.68341 0.79717 0.22991 0.0
C1014 C 0.70918 0.7628 0.33179 0.0
C1015 C 0.72662 0.74407 0.38194 0.0
C1016 C 0.73172 0.76622 0.27669 0.0
C1017 C 0.76701 0.72863 0.37584 0.0
C1018 C 0.78957 0.73191 0.32126 0.0
C1019 C 0.7949 0.75429 0.21635 0.0
C1020 C 0.77749 0.77311 0.16624 0.0
C1021 C 0.7723 0.75074 0.27139 0.0
C1022 C 0.73703 0.78835 0.17223 0.0
C1023 C 0.71443 0.78498 0.22679 0.0
H1024 H 0.53081 0.4347 0.58525 0.0
H1025 H 0.45947 0.53378 0.65792 0.0
H1026 H 0.46502 0.57216 0.56209 0.0
H1027 H 0.48894 0.57695 0.4572 0.0
H1028 H 0.5603 0.47791 0.38448 0.0
H1029 H 0.55519 0.43973 0.48049 0.0
C1030 C 0.51616 0.46452 0.57994 0.0
C1031 C 0.49475 0.48133 0.62859 0.0
C1032 C 0.51933 0.48634 0.52469 0.0
C1033 C 0.47651 0.52033 0.6213 0.0
C1034 C 0.47949 0.54222 0.56647 0.0
C1035 C 0.50377 0.54723 0.46256 0.0
C1036 C 0.52491 0.53029 0.41379 0.0
C1037 C 0.50083 0.52552 0.51789 0.0
C1038 C 0.54342 0.49142 0.42118 0.0
C1039 C 0.54067 0.46965 0.47611 0.0
H1040 H 0.01094 0.44771 0.99759 0.0
H1041 H 0.06137 0.55175 0.88995 0.0
H1042 H 0.06162 0.5922 0.97698 0.0
H1043 H 0.04823 0.59831 0.08413 0.0
H1044 H 1.00097 0.49359 0.1926 0.0
H1045 H 1.0003 0.45288 0.10523 0.0
C1046 C 0.02255 0.47902 0.99295 0.0
C1047 C 0.03579 0.49642 0.93646 0.0
C1048 C 0.02358 0.50204 0.04369 0.0
C1049 C 0.05001 0.53748 0.93208 0.0
C1050 C 0.05059 0.56067 0.98214 0.0
C1051 C 0.03769 0.56659 0.08866 0.0
C1052 C 0.02459 0.54912 0.14501 0.0
C1053 C 0.0374 0.54332 0.03815 0.0
C1054 C 0.01161 0.50776 0.15002 0.0
C1055 C 0.01095 0.48453 0.09993 0.0
loop_
_geom_bond_atom_site_label_1
_geom_bond_atom_site_label_2
_geom_bond_distance
_geom_bond_site_symmetry_2
_ccdc_geom_bond_type
Eu0 N31 2.646 1_455 S
Eu0 N38 2.609 1_455 S
Eu0 O44 2.564 . S
Eu0 O45 2.616 1_565 S
Eu0 O47 2.331 1_465 S
Eu0 O48 2.571 1_565 S
Eu0 O49 2.416 1_455 S
Eu0 O51 2.376 1_455 S
Eu0 O52 2.441 . S
Eu0 C64 2.849 . S
C1 C4 1.429 . S
C1 C5 1.411 . S
C1 N8 1.377 . S
C2 C4 1.420 . S
C2 C6 1.423 . S
C2 C14 1.392 . S
C3 C5 1.420 . S
C3 C6 1.351 . S
C3 H26 0.931 . S
C4 C1 1.429 . S
C4 C2 1.420 . S
C4 N12 1.362 . S
C5 C1 1.411 . S
C5 C3 1.420 . S
C5 C10 1.395 . S
C6 C2 1.423 . S
C6 C3 1.351 . S
C6 H18 0.930 . S
C7 C9 1.400 . S
C7 C10 1.386 1_655 S
C7 H19 0.930 . S
N8 C1 1.377 . S
N8 C9 1.321 1_455 S
N8 Eu11 2.609 1_455 S
C9 C7 1.400 . S
C9 N8 1.321 1_655 S
C9 H16 0.930 . S
C10 C5 1.395 . S
C10 C7 1.386 1_455 S
C10 H29 0.930 . S
Eu11 N8 2.609 1_655 S
Eu11 N12 2.652 1_655 S
Eu11 O45 2.378 1_655 S
Eu11 O46 2.436 . S
Eu11 O50 2.561 . S
Eu11 O51 2.614 1_545 S
Eu11 O53 2.335 1_645 S
Eu11 O54 2.567 1_545 S
Eu11 O55 2.418 1_655 S
Eu11 C75 2.848 . S
N12 C4 1.362 . S
N12 Eu11 2.652 1_455 S
N12 C13 1.334 . S
C13 N12 1.334 . S
C13 C15 1.413 . S
C13 H20 0.929 . S
C14 C2 1.392 . S
C14 C15 1.367 . S
C14 H22 0.930 . S
C15 C13 1.413 . S
C15 C14 1.367 . S
C15 H17 0.930 . S
H16 C9 0.930 . S
H17 C15 0.930 . S
H18 C6 0.930 . S
H19 C7 0.930 . S
H20 C13 0.929 . S
H21 C35 0.930 . S
H22 C14 0.930 . S
H23 C41 0.930 . S
H24 C32 0.929 . S
H25 C39 0.930 . S
H26 C3 0.931 . S
H27 C33 0.930 . S
H28 C66 0.930 . S
H29 C10 0.930 . S
H30 C65 0.931 . S
N31 Eu0 2.646 1_655 S
N31 C32 1.334 . S
N31 C36 1.362 . S
C32 H24 0.929 . S
C32 N31 1.334 . S
C32 C35 1.413 . S
C33 H27 0.930 . S
C33 C34 1.392 . S
C33 C35 1.367 . S
C34 C33 1.392 . S
C34 C36 1.420 . S
C34 C66 1.423 . S
C35 H21 0.930 . S
C35 C32 1.413 . S
C35 C33 1.367 . S
C36 N31 1.362 . S
C36 C34 1.420 . S
C36 C40 1.429 . S
H37 C42 0.930 . S
N38 Eu0 2.609 1_655 S
N38 C40 1.377 . S
N38 C41 1.321 1_655 S
C39 H25 0.930 . S
C39 C41 1.400 . S
C39 C42 1.386 1_455 S
C40 C36 1.429 . S
C40 N38 1.377 . S
C40 C43 1.411 . S
C41 H23 0.930 . S
C41 N38 1.321 1_455 S
C41 C39 1.400 . S
C42 H37 0.930 . S
C42 C39 1.386 1_655 S
C42 C43 1.395 . S
C43 C40 1.411 . S
C43 C42 1.395 . S
C43 C65 1.420 . S
O44 Eu0 2.564 . S
O44 C64 1.257 . S
O45 Eu0 2.616 1_545 S
O45 Eu11 2.378 1_455 S
O45 C56 1.276 . S
O46 Eu11 2.436 . S
O46 C63 1.264 . S
O47 Eu0 2.331 1_645 S
O47 C63 1.254 . S
O48 Eu0 2.571 1_545 S
O48 C56 1.235 . S
O49 Eu0 2.416 1_655 S
O49 C64 1.249 1_655 S
O50 Eu11 2.561 . S
O50 C75 1.257 . S
O51 Eu0 2.376 1_655 S
O51 Eu11 2.614 1_565 S
O51 C67 1.276 . S
O52 Eu0 2.441 . S
O52 C74 1.264 . S
O53 Eu11 2.335 1_465 S
O53 C74 1.254 . S
O54 Eu11 2.567 1_565 S
O54 C67 1.235 . S
O55 Eu11 2.418 1_455 S
O55 C75 1.249 1_455 S
C56 O45 1.276 . S
C56 O48 1.235 . S
C57 C59 1.393 . S
C57 C61 1.395 . S
C57 C64 1.492 . S
C58 C59 1.392 . S
C58 C60 1.386 . S
C59 C57 1.393 . S
C59 C58 1.392 . S
C59 H76 0.930 1_465 S
C60 C58 1.386 . S
C60 C62 1.395 . S
C60 H77 0.930 . S
C61 C57 1.395 . S
C61 C62 1.379 . S
C61 H78 0.930 . S
C62 C60 1.395 . S
C62 C61 1.379 . S
C62 H79 0.930 . S
C63 O46 1.264 . S
C63 O47 1.254 . S
C64 Eu0 2.849 . S
C64 O44 1.257 . S
C64 O49 1.249 1_455 S
C64 C57 1.492 . S
C65 H30 0.931 . S
C65 C43 1.420 . S
C65 C66 1.351 . S
C66 H28 0.930 . S
C66 C34 1.423 . S
C66 C65 1.351 . S
C67 O51 1.276 . S
C67 O54 1.235 . S
C68 C69 1.393 . S
C68 C72 1.395 . S
C68 C75 1.492 . S
C69 C68 1.393 . S
C69 C70 1.392 . S
C69 H80 0.930 1_645 S
C70 C69 1.392 . S
C70 C71 1.386 . S
C71 C70 1.386 . S
C71 C73 1.395 . S
C71 H81 0.930 . S
C72 C68 1.395 . S
C72 C73 1.379 . S
C72 H82 0.930 . S
C73 C71 1.395 . S
C73 C72 1.379 . S
C73 H83 0.930 . S
C74 O52 1.264 . S
C74 O53 1.254 . S
C75 Eu11 2.848 . S
C75 O50 1.257 . S
C75 O55 1.249 1_655 S
C75 C68 1.492 . S
H76 C59 0.930 1_645 S
H77 C60 0.930 . S
H78 C61 0.930 . S
H79 C62 0.930 . S
H80 C69 0.930 1_465 S
H81 C71 0.930 . S
H82 C72 0.930 . S
H83 C73 0.930 . S
Eu84 N115 2.657 . S
Eu84 N122 2.609 . S
Eu84 O128 2.558 . S
Eu84 O129 2.612 . S
Eu84 O131 2.339 . S
Eu84 O132 2.563 . S
Eu84 O133 2.419 . S
Eu84 O135 2.380 . S
Eu84 O136 2.432 . S
Eu84 C148 2.848 . S
C85 C88 1.429 . S
C85 C89 1.411 . S
C85 N92 1.377 . S
C86 C88 1.420 . S
C86 C90 1.423 . S
C86 C98 1.392 . S
C87 C89 1.420 . S
C87 C90 1.351 . S
C87 H110 0.931 . S
C88 C85 1.429 . S
C88 C86 1.420 . S
C88 N96 1.362 . S
C89 C85 1.411 . S
C89 C87 1.420 . S
C89 C94 1.395 . S
C90 C86 1.423 . S
C90 C87 1.351 . S
C90 H102 0.930 . S
C91 C93 1.400 . S
C91 C94 1.386 . S
C91 H103 0.930 . S
N92 C85 1.377 . S
N92 C93 1.321 . S
N92 Eu95 2.609 . S
C93 C91 1.400 . S
C93 N92 1.321 . S
C93 H100 0.930 . S
C94 C89 1.395 . S
C94 C91 1.386 . S
C94 H113 0.930 . S
Eu95 N92 2.609 . S
Eu95 N96 2.657 . S
Eu95 O129 2.380 . S
Eu95 O130 2.432 . S
Eu95 O134 2.558 . S
Eu95 O135 2.612 . S
Eu95 O137 2.339 . S
Eu95 O138 2.563 . S
Eu95 O139 2.419 . S
Eu95 C159 2.848 . S
N96 C88 1.362 . S
N96 Eu95 2.657 . S
N96 C97 1.334 . S
C97 N96 1.334 . S
C97 C99 1.413 . S
C97 H104 0.929 . S
C98 C86 1.392 . S
C98 C99 1.367 . S
C98 H106 0.930 . S
C99 C97 1.413 . S
C99 C98 1.367 . S
C99 H101 0.930 . S
H100 C93 0.930 . S
H101 C99 0.930 . S
H102 C90 0.930 . S
H103 C91 0.930 . S
H104 C97 0.929 . S
H105 C119 0.930 . S
H106 C98 0.930 . S
H107 C125 0.930 . S
H108 C116 0.929 . S
H109 C123 0.930 . S
H110 C87 0.931 . S
H111 C117 0.930 . S
H112 C150 0.930 . S
H113 C94 0.930 . S
H114 C149 0.931 . S
N115 Eu84 2.657 . S
N115 C116 1.334 . S
N115 C120 1.362 . S
C116 H108 0.929 . S
C116 N115 1.334 . S
C116 C119 1.413 . S
C117 H111 0.930 . S
C117 C118 1.392 . S
C117 C119 1.367 . S
C118 C117 1.392 . S
C118 C120 1.420 . S
C118 C150 1.423 . S
C119 H105 0.930 . S
C119 C116 1.413 . S
C119 C117 1.367 . S
C120 N115 1.362 . S
C120 C118 1.420 . S
C120 C124 1.429 . S
H121 C126 0.930 . S
N122 Eu84 2.609 . S
N122 C124 1.377 . S
N122 C125 1.321 . S
C123 H109 0.930 . S
C123 C125 1.400 . S
C123 C126 1.386 . S
C124 C120 1.429 . S
C124 N122 1.377 . S
C124 C127 1.411 . S
C125 H107 0.930 . S
C125 N122 1.321 . S
C125 C123 1.400 . S
C126 H121 0.930 . S
C126 C123 1.386 . S
C126 C127 1.395 . S
C127 C124 1.411 . S
C127 C126 1.395 . S
C127 C149 1.420 . S
O128 Eu84 2.558 . S
O128 C148 1.257 . S
O129 Eu84 2.612 . S
O129 Eu95 2.380 . S
O129 C140 1.276 . S
O130 Eu95 2.432 . S
O130 C147 1.264 . S
O131 Eu84 2.339 . S
O131 C147 1.254 . S
O132 Eu84 2.563 . S
O132 C140 1.235 . S
O133 Eu84 2.419 . S
O133 C148 1.249 . S
O134 Eu95 2.558 . S
O134 C159 1.257 . S
O135 Eu84 2.380 . S
O135 Eu95 2.612 . S
O135 C151 1.276 . S
O136 Eu84 2.432 . S
O136 C158 1.264 . S
O137 Eu95 2.339 . S
O137 C158 1.254 . S
O138 Eu95 2.563 . S
O138 C151 1.235 . S
O139 Eu95 2.419 . S
O139 C159 1.249 . S
C140 O129 1.276 . S
C140 O132 1.235 . S
C141 C143 1.393 . S
C141 C145 1.395 . S
C141 C148 1.492 . S
C142 C143 1.392 . S
C142 C144 1.386 . S
C143 C141 1.393 . S
C143 C142 1.392 . S
C143 H160 0.930 . S
C144 C142 1.386 . S
C144 C146 1.395 . S
C144 H161 0.930 . S
C145 C141 1.395 . S
C145 C146 1.379 . S
C145 H162 0.930 . S
C146 C144 1.395 . S
C146 C145 1.379 . S
C146 H163 0.930 . S
C147 O130 1.264 . S
C147 O131 1.254 . S
C148 Eu84 2.848 . S
C148 O128 1.257 . S
C148 O133 1.249 . S
C148 C141 1.492 . S
C149 H114 0.931 . S
C149 C127 1.420 . S
C149 C150 1.351 . S
C150 H112 0.930 . S
C150 C118 1.423 . S
C150 C149 1.351 . S
C151 O135 1.276 . S
C151 O138 1.235 . S
C152 C153 1.390 1_556 S
C152 C156 1.393 1_556 S
C152 C159 1.496 . S
C153 C152 1.390 1_554 S
C153 C154 1.392 . S
C153 H164 0.930 . S
C154 C153 1.392 . S
C154 C155 1.386 . S
C155 C154 1.386 . S
C155 C157 1.395 . S
C155 H165 0.930 . S
C156 C152 1.393 1_554 S
C156 C157 1.379 . S
C156 H166 0.935 . S
C157 C155 1.395 . S
C157 C156 1.379 . S
C157 H167 0.930 . S
C158 O136 1.264 . S
C158 O137 1.254 . S
C159 Eu95 2.848 . S
C159 O134 1.257 . S
C159 O139 1.249 . S
C159 C152 1.496 . S
H160 C143 0.930 . S
H161 C144 0.930 . S
H162 C145 0.930 . S
H163 C146 0.930 . S
H164 C153 0.930 . S
H165 C155 0.930 . S
H166 C156 0.935 . S
H167 C157 0.930 . S
Eu168 N199 2.657 . S
Eu168 N206 2.609 . S
Eu168 O212 2.558 . S
Eu168 O213 2.612 1_565 S
Eu168 O215 2.339 1_565 S
Eu168 O216 2.563 1_565 S
Eu168 O217 2.419 . S
Eu168 O219 2.380 1_554 S
Eu168 O220 2.432 . S
Eu168 C232 2.848 . S
C169 C172 1.429 . S
C169 C173 1.411 . S
C169 N176 1.377 . S
C170 C172 1.420 . S
C170 C174 1.423 . S
C170 C182 1.392 . S
C171 C173 1.420 . S
C171 C174 1.351 . S
C171 H194 0.931 . S
C172 C169 1.429 . S
C172 C170 1.420 . S
C172 N180 1.362 . S
C173 C169 1.411 . S
C173 C171 1.420 . S
C173 C178 1.395 . S
C174 C170 1.423 . S
C174 C171 1.351 . S
C174 H186 0.930 . S
C175 C177 1.400 . S
C175 C178 1.386 . S
C175 H187 0.930 . S
N176 C169 1.377 . S
N176 C177 1.321 . S
N176 Eu179 2.609 . S
C177 C175 1.400 . S
C177 N176 1.321 . S
C177 H184 0.930 . S
C178 C173 1.395 . S
C178 C175 1.386 . S
C178 H197 0.930 . S
Eu179 N176 2.609 . S
Eu179 N180 2.657 . S
Eu179 O213 2.380 1_556 S
Eu179 O214 2.432 . S
Eu179 O218 2.558 . S
Eu179 O219 2.612 1_545 S
Eu179 O221 2.339 1_545 S
Eu179 O222 2.563 1_545 S
Eu179 O223 2.419 . S
Eu179 C243 2.848 . S
N180 C172 1.362 . S
N180 Eu179 2.657 . S
N180 C181 1.334 . S
C181 N180 1.334 . S
C181 C183 1.413 . S
C181 H188 0.929 . S
C182 C170 1.392 . S
C182 C183 1.367 . S
C182 H190 0.930 . S
C183 C181 1.413 . S
C183 C182 1.367 . S
C183 H185 0.930 . S
H184 C177 0.930 . S
H185 C183 0.930 . S
H186 C174 0.930 . S
H187 C175 0.930 . S
H188 C181 0.929 . S
H189 C203 0.930 . S
H190 C182 0.930 . S
H191 C209 0.930 . S
H192 C200 0.929 . S
H193 C207 0.930 . S
H194 C171 0.931 . S
H195 C201 0.930 . S
H196 C234 0.930 . S
H197 C178 0.930 . S
H198 C233 0.931 . S
N199 Eu168 2.657 . S
N199 C200 1.334 . S
N199 C204 1.362 . S
C200 H192 0.929 . S
C200 N199 1.334 . S
C200 C203 1.413 . S
C201 H195 0.930 . S
C201 C202 1.392 . S
C201 C203 1.367 . S
C202 C201 1.392 . S
C202 C204 1.420 . S
C202 C234 1.423 . S
C203 H189 0.930 . S
C203 C200 1.413 . S
C203 C201 1.367 . S
C204 N199 1.362 . S
C204 C202 1.420 . S
C204 C208 1.429 . S
H205 C210 0.930 . S
N206 Eu168 2.609 . S
N206 C208 1.377 . S
N206 C209 1.321 . S
C207 H193 0.930 . S
C207 C209 1.400 . S
C207 C210 1.386 . S
C208 C204 1.429 . S
C208 N206 1.377 . S
C208 C211 1.411 . S
C209 H191 0.930 . S
C209 N206 1.321 . S
C209 C207 1.400 . S
C210 H205 0.930 . S
C210 C207 1.386 . S
C210 C211 1.395 . S
C211 C208 1.411 . S
C211 C210 1.395 . S
C211 C233 1.420 . S
O212 Eu168 2.558 . S
O212 C232 1.257 . S
O213 Eu168 2.612 1_545 S
O213 Eu179 2.380 1_554 S
O213 C224 1.276 . S
O214 Eu179 2.432 . S
O214 C231 1.264 1_556 S
O215 Eu168 2.339 1_545 S
O215 C231 1.254 . S
O216 Eu168 2.563 1_545 S
O216 C224 1.235 . S
O217 Eu168 2.419 . S
O217 C232 1.249 . S
O218 Eu179 2.558 . S
O218 C243 1.257 . S
O219 Eu168 2.380 1_556 S
O219 Eu179 2.612 1_565 S
O219 C235 1.276 . S
O220 Eu168 2.432 . S
O220 C242 1.264 1_554 S
O221 Eu179 2.339 1_565 S
O221 C242 1.254 . S
O222 Eu179 2.563 1_565 S
O222 C235 1.235 . S
O223 Eu179 2.419 . S
O223 C243 1.249 . S
C224 O213 1.276 . S
C224 O216 1.235 . S
C225 C227 1.393 . S
C225 C229 1.395 . S
C225 C232 1.492 . S
C226 C227 1.392 . S
C226 C228 1.386 . S
C227 C225 1.393 . S
C227 C226 1.392 . S
C227 H244 0.930 1_565 S
C228 C226 1.386 . S
C228 C230 1.395 . S
C228 H245 0.930 . S
C229 C225 1.395 . S
C229 C230 1.379 . S
C229 H246 0.930 . S
C230 C228 1.395 . S
C230 C229 1.379 . S
C230 H247 0.930 . S
C231 O214 1.264 1_554 S
C231 O215 1.254 . S
C232 Eu168 2.848 . S
C232 O212 1.257 . S
C232 O217 1.249 . S
C232 C225 1.492 . S
C233 H198 0.931 . S
C233 C211 1.420 . S
C233 C234 1.351 . S
C234 H196 0.930 . S
C234 C202 1.423 . S
C234 C233 1.351 . S
C235 O219 1.276 . S
C235 O222 1.235 . S
C236 C237 1.393 . S
C236 C240 1.395 . S
C236 C243 1.492 . S
C237 C236 1.393 . S
C237 C238 1.392 . S
C237 H248 0.930 1_545 S
C238 C237 1.392 . S
C238 C239 1.386 . S
C239 C238 1.386 . S
C239 C241 1.395 . S
C239 H249 0.930 . S
C240 C236 1.395 . S
C240 C241 1.379 . S
C240 H250 0.930 . S
C241 C239 1.395 . S
C241 C240 1.379 . S
C241 H251 0.930 . S
C242 O220 1.264 1_556 S
C242 O221 1.254 . S
C243 Eu179 2.848 . S
C243 O218 1.257 . S
C243 O223 1.249 . S
C243 C236 1.492 . S
H244 C227 0.930 1_545 S
H245 C228 0.930 . S
H246 C229 0.930 . S
H247 C230 0.930 . S
H248 C237 0.930 1_565 S
H249 C239 0.930 . S
H250 C240 0.930 . S
H251 C241 0.930 . S
Eu252 N283 2.657 . S
Eu252 N290 2.609 . S
Eu252 O296 2.558 . S
Eu252 O297 2.612 . S
Eu252 O299 2.339 . S
Eu252 O300 2.563 . S
Eu252 O301 2.419 . S
Eu252 O303 2.380 . S
Eu252 O304 2.432 . S
Eu252 C316 2.848 . S
C253 C256 1.429 . S
C253 C257 1.411 . S
C253 N260 1.377 . S
C254 C256 1.420 . S
C254 C258 1.423 . S
C254 C266 1.392 . S
C255 C257 1.420 . S
C255 C258 1.351 . S
C255 H278 0.931 . S
C256 C253 1.429 . S
C256 C254 1.420 . S
C256 N264 1.362 . S
C257 C253 1.411 . S
C257 C255 1.420 . S
C257 C262 1.395 . S
C258 C254 1.423 . S
C258 C255 1.351 . S
C258 H270 0.930 . S
C259 C261 1.400 . S
C259 C262 1.386 . S
C259 H271 0.930 . S
N260 C253 1.377 . S
N260 C261 1.321 . S
N260 Eu263 2.609 . S
C261 C259 1.400 . S
C261 N260 1.321 . S
C261 H268 0.930 . S
C262 C257 1.395 . S
C262 C259 1.386 . S
C262 H281 0.930 . S
Eu263 N260 2.609 . S
Eu263 N264 2.657 . S
Eu263 O297 2.380 . S
Eu263 O298 2.432 . S
Eu263 O302 2.558 . S
Eu263 O303 2.612 . S
Eu263 O305 2.339 . S
Eu263 O306 2.563 . S
Eu263 O307 2.419 . S
Eu263 C327 2.848 . S
N264 C256 1.362 . S
N264 Eu263 2.657 . S
N264 C265 1.334 . S
C265 N264 1.334 . S
C265 C267 1.413 . S
C265 H272 0.929 . S
C266 C254 1.392 . S
C266 C267 1.367 . S
C266 H274 0.930 . S
C267 C265 1.413 . S
C267 C266 1.367 . S
C267 H269 0.930 . S
H268 C261 0.930 . S
H269 C267 0.930 . S
H270 C258 0.930 . S
H271 C259 0.930 . S
H272 C265 0.929 . S
H273 C287 0.930 . S
H274 C266 0.930 . S
H275 C293 0.930 . S
H276 C284 0.929 . S
H277 C291 0.930 . S
H278 C255 0.931 . S
H279 C285 0.930 . S
H280 C318 0.930 . S
H281 C262 0.930 . S
H282 C317 0.931 . S
N283 Eu252 2.657 . S
N283 C284 1.334 . S
N283 C288 1.362 . S
C284 H276 0.929 . S
C284 N283 1.334 . S
C284 C287 1.413 . S
C285 H279 0.930 . S
C285 C286 1.392 . S
C285 C287 1.367 . S
C286 C285 1.392 . S
C286 C288 1.420 . S
C286 C318 1.423 . S
C287 H273 0.930 . S
C287 C284 1.413 . S
C287 C285 1.367 . S
C288 N283 1.362 . S
C288 C286 1.420 . S
C288 C292 1.429 . S
H289 C294 0.930 . S
N290 Eu252 2.609 . S
N290 C292 1.377 . S
N290 C293 1.321 . S
C291 H277 0.930 . S
C291 C293 1.400 . S
C291 C294 1.386 . S
C292 C288 1.429 . S
C292 N290 1.377 . S
C292 C295 1.411 . S
C293 H275 0.930 . S
C293 N290 1.321 . S
C293 C291 1.400 . S
C294 H289 0.930 . S
C294 C291 1.386 . S
C294 C295 1.395 . S
C295 C292 1.411 . S
C295 C294 1.395 . S
C295 C317 1.420 . S
O296 Eu252 2.558 . S
O296 C316 1.257 . S
O297 Eu252 2.612 . S
O297 Eu263 2.380 . S
O297 C308 1.276 . S
O298 Eu263 2.432 . S
O298 C315 1.264 . S
O299 Eu252 2.339 . S
O299 C315 1.254 . S
O300 Eu252 2.563 . S
O300 C308 1.235 . S
O301 Eu252 2.419 . S
O301 C316 1.249 . S
O302 Eu263 2.558 . S
O302 C327 1.257 . S
O303 Eu252 2.380 . S
O303 Eu263 2.612 . S
O303 C319 1.276 . S
O304 Eu252 2.432 . S
O304 C326 1.264 . S
O305 Eu263 2.339 . S
O305 C326 1.254 . S
O306 Eu263 2.563 . S
O306 C319 1.235 . S
O307 Eu263 2.419 . S
O307 C327 1.249 . S
C308 O297 1.276 . S
C308 O300 1.235 . S
C309 C311 1.393 . S
C309 C313 1.395 . S
C309 C316 1.492 . S
C310 C311 1.392 . S
C310 C312 1.386 . S
C311 C309 1.393 . S
C311 C310 1.392 . S
C311 H328 0.930 . S
C312 C310 1.386 . S
C312 C314 1.395 . S
C312 H329 0.930 . S
C313 C309 1.395 . S
C313 C314 1.379 . S
C313 H330 0.930 . S
C314 C312 1.395 . S
C314 C313 1.379 . S
C314 H331 0.930 . S
C315 O298 1.264 . S
C315 O299 1.254 . S
C316 Eu252 2.848 . S
C316 O296 1.257 . S
C316 O301 1.249 . S
C316 C309 1.492 . S
C317 H282 0.931 . S
C317 C295 1.420 . S
C317 C318 1.351 . S
C318 H280 0.930 . S
C318 C286 1.423 . S
C318 C317 1.351 . S
C319 O303 1.276 . S
C319 O306 1.235 . S
C320 C321 1.402 . S
C320 C324 1.402 . S
C320 C327 1.476 1_556 S
C321 C320 1.402 . S
C321 C322 1.392 . S
C321 H332 0.930 . S
C322 C321 1.392 . S
C322 C323 1.386 . S
C323 C322 1.386 . S
C323 C325 1.395 . S
C323 H333 0.930 . S
C324 C320 1.402 . S
C324 C325 1.379 . S
C324 H334 0.930 . S
C325 C323 1.395 . S
C325 C324 1.379 . S
C325 H335 0.930 . S
C326 O304 1.264 . S
C326 O305 1.254 . S
C327 Eu263 2.848 . S
C327 O302 1.257 . S
C327 O307 1.249 . S
C327 C320 1.476 1_554 S
H328 C311 0.930 . S
H329 C312 0.930 . S
H330 C313 0.930 . S
H331 C314 0.930 . S
H332 C321 0.930 . S
H333 C323 0.930 . S
H334 C324 0.930 . S
H335 C325 0.930 . S
Eu336 N367 2.657 . S
Eu336 N374 2.609 . S
Eu336 O380 2.558 . S
Eu336 O381 2.612 . S
Eu336 O383 2.339 . S
Eu336 O384 2.563 . S
Eu336 O385 2.419 . S
Eu336 O387 2.380 . S
Eu336 O388 2.432 . S
Eu336 C400 2.848 . S
C337 C340 1.429 . S
C337 C341 1.411 . S
C337 N344 1.377 . S
C338 C340 1.420 . S
C338 C342 1.423 . S
C338 C350 1.392 . S
C339 C341 1.420 . S
C339 C342 1.351 . S
C339 H362 0.931 . S
C340 C337 1.429 . S
C340 C338 1.420 . S
C340 N348 1.362 . S
C341 C337 1.411 . S
C341 C339 1.420 . S
C341 C346 1.395 . S
C342 C338 1.423 . S
C342 C339 1.351 . S
C342 H354 0.930 . S
C343 C345 1.400 . S
C343 C346 1.386 . S
C343 H355 0.930 . S
N344 C337 1.377 . S
N344 C345 1.321 . S
N344 Eu347 2.609 . S
C345 C343 1.400 . S
C345 N344 1.321 . S
C345 H352 0.930 . S
C346 C341 1.395 . S
C346 C343 1.386 . S
C346 H365 0.930 . S
Eu347 N344 2.609 . S
Eu347 N348 2.657 . S
Eu347 O381 2.380 . S
Eu347 O382 2.432 . S
Eu347 O386 2.558 . S
Eu347 O387 2.612 . S
Eu347 O389 2.339 . S
Eu347 O390 2.563 . S
Eu347 O391 2.419 . S
Eu347 C411 2.848 . S
N348 C340 1.362 . S
N348 Eu347 2.657 . S
N348 C349 1.334 . S
C349 N348 1.334 . S
C349 C351 1.413 . S
C349 H356 0.929 . S
C350 C338 1.392 . S
C350 C351 1.367 . S
C350 H358 0.930 . S
C351 C349 1.413 . S
C351 C350 1.367 . S
C351 H353 0.930 . S
H352 C345 0.930 . S
H353 C351 0.930 . S
H354 C342 0.930 . S
H355 C343 0.930 . S
H356 C349 0.929 . S
H357 C371 0.930 . S
H358 C350 0.930 . S
H359 C377 0.930 . S
H360 C368 0.929 . S
H361 C375 0.930 . S
H362 C339 0.931 . S
H363 C369 0.930 . S
H364 C402 0.930 . S
H365 C346 0.930 . S
H366 C401 0.931 . S
N367 Eu336 2.657 . S
N367 C368 1.334 . S
N367 C372 1.362 . S
C368 H360 0.929 . S
C368 N367 1.334 . S
C368 C371 1.413 . S
C369 H363 0.930 . S
C369 C370 1.392 . S
C369 C371 1.367 . S
C370 C369 1.392 . S
C370 C372 1.420 . S
C370 C402 1.423 . S
C371 H357 0.930 . S
C371 C368 1.413 . S
C371 C369 1.367 . S
C372 N367 1.362 . S
C372 C370 1.420 . S
C372 C376 1.429 . S
H373 C378 0.930 . S
N374 Eu336 2.609 . S
N374 C376 1.377 . S
N374 C377 1.321 . S
C375 H361 0.930 . S
C375 C377 1.400 . S
C375 C378 1.386 . S
C376 C372 1.429 . S
C376 N374 1.377 . S
C376 C379 1.411 . S
C377 H359 0.930 . S
C377 N374 1.321 . S
C377 C375 1.400 . S
C378 H373 0.930 . S
C378 C375 1.386 . S
C378 C379 1.395 . S
C379 C376 1.411 . S
C379 C378 1.395 . S
C379 C401 1.420 . S
O380 Eu336 2.558 . S
O380 C400 1.257 . S
O381 Eu336 2.612 . S
O381 Eu347 2.380 . S
O381 C392 1.276 . S
O382 Eu347 2.432 . S
O382 C399 1.264 . S
O383 Eu336 2.339 . S
O383 C399 1.254 . S
O384 Eu336 2.563 . S
O384 C392 1.235 . S
O385 Eu336 2.419 . S
O385 C400 1.249 . S
O386 Eu347 2.558 . S
O386 C411 1.257 . S
O387 Eu336 2.380 . S
O387 Eu347 2.612 . S
O387 C403 1.276 . S
O388 Eu336 2.432 . S
O388 C410 1.264 . S
O389 Eu347 2.339 . S
O389 C410 1.254 . S
O390 Eu347 2.563 . S
O390 C403 1.235 . S
O391 Eu347 2.419 . S
O391 C411 1.249 . S
C392 O381 1.276 . S
C392 O384 1.235 . S
C393 C395 1.390 1_554 S
C393 C397 1.393 1_554 S
C393 C400 1.496 . S
C394 C395 1.392 . S
C394 C396 1.386 . S
C395 C393 1.390 1_556 S
C395 C394 1.392 . S
C395 H412 0.930 . S
C396 C394 1.386 . S
C396 C398 1.395 . S
C396 H413 0.930 . S
C397 C393 1.393 1_556 S
C397 C398 1.379 . S
C397 H414 0.935 . S
C398 C396 1.395 . S
C398 C397 1.379 . S
C398 H415 0.930 . S
C399 O382 1.264 . S
C399 O383 1.254 . S
C400 Eu336 2.848 . S
C400 O380 1.257 . S
C400 O385 1.249 . S
C400 C393 1.496 . S
C401 H366 0.931 . S
C401 C379 1.420 . S
C401 C402 1.351 . S
C402 H364 0.930 . S
C402 C370 1.423 . S
C402 C401 1.351 . S
C403 O387 1.276 . S
C403 O390 1.235 . S
C404 C405 1.393 . S
C404 C408 1.395 . S
C404 C411 1.492 . S
C405 C404 1.393 . S
C405 C406 1.392 . S
C405 H416 0.930 . S
C406 C405 1.392 . S
C406 C407 1.386 . S
C407 C406 1.386 . S
C407 C409 1.395 . S
C407 H417 0.930 . S
C408 C404 1.395 . S
C408 C409 1.379 . S
C408 H418 0.930 . S
C409 C407 1.395 . S
C409 C408 1.379 . S
C409 H419 0.930 . S
C410 O388 1.264 . S
C410 O389 1.254 . S
C411 Eu347 2.848 . S
C411 O386 1.257 . S
C411 O391 1.249 . S
C411 C404 1.492 . S
H412 C395 0.930 . S
H413 C396 0.930 . S
H414 C397 0.935 . S
H415 C398 0.930 . S
H416 C405 0.930 . S
H417 C407 0.930 . S
H418 C408 0.930 . S
H419 C409 0.930 . S
Eu420 N451 2.657 . S
Eu420 N458 2.609 . S
Eu420 O464 2.558 . S
Eu420 O465 2.612 . S
Eu420 O467 2.339 . S
Eu420 O468 2.563 . S
Eu420 O469 2.419 . S
Eu420 O471 2.380 . S
Eu420 O472 2.432 . S
Eu420 C484 2.848 . S
C421 C424 1.429 . S
C421 C425 1.411 . S
C421 N428 1.377 . S
C422 C424 1.420 . S
C422 C426 1.423 . S
C422 C434 1.392 . S
C423 C425 1.420 . S
C423 C426 1.351 . S
C423 H446 0.931 . S
C424 C421 1.429 . S
C424 C422 1.420 . S
C424 N432 1.362 . S
C425 C421 1.411 . S
C425 C423 1.420 . S
C425 C430 1.395 . S
C426 C422 1.423 . S
C426 C423 1.351 . S
C426 H438 0.930 . S
C427 C429 1.400 . S
C427 C430 1.386 . S
C427 H439 0.930 . S
N428 C421 1.377 . S
N428 C429 1.321 . S
N428 Eu431 2.609 . S
C429 C427 1.400 . S
C429 N428 1.321 . S
C429 H436 0.930 . S
C430 C425 1.395 . S
C430 C427 1.386 . S
C430 H449 0.930 . S
Eu431 N428 2.609 . S
Eu431 N432 2.657 . S
Eu431 O465 2.380 . S
Eu431 O466 2.432 . S
Eu431 O470 2.558 . S
Eu431 O471 2.612 . S
Eu431 O473 2.339 . S
Eu431 O474 2.563 . S
Eu431 O475 2.419 . S
Eu431 C495 2.848 . S
N432 C424 1.362 . S
N432 Eu431 2.657 . S
N432 C433 1.334 . S
C433 N432 1.334 . S
C433 C435 1.413 . S
C433 H440 0.929 . S
C434 C422 1.392 . S
C434 C435 1.367 . S
C434 H442 0.930 . S
C435 C433 1.413 . S
C435 C434 1.367 . S
C435 H437 0.930 . S
H436 C429 0.930 . S
H437 C435 0.930 . S
H438 C426 0.930 . S
H439 C427 0.930 . S
H440 C433 0.929 . S
H441 C455 0.930 . S
H442 C434 0.930 . S
H443 C461 0.930 . S
H444 C452 0.929 . S
H445 C459 0.930 . S
H446 C423 0.931 . S
H447 C453 0.930 . S
H448 C486 0.930 . S
H449 C430 0.930 . S
H450 C485 0.931 . S
N451 Eu420 2.657 . S
N451 C452 1.334 . S
N451 C456 1.362 . S
C452 H444 0.929 . S
C452 N451 1.334 . S
C452 C455 1.413 . S
C453 H447 0.930 . S
C453 C454 1.392 . S
C453 C455 1.367 . S
C454 C453 1.392 . S
C454 C456 1.420 . S
C454 C486 1.423 . S
C455 H441 0.930 . S
C455 C452 1.413 . S
C455 C453 1.367 . S
C456 N451 1.362 . S
C456 C454 1.420 . S
C456 C460 1.429 . S
H457 C462 0.930 . S
N458 Eu420 2.609 . S
N458 C460 1.377 . S
N458 C461 1.321 . S
C459 H445 0.930 . S
C459 C461 1.400 . S
C459 C462 1.386 . S
C460 C456 1.429 . S
C460 N458 1.377 . S
C460 C463 1.411 . S
C461 H443 0.930 . S
C461 N458 1.321 . S
C461 C459 1.400 . S
C462 H457 0.930 . S
C462 C459 1.386 . S
C462 C463 1.395 . S
C463 C460 1.411 . S
C463 C462 1.395 . S
C463 C485 1.420 . S
O464 Eu420 2.558 . S
O464 C484 1.257 . S
O465 Eu420 2.612 . S
O465 Eu431 2.380 . S
O465 C476 1.276 . S
O466 Eu431 2.432 . S
O466 C483 1.264 . S
O467 Eu420 2.339 . S
O467 C483 1.254 . S
O468 Eu420 2.563 . S
O468 C476 1.235 . S
O469 Eu420 2.419 . S
O469 C484 1.249 . S
O470 Eu431 2.558 . S
O470 C495 1.257 . S
O471 Eu420 2.380 . S
O471 Eu431 2.612 . S
O471 C487 1.276 . S
O472 Eu420 2.432 . S
O472 C494 1.264 . S
O473 Eu431 2.339 . S
O473 C494 1.254 . S
O474 Eu431 2.563 . S
O474 C487 1.235 . S
O475 Eu431 2.419 . S
O475 C495 1.249 . S
C476 O465 1.276 . S
C476 O468 1.235 . S
C477 C479 1.402 . S
C477 C481 1.402 . S
C477 C484 1.476 1_554 S
C478 C479 1.392 . S
C478 C480 1.386 . S
C479 C477 1.402 . S
C479 C478 1.392 . S
C479 H496 0.930 . S
C480 C478 1.386 . S
C480 C482 1.395 . S
C480 H497 0.930 . S
C481 C477 1.402 . S
C481 C482 1.379 . S
C481 H498 0.930 . S
C482 C480 1.395 . S
C482 C481 1.379 . S
C482 H499 0.930 . S
C483 O466 1.264 . S
C483 O467 1.254 . S
C484 Eu420 2.848 . S
C484 O464 1.257 . S
C484 O469 1.249 . S
C484 C477 1.476 1_556 S
C485 H450 0.931 . S
C485 C463 1.420 . S
C485 C486 1.351 . S
C486 H448 0.930 . S
C486 C454 1.423 . S
C486 C485 1.351 . S
C487 O471 1.276 . S
C487 O474 1.235 . S
C488 C489 1.393 . S
C488 C492 1.395 . S
C488 C495 1.492 . S
C489 C488 1.393 . S
C489 C490 1.392 . S
C489 H500 0.930 . S
C490 C489 1.392 . S
C490 C491 1.386 . S
C491 C490 1.386 . S
C491 C493 1.395 . S
C491 H501 0.930 . S
C492 C488 1.395 . S
C492 C493 1.379 . S
C492 H502 0.930 . S
C493 C491 1.395 . S
C493 C492 1.379 . S
C493 H503 0.930 . S
C494 O472 1.264 . S
C494 O473 1.254 . S
C495 Eu431 2.848 . S
C495 O470 1.257 . S
C495 O475 1.249 . S
C495 C488 1.492 . S
H496 C479 0.930 . S
H497 C480 0.930 . S
H498 C481 0.930 . S
H499 C482 0.930 . S
H500 C489 0.930 . S
H501 C491 0.930 . S
H502 C492 0.930 . S
H503 C493 0.930 . S
Eu504 N535 2.657 . S
Eu504 N542 2.609 . S
Eu504 O548 2.558 . S
Eu504 O549 2.612 . S
Eu504 O551 2.339 . S
Eu504 O552 2.563 . S
Eu504 O553 2.419 . S
Eu504 O555 2.380 1_556 S
Eu504 O556 2.432 . S
Eu504 C568 2.848 . S
C505 C508 1.429 . S
C505 C509 1.411 . S
C505 N512 1.377 . S
C506 C508 1.420 . S
C506 C510 1.423 . S
C506 C518 1.392 . S
C507 C509 1.420 . S
C507 C510 1.351 . S
C507 H530 0.931 . S
C508 C505 1.429 . S
C508 C506 1.420 . S
C508 N516 1.362 . S
C509 C505 1.411 . S
C509 C507 1.420 . S
C509 C514 1.395 . S
C510 C506 1.423 . S
C510 C507 1.351 . S
C510 H522 0.930 . S
C511 C513 1.400 . S
C511 C514 1.386 . S
C511 H523 0.930 . S
N512 C505 1.377 . S
N512 C513 1.321 . S
N512 Eu515 2.609 . S
C513 C511 1.400 . S
C513 N512 1.321 . S
C513 H520 0.930 . S
C514 C509 1.395 . S
C514 C511 1.386 . S
C514 H533 0.930 . S
Eu515 N512 2.609 . S
Eu515 N516 2.657 . S
Eu515 O549 2.380 1_554 S
Eu515 O550 2.432 . S
Eu515 O554 2.558 . S
Eu515 O555 2.612 . S
Eu515 O557 2.339 . S
Eu515 O558 2.563 . S
Eu515 O559 2.419 . S
Eu515 C579 2.848 . S
N516 C508 1.362 . S
N516 Eu515 2.657 . S
N516 C517 1.334 . S
C517 N516 1.334 . S
C517 C519 1.413 . S
C517 H524 0.929 . S
C518 C506 1.392 . S
C518 C519 1.367 . S
C518 H526 0.930 . S
C519 C517 1.413 . S
C519 C518 1.367 . S
C519 H521 0.930 . S
H520 C513 0.930 . S
H521 C519 0.930 . S
H522 C510 0.930 . S
H523 C511 0.930 . S
H524 C517 0.929 . S
H525 C539 0.930 . S
H526 C518 0.930 . S
H527 C545 0.930 . S
H528 C536 0.929 . S
H529 C543 0.930 . S
H530 C507 0.931 . S
H531 C537 0.930 . S
H532 C570 0.930 . S
H533 C514 0.930 . S
H534 C569 0.931 . S
N535 Eu504 2.657 . S
N535 C536 1.334 . S
N535 C540 1.362 . S
C536 H528 0.929 . S
C536 N535 1.334 . S
C536 C539 1.413 . S
C537 H531 0.930 . S
C537 C538 1.392 . S
C537 C539 1.367 . S
C538 C537 1.392 . S
C538 C540 1.420 . S
C538 C570 1.423 . S
C539 H525 0.930 . S
C539 C536 1.413 . S
C539 C537 1.367 . S
C540 N535 1.362 . S
C540 C538 1.420 . S
C540 C544 1.429 . S
H541 C546 0.930 . S
N542 Eu504 2.609 . S
N542 C544 1.377 . S
N542 C545 1.321 . S
C543 H529 0.930 . S
C543 C545 1.400 . S
C543 C546 1.386 . S
C544 C540 1.429 . S
C544 N542 1.377 . S
C544 C547 1.411 . S
C545 H527 0.930 . S
C545 N542 1.321 . S
C545 C543 1.400 . S
C546 H541 0.930 . S
C546 C543 1.386 . S
C546 C547 1.395 . S
C547 C544 1.411 . S
C547 C546 1.395 . S
C547 C569 1.420 . S
O548 Eu504 2.558 . S
O548 C568 1.257 . S
O549 Eu504 2.612 . S
O549 Eu515 2.380 1_556 S
O549 C560 1.276 . S
O550 Eu515 2.432 . S
O550 C567 1.264 1_554 S
O551 Eu504 2.339 . S
O551 C567 1.254 . S
O552 Eu504 2.563 . S
O552 C560 1.235 . S
O553 Eu504 2.419 . S
O553 C568 1.249 . S
O554 Eu515 2.558 . S
O554 C579 1.257 . S
O555 Eu504 2.380 1_554 S
O555 Eu515 2.612 . S
O555 C571 1.276 . S
O556 Eu504 2.432 . S
O556 C578 1.264 1_556 S
O557 Eu515 2.339 . S
O557 C578 1.254 . S
O558 Eu515 2.563 . S
O558 C571 1.235 . S
O559 Eu515 2.419 . S
O559 C579 1.249 . S
C560 O549 1.276 . S
C560 O552 1.235 . S
C561 C563 1.393 . S
C561 C565 1.395 . S
C561 C568 1.492 . S
C562 C563 1.392 . S
C562 C564 1.386 . S
C563 C561 1.393 . S
C563 C562 1.392 . S
C563 H580 0.930 . S
C564 C562 1.386 . S
C564 C566 1.395 . S
C564 H581 0.930 . S
C565 C561 1.395 . S
C565 C566 1.379 . S
C565 H582 0.930 . S
C566 C564 1.395 . S
C566 C565 1.379 . S
C566 H583 0.930 . S
C567 O550 1.264 1_556 S
C567 O551 1.254 . S
C568 Eu504 2.848 . S
C568 O548 1.257 . S
C568 O553 1.249 . S
C568 C561 1.492 . S
C569 H534 0.931 . S
C569 C547 1.420 . S
C569 C570 1.351 . S
C570 H532 0.930 . S
C570 C538 1.423 . S
C570 C569 1.351 . S
C571 O555 1.276 . S
C571 O558 1.235 . S
C572 C573 1.393 . S
C572 C576 1.395 . S
C572 C579 1.492 . S
C573 C572 1.393 . S
C573 C574 1.392 . S
C573 H584 0.930 . S
C574 C573 1.392 . S
C574 C575 1.386 . S
C575 C574 1.386 . S
C575 C577 1.395 . S
C575 H585 0.930 . S
C576 C572 1.395 . S
C576 C577 1.379 . S
C576 H586 0.930 . S
C577 C575 1.395 . S
C577 C576 1.379 . S
C577 H587 0.930 . S
C578 O556 1.264 1_554 S
C578 O557 1.254 . S
C579 Eu515 2.848 . S
C579 O554 1.257 . S
C579 O559 1.249 . S
C579 C572 1.492 . S
H580 C563 0.930 . S
H581 C564 0.930 . S
H582 C565 0.930 . S
H583 C566 0.930 . S
H584 C573 0.930 . S
H585 C575 0.930 . S
H586 C576 0.930 . S
H587 C577 0.930 . S
Eu588 N619 2.652 1_655 S
Eu588 N626 2.609 1_655 S
Eu588 O632 2.561 . S
Eu588 O633 2.614 . S
Eu588 O635 2.335 1_655 S
Eu588 O636 2.567 . S
Eu588 O637 2.418 1_655 S
Eu588 O639 2.378 1_655 S
Eu588 O640 2.436 . S
Eu588 C652 2.848 . S
C589 C592 1.429 . S
C589 C593 1.411 . S
C589 N596 1.377 . S
C590 C592 1.420 . S
C590 C594 1.423 . S
C590 C602 1.392 . S
C591 C593 1.420 . S
C591 C594 1.351 . S
C591 H614 0.931 . S
C592 C589 1.429 . S
C592 C590 1.420 . S
C592 N600 1.362 . S
C593 C589 1.411 . S
C593 C591 1.420 . S
C593 C598 1.395 . S
C594 C590 1.423 . S
C594 C591 1.351 . S
C594 H606 0.930 . S
C595 C597 1.400 . S
C595 C598 1.386 1_455 S
C595 H607 0.930 . S
N596 C589 1.377 . S
N596 C597 1.321 1_655 S
N596 Eu599 2.609 1_655 S
C597 C595 1.400 . S
C597 N596 1.321 1_455 S
C597 H604 0.930 . S
C598 C593 1.395 . S
C598 C595 1.386 1_655 S
C598 H617 0.930 . S
Eu599 N596 2.609 1_455 S
Eu599 N600 2.646 1_455 S
Eu599 O633 2.376 1_455 S
Eu599 O634 2.441 . S
Eu599 O638 2.564 . S
Eu599 O639 2.616 . S
Eu599 O641 2.331 1_455 S
Eu599 O642 2.571 . S
Eu599 O643 2.416 1_455 S
Eu599 C663 2.849 . S
N600 C592 1.362 . S
N600 Eu599 2.646 1_655 S
N600 C601 1.334 . S
C601 N600 1.334 . S
C601 C603 1.413 . S
C601 H608 0.929 . S
C602 C590 1.392 . S
C602 C603 1.367 . S
C602 H610 0.930 . S
C603 C601 1.413 . S
C603 C602 1.367 . S
C603 H605 0.930 . S
H604 C597 0.930 . S
H605 C603 0.930 . S
H606 C594 0.930 . S
H607 C595 0.930 . S
H608 C601 0.929 . S
H609 C623 0.930 . S
H610 C602 0.930 . S
H611 C629 0.930 . S
H612 C620 0.929 . S
H613 C627 0.930 . S
H614 C591 0.931 . S
H615 C621 0.930 . S
H616 C654 0.930 . S
H617 C598 0.930 . S
H618 C653 0.931 . S
N619 Eu588 2.652 1_455 S
N619 C620 1.334 . S
N619 C624 1.362 . S
C620 H612 0.929 . S
C620 N619 1.334 . S
C620 C623 1.413 . S
C621 H615 0.930 . S
C621 C622 1.392 . S
C621 C623 1.367 . S
C622 C621 1.392 . S
C622 C624 1.420 . S
C622 C654 1.423 . S
C623 H609 0.930 . S
C623 C620 1.413 . S
C623 C621 1.367 . S
C624 N619 1.362 . S
C624 C622 1.420 . S
C624 C628 1.429 . S
H625 C630 0.930 . S
N626 Eu588 2.609 1_455 S
N626 C628 1.377 . S
N626 C629 1.321 1_455 S
C627 H613 0.930 . S
C627 C629 1.400 . S
C627 C630 1.386 1_655 S
C628 C624 1.429 . S
C628 N626 1.377 . S
C628 C631 1.411 . S
C629 H611 0.930 . S
C629 N626 1.321 1_655 S
C629 C627 1.400 . S
C630 H625 0.930 . S
C630 C627 1.386 1_455 S
C630 C631 1.395 . S
C631 C628 1.411 . S
C631 C630 1.395 . S
C631 C653 1.420 . S
O632 Eu588 2.561 . S
O632 C652 1.257 . S
O633 Eu588 2.614 . S
O633 Eu599 2.376 1_655 S
O633 C644 1.276 . S
O634 Eu599 2.441 . S
O634 C651 1.264 . S
O635 Eu588 2.335 1_455 S
O635 C651 1.254 . S
O636 Eu588 2.567 . S
O636 C644 1.235 . S
O637 Eu588 2.418 1_455 S
O637 C652 1.249 1_455 S
O638 Eu599 2.564 . S
O638 C663 1.257 . S
O639 Eu588 2.378 1_455 S
O639 Eu599 2.616 . S
O639 C655 1.276 . S
O640 Eu588 2.436 . S
O640 C662 1.264 . S
O641 Eu599 2.331 1_655 S
O641 C662 1.254 . S
O642 Eu599 2.571 . S
O642 C655 1.235 . S
O643 Eu599 2.416 1_655 S
O643 C663 1.249 1_655 S
C644 O633 1.276 . S
C644 O636 1.235 . S
C645 C647 1.393 . S
C645 C649 1.395 . S
C645 C652 1.492 . S
C646 C647 1.392 . S
C646 C648 1.386 . S
C647 C645 1.393 . S
C647 C646 1.392 . S
C647 H664 0.930 1_655 S
C648 C646 1.386 . S
C648 C650 1.395 . S
C648 H665 0.930 . S
C649 C645 1.395 . S
C649 C650 1.379 . S
C649 H666 0.930 . S
C650 C648 1.395 . S
C650 C649 1.379 . S
C650 H667 0.930 . S
C651 O634 1.264 . S
C651 O635 1.254 . S
C652 Eu588 2.848 . S
C652 O632 1.257 . S
C652 O637 1.249 1_655 S
C652 C645 1.492 . S
C653 H618 0.931 . S
C653 C631 1.420 . S
C653 C654 1.351 . S
C654 H616 0.930 . S
C654 C622 1.423 . S
C654 C653 1.351 . S
C655 O639 1.276 . S
C655 O642 1.235 . S
C656 C657 1.393 . S
C656 C660 1.395 . S
C656 C663 1.492 . S
C657 C656 1.393 . S
C657 C658 1.392 . S
C657 H668 0.930 1_455 S
C658 C657 1.392 . S
C658 C659 1.386 . S
C659 C658 1.386 . S
C659 C661 1.395 . S
C659 H669 0.930 . S
C660 C656 1.395 . S
C660 C661 1.379 . S
C660 H670 0.930 . S
C661 C659 1.395 . S
C661 C660 1.379 . S
C661 H671 0.930 . S
C662 O640 1.264 . S
C662 O641 1.254 . S
C663 Eu599 2.849 . S
C663 O638 1.257 . S
C663 O643 1.249 1_455 S
C663 C656 1.492 . S
H664 C647 0.930 1_455 S
H665 C648 0.930 . S
H666 C649 0.930 . S
H667 C650 0.930 . S
H668 C657 0.930 1_655 S
H669 C659 0.930 . S
H670 C660 0.930 . S
H671 C661 0.930 . S
H672 C678 0.930 . S
H673 C681 0.930 . S
H674 C682 0.930 . S
H675 C683 0.930 . S
H676 C686 0.930 . S
H677 C687 0.930 . S
C678 H672 0.930 . S
C678 C679 1.355 . S
C678 C680 1.415 . S
C679 C678 1.355 . S
C679 C681 1.419 . S
C680 C678 1.415 . S
C680 C685 1.425 . S
C680 C687 1.409 . S
C681 H673 0.930 . S
C681 C679 1.419 . S
C681 C682 1.362 . S
C682 H674 0.930 . S
C682 C681 1.362 . S
C682 C685 1.409 . S
C683 H675 0.930 . S
C683 C684 1.355 . S
C683 C685 1.415 . S
C684 C683 1.355 . S
C684 C686 1.419 . S
C685 C680 1.425 . S
C685 C682 1.409 . S
C685 C683 1.415 . S
C686 H676 0.930 . S
C686 C684 1.419 . S
C686 C687 1.362 . S
C687 H677 0.930 . S
C687 C680 1.409 . S
C687 C686 1.362 . S
H688 C694 0.930 . S
H689 C697 0.930 . S
H690 C698 0.930 . S
H691 C699 0.930 . S
H692 C702 0.930 . S
H693 C703 0.930 . S
C694 H688 0.930 . S
C694 C695 1.355 . S
C694 C696 1.415 . S
C695 C694 1.355 . S
C695 C697 1.419 . S
C696 C694 1.415 . S
C696 C701 1.425 . S
C696 C703 1.409 . S
C697 H689 0.930 . S
C697 C695 1.419 . S
C697 C698 1.362 . S
C698 H690 0.930 . S
C698 C697 1.362 . S
C698 C701 1.409 . S
C699 H691 0.930 . S
C699 C700 1.355 . S
C699 C701 1.415 . S
C700 C699 1.355 . S
C700 C702 1.419 . S
C701 C696 1.425 . S
C701 C698 1.409 . S
C701 C699 1.415 . S
C702 H692 0.930 . S
C702 C700 1.419 . S
C702 C703 1.362 . S
C703 H693 0.930 . S
C703 C696 1.409 . S
C703 C702 1.362 . S
H704 C710 0.930 . S
H705 C713 0.930 . S
H706 C714 0.930 . S
H707 C715 0.930 . S
H708 C718 0.930 . S
H709 C719 0.930 . S
C710 H704 0.930 . S
C710 C711 1.355 . S
C710 C712 1.415 . S
C711 C710 1.355 . S
C711 C713 1.419 . S
C712 C710 1.415 . S
C712 C717 1.425 . S
C712 C719 1.409 . S
C713 H705 0.930 . S
C713 C711 1.419 . S
C713 C714 1.362 . S
C714 H706 0.930 . S
C714 C713 1.362 . S
C714 C717 1.409 . S
C715 H707 0.930 . S
C715 C716 1.355 . S
C715 C717 1.415 . S
C716 C715 1.355 . S
C716 C718 1.419 . S
C717 C712 1.425 . S
C717 C714 1.409 . S
C717 C715 1.415 . S
C718 H708 0.930 . S
C718 C716 1.419 . S
C718 C719 1.362 . S
C719 H709 0.930 . S
C719 C712 1.409 . S
C719 C718 1.362 . S
H720 C726 0.930 . S
H721 C729 0.930 . S
H722 C730 0.930 . S
H723 C731 0.930 . S
H724 C734 0.930 . S
H725 C735 0.930 . S
C726 H720 0.930 . S
C726 C727 1.355 . S
C726 C728 1.415 . S
C727 C726 1.355 . S
C727 C729 1.419 . S
C728 C726 1.415 . S
C728 C733 1.425 . S
C728 C735 1.409 . S
C729 H721 0.930 . S
C729 C727 1.419 . S
C729 C730 1.362 . S
C730 H722 0.930 . S
C730 C729 1.362 . S
C730 C733 1.409 . S
C731 H723 0.930 . S
C731 C732 1.355 . S
C731 C733 1.415 . S
C732 C731 1.355 . S
C732 C734 1.419 . S
C733 C728 1.425 . S
C733 C730 1.409 . S
C733 C731 1.415 . S
C734 H724 0.930 . S
C734 C732 1.419 . S
C734 C735 1.362 . S
C735 H725 0.930 . S
C735 C728 1.409 . S
C735 C734 1.362 . S
H736 C742 0.930 . S
H737 C745 0.930 . S
H738 C746 0.930 . S
H739 C747 0.930 . S
H740 C750 0.930 . S
H741 C751 0.930 . S
C742 H736 0.930 . S
C742 C743 1.355 . S
C742 C744 1.415 . S
C743 C742 1.355 . S
C743 C745 1.419 . S
C744 C742 1.415 . S
C744 C749 1.425 . S
C744 C751 1.409 . S
C745 H737 0.930 . S
C745 C743 1.419 . S
C745 C746 1.362 . S
C746 H738 0.930 . S
C746 C745 1.362 . S
C746 C749 1.409 . S
C747 H739 0.930 . S
C747 C748 1.355 . S
C747 C749 1.415 . S
C748 C747 1.355 . S
C748 C750 1.419 . S
C749 C744 1.425 . S
C749 C746 1.409 . S
C749 C747 1.415 . S
C750 H740 0.930 . S
C750 C748 1.419 . S
C750 C751 1.362 . S
C751 H741 0.930 . S
C751 C744 1.409 . S
C751 C750 1.362 . S
H752 C758 0.930 . S
H753 C761 0.930 . S
H754 C762 0.930 . S
H755 C763 0.930 . S
H756 C766 0.930 . S
H757 C767 0.930 . S
C758 H752 0.930 . S
C758 C759 1.355 . S
C758 C760 1.415 . S
C759 C758 1.355 . S
C759 C761 1.419 . S
C760 C758 1.415 . S
C760 C765 1.425 . S
C760 C767 1.409 . S
C761 H753 0.930 . S
C761 C759 1.419 . S
C761 C762 1.362 . S
C762 H754 0.930 . S
C762 C761 1.362 . S
C762 C765 1.409 . S
C763 H755 0.930 . S
C763 C764 1.355 . S
C763 C765 1.415 . S
C764 C763 1.355 . S
C764 C766 1.419 . S
C765 C760 1.425 . S
C765 C762 1.409 . S
C765 C763 1.415 . S
C766 H756 0.930 . S
C766 C764 1.419 . S
C766 C767 1.362 . S
C767 H757 0.930 . S
C767 C760 1.409 . S
C767 C766 1.362 . S
H768 C774 0.930 . S
H769 C777 0.930 . S
H770 C778 0.930 . S
H771 C779 0.930 . S
H772 C782 0.930 1_556 S
H773 C783 0.930 . S
C774 H768 0.930 . S
C774 C775 1.355 . S
C774 C776 1.415 . S
C775 C774 1.355 . S
C775 C777 1.419 . S
C776 C774 1.415 . S
C776 C781 1.425 . S
C776 C783 1.409 . S
C777 H769 0.930 . S
C777 C775 1.419 . S
C777 C778 1.362 . S
C778 H770 0.930 . S
C778 C777 1.362 . S
C778 C781 1.409 . S
C779 H771 0.930 . S
C779 C780 1.355 . S
C779 C781 1.415 . S
C780 C779 1.355 . S
C780 C782 1.419 . S
C781 C776 1.425 . S
C781 C778 1.409 . S
C781 C779 1.415 . S
C782 H772 0.930 1_554 S
C782 C780 1.419 . S
C782 C783 1.362 . S
C783 H773 0.930 . S
C783 C776 1.409 . S
C783 C782 1.362 . S
H784 C790 0.930 . S
H785 C793 0.930 . S
H786 C794 0.930 . S
H787 C795 0.930 . S
H788 C798 0.930 . S
H789 C799 0.930 . S
C790 H784 0.930 . S
C790 C791 1.355 . S
C790 C792 1.415 . S
C791 C790 1.355 . S
C791 C793 1.419 . S
C792 C790 1.415 . S
C792 C797 1.425 . S
C792 C799 1.409 . S
C793 H785 0.930 . S
C793 C791 1.419 . S
C793 C794 1.362 . S
C794 H786 0.930 . S
C794 C793 1.362 . S
C794 C797 1.409 . S
C795 H787 0.930 . S
C795 C796 1.355 . S
C795 C797 1.415 . S
C796 C795 1.355 . S
C796 C798 1.419 . S
C797 C792 1.425 . S
C797 C794 1.409 . S
C797 C795 1.415 . S
C798 H788 0.930 . S
C798 C796 1.419 . S
C798 C799 1.362 . S
C799 H789 0.930 . S
C799 C792 1.409 . S
C799 C798 1.362 . S
H800 C806 0.930 . S
H801 C809 0.930 . S
H802 C810 0.930 . S
H803 C811 0.930 . S
H804 C814 0.930 . S
H805 C815 0.930 . S
C806 H800 0.930 . S
C806 C807 1.355 . S
C806 C808 1.415 . S
C807 C806 1.355 . S
C807 C809 1.419 . S
C808 C806 1.415 . S
C808 C813 1.425 . S
C808 C815 1.409 . S
C809 H801 0.930 . S
C809 C807 1.419 . S
C809 C810 1.362 . S
C810 H802 0.930 . S
C810 C809 1.362 . S
C810 C813 1.409 . S
C811 H803 0.930 . S
C811 C812 1.355 . S
C811 C813 1.415 . S
C812 C811 1.355 . S
C812 C814 1.419 . S
C813 C808 1.425 . S
C813 C810 1.409 . S
C813 C811 1.415 . S
C814 H804 0.930 . S
C814 C812 1.419 . S
C814 C815 1.362 . S
C815 H805 0.930 . S
C815 C808 1.409 . S
C815 C814 1.362 . S
H816 C822 0.930 . S
H817 C825 0.930 . S
H818 C826 0.930 . S
H819 C827 0.930 . S
H820 C830 0.930 . S
H821 C831 0.930 . S
C822 H816 0.930 . S
C822 C823 1.355 . S
C822 C824 1.415 . S
C823 C822 1.355 . S
C823 C825 1.419 . S
C824 C822 1.415 . S
C824 C829 1.425 . S
C824 C831 1.409 . S
C825 H817 0.930 . S
C825 C823 1.419 . S
C825 C826 1.362 . S
C826 H818 0.930 . S
C826 C825 1.362 . S
C826 C829 1.409 . S
C827 H819 0.930 . S
C827 C828 1.355 . S
C827 C829 1.415 . S
C828 C827 1.355 . S
C828 C830 1.419 . S
C829 C824 1.425 . S
C829 C826 1.409 . S
C829 C827 1.415 . S
C830 H820 0.930 . S
C830 C828 1.419 . S
C830 C831 1.362 . S
C831 H821 0.930 . S
C831 C824 1.409 . S
C831 C830 1.362 . S
H832 C838 0.930 . S
H833 C841 0.930 . S
H834 C842 0.930 . S
H835 C843 0.930 . S
H836 C846 0.930 . S
H837 C847 0.930 . S
C838 H832 0.930 . S
C838 C839 1.355 . S
C838 C840 1.415 . S
C839 C838 1.355 . S
C839 C841 1.419 . S
C840 C838 1.415 . S
C840 C845 1.425 . S
C840 C847 1.409 . S
C841 H833 0.930 . S
C841 C839 1.419 . S
C841 C842 1.362 . S
C842 H834 0.930 . S
C842 C841 1.362 . S
C842 C845 1.409 . S
C843 H835 0.930 . S
C843 C844 1.355 . S
C843 C845 1.415 . S
C844 C843 1.355 . S
C844 C846 1.419 . S
C845 C840 1.425 . S
C845 C842 1.409 . S
C845 C843 1.415 . S
C846 H836 0.930 . S
C846 C844 1.419 . S
C846 C847 1.362 . S
C847 H837 0.930 . S
C847 C840 1.409 . S
C847 C846 1.362 . S
H848 C854 0.930 . S
H849 C857 0.930 . S
H850 C858 0.930 . S
H851 C859 0.930 . S
H852 C862 0.930 . S
H853 C863 0.930 . S
C854 H848 0.930 . S
C854 C855 1.355 . S
C854 C856 1.415 . S
C855 C854 1.355 . S
C855 C857 1.419 . S
C856 C854 1.415 . S
C856 C861 1.425 . S
C856 C863 1.409 . S
C857 H849 0.930 . S
C857 C855 1.419 . S
C857 C858 1.362 . S
C858 H850 0.930 . S
C858 C857 1.362 . S
C858 C861 1.409 . S
C859 H851 0.930 . S
C859 C860 1.355 . S
C859 C861 1.415 . S
C860 C859 1.355 . S
C860 C862 1.419 . S
C861 C856 1.425 . S
C861 C858 1.409 . S
C861 C859 1.415 . S
C862 H852 0.930 . S
C862 C860 1.419 . S
C862 C863 1.362 . S
C863 H853 0.930 . S
C863 C856 1.409 . S
C863 C862 1.362 . S
H864 C870 0.930 . S
H865 C873 0.930 . S
H866 C874 0.930 . S
H867 C875 0.930 . S
H868 C878 0.930 . S
H869 C879 0.930 . S
C870 H864 0.930 . S
C870 C871 1.355 . S
C870 C872 1.415 . S
C871 C870 1.355 . S
C871 C873 1.419 . S
C872 C870 1.415 . S
C872 C877 1.425 . S
C872 C879 1.409 . S
C873 H865 0.930 . S
C873 C871 1.419 . S
C873 C874 1.362 . S
C874 H866 0.930 . S
C874 C873 1.362 . S
C874 C877 1.409 . S
C875 H867 0.930 . S
C875 C876 1.355 . S
C875 C877 1.415 . S
C876 C875 1.355 . S
C876 C878 1.419 . S
C877 C872 1.425 . S
C877 C874 1.409 . S
C877 C875 1.415 . S
C878 H868 0.930 . S
C878 C876 1.419 . S
C878 C879 1.362 . S
C879 H869 0.930 . S
C879 C872 1.409 . S
C879 C878 1.362 . S
H880 C886 0.930 . S
H881 C889 0.930 . S
H882 C890 0.930 . S
H883 C891 0.930 . S
H884 C894 0.930 . S
H885 C895 0.930 . S
C886 H880 0.930 . S
C886 C887 1.355 . S
C886 C888 1.415 . S
C887 C886 1.355 . S
C887 C889 1.419 . S
C888 C886 1.415 . S
C888 C893 1.425 . S
C888 C895 1.409 . S
C889 H881 0.930 . S
C889 C887 1.419 . S
C889 C890 1.362 . S
C890 H882 0.930 . S
C890 C889 1.362 . S
C890 C893 1.409 . S
C891 H883 0.930 . S
C891 C892 1.355 . S
C891 C893 1.415 . S
C892 C891 1.355 . S
C892 C894 1.419 . S
C893 C888 1.425 . S
C893 C890 1.409 . S
C893 C891 1.415 . S
C894 H884 0.930 . S
C894 C892 1.419 . S
C894 C895 1.362 . S
C895 H885 0.930 . S
C895 C888 1.409 . S
C895 C894 1.362 . S
H896 C902 0.930 . S
H897 C905 0.930 . S
H898 C906 0.930 . S
H899 C907 0.930 . S
H900 C910 0.930 . S
H901 C911 0.930 . S
C902 H896 0.930 . S
C902 C903 1.355 . S
C902 C904 1.415 . S
C903 C902 1.355 . S
C903 C905 1.419 . S
C904 C902 1.415 . S
C904 C909 1.425 . S
C904 C911 1.409 . S
C905 H897 0.930 . S
C905 C903 1.419 . S
C905 C906 1.362 . S
C906 H898 0.930 . S
C906 C905 1.362 . S
C906 C909 1.409 . S
C907 H899 0.930 . S
C907 C908 1.355 . S
C907 C909 1.415 . S
C908 C907 1.355 . S
C908 C910 1.419 . S
C909 C904 1.425 . S
C909 C906 1.409 . S
C909 C907 1.415 . S
C910 H900 0.930 . S
C910 C908 1.419 . S
C910 C911 1.362 . S
C911 H901 0.930 . S
C911 C904 1.409 . S
C911 C910 1.362 . S
H912 C918 0.930 . S
H913 C921 0.930 . S
H914 C922 0.930 . S
H915 C923 0.930 . S
H916 C926 0.930 . S
H917 C927 0.930 . S
C918 H912 0.930 . S
C918 C919 1.355 . S
C918 C920 1.415 . S
C919 C918 1.355 . S
C919 C921 1.419 . S
C920 C918 1.415 . S
C920 C925 1.425 . S
C920 C927 1.409 . S
C921 H913 0.930 . S
C921 C919 1.419 . S
C921 C922 1.362 . S
C922 H914 0.930 . S
C922 C921 1.362 . S
C922 C925 1.409 . S
C923 H915 0.930 . S
C923 C924 1.355 . S
C923 C925 1.415 . S
C924 C923 1.355 . S
C924 C926 1.419 . S
C925 C920 1.425 . S
C925 C922 1.409 . S
C925 C923 1.415 . S
C926 H916 0.930 . S
C926 C924 1.419 . S
C926 C927 1.362 . S
C927 H917 0.930 . S
C927 C920 1.409 . S
C927 C926 1.362 . S
H928 C934 0.930 . S
H929 C937 0.930 . S
H930 C938 0.930 . S
H931 C939 0.930 . S
H932 C942 0.930 . S
H933 C943 0.930 . S
C934 H928 0.930 . S
C934 C935 1.355 1_445 S
C934 C936 1.415 . S
C935 C934 1.355 1_665 S
C935 C937 1.419 . S
C936 C934 1.415 . S
C936 C941 1.425 1_446 S
C936 C943 1.409 1_556 S
C937 H929 0.930 . S
C937 C935 1.419 . S
C937 C938 1.362 . S
C938 H930 0.930 . S
C938 C937 1.362 . S
C938 C941 1.409 1_556 S
C939 H931 0.930 . S
C939 C940 1.355 1_665 S
C939 C941 1.415 . S
C940 C939 1.355 1_445 S
C940 C942 1.419 . S
C941 C936 1.425 1_664 S
C941 C938 1.409 1_554 S
C941 C939 1.415 . S
C942 H932 0.930 . S
C942 C940 1.419 . S
C942 C943 1.362 . S
C943 H933 0.930 . S
C943 C936 1.409 1_554 S
C943 C942 1.362 . S
H944 C950 0.930 . S
H945 C953 0.930 . S
H946 C954 0.930 . S
H947 C955 0.930 . S
H948 C958 0.930 . S
H949 C959 0.930 . S
C950 H944 0.930 . S
C950 C951 1.355 . S
C950 C952 1.415 . S
C951 C950 1.355 . S
C951 C953 1.419 . S
C952 C950 1.415 . S
C952 C957 1.425 . S
C952 C959 1.409 . S
C953 H945 0.930 . S
C953 C951 1.419 . S
C953 C954 1.362 . S
C954 H946 0.930 . S
C954 C953 1.362 . S
C954 C957 1.409 . S
C955 H947 0.930 . S
C955 C956 1.355 . S
C955 C957 1.415 . S
C956 C955 1.355 . S
C956 C958 1.419 . S
C957 C952 1.425 . S
C957 C954 1.409 . S
C957 C955 1.415 . S
C958 H948 0.930 . S
C958 C956 1.419 . S
C958 C959 1.362 . S
C959 H949 0.930 . S
C959 C952 1.409 . S
C959 C958 1.362 . S
H960 C966 0.930 . S
H961 C969 0.930 . S
H962 C970 0.930 . S
H963 C971 0.930 . S
H964 C974 0.930 . S
H965 C975 0.930 . S
C966 H960 0.930 . S
C966 C967 1.355 1_545 S
C966 C968 1.415 . S
C967 C966 1.355 1_565 S
C967 C969 1.419 . S
C968 C966 1.415 . S
C968 C973 1.425 1_545 S
C968 C975 1.409 . S
C969 H961 0.930 . S
C969 C967 1.419 . S
C969 C970 1.362 . S
C970 H962 0.930 . S
C970 C969 1.362 . S
C970 C973 1.409 . S
C971 H963 0.930 . S
C971 C972 1.355 1_565 S
C971 C973 1.415 . S
C972 C971 1.355 1_545 S
C972 C974 1.419 . S
C973 C968 1.425 1_565 S
C973 C970 1.409 . S
C973 C971 1.415 . S
C974 H964 0.930 . S
C974 C972 1.419 . S
C974 C975 1.362 . S
C975 H965 0.930 . S
C975 C968 1.409 . S
C975 C974 1.362 . S
H976 C982 0.930 . S
H977 C985 0.930 . S
H978 C986 0.930 . S
H979 C987 0.930 . S
H980 C990 0.930 . S
H981 C991 0.930 . S
C982 H976 0.930 . S
C982 C983 1.355 . S
C982 C984 1.415 . S
C983 C982 1.355 . S
C983 C985 1.419 . S
C984 C982 1.415 . S
C984 C989 1.425 . S
C984 C991 1.409 . S
C985 H977 0.930 . S
C985 C983 1.419 . S
C985 C986 1.362 . S
C986 H978 0.930 . S
C986 C985 1.362 . S
C986 C989 1.409 . S
C987 H979 0.930 . S
C987 C988 1.355 . S
C987 C989 1.415 . S
C988 C987 1.355 . S
C988 C990 1.419 . S
C989 C984 1.425 . S
C989 C986 1.409 . S
C989 C987 1.415 . S
C990 H980 0.930 . S
C990 C988 1.419 . S
C990 C991 1.362 . S
C991 H981 0.930 . S
C991 C984 1.409 . S
C991 C990 1.362 . S
H992 C998 0.930 . S
H993 C1001 0.930 . S
H994 C1002 0.930 . S
H995 C1003 0.930 . S
H996 C1006 0.930 . S
H997 C1007 0.930 . S
C998 H992 0.930 . S
C998 C999 1.355 . S
C998 C1000 1.415 . S
C999 C998 1.355 . S
C999 C1001 1.419 . S
C1000 C998 1.415 . S
C1000 C1005 1.425 . S
C1000 C1007 1.409 . S
C1001 H993 0.930 . S
C1001 C999 1.419 . S
C1001 C1002 1.362 . S
C1002 H994 0.930 . S
C1002 C1001 1.362 . S
C1002 C1005 1.409 . S
C1003 H995 0.930 . S
C1003 C1004 1.355 . S
C1003 C1005 1.415 . S
C1004 C1003 1.355 . S
C1004 C1006 1.419 . S
C1005 C1000 1.425 . S
C1005 C1002 1.409 . S
C1005 C1003 1.415 . S
C1006 H996 0.930 . S
C1006 C1004 1.419 . S
C1006 C1007 1.362 . S
C1007 H997 0.930 . S
C1007 C1000 1.409 . S
C1007 C1006 1.362 . S
H1008 C1014 0.930 . S
H1009 C1017 0.930 . S
H1010 C1018 0.930 . S
H1011 C1019 0.930 . S
H1012 C1022 0.930 . S
H1013 C1023 0.930 . S
C1014 H1008 0.930 . S
C1014 C1015 1.355 . S
C1014 C1016 1.415 . S
C1015 C1014 1.355 . S
C1015 C1017 1.419 . S
C1016 C1014 1.415 . S
C1016 C1021 1.425 . S
C1016 C1023 1.409 . S
C1017 H1009 0.930 . S
C1017 C1015 1.419 . S
C1017 C1018 1.362 . S
C1018 H1010 0.930 . S
C1018 C1017 1.362 . S
C1018 C1021 1.409 . S
C1019 H1011 0.930 . S
C1019 C1020 1.355 . S
C1019 C1021 1.415 . S
C1020 C1019 1.355 . S
C1020 C1022 1.419 . S
C1021 C1016 1.425 . S
C1021 C1018 1.409 . S
C1021 C1019 1.415 . S
C1022 H1012 0.930 . S
C1022 C1020 1.419 . S
C1022 C1023 1.362 . S
C1023 H1013 0.930 . S
C1023 C1016 1.409 . S
C1023 C1022 1.362 . S
H1024 C1030 0.930 . S
H1025 C1033 0.930 . S
H1026 C1034 0.930 . S
H1027 C1035 0.930 . S
H1028 C1038 0.930 . S
H1029 C1039 0.930 . S
C1030 H1024 0.930 . S
C1030 C1031 1.355 . S
C1030 C1032 1.415 . S
C1031 C1030 1.355 . S
C1031 C1033 1.419 . S
C1032 C1030 1.415 . S
C1032 C1037 1.425 . S
C1032 C1039 1.409 . S
C1033 H1025 0.930 . S
C1033 C1031 1.419 . S
C1033 C1034 1.362 . S
C1034 H1026 0.930 . S
C1034 C1033 1.362 . S
C1034 C1037 1.409 . S
C1035 H1027 0.930 . S
C1035 C1036 1.355 . S
C1035 C1037 1.415 . S
C1036 C1035 1.355 . S
C1036 C1038 1.419 . S
C1037 C1032 1.425 . S
C1037 C1034 1.409 . S
C1037 C1035 1.415 . S
C1038 H1028 0.930 . S
C1038 C1036 1.419 . S
C1038 C1039 1.362 . S
C1039 H1029 0.930 . S
C1039 C1032 1.409 . S
C1039 C1038 1.362 . S
H1040 C1046 0.930 . S
H1041 C1049 0.930 . S
H1042 C1050 0.930 . S
H1043 C1051 0.930 . S
H1044 C1054 0.930 . S
H1045 C1055 0.930 . S
C1046 H1040 0.930 . S
C1046 C1047 1.374 . S
C1046 C1048 1.415 . S
C1047 C1046 1.374 . S
C1047 C1049 1.394 1_655 S
C1048 C1046 1.415 . S
C1048 C1053 1.425 1_656 S
C1048 C1055 1.409 1_556 S
C1049 H1041 0.930 . S
C1049 C1047 1.394 1_455 S
C1049 C1050 1.362 . S
C1050 H1042 0.930 . S
C1050 C1049 1.362 . S
C1050 C1053 1.409 1_556 S
C1051 H1043 0.930 . S
C1051 C1052 1.355 . S
C1051 C1053 1.415 . S
C1052 C1051 1.355 . S
C1052 C1054 1.419 1_455 S
C1053 C1048 1.425 1_454 S
C1053 C1050 1.409 1_554 S
C1053 C1051 1.415 . S
C1054 H1044 0.930 . S
C1054 C1052 1.419 1_655 S
C1054 C1055 1.362 . S
C1055 H1045 0.930 . S
C1055 C1048 1.409 1_554 S
C1055 C1054 1.362 . S
C679 C56 1.550 . S
C684 C308 1.550 . S
C695 C74 1.446 . S
C700 C140 1.454 . S
C711 C158 1.318 . S
C716 C242 1.361 . S
C727 C224 1.457 . S
C732 C326 1.442 . S
C743 C67 1.609 . S
C748 C487 1.601 . S
C759 C63 1.444 . S
C764 C403 1.460 . S
C775 C399 1.323 . S
C780 C231 1.295 . S
C791 C483 1.490 . S
C796 C235 1.415 . S
C807 C560 1.592 . S
C812 C476 1.550 . S
C823 C392 1.466 . S
C828 C578 1.438 . S
C839 C662 1.332 . S
C844 C410 1.298 . S
C855 C494 1.468 . S
C860 C644 1.428 . S
C871 C319 1.548 . S
C876 C571 1.588 . S
C887 C567 1.437 . S
C892 C151 1.478 . S
C903 C147 1.340 . S
C908 C651 1.293 . S
C919 C315 1.490 . S
C924 C655 1.401 . S
C935 C70 1.435 1_565 S
C940 C58 1.435 1_545 S
C951 C142 1.400 . S
C956 C154 1.400 . S
C967 C238 1.397 1_565 S
C972 C226 1.397 1_545 S
C983 C322 1.318 . S
C988 C310 1.318 . S
C999 C394 1.426 . S
C1004 C406 1.426 . S
C1015 C490 1.320 . S
C1020 C478 1.320 . S
C1031 C562 1.321 . S
C1036 C574 1.321 . S
C1047 C646 1.420 . S
C1052 C658 1.413 . S
