# Generated by pormake.
# Topology wni, (7)-cn, num edge types: 1
# Building blocks:
#     Node 0, Type 0, BuildingBlock: HICVOG_clean_sbu_0, # of connection points: 7
#     Node 1, Type 0, BuildingBlock: HICVOG_clean_sbu_0, # of connection points: 7
#     Node 2, Type 0, BuildingBlock: HICVOG_clean_sbu_0, # of connection points: 7
#     Node 3, Type 0, BuildingBlock: HICVOG_clean_sbu_0, # of connection points: 7
#     Node 4, Type 0, BuildingBlock: HICVOG_clean_sbu_0, # of connection points: 7
#     Node 5, Type 0, BuildingBlock: HICVOG_clean_sbu_0, # of connection points: 7
#     Edge 6, Type (0, 0), BuildingBlock: CIFDUS_clean_linker_0, # of connection points: 2
#     Edge 7, Type (0, 0), BuildingBlock: CIFDUS_clean_linker_0, # of connection points: 2
#     Edge 8, Type (0, 0), BuildingBlock: CIFDUS_clean_linker_0, # of connection points: 2
#     Edge 9, Type (0, 0), BuildingBlock: CIFDUS_clean_linker_0, # of connection points: 2
#     Edge 10, Type (0, 0), BuildingBlock: CIFDUS_clean_linker_0, # of connection points: 2
#     Edge 11, Type (0, 0), BuildingBlock: CIFDUS_clean_linker_0, # of connection points: 2
#     Edge 12, Type (0, 0), BuildingBlock: CIFDUS_clean_linker_0, # of connection points: 2
#     Edge 13, Type (0, 0), BuildingBlock: CIFDUS_clean_linker_0, # of connection points: 2
#     Edge 14, Type (0, 0), BuildingBlock: CIFDUS_clean_linker_0, # of connection points: 2
#     Edge 15, Type (0, 0), BuildingBlock: CIFDUS_clean_linker_0, # of connection points: 2
#     Edge 16, Type (0, 0), BuildingBlock: CIFDUS_clean_linker_0, # of connection points: 2
#     Edge 17, Type (0, 0), BuildingBlock: CIFDUS_clean_linker_0, # of connection points: 2
#     Edge 18, Type (0, 0), BuildingBlock: CIFDUS_clean_linker_0, # of connection points: 2
#     Edge 19, Type (0, 0), BuildingBlock: CIFDUS_clean_linker_0, # of connection points: 2
#     Edge 20, Type (0, 0), BuildingBlock: CIFDUS_clean_linker_0, # of connection points: 2
#     Edge 21, Type (0, 0), BuildingBlock: CIFDUS_clean_linker_0, # of connection points: 2
#     Edge 22, Type (0, 0), BuildingBlock: CIFDUS_clean_linker_0, # of connection points: 2
#     Edge 23, Type (0, 0), BuildingBlock: CIFDUS_clean_linker_0, # of connection points: 2
#     Edge 24, Type (0, 0), BuildingBlock: CIFDUS_clean_linker_0, # of connection points: 2
#     Edge 25, Type (0, 0), BuildingBlock: CIFDUS_clean_linker_0, # of connection points: 2
#     Edge 26, Type (0, 0), BuildingBlock: CIFDUS_clean_linker_0, # of connection points: 2
# Relax obj value: 0.290
# Max RMSD: 0.178
# Mean RMSD: 0.178
data_MOF--net-wni--node1-HICVOG_clean_sbu_0--edge1-CIFDUS_clean_linker_0
_symmetry_space_group_name_H-M    P1
_symmetry_Int_Tables_number       1
_symmetry_cell_setting            triclinic
loop_
_symmetry_equiv_pos_as_xyz
'x, y, z'
_cell_length_a     22.797351
_cell_length_b     23.108102
_cell_length_c     27.754129
_cell_angle_alpha  90.155646
_cell_angle_beta   88.620057
_cell_angle_gamma 120.29742
loop_
_atom_site_label
_atom_site_type_symbol
_atom_site_fract_x
_atom_site_fract_y
_atom_site_fract_z
_atom_type_partial_charge
Zn0 Zn 1.09591 0.45172 0.18015 0.0
C1 C 1.05931 0.46741 1.03995 0.0
N2 N 1.00579 0.47217 1.05723 0.0
C3 C 1.00776 0.46593 0.10568 0.0
N4 N 1.0609 0.4571 0.1172 0.0
N5 N 1.09395 0.46001 0.0766 0.0
C6 C 0.22241 0.36857 0.08759 0.0
O7 O 0.2281 0.38322 0.13355 0.0
O8 O 1.10629 0.53119 0.21602 0.0
Zn9 Zn 0.18897 0.4791 0.07543 0.0
N10 N 1.03411 0.36501 0.20846 0.0
C11 C 0.93397 0.25724 0.21113 0.0
C12 C 0.97384 0.32002 0.18899 0.0
C13 C 1.05717 0.34899 0.24771 0.0
N14 N 0.95654 0.24174 0.25128 0.0
C15 C 1.01805 0.28585 0.26954 0.0
O16 O 0.25523 0.53031 0.13151 0.0
C17 C 0.25193 0.51025 0.17481 0.0
O18 O 0.19404 0.46767 0.19311 0.0
H19 H 0.9568 0.33275 0.1568 0.0
H20 H 1.10524 0.38606 0.26235 0.0
C21 C 0.24154 0.5124 0.98356 0.0
C22 C 0.26817 0.54988 0.94131 0.0
C23 C 0.25736 0.63774 0.97685 0.0
C24 C 0.23359 0.60071 1.0198 0.0
N25 N 0.22675 0.53887 1.02195 0.0
N26 N 0.2752 0.61199 0.93884 0.0
H27 H 0.23105 0.46157 0.98592 0.0
C28 C 0.13963 0.58404 0.19033 0.0
O29 O 0.15028 0.57849 0.14434 0.0
O30 O 0.20089 0.3972 1.05949 0.0
H31 H 0.21941 0.6202 1.05061 0.0
H32 H 0.88538 0.22127 0.19663 0.0
H33 H 0.26275 0.68688 0.97401 0.0
Zn34 Zn 0.70483 0.74407 0.7385 0.0
C35 C 0.70437 0.56983 0.76749 0.0
N36 N 0.69893 0.56096 0.71906 0.0
C37 C 0.70671 0.61927 0.70127 0.0
N38 N 0.71546 0.66261 0.73818 0.0
N39 N 0.71596 0.63264 0.7789 0.0
C40 C 0.57958 0.57787 0.83768 0.0
O41 O 0.59706 0.61844 0.80031 0.0
O42 O 0.79466 0.83572 0.7256 0.0
Zn43 Zn 0.71058 0.6672 0.84392 0.0
N44 N 0.65067 0.72953 0.68369 0.0
C45 C 0.55803 0.66771 0.63198 0.0
C46 C 0.59022 0.67325 0.67546 0.0
C47 C 0.67976 0.77973 0.65098 0.0
N48 N 0.58653 0.7197 0.5998 0.0
C49 C 0.64676 0.77614 0.60873 0.0
O50 O 0.68839 0.74314 0.8606 0.0
C51 C 0.65991 0.77128 0.83983 0.0
O52 O 0.65344 0.76614 0.7941 0.0
H53 H 0.56831 0.63276 0.7017 0.0
H54 H 0.72879 0.82242 0.65779 0.0
C55 C 0.7977 0.72216 0.9226 0.0
C56 C 0.8586 0.74905 0.94779 0.0
C57 C 0.90578 0.71412 0.88481 0.0
C58 C 0.84588 0.68948 0.85935 0.0
N59 N 0.7928 0.69331 0.8791 0.0
N60 N 0.91083 0.74336 0.92825 0.0
H61 H 0.7542 0.724 0.93704 0.0
C62 C 0.81796 0.88564 0.7542 0.0
O63 O 0.79409 0.87574 0.79877 0.0
O64 O 0.624 0.58899 0.86903 0.0
H65 H 0.84171 0.66768 0.82417 0.0
H66 H 0.51037 0.62306 0.62426 0.0
H67 H 0.94825 0.71078 0.8699 0.0
Zn68 Zn 0.54269 0.09625 0.5192 0.0
C69 C 0.56826 0.12323 0.37339 0.0
N70 N 0.62615 0.1794 0.38605 0.0
C71 C 0.62328 0.1802 0.43488 0.0
N72 N 0.56426 0.12524 0.45152 0.0
N73 N 0.53029 0.08903 0.41368 0.0
C74 C 0.30388 0.95519 0.4153 0.0
O75 O 0.30805 0.95544 0.46242 0.0
O76 O 0.62734 0.09857 0.54254 0.0
Zn77 Zn 0.4505 0.99344 0.41865 0.0
N78 N 0.51663 0.15525 0.55077 0.0
C79 C 0.49947 0.24881 0.55212 0.0
C80 C 0.52285 0.21059 0.52849 0.0
C81 C 0.48574 0.13535 0.59475 0.0
N82 N 0.46889 0.22902 0.59641 0.0
C83 C 0.4603 0.17238 0.61803 0.0
O84 O 0.41744 0.93492 0.48208 0.0
C85 C 0.42598 0.94262 0.52731 0.0
O86 O 0.46895 1.00027 0.54299 0.0
H87 H 0.5459 0.22509 0.49282 0.0
H88 H 0.48138 0.09098 0.61138 0.0
C89 C 0.44532 0.91646 0.34134 0.0
C90 C 0.45694 0.87149 0.31536 0.0
C91 C 0.54822 0.89424 0.36587 0.0
C92 C 0.53253 0.93498 0.3942 0.0
N93 N 0.48134 0.94509 0.38094 0.0
N94 N 0.50893 0.86195 0.32765 0.0
H95 H 0.40466 0.92521 0.33205 0.0
C96 C 0.66032 0.08406 0.51173 0.0
O97 O 0.64201 0.07506 0.4667 0.0
O98 O 0.35849 0.976 0.38953 0.0
H99 H 0.56037 0.95791 0.42639 0.0
H100 H 0.50512 0.29356 0.53525 0.0
H101 H 0.58917 0.88599 0.37543 0.0
Zn102 Zn 0.5626 0.17674 1.03414 0.0
C103 C 0.57596 1.00523 1.02173 0.0
N104 N 0.57567 1.00646 0.07065 0.0
C105 C 0.56421 1.05717 0.08234 0.0
N106 N 0.5598 0.08796 1.04136 0.0
N107 N 0.56574 1.05455 1.00408 0.0
C108 C 0.67161 1.05557 0.89538 0.0
O109 O 0.69007 1.02169 0.86691 0.0
O110 O 0.472 0.17393 1.05231 0.0
Zn111 Zn 0.55697 1.07292 0.93597 0.0
N112 N 0.62642 0.23456 0.08065 0.0
C113 C 0.71915 0.26971 0.13322 0.0
C114 C 0.67852 0.22775 0.09675 0.0
C115 C 0.61501 0.28288 0.0979 0.0
N116 N 0.70679 0.31748 0.1512 0.0
C117 C 0.65591 0.3254 0.13389 0.0
O118 O 0.58764 0.17 0.90908 0.0
C119 C 0.60211 0.2276 0.9249 0.0
O120 O 0.59728 0.2351 0.97017 0.0
H121 H 0.68764 0.1895 0.0821 0.0
H122 H 0.57351 0.28739 0.08404 0.0
C123 C 0.44377 1.03871 0.88199 0.0
C124 C 0.37614 1.00366 0.8678 0.0
C125 C 0.34834 0.93034 0.9348 0.0
C126 C 0.41595 0.96618 0.94911 0.0
N127 N 0.46228 1.01923 0.9219 0.0
N128 N 0.32997 0.94939 0.89416 0.0
H129 H 0.48232 0.08033 0.86072 0.0
C130 C 0.44338 0.19552 1.02424 0.0
O131 O 0.46546 0.21014 0.9793 0.0
O132 O 0.60925 1.03962 0.89617 0.0
H133 H 0.43134 0.95151 0.98123 0.0
H134 H 0.76013 0.26436 0.1471 0.0
H135 H 0.31093 0.88745 0.95562 0.0
Zn136 Zn 1.0125 0.4174 0.71914 0.0
C137 C 0.18918 0.59602 0.68581 0.0
N138 N 0.19432 0.60236 0.73423 0.0
C139 C 0.14214 0.54344 0.7519 0.0
N140 N 1.10439 0.50243 0.71542 0.0
N141 N 0.13442 0.53506 0.67462 0.0
C142 C 1.08413 0.61991 0.61401 0.0
O143 O 1.06657 0.5945 0.65774 0.0
O144 O 1.0174 0.33013 0.72848 0.0
Zn145 Zn 1.09564 0.50708 0.61102 0.0
N146 N 0.97294 0.42749 0.77823 0.0
C147 C 0.93822 0.48502 0.83249 0.0
C148 C 0.95998 0.47801 0.78642 0.0
C149 C 0.96462 0.38381 0.81364 0.0
N150 N 0.93037 0.44118 0.86818 0.0
C151 C 0.94406 0.39091 0.86015 0.0
O152 O 0.99319 0.43946 0.59835 0.0
C153 C 0.93763 0.3993 0.62042 0.0
O154 O 0.93803 0.39113 0.666 0.0
H155 H 0.96815 0.51331 0.75788 0.0
H156 H 0.97335 0.34332 0.80503 0.0
C157 C 1.10798 0.42267 0.54459 0.0
C158 C 0.12991 0.37971 0.52688 0.0
C159 C 0.22227 0.42847 0.5799 0.0
C160 C 0.19835 0.46896 0.59891 0.0
N161 N 0.1423 0.46607 0.58015 0.0
N162 N 0.18752 0.38468 0.54439 0.0
H163 H 1.0632 0.42111 0.53091 0.0
C164 C 0.99137 0.28012 0.69996 0.0
O165 O 0.97059 0.28732 0.65787 0.0
O166 O 1.10335 0.59125 0.58317 0.0
H167 H 0.22343 0.50128 0.62895 0.0
H168 H 0.92787 0.52504 0.83986 0.0
H169 H 0.26724 0.43078 0.59397 0.0
Zn170 Zn 0.68283 0.64446 0.26955 0.0
C171 C 0.6314 0.60873 0.41123 0.0
N172 N 0.56779 0.59119 0.39734 0.0
C173 C 0.57308 0.59847 0.34865 0.0
N174 N 0.63787 0.61842 0.33314 0.0
N175 N 0.67386 0.62321 0.37151 0.0
C176 C 0.90879 0.72968 0.3497 0.0
O177 O 0.90533 0.69208 0.3131 0.0
O178 O 0.6221 0.65738 0.22336 0.0
Zn179 Zn 0.76207 0.62394 0.36328 0.0
N180 N 0.76182 0.73202 0.27215 0.0
C181 C 0.84776 0.83555 0.30363 0.0
C182 C 0.78658 0.77452 0.30994 0.0
C183 C 0.79457 0.74807 0.22875 0.0
N184 N 0.88092 0.8514 0.25985 0.0
C185 C 0.85516 0.80862 0.22224 0.0
O186 O 0.77912 0.57946 0.30246 0.0
C187 C 0.76392 0.57042 0.25796 0.0
O188 O 0.72447 0.58933 0.24118 0.0
H189 H 0.75988 0.76104 0.3445 0.0
H190 H 0.77324 0.71319 0.1993 0.0
C191 C 0.79061 0.60581 0.45383 0.0
C192 C 0.78941 0.57407 0.49643 0.0
C193 C 0.70968 0.46958 0.46323 0.0
C194 C 0.71364 0.50182 0.41965 0.0
N195 N 0.75497 0.56936 0.41613 0.0
N196 N 0.74863 0.50629 0.50045 0.0
H197 H 0.82015 0.6597 0.45064 0.0
C198 C 0.5925 0.6267 0.1854 0.0
O199 O 0.56077 0.64971 0.15981 0.0
O200 O 0.85382 0.71508 0.3733 0.0
H201 H 0.68334 0.47386 0.38948 0.0
H202 H 0.86875 0.86987 0.33334 0.0
H203 H 0.67701 0.41589 0.46715 0.0
H204 H 0.53961 0.66714 0.2808 0.0
H205 H 0.46144 0.47419 0.34912 0.0
H206 H 0.35618 0.43048 0.30468 0.0
H207 H 0.28444 0.44556 0.2451 0.0
H208 H 0.3667 0.63489 0.17041 0.0
H209 H 0.47029 0.68039 0.21726 0.0
C210 C 0.50065 0.61489 0.28477 0.0
C211 C 0.51072 0.57362 0.31746 0.0
C212 C 0.43969 0.58915 0.25779 0.0
C213 C 0.45673 0.50717 0.32384 0.0
C214 C 0.39599 0.48196 0.29828 0.0
C215 C 0.32503 0.49677 0.23887 0.0
C216 C 0.3164 0.53655 0.20391 0.0
C217 C 0.38654 0.5222 0.26495 0.0
C218 C 0.37081 0.60267 0.19669 0.0
C219 C 0.4306 0.62887 0.22366 0.0
H220 H 0.70558 0.83789 0.92718 0.0
H221 H 0.55605 0.79567 0.81988 0.0
H222 H 0.51328 0.85766 0.86655 0.0
H223 H 0.51839 0.92655 0.93844 0.0
H224 H 0.67624 0.97819 1.04056 0.0
H225 H 0.71348 0.90989 0.99685 0.0
C226 C 0.66348 0.84194 0.91383 0.0
C227 C 0.63435 0.81087 0.86941 0.0
C228 C 0.63997 0.87992 0.94053 0.0
C229 C 0.58018 0.81835 0.85338 0.0
C230 C 0.55531 0.85397 0.88042 0.0
C231 C 0.56139 0.92362 0.95101 0.0
C232 C 0.59525 0.96017 0.99278 0.0
C233 C 0.58477 0.88544 0.92413 0.0
C234 C 0.64941 0.95252 1.00853 0.0
C235 C 0.67114 0.91325 0.98321 0.0
H236 H 0.3529 0.80446 0.51067 0.0
H237 H 0.40515 0.94743 0.62517 0.0
H238 H 0.33925 0.85613 0.68296 0.0
H239 H 0.26436 0.73389 0.70223 0.0
H240 H 0.21809 0.592 0.58819 0.0
H241 H 0.28283 0.68248 0.53076 0.0
C242 C 0.35004 0.816 0.54823 0.0
C243 C 0.38477 0.88421 0.56268 0.0
C244 C 0.31238 0.76236 0.58216 0.0
C245 C 0.37989 0.89646 0.61213 0.0
C246 C 0.34176 0.84375 0.64558 0.0
C247 C 0.26846 0.72231 0.66487 0.0
C248 C 0.23372 0.65393 0.65037 0.0
C249 C 0.30751 0.77615 0.63124 0.0
C250 C 0.24202 0.64221 0.60147 0.0
C251 C 0.2796 0.69488 0.56804 0.0
H252 H 0.65405 0.4335 0.75011 0.0
H253 H 0.72441 0.5738 0.86642 0.0
H254 H 0.69996 0.48499 0.92342 0.0
H255 H 0.65641 0.36446 0.94248 0.0
H256 H 0.58954 0.223 0.82615 0.0
H257 H 0.61426 0.31298 0.76862 0.0
C258 C 0.66438 0.44519 0.78788 0.0
C259 C 0.69084 0.51281 0.80303 0.0
C260 C 0.65041 0.39214 0.82132 0.0
C261 C 0.70376 0.52442 0.85254 0.0
C262 C 0.68957 0.47256 0.88573 0.0
C263 C 0.64741 0.35299 0.90455 0.0
C264 C 0.62091 0.28559 0.88951 0.0
C265 C 0.66252 0.40587 0.87085 0.0
C266 C 0.61015 0.27343 0.83965 0.0
C267 C 0.62423 0.32537 0.80635 0.0
H268 H 0.63997 0.21097 0.53564 0.0
H269 H 0.75436 0.26135 0.40143 0.0
H270 H 0.85834 0.33295 0.4443 0.0
H271 H 0.92006 0.38002 0.52089 0.0
H272 H 0.80528 0.32457 0.65538 0.0
H273 H 0.70023 0.25679 0.61185 0.0
C274 C 0.68667 0.23692 0.51517 0.0
C275 C 0.68643 0.22814 0.46429 0.0
C276 C 0.74792 0.27791 0.54069 0.0
C277 C 0.7504 0.26518 0.44012 0.0
C278 C 0.81092 0.3066 0.4649 0.0
C279 C 0.87215 0.35364 0.54094 0.0
C280 C 0.87214 0.35886 0.59218 0.0
C281 C 0.81079 0.31318 0.51538 0.0
C282 C 0.80842 0.32268 0.61647 0.0
C283 C 0.74769 0.2835 0.59133 0.0
H284 H 0.91648 0.5081 0.08621 0.0
H285 H 0.98885 0.44461 0.20516 0.0
H286 H 0.92162 0.46959 0.26141 0.0
H287 H 0.84384 0.51408 0.27848 0.0
H288 H 0.76654 0.57215 0.15894 0.0
H289 H 0.83157 0.54361 0.10253 0.0
C290 C 0.91765 0.4993 0.12441 0.0
C291 C 0.96101 0.47615 0.14077 0.0
C292 C 0.8767 0.51267 0.1571 0.0
C293 C 0.95937 0.46444 0.19068 0.0
C294 C 0.91977 0.47832 0.22328 0.0
C295 C 0.84051 0.51995 0.24009 0.0
C296 C 0.7993 0.54544 0.22368 0.0
C297 C 0.87874 0.50336 0.20715 0.0
C298 C 0.79664 0.55232 0.17337 0.0
C299 C 0.83452 0.53632 0.14076 0.0
H300 H 0.37299 0.24096 0.97348 0.0
H301 H 0.40323 0.19551 0.11835 0.0
H302 H 0.33364 0.24056 0.15029 0.0
H303 H 0.27115 0.30046 0.13761 0.0
H304 H 0.24207 0.34699 0.99273 0.0
H305 H 0.30382 0.29381 0.96052 0.0
C306 C 0.36375 0.24004 1.01205 0.0
C307 C 0.39374 0.21476 1.04337 0.0
C308 C 0.32405 0.2667 1.03028 0.0
C309 C 0.38085 0.21421 0.09325 0.0
C310 C 0.34121 0.24035 0.1116 0.0
C311 C 0.27742 0.29824 0.09892 0.0
C312 C 0.25185 0.32813 0.06777 0.0
C313 C 0.31353 0.26781 0.08054 0.0
C314 C 0.26077 0.32449 1.01772 0.0
C315 C 0.29644 0.2942 0.99921 0.0
H316 H 0.94789 0.1667 0.64615 0.0
H317 H 0.99161 0.23755 0.79224 0.0
H318 H 0.94641 0.12264 0.82136 0.0
H319 H 0.88608 1.00084 0.80623 0.0
H320 H 0.84372 0.93006 0.66006 0.0
H321 H 0.8969 1.04557 0.63036 0.0
C322 C 0.94851 0.15727 0.68434 0.0
C323 C 0.9732 0.21133 0.71686 0.0
C324 C 0.92223 0.09067 0.70096 0.0
C325 C 0.97346 0.19755 0.7662 0.0
C326 C 0.94717 0.13154 0.78297 0.0
C327 C 0.88943 1.01057 0.76777 0.0
C328 C 0.86047 0.95615 0.73557 0.0
C329 C 0.92027 0.07753 0.75082 0.0
C330 C 0.86561 0.97035 0.68585 0.0
C331 C 0.89582 1.03668 0.66878 0.0
H332 H 1.03122 0.78358 0.30078 0.0
H333 H 0.94234 0.79104 0.43798 0.0
H334 H 1.05597 0.86372 0.46927 0.0
H335 H 0.18114 0.91977 0.45942 0.0
H336 H 0.26993 0.9123 0.32214 0.0
H337 H 0.15631 0.8457 0.28932 0.0
C338 C 1.03649 0.80174 0.33739 0.0
C339 C 0.97758 0.7815 0.36686 0.0
C340 C 1.10237 0.84359 0.35527 0.0
C341 C 0.98611 0.80593 0.41418 0.0
C342 C 1.05138 0.84732 0.43224 0.0
C343 C 0.17588 0.90441 0.42208 0.0
C344 C 0.23481 0.92164 0.39339 0.0
C345 C 1.10997 0.86575 0.40337 0.0
C346 C 0.22619 0.90077 0.3451 0.0
C347 C 0.16093 0.86219 0.32634 0.0
H348 H 0.18515 0.3488 0.45139 0.0
H349 H 0.99232 0.30466 0.5152 0.0
H350 H 0.93549 0.25316 0.44059 0.0
H351 H 0.94624 0.24607 0.35291 0.0
H352 H 0.14066 0.2987 0.28798 0.0
H353 H 0.19092 0.31885 0.36739 0.0
C354 C 0.13041 0.32599 0.44936 0.0
C355 C 1.09338 0.3329 0.48772 0.0
C356 C 1.09845 0.2982 0.40594 0.0
C357 C 1.02229 0.30227 0.48519 0.0
C358 C 0.98969 0.27253 0.44266 0.0
C359 C 0.99878 0.25905 0.35651 0.0
C360 C 1.04023 0.27222 0.31519 0.0
C361 C 1.02798 0.27397 0.40198 0.0
C362 C 1.1083 0.28914 0.31973 0.0
C363 C 0.13711 0.30124 0.365 0.0
H364 H 0.93588 0.7524 1.02188 0.0
H365 H 0.79998 0.82143 0.98003 0.0
H366 H 0.79929 0.86003 0.06151 0.0
H367 H 0.82271 0.85786 0.14708 0.0
H368 H 0.95424 0.78516 0.19017 0.0
H369 H 0.97367 0.76684 0.10568 0.0
C370 C 0.90708 0.77695 1.03037 0.0
C371 C 0.86593 0.78142 0.99529 0.0
C372 C 0.90675 0.79907 0.07753 0.0
C373 C 0.8297 0.81437 1.00674 0.0
C374 C 0.82987 0.8373 1.05329 0.0
C375 C 0.85813 0.84106 0.13755 0.0
C376 C 0.88801 0.82388 0.17421 0.0
C377 C 0.86619 0.82769 0.08932 0.0
C378 C 0.93218 0.80016 0.16212 0.0
C379 C 0.94219 0.78856 0.11396 0.0
H380 H 0.4079 0.12764 0.83892 0.0
H381 H 0.30684 0.92143 0.79425 0.0
H382 H 0.31306 0.95677 0.71029 0.0
H383 H 0.36925 1.04672 0.64961 0.0
H384 H 0.47924 0.25298 0.69445 0.0
H385 H 0.4471 0.21759 0.77857 0.0
C386 C 0.38549 0.09052 0.81082 0.0
C387 C 0.35836 1.02232 0.82211 0.0
C388 C 0.39223 0.11141 0.76278 0.0
C389 C 0.32819 0.97423 0.78605 0.0
C390 C 0.33257 0.9945 0.7381 0.0
C391 C 0.38521 0.08386 0.67783 0.0
C392 C 0.42817 0.15211 0.66639 0.0
C393 C 0.36806 1.063 0.72595 0.0
C394 C 0.44675 0.20011 0.70273 0.0
C395 C 0.42866 0.17988 0.75073 0.0
H396 H 0.31992 0.46742 0.95289 0.0
H397 H 0.28708 0.5826 0.84527 0.0
H398 H 0.37205 0.57829 0.79234 0.0
H399 H 0.47604 0.57322 0.79001 0.0
H400 H 0.52046 0.47997 0.90729 0.0
H401 H 0.40665 0.43932 0.94183 0.0
C402 C 0.32807 0.48905 0.91712 0.0
C403 C 0.29853 0.52728 0.90361 0.0
C404 C 0.37979 0.49043 0.88884 0.0
C405 C 0.3108 0.55469 0.85693 0.0
C406 C 0.35933 0.55223 0.8268 0.0
C407 C 0.46024 0.54245 0.82249 0.0
C408 C 0.5072 0.5325 0.84784 0.0
C409 C 0.39791 0.52534 0.84437 0.0
C410 C 0.48556 0.49022 0.88843 0.0
C411 C 0.42082 0.46745 0.90818 0.0
H412 H 0.68037 0.99402 0.46402 0.0
H413 H 0.72673 0.10564 0.59642 0.0
H414 H 0.74438 1.02139 0.63581 0.0
H415 H 0.70895 0.90425 0.63868 0.0
H416 H 0.64144 0.78301 0.51072 0.0
H417 H 0.666 0.88253 0.46334 0.0
C418 C 0.6964 1.00108 0.50112 0.0
C419 C 0.6994 1.05399 0.52824 0.0
C420 C 0.69907 0.94932 0.52456 0.0
C421 C 0.72237 1.06401 0.57554 0.0
C422 C 0.73149 1.01551 0.59806 0.0
C423 C 0.70233 0.8995 0.60004 0.0
C424 C 0.67295 0.83627 0.57806 0.0
C425 C 0.71397 0.95564 0.57399 0.0
C426 C 0.66292 0.83116 0.52829 0.0
C427 C 0.67736 0.88794 0.50135 0.0
H428 H 0.26765 0.66942 0.16169 0.0
H429 H 1.11683 0.63537 0.27234 0.0
H430 H 0.20353 0.72811 0.31897 0.0
H431 H 0.32276 0.8067 0.3322 0.0
H432 H 0.47588 0.8336 0.2257 0.0
H433 H 0.38679 0.75341 0.17294 0.0
C434 C 0.25341 0.68342 0.19546 0.0
C435 C 0.18633 0.64647 0.21384 0.0
C436 C 0.30382 0.73364 0.22288 0.0
C437 C 0.16841 0.66374 0.25788 0.0
C438 C 0.21785 0.71607 0.28448 0.0
C439 C 0.33661 0.79612 0.29695 0.0
C440 C 0.40527 0.82621 0.28213 0.0
C441 C 0.28586 0.74952 0.26796 0.0
C442 C 0.42306 0.81067 0.23738 0.0
C443 C 0.37234 0.76525 0.20744 0.0
H444 H 0.64543 0.41625 0.08063 0.0
H445 H 0.63905 0.35182 0.22718 0.0
H446 H 0.60958 0.43478 0.25606 0.0
H447 H 0.58815 0.52721 0.23898 0.0
H448 H 0.60611 0.59774 0.09275 0.0
H449 H 0.62558 0.50869 0.06371 0.0
C450 C 0.63749 0.42053 0.11888 0.0
C451 C 0.64393 0.37838 0.15193 0.0
C452 C 0.62168 0.46849 0.13494 0.0
C453 C 0.63459 0.38441 0.20138 0.0
C454 C 0.61709 0.43112 0.21771 0.0
C455 C 0.59666 0.52293 0.20082 0.0
C456 C 0.59777 0.56954 0.16807 0.0
C457 C 0.61077 0.47357 0.18477 0.0
C458 C 0.60619 0.56269 0.11857 0.0
C459 C 0.61774 0.51222 0.10204 0.0
H460 H 0.84818 0.35109 0.93168 0.0
H461 H 0.99946 0.3091 0.87293 0.0
H462 H 0.927 0.19099 0.89218 0.0
H463 H 0.80714 0.10091 0.8961 0.0
H464 H 0.6584 0.144 0.95706 0.0
H465 H 0.74321 0.25925 0.96792 0.0
C466 C 0.86695 0.31686 0.92526 0.0
C467 C 0.92562 0.33724 0.89655 0.0
C468 C 0.82414 0.24849 0.93513 0.0
C469 C 0.95151 0.29341 0.89166 0.0
C470 C 0.90998 0.22552 0.90247 0.0
C471 C 0.79328 0.13486 0.91302 0.0
C472 C 0.72449 0.11499 0.9209 0.0
C473 C 0.84333 0.20206 0.91914 0.0
C474 C 0.70893 0.15849 0.94613 0.0
C475 C 0.75829 0.22505 0.95317 0.0
H476 H 0.98676 0.63452 0.65831 0.0
H477 H 0.12153 0.70018 0.53314 0.0
H478 H 1.03946 0.71646 0.48891 0.0
H479 H 0.91924 0.66717 0.47731 0.0
H480 H 0.77587 0.56378 0.59462 0.0
H481 H 0.86951 0.60457 0.65059 0.0
C482 C 0.99918 0.65447 0.62178 0.0
C483 C 1.05778 0.66235 0.59766 0.0
C484 C 0.94803 0.65338 0.59478 0.0
C485 C 1.07522 0.69141 0.55151 0.0
C486 C 1.02788 0.69964 0.52617 0.0
C487 C 0.90804 0.65587 0.51548 0.0
C488 C 0.84102 0.61201 0.53212 0.0
C489 C 0.96188 0.67354 0.54586 0.0
C490 C 0.82729 0.59692 0.58133 0.0
C491 C 0.8808 0.62016 0.61308 0.0
H492 H 0.13122 0.44592 0.81732 0.0
H493 H 1.11537 0.62353 0.80772 0.0
H494 H 1.08933 0.61676 0.89415 0.0
H495 H 1.06894 0.55997 0.97351 0.0
H496 H 1.08872 0.38504 0.98555 0.0
H497 H 1.11591 0.3916 0.89875 0.0
C498 C 0.12147 0.48275 0.83411 0.0
C499 C 0.1233 0.53421 0.80514 0.0
C500 C 1.10759 0.47932 0.88491 0.0
C501 C 1.11294 0.58266 0.82841 0.0
C502 C 1.09816 0.57891 0.87815 0.0
C503 C 1.07913 0.52316 0.95717 0.0
C504 C 1.07765 0.47258 0.9867 0.0
C505 C 1.09484 0.52732 0.90689 0.0
C506 C 1.09034 0.42508 0.96429 0.0
C507 C 1.10566 0.42871 0.91435 0.0
H508 H 0.62462 0.52725 0.63367 0.0
H509 H 0.78093 0.73414 0.64465 0.0
H510 H 0.77515 0.74985 0.55758 0.0
H511 H 0.72326 0.70487 0.47635 0.0
H512 H 0.56763 0.49703 0.46753 0.0
H513 H 0.57591 0.48211 0.55375 0.0
C514 C 0.65738 0.57609 0.61727 0.0
C515 C 0.70196 0.62993 0.64716 0.0
C516 C 0.65412 0.58462 0.56647 0.0
C517 C 0.74468 0.69202 0.62384 0.0
C518 C 0.74166 0.70088 0.5735 0.0
C519 C 0.69187 0.65601 0.49307 0.0
C520 C 0.6457 0.60157 0.46397 0.0
C521 C 0.6963 0.64767 0.54407 0.0
C522 C 0.60442 0.5396 0.48776 0.0
C523 C 0.60892 0.53105 0.5376 0.0
H524 H 0.60321 1.02069 0.16554 0.0
H525 H 0.50768 0.13044 0.12001 0.0
H526 H 0.49677 0.15742 0.2039 0.0
H527 H 0.51584 0.15144 0.29241 0.0
H528 H 0.61495 1.04451 0.33648 0.0
H529 H 0.62056 1.01328 0.25296 0.0
C530 C 0.57988 1.05058 0.17365 0.0
C531 C 0.55788 0.07474 0.13492 0.0
C532 C 0.57274 1.06511 0.22289 0.0
C533 C 0.52721 0.11266 0.14768 0.0
C534 C 0.52021 0.12753 0.19629 0.0
C535 C 0.537 0.11975 0.28392 0.0
C536 C 0.5609 0.09674 0.32217 0.0
C537 C 0.54274 0.10411 0.23454 0.0
C538 C 0.59182 1.05918 0.30913 0.0
C539 C 0.59642 1.04249 0.26079 0.0
loop_
_geom_bond_atom_site_label_1
_geom_bond_atom_site_label_2
_geom_bond_distance
_geom_bond_site_symmetry_2
_ccdc_geom_bond_type
Zn0 N4 2.020 . S
Zn0 O8 2.019 . S
Zn0 N10 2.119 . S
Zn0 O18 1.975 . S
C1 N2 1.334 . S
C1 N5 1.336 . S
N2 C1 1.334 . S
N2 C3 1.334 . S
C3 N2 1.334 . S
C3 N4 1.336 . S
N4 Zn0 2.020 . S
N4 C3 1.336 . S
N4 N5 1.354 . S
N5 C1 1.336 . S
N5 N4 1.354 . S
N5 Zn9 2.020 . S
C6 O7 1.244 . S
C6 O30 1.257 1_554 S
O7 C6 1.244 . S
O8 Zn0 2.019 . S
O8 C28 1.257 . S
Zn9 N5 2.020 . S
Zn9 O16 1.975 . S
Zn9 N25 2.119 . S
Zn9 O30 2.019 1_554 S
N10 Zn0 2.119 . S
N10 C12 1.334 . S
N10 C13 1.328 . S
C11 C12 1.391 . S
C11 N14 1.329 . S
C11 H32 0.930 . S
C12 N10 1.334 . S
C12 C11 1.391 . S
C12 H19 0.930 . S
C13 N10 1.328 . S
C13 C15 1.392 . S
C13 H20 0.930 . S
N14 C11 1.329 . S
N14 C15 1.331 . S
C15 C13 1.392 . S
C15 N14 1.331 . S
O16 Zn9 1.975 . S
O16 C17 1.252 . S
C17 O16 1.252 . S
C17 O18 1.252 . S
O18 Zn0 1.975 . S
O18 C17 1.252 . S
H19 C12 0.930 . S
H20 C13 0.930 . S
C21 C22 1.392 . S
C21 N25 1.328 1_556 S
C21 H27 0.930 . S
C22 C21 1.392 . S
C22 N26 1.331 . S
C23 C24 1.400 . S
C23 N26 1.311 1_554 S
C23 H33 0.939 . S
C24 C23 1.400 . S
C24 N25 1.334 . S
C24 H31 0.930 . S
N25 Zn9 2.119 . S
N25 C21 1.328 1_554 S
N25 C24 1.334 . S
N26 C22 1.331 . S
N26 C23 1.311 1_556 S
H27 C21 0.930 . S
C28 O8 1.257 . S
C28 O29 1.244 . S
O29 C28 1.244 . S
O30 C6 1.257 1_556 S
O30 Zn9 2.019 1_556 S
H31 C24 0.930 . S
H32 C11 0.930 . S
H33 C23 0.939 . S
Zn34 N38 2.020 . S
Zn34 O42 2.019 . S
Zn34 N44 2.119 . S
Zn34 O52 1.975 . S
C35 N36 1.334 . S
C35 N39 1.336 . S
N36 C35 1.334 . S
N36 C37 1.334 . S
C37 N36 1.334 . S
C37 N38 1.336 . S
N38 Zn34 2.020 . S
N38 C37 1.336 . S
N38 N39 1.354 . S
N39 C35 1.336 . S
N39 N38 1.354 . S
N39 Zn43 2.020 . S
C40 O41 1.244 . S
C40 O64 1.257 . S
O41 C40 1.244 . S
O42 Zn34 2.019 . S
O42 C62 1.257 . S
Zn43 N39 2.020 . S
Zn43 O50 1.975 . S
Zn43 N59 2.119 . S
Zn43 O64 2.019 . S
N44 Zn34 2.119 . S
N44 C46 1.334 . S
N44 C47 1.328 . S
C45 C46 1.391 . S
C45 N48 1.329 . S
C45 H66 0.930 . S
C46 N44 1.334 . S
C46 C45 1.391 . S
C46 H53 0.930 . S
C47 N44 1.328 . S
C47 C49 1.392 . S
C47 H54 0.930 . S
N48 C45 1.329 . S
N48 C49 1.331 . S
C49 C47 1.392 . S
C49 N48 1.331 . S
O50 Zn43 1.975 . S
O50 C51 1.252 . S
C51 O50 1.252 . S
C51 O52 1.252 . S
O52 Zn34 1.975 . S
O52 C51 1.252 . S
H53 C46 0.930 . S
H54 C47 0.930 . S
C55 C56 1.392 . S
C55 N59 1.328 . S
C55 H61 0.930 . S
C56 C55 1.392 . S
C56 N60 1.331 . S
C57 C58 1.391 . S
C57 N60 1.329 . S
C57 H67 0.930 . S
C58 C57 1.391 . S
C58 N59 1.334 . S
C58 H65 0.930 . S
N59 Zn43 2.119 . S
N59 C55 1.328 . S
N59 C58 1.334 . S
N60 C56 1.331 . S
N60 C57 1.329 . S
H61 C55 0.930 . S
C62 O42 1.257 . S
C62 O63 1.244 . S
O63 C62 1.244 . S
O64 C40 1.257 . S
O64 Zn43 2.019 . S
H65 C58 0.930 . S
H66 C45 0.930 . S
H67 C57 0.930 . S
Zn68 N72 2.020 . S
Zn68 O76 2.019 . S
Zn68 N78 2.119 . S
Zn68 O86 1.975 . S
C69 N70 1.334 . S
C69 N73 1.336 . S
N70 C69 1.334 . S
N70 C71 1.334 . S
C71 N70 1.334 . S
C71 N72 1.336 . S
N72 Zn68 2.020 . S
N72 C71 1.336 . S
N72 N73 1.354 . S
N73 C69 1.336 . S
N73 N72 1.354 . S
N73 Zn77 2.020 . S
C74 O75 1.244 . S
C74 O98 1.257 . S
O75 C74 1.244 . S
O76 Zn68 2.019 . S
O76 C96 1.257 . S
Zn77 N73 2.020 . S
Zn77 O84 1.975 . S
Zn77 N93 2.119 . S
Zn77 O98 2.019 . S
N78 Zn68 2.119 . S
N78 C80 1.334 . S
N78 C81 1.328 . S
C79 C80 1.391 . S
C79 N82 1.329 . S
C79 H100 0.930 . S
C80 N78 1.334 . S
C80 C79 1.391 . S
C80 H87 0.930 . S
C81 N78 1.328 . S
C81 C83 1.392 . S
C81 H88 0.930 . S
N82 C79 1.329 . S
N82 C83 1.331 . S
C83 C81 1.392 . S
C83 N82 1.331 . S
O84 Zn77 1.975 . S
O84 C85 1.252 . S
C85 O84 1.252 . S
C85 O86 1.252 . S
O86 Zn68 1.975 . S
O86 C85 1.252 . S
H87 C80 0.930 . S
H88 C81 0.930 . S
C89 C90 1.392 . S
C89 N93 1.328 . S
C89 H95 0.930 . S
C90 C89 1.392 . S
C90 N94 1.331 . S
C91 C92 1.391 . S
C91 N94 1.329 . S
C91 H101 0.930 . S
C92 C91 1.391 . S
C92 N93 1.334 . S
C92 H99 0.930 . S
N93 Zn77 2.119 . S
N93 C89 1.328 . S
N93 C92 1.334 . S
N94 C90 1.331 . S
N94 C91 1.329 . S
H95 C89 0.930 . S
C96 O76 1.257 . S
C96 O97 1.244 . S
O97 C96 1.244 . S
O98 C74 1.257 . S
O98 Zn77 2.019 . S
H99 C92 0.930 . S
H100 C79 0.930 . S
H101 C91 0.930 . S
Zn102 N106 2.020 . S
Zn102 O110 2.019 1_556 S
Zn102 N112 2.119 . S
Zn102 O120 1.975 . S
C103 N104 1.334 . S
C103 N107 1.336 . S
N104 C103 1.334 . S
N104 C105 1.334 . S
C105 N104 1.334 . S
C105 N106 1.336 . S
N106 Zn102 2.020 . S
N106 C105 1.336 . S
N106 N107 1.354 . S
N107 C103 1.336 . S
N107 N106 1.354 . S
N107 Zn111 2.020 . S
C108 O109 1.244 . S
C108 O132 1.257 . S
O109 C108 1.244 . S
O110 Zn102 2.019 1_554 S
O110 C130 1.257 1_554 S
Zn111 N107 2.020 . S
Zn111 O118 1.975 . S
Zn111 N127 2.119 . S
Zn111 O132 2.019 . S
N112 Zn102 2.119 . S
N112 C114 1.334 . S
N112 C115 1.328 1_556 S
C113 C114 1.400 . S
C113 N116 1.311 1_556 S
C113 H134 0.939 . S
C114 N112 1.334 . S
C114 C113 1.400 . S
C114 H121 0.930 . S
C115 N112 1.328 1_554 S
C115 C117 1.392 . S
C115 H122 0.930 . S
N116 C113 1.311 1_554 S
N116 C117 1.331 . S
C117 C115 1.392 . S
C117 N116 1.331 . S
O118 Zn111 1.975 . S
O118 C119 1.252 . S
C119 O118 1.252 . S
C119 O120 1.252 . S
O120 Zn102 1.975 . S
O120 C119 1.252 . S
H121 C114 0.930 . S
H122 C115 0.930 . S
C123 C124 1.392 . S
C123 N127 1.328 . S
C123 H129 0.930 . S
C124 C123 1.392 . S
C124 N128 1.331 . S
C125 C126 1.391 . S
C125 N128 1.329 . S
C125 H135 0.930 . S
C126 C125 1.391 . S
C126 N127 1.334 . S
C126 H133 0.930 . S
N127 Zn111 2.119 . S
N127 C123 1.328 . S
N127 C126 1.334 . S
N128 C124 1.331 . S
N128 C125 1.329 . S
H129 C123 0.930 . S
C130 O110 1.257 1_556 S
C130 O131 1.244 . S
O131 C130 1.244 . S
O132 C108 1.257 . S
O132 Zn111 2.019 . S
H133 C126 0.930 . S
H134 C113 0.939 . S
H135 C125 0.930 . S
Zn136 N140 2.020 . S
Zn136 O144 2.019 . S
Zn136 N146 2.119 . S
Zn136 O154 1.975 . S
C137 N138 1.334 . S
C137 N141 1.336 . S
N138 C137 1.334 . S
N138 C139 1.334 . S
C139 N138 1.334 . S
C139 N140 1.336 . S
N140 Zn136 2.020 . S
N140 C139 1.336 . S
N140 N141 1.354 . S
N141 C137 1.336 . S
N141 N140 1.354 . S
N141 Zn145 2.020 . S
C142 O143 1.244 . S
C142 O166 1.257 . S
O143 C142 1.244 . S
O144 Zn136 2.019 . S
O144 C164 1.257 . S
Zn145 N141 2.020 . S
Zn145 O152 1.975 . S
Zn145 N161 2.119 . S
Zn145 O166 2.019 . S
N146 Zn136 2.119 . S
N146 C148 1.334 . S
N146 C149 1.328 . S
C147 C148 1.391 . S
C147 N150 1.329 . S
C147 H168 0.930 . S
C148 N146 1.334 . S
C148 C147 1.391 . S
C148 H155 0.930 . S
C149 N146 1.328 . S
C149 C151 1.392 . S
C149 H156 0.930 . S
N150 C147 1.329 . S
N150 C151 1.331 . S
C151 C149 1.392 . S
C151 N150 1.331 . S
O152 Zn145 1.975 . S
O152 C153 1.252 . S
C153 O152 1.252 . S
C153 O154 1.252 . S
O154 Zn136 1.975 . S
O154 C153 1.252 . S
H155 C148 0.930 . S
H156 C149 0.930 . S
C157 C158 1.392 . S
C157 N161 1.328 . S
C157 H163 0.930 . S
C158 C157 1.392 . S
C158 N162 1.331 . S
C159 C160 1.391 . S
C159 N162 1.329 . S
C159 H169 0.930 . S
C160 C159 1.391 . S
C160 N161 1.334 . S
C160 H167 0.930 . S
N161 Zn145 2.119 . S
N161 C157 1.328 . S
N161 C160 1.334 . S
N162 C158 1.331 . S
N162 C159 1.329 . S
H163 C157 0.930 . S
C164 O144 1.257 . S
C164 O165 1.244 . S
O165 C164 1.244 . S
O166 C142 1.257 . S
O166 Zn145 2.019 . S
H167 C160 0.930 . S
H168 C147 0.930 . S
H169 C159 0.930 . S
Zn170 N174 2.020 . S
Zn170 O178 2.019 . S
Zn170 N180 2.119 . S
Zn170 O188 1.975 . S
C171 N172 1.334 . S
C171 N175 1.336 . S
N172 C171 1.334 . S
N172 C173 1.334 . S
C173 N172 1.334 . S
C173 N174 1.336 . S
N174 Zn170 2.020 . S
N174 C173 1.336 . S
N174 N175 1.354 . S
N175 C171 1.336 . S
N175 N174 1.354 . S
N175 Zn179 2.020 . S
C176 O177 1.244 . S
C176 O200 1.257 . S
O177 C176 1.244 . S
O178 Zn170 2.019 . S
O178 C198 1.257 . S
Zn179 N175 2.020 . S
Zn179 O186 1.975 . S
Zn179 N195 2.119 . S
Zn179 O200 2.019 . S
N180 Zn170 2.119 . S
N180 C182 1.334 . S
N180 C183 1.328 . S
C181 C182 1.391 . S
C181 N184 1.329 . S
C181 H202 0.930 . S
C182 N180 1.334 . S
C182 C181 1.391 . S
C182 H189 0.930 . S
C183 N180 1.328 . S
C183 C185 1.392 . S
C183 H190 0.930 . S
N184 C181 1.329 . S
N184 C185 1.331 . S
C185 C183 1.392 . S
C185 N184 1.331 . S
O186 Zn179 1.975 . S
O186 C187 1.252 . S
C187 O186 1.252 . S
C187 O188 1.252 . S
O188 Zn170 1.975 . S
O188 C187 1.252 . S
H189 C182 0.930 . S
H190 C183 0.930 . S
C191 C192 1.392 . S
C191 N195 1.328 . S
C191 H197 0.930 . S
C192 C191 1.392 . S
C192 N196 1.331 . S
C193 C194 1.391 . S
C193 N196 1.329 . S
C193 H203 0.930 . S
C194 C193 1.391 . S
C194 N195 1.334 . S
C194 H201 0.930 . S
N195 Zn179 2.119 . S
N195 C191 1.328 . S
N195 C194 1.334 . S
N196 C192 1.331 . S
N196 C193 1.329 . S
H197 C191 0.930 . S
C198 O178 1.257 . S
C198 O199 1.244 . S
O199 C198 1.244 . S
O200 C176 1.257 . S
O200 Zn179 2.019 . S
H201 C194 0.930 . S
H202 C181 0.930 . S
H203 C193 0.930 . S
H204 C210 0.930 . S
H205 C213 0.930 . S
H206 C214 0.930 . S
H207 C215 0.930 . S
H208 C218 0.930 . S
H209 C219 0.930 . S
C210 H204 0.930 . S
C210 C211 1.355 . S
C210 C212 1.415 . S
C211 C210 1.355 . S
C211 C213 1.419 . S
C212 C210 1.415 . S
C212 C217 1.425 . S
C212 C219 1.409 . S
C213 H205 0.930 . S
C213 C211 1.419 . S
C213 C214 1.362 . S
C214 H206 0.930 . S
C214 C213 1.362 . S
C214 C217 1.409 . S
C215 H207 0.930 . S
C215 C216 1.355 . S
C215 C217 1.415 . S
C216 C215 1.355 . S
C216 C218 1.419 . S
C217 C212 1.425 . S
C217 C214 1.409 . S
C217 C215 1.415 . S
C218 H208 0.930 . S
C218 C216 1.419 . S
C218 C219 1.362 . S
C219 H209 0.930 . S
C219 C212 1.409 . S
C219 C218 1.362 . S
H220 C226 0.930 . S
H221 C229 0.930 . S
H222 C230 0.930 . S
H223 C231 0.930 1_545 S
H224 C234 0.930 . S
H225 C235 0.930 . S
C226 H220 0.930 . S
C226 C227 1.355 . S
C226 C228 1.415 . S
C227 C226 1.355 . S
C227 C229 1.419 . S
C228 C226 1.415 . S
C228 C233 1.425 . S
C228 C235 1.409 . S
C229 H221 0.930 . S
C229 C227 1.419 . S
C229 C230 1.362 . S
C230 H222 0.930 . S
C230 C229 1.362 . S
C230 C233 1.409 . S
C231 H223 0.930 1_565 S
C231 C232 1.355 . S
C231 C233 1.415 . S
C232 C231 1.355 . S
C232 C234 1.419 . S
C233 C228 1.425 . S
C233 C230 1.409 . S
C233 C231 1.415 . S
C234 H224 0.930 . S
C234 C232 1.419 . S
C234 C235 1.362 . S
C235 H225 0.930 . S
C235 C228 1.409 . S
C235 C234 1.362 . S
H236 C242 0.930 . S
H237 C245 0.930 . S
H238 C246 0.930 . S
H239 C247 0.930 . S
H240 C250 0.930 . S
H241 C251 0.930 1_655 S
C242 H236 0.930 . S
C242 C243 1.355 . S
C242 C244 1.415 . S
C243 C242 1.355 . S
C243 C245 1.419 . S
C244 C242 1.415 . S
C244 C249 1.425 . S
C244 C251 1.409 . S
C245 H237 0.930 . S
C245 C243 1.419 . S
C245 C246 1.362 . S
C246 H238 0.930 . S
C246 C245 1.362 . S
C246 C249 1.409 . S
C247 H239 0.930 . S
C247 C248 1.355 . S
C247 C249 1.415 . S
C248 C247 1.355 . S
C248 C250 1.419 1_455 S
C249 C244 1.425 . S
C249 C246 1.409 . S
C249 C247 1.415 . S
C250 H240 0.930 . S
C250 C248 1.419 1_655 S
C250 C251 1.362 1_655 S
C251 H241 0.930 1_455 S
C251 C244 1.409 . S
C251 C250 1.362 1_455 S
H252 C258 0.930 . S
H253 C261 0.930 . S
H254 C262 0.930 . S
H255 C263 0.930 . S
H256 C266 0.930 . S
H257 C267 0.930 . S
C258 H252 0.930 . S
C258 C259 1.355 . S
C258 C260 1.415 . S
C259 C258 1.355 . S
C259 C261 1.419 . S
C260 C258 1.415 . S
C260 C265 1.425 . S
C260 C267 1.409 . S
C261 H253 0.930 . S
C261 C259 1.419 . S
C261 C262 1.362 . S
C262 H254 0.930 . S
C262 C261 1.362 . S
C262 C265 1.409 . S
C263 H255 0.930 . S
C263 C264 1.355 . S
C263 C265 1.415 . S
C264 C263 1.355 . S
C264 C266 1.419 . S
C265 C260 1.425 . S
C265 C262 1.409 . S
C265 C263 1.415 . S
C266 H256 0.930 . S
C266 C264 1.419 . S
C266 C267 1.362 . S
C267 H257 0.930 . S
C267 C260 1.409 . S
C267 C266 1.362 . S
H268 C274 0.930 . S
H269 C277 0.930 1_565 S
H270 C278 0.930 . S
H271 C279 0.930 . S
H272 C282 0.930 . S
H273 C283 0.930 . S
C274 H268 0.930 . S
C274 C275 1.355 . S
C274 C276 1.415 . S
C275 C274 1.355 . S
C275 C277 1.419 . S
C276 C274 1.415 . S
C276 C281 1.425 . S
C276 C283 1.409 . S
C277 H269 0.930 1_545 S
C277 C275 1.419 . S
C277 C278 1.362 . S
C278 H270 0.930 . S
C278 C277 1.362 . S
C278 C281 1.409 . S
C279 H271 0.930 . S
C279 C280 1.355 . S
C279 C281 1.415 . S
C280 C279 1.355 . S
C280 C282 1.419 . S
C281 C276 1.425 . S
C281 C278 1.409 . S
C281 C279 1.415 . S
C282 H272 0.930 . S
C282 C280 1.419 . S
C282 C283 1.362 . S
C283 H273 0.930 . S
C283 C276 1.409 . S
C283 C282 1.362 . S
H284 C290 0.930 . S
H285 C293 0.930 . S
H286 C294 0.930 . S
H287 C295 0.930 . S
H288 C298 0.930 . S
H289 C299 0.930 . S
C290 H284 0.930 . S
C290 C291 1.355 . S
C290 C292 1.415 . S
C291 C290 1.355 . S
C291 C293 1.419 1_655 S
C292 C290 1.415 . S
C292 C297 1.425 . S
C292 C299 1.409 . S
C293 H285 0.930 . S
C293 C291 1.419 1_455 S
C293 C294 1.362 1_455 S
C294 H286 0.930 . S
C294 C293 1.362 1_655 S
C294 C297 1.409 . S
C295 H287 0.930 . S
C295 C296 1.355 . S
C295 C297 1.415 . S
C296 C295 1.355 . S
C296 C298 1.419 . S
C297 C292 1.425 . S
C297 C294 1.409 . S
C297 C295 1.415 . S
C298 H288 0.930 . S
C298 C296 1.419 . S
C298 C299 1.362 . S
C299 H289 0.930 . S
C299 C292 1.409 . S
C299 C298 1.362 . S
H300 C306 0.930 . S
H301 C309 0.930 . S
H302 C310 0.930 . S
H303 C311 0.930 . S
H304 C314 0.930 . S
H305 C315 0.930 . S
C306 H300 0.930 . S
C306 C307 1.355 . S
C306 C308 1.415 . S
C307 C306 1.355 . S
C307 C309 1.419 1_554 S
C308 C306 1.415 . S
C308 C313 1.425 1_554 S
C308 C315 1.409 . S
C309 H301 0.930 . S
C309 C307 1.419 1_556 S
C309 C310 1.362 . S
C310 H302 0.930 . S
C310 C309 1.362 . S
C310 C313 1.409 . S
C311 H303 0.930 . S
C311 C312 1.355 . S
C311 C313 1.415 . S
C312 C311 1.355 . S
C312 C314 1.419 1_556 S
C313 C308 1.425 1_556 S
C313 C310 1.409 . S
C313 C311 1.415 . S
C314 H304 0.930 . S
C314 C312 1.419 1_554 S
C314 C315 1.362 . S
C315 H305 0.930 . S
C315 C308 1.409 . S
C315 C314 1.362 . S
H316 C322 0.930 . S
H317 C325 0.930 . S
H318 C326 0.930 . S
H319 C327 0.930 . S
H320 C330 0.930 . S
H321 C331 0.930 . S
C322 H316 0.930 . S
C322 C323 1.355 . S
C322 C324 1.415 . S
C323 C322 1.355 . S
C323 C325 1.419 . S
C324 C322 1.415 . S
C324 C329 1.425 1_545 S
C324 C331 1.409 1_545 S
C325 H317 0.930 . S
C325 C323 1.419 . S
C325 C326 1.362 . S
C326 H318 0.930 . S
C326 C325 1.362 . S
C326 C329 1.409 1_545 S
C327 H319 0.930 . S
C327 C328 1.355 . S
C327 C329 1.415 . S
C328 C327 1.355 . S
C328 C330 1.419 . S
C329 C324 1.425 1_565 S
C329 C326 1.409 1_565 S
C329 C327 1.415 . S
C330 H320 0.930 . S
C330 C328 1.419 . S
C330 C331 1.362 . S
C331 H321 0.930 . S
C331 C324 1.409 1_565 S
C331 C330 1.362 . S
H332 C338 0.930 . S
H333 C341 0.930 . S
H334 C342 0.930 . S
H335 C343 0.930 . S
H336 C346 0.930 . S
H337 C347 0.930 . S
C338 H332 0.930 . S
C338 C339 1.355 . S
C338 C340 1.415 . S
C339 C338 1.355 . S
C339 C341 1.419 . S
C340 C338 1.415 . S
C340 C345 1.425 1_655 S
C340 C347 1.409 1_655 S
C341 H333 0.930 . S
C341 C339 1.419 . S
C341 C342 1.362 . S
C342 H334 0.930 . S
C342 C341 1.362 . S
C342 C345 1.409 1_655 S
C343 H335 0.930 . S
C343 C344 1.355 . S
C343 C345 1.415 . S
C344 C343 1.355 . S
C344 C346 1.419 . S
C345 C340 1.425 1_455 S
C345 C342 1.409 1_455 S
C345 C343 1.415 . S
C346 H336 0.930 . S
C346 C344 1.419 . S
C346 C347 1.362 . S
C347 H337 0.930 . S
C347 C340 1.409 1_455 S
C347 C346 1.362 . S
H348 C354 0.930 . S
H349 C357 0.930 . S
H350 C358 0.930 . S
H351 C359 0.930 . S
H352 C362 0.930 . S
H353 C363 0.930 . S
C354 H348 0.930 . S
C354 C355 1.355 1_455 S
C354 C356 1.415 . S
C355 C354 1.355 1_655 S
C355 C357 1.419 . S
C356 C354 1.415 . S
C356 C361 1.425 1_455 S
C356 C363 1.409 . S
C357 H349 0.930 . S
C357 C355 1.419 . S
C357 C358 1.362 . S
C358 H350 0.930 . S
C358 C357 1.362 . S
C358 C361 1.409 . S
C359 H351 0.930 . S
C359 C360 1.355 1_655 S
C359 C361 1.415 . S
C360 C359 1.355 1_455 S
C360 C362 1.419 . S
C361 C356 1.425 1_655 S
C361 C358 1.409 . S
C361 C359 1.415 . S
C362 H352 0.930 . S
C362 C360 1.419 . S
C362 C363 1.362 . S
C363 H353 0.930 . S
C363 C356 1.409 . S
C363 C362 1.362 . S
H364 C370 0.930 . S
H365 C373 0.930 . S
H366 C374 0.930 . S
H367 C375 0.930 . S
H368 C378 0.930 . S
H369 C379 0.930 . S
C370 H364 0.930 . S
C370 C371 1.355 . S
C370 C372 1.415 . S
C371 C370 1.355 . S
C371 C373 1.419 . S
C372 C370 1.415 . S
C372 C377 1.425 1_556 S
C372 C379 1.409 1_556 S
C373 H365 0.930 . S
C373 C371 1.419 . S
C373 C374 1.362 . S
C374 H366 0.930 . S
C374 C373 1.362 . S
C374 C377 1.409 1_556 S
C375 H367 0.930 . S
C375 C376 1.355 . S
C375 C377 1.415 . S
C376 C375 1.355 . S
C376 C378 1.419 . S
C377 C372 1.425 1_554 S
C377 C374 1.409 1_554 S
C377 C375 1.415 . S
C378 H368 0.930 . S
C378 C376 1.419 . S
C378 C379 1.362 . S
C379 H369 0.930 . S
C379 C372 1.409 1_554 S
C379 C378 1.362 . S
H380 C386 0.930 . S
H381 C389 0.930 . S
H382 C390 0.941 . S
H383 C391 0.930 . S
H384 C394 0.930 . S
H385 C395 0.941 . S
C386 H380 0.930 . S
C386 C387 1.355 . S
C386 C388 1.415 . S
C387 C386 1.355 . S
C387 C389 1.419 . S
C388 C386 1.415 . S
C388 C393 1.425 1_545 S
C388 C395 1.409 1_545 S
C389 H381 0.930 . S
C389 C387 1.419 . S
C389 C390 1.362 . S
C390 H382 0.941 . S
C390 C389 1.362 . S
C390 C393 1.409 1_545 S
C391 H383 0.930 . S
C391 C392 1.355 . S
C391 C393 1.415 . S
C392 C391 1.355 . S
C392 C394 1.419 . S
C393 C388 1.425 1_565 S
C393 C390 1.409 1_565 S
C393 C391 1.415 . S
C394 H384 0.930 . S
C394 C392 1.419 . S
C394 C395 1.362 . S
C395 H385 0.941 . S
C395 C388 1.409 1_565 S
C395 C394 1.362 . S
H396 C402 0.930 . S
H397 C405 0.930 . S
H398 C406 0.930 . S
H399 C407 0.930 . S
H400 C410 0.930 . S
H401 C411 0.930 . S
C402 H396 0.930 . S
C402 C403 1.355 . S
C402 C404 1.415 . S
C403 C402 1.355 . S
C403 C405 1.419 . S
C404 C402 1.415 . S
C404 C409 1.425 . S
C404 C411 1.409 . S
C405 H397 0.930 . S
C405 C403 1.419 . S
C405 C406 1.362 . S
C406 H398 0.930 . S
C406 C405 1.362 . S
C406 C409 1.409 . S
C407 H399 0.930 . S
C407 C408 1.355 . S
C407 C409 1.415 . S
C408 C407 1.355 . S
C408 C410 1.419 . S
C409 C404 1.425 . S
C409 C406 1.409 . S
C409 C407 1.415 . S
C410 H400 0.930 . S
C410 C408 1.419 . S
C410 C411 1.362 . S
C411 H401 0.930 . S
C411 C404 1.409 . S
C411 C410 1.362 . S
H412 C418 0.930 . S
H413 C421 0.930 . S
H414 C422 0.930 . S
H415 C423 0.930 . S
H416 C426 0.930 . S
H417 C427 0.930 . S
C418 H412 0.930 . S
C418 C419 1.355 . S
C418 C420 1.415 . S
C419 C418 1.355 . S
C419 C421 1.419 . S
C420 C418 1.415 . S
C420 C425 1.425 . S
C420 C427 1.409 . S
C421 H413 0.930 . S
C421 C419 1.419 . S
C421 C422 1.362 . S
C422 H414 0.930 . S
C422 C421 1.362 . S
C422 C425 1.409 . S
C423 H415 0.930 . S
C423 C424 1.355 . S
C423 C425 1.415 . S
C424 C423 1.355 . S
C424 C426 1.419 . S
C425 C420 1.425 . S
C425 C422 1.409 . S
C425 C423 1.415 . S
C426 H416 0.930 . S
C426 C424 1.419 . S
C426 C427 1.362 . S
C427 H417 0.930 . S
C427 C420 1.409 . S
C427 C426 1.362 . S
H428 C434 0.930 . S
H429 C437 0.930 . S
H430 C438 0.930 . S
H431 C439 0.930 . S
H432 C442 0.930 . S
H433 C443 0.930 . S
C434 H428 0.930 . S
C434 C435 1.355 . S
C434 C436 1.415 . S
C435 C434 1.355 . S
C435 C437 1.419 . S
C436 C434 1.415 . S
C436 C441 1.425 . S
C436 C443 1.409 . S
C437 H429 0.930 . S
C437 C435 1.419 . S
C437 C438 1.362 . S
C438 H430 0.930 . S
C438 C437 1.362 . S
C438 C441 1.409 . S
C439 H431 0.930 . S
C439 C440 1.355 . S
C439 C441 1.415 . S
C440 C439 1.355 . S
C440 C442 1.419 . S
C441 C436 1.425 . S
C441 C438 1.409 . S
C441 C439 1.415 . S
C442 H432 0.930 . S
C442 C440 1.419 . S
C442 C443 1.362 . S
C443 H433 0.930 . S
C443 C436 1.409 . S
C443 C442 1.362 . S
H444 C450 0.930 . S
H445 C453 0.930 . S
H446 C454 0.930 . S
H447 C455 0.930 . S
H448 C458 0.930 . S
H449 C459 0.930 . S
C450 H444 0.930 . S
C450 C451 1.355 . S
C450 C452 1.415 . S
C451 C450 1.355 . S
C451 C453 1.419 . S
C452 C450 1.415 . S
C452 C457 1.425 . S
C452 C459 1.409 . S
C453 H445 0.930 . S
C453 C451 1.419 . S
C453 C454 1.362 . S
C454 H446 0.930 . S
C454 C453 1.362 . S
C454 C457 1.409 . S
C455 H447 0.930 . S
C455 C456 1.355 . S
C455 C457 1.415 . S
C456 C455 1.355 . S
C456 C458 1.419 . S
C457 C452 1.425 . S
C457 C454 1.409 . S
C457 C455 1.415 . S
C458 H448 0.930 . S
C458 C456 1.419 . S
C458 C459 1.362 . S
C459 H449 0.930 . S
C459 C452 1.409 . S
C459 C458 1.362 . S
H460 C466 0.930 . S
H461 C469 0.930 . S
H462 C470 0.930 . S
H463 C471 0.930 . S
H464 C474 0.930 . S
H465 C475 0.930 . S
C466 H460 0.930 . S
C466 C467 1.355 . S
C466 C468 1.415 . S
C467 C466 1.355 . S
C467 C469 1.419 . S
C468 C466 1.415 . S
C468 C473 1.425 . S
C468 C475 1.409 . S
C469 H461 0.930 . S
C469 C467 1.419 . S
C469 C470 1.362 . S
C470 H462 0.930 . S
C470 C469 1.362 . S
C470 C473 1.409 . S
C471 H463 0.930 . S
C471 C472 1.355 . S
C471 C473 1.415 . S
C472 C471 1.355 . S
C472 C474 1.419 . S
C473 C468 1.425 . S
C473 C470 1.409 . S
C473 C471 1.415 . S
C474 H464 0.930 . S
C474 C472 1.419 . S
C474 C475 1.362 . S
C475 H465 0.930 . S
C475 C468 1.409 . S
C475 C474 1.362 . S
H476 C482 0.930 . S
H477 C485 0.930 . S
H478 C486 0.930 . S
H479 C487 0.930 . S
H480 C490 0.930 . S
H481 C491 0.930 . S
C482 H476 0.930 . S
C482 C483 1.355 . S
C482 C484 1.415 . S
C483 C482 1.355 . S
C483 C485 1.419 . S
C484 C482 1.415 . S
C484 C489 1.425 . S
C484 C491 1.409 . S
C485 H477 0.930 . S
C485 C483 1.419 . S
C485 C486 1.362 . S
C486 H478 0.930 . S
C486 C485 1.362 . S
C486 C489 1.409 . S
C487 H479 0.930 . S
C487 C488 1.355 . S
C487 C489 1.415 . S
C488 C487 1.355 . S
C488 C490 1.419 . S
C489 C484 1.425 . S
C489 C486 1.409 . S
C489 C487 1.415 . S
C490 H480 0.930 . S
C490 C488 1.419 . S
C490 C491 1.362 . S
C491 H481 0.930 . S
C491 C484 1.409 . S
C491 C490 1.362 . S
H492 C498 0.930 . S
H493 C501 0.930 . S
H494 C502 0.930 . S
H495 C503 0.930 . S
H496 C506 0.930 . S
H497 C507 0.930 . S
C498 H492 0.930 . S
C498 C499 1.355 . S
C498 C500 1.415 . S
C499 C498 1.355 . S
C499 C501 1.419 . S
C500 C498 1.415 . S
C500 C505 1.425 1_655 S
C500 C507 1.409 1_655 S
C501 H493 0.930 . S
C501 C499 1.419 . S
C501 C502 1.362 . S
C502 H494 0.930 . S
C502 C501 1.362 . S
C502 C505 1.409 1_655 S
C503 H495 0.930 . S
C503 C504 1.355 . S
C503 C505 1.415 . S
C504 C503 1.355 . S
C504 C506 1.419 . S
C505 C500 1.425 1_455 S
C505 C502 1.409 1_455 S
C505 C503 1.415 . S
C506 H496 0.930 . S
C506 C504 1.419 . S
C506 C507 1.362 . S
C507 H497 0.930 . S
C507 C500 1.409 1_455 S
C507 C506 1.362 . S
H508 C514 0.930 . S
H509 C517 0.930 . S
H510 C518 0.930 . S
H511 C519 0.930 . S
H512 C522 0.930 . S
H513 C523 0.930 . S
C514 H508 0.930 . S
C514 C515 1.355 . S
C514 C516 1.415 . S
C515 C514 1.355 . S
C515 C517 1.419 . S
C516 C514 1.415 . S
C516 C521 1.425 . S
C516 C523 1.409 . S
C517 H509 0.930 . S
C517 C515 1.419 . S
C517 C518 1.362 . S
C518 H510 0.930 . S
C518 C517 1.362 . S
C518 C521 1.409 . S
C519 H511 0.930 . S
C519 C520 1.355 . S
C519 C521 1.415 . S
C520 C519 1.355 . S
C520 C522 1.419 . S
C521 C516 1.425 . S
C521 C518 1.409 . S
C521 C519 1.415 . S
C522 H512 0.930 . S
C522 C520 1.419 . S
C522 C523 1.362 . S
C523 H513 0.930 . S
C523 C516 1.409 . S
C523 C522 1.362 . S
H524 C530 0.930 . S
H525 C533 0.930 . S
H526 C534 0.930 . S
H527 C535 0.930 . S
H528 C538 0.930 . S
H529 C539 0.930 . S
C530 H524 0.930 . S
C530 C531 1.355 . S
C530 C532 1.416 . S
C531 C530 1.355 . S
C531 C533 1.419 . S
C532 C530 1.416 . S
C532 C537 1.421 1_545 S
C532 C539 1.410 1_545 S
C533 H525 0.930 . S
C533 C531 1.419 . S
C533 C534 1.362 . S
C534 H526 0.930 . S
C534 C533 1.362 . S
C534 C537 1.410 1_545 S
C535 H527 0.930 . S
C535 C536 1.355 . S
C535 C537 1.416 . S
C536 C535 1.355 . S
C536 C538 1.419 . S
C537 C532 1.421 1_565 S
C537 C534 1.410 1_565 S
C537 C535 1.416 . S
C538 H528 0.930 . S
C538 C536 1.419 . S
C538 C539 1.362 . S
C539 H529 0.930 . S
C539 C532 1.410 1_565 S
C539 C538 1.362 . S
C211 C173 2.594 . S
C216 C17 2.608 . S
C227 C51 2.611 . S
C232 C103 2.600 1_565 S
C243 C85 2.597 . S
C248 C137 2.606 1_455 S
C259 C35 2.608 . S
C264 C119 2.611 . S
C275 C71 2.589 1_545 S
C280 C153 2.596 . S
C291 C3 2.591 1_655 S
C296 C187 2.593 . S
C307 C130 0.585 1_554 S
C312 C6 0.667 1_556 S
C323 C164 0.685 . S
C328 C62 0.775 . S
C339 C176 0.767 . S
C344 C74 0.665 . S
C355 C158 0.589 . S
C360 C15 0.568 . S
C371 C56 0.628 . S
C376 C185 0.614 . S
C387 C124 0.644 . S
C392 C83 0.568 . S
C403 C22 0.471 . S
C408 C40 0.382 . S
C419 C96 0.391 . S
C424 C49 0.378 . S
C435 C28 0.376 . S
C440 C90 0.487 . S
C451 C117 0.559 . S
C456 C198 0.292 . S
C467 C151 0.521 . S
C472 C108 0.200 . S
C483 C142 0.379 . S
C488 C192 0.481 . S
C499 C139 3.318 . S
C504 C1 3.342 1_556 S
C515 C37 3.340 . S
C520 C171 3.315 . S
C531 C105 3.319 1_554 S
C536 C69 3.342 . S
