# Generated by pormake.
# Topology wir, (6)-cn, num edge types: 1
# Building blocks:
#     Node 0, Type 0, BuildingBlock: JUFBIX_clean_sbu_0, # of connection points: 6
#     Node 1, Type 0, BuildingBlock: JUFBIX_clean_sbu_0, # of connection points: 6
#     Node 2, Type 0, BuildingBlock: JUFBIX_clean_sbu_0, # of connection points: 6
#     Node 3, Type 0, BuildingBlock: JUFBIX_clean_sbu_0, # of connection points: 6
#     Node 4, Type 0, BuildingBlock: JUFBIX_clean_sbu_0, # of connection points: 6
#     Node 5, Type 0, BuildingBlock: JUFBIX_clean_sbu_0, # of connection points: 6
#     Node 6, Type 0, BuildingBlock: JUFBIX_clean_sbu_0, # of connection points: 6
#     Node 7, Type 0, BuildingBlock: JUFBIX_clean_sbu_0, # of connection points: 6
#     Node 8, Type 0, BuildingBlock: JUFBIX_clean_sbu_0, # of connection points: 6
#     Node 9, Type 0, BuildingBlock: JUFBIX_clean_sbu_0, # of connection points: 6
#     Node 10, Type 0, BuildingBlock: JUFBIX_clean_sbu_0, # of connection points: 6
#     Node 11, Type 0, BuildingBlock: JUFBIX_clean_sbu_0, # of connection points: 6
#     Node 12, Type 0, BuildingBlock: JUFBIX_clean_sbu_0, # of connection points: 6
#     Node 13, Type 0, BuildingBlock: JUFBIX_clean_sbu_0, # of connection points: 6
#     Node 14, Type 0, BuildingBlock: JUFBIX_clean_sbu_0, # of connection points: 6
#     Node 15, Type 0, BuildingBlock: JUFBIX_clean_sbu_0, # of connection points: 6
#     Node 16, Type 0, BuildingBlock: JUFBIX_clean_sbu_0, # of connection points: 6
#     Node 17, Type 0, BuildingBlock: JUFBIX_clean_sbu_0, # of connection points: 6
#     Node 18, Type 0, BuildingBlock: JUFBIX_clean_sbu_0, # of connection points: 6
#     Node 19, Type 0, BuildingBlock: JUFBIX_clean_sbu_0, # of connection points: 6
#     Node 20, Type 0, BuildingBlock: JUFBIX_clean_sbu_0, # of connection points: 6
#     Node 21, Type 0, BuildingBlock: JUFBIX_clean_sbu_0, # of connection points: 6
#     Node 22, Type 0, BuildingBlock: JUFBIX_clean_sbu_0, # of connection points: 6
#     Node 23, Type 0, BuildingBlock: JUFBIX_clean_sbu_0, # of connection points: 6
#     Node 24, Type 0, BuildingBlock: JUFBIX_clean_sbu_0, # of connection points: 6
#     Node 25, Type 0, BuildingBlock: JUFBIX_clean_sbu_0, # of connection points: 6
#     Node 26, Type 0, BuildingBlock: JUFBIX_clean_sbu_0, # of connection points: 6
#     Node 27, Type 0, BuildingBlock: JUFBIX_clean_sbu_0, # of connection points: 6
#     Node 28, Type 0, BuildingBlock: JUFBIX_clean_sbu_0, # of connection points: 6
#     Node 29, Type 0, BuildingBlock: JUFBIX_clean_sbu_0, # of connection points: 6
#     Node 30, Type 0, BuildingBlock: JUFBIX_clean_sbu_0, # of connection points: 6
#     Node 31, Type 0, BuildingBlock: JUFBIX_clean_sbu_0, # of connection points: 6
#     Edge 32, Type (0, 0), BuildingBlock: KIFKEQ_clean_linker_1, # of connection points: 2
#     Edge 33, Type (0, 0), BuildingBlock: KIFKEQ_clean_linker_1, # of connection points: 2
#     Edge 34, Type (0, 0), BuildingBlock: KIFKEQ_clean_linker_1, # of connection points: 2
#     Edge 35, Type (0, 0), BuildingBlock: KIFKEQ_clean_linker_1, # of connection points: 2
#     Edge 36, Type (0, 0), BuildingBlock: KIFKEQ_clean_linker_1, # of connection points: 2
#     Edge 37, Type (0, 0), BuildingBlock: KIFKEQ_clean_linker_1, # of connection points: 2
#     Edge 38, Type (0, 0), BuildingBlock: KIFKEQ_clean_linker_1, # of connection points: 2
#     Edge 39, Type (0, 0), BuildingBlock: KIFKEQ_clean_linker_1, # of connection points: 2
#     Edge 40, Type (0, 0), BuildingBlock: KIFKEQ_clean_linker_1, # of connection points: 2
#     Edge 41, Type (0, 0), BuildingBlock: KIFKEQ_clean_linker_1, # of connection points: 2
#     Edge 42, Type (0, 0), BuildingBlock: KIFKEQ_clean_linker_1, # of connection points: 2
#     Edge 43, Type (0, 0), BuildingBlock: KIFKEQ_clean_linker_1, # of connection points: 2
#     Edge 44, Type (0, 0), BuildingBlock: KIFKEQ_clean_linker_1, # of connection points: 2
#     Edge 45, Type (0, 0), BuildingBlock: KIFKEQ_clean_linker_1, # of connection points: 2
#     Edge 46, Type (0, 0), BuildingBlock: KIFKEQ_clean_linker_1, # of connection points: 2
#     Edge 47, Type (0, 0), BuildingBlock: KIFKEQ_clean_linker_1, # of connection points: 2
#     Edge 48, Type (0, 0), BuildingBlock: KIFKEQ_clean_linker_1, # of connection points: 2
#     Edge 49, Type (0, 0), BuildingBlock: KIFKEQ_clean_linker_1, # of connection points: 2
#     Edge 50, Type (0, 0), BuildingBlock: KIFKEQ_clean_linker_1, # of connection points: 2
#     Edge 51, Type (0, 0), BuildingBlock: KIFKEQ_clean_linker_1, # of connection points: 2
#     Edge 52, Type (0, 0), BuildingBlock: KIFKEQ_clean_linker_1, # of connection points: 2
#     Edge 53, Type (0, 0), BuildingBlock: KIFKEQ_clean_linker_1, # of connection points: 2
#     Edge 54, Type (0, 0), BuildingBlock: KIFKEQ_clean_linker_1, # of connection points: 2
#     Edge 55, Type (0, 0), BuildingBlock: KIFKEQ_clean_linker_1, # of connection points: 2
#     Edge 56, Type (0, 0), BuildingBlock: KIFKEQ_clean_linker_1, # of connection points: 2
#     Edge 57, Type (0, 0), BuildingBlock: KIFKEQ_clean_linker_1, # of connection points: 2
#     Edge 58, Type (0, 0), BuildingBlock: KIFKEQ_clean_linker_1, # of connection points: 2
#     Edge 59, Type (0, 0), BuildingBlock: KIFKEQ_clean_linker_1, # of connection points: 2
#     Edge 60, Type (0, 0), BuildingBlock: KIFKEQ_clean_linker_1, # of connection points: 2
#     Edge 61, Type (0, 0), BuildingBlock: KIFKEQ_clean_linker_1, # of connection points: 2
#     Edge 62, Type (0, 0), BuildingBlock: KIFKEQ_clean_linker_1, # of connection points: 2
#     Edge 63, Type (0, 0), BuildingBlock: KIFKEQ_clean_linker_1, # of connection points: 2
#     Edge 64, Type (0, 0), BuildingBlock: KIFKEQ_clean_linker_1, # of connection points: 2
#     Edge 65, Type (0, 0), BuildingBlock: KIFKEQ_clean_linker_1, # of connection points: 2
#     Edge 66, Type (0, 0), BuildingBlock: KIFKEQ_clean_linker_1, # of connection points: 2
#     Edge 67, Type (0, 0), BuildingBlock: KIFKEQ_clean_linker_1, # of connection points: 2
#     Edge 68, Type (0, 0), BuildingBlock: KIFKEQ_clean_linker_1, # of connection points: 2
#     Edge 69, Type (0, 0), BuildingBlock: KIFKEQ_clean_linker_1, # of connection points: 2
#     Edge 70, Type (0, 0), BuildingBlock: KIFKEQ_clean_linker_1, # of connection points: 2
#     Edge 71, Type (0, 0), BuildingBlock: KIFKEQ_clean_linker_1, # of connection points: 2
#     Edge 72, Type (0, 0), BuildingBlock: KIFKEQ_clean_linker_1, # of connection points: 2
#     Edge 73, Type (0, 0), BuildingBlock: KIFKEQ_clean_linker_1, # of connection points: 2
#     Edge 74, Type (0, 0), BuildingBlock: KIFKEQ_clean_linker_1, # of connection points: 2
#     Edge 75, Type (0, 0), BuildingBlock: KIFKEQ_clean_linker_1, # of connection points: 2
#     Edge 76, Type (0, 0), BuildingBlock: KIFKEQ_clean_linker_1, # of connection points: 2
#     Edge 77, Type (0, 0), BuildingBlock: KIFKEQ_clean_linker_1, # of connection points: 2
#     Edge 78, Type (0, 0), BuildingBlock: KIFKEQ_clean_linker_1, # of connection points: 2
#     Edge 79, Type (0, 0), BuildingBlock: KIFKEQ_clean_linker_1, # of connection points: 2
#     Edge 80, Type (0, 0), BuildingBlock: KIFKEQ_clean_linker_1, # of connection points: 2
#     Edge 81, Type (0, 0), BuildingBlock: KIFKEQ_clean_linker_1, # of connection points: 2
#     Edge 82, Type (0, 0), BuildingBlock: KIFKEQ_clean_linker_1, # of connection points: 2
#     Edge 83, Type (0, 0), BuildingBlock: KIFKEQ_clean_linker_1, # of connection points: 2
#     Edge 84, Type (0, 0), BuildingBlock: KIFKEQ_clean_linker_1, # of connection points: 2
#     Edge 85, Type (0, 0), BuildingBlock: KIFKEQ_clean_linker_1, # of connection points: 2
#     Edge 86, Type (0, 0), BuildingBlock: KIFKEQ_clean_linker_1, # of connection points: 2
#     Edge 87, Type (0, 0), BuildingBlock: KIFKEQ_clean_linker_1, # of connection points: 2
#     Edge 88, Type (0, 0), BuildingBlock: KIFKEQ_clean_linker_1, # of connection points: 2
#     Edge 89, Type (0, 0), BuildingBlock: KIFKEQ_clean_linker_1, # of connection points: 2
#     Edge 90, Type (0, 0), BuildingBlock: KIFKEQ_clean_linker_1, # of connection points: 2
#     Edge 91, Type (0, 0), BuildingBlock: KIFKEQ_clean_linker_1, # of connection points: 2
#     Edge 92, Type (0, 0), BuildingBlock: KIFKEQ_clean_linker_1, # of connection points: 2
#     Edge 93, Type (0, 0), BuildingBlock: KIFKEQ_clean_linker_1, # of connection points: 2
#     Edge 94, Type (0, 0), BuildingBlock: KIFKEQ_clean_linker_1, # of connection points: 2
#     Edge 95, Type (0, 0), BuildingBlock: KIFKEQ_clean_linker_1, # of connection points: 2
#     Edge 96, Type (0, 0), BuildingBlock: KIFKEQ_clean_linker_1, # of connection points: 2
#     Edge 97, Type (0, 0), BuildingBlock: KIFKEQ_clean_linker_1, # of connection points: 2
#     Edge 98, Type (0, 0), BuildingBlock: KIFKEQ_clean_linker_1, # of connection points: 2
#     Edge 99, Type (0, 0), BuildingBlock: KIFKEQ_clean_linker_1, # of connection points: 2
#     Edge 100, Type (0, 0), BuildingBlock: KIFKEQ_clean_linker_1, # of connection points: 2
#     Edge 101, Type (0, 0), BuildingBlock: KIFKEQ_clean_linker_1, # of connection points: 2
#     Edge 102, Type (0, 0), BuildingBlock: KIFKEQ_clean_linker_1, # of connection points: 2
#     Edge 103, Type (0, 0), BuildingBlock: KIFKEQ_clean_linker_1, # of connection points: 2
#     Edge 104, Type (0, 0), BuildingBlock: KIFKEQ_clean_linker_1, # of connection points: 2
#     Edge 105, Type (0, 0), BuildingBlock: KIFKEQ_clean_linker_1, # of connection points: 2
#     Edge 106, Type (0, 0), BuildingBlock: KIFKEQ_clean_linker_1, # of connection points: 2
#     Edge 107, Type (0, 0), BuildingBlock: KIFKEQ_clean_linker_1, # of connection points: 2
#     Edge 108, Type (0, 0), BuildingBlock: KIFKEQ_clean_linker_1, # of connection points: 2
#     Edge 109, Type (0, 0), BuildingBlock: KIFKEQ_clean_linker_1, # of connection points: 2
#     Edge 110, Type (0, 0), BuildingBlock: KIFKEQ_clean_linker_1, # of connection points: 2
#     Edge 111, Type (0, 0), BuildingBlock: KIFKEQ_clean_linker_1, # of connection points: 2
#     Edge 112, Type (0, 0), BuildingBlock: KIFKEQ_clean_linker_1, # of connection points: 2
#     Edge 113, Type (0, 0), BuildingBlock: KIFKEQ_clean_linker_1, # of connection points: 2
#     Edge 114, Type (0, 0), BuildingBlock: KIFKEQ_clean_linker_1, # of connection points: 2
#     Edge 115, Type (0, 0), BuildingBlock: KIFKEQ_clean_linker_1, # of connection points: 2
#     Edge 116, Type (0, 0), BuildingBlock: KIFKEQ_clean_linker_1, # of connection points: 2
#     Edge 117, Type (0, 0), BuildingBlock: KIFKEQ_clean_linker_1, # of connection points: 2
#     Edge 118, Type (0, 0), BuildingBlock: KIFKEQ_clean_linker_1, # of connection points: 2
#     Edge 119, Type (0, 0), BuildingBlock: KIFKEQ_clean_linker_1, # of connection points: 2
#     Edge 120, Type (0, 0), BuildingBlock: KIFKEQ_clean_linker_1, # of connection points: 2
#     Edge 121, Type (0, 0), BuildingBlock: KIFKEQ_clean_linker_1, # of connection points: 2
#     Edge 122, Type (0, 0), BuildingBlock: KIFKEQ_clean_linker_1, # of connection points: 2
#     Edge 123, Type (0, 0), BuildingBlock: KIFKEQ_clean_linker_1, # of connection points: 2
#     Edge 124, Type (0, 0), BuildingBlock: KIFKEQ_clean_linker_1, # of connection points: 2
#     Edge 125, Type (0, 0), BuildingBlock: KIFKEQ_clean_linker_1, # of connection points: 2
#     Edge 126, Type (0, 0), BuildingBlock: KIFKEQ_clean_linker_1, # of connection points: 2
#     Edge 127, Type (0, 0), BuildingBlock: KIFKEQ_clean_linker_1, # of connection points: 2
# Relax obj value: 0.546
# Max RMSD: 0.232
# Mean RMSD: 0.210
data_MOF--net-wir--node1-JUFBIX_clean_sbu_0--edge1-KIFKEQ_clean_linker_1
_symmetry_space_group_name_H-M    P1
_symmetry_Int_Tables_number       1
_symmetry_cell_setting            triclinic
loop_
_symmetry_equiv_pos_as_xyz
'x, y, z'
_cell_length_a     42.154242
_cell_length_b     37.57029
_cell_length_c     87.749236
_cell_angle_alpha  94.667531
_cell_angle_beta   90.037011
_cell_angle_gamma 89.947047
loop_
_atom_site_label
_atom_site_type_symbol
_atom_site_fract_x
_atom_site_fract_y
_atom_site_fract_z
_atom_type_partial_charge
Co0 Co 0.22358 0.16423 0.35277 0.0
C1 C 0.1598 0.18972 0.34682 0.0
Co2 Co 0.18667 0.13016 0.36097 0.0
C3 C 0.25164 0.20467 0.33093 0.0
C4 C 0.2812 0.20679 0.35079 0.0
N5 N 0.25376 0.19312 0.34501 0.0
N6 N 0.27659 0.22481 0.32749 0.0
C7 C 0.29531 0.2265 0.34001 0.0
H8 H 0.23175 0.19858 0.32337 0.0
H9 H 0.29036 0.20257 0.36202 0.0
C10 C 0.24931 0.10991 0.37049 0.0
N11 N 0.15605 0.10067 0.3677 0.0
C12 C 0.12569 0.10964 0.37062 0.0
C13 C 0.15711 0.06483 0.36804 0.0
N14 N 0.10752 0.08089 0.37235 0.0
C15 C 0.12715 0.05254 0.37103 0.0
C16 C 0.20725 0.10729 0.33133 0.0
O17 O 0.25726 0.13446 0.36187 0.0
O18 O 0.21978 0.10225 0.37093 0.0
O19 O 0.18929 0.09901 0.34213 0.0
O20 O 0.2243 0.13501 0.33363 0.0
O21 O 0.15312 0.15986 0.35204 0.0
H22 H 0.17789 0.04853 0.36546 0.0
H23 H 0.11679 0.13674 0.37109 0.0
O24 O 0.18937 0.19618 0.34515 0.0
O25 O 0.22297 0.19237 0.37084 0.0
O26 O 0.18366 0.16104 0.37923 0.0
C27 C 0.20254 0.18746 0.38103 0.0
H28 H 0.31774 0.24044 0.34121 0.0
H29 H 0.12008 1.02497 0.37151 0.0
Co30 Co 0.17076 0.96421 0.60146 0.0
C31 C 0.14406 0.89354 0.59624 0.0
Co32 Co 0.19898 0.92203 0.61161 0.0
C33 C 0.1249 0.99337 0.57972 0.0
C34 C 0.15188 1.03477 0.59177 0.0
N35 N 0.1471 0.99917 0.59107 0.0
N36 N 0.11601 1.02368 0.57334 0.0
C37 C 0.13315 0.04968 0.58097 0.0
H38 H 0.11646 0.96716 0.57561 0.0
H39 H 0.16874 0.04903 0.59928 0.0
C40 C 0.22613 0.98922 0.61983 0.0
N41 N 0.22104 0.88606 0.61995 0.0
C42 C 0.20701 0.85676 0.62455 0.0
C43 C 0.25221 0.87777 0.61893 0.0
N44 N 0.22762 0.82984 0.62564 0.0
C45 C 0.25636 0.84289 0.62248 0.0
C46 C 0.21863 0.93379 0.58267 0.0
O47 O 0.20395 1.00068 0.61115 0.0
O48 O 0.22789 0.95573 0.62071 0.0
O49 O 0.22464 0.91594 0.59399 0.0
O50 O 0.19561 0.95567 0.58346 0.0
O51 O 0.1698 0.88673 0.60283 0.0
H52 H 0.2702 0.8947 0.61451 0.0
H53 H 0.18159 0.85411 0.62582 0.0
O54 O 0.13883 0.92628 0.59387 0.0
O55 O 0.1471 0.97261 0.61911 0.0
O56 O 0.17305 0.92929 0.62931 0.0
C57 C 0.15246 0.95423 0.63038 0.0
H58 H 0.13254 0.07761 0.57878 0.0
H59 H 0.27811 0.82753 0.62154 0.0
Co60 Co 0.41365 0.90108 0.8453 0.0
C61 C 0.47941 0.87783 0.84202 0.0
Co62 Co 0.44783 0.94119 0.85484 0.0
C63 C 0.37434 0.85577 0.82359 0.0
C64 C 0.36676 0.84552 0.84691 0.0
N65 N 0.38453 0.8654 0.83804 0.0
N66 N 0.35086 0.83098 0.8232 0.0
C67 C 0.34641 0.82444 0.83792 0.0
H68 H 0.38313 0.86766 0.8136 0.0
H69 H 0.36769 0.84681 0.85925 0.0
C70 C 0.38299 0.95974 0.86221 0.0
N71 N 0.47481 0.97779 0.8613 0.0
C72 C 0.49684 0.99288 0.85269 0.0
C73 C 0.47034 1.00141 0.87352 0.0
N74 N 0.50501 1.02566 0.85869 0.0
C75 C 0.48891 1.03088 0.87194 0.0
C76 C 0.42856 0.95117 0.82426 0.0
O77 O 0.37747 0.93053 0.85408 0.0
O78 O 0.41157 0.97106 0.8624 0.0
O79 O 0.4466 0.96099 0.83536 0.0
O80 O 0.41084 0.92405 0.82567 0.0
O81 O 0.48408 0.90931 0.84845 0.0
H82 H 0.4533 0.99835 0.88253 0.0
H83 H 0.50531 0.98102 0.84178 0.0
O84 O 0.45065 0.86986 0.8381 0.0
O85 O 0.41663 0.88109 0.86446 0.0
O86 O 0.44881 0.92316 0.87405 0.0
C87 C 0.43227 0.89565 0.87569 0.0
H88 H 0.32939 0.80594 0.84203 0.0
H89 H 0.49058 0.05437 0.87992 0.0
Co90 Co 0.47475 0.1065 0.10821 0.0
C91 C 0.41517 0.07074 0.11244 0.0
Co92 Co 0.43599 0.12781 0.09512 0.0
C93 C 0.51389 0.04953 0.11587 0.0
C94 C 0.53304 0.09973 0.12485 0.0
N95 N 0.50774 0.08486 0.11745 0.0
N96 N 0.54224 0.04159 0.12179 0.0
C97 C 0.55426 0.07313 0.1276 0.0
H98 H 0.49811 1.03012 0.1101 0.0
H99 H 0.53612 0.12805 0.12776 0.0
C100 C 0.49391 0.16821 0.09437 0.0
N101 N 0.40345 0.14948 0.08517 0.0
C102 C 0.38261 0.1352 0.0747 0.0
C103 C 0.39803 0.185 0.0859 0.0
N104 N 0.36486 0.16058 0.06875 0.0
C105 C 0.37449 0.1919 0.07573 0.0
C106 C 0.44107 0.15579 0.12527 0.0
O107 O 0.50367 0.14304 0.10205 0.0
O108 O 0.46533 0.16627 0.0895 0.0
O109 O 0.42588 0.15507 0.11282 0.0
O110 O 0.46553 0.13634 0.12632 0.0
O111 O 0.40606 0.09083 0.10209 0.0
H112 H 0.41124 0.20476 0.09296 0.0
H113 H 0.38165 0.10706 0.07092 0.0
O114 O 0.44484 0.07097 0.11556 0.0
O115 O 0.4849 0.0771 0.08953 0.0
O116 O 0.44708 0.09994 0.07646 0.0
C117 C 0.47133 0.07985 0.07673 0.0
H118 H 0.57645 0.07671 0.13375 0.0
H119 H 0.36566 0.21794 0.07333 0.0
Co120 Co 0.22884 0.90656 0.20585 0.0
C121 C 0.16492 0.88089 0.21135 0.0
Co122 Co 0.19224 0.94028 0.19719 0.0
C123 C 0.25564 0.86613 0.22797 0.0
C124 C 0.28542 0.86255 0.2082 0.0
N125 N 0.25875 0.87806 0.21403 0.0
N126 N 0.27888 0.84334 0.23117 0.0
C127 C 0.29797 0.84112 0.21878 0.0
H128 H 0.2363 0.87396 0.23562 0.0
H129 H 0.2946 0.86582 0.19688 0.0
C130 C 0.255 0.96093 0.18824 0.0
N131 N 0.16145 0.96839 0.18977 0.0
C132 C 0.1334 0.95591 0.18449 0.0
C133 C 0.15838 1.00423 0.1911 0.0
N134 N 0.11241 0.98224 0.18287 0.0
C135 C 0.12799 1.01289 0.1869 0.0
C136 C 0.21108 0.96397 0.22691 0.0
O137 O 0.26269 0.93648 0.19699 0.0
O138 O 0.22543 0.9684 0.18746 0.0
O139 O 0.19359 0.97196 0.21588 0.0
O140 O 0.22843 0.93635 0.22488 0.0
O141 O 0.15844 0.91057 0.20593 0.0
H142 H 0.17631 1.02263 0.19575 0.0
H143 H 0.12773 0.92775 0.18304 0.0
O144 O 0.19443 0.87451 0.21329 0.0
O145 O 0.22934 0.87771 0.18791 0.0
O146 O 0.19046 0.90882 0.17908 0.0
C147 C 0.20923 0.88229 0.17755 0.0
H148 H 0.31883 0.82441 0.21726 0.0
H149 H 0.11785 0.03943 0.18734 0.0
Co150 Co 0.46845 0.96651 0.45002 0.0
C151 C 0.4068 1.0011 0.44793 0.0
Co152 Co 0.43136 0.94467 0.46402 0.0
C153 C 0.48888 1.00551 0.42597 0.0
C154 C 0.52406 1.00724 0.44355 0.0
N155 N 0.49736 0.99017 0.43871 0.0
N156 N 0.50778 1.03313 0.42314 0.0
C157 C 0.53054 1.0337 0.434 0.0
H158 H 0.4674 0.9984 0.41972 0.0
H159 H 0.53601 1.00346 0.45421 0.0
C160 C 0.49108 0.90549 0.46289 0.0
N161 N 0.40121 0.92224 0.47516 0.0
C162 C 0.38327 0.93632 0.48687 0.0
C163 C 0.39214 0.88774 0.47304 0.0
N164 N 0.36324 0.91202 0.49202 0.0
C165 C 0.36864 0.88145 0.48333 0.0
C166 C 0.43266 0.9165 0.43402 0.0
O167 O 0.49974 0.93059 0.45479 0.0
O168 O 0.46298 0.9073 0.46851 0.0
O169 O 0.41914 0.91708 0.44686 0.0
O170 O 0.45658 0.9363 0.43232 0.0
O171 O 0.39888 0.98038 0.45819 0.0
H172 H 0.40204 0.86832 0.46457 0.0
H173 H 0.38463 0.96393 0.49144 0.0
O174 O 0.43609 1.00139 0.44439 0.0
O175 O 0.48122 0.99614 0.46834 0.0
O176 O 0.44471 0.97306 0.48214 0.0
C177 C 0.46887 0.99312 0.48142 0.0
H178 H 0.54912 0.05344 0.43573 0.0
H179 H 0.3569 0.85623 0.48456 0.0
Co180 Co 0.41858 0.17004 0.71652 0.0
C181 C 0.48553 0.19047 0.71894 0.0
Co182 Co 0.45132 0.1297 0.70606 0.0
C183 C 0.36928 0.2077 0.73544 0.0
C184 C 0.39634 0.24179 0.72204 0.0
N185 N 0.3927 0.2073 0.72483 0.0
N186 N 0.35823 0.24119 0.73934 0.0
C187 C 0.37538 0.2625 0.73083 0.0
H188 H 0.36095 0.18394 0.74035 0.0
H189 H 0.41396 0.25155 0.71445 0.0
C190 C 0.3854 0.11401 0.69939 0.0
N191 N 0.47649 0.09226 0.69863 0.0
C192 C 0.49818 0.075 0.70666 0.0
C193 C 0.47062 0.07023 0.68604 0.0
N194 N 0.5048 0.04241 0.69993 0.0
C195 C 0.48803 0.03953 0.68682 0.0
C196 C 0.43297 0.11812 0.73668 0.0
O197 O 0.38062 0.14297 0.70789 0.0
O198 O 0.41378 0.10204 0.69883 0.0
O199 O 0.45056 0.10839 0.72537 0.0
O200 O 0.41606 0.14607 0.73575 0.0
O201 O 0.48916 0.15927 0.7121 0.0
H202 H 0.4534 0.07526 0.67732 0.0
H203 H 0.50755 0.0852 0.71765 0.0
O204 O 0.45726 0.1988 0.72346 0.0
O205 O 0.42076 0.19147 0.69793 0.0
O206 O 0.45149 0.14945 0.68706 0.0
C207 C 0.43545 0.17779 0.68625 0.0
H208 H 0.37398 0.29131 0.73132 0.0
H209 H 0.48846 1.01682 0.67838 0.0
Co210 Co 0.16845 0.10884 0.95979 0.0
C211 C 0.14134 0.17951 0.96517 0.0
Co212 Co 0.19685 0.15181 0.95041 0.0
C213 C 0.12705 0.07867 0.98269 0.0
C214 C 0.13653 0.04018 0.96396 0.0
N215 N 0.14349 0.07392 0.96924 0.0
N216 N 0.11006 0.04939 0.98601 0.0
C217 C 0.11629 1.02521 0.97411 0.0
H218 H 0.12753 0.10342 0.9899 0.0
H219 H 0.1451 1.02743 0.95325 0.0
C220 C 0.22428 0.08445 0.94202 0.0
N221 N 0.21963 0.18811 0.94275 0.0
C222 C 0.2059 0.21725 0.93779 0.0
C223 C 0.25063 0.19668 0.94446 0.0
N224 N 0.22646 0.24429 0.93707 0.0
C225 C 0.25494 0.23155 0.9409 0.0
C226 C 0.21487 0.13835 0.97955 0.0
O227 O 0.20126 0.07247 0.95002 0.0
O228 O 0.22664 0.11812 0.94181 0.0
O229 O 0.2206 0.15777 0.96871 0.0
O230 O 0.19287 0.11528 0.97805 0.0
O231 O 0.16697 0.18664 0.9586 0.0
H232 H 0.26829 0.17992 0.94926 0.0
H233 H 0.18062 0.21965 0.93592 0.0
O234 O 0.13653 0.14672 0.96762 0.0
O235 O 0.1454 0.10227 0.94183 0.0
O236 O 0.1727 0.14505 0.93209 0.0
C237 C 0.15174 0.12062 0.93069 0.0
H238 H 0.10637 0.99863 0.97252 0.0
H239 H 0.27653 0.24707 0.94222 0.0
Co240 Co 0.87856 0.93962 0.69765 0.0
C241 C 0.81615 0.95997 0.68766 0.0
Co242 Co 0.84102 0.90664 0.70595 0.0
C243 C 0.93831 0.95648 0.68609 0.0
C244 C 0.91081 1.00386 0.69107 0.0
N245 N 0.90937 0.96793 0.69051 0.0
N246 N 0.95824 0.98367 0.68422 0.0
C247 C 0.94105 1.01369 0.68721 0.0
H248 H 0.94515 0.92864 0.68525 0.0
H249 H 0.8917 1.02168 0.69485 0.0
C250 C 0.90486 0.88134 0.71248 0.0
N251 N 0.81088 0.87817 0.71397 0.0
C252 C 0.81359 0.86703 0.72809 0.0
C253 C 0.78505 0.8613 0.7079 0.0
N254 N 0.79104 0.84334 0.73113 0.0
C255 C 0.77268 0.83981 0.7185 0.0
C256 C 0.86311 0.88062 0.67828 0.0
O257 O 0.91179 0.91045 0.70676 0.0
O258 O 0.87523 0.87543 0.71432 0.0
O259 O 0.84221 0.87679 0.68835 0.0
O260 O 0.88131 0.90768 0.67965 0.0
O261 O 0.80771 0.93546 0.69621 0.0
H262 H 0.77653 0.86346 0.69638 0.0
H263 H 0.83236 0.87581 0.73592 0.0
O264 O 0.84573 0.96756 0.68749 0.0
O265 O 0.87661 0.97134 0.7163 0.0
O266 O 0.83955 0.93758 0.72462 0.0
C267 C 0.85765 0.96446 0.72694 0.0
H268 H 0.94986 0.0407 0.68705 0.0
H269 H 0.75262 0.82196 0.7168 0.0
Co270 Co 0.87572 0.1578 0.44924 0.0
C271 C 0.85026 0.08933 0.44085 0.0
Co272 Co 0.9056 0.11554 0.45834 0.0
C273 C 0.86184 0.22448 0.43823 0.0
C274 C 0.8189 0.19787 0.44343 0.0
N275 N 0.85064 0.19315 0.44221 0.0
N276 N 0.83885 0.24904 0.43759 0.0
C277 C 0.81152 0.23252 0.44049 0.0
H278 H 0.88681 0.23007 0.43678 0.0
H279 H 0.80259 0.17839 0.44737 0.0
C280 C 0.9308 0.18719 0.46366 0.0
N281 N 0.93257 0.08143 0.46722 0.0
C282 C 0.9458 0.08426 0.48152 0.0
C283 C 0.9469 0.05253 0.46016 0.0
N284 N 0.96797 0.05865 0.48353 0.0
C285 C 0.96853 0.03875 0.47002 0.0
C286 C 0.92053 0.1293 0.42904 0.0
O287 O 0.90472 0.19357 0.45729 0.0
O288 O 0.93652 0.15455 0.46611 0.0
O289 O 0.92781 0.11079 0.44002 0.0
O290 O 0.89895 0.15302 0.43064 0.0
O291 O 0.87385 0.07799 0.44868 0.0
H292 H 0.94294 0.04296 0.44835 0.0
H293 H 0.94053 0.10593 0.49004 0.0
O294 O 0.84691 0.12292 0.44076 0.0
O295 O 0.85281 0.16196 0.46778 0.0
O296 O 0.88181 0.12018 0.47689 0.0
C297 C 0.8592 0.1425 0.47852 0.0
H298 H 0.78846 0.2452 0.44147 0.0
H299 H 0.98401 1.01611 0.46731 0.0
Co300 Co 0.61985 0.12557 0.20471 0.0
C301 C 0.68505 0.10598 0.19854 0.0
Co302 Co 0.65419 0.1648 0.21498 0.0
C303 C 0.59868 0.05825 0.19024 0.0
C304 C 0.56361 0.08311 0.20509 0.0
N305 N 0.59184 0.08914 0.1985 0.0
N306 N 0.57637 1.03302 0.19169 0.0
C307 C 0.55389 0.04879 0.2008 0.0
H308 H 0.61999 0.05393 0.1835 0.0
H309 H 0.55182 0.10152 0.21336 0.0
C310 C 0.58878 0.18937 0.2172 0.0
N311 N 0.68246 0.20108 0.2225 0.0
C312 C 0.6989 0.2045 0.23584 0.0
C313 C 0.68977 0.23093 0.21562 0.0
N314 N 0.71613 0.235 0.23742 0.0
C315 C 0.7104 0.25155 0.22466 0.0
C316 C 0.63933 0.16942 0.184 0.0
O317 O 0.58397 0.15827 0.21053 0.0
O318 O 0.61736 0.19665 0.22149 0.0
O319 O 0.65321 0.18337 0.19587 0.0
O320 O 0.6205 0.14333 0.18507 0.0
O321 O 0.6906 0.13481 0.20696 0.0
H322 H 0.68037 0.238 0.20482 0.0
H323 H 0.69839 0.18505 0.24427 0.0
O324 O 0.65626 0.09528 0.19779 0.0
O325 O 0.61978 0.10609 0.22448 0.0
O326 O 0.65531 0.14297 0.23453 0.0
C327 C 0.63747 0.11598 0.23576 0.0
H328 H 0.53253 0.0361 0.20452 0.0
H329 H 0.71974 0.2773 0.22222 0.0
Co330 Co 0.63519 0.9433 0.96459 0.0
C331 C 0.57527 0.90362 0.96229 0.0
Co332 Co 0.59927 0.96293 0.94927 0.0
C333 C 0.68416 0.93637 0.98756 0.0
C334 C 0.6658 0.88619 0.97808 0.0
N335 N 0.6634 0.92177 0.97711 0.0
N336 N 0.69891 0.91117 0.9951 0.0
C337 C 0.68742 0.87963 0.9892 0.0
H338 H 0.68757 0.96483 0.98994 0.0
H339 H 0.65226 0.86624 0.97129 0.0
C340 C 0.66083 0.99827 0.94833 0.0
N341 N 0.57211 0.98531 0.93657 0.0
C342 C 0.58265 0.99905 0.9238 0.0
C343 C 0.54515 1.00327 0.94022 0.0
N344 N 0.56484 1.02666 0.91985 0.0
C345 C 0.5406 1.02871 0.92996 0.0
C346 C 0.59545 0.99264 0.98016 0.0
O347 O 0.66851 0.97809 0.95885 0.0
O348 O 0.63178 0.9979 0.94437 0.0
O349 O 0.58371 0.99325 0.96679 0.0
O350 O 0.62025 0.97395 0.98176 0.0
O351 O 0.56768 0.9273 0.9533 0.0
H352 H 0.53167 1.00086 0.95057 0.0
H353 H 0.60492 0.99105 0.91849 0.0
O354 O 0.60236 0.90679 0.96894 0.0
O355 O 0.64927 0.91353 0.94845 0.0
O356 O 0.61407 0.93175 0.93242 0.0
C357 C 0.63751 0.912 0.93518 0.0
H358 H 0.69411 0.85373 0.99276 0.0
H359 H 0.52217 0.0488 0.93074 0.0
Co360 Co 0.87924 0.12917 0.86132 0.0
C361 C 0.81725 0.10826 0.8713 0.0
Co362 Co 0.84149 0.16192 0.85299 0.0
C363 C 0.93914 0.11406 0.8732 0.0
C364 C 0.91311 0.06579 0.86792 0.0
N365 N 0.91061 0.10166 0.86857 0.0
N366 N 0.95983 0.08756 0.87511 0.0
C367 C 0.94357 0.05697 0.87193 0.0
H368 H 0.94517 0.14213 0.87416 0.0
H369 H 0.89459 0.04736 0.86398 0.0
C370 C 0.90481 0.18777 0.84645 0.0
N371 N 0.81073 0.18941 0.84486 0.0
C372 C 0.81264 0.19978 0.83059 0.0
C373 C 0.78359 0.20394 0.85062 0.0
N374 N 0.78791 0.22013 0.82702 0.0
C375 C 0.76948 0.22309 0.83963 0.0
C376 C 0.86308 0.18833 0.88062 0.0
O377 O 0.91196 0.15867 0.85214 0.0
O378 O 0.87515 0.19357 0.84462 0.0
O379 O 0.84215 0.19199 0.87053 0.0
O380 O 0.88155 0.16147 0.87926 0.0
O381 O 0.80869 0.13264 0.86272 0.0
H382 H 0.77483 0.20104 0.86204 0.0
H383 H 0.83244 0.19311 0.82305 0.0
O384 O 0.84688 0.10088 0.87155 0.0
O385 O 0.87765 0.09711 0.84275 0.0
O386 O 0.8405 0.13079 0.83439 0.0
C387 C 0.85863 0.10391 0.8321 0.0
H388 H 0.95316 1.03028 0.87207 0.0
H389 H 0.74746 0.23788 0.84082 0.0
Co390 Co 0.6353 0.12611 0.59375 0.0
C391 C 0.5754 0.16576 0.59593 0.0
Co392 Co 0.5993 0.10595 0.60886 0.0
C393 C 0.6852 0.13318 0.57128 0.0
C394 C 0.66628 0.18334 0.5805 0.0
N395 N 0.66392 0.14777 0.58148 0.0
N396 N 0.70027 0.15837 0.56388 0.0
C397 C 0.68842 0.1899 0.56963 0.0
H398 H 0.6888 0.10472 0.56897 0.0
H399 H 0.65242 0.20328 0.58714 0.0
C400 C 0.66074 0.07054 0.60997 0.0
N401 N 0.57165 0.0833 0.6212 0.0
C402 C 0.58159 0.06833 0.6338 0.0
C403 C 0.54427 0.06652 0.61727 0.0
N404 N 0.56292 0.04111 0.63736 0.0
C405 C 0.53883 0.04055 0.62718 0.0
C406 C 0.59581 0.07723 0.57778 0.0
O407 O 0.66853 0.09113 0.59961 0.0
O408 O 0.63159 0.07059 0.61372 0.0
O409 O 0.58397 0.07632 0.5911 0.0
O410 O 0.62072 0.0958 0.57635 0.0
O411 O 0.56793 0.14195 0.60488 0.0
H412 H 0.53102 0.07012 0.60694 0.0
H413 H 0.6039 0.0753 0.63932 0.0
O414 O 0.60252 0.16276 0.58932 0.0
O415 O 0.64901 0.15559 0.61014 0.0
O416 O 0.61389 0.13641 0.62597 0.0
C417 C 0.63725 0.15639 0.62339 0.0
H418 H 0.69524 0.2158 0.56614 0.0
H419 H 0.51989 1.02112 0.62611 0.0
Co420 Co 0.62607 0.94322 0.35586 0.0
C421 C 0.6914 0.96254 0.36184 0.0
Co422 Co 0.66016 0.90434 0.34522 0.0
C423 C 0.57791 0.9965 0.35489 0.0
C424 C 0.60473 1.00183 0.37573 0.0
N425 N 0.59957 0.97965 0.3631 0.0
N426 N 0.57074 1.02902 0.36153 0.0
C427 C 0.58702 1.03224 0.37478 0.0
H428 H 0.56913 0.98622 0.3438 0.0
H429 H 0.6219 0.99726 0.38453 0.0
C430 C 0.59419 0.88055 0.34317 0.0
N431 N 0.68847 0.86834 0.33731 0.0
C432 C 0.7005 0.86207 0.32299 0.0
C433 C 0.70213 0.84304 0.34526 0.0
N434 N 0.72112 0.83428 0.32185 0.0
C435 C 0.72199 0.82231 0.33588 0.0
C436 C 0.64606 0.89848 0.37612 0.0
O437 O 0.58959 0.91162 0.34999 0.0
O438 O 0.62275 0.87303 0.33878 0.0
O439 O 0.65973 0.88481 0.36416 0.0
O440 O 0.62715 0.92445 0.37519 0.0
O441 O 0.69694 0.93398 0.35323 0.0
H442 H 0.6983 0.83952 0.35721 0.0
H443 H 0.69483 0.87795 0.31361 0.0
O444 O 0.66259 0.97299 0.36279 0.0
O445 O 0.62554 0.96363 0.33631 0.0
O446 O 0.66069 0.927 0.32577 0.0
C447 C 0.64267 0.95401 0.32482 0.0
H448 H 0.58623 0.0551 0.38313 0.0
H449 H 0.73584 0.79991 0.33917 0.0
Co450 Co 0.87174 0.91371 0.11122 0.0
C451 C 0.84513 0.98162 0.11948 0.0
Co452 Co 0.90075 0.9563 0.10189 0.0
C453 C 0.85933 0.84691 0.12251 0.0
C454 C 0.81585 0.87269 0.11743 0.0
N455 N 0.84753 0.87802 0.11854 0.0
N456 N 0.83678 0.82192 0.12322 0.0
C457 C 0.80912 0.8379 0.12038 0.0
H458 H 0.88443 0.84171 0.12378 0.0
H459 H 0.79915 0.89179 0.11348 0.0
C460 C 0.92701 0.88505 0.09664 0.0
N461 N 0.92656 0.99088 0.09269 0.0
C462 C 0.9433 0.98612 0.07933 0.0
C463 C 0.93369 1.02449 0.09808 0.0
N464 N 0.96077 1.01521 0.07621 0.0
C465 C 0.9544 0.03933 0.08812 0.0
C466 C 0.91669 0.94374 0.13114 0.0
O467 O 0.90115 0.87835 0.10312 0.0
O468 O 0.93226 0.91776 0.09417 0.0
O469 O 0.92331 0.9621 0.12002 0.0
O470 O 0.89554 0.91948 0.12969 0.0
O471 O 0.86834 0.99331 0.11153 0.0
H472 H 0.92471 0.03734 0.10869 0.0
H473 H 0.94309 0.9613 0.07216 0.0
O474 O 0.84251 0.94801 0.11973 0.0
O475 O 0.84835 0.90873 0.09279 0.0
O476 O 0.87679 0.95068 0.0835 0.0
C477 C 0.85441 0.9281 0.08197 0.0
H478 H 0.78629 0.82474 0.11938 0.0
H479 H 0.96388 0.06612 0.08964 0.0
Co480 Co 0.72515 0.65996 0.85337 0.0
C481 C 0.66071 0.68447 0.84733 0.0
Co482 Co 0.68837 0.62566 0.86158 0.0
C483 C 0.7523 0.70063 0.83145 0.0
C484 C 0.78186 0.70397 0.85132 0.0
N485 N 0.75477 0.68935 0.84555 0.0
N486 N 0.77668 0.72155 0.82798 0.0
C487 C 0.79541 0.72401 0.8405 0.0
H488 H 0.73251 0.69388 0.82392 0.0
H489 H 0.79111 0.70027 0.86259 0.0
C490 C 0.75183 0.60622 0.87104 0.0
N491 N 0.65819 0.59572 0.86845 0.0
C492 C 0.62776 0.60427 0.87148 0.0
C493 C 0.65975 0.55996 0.869 0.0
N494 N 0.61005 0.57533 0.87351 0.0
C495 C 0.63004 0.5473 0.87224 0.0
C496 C 0.70923 0.60288 0.83193 0.0
O497 O 0.75933 0.63119 0.86256 0.0
O498 O 0.72236 0.59796 0.8714 0.0
O499 O 0.69067 0.59494 0.84256 0.0
O500 O 0.72671 0.63022 0.83441 0.0
O501 O 0.65433 0.65492 0.85286 0.0
H502 H 0.68071 0.54395 0.86644 0.0
H503 H 0.61847 0.63118 0.87184 0.0
O504 O 0.69024 0.69104 0.8455 0.0
O505 O 0.72391 0.68855 0.87134 0.0
O506 O 0.68542 0.65632 0.87991 0.0
C507 C 0.70375 0.68325 0.88159 0.0
H508 H 0.8174 0.7388 0.8417 0.0
H509 H 0.62336 0.51966 0.87293 0.0
Co510 Co 0.6685 0.45889 0.09984 0.0
C511 C 0.6411 0.38876 0.09503 0.0
Co512 Co 0.69687 0.41638 0.10969 0.0
C513 C 0.62701 0.4891 0.07684 0.0
C514 C 0.63758 0.52797 0.09527 0.0
N515 N 0.64382 0.49391 0.0902 0.0
N516 N 0.61051 0.51867 0.07338 0.0
C517 C 0.61742 0.54307 0.08511 0.0
H518 H 0.62691 0.46412 0.06978 0.0
H519 H 0.64661 0.5409 0.10586 0.0
C520 C 0.72476 0.48338 0.11757 0.0
N521 N 0.71942 0.37986 0.11742 0.0
C522 C 0.71988 0.34608 0.11096 0.0
C523 C 0.73212 0.37799 0.1314 0.0
N524 N 0.73022 0.32266 0.12061 0.0
C525 C 0.73866 0.34273 0.13342 0.0
C526 C 0.71509 0.42864 0.08038 0.0
O527 O 0.70188 0.49519 0.10939 0.0
O528 O 0.72682 0.44979 0.1181 0.0
O529 O 0.721 0.41007 0.09149 0.0
O530 O 0.69258 0.45119 0.08153 0.0
O531 O 0.66653 0.382 0.10185 0.0
H532 H 0.73316 0.40004 0.14012 0.0
H533 H 0.70886 0.33796 0.10008 0.0
O534 O 0.63629 0.42132 0.09224 0.0
O535 O 0.6457 0.46651 0.11788 0.0
O536 O 0.67258 0.42367 0.12796 0.0
C537 C 0.65183 0.44839 0.12913 0.0
H538 H 0.60804 0.56993 0.08656 0.0
H539 H 0.7447 0.33225 0.14419 0.0
Co540 Co 0.91426 0.40773 0.34597 0.0
C541 C 0.98097 0.38608 0.34315 0.0
Co542 Co 0.94795 0.44826 0.35539 0.0
C543 C 0.86537 0.36852 0.32762 0.0
C544 C 0.89073 0.33619 0.34248 0.0
N545 N 0.88801 0.37005 0.33861 0.0
N546 N 0.85395 0.33495 0.32445 0.0
C547 C 0.86998 0.31474 0.33389 0.0
H548 H 0.85799 0.39148 0.32183 0.0
H549 H 0.90771 0.32727 0.35059 0.0
C550 C 0.88197 0.4652 0.36226 0.0
N551 N 0.97349 0.48616 0.36188 0.0
C552 C 0.99506 0.50221 0.35335 0.0
C553 C 0.96808 0.50957 0.37407 0.0
N554 N 1.00208 0.53533 0.35939 0.0
C555 C 0.98566 0.53983 0.37257 0.0
C556 C 0.92892 0.45675 0.32457 0.0
O557 O 0.8768 0.43591 0.35409 0.0
O558 O 0.9105 0.4768 0.3626 0.0
O559 O 0.94651 0.46747 0.33573 0.0
O560 O 0.9117 0.4293 0.32608 0.0
O561 O 0.98543 0.41775 0.34939 0.0
H562 H 0.95111 0.50572 0.38303 0.0
H563 H 1.00413 0.49066 0.34251 0.0
O564 O 0.9523 0.3778 0.33936 0.0
O565 O 0.91649 0.38884 0.36532 0.0
O566 O 0.94908 0.43072 0.37472 0.0
C567 C 0.93225 0.40348 0.37648 0.0
H568 H 0.86809 0.28608 0.33414 0.0
H569 H 0.98654 0.56328 0.3806 0.0
Co570 Co 0.97632 0.60992 0.60758 0.0
C571 C 0.91672 0.57377 0.61154 0.0
Co572 Co 0.93753 0.63188 0.59465 0.0
C573 C 1.01517 0.55239 0.61485 0.0
C574 C 1.03474 0.60218 0.62406 0.0
N575 N 1.00939 0.58779 0.61655 0.0
N576 N 0.0433 0.5439 0.62087 0.0
C577 C 0.0556 0.57522 0.6268 0.0
H578 H 0.99919 0.5333 0.60902 0.0
H579 H 0.03803 0.63041 0.62713 0.0
C580 C 0.99538 0.67283 0.59431 0.0
N581 N 0.90447 0.65386 0.58497 0.0
C582 C 0.88516 0.64079 0.57354 0.0
C583 C 0.89553 0.68821 0.58785 0.0
N584 N 0.86462 0.66575 0.56914 0.0
C585 C 0.8711 0.69552 0.57824 0.0
C586 C 0.94259 0.65783 0.62514 0.0
O587 O 1.0052 0.64702 0.60164 0.0
O588 O 0.96667 0.67122 0.58951 0.0
O589 O 0.92734 0.65781 0.61273 0.0
O590 O 0.96731 0.63873 0.62592 0.0
O591 O 0.90774 0.5941 0.60124 0.0
H592 H 0.90637 0.70698 0.59629 0.0
H593 H 0.8868 0.61378 0.5683 0.0
O594 O 0.94638 0.57397 0.6147 0.0
O595 O 0.98633 0.58133 0.58871 0.0
O596 O 0.94894 0.6051 0.57568 0.0
C597 C 0.97305 0.58473 0.57589 0.0
H598 H 0.07765 0.57838 0.63309 0.0
H599 H 0.85914 0.72096 0.57803 0.0
Co600 Co 0.73056 0.40825 0.70521 0.0
C601 C 0.66644 0.38289 0.71135 0.0
Co602 Co 0.69331 0.44128 0.69656 0.0
C603 C 0.75713 0.36886 0.72764 0.0
C604 C 0.7862 0.36255 0.70765 0.0
N605 N 0.76046 0.37994 0.71355 0.0
N606 N 0.77913 0.34461 0.73082 0.0
C607 C 0.79785 0.34073 0.71832 0.0
H608 H 0.73816 0.37787 0.73531 0.0
H609 H 0.79499 0.36437 0.69616 0.0
C610 C 0.75627 0.46189 0.68711 0.0
N611 N 0.66234 0.469 0.68902 0.0
C612 C 0.63458 0.45606 0.68353 0.0
C613 C 0.65872 0.50478 0.69043 0.0
N614 N 0.61326 0.48203 0.68186 0.0
C615 C 0.62829 0.51292 0.68609 0.0
C616 C 0.71297 0.46618 0.72606 0.0
O617 O 0.76425 0.43727 0.69573 0.0
O618 O 0.72664 0.46953 0.68666 0.0
O619 O 0.69433 0.47307 0.71526 0.0
O620 O 0.73122 0.43936 0.72386 0.0
O621 O 0.65972 0.41184 0.70542 0.0
H622 H 0.67627 0.52345 0.69526 0.0
H623 H 0.6293 0.42781 0.68199 0.0
O624 O 0.69604 0.37699 0.71336 0.0
O625 O 0.73019 0.37817 0.68759 0.0
O626 O 0.69162 0.40937 0.67854 0.0
C627 C 0.70997 0.38244 0.67724 0.0
H628 H 0.81753 0.32229 0.71672 0.0
H629 H 0.61773 0.53926 0.68657 0.0
Co630 Co 0.97342 0.46149 0.95099 0.0
C631 C 0.91408 0.49784 0.94679 0.0
Co632 Co 0.93471 0.44039 0.96417 0.0
C633 C 1.01273 0.51805 0.94327 0.0
C634 C 1.03182 0.46776 0.93435 0.0
N635 N 1.00659 0.48274 0.94177 0.0
N636 N 0.04097 0.52594 0.93725 0.0
C637 C 0.05297 0.49431 0.93149 0.0
H638 H 0.99695 0.53751 0.94902 0.0
H639 H 1.03488 0.43941 0.93148 0.0
C640 C 0.99215 0.39915 0.96488 0.0
N641 N 0.90143 0.41964 0.9741 0.0
C642 C 0.88354 0.4339 0.98582 0.0
C643 C 0.88986 0.38634 0.97098 0.0
N644 N 0.86121 0.41089 0.99002 0.0
C645 C 0.86503 0.38099 0.98068 0.0
C646 C 0.93935 0.41292 0.93388 0.0
O647 O 1.00206 0.42451 0.95731 0.0
O648 O 0.96343 0.40106 0.96964 0.0
O649 O 0.92417 0.41375 0.94633 0.0
O650 O 0.96414 0.43178 0.93291 0.0
O651 O 0.90521 0.47811 0.95731 0.0
H652 H 0.89906 0.36697 0.96229 0.0
H653 H 0.88669 0.46069 0.99114 0.0
O654 O 0.94368 0.49728 0.94352 0.0
O655 O 0.98376 0.49095 0.9696 0.0
O656 O 0.94654 0.46787 0.9829 0.0
C657 C 0.97065 0.48808 0.98249 0.0
H658 H 0.07507 0.49063 0.92529 0.0
H659 H 0.8514 0.35669 0.98112 0.0
Co660 Co 0.91814 0.66491 0.21271 0.0
C661 C 0.98474 0.68627 0.21565 0.0
Co662 Co 0.95155 0.62389 0.20347 0.0
C663 C 0.86872 0.70298 0.23082 0.0
C664 C 0.8932 0.73624 0.21605 0.0
N665 N 0.89156 0.70233 0.21996 0.0
N666 N 0.85612 0.736 0.23385 0.0
C667 C 0.87152 0.75686 0.22448 0.0
H668 H 0.86186 0.67976 0.23655 0.0
H669 H 0.90988 0.74573 0.20794 0.0
C670 C 0.88571 0.60729 0.19651 0.0
N671 N 0.97717 0.58596 0.19708 0.0
C672 C 0.99907 0.57031 0.2056 0.0
C673 C 0.97177 0.56229 0.18498 0.0
N674 N 1.00637 0.53719 0.19963 0.0
C675 C 0.98973 0.53229 0.18651 0.0
C676 C 0.93221 0.6157 0.23421 0.0
O677 O 0.88078 0.63681 0.20454 0.0
O678 O 0.91414 0.59535 0.19624 0.0
O679 O 0.94998 0.60473 0.22316 0.0
O680 O 0.91531 0.64336 0.23259 0.0
O681 O 0.98905 0.65446 0.20951 0.0
H682 H 0.95465 0.56583 0.17604 0.0
H683 H 1.00826 0.58217 0.21636 0.0
O684 O 0.9561 0.69484 0.2194 0.0
O685 O 0.92063 0.68381 0.1934 0.0
O686 O 0.95275 0.6413 0.1841 0.0
C687 C 0.93626 0.6688 0.18228 0.0
H688 H 0.86845 0.7854 0.2242 0.0
H689 H 0.99078 0.50877 0.17853 0.0
Co690 Co 0.66739 0.61475 0.46003 0.0
C691 C 0.64008 0.68544 0.46442 0.0
Co692 Co 0.69596 0.6569 0.45017 0.0
C693 C 0.62563 0.58449 0.48294 0.0
C694 C 0.63574 0.54611 0.46425 0.0
N695 N 0.64224 0.57997 0.46952 0.0
N696 N 0.60903 0.55489 0.48625 0.0
C697 C 0.61564 0.53083 0.47436 0.0
H698 H 0.62577 0.60924 0.49015 0.0
H699 H 0.64463 0.53343 0.45359 0.0
C700 C 0.72352 0.5895 0.44246 0.0
N701 N 0.71935 0.69285 0.4427 0.0
C702 C 0.7211 0.72609 0.44964 0.0
C703 C 0.73275 0.69501 0.42889 0.0
N704 N 0.73303 0.74965 0.44047 0.0
C705 C 0.74106 0.73006 0.42747 0.0
C706 C 0.71376 0.64464 0.4797 0.0
O707 O 0.70037 0.57792 0.4505 0.0
O708 O 0.72604 0.62309 0.44211 0.0
O709 O 0.71929 0.66334 0.4686 0.0
O710 O 0.6915 0.62181 0.47848 0.0
O711 O 0.66553 0.69184 0.45756 0.0
H712 H 0.73337 0.67346 0.41993 0.0
H713 H 0.71002 0.73395 0.46053 0.0
O714 O 0.63538 0.65302 0.46753 0.0
O715 O 0.64476 0.60762 0.44189 0.0
O716 O 0.6725 0.64955 0.43167 0.0
C717 C 0.65145 0.62519 0.43054 0.0
H718 H 0.60615 0.50405 0.47276 0.0
H719 H 0.74819 0.74102 0.41696 0.0
Co720 Co 0.38409 0.44251 0.19702 0.0
C721 C 0.32105 0.46202 0.18716 0.0
Co722 Co 0.34669 0.40941 0.2055 0.0
C723 C 0.44495 0.46402 0.18734 0.0
C724 C 0.41238 0.50785 0.18927 0.0
N725 N 0.41435 0.47219 0.19009 0.0
N726 N 0.46234 0.49314 0.1852 0.0
C727 C 0.44199 0.52084 0.18612 0.0
H728 H 0.45454 0.43727 0.18724 0.0
H729 H 0.39118 0.52362 0.19157 0.0
C730 C 0.41081 0.38489 0.21197 0.0
N731 N 0.31692 0.38018 0.21339 0.0
C732 C 0.31947 0.36865 0.22746 0.0
C733 C 0.29102 0.36365 0.20722 0.0
N734 N 0.29666 0.34515 0.23039 0.0
C735 C 0.2784 0.34205 0.21771 0.0
C736 C 0.36922 0.38376 0.17766 0.0
O737 O 0.41767 0.41387 0.20612 0.0
O738 O 0.38122 0.37884 0.21385 0.0
O739 O 0.34845 0.37989 0.1878 0.0
O740 O 0.38749 0.41081 0.17896 0.0
O741 O 0.31293 0.43765 0.19583 0.0
H742 H 0.28247 0.36632 0.19574 0.0
H743 H 0.33815 0.37724 0.23537 0.0
O744 O 0.35059 0.46974 0.18685 0.0
O745 O 0.38152 0.47397 0.21576 0.0
O746 O 0.34475 0.44 0.22421 0.0
C747 C 0.36271 0.467 0.22645 0.0
H748 H 0.44831 0.54851 0.18523 0.0
H749 H 0.2581 0.32458 0.21593 0.0
Co750 Co 0.37229 0.65398 0.947 0.0
C751 C 0.34477 0.58611 0.93972 0.0
Co752 Co 0.40076 0.61171 0.95695 0.0
C753 C 0.34576 0.7227 0.94493 0.0
C754 C 0.33589 0.68884 0.92472 0.0
N755 N 0.34872 0.6889 0.93876 0.0
N756 N 0.33363 0.74469 0.935 0.0
C757 C 0.32663 0.72309 0.92237 0.0
H758 H 0.35524 0.73161 0.95604 0.0
H759 H 0.336 0.6662 0.91627 0.0
C760 C 0.42756 0.68291 0.9613 0.0
N761 N 0.42598 0.57749 0.96682 0.0
C762 C 0.44327 0.58276 0.98002 0.0
C763 C 0.43193 0.54324 0.96195 0.0
N764 N 0.45996 0.55333 0.98352 0.0
C765 C 0.45247 0.52851 0.97204 0.0
C766 C 0.41747 0.6215 0.92763 0.0
O767 O 0.40217 0.6895 0.95435 0.0
O768 O 0.43232 0.65043 0.96433 0.0
O769 O 0.42375 0.60393 0.93902 0.0
O770 O 0.39642 0.64592 0.92863 0.0
O771 O 0.36802 0.57451 0.9477 0.0
H772 H 0.42225 0.52984 0.95161 0.0
H773 H 0.44404 0.60812 0.9868 0.0
O774 O 0.34259 0.61963 0.93911 0.0
O775 O 0.34856 0.66111 0.96536 0.0
O776 O 0.37651 0.61931 0.97512 0.0
C777 C 0.35431 0.64222 0.9764 0.0
H778 H 0.31916 0.73197 0.91149 0.0
H779 H 0.46106 0.50129 0.9709 0.0
Co780 Co 0.11577 0.62309 0.70437 0.0
C781 C 0.18118 0.60528 0.69734 0.0
Co782 Co 0.14979 0.66352 0.71402 0.0
C783 C 0.09523 0.55512 0.6902 0.0
C784 C 0.06007 0.57955 0.70512 0.0
N785 N 0.08819 0.58594 0.69848 0.0
N786 N 0.07311 0.52968 0.69163 0.0
C787 C 0.05058 0.54516 0.70079 0.0
H788 H 0.11645 0.55107 0.68337 0.0
H789 H 0.04809 0.59784 0.71336 0.0
C790 C 0.08406 0.68646 0.71716 0.0
N791 N 0.17764 0.70002 0.72138 0.0
C792 C 0.19957 0.70026 0.73271 0.0
C793 C 0.1782 0.73353 0.71692 0.0
N794 N 0.21372 0.73257 0.73547 0.0
C795 C 0.20026 0.75341 0.72546 0.0
C796 C 0.13131 0.66821 0.68354 0.0
O797 O 0.0794 0.65476 0.71103 0.0
O798 O 0.11281 0.69473 0.72073 0.0
O799 O 0.1477 0.68218 0.69466 0.0
O800 O 0.11391 0.64129 0.68521 0.0
O801 O 0.18644 0.63404 0.70585 0.0
H802 H 0.16283 0.74332 0.70831 0.0
H803 H 0.20478 0.67726 0.73894 0.0
O804 O 0.1525 0.59414 0.69659 0.0
O805 O 0.11811 0.60297 0.72365 0.0
O806 O 0.15172 0.64204 0.73379 0.0
C807 C 0.13547 0.61371 0.73489 0.0
H808 H 1.02925 0.53227 0.70443 0.0
H809 H 0.20499 0.78153 0.72474 0.0
Co810 Co 0.13783 0.44786 0.46378 0.0
C811 C 0.07844 0.40785 0.462 0.0
Co812 Co 0.10162 0.46765 0.44868 0.0
C813 C 0.18618 0.4413 0.4868 0.0
C814 C 0.17512 0.39141 0.47438 0.0
N815 N 0.1672 0.42636 0.47567 0.0
N816 N 0.20585 0.41706 0.49232 0.0
C817 C 0.19902 0.38568 0.48453 0.0
H818 H 0.18598 0.46945 0.4906 0.0
H819 H 0.16434 0.37139 0.46646 0.0
C820 C 0.16309 0.50296 0.44734 0.0
N821 N 0.07354 0.49015 0.43647 0.0
C822 C 0.08318 0.50477 0.42375 0.0
C823 C 0.0464 0.50729 0.44054 0.0
N824 N 0.06464 0.53218 0.42023 0.0
C825 C 0.04085 0.53317 0.43058 0.0
C826 C 0.09869 0.49685 0.47978 0.0
O827 O 0.17058 0.48309 0.45798 0.0
O828 O 0.13405 0.50259 0.44334 0.0
O829 O 0.08705 0.49792 0.46641 0.0
O830 O 0.12329 0.47778 0.48131 0.0
O831 O 0.07034 0.43179 0.4532 0.0
H832 H 1.03346 0.50404 0.45098 0.0
H833 H 0.1053 0.49746 0.41812 0.0
O834 O 0.10591 0.41077 0.46829 0.0
O835 O 0.15134 0.41895 0.44719 0.0
O836 O 0.11522 0.43676 0.43158 0.0
C837 C 0.13901 0.41734 0.43405 0.0
H838 H 0.21021 0.36036 0.48624 0.0
H839 H 1.02208 0.55282 0.43174 0.0
Co840 Co 0.38722 0.62783 0.36154 0.0
C841 C 0.32408 0.60846 0.37104 0.0
Co842 Co 0.35022 0.66184 0.35328 0.0
C843 C 0.44803 0.60548 0.37097 0.0
C844 C 0.41531 0.56189 0.36887 0.0
N845 N 0.41738 0.5976 0.36824 0.0
N846 N 0.46535 0.57616 0.37292 0.0
C847 C 0.44491 0.54859 0.3719 0.0
H848 H 0.45772 0.63219 0.37124 0.0
H849 H 0.39403 0.54631 0.36654 0.0
C850 C 0.4144 0.68641 0.34721 0.0
N851 N 0.32035 0.69123 0.34564 0.0
C852 C 0.32234 0.70261 0.33155 0.0
C853 C 0.29319 0.70541 0.35154 0.0
N854 N 0.29755 0.72312 0.32819 0.0
C855 C 0.27909 0.72526 0.34079 0.0
C856 C 0.37187 0.68533 0.3815 0.0
O857 O 0.42099 0.65693 0.35276 0.0
O858 O 0.38485 0.69288 0.34536 0.0
O859 O 0.35165 0.69025 0.37121 0.0
O860 O 0.39046 0.65857 0.3799 0.0
O861 O 0.31637 0.63323 0.36251 0.0
H862 H 0.28421 0.70143 0.36282 0.0
H863 H 0.34202 0.69609 0.32391 0.0
O864 O 0.35354 0.60027 0.37141 0.0
O865 O 0.38463 0.59714 0.34254 0.0
O866 O 0.3484 0.63223 0.33434 0.0
C867 C 0.36593 0.60491 0.33191 0.0
H868 H 0.45116 0.52084 0.37268 0.0
H869 H 0.25685 0.73959 0.34207 0.0
Co870 Co 0.1368 0.62598 0.09398 0.0
C871 C 0.0767 0.66532 0.09637 0.0
Co872 Co 0.1011 0.60569 0.10923 0.0
C873 C 0.18664 0.63469 0.07149 0.0
C874 C 0.16794 0.68405 0.0816 0.0
N875 N 0.16514 0.64836 0.08178 0.0
N876 N 0.20276 0.6606 0.0649 0.0
C877 C 0.19082 0.69163 0.07127 0.0
H878 H 0.19042 0.60633 0.069 0.0
H879 H 0.15406 0.70345 0.08853 0.0
C880 C 0.16291 0.57075 0.11013 0.0
N881 N 0.07387 0.5827 0.12167 0.0
C882 C 0.08427 0.56834 0.13433 0.0
C883 C 0.04687 0.56505 0.11783 0.0
N884 N 0.06632 0.54065 0.13803 0.0
C885 C 0.04215 0.53917 0.12786 0.0
C886 C 0.09748 0.57683 0.07815 0.0
O887 O 0.17034 0.59117 0.09965 0.0
O888 O 0.13384 0.57074 0.11405 0.0
O889 O 0.08594 0.57584 0.09154 0.0
O890 O 0.12214 0.59575 0.07656 0.0
O891 O 0.06931 0.64141 0.10529 0.0
H892 H 1.03347 0.568 0.10749 0.0
H893 H 0.1065 0.57603 0.13976 0.0
O894 O 0.10381 0.66246 0.08974 0.0
O895 O 0.15053 0.65525 0.11043 0.0
O896 O 0.11548 0.63623 0.1263 0.0
C897 C 0.13887 0.65609 0.1237 0.0
H898 H 0.19755 0.71811 0.06849 0.0
H899 H 1.02367 0.51919 0.12689 0.0
Co900 Co 0.11506 0.44616 0.85522 0.0
C901 C 0.18049 0.46351 0.86232 0.0
Co902 Co 0.14895 0.40526 0.84573 0.0
C903 C 0.09481 0.51464 0.86895 0.0
C904 C 0.0596 0.49007 0.85409 0.0
N905 N 0.0876 0.48363 0.86086 0.0
N906 N 0.07292 0.54025 0.86727 0.0
C907 C 0.05035 0.5247 0.85816 0.0
H908 H 0.11599 0.5187 0.87581 0.0
H909 H 0.04757 0.47165 0.84593 0.0
C910 C 0.08332 0.38281 0.84245 0.0
N911 N 0.17683 0.36824 0.83863 0.0
C912 C 0.19519 0.36539 0.82589 0.0
C913 C 0.18169 0.33722 0.84507 0.0
N914 N 0.21124 0.33406 0.82422 0.0
C915 C 0.20281 0.31642 0.83634 0.0
C916 C 0.12999 0.40143 0.87627 0.0
O917 O 0.07867 0.41456 0.84853 0.0
O918 O 0.11207 0.37432 0.83897 0.0
O919 O 0.14634 0.38713 0.86522 0.0
O920 O 0.11282 0.42849 0.87447 0.0
O921 O 0.18561 0.43455 0.85391 0.0
H922 H 0.17016 0.3296 0.8553 0.0
H923 H 0.19685 0.38585 0.81794 0.0
O924 O 0.15188 0.47492 0.863 0.0
O925 O 0.1177 0.46585 0.83588 0.0
O926 O 0.15122 0.42647 0.8259 0.0
C927 C 0.1351 0.45488 0.8247 0.0
H928 H 1.02917 0.53767 0.85436 0.0
H929 H 0.21059 0.28983 0.83851 0.0
Co930 Co 0.37033 0.4145 0.61075 0.0
C931 C 0.34426 0.48226 0.61932 0.0
Co932 Co 0.40002 0.45669 0.6016 0.0
C933 C 0.35688 0.34644 0.62071 0.0
C934 C 0.31384 0.37495 0.61755 0.0
N935 N 0.34576 0.37858 0.61766 0.0
N936 N 0.33354 0.32257 0.62192 0.0
C937 C 0.30619 0.34033 0.62038 0.0
H938 H 0.38185 0.3401 0.62155 0.0
H939 H 0.29732 0.39546 0.61472 0.0
C940 C 0.42552 0.3855 0.59602 0.0
N941 N 0.4261 0.49145 0.59263 0.0
C942 C 0.44293 0.48713 0.57927 0.0
C943 C 0.43309 0.52498 0.59818 0.0
N944 N 0.4603 0.51644 0.57631 0.0
C945 C 0.45378 0.54021 0.58832 0.0
C946 C 0.41581 0.4429 0.63075 0.0
O947 O 0.39909 0.37903 0.60203 0.0
O948 O 0.43159 0.41827 0.59401 0.0
O949 O 0.42206 0.46217 0.61988 0.0
O950 O 0.3948 0.4185 0.62908 0.0
O951 O 0.36723 0.49377 0.61115 0.0
H952 H 0.42396 0.53754 0.60882 0.0
H953 H 0.44278 0.46251 0.57197 0.0
O954 O 0.34188 0.44872 0.61983 0.0
O955 O 0.34617 0.41149 0.5926 0.0
O956 O 0.37675 0.45113 0.58303 0.0
C957 C 0.35317 0.43016 0.58168 0.0
H958 H 0.28271 0.32876 0.62063 0.0
H959 H 0.4631 0.56705 0.58999 0.0
H960 H 0.24335 0.24014 0.39006 0.0
H961 H 0.14782 0.20285 0.39691 0.0
H962 H 0.22852 0.29916 0.40035 0.0
H963 H 0.13337 0.26185 0.40856 0.0
H964 H 0.19877 0.39374 0.43188 0.0
H965 H 0.21515 0.33557 0.42124 0.0
H966 H 0.12281 0.31932 0.40015 0.0
H967 H 0.10556 0.3773 0.41211 0.0
C968 C 0.21943 0.24428 0.3944 0.0
C969 C 0.19658 0.21716 0.39249 0.0
C970 C 0.21086 0.27825 0.40028 0.0
C971 C 0.1795 0.28551 0.40493 0.0
C972 C 0.15744 0.25735 0.40454 0.0
C973 C 0.1659 0.22334 0.39829 0.0
C974 C 0.1822 0.37808 0.42465 0.0
C975 C 0.15084 0.38956 0.42293 0.0
C976 C 0.19158 0.34464 0.41853 0.0
C977 C 0.17008 0.32238 0.41011 0.0
C978 C 0.13958 0.33545 0.40703 0.0
C979 C 0.12991 0.36892 0.4135 0.0
H980 H 0.12397 1.01654 0.63982 0.0
H981 H 0.14014 0.90932 0.65261 0.0
H982 H 0.08338 1.02535 0.65929 0.0
H983 H 0.0994 0.91836 0.6724 0.0
H984 H 0.98757 0.92726 0.6694 0.0
H985 H 0.04318 0.92129 0.66342 0.0
H986 H 0.06085 1.0263 0.68565 0.0
H987 H 1.00449 1.03205 0.6921 0.0
C988 C 0.11938 0.9952 0.64712 0.0
C989 C 0.1341 0.96178 0.6444 0.0
C990 C 0.09652 1.00048 0.65845 0.0
C991 C 0.08792 0.97227 0.66711 0.0
C992 C 0.10547 0.94032 0.66568 0.0
C993 C 0.12858 0.9351 0.65435 0.0
C994 C 1.00328 0.94875 0.67344 0.0
C995 C 0.99154 0.98028 0.6811 0.0
C996 C 1.03532 0.94515 0.67014 0.0
C997 C 0.05636 0.97318 0.67425 0.0
C998 C 0.045 1.00427 0.68243 0.0
C999 C 1.01277 1.00777 0.68588 0.0
H1000 H 0.44887 0.83624 0.88934 0.0
H1001 H 0.39486 0.93392 0.89544 0.0
H1002 H 0.4223 0.81431 0.91154 0.0
H1003 H 0.36688 0.9112 0.91715 0.0
H1004 H 0.30471 0.79309 0.91832 0.0
H1005 H 0.33136 0.84575 0.90997 0.0
H1006 H 0.40565 0.83395 0.94296 0.0
H1007 H 0.37914 0.78233 0.95152 0.0
C1008 C 0.43225 0.85345 0.89585 0.0
C1009 C 0.42393 0.88664 0.89097 0.0
C1010 C 0.41712 0.8411 0.9085 0.0
C1011 C 0.3928 0.86136 0.91599 0.0
C1012 C 0.3859 0.89554 0.91166 0.0
C1013 C 0.40182 0.90838 0.89931 0.0
C1014 C 0.3259 0.80271 0.92429 0.0
C1015 C 0.34061 0.78225 0.93499 0.0
C1016 C 0.34098 0.83304 0.91962 0.0
C1017 C 0.37082 0.84301 0.92564 0.0
C1018 C 0.38271 0.82642 0.93813 0.0
C1019 C 0.36743 0.79651 0.94294 0.0
H1020 H 0.5245 0.99346 0.18329 0.0
H1021 H 0.62674 0.99067 0.18295 0.0
H1022 H 0.52318 0.94985 0.16175 0.0
H1023 H 0.62554 0.94628 0.16114 0.0
H1024 H 0.5095 0.97889 0.12237 0.0
H1025 H 0.52697 0.92982 0.13662 0.0
H1026 H 0.62111 0.97477 0.13934 0.0
H1027 H 0.60398 1.02294 0.12479 0.0
C1028 C 0.54679 0.98262 0.17891 0.0
C1029 C 0.57572 0.99794 0.18379 0.0
C1030 C 0.54622 0.95711 0.16645 0.0
C1031 C 0.57448 0.94877 0.15824 0.0
C1032 C 0.60322 0.95541 0.16617 0.0
C1033 C 0.60399 0.98124 0.17856 0.0
C1034 C 0.53425 0.97767 0.12553 0.0
C1035 C 0.55474 1.00665 0.12387 0.0
C1036 C 0.5444 0.94927 0.13369 0.0
C1037 C 0.57387 0.95179 0.14129 0.0
C1038 C 0.59687 0.97414 0.13528 0.0
C1039 C 0.58704 1.00239 0.12706 0.0
H1040 H 0.24816 0.82649 0.17005 0.0
H1041 H 0.15549 0.8691 0.16064 0.0
H1042 H 0.23152 0.76806 0.1596 0.0
H1043 H 0.13934 0.81065 0.14911 0.0
H1044 H 0.10641 0.69711 0.14561 0.0
H1045 H 0.12569 0.75374 0.15809 0.0
H1046 H 0.21813 0.73307 0.13776 0.0
H1047 H 0.19947 0.67633 0.12634 0.0
C1048 C 0.22456 0.82361 0.16519 0.0
C1049 C 0.20295 0.85214 0.16633 0.0
C1050 C 0.21496 0.79003 0.15924 0.0
C1051 C 0.18382 0.78453 0.1539 0.0
C1052 C 0.16315 0.81388 0.15366 0.0
C1053 C 0.17264 0.84753 0.15987 0.0
C1054 C 0.13115 0.7042 0.14448 0.0
C1055 C 0.1515 0.68284 0.13503 0.0
C1056 C 0.14201 0.73686 0.15126 0.0
C1057 C 0.17318 0.74828 0.14853 0.0
C1058 C 0.19405 0.72518 0.14014 0.0
C1059 C 0.18338 0.69261 0.1336 0.0
H1060 H 0.57819 0.10043 0.35976 0.0
H1061 H 0.51043 1.01503 0.35223 0.0
H1062 H 0.5354 0.14086 0.36832 0.0
H1063 H 0.46841 0.05579 0.36098 0.0
H1064 H 0.54884 0.0833 0.4143 0.0
H1065 H 0.54418 0.11645 0.39228 0.0
H1066 H 0.44863 0.07679 0.38462 0.0
H1067 H 0.45346 0.0435 0.40682 0.0
C1068 C 0.55399 0.09075 0.35921 0.0
C1069 C 0.54775 0.05395 0.35683 0.0
C1070 C 0.52927 0.11392 0.36399 0.0
C1071 C 0.50098 0.09834 0.36875 0.0
C1072 C 0.49206 0.0666 0.36007 0.0
C1073 C 0.51614 0.04291 0.35499 0.0
C1074 C 0.52655 0.08203 0.40817 0.0
C1075 C 0.50244 0.0586 0.4119 0.0
C1076 C 0.52356 0.10158 0.39541 0.0
C1077 C 0.49678 0.09704 0.38569 0.0
C1078 C 0.47036 0.07929 0.39121 0.0
C1079 C 0.4734 0.05959 0.40395 0.0
H1080 H 0.30573 0.28644 0.64342 0.0
H1081 H 0.37393 0.27739 0.60678 0.0
H1082 H 0.33171 0.23706 0.65505 0.0
H1083 H 0.40041 0.22864 0.61854 0.0
H1084 H 0.41903 0.13819 0.66023 0.0
H1085 H 0.38742 0.16041 0.63938 0.0
H1086 H 0.40072 0.26835 0.65912 0.0
H1087 H 0.43165 0.2464 0.67992 0.0
C1088 C 0.32499 0.27238 0.63739 0.0
C1089 C 0.33858 0.28601 0.62456 0.0
C1090 C 0.33985 0.24424 0.644 0.0
C1091 C 0.36817 0.2298 0.6377 0.0
C1092 C 0.37852 0.23942 0.62349 0.0
C1093 C 0.36357 0.26739 0.61687 0.0
C1094 C 0.41634 0.16674 0.65965 0.0
C1095 C 0.42768 0.19083 0.67152 0.0
C1096 C 0.39797 0.17923 0.64792 0.0
C1097 C 0.39132 0.21575 0.64806 0.0
C1098 C 0.40535 0.23994 0.65907 0.0
C1099 C 0.42329 0.22755 0.67079 0.0
H1100 H 0.13883 0.16674 0.90897 0.0
H1101 H 0.12546 0.05794 0.92025 0.0
H1102 H 0.09874 0.15765 0.88882 0.0
H1103 H 0.08556 0.04901 0.90044 0.0
H1104 H 1.00767 0.0412 0.86723 0.0
H1105 H 0.06367 0.04872 0.87414 0.0
H1106 H 0.04241 0.15229 0.89694 0.0
H1107 H 0.98714 0.14458 0.89045 0.0
C1108 C 0.12806 0.14064 0.9068 0.0
C1109 C 0.13414 0.11341 0.91641 0.0
C1110 C 0.1053 0.1354 0.89528 0.0
C1111 C 0.08869 0.10288 0.89332 0.0
C1112 C 0.09795 0.07433 0.90167 0.0
C1113 C 0.12042 0.07964 0.91319 0.0
C1114 C 1.01509 0.06555 0.87367 0.0
C1115 C 0.99295 0.09209 0.87847 0.0
C1116 C 0.04712 0.07008 0.87739 0.0
C1117 C 0.05737 0.10125 0.8859 0.0
C1118 C 1.03542 0.1284 0.89001 0.0
C1119 C 1.00358 0.12379 0.88641 0.0
H1120 H 0.91581 0.86981 0.66017 0.0
H1121 H 0.82969 0.81929 0.67426 0.0
H1122 H 0.93571 0.81182 0.64983 0.0
H1123 H 0.85058 0.76178 0.66554 0.0
H1124 H 0.88237 0.66911 0.6332 0.0
H1125 H 0.86175 0.72419 0.64509 0.0
H1126 H 0.95716 0.75828 0.65752 0.0
H1127 H 0.97795 0.70333 0.64417 0.0
C1128 C 0.90092 0.84649 0.66079 0.0
C1129 C 0.87127 0.84908 0.66807 0.0
C1130 C 0.91266 0.81313 0.65528 0.0
C1131 C 0.89514 0.78191 0.6572 0.0
C1132 C 0.86475 0.78505 0.6637 0.0
C1133 C 0.85268 0.81825 0.66872 0.0
C1134 C 0.89884 0.68791 0.63893 0.0
C1135 C 0.93163 0.68246 0.6377 0.0
C1136 C 0.88704 0.71967 0.64578 0.0
C1137 C 0.90782 0.74622 0.65199 0.0
C1138 C 0.9406 0.73884 0.65236 0.0
C1139 C 0.95252 0.70707 0.64513 0.0
H1140 H 0.92577 0.06495 0.41368 0.0
H1141 H 0.95149 0.17568 0.41213 0.0
H1142 H 0.96372 0.04804 0.39341 0.0
H1143 H 0.99071 0.15893 0.39238 0.0
H1144 H 0.06502 0.12418 0.36019 0.0
H1145 H 1.00986 0.13278 0.36808 0.0
H1146 H 1.01969 0.04708 0.39783 0.0
H1147 H 0.07441 0.03836 0.3897 0.0
C1148 C 0.93909 0.08569 0.40864 0.0
C1149 C 0.93649 0.12142 0.41447 0.0
C1150 C 0.96079 0.07607 0.39711 0.0
C1151 C 0.98077 0.10199 0.39162 0.0
C1152 C 0.97559 0.13829 0.39634 0.0
C1153 C 0.95333 0.14799 0.40769 0.0
C1154 C 0.05503 0.10686 0.36822 0.0
C1155 C 0.07395 0.08122 0.3747 0.0
C1156 C 1.02352 0.11166 0.37266 0.0
C1157 C 1.01055 0.09101 0.38372 0.0
C1158 C 1.02878 0.06324 0.38915 0.0
C1159 C 0.06021 0.05829 0.3846 0.0
H1160 H 0.66894 0.30469 0.11859 0.0
H1161 H 0.76283 0.26178 0.12347 0.0
H1162 H 0.64588 0.25128 0.12747 0.0
H1163 H 0.73986 0.20628 0.13129 0.0
H1164 H 0.69967 0.18437 0.17838 0.0
H1165 H 0.72217 0.20611 0.15599 0.0
H1166 H 0.63162 0.19321 0.13278 0.0
H1167 H 0.60851 0.17177 0.15613 0.0
C1168 C 0.68454 0.28276 0.12079 0.0
C1169 C 0.7176 0.28737 0.1208 0.0
C1170 C 0.67131 0.25185 0.12579 0.0
C1171 C 0.69105 0.225 0.1308 0.0
C1172 C 0.72402 0.22723 0.12818 0.0
C1173 C 0.73729 0.25875 0.12366 0.0
C1174 C 0.68443 0.186 0.1685 0.0
C1175 C 0.65199 0.17812 0.16918 0.0
C1176 C 0.69763 0.19768 0.15538 0.0
C1177 C 0.67876 0.20195 0.14246 0.0
C1178 C 0.64674 0.19085 0.14263 0.0
C1179 C 0.63342 0.17877 0.15595 0.0
H1180 H 0.50153 0.09734 0.8563 0.0
H1181 H 0.56435 1.00699 0.84912 0.0
H1182 H 0.54666 0.13483 0.86433 0.0
H1183 H 0.60865 0.04502 0.85735 0.0
H1184 H 0.62026 1.03082 0.90352 0.0
H1185 H 0.62836 0.06303 0.88128 0.0
H1186 H 0.53646 0.113 0.88855 0.0
H1187 H 0.52844 0.08094 0.91062 0.0
C1188 C 0.52512 0.08587 0.85574 0.0
C1189 C 0.52925 0.04863 0.85365 0.0
C1190 C 0.55118 0.10732 0.86023 0.0
C1191 C 0.57847 0.08984 0.86511 0.0
C1192 C 0.58558 0.05738 0.85652 0.0
C1193 C 0.56019 0.03528 0.85173 0.0
C1194 C 0.60172 0.04881 0.90055 0.0
C1195 C 0.5725 0.05102 0.90842 0.0
C1196 C 0.60672 0.06788 0.88776 0.0
C1197 C 0.58206 0.08829 0.88209 0.0
C1198 C 0.55558 0.09588 0.89175 0.0
C1199 C 0.5506 0.07692 0.90454 0.0
H1200 H 0.91596 0.19991 0.89855 0.0
H1201 H 0.82848 0.24882 0.88506 0.0
H1202 H 0.93487 0.25813 0.90912 0.0
H1203 H 0.84831 0.30662 0.89408 0.0
H1204 H 0.87901 0.39932 0.92659 0.0
H1205 H 0.85927 0.34372 0.91481 0.0
H1206 H 0.9549 0.31252 0.90142 0.0
H1207 H 0.97491 0.36801 0.91464 0.0
C1208 C 0.90055 0.22291 0.89812 0.0
C1209 C 0.87081 0.21983 0.89094 0.0
C1210 C 0.91172 0.25641 0.90377 0.0
C1211 C 0.89349 0.28728 0.90211 0.0
C1212 C 0.86301 0.28361 0.89571 0.0
C1213 C 0.85156 0.25025 0.89052 0.0
C1214 C 0.8957 0.38102 0.92071 0.0
C1215 C 0.92839 0.38749 0.9216 0.0
C1216 C 0.88441 0.34898 0.91392 0.0
C1217 C 0.90554 0.32314 0.90742 0.0
C1218 C 0.93811 0.33143 0.90679 0.0
C1219 C 0.94955 0.36349 0.91395 0.0
H1220 H 0.52392 0.98923 0.64656 0.0
H1221 H 0.61839 1.03255 0.65315 0.0
H1222 H 0.53087 0.95566 0.66827 0.0
H1223 H 0.62552 0.99872 0.67502 0.0
H1224 H 0.49828 0.97069 0.70123 0.0
H1225 H 0.54116 0.93117 0.69191 0.0
H1226 H 0.60743 1.01693 0.69919 0.0
H1227 H 0.56538 0.05678 0.70875 0.0
C1228 C 0.54646 0.99132 0.65243 0.0
C1229 C 0.56959 1.01578 0.64853 0.0
C1230 C 0.55081 0.97149 0.66502 0.0
C1231 C 0.57797 0.97669 0.67444 0.0
C1232 C 0.60346 0.99568 0.66871 0.0
C1233 C 0.59908 1.01567 0.65615 0.0
C1234 C 0.52237 0.9807 0.7016 0.0
C1235 C 0.52827 1.01754 0.7042 0.0
C1236 C 0.54714 0.95807 0.69636 0.0
C1237 C 0.57493 0.97433 0.6914 0.0
C1238 C 0.58395 1.00578 0.70024 0.0
C1239 C 0.55985 1.02893 0.7058 0.0
H1240 H 0.7058 0.8792 0.38136 0.0
H1241 H 0.61668 0.90194 0.40439 0.0
H1242 H 0.72855 0.86073 0.40433 0.0
H1243 H 0.64012 0.88388 0.42828 0.0
H1244 H 0.67299 0.77171 0.4438 0.0
H1245 H 0.6519 0.82598 0.43502 0.0
H1246 H 0.74742 0.86473 0.42917 0.0
H1247 H 0.76838 0.80837 0.43718 0.0
C1248 C 0.69099 0.88021 0.39147 0.0
C1249 C 0.65893 0.89 0.39093 0.0
C1250 C 0.70443 0.87064 0.40491 0.0
C1251 C 0.6862 0.8704 0.41829 0.0
C1252 C 0.65471 0.88324 0.41811 0.0
C1253 C 0.64117 0.89321 0.40448 0.0
C1254 C 0.68946 0.79256 0.44136 0.0
C1255 C 0.72223 0.78579 0.44076 0.0
C1256 C 0.67736 0.824 0.43636 0.0
C1257 C 0.69797 0.84901 0.43062 0.0
C1258 C 0.73091 0.8451 0.43287 0.0
C1259 C 0.74303 0.81305 0.43745 0.0
H1260 H 0.08638 0.92697 0.16592 0.0
H1261 H 0.06352 1.02546 0.19257 0.0
H1262 H 1.03081 0.91687 0.1605 0.0
H1263 H 1.00719 1.01561 0.18679 0.0
H1264 H 0.93435 0.8961 0.15147 0.0
H1265 H 0.97652 0.90591 0.17057 0.0
H1266 H 0.98071 1.01719 0.16149 0.0
H1267 H 0.93877 1.00745 0.1427 0.0
C1268 C 0.06938 0.94618 0.17086 0.0
C1269 C 0.07933 0.97713 0.17958 0.0
C1270 C 0.03744 0.94016 0.16791 0.0
C1271 C 1.01465 0.96516 0.17346 0.0
C1272 C 1.02437 0.99582 0.18248 0.0
C1273 C 0.05654 1.00174 0.18555 0.0
C1274 C 0.94351 0.92285 0.15406 0.0
C1275 C 0.93439 0.95079 0.14537 0.0
C1276 C 0.96751 0.92849 0.16495 0.0
C1277 C 0.98228 0.9621 0.16719 0.0
C1278 C 0.96984 0.99102 0.15999 0.0
C1279 C 0.94614 0.98533 0.14908 0.0
H1280 H 0.69731 0.88836 0.93348 0.0
H1281 H 0.60475 0.87184 0.91301 0.0
H1282 H 0.7143 0.83055 0.92261 0.0
H1283 H 0.62258 0.81416 0.90093 0.0
H1284 H 0.6488 0.6977 0.89741 0.0
H1285 H 0.6336 0.75631 0.90924 0.0
H1286 H 0.72822 0.79536 0.90123 0.0
H1287 H 0.74377 0.73675 0.89063 0.0
C1288 C 0.681 0.87275 0.92609 0.0
C1289 C 0.64968 0.88415 0.92417 0.0
C1290 C 0.69074 0.83953 0.91984 0.0
C1291 C 0.66959 0.81736 0.91115 0.0
C1292 C 0.63908 0.83026 0.90799 0.0
C1293 C 0.62909 0.86355 0.91453 0.0
C1294 C 0.66661 0.71849 0.89885 0.0
C1295 C 0.69736 0.7129 0.89304 0.0
C1296 C 0.65771 0.75226 0.90522 0.0
C1297 C 0.67943 0.78077 0.90575 0.0
C1298 C 0.71085 0.77413 0.90105 0.0
C1299 C 0.71983 0.74041 0.89499 0.0
H1300 H 0.50639 0.45232 0.19771 0.0
H1301 H 0.49375 0.53546 0.16711 0.0
H1302 H 0.56173 0.44563 0.18984 0.0
H1303 H 0.54855 0.5285 0.15893 0.0
H1304 H 0.62243 0.40243 0.14682 0.0
H1305 H 0.58231 0.41883 0.16614 0.0
H1306 H 0.60424 0.53054 0.16308 0.0
H1307 H 0.643 0.51386 0.14316 0.0
C1308 C 0.51568 0.46944 0.18943 0.0
C1309 C 0.49584 0.49381 0.18268 0.0
C1310 C 0.54729 0.46572 0.18498 0.0
C1311 C 0.55942 0.48612 0.17362 0.0
C1312 C 0.54016 0.5126 0.16786 0.0
C1313 C 0.50866 0.51652 0.17243 0.0
C1314 C 0.61922 0.43033 0.15069 0.0
C1315 C 0.63487 0.45701 0.14341 0.0
C1316 C 0.59644 0.43984 0.16181 0.0
C1317 C 0.5896 0.47611 0.16586 0.0
C1318 C 0.60839 0.50247 0.15988 0.0
C1319 C 0.63054 0.49298 0.14854 0.0
H1320 H 0.88128 0.29023 0.45328 0.0
H1321 H 0.8099 0.29043 0.41816 0.0
H1322 H 0.90595 0.34296 0.44388 0.0
H1323 H 0.83379 0.34419 0.409 0.0
H1324 H 0.8888 0.43743 0.39437 0.0
H1325 H 0.86129 0.41284 0.41573 0.0
H1326 H 0.92813 0.32542 0.41386 0.0
H1327 H 0.95456 0.34916 0.392 0.0
C1328 C 0.87008 0.30274 0.444 0.0
C1329 C 0.84449 0.28604 0.43606 0.0
C1330 C 0.88399 0.33293 0.43874 0.0
C1331 C 0.87188 0.34704 0.42567 0.0
C1332 C 0.84333 0.33366 0.41919 0.0
C1333 C 0.82967 0.30302 0.42436 0.0
C1334 C 0.89823 0.41373 0.39898 0.0
C1335 C 0.92362 0.39496 0.39177 0.0
C1336 C 0.88257 0.39983 0.41114 0.0
C1337 C 0.89283 0.36757 0.41637 0.0
C1338 C 0.92023 0.35074 0.4101 0.0
C1339 C 0.93532 0.36412 0.39765 0.0
H1340 H 1.00964 0.48158 0.62064 0.0
H1341 H 0.1045 0.52423 0.6249 0.0
H1342 H 1.02532 0.43181 0.63487 0.0
H1343 H 0.11981 0.47547 0.63949 0.0
H1344 H 1.02122 0.49121 0.68234 0.0
H1345 H 1.02047 0.44943 0.66014 0.0
H1346 H 0.12279 0.44446 0.66063 0.0
H1347 H 0.12341 0.48718 0.68304 0.0
C1348 C 1.03412 0.47996 0.62423 0.0
C1349 C 0.05513 0.5087 0.62304 0.0
C1350 C 0.04323 0.45115 0.63238 0.0
C1351 C 0.07222 0.45281 0.6404 0.0
C1352 C 0.09589 0.47527 0.63502 0.0
C1353 C 0.08709 0.50388 0.62677 0.0
C1354 C 0.04359 0.48036 0.67806 0.0
C1355 C 0.07244 0.49494 0.68345 0.0
C1356 C 0.04335 0.45593 0.66521 0.0
C1357 C 0.07193 0.44797 0.65721 0.0
C1358 C 0.10033 0.45345 0.66554 0.0
C1359 C 0.10077 0.47827 0.6783 0.0
H1360 H 0.60463 0.19803 0.64507 0.0
H1361 H 0.69797 0.17605 0.62636 0.0
H1362 H 0.62423 0.25435 0.65774 0.0
H1363 H 0.71702 0.23242 0.63803 0.0
H1364 H 0.74763 0.32508 0.67048 0.0
H1365 H 0.73015 0.26686 0.66014 0.0
H1366 H 0.63911 0.31127 0.64898 0.0
H1367 H 0.65608 0.3696 0.66035 0.0
C1368 C 0.62949 0.20477 0.6441 0.0
C1369 C 0.64985 0.18312 0.63477 0.0
C1370 C 0.64055 0.23725 0.651 0.0
C1371 C 0.67196 0.24822 0.64854 0.0
C1372 C 0.69277 0.22487 0.64022 0.0
C1373 C 0.68187 0.19251 0.63354 0.0
C1374 C 0.7241 0.32265 0.66551 0.0
C1375 C 0.70309 0.35176 0.66635 0.0
C1376 C 0.71402 0.28917 0.65963 0.0
C1377 C 0.68297 0.28427 0.65407 0.0
C1378 C 0.66284 0.31405 0.65366 0.0
C1379 C 0.67281 0.34761 0.6598 0.0
H1380 H 1.02125 0.57991 0.876 0.0
H1381 H 0.12349 0.58229 0.8759 0.0
H1382 H 1.02048 0.62211 0.89806 0.0
H1383 H 0.12279 0.62531 0.8982 0.0
H1384 H 1.00824 0.58891 0.93742 0.0
H1385 H 1.02492 0.63871 0.92348 0.0
H1386 H 0.11883 0.59316 0.91905 0.0
H1387 H 0.10249 0.54434 0.93335 0.0
C1388 C 0.04364 0.59045 0.88038 0.0
C1389 C 0.07245 0.57526 0.87523 0.0
C1390 C 0.04339 0.61512 0.89315 0.0
C1391 C 0.07184 0.62252 0.90135 0.0
C1392 C 0.10036 0.61666 0.89315 0.0
C1393 C 0.10084 0.59163 0.88047 0.0
C1394 C 1.03279 0.59009 0.93393 0.0
C1395 C 0.05334 0.56089 0.93509 0.0
C1396 C 0.04248 0.61893 0.92595 0.0
C1397 C 0.07164 0.61693 0.91809 0.0
C1398 C 0.09483 0.59375 0.92342 0.0
C1399 C 0.08543 0.5651 0.93149 0.0
H1400 H 0.87827 0.7818 0.10645 0.0
H1401 H 0.81038 0.77953 0.14298 0.0
H1402 H 0.90494 0.72939 0.11514 0.0
H1403 H 0.83616 0.72595 0.15139 0.0
H1404 H 0.89587 0.63216 0.16355 0.0
H1405 H 0.86657 0.65647 0.1426 0.0
H1406 H 0.92732 0.74923 0.14614 0.0
H1407 H 0.9553 0.72584 0.16766 0.0
C1408 C 0.86823 0.76885 0.11588 0.0
C1409 C 0.84312 0.78492 0.12441 0.0
C1410 C 0.88323 0.73881 0.12073 0.0
C1411 C 0.87264 0.72418 0.13395 0.0
C1412 C 0.84447 0.73688 0.14106 0.0
C1413 C 0.82975 0.7674 0.13632 0.0
C1414 C 0.90371 0.65701 0.15935 0.0
C1415 C 0.92773 0.67731 0.16697 0.0
C1416 C 0.887 0.67077 0.14744 0.0
C1417 C 0.89499 0.70438 0.14283 0.0
C1418 C 0.92122 0.7229 0.14944 0.0
C1419 C 0.93722 0.70968 0.16167 0.0
H1420 H 0.62212 0.66985 0.41217 0.0
H1421 H 0.64438 0.55919 0.41684 0.0
H1422 H 0.58335 0.6519 0.39238 0.0
H1423 H 0.60699 0.54095 0.39648 0.0
H1424 H 0.49658 0.53411 0.39123 0.0
H1425 H 0.55107 0.54184 0.39982 0.0
H1426 H 0.56453 0.6239 0.36857 0.0
H1427 H 0.50947 0.61646 0.3603 0.0
C1428 C 0.61958 0.64179 0.40844 0.0
C1429 C 0.63528 0.61575 0.41611 0.0
C1430 C 0.5976 0.63139 0.39705 0.0
C1431 C 0.5916 0.59487 0.39313 0.0
C1432 C 0.61048 0.56919 0.39956 0.0
C1433 C 0.63185 0.57956 0.41115 0.0
C1434 C 0.51153 0.55298 0.38591 0.0
C1435 C 0.49883 0.57534 0.37547 0.0
C1436 C 0.54285 0.55735 0.39072 0.0
C1437 C 0.56202 0.58394 0.38502 0.0
C1438 C 0.55012 0.60377 0.3734 0.0
C1439 C 0.51869 0.59961 0.36871 0.0
H1440 H 0.33313 0.32483 0.1724 0.0
H1441 H 0.42285 0.37065 0.16036 0.0
H1442 H 0.35178 0.26648 0.16363 0.0
H1443 H 0.44064 0.31187 0.1498 0.0
H1444 H 0.47757 0.20022 0.14433 0.0
H1445 H 0.45884 0.25679 0.15711 0.0
H1446 H 0.36267 0.22841 0.14354 0.0
H1447 H 0.38106 0.17172 0.13237 0.0
C1448 C 0.3565 0.32261 0.16727 0.0
C1449 C 0.37668 0.35231 0.16724 0.0
C1450 C 0.36728 0.28889 0.16218 0.0
C1451 C 0.398 0.28411 0.15618 0.0
C1452 C 0.41723 0.31436 0.15484 0.0
C1453 C 0.40674 0.34823 0.16047 0.0
C1454 C 0.45233 0.20562 0.14491 0.0
C1455 C 0.43066 0.18201 0.13741 0.0
C1456 C 0.44163 0.23833 0.1518 0.0
C1457 C 0.4093 0.24775 0.15101 0.0
C1458 C 0.38763 0.22238 0.1446 0.0
C1459 C 0.39816 0.18967 0.13815 0.0
H1460 H 0.42698 0.55596 0.91381 0.0
H1461 H 0.44771 0.66735 0.91018 0.0
H1462 H 0.46729 0.53913 0.89465 0.0
H1463 H 0.48928 0.65082 0.89161 0.0
H1464 H 0.56672 0.61658 0.86078 0.0
H1465 H 0.51121 0.62383 0.86827 0.0
H1466 H 0.5228 0.54128 0.89946 0.0
H1467 H 0.57786 0.53371 0.89162 0.0
C1468 C 0.43976 0.5768 0.90856 0.0
C1469 C 0.43496 0.61281 0.9135 0.0
C1470 C 0.46286 0.56722 0.89768 0.0
C1471 C 0.48207 0.59355 0.89195 0.0
C1472 C 0.47485 0.62984 0.89576 0.0
C1473 C 0.45118 0.63942 0.90643 0.0
C1474 C 0.55706 0.59966 0.86905 0.0
C1475 C 0.5765 0.57514 0.87594 0.0
C1476 C 0.52535 0.60373 0.87329 0.0
C1477 C 0.51269 0.58353 0.88459 0.0
C1478 C 0.53162 0.55702 0.89057 0.0
C1479 C 0.56323 0.55274 0.88619 0.0
H1480 H 0.17588 0.63746 0.66533 0.0
H1481 H 0.10615 0.72178 0.66855 0.0
H1482 H 0.20235 0.66519 0.64449 0.0
H1483 H 0.1318 0.74897 0.64738 0.0
H1484 H 0.17983 0.79495 0.61092 0.0
H1485 H 0.154 0.7415 0.61887 0.0
H1486 H 0.22942 0.72923 0.65137 0.0
H1487 H 0.25493 0.78337 0.64347 0.0
C1488 C 0.16537 0.66095 0.66098 0.0
C1489 C 0.13915 0.67776 0.66831 0.0
C1490 C 0.18048 0.67671 0.64914 0.0
C1491 C 0.16907 0.70906 0.64443 0.0
C1492 C 0.14075 0.7237 0.65072 0.0
C1493 C 0.12607 0.70833 0.66279 0.0
C1494 C 0.19131 0.7801 0.6194 0.0
C1495 C 0.21866 0.79356 0.62699 0.0
C1496 C 0.17672 0.74946 0.62383 0.0
C1497 C 0.18957 0.73177 0.63582 0.0
C1498 C 0.21921 0.74248 0.642 0.0
C1499 C 0.23374 0.7734 0.63759 0.0
H1500 H 0.11918 0.53848 0.40345 0.0
H1501 H 1.02677 0.58617 0.41191 0.0
H1502 H 0.12587 0.57255 0.38167 0.0
H1503 H 1.03335 0.62001 0.39027 0.0
H1504 H 0.99788 0.60738 0.35812 0.0
H1505 H 0.04286 0.64473 0.36651 0.0
H1506 H 0.10551 0.55601 0.35771 0.0
H1507 H 0.06136 0.51813 0.34916 0.0
C1508 C 0.10023 0.55632 0.40089 0.0
C1509 C 0.0713 0.55739 0.40902 0.0
C1510 C 0.10439 0.57647 0.38836 0.0
C1511 C 0.0792 0.59687 0.38319 0.0
C1512 C 0.05291 0.60308 0.39309 0.0
C1513 C 0.04876 0.58307 0.40563 0.0
C1514 C 1.02155 0.59618 0.35725 0.0
C1515 C 1.02597 0.55907 0.35457 0.0
C1516 C 0.04752 0.61758 0.36194 0.0
C1517 C 0.07511 0.59992 0.36632 0.0
C1518 C 0.0823 0.56822 0.35721 0.0
C1519 C 0.05698 0.54621 0.35224 0.0
H1520 H 0.37301 0.89436 0.42977 0.0
H1521 H 0.46845 0.87603 0.41311 0.0
H1522 H 0.35749 0.83595 0.41937 0.0
H1523 H 0.45212 0.81786 0.40103 0.0
H1524 H 0.4266 0.70151 0.3974 0.0
H1525 H 0.44073 0.76097 0.40864 0.0
H1526 H 0.34554 0.79749 0.3996 0.0
H1527 H 0.33096 0.73807 0.39013 0.0
C1528 C 0.3903 0.87826 0.42315 0.0
C1529 C 0.42196 0.88926 0.42238 0.0
C1530 C 0.38141 0.84457 0.41714 0.0
C1531 C 0.4037 0.82163 0.4096 0.0
C1532 C 0.43465 0.83437 0.40727 0.0
C1533 C 0.44383 0.86802 0.41375 0.0
C1534 C 0.40844 0.72198 0.39858 0.0
C1535 C 0.3778 0.71539 0.39281 0.0
C1536 C 0.41673 0.7563 0.40457 0.0
C1537 C 0.39459 0.78443 0.40462 0.0
C1538 C 0.36331 0.77676 0.39992 0.0
C1539 C 0.35486 0.74249 0.39444 0.0
H1540 H 1.00345 0.46515 0.20116 0.0
H1541 H 0.06577 0.55559 0.20928 0.0
H1542 H 0.0486 0.42861 0.19227 0.0
H1543 H 0.11009 0.51853 0.20024 0.0
H1544 H 1.02946 0.4865 0.1469 0.0
H1545 H 0.03741 0.45315 0.1686 0.0
H1546 H 0.12977 0.50167 0.17615 0.0
H1547 H 0.12171 0.53522 0.15429 0.0
C1548 C 1.02696 0.47679 0.20176 0.0
C1549 C 1.03084 0.51398 0.20433 0.0
C1550 C 0.05304 0.45585 0.19678 0.0
C1551 C 0.08007 0.47396 0.19205 0.0
C1552 C 0.08716 0.50586 0.20104 0.0
C1553 C 0.06173 0.52742 0.2063 0.0
C1554 C 0.05171 0.4899 0.15295 0.0
C1555 C 0.07381 0.51572 0.14925 0.0
C1556 C 0.05666 0.47019 0.16552 0.0
C1557 C 0.08335 0.47682 0.17514 0.0
C1558 C 0.10805 0.4974 0.16967 0.0
C1559 C 0.10308 0.51724 0.1571 0.0
H1560 H 0.17345 0.43354 0.89475 0.0
H1561 H 0.10591 0.34713 0.89114 0.0
H1562 H 0.19982 0.40702 0.91598 0.0
H1563 H 0.13138 0.32121 0.91273 0.0
H1564 H 0.17783 0.27953 0.95089 0.0
H1565 H 0.15167 0.3317 0.94179 0.0
H1566 H 0.22845 0.34268 0.90996 0.0
H1567 H 0.25428 0.28977 0.91899 0.0
C1568 C 0.16337 0.40983 0.89908 0.0
C1569 C 0.13777 0.39217 0.89157 0.0
C1570 C 0.17844 0.39475 0.91113 0.0
C1571 C 0.16753 0.36228 0.9159 0.0
C1572 C 0.13988 0.34661 0.90934 0.0
C1573 C 0.1253 0.36127 0.89704 0.0
C1574 C 0.18954 0.29391 0.94232 0.0
C1575 C 0.21742 0.28037 0.93525 0.0
C1576 C 0.17474 0.32379 0.93723 0.0
C1577 C 0.18792 0.34066 0.9251 0.0
C1578 C 0.218 0.33005 0.91943 0.0
C1579 C 0.23273 0.29986 0.9245 0.0
H1580 H 0.43664 0.50616 0.64337 0.0
H1581 H 0.43615 0.39338 0.64969 0.0
H1582 H 0.4797 0.51522 0.66158 0.0
H1583 H 0.47944 0.40246 0.66825 0.0
H1584 H 0.58844 0.4273 0.66415 0.0
H1585 H 0.533 0.41611 0.65853 0.0
H1586 H 0.50742 0.51228 0.68621 0.0
H1587 H 0.56355 0.52332 0.69205 0.0
C1588 C 0.44511 0.48352 0.64913 0.0
C1589 C 0.43404 0.44894 0.64488 0.0
C1590 C 0.46952 0.48877 0.6597 0.0
C1591 C 0.48335 0.45939 0.66603 0.0
C1592 C 0.4694 0.42543 0.66328 0.0
C1593 C 0.4447 0.42021 0.65273 0.0
C1594 C 0.57101 0.44573 0.66929 0.0
C1595 C 0.58032 0.47633 0.67842 0.0
C1596 C 0.53917 0.43908 0.66623 0.0
C1597 C 0.51585 0.46304 0.67214 0.0
C1598 C 0.52499 0.49332 0.68158 0.0
C1599 C 0.55704 0.49992 0.68471 0.0
H1600 H 0.16545 0.26119 0.34006 0.0
H1601 H 0.0938 0.18418 0.34905 0.0
H1602 H 0.1244 0.30703 0.33848 0.0
H1603 H 0.05273 0.22983 0.34758 0.0
H1604 H 0.04587 0.39349 0.34993 0.0
H1605 H 0.08744 0.34787 0.35013 0.0
H1606 H 1.01973 0.26721 0.33436 0.0
H1607 H 0.97829 0.31287 0.3343 0.0
C1608 C 0.14093 0.25364 0.34156 0.0
C1609 C 0.13371 0.21798 0.34452 0.0
C1610 C 0.11697 0.28045 0.34081 0.0
C1611 C 0.0842 0.2733 0.34287 0.0
C1612 C 0.07706 0.23742 0.34565 0.0
C1613 C 0.10103 0.21072 0.34653 0.0
C1614 C 0.0397 0.36613 0.34631 0.0
C1615 C 1.00798 0.35783 0.34194 0.0
C1616 C 0.06395 0.33946 0.3464 0.0
C1617 C 0.05797 0.30267 0.34231 0.0
C1618 C 1.02621 0.29453 0.33784 0.0
C1619 C 1.00205 0.32123 0.33763 0.0
H1620 H 0.0575 0.68332 0.60357 0.0
H1621 H 0.98179 0.73759 0.58194 0.0
H1622 H 0.0909 0.73589 0.60291 0.0
H1623 H 1.01568 0.79055 0.58094 0.0
H1624 H 0.07727 0.89365 0.59499 0.0
H1625 H 0.04138 0.84174 0.59369 0.0
H1626 H 0.12229 0.77133 0.58875 0.0
H1627 H 0.15744 0.82271 0.5901 0.0
C1628 C 0.04794 0.7063 0.59843 0.0
C1629 C 1.01662 0.70534 0.59267 0.0
C1630 C 0.06742 0.73688 0.59797 0.0
C1631 C 0.05672 0.76837 0.59174 0.0
C1632 C 1.02527 0.76747 0.58596 0.0
C1633 C 1.00571 0.73666 0.58639 0.0
C1634 C 0.08735 0.8671 0.59334 0.0
C1635 C 0.12066 0.86289 0.59277 0.0
C1636 C 0.06664 0.83697 0.59265 0.0
C1637 C 0.07837 0.80138 0.5914 0.0
C1638 C 0.11167 0.79762 0.59019 0.0
C1639 C 0.13214 0.82748 0.59086 0.0
H1640 H 0.47729 0.80407 0.83365 0.0
H1641 H 0.54417 0.88606 0.84853 0.0
H1642 H 0.51929 0.75899 0.83407 0.0
H1643 H 0.58618 0.84117 0.84907 0.0
H1644 H 0.66533 0.75564 0.83989 0.0
H1645 H 0.62362 0.80054 0.83782 0.0
H1646 H 0.55303 0.72267 0.84756 0.0
H1647 H 0.59477 0.67797 0.84953 0.0
C1648 C 0.50099 0.81286 0.83687 0.0
C1649 C 0.50655 0.84967 0.84087 0.0
C1650 C 0.52547 0.78651 0.83729 0.0
C1651 C 0.55722 0.79526 0.84166 0.0
C1652 C 0.56278 0.83225 0.84543 0.0
C1653 C 0.53824 0.85851 0.84513 0.0
C1654 C 0.64093 0.74774 0.84144 0.0
C1655 C 0.63423 0.71218 0.84474 0.0
C1656 C 0.61656 0.77401 0.84039 0.0
C1657 C 0.58386 0.7664 0.84249 0.0
C1658 C 0.57726 0.7306 0.8456 0.0
C1659 C 0.60163 0.70446 0.84678 0.0
H1660 H 0.55514 0.18019 0.10447 0.0
H1661 H 0.48055 0.23116 0.08063 0.0
H1662 H 0.58808 0.23294 0.10352 0.0
H1663 H 0.5141 0.28427 0.07925 0.0
H1664 H 0.57441 0.38879 0.0927 0.0
H1665 H 0.53865 0.33674 0.09165 0.0
H1666 H 0.61994 0.26659 0.08901 0.0
H1667 H 0.65487 0.31785 0.09032 0.0
C1668 C 0.54579 0.20245 0.09876 0.0
C1669 C 0.51494 0.2006 0.09249 0.0
C1670 C 0.56498 0.23312 0.09813 0.0
C1671 C 0.55445 0.26367 0.09114 0.0
C1672 C 0.52348 0.26188 0.08484 0.0
C1673 C 0.50416 0.231 0.08549 0.0
C1674 C 0.58458 0.36223 0.09161 0.0
C1675 C 0.61789 0.35806 0.09164 0.0
C1676 C 0.56397 0.33207 0.09107 0.0
C1677 C 0.57589 0.2966 0.09054 0.0
C1678 C 0.6092 0.29285 0.08988 0.0
C1679 C 0.62954 0.32268 0.09047 0.0
H1680 H 0.04975 0.67805 0.2092 0.0
H1681 H 0.98244 0.75979 0.22396 0.0
H1682 H 0.09163 0.72321 0.20884 0.0
H1683 H 1.02418 0.805 0.22371 0.0
H1684 H 0.09901 0.88664 0.20864 0.0
H1685 H 0.05767 0.84144 0.21027 0.0
H1686 H 0.12871 0.76426 0.2204 0.0
H1687 H 0.17005 0.80968 0.21869 0.0
C1688 C 0.04369 0.70557 0.21259 0.0
C1689 C 1.01195 0.7143 0.21677 0.0
C1690 C 0.06813 0.73197 0.2124 0.0
C1691 C 0.06234 0.76894 0.2162 0.0
C1692 C 1.03054 0.77752 0.22047 0.0
C1693 C 1.0062 0.75109 0.22079 0.0
C1694 C 0.10605 0.86021 0.21142 0.0
C1695 C 0.13865 0.85284 0.21369 0.0
C1696 C 0.08191 0.83377 0.21239 0.0
C1697 C 0.08878 0.79803 0.21552 0.0
C1698 C 0.12148 0.79074 0.21782 0.0
C1699 C 0.14562 0.81732 0.21698 0.0
H1700 H 0.4787 0.84296 0.47696 0.0
H1701 H 0.55257 0.8935 0.45259 0.0
H1702 H 0.5126 0.7903 0.47869 0.0
H1703 H 0.58614 0.84106 0.45405 0.0
H1704 H 0.65345 0.75659 0.46876 0.0
H1705 H 0.61833 0.80783 0.4691 0.0
H1706 H 0.53734 0.73747 0.46656 0.0
H1707 H 0.57323 0.68554 0.46624 0.0
C1708 C 0.50224 0.84312 0.47203 0.0
C1709 C 0.51262 0.87332 0.46476 0.0
C1710 C 0.52179 0.81246 0.4729 0.0
C1711 C 0.55276 0.81057 0.46663 0.0
C1712 C 0.563 0.84092 0.45938 0.0
C1713 C 0.54346 0.8714 0.45846 0.0
C1714 C 0.62814 0.75173 0.46835 0.0
C1715 C 0.61665 0.71628 0.4674 0.0
C1716 C 0.6077 0.78154 0.46842 0.0
C1717 C 0.5744 0.77773 0.46756 0.0
C1718 C 0.56263 0.74223 0.46728 0.0
C1719 C 0.58333 0.71211 0.46718 0.0
H1720 H 0.67168 0.31203 0.71925 0.0
H1721 H 0.6005 0.38902 0.7094 0.0
H1722 H 0.63017 0.2671 0.72181 0.0
H1723 H 0.55902 0.34438 0.71194 0.0
H1724 H 0.48422 0.26404 0.72742 0.0
H1725 H 0.52626 0.3088 0.72644 0.0
H1726 H 0.59211 0.2262 0.71058 0.0
H1727 H 0.54998 0.18155 0.71161 0.0
C1728 C 0.6472 0.31979 0.71777 0.0
C1729 C 0.64024 0.35515 0.71425 0.0
C1730 C 0.62297 0.29351 0.71911 0.0
C1731 C 0.59018 0.301 0.71715 0.0
C1732 C 0.58334 0.33659 0.71382 0.0
C1733 C 0.60756 0.36269 0.71232 0.0
C1734 C 0.50771 0.25507 0.72389 0.0
C1735 C 0.51294 0.21822 0.71979 0.0
C1736 C 0.5322 0.28123 0.72314 0.0
C1737 C 0.56363 0.27225 0.71835 0.0
C1738 C 0.56893 0.23523 0.71451 0.0
C1739 C 0.54434 0.20913 0.7151 0.0
H1740 H 0.15419 0.25033 0.97129 0.0
H1741 H 0.07451 0.17888 0.96598 0.0
H1742 H 0.11879 0.30148 0.97217 0.0
H1743 H 0.03836 0.23062 0.96679 0.0
H1744 H 0.97834 0.3351 0.97772 0.0
H1745 H 1.01226 0.28226 0.9793 0.0
H1746 H 0.08782 0.33588 0.95722 0.0
H1747 H 0.05438 0.3883 0.95596 0.0
C1748 C 0.12893 0.2454 0.97037 0.0
C1749 C 0.11767 0.20992 0.96849 0.0
C1750 C 0.10834 0.27512 0.97076 0.0
C1751 C 0.07512 0.27114 0.96925 0.0
C1752 C 0.06356 0.2355 0.96804 0.0
C1753 C 0.08441 0.20549 0.96765 0.0
C1754 C 1.00233 0.33582 0.97336 0.0
C1755 C 1.01334 0.36678 0.96687 0.0
C1756 C 1.0219 0.30509 0.97413 0.0
C1757 C 0.05344 0.30398 0.96851 0.0
C1758 C 0.06424 0.33511 0.96205 0.0
C1759 C 0.04475 0.3656 0.96125 0.0
H1760 H 1.0192 0.67844 0.71074 0.0
H1761 H 0.08663 0.75985 0.72566 0.0
H1762 H 0.9774 0.72372 0.71041 0.0
H1763 H 0.04493 0.80519 0.72548 0.0
H1764 H 0.97061 0.88682 0.71007 0.0
H1765 H 1.01177 0.8415 0.71186 0.0
H1766 H 0.94043 0.76481 0.72202 0.0
H1767 H 0.89921 0.8104 0.72011 0.0
C1768 C 1.02528 0.70591 0.71419 0.0
C1769 C 0.05702 0.71457 0.71838 0.0
C1770 C 1.0009 0.73237 0.71401 0.0
C1771 C 1.00678 0.76925 0.71786 0.0
C1772 C 0.03856 0.77775 0.72219 0.0
C1773 C 0.06286 0.75126 0.72247 0.0
C1774 C 0.96347 0.86048 0.7129 0.0
C1775 C 0.93085 0.85326 0.7151 0.0
C1776 C 0.98749 0.83398 0.71397 0.0
C1777 C 0.98046 0.79837 0.71714 0.0
C1778 C 0.94774 0.79122 0.7194 0.0
C1779 C 0.92369 0.81787 0.71846 0.0
H1780 H 0.99761 0.18774 0.46577 0.0
H1781 H 0.91695 0.25822 0.46761 0.0
H1782 H 1.03319 0.23988 0.46613 0.0
H1783 H 0.95176 0.30973 0.46793 0.0
H1784 H 1.0176 0.39483 0.45106 0.0
H1785 H 0.98432 0.34225 0.45259 0.0
H1786 H 0.05697 0.29342 0.47858 0.0
H1787 H 0.09058 0.34628 0.47683 0.0
C1788 C 0.98733 0.21425 0.46655 0.0
C1789 C 0.95399 0.21822 0.46658 0.0
C1790 C 1.00785 0.24447 0.46668 0.0
C1791 C 0.99587 0.27986 0.46677 0.0
C1792 C 0.96254 0.2835 0.46742 0.0
C1793 C 0.94228 0.25358 0.46734 0.0
C1794 C 1.02658 0.37314 0.45725 0.0
C1795 C 0.05707 0.37564 0.46393 0.0
C1796 C 1.00721 0.3426 0.4582 0.0
C1797 C 1.01732 0.31276 0.46583 0.0
C1798 C 0.04794 0.31521 0.47249 0.0
C1799 C 0.0673 0.34597 0.47161 0.0
H1800 H 0.52433 0.18217 0.21014 0.0
H1801 H 0.59175 0.2626 0.22621 0.0
H1802 H 0.4829 0.22777 0.20972 0.0
H1803 H 0.55033 0.30836 0.2259 0.0
H1804 H 0.47666 0.39051 0.20985 0.0
H1805 H 0.51773 0.34509 0.21185 0.0
H1806 H 0.44604 0.26854 0.2217 0.0
H1807 H 0.40496 0.31416 0.21962 0.0
C1808 C 0.53047 0.20951 0.21381 0.0
C1809 C 0.56207 0.21781 0.21836 0.0
C1810 C 0.50631 0.23613 0.21359 0.0
C1811 C 0.5123 0.27284 0.21774 0.0
C1812 C 0.54395 0.28103 0.2224 0.0
C1813 C 0.56805 0.25433 0.22274 0.0
C1814 C 0.46943 0.36417 0.21265 0.0
C1815 C 0.43678 0.35695 0.21472 0.0
C1816 C 0.49339 0.33765 0.21384 0.0
C1817 C 0.48618 0.30206 0.21697 0.0
C1818 C 0.45343 0.29495 0.21911 0.0
C1819 C 0.42949 0.32161 0.21807 0.0
H1820 H 0.58728 0.84135 0.97664 0.0
H1821 H 0.51453 0.8912 0.9512 0.0
H1822 H 0.55369 0.78822 0.97777 0.0
H1823 H 0.48124 0.83844 0.95217 0.0
H1824 H 0.41386 0.75362 0.96666 0.0
H1825 H 0.44874 0.80523 0.96756 0.0
H1826 H 0.53004 0.73524 0.96424 0.0
H1827 H 0.49437 0.68305 0.96315 0.0
C1828 C 0.56403 0.84129 0.97138 0.0
C1829 C 0.55386 0.87136 0.96396 0.0
C1830 C 0.5447 0.81039 0.9719 0.0
C1831 C 0.51417 0.80827 0.96515 0.0
C1832 C 0.50409 0.83853 0.95781 0.0
C1833 C 0.52345 0.86917 0.95719 0.0
C1834 C 0.43917 0.74901 0.96609 0.0
C1835 C 0.45083 0.71365 0.96465 0.0
C1836 C 0.45945 0.77895 0.96656 0.0
C1837 C 0.49275 0.77527 0.96569 0.0
C1838 C 0.50472 0.73981 0.96497 0.0
C1839 C 0.48416 0.70957 0.96442 0.0
H1840 H 1.0185 0.39083 0.84895 0.0
H1841 H 0.08594 0.30967 0.83361 0.0
H1842 H 0.97676 0.34551 0.84911 0.0
H1843 H 0.04433 0.26433 0.8336 0.0
H1844 H 0.97053 0.18235 0.8488 0.0
H1845 H 1.01149 0.22782 0.84717 0.0
H1846 H 0.93986 0.30461 0.83731 0.0
H1847 H 0.8988 0.25886 0.83908 0.0
C1848 C 1.02458 0.36341 0.84538 0.0
C1849 C 0.0563 0.3548 0.84112 0.0
C1850 C 1.00026 0.33695 0.84545 0.0
C1851 C 1.0062 0.30014 0.84143 0.0
C1852 C 0.03794 0.29171 0.83704 0.0
C1853 C 0.06218 0.31819 0.83686 0.0
C1854 C 0.96328 0.20875 0.84606 0.0
C1855 C 0.93064 0.21596 0.84389 0.0
C1856 C 0.98719 0.23532 0.84509 0.0
C1857 C 0.97999 0.27099 0.84205 0.0
C1858 C 0.94725 0.27814 0.83982 0.0
C1859 C 0.92332 0.25141 0.84068 0.0
H1860 H 0.49205 0.38507 0.59224 0.0
H1861 H 0.41213 0.31414 0.59373 0.0
H1862 H 0.52812 0.33324 0.59144 0.0
H1863 H 0.4474 0.26305 0.59278 0.0
H1864 H 0.51572 0.17891 0.60813 0.0
H1865 H 0.48192 0.2312 0.60712 0.0
H1866 H 0.55128 0.27948 0.57913 0.0
H1867 H 0.58556 0.22688 0.58043 0.0
C1868 C 0.48199 0.35854 0.59211 0.0
C1869 C 0.44875 0.35442 0.59308 0.0
C1870 C 0.50282 0.32849 0.59169 0.0
C1871 C 0.49126 0.29311 0.59231 0.0
C1872 C 0.45795 0.28929 0.59272 0.0
C1873 C 0.43738 0.31902 0.59311 0.0
C1874 C 0.52386 0.20041 0.60161 0.0
C1875 C 0.55366 0.19783 0.59425 0.0
C1876 C 0.50416 0.2308 0.60096 0.0
C1877 C 0.51316 0.2604 0.59292 0.0
C1878 C 0.54308 0.25788 0.58556 0.0
C1879 C 0.56283 0.22726 0.58618 0.0
H1880 H 0.59653 0.80736 0.33384 0.0
H1881 H 0.52972 0.88819 0.35027 0.0
H1882 H 0.55477 0.76202 0.33393 0.0
H1883 H 0.48796 0.84302 0.35046 0.0
H1884 H 0.4092 0.75776 0.34022 0.0
H1885 H 0.45065 0.803 0.33846 0.0
H1886 H 0.52175 0.72498 0.34756 0.0
H1887 H 0.48029 0.67994 0.34924 0.0
C1888 C 0.5729 0.81583 0.33735 0.0
C1889 C 0.56724 0.85236 0.3419 0.0
C1890 C 0.54858 0.78935 0.33756 0.0
C1891 C 0.51698 0.79775 0.34224 0.0
C1892 C 0.5113 0.83447 0.34656 0.0
C1893 C 0.53568 0.86086 0.34648 0.0
C1894 C 0.43367 0.7499 0.34168 0.0
C1895 C 0.44064 0.71425 0.34472 0.0
C1896 C 0.45785 0.77635 0.34082 0.0
C1897 C 0.49057 0.76874 0.34284 0.0
C1898 C 0.49746 0.73285 0.34567 0.0
C1899 C 0.47327 0.70653 0.34667 0.0
H1900 H 0.91376 0.81395 0.09256 0.0
H1901 H 0.99379 0.88511 0.09409 0.0
H1902 H 0.94903 0.7627 0.09181 0.0
H1903 H 1.02985 0.83324 0.09326 0.0
H1904 H 0.08768 0.72723 0.08159 0.0
H1905 H 0.05358 0.77996 0.08033 0.0
H1906 H 0.9825 0.73022 0.10684 0.0
H1907 H 1.01626 0.6778 0.1079 0.0
C1908 C 0.93904 0.8188 0.09269 0.0
C1909 C 0.95044 0.85426 0.0935 0.0
C1910 C 0.95957 0.78903 0.09235 0.0
C1911 C 0.99289 0.79294 0.09275 0.0
C1912 C 1.00454 0.82845 0.09289 0.0
C1913 C 0.98374 0.85852 0.0933 0.0
C1914 C 0.06463 0.72731 0.08703 0.0
C1915 C 0.05498 0.69744 0.09472 0.0
C1916 C 0.04499 0.758 0.08643 0.0
C1917 C 1.01466 0.76015 0.09339 0.0
C1918 C 1.00514 0.73011 0.10102 0.0
C1919 C 1.02478 0.69966 0.1017 0.0
H1920 H 0.31044 0.28451 0.32303 0.0
H1921 H 0.25352 0.20142 0.29965 0.0
H1922 H 0.31543 0.31339 0.29915 0.0
H1923 H 0.258 0.23055 0.27602 0.0
H1924 H 0.2434 0.31721 0.24206 0.0
H1925 H 0.2392 0.28728 0.26571 0.0
H1926 H 0.33984 0.30085 0.27324 0.0
H1927 H 0.34423 0.3299 0.24962 0.0
C1928 C 0.29923 0.27227 0.31281 0.0
C1929 C 0.28129 0.24091 0.31331 0.0
C1930 C 0.30198 0.28883 0.29916 0.0
C1931 C 0.28677 0.27437 0.28579 0.0
C1932 C 0.26939 0.24269 0.28623 0.0
C1933 C 0.26682 0.22606 0.2998 0.0
C1934 C 0.26463 0.31349 0.24869 0.0
C1935 C 0.29403 0.32638 0.24401 0.0
C1936 C 0.26224 0.29645 0.26223 0.0
C1937 C 0.28918 0.29209 0.27137 0.0
C1938 C 0.31859 0.30451 0.26659 0.0
C1939 C 0.32102 0.32127 0.25305 0.0
H1940 H 0.95286 0.0655 0.51397 0.0
H1941 H 1.03076 0.04208 0.48304 0.0
H1942 H 0.98788 0.0557 0.5358 0.0
H1943 H 0.06587 1.03358 0.50475 0.0
H1944 H 0.12404 0.06624 0.55001 0.0
H1945 H 0.08807 0.07461 0.52861 0.0
H1946 H 1.02219 1.00022 0.54599 0.0
H1947 H 0.05893 0.99088 0.56721 0.0
C1948 C 0.97748 0.05859 0.51182 0.0
C1949 C 0.98881 0.0546 0.49665 0.0
C1950 C 0.99757 0.05271 0.52434 0.0
C1951 C 1.02991 0.04373 0.52215 0.0
C1952 C 0.04126 0.04047 0.50699 0.0
C1953 C 1.02103 0.04528 0.49449 0.0
C1954 C 0.10195 0.05153 0.54928 0.0
C1955 C 0.09461 1.02778 0.56043 0.0
C1956 C 0.08127 0.05629 0.53694 0.0
C1957 C 0.05194 0.03829 0.53548 0.0
C1958 C 0.04437 1.01477 0.54671 0.0
C1959 C 0.06556 1.0092 0.55885 0.0
H1960 H 0.36822 0.82532 0.7931 0.0
H1961 H 0.2915 0.80272 0.82344 0.0
H1962 H 0.33728 0.79932 0.77136 0.0
H1963 H 0.26096 0.77689 0.80193 0.0
H1964 H 0.22303 0.70403 0.76269 0.0
H1965 H 0.25831 0.72609 0.78338 0.0
H1966 H 0.29041 0.80997 0.75629 0.0
H1967 H 0.256 0.78716 0.73543 0.0
C1968 C 0.34481 0.81499 0.79518 0.0
C1969 C 0.33267 0.81599 0.81015 0.0
C1970 C 0.32702 0.80001 0.78269 0.0
C1971 C 0.29662 0.7856 0.78485 0.0
C1972 C 0.28451 0.78685 0.7998 0.0
C1973 C 0.30217 0.80181 0.81222 0.0
C1974 C 0.23796 0.7268 0.76102 0.0
C1975 C 0.23634 0.74389 0.74736 0.0
C1976 C 0.25799 0.73977 0.77299 0.0
C1977 C 0.27709 0.77014 0.77164 0.0
C1978 C 0.27626 0.78647 0.75777 0.0
C1979 C 0.25618 0.77357 0.74583 0.0
H1980 H 0.45984 0.09612 0.04718 0.0
H1981 H 0.51884 1.0295 0.07322 0.0
H1982 H 0.48992 0.07782 1.02418 0.0
H1983 H 0.54803 1.00961 0.05013 0.0
H1984 H 0.61611 1.00279 1.01003 0.0
H1985 H 0.58578 1.02319 0.03272 0.0
H1986 H 0.50331 0.03686 1.00447 0.0
H1987 H 0.53427 1.01824 0.98181 0.0
C1988 C 0.47878 0.07684 0.04795 0.0
C1989 C 0.48665 0.06429 0.06218 0.0
C1990 C 0.49622 0.06619 0.03465 0.0
C1991 C 0.52203 0.04221 0.035 0.0
C1992 C 0.52909 1.02876 0.0492 0.0
C1993 C 0.51192 0.0398 0.06253 0.0
C1994 C 0.59163 1.01071 1.00863 0.0
C1995 C 0.57791 1.00903 0.99395 0.0
C1996 C 0.57389 1.02201 1.02176 0.0
C1997 C 0.54153 1.03152 1.02077 0.0
C1998 C 0.52807 1.03041 1.00598 0.0
C1999 C 0.54596 1.01959 0.99284 0.0
H2000 H 0.26419 0.78325 0.32376 0.0
H2001 H 0.32003 0.69915 0.30033 0.0
H2002 H 0.25944 0.81216 0.29986 0.0
H2003 H 0.31596 0.72844 0.27673 0.0
H2004 H 0.3321 0.81631 0.24333 0.0
H2005 H 0.33583 0.78636 0.267 0.0
H2006 H 0.23479 0.79831 0.27359 0.0
H2007 H 0.2308 0.82713 0.24992 0.0
C2008 C 0.27522 0.77082 0.31354 0.0
C2009 C 0.29282 0.73918 0.31402 0.0
C2010 C 0.27263 0.7874 0.29989 0.0
C2011 C 0.28772 0.77269 0.28654 0.0
C2012 C 0.3047 0.74072 0.28695 0.0
C2013 C 0.30704 0.72403 0.3005 0.0
C2014 C 0.31069 0.81221 0.24974 0.0
C2015 C 0.28127 0.82456 0.24479 0.0
C2016 C 0.31282 0.7952 0.2633 0.0
C2017 C 0.2856 0.79042 0.27216 0.0
C2018 C 0.25621 0.80232 0.26713 0.0
C2019 C 0.25402 0.81896 0.25356 0.0
H2020 H 0.53448 0.0525 0.576 0.0
H2021 H 0.61624 0.06776 0.5478 0.0
H2022 H 0.50326 1.03488 0.55337 0.0
H2023 H 0.58562 0.04817 0.52506 0.0
H2024 H 0.51801 0.04181 0.4845 0.0
H2025 H 0.54808 0.06111 0.50745 0.0
H2026 H 0.48908 0.99482 0.53379 0.0
H2027 H 0.45817 0.97735 0.51103 0.0
C2028 C 0.54611 0.05128 0.56497 0.0
C2029 C 0.57814 0.06148 0.56389 0.0
C2030 C 0.52806 0.041 0.55182 0.0
C2031 C 0.54139 0.03997 0.53702 0.0
C2032 C 0.57381 0.04923 0.53603 0.0
C2033 C 0.59173 0.06005 0.54919 0.0
C2034 C 0.5111 1.03185 0.49525 0.0
C2035 C 0.48527 1.00821 0.49579 0.0
C2036 C 0.52877 0.04254 0.50851 0.0
C2037 C 0.52166 1.02954 0.5228 0.0
C2038 C 0.49543 1.00623 0.52328 0.0
C2039 C 0.47751 0.99601 0.51009 0.0
H2040 H 0.3261 0.30428 0.742 0.0
H2041 H 0.33678 0.20501 0.76311 0.0
H2042 H 0.29108 0.32652 0.76241 0.0
H2043 H 0.29986 0.22651 0.78313 0.0
H2044 H 0.26178 0.29001 0.82591 0.0
H2045 H 0.29593 0.26649 0.80509 0.0
H2046 H 0.24094 0.32371 0.77338 0.0
H2047 H 0.20751 0.34804 0.79441 0.0
C2048 C 0.32097 0.28699 0.75094 0.0
C2049 C 0.33493 0.25287 0.75088 0.0
C2050 C 0.30031 0.29967 0.76262 0.0
C2051 C 0.2925 0.27854 0.77459 0.0
C2052 C 0.30567 0.24396 0.77432 0.0
C2053 C 0.32663 0.23134 0.76266 0.0
C2054 C 0.25698 0.2975 0.81448 0.0
C2055 C 0.23193 0.32099 0.81185 0.0
C2056 C 0.27648 0.2838 0.80247 0.0
C2057 C 0.27133 0.2929 0.78741 0.0
C2058 C 0.24615 0.31644 0.78481 0.0
C2059 C 0.22688 0.33046 0.79687 0.0
H2060 H 0.08745 0.98681 0.99599 0.0
H2061 H 0.08401 0.10099 1.00635 0.0
H2062 H 0.052 0.97869 1.01724 0.0
H2063 H 0.04822 0.09285 1.02763 0.0
H2064 H 1.00644 0.06658 0.07375 0.0
H2065 H 0.04167 0.07475 0.05245 0.0
H2066 H 1.00025 0.98287 1.02727 0.0
H2067 H 0.96498 0.97448 0.04873 0.0
C2068 C 0.07905 1.01041 1.00265 0.0
C2069 C 0.08905 0.04471 0.9991 0.0
C2070 C 0.05835 1.00567 1.01499 0.0
C2071 C 0.04662 1.03497 1.02443 0.0
C2072 C 0.05675 0.0693 1.02095 0.0
C2073 C 0.07749 0.07407 1.00858 0.0
C2074 C 1.0044 0.0481 0.0637 0.0
C2075 C 0.98221 1.01979 0.06326 0.0
C2076 C 1.02488 0.05293 0.05129 0.0
C2077 C 1.02428 1.0297 0.03781 0.0
C2078 C 1.00217 1.00128 0.03737 0.0
C2079 C 0.98163 0.99642 0.04981 0.0
H2080 H 0.80866 0.78252 0.82352 0.0
H2081 H 0.7538 0.6975 0.80019 0.0
H2082 H 0.8121 0.81186 0.79969 0.0
H2083 H 0.75663 0.72717 0.77665 0.0
H2084 H 0.83952 0.82852 0.74991 0.0
H2085 H 0.8364 0.79932 0.77351 0.0
H2086 H 0.73569 0.7842 0.76679 0.0
H2087 H 0.73858 0.81447 0.74315 0.0
C2088 C 0.79757 0.76997 0.81333 0.0
C2089 C 0.78066 0.73791 0.81383 0.0
C2090 C 0.79941 0.78681 0.79972 0.0
C2091 C 0.78426 0.77194 0.78641 0.0
C2092 C 0.76792 0.73959 0.78683 0.0
C2093 C 0.7663 0.72265 0.80035 0.0
C2094 C 0.81654 0.81958 0.75352 0.0
C2095 C 0.78913 0.82439 0.74473 0.0
C2096 C 0.81485 0.80272 0.76704 0.0
C2097 C 0.7858 0.78984 0.77203 0.0
C2098 C 0.75844 0.79382 0.76314 0.0
C2099 C 0.76008 0.81102 0.74961 0.0
H2100 H 0.82092 0.2725 0.32262 0.0
H2101 H 0.83598 0.36785 0.29917 0.0
H2102 H 0.78793 0.24806 0.30173 0.0
H2103 H 0.80121 0.34425 0.27866 0.0
H2104 H 0.76872 0.27586 0.23633 0.0
H2105 H 0.80055 0.30087 0.25771 0.0
H2106 H 0.73902 0.2507 0.28902 0.0
H2107 H 0.70773 0.2249 0.26744 0.0
C2108 C 0.81716 0.28846 0.31307 0.0
C2109 C 0.83174 0.3221 0.31262 0.0
C2110 C 0.79772 0.27453 0.30111 0.0
C2111 C 0.7919 0.29393 0.28835 0.0
C2112 C 0.80559 0.32811 0.28811 0.0
C2113 C 0.82528 0.34195 0.30004 0.0
C2114 C 0.76195 0.27024 0.24778 0.0
C2115 C 0.73563 0.24841 0.25017 0.0
C2116 C 0.78013 0.28479 0.2601 0.0
C2117 C 0.77235 0.27822 0.27521 0.0
C2118 C 0.7461 0.25608 0.27758 0.0
C2119 C 0.72809 0.24122 0.2652 0.0
H2120 H 0.8303 0.31375 0.74317 0.0
H2121 H 0.72939 0.33043 0.74892 0.0
H2122 H 0.8313 0.28235 0.76656 0.0
H2123 H 0.73066 0.30013 0.77227 0.0
H2124 H 0.75655 0.28152 0.82252 0.0
H2125 H 0.75417 0.31127 0.79876 0.0
H2126 H 0.8084 0.22539 0.77576 0.0
H2127 H 0.81016 0.19533 0.79926 0.0
C2128 C 0.80841 0.31065 0.74935 0.0
C2129 C 0.77993 0.3251 0.74428 0.0
C2130 C 0.80896 0.29279 0.76273 0.0
C2131 C 0.78107 0.28921 0.77127 0.0
C2132 C 0.75259 0.30317 0.76608 0.0
C2133 C 0.75198 0.32068 0.7527 0.0
C2134 C 0.7675 0.26877 0.81234 0.0
C2135 C 0.78387 0.23632 0.81284 0.0
C2136 C 0.76629 0.28584 0.79878 0.0
C2137 C 0.78151 0.27079 0.78552 0.0
C2138 C 0.79709 0.23793 0.78591 0.0
C2139 C 0.79808 0.22077 0.79938 0.0
H2140 H 0.77821 0.8013 0.32204 0.0
H2141 H 0.70559 0.83566 0.29178 0.0
H2142 H 0.80837 0.77593 0.30025 0.0
H2143 H 0.73586 0.80987 0.26977 0.0
H2144 H 0.81777 0.79428 0.23454 0.0
H2145 H 0.78397 0.81777 0.25548 0.0
H2146 H 0.80802 0.72746 0.28072 0.0
H2147 H 0.84292 0.7048 0.26005 0.0
C2148 C 0.76846 0.80311 0.31072 0.0
C2149 C 0.73928 0.82033 0.30871 0.0
C2150 C 0.78578 0.78841 0.29818 0.0
C2151 C 0.77447 0.7904 0.2832 0.0
C2152 C 0.74544 0.80803 0.28113 0.0
C2153 C 0.72808 0.82288 0.29374 0.0
C2154 C 0.81597 0.77944 0.24456 0.0
C2155 C 0.83351 0.74781 0.24562 0.0
C2156 C 0.79623 0.79275 0.25653 0.0
C2157 C 0.79342 0.77476 0.2699 0.0
C2158 C 0.81002 0.74242 0.27072 0.0
C2159 C 0.82979 0.72912 0.25875 0.0
H2160 H 0.58903 0.58144 0.06304 0.0
H2161 H 0.58292 0.46718 0.05351 0.0
H2162 H 0.55332 0.5898 0.04189 0.0
H2163 H 0.54685 0.47556 0.03234 0.0
H2164 H 0.50453 0.50084 0.98624 0.0
H2165 H 0.54002 0.49263 1.00744 0.0
H2166 H 0.50147 0.58707 0.03197 0.0
H2167 H 0.46591 0.5955 1.01056 0.0
C2168 C 0.57998 0.55787 0.05659 0.0
C2169 C 0.58933 0.52347 0.06034 0.0
C2170 C 0.55913 0.56276 0.0443 0.0
C2171 C 0.54656 0.53352 0.03511 0.0
C2172 C 0.55603 0.49907 0.03881 0.0
C2173 C 0.57693 0.49416 0.05112 0.0
C2174 C 0.50316 0.51989 0.99613 0.0
C2175 C 0.48166 0.54889 0.9964 0.0
C2176 C 0.5238 0.51504 1.00849 0.0
C2177 C 0.52408 0.53893 1.02177 0.0
C2178 C 0.50271 0.5681 1.02203 0.0
C2179 C 0.482 0.57298 1.00962 0.0
H2180 H 0.96318 0.6025 0.54638 0.0
H2181 H 1.01941 0.53312 0.57241 0.0
H2182 H 0.99375 0.58405 0.52353 0.0
H2183 H 0.04903 0.51312 0.54948 0.0
H2184 H 0.11845 0.50508 0.50988 0.0
H2185 H 0.08781 0.52578 0.53245 0.0
H2186 H 1.00693 0.54338 0.5037 0.0
H2187 H 0.03821 0.52446 0.4812 0.0
C2188 C 0.98159 0.58261 0.54718 0.0
C2189 C 0.98855 0.56931 0.56136 0.0
C2190 C 0.99932 0.57186 0.53396 0.0
C2191 C 1.02451 0.54705 0.53436 0.0
C2192 C 1.03063 0.53291 0.54852 0.0
C2193 C 1.01319 0.54403 0.56175 0.0
C2194 C 0.09428 0.51393 0.50835 0.0
C2195 C 0.08111 0.51325 0.49357 0.0
C2196 C 0.07634 0.52541 0.5214 0.0
C2197 C 0.0443 0.53615 0.52023 0.0
C2198 C 1.03143 0.536 0.50536 0.0
C2199 C 0.04951 0.52498 0.49231 0.0
H2200 H 0.03683 0.54989 0.07686 0.0
H2201 H 0.117 0.56801 0.04802 0.0
H2202 H 1.00531 0.53093 0.05446 0.0
H2203 H 0.08611 0.54719 1.02554 0.0
H2204 H 1.01744 0.53923 0.98561 0.0
H2205 H 0.04736 0.55955 1.00843 0.0
H2206 H 0.99173 0.49009 0.03485 0.0
H2207 H 0.96086 0.47139 1.01213 0.0
C2208 C 0.04806 0.54908 0.06574 0.0
C2209 C 0.07972 0.56047 0.0644 0.0
C2210 C 1.02983 0.53802 0.05274 0.0
C2211 C 0.04262 0.53746 0.03785 0.0
C2212 C 0.0747 0.54788 0.0366 0.0
C2213 C 0.09279 0.55943 0.0496 0.0
C2214 C 1.01121 0.52873 0.99635 0.0
C2215 C 0.98638 0.50379 0.99692 0.0
C2216 C 1.02882 0.54003 1.00952 0.0
C2217 C 1.02268 0.5264 1.02378 0.0
C2218 C 0.99732 0.50191 1.02434 0.0
C2219 C 0.97942 0.49101 1.0112 0.0
H2220 H 0.50523 0.56873 0.574 0.0
H2221 H 0.46514 0.4762 0.54871 0.0
H2222 H 0.54028 0.57796 0.55276 0.0
H2223 H 0.50025 0.48565 0.5273 0.0
H2224 H 0.58731 0.49174 0.49608 0.0
H2225 H 0.55202 0.48266 0.51727 0.0
H2226 H 0.54668 0.59662 0.528 0.0
H2227 H 0.58235 0.60575 0.50676 0.0
C2228 C 0.50345 0.55036 0.5639 0.0
C2229 C 0.48168 0.52162 0.56339 0.0
C2230 C 0.52383 0.55581 0.55152 0.0
C2231 C 0.52358 0.5328 0.53797 0.0
C2232 C 0.50191 0.50394 0.53745 0.0
C2233 C 0.48145 0.49846 0.54986 0.0
C2234 C 0.5786 0.51512 0.50279 0.0
C2235 C 0.58812 0.54967 0.49934 0.0
C2236 C 0.55799 0.5098 0.5151 0.0
C2237 C 0.54584 0.53873 0.52463 0.0
C2238 C 0.55552 0.57332 0.52125 0.0
C2239 C 0.57618 0.57867 0.50891 0.0
H2240 H 0.24148 0.05202 0.38815 0.0
H2241 H 0.31162 0.12985 0.37824 0.0
H2242 H 0.27728 1.02773 0.40649 0.0
H2243 H 0.34719 0.10695 0.39702 0.0
H2244 H 0.41778 0.05043 0.42681 0.0
H2245 H 0.38239 0.07405 0.40827 0.0
H2246 H 0.3037 1.02058 0.42812 0.0
H2247 H 0.34017 0.9952 0.44602 0.0
C2248 C 0.26468 0.06409 0.38979 0.0
C2249 C 0.27316 0.09303 0.38123 0.0
C2250 C 0.28557 0.05021 0.40067 0.0
C2251 C 0.31624 0.06471 0.40391 0.0
C2252 C 0.32461 0.09373 0.39521 0.0
C2253 C 0.30381 0.1073 0.3842 0.0
C2254 C 0.39293 0.04352 0.42725 0.0
C2255 C 0.38259 1.02037 0.43818 0.0
C2256 C 0.372 0.0576 0.41649 0.0
C2257 C 0.339 0.04985 0.41603 0.0
C2258 C 0.3285 1.02741 0.42737 0.0
C2259 C 0.34967 1.01298 0.43805 0.0
H2260 H 0.39214 0.0564 0.67811 0.0
H2261 H 0.32128 0.13269 0.69448 0.0
H2262 H 0.35596 1.03139 0.65874 0.0
H2263 H 0.28371 0.10628 0.67523 0.0
H2264 H 0.22519 0.06291 0.63141 0.0
H2265 H 0.26163 0.09354 0.65031 0.0
H2266 H 0.31544 0.99608 0.65149 0.0
H2267 H 0.28089 0.96704 0.63263 0.0
C2268 C 0.36847 0.06757 0.67788 0.0
C2269 C 0.36016 0.09659 0.68841 0.0
C2270 C 0.34713 0.05282 0.66657 0.0
C2271 C 0.31572 0.06574 0.66506 0.0
C2272 C 0.30728 0.09499 0.6756 0.0
C2273 C 0.32897 0.11009 0.68694 0.0
C2274 C 0.24527 0.04832 0.63543 0.0
C2275 C 0.24965 1.01209 0.62998 0.0
C2276 C 0.26623 0.06586 0.64658 0.0
C2277 C 0.29256 0.04805 0.65283 0.0
C2278 C 0.29666 1.01203 0.64714 0.0
C2279 C 0.27614 0.99485 0.63611 0.0
H2280 H 0.27929 0.10692 0.9295 0.0
H2281 H 0.22322 1.01126 0.92997 0.0
H2282 H 0.31404 0.07816 0.91062 0.0
H2283 H 0.25975 0.98096 0.91108 0.0
H2284 H 0.31906 0.94197 0.8672 0.0
H2285 H 0.28177 0.96855 0.88644 0.0
H2286 H 0.35439 0.04294 0.9029 0.0
H2287 H 0.39044 1.01758 0.88347 0.0
C2288 C 0.27449 0.07922 0.92584 0.0
C2289 C 0.24785 0.06193 0.93177 0.0
C2290 C 0.29511 0.06221 0.91481 0.0
C2291 C 0.29091 1.02636 0.9089 0.0
C2292 C 0.26443 1.00852 0.91495 0.0
C2293 C 0.2434 1.02588 0.92611 0.0
C2294 C 0.32691 0.96451 0.87473 0.0
C2295 C 0.35815 0.97775 0.87322 0.0
C2296 C 0.30538 0.9797 0.88607 0.0
C2297 C 0.314 1.00881 0.89662 0.0
C2298 C 0.34545 1.02158 0.89508 0.0
C2299 C 0.3667 1.00669 0.88373 0.0
H2300 H 0.31918 0.94459 0.18285 0.0
H2301 H 0.24661 1.01575 0.16898 0.0
H2302 H 0.35602 0.96809 0.16467 0.0
H2303 H 0.28346 0.04026 0.15115 0.0
H2304 H 0.34851 0.06754 0.11146 0.0
H2305 H 0.31158 0.04194 0.12908 0.0
H2306 H 0.39072 1.00683 0.15525 0.0
H2307 H 0.42723 1.03131 0.13733 0.0
C2308 C 0.311 0.96572 0.17613 0.0
C2309 C 0.27933 0.97802 0.17781 0.0
C2310 C 0.3325 0.97958 0.1655 0.0
C2311 C 0.32373 1.00673 0.15589 0.0
C2312 C 0.29202 1.01921 0.15778 0.0
C2313 C 0.27053 1.00522 0.16834 0.0
C2314 C 0.35819 0.05386 0.12081 0.0
C2315 C 0.39153 0.05155 0.12251 0.0
C2316 C 0.33668 0.03931 0.13127 0.0
C2317 C 0.34714 1.02177 0.14416 0.0
C2318 C 0.38061 1.01922 0.14566 0.0
C2319 C 0.40204 1.0336 0.13519 0.0
H2320 H 0.8249 1.01781 0.67005 0.0
H2321 H 0.75398 0.94048 0.67956 0.0
H2322 H 0.78965 0.04249 0.65156 0.0
H2323 H 0.71901 0.96373 0.66063 0.0
H2324 H 0.64927 1.02132 0.63099 0.0
H2325 H 0.68428 0.99732 0.64953 0.0
H2326 H 0.76365 0.04979 0.62977 0.0
H2327 H 0.72751 0.07568 0.61182 0.0
C2328 C 0.80166 1.00592 0.66828 0.0
C2329 C 0.79276 0.97701 0.67677 0.0
C2330 C 0.7811 1.02003 0.65732 0.0
C2331 C 0.7504 1.0058 0.65395 0.0
C2332 C 0.74164 0.97678 0.66256 0.0
C2333 C 0.76209 0.96299 0.67365 0.0
C2334 C 0.6742 1.02791 0.63054 0.0
C2335 C 0.68484 0.05095 0.61962 0.0
C2336 C 0.6949 1.0136 0.64131 0.0
C2337 C 0.72795 1.02094 0.6418 0.0
C2338 C 0.73877 0.04326 0.63047 0.0
C2339 C 0.71782 0.05797 0.61977 0.0
H2340 H 0.85317 1.01655 0.42831 0.0
H2341 H 0.79408 0.11024 0.42899 0.0
H2342 H 0.81676 0.98562 0.40952 0.0
H2343 H 0.75953 0.08101 0.41019 0.0
H2344 H 0.68371 1.01915 0.38355 0.0
H2345 H 0.71998 0.04469 0.40277 0.0
H2346 H 0.7938 0.97333 0.38496 0.0
H2347 H 0.75619 0.94632 0.36591 0.0
C2348 C 0.83236 1.03058 0.42472 0.0
C2349 C 0.827 0.06627 0.43067 0.0
C2350 C 0.81141 1.01288 0.41363 0.0
C2351 C 0.78414 1.03004 0.40794 0.0
C2352 C 0.77909 0.06554 0.41411 0.0
C2353 C 0.79959 0.08284 0.4251 0.0
C2354 C 0.70774 1.00892 0.38346 0.0
C2355 C 0.7165 0.98069 0.37264 0.0
C2356 C 0.72913 1.02398 0.39468 0.0
C2357 C 0.76099 1.01216 0.39578 0.0
C2358 C 0.76987 0.98374 0.38492 0.0
C2359 C 0.74816 0.96833 0.37369 0.0
H2360 H 0.78936 0.95966 0.13132 0.0
H2361 H 0.84673 0.05456 0.13189 0.0
H2362 H 0.75441 0.98826 0.15011 0.0
H2363 H 0.8099 0.08481 0.15066 0.0
H2364 H 0.74934 0.12325 0.19422 0.0
H2365 H 0.78706 0.09683 0.17514 0.0
H2366 H 0.71432 1.02359 0.15775 0.0
H2367 H 0.67793 0.04862 0.17704 0.0
C2368 C 0.7944 0.9872 0.13518 0.0
C2369 C 0.82147 1.00429 0.12959 0.0
C2370 C 0.77365 1.00412 0.14616 0.0
C2371 C 0.77811 0.03973 0.15231 0.0
C2372 C 0.80501 0.05742 0.14658 0.0
C2373 C 0.82621 0.04012 0.1355 0.0
C2374 C 0.74157 0.10097 0.18653 0.0
C2375 C 0.71017 0.08796 0.18772 0.0
C2376 C 0.76335 0.08589 0.17528 0.0
C2377 C 0.75481 0.05716 0.16451 0.0
C2378 C 0.72322 0.04463 0.16575 0.0
C2379 C 0.70175 0.05937 0.17701 0.0
H2380 H 0.64934 0.04559 0.92652 0.0
H2381 H 0.72775 0.99474 0.94738 0.0
H2382 H 0.68476 0.06942 0.90817 0.0
H2383 H 0.76423 1.02052 0.92956 0.0
H2384 H 0.82618 0.051 0.88925 0.0
H2385 H 0.79061 1.02642 0.90762 0.0
H2386 H 0.71957 0.10416 0.89768 0.0
H2387 H 0.75482 0.12729 0.87889 0.0
C2388 C 0.67439 0.03979 0.9274 0.0
C2389 C 0.68498 1.01777 0.93873 0.0
C2390 C 0.69529 0.054 0.91673 0.0
C2391 C 0.72849 0.04758 0.91677 0.0
C2392 C 0.73924 1.02627 0.92848 0.0
C2393 C 0.71809 1.01165 0.93909 0.0
C2394 C 0.80278 0.06266 0.8908 0.0
C2395 C 0.79383 0.09124 0.88212 0.0
C2396 C 0.78206 0.04863 0.90168 0.0
C2397 C 0.75116 0.06262 0.90475 0.0
C2398 C 0.74236 0.09131 0.89596 0.0
C2399 C 0.76297 0.10502 0.88496 0.0
H2400 H 0.74399 0.55147 0.8905 0.0
H2401 H 0.81589 0.62303 0.87644 0.0
H2402 H 0.78128 0.52733 0.90832 0.0
H2403 H 0.85313 0.59985 0.89456 0.0
H2404 H 0.92538 0.53719 0.92175 0.0
H2405 H 0.88835 0.56134 0.90392 0.0
H2406 H 0.80994 0.52581 0.93035 0.0
H2407 H 0.84738 0.50067 0.94792 0.0
C2408 C 0.76784 0.56217 0.89108 0.0
C2409 C 0.7763 0.58938 0.88156 0.0
C2410 C 0.7896 0.54837 0.90164 0.0
C2411 C 0.82128 0.56104 0.90346 0.0
C2412 C 0.82968 0.58821 0.8938 0.0
C2413 C 0.80792 0.60189 0.8832 0.0
C2414 C 0.90024 0.53476 0.92398 0.0
C2415 C 0.89013 0.51685 0.93673 0.0
C2416 C 0.8785 0.54894 0.91354 0.0
C2417 C 0.84505 0.54618 0.91514 0.0
C2418 C 0.83498 0.52864 0.92809 0.0
C2419 C 0.85681 0.51434 0.93852 0.0
H2420 H 0.7244 0.55691 0.12931 0.0
H2421 H 0.77972 0.46063 0.13003 0.0
H2422 H 0.76142 0.58711 0.14802 0.0
H2423 H 0.81485 0.48926 0.14873 0.0
H2424 H 0.89209 0.54888 0.17549 0.0
H2425 H 0.85557 0.52385 0.15623 0.0
H2426 H 0.78406 0.59988 0.17255 0.0
H2427 H 0.8219 0.62618 0.19162 0.0
C2428 C 0.74452 0.54214 0.13318 0.0
C2429 C 0.74862 0.50594 0.12764 0.0
C2430 C 0.76582 0.55943 0.14423 0.0
C2431 C 0.79223 0.54138 0.1503 0.0
C2432 C 0.79604 0.50539 0.14452 0.0
C2433 C 0.77518 0.48846 0.13358 0.0
C2434 C 0.86849 0.56023 0.17525 0.0
C2435 C 0.86045 0.58954 0.18566 0.0
C2436 C 0.84696 0.54552 0.16399 0.0
C2437 C 0.81565 0.55882 0.16246 0.0
C2438 C 0.80753 0.58831 0.17292 0.0
C2439 C 0.82937 0.60333 0.18417 0.0
H2440 H 0.88912 0.52301 0.3835 0.0
H2441 H 0.81795 0.4471 0.36727 0.0
H2442 H 0.85325 0.54798 0.40303 0.0
H2443 H 0.78069 0.47345 0.38661 0.0
H2444 H 0.72183 0.51642 0.43011 0.0
H2445 H 0.75817 0.48616 0.4111 0.0
H2446 H 0.81338 0.58283 0.41119 0.0
H2447 H 0.77894 0.61141 0.4302 0.0
C2448 C 0.86542 0.51198 0.38378 0.0
C2449 C 0.85695 0.48305 0.37325 0.0
C2450 C 0.84424 0.52668 0.39519 0.0
C2451 C 0.81284 0.51381 0.3968 0.0
C2452 C 0.80425 0.48472 0.38621 0.0
C2453 C 0.82576 0.46966 0.3748 0.0
C2454 C 0.74222 0.53088 0.42636 0.0
C2455 C 0.74702 0.56674 0.43223 0.0
C2456 C 0.76313 0.51357 0.41512 0.0
C2457 C 0.78982 0.53126 0.40917 0.0
C2458 C 0.79433 0.56691 0.41528 0.0
C2459 C 0.77387 0.58384 0.42641 0.0
H2460 H 0.74751 0.51666 0.66773 0.0
H2461 H 0.82056 0.44615 0.68161 0.0
H2462 H 0.78429 0.54165 0.64996 0.0
H2463 H 0.85731 0.47012 0.66353 0.0
H2464 H 0.92853 0.53343 0.63622 0.0
H2465 H 0.89196 0.50851 0.65399 0.0
H2466 H 0.8129 0.54494 0.62813 0.0
H2467 H 0.84992 0.57092 0.61065 0.0
C2468 C 0.77152 0.50635 0.66711 0.0
C2469 C 0.78043 0.47918 0.67658 0.0
C2470 C 0.793 0.52065 0.65658 0.0
C2471 C 0.82486 0.50856 0.65472 0.0
C2472 C 0.83371 0.48138 0.66432 0.0
C2473 C 0.81223 0.46722 0.6749 0.0
C2474 C 0.90334 0.53592 0.63411 0.0
C2475 C 0.89294 0.55435 0.62153 0.0
C2476 C 0.88185 0.52128 0.6445 0.0
C2477 C 0.84835 0.52399 0.64306 0.0
C2478 C 0.83799 0.54207 0.63028 0.0
C2479 C 0.85958 0.55687 0.6199 0.0
H2480 H 0.25863 0.44243 0.17962 0.0
H2481 H 0.32922 0.51931 0.16917 0.0
H2482 H 0.22299 0.46529 0.16086 0.0
H2483 H 0.29331 0.54357 0.15084 0.0
H2484 H 0.22978 0.57547 0.11131 0.0
H2485 H 0.26657 0.55002 0.1291 0.0
H2486 H 0.18782 0.49908 0.15007 0.0
H2487 H 0.15211 0.52268 0.13172 0.0
C2488 C 0.26653 0.46476 0.17354 0.0
C2489 C 0.29732 0.47878 0.17635 0.0
C2490 C 0.2457 0.47831 0.16255 0.0
C2491 C 0.25415 0.50708 0.15373 0.0
C2492 C 0.28498 0.5213 0.15678 0.0
C2493 C 0.30592 0.50743 0.16765 0.0
C2494 C 0.22035 0.5582 0.11949 0.0
C2495 C 0.18733 0.55145 0.11973 0.0
C2496 C 0.24169 0.54374 0.1301 0.0
C2497 C 0.23125 0.52196 0.1417 0.0
C2498 C 0.19815 0.51492 0.14161 0.0
C2499 C 0.17706 0.52898 0.13094 0.0
H2500 H 0.34565 0.5132 0.92722 0.0
H2501 H 0.28813 0.60822 0.92886 0.0
H2502 H 0.30771 0.48328 0.9089 0.0
H2503 H 0.25202 0.57993 0.91052 0.0
H2504 H 0.17417 0.5201 0.8843 0.0
H2505 H 0.21154 0.54467 0.90327 0.0
H2506 H 0.28358 0.47193 0.88466 0.0
H2507 H 0.24497 0.44604 0.86589 0.0
C2508 C 0.32485 0.52771 0.92397 0.0
C2509 C 0.32042 0.56348 0.93002 0.0
C2510 C 0.303 0.51061 0.91313 0.0
C2511 C 0.27572 0.52846 0.90782 0.0
C2512 C 0.27155 0.56398 0.91414 0.0
C2513 C 0.29296 0.58071 0.92486 0.0
C2514 C 0.19804 0.50939 0.88399 0.0
C2515 C 0.20601 0.48111 0.87304 0.0
C2516 C 0.22006 0.52384 0.89507 0.0
C2517 C 0.25177 0.51129 0.89586 0.0
C2518 C 0.25982 0.48285 0.88486 0.0
C2519 C 0.23751 0.46807 0.8738 0.0
H2520 H 0.28767 0.46053 0.63031 0.0
H2521 H 0.34569 0.55505 0.63206 0.0
H2522 H 0.25192 0.48887 0.64879 0.0
H2523 H 0.3081 0.58506 0.65054 0.0
H2524 H 0.24574 0.62235 0.69372 0.0
H2525 H 0.28413 0.59639 0.67485 0.0
H2526 H 0.21167 0.52435 0.65619 0.0
H2527 H 0.17455 0.54895 0.67526 0.0
C2528 C 0.2927 0.48794 0.63437 0.0
C2529 C 0.32021 0.50499 0.6292 0.0
C2530 C 0.27149 0.50471 0.64517 0.0
C2531 C 0.27589 0.54013 0.65158 0.0
C2532 C 0.30321 0.55781 0.64626 0.0
C2533 C 0.32487 0.54066 0.63533 0.0
C2534 C 0.23814 0.60044 0.68578 0.0
C2535 C 0.2066 0.58761 0.68656 0.0
C2536 C 0.26033 0.58563 0.67466 0.0
C2537 C 0.2521 0.55735 0.66361 0.0
C2538 C 0.22034 0.54503 0.66443 0.0
C2539 C 0.19845 0.55951 0.67556 0.0
H2540 H 0.15277 0.54907 0.42485 0.0
H2541 H 0.22991 0.49912 0.44704 0.0
H2542 H 0.18927 0.57194 0.40665 0.0
H2543 H 0.26736 0.52376 0.42937 0.0
H2544 H 0.33131 0.55138 0.38928 0.0
H2545 H 0.29455 0.52786 0.40743 0.0
H2546 H 0.22516 0.60651 0.39653 0.0
H2547 H 0.26162 0.62867 0.37798 0.0
C2548 C 0.17773 0.54326 0.42605 0.0
C2549 C 0.18767 0.52183 0.43771 0.0
C2550 C 0.19925 0.55687 0.41548 0.0
C2551 C 0.23241 0.55031 0.41594 0.0
C2552 C 0.24247 0.52956 0.42796 0.0
C2553 C 0.22073 0.5156 0.43848 0.0
C2554 C 0.30804 0.56348 0.39057 0.0
C2555 C 0.29993 0.59202 0.3817 0.0
C2556 C 0.28662 0.55007 0.40132 0.0
C2557 C 0.25581 0.56466 0.40405 0.0
C2558 C 0.24784 0.59327 0.39506 0.0
C2559 C 0.26916 0.6064 0.3842 0.0
H2560 H 0.18684 0.03816 0.32402 0.0
H2561 H 0.22857 0.12808 0.30388 0.0
H2562 H 0.18778 1.0039 0.29897 0.0
H2563 H 0.22881 0.09416 0.27885 0.0
H2564 H 0.18972 1.03291 0.23385 0.0
H2565 H 0.18877 0.06724 0.25889 0.0
H2566 H 0.22937 0.97757 0.27968 0.0
H2567 H 0.23101 0.94359 0.25468 0.0
C2568 C 0.19615 0.05068 0.31427 0.0
C2569 C 0.20774 0.08594 0.31608 0.0
C2570 C 0.19678 1.03098 0.29989 0.0
C2571 C 0.20832 0.04619 0.2868 0.0
C2572 C 0.21954 0.08158 0.2886 0.0
C2573 C 0.21956 0.10099 0.30301 0.0
C2574 C 0.19855 1.02054 0.24375 0.0
C2575 C 0.21056 0.98543 0.24214 0.0
C2576 C 0.19809 0.04028 0.25812 0.0
C2577 C 0.20893 1.02524 0.27139 0.0
C2578 C 0.22061 0.99001 0.26979 0.0
C2579 C 0.22172 0.97057 0.25539 0.0
H2580 H 0.20404 0.95091 0.55384 0.0
H2581 H 0.2793 0.90903 0.5807 0.0
H2582 H 0.23872 0.94651 0.53135 0.0
H2583 H 0.31401 0.90551 0.55831 0.0
H2584 H 0.37318 0.95043 0.51889 0.0
H2585 H 0.33718 0.95603 0.54092 0.0
H2586 H 0.26814 0.89067 0.51539 0.0
H2587 H 0.30441 0.88457 0.49348 0.0
C2588 C 0.22795 0.94081 0.55492 0.0
C2589 C 0.239 0.93024 0.56898 0.0
C2590 C 0.24767 0.93826 0.54209 0.0
C2591 C 0.27894 0.92588 0.54321 0.0
C2592 C 0.29002 0.91538 0.55724 0.0
C2593 C 0.27011 0.91719 0.56999 0.0
C2594 C 0.3502 0.93758 0.51799 0.0
C2595 C 0.34147 0.91703 0.50458 0.0
C2596 C 0.32978 0.94057 0.53056 0.0
C2597 C 0.30005 0.9237 0.52977 0.0
C2598 C 0.29094 0.90397 0.51621 0.0
C2599 C 0.31165 0.90035 0.50376 0.0
H2600 H 0.47739 0.07037 0.74515 0.0
H2601 H 0.38543 0.11243 0.75849 0.0
H2602 H 0.47512 1.02961 0.76536 0.0
H2603 H 0.38291 0.07075 0.77877 0.0
H2604 H 0.38014 0.96129 0.80322 0.0
H2605 H 0.37991 1.00242 0.78265 0.0
H2606 H 0.47638 1.03227 0.79383 0.0
H2607 H 0.47642 0.99218 0.81429 0.0
C2608 C 0.45665 0.07118 0.75246 0.0
C2609 C 0.43175 0.09528 0.75013 0.0
C2610 C 0.45535 0.04759 0.76413 0.0
C2611 C 0.4288 0.04647 0.77383 0.0
C2612 C 0.40369 0.07044 0.77152 0.0
C2613 C 0.40528 0.09471 0.75996 0.0
C2614 C 0.4014 0.97632 0.80116 0.0
C2615 C 0.42838 0.9729 0.81047 0.0
C2616 C 0.40118 1.00029 0.78945 0.0
C2617 C 0.42815 1.02101 0.78645 0.0
C2618 C 0.45519 1.01685 0.79559 0.0
C2619 C 0.45519 0.99364 0.8074 0.0
H2620 H 0.24444 0.19788 0.99212 0.0
H2621 H 0.22971 0.08631 0.99824 0.0
H2622 H 0.2789 0.20316 1.01439 0.0
H2623 H 0.26614 0.09057 1.01987 0.0
H2624 H 0.31548 0.11506 0.06575 0.0
H2625 H 0.27667 0.11018 0.04492 0.0
H2626 H 0.32885 0.18974 1.02213 0.0
H2627 H 0.3657 0.196 0.0435 0.0
C2628 C 0.24884 0.17441 0.99822 0.0
C2629 C 0.23453 0.1417 0.99348 0.0
C2630 C 0.26889 0.17725 1.01091 0.0
C2631 C 0.27594 0.14716 1.01891 0.0
C2632 C 0.2611 0.1145 1.01422 0.0
C2633 C 0.24032 0.11193 1.00175 0.0
C2634 C 0.31831 0.13137 0.05622 0.0
C2635 C 0.34316 0.15607 0.05617 0.0
C2636 C 0.29628 0.12855 0.04423 0.0
C2637 C 0.29924 0.1498 0.03178 0.0
C2638 C 0.32494 0.17372 0.03166 0.0
C2639 C 0.34633 0.17715 0.04381 0.0
H2640 H 0.81094 0.96838 0.74879 0.0
H2641 H 0.90414 1.00907 0.73975 0.0
H2642 H 0.81122 1.00141 0.77401 0.0
H2643 H 0.90469 0.04147 0.76521 0.0
H2644 H 0.90478 0.05875 0.81923 0.0
H2645 H 0.90483 1.0262 0.79379 0.0
H2646 H 0.81149 0.06713 0.78519 0.0
H2647 H 0.81171 0.10028 0.81037 0.0
C2648 C 0.83149 0.98444 0.75214 0.0
C2649 C 0.85744 0.98611 0.7421 0.0
C2650 C 0.83163 1.00345 0.76664 0.0
C2651 C 0.85801 1.0241 0.77174 0.0
C2652 C 0.88405 1.02567 0.76175 0.0
C2653 C 0.88363 1.00728 0.74708 0.0
C2654 C 0.8842 0.06069 0.81195 0.0
C2655 C 0.85819 0.08214 0.81697 0.0
C2656 C 0.88433 0.04221 0.7973 0.0
C2657 C 0.85817 0.04398 0.78736 0.0
C2658 C 0.83197 0.06491 0.79251 0.0
C2659 C 0.83213 0.08399 0.80699 0.0
H2660 H 0.69972 0.19018 0.53766 0.0
H2661 H 0.75181 0.11546 0.56276 0.0
H2662 H 0.73928 0.18505 0.51746 0.0
H2663 H 0.793 0.11163 0.54298 0.0
H2664 H 0.84619 0.08968 0.49723 0.0
H2665 H 0.8076 0.09164 0.51803 0.0
H2666 H 0.78987 0.20315 0.5121 0.0
H2667 H 0.82672 0.20023 0.49077 0.0
C2668 C 0.71995 0.17283 0.53883 0.0
C2669 C 0.72295 0.15335 0.5517 0.0
C2670 C 0.74287 0.1701 0.52736 0.0
C2671 C 0.76989 0.14848 0.52865 0.0
C2672 C 0.7725 0.12835 0.54148 0.0
C2673 C 0.74904 0.13052 0.55283 0.0
C2674 C 0.83413 0.11461 0.50051 0.0
C2675 C 0.83915 0.14471 0.49233 0.0
C2676 C 0.81206 0.11582 0.51247 0.0
C2677 C 0.79504 0.1474 0.51666 0.0
C2678 C 0.80156 0.17798 0.50892 0.0
C2679 C 0.82299 0.17649 0.49678 0.0
H2680 H 0.59519 0.99765 0.31601 0.0
H2681 H 0.6889 0.96117 0.30265 0.0
H2682 H 0.59448 0.03676 0.29511 0.0
H2683 H 0.68846 1.00128 0.28178 0.0
H2684 H 0.68529 0.11002 0.25722 0.0
H2685 H 0.68742 0.06985 0.27802 0.0
H2686 H 0.59344 1.03188 0.26613 0.0
H2687 H 0.59161 0.0711 0.24526 0.0
C2688 C 0.61567 0.99775 0.30856 0.0
C2689 C 0.64201 0.97576 0.31107 0.0
C2690 C 0.61524 1.02033 0.29651 0.0
C2691 C 0.64143 1.02255 0.28666 0.0
C2692 C 0.6679 1.00063 0.28915 0.0
C2693 C 0.66805 0.9773 0.30105 0.0
C2694 C 0.66497 0.09334 0.25912 0.0
C2695 C 0.63817 0.09423 0.24951 0.0
C2696 C 0.66631 0.06996 0.27098 0.0
C2697 C 0.64062 0.04732 0.27385 0.0
C2698 C 0.61365 0.04887 0.26442 0.0
C2699 C 0.6126 0.07153 0.2524 0.0
H2700 H 0.84191 0.98034 0.06296 0.0
H2701 H 0.82142 0.87036 0.07003 0.0
H2702 H 0.80402 0.97803 0.0419 0.0
H2703 H 0.78524 0.86704 0.0484 0.0
H2704 H 0.69666 0.87993 1.02143 0.0
H2705 H 0.73513 0.8852 0.04214 0.0
H2706 H 0.79081 0.95739 1.01695 0.0
H2707 H 0.75068 0.9535 0.99668 0.0
C2708 C 0.82974 0.95545 0.05977 0.0
C2709 C 0.83433 0.92561 0.06817 0.0
C2710 C 0.80809 0.95403 0.04765 0.0
C2711 C 0.79106 0.92249 0.0435 0.0
C2712 C 0.79699 0.89219 0.05153 0.0
C2713 C 0.81802 0.89389 0.06384 0.0
C2714 C 0.71708 0.89705 1.02045 0.0
C2715 C 0.72094 0.91622 1.00754 0.0
C2716 C 0.73938 0.89985 0.03222 0.0
C2717 C 0.7666 0.9212 0.03117 0.0
C2718 C 0.7701 0.94094 1.01828 0.0
C2719 C 0.74726 0.93872 1.00664 0.0
H2720 H 0.66389 0.55714 0.81868 0.0
H2721 H 0.75602 0.60129 0.81016 0.0
H2722 H 0.66439 0.52548 0.79305 0.0
H2723 H 0.75683 0.56899 0.78479 0.0
H2724 H 0.75942 0.47075 0.74805 0.0
H2725 H 0.7584 0.50329 0.77337 0.0
H2726 H 0.66432 0.54165 0.76445 0.0
H2727 H 0.66563 0.50978 0.73887 0.0
C2728 C 0.68438 0.55986 0.81143 0.0
C2729 C 0.70996 0.58177 0.81661 0.0
C2730 C 0.68457 0.54189 0.79667 0.0
C2731 C 0.71065 0.54461 0.78677 0.0
C2732 C 0.73641 0.56604 0.79207 0.0
C2733 C 0.73591 0.58463 0.80666 0.0
C2734 C 0.73857 0.48636 0.75139 0.0
C2735 C 0.71269 0.48769 0.74127 0.0
C2736 C 0.73801 0.50508 0.76595 0.0
C2737 C 0.71124 0.5251 0.77106 0.0
C2738 C 0.68526 0.52635 0.76099 0.0
C2739 C 0.68611 0.50827 0.74625 0.0
H2740 H 0.80067 0.38784 0.99037 0.0
H2741 H 0.87199 0.44501 1.0178 0.0
H2742 H 0.76398 0.39305 1.01212 0.0
H2743 H 0.83551 0.44976 0.03964 0.0
H2744 H 0.77494 0.40146 0.07783 0.0
H2745 H 0.80984 0.39933 0.05555 0.0
H2746 H 0.73619 0.44639 0.02952 0.0
H2747 H 0.7013 0.44932 0.05194 0.0
C2748 C 0.80838 0.4016 1.00106 0.0
C2749 C 0.83909 0.41601 1.00247 0.0
C2750 C 0.78741 0.40473 1.01343 0.0
C2751 C 0.79706 0.42165 1.02751 0.0
C2752 C 0.82764 0.43643 1.02889 0.0
C2753 C 0.84836 0.43395 1.01642 0.0
C2754 C 0.76611 0.41121 0.06734 0.0
C2755 C 0.73539 0.42554 0.06661 0.0
C2756 C 0.78616 0.41022 0.05465 0.0
C2757 C 0.77568 0.42287 0.0409 0.0
C2758 C 0.74475 0.43647 0.04002 0.0
C2759 C 0.72487 0.43816 0.05283 0.0
H2760 H 0.88125 0.46331 0.3028 0.0
H2761 H 0.97568 0.49961 0.31479 0.0
H2762 H 0.88063 0.50284 0.28165 0.0
H2763 H 0.97529 0.53812 0.29376 0.0
H2764 H 0.97762 0.57117 0.2442 0.0
H2765 H 0.97562 0.53258 0.26519 0.0
H2766 H 0.8816 0.571 0.27677 0.0
H2767 H 0.88384 0.61058 0.25568 0.0
C2768 C 0.90202 0.47924 0.30084 0.0
C2769 C 0.92861 0.47778 0.31056 0.0
C2770 C 0.90156 0.50228 0.28879 0.0
C2771 C 0.92792 0.524 0.28586 0.0
C2772 C 0.95457 0.52187 0.29545 0.0
C2773 C 0.95478 0.49958 0.3076 0.0
C2774 C 0.95654 0.57187 0.25127 0.0
C2775 C 0.93103 0.59458 0.24818 0.0
C2776 C 0.95539 0.54953 0.26339 0.0
C2777 C 0.92842 0.54826 0.27281 0.0
C2778 C 0.90273 0.57087 0.26976 0.0
C2779 C 0.90414 0.59395 0.25774 0.0
H2780 H 0.76439 0.68901 0.48493 0.0
H2781 H 0.70991 0.60819 0.50554 0.0
H2782 H 0.80009 0.6931 0.50671 0.0
H2783 H 0.74544 0.61297 0.52767 0.0
H2784 H 0.83734 0.60475 0.55627 0.0
H2785 H 0.79989 0.5995 0.53496 0.0
H2786 H 0.8015 0.71403 0.53316 0.0
H2787 H 0.83977 0.71913 0.55378 0.0
C2788 C 0.7598 0.67234 0.4942 0.0
C2789 C 0.73421 0.64831 0.49349 0.0
C2790 C 0.78025 0.67482 0.50675 0.0
C2791 C 0.77563 0.65345 0.51899 0.0
C2792 C 0.7499 0.62953 0.51836 0.0
C2793 C 0.72939 0.627 0.50574 0.0
C2794 C 0.82991 0.62877 0.55125 0.0
C2795 C 0.84176 0.66236 0.55681 0.0
C2796 C 0.80812 0.62579 0.53914 0.0
C2797 C 0.79772 0.65634 0.53229 0.0
C2798 C 0.80928 0.68987 0.53799 0.0
C2799 C 0.83103 0.69283 0.55002 0.0
H2800 H 0.41128 0.55906 0.31881 0.0
H2801 H 0.31895 0.60289 0.31022 0.0
H2802 H 0.41071 0.52698 0.29327 0.0
H2803 H 0.31808 0.57016 0.28493 0.0
H2804 H 0.31612 0.47129 0.24837 0.0
H2805 H 0.31686 0.50412 0.27365 0.0
H2806 H 0.41058 0.54326 0.26471 0.0
H2807 H 0.40955 0.51113 0.2392 0.0
C2808 C 0.39073 0.56161 0.31156 0.0
C2809 C 0.36512 0.58357 0.31668 0.0
C2810 C 0.3905 0.5434 0.29686 0.0
C2811 C 0.36435 0.54594 0.28698 0.0
C2812 C 0.33854 0.56738 0.29222 0.0
C2813 C 0.33908 0.58621 0.30675 0.0
C2814 C 0.33681 0.48713 0.25171 0.0
C2815 C 0.36269 0.48862 0.24162 0.0
C2816 C 0.33722 0.50601 0.26623 0.0
C2817 C 0.36383 0.52631 0.27131 0.0
C2818 C 0.38978 0.52773 0.26126 0.0
C2819 C 0.38908 0.5095 0.24657 0.0
H2820 H 0.35009 0.59552 0.9986 0.0
H2821 H 0.31291 0.6958 0.98542 0.0
H2822 H 0.31464 0.59901 1.02071 0.0
H2823 H 0.27774 0.69931 1.00761 0.0
H2824 H 0.24595 0.71025 0.05773 0.0
H2825 H 0.28367 0.70566 0.03677 0.0
H2826 H 0.25379 0.59726 1.02462 0.0
H2827 H 0.21502 0.60199 0.04535 0.0
C2828 C 0.33456 0.61844 1.00049 0.0
C2829 C 0.33428 0.64541 0.99027 0.0
C2830 C 0.31415 0.62026 1.01308 0.0
C2831 C 0.29346 0.64937 1.01583 0.0
C2832 C 0.29363 0.67669 1.0058 0.0
C2833 C 0.31368 0.67461 0.99308 0.0
C2834 C 0.247 0.68548 0.05056 0.0
C2835 C 0.22689 0.65668 0.05318 0.0
C2836 C 0.26881 0.68287 0.03858 0.0
C2837 C 0.27145 0.65125 1.02903 0.0
C2838 C 0.25231 0.62193 0.03189 0.0
C2839 C 0.23014 0.62466 0.04381 0.0
H2840 H 0.118 0.54398 0.73579 0.0
H2841 H 0.15823 0.63132 0.76442 0.0
H2842 H 0.12074 0.50581 0.75689 0.0
H2843 H 0.16036 0.59287 0.78584 0.0
H2844 H 0.11832 0.5248 0.82378 0.0
H2845 H 0.12119 0.56284 0.80265 0.0
H2846 H 0.15978 0.47518 0.77367 0.0
H2847 H 0.15752 0.43682 0.79513 0.0
C2848 C 0.12741 0.55523 0.74662 0.0
C2849 C 0.13768 0.59113 0.74831 0.0
C2850 C 0.12922 0.53302 0.75874 0.0
C2851 C 0.14083 0.54594 0.77316 0.0
C2852 C 0.15114 0.58188 0.77493 0.0
C2853 C 0.14995 0.60402 0.76264 0.0
C2854 C 0.12753 0.51339 0.81294 0.0
C2855 C 0.13748 0.47735 0.81126 0.0
C2856 C 0.12942 0.53551 0.8008 0.0
C2857 C 0.14077 0.5224 0.78636 0.0
C2858 C 0.15076 0.48632 0.78459 0.0
C2859 C 0.14951 0.46424 0.79691 0.0
H2860 H 0.19884 0.4583 0.51869 0.0
H2861 H 0.26427 0.38831 0.49308 0.0
H2862 H 0.23607 0.46335 0.54028 0.0
H2863 H 0.30178 0.3939 0.51452 0.0
H2864 H 0.36868 0.44918 0.5532 0.0
H2865 H 0.33382 0.44872 0.53076 0.0
H2866 H 0.25684 0.40963 0.55714 0.0
H2867 H 0.29162 0.40914 0.5794 0.0
C2868 C 0.22143 0.44458 0.51762 0.0
C2869 C 0.22877 0.4228 0.50434 0.0
C2870 C 0.24255 0.44729 0.52993 0.0
C2871 C 0.27161 0.42893 0.52897 0.0
C2872 C 0.27953 0.40838 0.51545 0.0
C2873 C 0.25811 0.40504 0.50328 0.0
C2874 C 0.34435 0.44036 0.55415 0.0
C2875 C 0.33284 0.42904 0.56798 0.0
C2876 C 0.32452 0.44012 0.54136 0.0
C2877 C 0.29274 0.42942 0.54237 0.0
C2878 C 0.28122 0.4183 0.55619 0.0
C2879 C 0.30118 0.41776 0.56885 0.0
loop_
_geom_bond_atom_site_label_1
_geom_bond_atom_site_label_2
_geom_bond_distance
_geom_bond_site_symmetry_2
_ccdc_geom_bond_type
Co0 N5 2.057 . S
Co0 O17 2.021 . S
Co0 O20 2.062 . S
Co0 O24 2.117 . S
Co0 O25 2.020 . S
C1 O21 1.259 . S
C1 O24 1.258 . S
Co2 N11 2.057 . S
Co2 O18 2.117 . S
Co2 O19 2.020 . S
Co2 O21 2.021 . S
Co2 O26 2.062 . S
C3 N5 1.316 . S
C3 N6 1.347 . S
C3 H8 0.931 . S
C4 N5 1.375 . S
C4 C7 1.350 . S
C4 H9 0.930 . S
N5 Co0 2.057 . S
N5 C3 1.316 . S
N5 C4 1.375 . S
N6 C3 1.347 . S
N6 C7 1.373 . S
C7 C4 1.350 . S
C7 N6 1.373 . S
C7 H28 0.931 . S
H8 C3 0.931 . S
H9 C4 0.930 . S
C10 O17 1.259 . S
C10 O18 1.258 . S
N11 Co2 2.057 . S
N11 C12 1.316 . S
N11 C13 1.375 . S
C12 N11 1.316 . S
C12 N14 1.347 . S
C12 H23 0.931 . S
C13 N11 1.375 . S
C13 C15 1.350 . S
C13 H22 0.930 . S
N14 C12 1.347 . S
N14 C15 1.373 . S
C15 C13 1.350 . S
C15 N14 1.373 . S
C15 H29 0.931 . S
C16 O19 1.256 . S
C16 O20 1.255 . S
O17 Co0 2.021 . S
O17 C10 1.259 . S
O18 Co2 2.117 . S
O18 C10 1.258 . S
O19 Co2 2.020 . S
O19 C16 1.256 . S
O20 Co0 2.062 . S
O20 C16 1.255 . S
O21 C1 1.259 . S
O21 Co2 2.021 . S
H22 C13 0.930 . S
H23 C12 0.931 . S
O24 Co0 2.117 . S
O24 C1 1.258 . S
O25 Co0 2.020 . S
O25 C27 1.256 . S
O26 Co2 2.062 . S
O26 C27 1.255 . S
C27 O25 1.256 . S
C27 O26 1.255 . S
H28 C7 0.931 . S
H29 C15 0.931 . S
Co30 N35 2.057 . S
Co30 O47 2.021 . S
Co30 O50 2.062 . S
Co30 O54 2.117 . S
Co30 O55 2.020 . S
C31 O51 1.259 . S
C31 O54 1.258 . S
Co32 N41 2.057 . S
Co32 O48 2.117 . S
Co32 O49 2.020 . S
Co32 O51 2.021 . S
Co32 O56 2.062 . S
C33 N35 1.316 . S
C33 N36 1.347 . S
C33 H38 0.931 . S
C34 N35 1.375 . S
C34 C37 1.350 . S
C34 H39 0.930 . S
N35 Co30 2.057 . S
N35 C33 1.316 . S
N35 C34 1.375 . S
N36 C33 1.347 . S
N36 C37 1.373 . S
C37 C34 1.350 . S
C37 N36 1.373 . S
C37 H58 0.931 . S
H38 C33 0.931 . S
H39 C34 0.930 . S
C40 O47 1.259 . S
C40 O48 1.258 . S
N41 Co32 2.057 . S
N41 C42 1.316 . S
N41 C43 1.375 . S
C42 N41 1.316 . S
C42 N44 1.347 . S
C42 H53 0.931 . S
C43 N41 1.375 . S
C43 C45 1.350 . S
C43 H52 0.930 . S
N44 C42 1.347 . S
N44 C45 1.373 . S
C45 C43 1.350 . S
C45 N44 1.373 . S
C45 H59 0.931 . S
C46 O49 1.256 . S
C46 O50 1.255 . S
O47 Co30 2.021 . S
O47 C40 1.259 . S
O48 Co32 2.117 . S
O48 C40 1.258 . S
O49 Co32 2.020 . S
O49 C46 1.256 . S
O50 Co30 2.062 . S
O50 C46 1.255 . S
O51 C31 1.259 . S
O51 Co32 2.021 . S
H52 C43 0.930 . S
H53 C42 0.931 . S
O54 Co30 2.117 . S
O54 C31 1.258 . S
O55 Co30 2.020 . S
O55 C57 1.256 . S
O56 Co32 2.062 . S
O56 C57 1.255 . S
C57 O55 1.256 . S
C57 O56 1.255 . S
H58 C37 0.931 . S
H59 C45 0.931 . S
Co60 N65 2.057 . S
Co60 O77 2.021 . S
Co60 O80 2.062 . S
Co60 O84 2.117 . S
Co60 O85 2.020 . S
C61 O81 1.259 . S
C61 O84 1.258 . S
Co62 N71 2.057 . S
Co62 O78 2.117 . S
Co62 O79 2.020 . S
Co62 O81 2.021 . S
Co62 O86 2.062 . S
C63 N65 1.316 . S
C63 N66 1.347 . S
C63 H68 0.931 . S
C64 N65 1.375 . S
C64 C67 1.350 . S
C64 H69 0.930 . S
N65 Co60 2.057 . S
N65 C63 1.316 . S
N65 C64 1.375 . S
N66 C63 1.347 . S
N66 C67 1.373 . S
C67 C64 1.350 . S
C67 N66 1.373 . S
C67 H88 0.931 . S
H68 C63 0.931 . S
H69 C64 0.930 . S
C70 O77 1.259 . S
C70 O78 1.258 . S
N71 Co62 2.057 . S
N71 C72 1.316 . S
N71 C73 1.375 . S
C72 N71 1.316 . S
C72 N74 1.347 . S
C72 H83 0.931 . S
C73 N71 1.375 . S
C73 C75 1.350 . S
C73 H82 0.930 . S
N74 C72 1.347 . S
N74 C75 1.373 . S
C75 C73 1.350 . S
C75 N74 1.373 . S
C75 H89 0.931 . S
C76 O79 1.256 . S
C76 O80 1.255 . S
O77 Co60 2.021 . S
O77 C70 1.259 . S
O78 Co62 2.117 . S
O78 C70 1.258 . S
O79 Co62 2.020 . S
O79 C76 1.256 . S
O80 Co60 2.062 . S
O80 C76 1.255 . S
O81 C61 1.259 . S
O81 Co62 2.021 . S
H82 C73 0.930 . S
H83 C72 0.931 . S
O84 Co60 2.117 . S
O84 C61 1.258 . S
O85 Co60 2.020 . S
O85 C87 1.256 . S
O86 Co62 2.062 . S
O86 C87 1.255 . S
C87 O85 1.256 . S
C87 O86 1.255 . S
H88 C67 0.931 . S
H89 C75 0.931 . S
Co90 N95 2.057 . S
Co90 O107 2.021 . S
Co90 O110 2.062 . S
Co90 O114 2.117 . S
Co90 O115 2.020 . S
C91 O111 1.259 . S
C91 O114 1.258 . S
Co92 N101 2.057 . S
Co92 O108 2.117 . S
Co92 O109 2.020 . S
Co92 O111 2.021 . S
Co92 O116 2.062 . S
C93 N95 1.316 . S
C93 N96 1.347 . S
C93 H98 0.931 . S
C94 N95 1.375 . S
C94 C97 1.350 . S
C94 H99 0.930 . S
N95 Co90 2.057 . S
N95 C93 1.316 . S
N95 C94 1.375 . S
N96 C93 1.347 . S
N96 C97 1.373 . S
C97 C94 1.350 . S
C97 N96 1.373 . S
C97 H118 0.931 . S
H98 C93 0.931 . S
H99 C94 0.930 . S
C100 O107 1.259 . S
C100 O108 1.258 . S
N101 Co92 2.057 . S
N101 C102 1.316 . S
N101 C103 1.375 . S
C102 N101 1.316 . S
C102 N104 1.347 . S
C102 H113 0.931 . S
C103 N101 1.375 . S
C103 C105 1.350 . S
C103 H112 0.930 . S
N104 C102 1.347 . S
N104 C105 1.373 . S
C105 C103 1.350 . S
C105 N104 1.373 . S
C105 H119 0.931 . S
C106 O109 1.256 . S
C106 O110 1.255 . S
O107 Co90 2.021 . S
O107 C100 1.259 . S
O108 Co92 2.117 . S
O108 C100 1.258 . S
O109 Co92 2.020 . S
O109 C106 1.256 . S
O110 Co90 2.062 . S
O110 C106 1.255 . S
O111 C91 1.259 . S
O111 Co92 2.021 . S
H112 C103 0.930 . S
H113 C102 0.931 . S
O114 Co90 2.117 . S
O114 C91 1.258 . S
O115 Co90 2.020 . S
O115 C117 1.256 . S
O116 Co92 2.062 . S
O116 C117 1.255 . S
C117 O115 1.256 . S
C117 O116 1.255 . S
H118 C97 0.931 . S
H119 C105 0.931 . S
Co120 N125 2.057 . S
Co120 O137 2.021 . S
Co120 O140 2.062 . S
Co120 O144 2.117 . S
Co120 O145 2.020 . S
C121 O141 1.259 . S
C121 O144 1.258 . S
Co122 N131 2.057 . S
Co122 O138 2.117 . S
Co122 O139 2.020 . S
Co122 O141 2.021 . S
Co122 O146 2.062 . S
C123 N125 1.316 . S
C123 N126 1.347 . S
C123 H128 0.931 . S
C124 N125 1.375 . S
C124 C127 1.350 . S
C124 H129 0.930 . S
N125 Co120 2.057 . S
N125 C123 1.316 . S
N125 C124 1.375 . S
N126 C123 1.347 . S
N126 C127 1.373 . S
C127 C124 1.350 . S
C127 N126 1.373 . S
C127 H148 0.931 . S
H128 C123 0.931 . S
H129 C124 0.930 . S
C130 O137 1.259 . S
C130 O138 1.258 . S
N131 Co122 2.057 . S
N131 C132 1.316 . S
N131 C133 1.375 . S
C132 N131 1.316 . S
C132 N134 1.347 . S
C132 H143 0.931 . S
C133 N131 1.375 . S
C133 C135 1.350 . S
C133 H142 0.930 . S
N134 C132 1.347 . S
N134 C135 1.373 . S
C135 C133 1.350 . S
C135 N134 1.373 . S
C135 H149 0.931 . S
C136 O139 1.256 . S
C136 O140 1.255 . S
O137 Co120 2.021 . S
O137 C130 1.259 . S
O138 Co122 2.117 . S
O138 C130 1.258 . S
O139 Co122 2.020 . S
O139 C136 1.256 . S
O140 Co120 2.062 . S
O140 C136 1.255 . S
O141 C121 1.259 . S
O141 Co122 2.021 . S
H142 C133 0.930 . S
H143 C132 0.931 . S
O144 Co120 2.117 . S
O144 C121 1.258 . S
O145 Co120 2.020 . S
O145 C147 1.256 . S
O146 Co122 2.062 . S
O146 C147 1.255 . S
C147 O145 1.256 . S
C147 O146 1.255 . S
H148 C127 0.931 . S
H149 C135 0.931 . S
Co150 N155 2.057 . S
Co150 O167 2.021 . S
Co150 O170 2.062 . S
Co150 O174 2.117 . S
Co150 O175 2.020 . S
C151 O171 1.259 . S
C151 O174 1.258 . S
Co152 N161 2.057 . S
Co152 O168 2.117 . S
Co152 O169 2.020 . S
Co152 O171 2.021 . S
Co152 O176 2.062 . S
C153 N155 1.316 . S
C153 N156 1.347 . S
C153 H158 0.931 . S
C154 N155 1.375 . S
C154 C157 1.350 . S
C154 H159 0.930 . S
N155 Co150 2.057 . S
N155 C153 1.316 . S
N155 C154 1.375 . S
N156 C153 1.347 . S
N156 C157 1.373 . S
C157 C154 1.350 . S
C157 N156 1.373 . S
C157 H178 0.931 . S
H158 C153 0.931 . S
H159 C154 0.930 . S
C160 O167 1.259 . S
C160 O168 1.258 . S
N161 Co152 2.057 . S
N161 C162 1.316 . S
N161 C163 1.375 . S
C162 N161 1.316 . S
C162 N164 1.347 . S
C162 H173 0.931 . S
C163 N161 1.375 . S
C163 C165 1.350 . S
C163 H172 0.930 . S
N164 C162 1.347 . S
N164 C165 1.373 . S
C165 C163 1.350 . S
C165 N164 1.373 . S
C165 H179 0.931 . S
C166 O169 1.256 . S
C166 O170 1.255 . S
O167 Co150 2.021 . S
O167 C160 1.259 . S
O168 Co152 2.117 . S
O168 C160 1.258 . S
O169 Co152 2.020 . S
O169 C166 1.256 . S
O170 Co150 2.062 . S
O170 C166 1.255 . S
O171 C151 1.259 . S
O171 Co152 2.021 . S
H172 C163 0.930 . S
H173 C162 0.931 . S
O174 Co150 2.117 . S
O174 C151 1.258 . S
O175 Co150 2.020 . S
O175 C177 1.256 . S
O176 Co152 2.062 . S
O176 C177 1.255 . S
C177 O175 1.256 . S
C177 O176 1.255 . S
H178 C157 0.931 . S
H179 C165 0.931 . S
Co180 N185 2.057 . S
Co180 O197 2.021 . S
Co180 O200 2.062 . S
Co180 O204 2.117 . S
Co180 O205 2.020 . S
C181 O201 1.259 . S
C181 O204 1.258 . S
Co182 N191 2.057 . S
Co182 O198 2.117 . S
Co182 O199 2.020 . S
Co182 O201 2.021 . S
Co182 O206 2.062 . S
C183 N185 1.316 . S
C183 N186 1.347 . S
C183 H188 0.931 . S
C184 N185 1.375 . S
C184 C187 1.350 . S
C184 H189 0.930 . S
N185 Co180 2.057 . S
N185 C183 1.316 . S
N185 C184 1.375 . S
N186 C183 1.347 . S
N186 C187 1.373 . S
C187 C184 1.350 . S
C187 N186 1.373 . S
C187 H208 0.931 . S
H188 C183 0.931 . S
H189 C184 0.930 . S
C190 O197 1.259 . S
C190 O198 1.258 . S
N191 Co182 2.057 . S
N191 C192 1.316 . S
N191 C193 1.375 . S
C192 N191 1.316 . S
C192 N194 1.347 . S
C192 H203 0.931 . S
C193 N191 1.375 . S
C193 C195 1.350 . S
C193 H202 0.930 . S
N194 C192 1.347 . S
N194 C195 1.373 . S
C195 C193 1.350 . S
C195 N194 1.373 . S
C195 H209 0.931 . S
C196 O199 1.256 . S
C196 O200 1.255 . S
O197 Co180 2.021 . S
O197 C190 1.259 . S
O198 Co182 2.117 . S
O198 C190 1.258 . S
O199 Co182 2.020 . S
O199 C196 1.256 . S
O200 Co180 2.062 . S
O200 C196 1.255 . S
O201 C181 1.259 . S
O201 Co182 2.021 . S
H202 C193 0.930 . S
H203 C192 0.931 . S
O204 Co180 2.117 . S
O204 C181 1.258 . S
O205 Co180 2.020 . S
O205 C207 1.256 . S
O206 Co182 2.062 . S
O206 C207 1.255 . S
C207 O205 1.256 . S
C207 O206 1.255 . S
H208 C187 0.931 . S
H209 C195 0.931 . S
Co210 N215 2.057 . S
Co210 O227 2.021 . S
Co210 O230 2.062 . S
Co210 O234 2.117 . S
Co210 O235 2.020 . S
C211 O231 1.259 . S
C211 O234 1.258 . S
Co212 N221 2.057 . S
Co212 O228 2.117 . S
Co212 O229 2.020 . S
Co212 O231 2.021 . S
Co212 O236 2.062 . S
C213 N215 1.316 . S
C213 N216 1.347 . S
C213 H218 0.931 . S
C214 N215 1.375 . S
C214 C217 1.350 . S
C214 H219 0.930 . S
N215 Co210 2.057 . S
N215 C213 1.316 . S
N215 C214 1.375 . S
N216 C213 1.347 . S
N216 C217 1.373 . S
C217 C214 1.350 . S
C217 N216 1.373 . S
C217 H238 0.931 . S
H218 C213 0.931 . S
H219 C214 0.930 . S
C220 O227 1.259 . S
C220 O228 1.258 . S
N221 Co212 2.057 . S
N221 C222 1.316 . S
N221 C223 1.375 . S
C222 N221 1.316 . S
C222 N224 1.347 . S
C222 H233 0.931 . S
C223 N221 1.375 . S
C223 C225 1.350 . S
C223 H232 0.930 . S
N224 C222 1.347 . S
N224 C225 1.373 . S
C225 C223 1.350 . S
C225 N224 1.373 . S
C225 H239 0.931 . S
C226 O229 1.256 . S
C226 O230 1.255 . S
O227 Co210 2.021 . S
O227 C220 1.259 . S
O228 Co212 2.117 . S
O228 C220 1.258 . S
O229 Co212 2.020 . S
O229 C226 1.256 . S
O230 Co210 2.062 . S
O230 C226 1.255 . S
O231 C211 1.259 . S
O231 Co212 2.021 . S
H232 C223 0.930 . S
H233 C222 0.931 . S
O234 Co210 2.117 . S
O234 C211 1.258 . S
O235 Co210 2.020 . S
O235 C237 1.256 . S
O236 Co212 2.062 . S
O236 C237 1.255 . S
C237 O235 1.256 . S
C237 O236 1.255 . S
H238 C217 0.931 . S
H239 C225 0.931 . S
Co240 N245 2.057 . S
Co240 O257 2.021 . S
Co240 O260 2.062 . S
Co240 O264 2.117 . S
Co240 O265 2.020 . S
C241 O261 1.259 . S
C241 O264 1.258 . S
Co242 N251 2.057 . S
Co242 O258 2.117 . S
Co242 O259 2.020 . S
Co242 O261 2.021 . S
Co242 O266 2.062 . S
C243 N245 1.316 . S
C243 N246 1.347 . S
C243 H248 0.931 . S
C244 N245 1.375 . S
C244 C247 1.350 . S
C244 H249 0.930 . S
N245 Co240 2.057 . S
N245 C243 1.316 . S
N245 C244 1.375 . S
N246 C243 1.347 . S
N246 C247 1.373 . S
C247 C244 1.350 . S
C247 N246 1.373 . S
C247 H268 0.931 . S
H248 C243 0.931 . S
H249 C244 0.930 . S
C250 O257 1.259 . S
C250 O258 1.258 . S
N251 Co242 2.057 . S
N251 C252 1.316 . S
N251 C253 1.375 . S
C252 N251 1.316 . S
C252 N254 1.347 . S
C252 H263 0.931 . S
C253 N251 1.375 . S
C253 C255 1.350 . S
C253 H262 0.930 . S
N254 C252 1.347 . S
N254 C255 1.373 . S
C255 C253 1.350 . S
C255 N254 1.373 . S
C255 H269 0.931 . S
C256 O259 1.256 . S
C256 O260 1.255 . S
O257 Co240 2.021 . S
O257 C250 1.259 . S
O258 Co242 2.117 . S
O258 C250 1.258 . S
O259 Co242 2.020 . S
O259 C256 1.256 . S
O260 Co240 2.062 . S
O260 C256 1.255 . S
O261 C241 1.259 . S
O261 Co242 2.021 . S
H262 C253 0.930 . S
H263 C252 0.931 . S
O264 Co240 2.117 . S
O264 C241 1.258 . S
O265 Co240 2.020 . S
O265 C267 1.256 . S
O266 Co242 2.062 . S
O266 C267 1.255 . S
C267 O265 1.256 . S
C267 O266 1.255 . S
H268 C247 0.931 . S
H269 C255 0.931 . S
Co270 N275 2.057 . S
Co270 O287 2.021 . S
Co270 O290 2.062 . S
Co270 O294 2.117 . S
Co270 O295 2.020 . S
C271 O291 1.259 . S
C271 O294 1.258 . S
Co272 N281 2.057 . S
Co272 O288 2.117 . S
Co272 O289 2.020 . S
Co272 O291 2.021 . S
Co272 O296 2.062 . S
C273 N275 1.316 . S
C273 N276 1.347 . S
C273 H278 0.931 . S
C274 N275 1.375 . S
C274 C277 1.350 . S
C274 H279 0.930 . S
N275 Co270 2.057 . S
N275 C273 1.316 . S
N275 C274 1.375 . S
N276 C273 1.347 . S
N276 C277 1.373 . S
C277 C274 1.350 . S
C277 N276 1.373 . S
C277 H298 0.931 . S
H278 C273 0.931 . S
H279 C274 0.930 . S
C280 O287 1.259 . S
C280 O288 1.258 . S
N281 Co272 2.057 . S
N281 C282 1.316 . S
N281 C283 1.375 . S
C282 N281 1.316 . S
C282 N284 1.347 . S
C282 H293 0.931 . S
C283 N281 1.375 . S
C283 C285 1.350 . S
C283 H292 0.930 . S
N284 C282 1.347 . S
N284 C285 1.373 . S
C285 C283 1.350 . S
C285 N284 1.373 . S
C285 H299 0.931 . S
C286 O289 1.256 . S
C286 O290 1.255 . S
O287 Co270 2.021 . S
O287 C280 1.259 . S
O288 Co272 2.117 . S
O288 C280 1.258 . S
O289 Co272 2.020 . S
O289 C286 1.256 . S
O290 Co270 2.062 . S
O290 C286 1.255 . S
O291 C271 1.259 . S
O291 Co272 2.021 . S
H292 C283 0.930 . S
H293 C282 0.931 . S
O294 Co270 2.117 . S
O294 C271 1.258 . S
O295 Co270 2.020 . S
O295 C297 1.256 . S
O296 Co272 2.062 . S
O296 C297 1.255 . S
C297 O295 1.256 . S
C297 O296 1.255 . S
H298 C277 0.931 . S
H299 C285 0.931 . S
Co300 N305 2.057 . S
Co300 O317 2.021 . S
Co300 O320 2.062 . S
Co300 O324 2.117 . S
Co300 O325 2.020 . S
C301 O321 1.259 . S
C301 O324 1.258 . S
Co302 N311 2.057 . S
Co302 O318 2.117 . S
Co302 O319 2.020 . S
Co302 O321 2.021 . S
Co302 O326 2.062 . S
C303 N305 1.316 . S
C303 N306 1.347 . S
C303 H308 0.931 . S
C304 N305 1.375 . S
C304 C307 1.350 . S
C304 H309 0.930 . S
N305 Co300 2.057 . S
N305 C303 1.316 . S
N305 C304 1.375 . S
N306 C303 1.347 . S
N306 C307 1.373 . S
C307 C304 1.350 . S
C307 N306 1.373 . S
C307 H328 0.931 . S
H308 C303 0.931 . S
H309 C304 0.930 . S
C310 O317 1.259 . S
C310 O318 1.258 . S
N311 Co302 2.057 . S
N311 C312 1.316 . S
N311 C313 1.375 . S
C312 N311 1.316 . S
C312 N314 1.347 . S
C312 H323 0.931 . S
C313 N311 1.375 . S
C313 C315 1.350 . S
C313 H322 0.930 . S
N314 C312 1.347 . S
N314 C315 1.373 . S
C315 C313 1.350 . S
C315 N314 1.373 . S
C315 H329 0.931 . S
C316 O319 1.256 . S
C316 O320 1.255 . S
O317 Co300 2.021 . S
O317 C310 1.259 . S
O318 Co302 2.117 . S
O318 C310 1.258 . S
O319 Co302 2.020 . S
O319 C316 1.256 . S
O320 Co300 2.062 . S
O320 C316 1.255 . S
O321 C301 1.259 . S
O321 Co302 2.021 . S
H322 C313 0.930 . S
H323 C312 0.931 . S
O324 Co300 2.117 . S
O324 C301 1.258 . S
O325 Co300 2.020 . S
O325 C327 1.256 . S
O326 Co302 2.062 . S
O326 C327 1.255 . S
C327 O325 1.256 . S
C327 O326 1.255 . S
H328 C307 0.931 . S
H329 C315 0.931 . S
Co330 N335 2.057 . S
Co330 O347 2.021 . S
Co330 O350 2.062 . S
Co330 O354 2.117 . S
Co330 O355 2.020 . S
C331 O351 1.259 . S
C331 O354 1.258 . S
Co332 N341 2.057 . S
Co332 O348 2.117 . S
Co332 O349 2.020 . S
Co332 O351 2.021 . S
Co332 O356 2.062 . S
C333 N335 1.316 . S
C333 N336 1.347 . S
C333 H338 0.931 . S
C334 N335 1.375 . S
C334 C337 1.350 . S
C334 H339 0.930 . S
N335 Co330 2.057 . S
N335 C333 1.316 . S
N335 C334 1.375 . S
N336 C333 1.347 . S
N336 C337 1.373 . S
C337 C334 1.350 . S
C337 N336 1.373 . S
C337 H358 0.931 . S
H338 C333 0.931 . S
H339 C334 0.930 . S
C340 O347 1.259 . S
C340 O348 1.258 . S
N341 Co332 2.057 . S
N341 C342 1.316 . S
N341 C343 1.375 . S
C342 N341 1.316 . S
C342 N344 1.347 . S
C342 H353 0.931 . S
C343 N341 1.375 . S
C343 C345 1.350 . S
C343 H352 0.930 . S
N344 C342 1.347 . S
N344 C345 1.373 . S
C345 C343 1.350 . S
C345 N344 1.373 . S
C345 H359 0.931 . S
C346 O349 1.256 . S
C346 O350 1.255 . S
O347 Co330 2.021 . S
O347 C340 1.259 . S
O348 Co332 2.117 . S
O348 C340 1.258 . S
O349 Co332 2.020 . S
O349 C346 1.256 . S
O350 Co330 2.062 . S
O350 C346 1.255 . S
O351 C331 1.259 . S
O351 Co332 2.021 . S
H352 C343 0.930 . S
H353 C342 0.931 . S
O354 Co330 2.117 . S
O354 C331 1.258 . S
O355 Co330 2.020 . S
O355 C357 1.256 . S
O356 Co332 2.062 . S
O356 C357 1.255 . S
C357 O355 1.256 . S
C357 O356 1.255 . S
H358 C337 0.931 . S
H359 C345 0.931 . S
Co360 N365 2.057 . S
Co360 O377 2.021 . S
Co360 O380 2.062 . S
Co360 O384 2.117 . S
Co360 O385 2.020 . S
C361 O381 1.259 . S
C361 O384 1.258 . S
Co362 N371 2.057 . S
Co362 O378 2.117 . S
Co362 O379 2.020 . S
Co362 O381 2.021 . S
Co362 O386 2.062 . S
C363 N365 1.316 . S
C363 N366 1.347 . S
C363 H368 0.931 . S
C364 N365 1.375 . S
C364 C367 1.350 . S
C364 H369 0.930 . S
N365 Co360 2.057 . S
N365 C363 1.316 . S
N365 C364 1.375 . S
N366 C363 1.347 . S
N366 C367 1.373 . S
C367 C364 1.350 . S
C367 N366 1.373 . S
C367 H388 0.931 . S
H368 C363 0.931 . S
H369 C364 0.930 . S
C370 O377 1.259 . S
C370 O378 1.258 . S
N371 Co362 2.057 . S
N371 C372 1.316 . S
N371 C373 1.375 . S
C372 N371 1.316 . S
C372 N374 1.347 . S
C372 H383 0.931 . S
C373 N371 1.375 . S
C373 C375 1.350 . S
C373 H382 0.930 . S
N374 C372 1.347 . S
N374 C375 1.373 . S
C375 C373 1.350 . S
C375 N374 1.373 . S
C375 H389 0.931 . S
C376 O379 1.256 . S
C376 O380 1.255 . S
O377 Co360 2.021 . S
O377 C370 1.259 . S
O378 Co362 2.117 . S
O378 C370 1.258 . S
O379 Co362 2.020 . S
O379 C376 1.256 . S
O380 Co360 2.062 . S
O380 C376 1.255 . S
O381 C361 1.259 . S
O381 Co362 2.021 . S
H382 C373 0.930 . S
H383 C372 0.931 . S
O384 Co360 2.117 . S
O384 C361 1.258 . S
O385 Co360 2.020 . S
O385 C387 1.256 . S
O386 Co362 2.062 . S
O386 C387 1.255 . S
C387 O385 1.256 . S
C387 O386 1.255 . S
H388 C367 0.931 . S
H389 C375 0.931 . S
Co390 N395 2.057 . S
Co390 O407 2.021 . S
Co390 O410 2.062 . S
Co390 O414 2.117 . S
Co390 O415 2.020 . S
C391 O411 1.259 . S
C391 O414 1.258 . S
Co392 N401 2.057 . S
Co392 O408 2.117 . S
Co392 O409 2.020 . S
Co392 O411 2.021 . S
Co392 O416 2.062 . S
C393 N395 1.316 . S
C393 N396 1.347 . S
C393 H398 0.931 . S
C394 N395 1.375 . S
C394 C397 1.350 . S
C394 H399 0.930 . S
N395 Co390 2.057 . S
N395 C393 1.316 . S
N395 C394 1.375 . S
N396 C393 1.347 . S
N396 C397 1.373 . S
C397 C394 1.350 . S
C397 N396 1.373 . S
C397 H418 0.931 . S
H398 C393 0.931 . S
H399 C394 0.930 . S
C400 O407 1.259 . S
C400 O408 1.258 . S
N401 Co392 2.057 . S
N401 C402 1.316 . S
N401 C403 1.375 . S
C402 N401 1.316 . S
C402 N404 1.347 . S
C402 H413 0.931 . S
C403 N401 1.375 . S
C403 C405 1.350 . S
C403 H412 0.930 . S
N404 C402 1.347 . S
N404 C405 1.373 . S
C405 C403 1.350 . S
C405 N404 1.373 . S
C405 H419 0.931 . S
C406 O409 1.256 . S
C406 O410 1.255 . S
O407 Co390 2.021 . S
O407 C400 1.259 . S
O408 Co392 2.117 . S
O408 C400 1.258 . S
O409 Co392 2.020 . S
O409 C406 1.256 . S
O410 Co390 2.062 . S
O410 C406 1.255 . S
O411 C391 1.259 . S
O411 Co392 2.021 . S
H412 C403 0.930 . S
H413 C402 0.931 . S
O414 Co390 2.117 . S
O414 C391 1.258 . S
O415 Co390 2.020 . S
O415 C417 1.256 . S
O416 Co392 2.062 . S
O416 C417 1.255 . S
C417 O415 1.256 . S
C417 O416 1.255 . S
H418 C397 0.931 . S
H419 C405 0.931 . S
Co420 N425 2.057 . S
Co420 O437 2.021 . S
Co420 O440 2.062 . S
Co420 O444 2.117 . S
Co420 O445 2.020 . S
C421 O441 1.259 . S
C421 O444 1.258 . S
Co422 N431 2.057 . S
Co422 O438 2.117 . S
Co422 O439 2.020 . S
Co422 O441 2.021 . S
Co422 O446 2.062 . S
C423 N425 1.316 . S
C423 N426 1.347 . S
C423 H428 0.931 . S
C424 N425 1.375 . S
C424 C427 1.350 . S
C424 H429 0.930 . S
N425 Co420 2.057 . S
N425 C423 1.316 . S
N425 C424 1.375 . S
N426 C423 1.347 . S
N426 C427 1.373 . S
C427 C424 1.350 . S
C427 N426 1.373 . S
C427 H448 0.931 . S
H428 C423 0.931 . S
H429 C424 0.930 . S
C430 O437 1.259 . S
C430 O438 1.258 . S
N431 Co422 2.057 . S
N431 C432 1.316 . S
N431 C433 1.375 . S
C432 N431 1.316 . S
C432 N434 1.347 . S
C432 H443 0.931 . S
C433 N431 1.375 . S
C433 C435 1.350 . S
C433 H442 0.930 . S
N434 C432 1.347 . S
N434 C435 1.373 . S
C435 C433 1.350 . S
C435 N434 1.373 . S
C435 H449 0.931 . S
C436 O439 1.256 . S
C436 O440 1.255 . S
O437 Co420 2.021 . S
O437 C430 1.259 . S
O438 Co422 2.117 . S
O438 C430 1.258 . S
O439 Co422 2.020 . S
O439 C436 1.256 . S
O440 Co420 2.062 . S
O440 C436 1.255 . S
O441 C421 1.259 . S
O441 Co422 2.021 . S
H442 C433 0.930 . S
H443 C432 0.931 . S
O444 Co420 2.117 . S
O444 C421 1.258 . S
O445 Co420 2.020 . S
O445 C447 1.256 . S
O446 Co422 2.062 . S
O446 C447 1.255 . S
C447 O445 1.256 . S
C447 O446 1.255 . S
H448 C427 0.931 . S
H449 C435 0.931 . S
Co450 N455 2.057 . S
Co450 O467 2.021 . S
Co450 O470 2.062 . S
Co450 O474 2.117 . S
Co450 O475 2.020 . S
C451 O471 1.259 . S
C451 O474 1.258 . S
Co452 N461 2.057 . S
Co452 O468 2.117 . S
Co452 O469 2.020 . S
Co452 O471 2.021 . S
Co452 O476 2.062 . S
C453 N455 1.316 . S
C453 N456 1.347 . S
C453 H458 0.931 . S
C454 N455 1.375 . S
C454 C457 1.350 . S
C454 H459 0.930 . S
N455 Co450 2.057 . S
N455 C453 1.316 . S
N455 C454 1.375 . S
N456 C453 1.347 . S
N456 C457 1.373 . S
C457 C454 1.350 . S
C457 N456 1.373 . S
C457 H478 0.931 . S
H458 C453 0.931 . S
H459 C454 0.930 . S
C460 O467 1.259 . S
C460 O468 1.258 . S
N461 Co452 2.057 . S
N461 C462 1.316 . S
N461 C463 1.375 . S
C462 N461 1.316 . S
C462 N464 1.347 . S
C462 H473 0.931 . S
C463 N461 1.375 . S
C463 C465 1.350 . S
C463 H472 0.930 . S
N464 C462 1.347 . S
N464 C465 1.373 . S
C465 C463 1.350 . S
C465 N464 1.373 . S
C465 H479 0.931 . S
C466 O469 1.256 . S
C466 O470 1.255 . S
O467 Co450 2.021 . S
O467 C460 1.259 . S
O468 Co452 2.117 . S
O468 C460 1.258 . S
O469 Co452 2.020 . S
O469 C466 1.256 . S
O470 Co450 2.062 . S
O470 C466 1.255 . S
O471 C451 1.259 . S
O471 Co452 2.021 . S
H472 C463 0.930 . S
H473 C462 0.931 . S
O474 Co450 2.117 . S
O474 C451 1.258 . S
O475 Co450 2.020 . S
O475 C477 1.256 . S
O476 Co452 2.062 . S
O476 C477 1.255 . S
C477 O475 1.256 . S
C477 O476 1.255 . S
H478 C457 0.931 . S
H479 C465 0.931 . S
Co480 N485 2.057 . S
Co480 O497 2.021 . S
Co480 O500 2.062 . S
Co480 O504 2.117 . S
Co480 O505 2.020 . S
C481 O501 1.259 . S
C481 O504 1.258 . S
Co482 N491 2.057 . S
Co482 O498 2.117 . S
Co482 O499 2.020 . S
Co482 O501 2.021 . S
Co482 O506 2.062 . S
C483 N485 1.316 . S
C483 N486 1.347 . S
C483 H488 0.931 . S
C484 N485 1.375 . S
C484 C487 1.350 . S
C484 H489 0.930 . S
N485 Co480 2.057 . S
N485 C483 1.316 . S
N485 C484 1.375 . S
N486 C483 1.347 . S
N486 C487 1.373 . S
C487 C484 1.350 . S
C487 N486 1.373 . S
C487 H508 0.931 . S
H488 C483 0.931 . S
H489 C484 0.930 . S
C490 O497 1.259 . S
C490 O498 1.258 . S
N491 Co482 2.057 . S
N491 C492 1.316 . S
N491 C493 1.375 . S
C492 N491 1.316 . S
C492 N494 1.347 . S
C492 H503 0.931 . S
C493 N491 1.375 . S
C493 C495 1.350 . S
C493 H502 0.930 . S
N494 C492 1.347 . S
N494 C495 1.373 . S
C495 C493 1.350 . S
C495 N494 1.373 . S
C495 H509 0.931 . S
C496 O499 1.256 . S
C496 O500 1.255 . S
O497 Co480 2.021 . S
O497 C490 1.259 . S
O498 Co482 2.117 . S
O498 C490 1.258 . S
O499 Co482 2.020 . S
O499 C496 1.256 . S
O500 Co480 2.062 . S
O500 C496 1.255 . S
O501 C481 1.259 . S
O501 Co482 2.021 . S
H502 C493 0.930 . S
H503 C492 0.931 . S
O504 Co480 2.117 . S
O504 C481 1.258 . S
O505 Co480 2.020 . S
O505 C507 1.256 . S
O506 Co482 2.062 . S
O506 C507 1.255 . S
C507 O505 1.256 . S
C507 O506 1.255 . S
H508 C487 0.931 . S
H509 C495 0.931 . S
Co510 N515 2.057 . S
Co510 O527 2.021 . S
Co510 O530 2.062 . S
Co510 O534 2.117 . S
Co510 O535 2.020 . S
C511 O531 1.259 . S
C511 O534 1.258 . S
Co512 N521 2.057 . S
Co512 O528 2.117 . S
Co512 O529 2.020 . S
Co512 O531 2.021 . S
Co512 O536 2.062 . S
C513 N515 1.316 . S
C513 N516 1.347 . S
C513 H518 0.931 . S
C514 N515 1.375 . S
C514 C517 1.350 . S
C514 H519 0.930 . S
N515 Co510 2.057 . S
N515 C513 1.316 . S
N515 C514 1.375 . S
N516 C513 1.347 . S
N516 C517 1.373 . S
C517 C514 1.350 . S
C517 N516 1.373 . S
C517 H538 0.931 . S
H518 C513 0.931 . S
H519 C514 0.930 . S
C520 O527 1.259 . S
C520 O528 1.258 . S
N521 Co512 2.057 . S
N521 C522 1.316 . S
N521 C523 1.375 . S
C522 N521 1.316 . S
C522 N524 1.347 . S
C522 H533 0.931 . S
C523 N521 1.375 . S
C523 C525 1.350 . S
C523 H532 0.930 . S
N524 C522 1.347 . S
N524 C525 1.373 . S
C525 C523 1.350 . S
C525 N524 1.373 . S
C525 H539 0.931 . S
C526 O529 1.256 . S
C526 O530 1.255 . S
O527 Co510 2.021 . S
O527 C520 1.259 . S
O528 Co512 2.117 . S
O528 C520 1.258 . S
O529 Co512 2.020 . S
O529 C526 1.256 . S
O530 Co510 2.062 . S
O530 C526 1.255 . S
O531 C511 1.259 . S
O531 Co512 2.021 . S
H532 C523 0.930 . S
H533 C522 0.931 . S
O534 Co510 2.117 . S
O534 C511 1.258 . S
O535 Co510 2.020 . S
O535 C537 1.256 . S
O536 Co512 2.062 . S
O536 C537 1.255 . S
C537 O535 1.256 . S
C537 O536 1.255 . S
H538 C517 0.931 . S
H539 C525 0.931 . S
Co540 N545 2.057 . S
Co540 O557 2.021 . S
Co540 O560 2.062 . S
Co540 O564 2.117 . S
Co540 O565 2.020 . S
C541 O561 1.259 . S
C541 O564 1.258 . S
Co542 N551 2.057 . S
Co542 O558 2.117 . S
Co542 O559 2.020 . S
Co542 O561 2.021 . S
Co542 O566 2.062 . S
C543 N545 1.316 . S
C543 N546 1.347 . S
C543 H548 0.931 . S
C544 N545 1.375 . S
C544 C547 1.350 . S
C544 H549 0.930 . S
N545 Co540 2.057 . S
N545 C543 1.316 . S
N545 C544 1.375 . S
N546 C543 1.347 . S
N546 C547 1.373 . S
C547 C544 1.350 . S
C547 N546 1.373 . S
C547 H568 0.931 . S
H548 C543 0.931 . S
H549 C544 0.930 . S
C550 O557 1.259 . S
C550 O558 1.258 . S
N551 Co542 2.057 . S
N551 C552 1.316 . S
N551 C553 1.375 . S
C552 N551 1.316 . S
C552 N554 1.347 . S
C552 H563 0.931 . S
C553 N551 1.375 . S
C553 C555 1.350 . S
C553 H562 0.930 . S
N554 C552 1.347 . S
N554 C555 1.373 . S
C555 C553 1.350 . S
C555 N554 1.373 . S
C555 H569 0.931 . S
C556 O559 1.256 . S
C556 O560 1.255 . S
O557 Co540 2.021 . S
O557 C550 1.259 . S
O558 Co542 2.117 . S
O558 C550 1.258 . S
O559 Co542 2.020 . S
O559 C556 1.256 . S
O560 Co540 2.062 . S
O560 C556 1.255 . S
O561 C541 1.259 . S
O561 Co542 2.021 . S
H562 C553 0.930 . S
H563 C552 0.931 . S
O564 Co540 2.117 . S
O564 C541 1.258 . S
O565 Co540 2.020 . S
O565 C567 1.256 . S
O566 Co542 2.062 . S
O566 C567 1.255 . S
C567 O565 1.256 . S
C567 O566 1.255 . S
H568 C547 0.931 . S
H569 C555 0.931 . S
Co570 N575 2.057 . S
Co570 O587 2.021 . S
Co570 O590 2.062 . S
Co570 O594 2.117 . S
Co570 O595 2.020 . S
C571 O591 1.259 . S
C571 O594 1.258 . S
Co572 N581 2.057 . S
Co572 O588 2.117 . S
Co572 O589 2.020 . S
Co572 O591 2.021 . S
Co572 O596 2.062 . S
C573 N575 1.316 . S
C573 N576 1.347 . S
C573 H578 0.931 . S
C574 N575 1.375 . S
C574 C577 1.350 . S
C574 H579 0.930 . S
N575 Co570 2.057 . S
N575 C573 1.316 . S
N575 C574 1.375 . S
N576 C573 1.347 . S
N576 C577 1.373 . S
C577 C574 1.350 . S
C577 N576 1.373 . S
C577 H598 0.931 . S
H578 C573 0.931 . S
H579 C574 0.930 . S
C580 O587 1.259 . S
C580 O588 1.258 . S
N581 Co572 2.057 . S
N581 C582 1.316 . S
N581 C583 1.375 . S
C582 N581 1.316 . S
C582 N584 1.347 . S
C582 H593 0.931 . S
C583 N581 1.375 . S
C583 C585 1.350 . S
C583 H592 0.930 . S
N584 C582 1.347 . S
N584 C585 1.373 . S
C585 C583 1.350 . S
C585 N584 1.373 . S
C585 H599 0.931 . S
C586 O589 1.256 . S
C586 O590 1.255 . S
O587 Co570 2.021 . S
O587 C580 1.259 . S
O588 Co572 2.117 . S
O588 C580 1.258 . S
O589 Co572 2.020 . S
O589 C586 1.256 . S
O590 Co570 2.062 . S
O590 C586 1.255 . S
O591 C571 1.259 . S
O591 Co572 2.021 . S
H592 C583 0.930 . S
H593 C582 0.931 . S
O594 Co570 2.117 . S
O594 C571 1.258 . S
O595 Co570 2.020 . S
O595 C597 1.256 . S
O596 Co572 2.062 . S
O596 C597 1.255 . S
C597 O595 1.256 . S
C597 O596 1.255 . S
H598 C577 0.931 . S
H599 C585 0.931 . S
Co600 N605 2.057 . S
Co600 O617 2.021 . S
Co600 O620 2.062 . S
Co600 O624 2.117 . S
Co600 O625 2.020 . S
C601 O621 1.259 . S
C601 O624 1.258 . S
Co602 N611 2.057 . S
Co602 O618 2.117 . S
Co602 O619 2.020 . S
Co602 O621 2.021 . S
Co602 O626 2.062 . S
C603 N605 1.316 . S
C603 N606 1.347 . S
C603 H608 0.931 . S
C604 N605 1.375 . S
C604 C607 1.350 . S
C604 H609 0.930 . S
N605 Co600 2.057 . S
N605 C603 1.316 . S
N605 C604 1.375 . S
N606 C603 1.347 . S
N606 C607 1.373 . S
C607 C604 1.350 . S
C607 N606 1.373 . S
C607 H628 0.931 . S
H608 C603 0.931 . S
H609 C604 0.930 . S
C610 O617 1.259 . S
C610 O618 1.258 . S
N611 Co602 2.057 . S
N611 C612 1.316 . S
N611 C613 1.375 . S
C612 N611 1.316 . S
C612 N614 1.347 . S
C612 H623 0.931 . S
C613 N611 1.375 . S
C613 C615 1.350 . S
C613 H622 0.930 . S
N614 C612 1.347 . S
N614 C615 1.373 . S
C615 C613 1.350 . S
C615 N614 1.373 . S
C615 H629 0.931 . S
C616 O619 1.256 . S
C616 O620 1.255 . S
O617 Co600 2.021 . S
O617 C610 1.259 . S
O618 Co602 2.117 . S
O618 C610 1.258 . S
O619 Co602 2.020 . S
O619 C616 1.256 . S
O620 Co600 2.062 . S
O620 C616 1.255 . S
O621 C601 1.259 . S
O621 Co602 2.021 . S
H622 C613 0.930 . S
H623 C612 0.931 . S
O624 Co600 2.117 . S
O624 C601 1.258 . S
O625 Co600 2.020 . S
O625 C627 1.256 . S
O626 Co602 2.062 . S
O626 C627 1.255 . S
C627 O625 1.256 . S
C627 O626 1.255 . S
H628 C607 0.931 . S
H629 C615 0.931 . S
Co630 N635 2.057 . S
Co630 O647 2.021 . S
Co630 O650 2.062 . S
Co630 O654 2.117 . S
Co630 O655 2.020 . S
C631 O651 1.259 . S
C631 O654 1.258 . S
Co632 N641 2.057 . S
Co632 O648 2.117 . S
Co632 O649 2.020 . S
Co632 O651 2.021 . S
Co632 O656 2.062 . S
C633 N635 1.316 . S
C633 N636 1.347 . S
C633 H638 0.931 . S
C634 N635 1.375 . S
C634 C637 1.350 . S
C634 H639 0.930 . S
N635 Co630 2.057 . S
N635 C633 1.316 . S
N635 C634 1.375 . S
N636 C633 1.347 . S
N636 C637 1.373 . S
C637 C634 1.350 . S
C637 N636 1.373 . S
C637 H658 0.931 . S
H638 C633 0.931 . S
H639 C634 0.930 . S
C640 O647 1.259 . S
C640 O648 1.258 . S
N641 Co632 2.057 . S
N641 C642 1.316 . S
N641 C643 1.375 . S
C642 N641 1.316 . S
C642 N644 1.347 . S
C642 H653 0.931 . S
C643 N641 1.375 . S
C643 C645 1.350 . S
C643 H652 0.930 . S
N644 C642 1.347 . S
N644 C645 1.373 . S
C645 C643 1.350 . S
C645 N644 1.373 . S
C645 H659 0.931 . S
C646 O649 1.256 . S
C646 O650 1.255 . S
O647 Co630 2.021 . S
O647 C640 1.259 . S
O648 Co632 2.117 . S
O648 C640 1.258 . S
O649 Co632 2.020 . S
O649 C646 1.256 . S
O650 Co630 2.062 . S
O650 C646 1.255 . S
O651 C631 1.259 . S
O651 Co632 2.021 . S
H652 C643 0.930 . S
H653 C642 0.931 . S
O654 Co630 2.117 . S
O654 C631 1.258 . S
O655 Co630 2.020 . S
O655 C657 1.256 . S
O656 Co632 2.062 . S
O656 C657 1.255 . S
C657 O655 1.256 . S
C657 O656 1.255 . S
H658 C637 0.931 . S
H659 C645 0.931 . S
Co660 N665 2.057 . S
Co660 O677 2.021 . S
Co660 O680 2.062 . S
Co660 O684 2.117 . S
Co660 O685 2.020 . S
C661 O681 1.259 . S
C661 O684 1.258 . S
Co662 N671 2.057 . S
Co662 O678 2.117 . S
Co662 O679 2.020 . S
Co662 O681 2.021 . S
Co662 O686 2.062 . S
C663 N665 1.316 . S
C663 N666 1.347 . S
C663 H668 0.931 . S
C664 N665 1.375 . S
C664 C667 1.350 . S
C664 H669 0.930 . S
N665 Co660 2.057 . S
N665 C663 1.316 . S
N665 C664 1.375 . S
N666 C663 1.347 . S
N666 C667 1.373 . S
C667 C664 1.350 . S
C667 N666 1.373 . S
C667 H688 0.931 . S
H668 C663 0.931 . S
H669 C664 0.930 . S
C670 O677 1.259 . S
C670 O678 1.258 . S
N671 Co662 2.057 . S
N671 C672 1.316 . S
N671 C673 1.375 . S
C672 N671 1.316 . S
C672 N674 1.347 . S
C672 H683 0.931 . S
C673 N671 1.375 . S
C673 C675 1.350 . S
C673 H682 0.930 . S
N674 C672 1.347 . S
N674 C675 1.373 . S
C675 C673 1.350 . S
C675 N674 1.373 . S
C675 H689 0.931 . S
C676 O679 1.256 . S
C676 O680 1.255 . S
O677 Co660 2.021 . S
O677 C670 1.259 . S
O678 Co662 2.117 . S
O678 C670 1.258 . S
O679 Co662 2.020 . S
O679 C676 1.256 . S
O680 Co660 2.062 . S
O680 C676 1.255 . S
O681 C661 1.259 . S
O681 Co662 2.021 . S
H682 C673 0.930 . S
H683 C672 0.931 . S
O684 Co660 2.117 . S
O684 C661 1.258 . S
O685 Co660 2.020 . S
O685 C687 1.256 . S
O686 Co662 2.062 . S
O686 C687 1.255 . S
C687 O685 1.256 . S
C687 O686 1.255 . S
H688 C667 0.931 . S
H689 C675 0.931 . S
Co690 N695 2.057 . S
Co690 O707 2.021 . S
Co690 O710 2.062 . S
Co690 O714 2.117 . S
Co690 O715 2.020 . S
C691 O711 1.259 . S
C691 O714 1.258 . S
Co692 N701 2.057 . S
Co692 O708 2.117 . S
Co692 O709 2.020 . S
Co692 O711 2.021 . S
Co692 O716 2.062 . S
C693 N695 1.316 . S
C693 N696 1.347 . S
C693 H698 0.931 . S
C694 N695 1.375 . S
C694 C697 1.350 . S
C694 H699 0.930 . S
N695 Co690 2.057 . S
N695 C693 1.316 . S
N695 C694 1.375 . S
N696 C693 1.347 . S
N696 C697 1.373 . S
C697 C694 1.350 . S
C697 N696 1.373 . S
C697 H718 0.931 . S
H698 C693 0.931 . S
H699 C694 0.930 . S
C700 O707 1.259 . S
C700 O708 1.258 . S
N701 Co692 2.057 . S
N701 C702 1.316 . S
N701 C703 1.375 . S
C702 N701 1.316 . S
C702 N704 1.347 . S
C702 H713 0.931 . S
C703 N701 1.375 . S
C703 C705 1.350 . S
C703 H712 0.930 . S
N704 C702 1.347 . S
N704 C705 1.373 . S
C705 C703 1.350 . S
C705 N704 1.373 . S
C705 H719 0.931 . S
C706 O709 1.256 . S
C706 O710 1.255 . S
O707 Co690 2.021 . S
O707 C700 1.259 . S
O708 Co692 2.117 . S
O708 C700 1.258 . S
O709 Co692 2.020 . S
O709 C706 1.256 . S
O710 Co690 2.062 . S
O710 C706 1.255 . S
O711 C691 1.259 . S
O711 Co692 2.021 . S
H712 C703 0.930 . S
H713 C702 0.931 . S
O714 Co690 2.117 . S
O714 C691 1.258 . S
O715 Co690 2.020 . S
O715 C717 1.256 . S
O716 Co692 2.062 . S
O716 C717 1.255 . S
C717 O715 1.256 . S
C717 O716 1.255 . S
H718 C697 0.931 . S
H719 C705 0.931 . S
Co720 N725 2.057 . S
Co720 O737 2.021 . S
Co720 O740 2.062 . S
Co720 O744 2.117 . S
Co720 O745 2.020 . S
C721 O741 1.259 . S
C721 O744 1.258 . S
Co722 N731 2.057 . S
Co722 O738 2.117 . S
Co722 O739 2.020 . S
Co722 O741 2.021 . S
Co722 O746 2.062 . S
C723 N725 1.316 . S
C723 N726 1.347 . S
C723 H728 0.931 . S
C724 N725 1.375 . S
C724 C727 1.350 . S
C724 H729 0.930 . S
N725 Co720 2.057 . S
N725 C723 1.316 . S
N725 C724 1.375 . S
N726 C723 1.347 . S
N726 C727 1.373 . S
C727 C724 1.350 . S
C727 N726 1.373 . S
C727 H748 0.931 . S
H728 C723 0.931 . S
H729 C724 0.930 . S
C730 O737 1.259 . S
C730 O738 1.258 . S
N731 Co722 2.057 . S
N731 C732 1.316 . S
N731 C733 1.375 . S
C732 N731 1.316 . S
C732 N734 1.347 . S
C732 H743 0.931 . S
C733 N731 1.375 . S
C733 C735 1.350 . S
C733 H742 0.930 . S
N734 C732 1.347 . S
N734 C735 1.373 . S
C735 C733 1.350 . S
C735 N734 1.373 . S
C735 H749 0.931 . S
C736 O739 1.256 . S
C736 O740 1.255 . S
O737 Co720 2.021 . S
O737 C730 1.259 . S
O738 Co722 2.117 . S
O738 C730 1.258 . S
O739 Co722 2.020 . S
O739 C736 1.256 . S
O740 Co720 2.062 . S
O740 C736 1.255 . S
O741 C721 1.259 . S
O741 Co722 2.021 . S
H742 C733 0.930 . S
H743 C732 0.931 . S
O744 Co720 2.117 . S
O744 C721 1.258 . S
O745 Co720 2.020 . S
O745 C747 1.256 . S
O746 Co722 2.062 . S
O746 C747 1.255 . S
C747 O745 1.256 . S
C747 O746 1.255 . S
H748 C727 0.931 . S
H749 C735 0.931 . S
Co750 N755 2.057 . S
Co750 O767 2.021 . S
Co750 O770 2.062 . S
Co750 O774 2.117 . S
Co750 O775 2.020 . S
C751 O771 1.259 . S
C751 O774 1.258 . S
Co752 N761 2.057 . S
Co752 O768 2.117 . S
Co752 O769 2.020 . S
Co752 O771 2.021 . S
Co752 O776 2.062 . S
C753 N755 1.316 . S
C753 N756 1.347 . S
C753 H758 0.931 . S
C754 N755 1.375 . S
C754 C757 1.350 . S
C754 H759 0.930 . S
N755 Co750 2.057 . S
N755 C753 1.316 . S
N755 C754 1.375 . S
N756 C753 1.347 . S
N756 C757 1.373 . S
C757 C754 1.350 . S
C757 N756 1.373 . S
C757 H778 0.931 . S
H758 C753 0.931 . S
H759 C754 0.930 . S
C760 O767 1.259 . S
C760 O768 1.258 . S
N761 Co752 2.057 . S
N761 C762 1.316 . S
N761 C763 1.375 . S
C762 N761 1.316 . S
C762 N764 1.347 . S
C762 H773 0.931 . S
C763 N761 1.375 . S
C763 C765 1.350 . S
C763 H772 0.930 . S
N764 C762 1.347 . S
N764 C765 1.373 . S
C765 C763 1.350 . S
C765 N764 1.373 . S
C765 H779 0.931 . S
C766 O769 1.256 . S
C766 O770 1.255 . S
O767 Co750 2.021 . S
O767 C760 1.259 . S
O768 Co752 2.117 . S
O768 C760 1.258 . S
O769 Co752 2.020 . S
O769 C766 1.256 . S
O770 Co750 2.062 . S
O770 C766 1.255 . S
O771 C751 1.259 . S
O771 Co752 2.021 . S
H772 C763 0.930 . S
H773 C762 0.931 . S
O774 Co750 2.117 . S
O774 C751 1.258 . S
O775 Co750 2.020 . S
O775 C777 1.256 . S
O776 Co752 2.062 . S
O776 C777 1.255 . S
C777 O775 1.256 . S
C777 O776 1.255 . S
H778 C757 0.931 . S
H779 C765 0.931 . S
Co780 N785 2.057 . S
Co780 O797 2.021 . S
Co780 O800 2.062 . S
Co780 O804 2.117 . S
Co780 O805 2.020 . S
C781 O801 1.259 . S
C781 O804 1.258 . S
Co782 N791 2.057 . S
Co782 O798 2.117 . S
Co782 O799 2.020 . S
Co782 O801 2.021 . S
Co782 O806 2.062 . S
C783 N785 1.316 . S
C783 N786 1.347 . S
C783 H788 0.931 . S
C784 N785 1.375 . S
C784 C787 1.350 . S
C784 H789 0.930 . S
N785 Co780 2.057 . S
N785 C783 1.316 . S
N785 C784 1.375 . S
N786 C783 1.347 . S
N786 C787 1.373 . S
C787 C784 1.350 . S
C787 N786 1.373 . S
C787 H808 0.931 . S
H788 C783 0.931 . S
H789 C784 0.930 . S
C790 O797 1.259 . S
C790 O798 1.258 . S
N791 Co782 2.057 . S
N791 C792 1.316 . S
N791 C793 1.375 . S
C792 N791 1.316 . S
C792 N794 1.347 . S
C792 H803 0.931 . S
C793 N791 1.375 . S
C793 C795 1.350 . S
C793 H802 0.930 . S
N794 C792 1.347 . S
N794 C795 1.373 . S
C795 C793 1.350 . S
C795 N794 1.373 . S
C795 H809 0.931 . S
C796 O799 1.256 . S
C796 O800 1.255 . S
O797 Co780 2.021 . S
O797 C790 1.259 . S
O798 Co782 2.117 . S
O798 C790 1.258 . S
O799 Co782 2.020 . S
O799 C796 1.256 . S
O800 Co780 2.062 . S
O800 C796 1.255 . S
O801 C781 1.259 . S
O801 Co782 2.021 . S
H802 C793 0.930 . S
H803 C792 0.931 . S
O804 Co780 2.117 . S
O804 C781 1.258 . S
O805 Co780 2.020 . S
O805 C807 1.256 . S
O806 Co782 2.062 . S
O806 C807 1.255 . S
C807 O805 1.256 . S
C807 O806 1.255 . S
H808 C787 0.931 . S
H809 C795 0.931 . S
Co810 N815 2.057 . S
Co810 O827 2.021 . S
Co810 O830 2.062 . S
Co810 O834 2.117 . S
Co810 O835 2.020 . S
C811 O831 1.259 . S
C811 O834 1.258 . S
Co812 N821 2.057 . S
Co812 O828 2.117 . S
Co812 O829 2.020 . S
Co812 O831 2.021 . S
Co812 O836 2.062 . S
C813 N815 1.316 . S
C813 N816 1.347 . S
C813 H818 0.931 . S
C814 N815 1.375 . S
C814 C817 1.350 . S
C814 H819 0.930 . S
N815 Co810 2.057 . S
N815 C813 1.316 . S
N815 C814 1.375 . S
N816 C813 1.347 . S
N816 C817 1.373 . S
C817 C814 1.350 . S
C817 N816 1.373 . S
C817 H838 0.931 . S
H818 C813 0.931 . S
H819 C814 0.930 . S
C820 O827 1.259 . S
C820 O828 1.258 . S
N821 Co812 2.057 . S
N821 C822 1.316 . S
N821 C823 1.375 . S
C822 N821 1.316 . S
C822 N824 1.347 . S
C822 H833 0.931 . S
C823 N821 1.375 . S
C823 C825 1.350 . S
C823 H832 0.930 . S
N824 C822 1.347 . S
N824 C825 1.373 . S
C825 C823 1.350 . S
C825 N824 1.373 . S
C825 H839 0.931 . S
C826 O829 1.256 . S
C826 O830 1.255 . S
O827 Co810 2.021 . S
O827 C820 1.259 . S
O828 Co812 2.117 . S
O828 C820 1.258 . S
O829 Co812 2.020 . S
O829 C826 1.256 . S
O830 Co810 2.062 . S
O830 C826 1.255 . S
O831 C811 1.259 . S
O831 Co812 2.021 . S
H832 C823 0.930 . S
H833 C822 0.931 . S
O834 Co810 2.117 . S
O834 C811 1.258 . S
O835 Co810 2.020 . S
O835 C837 1.256 . S
O836 Co812 2.062 . S
O836 C837 1.255 . S
C837 O835 1.256 . S
C837 O836 1.255 . S
H838 C817 0.931 . S
H839 C825 0.931 . S
Co840 N845 2.057 . S
Co840 O857 2.021 . S
Co840 O860 2.062 . S
Co840 O864 2.117 . S
Co840 O865 2.020 . S
C841 O861 1.259 . S
C841 O864 1.258 . S
Co842 N851 2.057 . S
Co842 O858 2.117 . S
Co842 O859 2.020 . S
Co842 O861 2.021 . S
Co842 O866 2.062 . S
C843 N845 1.316 . S
C843 N846 1.347 . S
C843 H848 0.931 . S
C844 N845 1.375 . S
C844 C847 1.350 . S
C844 H849 0.930 . S
N845 Co840 2.057 . S
N845 C843 1.316 . S
N845 C844 1.375 . S
N846 C843 1.347 . S
N846 C847 1.373 . S
C847 C844 1.350 . S
C847 N846 1.373 . S
C847 H868 0.931 . S
H848 C843 0.931 . S
H849 C844 0.930 . S
C850 O857 1.259 . S
C850 O858 1.258 . S
N851 Co842 2.057 . S
N851 C852 1.316 . S
N851 C853 1.375 . S
C852 N851 1.316 . S
C852 N854 1.347 . S
C852 H863 0.931 . S
C853 N851 1.375 . S
C853 C855 1.350 . S
C853 H862 0.930 . S
N854 C852 1.347 . S
N854 C855 1.373 . S
C855 C853 1.350 . S
C855 N854 1.373 . S
C855 H869 0.931 . S
C856 O859 1.256 . S
C856 O860 1.255 . S
O857 Co840 2.021 . S
O857 C850 1.259 . S
O858 Co842 2.117 . S
O858 C850 1.258 . S
O859 Co842 2.020 . S
O859 C856 1.256 . S
O860 Co840 2.062 . S
O860 C856 1.255 . S
O861 C841 1.259 . S
O861 Co842 2.021 . S
H862 C853 0.930 . S
H863 C852 0.931 . S
O864 Co840 2.117 . S
O864 C841 1.258 . S
O865 Co840 2.020 . S
O865 C867 1.256 . S
O866 Co842 2.062 . S
O866 C867 1.255 . S
C867 O865 1.256 . S
C867 O866 1.255 . S
H868 C847 0.931 . S
H869 C855 0.931 . S
Co870 N875 2.057 . S
Co870 O887 2.021 . S
Co870 O890 2.062 . S
Co870 O894 2.117 . S
Co870 O895 2.020 . S
C871 O891 1.259 . S
C871 O894 1.258 . S
Co872 N881 2.057 . S
Co872 O888 2.117 . S
Co872 O889 2.020 . S
Co872 O891 2.021 . S
Co872 O896 2.062 . S
C873 N875 1.316 . S
C873 N876 1.347 . S
C873 H878 0.931 . S
C874 N875 1.375 . S
C874 C877 1.350 . S
C874 H879 0.930 . S
N875 Co870 2.057 . S
N875 C873 1.316 . S
N875 C874 1.375 . S
N876 C873 1.347 . S
N876 C877 1.373 . S
C877 C874 1.350 . S
C877 N876 1.373 . S
C877 H898 0.931 . S
H878 C873 0.931 . S
H879 C874 0.930 . S
C880 O887 1.259 . S
C880 O888 1.258 . S
N881 Co872 2.057 . S
N881 C882 1.316 . S
N881 C883 1.375 . S
C882 N881 1.316 . S
C882 N884 1.347 . S
C882 H893 0.931 . S
C883 N881 1.375 . S
C883 C885 1.350 . S
C883 H892 0.930 . S
N884 C882 1.347 . S
N884 C885 1.373 . S
C885 C883 1.350 . S
C885 N884 1.373 . S
C885 H899 0.931 . S
C886 O889 1.256 . S
C886 O890 1.255 . S
O887 Co870 2.021 . S
O887 C880 1.259 . S
O888 Co872 2.117 . S
O888 C880 1.258 . S
O889 Co872 2.020 . S
O889 C886 1.256 . S
O890 Co870 2.062 . S
O890 C886 1.255 . S
O891 C871 1.259 . S
O891 Co872 2.021 . S
H892 C883 0.930 . S
H893 C882 0.931 . S
O894 Co870 2.117 . S
O894 C871 1.258 . S
O895 Co870 2.020 . S
O895 C897 1.256 . S
O896 Co872 2.062 . S
O896 C897 1.255 . S
C897 O895 1.256 . S
C897 O896 1.255 . S
H898 C877 0.931 . S
H899 C885 0.931 . S
Co900 N905 2.057 . S
Co900 O917 2.021 . S
Co900 O920 2.062 . S
Co900 O924 2.117 . S
Co900 O925 2.020 . S
C901 O921 1.259 . S
C901 O924 1.258 . S
Co902 N911 2.057 . S
Co902 O918 2.117 . S
Co902 O919 2.020 . S
Co902 O921 2.021 . S
Co902 O926 2.062 . S
C903 N905 1.316 . S
C903 N906 1.347 . S
C903 H908 0.931 . S
C904 N905 1.375 . S
C904 C907 1.350 . S
C904 H909 0.930 . S
N905 Co900 2.057 . S
N905 C903 1.316 . S
N905 C904 1.375 . S
N906 C903 1.347 . S
N906 C907 1.373 . S
C907 C904 1.350 . S
C907 N906 1.373 . S
C907 H928 0.931 . S
H908 C903 0.931 . S
H909 C904 0.930 . S
C910 O917 1.259 . S
C910 O918 1.258 . S
N911 Co902 2.057 . S
N911 C912 1.316 . S
N911 C913 1.375 . S
C912 N911 1.316 . S
C912 N914 1.347 . S
C912 H923 0.931 . S
C913 N911 1.375 . S
C913 C915 1.350 . S
C913 H922 0.930 . S
N914 C912 1.347 . S
N914 C915 1.373 . S
C915 C913 1.350 . S
C915 N914 1.373 . S
C915 H929 0.931 . S
C916 O919 1.256 . S
C916 O920 1.255 . S
O917 Co900 2.021 . S
O917 C910 1.259 . S
O918 Co902 2.117 . S
O918 C910 1.258 . S
O919 Co902 2.020 . S
O919 C916 1.256 . S
O920 Co900 2.062 . S
O920 C916 1.255 . S
O921 C901 1.259 . S
O921 Co902 2.021 . S
H922 C913 0.930 . S
H923 C912 0.931 . S
O924 Co900 2.117 . S
O924 C901 1.258 . S
O925 Co900 2.020 . S
O925 C927 1.256 . S
O926 Co902 2.062 . S
O926 C927 1.255 . S
C927 O925 1.256 . S
C927 O926 1.255 . S
H928 C907 0.931 . S
H929 C915 0.931 . S
Co930 N935 2.057 . S
Co930 O947 2.021 . S
Co930 O950 2.062 . S
Co930 O954 2.117 . S
Co930 O955 2.020 . S
C931 O951 1.259 . S
C931 O954 1.258 . S
Co932 N941 2.057 . S
Co932 O948 2.117 . S
Co932 O949 2.020 . S
Co932 O951 2.021 . S
Co932 O956 2.062 . S
C933 N935 1.316 . S
C933 N936 1.347 . S
C933 H938 0.931 . S
C934 N935 1.375 . S
C934 C937 1.350 . S
C934 H939 0.930 . S
N935 Co930 2.057 . S
N935 C933 1.316 . S
N935 C934 1.375 . S
N936 C933 1.347 . S
N936 C937 1.373 . S
C937 C934 1.350 . S
C937 N936 1.373 . S
C937 H958 0.931 . S
H938 C933 0.931 . S
H939 C934 0.930 . S
C940 O947 1.259 . S
C940 O948 1.258 . S
N941 Co932 2.057 . S
N941 C942 1.316 . S
N941 C943 1.375 . S
C942 N941 1.316 . S
C942 N944 1.347 . S
C942 H953 0.931 . S
C943 N941 1.375 . S
C943 C945 1.350 . S
C943 H952 0.930 . S
N944 C942 1.347 . S
N944 C945 1.373 . S
C945 C943 1.350 . S
C945 N944 1.373 . S
C945 H959 0.931 . S
C946 O949 1.256 . S
C946 O950 1.255 . S
O947 Co930 2.021 . S
O947 C940 1.259 . S
O948 Co932 2.117 . S
O948 C940 1.258 . S
O949 Co932 2.020 . S
O949 C946 1.256 . S
O950 Co930 2.062 . S
O950 C946 1.255 . S
O951 C931 1.259 . S
O951 Co932 2.021 . S
H952 C943 0.930 . S
H953 C942 0.931 . S
O954 Co930 2.117 . S
O954 C931 1.258 . S
O955 Co930 2.020 . S
O955 C957 1.256 . S
O956 Co932 2.062 . S
O956 C957 1.255 . S
C957 O955 1.256 . S
C957 O956 1.255 . S
H958 C937 0.931 . S
H959 C945 0.931 . S
H960 C968 0.950 . S
H961 C973 0.950 . S
H962 C970 0.950 . S
H963 C972 0.950 . S
H964 C974 0.950 . S
H965 C976 0.950 . S
H966 C978 0.950 . S
H967 C979 0.950 . S
C968 H960 0.950 . S
C968 C969 1.386 . S
C968 C970 1.391 . S
C969 C968 1.386 . S
C969 C973 1.393 . S
C970 H962 0.950 . S
C970 C968 1.391 . S
C970 C971 1.400 . S
C971 C970 1.400 . S
C971 C972 1.398 . S
C971 C977 1.491 . S
C972 H963 0.950 . S
C972 C971 1.398 . S
C972 C973 1.391 . S
C973 H961 0.950 . S
C973 C969 1.393 . S
C973 C972 1.391 . S
C974 H964 0.950 . S
C974 C975 1.386 . S
C974 C976 1.391 . S
C975 C974 1.386 . S
C975 C979 1.393 . S
C976 H965 0.950 . S
C976 C974 1.391 . S
C976 C977 1.400 . S
C977 C971 1.491 . S
C977 C976 1.400 . S
C977 C978 1.398 . S
C978 H966 0.950 . S
C978 C977 1.398 . S
C978 C979 1.391 . S
C979 H967 0.950 . S
C979 C975 1.393 . S
C979 C978 1.391 . S
H980 C988 0.950 . S
H981 C993 0.950 . S
H982 C990 0.950 . S
H983 C992 0.950 . S
H984 C994 0.950 . S
H985 C996 0.950 1_455 S
H986 C998 0.950 . S
H987 C999 0.950 . S
C988 H980 0.950 . S
C988 C989 1.386 . S
C988 C990 1.391 . S
C989 C988 1.386 . S
C989 C993 1.393 . S
C990 H982 0.950 . S
C990 C988 1.391 . S
C990 C991 1.400 . S
C991 C990 1.400 . S
C991 C992 1.398 . S
C991 C997 1.491 1_455 S
C992 H983 0.950 . S
C992 C991 1.398 . S
C992 C993 1.391 . S
C993 H981 0.950 . S
C993 C989 1.393 . S
C993 C992 1.391 . S
C994 H984 0.950 . S
C994 C995 1.386 . S
C994 C996 1.391 . S
C995 C994 1.386 . S
C995 C999 1.393 . S
C996 H985 0.950 1_655 S
C996 C994 1.391 . S
C996 C997 1.400 . S
C997 C991 1.491 1_655 S
C997 C996 1.400 . S
C997 C998 1.398 . S
C998 H986 0.950 . S
C998 C997 1.398 . S
C998 C999 1.391 . S
C999 H987 0.950 . S
C999 C995 1.393 . S
C999 C998 1.391 . S
H1000 C1008 0.950 . S
H1001 C1013 0.950 . S
H1002 C1010 0.950 . S
H1003 C1012 0.950 . S
H1004 C1014 0.950 . S
H1005 C1016 0.950 . S
H1006 C1018 0.950 . S
H1007 C1019 0.950 . S
C1008 H1000 0.950 . S
C1008 C1009 1.386 . S
C1008 C1010 1.391 . S
C1009 C1008 1.386 . S
C1009 C1013 1.393 . S
C1010 H1002 0.950 . S
C1010 C1008 1.391 . S
C1010 C1011 1.400 . S
C1011 C1010 1.400 . S
C1011 C1012 1.398 . S
C1011 C1017 1.491 . S
C1012 H1003 0.950 . S
C1012 C1011 1.398 . S
C1012 C1013 1.391 . S
C1013 H1001 0.950 . S
C1013 C1009 1.393 . S
C1013 C1012 1.391 . S
C1014 H1004 0.950 . S
C1014 C1015 1.386 . S
C1014 C1016 1.391 . S
C1015 C1014 1.386 . S
C1015 C1019 1.393 . S
C1016 H1005 0.950 . S
C1016 C1014 1.391 . S
C1016 C1017 1.400 . S
C1017 C1011 1.491 . S
C1017 C1016 1.400 . S
C1017 C1018 1.398 . S
C1018 H1006 0.950 . S
C1018 C1017 1.398 . S
C1018 C1019 1.391 . S
C1019 H1007 0.950 . S
C1019 C1015 1.393 . S
C1019 C1018 1.391 . S
H1020 C1028 0.950 . S
H1021 C1033 0.950 . S
H1022 C1030 0.950 . S
H1023 C1032 0.950 . S
H1024 C1034 0.950 . S
H1025 C1036 0.950 . S
H1026 C1038 0.950 . S
H1027 C1039 0.950 . S
C1028 H1020 0.950 . S
C1028 C1029 1.386 . S
C1028 C1030 1.391 . S
C1029 C1028 1.386 . S
C1029 C1033 1.393 . S
C1030 H1022 0.950 . S
C1030 C1028 1.391 . S
C1030 C1031 1.400 . S
C1031 C1030 1.400 . S
C1031 C1032 1.398 . S
C1031 C1037 1.491 . S
C1032 H1023 0.950 . S
C1032 C1031 1.398 . S
C1032 C1033 1.391 . S
C1033 H1021 0.950 . S
C1033 C1029 1.393 . S
C1033 C1032 1.391 . S
C1034 H1024 0.950 . S
C1034 C1035 1.386 . S
C1034 C1036 1.391 . S
C1035 C1034 1.386 . S
C1035 C1039 1.393 . S
C1036 H1025 0.950 . S
C1036 C1034 1.391 . S
C1036 C1037 1.400 . S
C1037 C1031 1.491 . S
C1037 C1036 1.400 . S
C1037 C1038 1.398 . S
C1038 H1026 0.950 . S
C1038 C1037 1.398 . S
C1038 C1039 1.391 . S
C1039 H1027 0.950 . S
C1039 C1035 1.393 . S
C1039 C1038 1.391 . S
H1040 C1048 0.950 . S
H1041 C1053 0.950 . S
H1042 C1050 0.950 . S
H1043 C1052 0.950 . S
H1044 C1054 0.950 . S
H1045 C1056 0.950 . S
H1046 C1058 0.950 . S
H1047 C1059 0.950 . S
C1048 H1040 0.950 . S
C1048 C1049 1.386 . S
C1048 C1050 1.391 . S
C1049 C1048 1.386 . S
C1049 C1053 1.393 . S
C1050 H1042 0.950 . S
C1050 C1048 1.391 . S
C1050 C1051 1.400 . S
C1051 C1050 1.400 . S
C1051 C1052 1.398 . S
C1051 C1057 1.491 . S
C1052 H1043 0.950 . S
C1052 C1051 1.398 . S
C1052 C1053 1.391 . S
C1053 H1041 0.950 . S
C1053 C1049 1.393 . S
C1053 C1052 1.391 . S
C1054 H1044 0.950 . S
C1054 C1055 1.386 . S
C1054 C1056 1.391 . S
C1055 C1054 1.386 . S
C1055 C1059 1.393 . S
C1056 H1045 0.950 . S
C1056 C1054 1.391 . S
C1056 C1057 1.400 . S
C1057 C1051 1.491 . S
C1057 C1056 1.400 . S
C1057 C1058 1.398 . S
C1058 H1046 0.950 . S
C1058 C1057 1.398 . S
C1058 C1059 1.391 . S
C1059 H1047 0.950 . S
C1059 C1055 1.393 . S
C1059 C1058 1.391 . S
H1060 C1068 0.950 1_545 S
H1061 C1073 0.950 . S
H1062 C1070 0.950 . S
H1063 C1072 0.950 . S
H1064 C1074 0.950 . S
H1065 C1076 0.950 . S
H1066 C1078 0.950 . S
H1067 C1079 0.950 . S
C1068 H1060 0.950 1_565 S
C1068 C1069 1.386 . S
C1068 C1070 1.391 . S
C1069 C1068 1.386 . S
C1069 C1073 1.393 . S
C1070 H1062 0.950 . S
C1070 C1068 1.391 . S
C1070 C1071 1.400 . S
C1071 C1070 1.400 . S
C1071 C1072 1.398 . S
C1071 C1077 1.491 . S
C1072 H1063 0.950 . S
C1072 C1071 1.398 . S
C1072 C1073 1.391 . S
C1073 H1061 0.950 . S
C1073 C1069 1.393 . S
C1073 C1072 1.391 . S
C1074 H1064 0.950 . S
C1074 C1075 1.386 . S
C1074 C1076 1.391 . S
C1075 C1074 1.386 . S
C1075 C1079 1.393 . S
C1076 H1065 0.950 . S
C1076 C1074 1.391 . S
C1076 C1077 1.400 . S
C1077 C1071 1.491 . S
C1077 C1076 1.400 . S
C1077 C1078 1.398 . S
C1078 H1066 0.950 . S
C1078 C1077 1.398 . S
C1078 C1079 1.391 . S
C1079 H1067 0.950 . S
C1079 C1075 1.393 . S
C1079 C1078 1.391 . S
H1080 C1088 0.950 . S
H1081 C1093 0.950 . S
H1082 C1090 0.950 . S
H1083 C1092 0.950 . S
H1084 C1094 0.950 . S
H1085 C1096 0.950 . S
H1086 C1098 0.950 . S
H1087 C1099 0.950 . S
C1088 H1080 0.950 . S
C1088 C1089 1.386 . S
C1088 C1090 1.391 . S
C1089 C1088 1.386 . S
C1089 C1093 1.393 . S
C1090 H1082 0.950 . S
C1090 C1088 1.391 . S
C1090 C1091 1.400 . S
C1091 C1090 1.400 . S
C1091 C1092 1.398 . S
C1091 C1097 1.491 . S
C1092 H1083 0.950 . S
C1092 C1091 1.398 . S
C1092 C1093 1.391 . S
C1093 H1081 0.950 . S
C1093 C1089 1.393 . S
C1093 C1092 1.391 . S
C1094 H1084 0.950 . S
C1094 C1095 1.386 . S
C1094 C1096 1.391 . S
C1095 C1094 1.386 . S
C1095 C1099 1.393 . S
C1096 H1085 0.950 . S
C1096 C1094 1.391 . S
C1096 C1097 1.400 . S
C1097 C1091 1.491 . S
C1097 C1096 1.400 . S
C1097 C1098 1.398 . S
C1098 H1086 0.950 . S
C1098 C1097 1.398 . S
C1098 C1099 1.391 . S
C1099 H1087 0.950 . S
C1099 C1095 1.393 . S
C1099 C1098 1.391 . S
H1100 C1108 0.950 . S
H1101 C1113 0.950 . S
H1102 C1110 0.950 . S
H1103 C1112 0.977 . S
H1104 C1114 0.950 . S
H1105 C1116 0.950 . S
H1106 C1118 0.950 . S
H1107 C1119 0.950 . S
C1108 H1100 0.950 . S
C1108 C1109 1.386 . S
C1108 C1110 1.391 . S
C1109 C1108 1.386 . S
C1109 C1113 1.393 . S
C1110 H1102 0.950 . S
C1110 C1108 1.391 . S
C1110 C1111 1.400 . S
C1111 C1110 1.400 . S
C1111 C1112 1.398 . S
C1111 C1117 1.491 1_455 S
C1112 H1103 0.977 . S
C1112 C1111 1.398 . S
C1112 C1113 1.391 . S
C1113 H1101 0.950 . S
C1113 C1109 1.393 . S
C1113 C1112 1.391 . S
C1114 H1104 0.950 . S
C1114 C1115 1.386 . S
C1114 C1116 1.391 . S
C1115 C1114 1.386 . S
C1115 C1119 1.393 . S
C1116 H1105 0.950 . S
C1116 C1114 1.391 . S
C1116 C1117 1.400 . S
C1117 C1111 1.491 1_655 S
C1117 C1116 1.400 . S
C1117 C1118 1.398 1_655 S
C1118 H1106 0.950 . S
C1118 C1117 1.398 1_455 S
C1118 C1119 1.391 1_455 S
C1119 H1107 0.950 . S
C1119 C1115 1.393 . S
C1119 C1118 1.391 1_655 S
H1120 C1128 0.950 . S
H1121 C1133 0.950 . S
H1122 C1130 0.950 . S
H1123 C1132 0.950 . S
H1124 C1134 0.950 . S
H1125 C1136 0.950 . S
H1126 C1138 0.950 . S
H1127 C1139 0.950 . S
C1128 H1120 0.950 . S
C1128 C1129 1.386 . S
C1128 C1130 1.391 . S
C1129 C1128 1.386 . S
C1129 C1133 1.393 . S
C1130 H1122 0.950 . S
C1130 C1128 1.391 . S
C1130 C1131 1.400 . S
C1131 C1130 1.400 . S
C1131 C1132 1.398 . S
C1131 C1137 1.491 . S
C1132 H1123 0.950 . S
C1132 C1131 1.398 . S
C1132 C1133 1.391 . S
C1133 H1121 0.950 . S
C1133 C1129 1.393 . S
C1133 C1132 1.391 . S
C1134 H1124 0.950 . S
C1134 C1135 1.386 . S
C1134 C1136 1.391 . S
C1135 C1134 1.386 . S
C1135 C1139 1.393 . S
C1136 H1125 0.950 . S
C1136 C1134 1.391 . S
C1136 C1137 1.400 . S
C1137 C1131 1.491 . S
C1137 C1136 1.400 . S
C1137 C1138 1.398 . S
C1138 H1126 0.950 . S
C1138 C1137 1.398 . S
C1138 C1139 1.391 . S
C1139 H1127 0.950 . S
C1139 C1135 1.393 . S
C1139 C1138 1.391 . S
H1140 C1148 0.950 . S
H1141 C1153 0.950 . S
H1142 C1150 0.950 . S
H1143 C1152 0.950 . S
H1144 C1154 0.950 . S
H1145 C1156 0.950 . S
H1146 C1158 0.950 . S
H1147 C1159 0.950 . S
C1148 H1140 0.950 . S
C1148 C1149 1.386 . S
C1148 C1150 1.391 . S
C1149 C1148 1.386 . S
C1149 C1153 1.393 . S
C1150 H1142 0.950 . S
C1150 C1148 1.391 . S
C1150 C1151 1.400 . S
C1151 C1150 1.400 . S
C1151 C1152 1.398 . S
C1151 C1157 1.491 1_655 S
C1152 H1143 0.950 . S
C1152 C1151 1.398 . S
C1152 C1153 1.391 . S
C1153 H1141 0.950 . S
C1153 C1149 1.393 . S
C1153 C1152 1.391 . S
C1154 H1144 0.950 . S
C1154 C1155 1.386 . S
C1154 C1156 1.391 . S
C1155 C1154 1.386 . S
C1155 C1159 1.393 . S
C1156 H1145 0.950 . S
C1156 C1154 1.391 . S
C1156 C1157 1.400 . S
C1157 C1151 1.491 1_455 S
C1157 C1156 1.400 . S
C1157 C1158 1.398 1_455 S
C1158 H1146 0.950 . S
C1158 C1157 1.398 1_655 S
C1158 C1159 1.391 1_655 S
C1159 H1147 0.950 . S
C1159 C1155 1.393 . S
C1159 C1158 1.391 1_455 S
H1160 C1168 0.950 . S
H1161 C1173 0.950 . S
H1162 C1170 0.950 . S
H1163 C1172 0.950 . S
H1164 C1174 0.950 . S
H1165 C1176 0.950 . S
H1166 C1178 0.950 . S
H1167 C1179 0.950 . S
C1168 H1160 0.950 . S
C1168 C1169 1.386 . S
C1168 C1170 1.391 . S
C1169 C1168 1.386 . S
C1169 C1173 1.393 . S
C1170 H1162 0.950 . S
C1170 C1168 1.391 . S
C1170 C1171 1.400 . S
C1171 C1170 1.400 . S
C1171 C1172 1.398 . S
C1171 C1177 1.491 . S
C1172 H1163 0.950 . S
C1172 C1171 1.398 . S
C1172 C1173 1.391 . S
C1173 H1161 0.950 . S
C1173 C1169 1.393 . S
C1173 C1172 1.391 . S
C1174 H1164 0.950 . S
C1174 C1175 1.386 . S
C1174 C1176 1.391 . S
C1175 C1174 1.386 . S
C1175 C1179 1.393 . S
C1176 H1165 0.950 . S
C1176 C1174 1.391 . S
C1176 C1177 1.400 . S
C1177 C1171 1.491 . S
C1177 C1176 1.400 . S
C1177 C1178 1.398 . S
C1178 H1166 0.950 . S
C1178 C1177 1.398 . S
C1178 C1179 1.391 . S
C1179 H1167 0.950 . S
C1179 C1175 1.393 . S
C1179 C1178 1.391 . S
H1180 C1188 0.950 1_545 S
H1181 C1193 0.950 . S
H1182 C1190 0.950 . S
H1183 C1192 0.950 . S
H1184 C1194 0.950 . S
H1185 C1196 0.950 . S
H1186 C1198 0.950 . S
H1187 C1199 0.950 . S
C1188 H1180 0.950 1_565 S
C1188 C1189 1.386 . S
C1188 C1190 1.391 . S
C1189 C1188 1.386 . S
C1189 C1193 1.393 . S
C1190 H1182 0.950 . S
C1190 C1188 1.391 . S
C1190 C1191 1.400 . S
C1191 C1190 1.400 . S
C1191 C1192 1.398 . S
C1191 C1197 1.491 . S
C1192 H1183 0.950 . S
C1192 C1191 1.398 . S
C1192 C1193 1.391 . S
C1193 H1181 0.950 . S
C1193 C1189 1.393 . S
C1193 C1192 1.391 . S
C1194 H1184 0.950 . S
C1194 C1195 1.386 . S
C1194 C1196 1.391 . S
C1195 C1194 1.386 . S
C1195 C1199 1.393 . S
C1196 H1185 0.950 . S
C1196 C1194 1.391 . S
C1196 C1197 1.400 . S
C1197 C1191 1.491 . S
C1197 C1196 1.400 . S
C1197 C1198 1.398 . S
C1198 H1186 0.950 . S
C1198 C1197 1.398 . S
C1198 C1199 1.391 . S
C1199 H1187 0.950 . S
C1199 C1195 1.393 . S
C1199 C1198 1.391 . S
H1200 C1208 0.950 . S
H1201 C1213 0.950 . S
H1202 C1210 0.950 . S
H1203 C1212 0.950 . S
H1204 C1214 0.950 . S
H1205 C1216 0.950 . S
H1206 C1218 0.950 . S
H1207 C1219 0.950 . S
C1208 H1200 0.950 . S
C1208 C1209 1.386 . S
C1208 C1210 1.391 . S
C1209 C1208 1.386 . S
C1209 C1213 1.393 . S
C1210 H1202 0.950 . S
C1210 C1208 1.391 . S
C1210 C1211 1.400 . S
C1211 C1210 1.400 . S
C1211 C1212 1.398 . S
C1211 C1217 1.491 . S
C1212 H1203 0.950 . S
C1212 C1211 1.398 . S
C1212 C1213 1.391 . S
C1213 H1201 0.950 . S
C1213 C1209 1.393 . S
C1213 C1212 1.391 . S
C1214 H1204 0.950 . S
C1214 C1215 1.386 . S
C1214 C1216 1.391 . S
C1215 C1214 1.386 . S
C1215 C1219 1.393 . S
C1216 H1205 0.950 . S
C1216 C1214 1.391 . S
C1216 C1217 1.400 . S
C1217 C1211 1.491 . S
C1217 C1216 1.400 . S
C1217 C1218 1.398 . S
C1218 H1206 0.950 . S
C1218 C1217 1.398 . S
C1218 C1219 1.391 . S
C1219 H1207 0.950 . S
C1219 C1215 1.393 . S
C1219 C1218 1.391 . S
H1220 C1228 0.950 . S
H1221 C1233 0.950 . S
H1222 C1230 0.950 . S
H1223 C1232 0.950 . S
H1224 C1234 0.950 1_565 S
H1225 C1236 0.950 . S
H1226 C1238 0.950 . S
H1227 C1239 0.950 . S
C1228 H1220 0.950 . S
C1228 C1229 1.386 . S
C1228 C1230 1.391 . S
C1229 C1228 1.386 . S
C1229 C1233 1.393 . S
C1230 H1222 0.950 . S
C1230 C1228 1.391 . S
C1230 C1231 1.400 . S
C1231 C1230 1.400 . S
C1231 C1232 1.398 . S
C1231 C1237 1.491 . S
C1232 H1223 0.950 . S
C1232 C1231 1.398 . S
C1232 C1233 1.391 . S
C1233 H1221 0.950 . S
C1233 C1229 1.393 . S
C1233 C1232 1.391 . S
C1234 H1224 0.950 1_545 S
C1234 C1235 1.386 . S
C1234 C1236 1.391 . S
C1235 C1234 1.386 . S
C1235 C1239 1.393 . S
C1236 H1225 0.950 . S
C1236 C1234 1.391 . S
C1236 C1237 1.400 . S
C1237 C1231 1.491 . S
C1237 C1236 1.400 . S
C1237 C1238 1.398 . S
C1238 H1226 0.950 . S
C1238 C1237 1.398 . S
C1238 C1239 1.391 . S
C1239 H1227 0.950 . S
C1239 C1235 1.393 . S
C1239 C1238 1.391 . S
H1240 C1248 0.950 . S
H1241 C1253 0.950 . S
H1242 C1250 0.950 . S
H1243 C1252 0.950 . S
H1244 C1254 0.950 . S
H1245 C1256 0.950 . S
H1246 C1258 0.950 . S
H1247 C1259 0.950 . S
C1248 H1240 0.950 . S
C1248 C1249 1.386 . S
C1248 C1250 1.391 . S
C1249 C1248 1.386 . S
C1249 C1253 1.393 . S
C1250 H1242 0.950 . S
C1250 C1248 1.391 . S
C1250 C1251 1.400 . S
C1251 C1250 1.400 . S
C1251 C1252 1.398 . S
C1251 C1257 1.491 . S
C1252 H1243 0.950 . S
C1252 C1251 1.398 . S
C1252 C1253 1.391 . S
C1253 H1241 0.950 . S
C1253 C1249 1.393 . S
C1253 C1252 1.391 . S
C1254 H1244 0.950 . S
C1254 C1255 1.386 . S
C1254 C1256 1.391 . S
C1255 C1254 1.386 . S
C1255 C1259 1.393 . S
C1256 H1245 0.950 . S
C1256 C1254 1.391 . S
C1256 C1257 1.400 . S
C1257 C1251 1.491 . S
C1257 C1256 1.400 . S
C1257 C1258 1.398 . S
C1258 H1246 0.950 . S
C1258 C1257 1.398 . S
C1258 C1259 1.391 . S
C1259 H1247 0.950 . S
C1259 C1255 1.393 . S
C1259 C1258 1.391 . S
H1260 C1268 0.950 . S
H1261 C1273 0.950 . S
H1262 C1270 0.950 . S
H1263 C1272 0.950 . S
H1264 C1274 0.950 . S
H1265 C1276 0.950 . S
H1266 C1278 0.950 . S
H1267 C1279 0.950 . S
C1268 H1260 0.950 . S
C1268 C1269 1.386 . S
C1268 C1270 1.391 . S
C1269 C1268 1.386 . S
C1269 C1273 1.393 . S
C1270 H1262 0.950 . S
C1270 C1268 1.391 . S
C1270 C1271 1.400 . S
C1271 C1270 1.400 . S
C1271 C1272 1.398 1_455 S
C1271 C1277 1.491 1_455 S
C1272 H1263 0.950 . S
C1272 C1271 1.398 1_655 S
C1272 C1273 1.391 1_655 S
C1273 H1261 0.950 . S
C1273 C1269 1.393 . S
C1273 C1272 1.391 1_455 S
C1274 H1264 0.950 . S
C1274 C1275 1.386 . S
C1274 C1276 1.391 . S
C1275 C1274 1.386 . S
C1275 C1279 1.393 . S
C1276 H1265 0.950 . S
C1276 C1274 1.391 . S
C1276 C1277 1.400 . S
C1277 C1271 1.491 1_655 S
C1277 C1276 1.400 . S
C1277 C1278 1.398 . S
C1278 H1266 0.950 . S
C1278 C1277 1.398 . S
C1278 C1279 1.391 . S
C1279 H1267 0.950 . S
C1279 C1275 1.393 . S
C1279 C1278 1.391 . S
H1280 C1288 0.950 . S
H1281 C1293 0.950 . S
H1282 C1290 0.950 . S
H1283 C1292 0.950 . S
H1284 C1294 0.950 . S
H1285 C1296 0.950 . S
H1286 C1298 0.950 . S
H1287 C1299 0.950 . S
C1288 H1280 0.950 . S
C1288 C1289 1.386 . S
C1288 C1290 1.391 . S
C1289 C1288 1.386 . S
C1289 C1293 1.393 . S
C1290 H1282 0.950 . S
C1290 C1288 1.391 . S
C1290 C1291 1.400 . S
C1291 C1290 1.400 . S
C1291 C1292 1.398 . S
C1291 C1297 1.491 . S
C1292 H1283 0.950 . S
C1292 C1291 1.398 . S
C1292 C1293 1.391 . S
C1293 H1281 0.950 . S
C1293 C1289 1.393 . S
C1293 C1292 1.391 . S
C1294 H1284 0.950 . S
C1294 C1295 1.386 . S
C1294 C1296 1.391 . S
C1295 C1294 1.386 . S
C1295 C1299 1.393 . S
C1296 H1285 0.950 . S
C1296 C1294 1.391 . S
C1296 C1297 1.400 . S
C1297 C1291 1.491 . S
C1297 C1296 1.400 . S
C1297 C1298 1.398 . S
C1298 H1286 0.950 . S
C1298 C1297 1.398 . S
C1298 C1299 1.391 . S
C1299 H1287 0.950 . S
C1299 C1295 1.393 . S
C1299 C1298 1.391 . S
H1300 C1308 0.950 . S
H1301 C1313 0.950 . S
H1302 C1310 0.950 . S
H1303 C1312 0.950 . S
H1304 C1314 0.950 . S
H1305 C1316 0.950 . S
H1306 C1318 0.950 . S
H1307 C1319 0.950 . S
C1308 H1300 0.950 . S
C1308 C1309 1.386 . S
C1308 C1310 1.391 . S
C1309 C1308 1.386 . S
C1309 C1313 1.393 . S
C1310 H1302 0.950 . S
C1310 C1308 1.391 . S
C1310 C1311 1.400 . S
C1311 C1310 1.400 . S
C1311 C1312 1.398 . S
C1311 C1317 1.491 . S
C1312 H1303 0.950 . S
C1312 C1311 1.398 . S
C1312 C1313 1.391 . S
C1313 H1301 0.950 . S
C1313 C1309 1.393 . S
C1313 C1312 1.391 . S
C1314 H1304 0.950 . S
C1314 C1315 1.386 . S
C1314 C1316 1.391 . S
C1315 C1314 1.386 . S
C1315 C1319 1.393 . S
C1316 H1305 0.950 . S
C1316 C1314 1.391 . S
C1316 C1317 1.400 . S
C1317 C1311 1.491 . S
C1317 C1316 1.400 . S
C1317 C1318 1.398 . S
C1318 H1306 0.950 . S
C1318 C1317 1.398 . S
C1318 C1319 1.391 . S
C1319 H1307 0.950 . S
C1319 C1315 1.393 . S
C1319 C1318 1.391 . S
H1320 C1328 0.950 . S
H1321 C1333 0.950 . S
H1322 C1330 0.950 . S
H1323 C1332 0.950 . S
H1324 C1334 0.950 . S
H1325 C1336 0.950 . S
H1326 C1338 0.950 . S
H1327 C1339 0.950 . S
C1328 H1320 0.950 . S
C1328 C1329 1.386 . S
C1328 C1330 1.391 . S
C1329 C1328 1.386 . S
C1329 C1333 1.393 . S
C1330 H1322 0.950 . S
C1330 C1328 1.391 . S
C1330 C1331 1.400 . S
C1331 C1330 1.400 . S
C1331 C1332 1.398 . S
C1331 C1337 1.491 . S
C1332 H1323 0.950 . S
C1332 C1331 1.398 . S
C1332 C1333 1.391 . S
C1333 H1321 0.950 . S
C1333 C1329 1.393 . S
C1333 C1332 1.391 . S
C1334 H1324 0.950 . S
C1334 C1335 1.386 . S
C1334 C1336 1.391 . S
C1335 C1334 1.386 . S
C1335 C1339 1.393 . S
C1336 H1325 0.950 . S
C1336 C1334 1.391 . S
C1336 C1337 1.400 . S
C1337 C1331 1.491 . S
C1337 C1336 1.400 . S
C1337 C1338 1.398 . S
C1338 H1326 0.950 . S
C1338 C1337 1.398 . S
C1338 C1339 1.391 . S
C1339 H1327 0.950 . S
C1339 C1335 1.393 . S
C1339 C1338 1.391 . S
H1340 C1348 0.950 . S
H1341 C1353 0.950 . S
H1342 C1350 0.950 . S
H1343 C1352 0.950 . S
H1344 C1354 0.950 . S
H1345 C1356 0.950 . S
H1346 C1358 0.950 . S
H1347 C1359 0.950 . S
C1348 H1340 0.950 . S
C1348 C1349 1.386 . S
C1348 C1350 1.391 1_655 S
C1349 C1348 1.386 . S
C1349 C1353 1.393 . S
C1350 H1342 0.950 . S
C1350 C1348 1.391 1_455 S
C1350 C1351 1.400 . S
C1351 C1350 1.400 . S
C1351 C1352 1.398 1_455 S
C1351 C1357 1.491 . S
C1352 H1343 0.950 . S
C1352 C1351 1.398 1_655 S
C1352 C1353 1.391 . S
C1353 H1341 0.950 . S
C1353 C1349 1.393 . S
C1353 C1352 1.391 . S
C1354 H1344 0.950 . S
C1354 C1355 1.386 . S
C1354 C1356 1.391 . S
C1355 C1354 1.386 . S
C1355 C1359 1.393 . S
C1356 H1345 0.950 . S
C1356 C1354 1.391 . S
C1356 C1357 1.400 . S
C1357 C1351 1.491 . S
C1357 C1356 1.400 . S
C1357 C1358 1.398 . S
C1358 H1346 0.950 . S
C1358 C1357 1.398 . S
C1358 C1359 1.391 . S
C1359 H1347 0.950 . S
C1359 C1355 1.393 . S
C1359 C1358 1.391 . S
H1360 C1368 0.950 . S
H1361 C1373 0.950 . S
H1362 C1370 0.950 . S
H1363 C1372 0.950 . S
H1364 C1374 0.950 . S
H1365 C1376 0.950 . S
H1366 C1378 0.950 . S
H1367 C1379 0.950 . S
C1368 H1360 0.950 . S
C1368 C1369 1.386 . S
C1368 C1370 1.391 . S
C1369 C1368 1.386 . S
C1369 C1373 1.393 . S
C1370 H1362 0.950 . S
C1370 C1368 1.391 . S
C1370 C1371 1.400 . S
C1371 C1370 1.400 . S
C1371 C1372 1.398 . S
C1371 C1377 1.491 . S
C1372 H1363 0.950 . S
C1372 C1371 1.398 . S
C1372 C1373 1.391 . S
C1373 H1361 0.950 . S
C1373 C1369 1.393 . S
C1373 C1372 1.391 . S
C1374 H1364 0.950 . S
C1374 C1375 1.386 . S
C1374 C1376 1.391 . S
C1375 C1374 1.386 . S
C1375 C1379 1.393 . S
C1376 H1365 0.950 . S
C1376 C1374 1.391 . S
C1376 C1377 1.400 . S
C1377 C1371 1.491 . S
C1377 C1376 1.400 . S
C1377 C1378 1.398 . S
C1378 H1366 0.950 . S
C1378 C1377 1.398 . S
C1378 C1379 1.391 . S
C1379 H1367 0.950 . S
C1379 C1375 1.393 . S
C1379 C1378 1.391 . S
H1380 C1388 0.950 . S
H1381 C1393 0.950 . S
H1382 C1390 0.950 . S
H1383 C1392 0.950 . S
H1384 C1394 0.950 . S
H1385 C1396 0.950 . S
H1386 C1398 0.950 . S
H1387 C1399 0.950 . S
C1388 H1380 0.950 . S
C1388 C1389 1.386 . S
C1388 C1390 1.391 . S
C1389 C1388 1.386 . S
C1389 C1393 1.393 . S
C1390 H1382 0.950 . S
C1390 C1388 1.391 . S
C1390 C1391 1.400 . S
C1391 C1390 1.400 . S
C1391 C1392 1.398 . S
C1391 C1397 1.491 . S
C1392 H1383 0.950 . S
C1392 C1391 1.398 . S
C1392 C1393 1.391 . S
C1393 H1381 0.950 . S
C1393 C1389 1.393 . S
C1393 C1392 1.391 . S
C1394 H1384 0.950 . S
C1394 C1395 1.386 . S
C1394 C1396 1.391 1_655 S
C1395 C1394 1.386 . S
C1395 C1399 1.393 . S
C1396 H1385 0.950 . S
C1396 C1394 1.391 1_455 S
C1396 C1397 1.400 . S
C1397 C1391 1.491 . S
C1397 C1396 1.400 . S
C1397 C1398 1.398 1_455 S
C1398 H1386 0.950 . S
C1398 C1397 1.398 1_655 S
C1398 C1399 1.391 . S
C1399 H1387 0.950 . S
C1399 C1395 1.393 . S
C1399 C1398 1.391 . S
H1400 C1408 0.950 . S
H1401 C1413 0.950 . S
H1402 C1410 0.950 . S
H1403 C1412 0.950 . S
H1404 C1414 0.950 . S
H1405 C1416 0.950 . S
H1406 C1418 0.950 . S
H1407 C1419 0.950 . S
C1408 H1400 0.950 . S
C1408 C1409 1.386 . S
C1408 C1410 1.391 . S
C1409 C1408 1.386 . S
C1409 C1413 1.393 . S
C1410 H1402 0.950 . S
C1410 C1408 1.391 . S
C1410 C1411 1.400 . S
C1411 C1410 1.400 . S
C1411 C1412 1.398 . S
C1411 C1417 1.491 . S
C1412 H1403 0.950 . S
C1412 C1411 1.398 . S
C1412 C1413 1.391 . S
C1413 H1401 0.950 . S
C1413 C1409 1.393 . S
C1413 C1412 1.391 . S
C1414 H1404 0.950 . S
C1414 C1415 1.386 . S
C1414 C1416 1.391 . S
C1415 C1414 1.386 . S
C1415 C1419 1.393 . S
C1416 H1405 0.950 . S
C1416 C1414 1.391 . S
C1416 C1417 1.400 . S
C1417 C1411 1.491 . S
C1417 C1416 1.400 . S
C1417 C1418 1.398 . S
C1418 H1406 0.950 . S
C1418 C1417 1.398 . S
C1418 C1419 1.391 . S
C1419 H1407 0.950 . S
C1419 C1415 1.393 . S
C1419 C1418 1.391 . S
H1420 C1428 0.950 . S
H1421 C1433 0.950 . S
H1422 C1430 0.950 . S
H1423 C1432 0.950 . S
H1424 C1434 0.950 . S
H1425 C1436 0.950 . S
H1426 C1438 0.950 . S
H1427 C1439 0.950 . S
C1428 H1420 0.950 . S
C1428 C1429 1.386 . S
C1428 C1430 1.391 . S
C1429 C1428 1.386 . S
C1429 C1433 1.393 . S
C1430 H1422 0.950 . S
C1430 C1428 1.391 . S
C1430 C1431 1.400 . S
C1431 C1430 1.400 . S
C1431 C1432 1.398 . S
C1431 C1437 1.491 . S
C1432 H1423 0.950 . S
C1432 C1431 1.398 . S
C1432 C1433 1.391 . S
C1433 H1421 0.950 . S
C1433 C1429 1.393 . S
C1433 C1432 1.391 . S
C1434 H1424 0.950 . S
C1434 C1435 1.386 . S
C1434 C1436 1.391 . S
C1435 C1434 1.386 . S
C1435 C1439 1.393 . S
C1436 H1425 0.950 . S
C1436 C1434 1.391 . S
C1436 C1437 1.400 . S
C1437 C1431 1.491 . S
C1437 C1436 1.400 . S
C1437 C1438 1.398 . S
C1438 H1426 0.950 . S
C1438 C1437 1.398 . S
C1438 C1439 1.391 . S
C1439 H1427 0.950 . S
C1439 C1435 1.393 . S
C1439 C1438 1.391 . S
H1440 C1448 0.950 . S
H1441 C1453 0.950 . S
H1442 C1450 0.950 . S
H1443 C1452 0.950 . S
H1444 C1454 0.950 . S
H1445 C1456 0.950 . S
H1446 C1458 0.950 . S
H1447 C1459 0.950 . S
C1448 H1440 0.950 . S
C1448 C1449 1.386 . S
C1448 C1450 1.391 . S
C1449 C1448 1.386 . S
C1449 C1453 1.393 . S
C1450 H1442 0.950 . S
C1450 C1448 1.391 . S
C1450 C1451 1.400 . S
C1451 C1450 1.400 . S
C1451 C1452 1.398 . S
C1451 C1457 1.491 . S
C1452 H1443 0.950 . S
C1452 C1451 1.398 . S
C1452 C1453 1.391 . S
C1453 H1441 0.950 . S
C1453 C1449 1.393 . S
C1453 C1452 1.391 . S
C1454 H1444 0.950 . S
C1454 C1455 1.386 . S
C1454 C1456 1.391 . S
C1455 C1454 1.386 . S
C1455 C1459 1.393 . S
C1456 H1445 0.950 . S
C1456 C1454 1.391 . S
C1456 C1457 1.400 . S
C1457 C1451 1.491 . S
C1457 C1456 1.400 . S
C1457 C1458 1.398 . S
C1458 H1446 0.950 . S
C1458 C1457 1.398 . S
C1458 C1459 1.391 . S
C1459 H1447 0.950 . S
C1459 C1455 1.393 . S
C1459 C1458 1.391 . S
H1460 C1468 0.950 . S
H1461 C1473 0.950 . S
H1462 C1470 0.950 . S
H1463 C1472 0.950 . S
H1464 C1474 0.950 . S
H1465 C1476 0.950 . S
H1466 C1478 0.950 . S
H1467 C1479 0.950 . S
C1468 H1460 0.950 . S
C1468 C1469 1.386 . S
C1468 C1470 1.391 . S
C1469 C1468 1.386 . S
C1469 C1473 1.393 . S
C1470 H1462 0.950 . S
C1470 C1468 1.391 . S
C1470 C1471 1.400 . S
C1471 C1470 1.400 . S
C1471 C1472 1.398 . S
C1471 C1477 1.491 . S
C1472 H1463 0.950 . S
C1472 C1471 1.398 . S
C1472 C1473 1.391 . S
C1473 H1461 0.950 . S
C1473 C1469 1.393 . S
C1473 C1472 1.391 . S
C1474 H1464 0.950 . S
C1474 C1475 1.386 . S
C1474 C1476 1.391 . S
C1475 C1474 1.386 . S
C1475 C1479 1.393 . S
C1476 H1465 0.950 . S
C1476 C1474 1.391 . S
C1476 C1477 1.400 . S
C1477 C1471 1.491 . S
C1477 C1476 1.400 . S
C1477 C1478 1.398 . S
C1478 H1466 0.950 . S
C1478 C1477 1.398 . S
C1478 C1479 1.391 . S
C1479 H1467 0.950 . S
C1479 C1475 1.393 . S
C1479 C1478 1.391 . S
H1480 C1488 0.950 . S
H1481 C1493 0.950 . S
H1482 C1490 0.950 . S
H1483 C1492 0.950 . S
H1484 C1494 0.950 . S
H1485 C1496 0.950 . S
H1486 C1498 0.950 . S
H1487 C1499 0.950 . S
C1488 H1480 0.950 . S
C1488 C1489 1.386 . S
C1488 C1490 1.391 . S
C1489 C1488 1.386 . S
C1489 C1493 1.393 . S
C1490 H1482 0.950 . S
C1490 C1488 1.391 . S
C1490 C1491 1.400 . S
C1491 C1490 1.400 . S
C1491 C1492 1.398 . S
C1491 C1497 1.491 . S
C1492 H1483 0.950 . S
C1492 C1491 1.398 . S
C1492 C1493 1.391 . S
C1493 H1481 0.950 . S
C1493 C1489 1.393 . S
C1493 C1492 1.391 . S
C1494 H1484 0.950 . S
C1494 C1495 1.386 . S
C1494 C1496 1.391 . S
C1495 C1494 1.386 . S
C1495 C1499 1.393 . S
C1496 H1485 0.950 . S
C1496 C1494 1.391 . S
C1496 C1497 1.400 . S
C1497 C1491 1.491 . S
C1497 C1496 1.400 . S
C1497 C1498 1.398 . S
C1498 H1486 0.950 . S
C1498 C1497 1.398 . S
C1498 C1499 1.391 . S
C1499 H1487 0.950 . S
C1499 C1495 1.393 . S
C1499 C1498 1.391 . S
H1500 C1508 0.950 . S
H1501 C1513 0.950 . S
H1502 C1510 0.950 . S
H1503 C1512 0.950 1_655 S
H1504 C1514 0.950 . S
H1505 C1516 0.950 . S
H1506 C1518 0.950 . S
H1507 C1519 0.950 . S
C1508 H1500 0.950 . S
C1508 C1509 1.386 . S
C1508 C1510 1.391 . S
C1509 C1508 1.386 . S
C1509 C1513 1.393 . S
C1510 H1502 0.950 . S
C1510 C1508 1.391 . S
C1510 C1511 1.400 1_455 S
C1511 C1510 1.400 1_655 S
C1511 C1512 1.398 1_655 S
C1511 C1517 1.491 . S
C1512 H1503 0.950 1_455 S
C1512 C1511 1.398 1_455 S
C1512 C1513 1.391 . S
C1513 H1501 0.950 . S
C1513 C1509 1.393 . S
C1513 C1512 1.391 . S
C1514 H1504 0.950 . S
C1514 C1515 1.386 . S
C1514 C1516 1.391 . S
C1515 C1514 1.386 . S
C1515 C1519 1.393 . S
C1516 H1505 0.950 . S
C1516 C1514 1.391 . S
C1516 C1517 1.400 . S
C1517 C1511 1.491 . S
C1517 C1516 1.400 . S
C1517 C1518 1.398 . S
C1518 H1506 0.950 . S
C1518 C1517 1.398 . S
C1518 C1519 1.391 . S
C1519 H1507 0.950 . S
C1519 C1515 1.393 . S
C1519 C1518 1.391 . S
H1520 C1528 0.950 . S
H1521 C1533 0.950 . S
H1522 C1530 0.950 . S
H1523 C1532 0.950 . S
H1524 C1534 0.950 . S
H1525 C1536 0.950 . S
H1526 C1538 0.950 . S
H1527 C1539 0.950 . S
C1528 H1520 0.950 . S
C1528 C1529 1.386 . S
C1528 C1530 1.391 . S
C1529 C1528 1.386 . S
C1529 C1533 1.393 . S
C1530 H1522 0.950 . S
C1530 C1528 1.391 . S
C1530 C1531 1.400 . S
C1531 C1530 1.400 . S
C1531 C1532 1.398 . S
C1531 C1537 1.491 . S
C1532 H1523 0.950 . S
C1532 C1531 1.398 . S
C1532 C1533 1.391 . S
C1533 H1521 0.950 . S
C1533 C1529 1.393 . S
C1533 C1532 1.391 . S
C1534 H1524 0.950 . S
C1534 C1535 1.386 . S
C1534 C1536 1.391 . S
C1535 C1534 1.386 . S
C1535 C1539 1.393 . S
C1536 H1525 0.950 . S
C1536 C1534 1.391 . S
C1536 C1537 1.400 . S
C1537 C1531 1.491 . S
C1537 C1536 1.400 . S
C1537 C1538 1.398 . S
C1538 H1526 0.950 . S
C1538 C1537 1.398 . S
C1538 C1539 1.391 . S
C1539 H1527 0.950 . S
C1539 C1535 1.393 . S
C1539 C1538 1.391 . S
H1540 C1548 0.950 . S
H1541 C1553 0.950 . S
H1542 C1550 0.950 . S
H1543 C1552 0.950 . S
H1544 C1554 0.950 . S
H1545 C1556 0.950 . S
H1546 C1558 0.950 . S
H1547 C1559 0.950 . S
C1548 H1540 0.950 . S
C1548 C1549 1.386 . S
C1548 C1550 1.391 . S
C1549 C1548 1.386 . S
C1549 C1553 1.393 . S
C1550 H1542 0.950 . S
C1550 C1548 1.391 . S
C1550 C1551 1.400 . S
C1551 C1550 1.400 . S
C1551 C1552 1.398 . S
C1551 C1557 1.491 . S
C1552 H1543 0.950 . S
C1552 C1551 1.398 . S
C1552 C1553 1.391 . S
C1553 H1541 0.950 . S
C1553 C1549 1.393 . S
C1553 C1552 1.391 . S
C1554 H1544 0.950 . S
C1554 C1555 1.386 . S
C1554 C1556 1.391 . S
C1555 C1554 1.386 . S
C1555 C1559 1.393 . S
C1556 H1545 0.950 . S
C1556 C1554 1.391 . S
C1556 C1557 1.400 1_455 S
C1557 C1551 1.491 . S
C1557 C1556 1.400 1_655 S
C1557 C1558 1.398 . S
C1558 H1546 0.950 . S
C1558 C1557 1.398 . S
C1558 C1559 1.391 1_655 S
C1559 H1547 0.950 . S
C1559 C1555 1.393 . S
C1559 C1558 1.391 1_455 S
H1560 C1568 0.950 . S
H1561 C1573 0.950 . S
H1562 C1570 0.950 . S
H1563 C1572 0.950 . S
H1564 C1574 0.950 . S
H1565 C1576 0.950 . S
H1566 C1578 0.950 . S
H1567 C1579 0.950 . S
C1568 H1560 0.950 . S
C1568 C1569 1.386 . S
C1568 C1570 1.391 . S
C1569 C1568 1.386 . S
C1569 C1573 1.393 . S
C1570 H1562 0.950 . S
C1570 C1568 1.391 . S
C1570 C1571 1.400 . S
C1571 C1570 1.400 . S
C1571 C1572 1.398 . S
C1571 C1577 1.491 . S
C1572 H1563 0.950 . S
C1572 C1571 1.398 . S
C1572 C1573 1.391 . S
C1573 H1561 0.950 . S
C1573 C1569 1.393 . S
C1573 C1572 1.391 . S
C1574 H1564 0.950 . S
C1574 C1575 1.386 . S
C1574 C1576 1.391 . S
C1575 C1574 1.386 . S
C1575 C1579 1.393 . S
C1576 H1565 0.950 . S
C1576 C1574 1.391 . S
C1576 C1577 1.400 . S
C1577 C1571 1.491 . S
C1577 C1576 1.400 . S
C1577 C1578 1.398 . S
C1578 H1566 0.950 . S
C1578 C1577 1.398 . S
C1578 C1579 1.391 . S
C1579 H1567 0.950 . S
C1579 C1575 1.393 . S
C1579 C1578 1.391 . S
H1580 C1588 0.950 . S
H1581 C1593 0.950 . S
H1582 C1590 0.950 . S
H1583 C1592 0.950 . S
H1584 C1594 0.950 . S
H1585 C1596 0.950 . S
H1586 C1598 0.950 . S
H1587 C1599 0.950 . S
C1588 H1580 0.950 . S
C1588 C1589 1.386 . S
C1588 C1590 1.391 . S
C1589 C1588 1.386 . S
C1589 C1593 1.393 . S
C1590 H1582 0.950 . S
C1590 C1588 1.391 . S
C1590 C1591 1.400 . S
C1591 C1590 1.400 . S
C1591 C1592 1.398 . S
C1591 C1597 1.491 . S
C1592 H1583 0.950 . S
C1592 C1591 1.398 . S
C1592 C1593 1.391 . S
C1593 H1581 0.950 . S
C1593 C1589 1.393 . S
C1593 C1592 1.391 . S
C1594 H1584 0.950 . S
C1594 C1595 1.386 . S
C1594 C1596 1.391 . S
C1595 C1594 1.386 . S
C1595 C1599 1.393 . S
C1596 H1585 0.950 . S
C1596 C1594 1.391 . S
C1596 C1597 1.400 . S
C1597 C1591 1.491 . S
C1597 C1596 1.400 . S
C1597 C1598 1.398 . S
C1598 H1586 0.950 . S
C1598 C1597 1.398 . S
C1598 C1599 1.391 . S
C1599 H1587 0.950 . S
C1599 C1595 1.393 . S
C1599 C1598 1.391 . S
H1600 C1608 0.950 . S
H1601 C1613 0.950 . S
H1602 C1610 0.950 . S
H1603 C1612 0.950 . S
H1604 C1614 0.950 . S
H1605 C1616 0.950 . S
H1606 C1618 0.950 . S
H1607 C1619 0.950 . S
C1608 H1600 0.950 . S
C1608 C1609 1.386 . S
C1608 C1610 1.391 . S
C1609 C1608 1.386 . S
C1609 C1613 1.393 . S
C1610 H1602 0.950 . S
C1610 C1608 1.391 . S
C1610 C1611 1.400 . S
C1611 C1610 1.400 . S
C1611 C1612 1.398 . S
C1611 C1617 1.491 1_455 S
C1612 H1603 0.950 . S
C1612 C1611 1.398 . S
C1612 C1613 1.391 . S
C1613 H1601 0.950 . S
C1613 C1609 1.393 . S
C1613 C1612 1.391 . S
C1614 H1604 0.950 . S
C1614 C1615 1.386 . S
C1614 C1616 1.391 . S
C1615 C1614 1.386 . S
C1615 C1619 1.393 . S
C1616 H1605 0.950 . S
C1616 C1614 1.391 . S
C1616 C1617 1.400 . S
C1617 C1611 1.491 1_655 S
C1617 C1616 1.400 . S
C1617 C1618 1.398 . S
C1618 H1606 0.950 . S
C1618 C1617 1.398 . S
C1618 C1619 1.391 . S
C1619 H1607 0.950 . S
C1619 C1615 1.393 . S
C1619 C1618 1.391 . S
H1620 C1628 0.950 . S
H1621 C1633 0.950 . S
H1622 C1630 0.950 1_455 S
H1623 C1632 0.950 . S
H1624 C1634 0.950 . S
H1625 C1636 0.950 1_655 S
H1626 C1638 0.950 . S
H1627 C1639 0.950 . S
C1628 H1620 0.950 . S
C1628 C1629 1.386 . S
C1628 C1630 1.391 . S
C1629 C1628 1.386 . S
C1629 C1633 1.393 . S
C1630 H1622 0.950 1_655 S
C1630 C1628 1.391 . S
C1630 C1631 1.400 . S
C1631 C1630 1.400 . S
C1631 C1632 1.398 . S
C1631 C1637 1.491 1_655 S
C1632 H1623 0.950 . S
C1632 C1631 1.398 . S
C1632 C1633 1.391 . S
C1633 H1621 0.950 . S
C1633 C1629 1.393 . S
C1633 C1632 1.391 . S
C1634 H1624 0.950 . S
C1634 C1635 1.386 . S
C1634 C1636 1.391 . S
C1635 C1634 1.386 . S
C1635 C1639 1.393 . S
C1636 H1625 0.950 1_455 S
C1636 C1634 1.391 . S
C1636 C1637 1.400 . S
C1637 C1631 1.491 1_455 S
C1637 C1636 1.400 . S
C1637 C1638 1.398 . S
C1638 H1626 0.950 . S
C1638 C1637 1.398 . S
C1638 C1639 1.391 . S
C1639 H1627 0.950 . S
C1639 C1635 1.393 . S
C1639 C1638 1.391 . S
H1640 C1648 0.950 . S
H1641 C1653 0.950 . S
H1642 C1650 0.950 . S
H1643 C1652 0.950 . S
H1644 C1654 0.950 . S
H1645 C1656 0.950 . S
H1646 C1658 0.950 . S
H1647 C1659 0.950 . S
C1648 H1640 0.950 . S
C1648 C1649 1.386 . S
C1648 C1650 1.391 . S
C1649 C1648 1.386 . S
C1649 C1653 1.393 . S
C1650 H1642 0.950 . S
C1650 C1648 1.391 . S
C1650 C1651 1.400 . S
C1651 C1650 1.400 . S
C1651 C1652 1.398 . S
C1651 C1657 1.491 . S
C1652 H1643 0.950 . S
C1652 C1651 1.398 . S
C1652 C1653 1.391 . S
C1653 H1641 0.950 . S
C1653 C1649 1.393 . S
C1653 C1652 1.391 . S
C1654 H1644 0.950 . S
C1654 C1655 1.386 . S
C1654 C1656 1.391 . S
C1655 C1654 1.386 . S
C1655 C1659 1.393 . S
C1656 H1645 0.950 . S
C1656 C1654 1.391 . S
C1656 C1657 1.400 . S
C1657 C1651 1.491 . S
C1657 C1656 1.400 . S
C1657 C1658 1.398 . S
C1658 H1646 0.950 . S
C1658 C1657 1.398 . S
C1658 C1659 1.391 . S
C1659 H1647 0.950 . S
C1659 C1655 1.393 . S
C1659 C1658 1.391 . S
H1660 C1668 0.950 . S
H1661 C1673 0.950 . S
H1662 C1670 0.950 . S
H1663 C1672 0.950 . S
H1664 C1674 0.950 . S
H1665 C1676 0.950 . S
H1666 C1678 0.950 . S
H1667 C1679 0.950 . S
C1668 H1660 0.950 . S
C1668 C1669 1.386 . S
C1668 C1670 1.391 . S
C1669 C1668 1.386 . S
C1669 C1673 1.393 . S
C1670 H1662 0.950 . S
C1670 C1668 1.391 . S
C1670 C1671 1.400 . S
C1671 C1670 1.400 . S
C1671 C1672 1.398 . S
C1671 C1677 1.491 . S
C1672 H1663 0.950 . S
C1672 C1671 1.398 . S
C1672 C1673 1.391 . S
C1673 H1661 0.950 . S
C1673 C1669 1.393 . S
C1673 C1672 1.391 . S
C1674 H1664 0.950 . S
C1674 C1675 1.386 . S
C1674 C1676 1.391 . S
C1675 C1674 1.386 . S
C1675 C1679 1.393 . S
C1676 H1665 0.950 . S
C1676 C1674 1.391 . S
C1676 C1677 1.400 . S
C1677 C1671 1.491 . S
C1677 C1676 1.400 . S
C1677 C1678 1.398 . S
C1678 H1666 0.950 . S
C1678 C1677 1.398 . S
C1678 C1679 1.391 . S
C1679 H1667 0.950 . S
C1679 C1675 1.393 . S
C1679 C1678 1.391 . S
H1680 C1688 0.950 . S
H1681 C1693 0.950 . S
H1682 C1690 0.950 1_455 S
H1683 C1692 0.950 . S
H1684 C1694 0.950 . S
H1685 C1696 0.950 1_655 S
H1686 C1698 0.950 . S
H1687 C1699 0.950 . S
C1688 H1680 0.950 . S
C1688 C1689 1.386 . S
C1688 C1690 1.391 . S
C1689 C1688 1.386 . S
C1689 C1693 1.393 . S
C1690 H1682 0.950 1_655 S
C1690 C1688 1.391 . S
C1690 C1691 1.400 . S
C1691 C1690 1.400 . S
C1691 C1692 1.398 . S
C1691 C1697 1.491 1_655 S
C1692 H1683 0.950 . S
C1692 C1691 1.398 . S
C1692 C1693 1.391 . S
C1693 H1681 0.950 . S
C1693 C1689 1.393 . S
C1693 C1692 1.391 . S
C1694 H1684 0.950 . S
C1694 C1695 1.386 . S
C1694 C1696 1.391 . S
C1695 C1694 1.386 . S
C1695 C1699 1.393 . S
C1696 H1685 0.950 1_455 S
C1696 C1694 1.391 . S
C1696 C1697 1.400 . S
C1697 C1691 1.491 1_455 S
C1697 C1696 1.400 . S
C1697 C1698 1.398 . S
C1698 H1686 0.950 . S
C1698 C1697 1.398 . S
C1698 C1699 1.391 . S
C1699 H1687 0.950 . S
C1699 C1695 1.393 . S
C1699 C1698 1.391 . S
H1700 C1708 0.950 . S
H1701 C1713 0.950 . S
H1702 C1710 0.950 . S
H1703 C1712 0.950 . S
H1704 C1714 0.950 . S
H1705 C1716 0.950 . S
H1706 C1718 0.950 . S
H1707 C1719 0.950 . S
C1708 H1700 0.950 . S
C1708 C1709 1.386 . S
C1708 C1710 1.391 . S
C1709 C1708 1.386 . S
C1709 C1713 1.393 . S
C1710 H1702 0.950 . S
C1710 C1708 1.391 . S
C1710 C1711 1.400 . S
C1711 C1710 1.400 . S
C1711 C1712 1.398 . S
C1711 C1717 1.491 . S
C1712 H1703 0.950 . S
C1712 C1711 1.398 . S
C1712 C1713 1.391 . S
C1713 H1701 0.950 . S
C1713 C1709 1.393 . S
C1713 C1712 1.391 . S
C1714 H1704 0.950 . S
C1714 C1715 1.386 . S
C1714 C1716 1.391 . S
C1715 C1714 1.386 . S
C1715 C1719 1.393 . S
C1716 H1705 0.950 . S
C1716 C1714 1.391 . S
C1716 C1717 1.400 . S
C1717 C1711 1.491 . S
C1717 C1716 1.400 . S
C1717 C1718 1.398 . S
C1718 H1706 0.950 . S
C1718 C1717 1.398 . S
C1718 C1719 1.391 . S
C1719 H1707 0.950 . S
C1719 C1715 1.393 . S
C1719 C1718 1.391 . S
H1720 C1728 0.950 . S
H1721 C1733 0.950 . S
H1722 C1730 0.950 . S
H1723 C1732 0.950 . S
H1724 C1734 0.950 . S
H1725 C1736 0.950 . S
H1726 C1738 0.950 . S
H1727 C1739 0.950 . S
C1728 H1720 0.950 . S
C1728 C1729 1.386 . S
C1728 C1730 1.391 . S
C1729 C1728 1.386 . S
C1729 C1733 1.393 . S
C1730 H1722 0.950 . S
C1730 C1728 1.391 . S
C1730 C1731 1.400 . S
C1731 C1730 1.400 . S
C1731 C1732 1.398 . S
C1731 C1737 1.491 . S
C1732 H1723 0.950 . S
C1732 C1731 1.398 . S
C1732 C1733 1.391 . S
C1733 H1721 0.950 . S
C1733 C1729 1.393 . S
C1733 C1732 1.391 . S
C1734 H1724 0.950 . S
C1734 C1735 1.386 . S
C1734 C1736 1.391 . S
C1735 C1734 1.386 . S
C1735 C1739 1.393 . S
C1736 H1725 0.950 . S
C1736 C1734 1.391 . S
C1736 C1737 1.400 . S
C1737 C1731 1.491 . S
C1737 C1736 1.400 . S
C1737 C1738 1.398 . S
C1738 H1726 0.950 . S
C1738 C1737 1.398 . S
C1738 C1739 1.391 . S
C1739 H1727 0.950 . S
C1739 C1735 1.393 . S
C1739 C1738 1.391 . S
H1740 C1748 0.950 . S
H1741 C1753 0.950 . S
H1742 C1750 0.950 . S
H1743 C1752 0.950 . S
H1744 C1754 0.950 . S
H1745 C1756 0.950 . S
H1746 C1758 0.950 . S
H1747 C1759 0.950 . S
C1748 H1740 0.950 . S
C1748 C1749 1.386 . S
C1748 C1750 1.391 . S
C1749 C1748 1.386 . S
C1749 C1753 1.393 . S
C1750 H1742 0.950 . S
C1750 C1748 1.391 . S
C1750 C1751 1.400 . S
C1751 C1750 1.400 . S
C1751 C1752 1.398 . S
C1751 C1757 1.491 1_455 S
C1752 H1743 0.950 . S
C1752 C1751 1.398 . S
C1752 C1753 1.391 . S
C1753 H1741 0.950 . S
C1753 C1749 1.393 . S
C1753 C1752 1.391 . S
C1754 H1744 0.950 . S
C1754 C1755 1.386 . S
C1754 C1756 1.391 . S
C1755 C1754 1.386 . S
C1755 C1759 1.393 . S
C1756 H1745 0.950 . S
C1756 C1754 1.391 . S
C1756 C1757 1.400 . S
C1757 C1751 1.491 1_655 S
C1757 C1756 1.400 . S
C1757 C1758 1.398 . S
C1758 H1746 0.950 . S
C1758 C1757 1.398 . S
C1758 C1759 1.391 . S
C1759 H1747 0.950 . S
C1759 C1755 1.393 . S
C1759 C1758 1.391 . S
H1760 C1768 0.950 . S
H1761 C1773 0.950 . S
H1762 C1770 0.950 1_655 S
H1763 C1772 0.950 . S
H1764 C1774 0.950 . S
H1765 C1776 0.950 1_455 S
H1766 C1778 0.950 . S
H1767 C1779 0.950 . S
C1768 H1760 0.950 . S
C1768 C1769 1.386 . S
C1768 C1770 1.391 . S
C1769 C1768 1.386 . S
C1769 C1773 1.393 . S
C1770 H1762 0.950 1_455 S
C1770 C1768 1.391 . S
C1770 C1771 1.400 . S
C1771 C1770 1.400 . S
C1771 C1772 1.398 . S
C1771 C1777 1.491 1_455 S
C1772 H1763 0.950 . S
C1772 C1771 1.398 . S
C1772 C1773 1.391 . S
C1773 H1761 0.950 . S
C1773 C1769 1.393 . S
C1773 C1772 1.391 . S
C1774 H1764 0.950 . S
C1774 C1775 1.386 . S
C1774 C1776 1.391 . S
C1775 C1774 1.386 . S
C1775 C1779 1.393 . S
C1776 H1765 0.950 1_655 S
C1776 C1774 1.391 . S
C1776 C1777 1.400 . S
C1777 C1771 1.491 1_655 S
C1777 C1776 1.400 . S
C1777 C1778 1.398 . S
C1778 H1766 0.950 . S
C1778 C1777 1.398 . S
C1778 C1779 1.391 . S
C1779 H1767 0.950 . S
C1779 C1775 1.393 . S
C1779 C1778 1.391 . S
H1780 C1788 0.950 . S
H1781 C1793 0.950 . S
H1782 C1790 0.950 1_455 S
H1783 C1792 0.950 . S
H1784 C1794 0.950 . S
H1785 C1796 0.950 1_655 S
H1786 C1798 0.950 . S
H1787 C1799 0.950 . S
C1788 H1780 0.950 . S
C1788 C1789 1.386 . S
C1788 C1790 1.391 . S
C1789 C1788 1.386 . S
C1789 C1793 1.393 . S
C1790 H1782 0.950 1_655 S
C1790 C1788 1.391 . S
C1790 C1791 1.400 . S
C1791 C1790 1.400 . S
C1791 C1792 1.398 . S
C1791 C1797 1.491 1_655 S
C1792 H1783 0.950 . S
C1792 C1791 1.398 . S
C1792 C1793 1.391 . S
C1793 H1781 0.950 . S
C1793 C1789 1.393 . S
C1793 C1792 1.391 . S
C1794 H1784 0.950 . S
C1794 C1795 1.386 . S
C1794 C1796 1.391 . S
C1795 C1794 1.386 . S
C1795 C1799 1.393 . S
C1796 H1785 0.950 1_455 S
C1796 C1794 1.391 . S
C1796 C1797 1.400 . S
C1797 C1791 1.491 1_455 S
C1797 C1796 1.400 . S
C1797 C1798 1.398 . S
C1798 H1786 0.950 . S
C1798 C1797 1.398 . S
C1798 C1799 1.391 . S
C1799 H1787 0.950 . S
C1799 C1795 1.393 . S
C1799 C1798 1.391 . S
H1800 C1808 0.950 . S
H1801 C1813 0.950 . S
H1802 C1810 0.950 . S
H1803 C1812 0.950 . S
H1804 C1814 0.950 . S
H1805 C1816 0.950 . S
H1806 C1818 0.950 . S
H1807 C1819 0.950 . S
C1808 H1800 0.950 . S
C1808 C1809 1.386 . S
C1808 C1810 1.391 . S
C1809 C1808 1.386 . S
C1809 C1813 1.393 . S
C1810 H1802 0.950 . S
C1810 C1808 1.391 . S
C1810 C1811 1.400 . S
C1811 C1810 1.400 . S
C1811 C1812 1.398 . S
C1811 C1817 1.491 . S
C1812 H1803 0.950 . S
C1812 C1811 1.398 . S
C1812 C1813 1.391 . S
C1813 H1801 0.950 . S
C1813 C1809 1.393 . S
C1813 C1812 1.391 . S
C1814 H1804 0.950 . S
C1814 C1815 1.386 . S
C1814 C1816 1.391 . S
C1815 C1814 1.386 . S
C1815 C1819 1.393 . S
C1816 H1805 0.950 . S
C1816 C1814 1.391 . S
C1816 C1817 1.400 . S
C1817 C1811 1.491 . S
C1817 C1816 1.400 . S
C1817 C1818 1.398 . S
C1818 H1806 0.950 . S
C1818 C1817 1.398 . S
C1818 C1819 1.391 . S
C1819 H1807 0.950 . S
C1819 C1815 1.393 . S
C1819 C1818 1.391 . S
H1820 C1828 0.950 . S
H1821 C1833 0.950 . S
H1822 C1830 0.950 . S
H1823 C1832 0.950 . S
H1824 C1834 0.950 . S
H1825 C1836 0.950 . S
H1826 C1838 0.950 . S
H1827 C1839 0.950 . S
C1828 H1820 0.950 . S
C1828 C1829 1.386 . S
C1828 C1830 1.391 . S
C1829 C1828 1.386 . S
C1829 C1833 1.393 . S
C1830 H1822 0.950 . S
C1830 C1828 1.391 . S
C1830 C1831 1.400 . S
C1831 C1830 1.400 . S
C1831 C1832 1.398 . S
C1831 C1837 1.491 . S
C1832 H1823 0.950 . S
C1832 C1831 1.398 . S
C1832 C1833 1.391 . S
C1833 H1821 0.950 . S
C1833 C1829 1.393 . S
C1833 C1832 1.391 . S
C1834 H1824 0.950 . S
C1834 C1835 1.386 . S
C1834 C1836 1.391 . S
C1835 C1834 1.386 . S
C1835 C1839 1.393 . S
C1836 H1825 0.950 . S
C1836 C1834 1.391 . S
C1836 C1837 1.400 . S
C1837 C1831 1.491 . S
C1837 C1836 1.400 . S
C1837 C1838 1.398 . S
C1838 H1826 0.950 . S
C1838 C1837 1.398 . S
C1838 C1839 1.391 . S
C1839 H1827 0.950 . S
C1839 C1835 1.393 . S
C1839 C1838 1.391 . S
H1840 C1848 0.950 . S
H1841 C1853 0.950 . S
H1842 C1850 0.950 1_655 S
H1843 C1852 0.950 . S
H1844 C1854 0.950 . S
H1845 C1856 0.950 1_455 S
H1846 C1858 0.950 . S
H1847 C1859 0.950 . S
C1848 H1840 0.950 . S
C1848 C1849 1.386 . S
C1848 C1850 1.391 . S
C1849 C1848 1.386 . S
C1849 C1853 1.393 . S
C1850 H1842 0.950 1_455 S
C1850 C1848 1.391 . S
C1850 C1851 1.400 . S
C1851 C1850 1.400 . S
C1851 C1852 1.398 . S
C1851 C1857 1.491 1_455 S
C1852 H1843 0.950 . S
C1852 C1851 1.398 . S
C1852 C1853 1.391 . S
C1853 H1841 0.950 . S
C1853 C1849 1.393 . S
C1853 C1852 1.391 . S
C1854 H1844 0.950 . S
C1854 C1855 1.386 . S
C1854 C1856 1.391 . S
C1855 C1854 1.386 . S
C1855 C1859 1.393 . S
C1856 H1845 0.950 1_655 S
C1856 C1854 1.391 . S
C1856 C1857 1.400 . S
C1857 C1851 1.491 1_655 S
C1857 C1856 1.400 . S
C1857 C1858 1.398 . S
C1858 H1846 0.950 . S
C1858 C1857 1.398 . S
C1858 C1859 1.391 . S
C1859 H1847 0.950 . S
C1859 C1855 1.393 . S
C1859 C1858 1.391 . S
H1860 C1868 0.950 . S
H1861 C1873 0.950 . S
H1862 C1870 0.950 . S
H1863 C1872 0.950 . S
H1864 C1874 0.950 . S
H1865 C1876 0.950 . S
H1866 C1878 0.950 . S
H1867 C1879 0.950 . S
C1868 H1860 0.950 . S
C1868 C1869 1.386 . S
C1868 C1870 1.391 . S
C1869 C1868 1.386 . S
C1869 C1873 1.393 . S
C1870 H1862 0.950 . S
C1870 C1868 1.391 . S
C1870 C1871 1.400 . S
C1871 C1870 1.400 . S
C1871 C1872 1.398 . S
C1871 C1877 1.491 . S
C1872 H1863 0.950 . S
C1872 C1871 1.398 . S
C1872 C1873 1.391 . S
C1873 H1861 0.950 . S
C1873 C1869 1.393 . S
C1873 C1872 1.391 . S
C1874 H1864 0.950 . S
C1874 C1875 1.386 . S
C1874 C1876 1.391 . S
C1875 C1874 1.386 . S
C1875 C1879 1.393 . S
C1876 H1865 0.950 . S
C1876 C1874 1.391 . S
C1876 C1877 1.400 . S
C1877 C1871 1.491 . S
C1877 C1876 1.400 . S
C1877 C1878 1.398 . S
C1878 H1866 0.950 . S
C1878 C1877 1.398 . S
C1878 C1879 1.391 . S
C1879 H1867 0.950 . S
C1879 C1875 1.393 . S
C1879 C1878 1.391 . S
H1880 C1888 0.950 . S
H1881 C1893 0.950 . S
H1882 C1890 0.950 . S
H1883 C1892 0.950 . S
H1884 C1894 0.950 . S
H1885 C1896 0.950 . S
H1886 C1898 0.950 . S
H1887 C1899 0.950 . S
C1888 H1880 0.950 . S
C1888 C1889 1.386 . S
C1888 C1890 1.391 . S
C1889 C1888 1.386 . S
C1889 C1893 1.393 . S
C1890 H1882 0.950 . S
C1890 C1888 1.391 . S
C1890 C1891 1.400 . S
C1891 C1890 1.400 . S
C1891 C1892 1.398 . S
C1891 C1897 1.491 . S
C1892 H1883 0.950 . S
C1892 C1891 1.398 . S
C1892 C1893 1.391 . S
C1893 H1881 0.950 . S
C1893 C1889 1.393 . S
C1893 C1892 1.391 . S
C1894 H1884 0.950 . S
C1894 C1895 1.386 . S
C1894 C1896 1.391 . S
C1895 C1894 1.386 . S
C1895 C1899 1.393 . S
C1896 H1885 0.950 . S
C1896 C1894 1.391 . S
C1896 C1897 1.400 . S
C1897 C1891 1.491 . S
C1897 C1896 1.400 . S
C1897 C1898 1.398 . S
C1898 H1886 0.950 . S
C1898 C1897 1.398 . S
C1898 C1899 1.391 . S
C1899 H1887 0.950 . S
C1899 C1895 1.393 . S
C1899 C1898 1.391 . S
H1900 C1908 0.950 . S
H1901 C1913 0.950 . S
H1902 C1910 0.928 1_455 S
H1903 C1912 0.950 . S
H1904 C1914 0.950 . S
H1905 C1916 0.934 1_655 S
H1906 C1918 0.950 . S
H1907 C1919 0.950 . S
C1908 H1900 0.950 . S
C1908 C1909 1.386 . S
C1908 C1910 1.391 . S
C1909 C1908 1.386 . S
C1909 C1913 1.393 . S
C1910 H1902 0.928 1_655 S
C1910 C1908 1.391 . S
C1910 C1911 1.400 . S
C1911 C1910 1.400 . S
C1911 C1912 1.398 . S
C1911 C1917 1.491 1_655 S
C1912 H1903 0.950 . S
C1912 C1911 1.398 . S
C1912 C1913 1.391 . S
C1913 H1901 0.950 . S
C1913 C1909 1.393 . S
C1913 C1912 1.391 . S
C1914 H1904 0.950 . S
C1914 C1915 1.386 . S
C1914 C1916 1.391 . S
C1915 C1914 1.386 . S
C1915 C1919 1.393 . S
C1916 H1905 0.934 1_455 S
C1916 C1914 1.391 . S
C1916 C1917 1.400 . S
C1917 C1911 1.491 1_455 S
C1917 C1916 1.400 . S
C1917 C1918 1.398 . S
C1918 H1906 0.950 . S
C1918 C1917 1.398 . S
C1918 C1919 1.391 . S
C1919 H1907 0.950 . S
C1919 C1915 1.393 . S
C1919 C1918 1.391 . S
H1920 C1928 0.950 . S
H1921 C1933 0.950 . S
H1922 C1930 0.950 . S
H1923 C1932 0.950 . S
H1924 C1934 0.950 . S
H1925 C1936 0.950 . S
H1926 C1938 0.950 . S
H1927 C1939 0.950 . S
C1928 H1920 0.950 . S
C1928 C1929 1.386 . S
C1928 C1930 1.391 . S
C1929 C1928 1.386 . S
C1929 C1933 1.393 . S
C1930 H1922 0.950 . S
C1930 C1928 1.391 . S
C1930 C1931 1.400 . S
C1931 C1930 1.400 . S
C1931 C1932 1.398 . S
C1931 C1937 1.491 . S
C1932 H1923 0.950 . S
C1932 C1931 1.398 . S
C1932 C1933 1.391 . S
C1933 H1921 0.950 . S
C1933 C1929 1.393 . S
C1933 C1932 1.391 . S
C1934 H1924 0.950 . S
C1934 C1935 1.386 . S
C1934 C1936 1.391 . S
C1935 C1934 1.386 . S
C1935 C1939 1.393 . S
C1936 H1925 0.950 . S
C1936 C1934 1.391 . S
C1936 C1937 1.400 . S
C1937 C1931 1.491 . S
C1937 C1936 1.400 . S
C1937 C1938 1.398 . S
C1938 H1926 0.950 . S
C1938 C1937 1.398 . S
C1938 C1939 1.391 . S
C1939 H1927 0.950 . S
C1939 C1935 1.393 . S
C1939 C1938 1.391 . S
H1940 C1948 0.950 1_565 S
H1941 C1953 0.950 . S
H1942 C1950 0.950 . S
H1943 C1952 0.950 1_455 S
H1944 C1954 0.950 1_545 S
H1945 C1956 0.950 . S
H1946 C1958 0.950 1_655 S
H1947 C1959 0.950 . S
C1948 H1940 0.950 1_545 S
C1948 C1949 1.386 . S
C1948 C1950 1.391 1_545 S
C1949 C1948 1.386 . S
C1949 C1953 1.393 . S
C1950 H1942 0.950 . S
C1950 C1948 1.391 1_565 S
C1950 C1951 1.400 1_565 S
C1951 C1950 1.400 1_545 S
C1951 C1952 1.398 . S
C1951 C1957 1.491 1_645 S
C1952 H1943 0.950 1_655 S
C1952 C1951 1.398 . S
C1952 C1953 1.391 . S
C1953 H1941 0.950 . S
C1953 C1949 1.393 . S
C1953 C1952 1.391 . S
C1954 H1944 0.950 1_565 S
C1954 C1955 1.386 . S
C1954 C1956 1.391 1_565 S
C1955 C1954 1.386 . S
C1955 C1959 1.393 . S
C1956 H1945 0.950 . S
C1956 C1954 1.391 1_545 S
C1956 C1957 1.400 1_545 S
C1957 C1951 1.491 1_465 S
C1957 C1956 1.400 1_565 S
C1957 C1958 1.398 . S
C1958 H1946 0.950 1_455 S
C1958 C1957 1.398 . S
C1958 C1959 1.391 . S
C1959 H1947 0.950 . S
C1959 C1955 1.393 . S
C1959 C1958 1.391 . S
H1960 C1968 0.950 . S
H1961 C1973 0.950 . S
H1962 C1970 0.950 . S
H1963 C1972 0.950 . S
H1964 C1974 0.950 . S
H1965 C1976 0.950 . S
H1966 C1978 0.950 . S
H1967 C1979 0.950 . S
C1968 H1960 0.950 . S
C1968 C1969 1.386 . S
C1968 C1970 1.391 . S
C1969 C1968 1.386 . S
C1969 C1973 1.393 . S
C1970 H1962 0.950 . S
C1970 C1968 1.391 . S
C1970 C1971 1.400 . S
C1971 C1970 1.400 . S
C1971 C1972 1.398 . S
C1971 C1977 1.491 . S
C1972 H1963 0.950 . S
C1972 C1971 1.398 . S
C1972 C1973 1.391 . S
C1973 H1961 0.950 . S
C1973 C1969 1.393 . S
C1973 C1972 1.391 . S
C1974 H1964 0.950 . S
C1974 C1975 1.386 . S
C1974 C1976 1.391 . S
C1975 C1974 1.386 . S
C1975 C1979 1.393 . S
C1976 H1965 0.950 . S
C1976 C1974 1.391 . S
C1976 C1977 1.400 . S
C1977 C1971 1.491 . S
C1977 C1976 1.400 . S
C1977 C1978 1.398 . S
C1978 H1966 0.950 . S
C1978 C1977 1.398 . S
C1978 C1979 1.391 . S
C1979 H1967 0.950 . S
C1979 C1975 1.393 . S
C1979 C1978 1.391 . S
H1980 C1988 0.950 . S
H1981 C1993 0.950 . S
H1982 C1990 0.909 1_566 S
H1983 C1992 0.950 . S
H1984 C1994 0.950 . S
H1985 C1996 0.909 1_544 S
H1986 C1998 0.950 . S
H1987 C1999 0.950 . S
C1988 H1980 0.950 . S
C1988 C1989 1.386 . S
C1988 C1990 1.419 . S
C1989 C1988 1.386 . S
C1989 C1993 1.393 . S
C1990 H1982 0.909 1_544 S
C1990 C1988 1.419 . S
C1990 C1991 1.414 . S
C1991 C1990 1.414 . S
C1991 C1992 1.398 . S
C1991 C1997 1.491 1_544 S
C1992 H1983 0.950 . S
C1992 C1991 1.398 . S
C1992 C1993 1.391 . S
C1993 H1981 0.950 . S
C1993 C1989 1.393 . S
C1993 C1992 1.391 . S
C1994 H1984 0.950 . S
C1994 C1995 1.386 . S
C1994 C1996 1.419 . S
C1995 C1994 1.386 . S
C1995 C1999 1.393 . S
C1996 H1985 0.909 1_566 S
C1996 C1994 1.419 . S
C1996 C1997 1.414 . S
C1997 C1991 1.491 1_566 S
C1997 C1996 1.414 . S
C1997 C1998 1.398 . S
C1998 H1986 0.950 . S
C1998 C1997 1.398 . S
C1998 C1999 1.391 . S
C1999 H1987 0.950 . S
C1999 C1995 1.393 . S
C1999 C1998 1.391 . S
H2000 C2008 0.950 . S
H2001 C2013 0.950 . S
H2002 C2010 0.950 . S
H2003 C2012 0.950 . S
H2004 C2014 0.950 . S
H2005 C2016 0.950 . S
H2006 C2018 0.950 . S
H2007 C2019 0.950 . S
C2008 H2000 0.950 . S
C2008 C2009 1.386 . S
C2008 C2010 1.391 . S
C2009 C2008 1.386 . S
C2009 C2013 1.393 . S
C2010 H2002 0.950 . S
C2010 C2008 1.391 . S
C2010 C2011 1.400 . S
C2011 C2010 1.400 . S
C2011 C2012 1.398 . S
C2011 C2017 1.491 . S
C2012 H2003 0.950 . S
C2012 C2011 1.398 . S
C2012 C2013 1.391 . S
C2013 H2001 0.950 . S
C2013 C2009 1.393 . S
C2013 C2012 1.391 . S
C2014 H2004 0.950 . S
C2014 C2015 1.386 . S
C2014 C2016 1.391 . S
C2015 C2014 1.386 . S
C2015 C2019 1.393 . S
C2016 H2005 0.950 . S
C2016 C2014 1.391 . S
C2016 C2017 1.400 . S
C2017 C2011 1.491 . S
C2017 C2016 1.400 . S
C2017 C2018 1.398 . S
C2018 H2006 0.950 . S
C2018 C2017 1.398 . S
C2018 C2019 1.391 . S
C2019 H2007 0.950 . S
C2019 C2015 1.393 . S
C2019 C2018 1.391 . S
H2020 C2028 0.950 . S
H2021 C2033 0.950 . S
H2022 C2030 0.950 . S
H2023 C2032 0.943 1_565 S
H2024 C2034 0.950 . S
H2025 C2036 0.950 . S
H2026 C2038 0.943 1_545 S
H2027 C2039 0.950 . S
C2028 H2020 0.950 . S
C2028 C2029 1.386 . S
C2028 C2030 1.391 . S
C2029 C2028 1.386 . S
C2029 C2033 1.393 . S
C2030 H2022 0.950 . S
C2030 C2028 1.391 . S
C2030 C2031 1.400 . S
C2031 C2030 1.400 . S
C2031 C2032 1.401 . S
C2031 C2037 1.491 1_545 S
C2032 H2023 0.943 1_545 S
C2032 C2031 1.401 . S
C2032 C2033 1.395 . S
C2033 H2021 0.950 . S
C2033 C2029 1.393 . S
C2033 C2032 1.395 . S
C2034 H2024 0.950 . S
C2034 C2035 1.386 . S
C2034 C2036 1.391 . S
C2035 C2034 1.386 . S
C2035 C2039 1.393 . S
C2036 H2025 0.950 . S
C2036 C2034 1.391 . S
C2036 C2037 1.400 . S
C2037 C2031 1.491 1_565 S
C2037 C2036 1.400 . S
C2037 C2038 1.401 . S
C2038 H2026 0.943 1_565 S
C2038 C2037 1.401 . S
C2038 C2039 1.395 . S
C2039 H2027 0.950 . S
C2039 C2035 1.393 . S
C2039 C2038 1.395 . S
H2040 C2048 0.950 . S
H2041 C2053 0.950 . S
H2042 C2050 0.950 . S
H2043 C2052 0.950 . S
H2044 C2054 0.950 . S
H2045 C2056 0.950 . S
H2046 C2058 0.950 . S
H2047 C2059 0.950 . S
C2048 H2040 0.950 . S
C2048 C2049 1.386 . S
C2048 C2050 1.391 . S
C2049 C2048 1.386 . S
C2049 C2053 1.393 . S
C2050 H2042 0.950 . S
C2050 C2048 1.391 . S
C2050 C2051 1.400 . S
C2051 C2050 1.400 . S
C2051 C2052 1.398 . S
C2051 C2057 1.491 . S
C2052 H2043 0.950 . S
C2052 C2051 1.398 . S
C2052 C2053 1.391 . S
C2053 H2041 0.950 . S
C2053 C2049 1.393 . S
C2053 C2052 1.391 . S
C2054 H2044 0.950 . S
C2054 C2055 1.386 . S
C2054 C2056 1.391 . S
C2055 C2054 1.386 . S
C2055 C2059 1.393 . S
C2056 H2045 0.950 . S
C2056 C2054 1.391 . S
C2056 C2057 1.400 . S
C2057 C2051 1.491 . S
C2057 C2056 1.400 . S
C2057 C2058 1.398 . S
C2058 H2046 0.950 . S
C2058 C2057 1.398 . S
C2058 C2059 1.391 . S
C2059 H2047 0.950 . S
C2059 C2055 1.393 . S
C2059 C2058 1.391 . S
H2060 C2068 0.950 . S
H2061 C2073 0.950 . S
H2062 C2070 0.950 . S
H2063 C2072 0.950 1_655 S
H2064 C2074 0.950 . S
H2065 C2076 0.950 . S
H2066 C2078 0.950 1_455 S
H2067 C2079 0.950 . S
C2068 H2060 0.950 . S
C2068 C2069 1.386 1_565 S
C2068 C2070 1.391 . S
C2069 C2068 1.386 1_545 S
C2069 C2073 1.393 . S
C2070 H2062 0.950 . S
C2070 C2068 1.391 . S
C2070 C2071 1.400 1_565 S
C2071 C2070 1.400 1_545 S
C2071 C2072 1.398 . S
C2071 C2077 1.491 1_446 S
C2072 H2063 0.950 1_455 S
C2072 C2071 1.398 . S
C2072 C2073 1.391 . S
C2073 H2061 0.950 . S
C2073 C2069 1.393 . S
C2073 C2072 1.391 . S
C2074 H2064 0.950 . S
C2074 C2075 1.386 1_545 S
C2074 C2076 1.391 . S
C2075 C2074 1.386 1_565 S
C2075 C2079 1.393 . S
C2076 H2065 0.950 . S
C2076 C2074 1.391 . S
C2076 C2077 1.400 1_545 S
C2077 C2071 1.491 1_664 S
C2077 C2076 1.400 1_565 S
C2077 C2078 1.398 . S
C2078 H2066 0.950 1_655 S
C2078 C2077 1.398 . S
C2078 C2079 1.391 . S
C2079 H2067 0.950 . S
C2079 C2075 1.393 . S
C2079 C2078 1.391 . S
H2080 C2088 0.950 . S
H2081 C2093 0.950 . S
H2082 C2090 0.950 . S
H2083 C2092 0.950 . S
H2084 C2094 0.950 . S
H2085 C2096 0.950 . S
H2086 C2098 0.950 . S
H2087 C2099 0.950 . S
C2088 H2080 0.950 . S
C2088 C2089 1.386 . S
C2088 C2090 1.391 . S
C2089 C2088 1.386 . S
C2089 C2093 1.393 . S
C2090 H2082 0.950 . S
C2090 C2088 1.391 . S
C2090 C2091 1.400 . S
C2091 C2090 1.400 . S
C2091 C2092 1.398 . S
C2091 C2097 1.491 . S
C2092 H2083 0.950 . S
C2092 C2091 1.398 . S
C2092 C2093 1.391 . S
C2093 H2081 0.950 . S
C2093 C2089 1.393 . S
C2093 C2092 1.391 . S
C2094 H2084 0.950 . S
C2094 C2095 1.386 . S
C2094 C2096 1.391 . S
C2095 C2094 1.386 . S
C2095 C2099 1.393 . S
C2096 H2085 0.950 . S
C2096 C2094 1.391 . S
C2096 C2097 1.400 . S
C2097 C2091 1.491 . S
C2097 C2096 1.400 . S
C2097 C2098 1.398 . S
C2098 H2086 0.950 . S
C2098 C2097 1.398 . S
C2098 C2099 1.391 . S
C2099 H2087 0.950 . S
C2099 C2095 1.393 . S
C2099 C2098 1.391 . S
H2100 C2108 0.950 . S
H2101 C2113 0.950 . S
H2102 C2110 0.950 . S
H2103 C2112 0.950 . S
H2104 C2114 0.950 . S
H2105 C2116 0.950 . S
H2106 C2118 0.950 . S
H2107 C2119 0.950 . S
C2108 H2100 0.950 . S
C2108 C2109 1.386 . S
C2108 C2110 1.391 . S
C2109 C2108 1.386 . S
C2109 C2113 1.393 . S
C2110 H2102 0.950 . S
C2110 C2108 1.391 . S
C2110 C2111 1.400 . S
C2111 C2110 1.400 . S
C2111 C2112 1.398 . S
C2111 C2117 1.491 . S
C2112 H2103 0.950 . S
C2112 C2111 1.398 . S
C2112 C2113 1.391 . S
C2113 H2101 0.950 . S
C2113 C2109 1.393 . S
C2113 C2112 1.391 . S
C2114 H2104 0.950 . S
C2114 C2115 1.386 . S
C2114 C2116 1.391 . S
C2115 C2114 1.386 . S
C2115 C2119 1.393 . S
C2116 H2105 0.950 . S
C2116 C2114 1.391 . S
C2116 C2117 1.400 . S
C2117 C2111 1.491 . S
C2117 C2116 1.400 . S
C2117 C2118 1.398 . S
C2118 H2106 0.950 . S
C2118 C2117 1.398 . S
C2118 C2119 1.391 . S
C2119 H2107 0.950 . S
C2119 C2115 1.393 . S
C2119 C2118 1.391 . S
H2120 C2128 0.950 . S
H2121 C2133 0.950 . S
H2122 C2130 0.950 . S
H2123 C2132 0.950 . S
H2124 C2134 0.950 . S
H2125 C2136 0.950 . S
H2126 C2138 0.950 . S
H2127 C2139 0.950 . S
C2128 H2120 0.950 . S
C2128 C2129 1.386 . S
C2128 C2130 1.391 . S
C2129 C2128 1.386 . S
C2129 C2133 1.393 . S
C2130 H2122 0.950 . S
C2130 C2128 1.391 . S
C2130 C2131 1.400 . S
C2131 C2130 1.400 . S
C2131 C2132 1.398 . S
C2131 C2137 1.491 . S
C2132 H2123 0.950 . S
C2132 C2131 1.398 . S
C2132 C2133 1.391 . S
C2133 H2121 0.950 . S
C2133 C2129 1.393 . S
C2133 C2132 1.391 . S
C2134 H2124 0.950 . S
C2134 C2135 1.386 . S
C2134 C2136 1.391 . S
C2135 C2134 1.386 . S
C2135 C2139 1.393 . S
C2136 H2125 0.950 . S
C2136 C2134 1.391 . S
C2136 C2137 1.400 . S
C2137 C2131 1.491 . S
C2137 C2136 1.400 . S
C2137 C2138 1.398 . S
C2138 H2126 0.950 . S
C2138 C2137 1.398 . S
C2138 C2139 1.391 . S
C2139 H2127 0.950 . S
C2139 C2135 1.393 . S
C2139 C2138 1.391 . S
H2140 C2148 0.950 . S
H2141 C2153 0.950 . S
H2142 C2150 0.950 . S
H2143 C2152 0.950 . S
H2144 C2154 0.950 . S
H2145 C2156 0.950 . S
H2146 C2158 0.950 . S
H2147 C2159 0.950 . S
C2148 H2140 0.950 . S
C2148 C2149 1.386 . S
C2148 C2150 1.391 . S
C2149 C2148 1.386 . S
C2149 C2153 1.393 . S
C2150 H2142 0.950 . S
C2150 C2148 1.391 . S
C2150 C2151 1.400 . S
C2151 C2150 1.400 . S
C2151 C2152 1.398 . S
C2151 C2157 1.491 . S
C2152 H2143 0.950 . S
C2152 C2151 1.398 . S
C2152 C2153 1.391 . S
C2153 H2141 0.950 . S
C2153 C2149 1.393 . S
C2153 C2152 1.391 . S
C2154 H2144 0.950 . S
C2154 C2155 1.386 . S
C2154 C2156 1.391 . S
C2155 C2154 1.386 . S
C2155 C2159 1.393 . S
C2156 H2145 0.950 . S
C2156 C2154 1.391 . S
C2156 C2157 1.400 . S
C2157 C2151 1.491 . S
C2157 C2156 1.400 . S
C2157 C2158 1.398 . S
C2158 H2146 0.950 . S
C2158 C2157 1.398 . S
C2158 C2159 1.391 . S
C2159 H2147 0.950 . S
C2159 C2155 1.393 . S
C2159 C2158 1.391 . S
H2160 C2168 0.950 . S
H2161 C2173 0.950 . S
H2162 C2170 0.950 . S
H2163 C2172 0.950 1_556 S
H2164 C2174 0.950 . S
H2165 C2176 0.950 . S
H2166 C2178 0.950 1_554 S
H2167 C2179 0.950 . S
C2168 H2160 0.950 . S
C2168 C2169 1.386 . S
C2168 C2170 1.391 . S
C2169 C2168 1.386 . S
C2169 C2173 1.393 . S
C2170 H2162 0.950 . S
C2170 C2168 1.391 . S
C2170 C2171 1.400 . S
C2171 C2170 1.400 . S
C2171 C2172 1.398 . S
C2171 C2177 1.491 1_554 S
C2172 H2163 0.950 1_554 S
C2172 C2171 1.398 . S
C2172 C2173 1.391 . S
C2173 H2161 0.950 . S
C2173 C2169 1.393 . S
C2173 C2172 1.391 . S
C2174 H2164 0.950 . S
C2174 C2175 1.386 . S
C2174 C2176 1.391 . S
C2175 C2174 1.386 . S
C2175 C2179 1.393 . S
C2176 H2165 0.950 . S
C2176 C2174 1.391 . S
C2176 C2177 1.400 . S
C2177 C2171 1.491 1_556 S
C2177 C2176 1.400 . S
C2177 C2178 1.398 . S
C2178 H2166 0.950 1_556 S
C2178 C2177 1.398 . S
C2178 C2179 1.391 . S
C2179 H2167 0.950 . S
C2179 C2175 1.393 . S
C2179 C2178 1.391 . S
H2180 C2188 0.950 . S
H2181 C2193 0.950 . S
H2182 C2190 0.950 . S
H2183 C2192 0.950 1_455 S
H2184 C2194 0.950 . S
H2185 C2196 0.950 . S
H2186 C2198 0.950 1_655 S
H2187 C2199 0.950 . S
C2188 H2180 0.950 . S
C2188 C2189 1.386 . S
C2188 C2190 1.391 . S
C2189 C2188 1.386 . S
C2189 C2193 1.393 . S
C2190 H2182 0.950 . S
C2190 C2188 1.391 . S
C2190 C2191 1.400 . S
C2191 C2190 1.400 . S
C2191 C2192 1.398 . S
C2191 C2197 1.491 1_655 S
C2192 H2183 0.950 1_655 S
C2192 C2191 1.398 . S
C2192 C2193 1.391 . S
C2193 H2181 0.950 . S
C2193 C2189 1.393 . S
C2193 C2192 1.391 . S
C2194 H2184 0.950 . S
C2194 C2195 1.386 . S
C2194 C2196 1.391 . S
C2195 C2194 1.386 . S
C2195 C2199 1.393 . S
C2196 H2185 0.950 . S
C2196 C2194 1.391 . S
C2196 C2197 1.400 . S
C2197 C2191 1.491 1_455 S
C2197 C2196 1.400 . S
C2197 C2198 1.398 . S
C2198 H2186 0.950 1_455 S
C2198 C2197 1.398 . S
C2198 C2199 1.391 . S
C2199 H2187 0.950 . S
C2199 C2195 1.393 . S
C2199 C2198 1.391 . S
H2200 C2208 0.950 . S
H2201 C2213 0.950 . S
H2202 C2210 0.950 . S
H2203 C2212 0.950 . S
H2204 C2214 0.950 . S
H2205 C2216 0.950 . S
H2206 C2218 0.950 . S
H2207 C2219 0.950 . S
C2208 H2200 0.950 . S
C2208 C2209 1.386 . S
C2208 C2210 1.391 . S
C2209 C2208 1.386 . S
C2209 C2213 1.393 . S
C2210 H2202 0.950 . S
C2210 C2208 1.391 . S
C2210 C2211 1.400 . S
C2211 C2210 1.400 . S
C2211 C2212 1.398 . S
C2211 C2217 1.491 1_454 S
C2212 H2203 0.950 . S
C2212 C2211 1.398 . S
C2212 C2213 1.391 . S
C2213 H2201 0.950 . S
C2213 C2209 1.393 . S
C2213 C2212 1.391 . S
C2214 H2204 0.950 . S
C2214 C2215 1.386 . S
C2214 C2216 1.391 . S
C2215 C2214 1.386 . S
C2215 C2219 1.393 . S
C2216 H2205 0.950 . S
C2216 C2214 1.391 . S
C2216 C2217 1.400 . S
C2217 C2211 1.491 1_656 S
C2217 C2216 1.400 . S
C2217 C2218 1.398 . S
C2218 H2206 0.950 . S
C2218 C2217 1.398 . S
C2218 C2219 1.391 . S
C2219 H2207 0.950 . S
C2219 C2215 1.393 . S
C2219 C2218 1.391 . S
H2220 C2228 0.950 . S
H2221 C2233 0.950 . S
H2222 C2230 0.950 . S
H2223 C2232 0.950 . S
H2224 C2234 0.950 . S
H2225 C2236 0.950 . S
H2226 C2238 0.950 . S
H2227 C2239 0.950 . S
C2228 H2220 0.950 . S
C2228 C2229 1.386 . S
C2228 C2230 1.391 . S
C2229 C2228 1.386 . S
C2229 C2233 1.393 . S
C2230 H2222 0.950 . S
C2230 C2228 1.391 . S
C2230 C2231 1.400 . S
C2231 C2230 1.400 . S
C2231 C2232 1.398 . S
C2231 C2237 1.491 . S
C2232 H2223 0.950 . S
C2232 C2231 1.398 . S
C2232 C2233 1.391 . S
C2233 H2221 0.950 . S
C2233 C2229 1.393 . S
C2233 C2232 1.391 . S
C2234 H2224 0.950 . S
C2234 C2235 1.386 . S
C2234 C2236 1.391 . S
C2235 C2234 1.386 . S
C2235 C2239 1.393 . S
C2236 H2225 0.950 . S
C2236 C2234 1.391 . S
C2236 C2237 1.400 . S
C2237 C2231 1.491 . S
C2237 C2236 1.400 . S
C2237 C2238 1.398 . S
C2238 H2226 0.950 . S
C2238 C2237 1.398 . S
C2238 C2239 1.391 . S
C2239 H2227 0.950 . S
C2239 C2235 1.393 . S
C2239 C2238 1.391 . S
H2240 C2248 0.950 . S
H2241 C2253 0.950 . S
H2242 C2250 0.950 . S
H2243 C2252 0.950 . S
H2244 C2254 0.950 . S
H2245 C2256 0.950 . S
H2246 C2258 0.950 . S
H2247 C2259 0.950 1_565 S
C2248 H2240 0.950 . S
C2248 C2249 1.386 . S
C2248 C2250 1.391 . S
C2249 C2248 1.386 . S
C2249 C2253 1.393 . S
C2250 H2242 0.950 . S
C2250 C2248 1.391 . S
C2250 C2251 1.400 . S
C2251 C2250 1.400 . S
C2251 C2252 1.398 . S
C2251 C2257 1.491 . S
C2252 H2243 0.950 . S
C2252 C2251 1.398 . S
C2252 C2253 1.391 . S
C2253 H2241 0.950 . S
C2253 C2249 1.393 . S
C2253 C2252 1.391 . S
C2254 H2244 0.950 . S
C2254 C2255 1.386 1_545 S
C2254 C2256 1.391 . S
C2255 C2254 1.386 1_565 S
C2255 C2259 1.393 1_565 S
C2256 H2245 0.950 . S
C2256 C2254 1.391 . S
C2256 C2257 1.400 . S
C2257 C2251 1.491 . S
C2257 C2256 1.400 . S
C2257 C2258 1.398 . S
C2258 H2246 0.950 . S
C2258 C2257 1.398 . S
C2258 C2259 1.391 . S
C2259 H2247 0.950 1_545 S
C2259 C2255 1.393 1_545 S
C2259 C2258 1.391 . S
H2260 C2268 0.950 1_565 S
H2261 C2273 0.950 . S
H2262 C2270 0.950 . S
H2263 C2272 0.950 . S
H2264 C2274 0.950 1_545 S
H2265 C2276 0.950 . S
H2266 C2278 0.950 . S
H2267 C2279 0.950 . S
C2268 H2260 0.950 1_545 S
C2268 C2269 1.386 . S
C2268 C2270 1.391 1_545 S
C2269 C2268 1.386 . S
C2269 C2273 1.393 . S
C2270 H2262 0.950 . S
C2270 C2268 1.391 1_565 S
C2270 C2271 1.400 1_565 S
C2271 C2270 1.400 1_545 S
C2271 C2272 1.398 . S
C2271 C2277 1.491 1_545 S
C2272 H2263 0.950 . S
C2272 C2271 1.398 . S
C2272 C2273 1.391 . S
C2273 H2261 0.950 . S
C2273 C2269 1.393 . S
C2273 C2272 1.391 . S
C2274 H2264 0.950 1_565 S
C2274 C2275 1.386 . S
C2274 C2276 1.391 1_565 S
C2275 C2274 1.386 . S
C2275 C2279 1.393 . S
C2276 H2265 0.950 . S
C2276 C2274 1.391 1_545 S
C2276 C2277 1.400 1_545 S
C2277 C2271 1.491 1_565 S
C2277 C2276 1.400 1_565 S
C2277 C2278 1.398 . S
C2278 H2266 0.950 . S
C2278 C2277 1.398 . S
C2278 C2279 1.391 . S
C2279 H2267 0.950 . S
C2279 C2275 1.393 . S
C2279 C2278 1.391 . S
H2280 C2288 0.950 . S
H2281 C2293 0.950 1_565 S
H2282 C2290 0.950 . S
H2283 C2292 0.950 . S
H2284 C2294 0.950 . S
H2285 C2296 0.950 . S
H2286 C2298 0.950 . S
H2287 C2299 0.950 1_545 S
C2288 H2280 0.950 . S
C2288 C2289 1.386 . S
C2288 C2290 1.391 . S
C2289 C2288 1.386 . S
C2289 C2293 1.393 . S
C2290 H2282 0.950 . S
C2290 C2288 1.391 . S
C2290 C2291 1.400 . S
C2291 C2290 1.400 . S
C2291 C2292 1.398 1_545 S
C2291 C2297 1.491 1_545 S
C2292 H2283 0.950 . S
C2292 C2291 1.398 1_565 S
C2292 C2293 1.391 1_565 S
C2293 H2281 0.950 1_545 S
C2293 C2289 1.393 . S
C2293 C2292 1.391 1_545 S
C2294 H2284 0.950 . S
C2294 C2295 1.386 . S
C2294 C2296 1.391 . S
C2295 C2294 1.386 . S
C2295 C2299 1.393 . S
C2296 H2285 0.950 . S
C2296 C2294 1.391 . S
C2296 C2297 1.400 . S
C2297 C2291 1.491 1_565 S
C2297 C2296 1.400 . S
C2297 C2298 1.398 1_565 S
C2298 H2286 0.950 . S
C2298 C2297 1.398 1_545 S
C2298 C2299 1.391 1_545 S
C2299 H2287 0.950 1_565 S
C2299 C2295 1.393 . S
C2299 C2298 1.391 1_565 S
H2300 C2308 0.950 . S
H2301 C2313 0.950 . S
H2302 C2310 0.950 . S
H2303 C2312 0.950 1_545 S
H2304 C2314 0.950 . S
H2305 C2316 0.950 . S
H2306 C2318 0.950 . S
H2307 C2319 0.950 . S
C2308 H2300 0.950 . S
C2308 C2309 1.386 . S
C2308 C2310 1.391 . S
C2309 C2308 1.386 . S
C2309 C2313 1.393 . S
C2310 H2302 0.950 . S
C2310 C2308 1.391 . S
C2310 C2311 1.400 . S
C2311 C2310 1.400 . S
C2311 C2312 1.398 . S
C2311 C2317 1.491 . S
C2312 H2303 0.950 1_565 S
C2312 C2311 1.398 . S
C2312 C2313 1.391 . S
C2313 H2301 0.950 . S
C2313 C2309 1.393 . S
C2313 C2312 1.391 . S
C2314 H2304 0.950 . S
C2314 C2315 1.386 . S
C2314 C2316 1.391 . S
C2315 C2314 1.386 . S
C2315 C2319 1.393 1_545 S
C2316 H2305 0.950 . S
C2316 C2314 1.391 . S
C2316 C2317 1.400 1_545 S
C2317 C2311 1.491 . S
C2317 C2316 1.400 1_565 S
C2317 C2318 1.398 . S
C2318 H2306 0.950 . S
C2318 C2317 1.398 . S
C2318 C2319 1.391 . S
C2319 H2307 0.950 . S
C2319 C2315 1.393 1_565 S
C2319 C2318 1.391 . S
H2320 C2328 0.950 . S
H2321 C2333 0.950 . S
H2322 C2330 0.950 . S
H2323 C2332 0.950 . S
H2324 C2334 0.950 . S
H2325 C2336 0.950 . S
H2326 C2338 0.950 . S
H2327 C2339 0.950 . S
C2328 H2320 0.950 . S
C2328 C2329 1.386 . S
C2328 C2330 1.391 . S
C2329 C2328 1.386 . S
C2329 C2333 1.393 . S
C2330 H2322 0.950 . S
C2330 C2328 1.391 . S
C2330 C2331 1.400 . S
C2331 C2330 1.400 . S
C2331 C2332 1.398 . S
C2331 C2337 1.491 . S
C2332 H2323 0.950 . S
C2332 C2331 1.398 . S
C2332 C2333 1.391 . S
C2333 H2321 0.950 . S
C2333 C2329 1.393 . S
C2333 C2332 1.391 . S
C2334 H2324 0.950 . S
C2334 C2335 1.386 . S
C2334 C2336 1.391 . S
C2335 C2334 1.386 . S
C2335 C2339 1.393 1_545 S
C2336 H2325 0.950 . S
C2336 C2334 1.391 . S
C2336 C2337 1.400 1_545 S
C2337 C2331 1.491 . S
C2337 C2336 1.400 1_565 S
C2337 C2338 1.398 . S
C2338 H2326 0.950 . S
C2338 C2337 1.398 . S
C2338 C2339 1.391 . S
C2339 H2327 0.950 . S
C2339 C2335 1.393 1_565 S
C2339 C2338 1.391 . S
H2340 C2348 0.950 . S
H2341 C2353 0.950 . S
H2342 C2350 0.940 1_565 S
H2343 C2352 0.950 . S
H2344 C2354 0.950 . S
H2345 C2356 0.959 . S
H2346 C2358 0.950 . S
H2347 C2359 0.950 . S
C2348 H2340 0.950 . S
C2348 C2349 1.386 . S
C2348 C2350 1.391 . S
C2349 C2348 1.386 . S
C2349 C2353 1.393 . S
C2350 H2342 0.940 1_545 S
C2350 C2348 1.391 . S
C2350 C2351 1.400 . S
C2351 C2350 1.400 . S
C2351 C2352 1.398 . S
C2351 C2357 1.491 1_545 S
C2352 H2343 0.950 . S
C2352 C2351 1.398 . S
C2352 C2353 1.391 . S
C2353 H2341 0.950 . S
C2353 C2349 1.393 . S
C2353 C2352 1.391 . S
C2354 H2344 0.950 . S
C2354 C2355 1.386 . S
C2354 C2356 1.391 . S
C2355 C2354 1.386 . S
C2355 C2359 1.393 . S
C2356 H2345 0.959 . S
C2356 C2354 1.391 . S
C2356 C2357 1.400 . S
C2357 C2351 1.491 1_565 S
C2357 C2356 1.400 . S
C2357 C2358 1.398 . S
C2358 H2346 0.950 . S
C2358 C2357 1.398 . S
C2358 C2359 1.391 . S
C2359 H2347 0.950 . S
C2359 C2355 1.393 . S
C2359 C2358 1.391 . S
H2360 C2368 0.950 . S
H2361 C2373 0.950 . S
H2362 C2370 0.950 . S
H2363 C2372 0.950 . S
H2364 C2374 0.950 . S
H2365 C2376 0.950 . S
H2366 C2378 0.950 . S
H2367 C2379 0.950 . S
C2368 H2360 0.950 . S
C2368 C2369 1.386 . S
C2368 C2370 1.391 . S
C2369 C2368 1.386 . S
C2369 C2373 1.393 . S
C2370 H2362 0.950 . S
C2370 C2368 1.391 . S
C2370 C2371 1.400 . S
C2371 C2370 1.400 . S
C2371 C2372 1.398 . S
C2371 C2377 1.491 1_565 S
C2372 H2363 0.950 . S
C2372 C2371 1.398 . S
C2372 C2373 1.391 . S
C2373 H2361 0.950 . S
C2373 C2369 1.393 . S
C2373 C2372 1.391 . S
C2374 H2364 0.950 . S
C2374 C2375 1.386 . S
C2374 C2376 1.391 . S
C2375 C2374 1.386 . S
C2375 C2379 1.393 . S
C2376 H2365 0.950 . S
C2376 C2374 1.391 . S
C2376 C2377 1.400 . S
C2377 C2371 1.491 1_545 S
C2377 C2376 1.400 . S
C2377 C2378 1.398 . S
C2378 H2366 0.950 . S
C2378 C2377 1.398 . S
C2378 C2379 1.391 . S
C2379 H2367 0.950 . S
C2379 C2375 1.393 . S
C2379 C2378 1.391 . S
H2380 C2388 0.950 . S
H2381 C2393 0.950 . S
H2382 C2390 0.950 1_565 S
H2383 C2392 0.950 . S
H2384 C2394 0.950 . S
H2385 C2396 0.950 . S
H2386 C2398 0.950 . S
H2387 C2399 0.950 . S
C2388 H2380 0.950 . S
C2388 C2389 1.386 . S
C2388 C2390 1.391 1_565 S
C2389 C2388 1.386 . S
C2389 C2393 1.393 1_565 S
C2390 H2382 0.950 1_545 S
C2390 C2388 1.391 1_545 S
C2390 C2391 1.400 . S
C2391 C2390 1.400 . S
C2391 C2392 1.398 . S
C2391 C2397 1.491 . S
C2392 H2383 0.950 . S
C2392 C2391 1.398 . S
C2392 C2393 1.391 . S
C2393 H2381 0.950 . S
C2393 C2389 1.393 1_545 S
C2393 C2392 1.391 . S
C2394 H2384 0.950 . S
C2394 C2395 1.386 . S
C2394 C2396 1.391 . S
C2395 C2394 1.386 . S
C2395 C2399 1.393 . S
C2396 H2385 0.950 . S
C2396 C2394 1.391 . S
C2396 C2397 1.400 . S
C2397 C2391 1.491 . S
C2397 C2396 1.400 . S
C2397 C2398 1.398 . S
C2398 H2386 0.950 . S
C2398 C2397 1.398 . S
C2398 C2399 1.391 . S
C2399 H2387 0.950 . S
C2399 C2395 1.393 . S
C2399 C2398 1.391 . S
H2400 C2408 0.950 . S
H2401 C2413 0.950 . S
H2402 C2410 0.950 . S
H2403 C2412 0.950 . S
H2404 C2414 0.950 . S
H2405 C2416 0.950 . S
H2406 C2418 0.950 . S
H2407 C2419 0.950 . S
C2408 H2400 0.950 . S
C2408 C2409 1.386 . S
C2408 C2410 1.391 . S
C2409 C2408 1.386 . S
C2409 C2413 1.393 . S
C2410 H2402 0.950 . S
C2410 C2408 1.391 . S
C2410 C2411 1.400 . S
C2411 C2410 1.400 . S
C2411 C2412 1.398 . S
C2411 C2417 1.491 . S
C2412 H2403 0.950 . S
C2412 C2411 1.398 . S
C2412 C2413 1.391 . S
C2413 H2401 0.950 . S
C2413 C2409 1.393 . S
C2413 C2412 1.391 . S
C2414 H2404 0.950 . S
C2414 C2415 1.386 . S
C2414 C2416 1.391 . S
C2415 C2414 1.386 . S
C2415 C2419 1.393 . S
C2416 H2405 0.950 . S
C2416 C2414 1.391 . S
C2416 C2417 1.400 . S
C2417 C2411 1.491 . S
C2417 C2416 1.400 . S
C2417 C2418 1.398 . S
C2418 H2406 0.950 . S
C2418 C2417 1.398 . S
C2418 C2419 1.391 . S
C2419 H2407 0.950 . S
C2419 C2415 1.393 . S
C2419 C2418 1.391 . S
H2420 C2428 0.950 . S
H2421 C2433 0.950 . S
H2422 C2430 0.950 . S
H2423 C2432 0.950 . S
H2424 C2434 0.950 . S
H2425 C2436 0.950 . S
H2426 C2438 0.950 . S
H2427 C2439 0.950 . S
C2428 H2420 0.950 . S
C2428 C2429 1.386 . S
C2428 C2430 1.391 . S
C2429 C2428 1.386 . S
C2429 C2433 1.393 . S
C2430 H2422 0.950 . S
C2430 C2428 1.391 . S
C2430 C2431 1.400 . S
C2431 C2430 1.400 . S
C2431 C2432 1.398 . S
C2431 C2437 1.491 . S
C2432 H2423 0.950 . S
C2432 C2431 1.398 . S
C2432 C2433 1.391 . S
C2433 H2421 0.950 . S
C2433 C2429 1.393 . S
C2433 C2432 1.391 . S
C2434 H2424 0.950 . S
C2434 C2435 1.386 . S
C2434 C2436 1.391 . S
C2435 C2434 1.386 . S
C2435 C2439 1.393 . S
C2436 H2425 0.950 . S
C2436 C2434 1.391 . S
C2436 C2437 1.400 . S
C2437 C2431 1.491 . S
C2437 C2436 1.400 . S
C2437 C2438 1.398 . S
C2438 H2426 0.950 . S
C2438 C2437 1.398 . S
C2438 C2439 1.391 . S
C2439 H2427 0.950 . S
C2439 C2435 1.393 . S
C2439 C2438 1.391 . S
H2440 C2448 0.950 . S
H2441 C2453 0.950 . S
H2442 C2450 0.950 . S
H2443 C2452 0.950 . S
H2444 C2454 0.950 . S
H2445 C2456 0.950 . S
H2446 C2458 0.950 . S
H2447 C2459 0.950 . S
C2448 H2440 0.950 . S
C2448 C2449 1.386 . S
C2448 C2450 1.391 . S
C2449 C2448 1.386 . S
C2449 C2453 1.393 . S
C2450 H2442 0.950 . S
C2450 C2448 1.391 . S
C2450 C2451 1.400 . S
C2451 C2450 1.400 . S
C2451 C2452 1.398 . S
C2451 C2457 1.491 . S
C2452 H2443 0.950 . S
C2452 C2451 1.398 . S
C2452 C2453 1.391 . S
C2453 H2441 0.950 . S
C2453 C2449 1.393 . S
C2453 C2452 1.391 . S
C2454 H2444 0.950 . S
C2454 C2455 1.386 . S
C2454 C2456 1.391 . S
C2455 C2454 1.386 . S
C2455 C2459 1.393 . S
C2456 H2445 0.950 . S
C2456 C2454 1.391 . S
C2456 C2457 1.400 . S
C2457 C2451 1.491 . S
C2457 C2456 1.400 . S
C2457 C2458 1.398 . S
C2458 H2446 0.950 . S
C2458 C2457 1.398 . S
C2458 C2459 1.391 . S
C2459 H2447 0.950 . S
C2459 C2455 1.393 . S
C2459 C2458 1.391 . S
H2460 C2468 0.950 . S
H2461 C2473 0.950 . S
H2462 C2470 0.950 . S
H2463 C2472 0.950 . S
H2464 C2474 0.950 . S
H2465 C2476 0.950 . S
H2466 C2478 0.950 . S
H2467 C2479 0.950 . S
C2468 H2460 0.950 . S
C2468 C2469 1.386 . S
C2468 C2470 1.391 . S
C2469 C2468 1.386 . S
C2469 C2473 1.393 . S
C2470 H2462 0.950 . S
C2470 C2468 1.391 . S
C2470 C2471 1.400 . S
C2471 C2470 1.400 . S
C2471 C2472 1.398 . S
C2471 C2477 1.491 . S
C2472 H2463 0.950 . S
C2472 C2471 1.398 . S
C2472 C2473 1.391 . S
C2473 H2461 0.950 . S
C2473 C2469 1.393 . S
C2473 C2472 1.391 . S
C2474 H2464 0.950 . S
C2474 C2475 1.386 . S
C2474 C2476 1.391 . S
C2475 C2474 1.386 . S
C2475 C2479 1.393 . S
C2476 H2465 0.950 . S
C2476 C2474 1.391 . S
C2476 C2477 1.400 . S
C2477 C2471 1.491 . S
C2477 C2476 1.400 . S
C2477 C2478 1.398 . S
C2478 H2466 0.950 . S
C2478 C2477 1.398 . S
C2478 C2479 1.391 . S
C2479 H2467 0.950 . S
C2479 C2475 1.393 . S
C2479 C2478 1.391 . S
H2480 C2488 0.950 . S
H2481 C2493 0.950 . S
H2482 C2490 0.950 . S
H2483 C2492 0.950 . S
H2484 C2494 0.950 . S
H2485 C2496 0.950 . S
H2486 C2498 0.950 . S
H2487 C2499 0.950 . S
C2488 H2480 0.950 . S
C2488 C2489 1.386 . S
C2488 C2490 1.391 . S
C2489 C2488 1.386 . S
C2489 C2493 1.393 . S
C2490 H2482 0.950 . S
C2490 C2488 1.391 . S
C2490 C2491 1.400 . S
C2491 C2490 1.400 . S
C2491 C2492 1.398 . S
C2491 C2497 1.491 . S
C2492 H2483 0.950 . S
C2492 C2491 1.398 . S
C2492 C2493 1.391 . S
C2493 H2481 0.950 . S
C2493 C2489 1.393 . S
C2493 C2492 1.391 . S
C2494 H2484 0.950 . S
C2494 C2495 1.386 . S
C2494 C2496 1.391 . S
C2495 C2494 1.386 . S
C2495 C2499 1.393 . S
C2496 H2485 0.950 . S
C2496 C2494 1.391 . S
C2496 C2497 1.400 . S
C2497 C2491 1.491 . S
C2497 C2496 1.400 . S
C2497 C2498 1.398 . S
C2498 H2486 0.950 . S
C2498 C2497 1.398 . S
C2498 C2499 1.391 . S
C2499 H2487 0.950 . S
C2499 C2495 1.393 . S
C2499 C2498 1.391 . S
H2500 C2508 0.950 . S
H2501 C2513 0.950 . S
H2502 C2510 0.950 . S
H2503 C2512 0.950 . S
H2504 C2514 0.950 . S
H2505 C2516 0.950 . S
H2506 C2518 0.950 . S
H2507 C2519 0.950 . S
C2508 H2500 0.950 . S
C2508 C2509 1.386 . S
C2508 C2510 1.391 . S
C2509 C2508 1.386 . S
C2509 C2513 1.393 . S
C2510 H2502 0.950 . S
C2510 C2508 1.391 . S
C2510 C2511 1.400 . S
C2511 C2510 1.400 . S
C2511 C2512 1.398 . S
C2511 C2517 1.491 . S
C2512 H2503 0.950 . S
C2512 C2511 1.398 . S
C2512 C2513 1.391 . S
C2513 H2501 0.950 . S
C2513 C2509 1.393 . S
C2513 C2512 1.391 . S
C2514 H2504 0.950 . S
C2514 C2515 1.386 . S
C2514 C2516 1.391 . S
C2515 C2514 1.386 . S
C2515 C2519 1.393 . S
C2516 H2505 0.950 . S
C2516 C2514 1.391 . S
C2516 C2517 1.400 . S
C2517 C2511 1.491 . S
C2517 C2516 1.400 . S
C2517 C2518 1.398 . S
C2518 H2506 0.950 . S
C2518 C2517 1.398 . S
C2518 C2519 1.391 . S
C2519 H2507 0.950 . S
C2519 C2515 1.393 . S
C2519 C2518 1.391 . S
H2520 C2528 0.950 . S
H2521 C2533 0.950 . S
H2522 C2530 0.950 . S
H2523 C2532 0.950 . S
H2524 C2534 0.950 . S
H2525 C2536 0.950 . S
H2526 C2538 0.950 . S
H2527 C2539 0.950 . S
C2528 H2520 0.950 . S
C2528 C2529 1.386 . S
C2528 C2530 1.391 . S
C2529 C2528 1.386 . S
C2529 C2533 1.393 . S
C2530 H2522 0.950 . S
C2530 C2528 1.391 . S
C2530 C2531 1.400 . S
C2531 C2530 1.400 . S
C2531 C2532 1.398 . S
C2531 C2537 1.491 . S
C2532 H2523 0.950 . S
C2532 C2531 1.398 . S
C2532 C2533 1.391 . S
C2533 H2521 0.950 . S
C2533 C2529 1.393 . S
C2533 C2532 1.391 . S
C2534 H2524 0.950 . S
C2534 C2535 1.386 . S
C2534 C2536 1.391 . S
C2535 C2534 1.386 . S
C2535 C2539 1.393 . S
C2536 H2525 0.950 . S
C2536 C2534 1.391 . S
C2536 C2537 1.400 . S
C2537 C2531 1.491 . S
C2537 C2536 1.400 . S
C2537 C2538 1.398 . S
C2538 H2526 0.950 . S
C2538 C2537 1.398 . S
C2538 C2539 1.391 . S
C2539 H2527 0.950 . S
C2539 C2535 1.393 . S
C2539 C2538 1.391 . S
H2540 C2548 0.950 . S
H2541 C2553 0.950 . S
H2542 C2550 0.950 . S
H2543 C2552 0.950 . S
H2544 C2554 0.950 . S
H2545 C2556 0.950 . S
H2546 C2558 0.950 . S
H2547 C2559 0.950 . S
C2548 H2540 0.950 . S
C2548 C2549 1.386 . S
C2548 C2550 1.391 . S
C2549 C2548 1.386 . S
C2549 C2553 1.393 . S
C2550 H2542 0.950 . S
C2550 C2548 1.391 . S
C2550 C2551 1.400 . S
C2551 C2550 1.400 . S
C2551 C2552 1.398 . S
C2551 C2557 1.491 . S
C2552 H2543 0.950 . S
C2552 C2551 1.398 . S
C2552 C2553 1.391 . S
C2553 H2541 0.950 . S
C2553 C2549 1.393 . S
C2553 C2552 1.391 . S
C2554 H2544 0.950 . S
C2554 C2555 1.386 . S
C2554 C2556 1.391 . S
C2555 C2554 1.386 . S
C2555 C2559 1.393 . S
C2556 H2545 0.950 . S
C2556 C2554 1.391 . S
C2556 C2557 1.400 . S
C2557 C2551 1.491 . S
C2557 C2556 1.400 . S
C2557 C2558 1.398 . S
C2558 H2546 0.950 . S
C2558 C2557 1.398 . S
C2558 C2559 1.391 . S
C2559 H2547 0.950 . S
C2559 C2555 1.393 . S
C2559 C2558 1.391 . S
H2560 C2568 0.950 . S
H2561 C2573 0.950 . S
H2562 C2570 0.950 1_565 S
H2563 C2572 0.950 . S
H2564 C2574 0.950 . S
H2565 C2576 0.950 1_545 S
H2566 C2578 0.950 . S
H2567 C2579 0.950 . S
C2568 H2560 0.950 . S
C2568 C2569 1.386 . S
C2568 C2570 1.391 . S
C2569 C2568 1.386 . S
C2569 C2573 1.393 . S
C2570 H2562 0.950 1_545 S
C2570 C2568 1.391 . S
C2570 C2571 1.400 . S
C2571 C2570 1.400 . S
C2571 C2572 1.398 . S
C2571 C2577 1.491 1_545 S
C2572 H2563 0.950 . S
C2572 C2571 1.398 . S
C2572 C2573 1.391 . S
C2573 H2561 0.950 . S
C2573 C2569 1.393 . S
C2573 C2572 1.391 . S
C2574 H2564 0.950 . S
C2574 C2575 1.386 . S
C2574 C2576 1.391 . S
C2575 C2574 1.386 . S
C2575 C2579 1.393 . S
C2576 H2565 0.950 1_565 S
C2576 C2574 1.391 . S
C2576 C2577 1.400 . S
C2577 C2571 1.491 1_565 S
C2577 C2576 1.400 . S
C2577 C2578 1.398 . S
C2578 H2566 0.950 . S
C2578 C2577 1.398 . S
C2578 C2579 1.391 . S
C2579 H2567 0.950 . S
C2579 C2575 1.393 . S
C2579 C2578 1.391 . S
H2580 C2588 0.950 . S
H2581 C2593 0.950 . S
H2582 C2590 0.950 . S
H2583 C2592 0.950 . S
H2584 C2594 0.950 . S
H2585 C2596 0.950 . S
H2586 C2598 0.950 . S
H2587 C2599 0.950 . S
C2588 H2580 0.950 . S
C2588 C2589 1.386 . S
C2588 C2590 1.391 . S
C2589 C2588 1.386 . S
C2589 C2593 1.393 . S
C2590 H2582 0.950 . S
C2590 C2588 1.391 . S
C2590 C2591 1.400 . S
C2591 C2590 1.400 . S
C2591 C2592 1.398 . S
C2591 C2597 1.491 . S
C2592 H2583 0.950 . S
C2592 C2591 1.398 . S
C2592 C2593 1.391 . S
C2593 H2581 0.950 . S
C2593 C2589 1.393 . S
C2593 C2592 1.391 . S
C2594 H2584 0.950 . S
C2594 C2595 1.386 . S
C2594 C2596 1.391 . S
C2595 C2594 1.386 . S
C2595 C2599 1.393 . S
C2596 H2585 0.950 . S
C2596 C2594 1.391 . S
C2596 C2597 1.400 . S
C2597 C2591 1.491 . S
C2597 C2596 1.400 . S
C2597 C2598 1.398 . S
C2598 H2586 0.950 . S
C2598 C2597 1.398 . S
C2598 C2599 1.391 . S
C2599 H2587 0.950 . S
C2599 C2595 1.393 . S
C2599 C2598 1.391 . S
H2600 C2608 0.950 . S
H2601 C2613 0.950 . S
H2602 C2610 0.950 . S
H2603 C2612 0.950 . S
H2604 C2614 0.950 . S
H2605 C2616 0.950 . S
H2606 C2618 0.950 . S
H2607 C2619 0.950 . S
C2608 H2600 0.950 . S
C2608 C2609 1.386 . S
C2608 C2610 1.391 . S
C2609 C2608 1.386 . S
C2609 C2613 1.393 . S
C2610 H2602 0.950 . S
C2610 C2608 1.391 . S
C2610 C2611 1.400 . S
C2611 C2610 1.400 . S
C2611 C2612 1.398 . S
C2611 C2617 1.491 1_545 S
C2612 H2603 0.950 . S
C2612 C2611 1.398 . S
C2612 C2613 1.391 . S
C2613 H2601 0.950 . S
C2613 C2609 1.393 . S
C2613 C2612 1.391 . S
C2614 H2604 0.950 . S
C2614 C2615 1.386 . S
C2614 C2616 1.391 . S
C2615 C2614 1.386 . S
C2615 C2619 1.393 . S
C2616 H2605 0.950 . S
C2616 C2614 1.391 . S
C2616 C2617 1.400 . S
C2617 C2611 1.491 1_565 S
C2617 C2616 1.400 . S
C2617 C2618 1.398 . S
C2618 H2606 0.950 . S
C2618 C2617 1.398 . S
C2618 C2619 1.391 . S
C2619 H2607 0.950 . S
C2619 C2615 1.393 . S
C2619 C2618 1.391 . S
H2620 C2628 0.950 . S
H2621 C2633 0.950 . S
H2622 C2630 0.950 . S
H2623 C2632 0.950 . S
H2624 C2634 0.950 . S
H2625 C2636 0.950 . S
H2626 C2638 0.950 . S
H2627 C2639 0.950 . S
C2628 H2620 0.950 . S
C2628 C2629 1.386 . S
C2628 C2630 1.391 . S
C2629 C2628 1.386 . S
C2629 C2633 1.393 . S
C2630 H2622 0.950 . S
C2630 C2628 1.391 . S
C2630 C2631 1.400 . S
C2631 C2630 1.400 . S
C2631 C2632 1.398 . S
C2631 C2637 1.491 . S
C2632 H2623 0.950 . S
C2632 C2631 1.398 . S
C2632 C2633 1.391 . S
C2633 H2621 0.950 . S
C2633 C2629 1.393 . S
C2633 C2632 1.391 . S
C2634 H2624 0.950 . S
C2634 C2635 1.386 . S
C2634 C2636 1.391 . S
C2635 C2634 1.386 . S
C2635 C2639 1.393 1_554 S
C2636 H2625 0.950 . S
C2636 C2634 1.391 . S
C2636 C2637 1.400 1_554 S
C2637 C2631 1.491 . S
C2637 C2636 1.400 1_556 S
C2637 C2638 1.398 . S
C2638 H2626 0.950 . S
C2638 C2637 1.398 . S
C2638 C2639 1.391 . S
C2639 H2627 0.950 . S
C2639 C2635 1.393 1_556 S
C2639 C2638 1.391 . S
H2640 C2648 0.950 . S
H2641 C2653 0.950 . S
H2642 C2650 0.950 . S
H2643 C2652 0.950 . S
H2644 C2654 0.950 . S
H2645 C2656 0.950 . S
H2646 C2658 0.950 . S
H2647 C2659 0.950 . S
C2648 H2640 0.950 . S
C2648 C2649 1.386 . S
C2648 C2650 1.391 . S
C2649 C2648 1.386 . S
C2649 C2653 1.393 . S
C2650 H2642 0.950 . S
C2650 C2648 1.391 . S
C2650 C2651 1.400 . S
C2651 C2650 1.400 . S
C2651 C2652 1.398 . S
C2651 C2657 1.491 1_565 S
C2652 H2643 0.950 . S
C2652 C2651 1.398 . S
C2652 C2653 1.391 . S
C2653 H2641 0.950 . S
C2653 C2649 1.393 . S
C2653 C2652 1.391 . S
C2654 H2644 0.950 . S
C2654 C2655 1.386 . S
C2654 C2656 1.391 . S
C2655 C2654 1.386 . S
C2655 C2659 1.393 . S
C2656 H2645 0.950 . S
C2656 C2654 1.391 . S
C2656 C2657 1.400 . S
C2657 C2651 1.491 1_545 S
C2657 C2656 1.400 . S
C2657 C2658 1.398 . S
C2658 H2646 0.950 . S
C2658 C2657 1.398 . S
C2658 C2659 1.391 . S
C2659 H2647 0.950 . S
C2659 C2655 1.393 . S
C2659 C2658 1.391 . S
H2660 C2668 0.950 . S
H2661 C2673 0.950 . S
H2662 C2670 0.950 . S
H2663 C2672 0.950 . S
H2664 C2674 0.950 . S
H2665 C2676 0.950 . S
H2666 C2678 0.950 . S
H2667 C2679 0.950 . S
C2668 H2660 0.950 . S
C2668 C2669 1.386 . S
C2668 C2670 1.391 . S
C2669 C2668 1.386 . S
C2669 C2673 1.393 . S
C2670 H2662 0.950 . S
C2670 C2668 1.391 . S
C2670 C2671 1.400 . S
C2671 C2670 1.400 . S
C2671 C2672 1.398 . S
C2671 C2677 1.491 . S
C2672 H2663 0.950 . S
C2672 C2671 1.398 . S
C2672 C2673 1.391 . S
C2673 H2661 0.950 . S
C2673 C2669 1.393 . S
C2673 C2672 1.391 . S
C2674 H2664 0.950 . S
C2674 C2675 1.386 . S
C2674 C2676 1.391 . S
C2675 C2674 1.386 . S
C2675 C2679 1.393 . S
C2676 H2665 0.950 . S
C2676 C2674 1.391 . S
C2676 C2677 1.400 . S
C2677 C2671 1.491 . S
C2677 C2676 1.400 . S
C2677 C2678 1.398 . S
C2678 H2666 0.950 . S
C2678 C2677 1.398 . S
C2678 C2679 1.391 . S
C2679 H2667 0.950 . S
C2679 C2675 1.393 . S
C2679 C2678 1.391 . S
H2680 C2688 0.950 . S
H2681 C2693 0.950 . S
H2682 C2690 0.950 . S
H2683 C2692 0.950 1_545 S
H2684 C2694 0.950 . S
H2685 C2696 0.950 . S
H2686 C2698 0.950 1_565 S
H2687 C2699 0.950 . S
C2688 H2680 0.950 . S
C2688 C2689 1.386 . S
C2688 C2690 1.391 . S
C2689 C2688 1.386 . S
C2689 C2693 1.393 . S
C2690 H2682 0.950 . S
C2690 C2688 1.391 . S
C2690 C2691 1.400 . S
C2691 C2690 1.400 . S
C2691 C2692 1.398 . S
C2691 C2697 1.491 1_565 S
C2692 H2683 0.950 1_565 S
C2692 C2691 1.398 . S
C2692 C2693 1.391 . S
C2693 H2681 0.950 . S
C2693 C2689 1.393 . S
C2693 C2692 1.391 . S
C2694 H2684 0.950 . S
C2694 C2695 1.386 . S
C2694 C2696 1.391 . S
C2695 C2694 1.386 . S
C2695 C2699 1.393 . S
C2696 H2685 0.950 . S
C2696 C2694 1.391 . S
C2696 C2697 1.400 . S
C2697 C2691 1.491 1_545 S
C2697 C2696 1.400 . S
C2697 C2698 1.398 . S
C2698 H2686 0.950 1_545 S
C2698 C2697 1.398 . S
C2698 C2699 1.391 . S
C2699 H2687 0.950 . S
C2699 C2695 1.393 . S
C2699 C2698 1.391 . S
H2700 C2708 0.950 . S
H2701 C2713 0.950 . S
H2702 C2710 0.950 . S
H2703 C2712 0.950 . S
H2704 C2714 0.951 . S
H2705 C2716 0.950 . S
H2706 C2718 0.950 . S
H2707 C2719 0.950 . S
C2708 H2700 0.950 . S
C2708 C2709 1.386 . S
C2708 C2710 1.391 . S
C2709 C2708 1.386 . S
C2709 C2713 1.393 . S
C2710 H2702 0.950 . S
C2710 C2708 1.391 . S
C2710 C2711 1.400 . S
C2711 C2710 1.400 . S
C2711 C2712 1.398 . S
C2711 C2717 1.491 . S
C2712 H2703 0.950 . S
C2712 C2711 1.398 . S
C2712 C2713 1.391 . S
C2713 H2701 0.950 . S
C2713 C2709 1.393 . S
C2713 C2712 1.391 . S
C2714 H2704 0.951 . S
C2714 C2715 1.336 1_554 S
C2714 C2716 1.441 . S
C2715 C2714 1.336 1_556 S
C2715 C2719 1.393 . S
C2716 H2705 0.950 . S
C2716 C2714 1.441 . S
C2716 C2717 1.400 . S
C2717 C2711 1.491 . S
C2717 C2716 1.400 . S
C2717 C2718 1.398 . S
C2718 H2706 0.950 . S
C2718 C2717 1.398 . S
C2718 C2719 1.391 1_554 S
C2719 H2707 0.950 . S
C2719 C2715 1.393 . S
C2719 C2718 1.391 1_556 S
H2720 C2728 0.950 . S
H2721 C2733 0.950 . S
H2722 C2730 0.950 . S
H2723 C2732 0.950 . S
H2724 C2734 0.950 . S
H2725 C2736 0.950 . S
H2726 C2738 0.950 . S
H2727 C2739 0.950 . S
C2728 H2720 0.950 . S
C2728 C2729 1.386 . S
C2728 C2730 1.391 . S
C2729 C2728 1.386 . S
C2729 C2733 1.393 . S
C2730 H2722 0.950 . S
C2730 C2728 1.391 . S
C2730 C2731 1.400 . S
C2731 C2730 1.400 . S
C2731 C2732 1.398 . S
C2731 C2737 1.491 . S
C2732 H2723 0.950 . S
C2732 C2731 1.398 . S
C2732 C2733 1.391 . S
C2733 H2721 0.950 . S
C2733 C2729 1.393 . S
C2733 C2732 1.391 . S
C2734 H2724 0.950 . S
C2734 C2735 1.386 . S
C2734 C2736 1.391 . S
C2735 C2734 1.386 . S
C2735 C2739 1.393 . S
C2736 H2725 0.950 . S
C2736 C2734 1.391 . S
C2736 C2737 1.400 . S
C2737 C2731 1.491 . S
C2737 C2736 1.400 . S
C2737 C2738 1.398 . S
C2738 H2726 0.950 . S
C2738 C2737 1.398 . S
C2738 C2739 1.391 . S
C2739 H2727 0.950 . S
C2739 C2735 1.393 . S
C2739 C2738 1.391 . S
H2740 C2748 0.950 . S
H2741 C2753 0.950 . S
H2742 C2750 0.950 . S
H2743 C2752 0.950 . S
H2744 C2754 0.950 . S
H2745 C2756 0.950 . S
H2746 C2758 0.950 . S
H2747 C2759 0.950 . S
C2748 H2740 0.950 . S
C2748 C2749 1.386 . S
C2748 C2750 1.391 . S
C2749 C2748 1.386 . S
C2749 C2753 1.393 1_556 S
C2750 H2742 0.950 . S
C2750 C2748 1.391 . S
C2750 C2751 1.400 1_556 S
C2751 C2750 1.400 1_554 S
C2751 C2752 1.398 . S
C2751 C2757 1.491 . S
C2752 H2743 0.950 . S
C2752 C2751 1.398 . S
C2752 C2753 1.391 . S
C2753 H2741 0.950 . S
C2753 C2749 1.393 1_554 S
C2753 C2752 1.391 . S
C2754 H2744 0.950 . S
C2754 C2755 1.386 . S
C2754 C2756 1.391 . S
C2755 C2754 1.386 . S
C2755 C2759 1.393 . S
C2756 H2745 0.950 . S
C2756 C2754 1.391 . S
C2756 C2757 1.400 . S
C2757 C2751 1.491 . S
C2757 C2756 1.400 . S
C2757 C2758 1.398 . S
C2758 H2746 0.950 . S
C2758 C2757 1.398 . S
C2758 C2759 1.391 . S
C2759 H2747 0.950 . S
C2759 C2755 1.393 . S
C2759 C2758 1.391 . S
H2760 C2768 0.950 . S
H2761 C2773 0.950 . S
H2762 C2770 0.950 . S
H2763 C2772 0.950 . S
H2764 C2774 0.950 . S
H2765 C2776 0.950 . S
H2766 C2778 0.950 . S
H2767 C2779 0.950 . S
C2768 H2760 0.950 . S
C2768 C2769 1.386 . S
C2768 C2770 1.391 . S
C2769 C2768 1.386 . S
C2769 C2773 1.393 . S
C2770 H2762 0.950 . S
C2770 C2768 1.391 . S
C2770 C2771 1.400 . S
C2771 C2770 1.400 . S
C2771 C2772 1.398 . S
C2771 C2777 1.491 . S
C2772 H2763 0.950 . S
C2772 C2771 1.398 . S
C2772 C2773 1.391 . S
C2773 H2761 0.950 . S
C2773 C2769 1.393 . S
C2773 C2772 1.391 . S
C2774 H2764 0.950 . S
C2774 C2775 1.386 . S
C2774 C2776 1.391 . S
C2775 C2774 1.386 . S
C2775 C2779 1.393 . S
C2776 H2765 0.950 . S
C2776 C2774 1.391 . S
C2776 C2777 1.400 . S
C2777 C2771 1.491 . S
C2777 C2776 1.400 . S
C2777 C2778 1.398 . S
C2778 H2766 0.950 . S
C2778 C2777 1.398 . S
C2778 C2779 1.391 . S
C2779 H2767 0.950 . S
C2779 C2775 1.393 . S
C2779 C2778 1.391 . S
H2780 C2788 0.950 . S
H2781 C2793 0.950 . S
H2782 C2790 0.950 . S
H2783 C2792 0.950 . S
H2784 C2794 0.950 . S
H2785 C2796 0.950 . S
H2786 C2798 0.950 . S
H2787 C2799 0.950 . S
C2788 H2780 0.950 . S
C2788 C2789 1.386 . S
C2788 C2790 1.391 . S
C2789 C2788 1.386 . S
C2789 C2793 1.393 . S
C2790 H2782 0.950 . S
C2790 C2788 1.391 . S
C2790 C2791 1.400 . S
C2791 C2790 1.400 . S
C2791 C2792 1.398 . S
C2791 C2797 1.491 . S
C2792 H2783 0.950 . S
C2792 C2791 1.398 . S
C2792 C2793 1.391 . S
C2793 H2781 0.950 . S
C2793 C2789 1.393 . S
C2793 C2792 1.391 . S
C2794 H2784 0.950 . S
C2794 C2795 1.386 . S
C2794 C2796 1.391 . S
C2795 C2794 1.386 . S
C2795 C2799 1.393 . S
C2796 H2785 0.950 . S
C2796 C2794 1.391 . S
C2796 C2797 1.400 . S
C2797 C2791 1.491 . S
C2797 C2796 1.400 . S
C2797 C2798 1.398 . S
C2798 H2786 0.950 . S
C2798 C2797 1.398 . S
C2798 C2799 1.391 . S
C2799 H2787 0.950 . S
C2799 C2795 1.393 . S
C2799 C2798 1.391 . S
H2800 C2808 0.950 . S
H2801 C2813 0.950 . S
H2802 C2810 0.950 . S
H2803 C2812 0.950 . S
H2804 C2814 0.950 . S
H2805 C2816 0.950 . S
H2806 C2818 0.950 . S
H2807 C2819 0.950 . S
C2808 H2800 0.950 . S
C2808 C2809 1.386 . S
C2808 C2810 1.391 . S
C2809 C2808 1.386 . S
C2809 C2813 1.393 . S
C2810 H2802 0.950 . S
C2810 C2808 1.391 . S
C2810 C2811 1.400 . S
C2811 C2810 1.400 . S
C2811 C2812 1.398 . S
C2811 C2817 1.491 . S
C2812 H2803 0.950 . S
C2812 C2811 1.398 . S
C2812 C2813 1.391 . S
C2813 H2801 0.950 . S
C2813 C2809 1.393 . S
C2813 C2812 1.391 . S
C2814 H2804 0.950 . S
C2814 C2815 1.386 . S
C2814 C2816 1.391 . S
C2815 C2814 1.386 . S
C2815 C2819 1.393 . S
C2816 H2805 0.950 . S
C2816 C2814 1.391 . S
C2816 C2817 1.400 . S
C2817 C2811 1.491 . S
C2817 C2816 1.400 . S
C2817 C2818 1.398 . S
C2818 H2806 0.950 . S
C2818 C2817 1.398 . S
C2818 C2819 1.391 . S
C2819 H2807 0.950 . S
C2819 C2815 1.393 . S
C2819 C2818 1.391 . S
H2820 C2828 0.950 . S
H2821 C2833 0.950 . S
H2822 C2830 0.950 . S
H2823 C2832 0.950 . S
H2824 C2834 0.950 . S
H2825 C2836 0.950 . S
H2826 C2838 0.950 . S
H2827 C2839 0.951 1_554 S
C2828 H2820 0.950 . S
C2828 C2829 1.386 . S
C2828 C2830 1.391 . S
C2829 C2828 1.386 . S
C2829 C2833 1.393 . S
C2830 H2822 0.950 . S
C2830 C2828 1.391 . S
C2830 C2831 1.400 . S
C2831 C2830 1.400 . S
C2831 C2832 1.398 . S
C2831 C2837 1.491 . S
C2832 H2823 0.950 . S
C2832 C2831 1.398 . S
C2832 C2833 1.391 . S
C2833 H2821 0.950 . S
C2833 C2829 1.393 . S
C2833 C2832 1.391 . S
C2834 H2824 0.950 . S
C2834 C2835 1.386 . S
C2834 C2836 1.391 1_554 S
C2835 C2834 1.386 . S
C2835 C2839 1.395 1_554 S
C2836 H2825 0.950 . S
C2836 C2834 1.391 1_556 S
C2836 C2837 1.400 . S
C2837 C2831 1.491 . S
C2837 C2836 1.400 . S
C2837 C2838 1.398 . S
C2838 H2826 0.950 . S
C2838 C2837 1.398 . S
C2838 C2839 1.387 . S
C2839 H2827 0.951 1_556 S
C2839 C2835 1.395 1_556 S
C2839 C2838 1.387 . S
H2840 C2848 0.950 . S
H2841 C2853 0.950 . S
H2842 C2850 0.950 . S
H2843 C2852 0.950 . S
H2844 C2854 0.950 . S
H2845 C2856 0.950 . S
H2846 C2858 0.950 . S
H2847 C2859 0.950 . S
C2848 H2840 0.950 . S
C2848 C2849 1.386 . S
C2848 C2850 1.391 . S
C2849 C2848 1.386 . S
C2849 C2853 1.393 . S
C2850 H2842 0.950 . S
C2850 C2848 1.391 . S
C2850 C2851 1.400 . S
C2851 C2850 1.400 . S
C2851 C2852 1.398 . S
C2851 C2857 1.491 . S
C2852 H2843 0.950 . S
C2852 C2851 1.398 . S
C2852 C2853 1.391 . S
C2853 H2841 0.950 . S
C2853 C2849 1.393 . S
C2853 C2852 1.391 . S
C2854 H2844 0.950 . S
C2854 C2855 1.386 . S
C2854 C2856 1.391 . S
C2855 C2854 1.386 . S
C2855 C2859 1.393 . S
C2856 H2845 0.950 . S
C2856 C2854 1.391 . S
C2856 C2857 1.400 . S
C2857 C2851 1.491 . S
C2857 C2856 1.400 . S
C2857 C2858 1.398 . S
C2858 H2846 0.950 . S
C2858 C2857 1.398 . S
C2858 C2859 1.391 . S
C2859 H2847 0.950 . S
C2859 C2855 1.393 . S
C2859 C2858 1.391 . S
H2860 C2868 0.950 . S
H2861 C2873 0.950 . S
H2862 C2870 0.950 . S
H2863 C2872 0.950 . S
H2864 C2874 0.950 . S
H2865 C2876 0.950 . S
H2866 C2878 0.950 . S
H2867 C2879 0.950 . S
C2868 H2860 0.950 . S
C2868 C2869 1.386 . S
C2868 C2870 1.391 . S
C2869 C2868 1.386 . S
C2869 C2873 1.393 . S
C2870 H2862 0.950 . S
C2870 C2868 1.391 . S
C2870 C2871 1.400 . S
C2871 C2870 1.400 . S
C2871 C2872 1.398 . S
C2871 C2877 1.491 . S
C2872 H2863 0.950 . S
C2872 C2871 1.398 . S
C2872 C2873 1.391 . S
C2873 H2861 0.950 . S
C2873 C2869 1.393 . S
C2873 C2872 1.391 . S
C2874 H2864 0.950 . S
C2874 C2875 1.386 . S
C2874 C2876 1.391 . S
C2875 C2874 1.386 . S
C2875 C2879 1.393 . S
C2876 H2865 0.950 . S
C2876 C2874 1.391 . S
C2876 C2877 1.400 . S
C2877 C2871 1.491 . S
C2877 C2876 1.400 . S
C2877 C2878 1.398 . S
C2878 H2866 0.950 . S
C2878 C2877 1.398 . S
C2878 C2879 1.391 . S
C2879 H2867 0.950 . S
C2879 C2875 1.393 . S
C2879 C2878 1.391 . S
C969 C27 1.179 . S
C975 C837 1.175 . S
C989 C57 0.169 . S
C995 N246 0.188 . S
C1009 C87 0.208 . S
C1015 N756 0.202 . S
C1029 N306 0.720 . S
C1035 N96 0.841 . S
C1049 C147 1.178 . S
C1055 C897 1.169 . S
C1069 N426 0.741 . S
C1075 N156 0.864 . S
C1089 N936 0.255 . S
C1095 C207 0.187 . S
C1109 C237 0.142 . S
C1115 N366 0.120 . S
C1129 C256 1.181 . S
C1135 C586 1.157 . S
C1149 C286 0.182 . S
C1155 N14 0.189 . S
C1169 N524 0.262 . S
C1175 C316 0.184 . S
C1189 N74 0.725 . S
C1195 N344 0.854 . S
C1209 C376 1.179 . S
C1215 C646 1.167 . S
C1229 N404 0.849 . S
C1235 N194 0.731 . S
C1249 C436 0.210 . S
C1255 N704 0.199 . S
C1269 N134 0.131 . S
C1275 C466 0.132 . S
C1289 C357 1.160 . S
C1295 C507 1.180 . S
C1309 N726 0.115 . S
C1315 C537 0.150 . S
C1329 N276 0.247 . S
C1335 C567 0.191 . S
C1349 N576 0.868 . S
C1355 N786 0.734 . S
C1369 C417 1.170 . S
C1375 C627 1.182 . S
C1389 N906 0.720 . S
C1395 N636 0.841 . S
C1409 N456 0.207 . S
C1415 C687 0.207 . S
C1429 C717 0.209 . S
C1435 N846 0.152 . S
C1449 C736 1.183 . S
C1455 C106 1.161 . S
C1469 C766 0.190 . S
C1475 N494 0.118 . S
C1489 C796 0.193 . S
C1495 N44 0.241 . S
C1509 N824 0.866 . S
C1515 N554 0.742 . S
C1529 C166 1.164 . S
C1535 C856 1.183 . S
C1549 N674 0.720 . S
C1555 N884 0.841 . S
C1569 C916 0.210 . S
C1575 N224 0.199 . S
C1589 C946 0.156 . S
C1595 N614 0.112 . S
C1609 C1 1.888 . S
C1615 C541 1.864 . S
C1629 C580 1.573 . S
C1635 C31 1.571 . S
C1649 C61 1.865 . S
C1655 C481 1.888 . S
C1669 C100 1.572 . S
C1675 C511 1.569 . S
C1689 C661 1.855 . S
C1695 C121 1.897 . S
C1709 C160 1.553 . S
C1715 C691 1.583 . S
C1729 C601 1.895 . S
C1735 C181 1.856 . S
C1749 C211 1.578 . S
C1755 C640 1.558 . S
C1769 C790 1.872 . S
C1775 C250 1.885 . S
C1789 C280 1.570 . S
C1795 C811 1.570 . S
C1809 C310 1.873 . S
C1815 C730 1.888 . S
C1829 C331 1.556 . S
C1835 C760 1.580 . S
C1849 C910 1.873 . S
C1855 C370 1.886 . S
C1869 C940 1.570 . S
C1875 C391 1.573 . S
C1889 C430 1.861 . S
C1895 C850 1.891 . S
C1909 C460 1.574 . S
C1915 C871 1.571 . S
C1929 N6 1.032 . S
C1935 N734 1.032 . S
C1949 N284 1.276 . S
C1955 N36 1.276 . S
C1969 N66 0.603 . S
C1975 N794 0.603 . S
C1989 C117 2.385 . S
C1995 C346 2.385 . S
C2009 N854 0.977 . S
C2015 N126 0.977 . S
C2029 C406 2.387 . S
C2035 C177 2.387 . S
C2049 N186 0.653 . S
C2055 N914 0.653 . S
C2069 N216 1.268 . S
C2075 N464 1.268 . S
C2089 N486 1.004 . S
C2095 N254 1.004 . S
C2109 N546 0.699 . S
C2115 N314 0.699 . S
C2129 N606 1.028 . S
C2135 N374 1.028 . S
C2149 N434 0.605 . S
C2155 N666 0.605 . S
C2169 N516 1.282 . S
C2175 N764 1.282 . S
C2189 C597 2.388 . S
C2195 C826 2.388 . S
C2209 C886 2.386 . S
C2215 C657 2.386 . S
C2229 N944 1.252 . S
C2235 N696 1.252 . S
C2249 C10 3.403 . S
C2255 C151 3.370 . S
C2269 C190 2.747 . S
C2275 C40 2.759 . S
C2289 C220 2.759 . S
C2295 C70 2.748 . S
C2309 C130 3.399 . S
C2315 C91 3.366 . S
C2329 C241 3.401 . S
C2335 C400 3.364 . S
C2349 C271 2.761 . S
C2355 C421 2.750 . S
C2369 C451 2.754 . S
C2375 C301 2.742 . S
C2389 C340 3.369 . S
C2395 C361 3.402 . S
C2409 C490 3.404 . S
C2415 C631 3.369 . S
C2429 C520 2.753 . S
C2435 C670 2.741 . S
C2449 C550 2.748 . S
C2455 C700 2.759 . S
C2469 C610 3.399 . S
C2475 C571 3.367 . S
C2489 C721 3.403 . S
C2495 C880 3.370 . S
C2509 C751 2.759 . S
C2515 C901 2.748 . S
C2529 C931 2.754 . S
C2535 C781 2.741 . S
C2549 C820 3.367 . S
C2555 C841 3.402 . S
C2569 C16 2.306 . S
C2575 C136 2.304 . S
C2589 C46 1.366 . S
C2595 N164 1.343 . S
C2609 C196 1.793 . S
C2615 C76 1.792 . S
C2629 C226 1.379 . S
C2635 N104 1.363 . S
C2649 C267 2.304 . S
C2655 C387 2.305 . S
C2669 N396 1.347 . S
C2675 C297 1.367 . S
C2689 C447 1.798 . S
C2695 C327 1.797 . S
C2709 C477 1.378 . S
C2715 N336 1.361 . S
C2729 C496 2.305 . S
C2735 C616 2.304 . S
C2749 N644 1.345 . S
C2755 C526 1.369 . S
C2769 C556 1.797 . S
C2775 C676 1.798 . S
C2789 C706 1.375 . S
C2795 N584 1.354 . S
C2809 C867 2.306 . S
C2815 C747 2.308 . S
C2829 C777 1.374 . S
C2835 N876 1.352 . S
C2849 C807 1.794 . S
C2855 C927 1.798 . S
C2869 N816 1.342 . S
C2875 C957 1.366 . S
