# Generated by pormake.
# Topology smd, (6)-cn, num edge types: 1
# Building blocks:
#     Node 0, Type 0, BuildingBlock: HISSIN_clean_sbu_0, # of connection points: 6
#     Node 1, Type 0, BuildingBlock: HISSIN_clean_sbu_0, # of connection points: 6
#     Node 2, Type 0, BuildingBlock: HISSIN_clean_sbu_0, # of connection points: 6
#     Node 3, Type 0, BuildingBlock: HISSIN_clean_sbu_0, # of connection points: 6
#     Node 4, Type 0, BuildingBlock: HISSIN_clean_sbu_0, # of connection points: 6
#     Node 5, Type 0, BuildingBlock: HISSIN_clean_sbu_0, # of connection points: 6
#     Node 6, Type 0, BuildingBlock: HISSIN_clean_sbu_0, # of connection points: 6
#     Node 7, Type 0, BuildingBlock: HISSIN_clean_sbu_0, # of connection points: 6
#     Node 8, Type 0, BuildingBlock: HISSIN_clean_sbu_0, # of connection points: 6
#     Node 9, Type 0, BuildingBlock: HISSIN_clean_sbu_0, # of connection points: 6
#     Node 10, Type 0, BuildingBlock: HISSIN_clean_sbu_0, # of connection points: 6
#     Node 11, Type 0, BuildingBlock: HISSIN_clean_sbu_0, # of connection points: 6
#     Node 12, Type 0, BuildingBlock: HISSIN_clean_sbu_0, # of connection points: 6
#     Node 13, Type 0, BuildingBlock: HISSIN_clean_sbu_0, # of connection points: 6
#     Node 14, Type 0, BuildingBlock: HISSIN_clean_sbu_0, # of connection points: 6
#     Node 15, Type 0, BuildingBlock: HISSIN_clean_sbu_0, # of connection points: 6
#     Node 16, Type 0, BuildingBlock: HISSIN_clean_sbu_0, # of connection points: 6
#     Node 17, Type 0, BuildingBlock: HISSIN_clean_sbu_0, # of connection points: 6
#     Edge 18, Type (0, 0), BuildingBlock: AJUNOK_clean_linker_0, # of connection points: 2
#     Edge 19, Type (0, 0), BuildingBlock: AJUNOK_clean_linker_0, # of connection points: 2
#     Edge 20, Type (0, 0), BuildingBlock: AJUNOK_clean_linker_0, # of connection points: 2
#     Edge 21, Type (0, 0), BuildingBlock: AJUNOK_clean_linker_0, # of connection points: 2
#     Edge 22, Type (0, 0), BuildingBlock: AJUNOK_clean_linker_0, # of connection points: 2
#     Edge 23, Type (0, 0), BuildingBlock: AJUNOK_clean_linker_0, # of connection points: 2
#     Edge 24, Type (0, 0), BuildingBlock: AJUNOK_clean_linker_0, # of connection points: 2
#     Edge 25, Type (0, 0), BuildingBlock: AJUNOK_clean_linker_0, # of connection points: 2
#     Edge 26, Type (0, 0), BuildingBlock: AJUNOK_clean_linker_0, # of connection points: 2
#     Edge 27, Type (0, 0), BuildingBlock: AJUNOK_clean_linker_0, # of connection points: 2
#     Edge 28, Type (0, 0), BuildingBlock: AJUNOK_clean_linker_0, # of connection points: 2
#     Edge 29, Type (0, 0), BuildingBlock: AJUNOK_clean_linker_0, # of connection points: 2
#     Edge 30, Type (0, 0), BuildingBlock: AJUNOK_clean_linker_0, # of connection points: 2
#     Edge 31, Type (0, 0), BuildingBlock: AJUNOK_clean_linker_0, # of connection points: 2
#     Edge 32, Type (0, 0), BuildingBlock: AJUNOK_clean_linker_0, # of connection points: 2
#     Edge 33, Type (0, 0), BuildingBlock: AJUNOK_clean_linker_0, # of connection points: 2
#     Edge 34, Type (0, 0), BuildingBlock: AJUNOK_clean_linker_0, # of connection points: 2
#     Edge 35, Type (0, 0), BuildingBlock: AJUNOK_clean_linker_0, # of connection points: 2
#     Edge 36, Type (0, 0), BuildingBlock: AJUNOK_clean_linker_0, # of connection points: 2
#     Edge 37, Type (0, 0), BuildingBlock: AJUNOK_clean_linker_0, # of connection points: 2
#     Edge 38, Type (0, 0), BuildingBlock: AJUNOK_clean_linker_0, # of connection points: 2
#     Edge 39, Type (0, 0), BuildingBlock: AJUNOK_clean_linker_0, # of connection points: 2
#     Edge 40, Type (0, 0), BuildingBlock: AJUNOK_clean_linker_0, # of connection points: 2
#     Edge 41, Type (0, 0), BuildingBlock: AJUNOK_clean_linker_0, # of connection points: 2
#     Edge 42, Type (0, 0), BuildingBlock: AJUNOK_clean_linker_0, # of connection points: 2
#     Edge 43, Type (0, 0), BuildingBlock: AJUNOK_clean_linker_0, # of connection points: 2
#     Edge 44, Type (0, 0), BuildingBlock: AJUNOK_clean_linker_0, # of connection points: 2
#     Edge 45, Type (0, 0), BuildingBlock: AJUNOK_clean_linker_0, # of connection points: 2
#     Edge 46, Type (0, 0), BuildingBlock: AJUNOK_clean_linker_0, # of connection points: 2
#     Edge 47, Type (0, 0), BuildingBlock: AJUNOK_clean_linker_0, # of connection points: 2
#     Edge 48, Type (0, 0), BuildingBlock: AJUNOK_clean_linker_0, # of connection points: 2
#     Edge 49, Type (0, 0), BuildingBlock: AJUNOK_clean_linker_0, # of connection points: 2
#     Edge 50, Type (0, 0), BuildingBlock: AJUNOK_clean_linker_0, # of connection points: 2
#     Edge 51, Type (0, 0), BuildingBlock: AJUNOK_clean_linker_0, # of connection points: 2
#     Edge 52, Type (0, 0), BuildingBlock: AJUNOK_clean_linker_0, # of connection points: 2
#     Edge 53, Type (0, 0), BuildingBlock: AJUNOK_clean_linker_0, # of connection points: 2
#     Edge 54, Type (0, 0), BuildingBlock: AJUNOK_clean_linker_0, # of connection points: 2
#     Edge 55, Type (0, 0), BuildingBlock: AJUNOK_clean_linker_0, # of connection points: 2
#     Edge 56, Type (0, 0), BuildingBlock: AJUNOK_clean_linker_0, # of connection points: 2
#     Edge 57, Type (0, 0), BuildingBlock: AJUNOK_clean_linker_0, # of connection points: 2
#     Edge 58, Type (0, 0), BuildingBlock: AJUNOK_clean_linker_0, # of connection points: 2
#     Edge 59, Type (0, 0), BuildingBlock: AJUNOK_clean_linker_0, # of connection points: 2
#     Edge 60, Type (0, 0), BuildingBlock: AJUNOK_clean_linker_0, # of connection points: 2
#     Edge 61, Type (0, 0), BuildingBlock: AJUNOK_clean_linker_0, # of connection points: 2
#     Edge 62, Type (0, 0), BuildingBlock: AJUNOK_clean_linker_0, # of connection points: 2
#     Edge 63, Type (0, 0), BuildingBlock: AJUNOK_clean_linker_0, # of connection points: 2
#     Edge 64, Type (0, 0), BuildingBlock: AJUNOK_clean_linker_0, # of connection points: 2
#     Edge 65, Type (0, 0), BuildingBlock: AJUNOK_clean_linker_0, # of connection points: 2
#     Edge 66, Type (0, 0), BuildingBlock: AJUNOK_clean_linker_0, # of connection points: 2
#     Edge 67, Type (0, 0), BuildingBlock: AJUNOK_clean_linker_0, # of connection points: 2
#     Edge 68, Type (0, 0), BuildingBlock: AJUNOK_clean_linker_0, # of connection points: 2
#     Edge 69, Type (0, 0), BuildingBlock: AJUNOK_clean_linker_0, # of connection points: 2
#     Edge 70, Type (0, 0), BuildingBlock: AJUNOK_clean_linker_0, # of connection points: 2
#     Edge 71, Type (0, 0), BuildingBlock: AJUNOK_clean_linker_0, # of connection points: 2
# Relax obj value: 0.289
# Max RMSD: 0.376
# Mean RMSD: 0.347
data_MOF--net-smd--node1-HISSIN_clean_sbu_0--edge1-AJUNOK_clean_linker_0
_symmetry_space_group_name_H-M    P1
_symmetry_Int_Tables_number       1
_symmetry_cell_setting            triclinic
loop_
_symmetry_equiv_pos_as_xyz
'x, y, z'
_cell_length_a     47.258799
_cell_length_b     47.094602
_cell_length_c     20.826392
_cell_angle_alpha  92.554987
_cell_angle_beta   92.798424
_cell_angle_gamma 120.5924
loop_
_atom_site_label
_atom_site_type_symbol
_atom_site_fract_x
_atom_site_fract_y
_atom_site_fract_z
_atom_type_partial_charge
Eu0 Eu 0.06436 0.28075 0.5881 0.0
Eu1 Eu 1.01725 0.25499 0.45518 0.0
C2 C 0.99913 0.28322 0.58276 0.0
C3 C 0.08667 0.30283 0.76795 0.0
C4 C 0.05862 0.30504 0.77811 0.0
C5 C 0.09274 0.29719 0.88269 0.0
C6 C 0.04758 0.30305 0.84 0.0
C7 C 0.10384 0.29934 0.8209 0.0
C8 C 0.06411 0.29838 0.8929 0.0
C9 C 0.09681 0.30174 0.70214 0.0
O10 O 0.04855 0.30992 0.45746 0.0
O11 O 0.09424 0.31547 0.50953 0.0
C12 C 0.08057 0.32458 0.46401 0.0
O13 O 0.08244 0.25132 0.5354 0.0
O14 O 0.98849 0.2641 0.38197 0.0
O15 O 0.99511 0.22228 0.36685 0.0
O16 O 0.06532 0.25567 0.43338 0.0
C17 C 0.08394 0.24934 0.47288 0.0
O18 O 1.01721 0.23146 0.60673 0.0
O19 O 1.00045 0.20804 0.50293 0.0
O20 O 0.98633 0.25953 0.53481 0.0
O21 O 0.08627 0.27227 0.67466 0.0
O22 O 0.09429 0.32107 0.66221 0.0
O23 O 1.03108 0.3013 0.59399 0.0
C24 C 0.99684 0.25153 0.2756 0.0
C25 C 1.02625 0.25444 0.25633 0.0
C26 C 0.98868 0.26913 0.17136 0.0
C27 C 1.03655 0.26418 0.19507 0.0
C28 C 0.97836 0.25936 0.23282 0.0
C29 C 1.01771 0.27126 0.15141 0.0
C30 C 0.98581 0.24116 0.34048 0.0
C31 C 0.99922 0.20527 0.56513 0.0
H32 H 0.04485 0.30768 0.73803 0.0
H33 H 0.106 0.29348 0.92218 0.0
H34 H 1.0259 0.30482 0.84626 0.0
H35 H 0.12542 0.29741 0.81418 0.0
H36 H 0.04135 0.24913 0.28862 0.0
H37 H 0.97398 0.27516 0.13958 0.0
H38 H 0.05901 0.26557 0.18137 0.0
H39 H 0.9559 0.25787 0.24691 0.0
Eu40 Eu 0.82028 0.78959 0.49095 0.0
Eu41 Eu 0.80843 0.82236 0.61649 0.0
C42 C 0.75648 0.79494 0.48808 0.0
C43 C 0.82225 0.76918 0.31487 0.0
C44 C 0.81823 0.79574 0.2999 0.0
C45 C 0.8164 0.75305 0.20002 0.0
C46 C 0.81319 0.80086 0.23581 0.0
C47 C 0.82121 0.74779 0.2645 0.0
C48 C 0.8124 0.77974 0.18491 0.0
C49 C 0.82792 0.76437 0.38291 0.0
O50 O 0.77698 0.76757 0.61447 0.0
O51 O 0.81355 0.75603 0.57627 0.0
C52 C 0.79091 0.74993 0.6175 0.0
O53 O 0.87071 0.82423 0.53781 0.0
O54 O 0.77523 0.82028 0.68809 0.0
O55 O 0.82731 0.85635 0.70352 0.0
O56 O 0.85419 0.81706 0.63897 0.0
C57 C 0.87757 0.82449 0.5992 0.0
O58 O 0.82336 0.83816 0.46086 0.0
O59 O 0.83601 0.86662 0.56037 0.0
O60 O 0.77059 0.81876 0.53576 0.0
O61 O 0.85165 0.79028 0.41676 0.0
O62 O 0.80175 0.7492 0.41463 0.0
O63 O 0.76714 0.77451 0.47891 0.0
C64 C 0.79969 0.83159 0.79464 0.0
C65 C 0.80718 0.80683 0.80569 0.0
C66 C 0.79399 0.83697 0.90924 0.0
C67 C 0.80756 0.79683 0.86792 0.0
C68 C 0.79303 0.84654 0.84679 0.0
C69 C 0.80114 0.81195 0.9204 0.0
C70 C 0.7991 0.84199 0.72904 0.0
C71 C 0.83352 0.86606 0.49736 0.0
H72 H 0.81933 0.81279 0.3379 0.0
H73 H 0.81667 0.73673 0.16206 0.0
H74 H 0.81003 0.82153 0.22607 0.0
H75 H 0.82466 0.72738 0.27498 0.0
H76 H 0.81283 0.79532 0.76614 0.0
H77 H 0.78903 0.84905 0.94891 0.0
H78 H 0.81356 0.7778 0.87526 0.0
H79 H 0.78733 0.86576 0.83928 0.0
Eu80 Eu 0.26072 1.01969 0.58563 0.0
Eu81 Eu 0.26648 0.0568 0.46371 0.0
C82 C 0.32609 0.07731 0.56954 0.0
C83 C 0.25612 1.00249 0.76217 0.0
C84 C 0.25514 1.03108 0.77949 0.0
C85 C 0.2533 0.98999 0.87406 0.0
C86 C 0.25397 0.03948 0.84396 0.0
C87 C 0.25476 0.98175 0.80952 0.0
C88 C 0.25337 1.01919 0.89198 0.0
C89 C 0.26215 0.99625 0.69625 0.0
O90 O 0.28458 1.02421 0.42692 0.0
O91 O 0.26787 0.98779 0.50603 0.0
C92 C 0.27945 0.99651 0.44856 0.0
O93 O 0.20827 0.99605 0.54617 0.0
O94 O 0.29843 0.09171 0.39764 0.0
O95 O 0.24636 0.07513 0.39103 0.0
O96 O 0.22024 1.00402 0.44168 0.0
C97 C 0.19922 0.98746 0.48482 0.0
O98 O 0.25844 0.06732 0.61521 0.0
O99 O 0.2321 0.06447 0.5205 0.0
O100 O 0.30891 0.08969 0.54448 0.0
O101 O 0.23671 0.98179 0.65371 0.0
O102 O 0.28756 1.02116 0.6743 0.0
O103 O 0.31216 0.04563 0.55838 0.0
C104 C 0.27142 0.0813 0.29459 0.0
C105 C 0.2664 0.05014 0.27439 0.0
C106 C 0.27015 0.09339 0.18294 0.0
C107 C 0.2634 0.04069 0.20893 0.0
C108 C 0.27333 0.10294 0.24871 0.0
C109 C 0.26506 0.06214 0.16264 0.0
C110 C 0.27392 0.09058 0.36353 0.0
C111 C 0.24117 0.07694 0.57988 0.0
H112 H 0.25659 0.04758 0.74346 0.0
H113 H 0.25277 0.97389 0.91014 0.0
H114 H 0.25486 0.06251 0.85644 0.0
H115 H 0.25581 0.95976 0.79685 0.0
H116 H 0.2646 0.03304 0.30929 0.0
H117 H 0.27193 0.11048 0.148 0.0
H118 H 0.25933 1.01643 0.19439 0.0
H119 H 0.27718 0.12706 0.2637 0.0
Eu120 Eu 0.0618 0.81183 0.60636 0.0
Eu121 Eu 1.01396 0.78619 0.47555 0.0
C122 C 0.99532 0.81811 0.59065 0.0
C123 C 0.08482 0.81704 0.78474 0.0
C124 C 0.05187 0.79356 0.79379 0.0
C125 C 0.09757 0.82434 0.9011 0.0
C126 C 0.04175 0.78594 0.85611 0.0
C127 C 0.10766 0.83196 0.8388 0.0
C128 C 0.06433 0.8018 0.91067 0.0
C129 C 0.09499 0.8272 0.71956 0.0
O130 O 0.06226 0.83422 0.45547 0.0
O131 O 0.07813 0.85863 0.55824 0.0
C132 C 0.08032 0.86079 0.49611 0.0
O133 O 0.09085 0.80541 0.52397 0.0
O134 O 0.9907 0.79476 0.39141 0.0
O135 O 0.98665 0.74728 0.3971 0.0
O136 O 0.04414 0.7621 0.47778 0.0
C137 C 0.07606 0.78023 0.47909 0.0
O138 O 1.02929 0.75736 0.6099 0.0
O139 O 0.98369 0.75064 0.55302 0.0
O140 O 0.99647 0.81594 0.52817 0.0
O141 O 0.09233 0.8043 0.6779 0.0
O142 O 0.08415 0.84504 0.69414 0.0
O143 O 1.014 0.81161 0.62966 0.0
C144 C 0.99493 0.76942 0.2951 0.0
C145 C 1.02857 0.79042 0.28708 0.0
C146 C 0.98475 0.75561 0.17884 0.0
C147 C 0.04013 0.7943 0.22558 0.0
C148 C 0.97319 0.75162 0.24063 0.0
C149 C 1.01827 0.77758 0.17044 0.0
C150 C 0.98273 0.7668 0.36001 0.0
C151 C 0.99728 0.74154 0.599 0.0
H152 H 1.03381 0.78168 0.75267 0.0
H153 H 0.11575 0.83639 0.94193 0.0
H154 H 1.01602 0.76844 0.86169 0.0
H155 H 0.13321 0.84997 0.83293 0.0
H156 H 0.04594 0.80399 0.32848 0.0
H157 H 0.9673 0.74225 0.13746 0.0
H158 H 0.06623 0.81061 0.22117 0.0
H159 H 0.94719 0.73507 0.24572 0.0
Eu160 Eu 0.27279 0.24789 0.45978 0.0
Eu161 Eu 0.25507 0.27551 0.58477 0.0
C162 C 0.20137 0.24305 0.46794 0.0
C163 C 0.28268 0.23425 0.28422 0.0
C164 C 0.26215 0.24645 0.26559 0.0
C165 C 0.29821 0.23651 0.17394 0.0
C166 C 0.26025 0.25436 0.2022 0.0
C167 C 0.30061 0.22919 0.2379 0.0
C168 C 0.27831 0.24955 0.1558 0.0
C169 C 0.28568 0.22745 0.35204 0.0
O170 O 0.25572 0.22812 0.61068 0.0
O171 O 0.24022 0.20266 0.50943 0.0
C172 C 0.24384 0.20089 0.57141 0.0
O173 O 0.31064 0.25547 0.54602 0.0
O174 O 0.22205 0.26735 0.66062 0.0
O175 O 0.26811 0.31359 0.66364 0.0
O176 O 0.30969 0.29946 0.58838 0.0
C177 C 0.32285 0.28106 0.58993 0.0
O178 O 0.29571 0.30188 0.4479 0.0
O179 O 0.2606 0.31109 0.50438 0.0
O180 O 0.20629 0.24316 0.53001 0.0
O181 O 0.30798 0.25237 0.3904 0.0
O182 O 0.258 0.21085 0.37874 0.0
O183 O 0.22586 0.25044 0.43083 0.0
C184 C 0.25044 0.29002 0.76262 0.0
C185 C 0.26415 0.27031 0.77563 0.0
C186 C 0.24878 0.29912 0.87795 0.0
C187 C 0.27059 0.26544 0.83924 0.0
C188 C 0.24285 0.30443 0.8142 0.0
C189 C 0.2629 0.27966 0.8914 0.0
C190 C 0.24301 0.29443 0.69534 0.0
C191 C 0.28116 0.31876 0.45777 0.0
H192 H 0.24762 0.24995 0.30025 0.0
H193 H 0.3123 0.23252 0.13891 0.0
H194 H 0.24443 0.26399 0.18922 0.0
H195 H 0.3165 0.21969 0.2512 0.0
H196 H 0.27005 0.25879 0.73649 0.0
H197 H 0.24155 0.30964 0.91652 0.0
H198 H 0.28166 0.25052 0.84754 0.0
H199 H 0.23185 0.31935 0.80518 0.0
Eu200 Eu 0.81556 1.00938 0.61042 0.0
Eu201 Eu 0.81701 0.04632 0.48789 0.0
C202 C 0.88191 0.07821 0.58045 0.0
C203 C 0.80692 0.98379 0.7807 0.0
C204 C 0.83448 0.99373 0.82447 0.0
C205 C 0.77874 0.99257 0.86735 0.0
C206 C 0.83445 1.00366 0.88866 0.0
C207 C 0.77879 0.98273 0.80312 0.0
C208 C 0.8068 1.00372 0.91041 0.0
C209 C 0.80838 0.97639 0.71154 0.0
O210 O 0.81935 0.99922 0.45566 0.0
O211 O 0.84644 0.99883 0.54807 0.0
C212 C 0.83654 0.98837 0.48774 0.0
O213 O 0.77181 0.97628 0.53261 0.0
O214 O 0.8358 0.08377 0.41768 0.0
O215 O 0.7856 0.0422 0.40404 0.0
O216 O 0.76782 1.02005 0.52539 0.0
C217 C 0.75376 0.98851 0.51215 0.0
O218 O 0.79966 0.04327 0.65153 0.0
O219 O 0.81271 0.07847 0.57037 0.0
O220 O 0.87052 0.07051 0.51982 0.0
O221 O 0.78375 0.97187 0.6724 0.0
O222 O 0.83677 0.99432 0.6878 0.0
O223 O 0.86292 0.06153 0.62618 0.0
C224 C 0.81103 0.06351 0.31009 0.0
C225 C 0.78384 0.05591 0.2672 0.0
C226 C 0.83868 0.05674 0.2206 0.0
C227 C 0.78379 0.04825 0.20168 0.0
C228 C 0.83861 0.06414 0.28635 0.0
C229 C 0.81113 0.04841 0.17772 0.0
C230 C 0.80863 0.06811 0.37949 0.0
C231 C 0.80374 0.07061 0.62968 0.0
H232 H 0.85639 0.99455 0.80873 0.0
H233 H 0.75677 0.99152 0.88328 0.0
H234 H 0.85636 1.01203 0.92098 0.0
H235 H 0.75694 0.97481 0.77095 0.0
H236 H 0.76217 0.05493 0.28478 0.0
H237 H 0.86011 0.0571 0.20335 0.0
H238 H 0.76189 0.04113 0.17024 0.0
H239 H 0.85976 0.06963 0.31863 0.0
Eu240 Eu 0.68738 0.58748 0.8152 0.0
Eu241 Eu 0.73513 0.61216 0.94584 0.0
C242 C 0.74948 0.65833 0.82558 0.0
C243 C 0.66799 0.582 0.63513 0.0
C244 C 0.69684 0.61223 0.62723 0.0
C245 C 0.66342 0.56709 0.52 0.0
C246 C 0.70888 0.61977 0.56623 0.0
C247 C 0.65131 0.55965 0.58092 0.0
C248 C 0.6926 0.59707 0.51189 0.0
C249 C 0.65639 0.57265 0.69996 0.0
O250 O 0.70297 0.63394 0.95411 0.0
O251 O 0.65728 0.59354 0.89537 0.0
C252 C 0.67088 0.61645 0.94489 0.0
O253 O 0.66823 0.54065 0.86499 0.0
O254 O 0.76242 0.6497 1.02669 0.0
O255 O 0.76266 0.60401 1.02279 0.0
O256 O 0.68697 0.56477 0.96803 0.0
C257 C 0.6673 0.53863 0.92744 0.0
O258 O 0.73584 0.58884 0.79296 0.0
O259 O 0.7478 0.57837 0.89279 0.0
O260 O 0.76402 0.64834 0.86764 0.0
O261 O 0.66546 0.55394 0.72767 0.0
O262 O 0.65912 0.5961 0.74029 0.0
O263 O 0.7174 0.64242 0.81849 0.0
C264 C 0.76022 0.62587 0.12578 0.0
C265 C 0.73236 0.59651 0.14135 0.0
C266 C 0.76887 0.64747 0.23819 0.0
C267 C 0.72279 0.59274 0.2045 0.0
C268 C 0.77846 0.65125 0.17487 0.0
C269 C 0.74081 0.6182 0.25374 0.0
C270 C 0.76951 0.63055 0.05834 0.0
C271 C 0.75199 0.57919 0.83132 0.0
H272 H 0.71032 0.62987 0.66836 0.0
H273 H 0.65034 0.54897 0.4794 0.0
H274 H 0.73096 0.64339 0.56169 0.0
H275 H 0.6292 0.5361 0.58589 0.0
H276 H 0.7176 0.57661 0.10446 0.0
H277 H 0.78292 0.66774 0.27468 0.0
H278 H 0.70114 0.56988 0.21481 0.0
H279 H 0.79985 0.6742 0.16403 0.0
Eu280 Eu 0.48631 0.12458 0.80508 0.0
Eu281 Eu 0.46973 0.15328 0.93027 0.0
C282 C 0.4194 0.11989 0.80319 0.0
C283 C 0.48262 0.10244 0.62642 0.0
C284 C 0.46052 0.11342 0.61281 0.0
C285 C 0.48936 0.09926 0.51172 0.0
C286 C 0.45301 0.11743 0.54922 0.0
C287 C 0.49655 0.09487 0.57535 0.0
C288 C 0.46808 0.11133 0.49797 0.0
C289 C 0.49271 0.10091 0.6938 0.0
O290 O 0.44589 0.09886 0.93649 0.0
O291 O 0.48377 0.09154 0.88825 0.0
C292 C 0.46254 0.0838 0.93331 0.0
O293 O 0.53598 0.15496 0.85765 0.0
O294 O 0.43313 0.14754 0.99723 0.0
O295 O 0.48358 0.18773 1.01555 0.0
O296 O 0.51781 0.15259 0.95825 0.0
C297 C 0.54158 0.15793 0.92028 0.0
O298 O 0.48808 0.17334 0.77925 0.0
O299 O 0.5012 0.19876 0.88108 0.0
O300 O 0.43278 0.14685 0.84357 0.0
O301 O 0.51529 0.12901 0.72343 0.0
O302 O 0.46906 0.08382 0.73035 0.0
O303 O 0.4321 0.10122 0.80795 0.0
C304 C 0.45552 0.16162 0.10585 0.0
C305 C 0.47676 0.15061 0.12694 0.0
C306 C 0.43448 0.15409 0.21204 0.0
C307 C 0.47673 0.14124 0.18983 0.0
C308 C 0.43427 0.16312 0.14881 0.0
C309 C 0.45583 0.14319 0.23332 0.0
C310 C 0.455 0.17083 0.03897 0.0
C311 C 0.49922 0.2005 0.81875 0.0
H312 H 0.44966 0.11961 0.65158 0.0
H313 H 0.5014 0.09432 0.47352 0.0
H314 H 0.43579 0.12584 0.54034 0.0
H315 H 0.5137 0.08642 0.58484 0.0
H316 H 0.49329 0.14907 0.09459 0.0
H317 H 0.41781 0.15544 0.24423 0.0
H318 H 0.49349 0.13303 0.20485 0.0
H319 H 0.41753 0.17132 0.13347 0.0
Eu320 Eu 0.93499 0.38921 0.8012 0.0
Eu321 Eu 0.92317 0.34649 0.92035 0.0
C322 C 0.95185 0.33422 0.78944 0.0
C323 C 0.94261 0.40808 0.62548 0.0
C324 C 0.92864 0.37446 0.60496 0.0
C325 C 0.95621 0.42224 0.51594 0.0
C326 C 0.92888 0.36484 0.54053 0.0
C327 C 0.95634 0.43188 0.58058 0.0
C328 C 0.94272 0.38866 0.49545 0.0
C329 C 0.94341 0.41842 0.69367 0.0
O330 O 0.97667 0.38343 0.93401 0.0
O331 O 0.97542 0.42456 0.88246 0.0
C332 C 0.98939 0.41476 0.92631 0.0
O333 O 0.90634 0.4045 0.86025 0.0
O334 O 0.93962 0.32234 0.98754 0.0
O335 O 0.89268 0.31888 0.99615 0.0
O336 O 0.92322 0.39442 0.9565 0.0
C337 C 0.91138 0.41002 0.9228 0.0
O338 O 0.8888 0.3366 0.77502 0.0
O339 O 0.87272 0.3294 0.87629 0.0
O340 O 0.92946 0.31823 0.83089 0.0
O341 O 0.91542 0.40342 0.71972 0.0
O342 O 0.96757 0.42127 0.73174 0.0
O343 O 0.96578 0.36618 0.79355 0.0
C344 C 0.92404 0.32536 0.09223 0.0
C345 C 0.93826 0.35907 0.11193 0.0
C346 C 0.92273 0.31324 0.20463 0.0
C347 C 0.94406 0.36973 0.17747 0.0
C348 C 0.9168 0.30256 0.13888 0.0
C349 C 0.93593 0.34689 0.22458 0.0
C350 C 0.91512 0.31404 1.02332 0.0
C351 C 0.86544 0.32123 0.81474 0.0
H352 H 0.91794 0.3557 0.63897 0.0
H353 H 0.96695 0.44103 0.48201 0.0
H354 H 0.91801 0.33878 0.52579 0.0
H355 H 0.9672 0.45792 0.59554 0.0
H356 H 0.94416 0.37707 0.07653 0.0
H357 H 0.91584 0.29503 0.23979 0.0
H358 H 0.95448 0.39581 0.1914 0.0
H359 H 0.9058 0.27645 0.1245 0.0
Eu360 Eu 0.72618 0.14766 0.93899 0.0
Eu361 Eu 0.67862 0.12216 0.80699 0.0
C362 C 0.66085 0.15502 0.921 0.0
C363 C 0.74556 0.14973 0.11819 0.0
C364 C 0.71811 0.1181 0.12404 0.0
C365 C 0.74923 0.16156 0.23429 0.0
C366 C 0.70627 0.10836 0.18454 0.0
C367 C 0.76114 0.1712 0.17391 0.0
C368 C 0.72137 0.13019 0.24041 0.0
C369 C 0.75694 0.16126 0.0542 0.0
O370 O 0.72694 0.16961 0.78554 0.0
O371 O 0.7455 0.19427 0.8884 0.0
C372 C 0.74645 0.19596 0.82583 0.0
O373 O 0.7561 0.14067 0.86032 0.0
O374 O 0.65294 0.12994 0.72591 0.0
O375 O 0.65077 0.08314 0.72875 0.0
O376 O 0.71038 0.09976 0.80235 0.0
C377 C 0.74246 0.11702 0.81228 0.0
O378 O 0.69553 0.09293 0.93549 0.0
O379 O 0.6491 0.08703 0.88573 0.0
O380 O 0.66388 0.15457 0.85904 0.0
O381 O 0.7557 0.13942 1.01155 0.0
O382 O 0.74644 0.17944 1.02907 0.0
O383 O 0.67784 0.14662 0.96012 0.0
C384 C 0.65453 0.10446 0.62624 0.0
C385 C 0.68218 0.13318 0.60793 0.0
C386 C 0.64605 0.07916 0.51675 0.0
C387 C 0.69161 0.13489 0.54487 0.0
C388 C 0.63653 0.0775 0.58 0.0
C389 C 0.67375 0.10793 0.49841 0.0
C390 C 0.64506 0.1022 0.69361 0.0
C391 C 0.66348 0.07748 0.9289 0.0
H392 H 0.70555 0.10104 0.08175 0.0
H393 H 0.76136 0.17907 0.2761 0.0
H394 H 0.68523 0.08378 0.18747 0.0
H395 H 0.78219 0.19574 0.17056 0.0
H396 H 0.69679 0.15427 0.64258 0.0
H397 H 0.63212 0.05773 0.48257 0.0
H398 H 0.71296 0.15744 0.53238 0.0
H399 H 0.6153 0.05501 0.59302 0.0
Eu400 Eu 0.92923 0.60936 0.93084 0.0
Eu401 Eu 0.94049 0.57657 0.80462 0.0
C402 C 0.91551 0.53266 0.92309 0.0
C403 C 0.93036 0.63225 0.10831 0.0
C404 C 0.93508 0.60634 0.12548 0.0
C405 C 0.93751 0.65091 0.22208 0.0
C406 C 0.94137 0.60298 0.19017 0.0
C407 C 0.93189 0.65469 0.15704 0.0
C408 C 0.94229 0.625 0.23905 0.0
C409 C 0.92339 0.63543 0.03989 0.0
O410 O 0.89397 0.58085 0.78303 0.0
O411 O 0.8785 0.57515 0.88519 0.0
C412 C 0.87108 0.57415 0.82377 0.0
O413 O 0.9339 0.64221 0.84534 0.0
O414 O 0.92167 0.54279 0.71738 0.0
O415 O 0.97381 0.57855 0.73325 0.0
O416 O 0.97054 0.63139 0.80459 0.0
C417 C 0.95592 0.64842 0.80259 0.0
O418 O 0.9829 0.62691 0.93496 0.0
O419 O 0.97868 0.58096 0.88585 0.0
O420 O 0.91254 0.53229 0.86019 0.0
O421 O 0.94885 0.65029 1.00623 0.0
O422 O 0.89943 0.60885 1.00817 0.0
O423 O 0.92652 0.56068 0.95997 0.0
C424 C 0.9495 0.56824 0.6267 0.0
C425 C 0.93543 0.58764 0.61373 0.0
C426 C 0.96418 0.57114 0.51584 0.0
C427 C 0.93612 0.59908 0.55256 0.0
C428 C 0.96384 0.56006 0.57734 0.0
C429 C 0.95062 0.5911 0.50275 0.0
C430 C 0.94989 0.55724 0.6919 0.0
C431 C 0.99342 0.60622 0.93058 0.0
H432 H 0.93358 0.58848 0.08881 0.0
H433 H 0.93804 0.66812 0.25911 0.0
H434 H 0.94463 0.58262 0.20222 0.0
H435 H 0.92828 0.67482 0.14487 0.0
H436 H 0.92438 0.59442 0.65129 0.0
H437 H 0.97458 0.56356 0.47831 0.0
H438 H 0.92562 0.61452 0.54452 0.0
H439 H 0.97465 0.54495 0.58624 0.0
Eu440 Eu 0.47653 0.34634 0.93216 0.0
Eu441 Eu 0.49637 0.38933 0.81186 0.0
C442 C 0.54896 0.41264 0.92854 0.0
C443 C 0.46574 0.32599 0.10493 0.0
C444 C 0.48855 0.3591 0.12614 0.0
C445 C 0.4492 0.31543 0.21408 0.0
C446 C 0.49189 0.37023 0.19083 0.0
C447 C 0.44584 0.30428 0.1491 0.0
C448 C 0.47261 0.34841 0.23565 0.0
C449 C 0.46239 0.31453 0.0366 0.0
O450 O 0.4937 0.33963 0.78087 0.0
O451 O 0.50849 0.33231 0.88109 0.0
C452 C 0.50464 0.32483 0.81905 0.0
O453 O 0.43684 0.31375 0.84756 0.0
O454 O 0.52957 0.41202 0.73643 0.0
O455 O 0.48812 0.41909 0.7444 0.0
O456 O 0.4423 0.35662 0.79193 0.0
C457 C 0.42612 0.32525 0.80101 0.0
O458 O 0.4537 0.37701 0.9479 0.0
O459 O 0.4902 0.42052 0.89514 0.0
O460 O 0.54431 0.4049 0.86665 0.0
O461 O 0.44071 0.31689 0.99977 0.0
O462 O 0.48995 0.32473 1.0097 0.0
O463 O 0.52377 0.39731 0.96443 0.0
C464 C 0.5029 0.41364 0.64019 0.0
C465 C 0.47791 0.38144 0.61784 0.0
C466 C 0.51481 0.42667 0.5298 0.0
C467 C 0.47176 0.37176 0.55178 0.0
C468 C 0.52094 0.43633 0.59584 0.0
C469 C 0.4907 0.39407 0.50725 0.0
C470 C 0.5118 0.42287 0.70958 0.0
C471 C 0.46875 0.40848 0.93989 0.0
H472 H 0.5039 0.37636 0.09264 0.0
H473 H 0.434 0.29815 0.2477 0.0
H474 H 0.50959 0.39595 0.20585 0.0
H475 H 0.42789 0.27872 0.13343 0.0
H476 H 0.46381 0.36355 0.65159 0.0
H477 H 0.52932 0.44453 0.49638 0.0
H478 H 0.45306 0.34651 0.53569 0.0
H479 H 0.54027 0.46128 0.61236 0.0
Eu480 Eu 0.40325 0.94879 0.26296 0.0
Eu481 Eu 0.35589 0.9226 0.13059 0.0
C482 C 0.34162 0.95567 0.25631 0.0
C483 C 0.42271 0.96685 0.44372 0.0
C484 C 0.38891 0.94784 0.45262 0.0
C485 C 0.4343 0.98034 0.55983 0.0
C486 C 0.3779 0.9451 0.51454 0.0
C487 C 0.44528 0.9833 0.49772 0.0
C488 C 0.40047 0.96111 0.569 0.0
C489 C 0.43435 0.9686 0.37854 0.0
O490 O 0.38941 0.97677 0.12317 0.0
O491 O 0.43391 0.98363 0.18504 0.0
C492 C 0.42128 0.99212 0.13618 0.0
O493 O 0.42228 0.91991 0.21203 0.0
O494 O 0.32484 0.92944 0.05894 0.0
O495 O 0.33409 0.88939 0.04269 0.0
O496 O 0.40398 0.92269 0.10992 0.0
C497 C 0.42345 0.91746 0.14962 0.0
O498 O 0.35469 0.90121 0.28311 0.0
O499 O 0.3383 0.87604 0.18076 0.0
O500 O 0.3271 0.93049 0.21139 0.0
O501 O 0.42586 0.94026 0.34813 0.0
O502 O 0.43058 0.988 0.34082 0.0
O503 O 0.37363 0.97345 0.25994 0.0
C504 C 0.33298 0.91738 0.95228 0.0
C505 C 0.36624 0.93985 0.94395 0.0
C506 C 0.32035 0.91353 0.83615 0.0
C507 C 0.37653 0.94877 0.8823 0.0
C508 C 0.31004 0.90454 0.89801 0.0
C509 C 0.35384 0.93549 0.82755 0.0
C510 C 0.32268 0.90677 1.01722 0.0
C511 C 0.33629 0.87448 0.24311 0.0
H512 H 0.37104 0.93488 0.41162 0.0
H513 H 0.45226 0.99303 0.6008 0.0
H514 H 0.35176 0.92972 0.51995 0.0
H515 H 0.47145 0.99808 0.49197 0.0
H516 H 0.38431 0.95017 0.98518 0.0
H517 H 0.3023 0.90256 0.79491 0.0
H518 H 0.4023 0.96602 0.87715 0.0
H519 H 0.28425 0.88714 0.90332 0.0
Eu520 Eu 0.1608 0.46214 0.14053 0.0
Eu521 Eu 0.14172 0.48815 0.26601 0.0
C522 C 0.0931 0.45852 0.1328 0.0
C523 C 0.17005 0.44772 0.96452 0.0
C524 C 0.16915 0.47588 0.94813 0.0
C525 C 0.15964 0.42828 0.85079 0.0
C526 C 0.16321 0.48004 0.8838 0.0
C527 C 0.16543 0.42404 0.91538 0.0
C528 C 0.15806 0.45616 0.8343 0.0
C529 C 0.17458 0.44253 1.03279 0.0
O530 O 0.1171 0.43352 0.27201 0.0
O531 O 0.15496 0.42676 0.22094 0.0
C532 C 0.13262 0.41752 0.26406 0.0
O533 O 0.20904 0.49777 0.19438 0.0
O534 O 0.10537 0.48332 0.33237 0.0
O535 O 0.15656 0.52149 0.35351 0.0
O536 O 0.1891 0.48588 0.29224 0.0
C537 C 0.21404 0.49568 0.25543 0.0
O538 O 0.16026 0.50934 0.11429 0.0
O539 O 0.17121 0.53453 0.21633 0.0
O540 O 0.10453 0.48227 0.1805 0.0
O541 O 0.19571 0.46876 0.06956 0.0
O542 O 0.14777 0.42434 0.06101 0.0
O543 O 0.10621 0.44002 0.12927 0.0
C544 C 0.1269 0.49537 0.4417 0.0
C545 C 0.12444 0.46503 0.453 0.0
C546 C 0.13327 0.50882 0.55757 0.0
C547 C 0.1268 0.45684 0.51611 0.0
C548 C 0.13089 0.51698 0.49445 0.0
C549 C 0.1318 0.47887 0.5693 0.0
C550 C 0.1275 0.50552 0.37544 0.0
C551 C 0.16961 0.53607 0.15377 0.0
H552 H 0.17232 0.49436 0.98525 0.0
H553 H 0.15656 0.40979 0.81381 0.0
H554 H 0.1619 0.50164 0.87294 0.0
H555 H 0.16607 0.40216 0.92698 0.0
H556 H 0.12145 0.448 0.41295 0.0
H557 H 0.13672 0.52621 0.59731 0.0
H558 H 0.12585 0.43377 0.52308 0.0
H559 H 0.13286 0.54051 0.48683 0.0
Eu560 Eu 0.58656 0.68271 0.26435 0.0
Eu561 Eu 0.60666 0.72524 0.14297 0.0
C562 C 0.65621 0.74773 0.27728 0.0
C563 C 0.57756 0.65536 0.43498 0.0
C564 C 0.60918 0.68006 0.46099 0.0
C565 C 0.55855 0.64842 0.54245 0.0
C566 C 0.61525 0.68921 0.52728 0.0
C567 C 0.55254 0.63912 0.47633 0.0
C568 C 0.58968 0.6743 0.56828 0.0
C569 C 0.56957 0.64792 0.36485 0.0
O570 O 0.62904 0.69415 0.12737 0.0
O571 O 0.59271 0.65127 0.18188 0.0
C572 C 0.61394 0.66284 0.13678 0.0
O573 O 0.53936 0.67035 0.21059 0.0
O574 O 0.64242 0.75371 0.07444 0.0
O575 O 0.59344 0.74678 0.06513 0.0
O576 O 0.55904 0.67429 0.11304 0.0
C577 C 0.53402 0.66048 0.14966 0.0
O578 O 0.58998 0.73268 0.29516 0.0
O579 O 0.57672 0.74187 0.19487 0.0
O580 O 0.64607 0.75805 0.22759 0.0
O581 O 0.55262 0.65987 0.33875 0.0
O582 O 0.59323 0.65141 0.33021 0.0
O583 O 0.64019 0.71673 0.28931 0.0
C584 C 0.61706 0.74444 0.96924 0.0
C585 C 0.58893 0.71463 0.94429 0.0
C586 C 0.63871 0.75126 0.86386 0.0
C587 C 0.5854 0.70365 0.87948 0.0
C588 C 0.64208 0.7625 0.92876 0.0
C589 C 0.61009 0.72201 0.83862 0.0
C590 C 0.62073 0.75612 0.03765 0.0
C591 C 0.58048 0.74871 0.25717 0.0
H592 H 0.62891 0.69297 0.42994 0.0
H593 H 0.53864 0.63581 0.57324 0.0
H594 H 0.63956 0.70891 0.54609 0.0
H595 H 0.52806 0.61985 0.4572 0.0
H596 H 0.56957 0.69982 0.9748 0.0
H597 H 0.65808 0.7657 0.83308 0.0
H598 H 0.56336 0.68076 0.86117 0.0
H599 H 0.66414 0.78531 0.94731 0.0
Eu600 Eu 0.3983 0.48341 0.2687 0.0
Eu601 Eu 0.35104 0.45869 0.13561 0.0
C602 C 0.33363 0.49171 0.25033 0.0
C603 C 0.42165 0.49095 0.4486 0.0
C604 C 0.42387 0.51522 0.49374 0.0
C605 C 0.39798 0.45043 0.52875 0.0
C606 C 0.41265 0.5071 0.55499 0.0
C607 C 0.40894 0.45849 0.46709 0.0
C608 C 0.39921 0.47456 0.57306 0.0
C609 C 0.43116 0.49967 0.38208 0.0
O610 O 0.39906 0.50645 0.11587 0.0
O611 O 0.4153 0.53022 0.21932 0.0
C612 C 0.41744 0.53257 0.1571 0.0
O613 O 0.42841 0.47703 0.18971 0.0
O614 O 0.32592 0.46806 0.05592 0.0
O615 O 0.32255 0.42063 0.05653 0.0
O616 O 0.38449 0.43865 0.12264 0.0
C617 C 0.41623 0.45541 0.13821 0.0
O618 O 0.36416 0.42936 0.27695 0.0
O619 O 0.32052 0.423 0.21274 0.0
O620 O 0.33689 0.49157 0.1884 0.0
O621 O 0.42871 0.47642 0.34148 0.0
O622 O 0.42076 0.51757 0.35515 0.0
O623 O 0.35051 0.48323 0.28947 0.0
C624 C 0.32754 0.44338 0.95471 0.0
C625 C 0.32359 0.41567 0.91762 0.0
C626 C 0.35143 0.47674 0.86431 0.0
C627 C 0.33379 0.41858 0.85482 0.0
C628 C 0.34133 0.47388 0.92691 0.0
C629 C 0.34811 0.44925 0.82764 0.0
C630 C 0.31785 0.44059 1.02222 0.0
C631 C 0.3324 0.41415 0.26224 0.0
H632 H 0.43372 0.54045 0.48115 0.0
H633 H 0.38731 0.42503 0.54077 0.0
H634 H 0.41427 0.52633 0.58823 0.0
H635 H 0.40669 0.43908 0.43351 0.0
H636 H 0.31275 0.39175 0.93726 0.0
H637 H 0.36249 0.50074 0.84496 0.0
H638 H 0.3302 0.39678 0.82737 0.0
H639 H 0.34472 0.49578 0.95367 0.0
Eu640 Eu 0.61547 0.91969 0.14349 0.0
Eu641 Eu 0.59593 0.94761 0.26594 0.0
C642 C 0.54292 0.91413 0.14904 0.0
C643 C 0.63013 0.91578 0.96717 0.0
C644 C 0.61132 0.93034 0.95167 0.0
C645 C 0.64736 0.92216 0.85758 0.0
C646 C 0.61049 0.94064 0.88981 0.0
C647 C 0.64832 0.912 0.91971 0.0
C648 C 0.62832 0.93653 0.84165 0.0
C649 C 0.63074 0.90469 1.0326 0.0
O650 O 0.59509 0.89961 0.29315 0.0
O651 O 0.58521 0.87358 0.19211 0.0
C652 C 0.58572 0.87247 0.2547 0.0
O653 O 0.6516 0.92563 0.23211 0.0
O654 O 0.5653 0.94111 0.34566 0.0
O655 O 0.60979 0.98806 0.34013 0.0
O656 O 0.65036 0.97003 0.26971 0.0
C657 C 0.66321 0.95152 0.27522 0.0
O658 O 0.64185 0.97463 0.14723 0.0
O659 O 0.60138 0.98129 0.18126 0.0
O660 O 0.54703 0.9153 0.21156 0.0
O661 O 0.65246 0.92687 0.07615 0.0
O662 O 0.60213 0.88703 0.05546 0.0
O663 O 0.56815 0.92157 0.11378 0.0
C664 C 0.59599 0.96889 0.44411 0.0
C665 C 0.61325 0.95281 0.46026 0.0
C666 C 0.59416 0.98023 0.55868 0.0
C667 C 0.62125 0.95081 0.52502 0.0
C668 C 0.58676 0.98282 0.49387 0.0
C669 C 0.61142 0.96414 0.57499 0.0
C670 C 0.58622 0.96971 0.37583 0.0
C671 C 0.62521 0.98953 0.14173 0.0
H672 H 0.59734 0.9339 0.98759 0.0
H673 H 0.66088 0.91795 0.82156 0.0
H674 H 0.59583 0.95187 0.87968 0.0
H675 H 0.66299 0.90085 0.93047 0.0
H676 H 0.62025 0.94148 0.42269 0.0
H677 H 0.58617 0.99059 0.59619 0.0
H678 H 0.63418 0.9379 0.53604 0.0
H679 H 0.57328 0.99517 0.48261 0.0
Eu680 Eu 0.14781 0.68096 0.26887 0.0
Eu681 Eu 0.16059 0.72184 0.14683 0.0
C682 C 0.21764 0.74881 0.25552 0.0
C683 C 0.13449 0.65932 0.44094 0.0
C684 C 0.14183 0.6916 0.45889 0.0
C685 C 0.12453 0.64555 0.55152 0.0
C686 C 0.14103 0.70096 0.52307 0.0
C687 C 0.12549 0.63626 0.48734 0.0
C688 C 0.1326 0.67809 0.57018 0.0
C689 C 0.13677 0.64998 0.37412 0.0
O690 O 0.16053 0.67341 0.11581 0.0
O691 O 0.17891 0.66715 0.21396 0.0
C692 C 0.17328 0.65942 0.15196 0.0
O693 O 0.10816 0.64559 0.18665 0.0
O694 O 0.19124 0.74669 0.06925 0.0
O695 O 0.14625 0.74725 0.07879 0.0
O696 O 0.10668 0.68578 0.13261 0.0
C697 C 0.09394 0.65464 0.14198 0.0
O698 O 0.12097 0.70769 0.28515 0.0
O699 O 0.15418 0.75221 0.23117 0.0
O700 O 0.21075 0.74026 0.19401 0.0
O701 O 0.11343 0.64638 0.33259 0.0
O702 O 0.16584 0.66672 0.35257 0.0
O703 O 0.19423 0.73339 0.29517 0.0
C704 C 0.16051 0.74254 0.97401 0.0
C705 C 0.1461 0.70888 0.95391 0.0
C706 C 0.15944 0.75486 0.86226 0.0
C707 C 0.13901 0.69836 0.88839 0.0
C708 C 0.16671 0.76544 0.92802 0.0
C709 C 0.14595 0.72125 0.8419 0.0
C710 C 0.17021 0.75365 0.04263 0.0
C711 C 0.13344 0.73889 0.27656 0.0
H712 H 0.1488 0.70971 0.42344 0.0
H713 H 0.1178 0.62739 0.58677 0.0
H714 H 0.14802 0.72635 0.53609 0.0
H715 H 0.11959 0.61121 0.4741 0.0
H716 H 0.14108 0.69089 0.98892 0.0
H717 H 0.16543 0.77307 0.82733 0.0
H718 H 0.12856 0.67237 0.87378 0.0
H719 H 0.17784 0.79152 0.94286 0.0
C720 C 0.09597 0.36047 0.29892 0.0
C721 C 0.12555 0.39115 0.30966 0.0
C722 C 0.08297 0.33889 0.34846 0.0
C723 C 0.09882 0.34656 0.41163 0.0
H724 H 0.08162 0.3539 0.2528 0.0
H725 H 0.05939 0.31631 0.33758 0.0
S726 S 0.17715 0.42371 0.46586 0.0
N727 N 0.16991 0.42839 0.38978 0.0
N728 N 0.14672 0.38683 0.48087 0.0
C729 C 0.12919 0.37642 0.42243 0.0
C730 C 0.14208 0.39893 0.37222 0.0
C731 C 0.74032 0.79208 0.37056 0.0
C732 C 0.73276 0.79321 0.43522 0.0
C733 C 0.71618 0.78108 0.31795 0.0
C734 C 0.68315 0.77041 0.32763 0.0
H735 H 0.76483 0.79773 0.36079 0.0
H736 H 0.72292 0.77832 0.27009 0.0
S737 S 0.65063 0.77117 0.48643 0.0
N738 N 0.69025 0.78544 0.50487 0.0
N739 N 0.64456 0.76344 0.40723 0.0
C740 C 0.67564 0.77322 0.39179 0.0
C741 C 0.70044 0.78503 0.44519 0.0
C742 C 0.27433 0.95766 0.35377 0.0
C743 C 0.29257 0.97887 0.40938 0.0
C744 C 0.28963 0.94912 0.30539 0.0
C745 C 0.32415 0.96261 0.30903 0.0
H746 H 0.24821 0.94874 0.34616 0.0
H747 H 0.2745 0.93302 0.2636 0.0
S748 S 0.38308 1.02049 0.44474 0.0
N749 N 0.3467 1.01274 0.46516 0.0
N750 N 0.37575 0.99873 0.37524 0.0
C751 C 0.34239 0.98367 0.36526 0.0
C752 C 0.32663 0.99133 0.41481 0.0
C753 C 0.36646 0.07443 0.64667 0.0
C754 C 0.35226 0.09285 0.62586 0.0
C755 C 0.38667 0.08323 0.70415 0.0
C756 C 0.39534 0.11183 0.74466 0.0
H757 H 0.36128 0.05205 0.61896 0.0
H758 H 0.39583 0.06703 0.71624 0.0
S759 S 0.36773 0.17102 0.7111 0.0
N760 N 0.34962 0.1424 0.64998 0.0
N761 N 0.38925 0.15987 0.75734 0.0
C762 C 0.38248 0.13148 0.72384 0.0
C763 C 0.36087 0.12194 0.66483 0.0
C764 C 0.95156 0.28508 0.72673 0.0
C765 C 0.95976 0.31853 0.73255 0.0
C766 C 0.96156 0.27228 0.67466 0.0
C767 C 0.97942 0.2921 0.62528 0.0
H768 H 0.93859 0.26907 0.76391 0.0
H769 H 0.95679 0.24724 0.675 0.0
S770 S 1.00562 0.38026 0.61387 0.0
N771 N 0.98632 0.37049 0.68041 0.0
N772 N 1.00358 0.34611 0.58466 0.0
C773 C 0.98638 0.32483 0.62916 0.0
C774 C 0.97695 0.33804 0.68186 0.0
C775 C 0.79723 0.70791 0.6849 0.0
C776 C 0.78305 0.72765 0.67333 0.0
C777 C 0.78898 0.68744 0.7378 0.0
C778 C 0.7667 0.68624 0.78225 0.0
H779 H 0.81416 0.70761 0.65207 0.0
H780 H 0.79897 0.6714 0.7421 0.0
S781 S 0.72446 0.73446 0.7785 0.0
N782 N 0.74601 0.74474 0.71486 0.0
N783 N 0.73249 0.70823 0.81292 0.0
C784 C 0.75376 0.70693 0.77282 0.0
C785 C 0.76132 0.72695 0.71902 0.0
C786 C 0.95911 0.71364 0.68852 0.0
C787 C 0.97877 0.71298 0.63985 0.0
C788 C 0.9508 0.69247 0.74023 0.0
C789 C 0.96267 0.67044 0.74668 0.0
H790 H 0.95159 0.73185 0.68868 0.0
H791 H 0.93609 0.69433 0.7766 0.0
S792 S 1.01469 0.65909 0.63026 0.0
N793 N 1.00832 0.68733 0.60024 0.0
N794 N 0.99497 0.64958 0.69631 0.0
C795 C 0.98179 0.66939 0.69686 0.0
C796 C 0.98921 0.69003 0.64411 0.0
C797 C 0.36877 0.27537 0.65044 0.0
C798 C 0.3467 0.28731 0.64817 0.0
C799 C 0.39276 0.28455 0.70373 0.0
C800 C 0.39486 0.30497 0.75801 0.0
H801 H 0.36874 0.26036 0.60949 0.0
H802 H 0.41099 0.27727 0.70056 0.0
S803 S 0.34166 0.34058 0.78033 0.0
N804 N 0.32848 0.31989 0.70884 0.0
N805 N 0.37154 0.33484 0.8075 0.0
C806 C 0.37166 0.31506 0.75797 0.0
C807 C 0.34821 0.30684 0.70377 0.0
C808 C 0.7919 0.11241 0.7803 0.0
C809 C 0.76161 0.11039 0.76361 0.0
C810 C 0.80683 0.10155 0.7354 0.0
C811 C 0.79287 0.08954 0.67124 0.0
H812 H 0.80317 0.12062 0.8292 0.0
H813 H 0.8289 0.10146 0.75169 0.0
S814 S 0.7144 0.07931 0.60244 0.0
N815 N 0.71865 0.0953 0.67689 0.0
N816 N 0.74729 0.07631 0.59409 0.0
C817 C 0.76353 0.0887 0.65346 0.0
C818 C 0.74787 0.0988 0.69906 0.0
C819 C 0.70275 0.94171 0.35022 0.0
C820 C 0.68582 0.95864 0.33629 0.0
C821 C 0.72341 0.94944 0.40869 0.0
C822 C 0.72721 0.97381 0.45655 0.0
H823 H 0.70075 0.92294 0.31505 0.0
H824 H 0.73724 0.93713 0.41534 0.0
S825 S 0.68781 1.02475 0.44676 0.0
N826 N 0.67569 1.00184 0.3778 0.0
N827 N 0.7104 1.01299 0.48701 0.0
C828 C 0.70914 0.98951 0.44431 0.0
C829 C 0.68975 0.983 0.38463 0.0
C830 C 0.12707 0.78754 0.42335 0.0
C831 C 0.09254 0.77355 0.42385 0.0
C832 C 0.1412 0.77896 0.37235 0.0
C833 C 0.12153 0.75685 0.31864 0.0
H834 H 0.14318 0.80411 0.4638 0.0
H835 H 0.16747 0.78832 0.37672 0.0
S836 S 1.03055 0.71502 0.29244 0.0
N837 N 1.03961 0.73698 0.36218 0.0
N838 N 0.06624 0.72262 0.26812 0.0
C839 C 0.08747 0.74416 0.31719 0.0
C840 C 0.07304 0.75207 0.36895 0.0
C841 C 0.29639 0.35552 0.29363 0.0
C842 C 0.31111 0.38975 0.30867 0.0
C843 C 0.2844 0.33291 0.34199 0.0
C844 C 0.28607 0.34304 0.40792 0.0
H845 H 0.29614 0.34626 0.24495 0.0
H846 H 0.27523 0.30715 0.32801 0.0
S847 S 0.31975 0.42984 0.47235 0.0
N848 N 0.32521 0.43262 0.39458 0.0
N849 N 0.30174 0.39005 0.48406 0.0
C850 C 0.29887 0.377 0.42298 0.0
C851 C 0.31167 0.40023 0.3739 0.0
C852 C 1.01849 0.45099 1.02975 0.0
C853 C 1.02006 0.43712 0.96917 0.0
C854 C 0.04302 0.46008 0.08181 0.0
C855 C 0.06949 0.45447 0.07613 0.0
H856 H 0.99691 0.45252 0.03863 0.0
H857 H 0.03994 0.46933 0.12788 0.0
S858 S 0.08472 0.41911 0.92696 0.0
N859 N 0.05083 0.41953 0.90664 0.0
N860 N 0.09596 0.43542 1.00219 0.0
C861 C 0.07178 0.44194 1.01458 0.0
C862 C 0.0474 0.43354 0.96199 0.0
C863 C 0.62143 0.61985 0.98304 0.0
C864 C 0.65197 0.62179 0.99642 0.0
C865 C 0.60725 0.63029 1.03068 0.0
C866 C 0.6223 0.64196 0.09435 0.0
H867 H 0.60949 0.6123 0.93456 0.0
H868 H 0.58533 0.63107 1.01642 0.0
S869 S 0.70128 0.65082 0.15577 0.0
N870 N 0.69576 0.63542 0.0804 0.0
N871 N 0.66891 0.65427 0.16758 0.0
C872 C 0.65178 0.6425 0.10881 0.0
C873 C 0.6665 0.63251 0.06075 0.0
C874 C 0.44934 0.06921 0.04713 0.0
C875 C 0.45903 0.06226 0.9879 0.0
C876 C 0.44094 0.04819 0.09781 0.0
C877 C 0.44136 1.01859 0.0924 0.0
H878 H 0.44671 0.09062 0.05367 0.0
H879 H 0.43188 0.05414 0.14009 0.0
S880 S 0.46545 0.98832 0.94886 0.0
N881 N 0.47027 1.02402 0.9289 0.0
N882 N 0.45205 0.98316 1.02169 0.0
C883 C 0.45177 1.01152 1.03415 0.0
C884 C 0.46133 0.03363 0.98285 0.0
C885 C 0.62493 0.04991 1.01853 0.0
C886 C 0.64625 0.05004 0.97283 0.0
C887 C 0.61747 1.03027 0.07263 0.0
C888 C 0.63163 1.01054 0.0842 0.0
H889 H 0.61541 0.06642 1.01456 0.0
H890 H 0.60165 1.03168 0.10687 0.0
S891 S 0.69003 1.00339 0.97861 0.0
N892 N 0.6805 1.0281 0.94228 0.0
N893 N 0.66904 0.99377 0.04299 0.0
C894 C 0.65282 1.01065 0.03774 0.0
C895 C 0.65933 1.02953 0.98257 0.0
C896 C 1.03473 0.62801 0.10163 0.0
C897 C 0.06557 0.63107 0.09502 0.0
C898 C 1.0109 0.61735 0.0488 0.0
C899 C 1.01641 0.60901 0.98642 0.0
H900 H 1.02993 0.63651 0.14678 0.0
H901 H 0.98862 0.61773 0.05601 0.0
S902 S 0.09238 0.61098 0.94325 0.0
N903 N 0.09997 0.624 1.02059 0.0
N904 N 0.05454 0.6026 0.92248 0.0
C905 C 0.04621 0.60982 0.97982 0.0
C906 C 0.0709 0.62128 1.03365 0.0
C907 C 0.45512 0.43598 0.10524 0.0
C908 C 0.43735 0.45171 0.09047 0.0
C909 C 0.46779 0.42485 0.05618 0.0
C910 C 0.46382 0.42928 0.99013 0.0
H911 H 0.45727 0.43014 0.1543 0.0
H912 H 0.47929 0.41091 0.06974 0.0
S913 S 0.42181 0.47168 0.92652 0.0
N914 N 0.4181 0.47281 1.00493 0.0
N915 N 0.44263 0.45274 0.91408 0.0
C916 C 0.44797 0.44684 0.97538 0.0
C917 C 0.43456 0.45771 1.02508 0.0
C918 C 0.13774 0.26702 0.42248 0.0
C919 C 0.10961 0.24248 0.44984 0.0
C920 C 0.16682 0.26526 0.42029 0.0
C921 C 0.16876 0.23882 0.44518 0.0
H922 H 0.13834 0.28913 0.40802 0.0
H923 H 0.18878 0.28619 0.40473 0.0
S924 S 0.10059 0.16635 0.51391 0.0
N925 N 0.08477 0.18952 0.49609 0.0
N926 N 0.13861 0.18608 0.49163 0.0
C927 C 0.13982 0.21297 0.46739 0.0
C928 C 0.11054 0.21484 0.4699 0.0
C929 C 0.81059 0.92853 0.44294 0.0
C930 C 0.83906 0.95901 0.46504 0.0
C931 C 0.80991 0.89808 0.44575 0.0
C932 C 0.83763 0.89692 0.47075 0.0
H933 H 0.78782 0.92784 0.42946 0.0
H934 H 0.78664 0.8752 0.43406 0.0
S935 S 0.91934 0.96975 0.52613 0.0
N936 N 0.89664 0.98588 0.5054 0.0
N937 N 0.89511 0.9293 0.51137 0.0
C938 C 0.86683 0.92735 0.48753 0.0
C939 C 0.86761 0.95813 0.48434 0.0
C940 C 0.11095 0.92265 0.50832 0.0
C941 C 0.1063 0.8936 0.47541 0.0
C942 C 0.13978 0.95357 0.50496 0.0
C943 C 0.16568 0.95725 0.46862 0.0
H944 H 0.09295 0.92117 0.5404 0.0
H945 H 0.14277 0.97451 0.53485 0.0
S946 S 0.16532 0.88952 0.36968 0.0
N947 N 0.12943 0.87097 0.40156 0.0
N948 N 0.18374 0.92909 0.39561 0.0
C949 C 0.16051 0.92889 0.43173 0.0
C950 C 0.13085 0.89713 0.43504 0.0
C951 C 0.21438 0.13928 0.55374 0.0
C952 C 0.23774 0.16804 0.59189 0.0
C953 C 0.21362 0.10918 0.55659 0.0
C954 C 0.2366 0.10593 0.5969 0.0
H955 H 0.19763 0.14048 0.51801 0.0
H956 H 0.19613 0.08877 0.52291 0.0
S957 S 0.29648 0.17109 0.72048 0.0
N958 N 0.27984 0.18954 0.68151 0.0
N959 N 0.27896 0.1329 0.68626 0.0
C960 C 0.25759 0.13337 0.64105 0.0
C961 C 0.25806 0.16435 0.63859 0.0
C962 C 0.92119 0.13652 0.63112 0.0
C963 C 0.91578 0.10806 0.59407 0.0
C964 C 0.95 0.16791 0.62698 0.0
C965 C 0.97433 0.17192 0.58544 0.0
H966 H 0.90189 0.1351 0.65928 0.0
H967 H 0.9519 0.18946 0.65233 0.0
S968 S 0.97416 0.10444 0.48596 0.0
N969 N 0.93909 0.08567 0.52048 0.0
N970 N 0.99255 0.14381 0.51281 0.0
C971 C 0.97025 0.14314 0.55252 0.0
C972 C 0.94122 0.11151 0.55676 0.0
C973 C 0.94262 0.8019 0.64453 0.0
C974 C 0.96996 0.82545 0.61375 0.0
C975 C 0.91344 0.80351 0.64678 0.0
C976 C 0.91061 0.82872 0.6183 0.0
H977 H 0.94263 0.78058 0.6619 0.0
H978 H 0.89208 0.78332 0.66571 0.0
S979 S 0.97661 0.89861 0.53979 0.0
N980 N 0.99319 0.87646 0.5605 0.0
N981 N 0.93913 0.87949 0.56477 0.0
C982 C 0.93878 0.85369 0.59235 0.0
C983 C 0.96817 0.85205 0.59003 0.0
C984 C 0.81114 0.54724 0.83967 0.0
C985 C 0.83771 0.56941 0.80568 0.0
C986 C 0.78218 0.54864 0.8419 0.0
C987 C 0.77805 0.57227 0.81019 0.0
H988 H 0.81367 0.53004 0.86883 0.0
H989 H 0.76367 0.53237 0.8725 0.0
S990 S 0.83837 0.63364 0.70778 0.0
N991 N 0.85668 0.61392 0.73438 0.0
N992 N 0.80199 0.61625 0.73782 0.0
C993 C 0.80313 0.59272 0.77119 0.0
C994 C 0.83297 0.59138 0.76913 0.0
C995 C 0.53258 0.29256 0.83577 0.0
C996 C 0.50951 0.29666 0.79797 0.0
C997 C 0.53122 0.26206 0.83574 0.0
C998 C 0.50675 0.23372 0.79786 0.0
H999 H 0.5504 0.31251 0.86993 0.0
H1000 H 0.54805 0.26004 0.8699 0.0
S1001 S 0.44594 0.23307 0.67717 0.0
N1002 N 0.46537 0.27119 0.712 0.0
N1003 N 0.4627 0.21359 0.71198 0.0
C1004 C 0.48604 0.23834 0.75378 0.0
C1005 C 0.48746 0.26981 0.75381 0.0
C1006 C 0.79896 0.23087 0.77066 0.0
C1007 C 0.7723 0.22827 0.80331 0.0
C1008 C 0.8283 0.26192 0.76706 0.0
C1009 C 0.83197 0.2915 0.79572 0.0
H1010 H 0.79828 0.20858 0.75266 0.0
H1011 H 0.84919 0.26233 0.74689 0.0
S1012 S 0.76787 0.29853 0.87899 0.0
N1013 N 0.75058 0.2585 0.8588 0.0
N1014 N 0.80483 0.31611 0.85166 0.0
C1015 C 0.80439 0.28925 0.82357 0.0
C1016 C 0.77489 0.25792 0.82753 0.0
C1017 C 0.93829 0.49947 0.97266 0.0
C1018 C 0.91085 0.50131 0.94847 0.0
C1019 C 0.93724 0.46876 0.97309 0.0
C1020 C 0.90868 0.43865 0.94955 0.0
H1021 H 0.96168 0.52209 0.98524 0.0
H1022 H 0.95991 0.46908 0.98557 0.0
S1023 S 0.82915 0.42957 0.88864 0.0
N1024 N 0.85352 0.4698 0.90643 0.0
N1025 N 0.85146 0.41281 0.90775 0.0
C1026 C 0.88042 0.44012 0.93084 0.0
C1027 C 0.88153 0.47115 0.9301 0.0
C1028 C 0.58404 0.47171 0.97836 0.0
C1029 C 0.58174 0.44243 0.95165 0.0
C1030 C 0.61335 0.50304 0.97727 0.0
C1031 C 0.64139 0.50622 0.94934 0.0
H1032 H 0.56221 0.47086 0.9946 0.0
H1033 H 0.61302 0.52508 0.99314 0.0
S1034 S 0.64948 0.43699 0.88043 0.0
N1035 N 0.61147 0.41876 0.9028 0.0
N1036 N 0.66568 0.47691 0.90031 0.0
C1037 C 0.64007 0.47689 0.92736 0.0
C1038 C 0.61057 0.44526 0.92875 0.0
C1039 C 0.60691 0.13709 0.97112 0.0
C1040 C 0.63468 0.16149 0.94266 0.0
C1041 C 0.57733 0.13801 0.97167 0.0
C1042 C 0.57456 0.16345 0.94413 0.0
H1043 H 0.60695 0.11563 0.98762 0.0
H1044 H 0.55567 0.1171 0.98816 0.0
S1045 S 0.64148 0.23537 0.87181 0.0
N1046 N 0.65829 0.21345 0.89272 0.0
N1047 N 0.60345 0.21523 0.89402 0.0
C1048 C 0.6031 0.18927 0.92085 0.0
C1049 C 0.6329 0.18828 0.92002 0.0
C1050 C 0.48115 0.88399 0.129 0.0
C1051 C 0.51201 0.91283 0.12397 0.0
C1052 C 0.45169 0.88494 0.13019 0.0
C1053 C 0.45183 0.91487 0.1274 0.0
H1054 H 0.4801 0.86091 0.13701 0.0
H1055 H 0.42905 0.86249 0.13829 0.0
S1056 S 0.5263 0.99766 0.11888 0.0
N1057 N 0.54047 0.97206 0.11595 0.0
N1058 N 0.48615 0.97423 0.12339 0.0
C1059 C 0.48241 0.94365 0.12108 0.0
C1060 C 0.51213 0.94251 0.11787 0.0
C1061 C 0.14744 0.5999 0.10613 0.0
C1062 C 0.1759 0.63018 0.12912 0.0
C1063 C 0.14663 0.56938 0.10651 0.0
C1064 C 0.1741 0.56777 0.13103 0.0
H1065 H 0.1246 0.59918 0.09418 0.0
H1066 H 0.12337 0.54667 0.09346 0.0
S1067 S 0.25525 0.63972 0.19289 0.0
N1068 N 0.23291 0.65632 0.17267 0.0
N1069 N 0.23111 0.59945 0.17504 0.0
C1070 C 0.20317 0.59795 0.15051 0.0
C1071 C 0.20412 0.62891 0.14922 0.0
C1072 C 0.47366 0.62561 0.1606 0.0
C1073 C 0.5014 0.6297 0.13017 0.0
C1074 C 0.4454 0.59425 0.16388 0.0
C1075 C 0.44311 0.5653 0.13611 0.0
H1076 H 0.47479 0.64664 0.18669 0.0
H1077 H 0.42593 0.59246 0.19201 0.0
S1078 S 0.50728 0.56206 0.04569 0.0
N1079 N 0.52359 0.60185 0.06764 0.0
N1080 N 0.47022 0.543 0.07281 0.0
C1081 C 0.46944 0.56912 0.10094 0.0
C1082 C 0.49856 0.60126 0.09806 0.0
C1083 C 0.55114 0.78029 0.25239 0.0
C1084 C 0.57767 0.77788 0.27969 0.0
C1085 C 0.55237 0.81081 0.25165 0.0
C1086 C 0.58011 0.84057 0.27858 0.0
H1087 H 0.53026 0.75875 0.22646 0.0
H1088 H 0.53247 0.81149 0.22506 0.0
S1089 S 0.65548 0.84811 0.35989 0.0
N1090 N 0.63199 0.80822 0.33736 0.0
N1091 N 0.63394 0.86527 0.3374 0.0
C1092 C 0.60573 0.83827 0.31067 0.0
C1093 C 0.6046 0.80706 0.31089 0.0
C1094 C 0.28373 0.83946 0.29832 0.0
C1095 C 0.31035 0.84211 0.26545 0.0
C1096 C 0.25452 0.80833 0.3025 0.0
C1097 C 0.25103 0.77872 0.27442 0.0
H1098 H 0.28429 0.86173 0.31608 0.0
H1099 H 0.23361 0.80786 0.3227 0.0
S1100 S 0.31519 0.77184 0.19105 0.0
N1101 N 0.33223 0.81192 0.21039 0.0
N1102 N 0.27836 0.7542 0.21892 0.0
C1103 C 0.27863 0.78106 0.24647 0.0
C1104 C 0.30793 0.81247 0.24173 0.0
C1105 C 0.30485 0.52411 0.25432 0.0
C1106 C 0.3064 0.49636 0.27188 0.0
C1107 C 0.27559 0.52515 0.25652 0.0
C1108 C 0.24627 0.49834 0.27571 0.0
H1109 H 0.3259 0.5444 0.23481 0.0
H1110 H 0.27525 0.5462 0.23845 0.0
S1111 S 0.23681 0.4192 0.32401 0.0
N1112 N 0.27601 0.4415 0.30966 0.0
N1113 N 0.221 0.44289 0.31131 0.0
C1114 C 0.24789 0.47096 0.29572 0.0
C1115 C 0.2779 0.47012 0.29439 0.0
C1116 C 0.06143 0.30305 0.07599 0.0
C1117 C 1.02825 0.28 0.08498 0.0
C1118 C 0.07258 0.30957 1.01395 0.0
C1119 C 0.05104 0.29332 0.95811 0.0
H1120 H 0.07906 0.31597 0.11736 0.0
H1121 H 0.09839 0.32729 1.00971 0.0
S1122 S 0.96186 0.23037 0.95495 0.0
N1123 N 0.97399 0.24085 1.03242 0.0
N1124 N 0.99485 0.25296 0.91621 0.0
C1125 C 1.01765 0.27071 0.96638 0.0
C1126 C 1.0063 0.2641 1.02959 0.0
C1127 C 0.82748 0.81956 0.09875 0.0
C1128 C 0.80901 0.78685 0.11663 0.0
C1129 C 0.82461 0.82738 1.03546 0.0
C1130 C 0.80338 0.80279 0.98713 0.0
H1131 H 0.84459 0.83936 0.13391 0.0
H1132 H 0.83945 0.85286 1.02404 0.0
S1133 S 0.74796 0.71379 1.00874 0.0
N1134 N 0.76742 0.72992 0.08084 0.0
N1135 N 0.76265 0.74464 0.96151 0.0
C1136 C 0.7847 0.77001 1.00401 0.0
C1137 C 0.78737 0.76204 0.06874 0.0
C1138 C 0.28138 0.03964 0.07023 0.0
C1139 C 0.2617 0.05168 0.09336 0.0
C1140 C 0.27825 1.0289 1.00517 0.0
C1141 C 0.25519 1.02964 0.96097 0.0
H1142 H 0.29958 0.03884 0.10259 0.0
H1143 H 0.2944 1.02044 0.98919 0.0
S1144 S 0.1962 0.05677 0.99854 0.0
N1145 N 0.21749 0.06251 0.06806 0.0
N1146 N 0.21127 0.04191 0.94558 0.0
C1147 C 0.23506 0.04124 0.98372 0.0
C1148 C 0.2384 0.05237 0.04997 0.0
C1149 C 1.03254 0.76348 0.99531 0.0
C1150 C 0.053 0.79588 0.97727 0.0
C1151 C 1.02141 0.75766 0.05762 0.0
C1152 C 1.03027 0.784 0.10442 0.0
H1153 H 1.02531 0.74243 0.96119 0.0
H1154 H 1.00603 0.73232 0.06945 0.0
S1155 S 0.08047 0.87348 0.07955 0.0
N1156 N 0.07973 0.8546 1.01023 0.0
N1157 N 0.05891 0.84375 0.12657 0.0
C1158 C 0.0502 0.81648 0.08651 0.0
C1159 C 0.06152 0.82238 1.02328 0.0
C1160 C 0.2643 0.23357 0.03694 0.0
C1161 C 0.2761 0.25805 0.08858 0.0
C1162 C 0.26032 0.24083 0.97356 0.0
C1163 C 0.26837 0.27299 0.95916 0.0
H1164 H 0.25731 0.20841 0.04584 0.0
H1165 H 0.25018 0.22085 0.93576 0.0
S1166 S 0.3039 0.34659 0.07729 0.0
N1167 N 0.29774 0.31595 0.1213 0.0
N1168 N 0.29144 0.33008 1.00228 0.0
C1169 C 0.28127 0.29791 1.01049 0.0
C1170 C 0.28487 0.29033 0.07506 0.0
C1171 C 0.81963 1.01477 0.09305 0.0
C1172 C 0.81018 0.03795 0.10895 0.0
C1173 C 0.81832 1.00378 1.02882 0.0
C1174 C 0.80742 1.01547 0.978 0.0
H1175 H 0.82765 1.00463 0.13065 0.0
H1176 H 0.82555 0.98568 1.01891 0.0
S1177 S 0.78169 0.07778 0.99333 0.0
N1178 N 0.79074 0.07324 0.06837 0.0
N1179 N 0.78818 0.05246 0.94748 0.0
C1180 C 0.79806 0.03881 0.99305 0.0
C1181 C 0.79945 0.05007 0.05853 0.0
C1182 C 0.69616 0.60256 0.32959 0.0
C1183 C 0.72957 0.61435 0.32041 0.0
C1184 C 0.68461 0.59758 0.39143 0.0
C1185 C 0.70594 0.60415 0.44696 0.0
H1186 H 0.67872 0.5972 0.28854 0.0
H1187 H 0.65869 0.58855 0.39575 0.0
S1188 S 0.79551 0.63418 0.44921 0.0
N1189 N 0.78377 0.63187 0.37222 0.0
N1190 N 0.76214 0.62237 0.48816 0.0
C1191 C 0.73949 0.61615 0.4385 0.0
C1192 C 0.75126 0.62128 0.37545 0.0
C1193 C 0.45775 0.09684 0.37766 0.0
C1194 C 0.46304 0.11902 0.43092 0.0
C1195 C 0.45492 0.10454 0.31406 0.0
C1196 C 0.45708 0.13466 0.30111 0.0
H1197 H 0.45587 0.07334 0.38516 0.0
H1198 H 0.45107 0.0868 0.27466 0.0
S1199 S 0.47244 0.20202 0.42262 0.0
N1200 N 0.47155 0.17303 0.46571 0.0
N1201 N 0.46568 0.1871 0.3466 0.0
C1202 C 0.46211 0.15692 0.35375 0.0
C1203 C 0.46521 0.14922 0.41844 0.0
C1204 C 0.92612 0.37785 0.31314 0.0
C1205 C 0.93909 0.35799 0.29394 0.0
C1206 C 0.92776 0.38795 0.37827 0.0
C1207 C 0.94226 0.37844 0.42675 0.0
H1208 H 0.91406 0.38517 0.27761 0.0
H1209 H 0.91704 0.40282 0.39091 0.0
S1210 S 0.98284 0.32954 0.40186 0.0
N1211 N 0.96906 0.33122 0.32853 0.0
N1212 N 0.97173 0.34993 0.45108 0.0
C1213 C 0.95589 0.35916 0.40828 0.0
C1214 C 0.95439 0.34898 0.34189 0.0
C1215 C 0.72955 0.12829 0.36027 0.0
C1216 C 0.70795 0.12106 0.30486 0.0
C1217 C 0.71811 0.12297 0.42215 0.0
C1218 C 0.68455 0.11018 0.43152 0.0
H1219 H 0.75567 0.13856 0.35589 0.0
H1220 H 0.73583 0.12932 0.46321 0.0
S1221 S 0.61754 0.08644 0.30267 0.0
N1222 N 0.65109 0.09976 0.26365 0.0
N1223 N 0.62968 0.08967 0.37972 0.0
C1224 C 0.66248 0.10179 0.37646 0.0
C1225 C 0.67413 0.10725 0.31332 0.0
C1226 C 0.91951 0.60909 0.34603 0.0
C1227 C 0.94617 0.6194 0.30765 0.0
C1228 C 0.9214 0.60055 0.4092 0.0
C1229 C 0.95019 0.60235 0.43678 0.0
H1230 H 0.89663 0.60657 0.3263 0.0
H1231 H 0.89973 0.59154 0.4359 0.0
S1232 S 1.02835 0.6321 0.35807 0.0
N1233 N 1.00282 0.633 0.30222 0.0
N1234 N 1.00719 0.61864 0.42194 0.0
C1235 C 0.97757 0.6141 0.39947 0.0
C1236 C 0.97535 0.6222 0.33473 0.0
C1237 C 0.45045 0.35448 0.33929 0.0
C1238 C 0.47751 0.36002 0.30494 0.0
C1239 C 0.45485 0.3657 0.40466 0.0
C1240 C 0.48644 0.38285 0.43786 0.0
H1241 H 0.42579 0.34173 0.31525 0.0
H1242 H 0.43343 0.3612 0.42925 0.0
S1243 S 0.56479 0.40078 0.37138 0.0
N1244 N 0.53661 0.38189 0.31001 0.0
N1245 N 0.54485 0.40289 0.4326 0.0
C1246 C 0.51356 0.388 0.40429 0.0
C1247 C 0.5091 0.3766 0.33794 0.0
C1248 C 0.40388 0.94651 0.68262 0.0
C1249 C 0.38892 0.95625 0.63533 0.0
C1250 C 0.39251 0.94015 0.74445 0.0
C1251 C 0.36567 0.94323 0.76172 0.0
H1252 H 0.42412 0.94306 0.67131 0.0
H1253 H 0.40448 0.93213 0.7787 0.0
S1254 S 0.3202 0.97144 0.65785 0.0
N1255 N 0.34739 0.97099 0.61155 0.0
N1256 N 0.32596 0.95897 0.72763 0.0
C1257 C 0.35098 0.95371 0.7154 0.0
C1258 C 0.36261 0.96024 0.65237 0.0
C1259 C 0.16984 0.49183 0.74157 0.0
C1260 C 0.15112 0.46071 0.766 0.0
C1261 C 0.16332 0.49729 0.67833 0.0
C1262 C 0.13769 0.4719 0.6365 0.0
H1263 H 0.19 0.5122 0.77145 0.0
H1264 H 0.17886 0.52161 0.66185 0.0
S1265 S 0.08063 0.38595 0.67754 0.0
N1266 N 0.10533 0.40421 0.74382 0.0
N1267 N 0.09302 0.41435 0.62492 0.0
C1268 C 0.11876 0.44053 0.66023 0.0
C1269 C 0.12546 0.43499 0.72485 0.0
C1270 C 0.6279 0.70422 0.74096 0.0
C1271 C 0.60529 0.71088 0.76935 0.0
C1272 C 0.6228 0.69238 0.67583 0.0
C1273 C 0.59492 0.68689 0.63707 0.0
H1274 H 0.64926 0.70756 0.76966 0.0
H1275 H 0.6405 0.68704 0.65597 0.0
S1276 S 0.53053 0.70418 0.68737 0.0
N1277 N 0.5554 0.71334 0.75329 0.0
N1278 N 0.54599 0.69169 0.63084 0.0
C1279 C 0.57271 0.69442 0.66473 0.0
C1280 C 0.57784 0.70626 0.73088 0.0
C1281 C 0.35151 0.47039 0.71805 0.0
C1282 C 0.35974 0.4531 0.7614 0.0
C1283 C 0.36393 0.47661 0.65717 0.0
C1284 C 0.38518 0.46588 0.63686 0.0
H1285 H 0.33542 0.47938 0.73145 0.0
H1286 H 0.35686 0.49007 0.62572 0.0
S1287 S 0.41484 0.41997 0.73218 0.0
N1288 N 0.39068 0.4254 0.77959 0.0
N1289 N 0.414 0.4371 0.66516 0.0
C1290 C 0.39319 0.44803 0.67914 0.0
C1291 C 0.3805 0.44166 0.74131 0.0
C1292 C 0.59402 0.93635 0.74498 0.0
C1293 C 0.62532 0.94542 0.77432 0.0
C1294 C 0.58996 0.94315 0.68126 0.0
C1295 C 0.61697 0.95909 0.64371 0.0
H1296 H 0.57223 0.92318 0.771 0.0
H1297 H 0.5653 0.93509 0.66062 0.0
S1298 S 0.70463 0.99141 0.69885 0.0
N1299 N 0.68429 0.97385 0.76173 0.0
N1300 N 0.67641 0.98589 0.64162 0.0
C1301 C 0.64852 0.96903 0.67255 0.0
C1302 C 0.65275 0.96237 0.73778 0.0
C1303 C 0.15125 0.68047 0.68561 0.0
C1304 C 0.13443 0.68863 0.63929 0.0
C1305 C 0.15458 0.69097 0.75087 0.0
C1306 C 0.1413 0.71013 0.77246 0.0
H1307 H 0.16255 0.66639 0.67116 0.0
H1308 H 0.16821 0.68453 0.7846 0.0
S1309 S 0.0931 0.73629 0.67166 0.0
N1310 N 0.10293 0.71567 0.62005 0.0
N1311 N 0.10943 0.73563 0.74312 0.0
C1312 C 0.12406 0.71816 0.72698 0.0
C1313 C 0.12057 0.70736 0.66034 0.0
loop_
_geom_bond_atom_site_label_1
_geom_bond_atom_site_label_2
_geom_bond_distance
_geom_bond_site_symmetry_2
_ccdc_geom_bond_type
Eu0 C9 2.828 . S
Eu0 O11 2.392 . S
Eu0 O13 2.418 . S
Eu0 O18 2.373 1_455 S
Eu0 O21 2.488 . S
Eu0 O22 2.471 . S
Eu0 O23 2.349 1_455 S
Eu1 O10 2.373 1_655 S
Eu1 O14 2.488 . S
Eu1 O15 2.471 1_655 S
Eu1 O16 2.349 1_655 S
Eu1 O19 2.392 . S
Eu1 O20 2.418 . S
Eu1 C30 2.828 . S
C2 O20 1.244 . S
C2 O23 1.265 . S
C3 C4 1.379 1_455 S
C3 C7 1.373 . S
C3 C9 1.505 . S
C4 C3 1.379 1_655 S
C4 C6 1.369 . S
C4 H32 0.930 . S
C5 C7 1.383 . S
C5 C8 1.382 . S
C5 H33 0.930 . S
C6 C4 1.369 . S
C6 C8 1.392 1_655 S
C6 H34 0.930 . S
C7 C3 1.373 . S
C7 C5 1.383 . S
C7 H35 0.931 . S
C8 C5 1.382 . S
C8 C6 1.392 1_455 S
C9 Eu0 2.828 . S
C9 C3 1.505 . S
C9 O21 1.249 . S
C9 O22 1.244 . S
O10 Eu1 2.373 1_455 S
O10 C12 1.258 . S
O11 Eu0 2.392 . S
O11 C12 1.242 . S
C12 O10 1.258 . S
C12 O11 1.242 . S
O13 Eu0 2.418 . S
O13 C17 1.244 . S
O14 Eu1 2.488 . S
O14 C30 1.249 . S
O15 Eu1 2.471 1_455 S
O15 C30 1.244 1_455 S
O16 Eu1 2.349 1_455 S
O16 C17 1.265 . S
C17 O13 1.244 . S
C17 O16 1.265 . S
O18 Eu0 2.373 1_655 S
O18 C31 1.258 . S
O19 Eu1 2.392 . S
O19 C31 1.242 . S
O20 Eu1 2.418 . S
O20 C2 1.244 . S
O21 Eu0 2.488 . S
O21 C9 1.249 . S
O22 Eu0 2.471 . S
O22 C9 1.244 . S
O23 Eu0 2.349 1_655 S
O23 C2 1.265 . S
C24 C25 1.379 1_655 S
C24 C28 1.373 . S
C24 C30 1.505 . S
C25 C24 1.379 1_455 S
C25 C27 1.369 . S
C25 H36 0.930 . S
C26 C28 1.383 . S
C26 C29 1.382 1_655 S
C26 H37 0.930 . S
C27 C25 1.369 . S
C27 C29 1.392 . S
C27 H38 0.930 . S
C28 C24 1.373 . S
C28 C26 1.383 . S
C28 H39 0.931 . S
C29 C26 1.382 1_455 S
C29 C27 1.392 . S
C30 Eu1 2.828 . S
C30 O14 1.249 . S
C30 O15 1.244 1_655 S
C30 C24 1.505 . S
C31 O18 1.258 . S
C31 O19 1.242 . S
H32 C4 0.930 . S
H33 C5 0.930 . S
H34 C6 0.930 . S
H35 C7 0.931 . S
H36 C25 0.930 . S
H37 C26 0.930 . S
H38 C27 0.930 . S
H39 C28 0.931 . S
Eu40 C49 2.828 . S
Eu40 O51 2.392 . S
Eu40 O53 2.418 . S
Eu40 O58 2.373 . S
Eu40 O61 2.488 . S
Eu40 O62 2.471 . S
Eu40 O63 2.349 . S
Eu41 O50 2.373 . S
Eu41 O54 2.488 . S
Eu41 O55 2.471 . S
Eu41 O56 2.349 . S
Eu41 O59 2.392 . S
Eu41 O60 2.418 . S
Eu41 C70 2.828 . S
C42 O60 1.244 . S
C42 O63 1.265 . S
C43 C44 1.379 . S
C43 C47 1.373 . S
C43 C49 1.505 . S
C44 C43 1.379 . S
C44 C46 1.369 . S
C44 H72 0.930 . S
C45 C47 1.383 . S
C45 C48 1.382 . S
C45 H73 0.930 . S
C46 C44 1.369 . S
C46 C48 1.392 . S
C46 H74 0.930 . S
C47 C43 1.373 . S
C47 C45 1.383 . S
C47 H75 0.931 . S
C48 C45 1.382 . S
C48 C46 1.392 . S
C49 Eu40 2.828 . S
C49 C43 1.505 . S
C49 O61 1.249 . S
C49 O62 1.244 . S
O50 Eu41 2.373 . S
O50 C52 1.258 . S
O51 Eu40 2.392 . S
O51 C52 1.242 . S
C52 O50 1.258 . S
C52 O51 1.242 . S
O53 Eu40 2.418 . S
O53 C57 1.244 . S
O54 Eu41 2.488 . S
O54 C70 1.249 . S
O55 Eu41 2.471 . S
O55 C70 1.244 . S
O56 Eu41 2.349 . S
O56 C57 1.265 . S
C57 O53 1.244 . S
C57 O56 1.265 . S
O58 Eu40 2.373 . S
O58 C71 1.258 . S
O59 Eu41 2.392 . S
O59 C71 1.242 . S
O60 Eu41 2.418 . S
O60 C42 1.244 . S
O61 Eu40 2.488 . S
O61 C49 1.249 . S
O62 Eu40 2.471 . S
O62 C49 1.244 . S
O63 Eu40 2.349 . S
O63 C42 1.265 . S
C64 C65 1.379 . S
C64 C68 1.373 . S
C64 C70 1.505 . S
C65 C64 1.379 . S
C65 C67 1.369 . S
C65 H76 0.930 . S
C66 C68 1.383 . S
C66 C69 1.382 . S
C66 H77 0.930 . S
C67 C65 1.369 . S
C67 C69 1.392 . S
C67 H78 0.930 . S
C68 C64 1.373 . S
C68 C66 1.383 . S
C68 H79 0.931 . S
C69 C66 1.382 . S
C69 C67 1.392 . S
C70 Eu41 2.828 . S
C70 O54 1.249 . S
C70 O55 1.244 . S
C70 C64 1.505 . S
C71 O58 1.258 . S
C71 O59 1.242 . S
H72 C44 0.930 . S
H73 C45 0.930 . S
H74 C46 0.930 . S
H75 C47 0.931 . S
H76 C65 0.930 . S
H77 C66 0.930 . S
H78 C67 0.930 . S
H79 C68 0.931 . S
Eu80 C89 2.828 . S
Eu80 O91 2.392 . S
Eu80 O93 2.418 . S
Eu80 O98 2.373 1_565 S
Eu80 O101 2.488 . S
Eu80 O102 2.471 1_565 S
Eu80 O103 2.349 1_565 S
Eu81 O90 2.373 1_545 S
Eu81 O94 2.488 . S
Eu81 O95 2.471 1_545 S
Eu81 O96 2.349 1_545 S
Eu81 O99 2.392 . S
Eu81 O100 2.418 . S
Eu81 C110 2.828 . S
C82 O100 1.244 . S
C82 O103 1.265 . S
C83 C84 1.379 1_565 S
C83 C87 1.373 . S
C83 C89 1.505 . S
C84 C83 1.379 1_545 S
C84 C86 1.369 . S
C84 H112 0.930 . S
C85 C87 1.383 . S
C85 C88 1.382 1_565 S
C85 H113 0.930 . S
C86 C84 1.369 . S
C86 C88 1.392 . S
C86 H114 0.930 . S
C87 C83 1.373 . S
C87 C85 1.383 . S
C87 H115 0.931 . S
C88 C85 1.382 1_545 S
C88 C86 1.392 . S
C89 Eu80 2.828 . S
C89 C83 1.505 . S
C89 O101 1.249 . S
C89 O102 1.244 1_565 S
O90 Eu81 2.373 1_565 S
O90 C92 1.258 . S
O91 Eu80 2.392 . S
O91 C92 1.242 . S
C92 O90 1.258 . S
C92 O91 1.242 . S
O93 Eu80 2.418 . S
O93 C97 1.244 . S
O94 Eu81 2.488 . S
O94 C110 1.249 . S
O95 Eu81 2.471 1_565 S
O95 C110 1.244 1_565 S
O96 Eu81 2.349 1_565 S
O96 C97 1.265 . S
C97 O93 1.244 . S
C97 O96 1.265 . S
O98 Eu80 2.373 1_545 S
O98 C111 1.258 . S
O99 Eu81 2.392 . S
O99 C111 1.242 . S
O100 Eu81 2.418 . S
O100 C82 1.244 . S
O101 Eu80 2.488 . S
O101 C89 1.249 . S
O102 Eu80 2.471 1_545 S
O102 C89 1.244 1_545 S
O103 Eu80 2.349 1_545 S
O103 C82 1.265 . S
C104 C105 1.379 1_545 S
C104 C108 1.373 . S
C104 C110 1.505 . S
C105 C104 1.379 1_565 S
C105 C107 1.369 . S
C105 H116 0.930 . S
C106 C108 1.383 . S
C106 C109 1.382 1_545 S
C106 H117 0.930 . S
C107 C105 1.369 . S
C107 C109 1.392 . S
C107 H118 0.930 . S
C108 C104 1.373 . S
C108 C106 1.383 . S
C108 H119 0.931 . S
C109 C106 1.382 1_565 S
C109 C107 1.392 . S
C110 Eu81 2.828 . S
C110 O94 1.249 . S
C110 O95 1.244 1_545 S
C110 C104 1.505 . S
C111 O98 1.258 . S
C111 O99 1.242 . S
H112 C84 0.930 . S
H113 C85 0.930 . S
H114 C86 0.930 . S
H115 C87 0.931 . S
H116 C105 0.930 . S
H117 C106 0.930 . S
H118 C107 0.930 . S
H119 C108 0.931 . S
Eu120 C129 2.828 . S
Eu120 O131 2.392 . S
Eu120 O133 2.418 . S
Eu120 O138 2.373 1_455 S
Eu120 O141 2.488 . S
Eu120 O142 2.471 . S
Eu120 O143 2.349 1_455 S
Eu121 O130 2.373 1_655 S
Eu121 O134 2.488 . S
Eu121 O135 2.471 1_655 S
Eu121 O136 2.349 1_655 S
Eu121 O139 2.392 . S
Eu121 O140 2.418 . S
Eu121 C150 2.828 . S
C122 O140 1.244 . S
C122 O143 1.265 . S
C123 C124 1.379 1_455 S
C123 C127 1.373 . S
C123 C129 1.505 . S
C124 C123 1.379 1_655 S
C124 C126 1.369 . S
C124 H152 0.930 . S
C125 C127 1.383 . S
C125 C128 1.382 . S
C125 H153 0.930 . S
C126 C124 1.369 . S
C126 C128 1.392 1_655 S
C126 H154 0.930 . S
C127 C123 1.373 . S
C127 C125 1.383 . S
C127 H155 0.931 . S
C128 C125 1.382 . S
C128 C126 1.392 1_455 S
C129 Eu120 2.828 . S
C129 C123 1.505 . S
C129 O141 1.249 . S
C129 O142 1.244 . S
O130 Eu121 2.373 1_455 S
O130 C132 1.258 . S
O131 Eu120 2.392 . S
O131 C132 1.242 . S
C132 O130 1.258 . S
C132 O131 1.242 . S
O133 Eu120 2.418 . S
O133 C137 1.244 . S
O134 Eu121 2.488 . S
O134 C150 1.249 . S
O135 Eu121 2.471 1_455 S
O135 C150 1.244 1_455 S
O136 Eu121 2.349 1_455 S
O136 C137 1.265 . S
C137 O133 1.244 . S
C137 O136 1.265 . S
O138 Eu120 2.373 1_655 S
O138 C151 1.258 . S
O139 Eu121 2.392 . S
O139 C151 1.242 . S
O140 Eu121 2.418 . S
O140 C122 1.244 . S
O141 Eu120 2.488 . S
O141 C129 1.249 . S
O142 Eu120 2.471 . S
O142 C129 1.244 . S
O143 Eu120 2.349 1_655 S
O143 C122 1.265 . S
C144 C145 1.379 1_655 S
C144 C148 1.373 . S
C144 C150 1.505 . S
C145 C144 1.379 1_455 S
C145 C147 1.369 . S
C145 H156 0.930 . S
C146 C148 1.383 . S
C146 C149 1.382 1_655 S
C146 H157 0.930 . S
C147 C145 1.369 . S
C147 C149 1.392 . S
C147 H158 0.930 . S
C148 C144 1.373 . S
C148 C146 1.383 . S
C148 H159 0.931 . S
C149 C146 1.382 1_455 S
C149 C147 1.392 . S
C150 Eu121 2.828 . S
C150 O134 1.249 . S
C150 O135 1.244 1_655 S
C150 C144 1.505 . S
C151 O138 1.258 . S
C151 O139 1.242 . S
H152 C124 0.930 . S
H153 C125 0.930 . S
H154 C126 0.930 . S
H155 C127 0.931 . S
H156 C145 0.930 . S
H157 C146 0.930 . S
H158 C147 0.930 . S
H159 C148 0.931 . S
Eu160 C169 2.828 . S
Eu160 O171 2.392 . S
Eu160 O173 2.418 . S
Eu160 O178 2.373 . S
Eu160 O181 2.488 . S
Eu160 O182 2.471 . S
Eu160 O183 2.349 . S
Eu161 O170 2.373 . S
Eu161 O174 2.488 . S
Eu161 O175 2.471 . S
Eu161 O176 2.349 . S
Eu161 O179 2.392 . S
Eu161 O180 2.418 . S
Eu161 C190 2.828 . S
C162 O180 1.244 . S
C162 O183 1.265 . S
C163 C164 1.379 . S
C163 C167 1.373 . S
C163 C169 1.505 . S
C164 C163 1.379 . S
C164 C166 1.369 . S
C164 H192 0.930 . S
C165 C167 1.383 . S
C165 C168 1.382 . S
C165 H193 0.930 . S
C166 C164 1.369 . S
C166 C168 1.392 . S
C166 H194 0.930 . S
C167 C163 1.373 . S
C167 C165 1.383 . S
C167 H195 0.931 . S
C168 C165 1.382 . S
C168 C166 1.392 . S
C169 Eu160 2.828 . S
C169 C163 1.505 . S
C169 O181 1.249 . S
C169 O182 1.244 . S
O170 Eu161 2.373 . S
O170 C172 1.258 . S
O171 Eu160 2.392 . S
O171 C172 1.242 . S
C172 O170 1.258 . S
C172 O171 1.242 . S
O173 Eu160 2.418 . S
O173 C177 1.244 . S
O174 Eu161 2.488 . S
O174 C190 1.249 . S
O175 Eu161 2.471 . S
O175 C190 1.244 . S
O176 Eu161 2.349 . S
O176 C177 1.265 . S
C177 O173 1.244 . S
C177 O176 1.265 . S
O178 Eu160 2.373 . S
O178 C191 1.258 . S
O179 Eu161 2.392 . S
O179 C191 1.242 . S
O180 Eu161 2.418 . S
O180 C162 1.244 . S
O181 Eu160 2.488 . S
O181 C169 1.249 . S
O182 Eu160 2.471 . S
O182 C169 1.244 . S
O183 Eu160 2.349 . S
O183 C162 1.265 . S
C184 C185 1.379 . S
C184 C188 1.373 . S
C184 C190 1.505 . S
C185 C184 1.379 . S
C185 C187 1.369 . S
C185 H196 0.930 . S
C186 C188 1.383 . S
C186 C189 1.382 . S
C186 H197 0.930 . S
C187 C185 1.369 . S
C187 C189 1.392 . S
C187 H198 0.930 . S
C188 C184 1.373 . S
C188 C186 1.383 . S
C188 H199 0.931 . S
C189 C186 1.382 . S
C189 C187 1.392 . S
C190 Eu161 2.828 . S
C190 O174 1.249 . S
C190 O175 1.244 . S
C190 C184 1.505 . S
C191 O178 1.258 . S
C191 O179 1.242 . S
H192 C164 0.930 . S
H193 C165 0.930 . S
H194 C166 0.930 . S
H195 C167 0.931 . S
H196 C185 0.930 . S
H197 C186 0.930 . S
H198 C187 0.930 . S
H199 C188 0.931 . S
Eu200 C209 2.828 . S
Eu200 O211 2.392 . S
Eu200 O213 2.418 . S
Eu200 O218 2.373 1_565 S
Eu200 O221 2.488 . S
Eu200 O222 2.471 1_565 S
Eu200 O223 2.349 1_565 S
Eu201 O210 2.373 1_545 S
Eu201 O214 2.488 . S
Eu201 O215 2.469 1_545 S
Eu201 O216 2.349 1_545 S
Eu201 O219 2.392 . S
Eu201 O220 2.418 . S
Eu201 C230 2.828 . S
C202 O220 1.244 . S
C202 O223 1.265 . S
C203 C204 1.379 . S
C203 C207 1.373 1_545 S
C203 C209 1.505 1_545 S
C204 C203 1.379 . S
C204 C206 1.369 . S
C204 H232 0.930 . S
C205 C207 1.383 . S
C205 C208 1.382 1_565 S
C205 H233 0.930 . S
C206 C204 1.369 . S
C206 C208 1.392 . S
C206 H234 0.930 . S
C207 C203 1.373 1_565 S
C207 C205 1.383 . S
C207 H235 0.931 . S
C208 C205 1.382 1_545 S
C208 C206 1.392 . S
C209 Eu200 2.828 . S
C209 C203 1.505 1_565 S
C209 O221 1.249 . S
C209 O222 1.244 1_565 S
O210 Eu201 2.373 1_565 S
O210 C212 1.258 . S
O211 Eu200 2.392 . S
O211 C212 1.242 . S
C212 O210 1.258 . S
C212 O211 1.242 . S
O213 Eu200 2.418 . S
O213 C217 1.244 . S
O214 Eu201 2.488 . S
O214 C230 1.249 . S
O215 Eu201 2.469 1_565 S
O215 C230 1.243 1_565 S
O216 Eu201 2.349 1_565 S
O216 C217 1.265 . S
C217 O213 1.244 . S
C217 O216 1.265 . S
O218 Eu200 2.373 1_545 S
O218 C231 1.258 . S
O219 Eu201 2.392 . S
O219 C231 1.242 . S
O220 Eu201 2.418 . S
O220 C202 1.244 . S
O221 Eu200 2.488 . S
O221 C209 1.249 . S
O222 Eu200 2.471 1_545 S
O222 C209 1.244 1_545 S
O223 Eu200 2.349 1_545 S
O223 C202 1.265 . S
C224 C225 1.379 1_545 S
C224 C228 1.373 . S
C224 C230 1.505 . S
C225 C224 1.379 1_565 S
C225 C227 1.369 . S
C225 H236 0.930 . S
C226 C228 1.383 . S
C226 C229 1.382 1_545 S
C226 H237 0.930 . S
C227 C225 1.369 . S
C227 C229 1.392 . S
C227 H238 0.930 . S
C228 C224 1.373 . S
C228 C226 1.383 . S
C228 H239 0.931 . S
C229 C226 1.382 1_565 S
C229 C227 1.392 . S
C230 Eu201 2.828 . S
C230 O214 1.249 . S
C230 O215 1.243 1_545 S
C230 C224 1.505 . S
C231 O218 1.258 . S
C231 O219 1.242 . S
H232 C204 0.930 . S
H233 C205 0.930 . S
H234 C206 0.930 . S
H235 C207 0.931 . S
H236 C225 0.930 . S
H237 C226 0.930 . S
H238 C227 0.930 . S
H239 C228 0.931 . S
Eu240 C249 2.828 . S
Eu240 O251 2.392 . S
Eu240 O253 2.418 . S
Eu240 O258 2.373 . S
Eu240 O261 2.488 . S
Eu240 O262 2.471 . S
Eu240 O263 2.349 . S
Eu241 O250 2.373 . S
Eu241 O254 2.488 . S
Eu241 O255 2.471 . S
Eu241 O256 2.349 . S
Eu241 O259 2.392 . S
Eu241 O260 2.418 . S
Eu241 C270 2.828 . S
C242 O260 1.244 . S
C242 O263 1.265 . S
C243 C244 1.379 . S
C243 C247 1.373 . S
C243 C249 1.505 . S
C244 C243 1.379 . S
C244 C246 1.369 . S
C244 H272 0.930 . S
C245 C247 1.383 . S
C245 C248 1.382 . S
C245 H273 0.930 . S
C246 C244 1.369 . S
C246 C248 1.392 . S
C246 H274 0.930 . S
C247 C243 1.373 . S
C247 C245 1.383 . S
C247 H275 0.931 . S
C248 C245 1.382 . S
C248 C246 1.392 . S
C249 Eu240 2.828 . S
C249 C243 1.505 . S
C249 O261 1.249 . S
C249 O262 1.244 . S
O250 Eu241 2.373 . S
O250 C252 1.258 . S
O251 Eu240 2.392 . S
O251 C252 1.242 . S
C252 O250 1.258 . S
C252 O251 1.242 . S
O253 Eu240 2.418 . S
O253 C257 1.244 . S
O254 Eu241 2.488 . S
O254 C270 1.249 . S
O255 Eu241 2.471 . S
O255 C270 1.244 . S
O256 Eu241 2.349 . S
O256 C257 1.265 . S
C257 O253 1.244 . S
C257 O256 1.265 . S
O258 Eu240 2.373 . S
O258 C271 1.258 . S
O259 Eu241 2.392 . S
O259 C271 1.242 . S
O260 Eu241 2.418 . S
O260 C242 1.244 . S
O261 Eu240 2.488 . S
O261 C249 1.249 . S
O262 Eu240 2.471 . S
O262 C249 1.244 . S
O263 Eu240 2.349 . S
O263 C242 1.265 . S
C264 C265 1.379 . S
C264 C268 1.373 . S
C264 C270 1.505 1_554 S
C265 C264 1.379 . S
C265 C267 1.369 . S
C265 H276 0.930 . S
C266 C268 1.383 . S
C266 C269 1.382 . S
C266 H277 0.930 . S
C267 C265 1.369 . S
C267 C269 1.392 . S
C267 H278 0.930 . S
C268 C264 1.373 . S
C268 C266 1.383 . S
C268 H279 0.931 . S
C269 C266 1.382 . S
C269 C267 1.392 . S
C270 Eu241 2.828 . S
C270 O254 1.249 . S
C270 O255 1.244 . S
C270 C264 1.505 1_556 S
C271 O258 1.258 . S
C271 O259 1.242 . S
H272 C244 0.930 . S
H273 C245 0.930 . S
H274 C246 0.930 . S
H275 C247 0.931 . S
H276 C265 0.930 . S
H277 C266 0.930 . S
H278 C267 0.930 . S
H279 C268 0.931 . S
Eu280 C289 2.828 . S
Eu280 O291 2.392 . S
Eu280 O293 2.418 . S
Eu280 O298 2.373 . S
Eu280 O301 2.488 . S
Eu280 O302 2.471 . S
Eu280 O303 2.349 . S
Eu281 O290 2.373 . S
Eu281 O294 2.488 . S
Eu281 O295 2.471 . S
Eu281 O296 2.349 . S
Eu281 O299 2.392 . S
Eu281 O300 2.418 . S
Eu281 C310 2.828 . S
C282 O300 1.244 . S
C282 O303 1.265 . S
C283 C284 1.379 . S
C283 C287 1.373 . S
C283 C289 1.505 . S
C284 C283 1.379 . S
C284 C286 1.369 . S
C284 H312 0.930 . S
C285 C287 1.383 . S
C285 C288 1.382 . S
C285 H313 0.930 . S
C286 C284 1.369 . S
C286 C288 1.392 . S
C286 H314 0.930 . S
C287 C283 1.373 . S
C287 C285 1.383 . S
C287 H315 0.931 . S
C288 C285 1.382 . S
C288 C286 1.392 . S
C289 Eu280 2.828 . S
C289 C283 1.505 . S
C289 O301 1.249 . S
C289 O302 1.244 . S
O290 Eu281 2.373 . S
O290 C292 1.258 . S
O291 Eu280 2.392 . S
O291 C292 1.242 . S
C292 O290 1.258 . S
C292 O291 1.242 . S
O293 Eu280 2.418 . S
O293 C297 1.244 . S
O294 Eu281 2.488 . S
O294 C310 1.249 . S
O295 Eu281 2.471 . S
O295 C310 1.244 . S
O296 Eu281 2.349 . S
O296 C297 1.265 . S
C297 O293 1.244 . S
C297 O296 1.265 . S
O298 Eu280 2.373 . S
O298 C311 1.258 . S
O299 Eu281 2.392 . S
O299 C311 1.242 . S
O300 Eu281 2.418 . S
O300 C282 1.244 . S
O301 Eu280 2.488 . S
O301 C289 1.249 . S
O302 Eu280 2.471 . S
O302 C289 1.244 . S
O303 Eu280 2.349 . S
O303 C282 1.265 . S
C304 C305 1.379 . S
C304 C308 1.373 . S
C304 C310 1.505 1_554 S
C305 C304 1.379 . S
C305 C307 1.369 . S
C305 H316 0.930 . S
C306 C308 1.383 . S
C306 C309 1.382 . S
C306 H317 0.930 . S
C307 C305 1.369 . S
C307 C309 1.392 . S
C307 H318 0.930 . S
C308 C304 1.373 . S
C308 C306 1.383 . S
C308 H319 0.931 . S
C309 C306 1.382 . S
C309 C307 1.392 . S
C310 Eu281 2.828 . S
C310 O294 1.249 . S
C310 O295 1.244 . S
C310 C304 1.505 1_556 S
C311 O298 1.258 . S
C311 O299 1.242 . S
H312 C284 0.930 . S
H313 C285 0.930 . S
H314 C286 0.930 . S
H315 C287 0.931 . S
H316 C305 0.930 . S
H317 C306 0.930 . S
H318 C307 0.930 . S
H319 C308 0.931 . S
Eu320 C329 2.828 . S
Eu320 O331 2.392 . S
Eu320 O333 2.418 . S
Eu320 O338 2.373 . S
Eu320 O341 2.488 . S
Eu320 O342 2.471 . S
Eu320 O343 2.349 . S
Eu321 O330 2.373 . S
Eu321 O334 2.488 . S
Eu321 O335 2.471 . S
Eu321 O336 2.349 . S
Eu321 O339 2.392 . S
Eu321 O340 2.418 . S
Eu321 C350 2.828 . S
C322 O340 1.244 . S
C322 O343 1.265 . S
C323 C324 1.379 . S
C323 C327 1.373 . S
C323 C329 1.505 . S
C324 C323 1.379 . S
C324 C326 1.369 . S
C324 H352 0.930 . S
C325 C327 1.383 . S
C325 C328 1.382 . S
C325 H353 0.930 . S
C326 C324 1.369 . S
C326 C328 1.392 . S
C326 H354 0.930 . S
C327 C323 1.373 . S
C327 C325 1.383 . S
C327 H355 0.931 . S
C328 C325 1.382 . S
C328 C326 1.392 . S
C329 Eu320 2.828 . S
C329 C323 1.505 . S
C329 O341 1.249 . S
C329 O342 1.244 . S
O330 Eu321 2.373 . S
O330 C332 1.258 . S
O331 Eu320 2.392 . S
O331 C332 1.242 . S
C332 O330 1.258 . S
C332 O331 1.242 . S
O333 Eu320 2.418 . S
O333 C337 1.244 . S
O334 Eu321 2.488 . S
O334 C350 1.249 . S
O335 Eu321 2.471 . S
O335 C350 1.244 . S
O336 Eu321 2.349 . S
O336 C337 1.265 . S
C337 O333 1.244 . S
C337 O336 1.265 . S
O338 Eu320 2.373 . S
O338 C351 1.258 . S
O339 Eu321 2.392 . S
O339 C351 1.242 . S
O340 Eu321 2.418 . S
O340 C322 1.244 . S
O341 Eu320 2.488 . S
O341 C329 1.249 . S
O342 Eu320 2.471 . S
O342 C329 1.244 . S
O343 Eu320 2.349 . S
O343 C322 1.265 . S
C344 C345 1.379 . S
C344 C348 1.373 . S
C344 C350 1.505 1_554 S
C345 C344 1.379 . S
C345 C347 1.369 . S
C345 H356 0.930 . S
C346 C348 1.383 . S
C346 C349 1.382 . S
C346 H357 0.930 . S
C347 C345 1.369 . S
C347 C349 1.392 . S
C347 H358 0.930 . S
C348 C344 1.373 . S
C348 C346 1.383 . S
C348 H359 0.931 . S
C349 C346 1.382 . S
C349 C347 1.392 . S
C350 Eu321 2.828 . S
C350 O334 1.249 . S
C350 O335 1.244 . S
C350 C344 1.505 1_556 S
C351 O338 1.258 . S
C351 O339 1.242 . S
H352 C324 0.930 . S
H353 C325 0.930 . S
H354 C326 0.930 . S
H355 C327 0.931 . S
H356 C345 0.930 . S
H357 C346 0.930 . S
H358 C347 0.930 . S
H359 C348 0.931 . S
Eu360 C369 2.828 1_556 S
Eu360 O371 2.392 . S
Eu360 O373 2.418 . S
Eu360 O378 2.373 . S
Eu360 O381 2.488 . S
Eu360 O382 2.471 . S
Eu360 O383 2.349 . S
Eu361 O370 2.373 . S
Eu361 O374 2.488 . S
Eu361 O375 2.471 . S
Eu361 O376 2.349 . S
Eu361 O379 2.392 . S
Eu361 O380 2.418 . S
Eu361 C390 2.828 . S
C362 O380 1.244 . S
C362 O383 1.265 . S
C363 C364 1.379 . S
C363 C367 1.373 . S
C363 C369 1.505 . S
C364 C363 1.379 . S
C364 C366 1.369 . S
C364 H392 0.930 . S
C365 C367 1.383 . S
C365 C368 1.382 . S
C365 H393 0.930 . S
C366 C364 1.369 . S
C366 C368 1.392 . S
C366 H394 0.930 . S
C367 C363 1.373 . S
C367 C365 1.383 . S
C367 H395 0.931 . S
C368 C365 1.382 . S
C368 C366 1.392 . S
C369 Eu360 2.828 1_554 S
C369 C363 1.505 . S
C369 O381 1.249 1_554 S
C369 O382 1.244 1_554 S
O370 Eu361 2.373 . S
O370 C372 1.258 . S
O371 Eu360 2.392 . S
O371 C372 1.242 . S
C372 O370 1.258 . S
C372 O371 1.242 . S
O373 Eu360 2.418 . S
O373 C377 1.244 . S
O374 Eu361 2.488 . S
O374 C390 1.249 . S
O375 Eu361 2.471 . S
O375 C390 1.244 . S
O376 Eu361 2.349 . S
O376 C377 1.265 . S
C377 O373 1.244 . S
C377 O376 1.265 . S
O378 Eu360 2.373 . S
O378 C391 1.258 . S
O379 Eu361 2.392 . S
O379 C391 1.242 . S
O380 Eu361 2.418 . S
O380 C362 1.244 . S
O381 Eu360 2.488 . S
O381 C369 1.249 1_556 S
O382 Eu360 2.471 . S
O382 C369 1.244 1_556 S
O383 Eu360 2.349 . S
O383 C362 1.265 . S
C384 C385 1.379 . S
C384 C388 1.373 . S
C384 C390 1.505 . S
C385 C384 1.379 . S
C385 C387 1.369 . S
C385 H396 0.930 . S
C386 C388 1.383 . S
C386 C389 1.382 . S
C386 H397 0.930 . S
C387 C385 1.369 . S
C387 C389 1.392 . S
C387 H398 0.930 . S
C388 C384 1.373 . S
C388 C386 1.383 . S
C388 H399 0.931 . S
C389 C386 1.382 . S
C389 C387 1.392 . S
C390 Eu361 2.828 . S
C390 O374 1.249 . S
C390 O375 1.244 . S
C390 C384 1.505 . S
C391 O378 1.258 . S
C391 O379 1.242 . S
H392 C364 0.930 . S
H393 C365 0.930 . S
H394 C366 0.930 . S
H395 C367 0.931 . S
H396 C385 0.930 . S
H397 C386 0.930 . S
H398 C387 0.930 . S
H399 C388 0.931 . S
Eu400 C409 2.828 1_556 S
Eu400 O411 2.392 . S
Eu400 O413 2.418 . S
Eu400 O418 2.373 . S
Eu400 O421 2.488 1_556 S
Eu400 O422 2.471 . S
Eu400 O423 2.349 . S
Eu401 O410 2.373 . S
Eu401 O414 2.488 . S
Eu401 O415 2.471 . S
Eu401 O416 2.349 . S
Eu401 O419 2.392 . S
Eu401 O420 2.418 . S
Eu401 C430 2.828 . S
C402 O420 1.244 . S
C402 O423 1.265 . S
C403 C404 1.379 . S
C403 C407 1.373 . S
C403 C409 1.505 . S
C404 C403 1.379 . S
C404 C406 1.369 . S
C404 H432 0.930 . S
C405 C407 1.383 . S
C405 C408 1.382 . S
C405 H433 0.930 . S
C406 C404 1.369 . S
C406 C408 1.392 . S
C406 H434 0.930 . S
C407 C403 1.373 . S
C407 C405 1.383 . S
C407 H435 0.931 . S
C408 C405 1.382 . S
C408 C406 1.392 . S
C409 Eu400 2.828 1_554 S
C409 C403 1.505 . S
C409 O421 1.249 . S
C409 O422 1.244 1_554 S
O410 Eu401 2.373 . S
O410 C412 1.258 . S
O411 Eu400 2.392 . S
O411 C412 1.242 . S
C412 O410 1.258 . S
C412 O411 1.242 . S
O413 Eu400 2.418 . S
O413 C417 1.244 . S
O414 Eu401 2.488 . S
O414 C430 1.249 . S
O415 Eu401 2.471 . S
O415 C430 1.244 . S
O416 Eu401 2.349 . S
O416 C417 1.265 . S
C417 O413 1.244 . S
C417 O416 1.265 . S
O418 Eu400 2.373 . S
O418 C431 1.258 . S
O419 Eu401 2.392 . S
O419 C431 1.242 . S
O420 Eu401 2.418 . S
O420 C402 1.244 . S
O421 Eu400 2.488 1_554 S
O421 C409 1.249 . S
O422 Eu400 2.471 . S
O422 C409 1.244 1_556 S
O423 Eu400 2.349 . S
O423 C402 1.265 . S
C424 C425 1.379 . S
C424 C428 1.373 . S
C424 C430 1.505 . S
C425 C424 1.379 . S
C425 C427 1.369 . S
C425 H436 0.930 . S
C426 C428 1.383 . S
C426 C429 1.382 . S
C426 H437 0.930 . S
C427 C425 1.369 . S
C427 C429 1.392 . S
C427 H438 0.930 . S
C428 C424 1.373 . S
C428 C426 1.383 . S
C428 H439 0.931 . S
C429 C426 1.382 . S
C429 C427 1.392 . S
C430 Eu401 2.828 . S
C430 O414 1.249 . S
C430 O415 1.244 . S
C430 C424 1.505 . S
C431 O418 1.258 . S
C431 O419 1.242 . S
H432 C404 0.930 . S
H433 C405 0.930 . S
H434 C406 0.930 . S
H435 C407 0.931 . S
H436 C425 0.930 . S
H437 C426 0.930 . S
H438 C427 0.930 . S
H439 C428 0.931 . S
Eu440 C449 2.828 1_556 S
Eu440 O451 2.392 . S
Eu440 O453 2.418 . S
Eu440 O458 2.373 . S
Eu440 O461 2.488 . S
Eu440 O462 2.471 . S
Eu440 O463 2.349 . S
Eu441 O450 2.373 . S
Eu441 O454 2.488 . S
Eu441 O455 2.471 . S
Eu441 O456 2.349 . S
Eu441 O459 2.392 . S
Eu441 O460 2.418 . S
Eu441 C470 2.828 . S
C442 O460 1.244 . S
C442 O463 1.265 . S
C443 C444 1.379 . S
C443 C447 1.373 . S
C443 C449 1.505 . S
C444 C443 1.379 . S
C444 C446 1.369 . S
C444 H472 0.930 . S
C445 C447 1.383 . S
C445 C448 1.382 . S
C445 H473 0.930 . S
C446 C444 1.369 . S
C446 C448 1.392 . S
C446 H474 0.930 . S
C447 C443 1.373 . S
C447 C445 1.383 . S
C447 H475 0.931 . S
C448 C445 1.382 . S
C448 C446 1.392 . S
C449 Eu440 2.828 1_554 S
C449 C443 1.505 . S
C449 O461 1.249 1_554 S
C449 O462 1.244 1_554 S
O450 Eu441 2.373 . S
O450 C452 1.258 . S
O451 Eu440 2.392 . S
O451 C452 1.242 . S
C452 O450 1.258 . S
C452 O451 1.242 . S
O453 Eu440 2.418 . S
O453 C457 1.244 . S
O454 Eu441 2.488 . S
O454 C470 1.249 . S
O455 Eu441 2.471 . S
O455 C470 1.244 . S
O456 Eu441 2.349 . S
O456 C457 1.265 . S
C457 O453 1.244 . S
C457 O456 1.265 . S
O458 Eu440 2.373 . S
O458 C471 1.258 . S
O459 Eu441 2.392 . S
O459 C471 1.242 . S
O460 Eu441 2.418 . S
O460 C442 1.244 . S
O461 Eu440 2.488 . S
O461 C449 1.249 1_556 S
O462 Eu440 2.471 . S
O462 C449 1.244 1_556 S
O463 Eu440 2.349 . S
O463 C442 1.265 . S
C464 C465 1.379 . S
C464 C468 1.373 . S
C464 C470 1.505 . S
C465 C464 1.379 . S
C465 C467 1.369 . S
C465 H476 0.930 . S
C466 C468 1.383 . S
C466 C469 1.382 . S
C466 H477 0.930 . S
C467 C465 1.369 . S
C467 C469 1.392 . S
C467 H478 0.930 . S
C468 C464 1.373 . S
C468 C466 1.383 . S
C468 H479 0.931 . S
C469 C466 1.382 . S
C469 C467 1.392 . S
C470 Eu441 2.828 . S
C470 O454 1.249 . S
C470 O455 1.244 . S
C470 C464 1.505 . S
C471 O458 1.258 . S
C471 O459 1.242 . S
H472 C444 0.930 . S
H473 C445 0.930 . S
H474 C446 0.930 . S
H475 C447 0.931 . S
H476 C465 0.930 . S
H477 C466 0.930 . S
H478 C467 0.930 . S
H479 C468 0.931 . S
Eu480 C489 2.828 . S
Eu480 O491 2.392 . S
Eu480 O493 2.418 . S
Eu480 O498 2.373 . S
Eu480 O501 2.488 . S
Eu480 O502 2.471 . S
Eu480 O503 2.349 . S
Eu481 O490 2.373 . S
Eu481 O494 2.488 1_554 S
Eu481 O495 2.471 1_554 S
Eu481 O496 2.349 . S
Eu481 O499 2.392 . S
Eu481 O500 2.418 . S
Eu481 C510 2.828 1_554 S
C482 O500 1.244 . S
C482 O503 1.265 . S
C483 C484 1.379 . S
C483 C487 1.373 . S
C483 C489 1.505 . S
C484 C483 1.379 . S
C484 C486 1.369 . S
C484 H512 0.930 . S
C485 C487 1.383 . S
C485 C488 1.382 . S
C485 H513 0.930 . S
C486 C484 1.369 . S
C486 C488 1.392 . S
C486 H514 0.930 . S
C487 C483 1.373 . S
C487 C485 1.383 . S
C487 H515 0.931 . S
C488 C485 1.382 . S
C488 C486 1.392 . S
C489 Eu480 2.828 . S
C489 C483 1.505 . S
C489 O501 1.249 . S
C489 O502 1.244 . S
O490 Eu481 2.373 . S
O490 C492 1.258 . S
O491 Eu480 2.392 . S
O491 C492 1.242 . S
C492 O490 1.258 . S
C492 O491 1.242 . S
O493 Eu480 2.418 . S
O493 C497 1.244 . S
O494 Eu481 2.488 1_556 S
O494 C510 1.249 . S
O495 Eu481 2.471 1_556 S
O495 C510 1.244 . S
O496 Eu481 2.349 . S
O496 C497 1.265 . S
C497 O493 1.244 . S
C497 O496 1.265 . S
O498 Eu480 2.373 . S
O498 C511 1.258 . S
O499 Eu481 2.392 . S
O499 C511 1.242 . S
O500 Eu481 2.418 . S
O500 C482 1.244 . S
O501 Eu480 2.488 . S
O501 C489 1.249 . S
O502 Eu480 2.471 . S
O502 C489 1.244 . S
O503 Eu480 2.349 . S
O503 C482 1.265 . S
C504 C505 1.379 . S
C504 C508 1.373 . S
C504 C510 1.505 . S
C505 C504 1.379 . S
C505 C507 1.369 . S
C505 H516 0.930 . S
C506 C508 1.383 . S
C506 C509 1.382 . S
C506 H517 0.930 . S
C507 C505 1.369 . S
C507 C509 1.392 . S
C507 H518 0.930 . S
C508 C504 1.373 . S
C508 C506 1.383 . S
C508 H519 0.931 . S
C509 C506 1.382 . S
C509 C507 1.392 . S
C510 Eu481 2.828 1_556 S
C510 O494 1.249 . S
C510 O495 1.244 . S
C510 C504 1.505 . S
C511 O498 1.258 . S
C511 O499 1.242 . S
H512 C484 0.930 . S
H513 C485 0.930 . S
H514 C486 0.930 . S
H515 C487 0.931 . S
H516 C505 0.930 . S
H517 C506 0.930 . S
H518 C507 0.930 . S
H519 C508 0.931 . S
Eu520 C529 2.828 1_554 S
Eu520 O531 2.392 . S
Eu520 O533 2.418 . S
Eu520 O538 2.373 . S
Eu520 O541 2.488 1_554 S
Eu520 O542 2.471 1_554 S
Eu520 O543 2.349 . S
Eu521 O530 2.373 . S
Eu521 O534 2.488 . S
Eu521 O535 2.471 . S
Eu521 O536 2.349 . S
Eu521 O539 2.392 . S
Eu521 O540 2.418 . S
Eu521 C550 2.828 . S
C522 O540 1.244 . S
C522 O543 1.265 . S
C523 C524 1.379 . S
C523 C527 1.373 . S
C523 C529 1.505 . S
C524 C523 1.379 . S
C524 C526 1.369 . S
C524 H552 0.930 . S
C525 C527 1.383 . S
C525 C528 1.382 . S
C525 H553 0.930 . S
C526 C524 1.369 . S
C526 C528 1.392 . S
C526 H554 0.930 . S
C527 C523 1.373 . S
C527 C525 1.383 . S
C527 H555 0.931 . S
C528 C525 1.382 . S
C528 C526 1.392 . S
C529 Eu520 2.828 1_556 S
C529 C523 1.505 . S
C529 O541 1.249 . S
C529 O542 1.244 . S
O530 Eu521 2.373 . S
O530 C532 1.258 . S
O531 Eu520 2.392 . S
O531 C532 1.242 . S
C532 O530 1.258 . S
C532 O531 1.242 . S
O533 Eu520 2.418 . S
O533 C537 1.244 . S
O534 Eu521 2.488 . S
O534 C550 1.249 . S
O535 Eu521 2.471 . S
O535 C550 1.244 . S
O536 Eu521 2.349 . S
O536 C537 1.265 . S
C537 O533 1.244 . S
C537 O536 1.265 . S
O538 Eu520 2.373 . S
O538 C551 1.258 . S
O539 Eu521 2.392 . S
O539 C551 1.242 . S
O540 Eu521 2.418 . S
O540 C522 1.244 . S
O541 Eu520 2.488 1_556 S
O541 C529 1.249 . S
O542 Eu520 2.471 1_556 S
O542 C529 1.244 . S
O543 Eu520 2.349 . S
O543 C522 1.265 . S
C544 C545 1.379 . S
C544 C548 1.373 . S
C544 C550 1.505 . S
C545 C544 1.379 . S
C545 C547 1.369 . S
C545 H556 0.930 . S
C546 C548 1.383 . S
C546 C549 1.382 . S
C546 H557 0.930 . S
C547 C545 1.369 . S
C547 C549 1.392 . S
C547 H558 0.930 . S
C548 C544 1.373 . S
C548 C546 1.383 . S
C548 H559 0.931 . S
C549 C546 1.382 . S
C549 C547 1.392 . S
C550 Eu521 2.828 . S
C550 O534 1.249 . S
C550 O535 1.244 . S
C550 C544 1.505 . S
C551 O538 1.258 . S
C551 O539 1.242 . S
H552 C524 0.930 . S
H553 C525 0.930 . S
H554 C526 0.930 . S
H555 C527 0.931 . S
H556 C545 0.930 . S
H557 C546 0.930 . S
H558 C547 0.930 . S
H559 C548 0.931 . S
Eu560 C569 2.828 . S
Eu560 O571 2.392 . S
Eu560 O573 2.418 . S
Eu560 O578 2.373 . S
Eu560 O581 2.488 . S
Eu560 O582 2.471 . S
Eu560 O583 2.349 . S
Eu561 O570 2.373 . S
Eu561 O574 2.488 . S
Eu561 O575 2.471 . S
Eu561 O576 2.349 . S
Eu561 O579 2.392 . S
Eu561 O580 2.418 . S
Eu561 C590 2.828 1_554 S
C562 O580 1.244 . S
C562 O583 1.265 . S
C563 C564 1.379 . S
C563 C567 1.373 . S
C563 C569 1.505 . S
C564 C563 1.379 . S
C564 C566 1.369 . S
C564 H592 0.930 . S
C565 C567 1.383 . S
C565 C568 1.382 . S
C565 H593 0.930 . S
C566 C564 1.369 . S
C566 C568 1.392 . S
C566 H594 0.930 . S
C567 C563 1.373 . S
C567 C565 1.383 . S
C567 H595 0.931 . S
C568 C565 1.382 . S
C568 C566 1.392 . S
C569 Eu560 2.828 . S
C569 C563 1.505 . S
C569 O581 1.249 . S
C569 O582 1.244 . S
O570 Eu561 2.373 . S
O570 C572 1.258 . S
O571 Eu560 2.392 . S
O571 C572 1.242 . S
C572 O570 1.258 . S
C572 O571 1.242 . S
O573 Eu560 2.418 . S
O573 C577 1.244 . S
O574 Eu561 2.488 . S
O574 C590 1.249 1_554 S
O575 Eu561 2.471 . S
O575 C590 1.244 1_554 S
O576 Eu561 2.349 . S
O576 C577 1.265 . S
C577 O573 1.244 . S
C577 O576 1.265 . S
O578 Eu560 2.373 . S
O578 C591 1.258 . S
O579 Eu561 2.392 . S
O579 C591 1.242 . S
O580 Eu561 2.418 . S
O580 C562 1.244 . S
O581 Eu560 2.488 . S
O581 C569 1.249 . S
O582 Eu560 2.471 . S
O582 C569 1.244 . S
O583 Eu560 2.349 . S
O583 C562 1.265 . S
C584 C585 1.379 . S
C584 C588 1.373 . S
C584 C590 1.505 . S
C585 C584 1.379 . S
C585 C587 1.369 . S
C585 H596 0.930 . S
C586 C588 1.383 . S
C586 C589 1.382 . S
C586 H597 0.930 . S
C587 C585 1.369 . S
C587 C589 1.392 . S
C587 H598 0.930 . S
C588 C584 1.373 . S
C588 C586 1.383 . S
C588 H599 0.931 . S
C589 C586 1.382 . S
C589 C587 1.392 . S
C590 Eu561 2.828 1_556 S
C590 O574 1.249 1_556 S
C590 O575 1.244 1_556 S
C590 C584 1.505 . S
C591 O578 1.258 . S
C591 O579 1.242 . S
H592 C564 0.930 . S
H593 C565 0.930 . S
H594 C566 0.930 . S
H595 C567 0.931 . S
H596 C585 0.930 . S
H597 C586 0.930 . S
H598 C587 0.930 . S
H599 C588 0.931 . S
Eu600 C609 2.828 . S
Eu600 O611 2.392 . S
Eu600 O613 2.418 . S
Eu600 O618 2.373 . S
Eu600 O621 2.488 . S
Eu600 O622 2.471 . S
Eu600 O623 2.349 . S
Eu601 O610 2.373 . S
Eu601 O614 2.490 . S
Eu601 O615 2.471 . S
Eu601 O616 2.349 . S
Eu601 O619 2.392 . S
Eu601 O620 2.418 . S
Eu601 C630 2.828 1_554 S
C602 O620 1.244 . S
C602 O623 1.265 . S
C603 C604 1.379 . S
C603 C607 1.373 . S
C603 C609 1.505 . S
C604 C603 1.379 . S
C604 C606 1.369 . S
C604 H632 0.930 . S
C605 C607 1.383 . S
C605 C608 1.382 . S
C605 H633 0.930 . S
C606 C604 1.369 . S
C606 C608 1.392 . S
C606 H634 0.930 . S
C607 C603 1.373 . S
C607 C605 1.383 . S
C607 H635 0.931 . S
C608 C605 1.382 . S
C608 C606 1.392 . S
C609 Eu600 2.828 . S
C609 C603 1.505 . S
C609 O621 1.249 . S
C609 O622 1.244 . S
O610 Eu601 2.373 . S
O610 C612 1.258 . S
O611 Eu600 2.392 . S
O611 C612 1.242 . S
C612 O610 1.258 . S
C612 O611 1.242 . S
O613 Eu600 2.418 . S
O613 C617 1.244 . S
O614 Eu601 2.490 . S
O614 C630 1.249 1_554 S
O615 Eu601 2.471 . S
O615 C630 1.244 1_554 S
O616 Eu601 2.349 . S
O616 C617 1.265 . S
C617 O613 1.244 . S
C617 O616 1.265 . S
O618 Eu600 2.373 . S
O618 C631 1.258 . S
O619 Eu601 2.392 . S
O619 C631 1.242 . S
O620 Eu601 2.418 . S
O620 C602 1.244 . S
O621 Eu600 2.488 . S
O621 C609 1.249 . S
O622 Eu600 2.471 . S
O622 C609 1.244 . S
O623 Eu600 2.349 . S
O623 C602 1.265 . S
C624 C625 1.379 . S
C624 C628 1.373 . S
C624 C630 1.505 . S
C625 C624 1.379 . S
C625 C627 1.369 . S
C625 H636 0.930 . S
C626 C628 1.383 . S
C626 C629 1.382 . S
C626 H637 0.930 . S
C627 C625 1.369 . S
C627 C629 1.392 . S
C627 H638 0.930 . S
C628 C624 1.373 . S
C628 C626 1.383 . S
C628 H639 0.931 . S
C629 C626 1.382 . S
C629 C627 1.392 . S
C630 Eu601 2.828 1_556 S
C630 O614 1.249 1_556 S
C630 O615 1.244 1_556 S
C630 C624 1.505 . S
C631 O618 1.258 . S
C631 O619 1.242 . S
H632 C604 0.930 . S
H633 C605 0.930 . S
H634 C606 0.930 . S
H635 C607 0.931 . S
H636 C625 0.930 . S
H637 C626 0.930 . S
H638 C627 0.930 . S
H639 C628 0.931 . S
Eu640 C649 2.828 . S
Eu640 O651 2.392 . S
Eu640 O653 2.418 . S
Eu640 O658 2.373 . S
Eu640 O661 2.488 . S
Eu640 O662 2.471 . S
Eu640 O663 2.349 . S
Eu641 O650 2.373 . S
Eu641 O654 2.488 . S
Eu641 O655 2.471 . S
Eu641 O656 2.349 . S
Eu641 O659 2.392 . S
Eu641 O660 2.418 . S
Eu641 C670 2.828 . S
C642 O660 1.244 . S
C642 O663 1.265 . S
C643 C644 1.379 . S
C643 C647 1.373 . S
C643 C649 1.505 1_556 S
C644 C643 1.379 . S
C644 C646 1.369 . S
C644 H672 0.930 . S
C645 C647 1.383 . S
C645 C648 1.382 . S
C645 H673 0.930 . S
C646 C644 1.369 . S
C646 C648 1.392 . S
C646 H674 0.930 . S
C647 C643 1.373 . S
C647 C645 1.383 . S
C647 H675 0.931 . S
C648 C645 1.382 . S
C648 C646 1.392 . S
C649 Eu640 2.828 . S
C649 C643 1.505 1_554 S
C649 O661 1.249 . S
C649 O662 1.244 . S
O650 Eu641 2.373 . S
O650 C652 1.258 . S
O651 Eu640 2.392 . S
O651 C652 1.242 . S
C652 O650 1.258 . S
C652 O651 1.242 . S
O653 Eu640 2.418 . S
O653 C657 1.244 . S
O654 Eu641 2.488 . S
O654 C670 1.249 . S
O655 Eu641 2.471 . S
O655 C670 1.244 . S
O656 Eu641 2.349 . S
O656 C657 1.265 . S
C657 O653 1.244 . S
C657 O656 1.265 . S
O658 Eu640 2.373 . S
O658 C671 1.258 . S
O659 Eu641 2.392 . S
O659 C671 1.242 . S
O660 Eu641 2.418 . S
O660 C642 1.244 . S
O661 Eu640 2.488 . S
O661 C649 1.249 . S
O662 Eu640 2.471 . S
O662 C649 1.244 . S
O663 Eu640 2.349 . S
O663 C642 1.265 . S
C664 C665 1.379 . S
C664 C668 1.373 . S
C664 C670 1.505 . S
C665 C664 1.379 . S
C665 C667 1.369 . S
C665 H676 0.930 . S
C666 C668 1.383 . S
C666 C669 1.382 . S
C666 H677 0.930 . S
C667 C665 1.369 . S
C667 C669 1.392 . S
C667 H678 0.930 . S
C668 C664 1.373 . S
C668 C666 1.383 . S
C668 H679 0.931 . S
C669 C666 1.382 . S
C669 C667 1.392 . S
C670 Eu641 2.828 . S
C670 O654 1.249 . S
C670 O655 1.244 . S
C670 C664 1.505 . S
C671 O658 1.258 . S
C671 O659 1.242 . S
H672 C644 0.930 . S
H673 C645 0.930 . S
H674 C646 0.930 . S
H675 C647 0.931 . S
H676 C665 0.930 . S
H677 C666 0.930 . S
H678 C667 0.930 . S
H679 C668 0.931 . S
Eu680 C689 2.828 . S
Eu680 O691 2.392 . S
Eu680 O693 2.418 . S
Eu680 O698 2.373 . S
Eu680 O701 2.488 . S
Eu680 O702 2.471 . S
Eu680 O703 2.349 . S
Eu681 O690 2.373 . S
Eu681 O694 2.488 . S
Eu681 O695 2.471 . S
Eu681 O696 2.349 . S
Eu681 O699 2.392 . S
Eu681 O700 2.418 . S
Eu681 C710 2.828 . S
C682 O700 1.244 . S
C682 O703 1.265 . S
C683 C684 1.379 . S
C683 C687 1.373 . S
C683 C689 1.505 . S
C684 C683 1.379 . S
C684 C686 1.369 . S
C684 H712 0.930 . S
C685 C687 1.383 . S
C685 C688 1.382 . S
C685 H713 0.930 . S
C686 C684 1.369 . S
C686 C688 1.392 . S
C686 H714 0.930 . S
C687 C683 1.373 . S
C687 C685 1.383 . S
C687 H715 0.931 . S
C688 C685 1.382 . S
C688 C686 1.392 . S
C689 Eu680 2.828 . S
C689 C683 1.505 . S
C689 O701 1.249 . S
C689 O702 1.244 . S
O690 Eu681 2.373 . S
O690 C692 1.258 . S
O691 Eu680 2.392 . S
O691 C692 1.242 . S
C692 O690 1.258 . S
C692 O691 1.242 . S
O693 Eu680 2.418 . S
O693 C697 1.244 . S
O694 Eu681 2.488 . S
O694 C710 1.249 . S
O695 Eu681 2.471 . S
O695 C710 1.244 . S
O696 Eu681 2.349 . S
O696 C697 1.265 . S
C697 O693 1.244 . S
C697 O696 1.265 . S
O698 Eu680 2.373 . S
O698 C711 1.258 . S
O699 Eu681 2.392 . S
O699 C711 1.242 . S
O700 Eu681 2.418 . S
O700 C682 1.244 . S
O701 Eu680 2.488 . S
O701 C689 1.249 . S
O702 Eu680 2.471 . S
O702 C689 1.244 . S
O703 Eu680 2.349 . S
O703 C682 1.265 . S
C704 C705 1.379 . S
C704 C708 1.373 . S
C704 C710 1.505 1_556 S
C705 C704 1.379 . S
C705 C707 1.369 . S
C705 H716 0.930 . S
C706 C708 1.383 . S
C706 C709 1.382 . S
C706 H717 0.930 . S
C707 C705 1.369 . S
C707 C709 1.392 . S
C707 H718 0.930 . S
C708 C704 1.373 . S
C708 C706 1.383 . S
C708 H719 0.931 . S
C709 C706 1.382 . S
C709 C707 1.392 . S
C710 Eu681 2.828 . S
C710 O694 1.249 . S
C710 O695 1.244 . S
C710 C704 1.505 1_554 S
C711 O698 1.258 . S
C711 O699 1.242 . S
H712 C684 0.930 . S
H713 C685 0.930 . S
H714 C686 0.930 . S
H715 C687 0.931 . S
H716 C705 0.930 . S
H717 C706 0.930 . S
H718 C707 0.930 . S
H719 C708 0.931 . S
C720 C721 1.369 . S
C720 C722 1.419 . S
C720 H724 0.930 . S
C721 C720 1.369 . S
C721 C730 1.429 . S
C722 C720 1.419 . S
C722 C723 1.363 . S
C722 H725 0.929 . S
C723 C722 1.363 . S
C723 C729 1.428 . S
H724 C720 0.930 . S
H725 C722 0.929 . S
S726 N727 1.613 . S
S726 N728 1.610 . S
N727 S726 1.613 . S
N727 C730 1.350 . S
N728 S726 1.610 . S
N728 C729 1.351 . S
C729 C723 1.428 . S
C729 N728 1.351 . S
C729 C730 1.434 . S
C730 C721 1.429 . S
C730 N727 1.350 . S
C730 C729 1.434 . S
C731 C732 1.369 . S
C731 C733 1.419 . S
C731 H735 0.930 . S
C732 C731 1.369 . S
C732 C741 1.429 . S
C733 C731 1.419 . S
C733 C734 1.363 . S
C733 H736 0.929 . S
C734 C733 1.363 . S
C734 C740 1.428 . S
H735 C731 0.930 . S
H736 C733 0.929 . S
S737 N738 1.613 . S
S737 N739 1.610 . S
N738 S737 1.613 . S
N738 C741 1.350 . S
N739 S737 1.610 . S
N739 C740 1.351 . S
C740 C734 1.428 . S
C740 N739 1.351 . S
C740 C741 1.434 . S
C741 C732 1.429 . S
C741 N738 1.350 . S
C741 C740 1.434 . S
C742 C743 1.369 . S
C742 C744 1.419 . S
C742 H746 0.930 . S
C743 C742 1.369 . S
C743 C752 1.429 . S
C744 C742 1.419 . S
C744 C745 1.363 . S
C744 H747 0.929 . S
C745 C744 1.363 . S
C745 C751 1.428 . S
H746 C742 0.930 . S
H747 C744 0.929 . S
S748 N749 1.613 . S
S748 N750 1.610 . S
N749 S748 1.613 . S
N749 C752 1.350 . S
N750 S748 1.610 . S
N750 C751 1.351 . S
C751 C745 1.428 . S
C751 N750 1.351 . S
C751 C752 1.434 . S
C752 C743 1.429 . S
C752 N749 1.350 . S
C752 C751 1.434 . S
C753 C754 1.369 . S
C753 C755 1.419 . S
C753 H757 0.930 . S
C754 C753 1.369 . S
C754 C763 1.429 . S
C755 C753 1.419 . S
C755 C756 1.363 . S
C755 H758 0.929 . S
C756 C755 1.363 . S
C756 C762 1.428 . S
H757 C753 0.930 . S
H758 C755 0.929 . S
S759 N760 1.613 . S
S759 N761 1.610 . S
N760 S759 1.613 . S
N760 C763 1.350 . S
N761 S759 1.610 . S
N761 C762 1.351 . S
C762 C756 1.428 . S
C762 N761 1.351 . S
C762 C763 1.434 . S
C763 C754 1.429 . S
C763 N760 1.350 . S
C763 C762 1.434 . S
C764 C765 1.369 . S
C764 C766 1.419 . S
C764 H768 0.930 . S
C765 C764 1.369 . S
C765 C774 1.429 . S
C766 C764 1.419 . S
C766 C767 1.363 . S
C766 H769 0.929 . S
C767 C766 1.363 . S
C767 C773 1.428 . S
H768 C764 0.930 . S
H769 C766 0.929 . S
S770 N771 1.613 . S
S770 N772 1.610 . S
N771 S770 1.613 . S
N771 C774 1.350 . S
N772 S770 1.610 . S
N772 C773 1.351 . S
C773 C767 1.428 . S
C773 N772 1.351 . S
C773 C774 1.434 . S
C774 C765 1.429 . S
C774 N771 1.350 . S
C774 C773 1.434 . S
C775 C776 1.369 . S
C775 C777 1.419 . S
C775 H779 0.930 . S
C776 C775 1.369 . S
C776 C785 1.429 . S
C777 C775 1.419 . S
C777 C778 1.363 . S
C777 H780 0.929 . S
C778 C777 1.363 . S
C778 C784 1.428 . S
H779 C775 0.930 . S
H780 C777 0.929 . S
S781 N782 1.613 . S
S781 N783 1.610 . S
N782 S781 1.613 . S
N782 C785 1.350 . S
N783 S781 1.610 . S
N783 C784 1.351 . S
C784 C778 1.428 . S
C784 N783 1.351 . S
C784 C785 1.434 . S
C785 C776 1.429 . S
C785 N782 1.350 . S
C785 C784 1.434 . S
C786 C787 1.369 . S
C786 C788 1.419 . S
C786 H790 0.930 . S
C787 C786 1.369 . S
C787 C796 1.429 . S
C788 C786 1.419 . S
C788 C789 1.363 . S
C788 H791 0.929 . S
C789 C788 1.363 . S
C789 C795 1.428 . S
H790 C786 0.930 . S
H791 C788 0.929 . S
S792 N793 1.613 . S
S792 N794 1.610 . S
N793 S792 1.613 . S
N793 C796 1.350 . S
N794 S792 1.610 . S
N794 C795 1.351 . S
C795 C789 1.428 . S
C795 N794 1.351 . S
C795 C796 1.434 . S
C796 C787 1.429 . S
C796 N793 1.350 . S
C796 C795 1.434 . S
C797 C798 1.369 . S
C797 C799 1.419 . S
C797 H801 0.930 . S
C798 C797 1.369 . S
C798 C807 1.429 . S
C799 C797 1.419 . S
C799 C800 1.363 . S
C799 H802 0.929 . S
C800 C799 1.363 . S
C800 C806 1.428 . S
H801 C797 0.930 . S
H802 C799 0.929 . S
S803 N804 1.613 . S
S803 N805 1.610 . S
N804 S803 1.613 . S
N804 C807 1.350 . S
N805 S803 1.610 . S
N805 C806 1.351 . S
C806 C800 1.428 . S
C806 N805 1.351 . S
C806 C807 1.434 . S
C807 C798 1.429 . S
C807 N804 1.350 . S
C807 C806 1.434 . S
C808 C809 1.369 . S
C808 C810 1.419 . S
C808 H812 0.930 . S
C809 C808 1.369 . S
C809 C818 1.429 . S
C810 C808 1.419 . S
C810 C811 1.363 . S
C810 H813 0.929 . S
C811 C810 1.363 . S
C811 C817 1.428 . S
H812 C808 0.930 . S
H813 C810 0.929 . S
S814 N815 1.613 . S
S814 N816 1.610 . S
N815 S814 1.613 . S
N815 C818 1.350 . S
N816 S814 1.610 . S
N816 C817 1.351 . S
C817 C811 1.428 . S
C817 N816 1.351 . S
C817 C818 1.434 . S
C818 C809 1.429 . S
C818 N815 1.350 . S
C818 C817 1.434 . S
C819 C820 1.369 . S
C819 C821 1.419 . S
C819 H823 0.930 . S
C820 C819 1.369 . S
C820 C829 1.429 . S
C821 C819 1.419 . S
C821 C822 1.363 . S
C821 H824 0.929 . S
C822 C821 1.363 . S
C822 C828 1.428 . S
H823 C819 0.930 . S
H824 C821 0.929 . S
S825 N826 1.613 . S
S825 N827 1.610 . S
N826 S825 1.613 . S
N826 C829 1.350 . S
N827 S825 1.610 . S
N827 C828 1.351 . S
C828 C822 1.428 . S
C828 N827 1.351 . S
C828 C829 1.434 . S
C829 C820 1.429 . S
C829 N826 1.350 . S
C829 C828 1.434 . S
C830 C831 1.369 . S
C830 C832 1.419 . S
C830 H834 0.930 . S
C831 C830 1.369 . S
C831 C840 1.429 . S
C832 C830 1.419 . S
C832 C833 1.363 . S
C832 H835 0.929 . S
C833 C832 1.363 . S
C833 C839 1.428 . S
H834 C830 0.930 . S
H835 C832 0.929 . S
S836 N837 1.613 . S
S836 N838 1.610 . S
N837 S836 1.613 . S
N837 C840 1.350 . S
N838 S836 1.610 . S
N838 C839 1.351 . S
C839 C833 1.428 . S
C839 N838 1.351 . S
C839 C840 1.434 . S
C840 C831 1.429 . S
C840 N837 1.350 . S
C840 C839 1.434 . S
C841 C842 1.369 . S
C841 C843 1.419 . S
C841 H845 0.930 . S
C842 C841 1.369 . S
C842 C851 1.429 . S
C843 C841 1.419 . S
C843 C844 1.363 . S
C843 H846 0.929 . S
C844 C843 1.363 . S
C844 C850 1.428 . S
H845 C841 0.930 . S
H846 C843 0.929 . S
S847 N848 1.613 . S
S847 N849 1.610 . S
N848 S847 1.613 . S
N848 C851 1.350 . S
N849 S847 1.610 . S
N849 C850 1.351 . S
C850 C844 1.428 . S
C850 N849 1.351 . S
C850 C851 1.434 . S
C851 C842 1.429 . S
C851 N848 1.350 . S
C851 C850 1.434 . S
C852 C853 1.369 . S
C852 C854 1.419 1_656 S
C852 H856 0.930 . S
C853 C852 1.369 . S
C853 C862 1.429 . S
C854 C852 1.419 1_454 S
C854 C855 1.363 . S
C854 H857 0.929 . S
C855 C854 1.363 . S
C855 C861 1.428 . S
H856 C852 0.930 . S
H857 C854 0.929 . S
S858 N859 1.613 1_455 S
S858 N860 1.610 1_556 S
N859 S858 1.613 1_655 S
N859 C862 1.350 . S
N860 S858 1.610 1_554 S
N860 C861 1.351 . S
C861 C855 1.428 . S
C861 N860 1.351 . S
C861 C862 1.434 1_454 S
C862 C853 1.429 . S
C862 N859 1.350 . S
C862 C861 1.434 1_656 S
C863 C864 1.369 . S
C863 C865 1.419 . S
C863 H867 0.930 . S
C864 C863 1.369 . S
C864 C873 1.429 . S
C865 C863 1.419 . S
C865 C866 1.363 1_556 S
C865 H868 0.929 . S
C866 C865 1.363 1_554 S
C866 C872 1.428 . S
H867 C863 0.930 . S
H868 C865 0.929 . S
S869 N870 1.613 1_554 S
S869 N871 1.610 . S
N870 S869 1.613 1_556 S
N870 C873 1.350 . S
N871 S869 1.610 . S
N871 C872 1.351 . S
C872 C866 1.428 . S
C872 N871 1.351 . S
C872 C873 1.434 1_554 S
C873 C864 1.429 . S
C873 N870 1.350 . S
C873 C872 1.434 1_556 S
C874 C875 1.369 . S
C874 C876 1.419 1_556 S
C874 H878 0.930 . S
C875 C874 1.369 . S
C875 C884 1.429 1_545 S
C876 C874 1.419 1_554 S
C876 C877 1.363 1_545 S
C876 H879 0.929 . S
C877 C876 1.363 1_565 S
C877 C883 1.428 1_554 S
H878 C874 0.930 . S
H879 C876 0.929 . S
S880 N881 1.613 . S
S880 N882 1.610 . S
N881 S880 1.613 . S
N881 C884 1.350 . S
N882 S880 1.610 . S
N882 C883 1.351 . S
C883 C877 1.428 1_556 S
C883 N882 1.351 . S
C883 C884 1.434 . S
C884 C875 1.429 1_565 S
C884 N881 1.350 . S
C884 C883 1.434 . S
C885 C886 1.369 . S
C885 C887 1.419 1_556 S
C885 H889 0.930 . S
C886 C885 1.369 . S
C886 C895 1.429 1_545 S
C887 C885 1.419 1_554 S
C887 C888 1.363 1_545 S
C887 H890 0.929 . S
C888 C887 1.363 1_565 S
C888 C894 1.428 . S
H889 C885 0.930 . S
H890 C887 0.929 . S
S891 N892 1.613 . S
S891 N893 1.610 1_556 S
N892 S891 1.613 . S
N892 C895 1.350 . S
N893 S891 1.610 1_554 S
N893 C894 1.351 . S
C894 C888 1.428 . S
C894 N893 1.351 . S
C894 C895 1.434 1_554 S
C895 C886 1.429 1_565 S
C895 N892 1.350 . S
C895 C894 1.434 1_556 S
C896 C897 1.369 . S
C896 C898 1.419 1_455 S
C896 H900 0.930 . S
C897 C896 1.369 . S
C897 C906 1.429 . S
C898 C896 1.419 1_655 S
C898 C899 1.363 1_554 S
C898 H901 0.929 . S
C899 C898 1.363 1_556 S
C899 C905 1.428 1_655 S
H900 C896 0.930 . S
H901 C898 0.929 . S
S902 N903 1.613 1_556 S
S902 N904 1.610 . S
N903 S902 1.613 1_554 S
N903 C906 1.350 . S
N904 S902 1.610 . S
N904 C905 1.351 . S
C905 C899 1.428 1_455 S
C905 N904 1.351 . S
C905 C906 1.434 1_556 S
C906 C897 1.429 . S
C906 N903 1.350 . S
C906 C905 1.434 1_554 S
C907 C908 1.369 . S
C907 C909 1.419 1_554 S
C907 H911 0.930 . S
C908 C907 1.369 . S
C908 C917 1.429 . S
C909 C907 1.419 1_556 S
C909 C910 1.363 . S
C909 H912 0.929 . S
C910 C909 1.363 . S
C910 C916 1.428 . S
H911 C907 0.930 . S
H912 C909 0.929 . S
S913 N914 1.613 1_556 S
S913 N915 1.610 . S
N914 S913 1.613 1_554 S
N914 C917 1.350 . S
N915 S913 1.610 . S
N915 C916 1.351 . S
C916 C910 1.428 . S
C916 N915 1.351 . S
C916 C917 1.434 1_556 S
C917 C908 1.429 . S
C917 N914 1.350 . S
C917 C916 1.434 1_554 S
C918 C919 1.369 . S
C918 C920 1.419 . S
C918 H922 0.930 . S
C919 C918 1.369 . S
C919 C928 1.429 . S
C920 C918 1.419 . S
C920 C921 1.363 . S
C920 H923 0.929 . S
C921 C920 1.363 . S
C921 C927 1.428 . S
H922 C918 0.930 . S
H923 C920 0.929 . S
S924 N925 1.613 . S
S924 N926 1.610 . S
N925 S924 1.613 . S
N925 C928 1.350 . S
N926 S924 1.610 . S
N926 C927 1.351 . S
C927 C921 1.428 . S
C927 N926 1.351 . S
C927 C928 1.434 . S
C928 C919 1.429 . S
C928 N925 1.350 . S
C928 C927 1.434 . S
C929 C930 1.369 . S
C929 C931 1.419 . S
C929 H933 0.930 . S
C930 C929 1.369 . S
C930 C939 1.429 . S
C931 C929 1.419 . S
C931 C932 1.363 . S
C931 H934 0.929 . S
C932 C931 1.363 . S
C932 C938 1.428 . S
H933 C929 0.930 . S
H934 C931 0.929 . S
S935 N936 1.613 . S
S935 N937 1.610 . S
N936 S935 1.613 . S
N936 C939 1.350 . S
N937 S935 1.610 . S
N937 C938 1.351 . S
C938 C932 1.428 . S
C938 N937 1.351 . S
C938 C939 1.434 . S
C939 C930 1.429 . S
C939 N936 1.350 . S
C939 C938 1.434 . S
C940 C941 1.369 . S
C940 C942 1.419 . S
C940 H944 0.930 . S
C941 C940 1.369 . S
C941 C950 1.429 . S
C942 C940 1.419 . S
C942 C943 1.363 . S
C942 H945 0.929 . S
C943 C942 1.363 . S
C943 C949 1.428 . S
H944 C940 0.930 . S
H945 C942 0.929 . S
S946 N947 1.613 . S
S946 N948 1.610 . S
N947 S946 1.613 . S
N947 C950 1.350 . S
N948 S946 1.610 . S
N948 C949 1.351 . S
C949 C943 1.428 . S
C949 N948 1.351 . S
C949 C950 1.434 . S
C950 C941 1.429 . S
C950 N947 1.350 . S
C950 C949 1.434 . S
C951 C952 1.369 . S
C951 C953 1.419 . S
C951 H955 0.930 . S
C952 C951 1.369 . S
C952 C961 1.429 . S
C953 C951 1.419 . S
C953 C954 1.363 . S
C953 H956 0.929 . S
C954 C953 1.363 . S
C954 C960 1.428 . S
H955 C951 0.930 . S
H956 C953 0.929 . S
S957 N958 1.613 . S
S957 N959 1.610 . S
N958 S957 1.613 . S
N958 C961 1.350 . S
N959 S957 1.610 . S
N959 C960 1.351 . S
C960 C954 1.428 . S
C960 N959 1.351 . S
C960 C961 1.434 . S
C961 C952 1.429 . S
C961 N958 1.350 . S
C961 C960 1.434 . S
C962 C963 1.369 . S
C962 C964 1.419 . S
C962 H966 0.930 . S
C963 C962 1.369 . S
C963 C972 1.429 . S
C964 C962 1.419 . S
C964 C965 1.363 . S
C964 H967 0.929 . S
C965 C964 1.363 . S
C965 C971 1.428 . S
H966 C962 0.930 . S
H967 C964 0.929 . S
S968 N969 1.613 . S
S968 N970 1.610 . S
N969 S968 1.613 . S
N969 C972 1.350 . S
N970 S968 1.610 . S
N970 C971 1.351 . S
C971 C965 1.428 . S
C971 N970 1.351 . S
C971 C972 1.434 . S
C972 C963 1.429 . S
C972 N969 1.350 . S
C972 C971 1.434 . S
C973 C974 1.369 . S
C973 C975 1.419 . S
C973 H977 0.930 . S
C974 C973 1.369 . S
C974 C983 1.429 . S
C975 C973 1.419 . S
C975 C976 1.363 . S
C975 H978 0.929 . S
C976 C975 1.363 . S
C976 C982 1.428 . S
H977 C973 0.930 . S
H978 C975 0.929 . S
S979 N980 1.613 . S
S979 N981 1.610 . S
N980 S979 1.613 . S
N980 C983 1.350 . S
N981 S979 1.610 . S
N981 C982 1.351 . S
C982 C976 1.428 . S
C982 N981 1.351 . S
C982 C983 1.434 . S
C983 C974 1.429 . S
C983 N980 1.350 . S
C983 C982 1.434 . S
C984 C985 1.369 . S
C984 C986 1.419 . S
C984 H988 0.930 . S
C985 C984 1.369 . S
C985 C994 1.429 . S
C986 C984 1.419 . S
C986 C987 1.363 . S
C986 H989 0.929 . S
C987 C986 1.363 . S
C987 C993 1.428 . S
H988 C984 0.930 . S
H989 C986 0.929 . S
S990 N991 1.613 . S
S990 N992 1.610 . S
N991 S990 1.613 . S
N991 C994 1.350 . S
N992 S990 1.610 . S
N992 C993 1.351 . S
C993 C987 1.428 . S
C993 N992 1.351 . S
C993 C994 1.434 . S
C994 C985 1.429 . S
C994 N991 1.350 . S
C994 C993 1.434 . S
C995 C996 1.369 . S
C995 C997 1.419 . S
C995 H999 0.930 . S
C996 C995 1.369 . S
C996 C1005 1.429 . S
C997 C995 1.419 . S
C997 C998 1.363 . S
C997 H1000 0.929 . S
C998 C997 1.363 . S
C998 C1004 1.428 . S
H999 C995 0.930 . S
H1000 C997 0.929 . S
S1001 N1002 1.613 . S
S1001 N1003 1.610 . S
N1002 S1001 1.613 . S
N1002 C1005 1.350 . S
N1003 S1001 1.610 . S
N1003 C1004 1.351 . S
C1004 C998 1.428 . S
C1004 N1003 1.351 . S
C1004 C1005 1.434 . S
C1005 C996 1.429 . S
C1005 N1002 1.350 . S
C1005 C1004 1.434 . S
C1006 C1007 1.369 . S
C1006 C1008 1.419 . S
C1006 H1010 0.930 . S
C1007 C1006 1.369 . S
C1007 C1016 1.429 . S
C1008 C1006 1.419 . S
C1008 C1009 1.363 . S
C1008 H1011 0.929 . S
C1009 C1008 1.363 . S
C1009 C1015 1.428 . S
H1010 C1006 0.930 . S
H1011 C1008 0.929 . S
S1012 N1013 1.613 . S
S1012 N1014 1.610 . S
N1013 S1012 1.613 . S
N1013 C1016 1.350 . S
N1014 S1012 1.610 . S
N1014 C1015 1.351 . S
C1015 C1009 1.428 . S
C1015 N1014 1.351 . S
C1015 C1016 1.434 . S
C1016 C1007 1.429 . S
C1016 N1013 1.350 . S
C1016 C1015 1.434 . S
C1017 C1018 1.369 . S
C1017 C1019 1.419 . S
C1017 H1021 0.930 . S
C1018 C1017 1.369 . S
C1018 C1027 1.429 . S
C1019 C1017 1.419 . S
C1019 C1020 1.363 . S
C1019 H1022 0.929 . S
C1020 C1019 1.363 . S
C1020 C1026 1.428 . S
H1021 C1017 0.930 . S
H1022 C1019 0.929 . S
S1023 N1024 1.613 . S
S1023 N1025 1.610 . S
N1024 S1023 1.613 . S
N1024 C1027 1.350 . S
N1025 S1023 1.610 . S
N1025 C1026 1.351 . S
C1026 C1020 1.428 . S
C1026 N1025 1.351 . S
C1026 C1027 1.434 . S
C1027 C1018 1.429 . S
C1027 N1024 1.350 . S
C1027 C1026 1.434 . S
C1028 C1029 1.369 . S
C1028 C1030 1.419 . S
C1028 H1032 0.930 . S
C1029 C1028 1.369 . S
C1029 C1038 1.429 . S
C1030 C1028 1.419 . S
C1030 C1031 1.363 . S
C1030 H1033 0.929 . S
C1031 C1030 1.363 . S
C1031 C1037 1.428 . S
H1032 C1028 0.930 . S
H1033 C1030 0.929 . S
S1034 N1035 1.613 . S
S1034 N1036 1.610 . S
N1035 S1034 1.613 . S
N1035 C1038 1.350 . S
N1036 S1034 1.610 . S
N1036 C1037 1.351 . S
C1037 C1031 1.428 . S
C1037 N1036 1.351 . S
C1037 C1038 1.434 . S
C1038 C1029 1.429 . S
C1038 N1035 1.350 . S
C1038 C1037 1.434 . S
C1039 C1040 1.369 . S
C1039 C1041 1.419 . S
C1039 H1043 0.930 . S
C1040 C1039 1.369 . S
C1040 C1049 1.429 . S
C1041 C1039 1.419 . S
C1041 C1042 1.363 . S
C1041 H1044 0.929 . S
C1042 C1041 1.363 . S
C1042 C1048 1.428 . S
H1043 C1039 0.930 . S
H1044 C1041 0.929 . S
S1045 N1046 1.613 . S
S1045 N1047 1.610 . S
N1046 S1045 1.613 . S
N1046 C1049 1.350 . S
N1047 S1045 1.610 . S
N1047 C1048 1.351 . S
C1048 C1042 1.428 . S
C1048 N1047 1.351 . S
C1048 C1049 1.434 . S
C1049 C1040 1.429 . S
C1049 N1046 1.350 . S
C1049 C1048 1.434 . S
C1050 C1051 1.369 . S
C1050 C1052 1.419 . S
C1050 H1054 0.930 . S
C1051 C1050 1.369 . S
C1051 C1060 1.429 . S
C1052 C1050 1.419 . S
C1052 C1053 1.363 . S
C1052 H1055 0.929 . S
C1053 C1052 1.363 . S
C1053 C1059 1.428 . S
H1054 C1050 0.930 . S
H1055 C1052 0.929 . S
S1056 N1057 1.613 . S
S1056 N1058 1.610 . S
N1057 S1056 1.613 . S
N1057 C1060 1.350 . S
N1058 S1056 1.610 . S
N1058 C1059 1.351 . S
C1059 C1053 1.428 . S
C1059 N1058 1.351 . S
C1059 C1060 1.434 . S
C1060 C1051 1.429 . S
C1060 N1057 1.350 . S
C1060 C1059 1.434 . S
C1061 C1062 1.369 . S
C1061 C1063 1.419 . S
C1061 H1065 0.930 . S
C1062 C1061 1.369 . S
C1062 C1071 1.429 . S
C1063 C1061 1.419 . S
C1063 C1064 1.363 . S
C1063 H1066 0.929 . S
C1064 C1063 1.363 . S
C1064 C1070 1.428 . S
H1065 C1061 0.930 . S
H1066 C1063 0.929 . S
S1067 N1068 1.613 . S
S1067 N1069 1.610 . S
N1068 S1067 1.613 . S
N1068 C1071 1.350 . S
N1069 S1067 1.610 . S
N1069 C1070 1.351 . S
C1070 C1064 1.428 . S
C1070 N1069 1.351 . S
C1070 C1071 1.434 . S
C1071 C1062 1.429 . S
C1071 N1068 1.350 . S
C1071 C1070 1.434 . S
C1072 C1073 1.369 . S
C1072 C1074 1.419 . S
C1072 H1076 0.930 . S
C1073 C1072 1.369 . S
C1073 C1082 1.429 . S
C1074 C1072 1.419 . S
C1074 C1075 1.363 . S
C1074 H1077 0.929 . S
C1075 C1074 1.363 . S
C1075 C1081 1.428 . S
H1076 C1072 0.930 . S
H1077 C1074 0.929 . S
S1078 N1079 1.613 . S
S1078 N1080 1.610 . S
N1079 S1078 1.613 . S
N1079 C1082 1.350 . S
N1080 S1078 1.610 . S
N1080 C1081 1.351 . S
C1081 C1075 1.428 . S
C1081 N1080 1.351 . S
C1081 C1082 1.434 . S
C1082 C1073 1.429 . S
C1082 N1079 1.350 . S
C1082 C1081 1.434 . S
C1083 C1084 1.369 . S
C1083 C1085 1.419 . S
C1083 H1087 0.930 . S
C1084 C1083 1.369 . S
C1084 C1093 1.429 . S
C1085 C1083 1.419 . S
C1085 C1086 1.363 . S
C1085 H1088 0.929 . S
C1086 C1085 1.363 . S
C1086 C1092 1.428 . S
H1087 C1083 0.930 . S
H1088 C1085 0.929 . S
S1089 N1090 1.613 . S
S1089 N1091 1.610 . S
N1090 S1089 1.613 . S
N1090 C1093 1.350 . S
N1091 S1089 1.610 . S
N1091 C1092 1.351 . S
C1092 C1086 1.428 . S
C1092 N1091 1.351 . S
C1092 C1093 1.434 . S
C1093 C1084 1.429 . S
C1093 N1090 1.350 . S
C1093 C1092 1.434 . S
C1094 C1095 1.369 . S
C1094 C1096 1.419 . S
C1094 H1098 0.930 . S
C1095 C1094 1.369 . S
C1095 C1104 1.429 . S
C1096 C1094 1.419 . S
C1096 C1097 1.363 . S
C1096 H1099 0.929 . S
C1097 C1096 1.363 . S
C1097 C1103 1.428 . S
H1098 C1094 0.930 . S
H1099 C1096 0.929 . S
S1100 N1101 1.613 . S
S1100 N1102 1.610 . S
N1101 S1100 1.613 . S
N1101 C1104 1.350 . S
N1102 S1100 1.610 . S
N1102 C1103 1.351 . S
C1103 C1097 1.428 . S
C1103 N1102 1.351 . S
C1103 C1104 1.434 . S
C1104 C1095 1.429 . S
C1104 N1101 1.350 . S
C1104 C1103 1.434 . S
C1105 C1106 1.369 . S
C1105 C1107 1.419 . S
C1105 H1109 0.930 . S
C1106 C1105 1.369 . S
C1106 C1115 1.429 . S
C1107 C1105 1.419 . S
C1107 C1108 1.363 . S
C1107 H1110 0.929 . S
C1108 C1107 1.363 . S
C1108 C1114 1.428 . S
H1109 C1105 0.930 . S
H1110 C1107 0.929 . S
S1111 N1112 1.613 . S
S1111 N1113 1.610 . S
N1112 S1111 1.613 . S
N1112 C1115 1.350 . S
N1113 S1111 1.610 . S
N1113 C1114 1.351 . S
C1114 C1108 1.428 . S
C1114 N1113 1.351 . S
C1114 C1115 1.434 . S
C1115 C1106 1.429 . S
C1115 N1112 1.350 . S
C1115 C1114 1.434 . S
C1116 C1117 1.369 . S
C1116 C1118 1.419 1_554 S
C1116 H1120 0.930 . S
C1117 C1116 1.369 . S
C1117 C1126 1.429 1_455 S
C1118 C1116 1.419 1_556 S
C1118 C1119 1.363 . S
C1118 H1121 0.929 . S
C1119 C1118 1.363 . S
C1119 C1125 1.417 1_456 S
H1120 C1116 0.930 . S
H1121 C1118 0.929 . S
S1122 N1123 1.613 . S
S1122 N1124 1.610 1_554 S
N1123 S1122 1.613 . S
N1123 C1126 1.350 . S
N1124 S1122 1.610 1_556 S
N1124 C1125 1.350 1_556 S
C1125 C1119 1.417 1_654 S
C1125 N1124 1.350 1_554 S
C1125 C1126 1.449 . S
C1126 C1117 1.429 1_655 S
C1126 N1123 1.350 . S
C1126 C1125 1.449 . S
C1127 C1128 1.369 . S
C1127 C1129 1.419 1_554 S
C1127 H1131 0.930 . S
C1128 C1127 1.369 . S
C1128 C1137 1.429 . S
C1129 C1127 1.419 1_556 S
C1129 C1130 1.363 . S
C1129 H1132 0.929 . S
C1130 C1129 1.363 . S
C1130 C1136 1.428 . S
H1131 C1127 0.930 . S
H1132 C1129 0.929 . S
S1133 N1134 1.613 . S
S1133 N1135 1.610 1_554 S
N1134 S1133 1.613 . S
N1134 C1137 1.350 . S
N1135 S1133 1.610 1_556 S
N1135 C1136 1.351 . S
C1136 C1130 1.428 . S
C1136 N1135 1.351 . S
C1136 C1137 1.434 1_556 S
C1137 C1128 1.429 . S
C1137 N1134 1.350 . S
C1137 C1136 1.434 1_554 S
C1138 C1139 1.369 1_556 S
C1138 C1140 1.419 . S
C1138 H1142 0.930 . S
C1139 C1138 1.369 1_554 S
C1139 C1148 1.429 1_565 S
C1140 C1138 1.419 . S
C1140 C1141 1.363 1_565 S
C1140 H1143 0.929 . S
C1141 C1140 1.363 1_545 S
C1141 C1147 1.428 . S
H1142 C1138 0.930 . S
H1143 C1140 0.929 . S
S1144 N1145 1.613 . S
S1144 N1146 1.610 . S
N1145 S1144 1.613 . S
N1145 C1148 1.350 . S
N1146 S1144 1.610 . S
N1146 C1147 1.351 1_554 S
C1147 C1141 1.428 . S
C1147 N1146 1.351 1_556 S
C1147 C1148 1.434 1_556 S
C1148 C1139 1.429 1_545 S
C1148 N1145 1.350 . S
C1148 C1147 1.434 1_554 S
C1149 C1150 1.369 1_654 S
C1149 C1151 1.419 . S
C1149 H1153 0.930 . S
C1150 C1149 1.369 1_456 S
C1150 C1159 1.429 . S
C1151 C1149 1.419 . S
C1151 C1152 1.363 1_655 S
C1151 H1154 0.929 . S
C1152 C1151 1.363 1_455 S
C1152 C1158 1.428 . S
H1153 C1149 0.930 . S
H1154 C1151 0.929 . S
S1155 N1156 1.613 . S
S1155 N1157 1.610 1_556 S
N1156 S1155 1.613 . S
N1156 C1159 1.350 . S
N1157 S1155 1.610 1_554 S
N1157 C1158 1.351 . S
C1158 C1152 1.428 . S
C1158 N1157 1.351 . S
C1158 C1159 1.434 1_554 S
C1159 C1150 1.429 . S
C1159 N1156 1.350 . S
C1159 C1158 1.434 1_556 S
C1160 C1161 1.369 . S
C1160 C1162 1.419 . S
C1160 H1164 0.930 . S
C1161 C1160 1.369 . S
C1161 C1170 1.429 . S
C1162 C1160 1.419 . S
C1162 C1163 1.363 1_554 S
C1162 H1165 0.929 . S
C1163 C1162 1.363 1_556 S
C1163 C1169 1.428 1_556 S
H1164 C1160 0.930 . S
H1165 C1162 0.929 . S
S1166 N1167 1.613 . S
S1166 N1168 1.610 1_554 S
N1167 S1166 1.613 . S
N1167 C1170 1.350 . S
N1168 S1166 1.610 1_556 S
N1168 C1169 1.351 1_556 S
C1169 C1163 1.428 1_554 S
C1169 N1168 1.351 1_554 S
C1169 C1170 1.434 . S
C1170 C1161 1.429 . S
C1170 N1167 1.350 . S
C1170 C1169 1.434 . S
C1171 C1172 1.369 . S
C1171 C1173 1.419 1_564 S
C1171 H1175 0.930 . S
C1172 C1171 1.369 . S
C1172 C1181 1.429 1_565 S
C1173 C1171 1.419 1_546 S
C1173 C1174 1.363 . S
C1173 H1176 0.929 . S
C1174 C1173 1.363 . S
C1174 C1180 1.428 1_556 S
H1175 C1171 0.930 . S
H1176 C1173 0.929 . S
S1177 N1178 1.613 . S
S1177 N1179 1.610 . S
N1178 S1177 1.613 . S
N1178 C1181 1.350 . S
N1179 S1177 1.610 . S
N1179 C1180 1.351 . S
C1180 C1174 1.428 1_554 S
C1180 N1179 1.351 . S
C1180 C1181 1.434 . S
C1181 C1172 1.429 1_545 S
C1181 N1178 1.350 . S
C1181 C1180 1.434 . S
C1182 C1183 1.369 . S
C1182 C1184 1.419 . S
C1182 H1186 0.930 . S
C1183 C1182 1.369 . S
C1183 C1192 1.429 . S
C1184 C1182 1.419 . S
C1184 C1185 1.363 . S
C1184 H1187 0.929 . S
C1185 C1184 1.363 . S
C1185 C1191 1.428 . S
H1186 C1182 0.930 . S
H1187 C1184 0.929 . S
S1188 N1189 1.613 . S
S1188 N1190 1.610 . S
N1189 S1188 1.613 . S
N1189 C1192 1.350 . S
N1190 S1188 1.610 . S
N1190 C1191 1.351 . S
C1191 C1185 1.428 . S
C1191 N1190 1.351 . S
C1191 C1192 1.434 . S
C1192 C1183 1.429 . S
C1192 N1189 1.350 . S
C1192 C1191 1.434 . S
C1193 C1194 1.369 . S
C1193 C1195 1.419 . S
C1193 H1197 0.930 . S
C1194 C1193 1.369 . S
C1194 C1203 1.429 . S
C1195 C1193 1.419 . S
C1195 C1196 1.363 . S
C1195 H1198 0.929 . S
C1196 C1195 1.363 . S
C1196 C1202 1.428 . S
H1197 C1193 0.930 . S
H1198 C1195 0.929 . S
S1199 N1200 1.613 . S
S1199 N1201 1.610 . S
N1200 S1199 1.613 . S
N1200 C1203 1.350 . S
N1201 S1199 1.610 . S
N1201 C1202 1.351 . S
C1202 C1196 1.428 . S
C1202 N1201 1.351 . S
C1202 C1203 1.434 . S
C1203 C1194 1.429 . S
C1203 N1200 1.350 . S
C1203 C1202 1.434 . S
C1204 C1205 1.369 . S
C1204 C1206 1.419 . S
C1204 H1208 0.930 . S
C1205 C1204 1.369 . S
C1205 C1214 1.429 . S
C1206 C1204 1.419 . S
C1206 C1207 1.363 . S
C1206 H1209 0.929 . S
C1207 C1206 1.363 . S
C1207 C1213 1.428 . S
H1208 C1204 0.930 . S
H1209 C1206 0.929 . S
S1210 N1211 1.613 . S
S1210 N1212 1.610 . S
N1211 S1210 1.613 . S
N1211 C1214 1.350 . S
N1212 S1210 1.610 . S
N1212 C1213 1.351 . S
C1213 C1207 1.428 . S
C1213 N1212 1.351 . S
C1213 C1214 1.434 . S
C1214 C1205 1.429 . S
C1214 N1211 1.350 . S
C1214 C1213 1.434 . S
C1215 C1216 1.369 . S
C1215 C1217 1.419 . S
C1215 H1219 0.930 . S
C1216 C1215 1.369 . S
C1216 C1225 1.429 . S
C1217 C1215 1.419 . S
C1217 C1218 1.363 . S
C1217 H1220 0.929 . S
C1218 C1217 1.363 . S
C1218 C1224 1.428 . S
H1219 C1215 0.930 . S
H1220 C1217 0.929 . S
S1221 N1222 1.613 . S
S1221 N1223 1.610 . S
N1222 S1221 1.613 . S
N1222 C1225 1.350 . S
N1223 S1221 1.610 . S
N1223 C1224 1.351 . S
C1224 C1218 1.428 . S
C1224 N1223 1.351 . S
C1224 C1225 1.434 . S
C1225 C1216 1.429 . S
C1225 N1222 1.350 . S
C1225 C1224 1.434 . S
C1226 C1227 1.369 . S
C1226 C1228 1.419 . S
C1226 H1230 0.930 . S
C1227 C1226 1.369 . S
C1227 C1236 1.429 . S
C1228 C1226 1.419 . S
C1228 C1229 1.363 . S
C1228 H1231 0.929 . S
C1229 C1228 1.363 . S
C1229 C1235 1.428 . S
H1230 C1226 0.930 . S
H1231 C1228 0.929 . S
S1232 N1233 1.613 . S
S1232 N1234 1.610 . S
N1233 S1232 1.613 . S
N1233 C1236 1.350 . S
N1234 S1232 1.610 . S
N1234 C1235 1.351 . S
C1235 C1229 1.428 . S
C1235 N1234 1.351 . S
C1235 C1236 1.434 . S
C1236 C1227 1.429 . S
C1236 N1233 1.350 . S
C1236 C1235 1.434 . S
C1237 C1238 1.369 . S
C1237 C1239 1.419 . S
C1237 H1241 0.930 . S
C1238 C1237 1.369 . S
C1238 C1247 1.429 . S
C1239 C1237 1.419 . S
C1239 C1240 1.363 . S
C1239 H1242 0.929 . S
C1240 C1239 1.363 . S
C1240 C1246 1.428 . S
H1241 C1237 0.930 . S
H1242 C1239 0.929 . S
S1243 N1244 1.613 . S
S1243 N1245 1.610 . S
N1244 S1243 1.613 . S
N1244 C1247 1.350 . S
N1245 S1243 1.610 . S
N1245 C1246 1.351 . S
C1246 C1240 1.428 . S
C1246 N1245 1.351 . S
C1246 C1247 1.434 . S
C1247 C1238 1.429 . S
C1247 N1244 1.350 . S
C1247 C1246 1.434 . S
C1248 C1249 1.369 . S
C1248 C1250 1.419 . S
C1248 H1252 0.930 . S
C1249 C1248 1.369 . S
C1249 C1258 1.429 . S
C1250 C1248 1.419 . S
C1250 C1251 1.363 . S
C1250 H1253 0.929 . S
C1251 C1250 1.363 . S
C1251 C1257 1.428 . S
H1252 C1248 0.930 . S
H1253 C1250 0.929 . S
S1254 N1255 1.613 . S
S1254 N1256 1.610 . S
N1255 S1254 1.613 . S
N1255 C1258 1.350 . S
N1256 S1254 1.610 . S
N1256 C1257 1.351 . S
C1257 C1251 1.428 . S
C1257 N1256 1.351 . S
C1257 C1258 1.434 . S
C1258 C1249 1.429 . S
C1258 N1255 1.350 . S
C1258 C1257 1.434 . S
C1259 C1260 1.369 . S
C1259 C1261 1.419 . S
C1259 H1263 0.930 . S
C1260 C1259 1.369 . S
C1260 C1269 1.429 . S
C1261 C1259 1.419 . S
C1261 C1262 1.363 . S
C1261 H1264 0.929 . S
C1262 C1261 1.363 . S
C1262 C1268 1.428 . S
H1263 C1259 0.930 . S
H1264 C1261 0.929 . S
S1265 N1266 1.613 . S
S1265 N1267 1.610 . S
N1266 S1265 1.613 . S
N1266 C1269 1.350 . S
N1267 S1265 1.610 . S
N1267 C1268 1.351 . S
C1268 C1262 1.428 . S
C1268 N1267 1.351 . S
C1268 C1269 1.434 . S
C1269 C1260 1.429 . S
C1269 N1266 1.350 . S
C1269 C1268 1.434 . S
C1270 C1271 1.369 . S
C1270 C1272 1.419 . S
C1270 H1274 0.930 . S
C1271 C1270 1.369 . S
C1271 C1280 1.429 . S
C1272 C1270 1.419 . S
C1272 C1273 1.363 . S
C1272 H1275 0.929 . S
C1273 C1272 1.363 . S
C1273 C1279 1.428 . S
H1274 C1270 0.930 . S
H1275 C1272 0.929 . S
S1276 N1277 1.613 . S
S1276 N1278 1.610 . S
N1277 S1276 1.613 . S
N1277 C1280 1.350 . S
N1278 S1276 1.610 . S
N1278 C1279 1.351 . S
C1279 C1273 1.428 . S
C1279 N1278 1.351 . S
C1279 C1280 1.434 . S
C1280 C1271 1.429 . S
C1280 N1277 1.350 . S
C1280 C1279 1.434 . S
C1281 C1282 1.369 . S
C1281 C1283 1.419 . S
C1281 H1285 0.930 . S
C1282 C1281 1.369 . S
C1282 C1291 1.429 . S
C1283 C1281 1.419 . S
C1283 C1284 1.363 . S
C1283 H1286 0.929 . S
C1284 C1283 1.363 . S
C1284 C1290 1.428 . S
H1285 C1281 0.930 . S
H1286 C1283 0.929 . S
S1287 N1288 1.613 . S
S1287 N1289 1.610 . S
N1288 S1287 1.613 . S
N1288 C1291 1.350 . S
N1289 S1287 1.610 . S
N1289 C1290 1.351 . S
C1290 C1284 1.428 . S
C1290 N1289 1.351 . S
C1290 C1291 1.434 . S
C1291 C1282 1.429 . S
C1291 N1288 1.350 . S
C1291 C1290 1.434 . S
C1292 C1293 1.369 . S
C1292 C1294 1.419 . S
C1292 H1296 0.930 . S
C1293 C1292 1.369 . S
C1293 C1302 1.429 . S
C1294 C1292 1.419 . S
C1294 C1295 1.363 . S
C1294 H1297 0.929 . S
C1295 C1294 1.363 . S
C1295 C1301 1.428 . S
H1296 C1292 0.930 . S
H1297 C1294 0.929 . S
S1298 N1299 1.613 . S
S1298 N1300 1.610 . S
N1299 S1298 1.613 . S
N1299 C1302 1.350 . S
N1300 S1298 1.610 . S
N1300 C1301 1.351 . S
C1301 C1295 1.428 . S
C1301 N1300 1.351 . S
C1301 C1302 1.434 . S
C1302 C1293 1.429 . S
C1302 N1299 1.350 . S
C1302 C1301 1.434 . S
C1303 C1304 1.369 . S
C1303 C1305 1.419 . S
C1303 H1307 0.930 . S
C1304 C1303 1.369 . S
C1304 C1313 1.429 . S
C1305 C1303 1.419 . S
C1305 C1306 1.363 . S
C1305 H1308 0.929 . S
C1306 C1305 1.363 . S
C1306 C1312 1.428 . S
H1307 C1303 0.930 . S
H1308 C1305 0.929 . S
S1309 N1310 1.613 . S
S1309 N1311 1.610 . S
N1310 S1309 1.613 . S
N1310 C1313 1.350 . S
N1311 S1309 1.610 . S
N1311 C1312 1.351 . S
C1312 C1306 1.428 . S
C1312 N1311 1.351 . S
C1312 C1313 1.434 . S
C1313 C1304 1.429 . S
C1313 N1310 1.350 . S
C1313 C1312 1.434 . S
C721 C532 2.468 . S
C723 C12 2.481 . S
C732 C42 2.063 . S
C734 C562 2.053 . S
C743 C92 2.285 . S
C745 C482 2.303 . S
C754 C82 1.924 . S
C756 C282 1.923 . S
C765 C322 2.192 . S
C767 C2 2.189 . S
C776 C52 2.342 . S
C778 C242 2.381 . S
C787 C151 2.270 . S
C789 C417 2.282 . S
C798 C177 1.810 . S
C800 C457 1.805 . S
C809 C377 2.034 . S
C811 C231 2.010 . S
C820 C657 2.067 . S
C822 C217 2.069 . S
C831 C137 2.299 . S
C833 C711 2.280 . S
C842 C631 2.484 . S
C844 C191 2.476 . S
C853 C332 2.174 . S
C855 C522 2.209 . S
C864 C252 2.371 . S
C866 C572 2.376 . S
C875 C292 2.609 . S
C877 C492 2.620 . S
C886 C391 2.721 . S
C888 C671 2.708 . S
C897 C697 2.320 . S
C899 C431 2.305 . S
C908 C617 2.572 . S
C910 C471 2.549 . S
C919 C17 1.479 . S
C921 C162 1.478 . S
C930 C212 1.872 . S
C932 C71 1.876 . S
C941 C132 1.690 . S
C943 C97 1.561 . S
C952 C172 1.906 . S
C954 C111 1.941 . S
C963 C202 1.705 . S
C965 C31 1.743 . S
C974 C122 1.565 . S
C976 C57 1.612 . S
C985 C412 1.954 . S
C987 C271 1.944 . S
C996 C452 2.016 . S
C998 C311 2.012 . S
C1007 C372 2.036 . S
C1009 C351 1.943 . S
C1018 C402 1.548 . S
C1020 C337 1.549 . S
C1029 C442 1.477 . S
C1031 C257 1.591 . S
C1040 C362 1.487 . S
C1042 C297 1.498 . S
C1051 C642 1.594 . S
C1053 C497 1.547 . S
C1062 C692 1.927 . S
C1064 C551 1.890 . S
C1073 C577 1.686 . S
C1075 C612 1.728 . S
C1084 C591 2.043 . S
C1086 C652 2.047 . S
C1095 C511 1.824 . S
C1097 C682 1.693 . S
C1106 C602 1.579 . S
C1108 C537 1.578 . S
C1117 C29 1.292 . S
C1119 C8 1.302 . S
C1128 C48 1.423 . S
C1130 C69 1.423 . S
C1139 C109 1.343 . S
C1141 C88 1.356 . S
C1150 C128 1.374 . S
C1152 C149 1.382 . S
C1161 C168 1.310 . S
C1163 C189 1.310 . S
C1172 C229 1.489 . S
C1174 C208 1.498 . S
C1183 C269 1.592 . S
C1185 C248 1.602 . S
C1194 C288 1.285 . S
C1196 C309 1.275 . S
C1205 C349 1.638 . S
C1207 C328 1.639 . S
C1216 C368 1.248 . S
C1218 C389 1.253 . S
C1227 C408 1.574 . S
C1229 C429 1.564 . S
C1238 C448 1.313 . S
C1240 C469 1.326 . S
C1249 C488 1.261 . S
C1251 C509 1.271 . S
C1260 C528 1.397 . S
C1262 C549 1.399 . S
C1271 C589 1.333 . S
C1273 C568 1.340 . S
C1282 C629 1.423 . S
C1284 C608 1.416 . S
C1293 C648 1.288 . S
C1295 C669 1.283 . S
C1304 C688 1.416 . S
C1306 C709 1.406 . S
