# Generated by pormake.
# Topology snk, (6)-cn, num edge types: 1
# Building blocks:
#     Node 0, Type 0, BuildingBlock: KUMBOL_clean_sbu_0, # of connection points: 6
#     Node 1, Type 0, BuildingBlock: KUMBOL_clean_sbu_0, # of connection points: 6
#     Node 2, Type 0, BuildingBlock: KUMBOL_clean_sbu_0, # of connection points: 6
#     Node 3, Type 0, BuildingBlock: KUMBOL_clean_sbu_0, # of connection points: 6
#     Node 4, Type 0, BuildingBlock: KUMBOL_clean_sbu_0, # of connection points: 6
#     Node 5, Type 0, BuildingBlock: KUMBOL_clean_sbu_0, # of connection points: 6
#     Node 6, Type 0, BuildingBlock: KUMBOL_clean_sbu_0, # of connection points: 6
#     Node 7, Type 0, BuildingBlock: KUMBOL_clean_sbu_0, # of connection points: 6
#     Edge 8, Type (0, 0), BuildingBlock: OJICUG_clean_linker_0, # of connection points: 2
#     Edge 9, Type (0, 0), BuildingBlock: OJICUG_clean_linker_0, # of connection points: 2
#     Edge 10, Type (0, 0), BuildingBlock: OJICUG_clean_linker_0, # of connection points: 2
#     Edge 11, Type (0, 0), BuildingBlock: OJICUG_clean_linker_0, # of connection points: 2
#     Edge 12, Type (0, 0), BuildingBlock: OJICUG_clean_linker_0, # of connection points: 2
#     Edge 13, Type (0, 0), BuildingBlock: OJICUG_clean_linker_0, # of connection points: 2
#     Edge 14, Type (0, 0), BuildingBlock: OJICUG_clean_linker_0, # of connection points: 2
#     Edge 15, Type (0, 0), BuildingBlock: OJICUG_clean_linker_0, # of connection points: 2
#     Edge 16, Type (0, 0), BuildingBlock: OJICUG_clean_linker_0, # of connection points: 2
#     Edge 17, Type (0, 0), BuildingBlock: OJICUG_clean_linker_0, # of connection points: 2
#     Edge 18, Type (0, 0), BuildingBlock: OJICUG_clean_linker_0, # of connection points: 2
#     Edge 19, Type (0, 0), BuildingBlock: OJICUG_clean_linker_0, # of connection points: 2
#     Edge 20, Type (0, 0), BuildingBlock: OJICUG_clean_linker_0, # of connection points: 2
#     Edge 21, Type (0, 0), BuildingBlock: OJICUG_clean_linker_0, # of connection points: 2
#     Edge 22, Type (0, 0), BuildingBlock: OJICUG_clean_linker_0, # of connection points: 2
#     Edge 23, Type (0, 0), BuildingBlock: OJICUG_clean_linker_0, # of connection points: 2
#     Edge 24, Type (0, 0), BuildingBlock: OJICUG_clean_linker_0, # of connection points: 2
#     Edge 25, Type (0, 0), BuildingBlock: OJICUG_clean_linker_0, # of connection points: 2
#     Edge 26, Type (0, 0), BuildingBlock: OJICUG_clean_linker_0, # of connection points: 2
#     Edge 27, Type (0, 0), BuildingBlock: OJICUG_clean_linker_0, # of connection points: 2
#     Edge 28, Type (0, 0), BuildingBlock: OJICUG_clean_linker_0, # of connection points: 2
#     Edge 29, Type (0, 0), BuildingBlock: OJICUG_clean_linker_0, # of connection points: 2
#     Edge 30, Type (0, 0), BuildingBlock: OJICUG_clean_linker_0, # of connection points: 2
#     Edge 31, Type (0, 0), BuildingBlock: OJICUG_clean_linker_0, # of connection points: 2
# Relax obj value: 0.002
# Max RMSD: 0.036
# Mean RMSD: 0.036
data_MOF--net-snk--node1-KUMBOL_clean_sbu_0--edge1-OJICUG_clean_linker_0
_symmetry_space_group_name_H-M    P1
_symmetry_Int_Tables_number       1
_symmetry_cell_setting            triclinic
loop_
_symmetry_equiv_pos_as_xyz
'x, y, z'
_cell_length_a     26.350371
_cell_length_b     26.484566
_cell_length_c     20.000353
_cell_angle_alpha  87.45998
_cell_angle_beta   87.034851
_cell_angle_gamma 89.721859
loop_
_atom_site_label
_atom_site_type_symbol
_atom_site_fract_x
_atom_site_fract_y
_atom_site_fract_z
_atom_type_partial_charge
Gd0 Gd 0.01253 0.0488 0.60091 0.0
Gd1 Gd 1.00274 0.96395 0.46642 0.0
C2 C 0.92005 0.81677 0.43893 0.0
C3 C 0.98829 0.76463 0.39305 0.0
C4 C 1.0069 0.84668 0.43613 0.0
C5 C 0.95582 0.85417 0.45204 0.0
C6 C 0.02376 0.8016 0.40702 0.0
C7 C 0.93653 0.7723 0.40867 0.0
C8 C 0.86851 0.82632 0.4532 0.0
C9 C 0.85345 0.87331 0.47611 0.0
N10 N 0.9406 0.90001 0.47344 0.0
C11 C 0.89002 0.91044 0.48356 0.0
H12 H 0.87743 0.94787 0.49578 0.0
C13 C 0.09051 0.87897 0.42978 0.0
N14 N 0.03967 0.88483 0.4449 0.0
C15 C 0.10929 0.8341 0.40372 0.0
C16 C 0.07563 0.79565 0.39089 0.0
H17 H 0.11688 0.90901 0.43696 0.0
H18 H 0.90953 0.74367 0.39692 0.0
H19 H 0.13696 0.06768 0.57035 0.0
H20 H 0.84003 0.79841 0.4444 0.0
H21 H 0.81353 0.88171 0.4853 0.0
H22 H 1.00053 0.73006 0.37004 0.0
H23 H 0.89696 0.10151 0.63178 0.0
H24 H 0.17166 0.21763 0.62281 0.0
H25 H 0.19963 0.13516 0.58053 0.0
H26 H 0.01022 0.28193 0.70064 0.0
H27 H 0.14956 0.82982 0.39196 0.0
H28 H 0.08998 0.76145 0.36884 0.0
H29 H 0.10129 0.27061 0.67183 0.0
H30 H 0.8631 0.17934 0.67971 0.0
N31 N 0.07302 0.1142 0.59364 0.0
C32 C 0.14369 0.18919 0.61401 0.0
C33 C 0.15958 0.14269 0.59026 0.0
C34 C 0.09203 0.19755 0.62916 0.0
C35 C 0.05695 0.1595 0.61604 0.0
C36 C 0.12373 0.10487 0.58277 0.0
N37 N 0.97381 0.12697 0.62403 0.0
C38 C 1.00584 0.1657 0.63308 0.0
C39 C 0.90338 0.17591 0.66714 0.0
C40 C 0.93636 0.21481 0.68043 0.0
C41 C 0.92288 0.13179 0.63959 0.0
C42 C 0.98824 0.21014 0.66321 0.0
H43 H 0.92137 0.24832 0.7037 0.0
O44 O 0.98508 0.03493 0.70406 0.0
O45 O 0.98075 0.97432 0.57377 0.0
O46 O 0.9364 0.01922 0.47549 0.0
O47 O 0.96821 0.09065 0.52152 0.0
O48 O 0.93385 0.01929 0.63101 0.0
O49 O 0.0663 0.03893 0.67897 0.0
O50 O 0.03188 0.97737 0.36395 0.0
O51 O 0.03472 0.03847 0.49337 0.0
O52 O 0.07913 0.99364 0.59176 0.0
O53 O 0.04704 0.92225 0.54588 0.0
O54 O 0.08186 0.99271 0.43752 0.0
O55 O 0.95036 0.97393 0.38665 0.0
C56 C 0.93718 0.97615 0.6041 0.0
C57 C 0.02302 0.2478 0.67698 0.0
C58 C 0.07481 0.24145 0.66024 0.0
C59 C 0.03061 0.03458 0.72647 0.0
C60 C 0.03692 0.06241 0.78702 0.0
C61 C 0.05404 0.11245 0.78505 0.0
C62 C 0.02457 0.03783 0.84862 0.0
C63 C 0.02993 0.06239 0.90837 0.0
C64 C 0.05687 0.13811 0.84412 0.0
C65 C 0.04519 0.11319 0.90586 0.0
C66 C 0.93581 0.06867 0.48339 0.0
C67 C 0.07852 0.0362 0.46359 0.0
C68 C 0.98682 0.978 0.34016 0.0
C69 C 0.98149 0.95016 0.27942 0.0
C70 C 0.96585 0.89964 0.28093 0.0
C71 C 0.99388 0.97515 0.21811 0.0
C72 C 0.98994 0.95058 0.15809 0.0
C73 C 0.96433 0.87403 0.22163 0.0
C74 C 0.97601 0.89939 0.16018 0.0
C75 C 0.07971 0.94417 0.58365 0.0
H76 H 0.06541 0.13166 0.73855 0.0
H77 H 0.0108 0.99931 0.84999 0.0
H78 H 0.06852 0.17716 0.84185 0.0
H79 H 0.04909 0.1331 0.95141 0.0
H80 H 0.95479 0.87997 0.32723 0.0
H81 H 1.00672 0.01395 0.21725 0.0
H82 H 0.95384 0.83462 0.22344 0.0
H83 H 0.97333 0.87946 0.11446 0.0
Gd84 Gd 0.20651 0.75426 0.849 0.0
Gd85 Gd 0.30939 0.757 0.7146 0.0
C86 C 0.4299 0.64121 0.77521 0.0
C87 C 0.49096 0.69467 0.82504 0.0
C88 C 0.41899 0.73186 0.76935 0.0
C89 C 0.4012 0.68447 0.75757 0.0
C90 C 0.46498 0.73762 0.80114 0.0
C91 C 0.47372 0.64638 0.81151 0.0
C92 C 0.41447 0.59439 0.75417 0.0
C93 C 0.37287 0.59193 0.71411 0.0
N94 N 0.35764 0.68095 0.72467 0.0
C95 C 0.3452 0.63582 0.6989 0.0
H96 H 0.31444 0.63276 0.66589 0.0
C97 C 0.41798 0.81815 0.73591 0.0
N98 N 0.39409 0.77224 0.74312 0.0
C99 C 0.46246 0.82643 0.76912 0.0
C100 C 0.4851 0.78614 0.80395 0.0
H101 H 0.40049 0.84929 0.70877 0.0
H102 H 0.49553 0.6135 0.82702 0.0
H103 H 0.20187 0.87823 0.89869 0.0
H104 H 0.43526 0.56032 0.76681 0.0
H105 H 0.362 0.55617 0.69497 0.0
H106 H 0.5261 0.69857 0.84995 0.0
H107 H 0.11504 0.66234 0.8538 0.0
H108 H 0.08143 0.95165 0.79814 0.0
H109 H 0.15466 0.95515 0.87011 0.0
H110 H 0.99005 0.81422 0.71385 0.0
H111 H 0.47939 0.86365 0.76743 0.0
H112 H 0.5198 0.79209 0.82889 0.0
H113 H 0.02096 0.89904 0.73744 0.0
H114 H 0.03611 0.64861 0.79496 0.0
N115 N 0.15856 0.83054 0.83936 0.0
C116 C 0.10209 0.91745 0.81049 0.0
C117 C 0.14368 0.91954 0.85063 0.0
C118 C 0.08648 0.87081 0.78906 0.0
C119 C 0.11501 0.82735 0.80638 0.0
C120 C 0.17115 0.87547 0.86554 0.0
N121 N 0.1218 0.7395 0.82007 0.0
C122 C 0.09704 0.7801 0.79418 0.0
C123 C 0.0532 0.68575 0.79357 0.0
C124 C 0.0307 0.7263 0.7591 0.0
C125 C 0.09772 0.69367 0.82685 0.0
C126 C 0.05102 0.7747 0.76233 0.0
H127 H 0.99595 0.72063 0.73412 0.0
O128 O 0.15935 0.73629 0.94006 0.0
O129 O 0.28526 0.72934 0.81911 0.0
O130 O 0.25651 0.69346 0.69727 0.0
O131 O 0.1909 0.69171 0.78054 0.0
O132 O 0.23644 0.67529 0.86547 0.0
O133 O 0.23822 0.75492 0.94725 0.0
O134 O 0.35638 0.77474 0.62332 0.0
O135 O 0.23071 0.78192 0.74455 0.0
O136 O 0.2596 0.81759 0.86652 0.0
O137 O 0.32503 0.81958 0.78302 0.0
O138 O 0.27941 0.83599 0.69818 0.0
O139 O 0.27745 0.75624 0.61648 0.0
C140 C 0.28268 0.68403 0.8429 0.0
C141 C 0.02521 0.81786 0.73878 0.0
C142 C 0.04264 0.866 0.7527 0.0
C143 C 0.19598 0.74307 0.98013 0.0
C144 C 0.18485 0.76965 0.04294 0.0
C145 C 0.14738 0.80733 0.04676 0.0
C146 C 0.21236 0.75678 0.10025 0.0
C147 C 0.20212 0.78077 0.16139 0.0
C148 C 0.13714 0.83139 0.10678 0.0
C149 C 0.16405 0.81828 0.16354 0.0
C150 C 0.21392 0.67506 0.72564 0.0
C151 C 0.2332 0.82724 0.72082 0.0
C152 C 0.31966 0.76797 0.58341 0.0
C153 C 0.33061 0.74129 0.52063 0.0
C154 C 0.36797 0.70351 0.51679 0.0
C155 C 0.30309 0.75421 0.46335 0.0
C156 C 0.31322 0.73017 0.40221 0.0
C157 C 0.3781 0.6794 0.45679 0.0
C158 C 0.35119 0.69257 0.40005 0.0
C159 C 0.30211 0.83609 0.83807 0.0
H160 H 0.12603 0.81811 1.00348 0.0
H161 H 0.24112 0.72745 0.09738 0.0
H162 H 0.10817 0.86046 0.10938 0.0
H163 H 0.15546 0.83813 0.20896 0.0
H164 H 0.38933 0.69269 0.56006 0.0
H165 H 0.27441 0.78362 0.46621 0.0
H166 H 0.407 0.65026 0.45417 0.0
H167 H 0.35971 0.67269 0.35463 0.0
Gd168 Gd 0.50782 0.05972 0.96675 0.0
Gd169 Gd 0.50802 0.95203 0.0953 0.0
C170 C 0.58994 0.81087 1.0233 0.0
C171 C 0.51872 0.75909 0.99503 0.0
C172 C 0.5042 0.83785 0.05061 0.0
C173 C 0.55538 0.84706 0.04808 0.0
C174 C 0.48496 0.79323 1.02597 0.0
C175 C 0.57129 0.76778 0.99421 0.0
C176 C 0.64179 0.8181 1.03138 0.0
C177 C 0.65749 0.86005 0.0649 0.0
N178 N 0.57127 0.88986 0.07499 0.0
C179 C 0.62154 0.89587 0.0864 0.0
H180 H 0.63454 0.92845 0.11098 0.0
C181 C 0.42391 0.85945 0.09874 0.0
N182 N 0.47355 0.87126 0.08216 0.0
C183 C 0.40257 0.81586 0.07477 0.0
C184 C 0.43291 0.78344 0.03632 0.0
H185 H 0.39997 0.8857 0.12582 0.0
H186 H 0.59722 0.73975 0.97455 0.0
H187 H 0.38125 0.0837 0.95187 0.0
H188 H 0.66967 0.79086 1.01386 0.0
H189 H 0.69737 0.86536 0.07299 0.0
H190 H 0.50491 0.7246 0.97528 0.0
H191 H 0.61577 0.12575 0.93445 0.0
H192 H 0.347 0.22136 0.04924 0.0
H193 H 0.31879 0.14696 0.99034 0.0
H194 H 0.51221 0.28755 0.08537 0.0
H195 H 0.36264 0.80777 0.08497 0.0
H196 H 0.41627 0.74982 1.01801 0.0
H197 H 0.41989 0.27237 0.08773 0.0
H198 H 0.65341 0.20428 0.97311 0.0
N199 N 0.44485 0.12211 0.98734 0.0
C200 C 0.37474 0.19407 1.03146 0.0
C201 C 0.35875 0.15217 0.99807 0.0
C202 C 0.42667 0.20119 0.03902 0.0
C203 C 0.461 0.1649 1.01399 0.0
C204 C 0.39449 0.11625 0.97631 0.0
N205 N 0.54254 0.14047 0.97902 0.0
C206 C 0.51219 0.17404 1.01073 0.0
C207 C 0.61361 0.19606 0.98439 0.0
C208 C 0.58363 0.2287 1.023 0.0
C209 C 0.59207 0.15217 0.96159 0.0
C210 C 0.53169 0.21881 0.03461 0.0
H211 H 0.60045 0.26251 0.04043 0.0
O212 O 0.54484 0.07531 0.86766 0.0
O213 O 0.53269 0.98109 0.99244 0.0
O214 O 0.57876 0.99929 0.09953 0.0
O215 O 0.55903 0.07791 0.04896 0.0
O216 O 0.58487 0.02709 0.93869 0.0
O217 O 0.46754 0.04793 0.87644 0.0
O218 O 0.47077 0.93573 0.19406 0.0
O219 O 0.48321 0.0306 0.0696 0.0
O220 O 0.43688 0.01277 0.96294 0.0
O221 O 0.45696 0.93407 1.01285 0.0
O222 O 0.43101 0.98473 0.12348 0.0
O223 O 0.54781 0.9639 0.18599 0.0
C224 C 0.57667 0.98208 0.96382 0.0
C225 C 0.49822 0.25302 0.06597 0.0
C226 C 0.44563 0.24429 0.06775 0.0
C227 C 0.5065 0.05924 0.83606 0.0
C228 C 0.4972 0.081 0.76855 0.0
C229 C 0.48104 0.13107 0.75887 0.0
C230 C 0.50377 0.05017 0.71287 0.0
C231 C 0.49439 0.06906 0.64738 0.0
C232 C 0.47185 0.15029 0.69436 0.0
C233 C 0.47846 0.11975 0.63912 0.0
C234 C 0.5866 0.04815 0.08762 0.0
C235 C 0.43927 0.02973 0.09835 0.0
C236 C 0.5088 0.9521 0.22603 0.0
C237 C 0.51798 0.93031 0.29356 0.0
C238 C 0.53387 0.88016 0.30331 0.0
C239 C 0.51148 0.96117 0.34923 0.0
C240 C 0.52069 0.94223 0.41476 0.0
C241 C 0.54292 0.8609 0.36785 0.0
C242 C 0.53639 0.89148 0.42306 0.0
C243 C 0.42911 0.96389 0.97468 0.0
H244 H 0.47543 0.1551 0.80108 0.0
H245 H 0.51534 0.01113 0.72096 0.0
H246 H 0.45953 0.18912 0.68705 0.0
H247 H 0.47164 0.13613 0.58981 0.0
H248 H 0.53937 0.85609 0.26113 0.0
H249 H 0.50006 1.00025 0.34112 0.0
H250 H 0.55504 0.82202 0.3752 0.0
H251 H 0.54309 0.87509 0.47241 0.0
Gd252 Gd 0.2152 0.25066 0.21543 0.0
Gd253 Gd 0.30097 0.26058 0.34893 0.0
C254 C 0.45072 0.33985 0.37399 0.0
C255 C 0.5028 0.27079 0.41624 0.0
C256 C 0.41939 0.25395 0.37534 0.0
C257 C 0.41242 0.30503 0.36101 0.0
C258 C 0.46495 0.23621 0.40238 0.0
C259 C 0.49563 0.3225 0.40229 0.0
C260 C 0.44164 0.39137 0.36165 0.0
C261 C 0.39446 0.40731 0.34011 0.0
N262 N 0.3663 0.32113 0.34138 0.0
C263 C 0.35653 0.37162 0.33241 0.0
H264 H 0.31894 0.3847 0.32124 0.0
C265 C 0.38551 0.17134 0.38133 0.0
N266 N 0.38017 0.22211 0.36765 0.0
C267 C 0.43091 0.15171 0.40484 0.0
C268 C 0.47041 0.18438 0.41687 0.0
H269 H 0.35481 0.1456 0.37461 0.0
H270 H 0.52488 0.34882 0.41412 0.0
H271 H 0.19705 0.12655 0.24305 0.0
H272 H 0.47023 0.41909 0.37067 0.0
H273 H 0.38657 0.44721 0.33218 0.0
H274 H 0.53768 0.25797 0.43801 0.0
H275 H 0.16142 0.36576 0.18997 0.0
H276 H 0.04577 0.09238 0.19338 0.0
H277 H 0.12935 0.06413 0.23201 0.0
H278 H 0.97857 0.25359 0.12605 0.0
H279 H 0.43487 0.11151 0.41532 0.0
H280 H 0.5049 0.16923 0.43732 0.0
H281 H 0.99125 0.16272 0.14989 0.0
H282 H 0.08143 0.39994 0.14917 0.0
N283 N 0.1498 0.19019 0.22288 0.0
C284 C 0.07438 0.12005 0.20245 0.0
C285 C 0.12152 0.10404 0.22407 0.0
C286 C 0.06539 0.17158 0.19011 0.0
C287 C 0.10372 0.20635 0.20316 0.0
C288 C 0.15948 0.13968 0.23185 0.0
N289 N 0.13605 0.28924 0.19668 0.0
C290 C 0.09682 0.25745 0.18886 0.0
C291 C 0.08537 0.35973 0.15956 0.0
C292 C 0.04587 0.3271 0.14739 0.0
C293 C 0.13073 0.34004 0.18311 0.0
C294 C 0.05129 0.27525 0.16179 0.0
H295 H 0.0114 0.34229 0.12694 0.0
O296 O 0.23029 0.27829 0.11292 0.0
O297 O 0.28988 0.28297 0.24214 0.0
O298 O 0.24493 0.32628 0.34124 0.0
O299 O 0.17322 0.2935 0.29666 0.0
O300 O 0.24423 0.32918 0.18593 0.0
O301 O 0.22256 0.19763 0.13563 0.0
O302 O 0.28635 0.23292 0.45153 0.0
O303 O 0.22644 0.22827 0.32212 0.0
O304 O 0.27114 0.18489 0.22316 0.0
O305 O 0.34288 0.21761 0.26772 0.0
O306 O 0.27183 0.18207 0.37859 0.0
O307 O 0.29316 0.31363 0.42864 0.0
C308 C 0.28769 0.32636 0.21238 0.0
C309 C 0.01341 0.24072 0.14784 0.0
C310 C 0.02052 0.189 0.16176 0.0
C311 C 0.22871 0.2334 0.08911 0.0
C312 C 0.20047 0.22957 1.02854 0.0
C313 C 0.14798 0.22086 1.03047 0.0
C314 C 0.22685 0.23832 0.96705 0.0
C315 C 0.20114 0.23962 0.90747 0.0
C316 C 0.12181 0.22347 0.97155 0.0
C317 C 0.1482 0.23332 0.91015 0.0
C318 C 0.19512 0.32614 0.33439 0.0
C319 C 0.22844 0.18491 0.35197 0.0
C320 C 0.28743 0.27787 0.47525 0.0
C321 C 0.31564 0.28217 0.53576 0.0
C322 C 0.36812 0.29088 0.53371 0.0
C323 C 0.28923 0.27399 0.59736 0.0
C324 C 0.31494 0.27329 0.65692 0.0
C325 C 0.39427 0.28895 0.59265 0.0
C326 C 0.36786 0.27977 0.65418 0.0
C327 C 0.32095 0.18499 0.23 0.0
H328 H 0.12714 0.21249 0.07686 0.0
H329 H 0.26742 0.24521 0.96582 0.0
H330 H 0.08107 0.21808 0.97355 0.0
H331 H 0.12754 0.23546 0.8648 0.0
H332 H 0.389 0.29872 0.48722 0.0
H333 H 0.24868 0.26702 0.59871 0.0
H334 H 0.43501 0.29432 0.59056 0.0
H335 H 0.38848 0.27822 0.69957 0.0
Gd336 Gd 0.70657 0.25403 0.34917 0.0
Gd337 Gd 0.80938 0.25737 0.2147 0.0
C338 C 0.9279 0.13894 0.27395 0.0
C339 C 0.98958 0.19061 0.32553 0.0
C340 C 0.91835 0.22977 0.27034 0.0
C341 C 0.89997 0.18289 0.25707 0.0
C342 C 0.96425 0.23429 0.30279 0.0
C343 C 0.97172 0.14286 0.31059 0.0
C344 C 0.91167 0.09269 0.25197 0.0
C345 C 0.87018 0.09147 0.21156 0.0
N346 N 0.85648 0.18055 0.22379 0.0
C347 C 0.84338 0.13601 0.19697 0.0
H348 H 0.81274 0.13394 0.16358 0.0
C349 C 0.91849 0.31658 0.2399 0.0
N350 N 0.89403 0.27091 0.24518 0.0
C351 C 0.96286 0.32362 0.2739 0.0
C352 C 0.98494 0.28241 0.30747 0.0
H353 H 0.90174 0.34842 0.21333 0.0
H354 H 0.993 0.10944 0.3254 0.0
H355 H 0.703 0.37752 0.40003 0.0
H356 H 0.93175 0.0581 0.26413 0.0
H357 H 0.85876 0.05617 0.19161 0.0
H358 H 0.02468 0.19359 0.35076 0.0
H359 H 0.61436 0.16283 0.35088 0.0
H360 H 0.58378 0.45302 0.29943 0.0
H361 H 0.65679 0.45517 0.37191 0.0
H362 H 0.49112 0.31721 0.21309 0.0
H363 H 0.98023 0.36058 0.27359 0.0
H364 H 0.01967 0.28742 0.33285 0.0
H365 H 0.52265 0.40147 0.23826 0.0
H366 H 0.53587 0.15041 0.29069 0.0
N367 N 0.65932 0.33076 0.33996 0.0
C368 C 0.60394 0.41848 0.31165 0.0
C369 C 0.64544 0.41983 0.35204 0.0
C370 C 0.5878 0.37216 0.28975 0.0
C371 C 0.61583 0.32829 0.3067 0.0
C372 C 0.67234 0.37536 0.36669 0.0
N373 N 0.62193 0.24029 0.31879 0.0
C374 C 0.59754 0.28135 0.29353 0.0
C375 C 0.55319 0.18741 0.29027 0.0
C376 C 0.53104 0.22853 0.25658 0.0
C377 C 0.59754 0.19459 0.32423 0.0
C378 C 0.55164 0.27669 0.26112 0.0
H379 H 0.49632 0.22341 0.23122 0.0
O380 O 0.65903 0.23522 0.4397 0.0
O381 O 0.78557 0.22973 0.31939 0.0
O382 O 0.75544 0.19493 0.19621 0.0
O383 O 0.69162 0.19058 0.28181 0.0
O384 O 0.73692 0.17526 0.36521 0.0
O385 O 0.73747 0.25504 0.44793 0.0
O386 O 0.85697 0.27634 0.12427 0.0
O387 O 0.73046 0.28169 0.24455 0.0
O388 O 0.76041 0.31657 0.36757 0.0
O389 O 0.82437 0.32077 0.28215 0.0
O390 O 0.77901 0.33617 0.19871 0.0
O391 O 0.77857 0.2564 0.11589 0.0
C392 C 0.78319 0.18438 0.34307 0.0
C393 C 0.52622 0.32029 0.23829 0.0
C394 C 0.544 0.36811 0.25313 0.0
C395 C 0.69523 0.24239 0.48028 0.0
C396 C 0.6833 0.2682 0.54361 0.0
C397 C 0.64397 0.30387 0.54852 0.0
C398 C 0.71188 0.2565 0.60039 0.0
C399 C 0.70115 0.2799 0.66196 0.0
C400 C 0.6329 0.32703 0.609 0.0
C401 C 0.66095 0.31515 0.66515 0.0
C402 C 0.71375 0.17527 0.22558 0.0
C403 C 0.73276 0.32706 0.22092 0.0
C404 C 0.82082 0.26915 0.08361 0.0
C405 C 0.83284 0.24341 1.02026 0.0
C406 C 0.87219 0.20775 1.01539 0.0
C407 C 0.80432 0.25513 0.96344 0.0
C408 C 0.81512 0.23177 0.90186 0.0
C409 C 0.88332 0.18463 0.95489 0.0
C410 C 0.85533 0.19653 0.8987 0.0
C411 C 0.80217 0.33614 0.3383 0.0
H412 H 0.62169 0.3137 0.50576 0.0
H413 H 0.74279 0.2295 0.59617 0.0
H414 H 0.60216 0.3542 0.61256 0.0
H415 H 0.65051 0.33318 0.71145 0.0
H416 H 0.89442 0.1979 0.05818 0.0
H417 H 0.7734 0.28212 0.96763 0.0
H418 H 0.91408 0.15746 0.95136 0.0
H419 H 0.86582 0.17853 0.85239 0.0
Gd420 Gd 0.71538 0.74988 0.71481 0.0
Gd421 Gd 0.80075 0.76147 0.84917 0.0
C422 C 0.9507 0.8406 0.87432 0.0
C423 C 1.00239 0.77171 0.91789 0.0
C424 C 0.91895 0.75481 0.87711 0.0
C425 C 0.91229 0.80576 0.86177 0.0
C426 C 0.96439 0.73713 0.90454 0.0
C427 C 0.99547 0.82333 0.90308 0.0
C428 C 0.94186 0.89206 0.86106 0.0
C429 C 0.89477 0.90795 0.83917 0.0
N430 N 0.86632 0.82181 0.84153 0.0
C431 C 0.85673 0.87228 0.83189 0.0
H432 H 0.81921 0.88538 0.82043 0.0
C433 C 0.88488 0.67228 0.8837 0.0
N434 N 0.87971 0.72301 0.86944 0.0
C435 C 0.93011 0.65269 0.90779 0.0
C436 C 0.96965 0.68536 0.91969 0.0
H437 H 0.85418 0.64656 0.87694 0.0
H438 H 0.0248 0.84967 0.91456 0.0
H439 H 0.69712 0.62594 0.74348 0.0
H440 H 0.97057 0.9198 0.86959 0.0
H441 H 0.88703 0.94782 0.83057 0.0
H442 H 0.0372 0.75894 0.93988 0.0
H443 H 0.66178 0.86467 0.68696 0.0
H444 H 0.54578 0.59126 0.69456 0.0
H445 H 0.6294 0.56339 0.73346 0.0
H446 H 0.479 0.75197 0.62386 0.0
H447 H 0.93393 0.61254 0.91874 0.0
H448 H 1.00405 0.67026 0.94045 0.0
H449 H 0.49148 0.66129 0.64941 0.0
H450 H 0.58205 0.89854 0.64491 0.0
N451 N 0.64989 0.68944 0.72246 0.0
C452 C 0.57444 0.61905 0.70304 0.0
C453 C 0.62159 0.60324 0.72485 0.0
C454 C 0.56553 0.6705 0.68973 0.0
C455 C 0.60389 0.7054 0.70226 0.0
C456 C 0.65957 0.63898 0.73205 0.0
N457 N 0.63635 0.78819 0.6945 0.0
C458 C 0.59716 0.75633 0.68683 0.0
C459 C 0.58591 0.8584 0.65594 0.0
C460 C 0.54644 0.82566 0.64399 0.0
C461 C 0.63113 0.83889 0.68018 0.0
C462 C 0.55174 0.77392 0.65928 0.0
H463 H 0.51206 0.8407 0.6231 0.0
O464 O 0.73054 0.77619 0.61168 0.0
O465 O 0.78954 0.78284 0.74211 0.0
O466 O 0.74502 0.82714 0.83922 0.0
O467 O 0.67336 0.79374 0.7952 0.0
O468 O 0.74468 0.82798 0.68329 0.0
O469 O 0.72484 0.6957 0.63672 0.0
O470 O 0.78505 0.73515 0.95215 0.0
O471 O 0.72664 0.72857 0.82182 0.0
O472 O 0.77116 0.68425 0.7248 0.0
O473 O 0.84282 0.71763 0.76882 0.0
O474 O 0.77135 0.68337 0.88067 0.0
O475 O 0.79199 0.8156 0.92746 0.0
C476 C 0.78765 0.82573 0.711 0.0
C477 C 0.51379 0.73928 0.64594 0.0
C478 C 0.52076 0.68767 0.66089 0.0
C479 C 0.73033 0.7308 0.5892 0.0
C480 C 0.70246 0.72498 0.52868 0.0
C481 C 0.65055 0.71344 0.53095 0.0
C482 C 0.72837 0.73438 0.46695 0.0
C483 C 0.70267 0.7334 0.40745 0.0
C484 C 0.62439 0.71353 0.4721 0.0
C485 C 0.65026 0.72364 0.41042 0.0
C486 C 0.69522 0.82678 0.83247 0.0
C487 C 0.72838 0.68566 0.85292 0.0
C488 C 0.78598 0.78044 0.97483 0.0
C489 C 0.81396 0.78555 0.0354 0.0
C490 C 0.86591 0.79688 0.03329 0.0
C491 C 0.78808 0.77549 0.097 0.0
C492 C 0.81382 0.77559 0.15653 0.0
C493 C 0.89215 0.79581 0.09212 0.0
C494 C 0.86631 0.78497 0.15365 0.0
C495 C 0.82096 0.68461 0.73154 0.0
H496 H 0.63013 0.70473 0.5776 0.0
H497 H 0.76844 0.7436 0.46546 0.0
H498 H 0.58402 0.70611 0.47445 0.0
H499 H 0.62963 0.72345 0.36509 0.0
H500 H 0.8863 0.80614 0.98677 0.0
H501 H 0.74796 0.76647 0.09832 0.0
H502 H 0.93257 0.80306 0.0899 0.0
H503 H 0.88702 0.78437 0.19894 0.0
Gd504 Gd 0.51308 0.54743 0.09727 0.0
Gd505 Gd 0.50355 0.46245 0.96287 0.0
C506 C 0.42429 0.31355 0.93508 0.0
C507 C 0.4934 0.26331 0.8875 0.0
C508 C 0.51045 0.34547 0.93132 0.0
C509 C 0.4593 0.35165 0.94821 0.0
C510 C 0.52813 0.30101 0.90128 0.0
C511 C 0.44159 0.26963 0.90412 0.0
C512 C 0.3726 0.32189 0.95005 0.0
C513 C 0.35662 0.3684 0.97366 0.0
N514 N 0.44315 0.397 0.97037 0.0
C515 C 0.39241 0.40627 0.98112 0.0
H516 H 0.37913 0.44348 0.9934 0.0
C517 C 0.59335 0.37955 0.92455 0.0
N518 N 0.54242 0.38429 0.94018 0.0
C519 C 0.61292 0.33541 0.89717 0.0
C520 C 0.58002 0.29642 0.88404 0.0
H521 H 0.61921 0.40993 0.93218 0.0
H522 H 0.41516 0.24044 0.8925 0.0
H523 H 0.63839 0.56369 0.06816 0.0
H524 H 0.34469 0.29341 0.94121 0.0
H525 H 0.31655 0.37589 0.98326 0.0
H526 H 0.50626 0.22917 0.86388 0.0
H527 H 0.39876 0.60221 0.12629 0.0
H528 H 0.67544 0.71318 0.11976 0.0
H529 H 0.70216 0.62994 0.07887 0.0
H530 H 0.51475 0.78125 0.19375 0.0
H531 H 0.65321 0.33204 0.88455 0.0
H532 H 0.59505 0.2629 0.86083 0.0
H533 H 0.60579 0.76779 0.16708 0.0
H534 H 0.36592 0.6813 0.17137 0.0
N535 N 0.57511 0.61147 0.09025 0.0
C536 C 0.64703 0.68524 0.1108 0.0
C537 C 0.6622 0.63829 0.0879 0.0
C538 C 0.59545 0.69472 0.1249 0.0
C539 C 0.55977 0.65729 0.1116 0.0
C540 C 0.62572 0.60111 0.0803 0.0
N541 N 0.47595 0.62651 0.11849 0.0
C542 C 0.50864 0.66472 0.12734 0.0
C543 C 0.40621 0.6771 0.15964 0.0
C544 C 0.43979 0.71558 0.17261 0.0
C545 C 0.42508 0.63228 0.13354 0.0
C546 C 0.49168 0.70973 0.15651 0.0
H547 H 0.42536 0.74972 0.19474 0.0
O548 O 0.48385 0.53383 0.19966 0.0
O549 O 0.48122 0.47273 0.07044 0.0
O550 O 0.4369 0.5176 0.97174 0.0
O551 O 0.46888 0.58904 1.01767 0.0
O552 O 0.43399 0.51866 0.12603 0.0
O553 O 0.56537 0.5381 0.17728 0.0
O554 O 0.53113 0.47639 0.85981 0.0
O555 O 0.53518 0.53691 0.99003 0.0
O556 O 0.57949 0.49219 0.08849 0.0
O557 O 0.54785 0.42071 0.04234 0.0
O558 O 0.58221 0.49212 0.93285 0.0
O559 O 0.44991 0.47164 0.88451 0.0
C560 C 0.43739 0.47511 0.10013 0.0
C561 C 0.52706 0.74672 0.17068 0.0
C562 C 0.57885 0.73915 0.15518 0.0
C563 C 0.52884 0.5337 0.22363 0.0
C564 C 0.53366 0.56165 0.2844 0.0
C565 C 0.54835 0.61246 0.28301 0.0
C566 C 0.52158 0.53646 0.34565 0.0
C567 C 0.5248 0.56115 0.4057 0.0
C568 C 0.54911 0.63815 0.34233 0.0
C569 C 0.53765 0.6126 0.4037 0.0
C570 C 0.43626 0.56707 0.97987 0.0
C571 C 0.57878 0.53525 0.95978 0.0
C572 C 0.48569 0.47628 0.83716 0.0
C573 C 0.47987 0.44834 0.77657 0.0
C574 C 0.46432 0.39779 0.77848 0.0
C575 C 0.49142 0.47329 0.71499 0.0
C576 C 0.48684 0.44854 0.65521 0.0
C577 C 0.46225 0.37203 0.71938 0.0
C578 C 0.47314 0.3973 0.65767 0.0
C579 C 0.58015 0.44274 0.08055 0.0
H580 H 0.55921 0.6323 0.23678 0.0
H581 H 0.50948 0.49742 0.34645 0.0
H582 H 0.55884 0.67778 0.34062 0.0
H583 H 0.53965 0.63262 0.44946 0.0
H584 H 0.45367 0.37821 0.82495 0.0
H585 H 0.50409 0.51218 0.71365 0.0
H586 H 0.45191 0.3326 0.72157 0.0
H587 H 0.46994 0.37726 0.61209 0.0
Gd588 Gd 1.00789 0.55918 0.46874 0.0
Gd589 Gd 0.00811 0.45148 0.59733 0.0
C590 C 0.08913 0.30989 0.52525 0.0
C591 C 0.01753 0.25805 0.49852 0.0
C592 C 1.00364 0.3371 0.5536 0.0
C593 C 0.05484 0.34623 0.55024 0.0
C594 C 0.9841 0.2923 0.52986 0.0
C595 C 0.07013 0.26675 0.49664 0.0
C596 C 0.14108 0.31701 0.53268 0.0
C597 C 0.15713 0.35896 0.56593 0.0
N598 N 0.07104 0.38905 0.57676 0.0
C599 C 0.12141 0.39491 0.58768 0.0
H600 H 0.13469 0.4275 0.61201 0.0
C601 C 0.92379 0.3591 0.6027 0.0
N602 N 0.97332 0.37074 0.58522 0.0
C603 C 0.90222 0.31518 0.58005 0.0
C604 C 0.93216 0.28245 0.54154 0.0
H605 H 0.90011 0.38559 0.62976 0.0
H606 H 0.09583 0.23865 0.47669 0.0
H607 H 0.88139 0.58284 0.4534 0.0
H608 H 0.16879 0.2897 0.51491 0.0
H609 H 0.19709 0.36418 0.57356 0.0
H610 H 1.00351 0.2235 0.47921 0.0
H611 H 0.11604 0.62527 0.43803 0.0
H612 H 0.84656 0.72063 0.55018 0.0
H613 H 0.81868 0.64605 0.49136 0.0
H614 H 0.01146 0.78681 0.58815 0.0
H615 H 0.86241 0.307 0.59137 0.0
H616 H 0.91531 0.24862 0.52423 0.0
H617 H 0.91913 0.77177 0.58911 0.0
H618 H 0.15352 0.70324 0.47854 0.0
N619 N 0.94477 0.62145 0.48909 0.0
C620 C 0.87439 0.69334 0.53267 0.0
C621 C 0.85859 0.65135 0.49932 0.0
C622 C 0.92626 0.70054 0.54058 0.0
C623 C 0.96075 0.66428 0.51583 0.0
C624 C 0.89447 0.61547 0.47782 0.0
N625 N 0.04251 0.63991 0.4817 0.0
C626 C 0.01194 0.67343 0.51316 0.0
C627 C 0.11359 0.69523 0.48879 0.0
C628 C 0.08332 0.72779 0.52713 0.0
C629 C 0.09216 0.65161 0.46504 0.0
C630 C 0.03126 0.71808 0.53761 0.0
H631 H 0.10003 0.76143 0.54529 0.0
O632 O 0.04516 0.57507 0.36988 0.0
O633 O 0.03266 0.48051 0.49436 0.0
O634 O 0.07907 0.49842 0.60095 0.0
O635 O 0.05891 0.57717 0.55121 0.0
O636 O 0.08487 0.52647 0.44052 0.0
O637 O 0.96783 0.54767 0.37818 0.0
O638 O 0.97113 0.43603 0.69647 0.0
O639 O 0.98326 0.53003 0.57153 0.0
O640 O 0.93715 0.51193 0.46461 0.0
O641 O 0.95686 0.43329 0.51518 0.0
O642 O 0.93111 0.48422 0.62554 0.0
O643 O 0.04849 0.46326 0.68757 0.0
C644 C 0.07659 0.48146 0.4656 0.0
C645 C 0.99758 0.75231 0.56851 0.0
C646 C 0.94501 0.74367 0.56948 0.0
C647 C 1.00691 0.55907 0.33804 0.0
C648 C 0.99782 0.5809 0.2705 0.0
C649 C 0.98191 0.63105 0.26078 0.0
C650 C 1.00437 0.55007 0.21482 0.0
C651 C 0.99519 0.56903 0.1493 0.0
C652 C 0.97289 0.65033 0.19624 0.0
C653 C 0.97947 0.61977 0.141 0.0
C654 C 0.08682 0.54731 0.58927 0.0
C655 C 0.93932 0.52918 0.60026 0.0
C656 C 0.00952 0.45205 0.728 0.0
C657 C 0.01882 0.43028 0.79551 0.0
C658 C 0.03499 0.38022 0.80519 0.0
C659 C 0.01222 0.46111 0.85119 0.0
C660 C 0.02158 0.44221 0.91669 0.0
C661 C 0.04416 0.36099 0.86971 0.0
C662 C 0.03751 0.39153 0.92495 0.0
C663 C 0.9293 0.46306 0.47652 0.0
H664 H 0.97636 0.6551 0.30298 0.0
H665 H 0.01579 0.51099 0.22291 0.0
H666 H 0.96074 0.68921 0.18891 0.0
H667 H 0.97278 0.63619 0.09166 0.0
H668 H 0.04063 0.3562 0.76298 0.0
H669 H 1.00064 0.50014 0.8431 0.0
H670 H 0.05648 0.32216 0.87701 0.0
H671 H 0.04431 0.37514 0.97426 0.0
C672 C 0.09981 0.12792 0.42165 0.0
C673 C 0.11455 0.07776 0.4385 0.0
H674 H 0.12313 0.20115 0.37734 0.0
C675 C 0.16536 0.06415 0.42339 0.0
H676 H 0.06089 0.13955 0.43194 0.0
C677 C 0.20058 0.09899 0.39402 0.0
C678 C 0.18653 0.14893 0.37641 0.0
H679 H 0.17822 0.02594 0.43473 0.0
H680 H 0.23946 0.08656 0.38487 0.0
C681 C 0.13535 0.16305 0.39019 0.0
C682 C 0.11877 0.86012 0.61839 0.0
C683 C 0.11913 0.9133 0.61774 0.0
H684 H 0.15387 0.79075 0.6529 0.0
C685 C 0.15692 0.93717 0.65226 0.0
H686 H 0.09019 0.84063 0.59252 0.0
C687 C 0.19289 0.90881 0.68692 0.0
C688 C 0.19151 0.85584 0.68943 0.0
H689 H 0.15889 0.97799 0.65267 0.0
H690 H 0.22182 0.92839 0.71228 0.0
C691 C 0.15468 0.83161 0.65375 0.0
C692 C 0.36108 0.90941 0.83561 0.0
C693 C 0.32716 0.87643 0.87183 0.0
H694 H 0.42059 0.96358 0.84078 0.0
C695 C 0.32121 0.87904 0.94176 0.0
H696 H 0.36498 0.90944 0.78151 0.0
C697 C 0.35221 0.91079 0.97533 0.0
C698 C 0.38931 0.94004 0.93941 0.0
H699 H 0.29482 0.85449 0.97088 0.0
H700 H 0.34851 0.91108 1.02943 0.0
C701 C 0.39221 0.94097 0.8693 0.0
C702 C 0.43456 0.11111 0.15841 0.0
C703 C 0.41038 0.07288 0.12542 0.0
H704 H 0.42509 0.17623 0.21828 0.0
C705 C 0.35713 0.07084 0.12901 0.0
H706 H 0.47565 0.11233 0.15863 0.0
C707 C 0.32839 0.10732 0.16257 0.0
C708 C 0.35221 0.14601 0.19533 0.0
H709 H 0.33767 0.04076 0.10581 0.0
H710 H 0.28736 0.10469 0.16336 0.0
C711 C 0.40567 0.14728 0.19318 0.0
C712 C 0.91624 0.88415 0.64447 0.0
C713 C 0.90123 0.9343 0.62806 0.0
H714 H 0.89312 0.81051 0.68749 0.0
C715 C 0.85023 0.94749 0.64256 0.0
H716 H 0.95535 0.87288 0.63478 0.0
C717 C 0.81503 0.91217 0.67075 0.0
C718 C 0.82936 0.86224 0.68793 0.0
H719 H 0.83721 0.9857 0.63156 0.0
H720 H 0.77596 0.92421 0.67937 0.0
C721 C 0.88072 0.84859 0.67486 0.0
C722 C 0.89711 0.1525 0.44693 0.0
C723 C 0.89667 0.09933 0.44848 0.0
H724 H 0.8622 0.2216 0.4111 0.0
C725 C 0.85913 0.07514 0.41387 0.0
H726 H 0.9256 0.17216 0.47268 0.0
C727 C 0.82342 0.10318 0.37839 0.0
C728 C 0.82477 0.15615 0.37519 0.0
H729 H 0.85714 0.0343 0.41402 0.0
H730 H 0.79467 0.08336 0.353 0.0
C731 C 0.8614 0.18072 0.41083 0.0
C732 C 0.69411 0.13338 0.12126 0.0
C733 C 0.68856 0.13523 0.19132 0.0
H734 H 0.66658 0.1021 0.03324 0.0
C735 C 0.65491 0.10179 0.22723 0.0
H736 H 0.72026 0.15827 0.0923 0.0
C737 C 0.62375 0.07046 0.19321 0.0
C738 C 0.62631 0.07207 0.12307 0.0
H739 H 0.65124 0.10123 0.28137 0.0
H740 H 0.59564 0.04743 0.22158 0.0
C741 C 0.66309 0.10187 0.08737 0.0
C742 C 0.61049 0.86457 0.86898 0.0
C743 C 0.66393 0.86587 0.86689 0.0
H744 H 0.54045 0.89945 0.90342 0.0
C745 C 0.68768 0.90461 0.89965 0.0
H746 H 0.59121 0.83559 0.84387 0.0
C747 C 0.65888 0.94106 0.9332 0.0
C748 C 0.60564 0.93897 0.93673 0.0
H749 H 0.72871 0.90728 0.89892 0.0
H750 H 0.67831 0.97116 0.95642 0.0
C751 C 0.58154 0.90072 0.90369 0.0
C752 C 0.66574 0.56402 0.92163 0.0
C753 C 0.6147 0.57717 0.93588 0.0
H754 H 0.74004 0.58729 0.885 0.0
C755 C 0.59965 0.62726 0.91917 0.0
H756 H 0.67878 0.52585 0.93284 0.0
C757 C 0.63521 0.66282 0.88881 0.0
C758 C 0.68662 0.6492 0.87601 0.0
H759 H 0.5605 0.63851 0.92856 0.0
H760 H 0.62279 0.70086 0.87598 0.0
C761 C 0.70095 0.59932 0.89343 0.0
C762 C 0.69248 0.40824 0.18569 0.0
C763 C 0.69116 0.35527 0.18882 0.0
H764 H 0.65874 0.47712 0.15009 0.0
C765 C 0.65458 0.33071 0.15312 0.0
H766 H 0.7212 0.42807 0.21112 0.0
C767 C 0.61887 0.35892 0.11701 0.0
C768 C 0.61928 0.4121 0.11551 0.0
H769 H 0.65381 0.28982 0.1528 0.0
H770 H 0.59042 0.33926 0.09121 0.0
C771 C 0.65677 0.43629 0.1502 0.0
C772 C 0.89222 0.44084 0.37087 0.0
C773 C 0.88961 0.43918 0.44101 0.0
H774 H 0.86478 0.41014 0.28263 0.0
C775 C 0.85281 0.40938 0.47664 0.0
H776 H 0.92036 0.46387 0.34256 0.0
C777 C 0.82177 0.37794 0.44268 0.0
C778 C 0.82736 0.37613 0.37262 0.0
H779 H 0.8493 0.4091 0.53078 0.0
H780 H 0.79559 0.35304 0.47158 0.0
C781 C 0.86106 0.40955 0.33678 0.0
C782 C 0.82843 0.60678 0.66439 0.0
C783 C 0.85223 0.64551 0.69711 0.0
H784 H 0.83772 0.54021 0.60765 0.0
C785 C 0.90568 0.64677 0.69499 0.0
H786 H 0.78741 0.60413 0.66515 0.0
C787 C 0.93458 0.6106 0.66026 0.0
C788 C 0.91042 0.57235 0.62726 0.0
H789 H 0.925 0.67573 0.72011 0.0
H790 H 0.97567 0.61182 0.66052 0.0
C791 C 0.85718 0.57031 0.63084 0.0
C792 C 0.38072 0.34831 0.174 0.0
C793 C 0.32953 0.36237 0.18774 0.0
H794 H 0.45516 0.37185 0.13218 0.0
C795 C 0.31541 0.41226 0.16999 0.0
H796 H 0.39301 0.31025 0.18697 0.0
C797 C 0.35057 0.44712 0.1405 0.0
C798 C 0.4014 0.43355 0.1254 0.0
H799 H 0.27651 0.42466 0.17914 0.0
H800 H 0.33766 0.48529 0.12905 0.0
C801 C 0.41622 0.38344 0.14243 0.0
C802 C 0.39716 0.65111 0.9452 0.0
C803 C 0.39679 0.59793 0.94585 0.0
H804 H 0.36205 0.72048 0.91073 0.0
C805 C 0.35895 0.57405 0.91143 0.0
H806 H 0.42577 0.6706 0.97099 0.0
C807 C 0.32293 0.60241 0.87684 0.0
C808 C 0.32434 0.65539 0.8743 0.0
H809 H 0.35697 0.53323 0.91104 0.0
H810 H 0.29397 0.58284 0.85154 0.0
C811 C 0.36121 0.67962 0.90991 0.0
C812 C 0.15495 0.60176 0.72822 0.0
C813 C 0.18891 0.63467 0.69196 0.0
H814 H 0.09536 0.54768 0.72314 0.0
C815 C 0.19487 0.632 0.62204 0.0
H816 H 0.15105 0.60179 0.78232 0.0
C817 C 0.16382 0.60028 0.58851 0.0
C818 C 0.12666 0.57112 0.62448 0.0
H819 H 0.22128 0.6565 0.59288 0.0
H820 H 0.1675 0.59995 0.53441 0.0
C821 C 0.12377 0.57023 0.69459 0.0
C822 C 0.18759 0.40393 0.40157 0.0
C823 C 0.16382 0.36513 0.36897 0.0
H824 H 0.17823 0.4706 0.45809 0.0
C825 C 0.11035 0.36377 0.37116 0.0
H826 H 0.22862 0.40662 0.40075 0.0
C827 C 0.08143 0.39997 0.4058 0.0
C828 C 0.10556 0.43833 0.43862 0.0
H829 H 0.09096 0.33472 0.34619 0.0
H830 H 0.04034 0.39868 0.40562 0.0
C831 C 0.1588 0.44044 0.43501 0.0
C832 C 0.03829 0.98446 0.9813 0.0
C833 C 0.02021 0.03424 0.97275 0.0
H834 H 0.04313 0.91897 0.04697 0.0
C835 C 0.99209 0.05628 1.02528 0.0
H836 H 0.06067 0.96687 0.94174 0.0
C837 C 0.9819 0.02879 0.0853 0.0
C838 C 0.99996 0.97898 0.09387 0.0
H839 H 0.97719 0.09434 1.01956 0.0
H840 H 0.95938 0.04637 0.12474 0.0
C841 C 0.02818 0.95701 0.04135 0.0
C842 C 0.23207 0.75325 0.3449 0.0
C843 C 0.28472 0.74386 0.34069 0.0
H844 H 0.16491 0.77067 0.29216 0.0
C845 C 0.30987 0.74643 0.27668 0.0
H846 H 0.21113 0.75095 0.39293 0.0
C847 C 0.28329 0.75776 0.21872 0.0
C848 C 0.23064 0.76714 0.22292 0.0
H849 H 0.35045 0.7403 0.27146 0.0
H850 H 0.30425 0.76008 0.17069 0.0
C851 C 0.20549 0.76457 0.28694 0.0
C852 C 0.46764 0.04041 0.53506 0.0
C853 C 0.50102 0.03631 0.58792 0.0
H854 H 0.44699 0.01406 0.44032 0.0
C855 C 0.54102 1.00099 0.58297 0.0
H856 H 0.43584 0.06643 0.53725 0.0
C857 C 0.54745 0.97087 0.52706 0.0
C858 C 0.51407 0.97498 0.4742 0.0
H859 H 0.56809 0.99718 0.62181 0.0
H860 H 0.57923 0.94483 0.52486 0.0
C861 C 0.47407 0.01028 0.47916 0.0
C862 C 0.21134 0.281 0.79319 0.0
C863 C 0.22995 0.248 0.843 0.0
H864 H 0.22443 0.31566 0.69547 0.0
C865 C 0.27687 0.22357 0.83154 0.0
H866 H 0.17566 0.30088 0.80122 0.0
C867 C 0.30483 0.23213 0.77127 0.0
C868 C 0.2862 0.26511 0.72145 0.0
H869 H 0.29172 0.19738 0.86889 0.0
H870 H 0.3405 0.21225 0.76322 0.0
C871 C 0.23929 0.28953 0.73289 0.0
C872 C 0.76808 0.29355 0.82617 0.0
C873 C 0.78532 0.24408 0.84081 0.0
H874 H 0.72974 0.34387 0.75865 0.0
C875 C 0.77485 0.20657 0.7955 0.0
H876 H 0.77597 0.3238 0.85877 0.0
C877 C 0.74824 0.21813 0.73761 0.0
C878 C 0.73098 0.2676 0.72298 0.0
H879 H 0.78658 0.16781 0.80514 0.0
H880 H 0.74034 0.18788 0.70502 0.0
C881 C 0.74147 0.30511 0.76828 0.0
C882 C 0.77923 0.72254 0.33085 0.0
C883 C 0.73074 0.74362 0.34278 0.0
H884 H 0.84346 0.71584 0.26212 0.0
C885 C 0.70988 0.77545 0.29337 0.0
H886 H 0.7959 0.69737 0.36792 0.0
C887 C 0.73717 0.78618 0.23307 0.0
C888 C 0.78567 0.7651 0.22112 0.0
H889 H 0.67293 0.79283 0.30179 0.0
H890 H 0.72051 0.81144 0.19609 0.0
C891 C 0.8065 0.73322 0.27051 0.0
C892 C 0.47675 0.52623 0.5823 0.0
C893 C 0.49597 0.47688 0.59086 0.0
H894 H 0.47061 0.5916 0.5167 0.0
C895 C 0.52471 0.45547 0.53838 0.0
H896 H 0.45389 0.54332 0.62182 0.0
C897 C 0.53441 0.48316 0.47842 0.0
C898 C 0.51523 0.53256 0.46985 0.0
H899 H 0.54051 0.41777 0.5441 0.0
H900 H 0.55742 0.46609 0.43903 0.0
C901 C 0.48638 0.5539 0.52232 0.0
C902 C 0.04828 0.47085 1.02903 0.0
C903 C 0.01492 0.47495 0.97614 0.0
H904 H 0.06889 0.4972 0.12378 0.0
C905 C 0.97493 0.51028 0.98106 0.0
H906 H 0.08007 0.44482 1.02687 0.0
C907 C 0.96848 0.54041 0.03696 0.0
C908 C 1.00183 0.5363 0.08984 0.0
H909 H 0.94787 0.51409 0.9422 0.0
H910 H 0.9367 0.56646 0.03913 0.0
C911 C 0.04183 0.50098 0.08492 0.0
loop_
_geom_bond_atom_site_label_1
_geom_bond_atom_site_label_2
_geom_bond_distance
_geom_bond_site_symmetry_2
_ccdc_geom_bond_type
Gd0 N31 2.658 1_655 S
Gd0 N37 2.601 1_655 S
Gd0 O44 2.546 . S
Gd0 O45 2.607 1_545 S
Gd0 O47 2.431 . S
Gd0 O48 2.547 1_545 S
Gd0 O49 2.412 1_655 S
Gd0 O51 2.361 1_655 S
Gd0 O52 2.321 1_645 S
Gd0 C59 2.829 . S
Gd1 N10 2.653 1_455 S
Gd1 N14 2.601 1_455 S
Gd1 O45 2.359 1_455 S
Gd1 O46 2.318 1_465 S
Gd1 O50 2.549 . S
Gd1 O51 2.609 1_565 S
Gd1 O53 2.435 . S
Gd1 O54 2.550 1_565 S
Gd1 O55 2.410 1_455 S
Gd1 C68 2.830 . S
C2 C5 1.417 . S
C2 C7 1.431 . S
C2 C8 1.412 . S
C3 C6 1.437 . S
C3 C7 1.317 . S
C3 H22 0.929 . S
C4 C5 1.426 . S
C4 C6 1.413 . S
C4 N14 1.359 . S
C5 C2 1.417 . S
C5 C4 1.426 . S
C5 N10 1.350 . S
C6 C3 1.437 . S
C6 C4 1.413 . S
C6 C16 1.391 . S
C7 C2 1.431 . S
C7 C3 1.317 . S
C7 H18 0.930 . S
C8 C2 1.412 . S
C8 C9 1.355 . S
C8 H20 0.930 . S
C9 C8 1.355 . S
C9 C11 1.402 . S
C9 H21 0.930 . S
N10 Gd1 2.653 1_655 S
N10 C5 1.350 . S
N10 C11 1.307 . S
C11 C9 1.402 . S
C11 N10 1.307 . S
C11 H12 0.930 . S
H12 C11 0.930 . S
C13 N14 1.334 1_455 S
C13 C15 1.394 . S
C13 H17 0.930 . S
N14 Gd1 2.601 1_655 S
N14 C4 1.359 . S
N14 C13 1.334 1_655 S
C15 C13 1.394 . S
C15 C16 1.359 1_455 S
C15 H27 0.930 . S
C16 C6 1.391 . S
C16 C15 1.359 1_655 S
C16 H28 0.929 . S
H17 C13 0.930 . S
H18 C7 0.930 . S
H19 C36 0.930 . S
H20 C8 0.930 . S
H21 C9 0.930 . S
H22 C3 0.929 . S
H23 C41 0.930 . S
H24 C32 0.930 . S
H25 C33 0.930 . S
H26 C57 0.929 . S
H27 C15 0.930 . S
H28 C16 0.929 . S
H29 C58 0.930 . S
H30 C39 0.930 . S
N31 Gd0 2.658 1_455 S
N31 C35 1.350 . S
N31 C36 1.307 . S
C32 H24 0.930 . S
C32 C33 1.355 . S
C32 C34 1.412 . S
C33 H25 0.930 . S
C33 C32 1.355 . S
C33 C36 1.402 . S
C34 C32 1.412 . S
C34 C35 1.417 . S
C34 C58 1.431 . S
C35 N31 1.350 . S
C35 C34 1.417 . S
C35 C38 1.426 . S
C36 H19 0.930 . S
C36 N31 1.307 . S
C36 C33 1.402 . S
N37 Gd0 2.601 1_455 S
N37 C38 1.359 . S
N37 C41 1.334 1_455 S
C38 C35 1.426 . S
C38 N37 1.359 . S
C38 C42 1.413 . S
C39 H30 0.930 . S
C39 C40 1.359 1_655 S
C39 C41 1.394 . S
C40 C39 1.359 1_455 S
C40 C42 1.391 . S
C40 H43 0.929 . S
C41 H23 0.930 . S
C41 N37 1.334 1_655 S
C41 C39 1.394 . S
C42 C38 1.413 . S
C42 C40 1.391 . S
C42 C57 1.437 . S
H43 C40 0.929 . S
O44 Gd0 2.546 . S
O44 C59 1.258 . S
O45 Gd0 2.607 1_565 S
O45 Gd1 2.359 1_655 S
O45 C56 1.284 . S
O46 Gd1 2.318 1_645 S
O46 C66 1.254 . S
O47 Gd0 2.431 . S
O47 C66 1.268 . S
O48 Gd0 2.547 1_565 S
O48 C56 1.250 . S
O49 Gd0 2.412 1_455 S
O49 C59 1.252 1_455 S
O50 Gd1 2.549 . S
O50 C68 1.258 . S
O51 Gd0 2.361 1_455 S
O51 Gd1 2.609 1_545 S
O51 C67 1.284 . S
O52 Gd0 2.321 1_465 S
O52 C75 1.254 . S
O53 Gd1 2.435 . S
O53 C75 1.268 . S
O54 Gd1 2.550 1_545 S
O54 C67 1.250 . S
O55 Gd1 2.410 1_655 S
O55 C68 1.252 1_655 S
C56 O45 1.284 . S
C56 O48 1.250 . S
C57 H26 0.929 . S
C57 C42 1.437 . S
C57 C58 1.317 . S
C58 H29 0.930 . S
C58 C34 1.431 . S
C58 C57 1.317 . S
C59 Gd0 2.829 . S
C59 O44 1.258 . S
C59 O49 1.252 1_655 S
C59 C60 1.497 . S
C60 C59 1.497 . S
C60 C61 1.395 . S
C60 C62 1.380 . S
C61 C60 1.395 . S
C61 C64 1.398 . S
C61 H76 0.930 . S
C62 C60 1.380 . S
C62 C63 1.391 . S
C62 H77 0.930 1_655 S
C63 C62 1.391 . S
C63 C65 1.387 . S
C64 C61 1.398 . S
C64 C65 1.380 . S
C64 H78 0.930 . S
C65 C63 1.387 . S
C65 C64 1.380 . S
C65 H79 0.930 . S
C66 O46 1.254 . S
C66 O47 1.268 . S
C67 O51 1.284 . S
C67 O54 1.250 . S
C68 Gd1 2.830 . S
C68 O50 1.258 . S
C68 O55 1.252 1_455 S
C68 C69 1.497 . S
C69 C68 1.497 . S
C69 C70 1.395 . S
C69 C71 1.380 . S
C70 C69 1.395 . S
C70 C73 1.398 . S
C70 H80 0.930 . S
C71 C69 1.380 . S
C71 C72 1.391 . S
C71 H81 0.930 1_455 S
C72 C71 1.391 . S
C72 C74 1.387 . S
C73 C70 1.398 . S
C73 C74 1.380 . S
C73 H82 0.930 . S
C74 C72 1.387 . S
C74 C73 1.380 . S
C74 H83 0.930 . S
C75 O52 1.254 . S
C75 O53 1.268 . S
H76 C61 0.930 . S
H77 C62 0.930 1_455 S
H78 C64 0.930 . S
H79 C65 0.930 . S
H80 C70 0.930 . S
H81 C71 0.930 1_655 S
H82 C73 0.930 . S
H83 C74 0.930 . S
Gd84 N115 2.661 . S
Gd84 N121 2.601 . S
Gd84 O128 2.545 . S
Gd84 O129 2.606 . S
Gd84 O131 2.429 . S
Gd84 O132 2.545 . S
Gd84 O133 2.412 . S
Gd84 O135 2.362 . S
Gd84 O136 2.324 . S
Gd84 C143 2.828 . S
Gd85 N94 2.661 . S
Gd85 N98 2.601 . S
Gd85 O129 2.362 . S
Gd85 O130 2.324 . S
Gd85 O134 2.545 . S
Gd85 O135 2.606 . S
Gd85 O137 2.429 . S
Gd85 O138 2.545 . S
Gd85 O139 2.412 . S
Gd85 C152 2.828 . S
C86 C89 1.417 . S
C86 C91 1.431 . S
C86 C92 1.412 . S
C87 C90 1.437 . S
C87 C91 1.317 . S
C87 H106 0.929 . S
C88 C89 1.426 . S
C88 C90 1.413 . S
C88 N98 1.359 . S
C89 C86 1.417 . S
C89 C88 1.426 . S
C89 N94 1.350 . S
C90 C87 1.437 . S
C90 C88 1.413 . S
C90 C100 1.391 . S
C91 C86 1.431 . S
C91 C87 1.317 . S
C91 H102 0.930 . S
C92 C86 1.412 . S
C92 C93 1.355 . S
C92 H104 0.930 . S
C93 C92 1.355 . S
C93 C95 1.402 . S
C93 H105 0.930 . S
N94 Gd85 2.661 . S
N94 C89 1.350 . S
N94 C95 1.307 . S
C95 C93 1.402 . S
C95 N94 1.307 . S
C95 H96 0.930 . S
H96 C95 0.930 . S
C97 N98 1.334 . S
C97 C99 1.394 . S
C97 H101 0.930 . S
N98 Gd85 2.601 . S
N98 C88 1.359 . S
N98 C97 1.334 . S
C99 C97 1.394 . S
C99 C100 1.359 . S
C99 H111 0.930 . S
C100 C90 1.391 . S
C100 C99 1.359 . S
C100 H112 0.929 . S
H101 C97 0.930 . S
H102 C91 0.930 . S
H103 C120 0.930 . S
H104 C92 0.930 . S
H105 C93 0.930 . S
H106 C87 0.929 . S
H107 C125 0.930 . S
H108 C116 0.930 . S
H109 C117 0.930 . S
H110 C141 0.929 1_655 S
H111 C99 0.930 . S
H112 C100 0.929 . S
H113 C142 0.930 . S
H114 C123 0.930 . S
N115 Gd84 2.661 . S
N115 C119 1.350 . S
N115 C120 1.307 . S
C116 H108 0.930 . S
C116 C117 1.355 . S
C116 C118 1.412 . S
C117 H109 0.930 . S
C117 C116 1.355 . S
C117 C120 1.402 . S
C118 C116 1.412 . S
C118 C119 1.417 . S
C118 C142 1.431 . S
C119 N115 1.350 . S
C119 C118 1.417 . S
C119 C122 1.426 . S
C120 H103 0.930 . S
C120 N115 1.307 . S
C120 C117 1.402 . S
N121 Gd84 2.601 . S
N121 C122 1.359 . S
N121 C125 1.334 . S
C122 C119 1.426 . S
C122 N121 1.359 . S
C122 C126 1.413 . S
C123 H114 0.930 . S
C123 C124 1.359 . S
C123 C125 1.394 . S
C124 C123 1.359 . S
C124 C126 1.391 . S
C124 H127 0.929 1_455 S
C125 H107 0.930 . S
C125 N121 1.334 . S
C125 C123 1.394 . S
C126 C122 1.413 . S
C126 C124 1.391 . S
C126 C141 1.437 . S
H127 C124 0.929 1_655 S
O128 Gd84 2.545 . S
O128 C143 1.258 . S
O129 Gd84 2.606 . S
O129 Gd85 2.362 . S
O129 C140 1.284 . S
O130 Gd85 2.324 . S
O130 C150 1.254 . S
O131 Gd84 2.429 . S
O131 C150 1.268 . S
O132 Gd84 2.545 . S
O132 C140 1.250 . S
O133 Gd84 2.412 . S
O133 C143 1.252 . S
O134 Gd85 2.545 . S
O134 C152 1.258 . S
O135 Gd84 2.362 . S
O135 Gd85 2.606 . S
O135 C151 1.284 . S
O136 Gd84 2.324 . S
O136 C159 1.254 . S
O137 Gd85 2.429 . S
O137 C159 1.268 . S
O138 Gd85 2.545 . S
O138 C151 1.250 . S
O139 Gd85 2.412 . S
O139 C152 1.252 . S
C140 O129 1.284 . S
C140 O132 1.250 . S
C141 H110 0.929 1_455 S
C141 C126 1.437 . S
C141 C142 1.317 . S
C142 H113 0.930 . S
C142 C118 1.431 . S
C142 C141 1.317 . S
C143 Gd84 2.828 . S
C143 O128 1.258 . S
C143 O133 1.252 . S
C143 C144 1.497 1_556 S
C144 C143 1.497 1_554 S
C144 C145 1.395 . S
C144 C146 1.380 . S
C145 C144 1.395 . S
C145 C148 1.398 . S
C145 H160 0.930 . S
C146 C144 1.380 . S
C146 C147 1.391 . S
C146 H161 0.930 . S
C147 C146 1.391 . S
C147 C149 1.387 . S
C148 C145 1.398 . S
C148 C149 1.380 . S
C148 H162 0.930 . S
C149 C147 1.387 . S
C149 C148 1.380 . S
C149 H163 0.930 . S
C150 O130 1.254 . S
C150 O131 1.268 . S
C151 O135 1.284 . S
C151 O138 1.250 . S
C152 Gd85 2.828 . S
C152 O134 1.258 . S
C152 O139 1.252 . S
C152 C153 1.497 . S
C153 C152 1.497 . S
C153 C154 1.395 . S
C153 C155 1.380 . S
C154 C153 1.395 . S
C154 C157 1.398 . S
C154 H164 0.930 . S
C155 C153 1.380 . S
C155 C156 1.391 . S
C155 H165 0.930 . S
C156 C155 1.391 . S
C156 C158 1.387 . S
C157 C154 1.398 . S
C157 C158 1.380 . S
C157 H166 0.930 . S
C158 C156 1.387 . S
C158 C157 1.380 . S
C158 H167 0.930 . S
C159 O136 1.254 . S
C159 O137 1.268 . S
H160 C145 0.930 . S
H161 C146 0.930 . S
H162 C148 0.930 . S
H163 C149 0.930 . S
H164 C154 0.930 . S
H165 C155 0.930 . S
H166 C157 0.930 . S
H167 C158 0.930 . S
Gd168 N199 2.661 . S
Gd168 N205 2.601 . S
Gd168 O212 2.545 . S
Gd168 O213 2.606 1_545 S
Gd168 O215 2.429 . S
Gd168 O216 2.545 1_545 S
Gd168 O217 2.412 . S
Gd168 O219 2.362 1_556 S
Gd168 O220 2.324 1_545 S
Gd168 C227 2.828 . S
Gd169 N178 2.661 . S
Gd169 N182 2.601 . S
Gd169 O213 2.362 1_554 S
Gd169 O214 2.324 1_565 S
Gd169 O218 2.545 . S
Gd169 O219 2.606 1_565 S
Gd169 O221 2.429 . S
Gd169 O222 2.545 1_565 S
Gd169 O223 2.412 . S
Gd169 C236 2.828 . S
C170 C173 1.417 . S
C170 C175 1.431 . S
C170 C176 1.412 . S
C171 C174 1.437 . S
C171 C175 1.317 . S
C171 H190 0.929 . S
C172 C173 1.426 . S
C172 C174 1.413 . S
C172 N182 1.359 . S
C173 C170 1.417 . S
C173 C172 1.426 . S
C173 N178 1.350 . S
C174 C171 1.437 . S
C174 C172 1.413 . S
C174 C184 1.391 . S
C175 C170 1.431 . S
C175 C171 1.317 . S
C175 H186 0.930 . S
C176 C170 1.412 . S
C176 C177 1.355 . S
C176 H188 0.930 . S
C177 C176 1.355 . S
C177 C179 1.402 . S
C177 H189 0.930 . S
N178 Gd169 2.661 . S
N178 C173 1.350 . S
N178 C179 1.307 . S
C179 C177 1.402 . S
C179 N178 1.307 . S
C179 H180 0.930 . S
H180 C179 0.930 . S
C181 N182 1.334 . S
C181 C183 1.394 . S
C181 H185 0.930 . S
N182 Gd169 2.601 . S
N182 C172 1.359 . S
N182 C181 1.334 . S
C183 C181 1.394 . S
C183 C184 1.359 . S
C183 H195 0.930 . S
C184 C174 1.391 . S
C184 C183 1.359 . S
C184 H196 0.929 . S
H185 C181 0.930 . S
H186 C175 0.930 . S
H187 C204 0.930 . S
H188 C176 0.930 . S
H189 C177 0.930 . S
H190 C171 0.929 . S
H191 C209 0.930 . S
H192 C200 0.930 . S
H193 C201 0.930 . S
H194 C225 0.929 . S
H195 C183 0.930 . S
H196 C184 0.929 . S
H197 C226 0.930 . S
H198 C207 0.930 . S
N199 Gd168 2.661 . S
N199 C203 1.350 . S
N199 C204 1.307 . S
C200 H192 0.930 . S
C200 C201 1.355 . S
C200 C202 1.412 . S
C201 H193 0.930 . S
C201 C200 1.355 . S
C201 C204 1.402 . S
C202 C200 1.412 . S
C202 C203 1.417 . S
C202 C226 1.431 . S
C203 N199 1.350 . S
C203 C202 1.417 . S
C203 C206 1.426 . S
C204 H187 0.930 . S
C204 N199 1.307 . S
C204 C201 1.402 . S
N205 Gd168 2.601 . S
N205 C206 1.359 . S
N205 C209 1.334 . S
C206 C203 1.426 . S
C206 N205 1.359 . S
C206 C210 1.413 . S
C207 H198 0.930 . S
C207 C208 1.359 . S
C207 C209 1.394 . S
C208 C207 1.359 . S
C208 C210 1.391 . S
C208 H211 0.929 . S
C209 H191 0.930 . S
C209 N205 1.334 . S
C209 C207 1.394 . S
C210 C206 1.413 . S
C210 C208 1.391 . S
C210 C225 1.437 . S
H211 C208 0.929 . S
O212 Gd168 2.545 . S
O212 C227 1.258 . S
O213 Gd168 2.606 1_565 S
O213 Gd169 2.362 1_556 S
O213 C224 1.284 . S
O214 Gd169 2.324 1_545 S
O214 C234 1.254 . S
O215 Gd168 2.429 . S
O215 C234 1.268 1_556 S
O216 Gd168 2.545 1_565 S
O216 C224 1.250 . S
O217 Gd168 2.412 . S
O217 C227 1.252 . S
O218 Gd169 2.545 . S
O218 C236 1.258 . S
O219 Gd168 2.362 1_554 S
O219 Gd169 2.606 1_545 S
O219 C235 1.284 . S
O220 Gd168 2.324 1_565 S
O220 C243 1.254 . S
O221 Gd169 2.429 . S
O221 C243 1.268 1_554 S
O222 Gd169 2.545 1_545 S
O222 C235 1.250 . S
O223 Gd169 2.412 . S
O223 C236 1.252 . S
C224 O213 1.284 . S
C224 O216 1.250 . S
C225 H194 0.929 . S
C225 C210 1.437 . S
C225 C226 1.317 . S
C226 H197 0.930 . S
C226 C202 1.431 . S
C226 C225 1.317 . S
C227 Gd168 2.828 . S
C227 O212 1.258 . S
C227 O217 1.252 . S
C227 C228 1.497 . S
C228 C227 1.497 . S
C228 C229 1.395 . S
C228 C230 1.380 . S
C229 C228 1.395 . S
C229 C232 1.398 . S
C229 H244 0.930 . S
C230 C228 1.380 . S
C230 C231 1.391 . S
C230 H245 0.941 . S
C231 C230 1.391 . S
C231 C233 1.387 . S
C232 C229 1.398 . S
C232 C233 1.380 . S
C232 H246 0.930 . S
C233 C231 1.387 . S
C233 C232 1.380 . S
C233 H247 0.930 . S
C234 O214 1.254 . S
C234 O215 1.268 1_554 S
C235 O219 1.284 . S
C235 O222 1.250 . S
C236 Gd169 2.828 . S
C236 O218 1.258 . S
C236 O223 1.252 . S
C236 C237 1.497 . S
C237 C236 1.497 . S
C237 C238 1.395 . S
C237 C239 1.380 . S
C238 C237 1.395 . S
C238 C241 1.398 . S
C238 H248 0.930 . S
C239 C237 1.380 . S
C239 C240 1.391 . S
C239 H249 0.937 . S
C240 C239 1.391 . S
C240 C242 1.387 . S
C241 C238 1.398 . S
C241 C242 1.380 . S
C241 H250 0.930 . S
C242 C240 1.387 . S
C242 C241 1.380 . S
C242 H251 0.930 . S
C243 O220 1.254 . S
C243 O221 1.268 1_556 S
H244 C229 0.930 . S
H245 C230 0.941 . S
H246 C232 0.930 . S
H247 C233 0.930 . S
H248 C238 0.930 . S
H249 C239 0.937 . S
H250 C241 0.930 . S
H251 C242 0.930 . S
Gd252 N283 2.661 . S
Gd252 N289 2.601 . S
Gd252 O296 2.545 . S
Gd252 O297 2.606 . S
Gd252 O299 2.429 . S
Gd252 O300 2.545 . S
Gd252 O301 2.412 . S
Gd252 O303 2.362 . S
Gd252 O304 2.324 . S
Gd252 C311 2.828 . S
Gd253 N262 2.661 . S
Gd253 N266 2.601 . S
Gd253 O297 2.362 . S
Gd253 O298 2.324 . S
Gd253 O302 2.545 . S
Gd253 O303 2.606 . S
Gd253 O305 2.429 . S
Gd253 O306 2.545 . S
Gd253 O307 2.412 . S
Gd253 C320 2.828 . S
C254 C257 1.417 . S
C254 C259 1.431 . S
C254 C260 1.412 . S
C255 C258 1.437 . S
C255 C259 1.317 . S
C255 H274 0.929 . S
C256 C257 1.426 . S
C256 C258 1.413 . S
C256 N266 1.359 . S
C257 C254 1.417 . S
C257 C256 1.426 . S
C257 N262 1.350 . S
C258 C255 1.437 . S
C258 C256 1.413 . S
C258 C268 1.391 . S
C259 C254 1.431 . S
C259 C255 1.317 . S
C259 H270 0.930 . S
C260 C254 1.412 . S
C260 C261 1.355 . S
C260 H272 0.930 . S
C261 C260 1.355 . S
C261 C263 1.402 . S
C261 H273 0.930 . S
N262 Gd253 2.661 . S
N262 C257 1.350 . S
N262 C263 1.307 . S
C263 C261 1.402 . S
C263 N262 1.307 . S
C263 H264 0.930 . S
H264 C263 0.930 . S
C265 N266 1.334 . S
C265 C267 1.394 . S
C265 H269 0.930 . S
N266 Gd253 2.601 . S
N266 C256 1.359 . S
N266 C265 1.334 . S
C267 C265 1.394 . S
C267 C268 1.359 . S
C267 H279 0.930 . S
C268 C258 1.391 . S
C268 C267 1.359 . S
C268 H280 0.929 . S
H269 C265 0.930 . S
H270 C259 0.930 . S
H271 C288 0.930 . S
H272 C260 0.930 . S
H273 C261 0.930 . S
H274 C255 0.929 . S
H275 C293 0.930 . S
H276 C284 0.930 . S
H277 C285 0.930 . S
H278 C309 0.929 1_655 S
H279 C267 0.930 . S
H280 C268 0.929 . S
H281 C310 0.930 . S
H282 C291 0.930 . S
N283 Gd252 2.661 . S
N283 C287 1.350 . S
N283 C288 1.307 . S
C284 H276 0.930 . S
C284 C285 1.355 . S
C284 C286 1.412 . S
C285 H277 0.930 . S
C285 C284 1.355 . S
C285 C288 1.402 . S
C286 C284 1.412 . S
C286 C287 1.417 . S
C286 C310 1.431 . S
C287 N283 1.350 . S
C287 C286 1.417 . S
C287 C290 1.426 . S
C288 H271 0.930 . S
C288 N283 1.307 . S
C288 C285 1.402 . S
N289 Gd252 2.601 . S
N289 C290 1.359 . S
N289 C293 1.334 . S
C290 C287 1.426 . S
C290 N289 1.359 . S
C290 C294 1.413 . S
C291 H282 0.930 . S
C291 C292 1.359 . S
C291 C293 1.394 . S
C292 C291 1.359 . S
C292 C294 1.391 . S
C292 H295 0.929 1_455 S
C293 H275 0.930 . S
C293 N289 1.334 . S
C293 C291 1.394 . S
C294 C290 1.413 . S
C294 C292 1.391 . S
C294 C309 1.437 . S
H295 C292 0.929 1_655 S
O296 Gd252 2.545 . S
O296 C311 1.258 . S
O297 Gd252 2.606 . S
O297 Gd253 2.362 . S
O297 C308 1.284 . S
O298 Gd253 2.324 . S
O298 C318 1.254 . S
O299 Gd252 2.429 . S
O299 C318 1.268 . S
O300 Gd252 2.545 . S
O300 C308 1.250 . S
O301 Gd252 2.412 . S
O301 C311 1.252 . S
O302 Gd253 2.545 . S
O302 C320 1.258 . S
O303 Gd252 2.362 . S
O303 Gd253 2.606 . S
O303 C319 1.284 . S
O304 Gd252 2.324 . S
O304 C327 1.254 . S
O305 Gd253 2.429 . S
O305 C327 1.268 . S
O306 Gd253 2.545 . S
O306 C319 1.250 . S
O307 Gd253 2.412 . S
O307 C320 1.252 . S
C308 O297 1.284 . S
C308 O300 1.250 . S
C309 H278 0.929 1_455 S
C309 C294 1.437 . S
C309 C310 1.317 . S
C310 H281 0.930 . S
C310 C286 1.431 . S
C310 C309 1.317 . S
C311 Gd252 2.828 . S
C311 O296 1.258 . S
C311 O301 1.252 . S
C311 C312 1.497 1_554 S
C312 C311 1.497 1_556 S
C312 C313 1.395 . S
C312 C314 1.380 . S
C313 C312 1.395 . S
C313 C316 1.398 . S
C313 H328 0.930 . S
C314 C312 1.380 . S
C314 C315 1.391 . S
C314 H329 0.930 . S
C315 C314 1.391 . S
C315 C317 1.387 . S
C316 C313 1.398 . S
C316 C317 1.380 . S
C316 H330 0.930 . S
C317 C315 1.387 . S
C317 C316 1.380 . S
C317 H331 0.930 . S
C318 O298 1.254 . S
C318 O299 1.268 . S
C319 O303 1.284 . S
C319 O306 1.250 . S
C320 Gd253 2.828 . S
C320 O302 1.258 . S
C320 O307 1.252 . S
C320 C321 1.497 . S
C321 C320 1.497 . S
C321 C322 1.395 . S
C321 C323 1.380 . S
C322 C321 1.395 . S
C322 C325 1.398 . S
C322 H332 0.930 . S
C323 C321 1.380 . S
C323 C324 1.391 . S
C323 H333 0.930 . S
C324 C323 1.391 . S
C324 C326 1.387 . S
C325 C322 1.398 . S
C325 C326 1.380 . S
C325 H334 0.930 . S
C326 C324 1.387 . S
C326 C325 1.380 . S
C326 H335 0.930 . S
C327 O304 1.254 . S
C327 O305 1.268 . S
H328 C313 0.930 . S
H329 C314 0.930 . S
H330 C316 0.930 . S
H331 C317 0.930 . S
H332 C322 0.930 . S
H333 C323 0.930 . S
H334 C325 0.930 . S
H335 C326 0.930 . S
Gd336 N367 2.661 . S
Gd336 N373 2.601 . S
Gd336 O380 2.545 . S
Gd336 O381 2.606 . S
Gd336 O383 2.429 . S
Gd336 O384 2.545 . S
Gd336 O385 2.412 . S
Gd336 O387 2.362 . S
Gd336 O388 2.324 . S
Gd336 C395 2.828 . S
Gd337 N346 2.661 . S
Gd337 N350 2.601 . S
Gd337 O381 2.362 . S
Gd337 O382 2.324 . S
Gd337 O386 2.545 . S
Gd337 O387 2.606 . S
Gd337 O389 2.429 . S
Gd337 O390 2.545 . S
Gd337 O391 2.412 . S
Gd337 C404 2.828 . S
C338 C341 1.417 . S
C338 C343 1.431 . S
C338 C344 1.412 . S
C339 C342 1.437 . S
C339 C343 1.317 . S
C339 H358 0.929 1_655 S
C340 C341 1.426 . S
C340 C342 1.413 . S
C340 N350 1.359 . S
C341 C338 1.417 . S
C341 C340 1.426 . S
C341 N346 1.350 . S
C342 C339 1.437 . S
C342 C340 1.413 . S
C342 C352 1.391 . S
C343 C338 1.431 . S
C343 C339 1.317 . S
C343 H354 0.930 . S
C344 C338 1.412 . S
C344 C345 1.355 . S
C344 H356 0.930 . S
C345 C344 1.355 . S
C345 C347 1.402 . S
C345 H357 0.930 . S
N346 Gd337 2.661 . S
N346 C341 1.350 . S
N346 C347 1.307 . S
C347 C345 1.402 . S
C347 N346 1.307 . S
C347 H348 0.930 . S
H348 C347 0.930 . S
C349 N350 1.334 . S
C349 C351 1.394 . S
C349 H353 0.930 . S
N350 Gd337 2.601 . S
N350 C340 1.359 . S
N350 C349 1.334 . S
C351 C349 1.394 . S
C351 C352 1.359 . S
C351 H363 0.930 . S
C352 C342 1.391 . S
C352 C351 1.359 . S
C352 H364 0.929 1_655 S
H353 C349 0.930 . S
H354 C343 0.930 . S
H355 C372 0.930 . S
H356 C344 0.930 . S
H357 C345 0.930 . S
H358 C339 0.929 1_455 S
H359 C377 0.930 . S
H360 C368 0.930 . S
H361 C369 0.930 . S
H362 C393 0.929 . S
H363 C351 0.930 . S
H364 C352 0.929 1_455 S
H365 C394 0.930 . S
H366 C375 0.930 . S
N367 Gd336 2.661 . S
N367 C371 1.350 . S
N367 C372 1.307 . S
C368 H360 0.930 . S
C368 C369 1.355 . S
C368 C370 1.412 . S
C369 H361 0.930 . S
C369 C368 1.355 . S
C369 C372 1.402 . S
C370 C368 1.412 . S
C370 C371 1.417 . S
C370 C394 1.431 . S
C371 N367 1.350 . S
C371 C370 1.417 . S
C371 C374 1.426 . S
C372 H355 0.930 . S
C372 N367 1.307 . S
C372 C369 1.402 . S
N373 Gd336 2.601 . S
N373 C374 1.359 . S
N373 C377 1.334 . S
C374 C371 1.426 . S
C374 N373 1.359 . S
C374 C378 1.413 . S
C375 H366 0.930 . S
C375 C376 1.359 . S
C375 C377 1.394 . S
C376 C375 1.359 . S
C376 C378 1.391 . S
C376 H379 0.929 . S
C377 H359 0.930 . S
C377 N373 1.334 . S
C377 C375 1.394 . S
C378 C374 1.413 . S
C378 C376 1.391 . S
C378 C393 1.437 . S
H379 C376 0.929 . S
O380 Gd336 2.545 . S
O380 C395 1.258 . S
O381 Gd336 2.606 . S
O381 Gd337 2.362 . S
O381 C392 1.284 . S
O382 Gd337 2.324 . S
O382 C402 1.254 . S
O383 Gd336 2.429 . S
O383 C402 1.268 . S
O384 Gd336 2.545 . S
O384 C392 1.250 . S
O385 Gd336 2.412 . S
O385 C395 1.252 . S
O386 Gd337 2.545 . S
O386 C404 1.258 . S
O387 Gd336 2.362 . S
O387 Gd337 2.606 . S
O387 C403 1.284 . S
O388 Gd336 2.324 . S
O388 C411 1.254 . S
O389 Gd337 2.429 . S
O389 C411 1.268 . S
O390 Gd337 2.545 . S
O390 C403 1.250 . S
O391 Gd337 2.412 . S
O391 C404 1.252 . S
C392 O381 1.284 . S
C392 O384 1.250 . S
C393 H362 0.929 . S
C393 C378 1.437 . S
C393 C394 1.317 . S
C394 H365 0.930 . S
C394 C370 1.431 . S
C394 C393 1.317 . S
C395 Gd336 2.828 . S
C395 O380 1.258 . S
C395 O385 1.252 . S
C395 C396 1.497 . S
C396 C395 1.497 . S
C396 C397 1.395 . S
C396 C398 1.380 . S
C397 C396 1.395 . S
C397 C400 1.398 . S
C397 H412 0.930 . S
C398 C396 1.380 . S
C398 C399 1.391 . S
C398 H413 0.930 . S
C399 C398 1.391 . S
C399 C401 1.387 . S
C400 C397 1.398 . S
C400 C401 1.380 . S
C400 H414 0.930 . S
C401 C399 1.387 . S
C401 C400 1.380 . S
C401 H415 0.930 . S
C402 O382 1.254 . S
C402 O383 1.268 . S
C403 O387 1.284 . S
C403 O390 1.250 . S
C404 Gd337 2.828 . S
C404 O386 1.258 . S
C404 O391 1.252 . S
C404 C405 1.497 1_554 S
C405 C404 1.497 1_556 S
C405 C406 1.395 . S
C405 C407 1.380 . S
C406 C405 1.395 . S
C406 C409 1.398 . S
C406 H416 0.930 . S
C407 C405 1.380 . S
C407 C408 1.391 . S
C407 H417 0.930 . S
C408 C407 1.391 . S
C408 C410 1.387 . S
C409 C406 1.398 . S
C409 C410 1.380 . S
C409 H418 0.930 . S
C410 C408 1.387 . S
C410 C409 1.380 . S
C410 H419 0.930 . S
C411 O388 1.254 . S
C411 O389 1.268 . S
H412 C397 0.930 . S
H413 C398 0.930 . S
H414 C400 0.930 . S
H415 C401 0.930 . S
H416 C406 0.930 . S
H417 C407 0.930 . S
H418 C409 0.930 . S
H419 C410 0.930 . S
Gd420 N451 2.661 . S
Gd420 N457 2.601 . S
Gd420 O464 2.545 . S
Gd420 O465 2.606 . S
Gd420 O467 2.429 . S
Gd420 O468 2.545 . S
Gd420 O469 2.412 . S
Gd420 O471 2.362 . S
Gd420 O472 2.324 . S
Gd420 C479 2.828 . S
Gd421 N430 2.661 . S
Gd421 N434 2.601 . S
Gd421 O465 2.362 . S
Gd421 O466 2.324 . S
Gd421 O470 2.545 . S
Gd421 O471 2.606 . S
Gd421 O473 2.429 . S
Gd421 O474 2.545 . S
Gd421 O475 2.412 . S
Gd421 C488 2.828 . S
C422 C425 1.417 . S
C422 C427 1.431 . S
C422 C428 1.412 . S
C423 C426 1.437 . S
C423 C427 1.317 . S
C423 H442 0.929 1_655 S
C424 C425 1.426 . S
C424 C426 1.413 . S
C424 N434 1.359 . S
C425 C422 1.417 . S
C425 C424 1.426 . S
C425 N430 1.350 . S
C426 C423 1.437 . S
C426 C424 1.413 . S
C426 C436 1.391 . S
C427 C422 1.431 . S
C427 C423 1.317 . S
C427 H438 0.930 . S
C428 C422 1.412 . S
C428 C429 1.355 . S
C428 H440 0.930 . S
C429 C428 1.355 . S
C429 C431 1.402 . S
C429 H441 0.930 . S
N430 Gd421 2.661 . S
N430 C425 1.350 . S
N430 C431 1.307 . S
C431 C429 1.402 . S
C431 N430 1.307 . S
C431 H432 0.930 . S
H432 C431 0.930 . S
C433 N434 1.334 . S
C433 C435 1.394 . S
C433 H437 0.930 . S
N434 Gd421 2.601 . S
N434 C424 1.359 . S
N434 C433 1.334 . S
C435 C433 1.394 . S
C435 C436 1.359 . S
C435 H447 0.930 . S
C436 C426 1.391 . S
C436 C435 1.359 . S
C436 H448 0.929 1_655 S
H437 C433 0.930 . S
H438 C427 0.930 . S
H439 C456 0.930 . S
H440 C428 0.930 . S
H441 C429 0.930 . S
H442 C423 0.929 1_455 S
H443 C461 0.930 . S
H444 C452 0.930 . S
H445 C453 0.930 . S
H446 C477 0.929 . S
H447 C435 0.930 . S
H448 C436 0.929 1_455 S
H449 C478 0.930 . S
H450 C459 0.930 . S
N451 Gd420 2.661 . S
N451 C455 1.350 . S
N451 C456 1.307 . S
C452 H444 0.930 . S
C452 C453 1.355 . S
C452 C454 1.412 . S
C453 H445 0.930 . S
C453 C452 1.355 . S
C453 C456 1.402 . S
C454 C452 1.412 . S
C454 C455 1.417 . S
C454 C478 1.431 . S
C455 N451 1.350 . S
C455 C454 1.417 . S
C455 C458 1.426 . S
C456 H439 0.930 . S
C456 N451 1.307 . S
C456 C453 1.402 . S
N457 Gd420 2.601 . S
N457 C458 1.359 . S
N457 C461 1.334 . S
C458 C455 1.426 . S
C458 N457 1.359 . S
C458 C462 1.413 . S
C459 H450 0.930 . S
C459 C460 1.359 . S
C459 C461 1.394 . S
C460 C459 1.359 . S
C460 C462 1.391 . S
C460 H463 0.929 . S
C461 H443 0.930 . S
C461 N457 1.334 . S
C461 C459 1.394 . S
C462 C458 1.413 . S
C462 C460 1.391 . S
C462 C477 1.437 . S
H463 C460 0.929 . S
O464 Gd420 2.545 . S
O464 C479 1.258 . S
O465 Gd420 2.606 . S
O465 Gd421 2.362 . S
O465 C476 1.284 . S
O466 Gd421 2.324 . S
O466 C486 1.254 . S
O467 Gd420 2.429 . S
O467 C486 1.268 . S
O468 Gd420 2.545 . S
O468 C476 1.250 . S
O469 Gd420 2.412 . S
O469 C479 1.252 . S
O470 Gd421 2.545 . S
O470 C488 1.258 . S
O471 Gd420 2.362 . S
O471 Gd421 2.606 . S
O471 C487 1.284 . S
O472 Gd420 2.324 . S
O472 C495 1.254 . S
O473 Gd421 2.429 . S
O473 C495 1.268 . S
O474 Gd421 2.545 . S
O474 C487 1.250 . S
O475 Gd421 2.412 . S
O475 C488 1.252 . S
C476 O465 1.284 . S
C476 O468 1.250 . S
C477 H446 0.929 . S
C477 C462 1.437 . S
C477 C478 1.317 . S
C478 H449 0.930 . S
C478 C454 1.431 . S
C478 C477 1.317 . S
C479 Gd420 2.828 . S
C479 O464 1.258 . S
C479 O469 1.252 . S
C479 C480 1.497 . S
C480 C479 1.497 . S
C480 C481 1.395 . S
C480 C482 1.380 . S
C481 C480 1.395 . S
C481 C484 1.398 . S
C481 H496 0.930 . S
C482 C480 1.380 . S
C482 C483 1.391 . S
C482 H497 0.930 . S
C483 C482 1.391 . S
C483 C485 1.387 . S
C484 C481 1.398 . S
C484 C485 1.380 . S
C484 H498 0.930 . S
C485 C483 1.387 . S
C485 C484 1.380 . S
C485 H499 0.930 . S
C486 O466 1.254 . S
C486 O467 1.268 . S
C487 O471 1.284 . S
C487 O474 1.250 . S
C488 Gd421 2.828 . S
C488 O470 1.258 . S
C488 O475 1.252 . S
C488 C489 1.497 1_556 S
C489 C488 1.497 1_554 S
C489 C490 1.395 . S
C489 C491 1.380 . S
C490 C489 1.395 . S
C490 C493 1.398 . S
C490 H500 0.930 . S
C491 C489 1.380 . S
C491 C492 1.391 . S
C491 H501 0.930 . S
C492 C491 1.391 . S
C492 C494 1.387 . S
C493 C490 1.398 . S
C493 C494 1.380 . S
C493 H502 0.930 . S
C494 C492 1.387 . S
C494 C493 1.380 . S
C494 H503 0.930 . S
C495 O472 1.254 . S
C495 O473 1.268 . S
H496 C481 0.930 . S
H497 C482 0.930 . S
H498 C484 0.930 . S
H499 C485 0.930 . S
H500 C490 0.930 . S
H501 C491 0.930 . S
H502 C493 0.930 . S
H503 C494 0.930 . S
Gd504 N535 2.661 . S
Gd504 N541 2.601 . S
Gd504 O548 2.545 . S
Gd504 O549 2.606 . S
Gd504 O551 2.429 . S
Gd504 O552 2.545 . S
Gd504 O553 2.412 . S
Gd504 O555 2.362 1_554 S
Gd504 O556 2.324 . S
Gd504 C563 2.828 . S
Gd505 N514 2.661 . S
Gd505 N518 2.601 . S
Gd505 O549 2.362 1_556 S
Gd505 O550 2.324 . S
Gd505 O554 2.545 . S
Gd505 O555 2.606 . S
Gd505 O557 2.429 . S
Gd505 O558 2.545 . S
Gd505 O559 2.412 . S
Gd505 C572 2.828 . S
C506 C509 1.417 . S
C506 C511 1.431 . S
C506 C512 1.412 . S
C507 C510 1.437 . S
C507 C511 1.317 . S
C507 H526 0.929 . S
C508 C509 1.426 . S
C508 C510 1.413 . S
C508 N518 1.359 . S
C509 C506 1.417 . S
C509 C508 1.426 . S
C509 N514 1.350 . S
C510 C507 1.437 . S
C510 C508 1.413 . S
C510 C520 1.391 . S
C511 C506 1.431 . S
C511 C507 1.317 . S
C511 H522 0.930 . S
C512 C506 1.412 . S
C512 C513 1.355 . S
C512 H524 0.930 . S
C513 C512 1.355 . S
C513 C515 1.402 . S
C513 H525 0.930 . S
N514 Gd505 2.661 . S
N514 C509 1.350 . S
N514 C515 1.307 . S
C515 C513 1.402 . S
C515 N514 1.307 . S
C515 H516 0.930 . S
H516 C515 0.930 . S
C517 N518 1.334 . S
C517 C519 1.394 . S
C517 H521 0.930 . S
N518 Gd505 2.601 . S
N518 C508 1.359 . S
N518 C517 1.334 . S
C519 C517 1.394 . S
C519 C520 1.359 . S
C519 H531 0.930 . S
C520 C510 1.391 . S
C520 C519 1.359 . S
C520 H532 0.929 . S
H521 C517 0.930 . S
H522 C511 0.930 . S
H523 C540 0.930 . S
H524 C512 0.930 . S
H525 C513 0.930 . S
H526 C507 0.929 . S
H527 C545 0.930 . S
H528 C536 0.930 . S
H529 C537 0.930 . S
H530 C561 0.929 . S
H531 C519 0.930 . S
H532 C520 0.929 . S
H533 C562 0.930 . S
H534 C543 0.930 . S
N535 Gd504 2.661 . S
N535 C539 1.350 . S
N535 C540 1.307 . S
C536 H528 0.930 . S
C536 C537 1.355 . S
C536 C538 1.412 . S
C537 H529 0.930 . S
C537 C536 1.355 . S
C537 C540 1.402 . S
C538 C536 1.412 . S
C538 C539 1.417 . S
C538 C562 1.431 . S
C539 N535 1.350 . S
C539 C538 1.417 . S
C539 C542 1.426 . S
C540 H523 0.930 . S
C540 N535 1.307 . S
C540 C537 1.402 . S
N541 Gd504 2.601 . S
N541 C542 1.359 . S
N541 C545 1.334 . S
C542 C539 1.426 . S
C542 N541 1.359 . S
C542 C546 1.413 . S
C543 H534 0.930 . S
C543 C544 1.359 . S
C543 C545 1.394 . S
C544 C543 1.359 . S
C544 C546 1.391 . S
C544 H547 0.929 . S
C545 H527 0.930 . S
C545 N541 1.334 . S
C545 C543 1.394 . S
C546 C542 1.413 . S
C546 C544 1.391 . S
C546 C561 1.437 . S
H547 C544 0.929 . S
O548 Gd504 2.545 . S
O548 C563 1.258 . S
O549 Gd504 2.606 . S
O549 Gd505 2.362 1_554 S
O549 C560 1.284 . S
O550 Gd505 2.324 . S
O550 C570 1.254 . S
O551 Gd504 2.429 . S
O551 C570 1.268 1_554 S
O552 Gd504 2.545 . S
O552 C560 1.250 . S
O553 Gd504 2.412 . S
O553 C563 1.252 . S
O554 Gd505 2.545 . S
O554 C572 1.258 . S
O555 Gd504 2.362 1_556 S
O555 Gd505 2.606 . S
O555 C571 1.284 . S
O556 Gd504 2.324 . S
O556 C579 1.254 . S
O557 Gd505 2.429 . S
O557 C579 1.268 1_556 S
O558 Gd505 2.545 . S
O558 C571 1.250 . S
O559 Gd505 2.412 . S
O559 C572 1.252 . S
C560 O549 1.284 . S
C560 O552 1.250 . S
C561 H530 0.929 . S
C561 C546 1.437 . S
C561 C562 1.317 . S
C562 H533 0.930 . S
C562 C538 1.431 . S
C562 C561 1.317 . S
C563 Gd504 2.828 . S
C563 O548 1.258 . S
C563 O553 1.252 . S
C563 C564 1.497 . S
C564 C563 1.497 . S
C564 C565 1.395 . S
C564 C566 1.380 . S
C565 C564 1.395 . S
C565 C568 1.398 . S
C565 H580 0.930 . S
C566 C564 1.380 . S
C566 C567 1.391 . S
C566 H581 0.930 . S
C567 C566 1.391 . S
C567 C569 1.387 . S
C568 C565 1.398 . S
C568 C569 1.380 . S
C568 H582 0.930 . S
C569 C567 1.387 . S
C569 C568 1.380 . S
C569 H583 0.930 . S
C570 O550 1.254 . S
C570 O551 1.268 1_556 S
C571 O555 1.284 . S
C571 O558 1.250 . S
C572 Gd505 2.828 . S
C572 O554 1.258 . S
C572 O559 1.252 . S
C572 C573 1.497 . S
C573 C572 1.497 . S
C573 C574 1.395 . S
C573 C575 1.380 . S
C574 C573 1.395 . S
C574 C577 1.398 . S
C574 H584 0.930 . S
C575 C573 1.380 . S
C575 C576 1.391 . S
C575 H585 0.930 . S
C576 C575 1.391 . S
C576 C578 1.387 . S
C577 C574 1.398 . S
C577 C578 1.380 . S
C577 H586 0.930 . S
C578 C576 1.387 . S
C578 C577 1.380 . S
C578 H587 0.930 . S
C579 O556 1.254 . S
C579 O557 1.268 1_554 S
H580 C565 0.930 . S
H581 C566 0.930 . S
H582 C568 0.930 . S
H583 C569 0.930 . S
H584 C574 0.930 . S
H585 C575 0.930 . S
H586 C577 0.930 . S
H587 C578 0.930 . S
Gd588 N619 2.653 1_455 S
Gd588 N625 2.601 1_455 S
Gd588 O632 2.549 . S
Gd588 O633 2.609 . S
Gd588 O635 2.435 . S
Gd588 O636 2.550 . S
Gd588 O637 2.410 1_455 S
Gd588 O639 2.359 1_455 S
Gd588 O640 2.318 1_455 S
Gd588 C647 2.830 . S
Gd589 N598 2.658 1_655 S
Gd589 N602 2.601 1_655 S
Gd589 O633 2.361 1_655 S
Gd589 O634 2.322 1_655 S
Gd589 O638 2.546 . S
Gd589 O639 2.607 . S
Gd589 O641 2.431 . S
Gd589 O642 2.547 . S
Gd589 O643 2.412 1_655 S
Gd589 C656 2.829 . S
C590 C593 1.417 . S
C590 C595 1.431 . S
C590 C596 1.412 . S
C591 C594 1.437 . S
C591 C595 1.317 . S
C591 H610 0.929 . S
C592 C593 1.426 . S
C592 C594 1.413 . S
C592 N602 1.359 . S
C593 C590 1.417 . S
C593 C592 1.426 . S
C593 N598 1.350 . S
C594 C591 1.437 . S
C594 C592 1.413 . S
C594 C604 1.391 . S
C595 C590 1.431 . S
C595 C591 1.317 . S
C595 H606 0.930 . S
C596 C590 1.412 . S
C596 C597 1.355 . S
C596 H608 0.930 . S
C597 C596 1.355 . S
C597 C599 1.402 . S
C597 H609 0.930 . S
N598 Gd589 2.658 1_455 S
N598 C593 1.350 . S
N598 C599 1.307 . S
C599 C597 1.402 . S
C599 N598 1.307 . S
C599 H600 0.930 . S
H600 C599 0.930 . S
C601 N602 1.334 1_655 S
C601 C603 1.394 . S
C601 H605 0.930 . S
N602 Gd589 2.601 1_455 S
N602 C592 1.359 . S
N602 C601 1.334 1_455 S
C603 C601 1.394 . S
C603 C604 1.359 1_655 S
C603 H615 0.930 . S
C604 C594 1.391 . S
C604 C603 1.359 1_455 S
C604 H616 0.929 . S
H605 C601 0.930 . S
H606 C595 0.930 . S
H607 C624 0.930 . S
H608 C596 0.930 . S
H609 C597 0.930 . S
H610 C591 0.929 . S
H611 C629 0.930 . S
H612 C620 0.930 . S
H613 C621 0.930 . S
H614 C645 0.929 . S
H615 C603 0.930 . S
H616 C604 0.929 . S
H617 C646 0.930 . S
H618 C627 0.930 . S
N619 Gd588 2.653 1_655 S
N619 C623 1.350 . S
N619 C624 1.307 . S
C620 H612 0.930 . S
C620 C621 1.355 . S
C620 C622 1.412 . S
C621 H613 0.930 . S
C621 C620 1.355 . S
C621 C624 1.402 . S
C622 C620 1.412 . S
C622 C623 1.417 . S
C622 C646 1.431 . S
C623 N619 1.350 . S
C623 C622 1.417 . S
C623 C626 1.426 . S
C624 H607 0.930 . S
C624 N619 1.307 . S
C624 C621 1.402 . S
N625 Gd588 2.601 1_655 S
N625 C626 1.359 . S
N625 C629 1.334 1_655 S
C626 C623 1.426 . S
C626 N625 1.359 . S
C626 C630 1.413 . S
C627 H618 0.930 . S
C627 C628 1.359 1_455 S
C627 C629 1.394 . S
C628 C627 1.359 1_655 S
C628 C630 1.391 . S
C628 H631 0.929 . S
C629 H611 0.930 . S
C629 N625 1.334 1_455 S
C629 C627 1.394 . S
C630 C626 1.413 . S
C630 C628 1.391 . S
C630 C645 1.437 . S
H631 C628 0.929 . S
O632 Gd588 2.549 . S
O632 C647 1.258 . S
O633 Gd588 2.609 . S
O633 Gd589 2.361 1_455 S
O633 C644 1.284 . S
O634 Gd589 2.322 1_455 S
O634 C654 1.254 . S
O635 Gd588 2.435 . S
O635 C654 1.268 . S
O636 Gd588 2.550 . S
O636 C644 1.250 . S
O637 Gd588 2.410 1_655 S
O637 C647 1.252 1_655 S
O638 Gd589 2.546 . S
O638 C656 1.258 . S
O639 Gd588 2.359 1_655 S
O639 Gd589 2.607 . S
O639 C655 1.284 . S
O640 Gd588 2.318 1_655 S
O640 C663 1.254 . S
O641 Gd589 2.431 . S
O641 C663 1.268 . S
O642 Gd589 2.547 . S
O642 C655 1.250 . S
O643 Gd589 2.412 1_455 S
O643 C656 1.252 1_455 S
C644 O633 1.284 . S
C644 O636 1.250 . S
C645 H614 0.929 . S
C645 C630 1.437 . S
C645 C646 1.317 . S
C646 H617 0.930 . S
C646 C622 1.431 . S
C646 C645 1.317 . S
C647 Gd588 2.830 . S
C647 O632 1.258 . S
C647 O637 1.252 1_455 S
C647 C648 1.497 . S
C648 C647 1.497 . S
C648 C649 1.395 . S
C648 C650 1.380 . S
C649 C648 1.395 . S
C649 C652 1.398 . S
C649 H664 0.930 . S
C650 C648 1.380 . S
C650 C651 1.391 . S
C650 H665 0.930 1_455 S
C651 C650 1.391 . S
C651 C653 1.387 . S
C652 C649 1.398 . S
C652 C653 1.380 . S
C652 H666 0.930 . S
C653 C651 1.387 . S
C653 C652 1.380 . S
C653 H667 0.930 . S
C654 O634 1.254 . S
C654 O635 1.268 . S
C655 O639 1.284 . S
C655 O642 1.250 . S
C656 Gd589 2.829 . S
C656 O638 1.258 . S
C656 O643 1.252 1_655 S
C656 C657 1.497 . S
C657 C656 1.497 . S
C657 C658 1.395 . S
C657 C659 1.380 . S
C658 C657 1.395 . S
C658 C661 1.398 . S
C658 H668 0.930 . S
C659 C657 1.380 . S
C659 C660 1.391 . S
C659 H669 0.930 1_655 S
C660 C659 1.391 . S
C660 C662 1.387 . S
C661 C658 1.398 . S
C661 C662 1.380 . S
C661 H670 0.930 . S
C662 C660 1.387 . S
C662 C661 1.380 . S
C662 H671 0.930 . S
C663 O640 1.254 . S
C663 O641 1.268 . S
H664 C649 0.930 . S
H665 C650 0.930 1_655 S
H666 C652 0.930 . S
H667 C653 0.930 . S
H668 C658 0.930 . S
H669 C659 0.930 1_455 S
H670 C661 0.930 . S
H671 C662 0.930 . S
C672 C673 1.387 . S
C672 H676 0.950 . S
C672 C681 1.390 . S
C673 C672 1.387 . S
C673 C675 1.387 . S
H674 C681 0.950 . S
C675 C673 1.387 . S
C675 C677 1.390 . S
C675 H679 0.950 . S
H676 C672 0.950 . S
C677 C675 1.390 . S
C677 C678 1.387 . S
C677 H680 0.950 . S
C678 C677 1.387 . S
C678 C681 1.387 . S
H679 C675 0.950 . S
H680 C677 0.950 . S
C681 C672 1.390 . S
C681 H674 0.950 . S
C681 C678 1.387 . S
C682 C683 1.387 . S
C682 H686 0.950 . S
C682 C691 1.390 . S
C683 C682 1.387 . S
C683 C685 1.387 . S
H684 C691 0.950 . S
C685 C683 1.387 . S
C685 C687 1.390 . S
C685 H689 0.950 . S
H686 C682 0.950 . S
C687 C685 1.390 . S
C687 C688 1.387 . S
C687 H690 0.950 . S
C688 C687 1.387 . S
C688 C691 1.387 . S
H689 C685 0.950 . S
H690 C687 0.950 . S
C691 C682 1.390 . S
C691 H684 0.950 . S
C691 C688 1.387 . S
C692 C693 1.387 . S
C692 H696 0.950 . S
C692 C701 1.390 . S
C693 C692 1.387 . S
C693 C695 1.387 . S
H694 C701 0.950 . S
C695 C693 1.387 . S
C695 C697 1.390 . S
C695 H699 0.950 . S
H696 C692 0.950 . S
C697 C695 1.390 . S
C697 C698 1.387 . S
C697 H700 0.950 . S
C698 C697 1.387 . S
C698 C701 1.387 . S
H699 C695 0.950 . S
H700 C697 0.950 . S
C701 C692 1.390 . S
C701 H694 0.950 . S
C701 C698 1.387 . S
C702 C703 1.387 . S
C702 H706 0.950 . S
C702 C711 1.390 . S
C703 C702 1.387 . S
C703 C705 1.387 . S
H704 C711 0.950 . S
C705 C703 1.387 . S
C705 C707 1.390 . S
C705 H709 0.950 . S
H706 C702 0.950 . S
C707 C705 1.390 . S
C707 C708 1.387 . S
C707 H710 0.950 . S
C708 C707 1.387 . S
C708 C711 1.387 . S
H709 C705 0.950 . S
H710 C707 0.950 . S
C711 C702 1.390 . S
C711 H704 0.950 . S
C711 C708 1.387 . S
C712 C713 1.387 . S
C712 H716 0.950 . S
C712 C721 1.390 . S
C713 C712 1.387 . S
C713 C715 1.387 . S
H714 C721 0.950 . S
C715 C713 1.387 . S
C715 C717 1.390 . S
C715 H719 0.950 . S
H716 C712 0.950 . S
C717 C715 1.390 . S
C717 C718 1.387 . S
C717 H720 0.950 . S
C718 C717 1.387 . S
C718 C721 1.387 . S
H719 C715 0.950 . S
H720 C717 0.950 . S
C721 C712 1.390 . S
C721 H714 0.950 . S
C721 C718 1.387 . S
C722 C723 1.387 . S
C722 H726 0.950 . S
C722 C731 1.390 . S
C723 C722 1.387 . S
C723 C725 1.387 . S
H724 C731 0.950 . S
C725 C723 1.387 . S
C725 C727 1.390 . S
C725 H729 0.950 . S
H726 C722 0.950 . S
C727 C725 1.390 . S
C727 C728 1.387 . S
C727 H730 0.950 . S
C728 C727 1.387 . S
C728 C731 1.387 . S
H729 C725 0.950 . S
H730 C727 0.950 . S
C731 C722 1.390 . S
C731 H724 0.950 . S
C731 C728 1.387 . S
C732 C733 1.387 . S
C732 H736 0.950 . S
C732 C741 1.390 . S
C733 C732 1.387 . S
C733 C735 1.387 . S
H734 C741 0.950 . S
C735 C733 1.387 . S
C735 C737 1.390 . S
C735 H739 0.950 . S
H736 C732 0.950 . S
C737 C735 1.390 . S
C737 C738 1.387 . S
C737 H740 0.950 . S
C738 C737 1.387 . S
C738 C741 1.387 . S
H739 C735 0.950 . S
H740 C737 0.950 . S
C741 C732 1.390 . S
C741 H734 0.950 . S
C741 C738 1.387 . S
C742 C743 1.387 . S
C742 H746 0.950 . S
C742 C751 1.390 . S
C743 C742 1.387 . S
C743 C745 1.387 . S
H744 C751 0.950 . S
C745 C743 1.387 . S
C745 C747 1.390 . S
C745 H749 0.950 . S
H746 C742 0.950 . S
C747 C745 1.390 . S
C747 C748 1.387 . S
C747 H750 0.950 . S
C748 C747 1.387 . S
C748 C751 1.387 . S
H749 C745 0.950 . S
H750 C747 0.950 . S
C751 C742 1.390 . S
C751 H744 0.950 . S
C751 C748 1.387 . S
C752 C753 1.387 . S
C752 H756 0.950 . S
C752 C761 1.390 . S
C753 C752 1.387 . S
C753 C755 1.387 . S
H754 C761 0.950 . S
C755 C753 1.387 . S
C755 C757 1.390 . S
C755 H759 0.950 . S
H756 C752 0.950 . S
C757 C755 1.390 . S
C757 C758 1.387 . S
C757 H760 0.950 . S
C758 C757 1.387 . S
C758 C761 1.387 . S
H759 C755 0.950 . S
H760 C757 0.950 . S
C761 C752 1.390 . S
C761 H754 0.950 . S
C761 C758 1.387 . S
C762 C763 1.387 . S
C762 H766 0.950 . S
C762 C771 1.390 . S
C763 C762 1.387 . S
C763 C765 1.387 . S
H764 C771 0.950 . S
C765 C763 1.387 . S
C765 C767 1.390 . S
C765 H769 0.950 . S
H766 C762 0.950 . S
C767 C765 1.390 . S
C767 C768 1.387 . S
C767 H770 0.950 . S
C768 C767 1.387 . S
C768 C771 1.387 . S
H769 C765 0.950 . S
H770 C767 0.950 . S
C771 C762 1.390 . S
C771 H764 0.950 . S
C771 C768 1.387 . S
C772 C773 1.387 . S
C772 H776 0.950 . S
C772 C781 1.390 . S
C773 C772 1.387 . S
C773 C775 1.387 . S
H774 C781 0.950 . S
C775 C773 1.387 . S
C775 C777 1.390 . S
C775 H779 0.950 . S
H776 C772 0.950 . S
C777 C775 1.390 . S
C777 C778 1.387 . S
C777 H780 0.950 . S
C778 C777 1.387 . S
C778 C781 1.387 . S
H779 C775 0.950 . S
H780 C777 0.950 . S
C781 C772 1.390 . S
C781 H774 0.950 . S
C781 C778 1.387 . S
C782 C783 1.387 . S
C782 H786 0.950 . S
C782 C791 1.390 . S
C783 C782 1.387 . S
C783 C785 1.387 . S
H784 C791 0.950 . S
C785 C783 1.387 . S
C785 C787 1.390 . S
C785 H789 0.950 . S
H786 C782 0.950 . S
C787 C785 1.390 . S
C787 C788 1.387 . S
C787 H790 0.950 . S
C788 C787 1.387 . S
C788 C791 1.387 . S
H789 C785 0.950 . S
H790 C787 0.950 . S
C791 C782 1.390 . S
C791 H784 0.950 . S
C791 C788 1.387 . S
C792 C793 1.387 . S
C792 H796 0.950 . S
C792 C801 1.390 . S
C793 C792 1.387 . S
C793 C795 1.387 . S
H794 C801 0.950 . S
C795 C793 1.387 . S
C795 C797 1.390 . S
C795 H799 0.950 . S
H796 C792 0.950 . S
C797 C795 1.390 . S
C797 C798 1.387 . S
C797 H800 0.950 . S
C798 C797 1.387 . S
C798 C801 1.387 . S
H799 C795 0.950 . S
H800 C797 0.950 . S
C801 C792 1.390 . S
C801 H794 0.950 . S
C801 C798 1.387 . S
C802 C803 1.387 . S
C802 H806 0.950 . S
C802 C811 1.390 . S
C803 C802 1.387 . S
C803 C805 1.387 . S
H804 C811 0.950 . S
C805 C803 1.387 . S
C805 C807 1.390 . S
C805 H809 0.950 . S
H806 C802 0.950 . S
C807 C805 1.390 . S
C807 C808 1.387 . S
C807 H810 0.950 . S
C808 C807 1.387 . S
C808 C811 1.387 . S
H809 C805 0.950 . S
H810 C807 0.950 . S
C811 C802 1.390 . S
C811 H804 0.950 . S
C811 C808 1.387 . S
C812 C813 1.387 . S
C812 H816 0.950 . S
C812 C821 1.390 . S
C813 C812 1.387 . S
C813 C815 1.387 . S
H814 C821 0.950 . S
C815 C813 1.387 . S
C815 C817 1.390 . S
C815 H819 0.950 . S
H816 C812 0.950 . S
C817 C815 1.390 . S
C817 C818 1.387 . S
C817 H820 0.950 . S
C818 C817 1.387 . S
C818 C821 1.387 . S
H819 C815 0.950 . S
H820 C817 0.950 . S
C821 C812 1.390 . S
C821 H814 0.950 . S
C821 C818 1.387 . S
C822 C823 1.387 . S
C822 H826 0.950 . S
C822 C831 1.390 . S
C823 C822 1.387 . S
C823 C825 1.387 . S
H824 C831 0.950 . S
C825 C823 1.387 . S
C825 C827 1.390 . S
C825 H829 0.950 . S
H826 C822 0.950 . S
C827 C825 1.390 . S
C827 C828 1.387 . S
C827 H830 0.950 . S
C828 C827 1.387 . S
C828 C831 1.387 . S
H829 C825 0.950 . S
H830 C827 0.950 . S
C831 C822 1.390 . S
C831 H824 0.950 . S
C831 C828 1.387 . S
C832 C833 1.387 1_465 S
C832 H836 0.950 . S
C832 C841 1.390 1_556 S
C833 C832 1.387 1_645 S
C833 C835 1.387 . S
H834 C841 0.950 . S
C835 C833 1.387 . S
C835 C837 1.390 1_556 S
C835 H839 0.950 . S
H836 C832 0.950 . S
C837 C835 1.390 1_554 S
C837 C838 1.387 1_645 S
C837 H840 0.950 . S
C838 C837 1.387 1_465 S
C838 C841 1.387 . S
H839 C835 0.950 . S
H840 C837 0.950 . S
C841 C832 1.390 1_554 S
C841 H834 0.950 . S
C841 C838 1.387 . S
C842 C843 1.387 . S
C842 H846 0.950 . S
C842 C851 1.390 . S
C843 C842 1.387 . S
C843 C845 1.387 . S
H844 C851 0.950 . S
C845 C843 1.387 . S
C845 C847 1.390 . S
C845 H849 0.950 . S
H846 C842 0.950 . S
C847 C845 1.390 . S
C847 C848 1.387 . S
C847 H850 0.950 . S
C848 C847 1.387 . S
C848 C851 1.387 . S
H849 C845 0.950 . S
H850 C847 0.950 . S
C851 C842 1.390 . S
C851 H844 0.950 . S
C851 C848 1.387 . S
C852 C853 1.387 . S
C852 H856 0.950 . S
C852 C861 1.390 . S
C853 C852 1.387 . S
C853 C855 1.387 1_545 S
H854 C861 0.950 . S
C855 C853 1.387 1_565 S
C855 C857 1.390 . S
C855 H859 0.950 . S
H856 C852 0.950 . S
C857 C855 1.390 . S
C857 C858 1.387 . S
C857 H860 0.950 . S
C858 C857 1.387 . S
C858 C861 1.387 1_565 S
H859 C855 0.950 . S
H860 C857 0.950 . S
C861 C852 1.390 . S
C861 H854 0.950 . S
C861 C858 1.387 1_545 S
C862 C863 1.387 . S
C862 H866 0.950 . S
C862 C871 1.390 . S
C863 C862 1.387 . S
C863 C865 1.387 . S
H864 C871 0.950 . S
C865 C863 1.387 . S
C865 C867 1.390 . S
C865 H869 0.950 . S
H866 C862 0.950 . S
C867 C865 1.390 . S
C867 C868 1.387 . S
C867 H870 0.950 . S
C868 C867 1.387 . S
C868 C871 1.387 . S
H869 C865 0.950 . S
H870 C867 0.950 . S
C871 C862 1.390 . S
C871 H864 0.950 . S
C871 C868 1.387 . S
C872 C873 1.387 . S
C872 H876 0.950 . S
C872 C881 1.390 . S
C873 C872 1.387 . S
C873 C875 1.387 . S
H874 C881 0.950 . S
C875 C873 1.387 . S
C875 C877 1.390 . S
C875 H879 0.950 . S
H876 C872 0.950 . S
C877 C875 1.390 . S
C877 C878 1.387 . S
C877 H880 0.950 . S
C878 C877 1.387 . S
C878 C881 1.387 . S
H879 C875 0.950 . S
H880 C877 0.950 . S
C881 C872 1.390 . S
C881 H874 0.950 . S
C881 C878 1.387 . S
C882 C883 1.387 . S
C882 H886 0.950 . S
C882 C891 1.390 . S
C883 C882 1.387 . S
C883 C885 1.387 . S
H884 C891 0.950 . S
C885 C883 1.387 . S
C885 C887 1.390 . S
C885 H889 0.950 . S
H886 C882 0.950 . S
C887 C885 1.390 . S
C887 C888 1.387 . S
C887 H890 0.950 . S
C888 C887 1.387 . S
C888 C891 1.387 . S
H889 C885 0.950 . S
H890 C887 0.950 . S
C891 C882 1.390 . S
C891 H884 0.950 . S
C891 C888 1.387 . S
C892 C893 1.387 . S
C892 H896 0.950 . S
C892 C901 1.390 . S
C893 C892 1.387 . S
C893 C895 1.387 . S
H894 C901 0.950 . S
C895 C893 1.387 . S
C895 C897 1.390 . S
C895 H899 0.950 . S
H896 C892 0.950 . S
C897 C895 1.390 . S
C897 C898 1.387 . S
C897 H900 0.950 . S
C898 C897 1.387 . S
C898 C901 1.387 . S
H899 C895 0.950 . S
H900 C897 0.950 . S
C901 C892 1.390 . S
C901 H894 0.950 . S
C901 C898 1.387 . S
C902 C903 1.387 . S
C902 H906 0.950 . S
C902 C911 1.390 1_556 S
C903 C902 1.387 . S
C903 C905 1.387 1_655 S
H904 C911 0.950 . S
C905 C903 1.387 1_455 S
C905 C907 1.390 1_556 S
C905 H909 0.950 . S
H906 C902 0.950 . S
C907 C905 1.390 1_554 S
C907 C908 1.387 . S
C907 H910 0.950 . S
C908 C907 1.387 . S
C908 C911 1.387 1_455 S
H909 C905 0.950 . S
H910 C907 0.950 . S
C911 C902 1.390 1_554 S
C911 H904 0.950 . S
C911 C908 1.387 1_655 S
C673 C67 1.565 . S
C678 C319 1.559 . S
C683 C75 1.474 . S
C688 C151 1.432 . S
C693 C159 1.347 . S
C698 C243 1.348 . S
C703 C235 1.434 . S
C708 C327 1.470 . S
C713 C56 1.564 . S
C718 C476 1.569 . S
C723 C66 1.472 . S
C728 C392 1.436 . S
C733 C402 1.346 . S
C738 C234 1.342 . S
C743 C486 1.474 . S
C748 C224 1.436 . S
C753 C571 1.564 . S
C758 C487 1.566 . S
C763 C403 1.435 . S
C768 C579 1.471 . S
C773 C663 1.345 . S
C778 C411 1.348 . S
C783 C495 1.474 . S
C788 C655 1.435 . S
C793 C308 1.565 . S
C798 C560 1.562 . S
C803 C570 1.472 . S
C808 C140 1.436 . S
C813 C150 1.345 . S
C818 C654 1.346 . S
C823 C318 1.474 . S
C828 C644 1.431 . S
C833 C63 1.381 . S
C838 C72 1.381 . S
C843 C156 1.363 . S
C848 C147 1.363 . S
C853 C231 1.365 . S
C858 C240 1.365 . S
C863 C315 1.378 . S
C868 C324 1.378 . S
C873 C408 1.367 . S
C878 C399 1.367 . S
C883 C483 1.381 . S
C888 C492 1.381 . S
C893 C576 1.379 . S
C898 C567 1.379 . S
C903 C660 1.364 . S
C908 C651 1.364 . S
