# Generated by pormake.
# Topology irl, (4)-cn, num edge types: 1
# Building blocks:
#     Node 0, Type 0, BuildingBlock: QUQFOY_clean_sbu_3, # of connection points: 4
#     Node 1, Type 0, BuildingBlock: QUQFOY_clean_sbu_3, # of connection points: 4
#     Node 2, Type 0, BuildingBlock: QUQFOY_clean_sbu_3, # of connection points: 4
#     Node 3, Type 0, BuildingBlock: QUQFOY_clean_sbu_3, # of connection points: 4
#     Node 4, Type 0, BuildingBlock: QUQFOY_clean_sbu_3, # of connection points: 4
#     Node 5, Type 0, BuildingBlock: QUQFOY_clean_sbu_3, # of connection points: 4
#     Node 6, Type 0, BuildingBlock: QUQFOY_clean_sbu_3, # of connection points: 4
#     Node 7, Type 0, BuildingBlock: QUQFOY_clean_sbu_3, # of connection points: 4
#     Edge 8, Type (0, 0), BuildingBlock: OJICUG_clean_linker_0, # of connection points: 2
#     Edge 9, Type (0, 0), BuildingBlock: OJICUG_clean_linker_0, # of connection points: 2
#     Edge 10, Type (0, 0), BuildingBlock: OJICUG_clean_linker_0, # of connection points: 2
#     Edge 11, Type (0, 0), BuildingBlock: OJICUG_clean_linker_0, # of connection points: 2
#     Edge 12, Type (0, 0), BuildingBlock: OJICUG_clean_linker_0, # of connection points: 2
#     Edge 13, Type (0, 0), BuildingBlock: OJICUG_clean_linker_0, # of connection points: 2
#     Edge 14, Type (0, 0), BuildingBlock: OJICUG_clean_linker_0, # of connection points: 2
#     Edge 15, Type (0, 0), BuildingBlock: OJICUG_clean_linker_0, # of connection points: 2
#     Edge 16, Type (0, 0), BuildingBlock: OJICUG_clean_linker_0, # of connection points: 2
#     Edge 17, Type (0, 0), BuildingBlock: OJICUG_clean_linker_0, # of connection points: 2
#     Edge 18, Type (0, 0), BuildingBlock: OJICUG_clean_linker_0, # of connection points: 2
#     Edge 19, Type (0, 0), BuildingBlock: OJICUG_clean_linker_0, # of connection points: 2
#     Edge 20, Type (0, 0), BuildingBlock: OJICUG_clean_linker_0, # of connection points: 2
#     Edge 21, Type (0, 0), BuildingBlock: OJICUG_clean_linker_0, # of connection points: 2
#     Edge 22, Type (0, 0), BuildingBlock: OJICUG_clean_linker_0, # of connection points: 2
#     Edge 23, Type (0, 0), BuildingBlock: OJICUG_clean_linker_0, # of connection points: 2
# Relax obj value: 0.061
# Max RMSD: 0.123
# Mean RMSD: 0.123
data_MOF--net-irl--node1-QUQFOY_clean_sbu_3--edge1-OJICUG_clean_linker_0
_symmetry_space_group_name_H-M    P1
_symmetry_Int_Tables_number       1
_symmetry_cell_setting            triclinic
loop_
_symmetry_equiv_pos_as_xyz
'x, y, z'
_cell_length_a     28.929616
_cell_length_b     31.954377
_cell_length_c     21.73253
_cell_angle_alpha  88.253359
_cell_angle_beta   89.99212
_cell_angle_gamma 90.001871
loop_
_atom_site_label
_atom_site_type_symbol
_atom_site_fract_x
_atom_site_fract_y
_atom_site_fract_z
_atom_type_partial_charge
C0 C -0.05182 0.24093 0.85766 0.0
O1 O 0.9101 0.24104 0.8866 0.0
Cd2 Cd 0.90537 0.20747 -0.01255 0.0
O3 O -0.01556 0.22726 0.88429 0.0
Cd4 Cd 0.00953 0.20168 -0.01386 0.0
C5 C -0.04606 0.11145 0.9611 0.0
O6 O -0.04133 0.23376 0.06261 0.0
O7 O -0.00482 0.1767 0.08931 0.0
O8 O 0.06511 0.25794 -0.01192 0.0
C9 C -0.02967 0.20732 0.10479 0.0
O10 O 0.91782 0.13262 -0.02732 0.0
C11 C 0.10069 0.23477 -0.00992 0.0
O12 O -0.00646 0.12904 0.95916 0.0
O13 O 0.09404 0.19538 -0.00965 0.0
C14 C -0.05056 0.80173 0.87471 0.0
O15 O -0.01378 0.80319 0.90636 0.0
Cd16 Cd -0.01612 0.83539 0.00594 0.0
O17 O 0.91156 0.81425 0.89708 0.0
Cd18 Cd 0.87799 0.84082 -0.00927 0.0
C19 C 0.93653 0.93126 0.96638 0.0
O20 O 0.92416 0.80892 0.0749 0.0
O21 O 0.88231 0.86335 0.09432 0.0
O22 O 0.82237 0.78459 -0.01236 0.0
C23 C 0.9085 0.83412 0.11415 0.0
O24 O -0.02831 0.91012 -0.01592 0.0
C25 C 0.78704 0.80783 -0.01857 0.0
O26 O 0.89723 0.91362 0.96067 0.0
O27 O 0.7938 0.84721 -0.01994 0.0
C28 C -0.05197 0.8015 0.61249 0.0
O29 O 0.90995 0.8014 0.58356 0.0
Cd30 Cd 0.90528 0.83502 0.48269 0.0
O31 O -0.01573 0.81525 0.58591 0.0
Cd32 Cd 0.00944 0.84108 0.48429 0.0
C33 C -0.04654 0.93116 0.50919 0.0
O34 O -0.04118 0.80891 0.40763 0.0
O35 O -0.00466 0.866 0.38108 0.0
O36 O 0.06526 0.78503 0.48251 0.0
C37 C -0.02945 0.83536 0.36551 0.0
O38 O 0.91742 0.90992 0.49748 0.0
C39 C 0.10074 0.80833 0.48081 0.0
O40 O -0.0069 0.91364 0.51127 0.0
O41 O 0.09392 0.84769 0.48057 0.0
C42 C -0.05072 0.24066 0.59537 0.0
O43 O -0.01399 0.23922 0.56359 0.0
Cd44 Cd -0.01657 0.20713 0.46394 0.0
O45 O 0.91134 0.22822 0.57308 0.0
Cd46 Cd 0.87743 0.20184 0.47949 0.0
C47 C 0.93586 0.11132 0.50362 0.0
O48 O 0.92359 0.23373 0.3953 0.0
O49 O 0.88152 0.17946 0.37576 0.0
O50 O 0.82204 0.25824 0.48304 0.0
C51 C 0.90784 0.20862 0.35599 0.0
O52 O -0.02897 0.13245 0.48587 0.0
C53 C 0.78663 0.23512 0.48935 0.0
O54 O 0.89658 0.12899 0.50938 0.0
O55 O 0.79323 0.19571 0.49052 0.0
C56 C 0.44395 0.7311 0.8539 0.0
O57 O 0.40634 0.73083 0.88411 0.0
Cd58 Cd 0.40241 0.70983 -0.00777 0.0
O59 O 0.48189 0.72242 0.88086 0.0
Cd60 Cd 0.5125 0.70495 -0.01648 0.0
C61 C 0.45257 0.61264 -0.01388 0.0
O62 O 0.46105 0.74446 0.05023 0.0
O63 O 0.51021 0.70156 0.09368 0.0
O64 O 0.56893 0.75939 0.96381 0.0
C65 C 0.47868 0.72868 0.09934 0.0
O66 O 0.41661 0.63477 -0.00571 0.0
C67 C 0.60414 0.73616 -0.02843 0.0
O68 O 0.49208 0.62985 -0.0219 0.0
O69 O 0.59683 0.69743 -0.01682 0.0
C70 C 0.44378 0.31289 0.88464 0.0
O71 O 0.48132 0.31302 0.91497 0.0
Cd72 Cd 0.48435 0.33513 0.02071 0.0
O73 O 0.40585 0.32181 0.91065 0.0
Cd74 Cd 0.37428 0.33952 0.01107 0.0
C75 C 0.43371 0.43195 0.00145 0.0
O76 O 0.42558 0.30068 0.08199 0.0
O77 O 0.37614 0.34357 0.12106 0.0
O78 O 0.31899 0.2844 -0.005 0.0
C79 C 0.40776 0.31657 0.1295 0.0
O80 O 0.46975 0.41012 0.01254 0.0
C81 C 0.28332 0.30722 -0.0007 0.0
O82 O 0.39422 0.41449 -0.00388 0.0
O83 O 0.28984 0.34601 0.008 0.0
C84 C 0.44415 0.31309 0.61961 0.0
O85 O 0.40653 0.31337 0.58944 0.0
Cd86 Cd 0.40247 0.33436 0.48135 0.0
O87 O 0.48209 0.32168 0.59259 0.0
Cd88 Cd 0.51254 0.33897 0.4897 0.0
C89 C 0.45296 0.43143 0.48736 0.0
O90 O 0.46084 0.29964 0.42306 0.0
O91 O 0.50993 0.34259 0.37955 0.0
O92 O 0.56881 0.28431 0.50893 0.0
C93 C 0.47838 0.31548 0.37392 0.0
O94 O 0.41693 0.40937 0.47929 0.0
C95 C 0.60409 0.30742 0.50098 0.0
O96 O 0.49245 0.41414 0.49525 0.0
O97 O 0.59691 0.3462 0.48955 0.0
C98 C 0.44388 0.73136 0.58891 0.0
O99 O 0.48148 0.73121 0.5587 0.0
Cd100 Cd 0.48477 0.70901 0.45303 0.0
O101 O 0.40602 0.72237 0.56281 0.0
Cd102 Cd 0.37484 0.70452 0.46226 0.0
C103 C 0.43433 0.61214 0.47215 0.0
O104 O 0.42617 0.74345 0.3914 0.0
O105 O 0.37696 0.70033 0.35235 0.0
O106 O 0.31928 0.75947 0.47788 0.0
C107 C 0.40844 0.72747 0.34391 0.0
O108 O 0.47039 0.63397 0.46112 0.0
C109 C 0.28373 0.73652 0.47339 0.0
O110 O 0.39484 0.62959 0.47738 0.0
O111 O 0.29045 0.69775 0.46485 0.0
C112 C 0.90177 1.0029 0.95181 0.0
C113 C 0.94111 0.97727 0.95693 0.0
H114 H 0.87496 0.06532 0.94894 0.0
C115 C -0.01499 0.99629 0.95759 0.0
H116 H 0.86744 0.98933 0.95097 0.0
C117 C -0.01067 0.0399 0.9561 0.0
C118 C -0.05013 0.06552 0.95441 0.0
H119 H 0.01608 0.9775 0.961 0.0
H120 H 0.0236 0.05345 0.95868 0.0
C121 C 0.90608 0.04652 0.95081 0.0
C122 C 0.90546 0.99604 0.51912 0.0
C123 C -0.05071 0.97708 0.51581 0.0
H124 H 0.86676 0.0532 0.51865 0.0
C125 C -0.01128 1.00274 0.51433 0.0
H126 H 0.87436 0.97722 0.52082 0.0
C127 C -0.01564 0.04635 0.51275 0.0
C128 C 0.94044 0.06533 0.51313 0.0
H129 H 0.02302 0.98923 0.51197 0.0
H130 H 0.01543 0.06516 0.50951 0.0
C131 C 0.90111 0.03966 0.51805 0.0
C132 C 0.40385 0.54759 -0.01112 0.0
C133 C 0.44792 0.56635 -0.01263 0.0
H134 H 0.36469 0.49069 -0.00587 0.0
C135 C 0.48713 0.54045 -0.01122 0.0
H136 H 0.37282 0.56657 -0.01237 0.0
C137 C 0.4824 0.4969 -0.00713 0.0
C138 C 0.43832 0.47815 -0.00481 0.0
H139 H 0.52156 0.5538 -0.01229 0.0
H140 H 0.51342 0.47793 -0.00549 0.0
C141 C 0.39911 0.50402 -0.00749 0.0
C142 C 0.40436 0.49653 0.48478 0.0
C143 C 0.44841 0.47772 0.48616 0.0
H144 H 0.36527 0.55347 0.47965 0.0
C145 C 0.48766 0.50358 0.48466 0.0
H146 H 0.3733 0.47759 0.48611 0.0
C147 C 0.48297 0.54715 0.4806 0.0
C148 C 0.43892 0.56594 0.4784 0.0
H149 H 0.52206 0.4902 0.48564 0.0
H150 H 0.51402 0.56609 0.47888 0.0
C151 C 0.39967 0.5401 0.48117 0.0
C152 C 0.94123 0.17151 0.19955 0.0
C153 C -0.04753 0.20904 0.16798 0.0
H154 H 0.91763 0.14229 0.28341 0.0
C155 C -0.05146 0.2471 0.19825 0.0
H156 H -0.05609 0.14179 0.17709 0.0
C157 C 0.93469 0.2473 0.26011 0.0
C158 C 0.92324 0.20959 0.29141 0.0
H159 H -0.04263 0.27637 0.1747 0.0
H160 H 0.93245 0.2768 0.28319 0.0
C161 C 0.92614 0.17183 0.26032 0.0
C162 C 0.94174 0.8712 0.27063 0.0
C163 C -0.04717 0.83365 0.30226 0.0
H164 H 0.91837 0.90044 0.1867 0.0
C165 C -0.05113 0.7956 0.272 0.0
H166 H -0.05556 0.90093 0.29309 0.0
C167 C 0.93514 0.7954 0.2101 0.0
C168 C 0.92384 0.83313 0.17875 0.0
H169 H -0.04241 0.76631 0.2956 0.0
H170 H 0.93286 0.7659 0.18703 0.0
C171 C 0.92677 0.8709 0.20983 0.0
C172 C 0.90847 0.7852 0.71275 0.0
C173 C -0.05044 0.79124 0.67933 0.0
H174 H 0.87637 0.78312 0.80133 0.0
C175 C -0.00827 0.793 0.71155 0.0
H176 H 0.87548 0.78323 0.68943 0.0
C177 C -0.00772 0.79282 0.77587 0.0
C178 C -0.04934 0.79108 0.80902 0.0
H179 H 0.02414 0.79708 0.68713 0.0
H180 H 0.02495 0.79707 0.79922 0.0
C181 C 0.90901 0.78521 0.77697 0.0
C182 C 0.90857 0.25724 0.75745 0.0
C183 C -0.05031 0.25109 0.79079 0.0
H184 H 0.87638 0.25942 0.66895 0.0
C185 C -0.0082 0.24918 0.75846 0.0
H186 H 0.87563 0.25933 0.78085 0.0
C187 C -0.00772 0.24935 0.69414 0.0
C188 C -0.04938 0.25124 0.66109 0.0
H189 H 0.02423 0.245 0.78281 0.0
H190 H 0.0249 0.245 0.6707 0.0
C191 C 0.90903 0.25722 0.69323 0.0
C192 C 0.49096 0.73903 0.21098 0.0
C193 C 0.46054 0.73735 0.16072 0.0
H194 H 0.49791 0.73875 0.30926 0.0
C195 C 0.41273 0.73796 0.17103 0.0
H196 H 0.52802 0.73847 0.20384 0.0
C197 C 0.39563 0.73682 0.23118 0.0
C198 C 0.42612 0.73646 0.28154 0.0
H199 H 0.38874 0.73626 0.13291 0.0
H200 H 0.35864 0.73462 0.23842 0.0
C201 C 0.47382 0.73931 0.27106 0.0
C202 C 0.41232 0.30625 0.30241 0.0
C203 C 0.46014 0.30687 0.31257 0.0
H204 H 0.35812 0.30952 0.23518 0.0
C205 C 0.49048 0.3052 0.26222 0.0
H206 H 0.38838 0.30793 0.3406 0.0
C207 C 0.47326 0.30489 0.20219 0.0
C208 C 0.42553 0.3077 0.19185 0.0
H209 H 0.52756 0.30577 0.26925 0.0
H210 H 0.49729 0.30544 0.16392 0.0
C211 C 0.39513 0.30736 0.24231 0.0
C212 C 0.48586 0.30495 0.78474 0.0
C213 C 0.44405 0.30631 0.81744 0.0
H214 H 0.51869 0.30573 0.69657 0.0
C215 C 0.40218 0.30517 0.78453 0.0
H216 H 0.5187 0.3056 0.80861 0.0
C217 C 0.40211 0.30519 0.72023 0.0
C218 C 0.44393 0.30651 0.6874 0.0
H219 H 0.36928 0.30582 0.8083 0.0
H220 H 0.36927 0.30599 0.69631 0.0
C221 C 0.4858 0.30514 0.72041 0.0
C222 C 0.40197 0.73893 0.75325 0.0
C223 C 0.44375 0.73775 0.78613 0.0
H224 H 0.36924 0.73819 0.66512 0.0
C225 C 0.48565 0.7393 0.75318 0.0
H226 H 0.3691 0.73799 0.77712 0.0
C227 C 0.4858 0.7395 0.68886 0.0
C228 C 0.44403 0.73798 0.65609 0.0
H229 H 0.51852 0.73883 0.77707 0.0
H230 H 0.51867 0.73898 0.66504 0.0
C231 C 0.40211 0.73897 0.68894 0.0
C232 C 0.23096 0.24538 -0.00882 0.0
C233 C 0.23655 0.28891 -0.00421 0.0
H234 H 0.18365 0.19406 -0.01396 0.0
C235 C 0.19716 0.31442 -0.00174 0.0
H236 H 0.26069 0.22485 -0.01067 0.0
C237 C 0.15305 0.29674 -0.00378 0.0
C238 C 0.14746 0.25319 -0.00803 0.0
H239 H 0.20035 0.34803 0.00191 0.0
H240 H 0.12332 0.31726 -0.0017 0.0
C241 C 0.18685 0.22768 -0.01057 0.0
C242 C 0.69004 0.72838 -0.02038 0.0
C243 C 0.65119 0.75412 -0.02957 0.0
H244 H 0.76344 0.72522 -0.00977 0.0
C245 C 0.65747 0.79764 0.9631 0.0
H246 H 0.68632 0.69476 -0.01458 0.0
C247 C 0.70161 0.81517 0.96623 0.0
C248 C 0.74037 0.78949 -0.02351 0.0
H249 H 0.62818 0.81835 0.95597 0.0
H250 H 0.70529 0.84883 0.96111 0.0
C251 C 0.7342 0.74588 -0.01751 0.0
C252 C 0.15341 0.74654 0.47518 0.0
C253 C 0.1476 0.79008 0.47933 0.0
H254 H 0.20097 0.69542 0.47004 0.0
C255 C 0.18686 0.81573 0.48222 0.0
H256 H 0.12378 0.72592 0.47285 0.0
C257 C 0.23106 0.79819 0.48094 0.0
C258 C 0.23686 0.75467 0.47644 0.0
H259 H 0.18349 0.84935 0.48554 0.0
H260 H 0.26068 0.81883 0.48305 0.0
C261 C 0.1976 0.72902 0.47361 0.0
C262 C 0.69 0.3149 0.49226 0.0
C263 C 0.65107 0.28929 0.50166 0.0
H264 H 0.76337 0.31781 0.48106 0.0
C265 C 0.65718 0.24573 0.50873 0.0
H266 H 0.68641 0.34854 0.48664 0.0
C267 C 0.70122 0.22805 0.50515 0.0
C268 C 0.74006 0.25361 0.49469 0.0
H269 H 0.62783 0.22512 0.51601 0.0
H270 H 0.70477 0.19437 0.51009 0.0
C271 C 0.73406 0.29724 0.48894 0.0
loop_
_geom_bond_atom_site_label_1
_geom_bond_atom_site_label_2
_geom_bond_distance
_geom_bond_site_symmetry_2
_ccdc_geom_bond_type
C0 O1 1.306 1_455 S
C0 O3 1.160 . S
O1 C0 1.306 1_655 S
O1 Cd2 2.228 1_556 S
Cd2 O1 2.228 1_554 S
Cd2 O6 2.273 . S
Cd2 O10 2.277 . S
O3 C0 1.160 . S
O3 Cd4 2.203 1_556 S
Cd4 O3 2.203 1_554 S
Cd4 O6 2.411 1_455 S
Cd4 O7 2.333 . S
Cd4 O8 2.352 . S
Cd4 O12 2.277 . S
Cd4 O13 2.356 . S
C5 O10 1.209 1_455 S
C5 O12 1.226 . S
O6 Cd2 2.273 . S
O6 Cd4 2.411 1_655 S
O6 C9 1.320 1_655 S
O7 Cd4 2.333 . S
O7 C9 1.214 . S
O8 Cd4 2.352 . S
O8 C11 1.258 . S
C9 O6 1.320 1_455 S
C9 O7 1.214 . S
O10 Cd2 2.277 . S
O10 C5 1.209 1_655 S
C11 O8 1.258 . S
C11 O13 1.282 . S
O12 Cd4 2.277 . S
O12 C5 1.226 . S
O13 Cd4 2.356 . S
O13 C11 1.282 . S
C14 O15 1.306 1_655 S
C14 O17 1.160 . S
O15 C14 1.306 1_455 S
O15 Cd16 2.228 1_556 S
Cd16 O15 2.228 1_554 S
Cd16 O20 2.273 . S
Cd16 O24 2.277 . S
O17 C14 1.160 . S
O17 Cd18 2.203 1_556 S
Cd18 O17 2.203 1_554 S
Cd18 O20 2.411 1_655 S
Cd18 O21 2.333 . S
Cd18 O22 2.352 . S
Cd18 O26 2.277 . S
Cd18 O27 2.356 . S
C19 O24 1.209 1_655 S
C19 O26 1.226 . S
O20 Cd16 2.273 . S
O20 Cd18 2.411 1_455 S
O20 C23 1.320 1_455 S
O21 Cd18 2.333 . S
O21 C23 1.214 . S
O22 Cd18 2.352 . S
O22 C25 1.258 . S
C23 O20 1.320 1_655 S
C23 O21 1.214 . S
O24 Cd16 2.277 . S
O24 C19 1.209 1_455 S
C25 O22 1.258 . S
C25 O27 1.282 . S
O26 Cd18 2.277 . S
O26 C19 1.226 . S
O27 Cd18 2.356 . S
O27 C25 1.282 . S
C28 O29 1.306 1_455 S
C28 O31 1.160 . S
O29 C28 1.306 1_655 S
O29 Cd30 2.228 . S
Cd30 O29 2.228 . S
Cd30 O34 2.273 . S
Cd30 O38 2.277 . S
O31 C28 1.160 . S
O31 Cd32 2.203 . S
Cd32 O31 2.203 . S
Cd32 O34 2.411 1_455 S
Cd32 O35 2.333 . S
Cd32 O36 2.352 . S
Cd32 O40 2.277 . S
Cd32 O41 2.356 . S
C33 O38 1.209 1_455 S
C33 O40 1.226 . S
O34 Cd30 2.273 . S
O34 Cd32 2.411 1_655 S
O34 C37 1.320 1_655 S
O35 Cd32 2.333 . S
O35 C37 1.214 . S
O36 Cd32 2.352 . S
O36 C39 1.258 . S
C37 O34 1.320 1_455 S
C37 O35 1.214 . S
O38 Cd30 2.277 . S
O38 C33 1.209 1_655 S
C39 O36 1.258 . S
C39 O41 1.282 . S
O40 Cd32 2.277 . S
O40 C33 1.226 . S
O41 Cd32 2.356 . S
O41 C39 1.282 . S
C42 O43 1.306 1_655 S
C42 O45 1.160 . S
O43 C42 1.306 1_455 S
O43 Cd44 2.228 . S
Cd44 O43 2.228 . S
Cd44 O48 2.273 . S
Cd44 O52 2.277 . S
O45 C42 1.160 . S
O45 Cd46 2.203 . S
Cd46 O45 2.203 . S
Cd46 O48 2.411 1_655 S
Cd46 O49 2.333 . S
Cd46 O50 2.352 . S
Cd46 O54 2.277 . S
Cd46 O55 2.356 . S
C47 O52 1.209 1_655 S
C47 O54 1.226 . S
O48 Cd44 2.273 . S
O48 Cd46 2.411 1_455 S
O48 C51 1.320 1_455 S
O49 Cd46 2.333 . S
O49 C51 1.214 . S
O50 Cd46 2.352 . S
O50 C53 1.258 . S
C51 O48 1.320 1_655 S
C51 O49 1.214 . S
O52 Cd44 2.277 . S
O52 C47 1.209 1_455 S
C53 O50 1.258 . S
C53 O55 1.282 . S
O54 Cd46 2.277 . S
O54 C47 1.226 . S
O55 Cd46 2.356 . S
O55 C53 1.282 . S
C56 O57 1.306 . S
C56 O59 1.160 . S
O57 C56 1.306 . S
O57 Cd58 2.228 1_556 S
Cd58 O57 2.228 1_554 S
Cd58 O62 2.273 . S
Cd58 O66 2.277 . S
O59 C56 1.160 . S
O59 Cd60 2.203 1_556 S
Cd60 O59 2.203 1_554 S
Cd60 O62 2.411 . S
Cd60 O63 2.333 . S
Cd60 O64 2.352 . S
Cd60 O68 2.277 . S
Cd60 O69 2.356 . S
C61 O66 1.209 . S
C61 O68 1.226 . S
O62 Cd58 2.273 . S
O62 Cd60 2.411 . S
O62 C65 1.320 . S
O63 Cd60 2.333 . S
O63 C65 1.214 . S
O64 Cd60 2.352 . S
O64 C67 1.258 . S
C65 O62 1.320 . S
C65 O63 1.214 . S
O66 Cd58 2.277 . S
O66 C61 1.209 . S
C67 O64 1.258 . S
C67 O69 1.282 . S
O68 Cd60 2.277 . S
O68 C61 1.226 . S
O69 Cd60 2.356 . S
O69 C67 1.282 . S
C70 O71 1.306 . S
C70 O73 1.160 . S
O71 C70 1.306 . S
O71 Cd72 2.228 1_556 S
Cd72 O71 2.228 1_554 S
Cd72 O76 2.273 . S
Cd72 O80 2.277 . S
O73 C70 1.160 . S
O73 Cd74 2.203 1_556 S
Cd74 O73 2.203 1_554 S
Cd74 O76 2.411 . S
Cd74 O77 2.333 . S
Cd74 O78 2.352 . S
Cd74 O82 2.277 . S
Cd74 O83 2.356 . S
C75 O80 1.209 . S
C75 O82 1.226 . S
O76 Cd72 2.273 . S
O76 Cd74 2.411 . S
O76 C79 1.320 . S
O77 Cd74 2.333 . S
O77 C79 1.214 . S
O78 Cd74 2.352 . S
O78 C81 1.258 . S
C79 O76 1.320 . S
C79 O77 1.214 . S
O80 Cd72 2.277 . S
O80 C75 1.209 . S
C81 O78 1.258 . S
C81 O83 1.282 . S
O82 Cd74 2.277 . S
O82 C75 1.226 . S
O83 Cd74 2.356 . S
O83 C81 1.282 . S
C84 O85 1.306 . S
C84 O87 1.160 . S
O85 C84 1.306 . S
O85 Cd86 2.228 . S
Cd86 O85 2.228 . S
Cd86 O90 2.273 . S
Cd86 O94 2.277 . S
O87 C84 1.160 . S
O87 Cd88 2.203 . S
Cd88 O87 2.203 . S
Cd88 O90 2.411 . S
Cd88 O91 2.333 . S
Cd88 O92 2.352 . S
Cd88 O96 2.277 . S
Cd88 O97 2.356 . S
C89 O94 1.209 . S
C89 O96 1.226 . S
O90 Cd86 2.273 . S
O90 Cd88 2.411 . S
O90 C93 1.320 . S
O91 Cd88 2.333 . S
O91 C93 1.214 . S
O92 Cd88 2.352 . S
O92 C95 1.258 . S
C93 O90 1.320 . S
C93 O91 1.214 . S
O94 Cd86 2.277 . S
O94 C89 1.209 . S
C95 O92 1.258 . S
C95 O97 1.282 . S
O96 Cd88 2.277 . S
O96 C89 1.226 . S
O97 Cd88 2.356 . S
O97 C95 1.282 . S
C98 O99 1.306 . S
C98 O101 1.160 . S
O99 C98 1.306 . S
O99 Cd100 2.228 . S
Cd100 O99 2.228 . S
Cd100 O104 2.273 . S
Cd100 O108 2.277 . S
O101 C98 1.160 . S
O101 Cd102 2.203 . S
Cd102 O101 2.203 . S
Cd102 O104 2.411 . S
Cd102 O105 2.333 . S
Cd102 O106 2.352 . S
Cd102 O110 2.277 . S
Cd102 O111 2.356 . S
C103 O108 1.209 . S
C103 O110 1.226 . S
O104 Cd100 2.273 . S
O104 Cd102 2.411 . S
O104 C107 1.320 . S
O105 Cd102 2.333 . S
O105 C107 1.214 . S
O106 Cd102 2.352 . S
O106 C109 1.258 . S
C107 O104 1.320 . S
C107 O105 1.214 . S
O108 Cd100 2.277 . S
O108 C103 1.209 . S
C109 O106 1.258 . S
C109 O111 1.282 . S
O110 Cd102 2.277 . S
O110 C103 1.226 . S
O111 Cd102 2.356 . S
O111 C109 1.282 . S
C112 C113 1.387 1_556 S
C112 H116 0.950 . S
C112 C121 1.390 1_665 S
C113 C112 1.387 1_554 S
C113 C115 1.387 . S
H114 C121 0.950 . S
C115 C113 1.387 . S
C115 C117 1.390 1_665 S
C115 H119 0.950 . S
H116 C112 0.950 . S
C117 C115 1.390 1_445 S
C117 C118 1.387 . S
C117 H120 0.950 . S
C118 C117 1.387 . S
C118 C121 1.387 1_554 S
H119 C115 0.950 . S
H120 C117 0.950 . S
C121 C112 1.390 1_445 S
C121 H114 0.950 . S
C121 C118 1.387 1_556 S
C122 C123 1.387 . S
C122 H126 0.950 . S
C122 C131 1.390 1_465 S
C123 C122 1.387 . S
C123 C125 1.387 . S
H124 C131 0.950 . S
C125 C123 1.387 . S
C125 C127 1.390 1_465 S
C125 H129 0.950 . S
H126 C122 0.950 . S
C127 C125 1.390 1_645 S
C127 C128 1.387 . S
C127 H130 0.950 . S
C128 C127 1.387 . S
C128 C131 1.387 . S
H129 C125 0.950 . S
H130 C127 0.950 . S
C131 C122 1.390 1_645 S
C131 H124 0.950 . S
C131 C128 1.387 . S
C132 C133 1.387 . S
C132 H136 0.950 . S
C132 C141 1.390 . S
C133 C132 1.387 . S
C133 C135 1.387 1_554 S
H134 C141 0.950 . S
C135 C133 1.387 1_556 S
C135 C137 1.390 . S
C135 H139 0.950 . S
H136 C132 0.950 . S
C137 C135 1.390 . S
C137 C138 1.387 1_556 S
C137 H140 0.950 . S
C138 C137 1.387 1_554 S
C138 C141 1.387 . S
H139 C135 0.950 . S
H140 C137 0.950 . S
C141 C132 1.390 . S
C141 H134 0.950 . S
C141 C138 1.387 . S
C142 C143 1.387 . S
C142 H146 0.950 . S
C142 C151 1.390 . S
C143 C142 1.387 . S
C143 C145 1.387 . S
H144 C151 0.950 . S
C145 C143 1.387 . S
C145 C147 1.390 . S
C145 H149 0.950 . S
H146 C142 0.950 . S
C147 C145 1.390 . S
C147 C148 1.387 . S
C147 H150 0.950 . S
C148 C147 1.387 . S
C148 C151 1.387 . S
H149 C145 0.950 . S
H150 C147 0.950 . S
C151 C142 1.390 . S
C151 H144 0.950 . S
C151 C148 1.387 . S
C152 C153 1.387 . S
C152 H156 0.950 . S
C152 C161 1.390 1_455 S
C153 C152 1.387 . S
C153 C155 1.387 . S
H154 C161 0.950 . S
C155 C153 1.387 . S
C155 C157 1.390 1_455 S
C155 H159 0.950 . S
H156 C152 0.950 . S
C157 C155 1.390 1_655 S
C157 C158 1.387 . S
C157 H160 0.950 . S
C158 C157 1.387 . S
C158 C161 1.387 . S
H159 C155 0.950 . S
H160 C157 0.950 . S
C161 C152 1.390 1_655 S
C161 H154 0.950 . S
C161 C158 1.387 . S
C162 C163 1.387 . S
C162 H166 0.950 . S
C162 C171 1.390 1_455 S
C163 C162 1.387 . S
C163 C165 1.387 . S
H164 C171 0.950 . S
C165 C163 1.387 . S
C165 C167 1.390 1_455 S
C165 H169 0.950 . S
H166 C162 0.950 . S
C167 C165 1.390 1_655 S
C167 C168 1.387 . S
C167 H170 0.950 . S
C168 C167 1.387 . S
C168 C171 1.387 . S
H169 C165 0.950 . S
H170 C167 0.950 . S
C171 C162 1.390 1_655 S
C171 H164 0.950 . S
C171 C168 1.387 . S
C172 C173 1.388 . S
C172 H176 0.950 . S
C172 C181 1.390 1_655 S
C173 C172 1.388 . S
C173 C175 1.388 . S
H174 C181 0.950 . S
C175 C173 1.388 . S
C175 C177 1.390 1_655 S
C175 H179 0.950 . S
H176 C172 0.950 . S
C177 C175 1.390 1_455 S
C177 C178 1.388 . S
C177 H180 0.950 . S
C178 C177 1.388 . S
C178 C181 1.388 . S
H179 C175 0.950 . S
H180 C177 0.950 . S
C181 C172 1.390 1_455 S
C181 H174 0.950 . S
C181 C178 1.388 . S
C182 C183 1.388 . S
C182 H186 0.950 . S
C182 C191 1.390 1_655 S
C183 C182 1.388 . S
C183 C185 1.388 . S
H184 C191 0.950 . S
C185 C183 1.388 . S
C185 C187 1.390 1_655 S
C185 H189 0.950 . S
H186 C182 0.950 . S
C187 C185 1.390 1_455 S
C187 C188 1.388 . S
C187 H190 0.950 . S
C188 C187 1.388 . S
C188 C191 1.388 . S
H189 C185 0.950 . S
H190 C187 0.950 . S
C191 C182 1.390 1_455 S
C191 H184 0.950 . S
C191 C188 1.388 . S
C192 C193 1.387 . S
C192 H196 0.950 . S
C192 C201 1.390 . S
C193 C192 1.387 . S
C193 C195 1.387 . S
H194 C201 0.950 . S
C195 C193 1.387 . S
C195 C197 1.390 . S
C195 H199 0.950 . S
H196 C192 0.950 . S
C197 C195 1.390 . S
C197 C198 1.387 . S
C197 H200 0.950 . S
C198 C197 1.387 . S
C198 C201 1.387 . S
H199 C195 0.950 . S
H200 C197 0.950 . S
C201 C192 1.390 . S
C201 H194 0.950 . S
C201 C198 1.387 . S
C202 C203 1.387 . S
C202 H206 0.950 . S
C202 C211 1.390 . S
C203 C202 1.387 . S
C203 C205 1.387 . S
H204 C211 0.950 . S
C205 C203 1.387 . S
C205 C207 1.390 . S
C205 H209 0.950 . S
H206 C202 0.950 . S
C207 C205 1.390 . S
C207 C208 1.387 . S
C207 H210 0.950 . S
C208 C207 1.387 . S
C208 C211 1.387 . S
H209 C205 0.950 . S
H210 C207 0.950 . S
C211 C202 1.390 . S
C211 H204 0.950 . S
C211 C208 1.387 . S
C212 C213 1.387 . S
C212 H216 0.950 . S
C212 C221 1.390 . S
C213 C212 1.387 . S
C213 C215 1.387 . S
H214 C221 0.950 . S
C215 C213 1.387 . S
C215 C217 1.390 . S
C215 H219 0.950 . S
H216 C212 0.950 . S
C217 C215 1.390 . S
C217 C218 1.387 . S
C217 H220 0.950 . S
C218 C217 1.387 . S
C218 C221 1.387 . S
H219 C215 0.950 . S
H220 C217 0.950 . S
C221 C212 1.390 . S
C221 H214 0.950 . S
C221 C218 1.387 . S
C222 C223 1.387 . S
C222 H226 0.950 . S
C222 C231 1.390 . S
C223 C222 1.387 . S
C223 C225 1.387 . S
H224 C231 0.950 . S
C225 C223 1.387 . S
C225 C227 1.390 . S
C225 H229 0.950 . S
H226 C222 0.950 . S
C227 C225 1.390 . S
C227 C228 1.387 . S
C227 H230 0.950 . S
C228 C227 1.387 . S
C228 C231 1.387 . S
H229 C225 0.950 . S
H230 C227 0.950 . S
C231 C222 1.390 . S
C231 H224 0.950 . S
C231 C228 1.387 . S
C232 C233 1.387 1_556 S
C232 H236 0.950 . S
C232 C241 1.390 . S
C233 C232 1.387 1_554 S
C233 C235 1.387 . S
H234 C241 0.950 . S
C235 C233 1.387 . S
C235 C237 1.390 . S
C235 H239 0.950 . S
H236 C232 0.950 . S
C237 C235 1.390 . S
C237 C238 1.387 . S
C237 H240 0.950 . S
C238 C237 1.387 . S
C238 C241 1.387 1_554 S
H239 C235 0.950 . S
H240 C237 0.950 . S
C241 C232 1.390 . S
C241 H234 0.950 . S
C241 C238 1.387 1_556 S
C242 C243 1.387 . S
C242 H246 0.950 . S
C242 C251 1.390 . S
C243 C242 1.387 . S
C243 C245 1.387 1_554 S
H244 C251 0.950 . S
C245 C243 1.387 1_556 S
C245 C247 1.390 . S
C245 H249 0.950 . S
H246 C242 0.950 . S
C247 C245 1.390 . S
C247 C248 1.387 1_556 S
C247 H250 0.950 . S
C248 C247 1.387 1_554 S
C248 C251 1.387 . S
H249 C245 0.950 . S
H250 C247 0.950 . S
C251 C242 1.390 . S
C251 H244 0.950 . S
C251 C248 1.387 . S
C252 C253 1.387 . S
C252 H256 0.950 . S
C252 C261 1.390 . S
C253 C252 1.387 . S
C253 C255 1.387 . S
H254 C261 0.950 . S
C255 C253 1.387 . S
C255 C257 1.390 . S
C255 H259 0.950 . S
H256 C252 0.950 . S
C257 C255 1.390 . S
C257 C258 1.387 . S
C257 H260 0.950 . S
C258 C257 1.387 . S
C258 C261 1.387 . S
H259 C255 0.950 . S
H260 C257 0.950 . S
C261 C252 1.390 . S
C261 H254 0.950 . S
C261 C258 1.387 . S
C262 C263 1.387 . S
C262 H266 0.950 . S
C262 C271 1.390 . S
C263 C262 1.387 . S
C263 C265 1.387 . S
H264 C271 0.950 . S
C265 C263 1.387 . S
C265 C267 1.390 . S
C265 H269 0.950 . S
H266 C262 0.950 . S
C267 C265 1.390 . S
C267 C268 1.387 . S
C267 H270 0.950 . S
C268 C267 1.387 . S
C268 C271 1.387 . S
H269 C265 0.950 . S
H270 C267 0.950 . S
C271 C262 1.390 . S
C271 H264 0.950 . S
C271 C268 1.387 . S
C113 C19 1.503 . S
C118 C5 1.503 . S
C123 C33 1.503 . S
C128 C47 1.503 . S
C133 C61 1.504 . S
C138 C75 1.504 . S
C143 C89 1.504 . S
C148 C103 1.504 . S
C153 C9 1.359 . S
C158 C51 1.359 . S
C163 C37 1.359 . S
C168 C23 1.359 . S
C173 C28 1.412 1_655 S
C178 C14 1.412 1_455 S
C183 C0 1.412 1_655 S
C188 C42 1.412 1_455 S
C193 C65 1.356 . S
C198 C107 1.356 . S
C203 C93 1.353 . S
C208 C79 1.353 . S
C213 C70 1.412 . S
C218 C84 1.412 . S
C223 C56 1.411 . S
C228 C98 1.411 . S
C233 C81 1.505 . S
C238 C11 1.505 . S
C243 C67 1.506 . S
C248 C25 1.506 . S
C253 C39 1.506 . S
C258 C109 1.506 . S
C263 C95 1.506 . S
C268 C53 1.506 . S
