# Generated by pormake.
# Topology smu, (6)-cn, num edge types: 1
# Building blocks:
#     Node 0, Type 0, BuildingBlock: OJICUG_clean_sbu_0, # of connection points: 6
#     Node 1, Type 0, BuildingBlock: OJICUG_clean_sbu_0, # of connection points: 6
#     Node 2, Type 0, BuildingBlock: OJICUG_clean_sbu_0, # of connection points: 6
#     Node 3, Type 0, BuildingBlock: OJICUG_clean_sbu_0, # of connection points: 6
#     Node 4, Type 0, BuildingBlock: OJICUG_clean_sbu_0, # of connection points: 6
#     Node 5, Type 0, BuildingBlock: OJICUG_clean_sbu_0, # of connection points: 6
#     Edge 6, Type (0, 0), BuildingBlock: MIFKUJ_clean_linker_0, # of connection points: 2
#     Edge 7, Type (0, 0), BuildingBlock: MIFKUJ_clean_linker_0, # of connection points: 2
#     Edge 8, Type (0, 0), BuildingBlock: MIFKUJ_clean_linker_0, # of connection points: 2
#     Edge 9, Type (0, 0), BuildingBlock: MIFKUJ_clean_linker_0, # of connection points: 2
#     Edge 10, Type (0, 0), BuildingBlock: MIFKUJ_clean_linker_0, # of connection points: 2
#     Edge 11, Type (0, 0), BuildingBlock: MIFKUJ_clean_linker_0, # of connection points: 2
#     Edge 12, Type (0, 0), BuildingBlock: MIFKUJ_clean_linker_0, # of connection points: 2
#     Edge 13, Type (0, 0), BuildingBlock: MIFKUJ_clean_linker_0, # of connection points: 2
#     Edge 14, Type (0, 0), BuildingBlock: MIFKUJ_clean_linker_0, # of connection points: 2
#     Edge 15, Type (0, 0), BuildingBlock: MIFKUJ_clean_linker_0, # of connection points: 2
#     Edge 16, Type (0, 0), BuildingBlock: MIFKUJ_clean_linker_0, # of connection points: 2
#     Edge 17, Type (0, 0), BuildingBlock: MIFKUJ_clean_linker_0, # of connection points: 2
#     Edge 18, Type (0, 0), BuildingBlock: MIFKUJ_clean_linker_0, # of connection points: 2
#     Edge 19, Type (0, 0), BuildingBlock: MIFKUJ_clean_linker_0, # of connection points: 2
#     Edge 20, Type (0, 0), BuildingBlock: MIFKUJ_clean_linker_0, # of connection points: 2
#     Edge 21, Type (0, 0), BuildingBlock: MIFKUJ_clean_linker_0, # of connection points: 2
#     Edge 22, Type (0, 0), BuildingBlock: MIFKUJ_clean_linker_0, # of connection points: 2
#     Edge 23, Type (0, 0), BuildingBlock: MIFKUJ_clean_linker_0, # of connection points: 2
# Relax obj value: 0.250
# Max RMSD: 0.294
# Mean RMSD: 0.265
data_MOF--net-smu--node1-OJICUG_clean_sbu_0--edge1-MIFKUJ_clean_linker_0
_symmetry_space_group_name_H-M    P1
_symmetry_Int_Tables_number       1
_symmetry_cell_setting            triclinic
loop_
_symmetry_equiv_pos_as_xyz
'x, y, z'
_cell_length_a     38.10721
_cell_length_b     38.09391
_cell_length_c     39.388578
_cell_angle_alpha  95.616552
_cell_angle_beta   95.578945
_cell_angle_gamma 119.97907
loop_
_atom_site_label
_atom_site_type_symbol
_atom_site_fract_x
_atom_site_fract_y
_atom_site_fract_z
_atom_type_partial_charge
Sc0 Sc 0.32109 0.05992 0.20968 0.0
Sc1 Sc 0.35572 0.0055 0.25614 0.0
Sc2 Sc 0.37128 0.10102 0.29545 0.0
O3 O 0.34904 0.05525 0.25392 0.0
C4 C 0.38868 0.15358 0.2343 0.0
C5 C 0.37265 0.02363 0.18009 0.0
C6 C 0.44408 0.08306 0.28968 0.0
C7 C 0.26507 0.96438 0.2147 0.0
C8 C 0.28468 0.08997 0.26847 0.0
C9 C 0.3434 0.02301 0.33351 0.0
O10 O 0.36628 0.12337 0.21014 0.0
O11 O 0.37319 0.00524 0.20519 0.0
O12 O 0.43114 0.10726 0.29807 0.0
O13 O 0.27224 0.99679 0.20285 0.0
O14 O 0.31291 0.09851 0.29373 0.0
O15 O 0.34035 0.99851 0.30752 0.0
O16 O 0.28487 0.07689 0.23753 0.0
O17 O 0.29156 0.96256 0.23559 0.0
O18 O 0.35462 0.06024 0.33243 0.0
O19 O 0.35569 0.04485 0.17868 0.0
O20 O 0.39187 0.14976 0.26583 0.0
O21 O 0.42024 0.04527 0.27635 0.0
Sc22 Sc 0.75427 0.63553 0.20394 0.0
Sc23 Sc 0.69486 0.66732 0.24677 0.0
Sc24 Sc 0.79713 0.70176 0.28402 0.0
O25 O 0.74874 0.66829 0.2448 0.0
C26 C 0.80371 0.62238 0.26655 0.0
C27 C 0.66376 0.57369 0.21701 0.0
C28 C 0.7221 0.66409 0.32519 0.0
C29 C 0.70026 0.66745 0.16637 0.0
C30 C 0.84226 0.71724 0.21819 0.0
C31 C 0.76207 0.76162 0.27538 0.0
O32 O 0.78394 0.61241 0.23596 0.0
O33 O 0.65879 0.60129 0.23271 0.0
O34 O 0.75986 0.67986 0.32305 0.0
O35 O 0.72516 0.65449 0.16714 0.0
O36 O 0.84021 0.72686 0.24942 0.0
O37 O 0.72568 0.73361 0.26142 0.0
O38 O 0.81331 0.68556 0.19801 0.0
O39 O 0.68695 0.67442 0.19311 0.0
O40 O 0.79021 0.75419 0.28471 0.0
O41 O 0.69637 0.58152 0.20529 0.0
O42 O 0.81016 0.65335 0.28746 0.0
O43 O 0.69513 0.6583 0.30008 0.0
Sc44 Sc 0.93206 0.22743 0.21583 0.0
Sc45 Sc 0.01226 0.32833 0.24512 0.0
Sc46 Sc 0.93926 0.27915 0.29596 0.0
O47 O 0.96054 0.27819 0.25177 0.0
C48 C 0.85853 0.23597 0.24168 0.0
C49 C 0.96202 0.2934 0.16764 0.0
C50 C 0.9692 0.36897 0.27745 0.0
C51 C 0.02774 0.25667 0.22371 0.0
C52 C 0.91883 0.18659 0.28216 0.0
C53 C 0.02981 0.32843 0.32592 0.0
O54 O 0.87141 0.21755 0.22209 0.0
O55 O 0.99472 0.31775 0.18924 0.0
O56 O 0.9583 0.34375 0.29879 0.0
O57 O 0.99044 0.23269 0.20866 0.0
O58 O 0.91641 0.21498 0.29953 0.0
O59 O 0.03716 0.34763 0.30036 0.0
O60 O 0.92922 0.18887 0.25253 0.0
O61 O 0.04082 0.29245 0.24045 0.0
O62 O 0.997 0.29427 0.32439 0.0
O63 O 0.9327 0.26119 0.17522 0.0
O64 O 0.88109 0.26319 0.26805 0.0
O65 O 0.98367 0.36414 0.25076 0.0
Sc66 Sc 0.0382 0.29021 0.70244 0.0
Sc67 Sc 0.97893 0.32815 0.73573 0.0
Sc68 Sc 0.08059 0.36508 0.77749 0.0
O69 O 0.03247 0.32772 0.73869 0.0
C70 C 0.08153 0.28102 0.7709 0.0
C71 C 0.94483 0.23331 0.71206 0.0
C72 C 0.00439 0.33626 0.81747 0.0
C73 C 0.99181 0.32311 0.65673 0.0
C74 C 0.12781 0.37013 0.71454 0.0
C75 C 0.047 0.42321 0.75687 0.0
O76 O 0.05993 0.26672 0.74086 0.0
O77 O 0.94059 0.26177 0.72704 0.0
O78 O 0.04196 0.34898 0.81614 0.0
O79 O 0.01652 0.31016 0.66109 0.0
O80 O 0.12447 0.38601 0.74298 0.0
O81 O 0.01142 0.39408 0.74262 0.0
O82 O 0.10002 0.33518 0.69791 0.0
O83 O 0.97466 0.32983 0.68064 0.0
O84 O 0.07448 0.41761 0.77178 0.0
O85 O 0.97772 0.2401 0.7016 0.0
O86 O 0.0931 0.31672 0.78706 0.0
O87 O 0.97791 0.3277 0.7908 0.0
Sc88 Sc 0.20566 0.92495 0.72135 0.0
Sc89 Sc 0.30865 0.99712 0.7574 0.0
Sc90 Sc 0.25002 0.91586 0.79899 0.0
O91 O 0.25462 0.94574 0.75893 0.0
C92 C 0.16003 0.90293 0.78537 0.0
C93 C 0.24304 0.02256 0.73911 0.0
C94 C 0.30447 0.00418 0.83844 0.0
C95 C 0.27657 0.95798 0.6769 0.0
C96 C 0.20483 0.8431 0.73581 0.0
C97 C 0.33991 0.94185 0.78283 0.0
O98 O 0.16409 0.91644 0.75698 0.0
O99 O 0.27794 0.0312 0.75481 0.0
O100 O 0.27058 0.97051 0.83521 0.0
O101 O 0.24109 0.93068 0.68102 0.0
O102 O 0.22918 0.86006 0.76458 0.0
O103 O 0.34094 0.96451 0.76079 0.0
O104 O 0.19094 0.86135 0.71823 0.0
O105 O 0.30261 0.98618 0.70144 0.0
O106 O 0.3118 0.92739 0.80131 0.0
O107 O 0.21603 0.98668 0.72275 0.0
O108 O 0.18733 0.89856 0.80221 0.0
O109 O 0.32391 0.01553 0.81332 0.0
Sc110 Sc 0.61112 0.71831 0.69714 0.0
Sc111 Sc 0.6411 0.659 0.74233 0.0
Sc112 Sc 0.67073 0.76023 0.7794 0.0
O113 O 0.64101 0.71241 0.73958 0.0
C114 C 0.69169 0.80766 0.716 0.0
C115 C 0.65077 0.67008 0.66368 0.0
C116 C 0.73303 0.72715 0.77593 0.0
C117 C 0.54925 0.62587 0.70689 0.0
C118 C 0.59004 0.76363 0.7561 0.0
C119 C 0.6301 0.68429 0.81878 0.0
O120 O 0.65939 0.78011 0.69559 0.0
O121 O 0.65129 0.65242 0.6894 0.0
O122 O 0.72331 0.75338 0.78592 0.0
O123 O 0.55867 0.65817 0.69409 0.0
O124 O 0.62231 0.77397 0.77723 0.0
O125 O 0.63039 0.65881 0.79548 0.0
O126 O 0.58044 0.74144 0.72665 0.0
O127 O 0.57525 0.62136 0.72583 0.0
O128 O 0.64239 0.72138 0.81594 0.0
O129 O 0.63894 0.69588 0.66359 0.0
O130 O 0.70139 0.80381 0.74656 0.0
O131 O 0.70715 0.69146 0.759 0.0
H132 H 0.3871 0.05103 0.86216 0.0
H133 H 0.42044 0.06862 0.92268 0.0
H134 H 0.30239 0.02208 0.95518 0.0
H135 H 0.26897 0.00454 0.895 0.0
H136 H 0.36369 0.08806 0.00111 0.0
H137 H 0.33683 0.95877 0.93603 0.0
H138 H 0.3453 0.91883 0.88767 0.0
H139 H 0.47576 0.98521 0.92278 0.0
H140 H 0.4681 0.02611 0.97098 0.0
H141 H 0.345 0.95867 0.12865 0.0
H142 H 0.35724 0.96605 0.06916 0.0
H143 H 0.45347 0.09237 0.10447 0.0
H144 H 0.44107 0.08501 0.16378 0.0
H145 H 0.41878 0.99744 0.02475 0.0
H146 H 0.42056 0.14726 0.06181 0.0
H147 H 0.40214 0.18172 0.10708 0.0
H148 H 0.3089 0.06433 0.12578 0.0
H149 H 0.32643 0.02928 0.08034 0.0
C150 C 0.36846 0.04603 0.88228 0.0
C151 C 0.32536 0.02589 0.87393 0.0
C152 C 0.38754 0.05583 0.9168 0.0
C153 C 0.36373 0.04585 0.94321 0.0
C154 C 0.32126 0.02982 0.9351 0.0
C155 C 0.30218 0.01974 0.90071 0.0
C156 C 0.38134 0.04666 0.97859 0.0
C157 C 0.3767 0.06908 0.0063 0.0
C158 C 0.39754 0.02117 0.98523 0.0
C159 C 0.40196 0.9958 0.95685 0.0
C160 C 0.36734 0.96499 0.93331 0.0
C161 C 0.37198 0.9422 0.90593 0.0
C162 C 0.41105 0.94956 0.9021 0.0
C163 C 0.44553 0.97962 0.92573 0.0
C164 C 0.44106 0.00263 0.95307 0.0
C165 C 0.37051 0.98707 0.12392 0.0
C166 C 0.39217 0.02127 0.15048 0.0
C167 C 0.37741 0.99139 0.08995 0.0
C168 C 0.40573 0.03 0.08248 0.0
C169 C 0.4314 0.06242 0.10977 0.0
C170 C 0.42445 0.05813 0.14363 0.0
C171 C 0.40094 0.03879 0.04717 0.0
C172 C 0.40757 0.01788 0.01957 0.0
C173 C 0.38565 0.06499 0.04043 0.0
C174 C 0.37525 0.08573 0.06809 0.0
C175 C 0.39618 0.12887 0.07564 0.0
C176 C 0.38582 0.14848 0.10125 0.0
C177 C 0.35441 0.12521 0.11932 0.0
C178 C 0.3333 0.0823 0.11183 0.0
C179 C 0.34348 0.06256 0.0862 0.0
H180 H 0.3464 0.14045 0.1391 0.0
H181 H 0.41461 0.93191 0.88087 0.0
H182 H 0.68646 0.71983 0.61772 0.0
H183 H 0.69254 0.69954 0.55904 0.0
H184 H 0.64516 0.57491 0.57667 0.0
H185 H 0.63954 0.59535 0.63626 0.0
H186 H 0.70753 0.60177 0.53343 0.0
H187 H 0.57864 0.5897 0.5376 0.0
H188 H 0.53063 0.61024 0.55623 0.0
H189 H 0.58716 0.71687 0.50736 0.0
H190 H 0.63599 0.69735 0.48893 0.0
H191 H 0.64405 0.61386 0.33783 0.0
H192 H 0.62402 0.5929 0.39302 0.0
H193 H 0.75124 0.66502 0.4423 0.0
H194 H 0.77146 0.68503 0.38751 0.0
H195 H 0.62954 0.63668 0.44858 0.0
H196 H 0.77324 0.63 0.5092 0.0
H197 H 0.81698 0.6041 0.48984 0.0
H198 H 0.72075 0.52115 0.40568 0.0
H199 H 0.67611 0.54601 0.4248 0.0
C200 C 0.6781 0.68826 0.6094 0.0
C201 C 0.66196 0.659 0.63128 0.0
C202 C 0.68156 0.67672 0.57589 0.0
C203 C 0.66837 0.63557 0.56339 0.0
C204 C 0.65522 0.60676 0.58591 0.0
C205 C 0.65211 0.61847 0.61984 0.0
C206 C 0.66508 0.62305 0.52596 0.0
C207 C 0.69022 0.60884 0.51466 0.0
C208 C 0.64083 0.63044 0.50151 0.0
C209 C 0.61106 0.64207 0.51195 0.0
C210 C 0.58097 0.61763 0.53096 0.0
C211 C 0.55361 0.6291 0.54149 0.0
C212 C 0.55585 0.66484 0.53299 0.0
C213 C 0.58543 0.68916 0.51389 0.0
C214 C 0.61292 0.67787 0.50334 0.0
C215 C 0.66773 0.62502 0.36042 0.0
C216 C 0.70934 0.65126 0.35829 0.0
C217 C 0.65627 0.61281 0.39187 0.0
C218 C 0.68618 0.6267 0.42169 0.0
C219 C 0.72767 0.6528 0.41949 0.0
C220 C 0.73916 0.66466 0.38814 0.0
C221 C 0.67428 0.61805 0.456 0.0
C222 C 0.64607 0.62828 0.46687 0.0
C223 C 0.69475 0.60569 0.47967 0.0
C224 C 0.72131 0.59005 0.46843 0.0
C225 C 0.76122 0.60599 0.48674 0.0
C226 C 0.78623 0.59154 0.47575 0.0
C227 C 0.77167 0.56105 0.44652 0.0
C228 C 0.73202 0.54485 0.42827 0.0
C229 C 0.70687 0.55915 0.43916 0.0
H230 H 0.7911 0.54996 0.43804 0.0
H231 H 0.53466 0.67368 0.54119 0.0
H232 H 0.89412 0.25491 0.11655 0.0
H233 H 0.89068 0.26359 0.05592 0.0
H234 H 0.01938 0.35725 0.07618 0.0
H235 H 0.02289 0.34952 0.13698 0.0
H236 H 0.97799 0.37819 0.03302 0.0
H237 H 0.98434 0.25553 0.04161 0.0
H238 H 0.96077 0.18679 0.05683 0.0
H239 H 0.84494 0.13875 0.99028 0.0
H240 H 0.86767 0.20739 0.97503 0.0
H241 H 0.05434 0.3716 0.88006 0.0
H242 H 0.03542 0.36519 0.93726 0.0
H243 H 0.9077 0.28623 0.89142 0.0
H244 H 0.92645 0.29259 0.83334 0.0
H245 H 0.93517 0.25598 0.94443 0.0
H246 H 0.93591 0.37862 0.92875 0.0
H247 H 0.963 0.44749 0.91291 0.0
H248 H 0.06883 0.49598 0.99234 0.0
H249 H 0.0427 0.42726 0.00833 0.0
C250 C 0.92165 0.27765 0.10821 0.0
C251 C 0.95892 0.30124 0.13163 0.0
C252 C 0.91962 0.28247 0.07348 0.0
C253 C 0.95493 0.31054 0.06134 0.0
C254 C 0.99173 0.33532 0.08492 0.0
C255 C 0.99371 0.33079 0.11972 0.0
C256 C 0.95433 0.31297 0.02389 0.0
C257 C 0.96875 0.35149 0.01368 0.0
C258 C 0.94112 0.27792 0.99843 0.0
C259 C 0.92749 0.23667 0.00753 0.0
C260 C 0.95372 0.23037 0.03045 0.0
C261 C 0.94054 0.19143 0.03904 0.0
C262 C 0.90133 0.15845 0.02463 0.0
C263 C 0.87526 0.16434 0.0015 0.0
C264 C 0.88828 0.20324 0.99286 0.0
C265 C 0.02214 0.35287 0.88193 0.0
C266 C 0.99188 0.33251 0.85203 0.0
C267 C 0.01137 0.3495 0.91474 0.0
C268 C 0.97015 0.32564 0.91857 0.0
C269 C 0.93969 0.30502 0.88893 0.0
C270 C 0.95043 0.30875 0.85584 0.0
C271 C 0.95987 0.32134 0.95383 0.0
C272 C 0.9435 0.2825 0.96366 0.0
C273 C 0.97165 0.35615 0.97897 0.0
C274 C 0.9874 0.39767 0.96962 0.0
C275 C 0.9651 0.40389 0.94269 0.0
C276 C 0.98027 0.44293 0.9337 0.0
C277 C 0.01764 0.47608 0.95157 0.0
C278 C 0.03988 0.47027 0.97852 0.0
C279 C 0.02486 0.43129 0.98759 0.0
H280 H 0.02933 0.50627 0.94457 0.0
H281 H 0.89118 0.12832 0.03131 0.0
H282 H 0.37043 0.0707 0.39714 0.0
H283 H 0.35978 0.0489 0.45315 0.0
H284 H 0.28875 0.92202 0.40322 0.0
H285 H 0.29979 0.94364 0.3464 0.0
H286 H 0.25246 0.9481 0.45535 0.0
H287 H 0.37617 0.94881 0.44279 0.0
H288 H 0.44624 0.97723 0.4294 0.0
H289 H 0.4911 0.07985 0.5115 0.0
H290 H 0.42115 0.05239 0.52505 0.0
H291 H 0.23944 0.89415 0.62243 0.0
H292 H 0.25211 0.89551 0.56286 0.0
H293 H 0.34849 0.0229 0.59145 0.0
H294 H 0.33689 0.02137 0.65138 0.0
H295 H 0.37029 0.98496 0.54666 0.0
H296 H 0.24827 0.99229 0.55344 0.0
H297 H 0.17863 0.96868 0.56646 0.0
H298 H 0.13115 0.85612 0.4952 0.0
H299 H 0.20066 0.87888 0.48209 0.0
C300 C 0.35243 0.03809 0.39786 0.0
C301 C 0.33585 0.00888 0.36722 0.0
C302 C 0.34662 0.02572 0.42998 0.0
C303 C 0.32382 0.9839 0.43228 0.0
C304 C 0.30664 0.95447 0.40187 0.0
C305 C 0.313 0.96684 0.36952 0.0
C306 C 0.31749 0.97179 0.46675 0.0
C307 C 0.27798 0.95513 0.47516 0.0
C308 C 0.35109 0.98212 0.49267 0.0
C309 C 0.39331 0.99864 0.48479 0.0
C310 C 0.4009 0.9776 0.45782 0.0
C311 C 0.44062 0.99351 0.45023 0.0
C312 C 0.47309 0.03036 0.46955 0.0
C313 C 0.46591 0.05132 0.49655 0.0
C314 C 0.42624 0.03556 0.50423 0.0
C315 C 0.26359 0.92238 0.61612 0.0
C316 C 0.28686 0.95783 0.64159 0.0
C317 C 0.27071 0.92313 0.582 0.0
C318 C 0.30064 0.95955 0.57247 0.0
C319 C 0.32511 0.99446 0.59814 0.0
C320 C 0.3184 0.99358 0.6324 0.0
C321 C 0.30528 0.962 0.5356 0.0
C322 C 0.34453 0.97704 0.52676 0.0
C323 C 0.2715 0.95071 0.50935 0.0
C324 C 0.22971 0.93706 0.51711 0.0
C325 C 0.22302 0.96238 0.54075 0.0
C326 C 0.18357 0.94917 0.54811 0.0
C327 C 0.15051 0.91087 0.53175 0.0
C328 C 0.15681 0.88575 0.50791 0.0
C329 C 0.19621 0.89878 0.50049 0.0
H330 H 0.11999 0.9007 0.53748 0.0
H331 H 0.50382 0.04263 0.46362 0.0
H332 H 0.59064 0.71013 0.85886 0.0
H333 H 0.58148 0.7005 0.91847 0.0
H334 H 0.63364 0.62267 0.91345 0.0
H335 H 0.64127 0.63089 0.85324 0.0
H336 H 0.57733 0.59801 0.95471 0.0
H337 H 0.69413 0.72864 0.94109 0.0
H338 H 0.72666 0.79477 0.91973 0.0
H339 H 0.65432 0.83155 0.97341 0.0
H340 H 0.62104 0.76537 0.99476 0.0
H341 H 0.71299 0.64337 0.10377 0.0
H342 H 0.68113 0.64152 0.04682 0.0
H343 H 0.61737 0.69587 0.09255 0.0
H344 H 0.64895 0.69738 0.15067 0.0
H345 H 0.6609 0.73154 0.03466 0.0
H346 H 0.55934 0.60391 0.0608 0.0
H347 H 0.53405 0.53866 0.08317 0.0
H348 H 0.58391 0.49658 0.00684 0.0
H349 H 0.61008 0.56179 0.98434 0.0
C350 C 0.59921 0.69015 0.87026 0.0
C351 C 0.6173 0.67176 0.85178 0.0
C352 C 0.594 0.68473 0.90428 0.0
C353 C 0.60791 0.66181 0.92068 0.0
C354 C 0.62287 0.64067 0.90133 0.0
C355 C 0.62731 0.64542 0.86698 0.0
C356 C 0.61179 0.6639 0.95873 0.0
C357 C 0.59537 0.62716 0.97222 0.0
C358 C 0.63452 0.70205 0.98167 0.0
C359 C 0.65478 0.74194 0.96915 0.0
C360 C 0.68503 0.75076 0.94816 0.0
C361 C 0.7036 0.78824 0.93608 0.0
C362 C 0.69247 0.81729 0.94512 0.0
C363 C 0.66284 0.80898 0.96637 0.0
C364 C 0.64412 0.77151 0.97847 0.0
C365 C 0.69241 0.65522 0.10207 0.0
C366 C 0.68348 0.67046 0.13197 0.0
C367 C 0.67398 0.6538 0.06937 0.0
C368 C 0.64641 0.66782 0.06564 0.0
C369 C 0.6383 0.68448 0.09513 0.0
C370 C 0.65645 0.68545 0.12819 0.0
C371 C 0.62759 0.66569 0.0304 0.0
C372 C 0.64144 0.70242 0.01732 0.0
C373 C 0.60307 0.62755 0.00786 0.0
C374 C 0.5868 0.58789 0.02094 0.0
C375 C 0.56513 0.58085 0.04889 0.0
C376 C 0.55061 0.54385 0.06159 0.0
C377 C 0.55742 0.51353 0.04646 0.0
C378 C 0.57864 0.52009 0.01852 0.0
C379 C 0.59325 0.55705 0.00574 0.0
H380 H 0.54629 0.48495 0.05636 0.0
H381 H 0.70687 0.84629 0.93573 0.0
H382 H 0.05376 0.30004 0.37847 0.0
H383 H 0.05969 0.32437 0.43964 0.0
H384 H 0.05496 0.42931 0.41342 0.0
H385 H 0.05043 0.40585 0.35225 0.0
H386 H 0.10239 0.41653 0.4946 0.0
H387 H 0.96585 0.3911 0.4205 0.0
H388 H 0.9166 0.35494 0.36575 0.0
H389 H 0.91809 0.24481 0.37757 0.0
H390 H 0.96671 0.28019 0.43268 0.0
H391 H 0.00128 0.39509 0.64114 0.0
H392 H 0.01091 0.41677 0.58427 0.0
H393 H 0.97967 0.29477 0.53915 0.0
H394 H 0.97075 0.27343 0.59566 0.0
H395 H 0.95184 0.33594 0.49443 0.0
H396 H 0.08242 0.35615 0.56501 0.0
H397 H 0.12794 0.38463 0.62208 0.0
H398 H 0.13637 0.50083 0.61822 0.0
H399 H 0.09189 0.47331 0.5611 0.0
C400 C 0.05679 0.32968 0.38601 0.0
C401 C 0.05153 0.35102 0.36083 0.0
C402 C 0.06022 0.34361 0.42092 0.0
C403 C 0.05754 0.37846 0.43082 0.0
C404 C 0.05762 0.40266 0.4062 0.0
C405 C 0.05509 0.3892 0.37127 0.0
C406 C 0.04215 0.38139 0.46319 0.0
C407 C 0.06953 0.4002 0.4946 0.0
C408 C -0.00068 0.35958 0.46313 0.0
C409 C 0.96958 0.33812 0.43056 0.0
C410 C 0.95542 0.35912 0.41143 0.0
C411 C 0.92771 0.33881 0.38038 0.0
C412 C 0.91428 0.29765 0.36819 0.0
C413 C 0.92843 0.27665 0.38708 0.0
C414 C 0.95587 0.29673 0.41828 0.0
C415 C 0.99484 0.37263 0.6187 0.0
C416 C 0.98532 0.33269 0.62243 0.0
C417 C 0.00056 0.38504 0.58641 0.0
C418 C 0.99623 0.35736 0.55774 0.0
C419 C 0.9829 0.31645 0.56097 0.0
C420 C 0.97785 0.30429 0.59318 0.0
C421 C 0.01192 0.3716 0.52597 0.0
C422 C 0.9846 0.3548 0.49451 0.0
C423 C 0.05471 0.39545 0.52607 0.0
C424 C 0.0843 0.41289 0.55885 0.0
C425 C 0.09461 0.38797 0.57626 0.0
C426 C 0.12012 0.40391 0.60864 0.0
C427 C 0.13527 0.44464 0.6238 0.0
C428 C 0.12513 0.46951 0.60646 0.0
C429 C 0.09997 0.45385 0.574 0.0
H430 H 0.15485 0.45694 0.64891 0.0
H431 H 0.89288 0.28202 0.34414 0.0
H432 H 0.48418 0.04135 0.27847 0.0
H433 H 0.55501 0.06988 0.26915 0.0
H434 H 0.57605 0.19259 0.29218 0.0
H435 H 0.50519 0.16444 0.30176 0.0
H436 H 0.58799 0.11499 0.21893 0.0
H437 H 0.67775 0.25821 0.32473 0.0
H438 H 0.67437 0.28235 0.38411 0.0
H439 H 0.61189 0.15798 0.40308 0.0
H440 H 0.61531 0.13316 0.34396 0.0
H441 H 0.82531 0.2834 0.25456 0.0
H442 H 0.75359 0.25983 0.25858 0.0
H443 H 0.72127 0.13453 0.2246 0.0
H444 H 0.79287 0.15833 0.21926 0.0
H445 H 0.71403 0.21588 0.30199 0.0
H446 H 0.62018 0.07371 0.19211 0.0
H447 H 0.62247 0.05195 0.13169 0.0
H448 H 0.69264 0.17823 0.11878 0.0
H449 H 0.6903 0.20074 0.17894 0.0
C450 C 0.50399 0.07446 0.28223 0.0
C451 C 0.48882 0.10055 0.29076 0.0
C452 C 0.54443 0.09068 0.27667 0.0
C453 C 0.57066 0.13328 0.27975 0.0
C454 C 0.55635 0.15959 0.28987 0.0
C455 C 0.51583 0.1434 0.29547 0.0
C456 C 0.61224 0.14987 0.2706 0.0
C457 C 0.61567 0.13668 0.23718 0.0
C458 C 0.64809 0.17927 0.29401 0.0
C459 C 0.64648 0.19384 0.32983 0.0
C460 C 0.66346 0.23605 0.34164 0.0
C461 C 0.66149 0.24984 0.37523 0.0
C462 C 0.64283 0.22171 0.39732 0.0
C463 C 0.62621 0.17972 0.3859 0.0
C464 C 0.6281 0.16577 0.35233 0.0
C465 C 0.80263 0.25095 0.24696 0.0
C466 C 0.81453 0.22264 0.23657 0.0
C467 C 0.76172 0.23748 0.24947 0.0
C468 C 0.73195 0.19539 0.24206 0.0
C469 C 0.74345 0.16724 0.22994 0.0
C470 C 0.78438 0.18082 0.22684 0.0
C471 C 0.69007 0.18082 0.25022 0.0
C472 C 0.68649 0.19437 0.28353 0.0
C473 C 0.65405 0.15212 0.22651 0.0
C474 C 0.65541 0.13889 0.19018 0.0
C475 C 0.63598 0.09683 0.17634 0.0
C476 C 0.6373 0.08437 0.14214 0.0
C477 C 0.6578 0.11369 0.12145 0.0
C478 C 0.67692 0.15555 0.13488 0.0
C479 C 0.67566 0.16817 0.16905 0.0
H480 H 0.6588 0.10398 0.09498 0.0
H481 H 0.64131 0.23244 0.4233 0.0
H482 H 0.64797 0.50974 0.16775 0.0
H483 H 0.59652 0.43685 0.16417 0.0
H484 H 0.55476 0.46657 0.25452 0.0
H485 H 0.60555 0.53959 0.25797 0.0
H486 H 0.57916 0.404 0.25565 0.0
H487 H 0.49485 0.44094 0.18559 0.0
H488 H 0.4794 0.46983 0.13688 0.0
H489 H 0.48531 0.38155 0.06479 0.0
H490 H 0.50146 0.35252 0.11315 0.0
H491 H 0.40662 0.22432 0.27403 0.0
H492 H 0.44979 0.29434 0.26375 0.0
H493 H 0.46623 0.24757 0.16604 0.0
H494 H 0.42274 0.17686 0.17635 0.0
H495 H 0.4573 0.31678 0.16377 0.0
H496 H 0.53891 0.27773 0.23007 0.0
H497 H 0.55708 0.24801 0.27668 0.0
H498 H 0.56153 0.33942 0.35292 0.0
H499 H 0.54261 0.36926 0.30675 0.0
C500 C 0.62754 0.50077 0.18665 0.0
C501 C 0.63081 0.53027 0.21323 0.0
C502 C 0.59814 0.45924 0.18445 0.0
C503 C 0.57204 0.44661 0.20907 0.0
C504 C 0.57472 0.47597 0.23528 0.0
C505 C 0.60359 0.51758 0.23713 0.0
C506 C 0.54374 0.40251 0.20892 0.0
C507 C 0.55224 0.38499 0.23582 0.0
C508 C 0.50983 0.37763 0.1821 0.0
C509 C 0.49982 0.39486 0.15302 0.0
C510 C 0.49326 0.42794 0.15937 0.0
C511 C 0.48428 0.44428 0.13182 0.0
C512 C 0.48145 0.42758 0.09777 0.0
C513 C 0.48754 0.39446 0.09119 0.0
C514 C 0.49658 0.37804 0.11866 0.0
C515 C 0.41922 0.22891 0.25024 0.0
C516 C 0.4117 0.1953 0.22605 0.0
C517 C 0.4437 0.26887 0.24435 0.0
C518 C 0.46163 0.27602 0.21441 0.0
C519 C 0.45261 0.24255 0.18931 0.0
C520 C 0.42778 0.20231 0.19515 0.0
C521 C 0.49209 0.31856 0.21111 0.0
C522 C 0.4843 0.33574 0.18351 0.0
C523 C 0.52725 0.34313 0.23696 0.0
C524 C 0.53899 0.32554 0.26492 0.0
C525 C 0.54343 0.29131 0.25678 0.0
C526 C 0.55391 0.27445 0.28312 0.0
C527 C 0.56039 0.29176 0.31775 0.0
C528 C 0.55647 0.32602 0.32608 0.0
C529 C 0.54589 0.34294 0.29983 0.0
H530 H 0.56852 0.27868 0.3381 0.0
H531 H 0.47444 0.44024 0.07648 0.0
H532 H 0.95496 0.40965 0.23005 0.0
H533 H 0.93968 0.46432 0.2407 0.0
H534 H 0.95832 0.46472 0.35071 0.0
H535 H 0.97255 0.40904 0.33995 0.0
H536 H 0.89111 0.46315 0.33405 0.0
H537 H 0.02516 0.54749 0.31274 0.0
H538 H 0.08632 0.57156 0.28456 0.0
H539 H 0.01989 0.57858 0.19354 0.0
H540 H 0.95804 0.5537 0.2208 0.0
H541 H 0.84143 0.62659 0.33124 0.0
H542 H 0.88086 0.59355 0.34574 0.0
H543 H 0.8514 0.53471 0.2393 0.0
H544 H 0.81183 0.56672 0.2246 0.0
H545 H 0.93892 0.58133 0.2711 0.0
H546 H 0.80106 0.47867 0.29213 0.0
H547 H 0.74275 0.45999 0.32344 0.0
H548 H 0.82371 0.49592 0.42039 0.0
H549 H 0.88259 0.51519 0.3896 0.0
C550 C 0.95643 0.42187 0.25651 0.0
C551 C 0.9644 0.40488 0.28414 0.0
C552 C 0.94798 0.45332 0.26265 0.0
C553 C 0.94835 0.46905 0.29659 0.0
C554 C 0.95781 0.45306 0.32434 0.0
C555 C 0.96572 0.42117 0.31816 0.0
C556 C 0.9349 0.4992 0.30239 0.0
C557 C 0.90243 0.48962 0.321 0.0
C558 C 0.94977 0.53406 0.28572 0.0
C559 C 0.98679 0.5485 0.26885 0.0
C560 C 0.02342 0.55377 0.28659 0.0
C561 C 0.05826 0.56761 0.27077 0.0
C562 C 0.05698 0.57653 0.23726 0.0
C563 C 0.02084 0.57163 0.21949 0.0
C564 C 0.98588 0.55768 0.23514 0.0
C565 C 0.843 0.60624 0.31104 0.0
C566 C 0.82357 0.59935 0.27675 0.0
C567 C 0.86558 0.58758 0.31937 0.0
C568 C 0.86921 0.56223 0.29343 0.0
C569 C 0.8491 0.55456 0.25951 0.0
C570 C 0.82625 0.57266 0.25126 0.0
C571 C 0.89413 0.5435 0.3008 0.0
C572 C 0.92878 0.55549 0.28487 0.0
C573 C 0.88179 0.51142 0.32033 0.0
C574 C 0.84622 0.49874 0.33863 0.0
C575 C 0.80643 0.48277 0.32013 0.0
C576 C 0.77329 0.47204 0.33777 0.0
C577 C 0.77954 0.47689 0.37389 0.0
C578 C 0.81892 0.49224 0.39242 0.0
C579 C 0.85217 0.50301 0.37489 0.0
H580 H 0.75387 0.4687 0.38751 0.0
H581 H 0.08401 0.5873 0.22509 0.0
H582 H 0.03213 0.44735 0.69762 0.0
H583 H 0.05796 0.51797 0.68729 0.0
H584 H 0.11293 0.56399 0.79496 0.0
H585 H 0.08902 0.49336 0.80504 0.0
H586 H 0.05808 0.59474 0.75549 0.0
H587 H 0.17357 0.57457 0.75953 0.0
H588 H 0.21199 0.54124 0.74311 0.0
H589 H 0.20208 0.56618 0.63983 0.0
H590 H 0.1609 0.59697 0.65492 0.0
H591 H 0.24394 0.80256 0.75223 0.0
H592 H 0.21373 0.72863 0.74698 0.0
H593 H 0.10156 0.70941 0.68929 0.0
H594 H 0.13151 0.78414 0.69536 0.0
H595 H 0.18166 0.66283 0.69979 0.0
H596 H 0.02082 0.62988 0.71814 0.0
H597 H 0.98723 0.66706 0.7389 0.0
H598 H 0.09929 0.75651 0.80669 0.0
H599 H 0.13329 0.71949 0.78676 0.0
C600 C 0.04937 0.47257 0.71912 0.0
C601 C 0.0586 0.46521 0.75214 0.0
C602 C 0.06419 0.51272 0.71315 0.0
C603 C 0.08746 0.54589 0.74033 0.0
C604 C 0.09509 0.53855 0.77371 0.0
C605 C 0.08151 0.49844 0.77944 0.0
C606 C 0.10464 0.58833 0.73367 0.0
C607 C 0.08492 0.60962 0.74309 0.0
C608 C 0.13982 0.60748 0.7177 0.0
C609 C 0.16288 0.587 0.70815 0.0
C610 C 0.17818 0.57164 0.73299 0.0
C611 C 0.20063 0.55329 0.72393 0.0
C612 C 0.20903 0.55111 0.69032 0.0
C613 C 0.19509 0.56739 0.66575 0.0
C614 C 0.17182 0.58492 0.67445 0.0
C615 C 0.21307 0.78265 0.73784 0.0
C616 C 0.18976 0.79909 0.72478 0.0
C617 C 0.19592 0.74033 0.7347 0.0
C618 C 0.1551 0.71354 0.71843 0.0
C619 C 0.13291 0.72968 0.70251 0.0
C620 C 0.15013 0.7723 0.70573 0.0
C621 C 0.13523 0.66951 0.72163 0.0
C622 C 0.15433 0.64773 0.71155 0.0
C623 C 0.10008 0.65022 0.73771 0.0
C624 C 0.07969 0.67218 0.75061 0.0
C625 C 0.03821 0.65738 0.73758 0.0
C626 C 0.01911 0.67843 0.74919 0.0
C627 C 0.04117 0.71422 0.77399 0.0
C628 C 0.08229 0.72887 0.7874 0.0
C629 C 0.10147 0.70786 0.77596 0.0
H630 H 0.02638 0.73054 0.78286 0.0
H631 H 0.22662 0.53712 0.6834 0.0
H632 H 0.41431 0.97689 0.76044 0.0
H633 H 0.46276 0.95237 0.76264 0.0
H634 H 0.38337 0.85415 0.81417 0.0
H635 H 0.33605 0.87931 0.81343 0.0
H636 H 0.45843 0.87915 0.83937 0.0
H637 H 0.38014 0.84153 0.72408 0.0
H638 H 0.35452 0.8554 0.67008 0.0
H639 H 0.47837 0.93074 0.65283 0.0
H640 H 0.50473 0.91769 0.70698 0.0
H641 H 0.51177 0.73771 0.72551 0.0
H642 H 0.4721 0.77074 0.73575 0.0
H643 H 0.5709 0.86238 0.81541 0.0
H644 H 0.61035 0.82891 0.80598 0.0
H645 H 0.48941 0.84394 0.72587 0.0
H646 H 0.53196 0.89902 0.8744 0.0
H647 H 0.55004 0.87722 0.92702 0.0
H648 H 0.48388 0.75165 0.87522 0.0
H649 H 0.46492 0.7726 0.8225 0.0
C650 C 0.40749 0.95036 0.77257 0.0
C651 C 0.37111 0.92972 0.78632 0.0
C652 C 0.43513 0.93636 0.77379 0.0
C653 C 0.42624 0.90094 0.78796 0.0
C654 C 0.39088 0.88151 0.80308 0.0
C655 C 0.36371 0.89586 0.80244 0.0
C656 C 0.45176 0.88197 0.78488 0.0
C657 C 0.46546 0.87168 0.8146 0.0
C658 C 0.46021 0.8715 0.75245 0.0
C659 C 0.4444 0.87899 0.71972 0.0
C660 C 0.40189 0.86122 0.70885 0.0
C661 C 0.38725 0.86892 0.67822 0.0
C662 C 0.41481 0.89403 0.65809 0.0
C663 C 0.45707 0.91136 0.66849 0.0
C664 C 0.47188 0.90381 0.69912 0.0
C665 C 0.52485 0.76457 0.74553 0.0
C666 C 0.56424 0.78076 0.76487 0.0
C667 C 0.50221 0.78349 0.75126 0.0
C668 C 0.51858 0.81901 0.7763 0.0
C669 C 0.55746 0.83469 0.79626 0.0
C670 C 0.57997 0.81551 0.79081 0.0
C671 C 0.49563 0.84061 0.78027 0.0
C672 C 0.48267 0.85166 0.75071 0.0
C673 C 0.48673 0.85051 0.81263 0.0
C674 C 0.49746 0.83749 0.84438 0.0
C675 C 0.52116 0.86675 0.87429 0.0
C676 C 0.53157 0.85454 0.90413 0.0
C677 C 0.51826 0.81311 0.90442 0.0
C678 C 0.49433 0.78376 0.87492 0.0
C679 C 0.48379 0.7958 0.84504 0.0
H680 H 0.52639 0.80373 0.92753 0.0
H681 H 0.40342 0.89998 0.6344 0.0
H682 H 0.18103 0.45284 0.72374 0.0
H683 H 0.25046 0.48812 0.70961 0.0
H684 H 0.23346 0.3718 0.66429 0.0
H685 H 0.16339 0.33635 0.67729 0.0
H686 H 0.30486 0.42625 0.72282 0.0
H687 H 0.24238 0.42506 0.61038 0.0
H688 H 0.19637 0.43586 0.57 0.0
H689 H 0.26217 0.56439 0.61325 0.0
H690 H 0.30832 0.55431 0.65415 0.0
H691 H 0.5147 0.5421 0.6998 0.0
H692 H 0.44103 0.49 0.68953 0.0
H693 H 0.41218 0.58636 0.69293 0.0
H694 H 0.48492 0.63769 0.70103 0.0
H695 H 0.36111 0.52962 0.64538 0.0
H696 H 0.41359 0.53273 0.76315 0.0
H697 H 0.45695 0.52599 0.80969 0.0
H698 H 0.40774 0.3998 0.76473 0.0
H699 H 0.36452 0.40598 0.71761 0.0
C700 C 0.19185 0.4349 0.71021 0.0
C701 C 0.16712 0.39189 0.70187 0.0
C702 C 0.23133 0.45504 0.70206 0.0
C703 C 0.24682 0.43239 0.68603 0.0
C704 C 0.22178 0.38963 0.67659 0.0
C705 C 0.18189 0.36953 0.68398 0.0
C706 C 0.29047 0.45337 0.68237 0.0
C707 C 0.31734 0.4482 0.70534 0.0
C708 C 0.30625 0.48261 0.66022 0.0
C709 C 0.27875 0.48887 0.63543 0.0
C710 C 0.24691 0.45559 0.61143 0.0
C711 C 0.22086 0.4616 0.58838 0.0
C712 C 0.22632 0.50078 0.58908 0.0
C713 C 0.25798 0.53406 0.61272 0.0
C714 C 0.28417 0.52824 0.63577 0.0
C715 C 0.49243 0.55189 0.69819 0.0
C716 C 0.50537 0.5938 0.70113 0.0
C717 C 0.45042 0.52221 0.69242 0.0
C718 C 0.4209 0.5342 0.69075 0.0
C719 C 0.43412 0.57615 0.69374 0.0
C720 C 0.47579 0.60555 0.69854 0.0
C721 C 0.37621 0.50378 0.68686 0.0
C722 C 0.34895 0.5071 0.66242 0.0
C723 C 0.36005 0.47361 0.70846 0.0
C724 C 0.38639 0.47003 0.73654 0.0
C725 C 0.41236 0.50368 0.76299 0.0
C726 C 0.43684 0.49994 0.7895 0.0
C727 C 0.43526 0.46255 0.79007 0.0
C728 C 0.40908 0.42879 0.76417 0.0
C729 C 0.38461 0.43241 0.73754 0.0
H730 H 0.45419 0.4597 0.81065 0.0
H731 H 0.20601 0.50533 0.57132 0.0
H732 H 0.21608 0.06737 0.22261 0.0
H733 H 0.17191 0.09613 0.22395 0.0
H734 H 0.23541 0.16467 0.32594 0.0
H735 H 0.28065 0.13603 0.32498 0.0
H736 H 0.13625 0.124 0.30326 0.0
H737 H 0.27218 0.22117 0.28111 0.0
H738 H 0.33314 0.23728 0.2541 0.0
H739 H 0.25838 0.19431 0.15327 0.0
H740 H 0.19682 0.17719 0.17976 0.0
H741 H 0.11109 0.29994 0.24466 0.0
H742 H 0.15509 0.27207 0.25873 0.0
H743 H 0.0523 0.14898 0.22276 0.0
H744 H 0.00785 0.17646 0.20886 0.0
H745 H 0.17741 0.22458 0.22221 0.0
H746 H 0.05652 0.0873 0.27855 0.0
H747 H 0.99638 0.06946 0.30726 0.0
H748 H 0.04414 0.1974 0.34446 0.0
H749 H 0.10481 0.21599 0.31641 0.0
C750 C 0.22016 0.08763 0.24587 0.0
C751 C 0.25236 0.0998 0.27355 0.0
C752 C 0.19467 0.10388 0.24655 0.0
C753 C 0.20075 0.13261 0.27485 0.0
C754 C 0.23035 0.14232 0.30392 0.0
C755 C 0.25615 0.126 0.30328 0.0
C756 C 0.18038 0.15658 0.27098 0.0
C757 C 0.14533 0.14635 0.28592 0.0
C758 C 0.19272 0.18587 0.24852 0.0
C759 C 0.22988 0.19766 0.23242 0.0
C760 C 0.26872 0.21496 0.25318 0.0
C761 C 0.30337 0.22427 0.23798 0.0
C762 C 0.29963 0.21675 0.202 0.0
C763 C 0.26124 0.2001 0.18114 0.0
C764 C 0.22646 0.19062 0.19624 0.0
C765 C 0.09792 0.26695 0.23919 0.0
C766 C 0.05585 0.24043 0.2258 0.0
C767 C 0.12313 0.25111 0.24732 0.0
C768 C 0.10672 0.20849 0.24247 0.0
C769 C 0.06535 0.18199 0.22729 0.0
C770 C 0.0401 0.19779 0.219 0.0
C771 C 0.13262 0.19173 0.25411 0.0
C772 C 0.16859 0.20298 0.24022 0.0
C773 C 0.1214 0.16393 0.27801 0.0
C774 C 0.08511 0.15302 0.29517 0.0
C775 C 0.05429 0.11161 0.29299 0.0
C776 C 0.0201 0.10137 0.30915 0.0
C777 C 0.01651 0.13227 0.32773 0.0
C778 C 0.04699 0.1735 0.33007 0.0
C779 C 0.08124 0.1839 0.314 0.0
H780 H 0.99013 0.12428 0.34034 0.0
H781 H 0.32648 0.22389 0.19028 0.0
H782 H 0.87128 0.69429 0.16446 0.0
H783 H 0.94192 0.73023 0.1528 0.0
H784 H 0.97387 0.83002 0.23502 0.0
H785 H 0.90372 0.79485 0.24648 0.0
H786 H 0.00925 0.8586 0.18176 0.0
H787 H 0.99062 0.75287 0.24847 0.0
H788 H 0.95962 0.68192 0.26036 0.0
H789 H -0.00168 0.6471 0.17079 0.0
H790 H 0.02888 0.71772 0.15797 0.0
H791 H 0.22352 0.90549 0.25355 0.0
H792 H 0.14957 0.8554 0.24299 0.0
H793 H 0.13772 0.8919 0.14421 0.0
H794 H 0.21116 0.94296 0.1552 0.0
H795 H 0.09055 0.7907 0.19797 0.0
H796 H 0.05794 0.90303 0.13336 0.0
H797 H 0.09007 0.97758 0.13289 0.0
H798 H 0.1549 0.00344 0.2362 0.0
H799 H 0.12344 0.9293 0.23706 0.0
C800 C 0.89315 0.72435 0.17947 0.0
C801 C 0.88204 0.74163 0.20658 0.0
C802 C 0.93353 0.74462 0.17298 0.0
C803 C 0.96321 0.78242 0.19343 0.0
C804 C 0.95147 0.80078 0.21902 0.0
C805 C 0.91135 0.78059 0.22558 0.0
C806 C 0.00705 0.80248 0.18977 0.0
C807 C 0.02684 0.84349 0.18472 0.0
C808 C 0.03016 0.783 0.19443 0.0
C809 C 0.01151 0.74045 0.20196 0.0
C810 C 0.99212 0.72998 0.23108 0.0
C811 C 0.97469 0.68985 0.23803 0.0
C812 C 0.97687 0.65999 0.21627 0.0
C813 C 0.99654 0.67023 0.18755 0.0
C814 C 0.01388 0.7103 0.18041 0.0
C815 C 0.20526 0.90213 0.22926 0.0
C816 C 0.22285 0.92857 0.20547 0.0
C817 C 0.16304 0.87344 0.2232 0.0
C818 C 0.13801 0.87056 0.19314 0.0
C819 C 0.15631 0.89425 0.16792 0.0
C820 C 0.19826 0.92338 0.17422 0.0
C821 C 0.09263 0.84687 0.19021 0.0
C822 C 0.07264 0.80532 0.194 0.0
C823 C 0.06932 0.86614 0.18569 0.0
C824 C 0.08877 0.91076 0.18508 0.0
C825 C 0.07917 0.92474 0.15588 0.0
C826 C 0.09733 0.96691 0.15552 0.0
C827 C 0.12477 0.9953 0.18438 0.0
C828 C 0.13403 0.98157 0.21368 0.0
C829 C 0.11615 0.93948 0.21409 0.0
H830 H 0.1387 0.0279 0.18404 0.0
H831 H 0.96343 0.62896 0.22173 0.0
H832 H 0.95355 0.13982 0.27715 0.0
H833 H 0.92227 0.06785 0.28406 0.0
H834 H 0.81986 0.07124 0.31879 0.0
H835 H 0.85228 0.14426 0.31341 0.0
H836 H 0.83466 0.01768 0.34943 0.0
H837 H 0.81309 0.04025 0.23446 0.0
H838 H 0.83336 0.07204 0.18267 0.0
H839 H 0.90982 0.02016 0.17113 0.0
H840 H 0.89049 0.98855 0.22319 0.0
H841 H 0.71202 0.79388 0.28199 0.0
H842 H 0.73303 0.86715 0.28981 0.0
H843 H 0.85835 0.90019 0.28599 0.0
H844 H 0.83814 0.82799 0.27895 0.0
H845 H 0.81955 0.9332 0.23858 0.0
H846 H 0.8432 0.91599 0.3586 0.0
H847 H 0.82038 0.88461 0.41011 0.0
H848 H 0.73334 0.9249 0.40974 0.0
H849 H 0.75525 0.95599 0.35785 0.0
C850 C 0.92502 0.12554 0.28733 0.0
C851 C 0.90507 0.14726 0.29449 0.0
C852 C 0.90704 0.08441 0.29107 0.0
C853 C 0.86811 0.06389 0.30086 0.0
C854 C 0.84975 0.08644 0.31092 0.0
C855 C 0.86829 0.12809 0.30792 0.0
C856 C 0.84515 0.01839 0.29664 0.0
C857 C 0.83075 -0.00086 0.32506 0.0
C858 C 0.83951 0.99409 0.26467 0.0
C859 C 0.85048 0.01219 0.23283 0.0
C860 C 0.83434 0.03574 0.22095 0.0
C861 C 0.84567 0.05374 0.19156 0.0
C862 C 0.87289 0.04816 0.17364 0.0
C863 C 0.88873 0.02444 0.18503 0.0
C864 C 0.87755 0.00642 0.21445 0.0
C865 C 0.74402 0.81687 0.28292 0.0
C866 C 0.77344 0.80522 0.27995 0.0
C867 C 0.75595 0.85855 0.28753 0.0
C868 C 0.79722 0.88881 0.2886 0.0
C869 C 0.8264 0.87718 0.28537 0.0
C870 C 0.81475 0.83589 0.28142 0.0
C871 C 0.81055 0.93279 0.29165 0.0
C872 C 0.8229 0.95172 0.26279 0.0
C873 C 0.81354 0.95647 0.32295 0.0
C874 C 0.80043 0.93776 0.35407 0.0
C875 C 0.81885 0.91772 0.36925 0.0
C876 C 0.80618 0.9001 0.39858 0.0
C877 C 0.77532 0.90262 0.41311 0.0
C878 C 0.75716 0.92288 0.3984 0.0
C879 C 0.76971 0.94051 0.36905 0.0
H880 H 0.76556 0.88899 0.43584 0.0
H881 H 0.88167 0.06216 0.15091 0.0
H882 H 0.15479 0.30795 0.81323 0.0
H883 H 0.18799 0.26768 0.82163 0.0
H884 H 0.07786 0.15835 0.76687 0.0
H885 H 0.04453 0.19797 0.75913 0.0
H886 H 0.11594 0.13865 0.8148 0.0
H887 H 0.15355 0.22279 0.72387 0.0
H888 H 0.18229 0.28834 0.70167 0.0
H889 H 0.29796 0.334 0.76768 0.0
H890 H 0.26967 0.26872 0.79055 0.0
H891 H 0.16847 0.01446 0.71721 0.0
H892 H 0.14665 0.06321 0.7331 0.0
H893 H 0.26877 0.1509 0.78806 0.0
H894 H 0.29122 0.10261 0.77203 0.0
H895 H 0.23409 0.18722 0.75158 0.0
H896 H 0.1975 0.09443 0.83291 0.0
H897 H 0.16721 0.02578 0.84973 0.0
H898 H 0.04796 0.99419 0.79872 0.0
H899 H 0.07761 0.06246 0.78107 0.0
C900 C 0.13722 0.27505 0.80423 0.0
C901 C 0.09738 0.25617 0.78499 0.0
C902 C 0.1563 0.25214 0.80878 0.0
C903 C 0.13573 0.21025 0.79406 0.0
C904 C 0.09446 0.19067 0.77822 0.0
C905 C 0.07548 0.21341 0.77368 0.0
C906 C 0.15801 0.18779 0.79047 0.0
C907 C 0.14189 0.14933 0.80114 0.0
C908 C 0.19227 0.202 0.77303 0.0
C909 C 0.20935 0.24114 0.75924 0.0
C910 C 0.18501 0.24693 0.73382 0.0
C911 C 0.20123 0.28402 0.72111 0.0
C912 C 0.24187 0.31542 0.73338 0.0
C913 C 0.26644 0.30971 0.75829 0.0
C914 C 0.25034 0.27267 0.77113 0.0
C915 C 0.19097 0.04434 0.73216 0.0
C916 C 0.23153 0.05437 0.7436 0.0
C917 C 0.17833 0.07205 0.74145 0.0
C918 C 0.20589 0.11021 0.76244 0.0
C919 C 0.24697 0.12141 0.77214 0.0
C920 C 0.25969 0.09371 0.76289 0.0
C921 C 0.19128 0.13771 0.77508 0.0
C922 C 0.20887 0.17702 0.76608 0.0
C923 C 0.15818 0.12412 0.79379 0.0
C924 C 0.13988 0.08354 0.80547 0.0
C925 C 0.16484 0.07282 0.82516 0.0
C926 C 0.14778 0.03396 0.83483 0.0
C927 C 0.10572 0.00563 0.8252 0.0
C928 C 0.08055 0.01619 0.80611 0.0
C929 C 0.09746 0.055 0.79632 0.0
H930 H 0.09265 0.9755 0.83254 0.0
H931 H 0.25436 0.34412 0.72351 0.0
H932 H 0.10675 0.93029 0.77479 0.0
H933 H 0.03583 0.89725 0.78532 0.0
H934 H 0.05095 0.80598 0.83057 0.0
H935 H 0.12228 0.83934 0.82062 0.0
H936 H 0.98346 0.7737 0.77586 0.0
H937 H 0.0387 0.86951 0.88198 0.0
H938 H 0.08046 0.93783 0.91875 0.0
H939 H 0.01013 0.98053 0.86381 0.0
H940 H 0.96837 0.9127 0.8263 0.0
H941 H 0.76949 0.68238 0.79087 0.0
H942 H 0.84366 0.70825 0.80346 0.0
H943 H 0.86921 0.82826 0.78554 0.0
H944 H 0.79608 0.80329 0.77506 0.0
H945 H 0.91838 0.83924 0.83815 0.0
H946 H 0.87332 0.75245 0.72562 0.0
H947 H 0.83421 0.68785 0.68351 0.0
H948 H 0.88732 0.63259 0.74365 0.0
H949 H 0.92626 0.69668 0.78641 0.0
C950 C 0.09521 0.90371 0.78766 0.0
C951 C 0.11994 0.88737 0.79691 0.0
C952 C 0.05479 0.88493 0.79373 0.0
C953 C 0.03828 0.84925 0.80877 0.0
C954 C 0.06329 0.83362 0.8191 0.0
C955 C 0.10402 0.85285 0.81359 0.0
C956 C 0.99392 0.82649 0.81061 0.0
C957 C 0.96911 0.78751 0.79007 0.0
C958 C 0.97549 0.84511 0.82857 0.0
C959 C 0.00045 0.88597 0.85124 0.0
C960 C 0.03228 0.89353 0.87758 0.0
C961 C 0.05592 0.93217 0.8986 0.0
C962 C 0.04789 0.96347 0.89367 0.0
C963 C 0.0162 0.9562 0.8677 0.0
C964 C 0.99253 0.91765 0.84655 0.0
C965 C 0.79115 0.71423 0.7897 0.0
C966 C 0.77716 0.74091 0.78224 0.0
C967 C 0.83347 0.72899 0.79677 0.0
C968 C 0.86224 0.77028 0.79534 0.0
C969 C 0.84789 0.79649 0.7873 0.0
C970 C 0.80598 0.78212 0.78117 0.0
C971 C 0.90737 0.78702 0.80196 0.0
C972 C 0.9325 0.82489 0.82433 0.0
C973 C 0.92606 0.76782 0.78493 0.0
C974 C 0.90211 0.7291 0.75953 0.0
C975 C 0.87627 0.72636 0.73007 0.0
C976 C 0.85421 0.68987 0.70605 0.0
C977 C 0.8581 0.65606 0.711 0.0
C978 C 0.88417 0.65872 0.73994 0.0
C979 C 0.9062 0.6951 0.76409 0.0
H980 H 0.84106 0.62786 0.69233 0.0
H981 H 0.06628 0.99339 0.90992 0.0
H982 H 0.87325 0.19999 0.73961 0.0
H983 H 0.82103 0.12671 0.73342 0.0
H984 H 0.88833 0.09626 0.66621 0.0
H985 H 0.93944 0.16843 0.67143 0.0
H986 H 0.80917 0.0475 0.64393 0.0
H987 H 0.90256 0.09585 0.75326 0.0
H988 H 0.93687 0.14011 0.81032 0.0
H989 H 0.81965 0.09725 0.8425 0.0
H990 H 0.78463 0.05309 0.78542 0.0
H991 H 0.77301 0.86288 0.7382 0.0
H992 H 0.81058 0.93466 0.73036 0.0
H993 H 0.70284 0.91642 0.6654 0.0
H994 H 0.66564 0.84416 0.67209 0.0
H995 H 0.79472 0.99015 0.75291 0.0
H996 H 0.7312 0.98968 0.61322 0.0
H997 H 0.70567 0.94561 0.55571 0.0
H998 H 0.77739 0.89136 0.58342 0.0
H999 H 0.80372 0.93545 0.64089 0.0
C1000 C 0.87648 0.17765 0.72312 0.0
C1001 C 0.91086 0.19002 0.70651 0.0
C1002 C 0.8467 0.13588 0.71963 0.0
C1003 C 0.85111 0.10609 0.69963 0.0
C1004 C 0.88424 0.11867 0.68169 0.0
C1005 C 0.91373 0.16008 0.68506 0.0
C1006 C 0.82397 0.06165 0.69962 0.0
C1007 C 0.80552 0.03487 0.66774 0.0
C1008 C 0.82002 0.04526 0.73065 0.0
C1009 C 0.84099 0.07162 0.76499 0.0
C1010 C 0.88411 0.09611 0.77244 0.0
C1011 C 0.90368 0.12113 0.80478 0.0
C1012 C 0.88044 0.12161 0.82998 0.0
C1013 C 0.8376 0.09694 0.82292 0.0
C1014 C 0.81787 0.07191 0.79059 0.0
C1015 C 0.75771 0.87398 0.72155 0.0
C1016 C 0.71645 0.84809 0.70581 0.0
C1017 C 0.77907 0.915 0.71726 0.0
C1018 C 0.75942 0.93099 0.69754 0.0
C1019 C 0.71878 0.90467 0.68043 0.0
C1020 C 0.69758 0.86337 0.68422 0.0
C1021 C 0.7807 0.97575 0.69712 0.0
C1022 C 0.79773 0.00261 0.72902 0.0
C1023 C 0.78448 0.99208 0.66603 0.0
C1024 C 0.769 0.96551 0.6315 0.0
C1025 C 0.74156 0.9684 0.607 0.0
C1026 C 0.72696 0.94341 0.57441 0.0
C1027 C 0.73977 0.91559 0.56597 0.0
C1028 C 0.76733 0.91278 0.59005 0.0
C1029 C 0.78205 0.93772 0.62265 0.0
H1030 H 0.72843 0.89628 0.54073 0.0
H1031 H 0.89564 0.141 0.855 0.0
loop_
_geom_bond_atom_site_label_1
_geom_bond_atom_site_label_2
_geom_bond_distance
_geom_bond_site_symmetry_2
_ccdc_geom_bond_type
Sc0 O3 2.025 . S
Sc0 O10 2.105 . S
Sc0 O13 2.105 . S
Sc0 O16 2.105 . S
Sc0 O19 2.105 . S
Sc1 O3 2.025 . S
Sc1 O11 2.105 . S
Sc1 O15 2.105 . S
Sc1 O17 2.105 1_545 S
Sc1 O21 2.105 . S
Sc2 O3 2.025 . S
Sc2 O12 2.105 . S
Sc2 O14 2.105 . S
Sc2 O18 2.105 . S
Sc2 O20 2.105 . S
O3 Sc0 2.025 . S
O3 Sc1 2.025 . S
O3 Sc2 2.025 . S
C4 O10 1.268 . S
C4 O20 1.268 . S
C5 O11 1.268 . S
C5 O19 1.268 . S
C6 O12 1.268 . S
C6 O21 1.268 . S
C7 O13 1.268 1_565 S
C7 O17 1.268 . S
C8 O14 1.268 . S
C8 O16 1.268 . S
C9 O15 1.268 . S
C9 O18 1.268 . S
O10 Sc0 2.105 . S
O10 C4 1.268 . S
O11 Sc1 2.105 . S
O11 C5 1.268 . S
O12 Sc2 2.105 . S
O12 C6 1.268 . S
O13 Sc0 2.105 . S
O13 C7 1.268 1_545 S
O14 Sc2 2.105 . S
O14 C8 1.268 . S
O15 Sc1 2.105 . S
O15 C9 1.268 . S
O16 Sc0 2.105 . S
O16 C8 1.268 . S
O17 Sc1 2.105 1_565 S
O17 C7 1.268 . S
O18 Sc2 2.105 . S
O18 C9 1.268 . S
O19 Sc0 2.105 . S
O19 C5 1.268 . S
O20 Sc2 2.105 . S
O20 C4 1.268 . S
O21 Sc1 2.105 . S
O21 C6 1.268 . S
Sc22 O25 2.025 . S
Sc22 O32 2.105 . S
Sc22 O35 2.105 . S
Sc22 O38 2.105 . S
Sc22 O41 2.105 . S
Sc23 O25 2.025 . S
Sc23 O33 2.105 . S
Sc23 O37 2.105 . S
Sc23 O39 2.105 . S
Sc23 O43 2.105 . S
Sc24 O25 2.025 . S
Sc24 O34 2.105 . S
Sc24 O36 2.105 . S
Sc24 O40 2.105 . S
Sc24 O42 2.105 . S
O25 Sc22 2.025 . S
O25 Sc23 2.025 . S
O25 Sc24 2.025 . S
C26 O32 1.268 . S
C26 O42 1.268 . S
C27 O33 1.268 . S
C27 O41 1.268 . S
C28 O34 1.268 . S
C28 O43 1.268 . S
C29 O35 1.268 . S
C29 O39 1.268 . S
C30 O36 1.268 . S
C30 O38 1.268 . S
C31 O37 1.268 . S
C31 O40 1.268 . S
O32 Sc22 2.105 . S
O32 C26 1.268 . S
O33 Sc23 2.105 . S
O33 C27 1.268 . S
O34 Sc24 2.105 . S
O34 C28 1.268 . S
O35 Sc22 2.105 . S
O35 C29 1.268 . S
O36 Sc24 2.105 . S
O36 C30 1.268 . S
O37 Sc23 2.105 . S
O37 C31 1.268 . S
O38 Sc22 2.105 . S
O38 C30 1.268 . S
O39 Sc23 2.105 . S
O39 C29 1.268 . S
O40 Sc24 2.105 . S
O40 C31 1.268 . S
O41 Sc22 2.105 . S
O41 C27 1.268 . S
O42 Sc24 2.105 . S
O42 C26 1.268 . S
O43 Sc23 2.105 . S
O43 C28 1.268 . S
Sc44 O47 2.025 . S
Sc44 O54 2.105 . S
Sc44 O57 2.105 . S
Sc44 O60 2.105 . S
Sc44 O63 2.105 . S
Sc45 O47 2.025 . S
Sc45 O55 2.105 . S
Sc45 O59 2.105 . S
Sc45 O61 2.105 1_655 S
Sc45 O65 2.105 . S
Sc46 O47 2.025 . S
Sc46 O56 2.105 . S
Sc46 O58 2.105 . S
Sc46 O62 2.105 . S
Sc46 O64 2.105 . S
O47 Sc44 2.025 . S
O47 Sc45 2.025 . S
O47 Sc46 2.025 . S
C48 O54 1.268 . S
C48 O64 1.268 . S
C49 O55 1.268 . S
C49 O63 1.268 . S
C50 O56 1.268 . S
C50 O65 1.268 . S
C51 O57 1.288 . S
C51 O61 1.278 1_655 S
C52 O58 1.268 . S
C52 O60 1.268 . S
C53 O59 1.268 . S
C53 O62 1.268 . S
O54 Sc44 2.105 . S
O54 C48 1.268 . S
O55 Sc45 2.105 . S
O55 C49 1.268 . S
O56 Sc46 2.105 . S
O56 C50 1.268 . S
O57 Sc44 2.105 . S
O57 C51 1.288 . S
O58 Sc46 2.105 . S
O58 C52 1.268 . S
O59 Sc45 2.105 . S
O59 C53 1.268 . S
O60 Sc44 2.105 . S
O60 C52 1.268 . S
O61 Sc45 2.105 1_455 S
O61 C51 1.278 1_455 S
O62 Sc46 2.105 . S
O62 C53 1.268 . S
O63 Sc44 2.105 . S
O63 C49 1.268 . S
O64 Sc46 2.105 . S
O64 C48 1.268 . S
O65 Sc45 2.105 . S
O65 C50 1.268 . S
Sc66 O69 2.025 . S
Sc66 O76 2.105 . S
Sc66 O79 2.105 . S
Sc66 O82 2.105 . S
Sc66 O85 2.105 . S
Sc67 O69 2.025 . S
Sc67 O77 2.105 1_455 S
Sc67 O81 2.105 . S
Sc67 O83 2.105 . S
Sc67 O87 2.105 . S
Sc68 O69 2.025 . S
Sc68 O78 2.105 . S
Sc68 O80 2.105 . S
Sc68 O84 2.105 . S
Sc68 O86 2.105 . S
O69 Sc66 2.025 . S
O69 Sc67 2.025 . S
O69 Sc68 2.025 . S
C70 O76 1.268 . S
C70 O86 1.268 . S
C71 O77 1.268 . S
C71 O85 1.268 1_655 S
C72 O78 1.268 . S
C72 O87 1.268 . S
C73 O79 1.268 . S
C73 O83 1.268 . S
C74 O80 1.268 . S
C74 O82 1.268 . S
C75 O81 1.268 . S
C75 O84 1.268 . S
O76 Sc66 2.105 . S
O76 C70 1.268 . S
O77 Sc67 2.105 1_655 S
O77 C71 1.268 . S
O78 Sc68 2.105 . S
O78 C72 1.268 . S
O79 Sc66 2.105 . S
O79 C73 1.268 . S
O80 Sc68 2.105 . S
O80 C74 1.268 . S
O81 Sc67 2.105 . S
O81 C75 1.268 . S
O82 Sc66 2.105 . S
O82 C74 1.268 . S
O83 Sc67 2.105 . S
O83 C73 1.268 . S
O84 Sc68 2.105 . S
O84 C75 1.268 . S
O85 Sc66 2.105 . S
O85 C71 1.268 1_455 S
O86 Sc68 2.105 . S
O86 C70 1.268 . S
O87 Sc67 2.105 . S
O87 C72 1.268 . S
Sc88 O91 2.025 . S
Sc88 O98 2.105 . S
Sc88 O101 2.105 . S
Sc88 O104 2.105 . S
Sc88 O107 2.105 . S
Sc89 O91 2.025 . S
Sc89 O99 2.105 1_565 S
Sc89 O103 2.105 . S
Sc89 O105 2.105 . S
Sc89 O109 2.105 . S
Sc90 O91 2.025 . S
Sc90 O100 2.105 . S
Sc90 O102 2.105 . S
Sc90 O106 2.105 . S
Sc90 O108 2.105 . S
O91 Sc88 2.025 . S
O91 Sc89 2.025 . S
O91 Sc90 2.025 . S
C92 O98 1.268 . S
C92 O108 1.268 . S
C93 O99 1.278 1_565 S
C93 O107 1.288 . S
C94 O100 1.268 . S
C94 O109 1.268 . S
C95 O101 1.268 . S
C95 O105 1.268 . S
C96 O102 1.268 . S
C96 O104 1.268 . S
C97 O103 1.268 . S
C97 O106 1.268 . S
O98 Sc88 2.105 . S
O98 C92 1.268 . S
O99 Sc89 2.105 1_545 S
O99 C93 1.278 1_545 S
O100 Sc90 2.105 . S
O100 C94 1.268 . S
O101 Sc88 2.105 . S
O101 C95 1.268 . S
O102 Sc90 2.105 . S
O102 C96 1.268 . S
O103 Sc89 2.105 . S
O103 C97 1.268 . S
O104 Sc88 2.105 . S
O104 C96 1.268 . S
O105 Sc89 2.105 . S
O105 C95 1.268 . S
O106 Sc90 2.105 . S
O106 C97 1.268 . S
O107 Sc88 2.105 . S
O107 C93 1.288 . S
O108 Sc90 2.105 . S
O108 C92 1.268 . S
O109 Sc89 2.105 . S
O109 C94 1.268 . S
Sc110 O113 2.025 . S
Sc110 O120 2.105 . S
Sc110 O123 2.105 . S
Sc110 O126 2.105 . S
Sc110 O129 2.105 . S
Sc111 O113 2.025 . S
Sc111 O121 2.105 . S
Sc111 O125 2.105 . S
Sc111 O127 2.105 . S
Sc111 O131 2.105 . S
Sc112 O113 2.025 . S
Sc112 O122 2.105 . S
Sc112 O124 2.105 . S
Sc112 O128 2.105 . S
Sc112 O130 2.105 . S
O113 Sc110 2.025 . S
O113 Sc111 2.025 . S
O113 Sc112 2.025 . S
C114 O120 1.268 . S
C114 O130 1.268 . S
C115 O121 1.268 . S
C115 O129 1.268 . S
C116 O122 1.268 . S
C116 O131 1.268 . S
C117 O123 1.268 . S
C117 O127 1.268 . S
C118 O124 1.268 . S
C118 O126 1.268 . S
C119 O125 1.268 . S
C119 O128 1.268 . S
O120 Sc110 2.105 . S
O120 C114 1.268 . S
O121 Sc111 2.105 . S
O121 C115 1.268 . S
O122 Sc112 2.105 . S
O122 C116 1.268 . S
O123 Sc110 2.105 . S
O123 C117 1.268 . S
O124 Sc112 2.105 . S
O124 C118 1.268 . S
O125 Sc111 2.105 . S
O125 C119 1.268 . S
O126 Sc110 2.105 . S
O126 C118 1.268 . S
O127 Sc111 2.105 . S
O127 C117 1.268 . S
O128 Sc112 2.105 . S
O128 C119 1.268 . S
O129 Sc110 2.105 . S
O129 C115 1.268 . S
O130 Sc112 2.105 . S
O130 C114 1.268 . S
O131 Sc111 2.105 . S
O131 C116 1.268 . S
H132 C150 0.951 . S
H133 C152 0.951 . S
H134 C154 0.950 . S
H135 C155 0.950 . S
H136 C157 0.950 . S
H137 C160 0.950 . S
H138 C161 0.950 . S
H139 C163 0.950 . S
H140 C164 0.950 . S
H141 C165 0.936 1_565 S
H142 C167 0.951 . S
H143 C169 0.950 . S
H144 C170 0.950 . S
H145 C172 0.950 . S
H146 C175 0.950 1_545 S
H147 C176 0.950 . S
H148 C178 0.950 . S
H149 C179 0.950 . S
C150 H132 0.951 . S
C150 C151 1.366 1_545 S
C150 C152 1.388 . S
C151 C150 1.366 1_565 S
C151 C155 1.385 . S
C152 H133 0.951 . S
C152 C150 1.388 . S
C152 C153 1.366 1_545 S
C153 C152 1.366 1_565 S
C153 C154 1.414 . S
C153 C156 1.499 1_565 S
C154 H134 0.950 . S
C154 C153 1.414 . S
C154 C155 1.374 . S
C155 H135 0.950 . S
C155 C151 1.385 . S
C155 C154 1.374 . S
C156 C153 1.499 1_545 S
C156 C157 1.372 1_545 S
C156 C158 1.391 . S
C157 H136 0.950 . S
C157 C156 1.372 1_565 S
C157 C173 1.377 1_556 S
C158 C156 1.391 . S
C158 C159 1.524 . S
C158 C172 1.377 1_556 S
C159 C158 1.524 . S
C159 C160 1.397 . S
C159 C164 1.363 . S
C160 H137 0.950 . S
C160 C159 1.397 . S
C160 C161 1.334 . S
C161 H138 0.950 . S
C161 C160 1.334 . S
C161 C162 1.287 . S
C162 C161 1.287 . S
C162 C163 1.524 . S
C162 H181 0.913 . S
C163 H139 0.950 . S
C163 C162 1.524 . S
C163 C164 1.415 . S
C164 H140 0.950 . S
C164 C159 1.363 . S
C164 C163 1.415 . S
C165 H141 0.936 1_545 S
C165 C166 1.381 . S
C165 C167 1.388 1_545 S
C166 C165 1.381 . S
C166 C170 1.385 . S
C167 H142 0.951 . S
C167 C165 1.388 1_565 S
C167 C168 1.366 1_565 S
C168 C167 1.366 1_545 S
C168 C169 1.414 . S
C168 C171 1.499 . S
C169 H143 0.950 . S
C169 C168 1.414 . S
C169 C170 1.374 . S
C170 H144 0.950 . S
C170 C166 1.385 . S
C170 C169 1.374 . S
C171 C168 1.499 . S
C171 C172 1.373 . S
C171 C173 1.389 1_545 S
C172 H145 0.950 . S
C172 C158 1.377 1_554 S
C172 C171 1.373 . S
C173 C157 1.377 1_554 S
C173 C171 1.389 1_565 S
C173 C174 1.524 . S
C174 C173 1.524 . S
C174 C175 1.397 . S
C174 C179 1.363 . S
C175 H146 0.950 1_565 S
C175 C174 1.397 . S
C175 C176 1.334 . S
C176 H147 0.950 . S
C176 C175 1.334 . S
C176 C177 1.287 . S
C177 C176 1.287 . S
C177 C178 1.524 . S
C177 H180 0.999 . S
C178 H148 0.950 . S
C178 C177 1.524 . S
C178 C179 1.415 . S
C179 H149 0.950 . S
C179 C174 1.363 . S
C179 C178 1.415 . S
H180 C177 0.999 . S
H181 C162 0.913 . S
H182 C200 0.951 . S
H183 C202 0.951 . S
H184 C204 0.950 . S
H185 C205 0.950 . S
H186 C207 0.950 . S
H187 C210 0.950 . S
H188 C211 0.950 . S
H189 C213 0.950 . S
H190 C214 0.950 . S
H191 C215 0.951 . S
H192 C217 0.951 . S
H193 C219 0.950 . S
H194 C220 0.950 . S
H195 C222 0.950 . S
H196 C225 0.950 . S
H197 C226 0.950 . S
H198 C228 0.950 . S
H199 C229 0.950 . S
C200 H182 0.951 . S
C200 C201 1.366 . S
C200 C202 1.388 . S
C201 C200 1.366 . S
C201 C205 1.385 . S
C202 H183 0.951 . S
C202 C200 1.388 . S
C202 C203 1.366 . S
C203 C202 1.366 . S
C203 C204 1.414 . S
C203 C206 1.499 . S
C204 H184 0.950 . S
C204 C203 1.414 . S
C204 C205 1.374 . S
C205 H185 0.950 . S
C205 C201 1.385 . S
C205 C204 1.374 . S
C206 C203 1.499 . S
C206 C207 1.373 . S
C206 C208 1.389 . S
C207 H186 0.950 . S
C207 C206 1.373 . S
C207 C223 1.377 . S
C208 C206 1.389 . S
C208 C209 1.524 . S
C208 C222 1.377 . S
C209 C208 1.524 . S
C209 C210 1.397 . S
C209 C214 1.363 . S
C210 H187 0.950 . S
C210 C209 1.397 . S
C210 C211 1.334 . S
C211 H188 0.950 . S
C211 C210 1.334 . S
C211 C212 1.287 . S
C212 C211 1.287 . S
C212 C213 1.524 . S
C212 H231 0.913 . S
C213 H189 0.950 . S
C213 C212 1.524 . S
C213 C214 1.415 . S
C214 H190 0.950 . S
C214 C209 1.363 . S
C214 C213 1.415 . S
C215 H191 0.951 . S
C215 C216 1.366 . S
C215 C217 1.388 . S
C216 C215 1.366 . S
C216 C220 1.385 . S
C217 H192 0.951 . S
C217 C215 1.388 . S
C217 C218 1.366 . S
C218 C217 1.366 . S
C218 C219 1.414 . S
C218 C221 1.499 . S
C219 H193 0.950 . S
C219 C218 1.414 . S
C219 C220 1.374 . S
C220 H194 0.950 . S
C220 C216 1.385 . S
C220 C219 1.374 . S
C221 C218 1.499 . S
C221 C222 1.373 . S
C221 C223 1.389 . S
C222 H195 0.950 . S
C222 C208 1.377 . S
C222 C221 1.373 . S
C223 C207 1.377 . S
C223 C221 1.389 . S
C223 C224 1.524 . S
C224 C223 1.524 . S
C224 C225 1.397 . S
C224 C229 1.363 . S
C225 H196 0.950 . S
C225 C224 1.397 . S
C225 C226 1.334 . S
C226 H197 0.950 . S
C226 C225 1.334 . S
C226 C227 1.287 . S
C227 C226 1.287 . S
C227 C228 1.524 . S
C227 H230 0.999 . S
C228 H198 0.950 . S
C228 C227 1.524 . S
C228 C229 1.415 . S
C229 H199 0.950 . S
C229 C224 1.363 . S
C229 C228 1.415 . S
H230 C227 0.999 . S
H231 C212 0.913 . S
H232 C250 0.951 . S
H233 C252 0.951 . S
H234 C254 0.950 . S
H235 C255 0.950 1_455 S
H236 C257 0.950 . S
H237 C260 0.950 . S
H238 C261 0.950 . S
H239 C263 0.950 1_556 S
H240 C264 0.940 1_556 S
H241 C265 0.951 . S
H242 C267 0.951 . S
H243 C269 0.950 . S
H244 C270 0.950 . S
H245 C272 0.950 . S
H246 C275 0.950 1_655 S
H247 C276 0.950 . S
H248 C278 0.950 . S
H249 C279 0.950 . S
C250 H232 0.951 . S
C250 C251 1.366 . S
C250 C252 1.388 . S
C251 C250 1.366 . S
C251 C255 1.385 . S
C252 H233 0.951 . S
C252 C250 1.388 . S
C252 C253 1.366 . S
C253 C252 1.366 . S
C253 C254 1.414 1_655 S
C253 C256 1.499 . S
C254 H234 0.950 . S
C254 C253 1.414 1_455 S
C254 C255 1.374 1_455 S
C255 H235 0.950 1_655 S
C255 C251 1.385 . S
C255 C254 1.374 1_655 S
C256 C253 1.499 . S
C256 C257 1.373 1_655 S
C256 C258 1.389 . S
C257 H236 0.950 . S
C257 C256 1.373 1_455 S
C257 C273 1.377 1_554 S
C258 C256 1.389 . S
C258 C259 1.524 . S
C258 C272 1.377 1_554 S
C259 C258 1.524 . S
C259 C260 1.397 . S
C259 C264 1.368 . S
C260 H237 0.950 . S
C260 C259 1.397 . S
C260 C261 1.334 . S
C261 H238 0.950 . S
C261 C260 1.334 . S
C261 C262 1.287 . S
C262 C261 1.287 . S
C262 C263 1.524 . S
C262 H281 0.913 . S
C263 H239 0.950 1_554 S
C263 C262 1.524 . S
C263 C264 1.419 . S
C264 H240 0.940 1_554 S
C264 C259 1.368 . S
C264 C263 1.419 . S
C265 H241 0.951 . S
C265 C266 1.366 . S
C265 C267 1.388 . S
C266 C265 1.366 . S
C266 C270 1.385 1_455 S
C267 H242 0.951 . S
C267 C265 1.388 . S
C267 C268 1.366 . S
C268 C267 1.366 . S
C268 C269 1.414 1_455 S
C268 C271 1.498 . S
C269 H243 0.950 . S
C269 C268 1.414 1_655 S
C269 C270 1.374 . S
C270 H244 0.950 . S
C270 C266 1.385 1_655 S
C270 C269 1.374 . S
C271 C268 1.498 . S
C271 C272 1.374 1_455 S
C271 C273 1.389 . S
C272 H245 0.950 . S
C272 C258 1.377 1_556 S
C272 C271 1.374 1_655 S
C273 C257 1.377 1_556 S
C273 C271 1.389 . S
C273 C274 1.524 . S
C274 C273 1.524 . S
C274 C275 1.397 . S
C274 C279 1.363 1_556 S
C275 H246 0.950 1_455 S
C275 C274 1.397 . S
C275 C276 1.334 . S
C276 H247 0.950 . S
C276 C275 1.334 . S
C276 C277 1.287 . S
C277 C276 1.287 . S
C277 C278 1.524 1_556 S
C277 H280 0.999 . S
C278 H248 0.950 . S
C278 C277 1.524 1_554 S
C278 C279 1.415 . S
C279 H249 0.950 . S
C279 C274 1.363 1_554 S
C279 C278 1.415 . S
H280 C277 0.999 . S
H281 C262 0.913 . S
H282 C300 0.951 . S
H283 C302 0.951 . S
H284 C304 0.950 . S
H285 C305 0.950 . S
H286 C307 0.950 . S
H287 C310 0.950 . S
H288 C311 0.936 1_565 S
H289 C313 0.950 . S
H290 C314 0.950 . S
H291 C315 0.951 . S
H292 C317 0.951 . S
H293 C319 0.950 . S
H294 C320 0.950 1_545 S
H295 C322 0.952 1_545 S
H296 C325 0.950 1_545 S
H297 C326 0.952 1_545 S
H298 C328 0.950 . S
H299 C329 0.950 . S
C300 H282 0.951 . S
C300 C301 1.366 . S
C300 C302 1.388 . S
C301 C300 1.366 . S
C301 C305 1.385 1_545 S
C302 H283 0.951 . S
C302 C300 1.388 . S
C302 C303 1.366 . S
C303 C302 1.366 . S
C303 C304 1.414 1_545 S
C303 C306 1.493 1_545 S
C304 H284 0.950 . S
C304 C303 1.414 1_565 S
C304 C305 1.374 . S
C305 H285 0.950 . S
C305 C301 1.385 1_565 S
C305 C304 1.374 . S
C306 C303 1.493 1_565 S
C306 C307 1.372 . S
C306 C308 1.396 1_565 S
C307 H286 0.950 . S
C307 C306 1.372 . S
C307 C323 1.377 . S
C308 C306 1.396 1_545 S
C308 C309 1.524 . S
C308 C322 1.375 1_545 S
C309 C308 1.524 . S
C309 C310 1.397 1_545 S
C309 C314 1.363 . S
C310 H287 0.950 . S
C310 C309 1.397 1_565 S
C310 C311 1.341 1_565 S
C311 H288 0.936 1_545 S
C311 C310 1.341 1_545 S
C311 C312 1.295 . S
C312 C311 1.295 . S
C312 C313 1.524 . S
C312 H331 0.913 . S
C313 H289 0.950 . S
C313 C312 1.524 . S
C313 C314 1.415 . S
C314 H290 0.950 . S
C314 C309 1.363 . S
C314 C313 1.415 . S
C315 H291 0.951 . S
C315 C316 1.366 . S
C315 C317 1.388 . S
C316 C315 1.366 . S
C316 C320 1.385 . S
C317 H292 0.951 . S
C317 C315 1.388 . S
C317 C318 1.366 . S
C318 C317 1.366 . S
C318 C319 1.414 1_565 S
C318 C321 1.499 . S
C319 H293 0.950 . S
C319 C318 1.414 1_545 S
C319 C320 1.374 1_545 S
C320 H294 0.950 1_565 S
C320 C316 1.385 . S
C320 C319 1.374 1_565 S
C321 C318 1.499 . S
C321 C322 1.373 . S
C321 C323 1.389 . S
C322 H295 0.952 1_565 S
C322 C308 1.375 1_565 S
C322 C321 1.373 . S
C323 C307 1.377 . S
C323 C321 1.389 . S
C323 C324 1.524 . S
C324 C323 1.524 . S
C324 C325 1.397 . S
C324 C329 1.363 . S
C325 H296 0.950 1_565 S
C325 C324 1.397 . S
C325 C326 1.334 . S
C326 H297 0.952 1_565 S
C326 C325 1.334 . S
C326 C327 1.287 . S
C327 C326 1.287 . S
C327 C328 1.524 . S
C327 H330 0.999 . S
C328 H298 0.950 . S
C328 C327 1.524 . S
C328 C329 1.415 . S
C329 H299 0.950 . S
C329 C324 1.363 . S
C329 C328 1.415 . S
H330 C327 0.999 . S
H331 C312 0.913 . S
H332 C350 0.951 . S
H333 C352 0.951 . S
H334 C354 0.950 . S
H335 C355 0.950 . S
H336 C357 0.950 . S
H337 C360 0.950 . S
H338 C361 0.950 . S
H339 C363 0.950 . S
H340 C364 0.950 1_554 S
H341 C365 0.951 . S
H342 C367 0.951 . S
H343 C369 0.950 . S
H344 C370 0.950 . S
H345 C372 0.950 . S
H346 C375 0.950 . S
H347 C376 0.950 . S
H348 C378 0.950 1_556 S
H349 C379 0.950 . S
C350 H332 0.951 . S
C350 C351 1.366 . S
C350 C352 1.388 . S
C351 C350 1.366 . S
C351 C355 1.385 . S
C352 H333 0.951 . S
C352 C350 1.388 . S
C352 C353 1.366 . S
C353 C352 1.366 . S
C353 C354 1.414 . S
C353 C356 1.499 . S
C354 H334 0.950 . S
C354 C353 1.414 . S
C354 C355 1.374 . S
C355 H335 0.950 . S
C355 C351 1.385 . S
C355 C354 1.374 . S
C356 C353 1.499 . S
C356 C357 1.373 . S
C356 C358 1.389 . S
C357 H336 0.950 . S
C357 C356 1.373 . S
C357 C373 1.405 . S
C358 C356 1.389 . S
C358 C359 1.524 . S
C358 C372 1.377 1_556 S
C359 C358 1.524 . S
C359 C360 1.397 . S
C359 C364 1.363 . S
C360 H337 0.950 . S
C360 C359 1.397 . S
C360 C361 1.334 . S
C361 H338 0.950 . S
C361 C360 1.334 . S
C361 C362 1.287 . S
C362 C361 1.287 . S
C362 C363 1.524 . S
C362 H381 0.913 . S
C363 H339 0.950 . S
C363 C362 1.524 . S
C363 C364 1.415 . S
C364 H340 0.950 1_556 S
C364 C359 1.363 . S
C364 C363 1.415 . S
C365 H341 0.951 . S
C365 C366 1.366 . S
C365 C367 1.388 . S
C366 C365 1.366 . S
C366 C370 1.385 . S
C367 H342 0.951 . S
C367 C365 1.388 . S
C367 C368 1.366 . S
C368 C367 1.366 . S
C368 C369 1.414 . S
C368 C371 1.499 . S
C369 H343 0.950 . S
C369 C368 1.414 . S
C369 C370 1.374 . S
C370 H344 0.950 . S
C370 C366 1.385 . S
C370 C369 1.374 . S
C371 C368 1.499 . S
C371 C372 1.373 . S
C371 C373 1.375 1_554 S
C372 H345 0.950 . S
C372 C358 1.377 1_554 S
C372 C371 1.373 . S
C373 C357 1.405 . S
C373 C371 1.375 1_556 S
C373 C374 1.512 1_556 S
C374 C373 1.512 1_554 S
C374 C375 1.397 . S
C374 C379 1.363 1_554 S
C375 H346 0.950 . S
C375 C374 1.397 . S
C375 C376 1.334 . S
C376 H347 0.950 . S
C376 C375 1.334 . S
C376 C377 1.287 . S
C377 C376 1.287 . S
C377 C378 1.524 . S
C377 H380 0.999 . S
C378 H348 0.950 1_554 S
C378 C377 1.524 . S
C378 C379 1.415 1_554 S
C379 H349 0.950 . S
C379 C374 1.363 1_556 S
C379 C378 1.415 1_556 S
H380 C377 0.999 . S
H381 C362 0.913 . S
H382 C400 0.951 . S
H383 C402 0.951 . S
H384 C404 0.950 . S
H385 C405 0.950 . S
H386 C407 0.950 . S
H387 C410 0.950 . S
H388 C411 0.950 . S
H389 C413 0.950 . S
H390 C414 0.950 . S
H391 C415 0.951 . S
H392 C417 0.951 . S
H393 C419 0.950 . S
H394 C420 0.950 . S
H395 C422 0.950 . S
H396 C425 0.950 . S
H397 C426 0.950 . S
H398 C428 0.950 . S
H399 C429 0.950 . S
C400 H382 0.951 . S
C400 C401 1.366 . S
C400 C402 1.388 . S
C401 C400 1.366 . S
C401 C405 1.385 . S
C402 H383 0.951 . S
C402 C400 1.388 . S
C402 C403 1.366 . S
C403 C402 1.366 . S
C403 C404 1.414 . S
C403 C406 1.499 . S
C404 H384 0.950 . S
C404 C403 1.414 . S
C404 C405 1.374 . S
C405 H385 0.950 . S
C405 C401 1.385 . S
C405 C404 1.374 . S
C406 C403 1.499 . S
C406 C407 1.373 1_655 S
C406 C408 1.389 . S
C407 H386 0.950 . S
C407 C406 1.373 1_455 S
C407 C423 1.377 . S
C408 C406 1.389 . S
C408 C409 1.524 . S
C408 C422 1.377 . S
C409 C408 1.524 . S
C409 C410 1.397 . S
C409 C414 1.363 . S
C410 H387 0.950 . S
C410 C409 1.397 . S
C410 C411 1.334 . S
C411 H388 0.950 . S
C411 C410 1.334 . S
C411 C412 1.287 . S
C412 C411 1.287 . S
C412 C413 1.524 . S
C412 H431 0.913 . S
C413 H389 0.950 . S
C413 C412 1.524 . S
C413 C414 1.415 . S
C414 H390 0.950 . S
C414 C409 1.363 . S
C414 C413 1.415 . S
C415 H391 0.951 . S
C415 C416 1.366 . S
C415 C417 1.388 . S
C416 C415 1.366 . S
C416 C420 1.385 . S
C417 H392 0.951 . S
C417 C415 1.388 . S
C417 C418 1.366 . S
C418 C417 1.366 . S
C418 C419 1.414 . S
C418 C421 1.499 . S
C419 H393 0.950 . S
C419 C418 1.414 . S
C419 C420 1.374 . S
C420 H394 0.950 . S
C420 C416 1.385 . S
C420 C419 1.374 . S
C421 C418 1.499 . S
C421 C422 1.373 1_455 S
C421 C423 1.389 . S
C422 H395 0.950 . S
C422 C408 1.377 . S
C422 C421 1.373 1_655 S
C423 C407 1.377 . S
C423 C421 1.389 . S
C423 C424 1.524 . S
C424 C423 1.524 . S
C424 C425 1.397 . S
C424 C429 1.363 . S
C425 H396 0.950 . S
C425 C424 1.397 . S
C425 C426 1.334 . S
C426 H397 0.950 . S
C426 C425 1.334 . S
C426 C427 1.287 . S
C427 C426 1.287 . S
C427 C428 1.524 . S
C427 H430 0.999 . S
C428 H398 0.950 . S
C428 C427 1.524 . S
C428 C429 1.415 . S
C429 H399 0.950 . S
C429 C424 1.363 . S
C429 C428 1.415 . S
H430 C427 0.999 . S
H431 C412 0.913 . S
H432 C450 0.951 . S
H433 C452 0.951 . S
H434 C454 0.950 . S
H435 C455 0.950 . S
H436 C457 0.950 . S
H437 C460 0.950 . S
H438 C461 0.950 . S
H439 C463 0.950 . S
H440 C464 0.950 . S
H441 C465 0.951 . S
H442 C467 0.951 . S
H443 C469 0.950 . S
H444 C470 0.950 . S
H445 C472 0.950 . S
H446 C475 0.950 . S
H447 C476 0.950 . S
H448 C478 0.950 . S
H449 C479 0.950 . S
C450 H432 0.951 . S
C450 C451 1.366 . S
C450 C452 1.388 . S
C451 C450 1.366 . S
C451 C455 1.385 . S
C452 H433 0.951 . S
C452 C450 1.388 . S
C452 C453 1.366 . S
C453 C452 1.366 . S
C453 C454 1.414 . S
C453 C456 1.499 . S
C454 H434 0.950 . S
C454 C453 1.414 . S
C454 C455 1.374 . S
C455 H435 0.950 . S
C455 C451 1.385 . S
C455 C454 1.374 . S
C456 C453 1.499 . S
C456 C457 1.373 . S
C456 C458 1.389 . S
C457 H436 0.950 . S
C457 C456 1.373 . S
C457 C473 1.377 . S
C458 C456 1.389 . S
C458 C459 1.524 . S
C458 C472 1.377 . S
C459 C458 1.524 . S
C459 C460 1.397 . S
C459 C464 1.363 . S
C460 H437 0.950 . S
C460 C459 1.397 . S
C460 C461 1.334 . S
C461 H438 0.950 . S
C461 C460 1.334 . S
C461 C462 1.287 . S
C462 C461 1.287 . S
C462 C463 1.524 . S
C462 H481 0.913 . S
C463 H439 0.950 . S
C463 C462 1.524 . S
C463 C464 1.415 . S
C464 H440 0.950 . S
C464 C459 1.363 . S
C464 C463 1.415 . S
C465 H441 0.951 . S
C465 C466 1.366 . S
C465 C467 1.388 . S
C466 C465 1.366 . S
C466 C470 1.385 . S
C467 H442 0.951 . S
C467 C465 1.388 . S
C467 C468 1.366 . S
C468 C467 1.366 . S
C468 C469 1.414 . S
C468 C471 1.499 . S
C469 H443 0.950 . S
C469 C468 1.414 . S
C469 C470 1.374 . S
C470 H444 0.950 . S
C470 C466 1.385 . S
C470 C469 1.374 . S
C471 C468 1.499 . S
C471 C472 1.373 . S
C471 C473 1.389 . S
C472 H445 0.950 . S
C472 C458 1.377 . S
C472 C471 1.373 . S
C473 C457 1.377 . S
C473 C471 1.389 . S
C473 C474 1.524 . S
C474 C473 1.524 . S
C474 C475 1.397 . S
C474 C479 1.363 . S
C475 H446 0.950 . S
C475 C474 1.397 . S
C475 C476 1.334 . S
C476 H447 0.950 . S
C476 C475 1.334 . S
C476 C477 1.287 . S
C477 C476 1.287 . S
C477 C478 1.524 . S
C477 H480 0.999 . S
C478 H448 0.950 . S
C478 C477 1.524 . S
C478 C479 1.415 . S
C479 H449 0.950 . S
C479 C474 1.363 . S
C479 C478 1.415 . S
H480 C477 0.999 . S
H481 C462 0.913 . S
H482 C500 0.951 . S
H483 C502 0.951 . S
H484 C504 0.950 . S
H485 C505 0.950 . S
H486 C507 0.950 . S
H487 C510 0.950 . S
H488 C511 0.950 . S
H489 C513 0.950 . S
H490 C514 0.950 . S
H491 C515 0.951 . S
H492 C517 0.951 . S
H493 C519 0.950 . S
H494 C520 0.950 . S
H495 C522 0.950 . S
H496 C525 0.950 . S
H497 C526 0.950 . S
H498 C528 0.950 . S
H499 C529 0.950 . S
C500 H482 0.951 . S
C500 C501 1.366 . S
C500 C502 1.388 . S
C501 C500 1.366 . S
C501 C505 1.385 . S
C502 H483 0.951 . S
C502 C500 1.388 . S
C502 C503 1.366 . S
C503 C502 1.366 . S
C503 C504 1.414 . S
C503 C506 1.499 . S
C504 H484 0.950 . S
C504 C503 1.414 . S
C504 C505 1.374 . S
C505 H485 0.950 . S
C505 C501 1.385 . S
C505 C504 1.374 . S
C506 C503 1.499 . S
C506 C507 1.373 . S
C506 C508 1.389 . S
C507 H486 0.950 . S
C507 C506 1.373 . S
C507 C523 1.377 . S
C508 C506 1.389 . S
C508 C509 1.524 . S
C508 C522 1.377 . S
C509 C508 1.524 . S
C509 C510 1.397 . S
C509 C514 1.363 . S
C510 H487 0.950 . S
C510 C509 1.397 . S
C510 C511 1.334 . S
C511 H488 0.950 . S
C511 C510 1.334 . S
C511 C512 1.287 . S
C512 C511 1.287 . S
C512 C513 1.524 . S
C512 H531 0.913 . S
C513 H489 0.950 . S
C513 C512 1.524 . S
C513 C514 1.415 . S
C514 H490 0.950 . S
C514 C509 1.363 . S
C514 C513 1.415 . S
C515 H491 0.951 . S
C515 C516 1.366 . S
C515 C517 1.388 . S
C516 C515 1.366 . S
C516 C520 1.385 . S
C517 H492 0.951 . S
C517 C515 1.388 . S
C517 C518 1.366 . S
C518 C517 1.366 . S
C518 C519 1.414 . S
C518 C521 1.499 . S
C519 H493 0.950 . S
C519 C518 1.414 . S
C519 C520 1.374 . S
C520 H494 0.950 . S
C520 C516 1.385 . S
C520 C519 1.374 . S
C521 C518 1.499 . S
C521 C522 1.373 . S
C521 C523 1.389 . S
C522 H495 0.950 . S
C522 C508 1.377 . S
C522 C521 1.373 . S
C523 C507 1.377 . S
C523 C521 1.389 . S
C523 C524 1.524 . S
C524 C523 1.524 . S
C524 C525 1.397 . S
C524 C529 1.363 . S
C525 H496 0.950 . S
C525 C524 1.397 . S
C525 C526 1.334 . S
C526 H497 0.950 . S
C526 C525 1.334 . S
C526 C527 1.287 . S
C527 C526 1.287 . S
C527 C528 1.524 . S
C527 H530 0.999 . S
C528 H498 0.950 . S
C528 C527 1.524 . S
C528 C529 1.415 . S
C529 H499 0.950 . S
C529 C524 1.363 . S
C529 C528 1.415 . S
H530 C527 0.999 . S
H531 C512 0.913 . S
H532 C550 0.951 . S
H533 C552 0.951 . S
H534 C554 0.950 . S
H535 C555 0.950 . S
H536 C557 0.950 . S
H537 C560 0.950 . S
H538 C561 0.950 . S
H539 C563 0.950 . S
H540 C564 0.950 . S
H541 C565 0.951 . S
H542 C567 0.951 . S
H543 C569 0.950 . S
H544 C570 0.950 . S
H545 C572 0.950 . S
H546 C575 0.950 . S
H547 C576 0.950 . S
H548 C578 0.950 . S
H549 C579 0.950 . S
C550 H532 0.951 . S
C550 C551 1.366 . S
C550 C552 1.388 . S
C551 C550 1.366 . S
C551 C555 1.385 . S
C552 H533 0.951 . S
C552 C550 1.388 . S
C552 C553 1.366 . S
C553 C552 1.366 . S
C553 C554 1.414 . S
C553 C556 1.499 . S
C554 H534 0.950 . S
C554 C553 1.414 . S
C554 C555 1.374 . S
C555 H535 0.950 . S
C555 C551 1.385 . S
C555 C554 1.374 . S
C556 C553 1.499 . S
C556 C557 1.373 . S
C556 C558 1.389 . S
C557 H536 0.950 . S
C557 C556 1.373 . S
C557 C573 1.377 . S
C558 C556 1.389 . S
C558 C559 1.524 . S
C558 C572 1.377 . S
C559 C558 1.524 . S
C559 C560 1.397 . S
C559 C564 1.363 . S
C560 H537 0.950 . S
C560 C559 1.397 . S
C560 C561 1.334 . S
C561 H538 0.950 . S
C561 C560 1.334 . S
C561 C562 1.287 . S
C562 C561 1.287 . S
C562 C563 1.524 . S
C562 H581 0.913 . S
C563 H539 0.950 . S
C563 C562 1.524 . S
C563 C564 1.415 . S
C564 H540 0.950 . S
C564 C559 1.363 . S
C564 C563 1.415 . S
C565 H541 0.951 . S
C565 C566 1.366 . S
C565 C567 1.388 . S
C566 C565 1.366 . S
C566 C570 1.385 . S
C567 H542 0.951 . S
C567 C565 1.388 . S
C567 C568 1.366 . S
C568 C567 1.366 . S
C568 C569 1.414 . S
C568 C571 1.499 . S
C569 H543 0.950 . S
C569 C568 1.414 . S
C569 C570 1.374 . S
C570 H544 0.950 . S
C570 C566 1.385 . S
C570 C569 1.374 . S
C571 C568 1.499 . S
C571 C572 1.373 . S
C571 C573 1.389 . S
C572 H545 0.950 . S
C572 C558 1.377 . S
C572 C571 1.373 . S
C573 C557 1.377 . S
C573 C571 1.389 . S
C573 C574 1.524 . S
C574 C573 1.524 . S
C574 C575 1.397 . S
C574 C579 1.363 . S
C575 H546 0.950 . S
C575 C574 1.397 . S
C575 C576 1.334 . S
C576 H547 0.950 . S
C576 C575 1.334 . S
C576 C577 1.287 . S
C577 C576 1.287 . S
C577 C578 1.524 . S
C577 H580 0.999 . S
C578 H548 0.950 . S
C578 C577 1.524 . S
C578 C579 1.415 . S
C579 H549 0.950 . S
C579 C574 1.363 . S
C579 C578 1.415 . S
H580 C577 0.999 . S
H581 C562 0.913 . S
H582 C600 0.951 . S
H583 C602 0.951 . S
H584 C604 0.950 . S
H585 C605 0.950 . S
H586 C607 0.950 . S
H587 C610 0.950 . S
H588 C611 0.950 . S
H589 C613 0.950 . S
H590 C614 0.950 . S
H591 C615 0.951 . S
H592 C617 0.951 . S
H593 C619 0.950 . S
H594 C620 0.950 . S
H595 C622 0.950 . S
H596 C625 0.950 . S
H597 C626 0.950 . S
H598 C628 0.950 . S
H599 C629 0.950 . S
C600 H582 0.951 . S
C600 C601 1.366 . S
C600 C602 1.388 . S
C601 C600 1.366 . S
C601 C605 1.385 . S
C602 H583 0.951 . S
C602 C600 1.388 . S
C602 C603 1.366 . S
C603 C602 1.366 . S
C603 C604 1.414 . S
C603 C606 1.499 . S
C604 H584 0.950 . S
C604 C603 1.414 . S
C604 C605 1.374 . S
C605 H585 0.950 . S
C605 C601 1.385 . S
C605 C604 1.374 . S
C606 C603 1.499 . S
C606 C607 1.373 . S
C606 C608 1.389 . S
C607 H586 0.950 . S
C607 C606 1.373 . S
C607 C623 1.377 . S
C608 C606 1.389 . S
C608 C609 1.524 . S
C608 C622 1.377 . S
C609 C608 1.524 . S
C609 C610 1.397 . S
C609 C614 1.363 . S
C610 H587 0.950 . S
C610 C609 1.397 . S
C610 C611 1.334 . S
C611 H588 0.950 . S
C611 C610 1.334 . S
C611 C612 1.287 . S
C612 C611 1.287 . S
C612 C613 1.524 . S
C612 H631 0.913 . S
C613 H589 0.950 . S
C613 C612 1.524 . S
C613 C614 1.415 . S
C614 H590 0.950 . S
C614 C609 1.363 . S
C614 C613 1.415 . S
C615 H591 0.951 . S
C615 C616 1.366 . S
C615 C617 1.388 . S
C616 C615 1.366 . S
C616 C620 1.385 . S
C617 H592 0.951 . S
C617 C615 1.388 . S
C617 C618 1.366 . S
C618 C617 1.366 . S
C618 C619 1.414 . S
C618 C621 1.499 . S
C619 H593 0.950 . S
C619 C618 1.414 . S
C619 C620 1.374 . S
C620 H594 0.950 . S
C620 C616 1.385 . S
C620 C619 1.374 . S
C621 C618 1.499 . S
C621 C622 1.373 . S
C621 C623 1.389 . S
C622 H595 0.950 . S
C622 C608 1.377 . S
C622 C621 1.373 . S
C623 C607 1.377 . S
C623 C621 1.389 . S
C623 C624 1.524 . S
C624 C623 1.524 . S
C624 C625 1.397 . S
C624 C629 1.363 . S
C625 H596 0.950 . S
C625 C624 1.397 . S
C625 C626 1.334 . S
C626 H597 0.950 . S
C626 C625 1.334 . S
C626 C627 1.287 . S
C627 C626 1.287 . S
C627 C628 1.524 . S
C627 H630 0.999 . S
C628 H598 0.950 . S
C628 C627 1.524 . S
C628 C629 1.415 . S
C629 H599 0.950 . S
C629 C624 1.363 . S
C629 C628 1.415 . S
H630 C627 0.999 . S
H631 C612 0.913 . S
H632 C650 0.951 . S
H633 C652 0.951 . S
H634 C654 0.950 . S
H635 C655 0.950 . S
H636 C657 0.950 . S
H637 C660 0.950 . S
H638 C661 0.950 . S
H639 C663 0.950 . S
H640 C664 0.950 . S
H641 C665 0.951 . S
H642 C667 0.951 . S
H643 C669 0.950 . S
H644 C670 0.950 . S
H645 C672 0.950 . S
H646 C675 0.950 . S
H647 C676 0.950 . S
H648 C678 0.950 . S
H649 C679 0.950 . S
C650 H632 0.951 . S
C650 C651 1.366 . S
C650 C652 1.388 . S
C651 C650 1.366 . S
C651 C655 1.385 . S
C652 H633 0.951 . S
C652 C650 1.388 . S
C652 C653 1.366 . S
C653 C652 1.366 . S
C653 C654 1.414 . S
C653 C656 1.499 . S
C654 H634 0.950 . S
C654 C653 1.414 . S
C654 C655 1.374 . S
C655 H635 0.950 . S
C655 C651 1.385 . S
C655 C654 1.374 . S
C656 C653 1.499 . S
C656 C657 1.373 . S
C656 C658 1.389 . S
C657 H636 0.950 . S
C657 C656 1.373 . S
C657 C673 1.377 . S
C658 C656 1.389 . S
C658 C659 1.524 . S
C658 C672 1.377 . S
C659 C658 1.524 . S
C659 C660 1.397 . S
C659 C664 1.363 . S
C660 H637 0.950 . S
C660 C659 1.397 . S
C660 C661 1.334 . S
C661 H638 0.950 . S
C661 C660 1.334 . S
C661 C662 1.287 . S
C662 C661 1.287 . S
C662 C663 1.524 . S
C662 H681 0.913 . S
C663 H639 0.950 . S
C663 C662 1.524 . S
C663 C664 1.415 . S
C664 H640 0.950 . S
C664 C659 1.363 . S
C664 C663 1.415 . S
C665 H641 0.951 . S
C665 C666 1.366 . S
C665 C667 1.388 . S
C666 C665 1.366 . S
C666 C670 1.385 . S
C667 H642 0.951 . S
C667 C665 1.388 . S
C667 C668 1.366 . S
C668 C667 1.366 . S
C668 C669 1.414 . S
C668 C671 1.499 . S
C669 H643 0.950 . S
C669 C668 1.414 . S
C669 C670 1.374 . S
C670 H644 0.950 . S
C670 C666 1.385 . S
C670 C669 1.374 . S
C671 C668 1.499 . S
C671 C672 1.373 . S
C671 C673 1.389 . S
C672 H645 0.950 . S
C672 C658 1.377 . S
C672 C671 1.373 . S
C673 C657 1.377 . S
C673 C671 1.389 . S
C673 C674 1.524 . S
C674 C673 1.524 . S
C674 C675 1.397 . S
C674 C679 1.363 . S
C675 H646 0.950 . S
C675 C674 1.397 . S
C675 C676 1.334 . S
C676 H647 0.950 . S
C676 C675 1.334 . S
C676 C677 1.287 . S
C677 C676 1.287 . S
C677 C678 1.524 . S
C677 H680 0.999 . S
C678 H648 0.950 . S
C678 C677 1.524 . S
C678 C679 1.415 . S
C679 H649 0.950 . S
C679 C674 1.363 . S
C679 C678 1.415 . S
H680 C677 0.999 . S
H681 C662 0.913 . S
H682 C700 0.951 . S
H683 C702 0.951 . S
H684 C704 0.950 . S
H685 C705 0.950 . S
H686 C707 0.950 . S
H687 C710 0.950 . S
H688 C711 0.950 . S
H689 C713 0.950 . S
H690 C714 0.950 . S
H691 C715 0.951 . S
H692 C717 0.951 . S
H693 C719 0.950 . S
H694 C720 0.950 . S
H695 C722 0.950 . S
H696 C725 0.950 . S
H697 C726 0.950 . S
H698 C728 0.950 . S
H699 C729 0.950 . S
C700 H682 0.951 . S
C700 C701 1.366 . S
C700 C702 1.388 . S
C701 C700 1.366 . S
C701 C705 1.385 . S
C702 H683 0.951 . S
C702 C700 1.388 . S
C702 C703 1.366 . S
C703 C702 1.366 . S
C703 C704 1.414 . S
C703 C706 1.499 . S
C704 H684 0.950 . S
C704 C703 1.414 . S
C704 C705 1.374 . S
C705 H685 0.950 . S
C705 C701 1.385 . S
C705 C704 1.374 . S
C706 C703 1.499 . S
C706 C707 1.373 . S
C706 C708 1.389 . S
C707 H686 0.950 . S
C707 C706 1.373 . S
C707 C723 1.377 . S
C708 C706 1.389 . S
C708 C709 1.524 . S
C708 C722 1.377 . S
C709 C708 1.524 . S
C709 C710 1.397 . S
C709 C714 1.363 . S
C710 H687 0.950 . S
C710 C709 1.397 . S
C710 C711 1.334 . S
C711 H688 0.950 . S
C711 C710 1.334 . S
C711 C712 1.287 . S
C712 C711 1.287 . S
C712 C713 1.524 . S
C712 H731 0.913 . S
C713 H689 0.950 . S
C713 C712 1.524 . S
C713 C714 1.415 . S
C714 H690 0.950 . S
C714 C709 1.363 . S
C714 C713 1.415 . S
C715 H691 0.951 . S
C715 C716 1.366 . S
C715 C717 1.388 . S
C716 C715 1.366 . S
C716 C720 1.385 . S
C717 H692 0.951 . S
C717 C715 1.388 . S
C717 C718 1.366 . S
C718 C717 1.366 . S
C718 C719 1.414 . S
C718 C721 1.499 . S
C719 H693 0.950 . S
C719 C718 1.414 . S
C719 C720 1.374 . S
C720 H694 0.950 . S
C720 C716 1.385 . S
C720 C719 1.374 . S
C721 C718 1.499 . S
C721 C722 1.373 . S
C721 C723 1.389 . S
C722 H695 0.950 . S
C722 C708 1.377 . S
C722 C721 1.373 . S
C723 C707 1.377 . S
C723 C721 1.389 . S
C723 C724 1.524 . S
C724 C723 1.524 . S
C724 C725 1.397 . S
C724 C729 1.363 . S
C725 H696 0.950 . S
C725 C724 1.397 . S
C725 C726 1.334 . S
C726 H697 0.950 . S
C726 C725 1.334 . S
C726 C727 1.287 . S
C727 C726 1.287 . S
C727 C728 1.524 . S
C727 H730 0.999 . S
C728 H698 0.950 . S
C728 C727 1.524 . S
C728 C729 1.415 . S
C729 H699 0.950 . S
C729 C724 1.363 . S
C729 C728 1.415 . S
H730 C727 0.999 . S
H731 C712 0.913 . S
H732 C750 0.951 . S
H733 C752 0.951 . S
H734 C754 0.950 . S
H735 C755 0.950 . S
H736 C757 0.950 . S
H737 C760 0.950 . S
H738 C761 0.950 . S
H739 C763 0.950 . S
H740 C764 0.950 . S
H741 C765 0.951 . S
H742 C767 0.951 . S
H743 C769 0.950 . S
H744 C770 0.950 . S
H745 C772 0.950 . S
H746 C775 0.950 . S
H747 C776 0.950 . S
H748 C778 0.950 . S
H749 C779 0.950 . S
C750 H732 0.951 . S
C750 C751 1.366 . S
C750 C752 1.388 . S
C751 C750 1.366 . S
C751 C755 1.385 . S
C752 H733 0.951 . S
C752 C750 1.388 . S
C752 C753 1.366 . S
C753 C752 1.366 . S
C753 C754 1.414 . S
C753 C756 1.499 . S
C754 H734 0.950 . S
C754 C753 1.414 . S
C754 C755 1.374 . S
C755 H735 0.950 . S
C755 C751 1.385 . S
C755 C754 1.374 . S
C756 C753 1.499 . S
C756 C757 1.373 . S
C756 C758 1.389 . S
C757 H736 0.950 . S
C757 C756 1.373 . S
C757 C773 1.377 . S
C758 C756 1.389 . S
C758 C759 1.524 . S
C758 C772 1.377 . S
C759 C758 1.524 . S
C759 C760 1.397 . S
C759 C764 1.363 . S
C760 H737 0.950 . S
C760 C759 1.397 . S
C760 C761 1.334 . S
C761 H738 0.950 . S
C761 C760 1.334 . S
C761 C762 1.287 . S
C762 C761 1.287 . S
C762 C763 1.524 . S
C762 H781 0.913 . S
C763 H739 0.950 . S
C763 C762 1.524 . S
C763 C764 1.415 . S
C764 H740 0.950 . S
C764 C759 1.363 . S
C764 C763 1.415 . S
C765 H741 0.951 . S
C765 C766 1.366 . S
C765 C767 1.388 . S
C766 C765 1.366 . S
C766 C770 1.385 . S
C767 H742 0.951 . S
C767 C765 1.388 . S
C767 C768 1.366 . S
C768 C767 1.366 . S
C768 C769 1.414 . S
C768 C771 1.499 . S
C769 H743 0.950 . S
C769 C768 1.414 . S
C769 C770 1.374 . S
C770 H744 0.950 . S
C770 C766 1.385 . S
C770 C769 1.374 . S
C771 C768 1.499 . S
C771 C772 1.373 . S
C771 C773 1.389 . S
C772 H745 0.950 . S
C772 C758 1.377 . S
C772 C771 1.373 . S
C773 C757 1.377 . S
C773 C771 1.389 . S
C773 C774 1.524 . S
C774 C773 1.524 . S
C774 C775 1.397 . S
C774 C779 1.363 . S
C775 H746 0.950 . S
C775 C774 1.397 . S
C775 C776 1.334 1_455 S
C776 H747 0.950 . S
C776 C775 1.334 1_655 S
C776 C777 1.287 . S
C777 C776 1.287 . S
C777 C778 1.520 1_655 S
C777 H780 1.003 . S
C778 H748 0.950 . S
C778 C777 1.520 1_455 S
C778 C779 1.415 . S
C779 H749 0.950 . S
C779 C774 1.363 . S
C779 C778 1.415 . S
H780 C777 1.003 . S
H781 C762 0.913 . S
H782 C800 0.951 . S
H783 C802 0.951 . S
H784 C804 0.950 . S
H785 C805 0.950 . S
H786 C807 0.950 1_655 S
H787 C810 0.946 1_655 S
H788 C811 0.950 . S
H789 C813 0.950 . S
H790 C814 0.950 . S
H791 C815 0.951 1_545 S
H792 C817 0.951 . S
H793 C819 0.950 . S
H794 C820 0.950 . S
H795 C822 0.950 . S
H796 C825 0.950 . S
H797 C826 0.950 . S
H798 C828 0.950 1_545 S
H799 C829 0.950 . S
C800 H782 0.951 . S
C800 C801 1.366 . S
C800 C802 1.388 . S
C801 C800 1.366 . S
C801 C805 1.385 . S
C802 H783 0.951 . S
C802 C800 1.388 . S
C802 C803 1.366 . S
C803 C802 1.366 . S
C803 C804 1.414 . S
C803 C806 1.499 . S
C804 H784 0.950 . S
C804 C803 1.414 . S
C804 C805 1.374 . S
C805 H785 0.950 . S
C805 C801 1.385 . S
C805 C804 1.374 . S
C806 C803 1.499 . S
C806 C807 1.373 1_655 S
C806 C808 1.389 1_655 S
C807 H786 0.950 1_455 S
C807 C806 1.373 1_455 S
C807 C823 1.377 . S
C808 C806 1.389 1_455 S
C808 C809 1.524 . S
C808 C822 1.377 . S
C809 C808 1.524 . S
C809 C810 1.399 . S
C809 C814 1.363 . S
C810 H787 0.946 1_455 S
C810 C809 1.399 . S
C810 C811 1.336 1_455 S
C811 H788 0.950 . S
C811 C810 1.336 1_655 S
C811 C812 1.287 1_655 S
C812 C811 1.287 1_455 S
C812 C813 1.524 . S
C812 H831 0.906 . S
C813 H789 0.950 . S
C813 C812 1.524 . S
C813 C814 1.415 . S
C814 H790 0.950 . S
C814 C809 1.363 . S
C814 C813 1.415 . S
C815 H791 0.951 1_565 S
C815 C816 1.366 . S
C815 C817 1.388 . S
C816 C815 1.366 . S
C816 C820 1.385 . S
C817 H792 0.951 . S
C817 C815 1.388 . S
C817 C818 1.366 . S
C818 C817 1.366 . S
C818 C819 1.414 . S
C818 C821 1.499 . S
C819 H793 0.950 . S
C819 C818 1.414 . S
C819 C820 1.374 . S
C820 H794 0.950 . S
C820 C816 1.385 . S
C820 C819 1.374 . S
C821 C818 1.499 . S
C821 C822 1.373 . S
C821 C823 1.389 . S
C822 H795 0.950 . S
C822 C808 1.377 . S
C822 C821 1.373 . S
C823 C807 1.377 . S
C823 C821 1.389 . S
C823 C824 1.524 . S
C824 C823 1.524 . S
C824 C825 1.397 . S
C824 C829 1.363 . S
C825 H796 0.950 . S
C825 C824 1.397 . S
C825 C826 1.334 . S
C826 H797 0.950 . S
C826 C825 1.334 . S
C826 C827 1.287 1_565 S
C827 C826 1.287 1_545 S
C827 C828 1.524 1_545 S
C827 H830 0.999 . S
C828 H798 0.950 1_565 S
C828 C827 1.524 1_565 S
C828 C829 1.415 . S
C829 H799 0.950 . S
C829 C824 1.363 . S
C829 C828 1.415 . S
H830 C827 0.999 . S
H831 C812 0.906 . S
H832 C850 0.951 . S
H833 C852 0.951 . S
H834 C854 0.950 . S
H835 C855 0.950 . S
H836 C857 0.950 . S
H837 C860 0.950 . S
H838 C861 0.950 . S
H839 C863 0.950 . S
H840 C864 0.950 . S
H841 C865 0.951 . S
H842 C867 0.951 . S
H843 C869 0.950 . S
H844 C870 0.950 . S
H845 C872 0.950 . S
H846 C875 0.950 . S
H847 C876 0.950 . S
H848 C878 0.950 . S
H849 C879 0.950 . S
C850 H832 0.951 . S
C850 C851 1.366 . S
C850 C852 1.388 . S
C851 C850 1.366 . S
C851 C855 1.385 . S
C852 H833 0.951 . S
C852 C850 1.388 . S
C852 C853 1.366 . S
C853 C852 1.366 . S
C853 C854 1.414 . S
C853 C856 1.499 . S
C854 H834 0.950 . S
C854 C853 1.414 . S
C854 C855 1.374 . S
C855 H835 0.950 . S
C855 C851 1.385 . S
C855 C854 1.374 . S
C856 C853 1.499 . S
C856 C857 1.373 1_545 S
C856 C858 1.389 1_545 S
C857 H836 0.950 . S
C857 C856 1.373 1_565 S
C857 C873 1.377 . S
C858 C856 1.389 1_565 S
C858 C859 1.524 1_565 S
C858 C872 1.377 . S
C859 C858 1.524 1_545 S
C859 C860 1.397 . S
C859 C864 1.363 1_545 S
C860 H837 0.950 . S
C860 C859 1.397 . S
C860 C861 1.334 . S
C861 H838 0.950 . S
C861 C860 1.334 . S
C861 C862 1.287 . S
C862 C861 1.287 . S
C862 C863 1.524 . S
C862 H881 0.913 . S
C863 H839 0.950 . S
C863 C862 1.524 . S
C863 C864 1.415 1_545 S
C864 H840 0.950 . S
C864 C859 1.363 1_565 S
C864 C863 1.415 1_565 S
C865 H841 0.951 . S
C865 C866 1.366 . S
C865 C867 1.388 . S
C866 C865 1.366 . S
C866 C870 1.385 . S
C867 H842 0.951 . S
C867 C865 1.388 . S
C867 C868 1.366 . S
C868 C867 1.366 . S
C868 C869 1.414 . S
C868 C871 1.499 . S
C869 H843 0.950 . S
C869 C868 1.414 . S
C869 C870 1.374 . S
C870 H844 0.950 . S
C870 C866 1.385 . S
C870 C869 1.374 . S
C871 C868 1.499 . S
C871 C872 1.373 . S
C871 C873 1.389 . S
C872 H845 0.950 . S
C872 C858 1.377 . S
C872 C871 1.373 . S
C873 C857 1.377 . S
C873 C871 1.389 . S
C873 C874 1.524 . S
C874 C873 1.524 . S
C874 C875 1.397 . S
C874 C879 1.363 . S
C875 H846 0.950 . S
C875 C874 1.397 . S
C875 C876 1.334 . S
C876 H847 0.950 . S
C876 C875 1.334 . S
C876 C877 1.287 . S
C877 C876 1.287 . S
C877 C878 1.524 . S
C877 H880 0.999 . S
C878 H848 0.950 . S
C878 C877 1.524 . S
C878 C879 1.415 . S
C879 H849 0.950 . S
C879 C874 1.363 . S
C879 C878 1.415 . S
H880 C877 0.999 . S
H881 C862 0.913 . S
H882 C900 0.951 . S
H883 C902 0.951 . S
H884 C904 0.950 . S
H885 C905 0.950 . S
H886 C907 0.950 . S
H887 C910 0.950 . S
H888 C911 0.950 . S
H889 C913 0.950 . S
H890 C914 0.950 . S
H891 C915 0.951 1_565 S
H892 C917 0.951 . S
H893 C919 0.950 . S
H894 C920 0.950 . S
H895 C922 0.950 . S
H896 C925 0.950 . S
H897 C926 0.950 . S
H898 C928 0.948 1_565 S
H899 C929 0.950 . S
C900 H882 0.951 . S
C900 C901 1.366 . S
C900 C902 1.388 . S
C901 C900 1.366 . S
C901 C905 1.385 . S
C902 H883 0.951 . S
C902 C900 1.388 . S
C902 C903 1.366 . S
C903 C902 1.366 . S
C903 C904 1.414 . S
C903 C906 1.499 . S
C904 H884 0.950 . S
C904 C903 1.414 . S
C904 C905 1.374 . S
C905 H885 0.950 . S
C905 C901 1.385 . S
C905 C904 1.374 . S
C906 C903 1.499 . S
C906 C907 1.373 . S
C906 C908 1.389 . S
C907 H886 0.950 . S
C907 C906 1.373 . S
C907 C923 1.377 . S
C908 C906 1.389 . S
C908 C909 1.524 . S
C908 C922 1.377 . S
C909 C908 1.524 . S
C909 C910 1.397 . S
C909 C914 1.363 . S
C910 H887 0.950 . S
C910 C909 1.397 . S
C910 C911 1.334 . S
C911 H888 0.950 . S
C911 C910 1.334 . S
C911 C912 1.287 . S
C912 C911 1.287 . S
C912 C913 1.524 . S
C912 H931 0.913 . S
C913 H889 0.950 . S
C913 C912 1.524 . S
C913 C914 1.415 . S
C914 H890 0.950 . S
C914 C909 1.363 . S
C914 C913 1.415 . S
C915 H891 0.951 1_545 S
C915 C916 1.366 . S
C915 C917 1.388 . S
C916 C915 1.366 . S
C916 C920 1.385 . S
C917 H892 0.951 . S
C917 C915 1.388 . S
C917 C918 1.366 . S
C918 C917 1.366 . S
C918 C919 1.414 . S
C918 C921 1.499 . S
C919 H893 0.950 . S
C919 C918 1.414 . S
C919 C920 1.374 . S
C920 H894 0.950 . S
C920 C916 1.385 . S
C920 C919 1.374 . S
C921 C918 1.499 . S
C921 C922 1.373 . S
C921 C923 1.389 . S
C922 H895 0.950 . S
C922 C908 1.377 . S
C922 C921 1.373 . S
C923 C907 1.377 . S
C923 C921 1.389 . S
C923 C924 1.524 . S
C924 C923 1.524 . S
C924 C925 1.397 . S
C924 C929 1.363 . S
C925 H896 0.950 . S
C925 C924 1.397 . S
C925 C926 1.334 . S
C926 H897 0.950 . S
C926 C925 1.334 . S
C926 C927 1.287 . S
C927 C926 1.287 . S
C927 C928 1.524 . S
C927 H930 0.999 1_545 S
C928 H898 0.948 1_545 S
C928 C927 1.524 . S
C928 C929 1.415 . S
C929 H899 0.950 . S
C929 C924 1.363 . S
C929 C928 1.415 . S
H930 C927 0.999 1_565 S
H931 C912 0.913 . S
H932 C950 0.951 . S
H933 C952 0.951 . S
H934 C954 0.950 . S
H935 C955 0.950 . S
H936 C957 0.950 . S
H937 C960 0.950 . S
H938 C961 0.950 . S
H939 C963 0.950 . S
H940 C964 0.949 . S
H941 C965 0.951 . S
H942 C967 0.951 . S
H943 C969 0.950 . S
H944 C970 0.950 . S
H945 C972 0.950 . S
H946 C975 0.950 . S
H947 C976 0.950 . S
H948 C978 0.950 . S
H949 C979 0.950 . S
C950 H932 0.951 . S
C950 C951 1.366 . S
C950 C952 1.388 . S
C951 C950 1.366 . S
C951 C955 1.385 . S
C952 H933 0.951 . S
C952 C950 1.388 . S
C952 C953 1.366 . S
C953 C952 1.366 . S
C953 C954 1.414 . S
C953 C956 1.499 . S
C954 H934 0.950 . S
C954 C953 1.414 . S
C954 C955 1.374 . S
C955 H935 0.950 . S
C955 C951 1.385 . S
C955 C954 1.374 . S
C956 C953 1.499 . S
C956 C957 1.373 1_455 S
C956 C958 1.389 1_455 S
C957 H936 0.950 . S
C957 C956 1.373 1_655 S
C957 C973 1.377 . S
C958 C956 1.389 1_655 S
C958 C959 1.524 1_655 S
C958 C972 1.377 . S
C959 C958 1.524 1_455 S
C959 C960 1.397 . S
C959 C964 1.363 . S
C960 H937 0.950 . S
C960 C959 1.397 . S
C960 C961 1.334 . S
C961 H938 0.950 . S
C961 C960 1.334 . S
C961 C962 1.287 . S
C962 C961 1.287 . S
C962 C963 1.524 . S
C962 H981 0.913 . S
C963 H939 0.950 . S
C963 C962 1.524 . S
C963 C964 1.415 . S
C964 H940 0.949 . S
C964 C959 1.363 . S
C964 C963 1.415 . S
C965 H941 0.951 . S
C965 C966 1.366 . S
C965 C967 1.388 . S
C966 C965 1.366 . S
C966 C970 1.385 . S
C967 H942 0.951 . S
C967 C965 1.388 . S
C967 C968 1.366 . S
C968 C967 1.366 . S
C968 C969 1.414 . S
C968 C971 1.499 . S
C969 H943 0.950 . S
C969 C968 1.414 . S
C969 C970 1.374 . S
C970 H944 0.950 . S
C970 C966 1.385 . S
C970 C969 1.374 . S
C971 C968 1.499 . S
C971 C972 1.373 . S
C971 C973 1.389 . S
C972 H945 0.950 . S
C972 C958 1.377 . S
C972 C971 1.373 . S
C973 C957 1.377 . S
C973 C971 1.389 . S
C973 C974 1.524 . S
C974 C973 1.524 . S
C974 C975 1.397 . S
C974 C979 1.363 . S
C975 H946 0.950 . S
C975 C974 1.397 . S
C975 C976 1.334 . S
C976 H947 0.950 . S
C976 C975 1.334 . S
C976 C977 1.287 . S
C977 C976 1.287 . S
C977 C978 1.524 . S
C977 H980 0.999 . S
C978 H948 0.950 . S
C978 C977 1.524 . S
C978 C979 1.415 . S
C979 H949 0.950 . S
C979 C974 1.363 . S
C979 C978 1.415 . S
H980 C977 0.999 . S
H981 C962 0.913 . S
H982 C1000 0.951 . S
H983 C1002 0.951 . S
H984 C1004 0.950 . S
H985 C1005 0.950 1_455 S
H986 C1007 0.950 . S
H987 C1010 0.950 . S
H988 C1011 0.950 . S
H989 C1013 0.950 . S
H990 C1014 0.950 . S
H991 C1015 0.951 . S
H992 C1017 0.951 . S
H993 C1019 0.950 . S
H994 C1020 0.950 . S
H995 C1022 0.950 . S
H996 C1025 0.950 . S
H997 C1026 0.950 . S
H998 C1028 0.950 . S
H999 C1029 0.950 . S
C1000 H982 0.951 . S
C1000 C1001 1.366 . S
C1000 C1002 1.388 . S
C1001 C1000 1.366 . S
C1001 C1005 1.385 . S
C1002 H983 0.951 . S
C1002 C1000 1.388 . S
C1002 C1003 1.366 . S
C1003 C1002 1.366 . S
C1003 C1004 1.414 . S
C1003 C1006 1.499 . S
C1004 H984 0.950 . S
C1004 C1003 1.414 . S
C1004 C1005 1.374 . S
C1005 H985 0.950 1_655 S
C1005 C1001 1.385 . S
C1005 C1004 1.374 . S
C1006 C1003 1.499 . S
C1006 C1007 1.373 . S
C1006 C1008 1.389 . S
C1007 H986 0.950 . S
C1007 C1006 1.373 . S
C1007 C1023 1.377 . S
C1008 C1006 1.389 . S
C1008 C1009 1.524 . S
C1008 C1022 1.377 . S
C1009 C1008 1.524 . S
C1009 C1010 1.397 . S
C1009 C1014 1.363 . S
C1010 H987 0.950 . S
C1010 C1009 1.397 . S
C1010 C1011 1.334 . S
C1011 H988 0.950 . S
C1011 C1010 1.334 . S
C1011 C1012 1.287 . S
C1012 C1011 1.287 . S
C1012 C1013 1.524 . S
C1012 H1031 0.913 . S
C1013 H989 0.950 . S
C1013 C1012 1.524 . S
C1013 C1014 1.415 . S
C1014 H990 0.950 . S
C1014 C1009 1.363 . S
C1014 C1013 1.415 . S
C1015 H991 0.951 . S
C1015 C1016 1.366 . S
C1015 C1017 1.388 . S
C1016 C1015 1.366 . S
C1016 C1020 1.385 . S
C1017 H992 0.951 . S
C1017 C1015 1.388 . S
C1017 C1018 1.366 . S
C1018 C1017 1.366 . S
C1018 C1019 1.414 . S
C1018 C1021 1.499 . S
C1019 H993 0.950 . S
C1019 C1018 1.414 . S
C1019 C1020 1.374 . S
C1020 H994 0.950 . S
C1020 C1016 1.385 . S
C1020 C1019 1.374 . S
C1021 C1018 1.499 . S
C1021 C1022 1.373 1_565 S
C1021 C1023 1.389 1_565 S
C1022 H995 0.950 . S
C1022 C1008 1.377 . S
C1022 C1021 1.373 1_545 S
C1023 C1007 1.377 . S
C1023 C1021 1.389 1_545 S
C1023 C1024 1.524 1_545 S
C1024 C1023 1.524 1_565 S
C1024 C1025 1.397 . S
C1024 C1029 1.363 . S
C1025 H996 0.950 . S
C1025 C1024 1.397 . S
C1025 C1026 1.334 . S
C1026 H997 0.950 . S
C1026 C1025 1.334 . S
C1026 C1027 1.287 . S
C1027 C1026 1.287 . S
C1027 C1028 1.524 . S
C1027 H1030 0.999 . S
C1028 H998 0.950 . S
C1028 C1027 1.524 . S
C1028 C1029 1.415 . S
C1029 H999 0.950 . S
C1029 C1024 1.363 . S
C1029 C1028 1.415 . S
H1030 C1027 0.999 . S
H1031 C1012 0.913 . S
C151 C94 0.414 . S
C166 C5 0.444 . S
C201 C115 1.316 . S
C216 C28 1.288 . S
C251 C49 2.266 . S
C266 C72 2.338 . S
C301 C9 2.338 . S
C316 C95 2.266 . S
C351 C119 1.289 . S
C366 C29 1.315 . S
C401 C53 0.414 . S
C416 C73 0.441 . S
C451 C6 1.271 . S
C466 C48 1.184 . S
C501 C27 1.131 . S
C516 C4 1.097 . S
C551 C50 1.158 . S
C566 C26 1.119 . S
C601 C75 1.271 . S
C616 C96 1.184 . S
C651 C97 1.158 . S
C666 C118 1.119 . S
C701 C74 1.096 . S
C716 C117 1.131 . S
C751 C8 1.152 . S
C766 C51 1.166 1_455 S
C801 C30 1.151 . S
C816 C7 1.181 . S
C851 C52 1.181 . S
C866 C31 1.225 . S
C901 C70 1.152 . S
C916 C93 1.166 1_545 S
C951 C92 1.179 . S
C966 C116 1.225 . S
C1001 C71 1.181 . S
C1016 C114 1.150 . S
