# Generated by pormake.
# Topology uog, (4)-cn, num edge types: 1
# Building blocks:
#     Node 0, Type 0, BuildingBlock: NAWXER_clean_sbu_0, # of connection points: 4
#     Node 1, Type 0, BuildingBlock: NAWXER_clean_sbu_0, # of connection points: 4
#     Node 2, Type 0, BuildingBlock: NAWXER_clean_sbu_0, # of connection points: 4
#     Node 3, Type 0, BuildingBlock: NAWXER_clean_sbu_0, # of connection points: 4
#     Node 4, Type 0, BuildingBlock: NAWXER_clean_sbu_0, # of connection points: 4
#     Node 5, Type 0, BuildingBlock: NAWXER_clean_sbu_0, # of connection points: 4
#     Edge 6, Type (0, 0), BuildingBlock: EZIPEK_clean_linker_0, # of connection points: 2
#     Edge 7, Type (0, 0), BuildingBlock: EZIPEK_clean_linker_0, # of connection points: 2
#     Edge 8, Type (0, 0), BuildingBlock: EZIPEK_clean_linker_0, # of connection points: 2
#     Edge 9, Type (0, 0), BuildingBlock: EZIPEK_clean_linker_0, # of connection points: 2
#     Edge 10, Type (0, 0), BuildingBlock: EZIPEK_clean_linker_0, # of connection points: 2
#     Edge 11, Type (0, 0), BuildingBlock: EZIPEK_clean_linker_0, # of connection points: 2
#     Edge 12, Type (0, 0), BuildingBlock: EZIPEK_clean_linker_0, # of connection points: 2
#     Edge 13, Type (0, 0), BuildingBlock: EZIPEK_clean_linker_0, # of connection points: 2
#     Edge 14, Type (0, 0), BuildingBlock: EZIPEK_clean_linker_0, # of connection points: 2
#     Edge 15, Type (0, 0), BuildingBlock: EZIPEK_clean_linker_0, # of connection points: 2
#     Edge 16, Type (0, 0), BuildingBlock: EZIPEK_clean_linker_0, # of connection points: 2
#     Edge 17, Type (0, 0), BuildingBlock: EZIPEK_clean_linker_0, # of connection points: 2
# Relax obj value: 0.013
# Max RMSD: 0.240
# Mean RMSD: 0.240
data_MOF--net-uog--node1-NAWXER_clean_sbu_0--edge1-EZIPEK_clean_linker_0
_symmetry_space_group_name_H-M    P1
_symmetry_Int_Tables_number       1
_symmetry_cell_setting            triclinic
loop_
_symmetry_equiv_pos_as_xyz
'x, y, z'
_cell_length_a     21.192319
_cell_length_b     21.216372
_cell_length_c     31.770908
_cell_angle_alpha  89.651181
_cell_angle_beta   89.943549
_cell_angle_gamma 120.00764
loop_
_atom_site_label
_atom_site_type_symbol
_atom_site_fract_x
_atom_site_fract_y
_atom_site_fract_z
_atom_type_partial_charge
C0 C 0.5419 0.39442 0.17111 0.0
C1 C 0.53076 0.15933 0.17764 0.0
O2 O 0.48571 0.33145 0.16992 0.0
Zn3 Zn 0.53571 0.27717 0.17457 0.0
O4 O 0.60555 0.40142 0.17364 0.0
Zn5 Zn 0.65024 0.32916 0.17611 0.0
O6 O 0.70744 0.35434 0.12543 0.0
O7 O 0.58854 0.2963 0.11402 0.0
O8 O 0.59645 0.21244 0.1763 0.0
O9 O 0.47828 0.17215 0.17777 0.0
O10 O 0.58248 0.30641 0.23641 0.0
O11 O 0.70051 0.35077 0.22885 0.0
C12 C 0.65417 0.32675 0.1001 0.0
C13 C 0.6459 0.33251 0.25275 0.0
C14 C 0.3165 0.63583 0.57751 0.0
C15 C 0.33321 0.64486 0.42428 0.0
O16 O 0.35132 0.69118 0.55373 0.0
Zn17 Zn 0.32668 0.64103 0.50076 0.0
O18 O 0.28286 0.57236 0.5611 0.0
Zn19 Zn 0.2692 0.52626 0.49925 0.0
O20 O 0.32165 0.47371 0.50304 0.0
O21 O 0.39444 0.5928 0.50156 0.0
O22 O 0.30055 0.57933 0.43852 0.0
O23 O 0.35673 0.69795 0.44958 0.0
O24 O 0.20912 0.59019 0.49922 0.0
O25 O 0.16496 0.47125 0.49507 0.0
C26 C 0.38557 0.52854 0.50326 0.0
C27 C 0.15459 0.5252 0.49712 0.0
C28 C 0.69113 0.31611 0.92048 0.0
C29 C 0.69761 0.3287 0.76714 0.0
O30 O 0.66187 0.34193 0.89625 0.0
Zn31 Zn 0.69171 0.3203 0.84336 0.0
O32 O 0.72614 0.28717 0.90467 0.0
Zn33 Zn 0.74967 0.26358 0.8432 0.0
O34 O 0.85397 0.31224 0.84437 0.0
O35 O 0.80982 0.3874 0.84397 0.0
O36 O 0.73065 0.29649 0.78189 0.0
O37 O 0.66597 0.35046 0.79231 0.0
O38 O 0.62394 0.20472 0.83869 0.0
O39 O 0.6961 0.15822 0.84267 0.0
C40 C 0.86435 0.37666 0.84435 0.0
C41 C 0.63228 0.14903 0.83978 0.0
C42 C 0.37584 0.68632 0.24416 0.0
C43 C 0.38429 0.69724 0.09072 0.0
O44 O 0.32226 0.65905 0.21895 0.0
Zn45 Zn 0.37886 0.69277 0.16789 0.0
O46 O 0.44124 0.72257 0.22985 0.0
Zn47 Zn 0.49379 0.75497 0.16891 0.0
O48 O 0.54106 0.85997 0.16962 0.0
O49 O 0.42141 0.8081 0.17176 0.0
O50 O 0.44797 0.72938 0.10704 0.0
O51 O 0.32853 0.66853 0.11457 0.0
O52 O 0.43482 0.63088 0.16787 0.0
O53 O 0.55321 0.70981 0.1689 0.0
C54 C 0.48427 0.86575 0.17115 0.0
C55 C 0.501 0.64436 0.1684 0.0
C56 C 0.6367 0.48865 0.50897 0.0
C57 C 0.86511 0.48791 0.50482 0.0
O58 O 0.70122 0.54238 0.50933 0.0
Zn59 Zn 0.75085 0.48749 0.50864 0.0
O60 O 0.62599 0.42356 0.5094 0.0
Zn61 Zn 0.69277 0.37323 0.50957 0.0
O62 O 0.66602 0.31995 0.56166 0.0
O63 O 0.73209 0.43848 0.57067 0.0
O64 O 0.81033 0.42296 0.50666 0.0
O65 O 0.85513 0.54211 0.50523 0.0
O66 O 0.72039 0.43607 0.44775 0.0
O67 O 0.66356 0.3173 0.45885 0.0
C68 C 0.6983 0.37375 0.5862 0.0
C69 C 0.68731 0.3709 0.43347 0.0
C70 C 0.38582 0.85437 0.83409 0.0
C71 C 0.15634 0.62502 0.84193 0.0
O72 O 0.32145 0.84417 0.83497 0.0
Zn73 Zn 0.27027 0.73937 0.83768 0.0
O74 O 0.39579 0.79959 0.83429 0.0
Zn75 Zn 0.32849 0.683 0.83476 0.0
O76 O 0.35205 0.65795 0.78131 0.0
O77 O 0.28369 0.70868 0.77526 0.0
O78 O 0.21113 0.61513 0.83856 0.0
O79 O 0.16606 0.68909 0.84349 0.0
O80 O 0.30399 0.71817 0.89754 0.0
O81 O 0.36002 0.65579 0.88506 0.0
C82 C 0.31714 0.679 0.75819 0.0
C83 C 0.33718 0.68541 0.9109 0.0
C84 C 0.4765 0.03715 0.14332 0.0
C85 C 0.51648 0.08325 0.17712 0.0
C86 C 0.53073 0.9847 0.20855 0.0
C87 C 0.49102 0.93887 0.17451 0.0
N88 N 0.40995 0.91522 0.1156 0.0
N89 N 0.58805 0.10468 0.24004 0.0
C90 C 0.45891 0.9631 0.14379 0.0
C91 C 0.54536 0.05802 0.20927 0.0
N92 N 0.46007 0.06556 0.10902 0.0
N93 N 0.54973 0.9562 0.24173 0.0
H94 H 0.59645 0.15708 0.24338 0.0
H95 H 0.61872 0.09352 0.26115 0.0
H96 H 0.53703 0.90198 0.24322 0.0
H97 H 0.57222 0.98358 0.26963 0.0
H98 H 0.43965 0.0374 0.08103 0.0
H99 H 0.4737 0.11997 0.10661 0.0
H100 H 0.37832 0.92776 0.09602 0.0
H101 H 0.39508 0.86062 0.11424 0.0
C102 C 0.50085 0.54935 0.53812 0.0
C103 C 0.45021 0.51882 0.50454 0.0
C104 C 0.5249 0.473 0.47227 0.0
C105 C 0.57372 0.50088 0.50684 0.0
N106 N 0.60444 0.55712 0.57515 0.0
N107 N 0.41902 0.46273 0.4362 0.0
C108 C 0.56114 0.53747 0.5402 0.0
C109 C 0.46311 0.48282 0.47086 0.0
N110 N 0.49236 0.59123 0.56766 0.0
N111 N 0.5379 0.43714 0.44077 0.0
H112 H 0.37435 0.47047 0.43349 0.0
H113 H 0.42861 0.44276 0.4086 0.0
H114 H 0.58618 0.43571 0.43818 0.0
H115 H 0.50058 0.40686 0.41756 0.0
H116 H 0.53216 0.62324 0.58937 0.0
H117 H 0.44733 0.59841 0.56905 0.0
H118 H 0.59253 0.57445 0.60308 0.0
H119 H 0.65027 0.55133 0.57768 0.0
C120 C 0.96629 0.4848 0.88 0.0
C121 C 0.93941 0.43973 0.84399 0.0
C122 C 0.05317 0.5191 0.80581 0.0
C123 C 0.08166 0.56144 0.84269 0.0
N124 N 0.07114 0.57968 0.91656 0.0
N125 N 0.95797 0.40879 0.77385 0.0
C126 C 0.03966 0.54321 0.88022 0.0
C127 C 0.98327 0.45518 0.80731 0.0
N128 N 0.92158 0.4718 0.91398 0.0
N129 N 0.09166 0.54197 0.76887 0.0
H130 H 0.90525 0.3643 0.7724 0.0
H131 H 0.99027 0.41168 0.74839 0.0
H132 H 0.14293 0.58852 0.76649 0.0
H133 H 0.07099 0.5184 0.7398 0.0
H134 H 0.93454 0.50765 0.93897 0.0
H135 H 0.86924 0.42677 0.91627 0.0
H136 H 0.04643 0.56413 0.94604 0.0
H137 H 0.12478 0.62262 0.91791 0.0
C138 C 0.05587 0.54225 0.4654 0.0
C139 C 0.07971 0.51375 0.49838 0.0
C140 C 0.9655 0.47458 0.53711 0.0
C141 C 0.93995 0.49926 0.50306 0.0
N142 N 0.9571 0.55227 0.43364 0.0
N143 N 0.05705 0.44859 0.56434 0.0
C144 C 0.9844 0.53256 0.46702 0.0
C145 C 0.03424 0.47827 0.53375 0.0
N146 N 0.10182 0.57857 0.43248 0.0
N147 N 0.9257 0.45149 0.57363 0.0
H148 H 0.10926 0.45538 0.56516 0.0
H149 H 0.02326 0.41389 0.58795 0.0
H150 H 0.87588 0.44947 0.57765 0.0
H151 H 0.94423 0.43999 0.60133 0.0
H152 H 0.0925 0.60922 0.41029 0.0
H153 H 0.1515 0.5805 0.42801 0.0
H154 H 0.9825 0.56838 0.40438 0.0
H155 H 0.90641 0.54901 0.43417 0.0
C156 C 0.50316 0.95456 0.80295 0.0
C157 C 0.44942 0.92932 0.83526 0.0
C158 C 0.51004 0.05041 0.8671 0.0
C159 C 0.56775 0.07434 0.83712 0.0
N160 N 0.62108 0.04827 0.77714 0.0
N161 N 0.41185 0.94761 0.90357 0.0
C162 C 0.565 0.02591 0.80539 0.0
C163 C 0.45552 0.97574 0.86876 0.0
N164 N 0.49357 0.91149 0.76895 0.0
N165 N 0.5061 0.09851 0.8939 0.0
H166 H 0.37272 0.89269 0.9068 0.0
H167 H 0.41971 0.97689 0.93116 0.0
H168 H 0.54461 0.15352 0.89513 0.0
H169 H 0.46058 0.08503 0.91258 0.0
H170 H 0.52529 0.92963 0.74175 0.0
H171 H 0.45054 0.85831 0.76651 0.0
H172 H 0.62765 0.01301 0.75736 0.0
H173 H 0.66321 0.102 0.77435 0.0
C174 C 0.54394 0.56742 0.20498 0.0
C175 C 0.5157 0.583 0.16831 0.0
C176 C 0.51196 0.47912 0.13219 0.0
C177 C 0.53411 0.45998 0.16996 0.0
N178 N 0.56373 0.47977 0.2437 0.0
N179 N 0.46757 0.55187 0.09792 0.0
C180 C 0.54868 0.50281 0.20668 0.0
C181 C 0.49804 0.53816 0.13219 0.0
N182 N 0.56599 0.61427 0.23823 0.0
N183 N 0.50725 0.44265 0.09589 0.0
H184 H 0.4616 0.59763 0.09532 0.0
H185 H 0.44467 0.5161 0.07289 0.0
H186 H 0.51727 0.39929 0.0947 0.0
H187 H 0.49919 0.45868 0.0663 0.0
H188 H 0.59479 0.61082 0.2638 0.0
H189 H 0.55949 0.65979 0.23931 0.0
H190 H 0.56671 0.50357 0.27272 0.0
H191 H 0.56803 0.43303 0.24615 0.0
C192 C 0.70594 0.38722 0.9863 0.0
C193 C 0.68523 0.31944 0.96691 0.0
C194 C 0.65454 0.25927 0.03624 0.0
C195 C 0.66711 0.3252 0.0546 0.0
N196 N 0.69559 0.44979 0.04725 0.0
N197 N 0.63277 0.18874 0.97303 0.0
C198 C 0.69037 0.38869 0.0297 0.0
C199 C 0.65805 0.25486 0.99179 0.0
N200 N 0.74379 0.45057 0.9638 0.0
N201 N 0.64109 0.20129 0.06146 0.0
H202 H 0.63669 0.18232 0.94091 0.0
H203 H 0.60311 0.13928 0.98892 0.0
H204 H 0.63723 0.20212 0.09416 0.0
H205 H 0.63981 0.15453 0.05049 0.0
H206 H 0.76684 0.50192 0.97733 0.0
H207 H 0.75877 0.45212 0.93237 0.0
H208 H 0.70408 0.495 0.02968 0.0
H209 H 0.68565 0.45315 0.07911 0.0
C210 C 0.38964 0.63447 0.31218 0.0
C211 C 0.36363 0.67523 0.29014 0.0
C212 C 0.31422 0.69346 0.35589 0.0
C213 C 0.3456 0.65791 0.37835 0.0
N214 N 0.42582 0.60785 0.37921 0.0
N215 N 0.31225 0.75415 0.29136 0.0
C216 C 0.38683 0.63202 0.35686 0.0
C217 C 0.32884 0.70764 0.31206 0.0
N218 N 0.41474 0.596 0.29035 0.0
N219 N 0.26835 0.71134 0.37603 0.0
H220 H 0.32213 0.7659 0.2593 0.0
H221 H 0.29437 0.78576 0.30657 0.0
H222 H 0.25686 0.70265 0.40815 0.0
H223 H 0.23717 0.72945 0.36037 0.0
H224 H 0.42733 0.55926 0.3045 0.0
H225 H 0.41663 0.59555 0.25756 0.0
H226 H 0.46273 0.59525 0.36544 0.0
H227 H 0.42686 0.60717 0.41202 0.0
C228 C 0.6903 0.28565 0.69246 0.0
C229 C 0.69645 0.33996 0.72085 0.0
C230 C 0.69032 0.4096 0.66087 0.0
C231 C 0.69737 0.36191 0.63254 0.0
N232 N 0.72539 0.26503 0.62401 0.0
N233 N 0.72321 0.46447 0.72942 0.0
C234 C 0.70361 0.30286 0.64901 0.0
C235 C 0.70253 0.40524 0.7044 0.0
N236 N 0.66845 0.21662 0.70627 0.0
N237 N 0.66864 0.45674 0.64689 0.0
H238 H 0.73895 0.46644 0.76067 0.0
H239 H 0.73358 0.51467 0.71748 0.0
H240 H 0.65241 0.45691 0.61599 0.0
H241 H 0.65763 0.48848 0.66723 0.0
H242 H 0.65827 0.17436 0.68579 0.0
H243 H 0.65122 0.19936 0.73707 0.0
H244 H 0.73591 0.22533 0.63598 0.0
H245 H 0.74185 0.27936 0.59281 0.0
C246 C 0.40498 0.75333 0.9747 0.0
C247 C 0.35282 0.68683 0.95629 0.0
C248 C 0.33124 0.62521 0.02467 0.0
C249 C 0.37612 0.69352 0.04415 0.0
N250 N 0.45078 0.82468 0.03784 0.0
N251 N 0.25947 0.56102 0.96373 0.0
C252 C 0.41214 0.75815 0.01919 0.0
C253 C 0.31415 0.62306 0.98123 0.0
N254 N 0.44921 0.81152 0.94949 0.0
N255 N 0.3078 0.56215 0.04714 0.0
H256 H 0.2461 0.55716 0.93189 0.0
H257 H 0.22372 0.51535 0.98137 0.0
H258 H 0.32156 0.56121 0.07855 0.0
H259 H 0.28119 0.51075 0.03355 0.0
H260 H 0.49381 0.85893 0.96061 0.0
H261 H 0.44554 0.81013 0.91675 0.0
H262 H 0.46928 0.87376 0.02173 0.0
H263 H 0.46027 0.83167 0.07 0.0
C264 C 0.60764 0.30691 0.37112 0.0
C265 C 0.67641 0.35897 0.38745 0.0
C266 C 0.7193 0.40187 0.31592 0.0
C267 C 0.65538 0.34187 0.29922 0.0
N268 N 0.5461 0.22575 0.31369 0.0
N269 N 0.80413 0.44151 0.37357 0.0
C270 C 0.60146 0.2909 0.32752 0.0
C271 C 0.7343 0.40221 0.35932 0.0
N272 N 0.54735 0.27487 0.39649 0.0
N273 N 0.76391 0.46052 0.29126 0.0
H274 H 0.81805 0.43803 0.40461 0.0
H275 H 0.84868 0.46964 0.35342 0.0
H276 H 0.75144 0.46664 0.26032 0.0
H277 H 0.80806 0.50736 0.30342 0.0
H278 H 0.49502 0.24167 0.38476 0.0
H279 H 0.54815 0.28799 0.42812 0.0
H280 H 0.51004 0.18505 0.33423 0.0
H281 H 0.54101 0.20842 0.28271 0.0
C282 C 0.31727 0.72028 0.68301 0.0
C283 C 0.31266 0.6666 0.71191 0.0
C284 C 0.31535 0.59443 0.65279 0.0
C285 C 0.31275 0.64458 0.62383 0.0
N286 N 0.28465 0.74107 0.61369 0.0
N287 N 0.28045 0.54091 0.72216 0.0
C288 C 0.30589 0.70343 0.63955 0.0
C289 C 0.3037 0.60013 0.69622 0.0
N290 N 0.33494 0.78827 0.69626 0.0
N291 N 0.3316 0.54295 0.6397 0.0
H292 H 0.26541 0.54058 0.75346 0.0
H293 H 0.26705 0.48954 0.71109 0.0
H294 H 0.34325 0.53724 0.60865 0.0
H295 H 0.34109 0.51065 0.66069 0.0
H296 H 0.3461 0.83074 0.67538 0.0
H297 H 0.3458 0.80478 0.72742 0.0
H298 H 0.27286 0.7802 0.6248 0.0
H299 H 0.2695 0.72683 0.58245 0.0
loop_
_geom_bond_atom_site_label_1
_geom_bond_atom_site_label_2
_geom_bond_distance
_geom_bond_site_symmetry_2
_ccdc_geom_bond_type
C0 O2 1.247 . S
C0 O4 1.258 . S
C1 O8 1.247 . S
C1 O9 1.258 . S
O2 C0 1.247 . S
O2 Zn3 2.028 . S
Zn3 O2 2.028 . S
Zn3 O7 2.035 . S
Zn3 O9 2.035 . S
Zn3 O10 2.028 . S
O4 C0 1.258 . S
O4 Zn5 2.035 . S
Zn5 O4 2.035 . S
Zn5 O6 2.028 . S
Zn5 O8 2.028 . S
Zn5 O11 2.035 . S
O6 Zn5 2.028 . S
O6 C12 1.247 . S
O7 Zn3 2.035 . S
O7 C12 1.258 . S
O8 C1 1.247 . S
O8 Zn5 2.028 . S
O9 C1 1.258 . S
O9 Zn3 2.035 . S
O10 Zn3 2.028 . S
O10 C13 1.247 . S
O11 Zn5 2.035 . S
O11 C13 1.258 . S
C12 O6 1.247 . S
C12 O7 1.258 . S
C13 O10 1.247 . S
C13 O11 1.258 . S
C14 O16 1.247 . S
C14 O18 1.258 . S
C15 O22 1.247 . S
C15 O23 1.258 . S
O16 C14 1.247 . S
O16 Zn17 2.028 . S
Zn17 O16 2.028 . S
Zn17 O21 2.035 . S
Zn17 O23 2.035 . S
Zn17 O24 2.028 . S
O18 C14 1.258 . S
O18 Zn19 2.035 . S
Zn19 O18 2.035 . S
Zn19 O20 2.028 . S
Zn19 O22 2.028 . S
Zn19 O25 2.035 . S
O20 Zn19 2.028 . S
O20 C26 1.247 . S
O21 Zn17 2.035 . S
O21 C26 1.258 . S
O22 C15 1.247 . S
O22 Zn19 2.028 . S
O23 C15 1.258 . S
O23 Zn17 2.035 . S
O24 Zn17 2.028 . S
O24 C27 1.247 . S
O25 Zn19 2.035 . S
O25 C27 1.258 . S
C26 O20 1.247 . S
C26 O21 1.258 . S
C27 O24 1.247 . S
C27 O25 1.258 . S
C28 O30 1.247 . S
C28 O32 1.258 . S
C29 O36 1.247 . S
C29 O37 1.258 . S
O30 C28 1.247 . S
O30 Zn31 2.028 . S
Zn31 O30 2.028 . S
Zn31 O35 2.035 . S
Zn31 O37 2.035 . S
Zn31 O38 2.028 . S
O32 C28 1.258 . S
O32 Zn33 2.035 . S
Zn33 O32 2.035 . S
Zn33 O34 2.028 . S
Zn33 O36 2.028 . S
Zn33 O39 2.035 . S
O34 Zn33 2.028 . S
O34 C40 1.247 . S
O35 Zn31 2.035 . S
O35 C40 1.258 . S
O36 C29 1.247 . S
O36 Zn33 2.028 . S
O37 C29 1.258 . S
O37 Zn31 2.035 . S
O38 Zn31 2.028 . S
O38 C41 1.247 . S
O39 Zn33 2.035 . S
O39 C41 1.258 . S
C40 O34 1.247 . S
C40 O35 1.258 . S
C41 O38 1.247 . S
C41 O39 1.258 . S
C42 O44 1.247 . S
C42 O46 1.258 . S
C43 O50 1.247 . S
C43 O51 1.258 . S
O44 C42 1.247 . S
O44 Zn45 2.028 . S
Zn45 O44 2.028 . S
Zn45 O49 2.035 . S
Zn45 O51 2.035 . S
Zn45 O52 2.028 . S
O46 C42 1.258 . S
O46 Zn47 2.035 . S
Zn47 O46 2.035 . S
Zn47 O48 2.028 . S
Zn47 O50 2.028 . S
Zn47 O53 2.035 . S
O48 Zn47 2.028 . S
O48 C54 1.247 . S
O49 Zn45 2.035 . S
O49 C54 1.258 . S
O50 C43 1.247 . S
O50 Zn47 2.028 . S
O51 C43 1.258 . S
O51 Zn45 2.035 . S
O52 Zn45 2.028 . S
O52 C55 1.247 . S
O53 Zn47 2.035 . S
O53 C55 1.258 . S
C54 O48 1.247 . S
C54 O49 1.258 . S
C55 O52 1.247 . S
C55 O53 1.258 . S
C56 O58 1.247 . S
C56 O60 1.258 . S
C57 O64 1.247 . S
C57 O65 1.258 . S
O58 C56 1.247 . S
O58 Zn59 2.028 . S
Zn59 O58 2.028 . S
Zn59 O63 2.035 . S
Zn59 O65 2.035 . S
Zn59 O66 2.028 . S
O60 C56 1.258 . S
O60 Zn61 2.035 . S
Zn61 O60 2.035 . S
Zn61 O62 2.028 . S
Zn61 O64 2.028 . S
Zn61 O67 2.035 . S
O62 Zn61 2.028 . S
O62 C68 1.247 . S
O63 Zn59 2.035 . S
O63 C68 1.258 . S
O64 C57 1.247 . S
O64 Zn61 2.028 . S
O65 C57 1.258 . S
O65 Zn59 2.035 . S
O66 Zn59 2.028 . S
O66 C69 1.247 . S
O67 Zn61 2.035 . S
O67 C69 1.258 . S
C68 O62 1.247 . S
C68 O63 1.258 . S
C69 O66 1.247 . S
C69 O67 1.258 . S
C70 O72 1.247 . S
C70 O74 1.258 . S
C71 O78 1.247 . S
C71 O79 1.258 . S
O72 C70 1.247 . S
O72 Zn73 2.028 . S
Zn73 O72 2.028 . S
Zn73 O77 2.035 . S
Zn73 O79 2.035 . S
Zn73 O80 2.028 . S
O74 C70 1.258 . S
O74 Zn75 2.035 . S
Zn75 O74 2.035 . S
Zn75 O76 2.028 . S
Zn75 O78 2.028 . S
Zn75 O81 2.035 . S
O76 Zn75 2.028 . S
O76 C82 1.247 . S
O77 Zn73 2.035 . S
O77 C82 1.258 . S
O78 C71 1.247 . S
O78 Zn75 2.028 . S
O79 C71 1.258 . S
O79 Zn73 2.035 . S
O80 Zn73 2.028 . S
O80 C83 1.247 . S
O81 Zn75 2.035 . S
O81 C83 1.258 . S
C82 O76 1.247 . S
C82 O77 1.258 . S
C83 O80 1.247 . S
C83 O81 1.258 . S
C84 C85 1.363 . S
C84 C90 1.379 1_545 S
C84 N92 1.356 . S
C85 C84 1.363 . S
C85 C91 1.363 . S
C86 C87 1.363 . S
C86 C91 1.379 1_565 S
C86 N93 1.356 . S
C87 C86 1.363 . S
C87 C90 1.363 . S
N88 C90 1.356 . S
N88 H100 0.984 . S
N88 H101 0.985 . S
N89 C91 1.356 . S
N89 H94 0.984 . S
N89 H95 0.985 . S
C90 C84 1.379 1_565 S
C90 C87 1.363 . S
C90 N88 1.356 . S
C91 C85 1.363 . S
C91 C86 1.379 1_545 S
C91 N89 1.356 . S
N92 C84 1.356 . S
N92 H98 0.984 . S
N92 H99 0.984 . S
N93 C86 1.356 . S
N93 H96 0.984 . S
N93 H97 0.985 . S
H94 N89 0.984 . S
H95 N89 0.985 . S
H96 N93 0.984 . S
H97 N93 0.985 . S
H98 N92 0.984 . S
H99 N92 0.984 . S
H100 N88 0.984 . S
H101 N88 0.985 . S
C102 C103 1.363 . S
C102 C108 1.379 . S
C102 N110 1.356 . S
C103 C102 1.363 . S
C103 C109 1.363 . S
C104 C105 1.363 . S
C104 C109 1.379 . S
C104 N111 1.356 . S
C105 C104 1.363 . S
C105 C108 1.363 . S
N106 C108 1.356 . S
N106 H118 0.984 . S
N106 H119 0.985 . S
N107 C109 1.356 . S
N107 H112 0.984 . S
N107 H113 0.985 . S
C108 C102 1.379 . S
C108 C105 1.363 . S
C108 N106 1.356 . S
C109 C103 1.363 . S
C109 C104 1.379 . S
C109 N107 1.356 . S
N110 C102 1.356 . S
N110 H116 0.984 . S
N110 H117 0.984 . S
N111 C104 1.356 . S
N111 H114 0.984 . S
N111 H115 0.985 . S
H112 N107 0.984 . S
H113 N107 0.985 . S
H114 N111 0.984 . S
H115 N111 0.985 . S
H116 N110 0.984 . S
H117 N110 0.984 . S
H118 N106 0.984 . S
H119 N106 0.985 . S
C120 C121 1.363 . S
C120 C126 1.379 1_655 S
C120 N128 1.356 . S
C121 C120 1.363 . S
C121 C127 1.363 . S
C122 C123 1.363 . S
C122 C127 1.379 1_455 S
C122 N129 1.356 . S
C123 C122 1.363 . S
C123 C126 1.363 . S
N124 C126 1.356 . S
N124 H136 0.984 . S
N124 H137 0.985 . S
N125 C127 1.356 . S
N125 H130 0.984 . S
N125 H131 0.985 . S
C126 C120 1.379 1_455 S
C126 C123 1.363 . S
C126 N124 1.356 . S
C127 C121 1.363 . S
C127 C122 1.379 1_655 S
C127 N125 1.356 . S
N128 C120 1.356 . S
N128 H134 0.984 . S
N128 H135 0.984 . S
N129 C122 1.356 . S
N129 H132 0.984 . S
N129 H133 0.985 . S
H130 N125 0.984 . S
H131 N125 0.985 . S
H132 N129 0.984 . S
H133 N129 0.985 . S
H134 N128 0.984 . S
H135 N128 0.984 . S
H136 N124 0.984 . S
H137 N124 0.985 . S
C138 C139 1.363 . S
C138 C144 1.379 1_455 S
C138 N146 1.356 . S
C139 C138 1.363 . S
C139 C145 1.363 . S
C140 C141 1.363 . S
C140 C145 1.379 1_655 S
C140 N147 1.356 . S
C141 C140 1.363 . S
C141 C144 1.363 . S
N142 C144 1.356 . S
N142 H154 0.984 . S
N142 H155 0.985 . S
N143 C145 1.356 . S
N143 H148 0.984 . S
N143 H149 0.985 . S
C144 C138 1.379 1_655 S
C144 C141 1.363 . S
C144 N142 1.356 . S
C145 C139 1.363 . S
C145 C140 1.379 1_455 S
C145 N143 1.356 . S
N146 C138 1.356 . S
N146 H152 0.984 . S
N146 H153 0.984 . S
N147 C140 1.356 . S
N147 H150 0.984 . S
N147 H151 0.985 . S
H148 N143 0.984 . S
H149 N143 0.985 . S
H150 N147 0.984 . S
H151 N147 0.985 . S
H152 N146 0.984 . S
H153 N146 0.984 . S
H154 N142 0.984 . S
H155 N142 0.985 . S
C156 C157 1.363 . S
C156 C162 1.379 1_565 S
C156 N164 1.356 . S
C157 C156 1.363 . S
C157 C163 1.363 . S
C158 C159 1.363 . S
C158 C163 1.379 1_545 S
C158 N165 1.356 . S
C159 C158 1.363 . S
C159 C162 1.363 . S
N160 C162 1.356 . S
N160 H172 0.984 . S
N160 H173 0.985 . S
N161 C163 1.356 . S
N161 H166 0.984 . S
N161 H167 0.985 . S
C162 C156 1.379 1_545 S
C162 C159 1.363 . S
C162 N160 1.356 . S
C163 C157 1.363 . S
C163 C158 1.379 1_565 S
C163 N161 1.356 . S
N164 C156 1.356 . S
N164 H170 0.984 . S
N164 H171 0.984 . S
N165 C158 1.356 . S
N165 H168 0.984 . S
N165 H169 0.985 . S
H166 N161 0.984 . S
H167 N161 0.985 . S
H168 N165 0.984 . S
H169 N165 0.985 . S
H170 N164 0.984 . S
H171 N164 0.984 . S
H172 N160 0.984 . S
H173 N160 0.985 . S
C174 C175 1.363 . S
C174 C180 1.379 . S
C174 N182 1.356 . S
C175 C174 1.363 . S
C175 C181 1.363 . S
C176 C177 1.363 . S
C176 C181 1.379 . S
C176 N183 1.356 . S
C177 C176 1.363 . S
C177 C180 1.363 . S
N178 C180 1.356 . S
N178 H190 0.984 . S
N178 H191 0.985 . S
N179 C181 1.356 . S
N179 H184 0.984 . S
N179 H185 0.985 . S
C180 C174 1.379 . S
C180 C177 1.363 . S
C180 N178 1.356 . S
C181 C175 1.363 . S
C181 C176 1.379 . S
C181 N179 1.356 . S
N182 C174 1.356 . S
N182 H188 0.984 . S
N182 H189 0.984 . S
N183 C176 1.356 . S
N183 H186 0.984 . S
N183 H187 0.985 . S
H184 N179 0.984 . S
H185 N179 0.985 . S
H186 N183 0.984 . S
H187 N183 0.985 . S
H188 N182 0.984 . S
H189 N182 0.984 . S
H190 N178 0.984 . S
H191 N178 0.985 . S
C192 C193 1.363 . S
C192 C198 1.379 1_556 S
C192 N200 1.356 . S
C193 C192 1.363 . S
C193 C199 1.363 . S
C194 C195 1.363 . S
C194 C199 1.379 1_554 S
C194 N201 1.356 . S
C195 C194 1.363 . S
C195 C198 1.363 . S
N196 C198 1.356 . S
N196 H208 0.984 . S
N196 H209 0.985 . S
N197 C199 1.356 . S
N197 H202 0.984 . S
N197 H203 0.985 . S
C198 C192 1.379 1_554 S
C198 C195 1.363 . S
C198 N196 1.356 . S
C199 C193 1.363 . S
C199 C194 1.379 1_556 S
C199 N197 1.356 . S
N200 C192 1.356 . S
N200 H206 0.984 . S
N200 H207 0.984 . S
N201 C194 1.356 . S
N201 H204 0.984 . S
N201 H205 0.985 . S
H202 N197 0.984 . S
H203 N197 0.985 . S
H204 N201 0.984 . S
H205 N201 0.985 . S
H206 N200 0.984 . S
H207 N200 0.984 . S
H208 N196 0.984 . S
H209 N196 0.985 . S
C210 C211 1.363 . S
C210 C216 1.379 . S
C210 N218 1.356 . S
C211 C210 1.363 . S
C211 C217 1.363 . S
C212 C213 1.363 . S
C212 C217 1.379 . S
C212 N219 1.356 . S
C213 C212 1.363 . S
C213 C216 1.363 . S
N214 C216 1.356 . S
N214 H226 0.984 . S
N214 H227 0.985 . S
N215 C217 1.356 . S
N215 H220 0.984 . S
N215 H221 0.985 . S
C216 C210 1.379 . S
C216 C213 1.363 . S
C216 N214 1.356 . S
C217 C211 1.363 . S
C217 C212 1.379 . S
C217 N215 1.356 . S
N218 C210 1.356 . S
N218 H224 0.984 . S
N218 H225 0.984 . S
N219 C212 1.356 . S
N219 H222 0.984 . S
N219 H223 0.985 . S
H220 N215 0.984 . S
H221 N215 0.985 . S
H222 N219 0.984 . S
H223 N219 0.985 . S
H224 N218 0.984 . S
H225 N218 0.984 . S
H226 N214 0.984 . S
H227 N214 0.985 . S
C228 C229 1.363 . S
C228 C234 1.379 . S
C228 N236 1.356 . S
C229 C228 1.363 . S
C229 C235 1.363 . S
C230 C231 1.363 . S
C230 C235 1.379 . S
C230 N237 1.356 . S
C231 C230 1.363 . S
C231 C234 1.363 . S
N232 C234 1.356 . S
N232 H244 0.984 . S
N232 H245 0.985 . S
N233 C235 1.356 . S
N233 H238 0.984 . S
N233 H239 0.985 . S
C234 C228 1.379 . S
C234 C231 1.363 . S
C234 N232 1.356 . S
C235 C229 1.363 . S
C235 C230 1.379 . S
C235 N233 1.356 . S
N236 C228 1.356 . S
N236 H242 0.984 . S
N236 H243 0.984 . S
N237 C230 1.356 . S
N237 H240 0.984 . S
N237 H241 0.985 . S
H238 N233 0.984 . S
H239 N233 0.985 . S
H240 N237 0.984 . S
H241 N237 0.985 . S
H242 N236 0.984 . S
H243 N236 0.984 . S
H244 N232 0.984 . S
H245 N232 0.985 . S
C246 C247 1.363 . S
C246 C252 1.379 1_556 S
C246 N254 1.356 . S
C247 C246 1.363 . S
C247 C253 1.363 . S
C248 C249 1.363 . S
C248 C253 1.379 1_554 S
C248 N255 1.356 . S
C249 C248 1.363 . S
C249 C252 1.363 . S
N250 C252 1.356 . S
N250 H262 0.984 . S
N250 H263 0.985 . S
N251 C253 1.356 . S
N251 H256 0.984 . S
N251 H257 0.985 . S
C252 C246 1.379 1_554 S
C252 C249 1.363 . S
C252 N250 1.356 . S
C253 C247 1.363 . S
C253 C248 1.379 1_556 S
C253 N251 1.356 . S
N254 C246 1.356 . S
N254 H260 0.984 . S
N254 H261 0.984 . S
N255 C248 1.356 . S
N255 H258 0.984 . S
N255 H259 0.985 . S
H256 N251 0.984 . S
H257 N251 0.985 . S
H258 N255 0.984 . S
H259 N255 0.985 . S
H260 N254 0.984 . S
H261 N254 0.984 . S
H262 N250 0.984 . S
H263 N250 0.985 . S
C264 C265 1.363 . S
C264 C270 1.379 . S
C264 N272 1.356 . S
C265 C264 1.363 . S
C265 C271 1.363 . S
C266 C267 1.363 . S
C266 C271 1.379 . S
C266 N273 1.356 . S
C267 C266 1.363 . S
C267 C270 1.363 . S
N268 C270 1.356 . S
N268 H280 0.984 . S
N268 H281 0.985 . S
N269 C271 1.356 . S
N269 H274 0.984 . S
N269 H275 0.985 . S
C270 C264 1.379 . S
C270 C267 1.363 . S
C270 N268 1.356 . S
C271 C265 1.363 . S
C271 C266 1.379 . S
C271 N269 1.356 . S
N272 C264 1.356 . S
N272 H278 0.984 . S
N272 H279 0.984 . S
N273 C266 1.356 . S
N273 H276 0.984 . S
N273 H277 0.985 . S
H274 N269 0.984 . S
H275 N269 0.985 . S
H276 N273 0.984 . S
H277 N273 0.985 . S
H278 N272 0.984 . S
H279 N272 0.984 . S
H280 N268 0.984 . S
H281 N268 0.985 . S
C282 C283 1.363 . S
C282 C288 1.379 . S
C282 N290 1.356 . S
C283 C282 1.363 . S
C283 C289 1.363 . S
C284 C285 1.363 . S
C284 C289 1.379 . S
C284 N291 1.356 . S
C285 C284 1.363 . S
C285 C288 1.363 . S
N286 C288 1.356 . S
N286 H298 0.984 . S
N286 H299 0.985 . S
N287 C289 1.356 . S
N287 H292 0.984 . S
N287 H293 0.985 . S
C288 C282 1.379 . S
C288 C285 1.363 . S
C288 N286 1.356 . S
C289 C283 1.363 . S
C289 C284 1.379 . S
C289 N287 1.356 . S
N290 C282 1.356 . S
N290 H296 0.984 . S
N290 H297 0.984 . S
N291 C284 1.356 . S
N291 H294 0.984 . S
N291 H295 0.985 . S
H292 N287 0.984 . S
H293 N287 0.985 . S
H294 N291 0.984 . S
H295 N291 0.985 . S
H296 N290 0.984 . S
H297 N290 0.984 . S
H298 N286 0.984 . S
H299 N286 0.985 . S
C85 C1 1.711 . S
C87 C54 1.708 . S
C103 C26 1.708 . S
C105 C56 1.708 . S
C121 C40 1.708 . S
C123 C71 1.711 . S
C139 C27 1.711 . S
C141 C57 1.711 . S
C157 C70 1.708 . S
C159 C41 1.711 . S
C175 C55 1.711 . S
C177 C0 1.708 . S
C193 C28 1.763 . S
C195 C12 1.763 . S
C211 C42 1.763 . S
C213 C15 1.766 . S
C229 C29 1.766 . S
C231 C68 1.763 . S
C247 C83 1.766 . S
C249 C43 1.766 . S
C265 C69 1.766 . S
C267 C13 1.766 . S
C283 C82 1.763 . S
C285 C14 1.763 . S
