# Generated by pormake.
# Topology can, (4)-cn, num edge types: 1
# Building blocks:
#     Node 0, Type 0, BuildingBlock: GALJAG_clean_sbu_0, # of connection points: 4
#     Node 1, Type 0, BuildingBlock: GALJAG_clean_sbu_0, # of connection points: 4
#     Node 2, Type 0, BuildingBlock: GALJAG_clean_sbu_0, # of connection points: 4
#     Node 3, Type 0, BuildingBlock: GALJAG_clean_sbu_0, # of connection points: 4
#     Node 4, Type 0, BuildingBlock: GALJAG_clean_sbu_0, # of connection points: 4
#     Node 5, Type 0, BuildingBlock: GALJAG_clean_sbu_0, # of connection points: 4
#     Node 6, Type 0, BuildingBlock: GALJAG_clean_sbu_0, # of connection points: 4
#     Node 7, Type 0, BuildingBlock: GALJAG_clean_sbu_0, # of connection points: 4
#     Node 8, Type 0, BuildingBlock: GALJAG_clean_sbu_0, # of connection points: 4
#     Node 9, Type 0, BuildingBlock: GALJAG_clean_sbu_0, # of connection points: 4
#     Node 10, Type 0, BuildingBlock: GALJAG_clean_sbu_0, # of connection points: 4
#     Node 11, Type 0, BuildingBlock: GALJAG_clean_sbu_0, # of connection points: 4
#     Edge 12, Type (0, 0), BuildingBlock: UVAHIK_clean_linker_0, # of connection points: 2
#     Edge 13, Type (0, 0), BuildingBlock: UVAHIK_clean_linker_0, # of connection points: 2
#     Edge 14, Type (0, 0), BuildingBlock: UVAHIK_clean_linker_0, # of connection points: 2
#     Edge 15, Type (0, 0), BuildingBlock: UVAHIK_clean_linker_0, # of connection points: 2
#     Edge 16, Type (0, 0), BuildingBlock: UVAHIK_clean_linker_0, # of connection points: 2
#     Edge 17, Type (0, 0), BuildingBlock: UVAHIK_clean_linker_0, # of connection points: 2
#     Edge 18, Type (0, 0), BuildingBlock: UVAHIK_clean_linker_0, # of connection points: 2
#     Edge 19, Type (0, 0), BuildingBlock: UVAHIK_clean_linker_0, # of connection points: 2
#     Edge 20, Type (0, 0), BuildingBlock: UVAHIK_clean_linker_0, # of connection points: 2
#     Edge 21, Type (0, 0), BuildingBlock: UVAHIK_clean_linker_0, # of connection points: 2
#     Edge 22, Type (0, 0), BuildingBlock: UVAHIK_clean_linker_0, # of connection points: 2
#     Edge 23, Type (0, 0), BuildingBlock: UVAHIK_clean_linker_0, # of connection points: 2
#     Edge 24, Type (0, 0), BuildingBlock: UVAHIK_clean_linker_0, # of connection points: 2
#     Edge 25, Type (0, 0), BuildingBlock: UVAHIK_clean_linker_0, # of connection points: 2
#     Edge 26, Type (0, 0), BuildingBlock: UVAHIK_clean_linker_0, # of connection points: 2
#     Edge 27, Type (0, 0), BuildingBlock: UVAHIK_clean_linker_0, # of connection points: 2
#     Edge 28, Type (0, 0), BuildingBlock: UVAHIK_clean_linker_0, # of connection points: 2
#     Edge 29, Type (0, 0), BuildingBlock: UVAHIK_clean_linker_0, # of connection points: 2
#     Edge 30, Type (0, 0), BuildingBlock: UVAHIK_clean_linker_0, # of connection points: 2
#     Edge 31, Type (0, 0), BuildingBlock: UVAHIK_clean_linker_0, # of connection points: 2
#     Edge 32, Type (0, 0), BuildingBlock: UVAHIK_clean_linker_0, # of connection points: 2
#     Edge 33, Type (0, 0), BuildingBlock: UVAHIK_clean_linker_0, # of connection points: 2
#     Edge 34, Type (0, 0), BuildingBlock: UVAHIK_clean_linker_0, # of connection points: 2
#     Edge 35, Type (0, 0), BuildingBlock: UVAHIK_clean_linker_0, # of connection points: 2
# Relax obj value: 0.108
# Max RMSD: 0.101
# Mean RMSD: 0.101
data_MOF--net-can--node1-GALJAG_clean_sbu_0--edge1-UVAHIK_clean_linker_0
_symmetry_space_group_name_H-M    P1
_symmetry_Int_Tables_number       1
_symmetry_cell_setting            triclinic
loop_
_symmetry_equiv_pos_as_xyz
'x, y, z'
_cell_length_a     68.236562
_cell_length_b     68.208454
_cell_length_c     37.15815
_cell_angle_alpha  90.087017
_cell_angle_beta   89.902632
_cell_angle_gamma 119.99763
loop_
_atom_site_label
_atom_site_type_symbol
_atom_site_fract_x
_atom_site_fract_y
_atom_site_fract_z
_atom_type_partial_charge
In0 In 0.03949 0.38162 0.2438 0.0
O1 O 0.07778 0.39974 0.24743 0.0
O2 O 0.05961 0.36361 0.24899 0.0
C3 C 0.03473 0.41834 0.23685 0.0
C4 C 0.02655 0.36223 0.17848 0.0
C5 C 0.02429 0.36556 0.31027 0.0
O6 O 0.05374 0.41946 0.23687 0.0
O7 O 0.01802 0.39864 0.24041 0.0
O8 O 0.01463 0.35414 0.28241 0.0
O9 O 0.04092 0.38497 0.30429 0.0
C10 C 0.07857 0.38165 0.24954 0.0
O11 O 0.0128 0.35622 0.20454 0.0
O12 O 0.04628 0.37785 0.18553 0.0
In13 In 0.65797 0.04397 0.74561 0.0
O14 O 0.67963 0.0822 0.74943 0.0
O15 O 0.69582 0.06246 0.75453 0.0
C16 C 0.61781 0.04191 0.73663 0.0
C17 C 0.66405 0.02965 0.68117 0.0
C18 C 0.65659 0.02816 0.81236 0.0
O19 O 0.63636 0.06033 0.73669 0.0
O20 O 0.61951 0.02447 0.74092 0.0
O21 O 0.65973 0.01903 0.78499 0.0
O22 O 0.65343 0.04447 0.80566 0.0
C23 C 0.69782 0.0819 0.75425 0.0
O24 O 0.65427 0.01603 0.70683 0.0
O25 O 0.6705 0.05004 0.6882 0.0
In26 In 0.61719 0.66374 0.25045 0.0
O27 O 0.60055 0.68518 0.24653 0.0
O28 O 0.63666 0.70208 0.24741 0.0
C29 C 0.57937 0.62286 0.25499 0.0
C30 C 0.6336 0.66405 0.18441 0.0
C31 C 0.63485 0.66873 0.31682 0.0
O32 O 0.57903 0.64115 0.25395 0.0
O33 O 0.59886 0.62512 0.25366 0.0
O34 O 0.64247 0.66286 0.2904 0.0
O35 O 0.61855 0.67177 0.30956 0.0
C36 C 0.61903 0.70374 0.24593 0.0
O37 O 0.64345 0.66297 0.21251 0.0
O38 O 0.61567 0.6646 0.18992 0.0
In39 In 0.94779 0.61318 0.74527 0.0
O40 O 0.90955 0.59591 0.74367 0.0
O41 O 0.92816 0.63196 0.74648 0.0
C42 C 0.95204 0.57608 0.74118 0.0
C43 C 0.96332 0.6328 0.6808 0.0
C44 C 0.95986 0.62681 0.81367 0.0
O45 O 0.93323 0.57535 0.74011 0.0
O46 O 0.96899 0.5957 0.74437 0.0
O47 O 0.97253 0.63773 0.78752 0.0
O48 O 0.94179 0.6092 0.80504 0.0
C49 C 0.90905 0.61416 0.745 0.0
O50 O 0.97393 0.64198 0.70952 0.0
O51 O 0.94561 0.61394 0.685 0.0
In52 In 0.33054 0.94616 0.24133 0.0
O53 O 0.3326 0.97359 0.20304 0.0
O54 O 0.31749 0.93967 0.1842 0.0
C55 C 0.3315 0.96152 0.30842 0.0
C56 C 0.29206 0.90686 0.25038 0.0
C57 C 0.37164 0.95058 0.23104 0.0
O58 O 0.32744 0.97014 0.28136 0.0
O59 O 0.33571 0.94594 0.30124 0.0
O60 O 0.35366 0.93163 0.23121 0.0
O61 O 0.3689 0.96736 0.2359 0.0
C62 C 0.32308 0.95987 0.17738 0.0
O63 O 0.31081 0.90782 0.24489 0.0
O64 O 0.2928 0.92574 0.25108 0.0
In65 In 0.36785 0.32621 0.74734 0.0
O66 O 0.34047 0.32536 0.71026 0.0
O67 O 0.36822 0.32399 0.68684 0.0
C68 C 0.35185 0.32385 0.81446 0.0
C69 C 0.36575 0.286 0.74554 0.0
C70 C 0.40601 0.36697 0.7471 0.0
O71 O 0.34407 0.32936 0.7879 0.0
O72 O 0.36749 0.31982 0.80696 0.0
O73 O 0.40612 0.34855 0.74639 0.0
O74 O 0.38659 0.36489 0.74811 0.0
C75 C 0.34995 0.32394 0.68188 0.0
O76 O 0.38428 0.30451 0.74574 0.0
O77 O 0.34818 0.28778 0.74622 0.0
In78 In 0.62257 0.9548 0.24467 0.0
O79 O 0.60454 0.91655 0.24558 0.0
O80 O 0.64053 0.93464 0.25098 0.0
C81 C 0.58449 0.95688 0.23509 0.0
C82 C 0.63681 0.96918 0.31219 0.0
C83 C 0.64381 0.97103 0.18124 0.0
O84 O 0.58479 0.93856 0.23401 0.0
O85 O 0.60343 0.97423 0.24101 0.0
O86 O 0.64579 0.98405 0.20694 0.0
O87 O 0.63154 0.95028 0.18788 0.0
C88 C 0.6225 0.91567 0.24939 0.0
O89 O 0.64923 0.9788 0.28519 0.0
O90 O 0.61742 0.95298 0.30483 0.0
In91 In 0.65924 0.61315 0.74814 0.0
O92 O 0.68018 0.59591 0.74573 0.0
O93 O 0.69761 0.63204 0.74716 0.0
C94 C 0.61791 0.57576 0.7472 0.0
C95 C 0.6625 0.62884 0.81566 0.0
C96 C 0.66219 0.63192 0.68324 0.0
O97 O 0.636 0.57505 0.74611 0.0
O98 O 0.62059 0.59542 0.74891 0.0
O99 O 0.66026 0.64092 0.71182 0.0
O100 O 0.66222 0.61365 0.6877 0.0
C101 C 0.69892 0.61421 0.74591 0.0
O102 O 0.65815 0.63778 0.78934 0.0
O103 O 0.66478 0.61214 0.80776 0.0
In104 In 0.03544 0.66728 0.24649 0.0
O105 O 0.07367 0.68425 0.24813 0.0
O106 O 0.05872 0.70504 0.25426 0.0
C107 C 0.0312 0.62628 0.23604 0.0
C108 C 0.02161 0.66781 0.31425 0.0
C109 C 0.01855 0.67224 0.18373 0.0
O110 O 0.04989 0.64447 0.23373 0.0
O111 O 0.01449 0.62872 0.24348 0.0
O112 O 0.03935 0.68033 0.18945 0.0
O113 O 0.00594 0.66197 0.2102 0.0
C114 C 0.07661 0.70387 0.25296 0.0
O115 O 0.01567 0.67554 0.28818 0.0
O116 O 0.03368 0.65936 0.30571 0.0
In117 In 0.36533 0.03641 0.74226 0.0
O118 O 0.38242 0.07459 0.74318 0.0
O119 O 0.3464 0.05573 0.74786 0.0
C120 C 0.40453 0.03616 0.73463 0.0
C121 C 0.35033 0.02162 0.80943 0.0
C122 C 0.34512 0.01956 0.6783 0.0
O123 O 0.40332 0.05397 0.73261 0.0
O124 O 0.38591 0.01837 0.74037 0.0
O125 O 0.34362 0.00679 0.70401 0.0
O126 O 0.35639 0.04038 0.68519 0.0
C127 C 0.36416 0.07494 0.74655 0.0
O128 O 0.33847 0.01176 0.78207 0.0
O129 O 0.36953 0.0383 0.80262 0.0
In130 In 0.32597 0.37795 0.24995 0.0
O131 O 0.30617 0.39637 0.24714 0.0
O132 O 0.28772 0.36024 0.24588 0.0
C133 C 0.36751 0.4148 0.25554 0.0
C134 C 0.31995 0.35903 0.31561 0.0
C135 C 0.32501 0.36171 0.18346 0.0
O136 O 0.34962 0.41589 0.25465 0.0
O137 O 0.36452 0.39503 0.2536 0.0
O138 O 0.32468 0.35095 0.21136 0.0
O139 O 0.32622 0.38046 0.18938 0.0
C140 C 0.28712 0.37847 0.24551 0.0
O141 O 0.32635 0.35201 0.28908 0.0
O142 O 0.3169 0.37538 0.30883 0.0
In143 In 0.95096 0.32583 0.74366 0.0
O144 O 0.97591 0.3236 0.78268 0.0
O145 O 0.94963 0.3284 0.80394 0.0
C146 C 0.96531 0.32036 0.67872 0.0
C147 C 0.91182 0.28703 0.75114 0.0
C148 C 0.95391 0.36657 0.7368 0.0
O149 O 0.97892 0.33006 0.70439 0.0
O150 O 0.94489 0.31341 0.68611 0.0
O151 O 0.93541 0.34817 0.73528 0.0
O152 O 0.97107 0.36447 0.74151 0.0
C153 C 0.96627 0.32574 0.8103 0.0
O154 O 0.91277 0.30587 0.74681 0.0
O155 O 0.93071 0.28777 0.7514 0.0
C156 C -0.00221 0.34126 0.13049 0.0
C157 C 0.02036 0.35248 0.14208 0.0
C158 C 0.99257 0.33432 0.09462 0.0
C159 C 0.01962 0.34816 0.0048 0.0
H160 H 0.96294 0.29625 0.97511 0.0
C161 C -0.00549 0.32724 0.85506 0.0
C162 C 0.97323 0.32473 0.84746 0.0
C163 C 0.00105 0.32726 0.89078 0.0
C164 C 0.97888 0.31074 0.98308 0.0
H165 H 0.05502 0.3639 0.12624 0.0
H166 H 0.04591 0.35111 0.06426 0.0
H167 H 0.97286 0.30202 0.03889 0.0
H168 H 0.94178 0.31943 0.87087 0.0
H169 H 0.9531 0.31927 0.93284 0.0
H170 H 0.02547 0.35696 0.94899 0.0
C171 C 0.03226 0.34836 0.08225 0.0
C172 C 0.98451 0.31414 0.01958 0.0
C173 C 0.03748 0.35558 0.11783 0.0
C174 C 0.95836 0.32154 0.87595 0.0
C175 C 0.96474 0.32123 0.91142 0.0
C176 C 0.01409 0.34462 0.96833 0.0
C177 C 0.00983 0.33821 0.06989 0.0
C178 C 0.00474 0.33317 0.03096 0.0
C179 C 0.98622 0.32437 0.91925 0.0
C180 C 0.99345 0.32618 0.95721 0.0
H181 H 0.9843 0.33872 0.1487 0.0
H182 H 0.97513 0.32677 0.08601 0.0
H183 H 0.03516 0.36322 0.01251 0.0
H184 H 0.00624 0.32968 0.83355 0.0
H185 H 0.01771 0.32969 0.89618 0.0
C186 C 0.66415 -0.00407 0.35795 0.0
C187 C 0.64426 0.97566 0.34971 0.0
C188 C 0.67055 0.00196 0.39385 0.0
C189 C 0.66174 0.97872 0.48581 0.0
H190 H 0.67313 0.03795 0.51576 0.0
C191 C 0.65334 0.00021 0.63324 0.0
C192 C 0.66695 0.02259 0.64501 0.0
C193 C 0.65438 0.99445 0.59741 0.0
C194 C 0.67051 0.02151 0.5079 0.0
H195 H 0.61581 0.94551 0.37231 0.0
H196 H 0.62703 0.95596 0.43466 0.0
H197 H 0.66865 0.02827 0.45216 0.0
H198 H 0.6934 0.05617 0.62956 0.0
H199 H 0.69581 0.04603 0.56759 0.0
H200 H 0.66336 0.97183 0.54156 0.0
C201 C 0.63771 0.96717 0.41355 0.0
C202 C 0.6679 0.01599 0.47139 0.0
C203 C 0.63119 0.96131 0.37784 0.0
C204 C 0.68248 0.03883 0.62101 0.0
C205 C 0.68376 0.03304 0.58544 0.0
C206 C 0.66457 0.98431 0.52235 0.0
C207 C 0.65733 0.98762 0.42195 0.0
C208 C 0.66301 0.99438 0.46007 0.0
C209 C 0.66927 0.01095 0.57288 0.0
C210 C 0.66853 0.00563 0.53391 0.0
H211 H 0.67455 0.00726 0.33673 0.0
H212 H 0.68579 0.01782 0.39967 0.0
H213 H 0.65822 0.96201 0.4777 0.0
H214 H 0.64119 0.9874 0.65124 0.0
H215 H 0.6428 0.97733 0.58863 0.0
C216 C 0.63316 0.67113 0.11891 0.0
C217 C 0.64203 0.66465 0.14765 0.0
C218 C 0.63997 0.67072 0.08368 0.0
C219 C 0.65942 0.64072 0.02719 0.0
H220 H 0.67132 0.6878 0.95769 0.0
C221 C 0.67508 0.62998 0.87874 0.0
C222 C 0.66469 0.63687 0.85308 0.0
C223 C 0.67613 0.63619 0.91474 0.0
C224 C 0.66785 0.67442 0.97669 0.0
H225 H 0.66536 0.65318 0.16232 0.0
H226 H 0.677 0.65199 0.10017 0.0
H227 H 0.66673 0.69383 0.02125 0.0
H228 H 0.64775 0.65615 0.84458 0.0
H229 H 0.64878 0.66641 0.9079 0.0
H230 H 0.6594 0.62081 0.98285 0.0
C231 C 0.66485 0.65749 0.10515 0.0
C232 C 0.66537 0.67795 0.01307 0.0
C233 C 0.65825 0.65821 0.1406 0.0
C234 C 0.65588 0.65064 0.86388 0.0
C235 C 0.65662 0.65661 0.90011 0.0
C236 C 0.66165 0.63708 0.99082 0.0
C237 C 0.6556 0.66357 0.07637 0.0
C238 C 0.66084 0.661 0.03857 0.0
C239 C 0.66647 0.64915 0.92608 0.0
C240 C 0.66562 0.65378 0.96502 0.0
H241 H 0.62071 0.67629 0.12357 0.0
H242 H 0.63237 0.67523 0.06201 0.0
H243 H 0.65557 0.62723 0.0462 0.0
H244 H 0.68232 0.61961 0.87105 0.0
H245 H 0.68433 0.63061 0.93374 0.0
C246 C 0.00432 0.68059 0.362 0.0
C247 C 0.01618 0.66949 0.35218 0.0
C248 C 0.0002 0.68274 0.39834 0.0
C249 C 0.98123 0.67001 0.47483 0.0
H250 H 0.02577 0.6773 0.54635 0.0
C251 C 0.95652 0.6321 0.61507 0.0
C252 C 0.97044 0.64306 0.64479 0.0
C253 C 0.96297 0.641 0.5806 0.0
C254 C 0.01328 0.67572 0.52685 0.0
H255 H 0.03296 0.65188 0.37255 0.0
H256 H 0.02548 0.65521 0.43539 0.0
H257 H 0.03624 0.68309 0.48295 0.0
H258 H 0.0018 0.6723 0.66193 0.0
H259 H 0.01327 0.68797 0.60112 0.0
H260 H 0.95817 0.66227 0.51871 0.0
C261 C 0.01974 0.66272 0.41534 0.0
C262 C 0.01919 0.67875 0.49046 0.0
C263 C 0.0238 0.66057 0.37923 0.0
C264 C 0.99081 0.66344 0.63943 0.0
C265 C -0.00265 0.67238 0.6047 0.0
C266 C 0.97534 0.66705 0.51125 0.0
C267 C 0.00799 0.67389 0.4254 0.0
C268 C 0.00297 0.675 0.46398 0.0
C269 C 0.98353 0.66112 0.57488 0.0
C270 C 0.99104 0.66895 0.5375 0.0
H271 H -0.00163 0.68774 0.34167 0.0
H272 H 0.99111 0.69146 0.40528 0.0
H273 H 0.96835 0.66703 0.45514 0.0
H274 H 0.94068 0.61638 0.61829 0.0
H275 H 0.95214 0.63162 0.55825 0.0
C276 C 0.35483 0.02936 0.87521 0.0
C277 C 0.34252 0.01482 0.84676 0.0
C278 C 0.34807 0.02315 0.91075 0.0
C279 C 0.31921 0.97375 0.96777 0.0
H280 H 0.32112 0.01663 0.0384 0.0
C281 C 0.30476 0.95018 0.11717 0.0
C282 C 0.31975 0.96671 0.14135 0.0
C283 C 0.30326 0.95587 0.08166 0.0
C284 C 0.32064 0.0045 0.01907 0.0
H285 H 0.3133 0.98253 0.83305 0.0
H286 H 0.30166 0.97138 0.89571 0.0
H287 H 0.32627 0.02674 0.97467 0.0
H288 H 0.34426 0.00228 0.14794 0.0
H289 H 0.34227 0.0122 0.08547 0.0
H290 H 0.3147 0.95191 0.0119 0.0
C291 C 0.31649 0.98765 0.89026 0.0
C292 C 0.32348 0.01026 0.98259 0.0
C293 C 0.32311 0.99402 0.85451 0.0
C294 C 0.33253 0.98924 0.12982 0.0
C295 C 0.33128 0.9949 0.09405 0.0
C296 C 0.31658 0.96807 0.00422 0.0
C297 C 0.32898 0.00216 0.91869 0.0
C298 C 0.32318 0.99508 0.95669 0.0
C299 C 0.31699 0.97816 0.06933 0.0
C300 C 0.31763 0.98352 0.0304 0.0
H301 H 0.36981 0.04556 0.87005 0.0
H302 H 0.3582 0.03453 0.93211 0.0
H303 H 0.31921 0.96185 0.94843 0.0
H304 H 0.29447 0.9327 0.12552 0.0
H305 H 0.29166 0.94265 0.06365 0.0
C306 C 0.32686 0.33699 0.36284 0.0
C307 C 0.31679 0.34965 0.35223 0.0
C308 C 0.32566 0.33033 0.39877 0.0
C309 C 0.31745 0.34729 0.48956 0.0
H310 H 0.317 0.29254 0.51883 0.0
C311 C 0.32366 0.32762 0.63884 0.0
C312 C 0.34084 0.32246 0.6454 0.0
C313 C 0.31644 0.32764 0.60359 0.0
C314 C 0.31705 0.30786 0.511 0.0
H315 H 0.29635 0.364 0.37002 0.0
H316 H 0.29362 0.35179 0.43216 0.0
H317 H 0.31201 0.29835 0.45539 0.0
H318 H 0.36324 0.31234 0.62064 0.0
H319 H 0.35062 0.31229 0.55947 0.0
H320 H 0.32281 0.35692 0.54505 0.0
C321 C 0.3031 0.34763 0.41328 0.0
C322 C 0.31432 0.31125 0.47468 0.0
C323 C 0.30456 0.35452 0.37761 0.0
C324 C 0.35005 0.31651 0.61638 0.0
C325 C 0.34268 0.31628 0.58135 0.0
C326 C 0.31999 0.34381 0.52584 0.0
C327 C 0.31415 0.33599 0.42457 0.0
C328 C 0.31493 0.33122 0.46342 0.0
C329 C 0.32607 0.32219 0.5745 0.0
C330 C 0.32029 0.32429 0.53683 0.0
H331 H 0.33641 0.33304 0.34375 0.0
H332 H 0.33456 0.32157 0.40654 0.0
H333 H 0.31842 0.36306 0.4819 0.0
H334 H 0.31626 0.33221 0.66077 0.0
H335 H 0.30353 0.33217 0.59902 0.0
C336 C 0.98607 0.65232 0.86181 0.0
C337 C 0.96507 0.63398 0.85159 0.0
C338 C 0.99061 0.65856 0.8981 0.0
C339 C 0.97141 0.63503 0.98929 0.0
H340 H 0.00588 0.69774 0.01959 0.0
C341 C 0.98704 0.65815 0.13891 0.0
C342 C 0.00989 0.67261 0.14755 0.0
C343 C 0.97983 0.65573 0.10314 0.0
C344 C -0.00377 0.68016 0.01147 0.0
H345 H 0.93213 0.60822 0.87105 0.0
H346 H 0.93985 0.61929 0.93378 0.0
H347 H -0.00272 0.68876 0.95578 0.0
H348 H 0.04278 0.69707 0.12618 0.0
H349 H 0.03021 0.69288 0.06394 0.0
H350 H 0.97052 0.62637 0.04474 0.0
C351 C 0.95305 0.62857 0.91415 0.0
C352 C 0.99142 0.67501 0.97495 0.0
C353 C 0.9486 0.62228 0.87811 0.0
C354 C 0.02506 0.68571 0.12025 0.0
C355 C 0.01785 0.68341 0.0846 0.0
C356 C 0.97611 0.64017 0.0257 0.0
C357 C 0.97417 0.64661 0.92469 0.0
C358 C 0.97906 0.65236 0.96344 0.0
C359 C -0.00467 0.66786 0.07552 0.0
C360 C 0.9887 0.66276 0.03718 0.0
H361 H -0.00095 0.66165 0.84189 0.0
H362 H 0.00714 0.67241 0.90538 0.0
H363 H 0.96224 0.61739 0.98134 0.0
H364 H 0.97498 0.64789 0.15945 0.0
H365 H 0.96229 0.64384 0.09693 0.0
C366 C 0.32693 0.98627 0.35377 0.0
C367 C 0.33007 0.96788 0.34589 0.0
C368 C 0.32493 0.99154 0.38952 0.0
C369 C 0.31054 0.96677 0.48042 0.0
H370 H 0.34867 0.02837 0.51366 0.0
C371 C 0.33186 0.98995 0.63022 0.0
C372 C 0.33631 0.01135 0.64189 0.0
C373 C 0.32709 0.98386 0.59397 0.0
C374 C 0.33751 0.01116 0.50481 0.0
H375 H 0.33344 0.94052 0.36908 0.0
H376 H 0.3299 0.94968 0.43116 0.0
H377 H 0.34806 0.0197 0.45 0.0
H378 H 0.33757 0.04249 0.62574 0.0
H379 H 0.32845 0.0316 0.56294 0.0
H380 H 0.3001 0.95813 0.53522 0.0
C381 C 0.32885 0.95994 0.40985 0.0
C382 C 0.33724 0.00622 0.46828 0.0
C383 C 0.33109 0.95485 0.37429 0.0
C384 C 0.33447 0.02596 0.61732 0.0
C385 C 0.32941 0.01979 0.58128 0.0
C386 C 0.31065 0.97173 0.51694 0.0
C387 C 0.32573 0.97831 0.41786 0.0
C388 C 0.32411 0.98392 0.45585 0.0
C389 C 0.32643 -0.00101 0.56889 0.0
C390 C 0.32446 0.99392 0.52969 0.0
H391 H 0.32601 -0.00346 0.33236 0.0
H392 H 0.3225 0.00578 0.39502 0.0
H393 H 0.30003 0.94946 0.47142 0.0
H394 H 0.33327 0.97842 0.64864 0.0
H395 H 0.32507 0.96778 0.58537 0.0
C396 C 0.349 0.31084 0.87767 0.0
C397 C 0.34399 0.32265 0.85178 0.0
C398 C 0.34342 0.31102 0.91373 0.0
C399 C 0.31033 0.32646 0.97585 0.0
H400 H 0.35618 0.3333 0.04441 0.0
C401 C 0.3193 0.36375 0.11778 0.0
C402 C 0.32384 0.35326 0.14652 0.0
C403 C 0.3188 0.35654 0.08251 0.0
C404 C 0.34305 0.33103 0.02567 0.0
H405 H 0.32864 0.34336 0.84291 0.0
H406 H 0.31955 0.34444 0.90628 0.0
H407 H 0.36077 0.32747 0.98109 0.0
H408 H 0.33105 0.32676 0.16109 0.0
H409 H 0.33064 0.31437 0.0989 0.0
H410 H 0.29323 0.33113 0.02062 0.0
C411 C 0.32734 0.33457 0.89867 0.0
C412 C 0.34562 0.32763 0.98932 0.0
C413 C 0.33263 0.33408 0.86238 0.0
C414 C 0.32755 0.33515 0.13939 0.0
C415 C 0.32736 0.32811 0.10391 0.0
C416 C 0.30791 0.33011 0.0122 0.0
C417 C 0.33304 0.32336 0.92488 0.0
C418 C 0.32942 0.32554 0.96385 0.0
C419 C 0.32308 0.33884 0.07516 0.0
C420 C 0.32438 0.33269 0.03736 0.0
H421 H 0.35749 0.30161 0.87013 0.0
H422 H 0.34755 0.30171 0.93293 0.0
H423 H 0.29733 0.32451 0.95714 0.0
H424 H 0.31627 0.37769 0.12249 0.0
H425 H 0.31573 0.36529 0.06087 0.0
C426 C -0.00531 0.33335 0.63029 0.0
C427 C 0.97247 0.31876 0.64193 0.0
C428 C 0.00032 0.33409 0.5939 0.0
C429 C 0.97262 0.32183 0.50495 0.0
H430 H 0.03243 0.33769 0.47064 0.0
C431 C -0.00247 0.33643 0.35405 0.0
C432 C 0.01763 0.35681 0.3472 0.0
C433 C 0.99164 0.32843 0.38934 0.0
C434 C 0.01564 0.33321 0.47989 0.0
H435 H 0.93914 0.29229 0.62549 0.0
H436 H 0.9491 0.29299 0.56241 0.0
H437 H 0.02312 0.32887 0.53422 0.0
H438 H 0.04751 0.38459 0.37165 0.0
H439 H 0.0373 0.37059 0.43292 0.0
H440 H 0.96527 0.32642 0.45065 0.0
C441 C 0.96203 0.30444 0.58092 0.0
C442 C 0.01033 0.32825 0.51629 0.0
C443 C 0.95636 0.30392 0.61711 0.0
C444 C 0.03185 0.36886 0.3761 0.0
C445 C 0.02613 0.36075 0.41116 0.0
C446 C 0.97788 0.32659 0.46853 0.0
C447 C 0.98387 0.32005 0.56863 0.0
C448 C 0.9889 0.32295 0.52941 0.0
C449 C 0.00595 0.34052 0.41819 0.0
C450 C -0.00042 0.3328 0.45581 0.0
H451 H 0.0074 0.34501 0.6489 0.0
H452 H 0.01725 0.34648 0.5854 0.0
H453 H 0.95607 0.31822 0.51411 0.0
H454 H 0.9863 0.32679 0.33223 0.0
H455 H 0.97599 0.31274 0.39408 0.0
C456 C 0.66051 0.00277 0.85703 0.0
C457 C 0.65806 0.02162 0.84964 0.0
C458 C 0.66279 -0.00255 0.89258 0.0
C459 C 0.67924 0.02254 0.98308 0.0
H460 H 0.63988 0.96147 0.01739 0.0
C461 C 0.65838 0.00062 0.13317 0.0
C462 C 0.65309 0.979 0.14498 0.0
C463 C 0.66331 0.00649 0.09689 0.0
C464 C 0.6514 0.97851 0.00821 0.0
H465 H 0.65613 0.04969 0.87346 0.0
H466 H 0.66012 0.04041 0.93517 0.0
H467 H 0.64001 0.9699 0.95379 0.0
H468 H 0.65063 0.94725 0.12914 0.0
H469 H 0.66004 0.95773 0.06626 0.0
H470 H 0.69048 0.03126 0.03752 0.0
C471 C 0.66045 0.02985 0.91364 0.0
C472 C 0.65138 0.98332 0.97172 0.0
C473 C 0.65794 0.03501 0.8783 0.0
C474 C 0.65438 0.96395 0.12058 0.0
C475 C 0.6596 0.9699 0.08451 0.0
C476 C 0.67941 0.0177 0.01956 0.0
C477 C 0.66295 0.01107 0.92116 0.0
C478 C 0.66493 0.00547 0.95896 0.0
C479 C 0.66331 0.99091 0.07194 0.0
C480 C 0.66514 0.99572 0.03269 0.0
H481 H 0.66074 0.99222 0.83541 0.0
H482 H 0.66471 0.98287 0.89771 0.0
H483 H 0.69009 0.03972 0.97379 0.0
H484 H 0.65741 0.01249 0.15147 0.0
H485 H 0.66591 0.02275 0.08814 0.0
C486 C 0.65602 0.66112 0.36469 0.0
C487 C 0.64353 0.67132 0.35383 0.0
C488 C 0.66193 0.6617 0.40089 0.0
C489 C 0.6429 0.66812 0.49104 0.0
H490 H 0.69703 0.66818 0.5227 0.0
C491 C 0.65921 0.65894 0.64086 0.0
C492 C 0.66428 0.64165 0.64709 0.0
C493 C 0.65994 0.66686 0.60586 0.0
C494 C 0.68187 0.66823 0.5142 0.0
H495 H 0.62876 0.69141 0.3715 0.0
H496 H 0.63967 0.69307 0.43415 0.0
H497 H 0.69266 0.67442 0.45919 0.0
H498 H 0.67499 0.61978 0.62206 0.0
H499 H 0.67635 0.63362 0.56133 0.0
H500 H 0.63199 0.66161 0.54592 0.0
C501 C 0.64426 0.68395 0.41523 0.0
C502 C 0.67931 0.67168 0.47784 0.0
C503 C 0.63811 0.6831 0.37927 0.0
C504 C 0.67087 0.63303 0.61804 0.0
C505 C 0.67185 0.6411 0.58328 0.0
C506 C 0.64556 0.66486 0.52737 0.0
C507 C 0.65568 0.67273 0.42671 0.0
C508 C 0.65959 0.67123 0.46572 0.0
C509 C 0.66608 0.65784 0.57672 0.0
C510 C 0.66484 0.66441 0.53919 0.0
H511 H 0.66038 0.65191 0.34556 0.0
H512 H 0.67055 0.6527 0.40882 0.0
H513 H 0.6273 0.66725 0.48267 0.0
H514 H 0.65415 0.6659 0.66282 0.0
H515 H 0.6555 0.67985 0.6015 0.0
C516 C 0.04867 0.60241 0.22388 0.0
C517 C 0.02931 0.60392 0.23147 0.0
C518 C 0.04723 0.58134 0.22094 0.0
C519 C 0.01243 0.52212 0.2494 0.0
H520 H 0.04846 0.51211 0.1788 0.0
C521 C 0.01099 0.43684 0.23598 0.0
C522 C 0.03233 0.43856 0.23316 0.0
C523 C 0.0089 0.45615 0.23307 0.0
C524 C 0.03838 0.5147 0.19876 0.0
H525 H 0.99317 0.58462 0.24132 0.0
H526 H 0.9906 0.54767 0.23589 0.0
H527 H 0.04763 0.54743 0.17797 0.0
H528 H 0.06815 0.46168 0.22481 0.0
H529 H 0.06452 0.49533 0.21983 0.0
H530 H 0.00342 0.48947 0.27044 0.0
C531 C 0.00694 0.56282 0.23261 0.0
C532 C 0.03791 0.53492 0.1983 0.0
C533 C 0.00839 0.58394 0.23554 0.0
C534 C 0.05148 0.45984 0.22705 0.0
C535 C 0.04938 0.47909 0.22395 0.0
C536 C 0.01285 0.50186 0.24979 0.0
C537 C 0.02638 0.5613 0.22549 0.0
C538 C 0.02525 0.53902 0.22401 0.0
C539 C 0.02809 0.47746 0.22704 0.0
C540 C 0.02614 0.49812 0.22485 0.0
H541 H 0.06505 0.61752 0.2207 0.0
H542 H 0.06259 0.58078 0.216 0.0
H543 H 0.00272 0.52488 0.26982 0.0
H544 H -0.00407 0.42062 0.24065 0.0
H545 H 0.99226 0.45438 0.2353 0.0
C546 C 0.44641 0.05675 0.72597 0.0
C547 C 0.42615 0.03629 0.73148 0.0
C548 C 0.46702 0.0571 0.72435 0.0
C549 C 0.49237 0.02102 0.70949 0.0
H550 H 0.54303 0.06852 0.76189 0.0
C551 C 0.57551 0.02016 0.73523 0.0
C552 C 0.59582 0.04093 0.7329 0.0
C553 C 0.5547 0.0194 0.73319 0.0
C554 C 0.52915 0.05532 0.74672 0.0
H555 H 0.41144 0.00011 0.73904 0.0
H556 H 0.44753 0.00074 0.73646 0.0
H557 H 0.50687 0.06751 0.76161 0.0
H558 H 0.61035 0.07713 0.72579 0.0
H559 H 0.57405 0.07579 0.72179 0.0
H560 H 0.51471 0.00879 0.69473 0.0
C561 C 0.44745 0.01647 0.73307 0.0
C562 C 0.50842 0.05474 0.74658 0.0
C563 C 0.42682 0.01613 0.73474 0.0
C564 C 0.59496 0.06088 0.72787 0.0
C565 C 0.57417 0.06012 0.72579 0.0
C566 C 0.51315 0.02161 0.70959 0.0
C567 C 0.46779 0.037 0.72818 0.0
C568 C 0.48981 0.0376 0.72796 0.0
C569 C 0.55381 0.0394 0.72877 0.0
C570 C 0.53176 0.03879 0.72821 0.0
H571 H 0.44639 0.07255 0.7232 0.0
H572 H 0.48236 0.07313 0.72002 0.0
H573 H 0.4784 0.00775 0.69457 0.0
H574 H 0.57568 0.00451 0.73917 0.0
H575 H 0.53932 0.0032 0.73596 0.0
C576 C 0.55951 0.58054 0.25758 0.0
C577 C 0.55854 0.60064 0.25761 0.0
C578 C 0.53965 0.55954 0.25992 0.0
C579 C 0.4799 0.53313 0.28813 0.0
H580 H 0.47087 0.48457 0.22358 0.0
C581 C 0.39211 0.45662 0.26115 0.0
C582 C 0.39008 0.43516 0.25841 0.0
C583 C 0.41338 0.47601 0.26351 0.0
C584 C 0.47328 0.49785 0.24216 0.0
H585 H 0.53614 0.61459 0.26011 0.0
H586 H 0.50155 0.57802 0.26395 0.0
H587 H 0.50697 0.52006 0.22329 0.0
H588 H 0.40866 0.41706 0.25616 0.0
H589 H 0.44598 0.45107 0.26043 0.0
H590 H 0.44616 0.51111 0.30667 0.0
C591 C 0.51761 0.57844 0.26257 0.0
C592 C 0.49393 0.51816 0.24198 0.0
C593 C 0.53742 0.59938 0.26013 0.0
C594 C 0.40974 0.43342 0.2582 0.0
C595 C 0.43108 0.45286 0.26048 0.0
C596 C 0.4593 0.51286 0.28832 0.0
C597 C 0.5185 0.5583 0.26251 0.0
C598 C 0.49731 0.53613 0.26455 0.0
C599 C 0.4331 0.47436 0.26317 0.0
C600 C 0.45562 0.49514 0.26492 0.0
H601 H 0.57559 0.58103 0.25571 0.0
H602 H 0.54086 0.5443 0.26007 0.0
H603 H 0.48217 0.54652 0.30634 0.0
H604 H 0.37725 0.45849 0.26128 0.0
H605 H 0.41438 0.49235 0.26497 0.0
C606 C 0.93413 0.53425 0.73516 0.0
C607 C 0.95379 0.55541 0.73929 0.0
C608 C 0.9354 0.5145 0.7343 0.0
C609 C 0.97408 0.49243 0.71848 0.0
H610 H 0.9284 0.4407 0.77147 0.0
C611 C 0.97601 0.40893 0.73801 0.0
C612 C 0.95518 0.38876 0.73469 0.0
C613 C 0.9769 0.42986 0.73786 0.0
C614 C 0.94115 0.45492 0.75625 0.0
H615 H 0.99026 0.57259 0.74522 0.0
H616 H 0.99248 0.53786 0.744 0.0
H617 H 0.92822 0.47626 0.77295 0.0
H618 H 0.91904 0.37462 0.72764 0.0
H619 H 0.9206 0.41108 0.7271 0.0
H620 H 0.98696 0.4709 0.70178 0.0
C621 C 0.97611 0.53664 0.74116 0.0
C622 C 0.94105 0.47529 0.7571 0.0
C623 C 0.97484 0.55648 0.74203 0.0
C624 C 0.93533 0.38989 0.73046 0.0
C625 C 0.93621 0.41076 0.73036 0.0
C626 C 0.97419 0.47198 0.71765 0.0
C627 C 0.95636 0.51543 0.73763 0.0
C628 C 0.95733 0.49419 0.73789 0.0
C629 C 0.95696 0.43095 0.73451 0.0
C630 C 0.95754 0.45295 0.73619 0.0
H631 H 0.91768 0.5329 0.73273 0.0
H632 H 0.91993 0.49845 0.73087 0.0
H633 H 0.98675 0.50666 0.70319 0.0
H634 H 0.99158 0.40854 0.74131 0.0
H635 H 0.99311 0.44514 0.74132 0.0
C636 C 0.41382 0.97418 0.22853 0.0
C637 C 0.39415 0.95284 0.22655 0.0
C638 C 0.43516 0.97614 0.22581 0.0
C639 C 0.46428 0.9457 0.19525 0.0
H640 H 0.50985 0.98361 0.26501 0.0
C641 C 0.54288 0.9379 0.22424 0.0
C642 C 0.56353 0.95784 0.23038 0.0
C643 C 0.5229 0.93863 0.22071 0.0
C644 C 0.49744 0.97323 0.24497 0.0
H645 H 0.3813 0.91687 0.21956 0.0
H646 H 0.4185 0.92026 0.21507 0.0
H647 H 0.47363 0.98257 0.26399 0.0
H648 H 0.5796 0.99422 0.2371 0.0
H649 H 0.54465 0.99553 0.23069 0.0
H650 H 0.48798 0.93611 0.17658 0.0
C651 C 0.41748 0.93551 0.21834 0.0
C652 C 0.47669 0.97263 0.24439 0.0
C653 C 0.39618 0.93355 0.22115 0.0
C654 C 0.56389 0.97857 0.2325 0.0
C655 C 0.54388 0.97931 0.229 0.0
C656 C 0.48503 0.94631 0.19581 0.0
C657 C 0.43721 0.9568 0.22093 0.0
C658 C 0.45978 0.95864 0.21983 0.0
C659 C 0.52316 0.95932 0.22324 0.0
C660 C 0.50173 0.95985 0.22099 0.0
H661 H 0.41276 0.98935 0.23258 0.0
H662 H 0.45006 0.9928 0.22752 0.0
H663 H 0.45171 0.93504 0.17562 0.0
H664 H 0.5421 0.92167 0.22254 0.0
H665 H 0.50717 0.9229 0.21681 0.0
C666 C 0.59373 0.53379 0.74358 0.0
C667 C 0.59545 0.55513 0.74619 0.0
C668 C 0.57258 0.51419 0.74228 0.0
C669 C 0.51269 0.49158 0.76532 0.0
H670 H 0.50373 0.4434 0.69995 0.0
C671 C 0.42627 0.40934 0.74754 0.0
C672 C 0.42701 0.38913 0.74629 0.0
C673 C 0.44627 0.43027 0.74635 0.0
C674 C 0.50603 0.45664 0.71853 0.0
H675 H 0.57645 0.57276 0.74959 0.0
H676 H 0.53934 0.53837 0.74714 0.0
H677 H 0.53967 0.47886 0.69983 0.0
H678 H 0.44917 0.37493 0.74304 0.0
H679 H 0.48401 0.41138 0.74123 0.0
H680 H 0.47905 0.46919 0.78422 0.0
C681 C 0.55439 0.53684 0.74638 0.0
C682 C 0.5266 0.47694 0.71847 0.0
C683 C 0.5756 0.55651 0.74762 0.0
C684 C 0.44807 0.39022 0.74394 0.0
C685 C 0.46801 0.4111 0.74266 0.0
C686 C 0.49206 0.47124 0.76537 0.0
C687 C 0.55267 0.51548 0.74356 0.0
C688 C 0.53028 0.49451 0.7422 0.0
C689 C 0.46734 0.43135 0.74374 0.0
C690 C 0.48865 0.45345 0.74231 0.0
H691 H 0.60874 0.53221 0.74255 0.0
H692 H 0.57182 0.49796 0.7407 0.0
H693 H 0.5151 0.50474 0.78415 0.0
H694 H 0.41024 0.40898 0.74931 0.0
H695 H 0.44522 0.4456 0.74696 0.0
C696 C 0.09996 0.36089 0.25181 0.0
C697 C 0.10005 0.38151 0.25104 0.0
C698 C 0.12028 0.36066 0.25159 0.0
C699 C 0.18107 0.39581 0.27039 0.0
H700 H 0.18627 0.35332 0.20715 0.0
C701 C 0.26604 0.39957 0.24441 0.0
C702 C 0.26577 0.37886 0.24447 0.0
C703 C 0.24581 0.39999 0.24475 0.0
C704 C 0.18499 0.36511 0.22521 0.0
H705 H 0.12133 0.41805 0.24998 0.0
H706 H 0.15689 0.41764 0.24942 0.0
H707 H 0.15083 0.35385 0.2096 0.0
H708 H 0.24425 0.34234 0.2446 0.0
H709 H 0.20887 0.34306 0.2455 0.0
H710 H 0.21522 0.40704 0.28606 0.0
C711 C 0.14112 0.40168 0.25048 0.0
C712 C 0.16472 0.36541 0.22663 0.0
C713 C 0.12079 0.40191 0.25064 0.0
C714 C 0.24494 0.35856 0.24445 0.0
C715 C 0.2247 0.35897 0.2448 0.0
C716 C 0.20135 0.3955 0.269 0.0
C717 C 0.14105 0.38104 0.25064 0.0
C718 C 0.16256 0.38074 0.24926 0.0
C719 C 0.22494 0.37969 0.24516 0.0
C720 C 0.2035 0.38014 0.24641 0.0
H721 H 0.0842 0.3449 0.25224 0.0
H722 H 0.11973 0.34451 0.25225 0.0
H723 H 0.17978 0.40761 0.28842 0.0
H724 H 0.28188 0.41549 0.24432 0.0
H725 H 0.24651 0.41621 0.2445 0.0
C726 C 0.86969 0.26583 0.75423 0.0
C727 C 0.89021 0.26575 0.75533 0.0
C728 C 0.84916 0.24565 0.75755 0.0
C729 C 0.82382 0.18442 0.7449 0.0
H730 H 0.77427 0.18164 0.80034 0.0
C731 C 0.73956 0.10135 0.76342 0.0
C732 C 0.71987 0.10268 0.75845 0.0
C733 C 0.76059 0.12102 0.76614 0.0
C734 C 0.78792 0.18223 0.78459 0.0
H735 H 0.90547 0.24466 0.76133 0.0
H736 H 0.86953 0.20935 0.76739 0.0
H737 H 0.81084 0.21656 0.79961 0.0
H738 H 0.70656 0.1255 0.75307 0.0
H739 H 0.74338 0.15993 0.75745 0.0
H740 H 0.80087 0.15022 0.72952 0.0
C741 C 0.86933 0.22499 0.76354 0.0
C742 C 0.80883 0.20219 0.78416 0.0
C743 C 0.88987 0.24518 0.76021 0.0
C744 C 0.7215 0.12401 0.75689 0.0
C745 C 0.74254 0.14369 0.75963 0.0
C746 C 0.80293 0.16448 0.74535 0.0
C747 C 0.84876 0.22501 0.76205 0.0
C748 C 0.82693 0.20354 0.76406 0.0
C749 C 0.76231 0.14239 0.76396 0.0
C750 C 0.78472 0.16324 0.76495 0.0
H751 H 0.86946 0.28146 0.75046 0.0
H752 H 0.83357 0.24617 0.75582 0.0
H753 H 0.83735 0.18506 0.72873 0.0
H754 H 0.73877 0.08511 0.76491 0.0
H755 H 0.77552 0.11952 0.76994 0.0
C756 C 0.59979 0.72658 0.24287 0.0
C757 C 0.61989 0.72571 0.24464 0.0
C758 C 0.60051 0.74737 0.24276 0.0
C759 C 0.63635 0.80672 0.26934 0.0
H760 H 0.59737 0.81679 0.20541 0.0
C761 C 0.6429 0.8939 0.25271 0.0
C762 C 0.62246 0.89409 0.25047 0.0
C763 C 0.64288 0.87344 0.25223 0.0
C764 C 0.60817 0.81413 0.22369 0.0
H765 H 0.6565 0.74578 0.24727 0.0
H766 H 0.65775 0.78219 0.24686 0.0
H767 H 0.59696 0.78087 0.20319 0.0
H768 H 0.58597 0.87315 0.24667 0.0
H769 H 0.58591 0.83739 0.24627 0.0
H770 H 0.64747 0.83995 0.28997 0.0
C771 C 0.64145 0.76679 0.24594 0.0
C772 C 0.60796 0.7936 0.22238 0.0
C773 C 0.64074 0.74598 0.24596 0.0
C774 C 0.60199 0.87349 0.24828 0.0
C775 C 0.60196 0.85304 0.24782 0.0
C776 C 0.63654 0.82726 0.27069 0.0
C777 C 0.62133 0.76767 0.24448 0.0
C778 C 0.62199 0.78966 0.24527 0.0
C779 C 0.62242 0.85282 0.24951 0.0
C780 C 0.62239 0.83113 0.24797 0.0
H781 H 0.58348 0.7112 0.2419 0.0
H782 H 0.58472 0.74754 0.24204 0.0
H783 H 0.64711 0.80401 0.28765 0.0
H784 H 0.65893 0.90956 0.25434 0.0
H785 H 0.65892 0.87379 0.25322 0.0
C786 C 0.86692 0.59428 0.7435 0.0
C787 C 0.88772 0.61459 0.74497 0.0
C788 C 0.84667 0.59463 0.74366 0.0
C789 C 0.82279 0.63126 0.72453 0.0
H790 H 0.77299 0.58802 0.78365 0.0
C791 C 0.74115 0.63533 0.74631 0.0
C792 C 0.72069 0.61465 0.7452 0.0
C793 C 0.76177 0.63566 0.74622 0.0
C794 C 0.78667 0.60004 0.76673 0.0
H795 H 0.90375 0.65117 0.74772 0.0
H796 H 0.86828 0.65177 0.74826 0.0
H797 H 0.80869 0.588 0.78374 0.0
H798 H 0.70564 0.57815 0.74274 0.0
H799 H 0.74164 0.57874 0.74223 0.0
H800 H 0.80071 0.64325 0.70746 0.0
C801 C 0.86766 0.63561 0.74662 0.0
C802 C 0.80709 0.60003 0.76679 0.0
C803 C 0.88793 0.63526 0.7465 0.0
C804 C 0.72117 0.59433 0.74376 0.0
C805 C 0.74176 0.59467 0.74368 0.0
C806 C 0.80234 0.63126 0.72446 0.0
C807 C 0.84684 0.61529 0.74527 0.0
C808 C 0.82532 0.61558 0.74559 0.0
C809 C 0.76226 0.61532 0.74505 0.0
C810 C 0.78406 0.61559 0.74545 0.0
H811 H 0.86627 0.5781 0.74219 0.0
H812 H 0.83087 0.57872 0.74212 0.0
H813 H 0.83648 0.64325 0.70759 0.0
H814 H 0.74125 0.65124 0.7475 0.0
H815 H 0.7773 0.65182 0.74767 0.0
C816 C 0.25044 0.88528 0.26095 0.0
C817 C 0.27077 0.88531 0.255 0.0
C818 C 0.23012 0.8649 0.2643 0.0
C819 C 0.20332 0.80513 0.23894 0.0
H820 H 0.15772 0.79823 0.30826 0.0
C821 C 0.11865 0.72178 0.25428 0.0
C822 C 0.09927 0.72393 0.25653 0.0
C823 C 0.14015 0.74084 0.257 0.0
C824 C 0.17026 0.79999 0.28864 0.0
H825 H 0.28597 0.86418 0.24855 0.0
H826 H 0.25037 0.82847 0.2546 0.0
H827 H 0.19459 0.83279 0.30821 0.0
H828 H 0.08705 0.74754 0.26377 0.0
H829 H 0.12464 0.7809 0.26817 0.0
H830 H 0.17889 0.77249 0.219 0.0
C831 C 0.25015 0.84421 0.25629 0.0
C832 C 0.19133 0.81973 0.28862 0.0
C833 C 0.2705 0.86462 0.25298 0.0
C834 C 0.10173 0.74541 0.26196 0.0
C835 C 0.12322 0.76447 0.26473 0.0
C836 C 0.18224 0.78538 0.23897 0.0
C837 C 0.22974 0.84417 0.26176 0.0
C838 C 0.20797 0.82261 0.26348 0.0
C839 C 0.14265 0.76238 0.26208 0.0
C840 C 0.16542 0.78274 0.26353 0.0
H841 H 0.25016 0.901 0.2626 0.0
H842 H 0.21462 0.86539 0.26801 0.0
H843 H 0.2157 0.807 0.21893 0.0
H844 H 0.11723 0.70538 0.25025 0.0
H845 H 0.15483 0.73871 0.25525 0.0
C846 C 0.38487 0.26302 0.74361 0.0
C847 C 0.36479 0.26396 0.74495 0.0
C848 C 0.38408 0.24221 0.74335 0.0
C849 C 0.34796 0.18251 0.76786 0.0
H850 H 0.38772 0.17349 0.70382 0.0
C851 C 0.34294 0.09595 0.74955 0.0
C852 C 0.36364 0.09624 0.74765 0.0
C853 C 0.3425 0.1162 0.74929 0.0
C854 C 0.37668 0.17584 0.72211 0.0
H855 H 0.32817 0.24398 0.74697 0.0
H856 H 0.3268 0.20749 0.74632 0.0
H857 H 0.38789 0.20929 0.70266 0.0
H858 H 0.40009 0.1178 0.74466 0.0
H859 H 0.39934 0.15313 0.74464 0.0
H860 H 0.33685 0.14907 0.78745 0.0
C861 C 0.34312 0.22287 0.7458 0.0
C862 C 0.37677 0.19631 0.72142 0.0
C863 C 0.3439 0.24372 0.74598 0.0
C864 C 0.38388 0.11708 0.74598 0.0
C865 C 0.38344 0.1373 0.74574 0.0
C866 C 0.34789 0.16201 0.76858 0.0
C867 C 0.36322 0.22193 0.74446 0.0
C868 C 0.36252 0.19991 0.74444 0.0
C869 C 0.36275 0.13706 0.74711 0.0
C870 C 0.36237 0.15855 0.74588 0.0
H871 H 0.40121 0.27838 0.7429 0.0
H872 H 0.39985 0.242 0.7428 0.0
H873 H 0.33699 0.18493 0.7862 0.0
H874 H 0.32707 0.08009 0.75079 0.0
H875 H 0.32629 0.11549 0.75006 0.0
loop_
_geom_bond_atom_site_label_1
_geom_bond_atom_site_label_2
_geom_bond_distance
_geom_bond_site_symmetry_2
_ccdc_geom_bond_type
In0 O1 2.294 . S
In0 O2 2.326 . S
In0 O6 2.266 . S
In0 O7 2.326 . S
In0 O8 2.266 . S
In0 O9 2.326 . S
In0 O11 2.294 . S
In0 O12 2.326 . S
O1 In0 2.294 . S
O1 C10 1.240 . S
O2 In0 2.326 . S
O2 C10 1.252 . S
C3 O6 1.252 . S
C3 O7 1.260 . S
C4 O11 1.240 . S
C4 O12 1.252 . S
C5 O8 1.252 . S
C5 O9 1.260 . S
O6 In0 2.266 . S
O6 C3 1.252 . S
O7 In0 2.326 . S
O7 C3 1.260 . S
O8 In0 2.266 . S
O8 C5 1.252 . S
O9 In0 2.326 . S
O9 C5 1.260 . S
C10 O1 1.240 . S
C10 O2 1.252 . S
O11 In0 2.294 . S
O11 C4 1.240 . S
O12 In0 2.326 . S
O12 C4 1.252 . S
In13 O14 2.294 . S
In13 O15 2.326 . S
In13 O19 2.266 . S
In13 O20 2.326 . S
In13 O21 2.266 . S
In13 O22 2.326 . S
In13 O24 2.294 . S
In13 O25 2.326 . S
O14 In13 2.294 . S
O14 C23 1.240 . S
O15 In13 2.326 . S
O15 C23 1.252 . S
C16 O19 1.252 . S
C16 O20 1.260 . S
C17 O24 1.240 . S
C17 O25 1.252 . S
C18 O21 1.252 . S
C18 O22 1.260 . S
O19 In13 2.266 . S
O19 C16 1.252 . S
O20 In13 2.326 . S
O20 C16 1.260 . S
O21 In13 2.266 . S
O21 C18 1.252 . S
O22 In13 2.326 . S
O22 C18 1.260 . S
C23 O14 1.240 . S
C23 O15 1.252 . S
O24 In13 2.294 . S
O24 C17 1.240 . S
O25 In13 2.326 . S
O25 C17 1.252 . S
In26 O27 2.294 . S
In26 O28 2.326 . S
In26 O32 2.266 . S
In26 O33 2.326 . S
In26 O34 2.266 . S
In26 O35 2.326 . S
In26 O37 2.294 . S
In26 O38 2.326 . S
O27 In26 2.294 . S
O27 C36 1.240 . S
O28 In26 2.326 . S
O28 C36 1.252 . S
C29 O32 1.252 . S
C29 O33 1.260 . S
C30 O37 1.240 . S
C30 O38 1.252 . S
C31 O34 1.252 . S
C31 O35 1.260 . S
O32 In26 2.266 . S
O32 C29 1.252 . S
O33 In26 2.326 . S
O33 C29 1.260 . S
O34 In26 2.266 . S
O34 C31 1.252 . S
O35 In26 2.326 . S
O35 C31 1.260 . S
C36 O27 1.240 . S
C36 O28 1.252 . S
O37 In26 2.294 . S
O37 C30 1.240 . S
O38 In26 2.326 . S
O38 C30 1.252 . S
In39 O40 2.294 . S
In39 O41 2.326 . S
In39 O45 2.266 . S
In39 O46 2.326 . S
In39 O47 2.266 . S
In39 O48 2.326 . S
In39 O50 2.294 . S
In39 O51 2.326 . S
O40 In39 2.294 . S
O40 C49 1.240 . S
O41 In39 2.326 . S
O41 C49 1.252 . S
C42 O45 1.252 . S
C42 O46 1.260 . S
C43 O50 1.240 . S
C43 O51 1.252 . S
C44 O47 1.252 . S
C44 O48 1.260 . S
O45 In39 2.266 . S
O45 C42 1.252 . S
O46 In39 2.326 . S
O46 C42 1.260 . S
O47 In39 2.266 . S
O47 C44 1.252 . S
O48 In39 2.326 . S
O48 C44 1.260 . S
C49 O40 1.240 . S
C49 O41 1.252 . S
O50 In39 2.294 . S
O50 C43 1.240 . S
O51 In39 2.326 . S
O51 C43 1.252 . S
In52 O53 2.294 . S
In52 O54 2.326 . S
In52 O58 2.266 . S
In52 O59 2.326 . S
In52 O60 2.266 . S
In52 O61 2.326 . S
In52 O63 2.294 . S
In52 O64 2.326 . S
O53 In52 2.294 . S
O53 C62 1.240 . S
O54 In52 2.326 . S
O54 C62 1.252 . S
C55 O58 1.252 . S
C55 O59 1.260 . S
C56 O63 1.240 . S
C56 O64 1.252 . S
C57 O60 1.252 . S
C57 O61 1.260 . S
O58 In52 2.266 . S
O58 C55 1.252 . S
O59 In52 2.326 . S
O59 C55 1.260 . S
O60 In52 2.266 . S
O60 C57 1.252 . S
O61 In52 2.326 . S
O61 C57 1.260 . S
C62 O53 1.240 . S
C62 O54 1.252 . S
O63 In52 2.294 . S
O63 C56 1.240 . S
O64 In52 2.326 . S
O64 C56 1.252 . S
In65 O66 2.294 . S
In65 O67 2.326 . S
In65 O71 2.266 . S
In65 O72 2.326 . S
In65 O73 2.266 . S
In65 O74 2.326 . S
In65 O76 2.294 . S
In65 O77 2.326 . S
O66 In65 2.294 . S
O66 C75 1.240 . S
O67 In65 2.326 . S
O67 C75 1.252 . S
C68 O71 1.252 . S
C68 O72 1.260 . S
C69 O76 1.240 . S
C69 O77 1.252 . S
C70 O73 1.252 . S
C70 O74 1.260 . S
O71 In65 2.266 . S
O71 C68 1.252 . S
O72 In65 2.326 . S
O72 C68 1.260 . S
O73 In65 2.266 . S
O73 C70 1.252 . S
O74 In65 2.326 . S
O74 C70 1.260 . S
C75 O66 1.240 . S
C75 O67 1.252 . S
O76 In65 2.294 . S
O76 C69 1.240 . S
O77 In65 2.326 . S
O77 C69 1.252 . S
In78 O79 2.294 . S
In78 O80 2.326 . S
In78 O84 2.266 . S
In78 O85 2.326 . S
In78 O86 2.266 . S
In78 O87 2.326 . S
In78 O89 2.294 . S
In78 O90 2.326 . S
O79 In78 2.294 . S
O79 C88 1.240 . S
O80 In78 2.326 . S
O80 C88 1.252 . S
C81 O84 1.252 . S
C81 O85 1.260 . S
C82 O89 1.240 . S
C82 O90 1.252 . S
C83 O86 1.252 . S
C83 O87 1.260 . S
O84 In78 2.266 . S
O84 C81 1.252 . S
O85 In78 2.326 . S
O85 C81 1.260 . S
O86 In78 2.266 . S
O86 C83 1.252 . S
O87 In78 2.326 . S
O87 C83 1.260 . S
C88 O79 1.240 . S
C88 O80 1.252 . S
O89 In78 2.294 . S
O89 C82 1.240 . S
O90 In78 2.326 . S
O90 C82 1.252 . S
In91 O92 2.294 . S
In91 O93 2.326 . S
In91 O97 2.266 . S
In91 O98 2.326 . S
In91 O99 2.266 . S
In91 O100 2.326 . S
In91 O102 2.294 . S
In91 O103 2.326 . S
O92 In91 2.294 . S
O92 C101 1.240 . S
O93 In91 2.326 . S
O93 C101 1.252 . S
C94 O97 1.252 . S
C94 O98 1.260 . S
C95 O102 1.240 . S
C95 O103 1.252 . S
C96 O99 1.252 . S
C96 O100 1.260 . S
O97 In91 2.266 . S
O97 C94 1.252 . S
O98 In91 2.326 . S
O98 C94 1.260 . S
O99 In91 2.266 . S
O99 C96 1.252 . S
O100 In91 2.326 . S
O100 C96 1.260 . S
C101 O92 1.240 . S
C101 O93 1.252 . S
O102 In91 2.294 . S
O102 C95 1.240 . S
O103 In91 2.326 . S
O103 C95 1.252 . S
In104 O105 2.294 . S
In104 O106 2.326 . S
In104 O110 2.266 . S
In104 O111 2.326 . S
In104 O112 2.266 . S
In104 O113 2.326 . S
In104 O115 2.294 . S
In104 O116 2.326 . S
O105 In104 2.294 . S
O105 C114 1.240 . S
O106 In104 2.326 . S
O106 C114 1.252 . S
C107 O110 1.252 . S
C107 O111 1.260 . S
C108 O115 1.240 . S
C108 O116 1.252 . S
C109 O112 1.252 . S
C109 O113 1.260 . S
O110 In104 2.266 . S
O110 C107 1.252 . S
O111 In104 2.326 . S
O111 C107 1.260 . S
O112 In104 2.266 . S
O112 C109 1.252 . S
O113 In104 2.326 . S
O113 C109 1.260 . S
C114 O105 1.240 . S
C114 O106 1.252 . S
O115 In104 2.294 . S
O115 C108 1.240 . S
O116 In104 2.326 . S
O116 C108 1.252 . S
In117 O118 2.294 . S
In117 O119 2.326 . S
In117 O123 2.266 . S
In117 O124 2.326 . S
In117 O125 2.266 . S
In117 O126 2.326 . S
In117 O128 2.294 . S
In117 O129 2.326 . S
O118 In117 2.294 . S
O118 C127 1.240 . S
O119 In117 2.326 . S
O119 C127 1.252 . S
C120 O123 1.252 . S
C120 O124 1.260 . S
C121 O128 1.240 . S
C121 O129 1.252 . S
C122 O125 1.252 . S
C122 O126 1.260 . S
O123 In117 2.266 . S
O123 C120 1.252 . S
O124 In117 2.326 . S
O124 C120 1.260 . S
O125 In117 2.266 . S
O125 C122 1.252 . S
O126 In117 2.326 . S
O126 C122 1.260 . S
C127 O118 1.240 . S
C127 O119 1.252 . S
O128 In117 2.294 . S
O128 C121 1.240 . S
O129 In117 2.326 . S
O129 C121 1.252 . S
In130 O131 2.294 . S
In130 O132 2.326 . S
In130 O136 2.266 . S
In130 O137 2.326 . S
In130 O138 2.266 . S
In130 O139 2.326 . S
In130 O141 2.294 . S
In130 O142 2.326 . S
O131 In130 2.294 . S
O131 C140 1.240 . S
O132 In130 2.326 . S
O132 C140 1.252 . S
C133 O136 1.252 . S
C133 O137 1.260 . S
C134 O141 1.240 . S
C134 O142 1.252 . S
C135 O138 1.252 . S
C135 O139 1.260 . S
O136 In130 2.266 . S
O136 C133 1.252 . S
O137 In130 2.326 . S
O137 C133 1.260 . S
O138 In130 2.266 . S
O138 C135 1.252 . S
O139 In130 2.326 . S
O139 C135 1.260 . S
C140 O131 1.240 . S
C140 O132 1.252 . S
O141 In130 2.294 . S
O141 C134 1.240 . S
O142 In130 2.326 . S
O142 C134 1.252 . S
In143 O144 2.294 . S
In143 O145 2.326 . S
In143 O149 2.266 . S
In143 O150 2.326 . S
In143 O151 2.266 . S
In143 O152 2.326 . S
In143 O154 2.294 . S
In143 O155 2.326 . S
O144 In143 2.294 . S
O144 C153 1.240 . S
O145 In143 2.326 . S
O145 C153 1.252 . S
C146 O149 1.252 . S
C146 O150 1.260 . S
C147 O154 1.240 . S
C147 O155 1.252 . S
C148 O151 1.252 . S
C148 O152 1.260 . S
O149 In143 2.266 . S
O149 C146 1.252 . S
O150 In143 2.326 . S
O150 C146 1.260 . S
O151 In143 2.266 . S
O151 C148 1.252 . S
O152 In143 2.326 . S
O152 C148 1.260 . S
C153 O144 1.240 . S
C153 O145 1.252 . S
O154 In143 2.294 . S
O154 C147 1.240 . S
O155 In143 2.326 . S
O155 C147 1.252 . S
C156 C157 1.349 1_655 S
C156 C158 1.327 . S
C156 H181 0.950 . S
C157 C156 1.349 1_455 S
C157 C173 1.349 . S
C158 C156 1.327 . S
C158 C177 1.429 1_655 S
C158 H182 0.950 . S
C159 C176 1.574 1_554 S
C159 C178 1.368 . S
C159 H183 0.949 . S
H160 C164 0.949 . S
C161 C162 1.349 1_455 S
C161 C163 1.327 . S
C161 H184 0.950 . S
C162 C161 1.349 1_655 S
C162 C174 1.349 . S
C163 C161 1.327 . S
C163 C179 1.429 1_455 S
C163 H185 0.950 . S
C164 H160 0.949 . S
C164 C172 1.574 1_556 S
C164 C180 1.368 . S
H165 C173 0.950 . S
H166 C171 0.950 . S
H167 C172 0.949 . S
H168 C174 0.950 . S
H169 C175 0.950 . S
H170 C176 0.949 . S
C171 H166 0.950 . S
C171 C173 1.327 . S
C171 C177 1.429 . S
C172 C164 1.574 1_554 S
C172 H167 0.949 . S
C172 C178 1.368 1_655 S
C173 C157 1.349 . S
C173 H165 0.950 . S
C173 C171 1.327 . S
C174 C162 1.349 . S
C174 H168 0.950 . S
C174 C175 1.327 . S
C175 H169 0.950 . S
C175 C174 1.327 . S
C175 C179 1.429 . S
C176 C159 1.574 1_556 S
C176 H170 0.949 . S
C176 C180 1.368 1_455 S
C177 C158 1.429 1_455 S
C177 C171 1.429 . S
C177 C178 1.523 . S
C178 C159 1.368 . S
C178 C172 1.368 1_455 S
C178 C177 1.523 . S
C179 C163 1.429 1_655 S
C179 C175 1.429 . S
C179 C180 1.523 . S
C180 C164 1.368 . S
C180 C176 1.368 1_655 S
C180 C179 1.523 . S
H181 C156 0.950 . S
H182 C158 0.950 . S
H183 C159 0.949 . S
H184 C161 0.950 . S
H185 C163 0.950 . S
C186 C187 1.366 . S
C186 C188 1.324 1_565 S
C186 H211 0.936 1_565 S
C187 C186 1.366 . S
C187 C203 1.349 . S
C188 C186 1.324 1_545 S
C188 C207 1.429 1_545 S
C188 H212 0.950 . S
C189 C206 1.574 . S
C189 C208 1.368 . S
C189 H213 0.949 . S
H190 C194 0.949 . S
C191 C192 1.366 . S
C191 C193 1.324 1_545 S
C191 H214 0.936 1_545 S
C192 C191 1.366 . S
C192 C204 1.349 . S
C193 C191 1.324 1_565 S
C193 C209 1.429 1_565 S
C193 H215 0.950 . S
C194 H190 0.949 . S
C194 C202 1.574 . S
C194 C210 1.368 . S
H195 C203 0.950 . S
H196 C201 0.950 . S
H197 C202 0.949 . S
H198 C204 0.950 . S
H199 C205 0.950 . S
H200 C206 0.949 . S
C201 H196 0.950 . S
C201 C203 1.327 . S
C201 C207 1.429 . S
C202 C194 1.574 . S
C202 H197 0.949 . S
C202 C208 1.368 1_545 S
C203 C187 1.349 . S
C203 H195 0.950 . S
C203 C201 1.327 . S
C204 C192 1.349 . S
C204 H198 0.950 . S
C204 C205 1.327 . S
C205 H199 0.950 . S
C205 C204 1.327 . S
C205 C209 1.429 . S
C206 C189 1.574 . S
C206 H200 0.949 . S
C206 C210 1.368 1_565 S
C207 C188 1.429 1_565 S
C207 C201 1.429 . S
C207 C208 1.523 . S
C208 C189 1.368 . S
C208 C202 1.368 1_565 S
C208 C207 1.523 . S
C209 C193 1.429 1_545 S
C209 C205 1.429 . S
C209 C210 1.523 . S
C210 C194 1.368 . S
C210 C206 1.368 1_545 S
C210 C209 1.523 . S
H211 C186 0.936 1_545 S
H212 C188 0.950 . S
H213 C189 0.949 . S
H214 C191 0.936 1_565 S
H215 C193 0.950 . S
C216 C217 1.349 . S
C216 C218 1.327 . S
C216 H241 0.950 . S
C217 C216 1.349 . S
C217 C233 1.349 . S
C218 C216 1.327 . S
C218 C237 1.429 . S
C218 H242 0.950 . S
C219 C236 1.574 1_554 S
C219 C238 1.368 . S
C219 H243 0.949 . S
H220 C224 0.949 . S
C221 C222 1.349 . S
C221 C223 1.327 . S
C221 H244 0.950 . S
C222 C221 1.349 . S
C222 C234 1.349 . S
C223 C221 1.327 . S
C223 C239 1.429 . S
C223 H245 0.950 . S
C224 H220 0.949 . S
C224 C232 1.574 1_556 S
C224 C240 1.368 . S
H225 C233 0.950 . S
H226 C231 0.950 . S
H227 C232 0.949 . S
H228 C234 0.950 . S
H229 C235 0.950 . S
H230 C236 0.949 . S
C231 H226 0.950 . S
C231 C233 1.327 . S
C231 C237 1.429 . S
C232 C224 1.574 1_554 S
C232 H227 0.949 . S
C232 C238 1.368 . S
C233 C217 1.349 . S
C233 H225 0.950 . S
C233 C231 1.327 . S
C234 C222 1.349 . S
C234 H228 0.950 . S
C234 C235 1.327 . S
C235 H229 0.950 . S
C235 C234 1.327 . S
C235 C239 1.429 . S
C236 C219 1.574 1_556 S
C236 H230 0.949 . S
C236 C240 1.368 . S
C237 C218 1.429 . S
C237 C231 1.429 . S
C237 C238 1.523 . S
C238 C219 1.368 . S
C238 C232 1.368 . S
C238 C237 1.523 . S
C239 C223 1.429 . S
C239 C235 1.429 . S
C239 C240 1.523 . S
C240 C224 1.368 . S
C240 C236 1.368 . S
C240 C239 1.523 . S
H241 C216 0.950 . S
H242 C218 0.950 . S
H243 C219 0.949 . S
H244 C221 0.950 . S
H245 C223 0.950 . S
C246 C247 1.349 . S
C246 C248 1.327 . S
C246 H271 0.950 . S
C247 C246 1.349 . S
C247 C263 1.349 . S
C248 C246 1.327 . S
C248 C267 1.429 . S
C248 H272 0.950 . S
C249 C266 1.576 . S
C249 C268 1.368 . S
C249 H273 0.949 . S
H250 C254 0.949 . S
C251 C252 1.349 . S
C251 C253 1.327 . S
C251 H274 0.950 . S
C252 C251 1.349 . S
C252 C264 1.349 . S
C253 C251 1.327 . S
C253 C269 1.429 . S
C253 H275 0.950 . S
C254 H250 0.949 . S
C254 C262 1.576 . S
C254 C270 1.368 . S
H255 C263 0.950 . S
H256 C261 0.950 . S
H257 C262 0.948 . S
H258 C264 0.950 . S
H259 C265 0.950 . S
H260 C266 0.948 . S
C261 H256 0.950 . S
C261 C263 1.327 . S
C261 C267 1.429 . S
C262 C254 1.576 . S
C262 H257 0.948 . S
C262 C268 1.362 1_655 S
C263 C247 1.349 . S
C263 H255 0.950 . S
C263 C261 1.327 . S
C264 C252 1.349 . S
C264 H258 0.950 . S
C264 C265 1.327 . S
C265 H259 0.950 . S
C265 C264 1.327 . S
C265 C269 1.429 . S
C266 C249 1.576 . S
C266 H260 0.948 . S
C266 C270 1.362 1_455 S
C267 C248 1.429 . S
C267 C261 1.429 . S
C267 C268 1.523 . S
C268 C249 1.368 . S
C268 C262 1.362 1_455 S
C268 C267 1.523 . S
C269 C253 1.429 . S
C269 C265 1.429 . S
C269 C270 1.523 . S
C270 C254 1.368 . S
C270 C266 1.362 1_655 S
C270 C269 1.523 . S
H271 C246 0.950 . S
H272 C248 0.950 . S
H273 C249 0.949 . S
H274 C251 0.950 . S
H275 C253 0.950 . S
C276 C277 1.349 . S
C276 C278 1.327 . S
C276 H301 0.950 . S
C277 C276 1.349 . S
C277 C293 1.349 . S
C278 C276 1.327 . S
C278 C297 1.429 . S
C278 H302 0.950 . S
C279 C296 1.574 1_556 S
C279 C298 1.368 1_565 S
C279 H303 0.949 . S
H280 C284 0.949 . S
C281 C282 1.349 . S
C281 C283 1.327 . S
C281 H304 0.950 . S
C282 C281 1.349 . S
C282 C294 1.349 . S
C283 C281 1.327 . S
C283 C299 1.429 . S
C283 H305 0.950 . S
C284 H280 0.949 . S
C284 C292 1.574 1_554 S
C284 C300 1.368 1_545 S
H285 C293 0.950 1_565 S
H286 C291 0.950 . S
H287 C292 0.949 . S
H288 C294 0.950 1_545 S
H289 C295 0.950 . S
H290 C296 0.949 . S
C291 H286 0.950 . S
C291 C293 1.327 1_565 S
C291 C297 1.429 1_565 S
C292 C284 1.574 1_556 S
C292 H287 0.949 . S
C292 C298 1.368 . S
C293 C277 1.349 . S
C293 H285 0.950 1_545 S
C293 C291 1.327 1_545 S
C294 C282 1.349 . S
C294 H288 0.950 1_565 S
C294 C295 1.327 1_565 S
C295 H289 0.950 . S
C295 C294 1.327 1_545 S
C295 C299 1.429 1_545 S
C296 C279 1.574 1_554 S
C296 H290 0.949 . S
C296 C300 1.368 . S
C297 C278 1.429 . S
C297 C291 1.429 1_545 S
C297 C298 1.523 . S
C298 C279 1.368 1_545 S
C298 C292 1.368 . S
C298 C297 1.523 . S
C299 C283 1.429 . S
C299 C295 1.429 1_565 S
C299 C300 1.523 . S
C300 C284 1.368 1_565 S
C300 C296 1.368 . S
C300 C299 1.523 . S
H301 C276 0.950 . S
H302 C278 0.950 . S
H303 C279 0.949 . S
H304 C281 0.950 . S
H305 C283 0.950 . S
C306 C307 1.349 . S
C306 C308 1.327 . S
C306 H331 0.950 . S
C307 C306 1.349 . S
C307 C323 1.349 . S
C308 C306 1.327 . S
C308 C327 1.429 . S
C308 H332 0.950 . S
C309 C326 1.574 . S
C309 C328 1.368 . S
C309 H333 0.949 . S
H310 C314 0.949 . S
C311 C312 1.349 . S
C311 C313 1.327 . S
C311 H334 0.950 . S
C312 C311 1.349 . S
C312 C324 1.349 . S
C313 C311 1.327 . S
C313 C329 1.429 . S
C313 H335 0.950 . S
C314 H310 0.949 . S
C314 C322 1.574 . S
C314 C330 1.368 . S
H315 C323 0.950 . S
H316 C321 0.950 . S
H317 C322 0.949 . S
H318 C324 0.950 . S
H319 C325 0.950 . S
H320 C326 0.949 . S
C321 H316 0.950 . S
C321 C323 1.327 . S
C321 C327 1.429 . S
C322 C314 1.574 . S
C322 H317 0.949 . S
C322 C328 1.368 . S
C323 C307 1.349 . S
C323 H315 0.950 . S
C323 C321 1.327 . S
C324 C312 1.349 . S
C324 H318 0.950 . S
C324 C325 1.327 . S
C325 H319 0.950 . S
C325 C324 1.327 . S
C325 C329 1.429 . S
C326 C309 1.574 . S
C326 H320 0.949 . S
C326 C330 1.368 . S
C327 C308 1.429 . S
C327 C321 1.429 . S
C327 C328 1.523 . S
C328 C309 1.368 . S
C328 C322 1.368 . S
C328 C327 1.523 . S
C329 C313 1.429 . S
C329 C325 1.429 . S
C329 C330 1.523 . S
C330 C314 1.368 . S
C330 C326 1.368 . S
C330 C329 1.523 . S
H331 C306 0.950 . S
H332 C308 0.950 . S
H333 C309 0.949 . S
H334 C311 0.950 . S
H335 C313 0.950 . S
C336 C337 1.349 . S
C336 C338 1.327 . S
C336 H361 0.950 . S
C337 C336 1.349 . S
C337 C353 1.349 . S
C338 C336 1.327 . S
C338 C357 1.429 . S
C338 H362 0.950 . S
C339 C356 1.574 1_656 S
C339 C358 1.368 . S
C339 H363 0.949 . S
H340 C344 0.949 . S
C341 C342 1.349 . S
C341 C343 1.327 . S
C341 H364 0.950 . S
C342 C341 1.349 . S
C342 C354 1.349 . S
C343 C341 1.327 . S
C343 C359 1.429 . S
C343 H365 0.950 . S
C344 H340 0.949 . S
C344 C352 1.574 1_454 S
C344 C360 1.368 . S
H345 C353 0.950 . S
H346 C351 0.950 . S
H347 C352 0.949 . S
H348 C354 0.950 . S
H349 C355 0.950 . S
H350 C356 0.949 . S
C351 H346 0.950 . S
C351 C353 1.327 . S
C351 C357 1.429 . S
C352 C344 1.574 1_656 S
C352 H347 0.949 . S
C352 C358 1.368 . S
C353 C337 1.349 . S
C353 H345 0.950 . S
C353 C351 1.327 . S
C354 C342 1.349 . S
C354 H348 0.950 . S
C354 C355 1.327 . S
C355 H349 0.950 . S
C355 C354 1.327 . S
C355 C359 1.429 . S
C356 C339 1.574 1_454 S
C356 H350 0.949 . S
C356 C360 1.368 . S
C357 C338 1.429 . S
C357 C351 1.429 . S
C357 C358 1.523 . S
C358 C339 1.368 . S
C358 C352 1.368 . S
C358 C357 1.523 . S
C359 C343 1.429 . S
C359 C355 1.429 . S
C359 C360 1.523 . S
C360 C344 1.368 . S
C360 C356 1.368 . S
C360 C359 1.523 . S
H361 C336 0.950 . S
H362 C338 0.950 . S
H363 C339 0.949 . S
H364 C341 0.950 . S
H365 C343 0.950 . S
C366 C367 1.349 1_545 S
C366 C368 1.327 . S
C366 H391 0.950 . S
C367 C366 1.349 1_565 S
C367 C383 1.349 . S
C368 C366 1.327 . S
C368 C387 1.429 1_545 S
C368 H392 0.950 . S
C369 C386 1.574 . S
C369 C388 1.368 . S
C369 H393 0.949 . S
H370 C374 0.949 . S
C371 C372 1.349 1_565 S
C371 C373 1.327 . S
C371 H394 0.950 . S
C372 C371 1.349 1_545 S
C372 C384 1.349 . S
C373 C371 1.327 . S
C373 C389 1.429 1_565 S
C373 H395 0.950 . S
C374 H370 0.949 . S
C374 C382 1.574 . S
C374 C390 1.368 . S
H375 C383 0.950 . S
H376 C381 0.950 . S
H377 C382 0.949 . S
H378 C384 0.950 . S
H379 C385 0.950 . S
H380 C386 0.949 . S
C381 H376 0.950 . S
C381 C383 1.327 . S
C381 C387 1.429 . S
C382 C374 1.574 . S
C382 H377 0.949 . S
C382 C388 1.368 1_545 S
C383 C367 1.349 . S
C383 H375 0.950 . S
C383 C381 1.327 . S
C384 C372 1.349 . S
C384 H378 0.950 . S
C384 C385 1.327 . S
C385 H379 0.950 . S
C385 C384 1.327 . S
C385 C389 1.429 . S
C386 C369 1.574 . S
C386 H380 0.949 . S
C386 C390 1.368 1_565 S
C387 C368 1.429 1_565 S
C387 C381 1.429 . S
C387 C388 1.523 . S
C388 C369 1.368 . S
C388 C382 1.368 1_565 S
C388 C387 1.523 . S
C389 C373 1.429 1_545 S
C389 C385 1.429 . S
C389 C390 1.523 . S
C390 C374 1.368 . S
C390 C386 1.368 1_545 S
C390 C389 1.523 . S
H391 C366 0.950 . S
H392 C368 0.950 . S
H393 C369 0.949 . S
H394 C371 0.950 . S
H395 C373 0.950 . S
C396 C397 1.349 . S
C396 C398 1.327 . S
C396 H421 0.950 . S
C397 C396 1.349 . S
C397 C413 1.349 . S
C398 C396 1.327 . S
C398 C417 1.429 . S
C398 H422 0.950 . S
C399 C416 1.574 1_556 S
C399 C418 1.368 . S
C399 H423 0.949 . S
H400 C404 0.949 . S
C401 C402 1.349 . S
C401 C403 1.327 . S
C401 H424 0.950 . S
C402 C401 1.349 . S
C402 C414 1.349 . S
C403 C401 1.327 . S
C403 C419 1.429 . S
C403 H425 0.950 . S
C404 H400 0.949 . S
C404 C412 1.574 1_554 S
C404 C420 1.368 . S
H405 C413 0.950 . S
H406 C411 0.950 . S
H407 C412 0.949 . S
H408 C414 0.950 . S
H409 C415 0.950 . S
H410 C416 0.949 . S
C411 H406 0.950 . S
C411 C413 1.327 . S
C411 C417 1.429 . S
C412 C404 1.574 1_556 S
C412 H407 0.949 . S
C412 C418 1.368 . S
C413 C397 1.349 . S
C413 H405 0.950 . S
C413 C411 1.327 . S
C414 C402 1.349 . S
C414 H408 0.950 . S
C414 C415 1.327 . S
C415 H409 0.950 . S
C415 C414 1.327 . S
C415 C419 1.429 . S
C416 C399 1.574 1_554 S
C416 H410 0.949 . S
C416 C420 1.368 . S
C417 C398 1.429 . S
C417 C411 1.429 . S
C417 C418 1.523 . S
C418 C399 1.368 . S
C418 C412 1.368 . S
C418 C417 1.523 . S
C419 C403 1.429 . S
C419 C415 1.429 . S
C419 C420 1.523 . S
C420 C404 1.368 . S
C420 C416 1.368 . S
C420 C419 1.523 . S
H421 C396 0.950 . S
H422 C398 0.950 . S
H423 C399 0.949 . S
H424 C401 0.950 . S
H425 C403 0.950 . S
C426 C427 1.349 1_455 S
C426 C428 1.327 . S
C426 H451 0.950 . S
C427 C426 1.349 1_655 S
C427 C443 1.349 . S
C428 C426 1.327 . S
C428 C447 1.429 1_455 S
C428 H452 0.950 . S
C429 C446 1.574 . S
C429 C448 1.368 . S
C429 H453 0.949 . S
H430 C434 0.949 . S
C431 C432 1.349 1_655 S
C431 C433 1.327 . S
C431 H454 0.950 . S
C432 C431 1.349 1_455 S
C432 C444 1.349 . S
C433 C431 1.327 . S
C433 C449 1.429 1_655 S
C433 H455 0.950 . S
C434 H430 0.949 . S
C434 C442 1.574 . S
C434 C450 1.368 . S
H435 C443 0.950 . S
H436 C441 0.950 . S
H437 C442 0.949 . S
H438 C444 0.950 . S
H439 C445 0.950 . S
H440 C446 0.949 . S
C441 H436 0.950 . S
C441 C443 1.327 . S
C441 C447 1.429 . S
C442 C434 1.574 . S
C442 H437 0.949 . S
C442 C448 1.368 1_455 S
C443 C427 1.349 . S
C443 H435 0.950 . S
C443 C441 1.327 . S
C444 C432 1.349 . S
C444 H438 0.950 . S
C444 C445 1.327 . S
C445 H439 0.950 . S
C445 C444 1.327 . S
C445 C449 1.429 . S
C446 C429 1.574 . S
C446 H440 0.949 . S
C446 C450 1.368 1_655 S
C447 C428 1.429 1_655 S
C447 C441 1.429 . S
C447 C448 1.523 . S
C448 C429 1.368 . S
C448 C442 1.368 1_655 S
C448 C447 1.523 . S
C449 C433 1.429 1_455 S
C449 C445 1.429 . S
C449 C450 1.523 . S
C450 C434 1.368 . S
C450 C446 1.368 1_455 S
C450 C449 1.523 . S
H451 C426 0.950 . S
H452 C428 0.950 . S
H453 C429 0.949 . S
H454 C431 0.950 . S
H455 C433 0.950 . S
C456 C457 1.349 1_565 S
C456 C458 1.327 . S
C456 H481 0.950 . S
C457 C456 1.349 1_545 S
C457 C473 1.349 . S
C458 C456 1.327 . S
C458 C477 1.429 1_565 S
C458 H482 0.950 . S
C459 C476 1.574 1_556 S
C459 C478 1.368 . S
C459 H483 0.949 . S
H460 C464 0.949 . S
C461 C462 1.349 1_545 S
C461 C463 1.327 . S
C461 H484 0.950 . S
C462 C461 1.349 1_565 S
C462 C474 1.349 . S
C463 C461 1.327 . S
C463 C479 1.429 1_545 S
C463 H485 0.950 . S
C464 H460 0.949 . S
C464 C472 1.574 1_554 S
C464 C480 1.368 . S
H465 C473 0.950 . S
H466 C471 0.950 . S
H467 C472 0.949 . S
H468 C474 0.950 . S
H469 C475 0.950 . S
H470 C476 0.949 . S
C471 H466 0.950 . S
C471 C473 1.327 . S
C471 C477 1.429 . S
C472 C464 1.574 1_556 S
C472 H467 0.949 . S
C472 C478 1.368 1_565 S
C473 C457 1.349 . S
C473 H465 0.950 . S
C473 C471 1.327 . S
C474 C462 1.349 . S
C474 H468 0.950 . S
C474 C475 1.327 . S
C475 H469 0.950 . S
C475 C474 1.327 . S
C475 C479 1.429 . S
C476 C459 1.574 1_554 S
C476 H470 0.949 . S
C476 C480 1.368 1_545 S
C477 C458 1.429 1_545 S
C477 C471 1.429 . S
C477 C478 1.523 . S
C478 C459 1.368 . S
C478 C472 1.368 1_545 S
C478 C477 1.523 . S
C479 C463 1.429 1_565 S
C479 C475 1.429 . S
C479 C480 1.523 . S
C480 C464 1.368 . S
C480 C476 1.368 1_565 S
C480 C479 1.523 . S
H481 C456 0.950 . S
H482 C458 0.950 . S
H483 C459 0.949 . S
H484 C461 0.950 . S
H485 C463 0.950 . S
C486 C487 1.349 . S
C486 C488 1.327 . S
C486 H511 0.950 . S
C487 C486 1.349 . S
C487 C503 1.349 . S
C488 C486 1.327 . S
C488 C507 1.429 . S
C488 H512 0.950 . S
C489 C506 1.574 . S
C489 C508 1.368 . S
C489 H513 0.949 . S
H490 C494 0.949 . S
C491 C492 1.349 . S
C491 C493 1.327 . S
C491 H514 0.950 . S
C492 C491 1.349 . S
C492 C504 1.349 . S
C493 C491 1.327 . S
C493 C509 1.429 . S
C493 H515 0.950 . S
C494 H490 0.949 . S
C494 C502 1.574 . S
C494 C510 1.368 . S
H495 C503 0.950 . S
H496 C501 0.950 . S
H497 C502 0.949 . S
H498 C504 0.950 . S
H499 C505 0.950 . S
H500 C506 0.949 . S
C501 H496 0.950 . S
C501 C503 1.327 . S
C501 C507 1.429 . S
C502 C494 1.574 . S
C502 H497 0.949 . S
C502 C508 1.368 . S
C503 C487 1.349 . S
C503 H495 0.950 . S
C503 C501 1.327 . S
C504 C492 1.349 . S
C504 H498 0.950 . S
C504 C505 1.327 . S
C505 H499 0.950 . S
C505 C504 1.327 . S
C505 C509 1.429 . S
C506 C489 1.574 . S
C506 H500 0.949 . S
C506 C510 1.368 . S
C507 C488 1.429 . S
C507 C501 1.429 . S
C507 C508 1.523 . S
C508 C489 1.368 . S
C508 C502 1.368 . S
C508 C507 1.523 . S
C509 C493 1.429 . S
C509 C505 1.429 . S
C509 C510 1.523 . S
C510 C494 1.368 . S
C510 C506 1.368 . S
C510 C509 1.523 . S
H511 C486 0.950 . S
H512 C488 0.950 . S
H513 C489 0.949 . S
H514 C491 0.950 . S
H515 C493 0.950 . S
C516 C517 1.349 . S
C516 C518 1.327 . S
C516 H541 0.950 . S
C517 C516 1.349 . S
C517 C533 1.349 . S
C518 C516 1.327 . S
C518 C537 1.429 . S
C518 H542 0.950 . S
C519 C536 1.574 . S
C519 C538 1.368 . S
C519 H543 0.949 . S
H520 C524 0.949 . S
C521 C522 1.349 . S
C521 C523 1.327 . S
C521 H544 0.950 . S
C522 C521 1.349 . S
C522 C534 1.349 . S
C523 C521 1.327 . S
C523 C539 1.429 . S
C523 H545 0.950 . S
C524 H520 0.949 . S
C524 C532 1.574 . S
C524 C540 1.368 . S
H525 C533 0.950 . S
H526 C531 0.950 . S
H527 C532 0.949 . S
H528 C534 0.950 . S
H529 C535 0.950 . S
H530 C536 0.949 . S
C531 H526 0.950 . S
C531 C533 1.327 . S
C531 C537 1.429 . S
C532 C524 1.574 . S
C532 H527 0.949 . S
C532 C538 1.368 . S
C533 C517 1.349 . S
C533 H525 0.950 . S
C533 C531 1.327 . S
C534 C522 1.349 . S
C534 H528 0.950 . S
C534 C535 1.327 . S
C535 H529 0.950 . S
C535 C534 1.327 . S
C535 C539 1.429 . S
C536 C519 1.574 . S
C536 H530 0.949 . S
C536 C540 1.368 . S
C537 C518 1.429 . S
C537 C531 1.429 . S
C537 C538 1.523 . S
C538 C519 1.368 . S
C538 C532 1.368 . S
C538 C537 1.523 . S
C539 C523 1.429 . S
C539 C535 1.429 . S
C539 C540 1.523 . S
C540 C524 1.368 . S
C540 C536 1.368 . S
C540 C539 1.523 . S
H541 C516 0.950 . S
H542 C518 0.950 . S
H543 C519 0.949 . S
H544 C521 0.950 . S
H545 C523 0.950 . S
C546 C547 1.349 . S
C546 C548 1.327 . S
C546 H571 0.950 . S
C547 C546 1.349 . S
C547 C563 1.349 . S
C548 C546 1.327 . S
C548 C567 1.429 . S
C548 H572 0.950 . S
C549 C566 1.574 . S
C549 C568 1.368 . S
C549 H573 0.949 . S
H550 C554 0.949 . S
C551 C552 1.349 . S
C551 C553 1.327 . S
C551 H574 0.950 . S
C552 C551 1.349 . S
C552 C564 1.349 . S
C553 C551 1.327 . S
C553 C569 1.429 . S
C553 H575 0.950 . S
C554 H550 0.949 . S
C554 C562 1.574 . S
C554 C570 1.368 . S
H555 C563 0.950 . S
H556 C561 0.950 . S
H557 C562 0.949 . S
H558 C564 0.950 . S
H559 C565 0.950 . S
H560 C566 0.949 . S
C561 H556 0.950 . S
C561 C563 1.327 . S
C561 C567 1.429 . S
C562 C554 1.574 . S
C562 H557 0.949 . S
C562 C568 1.368 . S
C563 C547 1.349 . S
C563 H555 0.950 . S
C563 C561 1.327 . S
C564 C552 1.349 . S
C564 H558 0.950 . S
C564 C565 1.327 . S
C565 H559 0.950 . S
C565 C564 1.327 . S
C565 C569 1.429 . S
C566 C549 1.574 . S
C566 H560 0.949 . S
C566 C570 1.368 . S
C567 C548 1.429 . S
C567 C561 1.429 . S
C567 C568 1.523 . S
C568 C549 1.368 . S
C568 C562 1.368 . S
C568 C567 1.523 . S
C569 C553 1.429 . S
C569 C565 1.429 . S
C569 C570 1.523 . S
C570 C554 1.368 . S
C570 C566 1.368 . S
C570 C569 1.523 . S
H571 C546 0.950 . S
H572 C548 0.950 . S
H573 C549 0.949 . S
H574 C551 0.950 . S
H575 C553 0.950 . S
C576 C577 1.349 . S
C576 C578 1.327 . S
C576 H601 0.950 . S
C577 C576 1.349 . S
C577 C593 1.349 . S
C578 C576 1.327 . S
C578 C597 1.429 . S
C578 H602 0.950 . S
C579 C596 1.574 . S
C579 C598 1.368 . S
C579 H603 0.949 . S
H580 C584 0.949 . S
C581 C582 1.349 . S
C581 C583 1.327 . S
C581 H604 0.950 . S
C582 C581 1.349 . S
C582 C594 1.349 . S
C583 C581 1.327 . S
C583 C599 1.429 . S
C583 H605 0.950 . S
C584 H580 0.949 . S
C584 C592 1.574 . S
C584 C600 1.368 . S
H585 C593 0.950 . S
H586 C591 0.950 . S
H587 C592 0.949 . S
H588 C594 0.950 . S
H589 C595 0.950 . S
H590 C596 0.949 . S
C591 H586 0.950 . S
C591 C593 1.327 . S
C591 C597 1.429 . S
C592 C584 1.574 . S
C592 H587 0.949 . S
C592 C598 1.368 . S
C593 C577 1.349 . S
C593 H585 0.950 . S
C593 C591 1.327 . S
C594 C582 1.349 . S
C594 H588 0.950 . S
C594 C595 1.327 . S
C595 H589 0.950 . S
C595 C594 1.327 . S
C595 C599 1.429 . S
C596 C579 1.574 . S
C596 H590 0.949 . S
C596 C600 1.368 . S
C597 C578 1.429 . S
C597 C591 1.429 . S
C597 C598 1.523 . S
C598 C579 1.368 . S
C598 C592 1.368 . S
C598 C597 1.523 . S
C599 C583 1.429 . S
C599 C595 1.429 . S
C599 C600 1.523 . S
C600 C584 1.368 . S
C600 C596 1.368 . S
C600 C599 1.523 . S
H601 C576 0.950 . S
H602 C578 0.950 . S
H603 C579 0.949 . S
H604 C581 0.950 . S
H605 C583 0.950 . S
C606 C607 1.349 . S
C606 C608 1.327 . S
C606 H631 0.950 . S
C607 C606 1.349 . S
C607 C623 1.349 . S
C608 C606 1.327 . S
C608 C627 1.429 . S
C608 H632 0.950 . S
C609 C626 1.574 . S
C609 C628 1.368 . S
C609 H633 0.949 . S
H610 C614 0.949 . S
C611 C612 1.349 . S
C611 C613 1.327 . S
C611 H634 0.950 . S
C612 C611 1.349 . S
C612 C624 1.349 . S
C613 C611 1.327 . S
C613 C629 1.429 . S
C613 H635 0.950 . S
C614 H610 0.949 . S
C614 C622 1.574 . S
C614 C630 1.368 . S
H615 C623 0.950 . S
H616 C621 0.950 . S
H617 C622 0.949 . S
H618 C624 0.950 . S
H619 C625 0.950 . S
H620 C626 0.949 . S
C621 H616 0.950 . S
C621 C623 1.327 . S
C621 C627 1.429 . S
C622 C614 1.574 . S
C622 H617 0.949 . S
C622 C628 1.368 . S
C623 C607 1.349 . S
C623 H615 0.950 . S
C623 C621 1.327 . S
C624 C612 1.349 . S
C624 H618 0.950 . S
C624 C625 1.327 . S
C625 H619 0.950 . S
C625 C624 1.327 . S
C625 C629 1.429 . S
C626 C609 1.574 . S
C626 H620 0.949 . S
C626 C630 1.368 . S
C627 C608 1.429 . S
C627 C621 1.429 . S
C627 C628 1.523 . S
C628 C609 1.368 . S
C628 C622 1.368 . S
C628 C627 1.523 . S
C629 C613 1.429 . S
C629 C625 1.429 . S
C629 C630 1.523 . S
C630 C614 1.368 . S
C630 C626 1.368 . S
C630 C629 1.523 . S
H631 C606 0.950 . S
H632 C608 0.950 . S
H633 C609 0.949 . S
H634 C611 0.950 . S
H635 C613 0.950 . S
C636 C637 1.349 . S
C636 C638 1.327 . S
C636 H661 0.950 . S
C637 C636 1.349 . S
C637 C653 1.349 . S
C638 C636 1.327 . S
C638 C657 1.429 . S
C638 H662 0.950 . S
C639 C656 1.574 . S
C639 C658 1.368 . S
C639 H663 0.949 . S
H640 C644 0.949 . S
C641 C642 1.349 . S
C641 C643 1.327 . S
C641 H664 0.950 . S
C642 C641 1.349 . S
C642 C654 1.349 . S
C643 C641 1.327 . S
C643 C659 1.429 . S
C643 H665 0.950 . S
C644 H640 0.949 . S
C644 C652 1.574 . S
C644 C660 1.368 . S
H645 C653 0.950 . S
H646 C651 0.950 . S
H647 C652 0.949 . S
H648 C654 0.950 . S
H649 C655 0.950 . S
H650 C656 0.949 . S
C651 H646 0.950 . S
C651 C653 1.327 . S
C651 C657 1.429 . S
C652 C644 1.574 . S
C652 H647 0.949 . S
C652 C658 1.368 . S
C653 C637 1.349 . S
C653 H645 0.950 . S
C653 C651 1.327 . S
C654 C642 1.349 . S
C654 H648 0.950 . S
C654 C655 1.327 . S
C655 H649 0.950 . S
C655 C654 1.327 . S
C655 C659 1.429 . S
C656 C639 1.574 . S
C656 H650 0.949 . S
C656 C660 1.368 . S
C657 C638 1.429 . S
C657 C651 1.429 . S
C657 C658 1.523 . S
C658 C639 1.368 . S
C658 C652 1.368 . S
C658 C657 1.523 . S
C659 C643 1.429 . S
C659 C655 1.429 . S
C659 C660 1.523 . S
C660 C644 1.368 . S
C660 C656 1.368 . S
C660 C659 1.523 . S
H661 C636 0.950 . S
H662 C638 0.950 . S
H663 C639 0.949 . S
H664 C641 0.950 . S
H665 C643 0.950 . S
C666 C667 1.349 . S
C666 C668 1.327 . S
C666 H691 0.950 . S
C667 C666 1.349 . S
C667 C683 1.349 . S
C668 C666 1.327 . S
C668 C687 1.429 . S
C668 H692 0.950 . S
C669 C686 1.574 . S
C669 C688 1.368 . S
C669 H693 0.949 . S
H670 C674 0.949 . S
C671 C672 1.349 . S
C671 C673 1.327 . S
C671 H694 0.950 . S
C672 C671 1.349 . S
C672 C684 1.349 . S
C673 C671 1.327 . S
C673 C689 1.429 . S
C673 H695 0.950 . S
C674 H670 0.949 . S
C674 C682 1.574 . S
C674 C690 1.368 . S
H675 C683 0.950 . S
H676 C681 0.950 . S
H677 C682 0.949 . S
H678 C684 0.950 . S
H679 C685 0.950 . S
H680 C686 0.949 . S
C681 H676 0.950 . S
C681 C683 1.327 . S
C681 C687 1.429 . S
C682 C674 1.574 . S
C682 H677 0.949 . S
C682 C688 1.368 . S
C683 C667 1.349 . S
C683 H675 0.950 . S
C683 C681 1.327 . S
C684 C672 1.349 . S
C684 H678 0.950 . S
C684 C685 1.327 . S
C685 H679 0.950 . S
C685 C684 1.327 . S
C685 C689 1.429 . S
C686 C669 1.574 . S
C686 H680 0.949 . S
C686 C690 1.368 . S
C687 C668 1.429 . S
C687 C681 1.429 . S
C687 C688 1.523 . S
C688 C669 1.368 . S
C688 C682 1.368 . S
C688 C687 1.523 . S
C689 C673 1.429 . S
C689 C685 1.429 . S
C689 C690 1.523 . S
C690 C674 1.368 . S
C690 C686 1.368 . S
C690 C689 1.523 . S
H691 C666 0.950 . S
H692 C668 0.950 . S
H693 C669 0.949 . S
H694 C671 0.950 . S
H695 C673 0.950 . S
C696 C697 1.349 . S
C696 C698 1.327 . S
C696 H721 0.950 . S
C697 C696 1.349 . S
C697 C713 1.349 . S
C698 C696 1.327 . S
C698 C717 1.429 . S
C698 H722 0.950 . S
C699 C716 1.574 . S
C699 C718 1.368 . S
C699 H723 0.949 . S
H700 C704 0.949 . S
C701 C702 1.349 . S
C701 C703 1.327 . S
C701 H724 0.950 . S
C702 C701 1.349 . S
C702 C714 1.349 . S
C703 C701 1.327 . S
C703 C719 1.429 . S
C703 H725 0.950 . S
C704 H700 0.949 . S
C704 C712 1.574 . S
C704 C720 1.368 . S
H705 C713 0.950 . S
H706 C711 0.950 . S
H707 C712 0.949 . S
H708 C714 0.950 . S
H709 C715 0.950 . S
H710 C716 0.949 . S
C711 H706 0.950 . S
C711 C713 1.327 . S
C711 C717 1.429 . S
C712 C704 1.574 . S
C712 H707 0.949 . S
C712 C718 1.368 . S
C713 C697 1.349 . S
C713 H705 0.950 . S
C713 C711 1.327 . S
C714 C702 1.349 . S
C714 H708 0.950 . S
C714 C715 1.327 . S
C715 H709 0.950 . S
C715 C714 1.327 . S
C715 C719 1.429 . S
C716 C699 1.574 . S
C716 H710 0.949 . S
C716 C720 1.368 . S
C717 C698 1.429 . S
C717 C711 1.429 . S
C717 C718 1.523 . S
C718 C699 1.368 . S
C718 C712 1.368 . S
C718 C717 1.523 . S
C719 C703 1.429 . S
C719 C715 1.429 . S
C719 C720 1.523 . S
C720 C704 1.368 . S
C720 C716 1.368 . S
C720 C719 1.523 . S
H721 C696 0.950 . S
H722 C698 0.950 . S
H723 C699 0.949 . S
H724 C701 0.950 . S
H725 C703 0.950 . S
C726 C727 1.349 . S
C726 C728 1.327 . S
C726 H751 0.950 . S
C727 C726 1.349 . S
C727 C743 1.349 . S
C728 C726 1.327 . S
C728 C747 1.429 . S
C728 H752 0.950 . S
C729 C746 1.574 . S
C729 C748 1.368 . S
C729 H753 0.949 . S
H730 C734 0.949 . S
C731 C732 1.349 . S
C731 C733 1.327 . S
C731 H754 0.950 . S
C732 C731 1.349 . S
C732 C744 1.349 . S
C733 C731 1.327 . S
C733 C749 1.429 . S
C733 H755 0.950 . S
C734 H730 0.949 . S
C734 C742 1.574 . S
C734 C750 1.368 . S
H735 C743 0.950 . S
H736 C741 0.950 . S
H737 C742 0.949 . S
H738 C744 0.950 . S
H739 C745 0.950 . S
H740 C746 0.949 . S
C741 H736 0.950 . S
C741 C743 1.327 . S
C741 C747 1.429 . S
C742 C734 1.574 . S
C742 H737 0.949 . S
C742 C748 1.368 . S
C743 C727 1.349 . S
C743 H735 0.950 . S
C743 C741 1.327 . S
C744 C732 1.349 . S
C744 H738 0.950 . S
C744 C745 1.327 . S
C745 H739 0.950 . S
C745 C744 1.327 . S
C745 C749 1.429 . S
C746 C729 1.574 . S
C746 H740 0.949 . S
C746 C750 1.368 . S
C747 C728 1.429 . S
C747 C741 1.429 . S
C747 C748 1.523 . S
C748 C729 1.368 . S
C748 C742 1.368 . S
C748 C747 1.523 . S
C749 C733 1.429 . S
C749 C745 1.429 . S
C749 C750 1.523 . S
C750 C734 1.368 . S
C750 C746 1.368 . S
C750 C749 1.523 . S
H751 C726 0.950 . S
H752 C728 0.950 . S
H753 C729 0.949 . S
H754 C731 0.950 . S
H755 C733 0.950 . S
C756 C757 1.349 . S
C756 C758 1.327 . S
C756 H781 0.950 . S
C757 C756 1.349 . S
C757 C773 1.349 . S
C758 C756 1.327 . S
C758 C777 1.429 . S
C758 H782 0.950 . S
C759 C776 1.574 . S
C759 C778 1.368 . S
C759 H783 0.949 . S
H760 C764 0.949 . S
C761 C762 1.349 . S
C761 C763 1.327 . S
C761 H784 0.950 . S
C762 C761 1.349 . S
C762 C774 1.349 . S
C763 C761 1.327 . S
C763 C779 1.429 . S
C763 H785 0.950 . S
C764 H760 0.949 . S
C764 C772 1.574 . S
C764 C780 1.368 . S
H765 C773 0.950 . S
H766 C771 0.950 . S
H767 C772 0.949 . S
H768 C774 0.950 . S
H769 C775 0.950 . S
H770 C776 0.949 . S
C771 H766 0.950 . S
C771 C773 1.327 . S
C771 C777 1.429 . S
C772 C764 1.574 . S
C772 H767 0.949 . S
C772 C778 1.368 . S
C773 C757 1.349 . S
C773 H765 0.950 . S
C773 C771 1.327 . S
C774 C762 1.349 . S
C774 H768 0.950 . S
C774 C775 1.327 . S
C775 H769 0.950 . S
C775 C774 1.327 . S
C775 C779 1.429 . S
C776 C759 1.574 . S
C776 H770 0.949 . S
C776 C780 1.368 . S
C777 C758 1.429 . S
C777 C771 1.429 . S
C777 C778 1.523 . S
C778 C759 1.368 . S
C778 C772 1.368 . S
C778 C777 1.523 . S
C779 C763 1.429 . S
C779 C775 1.429 . S
C779 C780 1.523 . S
C780 C764 1.368 . S
C780 C776 1.368 . S
C780 C779 1.523 . S
H781 C756 0.950 . S
H782 C758 0.950 . S
H783 C759 0.949 . S
H784 C761 0.950 . S
H785 C763 0.950 . S
C786 C787 1.349 . S
C786 C788 1.327 . S
C786 H811 0.950 . S
C787 C786 1.349 . S
C787 C803 1.349 . S
C788 C786 1.327 . S
C788 C807 1.429 . S
C788 H812 0.950 . S
C789 C806 1.574 . S
C789 C808 1.368 . S
C789 H813 0.949 . S
H790 C794 0.949 . S
C791 C792 1.349 . S
C791 C793 1.327 . S
C791 H814 0.950 . S
C792 C791 1.349 . S
C792 C804 1.349 . S
C793 C791 1.327 . S
C793 C809 1.429 . S
C793 H815 0.950 . S
C794 H790 0.949 . S
C794 C802 1.574 . S
C794 C810 1.368 . S
H795 C803 0.950 . S
H796 C801 0.950 . S
H797 C802 0.949 . S
H798 C804 0.950 . S
H799 C805 0.950 . S
H800 C806 0.949 . S
C801 H796 0.950 . S
C801 C803 1.327 . S
C801 C807 1.429 . S
C802 C794 1.574 . S
C802 H797 0.949 . S
C802 C808 1.368 . S
C803 C787 1.349 . S
C803 H795 0.950 . S
C803 C801 1.327 . S
C804 C792 1.349 . S
C804 H798 0.950 . S
C804 C805 1.327 . S
C805 H799 0.950 . S
C805 C804 1.327 . S
C805 C809 1.429 . S
C806 C789 1.574 . S
C806 H800 0.949 . S
C806 C810 1.368 . S
C807 C788 1.429 . S
C807 C801 1.429 . S
C807 C808 1.523 . S
C808 C789 1.368 . S
C808 C802 1.368 . S
C808 C807 1.523 . S
C809 C793 1.429 . S
C809 C805 1.429 . S
C809 C810 1.523 . S
C810 C794 1.368 . S
C810 C806 1.368 . S
C810 C809 1.523 . S
H811 C786 0.950 . S
H812 C788 0.950 . S
H813 C789 0.949 . S
H814 C791 0.950 . S
H815 C793 0.950 . S
C816 C817 1.349 . S
C816 C818 1.327 . S
C816 H841 0.950 . S
C817 C816 1.349 . S
C817 C833 1.349 . S
C818 C816 1.327 . S
C818 C837 1.429 . S
C818 H842 0.950 . S
C819 C836 1.574 . S
C819 C838 1.368 . S
C819 H843 0.949 . S
H820 C824 0.949 . S
C821 C822 1.349 . S
C821 C823 1.327 . S
C821 H844 0.950 . S
C822 C821 1.349 . S
C822 C834 1.349 . S
C823 C821 1.327 . S
C823 C839 1.429 . S
C823 H845 0.950 . S
C824 H820 0.949 . S
C824 C832 1.574 . S
C824 C840 1.368 . S
H825 C833 0.950 . S
H826 C831 0.950 . S
H827 C832 0.949 . S
H828 C834 0.950 . S
H829 C835 0.950 . S
H830 C836 0.949 . S
C831 H826 0.950 . S
C831 C833 1.327 . S
C831 C837 1.429 . S
C832 C824 1.574 . S
C832 H827 0.949 . S
C832 C838 1.368 . S
C833 C817 1.349 . S
C833 H825 0.950 . S
C833 C831 1.327 . S
C834 C822 1.349 . S
C834 H828 0.950 . S
C834 C835 1.327 . S
C835 H829 0.950 . S
C835 C834 1.327 . S
C835 C839 1.429 . S
C836 C819 1.574 . S
C836 H830 0.949 . S
C836 C840 1.368 . S
C837 C818 1.429 . S
C837 C831 1.429 . S
C837 C838 1.523 . S
C838 C819 1.368 . S
C838 C832 1.368 . S
C838 C837 1.523 . S
C839 C823 1.429 . S
C839 C835 1.429 . S
C839 C840 1.523 . S
C840 C824 1.368 . S
C840 C836 1.368 . S
C840 C839 1.523 . S
H841 C816 0.950 . S
H842 C818 0.950 . S
H843 C819 0.949 . S
H844 C821 0.950 . S
H845 C823 0.950 . S
C846 C847 1.349 . S
C846 C848 1.327 . S
C846 H871 0.950 . S
C847 C846 1.349 . S
C847 C863 1.349 . S
C848 C846 1.327 . S
C848 C867 1.429 . S
C848 H872 0.950 . S
C849 C866 1.574 . S
C849 C868 1.368 . S
C849 H873 0.949 . S
H850 C854 0.949 . S
C851 C852 1.349 . S
C851 C853 1.327 . S
C851 H874 0.950 . S
C852 C851 1.349 . S
C852 C864 1.349 . S
C853 C851 1.327 . S
C853 C869 1.429 . S
C853 H875 0.950 . S
C854 H850 0.949 . S
C854 C862 1.574 . S
C854 C870 1.368 . S
H855 C863 0.950 . S
H856 C861 0.950 . S
H857 C862 0.949 . S
H858 C864 0.950 . S
H859 C865 0.950 . S
H860 C866 0.949 . S
C861 H856 0.950 . S
C861 C863 1.327 . S
C861 C867 1.429 . S
C862 C854 1.574 . S
C862 H857 0.949 . S
C862 C868 1.368 . S
C863 C847 1.349 . S
C863 H855 0.950 . S
C863 C861 1.327 . S
C864 C852 1.349 . S
C864 H858 0.950 . S
C864 C865 1.327 . S
C865 H859 0.950 . S
C865 C864 1.327 . S
C865 C869 1.429 . S
C866 C849 1.574 . S
C866 H860 0.949 . S
C866 C870 1.368 . S
C867 C848 1.429 . S
C867 C861 1.429 . S
C867 C868 1.523 . S
C868 C849 1.368 . S
C868 C862 1.368 . S
C868 C867 1.523 . S
C869 C853 1.429 . S
C869 C865 1.429 . S
C869 C870 1.523 . S
C870 C854 1.368 . S
C870 C866 1.368 . S
C870 C869 1.523 . S
H871 C846 0.950 . S
H872 C848 0.950 . S
H873 C849 0.949 . S
H874 C851 0.950 . S
H875 C853 0.950 . S
C157 C4 1.313 . S
C162 C153 1.313 . S
C187 C82 1.313 . S
C192 C17 1.313 . S
C217 C30 1.313 . S
C222 C95 1.313 . S
C247 C108 1.313 . S
C252 C43 1.313 . S
C277 C121 1.313 . S
C282 C62 1.313 . S
C307 C134 1.313 . S
C312 C75 1.313 . S
C337 C44 1.284 . S
C342 C109 1.284 . S
C367 C55 1.284 . S
C372 C122 1.284 . S
C397 C68 1.284 . S
C402 C135 1.284 . S
C427 C146 1.284 . S
C432 C5 1.284 . S
C457 C18 1.284 . S
C462 C83 1.284 . S
C487 C31 1.284 . S
C492 C96 1.284 . S
C517 C107 1.777 . S
C522 C3 1.777 . S
C547 C120 1.777 . S
C552 C16 1.777 . S
C577 C29 1.777 . S
C582 C133 1.777 . S
C607 C42 1.777 . S
C612 C148 1.777 . S
C637 C57 1.777 . S
C642 C81 1.777 . S
C667 C94 1.777 . S
C672 C70 1.777 . S
C697 C10 1.753 . S
C702 C140 1.753 . S
C727 C147 1.753 . S
C732 C23 1.753 . S
C757 C36 1.753 . S
C762 C88 1.753 . S
C787 C49 1.753 . S
C792 C101 1.753 . S
C817 C56 1.753 . S
C822 C114 1.753 . S
C847 C69 1.753 . S
C852 C127 1.753 . S
