# Generated by pormake.
# Topology dft, (4)-cn, num edge types: 1
# Building blocks:
#     Node 0, Type 0, BuildingBlock: TATPOV_clean_sbu_0, # of connection points: 4
#     Node 1, Type 0, BuildingBlock: TATPOV_clean_sbu_0, # of connection points: 4
#     Node 2, Type 0, BuildingBlock: TATPOV_clean_sbu_0, # of connection points: 4
#     Node 3, Type 0, BuildingBlock: TATPOV_clean_sbu_0, # of connection points: 4
#     Node 4, Type 0, BuildingBlock: TATPOV_clean_sbu_0, # of connection points: 4
#     Node 5, Type 0, BuildingBlock: TATPOV_clean_sbu_0, # of connection points: 4
#     Node 6, Type 0, BuildingBlock: TATPOV_clean_sbu_0, # of connection points: 4
#     Node 7, Type 0, BuildingBlock: TATPOV_clean_sbu_0, # of connection points: 4
#     Edge 8, Type (0, 0), BuildingBlock: FUNLAD_clean_linker_1, # of connection points: 2
#     Edge 9, Type (0, 0), BuildingBlock: FUNLAD_clean_linker_1, # of connection points: 2
#     Edge 10, Type (0, 0), BuildingBlock: FUNLAD_clean_linker_1, # of connection points: 2
#     Edge 11, Type (0, 0), BuildingBlock: FUNLAD_clean_linker_1, # of connection points: 2
#     Edge 12, Type (0, 0), BuildingBlock: FUNLAD_clean_linker_1, # of connection points: 2
#     Edge 13, Type (0, 0), BuildingBlock: FUNLAD_clean_linker_1, # of connection points: 2
#     Edge 14, Type (0, 0), BuildingBlock: FUNLAD_clean_linker_1, # of connection points: 2
#     Edge 15, Type (0, 0), BuildingBlock: FUNLAD_clean_linker_1, # of connection points: 2
#     Edge 16, Type (0, 0), BuildingBlock: FUNLAD_clean_linker_1, # of connection points: 2
#     Edge 17, Type (0, 0), BuildingBlock: FUNLAD_clean_linker_1, # of connection points: 2
#     Edge 18, Type (0, 0), BuildingBlock: FUNLAD_clean_linker_1, # of connection points: 2
#     Edge 19, Type (0, 0), BuildingBlock: FUNLAD_clean_linker_1, # of connection points: 2
#     Edge 20, Type (0, 0), BuildingBlock: FUNLAD_clean_linker_1, # of connection points: 2
#     Edge 21, Type (0, 0), BuildingBlock: FUNLAD_clean_linker_1, # of connection points: 2
#     Edge 22, Type (0, 0), BuildingBlock: FUNLAD_clean_linker_1, # of connection points: 2
#     Edge 23, Type (0, 0), BuildingBlock: FUNLAD_clean_linker_1, # of connection points: 2
# Relax obj value: 0.142
# Max RMSD: 0.143
# Mean RMSD: 0.143
data_MOF--net-dft--node1-TATPOV_clean_sbu_0--edge1-FUNLAD_clean_linker_1
_symmetry_space_group_name_H-M    P1
_symmetry_Int_Tables_number       1
_symmetry_cell_setting            triclinic
loop_
_symmetry_equiv_pos_as_xyz
'x, y, z'
_cell_length_a     35.30015
_cell_length_b     35.232125
_cell_length_c     42.716541
_cell_angle_alpha  90.012773
_cell_angle_beta   90.180094
_cell_angle_gamma 90.08847
loop_
_atom_site_label
_atom_site_type_symbol
_atom_site_fract_x
_atom_site_fract_y
_atom_site_fract_z
_atom_type_partial_charge
Zn0 Zn 0.21349 0.99141 0.12874 0.0
Zn1 Zn 0.27615 0.98686 0.16405 0.0
O2 O 0.24433 0.94278 0.18152 0.0
O3 O 0.19033 0.95102 0.15626 0.0
O4 O 0.32559 0.98494 0.18754 0.0
O5 O 0.24292 0.97665 0.09058 0.0
O6 O 0.29505 0.98026 0.11889 0.0
C7 C 0.20996 0.93344 0.1764 0.0
C8 C 0.2291 0.06015 0.16169 0.0
O9 O 0.25468 0.03972 0.17426 0.0
O10 O 0.20843 0.04687 0.14002 0.0
C11 C 0.33423 0.00528 0.21111 0.0
O12 O 0.3089 0.02816 0.22321 0.0
C13 C 0.27862 0.97547 0.09262 0.0
Zn14 Zn 0.00414 0.22065 0.63476 0.0
Zn15 Zn 0.00477 0.28452 0.66942 0.0
O16 O 0.05285 0.25647 0.68435 0.0
O17 O 0.05162 0.20362 0.65666 0.0
O18 O 0.00503 0.33299 0.69403 0.0
O19 O 0.00693 0.2528 0.59587 0.0
O20 O 0.00729 0.30479 0.62447 0.0
C21 C 0.06725 0.22454 0.67701 0.0
C22 C 0.93806 0.22847 0.67286 0.0
O23 O 0.95403 0.25928 0.68139 0.0
O24 O 0.95382 0.20673 0.65329 0.0
C25 C 0.01521 0.33689 0.72242 0.0
O26 O 0.02641 0.30724 0.73854 0.0
C27 C 0.00794 0.28866 0.59786 0.0
Zn28 Zn 0.7625 0.99733 0.15038 0.0
Zn29 Zn 0.69962 0.98828 0.18422 0.0
O30 O 0.72053 0.03892 0.20145 0.0
O31 O 0.77397 0.04467 0.17535 0.0
O32 O 0.65011 0.98056 0.2065 0.0
O33 O 0.73218 0.00071 0.1108 0.0
O34 O 0.68078 0.99004 0.13844 0.0
C35 C 0.75099 0.05699 0.19567 0.0
C36 C 0.76301 0.92869 0.18623 0.0
O37 O 0.73175 0.94162 0.19663 0.0
O38 O 0.78107 0.94644 0.1653 0.0
C39 C 0.62685 0.00798 0.20695 0.0
O40 O 0.63704 0.04086 0.19509 0.0
C41 C 0.69671 0.99577 0.11218 0.0
Zn42 Zn 0.00255 0.75933 0.67202 0.0
Zn43 Zn 0.00386 0.69406 0.70441 0.0
O44 O 0.95463 0.7196 0.71976 0.0
O45 O 0.95356 0.77309 0.69306 0.0
O46 O 0.00443 0.64373 0.72645 0.0
O47 O 0.00208 0.72987 0.63162 0.0
O48 O 0.00311 0.67658 0.65846 0.0
C49 C 0.93873 0.75097 0.71293 0.0
C50 C 0.06829 0.75208 0.71157 0.0
O51 O 0.0535 0.72017 0.71853 0.0
O52 O 0.052 0.77403 0.69231 0.0
C53 C 0.97566 0.62244 0.72281 0.0
O54 O 0.94648 0.63509 0.70683 0.0
C55 C 0.00242 0.69394 0.63238 0.0
Zn56 Zn 0.24537 0.01895 0.84465 0.0
Zn57 Zn 0.30559 0.00623 0.80769 0.0
O58 O 0.28493 0.05796 0.79231 0.0
O59 O 0.23535 0.06809 0.8224 0.0
O60 O 0.353 0.99861 0.78255 0.0
O61 O 0.27931 0.01714 0.88263 0.0
O62 O 0.32791 0.0051 0.85211 0.0
C63 C 0.25684 0.07842 0.80031 0.0
C64 C 0.23892 0.9507 0.80747 0.0
O65 O 0.27149 0.96026 0.79727 0.0
O66 O 0.22203 0.97097 0.82749 0.0
C67 C 0.3766 0.02589 0.78313 0.0
O68 O 0.36757 0.05739 0.79769 0.0
C69 C 0.31425 0.01013 0.87928 0.0
Zn70 Zn 0.0214 0.21933 0.32332 0.0
Zn71 Zn 0.00013 0.28758 0.30255 0.0
O72 O 0.95195 0.25626 0.29317 0.0
O73 O 0.97013 0.19984 0.30985 0.0
O74 O 0.98764 0.34161 0.29164 0.0
O75 O 0.02999 0.23817 0.36685 0.0
O76 O 0.01241 0.29428 0.34946 0.0
C77 C 0.94529 0.22107 0.29759 0.0
C78 C 0.06764 0.24627 0.27301 0.0
O79 O 0.04481 0.27424 0.27335 0.0
O80 O 0.06413 0.21961 0.29267 0.0
C81 C 0.96852 0.35456 0.26878 0.0
O82 O 0.95395 0.3312 0.24803 0.0
C83 C 0.0237 0.27295 0.37166 0.0
Zn84 Zn 0.7835 0.02495 0.84465 0.0
Zn85 Zn 0.71631 0.00963 0.8179 0.0
O86 O 0.74836 0.96279 0.80611 0.0
O87 O 0.80347 0.97535 0.82833 0.0
O88 O 0.66527 0.99921 0.7989 0.0
O89 O 0.75821 0.02781 0.88665 0.0
O90 O 0.70342 0.01348 0.86472 0.0
C91 C 0.78251 0.95362 0.81227 0.0
C92 C 0.76168 0.08084 0.79955 0.0
O93 O 0.73219 0.06017 0.79704 0.0
O94 O 0.78802 0.07167 0.81823 0.0
C95 C 0.6593 0.98387 0.77239 0.0
O96 O 0.68801 0.97328 0.75503 0.0
C97 C 0.7231 0.02124 0.88892 0.0
Zn98 Zn 0.99797 0.78059 0.36253 0.0
Zn99 Zn 0.98817 0.7128 0.33619 0.0
O100 O 0.03656 0.73243 0.31453 0.0
O101 O 0.04155 0.79046 0.33335 0.0
O102 O 0.98077 0.66061 0.3178 0.0
O103 O 0.00759 0.75675 0.40417 0.0
O104 O 0.99438 0.701 0.3834 0.0
C105 C 0.05337 0.76442 0.31544 0.0
C106 C 0.92642 0.77403 0.33181 0.0
O107 O 0.93972 0.74201 0.3233 0.0
O108 O 0.94502 0.79522 0.35016 0.0
C109 C 0.00828 0.63745 0.31943 0.0
O110 O 0.0403 0.64849 0.33223 0.0
C111 C 0.00303 0.72136 0.40704 0.0
H112 H 0.28407 0.96532 0.04248 0.0
C113 C 0.30035 0.97122 0.06362 0.0
H114 H 0.3539 0.9875 0.08162 0.0
H115 H 0.33691 0.93539 0.92953 0.0
H116 H 0.33657 0.87056 0.94888 0.0
H117 H 0.34526 0.85714 0.0052 0.0
H118 H 0.35397 0.909 0.04259 0.0
C119 C 0.3375 0.97915 0.06119 0.0
C120 C 0.35332 0.98423 0.02926 0.0
C121 C 0.35084 0.95396 0.00763 0.0
C122 C 0.34645 0.96178 0.97524 0.0
C123 C 0.34081 0.93109 0.95437 0.0
C124 C 0.34059 0.89375 0.9652 0.0
C125 C 0.34546 0.88618 -0.00308 0.0
C126 C 0.35032 0.91593 0.01805 0.0
H127 H 0.36762 0.9954 0.90399 0.0
C128 C 0.33868 0.00517 0.90706 0.0
H129 H 0.29601 0.02043 0.93906 0.0
H130 H 0.3715 0.0468 0.06392 0.0
H131 H 0.3787 0.11135 0.04426 0.0
H132 H 0.37137 0.1252 0.98788 0.0
H133 H 0.3568 0.07446 0.95078 0.0
C134 C 0.32463 0.00981 0.93592 0.0
C135 C 0.34557 -2e-05 0.9649 0.0
C136 C 0.35552 0.02945 0.98585 0.0
C137 C 0.35977 0.02149 0.01824 0.0
C138 C 0.36788 0.0516 0.03908 0.0
C139 C 0.37219 0.08861 0.02806 0.0
C140 C 0.36805 0.09641 -0.0037 0.0
C141 C 0.35961 0.06725 0.97532 0.0
H142 H 0.01131 0.34256 0.57109 0.0
C143 C 0.01002 0.31182 0.56917 0.0
H144 H 0.00921 0.26455 0.53877 0.0
H145 H 0.94755 0.34568 0.42034 0.0
H146 H 0.8869 0.34499 0.4473 0.0
H147 H 0.88358 0.3319 0.50401 0.0
H148 H 0.94095 0.31943 0.53413 0.0
C149 C 0.01045 0.29526 0.54092 0.0
C150 C 0.01303 0.31688 0.51134 0.0
C151 C 0.97953 0.32543 0.49453 0.0
C152 C 0.98145 0.33297 0.46192 0.0
C153 C 0.94751 0.33974 0.44519 0.0
C154 C 0.91262 0.33951 0.46039 0.0
C155 C 0.91075 0.33213 0.49234 0.0
C156 C 0.94375 0.32495 0.50932 0.0
H157 H 0.03788 0.26749 0.42129 0.0
C158 C 0.02803 0.28751 0.40366 0.0
H159 H 0.00614 0.34262 0.39572 0.0
H160 H 0.08273 0.31102 0.53884 0.0
H161 H 0.14368 0.31724 0.51269 0.0
H162 H 0.14692 0.33122 0.4561 0.0
H163 H 0.08908 0.33879 0.42526 0.0
C164 C 0.01776 0.3226 0.41251 0.0
C165 C 0.01683 0.33134 0.44652 0.0
C166 C 0.05061 0.32897 0.46434 0.0
C167 C 0.04872 0.32136 0.49688 0.0
C168 C 0.08279 0.31688 0.51397 0.0
C169 C 0.11783 0.32049 0.49927 0.0
C170 C 0.11966 0.32835 0.46739 0.0
C171 C 0.08646 0.33247 0.44997 0.0
H172 H 0.72442 0.03111 0.93942 0.0
C173 C 0.7061 0.02214 0.92023 0.0
H174 H 0.65225 -0.00052 0.90834 0.0
H175 H 0.67258 0.93147 0.04738 0.0
H176 H 0.66758 0.8738 0.01623 0.0
H177 H 0.65784 0.87714 0.95903 0.0
H178 H 0.65315 0.93827 0.9326 0.0
C179 C 0.67072 0.01045 0.92662 0.0
C180 C 0.65927 0.00796 0.95997 0.0
C181 C 0.65982 0.97223 0.97505 0.0
C182 C 0.66528 0.97034 0.00797 0.0
C183 C 0.66833 0.93436 0.02241 0.0
C184 C 0.66545 0.90114 0.00481 0.0
C185 C 0.65997 0.90302 0.97259 0.0
C186 C 0.6574 0.93813 0.95771 0.0
H187 H 0.64367 0.99066 0.08432 0.0
C188 C 0.6739 0.99636 0.08317 0.0
H189 H 0.72042 0.01007 0.05437 0.0
H190 H 0.64712 0.07974 0.93877 0.0
H191 H 0.64689 0.13753 0.97036 0.0
H192 H 0.6566 0.13443 0.0276 0.0
H193 H 0.66645 0.07361 0.05363 0.0
C194 C 0.69035 0.00356 0.05554 0.0
C195 C 0.66957 0.00426 0.0254 0.0
C196 C 0.66268 0.03967 0.01094 0.0
C197 C 0.65729 0.04151 0.97807 0.0
C198 C 0.6517 0.07723 0.96377 0.0
C199 C 0.65138 0.11037 0.9816 0.0
C200 C 0.65684 0.10862 0.01385 0.0
C201 C 0.66258 0.07371 0.02848 0.0
H202 H 0.01657 0.72437 0.45684 0.0
C203 C 0.00758 0.70497 0.4384 0.0
H204 H 0.98882 0.64903 0.42849 0.0
H205 H 0.07355 0.67581 0.56891 0.0
H206 H 0.13252 0.6723 0.53953 0.0
H207 H 0.13177 0.66098 0.48246 0.0
H208 H 0.07188 0.65333 0.45438 0.0
C209 C -0.00039 0.66881 0.44587 0.0
C210 C 0.00129 0.65796 0.47946 0.0
C211 C 0.03626 0.66035 0.49563 0.0
C212 C 0.03666 0.66653 0.52843 0.0
C213 C 0.07186 0.67107 0.5439 0.0
C214 C 0.10578 0.669 0.52735 0.0
C215 C 0.10536 0.66263 0.4952 0.0
C216 C 0.07101 0.65844 0.47937 0.0
H217 H 0.00281 0.64127 0.60383 0.0
C218 C 0.00219 0.67209 0.60289 0.0
H219 H 0.00112 0.72069 0.57402 0.0
H220 H 0.93068 0.64322 0.45632 0.0
H221 H 0.87201 0.64139 0.48623 0.0
H222 H 0.87259 0.65202 0.54338 0.0
H223 H 0.9318 0.66452 0.571 0.0
C224 C 0.00144 0.68989 0.57516 0.0
C225 C 0.00207 0.66959 0.54482 0.0
C226 C 0.96754 0.66099 0.52944 0.0
C227 C 0.96719 0.65489 0.49656 0.0
C228 C 0.93225 0.64809 0.48131 0.0
C229 C 0.89854 0.64689 0.4982 0.0
C230 C 0.89886 0.65288 0.53039 0.0
C231 C 0.9329 0.66008 0.54595 0.0
H232 H 0.3819 0.03114 0.23707 0.0
C233 C 0.37413 0.00834 0.22113 0.0
H234 H 0.39373 0.96485 0.1914 0.0
H235 H 0.54668 0.04308 0.15639 0.0
H236 H 0.51086 0.04974 0.10829 0.0
H237 H 0.44292 0.03337 0.10627 0.0
H238 H 0.41057 0.00997 0.15226 0.0
C239 C 0.40129 0.98689 0.20811 0.0
C240 C 0.44189 0.99778 0.21032 0.0
C241 C 0.46026 0.01198 0.18325 0.0
C242 C 0.49918 0.02213 0.18458 0.0
C243 C 0.51699 0.0355 0.15696 0.0
C244 C 0.49678 0.0394 0.1291 0.0
C245 C 0.45857 0.03013 0.12794 0.0
C246 C 0.44038 0.0166 0.15458 0.0
H247 H 0.57862 0.97176 0.22061 0.0
C248 C 0.58708 0.0008 0.21554 0.0
H249 H 0.5687 0.05689 0.20744 0.0
H250 H 0.4157 0.96965 0.26593 0.0
H251 H 0.45098 0.96498 0.31466 0.0
H252 H 0.5177 0.98569 0.31766 0.0
H253 H 0.5497 0.01076 0.27185 0.0
C254 C 0.56063 0.02806 0.21358 0.0
C255 C 0.51963 0.01834 0.21305 0.0
C256 C 0.50111 0.00479 0.24027 0.0
C257 C 0.46227 0.994 0.2388 0.0
C258 C 0.44483 0.9792 0.26598 0.0
C259 C 0.46481 0.97622 0.29406 0.0
C260 C 0.50241 0.98779 0.29573 0.0
C261 C 0.52049 0.00195 0.26923 0.0
H262 H 0.02712 0.37816 0.7604 0.0
C263 C 0.01637 0.37504 0.73667 0.0
H264 H 0.9961 0.40297 0.69624 0.0
H265 H 0.95925 0.54524 0.78801 0.0
H266 H 0.91207 0.50444 0.81229 0.0
H267 H 0.9093 0.43608 0.79984 0.0
H268 H 0.95389 0.40799 0.76342 0.0
C269 C 0.00573 0.4058 0.72032 0.0
C270 C 0.01074 0.445 0.73232 0.0
C271 C 0.98435 0.46078 0.75355 0.0
C272 C 0.98523 0.50035 0.76004 0.0
C273 C 0.95898 0.51551 0.78164 0.0
C274 C 0.93198 0.49239 0.79584 0.0
C275 C 0.93047 0.45387 0.78887 0.0
C276 C 0.95624 0.4381 0.76794 0.0
H277 H 0.95383 0.56409 0.72339 0.0
C278 C 0.97702 0.58202 0.7314 0.0
H279 H 0.0312 0.58352 0.75237 0.0
H280 H 0.06892 0.42228 0.69463 0.0
H281 H 0.11698 0.46271 0.67143 0.0
H282 H 0.11754 0.53167 0.68147 0.0
H283 H 0.0703 0.56056 0.71482 0.0
C284 C 0.00737 0.56604 0.74509 0.0
C285 C 0.0118 0.52404 0.74463 0.0
C286 C 0.04021 0.50767 0.72553 0.0
C287 C 0.03964 0.46804 0.71939 0.0
C288 C 0.06782 0.45235 0.69974 0.0
C289 C 0.09563 0.47519 0.68635 0.0
C290 C 0.09596 0.514 0.69204 0.0
C291 C 0.06861 0.53023 0.71128 0.0
H292 H 0.61561 0.9643 0.73865 0.0
C293 C 0.62016 0.97806 0.76112 0.0
H294 H 0.59473 0.00235 0.80103 0.0
H295 H 0.44709 0.0267 0.71184 0.0
H296 H 0.48632 0.069 0.68064 0.0
H297 H 0.5553 0.07291 0.68972 0.0
H298 H 0.58554 0.03426 0.72956 0.0
C299 C 0.59039 0.98959 0.77812 0.0
C300 C 0.55054 0.98303 0.7683 0.0
C301 C 0.53352 0.00608 0.74499 0.0
C302 C 0.49363 0.00481 0.74045 0.0
C303 C 0.47717 0.02757 0.71677 0.0
C304 C 0.49937 0.05174 0.69864 0.0
C305 C 0.53822 0.05386 0.70371 0.0
C306 C 0.55525 0.03145 0.72664 0.0
H307 H 0.43546 0.04411 0.77675 0.0
C308 C 0.41586 0.02082 0.77246 0.0
H309 H 0.41021 0.9637 0.75824 0.0
H310 H 0.57533 0.93068 0.81085 0.0
H311 H 0.53623 0.88733 0.84098 0.0
H312 H 0.46678 0.88652 0.83428 0.0
H313 H 0.43606 0.92876 0.79739 0.0
C314 C 0.42919 0.98767 0.76157 0.0
C315 C 0.47087 0.98155 0.75989 0.0
C316 C 0.48828 0.95597 0.78111 0.0
C317 C 0.52822 0.95675 0.78529 0.0
C318 C 0.545 0.93154 0.8071 0.0
C319 C 0.52293 0.90645 0.82445 0.0
C320 C 0.48384 0.90597 0.82066 0.0
C321 C 0.46655 0.93044 0.79936 0.0
H322 H 0.94663 0.40668 0.24592 0.0
C323 C 0.9627 0.39592 0.26575 0.0
H324 H 0.9919 0.40949 0.30753 0.0
H325 H 0.0098 0.5778 0.2457 0.0
H326 H 0.0492 0.54756 0.20642 0.0
H327 H 0.05364 0.47777 0.20337 0.0
H328 H 0.01838 0.43782 0.23919 0.0
C329 C 0.97687 0.42016 0.28712 0.0
C330 C 0.97064 0.46182 0.28566 0.0
C331 C 0.99177 0.48464 0.26466 0.0
C332 C 0.99019 0.52488 0.26705 0.0
C333 C 0.01094 0.54711 0.24546 0.0
C334 C 0.03347 0.53012 0.22271 0.0
C335 C 0.03589 0.49083 0.22095 0.0
C336 C 0.01542 0.4682 0.24164 0.0
H337 H 0.02866 0.57923 0.31182 0.0
C338 C 0.00434 0.59782 0.30886 0.0
H339 H 0.94682 0.60127 0.29527 0.0
H340 H 0.92336 0.42629 0.32694 0.0
H341 H 0.88352 0.45661 0.36582 0.0
H342 H 0.88193 0.52636 0.3708 0.0
H343 H 0.92005 0.56622 0.33693 0.0
C344 C 0.97185 0.58353 0.29734 0.0
C345 C 0.96836 0.54211 0.29096 0.0
C346 C 0.94538 0.51935 0.31061 0.0
C347 C 0.94658 0.47914 0.30797 0.0
C348 C 0.92382 0.45697 0.32821 0.0
C349 C 0.90075 0.474 0.35056 0.0
C350 C 0.89983 0.51327 0.35334 0.0
C351 C 0.92187 0.53582 0.33373 0.0
H352 H 0.09341 0.2608 0.22725 0.0
C353 C 0.09543 0.24221 0.24748 0.0
H354 H 0.1217 0.19413 0.2675 0.0
H355 H 0.13351 0.11573 0.13485 0.0
H356 H 0.06512 0.11595 0.13471 0.0
H357 H 0.02954 0.15424 0.17291 0.0
H358 H 0.06227 0.19258 0.21133 0.0
C359 C 0.11917 0.21243 0.24713 0.0
C360 C 0.13938 0.19956 0.21867 0.0
C361 C 0.1196 0.17805 0.19576 0.0
C362 C 0.14015 0.15578 0.17386 0.0
C363 C 0.11967 0.13335 0.15202 0.0
C364 C 0.08023 0.13314 0.15166 0.0
C365 C 0.0602 0.1547 0.17315 0.0
C366 C 0.07947 0.17671 0.1951 0.0
H367 H 0.22629 0.10195 0.1998 0.0
C368 C 0.22022 0.09754 0.17509 0.0
H369 H 0.19542 0.11925 0.13406 0.0
H370 H 0.18501 0.24311 0.2557 0.0
H371 H 0.25388 0.2466 0.25355 0.0
H372 H 0.28951 0.20929 0.21459 0.0
H373 H 0.25655 0.16789 0.17781 0.0
C374 C 0.20088 0.12384 0.1588 0.0
C375 C 0.18033 0.15479 0.17534 0.0
C376 C 0.19988 0.17997 0.19564 0.0
C377 C 0.17934 0.20202 0.21763 0.0
C378 C 0.19948 0.22576 0.23859 0.0
C379 C 0.23887 0.22813 0.23747 0.0
C380 C 0.25895 0.20709 0.21555 0.0
C381 C 0.2398 0.18327 0.19477 0.0
H382 H 0.89638 0.18531 0.68526 0.0
C383 C 0.90268 0.21544 0.68734 0.0
H384 H 0.88542 0.26795 0.7061 0.0
H385 H 0.77107 0.11314 0.72004 0.0
H386 H 0.76432 0.11569 0.66375 0.0
H387 H 0.79312 0.16776 0.63332 0.0
H388 H 0.83022 0.217 0.65943 0.0
C389 C 0.87914 0.23793 0.70363 0.0
C390 C 0.84731 0.22036 0.72147 0.0
C391 C 0.82279 0.19408 0.70648 0.0
C392 C 0.80431 0.1655 0.72429 0.0
C393 C 0.78418 0.13669 0.70814 0.0
C394 C 0.78024 0.13769 0.67566 0.0
C395 C 0.79655 0.16692 0.65851 0.0
C396 C 0.81779 0.1948 0.67363 0.0
H397 H 0.74128 0.127 0.76837 0.0
C398 C 0.76595 0.11521 0.7801 0.0
H399 H 0.82461 0.11911 0.78849 0.0
H400 H 0.88209 0.27454 0.75767 0.0
H401 H 0.88119 0.27828 0.81437 0.0
H402 H 0.84567 0.23132 0.84558 0.0
H403 H 0.81114 0.18 0.82012 0.0
C404 C 0.80033 0.13091 0.77617 0.0
C405 C 0.80805 0.16558 0.75739 0.0
C406 C 0.82643 0.19644 0.77243 0.0
C407 C 0.8464 0.22381 0.75445 0.0
C408 C 0.86641 0.25301 0.77017 0.0
C409 C 0.866 0.25557 0.80273 0.0
C410 C 0.84601 0.22913 0.8203 0.0
C411 C 0.82649 0.19978 0.80546 0.0
H412 H 0.87941 0.81441 0.32946 0.0
C413 C 0.8913 0.78938 0.31827 0.0
H414 H 0.89021 0.755 0.27761 0.0
H415 H 0.72961 0.82386 0.23539 0.0
H416 H 0.71069 0.75951 0.24877 0.0
H417 H 0.75592 0.71538 0.27361 0.0
H418 H 0.82055 0.73516 0.28497 0.0
C419 C 0.87839 0.77924 0.28988 0.0
C420 C 0.85159 0.80463 0.2729 0.0
C421 C 0.81399 0.79273 0.26662 0.0
C422 C 0.7878 0.81833 0.25255 0.0
C423 C 0.75053 0.8056 0.24618 0.0
C424 C 0.73933 0.76878 0.25375 0.0
C425 C 0.76481 0.74392 0.26775 0.0
C426 C 0.80176 0.75561 0.27418 0.0
H427 H 0.8058 0.88373 0.18813 0.0
C428 C 0.78103 0.89497 0.20004 0.0
H429 H 0.74846 0.89305 0.24154 0.0
H430 H 0.9236 0.83433 0.27559 0.0
H431 H 0.94166 0.89942 0.26512 0.0
H432 H 0.89417 0.94626 0.24772 0.0
H433 H 0.82878 0.92783 0.23964 0.0
C434 C 0.77271 0.88214 0.2288 0.0
C435 C 0.79924 0.85581 0.24509 0.0
C436 C 0.83672 0.86794 0.25205 0.0
C437 C 0.86337 0.8418 0.26447 0.0
C438 C 0.90155 0.85362 0.26813 0.0
C439 C 0.91244 0.89086 0.26191 0.0
C440 C 0.88577 0.91714 0.25195 0.0
C441 C 0.84835 0.90602 0.24708 0.0
H442 H 0.1207 0.74337 0.73947 0.0
C443 C 0.10421 0.76407 0.72643 0.0
H444 H 0.09946 0.82081 0.71134 0.0
H445 H 0.21811 0.84954 0.82829 0.0
H446 H 0.17372 0.81673 0.86236 0.0
H447 H 0.11742 0.7846 0.84044 0.0
H448 H 0.10584 0.78391 0.78465 0.0
C449 C 0.1158 0.80041 0.72486 0.0
C450 C 0.15168 0.81477 0.73899 0.0
C451 C 0.15686 0.81591 0.77196 0.0
C452 C 0.18787 0.83654 0.78485 0.0
C453 C 0.19388 0.83575 0.81761 0.0
C454 C 0.16882 0.81687 0.83733 0.0
C455 C 0.13723 0.79865 0.82497 0.0
C456 C 0.13107 0.79823 0.79273 0.0
H457 H 0.18877 0.91516 0.80039 0.0
C458 C 0.2189 0.91713 0.79531 0.0
H459 H 0.26537 0.89119 0.77291 0.0
H460 H 0.15442 0.8117 0.67507 0.0
H461 H 0.19941 0.8442 0.64151 0.0
H462 H 0.25039 0.88368 0.66411 0.0
H463 H 0.257 0.89055 0.72033 0.0
C464 C 0.23542 0.88954 0.7785 0.0
C465 C 0.21164 0.8584 0.76507 0.0
C466 C 0.2086 0.85438 0.73219 0.0
C467 C 0.17875 0.83224 0.71916 0.0
C468 C 0.17612 0.82882 0.68618 0.0
C469 C 0.20184 0.84717 0.66666 0.0
C470 C 0.23056 0.86936 0.67939 0.0
C471 C 0.234 0.87311 0.71174 0.0
H472 H 0.8299 0.91573 0.80221 0.0
C473 C 0.79932 0.91853 0.79997 0.0
H474 H 0.749 0.89304 0.78314 0.0
H475 H 0.84642 0.80628 0.68013 0.0
H476 H 0.79787 0.83738 0.64892 0.0
H477 H 0.74987 0.87817 0.67385 0.0
H478 H 0.74982 0.8878 0.7301 0.0
C479 C 0.77946 0.89058 0.78612 0.0
C480 C 0.80016 0.85778 0.77222 0.0
C481 C 0.79922 0.852 0.73946 0.0
C482 C 0.82729 0.82904 0.72505 0.0
C483 C 0.82614 0.82404 0.69217 0.0
C484 C 0.79836 0.84157 0.67402 0.0
C485 C 0.77131 0.86451 0.68806 0.0
C486 C 0.77166 0.86987 0.72038 0.0
H487 H 0.88857 0.74161 0.74318 0.0
C488 C 0.9035 0.76233 0.72894 0.0
H489 H 0.90566 0.81868 0.71252 0.0
H490 H 0.80063 0.85208 0.83581 0.0
H491 H 0.84814 0.82015 0.86771 0.0
H492 H 0.9013 0.78618 0.84297 0.0
H493 H 0.90667 0.7828 0.78668 0.0
C494 C 0.89098 0.7983 0.72727 0.0
C495 C 0.85646 0.81244 0.7434 0.0
C496 C 0.85488 0.81491 0.77656 0.0
C497 C 0.82567 0.83646 0.79092 0.0
C498 C 0.82335 0.83735 0.82397 0.0
C499 C 0.85023 0.81904 0.84245 0.0
C500 C 0.88006 0.79979 0.82851 0.0
C501 C 0.88263 0.79783 0.796 0.0
H502 H 0.16058 0.90223 0.19352 0.0
C503 C 0.19135 0.90342 0.19467 0.0
H504 H 0.24073 0.87925 0.21422 0.0
H505 H 0.14748 0.82469 0.33322 0.0
H506 H 0.19968 0.85988 0.35644 0.0
H507 H 0.24713 0.89165 0.32317 0.0
H508 H 0.24297 0.88806 0.26659 0.0
C509 C 0.21004 0.87823 0.21256 0.0
C510 C 0.18821 0.85121 0.23248 0.0
C511 C 0.19149 0.85328 0.26547 0.0
C512 C 0.16372 0.83561 0.28462 0.0
C513 C 0.1674 0.83825 0.31758 0.0
C514 C 0.1973 0.8582 0.3312 0.0
C515 C 0.22403 0.87605 0.31247 0.0
C516 C 0.22126 0.87381 0.27998 0.0
H517 H 0.09948 0.74785 0.28307 0.0
C518 C 0.08637 0.77158 0.29514 0.0
H519 H 0.08648 0.83058 0.30324 0.0
H520 H 0.1821 0.8307 0.1711 0.0
H521 H 0.13047 0.79491 0.14736 0.0
H522 H 0.07791 0.77061 0.17965 0.0
H523 H 0.07721 0.7807 0.23561 0.0
C524 C 0.09931 0.80707 0.29067 0.0
C525 C 0.13248 0.81653 0.27073 0.0
C526 C 0.13125 0.8114 0.23777 0.0
C527 C 0.16014 0.82753 0.21882 0.0
C528 C 0.15972 0.82049 0.1862 0.0
C529 C 0.13046 0.79985 0.17237 0.0
C530 C 0.10098 0.78604 0.19058 0.0
C531 C 0.1011 0.79181 0.22286 0.0
H532 H 0.10611 0.17948 0.69113 0.0
C533 C 0.10096 0.20981 0.69315 0.0
H534 H 0.12003 0.26158 0.71248 0.0
H535 H 0.19683 0.17283 0.82567 0.0
H536 H 0.16028 0.2217 0.85194 0.0
H537 H 0.12139 0.26685 0.82162 0.0
H538 H 0.11923 0.26381 0.76494 0.0
C539 C 0.12497 0.23131 0.71004 0.0
C540 C 0.15642 0.21269 0.72772 0.0
C541 C 0.15765 0.21534 0.76076 0.0
C542 C 0.1794 0.18878 0.77824 0.0
C543 C 0.18008 0.19181 0.8113 0.0
C544 C 0.1594 0.2198 0.82665 0.0
C545 C 0.13753 0.24524 0.80958 0.0
C546 C 0.13647 0.24312 0.77702 0.0
H547 H 0.26959 0.12653 0.76853 0.0
C548 C 0.24766 0.11307 0.78247 0.0
H549 H 0.19028 0.11222 0.79567 0.0
H550 H 0.17204 0.21061 0.66536 0.0
H551 H 0.20891 0.16241 0.63829 0.0
H552 H 0.23916 0.11034 0.66775 0.0
H553 H 0.23423 0.10694 0.724 0.0
C554 C 0.21184 0.12594 0.78146 0.0
C555 C 0.19906 0.15918 0.76269 0.0
C556 C 0.20097 0.15909 0.72945 0.0
C557 C 0.18111 0.18725 0.71215 0.0
C558 C 0.18515 0.18849 0.67922 0.0
C559 C 0.20631 0.16121 0.66351 0.0
C560 C 0.22349 0.13203 0.68012 0.0
C561 C 0.22074 0.13067 0.71265 0.0
H562 H 0.9088 0.1723 0.28806 0.0
C563 C 0.9099 0.20314 0.28689 0.0
H564 H 0.88119 0.25268 0.27242 0.0
H565 H 0.79858 0.15491 0.16686 0.0
H566 H 0.82513 0.20759 0.13742 0.0
H567 H 0.86265 0.25732 0.16393 0.0
H568 H 0.87351 0.25496 0.22 0.0
C569 C 0.88034 0.22198 0.27457 0.0
C570 C 0.84853 0.1999 0.26028 0.0
C571 C 0.84187 0.20228 0.22765 0.0
C572 C 0.82081 0.17327 0.2123 0.0
C573 C 0.81499 0.17588 0.17956 0.0
C574 C 0.82992 0.20601 0.16243 0.0
C575 C 0.85101 0.23403 0.17736 0.0
C576 C 0.85711 0.23228 0.20957 0.0
H577 H 0.73869 0.10455 0.22815 0.0
C578 C 0.76019 0.09193 0.21328 0.0
H579 H 0.81627 0.0948 0.19671 0.0
H580 H 0.84464 0.19516 0.3238 0.0
H581 H 0.81705 0.14344 0.35396 0.0
H582 H 0.7863 0.08936 0.32732 0.0
H583 H 0.78184 0.08709 0.27088 0.0
C584 C 0.79513 0.10712 0.21211 0.0
C585 C 0.8069 0.1418 0.22954 0.0
C586 C 0.80998 0.14171 0.2627 0.0
C587 C 0.82965 0.17168 0.27807 0.0
C588 C 0.83127 0.17209 0.31116 0.0
C589 C 0.81543 0.14278 0.32865 0.0
C590 C 0.79799 0.11242 0.31365 0.0
C591 C 0.79539 0.11162 0.28109 0.0
loop_
_geom_bond_atom_site_label_1
_geom_bond_atom_site_label_2
_geom_bond_distance
_geom_bond_site_symmetry_2
_ccdc_geom_bond_type
Zn0 O3 2.031 . S
Zn0 O5 2.049 1_565 S
Zn0 O10 2.067 1_565 S
Zn1 O2 1.962 . S
Zn1 O4 1.986 . S
Zn1 O6 1.996 . S
Zn1 O9 1.943 1_565 S
O2 Zn1 1.962 . S
O2 C7 1.254 . S
O3 Zn0 2.031 . S
O3 C7 1.269 . S
O4 Zn1 1.986 . S
O4 C11 1.262 . S
O5 Zn0 2.049 1_545 S
O5 C13 1.260 . S
O6 Zn1 1.996 . S
O6 C13 1.257 1_565 S
C7 O2 1.254 . S
C7 O3 1.269 . S
C8 O9 1.249 . S
C8 O10 1.270 . S
O9 Zn1 1.943 1_545 S
O9 C8 1.249 . S
O10 Zn0 2.067 1_545 S
O10 C8 1.270 . S
C11 O4 1.262 . S
C11 O12 1.232 . S
O12 C11 1.232 . S
C13 O5 1.260 . S
C13 O6 1.257 1_545 S
Zn14 O17 2.031 . S
Zn14 O19 2.049 1_455 S
Zn14 O24 2.067 1_455 S
Zn15 O16 1.962 . S
Zn15 O18 1.986 . S
Zn15 O20 1.996 . S
Zn15 O23 1.943 1_455 S
O16 Zn15 1.962 . S
O16 C21 1.254 . S
O17 Zn14 2.031 . S
O17 C21 1.269 . S
O18 Zn15 1.986 . S
O18 C25 1.262 . S
O19 Zn14 2.049 1_655 S
O19 C27 1.260 . S
O20 Zn15 1.996 . S
O20 C27 1.257 1_455 S
C21 O16 1.254 . S
C21 O17 1.269 . S
C22 O23 1.249 . S
C22 O24 1.270 . S
O23 Zn15 1.943 1_655 S
O23 C22 1.249 . S
O24 Zn14 2.067 1_655 S
O24 C22 1.270 . S
C25 O18 1.262 . S
C25 O26 1.232 . S
O26 C25 1.232 . S
C27 O19 1.260 . S
C27 O20 1.257 1_655 S
Zn28 O31 2.031 . S
Zn28 O33 2.049 1_545 S
Zn28 O38 2.067 1_545 S
Zn29 O30 1.962 . S
Zn29 O32 1.986 . S
Zn29 O34 1.996 . S
Zn29 O37 1.943 1_545 S
O30 Zn29 1.962 . S
O30 C35 1.254 . S
O31 Zn28 2.031 . S
O31 C35 1.269 . S
O32 Zn29 1.986 . S
O32 C39 1.262 . S
O33 Zn28 2.049 1_565 S
O33 C41 1.260 . S
O34 Zn29 1.996 . S
O34 C41 1.257 1_545 S
C35 O30 1.254 . S
C35 O31 1.269 . S
C36 O37 1.249 . S
C36 O38 1.270 . S
O37 Zn29 1.943 1_565 S
O37 C36 1.249 . S
O38 Zn28 2.067 1_565 S
O38 C36 1.270 . S
C39 O32 1.262 . S
C39 O40 1.232 . S
O40 C39 1.232 . S
C41 O33 1.260 . S
C41 O34 1.257 1_565 S
Zn42 O45 2.031 . S
Zn42 O47 2.049 1_655 S
Zn42 O52 2.067 1_655 S
Zn43 O44 1.962 . S
Zn43 O46 1.986 . S
Zn43 O48 1.996 . S
Zn43 O51 1.943 1_655 S
O44 Zn43 1.962 . S
O44 C49 1.254 . S
O45 Zn42 2.031 . S
O45 C49 1.269 . S
O46 Zn43 1.986 . S
O46 C53 1.262 . S
O47 Zn42 2.049 1_455 S
O47 C55 1.260 . S
O48 Zn43 1.996 . S
O48 C55 1.257 1_655 S
C49 O44 1.254 . S
C49 O45 1.269 . S
C50 O51 1.249 . S
C50 O52 1.270 . S
O51 Zn43 1.943 1_455 S
O51 C50 1.249 . S
O52 Zn42 2.067 1_455 S
O52 C50 1.270 . S
C53 O46 1.262 . S
C53 O54 1.232 . S
O54 C53 1.232 . S
C55 O47 1.260 . S
C55 O48 1.257 1_455 S
Zn56 O59 2.031 . S
Zn56 O61 2.049 1_545 S
Zn56 O66 2.067 1_545 S
Zn57 O58 1.962 . S
Zn57 O60 1.986 . S
Zn57 O62 1.996 . S
Zn57 O65 1.943 1_545 S
O58 Zn57 1.962 . S
O58 C63 1.254 . S
O59 Zn56 2.031 . S
O59 C63 1.269 . S
O60 Zn57 1.986 . S
O60 C67 1.262 . S
O61 Zn56 2.049 1_565 S
O61 C69 1.260 . S
O62 Zn57 1.996 . S
O62 C69 1.257 1_545 S
C63 O58 1.254 . S
C63 O59 1.269 . S
C64 O65 1.249 . S
C64 O66 1.270 . S
O65 Zn57 1.943 1_565 S
O65 C64 1.249 . S
O66 Zn56 2.067 1_565 S
O66 C64 1.270 . S
C67 O60 1.262 . S
C67 O68 1.232 . S
O68 C67 1.232 . S
C69 O61 1.260 . S
C69 O62 1.257 1_565 S
Zn70 O73 2.031 . S
Zn70 O75 2.049 1_655 S
Zn70 O80 2.067 1_655 S
Zn71 O72 1.962 . S
Zn71 O74 1.986 . S
Zn71 O76 1.996 . S
Zn71 O79 1.943 1_655 S
O72 Zn71 1.962 . S
O72 C77 1.254 . S
O73 Zn70 2.031 . S
O73 C77 1.269 . S
O74 Zn71 1.986 . S
O74 C81 1.262 . S
O75 Zn70 2.049 1_455 S
O75 C83 1.260 . S
O76 Zn71 1.996 . S
O76 C83 1.257 1_655 S
C77 O72 1.254 . S
C77 O73 1.269 . S
C78 O79 1.249 . S
C78 O80 1.270 . S
O79 Zn71 1.943 1_455 S
O79 C78 1.249 . S
O80 Zn70 2.067 1_455 S
O80 C78 1.270 . S
C81 O74 1.262 . S
C81 O82 1.232 . S
O82 C81 1.232 . S
C83 O75 1.260 . S
C83 O76 1.257 1_455 S
Zn84 O87 2.031 . S
Zn84 O89 2.049 1_565 S
Zn84 O94 2.067 1_565 S
Zn85 O86 1.962 . S
Zn85 O88 1.986 . S
Zn85 O90 1.996 . S
Zn85 O93 1.943 1_565 S
O86 Zn85 1.962 . S
O86 C91 1.254 . S
O87 Zn84 2.031 . S
O87 C91 1.269 . S
O88 Zn85 1.986 . S
O88 C95 1.262 . S
O89 Zn84 2.049 1_545 S
O89 C97 1.260 . S
O90 Zn85 1.996 . S
O90 C97 1.257 1_565 S
C91 O86 1.254 . S
C91 O87 1.269 . S
C92 O93 1.249 . S
C92 O94 1.270 . S
O93 Zn85 1.943 1_545 S
O93 C92 1.249 . S
O94 Zn84 2.067 1_545 S
O94 C92 1.270 . S
C95 O88 1.262 . S
C95 O96 1.232 . S
O96 C95 1.232 . S
C97 O89 1.260 . S
C97 O90 1.257 1_545 S
Zn98 O101 2.031 . S
Zn98 O103 2.049 1_455 S
Zn98 O108 2.067 1_455 S
Zn99 O100 1.962 . S
Zn99 O102 1.986 . S
Zn99 O104 1.996 . S
Zn99 O107 1.943 1_455 S
O100 Zn99 1.962 . S
O100 C105 1.254 . S
O101 Zn98 2.031 . S
O101 C105 1.269 . S
O102 Zn99 1.986 . S
O102 C109 1.262 . S
O103 Zn98 2.049 1_655 S
O103 C111 1.260 . S
O104 Zn99 1.996 . S
O104 C111 1.257 1_455 S
C105 O100 1.254 . S
C105 O101 1.269 . S
C106 O107 1.249 . S
C106 O108 1.270 . S
O107 Zn99 1.943 1_655 S
O107 C106 1.249 . S
O108 Zn98 2.067 1_655 S
O108 C106 1.270 . S
C109 O102 1.262 . S
C109 O110 1.232 . S
O110 C109 1.232 . S
C111 O103 1.260 . S
C111 O104 1.257 1_655 S
H112 C113 0.951 . S
C113 H112 0.951 . S
C113 C119 1.265 . S
H114 C119 0.950 1_565 S
H115 C123 0.949 . S
H116 C124 0.950 . S
H117 C125 0.951 . S
H118 C126 0.951 . S
C119 C113 1.265 . S
C119 H114 0.950 1_545 S
C119 C120 1.478 . S
C120 C119 1.478 . S
C120 C121 1.397 1_545 S
C120 C137 1.394 . S
C121 C120 1.397 1_565 S
C121 C122 1.438 1_554 S
C121 C126 1.429 . S
C122 C121 1.438 1_556 S
C122 C123 1.428 . S
C122 C135 1.394 1_565 S
C123 H115 0.949 . S
C123 C122 1.428 . S
C123 C124 1.345 . S
C124 H116 0.950 . S
C124 C123 1.345 . S
C124 C125 1.424 1_556 S
C125 H117 0.951 . S
C125 C124 1.424 1_554 S
C125 C126 1.347 . S
C126 H118 0.951 . S
C126 C121 1.429 . S
C126 C125 1.347 . S
H127 C128 0.951 . S
C128 H127 0.951 . S
C128 C134 1.265 1_565 S
H129 C134 0.950 . S
H130 C138 0.949 . S
H131 C139 0.950 . S
H132 C140 0.951 . S
H133 C141 0.951 . S
C134 C128 1.265 1_545 S
C134 H129 0.950 . S
C134 C135 1.478 . S
C135 C122 1.394 1_545 S
C135 C134 1.478 . S
C135 C136 1.397 . S
C136 C135 1.397 . S
C136 C137 1.438 1_556 S
C136 C141 1.429 . S
C137 C120 1.394 . S
C137 C136 1.438 1_554 S
C137 C138 1.428 . S
C138 H130 0.949 . S
C138 C137 1.428 . S
C138 C139 1.345 . S
C139 H131 0.950 . S
C139 C138 1.345 . S
C139 C140 1.424 1_554 S
C140 H132 0.951 . S
C140 C139 1.424 1_556 S
C140 C141 1.347 . S
C141 H133 0.951 . S
C141 C136 1.429 . S
C141 C140 1.347 . S
H142 C143 0.951 . S
C143 H142 0.951 . S
C143 C149 1.265 1_455 S
H144 C149 0.950 . S
H145 C153 0.950 . S
H146 C154 0.950 . S
H147 C155 0.951 . S
H148 C156 0.951 . S
C149 C143 1.265 1_655 S
C149 H144 0.950 . S
C149 C150 1.478 . S
C150 C149 1.478 . S
C150 C151 1.397 . S
C150 C167 1.394 1_655 S
C151 C150 1.397 . S
C151 C152 1.438 . S
C151 C156 1.429 . S
C152 C151 1.438 . S
C152 C153 1.428 . S
C152 C165 1.394 1_655 S
C153 H145 0.950 . S
C153 C152 1.428 . S
C153 C154 1.345 . S
C154 H146 0.950 . S
C154 C153 1.345 . S
C154 C155 1.424 . S
C155 H147 0.951 . S
C155 C154 1.424 . S
C155 C156 1.347 . S
C156 H148 0.951 . S
C156 C151 1.429 . S
C156 C155 1.347 . S
H157 C158 0.951 1_655 S
C158 H157 0.951 1_455 S
C158 C164 1.265 . S
H159 C164 0.950 . S
H160 C168 0.949 . S
H161 C169 0.950 . S
H162 C170 0.951 . S
H163 C171 0.951 . S
C164 C158 1.265 . S
C164 H159 0.950 . S
C164 C165 1.478 . S
C165 C152 1.394 1_455 S
C165 C164 1.478 . S
C165 C166 1.397 . S
C166 C165 1.397 . S
C166 C167 1.438 . S
C166 C171 1.429 . S
C167 C150 1.394 1_455 S
C167 C166 1.438 . S
C167 C168 1.428 . S
C168 H160 0.949 . S
C168 C167 1.428 . S
C168 C169 1.345 . S
C169 H161 0.950 . S
C169 C168 1.345 . S
C169 C170 1.424 . S
C170 H162 0.951 . S
C170 C169 1.424 . S
C170 C171 1.347 . S
C171 H163 0.951 . S
C171 C166 1.429 . S
C171 C170 1.347 . S
H172 C173 0.951 . S
C173 H172 0.951 . S
C173 C179 1.265 . S
H174 C179 0.950 1_565 S
H175 C183 0.949 . S
H176 C184 0.950 . S
H177 C185 0.951 . S
H178 C186 0.951 . S
C179 C173 1.265 . S
C179 H174 0.950 1_545 S
C179 C180 1.478 . S
C180 C179 1.478 . S
C180 C181 1.397 1_545 S
C180 C197 1.394 . S
C181 C180 1.397 1_565 S
C181 C182 1.438 1_556 S
C181 C186 1.429 . S
C182 C181 1.438 1_554 S
C182 C183 1.428 . S
C182 C195 1.394 1_565 S
C183 H175 0.949 . S
C183 C182 1.428 . S
C183 C184 1.345 . S
C184 H176 0.950 . S
C184 C183 1.345 . S
C184 C185 1.424 1_554 S
C185 H177 0.951 . S
C185 C184 1.424 1_556 S
C185 C186 1.347 . S
C186 H178 0.951 . S
C186 C181 1.429 . S
C186 C185 1.347 . S
H187 C188 0.951 . S
C188 H187 0.951 . S
C188 C194 1.265 1_565 S
H189 C194 0.950 . S
H190 C198 0.949 . S
H191 C199 0.950 . S
H192 C200 0.951 . S
H193 C201 0.951 . S
C194 C188 1.265 1_545 S
C194 H189 0.950 . S
C194 C195 1.478 . S
C195 C182 1.394 1_545 S
C195 C194 1.478 . S
C195 C196 1.397 . S
C196 C195 1.397 . S
C196 C197 1.438 1_554 S
C196 C201 1.429 . S
C197 C180 1.394 . S
C197 C196 1.438 1_556 S
C197 C198 1.428 . S
C198 H190 0.949 . S
C198 C197 1.428 . S
C198 C199 1.345 . S
C199 H191 0.950 . S
C199 C198 1.345 . S
C199 C200 1.424 1_556 S
C200 H192 0.951 . S
C200 C199 1.424 1_554 S
C200 C201 1.347 . S
C201 H193 0.951 . S
C201 C196 1.429 . S
C201 C200 1.347 . S
H202 C203 0.951 . S
C203 H202 0.951 . S
C203 C209 1.265 1_655 S
H204 C209 0.950 . S
H205 C213 0.949 . S
H206 C214 0.950 . S
H207 C215 0.951 . S
H208 C216 0.951 . S
C209 C203 1.265 1_455 S
C209 H204 0.950 . S
C209 C210 1.478 . S
C210 C209 1.478 . S
C210 C211 1.397 . S
C210 C227 1.394 1_455 S
C211 C210 1.397 . S
C211 C212 1.438 . S
C211 C216 1.429 . S
C212 C211 1.438 . S
C212 C213 1.428 . S
C212 C225 1.394 1_455 S
C213 H205 0.949 . S
C213 C212 1.428 . S
C213 C214 1.345 . S
C214 H206 0.950 . S
C214 C213 1.345 . S
C214 C215 1.424 . S
C215 H207 0.951 . S
C215 C214 1.424 . S
C215 C216 1.347 . S
C216 H208 0.951 . S
C216 C211 1.429 . S
C216 C215 1.347 . S
H217 C218 0.951 . S
C218 H217 0.951 . S
C218 C224 1.265 1_455 S
H219 C224 0.950 . S
H220 C228 0.949 . S
H221 C229 0.950 . S
H222 C230 0.951 . S
H223 C231 0.951 . S
C224 C218 1.265 1_655 S
C224 H219 0.950 . S
C224 C225 1.478 . S
C225 C212 1.394 1_655 S
C225 C224 1.478 . S
C225 C226 1.397 . S
C226 C225 1.397 . S
C226 C227 1.438 . S
C226 C231 1.429 . S
C227 C210 1.394 1_655 S
C227 C226 1.438 . S
C227 C228 1.428 . S
C228 H220 0.949 . S
C228 C227 1.428 . S
C228 C229 1.345 . S
C229 H221 0.950 . S
C229 C228 1.345 . S
C229 C230 1.424 . S
C230 H222 0.951 . S
C230 C229 1.424 . S
C230 C231 1.347 . S
C231 H223 0.951 . S
C231 C226 1.429 . S
C231 C230 1.347 . S
H232 C233 0.951 . S
C233 H232 0.951 . S
C233 C239 1.265 1_545 S
H234 C239 0.950 . S
H235 C243 0.951 . S
H236 C244 0.950 . S
H237 C245 0.951 . S
H238 C246 0.951 . S
C239 C233 1.265 1_565 S
C239 H234 0.950 . S
C239 C240 1.478 . S
C240 C239 1.478 . S
C240 C241 1.397 . S
C240 C257 1.394 1_565 S
C241 C240 1.397 . S
C241 C242 1.438 . S
C241 C246 1.429 . S
C242 C241 1.438 . S
C242 C243 1.428 . S
C242 C255 1.394 1_565 S
C243 H235 0.951 . S
C243 C242 1.428 . S
C243 C244 1.345 . S
C244 H236 0.950 . S
C244 C243 1.345 . S
C244 C245 1.424 . S
C245 H237 0.951 . S
C245 C244 1.424 . S
C245 C246 1.347 . S
C246 H238 0.951 . S
C246 C241 1.429 . S
C246 C245 1.347 . S
H247 C248 0.951 . S
C248 H247 0.951 . S
C248 C254 1.265 1_565 S
H249 C254 0.950 . S
H250 C258 0.949 . S
H251 C259 0.950 . S
H252 C260 0.951 . S
H253 C261 0.951 . S
C254 C248 1.265 1_545 S
C254 H249 0.950 . S
C254 C255 1.478 . S
C255 C242 1.394 1_545 S
C255 C254 1.478 . S
C255 C256 1.397 . S
C256 C255 1.397 . S
C256 C257 1.438 . S
C256 C261 1.429 . S
C257 C240 1.394 1_545 S
C257 C256 1.438 . S
C257 C258 1.428 . S
C258 H250 0.949 . S
C258 C257 1.428 . S
C258 C259 1.345 . S
C259 H251 0.950 . S
C259 C258 1.345 . S
C259 C260 1.424 . S
C260 H252 0.951 . S
C260 C259 1.424 . S
C260 C261 1.347 . S
C261 H253 0.951 . S
C261 C256 1.429 . S
C261 C260 1.347 . S
H262 C263 0.951 . S
C263 H262 0.951 . S
C263 C269 1.265 1_455 S
H264 C269 0.950 . S
H265 C273 0.949 . S
H266 C274 0.950 . S
H267 C275 0.951 . S
H268 C276 0.951 . S
C269 C263 1.265 1_655 S
C269 H264 0.950 . S
C269 C270 1.478 . S
C270 C269 1.478 . S
C270 C271 1.397 . S
C270 C287 1.394 1_655 S
C271 C270 1.397 . S
C271 C272 1.438 . S
C271 C276 1.429 . S
C272 C271 1.438 . S
C272 C273 1.428 . S
C272 C285 1.394 1_655 S
C273 H265 0.949 . S
C273 C272 1.428 . S
C273 C274 1.345 . S
C274 H266 0.950 . S
C274 C273 1.345 . S
C274 C275 1.424 . S
C275 H267 0.951 . S
C275 C274 1.424 . S
C275 C276 1.347 . S
C276 H268 0.951 . S
C276 C271 1.429 . S
C276 C275 1.347 . S
H277 C278 0.951 . S
C278 H277 0.951 . S
C278 C284 1.265 1_655 S
H279 C284 0.950 . S
H280 C288 0.949 . S
H281 C289 0.950 . S
H282 C290 0.951 . S
H283 C291 0.951 . S
C284 C278 1.265 1_455 S
C284 H279 0.950 . S
C284 C285 1.478 . S
C285 C272 1.394 1_455 S
C285 C284 1.478 . S
C285 C286 1.397 . S
C286 C285 1.397 . S
C286 C287 1.438 . S
C286 C291 1.429 . S
C287 C270 1.394 1_455 S
C287 C286 1.438 . S
C287 C288 1.428 . S
C288 H280 0.949 . S
C288 C287 1.428 . S
C288 C289 1.345 . S
C289 H281 0.950 . S
C289 C288 1.345 . S
C289 C290 1.424 . S
C290 H282 0.951 . S
C290 C289 1.424 . S
C290 C291 1.347 . S
C291 H283 0.951 . S
C291 C286 1.429 . S
C291 C290 1.347 . S
H292 C293 0.951 . S
C293 H292 0.951 . S
C293 C299 1.265 1_565 S
H294 C299 0.950 . S
H295 C303 0.949 . S
H296 C304 0.950 . S
H297 C305 0.951 . S
H298 C306 0.951 . S
C299 C293 1.265 1_545 S
C299 H294 0.950 . S
C299 C300 1.478 . S
C300 C299 1.478 . S
C300 C301 1.397 . S
C300 C317 1.394 1_545 S
C301 C300 1.397 . S
C301 C302 1.438 . S
C301 C306 1.429 . S
C302 C301 1.438 . S
C302 C303 1.428 . S
C302 C315 1.394 1_545 S
C303 H295 0.949 . S
C303 C302 1.428 . S
C303 C304 1.345 . S
C304 H296 0.950 . S
C304 C303 1.345 . S
C304 C305 1.424 . S
C305 H297 0.951 . S
C305 C304 1.424 . S
C305 C306 1.347 . S
C306 H298 0.951 . S
C306 C301 1.429 . S
C306 C305 1.347 . S
H307 C308 0.951 . S
C308 H307 0.951 . S
C308 C314 1.265 1_545 S
H309 C314 0.950 . S
H310 C318 0.949 . S
H311 C319 0.950 . S
H312 C320 0.951 . S
H313 C321 0.951 . S
C314 C308 1.265 1_565 S
C314 H309 0.950 . S
C314 C315 1.478 . S
C315 C302 1.394 1_565 S
C315 C314 1.478 . S
C315 C316 1.397 . S
C316 C315 1.397 . S
C316 C317 1.438 . S
C316 C321 1.429 . S
C317 C300 1.394 1_565 S
C317 C316 1.438 . S
C317 C318 1.428 . S
C318 H310 0.949 . S
C318 C317 1.428 . S
C318 C319 1.345 . S
C319 H311 0.950 . S
C319 C318 1.345 . S
C319 C320 1.424 . S
C320 H312 0.951 . S
C320 C319 1.424 . S
C320 C321 1.347 . S
C321 H313 0.951 . S
C321 C316 1.429 . S
C321 C320 1.347 . S
H322 C323 0.951 . S
C323 H322 0.951 . S
C323 C329 1.265 1_655 S
H324 C329 0.950 . S
H325 C333 0.949 . S
H326 C334 0.950 . S
H327 C335 0.951 . S
H328 C336 0.951 . S
C329 C323 1.265 1_455 S
C329 H324 0.950 . S
C329 C330 1.478 . S
C330 C329 1.478 . S
C330 C331 1.397 . S
C330 C347 1.394 1_455 S
C331 C330 1.397 . S
C331 C332 1.438 . S
C331 C336 1.429 . S
C332 C331 1.438 . S
C332 C333 1.428 . S
C332 C345 1.394 1_455 S
C333 H325 0.949 . S
C333 C332 1.428 . S
C333 C334 1.345 . S
C334 H326 0.950 . S
C334 C333 1.345 . S
C334 C335 1.424 . S
C335 H327 0.951 . S
C335 C334 1.424 . S
C335 C336 1.347 . S
C336 H328 0.951 . S
C336 C331 1.429 . S
C336 C335 1.347 . S
H337 C338 0.951 . S
C338 H337 0.951 . S
C338 C344 1.265 1_455 S
H339 C344 0.950 . S
H340 C348 0.949 . S
H341 C349 0.950 . S
H342 C350 0.951 . S
H343 C351 0.951 . S
C344 C338 1.265 1_655 S
C344 H339 0.950 . S
C344 C345 1.478 . S
C345 C332 1.394 1_655 S
C345 C344 1.478 . S
C345 C346 1.397 . S
C346 C345 1.397 . S
C346 C347 1.438 . S
C346 C351 1.429 . S
C347 C330 1.394 1_655 S
C347 C346 1.438 . S
C347 C348 1.428 . S
C348 H340 0.949 . S
C348 C347 1.428 . S
C348 C349 1.345 . S
C349 H341 0.950 . S
C349 C348 1.345 . S
C349 C350 1.424 . S
C350 H342 0.951 . S
C350 C349 1.424 . S
C350 C351 1.347 . S
C351 H343 0.951 . S
C351 C346 1.429 . S
C351 C350 1.347 . S
H352 C353 0.951 . S
C353 H352 0.951 . S
C353 C359 1.265 . S
H354 C359 0.950 . S
H355 C363 0.949 . S
H356 C364 0.950 . S
H357 C365 0.951 . S
H358 C366 0.951 . S
C359 C353 1.265 . S
C359 H354 0.950 . S
C359 C360 1.478 . S
C360 C359 1.478 . S
C360 C361 1.397 . S
C360 C377 1.394 . S
C361 C360 1.397 . S
C361 C362 1.438 . S
C361 C366 1.429 . S
C362 C361 1.438 . S
C362 C363 1.428 . S
C362 C375 1.394 . S
C363 H355 0.949 . S
C363 C362 1.428 . S
C363 C364 1.345 . S
C364 H356 0.950 . S
C364 C363 1.345 . S
C364 C365 1.424 . S
C365 H357 0.951 . S
C365 C364 1.424 . S
C365 C366 1.347 . S
C366 H358 0.951 . S
C366 C361 1.429 . S
C366 C365 1.347 . S
H367 C368 0.951 . S
C368 H367 0.951 . S
C368 C374 1.265 . S
H369 C374 0.950 . S
H370 C378 0.949 . S
H371 C379 0.950 . S
H372 C380 0.951 . S
H373 C381 0.951 . S
C374 C368 1.265 . S
C374 H369 0.950 . S
C374 C375 1.478 . S
C375 C362 1.394 . S
C375 C374 1.478 . S
C375 C376 1.397 . S
C376 C375 1.397 . S
C376 C377 1.438 . S
C376 C381 1.429 . S
C377 C360 1.394 . S
C377 C376 1.438 . S
C377 C378 1.428 . S
C378 H370 0.949 . S
C378 C377 1.428 . S
C378 C379 1.345 . S
C379 H371 0.950 . S
C379 C378 1.345 . S
C379 C380 1.424 . S
C380 H372 0.951 . S
C380 C379 1.424 . S
C380 C381 1.347 . S
C381 H373 0.951 . S
C381 C376 1.429 . S
C381 C380 1.347 . S
H382 C383 0.951 . S
C383 H382 0.951 . S
C383 C389 1.265 . S
H384 C389 0.950 . S
H385 C393 0.949 . S
H386 C394 0.950 . S
H387 C395 0.951 . S
H388 C396 0.951 . S
C389 C383 1.265 . S
C389 H384 0.950 . S
C389 C390 1.478 . S
C390 C389 1.478 . S
C390 C391 1.397 . S
C390 C407 1.394 . S
C391 C390 1.397 . S
C391 C392 1.438 . S
C391 C396 1.429 . S
C392 C391 1.438 . S
C392 C393 1.428 . S
C392 C405 1.394 . S
C393 H385 0.949 . S
C393 C392 1.428 . S
C393 C394 1.345 . S
C394 H386 0.950 . S
C394 C393 1.345 . S
C394 C395 1.424 . S
C395 H387 0.951 . S
C395 C394 1.424 . S
C395 C396 1.347 . S
C396 H388 0.951 . S
C396 C391 1.429 . S
C396 C395 1.347 . S
H397 C398 0.951 . S
C398 H397 0.951 . S
C398 C404 1.265 . S
H399 C404 0.950 . S
H400 C408 0.949 . S
H401 C409 0.950 . S
H402 C410 0.951 . S
H403 C411 0.951 . S
C404 C398 1.265 . S
C404 H399 0.950 . S
C404 C405 1.478 . S
C405 C392 1.394 . S
C405 C404 1.478 . S
C405 C406 1.397 . S
C406 C405 1.397 . S
C406 C407 1.438 . S
C406 C411 1.429 . S
C407 C390 1.394 . S
C407 C406 1.438 . S
C407 C408 1.428 . S
C408 H400 0.949 . S
C408 C407 1.428 . S
C408 C409 1.345 . S
C409 H401 0.950 . S
C409 C408 1.345 . S
C409 C410 1.424 . S
C410 H402 0.951 . S
C410 C409 1.424 . S
C410 C411 1.347 . S
C411 H403 0.951 . S
C411 C406 1.429 . S
C411 C410 1.347 . S
H412 C413 0.951 . S
C413 H412 0.951 . S
C413 C419 1.265 . S
H414 C419 0.950 . S
H415 C423 0.949 . S
H416 C424 0.950 . S
H417 C425 0.951 . S
H418 C426 0.951 . S
C419 C413 1.265 . S
C419 H414 0.950 . S
C419 C420 1.478 . S
C420 C419 1.478 . S
C420 C421 1.397 . S
C420 C437 1.394 . S
C421 C420 1.397 . S
C421 C422 1.438 . S
C421 C426 1.429 . S
C422 C421 1.438 . S
C422 C423 1.428 . S
C422 C435 1.394 . S
C423 H415 0.949 . S
C423 C422 1.428 . S
C423 C424 1.345 . S
C424 H416 0.950 . S
C424 C423 1.345 . S
C424 C425 1.424 . S
C425 H417 0.951 . S
C425 C424 1.424 . S
C425 C426 1.347 . S
C426 H418 0.951 . S
C426 C421 1.429 . S
C426 C425 1.347 . S
H427 C428 0.951 . S
C428 H427 0.951 . S
C428 C434 1.265 . S
H429 C434 0.950 . S
H430 C438 0.949 . S
H431 C439 0.950 . S
H432 C440 0.951 . S
H433 C441 0.951 . S
C434 C428 1.265 . S
C434 H429 0.950 . S
C434 C435 1.478 . S
C435 C422 1.394 . S
C435 C434 1.478 . S
C435 C436 1.397 . S
C436 C435 1.397 . S
C436 C437 1.438 . S
C436 C441 1.429 . S
C437 C420 1.394 . S
C437 C436 1.438 . S
C437 C438 1.428 . S
C438 H430 0.949 . S
C438 C437 1.428 . S
C438 C439 1.345 . S
C439 H431 0.950 . S
C439 C438 1.345 . S
C439 C440 1.424 . S
C440 H432 0.951 . S
C440 C439 1.424 . S
C440 C441 1.347 . S
C441 H433 0.951 . S
C441 C436 1.429 . S
C441 C440 1.347 . S
H442 C443 0.951 . S
C443 H442 0.951 . S
C443 C449 1.265 . S
H444 C449 0.950 . S
H445 C453 0.949 . S
H446 C454 0.950 . S
H447 C455 0.951 . S
H448 C456 0.951 . S
C449 C443 1.265 . S
C449 H444 0.950 . S
C449 C450 1.478 . S
C450 C449 1.478 . S
C450 C451 1.397 . S
C450 C467 1.394 . S
C451 C450 1.397 . S
C451 C452 1.438 . S
C451 C456 1.429 . S
C452 C451 1.438 . S
C452 C453 1.428 . S
C452 C465 1.394 . S
C453 H445 0.949 . S
C453 C452 1.428 . S
C453 C454 1.345 . S
C454 H446 0.950 . S
C454 C453 1.345 . S
C454 C455 1.424 . S
C455 H447 0.951 . S
C455 C454 1.424 . S
C455 C456 1.347 . S
C456 H448 0.951 . S
C456 C451 1.429 . S
C456 C455 1.347 . S
H457 C458 0.951 . S
C458 H457 0.951 . S
C458 C464 1.265 . S
H459 C464 0.950 . S
H460 C468 0.949 . S
H461 C469 0.950 . S
H462 C470 0.951 . S
H463 C471 0.951 . S
C464 C458 1.265 . S
C464 H459 0.950 . S
C464 C465 1.478 . S
C465 C452 1.394 . S
C465 C464 1.478 . S
C465 C466 1.397 . S
C466 C465 1.397 . S
C466 C467 1.438 . S
C466 C471 1.429 . S
C467 C450 1.394 . S
C467 C466 1.438 . S
C467 C468 1.428 . S
C468 H460 0.949 . S
C468 C467 1.428 . S
C468 C469 1.345 . S
C469 H461 0.950 . S
C469 C468 1.345 . S
C469 C470 1.424 . S
C470 H462 0.951 . S
C470 C469 1.424 . S
C470 C471 1.347 . S
C471 H463 0.951 . S
C471 C466 1.429 . S
C471 C470 1.347 . S
H472 C473 0.951 . S
C473 H472 0.951 . S
C473 C479 1.265 . S
H474 C479 0.950 . S
H475 C483 0.949 . S
H476 C484 0.950 . S
H477 C485 0.951 . S
H478 C486 0.951 . S
C479 C473 1.265 . S
C479 H474 0.950 . S
C479 C480 1.478 . S
C480 C479 1.478 . S
C480 C481 1.397 . S
C480 C497 1.394 . S
C481 C480 1.397 . S
C481 C482 1.438 . S
C481 C486 1.429 . S
C482 C481 1.438 . S
C482 C483 1.428 . S
C482 C495 1.394 . S
C483 H475 0.949 . S
C483 C482 1.428 . S
C483 C484 1.345 . S
C484 H476 0.950 . S
C484 C483 1.345 . S
C484 C485 1.424 . S
C485 H477 0.951 . S
C485 C484 1.424 . S
C485 C486 1.347 . S
C486 H478 0.951 . S
C486 C481 1.429 . S
C486 C485 1.347 . S
H487 C488 0.951 . S
C488 H487 0.951 . S
C488 C494 1.265 . S
H489 C494 0.950 . S
H490 C498 0.949 . S
H491 C499 0.950 . S
H492 C500 0.951 . S
H493 C501 0.951 . S
C494 C488 1.265 . S
C494 H489 0.950 . S
C494 C495 1.478 . S
C495 C482 1.394 . S
C495 C494 1.478 . S
C495 C496 1.397 . S
C496 C495 1.397 . S
C496 C497 1.438 . S
C496 C501 1.429 . S
C497 C480 1.394 . S
C497 C496 1.438 . S
C497 C498 1.428 . S
C498 H490 0.949 . S
C498 C497 1.428 . S
C498 C499 1.345 . S
C499 H491 0.950 . S
C499 C498 1.345 . S
C499 C500 1.424 . S
C500 H492 0.951 . S
C500 C499 1.424 . S
C500 C501 1.347 . S
C501 H493 0.951 . S
C501 C496 1.429 . S
C501 C500 1.347 . S
H502 C503 0.951 . S
C503 H502 0.951 . S
C503 C509 1.265 . S
H504 C509 0.950 . S
H505 C513 0.949 . S
H506 C514 0.950 . S
H507 C515 0.951 . S
H508 C516 0.951 . S
C509 C503 1.265 . S
C509 H504 0.950 . S
C509 C510 1.478 . S
C510 C509 1.478 . S
C510 C511 1.397 . S
C510 C527 1.394 . S
C511 C510 1.397 . S
C511 C512 1.438 . S
C511 C516 1.429 . S
C512 C511 1.438 . S
C512 C513 1.428 . S
C512 C525 1.394 . S
C513 H505 0.949 . S
C513 C512 1.428 . S
C513 C514 1.345 . S
C514 H506 0.950 . S
C514 C513 1.345 . S
C514 C515 1.424 . S
C515 H507 0.951 . S
C515 C514 1.424 . S
C515 C516 1.347 . S
C516 H508 0.951 . S
C516 C511 1.429 . S
C516 C515 1.347 . S
H517 C518 0.951 . S
C518 H517 0.951 . S
C518 C524 1.265 . S
H519 C524 0.950 . S
H520 C528 0.949 . S
H521 C529 0.950 . S
H522 C530 0.951 . S
H523 C531 0.951 . S
C524 C518 1.265 . S
C524 H519 0.950 . S
C524 C525 1.478 . S
C525 C512 1.394 . S
C525 C524 1.478 . S
C525 C526 1.397 . S
C526 C525 1.397 . S
C526 C527 1.438 . S
C526 C531 1.429 . S
C527 C510 1.394 . S
C527 C526 1.438 . S
C527 C528 1.428 . S
C528 H520 0.949 . S
C528 C527 1.428 . S
C528 C529 1.345 . S
C529 H521 0.950 . S
C529 C528 1.345 . S
C529 C530 1.424 . S
C530 H522 0.951 . S
C530 C529 1.424 . S
C530 C531 1.347 . S
C531 H523 0.951 . S
C531 C526 1.429 . S
C531 C530 1.347 . S
H532 C533 0.951 . S
C533 H532 0.951 . S
C533 C539 1.265 . S
H534 C539 0.950 . S
H535 C543 0.949 . S
H536 C544 0.950 . S
H537 C545 0.951 . S
H538 C546 0.951 . S
C539 C533 1.265 . S
C539 H534 0.950 . S
C539 C540 1.478 . S
C540 C539 1.478 . S
C540 C541 1.397 . S
C540 C557 1.394 . S
C541 C540 1.397 . S
C541 C542 1.438 . S
C541 C546 1.429 . S
C542 C541 1.438 . S
C542 C543 1.428 . S
C542 C555 1.394 . S
C543 H535 0.949 . S
C543 C542 1.428 . S
C543 C544 1.345 . S
C544 H536 0.950 . S
C544 C543 1.345 . S
C544 C545 1.424 . S
C545 H537 0.951 . S
C545 C544 1.424 . S
C545 C546 1.347 . S
C546 H538 0.951 . S
C546 C541 1.429 . S
C546 C545 1.347 . S
H547 C548 0.951 . S
C548 H547 0.951 . S
C548 C554 1.265 . S
H549 C554 0.950 . S
H550 C558 0.949 . S
H551 C559 0.950 . S
H552 C560 0.951 . S
H553 C561 0.951 . S
C554 C548 1.265 . S
C554 H549 0.950 . S
C554 C555 1.478 . S
C555 C542 1.394 . S
C555 C554 1.478 . S
C555 C556 1.397 . S
C556 C555 1.397 . S
C556 C557 1.438 . S
C556 C561 1.429 . S
C557 C540 1.394 . S
C557 C556 1.438 . S
C557 C558 1.428 . S
C558 H550 0.949 . S
C558 C557 1.428 . S
C558 C559 1.345 . S
C559 H551 0.950 . S
C559 C558 1.345 . S
C559 C560 1.424 . S
C560 H552 0.951 . S
C560 C559 1.424 . S
C560 C561 1.347 . S
C561 H553 0.951 . S
C561 C556 1.429 . S
C561 C560 1.347 . S
H562 C563 0.951 . S
C563 H562 0.951 . S
C563 C569 1.265 . S
H564 C569 0.950 . S
H565 C573 0.949 . S
H566 C574 0.950 . S
H567 C575 0.951 . S
H568 C576 0.951 . S
C569 C563 1.265 . S
C569 H564 0.950 . S
C569 C570 1.478 . S
C570 C569 1.478 . S
C570 C571 1.397 . S
C570 C587 1.394 . S
C571 C570 1.397 . S
C571 C572 1.438 . S
C571 C576 1.429 . S
C572 C571 1.438 . S
C572 C573 1.428 . S
C572 C585 1.394 . S
C573 H565 0.949 . S
C573 C572 1.428 . S
C573 C574 1.345 . S
C574 H566 0.950 . S
C574 C573 1.345 . S
C574 C575 1.424 . S
C575 H567 0.951 . S
C575 C574 1.424 . S
C575 C576 1.347 . S
C576 H568 0.951 . S
C576 C571 1.429 . S
C576 C575 1.347 . S
H577 C578 0.951 . S
C578 H577 0.951 . S
C578 C584 1.265 . S
H579 C584 0.950 . S
H580 C588 0.949 . S
H581 C589 0.950 . S
H582 C590 0.951 . S
H583 C591 0.951 . S
C584 C578 1.265 . S
C584 H579 0.950 . S
C584 C585 1.478 . S
C585 C572 1.394 . S
C585 C584 1.478 . S
C585 C586 1.397 . S
C586 C585 1.397 . S
C586 C587 1.438 . S
C586 C591 1.429 . S
C587 C570 1.394 . S
C587 C586 1.438 . S
C587 C588 1.428 . S
C588 H580 0.949 . S
C588 C587 1.428 . S
C588 C589 1.345 . S
C589 H581 0.950 . S
C589 C588 1.345 . S
C589 C590 1.424 . S
C590 H582 0.951 . S
C590 C589 1.424 . S
C590 C591 1.347 . S
C591 H583 0.951 . S
C591 C586 1.429 . S
C591 C590 1.347 . S
C113 C13 1.402 . S
C128 C69 1.509 . S
C143 C27 1.427 1_455 S
C158 C83 1.442 . S
C173 C97 1.401 . S
C188 C41 1.508 . S
C203 C111 1.474 . S
C218 C55 1.474 . S
C233 C11 1.132 1_545 S
C248 C39 1.127 1_565 S
C263 C25 1.103 . S
C278 C53 1.101 . S
C293 C95 1.107 . S
C308 C67 1.099 . S
C323 C81 1.102 . S
C338 C109 1.102 . S
C353 C78 1.378 . S
C368 C8 1.326 . S
C383 C22 1.313 . S
C398 C92 1.369 . S
C413 C106 1.290 . S
C428 C36 1.297 . S
C443 C50 1.350 . S
C458 C64 1.296 . S
C473 C91 1.031 . S
C488 C49 1.101 . S
C503 C7 1.069 . S
C518 C105 1.122 . S
C533 C21 1.029 . S
C548 C63 1.099 . S
C563 C77 1.051 . S
C578 C35 1.115 . S
