# Generated by pormake.
# Topology rho, (4)-cn, num edge types: 1
# Building blocks:
#     Node 0, Type 0, BuildingBlock: KUFVIS_clean_sbu_0, # of connection points: 4
#     Node 1, Type 0, BuildingBlock: KUFVIS_clean_sbu_0, # of connection points: 4
#     Node 2, Type 0, BuildingBlock: KUFVIS_clean_sbu_0, # of connection points: 4
#     Node 3, Type 0, BuildingBlock: KUFVIS_clean_sbu_0, # of connection points: 4
#     Node 4, Type 0, BuildingBlock: KUFVIS_clean_sbu_0, # of connection points: 4
#     Node 5, Type 0, BuildingBlock: KUFVIS_clean_sbu_0, # of connection points: 4
#     Node 6, Type 0, BuildingBlock: KUFVIS_clean_sbu_0, # of connection points: 4
#     Node 7, Type 0, BuildingBlock: KUFVIS_clean_sbu_0, # of connection points: 4
#     Node 8, Type 0, BuildingBlock: KUFVIS_clean_sbu_0, # of connection points: 4
#     Node 9, Type 0, BuildingBlock: KUFVIS_clean_sbu_0, # of connection points: 4
#     Node 10, Type 0, BuildingBlock: KUFVIS_clean_sbu_0, # of connection points: 4
#     Node 11, Type 0, BuildingBlock: KUFVIS_clean_sbu_0, # of connection points: 4
#     Node 12, Type 0, BuildingBlock: KUFVIS_clean_sbu_0, # of connection points: 4
#     Node 13, Type 0, BuildingBlock: KUFVIS_clean_sbu_0, # of connection points: 4
#     Node 14, Type 0, BuildingBlock: KUFVIS_clean_sbu_0, # of connection points: 4
#     Node 15, Type 0, BuildingBlock: KUFVIS_clean_sbu_0, # of connection points: 4
#     Node 16, Type 0, BuildingBlock: KUFVIS_clean_sbu_0, # of connection points: 4
#     Node 17, Type 0, BuildingBlock: KUFVIS_clean_sbu_0, # of connection points: 4
#     Node 18, Type 0, BuildingBlock: KUFVIS_clean_sbu_0, # of connection points: 4
#     Node 19, Type 0, BuildingBlock: KUFVIS_clean_sbu_0, # of connection points: 4
#     Node 20, Type 0, BuildingBlock: KUFVIS_clean_sbu_0, # of connection points: 4
#     Node 21, Type 0, BuildingBlock: KUFVIS_clean_sbu_0, # of connection points: 4
#     Node 22, Type 0, BuildingBlock: KUFVIS_clean_sbu_0, # of connection points: 4
#     Node 23, Type 0, BuildingBlock: KUFVIS_clean_sbu_0, # of connection points: 4
#     Node 24, Type 0, BuildingBlock: KUFVIS_clean_sbu_0, # of connection points: 4
#     Node 25, Type 0, BuildingBlock: KUFVIS_clean_sbu_0, # of connection points: 4
#     Node 26, Type 0, BuildingBlock: KUFVIS_clean_sbu_0, # of connection points: 4
#     Node 27, Type 0, BuildingBlock: KUFVIS_clean_sbu_0, # of connection points: 4
#     Node 28, Type 0, BuildingBlock: KUFVIS_clean_sbu_0, # of connection points: 4
#     Node 29, Type 0, BuildingBlock: KUFVIS_clean_sbu_0, # of connection points: 4
#     Node 30, Type 0, BuildingBlock: KUFVIS_clean_sbu_0, # of connection points: 4
#     Node 31, Type 0, BuildingBlock: KUFVIS_clean_sbu_0, # of connection points: 4
#     Node 32, Type 0, BuildingBlock: KUFVIS_clean_sbu_0, # of connection points: 4
#     Node 33, Type 0, BuildingBlock: KUFVIS_clean_sbu_0, # of connection points: 4
#     Node 34, Type 0, BuildingBlock: KUFVIS_clean_sbu_0, # of connection points: 4
#     Node 35, Type 0, BuildingBlock: KUFVIS_clean_sbu_0, # of connection points: 4
#     Node 36, Type 0, BuildingBlock: KUFVIS_clean_sbu_0, # of connection points: 4
#     Node 37, Type 0, BuildingBlock: KUFVIS_clean_sbu_0, # of connection points: 4
#     Node 38, Type 0, BuildingBlock: KUFVIS_clean_sbu_0, # of connection points: 4
#     Node 39, Type 0, BuildingBlock: KUFVIS_clean_sbu_0, # of connection points: 4
#     Node 40, Type 0, BuildingBlock: KUFVIS_clean_sbu_0, # of connection points: 4
#     Node 41, Type 0, BuildingBlock: KUFVIS_clean_sbu_0, # of connection points: 4
#     Node 42, Type 0, BuildingBlock: KUFVIS_clean_sbu_0, # of connection points: 4
#     Node 43, Type 0, BuildingBlock: KUFVIS_clean_sbu_0, # of connection points: 4
#     Node 44, Type 0, BuildingBlock: KUFVIS_clean_sbu_0, # of connection points: 4
#     Node 45, Type 0, BuildingBlock: KUFVIS_clean_sbu_0, # of connection points: 4
#     Node 46, Type 0, BuildingBlock: KUFVIS_clean_sbu_0, # of connection points: 4
#     Node 47, Type 0, BuildingBlock: KUFVIS_clean_sbu_0, # of connection points: 4
#     Edge 48, Type (0, 0), BuildingBlock: EZIPEK_clean_linker_0, # of connection points: 2
#     Edge 49, Type (0, 0), BuildingBlock: EZIPEK_clean_linker_0, # of connection points: 2
#     Edge 50, Type (0, 0), BuildingBlock: EZIPEK_clean_linker_0, # of connection points: 2
#     Edge 51, Type (0, 0), BuildingBlock: EZIPEK_clean_linker_0, # of connection points: 2
#     Edge 52, Type (0, 0), BuildingBlock: EZIPEK_clean_linker_0, # of connection points: 2
#     Edge 53, Type (0, 0), BuildingBlock: EZIPEK_clean_linker_0, # of connection points: 2
#     Edge 54, Type (0, 0), BuildingBlock: EZIPEK_clean_linker_0, # of connection points: 2
#     Edge 55, Type (0, 0), BuildingBlock: EZIPEK_clean_linker_0, # of connection points: 2
#     Edge 56, Type (0, 0), BuildingBlock: EZIPEK_clean_linker_0, # of connection points: 2
#     Edge 57, Type (0, 0), BuildingBlock: EZIPEK_clean_linker_0, # of connection points: 2
#     Edge 58, Type (0, 0), BuildingBlock: EZIPEK_clean_linker_0, # of connection points: 2
#     Edge 59, Type (0, 0), BuildingBlock: EZIPEK_clean_linker_0, # of connection points: 2
#     Edge 60, Type (0, 0), BuildingBlock: EZIPEK_clean_linker_0, # of connection points: 2
#     Edge 61, Type (0, 0), BuildingBlock: EZIPEK_clean_linker_0, # of connection points: 2
#     Edge 62, Type (0, 0), BuildingBlock: EZIPEK_clean_linker_0, # of connection points: 2
#     Edge 63, Type (0, 0), BuildingBlock: EZIPEK_clean_linker_0, # of connection points: 2
#     Edge 64, Type (0, 0), BuildingBlock: EZIPEK_clean_linker_0, # of connection points: 2
#     Edge 65, Type (0, 0), BuildingBlock: EZIPEK_clean_linker_0, # of connection points: 2
#     Edge 66, Type (0, 0), BuildingBlock: EZIPEK_clean_linker_0, # of connection points: 2
#     Edge 67, Type (0, 0), BuildingBlock: EZIPEK_clean_linker_0, # of connection points: 2
#     Edge 68, Type (0, 0), BuildingBlock: EZIPEK_clean_linker_0, # of connection points: 2
#     Edge 69, Type (0, 0), BuildingBlock: EZIPEK_clean_linker_0, # of connection points: 2
#     Edge 70, Type (0, 0), BuildingBlock: EZIPEK_clean_linker_0, # of connection points: 2
#     Edge 71, Type (0, 0), BuildingBlock: EZIPEK_clean_linker_0, # of connection points: 2
#     Edge 72, Type (0, 0), BuildingBlock: EZIPEK_clean_linker_0, # of connection points: 2
#     Edge 73, Type (0, 0), BuildingBlock: EZIPEK_clean_linker_0, # of connection points: 2
#     Edge 74, Type (0, 0), BuildingBlock: EZIPEK_clean_linker_0, # of connection points: 2
#     Edge 75, Type (0, 0), BuildingBlock: EZIPEK_clean_linker_0, # of connection points: 2
#     Edge 76, Type (0, 0), BuildingBlock: EZIPEK_clean_linker_0, # of connection points: 2
#     Edge 77, Type (0, 0), BuildingBlock: EZIPEK_clean_linker_0, # of connection points: 2
#     Edge 78, Type (0, 0), BuildingBlock: EZIPEK_clean_linker_0, # of connection points: 2
#     Edge 79, Type (0, 0), BuildingBlock: EZIPEK_clean_linker_0, # of connection points: 2
#     Edge 80, Type (0, 0), BuildingBlock: EZIPEK_clean_linker_0, # of connection points: 2
#     Edge 81, Type (0, 0), BuildingBlock: EZIPEK_clean_linker_0, # of connection points: 2
#     Edge 82, Type (0, 0), BuildingBlock: EZIPEK_clean_linker_0, # of connection points: 2
#     Edge 83, Type (0, 0), BuildingBlock: EZIPEK_clean_linker_0, # of connection points: 2
#     Edge 84, Type (0, 0), BuildingBlock: EZIPEK_clean_linker_0, # of connection points: 2
#     Edge 85, Type (0, 0), BuildingBlock: EZIPEK_clean_linker_0, # of connection points: 2
#     Edge 86, Type (0, 0), BuildingBlock: EZIPEK_clean_linker_0, # of connection points: 2
#     Edge 87, Type (0, 0), BuildingBlock: EZIPEK_clean_linker_0, # of connection points: 2
#     Edge 88, Type (0, 0), BuildingBlock: EZIPEK_clean_linker_0, # of connection points: 2
#     Edge 89, Type (0, 0), BuildingBlock: EZIPEK_clean_linker_0, # of connection points: 2
#     Edge 90, Type (0, 0), BuildingBlock: EZIPEK_clean_linker_0, # of connection points: 2
#     Edge 91, Type (0, 0), BuildingBlock: EZIPEK_clean_linker_0, # of connection points: 2
#     Edge 92, Type (0, 0), BuildingBlock: EZIPEK_clean_linker_0, # of connection points: 2
#     Edge 93, Type (0, 0), BuildingBlock: EZIPEK_clean_linker_0, # of connection points: 2
#     Edge 94, Type (0, 0), BuildingBlock: EZIPEK_clean_linker_0, # of connection points: 2
#     Edge 95, Type (0, 0), BuildingBlock: EZIPEK_clean_linker_0, # of connection points: 2
#     Edge 96, Type (0, 0), BuildingBlock: EZIPEK_clean_linker_0, # of connection points: 2
#     Edge 97, Type (0, 0), BuildingBlock: EZIPEK_clean_linker_0, # of connection points: 2
#     Edge 98, Type (0, 0), BuildingBlock: EZIPEK_clean_linker_0, # of connection points: 2
#     Edge 99, Type (0, 0), BuildingBlock: EZIPEK_clean_linker_0, # of connection points: 2
#     Edge 100, Type (0, 0), BuildingBlock: EZIPEK_clean_linker_0, # of connection points: 2
#     Edge 101, Type (0, 0), BuildingBlock: EZIPEK_clean_linker_0, # of connection points: 2
#     Edge 102, Type (0, 0), BuildingBlock: EZIPEK_clean_linker_0, # of connection points: 2
#     Edge 103, Type (0, 0), BuildingBlock: EZIPEK_clean_linker_0, # of connection points: 2
#     Edge 104, Type (0, 0), BuildingBlock: EZIPEK_clean_linker_0, # of connection points: 2
#     Edge 105, Type (0, 0), BuildingBlock: EZIPEK_clean_linker_0, # of connection points: 2
#     Edge 106, Type (0, 0), BuildingBlock: EZIPEK_clean_linker_0, # of connection points: 2
#     Edge 107, Type (0, 0), BuildingBlock: EZIPEK_clean_linker_0, # of connection points: 2
#     Edge 108, Type (0, 0), BuildingBlock: EZIPEK_clean_linker_0, # of connection points: 2
#     Edge 109, Type (0, 0), BuildingBlock: EZIPEK_clean_linker_0, # of connection points: 2
#     Edge 110, Type (0, 0), BuildingBlock: EZIPEK_clean_linker_0, # of connection points: 2
#     Edge 111, Type (0, 0), BuildingBlock: EZIPEK_clean_linker_0, # of connection points: 2
#     Edge 112, Type (0, 0), BuildingBlock: EZIPEK_clean_linker_0, # of connection points: 2
#     Edge 113, Type (0, 0), BuildingBlock: EZIPEK_clean_linker_0, # of connection points: 2
#     Edge 114, Type (0, 0), BuildingBlock: EZIPEK_clean_linker_0, # of connection points: 2
#     Edge 115, Type (0, 0), BuildingBlock: EZIPEK_clean_linker_0, # of connection points: 2
#     Edge 116, Type (0, 0), BuildingBlock: EZIPEK_clean_linker_0, # of connection points: 2
#     Edge 117, Type (0, 0), BuildingBlock: EZIPEK_clean_linker_0, # of connection points: 2
#     Edge 118, Type (0, 0), BuildingBlock: EZIPEK_clean_linker_0, # of connection points: 2
#     Edge 119, Type (0, 0), BuildingBlock: EZIPEK_clean_linker_0, # of connection points: 2
#     Edge 120, Type (0, 0), BuildingBlock: EZIPEK_clean_linker_0, # of connection points: 2
#     Edge 121, Type (0, 0), BuildingBlock: EZIPEK_clean_linker_0, # of connection points: 2
#     Edge 122, Type (0, 0), BuildingBlock: EZIPEK_clean_linker_0, # of connection points: 2
#     Edge 123, Type (0, 0), BuildingBlock: EZIPEK_clean_linker_0, # of connection points: 2
#     Edge 124, Type (0, 0), BuildingBlock: EZIPEK_clean_linker_0, # of connection points: 2
#     Edge 125, Type (0, 0), BuildingBlock: EZIPEK_clean_linker_0, # of connection points: 2
#     Edge 126, Type (0, 0), BuildingBlock: EZIPEK_clean_linker_0, # of connection points: 2
#     Edge 127, Type (0, 0), BuildingBlock: EZIPEK_clean_linker_0, # of connection points: 2
#     Edge 128, Type (0, 0), BuildingBlock: EZIPEK_clean_linker_0, # of connection points: 2
#     Edge 129, Type (0, 0), BuildingBlock: EZIPEK_clean_linker_0, # of connection points: 2
#     Edge 130, Type (0, 0), BuildingBlock: EZIPEK_clean_linker_0, # of connection points: 2
#     Edge 131, Type (0, 0), BuildingBlock: EZIPEK_clean_linker_0, # of connection points: 2
#     Edge 132, Type (0, 0), BuildingBlock: EZIPEK_clean_linker_0, # of connection points: 2
#     Edge 133, Type (0, 0), BuildingBlock: EZIPEK_clean_linker_0, # of connection points: 2
#     Edge 134, Type (0, 0), BuildingBlock: EZIPEK_clean_linker_0, # of connection points: 2
#     Edge 135, Type (0, 0), BuildingBlock: EZIPEK_clean_linker_0, # of connection points: 2
#     Edge 136, Type (0, 0), BuildingBlock: EZIPEK_clean_linker_0, # of connection points: 2
#     Edge 137, Type (0, 0), BuildingBlock: EZIPEK_clean_linker_0, # of connection points: 2
#     Edge 138, Type (0, 0), BuildingBlock: EZIPEK_clean_linker_0, # of connection points: 2
#     Edge 139, Type (0, 0), BuildingBlock: EZIPEK_clean_linker_0, # of connection points: 2
#     Edge 140, Type (0, 0), BuildingBlock: EZIPEK_clean_linker_0, # of connection points: 2
#     Edge 141, Type (0, 0), BuildingBlock: EZIPEK_clean_linker_0, # of connection points: 2
#     Edge 142, Type (0, 0), BuildingBlock: EZIPEK_clean_linker_0, # of connection points: 2
#     Edge 143, Type (0, 0), BuildingBlock: EZIPEK_clean_linker_0, # of connection points: 2
# Relax obj value: 0.097
# Max RMSD: 0.124
# Mean RMSD: 0.116
data_MOF--net-rho--node1-KUFVIS_clean_sbu_0--edge1-EZIPEK_clean_linker_0
_symmetry_space_group_name_H-M    P1
_symmetry_Int_Tables_number       1
_symmetry_cell_setting            triclinic
loop_
_symmetry_equiv_pos_as_xyz
'x, y, z'
_cell_length_a     52.51646
_cell_length_b     52.214282
_cell_length_c     52.414298
_cell_angle_alpha  90.114071
_cell_angle_beta   90.188015
_cell_angle_gamma 90.805149
loop_
_atom_site_label
_atom_site_type_symbol
_atom_site_fract_x
_atom_site_fract_y
_atom_site_fract_z
_atom_type_partial_charge
Mn0 Mn 0.1022 0.23958 0.39192 0.0
Mn1 Mn 0.09281 0.30097 0.40961 0.0
C2 C 0.10416 0.24573 0.4361 0.0
C3 C 0.13206 0.21057 0.37662 0.0
C4 C 0.05017 0.26391 0.39243 0.0
O5 O 0.10236 0.26058 0.35905 0.0
O6 O 0.11133 0.29839 0.37665 0.0
C7 C 0.1441 0.30314 0.42787 0.0
N8 N 0.12098 0.31424 0.42626 0.0
C9 C 0.12809 0.32835 0.47569 0.0
C10 C 0.1514 0.31473 0.47357 0.0
C11 C 0.15929 0.3045 0.45006 0.0
C12 C 0.1112 0.32775 0.44552 0.0
H13 H 0.15047 0.29138 0.41218 0.0
C14 C 0.10819 0.28414 0.35713 0.0
O15 O 0.10796 0.20773 0.37149 0.0
O16 O 0.13894 0.23126 0.38856 0.0
N17 N 0.07643 0.31212 0.44044 0.0
C18 C 0.07192 0.29063 0.45919 0.0
C19 C 0.0651 0.29406 0.4892 0.0
C20 C 0.05745 0.34207 0.50461 0.0
C21 C 0.0645 0.36225 0.47498 0.0
C22 C 0.07927 0.34159 0.44365 0.0
H23 H 0.06717 0.27251 0.45088 0.0
O24 O 0.10338 0.2233 0.42584 0.0
O25 O 0.1036 0.26509 0.41971 0.0
O26 O 0.06322 0.24328 0.39307 0.0
O27 O 0.06031 0.28659 0.39414 0.0
C28 C 0.07891 0.37115 0.49967 0.0
C29 C 0.10479 0.35842 0.50772 0.0
H30 H 0.16455 0.31212 0.48919 0.0
H31 H 0.17754 0.29513 0.44954 0.0
H32 H 0.0597 0.27614 0.49804 0.0
H33 H 0.04821 0.3492 0.52242 0.0
H34 H 0.07171 0.38706 0.51101 0.0
H35 H 0.11036 0.3661 0.52653 0.0
Mn36 Mn 0.74117 0.10167 0.39475 0.0
Mn37 Mn 0.79792 0.08206 0.41784 0.0
C38 C 0.7483 0.05805 0.4006 0.0
C39 C 0.71429 0.11138 0.36053 0.0
C40 C 0.75608 0.10433 0.4514 0.0
O41 O 0.76405 0.13367 0.39037 0.0
O42 O 0.80107 0.11711 0.40388 0.0
C43 C 0.82289 0.07961 0.36734 0.0
N44 N 0.81584 0.06793 0.3895 0.0
C45 C 0.83143 0.0274 0.37477 0.0
C46 C 0.83903 0.03903 0.35189 0.0
C47 C 0.83468 0.06524 0.34815 0.0
C48 C 0.81941 0.04261 0.39304 0.0
H49 H 0.81937 0.09968 0.36422 0.0
C50 C 0.78803 0.13532 0.39459 0.0
O51 O 0.70998 0.1199 0.38337 0.0
O52 O 0.73535 0.09911 0.35721 0.0
N53 N 0.79923 0.04839 0.43204 0.0
C54 C 0.79542 0.04157 0.45684 0.0
C55 C 0.80096 0.01656 0.46472 0.0
C56 C 0.81105 0.99904 0.44724 0.0
C57 C 0.81659 0.00705 0.42235 0.0
C58 C 0.81118 0.0324 0.41581 0.0
H59 H 0.78812 0.05512 0.4705 0.0
O60 O 0.7254 0.06672 0.39879 0.0
O61 O 0.76646 0.07513 0.39874 0.0
O62 O 0.7399 0.10766 0.4335 0.0
O63 O 0.77859 0.09563 0.44779 0.0
C64 C 0.82833 0.99126 0.40417 0.0
C65 C 0.83549 0.00136 0.38026 0.0
H66 H 0.84826 0.02805 0.3371 0.0
H67 H 0.84038 0.07435 0.33049 0.0
H68 H 0.79749 0.01079 0.4842 0.0
H69 H 0.81516 0.97972 0.45335 0.0
H70 H 0.83237 0.97146 0.40854 0.0
H71 H 0.84467 0.9891 0.36647 0.0
Mn72 Mn 0.89598 0.75682 0.40353 0.0
Mn73 Mn 0.91125 0.69876 0.42752 0.0
C74 C 0.90019 0.75337 0.44779 0.0
C75 C 0.86427 0.78471 0.38971 0.0
C76 C 0.94952 0.73426 0.40052 0.0
O77 O 0.89045 0.73272 0.37348 0.0
O78 O 0.89538 0.69478 0.39297 0.0
C79 C 0.85873 0.67611 0.42979 0.0
N80 N 0.88004 0.68287 0.44328 0.0
C81 C 0.86543 0.64702 0.47777 0.0
C82 C 0.84342 0.6432 0.46034 0.0
C83 C 0.84046 0.65815 0.43844 0.0
C84 C 0.88248 0.67526 0.46765 0.0
H85 H 0.85547 0.68437 0.41132 0.0
C86 C 0.89021 0.70837 0.37337 0.0
O87 O 0.88759 0.78703 0.38172 0.0
O88 O 0.85912 0.76549 0.40448 0.0
N89 N 0.9306 0.69854 0.45976 0.0
C90 C 0.96116 0.70582 0.46285 0.0
C91 C 0.98065 0.7018 0.49119 0.0
C92 C 0.96648 0.68673 0.51899 0.0
C93 C 0.92246 0.67486 0.50789 0.0
C94 C 0.91023 0.68714 0.4784 0.0
H95 H 0.97072 0.71483 0.44725 0.0
O96 O 0.90041 0.77525 0.43627 0.0
O97 O 0.89686 0.73339 0.43278 0.0
O98 O 0.93506 0.75377 0.39851 0.0
O99 O 0.94178 0.71337 0.41077 0.0
C100 C 0.90498 0.6333 0.52156 0.0
C101 C 0.8762 0.62515 0.50417 0.0
H102 H 0.82991 0.62784 0.4641 0.0
H103 H 0.82408 0.65426 0.42637 0.0
H104 H 1.00055 0.70745 0.49119 0.0
H105 H 0.97802 0.68082 0.5352 0.0
H106 H 0.91239 0.62029 0.53593 0.0
H107 H 0.86866 0.63459 0.49047 0.0
Mn108 Mn 0.26181 0.90004 0.38924 0.0
Mn109 Mn 0.21121 0.92834 0.41656 0.0
C110 C 0.26251 0.9443 0.39572 0.0
C111 C 0.28524 0.88792 0.35353 0.0
C112 C 0.24964 0.897 0.44631 0.0
O113 O 0.23337 0.87259 0.38652 0.0
O114 O 0.19998 0.89563 0.40044 0.0
C115 C 0.18169 0.94066 0.37008 0.0
N116 N 0.19349 0.94839 0.392 0.0
C117 C 0.1812 0.99208 0.38529 0.0
C118 C 0.16881 0.98461 0.36267 0.0
C119 C 0.16914 0.9588 0.35499 0.0
C120 C 0.19352 0.97319 0.39943 0.0
H121 H 0.18193 0.92084 0.36417 0.0
C122 C 0.20962 0.87513 0.39142 0.0
O123 O 0.28855 0.87697 0.37548 0.0
O124 O 0.266 0.90309 0.35151 0.0
N125 N 0.21904 0.96002 0.43315 0.0
C126 C 0.23157 0.96387 0.45568 0.0
C127 C 0.23257 0.98844 0.4664 0.0
C128 C 0.22066 0.00873 0.45387 0.0
C129 C 0.20748 0.0043 0.43093 0.0
C130 C 0.20678 0.97928 0.4214 0.0
H131 H 0.24054 0.94832 0.46557 0.0
O132 O 0.28329 0.93182 0.39212 0.0
O133 O 0.24171 0.93041 0.39518 0.0
O134 O 0.26504 0.89289 0.42796 0.0
O135 O 0.2287 0.90884 0.44361 0.0
C136 C 0.19498 0.02362 0.41716 0.0
C137 C 0.18201 0.01755 0.39426 0.0
H138 H 0.1591 0.99853 0.35099 0.0
H139 H 0.15971 0.9529 0.33751 0.0
H140 H 0.2426 0.99177 0.4842 0.0
H141 H 0.22207 0.02757 0.46205 0.0
H142 H 0.19527 0.04321 0.42391 0.0
H143 H 0.17268 0.0326 0.38373 0.0
Mn144 Mn 0.10527 0.74084 0.61334 0.0
Mn145 Mn 0.08331 0.79759 0.59223 0.0
C146 C 0.06181 0.74612 0.60808 0.0
C147 C 0.11657 0.71636 0.64988 0.0
C148 C 0.10586 0.75761 0.55675 0.0
O149 O 0.13626 0.76446 0.6176 0.0
O150 O 0.1191 0.80178 0.60525 0.0
C151 C 0.08136 0.82372 0.64238 0.0
N152 N 0.06931 0.81512 0.62093 0.0
C153 C 0.02892 0.82996 0.63621 0.0
C154 C 0.04091 0.83878 0.65856 0.0
C155 C 0.06726 0.83567 0.66163 0.0
C156 C 0.04396 0.81802 0.61778 0.0
H157 H 0.10155 0.82153 0.6447 0.0
C158 C 0.13776 0.78849 0.61351 0.0
O159 O 0.1246 0.71048 0.62716 0.0
O160 O 0.1026 0.73641 0.6508 0.0
N161 N 0.04927 0.79705 0.57901 0.0
C162 C 0.04118 0.79 0.55524 0.0
C163 C 0.01554 0.79322 0.54842 0.0
C164 C 0.99858 0.80399 0.56597 0.0
C165 C 0.00757 0.81209 0.5899 0.0
C166 C 0.03342 0.8088 0.59543 0.0
H167 H 0.05417 0.78191 0.54159 0.0
O168 O 0.07138 0.72347 0.60958 0.0
O169 O 0.07802 0.76515 0.61003 0.0
O170 O 0.11084 0.74059 0.57378 0.0
O171 O 0.09634 0.77946 0.56201 0.0
C172 C 0.99202 0.8238 0.60826 0.0
C173 C 0.00266 0.83259 0.63147 0.0
H174 H 0.0301 0.84806 0.67342 0.0
H175 H 0.07669 0.84251 0.67877 0.0
H176 H 0.00884 0.78734 0.52973 0.0
H177 H 0.97882 0.80641 0.56072 0.0
H178 H 0.97189 0.82633 0.60463 0.0
H179 H 0.99053 0.84165 0.64542 0.0
Mn180 Mn 0.23379 0.10867 0.60282 0.0
Mn181 Mn 0.29249 0.09321 0.58058 0.0
C182 C 0.23885 0.10509 0.55864 0.0
C183 C 0.20493 0.13977 0.61569 0.0
C184 C 0.25381 0.05359 0.60121 0.0
O185 O 0.25644 0.11328 0.63436 0.0
O186 O 0.29401 0.10574 0.61609 0.0
C187 C 0.31479 0.14658 0.58418 0.0
N188 N 0.30781 0.12667 0.56852 0.0
C189 C 0.33942 0.14895 0.53494 0.0
C190 C 0.3439 0.1678 0.55301 0.0
C191 C 0.33107 0.16698 0.57647 0.0
C192 C 0.31388 0.12794 0.54357 0.0
H193 H 0.30834 0.14699 0.60364 0.0
C194 C 0.28058 0.11203 0.63517 0.0
O195 O 0.20292 0.11627 0.62356 0.0
O196 O 0.22492 0.14565 0.60237 0.0
N197 N 0.29695 0.07676 0.5474 0.0
C198 C 0.29481 0.04569 0.54252 0.0
C199 C 0.30194 0.02867 0.51336 0.0
C200 C 0.31543 0.04647 0.487 0.0
C201 C 0.32057 0.09116 0.50111 0.0
C202 C 0.30594 0.09971 0.53059 0.0
H203 H 0.29156 0.0336 0.55877 0.0
O204 O 0.21673 0.10526 0.56937 0.0
O205 O 0.25826 0.10809 0.5743 0.0
O206 O 0.23591 0.06932 0.60591 0.0
O207 O 0.27592 0.06055 0.59281 0.0
C208 C 0.35914 0.11543 0.48982 0.0
C209 C 0.36211 0.14376 0.50973 0.0
H210 H 0.35843 0.18231 0.54973 0.0
H211 H 0.33542 0.18188 0.59027 0.0
H212 H 0.30036 0.00801 0.51252 0.0
H213 H 0.32378 0.03685 0.47064 0.0
H214 H 0.37349 0.11095 0.47559 0.0
H215 H 0.37814 0.15675 0.50734 0.0
Mn216 Mn 0.89755 0.26607 0.60622 0.0
Mn217 Mn 0.92696 0.21087 0.59146 0.0
C218 C 0.94153 0.26557 0.60083 0.0
C219 C 0.88421 0.29762 0.63505 0.0
C220 C 0.90089 0.2429 0.55182 0.0
O221 O 0.87005 0.23972 0.61564 0.0
O222 O 0.89051 0.20479 0.6015 0.0
C223 C 0.92611 0.18879 0.64349 0.0
N224 N 0.93937 0.19622 0.62242 0.0
C225 C 0.97868 0.18148 0.64057 0.0
C226 C 0.96542 0.17365 0.66245 0.0
C227 C 0.93903 0.17741 0.66394 0.0
C228 C 0.9648 0.19283 0.62086 0.0
H229 H 0.90583 0.19146 0.64466 0.0
C230 C 0.87092 0.21573 0.61098 0.0
O231 O 0.87445 0.29579 0.61231 0.0
O232 O 0.8998 0.27984 0.64177 0.0
N233 N 0.96194 0.21324 0.58157 0.0
C234 C 0.97204 0.22257 0.55947 0.0
C235 C 0.99836 0.22101 0.55533 0.0
C236 C 0.01394 0.20926 0.5736 0.0
C237 C 0.00304 0.1993 0.59592 0.0
C238 C 0.97672 0.20167 0.59914 0.0
H239 H 0.96014 0.23144 0.54526 0.0
O240 O 0.92864 0.2863 0.59813 0.0
O241 O 0.92827 0.24512 0.60685 0.0
O242 O 0.89104 0.25865 0.56766 0.0
O243 O 0.91567 0.22496 0.55863 0.0
C244 C 0.01732 0.18745 0.61527 0.0
C245 C 0.00516 0.17862 0.63762 0.0
H246 H 0.97532 0.16483 0.67825 0.0
H247 H 0.92866 0.17144 0.68077 0.0
H248 H 0.00656 0.2288 0.53807 0.0
H249 H 0.03424 0.20806 0.57038 0.0
H250 H 0.03772 0.18538 0.61334 0.0
H251 H 0.01639 0.16985 0.65252 0.0
Mn252 Mn 0.76117 0.89482 0.5998 0.0
Mn253 Mn 0.70206 0.90968 0.57858 0.0
C254 C 0.75686 0.89349 0.55525 0.0
C255 C 0.78803 0.86336 0.61604 0.0
C256 C 0.74153 0.94898 0.599 0.0
O257 O 0.7383 0.89568 0.63147 0.0
O258 O 0.70137 0.8906 0.61111 0.0
C259 C 0.69565 0.85855 0.55918 0.0
N260 N 0.68688 0.88275 0.56121 0.0
C261 C 0.67219 0.8779 0.51166 0.0
C262 C 0.6831 0.85306 0.51343 0.0
C263 C 0.69259 0.8438 0.53678 0.0
C264 C 0.67446 0.89418 0.54216 0.0
H265 H 0.70666 0.85074 0.57474 0.0
C266 C 0.71427 0.89242 0.63155 0.0
O267 O 0.79141 0.88739 0.62166 0.0
O268 O 0.76768 0.85734 0.60316 0.0
N269 N 0.6934 0.92742 0.54789 0.0
C270 C 0.71502 0.92972 0.52915 0.0
C271 C 0.71249 0.93783 0.49931 0.0
C272 C 0.66567 0.9507 0.48433 0.0
C273 C 0.64519 0.94505 0.51379 0.0
C274 C 0.66403 0.92753 0.54466 0.0
H275 H 0.73316 0.93052 0.53733 0.0
O276 O 0.7787 0.89314 0.56653 0.0
O277 O 0.73699 0.89519 0.57066 0.0
O278 O 0.7607 0.9341 0.59946 0.0
O279 O 0.71849 0.94118 0.59434 0.0
C280 C 0.6349 0.93204 0.4888 0.0
C281 C 0.6449 0.90502 0.48013 0.0
H282 H 0.68396 0.83973 0.49771 0.0
H283 H 0.69989 0.8245 0.53703 0.0
H284 H 0.73085 0.94031 0.48993 0.0
H285 H 0.65944 0.96093 0.46664 0.0
H286 H 0.61984 0.94107 0.4777 0.0
H287 H 0.63673 0.90063 0.46122 0.0
Mn288 Mn 0.38891 0.1038 0.25691 0.0
Mn289 Mn 0.40342 0.09735 0.19489 0.0
C290 C 0.39039 0.06243 0.24002 0.0
C291 C 0.35877 0.11191 0.28861 0.0
C292 C 0.44436 0.10063 0.23531 0.0
O293 O 0.38655 0.14067 0.24368 0.0
O294 O 0.40226 0.13395 0.20478 0.0
C295 C 0.35454 0.11971 0.17747 0.0
N296 N 0.37068 0.0995 0.17854 0.0
C297 C 0.34141 0.07338 0.15406 0.0
C298 C 0.32442 0.09379 0.15305 0.0
C299 C 0.33109 0.11712 0.16475 0.0
C300 C 0.36457 0.07719 0.16702 0.0
H301 H 0.35948 0.13776 0.18603 0.0
C302 C 0.39436 0.14883 0.22222 0.0
O303 O 0.38287 0.11637 0.29252 0.0
O304 O 0.35215 0.10361 0.26621 0.0
N305 N 0.40433 0.06377 0.18095 0.0
C306 C 0.42408 0.04739 0.18035 0.0
C307 C 0.42018 0.02285 0.1704 0.0
C308 C 0.39683 0.01638 0.15878 0.0
C309 C 0.37789 0.0346 0.1567 0.0
C310 C 0.38239 0.05831 0.16826 0.0
H311 H 0.44249 0.05303 0.18743 0.0
O312 O 0.38996 0.06654 0.26434 0.0
O313 O 0.38722 0.08308 0.22588 0.0
O314 O 0.42858 0.10499 0.25359 0.0
O315 O 0.43722 0.09533 0.21226 0.0
C316 C 0.35456 0.02994 0.14406 0.0
C317 C 0.33634 0.04942 0.14262 0.0
H318 H 0.30634 0.09183 0.1432 0.0
H319 H 0.31824 0.13312 0.16389 0.0
H320 H 0.43498 0.0091 0.17234 0.0
H321 H 0.39313 0.99745 0.15178 0.0
H322 H 0.35057 0.01153 0.13521 0.0
H323 H 0.31856 0.04582 0.13263 0.0
Mn324 Mn 0.90449 0.40087 0.25383 0.0
Mn325 Mn 0.93312 0.41386 0.19778 0.0
C326 C 0.94855 0.40296 0.25219 0.0
C327 C 0.88746 0.37118 0.28246 0.0
C328 C 0.90847 0.45483 0.23068 0.0
O329 O 0.87573 0.39573 0.22793 0.0
O330 O 0.89715 0.40209 0.19124 0.0
C331 C 0.93459 0.36132 0.17666 0.0
N332 N 0.94701 0.38318 0.18403 0.0
C333 C 0.98744 0.36615 0.17148 0.0
C334 C 0.97506 0.34346 0.1637 0.0
C335 C 0.94852 0.34102 0.16637 0.0
C336 C 0.97255 0.38568 0.18166 0.0
H337 H 0.91421 0.35943 0.17861 0.0
C338 C 0.87678 0.39656 0.20363 0.0
O339 O 0.88059 0.39498 0.28289 0.0
O340 O 0.90271 0.36434 0.26438 0.0
N341 N 0.96774 0.42556 0.20075 0.0
C342 C 0.97687 0.44842 0.20973 0.0
C343 C 0.00314 0.45368 0.20904 0.0
C344 C 0.01976 0.43553 0.19881 0.0
C345 C 0.00989 0.41235 0.18917 0.0
C346 C 0.98351 0.40818 0.19039 0.0
H347 H 0.96427 0.46234 0.21783 0.0
O348 O 0.93658 0.40488 0.27367 0.0
O349 O 0.93423 0.39899 0.23208 0.0
O350 O 0.90256 0.44015 0.24934 0.0
O351 O 0.91979 0.44645 0.21094 0.0
C352 C 0.02521 0.39312 0.17862 0.0
C353 C 0.01399 0.37003 0.16978 0.0
H354 H 0.98575 0.32776 0.15577 0.0
H355 H 0.93884 0.32355 0.16047 0.0
H356 H 0.01055 0.47168 0.2164 0.0
H357 H 0.04005 0.43958 0.19847 0.0
H358 H 0.04567 0.39577 0.17748 0.0
H359 H 0.026 0.35527 0.16197 0.0
Mn360 Mn 0.60096 0.88656 0.24713 0.0
Mn361 Mn 0.57343 0.91036 0.30029 0.0
C362 C 0.55744 0.8929 0.24773 0.0
C363 C 0.61526 0.85108 0.22354 0.0
C364 C 0.60074 0.94393 0.26191 0.0
O365 O 0.62864 0.88197 0.27348 0.0
O366 O 0.60907 0.89864 0.3078 0.0
C367 C 0.56985 0.86204 0.32962 0.0
N368 N 0.55836 0.88261 0.3189 0.0
C369 C 0.5174 0.86898 0.33475 0.0
C370 C 0.5288 0.84755 0.34582 0.0
C371 C 0.55514 0.84406 0.34322 0.0
C372 C 0.53303 0.88618 0.32132 0.0
H373 H 0.59008 0.85948 0.32793 0.0
C374 C 0.62829 0.88837 0.29686 0.0
O375 O 0.62403 0.87413 0.21954 0.0
O376 O 0.59843 0.84896 0.24142 0.0
N377 N 0.53939 0.92247 0.29637 0.0
C378 C 0.53132 0.94419 0.28461 0.0
C379 C 0.50535 0.95026 0.28505 0.0
C380 C 0.48807 0.93434 0.29816 0.0
C381 C 0.49695 0.91257 0.31084 0.0
C382 C 0.52301 0.90737 0.30954 0.0
H383 H 0.54453 0.95666 0.2747 0.0
O384 O 0.56978 0.89086 0.22647 0.0
O385 O 0.57094 0.89043 0.26856 0.0
O386 O 0.60814 0.92588 0.24714 0.0
O387 O 0.58749 0.94 0.28193 0.0
C388 C 0.48093 0.89569 0.32452 0.0
C389 C 0.49114 0.87387 0.33641 0.0
H390 H 0.51753 0.83365 0.35635 0.0
H391 H 0.56411 0.82762 0.35177 0.0
H392 H 0.49869 0.9672 0.27538 0.0
H393 H 0.46805 0.93904 0.29842 0.0
H394 H 0.46069 0.89916 0.3258 0.0
H395 H 0.47859 0.86091 0.34667 0.0
Mn396 Mn 0.10957 0.59614 0.25331 0.0
Mn397 Mn 0.08274 0.58938 0.31158 0.0
C398 C 0.09911 0.55431 0.26684 0.0
C399 C 0.14523 0.6015 0.22721 0.0
C400 C 0.05383 0.60699 0.26477 0.0
O401 O 0.11704 0.63061 0.27017 0.0
O402 O 0.10218 0.62223 0.30935 0.0
C403 C 0.12896 0.5856 0.34374 0.0
N404 N 0.10533 0.57702 0.33699 0.0
C405 C 0.10162 0.55197 0.37524 0.0
C406 C 0.126 0.56047 0.38267 0.0
C407 C 0.13987 0.57712 0.36667 0.0
C408 C 0.09217 0.56045 0.35178 0.0
H409 H 0.13912 0.59899 0.33182 0.0
C410 C 0.11338 0.63682 0.2933 0.0
O411 O 0.1231 0.60988 0.2205 0.0
O412 O 0.14683 0.59005 0.24913 0.0
N413 N 0.06238 0.55973 0.31878 0.0
C414 C 0.03953 0.5527 0.30832 0.0
C415 C 0.02332 0.53578 0.3216 0.0
C416 C 0.03035 0.52695 0.34591 0.0
C417 C 0.05379 0.53476 0.3565 0.0
C418 C 0.06923 0.55143 0.34222 0.0
H419 H 0.03324 0.5607 0.29044 0.0
O420 O 0.10203 0.56032 0.24305 0.0
O421 O 0.10261 0.57333 0.28314 0.0
O422 O 0.07188 0.60549 0.24872 0.0
O423 O 0.05666 0.60223 0.28835 0.0
C424 C 0.06254 0.52654 0.38055 0.0
C425 C 0.08653 0.53495 0.38982 0.0
H426 H 0.13433 0.5542 0.40048 0.0
H427 H 0.15869 0.58378 0.37223 0.0
H428 H 0.00517 0.53008 0.31341 0.0
H429 H 0.01772 0.51407 0.35617 0.0
H430 H 0.05111 0.51349 0.39194 0.0
H431 H 0.09326 0.52809 0.40809 0.0
Mn432 Mn 0.40685 0.89252 0.75702 0.0
Mn433 Mn 0.436 0.90699 0.70155 0.0
C434 C 0.45085 0.8948 0.75579 0.0
C435 C 0.38964 0.86168 0.78445 0.0
C436 C 0.41158 0.94721 0.73535 0.0
O437 O 0.37821 0.88851 0.73104 0.0
O438 O 0.39989 0.89622 0.69476 0.0
C439 C 0.43623 0.85479 0.67956 0.0
N440 N 0.44913 0.87635 0.68702 0.0
C441 C 0.48906 0.85889 0.67355 0.0
C442 C 0.47619 0.83656 0.66554 0.0
C443 C 0.44967 0.83447 0.66865 0.0
C444 C 0.47466 0.87846 0.68436 0.0
H445 H 0.41585 0.85314 0.68195 0.0
C446 C 0.37939 0.89059 0.70686 0.0
O447 O 0.38291 0.88551 0.78587 0.0
O448 O 0.40492 0.85557 0.76616 0.0
N449 N 0.47083 0.91792 0.70456 0.0
C450 C 0.48045 0.94044 0.7139 0.0
C451 C 0.5068 0.94526 0.71294 0.0
C452 C 0.52295 0.92709 0.702 0.0
C453 C 0.51255 0.90433 0.69193 0.0
C454 C 0.48614 0.90055 0.69349 0.0
H455 H 0.46817 0.95442 0.72242 0.0
O456 O 0.43871 0.89584 0.77721 0.0
O457 O 0.43677 0.89132 0.73543 0.0
O458 O 0.40503 0.93202 0.75346 0.0
O459 O 0.42335 0.93934 0.71567 0.0
C460 C 0.52737 0.8851 0.68065 0.0
C461 C 0.51564 0.86238 0.67152 0.0
H462 H 0.48649 0.82083 0.65714 0.0
H463 H 0.43962 0.81725 0.66264 0.0
H464 H 0.51462 0.96296 0.7206 0.0
H465 H 0.54328 0.93081 0.70143 0.0
H466 H 0.54784 0.88745 0.67922 0.0
H467 H 0.52728 0.84759 0.6632 0.0
Mn468 Mn 0.11644 0.39817 0.75042 0.0
Mn469 Mn 0.09427 0.42843 0.69783 0.0
C470 C 0.1108 0.44213 0.75096 0.0
C471 C 0.14986 0.38468 0.7769 0.0
C472 C 0.05975 0.40012 0.73457 0.0
O473 O 0.12173 0.37125 0.72298 0.0
O474 O 0.10551 0.39281 0.68945 0.0
C475 C 0.14283 0.43225 0.66944 0.0
N476 N 0.12247 0.44378 0.68032 0.0
C477 C 0.13746 0.48539 0.66689 0.0
C478 C 0.15868 0.47393 0.65569 0.0
C479 C 0.16136 0.44723 0.65698 0.0
C480 C 0.11964 0.46946 0.6791 0.0
H481 H 0.14481 0.41177 0.67015 0.0
C482 C 0.11557 0.37291 0.69949 0.0
O483 O 0.12712 0.37475 0.77875 0.0
O484 O 0.15369 0.40031 0.75807 0.0
N485 N 0.08283 0.46275 0.70286 0.0
C486 C 0.06117 0.47084 0.71447 0.0
C487 C 0.05585 0.49712 0.71524 0.0
C488 C 0.07248 0.51473 0.70349 0.0
C489 C 0.09418 0.50588 0.69089 0.0
C490 C 0.09859 0.47948 0.69091 0.0
H491 H 0.04818 0.45739 0.72336 0.0
O492 O 0.11143 0.42889 0.77179 0.0
O493 O 0.11376 0.42926 0.72982 0.0
O494 O 0.07739 0.39149 0.74901 0.0
O495 O 0.06409 0.41417 0.71513 0.0
C496 C 0.11174 0.52224 0.67851 0.0
C497 C 0.13339 0.51201 0.66656 0.0
H498 H 0.17302 0.48543 0.64607 0.0
H499 H 0.17764 0.43822 0.64831 0.0
H500 H 0.03895 0.50376 0.72483 0.0
H501 H 0.06837 0.535 0.7042 0.0
H502 H 0.1089 0.54275 0.67827 0.0
H503 H 0.14685 0.5248 0.65728 0.0
Mn504 Mn 0.60742 0.09345 0.75334 0.0
Mn505 Mn 0.58215 0.08965 0.81249 0.0
C506 C 0.59894 0.0524 0.77008 0.0
C507 C 0.64238 0.09946 0.72639 0.0
C508 C 0.55159 0.10331 0.76522 0.0
O509 O 0.61314 0.12937 0.76766 0.0
O510 O 0.60101 0.12267 0.80812 0.0
C511 C 0.629 0.08847 0.84393 0.0
N512 N 0.60564 0.07869 0.83779 0.0
C513 C 0.60336 0.0551 0.87704 0.0
C514 C 0.62756 0.06468 0.88374 0.0
C515 C 0.6406 0.08116 0.86692 0.0
C516 C 0.59345 0.06198 0.85324 0.0
H517 H 0.63842 0.10198 0.83151 0.0
C518 C 0.61058 0.13674 0.79061 0.0
O519 O 0.61953 0.1056 0.71958 0.0
O520 O 0.64512 0.08944 0.7489 0.0
N521 N 0.56252 0.05994 0.82135 0.0
C522 C 0.53928 0.05252 0.81204 0.0
C523 C 0.52349 0.03636 0.82663 0.0
C524 C 0.53124 0.02881 0.85113 0.0
C525 C 0.55508 0.0369 0.86049 0.0
C526 C 0.57027 0.05246 0.84478 0.0
H527 H 0.53232 0.05975 0.79408 0.0
O528 O 0.60178 0.05649 0.74586 0.0
O529 O 0.60176 0.07276 0.78467 0.0
O530 O 0.56919 0.10044 0.74885 0.0
O531 O 0.5553 0.10098 0.78909 0.0
C532 C 0.56431 0.03031 0.88489 0.0
C533 C 0.58855 0.03918 0.89305 0.0
H534 H 0.63624 0.05962 0.90179 0.0
H535 H 0.65921 0.08877 0.872 0.0
H536 H 0.50502 0.03042 0.81935 0.0
H537 H 0.51881 0.01673 0.86251 0.0
H538 H 0.55303 0.01823 0.89742 0.0
H539 H 0.59558 0.03368 0.91167 0.0
Mn540 Mn 0.90398 0.61523 0.75511 0.0
Mn541 Mn 0.91722 0.60625 0.81688 0.0
C542 C 0.94721 0.61431 0.76791 0.0
C543 C 0.89105 0.64425 0.72306 0.0
C544 C 0.90712 0.5616 0.78111 0.0
O545 O 0.86838 0.61875 0.77167 0.0
O546 O 0.88065 0.60848 0.81086 0.0
C547 C 0.89959 0.65841 0.83019 0.0
N548 N 0.91828 0.64052 0.83016 0.0
C549 C 0.94774 0.67008 0.85006 0.0
C550 C 0.9288 0.68871 0.85045 0.0
C551 C 0.90459 0.68283 0.84046 0.0
C552 C 0.94151 0.646 0.83975 0.0
H553 H 0.88097 0.65426 0.82239 0.0
C554 C 0.86334 0.6137 0.79486 0.0
O555 O 0.88742 0.61967 0.72081 0.0
O556 O 0.9033 0.6514 0.74337 0.0
N557 N 0.95166 0.60454 0.82731 0.0
C558 C 0.96749 0.58435 0.82594 0.0
C559 C 0.99278 0.58778 0.83338 0.0
C560 C 1.00094 0.61116 0.84406 0.0
C561 C 0.98385 0.63098 0.84724 0.0
C562 C 0.9591 0.6269 0.83839 0.0
H563 H 0.96141 0.56662 0.81721 0.0
O564 O 0.9406 0.61241 0.74418 0.0
O565 O 0.92815 0.61901 0.78341 0.0
O566 O 0.90217 0.57598 0.76179 0.0
O567 O 0.9154 0.57078 0.80251 0.0
C568 C 0.99078 0.65498 0.85768 0.0
C569 C 0.97265 0.67454 0.85919 0.0
H570 H 0.93267 0.70761 0.85822 0.0
H571 H 0.88985 0.69711 0.84057 0.0
H572 H 0.00604 0.57305 0.82908 0.0
H573 H 0.02055 0.61463 0.84834 0.0
H574 H 0.01003 0.65861 0.86442 0.0
H575 H 0.97811 0.69298 0.86717 0.0
Mn576 Mn 0.25889 0.39314 0.09602 0.0
Mn577 Mn 0.19803 0.4056 0.08112 0.0
C578 C 0.25037 0.40235 0.05272 0.0
C579 C 0.28853 0.3603 0.10308 0.0
C580 C 0.23348 0.4408 0.11327 0.0
O581 O 0.23746 0.38359 0.12752 0.0
O582 O 0.20259 0.37661 0.10498 0.0
C583 C 0.19101 0.35753 0.05063 0.0
N584 N 0.18816 0.38321 0.05289 0.0
C585 C 0.17409 0.38381 0.00385 0.0
C586 C 0.18042 0.35712 0.00419 0.0
C587 C 0.18731 0.34479 0.02708 0.0
C588 C 0.18034 0.39703 0.03288 0.0
H589 H 0.19749 0.34662 0.06684 0.0
C590 C 0.21367 0.37858 0.12664 0.0
O591 O 0.29112 0.38262 0.11376 0.0
O592 O 0.26819 0.35662 0.08944 0.0
N593 N 0.18754 0.43435 0.06 0.0
C594 C 0.1882 0.45959 0.06649 0.0
C595 C 0.17298 0.47807 0.05445 0.0
C596 C 0.15678 0.47249 0.03401 0.0
C597 C 0.15648 0.44831 0.02325 0.0
C598 C 0.1731 0.42642 0.04029 0.0
H599 H 0.20119 0.46608 0.08062 0.0
O600 O 0.27341 0.40211 0.06156 0.0
O601 O 0.23303 0.39944 0.07006 0.0
O602 O 0.25429 0.43038 0.10624 0.0
O603 O 0.21119 0.43073 0.10822 0.0
C604 C 0.14484 0.44598 0.9932 0.0
C605 C 0.14886 0.41715 0.9751 0.0
H606 H 0.17905 0.34471 0.9877 0.0
H607 H 0.19077 0.3244 0.02642 0.0
H608 H 0.17454 0.4978 0.0603 0.0
H609 H 0.14679 0.48794 0.02478 0.0
H610 H 0.14516 0.43243 0.98103 0.0
H611 H 0.14097 0.41312 0.9535 0.0
Mn612 Mn 0.25292 0.59233 0.89286 0.0
Mn613 Mn 0.30724 0.56691 0.91533 0.0
C614 C 0.25697 0.54758 0.8934 0.0
C615 C 0.2305 0.60887 0.85728 0.0
C616 C 0.26589 0.58991 0.94982 0.0
O617 O 0.27797 0.62322 0.89474 0.0
O618 O 0.314 0.60158 0.90154 0.0
C619 C 0.33232 0.56236 0.86507 0.0
N620 N 0.3244 0.55138 0.88729 0.0
C621 C 0.33859 0.50998 0.8736 0.0
C622 C 0.3471 0.52088 0.85068 0.0
C623 C 0.34383 0.54717 0.84636 0.0
C624 C 0.32673 0.52598 0.89129 0.0
H625 H 0.32968 0.58253 0.86157 0.0
C626 C 0.30223 0.62232 0.89709 0.0
O627 O 0.22436 0.61442 0.88063 0.0
O628 O 0.25028 0.59458 0.85488 0.0
N629 N 0.30537 0.53317 0.92945 0.0
C630 C 0.3002 0.52677 0.95415 0.0
C631 C 0.30482 0.50179 0.96271 0.0
C632 C 0.31552 0.48383 0.94606 0.0
C633 C 0.32191 0.49115 0.92117 0.0
C634 C 0.31737 0.51649 0.91394 0.0
H635 H 0.29274 0.54069 0.96731 0.0
O636 O 0.23485 0.55795 0.89094 0.0
O637 O 0.27589 0.5637 0.8955 0.0
O638 O 0.24942 0.59379 0.93218 0.0
O639 O 0.28854 0.58185 0.94529 0.0
C640 C 0.33365 0.47461 0.90366 0.0
C641 C 0.34164 0.48394 0.87971 0.0
H642 H 0.35622 0.50926 0.83631 0.0
H643 H 0.35022 0.55571 0.82866 0.0
H644 H 0.30032 0.49644 0.98214 0.0
H645 H 0.31918 0.46461 0.95269 0.0
H646 H 0.33698 0.45479 0.90857 0.0
H647 H 0.35073 0.47108 0.86641 0.0
Mn648 Mn 0.3952 0.23704 0.91395 0.0
Mn649 Mn 0.40681 0.17442 0.9218 0.0
C650 C 0.40015 0.22112 0.95551 0.0
C651 C 0.36548 0.26891 0.90616 0.0
C652 C 0.44817 0.21334 0.90679 0.0
O653 O 0.38791 0.22226 0.87837 0.0
O654 O 0.394 0.18091 0.88706 0.0
C655 C 0.35245 0.1591 0.91903 0.0
N656 N 0.3754 0.15828 0.9311 0.0
C657 C 0.36005 0.12638 0.9603 0.0
C658 C 0.33623 0.12669 0.94814 0.0
C659 C 0.3323 0.14344 0.92762 0.0
C660 C 0.37888 0.14355 0.95179 0.0
H661 H 0.34964 0.17155 0.90296 0.0
C662 C 0.38795 0.19879 0.8719 0.0
O663 O 0.38929 0.27203 0.90013 0.0
O664 O 0.35899 0.24753 0.91707 0.0
N665 N 0.41927 0.1626 0.95388 0.0
C666 C 0.44386 0.16327 0.96215 0.0
C667 C 0.45214 0.1451 0.97987 0.0
C668 C 0.43504 0.12628 0.98874 0.0
C669 C 0.40949 0.12682 0.98133 0.0
C670 C 0.40246 0.14507 0.96325 0.0
H671 H 0.45737 0.17672 0.95428 0.0
O672 O 0.40148 0.24545 0.95075 0.0
O673 O 0.39447 0.20673 0.93582 0.0
O674 O 0.4338 0.23294 0.90803 0.0
O675 O 0.43998 0.19072 0.91213 0.0
C676 C 0.39121 0.10861 0.98957 0.0
C677 C 0.36624 0.10898 0.97971 0.0
H678 H 0.32096 0.11396 0.9542 0.0
H679 H 0.314 0.14386 0.91809 0.0
H680 H 0.47191 0.14487 0.98574 0.0
H681 H 0.44185 0.11088 1.00053 0.0
H682 H 0.39623 0.09386 0.00305 0.0
H683 H 0.35232 0.09503 0.98634 0.0
Mn684 Mn 0.75277 0.39721 0.88121 0.0
Mn685 Mn 0.70384 0.43065 0.90567 0.0
C686 C 0.75463 0.44219 0.88087 0.0
C687 C 0.77768 0.37984 0.84902 0.0
C688 C 0.74401 0.40609 0.93878 0.0
O689 O 0.72422 0.37014 0.8813 0.0
O690 O 0.69384 0.39424 0.89927 0.0
C691 C 0.6688 0.42825 0.86121 0.0
N692 N 0.68174 0.44219 0.87915 0.0
C693 C 0.66059 0.48084 0.86671 0.0
C694 C 0.64698 0.4669 0.84814 0.0
C695 C 0.65124 0.44053 0.84526 0.0
C696 C 0.67798 0.4676 0.88187 0.0
H697 H 0.67174 0.40792 0.8592 0.0
C698 C 0.7017 0.3731 0.88991 0.0
O699 O 0.77906 0.37162 0.87227 0.0
O700 O 0.75879 0.39473 0.84364 0.0
N701 N 0.70992 0.46601 0.91251 0.0
C702 C 0.72677 0.47691 0.92909 0.0
C703 C 0.7269 0.50345 0.93258 0.0
C704 C 0.70879 0.51847 0.9199 0.0
C705 C 0.69144 0.50675 0.90299 0.0
C706 C 0.69295 0.48024 0.89958 0.0
H707 H 0.74015 0.46543 0.93932 0.0
O708 O 0.7747 0.42819 0.88011 0.0
O709 O 0.73308 0.42923 0.88199 0.0
O710 O 0.75593 0.39528 0.92061 0.0
O711 O 0.72487 0.42038 0.93517 0.0
C712 C 0.6733 0.52036 0.88874 0.0
C713 C 0.65788 0.5074 0.87058 0.0
H714 H 0.63336 0.47627 0.83586 0.0
H715 H 0.64085 0.42965 0.83093 0.0
H716 H 0.74105 0.51196 0.94505 0.0
H717 H 0.70866 0.53898 0.92281 0.0
H718 H 0.67157 0.54088 0.89106 0.0
H719 H 0.64444 0.51814 0.85929 0.0
Mn720 Mn 0.60694 0.74938 0.90022 0.0
Mn721 Mn 0.59995 0.81335 0.9039 0.0
C722 C 0.60423 0.76918 0.94059 0.0
C723 C 0.6341 0.71413 0.89498 0.0
C724 C 0.55524 0.77681 0.89369 0.0
O725 O 0.61462 0.76084 0.86348 0.0
O726 O 0.60993 0.80293 0.86932 0.0
C727 C 0.65478 0.82508 0.89675 0.0
N728 N 0.63286 0.82805 0.91017 0.0
C729 C 0.65168 0.86167 0.93553 0.0
C730 C 0.6745 0.85908 0.922 0.0
C731 C 0.67615 0.84044 0.90272 0.0
C732 C 0.63152 0.84485 0.92961 0.0
H733 H 0.65582 0.81125 0.88152 0.0
C734 C 0.61497 0.78379 0.85532 0.0
O735 O 0.61008 0.71273 0.88902 0.0
O736 O 0.64227 0.73586 0.90408 0.0
N737 N 0.59044 0.82856 0.93544 0.0
C738 C 0.56652 0.82986 0.94514 0.0
C739 C 0.5602 0.85016 0.96125 0.0
C740 C 0.57873 0.86874 0.96746 0.0
C741 C 0.60379 0.86594 0.95914 0.0
C742 C 0.6087 0.84581 0.94236 0.0
H743 H 0.55209 0.81619 0.93963 0.0
O744 O 0.60084 0.74468 0.93778 0.0
O745 O 0.61063 0.78134 0.91979 0.0
O746 O 0.56839 0.75624 0.89442 0.0
O747 O 0.56527 0.79898 0.89759 0.0
C748 C 0.62353 0.88356 0.96508 0.0
C749 C 0.64773 0.88096 0.95385 0.0
H750 H 0.69072 0.8715 0.92601 0.0
H751 H 0.69363 0.83834 0.8921 0.0
H752 H 0.54082 0.85212 0.96783 0.0
H753 H 0.57323 0.88571 0.97762 0.0
H754 H 0.62023 0.89943 0.9779 0.0
H755 H 0.66278 0.89456 0.95857 0.0
Mn756 Mn 0.7431 0.61887 0.09564 0.0
Mn757 Mn 0.8 0.5994 0.07479 0.0
C758 C 0.74828 0.61194 0.05205 0.0
C759 C 0.71554 0.65166 0.10591 0.0
C760 C 0.762 0.56474 0.10297 0.0
O761 O 0.76719 0.62498 0.12594 0.0
O762 O 0.80547 0.61762 0.10782 0.0
C763 C 0.83478 0.64384 0.06718 0.0
N764 N 0.82159 0.62385 0.05654 0.0
C765 C 0.85659 0.62428 0.02039 0.0
C766 C 0.86779 0.64479 0.03335 0.0
C767 C 0.8568 0.65453 0.05574 0.0
C768 C 0.82908 0.61368 0.03423 0.0
H769 H 0.82892 0.65147 0.08537 0.0
C770 C 0.79153 0.62411 0.12676 0.0
O771 O 0.71269 0.62898 0.1157 0.0
O772 O 0.73567 0.65591 0.09223 0.0
N773 N 0.7954 0.58061 0.04381 0.0
C774 C 0.78202 0.55827 0.04095 0.0
C775 C 0.78155 0.54481 0.01806 0.0
C776 C 0.79632 0.55196 0.99725 0.0
C777 C 0.81502 0.57244 0.99905 0.0
C778 C 0.81026 0.58989 0.02536 0.0
H779 H 0.77012 0.55089 0.05588 0.0
O780 O 0.72593 0.61308 0.06231 0.0
O781 O 0.76758 0.61663 0.06756 0.0
O782 O 0.74288 0.57955 0.10306 0.0
O783 O 0.78299 0.57215 0.09358 0.0
C784 C 0.85709 0.58769 0.97631 0.0
C785 C 0.87049 0.61285 0.99319 0.0
H786 H 0.88513 0.6535 0.02611 0.0
H787 H 0.86628 0.67046 0.06523 0.0
H788 H 0.76923 0.52807 0.01645 0.0
H789 H 0.79331 0.53976 0.98098 0.0
H790 H 0.86698 0.58093 0.95929 0.0
H791 H 0.88804 0.62151 0.98647 0.0
Mn792 Mn 0.4022 0.75141 0.11497 0.0
Mn793 Mn 0.43058 0.70048 0.08749 0.0
C794 C 0.44548 0.75291 0.10662 0.0
C795 C 0.39075 0.77555 0.15052 0.0
C796 C 0.40015 0.73919 0.05764 0.0
O797 O 0.37559 0.7232 0.11987 0.0
O798 O 0.39639 0.69023 0.10172 0.0
C799 C 0.43918 0.66887 0.1335 0.0
N800 N 0.44862 0.68183 0.11304 0.0
C801 C 0.49145 0.66965 0.12354 0.0
C802 C 0.48216 0.65648 0.14493 0.0
C803 C 0.4559 0.65605 0.1499 0.0
C804 C 0.47386 0.68214 0.10794 0.0
H805 H 0.41906 0.66814 0.13711 0.0
C806 C 0.37701 0.69978 0.11307 0.0
O807 O 0.37968 0.77863 0.12856 0.0
O808 O 0.40608 0.75639 0.1525 0.0
N809 N 0.46345 0.7075 0.07312 0.0
C810 C 0.46933 0.72056 0.05136 0.0
C811 C 0.49487 0.72295 0.04378 0.0
C812 C 0.51405 0.71135 0.05825 0.0
C813 C 0.50747 0.69719 0.08001 0.0
C814 C 0.48169 0.69563 0.08674 0.0
H815 H 0.45467 0.72935 0.03999 0.0
O816 O 0.43254 0.77359 0.10968 0.0
O817 O 0.43271 0.73138 0.10887 0.0
O818 O 0.39367 0.75304 0.07659 0.0
O819 O 0.41347 0.71904 0.05973 0.0
C820 C 0.52548 0.68471 0.0954 0.0
C821 C 0.51748 0.67096 0.11715 0.0
H822 H 0.495 0.64656 0.15762 0.0
H823 H 0.44854 0.64577 0.16626 0.0
H824 H 0.49975 0.7337 0.02682 0.0
H825 H 0.53375 0.71332 0.05239 0.0
H826 H 0.54556 0.68569 0.09075 0.0
H827 H 0.53152 0.66153 0.12889 0.0
Mn828 Mn 0.60732 0.24823 0.10763 0.0
Mn829 Mn 0.57851 0.29832 0.07943 0.0
C830 C 0.56295 0.2487 0.10382 0.0
C831 C 0.62141 0.22426 0.14207 0.0
C832 C 0.60626 0.25686 0.05009 0.0
O833 O 0.6354 0.2759 0.10818 0.0
O834 O 0.6132 0.30867 0.09152 0.0
C835 C 0.57333 0.33291 0.12388 0.0
N836 N 0.56247 0.3194 0.10432 0.0
C837 C 0.52091 0.33523 0.11455 0.0
C838 C 0.53165 0.34939 0.13475 0.0
C839 C 0.55796 0.34816 0.13947 0.0
C840 C 0.53717 0.32039 0.09965 0.0
H841 H 0.59354 0.33205 0.12755 0.0
C842 C 0.63363 0.29921 0.10085 0.0
O843 O 0.63088 0.22129 0.11949 0.0
O844 O 0.60664 0.24374 0.14547 0.0
N845 N 0.54481 0.29102 0.06723 0.0
C846 C 0.53734 0.2755 0.04758 0.0
C847 C 0.51144 0.27371 0.04106 0.0
C848 C 0.49354 0.2882 0.05448 0.0
C849 C 0.50176 0.30442 0.0743 0.0
C850 C 0.52782 0.30534 0.08002 0.0
H851 H 0.551 0.2644 0.03709 0.0
O852 O 0.57521 0.2275 0.10635 0.0
O853 O 0.57711 0.26938 0.10323 0.0
O854 O 0.61255 0.24362 0.06932 0.0
O855 O 0.59393 0.27772 0.05172 0.0
C856 C 0.48508 0.31951 0.08879 0.0
C857 C 0.49466 0.33495 0.10885 0.0
H858 H 0.51986 0.36112 0.14686 0.0
H859 H 0.56638 0.35896 0.15507 0.0
H860 H 0.50534 0.26121 0.02569 0.0
H861 H 0.47357 0.28676 0.04942 0.0
H862 H 0.46482 0.31918 0.08482 0.0
H863 H 0.48162 0.34625 0.12003 0.0
Mn864 Mn 0.89707 0.75695 0.60337 0.0
Mn865 Mn 0.91549 0.69839 0.58137 0.0
C866 C 0.90179 0.7538 0.55938 0.0
C867 C 0.86531 0.78505 0.61656 0.0
C868 C 0.95217 0.73767 0.6045 0.0
O869 O 0.89131 0.7332 0.63364 0.0
O870 O 0.89918 0.69554 0.61528 0.0
C871 C 0.86441 0.69008 0.56358 0.0
N872 N 0.88879 0.68194 0.56471 0.0
C873 C 0.88281 0.66813 0.51503 0.0
C874 C 0.85787 0.67837 0.51778 0.0
C875 C 0.84917 0.68726 0.54153 0.0
C876 C 0.89993 0.67024 0.54495 0.0
H877 H 0.85689 0.70074 0.57951 0.0
C878 C 0.89249 0.70893 0.63438 0.0
O879 O 0.88845 0.78702 0.62519 0.0
O880 O 0.86014 0.7656 0.60191 0.0
N881 N 0.93223 0.69205 0.54959 0.0
C882 C 0.93232 0.71485 0.53076 0.0
C883 C 0.93955 0.71238 0.50102 0.0
C884 C 0.95428 0.66666 0.48462 0.0
C885 C 0.95104 0.64492 0.51363 0.0
C886 C 0.93386 0.66178 0.54576 0.0
H887 H 0.9317 0.70355 0.5465 0.0
O888 O 0.90158 0.77549 0.57126 0.0
O889 O 0.899 0.73306 0.57383 0.0
O890 O 0.93608 0.75549 0.6081 0.0
O891 O 0.94612 0.71529 0.59622 0.0
C892 C 0.93763 0.63461 0.48887 0.0
C893 C 0.90986 0.64331 0.48162 0.0
H894 H 0.84421 0.67945 0.5024 0.0
H895 H 0.8299 0.69431 0.54243 0.0
H896 H 0.94092 0.73074 0.49187 0.0
H897 H 0.96417 0.66149 0.46645 0.0
H898 H 0.94698 0.6204 0.47691 0.0
H899 H 0.90518 0.63561 0.46258 0.0
Mn900 Mn 0.26035 0.8995 0.6097 0.0
Mn901 Mn 0.20243 0.91797 0.58839 0.0
C902 C 0.25216 0.94286 0.60368 0.0
C903 C 0.28939 0.89072 0.64231 0.0
C904 C 0.24326 0.89688 0.55353 0.0
O905 O 0.23851 0.86731 0.61578 0.0
O906 O 0.20087 0.88222 0.60176 0.0
C907 C 0.17757 0.91881 0.63903 0.0
N908 N 0.1846 0.93115 0.61726 0.0
C909 C 0.1681 0.971 0.63287 0.0
C910 C 0.16079 0.9587 0.6555 0.0
C911 C 0.16554 0.93248 0.65858 0.0
C912 C 0.1803 0.95643 0.6142 0.0
H913 H 0.18115 0.89873 0.64147 0.0
C914 C 0.21469 0.86461 0.6113 0.0
O915 O 0.29239 0.88183 0.6194 0.0
O916 O 0.26845 0.90283 0.64683 0.0
N917 N 0.20011 0.9519 0.57487 0.0
C918 C 0.20439 0.95965 0.55041 0.0
C919 C 0.19882 0.98489 0.54329 0.0
C920 C 0.18822 0.00169 0.56119 0.0
C921 C 0.18244 0.99278 0.58574 0.0
C922 C 0.18804 0.96729 0.59155 0.0
H923 H 0.21219 0.94673 0.53645 0.0
O924 O 0.27525 0.93454 0.60414 0.0
O925 O 0.23432 0.92557 0.60674 0.0
O926 O 0.25956 0.89265 0.5711 0.0
O927 O 0.22105 0.90583 0.55776 0.0
C928 C 0.17055 0.00792 0.60438 0.0
C929 C 0.16358 0.99709 0.62803 0.0
H930 H 0.15139 0.96915 0.67056 0.0
H931 H 0.15992 0.92282 0.67596 0.0
H932 H 0.20277 0.99141 0.52409 0.0
H933 H 0.18411 0.02119 0.55571 0.0
H934 H 0.16634 0.0278 0.60058 0.0
H935 H 0.15429 0.00886 0.64215 0.0
Mn936 Mn 0.10192 0.24907 0.5916 0.0
Mn937 Mn 0.09336 0.30675 0.56367 0.0
C938 C 0.0993 0.25056 0.54721 0.0
C939 C 0.13005 0.21903 0.60816 0.0
C940 C 0.05102 0.27705 0.59156 0.0
O941 O 0.10905 0.27437 0.62043 0.0
O942 O 0.10829 0.31136 0.59857 0.0
C943 C 0.14855 0.32102 0.56214 0.0
N944 N 0.12685 0.31707 0.54824 0.0
C945 C 0.1479 0.34795 0.51258 0.0
C946 C 0.16978 0.34916 0.5305 0.0
C947 C 0.16972 0.33518 0.55323 0.0
C948 C 0.12652 0.32308 0.5233 0.0
H949 H 0.14988 0.31334 0.58109 0.0
C950 C 0.1116 0.29861 0.61912 0.0
O951 O 0.10642 0.21953 0.61539 0.0
O952 O 0.1376 0.23663 0.59242 0.0
N953 N 0.07542 0.30732 0.53053 0.0
C954 C 0.04433 0.30476 0.52695 0.0
C955 C 0.02611 0.31123 0.49833 0.0
C956 C 0.04267 0.32337 0.47054 0.0
C957 C 0.08786 0.32835 0.48219 0.0
C958 C 0.09753 0.31509 0.51214 0.0
H959 H 0.03336 0.2975 0.54252 0.0
O960 O 0.09636 0.2293 0.55959 0.0
O961 O 0.10407 0.27072 0.56139 0.0
O962 O 0.06361 0.25649 0.59504 0.0
O963 O 0.06063 0.2967 0.58025 0.0
C964 C 0.11178 0.36606 0.46755 0.0
C965 C 0.14111 0.37025 0.48523 0.0
H966 H 0.18559 0.36204 0.52649 0.0
H967 H 0.18615 0.33705 0.56566 0.0
H968 H 0.00562 0.30886 0.49818 0.0
H969 H 0.03243 0.33137 0.45439 0.0
H970 H 0.10673 0.37958 0.45261 0.0
H971 H 0.14685 0.36026 0.49939 0.0
Mn972 Mn 0.74675 0.10395 0.61551 0.0
Mn973 Mn 0.79934 0.07958 0.58804 0.0
C974 C 0.74955 0.05985 0.60897 0.0
C975 C 0.7221 0.11403 0.65099 0.0
C976 C 0.75723 0.10547 0.55775 0.0
O977 O 0.77262 0.13396 0.61858 0.0
O978 O 0.80648 0.11474 0.60098 0.0
C979 C 0.82953 0.07612 0.63568 0.0
N980 N 0.81923 0.06465 0.61461 0.0
C981 C 0.83492 0.02354 0.62742 0.0
C982 C 0.84587 0.03495 0.64915 0.0
C983 C 0.8431 0.06134 0.65332 0.0
C984 C 0.82146 0.03922 0.61061 0.0
H985 H 0.82729 0.09636 0.6391 0.0
C986 C 0.79592 0.13407 0.61132 0.0
O987 O 0.71806 0.12464 0.629 0.0
O988 O 0.74247 0.10043 0.65317 0.0
N989 N 0.79625 0.0456 0.57461 0.0
C990 C 0.78633 0.03799 0.55171 0.0
C991 C 0.78848 0.01233 0.54407 0.0
C992 C 0.80111 0.99487 0.55987 0.0
C993 C 0.81197 0.00332 0.58286 0.0
C994 C 0.80965 0.02922 0.58923 0.0
H995 H 0.7768 0.05139 0.53939 0.0
O996 O 0.72777 0.07065 0.612 0.0
O997 O 0.76931 0.07522 0.60976 0.0
O998 O 0.74322 0.11082 0.57688 0.0
O999 O 0.77865 0.0941 0.55968 0.0
C1000 C 0.8254 0.98715 0.59948 0.0
C1001 C 0.8367 0.99722 0.62186 0.0
H1002 H 0.85637 0.02362 0.66278 0.0
H1003 H 0.85138 0.07027 0.67012 0.0
H1004 H 0.78021 0.00594 0.52621 0.0
H1005 H 0.80274 0.97512 0.55404 0.0
H1006 H 0.82722 0.96696 0.59517 0.0
H1007 H 0.84693 0.9846 0.63453 0.0
Mn1008 Mn 0.89565 0.26041 0.38658 0.0
Mn1009 Mn 0.91991 0.20264 0.40158 0.0
C1010 C 0.93948 0.25537 0.38906 0.0
C1011 C 0.8823 0.29097 0.35723 0.0
C1012 C 0.89938 0.23887 0.44147 0.0
O1013 O 0.86501 0.23687 0.3805 0.0
O1014 O 0.88286 0.19985 0.39274 0.0
C1015 C 0.91519 0.1804 0.34972 0.0
N1016 N 0.92991 0.18702 0.37019 0.0
C1017 C 0.96773 0.1724 0.34916 0.0
C1018 C 0.95295 0.16545 0.32786 0.0
C1019 C 0.92656 0.16947 0.32815 0.0
C1020 C 0.95534 0.18331 0.37006 0.0
H1021 H 0.89494 0.18346 0.34984 0.0
C1022 C 0.86389 0.21288 0.3848 0.0
O1023 O 0.8748 0.29156 0.3808 0.0
O1024 O 0.896 0.27172 0.35029 0.0
N1025 N 0.95529 0.20176 0.41049 0.0
C1026 C 0.96648 0.20744 0.43335 0.0
C1027 C 0.99284 0.20433 0.43636 0.0
C1028 C 0.00725 0.19444 0.41619 0.0
C1029 C 0.99504 0.18717 0.39342 0.0
C1030 C 0.96873 0.19087 0.3915 0.0
H1031 H 0.95542 0.21461 0.44909 0.0
O1032 O 0.92932 0.2777 0.39136 0.0
O1033 O 0.92365 0.23626 0.38527 0.0
O1034 O 0.89149 0.25565 0.4256 0.0
O1035 O 0.91086 0.2185 0.43464 0.0
C1036 C 0.00791 0.17626 0.3726 0.0
C1037 C 0.99428 0.16898 0.35045 0.0
H1038 H 0.96165 0.15699 0.3112 0.0
H1039 H 0.91501 0.16416 0.31179 0.0
H1040 H 1.002 0.20948 0.45421 0.0
H1041 H 0.02759 0.19212 0.41855 0.0
H1042 H 0.02828 0.17338 0.37344 0.0
H1043 H 0.00439 0.16065 0.33455 0.0
Mn1044 Mn 0.75684 0.89241 0.4 0.0
Mn1045 Mn 0.70024 0.91182 0.42507 0.0
C1046 C 0.75424 0.89799 0.44419 0.0
C1047 C 0.78448 0.86026 0.38684 0.0
C1048 C 0.73946 0.94831 0.40079 0.0
O1049 O 0.73218 0.88724 0.37018 0.0
O1050 O 0.69617 0.89815 0.39003 0.0
C1051 C 0.67717 0.85898 0.42447 0.0
N1052 N 0.68374 0.87975 0.43903 0.0
C1053 C 0.6509 0.86089 0.47427 0.0
C1054 C 0.64728 0.83971 0.4557 0.0
C1055 C 0.66084 0.8391 0.43282 0.0
C1056 C 0.67765 0.88003 0.46402 0.0
H1057 H 0.68444 0.85725 0.40544 0.0
C1058 C 0.70816 0.89007 0.37061 0.0
O1059 O 0.78627 0.88336 0.3779 0.0
O1060 O 0.76512 0.85517 0.4014 0.0
N1061 N 0.69854 0.9296 0.45802 0.0
C1062 C 0.70348 0.96053 0.462 0.0
C1063 C 0.69935 0.97881 0.49103 0.0
C1064 C 0.6859 0.96286 0.51855 0.0
C1065 C 0.6763 0.91834 0.50596 0.0
C1066 C 0.68846 0.90792 0.47587 0.0
H1067 H 0.70707 0.97194 0.44535 0.0
O1068 O 0.77571 0.89661 0.43232 0.0
O1069 O 0.73392 0.89511 0.42975 0.0
O1070 O 0.75604 0.93148 0.39532 0.0
O1071 O 0.71772 0.94299 0.41095 0.0
C1072 C 0.6366 0.89787 0.52014 0.0
C1073 C 0.62952 0.8693 0.50181 0.0
H1074 H 0.63286 0.82516 0.45931 0.0
H1075 H 0.65707 0.82331 0.41987 0.0
H1076 H 0.70273 0.99928 0.49127 0.0
H1077 H 0.67962 0.97354 0.53521 0.0
H1078 H 0.62375 0.90396 0.5352 0.0
H1079 H 0.63882 0.86289 0.4875 0.0
Mn1080 Mn 0.1033 0.74749 0.3899 0.0
Mn1081 Mn 0.07514 0.8004 0.41291 0.0
C1082 C 0.0593 0.74798 0.39439 0.0
C1083 C 0.11917 0.72378 0.35517 0.0
C1084 C 0.10034 0.76187 0.4474 0.0
O1085 O 0.13132 0.77417 0.38561 0.0
O1086 O 0.11157 0.80765 0.40349 0.0
C1087 C 0.07638 0.83002 0.36476 0.0
N1088 N 0.06298 0.81972 0.38453 0.0
C1089 C 0.02397 0.83759 0.36886 0.0
C1090 C 0.03737 0.84839 0.34835 0.0
C1091 C 0.06368 0.84451 0.34625 0.0
C1092 C 0.03764 0.82321 0.38665 0.0
H1093 H 0.09661 0.82729 0.36314 0.0
C1094 C 0.13085 0.79743 0.39269 0.0
O1095 O 0.12672 0.71985 0.37845 0.0
O1096 O 0.1023 0.74142 0.35243 0.0
N1097 N 0.04012 0.79705 0.42247 0.0
C1098 C 0.02982 0.78472 0.44298 0.0
C1099 C 0.00353 0.78627 0.44745 0.0
C1100 C 0.98828 0.80091 0.43112 0.0
C1101 C 0.99934 0.81371 0.41042 0.0
C1102 C 0.02558 0.81137 0.40683 0.0
H1103 H 0.04155 0.77366 0.45571 0.0
O1104 O 0.07166 0.72669 0.39328 0.0
O1105 O 0.07319 0.76886 0.39252 0.0
O1106 O 0.10903 0.74777 0.42939 0.0
O1107 O 0.08648 0.78137 0.4433 0.0
C1108 C 0.98526 0.82849 0.39306 0.0
C1109 C 0.99755 0.84035 0.37223 0.0
H1110 H 0.02763 0.85961 0.33405 0.0
H1111 H 0.07418 0.85276 0.33047 0.0
H1112 H 0.99507 0.77634 0.46351 0.0
H1113 H 0.96809 0.80235 0.43454 0.0
H1114 H 0.9649 0.83058 0.39536 0.0
H1115 H 0.98648 0.8514 0.35882 0.0
Mn1116 Mn 0.24002 0.10777 0.4027 0.0
Mn1117 Mn 0.29876 0.09922 0.42715 0.0
C1118 C 0.24164 0.11129 0.44746 0.0
C1119 C 0.21185 0.13601 0.38321 0.0
C1120 C 0.26455 0.05597 0.40554 0.0
O1121 O 0.26475 0.10739 0.37255 0.0
O1122 O 0.29915 0.11863 0.3947 0.0
C1123 C 0.2998 0.15052 0.44766 0.0
N1124 N 0.3104 0.12708 0.44584 0.0
C1125 C 0.32148 0.13186 0.49637 0.0
C1126 C 0.30927 0.15604 0.4942 0.0
C1127 C 0.30071 0.1651 0.47038 0.0
C1128 C 0.32241 0.11625 0.46552 0.0
H1129 H 0.28923 0.15784 0.43156 0.0
C1130 C 0.28821 0.11353 0.3736 0.0
O1131 O 0.21097 0.11163 0.37844 0.0
O1132 O 0.23073 0.14431 0.39711 0.0
N1133 N 0.30662 0.08192 0.45818 0.0
C1134 C 0.28409 0.07735 0.47565 0.0
C1135 C 0.28577 0.06855 0.50531 0.0
C1136 C 0.33279 0.05924 0.52252 0.0
C1137 C 0.35427 0.06743 0.49439 0.0
C1138 C 0.33576 0.08413 0.463 0.0
H1139 H 0.26614 0.07475 0.46664 0.0
O1140 O 0.2205 0.11012 0.43486 0.0
O1141 O 0.26232 0.1101 0.43317 0.0
O1142 O 0.24379 0.06863 0.40493 0.0
O1143 O 0.28653 0.06652 0.41011 0.0
C1144 C 0.36211 0.08039 0.52017 0.0
C1145 C 0.34939 0.10605 0.52899 0.0
H1146 H 0.30686 0.16909 0.50997 0.0
H1147 H 0.29234 0.18393 0.46989 0.0
H1148 H 0.26718 0.0643 0.51362 0.0
H1149 H 0.33893 0.049 0.54025 0.0
H1150 H 0.37735 0.07235 0.53179 0.0
H1151 H 0.35627 0.11057 0.54837 0.0
Mn1152 Mn 0.6144 0.90161 0.74898 0.0
Mn1153 Mn 0.60292 0.90941 0.81137 0.0
C1154 C 0.61007 0.94335 0.76471 0.0
C1155 C 0.64423 0.89517 0.71654 0.0
C1156 C 0.56047 0.89855 0.77354 0.0
O1157 O 0.62089 0.86566 0.76323 0.0
O1158 O 0.60881 0.87294 0.80338 0.0
C1159 C 0.65531 0.89571 0.82718 0.0
N1160 N 0.63606 0.91294 0.82652 0.0
C1161 C 0.66139 0.94388 0.84975 0.0
C1162 C 0.68146 0.92649 0.85064 0.0
C1163 C 0.67836 0.90224 0.83935 0.0
C1164 C 0.63878 0.93614 0.83754 0.0
H1165 H 0.65317 0.87708 0.81856 0.0
C1166 C 0.61617 0.85802 0.78576 0.0
O1167 O 0.62049 0.88835 0.71355 0.0
O1168 O 0.65059 0.90518 0.73829 0.0
N1169 N 0.59742 0.94325 0.82331 0.0
C1170 C 0.57602 0.95742 0.82155 0.0
C1171 C 0.5763 0.9824 0.8311 0.0
C1172 C 0.59824 0.99203 0.84332 0.0
C1173 C 0.61948 0.97667 0.84635 0.0
C1174 C 0.61829 0.9521 0.83595 0.0
H1175 H 0.55958 0.95038 0.8114 0.0
O1176 O 0.60869 0.93841 0.74055 0.0
O1177 O 0.61591 0.92359 0.7791 0.0
O1178 O 0.57538 0.8961 0.75424 0.0
O1179 O 0.56869 0.90554 0.79563 0.0
C1180 C 0.64202 0.98511 0.85858 0.0
C1181 C 0.66298 0.96865 0.86036 0.0
H1182 H 0.6993 0.93154 0.85991 0.0
H1183 H 0.69371 0.88864 0.83997 0.0
H1184 H 0.56003 0.99431 0.82801 0.0
H1185 H 0.59921 0.01143 0.84962 0.0
H1186 H 0.64343 0.00422 0.86659 0.0
H1187 H 0.68023 0.97525 0.86982 0.0
Mn1188 Mn 0.0991 0.60555 0.75825 0.0
Mn1189 Mn 0.09199 0.58629 0.8192 0.0
C1190 C 0.05712 0.60224 0.77387 0.0
C1191 C 0.10811 0.63853 0.72886 0.0
C1192 C 0.10491 0.55025 0.77527 0.0
O1193 O 0.1352 0.60853 0.7735 0.0
O1194 O 0.12575 0.6029 0.81478 0.0
C1195 C 0.09243 0.63595 0.84655 0.0
N1196 N 0.08204 0.61231 0.84238 0.0
C1197 C 0.05918 0.61352 0.88198 0.0
C1198 C 0.0694 0.63806 0.8867 0.0
C1199 C 0.08586 0.64946 0.86874 0.0
C1200 C 0.0657 0.60152 0.85909 0.0
H1201 H 0.10587 0.64412 0.83323 0.0
C1202 C 0.14139 0.60843 0.79706 0.0
O1203 O 0.11241 0.6147 0.7236 0.0
O1204 O 0.09906 0.64321 0.7514 0.0
N1205 N 0.06124 0.56914 0.82886 0.0
C1206 C 0.05125 0.54661 0.8201 0.0
C1207 C 0.03502 0.53205 0.83588 0.0
C1208 C 0.02899 0.54105 0.86044 0.0
C1209 C 0.03872 0.56487 0.86865 0.0
C1210 C 0.05508 0.57822 0.85218 0.0
H1211 H 0.0563 0.5395 0.80152 0.0
O1212 O 0.0623 0.60318 0.74975 0.0
O1213 O 0.07706 0.60438 0.78913 0.0
O1214 O 0.10185 0.56614 0.75707 0.0
O1215 O 0.10278 0.55684 0.7985 0.0
C1216 C 0.03255 0.57614 0.89228 0.0
C1217 C 0.04253 0.60059 0.89881 0.0
H1218 H 0.0647 0.64834 0.90399 0.0
H1219 H 0.09392 0.66832 0.87229 0.0
H1220 H 0.02729 0.51391 0.8292 0.0
H1221 H 0.01635 0.52989 0.87249 0.0
H1222 H 0.01979 0.56639 0.90535 0.0
H1223 H 0.03721 0.60929 0.91675 0.0
Mn1224 Mn 0.38801 0.10001 0.74348 0.0
Mn1225 Mn 0.41068 0.07693 0.79925 0.0
C1226 C 0.39671 0.05677 0.74723 0.0
C1227 C 0.35318 0.10973 0.71751 0.0
C1228 C 0.44424 0.10374 0.76032 0.0
O1229 O 0.3812 0.12937 0.76782 0.0
O1230 O 0.39664 0.11212 0.80399 0.0
C1231 C 0.36104 0.072 0.82555 0.0
N1232 N 0.38264 0.06107 0.81659 0.0
C1233 C 0.36849 0.01931 0.83045 0.0
C1234 C 0.34604 0.03014 0.83969 0.0
C1235 C 0.34233 0.05661 0.83726 0.0
C1236 C 0.38644 0.03562 0.81892 0.0
H1237 H 0.35815 0.09228 0.82379 0.0
C1238 C 0.38629 0.1304 0.79154 0.0
O1239 O 0.3754 0.12028 0.71365 0.0
O1240 O 0.35095 0.09489 0.73716 0.0
N1241 N 0.42476 0.04331 0.79798 0.0
C1242 C 0.4483 0.0362 0.78996 0.0
C1243 C 0.45528 0.01038 0.79148 0.0
C1244 C 0.43828 0.99228 0.80195 0.0
C1245 C 0.41472 1.00027 0.81131 0.0
C1246 C 0.40885 0.02627 0.8093 0.0
H1247 H 0.46158 0.0501 0.78221 0.0
O1248 O 0.39486 0.06754 0.7251 0.0
O1249 O 0.39275 0.07158 0.76686 0.0
O1250 O 0.42661 0.10893 0.74422 0.0
O1251 O 0.44031 0.09204 0.78142 0.0
C1252 C 0.39687 0.98347 0.82267 0.0
C1253 C 0.37374 0.99298 0.83217 0.0
H1254 H 0.33156 0.01833 0.84872 0.0
H1255 H 0.32509 0.06514 0.84441 0.0
H1256 H 0.47371 0.00445 0.78464 0.0
H1257 H 0.44366 0.97238 0.80313 0.0
H1258 H 0.40078 0.96322 0.82426 0.0
H1259 H 0.36017 0.97988 0.84088 0.0
Mn1260 Mn 0.89645 0.40706 0.75564 0.0
Mn1261 Mn 0.91811 0.44061 0.70511 0.0
C1262 C 0.90313 0.45138 0.75945 0.0
C1263 C 0.86202 0.38974 0.77847 0.0
C1264 C 0.95206 0.40748 0.7387 0.0
O1265 O 0.89203 0.38184 0.72589 0.0
O1266 O 0.90182 0.4079 0.69314 0.0
C1267 C 0.86817 0.45226 0.68185 0.0
N1268 N 0.89089 0.46049 0.6917 0.0
C1269 C 0.87988 0.50459 0.68522 0.0
C1270 C 0.85644 0.49658 0.67484 0.0
C1271 C 0.85054 0.4703 0.67322 0.0
C1272 C 0.89662 0.48574 0.69365 0.0
H1273 H 0.86349 0.43208 0.68072 0.0
C1274 C 0.8945 0.38616 0.70202 0.0
O1275 O 0.88481 0.38069 0.78085 0.0
O1276 O 0.85897 0.40789 0.76196 0.0
N1277 N 0.9341 0.47278 0.71328 0.0
C1278 C 0.95787 0.47731 0.72293 0.0
C1279 C 0.96693 0.50263 0.72535 0.0
C1280 C 0.95164 0.52299 0.7174 0.0
C1281 C 0.92749 0.51787 0.70701 0.0
C1282 C 0.91962 0.49223 0.70478 0.0
H1283 H 0.96989 0.46172 0.7287 0.0
O1284 O 0.9013 0.43696 0.77944 0.0
O1285 O 0.90036 0.43942 0.73776 0.0
O1286 O 0.93503 0.40096 0.75489 0.0
O1287 O 0.94746 0.42106 0.71886 0.0
C1288 C 0.91105 0.53718 0.6985 0.0
C1289 C 0.8872 0.53055 0.68774 0.0
H1290 H 0.8428 0.51044 0.66817 0.0
H1291 H 0.83244 0.46397 0.66537 0.0
H1292 H 0.98573 0.50643 0.73312 0.0
H1293 H 0.95879 0.54247 0.71888 0.0
H1294 H 0.91654 0.55719 0.7002 0.0
H1295 H 0.87463 0.54557 0.68144 0.0
Mn1296 Mn 0.59897 0.10925 0.24258 0.0
Mn1297 Mn 0.57338 0.08871 0.29813 0.0
C1298 C 0.55513 0.1035 0.24571 0.0
C1299 C 0.61298 0.14273 0.21656 0.0
C1300 C 0.59861 0.05295 0.26047 0.0
O1301 O 0.62816 0.11484 0.2675 0.0
O1302 O 0.60923 0.10169 0.30383 0.0
C1303 C 0.57063 0.13917 0.32377 0.0
N1304 N 0.5588 0.11761 0.31481 0.0
C1305 C 0.51788 0.13281 0.32821 0.0
C1306 C 0.52965 0.15527 0.3374 0.0
C1307 C 0.55615 0.15845 0.33519 0.0
C1308 C 0.5333 0.11433 0.3169 0.0
H1309 H 0.59095 0.14158 0.32227 0.0
C1310 C 0.62845 0.1106 0.29139 0.0
O1311 O 0.62115 0.11956 0.21342 0.0
O1312 O 0.59749 0.14664 0.23531 0.0
N1313 N 0.53919 0.07558 0.29594 0.0
C1314 C 0.53096 0.05222 0.28733 0.0
C1315 C 0.50495 0.04573 0.2887 0.0
C1316 C 0.48776 0.0631 0.29932 0.0
C1317 C 0.49682 0.0866 0.30894 0.0
C1318 C 0.52297 0.09194 0.3072 0.0
H1319 H 0.54408 0.03873 0.27923 0.0
O1320 O 0.56622 0.10424 0.22368 0.0
O1321 O 0.57007 0.10658 0.26545 0.0
O1322 O 0.60482 0.07006 0.24403 0.0
O1323 O 0.58703 0.05799 0.28129 0.0
C1324 C 0.48093 0.10492 0.32023 0.0
C1325 C 0.49144 0.12805 0.32977 0.0
H1326 H 0.51854 0.17017 0.34624 0.0
H1327 H 0.5654 0.17569 0.34232 0.0
H1328 H 0.49816 0.02743 0.28147 0.0
H1329 H 0.46769 0.05812 0.30019 0.0
H1330 H 0.4606 0.10144 0.32162 0.0
H1331 H 0.47903 0.14203 0.33834 0.0
Mn1332 Mn 0.8909 0.60872 0.24208 0.0
Mn1333 Mn 0.9119 0.58182 0.2969 0.0
C1334 C 0.89755 0.56491 0.24393 0.0
C1335 C 0.85788 0.62072 0.21473 0.0
C1336 C 0.94682 0.60942 0.25973 0.0
O1337 O 0.88464 0.63705 0.26802 0.0
O1338 O 0.89895 0.61713 0.30335 0.0
C1339 C 0.86216 0.5772 0.32308 0.0
N1340 N 0.88337 0.56604 0.31354 0.0
C1341 C 0.86842 0.52425 0.32642 0.0
C1342 C 0.8463 0.53532 0.33615 0.0
C1343 C 0.84319 0.56193 0.33451 0.0
C1344 C 0.88663 0.54046 0.31517 0.0
H1345 H 0.85981 0.59759 0.32206 0.0
C1346 C 0.88936 0.63646 0.2919 0.0
O1347 O 0.8806 0.63064 0.21263 0.0
O1348 O 0.85391 0.60573 0.23405 0.0
N1349 N 0.92487 0.54785 0.29397 0.0
C1350 C 0.94799 0.54035 0.28513 0.0
C1351 C 0.95432 0.51431 0.28582 0.0
C1352 C 0.93712 0.49638 0.29624 0.0
C1353 C 0.91393 0.50468 0.30618 0.0
C1354 C 0.90869 0.53087 0.30502 0.0
H1355 H 0.96145 0.55409 0.27743 0.0
O1356 O 0.89683 0.57687 0.22234 0.0
O1357 O 0.89384 0.57889 0.26421 0.0
O1358 O 0.9296 0.61607 0.24385 0.0
O1359 O 0.94225 0.5968 0.28014 0.0
C1360 C 0.89584 0.48798 0.3173 0.0
C1361 C 0.87305 0.49775 0.32734 0.0
H1362 H 0.83163 0.52358 0.34498 0.0
H1363 H 0.82623 0.57066 0.34209 0.0
H1364 H 0.97244 0.50813 0.27842 0.0
H1365 H 0.94202 0.47635 0.29693 0.0
H1366 H 0.89928 0.46759 0.31825 0.0
H1367 H 0.85927 0.48473 0.33583 0.0
Mn1368 Mn 0.39494 0.91094 0.24594 0.0
Mn1369 Mn 0.4123 0.91764 0.18455 0.0
C1370 C 0.39887 0.95293 0.23024 0.0
C1371 C 0.36287 0.90168 0.27565 0.0
C1372 C 0.44932 0.90378 0.22731 0.0
O1373 O 0.39123 0.87486 0.23112 0.0
O1374 O 0.39552 0.88387 0.18961 0.0
C1375 C 0.36178 0.91802 0.15948 0.0
N1376 N 0.38547 0.92839 0.16279 0.0
C1377 C 0.38246 0.95222 0.12378 0.0
C1378 C 0.35776 0.94225 0.12008 0.0
C1379 C 0.34725 0.92533 0.1382 0.0
C1380 C 0.39533 0.94542 0.1461 0.0
H1381 H 0.35435 0.90398 0.17274 0.0
C1382 C 0.39057 0.86841 0.20774 0.0
O1383 O 0.38662 0.89696 0.28033 0.0
O1384 O 0.3576 0.91176 0.25366 0.0
N1385 N 0.42957 0.94827 0.17423 0.0
C1386 C 0.45322 0.95672 0.18115 0.0
C1387 C 0.46762 0.97177 0.16414 0.0
C1388 C 0.45737 0.97829 0.14024 0.0
C1389 C 0.4325 0.97032 0.13395 0.0
C1390 C 0.41926 0.95512 0.15163 0.0
H1391 H 0.46136 0.95116 0.19913 0.0
O1392 O 0.39822 0.94785 0.25442 0.0
O1393 O 0.39594 0.93291 0.21515 0.0
O1394 O 0.43415 0.90739 0.24596 0.0
O1395 O 0.44212 0.9061 0.20425 0.0
C1396 C 0.42028 0.97679 0.11088 0.0
C1397 C 0.39509 0.96813 0.10601 0.0
H1398 H 0.34684 0.9472 0.10328 0.0
H1399 H 0.32834 0.91731 0.13534 0.0
H1400 H 0.48664 0.97813 0.16935 0.0
H1401 H 0.46849 0.98991 0.12716 0.0
H1402 H 0.42993 0.98869 0.09693 0.0
H1403 H 0.38576 0.97354 0.08841 0.0
Mn1404 Mn 0.11223 0.40124 0.24289 0.0
Mn1405 Mn 0.10249 0.41289 0.30515 0.0
C1406 C 0.1105 0.44415 0.25689 0.0
C1407 C 0.14099 0.39112 0.20987 0.0
C1408 C 0.05869 0.40271 0.26855 0.0
O1409 O 0.11665 0.36547 0.25903 0.0
O1410 O 0.10619 0.37609 0.29887 0.0
C1411 C 0.15479 0.3973 0.31941 0.0
N1412 N 0.13617 0.41523 0.31927 0.0
C1413 C 0.16354 0.44554 0.34096 0.0
C1414 C 0.18291 0.42737 0.34146 0.0
C1415 C 0.1785 0.40311 0.33061 0.0
C1416 C 0.14024 0.43853 0.32964 0.0
H1417 H 0.15169 0.3787 0.31101 0.0
C1418 C 0.11213 0.35962 0.2822 0.0
O1419 O 0.11678 0.38598 0.2078 0.0
O1420 O 0.14836 0.40167 0.23108 0.0
N1421 N 0.09905 0.44732 0.31594 0.0
C1422 C 0.0783 0.46239 0.31432 0.0
C1423 C 0.08004 0.48757 0.32308 0.0
C1424 C 0.1026 0.49638 0.33475 0.0
C1425 C 0.12307 0.48008 0.3379 0.0
C1426 C 0.12051 0.45539 0.32809 0.0
H1427 H 0.06136 0.4559 0.30462 0.0
O1428 O 0.10874 0.4382 0.23296 0.0
O1429 O 0.11547 0.4247 0.27197 0.0
O1430 O 0.0731 0.39857 0.24915 0.0
O1431 O 0.06769 0.41018 0.29022 0.0
C1432 C 0.14623 0.48777 0.34942 0.0
C1433 C 0.16649 0.47044 0.351 0.0
H1434 H 0.20125 0.43187 0.34999 0.0
H1435 H 0.19335 0.38895 0.3308 0.0
H1436 H 0.06459 0.50032 0.31937 0.0
H1437 H 0.10491 0.51594 0.33996 0.0
H1438 H 0.1487 0.50699 0.35693 0.0
H1439 H 0.18428 0.47649 0.35979 0.0
Mn1440 Mn 0.73689 0.59907 0.897 0.0
Mn1441 Mn 0.79653 0.58798 0.91389 0.0
C1442 C 0.74413 0.59322 0.94171 0.0
C1443 C 0.70801 0.63223 0.8882 0.0
C1444 C 0.76253 0.55143 0.88145 0.0
O1445 O 0.75994 0.60688 0.8654 0.0
O1446 O 0.79166 0.61739 0.89066 0.0
C1447 C 0.80479 0.63634 0.94282 0.0
N1448 N 0.80689 0.61053 0.94134 0.0
C1449 C 0.82573 0.61124 0.98824 0.0
C1450 C 0.81965 0.63806 0.98773 0.0
C1451 C 0.81068 0.6498 0.96538 0.0
C1452 C 0.81634 0.5971 0.96078 0.0
H1453 H 0.79731 0.64692 0.92684 0.0
C1454 C 0.78299 0.61459 0.86821 0.0
O1455 O 0.70522 0.60964 0.87812 0.0
O1456 O 0.72824 0.63605 0.9019 0.0
N1457 N 0.8062 0.55921 0.93528 0.0
C1458 C 0.80304 0.53376 0.93043 0.0
C1459 C 0.81777 0.5149 0.94251 0.0
C1460 C 0.83628 0.52054 0.96102 0.0
C1461 C 0.83904 0.54525 0.97047 0.0
C1462 C 0.82192 0.56713 0.95396 0.0
H1463 H 0.78823 0.52743 0.91788 0.0
O1464 O 0.72136 0.59282 0.93219 0.0
O1465 O 0.76163 0.59346 0.92441 0.0
O1466 O 0.74122 0.56113 0.88815 0.0
O1467 O 0.7841 0.56256 0.88684 0.0
C1468 C 0.8536 0.54851 0.99926 0.0
C1469 C 0.85236 0.57841 0.01625 0.0
H1470 H 0.82258 0.65102 0.0036 0.0
H1471 H 0.80759 0.67026 0.9657 0.0
H1472 H 0.81391 0.49499 0.93829 0.0
H1473 H 0.84604 0.50494 0.97026 0.0
H1474 H 0.855 0.56261 0.01082 0.0
H1475 H 0.86218 0.58323 0.03685 0.0
Mn1476 Mn 0.76018 0.40867 0.10436 0.0
Mn1477 Mn 0.70582 0.43329 0.0806 0.0
C1478 C 0.75589 0.45323 0.10141 0.0
C1479 C 0.78715 0.39652 0.13799 0.0
C1480 C 0.74735 0.41231 0.04663 0.0
O1481 O 0.73574 0.3778 0.10686 0.0
O1482 O 0.70177 0.39642 0.08881 0.0
C1483 C 0.67519 0.42755 0.12773 0.0
N1484 N 0.68441 0.44254 0.10851 0.0
C1485 C 0.6607 0.47868 0.12337 0.0
C1486 C 0.65084 0.46361 0.14323 0.0
C1487 C 0.65824 0.43797 0.1455 0.0
C1488 C 0.67767 0.46729 0.10638 0.0
H1489 H 0.68066 0.40779 0.12951 0.0
C1490 C 0.71269 0.37721 0.09896 0.0
O1491 O 0.79061 0.38839 0.11487 0.0
O1492 O 0.76645 0.40912 0.1421 0.0
N1493 N 0.70585 0.46881 0.07223 0.0
C1494 C 0.71766 0.48091 0.05254 0.0
C1495 C 0.71325 0.50692 0.04831 0.0
C1496 C 0.69593 0.52006 0.06381 0.0
C1497 C 0.68345 0.50705 0.08355 0.0
C1498 C 0.68898 0.48119 0.08711 0.0
H1499 H 0.73003 0.4707 0.03997 0.0
O1500 O 0.77777 0.44225 0.10243 0.0
O1501 O 0.73627 0.43749 0.10233 0.0
O1502 O 0.76165 0.40463 0.06485 0.0
O1503 O 0.72664 0.42439 0.05033 0.0
C1504 C 0.66583 0.51878 0.09992 0.0
C1505 C 0.65455 0.50463 0.11992 0.0
H1506 H 0.63771 0.47157 0.15692 0.0
H1507 H 0.65081 0.42623 0.16082 0.0
H1508 H 0.72297 0.51647 0.03284 0.0
H1509 H 0.69207 0.54004 0.06041 0.0
H1510 H 0.66115 0.53878 0.09757 0.0
H1511 H 0.64138 0.51395 0.13267 0.0
Mn1512 Mn 0.60688 0.75876 0.08875 0.0
Mn1513 Mn 0.59131 0.82072 0.08396 0.0
C1514 C 0.60246 0.77618 0.04787 0.0
C1515 C 0.63786 0.72831 0.09602 0.0
C1516 C 0.55293 0.77812 0.09674 0.0
O1517 O 0.61191 0.77244 0.12503 0.0
O1518 O 0.60662 0.81429 0.11785 0.0
C1519 C 0.64309 0.84372 0.08551 0.0
N1520 N 0.61978 0.84144 0.07428 0.0
C1521 C 0.62655 0.87985 0.05009 0.0
C1522 C 0.6508 0.88261 0.06115 0.0
C1523 C 0.65929 0.86419 0.07863 0.0
C1524 C 0.6121 0.85808 0.05635 0.0
H1525 H 0.649 0.83025 0.09982 0.0
C1526 C 0.61229 0.79568 0.13235 0.0
O1527 O 0.61409 0.72372 0.1012 0.0
O1528 O 0.64374 0.75056 0.08654 0.0
N1529 N 0.57609 0.83186 0.05294 0.0
C1530 C 0.55253 0.82593 0.04369 0.0
C1531 C 0.54014 0.8433 0.02769 0.0
C1532 C 0.55202 0.8668 0.02179 0.0
C1533 C 0.57697 0.87185 0.03028 0.0
C1534 C 0.58848 0.85351 0.04569 0.0
H1535 H 0.54295 0.8085 0.04929 0.0
O1536 O 0.6026 0.75164 0.05163 0.0
O1537 O 0.60649 0.79019 0.06829 0.0
O1538 O 0.568 0.75945 0.09335 0.0
O1539 O 0.56023 0.80139 0.09428 0.0
C1540 C 0.59049 0.89479 0.02502 0.0
C1541 C 0.61559 0.89839 0.03418 0.0
H1542 H 0.66287 0.89898 0.05669 0.0
H1543 H 0.67788 0.86625 0.08744 0.0
H1544 H 0.52113 0.83903 0.02072 0.0
H1545 H 0.54189 0.88069 0.01045 0.0
H1546 H 0.58186 0.90978 0.01383 0.0
H1547 H 0.62595 0.91584 0.02954 0.0
Mn1548 Mn 0.25069 0.59301 0.1166 0.0
Mn1549 Mn 0.30188 0.56349 0.09244 0.0
C1550 C 0.24943 0.54859 0.1129 0.0
C1551 C 0.22677 0.60495 0.15231 0.0
C1552 C 0.26367 0.59109 0.0592 0.0
O1553 O 0.27787 0.62074 0.11969 0.0
O1554 O 0.31163 0.59899 0.10473 0.0
C1555 C 0.3351 0.55811 0.13787 0.0
N1556 N 0.32172 0.54726 0.11829 0.0
C1557 C 0.339 0.50576 0.12742 0.0
C1558 C 0.35261 0.51646 0.14798 0.0
C1559 C 0.35061 0.54275 0.15325 0.0
C1560 C 0.32372 0.52201 0.11291 0.0
H1561 H 0.33422 0.57834 0.14145 0.0
C1562 C 0.30135 0.61929 0.11386 0.0
O1563 O 0.22248 0.61493 0.13 0.0
O1564 O 0.24699 0.59133 0.15438 0.0
N1565 N 0.29498 0.52972 0.08018 0.0
C1566 C 0.27917 0.52226 0.06087 0.0
C1567 C 0.2779 0.49641 0.05387 0.0
C1568 C 0.29308 0.47846 0.0666 0.0
C1569 C 0.30917 0.48664 0.0865 0.0
C1570 C 0.30937 0.51269 0.09283 0.0
H1571 H 0.26752 0.53591 0.05094 0.0
O1572 O 0.22929 0.56237 0.11392 0.0
O1573 O 0.27097 0.56176 0.1138 0.0
O1574 O 0.24868 0.59838 0.07704 0.0
O1575 O 0.28379 0.57852 0.06342 0.0
C1576 C 0.32479 0.47 0.10049 0.0
C1577 C 0.33981 0.47958 0.12086 0.0
H1578 H 0.36465 0.50469 0.15983 0.0
H1579 H 0.36124 0.55121 0.16893 0.0
H1580 H 0.26529 0.49066 0.03857 0.0
H1581 H 0.29218 0.45848 0.06109 0.0
H1582 H 0.32514 0.44975 0.09597 0.0
H1583 H 0.35152 0.46655 0.13168 0.0
Mn1584 Mn 0.399 0.25147 0.10186 0.0
Mn1585 Mn 0.41441 0.18902 0.10178 0.0
C1586 C 0.40261 0.22983 0.06252 0.0
C1587 C 0.36746 0.28285 0.10542 0.0
C1588 C 0.45335 0.23211 0.11039 0.0
O1589 O 0.3944 0.24097 0.13942 0.0
O1590 O 0.4003 0.19868 0.13515 0.0
C1591 C 0.36331 0.16524 0.10709 0.0
N1592 N 0.3859 0.16726 0.09457 0.0
C1593 C 0.37949 0.12639 0.07435 0.0
C1594 C 0.35586 0.12396 0.08661 0.0
C1595 C 0.34754 0.14371 0.10271 0.0
C1596 C 0.39342 0.14913 0.07796 0.0
H1597 H 0.35771 0.17968 0.12069 0.0
C1598 C 0.39474 0.21828 0.14838 0.0
O1599 O 0.39117 0.28799 0.11059 0.0
O1600 O 0.36194 0.25957 0.09856 0.0
N1601 N 0.4289 0.17542 0.07154 0.0
C1602 C 0.45238 0.18067 0.06182 0.0
C1603 C 0.46501 0.16186 0.04786 0.0
C1604 C 0.45345 0.13773 0.04443 0.0
C1605 C 0.42843 0.13339 0.05293 0.0
C1606 C 0.4167 0.15305 0.06642 0.0
H1607 H 0.46185 0.19864 0.06577 0.0
O1608 O 0.40286 0.25462 0.06397 0.0
O1609 O 0.39891 0.2181 0.08422 0.0
O1610 O 0.43843 0.25095 0.10653 0.0
O1611 O 0.44542 0.20902 0.10949 0.0
C1612 C 0.41531 0.10982 0.05004 0.0
C1613 C 0.39051 0.10661 0.05999 0.0
H1614 H 0.34424 0.10681 0.08426 0.0
H1615 H 0.32948 0.14186 0.11247 0.0
H1616 H 0.48409 0.16551 0.04088 0.0
H1617 H 0.46414 0.12266 0.03542 0.0
H1618 H 0.42416 0.09397 0.04031 0.0
H1619 H 0.38054 0.08849 0.05738 0.0
Mn1620 Mn 0.26177 0.38044 0.8996 0.0
Mn1621 Mn 0.20529 0.40426 0.91907 0.0
C1622 C 0.25547 0.38893 0.94288 0.0
C1623 C 0.28858 0.34624 0.89137 0.0
C1624 C 0.2484 0.43719 0.89518 0.0
O1625 O 0.23862 0.37498 0.86825 0.0
O1626 O 0.20166 0.38959 0.88415 0.0
C1627 C 0.17046 0.35896 0.92016 0.0
N1628 N 0.1827 0.37782 0.93362 0.0
C1629 C 0.14677 0.37159 0.96827 0.0
C1630 C 0.1367 0.3525 0.95257 0.0
C1631 C 0.14868 0.34601 0.92957 0.0
C1632 C 0.17496 0.38395 0.9574 0.0
H1633 H 0.17695 0.35397 0.9013 0.0
C1634 C 0.21485 0.37971 0.86624 0.0
O1635 O 0.29253 0.36851 0.88107 0.0
O1636 O 0.26759 0.34304 0.90403 0.0
N1637 N 0.20658 0.41989 0.952 0.0
C1638 C 0.21281 0.44493 0.95556 0.0
C1639 C 0.2136 0.45608 0.97958 0.0
C1640 C 0.20139 0.44482 1.00014 0.0
C1641 C 0.18425 0.42343 0.99597 0.0
C1642 C 0.19216 0.40766 0.96931 0.0
H1643 H 0.21632 0.45714 0.93959 0.0
O1644 O 0.27797 0.38609 0.93346 0.0
O1645 O 0.23654 0.38505 0.9268 0.0
O1646 O 0.2645 0.41937 0.89217 0.0
O1647 O 0.22614 0.43302 0.90437 0.0
C1648 C 0.14087 0.40557 0.01394 0.0
C1649 C 0.13006 0.38091 0.99468 0.0
H1650 H 0.11918 0.34276 0.95786 0.0
H1651 H 0.14 0.33117 0.91785 0.0
H1652 H 0.22212 0.47495 0.98187 0.0
H1653 H 0.2032 0.45572 0.01747 0.0
H1654 H 0.12916 0.41113 0.03019 0.0
H1655 H 0.11218 0.37146 0.99917 0.0
Mn1656 Mn 0.60035 0.24124 0.88818 0.0
Mn1657 Mn 0.5682 0.28838 0.91741 0.0
C1658 C 0.55668 0.23623 0.89481 0.0
C1659 C 0.6169 0.22347 0.85054 0.0
C1660 C 0.60226 0.25076 0.94537 0.0
O1661 O 0.62552 0.27157 0.88797 0.0
O1662 O 0.60007 0.30288 0.90218 0.0
C1663 C 0.55439 0.31912 0.87219 0.0
N1664 N 0.54726 0.30576 0.89334 0.0
C1665 C 0.50314 0.31545 0.88635 0.0
C1666 C 0.51001 0.32945 0.86457 0.0
C1667 C 0.53574 0.33119 0.8574 0.0
C1668 C 0.52254 0.3037 0.90023 0.0
H1669 H 0.57415 0.3205 0.86665 0.0
C1670 C 0.62144 0.29497 0.89367 0.0
O1671 O 0.62602 0.21806 0.87292 0.0
O1672 O 0.59862 0.23992 0.85021 0.0
N1673 N 0.53698 0.27755 0.93297 0.0
C1674 C 0.53352 0.26308 0.95431 0.0
C1675 C 0.50881 0.25895 0.9637 0.0
C1676 C 0.48796 0.2702 0.95139 0.0
C1677 C 0.49205 0.28552 0.92983 0.0
C1678 C 0.51711 0.28889 0.92131 0.0
H1679 H 0.54947 0.25466 0.96408 0.0
O1680 O 0.57081 0.21673 0.88973 0.0
O1681 O 0.56847 0.25838 0.89497 0.0
O1682 O 0.6075 0.23652 0.92636 0.0
O1683 O 0.58884 0.27097 0.94379 0.0
C1684 C 0.47224 0.29752 0.91641 0.0
C1685 C 0.47778 0.31247 0.89468 0.0
H1686 H 0.49568 0.33882 0.85312 0.0
H1687 H 0.54118 0.34186 0.84055 0.0
H1688 H 0.50592 0.24724 0.98044 0.0
H1689 H 0.46893 0.26713 0.95874 0.0
H1690 H 0.45265 0.29518 0.9225 0.0
H1691 H 0.46236 0.32137 0.88435 0.0
Mn1692 Mn 0.40058 0.75829 0.89473 0.0
Mn1693 Mn 0.43318 0.70856 0.91886 0.0
C1694 C 0.44505 0.76098 0.89867 0.0
C1695 C 0.38455 0.78259 0.86125 0.0
C1696 C 0.40186 0.74497 0.95132 0.0
O1697 O 0.3745 0.72848 0.89246 0.0
O1698 O 0.39972 0.69622 0.90523 0.0
C1699 C 0.44222 0.6792 0.87145 0.0
N1700 N 0.45148 0.69151 0.89253 0.0
C1701 C 0.49448 0.68021 0.8821 0.0
C1702 C 0.48541 0.66735 0.86031 0.0
C1703 C 0.45918 0.66694 0.85492 0.0
C1704 C 0.4767 0.69223 0.89776 0.0
H1705 H 0.42206 0.67878 0.8673 0.0
C1706 C 0.37829 0.70477 0.89738 0.0
O1707 O 0.37511 0.78407 0.88402 0.0
O1708 O 0.40088 0.7646 0.85717 0.0
N1709 N 0.46591 0.71761 0.93251 0.0
C1710 C 0.47157 0.73125 0.95402 0.0
C1711 C 0.49703 0.73377 0.96195 0.0
C1712 C 0.51638 0.72211 0.9478 0.0
C1713 C 0.51007 0.70797 0.92586 0.0
C1714 C 0.48433 0.70597 0.919 0.0
H1715 H 0.45678 0.74005 0.96513 0.0
O1716 O 0.43133 0.78137 0.89732 0.0
O1717 O 0.43226 0.73945 0.89786 0.0
O1718 O 0.3952 0.75986 0.9334 0.0
O1719 O 0.41542 0.72513 0.94784 0.0
C1720 C 0.52828 0.69572 0.91059 0.0
C1721 C 0.52049 0.68184 0.88873 0.0
H1722 H 0.49842 0.65785 0.84752 0.0
H1723 H 0.45204 0.65713 0.83809 0.0
H1724 H 0.50164 0.74447 0.97907 0.0
H1725 H 0.53599 0.7239 0.95405 0.0
H1726 H 0.54834 0.69699 0.91539 0.0
H1727 H 0.53469 0.67272 0.87699 0.0
C1728 C 0.13527 0.32296 0.30158 0.0
C1729 C 0.11229 0.33271 0.29158 0.0
C1730 C 0.08791 0.30194 0.31766 0.0
C1731 C 0.11045 0.29629 0.33147 0.0
N1732 N 0.15602 0.2991 0.33551 0.0
N1733 N 0.06671 0.33078 0.28854 0.0
C1734 C 0.13437 0.3058 0.3228 0.0
C1735 C 0.08865 0.32137 0.29867 0.0
N1736 N 0.15781 0.33068 0.29099 0.0
N1737 N 0.06565 0.28936 0.32329 0.0
H1738 H 0.06699 0.34436 0.27406 0.0
H1739 H 0.04853 0.32616 0.29506 0.0
H1740 H 0.06416 0.27592 0.33784 0.0
H1741 H 0.04913 0.2907 0.31239 0.0
H1742 H 0.17543 0.32337 0.29611 0.0
H1743 H 0.15845 0.34314 0.27545 0.0
H1744 H 0.17386 0.30729 0.33212 0.0
H1745 H 0.15589 0.28561 0.35019 0.0
C1746 C 0.68837 0.09085 0.32503 0.0
C1747 C 0.69453 0.11288 0.34003 0.0
C1748 C 0.65869 0.13551 0.3202 0.0
C1749 C 0.65313 0.11351 0.3052 0.0
N1750 N 0.66932 0.07518 0.2859 0.0
N1751 N 0.68961 0.15828 0.34673 0.0
C1752 C 0.67021 0.09285 0.30512 0.0
C1753 C 0.68084 0.1359 0.33613 0.0
N1754 N 0.69802 0.06739 0.3309 0.0
N1755 N 0.64299 0.15608 0.31892 0.0
H1756 H 0.70642 0.15945 0.35735 0.0
H1757 H 0.68174 0.17607 0.34296 0.0
H1758 H 0.62848 0.15732 0.30536 0.0
H1759 H 0.64395 0.17145 0.3316 0.0
H1760 H 0.69196 0.05058 0.32182 0.0
H1761 H 0.70953 0.06395 0.34669 0.0
H1762 H 0.68298 0.06104 0.28377 0.0
H1763 H 0.65645 0.07625 0.27075 0.0
C1764 C 0.90746 0.69422 0.33107 0.0
C1765 C 0.88687 0.6948 0.3486 0.0
C1766 C 0.86405 0.66191 0.32359 0.0
C1767 C 0.88555 0.65992 0.30747 0.0
N1768 N 0.92279 0.68025 0.28976 0.0
N1769 N 0.84295 0.68528 0.35762 0.0
C1770 C 0.90565 0.67815 0.30921 0.0
C1771 C 0.86424 0.6805 0.3436 0.0
N1772 N 0.92932 0.70788 0.33601 0.0
N1773 N 0.84359 0.64596 0.31963 0.0
H1774 H 0.84253 0.69977 0.37134 0.0
H1775 H 0.82526 0.67667 0.3543 0.0
H1776 H 0.84219 0.63415 0.30357 0.0
H1777 H 0.82835 0.64413 0.33215 0.0
H1778 H 0.94612 0.7056 0.32581 0.0
H1779 H 0.9312 0.72054 0.3513 0.0
H1780 H 0.93658 0.69473 0.28869 0.0
H1781 H 0.92165 0.66884 0.27342 0.0
C1782 C 0.32106 0.88176 0.29016 0.0
C1783 C 0.34294 0.89726 0.29542 0.0
C1784 C 0.32915 0.90191 0.33986 0.0
C1785 C 0.30589 0.88872 0.33402 0.0
N1786 N 0.27843 0.86837 0.30293 0.0
N1787 N 0.36468 0.9269 0.32365 0.0
C1788 C 0.30144 0.87939 0.3089 0.0
C1789 C 0.34622 0.9085 0.31987 0.0
N1790 N 0.31949 0.86845 0.26771 0.0
N1791 N 0.3351 0.90845 0.36446 0.0
H1792 H 0.37698 0.93319 0.30933 0.0
H1793 H 0.36604 0.938 0.34014 0.0
H1794 H 0.32307 0.90544 0.37989 0.0
H1795 H 0.35312 0.91502 0.36999 0.0
H1796 H 0.30534 0.85484 0.26378 0.0
H1797 H 0.33362 0.86936 0.25379 0.0
H1798 H 0.27283 0.8639 0.28435 0.0
H1799 H 0.26428 0.86501 0.3165 0.0
C1800 C 0.13449 0.65973 0.69368 0.0
C1801 C 0.1126 0.65948 0.70975 0.0
C1802 C 0.10229 0.70203 0.69376 0.0
C1803 C 0.11955 0.69936 0.67309 0.0
N1804 N 0.15545 0.67664 0.65595 0.0
N1805 N 0.07227 0.67905 0.71991 0.0
C1806 C 0.13659 0.67835 0.67368 0.0
C1807 C 0.09553 0.68024 0.70835 0.0
N1808 N 0.15405 0.64343 0.69853 0.0
N1809 N 0.0934 0.72545 0.70074 0.0
H1810 H 0.06521 0.66266 0.72889 0.0
H1811 H 0.05875 0.69333 0.71758 0.0
H1812 H 0.1013 0.74252 0.69393 0.0
H1813 H 0.08163 0.72794 0.71653 0.0
H1814 H 0.1714 0.64423 0.68899 0.0
H1815 H 0.15417 0.63094 0.714 0.0
H1816 H 0.16574 0.66 0.65289 0.0
H1817 H 0.16096 0.692 0.64447 0.0
C1818 C 0.30133 0.08901 0.67066 0.0
C1819 C 0.29422 0.11275 0.66 0.0
C1820 C 0.32258 0.13516 0.69035 0.0
C1821 C 0.33228 0.11116 0.69834 0.0
N1822 N 0.33376 0.06516 0.69245 0.0
N1823 N 0.29825 0.15861 0.65863 0.0
C1824 C 0.3222 0.08803 0.68779 0.0
C1825 C 0.30475 0.13596 0.66969 0.0
N1826 N 0.28826 0.0672 0.66401 0.0
N1827 N 0.3299 0.15701 0.70291 0.0
H1828 H 0.28428 0.15971 0.64446 0.0
H1829 H 0.30737 0.17599 0.66263 0.0
H1830 H 0.34267 0.15697 0.7182 0.0
H1831 H 0.32185 0.1748 0.6996 0.0
H1832 H 0.29054 0.04969 0.67317 0.0
H1833 H 0.27334 0.06731 0.65092 0.0
H1834 H 0.32897 0.04824 0.68293 0.0
H1835 H 0.34995 0.06333 0.70374 0.0
C1836 C 0.90099 0.34172 0.64404 0.0
C1837 C 0.88329 0.32192 0.64998 0.0
C1838 C 0.86883 0.34733 0.68653 0.0
C1839 C 0.88984 0.36462 0.6834 0.0
N1840 N 0.92926 0.37426 0.66086 0.0
N1841 N 0.85133 0.30476 0.67818 0.0
C1842 C 0.90676 0.36088 0.6625 0.0
C1843 C 0.86751 0.32435 0.67168 0.0
N1844 N 0.91239 0.34241 0.62065 0.0
N1845 N 0.84943 0.35347 0.70258 0.0
H1846 H 0.84919 0.28826 0.66705 0.0
H1847 H 0.84133 0.3043 0.69532 0.0
H1848 H 0.84872 0.37102 0.71207 0.0
H1849 H 0.83271 0.3426 0.70407 0.0
H1850 H 0.92363 0.35781 0.61452 0.0
H1851 H 0.90818 0.32922 0.60627 0.0
H1852 H 0.94329 0.36991 0.64758 0.0
H1853 H 0.93552 0.38765 0.67426 0.0
C1854 C 0.6949 0.9154 0.66851 0.0
C1855 C 0.69979 0.89187 0.65593 0.0
C1856 C 0.66999 0.86973 0.68493 0.0
C1857 C 0.66313 0.89373 0.6955 0.0
N1858 N 0.66601 0.93989 0.69458 0.0
N1859 N 0.6911 0.84677 0.65076 0.0
C1860 C 0.67496 0.91668 0.68673 0.0
C1861 C 0.68708 0.86904 0.6638 0.0
N1862 N 0.70911 0.93672 0.66279 0.0
N1863 N 0.66088 0.84761 0.69567 0.0
H1864 H 0.70468 0.84528 0.63636 0.0
H1865 H 0.68025 0.83015 0.65335 0.0
H1866 H 0.64842 0.84745 0.71113 0.0
H1867 H 0.66711 0.82946 0.69063 0.0
H1868 H 0.70863 0.95363 0.67333 0.0
H1869 H 0.72301 0.93688 0.64873 0.0
H1870 H 0.67178 0.95729 0.68668 0.0
H1871 H 0.65095 0.94182 0.7073 0.0
C1872 C 0.32842 0.08986 0.3183 0.0
C1873 C 0.33987 0.11301 0.30963 0.0
C1874 C 0.31622 0.13714 0.342 0.0
C1875 C 0.30392 0.11405 0.34991 0.0
N1876 N 0.29536 0.06897 0.34287 0.0
N1877 N 0.34234 0.15905 0.31029 0.0
C1878 C 0.30897 0.09065 0.33705 0.0
C1879 C 0.33317 0.13679 0.32071 0.0
N1880 N 0.33727 0.06685 0.30977 0.0
N1881 N 0.31174 0.15937 0.35496 0.0
H1882 H 0.35481 0.15936 0.29483 0.0
H1883 H 0.33633 0.17717 0.31564 0.0
H1884 H 0.298 0.16074 0.36921 0.0
H1885 H 0.32226 0.1762 0.35238 0.0
H1886 H 0.3321 0.04927 0.31769 0.0
H1887 H 0.35164 0.06522 0.29625 0.0
H1888 H 0.29559 0.05234 0.33187 0.0
H1889 H 0.28232 0.068 0.35765 0.0
C1890 C 0.86581 0.31026 0.31663 0.0
C1891 C 0.87921 0.31326 0.33999 0.0
C1892 C 0.89144 0.35723 0.32805 0.0
C1893 C 0.88106 0.35295 0.3033 0.0
N1894 N 0.85818 0.32584 0.27362 0.0
N1895 N 0.90715 0.33852 0.36714 0.0
C1896 C 0.86802 0.32961 0.29754 0.0
C1897 C 0.89224 0.33663 0.34573 0.0
N1898 N 0.85062 0.28908 0.313 0.0
N1899 N 0.90115 0.3808 0.3346 0.0
H1900 H 0.90842 0.32415 0.38081 0.0
H1901 H 0.91997 0.35354 0.37053 0.0
H1902 H 0.90289 0.39604 0.32195 0.0
H1903 H 0.9058 0.38596 0.35326 0.0
H1904 H 0.8385 0.28655 0.29743 0.0
H1905 H 0.84859 0.27478 0.32676 0.0
H1906 H 0.85115 0.30831 0.26702 0.0
H1907 H 0.8579 0.34026 0.25986 0.0
C1908 C 0.6789 0.86376 0.34289 0.0
C1909 C 0.6929 0.88681 0.34696 0.0
C1910 C 0.66981 0.90694 0.31182 0.0
C1911 C 0.65232 0.88607 0.31162 0.0
N1912 N 0.64145 0.84301 0.32417 0.0
N1913 N 0.70143 0.93089 0.33593 0.0
C1914 C 0.65736 0.86383 0.3262 0.0
C1915 C 0.68857 0.90844 0.3313 0.0
N1916 N 0.68652 0.8419 0.35479 0.0
N1917 N 0.66883 0.92503 0.29306 0.0
H1918 H 0.71564 0.93247 0.34976 0.0
H1919 H 0.69688 0.94818 0.32728 0.0
H1920 H 0.65566 0.92408 0.27813 0.0
H1921 H 0.68254 0.93946 0.2909 0.0
H1922 H 0.67829 0.82393 0.35161 0.0
H1923 H 0.70275 0.8415 0.36633 0.0
H1924 H 0.64215 0.82724 0.33623 0.0
H1925 H 0.62697 0.84186 0.31052 0.0
C1926 C 0.14193 0.66425 0.32059 0.0
C1927 C 0.12181 0.66245 0.30259 0.0
C1928 C 0.11232 0.7075 0.31017 0.0
C1929 C 0.12626 0.70645 0.33339 0.0
N1930 N 0.16194 0.68803 0.3554 0.0
N1931 N 0.08964 0.68337 0.27756 0.0
C1932 C 0.14364 0.68611 0.33693 0.0
C1933 C 0.10782 0.68452 0.29622 0.0
N1934 N 0.1597 0.64542 0.3212 0.0
N1935 N 0.10467 0.73052 0.3008 0.0
H1936 H 0.08677 0.66727 0.26606 0.0
H1937 H 0.07667 0.69796 0.27439 0.0
H1938 H 0.11066 0.74784 0.30894 0.0
H1939 H 0.09579 0.73257 0.28313 0.0
H1940 H 0.17563 0.6456 0.33304 0.0
H1941 H 0.1595 0.63047 0.30794 0.0
H1942 H 0.17312 0.67287 0.36135 0.0
H1943 H 0.16649 0.70543 0.36422 0.0
C1944 C 0.34488 0.91386 0.68386 0.0
C1945 C 0.35512 0.89023 0.69213 0.0
C1946 C 0.32104 0.86671 0.66934 0.0
C1947 C 0.31073 0.89039 0.66114 0.0
N1948 N 0.31088 0.93675 0.66312 0.0
N1949 N 0.35156 0.84446 0.69621 0.0
C1950 C 0.32197 0.91401 0.66931 0.0
C1951 C 0.34271 0.86671 0.68594 0.0
N1952 N 0.35763 0.93628 0.68925 0.0
N1953 N 0.31017 0.84424 0.661 0.0
H1954 H 0.36775 0.84385 0.70777 0.0
H1955 H 0.34223 0.82683 0.69464 0.0
H1956 H 0.2933 0.84352 0.65044 0.0
H1957 H 0.31816 0.82633 0.66367 0.0
H1958 H 0.35362 0.95379 0.68082 0.0
H1959 H 0.37335 0.93731 0.70133 0.0
H1960 H 0.31567 0.95417 0.67166 0.0
H1961 H 0.29584 0.93846 0.65032 0.0
C1962 C 0.13915 0.34584 0.66761 0.0
C1963 C 0.1175 0.34976 0.68316 0.0
C1964 C 0.0937 0.31675 0.65959 0.0
C1965 C 0.11492 0.31345 0.6432 0.0
N1966 N 0.15978 0.3191 0.6359 0.0
N1967 N 0.07808 0.33301 0.69987 0.0
C1968 C 0.13833 0.32627 0.64854 0.0
C1969 C 0.09605 0.33321 0.68107 0.0
N1970 N 0.16033 0.36092 0.67106 0.0
N1971 N 0.07082 0.30532 0.65389 0.0
H1972 H 0.0795 0.34468 0.71601 0.0
H1973 H 0.06319 0.31966 0.70071 0.0
H1974 H 0.06833 0.2928 0.63862 0.0
H1975 H 0.05392 0.30961 0.66321 0.0
H1976 H 0.17571 0.3613 0.65859 0.0
H1977 H 0.16213 0.37368 0.68633 0.0
H1978 H 0.17791 0.32639 0.63988 0.0
H1979 H 0.1597 0.30383 0.62302 0.0
C1980 C 0.70502 0.12162 0.69545 0.0
C1981 C 0.70147 0.11176 0.67038 0.0
C1982 C 0.66181 0.09036 0.68405 0.0
C1983 C 0.66386 0.10247 0.70816 0.0
N1984 N 0.68569 0.13223 0.73615 0.0
N1985 N 0.67418 0.08954 0.63982 0.0
C1986 C 0.6851 0.1187 0.7138 0.0
C1987 C 0.67913 0.09711 0.66435 0.0
N1988 N 0.7274 0.13376 0.7017 0.0
N1989 N 0.64402 0.07129 0.68032 0.0
H1990 H 0.6865 0.09267 0.62464 0.0
H1991 H 0.65669 0.08187 0.63399 0.0
H1992 H 0.63147 0.06516 0.69451 0.0
H1993 H 0.64348 0.05962 0.66418 0.0
H1994 H 0.73241 0.1388 0.7203 0.0
H1995 H 0.74171 0.1375 0.6884 0.0
H1996 H 0.69919 0.14645 0.74024 0.0
H1997 H 0.6715 0.1306 0.74996 0.0
C1998 C 0.87106 0.67267 0.65832 0.0
C1999 C 0.88691 0.69502 0.6587 0.0
C2000 C 0.89288 0.68899 0.7046 0.0
C2001 C 0.88384 0.6633 0.70263 0.0
N2002 N 0.8576 0.63318 0.67889 0.0
N2003 N 0.91553 0.72278 0.68291 0.0
C2004 C 0.87085 0.65582 0.67983 0.0
C2005 C 0.89834 0.70293 0.68207 0.0
N2006 N 0.85528 0.66831 0.63793 0.0
N2007 N 0.89489 0.70073 0.72782 0.0
H2008 H 0.92135 0.73299 0.6669 0.0
H2009 H 0.926 0.7273 0.6993 0.0
H2010 H 0.88737 0.69259 0.74436 0.0
H2011 H 0.89999 0.72001 0.72985 0.0
H2012 H 0.84172 0.65361 0.63713 0.0
H2013 H 0.85395 0.68105 0.62271 0.0
H2014 H 0.85158 0.62454 0.66195 0.0
H2015 H 0.8519 0.6234 0.69525 0.0
C2016 C 0.32202 0.33398 0.08125 0.0
C2017 C 0.30909 0.34075 0.10409 0.0
C2018 C 0.33411 0.30899 0.12787 0.0
C2019 C 0.34775 0.30316 0.10529 0.0
N2020 N 0.35747 0.31224 0.06136 0.0
N2021 N 0.30428 0.33676 0.14962 0.0
C2022 C 0.34241 0.31622 0.08221 0.0
C2023 C 0.31567 0.32892 0.12758 0.0
N2024 N 0.31479 0.34449 0.0585 0.0
N2025 N 0.33828 0.29486 0.14939 0.0
H2026 H 0.28968 0.35009 0.14996 0.0
H2027 H 0.31008 0.33117 0.16775 0.0
H2028 H 0.35199 0.28061 0.15036 0.0
H2029 H 0.32725 0.296 0.16579 0.0
H2030 H 0.32078 0.33784 0.04082 0.0
H2031 H 0.3017 0.35921 0.057 0.0
H2032 H 0.35674 0.32319 0.04481 0.0
H2033 H 0.37221 0.29906 0.06115 0.0
C2034 C 0.34047 0.68194 0.8758 0.0
C2035 C 0.35633 0.68602 0.89757 0.0
C2036 C 0.33476 0.65014 0.91943 0.0
C2037 C 0.31837 0.64628 0.89798 0.0
N2038 N 0.30316 0.6608 0.85711 0.0
N2039 N 0.3646 0.67719 0.94215 0.0
C2040 C 0.32026 0.66313 0.87671 0.0
C2041 C 0.35226 0.67104 0.91989 0.0
N2042 N 0.34582 0.69475 0.8537 0.0
N2043 N 0.33427 0.63331 0.93942 0.0
H2044 H 0.37812 0.69179 0.94381 0.0
H2045 H 0.35976 0.6695 0.95983 0.0
H2046 H 0.32013 0.61948 0.94203 0.0
H2047 H 0.34876 0.63207 0.95296 0.0
H2048 H 0.33695 0.69081 0.83632 0.0
H2049 H 0.36065 0.70813 0.85214 0.0
H2050 H 0.30161 0.6741 0.84245 0.0
H2051 H 0.28924 0.64641 0.85631 0.0
C2052 C 0.30561 0.30221 0.88238 0.0
C2053 C 0.30918 0.32701 0.89305 0.0
C2054 C 0.34924 0.31333 0.91303 0.0
C2055 C 0.34644 0.28907 0.9011 0.0
N2056 N 0.32452 0.26157 0.87098 0.0
N2057 N 0.33611 0.35742 0.91592 0.0
C2058 C 0.32527 0.28378 0.88486 0.0
C2059 C 0.33163 0.333 0.90736 0.0
N2060 N 0.28334 0.29622 0.87002 0.0
N2061 N 0.36781 0.31709 0.9311 0.0
H2062 H 0.32306 0.37215 0.91438 0.0
H2063 H 0.3536 0.36365 0.92321 0.0
H2064 H 0.38091 0.30314 0.93612 0.0
H2065 H 0.36893 0.33317 0.94285 0.0
H2066 H 0.27817 0.27769 0.86454 0.0
H2067 H 0.26926 0.30966 0.86643 0.0
H2068 H 0.31104 0.25764 0.85686 0.0
H2069 H 0.33872 0.24785 0.87202 0.0
C2070 C 0.65586 0.31891 0.86894 0.0
C2071 C 0.64305 0.31397 0.89238 0.0
C2072 C 0.67236 0.34403 0.91427 0.0
C2073 C 0.68338 0.35096 0.89056 0.0
N2074 N 0.68358 0.34748 0.84471 0.0
N2075 N 0.63721 0.32479 0.93701 0.0
C2076 C 0.67483 0.33884 0.86772 0.0
C2077 C 0.65074 0.32739 0.91489 0.0
N2078 N 0.64956 0.30498 0.84767 0.0
N2079 N 0.68316 0.35273 0.9365 0.0
H2080 H 0.62257 0.31146 0.93965 0.0
H2081 H 0.63957 0.33698 0.95262 0.0
H2082 H 0.69876 0.36524 0.93697 0.0
H2083 H 0.67825 0.34573 0.95445 0.0
H2084 H 0.66027 0.30527 0.83099 0.0
H2085 H 0.63429 0.29203 0.847 0.0
H2086 H 0.676 0.34166 0.82723 0.0
H2087 H 0.69723 0.36206 0.84298 0.0
C2088 C 0.6909 0.67432 0.87256 0.0
C2089 C 0.68751 0.6518 0.88732 0.0
C2090 C 0.64722 0.66858 0.90428 0.0
C2091 C 0.65172 0.69209 0.89125 0.0
N2092 N 0.67751 0.71762 0.86269 0.0
N2093 N 0.66362 0.6277 0.9185 0.0
C2094 C 0.6735 0.695 0.87529 0.0
C2095 C 0.66578 0.64885 0.90324 0.0
N2096 N 0.71039 0.67548 0.85534 0.0
N2097 N 0.62528 0.66516 0.91794 0.0
H2098 H 0.67618 0.61245 0.91771 0.0
H2099 H 0.65031 0.62569 0.93304 0.0
H2100 H 0.61233 0.67971 0.92128 0.0
H2101 H 0.61908 0.64754 0.92497 0.0
H2102 H 0.71302 0.69016 0.8422 0.0
H2103 H 0.72317 0.66057 0.85289 0.0
H2104 H 0.69431 0.72248 0.85333 0.0
H2105 H 0.66413 0.73217 0.86214 0.0
C2106 C 0.6547 0.68478 0.08659 0.0
C2107 C 0.65732 0.7084 0.09977 0.0
C2108 C 0.69809 0.69463 0.11788 0.0
C2109 C 0.69461 0.67039 0.106 0.0
N2110 N 0.6677 0.6408 0.08212 0.0
N2111 N 0.67892 0.73448 0.13134 0.0
C2112 C 0.67221 0.6649 0.09152 0.0
C2113 C 0.67834 0.71301 0.11635 0.0
N2114 N 0.63646 0.68189 0.06804 0.0
N2115 N 0.72037 0.70012 0.13044 0.0
H2116 H 0.66465 0.74818 0.13095 0.0
H2117 H 0.69233 0.73773 0.14569 0.0
H2118 H 0.73454 0.6866 0.13326 0.0
H2119 H 0.72542 0.71838 0.13686 0.0
H2120 H 0.63553 0.66633 0.0556 0.0
H2121 H 0.62361 0.69616 0.06327 0.0
H2122 H 0.65025 0.63493 0.07445 0.0
H2123 H 0.68057 0.62589 0.08355 0.0
C2124 C 0.35418 0.66467 0.1371 0.0
C2125 C 0.35434 0.68276 0.11695 0.0
C2126 C 0.31509 0.66339 0.09938 0.0
C2127 C 0.31756 0.6428 0.11688 0.0
N2128 N 0.33336 0.62788 0.15714 0.0
N2129 N 0.3331 0.70264 0.08157 0.0
C2130 C 0.33543 0.64459 0.1372 0.0
C2131 C 0.33396 0.68331 0.0991 0.0
N2132 N 0.37175 0.66719 0.15626 0.0
N2133 N 0.29435 0.66412 0.08354 0.0
H2134 H 0.34547 0.71844 0.08217 0.0
H2135 H 0.3207 0.7031 0.0661 0.0
H2136 H 0.28004 0.65011 0.08352 0.0
H2137 H 0.29017 0.67923 0.07142 0.0
H2138 H 0.37452 0.65388 0.17068 0.0
H2139 H 0.3836 0.68333 0.15789 0.0
H2140 H 0.34536 0.62774 0.17293 0.0
H2141 H 0.31815 0.6149 0.15869 0.0
C2142 C 0.68916 0.34234 0.12346 0.0
C2143 C 0.69712 0.35312 0.09987 0.0
C2144 C 0.66476 0.32747 0.07715 0.0
C2145 C 0.65686 0.31614 0.10062 0.0
N2146 N 0.66406 0.30996 0.14572 0.0
N2147 N 0.69684 0.35147 0.05402 0.0
C2148 C 0.67012 0.32242 0.1236 0.0
C2149 C 0.68631 0.3441 0.0767 0.0
N2150 N 0.69843 0.35237 0.1458 0.0
N2151 N 0.65112 0.32329 0.05522 0.0
H2152 H 0.71194 0.36451 0.05294 0.0
H2153 H 0.69218 0.34307 0.03654 0.0
H2154 H 0.63609 0.31023 0.05365 0.0
H2155 H 0.65366 0.33401 0.03866 0.0
H2156 H 0.69117 0.34775 0.16369 0.0
H2157 H 0.71248 0.36665 0.14644 0.0
H2158 H 0.67491 0.31142 0.16233 0.0
H2159 H 0.64895 0.29691 0.1472 0.0
C2160 C 0.59559 0.81619 0.79759 0.0
C2161 C 0.61826 0.83053 0.79286 0.0
C2162 C 0.6421 0.80153 0.82053 0.0
C2163 C 0.6188 0.78988 0.82796 0.0
N2164 N 0.57609 0.7783 0.8167 0.0
N2165 N 0.66397 0.83215 0.79283 0.0
C2166 C 0.59655 0.79434 0.81365 0.0
C2167 C 0.64196 0.82129 0.80172 0.0
N2168 N 0.57295 0.82469 0.78832 0.0
N2169 N 0.66391 0.79464 0.83277 0.0
H2170 H 0.66389 0.84662 0.77911 0.0
H2171 H 0.68206 0.82575 0.79752 0.0
H2172 H 0.66399 0.77953 0.84581 0.0
H2173 H 0.68142 0.80389 0.83049 0.0
H2174 H 0.5553 0.81691 0.79329 0.0
H2175 H 0.57197 0.84054 0.77639 0.0
H2176 H 0.55944 0.77938 0.80594 0.0
H2177 H 0.57715 0.76225 0.82847 0.0
C2178 C 0.19546 0.63534 0.83718 0.0
C2179 C 0.21327 0.61517 0.83508 0.0
C2180 C 0.18727 0.59529 0.80124 0.0
C2181 C 0.16816 0.61376 0.80526 0.0
N2182 N 0.15738 0.65562 0.82031 0.0
N2183 N 0.23199 0.58562 0.8051 0.0
C2184 C 0.17341 0.63526 0.8211 0.0
C2185 C 0.21116 0.59817 0.8139 0.0
N2186 N 0.19986 0.65459 0.85437 0.0
N2187 N 0.18229 0.57425 0.78643 0.0
H2188 H 0.25038 0.58997 0.81136 0.0
H2189 H 0.23159 0.57415 0.78881 0.0
H2190 H 0.16524 0.57163 0.77648 0.0
H2191 H 0.19442 0.55866 0.78546 0.0
H2192 H 0.18646 0.66819 0.85936 0.0
H2193 H 0.21739 0.65696 0.86358 0.0
H2194 H 0.16044 0.67268 0.8302 0.0
H2195 H 0.14194 0.65615 0.80773 0.0
C2196 C 0.36002 0.15733 0.82105 0.0
C2197 C 0.38183 0.15466 0.8055 0.0
C2198 C 0.40301 0.19033 0.82753 0.0
C2199 C 0.38266 0.19082 0.84521 0.0
N2200 N 0.33861 0.18226 0.85375 0.0
N2201 N 0.41864 0.17494 0.78683 0.0
C2202 C 0.35996 0.17679 0.84014 0.0
C2203 C 0.4015 0.17342 0.80631 0.0
N2204 N 0.33983 0.14089 0.81784 0.0
N2205 N 0.42443 0.2047 0.83206 0.0
H2206 H 0.41762 0.16283 0.77099 0.0
H2207 H 0.4323 0.18949 0.78527 0.0
H2208 H 0.42539 0.21799 0.84685 0.0
H2209 H 0.44129 0.20278 0.82188 0.0
H2210 H 0.32438 0.13982 0.8302 0.0
H2211 H 0.3389 0.12787 0.80271 0.0
H2212 H 0.32085 0.17379 0.85042 0.0
H2213 H 0.33846 0.19718 0.86705 0.0
C2214 C 0.84413 0.39325 0.82246 0.0
C2215 C 0.84166 0.3836 0.79726 0.0
C2216 C 0.79761 0.3696 0.80632 0.0
C2217 C 0.80026 0.37872 0.83178 0.0
N2218 N 0.82783 0.39613 0.86522 0.0
N2219 N 0.81828 0.35875 0.76627 0.0
C2220 C 0.82411 0.38928 0.84025 0.0
C2221 C 0.81899 0.37065 0.78949 0.0
N2222 N 0.86493 0.40801 0.82899 0.0
N2223 N 0.77457 0.36014 0.7982 0.0
H2224 H 0.83388 0.35886 0.75401 0.0
H2225 H 0.80332 0.34706 0.76001 0.0
H2226 H 0.75914 0.35745 0.81043 0.0
H2227 H 0.77033 0.35594 0.77923 0.0
H2228 H 0.86605 0.41907 0.84552 0.0
H2229 H 0.88052 0.41095 0.8171 0.0
H2230 H 0.84582 0.39936 0.87312 0.0
H2231 H 0.81353 0.39758 0.87873 0.0
C2232 C 0.61068 0.17868 0.15367 0.0
C2233 C 0.62174 0.20281 0.16076 0.0
C2234 C 0.63048 0.18601 0.20372 0.0
C2235 C 0.6175 0.16288 0.19713 0.0
N2236 N 0.59113 0.13891 0.16752 0.0
N2237 N 0.64068 0.23025 0.19279 0.0
C2238 C 0.60679 0.15954 0.17249 0.0
C2239 C 0.63119 0.20671 0.18592 0.0
N2240 N 0.60338 0.17388 0.12901 0.0
N2241 N 0.64268 0.18783 0.22675 0.0
H2242 H 0.64292 0.24526 0.17984 0.0
H2243 H 0.64522 0.23539 0.21147 0.0
H2244 H 0.64249 0.17298 0.24005 0.0
H2245 H 0.65452 0.2031 0.23199 0.0
H2246 H 0.59939 0.15552 0.12213 0.0
H2247 H 0.6025 0.18762 0.11476 0.0
H2248 H 0.57978 0.13728 0.15125 0.0
H2249 H 0.58749 0.12431 0.18056 0.0
C2250 C 0.83395 0.64698 0.18195 0.0
C2251 C 0.83858 0.62301 0.19389 0.0
C2252 C 0.8058 0.60306 0.16668 0.0
C2253 C 0.80442 0.62571 0.15197 0.0
N2254 N 0.81833 0.66908 0.14432 0.0
N2255 N 0.83316 0.57675 0.1921 0.0
C2256 C 0.81883 0.6477 0.15925 0.0
C2257 C 0.82549 0.60064 0.18498 0.0
N2258 N 0.84326 0.66906 0.19269 0.0
N2259 N 0.78857 0.58356 0.16295 0.0
H2260 H 0.84907 0.57341 0.20341 0.0
H2261 H 0.82571 0.55999 0.18401 0.0
H2262 H 0.77355 0.58475 0.15002 0.0
H2263 H 0.78747 0.56755 0.17476 0.0
H2264 H 0.83868 0.68722 0.18608 0.0
H2265 H 0.85351 0.66931 0.20977 0.0
H2266 H 0.83059 0.68472 0.14697 0.0
H2267 H 0.80649 0.67048 0.12836 0.0
C2268 C 0.36578 0.80718 0.17651 0.0
C2269 C 0.38952 0.79586 0.17056 0.0
C2270 C 0.41089 0.82678 0.1991 0.0
C2271 C 0.38824 0.841 0.20056 0.0
N2272 N 0.34376 0.84523 0.19092 0.0
N2273 N 0.43582 0.79855 0.17332 0.0
C2274 C 0.36546 0.8312 0.18955 0.0
C2275 C 0.4124 0.80622 0.18149 0.0
N2276 N 0.34361 0.79478 0.17001 0.0
N2277 N 0.43137 0.83357 0.21388 0.0
H2278 H 0.43874 0.78507 0.15908 0.0
H2279 H 0.45273 0.80777 0.17866 0.0
H2280 H 0.43098 0.84895 0.22654 0.0
H2281 H 0.44758 0.8224 0.21552 0.0
H2282 H 0.32571 0.80101 0.17557 0.0
H2283 H 0.34331 0.77685 0.16118 0.0
H2284 H 0.32722 0.84072 0.18076 0.0
H2285 H 0.34283 0.86217 0.20148 0.0
C2286 C 0.1984 0.40134 0.16667 0.0
C2287 C 0.19768 0.37928 0.15052 0.0
C2288 C 0.16113 0.36292 0.17571 0.0
C2289 C 0.15956 0.38686 0.18861 0.0
N2290 N 0.17307 0.4312 0.19053 0.0
N2291 N 0.17735 0.339 0.13954 0.0
C2292 C 0.17717 0.4067 0.18242 0.0
C2293 C 0.17859 0.36012 0.15494 0.0
N2294 N 0.21935 0.41711 0.16779 0.0
N2295 N 0.14695 0.34248 0.18403 0.0
H2296 H 0.19126 0.33491 0.12603 0.0
H2297 H 0.16204 0.3261 0.13955 0.0
H2298 H 0.1346 0.34352 0.19951 0.0
H2299 H 0.14914 0.32392 0.17714 0.0
H2300 H 0.22106 0.43214 0.18082 0.0
H2301 H 0.23639 0.41346 0.15863 0.0
H2302 H 0.18399 0.44681 0.18434 0.0
H2303 H 0.15698 0.43646 0.20078 0.0
C2304 C 0.8001 0.63202 0.82569 0.0
C2305 C 0.80138 0.61413 0.84621 0.0
C2306 C 0.83313 0.59069 0.82211 0.0
C2307 C 0.83687 0.61139 0.80527 0.0
N2308 N 0.82353 0.65299 0.79122 0.0
N2309 N 0.82904 0.58308 0.8666 0.0
C2310 C 0.81993 0.63235 0.80674 0.0
C2311 C 0.82042 0.59505 0.84522 0.0
N2312 N 0.7808 0.64919 0.82483 0.0
N2313 N 0.84427 0.56773 0.81741 0.0
H2314 H 0.82422 0.58857 0.88491 0.0
H2315 H 0.84426 0.57045 0.86621 0.0
H2316 H 0.8543 0.56437 0.80063 0.0
H2317 H 0.84138 0.55178 0.82904 0.0
H2318 H 0.77773 0.66121 0.80932 0.0
H2319 H 0.76698 0.65019 0.83903 0.0
H2320 H 0.81363 0.67001 0.79331 0.0
H2321 H 0.83729 0.65332 0.77693 0.0
C2322 C 0.37184 0.8193 0.79938 0.0
C2323 C 0.38408 0.84303 0.80517 0.0
C2324 C 0.39114 0.82882 0.84923 0.0
C2325 C 0.38167 0.80393 0.84265 0.0
N2326 N 0.36368 0.77496 0.81144 0.0
N2327 N 0.40896 0.86904 0.83449 0.0
C2328 C 0.37213 0.79905 0.81769 0.0
C2329 C 0.39426 0.84763 0.82991 0.0
N2330 N 0.35951 0.81641 0.77652 0.0
N2331 N 0.39791 0.83456 0.87385 0.0
H2332 H 0.41215 0.88346 0.82115 0.0
H2333 H 0.41999 0.87162 0.85086 0.0
H2334 H 0.39913 0.82121 0.88845 0.0
H2335 H 0.40093 0.85324 0.8803 0.0
H2336 H 0.34826 0.80053 0.77177 0.0
H2337 H 0.35883 0.831 0.76296 0.0
H2338 H 0.35926 0.76918 0.79292 0.0
H2339 H 0.36213 0.76023 0.8248 0.0
C2340 C 0.1901 0.35655 0.83121 0.0
C2341 C 0.20242 0.37899 0.84063 0.0
C2342 C 0.18041 0.40478 0.80863 0.0
C2343 C 0.16906 0.38224 0.79793 0.0
N2344 N 0.16712 0.3361 0.79612 0.0
N2345 N 0.21448 0.42308 0.83411 0.0
C2346 C 0.1751 0.35789 0.80837 0.0
C2347 C 0.19936 0.40255 0.82776 0.0
N2348 N 0.19216 0.33418 0.84446 0.0
N2349 N 0.17171 0.42853 0.80232 0.0
H2350 H 0.22825 0.42213 0.84836 0.0
H2351 H 0.21514 0.43998 0.82356 0.0
H2352 H 0.15665 0.43167 0.78987 0.0
H2353 H 0.17743 0.44522 0.81179 0.0
H2354 H 0.18139 0.31778 0.84034 0.0
H2355 H 0.20376 0.33255 0.86057 0.0
H2356 H 0.17274 0.31782 0.80144 0.0
H2357 H 0.15669 0.33645 0.77915 0.0
C2358 C 0.60326 0.1842 0.79228 0.0
C2359 C 0.61888 0.16304 0.798 0.0
C2360 C 0.64277 0.1891 0.82909 0.0
C2361 C 0.62344 0.20774 0.8275 0.0
N2362 N 0.5963 0.22974 0.79793 0.0
N2363 N 0.65804 0.14739 0.81525 0.0
C2364 C 0.60708 0.20751 0.80594 0.0
C2365 C 0.64035 0.16629 0.8142 0.0
N2366 N 0.58416 0.18167 0.77469 0.0
N2367 N 0.66356 0.19385 0.84417 0.0
H2368 H 0.65735 0.13172 0.80284 0.0
H2369 H 0.6735 0.14727 0.82768 0.0
H2370 H 0.6667 0.21173 0.85265 0.0
H2371 H 0.67848 0.18126 0.8468 0.0
H2372 H 0.57006 0.19525 0.77207 0.0
H2373 H 0.58193 0.16538 0.76331 0.0
H2374 H 0.58534 0.23117 0.78143 0.0
H2375 H 0.60136 0.24741 0.80592 0.0
C2376 C 0.8427 0.3722 0.17866 0.0
C2377 C 0.85234 0.39555 0.18901 0.0
C2378 C 0.81851 0.41923 0.16727 0.0
C2379 C 0.80823 0.39582 0.15732 0.0
N2380 N 0.80791 0.34972 0.15689 0.0
N2381 N 0.8466 0.44045 0.19751 0.0
C2382 C 0.81964 0.37218 0.16397 0.0
C2383 C 0.83926 0.41872 0.18471 0.0
N2384 N 0.85582 0.35015 0.18264 0.0
N2385 N 0.80977 0.44228 0.15881 0.0
H2386 H 0.86256 0.44132 0.20927 0.0
H2387 H 0.83579 0.45701 0.19812 0.0
H2388 H 0.79442 0.44429 0.14652 0.0
H2389 H 0.81904 0.45968 0.16238 0.0
H2390 H 0.85171 0.33292 0.1734 0.0
H2391 H 0.87178 0.3494 0.19451 0.0
H2392 H 0.81377 0.33175 0.16288 0.0
H2393 H 0.79088 0.34915 0.14659 0.0
C2394 C 0.64148 0.83108 0.18822 0.0
C2395 C 0.621 0.82924 0.2058 0.0
C2396 C 0.59936 0.79785 0.17842 0.0
C2397 C 0.61799 0.80213 0.15937 0.0
N2398 N 0.66087 0.81479 0.14931 0.0
N2399 N 0.5903 0.79938 0.22355 0.0
C2400 C 0.6405 0.8162 0.16534 0.0
C2401 C 0.60303 0.80888 0.20292 0.0
N2402 N 0.6618 0.84678 0.1936 0.0
N2403 N 0.57752 0.78448 0.17286 0.0
H2404 H 0.59513 0.80462 0.24216 0.0
H2405 H 0.57803 0.78354 0.22248 0.0
H2406 H 0.5742 0.77603 0.15514 0.0
H2407 H 0.56209 0.78339 0.18529 0.0
H2408 H 0.67591 0.85158 0.1805 0.0
H2409 H 0.66458 0.85476 0.21168 0.0
H2410 H 0.67848 0.82346 0.15284 0.0
H2411 H 0.66066 0.80278 0.13335 0.0
C2412 C 0.17598 0.57966 0.1985 0.0
C2413 C 0.16708 0.60268 0.20932 0.0
C2414 C 0.19694 0.62761 0.18262 0.0
C2415 C 0.20697 0.60442 0.17282 0.0
N2416 N 0.20814 0.55779 0.17467 0.0
N2417 N 0.17087 0.64833 0.21476 0.0
C2418 C 0.19729 0.58033 0.18187 0.0
C2419 C 0.178 0.62663 0.20216 0.0
N2420 N 0.163 0.55714 0.20274 0.0
N2421 N 0.20558 0.65056 0.17331 0.0
H2422 H 0.15718 0.64819 0.22915 0.0
H2423 H 0.17975 0.66611 0.21247 0.0
H2424 H 0.22077 0.65214 0.16063 0.0
H2425 H 0.19706 0.668 0.17722 0.0
H2426 H 0.16621 0.54035 0.19256 0.0
H2427 H 0.14731 0.55556 0.21479 0.0
H2428 H 0.20467 0.54049 0.18399 0.0
H2429 H 0.22168 0.55601 0.16049 0.0
C2430 C 0.36865 0.20295 0.1852 0.0
C2431 C 0.39192 0.21331 0.17607 0.0
C2432 C 0.41543 0.18973 0.20856 0.0
C2433 C 0.39267 0.1764 0.21506 0.0
N2434 N 0.34701 0.17706 0.21733 0.0
N2435 N 0.43562 0.22419 0.18434 0.0
C2436 C 0.36898 0.1857 0.20628 0.0
C2437 C 0.41464 0.20959 0.19003 0.0
N2438 N 0.34667 0.20817 0.1724 0.0
N2439 N 0.43791 0.18203 0.21891 0.0
H2440 H 0.43501 0.23858 0.17055 0.0
H2441 H 0.45267 0.22358 0.19449 0.0
H2442 H 0.4384 0.16818 0.23315 0.0
H2443 H 0.45573 0.18875 0.21315 0.0
H2444 H 0.32932 0.199 0.17597 0.0
H2445 H 0.34627 0.22141 0.15749 0.0
H2446 H 0.32908 0.18403 0.21282 0.0
H2447 H 0.34715 0.16434 0.23266 0.0
C2448 C 0.85219 0.83051 0.60898 0.0
C2449 C 0.84666 0.80608 0.61975 0.0
C2450 C 0.80425 0.82115 0.63248 0.0
C2451 C 0.80885 0.84449 0.61933 0.0
N2452 N 0.8358 0.86965 0.59127 0.0
N2453 N 0.81726 0.77741 0.64087 0.0
C2454 C 0.83258 0.8489 0.60692 0.0
C2455 C 0.8226 0.80121 0.63128 0.0
N2456 N 0.87606 0.83615 0.60002 0.0
N2457 N 0.78261 0.81841 0.6467 0.0
H2458 H 0.83078 0.763 0.6419 0.0
H2459 H 0.79921 0.7715 0.64675 0.0
H2460 H 0.76904 0.83275 0.64809 0.0
H2461 H 0.77898 0.80295 0.65872 0.0
H2462 H 0.8822 0.85471 0.59579 0.0
H2463 H 0.89046 0.8228 0.59817 0.0
H2464 H 0.85114 0.87192 0.5789 0.0
H2465 H 0.82221 0.88369 0.58863 0.0
C2466 C 0.83024 0.18564 0.36271 0.0
C2467 C 0.83875 0.19956 0.38444 0.0
C2468 C 0.81118 0.17401 0.41184 0.0
C2469 C 0.80219 0.15982 0.39038 0.0
N2470 N 0.79956 0.1551 0.3447 0.0
N2471 N 0.82962 0.21394 0.42692 0.0
C2472 C 0.81031 0.16686 0.36547 0.0
C2473 C 0.82638 0.19619 0.40801 0.0
N2474 N 0.84179 0.18988 0.33979 0.0
N2475 N 0.80721 0.16521 0.43601 0.0
H2476 H 0.84072 0.23049 0.42444 0.0
H2477 H 0.81933 0.21339 0.4439 0.0
H2478 H 0.7981 0.14783 0.43974 0.0
H2479 H 0.81556 0.17367 0.45207 0.0
H2480 H 0.83869 0.17856 0.32368 0.0
H2481 H 0.85524 0.20457 0.33726 0.0
H2482 H 0.80324 0.16056 0.32597 0.0
H2483 H 0.78547 0.14091 0.34631 0.0
C2484 C 0.83006 0.84844 0.39517 0.0
C2485 C 0.80585 0.84188 0.38445 0.0
C2486 C 0.82195 0.79934 0.37278 0.0
C2487 C 0.84516 0.80511 0.38565 0.0
N2488 N 0.87022 0.83377 0.41216 0.0
N2489 N 0.77809 0.81098 0.36395 0.0
C2490 C 0.8491 0.82943 0.39729 0.0
C2491 C 0.80163 0.81726 0.37347 0.0
N2492 N 0.83486 0.87273 0.40398 0.0
N2493 N 0.81968 0.77694 0.35934 0.0
H2494 H 0.76338 0.82413 0.36257 0.0
H2495 H 0.77267 0.79254 0.35842 0.0
H2496 H 0.83429 0.76363 0.35838 0.0
H2497 H 0.80431 0.77235 0.34754 0.0
H2498 H 0.85309 0.8797 0.40811 0.0
H2499 H 0.82103 0.88665 0.40599 0.0
H2500 H 0.87253 0.84959 0.42411 0.0
H2501 H 0.8848 0.82064 0.41435 0.0
C2502 C 0.16151 0.82502 0.36694 0.0
C2503 C 0.15446 0.81322 0.39033 0.0
C2504 C 0.18407 0.8409 0.4135 0.0
C2505 C 0.19223 0.85238 0.39029 0.0
N2506 N 0.19165 0.8527 0.34435 0.0
N2507 N 0.1668 0.80274 0.43313 0.0
C2508 C 0.18204 0.84339 0.36672 0.0
C2509 C 0.16825 0.81887 0.41273 0.0
N2510 N 0.14815 0.81921 0.34525 0.0
N2511 N 0.19011 0.85171 0.43647 0.0
H2512 H 0.15631 0.78561 0.43248 0.0
H2513 H 0.17821 0.80496 0.44933 0.0
H2514 H 0.20128 0.86819 0.43829 0.0
H2515 H 0.182 0.84551 0.45356 0.0
H2516 H 0.15036 0.82905 0.32813 0.0
H2517 H 0.13394 0.80505 0.34476 0.0
H2518 H 0.1866 0.84547 0.32649 0.0
H2519 H 0.20608 0.86663 0.34379 0.0
C2520 C 0.19386 0.17584 0.36313 0.0
C2521 C 0.18998 0.15293 0.37727 0.0
C2522 C 0.14665 0.16646 0.38818 0.0
C2523 C 0.15039 0.18926 0.3738 0.0
N2524 N 0.1753 0.21373 0.3439 0.0
N2525 N 0.16096 0.12427 0.39961 0.0
C2526 C 0.17337 0.19333 0.36012 0.0
C2527 C 0.16575 0.14742 0.38827 0.0
N2528 N 0.21728 0.18101 0.35289 0.0
N2529 N 0.12588 0.16387 0.40375 0.0
H2530 H 0.17473 0.11068 0.40338 0.0
H2531 H 0.14267 0.11776 0.40408 0.0
H2532 H 0.11117 0.17697 0.4046 0.0
H2533 H 0.12405 0.14969 0.41759 0.0
H2534 H 0.22249 0.19858 0.34501 0.0
H2535 H 0.23206 0.16786 0.35317 0.0
H2536 H 0.19053 0.21685 0.3316 0.0
H2537 H 0.16048 0.22658 0.3412 0.0
C2538 C 0.18875 0.18281 0.62957 0.0
C2539 C 0.18384 0.15839 0.6184 0.0
C2540 C 0.14196 0.17292 0.6035 0.0
C2541 C 0.14698 0.19736 0.6145 0.0
N2542 N 0.17243 0.22451 0.64181 0.0
N2543 N 0.154 0.12867 0.5984 0.0
C2544 C 0.1696 0.20196 0.62873 0.0
C2545 C 0.15977 0.15289 0.60685 0.0
N2546 N 0.21191 0.18774 0.64067 0.0
N2547 N 0.1211 0.16939 0.58807 0.0
H2548 H 0.16699 0.11386 0.59761 0.0
H2549 H 0.13564 0.12266 0.59347 0.0
H2550 H 0.1073 0.18324 0.58526 0.0
H2551 H 0.11822 0.1534 0.57648 0.0
H2552 H 0.2181 0.20586 0.64643 0.0
H2553 H 0.22552 0.17362 0.6434 0.0
H2554 H 0.18734 0.22851 0.65438 0.0
H2555 H 0.15862 0.23869 0.6416 0.0
C2556 C 0.82032 0.16852 0.63621 0.0
C2557 C 0.8117 0.1582 0.61247 0.0
C2558 C 0.83492 0.19257 0.59019 0.0
C2559 C 0.84725 0.19976 0.61306 0.0
N2560 N 0.85178 0.19534 0.65844 0.0
N2561 N 0.81595 0.15797 0.56636 0.0
C2562 C 0.83974 0.18817 0.63638 0.0
C2563 C 0.82029 0.16964 0.58932 0.0
N2564 N 0.81052 0.15913 0.65847 0.0
N2565 N 0.83703 0.20787 0.56919 0.0
H2566 H 0.80586 0.14083 0.56431 0.0
H2567 H 0.82449 0.16419 0.5495 0.0
H2568 H 0.84722 0.22518 0.5695 0.0
H2569 H 0.82652 0.2047 0.55254 0.0
H2570 H 0.81426 0.16724 0.67626 0.0
H2571 H 0.79726 0.14408 0.65899 0.0
H2572 H 0.84948 0.18582 0.67572 0.0
H2573 H 0.865 0.21044 0.65909 0.0
C2574 C 0.18656 0.83689 0.63857 0.0
C2575 C 0.2017 0.83962 0.61639 0.0
C2576 C 0.18144 0.80112 0.59799 0.0
C2577 C 0.16268 0.80204 0.61737 0.0
N2578 N 0.15036 0.81586 0.65918 0.0
N2579 N 0.21707 0.82247 0.57688 0.0
C2580 C 0.16633 0.81833 0.6388 0.0
C2581 C 0.20052 0.8208 0.59688 0.0
N2582 N 0.19193 0.85195 0.65929 0.0
N2583 N 0.18102 0.78133 0.58091 0.0
H2584 H 0.23217 0.83567 0.57661 0.0
H2585 H 0.21564 0.81139 0.56041 0.0
H2586 H 0.16744 0.76659 0.58161 0.0
H2587 H 0.19502 0.77832 0.56728 0.0
H2588 H 0.18241 0.85082 0.67662 0.0
H2589 H 0.20737 0.86476 0.65953 0.0
H2590 H 0.15007 0.82836 0.67464 0.0
H2591 H 0.13724 0.80072 0.66057 0.0
C2592 C 0.12567 0.25303 0.47902 0.0
C2593 C 0.10363 0.24636 0.46479 0.0
C2594 C 0.08131 0.23614 0.50502 0.0
C2595 C 0.10102 0.2492 0.5188 0.0
N2596 N 0.14446 0.26496 0.51978 0.0
N2597 N 0.06367 0.22262 0.46418 0.0
C2598 C 0.12396 0.25623 0.50604 0.0
C2599 C 0.08274 0.23447 0.47786 0.0
N2600 N 0.14876 0.25283 0.46717 0.0
N2601 N 0.05957 0.22864 0.51751 0.0
H2602 H 0.06172 0.22419 0.44446 0.0
H2603 H 0.05005 0.21037 0.47204 0.0
H2604 H 0.05642 0.2322 0.53679 0.0
H2605 H 0.04346 0.22091 0.50872 0.0
H2606 H 0.16609 0.254 0.47684 0.0
H2607 H 0.15066 0.2492 0.44768 0.0
H2608 H 0.16086 0.27261 0.5115 0.0
H2609 H 0.14494 0.26525 0.53965 0.0
C2610 C 0.73058 0.0956 0.51881 0.0
C2611 C 0.7482 0.1119 0.53152 0.0
C2612 C 0.75856 0.13201 0.49071 0.0
C2613 C 0.74824 0.11024 0.47812 0.0
N2614 N 0.71694 0.07608 0.47893 0.0
N2615 N 0.77017 0.15229 0.53102 0.0
C2616 C 0.73172 0.09351 0.49176 0.0
C2617 C 0.75965 0.13227 0.51785 0.0
N2618 N 0.71162 0.08403 0.53242 0.0
N2619 N 0.76509 0.15298 0.47664 0.0
H2620 H 0.7672 0.15428 0.55061 0.0
H2621 H 0.78097 0.16688 0.5227 0.0
H2622 H 0.76041 0.15393 0.45729 0.0
H2623 H 0.77217 0.17006 0.48427 0.0
H2624 H 0.69711 0.07291 0.52431 0.0
H2625 H 0.70879 0.08837 0.55163 0.0
H2626 H 0.7072 0.06105 0.48778 0.0
H2627 H 0.71445 0.07689 0.45922 0.0
C2628 C 0.91777 0.76977 0.48972 0.0
C2629 C 0.89979 0.75374 0.47646 0.0
C2630 C 0.87818 0.74579 0.51751 0.0
C2631 C 0.89982 0.75542 0.53077 0.0
N2632 N 0.93925 0.77987 0.52955 0.0
N2633 N 0.85919 0.73155 0.47748 0.0
C2634 C 0.91877 0.76932 0.51692 0.0
C2635 C 0.87891 0.7431 0.49031 0.0
N2636 N 0.93573 0.78332 0.4764 0.0
N2637 N 0.85607 0.74205 0.53064 0.0
H2638 H 0.85779 0.73125 0.45766 0.0
H2639 H 0.84433 0.7218 0.48645 0.0
H2640 H 0.85482 0.74504 0.55029 0.0
H2641 H 0.83854 0.7385 0.52191 0.0
H2642 H 0.94634 0.79846 0.48413 0.0
H2643 H 0.93991 0.77953 0.4574 0.0
H2644 H 0.95551 0.78693 0.52054 0.0
H2645 H 0.94111 0.78002 0.54931 0.0
C2646 C 0.24171 0.87099 0.48532 0.0
C2647 C 0.25652 0.88988 0.47297 0.0
C2648 C 0.27072 0.90591 0.51478 0.0
C2649 C 0.25051 0.89172 0.5265 0.0
N2650 N 0.2171 0.85957 0.52258 0.0
N2651 N 0.28835 0.92309 0.4755 0.0
C2652 C 0.23624 0.87369 0.5117 0.0
C2653 C 0.27236 0.90638 0.48765 0.0
N2654 N 0.23389 0.84996 0.47188 0.0
N2655 N 0.28833 0.91883 0.52932 0.0
H2656 H 0.29189 0.92146 0.45606 0.0
H2657 H 0.29756 0.93847 0.48443 0.0
H2658 H 0.28816 0.91904 0.54915 0.0
H2659 H 0.3046 0.92755 0.52184 0.0
H2660 H 0.22472 0.83425 0.48018 0.0
H2661 H 0.23931 0.84736 0.45289 0.0
H2662 H 0.20449 0.84815 0.51202 0.0
H2663 H 0.2129 0.86046 0.54197 0.0
C2664 C 0.12385 0.77374 0.51573 0.0
C2665 C 0.11161 0.75339 0.52896 0.0
C2666 C 0.10007 0.73394 0.48736 0.0
C2667 C 0.10757 0.757 0.47475 0.0
N2668 N 0.12592 0.79973 0.47779 0.0
N2669 N 0.08869 0.71305 0.52722 0.0
C2670 C 0.11956 0.77699 0.48916 0.0
C2671 C 0.10036 0.73288 0.51472 0.0
N2672 N 0.13971 0.79012 0.5288 0.0
N2673 N 0.09231 0.71317 0.47332 0.0
H2674 H 0.09009 0.71044 0.54684 0.0
H2675 H 0.07678 0.69965 0.51831 0.0
H2676 H 0.0911 0.71332 0.45351 0.0
H2677 H 0.0891 0.69509 0.48109 0.0
H2678 H 0.15145 0.80367 0.51998 0.0
H2679 H 0.14301 0.78832 0.54832 0.0
H2680 H 0.13149 0.81605 0.48795 0.0
H2681 H 0.12408 0.80305 0.45832 0.0
C2682 C 0.22558 0.09078 0.48818 0.0
C2683 C 0.23972 0.11089 0.47615 0.0
C2684 C 0.24856 0.12995 0.51822 0.0
C2685 C 0.23933 0.10719 0.53019 0.0
N2686 N 0.21204 0.06941 0.52685 0.0
N2687 N 0.24773 0.15587 0.47972 0.0
C2688 C 0.22501 0.08911 0.51528 0.0
C2689 C 0.24671 0.13241 0.4911 0.0
N2690 N 0.21236 0.07339 0.4736 0.0
N2691 N 0.25771 0.14979 0.53278 0.0
H2692 H 0.24501 0.15821 0.46013 0.0
H2693 H 0.24888 0.17304 0.48982 0.0
H2694 H 0.25768 0.14963 0.55265 0.0
H2695 H 0.26571 0.16642 0.52519 0.0
H2696 H 0.19749 0.06195 0.48034 0.0
H2697 H 0.21563 0.07068 0.45424 0.0
H2698 H 0.2048 0.05337 0.51739 0.0
H2699 H 0.20921 0.06802 0.54641 0.0
C2700 C 0.88625 0.22193 0.51086 0.0
C2701 C 0.89491 0.24441 0.52388 0.0
C2702 C 0.90299 0.26529 0.48243 0.0
C2703 C 0.89486 0.24252 0.4695 0.0
N2704 N 0.8721 0.20213 0.47136 0.0
N2705 N 0.90573 0.28953 0.5219 0.0
C2706 C 0.88442 0.2218 0.48376 0.0
C2707 C 0.90118 0.26679 0.50962 0.0
N2708 N 0.88035 0.20027 0.52438 0.0
N2709 N 0.91404 0.28497 0.4691 0.0
H2710 H 0.90608 0.29154 0.54162 0.0
H2711 H 0.90713 0.30705 0.51251 0.0
H2712 H 0.91482 0.28573 0.44931 0.0
H2713 H 0.92403 0.30005 0.47768 0.0
H2714 H 0.87766 0.18231 0.51604 0.0
H2715 H 0.87937 0.19981 0.54421 0.0
H2716 H 0.8613 0.1881 0.48059 0.0
H2717 H 0.87058 0.20106 0.45157 0.0
C2718 C 0.77137 0.91353 0.48655 0.0
C2719 C 0.75502 0.89643 0.47262 0.0
C2720 C 0.74828 0.87215 0.51241 0.0
C2721 C 0.7573 0.89341 0.52661 0.0
N2722 N 0.78066 0.93373 0.52699 0.0
N2723 N 0.73348 0.85516 0.4718 0.0
C2724 C 0.7706 0.91344 0.5136 0.0
C2725 C 0.74486 0.87451 0.48544 0.0
N2726 N 0.78777 0.92995 0.4743 0.0
N2727 N 0.74602 0.84898 0.52422 0.0
H2728 H 0.73265 0.85478 0.45195 0.0
H2729 H 0.7245 0.83944 0.48017 0.0
H2730 H 0.74952 0.8467 0.5437 0.0
H2731 H 0.74301 0.8318 0.51448 0.0
H2732 H 0.80244 0.93982 0.48366 0.0
H2733 H 0.78846 0.9325 0.45466 0.0
H2734 H 0.78682 0.95065 0.51835 0.0
H2735 H 0.7803 0.93503 0.54681 0.0
C2736 C 0.48503 0.1216 0.25369 0.0
C2737 C 0.47262 0.10053 0.24109 0.0
C2738 C 0.51443 0.0801 0.23538 0.0
C2739 C 0.52676 0.10157 0.24675 0.0
N2740 N 0.52452 0.14476 0.26271 0.0
N2741 N 0.47549 0.05689 0.22641 0.0
C2742 C 0.51224 0.12275 0.25507 0.0
C2743 C 0.48742 0.07914 0.23348 0.0
N2744 N 0.47103 0.14032 0.26498 0.0
N2745 N 0.52872 0.0605 0.22609 0.0
H2746 H 0.45589 0.05516 0.22564 0.0
H2747 H 0.48454 0.03948 0.22386 0.0
H2748 H 0.54807 0.05888 0.23004 0.0
H2749 H 0.52177 0.04634 0.21382 0.0
H2750 H 0.47876 0.15401 0.27734 0.0
H2751 H 0.45134 0.14125 0.264 0.0
H2752 H 0.51543 0.16208 0.26568 0.0
H2753 H 0.54426 0.14638 0.26436 0.0
C2754 C 0.92118 0.52673 0.22952 0.0
C2755 C 0.90065 0.53664 0.24355 0.0
C2756 C 0.88271 0.49309 0.24732 0.0
C2757 C 0.90319 0.48323 0.23235 0.0
N2758 N 0.93226 0.49577 0.19805 0.0
N2759 N 0.85936 0.52948 0.2626 0.0
C2760 C 0.91982 0.50135 0.2202 0.0
C2761 C 0.88074 0.51992 0.25151 0.0
N2762 N 0.94215 0.54169 0.22481 0.0
N2763 N 0.86338 0.47792 0.25615 0.0
H2764 H 0.85657 0.549 0.26547 0.0
H2765 H 0.84429 0.5178 0.26872 0.0
H2766 H 0.86118 0.45844 0.25227 0.0
H2767 H 0.86118 0.45844 0.25227 0.0
H2768 H 0.95869 0.53454 0.21663 0.0
H2769 H 0.94399 0.56021 0.23204 0.0
H2770 H 0.9435 0.50921 0.18842 0.0
H2771 H 0.92776 0.48016 0.1865 0.0
C2772 C 0.5206 0.91436 0.22831 0.0
C2773 C 0.52943 0.89658 0.24638 0.0
C2774 C 0.48508 0.88202 0.25265 0.0
C2775 C 0.47704 0.89825 0.23231 0.0
N2776 N 0.49308 0.91598 0.19227 0.0
N2777 N 0.52037 0.85797 0.27016 0.0
C2778 C 0.49629 0.91063 0.21753 0.0
C2779 C 0.51178 0.87876 0.25712 0.0
N2780 N 0.53576 0.93422 0.22042 0.0
N2781 N 0.46766 0.86875 0.26687 0.0
H2782 H 0.53965 0.85472 0.27336 0.0
H2783 H 0.50849 0.84301 0.27611 0.0
H2784 H 0.44826 0.86827 0.2628 0.0
H2785 H 0.47253 0.85871 0.28329 0.0
H2786 H 0.52917 0.94829 0.20801 0.0
H2787 H 0.55362 0.93795 0.22847 0.0
H2788 H 0.50764 0.92399 0.18123 0.0
H2789 H 0.47812 0.90866 0.18133 0.0
C2790 C 0.07922 0.5105 0.26179 0.0
C2791 C 0.09899 0.52596 0.27267 0.0
C2792 C 0.12622 0.48741 0.27475 0.0
C2793 C 0.10608 0.4718 0.26472 0.0
N2794 N 0.0621 0.46835 0.25156 0.0
N2795 N 0.13999 0.52825 0.29321 0.0
C2796 C 0.08225 0.48341 0.25905 0.0
C2797 C 0.12202 0.51404 0.2804 0.0
N2798 N 0.05785 0.52209 0.25266 0.0
N2799 N 0.14979 0.47705 0.27776 0.0
H2800 H 0.13753 0.54748 0.29771 0.0
H2801 H 0.15617 0.52054 0.30154 0.0
H2802 H 0.15341 0.45777 0.27429 0.0
H2803 H 0.1661 0.48769 0.28225 0.0
H2804 H 0.04422 0.51293 0.24127 0.0
H2805 H 0.0544 0.54152 0.25533 0.0
H2806 H 0.04338 0.47462 0.25103 0.0
H2807 H 0.06367 0.44889 0.24782 0.0
C2808 C 0.49042 0.91588 0.77152 0.0
C2809 C 0.47915 0.89629 0.75654 0.0
C2810 C 0.52136 0.87703 0.75189 0.0
C2811 C 0.53198 0.89532 0.76957 0.0
N2812 N 0.51989 0.92213 0.80567 0.0
N2813 N 0.48303 0.85397 0.73862 0.0
C2814 C 0.51478 0.91208 0.78213 0.0
C2815 C 0.49434 0.87559 0.74839 0.0
N2816 N 0.47751 0.93781 0.77659 0.0
N2817 N 0.53649 0.86041 0.73896 0.0
H2818 H 0.46342 0.85212 0.73591 0.0
H2819 H 0.4929 0.83717 0.73507 0.0
H2820 H 0.5559 0.85863 0.74199 0.0
H2821 H 0.5297 0.84884 0.72415 0.0
H2822 H 0.48606 0.95337 0.78597 0.0
H2823 H 0.45952 0.94137 0.76898 0.0
H2824 H 0.50711 0.93381 0.81527 0.0
H2825 H 0.53369 0.91484 0.81779 0.0
C2826 C 0.1275 0.48762 0.74372 0.0
C2827 C 0.10856 0.4704 0.75322 0.0
C2828 C 0.09559 0.50315 0.78308 0.0
C2829 C 0.10933 0.5224 0.7695 0.0
N2830 N 0.14026 0.53187 0.73653 0.0
N2831 N 0.07009 0.46504 0.77779 0.0
C2832 C 0.12562 0.51439 0.74934 0.0
C2833 C 0.09087 0.47946 0.77116 0.0
N2834 N 0.14803 0.47845 0.73086 0.0
N2835 N 0.08974 0.50562 0.80829 0.0
H2836 H 0.06561 0.44778 0.76869 0.0
H2837 H 0.05616 0.47187 0.79013 0.0
H2838 H 0.09746 0.51985 0.81998 0.0
H2839 H 0.08071 0.49097 0.8185 0.0
H2840 H 0.16362 0.48986 0.72577 0.0
H2841 H 0.15035 0.45905 0.72693 0.0
H2842 H 0.15042 0.52732 0.72014 0.0
H2843 H 0.14179 0.55104 0.7419 0.0
C2844 C 0.48482 0.09827 0.7356 0.0
C2845 C 0.47121 0.11114 0.755 0.0
C2846 C 0.5117 0.12784 0.77191 0.0
C2847 C 0.52506 0.10955 0.7572 0.0
N2848 N 0.52338 0.07588 0.72524 0.0
N2849 N 0.47187 0.13888 0.79184 0.0
C2850 C 0.51152 0.09473 0.73862 0.0
C2851 C 0.48472 0.12649 0.77298 0.0
N2852 N 0.47236 0.08913 0.71452 0.0
N2853 N 0.5249 0.14638 0.78502 0.0
H2854 H 0.45207 0.13885 0.79283 0.0
H2855 H 0.48085 0.1478 0.80729 0.0
H2856 H 0.54469 0.14796 0.78436 0.0
H2857 H 0.51618 0.16159 0.79427 0.0
H2858 H 0.48178 0.08148 0.69884 0.0
H2859 H 0.45296 0.09171 0.71151 0.0
H2860 H 0.51348 0.06248 0.7141 0.0
H2861 H 0.54273 0.07218 0.72659 0.0
C2862 C 0.92201 0.51543 0.78841 0.0
C2863 C 0.90415 0.53275 0.77759 0.0
C2864 C 0.88373 0.49545 0.75583 0.0
C2865 C 0.90458 0.47988 0.76275 0.0
N2866 N 0.94602 0.47684 0.78198 0.0
N2867 N 0.86626 0.53779 0.75139 0.0
C2868 C 0.92451 0.49056 0.77774 0.0
C2869 C 0.88465 0.52234 0.7612 0.0
N2870 N 0.93515 0.52136 0.8102 0.0
N2871 N 0.86232 0.48437 0.74545 0.0
H2872 H 0.86275 0.55617 0.75809 0.0
H2873 H 0.8545 0.53233 0.73623 0.0
H2874 H 0.86082 0.46491 0.74116 0.0
H2875 H 0.84531 0.49403 0.74278 0.0
H2876 H 0.94749 0.50868 0.81906 0.0
H2877 H 0.93019 0.53619 0.82231 0.0
H2878 H 0.96232 0.48466 0.79055 0.0
H2879 H 0.94856 0.45878 0.77403 0.0
C2880 C 0.26267 0.50537 0.13242 0.0
C2881 C 0.24566 0.5202 0.11739 0.0
C2882 C 0.21529 0.48431 0.12197 0.0
C2883 C 0.23553 0.46733 0.12474 0.0
N2884 N 0.27732 0.46261 0.14297 0.0
N2885 N 0.2033 0.5214 0.09816 0.0
C2886 C 0.25915 0.4781 0.13305 0.0
C2887 C 0.22102 0.50907 0.1125 0.0
N2888 N 0.27983 0.51712 0.14828 0.0
N2889 N 0.191 0.47665 0.12739 0.0
H2890 H 0.20804 0.53614 0.08557 0.0
H2891 H 0.18449 0.51508 0.09675 0.0
H2892 H 0.18708 0.45879 0.13549 0.0
H2893 H 0.17566 0.4891 0.1268 0.0
H2894 H 0.29099 0.50715 0.16126 0.0
H2895 H 0.28076 0.53692 0.15058 0.0
H2896 H 0.29545 0.46918 0.14802 0.0
H2897 H 0.27383 0.44321 0.14646 0.0
C2898 C 0.25423 0.50577 0.91616 0.0
C2899 C 0.25931 0.51922 0.89349 0.0
C2900 C 0.26243 0.47781 0.87059 0.0
C2901 C 0.2571 0.4648 0.89376 0.0
N2902 N 0.26079 0.46784 0.93938 0.0
N2903 N 0.27271 0.51843 0.84958 0.0
C2904 C 0.25696 0.47918 0.91659 0.0
C2905 C 0.26492 0.50533 0.87075 0.0
N2906 N 0.24734 0.51828 0.93787 0.0
N2907 N 0.26495 0.46399 0.84868 0.0
H2908 H 0.27439 0.53837 0.84929 0.0
H2909 H 0.27907 0.50967 0.83299 0.0
H2910 H 0.26579 0.44406 0.84884 0.0
H2911 H 0.26607 0.47209 0.83059 0.0
H2912 H 0.24289 0.50859 0.95472 0.0
H2913 H 0.24629 0.53811 0.93885 0.0
H2914 H 0.26402 0.44832 0.94087 0.0
H2915 H 0.26402 0.44832 0.94087 0.0
C2916 C 0.49519 0.20249 0.91211 0.0
C2917 C 0.47606 0.21746 0.90019 0.0
C2918 C 0.51097 0.24313 0.88071 0.0
C2919 C 0.52863 0.23216 0.89791 0.0
N2920 N 0.53575 0.20411 0.93353 0.0
N2921 N 0.46705 0.25189 0.87042 0.0
C2922 C 0.52007 0.21284 0.91481 0.0
C2923 C 0.48432 0.23791 0.88381 0.0
N2924 N 0.49088 0.17753 0.91867 0.0
N2925 N 0.51962 0.25742 0.86062 0.0
H2926 H 0.44787 0.247 0.86893 0.0
H2927 H 0.47178 0.26883 0.861 0.0
H2928 H 0.53886 0.26147 0.85761 0.0
H2929 H 0.50796 0.26355 0.84579 0.0
H2930 H 0.47521 0.16691 0.91235 0.0
H2931 H 0.50507 0.16603 0.92633 0.0
H2932 H 0.52955 0.19146 0.94767 0.0
H2933 H 0.5538 0.21201 0.93652 0.0
C2934 C 0.78445 0.50925 0.87348 0.0
C2935 C 0.76268 0.52445 0.87059 0.0
C2936 C 0.73923 0.48441 0.86124 0.0
C2937 C 0.75747 0.47062 0.8759 0.0
N2938 N 0.80017 0.47198 0.89464 0.0
N2939 N 0.72149 0.52608 0.85073 0.0
C2940 C 0.78109 0.48352 0.88137 0.0
C2941 C 0.74045 0.51191 0.86116 0.0
N2942 N 0.80801 0.5192 0.86853 0.0
N2943 N 0.72252 0.47148 0.84575 0.0
H2944 H 0.72353 0.54577 0.84782 0.0
H2945 H 0.70417 0.51829 0.84461 0.0
H2946 H 0.7229 0.45167 0.84346 0.0
H2947 H 0.71021 0.48051 0.83314 0.0
H2948 H 0.82449 0.50832 0.86899 0.0
H2949 H 0.81014 0.53708 0.86001 0.0
H2950 H 0.81784 0.48071 0.89779 0.0
H2951 H 0.79766 0.45529 0.90515 0.0
C2952 C 0.48593 0.78262 0.91166 0.0
C2953 C 0.47347 0.76347 0.89691 0.0
C2954 C 0.51461 0.75456 0.87624 0.0
C2955 C 0.52653 0.77465 0.89067 0.0
N2956 N 0.51662 0.81656 0.908 0.0
N2957 N 0.47489 0.73787 0.85849 0.0
C2958 C 0.51039 0.79138 0.90441 0.0
C2959 C 0.48747 0.75121 0.87722 0.0
N2960 N 0.47441 0.79291 0.93247 0.0
N2961 N 0.52879 0.73957 0.86055 0.0
H2962 H 0.45513 0.73591 0.85784 0.0
H2963 H 0.48382 0.73068 0.84233 0.0
H2964 H 0.54778 0.74356 0.85639 0.0
H2965 H 0.52166 0.723 0.85185 0.0
H2966 H 0.48379 0.80585 0.9446 0.0
H2967 H 0.45685 0.78625 0.93898 0.0
H2968 H 0.50437 0.8293 0.91694 0.0
H2969 H 0.53155 0.82565 0.89845 0.0
C2970 C 0.7812 0.52106 0.10159 0.0
C2971 C 0.76046 0.53636 0.10922 0.0
C2972 C 0.73854 0.49561 0.11964 0.0
C2973 C 0.75539 0.48206 0.10313 0.0
N2974 N 0.7925 0.48569 0.07542 0.0
N2975 N 0.72018 0.53662 0.13129 0.0
C2976 C 0.77638 0.49604 0.09287 0.0
C2977 C 0.739 0.52323 0.1197 0.0
N2978 N 0.80579 0.52934 0.10471 0.0
N2979 N 0.72414 0.48251 0.13699 0.0
H2980 H 0.72166 0.55619 0.13495 0.0
H2981 H 0.7033 0.52807 0.13754 0.0
H2982 H 0.72488 0.4627 0.13904 0.0
H2983 H 0.71343 0.4915 0.151 0.0
H2984 H 0.82128 0.51783 0.10033 0.0
H2985 H 0.81047 0.54564 0.1154 0.0
H2986 H 0.8069 0.49657 0.06678 0.0
H2987 H 0.79027 0.46737 0.06795 0.0
C2988 C 0.50593 0.78625 0.08942 0.0
C2989 C 0.52527 0.77245 0.10227 0.0
C2990 C 0.49107 0.74561 0.12101 0.0
C2991 C 0.47348 0.75565 0.10312 0.0
N2992 N 0.4669 0.78159 0.0658 0.0
N2993 N 0.53521 0.73815 0.13176 0.0
C2994 C 0.48198 0.77443 0.08568 0.0
C2995 C 0.51759 0.75159 0.11829 0.0
N2996 N 0.5089 0.81143 0.08306 0.0
N2997 N 0.48251 0.73171 0.14138 0.0
H2998 H 0.55435 0.74343 0.13289 0.0
H2999 H 0.53081 0.72118 0.14129 0.0
H3000 H 0.46333 0.72724 0.14422 0.0
H3001 H 0.49422 0.72626 0.15645 0.0
H3002 H 0.49431 0.82191 0.0747 0.0
H3003 H 0.52369 0.823 0.08988 0.0
H3004 H 0.47318 0.79425 0.0517 0.0
H3005 H 0.44957 0.77239 0.06202 0.0
C3006 C 0.5221 0.22724 0.09233 0.0
C3007 C 0.53445 0.24783 0.10493 0.0
C3008 C 0.49304 0.25866 0.12413 0.0
C3009 C 0.4818 0.23634 0.11281 0.0
N3010 N 0.49388 0.19267 0.10209 0.0
N3011 N 0.53246 0.2778 0.14012 0.0
C3012 C 0.4985 0.21844 0.10147 0.0
C3013 C 0.52019 0.26228 0.12294 0.0
N3014 N 0.53314 0.21528 0.0722 0.0
N3015 N 0.47836 0.27539 0.13737 0.0
H3016 H 0.55219 0.27996 0.14069 0.0
H3017 H 0.5232 0.28684 0.15513 0.0
H3018 H 0.4593 0.27166 0.14163 0.0
H3019 H 0.48519 0.29307 0.14386 0.0
H3020 H 0.52388 0.20061 0.06207 0.0
H3021 H 0.54988 0.2223 0.06411 0.0
H3022 H 0.50673 0.17957 0.09461 0.0
H3023 H 0.47999 0.18422 0.11356 0.0
C3024 C 0.62069 0.79518 0.00738 0.0
C3025 C 0.59926 0.78539 0.02093 0.0
C3026 C 0.57802 0.77631 0.97983 0.0
C3027 C 0.60121 0.78083 0.96669 0.0
N3028 N 0.645 0.79507 0.9679 0.0
N3029 N 0.55718 0.76638 0.0198 0.0
C3030 C 0.62247 0.79115 0.98034 0.0
C3031 C 0.5776 0.77651 0.007 0.0
N3032 N 0.63987 0.80723 0.02053 0.0
N3033 N 0.55628 0.77165 0.96621 0.0
H3034 H 0.55579 0.76677 0.03964 0.0
H3035 H 0.54231 0.75641 0.01088 0.0
H3036 H 0.55612 0.77047 0.94636 0.0
H3037 H 0.53824 0.77189 0.97436 0.0
H3038 H 0.6548 0.81713 0.0118 0.0
H3039 H 0.63968 0.80907 0.0403 0.0
H3040 H 0.66206 0.79976 0.97704 0.0
H3041 H 0.64698 0.79229 0.94833 0.0
C3042 C 0.24043 0.58111 0.9907 0.0
C3043 C 0.25917 0.59568 0.97722 0.0
C3044 C 0.27588 0.61252 0.01781 0.0
C3045 C 0.25845 0.59672 0.03161 0.0
N3046 N 0.22101 0.56963 0.03148 0.0
N3047 N 0.28587 0.63322 0.97762 0.0
C3048 C 0.23952 0.58237 0.01808 0.0
C3049 C 0.27416 0.61387 0.99074 0.0
N3050 N 0.2239 0.56571 0.97738 0.0
N3051 N 0.29491 0.62541 0.03044 0.0
H3052 H 0.28297 0.63564 0.95806 0.0
H3053 H 0.29555 0.64842 0.98639 0.0
H3054 H 0.29674 0.62518 0.05022 0.0
H3055 H 0.30987 0.6348 0.02119 0.0
H3056 H 0.21216 0.55183 0.9856 0.0
H3057 H 0.2218 0.56696 0.95768 0.0
H3058 H 0.20552 0.56017 0.02319 0.0
H3059 H 0.22023 0.56984 0.05134 0.0
C3060 C 0.38435 0.20496 0.02479 0.0
C3061 C 0.40549 0.21752 0.03673 0.0
C3062 C 0.4268 0.21985 0.99495 0.0
C3063 C 0.40388 0.21239 0.98254 0.0
N3064 N 0.36067 0.19687 0.98547 0.0
N3065 N 0.4472 0.23696 0.03292 0.0
C3066 C 0.38284 0.20387 0.99744 0.0
C3067 C 0.42704 0.2244 0.02175 0.0
N3068 N 0.36515 0.19523 0.03951 0.0
N3069 N 0.44839 0.22302 0.98083 0.0
H3070 H 0.4487 0.23975 0.05258 0.0
H3071 H 0.46178 0.2457 0.02259 0.0
H3072 H 0.44848 0.22082 0.96105 0.0
H3073 H 0.46643 0.22516 0.9889 0.0
H3074 H 0.35056 0.18349 0.03246 0.0
H3075 H 0.36481 0.19737 0.05924 0.0
H3076 H 0.3436 0.19329 0.99489 0.0
H3077 H 0.35906 0.19576 0.96568 0.0
C3078 C 0.76304 0.42901 0.00411 0.0
C3079 C 0.75509 0.40797 0.01942 0.0
C3080 C 0.7485 0.38203 0.98063 0.0
C3081 C 0.7536 0.40404 0.96557 0.0
N3082 N 0.77672 0.44378 0.96239 0.0
N3083 N 0.75104 0.36214 0.0225 0.0
C3084 C 0.76442 0.42609 0.97719 0.0
C3085 C 0.75128 0.38363 0.00775 0.0
N3086 N 0.76888 0.45191 0.0153 0.0
N3087 N 0.74052 0.3599 0.96908 0.0
H3088 H 0.75447 0.36288 0.0421 0.0
H3089 H 0.75008 0.34363 0.01513 0.0
H3090 H 0.74058 0.35771 0.94929 0.0
H3091 H 0.73335 0.34412 0.97898 0.0
H3092 H 0.77181 0.46886 0.00521 0.0
H3093 H 0.76956 0.45393 0.03499 0.0
H3094 H 0.78693 0.45941 0.96968 0.0
H3095 H 0.77862 0.44121 0.94276 0.0
C3096 C 0.63021 0.26035 0.98294 0.0
C3097 C 0.61194 0.24409 0.97106 0.0
C3098 C 0.59852 0.22762 0.01251 0.0
C3099 C 0.61297 0.24754 0.02423 0.0
N3100 N 0.65106 0.27316 0.02257 0.0
N3101 N 0.5884 0.20451 0.97334 0.0
C3102 C 0.63162 0.26096 0.01 0.0
C3103 C 0.59912 0.22511 0.9855 0.0
N3104 N 0.64593 0.27507 0.96819 0.0
N3105 N 0.58424 0.21143 0.02719 0.0
H3106 H 0.59117 0.20141 0.9539 0.0
H3107 H 0.57944 0.18928 0.98261 0.0
H3108 H 0.58645 0.21075 0.04693 0.0
H3109 H 0.57066 0.19864 0.01994 0.0
H3110 H 0.65808 0.28928 0.97537 0.0
H3111 H 0.64647 0.27288 0.94839 0.0
H3112 H 0.66615 0.28252 0.01356 0.0
H3113 H 0.65321 0.27146 0.04231 0.0
C3114 C 0.73765 0.58432 0.01366 0.0
C3115 C 0.74982 0.60663 0.02384 0.0
C3116 C 0.75398 0.62237 0.97972 0.0
C3117 C 0.74802 0.59751 0.9699 0.0
N3118 N 0.7329 0.55483 0.97834 0.0
N3119 N 0.76756 0.6486 0.01589 0.0
C3120 C 0.73934 0.57862 0.98717 0.0
C3121 C 0.75777 0.62605 0.00661 0.0
N3122 N 0.72383 0.56852 0.02911 0.0
N3123 N 0.75332 0.64298 0.96378 0.0
H3124 H 0.76982 0.65228 0.03532 0.0
H3125 H 0.77466 0.6632 0.00431 0.0
H3126 H 0.75037 0.64118 0.94421 0.0
H3127 H 0.75394 0.66188 0.97016 0.0
H3128 H 0.70997 0.55609 0.0217 0.0
H3129 H 0.72481 0.56916 0.04896 0.0
H3130 H 0.72875 0.53933 0.99019 0.0
H3131 H 0.73366 0.55034 0.95907 0.0
C3132 C 0.40629 0.76943 0.99277 0.0
C3133 C 0.39363 0.75055 0.97783 0.0
C3134 C 0.37824 0.72915 0.01607 0.0
C3135 C 0.39268 0.74658 0.03132 0.0
N3136 N 0.4115 0.78899 0.03451 0.0
N3137 N 0.35706 0.72284 0.97542 0.0
C3138 C 0.40373 0.76873 0.01982 0.0
C3139 C 0.37617 0.73366 0.98955 0.0
N3140 N 0.42114 0.78755 0.98118 0.0
N3141 N 0.36736 0.70779 0.02658 0.0
H3142 H 0.35454 0.72758 0.95622 0.0
H3143 H 0.34242 0.71181 0.98338 0.0
H3144 H 0.36846 0.70379 0.046 0.0
H3145 H 0.35877 0.69334 0.01566 0.0
H3146 H 0.43372 0.79965 0.99099 0.0
H3147 H 0.42097 0.79003 0.96147 0.0
H3148 H 0.41805 0.80629 0.02698 0.0
H3149 H 0.40898 0.78951 0.05419 0.0
C3150 C 0.24272 0.37484 0.0135 0.0
C3151 C 0.24657 0.39953 0.02467 0.0
C3152 C 0.26472 0.41304 0.98419 0.0
C3153 C 0.25275 0.39219 0.97116 0.0
N3154 N 0.23336 0.3502 0.97514 0.0
N3155 N 0.25999 0.44319 0.01847 0.0
C3156 C 0.24207 0.3723 0.98632 0.0
C3157 C 0.25672 0.41906 0.00913 0.0
N3158 N 0.2429 0.35352 0.02847 0.0
N3159 N 0.28598 0.42492 0.97484 0.0
H3160 H 0.25327 0.44825 0.03648 0.0
H3161 H 0.26658 0.45822 0.00703 0.0
H3162 H 0.29452 0.41989 0.9577 0.0
H3163 H 0.29632 0.43842 0.9855 0.0
H3164 H 0.24382 0.33501 0.02109 0.0
H3165 H 0.24384 0.35442 0.04828 0.0
H3166 H 0.22484 0.33533 0.98538 0.0
H3167 H 0.23391 0.347 0.95552 0.0
C3168 C 0.01786 0.62616 0.78829 0.0
C3169 C 0.0292 0.60267 0.78082 0.0
C3170 C 0.98621 0.58576 0.76977 0.0
C3171 C 0.975 0.60995 0.77502 0.0
N3172 N 0.98099 0.65416 0.78677 0.0
N3173 N 0.02406 0.56094 0.7617 0.0
C3174 C 0.99109 0.63038 0.78379 0.0
C3175 C 0.01321 0.58264 0.77119 0.0
N3176 N 0.03277 0.64452 0.79971 0.0
N3177 N 0.97089 0.56525 0.76398 0.0
H3178 H 0.0435 0.55738 0.76308 0.0
H3179 H 0.01415 0.54719 0.75103 0.0
H3180 H 0.95155 0.56691 0.76044 0.0
H3181 H 0.97703 0.54638 0.76457 0.0
H3182 H 0.0257 0.66114 0.80787 0.0
H3183 H 0.05213 0.64198 0.80314 0.0
H3184 H 0.99179 0.67062 0.79049 0.0
H3185 H 0.96166 0.65772 0.78421 0.0
C3186 C 0.42217 0.99411 0.7255 0.0
C3187 C 0.40576 0.97549 0.73718 0.0
C3188 C 0.38159 0.0114 0.75575 0.0
C3189 C 0.4012 0.02873 0.74817 0.0
N3190 N 0.44292 0.03524 0.73043 0.0
N3191 N 0.367 0.96756 0.76111 0.0
C3192 C 0.42246 0.01948 0.73482 0.0
C3193 C 0.3848 0.98447 0.75197 0.0
N3194 N 0.43553 0.98894 0.70379 0.0
N3195 N 0.35925 0.02071 0.76506 0.0
H3196 H 0.36467 0.94904 0.75397 0.0
H3197 H 0.35421 0.97214 0.77551 0.0
H3198 H 0.35633 0.04015 0.76832 0.0
H3199 H 0.34307 0.00945 0.76825 0.0
H3200 H 0.44668 0.0027 0.69451 0.0
H3201 H 0.43188 0.9733 0.69201 0.0
H3202 H 0.45999 0.0287 0.72286 0.0
H3203 H 0.44376 0.05393 0.73736 0.0
C3204 C 0.0168 0.38392 0.71993 0.0
C3205 C 0.03235 0.39414 0.73989 0.0
C3206 C 0.99389 0.40672 0.76325 0.0
C3207 C 0.97871 0.39842 0.74224 0.0
N3208 N 0.97455 0.36985 0.70659 0.0
N3209 N 0.03526 0.40747 0.78403 0.0
C3210 C 0.98987 0.38405 0.72245 0.0
C3211 C 0.02077 0.40286 0.76278 0.0
N3212 N 0.02775 0.37475 0.6982 0.0
N3213 N 0.98288 0.41924 0.78316 0.0
H3214 H 0.05486 0.40497 0.78464 0.0
H3215 H 0.02766 0.41149 0.80189 0.0
H3216 H 0.96326 0.42003 0.78558 0.0
H3217 H 0.99313 0.42946 0.79694 0.0
H3218 H 0.01747 0.37007 0.68177 0.0
H3219 H 0.04737 0.37299 0.69615 0.0
H3220 H 0.98138 0.35726 0.69288 0.0
H3221 H 0.95491 0.36847 0.7094 0.0
C3222 C 0.62466 0.98642 0.78362 0.0
C3223 C 0.60492 0.97052 0.77329 0.0
C3224 C 0.57813 0.00892 0.7682 0.0
C3225 C 0.59783 0.0248 0.77849 0.0
N3226 N 0.63749 0.02782 0.80137 0.0
N3227 N 0.56107 0.96633 0.75994 0.0
C3228 C 0.62022 0.01317 0.78816 0.0
C3229 C 0.58112 0.98176 0.76694 0.0
N3230 N 0.6482 0.97634 0.78765 0.0
N3231 N 0.557 0.02012 0.75808 0.0
H3232 H 0.56267 0.94664 0.75774 0.0
H3233 H 0.54239 0.9726 0.75856 0.0
H3234 H 0.5537 0.0397 0.75969 0.0
H3235 H 0.54344 0.01044 0.74705 0.0
H3236 H 0.66425 0.98729 0.79239 0.0
H3237 H 0.65205 0.95701 0.78485 0.0
H3238 H 0.65301 0.02031 0.81109 0.0
H3239 H 0.63489 0.04727 0.80471 0.0
C3240 C 0.99123 0.38179 0.24502 0.0
C3241 C 0.97696 0.40332 0.25272 0.0
C3242 C 0.01368 0.41858 0.27725 0.0
C3243 C 0.02998 0.40064 0.26509 0.0
N3244 N 0.03253 0.36444 0.2357 0.0
N3245 N 0.97722 0.44546 0.27148 0.0
C3246 C 0.01832 0.38219 0.24819 0.0
C3247 C 0.98922 0.4229 0.26695 0.0
N3248 N 0.97895 0.36034 0.23605 0.0
N3249 N 0.01975 0.42954 0.30016 0.0
H3250 H 0.95926 0.44938 0.26399 0.0
H3251 H 0.98647 0.46103 0.28014 0.0
H3252 H 0.03355 0.42229 0.31229 0.0
H3253 H 0.00767 0.44212 0.30954 0.0
H3254 H 0.98808 0.34303 0.23294 0.0
H3255 H 0.95927 0.35917 0.23362 0.0
H3256 H 0.02511 0.35282 0.22122 0.0
H3257 H 0.0518 0.36164 0.2388 0.0
C3258 C 0.61865 0.01297 0.27694 0.0
C3259 C 0.60605 0.02562 0.25663 0.0
C3260 C 0.60039 0.98407 0.23462 0.0
C3261 C 0.6082 0.97129 0.2572 0.0
N3262 N 0.62696 0.97344 0.29928 0.0
N3263 N 0.58591 0.02342 0.21515 0.0
C3264 C 0.61847 0.98578 0.27794 0.0
C3265 C 0.59776 0.01131 0.23489 0.0
N3266 N 0.63088 0.02711 0.29537 0.0
N3267 N 0.59531 0.97029 0.21296 0.0
H3268 H 0.58521 0.04322 0.21346 0.0
H3269 H 0.57577 0.01387 0.20084 0.0
H3270 H 0.59668 0.95047 0.21194 0.0
H3271 H 0.59206 0.97858 0.19522 0.0
H3272 H 0.64314 0.01942 0.30889 0.0
H3273 H 0.63042 0.04701 0.296 0.0
H3274 H 0.63112 0.98254 0.3165 0.0
H3275 H 0.62875 0.95363 0.30023 0.0
C3276 C 0.01406 0.60059 0.23753 0.0
C3277 C 0.0277 0.61437 0.25675 0.0
C3278 C 0.98763 0.63084 0.27354 0.0
C3279 C 0.97396 0.61641 0.25494 0.0
N3280 N 0.97478 0.59629 0.21345 0.0
N3281 N 0.02809 0.64959 0.2865 0.0
C3282 C 0.98738 0.60438 0.23486 0.0
C3283 C 0.0146 0.632 0.27243 0.0
N3284 N 0.02584 0.58241 0.22318 0.0
N3285 N 0.97492 0.64251 0.29296 0.0
H3286 H 0.04791 0.65086 0.28588 0.0
H3287 H 0.01963 0.66439 0.29662 0.0
H3288 H 0.95512 0.64261 0.29401 0.0
H3289 H 0.98399 0.65072 0.30874 0.0
H3290 H 0.0159 0.56959 0.21143 0.0
H3291 H 0.04522 0.57872 0.22425 0.0
H3292 H 0.98407 0.58928 0.19741 0.0
H3293 H 0.9554 0.59919 0.21062 0.0
C3294 C 0.37547 0.02075 0.21828 0.0
C3295 C 0.39497 0.03518 0.23114 0.0
C3296 C 0.42005 0.99547 0.23486 0.0
C3297 C 0.40035 0.98087 0.22309 0.0
N3298 N 0.36076 0.97991 0.20017 0.0
N3299 N 0.43211 0.03312 0.25873 0.0
C3300 C 0.37857 0.9937 0.2136 0.0
C3301 C 0.41635 0.02171 0.2411 0.0
N3302 N 0.35296 0.03238 0.21275 0.0
N3303 N 0.44254 0.98391 0.24061 0.0
H3304 H 0.43211 0.0526 0.26296 0.0
H3305 H 0.44496 0.02299 0.26988 0.0
H3306 H 0.44546 0.96443 0.23754 0.0
H3307 H 0.45887 0.99402 0.24624 0.0
H3308 H 0.33682 0.02284 0.2059 0.0
H3309 H 0.34991 0.05178 0.21615 0.0
H3310 H 0.34563 0.98798 0.19035 0.0
H3311 H 0.36234 0.96029 0.19715 0.0
C3312 C 0.73839 0.0201 0.58449 0.0
C3313 C 0.75041 0.03148 0.60596 0.0
C3314 C 0.75745 0.98838 0.62389 0.0
C3315 C 0.74637 0.9773 0.60155 0.0
N3316 N 0.73646 0.9832 0.55732 0.0
N3317 N 0.7727 0.0269 0.64591 0.0
C3318 C 0.73925 0.99334 0.58109 0.0
C3319 C 0.76048 0.01571 0.6256 0.0
N3320 N 0.72708 0.03499 0.56652 0.0
N3321 N 0.76445 0.97291 0.64361 0.0
H3322 H 0.77412 0.04669 0.6483 0.0
H3323 H 0.78276 0.01684 0.65966 0.0
H3324 H 0.7637 0.953 0.64249 0.0
H3325 H 0.7701 0.97956 0.66149 0.0
H3326 H 0.71505 0.0277 0.55231 0.0
H3327 H 0.72918 0.05476 0.56653 0.0
H3328 H 0.73262 0.99382 0.54099 0.0
H3329 H 0.74333 0.96515 0.55356 0.0
C3330 C 0.74801 0.0161 0.42375 0.0
C3331 C 0.7522 0.0299 0.40096 0.0
C3332 C 0.75234 0.98921 0.377 0.0
C3333 C 0.74759 0.97584 0.4001 0.0
N3334 N 0.75391 0.97606 0.44552 0.0
N3335 N 0.76378 0.02964 0.35652 0.0
C3336 C 0.74959 0.98917 0.4235 0.0
C3337 C 0.75629 0.01642 0.37774 0.0
N3338 N 0.74199 0.02862 0.44569 0.0
N3339 N 0.75254 0.97605 0.3545 0.0
H3340 H 0.76647 0.04947 0.35653 0.0
H3341 H 0.76924 0.02093 0.33957 0.0
H3342 H 0.75192 0.95612 0.35376 0.0
H3343 H 0.75278 0.98477 0.33666 0.0
H3344 H 0.73584 0.01923 0.46213 0.0
H3345 H 0.74297 0.04846 0.44705 0.0
H3346 H 0.75737 0.98493 0.46305 0.0
H3347 H 0.75476 0.95617 0.44589 0.0
C3348 C 0.98807 0.7562 0.37807 0.0
C3349 C 0.97747 0.73614 0.39334 0.0
C3350 C 0.01957 0.72721 0.41018 0.0
C3351 C 0.03085 0.74664 0.39506 0.0
N3352 N 0.0263 0.77279 0.35735 0.0
N3353 N 0.98865 0.69331 0.40705 0.0
C3354 C 0.01527 0.75936 0.37683 0.0
C3355 C 0.99478 0.71862 0.40425 0.0
N3356 N 0.97259 0.77108 0.36354 0.0
N3357 N 0.03242 0.71659 0.43009 0.0
H3358 H 0.97252 0.685 0.39864 0.0
H3359 H 1.00164 0.68014 0.41419 0.0
H3360 H 0.05017 0.7235 0.43613 0.0
H3361 H 0.02393 0.70303 0.44209 0.0
H3362 H 0.97891 0.78775 0.35454 0.0
H3363 H 0.95353 0.76645 0.36011 0.0
H3364 H 0.01603 0.7804 0.34219 0.0
H3365 H 0.04595 0.77458 0.35521 0.0
C3366 C 0.25153 0.01553 0.38037 0.0
C3367 C 0.2633 0.02727 0.40207 0.0
C3368 C 0.278 0.98513 0.4162 0.0
C3369 C 0.26334 0.97289 0.39697 0.0
N3370 N 0.23816 0.97617 0.35862 0.0
N3371 N 0.28009 0.02098 0.44424 0.0
C3372 C 0.25061 0.98806 0.3784 0.0
C3373 C 0.27479 0.01147 0.4207 0.0
N3374 N 0.24184 0.03055 0.36145 0.0
N3375 N 0.29501 0.97186 0.43064 0.0
H3376 H 0.27411 0.03894 0.44928 0.0
H3377 H 0.28561 0.00968 0.4596 0.0
H3378 H 0.29829 0.95245 0.42849 0.0
H3379 H 0.30794 0.98084 0.44301 0.0
H3380 H 0.23503 0.02363 0.34409 0.0
H3381 H 0.24168 0.05046 0.36246 0.0
H3382 H 0.22626 0.98541 0.34582 0.0
H3383 H 0.239 0.95649 0.35539 0.0
C3384 C 0.00606 0.27087 0.41075 0.0
C3385 C 0.02157 0.26134 0.39068 0.0
C3386 C 0.98234 0.24645 0.36874 0.0
C3387 C 0.96771 0.25354 0.39033 0.0
N3388 N 0.96683 0.26662 0.43425 0.0
N3389 N 0.02399 0.23661 0.35168 0.0
C3390 C 0.98002 0.26389 0.412 0.0
C3391 C 0.00957 0.24787 0.37008 0.0
N3392 N 0.01562 0.28758 0.42832 0.0
N3393 N 0.97028 0.23936 0.34665 0.0
H3394 H 0.04376 0.23821 0.35108 0.0
H3395 H 0.01643 0.22425 0.3379 0.0
H3396 H 0.95052 0.23774 0.34513 0.0
H3397 H 0.97973 0.23668 0.32944 0.0
H3398 H 0.0043 0.29708 0.44148 0.0
H3399 H 0.03394 0.29468 0.42751 0.0
H3400 H 0.97544 0.27125 0.45164 0.0
H3401 H 0.9479 0.26078 0.436 0.0
C3402 C 0.24227 0.01225 0.62521 0.0
C3403 C 0.24779 0.02537 0.60207 0.0
C3404 C 0.25248 0.98436 0.57994 0.0
C3405 C 0.24783 0.97096 0.60284 0.0
N3406 N 0.23428 0.97149 0.64673 0.0
N3407 N 0.24639 0.02216 0.55606 0.0
C3408 C 0.24132 0.98473 0.62535 0.0
C3409 C 0.2493 0.011 0.57921 0.0
N3410 N 0.2383 0.02601 0.64696 0.0
N3411 N 0.25933 0.97171 0.55827 0.0
H3412 H 0.24318 0.04165 0.55376 0.0
H3413 H 0.24318 0.04165 0.55376 0.0
H3414 H 0.2604 0.95186 0.55733 0.0
H3415 H 0.26353 0.98126 0.54126 0.0
H3416 H 0.23728 0.01806 0.66511 0.0
H3417 H 0.23618 0.0458 0.64682 0.0
H3418 H 0.22705 0.97998 0.66309 0.0
H3419 H 0.23414 0.95155 0.6476 0.0
C3420 C 0.98105 0.28432 0.58184 0.0
C3421 C 0.96992 0.26754 0.59999 0.0
C3422 C 0.01272 0.26058 0.61791 0.0
C3423 C 0.02328 0.27753 0.59925 0.0
N3424 N 0.01253 0.31776 0.57918 0.0
N3425 N 0.97475 0.24822 0.64159 0.0
C3426 C 0.00613 0.29328 0.58582 0.0
C3427 C 0.98558 0.25803 0.62 0.0
N3428 N 0.96793 0.29187 0.56073 0.0
N3429 N 0.02827 0.24803 0.63447 0.0
H3430 H 0.95513 0.24713 0.64433 0.0
H3431 H 0.98516 0.24326 0.65774 0.0
H3432 H 0.04759 0.25234 0.63644 0.0
H3433 H 0.02186 0.23339 0.6464 0.0
H3434 H 0.97634 0.30331 0.54668 0.0
H3435 H 0.95003 0.28433 0.55601 0.0
H3436 H 0.99954 0.32994 0.57047 0.0
H3437 H 0.02922 0.32679 0.58552 0.0
C3438 C 0.01945 0.75583 0.62818 0.0
C3439 C 0.03375 0.74857 0.60635 0.0
C3440 C 0.99429 0.74042 0.58279 0.0
C3441 C 0.97994 0.74411 0.60535 0.0
N3442 N 0.97855 0.75488 0.64997 0.0
N3443 N 0.03481 0.73069 0.5639 0.0
C3444 C 0.99239 0.7521 0.62815 0.0
C3445 C 0.02114 0.73972 0.58406 0.0
N3446 N 0.03178 0.76582 0.64901 0.0
N3447 N 0.98218 0.73923 0.55975 0.0
H3448 H 0.05459 0.73201 0.56309 0.0
H3449 H 0.02654 0.72093 0.54854 0.0
H3450 H 0.96275 0.7423 0.55813 0.0
H3451 H 0.99159 0.73876 0.5423 0.0
H3452 H 0.02251 0.77395 0.66449 0.0
H3453 H 0.05154 0.76775 0.65007 0.0
H3454 H 0.98655 0.75796 0.66791 0.0
H3455 H 0.95881 0.75271 0.65036 0.0
loop_
_geom_bond_atom_site_label_1
_geom_bond_atom_site_label_2
_geom_bond_distance
_geom_bond_site_symmetry_2
_ccdc_geom_bond_type
Mn0 O5 2.095 . S
Mn0 O15 2.162 . S
Mn0 O16 2.297 . S
Mn0 O24 2.385 . S
Mn0 O25 2.209 . S
Mn0 O26 2.094 . S
Mn1 O6 2.121 . S
Mn1 N8 2.257 . S
Mn1 N17 2.282 . S
Mn1 O25 2.215 . S
Mn1 O27 2.117 . S
C2 O24 1.234 . S
C2 O25 1.283 . S
C3 O15 1.281 . S
C3 O16 1.236 . S
C4 O26 1.240 . S
C4 O27 1.264 . S
O5 Mn0 2.095 . S
O5 C14 1.250 . S
O6 Mn1 2.121 . S
O6 C14 1.258 . S
C7 N8 1.326 . S
C7 C11 1.460 . S
C7 H13 0.929 . S
N8 Mn1 2.257 . S
N8 C7 1.326 . S
N8 C12 1.362 . S
C9 C10 1.258 . S
C9 C12 1.431 . S
C9 C29 1.449 . S
C10 C9 1.258 . S
C10 C11 1.477 . S
C10 H30 0.931 . S
C11 C7 1.460 . S
C11 C10 1.477 . S
C11 H31 0.930 . S
C12 N8 1.362 . S
C12 C9 1.431 . S
C12 C22 1.476 . S
H13 C7 0.929 . S
C14 O5 1.250 . S
C14 O6 1.258 . S
O15 Mn0 2.162 . S
O15 C3 1.281 . S
O16 Mn0 2.297 . S
O16 C3 1.236 . S
N17 Mn1 2.282 . S
N17 C18 1.328 . S
N17 C22 1.318 . S
C18 N17 1.328 . S
C18 C19 1.457 . S
C18 H23 0.929 . S
C19 C18 1.457 . S
C19 C20 1.291 . S
C19 H32 0.931 . S
C20 C19 1.291 . S
C20 C21 1.373 . S
C20 H33 0.929 . S
C21 C20 1.373 . S
C21 C22 1.396 . S
C21 C28 1.403 . S
C22 C12 1.476 . S
C22 N17 1.318 . S
C22 C21 1.396 . S
H23 C18 0.929 . S
O24 Mn0 2.385 . S
O24 C2 1.234 . S
O25 Mn0 2.209 . S
O25 Mn1 2.215 . S
O25 C2 1.283 . S
O26 Mn0 2.094 . S
O26 C4 1.240 . S
O27 Mn1 2.117 . S
O27 C4 1.264 . S
C28 C21 1.403 . S
C28 C29 1.399 . S
C28 H34 0.929 . S
C29 C9 1.449 . S
C29 C28 1.399 . S
C29 H35 0.930 . S
H30 C10 0.931 . S
H31 C11 0.930 . S
H32 C19 0.931 . S
H33 C20 0.929 . S
H34 C28 0.929 . S
H35 C29 0.930 . S
Mn36 O41 2.095 . S
Mn36 O51 2.162 . S
Mn36 O52 2.297 . S
Mn36 O60 2.385 . S
Mn36 O61 2.209 . S
Mn36 O62 2.094 . S
Mn37 O42 2.121 . S
Mn37 N44 2.257 . S
Mn37 N53 2.282 . S
Mn37 O61 2.215 . S
Mn37 O63 2.117 . S
C38 O60 1.234 . S
C38 O61 1.283 . S
C39 O51 1.281 . S
C39 O52 1.236 . S
C40 O62 1.240 . S
C40 O63 1.264 . S
O41 Mn36 2.095 . S
O41 C50 1.250 . S
O42 Mn37 2.121 . S
O42 C50 1.258 . S
C43 N44 1.326 . S
C43 C47 1.460 . S
C43 H49 0.929 . S
N44 Mn37 2.257 . S
N44 C43 1.326 . S
N44 C48 1.362 . S
C45 C46 1.258 . S
C45 C48 1.431 . S
C45 C65 1.483 . S
C46 C45 1.258 . S
C46 C47 1.477 . S
C46 H66 0.931 . S
C47 C43 1.460 . S
C47 C46 1.477 . S
C47 H67 0.930 . S
C48 N44 1.362 . S
C48 C45 1.431 . S
C48 C58 1.476 . S
H49 C43 0.929 . S
C50 O41 1.250 . S
C50 O42 1.258 . S
O51 Mn36 2.162 . S
O51 C39 1.281 . S
O52 Mn36 2.297 . S
O52 C39 1.236 . S
N53 Mn37 2.282 . S
N53 C54 1.328 . S
N53 C58 1.318 . S
C54 N53 1.328 . S
C54 C55 1.457 . S
C54 H59 0.929 . S
C55 C54 1.457 . S
C55 C56 1.289 1_545 S
C55 H68 0.931 . S
C56 C55 1.289 1_565 S
C56 C57 1.372 1_565 S
C56 H69 0.932 . S
C57 C56 1.372 1_545 S
C57 C58 1.396 . S
C57 C64 1.403 1_545 S
C58 C48 1.476 . S
C58 N53 1.318 . S
C58 C57 1.396 . S
H59 C54 0.929 . S
O60 Mn36 2.385 . S
O60 C38 1.234 . S
O61 Mn36 2.209 . S
O61 Mn37 2.215 . S
O61 C38 1.283 . S
O62 Mn36 2.094 . S
O62 C40 1.240 . S
O63 Mn37 2.117 . S
O63 C40 1.264 . S
C64 C57 1.403 1_565 S
C64 C65 1.388 1_565 S
C64 H70 0.929 . S
C65 C45 1.483 . S
C65 C64 1.388 1_545 S
C65 H71 0.908 1_545 S
H66 C46 0.931 . S
H67 C47 0.930 . S
H68 C55 0.931 . S
H69 C56 0.932 . S
H70 C64 0.929 . S
H71 C65 0.908 1_565 S
Mn72 O77 2.095 . S
Mn72 O87 2.162 . S
Mn72 O88 2.297 . S
Mn72 O96 2.385 . S
Mn72 O97 2.209 . S
Mn72 O98 2.094 . S
Mn73 O78 2.121 . S
Mn73 N80 2.257 . S
Mn73 N89 2.282 . S
Mn73 O97 2.215 . S
Mn73 O99 2.117 . S
C74 O96 1.234 . S
C74 O97 1.283 . S
C75 O87 1.281 . S
C75 O88 1.236 . S
C76 O98 1.240 . S
C76 O99 1.264 . S
O77 Mn72 2.095 . S
O77 C86 1.250 . S
O78 Mn73 2.121 . S
O78 C86 1.258 . S
C79 N80 1.326 . S
C79 C83 1.460 . S
C79 H85 0.929 . S
N80 Mn73 2.257 . S
N80 C79 1.326 . S
N80 C84 1.362 . S
C81 C82 1.258 . S
C81 C84 1.431 . S
C81 C101 1.449 . S
C82 C81 1.258 . S
C82 C83 1.477 . S
C82 H102 0.931 . S
C83 C79 1.460 . S
C83 C82 1.477 . S
C83 H103 0.930 . S
C84 N80 1.362 . S
C84 C81 1.431 . S
C84 C94 1.476 . S
H85 C79 0.929 . S
C86 O77 1.250 . S
C86 O78 1.258 . S
O87 Mn72 2.162 . S
O87 C75 1.281 . S
O88 Mn72 2.297 . S
O88 C75 1.236 . S
N89 Mn73 2.282 . S
N89 C90 1.328 . S
N89 C94 1.318 . S
C90 N89 1.328 . S
C90 C91 1.457 . S
C90 H95 0.929 . S
C91 C90 1.457 . S
C91 C92 1.291 . S
C91 H104 0.931 . S
C92 C91 1.291 . S
C92 C93 1.373 . S
C92 H105 0.929 . S
C93 C92 1.373 . S
C93 C94 1.396 . S
C93 C100 1.403 . S
C94 C84 1.476 . S
C94 N89 1.318 . S
C94 C93 1.396 . S
H95 C90 0.929 . S
O96 Mn72 2.385 . S
O96 C74 1.234 . S
O97 Mn72 2.209 . S
O97 Mn73 2.215 . S
O97 C74 1.283 . S
O98 Mn72 2.094 . S
O98 C76 1.240 . S
O99 Mn73 2.117 . S
O99 C76 1.264 . S
C100 C93 1.403 . S
C100 C101 1.399 . S
C100 H106 0.929 . S
C101 C81 1.449 . S
C101 C100 1.399 . S
C101 H107 0.930 . S
H102 C82 0.931 . S
H103 C83 0.930 . S
H104 C91 0.931 . S
H105 C92 0.929 . S
H106 C100 0.929 . S
H107 C101 0.930 . S
Mn108 O113 2.095 . S
Mn108 O123 2.162 . S
Mn108 O124 2.297 . S
Mn108 O132 2.385 . S
Mn108 O133 2.209 . S
Mn108 O134 2.094 . S
Mn109 O114 2.121 . S
Mn109 N116 2.257 . S
Mn109 N125 2.282 . S
Mn109 O133 2.215 . S
Mn109 O135 2.117 . S
C110 O132 1.234 . S
C110 O133 1.283 . S
C111 O123 1.281 . S
C111 O124 1.236 . S
C112 O134 1.240 . S
C112 O135 1.264 . S
O113 Mn108 2.095 . S
O113 C122 1.250 . S
O114 Mn109 2.121 . S
O114 C122 1.258 . S
C115 N116 1.326 . S
C115 C119 1.460 . S
C115 H121 0.929 . S
N116 Mn109 2.257 . S
N116 C115 1.326 . S
N116 C120 1.362 . S
C117 C118 1.258 . S
C117 C120 1.431 . S
C117 C137 1.449 . S
C118 C117 1.258 . S
C118 C119 1.477 . S
C118 H138 0.931 . S
C119 C115 1.460 . S
C119 C118 1.477 . S
C119 H139 0.930 . S
C120 N116 1.362 . S
C120 C117 1.431 . S
C120 C130 1.476 . S
H121 C115 0.929 . S
C122 O113 1.250 . S
C122 O114 1.258 . S
O123 Mn108 2.162 . S
O123 C111 1.281 . S
O124 Mn108 2.297 . S
O124 C111 1.236 . S
N125 Mn109 2.282 . S
N125 C126 1.328 . S
N125 C130 1.318 . S
C126 N125 1.328 . S
C126 C127 1.457 . S
C126 H131 0.929 . S
C127 C126 1.457 . S
C127 C128 1.292 . S
C127 H140 0.931 . S
C128 C127 1.292 . S
C128 C129 1.373 . S
C128 H141 0.928 1_565 S
C129 C128 1.373 . S
C129 C130 1.396 . S
C129 C136 1.403 1_565 S
C130 C120 1.476 . S
C130 N125 1.318 . S
C130 C129 1.396 . S
H131 C126 0.929 . S
O132 Mn108 2.385 . S
O132 C110 1.234 . S
O133 Mn108 2.209 . S
O133 Mn109 2.215 . S
O133 C110 1.283 . S
O134 Mn108 2.094 . S
O134 C112 1.240 . S
O135 Mn109 2.117 . S
O135 C112 1.264 . S
C136 C129 1.403 1_545 S
C136 C137 1.399 1_545 S
C136 H142 0.929 . S
C137 C117 1.449 . S
C137 C136 1.399 1_565 S
C137 H143 0.930 1_565 S
H138 C118 0.931 . S
H139 C119 0.930 . S
H140 C127 0.931 . S
H141 C128 0.928 1_545 S
H142 C136 0.929 . S
H143 C137 0.930 1_545 S
Mn144 O149 2.095 . S
Mn144 O159 2.162 . S
Mn144 O160 2.297 . S
Mn144 O168 2.385 . S
Mn144 O169 2.209 . S
Mn144 O170 2.094 . S
Mn145 O150 2.121 . S
Mn145 N152 2.257 . S
Mn145 N161 2.282 . S
Mn145 O169 2.215 . S
Mn145 O171 2.117 . S
C146 O168 1.234 . S
C146 O169 1.283 . S
C147 O159 1.281 . S
C147 O160 1.236 . S
C148 O170 1.240 . S
C148 O171 1.264 . S
O149 Mn144 2.095 . S
O149 C158 1.250 . S
O150 Mn145 2.121 . S
O150 C158 1.258 . S
C151 N152 1.326 . S
C151 C155 1.460 . S
C151 H157 0.929 . S
N152 Mn145 2.257 . S
N152 C151 1.326 . S
N152 C156 1.362 . S
C153 C154 1.258 . S
C153 C156 1.431 . S
C153 C173 1.469 . S
C154 C153 1.258 . S
C154 C155 1.477 . S
C154 H174 0.931 . S
C155 C151 1.460 . S
C155 C154 1.477 . S
C155 H175 0.930 . S
C156 N152 1.362 . S
C156 C153 1.431 . S
C156 C166 1.476 . S
H157 C151 0.929 . S
C158 O149 1.250 . S
C158 O150 1.258 . S
O159 Mn144 2.162 . S
O159 C147 1.281 . S
O160 Mn144 2.297 . S
O160 C147 1.236 . S
N161 Mn145 2.282 . S
N161 C162 1.328 . S
N161 C166 1.318 . S
C162 N161 1.328 . S
C162 C163 1.457 . S
C162 H167 0.929 . S
C163 C162 1.457 . S
C163 C164 1.301 . S
C163 H176 0.931 . S
C164 C163 1.301 . S
C164 C165 1.377 . S
C164 H177 0.916 1_455 S
C165 C164 1.377 . S
C165 C166 1.396 . S
C165 C172 1.403 1_455 S
C166 C156 1.476 . S
C166 N161 1.318 . S
C166 C165 1.396 . S
H167 C162 0.929 . S
O168 Mn144 2.385 . S
O168 C146 1.234 . S
O169 Mn144 2.209 . S
O169 Mn145 2.215 . S
O169 C146 1.283 . S
O170 Mn144 2.094 . S
O170 C148 1.240 . S
O171 Mn145 2.117 . S
O171 C148 1.264 . S
C172 C165 1.403 1_655 S
C172 C173 1.393 1_655 S
C172 H178 0.929 . S
C173 C153 1.469 . S
C173 C172 1.393 1_455 S
C173 H179 0.916 1_455 S
H174 C154 0.931 . S
H175 C155 0.930 . S
H176 C163 0.931 . S
H177 C164 0.916 1_655 S
H178 C172 0.929 . S
H179 C173 0.916 1_655 S
Mn180 O185 2.095 . S
Mn180 O195 2.162 . S
Mn180 O196 2.297 . S
Mn180 O204 2.385 . S
Mn180 O205 2.209 . S
Mn180 O206 2.094 . S
Mn181 O186 2.121 . S
Mn181 N188 2.257 . S
Mn181 N197 2.282 . S
Mn181 O205 2.215 . S
Mn181 O207 2.117 . S
C182 O204 1.234 . S
C182 O205 1.283 . S
C183 O195 1.281 . S
C183 O196 1.236 . S
C184 O206 1.240 . S
C184 O207 1.264 . S
O185 Mn180 2.095 . S
O185 C194 1.250 . S
O186 Mn181 2.121 . S
O186 C194 1.258 . S
C187 N188 1.326 . S
C187 C191 1.460 . S
C187 H193 0.929 . S
N188 Mn181 2.257 . S
N188 C187 1.326 . S
N188 C192 1.362 . S
C189 C190 1.258 . S
C189 C192 1.431 . S
C189 C209 1.449 . S
C190 C189 1.258 . S
C190 C191 1.477 . S
C190 H210 0.931 . S
C191 C187 1.460 . S
C191 C190 1.477 . S
C191 H211 0.930 . S
C192 N188 1.362 . S
C192 C189 1.431 . S
C192 C202 1.476 . S
H193 C187 0.929 . S
C194 O185 1.250 . S
C194 O186 1.258 . S
O195 Mn180 2.162 . S
O195 C183 1.281 . S
O196 Mn180 2.297 . S
O196 C183 1.236 . S
N197 Mn181 2.282 . S
N197 C198 1.328 . S
N197 C202 1.318 . S
C198 N197 1.328 . S
C198 C199 1.457 . S
C198 H203 0.929 . S
C199 C198 1.457 . S
C199 C200 1.291 . S
C199 H212 0.931 . S
C200 C199 1.291 . S
C200 C201 1.373 . S
C200 H213 0.929 . S
C201 C200 1.373 . S
C201 C202 1.396 . S
C201 C208 1.403 . S
C202 C192 1.476 . S
C202 N197 1.318 . S
C202 C201 1.396 . S
H203 C198 0.929 . S
O204 Mn180 2.385 . S
O204 C182 1.234 . S
O205 Mn180 2.209 . S
O205 Mn181 2.215 . S
O205 C182 1.283 . S
O206 Mn180 2.094 . S
O206 C184 1.240 . S
O207 Mn181 2.117 . S
O207 C184 1.264 . S
C208 C201 1.403 . S
C208 C209 1.399 . S
C208 H214 0.929 . S
C209 C189 1.449 . S
C209 C208 1.399 . S
C209 H215 0.930 . S
H210 C190 0.931 . S
H211 C191 0.930 . S
H212 C199 0.931 . S
H213 C200 0.929 . S
H214 C208 0.929 . S
H215 C209 0.930 . S
Mn216 O221 2.095 . S
Mn216 O231 2.162 . S
Mn216 O232 2.297 . S
Mn216 O240 2.385 . S
Mn216 O241 2.209 . S
Mn216 O242 2.094 . S
Mn217 O222 2.121 . S
Mn217 N224 2.257 . S
Mn217 N233 2.282 . S
Mn217 O241 2.215 . S
Mn217 O243 2.117 . S
C218 O240 1.234 . S
C218 O241 1.283 . S
C219 O231 1.281 . S
C219 O232 1.236 . S
C220 O242 1.240 . S
C220 O243 1.264 . S
O221 Mn216 2.095 . S
O221 C230 1.250 . S
O222 Mn217 2.121 . S
O222 C230 1.258 . S
C223 N224 1.326 . S
C223 C227 1.460 . S
C223 H229 0.929 . S
N224 Mn217 2.257 . S
N224 C223 1.326 . S
N224 C228 1.362 . S
C225 C226 1.258 . S
C225 C228 1.431 . S
C225 C245 1.410 1_655 S
C226 C225 1.258 . S
C226 C227 1.477 . S
C226 H246 0.931 . S
C227 C223 1.460 . S
C227 C226 1.477 . S
C227 H247 0.930 . S
C228 N224 1.362 . S
C228 C225 1.431 . S
C228 C238 1.476 . S
H229 C223 0.929 . S
C230 O221 1.250 . S
C230 O222 1.258 . S
O231 Mn216 2.162 . S
O231 C219 1.281 . S
O232 Mn216 2.297 . S
O232 C219 1.236 . S
N233 Mn217 2.282 . S
N233 C234 1.328 . S
N233 C238 1.318 . S
C234 N233 1.328 . S
C234 C235 1.457 . S
C234 H239 0.929 . S
C235 C234 1.457 . S
C235 C236 1.302 . S
C235 H248 0.931 . S
C236 C235 1.302 . S
C236 C237 1.377 . S
C236 H249 0.914 1_655 S
C237 C236 1.377 . S
C237 C238 1.396 . S
C237 C244 1.403 1_655 S
C238 C228 1.476 . S
C238 N233 1.318 . S
C238 C237 1.396 . S
H239 C234 0.929 . S
O240 Mn216 2.385 . S
O240 C218 1.234 . S
O241 Mn216 2.209 . S
O241 Mn217 2.215 . S
O241 C218 1.283 . S
O242 Mn216 2.094 . S
O242 C220 1.240 . S
O243 Mn217 2.117 . S
O243 C220 1.264 . S
C244 C237 1.403 1_455 S
C244 C245 1.412 . S
C244 H250 0.929 . S
C245 C225 1.410 1_455 S
C245 C244 1.412 . S
C245 H251 0.957 . S
H246 C226 0.931 . S
H247 C227 0.930 . S
H248 C235 0.931 . S
H249 C236 0.914 1_455 S
H250 C244 0.929 . S
H251 C245 0.957 . S
Mn252 O257 2.095 . S
Mn252 O267 2.162 . S
Mn252 O268 2.297 . S
Mn252 O276 2.385 . S
Mn252 O277 2.209 . S
Mn252 O278 2.094 . S
Mn253 O258 2.121 . S
Mn253 N260 2.257 . S
Mn253 N269 2.282 . S
Mn253 O277 2.215 . S
Mn253 O279 2.117 . S
C254 O276 1.234 . S
C254 O277 1.283 . S
C255 O267 1.281 . S
C255 O268 1.236 . S
C256 O278 1.240 . S
C256 O279 1.264 . S
O257 Mn252 2.095 . S
O257 C266 1.250 . S
O258 Mn253 2.121 . S
O258 C266 1.258 . S
C259 N260 1.326 . S
C259 C263 1.460 . S
C259 H265 0.929 . S
N260 Mn253 2.257 . S
N260 C259 1.326 . S
N260 C264 1.362 . S
C261 C262 1.258 . S
C261 C264 1.431 . S
C261 C281 1.449 . S
C262 C261 1.258 . S
C262 C263 1.477 . S
C262 H282 0.931 . S
C263 C259 1.460 . S
C263 C262 1.477 . S
C263 H283 0.930 . S
C264 N260 1.362 . S
C264 C261 1.431 . S
C264 C274 1.476 . S
H265 C259 0.929 . S
C266 O257 1.250 . S
C266 O258 1.258 . S
O267 Mn252 2.162 . S
O267 C255 1.281 . S
O268 Mn252 2.297 . S
O268 C255 1.236 . S
N269 Mn253 2.282 . S
N269 C270 1.328 . S
N269 C274 1.318 . S
C270 N269 1.328 . S
C270 C271 1.457 . S
C270 H275 0.929 . S
C271 C270 1.457 . S
C271 C272 1.291 . S
C271 H284 0.931 . S
C272 C271 1.291 . S
C272 C273 1.373 . S
C272 H285 0.929 . S
C273 C272 1.373 . S
C273 C274 1.396 . S
C273 C280 1.403 . S
C274 C264 1.476 . S
C274 N269 1.318 . S
C274 C273 1.396 . S
H275 C270 0.929 . S
O276 Mn252 2.385 . S
O276 C254 1.234 . S
O277 Mn252 2.209 . S
O277 Mn253 2.215 . S
O277 C254 1.283 . S
O278 Mn252 2.094 . S
O278 C256 1.240 . S
O279 Mn253 2.117 . S
O279 C256 1.264 . S
C280 C273 1.403 . S
C280 C281 1.399 . S
C280 H286 0.929 . S
C281 C261 1.449 . S
C281 C280 1.399 . S
C281 H287 0.930 . S
H282 C262 0.931 . S
H283 C263 0.930 . S
H284 C271 0.931 . S
H285 C272 0.929 . S
H286 C280 0.929 . S
H287 C281 0.930 . S
Mn288 O293 2.095 . S
Mn288 O303 2.162 . S
Mn288 O304 2.297 . S
Mn288 O312 2.385 . S
Mn288 O313 2.209 . S
Mn288 O314 2.094 . S
Mn289 O294 2.121 . S
Mn289 N296 2.257 . S
Mn289 N305 2.282 . S
Mn289 O313 2.215 . S
Mn289 O315 2.117 . S
C290 O312 1.234 . S
C290 O313 1.283 . S
C291 O303 1.281 . S
C291 O304 1.236 . S
C292 O314 1.240 . S
C292 O315 1.264 . S
O293 Mn288 2.095 . S
O293 C302 1.250 . S
O294 Mn289 2.121 . S
O294 C302 1.258 . S
C295 N296 1.326 . S
C295 C299 1.460 . S
C295 H301 0.929 . S
N296 Mn289 2.257 . S
N296 C295 1.326 . S
N296 C300 1.362 . S
C297 C298 1.258 . S
C297 C300 1.431 . S
C297 C317 1.449 1_545 S
C298 C297 1.258 . S
C298 C299 1.477 . S
C298 H318 0.931 . S
C299 C295 1.460 . S
C299 C298 1.477 . S
C299 H319 0.930 . S
C300 N296 1.362 . S
C300 C297 1.431 . S
C300 C310 1.476 . S
H301 C295 0.929 . S
C302 O293 1.250 . S
C302 O294 1.258 . S
O303 Mn288 2.162 . S
O303 C291 1.281 . S
O304 Mn288 2.297 . S
O304 C291 1.236 . S
N305 Mn289 2.282 . S
N305 C306 1.328 . S
N305 C310 1.318 . S
C306 N305 1.328 . S
C306 C307 1.457 . S
C306 H311 0.929 . S
C307 C306 1.457 . S
C307 C308 1.291 1_545 S
C307 H320 0.931 . S
C308 C307 1.291 1_565 S
C308 C309 1.373 1_565 S
C308 H321 0.929 . S
C309 C308 1.373 1_545 S
C309 C310 1.396 . S
C309 C316 1.403 1_545 S
C310 C300 1.476 . S
C310 N305 1.318 . S
C310 C309 1.396 . S
H311 C306 0.929 . S
O312 Mn288 2.385 . S
O312 C290 1.234 . S
O313 Mn288 2.209 . S
O313 Mn289 2.215 . S
O313 C290 1.283 . S
O314 Mn288 2.094 . S
O314 C292 1.240 . S
O315 Mn289 2.117 . S
O315 C292 1.264 . S
C316 C309 1.403 1_565 S
C316 C317 1.399 . S
C316 H322 0.929 . S
C317 C297 1.449 1_565 S
C317 C316 1.399 . S
C317 H323 0.930 . S
H318 C298 0.931 . S
H319 C299 0.930 . S
H320 C307 0.931 . S
H321 C308 0.929 . S
H322 C316 0.929 . S
H323 C317 0.930 . S
Mn324 O329 2.095 . S
Mn324 O339 2.162 . S
Mn324 O340 2.297 . S
Mn324 O348 2.385 . S
Mn324 O349 2.209 . S
Mn324 O350 2.094 . S
Mn325 O330 2.121 . S
Mn325 N332 2.257 . S
Mn325 N341 2.282 . S
Mn325 O349 2.215 . S
Mn325 O351 2.117 . S
C326 O348 1.234 . S
C326 O349 1.283 . S
C327 O339 1.281 . S
C327 O340 1.236 . S
C328 O350 1.240 . S
C328 O351 1.264 . S
O329 Mn324 2.095 . S
O329 C338 1.250 . S
O330 Mn325 2.121 . S
O330 C338 1.258 . S
C331 N332 1.326 . S
C331 C335 1.460 . S
C331 H337 0.929 . S
N332 Mn325 2.257 . S
N332 C331 1.326 . S
N332 C336 1.362 . S
C333 C334 1.258 . S
C333 C336 1.431 . S
C333 C353 1.449 . S
C334 C333 1.258 . S
C334 C335 1.477 . S
C334 H354 0.931 . S
C335 C331 1.460 . S
C335 C334 1.477 . S
C335 H355 0.930 . S
C336 N332 1.362 . S
C336 C333 1.431 . S
C336 C346 1.476 . S
H337 C331 0.929 . S
C338 O329 1.250 . S
C338 O330 1.258 . S
O339 Mn324 2.162 . S
O339 C327 1.281 . S
O340 Mn324 2.297 . S
O340 C327 1.236 . S
N341 Mn325 2.282 . S
N341 C342 1.328 . S
N341 C346 1.318 . S
C342 N341 1.328 . S
C342 C343 1.457 . S
C342 H347 0.929 . S
C343 C342 1.457 . S
C343 C344 1.291 . S
C343 H356 0.931 . S
C344 C343 1.291 . S
C344 C345 1.373 . S
C344 H357 0.929 1_655 S
C345 C344 1.373 . S
C345 C346 1.396 . S
C345 C352 1.403 1_655 S
C346 C336 1.476 . S
C346 N341 1.318 . S
C346 C345 1.396 . S
H347 C342 0.929 . S
O348 Mn324 2.385 . S
O348 C326 1.234 . S
O349 Mn324 2.209 . S
O349 Mn325 2.215 . S
O349 C326 1.283 . S
O350 Mn324 2.094 . S
O350 C328 1.240 . S
O351 Mn325 2.117 . S
O351 C328 1.264 . S
C352 C345 1.403 1_455 S
C352 C353 1.399 1_455 S
C352 H358 0.929 . S
C353 C333 1.449 . S
C353 C352 1.399 1_655 S
C353 H359 0.930 1_655 S
H354 C334 0.931 . S
H355 C335 0.930 . S
H356 C343 0.931 . S
H357 C344 0.929 1_455 S
H358 C352 0.929 . S
H359 C353 0.930 1_455 S
Mn360 O365 2.095 . S
Mn360 O375 2.162 . S
Mn360 O376 2.297 . S
Mn360 O384 2.385 . S
Mn360 O385 2.209 . S
Mn360 O386 2.094 . S
Mn361 O366 2.121 . S
Mn361 N368 2.257 . S
Mn361 N377 2.282 . S
Mn361 O385 2.215 . S
Mn361 O387 2.117 . S
C362 O384 1.234 . S
C362 O385 1.283 . S
C363 O375 1.281 . S
C363 O376 1.236 . S
C364 O386 1.240 . S
C364 O387 1.264 . S
O365 Mn360 2.095 . S
O365 C374 1.250 . S
O366 Mn361 2.121 . S
O366 C374 1.258 . S
C367 N368 1.326 . S
C367 C371 1.460 . S
C367 H373 0.929 . S
N368 Mn361 2.257 . S
N368 C367 1.326 . S
N368 C372 1.362 . S
C369 C370 1.258 . S
C369 C372 1.431 . S
C369 C389 1.449 . S
C370 C369 1.258 . S
C370 C371 1.477 . S
C370 H390 0.931 . S
C371 C367 1.460 . S
C371 C370 1.477 . S
C371 H391 0.930 . S
C372 N368 1.362 . S
C372 C369 1.431 . S
C372 C382 1.476 . S
H373 C367 0.929 . S
C374 O365 1.250 . S
C374 O366 1.258 . S
O375 Mn360 2.162 . S
O375 C363 1.281 . S
O376 Mn360 2.297 . S
O376 C363 1.236 . S
N377 Mn361 2.282 . S
N377 C378 1.328 . S
N377 C382 1.318 . S
C378 N377 1.328 . S
C378 C379 1.457 . S
C378 H383 0.929 . S
C379 C378 1.457 . S
C379 C380 1.291 . S
C379 H392 0.931 . S
C380 C379 1.291 . S
C380 C381 1.373 . S
C380 H393 0.929 . S
C381 C380 1.373 . S
C381 C382 1.396 . S
C381 C388 1.403 . S
C382 C372 1.476 . S
C382 N377 1.318 . S
C382 C381 1.396 . S
H383 C378 0.929 . S
O384 Mn360 2.385 . S
O384 C362 1.234 . S
O385 Mn360 2.209 . S
O385 Mn361 2.215 . S
O385 C362 1.283 . S
O386 Mn360 2.094 . S
O386 C364 1.240 . S
O387 Mn361 2.117 . S
O387 C364 1.264 . S
C388 C381 1.403 . S
C388 C389 1.399 . S
C388 H394 0.929 . S
C389 C369 1.449 . S
C389 C388 1.399 . S
C389 H395 0.930 . S
H390 C370 0.931 . S
H391 C371 0.930 . S
H392 C379 0.931 . S
H393 C380 0.929 . S
H394 C388 0.929 . S
H395 C389 0.930 . S
Mn396 O401 2.095 . S
Mn396 O411 2.162 . S
Mn396 O412 2.297 . S
Mn396 O420 2.385 . S
Mn396 O421 2.209 . S
Mn396 O422 2.094 . S
Mn397 O402 2.121 . S
Mn397 N404 2.257 . S
Mn397 N413 2.282 . S
Mn397 O421 2.215 . S
Mn397 O423 2.117 . S
C398 O420 1.234 . S
C398 O421 1.283 . S
C399 O411 1.281 . S
C399 O412 1.236 . S
C400 O422 1.240 . S
C400 O423 1.264 . S
O401 Mn396 2.095 . S
O401 C410 1.250 . S
O402 Mn397 2.121 . S
O402 C410 1.258 . S
C403 N404 1.326 . S
C403 C407 1.460 . S
C403 H409 0.929 . S
N404 Mn397 2.257 . S
N404 C403 1.326 . S
N404 C408 1.362 . S
C405 C406 1.258 . S
C405 C408 1.431 . S
C405 C425 1.449 . S
C406 C405 1.258 . S
C406 C407 1.477 . S
C406 H426 0.931 . S
C407 C403 1.460 . S
C407 C406 1.477 . S
C407 H427 0.930 . S
C408 N404 1.362 . S
C408 C405 1.431 . S
C408 C418 1.476 . S
H409 C403 0.929 . S
C410 O401 1.250 . S
C410 O402 1.258 . S
O411 Mn396 2.162 . S
O411 C399 1.281 . S
O412 Mn396 2.297 . S
O412 C399 1.236 . S
N413 Mn397 2.282 . S
N413 C414 1.328 . S
N413 C418 1.318 . S
C414 N413 1.328 . S
C414 C415 1.457 . S
C414 H419 0.929 . S
C415 C414 1.457 . S
C415 C416 1.291 . S
C415 H428 0.931 . S
C416 C415 1.291 . S
C416 C417 1.373 . S
C416 H429 0.929 . S
C417 C416 1.373 . S
C417 C418 1.396 . S
C417 C424 1.403 . S
C418 C408 1.476 . S
C418 N413 1.318 . S
C418 C417 1.396 . S
H419 C414 0.929 . S
O420 Mn396 2.385 . S
O420 C398 1.234 . S
O421 Mn396 2.209 . S
O421 Mn397 2.215 . S
O421 C398 1.283 . S
O422 Mn396 2.094 . S
O422 C400 1.240 . S
O423 Mn397 2.117 . S
O423 C400 1.264 . S
C424 C417 1.403 . S
C424 C425 1.399 . S
C424 H430 0.929 . S
C425 C405 1.449 . S
C425 C424 1.399 . S
C425 H431 0.930 . S
H426 C406 0.931 . S
H427 C407 0.930 . S
H428 C415 0.931 . S
H429 C416 0.929 . S
H430 C424 0.929 . S
H431 C425 0.930 . S
Mn432 O437 2.095 . S
Mn432 O447 2.162 . S
Mn432 O448 2.297 . S
Mn432 O456 2.385 . S
Mn432 O457 2.209 . S
Mn432 O458 2.094 . S
Mn433 O438 2.121 . S
Mn433 N440 2.257 . S
Mn433 N449 2.282 . S
Mn433 O457 2.215 . S
Mn433 O459 2.117 . S
C434 O456 1.234 . S
C434 O457 1.283 . S
C435 O447 1.281 . S
C435 O448 1.236 . S
C436 O458 1.240 . S
C436 O459 1.264 . S
O437 Mn432 2.095 . S
O437 C446 1.250 . S
O438 Mn433 2.121 . S
O438 C446 1.258 . S
C439 N440 1.326 . S
C439 C443 1.460 . S
C439 H445 0.929 . S
N440 Mn433 2.257 . S
N440 C439 1.326 . S
N440 C444 1.362 . S
C441 C442 1.258 . S
C441 C444 1.431 . S
C441 C461 1.449 . S
C442 C441 1.258 . S
C442 C443 1.477 . S
C442 H462 0.931 . S
C443 C439 1.460 . S
C443 C442 1.477 . S
C443 H463 0.930 . S
C444 N440 1.362 . S
C444 C441 1.431 . S
C444 C454 1.476 . S
H445 C439 0.929 . S
C446 O437 1.250 . S
C446 O438 1.258 . S
O447 Mn432 2.162 . S
O447 C435 1.281 . S
O448 Mn432 2.297 . S
O448 C435 1.236 . S
N449 Mn433 2.282 . S
N449 C450 1.328 . S
N449 C454 1.318 . S
C450 N449 1.328 . S
C450 C451 1.457 . S
C450 H455 0.929 . S
C451 C450 1.457 . S
C451 C452 1.291 . S
C451 H464 0.931 . S
C452 C451 1.291 . S
C452 C453 1.373 . S
C452 H465 0.929 . S
C453 C452 1.373 . S
C453 C454 1.396 . S
C453 C460 1.403 . S
C454 C444 1.476 . S
C454 N449 1.318 . S
C454 C453 1.396 . S
H455 C450 0.929 . S
O456 Mn432 2.385 . S
O456 C434 1.234 . S
O457 Mn432 2.209 . S
O457 Mn433 2.215 . S
O457 C434 1.283 . S
O458 Mn432 2.094 . S
O458 C436 1.240 . S
O459 Mn433 2.117 . S
O459 C436 1.264 . S
C460 C453 1.403 . S
C460 C461 1.399 . S
C460 H466 0.929 . S
C461 C441 1.449 . S
C461 C460 1.399 . S
C461 H467 0.930 . S
H462 C442 0.931 . S
H463 C443 0.930 . S
H464 C451 0.931 . S
H465 C452 0.929 . S
H466 C460 0.929 . S
H467 C461 0.930 . S
Mn468 O473 2.095 . S
Mn468 O483 2.162 . S
Mn468 O484 2.297 . S
Mn468 O492 2.385 . S
Mn468 O493 2.209 . S
Mn468 O494 2.094 . S
Mn469 O474 2.121 . S
Mn469 N476 2.257 . S
Mn469 N485 2.282 . S
Mn469 O493 2.215 . S
Mn469 O495 2.117 . S
C470 O492 1.234 . S
C470 O493 1.283 . S
C471 O483 1.281 . S
C471 O484 1.236 . S
C472 O494 1.240 . S
C472 O495 1.264 . S
O473 Mn468 2.095 . S
O473 C482 1.250 . S
O474 Mn469 2.121 . S
O474 C482 1.258 . S
C475 N476 1.326 . S
C475 C479 1.460 . S
C475 H481 0.929 . S
N476 Mn469 2.257 . S
N476 C475 1.326 . S
N476 C480 1.362 . S
C477 C478 1.258 . S
C477 C480 1.431 . S
C477 C497 1.449 . S
C478 C477 1.258 . S
C478 C479 1.477 . S
C478 H498 0.931 . S
C479 C475 1.460 . S
C479 C478 1.477 . S
C479 H499 0.930 . S
C480 N476 1.362 . S
C480 C477 1.431 . S
C480 C490 1.476 . S
H481 C475 0.929 . S
C482 O473 1.250 . S
C482 O474 1.258 . S
O483 Mn468 2.162 . S
O483 C471 1.281 . S
O484 Mn468 2.297 . S
O484 C471 1.236 . S
N485 Mn469 2.282 . S
N485 C486 1.328 . S
N485 C490 1.318 . S
C486 N485 1.328 . S
C486 C487 1.457 . S
C486 H491 0.929 . S
C487 C486 1.457 . S
C487 C488 1.291 . S
C487 H500 0.931 . S
C488 C487 1.291 . S
C488 C489 1.373 . S
C488 H501 0.929 . S
C489 C488 1.373 . S
C489 C490 1.396 . S
C489 C496 1.403 . S
C490 C480 1.476 . S
C490 N485 1.318 . S
C490 C489 1.396 . S
H491 C486 0.929 . S
O492 Mn468 2.385 . S
O492 C470 1.234 . S
O493 Mn468 2.209 . S
O493 Mn469 2.215 . S
O493 C470 1.283 . S
O494 Mn468 2.094 . S
O494 C472 1.240 . S
O495 Mn469 2.117 . S
O495 C472 1.264 . S
C496 C489 1.403 . S
C496 C497 1.399 . S
C496 H502 0.929 . S
C497 C477 1.449 . S
C497 C496 1.399 . S
C497 H503 0.930 . S
H498 C478 0.931 . S
H499 C479 0.930 . S
H500 C487 0.931 . S
H501 C488 0.929 . S
H502 C496 0.929 . S
H503 C497 0.930 . S
Mn504 O509 2.095 . S
Mn504 O519 2.162 . S
Mn504 O520 2.297 . S
Mn504 O528 2.385 . S
Mn504 O529 2.209 . S
Mn504 O530 2.094 . S
Mn505 O510 2.121 . S
Mn505 N512 2.257 . S
Mn505 N521 2.282 . S
Mn505 O529 2.215 . S
Mn505 O531 2.117 . S
C506 O528 1.234 . S
C506 O529 1.283 . S
C507 O519 1.281 . S
C507 O520 1.236 . S
C508 O530 1.240 . S
C508 O531 1.264 . S
O509 Mn504 2.095 . S
O509 C518 1.250 . S
O510 Mn505 2.121 . S
O510 C518 1.258 . S
C511 N512 1.326 . S
C511 C515 1.460 . S
C511 H517 0.929 . S
N512 Mn505 2.257 . S
N512 C511 1.326 . S
N512 C516 1.362 . S
C513 C514 1.258 . S
C513 C516 1.431 . S
C513 C533 1.449 1_545 S
C514 C513 1.258 . S
C514 C515 1.477 . S
C514 H534 0.931 . S
C515 C511 1.460 . S
C515 C514 1.477 . S
C515 H535 0.930 . S
C516 N512 1.362 . S
C516 C513 1.431 . S
C516 C526 1.476 . S
H517 C511 0.929 . S
C518 O509 1.250 . S
C518 O510 1.258 . S
O519 Mn504 2.162 . S
O519 C507 1.281 . S
O520 Mn504 2.297 . S
O520 C507 1.236 . S
N521 Mn505 2.282 . S
N521 C522 1.328 . S
N521 C526 1.318 . S
C522 N521 1.328 . S
C522 C523 1.457 . S
C522 H527 0.929 . S
C523 C522 1.457 . S
C523 C524 1.291 1_545 S
C523 H536 0.931 . S
C524 C523 1.291 1_565 S
C524 C525 1.360 1_565 S
C524 H537 0.929 . S
C525 C524 1.360 1_545 S
C525 C526 1.439 . S
C525 C532 1.375 1_545 S
C526 C516 1.476 . S
C526 N521 1.318 . S
C526 C525 1.439 . S
H527 C522 0.929 . S
O528 Mn504 2.385 . S
O528 C506 1.234 . S
O529 Mn504 2.209 . S
O529 Mn505 2.215 . S
O529 C506 1.283 . S
O530 Mn504 2.094 . S
O530 C508 1.240 . S
O531 Mn505 2.117 . S
O531 C508 1.264 . S
C532 C525 1.375 1_565 S
C532 C533 1.399 . S
C532 H538 0.929 . S
C533 C513 1.449 1_565 S
C533 C532 1.399 . S
C533 H539 0.930 . S
H534 C514 0.931 . S
H535 C515 0.930 . S
H536 C523 0.931 . S
H537 C524 0.929 . S
H538 C532 0.929 . S
H539 C533 0.930 . S
Mn540 O545 2.095 . S
Mn540 O555 2.162 . S
Mn540 O556 2.297 . S
Mn540 O564 2.385 . S
Mn540 O565 2.209 . S
Mn540 O566 2.094 . S
Mn541 O546 2.121 . S
Mn541 N548 2.257 . S
Mn541 N557 2.282 . S
Mn541 O565 2.215 . S
Mn541 O567 2.117 . S
C542 O564 1.234 . S
C542 O565 1.283 . S
C543 O555 1.281 . S
C543 O556 1.236 . S
C544 O566 1.240 . S
C544 O567 1.264 . S
O545 Mn540 2.095 . S
O545 C554 1.250 . S
O546 Mn541 2.121 . S
O546 C554 1.258 . S
C547 N548 1.326 . S
C547 C551 1.460 . S
C547 H553 0.929 . S
N548 Mn541 2.257 . S
N548 C547 1.326 . S
N548 C552 1.362 . S
C549 C550 1.258 . S
C549 C552 1.431 . S
C549 C569 1.449 1_655 S
C550 C549 1.258 . S
C550 C551 1.477 . S
C550 H570 0.931 . S
C551 C547 1.460 . S
C551 C550 1.477 . S
C551 H571 0.930 . S
C552 N548 1.362 . S
C552 C549 1.431 . S
C552 C562 1.476 . S
H553 C547 0.929 . S
C554 O545 1.250 . S
C554 O546 1.258 . S
O555 Mn540 2.162 . S
O555 C543 1.281 . S
O556 Mn540 2.297 . S
O556 C543 1.236 . S
N557 Mn541 2.282 . S
N557 C558 1.328 . S
N557 C562 1.318 . S
C558 N557 1.328 . S
C558 C559 1.457 . S
C558 H563 0.929 . S
C559 C558 1.457 . S
C559 C560 1.291 1_655 S
C559 H572 0.931 . S
C560 C559 1.291 1_455 S
C560 C561 1.373 1_455 S
C560 H573 0.929 . S
C561 C560 1.373 1_655 S
C561 C562 1.396 . S
C561 C568 1.403 1_655 S
C562 C552 1.476 . S
C562 N557 1.318 . S
C562 C561 1.396 . S
H563 C558 0.929 . S
O564 Mn540 2.385 . S
O564 C542 1.234 . S
O565 Mn540 2.209 . S
O565 Mn541 2.215 . S
O565 C542 1.283 . S
O566 Mn540 2.094 . S
O566 C544 1.240 . S
O567 Mn541 2.117 . S
O567 C544 1.264 . S
C568 C561 1.403 1_455 S
C568 C569 1.399 . S
C568 H574 0.929 . S
C569 C549 1.449 1_455 S
C569 C568 1.399 . S
C569 H575 0.930 . S
H570 C550 0.931 . S
H571 C551 0.930 . S
H572 C559 0.931 . S
H573 C560 0.929 . S
H574 C568 0.929 . S
H575 C569 0.930 . S
Mn576 O581 2.095 . S
Mn576 O591 2.162 . S
Mn576 O592 2.297 . S
Mn576 O600 2.385 . S
Mn576 O601 2.209 . S
Mn576 O602 2.094 . S
Mn577 O582 2.121 . S
Mn577 N584 2.257 . S
Mn577 N593 2.282 . S
Mn577 O601 2.215 . S
Mn577 O603 2.117 . S
C578 O600 1.234 . S
C578 O601 1.283 . S
C579 O591 1.281 . S
C579 O592 1.236 . S
C580 O602 1.240 . S
C580 O603 1.264 . S
O581 Mn576 2.095 . S
O581 C590 1.250 . S
O582 Mn577 2.121 . S
O582 C590 1.258 . S
C583 N584 1.326 . S
C583 C587 1.460 . S
C583 H589 0.929 . S
N584 Mn577 2.257 . S
N584 C583 1.326 . S
N584 C588 1.362 . S
C585 C586 1.258 . S
C585 C588 1.431 . S
C585 C605 1.449 1_554 S
C586 C585 1.258 . S
C586 C587 1.477 . S
C586 H606 0.931 . S
C587 C583 1.460 . S
C587 C586 1.477 . S
C587 H607 0.930 . S
C588 N584 1.362 . S
C588 C585 1.431 . S
C588 C598 1.476 . S
H589 C583 0.929 . S
C590 O581 1.250 . S
C590 O582 1.258 . S
O591 Mn576 2.162 . S
O591 C579 1.281 . S
O592 Mn576 2.297 . S
O592 C579 1.236 . S
N593 Mn577 2.282 . S
N593 C594 1.328 . S
N593 C598 1.318 . S
C594 N593 1.328 . S
C594 C595 1.457 . S
C594 H599 0.929 . S
C595 C594 1.457 . S
C595 C596 1.291 1_554 S
C595 H608 0.931 . S
C596 C595 1.291 1_556 S
C596 C597 1.373 1_556 S
C596 H609 0.929 . S
C597 C596 1.373 1_554 S
C597 C598 1.396 . S
C597 C604 1.403 1_554 S
C598 C588 1.476 . S
C598 N593 1.318 . S
C598 C597 1.396 . S
H599 C594 0.929 . S
O600 Mn576 2.385 . S
O600 C578 1.234 . S
O601 Mn576 2.209 . S
O601 Mn577 2.215 . S
O601 C578 1.283 . S
O602 Mn576 2.094 . S
O602 C580 1.240 . S
O603 Mn577 2.117 . S
O603 C580 1.264 . S
C604 C597 1.403 1_556 S
C604 C605 1.399 . S
C604 H610 0.929 . S
C605 C585 1.449 1_556 S
C605 C604 1.399 . S
C605 H611 0.930 . S
H606 C586 0.931 . S
H607 C587 0.930 . S
H608 C595 0.931 . S
H609 C596 0.929 . S
H610 C604 0.929 . S
H611 C605 0.930 . S
Mn612 O617 2.095 . S
Mn612 O627 2.162 . S
Mn612 O628 2.297 . S
Mn612 O636 2.385 . S
Mn612 O637 2.209 . S
Mn612 O638 2.094 . S
Mn613 O618 2.121 . S
Mn613 N620 2.257 . S
Mn613 N629 2.282 . S
Mn613 O637 2.215 . S
Mn613 O639 2.117 . S
C614 O636 1.234 . S
C614 O637 1.283 . S
C615 O627 1.281 . S
C615 O628 1.236 . S
C616 O638 1.240 . S
C616 O639 1.264 . S
O617 Mn612 2.095 . S
O617 C626 1.250 . S
O618 Mn613 2.121 . S
O618 C626 1.258 . S
C619 N620 1.326 . S
C619 C623 1.460 . S
C619 H625 0.929 . S
N620 Mn613 2.257 . S
N620 C619 1.326 . S
N620 C624 1.362 . S
C621 C622 1.258 . S
C621 C624 1.431 . S
C621 C641 1.449 . S
C622 C621 1.258 . S
C622 C623 1.477 . S
C622 H642 0.931 . S
C623 C619 1.460 . S
C623 C622 1.477 . S
C623 H643 0.930 . S
C624 N620 1.362 . S
C624 C621 1.431 . S
C624 C634 1.476 . S
H625 C619 0.929 . S
C626 O617 1.250 . S
C626 O618 1.258 . S
O627 Mn612 2.162 . S
O627 C615 1.281 . S
O628 Mn612 2.297 . S
O628 C615 1.236 . S
N629 Mn613 2.282 . S
N629 C630 1.328 . S
N629 C634 1.318 . S
C630 N629 1.328 . S
C630 C631 1.457 . S
C630 H635 0.929 . S
C631 C630 1.457 . S
C631 C632 1.291 . S
C631 H644 0.931 . S
C632 C631 1.291 . S
C632 C633 1.373 . S
C632 H645 0.929 . S
C633 C632 1.373 . S
C633 C634 1.396 . S
C633 C640 1.403 . S
C634 C624 1.476 . S
C634 N629 1.318 . S
C634 C633 1.396 . S
H635 C630 0.929 . S
O636 Mn612 2.385 . S
O636 C614 1.234 . S
O637 Mn612 2.209 . S
O637 Mn613 2.215 . S
O637 C614 1.283 . S
O638 Mn612 2.094 . S
O638 C616 1.240 . S
O639 Mn613 2.117 . S
O639 C616 1.264 . S
C640 C633 1.403 . S
C640 C641 1.399 . S
C640 H646 0.929 . S
C641 C621 1.449 . S
C641 C640 1.399 . S
C641 H647 0.930 . S
H642 C622 0.931 . S
H643 C623 0.930 . S
H644 C631 0.931 . S
H645 C632 0.929 . S
H646 C640 0.929 . S
H647 C641 0.930 . S
Mn648 O653 2.095 . S
Mn648 O663 2.162 . S
Mn648 O664 2.297 . S
Mn648 O672 2.385 . S
Mn648 O673 2.209 . S
Mn648 O674 2.094 . S
Mn649 O654 2.121 . S
Mn649 N656 2.257 . S
Mn649 N665 2.282 . S
Mn649 O673 2.215 . S
Mn649 O675 2.117 . S
C650 O672 1.234 . S
C650 O673 1.283 . S
C651 O663 1.281 . S
C651 O664 1.236 . S
C652 O674 1.240 . S
C652 O675 1.264 . S
O653 Mn648 2.095 . S
O653 C662 1.250 . S
O654 Mn649 2.121 . S
O654 C662 1.258 . S
C655 N656 1.326 . S
C655 C659 1.460 . S
C655 H661 0.929 . S
N656 Mn649 2.257 . S
N656 C655 1.326 . S
N656 C660 1.362 . S
C657 C658 1.258 . S
C657 C660 1.431 . S
C657 C677 1.449 1_556 S
C658 C657 1.258 . S
C658 C659 1.477 . S
C658 H678 0.931 . S
C659 C655 1.460 . S
C659 C658 1.477 . S
C659 H679 0.930 . S
C660 N656 1.362 . S
C660 C657 1.431 . S
C660 C670 1.476 . S
H661 C655 0.929 . S
C662 O653 1.250 . S
C662 O654 1.258 . S
O663 Mn648 2.162 . S
O663 C651 1.281 . S
O664 Mn648 2.297 . S
O664 C651 1.236 . S
N665 Mn649 2.282 . S
N665 C666 1.328 . S
N665 C670 1.318 . S
C666 N665 1.328 . S
C666 C667 1.457 . S
C666 H671 0.929 . S
C667 C666 1.457 . S
C667 C668 1.291 1_556 S
C667 H680 0.931 . S
C668 C667 1.291 1_554 S
C668 C669 1.373 1_554 S
C668 H681 0.929 . S
C669 C668 1.373 1_556 S
C669 C670 1.396 . S
C669 C676 1.403 1_556 S
C670 C660 1.476 . S
C670 N665 1.318 . S
C670 C669 1.396 . S
H671 C666 0.929 . S
O672 Mn648 2.385 . S
O672 C650 1.234 . S
O673 Mn648 2.209 . S
O673 Mn649 2.215 . S
O673 C650 1.283 . S
O674 Mn648 2.094 . S
O674 C652 1.240 . S
O675 Mn649 2.117 . S
O675 C652 1.264 . S
C676 C669 1.403 1_554 S
C676 C677 1.399 . S
C676 H682 0.929 . S
C677 C657 1.449 1_554 S
C677 C676 1.399 . S
C677 H683 0.930 . S
H678 C658 0.931 . S
H679 C659 0.930 . S
H680 C667 0.931 . S
H681 C668 0.929 . S
H682 C676 0.929 . S
H683 C677 0.930 . S
Mn684 O689 2.095 . S
Mn684 O699 2.162 . S
Mn684 O700 2.297 . S
Mn684 O708 2.385 . S
Mn684 O709 2.209 . S
Mn684 O710 2.094 . S
Mn685 O690 2.121 . S
Mn685 N692 2.257 . S
Mn685 N701 2.282 . S
Mn685 O709 2.215 . S
Mn685 O711 2.117 . S
C686 O708 1.234 . S
C686 O709 1.283 . S
C687 O699 1.281 . S
C687 O700 1.236 . S
C688 O710 1.240 . S
C688 O711 1.264 . S
O689 Mn684 2.095 . S
O689 C698 1.250 . S
O690 Mn685 2.121 . S
O690 C698 1.258 . S
C691 N692 1.326 . S
C691 C695 1.460 . S
C691 H697 0.929 . S
N692 Mn685 2.257 . S
N692 C691 1.326 . S
N692 C696 1.362 . S
C693 C694 1.258 . S
C693 C696 1.431 . S
C693 C713 1.449 . S
C694 C693 1.258 . S
C694 C695 1.477 . S
C694 H714 0.931 . S
C695 C691 1.460 . S
C695 C694 1.477 . S
C695 H715 0.930 . S
C696 N692 1.362 . S
C696 C693 1.431 . S
C696 C706 1.476 . S
H697 C691 0.929 . S
C698 O689 1.250 . S
C698 O690 1.258 . S
O699 Mn684 2.162 . S
O699 C687 1.281 . S
O700 Mn684 2.297 . S
O700 C687 1.236 . S
N701 Mn685 2.282 . S
N701 C702 1.328 . S
N701 C706 1.318 . S
C702 N701 1.328 . S
C702 C703 1.457 . S
C702 H707 0.929 . S
C703 C702 1.457 . S
C703 C704 1.291 . S
C703 H716 0.931 . S
C704 C703 1.291 . S
C704 C705 1.373 . S
C704 H717 0.929 . S
C705 C704 1.373 . S
C705 C706 1.396 . S
C705 C712 1.403 . S
C706 C696 1.476 . S
C706 N701 1.318 . S
C706 C705 1.396 . S
H707 C702 0.929 . S
O708 Mn684 2.385 . S
O708 C686 1.234 . S
O709 Mn684 2.209 . S
O709 Mn685 2.215 . S
O709 C686 1.283 . S
O710 Mn684 2.094 . S
O710 C688 1.240 . S
O711 Mn685 2.117 . S
O711 C688 1.264 . S
C712 C705 1.403 . S
C712 C713 1.399 . S
C712 H718 0.929 . S
C713 C693 1.449 . S
C713 C712 1.399 . S
C713 H719 0.930 . S
H714 C694 0.931 . S
H715 C695 0.930 . S
H716 C703 0.931 . S
H717 C704 0.929 . S
H718 C712 0.929 . S
H719 C713 0.930 . S
Mn720 O725 2.095 . S
Mn720 O735 2.162 . S
Mn720 O736 2.297 . S
Mn720 O744 2.385 . S
Mn720 O745 2.209 . S
Mn720 O746 2.094 . S
Mn721 O726 2.121 . S
Mn721 N728 2.257 . S
Mn721 N737 2.282 . S
Mn721 O745 2.215 . S
Mn721 O747 2.117 . S
C722 O744 1.234 . S
C722 O745 1.283 . S
C723 O735 1.281 . S
C723 O736 1.236 . S
C724 O746 1.240 . S
C724 O747 1.264 . S
O725 Mn720 2.095 . S
O725 C734 1.250 . S
O726 Mn721 2.121 . S
O726 C734 1.258 . S
C727 N728 1.326 . S
C727 C731 1.460 . S
C727 H733 0.929 . S
N728 Mn721 2.257 . S
N728 C727 1.326 . S
N728 C732 1.362 . S
C729 C730 1.258 . S
C729 C732 1.431 . S
C729 C749 1.445 1_556 S
C730 C729 1.258 . S
C730 C731 1.477 . S
C730 H750 0.931 . S
C731 C727 1.460 . S
C731 C730 1.477 . S
C731 H751 0.930 . S
C732 N728 1.362 . S
C732 C729 1.431 . S
C732 C742 1.476 . S
H733 C727 0.929 . S
C734 O725 1.250 . S
C734 O726 1.258 . S
O735 Mn720 2.162 . S
O735 C723 1.281 . S
O736 Mn720 2.297 . S
O736 C723 1.236 . S
N737 Mn721 2.282 . S
N737 C738 1.328 . S
N737 C742 1.318 . S
C738 N737 1.328 . S
C738 C739 1.457 . S
C738 H743 0.929 . S
C739 C738 1.457 . S
C739 C740 1.291 1_556 S
C739 H752 0.931 . S
C740 C739 1.291 1_554 S
C740 C741 1.373 1_554 S
C740 H753 0.929 . S
C741 C740 1.373 1_556 S
C741 C742 1.396 . S
C741 C748 1.403 1_556 S
C742 C732 1.476 . S
C742 N737 1.318 . S
C742 C741 1.396 . S
H743 C738 0.929 . S
O744 Mn720 2.385 . S
O744 C722 1.234 . S
O745 Mn720 2.209 . S
O745 Mn721 2.215 . S
O745 C722 1.283 . S
O746 Mn720 2.094 . S
O746 C724 1.240 . S
O747 Mn721 2.117 . S
O747 C724 1.264 . S
C748 C741 1.403 1_554 S
C748 C749 1.401 . S
C748 H754 0.929 . S
C749 C729 1.445 1_554 S
C749 C748 1.401 . S
C749 H755 0.932 . S
H750 C730 0.931 . S
H751 C731 0.930 . S
H752 C739 0.931 . S
H753 C740 0.929 . S
H754 C748 0.929 . S
H755 C749 0.932 . S
Mn756 O761 2.095 . S
Mn756 O771 2.162 . S
Mn756 O772 2.297 . S
Mn756 O780 2.385 . S
Mn756 O781 2.209 . S
Mn756 O782 2.094 . S
Mn757 O762 2.121 . S
Mn757 N764 2.257 . S
Mn757 N773 2.282 . S
Mn757 O781 2.215 . S
Mn757 O783 2.117 . S
C758 O780 1.234 . S
C758 O781 1.283 . S
C759 O771 1.281 . S
C759 O772 1.236 . S
C760 O782 1.240 . S
C760 O783 1.264 . S
O761 Mn756 2.095 . S
O761 C770 1.250 . S
O762 Mn757 2.121 . S
O762 C770 1.258 . S
C763 N764 1.326 . S
C763 C767 1.460 . S
C763 H769 0.929 . S
N764 Mn757 2.257 . S
N764 C763 1.326 . S
N764 C768 1.362 . S
C765 C766 1.258 . S
C765 C768 1.431 . S
C765 C785 1.449 1_554 S
C766 C765 1.258 . S
C766 C767 1.477 . S
C766 H786 0.931 . S
C767 C763 1.460 . S
C767 C766 1.477 . S
C767 H787 0.930 . S
C768 N764 1.362 . S
C768 C765 1.431 . S
C768 C778 1.476 . S
H769 C763 0.929 . S
C770 O761 1.250 . S
C770 O762 1.258 . S
O771 Mn756 2.162 . S
O771 C759 1.281 . S
O772 Mn756 2.297 . S
O772 C759 1.236 . S
N773 Mn757 2.282 . S
N773 C774 1.328 . S
N773 C778 1.318 . S
C774 N773 1.328 . S
C774 C775 1.457 . S
C774 H779 0.929 . S
C775 C774 1.457 . S
C775 C776 1.291 1_554 S
C775 H788 0.931 . S
C776 C775 1.291 1_556 S
C776 C777 1.373 1_556 S
C776 H789 0.929 . S
C777 C776 1.373 1_554 S
C777 C778 1.396 . S
C777 C784 1.403 1_554 S
C778 C768 1.476 . S
C778 N773 1.318 . S
C778 C777 1.396 . S
H779 C774 0.929 . S
O780 Mn756 2.385 . S
O780 C758 1.234 . S
O781 Mn756 2.209 . S
O781 Mn757 2.215 . S
O781 C758 1.283 . S
O782 Mn756 2.094 . S
O782 C760 1.240 . S
O783 Mn757 2.117 . S
O783 C760 1.264 . S
C784 C777 1.403 1_556 S
C784 C785 1.399 . S
C784 H790 0.929 . S
C785 C765 1.449 1_556 S
C785 C784 1.399 . S
C785 H791 0.930 . S
H786 C766 0.931 . S
H787 C767 0.930 . S
H788 C775 0.931 . S
H789 C776 0.929 . S
H790 C784 0.929 . S
H791 C785 0.930 . S
Mn792 O797 2.095 . S
Mn792 O807 2.162 . S
Mn792 O808 2.297 . S
Mn792 O816 2.385 . S
Mn792 O817 2.209 . S
Mn792 O818 2.094 . S
Mn793 O798 2.121 . S
Mn793 N800 2.257 . S
Mn793 N809 2.282 . S
Mn793 O817 2.215 . S
Mn793 O819 2.117 . S
C794 O816 1.234 . S
C794 O817 1.283 . S
C795 O807 1.281 . S
C795 O808 1.236 . S
C796 O818 1.240 . S
C796 O819 1.264 . S
O797 Mn792 2.095 . S
O797 C806 1.250 . S
O798 Mn793 2.121 . S
O798 C806 1.258 . S
C799 N800 1.326 . S
C799 C803 1.460 . S
C799 H805 0.929 . S
N800 Mn793 2.257 . S
N800 C799 1.326 . S
N800 C804 1.362 . S
C801 C802 1.258 . S
C801 C804 1.431 . S
C801 C821 1.449 . S
C802 C801 1.258 . S
C802 C803 1.477 . S
C802 H822 0.931 . S
C803 C799 1.460 . S
C803 C802 1.477 . S
C803 H823 0.930 . S
C804 N800 1.362 . S
C804 C801 1.431 . S
C804 C814 1.476 . S
H805 C799 0.929 . S
C806 O797 1.250 . S
C806 O798 1.258 . S
O807 Mn792 2.162 . S
O807 C795 1.281 . S
O808 Mn792 2.297 . S
O808 C795 1.236 . S
N809 Mn793 2.282 . S
N809 C810 1.328 . S
N809 C814 1.318 . S
C810 N809 1.328 . S
C810 C811 1.457 . S
C810 H815 0.929 . S
C811 C810 1.457 . S
C811 C812 1.291 . S
C811 H824 0.931 . S
C812 C811 1.291 . S
C812 C813 1.373 . S
C812 H825 0.929 . S
C813 C812 1.373 . S
C813 C814 1.396 . S
C813 C820 1.403 . S
C814 C804 1.476 . S
C814 N809 1.318 . S
C814 C813 1.396 . S
H815 C810 0.929 . S
O816 Mn792 2.385 . S
O816 C794 1.234 . S
O817 Mn792 2.209 . S
O817 Mn793 2.215 . S
O817 C794 1.283 . S
O818 Mn792 2.094 . S
O818 C796 1.240 . S
O819 Mn793 2.117 . S
O819 C796 1.264 . S
C820 C813 1.403 . S
C820 C821 1.399 . S
C820 H826 0.929 . S
C821 C801 1.449 . S
C821 C820 1.399 . S
C821 H827 0.930 . S
H822 C802 0.931 . S
H823 C803 0.930 . S
H824 C811 0.931 . S
H825 C812 0.929 . S
H826 C820 0.929 . S
H827 C821 0.930 . S
Mn828 O833 2.095 . S
Mn828 O843 2.162 . S
Mn828 O844 2.297 . S
Mn828 O852 2.385 . S
Mn828 O853 2.209 . S
Mn828 O854 2.094 . S
Mn829 O834 2.121 . S
Mn829 N836 2.257 . S
Mn829 N845 2.282 . S
Mn829 O853 2.215 . S
Mn829 O855 2.117 . S
C830 O852 1.234 . S
C830 O853 1.283 . S
C831 O843 1.281 . S
C831 O844 1.236 . S
C832 O854 1.240 . S
C832 O855 1.264 . S
O833 Mn828 2.095 . S
O833 C842 1.250 . S
O834 Mn829 2.121 . S
O834 C842 1.258 . S
C835 N836 1.326 . S
C835 C839 1.460 . S
C835 H841 0.929 . S
N836 Mn829 2.257 . S
N836 C835 1.326 . S
N836 C840 1.362 . S
C837 C838 1.258 . S
C837 C840 1.431 . S
C837 C857 1.449 . S
C838 C837 1.258 . S
C838 C839 1.477 . S
C838 H858 0.931 . S
C839 C835 1.460 . S
C839 C838 1.477 . S
C839 H859 0.930 . S
C840 N836 1.362 . S
C840 C837 1.431 . S
C840 C850 1.476 . S
H841 C835 0.929 . S
C842 O833 1.250 . S
C842 O834 1.258 . S
O843 Mn828 2.162 . S
O843 C831 1.281 . S
O844 Mn828 2.297 . S
O844 C831 1.236 . S
N845 Mn829 2.282 . S
N845 C846 1.328 . S
N845 C850 1.318 . S
C846 N845 1.328 . S
C846 C847 1.457 . S
C846 H851 0.929 . S
C847 C846 1.457 . S
C847 C848 1.291 . S
C847 H860 0.931 . S
C848 C847 1.291 . S
C848 C849 1.373 . S
C848 H861 0.929 . S
C849 C848 1.373 . S
C849 C850 1.396 . S
C849 C856 1.403 . S
C850 C840 1.476 . S
C850 N845 1.318 . S
C850 C849 1.396 . S
H851 C846 0.929 . S
O852 Mn828 2.385 . S
O852 C830 1.234 . S
O853 Mn828 2.209 . S
O853 Mn829 2.215 . S
O853 C830 1.283 . S
O854 Mn828 2.094 . S
O854 C832 1.240 . S
O855 Mn829 2.117 . S
O855 C832 1.264 . S
C856 C849 1.403 . S
C856 C857 1.399 . S
C856 H862 0.929 . S
C857 C837 1.449 . S
C857 C856 1.399 . S
C857 H863 0.930 . S
H858 C838 0.931 . S
H859 C839 0.930 . S
H860 C847 0.931 . S
H861 C848 0.929 . S
H862 C856 0.929 . S
H863 C857 0.930 . S
Mn864 O869 2.095 . S
Mn864 O879 2.162 . S
Mn864 O880 2.297 . S
Mn864 O888 2.385 . S
Mn864 O889 2.209 . S
Mn864 O890 2.094 . S
Mn865 O870 2.121 . S
Mn865 N872 2.257 . S
Mn865 N881 2.282 . S
Mn865 O889 2.215 . S
Mn865 O891 2.117 . S
C866 O888 1.234 . S
C866 O889 1.283 . S
C867 O879 1.281 . S
C867 O880 1.236 . S
C868 O890 1.240 . S
C868 O891 1.264 . S
O869 Mn864 2.095 . S
O869 C878 1.250 . S
O870 Mn865 2.121 . S
O870 C878 1.258 . S
C871 N872 1.326 . S
C871 C875 1.460 . S
C871 H877 0.929 . S
N872 Mn865 2.257 . S
N872 C871 1.326 . S
N872 C876 1.362 . S
C873 C874 1.258 . S
C873 C876 1.431 . S
C873 C893 1.449 . S
C874 C873 1.258 . S
C874 C875 1.477 . S
C874 H894 0.931 . S
C875 C871 1.460 . S
C875 C874 1.477 . S
C875 H895 0.930 . S
C876 N872 1.362 . S
C876 C873 1.431 . S
C876 C886 1.476 . S
H877 C871 0.929 . S
C878 O869 1.250 . S
C878 O870 1.258 . S
O879 Mn864 2.162 . S
O879 C867 1.281 . S
O880 Mn864 2.297 . S
O880 C867 1.236 . S
N881 Mn865 2.282 . S
N881 C882 1.328 . S
N881 C886 1.318 . S
C882 N881 1.328 . S
C882 C883 1.457 . S
C882 H887 0.929 . S
C883 C882 1.457 . S
C883 C884 1.291 . S
C883 H896 0.931 . S
C884 C883 1.291 . S
C884 C885 1.373 . S
C884 H897 0.929 . S
C885 C884 1.373 . S
C885 C886 1.396 . S
C885 C892 1.403 . S
C886 C876 1.476 . S
C886 N881 1.318 . S
C886 C885 1.396 . S
H887 C882 0.929 . S
O888 Mn864 2.385 . S
O888 C866 1.234 . S
O889 Mn864 2.209 . S
O889 Mn865 2.215 . S
O889 C866 1.283 . S
O890 Mn864 2.094 . S
O890 C868 1.240 . S
O891 Mn865 2.117 . S
O891 C868 1.264 . S
C892 C885 1.403 . S
C892 C893 1.399 . S
C892 H898 0.929 . S
C893 C873 1.449 . S
C893 C892 1.399 . S
C893 H899 0.930 . S
H894 C874 0.931 . S
H895 C875 0.930 . S
H896 C883 0.931 . S
H897 C884 0.929 . S
H898 C892 0.929 . S
H899 C893 0.930 . S
Mn900 O905 2.095 . S
Mn900 O915 2.162 . S
Mn900 O916 2.297 . S
Mn900 O924 2.385 . S
Mn900 O925 2.209 . S
Mn900 O926 2.094 . S
Mn901 O906 2.121 . S
Mn901 N908 2.257 . S
Mn901 N917 2.282 . S
Mn901 O925 2.215 . S
Mn901 O927 2.117 . S
C902 O924 1.234 . S
C902 O925 1.283 . S
C903 O915 1.281 . S
C903 O916 1.236 . S
C904 O926 1.240 . S
C904 O927 1.264 . S
O905 Mn900 2.095 . S
O905 C914 1.250 . S
O906 Mn901 2.121 . S
O906 C914 1.258 . S
C907 N908 1.326 . S
C907 C911 1.460 . S
C907 H913 0.929 . S
N908 Mn901 2.257 . S
N908 C907 1.326 . S
N908 C912 1.362 . S
C909 C910 1.258 . S
C909 C912 1.431 . S
C909 C929 1.449 . S
C910 C909 1.258 . S
C910 C911 1.477 . S
C910 H930 0.931 . S
C911 C907 1.460 . S
C911 C910 1.477 . S
C911 H931 0.930 . S
C912 N908 1.362 . S
C912 C909 1.431 . S
C912 C922 1.476 . S
H913 C907 0.929 . S
C914 O905 1.250 . S
C914 O906 1.258 . S
O915 Mn900 2.162 . S
O915 C903 1.281 . S
O916 Mn900 2.297 . S
O916 C903 1.236 . S
N917 Mn901 2.282 . S
N917 C918 1.328 . S
N917 C922 1.318 . S
C918 N917 1.328 . S
C918 C919 1.457 . S
C918 H923 0.929 . S
C919 C918 1.457 . S
C919 C920 1.298 . S
C919 H932 0.931 . S
C920 C919 1.298 . S
C920 C921 1.376 . S
C920 H933 0.920 1_565 S
C921 C920 1.376 . S
C921 C922 1.396 . S
C921 C928 1.403 1_565 S
C922 C912 1.476 . S
C922 N917 1.318 . S
C922 C921 1.396 . S
H923 C918 0.929 . S
O924 Mn900 2.385 . S
O924 C902 1.234 . S
O925 Mn900 2.209 . S
O925 Mn901 2.215 . S
O925 C902 1.283 . S
O926 Mn900 2.094 . S
O926 C904 1.240 . S
O927 Mn901 2.117 . S
O927 C904 1.264 . S
C928 C921 1.403 1_545 S
C928 C929 1.399 1_545 S
C928 H934 0.929 . S
C929 C909 1.449 . S
C929 C928 1.399 1_565 S
C929 H935 0.930 1_565 S
H930 C910 0.931 . S
H931 C911 0.930 . S
H932 C919 0.931 . S
H933 C920 0.920 1_545 S
H934 C928 0.929 . S
H935 C929 0.930 1_545 S
Mn936 O941 2.095 . S
Mn936 O951 2.162 . S
Mn936 O952 2.297 . S
Mn936 O960 2.385 . S
Mn936 O961 2.209 . S
Mn936 O962 2.094 . S
Mn937 O942 2.121 . S
Mn937 N944 2.257 . S
Mn937 N953 2.282 . S
Mn937 O961 2.215 . S
Mn937 O963 2.117 . S
C938 O960 1.234 . S
C938 O961 1.283 . S
C939 O951 1.281 . S
C939 O952 1.236 . S
C940 O962 1.240 . S
C940 O963 1.264 . S
O941 Mn936 2.095 . S
O941 C950 1.250 . S
O942 Mn937 2.121 . S
O942 C950 1.258 . S
C943 N944 1.326 . S
C943 C947 1.460 . S
C943 H949 0.929 . S
N944 Mn937 2.257 . S
N944 C943 1.326 . S
N944 C948 1.362 . S
C945 C946 1.258 . S
C945 C948 1.431 . S
C945 C965 1.449 . S
C946 C945 1.258 . S
C946 C947 1.477 . S
C946 H966 0.931 . S
C947 C943 1.460 . S
C947 C946 1.477 . S
C947 H967 0.930 . S
C948 N944 1.362 . S
C948 C945 1.431 . S
C948 C958 1.476 . S
H949 C943 0.929 . S
C950 O941 1.250 . S
C950 O942 1.258 . S
O951 Mn936 2.162 . S
O951 C939 1.281 . S
O952 Mn936 2.297 . S
O952 C939 1.236 . S
N953 Mn937 2.282 . S
N953 C954 1.328 . S
N953 C958 1.318 . S
C954 N953 1.328 . S
C954 C955 1.457 . S
C954 H959 0.929 . S
C955 C954 1.457 . S
C955 C956 1.291 . S
C955 H968 0.931 . S
C956 C955 1.291 . S
C956 C957 1.373 . S
C956 H969 0.929 . S
C957 C956 1.373 . S
C957 C958 1.396 . S
C957 C964 1.403 . S
C958 C948 1.476 . S
C958 N953 1.318 . S
C958 C957 1.396 . S
H959 C954 0.929 . S
O960 Mn936 2.385 . S
O960 C938 1.234 . S
O961 Mn936 2.209 . S
O961 Mn937 2.215 . S
O961 C938 1.283 . S
O962 Mn936 2.094 . S
O962 C940 1.240 . S
O963 Mn937 2.117 . S
O963 C940 1.264 . S
C964 C957 1.403 . S
C964 C965 1.399 . S
C964 H970 0.929 . S
C965 C945 1.449 . S
C965 C964 1.399 . S
C965 H971 0.930 . S
H966 C946 0.931 . S
H967 C947 0.930 . S
H968 C955 0.931 . S
H969 C956 0.929 . S
H970 C964 0.929 . S
H971 C965 0.930 . S
Mn972 O977 2.095 . S
Mn972 O987 2.162 . S
Mn972 O988 2.297 . S
Mn972 O996 2.385 . S
Mn972 O997 2.209 . S
Mn972 O998 2.094 . S
Mn973 O978 2.121 . S
Mn973 N980 2.257 . S
Mn973 N989 2.282 . S
Mn973 O997 2.215 . S
Mn973 O999 2.117 . S
C974 O996 1.234 . S
C974 O997 1.283 . S
C975 O987 1.281 . S
C975 O988 1.236 . S
C976 O998 1.240 . S
C976 O999 1.264 . S
O977 Mn972 2.095 . S
O977 C986 1.250 . S
O978 Mn973 2.121 . S
O978 C986 1.258 . S
C979 N980 1.326 . S
C979 C983 1.460 . S
C979 H985 0.929 . S
N980 Mn973 2.257 . S
N980 C979 1.326 . S
N980 C984 1.362 . S
C981 C982 1.258 . S
C981 C984 1.431 . S
C981 C1001 1.442 1_545 S
C982 C981 1.258 . S
C982 C983 1.477 . S
C982 H1002 0.931 . S
C983 C979 1.460 . S
C983 C982 1.477 . S
C983 H1003 0.930 . S
C984 N980 1.362 . S
C984 C981 1.431 . S
C984 C994 1.476 . S
H985 C979 0.929 . S
C986 O977 1.250 . S
C986 O978 1.258 . S
O987 Mn972 2.162 . S
O987 C975 1.281 . S
O988 Mn972 2.297 . S
O988 C975 1.236 . S
N989 Mn973 2.282 . S
N989 C990 1.328 . S
N989 C994 1.318 . S
C990 N989 1.328 . S
C990 C991 1.457 . S
C990 H995 0.929 . S
C991 C990 1.457 . S
C991 C992 1.291 1_545 S
C991 H1004 0.931 . S
C992 C991 1.291 1_565 S
C992 C993 1.373 1_565 S
C992 H1005 0.929 . S
C993 C992 1.373 1_545 S
C993 C994 1.396 . S
C993 C1000 1.403 1_545 S
C994 C984 1.476 . S
C994 N989 1.318 . S
C994 C993 1.396 . S
H995 C990 0.929 . S
O996 Mn972 2.385 . S
O996 C974 1.234 . S
O997 Mn972 2.209 . S
O997 Mn973 2.215 . S
O997 C974 1.283 . S
O998 Mn972 2.094 . S
O998 C976 1.240 . S
O999 Mn973 2.117 . S
O999 C976 1.264 . S
C1000 C993 1.403 1_565 S
C1000 C1001 1.402 . S
C1000 H1006 0.929 . S
C1001 C981 1.442 1_565 S
C1001 C1000 1.402 . S
C1001 H1007 0.934 . S
H1002 C982 0.931 . S
H1003 C983 0.930 . S
H1004 C991 0.931 . S
H1005 C992 0.929 . S
H1006 C1000 0.929 . S
H1007 C1001 0.934 . S
Mn1008 O1013 2.095 . S
Mn1008 O1023 2.162 . S
Mn1008 O1024 2.297 . S
Mn1008 O1032 2.385 . S
Mn1008 O1033 2.209 . S
Mn1008 O1034 2.094 . S
Mn1009 O1014 2.121 . S
Mn1009 N1016 2.257 . S
Mn1009 N1025 2.282 . S
Mn1009 O1033 2.215 . S
Mn1009 O1035 2.117 . S
C1010 O1032 1.234 . S
C1010 O1033 1.283 . S
C1011 O1023 1.281 . S
C1011 O1024 1.236 . S
C1012 O1034 1.240 . S
C1012 O1035 1.264 . S
O1013 Mn1008 2.095 . S
O1013 C1022 1.250 . S
O1014 Mn1009 2.121 . S
O1014 C1022 1.258 . S
C1015 N1016 1.326 . S
C1015 C1019 1.460 . S
C1015 H1021 0.929 . S
N1016 Mn1009 2.257 . S
N1016 C1015 1.326 . S
N1016 C1020 1.362 . S
C1017 C1018 1.258 . S
C1017 C1020 1.431 . S
C1017 C1037 1.466 . S
C1018 C1017 1.258 . S
C1018 C1019 1.477 . S
C1018 H1038 0.931 . S
C1019 C1015 1.460 . S
C1019 C1018 1.477 . S
C1019 H1039 0.930 . S
C1020 N1016 1.362 . S
C1020 C1017 1.431 . S
C1020 C1030 1.476 . S
H1021 C1015 0.929 . S
C1022 O1013 1.250 . S
C1022 O1014 1.258 . S
O1023 Mn1008 2.162 . S
O1023 C1011 1.281 . S
O1024 Mn1008 2.297 . S
O1024 C1011 1.236 . S
N1025 Mn1009 2.282 . S
N1025 C1026 1.328 . S
N1025 C1030 1.318 . S
C1026 N1025 1.328 . S
C1026 C1027 1.457 . S
C1026 H1031 0.929 . S
C1027 C1026 1.457 . S
C1027 C1028 1.294 . S
C1027 H1040 0.931 . S
C1028 C1027 1.294 . S
C1028 C1029 1.374 . S
C1028 H1041 0.926 1_655 S
C1029 C1028 1.374 . S
C1029 C1030 1.396 . S
C1029 C1036 1.403 1_655 S
C1030 C1020 1.476 . S
C1030 N1025 1.318 . S
C1030 C1029 1.396 . S
H1031 C1026 0.929 . S
O1032 Mn1008 2.385 . S
O1032 C1010 1.234 . S
O1033 Mn1008 2.209 . S
O1033 Mn1009 2.215 . S
O1033 C1010 1.283 . S
O1034 Mn1008 2.094 . S
O1034 C1012 1.240 . S
O1035 Mn1009 2.117 . S
O1035 C1012 1.264 . S
C1036 C1029 1.403 1_455 S
C1036 C1037 1.394 1_455 S
C1036 H1042 0.929 . S
C1037 C1017 1.466 . S
C1037 C1036 1.394 1_655 S
C1037 H1043 0.918 1_655 S
H1038 C1018 0.931 . S
H1039 C1019 0.930 . S
H1040 C1027 0.931 . S
H1041 C1028 0.926 1_455 S
H1042 C1036 0.929 . S
H1043 C1037 0.918 1_455 S
Mn1044 O1049 2.095 . S
Mn1044 O1059 2.162 . S
Mn1044 O1060 2.297 . S
Mn1044 O1068 2.385 . S
Mn1044 O1069 2.209 . S
Mn1044 O1070 2.094 . S
Mn1045 O1050 2.121 . S
Mn1045 N1052 2.257 . S
Mn1045 N1061 2.282 . S
Mn1045 O1069 2.215 . S
Mn1045 O1071 2.117 . S
C1046 O1068 1.234 . S
C1046 O1069 1.283 . S
C1047 O1059 1.281 . S
C1047 O1060 1.236 . S
C1048 O1070 1.240 . S
C1048 O1071 1.264 . S
O1049 Mn1044 2.095 . S
O1049 C1058 1.250 . S
O1050 Mn1045 2.121 . S
O1050 C1058 1.258 . S
C1051 N1052 1.326 . S
C1051 C1055 1.460 . S
C1051 H1057 0.929 . S
N1052 Mn1045 2.257 . S
N1052 C1051 1.326 . S
N1052 C1056 1.362 . S
C1053 C1054 1.258 . S
C1053 C1056 1.431 . S
C1053 C1073 1.449 . S
C1054 C1053 1.258 . S
C1054 C1055 1.477 . S
C1054 H1074 0.931 . S
C1055 C1051 1.460 . S
C1055 C1054 1.477 . S
C1055 H1075 0.930 . S
C1056 N1052 1.362 . S
C1056 C1053 1.431 . S
C1056 C1066 1.476 . S
H1057 C1051 0.929 . S
C1058 O1049 1.250 . S
C1058 O1050 1.258 . S
O1059 Mn1044 2.162 . S
O1059 C1047 1.281 . S
O1060 Mn1044 2.297 . S
O1060 C1047 1.236 . S
N1061 Mn1045 2.282 . S
N1061 C1062 1.328 . S
N1061 C1066 1.318 . S
C1062 N1061 1.328 . S
C1062 C1063 1.457 . S
C1062 H1067 0.929 . S
C1063 C1062 1.457 . S
C1063 C1064 1.291 . S
C1063 H1076 0.931 . S
C1064 C1063 1.291 . S
C1064 C1065 1.373 . S
C1064 H1077 0.929 . S
C1065 C1064 1.373 . S
C1065 C1066 1.396 . S
C1065 C1072 1.403 . S
C1066 C1056 1.476 . S
C1066 N1061 1.318 . S
C1066 C1065 1.396 . S
H1067 C1062 0.929 . S
O1068 Mn1044 2.385 . S
O1068 C1046 1.234 . S
O1069 Mn1044 2.209 . S
O1069 Mn1045 2.215 . S
O1069 C1046 1.283 . S
O1070 Mn1044 2.094 . S
O1070 C1048 1.240 . S
O1071 Mn1045 2.117 . S
O1071 C1048 1.264 . S
C1072 C1065 1.403 . S
C1072 C1073 1.399 . S
C1072 H1078 0.929 . S
C1073 C1053 1.449 . S
C1073 C1072 1.399 . S
C1073 H1079 0.930 . S
H1074 C1054 0.931 . S
H1075 C1055 0.930 . S
H1076 C1063 0.931 . S
H1077 C1064 0.929 . S
H1078 C1072 0.929 . S
H1079 C1073 0.930 . S
Mn1080 O1085 2.095 . S
Mn1080 O1095 2.162 . S
Mn1080 O1096 2.297 . S
Mn1080 O1104 2.385 . S
Mn1080 O1105 2.209 . S
Mn1080 O1106 2.094 . S
Mn1081 O1086 2.121 . S
Mn1081 N1088 2.257 . S
Mn1081 N1097 2.282 . S
Mn1081 O1105 2.215 . S
Mn1081 O1107 2.117 . S
C1082 O1104 1.234 . S
C1082 O1105 1.283 . S
C1083 O1095 1.281 . S
C1083 O1096 1.236 . S
C1084 O1106 1.240 . S
C1084 O1107 1.264 . S
O1085 Mn1080 2.095 . S
O1085 C1094 1.250 . S
O1086 Mn1081 2.121 . S
O1086 C1094 1.258 . S
C1087 N1088 1.326 . S
C1087 C1091 1.460 . S
C1087 H1093 0.929 . S
N1088 Mn1081 2.257 . S
N1088 C1087 1.326 . S
N1088 C1092 1.362 . S
C1089 C1090 1.258 . S
C1089 C1092 1.431 . S
C1089 C1109 1.449 . S
C1090 C1089 1.258 . S
C1090 C1091 1.477 . S
C1090 H1110 0.931 . S
C1091 C1087 1.460 . S
C1091 C1090 1.477 . S
C1091 H1111 0.930 . S
C1092 N1088 1.362 . S
C1092 C1089 1.431 . S
C1092 C1102 1.476 . S
H1093 C1087 0.929 . S
C1094 O1085 1.250 . S
C1094 O1086 1.258 . S
O1095 Mn1080 2.162 . S
O1095 C1083 1.281 . S
O1096 Mn1080 2.297 . S
O1096 C1083 1.236 . S
N1097 Mn1081 2.282 . S
N1097 C1098 1.328 . S
N1097 C1102 1.318 . S
C1098 N1097 1.328 . S
C1098 C1099 1.457 . S
C1098 H1103 0.929 . S
C1099 C1098 1.457 . S
C1099 C1100 1.291 . S
C1099 H1112 0.931 . S
C1100 C1099 1.291 . S
C1100 C1101 1.373 . S
C1100 H1113 0.929 1_455 S
C1101 C1100 1.373 . S
C1101 C1102 1.396 . S
C1101 C1108 1.403 1_455 S
C1102 C1092 1.476 . S
C1102 N1097 1.318 . S
C1102 C1101 1.396 . S
H1103 C1098 0.929 . S
O1104 Mn1080 2.385 . S
O1104 C1082 1.234 . S
O1105 Mn1080 2.209 . S
O1105 Mn1081 2.215 . S
O1105 C1082 1.283 . S
O1106 Mn1080 2.094 . S
O1106 C1084 1.240 . S
O1107 Mn1081 2.117 . S
O1107 C1084 1.264 . S
C1108 C1101 1.403 1_655 S
C1108 C1109 1.399 1_655 S
C1108 H1114 0.929 . S
C1109 C1089 1.449 . S
C1109 C1108 1.399 1_455 S
C1109 H1115 0.930 1_455 S
H1110 C1090 0.931 . S
H1111 C1091 0.930 . S
H1112 C1099 0.931 . S
H1113 C1100 0.929 1_655 S
H1114 C1108 0.929 . S
H1115 C1109 0.930 1_655 S
Mn1116 O1121 2.095 . S
Mn1116 O1131 2.162 . S
Mn1116 O1132 2.297 . S
Mn1116 O1140 2.385 . S
Mn1116 O1141 2.209 . S
Mn1116 O1142 2.094 . S
Mn1117 O1122 2.121 . S
Mn1117 N1124 2.257 . S
Mn1117 N1133 2.282 . S
Mn1117 O1141 2.215 . S
Mn1117 O1143 2.117 . S
C1118 O1140 1.234 . S
C1118 O1141 1.283 . S
C1119 O1131 1.281 . S
C1119 O1132 1.236 . S
C1120 O1142 1.240 . S
C1120 O1143 1.264 . S
O1121 Mn1116 2.095 . S
O1121 C1130 1.250 . S
O1122 Mn1117 2.121 . S
O1122 C1130 1.258 . S
C1123 N1124 1.326 . S
C1123 C1127 1.460 . S
C1123 H1129 0.929 . S
N1124 Mn1117 2.257 . S
N1124 C1123 1.326 . S
N1124 C1128 1.362 . S
C1125 C1126 1.258 . S
C1125 C1128 1.431 . S
C1125 C1145 1.449 . S
C1126 C1125 1.258 . S
C1126 C1127 1.477 . S
C1126 H1146 0.931 . S
C1127 C1123 1.460 . S
C1127 C1126 1.477 . S
C1127 H1147 0.930 . S
C1128 N1124 1.362 . S
C1128 C1125 1.431 . S
C1128 C1138 1.476 . S
H1129 C1123 0.929 . S
C1130 O1121 1.250 . S
C1130 O1122 1.258 . S
O1131 Mn1116 2.162 . S
O1131 C1119 1.281 . S
O1132 Mn1116 2.297 . S
O1132 C1119 1.236 . S
N1133 Mn1117 2.282 . S
N1133 C1134 1.328 . S
N1133 C1138 1.318 . S
C1134 N1133 1.328 . S
C1134 C1135 1.457 . S
C1134 H1139 0.929 . S
C1135 C1134 1.457 . S
C1135 C1136 1.291 . S
C1135 H1148 0.931 . S
C1136 C1135 1.291 . S
C1136 C1137 1.373 . S
C1136 H1149 0.929 . S
C1137 C1136 1.373 . S
C1137 C1138 1.396 . S
C1137 C1144 1.403 . S
C1138 C1128 1.476 . S
C1138 N1133 1.318 . S
C1138 C1137 1.396 . S
H1139 C1134 0.929 . S
O1140 Mn1116 2.385 . S
O1140 C1118 1.234 . S
O1141 Mn1116 2.209 . S
O1141 Mn1117 2.215 . S
O1141 C1118 1.283 . S
O1142 Mn1116 2.094 . S
O1142 C1120 1.240 . S
O1143 Mn1117 2.117 . S
O1143 C1120 1.264 . S
C1144 C1137 1.403 . S
C1144 C1145 1.399 . S
C1144 H1150 0.929 . S
C1145 C1125 1.449 . S
C1145 C1144 1.399 . S
C1145 H1151 0.930 . S
H1146 C1126 0.931 . S
H1147 C1127 0.930 . S
H1148 C1135 0.931 . S
H1149 C1136 0.929 . S
H1150 C1144 0.929 . S
H1151 C1145 0.930 . S
Mn1152 O1157 2.095 . S
Mn1152 O1167 2.162 . S
Mn1152 O1168 2.297 . S
Mn1152 O1176 2.385 . S
Mn1152 O1177 2.209 . S
Mn1152 O1178 2.094 . S
Mn1153 O1158 2.121 . S
Mn1153 N1160 2.257 . S
Mn1153 N1169 2.282 . S
Mn1153 O1177 2.215 . S
Mn1153 O1179 2.117 . S
C1154 O1176 1.234 . S
C1154 O1177 1.283 . S
C1155 O1167 1.281 . S
C1155 O1168 1.236 . S
C1156 O1178 1.240 . S
C1156 O1179 1.264 . S
O1157 Mn1152 2.095 . S
O1157 C1166 1.250 . S
O1158 Mn1153 2.121 . S
O1158 C1166 1.258 . S
C1159 N1160 1.326 . S
C1159 C1163 1.460 . S
C1159 H1165 0.929 . S
N1160 Mn1153 2.257 . S
N1160 C1159 1.326 . S
N1160 C1164 1.362 . S
C1161 C1162 1.258 . S
C1161 C1164 1.431 . S
C1161 C1181 1.449 1_565 S
C1162 C1161 1.258 . S
C1162 C1163 1.477 . S
C1162 H1182 0.931 . S
C1163 C1159 1.460 . S
C1163 C1162 1.477 . S
C1163 H1183 0.930 . S
C1164 N1160 1.362 . S
C1164 C1161 1.431 . S
C1164 C1174 1.476 . S
H1165 C1159 0.929 . S
C1166 O1157 1.250 . S
C1166 O1158 1.258 . S
O1167 Mn1152 2.162 . S
O1167 C1155 1.281 . S
O1168 Mn1152 2.297 . S
O1168 C1155 1.236 . S
N1169 Mn1153 2.282 . S
N1169 C1170 1.328 . S
N1169 C1174 1.318 . S
C1170 N1169 1.328 . S
C1170 C1171 1.457 . S
C1170 H1175 0.929 . S
C1171 C1170 1.457 . S
C1171 C1172 1.291 1_565 S
C1171 H1184 0.931 . S
C1172 C1171 1.291 1_545 S
C1172 C1173 1.373 1_545 S
C1172 H1185 0.929 . S
C1173 C1172 1.373 1_565 S
C1173 C1174 1.396 . S
C1173 C1180 1.403 1_565 S
C1174 C1164 1.476 . S
C1174 N1169 1.318 . S
C1174 C1173 1.396 . S
H1175 C1170 0.929 . S
O1176 Mn1152 2.385 . S
O1176 C1154 1.234 . S
O1177 Mn1152 2.209 . S
O1177 Mn1153 2.215 . S
O1177 C1154 1.283 . S
O1178 Mn1152 2.094 . S
O1178 C1156 1.240 . S
O1179 Mn1153 2.117 . S
O1179 C1156 1.264 . S
C1180 C1173 1.403 1_545 S
C1180 C1181 1.399 . S
C1180 H1186 0.929 . S
C1181 C1161 1.449 1_545 S
C1181 C1180 1.399 . S
C1181 H1187 0.930 . S
H1182 C1162 0.931 . S
H1183 C1163 0.930 . S
H1184 C1171 0.931 . S
H1185 C1172 0.929 . S
H1186 C1180 0.929 . S
H1187 C1181 0.930 . S
Mn1188 O1193 2.095 . S
Mn1188 O1203 2.162 . S
Mn1188 O1204 2.297 . S
Mn1188 O1212 2.385 . S
Mn1188 O1213 2.209 . S
Mn1188 O1214 2.094 . S
Mn1189 O1194 2.121 . S
Mn1189 N1196 2.257 . S
Mn1189 N1205 2.282 . S
Mn1189 O1213 2.215 . S
Mn1189 O1215 2.117 . S
C1190 O1212 1.234 . S
C1190 O1213 1.283 . S
C1191 O1203 1.281 . S
C1191 O1204 1.236 . S
C1192 O1214 1.240 . S
C1192 O1215 1.264 . S
O1193 Mn1188 2.095 . S
O1193 C1202 1.250 . S
O1194 Mn1189 2.121 . S
O1194 C1202 1.258 . S
C1195 N1196 1.326 . S
C1195 C1199 1.460 . S
C1195 H1201 0.929 . S
N1196 Mn1189 2.257 . S
N1196 C1195 1.326 . S
N1196 C1200 1.362 . S
C1197 C1198 1.258 . S
C1197 C1200 1.431 . S
C1197 C1217 1.449 1_455 S
C1198 C1197 1.258 . S
C1198 C1199 1.477 . S
C1198 H1218 0.931 . S
C1199 C1195 1.460 . S
C1199 C1198 1.477 . S
C1199 H1219 0.930 . S
C1200 N1196 1.362 . S
C1200 C1197 1.431 . S
C1200 C1210 1.476 . S
H1201 C1195 0.929 . S
C1202 O1193 1.250 . S
C1202 O1194 1.258 . S
O1203 Mn1188 2.162 . S
O1203 C1191 1.281 . S
O1204 Mn1188 2.297 . S
O1204 C1191 1.236 . S
N1205 Mn1189 2.282 . S
N1205 C1206 1.328 . S
N1205 C1210 1.318 . S
C1206 N1205 1.328 . S
C1206 C1207 1.457 . S
C1206 H1211 0.929 . S
C1207 C1206 1.457 . S
C1207 C1208 1.291 1_455 S
C1207 H1220 0.931 . S
C1208 C1207 1.291 1_655 S
C1208 C1209 1.373 1_655 S
C1208 H1221 0.929 . S
C1209 C1208 1.373 1_455 S
C1209 C1210 1.396 . S
C1209 C1216 1.403 1_455 S
C1210 C1200 1.476 . S
C1210 N1205 1.318 . S
C1210 C1209 1.396 . S
H1211 C1206 0.929 . S
O1212 Mn1188 2.385 . S
O1212 C1190 1.234 . S
O1213 Mn1188 2.209 . S
O1213 Mn1189 2.215 . S
O1213 C1190 1.283 . S
O1214 Mn1188 2.094 . S
O1214 C1192 1.240 . S
O1215 Mn1189 2.117 . S
O1215 C1192 1.264 . S
C1216 C1209 1.403 1_655 S
C1216 C1217 1.399 . S
C1216 H1222 0.929 . S
C1217 C1197 1.449 1_655 S
C1217 C1216 1.399 . S
C1217 H1223 0.930 . S
H1218 C1198 0.931 . S
H1219 C1199 0.930 . S
H1220 C1207 0.931 . S
H1221 C1208 0.929 . S
H1222 C1216 0.929 . S
H1223 C1217 0.930 . S
Mn1224 O1229 2.095 . S
Mn1224 O1239 2.162 . S
Mn1224 O1240 2.297 . S
Mn1224 O1248 2.385 . S
Mn1224 O1249 2.209 . S
Mn1224 O1250 2.094 . S
Mn1225 O1230 2.121 . S
Mn1225 N1232 2.257 . S
Mn1225 N1241 2.282 . S
Mn1225 O1249 2.215 . S
Mn1225 O1251 2.117 . S
C1226 O1248 1.234 . S
C1226 O1249 1.283 . S
C1227 O1239 1.281 . S
C1227 O1240 1.236 . S
C1228 O1250 1.240 . S
C1228 O1251 1.264 . S
O1229 Mn1224 2.095 . S
O1229 C1238 1.250 . S
O1230 Mn1225 2.121 . S
O1230 C1238 1.258 . S
C1231 N1232 1.326 . S
C1231 C1235 1.460 . S
C1231 H1237 0.929 . S
N1232 Mn1225 2.257 . S
N1232 C1231 1.326 . S
N1232 C1236 1.362 . S
C1233 C1234 1.258 . S
C1233 C1236 1.431 . S
C1233 C1253 1.449 . S
C1234 C1233 1.258 . S
C1234 C1235 1.477 . S
C1234 H1254 0.931 . S
C1235 C1231 1.460 . S
C1235 C1234 1.477 . S
C1235 H1255 0.930 . S
C1236 N1232 1.362 . S
C1236 C1233 1.431 . S
C1236 C1246 1.476 . S
H1237 C1231 0.929 . S
C1238 O1229 1.250 . S
C1238 O1230 1.258 . S
O1239 Mn1224 2.162 . S
O1239 C1227 1.281 . S
O1240 Mn1224 2.297 . S
O1240 C1227 1.236 . S
N1241 Mn1225 2.282 . S
N1241 C1242 1.328 . S
N1241 C1246 1.318 . S
C1242 N1241 1.328 . S
C1242 C1243 1.457 . S
C1242 H1247 0.929 . S
C1243 C1242 1.457 . S
C1243 C1244 1.312 . S
C1243 H1256 0.931 . S
C1244 C1243 1.312 . S
C1244 C1245 1.383 . S
C1244 H1257 0.898 1_545 S
C1245 C1244 1.383 . S
C1245 C1246 1.396 . S
C1245 C1252 1.403 1_545 S
C1246 C1236 1.476 . S
C1246 N1241 1.318 . S
C1246 C1245 1.396 . S
H1247 C1242 0.929 . S
O1248 Mn1224 2.385 . S
O1248 C1226 1.234 . S
O1249 Mn1224 2.209 . S
O1249 Mn1225 2.215 . S
O1249 C1226 1.283 . S
O1250 Mn1224 2.094 . S
O1250 C1228 1.240 . S
O1251 Mn1225 2.117 . S
O1251 C1228 1.264 . S
C1252 C1245 1.403 1_565 S
C1252 C1253 1.399 1_565 S
C1252 H1258 0.929 . S
C1253 C1233 1.449 . S
C1253 C1252 1.399 1_545 S
C1253 H1259 0.930 1_545 S
H1254 C1234 0.931 . S
H1255 C1235 0.930 . S
H1256 C1243 0.931 . S
H1257 C1244 0.898 1_565 S
H1258 C1252 0.929 . S
H1259 C1253 0.930 1_565 S
Mn1260 O1265 2.095 . S
Mn1260 O1275 2.162 . S
Mn1260 O1276 2.297 . S
Mn1260 O1284 2.385 . S
Mn1260 O1285 2.209 . S
Mn1260 O1286 2.094 . S
Mn1261 O1266 2.121 . S
Mn1261 N1268 2.257 . S
Mn1261 N1277 2.282 . S
Mn1261 O1285 2.215 . S
Mn1261 O1287 2.117 . S
C1262 O1284 1.234 . S
C1262 O1285 1.283 . S
C1263 O1275 1.281 . S
C1263 O1276 1.236 . S
C1264 O1286 1.240 . S
C1264 O1287 1.264 . S
O1265 Mn1260 2.095 . S
O1265 C1274 1.250 . S
O1266 Mn1261 2.121 . S
O1266 C1274 1.258 . S
C1267 N1268 1.326 . S
C1267 C1271 1.460 . S
C1267 H1273 0.929 . S
N1268 Mn1261 2.257 . S
N1268 C1267 1.326 . S
N1268 C1272 1.362 . S
C1269 C1270 1.258 . S
C1269 C1272 1.431 . S
C1269 C1289 1.449 . S
C1270 C1269 1.258 . S
C1270 C1271 1.477 . S
C1270 H1290 0.931 . S
C1271 C1267 1.460 . S
C1271 C1270 1.477 . S
C1271 H1291 0.930 . S
C1272 N1268 1.362 . S
C1272 C1269 1.431 . S
C1272 C1282 1.476 . S
H1273 C1267 0.929 . S
C1274 O1265 1.250 . S
C1274 O1266 1.258 . S
O1275 Mn1260 2.162 . S
O1275 C1263 1.281 . S
O1276 Mn1260 2.297 . S
O1276 C1263 1.236 . S
N1277 Mn1261 2.282 . S
N1277 C1278 1.328 . S
N1277 C1282 1.318 . S
C1278 N1277 1.328 . S
C1278 C1279 1.457 . S
C1278 H1283 0.929 . S
C1279 C1278 1.457 . S
C1279 C1280 1.291 . S
C1279 H1292 0.931 . S
C1280 C1279 1.291 . S
C1280 C1281 1.373 . S
C1280 H1293 0.929 . S
C1281 C1280 1.373 . S
C1281 C1282 1.396 . S
C1281 C1288 1.403 . S
C1282 C1272 1.476 . S
C1282 N1277 1.318 . S
C1282 C1281 1.396 . S
H1283 C1278 0.929 . S
O1284 Mn1260 2.385 . S
O1284 C1262 1.234 . S
O1285 Mn1260 2.209 . S
O1285 Mn1261 2.215 . S
O1285 C1262 1.283 . S
O1286 Mn1260 2.094 . S
O1286 C1264 1.240 . S
O1287 Mn1261 2.117 . S
O1287 C1264 1.264 . S
C1288 C1281 1.403 . S
C1288 C1289 1.399 . S
C1288 H1294 0.929 . S
C1289 C1269 1.449 . S
C1289 C1288 1.399 . S
C1289 H1295 0.930 . S
H1290 C1270 0.931 . S
H1291 C1271 0.930 . S
H1292 C1279 0.931 . S
H1293 C1280 0.929 . S
H1294 C1288 0.929 . S
H1295 C1289 0.930 . S
Mn1296 O1301 2.095 . S
Mn1296 O1311 2.162 . S
Mn1296 O1312 2.297 . S
Mn1296 O1320 2.385 . S
Mn1296 O1321 2.209 . S
Mn1296 O1322 2.094 . S
Mn1297 O1302 2.121 . S
Mn1297 N1304 2.257 . S
Mn1297 N1313 2.282 . S
Mn1297 O1321 2.215 . S
Mn1297 O1323 2.117 . S
C1298 O1320 1.234 . S
C1298 O1321 1.283 . S
C1299 O1311 1.281 . S
C1299 O1312 1.236 . S
C1300 O1322 1.240 . S
C1300 O1323 1.264 . S
O1301 Mn1296 2.095 . S
O1301 C1310 1.250 . S
O1302 Mn1297 2.121 . S
O1302 C1310 1.258 . S
C1303 N1304 1.326 . S
C1303 C1307 1.460 . S
C1303 H1309 0.929 . S
N1304 Mn1297 2.257 . S
N1304 C1303 1.326 . S
N1304 C1308 1.362 . S
C1305 C1306 1.258 . S
C1305 C1308 1.431 . S
C1305 C1325 1.449 . S
C1306 C1305 1.258 . S
C1306 C1307 1.477 . S
C1306 H1326 0.931 . S
C1307 C1303 1.460 . S
C1307 C1306 1.477 . S
C1307 H1327 0.930 . S
C1308 N1304 1.362 . S
C1308 C1305 1.431 . S
C1308 C1318 1.476 . S
H1309 C1303 0.929 . S
C1310 O1301 1.250 . S
C1310 O1302 1.258 . S
O1311 Mn1296 2.162 . S
O1311 C1299 1.281 . S
O1312 Mn1296 2.297 . S
O1312 C1299 1.236 . S
N1313 Mn1297 2.282 . S
N1313 C1314 1.328 . S
N1313 C1318 1.318 . S
C1314 N1313 1.328 . S
C1314 C1315 1.457 . S
C1314 H1319 0.929 . S
C1315 C1314 1.457 . S
C1315 C1316 1.291 . S
C1315 H1328 0.931 . S
C1316 C1315 1.291 . S
C1316 C1317 1.373 . S
C1316 H1329 0.929 . S
C1317 C1316 1.373 . S
C1317 C1318 1.396 . S
C1317 C1324 1.403 . S
C1318 C1308 1.476 . S
C1318 N1313 1.318 . S
C1318 C1317 1.396 . S
H1319 C1314 0.929 . S
O1320 Mn1296 2.385 . S
O1320 C1298 1.234 . S
O1321 Mn1296 2.209 . S
O1321 Mn1297 2.215 . S
O1321 C1298 1.283 . S
O1322 Mn1296 2.094 . S
O1322 C1300 1.240 . S
O1323 Mn1297 2.117 . S
O1323 C1300 1.264 . S
C1324 C1317 1.403 . S
C1324 C1325 1.399 . S
C1324 H1330 0.929 . S
C1325 C1305 1.449 . S
C1325 C1324 1.399 . S
C1325 H1331 0.930 . S
H1326 C1306 0.931 . S
H1327 C1307 0.930 . S
H1328 C1315 0.931 . S
H1329 C1316 0.929 . S
H1330 C1324 0.929 . S
H1331 C1325 0.930 . S
Mn1332 O1337 2.095 . S
Mn1332 O1347 2.162 . S
Mn1332 O1348 2.297 . S
Mn1332 O1356 2.385 . S
Mn1332 O1357 2.209 . S
Mn1332 O1358 2.094 . S
Mn1333 O1338 2.121 . S
Mn1333 N1340 2.257 . S
Mn1333 N1349 2.282 . S
Mn1333 O1357 2.215 . S
Mn1333 O1359 2.117 . S
C1334 O1356 1.234 . S
C1334 O1357 1.283 . S
C1335 O1347 1.281 . S
C1335 O1348 1.236 . S
C1336 O1358 1.240 . S
C1336 O1359 1.264 . S
O1337 Mn1332 2.095 . S
O1337 C1346 1.250 . S
O1338 Mn1333 2.121 . S
O1338 C1346 1.258 . S
C1339 N1340 1.326 . S
C1339 C1343 1.460 . S
C1339 H1345 0.929 . S
N1340 Mn1333 2.257 . S
N1340 C1339 1.326 . S
N1340 C1344 1.362 . S
C1341 C1342 1.258 . S
C1341 C1344 1.431 . S
C1341 C1361 1.449 . S
C1342 C1341 1.258 . S
C1342 C1343 1.477 . S
C1342 H1362 0.931 . S
C1343 C1339 1.460 . S
C1343 C1342 1.477 . S
C1343 H1363 0.930 . S
C1344 N1340 1.362 . S
C1344 C1341 1.431 . S
C1344 C1354 1.476 . S
H1345 C1339 0.929 . S
C1346 O1337 1.250 . S
C1346 O1338 1.258 . S
O1347 Mn1332 2.162 . S
O1347 C1335 1.281 . S
O1348 Mn1332 2.297 . S
O1348 C1335 1.236 . S
N1349 Mn1333 2.282 . S
N1349 C1350 1.328 . S
N1349 C1354 1.318 . S
C1350 N1349 1.328 . S
C1350 C1351 1.457 . S
C1350 H1355 0.929 . S
C1351 C1350 1.457 . S
C1351 C1352 1.291 . S
C1351 H1364 0.931 . S
C1352 C1351 1.291 . S
C1352 C1353 1.373 . S
C1352 H1365 0.929 . S
C1353 C1352 1.373 . S
C1353 C1354 1.396 . S
C1353 C1360 1.403 . S
C1354 C1344 1.476 . S
C1354 N1349 1.318 . S
C1354 C1353 1.396 . S
H1355 C1350 0.929 . S
O1356 Mn1332 2.385 . S
O1356 C1334 1.234 . S
O1357 Mn1332 2.209 . S
O1357 Mn1333 2.215 . S
O1357 C1334 1.283 . S
O1358 Mn1332 2.094 . S
O1358 C1336 1.240 . S
O1359 Mn1333 2.117 . S
O1359 C1336 1.264 . S
C1360 C1353 1.403 . S
C1360 C1361 1.399 . S
C1360 H1366 0.929 . S
C1361 C1341 1.449 . S
C1361 C1360 1.399 . S
C1361 H1367 0.930 . S
H1362 C1342 0.931 . S
H1363 C1343 0.930 . S
H1364 C1351 0.931 . S
H1365 C1352 0.929 . S
H1366 C1360 0.929 . S
H1367 C1361 0.930 . S
Mn1368 O1373 2.095 . S
Mn1368 O1383 2.162 . S
Mn1368 O1384 2.297 . S
Mn1368 O1392 2.385 . S
Mn1368 O1393 2.209 . S
Mn1368 O1394 2.094 . S
Mn1369 O1374 2.121 . S
Mn1369 N1376 2.257 . S
Mn1369 N1385 2.282 . S
Mn1369 O1393 2.215 . S
Mn1369 O1395 2.117 . S
C1370 O1392 1.234 . S
C1370 O1393 1.283 . S
C1371 O1383 1.281 . S
C1371 O1384 1.236 . S
C1372 O1394 1.240 . S
C1372 O1395 1.264 . S
O1373 Mn1368 2.095 . S
O1373 C1382 1.250 . S
O1374 Mn1369 2.121 . S
O1374 C1382 1.258 . S
C1375 N1376 1.326 . S
C1375 C1379 1.460 . S
C1375 H1381 0.929 . S
N1376 Mn1369 2.257 . S
N1376 C1375 1.326 . S
N1376 C1380 1.362 . S
C1377 C1378 1.258 . S
C1377 C1380 1.431 . S
C1377 C1397 1.449 1_565 S
C1378 C1377 1.258 . S
C1378 C1379 1.477 . S
C1378 H1398 0.931 . S
C1379 C1375 1.460 . S
C1379 C1378 1.477 . S
C1379 H1399 0.930 . S
C1380 N1376 1.362 . S
C1380 C1377 1.431 . S
C1380 C1390 1.476 . S
H1381 C1375 0.929 . S
C1382 O1373 1.250 . S
C1382 O1374 1.258 . S
O1383 Mn1368 2.162 . S
O1383 C1371 1.281 . S
O1384 Mn1368 2.297 . S
O1384 C1371 1.236 . S
N1385 Mn1369 2.282 . S
N1385 C1386 1.328 . S
N1385 C1390 1.318 . S
C1386 N1385 1.328 . S
C1386 C1387 1.457 . S
C1386 H1391 0.929 . S
C1387 C1386 1.457 . S
C1387 C1388 1.291 1_565 S
C1387 H1400 0.931 . S
C1388 C1387 1.291 1_545 S
C1388 C1389 1.373 1_545 S
C1388 H1401 0.929 . S
C1389 C1388 1.373 1_565 S
C1389 C1390 1.396 . S
C1389 C1396 1.403 1_565 S
C1390 C1380 1.476 . S
C1390 N1385 1.318 . S
C1390 C1389 1.396 . S
H1391 C1386 0.929 . S
O1392 Mn1368 2.385 . S
O1392 C1370 1.234 . S
O1393 Mn1368 2.209 . S
O1393 Mn1369 2.215 . S
O1393 C1370 1.283 . S
O1394 Mn1368 2.094 . S
O1394 C1372 1.240 . S
O1395 Mn1369 2.117 . S
O1395 C1372 1.264 . S
C1396 C1389 1.403 1_545 S
C1396 C1397 1.399 . S
C1396 H1402 0.929 . S
C1397 C1377 1.449 1_545 S
C1397 C1396 1.399 . S
C1397 H1403 0.930 . S
H1398 C1378 0.931 . S
H1399 C1379 0.930 . S
H1400 C1387 0.931 . S
H1401 C1388 0.929 . S
H1402 C1396 0.929 . S
H1403 C1397 0.930 . S
Mn1404 O1409 2.095 . S
Mn1404 O1419 2.162 . S
Mn1404 O1420 2.297 . S
Mn1404 O1428 2.385 . S
Mn1404 O1429 2.209 . S
Mn1404 O1430 2.094 . S
Mn1405 O1410 2.121 . S
Mn1405 N1412 2.257 . S
Mn1405 N1421 2.282 . S
Mn1405 O1429 2.215 . S
Mn1405 O1431 2.117 . S
C1406 O1428 1.234 . S
C1406 O1429 1.283 . S
C1407 O1419 1.281 . S
C1407 O1420 1.236 . S
C1408 O1430 1.240 . S
C1408 O1431 1.264 . S
O1409 Mn1404 2.095 . S
O1409 C1418 1.250 . S
O1410 Mn1405 2.121 . S
O1410 C1418 1.258 . S
C1411 N1412 1.326 . S
C1411 C1415 1.460 . S
C1411 H1417 0.929 . S
N1412 Mn1405 2.257 . S
N1412 C1411 1.326 . S
N1412 C1416 1.362 . S
C1413 C1414 1.258 . S
C1413 C1416 1.431 . S
C1413 C1433 1.449 . S
C1414 C1413 1.258 . S
C1414 C1415 1.477 . S
C1414 H1434 0.931 . S
C1415 C1411 1.460 . S
C1415 C1414 1.477 . S
C1415 H1435 0.930 . S
C1416 N1412 1.362 . S
C1416 C1413 1.431 . S
C1416 C1426 1.476 . S
H1417 C1411 0.929 . S
C1418 O1409 1.250 . S
C1418 O1410 1.258 . S
O1419 Mn1404 2.162 . S
O1419 C1407 1.281 . S
O1420 Mn1404 2.297 . S
O1420 C1407 1.236 . S
N1421 Mn1405 2.282 . S
N1421 C1422 1.328 . S
N1421 C1426 1.318 . S
C1422 N1421 1.328 . S
C1422 C1423 1.457 . S
C1422 H1427 0.929 . S
C1423 C1422 1.457 . S
C1423 C1424 1.291 . S
C1423 H1436 0.931 . S
C1424 C1423 1.291 . S
C1424 C1425 1.373 . S
C1424 H1437 0.929 . S
C1425 C1424 1.373 . S
C1425 C1426 1.396 . S
C1425 C1432 1.403 . S
C1426 C1416 1.476 . S
C1426 N1421 1.318 . S
C1426 C1425 1.396 . S
H1427 C1422 0.929 . S
O1428 Mn1404 2.385 . S
O1428 C1406 1.234 . S
O1429 Mn1404 2.209 . S
O1429 Mn1405 2.215 . S
O1429 C1406 1.283 . S
O1430 Mn1404 2.094 . S
O1430 C1408 1.240 . S
O1431 Mn1405 2.117 . S
O1431 C1408 1.264 . S
C1432 C1425 1.403 . S
C1432 C1433 1.399 . S
C1432 H1438 0.929 . S
C1433 C1413 1.449 . S
C1433 C1432 1.399 . S
C1433 H1439 0.930 . S
H1434 C1414 0.931 . S
H1435 C1415 0.930 . S
H1436 C1423 0.931 . S
H1437 C1424 0.929 . S
H1438 C1432 0.929 . S
H1439 C1433 0.930 . S
Mn1440 O1445 2.095 . S
Mn1440 O1455 2.162 . S
Mn1440 O1456 2.297 . S
Mn1440 O1464 2.385 . S
Mn1440 O1465 2.209 . S
Mn1440 O1466 2.094 . S
Mn1441 O1446 2.121 . S
Mn1441 N1448 2.257 . S
Mn1441 N1457 2.282 . S
Mn1441 O1465 2.215 . S
Mn1441 O1467 2.117 . S
C1442 O1464 1.234 . S
C1442 O1465 1.283 . S
C1443 O1455 1.281 . S
C1443 O1456 1.236 . S
C1444 O1466 1.240 . S
C1444 O1467 1.264 . S
O1445 Mn1440 2.095 . S
O1445 C1454 1.250 . S
O1446 Mn1441 2.121 . S
O1446 C1454 1.258 . S
C1447 N1448 1.326 . S
C1447 C1451 1.460 . S
C1447 H1453 0.929 . S
N1448 Mn1441 2.257 . S
N1448 C1447 1.326 . S
N1448 C1452 1.362 . S
C1449 C1450 1.258 . S
C1449 C1452 1.431 . S
C1449 C1469 1.449 1_556 S
C1450 C1449 1.258 . S
C1450 C1451 1.477 . S
C1450 H1470 0.931 . S
C1451 C1447 1.460 . S
C1451 C1450 1.477 . S
C1451 H1471 0.930 . S
C1452 N1448 1.362 . S
C1452 C1449 1.431 . S
C1452 C1462 1.476 . S
H1453 C1447 0.929 . S
C1454 O1445 1.250 . S
C1454 O1446 1.258 . S
O1455 Mn1440 2.162 . S
O1455 C1443 1.281 . S
O1456 Mn1440 2.297 . S
O1456 C1443 1.236 . S
N1457 Mn1441 2.282 . S
N1457 C1458 1.328 . S
N1457 C1462 1.318 . S
C1458 N1457 1.328 . S
C1458 C1459 1.457 . S
C1458 H1463 0.929 . S
C1459 C1458 1.457 . S
C1459 C1460 1.291 1_556 S
C1459 H1472 0.931 . S
C1460 C1459 1.291 1_554 S
C1460 C1461 1.373 1_554 S
C1460 H1473 0.929 . S
C1461 C1460 1.373 1_556 S
C1461 C1462 1.396 . S
C1461 C1468 1.403 1_556 S
C1462 C1452 1.476 . S
C1462 N1457 1.318 . S
C1462 C1461 1.396 . S
H1463 C1458 0.929 . S
O1464 Mn1440 2.385 . S
O1464 C1442 1.234 . S
O1465 Mn1440 2.209 . S
O1465 Mn1441 2.215 . S
O1465 C1442 1.283 . S
O1466 Mn1440 2.094 . S
O1466 C1444 1.240 . S
O1467 Mn1441 2.117 . S
O1467 C1444 1.264 . S
C1468 C1461 1.403 1_554 S
C1468 C1469 1.399 . S
C1468 H1474 0.929 . S
C1469 C1449 1.449 1_554 S
C1469 C1468 1.399 . S
C1469 H1475 0.930 . S
H1470 C1450 0.931 . S
H1471 C1451 0.930 . S
H1472 C1459 0.931 . S
H1473 C1460 0.929 . S
H1474 C1468 0.929 . S
H1475 C1469 0.930 . S
Mn1476 O1481 2.095 . S
Mn1476 O1491 2.162 . S
Mn1476 O1492 2.297 . S
Mn1476 O1500 2.385 . S
Mn1476 O1501 2.209 . S
Mn1476 O1502 2.094 . S
Mn1477 O1482 2.121 . S
Mn1477 N1484 2.257 . S
Mn1477 N1493 2.282 . S
Mn1477 O1501 2.215 . S
Mn1477 O1503 2.117 . S
C1478 O1500 1.234 . S
C1478 O1501 1.283 . S
C1479 O1491 1.281 . S
C1479 O1492 1.236 . S
C1480 O1502 1.240 . S
C1480 O1503 1.264 . S
O1481 Mn1476 2.095 . S
O1481 C1490 1.250 . S
O1482 Mn1477 2.121 . S
O1482 C1490 1.258 . S
C1483 N1484 1.326 . S
C1483 C1487 1.460 . S
C1483 H1489 0.929 . S
N1484 Mn1477 2.257 . S
N1484 C1483 1.326 . S
N1484 C1488 1.362 . S
C1485 C1486 1.258 . S
C1485 C1488 1.431 . S
C1485 C1505 1.449 . S
C1486 C1485 1.258 . S
C1486 C1487 1.477 . S
C1486 H1506 0.931 . S
C1487 C1483 1.460 . S
C1487 C1486 1.477 . S
C1487 H1507 0.930 . S
C1488 N1484 1.362 . S
C1488 C1485 1.431 . S
C1488 C1498 1.476 . S
H1489 C1483 0.929 . S
C1490 O1481 1.250 . S
C1490 O1482 1.258 . S
O1491 Mn1476 2.162 . S
O1491 C1479 1.281 . S
O1492 Mn1476 2.297 . S
O1492 C1479 1.236 . S
N1493 Mn1477 2.282 . S
N1493 C1494 1.328 . S
N1493 C1498 1.318 . S
C1494 N1493 1.328 . S
C1494 C1495 1.457 . S
C1494 H1499 0.929 . S
C1495 C1494 1.457 . S
C1495 C1496 1.291 . S
C1495 H1508 0.931 . S
C1496 C1495 1.291 . S
C1496 C1497 1.373 . S
C1496 H1509 0.929 . S
C1497 C1496 1.373 . S
C1497 C1498 1.396 . S
C1497 C1504 1.403 . S
C1498 C1488 1.476 . S
C1498 N1493 1.318 . S
C1498 C1497 1.396 . S
H1499 C1494 0.929 . S
O1500 Mn1476 2.385 . S
O1500 C1478 1.234 . S
O1501 Mn1476 2.209 . S
O1501 Mn1477 2.215 . S
O1501 C1478 1.283 . S
O1502 Mn1476 2.094 . S
O1502 C1480 1.240 . S
O1503 Mn1477 2.117 . S
O1503 C1480 1.264 . S
C1504 C1497 1.403 . S
C1504 C1505 1.399 . S
C1504 H1510 0.929 . S
C1505 C1485 1.449 . S
C1505 C1504 1.399 . S
C1505 H1511 0.930 . S
H1506 C1486 0.931 . S
H1507 C1487 0.930 . S
H1508 C1495 0.931 . S
H1509 C1496 0.929 . S
H1510 C1504 0.929 . S
H1511 C1505 0.930 . S
Mn1512 O1517 2.095 . S
Mn1512 O1527 2.162 . S
Mn1512 O1528 2.297 . S
Mn1512 O1536 2.385 . S
Mn1512 O1537 2.209 . S
Mn1512 O1538 2.094 . S
Mn1513 O1518 2.121 . S
Mn1513 N1520 2.257 . S
Mn1513 N1529 2.282 . S
Mn1513 O1537 2.215 . S
Mn1513 O1539 2.117 . S
C1514 O1536 1.234 . S
C1514 O1537 1.283 . S
C1515 O1527 1.281 . S
C1515 O1528 1.236 . S
C1516 O1538 1.240 . S
C1516 O1539 1.264 . S
O1517 Mn1512 2.095 . S
O1517 C1526 1.250 . S
O1518 Mn1513 2.121 . S
O1518 C1526 1.258 . S
C1519 N1520 1.326 . S
C1519 C1523 1.460 . S
C1519 H1525 0.929 . S
N1520 Mn1513 2.257 . S
N1520 C1519 1.326 . S
N1520 C1524 1.362 . S
C1521 C1522 1.258 . S
C1521 C1524 1.431 . S
C1521 C1541 1.449 1_554 S
C1522 C1521 1.258 . S
C1522 C1523 1.477 . S
C1522 H1542 0.931 . S
C1523 C1519 1.460 . S
C1523 C1522 1.477 . S
C1523 H1543 0.930 . S
C1524 N1520 1.362 . S
C1524 C1521 1.431 . S
C1524 C1534 1.476 . S
H1525 C1519 0.929 . S
C1526 O1517 1.250 . S
C1526 O1518 1.258 . S
O1527 Mn1512 2.162 . S
O1527 C1515 1.281 . S
O1528 Mn1512 2.297 . S
O1528 C1515 1.236 . S
N1529 Mn1513 2.282 . S
N1529 C1530 1.328 . S
N1529 C1534 1.318 . S
C1530 N1529 1.328 . S
C1530 C1531 1.457 . S
C1530 H1535 0.929 . S
C1531 C1530 1.457 . S
C1531 C1532 1.291 1_554 S
C1531 H1544 0.931 . S
C1532 C1531 1.291 1_556 S
C1532 C1533 1.373 1_556 S
C1532 H1545 0.929 . S
C1533 C1532 1.373 1_554 S
C1533 C1534 1.396 . S
C1533 C1540 1.403 1_554 S
C1534 C1524 1.476 . S
C1534 N1529 1.318 . S
C1534 C1533 1.396 . S
H1535 C1530 0.929 . S
O1536 Mn1512 2.385 . S
O1536 C1514 1.234 . S
O1537 Mn1512 2.209 . S
O1537 Mn1513 2.215 . S
O1537 C1514 1.283 . S
O1538 Mn1512 2.094 . S
O1538 C1516 1.240 . S
O1539 Mn1513 2.117 . S
O1539 C1516 1.264 . S
C1540 C1533 1.403 1_556 S
C1540 C1541 1.399 . S
C1540 H1546 0.929 . S
C1541 C1521 1.449 1_556 S
C1541 C1540 1.399 . S
C1541 H1547 0.930 . S
H1542 C1522 0.931 . S
H1543 C1523 0.930 . S
H1544 C1531 0.931 . S
H1545 C1532 0.929 . S
H1546 C1540 0.929 . S
H1547 C1541 0.930 . S
Mn1548 O1553 2.095 . S
Mn1548 O1563 2.162 . S
Mn1548 O1564 2.297 . S
Mn1548 O1572 2.385 . S
Mn1548 O1573 2.209 . S
Mn1548 O1574 2.094 . S
Mn1549 O1554 2.121 . S
Mn1549 N1556 2.257 . S
Mn1549 N1565 2.282 . S
Mn1549 O1573 2.215 . S
Mn1549 O1575 2.117 . S
C1550 O1572 1.234 . S
C1550 O1573 1.283 . S
C1551 O1563 1.281 . S
C1551 O1564 1.236 . S
C1552 O1574 1.240 . S
C1552 O1575 1.264 . S
O1553 Mn1548 2.095 . S
O1553 C1562 1.250 . S
O1554 Mn1549 2.121 . S
O1554 C1562 1.258 . S
C1555 N1556 1.326 . S
C1555 C1559 1.460 . S
C1555 H1561 0.929 . S
N1556 Mn1549 2.257 . S
N1556 C1555 1.326 . S
N1556 C1560 1.362 . S
C1557 C1558 1.258 . S
C1557 C1560 1.431 . S
C1557 C1577 1.449 . S
C1558 C1557 1.258 . S
C1558 C1559 1.477 . S
C1558 H1578 0.931 . S
C1559 C1555 1.460 . S
C1559 C1558 1.477 . S
C1559 H1579 0.930 . S
C1560 N1556 1.362 . S
C1560 C1557 1.431 . S
C1560 C1570 1.476 . S
H1561 C1555 0.929 . S
C1562 O1553 1.250 . S
C1562 O1554 1.258 . S
O1563 Mn1548 2.162 . S
O1563 C1551 1.281 . S
O1564 Mn1548 2.297 . S
O1564 C1551 1.236 . S
N1565 Mn1549 2.282 . S
N1565 C1566 1.328 . S
N1565 C1570 1.318 . S
C1566 N1565 1.328 . S
C1566 C1567 1.457 . S
C1566 H1571 0.929 . S
C1567 C1566 1.457 . S
C1567 C1568 1.291 . S
C1567 H1580 0.931 . S
C1568 C1567 1.291 . S
C1568 C1569 1.373 . S
C1568 H1581 0.929 . S
C1569 C1568 1.373 . S
C1569 C1570 1.396 . S
C1569 C1576 1.403 . S
C1570 C1560 1.476 . S
C1570 N1565 1.318 . S
C1570 C1569 1.396 . S
H1571 C1566 0.929 . S
O1572 Mn1548 2.385 . S
O1572 C1550 1.234 . S
O1573 Mn1548 2.209 . S
O1573 Mn1549 2.215 . S
O1573 C1550 1.283 . S
O1574 Mn1548 2.094 . S
O1574 C1552 1.240 . S
O1575 Mn1549 2.117 . S
O1575 C1552 1.264 . S
C1576 C1569 1.403 . S
C1576 C1577 1.399 . S
C1576 H1582 0.929 . S
C1577 C1557 1.449 . S
C1577 C1576 1.399 . S
C1577 H1583 0.930 . S
H1578 C1558 0.931 . S
H1579 C1559 0.930 . S
H1580 C1567 0.931 . S
H1581 C1568 0.929 . S
H1582 C1576 0.929 . S
H1583 C1577 0.930 . S
Mn1584 O1589 2.095 . S
Mn1584 O1599 2.162 . S
Mn1584 O1600 2.297 . S
Mn1584 O1608 2.385 . S
Mn1584 O1609 2.209 . S
Mn1584 O1610 2.094 . S
Mn1585 O1590 2.121 . S
Mn1585 N1592 2.257 . S
Mn1585 N1601 2.282 . S
Mn1585 O1609 2.215 . S
Mn1585 O1611 2.117 . S
C1586 O1608 1.234 . S
C1586 O1609 1.283 . S
C1587 O1599 1.281 . S
C1587 O1600 1.236 . S
C1588 O1610 1.240 . S
C1588 O1611 1.264 . S
O1589 Mn1584 2.095 . S
O1589 C1598 1.250 . S
O1590 Mn1585 2.121 . S
O1590 C1598 1.258 . S
C1591 N1592 1.326 . S
C1591 C1595 1.460 . S
C1591 H1597 0.929 . S
N1592 Mn1585 2.257 . S
N1592 C1591 1.326 . S
N1592 C1596 1.362 . S
C1593 C1594 1.258 . S
C1593 C1596 1.431 . S
C1593 C1613 1.449 1_554 S
C1594 C1593 1.258 . S
C1594 C1595 1.477 . S
C1594 H1614 0.931 . S
C1595 C1591 1.460 . S
C1595 C1594 1.477 . S
C1595 H1615 0.930 . S
C1596 N1592 1.362 . S
C1596 C1593 1.431 . S
C1596 C1606 1.476 . S
H1597 C1591 0.929 . S
C1598 O1589 1.250 . S
C1598 O1590 1.258 . S
O1599 Mn1584 2.162 . S
O1599 C1587 1.281 . S
O1600 Mn1584 2.297 . S
O1600 C1587 1.236 . S
N1601 Mn1585 2.282 . S
N1601 C1602 1.328 . S
N1601 C1606 1.318 . S
C1602 N1601 1.328 . S
C1602 C1603 1.457 . S
C1602 H1607 0.929 . S
C1603 C1602 1.457 . S
C1603 C1604 1.291 1_554 S
C1603 H1616 0.931 . S
C1604 C1603 1.291 1_556 S
C1604 C1605 1.373 1_556 S
C1604 H1617 0.929 . S
C1605 C1604 1.373 1_554 S
C1605 C1606 1.396 . S
C1605 C1612 1.403 1_554 S
C1606 C1596 1.476 . S
C1606 N1601 1.318 . S
C1606 C1605 1.396 . S
H1607 C1602 0.929 . S
O1608 Mn1584 2.385 . S
O1608 C1586 1.234 . S
O1609 Mn1584 2.209 . S
O1609 Mn1585 2.215 . S
O1609 C1586 1.283 . S
O1610 Mn1584 2.094 . S
O1610 C1588 1.240 . S
O1611 Mn1585 2.117 . S
O1611 C1588 1.264 . S
C1612 C1605 1.403 1_556 S
C1612 C1613 1.399 . S
C1612 H1618 0.929 . S
C1613 C1593 1.449 1_556 S
C1613 C1612 1.399 . S
C1613 H1619 0.930 . S
H1614 C1594 0.931 . S
H1615 C1595 0.930 . S
H1616 C1603 0.931 . S
H1617 C1604 0.929 . S
H1618 C1612 0.929 . S
H1619 C1613 0.930 . S
Mn1620 O1625 2.095 . S
Mn1620 O1635 2.162 . S
Mn1620 O1636 2.297 . S
Mn1620 O1644 2.385 . S
Mn1620 O1645 2.209 . S
Mn1620 O1646 2.094 . S
Mn1621 O1626 2.121 . S
Mn1621 N1628 2.257 . S
Mn1621 N1637 2.282 . S
Mn1621 O1645 2.215 . S
Mn1621 O1647 2.117 . S
C1622 O1644 1.234 . S
C1622 O1645 1.283 . S
C1623 O1635 1.281 . S
C1623 O1636 1.236 . S
C1624 O1646 1.240 . S
C1624 O1647 1.264 . S
O1625 Mn1620 2.095 . S
O1625 C1634 1.250 . S
O1626 Mn1621 2.121 . S
O1626 C1634 1.258 . S
C1627 N1628 1.326 . S
C1627 C1631 1.460 . S
C1627 H1633 0.929 . S
N1628 Mn1621 2.257 . S
N1628 C1627 1.326 . S
N1628 C1632 1.362 . S
C1629 C1630 1.258 . S
C1629 C1632 1.431 . S
C1629 C1649 1.449 1_556 S
C1630 C1629 1.258 . S
C1630 C1631 1.477 . S
C1630 H1650 0.931 . S
C1631 C1627 1.460 . S
C1631 C1630 1.477 . S
C1631 H1651 0.930 . S
C1632 N1628 1.362 . S
C1632 C1629 1.431 . S
C1632 C1642 1.476 . S
H1633 C1627 0.929 . S
C1634 O1625 1.250 . S
C1634 O1626 1.258 . S
O1635 Mn1620 2.162 . S
O1635 C1623 1.281 . S
O1636 Mn1620 2.297 . S
O1636 C1623 1.236 . S
N1637 Mn1621 2.282 . S
N1637 C1638 1.328 . S
N1637 C1642 1.318 . S
C1638 N1637 1.328 . S
C1638 C1639 1.457 . S
C1638 H1643 0.929 . S
C1639 C1638 1.457 . S
C1639 C1640 1.291 1_556 S
C1639 H1652 0.931 . S
C1640 C1639 1.291 1_554 S
C1640 C1641 1.373 1_554 S
C1640 H1653 0.929 . S
C1641 C1640 1.373 1_556 S
C1641 C1642 1.396 . S
C1641 C1648 1.403 1_556 S
C1642 C1632 1.476 . S
C1642 N1637 1.318 . S
C1642 C1641 1.396 . S
H1643 C1638 0.929 . S
O1644 Mn1620 2.385 . S
O1644 C1622 1.234 . S
O1645 Mn1620 2.209 . S
O1645 Mn1621 2.215 . S
O1645 C1622 1.283 . S
O1646 Mn1620 2.094 . S
O1646 C1624 1.240 . S
O1647 Mn1621 2.117 . S
O1647 C1624 1.264 . S
C1648 C1641 1.403 1_554 S
C1648 C1649 1.399 . S
C1648 H1654 0.929 . S
C1649 C1629 1.449 1_554 S
C1649 C1648 1.399 . S
C1649 H1655 0.930 . S
H1650 C1630 0.931 . S
H1651 C1631 0.930 . S
H1652 C1639 0.931 . S
H1653 C1640 0.929 . S
H1654 C1648 0.929 . S
H1655 C1649 0.930 . S
Mn1656 O1661 2.095 . S
Mn1656 O1671 2.162 . S
Mn1656 O1672 2.297 . S
Mn1656 O1680 2.385 . S
Mn1656 O1681 2.209 . S
Mn1656 O1682 2.094 . S
Mn1657 O1662 2.121 . S
Mn1657 N1664 2.257 . S
Mn1657 N1673 2.282 . S
Mn1657 O1681 2.215 . S
Mn1657 O1683 2.117 . S
C1658 O1680 1.234 . S
C1658 O1681 1.283 . S
C1659 O1671 1.281 . S
C1659 O1672 1.236 . S
C1660 O1682 1.240 . S
C1660 O1683 1.264 . S
O1661 Mn1656 2.095 . S
O1661 C1670 1.250 . S
O1662 Mn1657 2.121 . S
O1662 C1670 1.258 . S
C1663 N1664 1.326 . S
C1663 C1667 1.460 . S
C1663 H1669 0.929 . S
N1664 Mn1657 2.257 . S
N1664 C1663 1.326 . S
N1664 C1668 1.362 . S
C1665 C1666 1.258 . S
C1665 C1668 1.431 . S
C1665 C1685 1.449 . S
C1666 C1665 1.258 . S
C1666 C1667 1.477 . S
C1666 H1686 0.931 . S
C1667 C1663 1.460 . S
C1667 C1666 1.477 . S
C1667 H1687 0.930 . S
C1668 N1664 1.362 . S
C1668 C1665 1.431 . S
C1668 C1678 1.476 . S
H1669 C1663 0.929 . S
C1670 O1661 1.250 . S
C1670 O1662 1.258 . S
O1671 Mn1656 2.162 . S
O1671 C1659 1.281 . S
O1672 Mn1656 2.297 . S
O1672 C1659 1.236 . S
N1673 Mn1657 2.282 . S
N1673 C1674 1.328 . S
N1673 C1678 1.318 . S
C1674 N1673 1.328 . S
C1674 C1675 1.457 . S
C1674 H1679 0.929 . S
C1675 C1674 1.457 . S
C1675 C1676 1.291 . S
C1675 H1688 0.931 . S
C1676 C1675 1.291 . S
C1676 C1677 1.373 . S
C1676 H1689 0.929 . S
C1677 C1676 1.373 . S
C1677 C1678 1.396 . S
C1677 C1684 1.403 . S
C1678 C1668 1.476 . S
C1678 N1673 1.318 . S
C1678 C1677 1.396 . S
H1679 C1674 0.929 . S
O1680 Mn1656 2.385 . S
O1680 C1658 1.234 . S
O1681 Mn1656 2.209 . S
O1681 Mn1657 2.215 . S
O1681 C1658 1.283 . S
O1682 Mn1656 2.094 . S
O1682 C1660 1.240 . S
O1683 Mn1657 2.117 . S
O1683 C1660 1.264 . S
C1684 C1677 1.403 . S
C1684 C1685 1.399 . S
C1684 H1690 0.929 . S
C1685 C1665 1.449 . S
C1685 C1684 1.399 . S
C1685 H1691 0.930 . S
H1686 C1666 0.931 . S
H1687 C1667 0.930 . S
H1688 C1675 0.931 . S
H1689 C1676 0.929 . S
H1690 C1684 0.929 . S
H1691 C1685 0.930 . S
Mn1692 O1697 2.095 . S
Mn1692 O1707 2.162 . S
Mn1692 O1708 2.297 . S
Mn1692 O1716 2.385 . S
Mn1692 O1717 2.209 . S
Mn1692 O1718 2.094 . S
Mn1693 O1698 2.121 . S
Mn1693 N1700 2.257 . S
Mn1693 N1709 2.282 . S
Mn1693 O1717 2.215 . S
Mn1693 O1719 2.117 . S
C1694 O1716 1.234 . S
C1694 O1717 1.283 . S
C1695 O1707 1.281 . S
C1695 O1708 1.236 . S
C1696 O1718 1.240 . S
C1696 O1719 1.264 . S
O1697 Mn1692 2.095 . S
O1697 C1706 1.250 . S
O1698 Mn1693 2.121 . S
O1698 C1706 1.258 . S
C1699 N1700 1.326 . S
C1699 C1703 1.460 . S
C1699 H1705 0.929 . S
N1700 Mn1693 2.257 . S
N1700 C1699 1.326 . S
N1700 C1704 1.362 . S
C1701 C1702 1.258 . S
C1701 C1704 1.431 . S
C1701 C1721 1.449 . S
C1702 C1701 1.258 . S
C1702 C1703 1.477 . S
C1702 H1722 0.931 . S
C1703 C1699 1.460 . S
C1703 C1702 1.477 . S
C1703 H1723 0.930 . S
C1704 N1700 1.362 . S
C1704 C1701 1.431 . S
C1704 C1714 1.476 . S
H1705 C1699 0.929 . S
C1706 O1697 1.250 . S
C1706 O1698 1.258 . S
O1707 Mn1692 2.162 . S
O1707 C1695 1.281 . S
O1708 Mn1692 2.297 . S
O1708 C1695 1.236 . S
N1709 Mn1693 2.282 . S
N1709 C1710 1.328 . S
N1709 C1714 1.318 . S
C1710 N1709 1.328 . S
C1710 C1711 1.457 . S
C1710 H1715 0.929 . S
C1711 C1710 1.457 . S
C1711 C1712 1.291 . S
C1711 H1724 0.931 . S
C1712 C1711 1.291 . S
C1712 C1713 1.373 . S
C1712 H1725 0.929 . S
C1713 C1712 1.373 . S
C1713 C1714 1.396 . S
C1713 C1720 1.403 . S
C1714 C1704 1.476 . S
C1714 N1709 1.318 . S
C1714 C1713 1.396 . S
H1715 C1710 0.929 . S
O1716 Mn1692 2.385 . S
O1716 C1694 1.234 . S
O1717 Mn1692 2.209 . S
O1717 Mn1693 2.215 . S
O1717 C1694 1.283 . S
O1718 Mn1692 2.094 . S
O1718 C1696 1.240 . S
O1719 Mn1693 2.117 . S
O1719 C1696 1.264 . S
C1720 C1713 1.403 . S
C1720 C1721 1.399 . S
C1720 H1726 0.929 . S
C1721 C1701 1.449 . S
C1721 C1720 1.399 . S
C1721 H1727 0.930 . S
H1722 C1702 0.931 . S
H1723 C1703 0.930 . S
H1724 C1711 0.931 . S
H1725 C1712 0.929 . S
H1726 C1720 0.929 . S
H1727 C1721 0.930 . S
C1728 C1729 1.363 . S
C1728 C1734 1.379 . S
C1728 N1736 1.356 . S
C1729 C1728 1.363 . S
C1729 C1735 1.363 . S
C1730 C1731 1.363 . S
C1730 C1735 1.379 . S
C1730 N1737 1.356 . S
C1731 C1730 1.363 . S
C1731 C1734 1.363 . S
N1732 C1734 1.356 . S
N1732 H1744 0.984 . S
N1732 H1745 0.985 . S
N1733 C1735 1.356 . S
N1733 H1738 0.984 . S
N1733 H1739 0.985 . S
C1734 C1728 1.379 . S
C1734 C1731 1.363 . S
C1734 N1732 1.356 . S
C1735 C1729 1.363 . S
C1735 C1730 1.379 . S
C1735 N1733 1.356 . S
N1736 C1728 1.356 . S
N1736 H1742 0.984 . S
N1736 H1743 0.984 . S
N1737 C1730 1.356 . S
N1737 H1740 0.984 . S
N1737 H1741 0.985 . S
H1738 N1733 0.984 . S
H1739 N1733 0.985 . S
H1740 N1737 0.984 . S
H1741 N1737 0.985 . S
H1742 N1736 0.984 . S
H1743 N1736 0.984 . S
H1744 N1732 0.984 . S
H1745 N1732 0.985 . S
C1746 C1747 1.363 . S
C1746 C1752 1.379 . S
C1746 N1754 1.356 . S
C1747 C1746 1.363 . S
C1747 C1753 1.363 . S
C1748 C1749 1.363 . S
C1748 C1753 1.379 . S
C1748 N1755 1.356 . S
C1749 C1748 1.363 . S
C1749 C1752 1.363 . S
N1750 C1752 1.356 . S
N1750 H1762 0.984 . S
N1750 H1763 0.985 . S
N1751 C1753 1.356 . S
N1751 H1756 0.984 . S
N1751 H1757 0.985 . S
C1752 C1746 1.379 . S
C1752 C1749 1.363 . S
C1752 N1750 1.356 . S
C1753 C1747 1.363 . S
C1753 C1748 1.379 . S
C1753 N1751 1.356 . S
N1754 C1746 1.356 . S
N1754 H1760 0.984 . S
N1754 H1761 0.984 . S
N1755 C1748 1.356 . S
N1755 H1758 0.984 . S
N1755 H1759 0.985 . S
H1756 N1751 0.984 . S
H1757 N1751 0.985 . S
H1758 N1755 0.984 . S
H1759 N1755 0.985 . S
H1760 N1754 0.984 . S
H1761 N1754 0.984 . S
H1762 N1750 0.984 . S
H1763 N1750 0.985 . S
C1764 C1765 1.363 . S
C1764 C1770 1.379 . S
C1764 N1772 1.356 . S
C1765 C1764 1.363 . S
C1765 C1771 1.363 . S
C1766 C1767 1.363 . S
C1766 C1771 1.379 . S
C1766 N1773 1.356 . S
C1767 C1766 1.363 . S
C1767 C1770 1.363 . S
N1768 C1770 1.356 . S
N1768 H1780 0.984 . S
N1768 H1781 0.985 . S
N1769 C1771 1.356 . S
N1769 H1774 0.984 . S
N1769 H1775 0.985 . S
C1770 C1764 1.379 . S
C1770 C1767 1.363 . S
C1770 N1768 1.356 . S
C1771 C1765 1.363 . S
C1771 C1766 1.379 . S
C1771 N1769 1.356 . S
N1772 C1764 1.356 . S
N1772 H1778 0.984 . S
N1772 H1779 0.984 . S
N1773 C1766 1.356 . S
N1773 H1776 0.984 . S
N1773 H1777 0.985 . S
H1774 N1769 0.984 . S
H1775 N1769 0.985 . S
H1776 N1773 0.984 . S
H1777 N1773 0.985 . S
H1778 N1772 0.984 . S
H1779 N1772 0.984 . S
H1780 N1768 0.984 . S
H1781 N1768 0.985 . S
C1782 C1783 1.363 . S
C1782 C1788 1.379 . S
C1782 N1790 1.356 . S
C1783 C1782 1.363 . S
C1783 C1789 1.363 . S
C1784 C1785 1.363 . S
C1784 C1789 1.379 . S
C1784 N1791 1.356 . S
C1785 C1784 1.363 . S
C1785 C1788 1.363 . S
N1786 C1788 1.356 . S
N1786 H1798 0.984 . S
N1786 H1799 0.985 . S
N1787 C1789 1.356 . S
N1787 H1792 0.984 . S
N1787 H1793 0.985 . S
C1788 C1782 1.379 . S
C1788 C1785 1.363 . S
C1788 N1786 1.356 . S
C1789 C1783 1.363 . S
C1789 C1784 1.379 . S
C1789 N1787 1.356 . S
N1790 C1782 1.356 . S
N1790 H1796 0.984 . S
N1790 H1797 0.984 . S
N1791 C1784 1.356 . S
N1791 H1794 0.984 . S
N1791 H1795 0.985 . S
H1792 N1787 0.984 . S
H1793 N1787 0.985 . S
H1794 N1791 0.984 . S
H1795 N1791 0.985 . S
H1796 N1790 0.984 . S
H1797 N1790 0.984 . S
H1798 N1786 0.984 . S
H1799 N1786 0.985 . S
C1800 C1801 1.363 . S
C1800 C1806 1.379 . S
C1800 N1808 1.356 . S
C1801 C1800 1.363 . S
C1801 C1807 1.363 . S
C1802 C1803 1.363 . S
C1802 C1807 1.379 . S
C1802 N1809 1.356 . S
C1803 C1802 1.363 . S
C1803 C1806 1.363 . S
N1804 C1806 1.356 . S
N1804 H1816 0.984 . S
N1804 H1817 0.985 . S
N1805 C1807 1.356 . S
N1805 H1810 0.984 . S
N1805 H1811 0.985 . S
C1806 C1800 1.379 . S
C1806 C1803 1.363 . S
C1806 N1804 1.356 . S
C1807 C1801 1.363 . S
C1807 C1802 1.379 . S
C1807 N1805 1.356 . S
N1808 C1800 1.356 . S
N1808 H1814 0.984 . S
N1808 H1815 0.984 . S
N1809 C1802 1.356 . S
N1809 H1812 0.984 . S
N1809 H1813 0.985 . S
H1810 N1805 0.984 . S
H1811 N1805 0.985 . S
H1812 N1809 0.984 . S
H1813 N1809 0.985 . S
H1814 N1808 0.984 . S
H1815 N1808 0.984 . S
H1816 N1804 0.984 . S
H1817 N1804 0.985 . S
C1818 C1819 1.363 . S
C1818 C1824 1.379 . S
C1818 N1826 1.356 . S
C1819 C1818 1.363 . S
C1819 C1825 1.363 . S
C1820 C1821 1.363 . S
C1820 C1825 1.379 . S
C1820 N1827 1.356 . S
C1821 C1820 1.363 . S
C1821 C1824 1.363 . S
N1822 C1824 1.356 . S
N1822 H1834 0.984 . S
N1822 H1835 0.985 . S
N1823 C1825 1.356 . S
N1823 H1828 0.984 . S
N1823 H1829 0.985 . S
C1824 C1818 1.379 . S
C1824 C1821 1.363 . S
C1824 N1822 1.356 . S
C1825 C1819 1.363 . S
C1825 C1820 1.379 . S
C1825 N1823 1.356 . S
N1826 C1818 1.356 . S
N1826 H1832 0.984 . S
N1826 H1833 0.984 . S
N1827 C1820 1.356 . S
N1827 H1830 0.984 . S
N1827 H1831 0.985 . S
H1828 N1823 0.984 . S
H1829 N1823 0.985 . S
H1830 N1827 0.984 . S
H1831 N1827 0.985 . S
H1832 N1826 0.984 . S
H1833 N1826 0.984 . S
H1834 N1822 0.984 . S
H1835 N1822 0.985 . S
C1836 C1837 1.363 . S
C1836 C1842 1.379 . S
C1836 N1844 1.356 . S
C1837 C1836 1.363 . S
C1837 C1843 1.363 . S
C1838 C1839 1.363 . S
C1838 C1843 1.379 . S
C1838 N1845 1.356 . S
C1839 C1838 1.363 . S
C1839 C1842 1.363 . S
N1840 C1842 1.356 . S
N1840 H1852 0.984 . S
N1840 H1853 0.985 . S
N1841 C1843 1.356 . S
N1841 H1846 0.984 . S
N1841 H1847 0.985 . S
C1842 C1836 1.379 . S
C1842 C1839 1.363 . S
C1842 N1840 1.356 . S
C1843 C1837 1.363 . S
C1843 C1838 1.379 . S
C1843 N1841 1.356 . S
N1844 C1836 1.356 . S
N1844 H1850 0.984 . S
N1844 H1851 0.984 . S
N1845 C1838 1.356 . S
N1845 H1848 0.984 . S
N1845 H1849 0.985 . S
H1846 N1841 0.984 . S
H1847 N1841 0.985 . S
H1848 N1845 0.984 . S
H1849 N1845 0.985 . S
H1850 N1844 0.984 . S
H1851 N1844 0.984 . S
H1852 N1840 0.984 . S
H1853 N1840 0.985 . S
C1854 C1855 1.363 . S
C1854 C1860 1.379 . S
C1854 N1862 1.356 . S
C1855 C1854 1.363 . S
C1855 C1861 1.363 . S
C1856 C1857 1.363 . S
C1856 C1861 1.379 . S
C1856 N1863 1.356 . S
C1857 C1856 1.363 . S
C1857 C1860 1.363 . S
N1858 C1860 1.356 . S
N1858 H1870 0.984 . S
N1858 H1871 0.985 . S
N1859 C1861 1.356 . S
N1859 H1864 0.984 . S
N1859 H1865 0.985 . S
C1860 C1854 1.379 . S
C1860 C1857 1.363 . S
C1860 N1858 1.356 . S
C1861 C1855 1.363 . S
C1861 C1856 1.379 . S
C1861 N1859 1.356 . S
N1862 C1854 1.356 . S
N1862 H1868 0.984 . S
N1862 H1869 0.984 . S
N1863 C1856 1.356 . S
N1863 H1866 0.984 . S
N1863 H1867 0.985 . S
H1864 N1859 0.984 . S
H1865 N1859 0.985 . S
H1866 N1863 0.984 . S
H1867 N1863 0.985 . S
H1868 N1862 0.984 . S
H1869 N1862 0.984 . S
H1870 N1858 0.984 . S
H1871 N1858 0.985 . S
C1872 C1873 1.363 . S
C1872 C1878 1.379 . S
C1872 N1880 1.356 . S
C1873 C1872 1.363 . S
C1873 C1879 1.363 . S
C1874 C1875 1.363 . S
C1874 C1879 1.379 . S
C1874 N1881 1.356 . S
C1875 C1874 1.363 . S
C1875 C1878 1.363 . S
N1876 C1878 1.356 . S
N1876 H1888 0.984 . S
N1876 H1889 0.985 . S
N1877 C1879 1.356 . S
N1877 H1882 0.984 . S
N1877 H1883 0.985 . S
C1878 C1872 1.379 . S
C1878 C1875 1.363 . S
C1878 N1876 1.356 . S
C1879 C1873 1.363 . S
C1879 C1874 1.379 . S
C1879 N1877 1.356 . S
N1880 C1872 1.356 . S
N1880 H1886 0.984 . S
N1880 H1887 0.984 . S
N1881 C1874 1.356 . S
N1881 H1884 0.984 . S
N1881 H1885 0.985 . S
H1882 N1877 0.984 . S
H1883 N1877 0.985 . S
H1884 N1881 0.984 . S
H1885 N1881 0.985 . S
H1886 N1880 0.984 . S
H1887 N1880 0.984 . S
H1888 N1876 0.984 . S
H1889 N1876 0.985 . S
C1890 C1891 1.363 . S
C1890 C1896 1.379 . S
C1890 N1898 1.356 . S
C1891 C1890 1.363 . S
C1891 C1897 1.363 . S
C1892 C1893 1.363 . S
C1892 C1897 1.379 . S
C1892 N1899 1.356 . S
C1893 C1892 1.363 . S
C1893 C1896 1.363 . S
N1894 C1896 1.356 . S
N1894 H1906 0.984 . S
N1894 H1907 0.985 . S
N1895 C1897 1.356 . S
N1895 H1900 0.984 . S
N1895 H1901 0.985 . S
C1896 C1890 1.379 . S
C1896 C1893 1.363 . S
C1896 N1894 1.356 . S
C1897 C1891 1.363 . S
C1897 C1892 1.379 . S
C1897 N1895 1.356 . S
N1898 C1890 1.356 . S
N1898 H1904 0.984 . S
N1898 H1905 0.984 . S
N1899 C1892 1.356 . S
N1899 H1902 0.984 . S
N1899 H1903 0.985 . S
H1900 N1895 0.984 . S
H1901 N1895 0.985 . S
H1902 N1899 0.984 . S
H1903 N1899 0.985 . S
H1904 N1898 0.984 . S
H1905 N1898 0.984 . S
H1906 N1894 0.984 . S
H1907 N1894 0.985 . S
C1908 C1909 1.363 . S
C1908 C1914 1.379 . S
C1908 N1916 1.356 . S
C1909 C1908 1.363 . S
C1909 C1915 1.363 . S
C1910 C1911 1.363 . S
C1910 C1915 1.379 . S
C1910 N1917 1.356 . S
C1911 C1910 1.363 . S
C1911 C1914 1.363 . S
N1912 C1914 1.356 . S
N1912 H1924 0.984 . S
N1912 H1925 0.985 . S
N1913 C1915 1.356 . S
N1913 H1918 0.984 . S
N1913 H1919 0.985 . S
C1914 C1908 1.379 . S
C1914 C1911 1.363 . S
C1914 N1912 1.356 . S
C1915 C1909 1.363 . S
C1915 C1910 1.379 . S
C1915 N1913 1.356 . S
N1916 C1908 1.356 . S
N1916 H1922 0.984 . S
N1916 H1923 0.984 . S
N1917 C1910 1.356 . S
N1917 H1920 0.984 . S
N1917 H1921 0.985 . S
H1918 N1913 0.984 . S
H1919 N1913 0.985 . S
H1920 N1917 0.984 . S
H1921 N1917 0.985 . S
H1922 N1916 0.984 . S
H1923 N1916 0.984 . S
H1924 N1912 0.984 . S
H1925 N1912 0.985 . S
C1926 C1927 1.363 . S
C1926 C1932 1.379 . S
C1926 N1934 1.356 . S
C1927 C1926 1.363 . S
C1927 C1933 1.363 . S
C1928 C1929 1.363 . S
C1928 C1933 1.379 . S
C1928 N1935 1.356 . S
C1929 C1928 1.363 . S
C1929 C1932 1.363 . S
N1930 C1932 1.356 . S
N1930 H1942 0.984 . S
N1930 H1943 0.985 . S
N1931 C1933 1.356 . S
N1931 H1936 0.984 . S
N1931 H1937 0.985 . S
C1932 C1926 1.379 . S
C1932 C1929 1.363 . S
C1932 N1930 1.356 . S
C1933 C1927 1.363 . S
C1933 C1928 1.379 . S
C1933 N1931 1.356 . S
N1934 C1926 1.356 . S
N1934 H1940 0.984 . S
N1934 H1941 0.984 . S
N1935 C1928 1.356 . S
N1935 H1938 0.984 . S
N1935 H1939 0.985 . S
H1936 N1931 0.984 . S
H1937 N1931 0.985 . S
H1938 N1935 0.984 . S
H1939 N1935 0.985 . S
H1940 N1934 0.984 . S
H1941 N1934 0.984 . S
H1942 N1930 0.984 . S
H1943 N1930 0.985 . S
C1944 C1945 1.363 . S
C1944 C1950 1.379 . S
C1944 N1952 1.356 . S
C1945 C1944 1.363 . S
C1945 C1951 1.363 . S
C1946 C1947 1.363 . S
C1946 C1951 1.379 . S
C1946 N1953 1.356 . S
C1947 C1946 1.363 . S
C1947 C1950 1.363 . S
N1948 C1950 1.356 . S
N1948 H1960 0.984 . S
N1948 H1961 0.985 . S
N1949 C1951 1.356 . S
N1949 H1954 0.984 . S
N1949 H1955 0.985 . S
C1950 C1944 1.379 . S
C1950 C1947 1.363 . S
C1950 N1948 1.356 . S
C1951 C1945 1.363 . S
C1951 C1946 1.379 . S
C1951 N1949 1.356 . S
N1952 C1944 1.356 . S
N1952 H1958 0.984 . S
N1952 H1959 0.984 . S
N1953 C1946 1.356 . S
N1953 H1956 0.984 . S
N1953 H1957 0.985 . S
H1954 N1949 0.984 . S
H1955 N1949 0.985 . S
H1956 N1953 0.984 . S
H1957 N1953 0.985 . S
H1958 N1952 0.984 . S
H1959 N1952 0.984 . S
H1960 N1948 0.984 . S
H1961 N1948 0.985 . S
C1962 C1963 1.363 . S
C1962 C1968 1.379 . S
C1962 N1970 1.356 . S
C1963 C1962 1.363 . S
C1963 C1969 1.363 . S
C1964 C1965 1.363 . S
C1964 C1969 1.379 . S
C1964 N1971 1.356 . S
C1965 C1964 1.363 . S
C1965 C1968 1.363 . S
N1966 C1968 1.356 . S
N1966 H1978 0.984 . S
N1966 H1979 0.985 . S
N1967 C1969 1.356 . S
N1967 H1972 0.984 . S
N1967 H1973 0.985 . S
C1968 C1962 1.379 . S
C1968 C1965 1.363 . S
C1968 N1966 1.356 . S
C1969 C1963 1.363 . S
C1969 C1964 1.379 . S
C1969 N1967 1.356 . S
N1970 C1962 1.356 . S
N1970 H1976 0.984 . S
N1970 H1977 0.984 . S
N1971 C1964 1.356 . S
N1971 H1974 0.984 . S
N1971 H1975 0.985 . S
H1972 N1967 0.984 . S
H1973 N1967 0.985 . S
H1974 N1971 0.984 . S
H1975 N1971 0.985 . S
H1976 N1970 0.984 . S
H1977 N1970 0.984 . S
H1978 N1966 0.984 . S
H1979 N1966 0.985 . S
C1980 C1981 1.363 . S
C1980 C1986 1.379 . S
C1980 N1988 1.356 . S
C1981 C1980 1.363 . S
C1981 C1987 1.363 . S
C1982 C1983 1.363 . S
C1982 C1987 1.379 . S
C1982 N1989 1.356 . S
C1983 C1982 1.363 . S
C1983 C1986 1.363 . S
N1984 C1986 1.356 . S
N1984 H1996 0.984 . S
N1984 H1997 0.985 . S
N1985 C1987 1.356 . S
N1985 H1990 0.984 . S
N1985 H1991 0.985 . S
C1986 C1980 1.379 . S
C1986 C1983 1.363 . S
C1986 N1984 1.356 . S
C1987 C1981 1.363 . S
C1987 C1982 1.379 . S
C1987 N1985 1.356 . S
N1988 C1980 1.356 . S
N1988 H1994 0.984 . S
N1988 H1995 0.984 . S
N1989 C1982 1.356 . S
N1989 H1992 0.984 . S
N1989 H1993 0.985 . S
H1990 N1985 0.984 . S
H1991 N1985 0.985 . S
H1992 N1989 0.984 . S
H1993 N1989 0.985 . S
H1994 N1988 0.984 . S
H1995 N1988 0.984 . S
H1996 N1984 0.984 . S
H1997 N1984 0.985 . S
C1998 C1999 1.363 . S
C1998 C2004 1.379 . S
C1998 N2006 1.356 . S
C1999 C1998 1.363 . S
C1999 C2005 1.363 . S
C2000 C2001 1.363 . S
C2000 C2005 1.379 . S
C2000 N2007 1.356 . S
C2001 C2000 1.363 . S
C2001 C2004 1.363 . S
N2002 C2004 1.356 . S
N2002 H2014 0.984 . S
N2002 H2015 0.985 . S
N2003 C2005 1.356 . S
N2003 H2008 0.984 . S
N2003 H2009 0.985 . S
C2004 C1998 1.379 . S
C2004 C2001 1.363 . S
C2004 N2002 1.356 . S
C2005 C1999 1.363 . S
C2005 C2000 1.379 . S
C2005 N2003 1.356 . S
N2006 C1998 1.356 . S
N2006 H2012 0.984 . S
N2006 H2013 0.984 . S
N2007 C2000 1.356 . S
N2007 H2010 0.984 . S
N2007 H2011 0.985 . S
H2008 N2003 0.984 . S
H2009 N2003 0.985 . S
H2010 N2007 0.984 . S
H2011 N2007 0.985 . S
H2012 N2006 0.984 . S
H2013 N2006 0.984 . S
H2014 N2002 0.984 . S
H2015 N2002 0.985 . S
C2016 C2017 1.363 . S
C2016 C2022 1.379 . S
C2016 N2024 1.356 . S
C2017 C2016 1.363 . S
C2017 C2023 1.363 . S
C2018 C2019 1.363 . S
C2018 C2023 1.379 . S
C2018 N2025 1.356 . S
C2019 C2018 1.363 . S
C2019 C2022 1.363 . S
N2020 C2022 1.356 . S
N2020 H2032 0.984 . S
N2020 H2033 0.985 . S
N2021 C2023 1.356 . S
N2021 H2026 0.984 . S
N2021 H2027 0.985 . S
C2022 C2016 1.379 . S
C2022 C2019 1.363 . S
C2022 N2020 1.356 . S
C2023 C2017 1.363 . S
C2023 C2018 1.379 . S
C2023 N2021 1.356 . S
N2024 C2016 1.356 . S
N2024 H2030 0.984 . S
N2024 H2031 0.984 . S
N2025 C2018 1.356 . S
N2025 H2028 0.984 . S
N2025 H2029 0.985 . S
H2026 N2021 0.984 . S
H2027 N2021 0.985 . S
H2028 N2025 0.984 . S
H2029 N2025 0.985 . S
H2030 N2024 0.984 . S
H2031 N2024 0.984 . S
H2032 N2020 0.984 . S
H2033 N2020 0.985 . S
C2034 C2035 1.363 . S
C2034 C2040 1.379 . S
C2034 N2042 1.356 . S
C2035 C2034 1.363 . S
C2035 C2041 1.363 . S
C2036 C2037 1.363 . S
C2036 C2041 1.379 . S
C2036 N2043 1.356 . S
C2037 C2036 1.363 . S
C2037 C2040 1.363 . S
N2038 C2040 1.356 . S
N2038 H2050 0.984 . S
N2038 H2051 0.985 . S
N2039 C2041 1.356 . S
N2039 H2044 0.984 . S
N2039 H2045 0.985 . S
C2040 C2034 1.379 . S
C2040 C2037 1.363 . S
C2040 N2038 1.356 . S
C2041 C2035 1.363 . S
C2041 C2036 1.379 . S
C2041 N2039 1.356 . S
N2042 C2034 1.356 . S
N2042 H2048 0.984 . S
N2042 H2049 0.984 . S
N2043 C2036 1.356 . S
N2043 H2046 0.984 . S
N2043 H2047 0.985 . S
H2044 N2039 0.984 . S
H2045 N2039 0.985 . S
H2046 N2043 0.984 . S
H2047 N2043 0.985 . S
H2048 N2042 0.984 . S
H2049 N2042 0.984 . S
H2050 N2038 0.984 . S
H2051 N2038 0.985 . S
C2052 C2053 1.363 . S
C2052 C2058 1.379 . S
C2052 N2060 1.356 . S
C2053 C2052 1.363 . S
C2053 C2059 1.363 . S
C2054 C2055 1.363 . S
C2054 C2059 1.379 . S
C2054 N2061 1.356 . S
C2055 C2054 1.363 . S
C2055 C2058 1.363 . S
N2056 C2058 1.356 . S
N2056 H2068 0.984 . S
N2056 H2069 0.985 . S
N2057 C2059 1.356 . S
N2057 H2062 0.984 . S
N2057 H2063 0.985 . S
C2058 C2052 1.379 . S
C2058 C2055 1.363 . S
C2058 N2056 1.356 . S
C2059 C2053 1.363 . S
C2059 C2054 1.379 . S
C2059 N2057 1.356 . S
N2060 C2052 1.356 . S
N2060 H2066 0.984 . S
N2060 H2067 0.984 . S
N2061 C2054 1.356 . S
N2061 H2064 0.984 . S
N2061 H2065 0.985 . S
H2062 N2057 0.984 . S
H2063 N2057 0.985 . S
H2064 N2061 0.984 . S
H2065 N2061 0.985 . S
H2066 N2060 0.984 . S
H2067 N2060 0.984 . S
H2068 N2056 0.984 . S
H2069 N2056 0.985 . S
C2070 C2071 1.363 . S
C2070 C2076 1.379 . S
C2070 N2078 1.356 . S
C2071 C2070 1.363 . S
C2071 C2077 1.363 . S
C2072 C2073 1.363 . S
C2072 C2077 1.379 . S
C2072 N2079 1.356 . S
C2073 C2072 1.363 . S
C2073 C2076 1.363 . S
N2074 C2076 1.356 . S
N2074 H2086 0.984 . S
N2074 H2087 0.985 . S
N2075 C2077 1.356 . S
N2075 H2080 0.984 . S
N2075 H2081 0.985 . S
C2076 C2070 1.379 . S
C2076 C2073 1.363 . S
C2076 N2074 1.356 . S
C2077 C2071 1.363 . S
C2077 C2072 1.379 . S
C2077 N2075 1.356 . S
N2078 C2070 1.356 . S
N2078 H2084 0.984 . S
N2078 H2085 0.984 . S
N2079 C2072 1.356 . S
N2079 H2082 0.984 . S
N2079 H2083 0.985 . S
H2080 N2075 0.984 . S
H2081 N2075 0.985 . S
H2082 N2079 0.984 . S
H2083 N2079 0.985 . S
H2084 N2078 0.984 . S
H2085 N2078 0.984 . S
H2086 N2074 0.984 . S
H2087 N2074 0.985 . S
C2088 C2089 1.363 . S
C2088 C2094 1.379 . S
C2088 N2096 1.356 . S
C2089 C2088 1.363 . S
C2089 C2095 1.363 . S
C2090 C2091 1.363 . S
C2090 C2095 1.379 . S
C2090 N2097 1.356 . S
C2091 C2090 1.363 . S
C2091 C2094 1.363 . S
N2092 C2094 1.356 . S
N2092 H2104 0.984 . S
N2092 H2105 0.985 . S
N2093 C2095 1.356 . S
N2093 H2098 0.984 . S
N2093 H2099 0.985 . S
C2094 C2088 1.379 . S
C2094 C2091 1.363 . S
C2094 N2092 1.356 . S
C2095 C2089 1.363 . S
C2095 C2090 1.379 . S
C2095 N2093 1.356 . S
N2096 C2088 1.356 . S
N2096 H2102 0.984 . S
N2096 H2103 0.984 . S
N2097 C2090 1.356 . S
N2097 H2100 0.984 . S
N2097 H2101 0.985 . S
H2098 N2093 0.984 . S
H2099 N2093 0.985 . S
H2100 N2097 0.984 . S
H2101 N2097 0.985 . S
H2102 N2096 0.984 . S
H2103 N2096 0.984 . S
H2104 N2092 0.984 . S
H2105 N2092 0.985 . S
C2106 C2107 1.363 . S
C2106 C2112 1.379 . S
C2106 N2114 1.356 . S
C2107 C2106 1.363 . S
C2107 C2113 1.363 . S
C2108 C2109 1.363 . S
C2108 C2113 1.379 . S
C2108 N2115 1.356 . S
C2109 C2108 1.363 . S
C2109 C2112 1.363 . S
N2110 C2112 1.356 . S
N2110 H2122 0.984 . S
N2110 H2123 0.985 . S
N2111 C2113 1.356 . S
N2111 H2116 0.984 . S
N2111 H2117 0.985 . S
C2112 C2106 1.379 . S
C2112 C2109 1.363 . S
C2112 N2110 1.356 . S
C2113 C2107 1.363 . S
C2113 C2108 1.379 . S
C2113 N2111 1.356 . S
N2114 C2106 1.356 . S
N2114 H2120 0.984 . S
N2114 H2121 0.984 . S
N2115 C2108 1.356 . S
N2115 H2118 0.984 . S
N2115 H2119 0.985 . S
H2116 N2111 0.984 . S
H2117 N2111 0.985 . S
H2118 N2115 0.984 . S
H2119 N2115 0.985 . S
H2120 N2114 0.984 . S
H2121 N2114 0.984 . S
H2122 N2110 0.984 . S
H2123 N2110 0.985 . S
C2124 C2125 1.363 . S
C2124 C2130 1.379 . S
C2124 N2132 1.356 . S
C2125 C2124 1.363 . S
C2125 C2131 1.363 . S
C2126 C2127 1.363 . S
C2126 C2131 1.379 . S
C2126 N2133 1.356 . S
C2127 C2126 1.363 . S
C2127 C2130 1.363 . S
N2128 C2130 1.356 . S
N2128 H2140 0.984 . S
N2128 H2141 0.985 . S
N2129 C2131 1.356 . S
N2129 H2134 0.984 . S
N2129 H2135 0.985 . S
C2130 C2124 1.379 . S
C2130 C2127 1.363 . S
C2130 N2128 1.356 . S
C2131 C2125 1.363 . S
C2131 C2126 1.379 . S
C2131 N2129 1.356 . S
N2132 C2124 1.356 . S
N2132 H2138 0.984 . S
N2132 H2139 0.984 . S
N2133 C2126 1.356 . S
N2133 H2136 0.984 . S
N2133 H2137 0.985 . S
H2134 N2129 0.984 . S
H2135 N2129 0.985 . S
H2136 N2133 0.984 . S
H2137 N2133 0.985 . S
H2138 N2132 0.984 . S
H2139 N2132 0.984 . S
H2140 N2128 0.984 . S
H2141 N2128 0.985 . S
C2142 C2143 1.363 . S
C2142 C2148 1.379 . S
C2142 N2150 1.356 . S
C2143 C2142 1.363 . S
C2143 C2149 1.363 . S
C2144 C2145 1.363 . S
C2144 C2149 1.379 . S
C2144 N2151 1.356 . S
C2145 C2144 1.363 . S
C2145 C2148 1.363 . S
N2146 C2148 1.356 . S
N2146 H2158 0.984 . S
N2146 H2159 0.985 . S
N2147 C2149 1.356 . S
N2147 H2152 0.984 . S
N2147 H2153 0.985 . S
C2148 C2142 1.379 . S
C2148 C2145 1.363 . S
C2148 N2146 1.356 . S
C2149 C2143 1.363 . S
C2149 C2144 1.379 . S
C2149 N2147 1.356 . S
N2150 C2142 1.356 . S
N2150 H2156 0.984 . S
N2150 H2157 0.984 . S
N2151 C2144 1.356 . S
N2151 H2154 0.984 . S
N2151 H2155 0.985 . S
H2152 N2147 0.984 . S
H2153 N2147 0.985 . S
H2154 N2151 0.984 . S
H2155 N2151 0.985 . S
H2156 N2150 0.984 . S
H2157 N2150 0.984 . S
H2158 N2146 0.984 . S
H2159 N2146 0.985 . S
C2160 C2161 1.363 . S
C2160 C2166 1.379 . S
C2160 N2168 1.356 . S
C2161 C2160 1.363 . S
C2161 C2167 1.363 . S
C2162 C2163 1.363 . S
C2162 C2167 1.379 . S
C2162 N2169 1.356 . S
C2163 C2162 1.363 . S
C2163 C2166 1.363 . S
N2164 C2166 1.356 . S
N2164 H2176 0.984 . S
N2164 H2177 0.985 . S
N2165 C2167 1.356 . S
N2165 H2170 0.984 . S
N2165 H2171 0.985 . S
C2166 C2160 1.379 . S
C2166 C2163 1.363 . S
C2166 N2164 1.356 . S
C2167 C2161 1.363 . S
C2167 C2162 1.379 . S
C2167 N2165 1.356 . S
N2168 C2160 1.356 . S
N2168 H2174 0.984 . S
N2168 H2175 0.984 . S
N2169 C2162 1.356 . S
N2169 H2172 0.984 . S
N2169 H2173 0.985 . S
H2170 N2165 0.984 . S
H2171 N2165 0.985 . S
H2172 N2169 0.984 . S
H2173 N2169 0.985 . S
H2174 N2168 0.984 . S
H2175 N2168 0.984 . S
H2176 N2164 0.984 . S
H2177 N2164 0.985 . S
C2178 C2179 1.363 . S
C2178 C2184 1.379 . S
C2178 N2186 1.356 . S
C2179 C2178 1.363 . S
C2179 C2185 1.363 . S
C2180 C2181 1.363 . S
C2180 C2185 1.379 . S
C2180 N2187 1.356 . S
C2181 C2180 1.363 . S
C2181 C2184 1.363 . S
N2182 C2184 1.356 . S
N2182 H2194 0.984 . S
N2182 H2195 0.985 . S
N2183 C2185 1.356 . S
N2183 H2188 0.984 . S
N2183 H2189 0.985 . S
C2184 C2178 1.379 . S
C2184 C2181 1.363 . S
C2184 N2182 1.356 . S
C2185 C2179 1.363 . S
C2185 C2180 1.379 . S
C2185 N2183 1.356 . S
N2186 C2178 1.356 . S
N2186 H2192 0.984 . S
N2186 H2193 0.984 . S
N2187 C2180 1.356 . S
N2187 H2190 0.984 . S
N2187 H2191 0.985 . S
H2188 N2183 0.984 . S
H2189 N2183 0.985 . S
H2190 N2187 0.984 . S
H2191 N2187 0.985 . S
H2192 N2186 0.984 . S
H2193 N2186 0.984 . S
H2194 N2182 0.984 . S
H2195 N2182 0.985 . S
C2196 C2197 1.363 . S
C2196 C2202 1.379 . S
C2196 N2204 1.356 . S
C2197 C2196 1.363 . S
C2197 C2203 1.363 . S
C2198 C2199 1.363 . S
C2198 C2203 1.379 . S
C2198 N2205 1.356 . S
C2199 C2198 1.363 . S
C2199 C2202 1.363 . S
N2200 C2202 1.356 . S
N2200 H2212 0.984 . S
N2200 H2213 0.985 . S
N2201 C2203 1.356 . S
N2201 H2206 0.984 . S
N2201 H2207 0.985 . S
C2202 C2196 1.379 . S
C2202 C2199 1.363 . S
C2202 N2200 1.356 . S
C2203 C2197 1.363 . S
C2203 C2198 1.379 . S
C2203 N2201 1.356 . S
N2204 C2196 1.356 . S
N2204 H2210 0.984 . S
N2204 H2211 0.984 . S
N2205 C2198 1.356 . S
N2205 H2208 0.984 . S
N2205 H2209 0.985 . S
H2206 N2201 0.984 . S
H2207 N2201 0.985 . S
H2208 N2205 0.984 . S
H2209 N2205 0.985 . S
H2210 N2204 0.984 . S
H2211 N2204 0.984 . S
H2212 N2200 0.984 . S
H2213 N2200 0.985 . S
C2214 C2215 1.363 . S
C2214 C2220 1.379 . S
C2214 N2222 1.356 . S
C2215 C2214 1.363 . S
C2215 C2221 1.363 . S
C2216 C2217 1.363 . S
C2216 C2221 1.379 . S
C2216 N2223 1.356 . S
C2217 C2216 1.363 . S
C2217 C2220 1.363 . S
N2218 C2220 1.356 . S
N2218 H2230 0.984 . S
N2218 H2231 0.985 . S
N2219 C2221 1.356 . S
N2219 H2224 0.984 . S
N2219 H2225 0.985 . S
C2220 C2214 1.379 . S
C2220 C2217 1.363 . S
C2220 N2218 1.356 . S
C2221 C2215 1.363 . S
C2221 C2216 1.379 . S
C2221 N2219 1.356 . S
N2222 C2214 1.356 . S
N2222 H2228 0.984 . S
N2222 H2229 0.984 . S
N2223 C2216 1.356 . S
N2223 H2226 0.984 . S
N2223 H2227 0.985 . S
H2224 N2219 0.984 . S
H2225 N2219 0.985 . S
H2226 N2223 0.984 . S
H2227 N2223 0.985 . S
H2228 N2222 0.984 . S
H2229 N2222 0.984 . S
H2230 N2218 0.984 . S
H2231 N2218 0.985 . S
C2232 C2233 1.363 . S
C2232 C2238 1.379 . S
C2232 N2240 1.356 . S
C2233 C2232 1.363 . S
C2233 C2239 1.363 . S
C2234 C2235 1.363 . S
C2234 C2239 1.379 . S
C2234 N2241 1.356 . S
C2235 C2234 1.363 . S
C2235 C2238 1.363 . S
N2236 C2238 1.356 . S
N2236 H2248 0.984 . S
N2236 H2249 0.985 . S
N2237 C2239 1.356 . S
N2237 H2242 0.984 . S
N2237 H2243 0.985 . S
C2238 C2232 1.379 . S
C2238 C2235 1.363 . S
C2238 N2236 1.356 . S
C2239 C2233 1.363 . S
C2239 C2234 1.379 . S
C2239 N2237 1.356 . S
N2240 C2232 1.356 . S
N2240 H2246 0.984 . S
N2240 H2247 0.984 . S
N2241 C2234 1.356 . S
N2241 H2244 0.984 . S
N2241 H2245 0.985 . S
H2242 N2237 0.984 . S
H2243 N2237 0.985 . S
H2244 N2241 0.984 . S
H2245 N2241 0.985 . S
H2246 N2240 0.984 . S
H2247 N2240 0.984 . S
H2248 N2236 0.984 . S
H2249 N2236 0.985 . S
C2250 C2251 1.363 . S
C2250 C2256 1.379 . S
C2250 N2258 1.356 . S
C2251 C2250 1.363 . S
C2251 C2257 1.363 . S
C2252 C2253 1.363 . S
C2252 C2257 1.379 . S
C2252 N2259 1.356 . S
C2253 C2252 1.363 . S
C2253 C2256 1.363 . S
N2254 C2256 1.356 . S
N2254 H2266 0.984 . S
N2254 H2267 0.985 . S
N2255 C2257 1.356 . S
N2255 H2260 0.984 . S
N2255 H2261 0.985 . S
C2256 C2250 1.379 . S
C2256 C2253 1.363 . S
C2256 N2254 1.356 . S
C2257 C2251 1.363 . S
C2257 C2252 1.379 . S
C2257 N2255 1.356 . S
N2258 C2250 1.356 . S
N2258 H2264 0.984 . S
N2258 H2265 0.984 . S
N2259 C2252 1.356 . S
N2259 H2262 0.984 . S
N2259 H2263 0.985 . S
H2260 N2255 0.984 . S
H2261 N2255 0.985 . S
H2262 N2259 0.984 . S
H2263 N2259 0.985 . S
H2264 N2258 0.984 . S
H2265 N2258 0.984 . S
H2266 N2254 0.984 . S
H2267 N2254 0.985 . S
C2268 C2269 1.363 . S
C2268 C2274 1.379 . S
C2268 N2276 1.356 . S
C2269 C2268 1.363 . S
C2269 C2275 1.363 . S
C2270 C2271 1.363 . S
C2270 C2275 1.379 . S
C2270 N2277 1.356 . S
C2271 C2270 1.363 . S
C2271 C2274 1.363 . S
N2272 C2274 1.356 . S
N2272 H2284 0.984 . S
N2272 H2285 0.985 . S
N2273 C2275 1.356 . S
N2273 H2278 0.984 . S
N2273 H2279 0.985 . S
C2274 C2268 1.379 . S
C2274 C2271 1.363 . S
C2274 N2272 1.356 . S
C2275 C2269 1.363 . S
C2275 C2270 1.379 . S
C2275 N2273 1.356 . S
N2276 C2268 1.356 . S
N2276 H2282 0.984 . S
N2276 H2283 0.984 . S
N2277 C2270 1.356 . S
N2277 H2280 0.984 . S
N2277 H2281 0.985 . S
H2278 N2273 0.984 . S
H2279 N2273 0.985 . S
H2280 N2277 0.984 . S
H2281 N2277 0.985 . S
H2282 N2276 0.984 . S
H2283 N2276 0.984 . S
H2284 N2272 0.984 . S
H2285 N2272 0.985 . S
C2286 C2287 1.363 . S
C2286 C2292 1.379 . S
C2286 N2294 1.356 . S
C2287 C2286 1.363 . S
C2287 C2293 1.363 . S
C2288 C2289 1.363 . S
C2288 C2293 1.379 . S
C2288 N2295 1.356 . S
C2289 C2288 1.363 . S
C2289 C2292 1.363 . S
N2290 C2292 1.356 . S
N2290 H2302 0.984 . S
N2290 H2303 0.985 . S
N2291 C2293 1.356 . S
N2291 H2296 0.984 . S
N2291 H2297 0.985 . S
C2292 C2286 1.379 . S
C2292 C2289 1.363 . S
C2292 N2290 1.356 . S
C2293 C2287 1.363 . S
C2293 C2288 1.379 . S
C2293 N2291 1.356 . S
N2294 C2286 1.356 . S
N2294 H2300 0.984 . S
N2294 H2301 0.984 . S
N2295 C2288 1.356 . S
N2295 H2298 0.984 . S
N2295 H2299 0.985 . S
H2296 N2291 0.984 . S
H2297 N2291 0.985 . S
H2298 N2295 0.984 . S
H2299 N2295 0.985 . S
H2300 N2294 0.984 . S
H2301 N2294 0.984 . S
H2302 N2290 0.984 . S
H2303 N2290 0.985 . S
C2304 C2305 1.363 . S
C2304 C2310 1.379 . S
C2304 N2312 1.356 . S
C2305 C2304 1.363 . S
C2305 C2311 1.363 . S
C2306 C2307 1.363 . S
C2306 C2311 1.379 . S
C2306 N2313 1.356 . S
C2307 C2306 1.363 . S
C2307 C2310 1.363 . S
N2308 C2310 1.356 . S
N2308 H2320 0.984 . S
N2308 H2321 0.985 . S
N2309 C2311 1.356 . S
N2309 H2314 0.984 . S
N2309 H2315 0.985 . S
C2310 C2304 1.379 . S
C2310 C2307 1.363 . S
C2310 N2308 1.356 . S
C2311 C2305 1.363 . S
C2311 C2306 1.379 . S
C2311 N2309 1.356 . S
N2312 C2304 1.356 . S
N2312 H2318 0.984 . S
N2312 H2319 0.984 . S
N2313 C2306 1.356 . S
N2313 H2316 0.984 . S
N2313 H2317 0.985 . S
H2314 N2309 0.984 . S
H2315 N2309 0.985 . S
H2316 N2313 0.984 . S
H2317 N2313 0.985 . S
H2318 N2312 0.984 . S
H2319 N2312 0.984 . S
H2320 N2308 0.984 . S
H2321 N2308 0.985 . S
C2322 C2323 1.363 . S
C2322 C2328 1.379 . S
C2322 N2330 1.356 . S
C2323 C2322 1.363 . S
C2323 C2329 1.363 . S
C2324 C2325 1.363 . S
C2324 C2329 1.379 . S
C2324 N2331 1.356 . S
C2325 C2324 1.363 . S
C2325 C2328 1.363 . S
N2326 C2328 1.356 . S
N2326 H2338 0.984 . S
N2326 H2339 0.985 . S
N2327 C2329 1.356 . S
N2327 H2332 0.984 . S
N2327 H2333 0.985 . S
C2328 C2322 1.379 . S
C2328 C2325 1.363 . S
C2328 N2326 1.356 . S
C2329 C2323 1.363 . S
C2329 C2324 1.379 . S
C2329 N2327 1.356 . S
N2330 C2322 1.356 . S
N2330 H2336 0.984 . S
N2330 H2337 0.984 . S
N2331 C2324 1.356 . S
N2331 H2334 0.984 . S
N2331 H2335 0.985 . S
H2332 N2327 0.984 . S
H2333 N2327 0.985 . S
H2334 N2331 0.984 . S
H2335 N2331 0.985 . S
H2336 N2330 0.984 . S
H2337 N2330 0.984 . S
H2338 N2326 0.984 . S
H2339 N2326 0.985 . S
C2340 C2341 1.363 . S
C2340 C2346 1.379 . S
C2340 N2348 1.356 . S
C2341 C2340 1.363 . S
C2341 C2347 1.363 . S
C2342 C2343 1.363 . S
C2342 C2347 1.379 . S
C2342 N2349 1.356 . S
C2343 C2342 1.363 . S
C2343 C2346 1.363 . S
N2344 C2346 1.356 . S
N2344 H2356 0.984 . S
N2344 H2357 0.985 . S
N2345 C2347 1.356 . S
N2345 H2350 0.984 . S
N2345 H2351 0.985 . S
C2346 C2340 1.379 . S
C2346 C2343 1.363 . S
C2346 N2344 1.356 . S
C2347 C2341 1.363 . S
C2347 C2342 1.379 . S
C2347 N2345 1.356 . S
N2348 C2340 1.356 . S
N2348 H2354 0.984 . S
N2348 H2355 0.984 . S
N2349 C2342 1.356 . S
N2349 H2352 0.984 . S
N2349 H2353 0.985 . S
H2350 N2345 0.984 . S
H2351 N2345 0.985 . S
H2352 N2349 0.984 . S
H2353 N2349 0.985 . S
H2354 N2348 0.984 . S
H2355 N2348 0.984 . S
H2356 N2344 0.984 . S
H2357 N2344 0.985 . S
C2358 C2359 1.363 . S
C2358 C2364 1.379 . S
C2358 N2366 1.356 . S
C2359 C2358 1.363 . S
C2359 C2365 1.363 . S
C2360 C2361 1.363 . S
C2360 C2365 1.379 . S
C2360 N2367 1.356 . S
C2361 C2360 1.363 . S
C2361 C2364 1.363 . S
N2362 C2364 1.356 . S
N2362 H2374 0.984 . S
N2362 H2375 0.985 . S
N2363 C2365 1.356 . S
N2363 H2368 0.984 . S
N2363 H2369 0.985 . S
C2364 C2358 1.379 . S
C2364 C2361 1.363 . S
C2364 N2362 1.356 . S
C2365 C2359 1.363 . S
C2365 C2360 1.379 . S
C2365 N2363 1.356 . S
N2366 C2358 1.356 . S
N2366 H2372 0.984 . S
N2366 H2373 0.984 . S
N2367 C2360 1.356 . S
N2367 H2370 0.984 . S
N2367 H2371 0.985 . S
H2368 N2363 0.984 . S
H2369 N2363 0.985 . S
H2370 N2367 0.984 . S
H2371 N2367 0.985 . S
H2372 N2366 0.984 . S
H2373 N2366 0.984 . S
H2374 N2362 0.984 . S
H2375 N2362 0.985 . S
C2376 C2377 1.363 . S
C2376 C2382 1.379 . S
C2376 N2384 1.356 . S
C2377 C2376 1.363 . S
C2377 C2383 1.363 . S
C2378 C2379 1.363 . S
C2378 C2383 1.379 . S
C2378 N2385 1.356 . S
C2379 C2378 1.363 . S
C2379 C2382 1.363 . S
N2380 C2382 1.356 . S
N2380 H2392 0.984 . S
N2380 H2393 0.985 . S
N2381 C2383 1.356 . S
N2381 H2386 0.984 . S
N2381 H2387 0.985 . S
C2382 C2376 1.379 . S
C2382 C2379 1.363 . S
C2382 N2380 1.356 . S
C2383 C2377 1.363 . S
C2383 C2378 1.379 . S
C2383 N2381 1.356 . S
N2384 C2376 1.356 . S
N2384 H2390 0.984 . S
N2384 H2391 0.984 . S
N2385 C2378 1.356 . S
N2385 H2388 0.984 . S
N2385 H2389 0.985 . S
H2386 N2381 0.984 . S
H2387 N2381 0.985 . S
H2388 N2385 0.984 . S
H2389 N2385 0.985 . S
H2390 N2384 0.984 . S
H2391 N2384 0.984 . S
H2392 N2380 0.984 . S
H2393 N2380 0.985 . S
C2394 C2395 1.363 . S
C2394 C2400 1.379 . S
C2394 N2402 1.356 . S
C2395 C2394 1.363 . S
C2395 C2401 1.363 . S
C2396 C2397 1.363 . S
C2396 C2401 1.379 . S
C2396 N2403 1.356 . S
C2397 C2396 1.363 . S
C2397 C2400 1.363 . S
N2398 C2400 1.356 . S
N2398 H2410 0.984 . S
N2398 H2411 0.985 . S
N2399 C2401 1.356 . S
N2399 H2404 0.984 . S
N2399 H2405 0.985 . S
C2400 C2394 1.379 . S
C2400 C2397 1.363 . S
C2400 N2398 1.356 . S
C2401 C2395 1.363 . S
C2401 C2396 1.379 . S
C2401 N2399 1.356 . S
N2402 C2394 1.356 . S
N2402 H2408 0.984 . S
N2402 H2409 0.984 . S
N2403 C2396 1.356 . S
N2403 H2406 0.984 . S
N2403 H2407 0.985 . S
H2404 N2399 0.984 . S
H2405 N2399 0.985 . S
H2406 N2403 0.984 . S
H2407 N2403 0.985 . S
H2408 N2402 0.984 . S
H2409 N2402 0.984 . S
H2410 N2398 0.984 . S
H2411 N2398 0.985 . S
C2412 C2413 1.363 . S
C2412 C2418 1.379 . S
C2412 N2420 1.356 . S
C2413 C2412 1.363 . S
C2413 C2419 1.363 . S
C2414 C2415 1.363 . S
C2414 C2419 1.379 . S
C2414 N2421 1.356 . S
C2415 C2414 1.363 . S
C2415 C2418 1.363 . S
N2416 C2418 1.356 . S
N2416 H2428 0.984 . S
N2416 H2429 0.985 . S
N2417 C2419 1.356 . S
N2417 H2422 0.984 . S
N2417 H2423 0.985 . S
C2418 C2412 1.379 . S
C2418 C2415 1.363 . S
C2418 N2416 1.356 . S
C2419 C2413 1.363 . S
C2419 C2414 1.379 . S
C2419 N2417 1.356 . S
N2420 C2412 1.356 . S
N2420 H2426 0.984 . S
N2420 H2427 0.984 . S
N2421 C2414 1.356 . S
N2421 H2424 0.984 . S
N2421 H2425 0.985 . S
H2422 N2417 0.984 . S
H2423 N2417 0.985 . S
H2424 N2421 0.984 . S
H2425 N2421 0.985 . S
H2426 N2420 0.984 . S
H2427 N2420 0.984 . S
H2428 N2416 0.984 . S
H2429 N2416 0.985 . S
C2430 C2431 1.363 . S
C2430 C2436 1.379 . S
C2430 N2438 1.356 . S
C2431 C2430 1.363 . S
C2431 C2437 1.363 . S
C2432 C2433 1.363 . S
C2432 C2437 1.379 . S
C2432 N2439 1.356 . S
C2433 C2432 1.363 . S
C2433 C2436 1.363 . S
N2434 C2436 1.356 . S
N2434 H2446 0.984 . S
N2434 H2447 0.985 . S
N2435 C2437 1.356 . S
N2435 H2440 0.984 . S
N2435 H2441 0.985 . S
C2436 C2430 1.379 . S
C2436 C2433 1.363 . S
C2436 N2434 1.356 . S
C2437 C2431 1.363 . S
C2437 C2432 1.379 . S
C2437 N2435 1.356 . S
N2438 C2430 1.356 . S
N2438 H2444 0.984 . S
N2438 H2445 0.984 . S
N2439 C2432 1.356 . S
N2439 H2442 0.984 . S
N2439 H2443 0.985 . S
H2440 N2435 0.984 . S
H2441 N2435 0.985 . S
H2442 N2439 0.984 . S
H2443 N2439 0.985 . S
H2444 N2438 0.984 . S
H2445 N2438 0.984 . S
H2446 N2434 0.984 . S
H2447 N2434 0.985 . S
C2448 C2449 1.363 . S
C2448 C2454 1.379 . S
C2448 N2456 1.356 . S
C2449 C2448 1.363 . S
C2449 C2455 1.363 . S
C2450 C2451 1.363 . S
C2450 C2455 1.379 . S
C2450 N2457 1.356 . S
C2451 C2450 1.363 . S
C2451 C2454 1.363 . S
N2452 C2454 1.356 . S
N2452 H2464 0.984 . S
N2452 H2465 0.985 . S
N2453 C2455 1.356 . S
N2453 H2458 0.984 . S
N2453 H2459 0.985 . S
C2454 C2448 1.379 . S
C2454 C2451 1.363 . S
C2454 N2452 1.356 . S
C2455 C2449 1.363 . S
C2455 C2450 1.379 . S
C2455 N2453 1.356 . S
N2456 C2448 1.356 . S
N2456 H2462 0.984 . S
N2456 H2463 0.984 . S
N2457 C2450 1.356 . S
N2457 H2460 0.984 . S
N2457 H2461 0.985 . S
H2458 N2453 0.984 . S
H2459 N2453 0.985 . S
H2460 N2457 0.984 . S
H2461 N2457 0.985 . S
H2462 N2456 0.984 . S
H2463 N2456 0.984 . S
H2464 N2452 0.984 . S
H2465 N2452 0.985 . S
C2466 C2467 1.363 . S
C2466 C2472 1.379 . S
C2466 N2474 1.356 . S
C2467 C2466 1.363 . S
C2467 C2473 1.363 . S
C2468 C2469 1.363 . S
C2468 C2473 1.379 . S
C2468 N2475 1.356 . S
C2469 C2468 1.363 . S
C2469 C2472 1.363 . S
N2470 C2472 1.356 . S
N2470 H2482 0.984 . S
N2470 H2483 0.985 . S
N2471 C2473 1.356 . S
N2471 H2476 0.984 . S
N2471 H2477 0.985 . S
C2472 C2466 1.379 . S
C2472 C2469 1.363 . S
C2472 N2470 1.356 . S
C2473 C2467 1.363 . S
C2473 C2468 1.379 . S
C2473 N2471 1.356 . S
N2474 C2466 1.356 . S
N2474 H2480 0.984 . S
N2474 H2481 0.984 . S
N2475 C2468 1.356 . S
N2475 H2478 0.984 . S
N2475 H2479 0.985 . S
H2476 N2471 0.984 . S
H2477 N2471 0.985 . S
H2478 N2475 0.984 . S
H2479 N2475 0.985 . S
H2480 N2474 0.984 . S
H2481 N2474 0.984 . S
H2482 N2470 0.984 . S
H2483 N2470 0.985 . S
C2484 C2485 1.363 . S
C2484 C2490 1.379 . S
C2484 N2492 1.356 . S
C2485 C2484 1.363 . S
C2485 C2491 1.363 . S
C2486 C2487 1.363 . S
C2486 C2491 1.379 . S
C2486 N2493 1.356 . S
C2487 C2486 1.363 . S
C2487 C2490 1.363 . S
N2488 C2490 1.356 . S
N2488 H2500 0.984 . S
N2488 H2501 0.985 . S
N2489 C2491 1.356 . S
N2489 H2494 0.984 . S
N2489 H2495 0.985 . S
C2490 C2484 1.379 . S
C2490 C2487 1.363 . S
C2490 N2488 1.356 . S
C2491 C2485 1.363 . S
C2491 C2486 1.379 . S
C2491 N2489 1.356 . S
N2492 C2484 1.356 . S
N2492 H2498 0.984 . S
N2492 H2499 0.984 . S
N2493 C2486 1.356 . S
N2493 H2496 0.984 . S
N2493 H2497 0.985 . S
H2494 N2489 0.984 . S
H2495 N2489 0.985 . S
H2496 N2493 0.984 . S
H2497 N2493 0.985 . S
H2498 N2492 0.984 . S
H2499 N2492 0.984 . S
H2500 N2488 0.984 . S
H2501 N2488 0.985 . S
C2502 C2503 1.363 . S
C2502 C2508 1.379 . S
C2502 N2510 1.356 . S
C2503 C2502 1.363 . S
C2503 C2509 1.363 . S
C2504 C2505 1.363 . S
C2504 C2509 1.379 . S
C2504 N2511 1.356 . S
C2505 C2504 1.363 . S
C2505 C2508 1.363 . S
N2506 C2508 1.356 . S
N2506 H2518 0.984 . S
N2506 H2519 0.985 . S
N2507 C2509 1.356 . S
N2507 H2512 0.984 . S
N2507 H2513 0.985 . S
C2508 C2502 1.379 . S
C2508 C2505 1.363 . S
C2508 N2506 1.356 . S
C2509 C2503 1.363 . S
C2509 C2504 1.379 . S
C2509 N2507 1.356 . S
N2510 C2502 1.356 . S
N2510 H2516 0.984 . S
N2510 H2517 0.984 . S
N2511 C2504 1.356 . S
N2511 H2514 0.984 . S
N2511 H2515 0.985 . S
H2512 N2507 0.984 . S
H2513 N2507 0.985 . S
H2514 N2511 0.984 . S
H2515 N2511 0.985 . S
H2516 N2510 0.984 . S
H2517 N2510 0.984 . S
H2518 N2506 0.984 . S
H2519 N2506 0.985 . S
C2520 C2521 1.363 . S
C2520 C2526 1.379 . S
C2520 N2528 1.356 . S
C2521 C2520 1.363 . S
C2521 C2527 1.363 . S
C2522 C2523 1.363 . S
C2522 C2527 1.379 . S
C2522 N2529 1.356 . S
C2523 C2522 1.363 . S
C2523 C2526 1.363 . S
N2524 C2526 1.356 . S
N2524 H2536 0.984 . S
N2524 H2537 0.985 . S
N2525 C2527 1.356 . S
N2525 H2530 0.984 . S
N2525 H2531 0.985 . S
C2526 C2520 1.379 . S
C2526 C2523 1.363 . S
C2526 N2524 1.356 . S
C2527 C2521 1.363 . S
C2527 C2522 1.379 . S
C2527 N2525 1.356 . S
N2528 C2520 1.356 . S
N2528 H2534 0.984 . S
N2528 H2535 0.984 . S
N2529 C2522 1.356 . S
N2529 H2532 0.984 . S
N2529 H2533 0.985 . S
H2530 N2525 0.984 . S
H2531 N2525 0.985 . S
H2532 N2529 0.984 . S
H2533 N2529 0.985 . S
H2534 N2528 0.984 . S
H2535 N2528 0.984 . S
H2536 N2524 0.984 . S
H2537 N2524 0.985 . S
C2538 C2539 1.363 . S
C2538 C2544 1.379 . S
C2538 N2546 1.356 . S
C2539 C2538 1.363 . S
C2539 C2545 1.363 . S
C2540 C2541 1.363 . S
C2540 C2545 1.379 . S
C2540 N2547 1.356 . S
C2541 C2540 1.363 . S
C2541 C2544 1.363 . S
N2542 C2544 1.356 . S
N2542 H2554 0.984 . S
N2542 H2555 0.985 . S
N2543 C2545 1.356 . S
N2543 H2548 0.984 . S
N2543 H2549 0.985 . S
C2544 C2538 1.379 . S
C2544 C2541 1.363 . S
C2544 N2542 1.356 . S
C2545 C2539 1.363 . S
C2545 C2540 1.379 . S
C2545 N2543 1.356 . S
N2546 C2538 1.356 . S
N2546 H2552 0.984 . S
N2546 H2553 0.984 . S
N2547 C2540 1.356 . S
N2547 H2550 0.984 . S
N2547 H2551 0.985 . S
H2548 N2543 0.984 . S
H2549 N2543 0.985 . S
H2550 N2547 0.984 . S
H2551 N2547 0.985 . S
H2552 N2546 0.984 . S
H2553 N2546 0.984 . S
H2554 N2542 0.984 . S
H2555 N2542 0.985 . S
C2556 C2557 1.363 . S
C2556 C2562 1.379 . S
C2556 N2564 1.356 . S
C2557 C2556 1.363 . S
C2557 C2563 1.363 . S
C2558 C2559 1.363 . S
C2558 C2563 1.379 . S
C2558 N2565 1.356 . S
C2559 C2558 1.363 . S
C2559 C2562 1.363 . S
N2560 C2562 1.356 . S
N2560 H2572 0.984 . S
N2560 H2573 0.985 . S
N2561 C2563 1.356 . S
N2561 H2566 0.984 . S
N2561 H2567 0.985 . S
C2562 C2556 1.379 . S
C2562 C2559 1.363 . S
C2562 N2560 1.356 . S
C2563 C2557 1.363 . S
C2563 C2558 1.379 . S
C2563 N2561 1.356 . S
N2564 C2556 1.356 . S
N2564 H2570 0.984 . S
N2564 H2571 0.984 . S
N2565 C2558 1.356 . S
N2565 H2568 0.984 . S
N2565 H2569 0.985 . S
H2566 N2561 0.984 . S
H2567 N2561 0.985 . S
H2568 N2565 0.984 . S
H2569 N2565 0.985 . S
H2570 N2564 0.984 . S
H2571 N2564 0.984 . S
H2572 N2560 0.984 . S
H2573 N2560 0.985 . S
C2574 C2575 1.363 . S
C2574 C2580 1.379 . S
C2574 N2582 1.356 . S
C2575 C2574 1.363 . S
C2575 C2581 1.363 . S
C2576 C2577 1.363 . S
C2576 C2581 1.379 . S
C2576 N2583 1.356 . S
C2577 C2576 1.363 . S
C2577 C2580 1.363 . S
N2578 C2580 1.356 . S
N2578 H2590 0.984 . S
N2578 H2591 0.985 . S
N2579 C2581 1.356 . S
N2579 H2584 0.984 . S
N2579 H2585 0.985 . S
C2580 C2574 1.379 . S
C2580 C2577 1.363 . S
C2580 N2578 1.356 . S
C2581 C2575 1.363 . S
C2581 C2576 1.379 . S
C2581 N2579 1.356 . S
N2582 C2574 1.356 . S
N2582 H2588 0.984 . S
N2582 H2589 0.984 . S
N2583 C2576 1.356 . S
N2583 H2586 0.984 . S
N2583 H2587 0.985 . S
H2584 N2579 0.984 . S
H2585 N2579 0.985 . S
H2586 N2583 0.984 . S
H2587 N2583 0.985 . S
H2588 N2582 0.984 . S
H2589 N2582 0.984 . S
H2590 N2578 0.984 . S
H2591 N2578 0.985 . S
C2592 C2593 1.363 . S
C2592 C2598 1.379 . S
C2592 N2600 1.356 . S
C2593 C2592 1.363 . S
C2593 C2599 1.363 . S
C2594 C2595 1.363 . S
C2594 C2599 1.379 . S
C2594 N2601 1.356 . S
C2595 C2594 1.363 . S
C2595 C2598 1.363 . S
N2596 C2598 1.356 . S
N2596 H2608 0.984 . S
N2596 H2609 0.985 . S
N2597 C2599 1.356 . S
N2597 H2602 0.984 . S
N2597 H2603 0.985 . S
C2598 C2592 1.379 . S
C2598 C2595 1.363 . S
C2598 N2596 1.356 . S
C2599 C2593 1.363 . S
C2599 C2594 1.379 . S
C2599 N2597 1.356 . S
N2600 C2592 1.356 . S
N2600 H2606 0.984 . S
N2600 H2607 0.984 . S
N2601 C2594 1.356 . S
N2601 H2604 0.984 . S
N2601 H2605 0.985 . S
H2602 N2597 0.984 . S
H2603 N2597 0.985 . S
H2604 N2601 0.984 . S
H2605 N2601 0.985 . S
H2606 N2600 0.984 . S
H2607 N2600 0.984 . S
H2608 N2596 0.984 . S
H2609 N2596 0.985 . S
C2610 C2611 1.363 . S
C2610 C2616 1.379 . S
C2610 N2618 1.356 . S
C2611 C2610 1.363 . S
C2611 C2617 1.363 . S
C2612 C2613 1.363 . S
C2612 C2617 1.379 . S
C2612 N2619 1.356 . S
C2613 C2612 1.363 . S
C2613 C2616 1.363 . S
N2614 C2616 1.356 . S
N2614 H2626 0.984 . S
N2614 H2627 0.985 . S
N2615 C2617 1.356 . S
N2615 H2620 0.984 . S
N2615 H2621 0.985 . S
C2616 C2610 1.379 . S
C2616 C2613 1.363 . S
C2616 N2614 1.356 . S
C2617 C2611 1.363 . S
C2617 C2612 1.379 . S
C2617 N2615 1.356 . S
N2618 C2610 1.356 . S
N2618 H2624 0.984 . S
N2618 H2625 0.984 . S
N2619 C2612 1.356 . S
N2619 H2622 0.984 . S
N2619 H2623 0.985 . S
H2620 N2615 0.984 . S
H2621 N2615 0.985 . S
H2622 N2619 0.984 . S
H2623 N2619 0.985 . S
H2624 N2618 0.984 . S
H2625 N2618 0.984 . S
H2626 N2614 0.984 . S
H2627 N2614 0.985 . S
C2628 C2629 1.363 . S
C2628 C2634 1.379 . S
C2628 N2636 1.356 . S
C2629 C2628 1.363 . S
C2629 C2635 1.363 . S
C2630 C2631 1.363 . S
C2630 C2635 1.379 . S
C2630 N2637 1.356 . S
C2631 C2630 1.363 . S
C2631 C2634 1.363 . S
N2632 C2634 1.356 . S
N2632 H2644 0.984 . S
N2632 H2645 0.985 . S
N2633 C2635 1.356 . S
N2633 H2638 0.984 . S
N2633 H2639 0.985 . S
C2634 C2628 1.379 . S
C2634 C2631 1.363 . S
C2634 N2632 1.356 . S
C2635 C2629 1.363 . S
C2635 C2630 1.379 . S
C2635 N2633 1.356 . S
N2636 C2628 1.356 . S
N2636 H2642 0.984 . S
N2636 H2643 0.984 . S
N2637 C2630 1.356 . S
N2637 H2640 0.984 . S
N2637 H2641 0.985 . S
H2638 N2633 0.984 . S
H2639 N2633 0.985 . S
H2640 N2637 0.984 . S
H2641 N2637 0.985 . S
H2642 N2636 0.984 . S
H2643 N2636 0.984 . S
H2644 N2632 0.984 . S
H2645 N2632 0.985 . S
C2646 C2647 1.363 . S
C2646 C2652 1.379 . S
C2646 N2654 1.356 . S
C2647 C2646 1.363 . S
C2647 C2653 1.363 . S
C2648 C2649 1.363 . S
C2648 C2653 1.379 . S
C2648 N2655 1.356 . S
C2649 C2648 1.363 . S
C2649 C2652 1.363 . S
N2650 C2652 1.356 . S
N2650 H2662 0.984 . S
N2650 H2663 0.985 . S
N2651 C2653 1.356 . S
N2651 H2656 0.984 . S
N2651 H2657 0.985 . S
C2652 C2646 1.379 . S
C2652 C2649 1.363 . S
C2652 N2650 1.356 . S
C2653 C2647 1.363 . S
C2653 C2648 1.379 . S
C2653 N2651 1.356 . S
N2654 C2646 1.356 . S
N2654 H2660 0.984 . S
N2654 H2661 0.984 . S
N2655 C2648 1.356 . S
N2655 H2658 0.984 . S
N2655 H2659 0.985 . S
H2656 N2651 0.984 . S
H2657 N2651 0.985 . S
H2658 N2655 0.984 . S
H2659 N2655 0.985 . S
H2660 N2654 0.984 . S
H2661 N2654 0.984 . S
H2662 N2650 0.984 . S
H2663 N2650 0.985 . S
C2664 C2665 1.363 . S
C2664 C2670 1.379 . S
C2664 N2672 1.356 . S
C2665 C2664 1.363 . S
C2665 C2671 1.363 . S
C2666 C2667 1.363 . S
C2666 C2671 1.379 . S
C2666 N2673 1.356 . S
C2667 C2666 1.363 . S
C2667 C2670 1.363 . S
N2668 C2670 1.356 . S
N2668 H2680 0.984 . S
N2668 H2681 0.985 . S
N2669 C2671 1.356 . S
N2669 H2674 0.984 . S
N2669 H2675 0.985 . S
C2670 C2664 1.379 . S
C2670 C2667 1.363 . S
C2670 N2668 1.356 . S
C2671 C2665 1.363 . S
C2671 C2666 1.379 . S
C2671 N2669 1.356 . S
N2672 C2664 1.356 . S
N2672 H2678 0.984 . S
N2672 H2679 0.984 . S
N2673 C2666 1.356 . S
N2673 H2676 0.984 . S
N2673 H2677 0.985 . S
H2674 N2669 0.984 . S
H2675 N2669 0.985 . S
H2676 N2673 0.984 . S
H2677 N2673 0.985 . S
H2678 N2672 0.984 . S
H2679 N2672 0.984 . S
H2680 N2668 0.984 . S
H2681 N2668 0.985 . S
C2682 C2683 1.363 . S
C2682 C2688 1.379 . S
C2682 N2690 1.356 . S
C2683 C2682 1.363 . S
C2683 C2689 1.363 . S
C2684 C2685 1.363 . S
C2684 C2689 1.379 . S
C2684 N2691 1.356 . S
C2685 C2684 1.363 . S
C2685 C2688 1.363 . S
N2686 C2688 1.356 . S
N2686 H2698 0.984 . S
N2686 H2699 0.985 . S
N2687 C2689 1.356 . S
N2687 H2692 0.984 . S
N2687 H2693 0.985 . S
C2688 C2682 1.379 . S
C2688 C2685 1.363 . S
C2688 N2686 1.356 . S
C2689 C2683 1.363 . S
C2689 C2684 1.379 . S
C2689 N2687 1.356 . S
N2690 C2682 1.356 . S
N2690 H2696 0.984 . S
N2690 H2697 0.984 . S
N2691 C2684 1.356 . S
N2691 H2694 0.984 . S
N2691 H2695 0.985 . S
H2692 N2687 0.984 . S
H2693 N2687 0.985 . S
H2694 N2691 0.984 . S
H2695 N2691 0.985 . S
H2696 N2690 0.984 . S
H2697 N2690 0.984 . S
H2698 N2686 0.984 . S
H2699 N2686 0.985 . S
C2700 C2701 1.363 . S
C2700 C2706 1.379 . S
C2700 N2708 1.356 . S
C2701 C2700 1.363 . S
C2701 C2707 1.363 . S
C2702 C2703 1.363 . S
C2702 C2707 1.379 . S
C2702 N2709 1.356 . S
C2703 C2702 1.363 . S
C2703 C2706 1.363 . S
N2704 C2706 1.356 . S
N2704 H2716 0.984 . S
N2704 H2717 0.985 . S
N2705 C2707 1.356 . S
N2705 H2710 0.984 . S
N2705 H2711 0.985 . S
C2706 C2700 1.379 . S
C2706 C2703 1.363 . S
C2706 N2704 1.356 . S
C2707 C2701 1.363 . S
C2707 C2702 1.379 . S
C2707 N2705 1.356 . S
N2708 C2700 1.356 . S
N2708 H2714 0.984 . S
N2708 H2715 0.984 . S
N2709 C2702 1.356 . S
N2709 H2712 0.984 . S
N2709 H2713 0.985 . S
H2710 N2705 0.984 . S
H2711 N2705 0.985 . S
H2712 N2709 0.984 . S
H2713 N2709 0.985 . S
H2714 N2708 0.984 . S
H2715 N2708 0.984 . S
H2716 N2704 0.984 . S
H2717 N2704 0.985 . S
C2718 C2719 1.363 . S
C2718 C2724 1.379 . S
C2718 N2726 1.356 . S
C2719 C2718 1.363 . S
C2719 C2725 1.363 . S
C2720 C2721 1.363 . S
C2720 C2725 1.379 . S
C2720 N2727 1.356 . S
C2721 C2720 1.363 . S
C2721 C2724 1.363 . S
N2722 C2724 1.356 . S
N2722 H2734 0.984 . S
N2722 H2735 0.985 . S
N2723 C2725 1.356 . S
N2723 H2728 0.984 . S
N2723 H2729 0.985 . S
C2724 C2718 1.379 . S
C2724 C2721 1.363 . S
C2724 N2722 1.356 . S
C2725 C2719 1.363 . S
C2725 C2720 1.379 . S
C2725 N2723 1.356 . S
N2726 C2718 1.356 . S
N2726 H2732 0.984 . S
N2726 H2733 0.984 . S
N2727 C2720 1.356 . S
N2727 H2730 0.984 . S
N2727 H2731 0.985 . S
H2728 N2723 0.984 . S
H2729 N2723 0.985 . S
H2730 N2727 0.984 . S
H2731 N2727 0.985 . S
H2732 N2726 0.984 . S
H2733 N2726 0.984 . S
H2734 N2722 0.984 . S
H2735 N2722 0.985 . S
C2736 C2737 1.363 . S
C2736 C2742 1.379 . S
C2736 N2744 1.356 . S
C2737 C2736 1.363 . S
C2737 C2743 1.363 . S
C2738 C2739 1.363 . S
C2738 C2743 1.379 . S
C2738 N2745 1.356 . S
C2739 C2738 1.363 . S
C2739 C2742 1.363 . S
N2740 C2742 1.356 . S
N2740 H2752 0.984 . S
N2740 H2753 0.985 . S
N2741 C2743 1.356 . S
N2741 H2746 0.984 . S
N2741 H2747 0.985 . S
C2742 C2736 1.379 . S
C2742 C2739 1.363 . S
C2742 N2740 1.356 . S
C2743 C2737 1.363 . S
C2743 C2738 1.379 . S
C2743 N2741 1.356 . S
N2744 C2736 1.356 . S
N2744 H2750 0.984 . S
N2744 H2751 0.984 . S
N2745 C2738 1.356 . S
N2745 H2748 0.984 . S
N2745 H2749 0.985 . S
H2746 N2741 0.984 . S
H2747 N2741 0.985 . S
H2748 N2745 0.984 . S
H2749 N2745 0.985 . S
H2750 N2744 0.984 . S
H2751 N2744 0.984 . S
H2752 N2740 0.984 . S
H2753 N2740 0.985 . S
C2754 C2755 1.363 . S
C2754 C2760 1.379 . S
C2754 N2762 1.356 . S
C2755 C2754 1.363 . S
C2755 C2761 1.363 . S
C2756 C2757 1.363 . S
C2756 C2761 1.379 . S
C2756 N2763 1.356 . S
C2757 C2756 1.363 . S
C2757 C2760 1.363 . S
N2758 C2760 1.356 . S
N2758 H2770 0.984 . S
N2758 H2771 0.985 . S
N2759 C2761 1.356 . S
N2759 H2764 0.984 . S
N2759 H2765 0.985 . S
C2760 C2754 1.379 . S
C2760 C2757 1.363 . S
C2760 N2758 1.356 . S
C2761 C2755 1.363 . S
C2761 C2756 1.379 . S
C2761 N2759 1.356 . S
N2762 C2754 1.356 . S
N2762 H2768 0.984 . S
N2762 H2769 0.984 . S
N2763 C2756 1.356 . S
N2763 H2766 0.984 . S
N2763 H2767 0.985 . S
H2764 N2759 0.984 . S
H2765 N2759 0.985 . S
H2766 N2763 0.984 . S
H2767 N2763 0.985 . S
H2768 N2762 0.984 . S
H2769 N2762 0.984 . S
H2770 N2758 0.984 . S
H2771 N2758 0.985 . S
C2772 C2773 1.363 . S
C2772 C2778 1.379 . S
C2772 N2780 1.356 . S
C2773 C2772 1.363 . S
C2773 C2779 1.363 . S
C2774 C2775 1.363 . S
C2774 C2779 1.379 . S
C2774 N2781 1.356 . S
C2775 C2774 1.363 . S
C2775 C2778 1.363 . S
N2776 C2778 1.356 . S
N2776 H2788 0.984 . S
N2776 H2789 0.985 . S
N2777 C2779 1.356 . S
N2777 H2782 0.984 . S
N2777 H2783 0.985 . S
C2778 C2772 1.379 . S
C2778 C2775 1.363 . S
C2778 N2776 1.356 . S
C2779 C2773 1.363 . S
C2779 C2774 1.379 . S
C2779 N2777 1.356 . S
N2780 C2772 1.356 . S
N2780 H2786 0.984 . S
N2780 H2787 0.984 . S
N2781 C2774 1.356 . S
N2781 H2784 0.984 . S
N2781 H2785 0.985 . S
H2782 N2777 0.984 . S
H2783 N2777 0.985 . S
H2784 N2781 0.984 . S
H2785 N2781 0.985 . S
H2786 N2780 0.984 . S
H2787 N2780 0.984 . S
H2788 N2776 0.984 . S
H2789 N2776 0.985 . S
C2790 C2791 1.363 . S
C2790 C2796 1.379 . S
C2790 N2798 1.356 . S
C2791 C2790 1.363 . S
C2791 C2797 1.363 . S
C2792 C2793 1.363 . S
C2792 C2797 1.379 . S
C2792 N2799 1.356 . S
C2793 C2792 1.363 . S
C2793 C2796 1.363 . S
N2794 C2796 1.356 . S
N2794 H2806 0.984 . S
N2794 H2807 0.985 . S
N2795 C2797 1.356 . S
N2795 H2800 0.984 . S
N2795 H2801 0.985 . S
C2796 C2790 1.379 . S
C2796 C2793 1.363 . S
C2796 N2794 1.356 . S
C2797 C2791 1.363 . S
C2797 C2792 1.379 . S
C2797 N2795 1.356 . S
N2798 C2790 1.356 . S
N2798 H2804 0.984 . S
N2798 H2805 0.984 . S
N2799 C2792 1.356 . S
N2799 H2802 0.984 . S
N2799 H2803 0.985 . S
H2800 N2795 0.984 . S
H2801 N2795 0.985 . S
H2802 N2799 0.984 . S
H2803 N2799 0.985 . S
H2804 N2798 0.984 . S
H2805 N2798 0.984 . S
H2806 N2794 0.984 . S
H2807 N2794 0.985 . S
C2808 C2809 1.363 . S
C2808 C2814 1.379 . S
C2808 N2816 1.356 . S
C2809 C2808 1.363 . S
C2809 C2815 1.363 . S
C2810 C2811 1.363 . S
C2810 C2815 1.379 . S
C2810 N2817 1.356 . S
C2811 C2810 1.363 . S
C2811 C2814 1.363 . S
N2812 C2814 1.356 . S
N2812 H2824 0.984 . S
N2812 H2825 0.985 . S
N2813 C2815 1.356 . S
N2813 H2818 0.984 . S
N2813 H2819 0.985 . S
C2814 C2808 1.379 . S
C2814 C2811 1.363 . S
C2814 N2812 1.356 . S
C2815 C2809 1.363 . S
C2815 C2810 1.379 . S
C2815 N2813 1.356 . S
N2816 C2808 1.356 . S
N2816 H2822 0.984 . S
N2816 H2823 0.984 . S
N2817 C2810 1.356 . S
N2817 H2820 0.984 . S
N2817 H2821 0.985 . S
H2818 N2813 0.984 . S
H2819 N2813 0.985 . S
H2820 N2817 0.984 . S
H2821 N2817 0.985 . S
H2822 N2816 0.984 . S
H2823 N2816 0.984 . S
H2824 N2812 0.984 . S
H2825 N2812 0.985 . S
C2826 C2827 1.363 . S
C2826 C2832 1.379 . S
C2826 N2834 1.356 . S
C2827 C2826 1.363 . S
C2827 C2833 1.363 . S
C2828 C2829 1.363 . S
C2828 C2833 1.379 . S
C2828 N2835 1.356 . S
C2829 C2828 1.363 . S
C2829 C2832 1.363 . S
N2830 C2832 1.356 . S
N2830 H2842 0.984 . S
N2830 H2843 0.985 . S
N2831 C2833 1.356 . S
N2831 H2836 0.984 . S
N2831 H2837 0.985 . S
C2832 C2826 1.379 . S
C2832 C2829 1.363 . S
C2832 N2830 1.356 . S
C2833 C2827 1.363 . S
C2833 C2828 1.379 . S
C2833 N2831 1.356 . S
N2834 C2826 1.356 . S
N2834 H2840 0.984 . S
N2834 H2841 0.984 . S
N2835 C2828 1.356 . S
N2835 H2838 0.984 . S
N2835 H2839 0.985 . S
H2836 N2831 0.984 . S
H2837 N2831 0.985 . S
H2838 N2835 0.984 . S
H2839 N2835 0.985 . S
H2840 N2834 0.984 . S
H2841 N2834 0.984 . S
H2842 N2830 0.984 . S
H2843 N2830 0.985 . S
C2844 C2845 1.363 . S
C2844 C2850 1.379 . S
C2844 N2852 1.356 . S
C2845 C2844 1.363 . S
C2845 C2851 1.363 . S
C2846 C2847 1.363 . S
C2846 C2851 1.379 . S
C2846 N2853 1.356 . S
C2847 C2846 1.363 . S
C2847 C2850 1.363 . S
N2848 C2850 1.356 . S
N2848 H2860 0.984 . S
N2848 H2861 0.985 . S
N2849 C2851 1.356 . S
N2849 H2854 0.984 . S
N2849 H2855 0.985 . S
C2850 C2844 1.379 . S
C2850 C2847 1.363 . S
C2850 N2848 1.356 . S
C2851 C2845 1.363 . S
C2851 C2846 1.379 . S
C2851 N2849 1.356 . S
N2852 C2844 1.356 . S
N2852 H2858 0.984 . S
N2852 H2859 0.984 . S
N2853 C2846 1.356 . S
N2853 H2856 0.984 . S
N2853 H2857 0.985 . S
H2854 N2849 0.984 . S
H2855 N2849 0.985 . S
H2856 N2853 0.984 . S
H2857 N2853 0.985 . S
H2858 N2852 0.984 . S
H2859 N2852 0.984 . S
H2860 N2848 0.984 . S
H2861 N2848 0.985 . S
C2862 C2863 1.363 . S
C2862 C2868 1.379 . S
C2862 N2870 1.356 . S
C2863 C2862 1.363 . S
C2863 C2869 1.363 . S
C2864 C2865 1.363 . S
C2864 C2869 1.379 . S
C2864 N2871 1.356 . S
C2865 C2864 1.363 . S
C2865 C2868 1.363 . S
N2866 C2868 1.356 . S
N2866 H2878 0.984 . S
N2866 H2879 0.985 . S
N2867 C2869 1.356 . S
N2867 H2872 0.984 . S
N2867 H2873 0.985 . S
C2868 C2862 1.379 . S
C2868 C2865 1.363 . S
C2868 N2866 1.356 . S
C2869 C2863 1.363 . S
C2869 C2864 1.379 . S
C2869 N2867 1.356 . S
N2870 C2862 1.356 . S
N2870 H2876 0.984 . S
N2870 H2877 0.984 . S
N2871 C2864 1.356 . S
N2871 H2874 0.984 . S
N2871 H2875 0.985 . S
H2872 N2867 0.984 . S
H2873 N2867 0.985 . S
H2874 N2871 0.984 . S
H2875 N2871 0.985 . S
H2876 N2870 0.984 . S
H2877 N2870 0.984 . S
H2878 N2866 0.984 . S
H2879 N2866 0.985 . S
C2880 C2881 1.363 . S
C2880 C2886 1.379 . S
C2880 N2888 1.356 . S
C2881 C2880 1.363 . S
C2881 C2887 1.363 . S
C2882 C2883 1.363 . S
C2882 C2887 1.379 . S
C2882 N2889 1.356 . S
C2883 C2882 1.363 . S
C2883 C2886 1.363 . S
N2884 C2886 1.356 . S
N2884 H2896 0.984 . S
N2884 H2897 0.985 . S
N2885 C2887 1.356 . S
N2885 H2890 0.984 . S
N2885 H2891 0.985 . S
C2886 C2880 1.379 . S
C2886 C2883 1.363 . S
C2886 N2884 1.356 . S
C2887 C2881 1.363 . S
C2887 C2882 1.379 . S
C2887 N2885 1.356 . S
N2888 C2880 1.356 . S
N2888 H2894 0.984 . S
N2888 H2895 0.984 . S
N2889 C2882 1.356 . S
N2889 H2892 0.984 . S
N2889 H2893 0.985 . S
H2890 N2885 0.984 . S
H2891 N2885 0.985 . S
H2892 N2889 0.984 . S
H2893 N2889 0.985 . S
H2894 N2888 0.984 . S
H2895 N2888 0.984 . S
H2896 N2884 0.984 . S
H2897 N2884 0.985 . S
C2898 C2899 1.363 . S
C2898 C2904 1.379 . S
C2898 N2906 1.356 . S
C2899 C2898 1.363 . S
C2899 C2905 1.363 . S
C2900 C2901 1.363 . S
C2900 C2905 1.379 . S
C2900 N2907 1.356 . S
C2901 C2900 1.363 . S
C2901 C2904 1.363 . S
N2902 C2904 1.356 . S
N2902 H2914 0.984 . S
N2902 H2915 0.985 . S
N2903 C2905 1.356 . S
N2903 H2908 0.984 . S
N2903 H2909 0.985 . S
C2904 C2898 1.379 . S
C2904 C2901 1.363 . S
C2904 N2902 1.356 . S
C2905 C2899 1.363 . S
C2905 C2900 1.379 . S
C2905 N2903 1.356 . S
N2906 C2898 1.356 . S
N2906 H2912 0.984 . S
N2906 H2913 0.984 . S
N2907 C2900 1.356 . S
N2907 H2910 0.984 . S
N2907 H2911 0.985 . S
H2908 N2903 0.984 . S
H2909 N2903 0.985 . S
H2910 N2907 0.984 . S
H2911 N2907 0.985 . S
H2912 N2906 0.984 . S
H2913 N2906 0.984 . S
H2914 N2902 0.984 . S
H2915 N2902 0.985 . S
C2916 C2917 1.363 . S
C2916 C2922 1.379 . S
C2916 N2924 1.356 . S
C2917 C2916 1.363 . S
C2917 C2923 1.363 . S
C2918 C2919 1.363 . S
C2918 C2923 1.379 . S
C2918 N2925 1.356 . S
C2919 C2918 1.363 . S
C2919 C2922 1.363 . S
N2920 C2922 1.356 . S
N2920 H2932 0.984 . S
N2920 H2933 0.985 . S
N2921 C2923 1.356 . S
N2921 H2926 0.984 . S
N2921 H2927 0.985 . S
C2922 C2916 1.379 . S
C2922 C2919 1.363 . S
C2922 N2920 1.356 . S
C2923 C2917 1.363 . S
C2923 C2918 1.379 . S
C2923 N2921 1.356 . S
N2924 C2916 1.356 . S
N2924 H2930 0.984 . S
N2924 H2931 0.984 . S
N2925 C2918 1.356 . S
N2925 H2928 0.984 . S
N2925 H2929 0.985 . S
H2926 N2921 0.984 . S
H2927 N2921 0.985 . S
H2928 N2925 0.984 . S
H2929 N2925 0.985 . S
H2930 N2924 0.984 . S
H2931 N2924 0.984 . S
H2932 N2920 0.984 . S
H2933 N2920 0.985 . S
C2934 C2935 1.363 . S
C2934 C2940 1.379 . S
C2934 N2942 1.356 . S
C2935 C2934 1.363 . S
C2935 C2941 1.363 . S
C2936 C2937 1.363 . S
C2936 C2941 1.379 . S
C2936 N2943 1.356 . S
C2937 C2936 1.363 . S
C2937 C2940 1.363 . S
N2938 C2940 1.356 . S
N2938 H2950 0.984 . S
N2938 H2951 0.985 . S
N2939 C2941 1.356 . S
N2939 H2944 0.984 . S
N2939 H2945 0.985 . S
C2940 C2934 1.379 . S
C2940 C2937 1.363 . S
C2940 N2938 1.356 . S
C2941 C2935 1.363 . S
C2941 C2936 1.379 . S
C2941 N2939 1.356 . S
N2942 C2934 1.356 . S
N2942 H2948 0.984 . S
N2942 H2949 0.984 . S
N2943 C2936 1.356 . S
N2943 H2946 0.984 . S
N2943 H2947 0.985 . S
H2944 N2939 0.984 . S
H2945 N2939 0.985 . S
H2946 N2943 0.984 . S
H2947 N2943 0.985 . S
H2948 N2942 0.984 . S
H2949 N2942 0.984 . S
H2950 N2938 0.984 . S
H2951 N2938 0.985 . S
C2952 C2953 1.363 . S
C2952 C2958 1.379 . S
C2952 N2960 1.356 . S
C2953 C2952 1.363 . S
C2953 C2959 1.363 . S
C2954 C2955 1.363 . S
C2954 C2959 1.379 . S
C2954 N2961 1.356 . S
C2955 C2954 1.363 . S
C2955 C2958 1.363 . S
N2956 C2958 1.356 . S
N2956 H2968 0.984 . S
N2956 H2969 0.985 . S
N2957 C2959 1.356 . S
N2957 H2962 0.984 . S
N2957 H2963 0.985 . S
C2958 C2952 1.379 . S
C2958 C2955 1.363 . S
C2958 N2956 1.356 . S
C2959 C2953 1.363 . S
C2959 C2954 1.379 . S
C2959 N2957 1.356 . S
N2960 C2952 1.356 . S
N2960 H2966 0.984 . S
N2960 H2967 0.984 . S
N2961 C2954 1.356 . S
N2961 H2964 0.984 . S
N2961 H2965 0.985 . S
H2962 N2957 0.984 . S
H2963 N2957 0.985 . S
H2964 N2961 0.984 . S
H2965 N2961 0.985 . S
H2966 N2960 0.984 . S
H2967 N2960 0.984 . S
H2968 N2956 0.984 . S
H2969 N2956 0.985 . S
C2970 C2971 1.363 . S
C2970 C2976 1.379 . S
C2970 N2978 1.356 . S
C2971 C2970 1.363 . S
C2971 C2977 1.363 . S
C2972 C2973 1.363 . S
C2972 C2977 1.379 . S
C2972 N2979 1.356 . S
C2973 C2972 1.363 . S
C2973 C2976 1.363 . S
N2974 C2976 1.356 . S
N2974 H2986 0.984 . S
N2974 H2987 0.985 . S
N2975 C2977 1.356 . S
N2975 H2980 0.984 . S
N2975 H2981 0.985 . S
C2976 C2970 1.379 . S
C2976 C2973 1.363 . S
C2976 N2974 1.356 . S
C2977 C2971 1.363 . S
C2977 C2972 1.379 . S
C2977 N2975 1.356 . S
N2978 C2970 1.356 . S
N2978 H2984 0.984 . S
N2978 H2985 0.984 . S
N2979 C2972 1.356 . S
N2979 H2982 0.984 . S
N2979 H2983 0.985 . S
H2980 N2975 0.984 . S
H2981 N2975 0.985 . S
H2982 N2979 0.984 . S
H2983 N2979 0.985 . S
H2984 N2978 0.984 . S
H2985 N2978 0.984 . S
H2986 N2974 0.984 . S
H2987 N2974 0.985 . S
C2988 C2989 1.363 . S
C2988 C2994 1.379 . S
C2988 N2996 1.356 . S
C2989 C2988 1.363 . S
C2989 C2995 1.363 . S
C2990 C2991 1.363 . S
C2990 C2995 1.379 . S
C2990 N2997 1.356 . S
C2991 C2990 1.363 . S
C2991 C2994 1.363 . S
N2992 C2994 1.356 . S
N2992 H3004 0.984 . S
N2992 H3005 0.985 . S
N2993 C2995 1.356 . S
N2993 H2998 0.984 . S
N2993 H2999 0.985 . S
C2994 C2988 1.379 . S
C2994 C2991 1.363 . S
C2994 N2992 1.356 . S
C2995 C2989 1.363 . S
C2995 C2990 1.379 . S
C2995 N2993 1.356 . S
N2996 C2988 1.356 . S
N2996 H3002 0.984 . S
N2996 H3003 0.984 . S
N2997 C2990 1.356 . S
N2997 H3000 0.984 . S
N2997 H3001 0.985 . S
H2998 N2993 0.984 . S
H2999 N2993 0.985 . S
H3000 N2997 0.984 . S
H3001 N2997 0.985 . S
H3002 N2996 0.984 . S
H3003 N2996 0.984 . S
H3004 N2992 0.984 . S
H3005 N2992 0.985 . S
C3006 C3007 1.363 . S
C3006 C3012 1.379 . S
C3006 N3014 1.356 . S
C3007 C3006 1.363 . S
C3007 C3013 1.363 . S
C3008 C3009 1.363 . S
C3008 C3013 1.379 . S
C3008 N3015 1.356 . S
C3009 C3008 1.363 . S
C3009 C3012 1.363 . S
N3010 C3012 1.356 . S
N3010 H3022 0.984 . S
N3010 H3023 0.985 . S
N3011 C3013 1.356 . S
N3011 H3016 0.984 . S
N3011 H3017 0.985 . S
C3012 C3006 1.379 . S
C3012 C3009 1.363 . S
C3012 N3010 1.356 . S
C3013 C3007 1.363 . S
C3013 C3008 1.379 . S
C3013 N3011 1.356 . S
N3014 C3006 1.356 . S
N3014 H3020 0.984 . S
N3014 H3021 0.984 . S
N3015 C3008 1.356 . S
N3015 H3018 0.984 . S
N3015 H3019 0.985 . S
H3016 N3011 0.984 . S
H3017 N3011 0.985 . S
H3018 N3015 0.984 . S
H3019 N3015 0.985 . S
H3020 N3014 0.984 . S
H3021 N3014 0.984 . S
H3022 N3010 0.984 . S
H3023 N3010 0.985 . S
C3024 C3025 1.363 . S
C3024 C3030 1.379 1_554 S
C3024 N3032 1.356 . S
C3025 C3024 1.363 . S
C3025 C3031 1.363 . S
C3026 C3027 1.363 . S
C3026 C3031 1.379 1_556 S
C3026 N3033 1.356 . S
C3027 C3026 1.363 . S
C3027 C3030 1.363 . S
N3028 C3030 1.356 . S
N3028 H3040 0.984 . S
N3028 H3041 0.985 . S
N3029 C3031 1.356 . S
N3029 H3034 0.984 . S
N3029 H3035 0.985 . S
C3030 C3024 1.379 1_556 S
C3030 C3027 1.363 . S
C3030 N3028 1.356 . S
C3031 C3025 1.363 . S
C3031 C3026 1.379 1_554 S
C3031 N3029 1.356 . S
N3032 C3024 1.356 . S
N3032 H3038 0.984 . S
N3032 H3039 0.984 . S
N3033 C3026 1.356 . S
N3033 H3036 0.984 . S
N3033 H3037 0.985 . S
H3034 N3029 0.984 . S
H3035 N3029 0.985 . S
H3036 N3033 0.984 . S
H3037 N3033 0.985 . S
H3038 N3032 0.984 . S
H3039 N3032 0.984 . S
H3040 N3028 0.984 . S
H3041 N3028 0.985 . S
C3042 C3043 1.363 . S
C3042 C3048 1.379 1_556 S
C3042 N3050 1.356 . S
C3043 C3042 1.363 . S
C3043 C3049 1.363 . S
C3044 C3045 1.363 . S
C3044 C3049 1.379 1_554 S
C3044 N3051 1.356 . S
C3045 C3044 1.363 . S
C3045 C3048 1.363 . S
N3046 C3048 1.356 . S
N3046 H3058 0.984 . S
N3046 H3059 0.985 . S
N3047 C3049 1.356 . S
N3047 H3052 0.984 . S
N3047 H3053 0.985 . S
C3048 C3042 1.379 1_554 S
C3048 C3045 1.363 . S
C3048 N3046 1.356 . S
C3049 C3043 1.363 . S
C3049 C3044 1.379 1_556 S
C3049 N3047 1.356 . S
N3050 C3042 1.356 . S
N3050 H3056 0.984 . S
N3050 H3057 0.984 . S
N3051 C3044 1.356 . S
N3051 H3054 0.984 . S
N3051 H3055 0.985 . S
H3052 N3047 0.984 . S
H3053 N3047 0.985 . S
H3054 N3051 0.984 . S
H3055 N3051 0.985 . S
H3056 N3050 0.984 . S
H3057 N3050 0.984 . S
H3058 N3046 0.984 . S
H3059 N3046 0.985 . S
C3060 C3061 1.363 . S
C3060 C3066 1.379 1_554 S
C3060 N3068 1.356 . S
C3061 C3060 1.363 . S
C3061 C3067 1.363 . S
C3062 C3063 1.363 . S
C3062 C3067 1.379 1_556 S
C3062 N3069 1.356 . S
C3063 C3062 1.363 . S
C3063 C3066 1.363 . S
N3064 C3066 1.356 . S
N3064 H3076 0.984 . S
N3064 H3077 0.985 . S
N3065 C3067 1.356 . S
N3065 H3070 0.984 . S
N3065 H3071 0.985 . S
C3066 C3060 1.379 1_556 S
C3066 C3063 1.363 . S
C3066 N3064 1.356 . S
C3067 C3061 1.363 . S
C3067 C3062 1.379 1_554 S
C3067 N3065 1.356 . S
N3068 C3060 1.356 . S
N3068 H3074 0.984 . S
N3068 H3075 0.984 . S
N3069 C3062 1.356 . S
N3069 H3072 0.984 . S
N3069 H3073 0.985 . S
H3070 N3065 0.984 . S
H3071 N3065 0.985 . S
H3072 N3069 0.984 . S
H3073 N3069 0.985 . S
H3074 N3068 0.984 . S
H3075 N3068 0.984 . S
H3076 N3064 0.984 . S
H3077 N3064 0.985 . S
C3078 C3079 1.363 . S
C3078 C3084 1.379 1_554 S
C3078 N3086 1.356 . S
C3079 C3078 1.363 . S
C3079 C3085 1.363 . S
C3080 C3081 1.363 . S
C3080 C3085 1.379 1_556 S
C3080 N3087 1.356 . S
C3081 C3080 1.363 . S
C3081 C3084 1.363 . S
N3082 C3084 1.356 . S
N3082 H3094 0.984 . S
N3082 H3095 0.985 . S
N3083 C3085 1.356 . S
N3083 H3088 0.984 . S
N3083 H3089 0.985 . S
C3084 C3078 1.379 1_556 S
C3084 C3081 1.363 . S
C3084 N3082 1.356 . S
C3085 C3079 1.363 . S
C3085 C3080 1.379 1_554 S
C3085 N3083 1.356 . S
N3086 C3078 1.356 . S
N3086 H3092 0.984 . S
N3086 H3093 0.984 . S
N3087 C3080 1.356 . S
N3087 H3090 0.984 . S
N3087 H3091 0.985 . S
H3088 N3083 0.984 . S
H3089 N3083 0.985 . S
H3090 N3087 0.984 . S
H3091 N3087 0.985 . S
H3092 N3086 0.984 . S
H3093 N3086 0.984 . S
H3094 N3082 0.984 . S
H3095 N3082 0.985 . S
C3096 C3097 1.363 . S
C3096 C3102 1.379 1_556 S
C3096 N3104 1.356 . S
C3097 C3096 1.363 . S
C3097 C3103 1.363 . S
C3098 C3099 1.363 . S
C3098 C3103 1.379 1_554 S
C3098 N3105 1.356 . S
C3099 C3098 1.363 . S
C3099 C3102 1.363 . S
N3100 C3102 1.356 . S
N3100 H3112 0.984 . S
N3100 H3113 0.985 . S
N3101 C3103 1.356 . S
N3101 H3106 0.984 . S
N3101 H3107 0.985 . S
C3102 C3096 1.379 1_554 S
C3102 C3099 1.363 . S
C3102 N3100 1.356 . S
C3103 C3097 1.363 . S
C3103 C3098 1.379 1_556 S
C3103 N3101 1.356 . S
N3104 C3096 1.356 . S
N3104 H3110 0.984 . S
N3104 H3111 0.984 . S
N3105 C3098 1.356 . S
N3105 H3108 0.984 . S
N3105 H3109 0.985 . S
H3106 N3101 0.984 . S
H3107 N3101 0.985 . S
H3108 N3105 0.984 . S
H3109 N3105 0.985 . S
H3110 N3104 0.984 . S
H3111 N3104 0.984 . S
H3112 N3100 0.984 . S
H3113 N3100 0.985 . S
C3114 C3115 1.363 . S
C3114 C3120 1.379 1_554 S
C3114 N3122 1.356 . S
C3115 C3114 1.363 . S
C3115 C3121 1.363 . S
C3116 C3117 1.363 . S
C3116 C3121 1.379 1_556 S
C3116 N3123 1.356 . S
C3117 C3116 1.363 . S
C3117 C3120 1.363 . S
N3118 C3120 1.356 . S
N3118 H3130 0.984 . S
N3118 H3131 0.985 . S
N3119 C3121 1.356 . S
N3119 H3124 0.984 . S
N3119 H3125 0.985 . S
C3120 C3114 1.379 1_556 S
C3120 C3117 1.363 . S
C3120 N3118 1.356 . S
C3121 C3115 1.363 . S
C3121 C3116 1.379 1_554 S
C3121 N3119 1.356 . S
N3122 C3114 1.356 . S
N3122 H3128 0.984 . S
N3122 H3129 0.984 . S
N3123 C3116 1.356 . S
N3123 H3126 0.984 . S
N3123 H3127 0.985 . S
H3124 N3119 0.984 . S
H3125 N3119 0.985 . S
H3126 N3123 0.984 . S
H3127 N3123 0.985 . S
H3128 N3122 0.984 . S
H3129 N3122 0.984 . S
H3130 N3118 0.984 . S
H3131 N3118 0.985 . S
C3132 C3133 1.363 . S
C3132 C3138 1.379 1_556 S
C3132 N3140 1.356 . S
C3133 C3132 1.363 . S
C3133 C3139 1.363 . S
C3134 C3135 1.363 . S
C3134 C3139 1.379 1_554 S
C3134 N3141 1.356 . S
C3135 C3134 1.363 . S
C3135 C3138 1.363 . S
N3136 C3138 1.356 . S
N3136 H3148 0.984 . S
N3136 H3149 0.985 . S
N3137 C3139 1.356 . S
N3137 H3142 0.984 . S
N3137 H3143 0.985 . S
C3138 C3132 1.379 1_554 S
C3138 C3135 1.363 . S
C3138 N3136 1.356 . S
C3139 C3133 1.363 . S
C3139 C3134 1.379 1_556 S
C3139 N3137 1.356 . S
N3140 C3132 1.356 . S
N3140 H3146 0.984 . S
N3140 H3147 0.984 . S
N3141 C3134 1.356 . S
N3141 H3144 0.984 . S
N3141 H3145 0.985 . S
H3142 N3137 0.984 . S
H3143 N3137 0.985 . S
H3144 N3141 0.984 . S
H3145 N3141 0.985 . S
H3146 N3140 0.984 . S
H3147 N3140 0.984 . S
H3148 N3136 0.984 . S
H3149 N3136 0.985 . S
C3150 C3151 1.363 . S
C3150 C3156 1.379 1_554 S
C3150 N3158 1.356 . S
C3151 C3150 1.363 . S
C3151 C3157 1.363 . S
C3152 C3153 1.363 . S
C3152 C3157 1.379 1_556 S
C3152 N3159 1.356 . S
C3153 C3152 1.363 . S
C3153 C3156 1.363 . S
N3154 C3156 1.356 . S
N3154 H3166 0.984 . S
N3154 H3167 0.985 . S
N3155 C3157 1.356 . S
N3155 H3160 0.984 . S
N3155 H3161 0.985 . S
C3156 C3150 1.379 1_556 S
C3156 C3153 1.363 . S
C3156 N3154 1.356 . S
C3157 C3151 1.363 . S
C3157 C3152 1.379 1_554 S
C3157 N3155 1.356 . S
N3158 C3150 1.356 . S
N3158 H3164 0.984 . S
N3158 H3165 0.984 . S
N3159 C3152 1.356 . S
N3159 H3162 0.984 . S
N3159 H3163 0.985 . S
H3160 N3155 0.984 . S
H3161 N3155 0.985 . S
H3162 N3159 0.984 . S
H3163 N3159 0.985 . S
H3164 N3158 0.984 . S
H3165 N3158 0.984 . S
H3166 N3154 0.984 . S
H3167 N3154 0.985 . S
C3168 C3169 1.363 . S
C3168 C3174 1.379 1_455 S
C3168 N3176 1.356 . S
C3169 C3168 1.363 . S
C3169 C3175 1.363 . S
C3170 C3171 1.363 . S
C3170 C3175 1.379 1_655 S
C3170 N3177 1.356 . S
C3171 C3170 1.363 . S
C3171 C3174 1.363 . S
N3172 C3174 1.356 . S
N3172 H3184 0.984 . S
N3172 H3185 0.985 . S
N3173 C3175 1.356 . S
N3173 H3178 0.984 . S
N3173 H3179 0.985 . S
C3174 C3168 1.379 1_655 S
C3174 C3171 1.363 . S
C3174 N3172 1.356 . S
C3175 C3169 1.363 . S
C3175 C3170 1.379 1_455 S
C3175 N3173 1.356 . S
N3176 C3168 1.356 . S
N3176 H3182 0.984 . S
N3176 H3183 0.984 . S
N3177 C3170 1.356 . S
N3177 H3180 0.984 . S
N3177 H3181 0.985 . S
H3178 N3173 0.984 . S
H3179 N3173 0.985 . S
H3180 N3177 0.984 . S
H3181 N3177 0.985 . S
H3182 N3176 0.984 . S
H3183 N3176 0.984 . S
H3184 N3172 0.984 . S
H3185 N3172 0.985 . S
C3186 C3187 1.363 . S
C3186 C3192 1.379 1_565 S
C3186 N3194 1.356 . S
C3187 C3186 1.363 . S
C3187 C3193 1.363 . S
C3188 C3189 1.363 . S
C3188 C3193 1.379 1_545 S
C3188 N3195 1.356 . S
C3189 C3188 1.363 . S
C3189 C3192 1.363 . S
N3190 C3192 1.356 . S
N3190 H3202 0.984 . S
N3190 H3203 0.985 . S
N3191 C3193 1.356 . S
N3191 H3196 0.984 . S
N3191 H3197 0.985 . S
C3192 C3186 1.379 1_545 S
C3192 C3189 1.363 . S
C3192 N3190 1.356 . S
C3193 C3187 1.363 . S
C3193 C3188 1.379 1_565 S
C3193 N3191 1.356 . S
N3194 C3186 1.356 . S
N3194 H3200 0.984 . S
N3194 H3201 0.984 . S
N3195 C3188 1.356 . S
N3195 H3198 0.984 . S
N3195 H3199 0.985 . S
H3196 N3191 0.984 . S
H3197 N3191 0.985 . S
H3198 N3195 0.984 . S
H3199 N3195 0.985 . S
H3200 N3194 0.984 . S
H3201 N3194 0.984 . S
H3202 N3190 0.984 . S
H3203 N3190 0.985 . S
C3204 C3205 1.363 . S
C3204 C3210 1.379 1_455 S
C3204 N3212 1.356 . S
C3205 C3204 1.363 . S
C3205 C3211 1.363 . S
C3206 C3207 1.363 . S
C3206 C3211 1.379 1_655 S
C3206 N3213 1.356 . S
C3207 C3206 1.363 . S
C3207 C3210 1.363 . S
N3208 C3210 1.356 . S
N3208 H3220 0.984 . S
N3208 H3221 0.985 . S
N3209 C3211 1.356 . S
N3209 H3214 0.984 . S
N3209 H3215 0.985 . S
C3210 C3204 1.379 1_655 S
C3210 C3207 1.363 . S
C3210 N3208 1.356 . S
C3211 C3205 1.363 . S
C3211 C3206 1.379 1_455 S
C3211 N3209 1.356 . S
N3212 C3204 1.356 . S
N3212 H3218 0.984 . S
N3212 H3219 0.984 . S
N3213 C3206 1.356 . S
N3213 H3216 0.984 . S
N3213 H3217 0.985 . S
H3214 N3209 0.984 . S
H3215 N3209 0.985 . S
H3216 N3213 0.984 . S
H3217 N3213 0.985 . S
H3218 N3212 0.984 . S
H3219 N3212 0.984 . S
H3220 N3208 0.984 . S
H3221 N3208 0.985 . S
C3222 C3223 1.363 . S
C3222 C3228 1.379 1_565 S
C3222 N3230 1.356 . S
C3223 C3222 1.363 . S
C3223 C3229 1.363 . S
C3224 C3225 1.363 . S
C3224 C3229 1.379 1_545 S
C3224 N3231 1.356 . S
C3225 C3224 1.363 . S
C3225 C3228 1.363 . S
N3226 C3228 1.356 . S
N3226 H3238 0.984 . S
N3226 H3239 0.985 . S
N3227 C3229 1.356 . S
N3227 H3232 0.984 . S
N3227 H3233 0.985 . S
C3228 C3222 1.379 1_545 S
C3228 C3225 1.363 . S
C3228 N3226 1.356 . S
C3229 C3223 1.363 . S
C3229 C3224 1.379 1_565 S
C3229 N3227 1.356 . S
N3230 C3222 1.356 . S
N3230 H3236 0.984 . S
N3230 H3237 0.984 . S
N3231 C3224 1.356 . S
N3231 H3234 0.984 . S
N3231 H3235 0.985 . S
H3232 N3227 0.984 . S
H3233 N3227 0.985 . S
H3234 N3231 0.984 . S
H3235 N3231 0.985 . S
H3236 N3230 0.984 . S
H3237 N3230 0.984 . S
H3238 N3226 0.984 . S
H3239 N3226 0.985 . S
C3240 C3241 1.363 . S
C3240 C3246 1.379 1_655 S
C3240 N3248 1.356 . S
C3241 C3240 1.363 . S
C3241 C3247 1.363 . S
C3242 C3243 1.363 . S
C3242 C3247 1.379 1_455 S
C3242 N3249 1.356 . S
C3243 C3242 1.363 . S
C3243 C3246 1.363 . S
N3244 C3246 1.356 . S
N3244 H3256 0.984 . S
N3244 H3257 0.985 . S
N3245 C3247 1.356 . S
N3245 H3250 0.984 . S
N3245 H3251 0.985 . S
C3246 C3240 1.379 1_455 S
C3246 C3243 1.363 . S
C3246 N3244 1.356 . S
C3247 C3241 1.363 . S
C3247 C3242 1.379 1_655 S
C3247 N3245 1.356 . S
N3248 C3240 1.356 . S
N3248 H3254 0.984 . S
N3248 H3255 0.984 . S
N3249 C3242 1.356 . S
N3249 H3252 0.984 . S
N3249 H3253 0.985 . S
H3250 N3245 0.984 . S
H3251 N3245 0.985 . S
H3252 N3249 0.984 . S
H3253 N3249 0.985 . S
H3254 N3248 0.984 . S
H3255 N3248 0.984 . S
H3256 N3244 0.984 . S
H3257 N3244 0.985 . S
C3258 C3259 1.363 . S
C3258 C3264 1.379 1_545 S
C3258 N3266 1.356 . S
C3259 C3258 1.363 . S
C3259 C3265 1.363 . S
C3260 C3261 1.363 . S
C3260 C3265 1.379 1_565 S
C3260 N3267 1.356 . S
C3261 C3260 1.363 . S
C3261 C3264 1.363 . S
N3262 C3264 1.356 . S
N3262 H3274 0.984 . S
N3262 H3275 0.985 . S
N3263 C3265 1.356 . S
N3263 H3268 0.984 . S
N3263 H3269 0.985 . S
C3264 C3258 1.379 1_565 S
C3264 C3261 1.363 . S
C3264 N3262 1.356 . S
C3265 C3259 1.363 . S
C3265 C3260 1.379 1_545 S
C3265 N3263 1.356 . S
N3266 C3258 1.356 . S
N3266 H3272 0.984 . S
N3266 H3273 0.984 . S
N3267 C3260 1.356 . S
N3267 H3270 0.984 . S
N3267 H3271 0.985 . S
H3268 N3263 0.984 . S
H3269 N3263 0.985 . S
H3270 N3267 0.984 . S
H3271 N3267 0.985 . S
H3272 N3266 0.984 . S
H3273 N3266 0.984 . S
H3274 N3262 0.984 . S
H3275 N3262 0.985 . S
C3276 C3277 1.363 . S
C3276 C3282 1.379 1_455 S
C3276 N3284 1.356 . S
C3277 C3276 1.363 . S
C3277 C3283 1.363 . S
C3278 C3279 1.363 . S
C3278 C3283 1.379 1_655 S
C3278 N3285 1.356 . S
C3279 C3278 1.363 . S
C3279 C3282 1.363 . S
N3280 C3282 1.356 . S
N3280 H3292 0.984 . S
N3280 H3293 0.985 . S
N3281 C3283 1.356 . S
N3281 H3286 0.984 . S
N3281 H3287 0.985 . S
C3282 C3276 1.379 1_655 S
C3282 C3279 1.363 . S
C3282 N3280 1.356 . S
C3283 C3277 1.363 . S
C3283 C3278 1.379 1_455 S
C3283 N3281 1.356 . S
N3284 C3276 1.356 . S
N3284 H3290 0.984 . S
N3284 H3291 0.984 . S
N3285 C3278 1.356 . S
N3285 H3288 0.984 . S
N3285 H3289 0.985 . S
H3286 N3281 0.984 . S
H3287 N3281 0.985 . S
H3288 N3285 0.984 . S
H3289 N3285 0.985 . S
H3290 N3284 0.984 . S
H3291 N3284 0.984 . S
H3292 N3280 0.984 . S
H3293 N3280 0.985 . S
C3294 C3295 1.363 . S
C3294 C3300 1.379 1_545 S
C3294 N3302 1.356 . S
C3295 C3294 1.363 . S
C3295 C3301 1.363 . S
C3296 C3297 1.363 . S
C3296 C3301 1.379 1_565 S
C3296 N3303 1.356 . S
C3297 C3296 1.363 . S
C3297 C3300 1.363 . S
N3298 C3300 1.356 . S
N3298 H3310 0.984 . S
N3298 H3311 0.985 . S
N3299 C3301 1.356 . S
N3299 H3304 0.984 . S
N3299 H3305 0.985 . S
C3300 C3294 1.379 1_565 S
C3300 C3297 1.363 . S
C3300 N3298 1.356 . S
C3301 C3295 1.363 . S
C3301 C3296 1.379 1_545 S
C3301 N3299 1.356 . S
N3302 C3294 1.356 . S
N3302 H3308 0.984 . S
N3302 H3309 0.984 . S
N3303 C3296 1.356 . S
N3303 H3306 0.984 . S
N3303 H3307 0.985 . S
H3304 N3299 0.984 . S
H3305 N3299 0.985 . S
H3306 N3303 0.984 . S
H3307 N3303 0.985 . S
H3308 N3302 0.984 . S
H3309 N3302 0.984 . S
H3310 N3298 0.984 . S
H3311 N3298 0.985 . S
C3312 C3313 1.363 . S
C3312 C3318 1.379 1_545 S
C3312 N3320 1.356 . S
C3313 C3312 1.363 . S
C3313 C3319 1.363 . S
C3314 C3315 1.363 . S
C3314 C3319 1.379 1_565 S
C3314 N3321 1.356 . S
C3315 C3314 1.363 . S
C3315 C3318 1.363 . S
N3316 C3318 1.356 . S
N3316 H3328 0.984 . S
N3316 H3329 0.985 . S
N3317 C3319 1.356 . S
N3317 H3322 0.984 . S
N3317 H3323 0.985 . S
C3318 C3312 1.379 1_565 S
C3318 C3315 1.363 . S
C3318 N3316 1.356 . S
C3319 C3313 1.363 . S
C3319 C3314 1.379 1_545 S
C3319 N3317 1.356 . S
N3320 C3312 1.356 . S
N3320 H3326 0.984 . S
N3320 H3327 0.984 . S
N3321 C3314 1.356 . S
N3321 H3324 0.984 . S
N3321 H3325 0.985 . S
H3322 N3317 0.984 . S
H3323 N3317 0.985 . S
H3324 N3321 0.984 . S
H3325 N3321 0.985 . S
H3326 N3320 0.984 . S
H3327 N3320 0.984 . S
H3328 N3316 0.984 . S
H3329 N3316 0.985 . S
C3330 C3331 1.363 . S
C3330 C3336 1.379 1_545 S
C3330 N3338 1.356 . S
C3331 C3330 1.363 . S
C3331 C3337 1.363 . S
C3332 C3333 1.363 . S
C3332 C3337 1.379 1_565 S
C3332 N3339 1.356 . S
C3333 C3332 1.363 . S
C3333 C3336 1.363 . S
N3334 C3336 1.356 . S
N3334 H3346 0.984 . S
N3334 H3347 0.985 . S
N3335 C3337 1.356 . S
N3335 H3340 0.984 . S
N3335 H3341 0.985 . S
C3336 C3330 1.379 1_565 S
C3336 C3333 1.363 . S
C3336 N3334 1.356 . S
C3337 C3331 1.363 . S
C3337 C3332 1.379 1_545 S
C3337 N3335 1.356 . S
N3338 C3330 1.356 . S
N3338 H3344 0.984 . S
N3338 H3345 0.984 . S
N3339 C3332 1.356 . S
N3339 H3342 0.984 . S
N3339 H3343 0.985 . S
H3340 N3335 0.984 . S
H3341 N3335 0.985 . S
H3342 N3339 0.984 . S
H3343 N3339 0.985 . S
H3344 N3338 0.984 . S
H3345 N3338 0.984 . S
H3346 N3334 0.984 . S
H3347 N3334 0.985 . S
C3348 C3349 1.363 . S
C3348 C3354 1.379 1_655 S
C3348 N3356 1.356 . S
C3349 C3348 1.363 . S
C3349 C3355 1.363 . S
C3350 C3351 1.363 . S
C3350 C3355 1.379 1_455 S
C3350 N3357 1.356 . S
C3351 C3350 1.363 . S
C3351 C3354 1.363 . S
N3352 C3354 1.356 . S
N3352 H3364 0.984 . S
N3352 H3365 0.985 . S
N3353 C3355 1.356 . S
N3353 H3358 0.984 . S
N3353 H3359 0.985 . S
C3354 C3348 1.379 1_455 S
C3354 C3351 1.363 . S
C3354 N3352 1.356 . S
C3355 C3349 1.363 . S
C3355 C3350 1.379 1_655 S
C3355 N3353 1.356 . S
N3356 C3348 1.356 . S
N3356 H3362 0.984 . S
N3356 H3363 0.984 . S
N3357 C3350 1.356 . S
N3357 H3360 0.984 . S
N3357 H3361 0.985 . S
H3358 N3353 0.984 . S
H3359 N3353 0.985 . S
H3360 N3357 0.984 . S
H3361 N3357 0.985 . S
H3362 N3356 0.984 . S
H3363 N3356 0.984 . S
H3364 N3352 0.984 . S
H3365 N3352 0.985 . S
C3366 C3367 1.363 . S
C3366 C3372 1.379 1_545 S
C3366 N3374 1.356 . S
C3367 C3366 1.363 . S
C3367 C3373 1.363 . S
C3368 C3369 1.363 . S
C3368 C3373 1.379 1_565 S
C3368 N3375 1.356 . S
C3369 C3368 1.363 . S
C3369 C3372 1.363 . S
N3370 C3372 1.356 . S
N3370 H3382 0.984 . S
N3370 H3383 0.985 . S
N3371 C3373 1.356 . S
N3371 H3376 0.984 . S
N3371 H3377 0.985 . S
C3372 C3366 1.379 1_565 S
C3372 C3369 1.363 . S
C3372 N3370 1.356 . S
C3373 C3367 1.363 . S
C3373 C3368 1.379 1_545 S
C3373 N3371 1.356 . S
N3374 C3366 1.356 . S
N3374 H3380 0.984 . S
N3374 H3381 0.984 . S
N3375 C3368 1.356 . S
N3375 H3378 0.984 . S
N3375 H3379 0.985 . S
H3376 N3371 0.984 . S
H3377 N3371 0.985 . S
H3378 N3375 0.984 . S
H3379 N3375 0.985 . S
H3380 N3374 0.984 . S
H3381 N3374 0.984 . S
H3382 N3370 0.984 . S
H3383 N3370 0.985 . S
C3384 C3385 1.363 . S
C3384 C3390 1.379 1_455 S
C3384 N3392 1.356 . S
C3385 C3384 1.363 . S
C3385 C3391 1.363 . S
C3386 C3387 1.363 . S
C3386 C3391 1.379 1_655 S
C3386 N3393 1.356 . S
C3387 C3386 1.363 . S
C3387 C3390 1.363 . S
N3388 C3390 1.356 . S
N3388 H3400 0.984 . S
N3388 H3401 0.985 . S
N3389 C3391 1.356 . S
N3389 H3394 0.984 . S
N3389 H3395 0.985 . S
C3390 C3384 1.379 1_655 S
C3390 C3387 1.363 . S
C3390 N3388 1.356 . S
C3391 C3385 1.363 . S
C3391 C3386 1.379 1_455 S
C3391 N3389 1.356 . S
N3392 C3384 1.356 . S
N3392 H3398 0.984 . S
N3392 H3399 0.984 . S
N3393 C3386 1.356 . S
N3393 H3396 0.984 . S
N3393 H3397 0.985 . S
H3394 N3389 0.984 . S
H3395 N3389 0.985 . S
H3396 N3393 0.984 . S
H3397 N3393 0.985 . S
H3398 N3392 0.984 . S
H3399 N3392 0.984 . S
H3400 N3388 0.984 . S
H3401 N3388 0.985 . S
C3402 C3403 1.363 . S
C3402 C3408 1.379 1_545 S
C3402 N3410 1.356 . S
C3403 C3402 1.363 . S
C3403 C3409 1.363 . S
C3404 C3405 1.363 . S
C3404 C3409 1.379 1_565 S
C3404 N3411 1.356 . S
C3405 C3404 1.363 . S
C3405 C3408 1.363 . S
N3406 C3408 1.356 . S
N3406 H3418 0.984 . S
N3406 H3419 0.985 . S
N3407 C3409 1.356 . S
N3407 H3412 0.984 . S
N3407 H3413 0.985 . S
C3408 C3402 1.379 1_565 S
C3408 C3405 1.363 . S
C3408 N3406 1.356 . S
C3409 C3403 1.363 . S
C3409 C3404 1.379 1_545 S
C3409 N3407 1.356 . S
N3410 C3402 1.356 . S
N3410 H3416 0.984 . S
N3410 H3417 0.984 . S
N3411 C3404 1.356 . S
N3411 H3414 0.984 . S
N3411 H3415 0.985 . S
H3412 N3407 0.984 . S
H3413 N3407 0.985 . S
H3414 N3411 0.984 . S
H3415 N3411 0.985 . S
H3416 N3410 0.984 . S
H3417 N3410 0.984 . S
H3418 N3406 0.984 . S
H3419 N3406 0.985 . S
C3420 C3421 1.363 . S
C3420 C3426 1.379 1_655 S
C3420 N3428 1.356 . S
C3421 C3420 1.363 . S
C3421 C3427 1.363 . S
C3422 C3423 1.363 . S
C3422 C3427 1.379 1_455 S
C3422 N3429 1.356 . S
C3423 C3422 1.363 . S
C3423 C3426 1.363 . S
N3424 C3426 1.356 . S
N3424 H3436 0.984 . S
N3424 H3437 0.985 . S
N3425 C3427 1.356 . S
N3425 H3430 0.984 . S
N3425 H3431 0.985 . S
C3426 C3420 1.379 1_455 S
C3426 C3423 1.363 . S
C3426 N3424 1.356 . S
C3427 C3421 1.363 . S
C3427 C3422 1.379 1_655 S
C3427 N3425 1.356 . S
N3428 C3420 1.356 . S
N3428 H3434 0.984 . S
N3428 H3435 0.984 . S
N3429 C3422 1.356 . S
N3429 H3432 0.984 . S
N3429 H3433 0.985 . S
H3430 N3425 0.984 . S
H3431 N3425 0.985 . S
H3432 N3429 0.984 . S
H3433 N3429 0.985 . S
H3434 N3428 0.984 . S
H3435 N3428 0.984 . S
H3436 N3424 0.984 . S
H3437 N3424 0.985 . S
C3438 C3439 1.363 . S
C3438 C3444 1.379 1_455 S
C3438 N3446 1.356 . S
C3439 C3438 1.363 . S
C3439 C3445 1.363 . S
C3440 C3441 1.363 . S
C3440 C3445 1.379 1_655 S
C3440 N3447 1.356 . S
C3441 C3440 1.363 . S
C3441 C3444 1.363 . S
N3442 C3444 1.356 . S
N3442 H3454 0.984 . S
N3442 H3455 0.985 . S
N3443 C3445 1.356 . S
N3443 H3448 0.984 . S
N3443 H3449 0.985 . S
C3444 C3438 1.379 1_655 S
C3444 C3441 1.363 . S
C3444 N3442 1.356 . S
C3445 C3439 1.363 . S
C3445 C3440 1.379 1_455 S
C3445 N3443 1.356 . S
N3446 C3438 1.356 . S
N3446 H3452 0.984 . S
N3446 H3453 0.984 . S
N3447 C3440 1.356 . S
N3447 H3450 0.984 . S
N3447 H3451 0.985 . S
H3448 N3443 0.984 . S
H3449 N3443 0.985 . S
H3450 N3447 0.984 . S
H3451 N3447 0.985 . S
H3452 N3446 0.984 . S
H3453 N3446 0.984 . S
H3454 N3442 0.984 . S
H3455 N3442 0.985 . S
C1729 C1418 1.353 . S
C1731 C14 1.357 . S
C1747 C39 1.228 . S
C1749 C1310 1.173 . S
C1765 C86 1.302 . S
C1767 C1346 1.268 . S
C1783 C1371 1.307 . S
C1785 C111 1.302 . S
C1801 C1191 1.299 . S
C1803 C147 1.294 . S
C1819 C194 1.306 . S
C1821 C1227 1.354 . S
C1837 C219 1.213 . S
C1839 C1274 1.159 . S
C1855 C266 1.351 . S
C1857 C1155 1.419 . S
C1873 C291 1.415 . S
C1875 C1130 1.347 . S
C1891 C1011 1.251 . S
C1893 C327 1.253 . S
C1909 C1058 1.306 . S
C1911 C374 1.276 . S
C1927 C410 1.201 . S
C1929 C1083 1.254 . S
C1945 C446 1.225 . S
C1947 C903 1.271 . S
C1963 C482 1.276 . S
C1965 C950 1.310 . S
C1981 C975 1.274 . S
C1983 C507 1.278 . S
C1999 C878 1.349 . S
C2001 C543 1.414 . S
C2017 C579 1.395 . S
C2019 C1587 1.393 . S
C2035 C1706 1.211 . S
C2037 C626 1.203 . S
C2053 C1623 1.364 . S
C2055 C651 1.363 . S
C2071 C1670 1.186 . S
C2073 C698 1.194 . S
C2089 C1443 1.423 . S
C2091 C723 1.424 . S
C2107 C1515 1.330 . S
C2109 C759 1.329 . S
C2125 C806 1.194 . S
C2127 C1562 1.202 . S
C2143 C1490 1.171 . S
C2145 C842 1.179 . S
C2161 C1166 1.351 . S
C2163 C734 1.357 . S
C2179 C615 1.320 . S
C2181 C1202 1.274 . S
C2197 C1238 1.269 . S
C2199 C662 1.303 . S
C2215 C1263 1.220 . S
C2217 C687 1.218 . S
C2233 C831 1.211 . S
C2235 C1299 1.212 . S
C2251 C1335 1.351 . S
C2253 C770 1.303 . S
C2269 C795 1.305 . S
C2271 C1382 1.259 . S
C2287 C590 1.354 . S
C2289 C1407 1.421 . S
C2305 C1454 1.363 . S
C2307 C554 1.362 . S
C2323 C435 1.243 . S
C2325 C1695 1.240 . S
C2341 C1634 1.298 . S
C2343 C471 1.346 . S
C2359 C518 1.208 . S
C2361 C1659 1.263 . S
C2377 C338 1.233 . S
C2379 C1479 1.282 . S
C2395 C363 1.349 . S
C2397 C1526 1.303 . S
C2413 C399 1.267 . S
C2415 C1551 1.262 . S
C2431 C1598 1.362 . S
C2433 C302 1.358 . S
C2449 C867 1.367 . S
C2451 C255 1.366 . S
C2467 C1022 1.187 . S
C2469 C50 1.188 . S
C2485 C1047 1.388 . S
C2487 C75 1.389 . S
C2503 C1094 1.209 . S
C2505 C122 1.209 . S
C2521 C1119 1.400 . S
C2523 C3 1.399 . S
C2539 C183 1.360 . S
C2541 C939 1.359 . S
C2557 C986 1.178 . S
C2559 C230 1.178 . S
C2575 C914 1.196 . S
C2577 C158 1.196 . S
C2593 C2 1.552 . S
C2595 C938 1.548 . S
C2611 C976 1.348 . S
C2613 C40 1.342 . S
C2629 C74 1.549 . S
C2631 C866 1.555 . S
C2647 C112 1.358 . S
C2649 C904 1.351 . S
C2665 C148 1.343 . S
C2667 C1084 1.338 . S
C2683 C1118 1.555 . S
C2685 C182 1.553 . S
C2701 C220 1.323 . S
C2703 C1012 1.332 . S
C2719 C1046 1.547 . S
C2721 C254 1.553 . S
C2737 C292 1.446 . S
C2739 C1298 1.426 . S
C2755 C1334 1.389 . S
C2757 C328 1.401 . S
C2773 C362 1.427 . S
C2775 C1372 1.448 . S
C2791 C398 1.515 . S
C2793 C1406 1.528 . S
C2809 C434 1.485 . S
C2811 C1156 1.493 . S
C2827 C470 1.443 . S
C2829 C1192 1.465 . S
C2845 C1228 1.363 . S
C2847 C508 1.378 . S
C2863 C544 1.459 . S
C2865 C1262 1.443 . S
C2881 C1550 1.392 . S
C2883 C580 1.426 . S
C2899 C614 1.421 . S
C2901 C1624 1.439 . S
C2917 C652 1.503 . S
C2919 C1658 1.474 . S
C2935 C1444 1.474 . S
C2937 C686 1.434 . S
C2953 C1694 1.461 . S
C2955 C724 1.492 . S
C2971 C760 1.433 . S
C2973 C1478 1.404 . S
C2989 C1516 1.455 . S
C2991 C794 1.432 . S
C3007 C830 1.447 . S
C3009 C1588 1.490 . S
C3025 C1514 1.553 . S
C3027 C722 1.549 . S
C3043 C616 1.352 . S
C3045 C1552 1.361 . S
C3061 C1586 1.550 . S
C3063 C650 1.550 . S
C3079 C1480 1.339 . S
C3081 C688 1.351 . S
C3097 C1660 1.325 . S
C3099 C832 1.334 . S
C3115 C758 1.551 . S
C3117 C1442 1.547 . S
C3133 C1696 1.347 . S
C3135 C796 1.335 . S
C3151 C578 1.552 . S
C3153 C1622 1.555 . S
C3169 C1190 1.562 . S
C3171 C542 1.563 . S
C3187 C436 1.400 . S
C3189 C1226 1.392 . S
C3205 C472 1.312 . S
C3207 C1264 1.316 . S
C3223 C1154 1.526 . S
C3225 C506 1.515 . S
C3241 C326 1.486 . S
C3243 C1408 1.492 . S
C3259 C1300 1.334 . S
C3261 C364 1.328 . S
C3277 C400 1.377 . S
C3279 C1336 1.364 . S
C3295 C290 1.576 . S
C3297 C1370 1.577 . S
C3313 C974 1.383 . S
C3315 C256 1.423 . S
C3331 C38 1.455 . S
C3333 C1048 1.486 . S
C3349 C76 1.507 . S
C3351 C1082 1.483 . S
C3367 C1120 1.426 . S
C3369 C110 1.400 . S
C3385 C4 1.489 . S
C3387 C1010 1.452 . S
C3403 C184 1.438 . S
C3405 C902 1.414 . S
C3421 C218 1.470 . S
C3423 C940 1.504 . S
C3439 C146 1.411 . S
C3441 C868 1.441 . S
