# Generated by pormake.
# Topology ske, (6)-cn, num edge types: 1
# Building blocks:
#     Node 0, Type 0, BuildingBlock: BETGAK_clean_sbu_0, # of connection points: 6
#     Node 1, Type 0, BuildingBlock: BETGAK_clean_sbu_0, # of connection points: 6
#     Node 2, Type 0, BuildingBlock: BETGAK_clean_sbu_0, # of connection points: 6
#     Node 3, Type 0, BuildingBlock: BETGAK_clean_sbu_0, # of connection points: 6
#     Node 4, Type 0, BuildingBlock: BETGAK_clean_sbu_0, # of connection points: 6
#     Node 5, Type 0, BuildingBlock: BETGAK_clean_sbu_0, # of connection points: 6
#     Node 6, Type 0, BuildingBlock: BETGAK_clean_sbu_0, # of connection points: 6
#     Node 7, Type 0, BuildingBlock: BETGAK_clean_sbu_0, # of connection points: 6
#     Edge 8, Type (0, 0), BuildingBlock: OJICUG_clean_linker_0, # of connection points: 2
#     Edge 9, Type (0, 0), BuildingBlock: OJICUG_clean_linker_0, # of connection points: 2
#     Edge 10, Type (0, 0), BuildingBlock: OJICUG_clean_linker_0, # of connection points: 2
#     Edge 11, Type (0, 0), BuildingBlock: OJICUG_clean_linker_0, # of connection points: 2
#     Edge 12, Type (0, 0), BuildingBlock: OJICUG_clean_linker_0, # of connection points: 2
#     Edge 13, Type (0, 0), BuildingBlock: OJICUG_clean_linker_0, # of connection points: 2
#     Edge 14, Type (0, 0), BuildingBlock: OJICUG_clean_linker_0, # of connection points: 2
#     Edge 15, Type (0, 0), BuildingBlock: OJICUG_clean_linker_0, # of connection points: 2
#     Edge 16, Type (0, 0), BuildingBlock: OJICUG_clean_linker_0, # of connection points: 2
#     Edge 17, Type (0, 0), BuildingBlock: OJICUG_clean_linker_0, # of connection points: 2
#     Edge 18, Type (0, 0), BuildingBlock: OJICUG_clean_linker_0, # of connection points: 2
#     Edge 19, Type (0, 0), BuildingBlock: OJICUG_clean_linker_0, # of connection points: 2
#     Edge 20, Type (0, 0), BuildingBlock: OJICUG_clean_linker_0, # of connection points: 2
#     Edge 21, Type (0, 0), BuildingBlock: OJICUG_clean_linker_0, # of connection points: 2
#     Edge 22, Type (0, 0), BuildingBlock: OJICUG_clean_linker_0, # of connection points: 2
#     Edge 23, Type (0, 0), BuildingBlock: OJICUG_clean_linker_0, # of connection points: 2
#     Edge 24, Type (0, 0), BuildingBlock: OJICUG_clean_linker_0, # of connection points: 2
#     Edge 25, Type (0, 0), BuildingBlock: OJICUG_clean_linker_0, # of connection points: 2
#     Edge 26, Type (0, 0), BuildingBlock: OJICUG_clean_linker_0, # of connection points: 2
#     Edge 27, Type (0, 0), BuildingBlock: OJICUG_clean_linker_0, # of connection points: 2
#     Edge 28, Type (0, 0), BuildingBlock: OJICUG_clean_linker_0, # of connection points: 2
#     Edge 29, Type (0, 0), BuildingBlock: OJICUG_clean_linker_0, # of connection points: 2
#     Edge 30, Type (0, 0), BuildingBlock: OJICUG_clean_linker_0, # of connection points: 2
#     Edge 31, Type (0, 0), BuildingBlock: OJICUG_clean_linker_0, # of connection points: 2
# Relax obj value: 0.197
# Max RMSD: 0.208
# Mean RMSD: 0.201
data_MOF--net-ske--node1-BETGAK_clean_sbu_0--edge1-OJICUG_clean_linker_0
_symmetry_space_group_name_H-M    P1
_symmetry_Int_Tables_number       1
_symmetry_cell_setting            triclinic
loop_
_symmetry_equiv_pos_as_xyz
'x, y, z'
_cell_length_a     86.402929
_cell_length_b     20.644308
_cell_length_c     11.332078
_cell_angle_alpha  90.009172
_cell_angle_beta   90.041462
_cell_angle_gamma 84.231156
loop_
_atom_site_label
_atom_site_type_symbol
_atom_site_fract_x
_atom_site_fract_y
_atom_site_fract_z
_atom_type_partial_charge
La0 La 0.1774 0.27914 0.53492 0.0
La1 La 0.14275 0.28282 0.54012 0.0
C2 C 0.20524 0.3062 0.55335 0.0
C3 C 0.22017 0.29304 0.61772 0.0
C4 C 0.22946 0.23338 0.60664 0.0
C5 C 0.24458 0.22584 0.65299 0.0
C6 C 0.25077 0.27777 0.7111 0.0
C7 C 0.24124 0.33665 0.72526 0.0
C8 C 0.22616 0.34417 0.67888 0.0
C9 C 0.16711 0.16221 0.5245 0.0
C10 C 0.16 0.27598 0.78149 0.0
C11 C 0.11446 0.26535 0.52367 0.0
C12 C 0.09769 0.25627 0.51744 0.0
C13 C 0.08746 0.28442 0.6037 0.0
C14 C 0.07154 0.27806 0.59721 0.0
C15 C 0.06541 0.24359 0.50398 0.0
C16 C 0.07567 0.21503 0.41785 0.0
C17 C 0.09168 0.22105 0.42484 0.0
C18 C 0.15342 0.39942 0.54809 0.0
C19 C 0.16012 0.28099 0.29338 0.0
O20 O 0.2008 0.26072 0.48444 0.0
O21 O 0.19352 0.33772 0.60884 0.0
O22 O 0.18036 0.17619 0.48414 0.0
O23 O 0.1612 0.21018 0.58353 0.0
O24 O 0.17236 0.2921 0.72384 0.0
O25 O 0.14784 0.25759 0.72392 0.0
O26 O 0.11977 0.307 0.59625 0.0
O27 O 0.12517 0.23318 0.45901 0.0
O28 O 0.14061 0.38518 0.59474 0.0
O29 O 0.15894 0.35106 0.48861 0.0
O30 O 0.14772 0.26607 0.35198 0.0
O31 O 0.17231 0.29984 0.34964 0.0
H32 H 0.22525 0.19308 0.55931 0.0
H33 H 0.2515 0.17951 0.64197 0.0
H34 H 0.24564 0.37799 0.76806 0.0
H35 H 0.21936 0.39102 0.68702 0.0
H36 H 0.09173 0.31192 0.67612 0.0
H37 H 0.06397 0.30152 0.66404 0.0
H38 H 0.07134 0.18781 0.34534 0.0
H39 H 0.0993 0.19885 0.35709 0.0
La40 La 0.88695 0.27673 0.5464 0.0
La41 La 0.9218 0.28089 0.54977 0.0
C42 C 0.85967 0.24333 0.56276 0.0
C43 C 0.84453 0.25591 0.62401 0.0
C44 C 0.83561 0.31667 0.61804 0.0
C45 C 0.82041 0.32434 0.66287 0.0
C46 C 0.81381 0.27148 0.71448 0.0
C47 C 0.82298 0.21135 0.72337 0.0
C48 C 0.83812 0.2037 0.67845 0.0
C49 C 0.89596 0.39628 0.53623 0.0
C50 C 0.90429 0.28284 0.79268 0.0
C51 C 0.94931 0.31194 0.53105 0.0
C52 C 0.96559 0.28685 0.50524 0.0
C53 C 0.973 0.23233 0.56409 0.0
C54 C 0.9891 0.21674 0.55358 0.0
C55 C 0.9981 0.25527 0.48401 0.0
C56 C 0.99047 0.30764 0.42037 0.0
C57 C 0.97441 0.32328 0.43118 0.0
C58 C 0.91292 0.16094 0.55569 0.0
C59 C 0.90388 0.28246 0.30608 0.0
O60 O 0.86374 0.28764 0.48965 0.0
O61 O 0.8715 0.21619 0.62335 0.0
O62 O 0.88265 0.38067 0.49939 0.0
O63 O 0.90243 0.34851 0.59239 0.0
O64 O 0.89208 0.26484 0.73531 0.0
O65 O 0.91629 0.30257 0.735 0.0
O66 O 0.94322 0.29296 0.62897 0.0
O67 O 0.93931 0.31599 0.44423 0.0
O68 O 0.92608 0.1768 0.59485 0.0
O69 O 0.90646 0.20933 0.50101 0.0
O70 O 0.91541 0.30492 0.36566 0.0
O71 O 0.89265 0.2561 0.36212 0.0
H72 H 0.84019 0.35786 0.57624 0.0
H73 H 0.81379 0.37158 0.6561 0.0
H74 H 0.81826 0.16935 0.76112 0.0
H75 H 0.84467 0.15615 0.68275 0.0
H76 H 0.96648 0.20323 0.6217 0.0
H77 H 0.99457 0.17551 0.6024 0.0
H78 H 0.99701 0.33881 0.36705 0.0
H79 H 0.96897 0.36585 0.38575 0.0
La80 La 0.14297 0.77494 0.52661 0.0
La81 La 0.17789 0.78565 0.5291 0.0
C82 C 0.11604 0.73706 0.54407 0.0
C83 C 0.09938 0.75613 0.56963 0.0
C84 C 0.09034 0.80115 0.49845 0.0
C85 C 0.07411 0.80913 0.50982 0.0
C86 C 0.06654 0.77234 0.59248 0.0
C87 C 0.07568 0.72985 0.66768 0.0
C88 C 0.0919 0.72167 0.65595 0.0
C89 C 0.15068 0.89654 0.52308 0.0
C90 C 0.161 0.77642 0.76981 0.0
C91 C 0.20474 0.82349 0.51276 0.0
C92 C 0.21999 0.81032 0.45354 0.0
C93 C 0.22849 0.74859 0.45682 0.0
C94 C 0.24373 0.73981 0.41303 0.0
C95 C 0.25077 0.7925 0.36496 0.0
C96 C 0.24202 0.85369 0.35875 0.0
C97 C 0.22683 0.86245 0.40275 0.0
C98 C 0.17009 0.66435 0.5359 0.0
C99 C 0.16042 0.77795 0.28341 0.0
O100 O 0.12181 0.75877 0.44697 0.0
O101 O 0.12602 0.73494 0.63111 0.0
O102 O 0.13757 0.87916 0.48533 0.0
O103 O 0.15768 0.84864 0.57544 0.0
O104 O 0.14971 0.7519 0.71051 0.0
O105 O 0.17192 0.80485 0.71362 0.0
O106 O 0.20087 0.78079 0.58991 0.0
O107 O 0.19287 0.84712 0.44863 0.0
O108 O 0.1833 0.68144 0.57161 0.0
O109 O 0.16312 0.71198 0.48267 0.0
O110 O 0.17239 0.79833 0.34078 0.0
O111 O 0.14874 0.7554 0.34098 0.0
H112 H 0.09571 0.82844 0.43086 0.0
H113 H 0.06745 0.8431 0.45184 0.0
H114 H 0.07026 0.7004 0.73167 0.0
H115 H 0.09856 0.68606 0.71093 0.0
H116 H 0.22352 0.70741 0.49554 0.0
H117 H 0.25003 0.69181 0.4176 0.0
H118 H 0.24709 0.89554 0.32365 0.0
H119 H 0.22058 0.91064 0.40035 0.0
La120 La 0.9222 0.78124 0.53348 0.0
La121 La 0.88724 0.77561 0.53654 0.0
C122 C 0.9495 0.8155 0.54976 0.0
C123 C 0.96613 0.79554 0.57536 0.0
C124 C 0.97504 0.75048 0.50347 0.0
C125 C 0.99127 0.74224 0.5137 0.0
C126 C 0.99899 0.77883 0.59589 0.0
C127 C 0.98999 0.82122 0.67204 0.0
C128 C 0.97375 0.82965 0.66144 0.0
C129 C 0.91355 0.66086 0.52857 0.0
C130 C 0.90429 0.78153 0.7772 0.0
C131 C 0.86001 0.74153 0.51997 0.0
C132 C 0.84483 0.75456 0.45926 0.0
C133 C 0.83584 0.81507 0.46782 0.0
C134 C 0.82063 0.82305 0.42319 0.0
C135 C 0.81407 0.77075 0.36916 0.0
C136 C 0.8233 0.7109 0.35775 0.0
C137 C 0.83846 0.70294 0.40249 0.0
C138 C 0.89604 0.8955 0.54626 0.0
C139 C 0.9046 0.78183 0.2906 0.0
O140 O 0.94357 0.79334 0.4536 0.0
O141 O 0.93953 0.81972 0.63683 0.0
O142 O 0.92676 0.67684 0.49052 0.0
O143 O 0.90694 0.70933 0.58202 0.0
O144 O 0.91584 0.80404 0.71807 0.0
O145 O 0.89305 0.75519 0.72088 0.0
O146 O 0.86409 0.7852 0.59446 0.0
O147 O 0.87183 0.7152 0.45836 0.0
O148 O 0.88274 0.87963 0.58258 0.0
O149 O 0.90258 0.84766 0.49072 0.0
O150 O 0.89244 0.76331 0.34786 0.0
O151 O 0.91652 0.80233 0.34829 0.0
H152 H 0.96955 0.72348 0.43595 0.0
H153 H 0.99783 0.70835 0.45503 0.0
H154 H 0.99553 0.85049 0.73574 0.0
H155 H 0.9672 0.86533 0.7169 0.0
H156 H 0.8404 0.85582 0.51145 0.0
H157 H 0.81396 0.87009 0.43197 0.0
H158 H 0.81861 0.66931 0.31808 0.0
H159 H 0.84506 0.65557 0.39614 0.0
La160 La 0.67652 0.78999 1.03239 0.0
La161 La 0.64229 0.78745 0.04124 0.0
C162 C 0.70423 0.81836 0.0515 0.0
C163 C 0.71894 0.80663 0.11919 0.0
C164 C 0.72804 0.7462 0.1152 0.0
C165 C 0.7431 0.73933 0.16241 0.0
C166 C 0.74944 0.79266 0.21453 0.0
C167 C 0.74007 0.85231 0.2228 0.0
C168 C 0.72503 0.85922 0.17526 0.0
C169 C 0.66705 0.67195 1.01331 0.0
C170 C 0.65893 0.78577 0.28339 0.0
C171 C 0.61476 0.7614 1.00408 0.0
C172 C 0.59855 0.75934 0.0436 0.0
C173 C 0.59096 0.80677 0.11829 0.0
C174 C 0.57485 0.80848 0.13736 0.0
C175 C 0.56615 0.76347 0.0805 0.0
C176 C 0.57397 0.71452 1.01043 0.0
C177 C 0.58999 0.71237 0.99266 0.0
C178 C 0.652 0.90425 0.06541 0.0
C179 C 0.65975 0.79107 0.79515 0.0
O180 O 0.70001 0.77079 0.98661 0.0
O181 O 0.69233 0.85181 0.10165 0.0
O182 O 0.67921 0.69019 0.96164 0.0
O183 O 0.66148 0.71717 0.07984 0.0
O184 O 0.67181 0.7949 0.22398 0.0
O185 O 0.64583 0.77557 0.22922 0.0
O186 O 0.61967 0.81824 0.98365 0.0
O187 O 0.62561 0.71951 0.04815 0.0
O188 O 0.64022 0.88471 0.12136 0.0
O189 O 0.65734 0.86037 0.99472 0.0
O190 O 0.64852 0.76718 0.85534 0.0
O191 O 0.67104 0.81653 0.85112 0.0
H192 H 0.72376 0.70468 0.07219 0.0
H193 H 0.74989 0.6924 0.15627 0.0
H194 H 0.7446 0.89456 0.26134 0.0
H195 H 0.71838 0.90658 0.17811 0.0
H196 H 0.59735 0.84373 0.158 0.0
H197 H 0.56907 0.8469 0.19134 0.0
H198 H 0.56758 0.679 0.96625 0.0
H199 H 0.59561 0.67556 0.93438 0.0
La200 La 0.38832 0.76393 1.0308 0.0
La201 La 0.42254 0.76643 1.04009 0.0
C202 C 0.36061 0.73569 0.04972 0.0
C203 C 0.34591 0.74824 0.11705 0.0
C204 C 0.33737 0.80994 0.11764 0.0
C205 C 0.32231 0.81812 0.16469 0.0
C206 C 0.31544 0.76486 0.21212 0.0
C207 C 0.32428 0.70379 0.21585 0.0
C208 C 0.33931 0.6956 0.16848 0.0
C209 C 0.39777 0.88199 1.01187 0.0
C210 C 0.4059 0.76816 0.28204 0.0
C211 C 0.45008 0.79235 1.00323 0.0
C212 C 0.46628 0.79431 0.04287 0.0
C213 C 0.47386 0.74687 0.11765 0.0
C214 C 0.48998 0.74508 0.13688 0.0
C215 C 0.49869 0.79002 0.0801 0.0
C216 C 0.49088 0.83899 1.00992 0.0
C217 C 0.47486 0.84122 0.99199 0.0
C218 C 0.41281 0.64964 0.06421 0.0
C219 C 0.4051 0.76274 0.79382 0.0
O220 O 0.36487 0.78272 0.98373 0.0
O221 O 0.37248 0.70259 0.101 0.0
O222 O 0.38561 0.86373 0.96016 0.0
O223 O 0.40335 0.83679 0.07844 0.0
O224 O 0.39303 0.75902 0.22246 0.0
O225 O 0.419 0.77836 0.22803 0.0
O226 O 0.44515 0.73556 0.98261 0.0
O227 O 0.43924 0.83426 0.04732 0.0
O228 O 0.42458 0.66918 0.12034 0.0
O229 O 0.40748 0.6935 0.9934 0.0
O230 O 0.41631 0.78674 0.85415 0.0
O231 O 0.39382 0.73719 0.84969 0.0
H232 H 0.34209 0.85156 0.0784 0.0
H233 H 0.31595 0.86605 0.16216 0.0
H234 H 0.31933 0.66158 0.25069 0.0
H235 H 0.34554 0.64737 0.16781 0.0
H236 H 0.46747 0.70996 0.15731 0.0
H237 H 0.49575 0.70665 0.19094 0.0
H238 H 0.49729 0.87445 0.96579 0.0
H239 H 0.46926 0.87804 0.93364 0.0
La240 La 0.6422 0.28771 0.04349 0.0
La241 La 0.67644 0.29 0.05277 0.0
C242 C 0.61466 0.26168 0.0803 0.0
C243 C 0.59846 0.25959 0.04065 0.0
C244 C 0.59083 0.30715 0.96633 0.0
C245 C 0.57472 0.30882 0.94724 0.0
C246 C 0.56604 0.26363 1.00371 0.0
C247 C 0.57389 0.21454 0.0734 0.0
C248 C 0.58992 0.21244 0.09118 0.0
C249 C 0.65191 0.40444 1.01971 0.0
C250 C 0.65967 0.2913 0.28985 0.0
C251 C 0.70417 0.31805 1.03399 0.0
C252 C 0.71883 0.30664 0.9657 0.0
C253 C 0.7278 0.24589 0.967 0.0
C254 C 0.74283 0.23911 0.91934 0.0
C255 C 0.74925 0.29284 0.86946 0.0
C256 C 0.73999 0.35285 0.86381 0.0
C257 C 0.72498 0.35967 0.91179 0.0
C258 C 0.66685 0.17214 0.07219 0.0
C259 C 0.65885 0.28594 0.80157 0.0
O260 O 0.61958 0.31853 0.10073 0.0
O261 O 0.62552 0.21977 1.03644 0.0
O262 O 0.64012 0.38499 0.96371 0.0
O263 O 0.65731 0.36053 0.09022 0.0
O264 O 0.64841 0.26761 0.22955 0.0
O265 O 0.671 0.31651 0.23404 0.0
O266 O 0.69995 0.27005 0.09772 0.0
O267 O 0.69227 0.35206 0.98487 0.0
O268 O 0.67902 0.19028 0.12415 0.0
O269 O 0.66139 0.21734 1.0052 0.0
O270 O 0.67174 0.29491 0.86114 0.0
O271 O 0.64574 0.27588 0.85555 0.0
H272 H 0.59719 0.34426 0.92694 0.0
H273 H 0.56892 0.34734 0.89355 0.0
H274 H 0.56752 0.17888 0.11728 0.0
H275 H 0.59556 0.17553 0.14919 0.0
H276 H 0.72346 0.20402 1.00828 0.0
H277 H 0.74953 0.19192 0.92342 0.0
H278 H 0.74458 0.3954 0.82706 0.0
H279 H 0.71842 0.40724 0.91103 0.0
La280 La 0.42241 0.26646 0.0428 0.0
La281 La 0.38816 0.26416 0.05166 0.0
C282 C 0.44994 0.29253 0.08005 0.0
C283 C 0.46616 0.29448 0.04079 0.0
C284 C 0.47372 0.24729 0.96548 0.0
C285 C 0.48984 0.24545 0.94648 0.0
C286 C 0.49857 0.29009 1.00403 0.0
C287 C 0.49079 0.3388 0.07481 0.0
C288 C 0.47476 0.34108 0.0925 0.0
C289 C 0.41271 0.14973 1.01876 0.0
C290 C 0.40493 0.26288 0.28893 0.0
C291 C 0.36041 0.23616 1.03276 0.0
C292 C 0.34572 0.24734 0.96458 0.0
C293 C 0.33629 0.30688 0.97117 0.0
C294 C 0.32125 0.31294 0.92355 0.0
C295 C 0.31526 0.25966 0.86844 0.0
C296 C 0.32496 0.20099 0.85765 0.0
C297 C 0.33998 0.19487 0.9056 0.0
C298 C 0.39777 0.38201 0.07118 0.0
C299 C 0.40575 0.26816 0.80067 0.0
O300 O 0.44502 0.23573 0.10072 0.0
O301 O 0.4391 0.33435 1.03561 0.0
O302 O 0.42451 0.1692 0.96302 0.0
O303 O 0.4073 0.19363 0.08924 0.0
O304 O 0.41619 0.28661 0.22877 0.0
O305 O 0.39361 0.23765 0.23297 0.0
O306 O 0.36465 0.28426 0.09626 0.0
O307 O 0.37232 0.20207 0.98388 0.0
O308 O 0.3856 0.36391 0.12303 0.0
O309 O 0.40322 0.33677 1.00428 0.0
O310 O 0.39287 0.2592 0.86009 0.0
O311 O 0.41886 0.27823 0.85481 0.0
H312 H 0.4673 0.21061 0.92518 0.0
H313 H 0.49559 0.20723 0.89194 0.0
H314 H 0.49721 0.37403 0.11954 0.0
H315 H 0.46917 0.3777 0.15128 0.0
H316 H 0.34029 0.34826 1.01657 0.0
H317 H 0.3142 0.35916 0.93174 0.0
H318 H 0.32071 0.15878 0.81677 0.0
H319 H 0.34688 0.14813 0.90075 0.0
C320 C 0.27131 0.30026 0.85962 0.0
C321 C 0.26727 0.27173 0.75265 0.0
H322 H 0.28947 0.31832 0.98026 0.0
C323 C 0.27919 0.23911 0.68391 0.0
H324 H 0.26245 0.32491 0.91576 0.0
C325 C 0.29472 0.23538 0.72094 0.0
C326 C 0.29876 0.26431 0.82753 0.0
H327 H 0.27656 0.21754 0.60005 0.0
H328 H 0.30361 0.21067 0.66504 0.0
C329 C 0.28684 0.29663 0.89649 0.0
C330 C 0.77004 0.31851 0.72542 0.0
C331 C 0.76576 0.28714 0.82885 0.0
H332 H 0.78842 0.33761 0.60761 0.0
C333 C 0.77746 0.25148 0.89524 0.0
H334 H 0.76132 0.34582 0.6715 0.0
C335 C 0.79301 0.24705 0.859 0.0
C336 C 0.7973 0.2781 0.75526 0.0
H337 H 0.77465 0.22782 0.97665 0.0
H338 H 0.80171 0.21982 0.9132 0.0
C339 C 0.7856 0.31399 0.68904 0.0
C340 C 0.28748 0.81019 0.18699 0.0
C341 C 0.29891 0.77223 0.25227 0.0
H342 H 0.26341 0.84517 0.16941 0.0
C343 C 0.29432 0.74021 0.35409 0.0
H344 H 0.29052 0.83444 0.10677 0.0
C345 C 0.27873 0.74627 0.38995 0.0
C346 C 0.26731 0.78443 0.32484 0.0
H347 H 0.30283 0.71114 0.40718 0.0
H348 H 0.27568 0.72201 0.47013 0.0
C349 C 0.2719 0.81619 0.22275 0.0
C350 C 0.7777 0.7524 0.18712 0.0
C351 C 0.76597 0.78695 0.2549 0.0
H352 H 0.80197 0.72146 0.16808 0.0
C353 C 0.77026 0.81712 0.35965 0.0
H354 H 0.77489 0.7297 0.10471 0.0
C355 C 0.78583 0.81246 0.396 0.0
C356 C 0.79754 0.77761 0.32844 0.0
H357 H 0.76153 0.84356 0.41464 0.0
H358 H 0.78864 0.8351 0.47844 0.0
C359 C 0.79326 0.74782 0.22333 0.0
C360 C 0.17001 0.9782 0.55494 0.0
C361 C 0.15473 0.96474 0.52963 0.0
H362 H 0.18596 0.05119 0.56996 0.0
C363 C 0.14336 1.01722 0.50914 0.0
H364 H 0.17894 0.93907 0.57367 0.0
C365 C 0.14722 0.08164 0.51272 0.0
C366 C 0.16263 0.09483 0.53256 0.0
H367 H 0.13145 1.00853 0.49042 0.0
H368 H 0.13826 0.12084 0.49591 0.0
C369 C 0.17399 0.04244 0.55371 0.0
C370 C 0.88946 0.51693 0.55967 0.0
C371 C 0.9006 0.46362 0.53961 0.0
H372 H 0.88498 0.62059 0.57875 0.0
C373 C 0.91609 0.4755 0.51941 0.0
H374 H 0.87744 0.50917 0.57643 0.0
C375 C 0.92025 0.53954 0.51497 0.0
C376 C 0.90912 0.59301 0.53515 0.0
H377 H 0.92491 0.43538 0.50362 0.0
H378 H 0.93223 0.54716 0.49631 0.0
C379 C 0.89375 0.5808 0.56024 0.0
C380 C 0.91598 0.97561 0.56125 0.0
C381 C 0.90051 0.96306 0.54218 0.0
H382 H 0.93193 0.048 0.58416 0.0
C383 C 0.88921 1.01597 0.52337 0.0
H384 H 0.92492 0.93585 0.57604 0.0
C385 C 0.89331 0.08012 0.52326 0.0
C386 C 0.90865 0.09294 0.54754 0.0
H387 H 0.8772 1.00768 0.50755 0.0
H388 H 0.88441 0.11963 0.50615 0.0
C389 C 0.91996 0.03987 0.56616 0.0
C390 C 0.17722 0.54389 0.5158 0.0
C391 C 0.16581 0.59667 0.53231 0.0
H392 H 0.18213 0.44011 0.50084 0.0
C393 C 0.15031 0.58412 0.54843 0.0
H394 H 0.18926 0.55233 0.50206 0.0
C395 C 0.14637 0.51998 0.55337 0.0
C396 C 0.15776 0.46699 0.53739 0.0
H397 H 0.1413 0.62381 0.56095 0.0
H398 H 0.13436 0.51189 0.56948 0.0
C399 C 0.17316 0.47968 0.51549 0.0
C400 C 0.66112 0.57164 0.12344 0.0
C401 C 0.66297 0.60386 1.01585 0.0
H402 H 0.65679 0.4821 0.20896 0.0
C403 C 0.66134 0.5698 0.90995 0.0
H404 H 0.66241 0.59673 0.2063 0.0
C405 C 0.65756 0.5052 0.91145 0.0
C406 C 0.65604 0.4725 1.01889 0.0
H407 H 0.66273 0.59356 0.82592 0.0
H408 H 0.65609 0.48039 0.82855 0.0
C409 C 0.658 0.5061 0.12495 0.0
C410 C 0.40365 0.98234 0.12226 0.0
C411 C 0.40181 0.95013 1.0146 0.0
H412 H 0.40792 0.07194 0.20794 0.0
C413 C 0.40339 0.98427 0.90877 0.0
H414 H 0.40239 0.95718 0.20506 0.0
C415 C 0.4071 0.04895 0.91039 0.0
C416 C 0.40862 0.08163 1.01788 0.0
H417 H 0.402 0.96052 0.82469 0.0
H418 H 0.40854 0.07382 0.82753 0.0
C419 C 0.40671 0.04795 0.12388 0.0
C420 C 0.40387 0.48366 0.17415 0.0
C421 C 0.40186 0.45007 0.06832 0.0
H422 H 0.40938 0.57275 0.2553 0.0
C423 C 0.40327 0.4828 0.96069 0.0
H424 H 0.40281 0.4595 0.25821 0.0
C425 C 0.40635 0.5484 0.95916 0.0
C426 C 0.4087 0.58154 0.06509 0.0
H427 H 0.40167 0.45807 0.87791 0.0
H428 H 0.40723 0.5728 0.87515 0.0
C429 C 0.4076 0.54831 0.17248 0.0
C430 C 0.6614 0.07121 0.9617 0.0
C431 C 0.66279 0.10403 0.06931 0.0
H432 H 0.65751 0.98108 0.87625 0.0
C433 C 0.66081 0.07045 0.17516 0.0
H434 H 0.66299 0.09592 0.87891 0.0
C435 C 0.65714 1.00572 0.17355 0.0
C436 C 0.65607 0.97241 0.06619 0.0
H437 H 0.66187 0.09467 0.25921 0.0
H438 H 0.65539 0.9813 0.25638 0.0
C439 C 0.65838 1.00554 0.96023 0.0
C440 C 0.17299 0.29635 0.09827 0.0
C441 C 0.16006 0.27946 0.16242 0.0
H442 H 0.18314 0.30838 0.92855 0.0
C443 C 0.14716 0.26065 0.10007 0.0
H444 H 0.18315 0.31094 0.14324 0.0
C445 C 0.14716 0.25906 0.97655 0.0
C446 C 0.16008 0.27617 0.91247 0.0
H447 H 0.13701 0.24717 0.14654 0.0
H448 H 0.137 0.24463 0.93143 0.0
C449 C 0.173 0.29476 0.97488 0.0
C450 C 0.89158 0.26144 0.11047 0.0
C451 C 0.90394 0.28376 0.17474 0.0
H452 H 0.88197 0.24373 0.94074 0.0
C453 C 0.91636 0.30653 0.11204 0.0
H454 H 0.8818 0.24362 0.15553 0.0
C455 C 0.91647 0.30647 0.98826 0.0
C456 C 0.90413 0.28387 0.92407 0.0
H457 H 0.92607 0.32406 0.15846 0.0
H458 H 0.92626 0.32403 0.94302 0.0
C459 C 0.89167 0.26156 0.98691 0.0
C460 C 0.17278 0.80123 0.08899 0.0
C461 C 0.1606 0.77682 0.15197 0.0
H462 H 0.18249 0.82018 0.92023 0.0
C463 C 0.14859 0.75157 0.08787 0.0
H464 H 0.18222 0.82109 0.13505 0.0
C465 C 0.14877 0.75091 0.9641 0.0
C466 C 0.16092 0.77568 0.90123 0.0
H467 H 0.13902 0.73232 0.13319 0.0
H468 H 0.13931 0.73129 0.91781 0.0
C469 C 0.17293 0.80072 0.96539 0.0
C470 C 0.9167 0.80566 0.97156 0.0
C471 C 0.90432 0.78265 0.90855 0.0
H472 H 0.92654 0.82339 0.14078 0.0
C473 C 0.89199 0.76002 0.97251 0.0
H474 H 0.9264 0.82344 0.9254 0.0
C475 C 0.89206 0.76011 0.09609 0.0
C476 C 0.90447 0.78273 0.15921 0.0
H477 H 0.88225 0.74201 0.9272 0.0
H478 H 0.88237 0.74208 0.14203 0.0
C479 C 0.91678 0.8056 0.09531 0.0
C480 C 0.64657 0.7679 0.47966 0.0
C481 C 0.65926 0.78637 0.41436 0.0
H482 H 0.63679 0.75461 0.65043 0.0
C483 C 0.67213 0.80631 0.47559 0.0
H484 H 0.63647 0.75219 0.43557 0.0
C485 C 0.67226 0.80811 0.59908 0.0
C486 C 0.65958 0.78958 0.66427 0.0
H487 H 0.68207 0.8211 0.42823 0.0
H488 H 0.68234 0.82386 0.64335 0.0
C489 C 0.64676 0.76924 0.60309 0.0
C490 C 0.41807 0.78466 0.6019 0.0
C491 C 0.40527 0.76424 0.66293 0.0
H492 H 0.42835 0.8018 0.43451 0.0
C493 C 0.39259 0.74567 0.59759 0.0
H494 H 0.42803 0.79931 0.64937 0.0
C495 C 0.39271 0.74752 0.47409 0.0
C496 C 0.40557 0.76754 0.41302 0.0
H497 H 0.38251 0.72987 0.64174 0.0
H498 H 0.38277 0.73271 0.42661 0.0
C499 C 0.41825 0.78604 0.47848 0.0
C500 C 0.6722 0.30809 0.48605 0.0
C501 C 0.65949 0.28981 0.42072 0.0
H502 H 0.68204 0.32085 0.65702 0.0
C503 C 0.64665 0.26972 0.48174 0.0
H504 H 0.68231 0.32364 0.4419 0.0
C505 C 0.64647 0.26835 0.60516 0.0
C506 C 0.65918 0.28656 0.6706 0.0
H507 H 0.63666 0.25529 0.43428 0.0
H508 H 0.63634 0.25284 0.64913 0.0
C509 C 0.67207 0.30627 0.60954 0.0
C510 C 0.41795 0.28445 0.48099 0.0
C511 C 0.40511 0.26435 0.4198 0.0
H512 H 0.42826 0.30131 0.64851 0.0
C513 C 0.3924 0.24604 0.48499 0.0
H514 H 0.42794 0.2989 0.43365 0.0
C515 C 0.39254 0.24783 0.60848 0.0
C516 C 0.40543 0.26754 0.6697 0.0
H517 H 0.3823 0.23047 0.44071 0.0
H518 H 0.38257 0.23322 0.65583 0.0
C519 C 0.41814 0.28579 0.60441 0.0
C520 C 0.04043 0.24987 0.3878 0.0
C521 C 0.04832 0.23959 0.49584 0.0
H522 H 1.01843 0.26213 0.29876 0.0
C523 C 0.03961 0.22929 0.59774 0.0
H524 H 0.04677 0.25829 0.30775 0.0
C525 C 1.02339 0.2318 0.59274 0.0
C526 C 1.01543 0.24482 0.48571 0.0
H527 H 0.04533 0.22041 0.68211 0.0
H528 H 1.01706 0.22615 0.67394 0.0
C529 C 1.02417 0.25266 0.38286 0.0
C530 C 1.02474 0.77593 0.70288 0.0
C531 C 1.01632 0.77617 0.59647 0.0
H532 H 0.04714 0.77483 0.78544 0.0
C533 C 1.02456 0.77598 0.48945 0.0
H534 H 1.01877 0.77586 0.78687 0.0
C535 C 0.04076 0.77555 0.48863 0.0
C536 C 0.04921 0.77503 0.5948 0.0
H537 H 1.01846 0.77712 0.40583 0.0
H538 H 0.04669 0.77465 0.40439 0.0
C539 C 0.041 0.77499 0.70205 0.0
C540 C 0.54054 0.77343 0.97706 0.0
C541 C 0.54887 0.77063 0.08369 0.0
H542 H 0.51824 0.78199 0.89313 0.0
C543 C 0.54059 0.77415 0.19073 0.0
H544 H 0.54661 0.77126 0.89329 0.0
C545 C 0.52424 0.77937 0.19063 0.0
C546 C 0.51597 0.7828 0.08349 0.0
H547 H 0.54677 0.77192 0.27408 0.0
H548 H 0.51807 0.78168 0.27391 0.0
C549 C 0.52431 0.77989 0.97697 0.0
C550 C 0.52421 0.27948 0.1072 0.0
C551 C 0.51585 0.28282 1.00066 0.0
H552 H 0.54652 0.27058 0.1909 0.0
C553 C 0.52411 0.27981 0.89354 0.0
H554 H 0.51816 0.28126 0.19103 0.0
C555 C 0.54046 0.27462 0.89348 0.0
C556 C 0.54876 0.27069 1.00052 0.0
H557 H 0.51792 0.28246 0.81025 0.0
H558 H 0.54662 0.27274 0.81013 0.0
C559 C 0.54044 0.27305 0.10712 0.0
loop_
_geom_bond_atom_site_label_1
_geom_bond_atom_site_label_2
_geom_bond_distance
_geom_bond_site_symmetry_2
_ccdc_geom_bond_type
La0 C2 2.928 . S
La0 O20 2.521 . S
La0 O21 2.628 . S
La0 O22 2.554 . S
La0 O23 2.757 . S
La0 O24 2.470 . S
La0 O29 2.482 . S
La0 O31 2.503 . S
La1 C11 2.928 . S
La1 O23 2.482 . S
La1 O25 2.503 . S
La1 O26 2.521 . S
La1 O27 2.628 . S
La1 O28 2.554 . S
La1 O29 2.757 . S
La1 O30 2.470 . S
C2 La0 2.928 . S
C2 C3 1.503 . S
C2 O20 1.261 . S
C2 O21 1.243 . S
C3 C2 1.503 . S
C3 C4 1.394 . S
C3 C8 1.373 . S
C4 C3 1.394 . S
C4 C5 1.380 . S
C4 H32 0.930 . S
C5 C4 1.380 . S
C5 C6 1.376 . S
C5 H33 0.930 . S
C6 C5 1.376 . S
C6 C7 1.370 . S
C7 C6 1.370 . S
C7 C8 1.396 . S
C7 H34 0.929 . S
C8 C3 1.373 . S
C8 C7 1.396 . S
C8 H35 0.929 . S
C9 O22 1.240 . S
C9 O23 1.289 . S
C10 O24 1.258 . S
C10 O25 1.256 . S
C11 La1 2.928 . S
C11 C12 1.503 . S
C11 O26 1.261 . S
C11 O27 1.243 . S
C12 C11 1.503 . S
C12 C13 1.394 . S
C12 C17 1.373 . S
C13 C12 1.394 . S
C13 C14 1.380 . S
C13 H36 0.930 . S
C14 C13 1.380 . S
C14 C15 1.376 . S
C14 H37 0.930 . S
C15 C14 1.376 . S
C15 C16 1.370 . S
C16 C15 1.370 . S
C16 C17 1.396 . S
C16 H38 0.929 . S
C17 C12 1.373 . S
C17 C16 1.396 . S
C17 H39 0.929 . S
C18 O28 1.240 . S
C18 O29 1.289 . S
C19 O30 1.258 . S
C19 O31 1.256 . S
O20 La0 2.521 . S
O20 C2 1.261 . S
O21 La0 2.628 . S
O21 C2 1.243 . S
O22 La0 2.554 . S
O22 C9 1.240 . S
O23 La0 2.757 . S
O23 La1 2.482 . S
O23 C9 1.289 . S
O24 La0 2.470 . S
O24 C10 1.258 . S
O25 La1 2.503 . S
O25 C10 1.256 . S
O26 La1 2.521 . S
O26 C11 1.261 . S
O27 La1 2.628 . S
O27 C11 1.243 . S
O28 La1 2.554 . S
O28 C18 1.240 . S
O29 La0 2.482 . S
O29 La1 2.757 . S
O29 C18 1.289 . S
O30 La1 2.470 . S
O30 C19 1.258 . S
O31 La0 2.503 . S
O31 C19 1.256 . S
H32 C4 0.930 . S
H33 C5 0.930 . S
H34 C7 0.929 . S
H35 C8 0.929 . S
H36 C13 0.930 . S
H37 C14 0.930 . S
H38 C16 0.929 . S
H39 C17 0.929 . S
La40 C42 2.928 . S
La40 O60 2.521 . S
La40 O61 2.628 . S
La40 O62 2.554 . S
La40 O63 2.757 . S
La40 O64 2.470 . S
La40 O69 2.482 . S
La40 O71 2.503 . S
La41 C51 2.928 . S
La41 O63 2.482 . S
La41 O65 2.503 . S
La41 O66 2.521 . S
La41 O67 2.628 . S
La41 O68 2.554 . S
La41 O69 2.757 . S
La41 O70 2.470 . S
C42 La40 2.928 . S
C42 C43 1.503 . S
C42 O60 1.261 . S
C42 O61 1.243 . S
C43 C42 1.503 . S
C43 C44 1.394 . S
C43 C48 1.373 . S
C44 C43 1.394 . S
C44 C45 1.380 . S
C44 H72 0.930 . S
C45 C44 1.380 . S
C45 C46 1.376 . S
C45 H73 0.930 . S
C46 C45 1.376 . S
C46 C47 1.370 . S
C47 C46 1.370 . S
C47 C48 1.396 . S
C47 H74 0.929 . S
C48 C43 1.373 . S
C48 C47 1.396 . S
C48 H75 0.929 . S
C49 O62 1.240 . S
C49 O63 1.289 . S
C50 O64 1.258 . S
C50 O65 1.256 . S
C51 La41 2.928 . S
C51 C52 1.503 . S
C51 O66 1.261 . S
C51 O67 1.243 . S
C52 C51 1.503 . S
C52 C53 1.394 . S
C52 C57 1.373 . S
C53 C52 1.394 . S
C53 C54 1.380 . S
C53 H76 0.930 . S
C54 C53 1.380 . S
C54 C55 1.376 . S
C54 H77 0.930 . S
C55 C54 1.376 . S
C55 C56 1.370 . S
C56 C55 1.370 . S
C56 C57 1.396 . S
C56 H78 0.929 . S
C57 C52 1.373 . S
C57 C56 1.396 . S
C57 H79 0.929 . S
C58 O68 1.240 . S
C58 O69 1.289 . S
C59 O70 1.258 . S
C59 O71 1.256 . S
O60 La40 2.521 . S
O60 C42 1.261 . S
O61 La40 2.628 . S
O61 C42 1.243 . S
O62 La40 2.554 . S
O62 C49 1.240 . S
O63 La40 2.757 . S
O63 La41 2.482 . S
O63 C49 1.289 . S
O64 La40 2.470 . S
O64 C50 1.258 . S
O65 La41 2.503 . S
O65 C50 1.256 . S
O66 La41 2.521 . S
O66 C51 1.261 . S
O67 La41 2.628 . S
O67 C51 1.243 . S
O68 La41 2.554 . S
O68 C58 1.240 . S
O69 La40 2.482 . S
O69 La41 2.757 . S
O69 C58 1.289 . S
O70 La41 2.470 . S
O70 C59 1.258 . S
O71 La40 2.503 . S
O71 C59 1.256 . S
H72 C44 0.930 . S
H73 C45 0.930 . S
H74 C47 0.929 . S
H75 C48 0.929 . S
H76 C53 0.930 . S
H77 C54 0.930 . S
H78 C56 0.929 . S
H79 C57 0.929 . S
La80 C82 2.928 . S
La80 O100 2.521 . S
La80 O101 2.628 . S
La80 O102 2.554 . S
La80 O103 2.757 . S
La80 O104 2.470 . S
La80 O109 2.482 . S
La80 O111 2.503 . S
La81 C91 2.928 . S
La81 O103 2.482 . S
La81 O105 2.503 . S
La81 O106 2.521 . S
La81 O107 2.628 . S
La81 O108 2.554 . S
La81 O109 2.757 . S
La81 O110 2.470 . S
C82 La80 2.928 . S
C82 C83 1.503 . S
C82 O100 1.261 . S
C82 O101 1.243 . S
C83 C82 1.503 . S
C83 C84 1.394 . S
C83 C88 1.373 . S
C84 C83 1.394 . S
C84 C85 1.380 . S
C84 H112 0.930 . S
C85 C84 1.380 . S
C85 C86 1.376 . S
C85 H113 0.930 . S
C86 C85 1.376 . S
C86 C87 1.370 . S
C87 C86 1.370 . S
C87 C88 1.396 . S
C87 H114 0.929 . S
C88 C83 1.373 . S
C88 C87 1.396 . S
C88 H115 0.929 . S
C89 O102 1.240 . S
C89 O103 1.289 . S
C90 O104 1.258 . S
C90 O105 1.256 . S
C91 La81 2.928 . S
C91 C92 1.503 . S
C91 O106 1.261 . S
C91 O107 1.243 . S
C92 C91 1.503 . S
C92 C93 1.394 . S
C92 C97 1.373 . S
C93 C92 1.394 . S
C93 C94 1.380 . S
C93 H116 0.930 . S
C94 C93 1.380 . S
C94 C95 1.376 . S
C94 H117 0.930 . S
C95 C94 1.376 . S
C95 C96 1.370 . S
C96 C95 1.370 . S
C96 C97 1.396 . S
C96 H118 0.929 . S
C97 C92 1.373 . S
C97 C96 1.396 . S
C97 H119 0.929 . S
C98 O108 1.240 . S
C98 O109 1.289 . S
C99 O110 1.258 . S
C99 O111 1.256 . S
O100 La80 2.521 . S
O100 C82 1.261 . S
O101 La80 2.628 . S
O101 C82 1.243 . S
O102 La80 2.554 . S
O102 C89 1.240 . S
O103 La80 2.757 . S
O103 La81 2.482 . S
O103 C89 1.289 . S
O104 La80 2.470 . S
O104 C90 1.258 . S
O105 La81 2.503 . S
O105 C90 1.256 . S
O106 La81 2.521 . S
O106 C91 1.261 . S
O107 La81 2.628 . S
O107 C91 1.243 . S
O108 La81 2.554 . S
O108 C98 1.240 . S
O109 La80 2.482 . S
O109 La81 2.757 . S
O109 C98 1.289 . S
O110 La81 2.470 . S
O110 C99 1.258 . S
O111 La80 2.503 . S
O111 C99 1.256 . S
H112 C84 0.930 . S
H113 C85 0.930 . S
H114 C87 0.929 . S
H115 C88 0.929 . S
H116 C93 0.930 . S
H117 C94 0.930 . S
H118 C96 0.929 . S
H119 C97 0.929 . S
La120 C122 2.928 . S
La120 O140 2.521 . S
La120 O141 2.628 . S
La120 O142 2.554 . S
La120 O143 2.757 . S
La120 O144 2.470 . S
La120 O149 2.482 . S
La120 O151 2.503 . S
La121 C131 2.928 . S
La121 O143 2.482 . S
La121 O145 2.503 . S
La121 O146 2.521 . S
La121 O147 2.628 . S
La121 O148 2.554 . S
La121 O149 2.757 . S
La121 O150 2.470 . S
C122 La120 2.928 . S
C122 C123 1.503 . S
C122 O140 1.261 . S
C122 O141 1.243 . S
C123 C122 1.503 . S
C123 C124 1.394 . S
C123 C128 1.373 . S
C124 C123 1.394 . S
C124 C125 1.380 . S
C124 H152 0.930 . S
C125 C124 1.380 . S
C125 C126 1.376 . S
C125 H153 0.930 . S
C126 C125 1.376 . S
C126 C127 1.370 . S
C127 C126 1.370 . S
C127 C128 1.396 . S
C127 H154 0.929 . S
C128 C123 1.373 . S
C128 C127 1.396 . S
C128 H155 0.929 . S
C129 O142 1.240 . S
C129 O143 1.289 . S
C130 O144 1.258 . S
C130 O145 1.256 . S
C131 La121 2.928 . S
C131 C132 1.503 . S
C131 O146 1.261 . S
C131 O147 1.243 . S
C132 C131 1.503 . S
C132 C133 1.394 . S
C132 C137 1.373 . S
C133 C132 1.394 . S
C133 C134 1.380 . S
C133 H156 0.930 . S
C134 C133 1.380 . S
C134 C135 1.376 . S
C134 H157 0.930 . S
C135 C134 1.376 . S
C135 C136 1.370 . S
C136 C135 1.370 . S
C136 C137 1.396 . S
C136 H158 0.929 . S
C137 C132 1.373 . S
C137 C136 1.396 . S
C137 H159 0.929 . S
C138 O148 1.240 . S
C138 O149 1.289 . S
C139 O150 1.258 . S
C139 O151 1.256 . S
O140 La120 2.521 . S
O140 C122 1.261 . S
O141 La120 2.628 . S
O141 C122 1.243 . S
O142 La120 2.554 . S
O142 C129 1.240 . S
O143 La120 2.757 . S
O143 La121 2.482 . S
O143 C129 1.289 . S
O144 La120 2.470 . S
O144 C130 1.258 . S
O145 La121 2.503 . S
O145 C130 1.256 . S
O146 La121 2.521 . S
O146 C131 1.261 . S
O147 La121 2.628 . S
O147 C131 1.243 . S
O148 La121 2.554 . S
O148 C138 1.240 . S
O149 La120 2.482 . S
O149 La121 2.757 . S
O149 C138 1.289 . S
O150 La121 2.470 . S
O150 C139 1.258 . S
O151 La120 2.503 . S
O151 C139 1.256 . S
H152 C124 0.930 . S
H153 C125 0.930 . S
H154 C127 0.929 . S
H155 C128 0.929 . S
H156 C133 0.930 . S
H157 C134 0.930 . S
H158 C136 0.929 . S
H159 C137 0.929 . S
La160 C162 2.928 1_556 S
La160 O180 2.521 1_556 S
La160 O181 2.628 1_556 S
La160 O182 2.554 . S
La160 O183 2.757 . S
La160 O184 2.470 1_556 S
La160 O189 2.482 1_556 S
La160 O191 2.503 . S
La161 C171 2.928 1_554 S
La161 O183 2.482 1_554 S
La161 O185 2.503 . S
La161 O186 2.521 1_554 S
La161 O187 2.628 1_554 S
La161 O188 2.554 . S
La161 O189 2.757 . S
La161 O190 2.470 1_554 S
C162 La160 2.928 1_554 S
C162 C163 1.503 . S
C162 O180 1.261 . S
C162 O181 1.243 . S
C163 C162 1.503 . S
C163 C164 1.394 . S
C163 C168 1.373 . S
C164 C163 1.394 . S
C164 C165 1.380 . S
C164 H192 0.930 . S
C165 C164 1.380 . S
C165 C166 1.376 . S
C165 H193 0.930 . S
C166 C165 1.376 . S
C166 C167 1.370 . S
C167 C166 1.370 . S
C167 C168 1.396 . S
C167 H194 0.929 . S
C168 C163 1.373 . S
C168 C167 1.396 . S
C168 H195 0.929 . S
C169 O182 1.240 . S
C169 O183 1.289 . S
C170 O184 1.258 . S
C170 O185 1.256 . S
C171 La161 2.928 1_556 S
C171 C172 1.503 . S
C171 O186 1.261 . S
C171 O187 1.243 . S
C172 C171 1.503 . S
C172 C173 1.394 . S
C172 C177 1.373 . S
C173 C172 1.394 . S
C173 C174 1.380 . S
C173 H196 0.930 . S
C174 C173 1.380 . S
C174 C175 1.376 . S
C174 H197 0.930 . S
C175 C174 1.376 . S
C175 C176 1.370 . S
C176 C175 1.370 . S
C176 C177 1.396 . S
C176 H198 0.929 . S
C177 C172 1.373 . S
C177 C176 1.396 . S
C177 H199 0.929 . S
C178 O188 1.240 . S
C178 O189 1.289 . S
C179 O190 1.258 . S
C179 O191 1.256 . S
O180 La160 2.521 1_554 S
O180 C162 1.261 . S
O181 La160 2.628 1_554 S
O181 C162 1.243 . S
O182 La160 2.554 . S
O182 C169 1.240 . S
O183 La160 2.757 . S
O183 La161 2.482 1_556 S
O183 C169 1.289 . S
O184 La160 2.470 1_554 S
O184 C170 1.258 . S
O185 La161 2.503 . S
O185 C170 1.256 . S
O186 La161 2.521 1_556 S
O186 C171 1.261 . S
O187 La161 2.628 1_556 S
O187 C171 1.243 . S
O188 La161 2.554 . S
O188 C178 1.240 . S
O189 La160 2.482 1_554 S
O189 La161 2.757 . S
O189 C178 1.289 . S
O190 La161 2.470 1_556 S
O190 C179 1.258 . S
O191 La160 2.503 . S
O191 C179 1.256 . S
H192 C164 0.930 . S
H193 C165 0.930 . S
H194 C167 0.929 . S
H195 C168 0.929 . S
H196 C173 0.930 . S
H197 C174 0.930 . S
H198 C176 0.929 . S
H199 C177 0.929 . S
La200 C202 2.928 1_556 S
La200 O220 2.521 1_556 S
La200 O221 2.628 1_556 S
La200 O222 2.554 . S
La200 O223 2.757 . S
La200 O224 2.470 1_556 S
La200 O229 2.482 1_556 S
La200 O231 2.503 . S
La201 C211 2.928 1_554 S
La201 O223 2.482 1_554 S
La201 O225 2.503 . S
La201 O226 2.521 1_554 S
La201 O227 2.628 1_554 S
La201 O228 2.554 . S
La201 O229 2.757 . S
La201 O230 2.470 1_554 S
C202 La200 2.928 1_554 S
C202 C203 1.503 . S
C202 O220 1.261 . S
C202 O221 1.243 . S
C203 C202 1.503 . S
C203 C204 1.394 . S
C203 C208 1.373 . S
C204 C203 1.394 . S
C204 C205 1.380 . S
C204 H232 0.930 . S
C205 C204 1.380 . S
C205 C206 1.376 . S
C205 H233 0.930 . S
C206 C205 1.376 . S
C206 C207 1.370 . S
C207 C206 1.370 . S
C207 C208 1.396 . S
C207 H234 0.929 . S
C208 C203 1.373 . S
C208 C207 1.396 . S
C208 H235 0.929 . S
C209 O222 1.240 . S
C209 O223 1.289 . S
C210 O224 1.258 . S
C210 O225 1.256 . S
C211 La201 2.928 1_556 S
C211 C212 1.503 . S
C211 O226 1.261 . S
C211 O227 1.243 . S
C212 C211 1.503 . S
C212 C213 1.394 . S
C212 C217 1.373 . S
C213 C212 1.394 . S
C213 C214 1.380 . S
C213 H236 0.930 . S
C214 C213 1.380 . S
C214 C215 1.376 . S
C214 H237 0.930 . S
C215 C214 1.376 . S
C215 C216 1.370 . S
C216 C215 1.370 . S
C216 C217 1.396 . S
C216 H238 0.929 . S
C217 C212 1.373 . S
C217 C216 1.396 . S
C217 H239 0.929 . S
C218 O228 1.240 . S
C218 O229 1.289 . S
C219 O230 1.258 . S
C219 O231 1.256 . S
O220 La200 2.521 1_554 S
O220 C202 1.261 . S
O221 La200 2.628 1_554 S
O221 C202 1.243 . S
O222 La200 2.554 . S
O222 C209 1.240 . S
O223 La200 2.757 . S
O223 La201 2.482 1_556 S
O223 C209 1.289 . S
O224 La200 2.470 1_554 S
O224 C210 1.258 . S
O225 La201 2.503 . S
O225 C210 1.256 . S
O226 La201 2.521 1_556 S
O226 C211 1.261 . S
O227 La201 2.628 1_556 S
O227 C211 1.243 . S
O228 La201 2.554 . S
O228 C218 1.240 . S
O229 La200 2.482 1_554 S
O229 La201 2.757 . S
O229 C218 1.289 . S
O230 La201 2.470 1_556 S
O230 C219 1.258 . S
O231 La200 2.503 . S
O231 C219 1.256 . S
H232 C204 0.930 . S
H233 C205 0.930 . S
H234 C207 0.929 . S
H235 C208 0.929 . S
H236 C213 0.930 . S
H237 C214 0.930 . S
H238 C216 0.929 . S
H239 C217 0.929 . S
La240 C242 2.928 1_556 S
La240 O260 2.521 1_556 S
La240 O261 2.628 1_556 S
La240 O262 2.554 . S
La240 O263 2.757 . S
La240 O264 2.470 1_556 S
La240 O269 2.482 1_556 S
La240 O271 2.503 . S
La241 C251 2.928 1_554 S
La241 O263 2.482 1_554 S
La241 O265 2.503 . S
La241 O266 2.521 1_554 S
La241 O267 2.628 1_554 S
La241 O268 2.554 . S
La241 O269 2.757 . S
La241 O270 2.470 1_554 S
C242 La240 2.928 1_554 S
C242 C243 1.503 . S
C242 O260 1.261 . S
C242 O261 1.243 . S
C243 C242 1.503 . S
C243 C244 1.394 . S
C243 C248 1.373 . S
C244 C243 1.394 . S
C244 C245 1.380 . S
C244 H272 0.930 . S
C245 C244 1.380 . S
C245 C246 1.376 . S
C245 H273 0.930 . S
C246 C245 1.376 . S
C246 C247 1.370 . S
C247 C246 1.370 . S
C247 C248 1.396 . S
C247 H274 0.929 . S
C248 C243 1.373 . S
C248 C247 1.396 . S
C248 H275 0.929 . S
C249 O262 1.240 . S
C249 O263 1.289 . S
C250 O264 1.258 . S
C250 O265 1.256 . S
C251 La241 2.928 1_556 S
C251 C252 1.503 . S
C251 O266 1.261 . S
C251 O267 1.243 . S
C252 C251 1.503 . S
C252 C253 1.394 . S
C252 C257 1.373 . S
C253 C252 1.394 . S
C253 C254 1.380 . S
C253 H276 0.930 . S
C254 C253 1.380 . S
C254 C255 1.376 . S
C254 H277 0.930 . S
C255 C254 1.376 . S
C255 C256 1.370 . S
C256 C255 1.370 . S
C256 C257 1.396 . S
C256 H278 0.929 . S
C257 C252 1.373 . S
C257 C256 1.396 . S
C257 H279 0.929 . S
C258 O268 1.240 . S
C258 O269 1.289 . S
C259 O270 1.258 . S
C259 O271 1.256 . S
O260 La240 2.521 1_554 S
O260 C242 1.261 . S
O261 La240 2.628 1_554 S
O261 C242 1.243 . S
O262 La240 2.554 . S
O262 C249 1.240 . S
O263 La240 2.757 . S
O263 La241 2.482 1_556 S
O263 C249 1.289 . S
O264 La240 2.470 1_554 S
O264 C250 1.258 . S
O265 La241 2.503 . S
O265 C250 1.256 . S
O266 La241 2.521 1_556 S
O266 C251 1.261 . S
O267 La241 2.628 1_556 S
O267 C251 1.243 . S
O268 La241 2.554 . S
O268 C258 1.240 . S
O269 La240 2.482 1_554 S
O269 La241 2.757 . S
O269 C258 1.289 . S
O270 La241 2.470 1_556 S
O270 C259 1.258 . S
O271 La240 2.503 . S
O271 C259 1.256 . S
H272 C244 0.930 . S
H273 C245 0.930 . S
H274 C247 0.929 . S
H275 C248 0.929 . S
H276 C253 0.930 . S
H277 C254 0.930 . S
H278 C256 0.929 . S
H279 C257 0.929 . S
La280 C282 2.928 1_556 S
La280 O300 2.521 1_556 S
La280 O301 2.628 1_556 S
La280 O302 2.554 . S
La280 O303 2.757 . S
La280 O304 2.470 1_556 S
La280 O309 2.482 1_556 S
La280 O311 2.503 . S
La281 C291 2.928 1_554 S
La281 O303 2.482 1_554 S
La281 O305 2.503 . S
La281 O306 2.521 1_554 S
La281 O307 2.628 1_554 S
La281 O308 2.554 . S
La281 O309 2.757 . S
La281 O310 2.470 1_554 S
C282 La280 2.928 1_554 S
C282 C283 1.503 . S
C282 O300 1.261 . S
C282 O301 1.243 . S
C283 C282 1.503 . S
C283 C284 1.394 . S
C283 C288 1.373 . S
C284 C283 1.394 . S
C284 C285 1.380 . S
C284 H312 0.930 . S
C285 C284 1.380 . S
C285 C286 1.376 . S
C285 H313 0.930 . S
C286 C285 1.376 . S
C286 C287 1.370 . S
C287 C286 1.370 . S
C287 C288 1.396 . S
C287 H314 0.929 . S
C288 C283 1.373 . S
C288 C287 1.396 . S
C288 H315 0.929 . S
C289 O302 1.240 . S
C289 O303 1.289 . S
C290 O304 1.258 . S
C290 O305 1.256 . S
C291 La281 2.928 1_556 S
C291 C292 1.503 . S
C291 O306 1.261 . S
C291 O307 1.243 . S
C292 C291 1.503 . S
C292 C293 1.394 . S
C292 C297 1.373 . S
C293 C292 1.394 . S
C293 C294 1.380 . S
C293 H316 0.930 . S
C294 C293 1.380 . S
C294 C295 1.376 . S
C294 H317 0.930 . S
C295 C294 1.376 . S
C295 C296 1.370 . S
C296 C295 1.370 . S
C296 C297 1.396 . S
C296 H318 0.929 . S
C297 C292 1.373 . S
C297 C296 1.396 . S
C297 H319 0.929 . S
C298 O308 1.240 . S
C298 O309 1.289 . S
C299 O310 1.258 . S
C299 O311 1.256 . S
O300 La280 2.521 1_554 S
O300 C282 1.261 . S
O301 La280 2.628 1_554 S
O301 C282 1.243 . S
O302 La280 2.554 . S
O302 C289 1.240 . S
O303 La280 2.757 . S
O303 La281 2.482 1_556 S
O303 C289 1.289 . S
O304 La280 2.470 1_554 S
O304 C290 1.258 . S
O305 La281 2.503 . S
O305 C290 1.256 . S
O306 La281 2.521 1_556 S
O306 C291 1.261 . S
O307 La281 2.628 1_556 S
O307 C291 1.243 . S
O308 La281 2.554 . S
O308 C298 1.240 . S
O309 La280 2.482 1_554 S
O309 La281 2.757 . S
O309 C298 1.289 . S
O310 La281 2.470 1_556 S
O310 C299 1.258 . S
O311 La280 2.503 . S
O311 C299 1.256 . S
H312 C284 0.930 . S
H313 C285 0.930 . S
H314 C287 0.929 . S
H315 C288 0.929 . S
H316 C293 0.930 . S
H317 C294 0.930 . S
H318 C296 0.929 . S
H319 C297 0.929 . S
C320 C321 1.387 . S
C320 H324 0.950 . S
C320 C329 1.390 . S
C321 C320 1.387 . S
C321 C323 1.387 . S
H322 C329 0.950 . S
C323 C321 1.387 . S
C323 C325 1.390 . S
C323 H327 0.950 . S
H324 C320 0.950 . S
C325 C323 1.390 . S
C325 C326 1.387 . S
C325 H328 0.950 . S
C326 C325 1.387 . S
C326 C329 1.387 . S
H327 C323 0.950 . S
H328 C325 0.950 . S
C329 C320 1.390 . S
C329 H322 0.950 . S
C329 C326 1.387 . S
C330 C331 1.387 . S
C330 H334 0.950 . S
C330 C339 1.390 . S
C331 C330 1.387 . S
C331 C333 1.387 . S
H332 C339 0.950 . S
C333 C331 1.387 . S
C333 C335 1.390 . S
C333 H337 0.950 . S
H334 C330 0.950 . S
C335 C333 1.390 . S
C335 C336 1.387 . S
C335 H338 0.950 . S
C336 C335 1.387 . S
C336 C339 1.387 . S
H337 C333 0.950 . S
H338 C335 0.950 . S
C339 C330 1.390 . S
C339 H332 0.950 . S
C339 C336 1.387 . S
C340 C341 1.387 . S
C340 H344 0.950 . S
C340 C349 1.390 . S
C341 C340 1.387 . S
C341 C343 1.387 . S
H342 C349 0.950 . S
C343 C341 1.387 . S
C343 C345 1.390 . S
C343 H347 0.950 . S
H344 C340 0.950 . S
C345 C343 1.390 . S
C345 C346 1.387 . S
C345 H348 0.950 . S
C346 C345 1.387 . S
C346 C349 1.387 . S
H347 C343 0.950 . S
H348 C345 0.950 . S
C349 C340 1.390 . S
C349 H342 0.950 . S
C349 C346 1.387 . S
C350 C351 1.387 . S
C350 H354 0.950 . S
C350 C359 1.390 . S
C351 C350 1.387 . S
C351 C353 1.387 . S
H352 C359 0.950 . S
C353 C351 1.387 . S
C353 C355 1.390 . S
C353 H357 0.950 . S
H354 C350 0.950 . S
C355 C353 1.390 . S
C355 C356 1.387 . S
C355 H358 0.950 . S
C356 C355 1.387 . S
C356 C359 1.387 . S
H357 C353 0.950 . S
H358 C355 0.950 . S
C359 C350 1.390 . S
C359 H352 0.950 . S
C359 C356 1.387 . S
C360 C361 1.387 . S
C360 H364 0.950 . S
C360 C369 1.390 1_565 S
C361 C360 1.387 . S
C361 C363 1.387 . S
H362 C369 0.950 . S
C363 C361 1.387 . S
C363 C365 1.390 1_565 S
C363 H367 0.950 . S
H364 C360 0.950 . S
C365 C363 1.390 1_545 S
C365 C366 1.387 . S
C365 H368 0.950 . S
C366 C365 1.387 . S
C366 C369 1.387 . S
H367 C363 0.950 . S
H368 C365 0.950 . S
C369 C360 1.390 1_545 S
C369 H362 0.950 . S
C369 C366 1.387 . S
C370 C371 1.387 . S
C370 H374 0.950 . S
C370 C379 1.390 . S
C371 C370 1.387 . S
C371 C373 1.387 . S
H372 C379 0.950 . S
C373 C371 1.387 . S
C373 C375 1.390 . S
C373 H377 0.950 . S
H374 C370 0.950 . S
C375 C373 1.390 . S
C375 C376 1.387 . S
C375 H378 0.950 . S
C376 C375 1.387 . S
C376 C379 1.387 . S
H377 C373 0.950 . S
H378 C375 0.950 . S
C379 C370 1.390 . S
C379 H372 0.950 . S
C379 C376 1.387 . S
C380 C381 1.387 . S
C380 H384 0.950 . S
C380 C389 1.390 1_565 S
C381 C380 1.387 . S
C381 C383 1.387 . S
H382 C389 0.950 . S
C383 C381 1.387 . S
C383 C385 1.390 1_565 S
C383 H387 0.950 . S
H384 C380 0.950 . S
C385 C383 1.390 1_545 S
C385 C386 1.387 . S
C385 H388 0.950 . S
C386 C385 1.387 . S
C386 C389 1.387 . S
H387 C383 0.950 . S
H388 C385 0.950 . S
C389 C380 1.390 1_545 S
C389 H382 0.950 . S
C389 C386 1.387 . S
C390 C391 1.387 . S
C390 H394 0.950 . S
C390 C399 1.390 . S
C391 C390 1.387 . S
C391 C393 1.387 . S
H392 C399 0.950 . S
C393 C391 1.387 . S
C393 C395 1.390 . S
C393 H397 0.950 . S
H394 C390 0.950 . S
C395 C393 1.390 . S
C395 C396 1.387 . S
C395 H398 0.950 . S
C396 C395 1.387 . S
C396 C399 1.387 . S
H397 C393 0.950 . S
H398 C395 0.950 . S
C399 C390 1.390 . S
C399 H392 0.950 . S
C399 C396 1.387 . S
C400 C401 1.387 1_554 S
C400 H404 0.950 . S
C400 C409 1.390 . S
C401 C400 1.387 1_556 S
C401 C403 1.387 . S
H402 C409 0.950 . S
C403 C401 1.387 . S
C403 C405 1.390 . S
C403 H407 0.950 . S
H404 C400 0.950 . S
C405 C403 1.390 . S
C405 C406 1.387 . S
C405 H408 0.950 . S
C406 C405 1.387 . S
C406 C409 1.387 1_556 S
H407 C403 0.950 . S
H408 C405 0.950 . S
C409 C400 1.390 . S
C409 H402 0.950 . S
C409 C406 1.387 1_554 S
C410 C411 1.387 1_554 S
C410 H414 0.950 . S
C410 C419 1.390 1_565 S
C411 C410 1.387 1_556 S
C411 C413 1.387 . S
H412 C419 0.950 . S
C413 C411 1.387 . S
C413 C415 1.390 1_565 S
C413 H417 0.950 . S
H414 C410 0.950 . S
C415 C413 1.390 1_545 S
C415 C416 1.387 . S
C415 H418 0.950 . S
C416 C415 1.387 . S
C416 C419 1.387 1_556 S
H417 C413 0.950 . S
H418 C415 0.950 . S
C419 C410 1.390 1_545 S
C419 H412 0.950 . S
C419 C416 1.387 1_554 S
C420 C421 1.387 . S
C420 H424 0.950 . S
C420 C429 1.390 . S
C421 C420 1.387 . S
C421 C423 1.387 1_554 S
H422 C429 0.950 . S
C423 C421 1.387 1_556 S
C423 C425 1.390 . S
C423 H427 0.950 . S
H424 C420 0.950 . S
C425 C423 1.390 . S
C425 C426 1.387 1_556 S
C425 H428 0.950 . S
C426 C425 1.387 1_554 S
C426 C429 1.387 . S
H427 C423 0.950 . S
H428 C425 0.950 . S
C429 C420 1.390 . S
C429 H422 0.950 . S
C429 C426 1.387 . S
C430 C431 1.387 1_556 S
C430 H434 0.950 . S
C430 C439 1.390 1_545 S
C431 C430 1.387 1_554 S
C431 C433 1.387 . S
H432 C439 0.950 . S
C433 C431 1.387 . S
C433 C435 1.390 1_545 S
C433 H437 0.950 . S
H434 C430 0.950 . S
C435 C433 1.390 1_565 S
C435 C436 1.387 . S
C435 H438 0.950 . S
C436 C435 1.387 . S
C436 C439 1.387 1_554 S
H437 C433 0.950 . S
H438 C435 0.950 . S
C439 C430 1.390 1_565 S
C439 H432 0.950 . S
C439 C436 1.387 1_556 S
C440 C441 1.387 1_556 S
C440 H444 0.950 1_556 S
C440 C449 1.390 . S
C441 C440 1.387 1_554 S
C441 C443 1.387 1_554 S
H442 C449 0.950 . S
C443 C441 1.387 1_556 S
C443 C445 1.390 . S
C443 H447 0.950 1_556 S
H444 C440 0.950 1_554 S
C445 C443 1.390 . S
C445 C446 1.387 . S
C445 H448 0.950 . S
C446 C445 1.387 . S
C446 C449 1.387 . S
H447 C443 0.950 1_554 S
H448 C445 0.950 . S
C449 C440 1.390 . S
C449 H442 0.950 . S
C449 C446 1.387 . S
C450 C451 1.387 1_556 S
C450 H454 0.950 1_556 S
C450 C459 1.390 . S
C451 C450 1.387 1_554 S
C451 C453 1.387 1_554 S
H452 C459 0.950 . S
C453 C451 1.387 1_556 S
C453 C455 1.390 . S
C453 H457 0.948 1_556 S
H454 C450 0.950 1_554 S
C455 C453 1.390 . S
C455 C456 1.387 . S
C455 H458 0.950 . S
C456 C455 1.387 . S
C456 C459 1.387 . S
H457 C453 0.948 1_554 S
H458 C455 0.950 . S
C459 C450 1.390 . S
C459 H452 0.950 . S
C459 C456 1.387 . S
C460 C461 1.387 . S
C460 H464 0.950 . S
C460 C469 1.390 . S
C461 C460 1.387 . S
C461 C463 1.387 . S
H462 C469 0.950 1_556 S
C463 C461 1.387 . S
C463 C465 1.390 . S
C463 H467 0.950 . S
H464 C460 0.950 . S
C465 C463 1.390 . S
C465 C466 1.387 1_554 S
C465 H468 0.950 1_554 S
C466 C465 1.387 1_556 S
C466 C469 1.387 1_556 S
H467 C463 0.950 . S
H468 C465 0.950 1_556 S
C469 C460 1.390 . S
C469 H462 0.950 1_554 S
C469 C466 1.387 1_554 S
C470 C471 1.387 1_554 S
C470 H474 0.950 1_554 S
C470 C479 1.390 . S
C471 C470 1.387 1_556 S
C471 C473 1.387 1_556 S
H472 C479 0.950 . S
C473 C471 1.387 1_554 S
C473 C475 1.390 . S
C473 H477 0.950 1_554 S
H474 C470 0.950 1_556 S
C475 C473 1.390 . S
C475 C476 1.387 . S
C475 H478 0.950 . S
C476 C475 1.387 . S
C476 C479 1.387 . S
H477 C473 0.950 1_556 S
H478 C475 0.950 . S
C479 C470 1.390 . S
C479 H472 0.950 . S
C479 C476 1.387 . S
C480 C481 1.387 . S
C480 H484 0.950 . S
C480 C489 1.390 . S
C481 C480 1.387 . S
C481 C483 1.387 . S
H482 C489 0.950 . S
C483 C481 1.387 . S
C483 C485 1.390 . S
C483 H487 0.950 . S
H484 C480 0.950 . S
C485 C483 1.390 . S
C485 C486 1.387 . S
C485 H488 0.950 . S
C486 C485 1.387 . S
C486 C489 1.387 . S
H487 C483 0.950 . S
H488 C485 0.950 . S
C489 C480 1.390 . S
C489 H482 0.950 . S
C489 C486 1.387 . S
C490 C491 1.387 . S
C490 H494 0.950 . S
C490 C499 1.390 . S
C491 C490 1.387 . S
C491 C493 1.387 . S
H492 C499 0.950 . S
C493 C491 1.387 . S
C493 C495 1.390 . S
C493 H497 0.950 . S
H494 C490 0.950 . S
C495 C493 1.390 . S
C495 C496 1.387 . S
C495 H498 0.950 . S
C496 C495 1.387 . S
C496 C499 1.387 . S
H497 C493 0.950 . S
H498 C495 0.950 . S
C499 C490 1.390 . S
C499 H492 0.950 . S
C499 C496 1.387 . S
C500 C501 1.387 . S
C500 H504 0.950 . S
C500 C509 1.390 . S
C501 C500 1.387 . S
C501 C503 1.387 . S
H502 C509 0.950 . S
C503 C501 1.387 . S
C503 C505 1.390 . S
C503 H507 0.950 . S
H504 C500 0.950 . S
C505 C503 1.390 . S
C505 C506 1.387 . S
C505 H508 0.950 . S
C506 C505 1.387 . S
C506 C509 1.387 . S
H507 C503 0.950 . S
H508 C505 0.950 . S
C509 C500 1.390 . S
C509 H502 0.950 . S
C509 C506 1.387 . S
C510 C511 1.387 . S
C510 H514 0.950 . S
C510 C519 1.390 . S
C511 C510 1.387 . S
C511 C513 1.387 . S
H512 C519 0.950 . S
C513 C511 1.387 . S
C513 C515 1.390 . S
C513 H517 0.950 . S
H514 C510 0.950 . S
C515 C513 1.390 . S
C515 C516 1.387 . S
C515 H518 0.950 . S
C516 C515 1.387 . S
C516 C519 1.387 . S
H517 C513 0.950 . S
H518 C515 0.950 . S
C519 C510 1.390 . S
C519 H512 0.950 . S
C519 C516 1.387 . S
C520 C521 1.387 . S
C520 H524 0.950 1_554 S
C520 C529 1.390 1_455 S
C521 C520 1.387 . S
C521 C523 1.387 . S
H522 C529 0.950 1_556 S
C523 C521 1.387 . S
C523 C525 1.390 1_455 S
C523 H527 0.950 . S
H524 C520 0.950 1_556 S
C525 C523 1.390 1_655 S
C525 C526 1.387 . S
C525 H528 0.950 . S
C526 C525 1.387 . S
C526 C529 1.387 . S
H527 C523 0.950 . S
H528 C525 0.950 . S
C529 C520 1.390 1_655 S
C529 H522 0.950 1_554 S
C529 C526 1.387 . S
C530 C531 1.387 . S
C530 H534 0.950 1_556 S
C530 C539 1.390 1_655 S
C531 C530 1.387 . S
C531 C533 1.387 . S
H532 C539 0.950 1_554 S
C533 C531 1.387 . S
C533 C535 1.390 1_655 S
C533 H537 0.950 . S
H534 C530 0.950 1_554 S
C535 C533 1.390 1_455 S
C535 C536 1.387 . S
C535 H538 0.950 . S
C536 C535 1.387 . S
C536 C539 1.387 . S
H537 C533 0.950 . S
H538 C535 0.950 . S
C539 C530 1.390 1_455 S
C539 H532 0.950 1_556 S
C539 C536 1.387 . S
C540 C541 1.387 . S
C540 H544 0.950 . S
C540 C549 1.390 . S
C541 C540 1.387 . S
C541 C543 1.387 . S
H542 C549 0.950 . S
C543 C541 1.387 . S
C543 C545 1.390 . S
C543 H547 0.950 . S
H544 C540 0.950 . S
C545 C543 1.390 . S
C545 C546 1.387 . S
C545 H548 0.950 . S
C546 C545 1.387 . S
C546 C549 1.387 . S
H547 C543 0.950 . S
H548 C545 0.950 . S
C549 C540 1.390 . S
C549 H542 0.950 . S
C549 C546 1.387 . S
C550 C551 1.387 . S
C550 H554 0.950 . S
C550 C559 1.390 . S
C551 C550 1.387 . S
C551 C553 1.387 . S
H552 C559 0.950 . S
C553 C551 1.387 . S
C553 C555 1.390 . S
C553 H557 0.950 . S
H554 C550 0.950 . S
C555 C553 1.390 . S
C555 C556 1.387 . S
C555 H558 0.950 . S
C556 C555 1.387 . S
C556 C559 1.387 . S
H557 C553 0.950 . S
H558 C555 0.950 . S
C559 C550 1.390 . S
C559 H552 0.950 . S
C559 C556 1.387 . S
C321 C6 1.700 . S
C326 C295 1.699 . S
C331 C255 1.700 . S
C336 C46 1.700 . S
C341 C206 1.700 . S
C346 C95 1.700 . S
C351 C166 1.700 . S
C356 C135 1.700 . S
C361 C89 1.603 . S
C366 C9 1.639 . S
C371 C49 1.639 . S
C376 C129 1.604 . S
C381 C138 1.638 . S
C386 C58 1.603 . S
C391 C98 1.638 . S
C396 C18 1.602 . S
C401 C169 1.436 . S
C406 C249 1.436 . S
C411 C209 1.435 . S
C416 C289 1.436 . S
C421 C298 1.436 . S
C426 C218 1.436 . S
C431 C258 1.439 . S
C436 C178 1.439 . S
C441 C19 2.046 . S
C446 C10 2.046 . S
C451 C59 2.046 . S
C456 C50 2.046 . S
C461 C99 2.043 . S
C466 C90 2.043 . S
C471 C130 2.046 . S
C476 C139 2.046 . S
C481 C170 2.042 . S
C486 C179 2.042 . S
C491 C219 2.042 . S
C496 C210 2.042 . S
C501 C250 2.043 . S
C506 C259 2.043 . S
C511 C290 2.045 . S
C516 C299 2.045 . S
C521 C15 2.235 . S
C526 C55 2.235 . S
C531 C126 2.235 . S
C536 C86 2.235 . S
C541 C175 2.237 . S
C546 C215 2.237 . S
C551 C286 2.237 . S
C556 C246 2.237 . S
