# Generated by pormake.
# Topology pcb, (4)-cn, num edge types: 1
# Building blocks:
#     Node 0, Type 0, BuildingBlock: UXUYUI_clean_sbu_0, # of connection points: 4
#     Node 1, Type 0, BuildingBlock: UXUYUI_clean_sbu_0, # of connection points: 4
#     Node 2, Type 0, BuildingBlock: UXUYUI_clean_sbu_0, # of connection points: 4
#     Node 3, Type 0, BuildingBlock: UXUYUI_clean_sbu_0, # of connection points: 4
#     Node 4, Type 0, BuildingBlock: UXUYUI_clean_sbu_0, # of connection points: 4
#     Node 5, Type 0, BuildingBlock: UXUYUI_clean_sbu_0, # of connection points: 4
#     Node 6, Type 0, BuildingBlock: UXUYUI_clean_sbu_0, # of connection points: 4
#     Node 7, Type 0, BuildingBlock: UXUYUI_clean_sbu_0, # of connection points: 4
#     Node 8, Type 0, BuildingBlock: UXUYUI_clean_sbu_0, # of connection points: 4
#     Node 9, Type 0, BuildingBlock: UXUYUI_clean_sbu_0, # of connection points: 4
#     Node 10, Type 0, BuildingBlock: UXUYUI_clean_sbu_0, # of connection points: 4
#     Node 11, Type 0, BuildingBlock: UXUYUI_clean_sbu_0, # of connection points: 4
#     Node 12, Type 0, BuildingBlock: UXUYUI_clean_sbu_0, # of connection points: 4
#     Node 13, Type 0, BuildingBlock: UXUYUI_clean_sbu_0, # of connection points: 4
#     Node 14, Type 0, BuildingBlock: UXUYUI_clean_sbu_0, # of connection points: 4
#     Node 15, Type 0, BuildingBlock: UXUYUI_clean_sbu_0, # of connection points: 4
#     Edge 16, Type (0, 0), BuildingBlock: OJICUG_clean_linker_0, # of connection points: 2
#     Edge 17, Type (0, 0), BuildingBlock: OJICUG_clean_linker_0, # of connection points: 2
#     Edge 18, Type (0, 0), BuildingBlock: OJICUG_clean_linker_0, # of connection points: 2
#     Edge 19, Type (0, 0), BuildingBlock: OJICUG_clean_linker_0, # of connection points: 2
#     Edge 20, Type (0, 0), BuildingBlock: OJICUG_clean_linker_0, # of connection points: 2
#     Edge 21, Type (0, 0), BuildingBlock: OJICUG_clean_linker_0, # of connection points: 2
#     Edge 22, Type (0, 0), BuildingBlock: OJICUG_clean_linker_0, # of connection points: 2
#     Edge 23, Type (0, 0), BuildingBlock: OJICUG_clean_linker_0, # of connection points: 2
#     Edge 24, Type (0, 0), BuildingBlock: OJICUG_clean_linker_0, # of connection points: 2
#     Edge 25, Type (0, 0), BuildingBlock: OJICUG_clean_linker_0, # of connection points: 2
#     Edge 26, Type (0, 0), BuildingBlock: OJICUG_clean_linker_0, # of connection points: 2
#     Edge 27, Type (0, 0), BuildingBlock: OJICUG_clean_linker_0, # of connection points: 2
#     Edge 28, Type (0, 0), BuildingBlock: OJICUG_clean_linker_0, # of connection points: 2
#     Edge 29, Type (0, 0), BuildingBlock: OJICUG_clean_linker_0, # of connection points: 2
#     Edge 30, Type (0, 0), BuildingBlock: OJICUG_clean_linker_0, # of connection points: 2
#     Edge 31, Type (0, 0), BuildingBlock: OJICUG_clean_linker_0, # of connection points: 2
#     Edge 32, Type (0, 0), BuildingBlock: OJICUG_clean_linker_0, # of connection points: 2
#     Edge 33, Type (0, 0), BuildingBlock: OJICUG_clean_linker_0, # of connection points: 2
#     Edge 34, Type (0, 0), BuildingBlock: OJICUG_clean_linker_0, # of connection points: 2
#     Edge 35, Type (0, 0), BuildingBlock: OJICUG_clean_linker_0, # of connection points: 2
#     Edge 36, Type (0, 0), BuildingBlock: OJICUG_clean_linker_0, # of connection points: 2
#     Edge 37, Type (0, 0), BuildingBlock: OJICUG_clean_linker_0, # of connection points: 2
#     Edge 38, Type (0, 0), BuildingBlock: OJICUG_clean_linker_0, # of connection points: 2
#     Edge 39, Type (0, 0), BuildingBlock: OJICUG_clean_linker_0, # of connection points: 2
#     Edge 40, Type (0, 0), BuildingBlock: OJICUG_clean_linker_0, # of connection points: 2
#     Edge 41, Type (0, 0), BuildingBlock: OJICUG_clean_linker_0, # of connection points: 2
#     Edge 42, Type (0, 0), BuildingBlock: OJICUG_clean_linker_0, # of connection points: 2
#     Edge 43, Type (0, 0), BuildingBlock: OJICUG_clean_linker_0, # of connection points: 2
#     Edge 44, Type (0, 0), BuildingBlock: OJICUG_clean_linker_0, # of connection points: 2
#     Edge 45, Type (0, 0), BuildingBlock: OJICUG_clean_linker_0, # of connection points: 2
#     Edge 46, Type (0, 0), BuildingBlock: OJICUG_clean_linker_0, # of connection points: 2
#     Edge 47, Type (0, 0), BuildingBlock: OJICUG_clean_linker_0, # of connection points: 2
# Relax obj value: 0.233
# Max RMSD: 0.082
# Mean RMSD: 0.081
data_MOF--net-pcb--node1-UXUYUI_clean_sbu_0--edge1-OJICUG_clean_linker_0
_symmetry_space_group_name_H-M    P1
_symmetry_Int_Tables_number       1
_symmetry_cell_setting            triclinic
loop_
_symmetry_equiv_pos_as_xyz
'x, y, z'
_cell_length_a     56.494621
_cell_length_b     56.285488
_cell_length_c     56.41945
_cell_angle_alpha  90.052828
_cell_angle_beta   89.9677
_cell_angle_gamma 90.141533
loop_
_atom_site_label
_atom_site_type_symbol
_atom_site_fract_x
_atom_site_fract_y
_atom_site_fract_z
_atom_type_partial_charge
Li0 Li 0.16102 0.15854 0.12882 0.0
Li1 Li 0.17022 0.17028 0.16952 0.0
Li2 Li 0.16259 0.12896 0.15991 0.0
Li3 Li 0.13085 0.1586 0.15994 0.0
C4 C 0.20731 0.15235 0.13339 0.0
N5 N 0.24421 0.15974 0.10208 0.0
C6 C 0.2222 0.17204 0.13609 0.0
C7 C 0.21125 0.13636 0.11484 0.0
C8 C 0.24077 0.17546 0.12007 0.0
C9 C 0.22997 0.14044 0.09916 0.0
C10 C 0.13094 0.20181 0.14372 0.0
C11 C 0.10221 0.22923 0.15949 0.0
N12 N 0.09294 0.23195 0.13742 0.0
C13 C 0.12122 0.20496 0.12117 0.0
C14 C 0.12147 0.21412 0.16303 0.0
C15 C 0.10199 0.22026 0.11836 0.0
C16 C 0.14963 0.15302 0.0814 0.0
N17 N 0.16503 0.16454 0.0959 0.0
C18 C 0.18219 0.18491 0.06286 0.0
C19 C 0.18096 0.18051 0.08724 0.0
C20 C 0.16635 0.17328 0.04758 0.0
C21 C 0.14996 0.15715 0.0571 0.0
H22 H 0.1367 0.14094 0.08875 0.0
H23 H 0.19247 0.19005 0.09923 0.0
C24 C 0.20639 0.18008 0.2019 0.0
N25 N 0.18923 0.19029 0.18851 0.0
C26 C 0.22038 0.19399 0.2168 0.0
C27 C 0.19958 0.22882 0.20286 0.0
C28 C 0.18571 0.21416 0.18851 0.0
C29 C 0.21698 0.21865 0.21738 0.0
H30 H 0.2091 0.16109 0.20107 0.0
H31 H 0.17215 0.22179 0.17739 0.0
C32 C 0.13043 0.1114 0.13103 0.0
N33 N 0.11726 0.06482 0.12277 0.0
C34 C 0.11021 0.10203 0.14188 0.0
C35 C 0.14386 0.09714 0.11586 0.0
C36 C 0.10385 0.07843 0.13747 0.0
C37 C 0.13695 0.07361 0.11197 0.0
C38 C 0.15598 0.15075 0.20986 0.0
C39 C 0.1706 0.13435 0.22125 0.0
C40 C 0.14854 0.17109 0.22196 0.0
C41 C 0.17777 0.13872 0.24455 0.0
C42 C 0.15615 0.17485 0.24522 0.0
N43 N 0.17049 0.15873 0.25594 0.0
C44 C 0.19026 0.08713 0.15834 0.0
C45 C 0.15349 0.08346 0.17827 0.0
C46 C 0.19431 0.06279 0.16061 0.0
N47 N 0.16984 0.09677 0.1666 0.0
C48 C 0.15669 0.05903 0.18074 0.0
C49 C 0.1771 0.04827 0.17138 0.0
H50 H 0.20311 0.09821 0.14944 0.0
H51 H 0.13749 0.09172 0.18479 0.0
C52 C 0.08464 0.16164 0.14434 0.0
N53 N 0.09792 0.16286 0.16437 0.0
C54 C 0.06008 0.16294 0.14566 0.0
C55 C 0.06326 0.16738 0.1882 0.0
C56 C 0.08787 0.16586 0.18606 0.0
C57 C 0.04908 0.16549 0.16782 0.0
H58 H 0.0932 0.15918 0.12736 0.0
H59 H 0.09889 0.16656 0.20169 0.0
O60 O 0.18901 0.14871 0.14886 0.0
O61 O 0.14939 0.18646 0.14695 0.0
O62 O 0.13729 0.13428 0.13556 0.0
O63 O 0.14907 0.14695 0.18694 0.0
H64 H 0.21941 0.18463 0.1503 0.0
H65 H 0.19981 0.12112 0.1124 0.0
H66 H 0.25239 0.19065 0.1219 0.0
H67 H 0.23313 0.1283 0.08463 0.0
H68 H 0.09459 0.23873 0.17431 0.0
H69 H 0.12828 0.19556 0.10603 0.0
H70 H 0.12871 0.2118 0.18062 0.0
H71 H 0.09421 0.22278 0.10103 0.0
H72 H 0.19492 0.19763 0.0561 0.0
H73 H 0.13755 0.14775 0.04583 0.0
H74 H 0.23389 0.18562 0.22753 0.0
H75 H 0.19653 0.24781 0.2029 0.0
H76 H 0.09972 0.11274 0.15384 0.0
H77 H 0.15959 0.1041 0.10738 0.0
H78 H 0.08833 0.0709 0.14585 0.0
H79 H 0.14728 0.06231 0.10041 0.0
H80 H 0.17655 0.11854 0.21213 0.0
H81 H 0.13732 0.18401 0.21336 0.0
H82 H 0.1892 0.12626 0.25355 0.0
H83 H 0.1507 0.19061 0.25473 0.0
H84 H 0.21052 0.05536 0.15356 0.0
H85 H 0.14281 0.04859 0.18894 0.0
H86 H 0.04978 0.16171 0.12952 0.0
H87 H 0.05538 0.16916 0.20561 0.0
Li88 Li 0.82607 0.169 0.17055 0.0
Li89 Li 0.83476 0.12753 0.16216 0.0
Li90 Li 0.86529 0.15765 0.16252 0.0
Li91 Li 0.83555 0.15726 0.13069 0.0
C92 C 0.86122 0.14797 0.20783 0.0
N93 N 0.89391 0.15038 0.24421 0.0
C94 C 0.86787 0.12738 0.21992 0.0
C95 C 0.87082 0.16985 0.21462 0.0
C96 C 0.88451 0.12895 0.23818 0.0
C97 C 0.88744 0.17069 0.23293 0.0
C98 C 0.787 0.14035 0.16018 0.0
C99 C 0.74503 0.13254 0.15832 0.0
N100 N 0.74501 0.12741 0.18187 0.0
C101 C 0.78655 0.13501 0.1844 0.0
C102 C 0.76606 0.13914 0.14705 0.0
C103 C 0.76516 0.1285 0.19502 0.0
C104 C 0.78953 0.20246 0.17722 0.0
N105 N 0.80633 0.18945 0.18853 0.0
C106 C 0.79448 0.20513 0.226 0.0
C107 C 0.80888 0.19031 0.21246 0.0
C108 C 0.77745 0.21924 0.21472 0.0
C109 C 0.77502 0.21785 0.19002 0.0
H110 H 0.78739 0.20083 0.15825 0.0
H111 H 0.82196 0.17936 0.22107 0.0
C112 C 0.85031 0.08312 0.1748 0.0
N113 N 0.83035 0.09455 0.16787 0.0
C114 C 0.85033 0.05856 0.17768 0.0
C115 C 0.80926 0.05775 0.16569 0.0
C116 C 0.81 0.08245 0.16322 0.0
C117 C 0.82971 0.04545 0.1728 0.0
H118 H 0.86646 0.09311 0.1775 0.0
H119 H 0.7946 0.09175 0.15681 0.0
C120 C 0.84115 0.2079 0.14838 0.0
N121 N 0.82523 0.2543 0.14906 0.0
C122 C 0.82607 0.21612 0.13056 0.0
C123 C 0.8484 0.2234 0.16635 0.0
C124 C 0.81816 0.23961 0.13126 0.0
C125 C 0.84007 0.24675 0.16646 0.0
C126 C 0.85963 0.11498 0.12203 0.0
C127 C 0.88095 0.10444 0.11524 0.0
C128 C 0.83835 0.1069 0.11225 0.0
C129 C 0.88063 0.08599 0.09866 0.0
C130 C 0.83878 0.08842 0.09572 0.0
N131 N 0.85973 0.07843 0.08932 0.0
C132 C 0.91026 0.14083 0.17169 0.0
C133 C 0.90906 0.18273 0.16734 0.0
C134 C 0.9348 0.14136 0.17386 0.0
N135 N 0.89803 0.16126 0.16818 0.0
C136 C 0.93367 0.18411 0.16951 0.0
C137 C 0.94685 0.16316 0.1723 0.0
H138 H 0.9009 0.12404 0.17222 0.0
H139 H 0.89882 0.19865 0.16433 0.0
C140 C 0.80929 0.16133 0.08794 0.0
N141 N 0.83124 0.16174 0.09775 0.0
C142 C 0.80659 0.16361 0.06344 0.0
C143 C 0.84914 0.16688 0.05978 0.0
C144 C 0.85099 0.16458 0.08431 0.0
C145 C 0.82671 0.1663 0.04899 0.0
H146 H 0.79392 0.15908 0.09914 0.0
H147 H 0.86821 0.16464 0.09269 0.0
O148 O 0.84516 0.14679 0.18968 0.0
O149 O 0.80764 0.14704 0.1493 0.0
O150 O 0.84885 0.18486 0.14815 0.0
O151 O 0.8597 0.13285 0.13848 0.0
H152 H 0.86012 0.1104 0.21548 0.0
H153 H 0.86565 0.18597 0.20569 0.0
H154 H 0.88988 0.11313 0.2476 0.0
H155 H 0.89517 0.18749 0.23817 0.0
H156 H 0.72871 0.13151 0.14835 0.0
H157 H 0.80246 0.13579 0.19495 0.0
H158 H 0.76604 0.14324 0.12832 0.0
H159 H 0.76457 0.12432 0.21372 0.0
H160 H 0.7968 0.20575 0.24505 0.0
H161 H 0.76179 0.22823 0.18081 0.0
H162 H 0.86646 0.04992 0.18337 0.0
H163 H 0.79313 0.04834 0.16122 0.0
H164 H 0.82028 0.20445 0.11649 0.0
H165 H 0.86028 0.21751 0.18012 0.0
H166 H 0.80635 0.24614 0.11767 0.0
H167 H 0.84541 0.25887 0.18036 0.0
H168 H 0.89756 0.11044 0.12275 0.0
H169 H 0.82166 0.11472 0.11741 0.0
H170 H 0.897 0.07766 0.09323 0.0
H171 H 0.82244 0.08198 0.08802 0.0
H172 H 0.94429 0.12485 0.17629 0.0
H173 H 0.94235 0.20122 0.168 0.0
H174 H 0.78897 0.16331 0.0559 0.0
H175 H 0.86514 0.16852 0.04933 0.0
Li176 Li 0.83735 0.86177 0.15813 0.0
Li177 Li 0.86677 0.82991 0.15392 0.0
Li178 Li 0.83396 0.83396 0.12569 0.0
Li179 Li 0.82745 0.8206 0.16635 0.0
C180 C 0.86896 0.87835 0.12802 0.0
N181 N 0.88606 0.92402 0.12224 0.0
C182 C 0.89111 0.88463 0.13714 0.0
C183 C 0.8556 0.89523 0.11577 0.0
C184 C 0.89943 0.90782 0.13404 0.0
C185 C 0.86451 0.91825 0.11312 0.0
C186 C 0.84665 0.83649 0.20604 0.0
C187 C 0.84919 0.81053 0.23991 0.0
N188 N 0.83598 0.82614 0.25268 0.0
C189 C 0.83325 0.85236 0.21953 0.0
C190 C 0.85486 0.81548 0.21632 0.0
C191 C 0.82801 0.84679 0.24308 0.0
C192 C 0.8131 0.90563 0.161 0.0
N193 N 0.83323 0.89397 0.16706 0.0
C194 C 0.85076 0.92986 0.18126 0.0
C195 C 0.8516 0.90535 0.17773 0.0
C196 C 0.83069 0.94261 0.17402 0.0
C197 C 0.81141 0.93013 0.16438 0.0
H198 H 0.79869 0.89607 0.15278 0.0
H199 H 0.86729 0.89551 0.18256 0.0
C200 C 0.91163 0.81788 0.13622 0.0
N201 N 0.89956 0.82342 0.15628 0.0
C202 C 0.93615 0.81522 0.1368 0.0
C203 C 0.93543 0.82461 0.17862 0.0
C204 C 0.91083 0.82662 0.1773 0.0
C205 C 0.9485 0.8191 0.1581 0.0
H206 H 0.90227 0.8161 0.11961 0.0
H207 H 0.90082 0.83162 0.19285 0.0
C208 C 0.78885 0.84341 0.13488 0.0
N209 N 0.74882 0.8409 0.10686 0.0
C210 C 0.77273 0.82475 0.13779 0.0
C211 C 0.78457 0.86083 0.11777 0.0
C212 C 0.75259 0.82381 0.12345 0.0
C213 C 0.76425 0.85922 0.10375 0.0
C214 C 0.86078 0.78701 0.13496 0.0
C215 C 0.86558 0.78251 0.11107 0.0
C216 C 0.87213 0.7737 0.15247 0.0
C217 C 0.88192 0.76489 0.1051 0.0
C218 C 0.88838 0.75626 0.14578 0.0
N219 N 0.8929 0.75226 0.12244 0.0
C220 C 0.83973 0.84375 0.07797 0.0
C221 C 0.80813 0.81692 0.08505 0.0
C222 C 0.83513 0.8435 0.05377 0.0
N223 N 0.82604 0.83097 0.0931 0.0
C224 C 0.8027 0.81632 0.06086 0.0
C225 C 0.81613 0.83001 0.04492 0.0
H226 H 0.85437 0.85412 0.08467 0.0
H227 H 0.79792 0.8064 0.0974 0.0
C228 C 0.79286 0.81154 0.20056 0.0
N229 N 0.80888 0.80093 0.18608 0.0
C230 C 0.77908 0.79789 0.21588 0.0
C231 C 0.79796 0.76257 0.20041 0.0
C232 C 0.8116 0.77696 0.18559 0.0
C233 C 0.78158 0.77309 0.21589 0.0
H234 H 0.79084 0.83063 0.2002 0.0
H235 H 0.82433 0.76903 0.17369 0.0
O236 O 0.8602 0.85592 0.13141 0.0
O237 O 0.85158 0.84141 0.18284 0.0
O238 O 0.80868 0.84464 0.14872 0.0
O239 O 0.84496 0.80429 0.14116 0.0
H240 H 0.90166 0.87184 0.14673 0.0
H241 H 0.83838 0.89068 0.10869 0.0
H242 H 0.91648 0.91297 0.14112 0.0
H243 H 0.85427 0.93155 0.10389 0.0
H244 H 0.85526 0.79425 0.24805 0.0
H245 H 0.82676 0.86869 0.21181 0.0
H246 H 0.86529 0.80304 0.2061 0.0
H247 H 0.81753 0.85883 0.25371 0.0
H248 H 0.86587 0.93882 0.18903 0.0
H249 H 0.79567 0.93934 0.15849 0.0
H250 H 0.9453 0.81057 0.12059 0.0
H251 H 0.94409 0.82826 0.19534 0.0
H252 H 0.77578 0.81106 0.15086 0.0
H253 H 0.79697 0.87525 0.1151 0.0
H254 H 0.74 0.80944 0.12547 0.0
H255 H 0.7608 0.87249 0.09034 0.0
H256 H 0.85692 0.7926 0.09728 0.0
H257 H 0.8686 0.77696 0.17104 0.0
H258 H 0.8859 0.76128 0.08669 0.0
H259 H 0.89741 0.74593 0.15915 0.0
H260 H 0.84651 0.85366 0.04211 0.0
H261 H 0.78796 0.80559 0.05481 0.0
H262 H 0.76636 0.80658 0.22732 0.0
H263 H 0.80037 0.74349 0.2 0.0
Li264 Li 0.13247 0.83406 0.15732 0.0
Li265 Li 0.17188 0.82446 0.16925 0.0
Li266 Li 0.16274 0.8642 0.15621 0.0
Li267 Li 0.16401 0.8318 0.12833 0.0
C268 C 0.14262 0.83873 0.20585 0.0
N269 N 0.1276 0.82057 0.24881 0.0
C270 C 0.13276 0.81596 0.20704 0.0
C271 C 0.14483 0.85227 0.22651 0.0
C272 C 0.12528 0.8071 0.22892 0.0
C273 C 0.13713 0.84278 0.24806 0.0
C274 C 0.1614 0.78489 0.14135 0.0
C275 C 0.1962 0.76233 0.13114 0.0
N276 N 0.18247 0.74269 0.12803 0.0
C277 C 0.14764 0.7645 0.13804 0.0
C278 C 0.18589 0.78383 0.13786 0.0
C279 C 0.15862 0.74333 0.13131 0.0
C280 C 0.08919 0.81623 0.14274 0.0
N281 N 0.09951 0.82856 0.1607 0.0
C282 C 0.06204 0.83447 0.1794 0.0
C283 C 0.08654 0.83772 0.17884 0.0
C284 C 0.05088 0.82222 0.16082 0.0
C285 C 0.06472 0.81292 0.14238 0.0
H286 H 0.09998 0.80946 0.12841 0.0
H287 H 0.09508 0.84805 0.19256 0.0
C288 C 0.21125 0.8146 0.19821 0.0
N289 N 0.19001 0.80611 0.1907 0.0
C290 C 0.22532 0.80102 0.21335 0.0
C291 C 0.19512 0.77049 0.213 0.0
C292 C 0.18172 0.78459 0.19784 0.0
C293 C 0.21734 0.77854 0.22078 0.0
H294 H 0.21735 0.8318 0.1922 0.0
H295 H 0.16477 0.77823 0.1916 0.0
C296 C 0.12168 0.87287 0.12992 0.0
N297 N 0.08569 0.9059 0.12719 0.0
C298 C 0.11153 0.87838 0.10803 0.0
C299 C 0.11351 0.88415 0.15044 0.0
C300 C 0.09337 0.89514 0.10702 0.0
C301 C 0.0953 0.9008 0.14868 0.0
C302 C 0.20579 0.85807 0.13382 0.0
C303 C 0.19723 0.87049 0.11418 0.0
C304 C 0.22982 0.85944 0.13954 0.0
C305 C 0.21285 0.88412 0.10061 0.0
C306 C 0.24489 0.87327 0.12554 0.0
N307 N 0.23616 0.88523 0.10653 0.0
C308 C 0.1765 0.90572 0.18135 0.0
C309 C 0.16535 0.91191 0.14134 0.0
C310 C 0.18032 0.93009 0.18446 0.0
N311 N 0.16901 0.89722 0.16007 0.0
C312 C 0.16889 0.93628 0.14365 0.0
C313 C 0.1764 0.94573 0.16544 0.0
H314 H 0.17934 0.89359 0.19592 0.0
H315 H 0.15931 0.90479 0.12461 0.0
C316 C 0.15078 0.8223 0.0822 0.0
N317 N 0.17011 0.82304 0.09646 0.0
C318 C 0.15329 0.81787 0.05804 0.0
C319 C 0.19557 0.81439 0.06377 0.0
C320 C 0.19221 0.81873 0.08792 0.0
C321 C 0.17595 0.81423 0.04847 0.0
H322 H 0.13344 0.82572 0.08958 0.0
H323 H 0.20727 0.81922 0.09973 0.0
O324 O 0.15028 0.84781 0.1847 0.0
O325 O 0.15077 0.8057 0.14795 0.0
O326 O 0.13934 0.85633 0.13113 0.0
O327 O 0.1909 0.84462 0.1475 0.0
H328 H 0.13082 0.80524 0.19125 0.0
H329 H 0.15243 0.86993 0.22588 0.0
H330 H 0.11762 0.7895 0.23009 0.0
H331 H 0.13874 0.85306 0.26419 0.0
H332 H 0.21512 0.76125 0.12841 0.0
H333 H 0.12867 0.76506 0.14066 0.0
H334 H 0.19687 0.79938 0.14038 0.0
H335 H 0.14819 0.7274 0.12869 0.0
H336 H 0.05183 0.84221 0.1937 0.0
H337 H 0.05667 0.8034 0.12776 0.0
H338 H 0.24244 0.8078 0.21872 0.0
H339 H 0.18811 0.75346 0.21857 0.0
H340 H 0.11766 0.86979 0.09199 0.0
H341 H 0.12111 0.88012 0.16755 0.0
H342 H 0.08536 0.89958 0.09019 0.0
H343 H 0.08881 0.90965 0.16441 0.0
H344 H 0.17874 0.86957 0.10935 0.0
H345 H 0.23675 0.8499 0.15467 0.0
H346 H 0.20644 0.89381 0.08537 0.0
H347 H 0.26352 0.87449 0.12978 0.0
H348 H 0.1863 0.9366 0.20151 0.0
H349 H 0.16519 0.94764 0.12863 0.0
H350 H 0.13773 0.81821 0.04684 0.0
H351 H 0.2133 0.81146 0.05709 0.0
Li352 Li 0.15698 0.86022 0.83725 0.0
Li353 Li 0.16175 0.82897 0.86704 0.0
Li354 Li 0.16706 0.82169 0.82539 0.0
Li355 Li 0.12734 0.82955 0.84078 0.0
C356 C 0.2086 0.83593 0.84152 0.0
N357 N 0.25384 0.82019 0.83163 0.0
C358 C 0.22042 0.82122 0.85756 0.0
C359 C 0.21991 0.84284 0.82058 0.0
C360 C 0.24327 0.81342 0.85222 0.0
C361 C 0.24274 0.83461 0.81585 0.0
C362 C 0.12229 0.85174 0.88439 0.0
C363 C 0.10049 0.82838 0.91284 0.0
N364 N 0.09389 0.84866 0.92414 0.0
C365 C 0.11531 0.87235 0.89628 0.0
C366 C 0.11483 0.82955 0.8927 0.0
C367 C 0.10093 0.87042 0.91635 0.0
C368 C 0.14087 0.90697 0.83552 0.0
N369 N 0.1604 0.89333 0.83231 0.0
C370 C 0.18367 0.92747 0.82278 0.0
C371 C 0.18157 0.90298 0.82609 0.0
C372 C 0.16383 0.94213 0.82615 0.0
C373 C 0.14219 0.93152 0.83255 0.0
H374 H 0.1243 0.89873 0.84057 0.0
H375 H 0.19681 0.89167 0.82371 0.0
C376 C 0.17016 0.80036 0.90743 0.0
N377 N 0.1711 0.82275 0.89851 0.0
C378 C 0.17419 0.79646 0.93152 0.0
C379 C 0.18099 0.83863 0.93645 0.0
C380 C 0.17677 0.8417 0.9123 0.0
C381 C 0.17924 0.81583 0.94644 0.0
H382 H 0.16558 0.78567 0.89597 0.0
H383 H 0.17712 0.85932 0.90466 0.0
C384 C 0.13876 0.85956 0.79528 0.0
N385 N 0.13242 0.89699 0.76426 0.0
C386 C 0.11619 0.86894 0.79159 0.0
C387 C 0.15806 0.869 0.78293 0.0
C388 C 0.11336 0.8879 0.77589 0.0
C389 C 0.15452 0.88799 0.76741 0.0
C390 C 0.14043 0.78164 0.83828 0.0
C391 C 0.13482 0.78127 0.81411 0.0
C392 C 0.13796 0.76089 0.85166 0.0
C393 C 0.12687 0.76014 0.80379 0.0
C394 C 0.12989 0.74014 0.84068 0.0
N395 N 0.12458 0.74019 0.81718 0.0
C396 C 0.19806 0.78506 0.81355 0.0
C397 C 0.18438 0.80674 0.78028 0.0
C398 C 0.21208 0.77082 0.79907 0.0
N399 N 0.18492 0.80282 0.80403 0.0
C400 C 0.19797 0.79274 0.76506 0.0
C401 C 0.2122 0.77459 0.77445 0.0
H402 H 0.19781 0.78215 0.83249 0.0
H403 H 0.17329 0.82059 0.77314 0.0
C404 C 0.08097 0.84518 0.8427 0.0
N405 N 0.09369 0.82489 0.83992 0.0
C406 C 0.05631 0.84445 0.84322 0.0
C407 C 0.05807 0.80192 0.83776 0.0
C408 C 0.08275 0.80342 0.83773 0.0
C409 C 0.0446 0.82262 0.84062 0.0
H410 H 0.09005 0.86202 0.84459 0.0
H411 H 0.09293 0.78736 0.83621 0.0
O412 O 0.18607 0.84346 0.8463 0.0
O413 O 0.1365 0.85342 0.8648 0.0
O414 O 0.14198 0.84133 0.811 0.0
O415 O 0.14889 0.8019 0.84877 0.0
H416 H 0.21199 0.8157 0.87387 0.0
H417 H 0.21104 0.85413 0.80792 0.0
H418 H 0.25256 0.80193 0.86441 0.0
H419 H 0.2516 0.83964 0.79961 0.0
H420 H 0.0946 0.81133 0.91948 0.0
H421 H 0.12097 0.88964 0.89006 0.0
H422 H 0.12005 0.81339 0.88376 0.0
H423 H 0.09539 0.88623 0.92573 0.0
H424 H 0.20063 0.93482 0.81759 0.0
H425 H 0.12653 0.9421 0.83577 0.0
H426 H 0.17286 0.77859 0.9385 0.0
H427 H 0.18446 0.8541 0.94735 0.0
H428 H 0.101 0.86167 0.8007 0.0
H429 H 0.17567 0.86204 0.78561 0.0
H430 H 0.09599 0.8954 0.77296 0.0
H431 H 0.16935 0.89562 0.75794 0.0
H432 H 0.13641 0.79707 0.8034 0.0
H433 H 0.14221 0.76079 0.87034 0.0
H434 H 0.12247 0.75963 0.78514 0.0
H435 H 0.12788 0.72397 0.85085 0.0
H436 H 0.22296 0.75727 0.80716 0.0
H437 H 0.19714 0.79596 0.74616 0.0
H438 H 0.04649 0.86083 0.84533 0.0
H439 H 0.0496 0.78472 0.83599 0.0
Li440 Li 0.15702 0.15786 0.86473 0.0
Li441 Li 0.15705 0.1265 0.83654 0.0
Li442 Li 0.16735 0.16833 0.82453 0.0
Li443 Li 0.12593 0.1559 0.83546 0.0
C444 C 0.20338 0.14985 0.86108 0.0
N445 N 0.24128 0.15665 0.89133 0.0
C446 C 0.20632 0.13515 0.88082 0.0
C447 C 0.21975 0.16801 0.85674 0.0
C448 C 0.22557 0.13889 0.89592 0.0
C449 C 0.2388 0.17114 0.87222 0.0
C450 C 0.12647 0.11061 0.86709 0.0
C451 C 0.10422 0.07469 0.85989 0.0
N452 N 0.1148 0.0644 0.87892 0.0
C453 C 0.13705 0.09971 0.88666 0.0
C454 C 0.10983 0.09806 0.85367 0.0
C455 C 0.13092 0.07633 0.89234 0.0
C456 C 0.14375 0.15801 0.91198 0.0
N457 N 0.1612 0.1661 0.89751 0.0
C458 C 0.18094 0.18428 0.93043 0.0
C459 C 0.17931 0.17958 0.90614 0.0
C460 C 0.16351 0.17539 0.94583 0.0
C461 C 0.14463 0.16229 0.93624 0.0
H462 H 0.12905 0.14813 0.90468 0.0
H463 H 0.19248 0.18674 0.89424 0.0
C464 C 0.15545 0.08347 0.81047 0.0
N465 N 0.16364 0.09377 0.83066 0.0
C466 C 0.1574 0.05896 0.80718 0.0
C467 C 0.17709 0.05628 0.84509 0.0
C468 C 0.17492 0.08083 0.84752 0.0
C469 C 0.16785 0.04493 0.82491 0.0
H470 H 0.14692 0.09417 0.79713 0.0
H471 H 0.18131 0.08937 0.86338 0.0
C472 C 0.14246 0.202 0.86141 0.0
N473 N 0.13941 0.23662 0.89598 0.0
C474 C 0.12208 0.20385 0.87533 0.0
C475 C 0.16125 0.2178 0.86497 0.0
C476 C 0.1209 0.22146 0.89276 0.0
C477 C 0.15937 0.23519 0.88255 0.0
C478 C 0.13167 0.14627 0.78896 0.0
C479 C 0.13542 0.16414 0.77217 0.0
C480 C 0.11309 0.13012 0.78578 0.0
C481 C 0.12039 0.16568 0.75258 0.0
C482 C 0.09842 0.13228 0.76598 0.0
N483 N 0.10234 0.14987 0.74993 0.0
C484 C 0.20454 0.17744 0.79301 0.0
C485 C 0.18015 0.21066 0.80142 0.0
C486 C 0.21888 0.19124 0.7783 0.0
N487 N 0.18581 0.18741 0.80434 0.0
C488 C 0.19399 0.22511 0.78687 0.0
C489 C 0.21375 0.21546 0.77522 0.0
H490 H 0.20848 0.15884 0.7957 0.0
H491 H 0.16489 0.21794 0.81041 0.0
C492 C 0.07861 0.15344 0.84834 0.0
N493 N 0.09309 0.16179 0.83099 0.0
C494 C 0.05428 0.15714 0.84711 0.0
C495 C 0.06008 0.17827 0.81027 0.0
C496 C 0.08443 0.17449 0.81242 0.0
C497 C 0.04474 0.16954 0.82782 0.0
H498 H 0.08598 0.14404 0.86328 0.0
H499 H 0.09638 0.18175 0.79933 0.0
O500 O 0.18481 0.14632 0.84591 0.0
O501 O 0.13262 0.13332 0.86092 0.0
O502 O 0.14416 0.18453 0.84467 0.0
O503 O 0.14624 0.14447 0.80825 0.0
H504 H 0.19361 0.12136 0.88479 0.0
H505 H 0.21774 0.17967 0.84167 0.0
H506 H 0.22795 0.12776 0.91135 0.0
H507 H 0.25156 0.18515 0.86909 0.0
H508 H 0.09148 0.06473 0.84956 0.0
H509 H 0.15015 0.10904 0.89712 0.0
H510 H 0.10142 0.10622 0.83854 0.0
H511 H 0.13909 0.06763 0.90732 0.0
H512 H 0.19558 0.19482 0.93705 0.0
H513 H 0.13086 0.15492 0.94742 0.0
H514 H 0.15046 0.05106 0.79111 0.0
H515 H 0.18501 0.04624 0.85938 0.0
H516 H 0.10744 0.19167 0.87286 0.0
H517 H 0.17726 0.21641 0.85452 0.0
H518 H 0.1053 0.22303 0.90376 0.0
H519 H 0.17382 0.24745 0.88561 0.0
H520 H 0.14975 0.17674 0.77423 0.0
H521 H 0.10988 0.11619 0.79856 0.0
H522 H 0.12306 0.17947 0.7395 0.0
H523 H 0.0839 0.11998 0.76339 0.0
H524 H 0.23407 0.18316 0.76984 0.0
H525 H 0.18918 0.24359 0.78466 0.0
H526 H 0.043 0.15008 0.86097 0.0
H527 H 0.05334 0.1882 0.79529 0.0
Li528 Li 0.83161 0.13236 0.83179 0.0
Li529 Li 0.8313 0.16142 0.86437 0.0
Li530 Li 0.82013 0.17179 0.82447 0.0
Li531 Li 0.86134 0.16345 0.8334 0.0
C532 C 0.78136 0.15652 0.84553 0.0
N533 N 0.73544 0.17327 0.84395 0.0
C534 C 0.77317 0.1721 0.863 0.0
C535 C 0.7661 0.14925 0.82741 0.0
C536 C 0.74992 0.1804 0.86186 0.0
C537 C 0.74299 0.15799 0.82686 0.0
C538 C 0.87368 0.13738 0.87282 0.0
C539 C 0.89929 0.15785 0.90031 0.0
N540 N 0.90963 0.13682 0.90598 0.0
C541 C 0.88457 0.11598 0.87889 0.0
C542 C 0.88109 0.15851 0.88358 0.0
C543 C 0.90272 0.11606 0.89571 0.0
C544 C 0.8459 0.08671 0.81761 0.0
N545 N 0.82714 0.09969 0.82529 0.0
C546 C 0.80258 0.06517 0.82631 0.0
C547 C 0.80569 0.08957 0.82943 0.0
C548 C 0.82174 0.05119 0.8188 0.0
C549 C 0.84352 0.06229 0.81404 0.0
H550 H 0.8628 0.0953 0.81472 0.0
H551 H 0.79116 0.10036 0.83566 0.0
C552 C 0.82737 0.18622 0.90816 0.0
N553 N 0.82642 0.16464 0.8974 0.0
C554 C 0.82559 0.1879 0.9328 0.0
C555 C 0.82153 0.14515 0.93464 0.0
C556 C 0.82335 0.14432 0.91 0.0
C557 C 0.82288 0.16714 0.9464 0.0
H558 H 0.8299 0.20205 0.89763 0.0
H559 H 0.82292 0.1274 0.90088 0.0
C560 C 0.84221 0.13798 0.78642 0.0
N561 N 0.841 0.10701 0.74836 0.0
C562 C 0.86277 0.13342 0.77341 0.0
C563 C 0.82094 0.12718 0.7797 0.0
C564 C 0.86183 0.11761 0.75432 0.0
C565 C 0.82071 0.11146 0.76053 0.0
C566 C 0.84723 0.21122 0.83636 0.0
C567 C 0.85419 0.21225 0.81258 0.0
C568 C 0.84594 0.23216 0.84962 0.0
C569 C 0.85985 0.23421 0.80253 0.0
C570 C 0.85175 0.25378 0.83892 0.0
N571 N 0.85853 0.25435 0.81579 0.0
C572 C 0.78771 0.20941 0.81702 0.0
C573 C 0.79867 0.18797 0.78256 0.0
C574 C 0.7727 0.2239 0.80375 0.0
N575 N 0.79999 0.19164 0.80631 0.0
C576 C 0.784 0.20204 0.76862 0.0
C577 C 0.7706 0.22015 0.77921 0.0
H578 H 0.78953 0.21227 0.83589 0.0
H579 H 0.80914 0.17427 0.77435 0.0
C580 C 0.90683 0.15121 0.81925 0.0
N581 N 0.89412 0.16944 0.82854 0.0
C582 C 0.93133 0.15309 0.8169 0.0
C583 C 0.92936 0.19226 0.8344 0.0
C584 C 0.90484 0.18972 0.83617 0.0
C585 C 0.94289 0.17373 0.82476 0.0
H586 H 0.89798 0.13485 0.81444 0.0
H587 H 0.89454 0.2036 0.8444 0.0
O588 O 0.80419 0.14848 0.84616 0.0
O589 O 0.85604 0.13754 0.85623 0.0
O590 O 0.84283 0.15327 0.80533 0.0
O591 O 0.84117 0.19 0.84658 0.0
H592 H 0.7847 0.17796 0.87713 0.0
H593 H 0.77203 0.13705 0.81386 0.0
H594 H 0.7434 0.19259 0.87518 0.0
H595 H 0.73104 0.15263 0.81286 0.0
H596 H 0.9052 0.17407 0.90875 0.0
H597 H 0.87907 0.09949 0.87064 0.0
H598 H 0.87296 0.17527 0.87901 0.0
H599 H 0.91131 0.09962 0.90058 0.0
H600 H 0.78549 0.05724 0.83007 0.0
H601 H 0.8588 0.05207 0.80858 0.0
H602 H 0.82647 0.20523 0.94111 0.0
H603 H 0.81985 0.12868 0.94439 0.0
H604 H 0.87924 0.14217 0.77779 0.0
H605 H 0.80482 0.13073 0.78936 0.0
H606 H 0.87764 0.11385 0.74417 0.0
H607 H 0.8044 0.1028 0.75534 0.0
H608 H 0.85528 0.19633 0.80194 0.0
H609 H 0.84046 0.23175 0.86799 0.0
H610 H 0.86528 0.23524 0.78417 0.0
H611 H 0.85084 0.27011 0.849 0.0
H612 H 0.76266 0.23764 0.81263 0.0
H613 H 0.78341 0.19893 0.74969 0.0
H614 H 0.94122 0.13816 0.80996 0.0
H615 H 0.9377 0.20837 0.84085 0.0
Li616 Li 0.83241 0.8673 0.83205 0.0
Li617 Li 0.82517 0.83704 0.86288 0.0
Li618 Li 0.86109 0.83587 0.83801 0.0
Li619 Li 0.8222 0.82608 0.82197 0.0
C620 C 0.8709 0.86698 0.8725 0.0
N621 N 0.91239 0.87825 0.89586 0.0
C622 C 0.87473 0.85885 0.89558 0.0
C623 C 0.88803 0.88105 0.86139 0.0
C624 C 0.89585 0.86472 0.90708 0.0
C625 C 0.90894 0.88648 0.87347 0.0
C626 C 0.78231 0.85376 0.85085 0.0
C627 C 0.74826 0.83918 0.8722 0.0
N628 N 0.74135 0.86194 0.87631 0.0
C629 C 0.77478 0.87701 0.85513 0.0
C630 C 0.76888 0.83467 0.85929 0.0
C631 C 0.75405 0.88078 0.86809 0.0
C632 C 0.81883 0.90906 0.80565 0.0
N633 N 0.82844 0.90026 0.82594 0.0
C634 C 0.83218 0.93929 0.84208 0.0
C635 C 0.83489 0.91482 0.84406 0.0
C636 C 0.82279 0.94894 0.82122 0.0
C637 C 0.81616 0.93359 0.80275 0.0
H638 H 0.81306 0.8971 0.79184 0.0
H639 H 0.84189 0.9074 0.86023 0.0
C640 C 0.81968 0.8125 0.90602 0.0
N641 N 0.81453 0.83296 0.89439 0.0
C642 C 0.81584 0.8108 0.93042 0.0
C643 C 0.80002 0.85066 0.92995 0.0
C644 C 0.80471 0.8518 0.90574 0.0
C645 C 0.80645 0.83031 0.94286 0.0
H646 H 0.82802 0.79802 0.89661 0.0
H647 H 0.80149 0.86811 0.89622 0.0
C648 C 0.84897 0.86005 0.78796 0.0
N649 N 0.85186 0.88858 0.74825 0.0
C650 C 0.8331 0.85684 0.76923 0.0
C651 C 0.8664 0.87765 0.78645 0.0
C652 C 0.83485 0.87146 0.7493 0.0
C653 C 0.86752 0.89194 0.76625 0.0
C654 C 0.83766 0.78606 0.84227 0.0
C655 C 0.85623 0.77393 0.83131 0.0
C656 C 0.81651 0.77415 0.84726 0.0
C657 C 0.85319 0.75006 0.82517 0.0
C658 C 0.81414 0.7503 0.84079 0.0
N659 N 0.83237 0.73885 0.82996 0.0
C660 C 0.90421 0.82066 0.85801 0.0
C661 C 0.90669 0.83302 0.8179 0.0
C662 C 0.92871 0.81775 0.85905 0.0
N663 N 0.89387 0.8288 0.83785 0.0
C664 C 0.93119 0.82994 0.81802 0.0
C665 C 0.94248 0.82269 0.83893 0.0
H666 H 0.89347 0.81704 0.87346 0.0
H667 H 0.89795 0.8392 0.80205 0.0
C668 C 0.78177 0.80905 0.79879 0.0
N669 N 0.80564 0.80658 0.80028 0.0
C670 C 0.76874 0.79467 0.78348 0.0
C671 C 0.80513 0.77556 0.7714 0.0
C672 C 0.81751 0.79062 0.78668 0.0
C673 C 0.78043 0.77752 0.76977 0.0
H674 H 0.77285 0.82215 0.80952 0.0
H675 H 0.83658 0.7895 0.78781 0.0
O676 O 0.85054 0.86108 0.86078 0.0
O677 O 0.80259 0.84972 0.83826 0.0
O678 O 0.84761 0.84587 0.80758 0.0
O679 O 0.8402 0.80949 0.84814 0.0
H680 H 0.86164 0.84797 0.90445 0.0
H681 H 0.88527 0.88753 0.84356 0.0
H682 H 0.89913 0.85845 0.92489 0.0
H683 H 0.92244 0.89719 0.86502 0.0
H684 H 0.73777 0.82458 0.87896 0.0
H685 H 0.78489 0.89199 0.84862 0.0
H686 H 0.77441 0.81658 0.85603 0.0
H687 H 0.74806 0.89867 0.87164 0.0
H688 H 0.83758 0.9506 0.85667 0.0
H689 H 0.8086 0.94045 0.78651 0.0
H690 H 0.82149 0.79489 0.93954 0.0
H691 H 0.79234 0.866 0.93858 0.0
H692 H 0.81952 0.84329 0.77008 0.0
H693 H 0.87882 0.88035 0.80079 0.0
H694 H 0.82265 0.86924 0.73469 0.0
H695 H 0.88084 0.90572 0.76489 0.0
H696 H 0.87274 0.78291 0.82739 0.0
H697 H 0.80204 0.78328 0.85588 0.0
H698 H 0.86735 0.74046 0.81654 0.0
H699 H 0.79781 0.74089 0.84437 0.0
H700 H 0.93682 0.81188 0.87541 0.0
H701 H 0.94128 0.834 0.80219 0.0
H702 H 0.74968 0.79661 0.7827 0.0
H703 H 0.81471 0.7627 0.76084 0.0
Li704 Li 0.67029 0.66855 0.66917 0.0
Li705 Li 0.65612 0.65913 0.62929 0.0
Li706 Li 0.62911 0.65853 0.66464 0.0
Li707 Li 0.6578 0.62681 0.65898 0.0
C708 C 0.65121 0.70936 0.65166 0.0
N709 N 0.66226 0.75711 0.65501 0.0
C710 C 0.66128 0.72124 0.63236 0.0
C711 C 0.64643 0.72186 0.67253 0.0
C712 C 0.6668 0.74536 0.63444 0.0
C713 C 0.65226 0.74596 0.67392 0.0
C714 C 0.70349 0.64123 0.6319 0.0
C715 C 0.72329 0.6165 0.60313 0.0
N716 N 0.74222 0.63145 0.60355 0.0
C717 C 0.72329 0.65618 0.63226 0.0
C718 C 0.70361 0.62107 0.61739 0.0
C719 C 0.74264 0.651 0.61773 0.0
C720 C 0.6959 0.68245 0.70962 0.0
N721 N 0.69247 0.68715 0.68625 0.0
C722 C 0.71987 0.71947 0.68776 0.0
C723 C 0.70443 0.7049 0.67509 0.0
C724 C 0.72338 0.71534 0.71201 0.0
C725 C 0.71146 0.69637 0.72292 0.0
H726 H 0.6864 0.66802 0.71797 0.0
H727 H 0.70189 0.70783 0.65636 0.0
C728 C 0.63759 0.66601 0.58393 0.0
N729 N 0.6581 0.66665 0.5965 0.0
C730 C 0.63776 0.67023 0.55957 0.0
C731 C 0.68007 0.67645 0.56166 0.0
C732 C 0.67904 0.67229 0.58601 0.0
C733 C 0.65928 0.67516 0.54811 0.0
H734 H 0.62114 0.66178 0.59281 0.0
H735 H 0.69495 0.67358 0.59644 0.0
C736 C 0.63819 0.64473 0.70846 0.0
N737 N 0.61007 0.64354 0.74853 0.0
C738 C 0.62905 0.62315 0.71663 0.0
C739 C 0.63334 0.66565 0.72088 0.0
C740 C 0.61479 0.62292 0.73687 0.0
C741 C 0.619 0.6647 0.74104 0.0
C742 C 0.62373 0.61706 0.62408 0.0
C743 C 0.60215 0.60577 0.62873 0.0
C744 C 0.6375 0.60949 0.60494 0.0
C745 C 0.59502 0.58671 0.61453 0.0
C746 C 0.62975 0.5904 0.59112 0.0
N747 N 0.60886 0.57946 0.59618 0.0
C748 C 0.58824 0.68654 0.67285 0.0
C749 C 0.58423 0.64553 0.68147 0.0
C750 C 0.56427 0.69027 0.67762 0.0
N751 N 0.59758 0.66438 0.67454 0.0
C752 C 0.5602 0.6484 0.68629 0.0
C753 C 0.54978 0.67093 0.68393 0.0
H754 H 0.59921 0.70118 0.66707 0.0
H755 H 0.59208 0.62807 0.68245 0.0
C756 C 0.68577 0.58513 0.66321 0.0
N757 N 0.66336 0.59388 0.66347 0.0
C758 C 0.68961 0.56069 0.66484 0.0
C759 C 0.64733 0.55493 0.66852 0.0
C760 C 0.64432 0.57941 0.66654 0.0
C761 C 0.67019 0.54527 0.66728 0.0
H762 H 0.70065 0.59709 0.66143 0.0
H763 H 0.62675 0.5869 0.66727 0.0
O764 O 0.64584 0.6857 0.64999 0.0
O765 O 0.68437 0.64612 0.64601 0.0
O766 O 0.65189 0.64537 0.68846 0.0
O767 O 0.63104 0.6357 0.63793 0.0
H768 H 0.66494 0.71193 0.61601 0.0
H769 H 0.63839 0.71306 0.68752 0.0
H770 H 0.67474 0.75474 0.61969 0.0
H771 H 0.64881 0.7558 0.69003 0.0
H772 H 0.72356 0.60098 0.5918 0.0
H773 H 0.72371 0.67167 0.64355 0.0
H774 H 0.68884 0.60886 0.61738 0.0
H775 H 0.75799 0.66252 0.61773 0.0
H776 H 0.72904 0.73375 0.67871 0.0
H777 H 0.7137 0.69274 0.74164 0.0
H778 H 0.62137 0.66895 0.5497 0.0
H779 H 0.69694 0.68061 0.55351 0.0
H780 H 0.63282 0.60676 0.7074 0.0
H781 H 0.64055 0.68243 0.71501 0.0
H782 H 0.60747 0.60636 0.7433 0.0
H783 H 0.61499 0.68078 0.75074 0.0
H784 H 0.59106 0.61154 0.64323 0.0
H785 H 0.65384 0.61842 0.60058 0.0
H786 H 0.57845 0.57771 0.61807 0.0
H787 H 0.64029 0.58435 0.57629 0.0
H788 H 0.55707 0.70799 0.67583 0.0
H789 H 0.54973 0.63289 0.69071 0.0
H790 H 0.70752 0.5539 0.66413 0.0
H791 H 0.63189 0.54362 0.67028 0.0
Li792 Li 0.33733 0.62996 0.66363 0.0
Li793 Li 0.32723 0.67149 0.67289 0.0
Li794 Li 0.33954 0.66064 0.63272 0.0
Li795 Li 0.36751 0.66146 0.6664 0.0
C796 C 0.29102 0.63693 0.64918 0.0
N797 N 0.24986 0.61038 0.64759 0.0
C798 C 0.27379 0.63969 0.66676 0.0
C799 C 0.28723 0.62083 0.63069 0.0
C800 C 0.25311 0.62607 0.66566 0.0
C801 C 0.26634 0.60751 0.63025 0.0
C802 C 0.36189 0.64673 0.71 0.0
C803 C 0.38742 0.66416 0.73956 0.0
N804 N 0.39511 0.6421 0.74561 0.0
C805 C 0.36991 0.62422 0.71662 0.0
C806 C 0.37057 0.66686 0.72167 0.0
C807 C 0.38675 0.62226 0.73463 0.0
C808 C 0.35127 0.58292 0.66498 0.0
N809 N 0.33229 0.59703 0.66939 0.0
C810 C 0.30937 0.56344 0.68166 0.0
C811 C 0.31169 0.5879 0.67801 0.0
C812 C 0.32867 0.54849 0.677 0.0
C813 C 0.34986 0.55851 0.66871 0.0
H814 H 0.36763 0.59068 0.65873 0.0
H815 H 0.29712 0.5995 0.68222 0.0
C816 C 0.28965 0.70397 0.67879 0.0
N817 N 0.30598 0.69059 0.69034 0.0
C818 C 0.2738 0.71797 0.69159 0.0
C819 C 0.29136 0.70341 0.72787 0.0
C820 C 0.30705 0.68996 0.71438 0.0
C821 C 0.27452 0.71767 0.71645 0.0
H822 H 0.28889 0.70364 0.65964 0.0
H823 H 0.31997 0.67886 0.72307 0.0
C824 C 0.37251 0.62616 0.62224 0.0
N825 N 0.39026 0.6056 0.5815 0.0
C826 C 0.39553 0.63136 0.61477 0.0
C827 C 0.35859 0.61034 0.60916 0.0
C828 C 0.40417 0.62082 0.59408 0.0
C829 C 0.36787 0.60018 0.58856 0.0
C830 C 0.34318 0.71119 0.65359 0.0
C831 C 0.33016 0.72148 0.63523 0.0
C832 C 0.34824 0.72442 0.67395 0.0
C833 C 0.32214 0.74481 0.6377 0.0
C834 C 0.33985 0.74768 0.67576 0.0
N835 N 0.32708 0.7573 0.65776 0.0
C836 C 0.31346 0.66586 0.59043 0.0
C837 C 0.35501 0.66951 0.58599 0.0
C838 C 0.31023 0.66842 0.56603 0.0
N839 N 0.33561 0.66602 0.59979 0.0
C840 C 0.35266 0.6717 0.56148 0.0
C841 C 0.33003 0.67094 0.55109 0.0
H842 H 0.2983 0.66362 0.60191 0.0
H843 H 0.37237 0.67015 0.59398 0.0
C844 C 0.413 0.64685 0.67848 0.0
N845 N 0.39969 0.66646 0.67428 0.0
C846 C 0.43713 0.64906 0.68312 0.0
C847 C 0.43344 0.69166 0.67893 0.0
C848 C 0.40927 0.68863 0.67457 0.0
C849 C 0.44769 0.67167 0.68308 0.0
H850 H 0.4049 0.62943 0.67772 0.0
H851 H 0.39826 0.70387 0.67094 0.0
O852 O 0.31132 0.65018 0.64989 0.0
O853 O 0.34576 0.64906 0.69208 0.0
O854 O 0.36367 0.63654 0.64228 0.0
O855 O 0.35091 0.68827 0.65164 0.0
H856 H 0.27643 0.65204 0.68122 0.0
H857 H 0.30027 0.61864 0.61683 0.0
H858 H 0.23967 0.62794 0.67919 0.0
H859 H 0.26321 0.59491 0.61609 0.0
H860 H 0.39443 0.6796 0.74861 0.0
H861 H 0.36331 0.60845 0.70788 0.0
H862 H 0.36456 0.68441 0.71675 0.0
H863 H 0.39321 0.60496 0.73985 0.0
H864 H 0.29283 0.55632 0.68835 0.0
H865 H 0.3651 0.54754 0.6648 0.0
H866 H 0.26085 0.72855 0.68221 0.0
H867 H 0.29249 0.70283 0.74703 0.0
H868 H 0.40652 0.64358 0.62472 0.0
H869 H 0.34082 0.60601 0.61484 0.0
H870 H 0.42191 0.62478 0.58799 0.0
H871 H 0.35726 0.58798 0.5782 0.0
H872 H 0.32614 0.7115 0.61934 0.0
H873 H 0.35831 0.71672 0.68831 0.0
H874 H 0.31193 0.75297 0.6237 0.0
H875 H 0.34346 0.75806 0.6915 0.0
H876 H 0.2924 0.66833 0.55901 0.0
H877 H 0.36851 0.67333 0.55083 0.0
H878 H 0.44756 0.63317 0.68579 0.0
H879 H 0.44094 0.70939 0.67878 0.0
Li880 Li 0.33562 0.36495 0.66352 0.0
Li881 Li 0.36476 0.33257 0.66343 0.0
Li882 Li 0.33362 0.33457 0.63171 0.0
Li883 Li 0.32431 0.32281 0.67201 0.0
C884 C 0.36824 0.37475 0.62495 0.0
N885 N 0.38622 0.40999 0.59589 0.0
C886 C 0.39139 0.38301 0.62811 0.0
C887 C 0.35441 0.38416 0.60671 0.0
C888 C 0.4001 0.40093 0.61335 0.0
C889 C 0.36377 0.40201 0.59228 0.0
C890 C 0.36077 0.34496 0.70903 0.0
C891 C 0.38622 0.32481 0.73678 0.0
N892 N 0.3927 0.34616 0.74609 0.0
C893 C 0.36752 0.36668 0.719 0.0
C894 C 0.37002 0.32383 0.7181 0.0
C895 C 0.38374 0.36692 0.73769 0.0
C896 C 0.31045 0.40714 0.67604 0.0
N897 N 0.33194 0.3976 0.67089 0.0
C898 C 0.35053 0.43554 0.67426 0.0
C899 C 0.35185 0.41114 0.6705 0.0
C900 C 0.3285 0.44615 0.67882 0.0
C901 C 0.30829 0.43156 0.67999 0.0
H902 H 0.29495 0.39584 0.67672 0.0
H903 H 0.36879 0.40298 0.66712 0.0
C904 C 0.40671 0.30586 0.65937 0.0
N905 N 0.39733 0.32623 0.66824 0.0
C906 C 0.43114 0.30216 0.6601 0.0
C907 C 0.43557 0.34007 0.67986 0.0
C908 C 0.41116 0.34317 0.67844 0.0
C909 C 0.44587 0.31956 0.67022 0.0
H910 H 0.3953 0.29286 0.65102 0.0
H911 H 0.40334 0.35954 0.68463 0.0
C912 C 0.28872 0.35556 0.63958 0.0
N913 N 0.25089 0.3735 0.61426 0.0
C914 C 0.26731 0.34308 0.63869 0.0
C915 C 0.29074 0.37734 0.62785 0.0
C916 C 0.24843 0.35239 0.62572 0.0
C917 C 0.27147 0.38606 0.61508 0.0
C918 C 0.33891 0.28342 0.65046 0.0
C919 C 0.32359 0.27403 0.6334 0.0
C920 C 0.34697 0.26901 0.66891 0.0
C921 C 0.31625 0.25038 0.63532 0.0
C922 C 0.33919 0.24547 0.67022 0.0
N923 N 0.32411 0.23672 0.65356 0.0
C924 C 0.35028 0.32716 0.58679 0.0
C925 C 0.30839 0.32935 0.58723 0.0
C926 C 0.3504 0.3252 0.56219 0.0
N927 N 0.32955 0.32967 0.5987 0.0
C928 C 0.30766 0.32741 0.56254 0.0
C929 C 0.32892 0.32575 0.5497 0.0
H930 H 0.36681 0.32719 0.59646 0.0
H931 H 0.2921 0.33094 0.59707 0.0
C932 C 0.3071 0.30268 0.71431 0.0
N933 N 0.3042 0.30316 0.69042 0.0
C934 C 0.29256 0.2884 0.72833 0.0
C935 C 0.27221 0.27547 0.69287 0.0
C936 C 0.28713 0.29005 0.67956 0.0
C937 C 0.27481 0.27456 0.71761 0.0
H938 H 0.32064 0.31346 0.72253 0.0
H939 H 0.28509 0.29093 0.66055 0.0
O940 O 0.35951 0.35709 0.63923 0.0
O941 O 0.34506 0.3444 0.69059 0.0
O942 O 0.30737 0.34664 0.6522 0.0
O943 O 0.34604 0.3066 0.64904 0.0
H944 H 0.40248 0.37581 0.64193 0.0
H945 H 0.33675 0.37757 0.60345 0.0
H946 H 0.41791 0.40759 0.61574 0.0
H947 H 0.35321 0.40944 0.57812 0.0
H948 H 0.39365 0.30861 0.74386 0.0
H949 H 0.36035 0.38318 0.71237 0.0
H950 H 0.36489 0.30688 0.71066 0.0
H951 H 0.38921 0.3836 0.7455 0.0
H952 H 0.36657 0.44603 0.67294 0.0
H953 H 0.29102 0.43893 0.68383 0.0
H954 H 0.43849 0.28613 0.65247 0.0
H955 H 0.44639 0.35409 0.68738 0.0
H956 H 0.26529 0.32634 0.64785 0.0
H957 H 0.30691 0.38755 0.6288 0.0
H958 H 0.23182 0.34284 0.62478 0.0
H959 H 0.27284 0.40288 0.6059 0.0
H960 H 0.31723 0.28495 0.61899 0.0
H961 H 0.35902 0.27595 0.6821 0.0
H962 H 0.30427 0.24291 0.62234 0.0
H963 H 0.34516 0.23414 0.68449 0.0
H964 H 0.36716 0.32346 0.55304 0.0
H965 H 0.29073 0.32794 0.55357 0.0
H966 H 0.29532 0.28804 0.74732 0.0
H967 H 0.25855 0.26533 0.68394 0.0
Li968 Li 0.62907 0.33309 0.65184 0.0
Li969 Li 0.66783 0.32247 0.66459 0.0
Li970 Li 0.66042 0.36209 0.65028 0.0
Li971 Li 0.6607 0.32878 0.62329 0.0
C972 C 0.63818 0.33869 0.70006 0.0
N973 N 0.62059 0.32232 0.74277 0.0
C974 C 0.62793 0.31611 0.70154 0.0
C975 C 0.63941 0.35296 0.7203 0.0
C976 C 0.61916 0.30815 0.72329 0.0
C977 C 0.63044 0.34437 0.74173 0.0
C978 C 0.65678 0.28246 0.63787 0.0
C979 C 0.69129 0.259 0.62872 0.0
N980 N 0.67733 0.23939 0.62659 0.0
C981 C 0.64279 0.26208 0.6356 0.0
C982 C 0.68125 0.28092 0.63442 0.0
C983 C 0.6535 0.24048 0.62988 0.0
C984 C 0.58517 0.31058 0.6448 0.0
N985 N 0.5961 0.32855 0.65661 0.0
C986 C 0.55973 0.33997 0.67484 0.0
C987 C 0.584 0.34303 0.67158 0.0
C988 C 0.54781 0.32163 0.66279 0.0
C989 C 0.56092 0.3067 0.64772 0.0
H990 H 0.59532 0.29929 0.63309 0.0
H991 H 0.59316 0.35708 0.68092 0.0
C992 C 0.70613 0.31322 0.69484 0.0
N993 N 0.68509 0.30454 0.68701 0.0
C994 C 0.71966 0.30019 0.7109 0.0
C995 C 0.68929 0.26982 0.71086 0.0
C996 C 0.67644 0.28337 0.69474 0.0
C997 C 0.71133 0.27807 0.71897 0.0
H998 H 0.71249 0.33016 0.68838 0.0
H999 H 0.65963 0.27687 0.68828 0.0
C1000 C 0.62005 0.37162 0.62274 0.0
N1001 N 0.58583 0.40623 0.61766 0.0
C1002 C 0.60968 0.37566 0.60064 0.0
C1003 C 0.61306 0.38523 0.64225 0.0
C1004 C 0.59239 0.39323 0.59843 0.0
C1005 C 0.59572 0.40263 0.63933 0.0
C1006 C 0.70356 0.35362 0.62876 0.0
C1007 C 0.69594 0.36585 0.60862 0.0
C1008 C 0.72751 0.35405 0.63493 0.0
C1009 C 0.71243 0.37835 0.59499 0.0
C1010 C 0.74346 0.36676 0.62084 0.0
N1011 N 0.73565 0.37855 0.60133 0.0
C1012 C 0.67283 0.40324 0.67596 0.0
C1013 C 0.66632 0.40965 0.63495 0.0
C1014 C 0.6761 0.42757 0.67966 0.0
N1015 N 0.66773 0.39487 0.65394 0.0
C1016 C 0.66974 0.43401 0.63777 0.0
C1017 C 0.67434 0.44326 0.66041 0.0
H1018 H 0.67383 0.39105 0.69072 0.0
H1019 H 0.66177 0.40265 0.6177 0.0
C1020 C 0.64765 0.31894 0.57718 0.0
N1021 N 0.66685 0.31919 0.59162 0.0
C1022 C 0.65033 0.31497 0.55295 0.0
C1023 C 0.69247 0.31063 0.55903 0.0
C1024 C 0.68894 0.3145 0.58324 0.0
C1025 C 0.67303 0.3113 0.54351 0.0
H1026 H 0.63032 0.32262 0.58444 0.0
H1027 H 0.7039 0.3146 0.59518 0.0
O1028 O 0.64687 0.347 0.67897 0.0
O1029 O 0.64641 0.30367 0.64358 0.0
O1030 O 0.63706 0.3545 0.62507 0.0
O1031 O 0.68783 0.34122 0.64249 0.0
H1032 H 0.62666 0.30482 0.68609 0.0
H1033 H 0.64719 0.37053 0.71947 0.0
H1034 H 0.6112 0.2907 0.72467 0.0
H1035 H 0.6313 0.35523 0.75754 0.0
H1036 H 0.71019 0.25756 0.62602 0.0
H1037 H 0.62384 0.26295 0.63829 0.0
H1038 H 0.69244 0.2964 0.63621 0.0
H1039 H 0.64288 0.22456 0.62808 0.0
H1040 H 0.55038 0.35219 0.68631 0.0
H1041 H 0.55259 0.29215 0.63831 0.0
H1042 H 0.73668 0.30709 0.71647 0.0
H1043 H 0.68202 0.25306 0.71688 0.0
H1044 H 0.61497 0.36536 0.58533 0.0
H1045 H 0.62095 0.38245 0.65948 0.0
H1046 H 0.58421 0.39653 0.58143 0.0
H1047 H 0.59015 0.41328 0.65429 0.0
H1048 H 0.67753 0.36561 0.60345 0.0
H1049 H 0.73372 0.34463 0.65044 0.0
H1050 H 0.70676 0.38786 0.57934 0.0
H1051 H 0.76205 0.36724 0.62541 0.0
H1052 H 0.6797 0.43408 0.69737 0.0
H1053 H 0.66784 0.44558 0.62257 0.0
H1054 H 0.6349 0.3159 0.54161 0.0
H1055 H 0.71023 0.30763 0.55245 0.0
Li1056 Li 0.66165 0.36766 0.33335 0.0
Li1057 Li 0.66438 0.33507 0.36206 0.0
Li1058 Li 0.6732 0.32968 0.32077 0.0
Li1059 Li 0.63232 0.33656 0.33301 0.0
C1060 C 0.71317 0.34386 0.34105 0.0
N1061 N 0.75952 0.32955 0.33479 0.0
C1062 C 0.72358 0.32812 0.35709 0.0
C1063 C 0.72645 0.35257 0.32202 0.0
C1064 C 0.74701 0.32105 0.35358 0.0
C1065 C 0.74981 0.34504 0.3191 0.0
C1066 C 0.62315 0.35678 0.37681 0.0
C1067 C 0.59926 0.33218 0.40241 0.0
N1068 N 0.59091 0.35201 0.41334 0.0
C1069 C 0.61433 0.37691 0.38827 0.0
C1070 C 0.61556 0.33421 0.38389 0.0
C1071 C 0.59804 0.37413 0.40671 0.0
C1072 C 0.64353 0.41324 0.33173 0.0
N1073 N 0.66421 0.40106 0.33041 0.0
C1074 C 0.68618 0.43721 0.32702 0.0
C1075 C 0.68534 0.4124 0.32797 0.0
C1076 C 0.66509 0.45029 0.32883 0.0
C1077 C 0.64355 0.43797 0.33093 0.0
H1078 H 0.62702 0.40366 0.33365 0.0
H1079 H 0.70151 0.4022 0.32712 0.0
C1080 C 0.66979 0.30473 0.40174 0.0
N1081 N 0.67138 0.32749 0.39389 0.0
C1082 C 0.67283 0.29967 0.42577 0.0
C1083 C 0.67983 0.34149 0.43291 0.0
C1084 C 0.67657 0.34573 0.40878 0.0
C1085 C 0.6776 0.31824 0.44174 0.0
H1086 H 0.66564 0.29063 0.38943 0.0
H1087 H 0.6775 0.36367 0.40196 0.0
C1088 C 0.64822 0.36833 0.28948 0.0
N1089 N 0.64623 0.40635 0.25857 0.0
C1090 C 0.62637 0.37788 0.28292 0.0
C1091 C 0.66902 0.37787 0.27999 0.0
C1092 C 0.62574 0.39716 0.26735 0.0
C1093 C 0.66767 0.39716 0.2645 0.0
C1094 C 0.64597 0.28898 0.3295 0.0
C1095 C 0.6409 0.29016 0.30525 0.0
C1096 C 0.64407 0.26722 0.34128 0.0
C1097 C 0.634 0.26957 0.29325 0.0
C1098 C 0.63706 0.24703 0.32865 0.0
N1099 N 0.63223 0.24861 0.30509 0.0
C1100 C 0.70522 0.29362 0.3104 0.0
C1101 C 0.69288 0.31507 0.27648 0.0
C1102 C 0.71924 0.27882 0.29651 0.0
N1103 N 0.69263 0.31145 0.30028 0.0
C1104 C 0.70642 0.30043 0.26181 0.0
C1105 C 0.71984 0.28195 0.2718 0.0
H1106 H 0.70418 0.2908 0.32933 0.0
H1107 H 0.68216 0.32896 0.26883 0.0
C1108 C 0.58652 0.35253 0.32958 0.0
N1109 N 0.59903 0.33194 0.32928 0.0
C1110 C 0.56189 0.35215 0.32866 0.0
C1111 C 0.56323 0.30927 0.32702 0.0
C1112 C 0.58792 0.31048 0.32817 0.0
C1113 C 0.54994 0.33031 0.32749 0.0
H1114 H 0.59577 0.36932 0.33097 0.0
H1115 H 0.59798 0.29425 0.32877 0.0
O1116 O 0.69015 0.35078 0.34404 0.0
O1117 O 0.63908 0.3593 0.3587 0.0
O1118 O 0.64925 0.34979 0.30513 0.0
O1119 O 0.65327 0.30877 0.34166 0.0
H1120 H 0.71364 0.32122 0.37194 0.0
H1121 H 0.71878 0.3649 0.30955 0.0
H1122 H 0.75523 0.30874 0.36576 0.0
H1123 H 0.76022 0.35151 0.30435 0.0
H1124 H 0.59324 0.31483 0.40808 0.0
H1125 H 0.62002 0.3945 0.38296 0.0
H1126 H 0.62212 0.31841 0.3752 0.0
H1127 H 0.59106 0.38956 0.41574 0.0
H1128 H 0.70317 0.44605 0.32559 0.0
H1129 H 0.62687 0.44735 0.33205 0.0
H1130 H 0.67114 0.28149 0.43184 0.0
H1131 H 0.6831 0.35637 0.44464 0.0
H1132 H 0.61007 0.37049 0.28971 0.0
H1133 H 0.68605 0.37063 0.28476 0.0
H1134 H 0.60895 0.4048 0.26223 0.0
H1135 H 0.68366 0.40485 0.25722 0.0
H1136 H 0.64218 0.30673 0.29572 0.0
H1137 H 0.64794 0.26589 0.36 0.0
H1138 H 0.63003 0.27025 0.27451 0.0
H1139 H 0.6355 0.2301 0.33757 0.0
H1140 H 0.7295 0.26509 0.30511 0.0
H1141 H 0.70593 0.30324 0.24284 0.0
H1142 H 0.5523 0.36878 0.32897 0.0
H1143 H 0.55461 0.29206 0.32654 0.0
Li1144 Li 0.65507 0.66825 0.36408 0.0
Li1145 Li 0.65686 0.63531 0.33565 0.0
Li1146 Li 0.66881 0.67514 0.3255 0.0
Li1147 Li 0.62713 0.66643 0.33178 0.0
C1148 C 0.70661 0.65369 0.34283 0.0
N1149 N 0.75336 0.65403 0.3283 0.0
C1150 C 0.71549 0.63508 0.32904 0.0
C1151 C 0.72162 0.67234 0.34945 0.0
C1152 C 0.73915 0.6356 0.32184 0.0
C1153 C 0.74516 0.67223 0.34185 0.0
C1154 C 0.61327 0.62701 0.3572 0.0
C1155 C 0.58869 0.59951 0.33545 0.0
N1156 N 0.57734 0.59364 0.3559 0.0
C1157 C 0.60136 0.62073 0.37799 0.0
C1158 C 0.6069 0.61633 0.33574 0.0
C1159 C 0.58325 0.60381 0.37697 0.0
C1160 C 0.63682 0.67641 0.40931 0.0
N1161 N 0.65731 0.67485 0.39684 0.0
C1162 C 0.68015 0.67914 0.43214 0.0
C1163 C 0.67875 0.67636 0.40761 0.0
C1164 C 0.65926 0.67997 0.4457 0.0
C1165 C 0.63737 0.67895 0.43389 0.0
H1166 H 0.62004 0.67498 0.40016 0.0
H1167 H 0.69475 0.67494 0.3972 0.0
C1168 C 0.66206 0.59112 0.31162 0.0
N1169 N 0.66163 0.60219 0.33303 0.0
C1170 C 0.66395 0.56641 0.31038 0.0
C1171 C 0.66521 0.56517 0.35323 0.0
C1172 C 0.6634 0.58986 0.35361 0.0
C1173 C 0.66523 0.55311 0.33141 0.0
H1174 H 0.66048 0.60145 0.29557 0.0
H1175 H 0.66295 0.59924 0.37035 0.0
C1176 C 0.64538 0.71334 0.35817 0.0
N1177 N 0.64569 0.7507 0.39003 0.0
C1178 C 0.62446 0.7255 0.36334 0.0
C1179 C 0.66654 0.72059 0.36879 0.0
C1180 C 0.62495 0.74424 0.37959 0.0
C1181 C 0.66632 0.73938 0.38498 0.0
C1182 C 0.64368 0.66281 0.28496 0.0
C1183 C 0.63704 0.68668 0.28327 0.0
C1184 C 0.64589 0.64921 0.26435 0.0
C1185 C 0.63261 0.69648 0.26098 0.0
C1186 C 0.6413 0.65967 0.24238 0.0
N1187 N 0.63481 0.68288 0.24116 0.0
C1188 C 0.70321 0.68067 0.28989 0.0
C1189 C 0.69143 0.71655 0.30843 0.0
C1190 C 0.719 0.69295 0.27533 0.0
N1191 N 0.69011 0.69256 0.30622 0.0
C1192 C 0.70681 0.72957 0.29411 0.0
C1193 C 0.72095 0.71776 0.27734 0.0
H1194 H 0.70136 0.66162 0.28817 0.0
H1195 H 0.68032 0.72564 0.32107 0.0
C1196 C 0.58118 0.67978 0.34228 0.0
N1197 N 0.59467 0.67117 0.3243 0.0
C1198 C 0.55675 0.68183 0.33962 0.0
C1199 C 0.56036 0.6653 0.30022 0.0
C1200 C 0.58482 0.6639 0.30351 0.0
C1201 C 0.54606 0.67426 0.31848 0.0
H1202 H 0.58933 0.68417 0.35905 0.0
H1203 H 0.59571 0.65613 0.28984 0.0
O1204 O 0.68338 0.65363 0.34979 0.0
O1205 O 0.63088 0.64373 0.35795 0.0
O1206 O 0.64524 0.69474 0.34247 0.0
O1207 O 0.64858 0.65284 0.30654 0.0
H1208 H 0.70423 0.6205 0.3237 0.0
H1209 H 0.7152 0.68683 0.3602 0.0
H1210 H 0.7462 0.62138 0.31104 0.0
H1211 H 0.75691 0.68664 0.34671 0.0
H1212 H 0.58357 0.59113 0.31896 0.0
H1213 H 0.60606 0.62887 0.39474 0.0
H1214 H 0.61583 0.62103 0.31944 0.0
H1215 H 0.57387 0.59878 0.39292 0.0
H1216 H 0.69741 0.68024 0.44042 0.0
H1217 H 0.62081 0.67915 0.44356 0.0
H1218 H 0.66366 0.55777 0.29323 0.0
H1219 H 0.66644 0.55561 0.36983 0.0
H1220 H 0.60806 0.72078 0.35471 0.0
H1221 H 0.68293 0.71162 0.36475 0.0
H1222 H 0.60886 0.75373 0.38382 0.0
H1223 H 0.68255 0.74496 0.39351 0.0
H1224 H 0.63526 0.69759 0.29892 0.0
H1225 H 0.65115 0.63077 0.26528 0.0
H1226 H 0.62744 0.7149 0.25943 0.0
H1227 H 0.64293 0.64933 0.22629 0.0
H1228 H 0.72963 0.68307 0.26278 0.0
H1229 H 0.70726 0.74872 0.29587 0.0
H1230 H 0.54621 0.68818 0.35436 0.0
H1231 H 0.55266 0.65902 0.28378 0.0
Li1232 Li 0.33319 0.65827 0.36679 0.0
Li1233 Li 0.33227 0.62858 0.33488 0.0
Li1234 Li 0.36362 0.6588 0.33631 0.0
Li1235 Li 0.32269 0.66877 0.32623 0.0
C1236 C 0.36378 0.62458 0.38042 0.0
N1237 N 0.37641 0.60725 0.42441 0.0
C1238 C 0.35491 0.60274 0.38823 0.0
C1239 C 0.37923 0.6375 0.39488 0.0
C1240 C 0.36149 0.5943 0.41055 0.0
C1241 C 0.38534 0.62848 0.4171 0.0
C1242 C 0.283 0.65432 0.34584 0.0
C1243 C 0.24695 0.65712 0.32317 0.0
N1244 N 0.23754 0.67135 0.34022 0.0
C1245 C 0.27295 0.66888 0.3632 0.0
C1246 C 0.26988 0.64825 0.32572 0.0
C1247 C 0.24994 0.67733 0.36002 0.0
C1248 C 0.33272 0.6848 0.40944 0.0
N1249 N 0.32754 0.66341 0.39955 0.0
C1250 C 0.31776 0.64721 0.4374 0.0
C1251 C 0.31942 0.645 0.41283 0.0
C1252 C 0.32391 0.66882 0.44837 0.0
C1253 C 0.33089 0.68796 0.43392 0.0
H1254 H 0.33864 0.6993 0.39838 0.0
H1255 H 0.31499 0.62833 0.40439 0.0
C1256 C 0.34677 0.58227 0.32619 0.0
N1257 N 0.32714 0.59597 0.32847 0.0
C1258 C 0.34462 0.55787 0.32268 0.0
C1259 C 0.30204 0.5621 0.3238 0.0
C1260 C 0.30502 0.58652 0.32723 0.0
C1261 C 0.32203 0.54743 0.32168 0.0
H1262 H 0.36412 0.59032 0.32761 0.0
H1263 H 0.28975 0.59785 0.3293 0.0
C1264 C 0.35868 0.70507 0.34726 0.0
N1265 N 0.38886 0.74366 0.3445 0.0
C1266 C 0.356 0.72176 0.32913 0.0
C1267 C 0.3766 0.70808 0.36407 0.0
C1268 C 0.37145 0.74115 0.32804 0.0
C1269 C 0.39173 0.72767 0.36233 0.0
C1270 C 0.34793 0.63158 0.29149 0.0
C1271 C 0.37062 0.62316 0.28633 0.0
C1272 C 0.32836 0.62195 0.27971 0.0
C1273 C 0.37332 0.60505 0.26959 0.0
C1274 C 0.3318 0.60384 0.26312 0.0
N1275 N 0.35402 0.59583 0.25846 0.0
C1276 C 0.41137 0.64733 0.33925 0.0
C1277 C 0.40433 0.68201 0.31653 0.0
C1278 C 0.43563 0.6492 0.33528 0.0
N1279 N 0.39632 0.66374 0.33015 0.0
C1280 C 0.42858 0.68484 0.31247 0.0
C1281 C 0.44448 0.66823 0.3219 0.0
H1282 H 0.40452 0.6326 0.34944 0.0
H1283 H 0.39194 0.69431 0.30873 0.0
C1284 C 0.2915 0.70701 0.31806 0.0
N1285 N 0.30375 0.68913 0.30754 0.0
C1286 C 0.27728 0.72198 0.30448 0.0
C1287 C 0.28913 0.70017 0.26948 0.0
C1288 C 0.30302 0.6856 0.28375 0.0
C1289 C 0.27591 0.71858 0.27984 0.0
H1290 H 0.29272 0.70956 0.33702 0.0
H1291 H 0.31331 0.67154 0.27582 0.0
O1292 O 0.35726 0.63334 0.35879 0.0
O1293 O 0.30563 0.64619 0.34846 0.0
O1294 O 0.34374 0.68596 0.34863 0.0
O1295 O 0.34487 0.64895 0.30818 0.0
H1296 H 0.34285 0.59255 0.37731 0.0
H1297 H 0.3863 0.65439 0.38906 0.0
H1298 H 0.35466 0.57749 0.41688 0.0
H1299 H 0.39716 0.63836 0.42854 0.0
H1300 H 0.23666 0.65273 0.3076 0.0
H1301 H 0.28288 0.67376 0.37887 0.0
H1302 H 0.27745 0.63709 0.31208 0.0
H1303 H 0.24197 0.6887 0.37325 0.0
H1304 H 0.31254 0.63182 0.44765 0.0
H1305 H 0.33518 0.70515 0.4414 0.0
H1306 H 0.36051 0.5472 0.3216 0.0
H1307 H 0.28431 0.55476 0.32302 0.0
H1308 H 0.34227 0.7197 0.31594 0.0
H1309 H 0.3789 0.69535 0.37822 0.0
H1310 H 0.36965 0.75416 0.31407 0.0
H1311 H 0.40575 0.73016 0.37515 0.0
H1312 H 0.38596 0.63039 0.29525 0.0
H1313 H 0.31067 0.62815 0.28361 0.0
H1314 H 0.39075 0.59828 0.26551 0.0
H1315 H 0.3168 0.5961 0.25402 0.0
H1316 H 0.4474 0.63609 0.34288 0.0
H1317 H 0.43482 0.69959 0.30182 0.0
H1318 H 0.26725 0.73583 0.31321 0.0
H1319 H 0.28898 0.69722 0.25051 0.0
Li1320 Li 0.33378 0.36408 0.33454 0.0
Li1321 Li 0.33568 0.33326 0.36515 0.0
Li1322 Li 0.36527 0.3344 0.33436 0.0
Li1323 Li 0.3243 0.32334 0.32646 0.0
C1324 C 0.37528 0.37654 0.35748 0.0
N1325 N 0.40875 0.41234 0.35545 0.0
C1326 C 0.38474 0.38596 0.37836 0.0
C1327 C 0.38286 0.3853 0.33556 0.0
C1328 C 0.40165 0.40406 0.37696 0.0
C1329 C 0.39979 0.40342 0.33492 0.0
C1330 C 0.2846 0.34315 0.34153 0.0
C1331 C 0.24761 0.32164 0.3414 0.0
N1332 N 0.23829 0.33814 0.32652 0.0
C1333 C 0.27458 0.36002 0.3264 0.0
C1334 C 0.27095 0.32392 0.34927 0.0
C1335 C 0.25116 0.35713 0.31896 0.0
C1336 C 0.32754 0.40583 0.30706 0.0
N1337 N 0.3272 0.39647 0.32924 0.0
C1338 C 0.31982 0.43454 0.34625 0.0
C1339 C 0.32321 0.41015 0.34866 0.0
C1340 C 0.32057 0.44492 0.32361 0.0
C1341 C 0.32424 0.4302 0.30381 0.0
H1342 H 0.33072 0.39444 0.29198 0.0
H1343 H 0.32324 0.40211 0.36607 0.0
C1344 C 0.35295 0.32654 0.41059 0.0
N1345 N 0.3325 0.32847 0.39813 0.0
C1346 C 0.35239 0.32467 0.43519 0.0
C1347 C 0.30963 0.32651 0.43368 0.0
C1348 C 0.31104 0.3283 0.40902 0.0
C1349 C 0.33054 0.32505 0.4471 0.0
H1350 H 0.36974 0.32684 0.40136 0.0
H1351 H 0.29509 0.33012 0.39861 0.0
C1352 C 0.35186 0.33427 0.28663 0.0
N1353 N 0.36557 0.31236 0.24496 0.0
C1354 C 0.35655 0.30987 0.28625 0.0
C1355 C 0.35413 0.34748 0.26578 0.0
C1356 C 0.36344 0.29914 0.26502 0.0
C1357 C 0.3611 0.33609 0.24491 0.0
C1358 C 0.34891 0.28903 0.36301 0.0
C1359 C 0.37083 0.2807 0.37085 0.0
C1360 C 0.32813 0.27984 0.37291 0.0
C1361 C 0.3716 0.26368 0.38884 0.0
C1362 C 0.32963 0.26287 0.39089 0.0
N1363 N 0.35116 0.25523 0.39844 0.0
C1364 C 0.4108 0.3289 0.35043 0.0
C1365 C 0.4098 0.33102 0.30849 0.0
C1366 C 0.43543 0.32783 0.35024 0.0
N1367 N 0.39851 0.33045 0.3298 0.0
C1368 C 0.43449 0.32979 0.30746 0.0
C1369 C 0.44758 0.32845 0.32856 0.0
H1370 H 0.4014 0.32896 0.36713 0.0
H1371 H 0.39988 0.33307 0.29231 0.0
C1372 C 0.29187 0.31472 0.28993 0.0
N1373 N 0.30453 0.30402 0.30735 0.0
C1374 C 0.27707 0.30134 0.27534 0.0
C1375 C 0.28946 0.26599 0.29623 0.0
C1376 C 0.30376 0.28014 0.31064 0.0
C1377 C 0.27574 0.27658 0.27834 0.0
H1378 H 0.29327 0.33372 0.28741 0.0
H1379 H 0.3145 0.27203 0.32423 0.0
O1380 O 0.35883 0.3587 0.35865 0.0
O1381 O 0.3076 0.34551 0.34875 0.0
O1382 O 0.34467 0.34524 0.30707 0.0
O1383 O 0.34778 0.30601 0.34569 0.0
H1384 H 0.37909 0.3793 0.39545 0.0
H1385 H 0.37582 0.37818 0.31921 0.0
H1386 H 0.40913 0.41151 0.39298 0.0
H1387 H 0.40581 0.41036 0.31808 0.0
H1388 H 0.23692 0.30674 0.34711 0.0
H1389 H 0.28482 0.37504 0.32025 0.0
H1390 H 0.27831 0.3108 0.36112 0.0
H1391 H 0.24325 0.36996 0.30712 0.0
H1392 H 0.31746 0.44525 0.36203 0.0
H1393 H 0.32474 0.43745 0.28605 0.0
H1394 H 0.3689 0.32321 0.4448 0.0
H1395 H 0.29245 0.3271 0.44218 0.0
H1396 H 0.35498 0.29926 0.3021 0.0
H1397 H 0.35056 0.36635 0.26571 0.0
H1398 H 0.36712 0.28029 0.26449 0.0
H1399 H 0.36295 0.34612 0.22867 0.0
H1400 H 0.38708 0.28719 0.36308 0.0
H1401 H 0.31103 0.28597 0.36696 0.0
H1402 H 0.38845 0.25716 0.39515 0.0
H1403 H 0.31369 0.2558 0.39885 0.0
H1404 H 0.44487 0.32669 0.3669 0.0
H1405 H 0.44326 0.33072 0.29041 0.0
H1406 H 0.26668 0.31036 0.262 0.0
H1407 H 0.28949 0.24694 0.29884 0.0
C1408 C 0.2576 0.26765 0.23863 0.0
C1409 C 0.26039 0.26188 0.26273 0.0
H1410 H 0.24157 0.2585 0.20543 0.0
C1411 C 0.24848 0.24185 0.27177 0.0
H1412 H 0.26684 0.28265 0.23092 0.0
C1413 C 0.2344 0.2278 0.25701 0.0
C1414 C 0.23167 0.23368 0.23301 0.0
H1415 H 0.24981 0.23712 0.29032 0.0
H1416 H 0.22541 0.21249 0.26441 0.0
C1417 C 0.24324 0.25379 0.22397 0.0
C1418 C 0.73622 0.24157 0.26248 0.0
C1419 C 0.73411 0.26578 0.25665 0.0
H1420 H 0.75163 0.20795 0.25377 0.0
C1421 C 0.74593 0.27437 0.23642 0.0
H1422 H 0.72692 0.23415 0.27755 0.0
C1423 C 0.7597 0.25916 0.22253 0.0
C1424 C 0.76216 0.23516 0.22878 0.0
H1425 H 0.74498 0.29295 0.23155 0.0
H1426 H 0.76889 0.26626 0.20723 0.0
C1427 C 0.75025 0.22649 0.24881 0.0
C1428 C 0.75495 0.73827 0.22303 0.0
C1429 C 0.76687 0.75833 0.2318 0.0
H1430 H 0.73063 0.71006 0.23035 0.0
C1431 C 0.76422 0.76458 0.25574 0.0
H1432 H 0.75652 0.73323 0.20456 0.0
C1433 C 0.74967 0.75117 0.27061 0.0
C1434 C 0.73726 0.73136 0.26177 0.0
H1435 H 0.77351 0.7798 0.26299 0.0
H1436 H 0.74821 0.7563 0.28905 0.0
C1437 C 0.74019 0.72498 0.23784 0.0
C1438 C 0.24755 0.72424 0.24622 0.0
C1439 C 0.26075 0.73402 0.26495 0.0
H1440 H 0.22389 0.73061 0.21742 0.0
C1441 C 0.25948 0.75861 0.26917 0.0
H1442 H 0.2479 0.70533 0.24266 0.0
C1443 C 0.24539 0.77309 0.2549 0.0
C1444 C 0.23227 0.76329 0.2361 0.0
H1445 H 0.26962 0.76673 0.28333 0.0
H1446 H 0.24462 0.79194 0.25871 0.0
C1447 C 0.23353 0.7387 0.23193 0.0
C1448 C 0.24564 0.72178 0.7497 0.0
C1449 C 0.25775 0.73202 0.73052 0.0
H1450 H 0.2212 0.72696 0.77811 0.0
C1451 C 0.25416 0.7561 0.72525 0.0
H1452 H 0.24784 0.70314 0.75389 0.0
C1453 C 0.23917 0.76989 0.73932 0.0
C1454 C 0.2273 0.75977 0.75879 0.0
H1455 H 0.26347 0.76443 0.71065 0.0
H1456 H 0.23739 0.78861 0.7353 0.0
C1457 C 0.23047 0.73547 0.7636 0.0
C1458 C 0.23523 0.25371 0.7677 0.0
C1459 C 0.22913 0.23066 0.76025 0.0
H1460 H 0.2542 0.2857 0.75997 0.0
C1461 C 0.23806 0.22219 0.73858 0.0
H1462 H 0.22885 0.26066 0.78443 0.0
C1463 C 0.25282 0.23645 0.72469 0.0
C1464 C 0.25899 0.25946 0.73221 0.0
H1465 H 0.2335 0.20459 0.73226 0.0
H1466 H 0.25964 0.22934 0.70821 0.0
C1467 C 0.24998 0.26795 0.75383 0.0
C1468 C 0.7413 0.22461 0.74628 0.0
C1469 C 0.75468 0.235 0.76455 0.0
H1470 H 0.71754 0.23003 0.7174 0.0
C1471 C 0.75318 0.25965 0.76823 0.0
H1472 H 0.74181 0.20562 0.74319 0.0
C1473 C 0.73891 0.27365 0.75363 0.0
C1474 C 0.72587 0.26327 0.73509 0.0
H1475 H 0.76341 0.26821 0.78205 0.0
H1476 H 0.7381 0.2926 0.75689 0.0
C1477 C 0.72714 0.23858 0.73168 0.0
C1478 C 0.76995 0.73691 0.75518 0.0
C1479 C 0.76675 0.76162 0.75409 0.0
H1480 H 0.75847 0.70278 0.74272 0.0
C1481 C 0.74978 0.77102 0.73857 0.0
H1482 H 0.78284 0.72928 0.76715 0.0
C1483 C 0.73604 0.75595 0.72452 0.0
C1484 C 0.73882 0.73121 0.72602 0.0
H1485 H 0.74711 0.79003 0.73735 0.0
H1486 H 0.72284 0.7636 0.71291 0.0
C1487 C 0.75594 0.7218 0.74138 0.0
C1488 C 0.18679 0.17576 0.98379 0.0
C1489 C 0.16513 0.17878 0.97187 0.0
H1490 H 0.20415 0.17174 0.01739 0.0
C1491 C 0.14453 0.18287 0.98522 0.0
H1492 H 0.20295 0.17246 0.974 0.0
C1493 C 0.14521 0.18219 0.0099 0.0
C1494 C 0.16655 0.17767 0.02177 0.0
H1495 H 0.12769 0.18585 0.97658 0.0
H1496 H 0.1289 0.1845 0.01973 0.0
C1497 C 0.1875 0.17529 0.00859 0.0
C1498 C 0.83814 0.18339 0.98494 0.0
C1499 C 0.82258 0.16818 0.97272 0.0
H1500 H 0.8514 0.19498 0.01854 0.0
C1501 C 0.80754 0.15322 0.98585 0.0
H1502 H 0.85012 0.19498 0.97539 0.0
C1503 C 0.8085 0.15299 0.0106 0.0
C1504 C 0.82452 0.16773 0.02279 0.0
H1505 H 0.79515 0.14149 0.97699 0.0
H1506 H 0.79716 0.14075 0.02013 0.0
C1507 C 0.83908 0.18317 0.00968 0.0
C1508 C 0.8019 0.80956 0.9823 0.0
C1509 C 0.80594 0.83049 0.96925 0.0
H1510 H 0.80218 0.79283 0.0164 0.0
C1511 C 0.81139 0.8515 0.98163 0.0
H1512 H 0.79729 0.79312 0.97343 0.0
C1513 C 0.81357 0.85144 0.0062 0.0
C1514 C 0.81085 0.8303 0.01913 0.0
H1515 H 0.815 0.86795 0.97236 0.0
H1516 H 0.81799 0.86797 0.01503 0.0
C1517 C 0.80441 0.80944 0.00698 0.0
C1518 C 0.19659 0.82503 0.01066 0.0
C1519 C 0.17899 0.81191 0.02247 0.0
H1520 H 0.21067 0.83634 0.97726 0.0
C1521 C 0.16303 0.79823 0.00907 0.0
H1522 H 0.20905 0.83586 0.02051 0.0
C1523 C 0.16386 0.79862 0.98435 0.0
C1524 C 0.18065 0.81276 0.9725 0.0
H1525 H 0.14944 0.78774 0.01771 0.0
H1526 H 0.15061 0.78875 0.97454 0.0
C1527 C 0.19737 0.8255 0.98591 0.0
C1528 C 0.01063 0.18134 0.18372 0.0
C1529 C 0.02293 0.16491 0.16958 0.0
H1530 H 0.97676 0.19375 0.19565 0.0
C1531 C 0.01008 0.14776 0.15684 0.0
H1532 H 0.02013 0.1948 0.19365 0.0
C1533 C 0.98546 0.14714 0.158 0.0
C1534 C 0.97307 0.16369 0.17188 0.0
H1535 H 0.0191 0.13469 0.14602 0.0
H1536 H 0.97608 0.1339 0.14766 0.0
C1537 C 0.98587 0.18084 0.18473 0.0
C1538 C 0.85034 0.98169 0.16672 0.0
C1539 C 0.83057 0.96891 0.17485 0.0
H1540 H 0.86533 0.01566 0.15912 0.0
C1541 C 0.81053 0.98141 0.18264 0.0
H1542 H 0.86584 0.97251 0.16011 0.0
C1543 C 0.81027 0.00626 0.18228 0.0
C1544 C 0.83 0.01907 0.17394 0.0
H1545 H 0.7951 0.97197 0.18911 0.0
H1546 H 0.79467 0.01542 0.18864 0.0
C1547 C 0.85003 0.00645 0.16618 0.0
C1548 C 0.98723 0.81112 0.17885 0.0
C1549 C 0.97487 0.81878 0.15858 0.0
H1550 H 0.02106 0.80632 0.19546 0.0
C1551 C 0.98793 0.82698 0.13895 0.0
H1552 H 0.97786 0.80433 0.19415 0.0
C1553 C 0.01261 0.82756 0.13957 0.0
C1554 C 0.02481 0.82036 0.15996 0.0
H1555 H 0.97916 0.8336 0.12325 0.0
H1556 H 0.02215 0.83431 0.12432 0.0
C1557 C 0.01196 0.81212 0.17959 0.0
C1558 C 0.18851 0.01035 0.15108 0.0
C1559 C 0.17947 0.02197 0.17119 0.0
H1560 H 0.19522 0.97727 0.13376 0.0
C1561 C 0.17122 0.00817 0.19028 0.0
H1562 H 0.19479 0.02034 0.13592 0.0
C1563 C 0.17104 0.98337 0.18882 0.0
C1564 C 0.17915 0.97183 0.16827 0.0
H1565 H 0.16445 0.01654 0.20618 0.0
H1566 H 0.16366 0.9733 0.20343 0.0
C1567 C 0.18845 0.98561 0.14968 0.0
C1568 C 0.98087 0.83297 0.85839 0.0
C1569 C 0.9686 0.82143 0.84003 0.0
H1570 H 0.01466 0.84247 0.87284 0.0
C1571 C 0.98144 0.80961 0.82228 0.0
H1572 H 0.97135 0.84237 0.87216 0.0
C1573 C 0.00617 0.8095 0.82278 0.0
C1574 C 0.01844 0.82156 0.84081 0.0
H1575 H 0.97234 0.80053 0.80799 0.0
H1576 H 0.01572 0.80051 0.80875 0.0
C1577 C 0.00558 0.83318 0.85867 0.0
C1578 C 0.14705 0.98168 0.81434 0.0
C1579 C 0.16577 0.96838 0.82392 0.0
H1580 H 0.13286 0.01612 0.80741 0.0
C1581 C 0.1859 0.98045 0.83234 0.0
H1582 H 0.13144 0.97296 0.80733 0.0
C1583 C 0.18695 0.00524 0.83189 0.0
C1584 C 0.16784 0.01857 0.82316 0.0
H1585 H 0.20058 0.97081 0.84001 0.0
H1586 H 0.20264 0.01397 0.83873 0.0
C1587 C 0.14803 0.00647 0.81405 0.0
C1588 C 0.0067 0.16699 0.80523 0.0
C1589 C 0.01886 0.17296 0.82612 0.0
H1590 H 0.97293 0.16254 0.78844 0.0
C1591 C 0.00597 0.18079 0.84592 0.0
H1592 H 0.01625 0.1608 0.78977 0.0
C1593 C 0.98131 0.18193 0.84512 0.0
C1594 C 0.96906 0.17501 0.82459 0.0
H1595 H 0.01497 0.18565 0.86218 0.0
H1596 H 0.97179 0.18733 0.8609 0.0
C1597 C 0.98198 0.16784 0.80453 0.0
C1598 C 0.82946 0.98714 0.79947 0.0
C1599 C 0.82011 0.97496 0.81908 0.0
H1600 H 0.83733 0.02106 0.784 0.0
C1601 C 0.80967 0.98793 0.83758 0.0
H1602 H 0.83769 0.97749 0.78504 0.0
C1603 C 0.80935 0.01269 0.83695 0.0
C1604 C 0.81968 0.02498 0.8179 0.0
H1605 H 0.80219 0.9789 0.8528 0.0
H1606 H 0.80191 0.02223 0.85187 0.0
C1607 C 0.82941 0.01199 0.79897 0.0
C1608 C 0.64333 0.69291 0.48534 0.0
C1609 C 0.66025 0.68033 0.47203 0.0
H1610 H 0.62985 0.70126 0.51987 0.0
C1611 C 0.67747 0.66699 0.48411 0.0
H1612 H 0.63007 0.70367 0.47665 0.0
C1613 C 0.67748 0.66586 0.50881 0.0
C1614 C 0.66017 0.67787 0.52202 0.0
H1615 H 0.69049 0.65669 0.47449 0.0
H1616 H 0.69056 0.65489 0.51755 0.0
C1617 C 0.64322 0.69159 0.51007 0.0
C1618 C 0.34293 0.68538 0.51086 0.0
C1619 C 0.32725 0.67192 0.52484 0.0
H1620 H 0.35464 0.69454 0.47609 0.0
C1621 C 0.30951 0.65858 0.51342 0.0
H1622 H 0.35653 0.69628 0.51894 0.0
C1623 C 0.30787 0.65825 0.48872 0.0
C1624 C 0.32418 0.67093 0.47471 0.0
H1625 H 0.29722 0.64777 0.52348 0.0
H1626 H 0.29394 0.64778 0.48063 0.0
C1627 C 0.34156 0.68473 0.48615 0.0
C1628 C 0.31277 0.31176 0.48582 0.0
C1629 C 0.32979 0.3251 0.47338 0.0
H1630 H 0.2993 0.30123 0.51978 0.0
C1631 C 0.34616 0.33883 0.48623 0.0
H1632 H 0.30003 0.30089 0.4764 0.0
C1633 C 0.34574 0.33903 0.51092 0.0
C1634 C 0.32895 0.3255 0.52341 0.0
H1635 H 0.35913 0.34975 0.47719 0.0
H1636 H 0.35842 0.35007 0.52024 0.0
C1637 C 0.31235 0.31197 0.51062 0.0
C1638 C 0.6615 0.29925 0.47852 0.0
C1639 C 0.67855 0.31384 0.46763 0.0
H1640 H 0.6466 0.28672 0.5111 0.0
C1641 C 0.69527 0.32562 0.48189 0.0
H1642 H 0.64827 0.29006 0.46804 0.0
C1643 C 0.69423 0.32378 0.50656 0.0
C1644 C 0.67638 0.31022 0.51747 0.0
H1645 H 0.70878 0.33677 0.47398 0.0
H1646 H 0.7067 0.33393 0.5171 0.0
C1647 C 0.6604 0.29749 0.50318 0.0
C1648 C 0.51076 0.66037 0.7027 0.0
C1649 C 0.52369 0.67366 0.68601 0.0
H1650 H 0.47653 0.64956 0.71507 0.0
C1651 C 0.5113 0.68806 0.66989 0.0
H1652 H 0.51974 0.64944 0.71566 0.0
C1653 C 0.48659 0.68828 0.66972 0.0
C1654 C 0.47371 0.674 0.68556 0.0
H1655 H 0.52063 0.69827 0.65655 0.0
H1656 H 0.47758 0.69869 0.65635 0.0
C1657 C 0.48603 0.66047 0.70242 0.0
C1658 C 0.34498 0.5101 0.69185 0.0
C1659 C 0.32686 0.52248 0.68022 0.0
H1660 H 0.35926 0.47631 0.70131 0.0
C1661 C 0.308 0.5097 0.67018 0.0
H1662 H 0.35952 0.51959 0.70009 0.0
C1663 C 0.30798 0.48486 0.67055 0.0
C1664 C 0.32675 0.47239 0.68117 0.0
H1665 H 0.29388 0.51886 0.661 0.0
H1666 H 0.29387 0.47547 0.66152 0.0
C1667 C 0.34485 0.48533 0.69245 0.0
C1668 C 0.51054 0.3233 0.68715 0.0
C1669 C 0.52175 0.31875 0.66533 0.0
H1670 H 0.47771 0.32694 0.70583 0.0
C1671 C 0.50772 0.3126 0.64565 0.0
H1672 H 0.52079 0.32755 0.70281 0.0
C1673 C 0.48308 0.31183 0.64755 0.0
C1674 C 0.47194 0.31743 0.66908 0.0
H1675 H 0.51566 0.30931 0.62849 0.0
H1676 H 0.4727 0.30793 0.63187 0.0
C1677 C 0.48589 0.3228 0.68896 0.0
C1678 C 0.68771 0.50834 0.65003 0.0
C1679 C 0.67346 0.51919 0.66732 0.0
H1680 H 0.69922 0.47566 0.63435 0.0
C1681 C 0.66108 0.50487 0.68354 0.0
H1682 H 0.69731 0.51896 0.63721 0.0
C1683 C 0.66226 0.48014 0.68196 0.0
C1684 C 0.67562 0.46929 0.66397 0.0
H1685 H 0.65012 0.51281 0.69715 0.0
H1686 H 0.65189 0.46952 0.69417 0.0
C1687 C 0.68867 0.4836 0.64828 0.0
C1688 C 0.48635 0.34345 0.34386 0.0
C1689 C 0.4738 0.32871 0.32815 0.0
H1690 H 0.5202 0.35538 0.356 0.0
C1691 C 0.48645 0.3144 0.31215 0.0
H1692 H 0.47707 0.35485 0.35622 0.0
C1693 C 0.51122 0.31472 0.31201 0.0
C1694 C 0.52372 0.32959 0.32766 0.0
H1695 H 0.47721 0.30277 0.29994 0.0
H1696 H 0.52058 0.30358 0.29948 0.0
C1697 C 0.51103 0.34393 0.34358 0.0
C1698 C 0.67978 0.48967 0.31372 0.0
C1699 C 0.66546 0.47663 0.32943 0.0
H1700 H 0.69096 0.52416 0.30202 0.0
C1701 C 0.65134 0.48891 0.34585 0.0
H1702 H 0.69074 0.48067 0.30078 0.0
C1703 C 0.6514 0.51367 0.34651 0.0
C1704 C 0.66557 0.52677 0.33073 0.0
H1705 H 0.64033 0.47936 0.35837 0.0
H1706 H 0.64008 0.52259 0.35919 0.0
C1707 C 0.67975 0.51453 0.31429 0.0
C1708 C 0.50837 0.65276 0.30977 0.0
C1709 C 0.51997 0.67378 0.31654 0.0
H1710 H 0.47521 0.63457 0.30621 0.0
C1711 C 0.50646 0.69359 0.3233 0.0
H1712 H 0.5184 0.63718 0.30469 0.0
C1713 C 0.48177 0.69215 0.32398 0.0
C1714 C 0.47026 0.67076 0.31831 0.0
H1715 H 0.51503 0.71002 0.32853 0.0
H1716 H 0.47173 0.70742 0.32993 0.0
C1717 C 0.48374 0.65121 0.3108 0.0
C1718 C 0.30304 0.48426 0.33496 0.0
C1719 C 0.31893 0.47109 0.321 0.0
H1720 H 0.29159 0.51868 0.34615 0.0
C1721 C 0.33441 0.48326 0.30571 0.0
H1722 H 0.29068 0.47538 0.34668 0.0
C1723 C 0.33475 0.50806 0.3052 0.0
C1724 C 0.31962 0.52123 0.31997 0.0
H1725 H 0.34697 0.47366 0.29484 0.0
H1726 H 0.34725 0.51694 0.29363 0.0
C1727 C 0.30337 0.50907 0.33444 0.0
loop_
_geom_bond_atom_site_label_1
_geom_bond_atom_site_label_2
_geom_bond_distance
_geom_bond_site_symmetry_2
_ccdc_geom_bond_type
Li0 N17 1.990 . S
Li0 O60 1.956 . S
Li0 O61 1.970 . S
Li0 O62 1.961 . S
Li1 N25 1.990 . S
Li1 O60 1.970 . S
Li1 O61 1.956 . S
Li1 O63 1.961 . S
Li2 N47 1.990 . S
Li2 O60 1.961 . S
Li2 O62 1.956 . S
Li2 O63 1.970 . S
Li3 N53 1.990 . S
Li3 O61 1.961 . S
Li3 O62 1.970 . S
Li3 O63 1.956 . S
C4 C6 1.348 . S
C4 C7 1.356 . S
C4 O60 1.325 . S
N5 C8 1.314 . S
N5 C9 1.279 . S
C6 C4 1.348 . S
C6 C8 1.353 . S
C6 H64 0.929 . S
C7 C4 1.356 . S
C7 C9 1.358 . S
C7 H65 0.930 . S
C8 N5 1.314 . S
C8 C6 1.353 . S
C8 H66 0.930 . S
C9 N5 1.279 . S
C9 C7 1.358 . S
C9 H67 0.930 . S
C10 C13 1.348 . S
C10 C14 1.356 . S
C10 O61 1.325 . S
C11 N12 1.279 . S
C11 C14 1.358 . S
C11 H68 0.930 . S
N12 C11 1.279 . S
N12 C15 1.314 . S
C13 C10 1.348 . S
C13 C15 1.353 . S
C13 H69 0.929 . S
C14 C10 1.356 . S
C14 C11 1.358 . S
C14 H70 0.930 . S
C15 N12 1.314 . S
C15 C13 1.353 . S
C15 H71 0.930 . S
C16 N17 1.314 . S
C16 C21 1.353 . S
C16 H22 0.930 . S
N17 Li0 1.990 . S
N17 C16 1.314 . S
N17 C19 1.279 . S
C18 C19 1.358 . S
C18 C20 1.356 . S
C18 H72 0.930 . S
C19 N17 1.279 . S
C19 C18 1.358 . S
C19 H23 0.930 . S
C20 C18 1.356 . S
C20 C21 1.348 . S
C21 C16 1.353 . S
C21 C20 1.348 . S
C21 H73 0.929 . S
H22 C16 0.930 . S
H23 C19 0.930 . S
C24 N25 1.314 . S
C24 C26 1.353 . S
C24 H30 0.930 . S
N25 Li1 1.990 . S
N25 C24 1.314 . S
N25 C28 1.279 . S
C26 C24 1.353 . S
C26 C29 1.348 . S
C26 H74 0.929 . S
C27 C28 1.358 . S
C27 C29 1.356 . S
C27 H75 0.930 . S
C28 N25 1.279 . S
C28 C27 1.358 . S
C28 H31 0.930 . S
C29 C26 1.348 . S
C29 C27 1.356 . S
H30 C24 0.930 . S
H31 C28 0.930 . S
C32 C34 1.348 . S
C32 C35 1.356 . S
C32 O62 1.325 . S
N33 C36 1.314 . S
N33 C37 1.279 . S
C34 C32 1.348 . S
C34 C36 1.353 . S
C34 H76 0.929 . S
C35 C32 1.356 . S
C35 C37 1.358 . S
C35 H77 0.930 . S
C36 N33 1.314 . S
C36 C34 1.353 . S
C36 H78 0.930 . S
C37 N33 1.279 . S
C37 C35 1.358 . S
C37 H79 0.930 . S
C38 C39 1.348 . S
C38 C40 1.356 . S
C38 O63 1.325 . S
C39 C38 1.348 . S
C39 C41 1.353 . S
C39 H80 0.929 . S
C40 C38 1.356 . S
C40 C42 1.358 . S
C40 H81 0.930 . S
C41 C39 1.353 . S
C41 N43 1.314 . S
C41 H82 0.930 . S
C42 C40 1.358 . S
C42 N43 1.279 . S
C42 H83 0.930 . S
N43 C41 1.314 . S
N43 C42 1.279 . S
C44 C46 1.353 . S
C44 N47 1.314 . S
C44 H50 0.930 . S
C45 N47 1.279 . S
C45 C48 1.358 . S
C45 H51 0.930 . S
C46 C44 1.353 . S
C46 C49 1.348 . S
C46 H84 0.929 . S
N47 Li2 1.990 . S
N47 C44 1.314 . S
N47 C45 1.279 . S
C48 C45 1.358 . S
C48 C49 1.356 . S
C48 H85 0.930 . S
C49 C46 1.348 . S
C49 C48 1.356 . S
H50 C44 0.930 . S
H51 C45 0.930 . S
C52 N53 1.314 . S
C52 C54 1.353 . S
C52 H58 0.930 . S
N53 Li3 1.990 . S
N53 C52 1.314 . S
N53 C56 1.279 . S
C54 C52 1.353 . S
C54 C57 1.348 . S
C54 H86 0.929 . S
C55 C56 1.358 . S
C55 C57 1.356 . S
C55 H87 0.930 . S
C56 N53 1.279 . S
C56 C55 1.358 . S
C56 H59 0.930 . S
C57 C54 1.348 . S
C57 C55 1.356 . S
H58 C52 0.930 . S
H59 C56 0.930 . S
O60 Li0 1.956 . S
O60 Li1 1.970 . S
O60 Li2 1.961 . S
O60 C4 1.325 . S
O61 Li0 1.970 . S
O61 Li1 1.956 . S
O61 Li3 1.961 . S
O61 C10 1.325 . S
O62 Li0 1.961 . S
O62 Li2 1.956 . S
O62 Li3 1.970 . S
O62 C32 1.325 . S
O63 Li1 1.961 . S
O63 Li2 1.970 . S
O63 Li3 1.956 . S
O63 C38 1.325 . S
H64 C6 0.929 . S
H65 C7 0.930 . S
H66 C8 0.930 . S
H67 C9 0.930 . S
H68 C11 0.930 . S
H69 C13 0.929 . S
H70 C14 0.930 . S
H71 C15 0.930 . S
H72 C18 0.930 . S
H73 C21 0.929 . S
H74 C26 0.929 . S
H75 C27 0.930 . S
H76 C34 0.929 . S
H77 C35 0.930 . S
H78 C36 0.930 . S
H79 C37 0.930 . S
H80 C39 0.929 . S
H81 C40 0.930 . S
H82 C41 0.930 . S
H83 C42 0.930 . S
H84 C46 0.929 . S
H85 C48 0.930 . S
H86 C54 0.929 . S
H87 C55 0.930 . S
Li88 N105 1.990 . S
Li88 O148 1.956 . S
Li88 O149 1.970 . S
Li88 O150 1.961 . S
Li89 N113 1.990 . S
Li89 O148 1.970 . S
Li89 O149 1.956 . S
Li89 O151 1.961 . S
Li90 N135 1.990 . S
Li90 O148 1.961 . S
Li90 O150 1.956 . S
Li90 O151 1.970 . S
Li91 N141 1.990 . S
Li91 O149 1.961 . S
Li91 O150 1.970 . S
Li91 O151 1.956 . S
C92 C94 1.348 . S
C92 C95 1.356 . S
C92 O148 1.325 . S
N93 C96 1.314 . S
N93 C97 1.279 . S
C94 C92 1.348 . S
C94 C96 1.353 . S
C94 H152 0.929 . S
C95 C92 1.356 . S
C95 C97 1.358 . S
C95 H153 0.930 . S
C96 N93 1.314 . S
C96 C94 1.353 . S
C96 H154 0.930 . S
C97 N93 1.279 . S
C97 C95 1.358 . S
C97 H155 0.930 . S
C98 C101 1.348 . S
C98 C102 1.356 . S
C98 O149 1.325 . S
C99 N100 1.279 . S
C99 C102 1.358 . S
C99 H156 0.930 . S
N100 C99 1.279 . S
N100 C103 1.314 . S
C101 C98 1.348 . S
C101 C103 1.353 . S
C101 H157 0.929 . S
C102 C98 1.356 . S
C102 C99 1.358 . S
C102 H158 0.930 . S
C103 N100 1.314 . S
C103 C101 1.353 . S
C103 H159 0.930 . S
C104 N105 1.314 . S
C104 C109 1.353 . S
C104 H110 0.930 . S
N105 Li88 1.990 . S
N105 C104 1.314 . S
N105 C107 1.279 . S
C106 C107 1.358 . S
C106 C108 1.356 . S
C106 H160 0.930 . S
C107 N105 1.279 . S
C107 C106 1.358 . S
C107 H111 0.930 . S
C108 C106 1.356 . S
C108 C109 1.348 . S
C109 C104 1.353 . S
C109 C108 1.348 . S
C109 H161 0.929 . S
H110 C104 0.930 . S
H111 C107 0.930 . S
C112 N113 1.314 . S
C112 C114 1.353 . S
C112 H118 0.930 . S
N113 Li89 1.990 . S
N113 C112 1.314 . S
N113 C116 1.279 . S
C114 C112 1.353 . S
C114 C117 1.348 . S
C114 H162 0.929 . S
C115 C116 1.358 . S
C115 C117 1.356 . S
C115 H163 0.930 . S
C116 N113 1.279 . S
C116 C115 1.358 . S
C116 H119 0.930 . S
C117 C114 1.348 . S
C117 C115 1.356 . S
H118 C112 0.930 . S
H119 C116 0.930 . S
C120 C122 1.348 . S
C120 C123 1.356 . S
C120 O150 1.325 . S
N121 C124 1.314 . S
N121 C125 1.279 . S
C122 C120 1.348 . S
C122 C124 1.353 . S
C122 H164 0.929 . S
C123 C120 1.356 . S
C123 C125 1.358 . S
C123 H165 0.930 . S
C124 N121 1.314 . S
C124 C122 1.353 . S
C124 H166 0.930 . S
C125 N121 1.279 . S
C125 C123 1.358 . S
C125 H167 0.930 . S
C126 C127 1.348 . S
C126 C128 1.356 . S
C126 O151 1.325 . S
C127 C126 1.348 . S
C127 C129 1.353 . S
C127 H168 0.929 . S
C128 C126 1.356 . S
C128 C130 1.358 . S
C128 H169 0.930 . S
C129 C127 1.353 . S
C129 N131 1.314 . S
C129 H170 0.930 . S
C130 C128 1.358 . S
C130 N131 1.279 . S
C130 H171 0.930 . S
N131 C129 1.314 . S
N131 C130 1.279 . S
C132 C134 1.353 . S
C132 N135 1.314 . S
C132 H138 0.930 . S
C133 N135 1.279 . S
C133 C136 1.358 . S
C133 H139 0.930 . S
C134 C132 1.353 . S
C134 C137 1.348 . S
C134 H172 0.929 . S
N135 Li90 1.990 . S
N135 C132 1.314 . S
N135 C133 1.279 . S
C136 C133 1.358 . S
C136 C137 1.356 . S
C136 H173 0.930 . S
C137 C134 1.348 . S
C137 C136 1.356 . S
H138 C132 0.930 . S
H139 C133 0.930 . S
C140 N141 1.314 . S
C140 C142 1.353 . S
C140 H146 0.930 . S
N141 Li91 1.990 . S
N141 C140 1.314 . S
N141 C144 1.279 . S
C142 C140 1.353 . S
C142 C145 1.348 . S
C142 H174 0.929 . S
C143 C144 1.358 . S
C143 C145 1.356 . S
C143 H175 0.930 . S
C144 N141 1.279 . S
C144 C143 1.358 . S
C144 H147 0.930 . S
C145 C142 1.348 . S
C145 C143 1.356 . S
H146 C140 0.930 . S
H147 C144 0.930 . S
O148 Li88 1.956 . S
O148 Li89 1.970 . S
O148 Li90 1.961 . S
O148 C92 1.325 . S
O149 Li88 1.970 . S
O149 Li89 1.956 . S
O149 Li91 1.961 . S
O149 C98 1.325 . S
O150 Li88 1.961 . S
O150 Li90 1.956 . S
O150 Li91 1.970 . S
O150 C120 1.325 . S
O151 Li89 1.961 . S
O151 Li90 1.970 . S
O151 Li91 1.956 . S
O151 C126 1.325 . S
H152 C94 0.929 . S
H153 C95 0.930 . S
H154 C96 0.930 . S
H155 C97 0.930 . S
H156 C99 0.930 . S
H157 C101 0.929 . S
H158 C102 0.930 . S
H159 C103 0.930 . S
H160 C106 0.930 . S
H161 C109 0.929 . S
H162 C114 0.929 . S
H163 C115 0.930 . S
H164 C122 0.929 . S
H165 C123 0.930 . S
H166 C124 0.930 . S
H167 C125 0.930 . S
H168 C127 0.929 . S
H169 C128 0.930 . S
H170 C129 0.930 . S
H171 C130 0.930 . S
H172 C134 0.929 . S
H173 C136 0.930 . S
H174 C142 0.929 . S
H175 C143 0.930 . S
Li176 N193 1.990 . S
Li176 O236 1.956 . S
Li176 O237 1.970 . S
Li176 O238 1.961 . S
Li177 N201 1.990 . S
Li177 O236 1.970 . S
Li177 O237 1.956 . S
Li177 O239 1.961 . S
Li178 N223 1.990 . S
Li178 O236 1.961 . S
Li178 O238 1.956 . S
Li178 O239 1.970 . S
Li179 N229 1.990 . S
Li179 O237 1.961 . S
Li179 O238 1.970 . S
Li179 O239 1.956 . S
C180 C182 1.348 . S
C180 C183 1.356 . S
C180 O236 1.325 . S
N181 C184 1.314 . S
N181 C185 1.279 . S
C182 C180 1.348 . S
C182 C184 1.353 . S
C182 H240 0.929 . S
C183 C180 1.356 . S
C183 C185 1.358 . S
C183 H241 0.930 . S
C184 N181 1.314 . S
C184 C182 1.353 . S
C184 H242 0.930 . S
C185 N181 1.279 . S
C185 C183 1.358 . S
C185 H243 0.930 . S
C186 C189 1.348 . S
C186 C190 1.356 . S
C186 O237 1.325 . S
C187 N188 1.279 . S
C187 C190 1.358 . S
C187 H244 0.930 . S
N188 C187 1.279 . S
N188 C191 1.314 . S
C189 C186 1.348 . S
C189 C191 1.353 . S
C189 H245 0.929 . S
C190 C186 1.356 . S
C190 C187 1.358 . S
C190 H246 0.930 . S
C191 N188 1.314 . S
C191 C189 1.353 . S
C191 H247 0.930 . S
C192 N193 1.314 . S
C192 C197 1.353 . S
C192 H198 0.930 . S
N193 Li176 1.990 . S
N193 C192 1.314 . S
N193 C195 1.279 . S
C194 C195 1.358 . S
C194 C196 1.356 . S
C194 H248 0.930 . S
C195 N193 1.279 . S
C195 C194 1.358 . S
C195 H199 0.930 . S
C196 C194 1.356 . S
C196 C197 1.348 . S
C197 C192 1.353 . S
C197 C196 1.348 . S
C197 H249 0.929 . S
H198 C192 0.930 . S
H199 C195 0.930 . S
C200 N201 1.314 . S
C200 C202 1.353 . S
C200 H206 0.930 . S
N201 Li177 1.990 . S
N201 C200 1.314 . S
N201 C204 1.279 . S
C202 C200 1.353 . S
C202 C205 1.348 . S
C202 H250 0.929 . S
C203 C204 1.358 . S
C203 C205 1.356 . S
C203 H251 0.930 . S
C204 N201 1.279 . S
C204 C203 1.358 . S
C204 H207 0.930 . S
C205 C202 1.348 . S
C205 C203 1.356 . S
H206 C200 0.930 . S
H207 C204 0.930 . S
C208 C210 1.348 . S
C208 C211 1.356 . S
C208 O238 1.325 . S
N209 C212 1.314 . S
N209 C213 1.279 . S
C210 C208 1.348 . S
C210 C212 1.353 . S
C210 H252 0.929 . S
C211 C208 1.356 . S
C211 C213 1.358 . S
C211 H253 0.930 . S
C212 N209 1.314 . S
C212 C210 1.353 . S
C212 H254 0.930 . S
C213 N209 1.279 . S
C213 C211 1.358 . S
C213 H255 0.930 . S
C214 C215 1.348 . S
C214 C216 1.356 . S
C214 O239 1.325 . S
C215 C214 1.348 . S
C215 C217 1.353 . S
C215 H256 0.929 . S
C216 C214 1.356 . S
C216 C218 1.358 . S
C216 H257 0.930 . S
C217 C215 1.353 . S
C217 N219 1.314 . S
C217 H258 0.930 . S
C218 C216 1.358 . S
C218 N219 1.279 . S
C218 H259 0.930 . S
N219 C217 1.314 . S
N219 C218 1.279 . S
C220 C222 1.353 . S
C220 N223 1.314 . S
C220 H226 0.930 . S
C221 N223 1.279 . S
C221 C224 1.358 . S
C221 H227 0.930 . S
C222 C220 1.353 . S
C222 C225 1.348 . S
C222 H260 0.929 . S
N223 Li178 1.990 . S
N223 C220 1.314 . S
N223 C221 1.279 . S
C224 C221 1.358 . S
C224 C225 1.356 . S
C224 H261 0.930 . S
C225 C222 1.348 . S
C225 C224 1.356 . S
H226 C220 0.930 . S
H227 C221 0.930 . S
C228 N229 1.314 . S
C228 C230 1.353 . S
C228 H234 0.930 . S
N229 Li179 1.990 . S
N229 C228 1.314 . S
N229 C232 1.279 . S
C230 C228 1.353 . S
C230 C233 1.348 . S
C230 H262 0.929 . S
C231 C232 1.358 . S
C231 C233 1.356 . S
C231 H263 0.930 . S
C232 N229 1.279 . S
C232 C231 1.358 . S
C232 H235 0.930 . S
C233 C230 1.348 . S
C233 C231 1.356 . S
H234 C228 0.930 . S
H235 C232 0.930 . S
O236 Li176 1.956 . S
O236 Li177 1.970 . S
O236 Li178 1.961 . S
O236 C180 1.325 . S
O237 Li176 1.970 . S
O237 Li177 1.956 . S
O237 Li179 1.961 . S
O237 C186 1.325 . S
O238 Li176 1.961 . S
O238 Li178 1.956 . S
O238 Li179 1.970 . S
O238 C208 1.325 . S
O239 Li177 1.961 . S
O239 Li178 1.970 . S
O239 Li179 1.956 . S
O239 C214 1.325 . S
H240 C182 0.929 . S
H241 C183 0.930 . S
H242 C184 0.930 . S
H243 C185 0.930 . S
H244 C187 0.930 . S
H245 C189 0.929 . S
H246 C190 0.930 . S
H247 C191 0.930 . S
H248 C194 0.930 . S
H249 C197 0.929 . S
H250 C202 0.929 . S
H251 C203 0.930 . S
H252 C210 0.929 . S
H253 C211 0.930 . S
H254 C212 0.930 . S
H255 C213 0.930 . S
H256 C215 0.929 . S
H257 C216 0.930 . S
H258 C217 0.930 . S
H259 C218 0.930 . S
H260 C222 0.929 . S
H261 C224 0.930 . S
H262 C230 0.929 . S
H263 C231 0.930 . S
Li264 N281 1.990 . S
Li264 O324 1.956 . S
Li264 O325 1.970 . S
Li264 O326 1.961 . S
Li265 N289 1.990 . S
Li265 O324 1.970 . S
Li265 O325 1.956 . S
Li265 O327 1.961 . S
Li266 N311 1.990 . S
Li266 O324 1.961 . S
Li266 O326 1.956 . S
Li266 O327 1.970 . S
Li267 N317 1.990 . S
Li267 O325 1.961 . S
Li267 O326 1.970 . S
Li267 O327 1.956 . S
C268 C270 1.348 . S
C268 C271 1.356 . S
C268 O324 1.325 . S
N269 C272 1.314 . S
N269 C273 1.279 . S
C270 C268 1.348 . S
C270 C272 1.353 . S
C270 H328 0.929 . S
C271 C268 1.356 . S
C271 C273 1.358 . S
C271 H329 0.930 . S
C272 N269 1.314 . S
C272 C270 1.353 . S
C272 H330 0.930 . S
C273 N269 1.279 . S
C273 C271 1.358 . S
C273 H331 0.930 . S
C274 C277 1.348 . S
C274 C278 1.356 . S
C274 O325 1.325 . S
C275 N276 1.279 . S
C275 C278 1.358 . S
C275 H332 0.930 . S
N276 C275 1.279 . S
N276 C279 1.314 . S
C277 C274 1.348 . S
C277 C279 1.353 . S
C277 H333 0.929 . S
C278 C274 1.356 . S
C278 C275 1.358 . S
C278 H334 0.930 . S
C279 N276 1.314 . S
C279 C277 1.353 . S
C279 H335 0.930 . S
C280 N281 1.314 . S
C280 C285 1.353 . S
C280 H286 0.930 . S
N281 Li264 1.990 . S
N281 C280 1.314 . S
N281 C283 1.279 . S
C282 C283 1.358 . S
C282 C284 1.356 . S
C282 H336 0.930 . S
C283 N281 1.279 . S
C283 C282 1.358 . S
C283 H287 0.930 . S
C284 C282 1.356 . S
C284 C285 1.348 . S
C285 C280 1.353 . S
C285 C284 1.348 . S
C285 H337 0.929 . S
H286 C280 0.930 . S
H287 C283 0.930 . S
C288 N289 1.314 . S
C288 C290 1.353 . S
C288 H294 0.930 . S
N289 Li265 1.990 . S
N289 C288 1.314 . S
N289 C292 1.279 . S
C290 C288 1.353 . S
C290 C293 1.348 . S
C290 H338 0.929 . S
C291 C292 1.358 . S
C291 C293 1.356 . S
C291 H339 0.930 . S
C292 N289 1.279 . S
C292 C291 1.358 . S
C292 H295 0.930 . S
C293 C290 1.348 . S
C293 C291 1.356 . S
H294 C288 0.930 . S
H295 C292 0.930 . S
C296 C298 1.348 . S
C296 C299 1.356 . S
C296 O326 1.325 . S
N297 C300 1.314 . S
N297 C301 1.279 . S
C298 C296 1.348 . S
C298 C300 1.353 . S
C298 H340 0.929 . S
C299 C296 1.356 . S
C299 C301 1.358 . S
C299 H341 0.930 . S
C300 N297 1.314 . S
C300 C298 1.353 . S
C300 H342 0.930 . S
C301 N297 1.279 . S
C301 C299 1.358 . S
C301 H343 0.930 . S
C302 C303 1.348 . S
C302 C304 1.356 . S
C302 O327 1.325 . S
C303 C302 1.348 . S
C303 C305 1.353 . S
C303 H344 0.929 . S
C304 C302 1.356 . S
C304 C306 1.358 . S
C304 H345 0.930 . S
C305 C303 1.353 . S
C305 N307 1.314 . S
C305 H346 0.930 . S
C306 C304 1.358 . S
C306 N307 1.279 . S
C306 H347 0.930 . S
N307 C305 1.314 . S
N307 C306 1.279 . S
C308 C310 1.353 . S
C308 N311 1.314 . S
C308 H314 0.930 . S
C309 N311 1.279 . S
C309 C312 1.358 . S
C309 H315 0.930 . S
C310 C308 1.353 . S
C310 C313 1.348 . S
C310 H348 0.929 . S
N311 Li266 1.990 . S
N311 C308 1.314 . S
N311 C309 1.279 . S
C312 C309 1.358 . S
C312 C313 1.356 . S
C312 H349 0.930 . S
C313 C310 1.348 . S
C313 C312 1.356 . S
H314 C308 0.930 . S
H315 C309 0.930 . S
C316 N317 1.314 . S
C316 C318 1.353 . S
C316 H322 0.930 . S
N317 Li267 1.990 . S
N317 C316 1.314 . S
N317 C320 1.279 . S
C318 C316 1.353 . S
C318 C321 1.348 . S
C318 H350 0.929 . S
C319 C320 1.358 . S
C319 C321 1.356 . S
C319 H351 0.930 . S
C320 N317 1.279 . S
C320 C319 1.358 . S
C320 H323 0.930 . S
C321 C318 1.348 . S
C321 C319 1.356 . S
H322 C316 0.930 . S
H323 C320 0.930 . S
O324 Li264 1.956 . S
O324 Li265 1.970 . S
O324 Li266 1.961 . S
O324 C268 1.325 . S
O325 Li264 1.970 . S
O325 Li265 1.956 . S
O325 Li267 1.961 . S
O325 C274 1.325 . S
O326 Li264 1.961 . S
O326 Li266 1.956 . S
O326 Li267 1.970 . S
O326 C296 1.325 . S
O327 Li265 1.961 . S
O327 Li266 1.970 . S
O327 Li267 1.956 . S
O327 C302 1.325 . S
H328 C270 0.929 . S
H329 C271 0.930 . S
H330 C272 0.930 . S
H331 C273 0.930 . S
H332 C275 0.930 . S
H333 C277 0.929 . S
H334 C278 0.930 . S
H335 C279 0.930 . S
H336 C282 0.930 . S
H337 C285 0.929 . S
H338 C290 0.929 . S
H339 C291 0.930 . S
H340 C298 0.929 . S
H341 C299 0.930 . S
H342 C300 0.930 . S
H343 C301 0.930 . S
H344 C303 0.929 . S
H345 C304 0.930 . S
H346 C305 0.930 . S
H347 C306 0.930 . S
H348 C310 0.929 . S
H349 C312 0.930 . S
H350 C318 0.929 . S
H351 C319 0.930 . S
Li352 N369 1.990 . S
Li352 O412 1.956 . S
Li352 O413 1.970 . S
Li352 O414 1.961 . S
Li353 N377 1.990 . S
Li353 O412 1.970 . S
Li353 O413 1.956 . S
Li353 O415 1.961 . S
Li354 N399 1.990 . S
Li354 O412 1.961 . S
Li354 O414 1.956 . S
Li354 O415 1.970 . S
Li355 N405 1.990 . S
Li355 O413 1.961 . S
Li355 O414 1.970 . S
Li355 O415 1.956 . S
C356 C358 1.348 . S
C356 C359 1.356 . S
C356 O412 1.325 . S
N357 C360 1.314 . S
N357 C361 1.279 . S
C358 C356 1.348 . S
C358 C360 1.353 . S
C358 H416 0.929 . S
C359 C356 1.356 . S
C359 C361 1.358 . S
C359 H417 0.930 . S
C360 N357 1.314 . S
C360 C358 1.353 . S
C360 H418 0.930 . S
C361 N357 1.279 . S
C361 C359 1.358 . S
C361 H419 0.930 . S
C362 C365 1.348 . S
C362 C366 1.356 . S
C362 O413 1.325 . S
C363 N364 1.279 . S
C363 C366 1.358 . S
C363 H420 0.930 . S
N364 C363 1.279 . S
N364 C367 1.314 . S
C365 C362 1.348 . S
C365 C367 1.353 . S
C365 H421 0.929 . S
C366 C362 1.356 . S
C366 C363 1.358 . S
C366 H422 0.930 . S
C367 N364 1.314 . S
C367 C365 1.353 . S
C367 H423 0.930 . S
C368 N369 1.314 . S
C368 C373 1.353 . S
C368 H374 0.930 . S
N369 Li352 1.990 . S
N369 C368 1.314 . S
N369 C371 1.279 . S
C370 C371 1.358 . S
C370 C372 1.356 . S
C370 H424 0.930 . S
C371 N369 1.279 . S
C371 C370 1.358 . S
C371 H375 0.930 . S
C372 C370 1.356 . S
C372 C373 1.348 . S
C373 C368 1.353 . S
C373 C372 1.348 . S
C373 H425 0.929 . S
H374 C368 0.930 . S
H375 C371 0.930 . S
C376 N377 1.314 . S
C376 C378 1.353 . S
C376 H382 0.930 . S
N377 Li353 1.990 . S
N377 C376 1.314 . S
N377 C380 1.279 . S
C378 C376 1.353 . S
C378 C381 1.348 . S
C378 H426 0.929 . S
C379 C380 1.358 . S
C379 C381 1.356 . S
C379 H427 0.930 . S
C380 N377 1.279 . S
C380 C379 1.358 . S
C380 H383 0.930 . S
C381 C378 1.348 . S
C381 C379 1.356 . S
H382 C376 0.930 . S
H383 C380 0.930 . S
C384 C386 1.348 . S
C384 C387 1.356 . S
C384 O414 1.325 . S
N385 C388 1.314 . S
N385 C389 1.279 . S
C386 C384 1.348 . S
C386 C388 1.353 . S
C386 H428 0.929 . S
C387 C384 1.356 . S
C387 C389 1.358 . S
C387 H429 0.930 . S
C388 N385 1.314 . S
C388 C386 1.353 . S
C388 H430 0.930 . S
C389 N385 1.279 . S
C389 C387 1.358 . S
C389 H431 0.930 . S
C390 C391 1.348 . S
C390 C392 1.356 . S
C390 O415 1.325 . S
C391 C390 1.348 . S
C391 C393 1.353 . S
C391 H432 0.929 . S
C392 C390 1.356 . S
C392 C394 1.358 . S
C392 H433 0.930 . S
C393 C391 1.353 . S
C393 N395 1.314 . S
C393 H434 0.930 . S
C394 C392 1.358 . S
C394 N395 1.279 . S
C394 H435 0.930 . S
N395 C393 1.314 . S
N395 C394 1.279 . S
C396 C398 1.353 . S
C396 N399 1.314 . S
C396 H402 0.930 . S
C397 N399 1.279 . S
C397 C400 1.358 . S
C397 H403 0.930 . S
C398 C396 1.353 . S
C398 C401 1.348 . S
C398 H436 0.929 . S
N399 Li354 1.990 . S
N399 C396 1.314 . S
N399 C397 1.279 . S
C400 C397 1.358 . S
C400 C401 1.356 . S
C400 H437 0.930 . S
C401 C398 1.348 . S
C401 C400 1.356 . S
H402 C396 0.930 . S
H403 C397 0.930 . S
C404 N405 1.314 . S
C404 C406 1.353 . S
C404 H410 0.930 . S
N405 Li355 1.990 . S
N405 C404 1.314 . S
N405 C408 1.279 . S
C406 C404 1.353 . S
C406 C409 1.348 . S
C406 H438 0.929 . S
C407 C408 1.358 . S
C407 C409 1.356 . S
C407 H439 0.930 . S
C408 N405 1.279 . S
C408 C407 1.358 . S
C408 H411 0.930 . S
C409 C406 1.348 . S
C409 C407 1.356 . S
H410 C404 0.930 . S
H411 C408 0.930 . S
O412 Li352 1.956 . S
O412 Li353 1.970 . S
O412 Li354 1.961 . S
O412 C356 1.325 . S
O413 Li352 1.970 . S
O413 Li353 1.956 . S
O413 Li355 1.961 . S
O413 C362 1.325 . S
O414 Li352 1.961 . S
O414 Li354 1.956 . S
O414 Li355 1.970 . S
O414 C384 1.325 . S
O415 Li353 1.961 . S
O415 Li354 1.970 . S
O415 Li355 1.956 . S
O415 C390 1.325 . S
H416 C358 0.929 . S
H417 C359 0.930 . S
H418 C360 0.930 . S
H419 C361 0.930 . S
H420 C363 0.930 . S
H421 C365 0.929 . S
H422 C366 0.930 . S
H423 C367 0.930 . S
H424 C370 0.930 . S
H425 C373 0.929 . S
H426 C378 0.929 . S
H427 C379 0.930 . S
H428 C386 0.929 . S
H429 C387 0.930 . S
H430 C388 0.930 . S
H431 C389 0.930 . S
H432 C391 0.929 . S
H433 C392 0.930 . S
H434 C393 0.930 . S
H435 C394 0.930 . S
H436 C398 0.929 . S
H437 C400 0.930 . S
H438 C406 0.929 . S
H439 C407 0.930 . S
Li440 N457 1.990 . S
Li440 O500 1.956 . S
Li440 O501 1.970 . S
Li440 O502 1.961 . S
Li441 N465 1.990 . S
Li441 O500 1.970 . S
Li441 O501 1.956 . S
Li441 O503 1.961 . S
Li442 N487 1.990 . S
Li442 O500 1.961 . S
Li442 O502 1.956 . S
Li442 O503 1.970 . S
Li443 N493 1.990 . S
Li443 O501 1.961 . S
Li443 O502 1.970 . S
Li443 O503 1.956 . S
C444 C446 1.348 . S
C444 C447 1.356 . S
C444 O500 1.325 . S
N445 C448 1.314 . S
N445 C449 1.279 . S
C446 C444 1.348 . S
C446 C448 1.353 . S
C446 H504 0.929 . S
C447 C444 1.356 . S
C447 C449 1.358 . S
C447 H505 0.930 . S
C448 N445 1.314 . S
C448 C446 1.353 . S
C448 H506 0.930 . S
C449 N445 1.279 . S
C449 C447 1.358 . S
C449 H507 0.930 . S
C450 C453 1.348 . S
C450 C454 1.356 . S
C450 O501 1.325 . S
C451 N452 1.279 . S
C451 C454 1.358 . S
C451 H508 0.930 . S
N452 C451 1.279 . S
N452 C455 1.314 . S
C453 C450 1.348 . S
C453 C455 1.353 . S
C453 H509 0.929 . S
C454 C450 1.356 . S
C454 C451 1.358 . S
C454 H510 0.930 . S
C455 N452 1.314 . S
C455 C453 1.353 . S
C455 H511 0.930 . S
C456 N457 1.314 . S
C456 C461 1.353 . S
C456 H462 0.930 . S
N457 Li440 1.990 . S
N457 C456 1.314 . S
N457 C459 1.279 . S
C458 C459 1.358 . S
C458 C460 1.356 . S
C458 H512 0.930 . S
C459 N457 1.279 . S
C459 C458 1.358 . S
C459 H463 0.930 . S
C460 C458 1.356 . S
C460 C461 1.348 . S
C461 C456 1.353 . S
C461 C460 1.348 . S
C461 H513 0.929 . S
H462 C456 0.930 . S
H463 C459 0.930 . S
C464 N465 1.314 . S
C464 C466 1.353 . S
C464 H470 0.930 . S
N465 Li441 1.990 . S
N465 C464 1.314 . S
N465 C468 1.279 . S
C466 C464 1.353 . S
C466 C469 1.348 . S
C466 H514 0.929 . S
C467 C468 1.358 . S
C467 C469 1.356 . S
C467 H515 0.930 . S
C468 N465 1.279 . S
C468 C467 1.358 . S
C468 H471 0.930 . S
C469 C466 1.348 . S
C469 C467 1.356 . S
H470 C464 0.930 . S
H471 C468 0.930 . S
C472 C474 1.348 . S
C472 C475 1.356 . S
C472 O502 1.325 . S
N473 C476 1.314 . S
N473 C477 1.279 . S
C474 C472 1.348 . S
C474 C476 1.353 . S
C474 H516 0.929 . S
C475 C472 1.356 . S
C475 C477 1.358 . S
C475 H517 0.930 . S
C476 N473 1.314 . S
C476 C474 1.353 . S
C476 H518 0.930 . S
C477 N473 1.279 . S
C477 C475 1.358 . S
C477 H519 0.930 . S
C478 C479 1.348 . S
C478 C480 1.356 . S
C478 O503 1.325 . S
C479 C478 1.348 . S
C479 C481 1.353 . S
C479 H520 0.929 . S
C480 C478 1.356 . S
C480 C482 1.358 . S
C480 H521 0.930 . S
C481 C479 1.353 . S
C481 N483 1.314 . S
C481 H522 0.930 . S
C482 C480 1.358 . S
C482 N483 1.279 . S
C482 H523 0.930 . S
N483 C481 1.314 . S
N483 C482 1.279 . S
C484 C486 1.353 . S
C484 N487 1.314 . S
C484 H490 0.930 . S
C485 N487 1.279 . S
C485 C488 1.358 . S
C485 H491 0.930 . S
C486 C484 1.353 . S
C486 C489 1.348 . S
C486 H524 0.929 . S
N487 Li442 1.990 . S
N487 C484 1.314 . S
N487 C485 1.279 . S
C488 C485 1.358 . S
C488 C489 1.356 . S
C488 H525 0.930 . S
C489 C486 1.348 . S
C489 C488 1.356 . S
H490 C484 0.930 . S
H491 C485 0.930 . S
C492 N493 1.314 . S
C492 C494 1.353 . S
C492 H498 0.930 . S
N493 Li443 1.990 . S
N493 C492 1.314 . S
N493 C496 1.279 . S
C494 C492 1.353 . S
C494 C497 1.348 . S
C494 H526 0.929 . S
C495 C496 1.358 . S
C495 C497 1.356 . S
C495 H527 0.930 . S
C496 N493 1.279 . S
C496 C495 1.358 . S
C496 H499 0.930 . S
C497 C494 1.348 . S
C497 C495 1.356 . S
H498 C492 0.930 . S
H499 C496 0.930 . S
O500 Li440 1.956 . S
O500 Li441 1.970 . S
O500 Li442 1.961 . S
O500 C444 1.325 . S
O501 Li440 1.970 . S
O501 Li441 1.956 . S
O501 Li443 1.961 . S
O501 C450 1.325 . S
O502 Li440 1.961 . S
O502 Li442 1.956 . S
O502 Li443 1.970 . S
O502 C472 1.325 . S
O503 Li441 1.961 . S
O503 Li442 1.970 . S
O503 Li443 1.956 . S
O503 C478 1.325 . S
H504 C446 0.929 . S
H505 C447 0.930 . S
H506 C448 0.930 . S
H507 C449 0.930 . S
H508 C451 0.930 . S
H509 C453 0.929 . S
H510 C454 0.930 . S
H511 C455 0.930 . S
H512 C458 0.930 . S
H513 C461 0.929 . S
H514 C466 0.929 . S
H515 C467 0.930 . S
H516 C474 0.929 . S
H517 C475 0.930 . S
H518 C476 0.930 . S
H519 C477 0.930 . S
H520 C479 0.929 . S
H521 C480 0.930 . S
H522 C481 0.930 . S
H523 C482 0.930 . S
H524 C486 0.929 . S
H525 C488 0.930 . S
H526 C494 0.929 . S
H527 C495 0.930 . S
Li528 N545 1.990 . S
Li528 O588 1.956 . S
Li528 O589 1.970 . S
Li528 O590 1.961 . S
Li529 N553 1.990 . S
Li529 O588 1.970 . S
Li529 O589 1.956 . S
Li529 O591 1.961 . S
Li530 N575 1.990 . S
Li530 O588 1.961 . S
Li530 O590 1.956 . S
Li530 O591 1.970 . S
Li531 N581 1.990 . S
Li531 O589 1.961 . S
Li531 O590 1.970 . S
Li531 O591 1.956 . S
C532 C534 1.348 . S
C532 C535 1.356 . S
C532 O588 1.325 . S
N533 C536 1.314 . S
N533 C537 1.279 . S
C534 C532 1.348 . S
C534 C536 1.353 . S
C534 H592 0.929 . S
C535 C532 1.356 . S
C535 C537 1.358 . S
C535 H593 0.930 . S
C536 N533 1.314 . S
C536 C534 1.353 . S
C536 H594 0.930 . S
C537 N533 1.279 . S
C537 C535 1.358 . S
C537 H595 0.930 . S
C538 C541 1.348 . S
C538 C542 1.356 . S
C538 O589 1.325 . S
C539 N540 1.279 . S
C539 C542 1.358 . S
C539 H596 0.930 . S
N540 C539 1.279 . S
N540 C543 1.314 . S
C541 C538 1.348 . S
C541 C543 1.353 . S
C541 H597 0.929 . S
C542 C538 1.356 . S
C542 C539 1.358 . S
C542 H598 0.930 . S
C543 N540 1.314 . S
C543 C541 1.353 . S
C543 H599 0.930 . S
C544 N545 1.314 . S
C544 C549 1.353 . S
C544 H550 0.930 . S
N545 Li528 1.990 . S
N545 C544 1.314 . S
N545 C547 1.279 . S
C546 C547 1.358 . S
C546 C548 1.356 . S
C546 H600 0.930 . S
C547 N545 1.279 . S
C547 C546 1.358 . S
C547 H551 0.930 . S
C548 C546 1.356 . S
C548 C549 1.348 . S
C549 C544 1.353 . S
C549 C548 1.348 . S
C549 H601 0.929 . S
H550 C544 0.930 . S
H551 C547 0.930 . S
C552 N553 1.314 . S
C552 C554 1.353 . S
C552 H558 0.930 . S
N553 Li529 1.990 . S
N553 C552 1.314 . S
N553 C556 1.279 . S
C554 C552 1.353 . S
C554 C557 1.348 . S
C554 H602 0.929 . S
C555 C556 1.358 . S
C555 C557 1.356 . S
C555 H603 0.930 . S
C556 N553 1.279 . S
C556 C555 1.358 . S
C556 H559 0.930 . S
C557 C554 1.348 . S
C557 C555 1.356 . S
H558 C552 0.930 . S
H559 C556 0.930 . S
C560 C562 1.348 . S
C560 C563 1.356 . S
C560 O590 1.325 . S
N561 C564 1.314 . S
N561 C565 1.279 . S
C562 C560 1.348 . S
C562 C564 1.353 . S
C562 H604 0.929 . S
C563 C560 1.356 . S
C563 C565 1.358 . S
C563 H605 0.930 . S
C564 N561 1.314 . S
C564 C562 1.353 . S
C564 H606 0.930 . S
C565 N561 1.279 . S
C565 C563 1.358 . S
C565 H607 0.930 . S
C566 C567 1.348 . S
C566 C568 1.356 . S
C566 O591 1.325 . S
C567 C566 1.348 . S
C567 C569 1.353 . S
C567 H608 0.929 . S
C568 C566 1.356 . S
C568 C570 1.358 . S
C568 H609 0.930 . S
C569 C567 1.353 . S
C569 N571 1.314 . S
C569 H610 0.930 . S
C570 C568 1.358 . S
C570 N571 1.279 . S
C570 H611 0.930 . S
N571 C569 1.314 . S
N571 C570 1.279 . S
C572 C574 1.353 . S
C572 N575 1.314 . S
C572 H578 0.930 . S
C573 N575 1.279 . S
C573 C576 1.358 . S
C573 H579 0.930 . S
C574 C572 1.353 . S
C574 C577 1.348 . S
C574 H612 0.929 . S
N575 Li530 1.990 . S
N575 C572 1.314 . S
N575 C573 1.279 . S
C576 C573 1.358 . S
C576 C577 1.356 . S
C576 H613 0.930 . S
C577 C574 1.348 . S
C577 C576 1.356 . S
H578 C572 0.930 . S
H579 C573 0.930 . S
C580 N581 1.314 . S
C580 C582 1.353 . S
C580 H586 0.930 . S
N581 Li531 1.990 . S
N581 C580 1.314 . S
N581 C584 1.279 . S
C582 C580 1.353 . S
C582 C585 1.348 . S
C582 H614 0.929 . S
C583 C584 1.358 . S
C583 C585 1.356 . S
C583 H615 0.930 . S
C584 N581 1.279 . S
C584 C583 1.358 . S
C584 H587 0.930 . S
C585 C582 1.348 . S
C585 C583 1.356 . S
H586 C580 0.930 . S
H587 C584 0.930 . S
O588 Li528 1.956 . S
O588 Li529 1.970 . S
O588 Li530 1.961 . S
O588 C532 1.325 . S
O589 Li528 1.970 . S
O589 Li529 1.956 . S
O589 Li531 1.961 . S
O589 C538 1.325 . S
O590 Li528 1.961 . S
O590 Li530 1.956 . S
O590 Li531 1.970 . S
O590 C560 1.325 . S
O591 Li529 1.961 . S
O591 Li530 1.970 . S
O591 Li531 1.956 . S
O591 C566 1.325 . S
H592 C534 0.929 . S
H593 C535 0.930 . S
H594 C536 0.930 . S
H595 C537 0.930 . S
H596 C539 0.930 . S
H597 C541 0.929 . S
H598 C542 0.930 . S
H599 C543 0.930 . S
H600 C546 0.930 . S
H601 C549 0.929 . S
H602 C554 0.929 . S
H603 C555 0.930 . S
H604 C562 0.929 . S
H605 C563 0.930 . S
H606 C564 0.930 . S
H607 C565 0.930 . S
H608 C567 0.929 . S
H609 C568 0.930 . S
H610 C569 0.930 . S
H611 C570 0.930 . S
H612 C574 0.929 . S
H613 C576 0.930 . S
H614 C582 0.929 . S
H615 C583 0.930 . S
Li616 N633 1.990 . S
Li616 O676 1.956 . S
Li616 O677 1.970 . S
Li616 O678 1.961 . S
Li617 N641 1.990 . S
Li617 O676 1.970 . S
Li617 O677 1.956 . S
Li617 O679 1.961 . S
Li618 N663 1.990 . S
Li618 O676 1.961 . S
Li618 O678 1.956 . S
Li618 O679 1.970 . S
Li619 N669 1.990 . S
Li619 O677 1.961 . S
Li619 O678 1.970 . S
Li619 O679 1.956 . S
C620 C622 1.348 . S
C620 C623 1.356 . S
C620 O676 1.325 . S
N621 C624 1.314 . S
N621 C625 1.279 . S
C622 C620 1.348 . S
C622 C624 1.353 . S
C622 H680 0.929 . S
C623 C620 1.356 . S
C623 C625 1.358 . S
C623 H681 0.930 . S
C624 N621 1.314 . S
C624 C622 1.353 . S
C624 H682 0.930 . S
C625 N621 1.279 . S
C625 C623 1.358 . S
C625 H683 0.930 . S
C626 C629 1.348 . S
C626 C630 1.356 . S
C626 O677 1.325 . S
C627 N628 1.279 . S
C627 C630 1.358 . S
C627 H684 0.930 . S
N628 C627 1.279 . S
N628 C631 1.314 . S
C629 C626 1.348 . S
C629 C631 1.353 . S
C629 H685 0.929 . S
C630 C626 1.356 . S
C630 C627 1.358 . S
C630 H686 0.930 . S
C631 N628 1.314 . S
C631 C629 1.353 . S
C631 H687 0.930 . S
C632 N633 1.314 . S
C632 C637 1.353 . S
C632 H638 0.930 . S
N633 Li616 1.990 . S
N633 C632 1.314 . S
N633 C635 1.279 . S
C634 C635 1.358 . S
C634 C636 1.356 . S
C634 H688 0.930 . S
C635 N633 1.279 . S
C635 C634 1.358 . S
C635 H639 0.930 . S
C636 C634 1.356 . S
C636 C637 1.348 . S
C637 C632 1.353 . S
C637 C636 1.348 . S
C637 H689 0.929 . S
H638 C632 0.930 . S
H639 C635 0.930 . S
C640 N641 1.314 . S
C640 C642 1.353 . S
C640 H646 0.930 . S
N641 Li617 1.990 . S
N641 C640 1.314 . S
N641 C644 1.279 . S
C642 C640 1.353 . S
C642 C645 1.348 . S
C642 H690 0.929 . S
C643 C644 1.358 . S
C643 C645 1.356 . S
C643 H691 0.930 . S
C644 N641 1.279 . S
C644 C643 1.358 . S
C644 H647 0.930 . S
C645 C642 1.348 . S
C645 C643 1.356 . S
H646 C640 0.930 . S
H647 C644 0.930 . S
C648 C650 1.348 . S
C648 C651 1.356 . S
C648 O678 1.325 . S
N649 C652 1.314 . S
N649 C653 1.279 . S
C650 C648 1.348 . S
C650 C652 1.353 . S
C650 H692 0.929 . S
C651 C648 1.356 . S
C651 C653 1.358 . S
C651 H693 0.930 . S
C652 N649 1.314 . S
C652 C650 1.353 . S
C652 H694 0.930 . S
C653 N649 1.279 . S
C653 C651 1.358 . S
C653 H695 0.930 . S
C654 C655 1.348 . S
C654 C656 1.356 . S
C654 O679 1.325 . S
C655 C654 1.348 . S
C655 C657 1.353 . S
C655 H696 0.929 . S
C656 C654 1.356 . S
C656 C658 1.358 . S
C656 H697 0.930 . S
C657 C655 1.353 . S
C657 N659 1.314 . S
C657 H698 0.930 . S
C658 C656 1.358 . S
C658 N659 1.279 . S
C658 H699 0.930 . S
N659 C657 1.314 . S
N659 C658 1.279 . S
C660 C662 1.353 . S
C660 N663 1.314 . S
C660 H666 0.930 . S
C661 N663 1.279 . S
C661 C664 1.358 . S
C661 H667 0.930 . S
C662 C660 1.353 . S
C662 C665 1.348 . S
C662 H700 0.929 . S
N663 Li618 1.990 . S
N663 C660 1.314 . S
N663 C661 1.279 . S
C664 C661 1.358 . S
C664 C665 1.356 . S
C664 H701 0.930 . S
C665 C662 1.348 . S
C665 C664 1.356 . S
H666 C660 0.930 . S
H667 C661 0.930 . S
C668 N669 1.314 . S
C668 C670 1.353 . S
C668 H674 0.930 . S
N669 Li619 1.990 . S
N669 C668 1.314 . S
N669 C672 1.279 . S
C670 C668 1.353 . S
C670 C673 1.348 . S
C670 H702 0.929 . S
C671 C672 1.358 . S
C671 C673 1.356 . S
C671 H703 0.930 . S
C672 N669 1.279 . S
C672 C671 1.358 . S
C672 H675 0.930 . S
C673 C670 1.348 . S
C673 C671 1.356 . S
H674 C668 0.930 . S
H675 C672 0.930 . S
O676 Li616 1.956 . S
O676 Li617 1.970 . S
O676 Li618 1.961 . S
O676 C620 1.325 . S
O677 Li616 1.970 . S
O677 Li617 1.956 . S
O677 Li619 1.961 . S
O677 C626 1.325 . S
O678 Li616 1.961 . S
O678 Li618 1.956 . S
O678 Li619 1.970 . S
O678 C648 1.325 . S
O679 Li617 1.961 . S
O679 Li618 1.970 . S
O679 Li619 1.956 . S
O679 C654 1.325 . S
H680 C622 0.929 . S
H681 C623 0.930 . S
H682 C624 0.930 . S
H683 C625 0.930 . S
H684 C627 0.930 . S
H685 C629 0.929 . S
H686 C630 0.930 . S
H687 C631 0.930 . S
H688 C634 0.930 . S
H689 C637 0.929 . S
H690 C642 0.929 . S
H691 C643 0.930 . S
H692 C650 0.929 . S
H693 C651 0.930 . S
H694 C652 0.930 . S
H695 C653 0.930 . S
H696 C655 0.929 . S
H697 C656 0.930 . S
H698 C657 0.930 . S
H699 C658 0.930 . S
H700 C662 0.929 . S
H701 C664 0.930 . S
H702 C670 0.929 . S
H703 C671 0.930 . S
Li704 N721 1.990 . S
Li704 O764 1.956 . S
Li704 O765 1.970 . S
Li704 O766 1.961 . S
Li705 N729 1.990 . S
Li705 O764 1.970 . S
Li705 O765 1.956 . S
Li705 O767 1.961 . S
Li706 N751 1.990 . S
Li706 O764 1.961 . S
Li706 O766 1.956 . S
Li706 O767 1.970 . S
Li707 N757 1.990 . S
Li707 O765 1.961 . S
Li707 O766 1.970 . S
Li707 O767 1.956 . S
C708 C710 1.348 . S
C708 C711 1.356 . S
C708 O764 1.325 . S
N709 C712 1.314 . S
N709 C713 1.279 . S
C710 C708 1.348 . S
C710 C712 1.353 . S
C710 H768 0.929 . S
C711 C708 1.356 . S
C711 C713 1.358 . S
C711 H769 0.930 . S
C712 N709 1.314 . S
C712 C710 1.353 . S
C712 H770 0.930 . S
C713 N709 1.279 . S
C713 C711 1.358 . S
C713 H771 0.930 . S
C714 C717 1.348 . S
C714 C718 1.356 . S
C714 O765 1.325 . S
C715 N716 1.279 . S
C715 C718 1.358 . S
C715 H772 0.930 . S
N716 C715 1.279 . S
N716 C719 1.314 . S
C717 C714 1.348 . S
C717 C719 1.353 . S
C717 H773 0.929 . S
C718 C714 1.356 . S
C718 C715 1.358 . S
C718 H774 0.930 . S
C719 N716 1.314 . S
C719 C717 1.353 . S
C719 H775 0.930 . S
C720 N721 1.314 . S
C720 C725 1.353 . S
C720 H726 0.930 . S
N721 Li704 1.990 . S
N721 C720 1.314 . S
N721 C723 1.279 . S
C722 C723 1.358 . S
C722 C724 1.356 . S
C722 H776 0.930 . S
C723 N721 1.279 . S
C723 C722 1.358 . S
C723 H727 0.930 . S
C724 C722 1.356 . S
C724 C725 1.348 . S
C725 C720 1.353 . S
C725 C724 1.348 . S
C725 H777 0.929 . S
H726 C720 0.930 . S
H727 C723 0.930 . S
C728 N729 1.314 . S
C728 C730 1.353 . S
C728 H734 0.930 . S
N729 Li705 1.990 . S
N729 C728 1.314 . S
N729 C732 1.279 . S
C730 C728 1.353 . S
C730 C733 1.348 . S
C730 H778 0.929 . S
C731 C732 1.358 . S
C731 C733 1.356 . S
C731 H779 0.930 . S
C732 N729 1.279 . S
C732 C731 1.358 . S
C732 H735 0.930 . S
C733 C730 1.348 . S
C733 C731 1.356 . S
H734 C728 0.930 . S
H735 C732 0.930 . S
C736 C738 1.348 . S
C736 C739 1.356 . S
C736 O766 1.325 . S
N737 C740 1.314 . S
N737 C741 1.279 . S
C738 C736 1.348 . S
C738 C740 1.353 . S
C738 H780 0.929 . S
C739 C736 1.356 . S
C739 C741 1.358 . S
C739 H781 0.930 . S
C740 N737 1.314 . S
C740 C738 1.353 . S
C740 H782 0.930 . S
C741 N737 1.279 . S
C741 C739 1.358 . S
C741 H783 0.930 . S
C742 C743 1.348 . S
C742 C744 1.356 . S
C742 O767 1.325 . S
C743 C742 1.348 . S
C743 C745 1.353 . S
C743 H784 0.929 . S
C744 C742 1.356 . S
C744 C746 1.358 . S
C744 H785 0.930 . S
C745 C743 1.353 . S
C745 N747 1.314 . S
C745 H786 0.930 . S
C746 C744 1.358 . S
C746 N747 1.279 . S
C746 H787 0.930 . S
N747 C745 1.314 . S
N747 C746 1.279 . S
C748 C750 1.353 . S
C748 N751 1.314 . S
C748 H754 0.930 . S
C749 N751 1.279 . S
C749 C752 1.358 . S
C749 H755 0.930 . S
C750 C748 1.353 . S
C750 C753 1.348 . S
C750 H788 0.929 . S
N751 Li706 1.990 . S
N751 C748 1.314 . S
N751 C749 1.279 . S
C752 C749 1.358 . S
C752 C753 1.356 . S
C752 H789 0.930 . S
C753 C750 1.348 . S
C753 C752 1.356 . S
H754 C748 0.930 . S
H755 C749 0.930 . S
C756 N757 1.314 . S
C756 C758 1.353 . S
C756 H762 0.930 . S
N757 Li707 1.990 . S
N757 C756 1.314 . S
N757 C760 1.279 . S
C758 C756 1.353 . S
C758 C761 1.348 . S
C758 H790 0.929 . S
C759 C760 1.358 . S
C759 C761 1.356 . S
C759 H791 0.930 . S
C760 N757 1.279 . S
C760 C759 1.358 . S
C760 H763 0.930 . S
C761 C758 1.348 . S
C761 C759 1.356 . S
H762 C756 0.930 . S
H763 C760 0.930 . S
O764 Li704 1.956 . S
O764 Li705 1.970 . S
O764 Li706 1.961 . S
O764 C708 1.325 . S
O765 Li704 1.970 . S
O765 Li705 1.956 . S
O765 Li707 1.961 . S
O765 C714 1.325 . S
O766 Li704 1.961 . S
O766 Li706 1.956 . S
O766 Li707 1.970 . S
O766 C736 1.325 . S
O767 Li705 1.961 . S
O767 Li706 1.970 . S
O767 Li707 1.956 . S
O767 C742 1.325 . S
H768 C710 0.929 . S
H769 C711 0.930 . S
H770 C712 0.930 . S
H771 C713 0.930 . S
H772 C715 0.930 . S
H773 C717 0.929 . S
H774 C718 0.930 . S
H775 C719 0.930 . S
H776 C722 0.930 . S
H777 C725 0.929 . S
H778 C730 0.929 . S
H779 C731 0.930 . S
H780 C738 0.929 . S
H781 C739 0.930 . S
H782 C740 0.930 . S
H783 C741 0.930 . S
H784 C743 0.929 . S
H785 C744 0.930 . S
H786 C745 0.930 . S
H787 C746 0.930 . S
H788 C750 0.929 . S
H789 C752 0.930 . S
H790 C758 0.929 . S
H791 C759 0.930 . S
Li792 N809 1.990 . S
Li792 O852 1.956 . S
Li792 O853 1.970 . S
Li792 O854 1.961 . S
Li793 N817 1.990 . S
Li793 O852 1.970 . S
Li793 O853 1.956 . S
Li793 O855 1.961 . S
Li794 N839 1.990 . S
Li794 O852 1.961 . S
Li794 O854 1.956 . S
Li794 O855 1.970 . S
Li795 N845 1.990 . S
Li795 O853 1.961 . S
Li795 O854 1.970 . S
Li795 O855 1.956 . S
C796 C798 1.348 . S
C796 C799 1.356 . S
C796 O852 1.325 . S
N797 C800 1.314 . S
N797 C801 1.279 . S
C798 C796 1.348 . S
C798 C800 1.353 . S
C798 H856 0.929 . S
C799 C796 1.356 . S
C799 C801 1.358 . S
C799 H857 0.930 . S
C800 N797 1.314 . S
C800 C798 1.353 . S
C800 H858 0.930 . S
C801 N797 1.279 . S
C801 C799 1.358 . S
C801 H859 0.930 . S
C802 C805 1.348 . S
C802 C806 1.356 . S
C802 O853 1.325 . S
C803 N804 1.279 . S
C803 C806 1.358 . S
C803 H860 0.930 . S
N804 C803 1.279 . S
N804 C807 1.314 . S
C805 C802 1.348 . S
C805 C807 1.353 . S
C805 H861 0.929 . S
C806 C802 1.356 . S
C806 C803 1.358 . S
C806 H862 0.930 . S
C807 N804 1.314 . S
C807 C805 1.353 . S
C807 H863 0.930 . S
C808 N809 1.314 . S
C808 C813 1.353 . S
C808 H814 0.930 . S
N809 Li792 1.990 . S
N809 C808 1.314 . S
N809 C811 1.279 . S
C810 C811 1.358 . S
C810 C812 1.356 . S
C810 H864 0.930 . S
C811 N809 1.279 . S
C811 C810 1.358 . S
C811 H815 0.930 . S
C812 C810 1.356 . S
C812 C813 1.348 . S
C813 C808 1.353 . S
C813 C812 1.348 . S
C813 H865 0.929 . S
H814 C808 0.930 . S
H815 C811 0.930 . S
C816 N817 1.314 . S
C816 C818 1.353 . S
C816 H822 0.930 . S
N817 Li793 1.990 . S
N817 C816 1.314 . S
N817 C820 1.279 . S
C818 C816 1.353 . S
C818 C821 1.348 . S
C818 H866 0.929 . S
C819 C820 1.358 . S
C819 C821 1.356 . S
C819 H867 0.930 . S
C820 N817 1.279 . S
C820 C819 1.358 . S
C820 H823 0.930 . S
C821 C818 1.348 . S
C821 C819 1.356 . S
H822 C816 0.930 . S
H823 C820 0.930 . S
C824 C826 1.348 . S
C824 C827 1.356 . S
C824 O854 1.325 . S
N825 C828 1.314 . S
N825 C829 1.279 . S
C826 C824 1.348 . S
C826 C828 1.353 . S
C826 H868 0.929 . S
C827 C824 1.356 . S
C827 C829 1.358 . S
C827 H869 0.930 . S
C828 N825 1.314 . S
C828 C826 1.353 . S
C828 H870 0.930 . S
C829 N825 1.279 . S
C829 C827 1.358 . S
C829 H871 0.930 . S
C830 C831 1.348 . S
C830 C832 1.356 . S
C830 O855 1.325 . S
C831 C830 1.348 . S
C831 C833 1.353 . S
C831 H872 0.929 . S
C832 C830 1.356 . S
C832 C834 1.358 . S
C832 H873 0.930 . S
C833 C831 1.353 . S
C833 N835 1.314 . S
C833 H874 0.930 . S
C834 C832 1.358 . S
C834 N835 1.279 . S
C834 H875 0.930 . S
N835 C833 1.314 . S
N835 C834 1.279 . S
C836 C838 1.353 . S
C836 N839 1.314 . S
C836 H842 0.930 . S
C837 N839 1.279 . S
C837 C840 1.358 . S
C837 H843 0.930 . S
C838 C836 1.353 . S
C838 C841 1.348 . S
C838 H876 0.929 . S
N839 Li794 1.990 . S
N839 C836 1.314 . S
N839 C837 1.279 . S
C840 C837 1.358 . S
C840 C841 1.356 . S
C840 H877 0.930 . S
C841 C838 1.348 . S
C841 C840 1.356 . S
H842 C836 0.930 . S
H843 C837 0.930 . S
C844 N845 1.314 . S
C844 C846 1.353 . S
C844 H850 0.930 . S
N845 Li795 1.990 . S
N845 C844 1.314 . S
N845 C848 1.279 . S
C846 C844 1.353 . S
C846 C849 1.348 . S
C846 H878 0.929 . S
C847 C848 1.358 . S
C847 C849 1.356 . S
C847 H879 0.930 . S
C848 N845 1.279 . S
C848 C847 1.358 . S
C848 H851 0.930 . S
C849 C846 1.348 . S
C849 C847 1.356 . S
H850 C844 0.930 . S
H851 C848 0.930 . S
O852 Li792 1.956 . S
O852 Li793 1.970 . S
O852 Li794 1.961 . S
O852 C796 1.325 . S
O853 Li792 1.970 . S
O853 Li793 1.956 . S
O853 Li795 1.961 . S
O853 C802 1.325 . S
O854 Li792 1.961 . S
O854 Li794 1.956 . S
O854 Li795 1.970 . S
O854 C824 1.325 . S
O855 Li793 1.961 . S
O855 Li794 1.970 . S
O855 Li795 1.956 . S
O855 C830 1.325 . S
H856 C798 0.929 . S
H857 C799 0.930 . S
H858 C800 0.930 . S
H859 C801 0.930 . S
H860 C803 0.930 . S
H861 C805 0.929 . S
H862 C806 0.930 . S
H863 C807 0.930 . S
H864 C810 0.930 . S
H865 C813 0.929 . S
H866 C818 0.929 . S
H867 C819 0.930 . S
H868 C826 0.929 . S
H869 C827 0.930 . S
H870 C828 0.930 . S
H871 C829 0.930 . S
H872 C831 0.929 . S
H873 C832 0.930 . S
H874 C833 0.930 . S
H875 C834 0.930 . S
H876 C838 0.929 . S
H877 C840 0.930 . S
H878 C846 0.929 . S
H879 C847 0.930 . S
Li880 N897 1.990 . S
Li880 O940 1.956 . S
Li880 O941 1.970 . S
Li880 O942 1.961 . S
Li881 N905 1.990 . S
Li881 O940 1.970 . S
Li881 O941 1.956 . S
Li881 O943 1.961 . S
Li882 N927 1.990 . S
Li882 O940 1.961 . S
Li882 O942 1.956 . S
Li882 O943 1.970 . S
Li883 N933 1.990 . S
Li883 O941 1.961 . S
Li883 O942 1.970 . S
Li883 O943 1.956 . S
C884 C886 1.348 . S
C884 C887 1.356 . S
C884 O940 1.325 . S
N885 C888 1.314 . S
N885 C889 1.279 . S
C886 C884 1.348 . S
C886 C888 1.353 . S
C886 H944 0.929 . S
C887 C884 1.356 . S
C887 C889 1.358 . S
C887 H945 0.930 . S
C888 N885 1.314 . S
C888 C886 1.353 . S
C888 H946 0.930 . S
C889 N885 1.279 . S
C889 C887 1.358 . S
C889 H947 0.930 . S
C890 C893 1.348 . S
C890 C894 1.356 . S
C890 O941 1.325 . S
C891 N892 1.279 . S
C891 C894 1.358 . S
C891 H948 0.930 . S
N892 C891 1.279 . S
N892 C895 1.314 . S
C893 C890 1.348 . S
C893 C895 1.353 . S
C893 H949 0.929 . S
C894 C890 1.356 . S
C894 C891 1.358 . S
C894 H950 0.930 . S
C895 N892 1.314 . S
C895 C893 1.353 . S
C895 H951 0.930 . S
C896 N897 1.314 . S
C896 C901 1.353 . S
C896 H902 0.930 . S
N897 Li880 1.990 . S
N897 C896 1.314 . S
N897 C899 1.279 . S
C898 C899 1.358 . S
C898 C900 1.356 . S
C898 H952 0.930 . S
C899 N897 1.279 . S
C899 C898 1.358 . S
C899 H903 0.930 . S
C900 C898 1.356 . S
C900 C901 1.348 . S
C901 C896 1.353 . S
C901 C900 1.348 . S
C901 H953 0.929 . S
H902 C896 0.930 . S
H903 C899 0.930 . S
C904 N905 1.314 . S
C904 C906 1.353 . S
C904 H910 0.930 . S
N905 Li881 1.990 . S
N905 C904 1.314 . S
N905 C908 1.279 . S
C906 C904 1.353 . S
C906 C909 1.348 . S
C906 H954 0.929 . S
C907 C908 1.358 . S
C907 C909 1.356 . S
C907 H955 0.930 . S
C908 N905 1.279 . S
C908 C907 1.358 . S
C908 H911 0.930 . S
C909 C906 1.348 . S
C909 C907 1.356 . S
H910 C904 0.930 . S
H911 C908 0.930 . S
C912 C914 1.348 . S
C912 C915 1.356 . S
C912 O942 1.325 . S
N913 C916 1.314 . S
N913 C917 1.279 . S
C914 C912 1.348 . S
C914 C916 1.353 . S
C914 H956 0.929 . S
C915 C912 1.356 . S
C915 C917 1.358 . S
C915 H957 0.930 . S
C916 N913 1.314 . S
C916 C914 1.353 . S
C916 H958 0.930 . S
C917 N913 1.279 . S
C917 C915 1.358 . S
C917 H959 0.930 . S
C918 C919 1.348 . S
C918 C920 1.356 . S
C918 O943 1.325 . S
C919 C918 1.348 . S
C919 C921 1.353 . S
C919 H960 0.929 . S
C920 C918 1.356 . S
C920 C922 1.358 . S
C920 H961 0.930 . S
C921 C919 1.353 . S
C921 N923 1.314 . S
C921 H962 0.930 . S
C922 C920 1.358 . S
C922 N923 1.279 . S
C922 H963 0.930 . S
N923 C921 1.314 . S
N923 C922 1.279 . S
C924 C926 1.353 . S
C924 N927 1.314 . S
C924 H930 0.930 . S
C925 N927 1.279 . S
C925 C928 1.358 . S
C925 H931 0.930 . S
C926 C924 1.353 . S
C926 C929 1.348 . S
C926 H964 0.929 . S
N927 Li882 1.990 . S
N927 C924 1.314 . S
N927 C925 1.279 . S
C928 C925 1.358 . S
C928 C929 1.356 . S
C928 H965 0.930 . S
C929 C926 1.348 . S
C929 C928 1.356 . S
H930 C924 0.930 . S
H931 C925 0.930 . S
C932 N933 1.314 . S
C932 C934 1.353 . S
C932 H938 0.930 . S
N933 Li883 1.990 . S
N933 C932 1.314 . S
N933 C936 1.279 . S
C934 C932 1.353 . S
C934 C937 1.348 . S
C934 H966 0.929 . S
C935 C936 1.358 . S
C935 C937 1.356 . S
C935 H967 0.930 . S
C936 N933 1.279 . S
C936 C935 1.358 . S
C936 H939 0.930 . S
C937 C934 1.348 . S
C937 C935 1.356 . S
H938 C932 0.930 . S
H939 C936 0.930 . S
O940 Li880 1.956 . S
O940 Li881 1.970 . S
O940 Li882 1.961 . S
O940 C884 1.325 . S
O941 Li880 1.970 . S
O941 Li881 1.956 . S
O941 Li883 1.961 . S
O941 C890 1.325 . S
O942 Li880 1.961 . S
O942 Li882 1.956 . S
O942 Li883 1.970 . S
O942 C912 1.325 . S
O943 Li881 1.961 . S
O943 Li882 1.970 . S
O943 Li883 1.956 . S
O943 C918 1.325 . S
H944 C886 0.929 . S
H945 C887 0.930 . S
H946 C888 0.930 . S
H947 C889 0.930 . S
H948 C891 0.930 . S
H949 C893 0.929 . S
H950 C894 0.930 . S
H951 C895 0.930 . S
H952 C898 0.930 . S
H953 C901 0.929 . S
H954 C906 0.929 . S
H955 C907 0.930 . S
H956 C914 0.929 . S
H957 C915 0.930 . S
H958 C916 0.930 . S
H959 C917 0.930 . S
H960 C919 0.929 . S
H961 C920 0.930 . S
H962 C921 0.930 . S
H963 C922 0.930 . S
H964 C926 0.929 . S
H965 C928 0.930 . S
H966 C934 0.929 . S
H967 C935 0.930 . S
Li968 N985 1.990 . S
Li968 O1028 1.956 . S
Li968 O1029 1.970 . S
Li968 O1030 1.961 . S
Li969 N993 1.990 . S
Li969 O1028 1.970 . S
Li969 O1029 1.956 . S
Li969 O1031 1.961 . S
Li970 N1015 1.990 . S
Li970 O1028 1.961 . S
Li970 O1030 1.956 . S
Li970 O1031 1.970 . S
Li971 N1021 1.990 . S
Li971 O1029 1.961 . S
Li971 O1030 1.970 . S
Li971 O1031 1.956 . S
C972 C974 1.348 . S
C972 C975 1.356 . S
C972 O1028 1.325 . S
N973 C976 1.314 . S
N973 C977 1.279 . S
C974 C972 1.348 . S
C974 C976 1.353 . S
C974 H1032 0.929 . S
C975 C972 1.356 . S
C975 C977 1.358 . S
C975 H1033 0.930 . S
C976 N973 1.314 . S
C976 C974 1.353 . S
C976 H1034 0.930 . S
C977 N973 1.279 . S
C977 C975 1.358 . S
C977 H1035 0.930 . S
C978 C981 1.348 . S
C978 C982 1.356 . S
C978 O1029 1.325 . S
C979 N980 1.279 . S
C979 C982 1.358 . S
C979 H1036 0.930 . S
N980 C979 1.279 . S
N980 C983 1.314 . S
C981 C978 1.348 . S
C981 C983 1.353 . S
C981 H1037 0.929 . S
C982 C978 1.356 . S
C982 C979 1.358 . S
C982 H1038 0.930 . S
C983 N980 1.314 . S
C983 C981 1.353 . S
C983 H1039 0.930 . S
C984 N985 1.314 . S
C984 C989 1.353 . S
C984 H990 0.930 . S
N985 Li968 1.990 . S
N985 C984 1.314 . S
N985 C987 1.279 . S
C986 C987 1.358 . S
C986 C988 1.356 . S
C986 H1040 0.930 . S
C987 N985 1.279 . S
C987 C986 1.358 . S
C987 H991 0.930 . S
C988 C986 1.356 . S
C988 C989 1.348 . S
C989 C984 1.353 . S
C989 C988 1.348 . S
C989 H1041 0.929 . S
H990 C984 0.930 . S
H991 C987 0.930 . S
C992 N993 1.314 . S
C992 C994 1.353 . S
C992 H998 0.930 . S
N993 Li969 1.990 . S
N993 C992 1.314 . S
N993 C996 1.279 . S
C994 C992 1.353 . S
C994 C997 1.348 . S
C994 H1042 0.929 . S
C995 C996 1.358 . S
C995 C997 1.356 . S
C995 H1043 0.930 . S
C996 N993 1.279 . S
C996 C995 1.358 . S
C996 H999 0.930 . S
C997 C994 1.348 . S
C997 C995 1.356 . S
H998 C992 0.930 . S
H999 C996 0.930 . S
C1000 C1002 1.348 . S
C1000 C1003 1.356 . S
C1000 O1030 1.325 . S
N1001 C1004 1.314 . S
N1001 C1005 1.279 . S
C1002 C1000 1.348 . S
C1002 C1004 1.353 . S
C1002 H1044 0.929 . S
C1003 C1000 1.356 . S
C1003 C1005 1.358 . S
C1003 H1045 0.930 . S
C1004 N1001 1.314 . S
C1004 C1002 1.353 . S
C1004 H1046 0.930 . S
C1005 N1001 1.279 . S
C1005 C1003 1.358 . S
C1005 H1047 0.930 . S
C1006 C1007 1.348 . S
C1006 C1008 1.356 . S
C1006 O1031 1.325 . S
C1007 C1006 1.348 . S
C1007 C1009 1.353 . S
C1007 H1048 0.929 . S
C1008 C1006 1.356 . S
C1008 C1010 1.358 . S
C1008 H1049 0.930 . S
C1009 C1007 1.353 . S
C1009 N1011 1.314 . S
C1009 H1050 0.930 . S
C1010 C1008 1.358 . S
C1010 N1011 1.279 . S
C1010 H1051 0.930 . S
N1011 C1009 1.314 . S
N1011 C1010 1.279 . S
C1012 C1014 1.353 . S
C1012 N1015 1.314 . S
C1012 H1018 0.930 . S
C1013 N1015 1.279 . S
C1013 C1016 1.358 . S
C1013 H1019 0.930 . S
C1014 C1012 1.353 . S
C1014 C1017 1.348 . S
C1014 H1052 0.929 . S
N1015 Li970 1.990 . S
N1015 C1012 1.314 . S
N1015 C1013 1.279 . S
C1016 C1013 1.358 . S
C1016 C1017 1.356 . S
C1016 H1053 0.930 . S
C1017 C1014 1.348 . S
C1017 C1016 1.356 . S
H1018 C1012 0.930 . S
H1019 C1013 0.930 . S
C1020 N1021 1.314 . S
C1020 C1022 1.353 . S
C1020 H1026 0.930 . S
N1021 Li971 1.990 . S
N1021 C1020 1.314 . S
N1021 C1024 1.279 . S
C1022 C1020 1.353 . S
C1022 C1025 1.348 . S
C1022 H1054 0.929 . S
C1023 C1024 1.358 . S
C1023 C1025 1.356 . S
C1023 H1055 0.930 . S
C1024 N1021 1.279 . S
C1024 C1023 1.358 . S
C1024 H1027 0.930 . S
C1025 C1022 1.348 . S
C1025 C1023 1.356 . S
H1026 C1020 0.930 . S
H1027 C1024 0.930 . S
O1028 Li968 1.956 . S
O1028 Li969 1.970 . S
O1028 Li970 1.961 . S
O1028 C972 1.325 . S
O1029 Li968 1.970 . S
O1029 Li969 1.956 . S
O1029 Li971 1.961 . S
O1029 C978 1.325 . S
O1030 Li968 1.961 . S
O1030 Li970 1.956 . S
O1030 Li971 1.970 . S
O1030 C1000 1.325 . S
O1031 Li969 1.961 . S
O1031 Li970 1.970 . S
O1031 Li971 1.956 . S
O1031 C1006 1.325 . S
H1032 C974 0.929 . S
H1033 C975 0.930 . S
H1034 C976 0.930 . S
H1035 C977 0.930 . S
H1036 C979 0.930 . S
H1037 C981 0.929 . S
H1038 C982 0.930 . S
H1039 C983 0.930 . S
H1040 C986 0.930 . S
H1041 C989 0.929 . S
H1042 C994 0.929 . S
H1043 C995 0.930 . S
H1044 C1002 0.929 . S
H1045 C1003 0.930 . S
H1046 C1004 0.930 . S
H1047 C1005 0.930 . S
H1048 C1007 0.929 . S
H1049 C1008 0.930 . S
H1050 C1009 0.930 . S
H1051 C1010 0.930 . S
H1052 C1014 0.929 . S
H1053 C1016 0.930 . S
H1054 C1022 0.929 . S
H1055 C1023 0.930 . S
Li1056 N1073 1.990 . S
Li1056 O1116 1.956 . S
Li1056 O1117 1.970 . S
Li1056 O1118 1.961 . S
Li1057 N1081 1.990 . S
Li1057 O1116 1.970 . S
Li1057 O1117 1.956 . S
Li1057 O1119 1.961 . S
Li1058 N1103 1.990 . S
Li1058 O1116 1.961 . S
Li1058 O1118 1.956 . S
Li1058 O1119 1.970 . S
Li1059 N1109 1.990 . S
Li1059 O1117 1.961 . S
Li1059 O1118 1.970 . S
Li1059 O1119 1.956 . S
C1060 C1062 1.348 . S
C1060 C1063 1.356 . S
C1060 O1116 1.325 . S
N1061 C1064 1.314 . S
N1061 C1065 1.279 . S
C1062 C1060 1.348 . S
C1062 C1064 1.353 . S
C1062 H1120 0.929 . S
C1063 C1060 1.356 . S
C1063 C1065 1.358 . S
C1063 H1121 0.930 . S
C1064 N1061 1.314 . S
C1064 C1062 1.353 . S
C1064 H1122 0.930 . S
C1065 N1061 1.279 . S
C1065 C1063 1.358 . S
C1065 H1123 0.930 . S
C1066 C1069 1.348 . S
C1066 C1070 1.356 . S
C1066 O1117 1.325 . S
C1067 N1068 1.279 . S
C1067 C1070 1.358 . S
C1067 H1124 0.930 . S
N1068 C1067 1.279 . S
N1068 C1071 1.314 . S
C1069 C1066 1.348 . S
C1069 C1071 1.353 . S
C1069 H1125 0.929 . S
C1070 C1066 1.356 . S
C1070 C1067 1.358 . S
C1070 H1126 0.930 . S
C1071 N1068 1.314 . S
C1071 C1069 1.353 . S
C1071 H1127 0.930 . S
C1072 N1073 1.314 . S
C1072 C1077 1.353 . S
C1072 H1078 0.930 . S
N1073 Li1056 1.990 . S
N1073 C1072 1.314 . S
N1073 C1075 1.279 . S
C1074 C1075 1.358 . S
C1074 C1076 1.356 . S
C1074 H1128 0.930 . S
C1075 N1073 1.279 . S
C1075 C1074 1.358 . S
C1075 H1079 0.930 . S
C1076 C1074 1.356 . S
C1076 C1077 1.348 . S
C1077 C1072 1.353 . S
C1077 C1076 1.348 . S
C1077 H1129 0.929 . S
H1078 C1072 0.930 . S
H1079 C1075 0.930 . S
C1080 N1081 1.314 . S
C1080 C1082 1.353 . S
C1080 H1086 0.930 . S
N1081 Li1057 1.990 . S
N1081 C1080 1.314 . S
N1081 C1084 1.279 . S
C1082 C1080 1.353 . S
C1082 C1085 1.348 . S
C1082 H1130 0.929 . S
C1083 C1084 1.358 . S
C1083 C1085 1.356 . S
C1083 H1131 0.930 . S
C1084 N1081 1.279 . S
C1084 C1083 1.358 . S
C1084 H1087 0.930 . S
C1085 C1082 1.348 . S
C1085 C1083 1.356 . S
H1086 C1080 0.930 . S
H1087 C1084 0.930 . S
C1088 C1090 1.348 . S
C1088 C1091 1.356 . S
C1088 O1118 1.325 . S
N1089 C1092 1.314 . S
N1089 C1093 1.279 . S
C1090 C1088 1.348 . S
C1090 C1092 1.353 . S
C1090 H1132 0.929 . S
C1091 C1088 1.356 . S
C1091 C1093 1.358 . S
C1091 H1133 0.930 . S
C1092 N1089 1.314 . S
C1092 C1090 1.353 . S
C1092 H1134 0.930 . S
C1093 N1089 1.279 . S
C1093 C1091 1.358 . S
C1093 H1135 0.930 . S
C1094 C1095 1.348 . S
C1094 C1096 1.356 . S
C1094 O1119 1.325 . S
C1095 C1094 1.348 . S
C1095 C1097 1.353 . S
C1095 H1136 0.929 . S
C1096 C1094 1.356 . S
C1096 C1098 1.358 . S
C1096 H1137 0.930 . S
C1097 C1095 1.353 . S
C1097 N1099 1.314 . S
C1097 H1138 0.930 . S
C1098 C1096 1.358 . S
C1098 N1099 1.279 . S
C1098 H1139 0.930 . S
N1099 C1097 1.314 . S
N1099 C1098 1.279 . S
C1100 C1102 1.353 . S
C1100 N1103 1.314 . S
C1100 H1106 0.930 . S
C1101 N1103 1.279 . S
C1101 C1104 1.358 . S
C1101 H1107 0.930 . S
C1102 C1100 1.353 . S
C1102 C1105 1.348 . S
C1102 H1140 0.929 . S
N1103 Li1058 1.990 . S
N1103 C1100 1.314 . S
N1103 C1101 1.279 . S
C1104 C1101 1.358 . S
C1104 C1105 1.356 . S
C1104 H1141 0.930 . S
C1105 C1102 1.348 . S
C1105 C1104 1.356 . S
H1106 C1100 0.930 . S
H1107 C1101 0.930 . S
C1108 N1109 1.314 . S
C1108 C1110 1.353 . S
C1108 H1114 0.930 . S
N1109 Li1059 1.990 . S
N1109 C1108 1.314 . S
N1109 C1112 1.279 . S
C1110 C1108 1.353 . S
C1110 C1113 1.348 . S
C1110 H1142 0.929 . S
C1111 C1112 1.358 . S
C1111 C1113 1.356 . S
C1111 H1143 0.930 . S
C1112 N1109 1.279 . S
C1112 C1111 1.358 . S
C1112 H1115 0.930 . S
C1113 C1110 1.348 . S
C1113 C1111 1.356 . S
H1114 C1108 0.930 . S
H1115 C1112 0.930 . S
O1116 Li1056 1.956 . S
O1116 Li1057 1.970 . S
O1116 Li1058 1.961 . S
O1116 C1060 1.325 . S
O1117 Li1056 1.970 . S
O1117 Li1057 1.956 . S
O1117 Li1059 1.961 . S
O1117 C1066 1.325 . S
O1118 Li1056 1.961 . S
O1118 Li1058 1.956 . S
O1118 Li1059 1.970 . S
O1118 C1088 1.325 . S
O1119 Li1057 1.961 . S
O1119 Li1058 1.970 . S
O1119 Li1059 1.956 . S
O1119 C1094 1.325 . S
H1120 C1062 0.929 . S
H1121 C1063 0.930 . S
H1122 C1064 0.930 . S
H1123 C1065 0.930 . S
H1124 C1067 0.930 . S
H1125 C1069 0.929 . S
H1126 C1070 0.930 . S
H1127 C1071 0.930 . S
H1128 C1074 0.930 . S
H1129 C1077 0.929 . S
H1130 C1082 0.929 . S
H1131 C1083 0.930 . S
H1132 C1090 0.929 . S
H1133 C1091 0.930 . S
H1134 C1092 0.930 . S
H1135 C1093 0.930 . S
H1136 C1095 0.929 . S
H1137 C1096 0.930 . S
H1138 C1097 0.930 . S
H1139 C1098 0.930 . S
H1140 C1102 0.929 . S
H1141 C1104 0.930 . S
H1142 C1110 0.929 . S
H1143 C1111 0.930 . S
Li1144 N1161 1.990 . S
Li1144 O1204 1.956 . S
Li1144 O1205 1.970 . S
Li1144 O1206 1.961 . S
Li1145 N1169 1.990 . S
Li1145 O1204 1.970 . S
Li1145 O1205 1.956 . S
Li1145 O1207 1.961 . S
Li1146 N1191 1.990 . S
Li1146 O1204 1.961 . S
Li1146 O1206 1.956 . S
Li1146 O1207 1.970 . S
Li1147 N1197 1.990 . S
Li1147 O1205 1.961 . S
Li1147 O1206 1.970 . S
Li1147 O1207 1.956 . S
C1148 C1150 1.348 . S
C1148 C1151 1.356 . S
C1148 O1204 1.325 . S
N1149 C1152 1.314 . S
N1149 C1153 1.279 . S
C1150 C1148 1.348 . S
C1150 C1152 1.353 . S
C1150 H1208 0.929 . S
C1151 C1148 1.356 . S
C1151 C1153 1.358 . S
C1151 H1209 0.930 . S
C1152 N1149 1.314 . S
C1152 C1150 1.353 . S
C1152 H1210 0.930 . S
C1153 N1149 1.279 . S
C1153 C1151 1.358 . S
C1153 H1211 0.930 . S
C1154 C1157 1.348 . S
C1154 C1158 1.356 . S
C1154 O1205 1.325 . S
C1155 N1156 1.279 . S
C1155 C1158 1.358 . S
C1155 H1212 0.930 . S
N1156 C1155 1.279 . S
N1156 C1159 1.314 . S
C1157 C1154 1.348 . S
C1157 C1159 1.353 . S
C1157 H1213 0.929 . S
C1158 C1154 1.356 . S
C1158 C1155 1.358 . S
C1158 H1214 0.930 . S
C1159 N1156 1.314 . S
C1159 C1157 1.353 . S
C1159 H1215 0.930 . S
C1160 N1161 1.314 . S
C1160 C1165 1.353 . S
C1160 H1166 0.930 . S
N1161 Li1144 1.990 . S
N1161 C1160 1.314 . S
N1161 C1163 1.279 . S
C1162 C1163 1.358 . S
C1162 C1164 1.356 . S
C1162 H1216 0.930 . S
C1163 N1161 1.279 . S
C1163 C1162 1.358 . S
C1163 H1167 0.930 . S
C1164 C1162 1.356 . S
C1164 C1165 1.348 . S
C1165 C1160 1.353 . S
C1165 C1164 1.348 . S
C1165 H1217 0.929 . S
H1166 C1160 0.930 . S
H1167 C1163 0.930 . S
C1168 N1169 1.314 . S
C1168 C1170 1.353 . S
C1168 H1174 0.930 . S
N1169 Li1145 1.990 . S
N1169 C1168 1.314 . S
N1169 C1172 1.279 . S
C1170 C1168 1.353 . S
C1170 C1173 1.348 . S
C1170 H1218 0.929 . S
C1171 C1172 1.358 . S
C1171 C1173 1.356 . S
C1171 H1219 0.930 . S
C1172 N1169 1.279 . S
C1172 C1171 1.358 . S
C1172 H1175 0.930 . S
C1173 C1170 1.348 . S
C1173 C1171 1.356 . S
H1174 C1168 0.930 . S
H1175 C1172 0.930 . S
C1176 C1178 1.348 . S
C1176 C1179 1.356 . S
C1176 O1206 1.325 . S
N1177 C1180 1.314 . S
N1177 C1181 1.279 . S
C1178 C1176 1.348 . S
C1178 C1180 1.353 . S
C1178 H1220 0.929 . S
C1179 C1176 1.356 . S
C1179 C1181 1.358 . S
C1179 H1221 0.930 . S
C1180 N1177 1.314 . S
C1180 C1178 1.353 . S
C1180 H1222 0.930 . S
C1181 N1177 1.279 . S
C1181 C1179 1.358 . S
C1181 H1223 0.930 . S
C1182 C1183 1.348 . S
C1182 C1184 1.356 . S
C1182 O1207 1.325 . S
C1183 C1182 1.348 . S
C1183 C1185 1.353 . S
C1183 H1224 0.929 . S
C1184 C1182 1.356 . S
C1184 C1186 1.358 . S
C1184 H1225 0.930 . S
C1185 C1183 1.353 . S
C1185 N1187 1.314 . S
C1185 H1226 0.930 . S
C1186 C1184 1.358 . S
C1186 N1187 1.279 . S
C1186 H1227 0.930 . S
N1187 C1185 1.314 . S
N1187 C1186 1.279 . S
C1188 C1190 1.353 . S
C1188 N1191 1.314 . S
C1188 H1194 0.930 . S
C1189 N1191 1.279 . S
C1189 C1192 1.358 . S
C1189 H1195 0.930 . S
C1190 C1188 1.353 . S
C1190 C1193 1.348 . S
C1190 H1228 0.929 . S
N1191 Li1146 1.990 . S
N1191 C1188 1.314 . S
N1191 C1189 1.279 . S
C1192 C1189 1.358 . S
C1192 C1193 1.356 . S
C1192 H1229 0.930 . S
C1193 C1190 1.348 . S
C1193 C1192 1.356 . S
H1194 C1188 0.930 . S
H1195 C1189 0.930 . S
C1196 N1197 1.314 . S
C1196 C1198 1.353 . S
C1196 H1202 0.930 . S
N1197 Li1147 1.990 . S
N1197 C1196 1.314 . S
N1197 C1200 1.279 . S
C1198 C1196 1.353 . S
C1198 C1201 1.348 . S
C1198 H1230 0.929 . S
C1199 C1200 1.358 . S
C1199 C1201 1.356 . S
C1199 H1231 0.930 . S
C1200 N1197 1.279 . S
C1200 C1199 1.358 . S
C1200 H1203 0.930 . S
C1201 C1198 1.348 . S
C1201 C1199 1.356 . S
H1202 C1196 0.930 . S
H1203 C1200 0.930 . S
O1204 Li1144 1.956 . S
O1204 Li1145 1.970 . S
O1204 Li1146 1.961 . S
O1204 C1148 1.325 . S
O1205 Li1144 1.970 . S
O1205 Li1145 1.956 . S
O1205 Li1147 1.961 . S
O1205 C1154 1.325 . S
O1206 Li1144 1.961 . S
O1206 Li1146 1.956 . S
O1206 Li1147 1.970 . S
O1206 C1176 1.325 . S
O1207 Li1145 1.961 . S
O1207 Li1146 1.970 . S
O1207 Li1147 1.956 . S
O1207 C1182 1.325 . S
H1208 C1150 0.929 . S
H1209 C1151 0.930 . S
H1210 C1152 0.930 . S
H1211 C1153 0.930 . S
H1212 C1155 0.930 . S
H1213 C1157 0.929 . S
H1214 C1158 0.930 . S
H1215 C1159 0.930 . S
H1216 C1162 0.930 . S
H1217 C1165 0.929 . S
H1218 C1170 0.929 . S
H1219 C1171 0.930 . S
H1220 C1178 0.929 . S
H1221 C1179 0.930 . S
H1222 C1180 0.930 . S
H1223 C1181 0.930 . S
H1224 C1183 0.929 . S
H1225 C1184 0.930 . S
H1226 C1185 0.930 . S
H1227 C1186 0.930 . S
H1228 C1190 0.929 . S
H1229 C1192 0.930 . S
H1230 C1198 0.929 . S
H1231 C1199 0.930 . S
Li1232 N1249 1.990 . S
Li1232 O1292 1.956 . S
Li1232 O1293 1.970 . S
Li1232 O1294 1.961 . S
Li1233 N1257 1.990 . S
Li1233 O1292 1.970 . S
Li1233 O1293 1.956 . S
Li1233 O1295 1.961 . S
Li1234 N1279 1.990 . S
Li1234 O1292 1.961 . S
Li1234 O1294 1.956 . S
Li1234 O1295 1.970 . S
Li1235 N1285 1.990 . S
Li1235 O1293 1.961 . S
Li1235 O1294 1.970 . S
Li1235 O1295 1.956 . S
C1236 C1238 1.348 . S
C1236 C1239 1.356 . S
C1236 O1292 1.325 . S
N1237 C1240 1.314 . S
N1237 C1241 1.279 . S
C1238 C1236 1.348 . S
C1238 C1240 1.353 . S
C1238 H1296 0.929 . S
C1239 C1236 1.356 . S
C1239 C1241 1.358 . S
C1239 H1297 0.930 . S
C1240 N1237 1.314 . S
C1240 C1238 1.353 . S
C1240 H1298 0.930 . S
C1241 N1237 1.279 . S
C1241 C1239 1.358 . S
C1241 H1299 0.930 . S
C1242 C1245 1.348 . S
C1242 C1246 1.356 . S
C1242 O1293 1.325 . S
C1243 N1244 1.279 . S
C1243 C1246 1.358 . S
C1243 H1300 0.930 . S
N1244 C1243 1.279 . S
N1244 C1247 1.314 . S
C1245 C1242 1.348 . S
C1245 C1247 1.353 . S
C1245 H1301 0.929 . S
C1246 C1242 1.356 . S
C1246 C1243 1.358 . S
C1246 H1302 0.930 . S
C1247 N1244 1.314 . S
C1247 C1245 1.353 . S
C1247 H1303 0.930 . S
C1248 N1249 1.314 . S
C1248 C1253 1.353 . S
C1248 H1254 0.930 . S
N1249 Li1232 1.990 . S
N1249 C1248 1.314 . S
N1249 C1251 1.279 . S
C1250 C1251 1.358 . S
C1250 C1252 1.356 . S
C1250 H1304 0.930 . S
C1251 N1249 1.279 . S
C1251 C1250 1.358 . S
C1251 H1255 0.930 . S
C1252 C1250 1.356 . S
C1252 C1253 1.348 . S
C1253 C1248 1.353 . S
C1253 C1252 1.348 . S
C1253 H1305 0.929 . S
H1254 C1248 0.930 . S
H1255 C1251 0.930 . S
C1256 N1257 1.314 . S
C1256 C1258 1.353 . S
C1256 H1262 0.930 . S
N1257 Li1233 1.990 . S
N1257 C1256 1.314 . S
N1257 C1260 1.279 . S
C1258 C1256 1.353 . S
C1258 C1261 1.348 . S
C1258 H1306 0.929 . S
C1259 C1260 1.358 . S
C1259 C1261 1.356 . S
C1259 H1307 0.930 . S
C1260 N1257 1.279 . S
C1260 C1259 1.358 . S
C1260 H1263 0.930 . S
C1261 C1258 1.348 . S
C1261 C1259 1.356 . S
H1262 C1256 0.930 . S
H1263 C1260 0.930 . S
C1264 C1266 1.348 . S
C1264 C1267 1.356 . S
C1264 O1294 1.325 . S
N1265 C1268 1.314 . S
N1265 C1269 1.279 . S
C1266 C1264 1.348 . S
C1266 C1268 1.353 . S
C1266 H1308 0.929 . S
C1267 C1264 1.356 . S
C1267 C1269 1.358 . S
C1267 H1309 0.930 . S
C1268 N1265 1.314 . S
C1268 C1266 1.353 . S
C1268 H1310 0.930 . S
C1269 N1265 1.279 . S
C1269 C1267 1.358 . S
C1269 H1311 0.930 . S
C1270 C1271 1.348 . S
C1270 C1272 1.356 . S
C1270 O1295 1.325 . S
C1271 C1270 1.348 . S
C1271 C1273 1.353 . S
C1271 H1312 0.929 . S
C1272 C1270 1.356 . S
C1272 C1274 1.358 . S
C1272 H1313 0.930 . S
C1273 C1271 1.353 . S
C1273 N1275 1.314 . S
C1273 H1314 0.930 . S
C1274 C1272 1.358 . S
C1274 N1275 1.279 . S
C1274 H1315 0.930 . S
N1275 C1273 1.314 . S
N1275 C1274 1.279 . S
C1276 C1278 1.353 . S
C1276 N1279 1.314 . S
C1276 H1282 0.930 . S
C1277 N1279 1.279 . S
C1277 C1280 1.358 . S
C1277 H1283 0.930 . S
C1278 C1276 1.353 . S
C1278 C1281 1.348 . S
C1278 H1316 0.929 . S
N1279 Li1234 1.990 . S
N1279 C1276 1.314 . S
N1279 C1277 1.279 . S
C1280 C1277 1.358 . S
C1280 C1281 1.356 . S
C1280 H1317 0.930 . S
C1281 C1278 1.348 . S
C1281 C1280 1.356 . S
H1282 C1276 0.930 . S
H1283 C1277 0.930 . S
C1284 N1285 1.314 . S
C1284 C1286 1.353 . S
C1284 H1290 0.930 . S
N1285 Li1235 1.990 . S
N1285 C1284 1.314 . S
N1285 C1288 1.279 . S
C1286 C1284 1.353 . S
C1286 C1289 1.348 . S
C1286 H1318 0.929 . S
C1287 C1288 1.358 . S
C1287 C1289 1.356 . S
C1287 H1319 0.930 . S
C1288 N1285 1.279 . S
C1288 C1287 1.358 . S
C1288 H1291 0.930 . S
C1289 C1286 1.348 . S
C1289 C1287 1.356 . S
H1290 C1284 0.930 . S
H1291 C1288 0.930 . S
O1292 Li1232 1.956 . S
O1292 Li1233 1.970 . S
O1292 Li1234 1.961 . S
O1292 C1236 1.325 . S
O1293 Li1232 1.970 . S
O1293 Li1233 1.956 . S
O1293 Li1235 1.961 . S
O1293 C1242 1.325 . S
O1294 Li1232 1.961 . S
O1294 Li1234 1.956 . S
O1294 Li1235 1.970 . S
O1294 C1264 1.325 . S
O1295 Li1233 1.961 . S
O1295 Li1234 1.970 . S
O1295 Li1235 1.956 . S
O1295 C1270 1.325 . S
H1296 C1238 0.929 . S
H1297 C1239 0.930 . S
H1298 C1240 0.930 . S
H1299 C1241 0.930 . S
H1300 C1243 0.930 . S
H1301 C1245 0.929 . S
H1302 C1246 0.930 . S
H1303 C1247 0.930 . S
H1304 C1250 0.930 . S
H1305 C1253 0.929 . S
H1306 C1258 0.929 . S
H1307 C1259 0.930 . S
H1308 C1266 0.929 . S
H1309 C1267 0.930 . S
H1310 C1268 0.930 . S
H1311 C1269 0.930 . S
H1312 C1271 0.929 . S
H1313 C1272 0.930 . S
H1314 C1273 0.930 . S
H1315 C1274 0.930 . S
H1316 C1278 0.929 . S
H1317 C1280 0.930 . S
H1318 C1286 0.929 . S
H1319 C1287 0.930 . S
Li1320 N1337 1.990 . S
Li1320 O1380 1.956 . S
Li1320 O1381 1.970 . S
Li1320 O1382 1.961 . S
Li1321 N1345 1.990 . S
Li1321 O1380 1.970 . S
Li1321 O1381 1.956 . S
Li1321 O1383 1.961 . S
Li1322 N1367 1.990 . S
Li1322 O1380 1.961 . S
Li1322 O1382 1.956 . S
Li1322 O1383 1.970 . S
Li1323 N1373 1.990 . S
Li1323 O1381 1.961 . S
Li1323 O1382 1.970 . S
Li1323 O1383 1.956 . S
C1324 C1326 1.348 . S
C1324 C1327 1.356 . S
C1324 O1380 1.325 . S
N1325 C1328 1.314 . S
N1325 C1329 1.279 . S
C1326 C1324 1.348 . S
C1326 C1328 1.353 . S
C1326 H1384 0.929 . S
C1327 C1324 1.356 . S
C1327 C1329 1.358 . S
C1327 H1385 0.930 . S
C1328 N1325 1.314 . S
C1328 C1326 1.353 . S
C1328 H1386 0.930 . S
C1329 N1325 1.279 . S
C1329 C1327 1.358 . S
C1329 H1387 0.930 . S
C1330 C1333 1.348 . S
C1330 C1334 1.356 . S
C1330 O1381 1.325 . S
C1331 N1332 1.279 . S
C1331 C1334 1.358 . S
C1331 H1388 0.930 . S
N1332 C1331 1.279 . S
N1332 C1335 1.314 . S
C1333 C1330 1.348 . S
C1333 C1335 1.353 . S
C1333 H1389 0.929 . S
C1334 C1330 1.356 . S
C1334 C1331 1.358 . S
C1334 H1390 0.930 . S
C1335 N1332 1.314 . S
C1335 C1333 1.353 . S
C1335 H1391 0.930 . S
C1336 N1337 1.314 . S
C1336 C1341 1.353 . S
C1336 H1342 0.930 . S
N1337 Li1320 1.990 . S
N1337 C1336 1.314 . S
N1337 C1339 1.279 . S
C1338 C1339 1.358 . S
C1338 C1340 1.356 . S
C1338 H1392 0.930 . S
C1339 N1337 1.279 . S
C1339 C1338 1.358 . S
C1339 H1343 0.930 . S
C1340 C1338 1.356 . S
C1340 C1341 1.348 . S
C1341 C1336 1.353 . S
C1341 C1340 1.348 . S
C1341 H1393 0.929 . S
H1342 C1336 0.930 . S
H1343 C1339 0.930 . S
C1344 N1345 1.314 . S
C1344 C1346 1.353 . S
C1344 H1350 0.930 . S
N1345 Li1321 1.990 . S
N1345 C1344 1.314 . S
N1345 C1348 1.279 . S
C1346 C1344 1.353 . S
C1346 C1349 1.348 . S
C1346 H1394 0.929 . S
C1347 C1348 1.358 . S
C1347 C1349 1.356 . S
C1347 H1395 0.930 . S
C1348 N1345 1.279 . S
C1348 C1347 1.358 . S
C1348 H1351 0.930 . S
C1349 C1346 1.348 . S
C1349 C1347 1.356 . S
H1350 C1344 0.930 . S
H1351 C1348 0.930 . S
C1352 C1354 1.348 . S
C1352 C1355 1.356 . S
C1352 O1382 1.325 . S
N1353 C1356 1.314 . S
N1353 C1357 1.279 . S
C1354 C1352 1.348 . S
C1354 C1356 1.353 . S
C1354 H1396 0.929 . S
C1355 C1352 1.356 . S
C1355 C1357 1.358 . S
C1355 H1397 0.930 . S
C1356 N1353 1.314 . S
C1356 C1354 1.353 . S
C1356 H1398 0.930 . S
C1357 N1353 1.279 . S
C1357 C1355 1.358 . S
C1357 H1399 0.930 . S
C1358 C1359 1.348 . S
C1358 C1360 1.356 . S
C1358 O1383 1.325 . S
C1359 C1358 1.348 . S
C1359 C1361 1.353 . S
C1359 H1400 0.929 . S
C1360 C1358 1.356 . S
C1360 C1362 1.358 . S
C1360 H1401 0.930 . S
C1361 C1359 1.353 . S
C1361 N1363 1.314 . S
C1361 H1402 0.930 . S
C1362 C1360 1.358 . S
C1362 N1363 1.279 . S
C1362 H1403 0.930 . S
N1363 C1361 1.314 . S
N1363 C1362 1.279 . S
C1364 C1366 1.353 . S
C1364 N1367 1.314 . S
C1364 H1370 0.930 . S
C1365 N1367 1.279 . S
C1365 C1368 1.358 . S
C1365 H1371 0.930 . S
C1366 C1364 1.353 . S
C1366 C1369 1.348 . S
C1366 H1404 0.929 . S
N1367 Li1322 1.990 . S
N1367 C1364 1.314 . S
N1367 C1365 1.279 . S
C1368 C1365 1.358 . S
C1368 C1369 1.356 . S
C1368 H1405 0.930 . S
C1369 C1366 1.348 . S
C1369 C1368 1.356 . S
H1370 C1364 0.930 . S
H1371 C1365 0.930 . S
C1372 N1373 1.314 . S
C1372 C1374 1.353 . S
C1372 H1378 0.930 . S
N1373 Li1323 1.990 . S
N1373 C1372 1.314 . S
N1373 C1376 1.279 . S
C1374 C1372 1.353 . S
C1374 C1377 1.348 . S
C1374 H1406 0.929 . S
C1375 C1376 1.358 . S
C1375 C1377 1.356 . S
C1375 H1407 0.930 . S
C1376 N1373 1.279 . S
C1376 C1375 1.358 . S
C1376 H1379 0.930 . S
C1377 C1374 1.348 . S
C1377 C1375 1.356 . S
H1378 C1372 0.930 . S
H1379 C1376 0.930 . S
O1380 Li1320 1.956 . S
O1380 Li1321 1.970 . S
O1380 Li1322 1.961 . S
O1380 C1324 1.325 . S
O1381 Li1320 1.970 . S
O1381 Li1321 1.956 . S
O1381 Li1323 1.961 . S
O1381 C1330 1.325 . S
O1382 Li1320 1.961 . S
O1382 Li1322 1.956 . S
O1382 Li1323 1.970 . S
O1382 C1352 1.325 . S
O1383 Li1321 1.961 . S
O1383 Li1322 1.970 . S
O1383 Li1323 1.956 . S
O1383 C1358 1.325 . S
H1384 C1326 0.929 . S
H1385 C1327 0.930 . S
H1386 C1328 0.930 . S
H1387 C1329 0.930 . S
H1388 C1331 0.930 . S
H1389 C1333 0.929 . S
H1390 C1334 0.930 . S
H1391 C1335 0.930 . S
H1392 C1338 0.930 . S
H1393 C1341 0.929 . S
H1394 C1346 0.929 . S
H1395 C1347 0.930 . S
H1396 C1354 0.929 . S
H1397 C1355 0.930 . S
H1398 C1356 0.930 . S
H1399 C1357 0.930 . S
H1400 C1359 0.929 . S
H1401 C1360 0.930 . S
H1402 C1361 0.930 . S
H1403 C1362 0.930 . S
H1404 C1366 0.929 . S
H1405 C1368 0.930 . S
H1406 C1374 0.929 . S
H1407 C1375 0.930 . S
C1408 C1409 1.387 . S
C1408 H1412 0.950 . S
C1408 C1417 1.390 . S
C1409 C1408 1.387 . S
C1409 C1411 1.387 . S
H1410 C1417 0.950 . S
C1411 C1409 1.387 . S
C1411 C1413 1.390 . S
C1411 H1415 0.950 . S
H1412 C1408 0.950 . S
C1413 C1411 1.390 . S
C1413 C1414 1.387 . S
C1413 H1416 0.950 . S
C1414 C1413 1.387 . S
C1414 C1417 1.387 . S
H1415 C1411 0.950 . S
H1416 C1413 0.950 . S
C1417 C1408 1.390 . S
C1417 H1410 0.950 . S
C1417 C1414 1.387 . S
C1418 C1419 1.387 . S
C1418 H1422 0.950 . S
C1418 C1427 1.390 . S
C1419 C1418 1.387 . S
C1419 C1421 1.387 . S
H1420 C1427 0.950 . S
C1421 C1419 1.387 . S
C1421 C1423 1.390 . S
C1421 H1425 0.950 . S
H1422 C1418 0.950 . S
C1423 C1421 1.390 . S
C1423 C1424 1.387 . S
C1423 H1426 0.950 . S
C1424 C1423 1.387 . S
C1424 C1427 1.387 . S
H1425 C1421 0.950 . S
H1426 C1423 0.950 . S
C1427 C1418 1.390 . S
C1427 H1420 0.950 . S
C1427 C1424 1.387 . S
C1428 C1429 1.387 . S
C1428 H1432 0.950 . S
C1428 C1437 1.390 . S
C1429 C1428 1.387 . S
C1429 C1431 1.387 . S
H1430 C1437 0.950 . S
C1431 C1429 1.387 . S
C1431 C1433 1.390 . S
C1431 H1435 0.950 . S
H1432 C1428 0.950 . S
C1433 C1431 1.390 . S
C1433 C1434 1.387 . S
C1433 H1436 0.950 . S
C1434 C1433 1.387 . S
C1434 C1437 1.387 . S
H1435 C1431 0.950 . S
H1436 C1433 0.950 . S
C1437 C1428 1.390 . S
C1437 H1430 0.950 . S
C1437 C1434 1.387 . S
C1438 C1439 1.387 . S
C1438 H1442 0.950 . S
C1438 C1447 1.390 . S
C1439 C1438 1.387 . S
C1439 C1441 1.387 . S
H1440 C1447 0.950 . S
C1441 C1439 1.387 . S
C1441 C1443 1.390 . S
C1441 H1445 0.950 . S
H1442 C1438 0.950 . S
C1443 C1441 1.390 . S
C1443 C1444 1.387 . S
C1443 H1446 0.950 . S
C1444 C1443 1.387 . S
C1444 C1447 1.387 . S
H1445 C1441 0.950 . S
H1446 C1443 0.950 . S
C1447 C1438 1.390 . S
C1447 H1440 0.950 . S
C1447 C1444 1.387 . S
C1448 C1449 1.387 . S
C1448 H1452 0.950 . S
C1448 C1457 1.390 . S
C1449 C1448 1.387 . S
C1449 C1451 1.387 . S
H1450 C1457 0.950 . S
C1451 C1449 1.387 . S
C1451 C1453 1.390 . S
C1451 H1455 0.950 . S
H1452 C1448 0.950 . S
C1453 C1451 1.390 . S
C1453 C1454 1.387 . S
C1453 H1456 0.950 . S
C1454 C1453 1.387 . S
C1454 C1457 1.387 . S
H1455 C1451 0.950 . S
H1456 C1453 0.950 . S
C1457 C1448 1.390 . S
C1457 H1450 0.950 . S
C1457 C1454 1.387 . S
C1458 C1459 1.387 . S
C1458 H1462 0.950 . S
C1458 C1467 1.390 . S
C1459 C1458 1.387 . S
C1459 C1461 1.387 . S
H1460 C1467 0.950 . S
C1461 C1459 1.387 . S
C1461 C1463 1.390 . S
C1461 H1465 0.950 . S
H1462 C1458 0.950 . S
C1463 C1461 1.390 . S
C1463 C1464 1.387 . S
C1463 H1466 0.950 . S
C1464 C1463 1.387 . S
C1464 C1467 1.387 . S
H1465 C1461 0.950 . S
H1466 C1463 0.950 . S
C1467 C1458 1.390 . S
C1467 H1460 0.950 . S
C1467 C1464 1.387 . S
C1468 C1469 1.387 . S
C1468 H1472 0.950 . S
C1468 C1477 1.390 . S
C1469 C1468 1.387 . S
C1469 C1471 1.387 . S
H1470 C1477 0.950 . S
C1471 C1469 1.387 . S
C1471 C1473 1.390 . S
C1471 H1475 0.950 . S
H1472 C1468 0.950 . S
C1473 C1471 1.390 . S
C1473 C1474 1.387 . S
C1473 H1476 0.950 . S
C1474 C1473 1.387 . S
C1474 C1477 1.387 . S
H1475 C1471 0.950 . S
H1476 C1473 0.950 . S
C1477 C1468 1.390 . S
C1477 H1470 0.950 . S
C1477 C1474 1.387 . S
C1478 C1479 1.387 . S
C1478 H1482 0.950 . S
C1478 C1487 1.390 . S
C1479 C1478 1.387 . S
C1479 C1481 1.387 . S
H1480 C1487 0.950 . S
C1481 C1479 1.387 . S
C1481 C1483 1.390 . S
C1481 H1485 0.950 . S
H1482 C1478 0.950 . S
C1483 C1481 1.390 . S
C1483 C1484 1.387 . S
C1483 H1486 0.950 . S
C1484 C1483 1.387 . S
C1484 C1487 1.387 . S
H1485 C1481 0.950 . S
H1486 C1483 0.950 . S
C1487 C1478 1.390 . S
C1487 H1480 0.950 . S
C1487 C1484 1.387 . S
C1488 C1489 1.387 . S
C1488 H1492 0.950 . S
C1488 C1497 1.390 1_556 S
C1489 C1488 1.387 . S
C1489 C1491 1.387 . S
H1490 C1497 0.950 . S
C1491 C1489 1.387 . S
C1491 C1493 1.390 1_556 S
C1491 H1495 0.950 . S
H1492 C1488 0.950 . S
C1493 C1491 1.390 1_554 S
C1493 C1494 1.387 . S
C1493 H1496 0.950 . S
C1494 C1493 1.387 . S
C1494 C1497 1.387 . S
H1495 C1491 0.950 . S
H1496 C1493 0.950 . S
C1497 C1488 1.390 1_554 S
C1497 H1490 0.950 . S
C1497 C1494 1.387 . S
C1498 C1499 1.387 . S
C1498 H1502 0.950 . S
C1498 C1507 1.390 1_556 S
C1499 C1498 1.387 . S
C1499 C1501 1.387 . S
H1500 C1507 0.950 . S
C1501 C1499 1.387 . S
C1501 C1503 1.390 1_556 S
C1501 H1505 0.950 . S
H1502 C1498 0.950 . S
C1503 C1501 1.390 1_554 S
C1503 C1504 1.387 . S
C1503 H1506 0.950 . S
C1504 C1503 1.387 . S
C1504 C1507 1.387 . S
H1505 C1501 0.950 . S
H1506 C1503 0.950 . S
C1507 C1498 1.390 1_554 S
C1507 H1500 0.950 . S
C1507 C1504 1.387 . S
C1508 C1509 1.387 . S
C1508 H1512 0.950 . S
C1508 C1517 1.390 1_556 S
C1509 C1508 1.387 . S
C1509 C1511 1.387 . S
H1510 C1517 0.950 . S
C1511 C1509 1.387 . S
C1511 C1513 1.390 1_556 S
C1511 H1515 0.950 . S
H1512 C1508 0.950 . S
C1513 C1511 1.390 1_554 S
C1513 C1514 1.387 . S
C1513 H1516 0.950 . S
C1514 C1513 1.387 . S
C1514 C1517 1.387 . S
H1515 C1511 0.950 . S
H1516 C1513 0.950 . S
C1517 C1508 1.390 1_554 S
C1517 H1510 0.950 . S
C1517 C1514 1.387 . S
C1518 C1519 1.387 . S
C1518 H1522 0.950 . S
C1518 C1527 1.390 1_554 S
C1519 C1518 1.387 . S
C1519 C1521 1.387 . S
H1520 C1527 0.950 . S
C1521 C1519 1.387 . S
C1521 C1523 1.390 1_554 S
C1521 H1525 0.950 . S
H1522 C1518 0.950 . S
C1523 C1521 1.390 1_556 S
C1523 C1524 1.387 . S
C1523 H1526 0.950 . S
C1524 C1523 1.387 . S
C1524 C1527 1.387 . S
H1525 C1521 0.950 . S
H1526 C1523 0.950 . S
C1527 C1518 1.390 1_556 S
C1527 H1520 0.950 . S
C1527 C1524 1.387 . S
C1528 C1529 1.387 . S
C1528 H1532 0.950 . S
C1528 C1537 1.390 1_455 S
C1529 C1528 1.387 . S
C1529 C1531 1.387 . S
H1530 C1537 0.950 . S
C1531 C1529 1.387 . S
C1531 C1533 1.390 1_455 S
C1531 H1535 0.950 . S
H1532 C1528 0.950 . S
C1533 C1531 1.390 1_655 S
C1533 C1534 1.387 . S
C1533 H1536 0.950 . S
C1534 C1533 1.387 . S
C1534 C1537 1.387 . S
H1535 C1531 0.950 . S
H1536 C1533 0.950 . S
C1537 C1528 1.390 1_655 S
C1537 H1530 0.950 . S
C1537 C1534 1.387 . S
C1538 C1539 1.387 . S
C1538 H1542 0.950 . S
C1538 C1547 1.390 1_565 S
C1539 C1538 1.387 . S
C1539 C1541 1.387 . S
H1540 C1547 0.950 . S
C1541 C1539 1.387 . S
C1541 C1543 1.390 1_565 S
C1541 H1545 0.950 . S
H1542 C1538 0.950 . S
C1543 C1541 1.390 1_545 S
C1543 C1544 1.387 . S
C1543 H1546 0.950 . S
C1544 C1543 1.387 . S
C1544 C1547 1.387 . S
H1545 C1541 0.950 . S
H1546 C1543 0.950 . S
C1547 C1538 1.390 1_545 S
C1547 H1540 0.950 . S
C1547 C1544 1.387 . S
C1548 C1549 1.387 . S
C1548 H1552 0.950 . S
C1548 C1557 1.390 1_655 S
C1549 C1548 1.387 . S
C1549 C1551 1.387 . S
H1550 C1557 0.950 . S
C1551 C1549 1.387 . S
C1551 C1553 1.390 1_655 S
C1551 H1555 0.950 . S
H1552 C1548 0.950 . S
C1553 C1551 1.390 1_455 S
C1553 C1554 1.387 . S
C1553 H1556 0.950 . S
C1554 C1553 1.387 . S
C1554 C1557 1.387 . S
H1555 C1551 0.950 . S
H1556 C1553 0.950 . S
C1557 C1548 1.390 1_455 S
C1557 H1550 0.950 . S
C1557 C1554 1.387 . S
C1558 C1559 1.387 . S
C1558 H1562 0.950 . S
C1558 C1567 1.390 1_545 S
C1559 C1558 1.387 . S
C1559 C1561 1.387 . S
H1560 C1567 0.950 . S
C1561 C1559 1.387 . S
C1561 C1563 1.390 1_545 S
C1561 H1565 0.950 . S
H1562 C1558 0.950 . S
C1563 C1561 1.390 1_565 S
C1563 C1564 1.387 . S
C1563 H1566 0.950 . S
C1564 C1563 1.387 . S
C1564 C1567 1.387 . S
H1565 C1561 0.950 . S
H1566 C1563 0.950 . S
C1567 C1558 1.390 1_565 S
C1567 H1560 0.950 . S
C1567 C1564 1.387 . S
C1568 C1569 1.387 . S
C1568 H1572 0.950 . S
C1568 C1577 1.390 1_655 S
C1569 C1568 1.387 . S
C1569 C1571 1.387 . S
H1570 C1577 0.950 . S
C1571 C1569 1.387 . S
C1571 C1573 1.390 1_655 S
C1571 H1575 0.950 . S
H1572 C1568 0.950 . S
C1573 C1571 1.390 1_455 S
C1573 C1574 1.387 . S
C1573 H1576 0.950 . S
C1574 C1573 1.387 . S
C1574 C1577 1.387 . S
H1575 C1571 0.950 . S
H1576 C1573 0.950 . S
C1577 C1568 1.390 1_455 S
C1577 H1570 0.950 . S
C1577 C1574 1.387 . S
C1578 C1579 1.387 . S
C1578 H1582 0.950 . S
C1578 C1587 1.390 1_565 S
C1579 C1578 1.387 . S
C1579 C1581 1.387 . S
H1580 C1587 0.950 . S
C1581 C1579 1.387 . S
C1581 C1583 1.390 1_565 S
C1581 H1585 0.950 . S
H1582 C1578 0.950 . S
C1583 C1581 1.390 1_545 S
C1583 C1584 1.387 . S
C1583 H1586 0.950 . S
C1584 C1583 1.387 . S
C1584 C1587 1.387 . S
H1585 C1581 0.950 . S
H1586 C1583 0.950 . S
C1587 C1578 1.390 1_545 S
C1587 H1580 0.950 . S
C1587 C1584 1.387 . S
C1588 C1589 1.387 . S
C1588 H1592 0.950 . S
C1588 C1597 1.390 1_455 S
C1589 C1588 1.387 . S
C1589 C1591 1.387 . S
H1590 C1597 0.950 . S
C1591 C1589 1.387 . S
C1591 C1593 1.390 1_455 S
C1591 H1595 0.950 . S
H1592 C1588 0.950 . S
C1593 C1591 1.390 1_655 S
C1593 C1594 1.387 . S
C1593 H1596 0.950 . S
C1594 C1593 1.387 . S
C1594 C1597 1.387 . S
H1595 C1591 0.950 . S
H1596 C1593 0.950 . S
C1597 C1588 1.390 1_655 S
C1597 H1590 0.950 . S
C1597 C1594 1.387 . S
C1598 C1599 1.387 . S
C1598 H1602 0.950 . S
C1598 C1607 1.390 1_565 S
C1599 C1598 1.387 . S
C1599 C1601 1.387 . S
H1600 C1607 0.950 . S
C1601 C1599 1.387 . S
C1601 C1603 1.390 1_565 S
C1601 H1605 0.950 . S
H1602 C1598 0.950 . S
C1603 C1601 1.390 1_545 S
C1603 C1604 1.387 . S
C1603 H1606 0.950 . S
C1604 C1603 1.387 . S
C1604 C1607 1.387 . S
H1605 C1601 0.950 . S
H1606 C1603 0.950 . S
C1607 C1598 1.390 1_545 S
C1607 H1600 0.950 . S
C1607 C1604 1.387 . S
C1608 C1609 1.387 . S
C1608 H1612 0.950 . S
C1608 C1617 1.390 . S
C1609 C1608 1.387 . S
C1609 C1611 1.387 . S
H1610 C1617 0.950 . S
C1611 C1609 1.387 . S
C1611 C1613 1.390 . S
C1611 H1615 0.950 . S
H1612 C1608 0.950 . S
C1613 C1611 1.390 . S
C1613 C1614 1.387 . S
C1613 H1616 0.950 . S
C1614 C1613 1.387 . S
C1614 C1617 1.387 . S
H1615 C1611 0.950 . S
H1616 C1613 0.950 . S
C1617 C1608 1.390 . S
C1617 H1610 0.950 . S
C1617 C1614 1.387 . S
C1618 C1619 1.387 . S
C1618 H1622 0.950 . S
C1618 C1627 1.390 . S
C1619 C1618 1.387 . S
C1619 C1621 1.387 . S
H1620 C1627 0.950 . S
C1621 C1619 1.387 . S
C1621 C1623 1.390 . S
C1621 H1625 0.950 . S
H1622 C1618 0.950 . S
C1623 C1621 1.390 . S
C1623 C1624 1.387 . S
C1623 H1626 0.950 . S
C1624 C1623 1.387 . S
C1624 C1627 1.387 . S
H1625 C1621 0.950 . S
H1626 C1623 0.950 . S
C1627 C1618 1.390 . S
C1627 H1620 0.950 . S
C1627 C1624 1.387 . S
C1628 C1629 1.387 . S
C1628 H1632 0.950 . S
C1628 C1637 1.390 . S
C1629 C1628 1.387 . S
C1629 C1631 1.387 . S
H1630 C1637 0.950 . S
C1631 C1629 1.387 . S
C1631 C1633 1.390 . S
C1631 H1635 0.950 . S
H1632 C1628 0.950 . S
C1633 C1631 1.390 . S
C1633 C1634 1.387 . S
C1633 H1636 0.950 . S
C1634 C1633 1.387 . S
C1634 C1637 1.387 . S
H1635 C1631 0.950 . S
H1636 C1633 0.950 . S
C1637 C1628 1.390 . S
C1637 H1630 0.950 . S
C1637 C1634 1.387 . S
C1638 C1639 1.387 . S
C1638 H1642 0.950 . S
C1638 C1647 1.390 . S
C1639 C1638 1.387 . S
C1639 C1641 1.387 . S
H1640 C1647 0.950 . S
C1641 C1639 1.387 . S
C1641 C1643 1.390 . S
C1641 H1645 0.950 . S
H1642 C1638 0.950 . S
C1643 C1641 1.390 . S
C1643 C1644 1.387 . S
C1643 H1646 0.950 . S
C1644 C1643 1.387 . S
C1644 C1647 1.387 . S
H1645 C1641 0.950 . S
H1646 C1643 0.950 . S
C1647 C1638 1.390 . S
C1647 H1640 0.950 . S
C1647 C1644 1.387 . S
C1648 C1649 1.387 . S
C1648 H1652 0.950 . S
C1648 C1657 1.390 . S
C1649 C1648 1.387 . S
C1649 C1651 1.387 . S
H1650 C1657 0.950 . S
C1651 C1649 1.387 . S
C1651 C1653 1.390 . S
C1651 H1655 0.950 . S
H1652 C1648 0.950 . S
C1653 C1651 1.390 . S
C1653 C1654 1.387 . S
C1653 H1656 0.950 . S
C1654 C1653 1.387 . S
C1654 C1657 1.387 . S
H1655 C1651 0.950 . S
H1656 C1653 0.950 . S
C1657 C1648 1.390 . S
C1657 H1650 0.950 . S
C1657 C1654 1.387 . S
C1658 C1659 1.387 . S
C1658 H1662 0.950 . S
C1658 C1667 1.390 . S
C1659 C1658 1.387 . S
C1659 C1661 1.387 . S
H1660 C1667 0.950 . S
C1661 C1659 1.387 . S
C1661 C1663 1.390 . S
C1661 H1665 0.950 . S
H1662 C1658 0.950 . S
C1663 C1661 1.390 . S
C1663 C1664 1.387 . S
C1663 H1666 0.950 . S
C1664 C1663 1.387 . S
C1664 C1667 1.387 . S
H1665 C1661 0.950 . S
H1666 C1663 0.950 . S
C1667 C1658 1.390 . S
C1667 H1660 0.950 . S
C1667 C1664 1.387 . S
C1668 C1669 1.387 . S
C1668 H1672 0.950 . S
C1668 C1677 1.390 . S
C1669 C1668 1.387 . S
C1669 C1671 1.387 . S
H1670 C1677 0.950 . S
C1671 C1669 1.387 . S
C1671 C1673 1.390 . S
C1671 H1675 0.950 . S
H1672 C1668 0.950 . S
C1673 C1671 1.390 . S
C1673 C1674 1.387 . S
C1673 H1676 0.950 . S
C1674 C1673 1.387 . S
C1674 C1677 1.387 . S
H1675 C1671 0.950 . S
H1676 C1673 0.950 . S
C1677 C1668 1.390 . S
C1677 H1670 0.950 . S
C1677 C1674 1.387 . S
C1678 C1679 1.387 . S
C1678 H1682 0.950 . S
C1678 C1687 1.390 . S
C1679 C1678 1.387 . S
C1679 C1681 1.387 . S
H1680 C1687 0.950 . S
C1681 C1679 1.387 . S
C1681 C1683 1.390 . S
C1681 H1685 0.950 . S
H1682 C1678 0.950 . S
C1683 C1681 1.390 . S
C1683 C1684 1.387 . S
C1683 H1686 0.950 . S
C1684 C1683 1.387 . S
C1684 C1687 1.387 . S
H1685 C1681 0.950 . S
H1686 C1683 0.950 . S
C1687 C1678 1.390 . S
C1687 H1680 0.950 . S
C1687 C1684 1.387 . S
C1688 C1689 1.387 . S
C1688 H1692 0.950 . S
C1688 C1697 1.390 . S
C1689 C1688 1.387 . S
C1689 C1691 1.387 . S
H1690 C1697 0.950 . S
C1691 C1689 1.387 . S
C1691 C1693 1.390 . S
C1691 H1695 0.950 . S
H1692 C1688 0.950 . S
C1693 C1691 1.390 . S
C1693 C1694 1.387 . S
C1693 H1696 0.950 . S
C1694 C1693 1.387 . S
C1694 C1697 1.387 . S
H1695 C1691 0.950 . S
H1696 C1693 0.950 . S
C1697 C1688 1.390 . S
C1697 H1690 0.950 . S
C1697 C1694 1.387 . S
C1698 C1699 1.387 . S
C1698 H1702 0.950 . S
C1698 C1707 1.390 . S
C1699 C1698 1.387 . S
C1699 C1701 1.387 . S
H1700 C1707 0.950 . S
C1701 C1699 1.387 . S
C1701 C1703 1.390 . S
C1701 H1705 0.950 . S
H1702 C1698 0.950 . S
C1703 C1701 1.390 . S
C1703 C1704 1.387 . S
C1703 H1706 0.950 . S
C1704 C1703 1.387 . S
C1704 C1707 1.387 . S
H1705 C1701 0.950 . S
H1706 C1703 0.950 . S
C1707 C1698 1.390 . S
C1707 H1700 0.950 . S
C1707 C1704 1.387 . S
C1708 C1709 1.387 . S
C1708 H1712 0.950 . S
C1708 C1717 1.390 . S
C1709 C1708 1.387 . S
C1709 C1711 1.387 . S
H1710 C1717 0.950 . S
C1711 C1709 1.387 . S
C1711 C1713 1.390 . S
C1711 H1715 0.950 . S
H1712 C1708 0.950 . S
C1713 C1711 1.390 . S
C1713 C1714 1.387 . S
C1713 H1716 0.950 . S
C1714 C1713 1.387 . S
C1714 C1717 1.387 . S
H1715 C1711 0.950 . S
H1716 C1713 0.950 . S
C1717 C1708 1.390 . S
C1717 H1710 0.950 . S
C1717 C1714 1.387 . S
C1718 C1719 1.387 . S
C1718 H1722 0.950 . S
C1718 C1727 1.390 . S
C1719 C1718 1.387 . S
C1719 C1721 1.387 . S
H1720 C1727 0.950 . S
C1721 C1719 1.387 . S
C1721 C1723 1.390 . S
C1721 H1725 0.950 . S
H1722 C1718 0.950 . S
C1723 C1721 1.390 . S
C1723 C1724 1.387 . S
C1723 H1726 0.950 . S
C1724 C1723 1.387 . S
C1724 C1727 1.387 . S
H1725 C1721 0.950 . S
H1726 C1723 0.950 . S
C1727 C1718 1.390 . S
C1727 H1720 0.950 . S
C1727 C1724 1.387 . S
C1409 C1377 0.684 . S
C1414 C29 0.684 . S
C1419 C1105 0.685 . S
C1424 C108 0.686 . S
C1429 C233 0.686 . S
C1434 C1193 0.685 . S
C1439 C1289 0.687 . S
C1444 C293 0.687 . S
C1449 C821 0.686 . S
C1454 C401 0.686 . S
C1459 C489 0.686 . S
C1464 C937 0.686 . S
C1469 C577 0.687 . S
C1474 C997 0.687 . S
C1479 C673 0.684 . S
C1484 C724 0.684 . S
C1489 C460 1.526 . S
C1494 C20 1.520 . S
C1499 C557 1.522 . S
C1504 C145 1.526 . S
C1509 C645 1.531 . S
C1514 C225 1.524 . S
C1519 C321 1.532 . S
C1524 C381 1.526 . S
C1529 C57 1.534 . S
C1534 C137 1.533 . S
C1539 C196 1.523 . S
C1544 C117 1.524 . S
C1549 C205 1.530 . S
C1554 C284 1.526 . S
C1559 C49 1.516 . S
C1564 C313 1.514 . S
C1569 C665 1.515 . S
C1574 C409 1.516 . S
C1579 C372 1.535 . S
C1584 C469 1.527 . S
C1589 C497 1.524 . S
C1594 C585 1.524 . S
C1599 C636 1.535 . S
C1604 C548 1.544 . S
C1609 C1164 1.527 . S
C1614 C733 1.519 . S
C1619 C841 1.526 . S
C1624 C1252 1.522 . S
C1629 C1349 1.531 . S
C1634 C929 1.524 . S
C1639 C1085 1.524 . S
C1644 C1025 1.533 . S
C1649 C753 1.533 . S
C1654 C849 1.533 . S
C1659 C812 1.523 . S
C1664 C900 1.524 . S
C1669 C988 1.525 . S
C1674 C909 1.530 . S
C1679 C761 1.516 . S
C1684 C1017 1.514 . S
C1689 C1369 1.516 . S
C1694 C1113 1.516 . S
C1699 C1076 1.534 . S
C1704 C1173 1.528 . S
C1709 C1201 1.524 . S
C1714 C1281 1.524 . S
C1719 C1340 1.536 . S
C1724 C1261 1.543 . S
