# Generated by pormake.
# Topology qtz-x, (6)-cn, num edge types: 1
# Building blocks:
#     Node 0, Type 0, BuildingBlock: NUHQIS_clean_sbu_0, # of connection points: 6
#     Node 1, Type 0, BuildingBlock: NUHQIS_clean_sbu_0, # of connection points: 6
#     Node 2, Type 0, BuildingBlock: NUHQIS_clean_sbu_0, # of connection points: 6
#     Edge 3, Type (0, 0), BuildingBlock: XIVTED_clean_linker_0, # of connection points: 2
#     Edge 4, Type (0, 0), BuildingBlock: XIVTED_clean_linker_0, # of connection points: 2
#     Edge 5, Type (0, 0), BuildingBlock: XIVTED_clean_linker_0, # of connection points: 2
#     Edge 6, Type (0, 0), BuildingBlock: XIVTED_clean_linker_0, # of connection points: 2
#     Edge 7, Type (0, 0), BuildingBlock: XIVTED_clean_linker_0, # of connection points: 2
#     Edge 8, Type (0, 0), BuildingBlock: XIVTED_clean_linker_0, # of connection points: 2
#     Edge 9, Type (0, 0), BuildingBlock: XIVTED_clean_linker_0, # of connection points: 2
#     Edge 10, Type (0, 0), BuildingBlock: XIVTED_clean_linker_0, # of connection points: 2
#     Edge 11, Type (0, 0), BuildingBlock: XIVTED_clean_linker_0, # of connection points: 2
# Relax obj value: 0.241
# Max RMSD: 0.263
# Mean RMSD: 0.245
data_MOF--net-qtz-x--node1-NUHQIS_clean_sbu_0--edge1-XIVTED_clean_linker_0
_symmetry_space_group_name_H-M    P1
_symmetry_Int_Tables_number       1
_symmetry_cell_setting            triclinic
loop_
_symmetry_equiv_pos_as_xyz
'x, y, z'
_cell_length_a     15.378113
_cell_length_b     15.411338
_cell_length_c     53.553387
_cell_angle_alpha  66.645668
_cell_angle_beta   115.87981
_cell_angle_gamma 120.83897
loop_
_atom_site_label
_atom_site_type_symbol
_atom_site_fract_x
_atom_site_fract_y
_atom_site_fract_z
_atom_type_partial_charge
Tb0 Tb 1.00696 0.58022 0.20637 0.0
Eu1 Eu 0.2392 0.72079 0.19347 0.0
C2 C 0.10946 0.82154 0.19669 0.0
C3 C 1.02199 0.64535 0.144 0.0
C4 C 0.81838 0.4454 0.24874 0.0
C5 C 0.83544 0.49497 0.28916 0.0
C6 C 0.84897 0.52238 0.26239 0.0
C7 C 0.77309 0.34092 0.26223 0.0
C8 C 0.76062 0.31349 0.28906 0.0
C9 C 0.79213 0.39 0.30307 0.0
C10 C 0.84059 0.47122 0.22177 0.0
O11 O 1.03637 0.47812 0.1954 0.0
O12 O 0.21799 0.5539 0.20942 0.0
O13 O 0.27252 0.72405 0.23821 0.0
O14 O 0.129 0.574 0.24747 0.0
C15 C 0.12791 0.47384 0.20307 0.0
O16 O 0.39164 0.73872 0.19469 0.0
O17 O 0.34819 0.86883 0.17485 0.0
O18 O 0.16107 0.82722 0.18165 0.0
O19 O 0.06244 0.73324 0.21273 0.0
O20 O 0.96717 0.63214 0.15955 0.0
O21 O 0.12183 0.66016 0.15473 0.0
C22 C 0.22168 0.64863 0.25612 0.0
O23 O 0.86405 0.5666 0.20685 0.0
O24 O 0.90288 0.43441 0.22336 0.0
C25 C 0.43554 0.8479 0.15257 0.0
C26 C 0.47604 0.87712 0.10268 0.0
C27 C 0.5602 0.90231 0.12749 0.0
C28 C 0.54 0.88788 0.15226 0.0
C29 C 0.35147 0.82253 0.1279 0.0
C30 C 0.37148 0.83716 0.10318 0.0
C31 C 0.41336 0.83182 0.17848 0.0
H32 H 0.85934 0.55626 0.29896 0.0
H33 H 0.88496 0.60376 0.25263 0.0
H34 H 0.74999 0.28011 0.25232 0.0
H35 H 0.72907 0.23195 0.29913 0.0
H36 H 0.64165 0.93392 0.1277 0.0
H37 H 0.60577 0.90784 0.17113 0.0
H38 H 0.27014 0.79115 0.12774 0.0
H39 H 0.30486 0.81536 0.08462 0.0
Tb40 Tb 0.85212 0.16505 0.56807 0.0
Eu41 Eu 0.70874 0.92839 0.5563 0.0
C42 C 0.9583 0.04665 0.56415 0.0
C43 C 0.76522 0.13094 0.50525 0.0
C44 C 0.97632 0.36161 0.60868 0.0
C45 C 0.08668 0.46517 0.64438 0.0
C46 C 0.06603 0.44723 0.61828 0.0
C47 C 0.9068 0.29464 0.62527 0.0
C48 C 0.92704 0.31264 0.65124 0.0
C49 C 1.01791 0.39743 0.66132 0.0
C50 C 0.96045 0.33581 0.58295 0.0
O51 O 0.69886 0.11179 0.57342 0.0
O52 O 0.59792 0.00332 0.54271 0.0
O53 O 0.71589 0.91316 0.60071 0.0
O54 O 0.87206 0.05606 0.60919 0.0
C55 C 0.60649 0.0598 0.55726 0.0
O56 O 0.55487 0.80693 0.54076 0.0
O57 O 0.69613 0.77898 0.55751 0.0
O58 O 0.8816 -0.04182 0.57124 0.0
O59 O 0.95046 0.13506 0.55627 0.0
O60 O 0.79434 0.19282 0.52148 0.0
O61 O 0.74358 0.03152 0.51525 0.0
C62 C 0.79739 -0.02994 0.61829 0.0
O63 O 0.99946 0.27112 0.58773 0.0
O64 O 0.86471 0.31087 0.56524 0.0
C65 C 0.56603 0.71772 0.5164 0.0
C66 C 0.4984 0.68284 0.46165 0.0
C67 C 0.42841 0.6314 0.47829 0.0
C68 C 0.46204 0.64872 0.50542 0.0
C69 C 0.63701 0.76679 0.50024 0.0
C70 C 0.60381 0.74892 0.47327 0.0
C71 C 0.596 0.74763 0.54292 0.0
H72 H 0.15803 0.53043 0.65163 0.0
H73 H 0.12139 0.49871 0.60594 0.0
H74 H 0.83773 0.22721 0.61838 0.0
H75 H 0.8714 0.25985 0.66343 0.0
H76 H 0.34639 0.58105 0.46995 0.0
H77 H 0.40567 0.61124 0.51739 0.0
H78 H 0.71744 0.82142 0.50807 0.0
H79 H 0.66051 0.78843 0.46135 0.0
Tb80 Tb 0.80417 0.84485 0.87176 0.0
Eu81 Eu 0.94877 0.71789 0.88976 0.0
C82 C 0.04759 -0.04385 0.88459 0.0
C83 C 0.85351 0.81953 0.82427 0.0
C84 C 0.64023 0.92527 0.88145 0.0
C85 C 0.60015 0.00542 0.90365 0.0
C86 C 0.63119 0.01064 0.8819 0.0
C87 C 0.61323 0.83315 0.9022 0.0
C88 C 0.58239 0.82791 0.92384 0.0
C89 C 0.57886 0.91497 0.92535 0.0
C90 C 0.69325 0.93644 0.86253 0.0
O91 O 0.71315 0.6815 0.88656 0.0
O92 O 0.77875 0.61923 0.87 0.0
O93 O 0.91302 0.68516 0.92994 0.0
O94 O 0.86671 0.81994 0.9182 0.0
C95 C 0.70305 0.60812 0.87768 0.0
O96 O 0.97258 0.57524 0.90524 0.0
O97 O 0.09818 0.72238 0.8937 0.0
O98 O 0.05271 0.87048 0.9026 0.0
O99 O 0.95786 -0.04437 0.8654 0.0
O100 O 0.783 0.82286 0.83118 0.0
O101 O 0.93364 0.79859 0.84364 0.0
C102 C 0.89166 0.74338 0.93697 0.0
O103 O 0.79647 -0.02375 0.87224 0.0
O104 O 0.65692 0.85521 0.85268 0.0
C105 C 0.07545 0.57931 0.8817 0.0
C106 C 0.09524 0.52204 0.84113 0.0
C107 C 0.99771 0.47636 0.8467 0.0
C108 C 0.98771 0.50502 0.86668 0.0
C109 C 0.17421 0.62091 0.87722 0.0
C110 C 0.18395 0.59297 0.85702 0.0
C111 C 0.06329 0.62162 0.89981 0.0
H112 H 0.59868 0.07389 0.90437 0.0
H113 H 0.65314 0.08279 0.86628 0.0
H114 H 0.62083 0.76659 0.90251 0.0
H115 H 0.56493 0.75669 0.94 0.0
H116 H 0.92771 0.42227 0.83459 0.0
H117 H 0.91032 0.47182 0.86952 0.0
H118 H 0.24305 0.67813 0.88858 0.0
H119 H 0.26033 0.62862 0.85337 0.0
H120 H 0.97711 0.83777 0.21436 0.0
H121 H 0.2901 0.44946 0.20146 0.0
H122 H 0.24257 0.02331 0.18005 0.0
H123 H 0.96645 0.28008 0.20427 0.0
H124 H 0.28538 0.29077 0.19947 0.0
H125 H 0.98243 -0.00351 0.2163 0.0
C126 C 1.03642 0.91188 0.20719 0.0
C127 C 0.10933 0.91725 0.19695 0.0
C128 C 0.21552 0.28856 0.20053 0.0
C129 C 0.1167 0.09907 0.1995 0.0
C130 C 0.21834 0.37885 0.20185 0.0
C131 C 0.1285 0.37807 0.20302 0.0
C132 C 0.1228 0.1965 0.20084 0.0
C133 C 1.03742 0.28443 0.20327 0.0
C134 C 1.03925 0.00241 0.20826 0.0
C135 C 0.18439 0.01553 0.18792 0.0
N136 N 1.03707 0.1974 0.20232 0.0
N137 N 0.18663 0.10253 0.1896 0.0
H138 H 0.40077 0.92188 0.53963 0.0
H139 H 0.15146 0.20971 0.56586 0.0
H140 H 0.59172 0.19336 0.57538 0.0
H141 H 0.98519 0.88684 0.56214 0.0
H142 H 0.30917 0.21326 0.56399 0.0
H143 H 0.24259 0.91659 0.54199 0.0
C144 C 0.4094 -0.01919 0.54778 0.0
C145 C 0.50963 0.05835 0.55729 0.0
C146 C 0.23832 0.14155 0.56369 0.0
C147 C 0.32906 0.05262 0.55998 0.0
C148 C 0.14814 0.13945 0.56468 0.0
C149 C 0.05502 0.04774 0.56417 0.0
C150 C 0.23508 0.05178 0.56172 0.0
C151 C 0.0555 -0.041 0.56274 0.0
C152 C 0.31918 -0.02276 0.54929 0.0
C153 C 0.51608 0.13216 0.56786 0.0
N154 N 0.14399 -0.0366 0.56134 0.0
N155 N 0.42697 0.12777 0.56879 0.0
H156 H 0.2258 0.01181 0.92913 0.0
H157 H 0.59527 0.48219 0.8401 0.0
H158 H 0.09189 0.11543 0.83908 0.0
H159 H 0.59861 0.51133 0.91742 0.0
H160 H 0.4336 0.32012 0.84167 0.0
H161 H 0.38959 0.17056 0.9276 0.0
C162 C 0.23102 0.06793 0.90909 0.0
C163 C 0.14538 0.05149 0.88423 0.0
C164 C 0.47051 0.36232 0.85826 0.0
C165 C 0.33173 0.22985 0.8823 0.0
C166 C 0.56232 0.45385 0.85746 0.0
C167 C 0.60912 0.50957 0.87859 0.0
C168 C 0.42832 0.3255 0.88082 0.0
C169 C 0.56385 0.47052 0.90064 0.0
C170 C 0.32394 0.15798 0.90828 0.0
C171 C 0.15594 0.12612 0.85875 0.0
N172 N 0.4762 0.37996 0.90137 0.0
N173 N 0.24816 0.21201 0.85836 0.0
H174 H 0.45552 -0.00958 0.92803 0.0
H175 H 0.61756 0.82973 0.09859 0.0
H176 H 0.66747 0.83843 0.98083 0.0
H177 H 0.38032 -0.04772 1.04718 0.0
H178 H 0.64476 0.84383 0.05531 0.0
H179 H 0.43335 -0.01268 0.97112 0.0
C180 C 0.49734 -0.04348 0.94866 0.0
C181 C 0.5625 0.9136 0.95085 0.0
C182 C 0.58684 0.8679 0.05345 0.0
C183 C 0.53803 0.91012 1.00008 0.0
C184 C 0.5719 0.86058 0.0782 0.0
C185 C 0.49646 0.88971 0.07652 0.0
C186 C 0.52617 0.90492 1.02674 0.0
C187 C 0.43838 0.9277 0.04944 0.0
C188 C 0.48449 -0.04551 0.97321 0.0
C189 C 0.61476 0.8705 0.97809 0.0
N190 N 0.45438 0.93415 1.0256 0.0
N191 N 0.60141 0.86994 1.00157 0.0
H192 H 0.65696 0.02565 0.46269 0.0
H193 H 0.92546 0.48942 0.34763 0.0
H194 H 0.86313 0.33336 0.47813 0.0
H195 H 0.63697 0.22084 0.32576 0.0
H196 H 0.9123 0.43265 0.39595 0.0
H197 H 0.65809 0.09327 0.41318 0.0
C198 C 0.70213 0.10773 0.45565 0.0
C199 C 0.76009 0.17395 0.47468 0.0
C200 C 0.85165 0.38668 0.38046 0.0
C201 C 0.76258 0.25183 0.41781 0.0
C202 C 0.85863 0.41926 0.35274 0.0
C203 C 0.78254 0.35978 0.33232 0.0
C204 C 0.76883 0.29317 0.38808 0.0
C205 C 0.69906 0.26842 0.3407 0.0
C206 C 0.70244 0.14632 0.42729 0.0
C207 C 0.81688 0.27962 0.4642 0.0
N208 N 0.69505 0.23767 0.36789 0.0
N209 N 0.81762 0.31516 0.43653 0.0
H210 H 1.01093 0.8839 0.80172 0.0
H211 H 0.63767 0.83755 0.64324 0.0
H212 H 0.67635 0.80414 0.77752 0.0
H213 H 0.9719 0.03725 0.6629 0.0
H214 H 0.6491 0.80029 0.69335 0.0
H215 H 0.99661 0.91711 0.75183 0.0
C216 C 0.93426 0.87312 0.78591 0.0
C217 C 0.84464 0.84126 0.79385 0.0
C218 C 0.71982 0.85194 0.68664 0.0
C219 C 0.82768 0.87815 0.73659 0.0
C220 C 0.71366 0.87258 0.65812 0.0
C221 C 0.80412 0.94024 0.64885 0.0
C222 C 0.81748 0.89785 0.70612 0.0
C223 C 0.90015 -0.01552 0.66905 0.0
C224 C 0.92633 0.89248 0.75741 0.0
C225 C 0.74755 0.82914 0.77234 0.0
N226 N 0.90439 -0.0379 0.6967 0.0
N227 N 0.74142 0.84684 0.74469 0.0
H228 H 0.83699 0.83373 0.95998 0.0
H229 H 1.03864 0.53544 0.11921 0.0
H230 H 0.9545 0.60284 0.98273 0.0
H231 H 0.90057 0.74563 0.09999 0.0
H232 H 0.99342 0.55076 0.06854 0.0
H233 H 0.84823 0.79771 1.00999 0.0
C234 C 0.86523 0.77558 0.97542 0.0
C235 C 0.89601 0.72207 0.96705 0.0
C236 C 0.9713 0.59268 0.07518 0.0
C237 C 0.90816 0.68005 1.02433 0.0
C238 C 0.99661 0.58338 0.10418 0.0
C239 C 0.97281 0.63895 0.11376 0.0
C240 C 0.92329 0.65978 0.0553 0.0
C241 C 0.91908 0.70056 0.09341 0.0
C242 C 0.87106 0.75475 1.00396 0.0
C243 C 0.93056 0.64671 0.98803 0.0
N244 N 0.89731 0.71054 0.06504 0.0
N245 N 0.93615 0.62855 1.01556 0.0
H246 H 0.40093 0.79876 0.28159 0.0
H247 H 0.35524 0.50895 0.43958 0.0
H248 H 0.14868 0.50082 0.30072 0.0
H249 H 0.55379 0.83321 0.41524 0.0
H250 H 0.29028 0.49679 0.38992 0.0
H251 H 0.47132 0.80375 0.3318 0.0
C252 C 0.36065 0.73393 0.29635 0.0
C253 C 0.26856 0.64925 0.28683 0.0
C254 C 0.34838 0.5704 0.39554 0.0
C255 C 0.34896 0.65477 0.34451 0.0
C256 C 0.38523 0.57761 0.42388 0.0
C257 C 0.46054 0.67222 0.43178 0.0
C258 C 0.38749 0.65822 0.37493 0.0
C259 C 0.49746 0.75807 0.41043 0.0
C260 C 0.40076 0.73709 0.32504 0.0
C261 C 0.21981 0.56775 0.30704 0.0
N262 N 0.46065 0.74893 0.38308 0.0
N263 N 0.26058 0.57256 0.33493 0.0
H264 H 0.19048 0.66401 0.80016 0.0
H265 H 0.98808 0.25102 0.71066 0.0
H266 H 1.0124 0.3359 0.8271 0.0
H267 H 0.10107 0.58181 0.67647 0.0
H268 H 1.01875 0.27955 0.75606 0.0
H269 H 0.18375 0.6334 0.75781 0.0
C270 C 0.15143 0.58526 0.79739 0.0
C271 C 0.10151 0.50238 0.81712 0.0
C272 C 1.03709 0.34585 0.73864 0.0
C273 C 0.09228 0.46699 0.76849 0.0
C274 C 1.01896 0.32969 0.71261 0.0
C275 C 1.04089 0.41411 0.68949 0.0
C276 C 0.0781 0.44721 0.74173 0.0
C277 C 0.08361 0.51437 0.69366 0.0
C278 C 0.14681 0.56797 0.77308 0.0
C279 C 0.05079 0.40212 0.81224 0.0
N280 N 0.10042 0.52805 0.71921 0.0
N281 N 0.04716 0.38724 0.78836 0.0
loop_
_geom_bond_atom_site_label_1
_geom_bond_atom_site_label_2
_geom_bond_distance
_geom_bond_site_symmetry_2
_ccdc_geom_bond_type
Tb0 C10 2.825 . S
Tb0 O11 2.347 . S
Tb0 O14 2.366 1_655 S
Tb0 O19 2.418 . S
Tb0 O20 2.384 . S
Tb0 O23 2.479 . S
Tb0 O24 2.471 . S
Eu1 O12 2.418 . S
Eu1 O13 2.384 . S
Eu1 O16 2.479 . S
Eu1 O17 2.471 . S
Eu1 O18 2.347 . S
Eu1 O21 2.366 1_455 S
Eu1 C31 2.825 . S
C2 O18 1.259 1_655 S
C2 O19 1.265 . S
C3 O20 1.255 . S
C3 O21 1.265 . S
C4 C6 1.380 . S
C4 C7 1.374 . S
C4 C10 1.507 . S
C5 C6 1.384 . S
C5 C9 1.387 . S
C5 H32 0.930 . S
C6 C4 1.380 . S
C6 C5 1.384 . S
C6 H33 0.931 . S
C7 C4 1.374 . S
C7 C8 1.390 . S
C7 H34 0.930 . S
C8 C7 1.390 . S
C8 C9 1.391 . S
C8 H35 0.930 . S
C9 C5 1.387 . S
C9 C8 1.391 . S
C10 Tb0 2.825 . S
C10 C4 1.507 . S
C10 O23 1.238 . S
C10 O24 1.247 . S
O11 Tb0 2.347 . S
O11 C15 1.259 1_655 S
O12 Eu1 2.418 . S
O12 C15 1.265 . S
O13 Eu1 2.384 . S
O13 C22 1.255 . S
O14 Tb0 2.366 1_455 S
O14 C22 1.265 . S
C15 O11 1.259 1_455 S
C15 O12 1.265 . S
O16 Eu1 2.479 . S
O16 C31 1.238 . S
O17 Eu1 2.471 . S
O17 C31 1.247 . S
O18 Eu1 2.347 . S
O18 C2 1.259 1_455 S
O19 Tb0 2.418 . S
O19 C2 1.265 . S
O20 Tb0 2.384 . S
O20 C3 1.255 . S
O21 Eu1 2.366 1_655 S
O21 C3 1.265 . S
C22 O13 1.255 . S
C22 O14 1.265 . S
O23 Tb0 2.479 . S
O23 C10 1.238 . S
O24 Tb0 2.471 . S
O24 C10 1.247 . S
C25 C28 1.380 . S
C25 C29 1.374 . S
C25 C31 1.507 . S
C26 C27 1.387 . S
C26 C30 1.391 1_565 S
C27 C26 1.387 . S
C27 C28 1.384 . S
C27 H36 0.930 . S
C28 C25 1.380 . S
C28 C27 1.384 . S
C28 H37 0.931 . S
C29 C25 1.374 . S
C29 C30 1.390 1_565 S
C29 H38 0.930 . S
C30 C26 1.391 1_545 S
C30 C29 1.390 1_545 S
C30 H39 0.930 . S
C31 Eu1 2.825 . S
C31 O16 1.238 . S
C31 O17 1.247 . S
C31 C25 1.507 . S
H32 C5 0.930 . S
H33 C6 0.931 . S
H34 C7 0.930 . S
H35 C8 0.930 . S
H36 C27 0.930 . S
H37 C28 0.931 . S
H38 C29 0.930 . S
H39 C30 0.930 . S
Tb40 C50 2.825 . S
Tb40 O51 2.347 . S
Tb40 O54 2.366 . S
Tb40 O59 2.418 . S
Tb40 O60 2.384 . S
Tb40 O63 2.479 . S
Tb40 O64 2.471 . S
Eu41 O52 2.418 . S
Eu41 O53 2.384 . S
Eu41 O56 2.479 . S
Eu41 O57 2.471 . S
Eu41 O58 2.347 . S
Eu41 O61 2.367 . S
Eu41 C71 2.825 . S
C42 O58 1.259 1_545 S
C42 O59 1.265 . S
C43 O60 1.255 . S
C43 O61 1.264 1_545 S
C44 C46 1.380 1_655 S
C44 C47 1.374 . S
C44 C50 1.507 . S
C45 C46 1.384 . S
C45 C49 1.387 1_455 S
C45 H72 0.930 . S
C46 C44 1.380 1_455 S
C46 C45 1.384 . S
C46 H73 0.931 . S
C47 C44 1.374 . S
C47 C48 1.390 . S
C47 H74 0.930 . S
C48 C47 1.390 . S
C48 C49 1.391 . S
C48 H75 0.930 . S
C49 C45 1.387 1_655 S
C49 C48 1.391 . S
C50 Tb40 2.825 . S
C50 C44 1.507 . S
C50 O63 1.238 . S
C50 O64 1.247 . S
O51 Tb40 2.347 . S
O51 C55 1.259 1_545 S
O52 Eu41 2.418 . S
O52 C55 1.265 . S
O53 Eu41 2.384 . S
O53 C62 1.255 . S
O54 Tb40 2.366 . S
O54 C62 1.265 1_545 S
C55 O51 1.259 1_565 S
C55 O52 1.265 . S
O56 Eu41 2.479 . S
O56 C71 1.238 . S
O57 Eu41 2.471 . S
O57 C71 1.247 . S
O58 Eu41 2.347 . S
O58 C42 1.259 1_565 S
O59 Tb40 2.418 . S
O59 C42 1.265 . S
O60 Tb40 2.384 . S
O60 C43 1.255 . S
O61 Eu41 2.367 . S
O61 C43 1.264 1_565 S
C62 O53 1.255 . S
C62 O54 1.265 1_565 S
O63 Tb40 2.479 . S
O63 C50 1.238 . S
O64 Tb40 2.471 . S
O64 C50 1.247 . S
C65 C68 1.380 . S
C65 C69 1.374 . S
C65 C71 1.507 . S
C66 C67 1.387 . S
C66 C70 1.391 . S
C67 C66 1.387 . S
C67 C68 1.384 . S
C67 H76 0.930 . S
C68 C65 1.380 . S
C68 C67 1.384 . S
C68 H77 0.931 . S
C69 C65 1.374 . S
C69 C70 1.390 . S
C69 H78 0.930 . S
C70 C66 1.391 . S
C70 C69 1.390 . S
C70 H79 0.930 . S
C71 Eu41 2.825 . S
C71 O56 1.238 . S
C71 O57 1.247 . S
C71 C65 1.507 . S
H72 C45 0.930 . S
H73 C46 0.931 . S
H74 C47 0.930 . S
H75 C48 0.930 . S
H76 C67 0.930 . S
H77 C68 0.931 . S
H78 C69 0.930 . S
H79 C70 0.930 . S
Tb80 C90 2.825 . S
Tb80 O91 2.347 1_545 S
Tb80 O94 2.366 1_545 S
Tb80 O99 2.418 1_655 S
Tb80 O100 2.384 . S
Tb80 O103 2.479 . S
Tb80 O104 2.471 1_545 S
Eu81 O92 2.418 . S
Eu81 O93 2.384 . S
Eu81 O96 2.479 . S
Eu81 O97 2.471 1_655 S
Eu81 O98 2.347 1_665 S
Eu81 O101 2.366 . S
Eu81 C111 2.825 1_655 S
C82 O98 1.259 . S
C82 O99 1.265 . S
C83 O100 1.255 1_565 S
C83 O101 1.265 . S
C84 C86 1.380 . S
C84 C87 1.374 1_545 S
C84 C90 1.507 . S
C85 C86 1.384 . S
C85 C89 1.387 . S
C85 H112 0.930 . S
C86 C84 1.380 . S
C86 C85 1.384 . S
C86 H113 0.931 . S
C87 C84 1.374 1_565 S
C87 C88 1.390 . S
C87 H114 0.930 . S
C88 C87 1.390 . S
C88 C89 1.391 1_565 S
C88 H115 0.930 . S
C89 C85 1.387 . S
C89 C88 1.391 1_545 S
C90 Tb80 2.825 . S
C90 C84 1.507 . S
C90 O103 1.238 . S
C90 O104 1.247 1_545 S
O91 Tb80 2.347 1_565 S
O91 C95 1.259 . S
O92 Eu81 2.418 . S
O92 C95 1.265 . S
O93 Eu81 2.384 . S
O93 C102 1.255 . S
O94 Tb80 2.366 1_565 S
O94 C102 1.265 . S
C95 O91 1.259 . S
C95 O92 1.265 . S
O96 Eu81 2.479 . S
O96 C111 1.238 1_655 S
O97 Eu81 2.471 1_455 S
O97 C111 1.247 . S
O98 Eu81 2.347 1_445 S
O98 C82 1.259 . S
O99 Tb80 2.418 1_455 S
O99 C82 1.265 . S
O100 Tb80 2.384 . S
O100 C83 1.255 1_545 S
O101 Eu81 2.366 . S
O101 C83 1.265 . S
C102 O93 1.255 . S
C102 O94 1.265 . S
O103 Tb80 2.479 . S
O103 C90 1.238 . S
O104 Tb80 2.471 1_565 S
O104 C90 1.247 1_565 S
C105 C108 1.380 . S
C105 C109 1.374 . S
C105 C111 1.507 . S
C106 C107 1.387 . S
C106 C110 1.391 . S
C107 C106 1.387 . S
C107 C108 1.384 . S
C107 H116 0.930 . S
C108 C105 1.380 . S
C108 C107 1.384 . S
C108 H117 0.931 1_455 S
C109 C105 1.374 . S
C109 C110 1.390 . S
C109 H118 0.930 . S
C110 C106 1.391 . S
C110 C109 1.390 . S
C110 H119 0.930 . S
C111 Eu81 2.825 1_455 S
C111 O96 1.238 1_455 S
C111 O97 1.247 . S
C111 C105 1.507 . S
H112 C85 0.930 . S
H113 C86 0.931 . S
H114 C87 0.930 . S
H115 C88 0.930 . S
H116 C107 0.930 . S
H117 C108 0.931 1_655 S
H118 C109 0.930 . S
H119 C110 0.930 . S
H120 C126 0.930 . S
H121 C130 0.930 . S
H122 C135 0.929 1_565 S
H123 C133 0.929 . S
H124 C128 0.929 . S
H125 C134 0.929 . S
C126 H120 0.930 . S
C126 C127 1.367 1_645 S
C126 C134 1.378 . S
C127 C126 1.367 1_465 S
C127 C135 1.433 1_565 S
C128 H124 0.929 . S
C128 C130 1.378 . S
C128 C132 1.350 1_455 S
C129 C132 1.460 1_455 S
C129 C134 1.350 1_455 S
C129 N137 1.429 . S
C130 H121 0.930 . S
C130 C128 1.378 . S
C130 C131 1.367 1_455 S
C131 C130 1.367 1_655 S
C131 C133 1.433 . S
C132 C128 1.350 1_655 S
C132 C129 1.460 1_655 S
C132 N136 1.427 . S
C133 H123 0.929 . S
C133 C131 1.433 . S
C133 N136 1.384 . S
C134 H125 0.929 . S
C134 C126 1.378 . S
C134 C129 1.350 1_655 S
C135 H122 0.929 1_545 S
C135 C127 1.433 1_545 S
C135 N137 1.384 . S
N136 C132 1.427 . S
N136 C133 1.384 . S
N137 C129 1.429 . S
N137 C135 1.384 . S
H138 C144 0.930 . S
H139 C148 0.930 . S
H140 C153 0.929 . S
H141 C151 0.929 1_655 S
H142 C146 0.929 . S
H143 C152 0.929 . S
C144 H138 0.930 . S
C144 C145 1.367 1_565 S
C144 C152 1.378 . S
C145 C144 1.367 1_545 S
C145 C153 1.433 . S
C146 H142 0.929 . S
C146 C148 1.378 . S
C146 C150 1.350 . S
C147 C150 1.463 . S
C147 C152 1.350 1_545 S
C147 N155 1.427 . S
C148 H139 0.930 . S
C148 C146 1.378 . S
C148 C149 1.367 . S
C149 C148 1.367 . S
C149 C151 1.431 1_545 S
C150 C146 1.350 . S
C150 C147 1.463 . S
C150 N154 1.427 1_545 S
C151 H141 0.929 1_455 S
C151 C149 1.431 1_565 S
C151 N154 1.384 . S
C152 H143 0.929 . S
C152 C144 1.378 . S
C152 C147 1.350 1_565 S
C153 H140 0.929 . S
C153 C145 1.433 . S
C153 N155 1.384 . S
N154 C150 1.427 1_565 S
N154 C151 1.384 . S
N155 C147 1.427 . S
N155 C153 1.384 . S
H156 C162 0.930 . S
H157 C166 0.930 . S
H158 C171 0.929 . S
H159 C169 0.929 . S
H160 C164 0.929 . S
H161 C170 0.929 . S
C162 H156 0.930 . S
C162 C163 1.367 . S
C162 C170 1.378 . S
C163 C162 1.367 . S
C163 C171 1.433 . S
C164 H160 0.929 . S
C164 C166 1.378 . S
C164 C168 1.350 . S
C165 C168 1.463 . S
C165 C170 1.350 . S
C165 N173 1.427 . S
C166 H157 0.930 . S
C166 C164 1.378 . S
C166 C167 1.367 . S
C167 C166 1.367 . S
C167 C169 1.433 . S
C168 C164 1.350 . S
C168 C165 1.463 . S
C168 N172 1.427 . S
C169 H159 0.929 . S
C169 C167 1.433 . S
C169 N172 1.384 . S
C170 H161 0.929 . S
C170 C162 1.378 . S
C170 C165 1.350 . S
C171 H158 0.929 . S
C171 C163 1.433 . S
C171 N173 1.384 . S
N172 C168 1.427 . S
N172 C169 1.384 . S
N173 C165 1.427 . S
N173 C171 1.384 . S
H174 C180 0.930 . S
H175 C184 0.930 . S
H176 C189 0.929 . S
H177 C187 0.929 . S
H178 C182 0.929 . S
H179 C188 0.929 . S
C180 H174 0.930 . S
C180 C181 1.367 . S
C180 C188 1.378 . S
C181 C180 1.367 . S
C181 C189 1.433 1_545 S
C182 H178 0.929 . S
C182 C184 1.378 1_556 S
C182 C186 1.350 1_565 S
C183 C186 1.463 . S
C183 C188 1.350 . S
C183 N191 1.427 1_545 S
C184 H175 0.930 . S
C184 C182 1.378 1_554 S
C184 C185 1.367 1_565 S
C185 C184 1.367 1_545 S
C185 C187 1.433 . S
C186 C182 1.350 1_545 S
C186 C183 1.463 . S
C186 N190 1.427 . S
C187 H177 0.929 . S
C187 C185 1.433 . S
C187 N190 1.384 1_554 S
C188 H179 0.929 . S
C188 C180 1.378 . S
C188 C183 1.350 . S
C189 H176 0.929 . S
C189 C181 1.433 1_565 S
C189 N191 1.384 . S
N190 C186 1.427 . S
N190 C187 1.384 1_556 S
N191 C183 1.427 1_565 S
N191 C189 1.384 . S
H192 C198 0.930 . S
H193 C202 0.930 . S
H194 C207 0.929 . S
H195 C205 0.929 . S
H196 C200 0.929 . S
H197 C206 0.929 . S
C198 H192 0.930 . S
C198 C199 1.367 . S
C198 C206 1.378 . S
C199 C198 1.367 . S
C199 C207 1.433 . S
C200 H196 0.929 . S
C200 C202 1.378 . S
C200 C204 1.350 . S
C201 C204 1.463 . S
C201 C206 1.350 . S
C201 N209 1.427 . S
C202 H193 0.930 . S
C202 C200 1.378 . S
C202 C203 1.367 . S
C203 C202 1.367 . S
C203 C205 1.433 . S
C204 C200 1.350 . S
C204 C201 1.463 . S
C204 N208 1.427 . S
C205 H195 0.929 . S
C205 C203 1.433 . S
C205 N208 1.384 . S
C206 H197 0.929 . S
C206 C198 1.378 . S
C206 C201 1.350 . S
C207 H194 0.929 . S
C207 C199 1.433 . S
C207 N209 1.384 . S
N208 C204 1.427 . S
N208 C205 1.384 . S
N209 C201 1.427 . S
N209 C207 1.384 . S
H210 C216 0.930 . S
H211 C220 0.930 . S
H212 C225 0.929 . S
H213 C223 0.929 1_545 S
H214 C218 0.929 . S
H215 C224 0.929 . S
C216 H210 0.930 . S
C216 C217 1.367 1_545 S
C216 C224 1.378 . S
C217 C216 1.367 1_565 S
C217 C225 1.433 . S
C218 H214 0.929 . S
C218 C220 1.378 . S
C218 C222 1.350 . S
C219 C222 1.463 . S
C219 C224 1.350 1_565 S
C219 N227 1.427 . S
C220 H211 0.930 . S
C220 C218 1.378 . S
C220 C221 1.367 . S
C221 C220 1.367 . S
C221 C223 1.433 . S
C222 C218 1.350 . S
C222 C219 1.463 . S
C222 N226 1.427 . S
C223 H213 0.929 1_565 S
C223 C221 1.433 . S
C223 N226 1.384 . S
C224 H215 0.929 . S
C224 C216 1.378 . S
C224 C219 1.350 1_545 S
C225 H212 0.929 . S
C225 C217 1.433 . S
C225 N227 1.384 . S
N226 C222 1.427 . S
N226 C223 1.384 . S
N227 C219 1.427 . S
N227 C225 1.384 . S
H228 C234 0.930 1_455 S
H229 C238 0.930 . S
H230 C243 0.929 . S
H231 C241 0.929 . S
H232 C236 0.929 . S
H233 C242 0.929 . S
C234 H228 0.930 1_655 S
C234 C235 1.367 . S
C234 C242 1.378 . S
C235 C234 1.367 . S
C235 C243 1.433 . S
C236 H232 0.929 . S
C236 C238 1.378 . S
C236 C240 1.350 . S
C237 C240 1.463 1_556 S
C237 C242 1.350 . S
C237 N245 1.427 . S
C238 H229 0.930 . S
C238 C236 1.378 . S
C238 C239 1.367 . S
C239 C238 1.367 . S
C239 C241 1.433 . S
C240 C236 1.350 . S
C240 C237 1.463 1_554 S
C240 N244 1.427 . S
C241 H231 0.929 . S
C241 C239 1.433 . S
C241 N244 1.384 . S
C242 H233 0.929 . S
C242 C234 1.378 . S
C242 C237 1.350 . S
C243 H230 0.929 . S
C243 C235 1.433 . S
C243 N245 1.384 . S
N244 C240 1.427 . S
N244 C241 1.384 . S
N245 C237 1.427 . S
N245 C243 1.384 . S
H246 C252 0.930 . S
H247 C256 0.930 . S
H248 C261 0.929 . S
H249 C259 0.929 . S
H250 C254 0.929 . S
H251 C260 0.929 . S
C252 H246 0.930 . S
C252 C253 1.367 . S
C252 C260 1.378 . S
C253 C252 1.367 . S
C253 C261 1.433 . S
C254 H250 0.929 . S
C254 C256 1.378 . S
C254 C258 1.350 . S
C255 C258 1.463 . S
C255 C260 1.350 . S
C255 N263 1.427 . S
C256 H247 0.930 . S
C256 C254 1.378 . S
C256 C257 1.367 . S
C257 C256 1.367 . S
C257 C259 1.433 . S
C258 C254 1.350 . S
C258 C255 1.463 . S
C258 N262 1.427 . S
C259 H249 0.929 . S
C259 C257 1.433 . S
C259 N262 1.384 . S
C260 H251 0.929 . S
C260 C252 1.378 . S
C260 C255 1.350 . S
C261 H248 0.929 . S
C261 C253 1.433 . S
C261 N263 1.384 . S
N262 C258 1.427 . S
N262 C259 1.384 . S
N263 C255 1.427 . S
N263 C261 1.384 . S
H264 C270 0.930 . S
H265 C274 0.930 . S
H266 C279 0.929 . S
H267 C277 0.929 1_655 S
H268 C272 0.929 . S
H269 C278 0.929 . S
C270 H264 0.930 . S
C270 C271 1.367 . S
C270 C278 1.378 . S
C271 C270 1.367 . S
C271 C279 1.433 . S
C272 H268 0.929 . S
C272 C274 1.378 . S
C272 C276 1.350 . S
C273 C276 1.463 . S
C273 C278 1.350 . S
C273 N281 1.427 . S
C274 H265 0.930 . S
C274 C272 1.378 . S
C274 C275 1.367 1_455 S
C275 C274 1.367 1_655 S
C275 C277 1.433 1_655 S
C276 C272 1.350 . S
C276 C273 1.463 . S
C276 N280 1.427 . S
C277 H267 0.929 1_455 S
C277 C275 1.433 1_455 S
C277 N280 1.384 . S
C278 H269 0.929 . S
C278 C270 1.378 . S
C278 C273 1.350 . S
C279 H266 0.929 . S
C279 C271 1.433 . S
C279 N281 1.384 . S
N280 C276 1.427 . S
N280 C277 1.384 . S
N281 C273 1.427 . S
N281 C279 1.384 . S
C127 C2 1.579 1_455 S
C131 C15 1.579 1_655 S
C145 C55 1.654 1_545 S
C149 C42 1.657 1_455 S
C163 C82 1.365 . S
C167 C95 1.365 . S
C181 C89 0.987 . S
C185 C26 0.954 1_545 S
C199 C43 1.890 . S
C203 C9 1.845 . S
C217 C83 2.426 . S
C221 C62 2.393 . S
C235 C102 2.355 . S
C239 C3 2.314 . S
C253 C22 1.867 . S
C257 C66 1.759 . S
C271 C106 1.022 . S
C275 C49 1.058 . S
