# Generated by pormake.
# Topology ukh, (4)-cn, num edge types: 1
# Building blocks:
#     Node 0, Type 0, BuildingBlock: UXUYUI_clean_sbu_0, # of connection points: 4
#     Node 1, Type 0, BuildingBlock: UXUYUI_clean_sbu_0, # of connection points: 4
#     Node 2, Type 0, BuildingBlock: UXUYUI_clean_sbu_0, # of connection points: 4
#     Node 3, Type 0, BuildingBlock: UXUYUI_clean_sbu_0, # of connection points: 4
#     Node 4, Type 0, BuildingBlock: UXUYUI_clean_sbu_0, # of connection points: 4
#     Node 5, Type 0, BuildingBlock: UXUYUI_clean_sbu_0, # of connection points: 4
#     Node 6, Type 0, BuildingBlock: UXUYUI_clean_sbu_0, # of connection points: 4
#     Node 7, Type 0, BuildingBlock: UXUYUI_clean_sbu_0, # of connection points: 4
#     Node 8, Type 0, BuildingBlock: UXUYUI_clean_sbu_0, # of connection points: 4
#     Node 9, Type 0, BuildingBlock: UXUYUI_clean_sbu_0, # of connection points: 4
#     Node 10, Type 0, BuildingBlock: UXUYUI_clean_sbu_0, # of connection points: 4
#     Node 11, Type 0, BuildingBlock: UXUYUI_clean_sbu_0, # of connection points: 4
#     Edge 12, Type (0, 0), BuildingBlock: KIFKEQ_clean_linker_1, # of connection points: 2
#     Edge 13, Type (0, 0), BuildingBlock: KIFKEQ_clean_linker_1, # of connection points: 2
#     Edge 14, Type (0, 0), BuildingBlock: KIFKEQ_clean_linker_1, # of connection points: 2
#     Edge 15, Type (0, 0), BuildingBlock: KIFKEQ_clean_linker_1, # of connection points: 2
#     Edge 16, Type (0, 0), BuildingBlock: KIFKEQ_clean_linker_1, # of connection points: 2
#     Edge 17, Type (0, 0), BuildingBlock: KIFKEQ_clean_linker_1, # of connection points: 2
#     Edge 18, Type (0, 0), BuildingBlock: KIFKEQ_clean_linker_1, # of connection points: 2
#     Edge 19, Type (0, 0), BuildingBlock: KIFKEQ_clean_linker_1, # of connection points: 2
#     Edge 20, Type (0, 0), BuildingBlock: KIFKEQ_clean_linker_1, # of connection points: 2
#     Edge 21, Type (0, 0), BuildingBlock: KIFKEQ_clean_linker_1, # of connection points: 2
#     Edge 22, Type (0, 0), BuildingBlock: KIFKEQ_clean_linker_1, # of connection points: 2
#     Edge 23, Type (0, 0), BuildingBlock: KIFKEQ_clean_linker_1, # of connection points: 2
#     Edge 24, Type (0, 0), BuildingBlock: KIFKEQ_clean_linker_1, # of connection points: 2
#     Edge 25, Type (0, 0), BuildingBlock: KIFKEQ_clean_linker_1, # of connection points: 2
#     Edge 26, Type (0, 0), BuildingBlock: KIFKEQ_clean_linker_1, # of connection points: 2
#     Edge 27, Type (0, 0), BuildingBlock: KIFKEQ_clean_linker_1, # of connection points: 2
#     Edge 28, Type (0, 0), BuildingBlock: KIFKEQ_clean_linker_1, # of connection points: 2
#     Edge 29, Type (0, 0), BuildingBlock: KIFKEQ_clean_linker_1, # of connection points: 2
#     Edge 30, Type (0, 0), BuildingBlock: KIFKEQ_clean_linker_1, # of connection points: 2
#     Edge 31, Type (0, 0), BuildingBlock: KIFKEQ_clean_linker_1, # of connection points: 2
#     Edge 32, Type (0, 0), BuildingBlock: KIFKEQ_clean_linker_1, # of connection points: 2
#     Edge 33, Type (0, 0), BuildingBlock: KIFKEQ_clean_linker_1, # of connection points: 2
#     Edge 34, Type (0, 0), BuildingBlock: KIFKEQ_clean_linker_1, # of connection points: 2
#     Edge 35, Type (0, 0), BuildingBlock: KIFKEQ_clean_linker_1, # of connection points: 2
# Relax obj value: 0.278
# Max RMSD: 0.251
# Mean RMSD: 0.251
data_MOF--net-ukh--node1-UXUYUI_clean_sbu_0--edge1-KIFKEQ_clean_linker_1
_symmetry_space_group_name_H-M    P1
_symmetry_Int_Tables_number       1
_symmetry_cell_setting            triclinic
loop_
_symmetry_equiv_pos_as_xyz
'x, y, z'
_cell_length_a     46.503661
_cell_length_b     46.529946
_cell_length_c     90.342619
_cell_angle_alpha  90.000465
_cell_angle_beta   89.996511
_cell_angle_gamma 119.99539
loop_
_atom_site_label
_atom_site_type_symbol
_atom_site_fract_x
_atom_site_fract_y
_atom_site_fract_z
_atom_type_partial_charge
Li0 Li 0.36284 0.26029 0.04292 0.0
Li1 Li 0.33521 0.21908 0.06343 0.0
Li2 Li 0.3434 0.20223 0.03957 0.0
Li3 Li 0.30276 0.2192 0.0421 0.0
C4 C 0.40057 0.22212 0.05372 0.0
N5 N 0.44407 0.19791 0.05371 0.0
C6 C 0.40232 0.20468 0.06596 0.0
C7 C 0.42136 0.22772 0.04158 0.0
C8 C 0.42437 0.19252 0.06572 0.0
C9 C 0.44305 0.21513 0.04175 0.0
C10 C 0.30478 0.25867 0.06547 0.0
C11 C 0.25645 0.23511 0.08122 0.0
N12 N 0.25968 0.26567 0.08276 0.0
C13 C 0.30761 0.28982 0.06718 0.0
C14 C 0.27898 0.23105 0.07251 0.0
C15 C 0.28457 0.29286 0.07599 0.0
C16 C 0.37818 0.32239 0.03349 0.0
N17 N 0.39258 0.30509 0.03853 0.0
C18 C 0.44593 0.35408 0.03875 0.0
C19 C 0.42578 0.31994 0.04104 0.0
C20 C 0.43153 0.37282 0.03399 0.0
C21 C 0.39727 0.35645 0.03112 0.0
H22 H 0.35164 0.30971 0.03164 0.0
H23 H 0.43641 0.30544 0.04515 0.0
C24 C 0.32331 0.17963 0.08835 0.0
N25 N 0.3345 0.21142 0.084 0.0
C26 C 0.32341 0.1722 0.10329 0.0
C27 C 0.34612 0.23038 0.10902 0.0
C28 C 0.34569 0.23671 0.09392 0.0
C29 C 0.33513 0.19777 0.11384 0.0
H30 H 0.31485 0.16014 0.08016 0.0
H31 H 0.35462 0.26179 0.09007 0.0
C32 C 0.34662 0.23613 0.01207 0.0
N33 N 0.36745 0.24432 0.98294 0.0
C34 C 0.32336 0.22243 0.00063 0.0
C35 C 0.38043 0.25444 0.00867 0.0
C36 C 0.3344 0.22671 0.98598 0.0
C37 C 0.39048 0.25818 0.99389 0.0
C38 C 0.27817 0.15189 0.04568 0.0
C39 C 0.27332 0.14937 0.03036 0.0
C40 C 0.25836 0.12458 0.05467 0.0
C41 C 0.2488 0.11949 0.02428 0.0
C42 C 0.23406 0.09513 0.04817 0.0
N43 N 0.22983 0.09321 0.03323 0.0
C44 C 0.34845 0.14584 0.04104 0.0
C45 C 0.35161 0.16381 0.01626 0.0
C46 C 0.34714 0.11672 0.03634 0.0
N47 N 0.35011 0.16844 0.03104 0.0
C48 C 0.34974 0.13465 0.01103 0.0
C49 C 0.34647 0.11015 0.02113 0.0
H50 H 0.34646 0.14973 0.05271 0.0
H51 H 0.35237 0.18167 0.00845 0.0
C52 C 0.26567 0.23705 0.02466 0.0
N53 N 0.26234 0.21514 0.03537 0.0
C54 C 0.23778 0.23673 0.01884 0.0
C55 C 0.20337 0.19134 0.03528 0.0
C56 C 0.23206 0.19252 0.04079 0.0
C57 C 0.20607 0.21375 0.02417 0.0
H58 H 0.29014 0.25482 0.02063 0.0
H59 H 0.23019 0.17557 0.04942 0.0
O60 O 0.37882 0.23387 0.0537 0.0
O61 O 0.32696 0.25529 0.05677 0.0
O62 O 0.33616 0.23228 0.02646 0.0
O63 O 0.30228 0.18077 0.05192 0.0
H64 H 0.38673 0.20042 0.07552 0.0
H65 H 0.42062 0.24138 0.03207 0.0
H66 H 0.42581 0.1788 0.07508 0.0
H67 H 0.45908 0.21906 0.03237 0.0
H68 H 0.23635 0.21395 0.08673 0.0
H69 H 0.32739 0.31141 0.06174 0.0
H70 H 0.27627 0.2067 0.07122 0.0
H71 H 0.28645 0.31682 0.07742 0.0
H72 H 0.47221 0.36586 0.0412 0.0
H73 H 0.3853 0.36992 0.02727 0.0
H74 H 0.31434 0.14669 0.10654 0.0
H75 H 0.35563 0.25084 0.11678 0.0
H76 H 0.29704 0.20858 0.00303 0.0
H77 H 0.39871 0.26585 0.01733 0.0
H78 H 0.31668 0.21608 0.97703 0.0
H79 H 0.41658 0.27221 0.99111 0.0
H80 H 0.28839 0.17016 0.02324 0.0
H81 H 0.26169 0.12612 0.06656 0.0
H82 H 0.24487 0.11721 0.01243 0.0
H83 H 0.21856 0.07379 0.055 0.0
H84 H 0.34525 0.09892 0.04456 0.0
H85 H 0.34884 0.13059 0.9992 0.0
H86 H 0.24105 0.25411 0.01013 0.0
H87 H 0.17945 0.17347 0.03983 0.0
Li88 Li 0.0973 0.3632 0.37607 0.0
Li89 Li 0.11326 0.34003 0.39631 0.0
Li90 Li 0.13755 0.34571 0.3715 0.0
Li91 Li 0.07931 0.30373 0.37606 0.0
C92 C 0.14954 0.40859 0.39386 0.0
N93 N 0.16352 0.46226 0.4117 0.0
C94 C 0.12467 0.40825 0.40268 0.0
C95 C 0.18151 0.43619 0.39412 0.0
C96 C 0.13223 0.43563 0.41162 0.0
C97 C 0.18809 0.4631 0.40321 0.0
C98 C 0.04318 0.3137 0.40042 0.0
C99 C 0.00822 0.26686 0.41593 0.0
N100 N 0.99325 0.28349 0.4212 0.0
C101 C 0.02728 0.33024 0.4059 0.0
C102 C 0.03346 0.28168 0.40538 0.0
C103 C 0.00216 0.31459 0.41644 0.0
C104 C 0.0476 0.37636 0.36932 0.0
N105 N 0.08104 0.39201 0.37113 0.0
C106 C 0.08529 0.44488 0.36759 0.0
C107 C 0.10015 0.42555 0.37004 0.0
C108 C 0.05055 0.4294 0.36621 0.0
C109 C 0.03178 0.39461 0.36682 0.0
H110 H 0.03316 0.3496 0.37011 0.0
H111 H 0.12676 0.43734 0.37141 0.0
C112 C 0.15235 0.34203 0.41992 0.0
N113 N 0.12362 0.3417 0.41675 0.0
C114 C 0.1619 0.34241 0.43459 0.0
C115 C 0.11233 0.34261 0.44249 0.0
C116 C 0.10385 0.34244 0.42766 0.0
C117 C 0.14161 0.34241 0.4461 0.0
H118 H 0.16766 0.34163 0.411 0.0
H119 H 0.08155 0.34297 0.42491 0.0
C120 C 0.10735 0.35466 0.34668 0.0
N121 N 0.12595 0.39303 0.32134 0.0
C122 C 0.08929 0.34212 0.33361 0.0
C123 C 0.13485 0.38674 0.34689 0.0
C124 C 0.09911 0.36189 0.3209 0.0
C125 C 0.14385 0.40574 0.33396 0.0
C126 C 0.12167 0.28076 0.38938 0.0
C127 C 0.13856 0.26928 0.38058 0.0
C128 C 0.1075 0.26479 0.40275 0.0
C129 C 0.14056 0.24167 0.38519 0.0
C130 C 0.11005 0.23728 0.40697 0.0
N131 N 0.12636 0.22636 0.39818 0.0
C132 C 0.20479 0.36359 0.36884 0.0
C133 C 0.17011 0.33333 0.34867 0.0
C134 C 0.23017 0.35858 0.3635 0.0
N135 N 0.17524 0.35012 0.3616 0.0
C136 C 0.19466 0.32762 0.343 0.0
C137 C 0.22458 0.33914 0.35078 0.0
H138 H 0.20772 0.37606 0.37931 0.0
H139 H 0.14603 0.32211 0.3434 0.0
C140 C 0.0142 0.25914 0.36814 0.0
N141 N 0.04408 0.26133 0.37049 0.0
C142 C 0.98722 0.22948 0.36322 0.0
C143 C 0.02219 0.20473 0.36332 0.0
C144 C 0.04856 0.23495 0.36819 0.0
C145 C 0.99103 0.20177 0.36065 0.0
H146 H 0.01154 0.2807 0.36987 0.0
H147 H 0.07265 0.23741 0.36989 0.0
O148 O 0.14289 0.38212 0.38501 0.0
O149 O 0.06781 0.32878 0.3901 0.0
O150 O 0.09782 0.33559 0.35921 0.0
O151 O 0.11975 0.30795 0.38507 0.0
H152 H 0.09978 0.3872 0.40261 0.0
H153 H 0.20103 0.4368 0.38736 0.0
H154 H 0.11321 0.4357 0.41849 0.0
H155 H 0.21273 0.48465 0.40352 0.0
H156 H 0.00048 0.2421 0.41988 0.0
H157 H 0.03441 0.355 0.40211 0.0
H158 H 0.04508 0.26831 0.40107 0.0
H159 H 0.98975 0.32716 0.42084 0.0
H160 H 0.1007 0.47164 0.36727 0.0
H161 H 0.00505 0.38159 0.36551 0.0
H162 H 0.18456 0.34203 0.43691 0.0
H163 H 0.09629 0.34316 0.45104 0.0
H164 H 0.0679 0.31735 0.33329 0.0
H165 H 0.14912 0.39692 0.3569 0.0
H166 H 0.08537 0.3525 0.3107 0.0
H167 H 0.16507 0.43059 0.33396 0.0
H168 H 0.14984 0.2814 0.37025 0.0
H169 H 0.09492 0.27368 0.40986 0.0
H170 H 0.15342 0.23244 0.37845 0.0
H171 H 0.09915 0.22466 0.41728 0.0
H172 H 0.25279 0.36751 0.36987 0.0
H173 H 0.18954 0.31257 0.33314 0.0
H174 H 0.9639 0.22862 0.36105 0.0
H175 H 0.02622 0.18398 0.36162 0.0
Li176 Li 0.77814 0.10931 0.72867 0.0
Li177 Li 0.73898 0.10033 0.70869 0.0
Li178 Li 0.77723 0.07924 0.70677 0.0
Li179 Li 0.79704 0.13883 0.70534 0.0
C180 C 0.72703 0.05177 0.73425 0.0
N181 N 0.69975 0.02443 0.76141 0.0
C182 C 0.70015 0.05406 0.73974 0.0
C183 C 0.74 0.03552 0.74255 0.0
C184 C 0.68669 0.04006 0.75349 0.0
C185 C 0.72589 0.0219 0.75627 0.0
C186 C 0.77959 0.17475 0.72061 0.0
C187 C 0.78716 0.22574 0.71014 0.0
N188 N 0.80914 0.24308 0.72109 0.0
C189 C 0.80218 0.19304 0.73179 0.0
C190 C 0.77191 0.19117 0.70972 0.0
C191 C 0.81687 0.22758 0.73183 0.0
C192 C 0.81134 0.11361 0.75561 0.0
N193 N 0.78503 0.1143 0.74947 0.0
C194 C 0.77037 0.12735 0.77284 0.0
C195 C 0.76453 0.12083 0.75773 0.0
C196 C 0.79763 0.12721 0.77948 0.0
C197 C 0.81802 0.11982 0.7707 0.0
H198 H 0.82769 0.10913 0.74875 0.0
H199 H 0.74406 0.12168 0.75248 0.0
C200 C 0.67442 0.05467 0.70119 0.0
N201 N 0.69408 0.08738 0.7044 0.0
C202 C 0.64058 0.04152 0.6987 0.0
C203 C 0.64767 0.09604 0.70282 0.0
C204 C 0.68156 0.1082 0.70521 0.0
C205 C 0.62666 0.06218 0.69961 0.0
H206 H 0.68504 0.03863 0.70087 0.0
H207 H 0.69771 0.13404 0.70795 0.0
C208 C 0.83954 0.10687 0.71444 0.0
N209 N 0.88508 0.08651 0.70888 0.0
C210 C 0.86386 0.12273 0.70356 0.0
C211 C 0.8384 0.08065 0.72248 0.0
C212 C 0.88669 0.1121 0.70093 0.0
C213 C 0.86161 0.0707 0.71949 0.0
C214 C 0.74516 0.09484 0.68029 0.0
C215 C 0.72998 0.06258 0.67462 0.0
C216 C 0.73624 0.11737 0.67478 0.0
C217 C 0.70587 0.05332 0.6636 0.0
C218 C 0.71198 0.10713 0.66377 0.0
N219 N 0.69742 0.07558 0.65846 0.0
C220 C 0.76196 0.01264 0.70421 0.0
C221 C 0.80297 0.04983 0.68744 0.0
C222 C 0.76347 0.98591 0.69807 0.0
N223 N 0.78162 0.0438 0.69885 0.0
C224 C 0.80566 0.02389 0.68112 0.0
C225 C 0.78553 0.99142 0.68638 0.0
H226 H 0.74472 0.00848 0.71308 0.0
H227 H 0.81759 0.07473 0.68313 0.0
C228 C 0.8579 0.19659 0.70633 0.0
N229 N 0.83105 0.17965 0.69742 0.0
C230 C 0.8863 0.22442 0.70104 0.0
C231 C 0.85825 0.21815 0.67773 0.0
C232 C 0.83039 0.19009 0.68345 0.0
C233 C 0.88713 0.23522 0.68643 0.0
H234 H 0.8578 0.18744 0.71735 0.0
H235 H 0.80874 0.17605 0.67658 0.0
O236 O 0.7411 0.06602 0.72098 0.0
O237 O 0.76555 0.14099 0.72017 0.0
O238 O 0.81664 0.11659 0.71704 0.0
O239 O 0.76823 0.10416 0.69133 0.0
H240 H 0.69002 0.06686 0.73356 0.0
H241 H 0.76095 0.03373 0.73852 0.0
H242 H 0.66597 0.04176 0.75791 0.0
H243 H 0.73577 0.00939 0.76284 0.0
H244 H 0.78159 0.2388 0.70173 0.0
H245 H 0.80865 0.18077 0.74023 0.0
H246 H 0.75466 0.17741 0.70094 0.0
H247 H 0.83452 0.24207 0.74037 0.0
H248 H 0.75391 0.13271 0.77924 0.0
H249 H 0.83959 0.11999 0.77532 0.0
H250 H 0.62532 0.01519 0.69655 0.0
H251 H 0.63799 0.11287 0.70355 0.0
H252 H 0.86489 0.14272 0.69705 0.0
H253 H 0.81946 0.06773 0.73077 0.0
H254 H 0.90556 0.12408 0.69251 0.0
H255 H 0.86087 0.05032 0.72557 0.0
H256 H 0.73646 0.04477 0.6788 0.0
H257 H 0.74759 0.14236 0.67911 0.0
H258 H 0.69379 0.02838 0.65916 0.0
H259 H 0.70466 0.12423 0.65948 0.0
H260 H 0.74759 0.96119 0.70242 0.0
H261 H 0.8226 0.02902 0.67198 0.0
H262 H 0.90795 0.23611 0.70813 0.0
H263 H 0.85747 0.22577 0.66649 0.0
Li264 Li 0.66135 0.77559 0.06204 0.0
Li265 Li 0.63649 0.73544 0.04176 0.0
Li266 Li 0.69443 0.77529 0.04053 0.0
Li267 Li 0.65371 0.79172 0.03807 0.0
C268 C 0.65861 0.70975 0.06171 0.0
N269 N 0.62905 0.64554 0.07235 0.0
C270 C 0.63085 0.69767 0.07095 0.0
C271 C 0.67148 0.68925 0.05796 0.0
C272 C 0.61624 0.66513 0.07621 0.0
C273 C 0.65614 0.65684 0.06344 0.0
C274 C 0.59327 0.7653 0.04717 0.0
C275 C 0.55162 0.7567 0.02905 0.0
N276 N 0.544 0.7769 0.03694 0.0
C277 C 0.58495 0.78586 0.05513 0.0
C278 C 0.57645 0.75052 0.03404 0.0
C279 C 0.56 0.79146 0.04976 0.0
C280 C 0.65608 0.80974 0.08611 0.0
N281 N 0.66259 0.78524 0.08247 0.0
C282 C 0.67264 0.77845 0.10781 0.0
C283 C 0.67112 0.76979 0.0929 0.0
C284 C 0.66549 0.80335 0.11194 0.0
C285 C 0.65722 0.81913 0.10085 0.0
H286 H 0.65045 0.8223 0.07749 0.0
H287 H 0.67702 0.75098 0.08966 0.0
C288 C 0.6184 0.67467 0.02869 0.0
N289 N 0.60648 0.69052 0.03716 0.0
C290 C 0.59934 0.64054 0.02639 0.0
C291 C 0.55555 0.64 0.04107 0.0
C292 C 0.5756 0.67414 0.0432 0.0
C293 C 0.56765 0.62273 0.03278 0.0
H294 H 0.64323 0.68844 0.02417 0.0
H295 H 0.56707 0.68739 0.05009 0.0
C296 C 0.72254 0.832 0.05836 0.0
N297 N 0.77947 0.86887 0.07488 0.0
C298 C 0.73845 0.86664 0.05827 0.0
C299 C 0.73561 0.8161 0.06686 0.0
C300 C 0.7672 0.88484 0.06668 0.0
C301 C 0.7644 0.83519 0.07514 0.0
C302 C 0.67665 0.77905 0.01192 0.0
C303 C 0.70112 0.81259 0.01247 0.0
C304 C 0.6683 0.76246 0.99834 0.0
C305 C 0.71675 0.82896 0.99939 0.0
C306 C 0.68452 0.77971 0.98551 0.0
N307 N 0.7082 0.81233 0.98629 0.0
C308 C 0.73425 0.7529 0.02826 0.0
C309 C 0.7638 0.81089 0.03259 0.0
C310 C 0.76245 0.7542 0.02219 0.0
N311 N 0.73549 0.78088 0.03345 0.0
C312 C 0.79265 0.81336 0.02659 0.0
C313 C 0.79221 0.78472 0.02132 0.0
H314 H 0.71106 0.72963 0.02857 0.0
H315 H 0.76398 0.83303 0.03632 0.0
C316 C 0.65572 0.85195 0.03656 0.0
N317 N 0.64521 0.82338 0.02885 0.0
C318 C 0.65578 0.87902 0.02998 0.0
C319 C 0.63185 0.84595 0.00797 0.0
C320 C 0.63239 0.81947 0.01499 0.0
C321 C 0.64479 0.87664 0.0153 0.0
H322 H 0.66559 0.85417 0.04761 0.0
H323 H 0.62397 0.79631 0.00916 0.0
O324 O 0.67244 0.74115 0.05601 0.0
O325 O 0.61818 0.76013 0.05201 0.0
O326 O 0.69421 0.81405 0.05022 0.0
O327 O 0.66084 0.76223 0.02453 0.0
H328 H 0.62035 0.7131 0.07383 0.0
H329 H 0.693 0.69818 0.05088 0.0
H330 H 0.5946 0.65539 0.08328 0.0
H331 H 0.66573 0.64064 0.06057 0.0
H332 H 0.53853 0.74559 0.01886 0.0
H333 H 0.59768 0.79747 0.06531 0.0
H334 H 0.58286 0.73485 0.02765 0.0
H335 H 0.55337 0.80741 0.05579 0.0
H336 H 0.67905 0.76562 0.11601 0.0
H337 H 0.65226 0.83894 0.1035 0.0
H338 H 0.60943 0.62813 0.01985 0.0
H339 H 0.53142 0.62707 0.04634 0.0
H340 H 0.72869 0.87934 0.05173 0.0
H341 H 0.72383 0.78938 0.06709 0.0
H342 H 0.77977 0.91166 0.0667 0.0
H343 H 0.77476 0.82321 0.08176 0.0
H344 H 0.70799 0.82596 0.02282 0.0
H345 H 0.64945 0.73649 0.99774 0.0
H346 H 0.73568 0.85491 -0.00034 0.0
H347 H 0.67828 0.76717 0.97492 0.0
H348 H 0.76074 0.73163 0.01794 0.0
H349 H 0.81505 0.83739 0.02613 0.0
H350 H 0.66643 0.90218 0.03603 0.0
H351 H 0.62274 0.84286 0.99672 0.0
Li352 Li 0.89592 0.63683 0.37309 0.0
Li353 Li 0.88661 0.66599 0.39383 0.0
Li354 Li 0.85818 0.65718 0.37116 0.0
Li355 Li 0.91584 0.69598 0.37157 0.0
C356 C 0.82391 0.59781 0.38166 0.0
N357 N 0.76006 0.54967 0.37428 0.0
C358 C 0.79726 0.59245 0.39068 0.0
C359 C 0.81814 0.5786 0.36893 0.0
C360 C 0.76514 0.56802 0.38674 0.0
C361 C 0.78566 0.55439 0.36539 0.0
C362 C 0.94578 0.66127 0.39433 0.0
C363 C 0.9964 0.66513 0.40334 0.0
N364 N 0.97824 0.63631 0.41093 0.0
C365 C 0.92761 0.63165 0.4022 0.0
C366 C 0.98044 0.67813 0.39486 0.0
C367 C 0.94448 0.61945 0.41054 0.0
C368 C 0.9351 0.61587 0.35894 0.0
N369 N 0.90863 0.60531 0.36815 0.0
C370 C 0.90802 0.55444 0.3726 0.0
C371 C 0.89463 0.5751 0.37481 0.0
C372 C 0.93613 0.56514 0.36352 0.0
C373 C 0.94927 0.59604 0.35641 0.0
H374 H 0.94588 0.64025 0.35397 0.0
H375 H 0.87397 0.56769 0.38231 0.0
C376 C 0.8519 0.66635 0.4184 0.0
N377 N 0.88138 0.669 0.41457 0.0
C378 C 0.84438 0.66782 0.43322 0.0
C379 C 0.89804 0.67534 0.43994 0.0
C380 C 0.9047 0.67416 0.42494 0.0
C381 C 0.86746 0.67199 0.44421 0.0
H382 H 0.83421 0.66314 0.40988 0.0
H383 H 0.92851 0.67755 0.42165 0.0
C384 C 0.88914 0.67623 0.3436 0.0
N385 N 0.88498 0.7063 0.31795 0.0
C386 C 0.8802 0.70078 0.34425 0.0
C387 C 0.89598 0.66701 0.32991 0.0
C388 C 0.87823 0.71567 0.33116 0.0
C389 C 0.89374 0.6825 0.31706 0.0
C390 C 0.89428 0.72813 0.39025 0.0
C391 C 0.87804 0.74653 0.39082 0.0
C392 C 0.92459 0.73979 0.39759 0.0
C393 C 0.89238 0.77632 0.39873 0.0
C394 C 0.93812 0.76968 0.40538 0.0
N395 N 0.92187 0.78718 0.40578 0.0
C396 C 0.80153 0.66205 0.37233 0.0
C397 C 0.80365 0.63465 0.35059 0.0
C398 C 0.77278 0.66127 0.36742 0.0
N399 N 0.81669 0.64956 0.36378 0.0
C400 C 0.77472 0.63317 0.34525 0.0
C401 C 0.75932 0.64734 0.35355 0.0
H402 H 0.81247 0.67364 0.3828 0.0
H403 H 0.81621 0.62477 0.34405 0.0
C404 C 0.97929 0.73483 0.36016 0.0
N405 N 0.95133 0.73569 0.36365 0.0
C406 C 0.00617 0.76228 0.35364 0.0
C407 C 0.97497 0.79106 0.35442 0.0
C408 C 0.94864 0.763 0.36093 0.0
C409 C 0.00418 0.79086 0.35061 0.0
H410 H 0.98052 0.71261 0.36233 0.0
H411 H 0.92591 0.76285 0.36359 0.0
O412 O 0.85545 0.62217 0.38508 0.0
O413 O 0.92988 0.6732 0.38571 0.0
O414 O 0.89134 0.66119 0.35622 0.0
O415 O 0.88028 0.69891 0.38253 0.0
H416 H 0.80128 0.60706 0.40057 0.0
H417 H 0.83847 0.58269 0.36175 0.0
H418 H 0.74426 0.56368 0.39358 0.0
H419 H 0.7808 0.53947 0.35553 0.0
H420 H 0.02322 0.67793 0.40386 0.0
H421 H 0.90076 0.61824 0.4019 0.0
H422 H 0.99486 0.70098 0.38875 0.0
H423 H 0.93074 0.59657 0.41669 0.0
H424 H 0.8974 0.53104 0.37847 0.0
H425 H 0.97066 0.60508 0.3492 0.0
H426 H 0.82053 0.66513 0.43607 0.0
H427 H 0.9167 0.67922 0.44811 0.0
H428 H 0.87476 0.70827 0.35471 0.0
H429 H 0.90297 0.64807 0.32923 0.0
H430 H 0.87132 0.73467 0.3315 0.0
H431 H 0.89898 0.6756 0.30639 0.0
H432 H 0.85458 0.73789 0.38518 0.0
H433 H 0.93765 0.72605 0.39731 0.0
H434 H 0.88008 0.79081 0.39925 0.0
H435 H 0.96154 0.77898 0.4111 0.0
H436 H 0.76228 0.67303 0.37412 0.0
H437 H 0.76502 0.62184 0.33458 0.0
H438 H 0.02834 0.76117 0.35106 0.0
H439 H 0.97221 0.8124 0.35211 0.0
Li440 Li 0.26297 0.90081 0.70667 0.0
Li441 Li 0.22191 0.88779 0.7273 0.0
Li442 Li 0.20399 0.86134 0.70369 0.0
Li443 Li 0.21966 0.91822 0.70602 0.0
C444 C 0.22678 0.82631 0.71593 0.0
N445 N 0.20495 0.75974 0.7118 0.0
C446 C 0.2017 0.8026 0.72493 0.0
C447 C 0.24095 0.81627 0.7049 0.0
C448 C 0.19094 0.76903 0.72264 0.0
C449 C 0.22953 0.78246 0.70298 0.0
C450 C 0.2719 0.94903 0.73267 0.0
C451 C 0.2695 0.97411 0.75567 0.0
N452 N 0.30137 0.98225 0.7586 0.0
C453 C 0.30465 0.95768 0.73591 0.0
C454 C 0.25419 0.95738 0.7426 0.0
C455 C 0.31911 0.97447 0.74908 0.0
C456 C 0.3237 0.94366 0.69372 0.0
N457 N 0.30806 0.91603 0.70228 0.0
C458 C 0.35917 0.91703 0.70673 0.0
C459 C 0.32482 0.90227 0.70863 0.0
C460 C 0.37625 0.94628 0.69832 0.0
C461 C 0.35794 0.95921 0.69154 0.0
H462 H 0.30963 0.95414 0.68895 0.0
H463 H 0.31172 0.88059 0.71559 0.0
C464 C 0.18265 0.86552 0.75271 0.0
N465 N 0.21458 0.87971 0.74795 0.0
C466 C 0.17501 0.85727 0.76758 0.0
C467 C 0.23327 0.87808 0.77242 0.0
C468 C 0.23976 0.8857 0.75739 0.0
C469 C 0.20047 0.8635 0.77765 0.0
H470 H 0.16299 0.8601 0.7449 0.0
H471 H 0.2648 0.89605 0.75322 0.0
C472 C 0.22975 0.88367 0.67647 0.0
N473 N 0.22252 0.85535 0.64884 0.0
C474 C 0.2024 0.87694 0.66762 0.0
C475 C 0.25347 0.8761 0.67123 0.0
C476 C 0.19917 0.86257 0.6537 0.0
C477 C 0.24936 0.86178 0.65723 0.0
C478 C 0.15861 0.88836 0.71414 0.0
C479 C 0.14094 0.88066 0.70084 0.0
C480 C 0.15209 0.90528 0.72523 0.0
C481 C 0.11712 0.89022 0.69881 0.0
C482 C 0.12805 0.91439 0.72278 0.0
N483 N 0.11124 0.90676 0.70973 0.0
C484 C 0.14161 0.80569 0.70355 0.0
C485 C 0.17359 0.80396 0.68354 0.0
C486 C 0.11367 0.77711 0.69851 0.0
N487 N 0.17049 0.81931 0.69577 0.0
C488 C 0.14601 0.77541 0.67797 0.0
C489 C 0.11535 0.76214 0.68531 0.0
H490 H 0.13993 0.81758 0.71352 0.0
H491 H 0.19711 0.81412 0.6779 0.0
C492 C 0.21095 0.95689 0.68446 0.0
N493 N 0.21274 0.9532 0.69929 0.0
C494 C 0.2067 0.98249 0.67891 0.0
C495 C 0.2065 0.00036 0.704 0.0
C496 C 0.21064 0.9743 0.70907 0.0
C497 C 0.20461 0.00477 0.68872 0.0
H498 H 0.21338 0.94029 0.6769 0.0
H499 H 0.21226 0.97099 0.72079 0.0
O500 O 0.23692 0.85917 0.71769 0.0
O501 O 0.2573 0.93248 0.71986 0.0
O502 O 0.23369 0.89825 0.69005 0.0
O503 O 0.18259 0.87989 0.71618 0.0
H504 H 0.19042 0.81006 0.73347 0.0
H505 H 0.26031 0.83438 0.69782 0.0
H506 H 0.1714 0.75035 0.72945 0.0
H507 H 0.24011 0.77427 0.69444 0.0
H508 H 0.25598 0.98047 0.7635 0.0
H509 H 0.31879 0.95151 0.72836 0.0
H510 H 0.22864 0.95034 0.74043 0.0
H511 H 0.34442 0.98129 0.75173 0.0
H512 H 0.37236 0.90646 0.71229 0.0
H513 H 0.37001 0.98144 0.68482 0.0
H514 H 0.14942 0.84619 0.77116 0.0
H515 H 0.25353 0.8828 0.77979 0.0
H516 H 0.18369 0.88247 0.6715 0.0
H517 H 0.27478 0.88108 0.67789 0.0
H518 H 0.17805 0.85709 0.64678 0.0
H519 H 0.26749 0.85572 0.65305 0.0
H520 H 0.1457 0.8676 0.69215 0.0
H521 H 0.16575 0.91173 0.73554 0.0
H522 H 0.10335 0.88453 0.68855 0.0
H523 H 0.12288 0.92766 0.73122 0.0
H524 H 0.09054 0.76786 0.70451 0.0
H525 H 0.14846 0.76424 0.66788 0.0
H526 H 0.20598 0.98535 0.66704 0.0
H527 H 0.20476 0.01684 0.71195 0.0
Li528 Li 0.77932 0.6955 0.62411 0.0
Li529 Li 0.79885 0.65805 0.62641 0.0
Li530 Li 0.78157 0.6668 0.60203 0.0
Li531 Li 0.73963 0.63611 0.6233 0.0
C532 C 0.842 0.73084 0.61651 0.0
N533 N 0.88861 0.79665 0.62132 0.0
C534 C 0.85761 0.741 0.63027 0.0
C535 C 0.85028 0.75406 0.60515 0.0
C536 C 0.88105 0.77441 0.6325 0.0
C537 C 0.87387 0.78725 0.60782 0.0
C538 C 0.77145 0.65201 0.65359 0.0
C539 C 0.75409 0.60951 0.6723 0.0
N540 N 0.77913 0.63122 0.68122 0.0
C541 C 0.7969 0.67395 0.66299 0.0
C542 C 0.74978 0.61955 0.65829 0.0
C543 C 0.80043 0.66293 0.67689 0.0
C544 C 0.77986 0.73933 0.64567 0.0
N545 N 0.78371 0.73649 0.63093 0.0
C546 C 0.79208 0.79086 0.62661 0.0
C547 C 0.78986 0.76157 0.62139 0.0
C548 C 0.78836 0.79445 0.6418 0.0
C549 C 0.78237 0.76833 0.65139 0.0
H550 H 0.77448 0.71891 0.65299 0.0
H551 H 0.7928 0.75878 0.60972 0.0
C552 C 0.86255 0.66799 0.62671 0.0
N553 N 0.83358 0.65145 0.63437 0.0
C554 C 0.89093 0.66802 0.63162 0.0
C555 C 0.85903 0.63241 0.65186 0.0
C556 C 0.83102 0.63277 0.64643 0.0
C557 C 0.88963 0.65075 0.64456 0.0
H558 H 0.86386 0.68182 0.61689 0.0
H559 H 0.80753 0.6185 0.65198 0.0
C560 C 0.73105 0.6915 0.60636 0.0
N561 N 0.70639 0.73361 0.6011 0.0
C562 C 0.71025 0.69425 0.61672 0.0
C563 C 0.73907 0.70988 0.59326 0.0
C564 C 0.69814 0.71578 0.61389 0.0
C565 C 0.72638 0.73109 0.59082 0.0
C566 C 0.7795 0.60135 0.61349 0.0
C567 C 0.80573 0.6047 0.6047 0.0
C568 C 0.76562 0.57628 0.62415 0.0
C569 C 0.81793 0.58299 0.60685 0.0
C570 C 0.77849 0.55505 0.62594 0.0
N571 N 0.80419 0.55885 0.61734 0.0
C572 C 0.82263 0.68481 0.57736 0.0
C573 C 0.7654 0.65245 0.57156 0.0
C574 C 0.83117 0.68601 0.5625 0.0
N575 N 0.79026 0.66833 0.58156 0.0
C576 C 0.77283 0.65272 0.55654 0.0
C577 C 0.80617 0.66956 0.55184 0.0
H578 H 0.84188 0.69679 0.58561 0.0
H579 H 0.73987 0.63921 0.57528 0.0
C580 C 0.67872 0.61138 0.63783 0.0
N581 N 0.69476 0.60422 0.62715 0.0
C582 C 0.64451 0.5913 0.63971 0.0
C583 C 0.64415 0.55628 0.61984 0.0
C584 C 0.67843 0.57709 0.61835 0.0
C585 C 0.62662 0.56367 0.63045 0.0
H586 H 0.69239 0.6334 0.64454 0.0
H587 H 0.69186 0.57226 0.60984 0.0
O588 O 0.81863 0.69831 0.61421 0.0
O589 O 0.76727 0.66252 0.64003 0.0
O590 O 0.74353 0.67091 0.60899 0.0
O591 O 0.76795 0.62299 0.61189 0.0
H592 H 0.85162 0.72328 0.63913 0.0
H593 H 0.83825 0.74664 0.59447 0.0
H594 H 0.89323 0.78265 0.64311 0.0
H595 H 0.88037 0.80554 0.59916 0.0
H596 H 0.73758 0.58444 0.67605 0.0
H597 H 0.81378 0.6992 0.65959 0.0
H598 H 0.73001 0.60218 0.65119 0.0
H599 H 0.82009 0.6796 0.68424 0.0
H600 H 0.79686 0.81056 0.61888 0.0
H601 H 0.77889 0.77002 0.66315 0.0
H602 H 0.91401 0.68266 0.62568 0.0
H603 H 0.85689 0.61833 0.66175 0.0
H604 H 0.70394 0.68027 0.62694 0.0
H605 H 0.75517 0.70802 0.58513 0.0
H606 H 0.68223 0.71838 0.62186 0.0
H607 H 0.73251 0.74562 0.58077 0.0
H608 H 0.81679 0.62411 0.59645 0.0
H609 H 0.74531 0.57344 0.63103 0.0
H610 H 0.83838 0.58541 0.60021 0.0
H611 H 0.76813 0.53563 0.6342 0.0
H612 H 0.85714 0.69976 0.55943 0.0
H613 H 0.75274 0.63927 0.54878 0.0
H614 H 0.63204 0.59823 0.64788 0.0
H615 H 0.63142 0.53502 0.61259 0.0
Li616 Li 0.1374 0.79465 0.9595 0.0
Li617 Li 0.07905 0.77737 0.95566 0.0
Li618 Li 0.09775 0.73627 0.9545 0.0
Li619 Li 0.11249 0.77741 0.93478 0.0
C620 C 0.09679 0.76363 0.98639 0.0
N621 N 0.09252 0.76386 0.0169 0.0
C622 C 0.08947 0.78595 0.99346 0.0
C623 C 0.10146 0.74111 0.99483 0.0
C624 C 0.08754 0.78575 0.00889 0.0
C625 C 0.09935 0.74172 0.01024 0.0
C626 C 0.12252 0.84609 0.94937 0.0
C627 C 0.12594 0.89674 0.94071 0.0
N628 N 0.13062 0.90812 0.95488 0.0
C629 C 0.12742 0.8583 0.96383 0.0
C630 C 0.12185 0.86546 0.9377 0.0
C631 C 0.13146 0.88972 0.96639 0.0
C632 C 0.20198 0.84647 0.95938 0.0
N633 N 0.17722 0.82661 0.96883 0.0
C634 C 0.20754 0.86045 0.98938 0.0
C635 C 0.17991 0.83236 0.98365 0.0
C636 C 0.23268 0.88264 0.97976 0.0
C637 C 0.23019 0.87462 0.96464 0.0
H638 H 0.19903 0.84123 0.94764 0.0
H639 H 0.15991 0.81629 0.99094 0.0
C640 C 0.02151 0.75765 0.97147 0.0
N641 N 0.04284 0.78211 0.96225 0.0
C642 C 0.9949 0.75904 0.97779 0.0
C643 C 0.01183 0.8102 0.96454 0.0
C644 C 0.03828 0.80787 0.9585 0.0
C645 C 0.99 0.78578 0.97449 0.0
H646 H 0.02554 0.73725 0.97408 0.0
H647 H 0.05523 0.82674 0.95095 0.0
C648 C 0.16476 0.75594 0.95013 0.0
N649 N 0.20993 0.73829 0.96014 0.0
C650 C 0.18452 0.75074 0.94006 0.0
C651 C 0.1681 0.75236 0.96528 0.0
C652 C 0.20718 0.74176 0.94535 0.0
C653 C 0.19104 0.74338 0.97013 0.0
C654 C 0.04352 0.74051 0.93132 0.0
C655 C 0.01595 0.71001 0.92759 0.0
C656 C 0.04657 0.76981 0.92558 0.0
C657 C 0.99187 0.70932 0.91812 0.0
C658 C 0.02195 0.76808 0.91615 0.0
N659 N 0.99534 0.73812 0.91264 0.0
C660 C 0.05411 0.6755 0.96673 0.0
C661 C 0.09822 0.67483 0.95384 0.0
C662 C 0.03909 0.64152 0.96946 0.0
N663 N 0.08293 0.69129 0.95894 0.0
C664 C 0.08423 0.64084 0.95647 0.0
C665 C 0.054 0.62372 0.96417 0.0
H666 H 0.04242 0.68926 0.9705 0.0
H667 H 0.12071 0.68777 0.94739 0.0
C668 C 0.14762 0.81716 0.91096 0.0
N669 N 0.122 0.78662 0.91443 0.0
C670 C 0.15672 0.82584 0.89622 0.0
C671 C 0.11288 0.77137 0.88891 0.0
C672 C 0.10471 0.7637 0.90382 0.0
C673 C 0.13925 0.80282 0.88494 0.0
H674 H 0.16115 0.83468 0.91969 0.0
H675 H 0.08462 0.73947 0.90694 0.0
O676 O 0.09847 0.76313 0.97127 0.0
O677 O 0.11852 0.81543 0.94656 0.0
O678 O 0.14243 0.76464 0.94508 0.0
O679 O 0.06715 0.74147 0.94065 0.0
H680 H 0.08515 0.80314 0.98714 0.0
H681 H 0.10659 0.72328 0.98955 0.0
H682 H 0.082 0.80294 0.01451 0.0
H683 H 0.10304 0.72452 0.01691 0.0
H684 H 0.12539 0.91196 0.93179 0.0
H685 H 0.12818 0.84376 0.97296 0.0
H686 H 0.11806 0.85635 0.92643 0.0
H687 H 0.13528 0.89947 0.97753 0.0
H688 H 0.20809 0.8657 0.00108 0.0
H689 H 0.24918 0.89063 0.95685 0.0
H690 H 0.97829 0.73932 0.98515 0.0
H691 H 0.00894 0.83124 0.96171 0.0
H692 H 0.18227 0.7535 0.92829 0.0
H693 H 0.15328 0.75662 0.97321 0.0
H694 H 0.22258 0.73757 0.93768 0.0
H695 H 0.19385 0.7405 0.98183 0.0
H696 H 0.01322 0.68712 0.93198 0.0
H697 H 0.06768 0.79364 0.92835 0.0
H698 H 0.9704 0.68589 0.91512 0.0
H699 H 0.02401 0.79055 0.91162 0.0
H700 H 0.01588 0.62922 0.97551 0.0
H701 H 0.09622 0.62786 0.95203 0.0
H702 H 0.17756 0.85013 0.89372 0.0
H703 H 0.09851 0.75298 0.88058 0.0
Li704 Li 0.30652 0.08051 0.29235 0.0
Li705 Li 0.34683 0.13684 0.29624 0.0
Li706 Li 0.33798 0.11515 0.27144 0.0
Li707 Li 0.36535 0.09768 0.2914 0.0
C708 C 0.28144 0.12308 0.29062 0.0
N709 N 0.23256 0.13126 0.30399 0.0
C710 C 0.27739 0.1203 0.30597 0.0
C711 C 0.26057 0.12994 0.28205 0.0
C712 C 0.25258 0.12456 0.31253 0.0
C713 C 0.236 0.13399 0.28902 0.0
C714 C 0.35049 0.10398 0.32258 0.0
C715 C 0.39528 0.12372 0.34025 0.0
N716 N 0.37301 0.11547 0.35147 0.0
C717 C 0.32801 0.09536 0.3343 0.0
C718 C 0.38437 0.118 0.32558 0.0
C719 C 0.33991 0.10151 0.34882 0.0
C720 C 0.26646 0.02479 0.30935 0.0
N721 N 0.2652 0.04414 0.29841 0.0
C722 C 0.20626 0.00988 0.29671 0.0
C723 C 0.23597 0.0373 0.29203 0.0
C724 C 0.20682 0.98933 0.30798 0.0
C725 C 0.23746 0.99714 0.31433 0.0
H726 H 0.29013 0.03077 0.31414 0.0
H727 H 0.23579 0.05292 0.28321 0.0
C728 C 0.34707 0.19611 0.29755 0.0
N729 N 0.35457 0.17666 0.30607 0.0
C730 C 0.34505 0.22241 0.3038 0.0
C731 C 0.36062 0.20971 0.32737 0.0
C732 C 0.36247 0.18365 0.32062 0.0
C733 C 0.35065 0.22872 0.31902 0.0
H734 H 0.34063 0.18991 0.28603 0.0
H735 H 0.36862 0.16823 0.32723 0.0
C736 C 0.3055 0.03944 0.27252 0.0
N737 N 0.25384 0.97721 0.26529 0.0
C738 C 0.30315 0.01122 0.27917 0.0
C739 C 0.28172 0.03604 0.26214 0.0
C740 C 0.27679 0.97997 0.27538 0.0
C741 C 0.25576 0.00435 0.25864 0.0
C742 C 0.40389 0.17499 0.28296 0.0
C743 C 0.40198 0.19755 0.27336 0.0
C744 C 0.42852 0.18658 0.29384 0.0
C745 C 0.42438 0.23144 0.27502 0.0
C746 C 0.45046 0.22066 0.29514 0.0
N747 N 0.44792 0.2422 0.2858 0.0
C748 C 0.32607 0.14557 0.2474 0.0
C749 C 0.34814 0.11109 0.24085 0.0
C750 C 0.32568 0.15388 0.2326 0.0
N751 N 0.33727 0.12464 0.25119 0.0
C752 C 0.34814 0.11868 0.22589 0.0
C753 C 0.33687 0.14043 0.2216 0.0
H754 H 0.31788 0.15617 0.25593 0.0
H755 H 0.35682 0.09444 0.24424 0.0
C756 C 0.38476 0.05516 0.30361 0.0
N757 N 0.39535 0.08229 0.29482 0.0
C758 C 0.40445 0.04063 0.30555 0.0
C759 C 0.44601 0.08292 0.28971 0.0
C760 C 0.42542 0.09657 0.28802 0.0
C761 C 0.43532 0.05425 0.29839 0.0
H762 H 0.36068 0.04445 0.30887 0.0
H763 H 0.433 0.11804 0.28102 0.0
O764 O 0.30575 0.11929 0.28392 0.0
O765 O 0.33916 0.09776 0.3083 0.0
O766 O 0.33041 0.07031 0.27645 0.0
O767 O 0.38177 0.14177 0.28167 0.0
H768 H 0.29333 0.11511 0.31277 0.0
H769 H 0.26331 0.13209 0.27014 0.0
H770 H 0.24926 0.12258 0.32441 0.0
H771 H 0.21967 0.13931 0.28252 0.0
H772 H 0.42145 0.13469 0.34272 0.0
H773 H 0.30164 0.08397 0.33221 0.0
H774 H 0.40208 0.12441 0.3167 0.0
H775 H 0.3228 0.09511 0.35799 0.0
H776 H 0.18321 0.0045 0.29142 0.0
H777 H 0.23899 0.98222 0.32316 0.0
H778 H 0.33682 0.23605 0.29697 0.0
H779 H 0.36546 0.21398 0.33912 0.0
H780 H 0.32127 0.01346 0.28727 0.0
H781 H 0.28304 0.05768 0.257 0.0
H782 H 0.27453 0.95792 0.2805 0.0
H783 H 0.23706 0.00134 0.25069 0.0
H784 H 0.38319 0.18902 0.26483 0.0
H785 H 0.43073 0.16949 0.3012 0.0
H786 H 0.423 0.24918 0.26775 0.0
H787 H 0.46953 0.22998 0.30357 0.0
H788 H 0.31725 0.17111 0.22983 0.0
H789 H 0.35658 0.10742 0.21777 0.0
H790 H 0.39548 0.01883 0.31249 0.0
H791 H 0.46949 0.09398 0.28387 0.0
Li792 Li 0.22222 0.3049 0.62518 0.0
Li793 Li 0.20514 0.34669 0.62721 0.0
Li794 Li 0.22289 0.33578 0.60357 0.0
Li795 Li 0.26256 0.36377 0.62369 0.0
C796 C 0.16002 0.27314 0.61742 0.0
N797 N 0.11247 0.20764 0.62233 0.0
C798 C 0.1373 0.26483 0.62902 0.0
C799 C 0.15851 0.24814 0.60831 0.0
C800 C 0.11343 0.23157 0.63131 0.0
C801 C 0.13432 0.21518 0.61098 0.0
C802 C 0.2558 0.35102 0.65207 0.0
C803 C 0.28988 0.39511 0.66902 0.0
N804 N 0.30315 0.37679 0.67417 0.0
C805 C 0.26967 0.33255 0.65756 0.0
C806 C 0.26584 0.38248 0.65788 0.0
C807 C 0.2936 0.34604 0.66873 0.0
C808 C 0.23008 0.24837 0.62615 0.0
N809 N 0.21498 0.26367 0.63265 0.0
C810 C 0.19078 0.22122 0.65104 0.0
C811 C 0.19572 0.25086 0.64489 0.0
C812 C 0.20622 0.20486 0.64463 0.0
C813 C 0.22598 0.21877 0.63197 0.0
H814 H 0.24581 0.25947 0.61661 0.0
H815 H 0.18445 0.26389 0.64995 0.0
C816 C 0.1452 0.34539 0.62657 0.0
N817 N 0.17197 0.3544 0.63542 0.0
C818 C 0.11681 0.34445 0.63212 0.0
C819 C 0.1448 0.36424 0.6556 0.0
C820 C 0.17264 0.36442 0.64961 0.0
C821 C 0.11591 0.3531 0.64696 0.0
H822 H 0.14526 0.33712 0.61539 0.0
H823 H 0.19419 0.37122 0.65644 0.0
C824 C 0.27262 0.32605 0.59782 0.0
N825 N 0.30034 0.32437 0.57101 0.0
C826 C 0.30222 0.35355 0.59307 0.0
C827 C 0.25718 0.29767 0.58895 0.0
C828 C 0.31584 0.3522 0.57949 0.0
C829 C 0.27155 0.29733 0.57542 0.0
C830 C 0.22435 0.40071 0.61229 0.0
C831 C 0.20241 0.39786 0.60106 0.0
C832 C 0.23241 0.42429 0.62347 0.0
C833 C 0.18869 0.41857 0.60125 0.0
C834 C 0.21813 0.44452 0.62328 0.0
N835 N 0.19674 0.44125 0.61228 0.0
C836 C 0.18488 0.31191 0.57759 0.0
C837 C 0.2389 0.3578 0.57386 0.0
C838 C 0.17728 0.31188 0.56266 0.0
N839 N 0.21525 0.33462 0.58286 0.0
C840 C 0.23248 0.35847 0.55879 0.0
C841 C 0.20117 0.33551 0.55308 0.0
H842 H 0.16623 0.29433 0.58505 0.0
H843 H 0.26247 0.37622 0.57844 0.0
C844 C 0.32668 0.38052 0.63145 0.0
N845 N 0.30782 0.39436 0.62802 0.0
C846 C 0.36076 0.40043 0.63362 0.0
C847 C 0.35549 0.44871 0.62882 0.0
C848 C 0.32134 0.42777 0.62678 0.0
C849 C 0.37572 0.43501 0.63213 0.0
H850 H 0.31529 0.35381 0.63207 0.0
H851 H 0.30579 0.43807 0.62387 0.0
O852 O 0.18401 0.30549 0.61516 0.0
O853 O 0.23283 0.33854 0.64094 0.0
O854 O 0.25863 0.327 0.61101 0.0
O855 O 0.23739 0.3801 0.61251 0.0
H856 H 0.13834 0.28374 0.63632 0.0
H857 H 0.17605 0.25409 0.59936 0.0
H858 H 0.09578 0.22477 0.64027 0.0
H859 H 0.13298 0.19557 0.60406 0.0
H860 H 0.29804 0.41952 0.67355 0.0
H861 H 0.26232 0.30824 0.65314 0.0
H862 H 0.25548 0.39715 0.6537 0.0
H863 H 0.30467 0.33211 0.67303 0.0
H864 H 0.1751 0.21129 0.66071 0.0
H865 H 0.2389 0.20741 0.62683 0.0
H866 H 0.09517 0.33507 0.62506 0.0
H867 H 0.14553 0.37163 0.66702 0.0
H868 H 0.31438 0.37586 0.5997 0.0
H869 H 0.23417 0.27625 0.5924 0.0
H870 H 0.33866 0.37334 0.57565 0.0
H871 H 0.25978 0.27559 0.56841 0.0
H872 H 0.19577 0.37962 0.59236 0.0
H873 H 0.24923 0.42671 0.63228 0.0
H874 H 0.17154 0.41654 0.59267 0.0
H875 H 0.22398 0.46275 0.63191 0.0
H876 H 0.15289 0.29368 0.55867 0.0
H877 H 0.25138 0.37741 0.55181 0.0
H878 H 0.37539 0.3887 0.63586 0.0
H879 H 0.36598 0.47526 0.62765 0.0
Li880 Li 0.8629 0.2029 0.96 0.0
Li881 Li 0.92248 0.22395 0.95646 0.0
Li882 Li 0.89981 0.26188 0.95543 0.0
Li883 Li 0.88794 0.22236 0.93589 0.0
C884 C 0.89953 0.23522 0.98715 0.0
N885 N 0.89851 0.23567 0.01773 0.0
C886 C 0.90847 0.21523 0.9952 0.0
C887 C 0.89073 0.25595 0.99467 0.0
C888 C 0.90759 0.21564 0.01065 0.0
C889 C 0.89018 0.25568 0.01013 0.0
C890 C 0.8944 0.1667 0.93883 0.0
C891 C 0.93428 0.16395 0.9227 0.0
N892 N 0.91372 0.13064 0.92132 0.0
C893 C 0.87364 0.13248 0.93724 0.0
C894 C 0.92497 0.18263 0.9315 0.0
C895 C 0.88387 0.11467 0.92835 0.0
C896 C 0.79396 0.15689 0.96484 0.0
N897 N 0.82559 0.16773 0.96951 0.0
C898 C 0.80764 0.11943 0.9844 0.0
C899 C 0.83269 0.14994 0.97925 0.0
C900 C 0.77502 0.10683 0.97928 0.0
C901 C 0.768 0.12639 0.96977 0.0
H902 H 0.78914 0.17079 0.95661 0.0
H903 H 0.85815 0.15837 0.98223 0.0
C904 C 0.98782 0.24867 0.96591 0.0
N905 N 0.95875 0.22013 0.96348 0.0
C906 C 0.01454 0.24765 0.97238 0.0
C907 C 0.98103 0.18782 0.97348 0.0
C908 C 0.95488 0.19001 0.96704 0.0
C909 C 0.01121 0.21695 0.97639 0.0
H910 H 0.98995 0.27225 0.96308 0.0
H911 H 0.93121 0.16777 0.96527 0.0
C912 C 0.83246 0.23986 0.95046 0.0
N913 N 0.78582 0.2565 0.95936 0.0
C914 C 0.81532 0.24755 0.93994 0.0
C915 C 0.82578 0.24047 0.96549 0.0
C916 C 0.79186 0.25595 0.94466 0.0
C917 C 0.80213 0.24897 0.96978 0.0
C918 C 0.9434 0.285 0.93175 0.0
C919 C 0.92099 0.29267 0.92501 0.0
C920 C 0.97721 0.30388 0.92846 0.0
C921 C 0.93286 0.31915 0.91506 0.0
C922 C 0.9881 0.33016 0.91844 0.0
N923 N 0.96588 0.33719 0.91201 0.0
C924 C 0.94214 0.32281 0.96747 0.0
C925 C 0.8963 0.32209 0.9556 0.0
C926 C 0.95683 0.3568 0.97005 0.0
N927 N 0.91267 0.30634 0.96022 0.0
C928 C 0.90997 0.3561 0.95808 0.0
C929 C 0.94093 0.37393 0.96513 0.0
H930 H 0.95473 0.30961 0.97082 0.0
H931 H 0.87337 0.30868 0.9495 0.0
C932 C 0.84637 0.19536 0.9117 0.0
N933 N 0.87896 0.2129 0.91548 0.0
C934 C 0.83712 0.18622 0.89701 0.0
C935 C 0.89525 0.21347 0.89036 0.0
C936 C 0.90338 0.22203 0.90521 0.0
C937 C 0.86169 0.19525 0.88609 0.0
H938 H 0.82756 0.18819 0.92017 0.0
H939 H 0.92913 0.23577 0.90856 0.0
O940 O 0.90081 0.2356 0.97201 0.0
O941 O 0.88453 0.18444 0.94739 0.0
O942 O 0.85576 0.232 0.94596 0.0
O943 O 0.93256 0.25949 0.94169 0.0
H944 H 0.91589 0.19945 0.98958 0.0
H945 H 0.88457 0.27226 0.98864 0.0
H946 H 0.91422 0.20011 0.01701 0.0
H947 H 0.88326 0.27149 0.01608 0.0
H948 H 0.95785 0.17595 0.91696 0.0
H949 H 0.84987 0.11983 0.94283 0.0
H950 H 0.94131 0.20913 0.93256 0.0
H951 H 0.86806 0.08815 0.92702 0.0
H952 H 0.81401 0.10507 0.99176 0.0
H953 H 0.74322 0.11723 0.96543 0.0
H954 H 0.0375 0.27066 0.9743 0.0
H955 H 0.9773 0.1637 0.97657 0.0
H956 H 0.82027 0.24719 0.92824 0.0
H957 H 0.83842 0.23407 0.97374 0.0
H958 H 0.77848 0.26207 0.93664 0.0
H959 H 0.79669 0.2495 0.98138 0.0
H960 H 0.89474 0.27842 0.92743 0.0
H961 H 0.99486 0.2983 0.93363 0.0
H962 H 0.91581 0.32537 0.90977 0.0
H963 H 0.01421 0.345 0.9158 0.0
H964 H 0.98064 0.36966 0.9756 0.0
H965 H 0.8972 0.36856 0.95394 0.0
H966 H 0.81098 0.1717 0.8943 0.0
H967 H 0.915 0.22125 0.8823 0.0
Li968 Li 0.7021 0.91651 0.29183 0.0
Li969 Li 0.6595 0.85787 0.29351 0.0
Li970 Li 0.67233 0.88681 0.27 0.0
Li971 Li 0.64349 0.89873 0.28957 0.0
C972 C 0.73354 0.88522 0.2851 0.0
N973 N 0.79808 0.90178 0.29162 0.0
C974 C 0.73999 0.8693 0.29667 0.0
C975 C 0.75992 0.90954 0.27683 0.0
C976 C 0.77279 0.878 0.29979 0.0
C977 C 0.79237 0.91759 0.28032 0.0
C978 C 0.65447 0.90449 0.31803 0.0
C979 C 0.60937 0.8953 0.33419 0.0
N980 N 0.62785 0.92677 0.33944 0.0
C981 C 0.67308 0.9367 0.32363 0.0
C982 C 0.62242 0.88354 0.32339 0.0
C983 C 0.65916 0.94751 0.33444 0.0
C984 C 0.756 0.98173 0.29385 0.0
N985 N 0.74267 0.95082 0.29975 0.0
C986 C 0.78455 0.97041 0.31847 0.0
C987 C 0.75623 0.94471 0.31183 0.0
C988 C 0.79852 0.00273 0.31278 0.0
C989 C 0.78409 0.00819 0.30022 0.0
H990 H 0.74432 0.98603 0.28445 0.0
H991 H 0.74452 0.92004 0.31652 0.0
C992 C 0.65786 0.79772 0.29329 0.0
N993 N 0.64972 0.81655 0.30187 0.0
C994 C 0.65622 0.76914 0.299 0.0
C995 C 0.63594 0.77873 0.32205 0.0
C996 C 0.63827 0.80741 0.3159 0.0
C997 C 0.64596 0.75968 0.31371 0.0
H998 H 0.66727 0.80589 0.28222 0.0
H999 H 0.63215 0.82298 0.3225 0.0
C1000 C 0.68304 0.946 0.26394 0.0
N1001 N 0.68644 0.97448 0.23669 0.0
C1002 C 0.65555 0.94713 0.25841 0.0
C1003 C 0.71228 0.95942 0.25563 0.0
C1004 C 0.65778 0.96166 0.24461 0.0
C1005 C 0.71349 0.97366 0.24187 0.0
C1006 C 0.60606 0.82391 0.27794 0.0
C1007 C 0.60919 0.80473 0.26684 0.0
C1008 C 0.58155 0.80859 0.28878 0.0
C1009 C 0.58777 0.77041 0.26681 0.0
C1010 C 0.56065 0.7742 0.28838 0.0
N1011 N 0.56417 0.75598 0.2775 0.0
C1012 C 0.69935 0.8777 0.24348 0.0
C1013 C 0.64894 0.87826 0.24074 0.0
C1014 C 0.69967 0.87127 0.22841 0.0
N1015 N 0.67423 0.88102 0.2493 0.0
C1016 C 0.64828 0.87191 0.22561 0.0
C1017 C 0.67374 0.86802 0.21928 0.0
H1018 H 0.71872 0.87923 0.2506 0.0
H1019 H 0.629 0.88047 0.24573 0.0
C1020 C 0.62797 0.94708 0.29642 0.0
N1021 N 0.61341 0.91414 0.29339 0.0
C1022 C 0.60868 0.96197 0.29837 0.0
C1023 C 0.55954 0.90862 0.29428 0.0
C1024 C 0.57989 0.8947 0.29239 0.0
C1025 C 0.57402 0.94282 0.29708 0.0
H1026 H 0.65474 0.96192 0.29703 0.0
H1027 H 0.56904 0.86864 0.28978 0.0
O1028 O 0.70164 0.87744 0.282 0.0
O1029 O 0.66738 0.89368 0.30721 0.0
O1030 O 0.68117 0.93129 0.2773 0.0
O1031 O 0.62729 0.85744 0.27837 0.0
H1032 H 0.71999 0.85075 0.30333 0.0
H1033 H 0.75543 0.92238 0.26795 0.0
H1034 H 0.77815 0.86597 0.30874 0.0
H1035 H 0.81303 0.93648 0.27406 0.0
H1036 H 0.58451 0.87943 0.33836 0.0
H1037 H 0.69785 0.95332 0.31956 0.0
H1038 H 0.6076 0.85864 0.3191 0.0
H1039 H 0.6732 0.97242 0.33882 0.0
H1040 H 0.79466 0.9653 0.32827 0.0
H1041 H 0.79423 0.03274 0.29546 0.0
H1042 H 0.66485 0.75583 0.29219 0.0
H1043 H 0.62749 0.77222 0.33336 0.0
H1044 H 0.63259 0.93657 0.2646 0.0
H1045 H 0.7337 0.95853 0.25969 0.0
H1046 H 0.63666 0.96259 0.24017 0.0
H1047 H 0.7359 0.98399 0.23528 0.0
H1048 H 0.62818 0.81613 0.25843 0.0
H1049 H 0.57894 0.82305 0.2975 0.0
H1050 H 0.59 0.75522 0.25833 0.0
H1051 H 0.54168 0.76198 0.29674 0.0
H1052 H 0.71947 0.86788 0.22406 0.0
H1053 H 0.62797 0.86991 0.21897 0.0
H1054 H 0.62082 0.98831 0.30071 0.0
H1055 H 0.53292 0.89306 0.29306 0.0
H1056 H 0.58942 0.57855 0.03631 0.0
H1057 H 0.50161 0.58437 0.02647 0.0
H1058 H 0.5567 0.51817 0.03564 0.0
H1059 H 0.46885 0.52392 0.0255 0.0
H1060 H 0.41528 0.41819 0.0438 0.0
H1061 H 0.44822 0.47834 0.04241 0.0
H1062 H 0.52615 0.47058 0.01996 0.0
H1063 H 0.49318 0.41012 0.0216 0.0
C1064 C 0.56319 0.56687 0.03374 0.0
C1065 C 0.54802 0.58612 0.03147 0.0
C1066 C 0.54444 0.53227 0.03333 0.0
C1067 C 0.51011 0.51615 0.03056 0.0
C1068 C 0.49512 0.53551 0.02793 0.0
C1069 C 0.51385 0.57011 0.02845 0.0
C1070 C 0.43929 0.42932 0.03841 0.0
C1071 C 0.45161 0.40945 0.03276 0.0
C1072 C 0.45817 0.46383 0.03758 0.0
C1073 C 0.48979 0.47935 0.03101 0.0
C1074 C 0.50206 0.45944 0.02526 0.0
C1075 C 0.4832 0.42484 0.02617 0.0
H1076 H 0.06962 0.48552 0.34958 0.0
H1077 H 0.99343 0.41833 0.37973 0.0
H1078 H 0.04173 0.5181 0.3476 0.0
H1079 H 0.96564 0.45064 0.3777 0.0
H1080 H 0.90729 0.4977 0.36052 0.0
H1081 H 0.93483 0.46475 0.36004 0.0
H1082 H 0.03023 0.5544 0.36322 0.0
H1083 H 0.00277 0.58729 0.36374 0.0
C1084 C 0.04702 0.47777 0.35581 0.0
C1085 C 0.03368 0.44923 0.36475 0.0
C1086 C 0.03102 0.49638 0.35466 0.0
C1087 C 0.00136 0.48683 0.36242 0.0
C1088 C 0.98806 0.45829 0.37133 0.0
C1089 C 0.00403 0.43976 0.3725 0.0
C1090 C 0.93414 0.51035 0.36111 0.0
C1091 C 0.95281 0.54511 0.36219 0.0
C1092 C 0.94992 0.49149 0.36084 0.0
C1093 C 0.98472 0.50696 0.36165 0.0
C1094 C 0.00342 0.54175 0.36237 0.0
C1095 C 0.98765 0.56061 0.36266 0.0
H1096 H 0.41891 0.01313 0.70016 0.0
H1097 H 0.41693 0.92002 0.69426 0.0
H1098 H 0.47936 0.04268 0.69912 0.0
H1099 H 0.47754 0.94954 0.69371 0.0
H1100 H 0.58521 0.01552 0.67963 0.0
H1101 H 0.5248 0.98834 0.67841 0.0
H1102 H 0.52518 0.04899 0.71469 0.0
H1103 H 0.58553 0.07603 0.71597 0.0
C1104 C 0.43136 0.99898 0.69851 0.0
C1105 C 0.41308 0.9642 0.69725 0.0
C1106 C 0.46603 0.0159 0.69809 0.0
C1107 C 0.48327 0.99848 0.69636 0.0
C1108 C 0.465 0.96374 0.6949 0.0
C1109 C 0.43029 0.94678 0.69537 0.0
C1110 C 0.57239 0.02305 0.68735 0.0
C1111 C 0.59021 0.04785 0.69795 0.0
C1112 C 0.53779 0.00745 0.68665 0.0
C1113 C 0.52017 0.01634 0.69651 0.0
C1114 C 0.53803 0.04181 0.70682 0.0
C1115 C 0.57265 0.05738 0.70754 0.0
H1116 H 0.58257 0.53929 0.60746 0.0
H1117 H 0.58716 0.54416 0.65523 0.0
H1118 H 0.52221 0.5092 0.6086 0.0
H1119 H 0.52662 0.51515 0.65634 0.0
H1120 H 0.41785 0.43003 0.65182 0.0
H1121 H 0.4784 0.46087 0.6517 0.0
H1122 H 0.4772 0.51922 0.61476 0.0
H1123 H 0.41673 0.48752 0.6145 0.0
C1124 C 0.57072 0.53374 0.61822 0.0
C1125 C 0.58975 0.54406 0.63125 0.0
C1126 C 0.53607 0.51692 0.61886 0.0
C1127 C 0.51956 0.51001 0.63255 0.0
C1128 C 0.53855 0.51992 0.64561 0.0
C1129 C 0.57325 0.53679 0.64497 0.0
C1130 C 0.43053 0.44944 0.64367 0.0
C1131 C 0.41243 0.45616 0.63311 0.0
C1132 C 0.46523 0.46732 0.64369 0.0
C1133 C 0.48266 0.49234 0.63314 0.0
C1134 C 0.46455 0.49975 0.62288 0.0
C1135 C 0.42985 0.48188 0.62286 0.0
H1136 H 0.91435 0.41144 0.97474 0.0
H1137 H 0.00503 0.41885 0.95838 0.0
H1138 H 0.94172 0.47189 0.97614 0.0
H1139 H 0.03215 0.47906 0.95931 0.0
H1140 H 0.08114 0.58634 0.97314 0.0
H1141 H 0.05371 0.52599 0.97499 0.0
H1142 H 0.96171 0.5186 0.96033 0.0
H1143 H 0.98897 0.57882 0.95898 0.0
C1144 C 0.94012 0.42606 0.97141 0.0
C1145 C 0.95761 0.41051 0.9665 0.0
C1146 C 0.9558 0.46067 0.97216 0.0
C1147 C 0.98919 0.48046 0.96782 0.0
C1148 C 0.00666 0.46472 0.96302 0.0
C1149 C 0.99109 0.43017 0.96244 0.0
C1150 C 0.05502 0.57171 0.97039 0.0
C1151 C 0.03717 0.58721 0.96593 0.0
C1152 C 0.0393 0.53714 0.97139 0.0
C1153 C 0.00547 0.51731 0.96775 0.0
C1154 C 0.98759 0.53299 0.96348 0.0
C1155 C 0.00323 0.56753 0.96265 0.0
H1156 H 0.50252 0.08337 0.30224 0.0
H1157 H 0.41384 0.98794 0.29678 0.0
H1158 H 0.53592 0.05632 0.30287 0.0
H1159 H 0.44718 0.96092 0.29726 0.0
H1160 H 0.51476 0.92066 0.31153 0.0
H1161 H 0.48129 0.94769 0.31293 0.0
H1162 H 0.55333 0.02807 0.28583 0.0
H1163 H 0.5867 0.00127 0.28455 0.0
C1164 C 0.4902 0.05663 0.30113 0.0
C1165 C 0.45558 0.0378 0.29944 0.0
C1166 C 0.5093 0.04112 0.30148 0.0
C1167 C 0.49423 0.00645 0.30005 0.0
C1168 C 0.45953 0.9876 0.29861 0.0
C1169 C 0.44043 0.0031 0.29832 0.0
C1170 C 0.52331 0.94404 0.30585 0.0
C1171 C 0.55344 0.95893 0.29801 0.0
C1172 C 0.50417 0.95953 0.30664 0.0
C1173 C 0.51473 0.99015 0.29956 0.0
C1174 C 0.54481 0.00488 0.29168 0.0
C1175 C 0.56392 0.98948 0.29093 0.0
H1176 H 0.28935 0.14715 0.20666 0.0
H1177 H 0.38473 0.15383 0.20077 0.0
H1178 H 0.28975 0.16206 0.18076 0.0
H1179 H 0.38502 0.16858 0.17485 0.0
H1180 H 0.35499 0.15665 0.12586 0.0
H1181 H 0.35536 0.14302 0.15187 0.0
H1182 H 0.31939 0.20936 0.16387 0.0
H1183 H 0.318 0.22221 0.13776 0.0
C1184 C 0.31053 0.15207 0.19988 0.0
C1185 C 0.337 0.14927 0.20579 0.0
C1186 C 0.31076 0.16063 0.18504 0.0
C1187 C 0.33742 0.16652 0.17576 0.0
C1188 C 0.36389 0.16374 0.18166 0.0
C1189 C 0.36369 0.15523 0.19651 0.0
C1190 C 0.34691 0.16814 0.13404 0.0
C1191 C 0.33628 0.19037 0.12974 0.0
C1192 C 0.34749 0.16061 0.14896 0.0
C1193 C 0.3374 0.1751 0.15993 0.0
C1194 C 0.32699 0.19753 0.15566 0.0
C1195 C 0.32652 0.20515 0.14072 0.0
H1196 H 0.10125 0.30402 0.46844 0.0
H1197 H 0.20249 0.37914 0.45909 0.0
H1198 H 0.11605 0.30226 0.49415 0.0
H1199 H 0.21729 0.37799 0.48491 0.0
H1200 H 0.23888 0.34249 0.52865 0.0
H1201 H 0.22476 0.34411 0.50274 0.0
H1202 H 0.13111 0.33438 0.51627 0.0
H1203 H 0.14499 0.33202 0.54206 0.0
C1204 C 0.1266 0.32043 0.47194 0.0
C1205 C 0.15069 0.34176 0.46177 0.0
C1206 C 0.13511 0.31949 0.48668 0.0
C1207 C 0.16787 0.34006 0.49164 0.0
C1208 C 0.19196 0.36144 0.48144 0.0
C1209 C 0.18348 0.36219 0.46666 0.0
C1210 C 0.21535 0.34082 0.52604 0.0
C1211 C 0.19294 0.3369 0.53734 0.0
C1212 C 0.20728 0.34184 0.51121 0.0
C1213 C 0.17673 0.33926 0.50739 0.0
C1214 C 0.15454 0.33574 0.51877 0.0
C1215 C 0.1625 0.33445 0.53355 0.0
H1216 H 0.7969 0.17777 0.79449 0.0
H1217 H 0.81703 0.09731 0.80014 0.0
H1218 H 0.81238 0.1942 0.82016 0.0
H1219 H 0.83215 0.11346 0.82592 0.0
H1220 H 0.89105 0.17352 0.86615 0.0
H1221 H 0.87537 0.15722 0.84047 0.0
H1222 H 0.79416 0.17669 0.8451 0.0
H1223 H 0.81084 0.19455 0.87052 0.0
C1224 C 0.80418 0.1633 0.80129 0.0
C1225 C 0.8057 0.13622 0.7953 0.0
C1226 C 0.81307 0.17271 0.81601 0.0
C1227 C 0.82355 0.15518 0.82511 0.0
C1228 C 0.82473 0.12786 0.81915 0.0
C1229 C 0.81598 0.11853 0.8044 0.0
C1230 C 0.87012 0.17475 0.86163 0.0
C1231 C 0.85225 0.1854 0.8704 0.0
C1232 C 0.86084 0.16495 0.84696 0.0
C1233 C 0.83342 0.16553 0.84073 0.0
C1234 C 0.8156 0.17625 0.84949 0.0
C1235 C 0.82494 0.18613 0.86414 0.0
H1236 H 0.62195 0.81635 0.12668 0.0
H1237 H 0.71199 0.81226 0.13277 0.0
H1238 H 0.62447 0.83315 0.15243 0.0
H1239 H 0.71391 0.82804 0.15868 0.0
H1240 H 0.72532 0.89173 0.19953 0.0
H1241 H 0.7235 0.8763 0.17358 0.0
H1242 H 0.61782 0.80924 0.17718 0.0
H1243 H 0.61963 0.82449 0.2031 0.0
C1244 C 0.64231 0.81909 0.13352 0.0
C1245 C 0.66679 0.81301 0.12769 0.0
C1246 C 0.64356 0.82839 0.14831 0.0
C1247 C 0.66937 0.83189 0.15759 0.0
C1248 C 0.69389 0.82586 0.15176 0.0
C1249 C 0.69258 0.81645 0.13697 0.0
C1250 C 0.70174 0.87356 0.1948 0.0
C1251 C 0.67262 0.8594 0.20338 0.0
C1252 C 0.70071 0.86471 0.17994 0.0
C1253 C 0.67052 0.84155 0.17334 0.0
C1254 C 0.64139 0.82754 0.18189 0.0
C1255 C 0.64242 0.83633 0.19674 0.0
H1256 H 0.77329 0.67298 0.52723 0.0
H1257 H 0.85907 0.66624 0.54046 0.0
H1258 H 0.78777 0.67279 0.50136 0.0
H1259 H 0.87478 0.66842 0.5147 0.0
H1260 H 0.87531 0.63796 0.46692 0.0
H1261 H 0.85986 0.63667 0.4928 0.0
H1262 H 0.82663 0.70642 0.48309 0.0
H1263 H 0.84113 0.70671 0.45713 0.0
C1264 C 0.79524 0.67147 0.52465 0.0
C1265 C 0.815 0.66968 0.53599 0.0
C1266 C 0.80384 0.67186 0.50979 0.0
C1267 C 0.83256 0.67074 0.50589 0.0
C1268 C 0.85228 0.66892 0.51724 0.0
C1269 C 0.84351 0.6682 0.53207 0.0
C1270 C 0.8649 0.65315 0.47038 0.0
C1271 C 0.85939 0.67241 0.46004 0.0
C1272 C 0.8561 0.65251 0.48521 0.0
C1273 C 0.84194 0.67143 0.49008 0.0
C1274 C 0.83685 0.69103 0.47972 0.0
C1275 C 0.84531 0.69136 0.46485 0.0
H1276 H 0.15835 0.86211 0.87116 0.0
H1277 H 0.14166 0.76338 0.86301 0.0
H1278 H 0.17443 0.87666 0.84536 0.0
H1279 H 0.15732 0.77788 0.83716 0.0
H1280 H 0.14975 0.80603 0.78893 0.0
H1281 H 0.13543 0.79144 0.81488 0.0
H1282 H 0.21951 0.88511 0.82803 0.0
H1283 H 0.23343 0.90005 0.80201 0.0
C1284 C 0.15837 0.84358 0.86391 0.0
C1285 C 0.14871 0.81156 0.86917 0.0
C1286 C 0.16757 0.85194 0.84913 0.0
C1287 C 0.16717 0.82843 0.83925 0.0
C1288 C 0.15748 0.7964 0.84448 0.0
C1289 C 0.14841 0.78808 0.85928 0.0
C1290 C 0.16507 0.82357 0.79736 0.0
C1291 C 0.19261 0.85426 0.79345 0.0
C1292 C 0.15707 0.81507 0.81222 0.0
C1293 C 0.17632 0.83714 0.82349 0.0
C1294 C 0.20403 0.86774 0.81958 0.0
C1295 C 0.21218 0.87615 0.80471 0.0
H1296 H 0.26592 0.8978 0.00637 0.0
H1297 H 0.25849 0.94243 0.96562 0.0
H1298 H 0.30131 0.95305 0.01677 0.0
H1299 H 0.2943 0.9972 0.97588 0.0
H1300 H 0.37002 0.09386 0.99638 0.0
H1301 H 0.3503 0.0384 0.98619 0.0
H1302 H 0.28539 0.99535 0.02382 0.0
H1303 H 0.304 0.0502 0.03375 0.0
C1304 C 0.27221 0.91929 0.99954 0.0
C1305 C 0.259 0.91558 0.98521 0.0
C1306 C 0.29258 0.95089 0.00548 0.0
C1307 C 0.30039 0.9794 0.99716 0.0
C1308 C 0.28909 0.9757 0.9825 0.0
C1309 C 0.26853 0.94418 0.97661 0.0
C1310 C 0.35171 0.07255 0.00253 0.0
C1311 C 0.33855 0.07665 0.01587 0.0
C1312 C 0.34059 0.04082 0.99672 0.0
C1313 C 0.31636 0.01258 0.00423 0.0
C1314 C 0.30452 0.01658 0.01791 0.0
C1315 C 0.31532 0.04818 0.02362 0.0
H1316 H 0.20782 0.27534 0.34601 0.0
H1317 H 0.29241 0.37457 0.34727 0.0
H1318 H 0.24414 0.25323 0.34032 0.0
H1319 H 0.3292 0.35219 0.34148 0.0
H1320 H 0.36302 0.29009 0.3097 0.0
H1321 H 0.33644 0.32069 0.31885 0.0
H1322 H 0.28987 0.24869 0.3538 0.0
H1323 H 0.31573 0.21785 0.34458 0.0
C1324 C 0.23423 0.29245 0.34494 0.0
C1325 C 0.24731 0.32669 0.3469 0.0
C1326 C 0.25507 0.27976 0.34188 0.0
C1327 C 0.28949 0.30099 0.34061 0.0
C1328 C 0.30272 0.33534 0.34243 0.0
C1329 C 0.28178 0.34808 0.34574 0.0
C1330 C 0.34764 0.28122 0.31951 0.0
C1331 C 0.34121 0.25138 0.32633 0.0
C1332 C 0.33264 0.29884 0.3248 0.0
C1333 C 0.31079 0.28674 0.33689 0.0
C1334 C 0.30635 0.25832 0.34434 0.0
C1335 C 0.32145 0.24085 0.33914 0.0
H1336 H 0.91054 0.23924 0.65818 0.0
H1337 H 0.93652 0.2911 0.70011 0.0
H1338 H 0.96607 0.27679 0.64897 0.0
H1339 H 0.99273 0.3277 0.69097 0.0
H1340 H 0.06591 0.35991 0.63407 0.0
H1341 H 0.00952 0.33845 0.64339 0.0
H1342 H 0.03704 0.31123 0.68442 0.0
H1343 H 0.09275 0.33102 0.67501 0.0
C1344 C 0.92767 0.25913 0.66534 0.0
C1345 C 0.91897 0.26172 0.68 0.0
C1346 C 0.95962 0.28062 0.66004 0.0
C1347 C 0.98373 0.30494 0.66931 0.0
C1348 C 0.97465 0.3089 0.68366 0.0
C1349 C 0.94251 0.28775 0.6889 0.0
C1350 C 0.06007 0.34953 0.64512 0.0
C1351 C 0.08393 0.34675 0.65366 0.0
C1352 C 0.02782 0.33747 0.65046 0.0
C1353 C 0.01894 0.32305 0.66457 0.0
C1354 C 0.04333 0.32255 0.67355 0.0
C1355 C 0.07539 0.33407 0.66813 0.0
H1356 H 0.66625 0.89344 0.98678 0.0
H1357 H 0.63959 0.92958 0.02552 0.0
H1358 H 0.69027 0.94808 0.97563 0.0
H1359 H 0.66534 0.98488 0.01458 0.0
H1360 H 0.71056 0.08227 0.98855 0.0
H1361 H 0.67004 0.02433 0.99469 0.0
H1362 H 0.74262 0.99582 0.98335 0.0
H1363 H 0.78229 0.05286 0.97706 0.0
C1364 C 0.66458 0.91271 0.99277 0.0
C1365 C 0.65156 0.90722 0.0072 0.0
C1366 C 0.67875 0.9442 0.98642 0.0
C1367 C 0.68049 0.97096 0.99439 0.0
C1368 C 0.66453 0.9648 0.00819 0.0
C1369 C 0.65011 0.93318 0.01452 0.0
C1370 C 0.71752 0.0634 0.98725 0.0
C1371 C 0.74965 0.07203 0.98255 0.0
C1372 C 0.69445 0.03037 0.99078 0.0
C1373 C 0.70307 0.00549 0.98941 0.0
C1374 C 0.73494 0.01422 0.98429 0.0
C1375 C 0.75789 0.04702 0.98091 0.0
H1376 H 0.66642 0.7576 0.3419 0.0
H1377 H 0.63512 0.70109 0.30122 0.0
H1378 H 0.68358 0.71991 0.3516 0.0
H1379 H 0.6536 0.66396 0.31088 0.0
H1380 H 0.70514 0.64269 0.36803 0.0
H1381 H 0.66756 0.66109 0.35889 0.0
H1382 H 0.71324 0.67845 0.31576 0.0
H1383 H 0.75139 0.66119 0.3249 0.0
C1384 C 0.66217 0.73658 0.33517 0.0
C1385 C 0.64979 0.73277 0.32066 0.0
C1386 C 0.67213 0.71495 0.34075 0.0
C1387 C 0.67024 0.68922 0.33193 0.0
C1388 C 0.6557 0.68388 0.31784 0.0
C1389 C 0.64531 0.70527 0.31231 0.0
C1390 C 0.70692 0.65006 0.35654 0.0
C1391 C 0.73175 0.65104 0.34729 0.0
C1392 C 0.68527 0.6604 0.35131 0.0
C1393 C 0.68769 0.67146 0.33666 0.0
C1394 C 0.71057 0.66975 0.32707 0.0
C1395 C 0.73245 0.65977 0.33233 0.0
H1396 H 0.09552 0.75634 0.65658 0.0
H1397 H 0.06477 0.70792 0.69908 0.0
H1398 H 0.04026 0.72 0.64678 0.0
H1399 H 0.00932 0.67101 0.68921 0.0
H1400 H 0.94034 0.64852 0.63019 0.0
H1401 H 0.99579 0.66622 0.63983 0.0
H1402 H 0.96498 0.68113 0.68292 0.0
H1403 H 0.90969 0.66301 0.67333 0.0
C1404 C 0.07725 0.73713 0.66369 0.0
C1405 C 0.08436 0.73526 0.67864 0.0
C1406 C 0.04547 0.7162 0.65807 0.0
C1407 C 0.02013 0.69282 0.66727 0.0
C1408 C 0.02805 0.68921 0.68192 0.0
C1409 C 0.05981 0.71027 0.68756 0.0
C1410 C 0.94534 0.65499 0.64179 0.0
C1411 C 0.92081 0.65476 0.65097 0.0
C1412 C 0.9771 0.6652 0.6473 0.0
C1413 C 0.98504 0.67556 0.6621 0.0
C1414 C 0.95974 0.673 0.67152 0.0
C1415 C 0.92796 0.66263 0.66601 0.0
H1416 H 0.05036 0.25648 0.99879 0.0
H1417 H 0.03403 0.17383 0.97122 0.0
H1418 H 0.09595 0.25462 0.01115 0.0
H1419 H 0.07999 0.17217 0.98346 0.0
H1420 H 0.14555 0.15979 0.01744 0.0
H1421 H 0.09727 0.15961 0.00672 0.0
H1422 H 0.15148 0.26683 0.00586 0.0
H1423 H 0.19898 0.26701 0.01716 0.0
C1424 C 0.05673 0.2381 0.99528 0.0
C1425 C 0.03876 0.21546 0.98396 0.0
C1426 C 0.08286 0.23701 0.00237 0.0
C1427 C 0.09175 0.21334 0.99826 0.0
C1428 C 0.07351 0.19043 0.98704 0.0
C1429 C 0.04725 0.19143 0.97999 0.0
C1430 C 0.14695 0.1833 0.01516 0.0
C1431 C 0.17618 0.2134 0.01811 0.0
C1432 C 0.11943 0.1832 0.00885 0.0
C1433 C 0.12052 0.21321 0.00537 0.0
C1434 C 0.14961 0.24327 0.00853 0.0
C1435 C 0.17704 0.24336 0.01485 0.0
H1436 H 0.80568 0.06302 0.3195 0.0
H1437 H 0.85539 0.0059 0.32309 0.0
H1438 H 0.85237 0.10968 0.33179 0.0
H1439 H 0.90209 0.05261 0.33561 0.0
H1440 H 0.99334 0.16006 0.33985 0.0
H1441 H 0.9469 0.11059 0.32904 0.0
H1442 H 0.87871 0.12355 0.35684 0.0
H1443 H 0.92511 0.17264 0.3679 0.0
C1444 C 0.82668 0.06051 0.32288 0.0
C1445 C 0.827 0.03091 0.32027 0.0
C1446 C 0.85323 0.08708 0.33005 0.0
C1447 C 0.8808 0.08473 0.3347 0.0
C1448 C 0.88121 0.05515 0.33208 0.0
C1449 C 0.85445 0.0284 0.32501 0.0
C1450 C 0.96853 0.15205 0.34388 0.0
C1451 C 0.96298 0.17047 0.3547 0.0
C1452 C 0.94193 0.12373 0.33764 0.0
C1453 C 0.9092 0.11336 0.34203 0.0
C1454 C 0.90366 0.13129 0.35308 0.0
C1455 C 0.93024 0.15945 0.35938 0.0
H1456 H 0.82341 0.83138 0.66561 0.0
H1457 H 0.75648 0.82591 0.63118 0.0
H1458 H 0.82373 0.88013 0.67598 0.0
H1459 H 0.7568 0.87468 0.64153 0.0
H1460 H 0.73353 0.9326 0.67715 0.0
H1461 H 0.73554 0.88597 0.66575 0.0
H1462 H 0.84256 0.94028 0.6685 0.0
H1463 H 0.84056 0.98701 0.67992 0.0
C1464 C 0.80887 0.8407 0.66026 0.0
C1465 C 0.78988 0.82491 0.64762 0.0
C1466 C 0.80923 0.86867 0.66611 0.0
C1467 C 0.79023 0.88106 0.65956 0.0
C1468 C 0.77149 0.86546 0.64685 0.0
C1469 C 0.7715 0.83777 0.64087 0.0
C1470 C 0.75745 0.93449 0.67536 0.0
C1471 C 0.78689 0.96331 0.67944 0.0
C1472 C 0.75861 0.90798 0.66873 0.0
C1473 C 0.78921 0.9096 0.66624 0.0
C1474 C 0.81866 0.93837 0.67037 0.0
C1475 C 0.81752 0.96511 0.67681 0.0
H1476 H 0.83737 0.83194 0.00249 0.0
H1477 H 0.81524 0.74156 0.02531 0.0
H1478 H 0.88652 0.8343 0.99153 0.0
H1479 H 0.86351 0.74322 0.01394 0.0
H1480 H 0.97019 0.77358 0.00334 0.0
H1481 H 0.92359 0.77501 0.01488 0.0
H1482 H 0.90077 0.8047 0.97321 0.0
H1483 H 0.94761 0.80339 0.96167 0.0
C1484 C 0.84307 0.81267 0.00522 0.0
C1485 C 0.8224 0.78656 0.01478 0.0
C1486 C 0.87101 0.81382 0.99881 0.0
C1487 C 0.87893 0.78895 0.00186 0.0
C1488 C 0.85835 0.76299 0.01149 0.0
C1489 C 0.83045 0.76182 0.01788 0.0
C1490 C 0.95513 0.78026 0.99662 0.0
C1491 C 0.96241 0.7881 0.98156 0.0
C1492 C 0.92842 0.78108 0.00323 0.0
C1493 C 0.90831 0.78973 0.99494 0.0
C1494 C 0.916 0.79827 0.97995 0.0
C1495 C 0.9428 0.7975 0.97333 0.0
H1496 H 0.04301 0.79127 0.3278 0.0
H1497 H 0.02904 0.8566 0.35714 0.0
H1498 H 0.09064 0.83901 0.31663 0.0
H1499 H 0.0767 0.90441 0.34594 0.0
H1500 H 0.14663 0.98449 0.31349 0.0
H1501 H 0.0962 0.93636 0.32282 0.0
H1502 H 0.14699 0.87999 0.32394 0.0
H1503 H 0.1969 0.92761 0.31419 0.0
C1504 C 0.05021 0.81582 0.33192 0.0
C1505 C 0.03238 0.82011 0.34344 0.0
C1506 C 0.07747 0.84318 0.3255 0.0
C1507 C 0.08755 0.87549 0.33044 0.0
C1508 C 0.06932 0.87986 0.34176 0.0
C1509 C 0.04203 0.85247 0.34819 0.0
C1510 C 0.14684 0.96166 0.31555 0.0
C1511 C 0.17577 0.95987 0.31316 0.0
C1512 C 0.11808 0.93423 0.32104 0.0
C1513 C 0.11762 0.90439 0.32416 0.0
C1514 C 0.14641 0.90249 0.32152 0.0
C1515 C 0.17514 0.9299 0.31609 0.0
H1516 H 0.23794 0.06911 0.69818 0.0
H1517 H 0.16518 0.00455 0.6662 0.0
H1518 H 0.23593 0.11639 0.68783 0.0
H1519 H 0.16281 0.05183 0.65593 0.0
H1520 H 0.19936 0.14964 0.63051 0.0
H1521 H 0.19726 0.10092 0.64159 0.0
H1522 H 0.20155 0.14111 0.68518 0.0
H1523 H 0.2054 0.19059 0.67409 0.0
C1524 C 0.2211 0.06494 0.68909 0.0
C1525 C 0.20178 0.03312 0.68298 0.0
C1526 C 0.21991 0.09205 0.68316 0.0
C1527 C 0.19926 0.08794 0.67102 0.0
C1528 C 0.17941 0.05596 0.66511 0.0
C1529 C 0.18071 0.02887 0.67101 0.0
C1530 C 0.20007 0.14819 0.64245 0.0
C1531 C 0.20273 0.17414 0.6514 0.0
C1532 C 0.19842 0.12004 0.64882 0.0
C1533 C 0.19928 0.1171 0.66428 0.0
C1534 C 0.20125 0.14275 0.67323 0.0
C1535 C 0.20302 0.17095 0.66687 0.0
loop_
_geom_bond_atom_site_label_1
_geom_bond_atom_site_label_2
_geom_bond_distance
_geom_bond_site_symmetry_2
_ccdc_geom_bond_type
Li0 N17 1.990 . S
Li0 O60 1.956 . S
Li0 O61 1.970 . S
Li0 O62 1.961 . S
Li1 N25 1.990 . S
Li1 O60 1.970 . S
Li1 O61 1.956 . S
Li1 O63 1.961 . S
Li2 N47 1.990 . S
Li2 O60 1.961 . S
Li2 O62 1.956 . S
Li2 O63 1.970 . S
Li3 N53 1.990 . S
Li3 O61 1.961 . S
Li3 O62 1.970 . S
Li3 O63 1.956 . S
C4 C6 1.348 . S
C4 C7 1.356 . S
C4 O60 1.325 . S
N5 C8 1.314 . S
N5 C9 1.279 . S
C6 C4 1.348 . S
C6 C8 1.353 . S
C6 H64 0.929 . S
C7 C4 1.356 . S
C7 C9 1.358 . S
C7 H65 0.930 . S
C8 N5 1.314 . S
C8 C6 1.353 . S
C8 H66 0.930 . S
C9 N5 1.279 . S
C9 C7 1.358 . S
C9 H67 0.930 . S
C10 C13 1.348 . S
C10 C14 1.356 . S
C10 O61 1.325 . S
C11 N12 1.279 . S
C11 C14 1.358 . S
C11 H68 0.930 . S
N12 C11 1.279 . S
N12 C15 1.314 . S
C13 C10 1.348 . S
C13 C15 1.353 . S
C13 H69 0.929 . S
C14 C10 1.356 . S
C14 C11 1.358 . S
C14 H70 0.930 . S
C15 N12 1.314 . S
C15 C13 1.353 . S
C15 H71 0.930 . S
C16 N17 1.314 . S
C16 C21 1.353 . S
C16 H22 0.930 . S
N17 Li0 1.990 . S
N17 C16 1.314 . S
N17 C19 1.279 . S
C18 C19 1.358 . S
C18 C20 1.356 . S
C18 H72 0.930 . S
C19 N17 1.279 . S
C19 C18 1.358 . S
C19 H23 0.930 . S
C20 C18 1.356 . S
C20 C21 1.348 . S
C21 C16 1.353 . S
C21 C20 1.348 . S
C21 H73 0.929 . S
H22 C16 0.930 . S
H23 C19 0.930 . S
C24 N25 1.314 . S
C24 C26 1.353 . S
C24 H30 0.930 . S
N25 Li1 1.990 . S
N25 C24 1.314 . S
N25 C28 1.279 . S
C26 C24 1.353 . S
C26 C29 1.348 . S
C26 H74 0.929 . S
C27 C28 1.358 . S
C27 C29 1.356 . S
C27 H75 0.930 . S
C28 N25 1.279 . S
C28 C27 1.358 . S
C28 H31 0.930 . S
C29 C26 1.348 . S
C29 C27 1.356 . S
H30 C24 0.930 . S
H31 C28 0.930 . S
C32 C34 1.348 . S
C32 C35 1.391 . S
C32 O62 1.325 . S
N33 C36 1.314 . S
N33 C37 1.279 . S
C34 C32 1.348 . S
C34 C36 1.353 1_554 S
C34 H76 0.929 . S
C35 C32 1.391 . S
C35 C37 1.299 1_554 S
C35 H77 0.957 . S
C36 N33 1.314 . S
C36 C34 1.353 1_556 S
C36 H78 0.930 . S
C37 N33 1.279 . S
C37 C35 1.299 1_556 S
C37 H79 0.930 . S
C38 C39 1.348 . S
C38 C40 1.356 . S
C38 O63 1.325 . S
C39 C38 1.348 . S
C39 C41 1.353 . S
C39 H80 0.929 . S
C40 C38 1.356 . S
C40 C42 1.358 . S
C40 H81 0.930 . S
C41 C39 1.353 . S
C41 N43 1.314 . S
C41 H82 0.930 . S
C42 C40 1.358 . S
C42 N43 1.279 . S
C42 H83 0.930 . S
N43 C41 1.314 . S
N43 C42 1.279 . S
C44 C46 1.353 . S
C44 N47 1.314 . S
C44 H50 0.930 . S
C45 N47 1.279 . S
C45 C48 1.358 1_554 S
C45 H51 0.930 . S
C46 C44 1.353 . S
C46 C49 1.348 . S
C46 H84 0.929 . S
N47 Li2 1.990 . S
N47 C44 1.314 . S
N47 C45 1.279 . S
C48 C45 1.358 1_556 S
C48 C49 1.356 1_556 S
C48 H85 0.930 . S
C49 C46 1.348 . S
C49 C48 1.356 1_554 S
H50 C44 0.930 . S
H51 C45 0.930 . S
C52 N53 1.314 . S
C52 C54 1.353 . S
C52 H58 0.930 . S
N53 Li3 1.990 . S
N53 C52 1.314 . S
N53 C56 1.279 . S
C54 C52 1.353 . S
C54 C57 1.348 . S
C54 H86 0.929 . S
C55 C56 1.358 . S
C55 C57 1.356 . S
C55 H87 0.930 . S
C56 N53 1.279 . S
C56 C55 1.358 . S
C56 H59 0.930 . S
C57 C54 1.348 . S
C57 C55 1.356 . S
H58 C52 0.930 . S
H59 C56 0.930 . S
O60 Li0 1.956 . S
O60 Li1 1.970 . S
O60 Li2 1.961 . S
O60 C4 1.325 . S
O61 Li0 1.970 . S
O61 Li1 1.956 . S
O61 Li3 1.961 . S
O61 C10 1.325 . S
O62 Li0 1.961 . S
O62 Li2 1.956 . S
O62 Li3 1.970 . S
O62 C32 1.325 . S
O63 Li1 1.961 . S
O63 Li2 1.970 . S
O63 Li3 1.956 . S
O63 C38 1.325 . S
H64 C6 0.929 . S
H65 C7 0.930 . S
H66 C8 0.930 . S
H67 C9 0.930 . S
H68 C11 0.930 . S
H69 C13 0.929 . S
H70 C14 0.930 . S
H71 C15 0.930 . S
H72 C18 0.930 . S
H73 C21 0.929 . S
H74 C26 0.929 . S
H75 C27 0.930 . S
H76 C34 0.929 . S
H77 C35 0.957 . S
H78 C36 0.930 . S
H79 C37 0.930 . S
H80 C39 0.929 . S
H81 C40 0.930 . S
H82 C41 0.930 . S
H83 C42 0.930 . S
H84 C46 0.929 . S
H85 C48 0.930 . S
H86 C54 0.929 . S
H87 C55 0.930 . S
Li88 N105 1.990 . S
Li88 O148 1.956 . S
Li88 O149 1.970 . S
Li88 O150 1.961 . S
Li89 N113 1.990 . S
Li89 O148 1.970 . S
Li89 O149 1.956 . S
Li89 O151 1.961 . S
Li90 N135 1.990 . S
Li90 O148 1.961 . S
Li90 O150 1.956 . S
Li90 O151 1.970 . S
Li91 N141 1.990 . S
Li91 O149 1.961 . S
Li91 O150 1.970 . S
Li91 O151 1.956 . S
C92 C94 1.348 . S
C92 C95 1.356 . S
C92 O148 1.325 . S
N93 C96 1.314 . S
N93 C97 1.279 . S
C94 C92 1.348 . S
C94 C96 1.353 . S
C94 H152 0.929 . S
C95 C92 1.356 . S
C95 C97 1.358 . S
C95 H153 0.930 . S
C96 N93 1.314 . S
C96 C94 1.353 . S
C96 H154 0.930 . S
C97 N93 1.279 . S
C97 C95 1.358 . S
C97 H155 0.930 . S
C98 C101 1.348 . S
C98 C102 1.356 . S
C98 O149 1.325 . S
C99 N100 1.279 1_455 S
C99 C102 1.358 . S
C99 H156 0.930 1_455 S
N100 C99 1.279 1_655 S
N100 C103 1.314 1_655 S
C101 C98 1.348 . S
C101 C103 1.353 . S
C101 H157 0.929 . S
C102 C98 1.356 . S
C102 C99 1.358 . S
C102 H158 0.930 . S
C103 N100 1.314 1_455 S
C103 C101 1.353 . S
C103 H159 0.930 . S
C104 N105 1.314 . S
C104 C109 1.353 . S
C104 H110 0.930 . S
N105 Li88 1.990 . S
N105 C104 1.314 . S
N105 C107 1.279 . S
C106 C107 1.358 . S
C106 C108 1.356 . S
C106 H160 0.930 . S
C107 N105 1.279 . S
C107 C106 1.358 . S
C107 H111 0.930 . S
C108 C106 1.356 . S
C108 C109 1.348 . S
C109 C104 1.353 . S
C109 C108 1.348 . S
C109 H161 0.929 . S
H110 C104 0.930 . S
H111 C107 0.930 . S
C112 N113 1.314 . S
C112 C114 1.353 . S
C112 H118 0.930 . S
N113 Li89 1.990 . S
N113 C112 1.314 . S
N113 C116 1.279 . S
C114 C112 1.353 . S
C114 C117 1.348 . S
C114 H162 0.929 . S
C115 C116 1.358 . S
C115 C117 1.356 . S
C115 H163 0.930 . S
C116 N113 1.279 . S
C116 C115 1.358 . S
C116 H119 0.930 . S
C117 C114 1.348 . S
C117 C115 1.356 . S
H118 C112 0.930 . S
H119 C116 0.930 . S
C120 C122 1.348 . S
C120 C123 1.356 . S
C120 O150 1.325 . S
N121 C124 1.314 . S
N121 C125 1.279 . S
C122 C120 1.348 . S
C122 C124 1.353 . S
C122 H164 0.929 . S
C123 C120 1.356 . S
C123 C125 1.358 . S
C123 H165 0.930 . S
C124 N121 1.314 . S
C124 C122 1.353 . S
C124 H166 0.930 . S
C125 N121 1.279 . S
C125 C123 1.358 . S
C125 H167 0.930 . S
C126 C127 1.348 . S
C126 C128 1.356 . S
C126 O151 1.325 . S
C127 C126 1.348 . S
C127 C129 1.353 . S
C127 H168 0.929 . S
C128 C126 1.356 . S
C128 C130 1.358 . S
C128 H169 0.930 . S
C129 C127 1.353 . S
C129 N131 1.314 . S
C129 H170 0.930 . S
C130 C128 1.358 . S
C130 N131 1.279 . S
C130 H171 0.930 . S
N131 C129 1.314 . S
N131 C130 1.279 . S
C132 C134 1.353 . S
C132 N135 1.314 . S
C132 H138 0.930 . S
C133 N135 1.279 . S
C133 C136 1.358 . S
C133 H139 0.930 . S
C134 C132 1.353 . S
C134 C137 1.348 . S
C134 H172 0.929 . S
N135 Li90 1.990 . S
N135 C132 1.314 . S
N135 C133 1.279 . S
C136 C133 1.358 . S
C136 C137 1.356 . S
C136 H173 0.930 . S
C137 C134 1.348 . S
C137 C136 1.356 . S
H138 C132 0.930 . S
H139 C133 0.930 . S
C140 N141 1.335 . S
C140 C142 1.340 1_455 S
C140 H146 0.920 . S
N141 Li91 1.990 . S
N141 C140 1.335 . S
N141 C144 1.279 . S
C142 C140 1.340 1_655 S
C142 C145 1.348 . S
C142 H174 0.929 . S
C143 C144 1.358 1_655 S
C143 C145 1.356 . S
C143 H175 0.930 . S
C144 N141 1.279 . S
C144 C143 1.358 1_455 S
C144 H147 0.930 . S
C145 C142 1.348 . S
C145 C143 1.356 . S
H146 C140 0.920 . S
H147 C144 0.930 . S
O148 Li88 1.956 . S
O148 Li89 1.970 . S
O148 Li90 1.961 . S
O148 C92 1.325 . S
O149 Li88 1.970 . S
O149 Li89 1.956 . S
O149 Li91 1.961 . S
O149 C98 1.325 . S
O150 Li88 1.961 . S
O150 Li90 1.956 . S
O150 Li91 1.970 . S
O150 C120 1.325 . S
O151 Li89 1.961 . S
O151 Li90 1.970 . S
O151 Li91 1.956 . S
O151 C126 1.325 . S
H152 C94 0.929 . S
H153 C95 0.930 . S
H154 C96 0.930 . S
H155 C97 0.930 . S
H156 C99 0.930 1_655 S
H157 C101 0.929 . S
H158 C102 0.930 . S
H159 C103 0.930 . S
H160 C106 0.930 . S
H161 C109 0.929 . S
H162 C114 0.929 . S
H163 C115 0.930 . S
H164 C122 0.929 . S
H165 C123 0.930 . S
H166 C124 0.930 . S
H167 C125 0.930 . S
H168 C127 0.929 . S
H169 C128 0.930 . S
H170 C129 0.930 . S
H171 C130 0.930 . S
H172 C134 0.929 . S
H173 C136 0.930 . S
H174 C142 0.929 . S
H175 C143 0.930 . S
Li176 N193 1.990 . S
Li176 O236 1.956 . S
Li176 O237 1.970 . S
Li176 O238 1.961 . S
Li177 N201 1.990 . S
Li177 O236 1.970 . S
Li177 O237 1.956 . S
Li177 O239 1.961 . S
Li178 N223 1.990 . S
Li178 O236 1.961 . S
Li178 O238 1.956 . S
Li178 O239 1.970 . S
Li179 N229 1.990 . S
Li179 O237 1.961 . S
Li179 O238 1.970 . S
Li179 O239 1.956 . S
C180 C182 1.348 . S
C180 C183 1.356 . S
C180 O236 1.325 . S
N181 C184 1.314 1_565 S
N181 C185 1.279 1_565 S
C182 C180 1.348 . S
C182 C184 1.353 . S
C182 H240 0.929 . S
C183 C180 1.356 . S
C183 C185 1.358 . S
C183 H241 0.930 . S
C184 N181 1.314 1_545 S
C184 C182 1.353 . S
C184 H242 0.930 . S
C185 N181 1.279 1_545 S
C185 C183 1.358 . S
C185 H243 0.930 1_545 S
C186 C189 1.348 . S
C186 C190 1.356 . S
C186 O237 1.325 . S
C187 N188 1.279 . S
C187 C190 1.358 . S
C187 H244 0.930 . S
N188 C187 1.279 . S
N188 C191 1.314 . S
C189 C186 1.348 . S
C189 C191 1.353 . S
C189 H245 0.929 . S
C190 C186 1.356 . S
C190 C187 1.358 . S
C190 H246 0.930 . S
C191 N188 1.314 . S
C191 C189 1.353 . S
C191 H247 0.930 . S
C192 N193 1.314 . S
C192 C197 1.353 . S
C192 H198 0.930 . S
N193 Li176 1.990 . S
N193 C192 1.314 . S
N193 C195 1.279 . S
C194 C195 1.358 . S
C194 C196 1.356 . S
C194 H248 0.930 . S
C195 N193 1.279 . S
C195 C194 1.358 . S
C195 H199 0.930 . S
C196 C194 1.356 . S
C196 C197 1.348 . S
C197 C192 1.353 . S
C197 C196 1.348 . S
C197 H249 0.929 . S
H198 C192 0.930 . S
H199 C195 0.930 . S
C200 N201 1.314 . S
C200 C202 1.353 . S
C200 H206 0.930 . S
N201 Li177 1.990 . S
N201 C200 1.314 . S
N201 C204 1.279 . S
C202 C200 1.353 . S
C202 C205 1.348 . S
C202 H250 0.929 . S
C203 C204 1.358 . S
C203 C205 1.356 . S
C203 H251 0.930 . S
C204 N201 1.279 . S
C204 C203 1.358 . S
C204 H207 0.930 . S
C205 C202 1.348 . S
C205 C203 1.356 . S
H206 C200 0.930 . S
H207 C204 0.930 . S
C208 C210 1.348 . S
C208 C211 1.356 . S
C208 O238 1.325 . S
N209 C212 1.314 . S
N209 C213 1.279 . S
C210 C208 1.348 . S
C210 C212 1.353 . S
C210 H252 0.929 . S
C211 C208 1.356 . S
C211 C213 1.358 . S
C211 H253 0.930 . S
C212 N209 1.314 . S
C212 C210 1.353 . S
C212 H254 0.930 . S
C213 N209 1.279 . S
C213 C211 1.358 . S
C213 H255 0.930 . S
C214 C215 1.348 . S
C214 C216 1.356 . S
C214 O239 1.325 . S
C215 C214 1.348 . S
C215 C217 1.353 . S
C215 H256 0.929 . S
C216 C214 1.356 . S
C216 C218 1.358 . S
C216 H257 0.930 . S
C217 C215 1.353 . S
C217 N219 1.314 . S
C217 H258 0.930 . S
C218 C216 1.358 . S
C218 N219 1.279 . S
C218 H259 0.930 . S
N219 C217 1.314 . S
N219 C218 1.279 . S
C220 C222 1.334 1_545 S
C220 N223 1.324 . S
C220 H226 0.941 . S
C221 N223 1.279 . S
C221 C224 1.358 1_545 S
C221 H227 0.930 . S
C222 C220 1.334 1_565 S
C222 C225 1.348 . S
C222 H260 0.929 . S
N223 Li178 1.990 . S
N223 C220 1.324 . S
N223 C221 1.279 . S
C224 C221 1.358 1_565 S
C224 C225 1.356 . S
C224 H261 0.930 . S
C225 C222 1.348 . S
C225 C224 1.356 . S
H226 C220 0.941 . S
H227 C221 0.930 . S
C228 N229 1.314 . S
C228 C230 1.353 . S
C228 H234 0.930 . S
N229 Li179 1.990 . S
N229 C228 1.314 . S
N229 C232 1.279 . S
C230 C228 1.353 . S
C230 C233 1.348 . S
C230 H262 0.929 . S
C231 C232 1.358 . S
C231 C233 1.356 . S
C231 H263 0.930 . S
C232 N229 1.279 . S
C232 C231 1.358 . S
C232 H235 0.930 . S
C233 C230 1.348 . S
C233 C231 1.356 . S
H234 C228 0.930 . S
H235 C232 0.930 . S
O236 Li176 1.956 . S
O236 Li177 1.970 . S
O236 Li178 1.961 . S
O236 C180 1.325 . S
O237 Li176 1.970 . S
O237 Li177 1.956 . S
O237 Li179 1.961 . S
O237 C186 1.325 . S
O238 Li176 1.961 . S
O238 Li178 1.956 . S
O238 Li179 1.970 . S
O238 C208 1.325 . S
O239 Li177 1.961 . S
O239 Li178 1.970 . S
O239 Li179 1.956 . S
O239 C214 1.325 . S
H240 C182 0.929 . S
H241 C183 0.930 . S
H242 C184 0.930 . S
H243 C185 0.930 1_565 S
H244 C187 0.930 . S
H245 C189 0.929 . S
H246 C190 0.930 . S
H247 C191 0.930 . S
H248 C194 0.930 . S
H249 C197 0.929 . S
H250 C202 0.929 . S
H251 C203 0.930 . S
H252 C210 0.929 . S
H253 C211 0.930 . S
H254 C212 0.930 . S
H255 C213 0.930 . S
H256 C215 0.929 . S
H257 C216 0.930 . S
H258 C217 0.930 . S
H259 C218 0.930 . S
H260 C222 0.929 . S
H261 C224 0.930 . S
H262 C230 0.929 . S
H263 C231 0.930 . S
Li264 N281 1.990 . S
Li264 O324 1.956 . S
Li264 O325 1.970 . S
Li264 O326 1.961 . S
Li265 N289 1.990 . S
Li265 O324 1.970 . S
Li265 O325 1.956 . S
Li265 O327 1.961 . S
Li266 N311 1.990 . S
Li266 O324 1.961 . S
Li266 O326 1.956 . S
Li266 O327 1.970 . S
Li267 N317 1.990 . S
Li267 O325 1.961 . S
Li267 O326 1.970 . S
Li267 O327 1.956 . S
C268 C270 1.348 . S
C268 C271 1.356 . S
C268 O324 1.325 . S
N269 C272 1.314 . S
N269 C273 1.279 . S
C270 C268 1.348 . S
C270 C272 1.353 . S
C270 H328 0.929 . S
C271 C268 1.356 . S
C271 C273 1.358 . S
C271 H329 0.930 . S
C272 N269 1.314 . S
C272 C270 1.353 . S
C272 H330 0.930 . S
C273 N269 1.279 . S
C273 C271 1.358 . S
C273 H331 0.930 . S
C274 C277 1.348 . S
C274 C278 1.356 . S
C274 O325 1.325 . S
C275 N276 1.279 . S
C275 C278 1.358 . S
C275 H332 0.930 . S
N276 C275 1.279 . S
N276 C279 1.314 . S
C277 C274 1.348 . S
C277 C279 1.353 . S
C277 H333 0.929 . S
C278 C274 1.356 . S
C278 C275 1.358 . S
C278 H334 0.930 . S
C279 N276 1.314 . S
C279 C277 1.353 . S
C279 H335 0.930 . S
C280 N281 1.314 . S
C280 C285 1.353 . S
C280 H286 0.930 . S
N281 Li264 1.990 . S
N281 C280 1.314 . S
N281 C283 1.279 . S
C282 C283 1.358 . S
C282 C284 1.356 . S
C282 H336 0.930 . S
C283 N281 1.279 . S
C283 C282 1.358 . S
C283 H287 0.930 . S
C284 C282 1.356 . S
C284 C285 1.348 . S
C285 C280 1.353 . S
C285 C284 1.348 . S
C285 H337 0.929 . S
H286 C280 0.930 . S
H287 C283 0.930 . S
C288 N289 1.314 . S
C288 C290 1.353 . S
C288 H294 0.930 . S
N289 Li265 1.990 . S
N289 C288 1.314 . S
N289 C292 1.279 . S
C290 C288 1.353 . S
C290 C293 1.348 . S
C290 H338 0.929 . S
C291 C292 1.358 . S
C291 C293 1.356 . S
C291 H339 0.930 . S
C292 N289 1.279 . S
C292 C291 1.358 . S
C292 H295 0.930 . S
C293 C290 1.348 . S
C293 C291 1.356 . S
H294 C288 0.930 . S
H295 C292 0.930 . S
C296 C298 1.348 . S
C296 C299 1.356 . S
C296 O326 1.325 . S
N297 C300 1.314 . S
N297 C301 1.279 . S
C298 C296 1.348 . S
C298 C300 1.353 . S
C298 H340 0.929 . S
C299 C296 1.356 . S
C299 C301 1.358 . S
C299 H341 0.930 . S
C300 N297 1.314 . S
C300 C298 1.353 . S
C300 H342 0.930 . S
C301 N297 1.279 . S
C301 C299 1.358 . S
C301 H343 0.930 . S
C302 C303 1.348 . S
C302 C304 1.391 . S
C302 O327 1.325 . S
C303 C302 1.348 . S
C303 C305 1.353 1_554 S
C303 H344 0.929 . S
C304 C302 1.391 . S
C304 C306 1.299 1_554 S
C304 H345 0.957 . S
C305 C303 1.353 1_556 S
C305 N307 1.314 . S
C305 H346 0.930 . S
C306 C304 1.299 1_556 S
C306 N307 1.279 . S
C306 H347 0.930 . S
N307 C305 1.314 . S
N307 C306 1.279 . S
C308 C310 1.353 . S
C308 N311 1.314 . S
C308 H314 0.930 . S
C309 N311 1.279 . S
C309 C312 1.358 . S
C309 H315 0.930 . S
C310 C308 1.353 . S
C310 C313 1.348 . S
C310 H348 0.929 . S
N311 Li266 1.990 . S
N311 C308 1.314 . S
N311 C309 1.279 . S
C312 C309 1.358 . S
C312 C313 1.356 . S
C312 H349 0.930 . S
C313 C310 1.348 . S
C313 C312 1.356 . S
H314 C308 0.930 . S
H315 C309 0.930 . S
C316 N317 1.314 . S
C316 C318 1.353 . S
C316 H322 0.930 . S
N317 Li267 1.990 . S
N317 C316 1.314 . S
N317 C320 1.279 . S
C318 C316 1.353 . S
C318 C321 1.348 . S
C318 H350 0.929 . S
C319 C320 1.358 1_556 S
C319 C321 1.356 1_556 S
C319 H351 0.930 . S
C320 N317 1.279 . S
C320 C319 1.358 1_554 S
C320 H323 0.930 . S
C321 C318 1.348 . S
C321 C319 1.356 1_554 S
H322 C316 0.930 . S
H323 C320 0.930 . S
O324 Li264 1.956 . S
O324 Li265 1.970 . S
O324 Li266 1.961 . S
O324 C268 1.325 . S
O325 Li264 1.970 . S
O325 Li265 1.956 . S
O325 Li267 1.961 . S
O325 C274 1.325 . S
O326 Li264 1.961 . S
O326 Li266 1.956 . S
O326 Li267 1.970 . S
O326 C296 1.325 . S
O327 Li265 1.961 . S
O327 Li266 1.970 . S
O327 Li267 1.956 . S
O327 C302 1.325 . S
H328 C270 0.929 . S
H329 C271 0.930 . S
H330 C272 0.930 . S
H331 C273 0.930 . S
H332 C275 0.930 . S
H333 C277 0.929 . S
H334 C278 0.930 . S
H335 C279 0.930 . S
H336 C282 0.930 . S
H337 C285 0.929 . S
H338 C290 0.929 . S
H339 C291 0.930 . S
H340 C298 0.929 . S
H341 C299 0.930 . S
H342 C300 0.930 . S
H343 C301 0.930 . S
H344 C303 0.929 . S
H345 C304 0.957 . S
H346 C305 0.930 . S
H347 C306 0.930 . S
H348 C310 0.929 . S
H349 C312 0.930 . S
H350 C318 0.929 . S
H351 C319 0.930 . S
Li352 N369 1.990 . S
Li352 O412 1.956 . S
Li352 O413 1.970 . S
Li352 O414 1.961 . S
Li353 N377 1.990 . S
Li353 O412 1.970 . S
Li353 O413 1.956 . S
Li353 O415 1.961 . S
Li354 N399 1.990 . S
Li354 O412 1.961 . S
Li354 O414 1.956 . S
Li354 O415 1.970 . S
Li355 N405 1.990 . S
Li355 O413 1.961 . S
Li355 O414 1.970 . S
Li355 O415 1.956 . S
C356 C358 1.348 . S
C356 C359 1.356 . S
C356 O412 1.325 . S
N357 C360 1.314 . S
N357 C361 1.279 . S
C358 C356 1.348 . S
C358 C360 1.353 . S
C358 H416 0.929 . S
C359 C356 1.356 . S
C359 C361 1.358 . S
C359 H417 0.930 . S
C360 N357 1.314 . S
C360 C358 1.353 . S
C360 H418 0.930 . S
C361 N357 1.279 . S
C361 C359 1.358 . S
C361 H419 0.930 . S
C362 C365 1.348 . S
C362 C366 1.356 . S
C362 O413 1.325 . S
C363 N364 1.279 1_655 S
C363 C366 1.358 . S
C363 H420 0.930 1_655 S
N364 C363 1.279 1_455 S
N364 C367 1.314 1_455 S
C365 C362 1.348 . S
C365 C367 1.353 . S
C365 H421 0.929 . S
C366 C362 1.356 . S
C366 C363 1.358 . S
C366 H422 0.930 . S
C367 N364 1.314 1_655 S
C367 C365 1.353 . S
C367 H423 0.930 . S
C368 N369 1.314 . S
C368 C373 1.353 . S
C368 H374 0.930 . S
N369 Li352 1.990 . S
N369 C368 1.314 . S
N369 C371 1.279 . S
C370 C371 1.358 . S
C370 C372 1.356 . S
C370 H424 0.930 . S
C371 N369 1.279 . S
C371 C370 1.358 . S
C371 H375 0.930 . S
C372 C370 1.356 . S
C372 C373 1.348 . S
C373 C368 1.353 . S
C373 C372 1.348 . S
C373 H425 0.929 . S
H374 C368 0.930 . S
H375 C371 0.930 . S
C376 N377 1.314 . S
C376 C378 1.353 . S
C376 H382 0.930 . S
N377 Li353 1.990 . S
N377 C376 1.314 . S
N377 C380 1.279 . S
C378 C376 1.353 . S
C378 C381 1.348 . S
C378 H426 0.929 . S
C379 C380 1.358 . S
C379 C381 1.356 . S
C379 H427 0.930 . S
C380 N377 1.279 . S
C380 C379 1.358 . S
C380 H383 0.930 . S
C381 C378 1.348 . S
C381 C379 1.356 . S
H382 C376 0.930 . S
H383 C380 0.930 . S
C384 C386 1.348 . S
C384 C387 1.356 . S
C384 O414 1.325 . S
N385 C388 1.314 . S
N385 C389 1.279 . S
C386 C384 1.348 . S
C386 C388 1.353 . S
C386 H428 0.929 . S
C387 C384 1.356 . S
C387 C389 1.358 . S
C387 H429 0.930 . S
C388 N385 1.314 . S
C388 C386 1.353 . S
C388 H430 0.930 . S
C389 N385 1.279 . S
C389 C387 1.358 . S
C389 H431 0.930 . S
C390 C391 1.348 . S
C390 C392 1.356 . S
C390 O415 1.325 . S
C391 C390 1.348 . S
C391 C393 1.353 . S
C391 H432 0.929 . S
C392 C390 1.356 . S
C392 C394 1.358 . S
C392 H433 0.930 . S
C393 C391 1.353 . S
C393 N395 1.314 . S
C393 H434 0.930 . S
C394 C392 1.358 . S
C394 N395 1.279 . S
C394 H435 0.930 . S
N395 C393 1.314 . S
N395 C394 1.279 . S
C396 C398 1.353 . S
C396 N399 1.314 . S
C396 H402 0.930 . S
C397 N399 1.279 . S
C397 C400 1.358 . S
C397 H403 0.930 . S
C398 C396 1.353 . S
C398 C401 1.348 . S
C398 H436 0.929 . S
N399 Li354 1.990 . S
N399 C396 1.314 . S
N399 C397 1.279 . S
C400 C397 1.358 . S
C400 C401 1.356 . S
C400 H437 0.930 . S
C401 C398 1.348 . S
C401 C400 1.356 . S
H402 C396 0.930 . S
H403 C397 0.930 . S
C404 N405 1.335 . S
C404 C406 1.340 1_655 S
C404 H410 0.920 . S
N405 Li355 1.990 . S
N405 C404 1.335 . S
N405 C408 1.279 . S
C406 C404 1.340 1_455 S
C406 C409 1.348 . S
C406 H438 0.929 . S
C407 C408 1.358 1_455 S
C407 C409 1.356 . S
C407 H439 0.930 . S
C408 N405 1.279 . S
C408 C407 1.358 1_655 S
C408 H411 0.930 . S
C409 C406 1.348 . S
C409 C407 1.356 . S
H410 C404 0.920 . S
H411 C408 0.930 . S
O412 Li352 1.956 . S
O412 Li353 1.970 . S
O412 Li354 1.961 . S
O412 C356 1.325 . S
O413 Li352 1.970 . S
O413 Li353 1.956 . S
O413 Li355 1.961 . S
O413 C362 1.325 . S
O414 Li352 1.961 . S
O414 Li354 1.956 . S
O414 Li355 1.970 . S
O414 C384 1.325 . S
O415 Li353 1.961 . S
O415 Li354 1.970 . S
O415 Li355 1.956 . S
O415 C390 1.325 . S
H416 C358 0.929 . S
H417 C359 0.930 . S
H418 C360 0.930 . S
H419 C361 0.930 . S
H420 C363 0.930 1_455 S
H421 C365 0.929 . S
H422 C366 0.930 . S
H423 C367 0.930 . S
H424 C370 0.930 . S
H425 C373 0.929 . S
H426 C378 0.929 . S
H427 C379 0.930 . S
H428 C386 0.929 . S
H429 C387 0.930 . S
H430 C388 0.930 . S
H431 C389 0.930 . S
H432 C391 0.929 . S
H433 C392 0.930 . S
H434 C393 0.930 . S
H435 C394 0.930 . S
H436 C398 0.929 . S
H437 C400 0.930 . S
H438 C406 0.929 . S
H439 C407 0.930 . S
Li440 N457 1.990 . S
Li440 O500 1.956 . S
Li440 O501 1.970 . S
Li440 O502 1.961 . S
Li441 N465 1.990 . S
Li441 O500 1.970 . S
Li441 O501 1.956 . S
Li441 O503 1.961 . S
Li442 N487 1.990 . S
Li442 O500 1.961 . S
Li442 O502 1.956 . S
Li442 O503 1.970 . S
Li443 N493 1.990 . S
Li443 O501 1.961 . S
Li443 O502 1.970 . S
Li443 O503 1.956 . S
C444 C446 1.348 . S
C444 C447 1.356 . S
C444 O500 1.325 . S
N445 C448 1.314 . S
N445 C449 1.279 . S
C446 C444 1.348 . S
C446 C448 1.353 . S
C446 H504 0.929 . S
C447 C444 1.356 . S
C447 C449 1.358 . S
C447 H505 0.930 . S
C448 N445 1.314 . S
C448 C446 1.353 . S
C448 H506 0.930 . S
C449 N445 1.279 . S
C449 C447 1.358 . S
C449 H507 0.930 . S
C450 C453 1.348 . S
C450 C454 1.356 . S
C450 O501 1.325 . S
C451 N452 1.279 1_565 S
C451 C454 1.358 . S
C451 H508 0.930 1_565 S
N452 C451 1.279 1_545 S
N452 C455 1.314 1_545 S
C453 C450 1.348 . S
C453 C455 1.353 . S
C453 H509 0.929 . S
C454 C450 1.356 . S
C454 C451 1.358 . S
C454 H510 0.930 . S
C455 N452 1.314 1_565 S
C455 C453 1.353 . S
C455 H511 0.930 . S
C456 N457 1.314 . S
C456 C461 1.353 . S
C456 H462 0.930 . S
N457 Li440 1.990 . S
N457 C456 1.314 . S
N457 C459 1.279 . S
C458 C459 1.358 . S
C458 C460 1.356 . S
C458 H512 0.930 . S
C459 N457 1.279 . S
C459 C458 1.358 . S
C459 H463 0.930 . S
C460 C458 1.356 . S
C460 C461 1.348 . S
C461 C456 1.353 . S
C461 C460 1.348 . S
C461 H513 0.929 . S
H462 C456 0.930 . S
H463 C459 0.930 . S
C464 N465 1.314 . S
C464 C466 1.353 . S
C464 H470 0.930 . S
N465 Li441 1.990 . S
N465 C464 1.314 . S
N465 C468 1.279 . S
C466 C464 1.353 . S
C466 C469 1.348 . S
C466 H514 0.929 . S
C467 C468 1.358 . S
C467 C469 1.356 . S
C467 H515 0.930 . S
C468 N465 1.279 . S
C468 C467 1.358 . S
C468 H471 0.930 . S
C469 C466 1.348 . S
C469 C467 1.356 . S
H470 C464 0.930 . S
H471 C468 0.930 . S
C472 C474 1.348 . S
C472 C475 1.356 . S
C472 O502 1.325 . S
N473 C476 1.314 . S
N473 C477 1.279 . S
C474 C472 1.348 . S
C474 C476 1.353 . S
C474 H516 0.929 . S
C475 C472 1.356 . S
C475 C477 1.358 . S
C475 H517 0.930 . S
C476 N473 1.314 . S
C476 C474 1.353 . S
C476 H518 0.930 . S
C477 N473 1.279 . S
C477 C475 1.358 . S
C477 H519 0.930 . S
C478 C479 1.348 . S
C478 C480 1.356 . S
C478 O503 1.325 . S
C479 C478 1.348 . S
C479 C481 1.353 . S
C479 H520 0.929 . S
C480 C478 1.356 . S
C480 C482 1.358 . S
C480 H521 0.930 . S
C481 C479 1.353 . S
C481 N483 1.314 . S
C481 H522 0.930 . S
C482 C480 1.358 . S
C482 N483 1.279 . S
C482 H523 0.930 . S
N483 C481 1.314 . S
N483 C482 1.279 . S
C484 C486 1.353 . S
C484 N487 1.314 . S
C484 H490 0.930 . S
C485 N487 1.279 . S
C485 C488 1.358 . S
C485 H491 0.930 . S
C486 C484 1.353 . S
C486 C489 1.348 . S
C486 H524 0.929 . S
N487 Li442 1.990 . S
N487 C484 1.314 . S
N487 C485 1.279 . S
C488 C485 1.358 . S
C488 C489 1.356 . S
C488 H525 0.930 . S
C489 C486 1.348 . S
C489 C488 1.356 . S
H490 C484 0.930 . S
H491 C485 0.930 . S
C492 N493 1.324 . S
C492 C494 1.334 1_565 S
C492 H498 0.941 . S
N493 Li443 1.990 . S
N493 C492 1.324 . S
N493 C496 1.279 . S
C494 C492 1.334 1_545 S
C494 C497 1.348 . S
C494 H526 0.929 . S
C495 C496 1.358 1_545 S
C495 C497 1.356 . S
C495 H527 0.930 . S
C496 N493 1.279 . S
C496 C495 1.358 1_565 S
C496 H499 0.930 . S
C497 C494 1.348 . S
C497 C495 1.356 . S
H498 C492 0.941 . S
H499 C496 0.930 . S
O500 Li440 1.956 . S
O500 Li441 1.970 . S
O500 Li442 1.961 . S
O500 C444 1.325 . S
O501 Li440 1.970 . S
O501 Li441 1.956 . S
O501 Li443 1.961 . S
O501 C450 1.325 . S
O502 Li440 1.961 . S
O502 Li442 1.956 . S
O502 Li443 1.970 . S
O502 C472 1.325 . S
O503 Li441 1.961 . S
O503 Li442 1.970 . S
O503 Li443 1.956 . S
O503 C478 1.325 . S
H504 C446 0.929 . S
H505 C447 0.930 . S
H506 C448 0.930 . S
H507 C449 0.930 . S
H508 C451 0.930 1_545 S
H509 C453 0.929 . S
H510 C454 0.930 . S
H511 C455 0.930 . S
H512 C458 0.930 . S
H513 C461 0.929 . S
H514 C466 0.929 . S
H515 C467 0.930 . S
H516 C474 0.929 . S
H517 C475 0.930 . S
H518 C476 0.930 . S
H519 C477 0.930 . S
H520 C479 0.929 . S
H521 C480 0.930 . S
H522 C481 0.930 . S
H523 C482 0.930 . S
H524 C486 0.929 . S
H525 C488 0.930 . S
H526 C494 0.929 . S
H527 C495 0.930 . S
Li528 N545 1.990 . S
Li528 O588 1.956 . S
Li528 O589 1.970 . S
Li528 O590 1.961 . S
Li529 N553 1.990 . S
Li529 O588 1.970 . S
Li529 O589 1.956 . S
Li529 O591 1.961 . S
Li530 N575 1.990 . S
Li530 O588 1.961 . S
Li530 O590 1.956 . S
Li530 O591 1.970 . S
Li531 N581 1.990 . S
Li531 O589 1.961 . S
Li531 O590 1.970 . S
Li531 O591 1.956 . S
C532 C534 1.348 . S
C532 C535 1.356 . S
C532 O588 1.325 . S
N533 C536 1.314 . S
N533 C537 1.279 . S
C534 C532 1.348 . S
C534 C536 1.353 . S
C534 H592 0.929 . S
C535 C532 1.356 . S
C535 C537 1.358 . S
C535 H593 0.930 . S
C536 N533 1.314 . S
C536 C534 1.353 . S
C536 H594 0.930 . S
C537 N533 1.279 . S
C537 C535 1.358 . S
C537 H595 0.930 . S
C538 C541 1.348 . S
C538 C542 1.356 . S
C538 O589 1.325 . S
C539 N540 1.279 . S
C539 C542 1.358 . S
C539 H596 0.930 . S
N540 C539 1.279 . S
N540 C543 1.314 . S
C541 C538 1.348 . S
C541 C543 1.353 . S
C541 H597 0.929 . S
C542 C538 1.356 . S
C542 C539 1.358 . S
C542 H598 0.930 . S
C543 N540 1.314 . S
C543 C541 1.353 . S
C543 H599 0.930 . S
C544 N545 1.314 . S
C544 C549 1.353 . S
C544 H550 0.930 . S
N545 Li528 1.990 . S
N545 C544 1.314 . S
N545 C547 1.279 . S
C546 C547 1.358 . S
C546 C548 1.356 . S
C546 H600 0.930 . S
C547 N545 1.279 . S
C547 C546 1.358 . S
C547 H551 0.930 . S
C548 C546 1.356 . S
C548 C549 1.348 . S
C549 C544 1.353 . S
C549 C548 1.348 . S
C549 H601 0.929 . S
H550 C544 0.930 . S
H551 C547 0.930 . S
C552 N553 1.314 . S
C552 C554 1.353 . S
C552 H558 0.930 . S
N553 Li529 1.990 . S
N553 C552 1.314 . S
N553 C556 1.279 . S
C554 C552 1.353 . S
C554 C557 1.348 . S
C554 H602 0.929 . S
C555 C556 1.358 . S
C555 C557 1.356 . S
C555 H603 0.930 . S
C556 N553 1.279 . S
C556 C555 1.358 . S
C556 H559 0.930 . S
C557 C554 1.348 . S
C557 C555 1.356 . S
H558 C552 0.930 . S
H559 C556 0.930 . S
C560 C562 1.348 . S
C560 C563 1.356 . S
C560 O590 1.325 . S
N561 C564 1.314 . S
N561 C565 1.279 . S
C562 C560 1.348 . S
C562 C564 1.353 . S
C562 H604 0.929 . S
C563 C560 1.356 . S
C563 C565 1.358 . S
C563 H605 0.930 . S
C564 N561 1.314 . S
C564 C562 1.353 . S
C564 H606 0.930 . S
C565 N561 1.279 . S
C565 C563 1.358 . S
C565 H607 0.930 . S
C566 C567 1.348 . S
C566 C568 1.356 . S
C566 O591 1.325 . S
C567 C566 1.348 . S
C567 C569 1.353 . S
C567 H608 0.929 . S
C568 C566 1.356 . S
C568 C570 1.358 . S
C568 H609 0.930 . S
C569 C567 1.353 . S
C569 N571 1.314 . S
C569 H610 0.930 . S
C570 C568 1.358 . S
C570 N571 1.279 . S
C570 H611 0.930 . S
N571 C569 1.314 . S
N571 C570 1.279 . S
C572 C574 1.353 . S
C572 N575 1.314 . S
C572 H578 0.930 . S
C573 N575 1.279 . S
C573 C576 1.358 . S
C573 H579 0.930 . S
C574 C572 1.353 . S
C574 C577 1.348 . S
C574 H612 0.929 . S
N575 Li530 1.990 . S
N575 C572 1.314 . S
N575 C573 1.279 . S
C576 C573 1.358 . S
C576 C577 1.356 . S
C576 H613 0.930 . S
C577 C574 1.348 . S
C577 C576 1.356 . S
H578 C572 0.930 . S
H579 C573 0.930 . S
C580 N581 1.314 . S
C580 C582 1.353 . S
C580 H586 0.930 . S
N581 Li531 1.990 . S
N581 C580 1.314 . S
N581 C584 1.279 . S
C582 C580 1.353 . S
C582 C585 1.348 . S
C582 H614 0.929 . S
C583 C584 1.358 . S
C583 C585 1.356 . S
C583 H615 0.930 . S
C584 N581 1.279 . S
C584 C583 1.358 . S
C584 H587 0.930 . S
C585 C582 1.348 . S
C585 C583 1.356 . S
H586 C580 0.930 . S
H587 C584 0.930 . S
O588 Li528 1.956 . S
O588 Li529 1.970 . S
O588 Li530 1.961 . S
O588 C532 1.325 . S
O589 Li528 1.970 . S
O589 Li529 1.956 . S
O589 Li531 1.961 . S
O589 C538 1.325 . S
O590 Li528 1.961 . S
O590 Li530 1.956 . S
O590 Li531 1.970 . S
O590 C560 1.325 . S
O591 Li529 1.961 . S
O591 Li530 1.970 . S
O591 Li531 1.956 . S
O591 C566 1.325 . S
H592 C534 0.929 . S
H593 C535 0.930 . S
H594 C536 0.930 . S
H595 C537 0.930 . S
H596 C539 0.930 . S
H597 C541 0.929 . S
H598 C542 0.930 . S
H599 C543 0.930 . S
H600 C546 0.930 . S
H601 C549 0.929 . S
H602 C554 0.929 . S
H603 C555 0.930 . S
H604 C562 0.929 . S
H605 C563 0.930 . S
H606 C564 0.930 . S
H607 C565 0.930 . S
H608 C567 0.929 . S
H609 C568 0.930 . S
H610 C569 0.930 . S
H611 C570 0.930 . S
H612 C574 0.929 . S
H613 C576 0.930 . S
H614 C582 0.929 . S
H615 C583 0.930 . S
Li616 N633 1.990 . S
Li616 O676 1.956 . S
Li616 O677 1.970 . S
Li616 O678 1.961 . S
Li617 N641 1.990 . S
Li617 O676 1.970 . S
Li617 O677 1.956 . S
Li617 O679 1.961 . S
Li618 N663 1.990 . S
Li618 O676 1.961 . S
Li618 O678 1.956 . S
Li618 O679 1.970 . S
Li619 N669 1.990 . S
Li619 O677 1.961 . S
Li619 O678 1.970 . S
Li619 O679 1.956 . S
C620 C622 1.348 . S
C620 C623 1.391 . S
C620 O676 1.325 . S
N621 C624 1.314 . S
N621 C625 1.279 . S
C622 C620 1.348 . S
C622 C624 1.353 1_556 S
C622 H680 0.929 . S
C623 C620 1.391 . S
C623 C625 1.299 1_556 S
C623 H681 0.957 . S
C624 N621 1.314 . S
C624 C622 1.353 1_554 S
C624 H682 0.930 . S
C625 N621 1.279 . S
C625 C623 1.299 1_554 S
C625 H683 0.930 . S
C626 C629 1.348 . S
C626 C630 1.356 . S
C626 O677 1.325 . S
C627 N628 1.279 . S
C627 C630 1.358 . S
C627 H684 0.930 . S
N628 C627 1.279 . S
N628 C631 1.314 . S
C629 C626 1.348 . S
C629 C631 1.353 . S
C629 H685 0.929 . S
C630 C626 1.356 . S
C630 C627 1.358 . S
C630 H686 0.930 . S
C631 N628 1.314 . S
C631 C629 1.353 . S
C631 H687 0.930 . S
C632 N633 1.314 . S
C632 C637 1.353 . S
C632 H638 0.930 . S
N633 Li616 1.990 . S
N633 C632 1.314 . S
N633 C635 1.279 . S
C634 C635 1.358 1_554 S
C634 C636 1.356 1_554 S
C634 H688 0.930 . S
C635 N633 1.279 . S
C635 C634 1.358 1_556 S
C635 H639 0.930 . S
C636 C634 1.356 1_556 S
C636 C637 1.348 . S
C637 C632 1.353 . S
C637 C636 1.348 . S
C637 H689 0.929 . S
H638 C632 0.930 . S
H639 C635 0.930 . S
C640 N641 1.324 . S
C640 C642 1.333 1_455 S
C640 H646 0.941 . S
N641 Li617 1.990 . S
N641 C640 1.324 . S
N641 C644 1.279 . S
C642 C640 1.333 1_655 S
C642 C645 1.348 . S
C642 H690 0.929 . S
C643 C644 1.358 1_655 S
C643 C645 1.356 . S
C643 H691 0.930 . S
C644 N641 1.279 . S
C644 C643 1.358 1_455 S
C644 H647 0.930 . S
C645 C642 1.348 . S
C645 C643 1.356 . S
H646 C640 0.941 . S
H647 C644 0.930 . S
C648 C650 1.348 . S
C648 C651 1.356 . S
C648 O678 1.325 . S
N649 C652 1.314 . S
N649 C653 1.279 . S
C650 C648 1.348 . S
C650 C652 1.353 . S
C650 H692 0.929 . S
C651 C648 1.356 . S
C651 C653 1.358 . S
C651 H693 0.930 . S
C652 N649 1.314 . S
C652 C650 1.353 . S
C652 H694 0.930 . S
C653 N649 1.279 . S
C653 C651 1.358 . S
C653 H695 0.930 . S
C654 C655 1.348 . S
C654 C656 1.356 . S
C654 O679 1.325 . S
C655 C654 1.348 . S
C655 C657 1.353 . S
C655 H696 0.929 . S
C656 C654 1.356 . S
C656 C658 1.358 . S
C656 H697 0.930 . S
C657 C655 1.353 . S
C657 N659 1.314 1_455 S
C657 H698 0.930 . S
C658 C656 1.358 . S
C658 N659 1.279 1_455 S
C658 H699 0.930 1_455 S
N659 C657 1.314 1_655 S
N659 C658 1.279 1_655 S
C660 C662 1.353 . S
C660 N663 1.314 . S
C660 H666 0.930 . S
C661 N663 1.279 . S
C661 C664 1.358 . S
C661 H667 0.930 . S
C662 C660 1.353 . S
C662 C665 1.348 . S
C662 H700 0.929 . S
N663 Li618 1.990 . S
N663 C660 1.314 . S
N663 C661 1.279 . S
C664 C661 1.358 . S
C664 C665 1.356 . S
C664 H701 0.930 . S
C665 C662 1.348 . S
C665 C664 1.356 . S
H666 C660 0.930 . S
H667 C661 0.930 . S
C668 N669 1.314 . S
C668 C670 1.353 . S
C668 H674 0.930 . S
N669 Li619 1.990 . S
N669 C668 1.314 . S
N669 C672 1.279 . S
C670 C668 1.353 . S
C670 C673 1.348 . S
C670 H702 0.929 . S
C671 C672 1.358 . S
C671 C673 1.356 . S
C671 H703 0.930 . S
C672 N669 1.279 . S
C672 C671 1.358 . S
C672 H675 0.930 . S
C673 C670 1.348 . S
C673 C671 1.356 . S
H674 C668 0.930 . S
H675 C672 0.930 . S
O676 Li616 1.956 . S
O676 Li617 1.970 . S
O676 Li618 1.961 . S
O676 C620 1.325 . S
O677 Li616 1.970 . S
O677 Li617 1.956 . S
O677 Li619 1.961 . S
O677 C626 1.325 . S
O678 Li616 1.961 . S
O678 Li618 1.956 . S
O678 Li619 1.970 . S
O678 C648 1.325 . S
O679 Li617 1.961 . S
O679 Li618 1.970 . S
O679 Li619 1.956 . S
O679 C654 1.325 . S
H680 C622 0.929 . S
H681 C623 0.957 . S
H682 C624 0.930 . S
H683 C625 0.930 . S
H684 C627 0.930 . S
H685 C629 0.929 . S
H686 C630 0.930 . S
H687 C631 0.930 . S
H688 C634 0.930 . S
H689 C637 0.929 . S
H690 C642 0.929 . S
H691 C643 0.930 . S
H692 C650 0.929 . S
H693 C651 0.930 . S
H694 C652 0.930 . S
H695 C653 0.930 . S
H696 C655 0.929 . S
H697 C656 0.930 . S
H698 C657 0.930 . S
H699 C658 0.930 1_655 S
H700 C662 0.929 . S
H701 C664 0.930 . S
H702 C670 0.929 . S
H703 C671 0.930 . S
Li704 N721 1.990 . S
Li704 O764 1.956 . S
Li704 O765 1.970 . S
Li704 O766 1.961 . S
Li705 N729 1.990 . S
Li705 O764 1.970 . S
Li705 O765 1.956 . S
Li705 O767 1.961 . S
Li706 N751 1.990 . S
Li706 O764 1.961 . S
Li706 O766 1.956 . S
Li706 O767 1.970 . S
Li707 N757 1.990 . S
Li707 O765 1.961 . S
Li707 O766 1.970 . S
Li707 O767 1.956 . S
C708 C710 1.348 . S
C708 C711 1.356 . S
C708 O764 1.325 . S
N709 C712 1.314 . S
N709 C713 1.279 . S
C710 C708 1.348 . S
C710 C712 1.353 . S
C710 H768 0.929 . S
C711 C708 1.356 . S
C711 C713 1.358 . S
C711 H769 0.930 . S
C712 N709 1.314 . S
C712 C710 1.353 . S
C712 H770 0.930 . S
C713 N709 1.279 . S
C713 C711 1.358 . S
C713 H771 0.930 . S
C714 C717 1.348 . S
C714 C718 1.356 . S
C714 O765 1.325 . S
C715 N716 1.279 . S
C715 C718 1.358 . S
C715 H772 0.930 . S
N716 C715 1.279 . S
N716 C719 1.314 . S
C717 C714 1.348 . S
C717 C719 1.353 . S
C717 H773 0.929 . S
C718 C714 1.356 . S
C718 C715 1.358 . S
C718 H774 0.930 . S
C719 N716 1.314 . S
C719 C717 1.353 . S
C719 H775 0.930 . S
C720 N721 1.333 . S
C720 C725 1.342 1_545 S
C720 H726 0.921 . S
N721 Li704 1.990 . S
N721 C720 1.333 . S
N721 C723 1.279 . S
C722 C723 1.358 1_565 S
C722 C724 1.356 . S
C722 H776 0.930 . S
C723 N721 1.279 . S
C723 C722 1.358 1_545 S
C723 H727 0.930 . S
C724 C722 1.356 . S
C724 C725 1.348 . S
C725 C720 1.342 1_565 S
C725 C724 1.348 . S
C725 H777 0.929 . S
H726 C720 0.921 . S
H727 C723 0.930 . S
C728 N729 1.314 . S
C728 C730 1.353 . S
C728 H734 0.930 . S
N729 Li705 1.990 . S
N729 C728 1.314 . S
N729 C732 1.279 . S
C730 C728 1.353 . S
C730 C733 1.348 . S
C730 H778 0.929 . S
C731 C732 1.358 . S
C731 C733 1.356 . S
C731 H779 0.930 . S
C732 N729 1.279 . S
C732 C731 1.358 . S
C732 H735 0.930 . S
C733 C730 1.348 . S
C733 C731 1.356 . S
H734 C728 0.930 . S
H735 C732 0.930 . S
C736 C738 1.348 . S
C736 C739 1.356 . S
C736 O766 1.325 . S
N737 C740 1.314 1_565 S
N737 C741 1.279 1_565 S
C738 C736 1.348 . S
C738 C740 1.353 . S
C738 H780 0.929 . S
C739 C736 1.356 . S
C739 C741 1.358 . S
C739 H781 0.930 . S
C740 N737 1.314 1_545 S
C740 C738 1.353 . S
C740 H782 0.930 . S
C741 N737 1.279 1_545 S
C741 C739 1.358 . S
C741 H783 0.930 1_545 S
C742 C743 1.348 . S
C742 C744 1.356 . S
C742 O767 1.325 . S
C743 C742 1.348 . S
C743 C745 1.353 . S
C743 H784 0.929 . S
C744 C742 1.356 . S
C744 C746 1.358 . S
C744 H785 0.930 . S
C745 C743 1.353 . S
C745 N747 1.314 . S
C745 H786 0.930 . S
C746 C744 1.358 . S
C746 N747 1.279 . S
C746 H787 0.930 . S
N747 C745 1.314 . S
N747 C746 1.279 . S
C748 C750 1.353 . S
C748 N751 1.314 . S
C748 H754 0.930 . S
C749 N751 1.279 . S
C749 C752 1.358 . S
C749 H755 0.930 . S
C750 C748 1.353 . S
C750 C753 1.348 . S
C750 H788 0.929 . S
N751 Li706 1.990 . S
N751 C748 1.314 . S
N751 C749 1.279 . S
C752 C749 1.358 . S
C752 C753 1.356 . S
C752 H789 0.930 . S
C753 C750 1.348 . S
C753 C752 1.356 . S
H754 C748 0.930 . S
H755 C749 0.930 . S
C756 N757 1.314 . S
C756 C758 1.353 . S
C756 H762 0.930 . S
N757 Li707 1.990 . S
N757 C756 1.314 . S
N757 C760 1.279 . S
C758 C756 1.353 . S
C758 C761 1.348 . S
C758 H790 0.929 . S
C759 C760 1.358 . S
C759 C761 1.356 . S
C759 H791 0.930 . S
C760 N757 1.279 . S
C760 C759 1.358 . S
C760 H763 0.930 . S
C761 C758 1.348 . S
C761 C759 1.356 . S
H762 C756 0.930 . S
H763 C760 0.930 . S
O764 Li704 1.956 . S
O764 Li705 1.970 . S
O764 Li706 1.961 . S
O764 C708 1.325 . S
O765 Li704 1.970 . S
O765 Li705 1.956 . S
O765 Li707 1.961 . S
O765 C714 1.325 . S
O766 Li704 1.961 . S
O766 Li706 1.956 . S
O766 Li707 1.970 . S
O766 C736 1.325 . S
O767 Li705 1.961 . S
O767 Li706 1.970 . S
O767 Li707 1.956 . S
O767 C742 1.325 . S
H768 C710 0.929 . S
H769 C711 0.930 . S
H770 C712 0.930 . S
H771 C713 0.930 . S
H772 C715 0.930 . S
H773 C717 0.929 . S
H774 C718 0.930 . S
H775 C719 0.930 . S
H776 C722 0.930 . S
H777 C725 0.929 . S
H778 C730 0.929 . S
H779 C731 0.930 . S
H780 C738 0.929 . S
H781 C739 0.930 . S
H782 C740 0.930 . S
H783 C741 0.930 1_565 S
H784 C743 0.929 . S
H785 C744 0.930 . S
H786 C745 0.930 . S
H787 C746 0.930 . S
H788 C750 0.929 . S
H789 C752 0.930 . S
H790 C758 0.929 . S
H791 C759 0.930 . S
Li792 N809 1.990 . S
Li792 O852 1.956 . S
Li792 O853 1.970 . S
Li792 O854 1.961 . S
Li793 N817 1.990 . S
Li793 O852 1.970 . S
Li793 O853 1.956 . S
Li793 O855 1.961 . S
Li794 N839 1.990 . S
Li794 O852 1.961 . S
Li794 O854 1.956 . S
Li794 O855 1.970 . S
Li795 N845 1.990 . S
Li795 O853 1.961 . S
Li795 O854 1.970 . S
Li795 O855 1.956 . S
C796 C798 1.348 . S
C796 C799 1.356 . S
C796 O852 1.325 . S
N797 C800 1.314 . S
N797 C801 1.279 . S
C798 C796 1.348 . S
C798 C800 1.353 . S
C798 H856 0.929 . S
C799 C796 1.356 . S
C799 C801 1.358 . S
C799 H857 0.930 . S
C800 N797 1.314 . S
C800 C798 1.353 . S
C800 H858 0.930 . S
C801 N797 1.279 . S
C801 C799 1.358 . S
C801 H859 0.930 . S
C802 C805 1.348 . S
C802 C806 1.356 . S
C802 O853 1.325 . S
C803 N804 1.279 . S
C803 C806 1.358 . S
C803 H860 0.930 . S
N804 C803 1.279 . S
N804 C807 1.314 . S
C805 C802 1.348 . S
C805 C807 1.353 . S
C805 H861 0.929 . S
C806 C802 1.356 . S
C806 C803 1.358 . S
C806 H862 0.930 . S
C807 N804 1.314 . S
C807 C805 1.353 . S
C807 H863 0.930 . S
C808 N809 1.314 . S
C808 C813 1.353 . S
C808 H814 0.930 . S
N809 Li792 1.990 . S
N809 C808 1.314 . S
N809 C811 1.279 . S
C810 C811 1.358 . S
C810 C812 1.356 . S
C810 H864 0.930 . S
C811 N809 1.279 . S
C811 C810 1.358 . S
C811 H815 0.930 . S
C812 C810 1.356 . S
C812 C813 1.348 . S
C813 C808 1.353 . S
C813 C812 1.348 . S
C813 H865 0.929 . S
H814 C808 0.930 . S
H815 C811 0.930 . S
C816 N817 1.314 . S
C816 C818 1.353 . S
C816 H822 0.930 . S
N817 Li793 1.990 . S
N817 C816 1.314 . S
N817 C820 1.279 . S
C818 C816 1.353 . S
C818 C821 1.348 . S
C818 H866 0.929 . S
C819 C820 1.358 . S
C819 C821 1.356 . S
C819 H867 0.930 . S
C820 N817 1.279 . S
C820 C819 1.358 . S
C820 H823 0.930 . S
C821 C818 1.348 . S
C821 C819 1.356 . S
H822 C816 0.930 . S
H823 C820 0.930 . S
C824 C826 1.348 . S
C824 C827 1.356 . S
C824 O854 1.325 . S
N825 C828 1.314 . S
N825 C829 1.279 . S
C826 C824 1.348 . S
C826 C828 1.353 . S
C826 H868 0.929 . S
C827 C824 1.356 . S
C827 C829 1.358 . S
C827 H869 0.930 . S
C828 N825 1.314 . S
C828 C826 1.353 . S
C828 H870 0.930 . S
C829 N825 1.279 . S
C829 C827 1.358 . S
C829 H871 0.930 . S
C830 C831 1.348 . S
C830 C832 1.356 . S
C830 O855 1.325 . S
C831 C830 1.348 . S
C831 C833 1.353 . S
C831 H872 0.929 . S
C832 C830 1.356 . S
C832 C834 1.358 . S
C832 H873 0.930 . S
C833 C831 1.353 . S
C833 N835 1.314 . S
C833 H874 0.930 . S
C834 C832 1.358 . S
C834 N835 1.279 . S
C834 H875 0.930 . S
N835 C833 1.314 . S
N835 C834 1.279 . S
C836 C838 1.353 . S
C836 N839 1.314 . S
C836 H842 0.930 . S
C837 N839 1.279 . S
C837 C840 1.358 . S
C837 H843 0.930 . S
C838 C836 1.353 . S
C838 C841 1.348 . S
C838 H876 0.929 . S
N839 Li794 1.990 . S
N839 C836 1.314 . S
N839 C837 1.279 . S
C840 C837 1.358 . S
C840 C841 1.356 . S
C840 H877 0.930 . S
C841 C838 1.348 . S
C841 C840 1.356 . S
H842 C836 0.930 . S
H843 C837 0.930 . S
C844 N845 1.314 . S
C844 C846 1.353 . S
C844 H850 0.930 . S
N845 Li795 1.990 . S
N845 C844 1.314 . S
N845 C848 1.279 . S
C846 C844 1.353 . S
C846 C849 1.348 . S
C846 H878 0.929 . S
C847 C848 1.358 . S
C847 C849 1.356 . S
C847 H879 0.930 . S
C848 N845 1.279 . S
C848 C847 1.358 . S
C848 H851 0.930 . S
C849 C846 1.348 . S
C849 C847 1.356 . S
H850 C844 0.930 . S
H851 C848 0.930 . S
O852 Li792 1.956 . S
O852 Li793 1.970 . S
O852 Li794 1.961 . S
O852 C796 1.325 . S
O853 Li792 1.970 . S
O853 Li793 1.956 . S
O853 Li795 1.961 . S
O853 C802 1.325 . S
O854 Li792 1.961 . S
O854 Li794 1.956 . S
O854 Li795 1.970 . S
O854 C824 1.325 . S
O855 Li793 1.961 . S
O855 Li794 1.970 . S
O855 Li795 1.956 . S
O855 C830 1.325 . S
H856 C798 0.929 . S
H857 C799 0.930 . S
H858 C800 0.930 . S
H859 C801 0.930 . S
H860 C803 0.930 . S
H861 C805 0.929 . S
H862 C806 0.930 . S
H863 C807 0.930 . S
H864 C810 0.930 . S
H865 C813 0.929 . S
H866 C818 0.929 . S
H867 C819 0.930 . S
H868 C826 0.929 . S
H869 C827 0.930 . S
H870 C828 0.930 . S
H871 C829 0.930 . S
H872 C831 0.929 . S
H873 C832 0.930 . S
H874 C833 0.930 . S
H875 C834 0.930 . S
H876 C838 0.929 . S
H877 C840 0.930 . S
H878 C846 0.929 . S
H879 C847 0.930 . S
Li880 N897 1.990 . S
Li880 O940 1.956 . S
Li880 O941 1.970 . S
Li880 O942 1.961 . S
Li881 N905 1.990 . S
Li881 O940 1.970 . S
Li881 O941 1.956 . S
Li881 O943 1.961 . S
Li882 N927 1.990 . S
Li882 O940 1.961 . S
Li882 O942 1.956 . S
Li882 O943 1.970 . S
Li883 N933 1.990 . S
Li883 O941 1.961 . S
Li883 O942 1.970 . S
Li883 O943 1.956 . S
C884 C886 1.348 . S
C884 C887 1.391 . S
C884 O940 1.325 . S
N885 C888 1.314 . S
N885 C889 1.279 . S
C886 C884 1.348 . S
C886 C888 1.353 1_556 S
C886 H944 0.929 . S
C887 C884 1.391 . S
C887 C889 1.299 1_556 S
C887 H945 0.957 . S
C888 N885 1.314 . S
C888 C886 1.353 1_554 S
C888 H946 0.930 . S
C889 N885 1.279 . S
C889 C887 1.299 1_554 S
C889 H947 0.930 . S
C890 C893 1.348 . S
C890 C894 1.356 . S
C890 O941 1.325 . S
C891 N892 1.279 . S
C891 C894 1.358 . S
C891 H948 0.930 . S
N892 C891 1.279 . S
N892 C895 1.314 . S
C893 C890 1.348 . S
C893 C895 1.353 . S
C893 H949 0.929 . S
C894 C890 1.356 . S
C894 C891 1.358 . S
C894 H950 0.930 . S
C895 N892 1.314 . S
C895 C893 1.353 . S
C895 H951 0.930 . S
C896 N897 1.314 . S
C896 C901 1.353 . S
C896 H902 0.930 . S
N897 Li880 1.990 . S
N897 C896 1.314 . S
N897 C899 1.279 . S
C898 C899 1.358 1_554 S
C898 C900 1.356 1_554 S
C898 H952 0.930 . S
C899 N897 1.279 . S
C899 C898 1.358 1_556 S
C899 H903 0.930 . S
C900 C898 1.356 1_556 S
C900 C901 1.348 . S
C901 C896 1.353 . S
C901 C900 1.348 . S
C901 H953 0.929 . S
H902 C896 0.930 . S
H903 C899 0.930 . S
C904 N905 1.324 . S
C904 C906 1.333 1_655 S
C904 H910 0.941 . S
N905 Li881 1.990 . S
N905 C904 1.324 . S
N905 C908 1.279 . S
C906 C904 1.333 1_455 S
C906 C909 1.348 . S
C906 H954 0.929 . S
C907 C908 1.358 1_455 S
C907 C909 1.356 . S
C907 H955 0.930 . S
C908 N905 1.279 . S
C908 C907 1.358 1_655 S
C908 H911 0.930 . S
C909 C906 1.348 . S
C909 C907 1.356 . S
H910 C904 0.941 . S
H911 C908 0.930 . S
C912 C914 1.348 . S
C912 C915 1.356 . S
C912 O942 1.325 . S
N913 C916 1.314 . S
N913 C917 1.279 . S
C914 C912 1.348 . S
C914 C916 1.353 . S
C914 H956 0.929 . S
C915 C912 1.356 . S
C915 C917 1.358 . S
C915 H957 0.930 . S
C916 N913 1.314 . S
C916 C914 1.353 . S
C916 H958 0.930 . S
C917 N913 1.279 . S
C917 C915 1.358 . S
C917 H959 0.930 . S
C918 C919 1.348 . S
C918 C920 1.356 . S
C918 O943 1.325 . S
C919 C918 1.348 . S
C919 C921 1.353 . S
C919 H960 0.929 . S
C920 C918 1.356 . S
C920 C922 1.358 . S
C920 H961 0.930 . S
C921 C919 1.353 . S
C921 N923 1.314 1_655 S
C921 H962 0.930 . S
C922 C920 1.358 . S
C922 N923 1.279 1_655 S
C922 H963 0.930 1_655 S
N923 C921 1.314 1_455 S
N923 C922 1.279 1_455 S
C924 C926 1.353 . S
C924 N927 1.314 . S
C924 H930 0.930 . S
C925 N927 1.279 . S
C925 C928 1.358 . S
C925 H931 0.930 . S
C926 C924 1.353 . S
C926 C929 1.348 . S
C926 H964 0.929 . S
N927 Li882 1.990 . S
N927 C924 1.314 . S
N927 C925 1.279 . S
C928 C925 1.358 . S
C928 C929 1.356 . S
C928 H965 0.930 . S
C929 C926 1.348 . S
C929 C928 1.356 . S
H930 C924 0.930 . S
H931 C925 0.930 . S
C932 N933 1.314 . S
C932 C934 1.353 . S
C932 H938 0.930 . S
N933 Li883 1.990 . S
N933 C932 1.314 . S
N933 C936 1.279 . S
C934 C932 1.353 . S
C934 C937 1.348 . S
C934 H966 0.929 . S
C935 C936 1.358 . S
C935 C937 1.356 . S
C935 H967 0.930 . S
C936 N933 1.279 . S
C936 C935 1.358 . S
C936 H939 0.930 . S
C937 C934 1.348 . S
C937 C935 1.356 . S
H938 C932 0.930 . S
H939 C936 0.930 . S
O940 Li880 1.956 . S
O940 Li881 1.970 . S
O940 Li882 1.961 . S
O940 C884 1.325 . S
O941 Li880 1.970 . S
O941 Li881 1.956 . S
O941 Li883 1.961 . S
O941 C890 1.325 . S
O942 Li880 1.961 . S
O942 Li882 1.956 . S
O942 Li883 1.970 . S
O942 C912 1.325 . S
O943 Li881 1.961 . S
O943 Li882 1.970 . S
O943 Li883 1.956 . S
O943 C918 1.325 . S
H944 C886 0.929 . S
H945 C887 0.957 . S
H946 C888 0.930 . S
H947 C889 0.930 . S
H948 C891 0.930 . S
H949 C893 0.929 . S
H950 C894 0.930 . S
H951 C895 0.930 . S
H952 C898 0.930 . S
H953 C901 0.929 . S
H954 C906 0.929 . S
H955 C907 0.930 . S
H956 C914 0.929 . S
H957 C915 0.930 . S
H958 C916 0.930 . S
H959 C917 0.930 . S
H960 C919 0.929 . S
H961 C920 0.930 . S
H962 C921 0.930 . S
H963 C922 0.930 1_455 S
H964 C926 0.929 . S
H965 C928 0.930 . S
H966 C934 0.929 . S
H967 C935 0.930 . S
Li968 N985 1.990 . S
Li968 O1028 1.956 . S
Li968 O1029 1.970 . S
Li968 O1030 1.961 . S
Li969 N993 1.990 . S
Li969 O1028 1.970 . S
Li969 O1029 1.956 . S
Li969 O1031 1.961 . S
Li970 N1015 1.990 . S
Li970 O1028 1.961 . S
Li970 O1030 1.956 . S
Li970 O1031 1.970 . S
Li971 N1021 1.990 . S
Li971 O1029 1.961 . S
Li971 O1030 1.970 . S
Li971 O1031 1.956 . S
C972 C974 1.348 . S
C972 C975 1.356 . S
C972 O1028 1.325 . S
N973 C976 1.314 . S
N973 C977 1.279 . S
C974 C972 1.348 . S
C974 C976 1.353 . S
C974 H1032 0.929 . S
C975 C972 1.356 . S
C975 C977 1.358 . S
C975 H1033 0.930 . S
C976 N973 1.314 . S
C976 C974 1.353 . S
C976 H1034 0.930 . S
C977 N973 1.279 . S
C977 C975 1.358 . S
C977 H1035 0.930 . S
C978 C981 1.348 . S
C978 C982 1.356 . S
C978 O1029 1.325 . S
C979 N980 1.279 . S
C979 C982 1.358 . S
C979 H1036 0.930 . S
N980 C979 1.279 . S
N980 C983 1.314 . S
C981 C978 1.348 . S
C981 C983 1.353 . S
C981 H1037 0.929 . S
C982 C978 1.356 . S
C982 C979 1.358 . S
C982 H1038 0.930 . S
C983 N980 1.314 . S
C983 C981 1.353 . S
C983 H1039 0.930 . S
C984 N985 1.333 . S
C984 C989 1.342 1_565 S
C984 H990 0.921 . S
N985 Li968 1.990 . S
N985 C984 1.333 . S
N985 C987 1.279 . S
C986 C987 1.358 1_545 S
C986 C988 1.356 . S
C986 H1040 0.930 . S
C987 N985 1.279 . S
C987 C986 1.358 1_565 S
C987 H991 0.930 . S
C988 C986 1.356 . S
C988 C989 1.348 . S
C989 C984 1.342 1_545 S
C989 C988 1.348 . S
C989 H1041 0.929 . S
H990 C984 0.921 . S
H991 C987 0.930 . S
C992 N993 1.314 . S
C992 C994 1.353 . S
C992 H998 0.930 . S
N993 Li969 1.990 . S
N993 C992 1.314 . S
N993 C996 1.279 . S
C994 C992 1.353 . S
C994 C997 1.348 . S
C994 H1042 0.929 . S
C995 C996 1.358 . S
C995 C997 1.356 . S
C995 H1043 0.930 . S
C996 N993 1.279 . S
C996 C995 1.358 . S
C996 H999 0.930 . S
C997 C994 1.348 . S
C997 C995 1.356 . S
H998 C992 0.930 . S
H999 C996 0.930 . S
C1000 C1002 1.348 . S
C1000 C1003 1.356 . S
C1000 O1030 1.325 . S
N1001 C1004 1.314 1_545 S
N1001 C1005 1.279 1_545 S
C1002 C1000 1.348 . S
C1002 C1004 1.353 . S
C1002 H1044 0.929 . S
C1003 C1000 1.356 . S
C1003 C1005 1.358 . S
C1003 H1045 0.930 . S
C1004 N1001 1.314 1_565 S
C1004 C1002 1.353 . S
C1004 H1046 0.930 . S
C1005 N1001 1.279 1_565 S
C1005 C1003 1.358 . S
C1005 H1047 0.930 1_565 S
C1006 C1007 1.348 . S
C1006 C1008 1.356 . S
C1006 O1031 1.325 . S
C1007 C1006 1.348 . S
C1007 C1009 1.353 . S
C1007 H1048 0.929 . S
C1008 C1006 1.356 . S
C1008 C1010 1.358 . S
C1008 H1049 0.930 . S
C1009 C1007 1.353 . S
C1009 N1011 1.314 . S
C1009 H1050 0.930 . S
C1010 C1008 1.358 . S
C1010 N1011 1.279 . S
C1010 H1051 0.930 . S
N1011 C1009 1.314 . S
N1011 C1010 1.279 . S
C1012 C1014 1.353 . S
C1012 N1015 1.314 . S
C1012 H1018 0.930 . S
C1013 N1015 1.279 . S
C1013 C1016 1.358 . S
C1013 H1019 0.930 . S
C1014 C1012 1.353 . S
C1014 C1017 1.348 . S
C1014 H1052 0.929 . S
N1015 Li970 1.990 . S
N1015 C1012 1.314 . S
N1015 C1013 1.279 . S
C1016 C1013 1.358 . S
C1016 C1017 1.356 . S
C1016 H1053 0.930 . S
C1017 C1014 1.348 . S
C1017 C1016 1.356 . S
H1018 C1012 0.930 . S
H1019 C1013 0.930 . S
C1020 N1021 1.314 . S
C1020 C1022 1.353 . S
C1020 H1026 0.930 . S
N1021 Li971 1.990 . S
N1021 C1020 1.314 . S
N1021 C1024 1.279 . S
C1022 C1020 1.353 . S
C1022 C1025 1.348 . S
C1022 H1054 0.929 . S
C1023 C1024 1.358 . S
C1023 C1025 1.356 . S
C1023 H1055 0.930 . S
C1024 N1021 1.279 . S
C1024 C1023 1.358 . S
C1024 H1027 0.930 . S
C1025 C1022 1.348 . S
C1025 C1023 1.356 . S
H1026 C1020 0.930 . S
H1027 C1024 0.930 . S
O1028 Li968 1.956 . S
O1028 Li969 1.970 . S
O1028 Li970 1.961 . S
O1028 C972 1.325 . S
O1029 Li968 1.970 . S
O1029 Li969 1.956 . S
O1029 Li971 1.961 . S
O1029 C978 1.325 . S
O1030 Li968 1.961 . S
O1030 Li970 1.956 . S
O1030 Li971 1.970 . S
O1030 C1000 1.325 . S
O1031 Li969 1.961 . S
O1031 Li970 1.970 . S
O1031 Li971 1.956 . S
O1031 C1006 1.325 . S
H1032 C974 0.929 . S
H1033 C975 0.930 . S
H1034 C976 0.930 . S
H1035 C977 0.930 . S
H1036 C979 0.930 . S
H1037 C981 0.929 . S
H1038 C982 0.930 . S
H1039 C983 0.930 . S
H1040 C986 0.930 . S
H1041 C989 0.929 . S
H1042 C994 0.929 . S
H1043 C995 0.930 . S
H1044 C1002 0.929 . S
H1045 C1003 0.930 . S
H1046 C1004 0.930 . S
H1047 C1005 0.930 1_545 S
H1048 C1007 0.929 . S
H1049 C1008 0.930 . S
H1050 C1009 0.930 . S
H1051 C1010 0.930 . S
H1052 C1014 0.929 . S
H1053 C1016 0.930 . S
H1054 C1022 0.929 . S
H1055 C1023 0.930 . S
H1056 C1064 0.950 . S
H1057 C1069 0.950 . S
H1058 C1066 0.950 . S
H1059 C1068 0.950 . S
H1060 C1070 0.950 . S
H1061 C1072 0.950 . S
H1062 C1074 0.950 . S
H1063 C1075 0.950 . S
C1064 H1056 0.950 . S
C1064 C1065 1.386 . S
C1064 C1066 1.391 . S
C1065 C1064 1.386 . S
C1065 C1069 1.393 . S
C1066 H1058 0.950 . S
C1066 C1064 1.391 . S
C1066 C1067 1.400 . S
C1067 C1066 1.400 . S
C1067 C1068 1.398 . S
C1067 C1073 1.491 . S
C1068 H1059 0.950 . S
C1068 C1067 1.398 . S
C1068 C1069 1.391 . S
C1069 H1057 0.950 . S
C1069 C1065 1.393 . S
C1069 C1068 1.391 . S
C1070 H1060 0.950 . S
C1070 C1071 1.386 . S
C1070 C1072 1.391 . S
C1071 C1070 1.386 . S
C1071 C1075 1.393 . S
C1072 H1061 0.950 . S
C1072 C1070 1.391 . S
C1072 C1073 1.400 . S
C1073 C1067 1.491 . S
C1073 C1072 1.400 . S
C1073 C1074 1.398 . S
C1074 H1062 0.950 . S
C1074 C1073 1.398 . S
C1074 C1075 1.391 . S
C1075 H1063 0.950 . S
C1075 C1071 1.393 . S
C1075 C1074 1.391 . S
H1076 C1084 0.950 . S
H1077 C1089 0.950 . S
H1078 C1086 0.950 . S
H1079 C1088 0.950 1_655 S
H1080 C1090 0.950 . S
H1081 C1092 0.950 . S
H1082 C1094 0.950 1_455 S
H1083 C1095 0.950 . S
C1084 H1076 0.950 . S
C1084 C1085 1.386 . S
C1084 C1086 1.391 . S
C1085 C1084 1.386 . S
C1085 C1089 1.393 . S
C1086 H1078 0.950 . S
C1086 C1084 1.391 . S
C1086 C1087 1.400 . S
C1087 C1086 1.400 . S
C1087 C1088 1.398 . S
C1087 C1093 1.491 1_455 S
C1088 H1079 0.950 1_455 S
C1088 C1087 1.398 . S
C1088 C1089 1.391 . S
C1089 H1077 0.950 . S
C1089 C1085 1.393 . S
C1089 C1088 1.391 . S
C1090 H1080 0.950 . S
C1090 C1091 1.386 . S
C1090 C1092 1.391 . S
C1091 C1090 1.386 . S
C1091 C1095 1.393 . S
C1092 H1081 0.950 . S
C1092 C1090 1.391 . S
C1092 C1093 1.400 . S
C1093 C1087 1.491 1_655 S
C1093 C1092 1.400 . S
C1093 C1094 1.398 . S
C1094 H1082 0.950 1_655 S
C1094 C1093 1.398 . S
C1094 C1095 1.391 . S
C1095 H1083 0.950 . S
C1095 C1091 1.393 . S
C1095 C1094 1.391 . S
H1096 C1104 0.950 . S
H1097 C1109 0.950 . S
H1098 C1106 0.950 1_545 S
H1099 C1108 0.950 . S
H1100 C1110 0.950 . S
H1101 C1112 0.950 1_565 S
H1102 C1114 0.950 . S
H1103 C1115 0.950 . S
C1104 H1096 0.950 . S
C1104 C1105 1.386 . S
C1104 C1106 1.391 . S
C1105 C1104 1.386 . S
C1105 C1109 1.393 . S
C1106 H1098 0.950 1_565 S
C1106 C1104 1.391 . S
C1106 C1107 1.400 . S
C1107 C1106 1.400 . S
C1107 C1108 1.398 . S
C1107 C1113 1.491 1_565 S
C1108 H1099 0.950 . S
C1108 C1107 1.398 . S
C1108 C1109 1.391 . S
C1109 H1097 0.950 . S
C1109 C1105 1.393 . S
C1109 C1108 1.391 . S
C1110 H1100 0.950 . S
C1110 C1111 1.386 . S
C1110 C1112 1.391 . S
C1111 C1110 1.386 . S
C1111 C1115 1.393 . S
C1112 H1101 0.950 1_545 S
C1112 C1110 1.391 . S
C1112 C1113 1.400 . S
C1113 C1107 1.491 1_545 S
C1113 C1112 1.400 . S
C1113 C1114 1.398 . S
C1114 H1102 0.950 . S
C1114 C1113 1.398 . S
C1114 C1115 1.391 . S
C1115 H1103 0.950 . S
C1115 C1111 1.393 . S
C1115 C1114 1.391 . S
H1116 C1124 0.950 . S
H1117 C1129 0.950 . S
H1118 C1126 0.950 . S
H1119 C1128 0.950 . S
H1120 C1130 0.950 . S
H1121 C1132 0.950 . S
H1122 C1134 0.950 . S
H1123 C1135 0.950 . S
C1124 H1116 0.950 . S
C1124 C1125 1.386 . S
C1124 C1126 1.391 . S
C1125 C1124 1.386 . S
C1125 C1129 1.393 . S
C1126 H1118 0.950 . S
C1126 C1124 1.391 . S
C1126 C1127 1.400 . S
C1127 C1126 1.400 . S
C1127 C1128 1.398 . S
C1127 C1133 1.491 . S
C1128 H1119 0.950 . S
C1128 C1127 1.398 . S
C1128 C1129 1.391 . S
C1129 H1117 0.950 . S
C1129 C1125 1.393 . S
C1129 C1128 1.391 . S
C1130 H1120 0.950 . S
C1130 C1131 1.386 . S
C1130 C1132 1.391 . S
C1131 C1130 1.386 . S
C1131 C1135 1.393 . S
C1132 H1121 0.950 . S
C1132 C1130 1.391 . S
C1132 C1133 1.400 . S
C1133 C1127 1.491 . S
C1133 C1132 1.400 . S
C1133 C1134 1.398 . S
C1134 H1122 0.950 . S
C1134 C1133 1.398 . S
C1134 C1135 1.391 . S
C1135 H1123 0.950 . S
C1135 C1131 1.393 . S
C1135 C1134 1.391 . S
H1136 C1144 0.950 . S
H1137 C1149 0.950 . S
H1138 C1146 0.950 . S
H1139 C1148 0.950 1_455 S
H1140 C1150 0.950 . S
H1141 C1152 0.950 . S
H1142 C1154 0.950 1_655 S
H1143 C1155 0.950 . S
C1144 H1136 0.950 . S
C1144 C1145 1.386 . S
C1144 C1146 1.391 . S
C1145 C1144 1.386 . S
C1145 C1149 1.393 . S
C1146 H1138 0.950 . S
C1146 C1144 1.391 . S
C1146 C1147 1.400 . S
C1147 C1146 1.400 . S
C1147 C1148 1.398 . S
C1147 C1153 1.491 1_655 S
C1148 H1139 0.950 1_655 S
C1148 C1147 1.398 . S
C1148 C1149 1.391 . S
C1149 H1137 0.950 . S
C1149 C1145 1.393 . S
C1149 C1148 1.391 . S
C1150 H1140 0.950 . S
C1150 C1151 1.386 . S
C1150 C1152 1.391 . S
C1151 C1150 1.386 . S
C1151 C1155 1.393 . S
C1152 H1141 0.950 . S
C1152 C1150 1.391 . S
C1152 C1153 1.400 . S
C1153 C1147 1.491 1_455 S
C1153 C1152 1.400 . S
C1153 C1154 1.398 . S
C1154 H1142 0.950 1_455 S
C1154 C1153 1.398 . S
C1154 C1155 1.391 . S
C1155 H1143 0.950 . S
C1155 C1151 1.393 . S
C1155 C1154 1.391 . S
H1156 C1164 0.950 . S
H1157 C1169 0.950 . S
H1158 C1166 0.950 . S
H1159 C1168 0.950 1_565 S
H1160 C1170 0.950 . S
H1161 C1172 0.950 . S
H1162 C1174 0.950 1_545 S
H1163 C1175 0.950 . S
C1164 H1156 0.950 . S
C1164 C1165 1.386 . S
C1164 C1166 1.391 . S
C1165 C1164 1.386 . S
C1165 C1169 1.393 . S
C1166 H1158 0.950 . S
C1166 C1164 1.391 . S
C1166 C1167 1.400 . S
C1167 C1166 1.400 . S
C1167 C1168 1.398 . S
C1167 C1173 1.491 1_545 S
C1168 H1159 0.950 1_545 S
C1168 C1167 1.398 . S
C1168 C1169 1.391 . S
C1169 H1157 0.950 . S
C1169 C1165 1.393 . S
C1169 C1168 1.391 . S
C1170 H1160 0.950 . S
C1170 C1171 1.386 . S
C1170 C1172 1.391 . S
C1171 C1170 1.386 . S
C1171 C1175 1.393 . S
C1172 H1161 0.950 . S
C1172 C1170 1.391 . S
C1172 C1173 1.400 . S
C1173 C1167 1.491 1_565 S
C1173 C1172 1.400 . S
C1173 C1174 1.398 . S
C1174 H1162 0.950 1_565 S
C1174 C1173 1.398 . S
C1174 C1175 1.391 . S
C1175 H1163 0.950 . S
C1175 C1171 1.393 . S
C1175 C1174 1.391 . S
H1176 C1184 0.950 . S
H1177 C1189 0.950 . S
H1178 C1186 0.950 . S
H1179 C1188 0.950 . S
H1180 C1190 0.950 . S
H1181 C1192 0.950 . S
H1182 C1194 0.950 . S
H1183 C1195 0.950 . S
C1184 H1176 0.950 . S
C1184 C1185 1.386 . S
C1184 C1186 1.391 . S
C1185 C1184 1.386 . S
C1185 C1189 1.393 . S
C1186 H1178 0.950 . S
C1186 C1184 1.391 . S
C1186 C1187 1.400 . S
C1187 C1186 1.400 . S
C1187 C1188 1.398 . S
C1187 C1193 1.491 . S
C1188 H1179 0.950 . S
C1188 C1187 1.398 . S
C1188 C1189 1.391 . S
C1189 H1177 0.950 . S
C1189 C1185 1.393 . S
C1189 C1188 1.391 . S
C1190 H1180 0.950 . S
C1190 C1191 1.386 . S
C1190 C1192 1.391 . S
C1191 C1190 1.386 . S
C1191 C1195 1.393 . S
C1192 H1181 0.950 . S
C1192 C1190 1.391 . S
C1192 C1193 1.400 . S
C1193 C1187 1.491 . S
C1193 C1192 1.400 . S
C1193 C1194 1.398 . S
C1194 H1182 0.950 . S
C1194 C1193 1.398 . S
C1194 C1195 1.391 . S
C1195 H1183 0.950 . S
C1195 C1191 1.393 . S
C1195 C1194 1.391 . S
H1196 C1204 0.950 . S
H1197 C1209 0.950 . S
H1198 C1206 0.950 . S
H1199 C1208 0.950 . S
H1200 C1210 0.950 . S
H1201 C1212 0.950 . S
H1202 C1214 0.950 . S
H1203 C1215 0.950 . S
C1204 H1196 0.950 . S
C1204 C1205 1.386 . S
C1204 C1206 1.391 . S
C1205 C1204 1.386 . S
C1205 C1209 1.393 . S
C1206 H1198 0.950 . S
C1206 C1204 1.391 . S
C1206 C1207 1.400 . S
C1207 C1206 1.400 . S
C1207 C1208 1.398 . S
C1207 C1213 1.491 . S
C1208 H1199 0.950 . S
C1208 C1207 1.398 . S
C1208 C1209 1.391 . S
C1209 H1197 0.950 . S
C1209 C1205 1.393 . S
C1209 C1208 1.391 . S
C1210 H1200 0.950 . S
C1210 C1211 1.386 . S
C1210 C1212 1.391 . S
C1211 C1210 1.386 . S
C1211 C1215 1.393 . S
C1212 H1201 0.950 . S
C1212 C1210 1.391 . S
C1212 C1213 1.400 . S
C1213 C1207 1.491 . S
C1213 C1212 1.400 . S
C1213 C1214 1.398 . S
C1214 H1202 0.950 . S
C1214 C1213 1.398 . S
C1214 C1215 1.391 . S
C1215 H1203 0.950 . S
C1215 C1211 1.393 . S
C1215 C1214 1.391 . S
H1216 C1224 0.950 . S
H1217 C1229 0.950 . S
H1218 C1226 0.950 . S
H1219 C1228 0.950 . S
H1220 C1230 0.950 . S
H1221 C1232 0.950 . S
H1222 C1234 0.950 . S
H1223 C1235 0.950 . S
C1224 H1216 0.950 . S
C1224 C1225 1.386 . S
C1224 C1226 1.391 . S
C1225 C1224 1.386 . S
C1225 C1229 1.393 . S
C1226 H1218 0.950 . S
C1226 C1224 1.391 . S
C1226 C1227 1.400 . S
C1227 C1226 1.400 . S
C1227 C1228 1.398 . S
C1227 C1233 1.491 . S
C1228 H1219 0.950 . S
C1228 C1227 1.398 . S
C1228 C1229 1.391 . S
C1229 H1217 0.950 . S
C1229 C1225 1.393 . S
C1229 C1228 1.391 . S
C1230 H1220 0.950 . S
C1230 C1231 1.386 . S
C1230 C1232 1.391 . S
C1231 C1230 1.386 . S
C1231 C1235 1.393 . S
C1232 H1221 0.950 . S
C1232 C1230 1.391 . S
C1232 C1233 1.400 . S
C1233 C1227 1.491 . S
C1233 C1232 1.400 . S
C1233 C1234 1.398 . S
C1234 H1222 0.950 . S
C1234 C1233 1.398 . S
C1234 C1235 1.391 . S
C1235 H1223 0.950 . S
C1235 C1231 1.393 . S
C1235 C1234 1.391 . S
H1236 C1244 0.950 . S
H1237 C1249 0.950 . S
H1238 C1246 0.950 . S
H1239 C1248 0.950 . S
H1240 C1250 0.950 . S
H1241 C1252 0.950 . S
H1242 C1254 0.950 . S
H1243 C1255 0.950 . S
C1244 H1236 0.950 . S
C1244 C1245 1.386 . S
C1244 C1246 1.391 . S
C1245 C1244 1.386 . S
C1245 C1249 1.393 . S
C1246 H1238 0.950 . S
C1246 C1244 1.391 . S
C1246 C1247 1.400 . S
C1247 C1246 1.400 . S
C1247 C1248 1.398 . S
C1247 C1253 1.491 . S
C1248 H1239 0.950 . S
C1248 C1247 1.398 . S
C1248 C1249 1.391 . S
C1249 H1237 0.950 . S
C1249 C1245 1.393 . S
C1249 C1248 1.391 . S
C1250 H1240 0.950 . S
C1250 C1251 1.386 . S
C1250 C1252 1.391 . S
C1251 C1250 1.386 . S
C1251 C1255 1.393 . S
C1252 H1241 0.950 . S
C1252 C1250 1.391 . S
C1252 C1253 1.400 . S
C1253 C1247 1.491 . S
C1253 C1252 1.400 . S
C1253 C1254 1.398 . S
C1254 H1242 0.950 . S
C1254 C1253 1.398 . S
C1254 C1255 1.391 . S
C1255 H1243 0.950 . S
C1255 C1251 1.393 . S
C1255 C1254 1.391 . S
H1256 C1264 0.950 . S
H1257 C1269 0.950 . S
H1258 C1266 0.950 . S
H1259 C1268 0.950 . S
H1260 C1270 0.950 . S
H1261 C1272 0.950 . S
H1262 C1274 0.950 . S
H1263 C1275 0.950 . S
C1264 H1256 0.950 . S
C1264 C1265 1.386 . S
C1264 C1266 1.391 . S
C1265 C1264 1.386 . S
C1265 C1269 1.393 . S
C1266 H1258 0.950 . S
C1266 C1264 1.391 . S
C1266 C1267 1.400 . S
C1267 C1266 1.400 . S
C1267 C1268 1.398 . S
C1267 C1273 1.491 . S
C1268 H1259 0.950 . S
C1268 C1267 1.398 . S
C1268 C1269 1.391 . S
C1269 H1257 0.950 . S
C1269 C1265 1.393 . S
C1269 C1268 1.391 . S
C1270 H1260 0.950 . S
C1270 C1271 1.386 . S
C1270 C1272 1.391 . S
C1271 C1270 1.386 . S
C1271 C1275 1.393 . S
C1272 H1261 0.950 . S
C1272 C1270 1.391 . S
C1272 C1273 1.400 . S
C1273 C1267 1.491 . S
C1273 C1272 1.400 . S
C1273 C1274 1.398 . S
C1274 H1262 0.950 . S
C1274 C1273 1.398 . S
C1274 C1275 1.391 . S
C1275 H1263 0.950 . S
C1275 C1271 1.393 . S
C1275 C1274 1.391 . S
H1276 C1284 0.950 . S
H1277 C1289 0.950 . S
H1278 C1286 0.950 . S
H1279 C1288 0.950 . S
H1280 C1290 0.950 . S
H1281 C1292 0.950 . S
H1282 C1294 0.950 . S
H1283 C1295 0.950 . S
C1284 H1276 0.950 . S
C1284 C1285 1.386 . S
C1284 C1286 1.391 . S
C1285 C1284 1.386 . S
C1285 C1289 1.393 . S
C1286 H1278 0.950 . S
C1286 C1284 1.391 . S
C1286 C1287 1.400 . S
C1287 C1286 1.400 . S
C1287 C1288 1.398 . S
C1287 C1293 1.491 . S
C1288 H1279 0.950 . S
C1288 C1287 1.398 . S
C1288 C1289 1.391 . S
C1289 H1277 0.950 . S
C1289 C1285 1.393 . S
C1289 C1288 1.391 . S
C1290 H1280 0.950 . S
C1290 C1291 1.386 . S
C1290 C1292 1.391 . S
C1291 C1290 1.386 . S
C1291 C1295 1.393 . S
C1292 H1281 0.950 . S
C1292 C1290 1.391 . S
C1292 C1293 1.400 . S
C1293 C1287 1.491 . S
C1293 C1292 1.400 . S
C1293 C1294 1.398 . S
C1294 H1282 0.950 . S
C1294 C1293 1.398 . S
C1294 C1295 1.391 . S
C1295 H1283 0.950 . S
C1295 C1291 1.393 . S
C1295 C1294 1.391 . S
H1296 C1304 0.950 . S
H1297 C1309 0.950 . S
H1298 C1306 0.950 . S
H1299 C1308 0.950 . S
H1300 C1310 0.950 . S
H1301 C1312 0.950 . S
H1302 C1314 0.950 . S
H1303 C1315 0.950 . S
C1304 H1296 0.950 . S
C1304 C1305 1.380 1_554 S
C1304 C1306 1.391 . S
C1305 C1304 1.380 1_556 S
C1305 C1309 1.399 . S
C1306 H1298 0.950 . S
C1306 C1304 1.391 . S
C1306 C1307 1.393 . S
C1307 C1306 1.393 . S
C1307 C1308 1.405 1_554 S
C1307 C1313 1.491 1_564 S
C1308 H1299 0.950 . S
C1308 C1307 1.405 1_556 S
C1308 C1309 1.391 . S
C1309 H1297 0.950 . S
C1309 C1305 1.399 . S
C1309 C1308 1.391 . S
C1310 H1300 0.950 . S
C1310 C1311 1.380 1_556 S
C1310 C1312 1.391 . S
C1311 C1310 1.380 1_554 S
C1311 C1315 1.399 . S
C1312 H1301 0.950 . S
C1312 C1310 1.391 . S
C1312 C1313 1.393 . S
C1313 C1307 1.491 1_546 S
C1313 C1312 1.393 . S
C1313 C1314 1.405 1_556 S
C1314 H1302 0.950 . S
C1314 C1313 1.405 1_554 S
C1314 C1315 1.391 . S
C1315 H1303 0.950 . S
C1315 C1311 1.399 . S
C1315 C1314 1.391 . S
H1316 C1324 0.950 . S
H1317 C1329 0.950 . S
H1318 C1326 0.950 . S
H1319 C1328 0.950 . S
H1320 C1330 0.950 . S
H1321 C1332 0.950 . S
H1322 C1334 0.950 . S
H1323 C1335 0.950 . S
C1324 H1316 0.950 . S
C1324 C1325 1.386 . S
C1324 C1326 1.391 . S
C1325 C1324 1.386 . S
C1325 C1329 1.393 . S
C1326 H1318 0.950 . S
C1326 C1324 1.391 . S
C1326 C1327 1.400 . S
C1327 C1326 1.400 . S
C1327 C1328 1.398 . S
C1327 C1333 1.491 . S
C1328 H1319 0.950 . S
C1328 C1327 1.398 . S
C1328 C1329 1.391 . S
C1329 H1317 0.950 . S
C1329 C1325 1.393 . S
C1329 C1328 1.391 . S
C1330 H1320 0.950 . S
C1330 C1331 1.386 . S
C1330 C1332 1.391 . S
C1331 C1330 1.386 . S
C1331 C1335 1.393 . S
C1332 H1321 0.950 . S
C1332 C1330 1.391 . S
C1332 C1333 1.400 . S
C1333 C1327 1.491 . S
C1333 C1332 1.400 . S
C1333 C1334 1.398 . S
C1334 H1322 0.950 . S
C1334 C1333 1.398 . S
C1334 C1335 1.391 . S
C1335 H1323 0.950 . S
C1335 C1331 1.393 . S
C1335 C1334 1.391 . S
H1336 C1344 0.950 . S
H1337 C1349 0.950 . S
H1338 C1346 0.950 . S
H1339 C1348 0.950 . S
H1340 C1350 0.950 . S
H1341 C1352 0.950 . S
H1342 C1354 0.950 . S
H1343 C1355 0.950 . S
C1344 H1336 0.950 . S
C1344 C1345 1.386 . S
C1344 C1346 1.391 . S
C1345 C1344 1.386 . S
C1345 C1349 1.393 . S
C1346 H1338 0.950 . S
C1346 C1344 1.391 . S
C1346 C1347 1.400 . S
C1347 C1346 1.400 . S
C1347 C1348 1.398 . S
C1347 C1353 1.491 1_655 S
C1348 H1339 0.950 . S
C1348 C1347 1.398 . S
C1348 C1349 1.391 . S
C1349 H1337 0.950 . S
C1349 C1345 1.393 . S
C1349 C1348 1.391 . S
C1350 H1340 0.950 . S
C1350 C1351 1.386 . S
C1350 C1352 1.391 . S
C1351 C1350 1.386 . S
C1351 C1355 1.393 . S
C1352 H1341 0.950 . S
C1352 C1350 1.391 . S
C1352 C1353 1.400 . S
C1353 C1347 1.491 1_455 S
C1353 C1352 1.400 . S
C1353 C1354 1.398 . S
C1354 H1342 0.950 . S
C1354 C1353 1.398 . S
C1354 C1355 1.391 . S
C1355 H1343 0.950 . S
C1355 C1351 1.393 . S
C1355 C1354 1.391 . S
H1356 C1364 0.950 . S
H1357 C1369 0.950 . S
H1358 C1366 0.950 . S
H1359 C1368 0.950 . S
H1360 C1370 0.950 . S
H1361 C1372 0.950 . S
H1362 C1374 0.950 . S
H1363 C1375 0.950 . S
C1364 H1356 0.950 . S
C1364 C1365 1.384 . S
C1364 C1366 1.391 . S
C1365 C1364 1.384 . S
C1365 C1369 1.394 1_556 S
C1366 H1358 0.950 . S
C1366 C1364 1.391 . S
C1366 C1367 1.402 . S
C1367 C1366 1.402 . S
C1367 C1368 1.397 1_556 S
C1367 C1373 1.491 1_566 S
C1368 H1359 0.950 . S
C1368 C1367 1.397 1_554 S
C1368 C1369 1.391 . S
C1369 H1357 0.950 . S
C1369 C1365 1.394 1_554 S
C1369 C1368 1.391 . S
C1370 H1360 0.950 . S
C1370 C1371 1.384 . S
C1370 C1372 1.391 . S
C1371 C1370 1.384 . S
C1371 C1375 1.394 1_554 S
C1372 H1361 0.950 . S
C1372 C1370 1.391 . S
C1372 C1373 1.402 . S
C1373 C1367 1.491 1_544 S
C1373 C1372 1.402 . S
C1373 C1374 1.397 1_554 S
C1374 H1362 0.950 . S
C1374 C1373 1.397 1_556 S
C1374 C1375 1.391 . S
C1375 H1363 0.950 . S
C1375 C1371 1.394 1_556 S
C1375 C1374 1.391 . S
H1376 C1384 0.950 . S
H1377 C1389 0.950 . S
H1378 C1386 0.950 . S
H1379 C1388 0.950 . S
H1380 C1390 0.950 . S
H1381 C1392 0.950 . S
H1382 C1394 0.950 . S
H1383 C1395 0.950 . S
C1384 H1376 0.950 . S
C1384 C1385 1.386 . S
C1384 C1386 1.391 . S
C1385 C1384 1.386 . S
C1385 C1389 1.393 . S
C1386 H1378 0.950 . S
C1386 C1384 1.391 . S
C1386 C1387 1.400 . S
C1387 C1386 1.400 . S
C1387 C1388 1.398 . S
C1387 C1393 1.491 . S
C1388 H1379 0.950 . S
C1388 C1387 1.398 . S
C1388 C1389 1.391 . S
C1389 H1377 0.950 . S
C1389 C1385 1.393 . S
C1389 C1388 1.391 . S
C1390 H1380 0.950 . S
C1390 C1391 1.386 . S
C1390 C1392 1.391 . S
C1391 C1390 1.386 . S
C1391 C1395 1.393 . S
C1392 H1381 0.950 . S
C1392 C1390 1.391 . S
C1392 C1393 1.400 . S
C1393 C1387 1.491 . S
C1393 C1392 1.400 . S
C1393 C1394 1.398 . S
C1394 H1382 0.950 . S
C1394 C1393 1.398 . S
C1394 C1395 1.391 . S
C1395 H1383 0.950 . S
C1395 C1391 1.393 . S
C1395 C1394 1.391 . S
H1396 C1404 0.950 . S
H1397 C1409 0.950 . S
H1398 C1406 0.950 . S
H1399 C1408 0.950 . S
H1400 C1410 0.950 . S
H1401 C1412 0.950 . S
H1402 C1414 0.950 . S
H1403 C1415 0.950 . S
C1404 H1396 0.950 . S
C1404 C1405 1.386 . S
C1404 C1406 1.391 . S
C1405 C1404 1.386 . S
C1405 C1409 1.393 . S
C1406 H1398 0.950 . S
C1406 C1404 1.391 . S
C1406 C1407 1.400 . S
C1407 C1406 1.400 . S
C1407 C1408 1.398 . S
C1407 C1413 1.491 1_455 S
C1408 H1399 0.950 . S
C1408 C1407 1.398 . S
C1408 C1409 1.391 . S
C1409 H1397 0.950 . S
C1409 C1405 1.393 . S
C1409 C1408 1.391 . S
C1410 H1400 0.950 . S
C1410 C1411 1.386 . S
C1410 C1412 1.391 . S
C1411 C1410 1.386 . S
C1411 C1415 1.393 . S
C1412 H1401 0.950 . S
C1412 C1410 1.391 . S
C1412 C1413 1.400 . S
C1413 C1407 1.491 1_655 S
C1413 C1412 1.400 . S
C1413 C1414 1.398 . S
C1414 H1402 0.950 . S
C1414 C1413 1.398 . S
C1414 C1415 1.391 . S
C1415 H1403 0.950 . S
C1415 C1411 1.393 . S
C1415 C1414 1.391 . S
H1416 C1424 0.950 . S
H1417 C1429 0.950 . S
H1418 C1426 0.950 1_554 S
H1419 C1428 0.950 . S
H1420 C1430 0.950 . S
H1421 C1432 0.950 1_556 S
H1422 C1434 0.950 . S
H1423 C1435 0.950 . S
C1424 H1416 0.950 . S
C1424 C1425 1.386 . S
C1424 C1426 1.391 . S
C1425 C1424 1.386 . S
C1425 C1429 1.393 . S
C1426 H1418 0.950 1_556 S
C1426 C1424 1.391 . S
C1426 C1427 1.400 . S
C1427 C1426 1.400 . S
C1427 C1428 1.398 . S
C1427 C1433 1.491 1_556 S
C1428 H1419 0.950 . S
C1428 C1427 1.398 . S
C1428 C1429 1.391 . S
C1429 H1417 0.950 . S
C1429 C1425 1.393 . S
C1429 C1428 1.391 . S
C1430 H1420 0.950 . S
C1430 C1431 1.386 . S
C1430 C1432 1.391 . S
C1431 C1430 1.386 . S
C1431 C1435 1.393 . S
C1432 H1421 0.950 1_554 S
C1432 C1430 1.391 . S
C1432 C1433 1.400 . S
C1433 C1427 1.491 1_554 S
C1433 C1432 1.400 . S
C1433 C1434 1.398 . S
C1434 H1422 0.950 . S
C1434 C1433 1.398 . S
C1434 C1435 1.391 . S
C1435 H1423 0.950 . S
C1435 C1431 1.393 . S
C1435 C1434 1.391 . S
H1436 C1444 0.950 . S
H1437 C1449 0.950 . S
H1438 C1446 0.950 . S
H1439 C1448 0.950 . S
H1440 C1450 0.950 . S
H1441 C1452 0.950 . S
H1442 C1454 0.950 . S
H1443 C1455 0.950 . S
C1444 H1436 0.950 . S
C1444 C1445 1.386 . S
C1444 C1446 1.391 . S
C1445 C1444 1.386 . S
C1445 C1449 1.393 . S
C1446 H1438 0.950 . S
C1446 C1444 1.391 . S
C1446 C1447 1.400 . S
C1447 C1446 1.400 . S
C1447 C1448 1.398 . S
C1447 C1453 1.491 . S
C1448 H1439 0.950 . S
C1448 C1447 1.398 . S
C1448 C1449 1.391 . S
C1449 H1437 0.950 . S
C1449 C1445 1.393 . S
C1449 C1448 1.391 . S
C1450 H1440 0.950 . S
C1450 C1451 1.386 . S
C1450 C1452 1.391 . S
C1451 C1450 1.386 . S
C1451 C1455 1.393 . S
C1452 H1441 0.950 . S
C1452 C1450 1.391 . S
C1452 C1453 1.400 . S
C1453 C1447 1.491 . S
C1453 C1452 1.400 . S
C1453 C1454 1.398 . S
C1454 H1442 0.950 . S
C1454 C1453 1.398 . S
C1454 C1455 1.391 . S
C1455 H1443 0.950 . S
C1455 C1451 1.393 . S
C1455 C1454 1.391 . S
H1456 C1464 0.950 . S
H1457 C1469 0.950 . S
H1458 C1466 0.950 . S
H1459 C1468 0.950 . S
H1460 C1470 0.950 . S
H1461 C1472 0.950 . S
H1462 C1474 0.950 . S
H1463 C1475 0.950 . S
C1464 H1456 0.950 . S
C1464 C1465 1.386 . S
C1464 C1466 1.391 . S
C1465 C1464 1.386 . S
C1465 C1469 1.393 . S
C1466 H1458 0.950 . S
C1466 C1464 1.391 . S
C1466 C1467 1.400 . S
C1467 C1466 1.400 . S
C1467 C1468 1.398 . S
C1467 C1473 1.491 . S
C1468 H1459 0.950 . S
C1468 C1467 1.398 . S
C1468 C1469 1.391 . S
C1469 H1457 0.950 . S
C1469 C1465 1.393 . S
C1469 C1468 1.391 . S
C1470 H1460 0.950 . S
C1470 C1471 1.386 . S
C1470 C1472 1.391 . S
C1471 C1470 1.386 . S
C1471 C1475 1.393 . S
C1472 H1461 0.950 . S
C1472 C1470 1.391 . S
C1472 C1473 1.400 . S
C1473 C1467 1.491 . S
C1473 C1472 1.400 . S
C1473 C1474 1.398 . S
C1474 H1462 0.950 . S
C1474 C1473 1.398 . S
C1474 C1475 1.391 . S
C1475 H1463 0.950 . S
C1475 C1471 1.393 . S
C1475 C1474 1.391 . S
H1476 C1484 0.950 . S
H1477 C1489 0.950 . S
H1478 C1486 0.909 1_556 S
H1479 C1488 0.950 . S
H1480 C1490 0.950 . S
H1481 C1492 0.909 1_554 S
H1482 C1494 0.950 . S
H1483 C1495 0.950 . S
C1484 H1476 0.950 . S
C1484 C1485 1.386 . S
C1484 C1486 1.419 . S
C1485 C1484 1.386 . S
C1485 C1489 1.393 . S
C1486 H1478 0.909 1_554 S
C1486 C1484 1.419 . S
C1486 C1487 1.414 . S
C1487 C1486 1.414 . S
C1487 C1488 1.398 . S
C1487 C1493 1.491 1_554 S
C1488 H1479 0.950 . S
C1488 C1487 1.398 . S
C1488 C1489 1.391 . S
C1489 H1477 0.950 . S
C1489 C1485 1.393 . S
C1489 C1488 1.391 . S
C1490 H1480 0.950 . S
C1490 C1491 1.386 . S
C1490 C1492 1.419 . S
C1491 C1490 1.386 . S
C1491 C1495 1.393 . S
C1492 H1481 0.909 1_556 S
C1492 C1490 1.419 . S
C1492 C1493 1.414 . S
C1493 C1487 1.491 1_556 S
C1493 C1492 1.414 . S
C1493 C1494 1.398 . S
C1494 H1482 0.950 . S
C1494 C1493 1.398 . S
C1494 C1495 1.391 . S
C1495 H1483 0.950 . S
C1495 C1491 1.393 . S
C1495 C1494 1.391 . S
H1496 C1504 0.950 . S
H1497 C1509 0.950 . S
H1498 C1506 0.950 . S
H1499 C1508 0.950 . S
H1500 C1510 0.950 . S
H1501 C1512 0.950 . S
H1502 C1514 0.950 . S
H1503 C1515 0.950 . S
C1504 H1496 0.950 . S
C1504 C1505 1.386 . S
C1504 C1506 1.391 . S
C1505 C1504 1.386 . S
C1505 C1509 1.393 . S
C1506 H1498 0.950 . S
C1506 C1504 1.391 . S
C1506 C1507 1.400 . S
C1507 C1506 1.400 . S
C1507 C1508 1.398 . S
C1507 C1513 1.491 . S
C1508 H1499 0.950 . S
C1508 C1507 1.398 . S
C1508 C1509 1.391 . S
C1509 H1497 0.950 . S
C1509 C1505 1.393 . S
C1509 C1508 1.391 . S
C1510 H1500 0.950 . S
C1510 C1511 1.386 . S
C1510 C1512 1.391 . S
C1511 C1510 1.386 . S
C1511 C1515 1.393 . S
C1512 H1501 0.950 . S
C1512 C1510 1.391 . S
C1512 C1513 1.400 . S
C1513 C1507 1.491 . S
C1513 C1512 1.400 . S
C1513 C1514 1.398 . S
C1514 H1502 0.950 . S
C1514 C1513 1.398 . S
C1514 C1515 1.391 . S
C1515 H1503 0.950 . S
C1515 C1511 1.393 . S
C1515 C1514 1.391 . S
H1516 C1524 0.950 . S
H1517 C1529 0.950 . S
H1518 C1526 0.950 . S
H1519 C1528 0.950 . S
H1520 C1530 0.950 . S
H1521 C1532 0.950 . S
H1522 C1534 0.950 . S
H1523 C1535 0.950 . S
C1524 H1516 0.950 . S
C1524 C1525 1.386 . S
C1524 C1526 1.391 . S
C1525 C1524 1.386 . S
C1525 C1529 1.393 . S
C1526 H1518 0.950 . S
C1526 C1524 1.391 . S
C1526 C1527 1.400 . S
C1527 C1526 1.400 . S
C1527 C1528 1.398 . S
C1527 C1533 1.491 . S
C1528 H1519 0.950 . S
C1528 C1527 1.398 . S
C1528 C1529 1.391 . S
C1529 H1517 0.950 . S
C1529 C1525 1.393 . S
C1529 C1528 1.391 . S
C1530 H1520 0.950 . S
C1530 C1531 1.386 . S
C1530 C1532 1.391 . S
C1531 C1530 1.386 . S
C1531 C1535 1.393 . S
C1532 H1521 0.950 . S
C1532 C1530 1.391 . S
C1532 C1533 1.400 . S
C1533 C1527 1.491 . S
C1533 C1532 1.400 . S
C1533 C1534 1.398 . S
C1534 H1522 0.950 . S
C1534 C1533 1.398 . S
C1534 C1535 1.391 . S
C1535 H1523 0.950 . S
C1535 C1531 1.393 . S
C1535 C1534 1.391 . S
C1065 C293 1.916 . S
C1071 C20 1.923 . S
C1085 C108 1.915 . S
C1091 C372 1.908 . S
C1105 C460 1.927 . S
C1111 C205 1.932 . S
C1125 C585 1.933 . S
C1131 C849 1.930 . S
C1145 C929 1.926 . S
C1151 C665 1.919 . S
C1165 C761 1.925 . S
C1171 C1025 1.918 . S
C1185 C753 1.588 . S
C1191 C29 1.588 . S
C1205 C117 1.588 . S
C1211 C841 1.589 . S
C1225 C196 1.589 . S
C1231 C937 1.589 . S
C1245 C284 1.590 . S
C1251 C1017 1.590 . S
C1265 C577 1.588 . S
C1271 C381 1.588 . S
C1285 C673 1.588 . S
C1291 C469 1.588 . S
C1305 C636 1.175 . S
C1311 C49 1.149 . S
C1325 C137 1.165 . S
C1331 C733 1.177 . S
C1345 C233 1.177 . S
C1351 C821 1.163 . S
C1365 C321 1.178 1_556 S
C1371 C900 1.158 1_554 S
C1385 C997 1.171 . S
C1391 C401 1.174 . S
C1405 C489 1.177 . S
C1411 C557 1.161 . S
C1425 C909 1.118 . S
C1431 C57 1.122 . S
C1445 C988 1.124 . S
C1451 C145 1.129 . S
C1465 C548 1.126 . S
C1471 C225 1.130 . S
C1485 C313 1.132 . S
C1491 C645 1.136 . S
C1505 C409 1.117 . S
C1511 C724 1.120 . S
C1525 C497 1.135 . S
C1531 C812 1.131 . S
