# Generated by pormake.
# Topology wfe, (8)-cn, num edge types: 1
# Building blocks:
#     Node 0, Type 0, BuildingBlock: TAGTUT_clean_sbu_1, # of connection points: 8
#     Node 1, Type 0, BuildingBlock: TAGTUT_clean_sbu_1, # of connection points: 8
#     Node 2, Type 0, BuildingBlock: TAGTUT_clean_sbu_1, # of connection points: 8
#     Node 3, Type 0, BuildingBlock: TAGTUT_clean_sbu_1, # of connection points: 8
#     Node 4, Type 0, BuildingBlock: TAGTUT_clean_sbu_1, # of connection points: 8
#     Node 5, Type 0, BuildingBlock: TAGTUT_clean_sbu_1, # of connection points: 8
#     Node 6, Type 0, BuildingBlock: TAGTUT_clean_sbu_1, # of connection points: 8
#     Node 7, Type 0, BuildingBlock: TAGTUT_clean_sbu_1, # of connection points: 8
#     Edge 8, Type (0, 0), BuildingBlock: OJICUG_clean_linker_0, # of connection points: 2
#     Edge 9, Type (0, 0), BuildingBlock: OJICUG_clean_linker_0, # of connection points: 2
#     Edge 10, Type (0, 0), BuildingBlock: OJICUG_clean_linker_0, # of connection points: 2
#     Edge 11, Type (0, 0), BuildingBlock: OJICUG_clean_linker_0, # of connection points: 2
#     Edge 12, Type (0, 0), BuildingBlock: OJICUG_clean_linker_0, # of connection points: 2
#     Edge 13, Type (0, 0), BuildingBlock: OJICUG_clean_linker_0, # of connection points: 2
#     Edge 14, Type (0, 0), BuildingBlock: OJICUG_clean_linker_0, # of connection points: 2
#     Edge 15, Type (0, 0), BuildingBlock: OJICUG_clean_linker_0, # of connection points: 2
#     Edge 16, Type (0, 0), BuildingBlock: OJICUG_clean_linker_0, # of connection points: 2
#     Edge 17, Type (0, 0), BuildingBlock: OJICUG_clean_linker_0, # of connection points: 2
#     Edge 18, Type (0, 0), BuildingBlock: OJICUG_clean_linker_0, # of connection points: 2
#     Edge 19, Type (0, 0), BuildingBlock: OJICUG_clean_linker_0, # of connection points: 2
#     Edge 20, Type (0, 0), BuildingBlock: OJICUG_clean_linker_0, # of connection points: 2
#     Edge 21, Type (0, 0), BuildingBlock: OJICUG_clean_linker_0, # of connection points: 2
#     Edge 22, Type (0, 0), BuildingBlock: OJICUG_clean_linker_0, # of connection points: 2
#     Edge 23, Type (0, 0), BuildingBlock: OJICUG_clean_linker_0, # of connection points: 2
#     Edge 24, Type (0, 0), BuildingBlock: OJICUG_clean_linker_0, # of connection points: 2
#     Edge 25, Type (0, 0), BuildingBlock: OJICUG_clean_linker_0, # of connection points: 2
#     Edge 26, Type (0, 0), BuildingBlock: OJICUG_clean_linker_0, # of connection points: 2
#     Edge 27, Type (0, 0), BuildingBlock: OJICUG_clean_linker_0, # of connection points: 2
#     Edge 28, Type (0, 0), BuildingBlock: OJICUG_clean_linker_0, # of connection points: 2
#     Edge 29, Type (0, 0), BuildingBlock: OJICUG_clean_linker_0, # of connection points: 2
#     Edge 30, Type (0, 0), BuildingBlock: OJICUG_clean_linker_0, # of connection points: 2
#     Edge 31, Type (0, 0), BuildingBlock: OJICUG_clean_linker_0, # of connection points: 2
#     Edge 32, Type (0, 0), BuildingBlock: OJICUG_clean_linker_0, # of connection points: 2
#     Edge 33, Type (0, 0), BuildingBlock: OJICUG_clean_linker_0, # of connection points: 2
#     Edge 34, Type (0, 0), BuildingBlock: OJICUG_clean_linker_0, # of connection points: 2
#     Edge 35, Type (0, 0), BuildingBlock: OJICUG_clean_linker_0, # of connection points: 2
#     Edge 36, Type (0, 0), BuildingBlock: OJICUG_clean_linker_0, # of connection points: 2
#     Edge 37, Type (0, 0), BuildingBlock: OJICUG_clean_linker_0, # of connection points: 2
#     Edge 38, Type (0, 0), BuildingBlock: OJICUG_clean_linker_0, # of connection points: 2
#     Edge 39, Type (0, 0), BuildingBlock: OJICUG_clean_linker_0, # of connection points: 2
# Relax obj value: 0.287
# Max RMSD: 0.308
# Mean RMSD: 0.308
data_MOF--net-wfe--node1-TAGTUT_clean_sbu_1--edge1-OJICUG_clean_linker_0
_symmetry_space_group_name_H-M    P1
_symmetry_Int_Tables_number       1
_symmetry_cell_setting            triclinic
loop_
_symmetry_equiv_pos_as_xyz
'x, y, z'
_cell_length_a     29.132734
_cell_length_b     29.206116
_cell_length_c     17.98066
_cell_angle_alpha  89.956544
_cell_angle_beta   89.879706
_cell_angle_gamma 90.072218
loop_
_atom_site_label
_atom_site_type_symbol
_atom_site_fract_x
_atom_site_fract_y
_atom_site_fract_z
_atom_type_partial_charge
C0 C 0.50875 0.41155 0.11313 0.0
C1 C 0.42721 0.33487 0.25369 0.0
C2 C 0.60469 0.32356 0.40811 0.0
Mg3 Mg 0.49762 0.30647 0.12938 0.0
O4 O 0.54023 0.31541 0.20616 0.0
Mg5 Mg 0.53815 0.36745 0.27991 0.0
Mg6 Mg 0.55996 0.26618 0.27286 0.0
O7 O 0.57936 0.21397 0.34175 0.0
Mg8 Mg 0.64014 0.2293 0.33734 0.0
Mg9 Mg 0.58176 0.16023 0.26286 0.0
C10 C 0.55379 0.21194 0.10108 0.0
C11 C 0.47556 0.19305 0.29311 0.0
O12 O 0.5189 0.41341 0.18228 0.0
O13 O 0.50306 0.37354 0.07848 0.0
O14 O 0.46004 0.35278 0.29193 0.0
O15 O 0.43425 0.31273 0.19289 0.0
O16 O 0.52851 0.24393 0.07309 0.0
O17 O 0.56376 0.21328 0.17091 0.0
C18 C 0.63199 0.34489 0.22021 0.0
O19 O 0.62977 0.3045 0.24801 0.0
O20 O 0.61316 0.37757 0.25585 0.0
O21 O 0.60189 0.1214 0.36751 0.0
O22 O 0.66153 0.16791 0.39268 0.0
O23 O 0.6606 0.15783 0.23266 0.0
C24 C 0.63695 0.13252 0.40693 0.0
O25 O 0.64466 0.2273 0.21842 0.0
O26 O 0.63681 0.29408 0.39831 0.0
C27 C 0.67074 0.19537 0.20237 0.0
O28 O 0.56501 0.31854 0.37449 0.0
O29 O 0.48678 0.23567 0.29243 0.0
O30 O 0.50511 0.16087 0.28597 0.0
C31 C 0.58448 0.00719 0.61363 0.0
C32 C 0.66155 0.92607 0.75401 0.0
C33 C 0.6723 0.10353 0.90821 0.0
Mg34 Mg 0.68977 0.99641 0.62965 0.0
O35 O 0.68068 0.03884 0.70656 0.0
Mg36 Mg 0.62848 0.03659 0.78042 0.0
Mg37 Mg 0.72994 0.05878 0.77308 0.0
O38 O 0.78219 0.07848 0.84172 0.0
Mg39 Mg 0.76677 0.13903 0.83686 0.0
Mg40 Mg 0.83614 0.08081 0.76273 0.0
C41 C 0.78436 0.05277 0.60104 0.0
C42 C 0.80324 0.97483 0.79374 0.0
O43 O 0.58249 0.01719 0.68286 0.0
O44 O 0.62264 0.00168 0.57893 0.0
O45 O 0.64343 0.9587 0.79235 0.0
O46 O 0.68371 0.9332 0.69311 0.0
O47 O 0.75229 0.02751 0.57309 0.0
O48 O 0.78309 0.06252 0.67097 0.0
C49 C 0.6509 0.13026 0.72056 0.0
O50 O 0.69147 0.12818 0.7479 0.0
O51 O 0.61822 0.1113 0.75637 0.0
O52 O 0.87487 0.10129 0.8673 0.0
O53 O 0.82822 0.16076 0.89205 0.0
O54 O 0.83847 0.15939 0.73214 0.0
C55 C 0.86361 0.13632 0.90657 0.0
O56 O 0.76884 0.14333 0.71786 0.0
O57 O 0.70182 0.13564 0.89805 0.0
C58 C 0.8009 0.16939 0.70179 0.0
O59 O 0.67737 0.06385 0.87484 0.0
O60 O 0.76052 0.98595 0.79304 0.0
O61 O 0.83552 0.00436 0.78629 0.0
C62 C 0.98849 0.08334 0.11299 0.0
C63 C 0.07022 0.16004 0.25262 0.0
C64 C 0.89271 0.17171 0.40804 0.0
Mg65 Mg -0.00018 0.18843 0.12855 0.0
O66 O 0.9573 0.17968 0.2058 0.0
Mg67 Mg 0.95926 0.12767 0.27973 0.0
Mg68 Mg 0.93759 0.229 0.27239 0.0
O69 O 0.91815 0.28126 0.34116 0.0
Mg70 Mg 0.85738 0.26596 0.33706 0.0
Mg71 Mg 0.91586 0.33497 0.2621 0.0
C72 C 0.94356 0.28294 0.10022 0.0
C73 C 0.02202 0.30212 0.29211 0.0
O74 O 0.97843 0.08157 0.18225 0.0
O75 O 0.99417 0.12131 0.07808 0.0
O76 O 0.03737 0.14225 0.29123 0.0
O77 O 0.06322 0.18205 0.19167 0.0
O78 O 0.96874 0.25085 0.07217 0.0
O79 O 0.93389 0.28185 0.17023 0.0
C80 C 0.86546 0.1503 0.22043 0.0
O81 O 0.86778 0.19074 0.24789 0.0
O82 O 0.88429 0.11764 0.25607 0.0
O83 O 0.89566 0.37383 0.36678 0.0
O84 O 0.83595 0.32738 0.39228 0.0
O85 O 0.83705 0.33741 0.23225 0.0
C86 C 0.86056 0.36274 0.40638 0.0
O87 O 0.85298 0.26793 0.21814 0.0
O88 O 0.86062 0.20121 0.39826 0.0
C89 C 0.82693 0.29987 0.2021 0.0
O90 O 0.93241 0.17669 0.37421 0.0
O91 O 0.01079 0.2595 0.29163 0.0
O92 O 0.99249 0.33429 0.28491 0.0
C93 C 0.91261 0.4878 0.61346 0.0
C94 C 0.83539 0.5686 0.7542 0.0
C95 C 0.82442 0.39086 0.90785 0.0
Mg96 Mg 0.80732 0.49854 0.62963 0.0
O97 O 0.81637 0.45587 0.70628 0.0
Mg98 Mg 0.86838 0.45803 0.78016 0.0
Mg99 Mg 0.76701 0.43576 0.77279 0.0
O100 O 0.71462 0.41595 0.84142 0.0
Mg101 Mg 0.7301 0.3554 0.83659 0.0
Mg102 Mg 0.66087 0.41368 0.76242 0.0
C103 C 0.71286 0.44213 0.60089 0.0
C104 C 0.69363 0.51965 0.79328 0.0
O105 O 0.91447 0.47766 0.68265 0.0
O106 O 0.87454 0.49336 0.57879 0.0
O107 O 0.85339 0.53586 0.79241 0.0
O108 O 0.81337 0.56163 0.69329 0.0
O109 O 0.7449 0.46757 0.57297 0.0
O110 O 0.71413 0.43209 0.67071 0.0
C111 C 0.84621 0.36447 0.72004 0.0
O112 O 0.80561 0.36643 0.74753 0.0
O113 O 0.87882 0.38337 0.75585 0.0
O114 O 0.6219 0.39318 0.86697 0.0
O115 O 0.66845 0.33365 0.89171 0.0
O116 O 0.65866 0.33512 0.73188 0.0
C117 C 0.63307 0.35815 0.9063 0.0
O118 O 0.72832 0.35121 0.71759 0.0
O119 O 0.79495 0.35874 0.89772 0.0
C120 C 0.69631 0.32514 0.70155 0.0
O121 O 0.81935 0.43058 0.87454 0.0
O122 O 0.73635 0.50855 0.79272 0.0
O123 O 0.66139 0.49012 0.78584 0.0
C124 C 0.36045 0.86252 0.66466 0.0
C125 C 0.3266 0.7995 0.86911 0.0
C126 C 0.44338 0.78282 0.97043 0.0
Mg127 Mg 0.35721 0.76571 0.7341 0.0
O128 O 0.41799 0.78095 0.7297 0.0
Mg129 Mg 0.4156 0.83466 0.80868 0.0
Mg130 Mg 0.43732 0.72867 0.79854 0.0
O131 O 0.45705 0.67942 0.86523 0.0
Mg132 Mg 0.49961 0.68833 0.94211 0.0
Mg133 Mg 0.45921 0.62738 0.79149 0.0
C134 C 0.39268 0.67151 0.66308 0.0
C135 C 0.36531 0.64994 0.85106 0.0
O136 O 0.39552 0.87359 0.70409 0.0
O137 O 0.33583 0.82715 0.67889 0.0
O138 O 0.33676 0.83705 0.83887 0.0
O139 O 0.35265 0.76756 0.853 0.0
O140 O 0.36065 0.70106 0.67295 0.0
O141 O 0.43234 0.67623 0.6969 0.0
C142 C 0.52177 0.8018 0.77846 0.0
O143 O 0.51053 0.75919 0.77906 0.0
O144 O 0.49223 0.83399 0.78561 0.0
O145 O 0.47841 0.5814 0.88911 0.0
O146 O 0.49414 0.62126 0.99297 0.0
O147 O 0.5373 0.64207 0.77956 0.0
C148 C 0.4885 0.58325 0.95829 0.0
O149 O 0.56304 0.68206 0.8787 0.0
O150 O 0.46862 0.7508 0.99845 0.0
C151 C 0.5701 0.65996 0.81788 0.0
O152 O 0.43359 0.78157 0.90053 0.0
O153 O 0.3675 0.69034 0.8233 0.0
O154 O 0.38416 0.61728 0.81541 0.0
C155 C 0.13364 0.85839 0.16522 0.0
C156 C 0.19654 0.8254 0.36997 0.0
C157 C 0.21295 0.94205 0.47055 0.0
Mg158 Mg 0.2305 0.85577 0.23488 0.0
O159 O 0.21509 0.9163 0.22991 0.0
Mg160 Mg 0.16117 0.91393 0.30896 0.0
Mg161 Mg 0.26737 0.93604 0.29849 0.0
O162 O 0.3166 0.95608 0.36501 0.0
Mg163 Mg 0.30748 -0.00151 0.44195 0.0
Mg164 Mg 0.36882 0.95841 0.2912 0.0
C165 C 0.32488 0.89135 0.16325 0.0
C166 C 0.3465 0.86469 0.35105 0.0
O167 O 0.12238 0.89341 0.20449 0.0
O168 O 0.16905 0.83397 0.17976 0.0
O169 O 0.15895 0.83535 0.33963 0.0
O170 O 0.22855 0.85151 0.35389 0.0
O171 O 0.29533 0.8593 0.17355 0.0
O172 O 0.32005 0.93104 0.19674 0.0
C173 C 0.19396 0.01992 0.27787 0.0
O174 O 0.23669 0.00885 0.27851 0.0
O175 O 0.16171 0.99036 0.28535 0.0
O176 O 0.41476 0.97784 0.3888 0.0
O177 O 0.3746 0.99324 0.49275 0.0
O178 O 0.3538 0.03626 0.27926 0.0
C179 C 0.41276 0.9878 0.45805 0.0
O180 O 0.31355 0.06172 0.37855 0.0
O181 O 0.245 0.96733 0.49853 0.0
C182 C 0.33568 0.06888 0.31764 0.0
O183 O 0.21422 0.93236 0.40061 0.0
O184 O 0.30592 0.86668 0.32371 0.0
O185 O 0.37915 0.88369 0.31521 0.0
C186 C 0.1367 0.63232 0.66491 0.0
C187 C 0.17029 0.69513 0.86927 0.0
C188 C 0.0538 0.71199 0.97123 0.0
Mg189 Mg 0.1398 0.72902 0.73442 0.0
O190 O 0.07904 0.71377 0.73024 0.0
Mg191 Mg 0.08139 0.66 0.80921 0.0
Mg192 Mg 0.05961 0.76599 0.79912 0.0
O193 O 0.03983 0.81523 0.86584 0.0
Mg194 Mg 0.99734 0.80639 0.9431 0.0
Mg195 Mg 0.03773 0.86728 0.79202 0.0
C196 C 0.10439 0.82324 0.66346 0.0
C197 C 0.13162 0.84472 0.85126 0.0
O198 O 0.10159 0.62119 0.70446 0.0
O199 O 0.1613 0.66766 0.6791 0.0
O200 O 0.1602 0.6576 0.83905 0.0
O201 O 0.14421 0.72705 0.8533 0.0
O202 O 0.13644 0.79371 0.67326 0.0
O203 O 0.0647 0.81848 0.69741 0.0
C204 C 0.97521 0.69282 0.7793 0.0
O205 O 0.98642 0.73545 0.77984 0.0
O206 O 0.00476 0.66065 0.78642 0.0
O207 O 0.01847 0.91326 0.88958 0.0
O208 O 0.00282 0.87348 0.99373 0.0
O209 O 0.95968 0.85255 0.78047 0.0
C210 C 0.00842 0.91146 0.95884 0.0
O211 O 0.9339 0.81267 0.88 0.0
O212 O 0.02863 0.74405 0.99938 0.0
C213 C 0.92686 0.8347 0.81907 0.0
O214 O 0.06329 0.71305 0.90115 0.0
O215 O 0.12938 0.80429 0.8237 0.0
O216 O 0.1127 0.87738 0.81573 0.0
C217 C 0.36435 0.6366 0.165 0.0
C218 C 0.30111 0.66961 0.36977 0.0
C219 C 0.28439 0.55286 0.47046 0.0
Mg220 Mg 0.26737 0.63937 0.23473 0.0
O221 O 0.28274 0.57882 0.22983 0.0
Mg222 Mg 0.3365 0.58108 0.30884 0.0
Mg223 Mg 0.23031 0.5591 0.29849 0.0
O224 O 0.18095 0.53902 0.36505 0.0
Mg225 Mg 0.18995 0.49642 0.44182 0.0
Mg226 Mg 0.12892 0.53679 0.29123 0.0
C227 C 0.17307 0.60393 0.1633 0.0
C228 C 0.15114 0.63043 0.35118 0.0
O229 O 0.37549 0.60154 0.20428 0.0
O230 O 0.32902 0.66114 0.17969 0.0
O231 O 0.33875 0.65963 0.3394 0.0
O232 O 0.26908 0.64356 0.35371 0.0
O233 O 0.20262 0.63597 0.17348 0.0
O234 O 0.17786 0.56422 0.19678 0.0
C235 C 0.30365 0.47514 0.27807 0.0
O236 O 0.26094 0.48627 0.27863 0.0
O237 O 0.33592 0.50465 0.28545 0.0
O238 O 0.08284 0.51724 0.38878 0.0
O239 O 0.12275 0.50167 0.49268 0.0
O240 O 0.14391 0.45897 0.27909 0.0
C241 C 0.08468 0.50719 0.458 0.0
O242 O 0.18389 0.43327 0.3783 0.0
O243 O 0.25231 0.52751 0.49844 0.0
C244 C 0.16189 0.42625 0.31738 0.0
O245 O 0.28324 0.56268 0.40054 0.0
O246 O 0.19176 0.62845 0.32374 0.0
O247 O 0.11854 0.61148 0.31542 0.0
C248 C 0.68382 0.11883 0.5175 0.0
C249 C 0.64085 0.11591 0.48326 0.0
H250 H 0.72056 0.12861 0.61685 0.0
C251 C 0.60113 0.11428 0.52752 0.0
H252 H 0.7149 0.12099 0.48441 0.0
C253 C 0.60432 0.11968 0.60451 0.0
C254 C 0.64733 0.12608 0.63856 0.0
H255 H 0.56739 0.11307 0.50232 0.0
H256 H 0.57299 0.11996 0.63705 0.0
C257 C 0.68693 0.12453 0.5939 0.0
C258 C 0.88164 0.10072 1.0272 0.0
C259 C 0.87995 0.14033 0.98302 0.0
H260 H 0.87597 0.07263 0.13668 0.0
C261 C 0.87677 0.18317 1.01736 0.0
H262 H 0.88302 0.06708 1.00194 0.0
C263 C 0.87099 0.18624 0.09378 0.0
C264 C 0.86962 0.14675 0.13839 0.0
H265 H 0.87451 0.21416 0.98434 0.0
H266 H 0.8667 0.21976 0.11679 0.0
C267 C 0.87616 0.10388 0.10421 0.0
C268 C 0.81359 0.37646 0.51712 0.0
C269 C 0.85661 0.37931 0.48273 0.0
H270 H 0.7767 0.36658 0.61657 0.0
C271 C 0.89628 0.38078 0.52686 0.0
H272 H 0.78254 0.37444 0.48413 0.0
C273 C 0.89297 0.37526 0.60386 0.0
C274 C 0.8499 0.36888 0.63804 0.0
H275 H 0.93005 0.38194 0.50155 0.0
H276 H 0.92425 0.37484 0.6363 0.0
C277 C 0.81037 0.37062 0.59351 0.0
C278 C 0.62098 0.39106 0.10376 0.0
C279 C 0.62757 0.34827 0.13819 0.0
H280 H 0.61389 0.42765 1.0013 0.0
C281 C 0.62602 0.30867 0.09392 0.0
H282 H 0.6213 0.42238 0.13598 0.0
C283 C 0.62 0.31158 1.01757 0.0
C284 C 0.6168 0.35434 0.98293 0.0
H285 H 0.63035 0.27521 0.11713 0.0
H286 H 0.62213 0.28051 0.98479 0.0
C287 C 0.61527 0.39405 1.02681 0.0
C288 C 0.3963 0.88066 0.54408 0.0
C289 C 0.35658 0.87914 0.58833 0.0
H290 H 0.42443 0.87488 0.43454 0.0
C291 C 0.3136 0.87631 0.55409 0.0
H292 H 0.43004 0.8818 0.56928 0.0
C293 C 0.31048 0.87058 0.4777 0.0
C294 C 0.35008 0.86892 0.43304 0.0
H295 H 0.28251 0.87424 0.58718 0.0
H296 H 0.27685 0.86657 0.45474 0.0
C297 C 0.3931 0.87524 0.46709 0.0
C298 C 0.12071 0.8116 0.05429 0.0
C299 C 0.11731 0.85439 0.08875 0.0
H300 H 0.13091 0.77517 0.95476 0.0
C301 C 0.11535 0.89403 0.04467 0.0
H302 H 0.12317 0.78059 0.08722 0.0
C303 C 0.12078 0.89097 0.96764 0.0
C304 C 0.12754 0.84818 0.93333 0.0
H305 H 0.11379 0.92764 0.07001 0.0
H306 H 0.12076 0.92226 0.93525 0.0
C307 C 0.12644 0.80864 0.97785 0.0
C308 C 0.10104 0.61428 0.54438 0.0
C309 C 0.1407 0.61579 0.58853 0.0
H310 H 0.07308 0.6201 0.43491 0.0
C311 C 0.18372 0.61869 0.55416 0.0
H312 H 0.06726 0.61309 0.56968 0.0
C313 C 0.18695 0.62448 0.47776 0.0
C314 C 0.14743 0.62614 0.4332 0.0
H315 H 0.21476 0.62077 0.58716 0.0
H316 H 0.22062 0.62854 0.45472 0.0
C317 C 0.10436 0.61975 0.46737 0.0
C318 C 0.38201 0.60071 0.04443 0.0
C319 C 0.38056 0.64041 0.08833 0.0
H320 H 0.37592 0.57241 0.93525 0.0
C321 C 0.37736 0.68319 0.05371 0.0
H322 H 0.38339 0.56711 0.06993 0.0
C323 C 0.3713 0.68611 0.97737 0.0
C324 C 0.36972 0.64653 0.93308 0.0
H325 H 0.37528 0.71425 0.08652 0.0
H326 H 0.36697 0.71958 0.95419 0.0
C327 C 0.37628 0.60373 0.96748 0.0
C328 C 0.49602 0.45613 0.99621 0.0
C329 C 0.50375 0.45533 0.07308 0.0
H330 H 0.48512 0.4971 0.89974 0.0
C331 C 0.50631 0.49704 0.11219 0.0
H332 H 0.494 0.42469 0.96449 0.0
C333 C 0.5012 0.53866 0.07521 0.0
C334 C 0.49347 0.53946 0.99833 0.0
H335 H 0.5121 0.4977 0.17167 0.0
H336 H 0.50322 0.57011 0.10693 0.0
C337 C 0.49091 0.49776 0.95923 0.0
C338 C 0.54008 0.99532 0.49636 0.0
C339 C 0.54069 0.00235 0.57344 0.0
H340 H 0.49925 0.98525 0.39954 0.0
C341 C 0.49879 0.00451 0.61252 0.0
H342 H 0.57169 0.99365 0.46466 0.0
C343 C 0.45716 -0.00031 0.57532 0.0
C344 C 0.45655 0.99266 0.49824 0.0
H345 H 0.49799 0.00975 0.67214 0.0
H346 H 0.42555 0.00135 0.60702 0.0
C347 C 0.49845 0.9905 0.45916 0.0
C348 C 0.00112 0.03862 0.99621 0.0
C349 C 0.99336 0.03951 0.07312 0.0
H350 H 0.01196 -0.00245 0.89988 0.0
C351 C 0.99067 -0.00216 0.11244 0.0
H352 H 0.00323 0.07004 0.96433 0.0
C353 C 0.9957 0.95617 0.07563 0.0
C354 C 0.00347 0.95529 0.99871 0.0
H355 H 0.98485 0.99725 0.17196 0.0
H356 H 0.99359 0.92475 0.10749 0.0
C357 C 0.00614 0.99696 0.9594 0.0
C358 C 0.99827 0.4906 0.61245 0.0
C359 C 0.95649 0.49269 0.5733 0.0
H360 H 0.07151 0.4938 0.607 0.0
C361 C 0.9573 0.49964 0.4962 0.0
H362 H -0.0011 0.48543 0.6721 0.0
C363 C -0.00097 0.50444 0.45902 0.0
C364 C 0.04081 0.50234 0.49817 0.0
H365 H 0.92578 0.50124 0.46447 0.0
H366 H 0.9984 0.50961 0.39937 0.0
C367 C 0.04 0.4954 0.57526 0.0
C368 C 0.73498 0.22835 0.26449 0.0
C369 C 0.71762 0.21111 0.19753 0.0
H370 H 0.77447 0.27983 0.3174 0.0
C371 C 0.73262 0.23005 0.12993 0.0
H372 H 0.72304 0.21529 0.31746 0.0
C373 C 0.76516 0.26528 0.12988 0.0
C374 C 0.78006 0.28414 0.19745 0.0
H375 H 0.71803 0.21867 0.0777 0.0
H376 H 0.77984 0.2767 0.07762 0.0
C377 C 0.76259 0.26685 0.26446 0.0
C378 C 0.73113 0.26354 0.62926 0.0
C379 C 0.7121 0.27842 0.69682 0.0
H380 H 0.77783 0.21647 0.57709 0.0
C381 C 0.72923 0.26101 0.76382 0.0
H382 H 0.71984 0.27816 0.577 0.0
C383 C 0.76776 0.23347 0.76388 0.0
C384 C 0.78515 0.21612 0.69692 0.0
H385 H 0.7161 0.27283 0.81675 0.0
H386 H 0.78069 0.2216 0.81686 0.0
C387 C 0.76635 0.23105 0.62931 0.0
C388 C 0.26231 0.76666 0.80697 0.0
C389 C 0.27971 0.7838 0.87396 0.0
H390 H 0.2227 0.71531 0.75396 0.0
C391 C 0.2647 0.76483 0.94153 0.0
H392 H 0.27426 0.77974 0.75403 0.0
C393 C 0.2321 0.72965 0.94151 0.0
C394 C 0.21715 0.71088 0.87391 0.0
H395 H 0.27933 0.77613 0.99377 0.0
H396 H 0.21743 0.71819 0.99376 0.0
C397 C 0.23461 0.72822 0.80693 0.0
C398 C 0.22966 0.76135 0.30774 0.0
C399 C 0.21235 0.77869 0.37476 0.0
H400 H 0.28121 0.72196 0.25467 0.0
C401 C 0.23122 0.76373 0.4423 0.0
H402 H 0.21666 0.77323 0.25481 0.0
C403 C 0.26641 0.73121 0.44222 0.0
C404 C 0.28536 0.71633 0.3746 0.0
H405 H 0.2198 0.7783 0.49457 0.0
H406 H 0.27775 0.71656 0.49444 0.0
C407 C 0.26817 0.73379 0.30766 0.0
C408 C 0.57718 0.18342 0.97233 0.0
C409 C 0.57558 0.17615 0.04989 0.0
H410 H 0.60774 0.16609 0.86753 0.0
C411 C 0.59965 0.13747 0.07694 0.0
H412 H 0.55992 0.2127 0.94826 0.0
C413 C 0.62681 0.10951 1.02924 0.0
C414 C 0.6305 0.11864 0.95228 0.0
H415 H 0.59919 0.1298 0.13568 0.0
H416 H 0.64766 0.08281 0.05372 0.0
C417 C 0.60434 0.15578 0.92507 0.0
C418 C 0.859 0.09871 0.57654 0.0
C419 C 0.82009 0.07478 0.54971 0.0
H420 H 0.91383 0.1467 0.55314 0.0
C421 C 0.81252 0.07669 0.47228 0.0
H422 H 0.86688 0.09803 0.63518 0.0
C423 C 0.8401 0.10399 0.42498 0.0
C424 C 0.8775 0.12997 0.45199 0.0
H425 H 0.78306 0.05955 0.44839 0.0
H426 H 0.82956 0.1076 0.36764 0.0
C427 C 0.88691 0.126 0.52878 0.0
C428 C 0.8703 0.38516 1.02836 0.0
C429 C 0.86626 0.37572 0.95159 0.0
H430 H 0.8984 0.36529 0.13456 0.0
C431 C 0.89225 0.33843 0.9244 0.0
H432 H 0.84961 0.41202 0.05284 0.0
C433 C 0.91959 0.31096 0.97153 0.0
C434 C 0.92156 0.31855 0.04897 0.0
H435 H 0.88862 0.32792 0.86704 0.0
H436 H 0.93672 0.28157 0.94753 0.0
C437 C 0.89765 0.35737 0.07593 0.0
C438 C 0.63827 0.39623 0.57659 0.0
C439 C 0.67716 0.42026 0.54962 0.0
H440 H 0.58349 0.34824 0.55336 0.0
C441 C 0.68473 0.41856 0.47213 0.0
H442 H 0.63038 0.39675 0.63528 0.0
C443 C 0.65717 0.39136 0.42489 0.0
C444 C 0.6198 0.36527 0.45204 0.0
H445 H 0.71419 0.4358 0.44814 0.0
H446 H 0.66771 0.38791 0.36745 0.0
C447 C 0.61038 0.36903 0.52891 0.0
C448 C 0.41987 0.81127 0.09917 0.0
C449 C 0.42156 0.81859 1.02162 0.0
H450 H 0.38926 0.82861 0.20394 0.0
C451 C 0.39758 0.85732 0.99458 0.0
H452 H 0.43707 0.78196 0.12324 0.0
C453 C 0.37041 0.88529 0.04225 0.0
C454 C 0.36664 0.87612 0.11918 0.0
H455 H 0.39813 0.86504 0.93585 0.0
H456 H 0.34964 0.91205 1.01776 0.0
C457 C 0.39271 0.83893 0.14641 0.0
C458 C 0.11035 0.86887 0.5427 0.0
C459 C 0.1197 0.86495 0.61951 0.0
H460 H 0.13046 0.89679 0.43632 0.0
C461 C 0.15707 0.89094 0.64659 0.0
H462 H 0.08344 0.84816 0.51832 0.0
C463 C 0.18469 0.91821 0.59931 0.0
C464 C 0.17719 0.92007 0.52185 0.0
H465 H 0.16753 0.88737 0.70397 0.0
H466 H 0.21413 0.93537 0.62323 0.0
C467 C 0.1383 0.89613 0.49497 0.0
C468 C 0.12711 0.60975 0.04287 0.0
C469 C 0.13126 0.61922 0.11961 0.0
H470 H 0.09887 0.62961 0.93675 0.0
C471 C 0.10537 0.65655 0.14686 0.0
H472 H 0.14772 0.58285 1.01834 0.0
C473 C 0.07799 0.68403 0.09982 0.0
C474 C 0.07589 0.6764 1.0224 0.0
H475 H 0.10909 0.66706 0.20421 0.0
H476 H 0.06092 0.71344 0.12386 0.0
C477 C 0.09972 0.63755 0.99537 0.0
C478 C 0.38691 0.62594 0.54238 0.0
C479 C 0.37741 0.62984 0.6192 0.0
H480 H 0.36699 0.59807 0.43607 0.0
C481 C 0.33996 0.60387 0.64636 0.0
H482 H 0.41389 0.64662 0.51793 0.0
C483 C 0.31241 0.57664 0.59916 0.0
C484 C 0.32007 0.5748 0.5217 0.0
H485 H 0.32939 0.60742 0.70377 0.0
H486 H 0.2829 0.5595 0.62315 0.0
C487 C 0.35903 0.59871 0.49474 0.0
C488 C 0.41032 0.15681 0.22926 0.0
C489 C 0.4271 0.17876 0.29314 0.0
H490 H 0.36557 0.10518 0.18606 0.0
C491 C 0.40308 0.17403 0.36027 0.0
H492 H 0.42858 0.15987 0.17689 0.0
C493 C 0.36647 0.14292 0.36547 0.0
C494 C 0.35441 0.11543 0.30397 0.0
H495 H 0.41576 0.19025 0.41036 0.0
H496 H 0.35211 0.13609 0.41998 0.0
C497 C 0.37415 0.1255 0.2345 0.0
C498 C 0.83935 0.90935 0.7305 0.0
C499 C 0.8175 0.92651 0.79431 0.0
H500 H 0.89065 0.86414 0.68746 0.0
C501 C 0.8221 0.90287 0.86169 0.0
H502 H 0.83638 0.9273 0.67795 0.0
C503 C 0.85298 0.86618 0.86711 0.0
C504 C 0.88035 0.85363 0.80555 0.0
H505 H 0.80596 0.91585 0.91173 0.0
H506 H 0.85975 0.85208 0.92173 0.0
C507 C 0.8704 0.87307 0.73594 0.0
C508 C 0.12363 0.36986 0.23399 0.0
C509 C 0.14315 0.37974 0.30354 0.0
H510 H 0.0694 0.33565 0.17611 0.0
C511 C 0.13087 0.3521 0.36489 0.0
H512 H 0.13239 0.3903 0.18566 0.0
C513 C 0.09428 0.32099 0.35947 0.0
C514 C 0.07048 0.31643 0.29227 0.0
H515 H 0.14507 0.35879 0.41945 0.0
H516 H 0.08144 0.30464 0.40947 0.0
C517 C 0.08747 0.33857 0.22853 0.0
C518 C 0.64393 0.62855 0.86585 0.0
C519 C 0.6166 0.64095 0.8043 0.0
H520 H 0.69086 0.57897 0.91075 0.0
C521 C 0.62658 0.6213 0.73484 0.0
H522 H 0.63714 0.64283 0.92035 0.0
C523 C 0.65759 0.58498 0.72962 0.0
C524 C 0.67937 0.56797 0.7935 0.0
H525 H 0.60638 0.63014 0.68638 0.0
H526 H 0.66057 0.56688 0.67722 0.0
C527 C 0.67476 0.59182 0.86065 0.0
C528 C 0.62308 0.86947 0.83715 0.0
C529 C 0.64284 0.87951 0.76769 0.0
H530 H 0.56867 0.83506 0.89474 0.0
C531 C 0.63086 0.85195 0.70622 0.0
H532 H 0.63161 0.88982 0.88556 0.0
C533 C 0.59429 0.8208 0.71143 0.0
C534 C 0.57023 0.81609 0.77852 0.0
H535 H 0.64526 0.85876 0.65173 0.0
H536 H 0.58166 0.80454 0.66133 0.0
C537 C 0.58695 0.8381 0.84239 0.0
C538 C 0.17506 0.09192 0.21004 0.0
C539 C 0.17964 0.06822 0.27737 0.0
H540 H 0.13742 0.14272 0.15003 0.0
C541 C 0.1577 0.08531 0.34117 0.0
H542 H 0.19127 0.079 0.16001 0.0
C543 C 0.12661 0.12156 0.33575 0.0
C544 C 0.11671 0.14105 0.26615 0.0
H545 H 0.16064 0.06732 0.3937 0.0
H546 H 0.10632 0.13044 0.3842 0.0
C547 C 0.14416 0.12858 0.20463 0.0
C548 C 0.90288 0.67395 0.71213 0.0
C549 C 0.92676 0.67848 0.77926 0.0
H550 H 0.85207 0.63617 0.65221 0.0
C551 C 0.90986 0.65628 0.843 0.0
H552 H 0.91566 0.69035 0.66213 0.0
C553 C 0.87372 0.62495 0.8376 0.0
C554 C 0.85413 0.61511 0.76808 0.0
H555 H 0.92799 0.65918 0.89537 0.0
H556 H 0.86504 0.60448 0.88591 0.0
C557 C 0.86631 0.64283 0.70675 0.0
C558 C 0.37077 0.37358 0.3367 0.0
C559 C 0.38071 0.35388 0.26727 0.0
H560 H 0.33677 0.42803 0.39424 0.0
C561 C 0.35332 0.36618 0.20574 0.0
H562 H 0.39101 0.36481 0.38514 0.0
C563 C 0.32247 0.4029 0.2109 0.0
C564 C 0.31789 0.42682 0.27799 0.0
H565 H 0.36008 0.35185 0.15127 0.0
H566 H 0.30633 0.41569 0.1608 0.0
C567 C 0.33973 0.40988 0.34188 0.0
loop_
_geom_bond_atom_site_label_1
_geom_bond_atom_site_label_2
_geom_bond_distance
_geom_bond_site_symmetry_2
_ccdc_geom_bond_type
C0 O12 1.241 . S
C0 O13 1.280 . S
C1 O14 1.277 . S
C1 O15 1.245 . S
C2 O26 1.247 . S
C2 O28 1.289 . S
Mg3 O4 1.926 . S
Mg3 O13 1.984 . S
Mg3 O15 1.988 . S
Mg3 O16 2.061 . S
O4 Mg3 1.926 . S
O4 Mg5 1.986 . S
O4 Mg6 1.917 . S
Mg5 O4 1.986 . S
Mg5 O12 2.042 . S
Mg5 O14 2.041 . S
Mg5 O20 2.038 . S
Mg5 O28 2.238 . S
Mg6 O4 1.917 . S
Mg6 O7 1.917 . S
Mg6 O17 2.106 . S
Mg6 O19 2.079 . S
Mg6 O28 2.106 . S
Mg6 O29 2.079 . S
O7 Mg6 1.917 . S
O7 Mg8 1.926 . S
O7 Mg9 1.986 . S
Mg8 O7 1.926 . S
Mg8 O22 1.984 . S
Mg8 O25 1.988 . S
Mg8 O26 2.061 . S
Mg9 O7 1.986 . S
Mg9 O17 2.238 . S
Mg9 O21 2.042 . S
Mg9 O23 2.041 . S
Mg9 O30 2.038 . S
C10 O16 1.247 . S
C10 O17 1.289 . S
C11 O29 1.245 . S
C11 O30 1.274 . S
O12 C0 1.241 . S
O12 Mg5 2.042 . S
O13 C0 1.280 . S
O13 Mg3 1.984 . S
O14 C1 1.277 . S
O14 Mg5 2.041 . S
O15 C1 1.245 . S
O15 Mg3 1.988 . S
O16 Mg3 2.061 . S
O16 C10 1.247 . S
O17 Mg6 2.106 . S
O17 Mg9 2.238 . S
O17 C10 1.289 . S
C18 O19 1.245 . S
C18 O20 1.274 . S
O19 Mg6 2.079 . S
O19 C18 1.245 . S
O20 Mg5 2.038 . S
O20 C18 1.274 . S
O21 Mg9 2.042 . S
O21 C24 1.241 . S
O22 Mg8 1.984 . S
O22 C24 1.280 . S
O23 Mg9 2.041 . S
O23 C27 1.277 . S
C24 O21 1.241 . S
C24 O22 1.280 . S
O25 Mg8 1.988 . S
O25 C27 1.245 . S
O26 C2 1.247 . S
O26 Mg8 2.061 . S
C27 O23 1.277 . S
C27 O25 1.245 . S
O28 C2 1.289 . S
O28 Mg5 2.238 . S
O28 Mg6 2.106 . S
O29 Mg6 2.079 . S
O29 C11 1.245 . S
O30 Mg9 2.038 . S
O30 C11 1.274 . S
C31 O43 1.241 1_565 S
C31 O44 1.280 . S
C32 O45 1.277 . S
C32 O46 1.245 . S
C33 O57 1.247 . S
C33 O59 1.289 . S
Mg34 O35 1.926 1_565 S
Mg34 O44 1.984 . S
Mg34 O46 1.988 . S
Mg34 O47 2.061 . S
O35 Mg34 1.926 1_545 S
O35 Mg36 1.986 . S
O35 Mg37 1.917 . S
Mg36 O35 1.986 . S
Mg36 O43 2.042 . S
Mg36 O45 2.041 1_545 S
Mg36 O51 2.038 . S
Mg36 O59 2.238 . S
Mg37 O35 1.917 . S
Mg37 O38 1.917 . S
Mg37 O48 2.106 . S
Mg37 O50 2.079 . S
Mg37 O59 2.106 . S
Mg37 O60 2.064 1_545 S
O38 Mg37 1.917 . S
O38 Mg39 1.926 . S
O38 Mg40 1.986 . S
Mg39 O38 1.926 . S
Mg39 O53 1.984 . S
Mg39 O56 1.988 . S
Mg39 O57 2.061 . S
Mg40 O38 1.986 . S
Mg40 O48 2.238 . S
Mg40 O52 2.042 . S
Mg40 O54 2.041 . S
Mg40 O61 2.038 . S
C41 O47 1.247 1_545 S
C41 O48 1.289 . S
C42 O60 1.247 . S
C42 O61 1.274 1_565 S
O43 C31 1.241 1_545 S
O43 Mg36 2.042 . S
O44 C31 1.280 . S
O44 Mg34 1.984 . S
O45 C32 1.277 . S
O45 Mg36 2.041 1_565 S
O46 C32 1.245 . S
O46 Mg34 1.988 . S
O47 Mg34 2.061 . S
O47 C41 1.247 1_565 S
O48 Mg37 2.106 . S
O48 Mg40 2.238 . S
O48 C41 1.289 . S
C49 O50 1.245 . S
C49 O51 1.274 . S
O50 Mg37 2.079 . S
O50 C49 1.245 . S
O51 Mg36 2.038 . S
O51 C49 1.274 . S
O52 Mg40 2.042 . S
O52 C55 1.241 . S
O53 Mg39 1.984 . S
O53 C55 1.280 . S
O54 Mg40 2.041 . S
O54 C58 1.277 . S
C55 O52 1.241 . S
C55 O53 1.280 . S
O56 Mg39 1.988 . S
O56 C58 1.245 . S
O57 C33 1.247 . S
O57 Mg39 2.061 . S
C58 O54 1.277 . S
C58 O56 1.245 . S
O59 C33 1.289 . S
O59 Mg36 2.238 . S
O59 Mg37 2.106 . S
O60 Mg37 2.064 1_565 S
O60 C42 1.247 . S
O61 Mg40 2.038 . S
O61 C42 1.274 1_545 S
C62 O74 1.241 1_455 S
C62 O75 1.280 . S
C63 O76 1.277 . S
C63 O77 1.245 . S
C64 O88 1.247 . S
C64 O90 1.289 . S
Mg65 O66 1.926 1_455 S
Mg65 O75 1.984 . S
Mg65 O77 1.988 . S
Mg65 O78 2.061 . S
O66 Mg65 1.926 1_655 S
O66 Mg67 1.986 . S
O66 Mg68 1.917 . S
Mg67 O66 1.986 . S
Mg67 O74 2.042 . S
Mg67 O76 2.041 1_655 S
Mg67 O82 2.038 . S
Mg67 O90 2.238 . S
Mg68 O66 1.917 . S
Mg68 O69 1.917 . S
Mg68 O79 2.106 . S
Mg68 O81 2.079 . S
Mg68 O90 2.106 . S
Mg68 O91 2.064 1_655 S
O69 Mg68 1.917 . S
O69 Mg70 1.926 . S
O69 Mg71 1.986 . S
Mg70 O69 1.926 . S
Mg70 O84 1.984 . S
Mg70 O87 1.988 . S
Mg70 O88 2.061 . S
Mg71 O69 1.986 . S
Mg71 O79 2.238 . S
Mg71 O83 2.042 . S
Mg71 O85 2.041 . S
Mg71 O92 2.038 . S
C72 O78 1.247 1_655 S
C72 O79 1.289 . S
C73 O91 1.247 . S
C73 O92 1.274 1_455 S
O74 C62 1.241 1_655 S
O74 Mg67 2.042 . S
O75 C62 1.280 . S
O75 Mg65 1.984 . S
O76 C63 1.277 . S
O76 Mg67 2.041 1_455 S
O77 C63 1.245 . S
O77 Mg65 1.988 . S
O78 Mg65 2.061 . S
O78 C72 1.247 1_455 S
O79 Mg68 2.106 . S
O79 Mg71 2.238 . S
O79 C72 1.289 . S
C80 O81 1.245 . S
C80 O82 1.274 . S
O81 Mg68 2.079 . S
O81 C80 1.245 . S
O82 Mg67 2.038 . S
O82 C80 1.274 . S
O83 Mg71 2.042 . S
O83 C86 1.241 . S
O84 Mg70 1.984 . S
O84 C86 1.280 . S
O85 Mg71 2.041 . S
O85 C89 1.277 . S
C86 O83 1.241 . S
C86 O84 1.280 . S
O87 Mg70 1.988 . S
O87 C89 1.245 . S
O88 C64 1.247 . S
O88 Mg70 2.061 . S
C89 O85 1.277 . S
C89 O87 1.245 . S
O90 C64 1.289 . S
O90 Mg67 2.238 . S
O90 Mg68 2.106 . S
O91 Mg68 2.064 1_455 S
O91 C73 1.247 . S
O92 Mg71 2.038 . S
O92 C73 1.274 1_655 S
C93 O105 1.241 . S
C93 O106 1.280 . S
C94 O107 1.277 . S
C94 O108 1.245 . S
C95 O119 1.247 . S
C95 O121 1.289 . S
Mg96 O97 1.926 . S
Mg96 O106 1.984 . S
Mg96 O108 1.988 . S
Mg96 O109 2.061 . S
O97 Mg96 1.926 . S
O97 Mg98 1.986 . S
O97 Mg99 1.917 . S
Mg98 O97 1.986 . S
Mg98 O105 2.042 . S
Mg98 O107 2.041 . S
Mg98 O113 2.038 . S
Mg98 O121 2.238 . S
Mg99 O97 1.917 . S
Mg99 O100 1.917 . S
Mg99 O110 2.106 . S
Mg99 O112 2.079 . S
Mg99 O121 2.106 . S
Mg99 O122 2.079 . S
O100 Mg99 1.917 . S
O100 Mg101 1.926 . S
O100 Mg102 1.986 . S
Mg101 O100 1.926 . S
Mg101 O115 1.984 . S
Mg101 O118 1.988 . S
Mg101 O119 2.061 . S
Mg102 O100 1.986 . S
Mg102 O110 2.238 . S
Mg102 O114 2.042 . S
Mg102 O116 2.041 . S
Mg102 O123 2.038 . S
C103 O109 1.247 . S
C103 O110 1.289 . S
C104 O122 1.245 . S
C104 O123 1.274 . S
O105 C93 1.241 . S
O105 Mg98 2.042 . S
O106 C93 1.280 . S
O106 Mg96 1.984 . S
O107 C94 1.277 . S
O107 Mg98 2.041 . S
O108 C94 1.245 . S
O108 Mg96 1.988 . S
O109 Mg96 2.061 . S
O109 C103 1.247 . S
O110 Mg99 2.106 . S
O110 Mg102 2.238 . S
O110 C103 1.289 . S
C111 O112 1.245 . S
C111 O113 1.274 . S
O112 Mg99 2.079 . S
O112 C111 1.245 . S
O113 Mg98 2.038 . S
O113 C111 1.274 . S
O114 Mg102 2.042 . S
O114 C117 1.241 . S
O115 Mg101 1.984 . S
O115 C117 1.280 . S
O116 Mg102 2.041 . S
O116 C120 1.277 . S
C117 O114 1.241 . S
C117 O115 1.280 . S
O118 Mg101 1.988 . S
O118 C120 1.245 . S
O119 C95 1.247 . S
O119 Mg101 2.061 . S
C120 O116 1.277 . S
C120 O118 1.245 . S
O121 C95 1.289 . S
O121 Mg98 2.238 . S
O121 Mg99 2.106 . S
O122 Mg99 2.079 . S
O122 C104 1.245 . S
O123 Mg102 2.038 . S
O123 C104 1.274 . S
C124 O136 1.241 . S
C124 O137 1.280 . S
C125 O138 1.277 . S
C125 O139 1.245 . S
C126 O150 1.247 . S
C126 O152 1.289 . S
Mg127 O128 1.926 . S
Mg127 O137 1.984 . S
Mg127 O139 1.988 . S
Mg127 O140 2.061 . S
O128 Mg127 1.926 . S
O128 Mg129 1.986 . S
O128 Mg130 1.917 . S
Mg129 O128 1.986 . S
Mg129 O136 2.042 . S
Mg129 O138 2.041 . S
Mg129 O144 2.038 . S
Mg129 O152 2.238 . S
Mg130 O128 1.917 . S
Mg130 O131 1.917 . S
Mg130 O141 2.106 . S
Mg130 O143 2.079 . S
Mg130 O152 2.106 . S
Mg130 O153 2.079 . S
O131 Mg130 1.917 . S
O131 Mg132 1.926 . S
O131 Mg133 1.986 . S
Mg132 O131 1.926 . S
Mg132 O146 1.984 . S
Mg132 O149 1.988 . S
Mg132 O150 2.061 . S
Mg133 O131 1.986 . S
Mg133 O141 2.238 . S
Mg133 O145 2.042 . S
Mg133 O147 2.041 . S
Mg133 O154 2.038 . S
C134 O140 1.247 . S
C134 O141 1.289 . S
C135 O153 1.245 . S
C135 O154 1.274 . S
O136 C124 1.241 . S
O136 Mg129 2.042 . S
O137 C124 1.280 . S
O137 Mg127 1.984 . S
O138 C125 1.277 . S
O138 Mg129 2.041 . S
O139 C125 1.245 . S
O139 Mg127 1.988 . S
O140 Mg127 2.061 . S
O140 C134 1.247 . S
O141 Mg130 2.106 . S
O141 Mg133 2.238 . S
O141 C134 1.289 . S
C142 O143 1.245 . S
C142 O144 1.274 . S
O143 Mg130 2.079 . S
O143 C142 1.245 . S
O144 Mg129 2.038 . S
O144 C142 1.274 . S
O145 Mg133 2.042 . S
O145 C148 1.241 . S
O146 Mg132 1.984 . S
O146 C148 1.280 . S
O147 Mg133 2.041 . S
O147 C151 1.277 . S
C148 O145 1.241 . S
C148 O146 1.280 . S
O149 Mg132 1.988 . S
O149 C151 1.245 . S
O150 C126 1.247 . S
O150 Mg132 2.061 . S
C151 O147 1.277 . S
C151 O149 1.245 . S
O152 C126 1.289 . S
O152 Mg129 2.238 . S
O152 Mg130 2.106 . S
O153 Mg130 2.079 . S
O153 C135 1.245 . S
O154 Mg133 2.038 . S
O154 C135 1.274 . S
C155 O167 1.241 . S
C155 O168 1.280 . S
C156 O169 1.277 . S
C156 O170 1.245 . S
C157 O181 1.247 1_565 S
C157 O183 1.289 . S
Mg158 O159 1.926 . S
Mg158 O168 1.984 . S
Mg158 O170 1.988 . S
Mg158 O171 2.061 . S
O159 Mg158 1.926 . S
O159 Mg160 1.986 . S
O159 Mg161 1.917 . S
Mg160 O159 1.986 . S
Mg160 O167 2.042 . S
Mg160 O169 2.041 . S
Mg160 O175 2.038 . S
Mg160 O183 2.238 . S
Mg161 O159 1.917 . S
Mg161 O162 1.917 . S
Mg161 O172 2.106 . S
Mg161 O174 2.064 1_565 S
Mg161 O183 2.106 . S
Mg161 O184 2.079 . S
O162 Mg161 1.917 . S
O162 Mg163 1.926 1_565 S
O162 Mg164 1.986 . S
Mg163 O162 1.926 1_545 S
Mg163 O177 1.984 . S
Mg163 O180 1.988 . S
Mg163 O181 2.061 . S
Mg164 O162 1.986 . S
Mg164 O172 2.238 . S
Mg164 O176 2.042 . S
Mg164 O178 2.041 1_565 S
Mg164 O185 2.038 . S
C165 O171 1.247 . S
C165 O172 1.289 . S
C166 O184 1.245 . S
C166 O185 1.274 . S
O167 C155 1.241 . S
O167 Mg160 2.042 . S
O168 C155 1.280 . S
O168 Mg158 1.984 . S
O169 C156 1.277 . S
O169 Mg160 2.041 . S
O170 C156 1.245 . S
O170 Mg158 1.988 . S
O171 Mg158 2.061 . S
O171 C165 1.247 . S
O172 Mg161 2.106 . S
O172 Mg164 2.238 . S
O172 C165 1.289 . S
C173 O174 1.247 . S
C173 O175 1.274 1_545 S
O174 Mg161 2.064 1_545 S
O174 C173 1.247 . S
O175 Mg160 2.038 . S
O175 C173 1.274 1_565 S
O176 Mg164 2.042 . S
O176 C179 1.241 1_565 S
O177 Mg163 1.984 . S
O177 C179 1.280 . S
O178 Mg164 2.041 1_545 S
O178 C182 1.277 . S
C179 O176 1.241 1_545 S
C179 O177 1.280 . S
O180 Mg163 1.988 . S
O180 C182 1.245 . S
O181 C157 1.247 1_545 S
O181 Mg163 2.061 . S
C182 O178 1.277 . S
C182 O180 1.245 . S
O183 C157 1.289 . S
O183 Mg160 2.238 . S
O183 Mg161 2.106 . S
O184 Mg161 2.079 . S
O184 C166 1.245 . S
O185 Mg164 2.038 . S
O185 C166 1.274 . S
C186 O198 1.241 . S
C186 O199 1.280 . S
C187 O200 1.277 . S
C187 O201 1.245 . S
C188 O212 1.247 1_455 S
C188 O214 1.289 . S
Mg189 O190 1.926 . S
Mg189 O199 1.984 . S
Mg189 O201 1.988 . S
Mg189 O202 2.061 . S
O190 Mg189 1.926 . S
O190 Mg191 1.986 . S
O190 Mg192 1.917 . S
Mg191 O190 1.986 . S
Mg191 O198 2.042 . S
Mg191 O200 2.041 . S
Mg191 O206 2.038 . S
Mg191 O214 2.238 . S
Mg192 O190 1.917 . S
Mg192 O193 1.917 . S
Mg192 O203 2.106 . S
Mg192 O205 2.064 1_455 S
Mg192 O214 2.106 . S
Mg192 O215 2.079 . S
O193 Mg192 1.917 . S
O193 Mg194 1.926 1_455 S
O193 Mg195 1.986 . S
Mg194 O193 1.926 1_655 S
Mg194 O208 1.984 . S
Mg194 O211 1.988 . S
Mg194 O212 2.061 . S
Mg195 O193 1.986 . S
Mg195 O203 2.238 . S
Mg195 O207 2.042 . S
Mg195 O209 2.041 1_455 S
Mg195 O216 2.038 . S
C196 O202 1.247 . S
C196 O203 1.289 . S
C197 O215 1.245 . S
C197 O216 1.274 . S
O198 C186 1.241 . S
O198 Mg191 2.042 . S
O199 C186 1.280 . S
O199 Mg189 1.984 . S
O200 C187 1.277 . S
O200 Mg191 2.041 . S
O201 C187 1.245 . S
O201 Mg189 1.988 . S
O202 Mg189 2.061 . S
O202 C196 1.247 . S
O203 Mg192 2.106 . S
O203 Mg195 2.238 . S
O203 C196 1.289 . S
C204 O205 1.247 . S
C204 O206 1.274 1_655 S
O205 Mg192 2.064 1_655 S
O205 C204 1.247 . S
O206 Mg191 2.038 . S
O206 C204 1.274 1_455 S
O207 Mg195 2.042 . S
O207 C210 1.241 1_455 S
O208 Mg194 1.984 . S
O208 C210 1.280 . S
O209 Mg195 2.041 1_655 S
O209 C213 1.277 . S
C210 O207 1.241 1_655 S
C210 O208 1.280 . S
O211 Mg194 1.988 . S
O211 C213 1.245 . S
O212 C188 1.247 1_655 S
O212 Mg194 2.061 . S
C213 O209 1.277 . S
C213 O211 1.245 . S
O214 C188 1.289 . S
O214 Mg191 2.238 . S
O214 Mg192 2.106 . S
O215 Mg192 2.079 . S
O215 C197 1.245 . S
O216 Mg195 2.038 . S
O216 C197 1.274 . S
C217 O229 1.241 . S
C217 O230 1.280 . S
C218 O231 1.277 . S
C218 O232 1.245 . S
C219 O243 1.247 . S
C219 O245 1.289 . S
Mg220 O221 1.926 . S
Mg220 O230 1.984 . S
Mg220 O232 1.988 . S
Mg220 O233 2.061 . S
O221 Mg220 1.926 . S
O221 Mg222 1.986 . S
O221 Mg223 1.917 . S
Mg222 O221 1.986 . S
Mg222 O229 2.042 . S
Mg222 O231 2.041 . S
Mg222 O237 2.038 . S
Mg222 O245 2.238 . S
Mg223 O221 1.917 . S
Mg223 O224 1.917 . S
Mg223 O234 2.106 . S
Mg223 O236 2.079 . S
Mg223 O245 2.106 . S
Mg223 O246 2.079 . S
O224 Mg223 1.917 . S
O224 Mg225 1.926 . S
O224 Mg226 1.986 . S
Mg225 O224 1.926 . S
Mg225 O239 1.984 . S
Mg225 O242 1.988 . S
Mg225 O243 2.061 . S
Mg226 O224 1.986 . S
Mg226 O234 2.238 . S
Mg226 O238 2.042 . S
Mg226 O240 2.041 . S
Mg226 O247 2.038 . S
C227 O233 1.247 . S
C227 O234 1.289 . S
C228 O246 1.245 . S
C228 O247 1.274 . S
O229 C217 1.241 . S
O229 Mg222 2.042 . S
O230 C217 1.280 . S
O230 Mg220 1.984 . S
O231 C218 1.277 . S
O231 Mg222 2.041 . S
O232 C218 1.245 . S
O232 Mg220 1.988 . S
O233 Mg220 2.061 . S
O233 C227 1.247 . S
O234 Mg223 2.106 . S
O234 Mg226 2.238 . S
O234 C227 1.289 . S
C235 O236 1.245 . S
C235 O237 1.274 . S
O236 Mg223 2.079 . S
O236 C235 1.245 . S
O237 Mg222 2.038 . S
O237 C235 1.274 . S
O238 Mg226 2.042 . S
O238 C241 1.241 . S
O239 Mg225 1.984 . S
O239 C241 1.280 . S
O240 Mg226 2.041 . S
O240 C244 1.277 . S
C241 O238 1.241 . S
C241 O239 1.280 . S
O242 Mg225 1.988 . S
O242 C244 1.245 . S
O243 C219 1.247 . S
O243 Mg225 2.061 . S
C244 O240 1.277 . S
C244 O242 1.245 . S
O245 C219 1.289 . S
O245 Mg222 2.238 . S
O245 Mg223 2.106 . S
O246 Mg223 2.079 . S
O246 C228 1.245 . S
O247 Mg226 2.038 . S
O247 C228 1.274 . S
C248 C249 1.387 . S
C248 H252 0.950 . S
C248 C257 1.390 . S
C249 C248 1.387 . S
C249 C251 1.387 . S
H250 C257 0.950 . S
C251 C249 1.387 . S
C251 C253 1.390 . S
C251 H255 0.950 . S
H252 C248 0.950 . S
C253 C251 1.390 . S
C253 C254 1.387 . S
C253 H256 0.950 . S
C254 C253 1.387 . S
C254 C257 1.387 . S
H255 C251 0.950 . S
H256 C253 0.950 . S
C257 C248 1.390 . S
C257 H250 0.950 . S
C257 C254 1.387 . S
C258 C259 1.387 . S
C258 H262 0.950 . S
C258 C267 1.390 1_556 S
C259 C258 1.387 . S
C259 C261 1.387 . S
H260 C267 0.950 . S
C261 C259 1.387 . S
C261 C263 1.390 1_556 S
C261 H265 0.950 . S
H262 C258 0.950 . S
C263 C261 1.390 1_554 S
C263 C264 1.387 . S
C263 H266 0.950 . S
C264 C263 1.387 . S
C264 C267 1.387 . S
H265 C261 0.950 . S
H266 C263 0.950 . S
C267 C258 1.390 1_554 S
C267 H260 0.950 . S
C267 C264 1.387 . S
C268 C269 1.387 . S
C268 H272 0.950 . S
C268 C277 1.390 . S
C269 C268 1.387 . S
C269 C271 1.387 . S
H270 C277 0.950 . S
C271 C269 1.387 . S
C271 C273 1.390 . S
C271 H275 0.950 . S
H272 C268 0.950 . S
C273 C271 1.390 . S
C273 C274 1.387 . S
C273 H276 0.950 . S
C274 C273 1.387 . S
C274 C277 1.387 . S
H275 C271 0.950 . S
H276 C273 0.950 . S
C277 C268 1.390 . S
C277 H270 0.950 . S
C277 C274 1.387 . S
C278 C279 1.387 . S
C278 H282 0.950 . S
C278 C287 1.390 1_554 S
C279 C278 1.387 . S
C279 C281 1.387 . S
H280 C287 0.950 . S
C281 C279 1.387 . S
C281 C283 1.390 1_554 S
C281 H285 0.950 . S
H282 C278 0.950 . S
C283 C281 1.390 1_556 S
C283 C284 1.387 . S
C283 H286 0.950 . S
C284 C283 1.387 . S
C284 C287 1.387 . S
H285 C281 0.950 . S
H286 C283 0.950 . S
C287 C278 1.390 1_556 S
C287 H280 0.950 . S
C287 C284 1.387 . S
C288 C289 1.387 . S
C288 H292 0.950 . S
C288 C297 1.390 . S
C289 C288 1.387 . S
C289 C291 1.387 . S
H290 C297 0.950 . S
C291 C289 1.387 . S
C291 C293 1.390 . S
C291 H295 0.950 . S
H292 C288 0.950 . S
C293 C291 1.390 . S
C293 C294 1.387 . S
C293 H296 0.950 . S
C294 C293 1.387 . S
C294 C297 1.387 . S
H295 C291 0.950 . S
H296 C293 0.950 . S
C297 C288 1.390 . S
C297 H290 0.950 . S
C297 C294 1.387 . S
C298 C299 1.387 . S
C298 H302 0.950 . S
C298 C307 1.390 1_554 S
C299 C298 1.387 . S
C299 C301 1.387 . S
H300 C307 0.950 . S
C301 C299 1.387 . S
C301 C303 1.390 1_554 S
C301 H305 0.950 . S
H302 C298 0.950 . S
C303 C301 1.390 1_556 S
C303 C304 1.387 . S
C303 H306 0.950 . S
C304 C303 1.387 . S
C304 C307 1.387 . S
H305 C301 0.950 . S
H306 C303 0.950 . S
C307 C298 1.390 1_556 S
C307 H300 0.950 . S
C307 C304 1.387 . S
C308 C309 1.387 . S
C308 H312 0.950 . S
C308 C317 1.390 . S
C309 C308 1.387 . S
C309 C311 1.387 . S
H310 C317 0.950 . S
C311 C309 1.387 . S
C311 C313 1.390 . S
C311 H315 0.950 . S
H312 C308 0.950 . S
C313 C311 1.390 . S
C313 C314 1.387 . S
C313 H316 0.950 . S
C314 C313 1.387 . S
C314 C317 1.387 . S
H315 C311 0.950 . S
H316 C313 0.950 . S
C317 C308 1.390 . S
C317 H310 0.950 . S
C317 C314 1.387 . S
C318 C319 1.387 . S
C318 H322 0.950 . S
C318 C327 1.390 1_554 S
C319 C318 1.387 . S
C319 C321 1.387 . S
H320 C327 0.950 . S
C321 C319 1.387 . S
C321 C323 1.390 1_554 S
C321 H325 0.950 . S
H322 C318 0.950 . S
C323 C321 1.390 1_556 S
C323 C324 1.387 . S
C323 H326 0.950 . S
C324 C323 1.387 . S
C324 C327 1.387 . S
H325 C321 0.950 . S
H326 C323 0.950 . S
C327 C318 1.390 1_556 S
C327 H320 0.950 . S
C327 C324 1.387 . S
C328 C329 1.387 . S
C328 H332 0.950 . S
C328 C337 1.390 . S
C329 C328 1.387 . S
C329 C331 1.387 1_556 S
H330 C337 0.950 . S
C331 C329 1.387 1_554 S
C331 C333 1.390 . S
C331 H335 0.950 . S
H332 C328 0.950 . S
C333 C331 1.390 . S
C333 C334 1.387 . S
C333 H336 0.950 . S
C334 C333 1.387 . S
C334 C337 1.387 1_554 S
H335 C331 0.950 . S
H336 C333 0.950 . S
C337 C328 1.390 . S
C337 H330 0.950 . S
C337 C334 1.387 1_556 S
C338 C339 1.387 1_545 S
C338 H342 0.950 . S
C338 C347 1.390 . S
C339 C338 1.387 1_565 S
C339 C341 1.387 . S
H340 C347 0.950 . S
C341 C339 1.387 . S
C341 C343 1.390 . S
C341 H345 0.950 . S
H342 C338 0.950 . S
C343 C341 1.390 . S
C343 C344 1.387 1_565 S
C343 H346 0.950 . S
C344 C343 1.387 1_545 S
C344 C347 1.387 . S
H345 C341 0.950 . S
H346 C343 0.950 . S
C347 C338 1.390 . S
C347 H340 0.950 . S
C347 C344 1.387 . S
C348 C349 1.387 . S
C348 H352 0.950 . S
C348 C357 1.390 1_545 S
C349 C348 1.387 . S
C349 C351 1.387 1_456 S
H350 C357 0.950 . S
C351 C349 1.387 1_654 S
C351 C353 1.390 1_545 S
C351 H355 0.950 . S
H352 C348 0.950 . S
C353 C351 1.390 1_565 S
C353 C354 1.387 . S
C353 H356 0.950 . S
C354 C353 1.387 . S
C354 C357 1.387 1_654 S
H355 C351 0.950 . S
H356 C353 0.950 . S
C357 C348 1.390 1_565 S
C357 H350 0.950 . S
C357 C354 1.387 1_456 S
C358 C359 1.387 . S
C358 H362 0.950 . S
C358 C367 1.390 1_655 S
C359 C358 1.387 . S
C359 C361 1.387 . S
H360 C367 0.950 . S
C361 C359 1.387 . S
C361 C363 1.390 1_655 S
C361 H365 0.950 . S
H362 C358 0.950 . S
C363 C361 1.390 1_455 S
C363 C364 1.387 . S
C363 H366 0.950 . S
C364 C363 1.387 . S
C364 C367 1.387 . S
H365 C361 0.950 . S
H366 C363 0.950 . S
C367 C358 1.390 1_455 S
C367 H360 0.950 . S
C367 C364 1.387 . S
C368 C369 1.387 . S
C368 H372 0.950 . S
C368 C377 1.390 . S
C369 C368 1.387 . S
C369 C371 1.387 . S
H370 C377 0.950 . S
C371 C369 1.387 . S
C371 C373 1.390 . S
C371 H375 0.950 . S
H372 C368 0.950 . S
C373 C371 1.390 . S
C373 C374 1.387 . S
C373 H376 0.950 . S
C374 C373 1.387 . S
C374 C377 1.387 . S
H375 C371 0.950 . S
H376 C373 0.950 . S
C377 C368 1.390 . S
C377 H370 0.950 . S
C377 C374 1.387 . S
C378 C379 1.387 . S
C378 H382 0.950 . S
C378 C387 1.390 . S
C379 C378 1.387 . S
C379 C381 1.387 . S
H380 C387 0.950 . S
C381 C379 1.387 . S
C381 C383 1.390 . S
C381 H385 0.950 . S
H382 C378 0.950 . S
C383 C381 1.390 . S
C383 C384 1.387 . S
C383 H386 0.950 . S
C384 C383 1.387 . S
C384 C387 1.387 . S
H385 C381 0.950 . S
H386 C383 0.950 . S
C387 C378 1.390 . S
C387 H380 0.950 . S
C387 C384 1.387 . S
C388 C389 1.387 . S
C388 H392 0.950 . S
C388 C397 1.390 . S
C389 C388 1.387 . S
C389 C391 1.387 . S
H390 C397 0.950 . S
C391 C389 1.387 . S
C391 C393 1.390 . S
C391 H395 0.950 . S
H392 C388 0.950 . S
C393 C391 1.390 . S
C393 C394 1.387 . S
C393 H396 0.950 . S
C394 C393 1.387 . S
C394 C397 1.387 . S
H395 C391 0.950 . S
H396 C393 0.950 . S
C397 C388 1.390 . S
C397 H390 0.950 . S
C397 C394 1.387 . S
C398 C399 1.387 . S
C398 H402 0.950 . S
C398 C407 1.390 . S
C399 C398 1.387 . S
C399 C401 1.387 . S
H400 C407 0.950 . S
C401 C399 1.387 . S
C401 C403 1.390 . S
C401 H405 0.950 . S
H402 C398 0.950 . S
C403 C401 1.390 . S
C403 C404 1.387 . S
C403 H406 0.950 . S
C404 C403 1.387 . S
C404 C407 1.387 . S
H405 C401 0.950 . S
H406 C403 0.950 . S
C407 C398 1.390 . S
C407 H400 0.950 . S
C407 C404 1.387 . S
C408 C409 1.387 . S
C408 H412 0.950 . S
C408 C417 1.390 . S
C409 C408 1.387 . S
C409 C411 1.387 . S
H410 C417 0.950 . S
C411 C409 1.387 . S
C411 C413 1.390 . S
C411 H415 0.950 1_556 S
H412 C408 0.950 . S
C413 C411 1.390 . S
C413 C414 1.387 . S
C413 H416 0.950 . S
C414 C413 1.387 . S
C414 C417 1.387 . S
H415 C411 0.950 1_554 S
H416 C413 0.950 . S
C417 C408 1.390 . S
C417 H410 0.950 . S
C417 C414 1.387 . S
C418 C419 1.387 . S
C418 H422 0.950 . S
C418 C427 1.390 . S
C419 C418 1.387 . S
C419 C421 1.387 . S
H420 C427 0.950 . S
C421 C419 1.387 . S
C421 C423 1.390 . S
C421 H425 0.950 . S
H422 C418 0.950 . S
C423 C421 1.390 . S
C423 C424 1.387 . S
C423 H426 0.950 . S
C424 C423 1.387 . S
C424 C427 1.387 . S
H425 C421 0.950 . S
H426 C423 0.950 . S
C427 C418 1.390 . S
C427 H420 0.950 . S
C427 C424 1.387 . S
C428 C429 1.387 . S
C428 H432 0.950 . S
C428 C437 1.390 . S
C429 C428 1.387 . S
C429 C431 1.387 . S
H430 C437 0.950 1_554 S
C431 C429 1.387 . S
C431 C433 1.390 . S
C431 H435 0.950 . S
H432 C428 0.950 . S
C433 C431 1.390 . S
C433 C434 1.387 . S
C433 H436 0.950 . S
C434 C433 1.387 . S
C434 C437 1.387 . S
H435 C431 0.950 . S
H436 C433 0.950 . S
C437 C428 1.390 . S
C437 H430 0.950 1_556 S
C437 C434 1.387 . S
C438 C439 1.387 . S
C438 H442 0.950 . S
C438 C447 1.390 . S
C439 C438 1.387 . S
C439 C441 1.387 . S
H440 C447 0.950 . S
C441 C439 1.387 . S
C441 C443 1.390 . S
C441 H445 0.950 . S
H442 C438 0.950 . S
C443 C441 1.390 . S
C443 C444 1.387 . S
C443 H446 0.950 . S
C444 C443 1.387 . S
C444 C447 1.387 . S
H445 C441 0.950 . S
H446 C443 0.950 . S
C447 C438 1.390 . S
C447 H440 0.950 . S
C447 C444 1.387 . S
C448 C449 1.387 . S
C448 H452 0.950 . S
C448 C457 1.390 . S
C449 C448 1.387 . S
C449 C451 1.392 . S
H450 C457 0.950 . S
C451 C449 1.392 . S
C451 C453 1.396 . S
C451 H455 0.940 1_554 S
H452 C448 0.950 . S
C453 C451 1.396 . S
C453 C454 1.387 . S
C453 H456 0.950 . S
C454 C453 1.387 . S
C454 C457 1.387 . S
H455 C451 0.940 1_556 S
H456 C453 0.950 . S
C457 C448 1.390 . S
C457 H450 0.950 . S
C457 C454 1.387 . S
C458 C459 1.387 . S
C458 H462 0.950 . S
C458 C467 1.390 . S
C459 C458 1.387 . S
C459 C461 1.387 . S
H460 C467 0.950 . S
C461 C459 1.387 . S
C461 C463 1.390 . S
C461 H465 0.950 . S
H462 C458 0.950 . S
C463 C461 1.390 . S
C463 C464 1.387 . S
C463 H466 0.950 . S
C464 C463 1.387 . S
C464 C467 1.387 . S
H465 C461 0.950 . S
H466 C463 0.950 . S
C467 C458 1.390 . S
C467 H460 0.950 . S
C467 C464 1.387 . S
C468 C469 1.387 . S
C468 H472 0.950 . S
C468 C477 1.390 . S
C469 C468 1.387 . S
C469 C471 1.387 . S
H470 C477 0.950 1_556 S
C471 C469 1.387 . S
C471 C473 1.390 . S
C471 H475 0.950 . S
H472 C468 0.950 . S
C473 C471 1.390 . S
C473 C474 1.387 . S
C473 H476 0.950 . S
C474 C473 1.387 . S
C474 C477 1.387 . S
H475 C471 0.950 . S
H476 C473 0.950 . S
C477 C468 1.390 . S
C477 H470 0.950 1_554 S
C477 C474 1.387 . S
C478 C479 1.387 . S
C478 H482 0.950 . S
C478 C487 1.390 . S
C479 C478 1.387 . S
C479 C481 1.387 . S
H480 C487 0.950 . S
C481 C479 1.387 . S
C481 C483 1.390 . S
C481 H485 0.950 . S
H482 C478 0.950 . S
C483 C481 1.390 . S
C483 C484 1.387 . S
C483 H486 0.950 . S
C484 C483 1.387 . S
C484 C487 1.387 . S
H485 C481 0.950 . S
H486 C483 0.950 . S
C487 C478 1.390 . S
C487 H480 0.950 . S
C487 C484 1.387 . S
C488 C489 1.387 . S
C488 H492 0.950 . S
C488 C497 1.390 . S
C489 C488 1.387 . S
C489 C491 1.387 . S
H490 C497 0.950 . S
C491 C489 1.387 . S
C491 C493 1.390 . S
C491 H495 0.950 . S
H492 C488 0.950 . S
C493 C491 1.390 . S
C493 C494 1.387 . S
C493 H496 0.950 . S
C494 C493 1.387 . S
C494 C497 1.387 . S
H495 C491 0.950 . S
H496 C493 0.950 . S
C497 C488 1.390 . S
C497 H490 0.950 . S
C497 C494 1.387 . S
C498 C499 1.387 . S
C498 H502 0.950 . S
C498 C507 1.390 . S
C499 C498 1.387 . S
C499 C501 1.387 . S
H500 C507 0.950 . S
C501 C499 1.387 . S
C501 C503 1.390 . S
C501 H505 0.950 . S
H502 C498 0.950 . S
C503 C501 1.390 . S
C503 C504 1.387 . S
C503 H506 0.950 . S
C504 C503 1.387 . S
C504 C507 1.387 . S
H505 C501 0.950 . S
H506 C503 0.950 . S
C507 C498 1.390 . S
C507 H500 0.950 . S
C507 C504 1.387 . S
C508 C509 1.387 . S
C508 H512 0.950 . S
C508 C517 1.390 . S
C509 C508 1.387 . S
C509 C511 1.387 . S
H510 C517 0.950 . S
C511 C509 1.387 . S
C511 C513 1.390 . S
C511 H515 0.950 . S
H512 C508 0.950 . S
C513 C511 1.390 . S
C513 C514 1.387 . S
C513 H516 0.950 . S
C514 C513 1.387 . S
C514 C517 1.387 . S
H515 C511 0.950 . S
H516 C513 0.950 . S
C517 C508 1.390 . S
C517 H510 0.950 . S
C517 C514 1.387 . S
C518 C519 1.387 . S
C518 H522 0.950 . S
C518 C527 1.390 . S
C519 C518 1.387 . S
C519 C521 1.387 . S
H520 C527 0.950 . S
C521 C519 1.387 . S
C521 C523 1.390 . S
C521 H525 0.950 . S
H522 C518 0.950 . S
C523 C521 1.390 . S
C523 C524 1.387 . S
C523 H526 0.950 . S
C524 C523 1.387 . S
C524 C527 1.387 . S
H525 C521 0.950 . S
H526 C523 0.950 . S
C527 C518 1.390 . S
C527 H520 0.950 . S
C527 C524 1.387 . S
C528 C529 1.387 . S
C528 H532 0.950 . S
C528 C537 1.390 . S
C529 C528 1.387 . S
C529 C531 1.387 . S
H530 C537 0.950 . S
C531 C529 1.387 . S
C531 C533 1.390 . S
C531 H535 0.950 . S
H532 C528 0.950 . S
C533 C531 1.390 . S
C533 C534 1.387 . S
C533 H536 0.950 . S
C534 C533 1.387 . S
C534 C537 1.387 . S
H535 C531 0.950 . S
H536 C533 0.950 . S
C537 C528 1.390 . S
C537 H530 0.950 . S
C537 C534 1.387 . S
C538 C539 1.387 . S
C538 H542 0.950 . S
C538 C547 1.390 . S
C539 C538 1.387 . S
C539 C541 1.387 . S
H540 C547 0.950 . S
C541 C539 1.387 . S
C541 C543 1.390 . S
C541 H545 0.950 . S
H542 C538 0.950 . S
C543 C541 1.390 . S
C543 C544 1.387 . S
C543 H546 0.950 . S
C544 C543 1.387 . S
C544 C547 1.387 . S
H545 C541 0.950 . S
H546 C543 0.950 . S
C547 C538 1.390 . S
C547 H540 0.950 . S
C547 C544 1.387 . S
C548 C549 1.387 . S
C548 H552 0.950 . S
C548 C557 1.390 . S
C549 C548 1.387 . S
C549 C551 1.387 . S
H550 C557 0.950 . S
C551 C549 1.387 . S
C551 C553 1.390 . S
C551 H555 0.950 . S
H552 C548 0.950 . S
C553 C551 1.390 . S
C553 C554 1.387 . S
C553 H556 0.950 . S
C554 C553 1.387 . S
C554 C557 1.387 . S
H555 C551 0.950 . S
H556 C553 0.950 . S
C557 C548 1.390 . S
C557 H550 0.950 . S
C557 C554 1.387 . S
C558 C559 1.387 . S
C558 H562 0.950 . S
C558 C567 1.390 . S
C559 C558 1.387 . S
C559 C561 1.387 . S
H560 C567 0.950 . S
C561 C559 1.387 . S
C561 C563 1.390 . S
C561 H565 0.950 . S
H562 C558 0.950 . S
C563 C561 1.390 . S
C563 C564 1.387 . S
C563 H566 0.950 . S
C564 C563 1.387 . S
C564 C567 1.387 . S
H565 C561 0.950 . S
H566 C563 0.950 . S
C567 C558 1.390 . S
C567 H560 0.950 . S
C567 C564 1.387 . S
C249 C24 1.515 . S
C254 C49 1.441 . S
C259 C55 1.515 . S
C264 C80 1.439 . S
C269 C86 1.516 . S
C274 C111 1.443 . S
C279 C18 1.439 . S
C284 C117 1.515 . S
C289 C124 1.517 . S
C294 C166 1.443 . S
C299 C155 1.516 . S
C304 C197 1.439 . S
C309 C186 1.517 . S
C314 C228 1.443 . S
C319 C217 1.517 . S
C324 C135 1.443 . S
C329 C0 1.473 1_556 S
C334 C148 1.473 1_554 S
C339 C31 1.471 . S
C344 C179 1.471 . S
C349 C62 1.474 1_556 S
C354 C210 1.474 1_554 S
C359 C93 1.476 . S
C364 C241 1.476 . S
C369 C27 0.886 . S
C374 C89 0.886 . S
C379 C120 0.892 . S
C384 C58 0.892 . S
C389 C125 0.892 . S
C394 C187 0.892 . S
C399 C156 0.892 . S
C404 C218 0.892 . S
C409 C10 2.554 1_556 S
C414 C33 2.205 . S
C419 C41 2.555 . S
C424 C64 2.209 . S
C429 C95 2.207 . S
C434 C72 2.554 1_556 S
C439 C103 2.554 . S
C444 C2 2.208 . S
C449 C126 2.554 1_554 S
C454 C165 2.208 . S
C459 C196 2.205 . S
C464 C157 2.554 . S
C469 C227 2.207 . S
C474 C188 2.554 1_554 S
C479 C134 2.205 . S
C484 C219 2.554 . S
C489 C11 1.589 . S
C494 C182 1.601 . S
C499 C42 1.589 . S
C504 C213 1.601 . S
C509 C244 1.601 . S
C514 C73 1.589 . S
C519 C151 1.603 . S
C524 C104 1.586 . S
C529 C32 1.603 . S
C534 C142 1.586 . S
C539 C173 1.589 . S
C544 C63 1.601 . S
C549 C204 1.589 . S
C554 C94 1.601 . S
C559 C1 1.603 . S
C564 C235 1.586 . S
