# Generated by pormake.
# Topology skc, (5)-cn, num edge types: 1
# Building blocks:
#     Node 0, Type 0, BuildingBlock: BEQFEK_clean_sbu_0, # of connection points: 5
#     Node 1, Type 0, BuildingBlock: BEQFEK_clean_sbu_0, # of connection points: 5
#     Node 2, Type 0, BuildingBlock: BEQFEK_clean_sbu_0, # of connection points: 5
#     Node 3, Type 0, BuildingBlock: BEQFEK_clean_sbu_0, # of connection points: 5
#     Node 4, Type 0, BuildingBlock: BEQFEK_clean_sbu_0, # of connection points: 5
#     Node 5, Type 0, BuildingBlock: BEQFEK_clean_sbu_0, # of connection points: 5
#     Node 6, Type 0, BuildingBlock: BEQFEK_clean_sbu_0, # of connection points: 5
#     Node 7, Type 0, BuildingBlock: BEQFEK_clean_sbu_0, # of connection points: 5
#     Edge 8, Type (0, 0), BuildingBlock: AJUNOK_clean_linker_0, # of connection points: 2
#     Edge 9, Type (0, 0), BuildingBlock: AJUNOK_clean_linker_0, # of connection points: 2
#     Edge 10, Type (0, 0), BuildingBlock: AJUNOK_clean_linker_0, # of connection points: 2
#     Edge 11, Type (0, 0), BuildingBlock: AJUNOK_clean_linker_0, # of connection points: 2
#     Edge 12, Type (0, 0), BuildingBlock: AJUNOK_clean_linker_0, # of connection points: 2
#     Edge 13, Type (0, 0), BuildingBlock: AJUNOK_clean_linker_0, # of connection points: 2
#     Edge 14, Type (0, 0), BuildingBlock: AJUNOK_clean_linker_0, # of connection points: 2
#     Edge 15, Type (0, 0), BuildingBlock: AJUNOK_clean_linker_0, # of connection points: 2
#     Edge 16, Type (0, 0), BuildingBlock: AJUNOK_clean_linker_0, # of connection points: 2
#     Edge 17, Type (0, 0), BuildingBlock: AJUNOK_clean_linker_0, # of connection points: 2
#     Edge 18, Type (0, 0), BuildingBlock: AJUNOK_clean_linker_0, # of connection points: 2
#     Edge 19, Type (0, 0), BuildingBlock: AJUNOK_clean_linker_0, # of connection points: 2
#     Edge 20, Type (0, 0), BuildingBlock: AJUNOK_clean_linker_0, # of connection points: 2
#     Edge 21, Type (0, 0), BuildingBlock: AJUNOK_clean_linker_0, # of connection points: 2
#     Edge 22, Type (0, 0), BuildingBlock: AJUNOK_clean_linker_0, # of connection points: 2
#     Edge 23, Type (0, 0), BuildingBlock: AJUNOK_clean_linker_0, # of connection points: 2
#     Edge 24, Type (0, 0), BuildingBlock: AJUNOK_clean_linker_0, # of connection points: 2
#     Edge 25, Type (0, 0), BuildingBlock: AJUNOK_clean_linker_0, # of connection points: 2
#     Edge 26, Type (0, 0), BuildingBlock: AJUNOK_clean_linker_0, # of connection points: 2
#     Edge 27, Type (0, 0), BuildingBlock: AJUNOK_clean_linker_0, # of connection points: 2
# Relax obj value: 0.149
# Max RMSD: 0.201
# Mean RMSD: 0.201
data_MOF--net-skc--node1-BEQFEK_clean_sbu_0--edge1-AJUNOK_clean_linker_0
_symmetry_space_group_name_H-M    P1
_symmetry_Int_Tables_number       1
_symmetry_cell_setting            triclinic
loop_
_symmetry_equiv_pos_as_xyz
'x, y, z'
_cell_length_a     35.644253
_cell_length_b     16.3232
_cell_length_c     19.058871
_cell_angle_alpha  90.267636
_cell_angle_beta   90.03919
_cell_angle_gamma 89.964291
loop_
_atom_site_label
_atom_site_type_symbol
_atom_site_fract_x
_atom_site_fract_y
_atom_site_fract_z
_atom_type_partial_charge
Co0 Co 0.07147 0.19814 0.19653 0.0
Co1 Co 0.11786 0.25628 0.06473 0.0
C2 C 0.05901 0.12862 0.05101 0.0
O3 O 0.05141 0.13222 0.11636 0.0
O4 O 0.08596 0.16974 0.02512 0.0
C5 C 0.05185 0.09646 0.31938 0.0
O6 O 0.07491 0.0398 0.29605 0.0
C7 C 0.17223 0.25805 0.94564 0.0
C8 C 0.18649 0.38959 0.94373 0.0
C9 C 0.19456 0.31541 0.91195 0.0
N10 N 0.15212 0.29685 0.99566 0.0
N11 N 0.1606 0.37561 0.99353 0.0
C12 C 0.16957 0.16841 0.92928 0.0
H13 H 0.1429 0.14261 0.94901 0.0
H14 H 0.19308 0.13539 0.9547 0.0
H15 H 0.1718 0.15811 0.87181 0.0
C16 C 0.14873 0.19259 0.25704 0.0
N17 N 0.12482 0.20238 0.20283 0.0
N18 N 0.14423 0.22246 0.14672 0.0
C19 C 0.18114 0.22236 0.16293 0.0
C20 C 0.18515 0.20385 0.23357 0.0
C21 C 0.13709 0.18145 0.33169 0.0
H22 H 0.10933 0.20981 0.34124 0.0
H23 H 0.13582 0.11503 0.34283 0.0
H24 H 0.15789 0.20931 0.36801 0.0
O25 O 0.05214 0.30841 0.18157 0.0
O26 O 0.08235 0.34811 0.08559 0.0
H27 H 0.21209 0.301 0.09473 0.0
H28 H 0.23977 0.21927 0.13262 0.0
C29 C 0.21191 0.23583 0.11095 0.0
H30 H 0.20674 0.19744 0.06407 0.0
H31 H 0.14921 0.41973 0.02712 0.0
O32 O 0.04747 0.16242 0.28525 0.0
C33 C 0.0579 0.36026 0.13331 0.0
Co34 Co 0.93927 0.79824 0.1872 0.0
Co35 Co 0.89249 0.72838 0.05983 0.0
C36 C 0.95082 0.85957 0.04187 0.0
O37 O 0.95859 0.86327 0.1071 0.0
O38 O 0.92516 0.81245 0.01879 0.0
C39 C 0.96222 0.9026 0.30827 0.0
O40 O 0.94139 0.96292 0.28477 0.0
C41 C 0.83689 0.73341 0.94456 0.0
C42 C 0.82643 0.60151 0.92709 0.0
C43 C 0.81591 0.67868 0.90483 0.0
N44 N 0.85843 0.69034 0.98926 0.0
N45 N 0.85227 0.61152 0.97793 0.0
C46 C 0.83757 0.82484 0.93808 0.0
H47 H 0.86572 0.84886 0.95121 0.0
H48 H 0.81743 0.85261 0.97549 0.0
H49 H 0.8296 0.84376 0.88421 0.0
C50 C 0.86242 0.80979 0.2486 0.0
N51 N 0.88594 0.79447 0.19465 0.0
N52 N 0.86636 0.76549 0.14136 0.0
C53 C 0.82977 0.7625 0.15961 0.0
C54 C 0.82607 0.79161 0.2278 0.0
C55 C 0.8747 0.83063 0.32168 0.0
H56 H 0.90109 0.79807 0.33443 0.0
H57 H 0.87938 0.89755 0.32583 0.0
H58 H 0.85301 0.81339 0.36068 0.0
O59 O 0.95897 0.68718 0.17252 0.0
O60 O 0.92692 0.63647 0.08221 0.0
H61 H 0.80627 0.66783 0.09506 0.0
H62 H 0.77155 0.72997 0.13966 0.0
C63 C 0.79917 0.73065 0.1131 0.0
H64 H 0.79677 0.77031 0.06653 0.0
H65 H 0.86539 0.56447 0.00557 0.0
O66 O 0.96369 0.83494 0.27522 0.0
C67 C 0.95256 0.6302 0.12846 0.0
Co68 Co 0.07375 0.79329 0.68907 0.0
Co69 Co 0.11717 0.71033 0.81432 0.0
C70 C 0.06198 0.85158 0.83323 0.0
O71 O 0.05655 0.8624 0.76787 0.0
O72 O 0.08458 0.7969 0.85534 0.0
C73 C 0.02311 0.87114 0.58849 0.0
O74 O 1.00179 0.88775 0.6429 0.0
C75 C 0.17414 0.71495 0.92537 0.0
C76 C 0.18099 0.58387 0.9503 0.0
C77 C 0.19466 0.661 0.96649 0.0
N78 N 0.15008 0.67125 0.88574 0.0
N79 N 0.15407 0.59297 0.90141 0.0
C80 C 0.17588 0.80659 0.92543 0.0
H81 H 0.14707 0.83223 0.9246 0.0
H82 H 0.19024 0.82771 0.8772 0.0
H83 H 0.19104 0.83021 0.97222 0.0
C84 C 0.15096 0.79722 0.63181 0.0
N85 N 0.12685 0.7822 0.68453 0.0
N86 N 0.14512 0.74611 0.73585 0.0
C87 C 0.18134 0.73612 0.71672 0.0
C88 C 0.1861 0.76829 0.65019 0.0
C89 C 0.1403 0.83617 0.56404 0.0
H90 H 0.11883 0.88363 0.57375 0.0
H91 H 0.16498 0.86401 0.5379 0.0
H92 H 0.12826 0.78866 0.52892 0.0
O93 O 0.04948 0.6858 0.70394 0.0
O94 O 0.08271 0.62112 0.78594 0.0
H95 H 0.19668 0.6338 0.78094 0.0
H96 H 0.23363 0.66929 0.72368 0.0
C97 C 0.20985 0.68868 0.75748 0.0
H98 H 0.22103 0.72772 0.80031 0.0
H99 H 0.13893 0.54561 0.87774 0.0
O100 O 0.05408 0.83412 0.59799 0.0
C101 C 0.05564 0.62362 0.74232 0.0
Co102 Co 0.93525 0.18137 0.69648 0.0
Co103 Co 0.88944 0.26569 0.8179 0.0
C104 C 0.9468 0.1309 0.84307 0.0
O105 O 0.95376 0.11945 0.77819 0.0
O106 O 0.92268 0.18364 0.86328 0.0
C107 C 0.99101 0.12558 0.60003 0.0
O108 O 0.01347 0.1373 0.65381 0.0
C109 C 0.83212 0.26675 0.92897 0.0
C110 C 0.82531 0.39922 0.94915 0.0
C111 C 0.81222 0.32301 0.96939 0.0
N112 N 0.85556 0.30806 0.88666 0.0
N113 N 0.85148 0.38721 0.89931 0.0
C114 C 0.83014 0.17522 0.93212 0.0
H115 H 0.8566 0.1475 0.91284 0.0
H116 H 0.80704 0.15319 0.89793 0.0
H117 H 0.82446 0.15479 0.98656 0.0
C118 C 0.85914 0.16484 0.63722 0.0
N119 N 0.88228 0.18539 0.69031 0.0
N120 N 0.86291 0.22292 0.73961 0.0
C121 C 0.8268 0.2287 0.71879 0.0
C122 C 0.82327 0.19206 0.65325 0.0
C123 C 0.87153 0.12181 0.57168 0.0
H124 H 0.89013 0.06974 0.58539 0.0
H125 H 0.84723 0.09873 0.54098 0.0
H126 H 0.88785 0.165 0.53889 0.0
O127 O 0.9567 0.29249 0.70638 0.0
O128 O 0.92288 0.35573 0.78819 0.0
H129 H 0.8094 0.33444 0.77761 0.0
H130 H 0.77328 0.29147 0.72187 0.0
C131 C 0.79727 0.27674 0.75676 0.0
H132 H 0.7867 0.24029 0.80147 0.0
H133 H 0.86635 0.43313 0.87347 0.0
O134 O 0.95605 0.1374 0.6079 0.0
C135 C 0.94959 0.35537 0.74384 0.0
Co136 Co 0.57589 0.68804 0.68483 0.0
Co137 Co 0.61784 0.76723 0.55689 0.0
C138 C 0.56133 0.62953 0.54043 0.0
O139 O 0.55555 0.6224 0.60605 0.0
O140 O 0.58526 0.68042 0.51686 0.0
C141 C 0.52453 0.61918 0.7869 0.0
O142 O 0.50126 0.6125 0.73373 0.0
C143 C 0.67628 0.76959 0.44758 0.0
C144 C 0.67207 0.89703 0.41053 0.0
C145 C 0.69242 0.82543 0.40141 0.0
N146 N 0.64858 0.80768 0.48294 0.0
N147 N 0.6459 0.88351 0.45978 0.0
C148 C 0.68757 0.68267 0.46069 0.0
H149 H 0.67567 0.66059 0.51093 0.0
H150 H 0.71859 0.67683 0.46141 0.0
H151 H 0.6764 0.64331 0.41792 0.0
C152 C 0.65371 0.67877 0.73762 0.0
N153 N 0.62918 0.6949 0.68581 0.0
N154 N 0.64697 0.73193 0.63445 0.0
C155 C 0.68328 0.74232 0.65315 0.0
C156 C 0.68864 0.70827 0.71885 0.0
C157 C 0.64349 0.6393 0.80536 0.0
H158 H 0.62251 0.59086 0.79532 0.0
H159 H 0.66846 0.61253 0.83151 0.0
H160 H 0.63094 0.68608 0.84056 0.0
O161 O 0.55354 0.79841 0.67543 0.0
O162 O 0.58372 0.85632 0.58676 0.0
H163 H 0.69667 0.84218 0.5842 0.0
H164 H 0.73161 0.82167 0.6507 0.0
C165 C 0.7111 0.79334 0.61406 0.0
H166 H 0.72694 0.75372 0.57713 0.0
H167 H 0.62665 0.92652 0.47852 0.0
O168 O 0.5574 0.64651 0.7762 0.0
C169 C 0.55881 0.85886 0.63461 0.0
Co170 Co 0.43511 0.29744 0.69134 0.0
Co171 Co 0.39185 0.21424 0.56608 0.0
C172 C 0.44798 0.35209 0.54655 0.0
O173 O 0.45456 0.36198 0.61174 0.0
O174 O 0.42426 0.29945 0.52489 0.0
C175 C 0.48869 0.35591 0.79099 0.0
O176 O 0.51196 0.34739 0.73803 0.0
C177 C 0.3354 0.21668 0.45426 0.0
C178 C 0.33436 0.08717 0.42032 0.0
C179 C 0.3181 0.16283 0.40744 0.0
N180 N 0.36044 0.17434 0.49251 0.0
N181 N 0.36002 0.0972 0.47138 0.0
C182 C 0.32702 0.30546 0.46666 0.0
H183 H 0.33536 0.3239 0.52052 0.0
H184 H 0.29678 0.31845 0.45831 0.0
H185 H 0.34379 0.34286 0.42974 0.0
C186 C 0.35773 0.31181 0.74553 0.0
N187 N 0.38198 0.2911 0.69428 0.0
N188 N 0.36363 0.25317 0.64374 0.0
C189 C 0.32714 0.2472 0.6621 0.0
C190 C 0.32227 0.28498 0.72668 0.0
C191 C 0.3687 0.35298 0.81276 0.0
H192 H 0.38662 0.40685 0.80132 0.0
H193 H 0.34373 0.37286 0.84317 0.0
H194 H 0.38538 0.30964 0.84487 0.0
O195 O 0.45798 0.1877 0.6807 0.0
O196 O 0.4262 0.12555 0.59503 0.0
H197 H 0.2759 0.17706 0.65799 0.0
H198 H 0.28458 0.24078 0.58335 0.0
C199 C 0.29808 0.19995 0.62223 0.0
H200 H 0.31111 0.14754 0.59423 0.0
H201 H 0.37678 0.05112 0.49266 0.0
O202 O 0.4541 0.34082 0.78155 0.0
C203 C 0.45197 0.12602 0.64127 0.0
Co204 Co 0.57112 0.29565 0.19409 0.0
Co205 Co 0.6167 0.21684 0.3179 0.0
C206 C 0.55926 0.354 0.33752 0.0
O207 O 0.55361 0.36498 0.27224 0.0
O208 O 0.58274 0.30083 0.35932 0.0
C209 C 0.54485 0.39603 0.07392 0.0
O210 O 0.55988 0.46174 0.10221 0.0
C211 C 0.67432 0.22055 0.42915 0.0
C212 C 0.67913 0.089 0.45446 0.0
C213 C 0.69373 0.16518 0.4708 0.0
N214 N 0.64994 0.17842 0.38898 0.0
N215 N 0.65272 0.09998 0.40492 0.0
C216 C 0.67684 0.3121 0.43052 0.0
H217 H 0.64822 0.33881 0.42902 0.0
H218 H 0.69184 0.33374 0.3832 0.0
H219 H 0.6918 0.33413 0.47808 0.0
C220 C 0.6482 0.30645 0.13413 0.0
N221 N 0.62445 0.28857 0.18692 0.0
N222 N 0.64363 0.25476 0.23837 0.0
C223 C 0.68009 0.2496 0.2194 0.0
C224 C 0.68409 0.28308 0.15322 0.0
C225 C 0.63673 0.34375 0.06601 0.0
H226 H 0.61345 0.30774 0.04272 0.0
H227 H 0.62681 0.40701 0.07608 0.0
H228 H 0.66031 0.34639 0.02815 0.0
O229 O 0.54865 0.18769 0.21198 0.0
O230 O 0.58376 0.12431 0.29138 0.0
H231 H 0.69808 0.15097 0.28579 0.0
H232 H 0.73343 0.18699 0.22532 0.0
C233 C 0.70992 0.20587 0.25999 0.0
H234 H 0.72131 0.24746 0.30078 0.0
H235 H 0.63681 0.05383 0.38132 0.0
O236 O 0.54753 0.32724 0.10418 0.0
C237 C 0.55592 0.12573 0.24964 0.0
Co238 Co 0.43812 0.68374 0.18871 0.0
Co239 Co 0.39142 0.76009 0.31261 0.0
C240 C 0.44966 0.62517 0.33224 0.0
O241 O 0.45656 0.61596 0.26709 0.0
O242 O 0.42545 0.67696 0.35374 0.0
C243 C 0.46537 0.58346 0.06796 0.0
O244 O 0.45081 0.51694 0.09515 0.0
C245 C 0.33417 0.75093 0.42334 0.0
C246 C 0.32688 0.88155 0.45126 0.0
C247 C 0.314 0.80367 0.46654 0.0
N248 N 0.35743 0.79595 0.3836 0.0
N249 N 0.35313 0.87388 0.40093 0.0
C250 C 0.33302 0.65923 0.4221 0.0
H251 H 0.36166 0.63433 0.41448 0.0
H252 H 0.31578 0.63816 0.37709 0.0
H253 H 0.32086 0.6348 0.47136 0.0
C254 C 0.36134 0.67055 0.12716 0.0
N255 N 0.38476 0.68797 0.18083 0.0
N256 N 0.36531 0.72186 0.23206 0.0
C257 C 0.32906 0.72797 0.21216 0.0
C258 C 0.32538 0.69544 0.14524 0.0
C259 C 0.3732 0.63115 0.05969 0.0
H260 H 0.39524 0.66883 0.0345 0.0
H261 H 0.38499 0.56991 0.07106 0.0
H262 H 0.34939 0.62306 0.02285 0.0
O263 O 0.45888 0.79409 0.20656 0.0
O264 O 0.42376 0.8537 0.28822 0.0
H265 H 0.31128 0.82828 0.27736 0.0
H266 H 0.27549 0.78999 0.21854 0.0
C267 C 0.29935 0.77243 0.25275 0.0
H268 H 0.28858 0.73207 0.29471 0.0
H269 H 0.36792 0.92193 0.37795 0.0
O270 O 0.46211 0.65203 0.09903 0.0
C271 C 0.45117 0.85526 0.24554 0.0
C272 C 0.02015 0.46842 0.19242 0.0
C273 C 0.03279 0.43185 0.12986 0.0
C274 C 0.99367 0.53166 0.19142 0.0
C275 C 0.97805 0.55903 0.12795 0.0
H276 H 0.0309 0.44807 0.24261 0.0
H277 H 0.98518 0.55906 0.24082 0.0
S278 S 1.00121 0.4822 0.94954 0.0
N279 N 0.02772 0.4271 1.00259 0.0
N280 N 0.97718 0.54504 1.00075 0.0
C281 C 0.99014 0.52245 0.06492 0.0
C282 C 0.0178 0.45921 0.06585 0.0
C283 C 0.01339 0.41269 0.72242 0.0
C284 C 0.9755 0.42592 0.74059 0.0
C285 C 0.03947 0.47686 0.72362 0.0
C286 C 0.02827 0.55662 0.74115 0.0
H287 H 0.02325 0.35184 0.70892 0.0
H288 H 0.06846 0.46418 0.71033 0.0
S289 S 0.93303 0.62434 0.79369 0.0
N290 N 0.92854 0.52516 0.77816 0.0
N291 N 0.97746 0.64625 0.7779 0.0
C292 C 0.9906 0.5712 0.75874 0.0
C293 C 0.9642 0.50566 0.75913 0.0
C294 C 0.499 0.92299 0.67644 0.0
C295 C 0.53309 0.93013 0.63919 0.0
C296 C 0.47257 0.98662 0.6771 0.0
C297 C 0.47956 0.05963 0.64121 0.0
H298 H 0.49218 0.8671 0.70406 0.0
H299 H 0.44652 0.97859 0.70552 0.0
S300 S 0.56414 0.11191 0.53789 0.0
N301 N 0.57222 0.01824 0.56667 0.0
N302 N 0.52249 0.13767 0.56891 0.0
C303 C 0.51349 0.06871 0.60495 0.0
C304 C 0.54032 0.00397 0.60368 0.0
C305 C 0.51527 0.91336 0.23021 0.0
C306 C 0.47698 0.92597 0.24552 0.0
C307 C 0.54104 0.97803 0.23296 0.0
C308 C 0.52914 0.05764 0.24923 0.0
H309 H 0.5256 0.85269 0.21734 0.0
H310 H 0.57028 0.96598 0.22129 0.0
S311 S 0.43258 0.12362 0.29485 0.0
N312 N 0.42886 0.02422 0.27956 0.0
N313 N 0.47722 0.14637 0.28217 0.0
C314 C 0.49109 0.07147 0.26444 0.0
C315 C 0.46499 0.0054 0.26329 0.0
C316 C 0.25724 0.11526 0.35799 0.0
C317 C 0.28525 0.17593 0.36088 0.0
C318 C 0.22528 0.12479 0.31614 0.0
C319 C 0.22 0.19535 0.27546 0.0
H320 H 0.25973 0.06014 0.38913 0.0
H321 H 0.20453 0.07634 0.31561 0.0
S322 S 0.28576 0.37029 0.26045 0.0
N323 N 0.30687 0.30633 0.31455 0.0
N324 N 0.24534 0.32694 0.23993 0.0
C325 C 0.24784 0.25626 0.27703 0.0
C326 C 0.28082 0.24591 0.31879 0.0
C327 C 0.73548 0.74201 0.3238 0.0
C328 C 0.72633 0.81703 0.35642 0.0
C329 C 0.76772 0.73397 0.28205 0.0
C330 C 0.7915 0.80107 0.27016 0.0
H331 H 0.71752 0.68919 0.32942 0.0
H332 H 0.77419 0.6747 0.25926 0.0
S333 S 0.77972 0.01174 0.34018 0.0
N334 N 0.74397 0.96016 0.37271 0.0
N335 N 0.80338 0.94535 0.29184 0.0
C336 C 0.78242 0.87666 0.30103 0.0
C337 C 0.75001 0.88471 0.34432 0.0
C338 C 0.28271 0.82187 0.58252 0.0
C339 C 0.28308 0.78523 0.51555 0.0
C340 C 0.25187 0.8127 0.6275 0.0
C341 C 0.2202 0.76794 0.60625 0.0
H342 H 0.30616 0.85911 0.59973 0.0
H343 H 0.25216 0.84342 0.67801 0.0
S344 S 0.20716 0.6596 0.43678 0.0
N345 N 0.24901 0.70228 0.43054 0.0
N346 N 0.19138 0.68409 0.51559 0.0
C347 C 0.22055 0.72937 0.54031 0.0
C348 C 0.25194 0.73832 0.49469 0.0
C349 C 0.75733 0.1488 0.6294 0.0
C350 C 0.78975 0.19032 0.60761 0.0
C351 C 0.72595 0.14259 0.58522 0.0
C352 C 0.72572 0.17937 0.51862 0.0
H353 H 0.75662 0.11923 0.68016 0.0
H354 H 0.7018 0.10822 0.60303 0.0
S355 S 0.80375 0.29566 0.43785 0.0
N356 N 0.81974 0.26978 0.51604 0.0
N357 N 0.76089 0.25773 0.43278 0.0
C358 C 0.7578 0.22218 0.49682 0.0
C359 C 0.78982 0.22781 0.54148 0.0
C360 C 0.78505 0.65611 0.78884 0.0
C361 C 0.78537 0.69563 0.85459 0.0
C362 C 0.75432 0.66397 0.74325 0.0
C363 C 0.72273 0.71006 0.76284 0.0
H364 H 0.80842 0.61768 0.77319 0.0
H365 H 0.7546 0.63115 0.69371 0.0
S366 S 0.70958 0.82522 0.9289 0.0
N367 N 0.75141 0.78264 0.93665 0.0
N368 N 0.69383 0.79755 0.85081 0.0
C369 C 0.72302 0.75123 0.8276 0.0
C370 C 0.75434 0.74391 0.87366 0.0
C371 C 0.25174 0.24111 0.86988 0.0
C372 C 0.22454 0.3024 0.8595 0.0
C373 C 0.28304 0.23469 0.82561 0.0
C374 C 0.28787 0.28883 0.76934 0.0
H375 H 0.24982 0.20029 0.91431 0.0
H376 H 0.304 0.18828 0.83625 0.0
S377 S 0.22451 0.4581 0.71838 0.0
N378 N 0.20437 0.41738 0.78807 0.0
N379 N 0.26299 0.40397 0.7042 0.0
C380 C 0.26061 0.34893 0.75727 0.0
C381 C 0.229 0.3562 0.8027 0.0
C382 C 0.72254 0.24035 0.05015 0.0
C383 C 0.71847 0.28908 0.11052 0.0
C384 C 0.75356 0.24979 0.00572 0.0
C385 C 0.78149 0.30847 0.02019 0.0
H386 H 0.70114 0.19595 0.03643 0.0
H387 H 0.75472 0.2132 0.95833 0.0
S388 S 0.78325 0.45119 0.17238 0.0
N389 N 0.74447 0.39733 0.18323 0.0
N390 N 0.80283 0.41583 0.09974 0.0
C391 C 0.7777 0.35707 0.081 0.0
C392 C 0.74625 0.34693 0.12638 0.0
C393 C 0.22855 0.63835 0.0793 0.0
C394 C 0.22679 0.67736 0.01368 0.0
C395 C 0.26014 0.64663 0.12272 0.0
C396 C 0.29125 0.69285 0.10124 0.0
H397 H 0.20548 0.60042 0.09684 0.0
H398 H 0.2607 0.61482 0.17248 0.0
S399 S 0.30111 0.8062 0.93436 0.0
N400 N 0.25933 0.7629 0.92914 0.0
N401 N 0.31826 0.7798 0.01154 0.0
C402 C 0.28968 0.73317 0.03644 0.0
C403 C 0.25756 0.72496 0.99232 0.0
C404 C 0.9985 0.11652 0.40154 0.0
C405 C 0.03575 0.09179 0.39043 0.0
C406 C 0.98389 0.124 0.46947 0.0
C407 C 0.00633 0.10918 0.52899 0.0
H408 H 0.98067 0.1314 0.35731 0.0
H409 H 0.95509 0.14413 0.47521 0.0
S410 S 0.10628 0.04562 0.52737 0.0
N411 N 0.09475 0.05173 0.44372 0.0
N412 N 0.06795 0.06895 0.57175 0.0
C413 C 0.04363 0.08367 0.51836 0.0
C414 C 0.05816 0.07405 0.44898 0.0
C415 C 0.97314 0.91919 0.50515 0.0
C416 C 0.0096 0.88806 0.51611 0.0
C417 C 0.95855 0.92874 0.43719 0.0
C418 C 0.97981 0.90683 0.37802 0.0
H419 H 0.95533 0.93462 0.54931 0.0
H420 H 0.92994 0.95002 0.43108 0.0
S421 S 0.07764 0.83077 0.37642 0.0
N422 N 0.06745 0.84202 0.46035 0.0
N423 N 0.03951 0.85842 0.33346 0.0
C424 C 0.01656 0.87876 0.38777 0.0
C425 C 0.0316 0.86984 0.4566 0.0
C426 C 0.04446 0.88795 0.95611 0.0
C427 C 0.0349 0.8859 0.88446 0.0
C428 C 0.01669 0.89083 0.00812 0.0
C429 C 0.97835 0.89039 0.99024 0.0
H430 H 0.07342 0.88056 0.97221 0.0
H431 H 0.02538 0.88507 0.06235 0.0
S432 S 0.93877 0.90381 0.8107 0.0
N433 N 0.98455 0.8983 0.79869 0.0
N434 N 0.93254 0.90249 0.89647 0.0
C435 C 0.96865 0.89799 0.91909 0.0
C436 C 0.9969 0.89611 0.86613 0.0
C437 C 0.03964 0.09134 0.92935 0.0
C438 C 0.03051 0.09638 1.00115 0.0
C439 C 0.01172 0.09282 0.87768 0.0
C440 C 0.9736 0.09965 0.89585 0.0
H441 H 0.06867 0.09332 0.91262 0.0
H442 H 0.0204 0.09607 0.82329 0.0
S443 S 0.93419 0.09156 0.07556 0.0
N444 N 0.98009 0.09068 0.0874 0.0
N445 N 0.92772 0.0947 0.98983 0.0
C446 C 0.96385 0.0943 0.96707 0.0
C447 C 0.99228 0.09189 0.01986 0.0
C448 C 0.46153 0.55798 0.93913 0.0
C449 C 0.48252 0.58233 0.99792 0.0
C450 C 0.47566 0.56847 0.87099 0.0
C451 C 0.51143 0.60279 0.85953 0.0
H452 H 0.43353 0.53341 0.94573 0.0
H453 H 0.45817 0.55044 0.82708 0.0
S454 S 0.57796 0.67142 0.9982 0.0
N455 N 0.54079 0.63929 0.04168 0.0
N456 N 0.56798 0.65749 0.91442 0.0
C457 C 0.53305 0.62471 0.9187 0.0
C458 C 0.51839 0.61501 0.9877 0.0
C459 C 0.47988 0.35751 0.92116 0.0
C460 C 0.50279 0.37396 0.86264 0.0
C461 C 0.4933 0.3678 0.98973 0.0
C462 C 0.52963 0.39738 1.0023 0.0
H463 H 0.4517 0.33407 0.91418 0.0
H464 H 0.47532 0.35145 0.03328 0.0
S465 S 0.60105 0.44857 0.86897 0.0
N466 N 0.56409 0.42002 0.82271 0.0
N467 N 0.5884 0.44272 0.95201 0.0
C468 C 0.55251 0.41615 0.94487 0.0
C469 C 0.53932 0.40356 0.8749 0.0
C470 C 0.54099 0.38788 0.46047 0.0
C471 C 0.53147 0.3852 0.38883 0.0
C472 C 0.51321 0.38802 0.51248 0.0
C473 C 0.47493 0.3841 0.49457 0.0
H474 H 0.57008 0.38326 0.47655 0.0
H475 H 0.52197 0.38307 0.56673 0.0
S476 S 0.43498 0.39301 0.31518 0.0
N477 N 0.48084 0.39234 0.30302 0.0
N478 N 0.42881 0.39088 0.40098 0.0
C479 C 0.46501 0.39028 0.42346 0.0
C480 C 0.49325 0.39141 0.37048 0.0
C481 C 0.543 0.59206 0.41818 0.0
C482 C 0.53363 0.59588 0.48987 0.0
C483 C 0.5151 0.59053 0.36632 0.0
C484 C 0.47684 0.59396 0.38436 0.0
H485 H 0.57201 0.59713 0.40183 0.0
H486 H 0.52375 0.59488 0.31199 0.0
S487 S 0.43742 0.5844 0.56404 0.0
N488 N 0.48329 0.58703 0.57593 0.0
N489 N 0.43102 0.58598 0.47827 0.0
C490 C 0.46715 0.58795 0.45557 0.0
C491 C 0.49553 0.58824 0.50843 0.0
loop_
_geom_bond_atom_site_label_1
_geom_bond_atom_site_label_2
_geom_bond_distance
_geom_bond_site_symmetry_2
_ccdc_geom_bond_type
Co0 O3 1.970 . S
Co0 N17 1.989 . S
Co0 O25 1.967 . S
Co0 O32 1.920 . S
Co1 O4 1.966 . S
Co1 N10 2.022 1_554 S
Co1 N18 1.993 . S
Co1 O26 1.941 . S
C2 O3 1.258 . S
C2 O4 1.263 . S
O3 Co0 1.970 . S
O3 C2 1.258 . S
O4 Co1 1.966 . S
O4 C2 1.263 . S
C5 O6 1.235 . S
C5 O32 1.289 . S
O6 C5 1.235 . S
C7 C9 1.400 . S
C7 N10 1.351 . S
C7 C12 1.501 . S
C8 C9 1.387 . S
C8 N11 1.341 . S
C9 C7 1.400 . S
C9 C8 1.387 . S
N10 Co1 2.022 1_556 S
N10 C7 1.351 . S
N10 N11 1.365 . S
N11 C8 1.341 . S
N11 N10 1.365 . S
N11 H31 0.862 1_556 S
C12 C7 1.501 . S
C12 H13 0.961 . S
C12 H14 0.961 . S
C12 H15 0.960 . S
H13 C12 0.961 . S
H14 C12 0.961 . S
H15 C12 0.960 . S
C16 N17 1.342 . S
C16 C20 1.401 . S
C16 C21 1.499 . S
N17 Co0 1.989 . S
N17 C16 1.342 . S
N17 N18 1.388 . S
N18 Co1 1.993 . S
N18 N17 1.388 . S
N18 C19 1.346 . S
C19 N18 1.346 . S
C19 C20 1.396 . S
C19 C29 1.510 . S
C20 C16 1.401 . S
C20 C19 1.396 . S
C21 C16 1.499 . S
C21 H22 0.959 . S
C21 H23 0.960 . S
C21 H24 0.961 . S
H22 C21 0.959 . S
H23 C21 0.960 . S
H24 C21 0.961 . S
O25 Co0 1.967 . S
O25 C33 1.258 . S
O26 Co1 1.941 . S
O26 C33 1.266 . S
H27 C29 0.959 . S
H28 C29 0.961 . S
C29 C19 1.510 . S
C29 H27 0.959 . S
C29 H28 0.961 . S
C29 H30 0.960 . S
H30 C29 0.960 . S
H31 N11 0.862 1_554 S
O32 Co0 1.920 . S
O32 C5 1.289 . S
C33 O25 1.258 . S
C33 O26 1.266 . S
Co34 O37 1.970 . S
Co34 N51 1.989 . S
Co34 O59 1.967 . S
Co34 O66 1.920 . S
Co35 O38 1.966 . S
Co35 N44 2.022 1_554 S
Co35 N52 1.993 . S
Co35 O60 1.941 . S
C36 O37 1.258 . S
C36 O38 1.263 . S
O37 Co34 1.970 . S
O37 C36 1.258 . S
O38 Co35 1.966 . S
O38 C36 1.263 . S
C39 O40 1.235 . S
C39 O66 1.289 . S
O40 C39 1.235 . S
C41 C43 1.400 . S
C41 N44 1.351 . S
C41 C46 1.501 . S
C42 C43 1.387 . S
C42 N45 1.341 . S
C43 C41 1.400 . S
C43 C42 1.387 . S
N44 Co35 2.022 1_556 S
N44 C41 1.351 . S
N44 N45 1.365 . S
N45 C42 1.341 . S
N45 N44 1.365 . S
N45 H65 0.862 1_556 S
C46 C41 1.501 . S
C46 H47 0.961 . S
C46 H48 0.961 . S
C46 H49 0.960 . S
H47 C46 0.961 . S
H48 C46 0.961 . S
H49 C46 0.960 . S
C50 N51 1.342 . S
C50 C54 1.401 . S
C50 C55 1.499 . S
N51 Co34 1.989 . S
N51 C50 1.342 . S
N51 N52 1.388 . S
N52 Co35 1.993 . S
N52 N51 1.388 . S
N52 C53 1.346 . S
C53 N52 1.346 . S
C53 C54 1.396 . S
C53 C63 1.510 . S
C54 C50 1.401 . S
C54 C53 1.396 . S
C55 C50 1.499 . S
C55 H56 0.959 . S
C55 H57 0.960 . S
C55 H58 0.961 . S
H56 C55 0.959 . S
H57 C55 0.960 . S
H58 C55 0.961 . S
O59 Co34 1.967 . S
O59 C67 1.258 . S
O60 Co35 1.941 . S
O60 C67 1.266 . S
H61 C63 0.959 . S
H62 C63 0.961 . S
C63 C53 1.510 . S
C63 H61 0.959 . S
C63 H62 0.961 . S
C63 H64 0.960 . S
H64 C63 0.960 . S
H65 N45 0.862 1_554 S
O66 Co34 1.920 . S
O66 C39 1.289 . S
C67 O59 1.258 . S
C67 O60 1.266 . S
Co68 O71 1.970 . S
Co68 N85 1.989 . S
Co68 O93 1.967 . S
Co68 O100 1.920 . S
Co69 O72 1.966 . S
Co69 N78 2.022 . S
Co69 N86 1.993 . S
Co69 O94 1.941 . S
C70 O71 1.258 . S
C70 O72 1.263 . S
O71 Co68 1.970 . S
O71 C70 1.258 . S
O72 Co69 1.966 . S
O72 C70 1.263 . S
C73 O74 1.235 . S
C73 O100 1.289 . S
O74 C73 1.235 . S
C75 C77 1.400 . S
C75 N78 1.351 . S
C75 C80 1.501 . S
C76 C77 1.387 . S
C76 N79 1.341 . S
C77 C75 1.400 . S
C77 C76 1.387 . S
N78 Co69 2.022 . S
N78 C75 1.351 . S
N78 N79 1.365 . S
N79 C76 1.341 . S
N79 N78 1.365 . S
N79 H99 0.862 . S
C80 C75 1.501 . S
C80 H81 0.961 . S
C80 H82 0.961 . S
C80 H83 0.960 1_556 S
H81 C80 0.961 . S
H82 C80 0.961 . S
H83 C80 0.960 1_554 S
C84 N85 1.342 . S
C84 C88 1.401 . S
C84 C89 1.499 . S
N85 Co68 1.989 . S
N85 C84 1.342 . S
N85 N86 1.388 . S
N86 Co69 1.993 . S
N86 N85 1.388 . S
N86 C87 1.346 . S
C87 N86 1.346 . S
C87 C88 1.396 . S
C87 C97 1.510 . S
C88 C84 1.401 . S
C88 C87 1.396 . S
C89 C84 1.499 . S
C89 H90 0.959 . S
C89 H91 0.960 . S
C89 H92 0.961 . S
H90 C89 0.959 . S
H91 C89 0.960 . S
H92 C89 0.961 . S
O93 Co68 1.967 . S
O93 C101 1.258 . S
O94 Co69 1.941 . S
O94 C101 1.266 . S
H95 C97 0.959 . S
H96 C97 0.961 . S
C97 C87 1.510 . S
C97 H95 0.959 . S
C97 H96 0.961 . S
C97 H98 0.960 . S
H98 C97 0.960 . S
H99 N79 0.862 . S
O100 Co68 1.920 . S
O100 C73 1.289 . S
C101 O93 1.258 . S
C101 O94 1.266 . S
Co102 O105 1.970 . S
Co102 N119 1.989 . S
Co102 O127 1.967 . S
Co102 O134 1.920 . S
Co103 O106 1.966 . S
Co103 N112 2.022 . S
Co103 N120 1.993 . S
Co103 O128 1.941 . S
C104 O105 1.258 . S
C104 O106 1.263 . S
O105 Co102 1.970 . S
O105 C104 1.258 . S
O106 Co103 1.966 . S
O106 C104 1.263 . S
C107 O108 1.235 . S
C107 O134 1.289 . S
O108 C107 1.235 . S
C109 C111 1.400 . S
C109 N112 1.351 . S
C109 C114 1.501 . S
C110 C111 1.387 . S
C110 N113 1.341 . S
C111 C109 1.400 . S
C111 C110 1.387 . S
N112 Co103 2.022 . S
N112 C109 1.351 . S
N112 N113 1.365 . S
N113 C110 1.341 . S
N113 N112 1.365 . S
N113 H133 0.862 . S
C114 C109 1.501 . S
C114 H115 0.961 . S
C114 H116 0.961 . S
C114 H117 0.960 1_556 S
H115 C114 0.961 . S
H116 C114 0.961 . S
H117 C114 0.960 1_554 S
C118 N119 1.342 . S
C118 C122 1.401 . S
C118 C123 1.499 . S
N119 Co102 1.989 . S
N119 C118 1.342 . S
N119 N120 1.388 . S
N120 Co103 1.993 . S
N120 N119 1.388 . S
N120 C121 1.346 . S
C121 N120 1.346 . S
C121 C122 1.396 . S
C121 C131 1.510 . S
C122 C118 1.401 . S
C122 C121 1.396 . S
C123 C118 1.499 . S
C123 H124 0.959 . S
C123 H125 0.960 . S
C123 H126 0.961 . S
H124 C123 0.959 . S
H125 C123 0.960 . S
H126 C123 0.961 . S
O127 Co102 1.967 . S
O127 C135 1.258 . S
O128 Co103 1.941 . S
O128 C135 1.266 . S
H129 C131 0.959 . S
H130 C131 0.961 . S
C131 C121 1.510 . S
C131 H129 0.959 . S
C131 H130 0.961 . S
C131 H132 0.960 . S
H132 C131 0.960 . S
H133 N113 0.862 . S
O134 Co102 1.920 . S
O134 C107 1.289 . S
C135 O127 1.258 . S
C135 O128 1.266 . S
Co136 O139 1.970 . S
Co136 N153 1.989 . S
Co136 O161 1.967 . S
Co136 O168 1.920 . S
Co137 O140 1.966 . S
Co137 N146 2.022 . S
Co137 N154 1.993 . S
Co137 O162 1.941 . S
C138 O139 1.258 . S
C138 O140 1.263 . S
O139 Co136 1.970 . S
O139 C138 1.258 . S
O140 Co137 1.966 . S
O140 C138 1.263 . S
C141 O142 1.235 . S
C141 O168 1.289 . S
O142 C141 1.235 . S
C143 C145 1.400 . S
C143 N146 1.351 . S
C143 C148 1.501 . S
C144 C145 1.387 . S
C144 N147 1.341 . S
C145 C143 1.400 . S
C145 C144 1.387 . S
N146 Co137 2.022 . S
N146 C143 1.351 . S
N146 N147 1.365 . S
N147 C144 1.341 . S
N147 N146 1.365 . S
N147 H167 0.862 . S
C148 C143 1.501 . S
C148 H149 0.961 . S
C148 H150 0.961 . S
C148 H151 0.960 . S
H149 C148 0.961 . S
H150 C148 0.961 . S
H151 C148 0.960 . S
C152 N153 1.342 . S
C152 C156 1.401 . S
C152 C157 1.499 . S
N153 Co136 1.989 . S
N153 C152 1.342 . S
N153 N154 1.388 . S
N154 Co137 1.993 . S
N154 N153 1.388 . S
N154 C155 1.346 . S
C155 N154 1.346 . S
C155 C156 1.396 . S
C155 C165 1.510 . S
C156 C152 1.401 . S
C156 C155 1.396 . S
C157 C152 1.499 . S
C157 H158 0.959 . S
C157 H159 0.960 . S
C157 H160 0.961 . S
H158 C157 0.959 . S
H159 C157 0.960 . S
H160 C157 0.961 . S
O161 Co136 1.967 . S
O161 C169 1.258 . S
O162 Co137 1.941 . S
O162 C169 1.266 . S
H163 C165 0.959 . S
H164 C165 0.961 . S
C165 C155 1.510 . S
C165 H163 0.959 . S
C165 H164 0.961 . S
C165 H166 0.960 . S
H166 C165 0.960 . S
H167 N147 0.862 . S
O168 Co136 1.920 . S
O168 C141 1.289 . S
C169 O161 1.258 . S
C169 O162 1.266 . S
Co170 O173 1.970 . S
Co170 N187 1.989 . S
Co170 O195 1.967 . S
Co170 O202 1.920 . S
Co171 O174 1.966 . S
Co171 N180 2.022 . S
Co171 N188 1.993 . S
Co171 O196 1.941 . S
C172 O173 1.258 . S
C172 O174 1.263 . S
O173 Co170 1.970 . S
O173 C172 1.258 . S
O174 Co171 1.966 . S
O174 C172 1.263 . S
C175 O176 1.235 . S
C175 O202 1.289 . S
O176 C175 1.235 . S
C177 C179 1.400 . S
C177 N180 1.351 . S
C177 C182 1.501 . S
C178 C179 1.387 . S
C178 N181 1.341 . S
C179 C177 1.400 . S
C179 C178 1.387 . S
N180 Co171 2.022 . S
N180 C177 1.351 . S
N180 N181 1.365 . S
N181 C178 1.341 . S
N181 N180 1.365 . S
N181 H201 0.862 . S
C182 C177 1.501 . S
C182 H183 0.961 . S
C182 H184 0.961 . S
C182 H185 0.960 . S
H183 C182 0.961 . S
H184 C182 0.961 . S
H185 C182 0.960 . S
C186 N187 1.342 . S
C186 C190 1.401 . S
C186 C191 1.499 . S
N187 Co170 1.989 . S
N187 C186 1.342 . S
N187 N188 1.388 . S
N188 Co171 1.993 . S
N188 N187 1.388 . S
N188 C189 1.346 . S
C189 N188 1.346 . S
C189 C190 1.396 . S
C189 C199 1.510 . S
C190 C186 1.401 . S
C190 C189 1.396 . S
C191 C186 1.499 . S
C191 H192 0.959 . S
C191 H193 0.960 . S
C191 H194 0.961 . S
H192 C191 0.959 . S
H193 C191 0.960 . S
H194 C191 0.961 . S
O195 Co170 1.967 . S
O195 C203 1.258 . S
O196 Co171 1.941 . S
O196 C203 1.266 . S
H197 C199 0.959 . S
H198 C199 0.961 . S
C199 C189 1.510 . S
C199 H197 0.959 . S
C199 H198 0.961 . S
C199 H200 0.960 . S
H200 C199 0.960 . S
H201 N181 0.862 . S
O202 Co170 1.920 . S
O202 C175 1.289 . S
C203 O195 1.258 . S
C203 O196 1.266 . S
Co204 O207 1.970 . S
Co204 N221 1.989 . S
Co204 O229 1.967 . S
Co204 O236 1.920 . S
Co205 O208 1.966 . S
Co205 N214 2.022 . S
Co205 N222 1.993 . S
Co205 O230 1.941 . S
C206 O207 1.258 . S
C206 O208 1.263 . S
O207 Co204 1.970 . S
O207 C206 1.258 . S
O208 Co205 1.966 . S
O208 C206 1.263 . S
C209 O210 1.235 . S
C209 O236 1.289 . S
O210 C209 1.235 . S
C211 C213 1.400 . S
C211 N214 1.351 . S
C211 C216 1.501 . S
C212 C213 1.387 . S
C212 N215 1.341 . S
C213 C211 1.400 . S
C213 C212 1.387 . S
N214 Co205 2.022 . S
N214 C211 1.351 . S
N214 N215 1.365 . S
N215 C212 1.341 . S
N215 N214 1.365 . S
N215 H235 0.862 . S
C216 C211 1.501 . S
C216 H217 0.961 . S
C216 H218 0.961 . S
C216 H219 0.960 . S
H217 C216 0.961 . S
H218 C216 0.961 . S
H219 C216 0.960 . S
C220 N221 1.342 . S
C220 C224 1.401 . S
C220 C225 1.499 . S
N221 Co204 1.989 . S
N221 C220 1.342 . S
N221 N222 1.388 . S
N222 Co205 1.993 . S
N222 N221 1.388 . S
N222 C223 1.346 . S
C223 N222 1.346 . S
C223 C224 1.396 . S
C223 C233 1.510 . S
C224 C220 1.401 . S
C224 C223 1.396 . S
C225 C220 1.499 . S
C225 H226 0.959 . S
C225 H227 0.960 . S
C225 H228 0.961 . S
H226 C225 0.959 . S
H227 C225 0.960 . S
H228 C225 0.961 . S
O229 Co204 1.967 . S
O229 C237 1.258 . S
O230 Co205 1.941 . S
O230 C237 1.266 . S
H231 C233 0.959 . S
H232 C233 0.961 . S
C233 C223 1.510 . S
C233 H231 0.959 . S
C233 H232 0.961 . S
C233 H234 0.960 . S
H234 C233 0.960 . S
H235 N215 0.862 . S
O236 Co204 1.920 . S
O236 C209 1.289 . S
C237 O229 1.258 . S
C237 O230 1.266 . S
Co238 O241 1.970 . S
Co238 N255 1.989 . S
Co238 O263 1.967 . S
Co238 O270 1.920 . S
Co239 O242 1.966 . S
Co239 N248 2.022 . S
Co239 N256 1.993 . S
Co239 O264 1.941 . S
C240 O241 1.258 . S
C240 O242 1.263 . S
O241 Co238 1.970 . S
O241 C240 1.258 . S
O242 Co239 1.966 . S
O242 C240 1.263 . S
C243 O244 1.235 . S
C243 O270 1.289 . S
O244 C243 1.235 . S
C245 C247 1.400 . S
C245 N248 1.351 . S
C245 C250 1.501 . S
C246 C247 1.387 . S
C246 N249 1.341 . S
C247 C245 1.400 . S
C247 C246 1.387 . S
N248 Co239 2.022 . S
N248 C245 1.351 . S
N248 N249 1.365 . S
N249 C246 1.341 . S
N249 N248 1.365 . S
N249 H269 0.862 . S
C250 C245 1.501 . S
C250 H251 0.961 . S
C250 H252 0.961 . S
C250 H253 0.960 . S
H251 C250 0.961 . S
H252 C250 0.961 . S
H253 C250 0.960 . S
C254 N255 1.342 . S
C254 C258 1.401 . S
C254 C259 1.499 . S
N255 Co238 1.989 . S
N255 C254 1.342 . S
N255 N256 1.388 . S
N256 Co239 1.993 . S
N256 N255 1.388 . S
N256 C257 1.346 . S
C257 N256 1.346 . S
C257 C258 1.396 . S
C257 C267 1.510 . S
C258 C254 1.401 . S
C258 C257 1.396 . S
C259 C254 1.499 . S
C259 H260 0.959 . S
C259 H261 0.960 . S
C259 H262 0.961 . S
H260 C259 0.959 . S
H261 C259 0.960 . S
H262 C259 0.961 . S
O263 Co238 1.967 . S
O263 C271 1.258 . S
O264 Co239 1.941 . S
O264 C271 1.266 . S
H265 C267 0.959 . S
H266 C267 0.961 . S
C267 C257 1.510 . S
C267 H265 0.959 . S
C267 H266 0.961 . S
C267 H268 0.960 . S
H268 C267 0.960 . S
H269 N249 0.862 . S
O270 Co238 1.920 . S
O270 C243 1.289 . S
C271 O263 1.258 . S
C271 O264 1.266 . S
C272 C273 1.369 . S
C272 C274 1.419 1_455 S
C272 H276 0.930 . S
C273 C272 1.369 . S
C273 C282 1.429 . S
C274 C272 1.419 1_655 S
C274 C275 1.363 . S
C274 H277 0.929 . S
C275 C274 1.363 . S
C275 C281 1.428 . S
H276 C272 0.930 . S
H277 C274 0.929 . S
S278 N279 1.613 1_655 S
S278 N280 1.610 . S
N279 S278 1.613 1_455 S
N279 C282 1.350 1_556 S
N280 S278 1.610 . S
N280 C281 1.351 1_556 S
C281 C275 1.428 . S
C281 N280 1.351 1_554 S
C281 C282 1.434 1_655 S
C282 C273 1.429 . S
C282 N279 1.350 1_554 S
C282 C281 1.434 1_455 S
C283 C284 1.369 1_455 S
C283 C285 1.419 . S
C283 H287 0.930 . S
C284 C283 1.369 1_655 S
C284 C293 1.429 . S
C285 C283 1.419 . S
C285 C286 1.363 . S
C285 H288 0.929 . S
C286 C285 1.363 . S
C286 C292 1.428 1_455 S
H287 C283 0.930 . S
H288 C285 0.929 . S
S289 N290 1.613 . S
S289 N291 1.610 . S
N290 S289 1.613 . S
N290 C293 1.350 . S
N291 S289 1.610 . S
N291 C292 1.351 . S
C292 C286 1.428 1_655 S
C292 N291 1.351 . S
C292 C293 1.434 . S
C293 C284 1.429 . S
C293 N290 1.350 . S
C293 C292 1.434 . S
C294 C295 1.369 . S
C294 C296 1.419 . S
C294 H298 0.930 . S
C295 C294 1.369 . S
C295 C304 1.429 1_565 S
C296 C294 1.419 . S
C296 C297 1.363 1_565 S
C296 H299 0.929 . S
C297 C296 1.363 1_545 S
C297 C303 1.428 . S
H298 C294 0.930 . S
H299 C296 0.929 . S
S300 N301 1.613 . S
S300 N302 1.610 . S
N301 S300 1.613 . S
N301 C304 1.350 . S
N302 S300 1.610 . S
N302 C303 1.351 . S
C303 C297 1.428 . S
C303 N302 1.351 . S
C303 C304 1.434 . S
C304 C295 1.429 1_545 S
C304 N301 1.350 . S
C304 C303 1.434 . S
C305 C306 1.369 . S
C305 C307 1.419 . S
C305 H309 0.930 . S
C306 C305 1.369 . S
C306 C315 1.429 1_565 S
C307 C305 1.419 . S
C307 C308 1.363 1_565 S
C307 H310 0.929 . S
C308 C307 1.363 1_545 S
C308 C314 1.428 . S
H309 C305 0.930 . S
H310 C307 0.929 . S
S311 N312 1.613 . S
S311 N313 1.610 . S
N312 S311 1.613 . S
N312 C315 1.350 . S
N313 S311 1.610 . S
N313 C314 1.351 . S
C314 C308 1.428 . S
C314 N313 1.351 . S
C314 C315 1.434 . S
C315 C306 1.429 1_545 S
C315 N312 1.350 . S
C315 C314 1.434 . S
C316 C317 1.369 . S
C316 C318 1.419 . S
C316 H320 0.930 . S
C317 C316 1.369 . S
C317 C326 1.429 . S
C318 C316 1.419 . S
C318 C319 1.363 . S
C318 H321 0.929 . S
C319 C318 1.363 . S
C319 C325 1.428 . S
H320 C316 0.930 . S
H321 C318 0.929 . S
S322 N323 1.613 . S
S322 N324 1.610 . S
N323 S322 1.613 . S
N323 C326 1.350 . S
N324 S322 1.610 . S
N324 C325 1.351 . S
C325 C319 1.428 . S
C325 N324 1.351 . S
C325 C326 1.434 . S
C326 C317 1.429 . S
C326 N323 1.350 . S
C326 C325 1.434 . S
C327 C328 1.369 . S
C327 C329 1.419 . S
C327 H331 0.930 . S
C328 C327 1.369 . S
C328 C337 1.429 . S
C329 C327 1.419 . S
C329 C330 1.363 . S
C329 H332 0.929 . S
C330 C329 1.363 . S
C330 C336 1.428 . S
H331 C327 0.930 . S
H332 C329 0.929 . S
S333 N334 1.613 . S
S333 N335 1.610 . S
N334 S333 1.613 . S
N334 C337 1.350 . S
N335 S333 1.610 . S
N335 C336 1.351 . S
C336 C330 1.428 . S
C336 N335 1.351 . S
C336 C337 1.434 . S
C337 C328 1.429 . S
C337 N334 1.350 . S
C337 C336 1.434 . S
C338 C339 1.369 . S
C338 C340 1.419 . S
C338 H342 0.930 . S
C339 C338 1.369 . S
C339 C348 1.429 . S
C340 C338 1.419 . S
C340 C341 1.363 . S
C340 H343 0.929 . S
C341 C340 1.363 . S
C341 C347 1.428 . S
H342 C338 0.930 . S
H343 C340 0.929 . S
S344 N345 1.613 . S
S344 N346 1.610 . S
N345 S344 1.613 . S
N345 C348 1.350 . S
N346 S344 1.610 . S
N346 C347 1.351 . S
C347 C341 1.428 . S
C347 N346 1.351 . S
C347 C348 1.434 . S
C348 C339 1.429 . S
C348 N345 1.350 . S
C348 C347 1.434 . S
C349 C350 1.369 . S
C349 C351 1.419 . S
C349 H353 0.930 . S
C350 C349 1.369 . S
C350 C359 1.429 . S
C351 C349 1.419 . S
C351 C352 1.363 . S
C351 H354 0.929 . S
C352 C351 1.363 . S
C352 C358 1.428 . S
H353 C349 0.930 . S
H354 C351 0.929 . S
S355 N356 1.613 . S
S355 N357 1.610 . S
N356 S355 1.613 . S
N356 C359 1.350 . S
N357 S355 1.610 . S
N357 C358 1.351 . S
C358 C352 1.428 . S
C358 N357 1.351 . S
C358 C359 1.434 . S
C359 C350 1.429 . S
C359 N356 1.350 . S
C359 C358 1.434 . S
C360 C361 1.369 . S
C360 C362 1.419 . S
C360 H364 0.930 . S
C361 C360 1.369 . S
C361 C370 1.429 . S
C362 C360 1.419 . S
C362 C363 1.363 . S
C362 H365 0.929 . S
C363 C362 1.363 . S
C363 C369 1.428 . S
H364 C360 0.930 . S
H365 C362 0.929 . S
S366 N367 1.613 . S
S366 N368 1.610 . S
N367 S366 1.613 . S
N367 C370 1.350 . S
N368 S366 1.610 . S
N368 C369 1.351 . S
C369 C363 1.428 . S
C369 N368 1.351 . S
C369 C370 1.434 . S
C370 C361 1.429 . S
C370 N367 1.350 . S
C370 C369 1.434 . S
C371 C372 1.369 . S
C371 C373 1.419 . S
C371 H375 0.930 . S
C372 C371 1.369 . S
C372 C381 1.429 . S
C373 C371 1.419 . S
C373 C374 1.363 . S
C373 H376 0.929 . S
C374 C373 1.363 . S
C374 C380 1.428 . S
H375 C371 0.930 . S
H376 C373 0.929 . S
S377 N378 1.613 . S
S377 N379 1.610 . S
N378 S377 1.613 . S
N378 C381 1.350 . S
N379 S377 1.610 . S
N379 C380 1.351 . S
C380 C374 1.428 . S
C380 N379 1.351 . S
C380 C381 1.434 . S
C381 C372 1.429 . S
C381 N378 1.350 . S
C381 C380 1.434 . S
C382 C383 1.369 . S
C382 C384 1.419 . S
C382 H386 0.930 . S
C383 C382 1.369 . S
C383 C392 1.429 . S
C384 C382 1.419 . S
C384 C385 1.363 . S
C384 H387 0.929 . S
C385 C384 1.363 . S
C385 C391 1.428 . S
H386 C382 0.930 . S
H387 C384 0.929 . S
S388 N389 1.609 1_556 S
S388 N390 1.612 . S
N389 S388 1.609 1_554 S
N389 C392 1.350 . S
N390 S388 1.612 . S
N390 C391 1.351 1_556 S
C391 C385 1.428 . S
C391 N390 1.351 1_554 S
C391 C392 1.434 . S
C392 C383 1.429 . S
C392 N389 1.350 . S
C392 C391 1.434 . S
C393 C394 1.369 . S
C393 C395 1.419 . S
C393 H397 0.930 . S
C394 C393 1.369 . S
C394 C403 1.429 . S
C395 C393 1.419 . S
C395 C396 1.363 . S
C395 H398 0.929 . S
C396 C395 1.363 . S
C396 C402 1.428 . S
H397 C393 0.930 . S
H398 C395 0.929 . S
S399 N400 1.613 . S
S399 N401 1.610 1_556 S
N400 S399 1.613 . S
N400 C403 1.350 1_556 S
N401 S399 1.610 1_554 S
N401 C402 1.351 . S
C402 C396 1.428 . S
C402 N401 1.351 . S
C402 C403 1.434 . S
C403 C394 1.429 . S
C403 N400 1.350 1_554 S
C403 C402 1.434 . S
C404 C405 1.369 1_655 S
C404 C406 1.419 . S
C404 H408 0.930 . S
C405 C404 1.369 1_455 S
C405 C414 1.429 . S
C406 C404 1.419 . S
C406 C407 1.363 . S
C406 H409 0.929 . S
C407 C406 1.363 . S
C407 C413 1.428 1_655 S
H408 C404 0.930 . S
H409 C406 0.929 . S
S410 N411 1.613 1_565 S
S410 N412 1.610 1_565 S
N411 S410 1.613 1_545 S
N411 C414 1.350 . S
N412 S410 1.610 1_545 S
N412 C413 1.351 . S
C413 C407 1.428 1_455 S
C413 N412 1.351 . S
C413 C414 1.434 . S
C414 C405 1.429 . S
C414 N411 1.350 . S
C414 C413 1.434 . S
C415 C416 1.369 . S
C415 C417 1.419 . S
C415 H419 0.930 . S
C416 C415 1.369 . S
C416 C425 1.429 1_455 S
C417 C415 1.419 . S
C417 C418 1.363 1_455 S
C417 H420 0.929 . S
C418 C417 1.363 1_655 S
C418 C424 1.428 . S
H419 C415 0.930 . S
H420 C417 0.929 . S
S421 N422 1.613 . S
S421 N423 1.610 . S
N422 S421 1.613 . S
N422 C425 1.350 . S
N423 S421 1.610 . S
N423 C424 1.351 . S
C424 C418 1.428 . S
C424 N423 1.351 . S
C424 C425 1.434 . S
C425 C416 1.429 1_655 S
C425 N422 1.350 . S
C425 C424 1.434 . S
C426 C427 1.369 . S
C426 C428 1.406 1_455 S
C426 H430 0.930 . S
C427 C426 1.369 . S
C427 C436 1.429 1_455 S
C428 C426 1.406 1_655 S
C428 C429 1.376 . S
C428 H431 0.929 1_656 S
C429 C428 1.376 . S
C429 C435 1.428 . S
H430 C426 0.930 . S
H431 C428 0.929 1_454 S
S432 N433 1.613 . S
S432 N434 1.610 . S
N433 S432 1.613 . S
N433 C436 1.350 . S
N434 S432 1.610 . S
N434 C435 1.351 . S
C435 C429 1.428 . S
C435 N434 1.351 . S
C435 C436 1.434 . S
C436 C427 1.429 1_655 S
C436 N433 1.350 . S
C436 C435 1.434 . S
C437 C438 1.369 . S
C437 C439 1.419 . S
C437 H441 0.930 . S
C438 C437 1.369 . S
C438 C447 1.429 1_455 S
C439 C437 1.419 . S
C439 C440 1.363 1_455 S
C439 H442 0.929 . S
C440 C439 1.363 1_655 S
C440 C446 1.428 . S
H441 C437 0.930 . S
H442 C439 0.929 . S
S443 N444 1.613 . S
S443 N445 1.610 1_554 S
N444 S443 1.613 . S
N444 C447 1.350 1_564 S
N445 S443 1.610 1_556 S
N445 C446 1.351 1_565 S
C446 C440 1.428 . S
C446 N445 1.351 1_545 S
C446 C447 1.434 . S
C447 C438 1.429 1_655 S
C447 N444 1.350 1_546 S
C447 C446 1.434 . S
C448 C449 1.369 1_556 S
C448 C450 1.419 . S
C448 H452 0.930 . S
C449 C448 1.369 1_554 S
C449 C458 1.429 1_554 S
C450 C448 1.419 . S
C450 C451 1.363 . S
C450 H453 0.929 . S
C451 C450 1.363 . S
C451 C457 1.428 . S
H452 C448 0.930 . S
H453 C450 0.929 . S
S454 N455 1.613 1_556 S
S454 N456 1.610 . S
N455 S454 1.613 1_554 S
N455 C458 1.350 1_554 S
N456 S454 1.610 . S
N456 C457 1.351 . S
C457 C451 1.428 . S
C457 N456 1.351 . S
C457 C458 1.434 . S
C458 C449 1.429 1_556 S
C458 N455 1.350 1_556 S
C458 C457 1.434 . S
C459 C460 1.369 . S
C459 C461 1.419 . S
C459 H463 0.930 . S
C460 C459 1.369 . S
C460 C469 1.429 . S
C461 C459 1.419 . S
C461 C462 1.363 1_556 S
C461 H464 0.929 1_556 S
C462 C461 1.363 1_554 S
C462 C468 1.428 1_554 S
H463 C459 0.930 . S
H464 C461 0.929 1_554 S
S465 N466 1.613 . S
S465 N467 1.610 . S
N466 S465 1.613 . S
N466 C469 1.350 . S
N467 S465 1.610 . S
N467 C468 1.351 . S
C468 C462 1.428 1_556 S
C468 N467 1.351 . S
C468 C469 1.434 . S
C469 C460 1.429 . S
C469 N466 1.350 . S
C469 C468 1.434 . S
C470 C471 1.369 . S
C470 C472 1.419 . S
C470 H474 0.930 . S
C471 C470 1.369 . S
C471 C480 1.429 . S
C472 C470 1.419 . S
C472 C473 1.363 . S
C472 H475 0.929 . S
C473 C472 1.363 . S
C473 C479 1.428 . S
H474 C470 0.930 . S
H475 C472 0.929 . S
S476 N477 1.613 . S
S476 N478 1.610 . S
N477 S476 1.613 . S
N477 C480 1.350 . S
N478 S476 1.610 . S
N478 C479 1.351 . S
C479 C473 1.428 . S
C479 N478 1.351 . S
C479 C480 1.434 . S
C480 C471 1.429 . S
C480 N477 1.350 . S
C480 C479 1.434 . S
C481 C482 1.369 . S
C481 C483 1.419 . S
C481 H485 0.930 . S
C482 C481 1.369 . S
C482 C491 1.429 . S
C483 C481 1.419 . S
C483 C484 1.363 . S
C483 H486 0.929 . S
C484 C483 1.363 . S
C484 C490 1.428 . S
H485 C481 0.930 . S
H486 C483 0.929 . S
S487 N488 1.613 . S
S487 N489 1.610 . S
N488 S487 1.613 . S
N488 C491 1.350 . S
N489 S487 1.610 . S
N489 C490 1.351 . S
C490 C484 1.428 . S
C490 N489 1.351 . S
C490 C491 1.434 . S
C491 C482 1.429 . S
C491 N488 1.350 . S
C491 C490 1.434 . S
C273 C33 1.571 . S
C275 C67 1.572 . S
C284 C135 1.575 . S
C286 C101 1.569 . S
C295 C169 1.575 . S
C297 C203 1.569 . S
C306 C271 1.575 . S
C308 C237 1.569 . S
C317 C179 1.397 . S
C319 C20 1.520 . S
C328 C145 1.384 . S
C330 C54 1.523 . S
C339 C247 1.390 . S
C341 C88 1.522 . S
C350 C122 1.519 . S
C352 C213 1.396 . S
C361 C43 1.393 . S
C363 C156 1.521 . S
C372 C9 1.390 . S
C374 C190 1.523 . S
C383 C224 1.524 . S
C385 C111 1.385 1_554 S
C394 C77 1.391 1_554 S
C396 C258 1.521 . S
C405 C5 1.634 . S
C407 C107 1.637 . S
C416 C73 1.636 . S
C418 C39 1.635 . S
C427 C70 1.233 . S
C429 C36 1.235 1_556 S
C438 C2 1.241 1_556 S
C440 C104 1.240 . S
C449 C243 1.638 . S
C451 C141 1.634 . S
C460 C175 1.639 . S
C462 C209 1.633 . S
C471 C206 1.233 . S
C473 C172 1.234 . S
C482 C138 1.232 . S
C484 C240 1.234 . S
