# Generated by pormake.
# Topology qtz, (4)-cn, num edge types: 1
# Building blocks:
#     Node 0, Type 0, BuildingBlock: UXUYUI_clean_sbu_0, # of connection points: 4
#     Node 1, Type 0, BuildingBlock: UXUYUI_clean_sbu_0, # of connection points: 4
#     Node 2, Type 0, BuildingBlock: UXUYUI_clean_sbu_0, # of connection points: 4
#     Edge 3, Type (0, 0), BuildingBlock: EZIPEK_clean_linker_0, # of connection points: 2
#     Edge 4, Type (0, 0), BuildingBlock: EZIPEK_clean_linker_0, # of connection points: 2
#     Edge 5, Type (0, 0), BuildingBlock: EZIPEK_clean_linker_0, # of connection points: 2
#     Edge 6, Type (0, 0), BuildingBlock: EZIPEK_clean_linker_0, # of connection points: 2
#     Edge 7, Type (0, 0), BuildingBlock: EZIPEK_clean_linker_0, # of connection points: 2
#     Edge 8, Type (0, 0), BuildingBlock: EZIPEK_clean_linker_0, # of connection points: 2
# Relax obj value: 0.181
# Max RMSD: 0.212
# Mean RMSD: 0.212
data_MOF--net-qtz--node1-UXUYUI_clean_sbu_0--edge1-EZIPEK_clean_linker_0
_symmetry_space_group_name_H-M    P1
_symmetry_Int_Tables_number       1
_symmetry_cell_setting            triclinic
loop_
_symmetry_equiv_pos_as_xyz
'x, y, z'
_cell_length_a     28.105624
_cell_length_b     28.087008
_cell_length_c     33.486516
_cell_angle_alpha  89.985025
_cell_angle_beta   90.030343
_cell_angle_gamma 120.01309
loop_
_atom_site_label
_atom_site_type_symbol
_atom_site_fract_x
_atom_site_fract_y
_atom_site_fract_z
_atom_type_partial_charge
Li0 Li 0.03461 0.49092 0.13888 0.0
Li1 Li 0.03477 0.55157 0.18923 0.0
Li2 Li 0.96432 0.45551 0.18897 0.0
Li3 Li 0.9645 0.51639 0.13868 0.0
C4 C 0.09791 0.50446 0.20664 0.0
N5 N 0.20632 0.54139 0.22646 0.0
C6 C 0.14028 0.54607 0.18422 0.0
C7 C 0.11069 0.48167 0.23913 0.0
C8 C 0.19481 0.56415 0.19472 0.0
C9 C 0.16575 0.50089 0.24867 0.0
C10 C 0.05446 0.61705 0.12179 0.0
C11 C 0.04124 0.69411 0.13486 0.0
N12 N 0.07431 0.72135 0.10339 0.0
C13 C 0.08834 0.64582 0.0896 0.0
C14 C 0.03072 0.64137 0.14466 0.0
C15 C 0.09788 0.6985 0.08077 0.0
C16 C 0.09099 0.50024 0.06852 0.0
N17 N 0.07956 0.47587 0.10503 0.0
C18 C 0.13688 0.43726 0.09205 0.0
C19 C 0.10107 0.44426 0.11704 0.0
C20 C 0.15028 0.46316 0.05468 0.0
C21 C 0.12666 0.49449 0.04268 0.0
H22 H 0.07307 0.52495 0.05984 0.0
H23 H 0.09136 0.42545 0.14629 0.0
C24 C 0.06749 0.60505 0.26303 0.0
N25 N 0.0808 0.61084 0.22361 0.0
C26 C 0.10267 0.64422 0.29057 0.0
C27 C 0.16378 0.69525 0.23623 0.0
C28 C 0.12773 0.65487 0.20981 0.0
C29 C 0.15164 0.68955 0.27714 0.0
H30 H 0.03031 0.56911 0.27313 0.0
H31 H 0.13815 0.65786 0.17851 0.0
C32 C 0.9445 0.39033 0.12141 0.0
N33 N 0.9242 0.28598 0.10269 0.0
C34 C 0.9115 0.36229 0.08865 0.0
C35 C 0.96712 0.36525 0.14469 0.0
C36 C 0.90173 0.30956 0.07966 0.0
C37 C 0.95639 0.3125 0.13472 0.0
C38 C 0.90149 0.50269 0.20739 0.0
C39 C 0.85842 0.46293 0.18435 0.0
C40 C 0.88974 0.52352 0.24153 0.0
C41 C 0.80423 0.44476 0.19582 0.0
C42 C 0.83499 0.50426 0.25204 0.0
N43 N 0.79373 0.46561 0.22916 0.0
C44 C 0.93355 0.39813 0.26156 0.0
C45 C 0.86919 0.35438 0.20916 0.0
C46 C 0.89852 0.35812 0.28868 0.0
N47 N 0.91812 0.39577 0.2228 0.0
C48 C 0.83294 0.31359 0.23522 0.0
C49 C 0.8474 0.3158 0.27549 0.0
H50 H 0.97244 0.43195 0.27157 0.0
H51 H 0.85758 0.35391 0.17833 0.0
C52 C 0.91112 0.50946 0.06724 0.0
N53 N 0.92008 0.5318 0.10439 0.0
C54 C 0.87616 0.51553 0.04082 0.0
C55 C 0.86152 0.56887 0.09102 0.0
C56 C 0.89685 0.5618 0.11651 0.0
C57 C 0.85051 0.54489 0.05296 0.0
H58 H 0.93043 0.48605 0.05848 0.0
H59 H 0.90479 0.5792 0.14621 0.0
O60 O 0.04407 0.48642 0.19746 0.0
O61 O 0.04472 0.56532 0.13053 0.0
O62 O 0.95438 0.44204 0.13035 0.0
O63 O 0.95499 0.52051 0.19733 0.0
H64 H 0.13132 0.56435 0.15902 0.0
H65 H 0.07834 0.44953 0.25683 0.0
H66 H 0.22797 0.59633 0.17764 0.0
H67 H 0.17624 0.48363 0.27377 0.0
H68 H 0.02314 0.7134 0.15231 0.0
H69 H 0.10713 0.62763 0.07164 0.0
H70 H 0.00462 0.62 0.16981 0.0
H71 H 0.12402 0.72123 0.05593 0.0
H72 H 0.15485 0.41304 0.10202 0.0
H73 H 0.13653 0.51499 0.01396 0.0
H74 H 0.09253 0.63864 0.32206 0.0
H75 H 0.20158 0.72962 0.22512 0.0
H76 H 0.89359 0.38108 0.07037 0.0
H77 H 0.99257 0.3861 0.17025 0.0
H78 H 0.87627 0.2874 0.05438 0.0
H79 H 0.97364 0.29263 0.15248 0.0
H80 H 0.86663 0.44603 0.15797 0.0
H81 H 0.92265 0.55412 0.25978 0.0
H82 H 0.77053 0.41399 0.17827 0.0
H83 H 0.8253 0.51998 0.27842 0.0
H84 H 0.91043 0.36088 0.31973 0.0
H85 H 0.7935 0.28148 0.22439 0.0
H86 H 0.86822 0.49655 0.01158 0.0
H87 H 0.84205 0.59166 0.10109 0.0
Li88 Li 0.55129 0.03857 0.47284 0.0
Li89 Li 0.48786 0.03545 0.52371 0.0
Li90 Li 0.51802 0.96549 0.52441 0.0
Li91 Li 0.45195 0.96247 0.47483 0.0
C92 C 0.61613 0.06935 0.54377 0.0
N93 N 0.72394 0.11511 0.56871 0.0
C94 C 0.64112 0.11907 0.56471 0.0
C95 C 0.64573 0.04261 0.53592 0.0
C96 C 0.69574 0.14165 0.57693 0.0
C97 C 0.70024 0.06646 0.54868 0.0
C98 C 0.46829 0.08156 0.46152 0.0
C99 C 0.3999 0.1092 0.46583 0.0
N100 N 0.43889 0.16165 0.45665 0.0
C101 C 0.50759 0.13558 0.45173 0.0
C102 C 0.41391 0.06807 0.46825 0.0
C103 C 0.49194 0.17553 0.44955 0.0
C104 C 0.60965 0.07049 0.4004 0.0
N105 N 0.60987 0.08625 0.43883 0.0
C106 C 0.68933 0.17373 0.42649 0.0
C107 C 0.64853 0.13671 0.45222 0.0
C108 C 0.68975 0.15855 0.3867 0.0
C109 C 0.64974 0.10622 0.37363 0.0
H110 H 0.57768 0.03053 0.39041 0.0
H111 H 0.64671 0.14891 0.4825 0.0
C112 C 0.43301 0.06185 0.58385 0.0
N113 N 0.47452 0.08241 0.55668 0.0
C114 C 0.42708 0.09722 0.61011 0.0
C115 C 0.50593 0.17406 0.5792 0.0
C116 C 0.51067 0.13725 0.55391 0.0
C117 C 0.46421 0.15392 0.60802 0.0
H118 H 0.40551 0.01798 0.58588 0.0
H119 H 0.54402 0.15223 0.53264 0.0
C120 C 0.54072 0.92831 0.44885 0.0
N121 N 0.58345 0.86807 0.41475 0.0
C122 C 0.50586 0.87369 0.43747 0.0
C123 C 0.59731 0.95239 0.44253 0.0
C124 C 0.52826 0.8439 0.42038 0.0
C125 C 0.61811 0.92124 0.42536 0.0
C126 C 0.39232 0.91253 0.54129 0.0
C127 C 0.38541 0.8623 0.55469 0.0
C128 C 0.34629 0.91842 0.53542 0.0
C129 C 0.3324 0.81852 0.56152 0.0
C130 C 0.29396 0.87363 0.54251 0.0
N131 N 0.28815 0.82503 0.55529 0.0
C132 C 0.52769 0.92735 0.59864 0.0
C133 C 0.5481 0.88446 0.54562 0.0
C134 C 0.53225 0.89282 0.62647 0.0
N135 N 0.53462 0.92191 0.55904 0.0
C136 C 0.55323 0.84922 0.57241 0.0
C137 C 0.54419 0.85267 0.61317 0.0
H138 H 0.51664 0.95727 0.60838 0.0
H139 H 0.55338 0.88062 0.51418 0.0
C140 C 0.37782 0.93534 0.41045 0.0
N141 N 0.39137 0.91415 0.44213 0.0
C142 C 0.33688 0.90042 0.38379 0.0
C143 C 0.32366 0.82278 0.42351 0.0
C144 C 0.36518 0.85907 0.44908 0.0
C145 C 0.30982 0.84346 0.39014 0.0
H146 H 0.39985 0.97923 0.4053 0.0
H147 H 0.37769 0.84307 0.47372 0.0
O148 O 0.56269 0.04682 0.53162 0.0
O149 O 0.483 0.04206 0.46443 0.0
O150 O 0.51939 0.95819 0.46538 0.0
O151 O 0.44389 0.95583 0.53436 0.0
H152 H 0.61863 0.14011 0.57129 0.0
H153 H 0.62675 0.00368 0.52046 0.0
H154 H 0.7157 0.18024 0.59299 0.0
H155 H 0.72365 0.04621 0.54276 0.0
H156 H 0.35802 0.09943 0.47122 0.0
H157 H 0.54981 0.14664 0.44622 0.0
H158 H 0.38291 0.02632 0.47536 0.0
H159 H 0.52199 0.21759 0.44227 0.0
H160 H 0.71944 0.2142 0.43716 0.0
H161 H 0.6489 0.09375 0.34292 0.0
H162 H 0.39478 0.08057 0.63235 0.0
H163 H 0.53544 0.2176 0.57718 0.0
H164 H 0.46204 0.85435 0.44198 0.0
H165 H 0.62497 0.99475 0.45063 0.0
H166 H 0.50174 0.80154 0.41159 0.0
H167 H 0.66181 0.93937 0.42039 0.0
H168 H 0.4205 0.85691 0.55937 0.0
H169 H 0.35092 0.95709 0.52537 0.0
H170 H 0.32643 0.77934 0.57168 0.0
H171 H 0.25796 0.87752 0.53788 0.0
H172 H 0.52482 0.89615 0.65781 0.0
H173 H 0.56235 0.8184 0.56138 0.0
H174 H 0.32724 0.91745 0.35807 0.0
H175 H 0.30375 0.77893 0.42892 0.0
Li176 Li 0.48482 0.44826 0.80811 0.0
Li177 Li 0.54761 0.51312 0.85796 0.0
Li178 Li 0.44806 0.48537 0.85895 0.0
Li179 Li 0.51104 0.54804 0.80857 0.0
C180 C 0.45394 0.38744 0.88296 0.0
N181 N 0.39589 0.28315 0.91544 0.0
C182 C 0.48151 0.36506 0.90351 0.0
C183 C 0.39675 0.35698 0.87944 0.0
C184 C 0.45147 0.3122 0.91955 0.0
C185 C 0.36816 0.30431 0.89594 0.0
C186 C 0.61017 0.52371 0.79607 0.0
C187 C 0.70824 0.58403 0.80015 0.0
N188 N 0.71575 0.54075 0.79219 0.0
C189 C 0.61883 0.47988 0.78766 0.0
C190 C 0.65518 0.5763 0.80205 0.0
C191 C 0.67254 0.48933 0.7859 0.0
C192 C 0.47402 0.39916 0.7341 0.0
N193 N 0.47119 0.38866 0.77393 0.0
C194 C 0.45731 0.29881 0.76151 0.0
C195 C 0.46269 0.33956 0.78801 0.0
C196 C 0.46156 0.30924 0.72035 0.0
C197 C 0.4694 0.35977 0.70655 0.0
H198 H 0.48129 0.43879 0.72386 0.0
H199 H 0.46147 0.3323 0.81968 0.0
C200 C 0.63103 0.57209 0.91562 0.0
N201 N 0.60836 0.52767 0.89094 0.0
C202 C 0.673 0.58016 0.94195 0.0
C203 C 0.66784 0.49707 0.91649 0.0
C204 C 0.62609 0.49065 0.8907 0.0
C205 C 0.69117 0.54192 0.9427 0.0
H206 H 0.61563 0.60046 0.91555 0.0
H207 H 0.60694 0.45546 0.87103 0.0
C208 C 0.38575 0.45531 0.78485 0.0
N209 N 0.28097 0.40172 0.75291 0.0
C210 C 0.36327 0.48544 0.76835 0.0
C211 C 0.35527 0.39788 0.78435 0.0
C212 C 0.31013 0.45762 0.75259 0.0
C213 C 0.3023 0.37156 0.76827 0.0
C214 C 0.52412 0.61183 0.87118 0.0
C215 C 0.48296 0.62209 0.88447 0.0
C216 C 0.57588 0.65585 0.86139 0.0
C217 C 0.49407 0.67635 0.88717 0.0
C218 C 0.58533 0.70951 0.86439 0.0
N219 N 0.54456 0.71856 0.87709 0.0
C220 C 0.3911 0.4575 0.93149 0.0
C221 C 0.34704 0.47917 0.87997 0.0
C222 C 0.35111 0.45151 0.95892 0.0
N223 N 0.38842 0.47125 0.89294 0.0
C224 C 0.3062 0.47363 0.90638 0.0
C225 C 0.30858 0.46031 0.94636 0.0
H226 H 0.42511 0.45252 0.9411 0.0
H227 H 0.34676 0.49172 0.84957 0.0
C228 C 0.56418 0.62729 0.74736 0.0
N229 N 0.52377 0.60815 0.77539 0.0
C230 C 0.57114 0.66915 0.72127 0.0
C231 C 0.49557 0.6714 0.75403 0.0
C232 C 0.48983 0.62934 0.77922 0.0
C233 C 0.53618 0.69115 0.7244 0.0
H234 H 0.59017 0.60924 0.74473 0.0
H235 H 0.45762 0.61284 0.80142 0.0
O236 O 0.48287 0.43923 0.86713 0.0
O237 O 0.55788 0.51512 0.79858 0.0
O238 O 0.43802 0.48204 0.80003 0.0
O239 O 0.5138 0.55895 0.86787 0.0
H240 H 0.52564 0.38814 0.90699 0.0
H241 H 0.37449 0.37399 0.86462 0.0
H242 H 0.47234 0.29432 0.93534 0.0
H243 H 0.3239 0.28033 0.89339 0.0
H244 H 0.74345 0.62444 0.805 0.0
H245 H 0.5845 0.4389 0.78294 0.0
H246 H 0.64918 0.61069 0.80836 0.0
H247 H 0.67986 0.45575 0.77965 0.0
H248 H 0.45161 0.26022 0.77296 0.0
H249 H 0.47314 0.369 0.67491 0.0
H250 H 0.69016 0.61493 0.96216 0.0
H251 H 0.68098 0.4668 0.91668 0.0
H252 H 0.38642 0.52985 0.7679 0.0
H253 H 0.37236 0.37371 0.79582 0.0
H254 H 0.29211 0.48047 0.74002 0.0
H255 H 0.27824 0.32714 0.76783 0.0
H256 H 0.44279 0.58856 0.89243 0.0
H257 H 0.60823 0.64862 0.85122 0.0
H258 H 0.46253 0.68489 0.89722 0.0
H259 H 0.62505 0.74395 0.85659 0.0
H260 H 0.35408 0.44167 0.98976 0.0
H261 H 0.27408 0.48129 0.89611 0.0
H262 H 0.6026 0.68346 0.69844 0.0
H263 H 0.46781 0.68746 0.75691 0.0
C264 C 0.21515 0.41274 0.978 0.0
C265 C 0.26862 0.4594 0.97561 0.0
C266 C 0.24647 0.50434 0.02929 0.0
C267 C 0.19143 0.46023 0.02879 0.0
N268 N 0.12102 0.3748 0.00068 0.0
N269 N 0.33387 0.55255 0.99488 0.0
C270 C 0.17509 0.41488 0.00268 0.0
C271 C 0.28405 0.50598 0.00027 0.0
N272 N 0.20319 0.36609 0.9573 0.0
N273 N 0.263 0.54409 0.05806 0.0
H274 H 0.36288 0.5553 0.9742 0.0
H275 H 0.34493 0.58991 0.00864 0.0
H276 H 0.23642 0.54463 0.07955 0.0
H277 H 0.30387 0.57395 0.06279 0.0
H278 H 0.16692 0.32878 0.96089 0.0
H279 H 0.23147 0.36342 0.93862 0.0
H280 H 0.10529 0.34393 0.97916 0.0
H281 H 0.09083 0.37442 0.01903 0.0
C282 C 0.8132 0.23067 0.31735 0.0
C283 C 0.80749 0.2756 0.30428 0.0
C284 C 0.72227 0.24109 0.34258 0.0
C285 C 0.73033 0.19867 0.35819 0.0
N286 N 0.78668 0.15681 0.36529 0.0
N287 N 0.76223 0.32917 0.30889 0.0
C288 C 0.77673 0.19444 0.34691 0.0
C289 C 0.76357 0.28241 0.31815 0.0
N290 N 0.8525 0.22182 0.30065 0.0
N291 N 0.67433 0.24087 0.35013 0.0
H292 H 0.7915 0.36024 0.29077 0.0
H293 H 0.73479 0.33941 0.32172 0.0
H294 H 0.64317 0.21148 0.36812 0.0
H295 H 0.66335 0.267 0.33601 0.0
H296 H 0.85498 0.18654 0.30561 0.0
H297 H 0.88036 0.24796 0.2793 0.0
H298 H 0.82283 0.15558 0.36162 0.0
H299 H 0.76048 0.1292 0.38675 0.0
C300 C 0.49708 0.75739 0.64144 0.0
C301 C 0.54302 0.81148 0.64146 0.0
C302 C 0.58331 0.78781 0.69762 0.0
C303 C 0.53967 0.73256 0.69525 0.0
N304 N 0.46064 0.66214 0.66023 0.0
N305 N 0.63382 0.87662 0.665 0.0
C306 C 0.49813 0.71657 0.66578 0.0
C307 C 0.58736 0.8263 0.66828 0.0
N308 N 0.45159 0.74547 0.61921 0.0
N309 N 0.61971 0.80385 0.72868 0.0
H310 H 0.63795 0.90594 0.64403 0.0
H311 H 0.66981 0.8877 0.68079 0.0
H312 H 0.61809 0.77674 0.75065 0.0
H313 H 0.64878 0.8447 0.7345 0.0
H314 H 0.4146 0.70851 0.62148 0.0
H315 H 0.44902 0.77425 0.60101 0.0
H316 H 0.43312 0.64754 0.63642 0.0
H317 H 0.46023 0.63085 0.6773 0.0
C318 C 0.78909 0.58142 0.96507 0.0
C319 C 0.7322 0.54655 0.97254 0.0
C320 C 0.75287 0.511 0.03292 0.0
C321 C 0.80971 0.54764 0.02646 0.0
N322 N 0.88218 0.62423 0.99101 0.0
N323 N 0.65913 0.48613 0.01685 0.0
C324 C 0.82792 0.58492 0.99389 0.0
C325 C 0.71385 0.51379 0.00755 0.0
N326 N 0.80592 0.60968 0.92984 0.0
N327 N 0.73629 0.47207 0.06231 0.0
H328 H 0.62923 0.48675 0.99874 0.0
H329 H 0.64373 0.46639 0.04404 0.0
H330 H 0.76351 0.46909 0.08195 0.0
H331 H 0.69599 0.44005 0.06546 0.0
H332 H 0.84671 0.63091 0.92054 0.0
H333 H 0.77856 0.60892 0.90843 0.0
H334 H 0.89732 0.65619 0.97035 0.0
H335 H 0.91169 0.62756 0.01149 0.0
C336 C 0.28317 0.77191 0.33682 0.0
C337 C 0.26937 0.80503 0.36065 0.0
C338 C 0.18031 0.7664 0.32677 0.0
C339 C 0.19193 0.72929 0.30608 0.0
N340 N 0.24985 0.68931 0.29709 0.0
N341 N 0.20178 0.82798 0.38316 0.0
C342 C 0.24212 0.72994 0.31269 0.0
C343 C 0.21706 0.80074 0.35697 0.0
N344 N 0.33598 0.78173 0.33621 0.0
N345 N 0.13506 0.77 0.31672 0.0
H346 H 0.22753 0.85336 0.40576 0.0
H347 H 0.16208 0.82181 0.38469 0.0
H348 H 0.1073 0.74558 0.29468 0.0
H349 H 0.12756 0.80029 0.32776 0.0
H350 H 0.34963 0.76273 0.31623 0.0
H351 H 0.36756 0.81269 0.35301 0.0
H352 H 0.28317 0.68443 0.30449 0.0
H353 H 0.22047 0.65726 0.27968 0.0
C354 C 0.50664 0.25957 0.69106 0.0
C355 C 0.46128 0.2686 0.69189 0.0
C356 C 0.41903 0.20481 0.63585 0.0
C357 C 0.46193 0.19212 0.63756 0.0
N358 N 0.54036 0.19863 0.67214 0.0
N359 N 0.36986 0.2433 0.66999 0.0
C360 C 0.50395 0.21694 0.66677 0.0
C361 C 0.41611 0.23932 0.66566 0.0
N362 N 0.5532 0.29311 0.71228 0.0
N363 N 0.38226 0.18549 0.60498 0.0
H364 H 0.36625 0.26808 0.69158 0.0
H365 H 0.33348 0.21857 0.65456 0.0
H366 H 0.38318 0.16019 0.58256 0.0
H367 H 0.35376 0.19816 0.59975 0.0
H368 H 0.58962 0.29219 0.70934 0.0
H369 H 0.55727 0.32545 0.73004 0.0
H370 H 0.56817 0.21122 0.69577 0.0
H371 H 0.53934 0.16689 0.65531 0.0
loop_
_geom_bond_atom_site_label_1
_geom_bond_atom_site_label_2
_geom_bond_distance
_geom_bond_site_symmetry_2
_ccdc_geom_bond_type
Li0 N17 1.990 . S
Li0 O60 1.956 . S
Li0 O61 1.970 . S
Li0 O62 1.961 1_455 S
Li1 N25 1.990 . S
Li1 O60 1.970 . S
Li1 O61 1.956 . S
Li1 O63 1.961 1_455 S
Li2 N47 1.990 . S
Li2 O60 1.961 1_655 S
Li2 O62 1.956 . S
Li2 O63 1.970 . S
Li3 N53 1.990 . S
Li3 O61 1.961 1_655 S
Li3 O62 1.970 . S
Li3 O63 1.956 . S
C4 C6 1.348 . S
C4 C7 1.356 . S
C4 O60 1.325 . S
N5 C8 1.314 . S
N5 C9 1.279 . S
C6 C4 1.348 . S
C6 C8 1.353 . S
C6 H64 0.929 . S
C7 C4 1.356 . S
C7 C9 1.358 . S
C7 H65 0.930 . S
C8 N5 1.314 . S
C8 C6 1.353 . S
C8 H66 0.930 . S
C9 N5 1.279 . S
C9 C7 1.358 . S
C9 H67 0.930 . S
C10 C13 1.348 . S
C10 C14 1.356 . S
C10 O61 1.325 . S
C11 N12 1.279 . S
C11 C14 1.358 . S
C11 H68 0.930 . S
N12 C11 1.279 . S
N12 C15 1.314 . S
C13 C10 1.348 . S
C13 C15 1.353 . S
C13 H69 0.929 . S
C14 C10 1.356 . S
C14 C11 1.358 . S
C14 H70 0.930 . S
C15 N12 1.314 . S
C15 C13 1.353 . S
C15 H71 0.930 . S
C16 N17 1.314 . S
C16 C21 1.353 . S
C16 H22 0.930 . S
N17 Li0 1.990 . S
N17 C16 1.314 . S
N17 C19 1.279 . S
C18 C19 1.358 . S
C18 C20 1.356 . S
C18 H72 0.930 . S
C19 N17 1.279 . S
C19 C18 1.358 . S
C19 H23 0.930 . S
C20 C18 1.356 . S
C20 C21 1.348 . S
C21 C16 1.353 . S
C21 C20 1.348 . S
C21 H73 0.929 . S
H22 C16 0.930 . S
H23 C19 0.930 . S
C24 N25 1.314 . S
C24 C26 1.353 . S
C24 H30 0.930 . S
N25 Li1 1.990 . S
N25 C24 1.314 . S
N25 C28 1.279 . S
C26 C24 1.353 . S
C26 C29 1.348 . S
C26 H74 0.929 . S
C27 C28 1.358 . S
C27 C29 1.356 . S
C27 H75 0.930 . S
C28 N25 1.279 . S
C28 C27 1.358 . S
C28 H31 0.930 . S
C29 C26 1.348 . S
C29 C27 1.356 . S
H30 C24 0.930 . S
H31 C28 0.930 . S
C32 C34 1.348 . S
C32 C35 1.356 . S
C32 O62 1.325 . S
N33 C36 1.314 . S
N33 C37 1.279 . S
C34 C32 1.348 . S
C34 C36 1.353 . S
C34 H76 0.929 . S
C35 C32 1.356 . S
C35 C37 1.358 . S
C35 H77 0.930 . S
C36 N33 1.314 . S
C36 C34 1.353 . S
C36 H78 0.930 . S
C37 N33 1.279 . S
C37 C35 1.358 . S
C37 H79 0.930 . S
C38 C39 1.348 . S
C38 C40 1.356 . S
C38 O63 1.325 . S
C39 C38 1.348 . S
C39 C41 1.353 . S
C39 H80 0.929 . S
C40 C38 1.356 . S
C40 C42 1.358 . S
C40 H81 0.930 . S
C41 C39 1.353 . S
C41 N43 1.314 . S
C41 H82 0.930 . S
C42 C40 1.358 . S
C42 N43 1.279 . S
C42 H83 0.930 . S
N43 C41 1.314 . S
N43 C42 1.279 . S
C44 C46 1.353 . S
C44 N47 1.314 . S
C44 H50 0.930 . S
C45 N47 1.279 . S
C45 C48 1.358 . S
C45 H51 0.930 . S
C46 C44 1.353 . S
C46 C49 1.348 . S
C46 H84 0.929 . S
N47 Li2 1.990 . S
N47 C44 1.314 . S
N47 C45 1.279 . S
C48 C45 1.358 . S
C48 C49 1.356 . S
C48 H85 0.930 . S
C49 C46 1.348 . S
C49 C48 1.356 . S
H50 C44 0.930 . S
H51 C45 0.930 . S
C52 N53 1.314 . S
C52 C54 1.353 . S
C52 H58 0.930 . S
N53 Li3 1.990 . S
N53 C52 1.314 . S
N53 C56 1.279 . S
C54 C52 1.353 . S
C54 C57 1.348 . S
C54 H86 0.929 . S
C55 C56 1.358 . S
C55 C57 1.356 . S
C55 H87 0.930 . S
C56 N53 1.279 . S
C56 C55 1.358 . S
C56 H59 0.930 . S
C57 C54 1.348 . S
C57 C55 1.356 . S
H58 C52 0.930 . S
H59 C56 0.930 . S
O60 Li0 1.956 . S
O60 Li1 1.970 . S
O60 Li2 1.961 1_455 S
O60 C4 1.325 . S
O61 Li0 1.970 . S
O61 Li1 1.956 . S
O61 Li3 1.961 1_455 S
O61 C10 1.325 . S
O62 Li0 1.961 1_655 S
O62 Li2 1.956 . S
O62 Li3 1.970 . S
O62 C32 1.325 . S
O63 Li1 1.961 1_655 S
O63 Li2 1.970 . S
O63 Li3 1.956 . S
O63 C38 1.325 . S
H64 C6 0.929 . S
H65 C7 0.930 . S
H66 C8 0.930 . S
H67 C9 0.930 . S
H68 C11 0.930 . S
H69 C13 0.929 . S
H70 C14 0.930 . S
H71 C15 0.930 . S
H72 C18 0.930 . S
H73 C21 0.929 . S
H74 C26 0.929 . S
H75 C27 0.930 . S
H76 C34 0.929 . S
H77 C35 0.930 . S
H78 C36 0.930 . S
H79 C37 0.930 . S
H80 C39 0.929 . S
H81 C40 0.930 . S
H82 C41 0.930 . S
H83 C42 0.930 . S
H84 C46 0.929 . S
H85 C48 0.930 . S
H86 C54 0.929 . S
H87 C55 0.930 . S
Li88 N105 1.990 . S
Li88 O148 1.956 . S
Li88 O149 1.970 . S
Li88 O150 1.961 1_545 S
Li89 N113 1.990 . S
Li89 O148 1.970 . S
Li89 O149 1.956 . S
Li89 O151 1.961 1_545 S
Li90 N135 1.990 . S
Li90 O148 1.961 1_565 S
Li90 O150 1.956 . S
Li90 O151 1.970 . S
Li91 N141 1.990 . S
Li91 O149 1.961 1_565 S
Li91 O150 1.970 . S
Li91 O151 1.956 . S
C92 C94 1.348 . S
C92 C95 1.356 . S
C92 O148 1.325 . S
N93 C96 1.314 . S
N93 C97 1.279 . S
C94 C92 1.348 . S
C94 C96 1.353 . S
C94 H152 0.929 . S
C95 C92 1.356 . S
C95 C97 1.358 . S
C95 H153 0.930 . S
C96 N93 1.314 . S
C96 C94 1.353 . S
C96 H154 0.930 . S
C97 N93 1.279 . S
C97 C95 1.358 . S
C97 H155 0.930 . S
C98 C101 1.348 . S
C98 C102 1.356 . S
C98 O149 1.325 . S
C99 N100 1.279 . S
C99 C102 1.358 . S
C99 H156 0.930 . S
N100 C99 1.279 . S
N100 C103 1.314 . S
C101 C98 1.348 . S
C101 C103 1.353 . S
C101 H157 0.929 . S
C102 C98 1.356 . S
C102 C99 1.358 . S
C102 H158 0.930 . S
C103 N100 1.314 . S
C103 C101 1.353 . S
C103 H159 0.930 . S
C104 N105 1.314 . S
C104 C109 1.353 . S
C104 H110 0.930 . S
N105 Li88 1.990 . S
N105 C104 1.314 . S
N105 C107 1.279 . S
C106 C107 1.358 . S
C106 C108 1.356 . S
C106 H160 0.930 . S
C107 N105 1.279 . S
C107 C106 1.358 . S
C107 H111 0.930 . S
C108 C106 1.356 . S
C108 C109 1.348 . S
C109 C104 1.353 . S
C109 C108 1.348 . S
C109 H161 0.929 . S
H110 C104 0.930 . S
H111 C107 0.930 . S
C112 N113 1.314 . S
C112 C114 1.353 . S
C112 H118 0.930 . S
N113 Li89 1.990 . S
N113 C112 1.314 . S
N113 C116 1.279 . S
C114 C112 1.353 . S
C114 C117 1.348 . S
C114 H162 0.929 . S
C115 C116 1.358 . S
C115 C117 1.356 . S
C115 H163 0.930 . S
C116 N113 1.279 . S
C116 C115 1.358 . S
C116 H119 0.930 . S
C117 C114 1.348 . S
C117 C115 1.356 . S
H118 C112 0.930 . S
H119 C116 0.930 . S
C120 C122 1.348 . S
C120 C123 1.356 . S
C120 O150 1.325 . S
N121 C124 1.314 . S
N121 C125 1.279 . S
C122 C120 1.348 . S
C122 C124 1.353 . S
C122 H164 0.929 . S
C123 C120 1.356 . S
C123 C125 1.358 . S
C123 H165 0.930 . S
C124 N121 1.314 . S
C124 C122 1.353 . S
C124 H166 0.930 . S
C125 N121 1.279 . S
C125 C123 1.358 . S
C125 H167 0.930 . S
C126 C127 1.348 . S
C126 C128 1.356 . S
C126 O151 1.325 . S
C127 C126 1.348 . S
C127 C129 1.353 . S
C127 H168 0.929 . S
C128 C126 1.356 . S
C128 C130 1.358 . S
C128 H169 0.930 . S
C129 C127 1.353 . S
C129 N131 1.314 . S
C129 H170 0.930 . S
C130 C128 1.358 . S
C130 N131 1.279 . S
C130 H171 0.930 . S
N131 C129 1.314 . S
N131 C130 1.279 . S
C132 C134 1.353 . S
C132 N135 1.314 . S
C132 H138 0.930 . S
C133 N135 1.279 . S
C133 C136 1.358 . S
C133 H139 0.930 . S
C134 C132 1.353 . S
C134 C137 1.348 . S
C134 H172 0.929 . S
N135 Li90 1.990 . S
N135 C132 1.314 . S
N135 C133 1.279 . S
C136 C133 1.358 . S
C136 C137 1.356 . S
C136 H173 0.930 . S
C137 C134 1.348 . S
C137 C136 1.356 . S
H138 C132 0.930 . S
H139 C133 0.930 . S
C140 N141 1.314 . S
C140 C142 1.353 . S
C140 H146 0.930 . S
N141 Li91 1.990 . S
N141 C140 1.314 . S
N141 C144 1.279 . S
C142 C140 1.353 . S
C142 C145 1.348 . S
C142 H174 0.929 . S
C143 C144 1.358 . S
C143 C145 1.356 . S
C143 H175 0.930 . S
C144 N141 1.279 . S
C144 C143 1.358 . S
C144 H147 0.930 . S
C145 C142 1.348 . S
C145 C143 1.356 . S
H146 C140 0.930 . S
H147 C144 0.930 . S
O148 Li88 1.956 . S
O148 Li89 1.970 . S
O148 Li90 1.961 1_545 S
O148 C92 1.325 . S
O149 Li88 1.970 . S
O149 Li89 1.956 . S
O149 Li91 1.961 1_545 S
O149 C98 1.325 . S
O150 Li88 1.961 1_565 S
O150 Li90 1.956 . S
O150 Li91 1.970 . S
O150 C120 1.325 . S
O151 Li89 1.961 1_565 S
O151 Li90 1.970 . S
O151 Li91 1.956 . S
O151 C126 1.325 . S
H152 C94 0.929 . S
H153 C95 0.930 . S
H154 C96 0.930 . S
H155 C97 0.930 . S
H156 C99 0.930 . S
H157 C101 0.929 . S
H158 C102 0.930 . S
H159 C103 0.930 . S
H160 C106 0.930 . S
H161 C109 0.929 . S
H162 C114 0.929 . S
H163 C115 0.930 . S
H164 C122 0.929 . S
H165 C123 0.930 . S
H166 C124 0.930 . S
H167 C125 0.930 . S
H168 C127 0.929 . S
H169 C128 0.930 . S
H170 C129 0.930 . S
H171 C130 0.930 . S
H172 C134 0.929 . S
H173 C136 0.930 . S
H174 C142 0.929 . S
H175 C143 0.930 . S
Li176 N193 1.990 . S
Li176 O236 1.956 . S
Li176 O237 1.970 . S
Li176 O238 1.961 . S
Li177 N201 1.990 . S
Li177 O236 1.970 . S
Li177 O237 1.956 . S
Li177 O239 1.961 . S
Li178 N223 1.990 . S
Li178 O236 1.961 . S
Li178 O238 1.956 . S
Li178 O239 1.970 . S
Li179 N229 1.990 . S
Li179 O237 1.961 . S
Li179 O238 1.970 . S
Li179 O239 1.956 . S
C180 C182 1.348 . S
C180 C183 1.356 . S
C180 O236 1.325 . S
N181 C184 1.314 . S
N181 C185 1.279 . S
C182 C180 1.348 . S
C182 C184 1.353 . S
C182 H240 0.929 . S
C183 C180 1.356 . S
C183 C185 1.358 . S
C183 H241 0.930 . S
C184 N181 1.314 . S
C184 C182 1.353 . S
C184 H242 0.930 . S
C185 N181 1.279 . S
C185 C183 1.358 . S
C185 H243 0.930 . S
C186 C189 1.348 . S
C186 C190 1.356 . S
C186 O237 1.325 . S
C187 N188 1.279 . S
C187 C190 1.358 . S
C187 H244 0.930 . S
N188 C187 1.279 . S
N188 C191 1.314 . S
C189 C186 1.348 . S
C189 C191 1.353 . S
C189 H245 0.929 . S
C190 C186 1.356 . S
C190 C187 1.358 . S
C190 H246 0.930 . S
C191 N188 1.314 . S
C191 C189 1.353 . S
C191 H247 0.930 . S
C192 N193 1.314 . S
C192 C197 1.353 . S
C192 H198 0.930 . S
N193 Li176 1.990 . S
N193 C192 1.314 . S
N193 C195 1.279 . S
C194 C195 1.358 . S
C194 C196 1.356 . S
C194 H248 0.930 . S
C195 N193 1.279 . S
C195 C194 1.358 . S
C195 H199 0.930 . S
C196 C194 1.356 . S
C196 C197 1.348 . S
C197 C192 1.353 . S
C197 C196 1.348 . S
C197 H249 0.929 . S
H198 C192 0.930 . S
H199 C195 0.930 . S
C200 N201 1.314 . S
C200 C202 1.353 . S
C200 H206 0.930 . S
N201 Li177 1.990 . S
N201 C200 1.314 . S
N201 C204 1.279 . S
C202 C200 1.353 . S
C202 C205 1.348 . S
C202 H250 0.929 . S
C203 C204 1.358 . S
C203 C205 1.356 . S
C203 H251 0.930 . S
C204 N201 1.279 . S
C204 C203 1.358 . S
C204 H207 0.930 . S
C205 C202 1.348 . S
C205 C203 1.356 . S
H206 C200 0.930 . S
H207 C204 0.930 . S
C208 C210 1.348 . S
C208 C211 1.356 . S
C208 O238 1.325 . S
N209 C212 1.314 . S
N209 C213 1.279 . S
C210 C208 1.348 . S
C210 C212 1.353 . S
C210 H252 0.929 . S
C211 C208 1.356 . S
C211 C213 1.358 . S
C211 H253 0.930 . S
C212 N209 1.314 . S
C212 C210 1.353 . S
C212 H254 0.930 . S
C213 N209 1.279 . S
C213 C211 1.358 . S
C213 H255 0.930 . S
C214 C215 1.348 . S
C214 C216 1.356 . S
C214 O239 1.325 . S
C215 C214 1.348 . S
C215 C217 1.353 . S
C215 H256 0.929 . S
C216 C214 1.356 . S
C216 C218 1.358 . S
C216 H257 0.930 . S
C217 C215 1.353 . S
C217 N219 1.314 . S
C217 H258 0.930 . S
C218 C216 1.358 . S
C218 N219 1.279 . S
C218 H259 0.930 . S
N219 C217 1.314 . S
N219 C218 1.279 . S
C220 C222 1.353 . S
C220 N223 1.314 . S
C220 H226 0.930 . S
C221 N223 1.279 . S
C221 C224 1.358 . S
C221 H227 0.930 . S
C222 C220 1.353 . S
C222 C225 1.348 . S
C222 H260 0.929 . S
N223 Li178 1.990 . S
N223 C220 1.314 . S
N223 C221 1.279 . S
C224 C221 1.358 . S
C224 C225 1.356 . S
C224 H261 0.930 . S
C225 C222 1.348 . S
C225 C224 1.356 . S
H226 C220 0.930 . S
H227 C221 0.930 . S
C228 N229 1.314 . S
C228 C230 1.353 . S
C228 H234 0.930 . S
N229 Li179 1.990 . S
N229 C228 1.314 . S
N229 C232 1.279 . S
C230 C228 1.353 . S
C230 C233 1.348 . S
C230 H262 0.929 . S
C231 C232 1.358 . S
C231 C233 1.356 . S
C231 H263 0.930 . S
C232 N229 1.279 . S
C232 C231 1.358 . S
C232 H235 0.930 . S
C233 C230 1.348 . S
C233 C231 1.356 . S
H234 C228 0.930 . S
H235 C232 0.930 . S
O236 Li176 1.956 . S
O236 Li177 1.970 . S
O236 Li178 1.961 . S
O236 C180 1.325 . S
O237 Li176 1.970 . S
O237 Li177 1.956 . S
O237 Li179 1.961 . S
O237 C186 1.325 . S
O238 Li176 1.961 . S
O238 Li178 1.956 . S
O238 Li179 1.970 . S
O238 C208 1.325 . S
O239 Li177 1.961 . S
O239 Li178 1.970 . S
O239 Li179 1.956 . S
O239 C214 1.325 . S
H240 C182 0.929 . S
H241 C183 0.930 . S
H242 C184 0.930 . S
H243 C185 0.930 . S
H244 C187 0.930 . S
H245 C189 0.929 . S
H246 C190 0.930 . S
H247 C191 0.930 . S
H248 C194 0.930 . S
H249 C197 0.929 . S
H250 C202 0.929 . S
H251 C203 0.930 . S
H252 C210 0.929 . S
H253 C211 0.930 . S
H254 C212 0.930 . S
H255 C213 0.930 . S
H256 C215 0.929 . S
H257 C216 0.930 . S
H258 C217 0.930 . S
H259 C218 0.930 . S
H260 C222 0.929 . S
H261 C224 0.930 . S
H262 C230 0.929 . S
H263 C231 0.930 . S
C264 C265 1.363 . S
C264 C270 1.359 1_556 S
C264 N272 1.356 . S
C265 C264 1.363 . S
C265 C271 1.383 . S
C266 C267 1.363 . S
C266 C271 1.359 1_554 S
C266 N273 1.356 . S
C267 C266 1.363 . S
C267 C270 1.383 . S
N268 C270 1.364 . S
N268 H280 0.984 1_554 S
N268 H281 0.985 . S
N269 C271 1.364 . S
N269 H274 0.984 . S
N269 H275 0.985 1_556 S
C270 C264 1.359 1_554 S
C270 C267 1.383 . S
C270 N268 1.364 . S
C271 C265 1.383 . S
C271 C266 1.359 1_556 S
C271 N269 1.364 . S
N272 C264 1.356 . S
N272 H278 0.984 . S
N272 H279 0.984 . S
N273 C266 1.356 . S
N273 H276 0.984 . S
N273 H277 0.985 . S
H274 N269 0.984 . S
H275 N269 0.985 1_554 S
H276 N273 0.984 . S
H277 N273 0.985 . S
H278 N272 0.984 . S
H279 N272 0.984 . S
H280 N268 0.984 1_556 S
H281 N268 0.985 . S
C282 C283 1.363 . S
C282 C288 1.379 . S
C282 N290 1.356 . S
C283 C282 1.363 . S
C283 C289 1.363 . S
C284 C285 1.363 . S
C284 C289 1.379 . S
C284 N291 1.356 . S
C285 C284 1.363 . S
C285 C288 1.363 . S
N286 C288 1.356 . S
N286 H298 0.984 . S
N286 H299 0.985 . S
N287 C289 1.356 . S
N287 H292 0.984 . S
N287 H293 0.985 . S
C288 C282 1.379 . S
C288 C285 1.363 . S
C288 N286 1.356 . S
C289 C283 1.363 . S
C289 C284 1.379 . S
C289 N287 1.356 . S
N290 C282 1.356 . S
N290 H296 0.984 . S
N290 H297 0.984 . S
N291 C284 1.356 . S
N291 H294 0.984 . S
N291 H295 0.985 . S
H292 N287 0.984 . S
H293 N287 0.985 . S
H294 N291 0.984 . S
H295 N291 0.985 . S
H296 N290 0.984 . S
H297 N290 0.984 . S
H298 N286 0.984 . S
H299 N286 0.985 . S
C300 C301 1.363 . S
C300 C306 1.379 . S
C300 N308 1.356 . S
C301 C300 1.363 . S
C301 C307 1.363 . S
C302 C303 1.363 . S
C302 C307 1.379 . S
C302 N309 1.356 . S
C303 C302 1.363 . S
C303 C306 1.363 . S
N304 C306 1.356 . S
N304 H316 0.984 . S
N304 H317 0.985 . S
N305 C307 1.356 . S
N305 H310 0.984 . S
N305 H311 0.985 . S
C306 C300 1.379 . S
C306 C303 1.363 . S
C306 N304 1.356 . S
C307 C301 1.363 . S
C307 C302 1.379 . S
C307 N305 1.356 . S
N308 C300 1.356 . S
N308 H314 0.984 . S
N308 H315 0.984 . S
N309 C302 1.356 . S
N309 H312 0.984 . S
N309 H313 0.985 . S
H310 N305 0.984 . S
H311 N305 0.985 . S
H312 N309 0.984 . S
H313 N309 0.985 . S
H314 N308 0.984 . S
H315 N308 0.984 . S
H316 N304 0.984 . S
H317 N304 0.985 . S
C318 C319 1.363 . S
C318 C324 1.359 1_556 S
C318 N326 1.356 . S
C319 C318 1.363 . S
C319 C325 1.383 . S
C320 C321 1.363 . S
C320 C325 1.359 1_554 S
C320 N327 1.356 . S
C321 C320 1.363 . S
C321 C324 1.383 . S
N322 C324 1.364 . S
N322 H334 0.984 1_554 S
N322 H335 0.985 . S
N323 C325 1.364 . S
N323 H328 0.984 . S
N323 H329 0.985 1_556 S
C324 C318 1.359 1_554 S
C324 C321 1.383 . S
C324 N322 1.364 . S
C325 C319 1.383 . S
C325 C320 1.359 1_556 S
C325 N323 1.364 . S
N326 C318 1.356 . S
N326 H332 0.984 . S
N326 H333 0.984 . S
N327 C320 1.356 . S
N327 H330 0.984 . S
N327 H331 0.985 . S
H328 N323 0.984 . S
H329 N323 0.985 1_554 S
H330 N327 0.984 . S
H331 N327 0.985 . S
H332 N326 0.984 . S
H333 N326 0.984 . S
H334 N322 0.984 1_556 S
H335 N322 0.985 . S
C336 C337 1.363 . S
C336 C342 1.379 . S
C336 N344 1.356 . S
C337 C336 1.363 . S
C337 C343 1.363 . S
C338 C339 1.363 . S
C338 C343 1.379 . S
C338 N345 1.356 . S
C339 C338 1.363 . S
C339 C342 1.363 . S
N340 C342 1.356 . S
N340 H352 0.984 . S
N340 H353 0.985 . S
N341 C343 1.356 . S
N341 H346 0.984 . S
N341 H347 0.985 . S
C342 C336 1.379 . S
C342 C339 1.363 . S
C342 N340 1.356 . S
C343 C337 1.363 . S
C343 C338 1.379 . S
C343 N341 1.356 . S
N344 C336 1.356 . S
N344 H350 0.984 . S
N344 H351 0.984 . S
N345 C338 1.356 . S
N345 H348 0.984 . S
N345 H349 0.985 . S
H346 N341 0.984 . S
H347 N341 0.985 . S
H348 N345 0.984 . S
H349 N345 0.985 . S
H350 N344 0.984 . S
H351 N344 0.984 . S
H352 N340 0.984 . S
H353 N340 0.985 . S
C354 C355 1.363 . S
C354 C360 1.379 . S
C354 N362 1.356 . S
C355 C354 1.363 . S
C355 C361 1.363 . S
C356 C357 1.363 . S
C356 C361 1.379 . S
C356 N363 1.356 . S
C357 C356 1.363 . S
C357 C360 1.363 . S
N358 C360 1.356 . S
N358 H370 0.984 . S
N358 H371 0.985 . S
N359 C361 1.356 . S
N359 H364 0.984 . S
N359 H365 0.985 . S
C360 C354 1.379 . S
C360 C357 1.363 . S
C360 N358 1.356 . S
C361 C355 1.363 . S
C361 C356 1.379 . S
C361 N359 1.356 . S
N362 C354 1.356 . S
N362 H368 0.984 . S
N362 H369 0.984 . S
N363 C356 1.356 . S
N363 H366 0.984 . S
N363 H367 0.985 . S
H364 N359 0.984 . S
H365 N359 0.985 . S
H366 N363 0.984 . S
H367 N363 0.985 . S
H368 N362 0.984 . S
H369 N362 0.984 . S
H370 N358 0.984 . S
H371 N358 0.985 . S
C265 C225 1.292 . S
C267 C20 1.292 . S
C283 C49 1.292 . S
C285 C108 1.292 . S
C301 C137 1.292 . S
C303 C233 1.293 . S
C319 C205 1.292 . S
C321 C57 1.292 . S
C337 C145 1.292 . S
C339 C29 1.293 . S
C355 C196 1.292 . S
C357 C117 1.292 . S
