# Generated by pormake.
# Topology umh, (4)-cn, num edge types: 1
# Building blocks:
#     Node 0, Type 0, BuildingBlock: QUQFOY_clean_sbu_1, # of connection points: 4
#     Node 1, Type 0, BuildingBlock: QUQFOY_clean_sbu_1, # of connection points: 4
#     Node 2, Type 0, BuildingBlock: QUQFOY_clean_sbu_1, # of connection points: 4
#     Node 3, Type 0, BuildingBlock: QUQFOY_clean_sbu_1, # of connection points: 4
#     Node 4, Type 0, BuildingBlock: QUQFOY_clean_sbu_1, # of connection points: 4
#     Node 5, Type 0, BuildingBlock: QUQFOY_clean_sbu_1, # of connection points: 4
#     Node 6, Type 0, BuildingBlock: QUQFOY_clean_sbu_1, # of connection points: 4
#     Node 7, Type 0, BuildingBlock: QUQFOY_clean_sbu_1, # of connection points: 4
#     Node 8, Type 0, BuildingBlock: QUQFOY_clean_sbu_1, # of connection points: 4
#     Node 9, Type 0, BuildingBlock: QUQFOY_clean_sbu_1, # of connection points: 4
#     Node 10, Type 0, BuildingBlock: QUQFOY_clean_sbu_1, # of connection points: 4
#     Node 11, Type 0, BuildingBlock: QUQFOY_clean_sbu_1, # of connection points: 4
#     Node 12, Type 0, BuildingBlock: QUQFOY_clean_sbu_1, # of connection points: 4
#     Node 13, Type 0, BuildingBlock: QUQFOY_clean_sbu_1, # of connection points: 4
#     Node 14, Type 0, BuildingBlock: QUQFOY_clean_sbu_1, # of connection points: 4
#     Node 15, Type 0, BuildingBlock: QUQFOY_clean_sbu_1, # of connection points: 4
#     Edge 16, Type (0, 0), BuildingBlock: EZIPEK_clean_linker_0, # of connection points: 2
#     Edge 17, Type (0, 0), BuildingBlock: EZIPEK_clean_linker_0, # of connection points: 2
#     Edge 18, Type (0, 0), BuildingBlock: EZIPEK_clean_linker_0, # of connection points: 2
#     Edge 19, Type (0, 0), BuildingBlock: EZIPEK_clean_linker_0, # of connection points: 2
#     Edge 20, Type (0, 0), BuildingBlock: EZIPEK_clean_linker_0, # of connection points: 2
#     Edge 21, Type (0, 0), BuildingBlock: EZIPEK_clean_linker_0, # of connection points: 2
#     Edge 22, Type (0, 0), BuildingBlock: EZIPEK_clean_linker_0, # of connection points: 2
#     Edge 23, Type (0, 0), BuildingBlock: EZIPEK_clean_linker_0, # of connection points: 2
#     Edge 24, Type (0, 0), BuildingBlock: EZIPEK_clean_linker_0, # of connection points: 2
#     Edge 25, Type (0, 0), BuildingBlock: EZIPEK_clean_linker_0, # of connection points: 2
#     Edge 26, Type (0, 0), BuildingBlock: EZIPEK_clean_linker_0, # of connection points: 2
#     Edge 27, Type (0, 0), BuildingBlock: EZIPEK_clean_linker_0, # of connection points: 2
#     Edge 28, Type (0, 0), BuildingBlock: EZIPEK_clean_linker_0, # of connection points: 2
#     Edge 29, Type (0, 0), BuildingBlock: EZIPEK_clean_linker_0, # of connection points: 2
#     Edge 30, Type (0, 0), BuildingBlock: EZIPEK_clean_linker_0, # of connection points: 2
#     Edge 31, Type (0, 0), BuildingBlock: EZIPEK_clean_linker_0, # of connection points: 2
#     Edge 32, Type (0, 0), BuildingBlock: EZIPEK_clean_linker_0, # of connection points: 2
#     Edge 33, Type (0, 0), BuildingBlock: EZIPEK_clean_linker_0, # of connection points: 2
#     Edge 34, Type (0, 0), BuildingBlock: EZIPEK_clean_linker_0, # of connection points: 2
#     Edge 35, Type (0, 0), BuildingBlock: EZIPEK_clean_linker_0, # of connection points: 2
#     Edge 36, Type (0, 0), BuildingBlock: EZIPEK_clean_linker_0, # of connection points: 2
#     Edge 37, Type (0, 0), BuildingBlock: EZIPEK_clean_linker_0, # of connection points: 2
#     Edge 38, Type (0, 0), BuildingBlock: EZIPEK_clean_linker_0, # of connection points: 2
#     Edge 39, Type (0, 0), BuildingBlock: EZIPEK_clean_linker_0, # of connection points: 2
#     Edge 40, Type (0, 0), BuildingBlock: EZIPEK_clean_linker_0, # of connection points: 2
#     Edge 41, Type (0, 0), BuildingBlock: EZIPEK_clean_linker_0, # of connection points: 2
#     Edge 42, Type (0, 0), BuildingBlock: EZIPEK_clean_linker_0, # of connection points: 2
#     Edge 43, Type (0, 0), BuildingBlock: EZIPEK_clean_linker_0, # of connection points: 2
#     Edge 44, Type (0, 0), BuildingBlock: EZIPEK_clean_linker_0, # of connection points: 2
#     Edge 45, Type (0, 0), BuildingBlock: EZIPEK_clean_linker_0, # of connection points: 2
#     Edge 46, Type (0, 0), BuildingBlock: EZIPEK_clean_linker_0, # of connection points: 2
#     Edge 47, Type (0, 0), BuildingBlock: EZIPEK_clean_linker_0, # of connection points: 2
# Relax obj value: 0.066
# Max RMSD: 0.420
# Mean RMSD: 0.289
data_MOF--net-umh--node1-QUQFOY_clean_sbu_1--edge1-EZIPEK_clean_linker_0
_symmetry_space_group_name_H-M    P1
_symmetry_Int_Tables_number       1
_symmetry_cell_setting            triclinic
loop_
_symmetry_equiv_pos_as_xyz
'x, y, z'
_cell_length_a     30.241468
_cell_length_b     30.230652
_cell_length_c     38.67496
_cell_angle_alpha  92.824915
_cell_angle_beta   87.663491
_cell_angle_gamma 89.882832
loop_
_atom_site_label
_atom_site_type_symbol
_atom_site_fract_x
_atom_site_fract_y
_atom_site_fract_z
_atom_type_partial_charge
O0 O 0.40498 0.14262 0.12452 0.0
Cd1 Cd 0.39576 0.13793 0.17669 0.0
Cd2 Cd 0.32885 0.08816 0.16074 0.0
O3 O 0.36304 0.08473 0.11164 0.0
O4 O 0.45459 0.14102 0.19976 0.0
O5 O 0.41706 0.07903 0.1908 0.0
C6 C 0.45276 0.0983 0.20047 0.0
C7 C 0.30065 0.04469 0.20419 0.0
C8 C 0.38956 0.11531 0.10212 0.0
C9 C 0.30534 0.17826 0.18635 0.0
O10 O 0.29356 0.14494 0.16785 0.0
O11 O 0.34458 0.17985 0.19756 0.0
O12 O 0.28522 0.04073 0.17342 0.0
O13 O 0.33697 0.06634 0.20799 0.0
O14 O 0.40041 0.39061 0.6219 0.0
Cd15 Cd 0.39236 0.39623 0.67526 0.0
Cd16 Cd 0.44181 0.31953 0.6642 0.0
O17 O 0.45512 0.34171 0.61404 0.0
O18 O 0.3884 0.46252 0.68607 0.0
O19 O 0.44321 0.42029 0.70146 0.0
C20 C 0.42744 0.45938 0.69818 0.0
C21 C 0.48046 0.30205 0.71295 0.0
C22 C 0.42874 0.36984 0.602 0.0
C23 C 0.345 0.31311 0.68602 0.0
O24 O 0.37881 0.29589 0.67017 0.0
O25 O 0.34404 0.35422 0.69544 0.0
O26 O 0.47676 0.27287 0.68759 0.0
O27 O 0.46984 0.34228 0.7074 0.0
O28 O 0.12341 0.39719 0.13682 0.0
Cd29 Cd 0.12003 0.39522 0.18989 0.0
Cd30 Cd 0.20263 0.42445 0.17866 0.0
O31 O 0.18513 0.43388 0.12768 0.0
O32 O 0.05436 0.39279 0.19974 0.0
O33 O 0.09507 0.45143 0.21317 0.0
C34 C 0.05643 0.43411 0.20969 0.0
C35 C 0.22426 0.46424 0.22815 0.0
C36 C 0.15078 0.41471 0.11588 0.0
C37 C 0.19329 0.33227 0.20035 0.0
O38 O 0.2167 0.35997 0.18445 0.0
O39 O 0.1531 0.34113 0.20973 0.0
O40 O 0.25262 0.45509 0.20276 0.0
O41 O 0.18281 0.45808 0.22241 0.0
O42 O 0.13933 0.10642 0.627 0.0
Cd43 Cd 0.14142 0.11342 0.67971 0.0
Cd44 Cd 0.10106 0.18708 0.67017 0.0
O45 O 0.08998 0.15844 0.6208 0.0
O46 O 0.14312 0.05141 0.69587 0.0
O47 O 0.08356 0.0946 0.70092 0.0
C48 C 0.10089 0.05563 0.70196 0.0
C49 C 0.0637 0.21989 0.71882 0.0
C50 C 0.11483 0.1272 0.60744 0.0
C51 C 0.19492 0.19517 0.68522 0.0
O52 O 0.16296 0.21133 0.66983 0.0
O53 O 0.19177 0.15645 0.697 0.0
O54 O 0.06328 0.2383 0.68928 0.0
O55 O 0.07874 0.17988 0.71918 0.0
O56 O 0.40221 0.37446 0.43787 0.0
Cd57 Cd 0.39666 0.3821 0.3859 0.0
Cd58 Cd 0.33082 0.42909 0.40614 0.0
O59 O 0.36781 0.43777 0.45135 0.0
O60 O 0.45816 0.37983 0.36343 0.0
O61 O 0.41936 0.44182 0.37302 0.0
C62 C 0.45641 0.42266 0.36372 0.0
C63 C 0.30202 0.46935 0.3619 0.0
C64 C 0.39138 0.40521 0.46014 0.0
C65 C 0.30866 0.341 0.38161 0.0
O66 O 0.29872 0.37024 0.40528 0.0
O67 O 0.34569 0.34296 0.36452 0.0
O68 O 0.28655 0.47496 0.39354 0.0
O69 O 0.33807 0.4466 0.35673 0.0
O70 O 0.13558 0.41947 0.94611 0.0
Cd71 Cd 0.14074 0.41738 0.89282 0.0
Cd72 Cd 0.10649 0.33686 0.90194 0.0
O73 O 0.09965 0.3573 0.95444 0.0
O74 O 0.14193 0.48101 0.87949 0.0
O75 O 0.08491 0.43663 0.87137 0.0
C76 C 0.10114 0.47605 0.87144 0.0
C77 C 0.06691 0.30922 0.85556 0.0
C78 C 0.11878 0.39208 0.96676 0.0
C79 C 0.20182 0.3411 0.87892 0.0
O80 O 0.17011 0.31939 0.8919 0.0
O81 O 0.19682 0.38183 0.8726 0.0
O82 O 0.07574 0.28397 0.88051 0.0
O83 O 0.07257 0.35138 0.86064 0.0
O84 O 0.11193 0.12136 0.43681 0.0
Cd85 Cd 0.11428 0.1306 0.38461 0.0
Cd86 Cd 0.19386 0.09229 0.39094 0.0
O87 O 0.17247 0.0826 0.44218 0.0
O88 O 0.05002 0.13685 0.37408 0.0
O89 O 0.09063 0.0781 0.35742 0.0
C90 C 0.05211 0.09641 0.36165 0.0
C91 C 0.21628 0.05171 0.34083 0.0
C92 C 0.13781 0.10169 0.45598 0.0
C93 C 0.19353 0.18868 0.37673 0.0
O94 O 0.21434 0.15535 0.38636 0.0
O95 O 0.1524 0.18586 0.37049 0.0
O96 O 0.24296 0.05684 0.36607 0.0
O97 O 0.17522 0.06264 0.3468 0.0
O98 O 0.39038 0.14105 0.93806 0.0
Cd99 Cd 0.39601 0.14076 0.88506 0.0
Cd100 Cd 0.44419 0.20837 0.89796 0.0
O101 O 0.45423 0.17509 0.94399 0.0
O102 O 0.39679 0.07604 0.86918 0.0
O103 O 0.45556 0.11946 0.86664 0.0
C104 C 0.43923 0.08011 0.86467 0.0
C105 C 0.48387 0.23429 0.84987 0.0
C106 C 0.42208 0.15283 0.95688 0.0
C107 C 0.35464 0.22763 0.87947 0.0
O108 O 0.38465 0.2396 0.89988 0.0
O109 O 0.35593 0.18906 0.86422 0.0
O110 O 0.4892 0.25222 0.88052 0.0
O111 O 0.4619 0.19783 0.84761 0.0
O112 O 0.60756 0.88701 0.95066 0.0
Cd113 Cd 0.61004 0.88512 0.8971 0.0
Cd114 Cd 0.68311 0.93065 0.90912 0.0
O115 O 0.6517 0.94469 0.9581 0.0
O116 O 0.54824 0.89012 0.87898 0.0
O117 O 0.59787 0.94385 0.87875 0.0
C118 C 0.5581 0.93083 0.87331 0.0
C119 C 0.71824 0.97109 0.86581 0.0
C120 C 0.62435 0.91675 0.97051 0.0
C121 C 0.693 0.83582 0.88573 0.0
O122 O 0.70777 0.8676 0.90456 0.0
O123 O 0.65425 0.83794 0.874 0.0
O124 O 0.73495 0.96949 0.896 0.0
O125 O 0.67899 0.95557 0.86212 0.0
O126 O 0.63486 0.61232 0.44094 0.0
Cd127 Cd 0.63612 0.61305 0.38846 0.0
Cd128 Cd 0.58887 0.68704 0.40022 0.0
O129 O 0.58097 0.66183 0.45061 0.0
O130 O 0.63794 0.54976 0.36884 0.0
O131 O 0.5779 0.59179 0.37115 0.0
C132 C 0.59563 0.5531 0.36569 0.0
C133 C 0.54918 0.71154 0.35409 0.0
C134 C 0.6083 0.63378 0.46184 0.0
C135 C 0.68458 0.69772 0.38027 0.0
O136 O 0.64939 0.71456 0.39412 0.0
O137 O 0.68555 0.6566 0.37065 0.0
O138 O 0.55031 0.73544 0.38278 0.0
O139 O 0.56307 0.67111 0.3543 0.0
O140 O 0.897 0.6479 0.94165 0.0
Cd141 Cd 0.8992 0.64496 0.88849 0.0
Cd142 Cd 0.83236 0.59699 0.89827 0.0
O143 O 0.86343 0.58343 0.94454 0.0
O144 O 0.96309 0.64845 0.87258 0.0
O145 O 0.92353 0.58669 0.86951 0.0
C146 C 0.96153 0.60591 0.86698 0.0
C147 C 0.80475 0.56059 0.84933 0.0
C148 C 0.88479 0.61525 0.95909 0.0
C149 C 0.81456 0.68823 0.88234 0.0
O150 O 0.80231 0.6575 0.90175 0.0
O151 O 0.853 0.68674 0.86736 0.0
O152 O 0.78663 0.55484 0.87971 0.0
O153 O 0.8427 0.5801 0.84772 0.0
O154 O 0.86548 0.91425 0.43815 0.0
Cd155 Cd 0.87344 0.90703 0.38517 0.0
Cd156 Cd 0.92029 0.84067 0.39923 0.0
O157 O 0.9272 0.87779 0.44644 0.0
O158 O 0.87206 0.9674 0.36521 0.0
O159 O 0.93335 0.92817 0.36987 0.0
C160 C 0.91483 0.96497 0.36298 0.0
C161 C 0.96645 0.81036 0.35375 0.0
C162 C 0.89508 0.90255 0.45829 0.0
C163 C 0.83264 0.81917 0.37616 0.0
O164 O 0.86124 0.80883 0.39743 0.0
O165 O 0.83464 0.85668 0.36234 0.0
O166 O 0.96601 0.79445 0.3842 0.0
O167 O 0.94521 0.84693 0.35069 0.0
O168 O 0.61971 0.64526 0.6276 0.0
Cd169 Cd 0.61463 0.64693 0.68067 0.0
Cd170 Cd 0.68994 0.60116 0.67009 0.0
O171 O 0.66156 0.58503 0.62182 0.0
O172 O 0.54918 0.64168 0.6939 0.0
O173 O 0.59844 0.58855 0.69919 0.0
C174 C 0.55761 0.60081 0.69988 0.0
C175 C 0.71684 0.56643 0.71822 0.0
C176 C 0.63678 0.61376 0.60857 0.0
C177 C 0.69591 0.69657 0.69105 0.0
O178 O 0.71254 0.66462 0.67243 0.0
O179 O 0.65623 0.6944 0.7036 0.0
O180 O 0.7411 0.56809 0.68993 0.0
O181 O 0.67574 0.57711 0.71677 0.0
O182 O 0.88621 0.62577 0.12491 0.0
Cd183 Cd 0.8823 0.62631 0.1783 0.0
Cd184 Cd 0.92224 0.70396 0.16877 0.0
O185 O 0.93752 0.67738 0.1185 0.0
O186 O 0.87912 0.56259 0.19184 0.0
O187 O 0.93789 0.60497 0.1988 0.0
C188 C 0.92009 0.56639 0.1998 0.0
C189 C 0.9602 0.72814 0.21787 0.0
C190 C 0.91306 0.64673 0.1056 0.0
C191 C 0.82682 0.70589 0.19095 0.0
O192 O 0.85797 0.72415 0.17413 0.0
O193 O 0.83124 0.66656 0.20092 0.0
O194 O 0.95455 0.75448 0.19299 0.0
O195 O 0.95067 0.68702 0.21193 0.0
O196 O 0.89138 0.90484 0.61966 0.0
Cd197 Cd 0.89684 0.89485 0.67122 0.0
Cd198 Cd 0.82372 0.94454 0.67587 0.0
O199 O 0.84475 0.96163 0.62537 0.0
O200 O 0.96167 0.88752 0.67963 0.0
O201 O 0.92239 0.94687 0.69741 0.0
C202 C 0.9604 0.9276 0.69303 0.0
C203 C 0.80402 0.97911 0.72953 0.0
C204 C 0.87045 0.93581 0.60642 0.0
C205 C 0.81365 0.84695 0.68457 0.0
O206 O 0.79625 0.88309 0.67663 0.0
O207 O 0.85528 0.84477 0.6886 0.0
O208 O 0.77756 0.98057 0.70413 0.0
O209 O 0.8441 0.96574 0.72248 0.0
O210 O 0.62453 0.89816 0.13324 0.0
Cd211 Cd 0.62273 0.89898 0.18613 0.0
Cd212 Cd 0.57741 0.82943 0.1757 0.0
O213 O 0.56246 0.86024 0.12964 0.0
O214 O 0.62545 0.96269 0.20287 0.0
O215 O 0.56436 0.92217 0.20551 0.0
C216 C 0.58294 0.96059 0.20804 0.0
C217 C 0.54135 0.80054 0.22405 0.0
C218 C 0.5925 0.88411 0.11564 0.0
C219 C 0.67034 0.816 0.19091 0.0
O220 O 0.63908 0.80171 0.17255 0.0
O221 O 0.66773 0.85474 0.20563 0.0
O222 O 0.53743 0.78165 0.19353 0.0
O223 O 0.55905 0.83942 0.22603 0.0
C224 C 0.40693 0.17777 1.01914 0.0
C225 C 0.41854 0.14309 0.99439 0.0
C226 C 0.4148 0.08987 0.04078 0.0
C227 C 0.39852 0.12373 0.06466 0.0
N228 N 0.36819 0.19773 0.07361 0.0
N229 N 0.42375 0.0643 0.98059 0.0
C230 C 0.39185 0.1672 0.05309 0.0
C231 C 0.41962 0.09856 1.00488 0.0
N232 N 0.40911 0.2209 1.01014 0.0
N233 N 0.42705 0.04987 0.05238 0.0
H234 H 0.42628 0.069 0.95412 0.0
H235 H 0.42042 0.0312 0.98654 0.0
H236 H 0.42456 0.04253 0.07845 0.0
H237 H 0.44354 0.02563 0.03664 0.0
H238 H 0.40589 0.24758 1.02818 0.0
H239 H 0.41765 0.23022 0.98516 0.0
H240 H 0.35832 0.22826 0.06514 0.0
H241 H 0.35381 0.19079 0.09768 0.0
C242 C 0.43933 0.41699 0.5119 0.0
C243 C 0.40091 0.39846 0.49706 0.0
C244 C 0.38857 0.35333 0.54782 0.0
C245 C 0.42471 0.37448 0.564 0.0
N246 N 0.48409 0.42711 0.56264 0.0
N247 N 0.33576 0.35314 0.50215 0.0
C248 C 0.45014 0.40641 0.54625 0.0
C249 C 0.37472 0.36767 0.51539 0.0
N250 N 0.4659 0.44392 0.49279 0.0
N251 N 0.36798 0.31882 0.56338 0.0
H252 H 0.32444 0.36309 0.47861 0.0
H253 H 0.31274 0.33424 0.51558 0.0
H254 H 0.37757 0.30736 0.58698 0.0
H255 H 0.3442 0.29894 0.55173 0.0
H256 H 0.49681 0.45497 0.50024 0.0
H257 H 0.45771 0.45377 0.46837 0.0
H258 H 0.50079 0.45446 0.5534 0.0
H259 H 0.49483 0.41724 0.58634 0.0
C260 C 0.09946 0.3774 1.03013 0.0
C261 C 0.1258 0.39938 1.00511 0.0
C262 C 0.16192 0.43885 0.05351 0.0
C263 C 0.14252 0.40993 0.07761 0.0
N264 N 0.10495 0.33897 0.0826 0.0
N265 N 0.19564 0.43881 0.99632 0.0
C266 C 0.11463 0.37544 0.06429 0.0
C267 C 0.16097 0.42682 1.01755 0.0
N268 N 0.05974 0.35909 1.02217 0.0
N269 N 0.18046 0.47805 0.06411 0.0
H270 H 0.20179 0.42488 0.97145 0.0
H271 H 0.22235 0.45695 1.00565 0.0
H272 H 0.17811 0.4907 0.08965 0.0
H273 H 0.19264 0.50059 0.04651 0.0
H274 H 0.03912 0.34483 0.04081 0.0
H275 H 0.04478 0.36371 0.99882 0.0
H276 H 0.08645 0.3127 0.07237 0.0
H277 H 0.12098 0.33143 0.10492 0.0
C278 C 0.08596 0.13272 0.54679 0.0
C279 C 0.11814 0.11669 0.5688 0.0
C280 C 0.15286 0.07844 0.51702 0.0
C281 C 0.12872 0.1047 0.49481 0.0
N282 N 0.08083 0.17041 0.49422 0.0
N283 N 0.19286 0.08498 0.56914 0.0
C284 C 0.09735 0.1357 0.51104 0.0
C285 C 0.15472 0.0923 0.55253 0.0
N286 N 0.04461 0.14479 0.55922 0.0
N287 N 0.17356 0.04023 0.50509 0.0
H288 H 0.20077 0.10107 0.59243 0.0
H289 H 0.21997 0.06874 0.55664 0.0
H290 H 0.16879 0.02573 0.48053 0.0
H291 H 0.18978 0.01986 0.52158 0.0
H292 H 0.0202 0.15479 0.54292 0.0
H293 H 0.03293 0.1385 0.58421 0.0
H294 H 0.05927 0.19362 0.5067 0.0
H295 H 0.09395 0.18106 0.47083 0.0
C296 C 0.57762 0.92977 0.06435 0.0
C297 C 0.59515 0.89075 0.07774 0.0
C298 C 0.63864 0.87595 1.02348 0.0
C299 C 0.61808 0.91231 1.00869 0.0
N300 N 0.56821 0.9744 1.01434 0.0
N301 N 0.63656 0.82281 0.06841 0.0
C302 C 0.58756 0.93947 1.02899 0.0
C303 C 0.62382 0.86264 0.0567 0.0
N304 N 0.55246 0.95796 0.08577 0.0
N305 N 0.67411 0.85558 1.00638 0.0
H306 H 0.62605 0.81188 0.09256 0.0
H307 H 0.65397 0.79888 0.05303 0.0
H308 H 0.68728 0.86627 0.98288 0.0
H309 H 0.69345 0.8317 1.01714 0.0
H310 H 0.54223 0.98919 0.07911 0.0
H311 H 0.54311 0.95057 0.11111 0.0
H312 H 0.54194 0.99274 1.02589 0.0
H313 H 0.57829 0.98443 0.98987 0.0
C314 C 0.6656 0.62201 0.54721 0.0
C315 C 0.6294 0.61379 0.57052 0.0
C316 C 0.57867 0.61622 0.52202 0.0
C317 C 0.61422 0.62891 0.49972 0.0
N318 N 0.69023 0.65279 0.49324 0.0
N319 N 0.54995 0.61051 0.58093 0.0
C320 C 0.65738 0.63394 0.51287 0.0
C321 C 0.58548 0.61311 0.55816 0.0
N322 N 0.70806 0.61946 0.55787 0.0
N323 N 0.53882 0.60532 0.50857 0.0
H324 H 0.5529 0.60701 0.60734 0.0
H325 H 0.51741 0.61525 0.57402 0.0
H326 H 0.53266 0.60703 0.48234 0.0
H327 H 0.51319 0.59084 0.5228 0.0
H328 H 0.73566 0.61924 0.54084 0.0
H329 H 0.71609 0.61434 0.58328 0.0
H330 H 0.72064 0.66239 0.50277 0.0
H331 H 0.68576 0.66318 0.46836 0.0
C332 C 0.86451 0.65137 1.017 0.0
C333 C 0.88999 0.6189 0.99729 0.0
C334 C 0.93162 0.60409 0.04894 0.0
C335 C 0.90917 0.63981 0.06746 0.0
N336 N 0.8579 0.70107 0.06814 0.0
N337 N 0.95004 0.56634 0.99312 0.0
C338 C 0.87677 0.66457 0.0511 0.0
C339 C 0.92413 0.59563 1.01292 0.0
N340 N 0.8274 0.66834 1.00343 0.0
N341 N 0.95937 0.57777 0.06601 0.0
H342 H 0.94412 0.55821 0.96719 0.0
H343 H 0.97862 0.55195 1.00172 0.0
H344 H 0.96679 0.58417 0.0919 0.0
H345 H 0.97304 0.54834 0.05524 0.0
H346 H 0.80483 0.68895 1.01747 0.0
H347 H 0.81667 0.65813 0.97902 0.0
H348 H 0.83755 0.72323 0.05643 0.0
H349 H 0.86546 0.71143 0.09333 0.0
C350 C 0.91901 0.94152 0.51404 0.0
C351 C 0.88853 0.91397 0.4962 0.0
C352 C 0.84002 0.9142 0.54897 0.0
C353 C 0.873 0.93683 0.56788 0.0
N354 N 0.94509 0.9702 0.56942 0.0
N355 N 0.82309 0.86834 0.49808 0.0
C356 C 0.91281 0.95014 0.55061 0.0
C357 C 0.84961 0.89912 0.51398 0.0
N358 N 0.95304 0.96056 0.49586 0.0
N359 N 0.79961 0.90657 0.56466 0.0
H360 H 0.82971 0.85502 0.47301 0.0
H361 H 0.79697 0.85262 0.51077 0.0
H362 H 0.79173 0.9164 0.59039 0.0
H363 H 0.77261 0.89427 0.55141 0.0
H364 H 0.97377 0.98453 0.5066 0.0
H365 H 0.95849 0.95489 0.4692 0.0
H366 H 0.97698 0.97589 0.55948 0.0
H367 H 0.94037 0.97942 0.59568 0.0
C368 C 0.24718 0.282 0.22677 0.0
C369 C 0.21312 0.28796 0.20329 0.0
C370 C 0.24266 0.22568 0.16708 0.0
C371 C 0.27327 0.21584 0.19285 0.0
N372 N 0.29375 0.22872 0.25246 0.0
N373 N 0.17214 0.2586 0.15535 0.0
C374 C 0.27227 0.2421 0.2244 0.0
C375 C 0.20823 0.25679 0.17534 0.0
N376 N 0.25724 0.31517 0.25026 0.0
N377 N 0.24872 0.20913 0.13367 0.0
H378 H 0.14678 0.28176 0.16041 0.0
H379 H 0.16551 0.23434 0.13617 0.0
H380 H 0.27686 0.19158 0.12461 0.0
H381 H 0.22906 0.21843 0.11371 0.0
H382 H 0.28544 0.31428 0.26487 0.0
H383 H 0.23914 0.34462 0.25321 0.0
H384 H 0.29105 0.24578 0.27656 0.0
H385 H 0.30959 0.19811 0.25286 0.0
C386 C 0.27997 0.27921 0.65812 0.0
C387 C 0.30489 0.28531 0.68814 0.0
C388 C 0.25871 0.23058 0.71727 0.0
C389 C 0.23624 0.22176 0.68619 0.0
N390 N 0.23629 0.22792 0.62408 0.0
N391 N 0.32674 0.25641 0.74185 0.0
C392 C 0.25003 0.2433 0.6557 0.0
C393 C 0.2969 0.25797 0.71649 0.0
N394 N 0.28518 0.30743 0.63171 0.0
N395 N 0.24289 0.21473 0.7478 0.0
H396 H 0.35509 0.27599 0.74215 0.0
H397 H 0.32513 0.23269 0.76053 0.0
H398 H 0.21444 0.19549 0.7498 0.0
H399 H 0.25601 0.22412 0.77158 0.0
H400 H 0.2648 0.30686 0.6106 0.0
H401 H 0.3072 0.33397 0.63244 0.0
H402 H 0.24843 0.23995 0.60077 0.0
H403 H 0.21698 0.19955 0.62087 0.0
C404 C 0.24879 0.29737 0.35174 0.0
C405 C 0.27956 0.30177 0.37842 0.0
C406 C 0.24268 0.24155 0.40788 0.0
C407 C 0.21768 0.23156 0.37817 0.0
N408 N 0.19992 0.2482 0.31992 0.0
N409 N 0.30922 0.27431 0.43026 0.0
C410 C 0.22121 0.25915 0.34957 0.0
C411 C 0.27754 0.27265 0.40599 0.0
N412 N 0.24436 0.33051 0.32948 0.0
N413 N 0.23185 0.22258 0.43846 0.0
H414 H 0.3356 0.2965 0.42963 0.0
H415 H 0.31162 0.25094 0.44903 0.0
H416 H 0.20467 0.20169 0.44147 0.0
H417 H 0.2464 0.23169 0.4617 0.0
H418 H 0.21789 0.33181 0.31316 0.0
H419 H 0.26467 0.3584 0.32966 0.0
H420 H 0.20478 0.26509 0.29725 0.0
H421 H 0.17984 0.22036 0.31724 0.0
C422 C 0.30857 0.28124 0.84796 0.0
C423 C 0.31576 0.25717 0.87783 0.0
C424 C 0.25855 0.30145 0.90979 0.0
C425 C 0.24583 0.31941 0.87844 0.0
N426 N 0.25668 0.3239 0.81667 0.0
N427 N 0.29373 0.24068 0.93648 0.0
C428 C 0.27046 0.30897 0.84719 0.0
C429 C 0.28968 0.26634 0.90861 0.0
N430 N 0.33913 0.27944 0.82106 0.0
N431 N 0.24125 0.31865 0.94082 0.0
H432 H 0.31567 0.214 0.93648 0.0
H433 H 0.27238 0.24318 0.95833 0.0
H434 H 0.21935 0.34549 0.94263 0.0
H435 H 0.25226 0.30963 0.96467 0.0
H436 H 0.33848 0.3015 0.80127 0.0
H437 H 0.36705 0.25902 0.82035 0.0
H438 H 0.27072 0.31322 0.79263 0.0
H439 H 0.22944 0.3449 0.81539 0.0
C440 C 0.73802 0.77743 0.85033 0.0
C441 C 0.71954 0.7944 0.88261 0.0
C442 C 0.76949 0.74784 0.9131 0.0
C443 C 0.78515 0.72743 0.88117 0.0
N444 N 0.77708 0.71634 0.81958 0.0
N445 N 0.70779 0.78479 0.94371 0.0
C446 C 0.76749 0.74039 0.8497 0.0
C447 C 0.73227 0.77615 0.9137 0.0
N448 N 0.72873 0.79737 0.82055 0.0
N449 N 0.7911 0.74142 0.94281 0.0
H450 H 0.67842 0.80305 0.94435 0.0
H451 H 0.71361 0.76937 0.96663 0.0
H452 H 0.82033 0.72306 0.943 0.0
H453 H 0.78293 0.75851 0.96628 0.0
H454 H 0.7449 0.7892 0.79677 0.0
H455 H 0.70694 0.82412 0.82014 0.0
H456 H 0.76034 0.72103 0.79707 0.0
H457 H 0.79858 0.68922 0.81801 0.0
C458 C 0.72966 0.7606 0.40495 0.0
C459 C 0.72431 0.72719 0.37804 0.0
C460 C 0.79287 0.75337 0.34957 0.0
C461 C 0.79314 0.79065 0.37332 0.0
N462 N 0.75668 0.83386 0.42017 0.0
N463 N 0.74797 0.69746 0.32095 0.0
C464 C 0.75954 0.79577 0.39961 0.0
C465 C 0.7552 0.72495 0.34923 0.0
N466 N 0.70881 0.75725 0.43674 0.0
N467 N 0.82891 0.74441 0.32798 0.0
H468 H 0.71949 0.67853 0.31837 0.0
H469 H 0.76828 0.69669 0.29855 0.0
H470 H 0.85628 0.76534 0.32664 0.0
H471 H 0.83256 0.71473 0.31328 0.0
H472 H 0.71502 0.77867 0.45793 0.0
H473 H 0.69004 0.72995 0.44345 0.0
H474 H 0.73013 0.84075 0.43767 0.0
H475 H 0.77847 0.86029 0.41737 0.0
C476 C 0.78865 0.77691 0.71365 0.0
C477 C 0.78423 0.80757 0.68732 0.0
C478 C 0.71505 0.77123 0.67082 0.0
C479 C 0.72253 0.73755 0.69404 0.0
N480 N 0.77392 0.70225 0.73032 0.0
N481 N 0.75043 0.82328 0.63348 0.0
C482 C 0.76154 0.73852 0.71336 0.0
C483 C 0.74925 0.80199 0.66389 0.0
N484 N 0.81728 0.78474 0.73965 0.0
N485 N 0.67608 0.77296 0.65425 0.0
H486 H 0.77734 0.84214 0.62525 0.0
H487 H 0.72767 0.81734 0.61428 0.0
H488 H 0.65066 0.75017 0.65778 0.0
H489 H 0.6676 0.7994 0.63949 0.0
H490 H 0.81864 0.76488 0.76087 0.0
H491 H 0.8363 0.81329 0.74205 0.0
H492 H 0.80467 0.69963 0.74131 0.0
H493 H 0.75515 0.67346 0.73083 0.0
C494 C 0.76118 0.73381 0.16231 0.0
C495 C 0.78356 0.72908 0.19336 0.0
C496 C 0.72951 0.77889 0.22424 0.0
C497 C 0.71072 0.788 0.19227 0.0
N498 N 0.7174 0.78246 0.12964 0.0
N499 N 0.79509 0.75511 0.2521 0.0
C500 C 0.72885 0.76761 0.1609 0.0
C501 C 0.76941 0.75376 0.22393 0.0
N502 N 0.7711 0.70618 0.13399 0.0
N503 N 0.70865 0.79251 0.25492 0.0
H504 H 0.82419 0.73666 0.25293 0.0
H505 H 0.78904 0.77726 0.27328 0.0
H506 H 0.67868 0.80973 0.25634 0.0
H507 H 0.71901 0.78286 0.27882 0.0
H508 H 0.75298 0.70559 0.11163 0.0
H509 H 0.79465 0.6809 0.13417 0.0
H510 H 0.73264 0.77135 0.10615 0.0
H511 H 0.69669 0.80969 0.12738 0.0
C512 C 0.22295 0.07522 0.27941 0.0
C513 C 0.23394 0.04426 0.3043 0.0
C514 C 0.28628 1.00823 0.26113 0.0
C515 C 0.27223 0.03705 0.23577 0.0
N516 N 0.21788 0.09027 0.21914 0.0
N517 N 0.27062 0.9765 0.31696 0.0
C518 C 0.23706 0.06738 0.24426 0.0
C519 C 0.26397 1.00917 0.29456 0.0
N520 N 0.20285 0.11463 0.28958 0.0
N521 N 0.32152 0.98067 0.25349 0.0
H522 H 0.25435 0.97614 0.34126 0.0
H523 H 0.2891 0.94802 0.31033 0.0
H524 H 0.33679 0.97769 0.22878 0.0
H525 H 0.33679 0.96256 0.27191 0.0
H526 H 0.19891 0.14027 0.2729 0.0
H527 H 0.19535 0.12455 0.3153 0.0
H528 H 0.18926 0.10924 0.22393 0.0
H529 H 0.22723 0.08699 0.19298 0.0
C530 C 0.46096 0.30776 0.77733 0.0
C531 C 0.48791 0.28877 0.74924 0.0
C532 C 0.51919 0.23743 0.78951 0.0
C533 C 0.49398 0.25833 0.81757 0.0
N534 N 0.45174 0.32284 0.83906 0.0
N535 N 0.5505 0.24265 0.73094 0.0
C536 C 0.46923 0.29706 0.81183 0.0
C537 C 0.5195 0.25572 0.75604 0.0
N538 N 0.42444 0.33264 0.77128 0.0
N539 N 0.54239 0.19972 0.79478 0.0
H540 H 0.55262 0.25655 0.70678 0.0
H541 H 0.57671 0.22148 0.73524 0.0
H542 H 0.54516 0.18736 0.81933 0.0
H543 H 0.55708 0.17986 0.77471 0.0
H544 H 0.40244 0.3449 0.79085 0.0
H545 H 0.41209 0.3362 0.74686 0.0
H546 H 0.43759 0.35379 0.83599 0.0
H547 H 0.45551 0.31626 0.86489 0.0
C548 C 0.21933 0.45218 0.29278 0.0
C549 C 0.23945 0.47402 0.26431 0.0
C550 C 0.29741 0.50167 0.30288 0.0
C551 C 0.27607 0.48113 0.33131 0.0
N552 N 0.20738 0.4514 0.3548 0.0
N553 N 0.29097 0.52942 0.24534 0.0
C554 C 0.23371 0.46187 0.32686 0.0
C555 C 0.27648 0.5019 0.27033 0.0
N556 N 0.18936 0.41891 0.28747 0.0
N557 N 0.33796 0.52057 0.30689 0.0
H558 H 0.27525 0.53168 0.22197 0.0
H559 H 0.31542 0.55316 0.24919 0.0
H560 H 0.3524 0.52404 0.33093 0.0
H561 H 0.35782 0.53111 0.28627 0.0
H562 H 0.17673 0.39985 0.30727 0.0
H563 H 0.18129 0.40585 0.26319 0.0
H564 H 0.17471 0.4411 0.35254 0.0
H565 H 0.21544 0.45829 0.38034 0.0
C566 C 0.09435 0.27735 0.76018 0.0
C567 C 0.05962 0.24738 0.75207 0.0
C568 C 0.0276 0.25927 0.81164 0.0
C569 C 0.06209 0.28966 0.81951 0.0
N570 N 0.1272 0.32993 0.80036 0.0
N571 N 0.99087 0.21288 0.76799 0.0
C572 C 0.09472 0.29967 0.79339 0.0
C573 C 0.02554 0.23921 0.7773 0.0
N574 N 0.12932 0.28193 0.73701 0.0
N575 N 0.99709 0.24947 0.83715 0.0
H576 H 0.98874 0.19827 0.7431 0.0
H577 H 0.96299 0.20749 0.78382 0.0
H578 H 0.99621 0.26555 0.86166 0.0
H579 H 0.97346 0.2247 0.83472 0.0
H580 H 0.15934 0.29637 0.7433 0.0
H581 H 0.12985 0.26907 0.71161 0.0
H582 H 0.14598 0.34517 0.7812 0.0
H583 H 0.13523 0.34108 0.82516 0.0
C584 C 0.73755 0.01508 0.81311 0.0
C585 C 0.74644 0.9792 0.83423 0.0
C586 C 0.79213 0.94388 0.7868 0.0
C587 C 0.78617 0.98117 0.76629 0.0
N588 N 0.75877 0.05542 0.76205 0.0
N589 N 0.79032 0.91409 0.84355 0.0
C590 C 0.76049 0.01781 0.78012 0.0
C591 C 0.77685 0.9456 0.822 0.0
N592 N 0.70661 0.04605 0.82436 0.0
N593 N 0.80856 0.90487 0.772 0.0
H594 H 0.77844 0.91177 0.86901 0.0
H595 H 0.81648 0.89236 0.83702 0.0
H596 H 0.81769 0.90018 0.74589 0.0
H597 H 0.80812 0.87527 0.78471 0.0
H598 H 0.69476 0.07024 0.80882 0.0
H599 H 0.69113 0.04607 0.84899 0.0
H600 H 0.74399 0.08476 0.77193 0.0
H601 H 0.77549 0.05834 0.73814 0.0
C602 C 0.57869 0.72771 0.29428 0.0
C603 C 0.54386 0.73257 0.32012 0.0
C604 C 0.50559 0.78288 0.28257 0.0
C605 C 0.53833 0.77397 0.25569 0.0
N606 N 0.60146 0.72992 0.23398 0.0
N607 N 0.47123 0.76061 0.3371 0.0
C608 C 0.57301 0.74351 0.26083 0.0
C609 C 0.5064 0.75908 0.31378 0.0
N610 N 0.61904 0.7114 0.30231 0.0
N611 N 0.47412 0.81441 0.27844 0.0
H612 H 0.47087 0.74337 0.35982 0.0
H613 H 0.44126 0.77591 0.33267 0.0
H614 H 0.47167 0.83074 0.25543 0.0
H615 H 0.45218 0.82606 0.29828 0.0
H616 H 0.64705 0.71241 0.28575 0.0
H617 H 0.62646 0.70195 0.32689 0.0
H618 H 0.62386 0.70392 0.23559 0.0
H619 H 0.6003 0.74136 0.20913 0.0
C620 C 0.79176 0.52711 0.78901 0.0
C621 C 0.77829 0.55619 0.8175 0.0
C622 C 0.72594 0.59224 0.78075 0.0
C623 C 0.73676 0.56101 0.75277 0.0
N624 N 0.77416 0.4935 0.73279 0.0
N625 N 0.72589 0.61106 0.84207 0.0
C626 C 0.76811 0.52692 0.75761 0.0
C627 C 0.7429 0.58646 0.81396 0.0
N628 N 0.82745 0.49996 0.79183 0.0
N629 N 0.70258 0.62996 0.7753 0.0
H630 H 0.73894 0.61168 0.86653 0.0
H631 H 0.6962 0.62859 0.84178 0.0
H632 H 0.69129 0.63824 0.75145 0.0
H633 H 0.69897 0.65632 0.79359 0.0
H634 H 0.84227 0.48173 0.77091 0.0
H635 H 0.84379 0.49761 0.81492 0.0
H636 H 0.79338 0.46551 0.73604 0.0
H637 H 0.75655 0.49171 0.71013 0.0
C638 C 0.96662 0.73979 0.31686 0.0
C639 C 0.98182 0.78382 0.32163 0.0
C640 C 0.99852 0.78344 0.25867 0.0
C641 C 0.97148 0.74529 0.25367 0.0
N642 N 0.92044 0.69401 0.28122 0.0
N643 N 0.01608 0.84711 0.29647 0.0
C644 C 0.95338 0.72479 0.28358 0.0
C645 C 0.99918 0.80546 0.29226 0.0
N646 N 0.96371 0.71242 0.34386 0.0
N647 N 0.02458 0.79782 0.23187 0.0
H648 H 0.02053 0.86221 0.32094 0.0
H649 H 0.02417 0.86685 0.27582 0.0
H650 H 0.02727 0.78076 0.20778 0.0
H651 H 0.0473 0.82346 0.23475 0.0
H652 H 0.95485 0.67919 0.34064 0.0
H653 H 0.97675 0.72063 0.36782 0.0
H654 H 0.90544 0.68034 0.30295 0.0
H655 H 0.90317 0.68705 0.2589 0.0
C656 C 0.52903 0.06903 0.18467 0.0
C657 C 0.49174 0.07072 0.20825 0.0
C658 C 0.52192 1.00738 0.23754 0.0
C659 C 0.55501 1.00145 0.21061 0.0
N660 N 0.58487 0.02267 0.15475 0.0
N661 N 0.45184 0.04146 0.25715 0.0
C662 C 0.55779 0.03166 0.18349 0.0
C663 C 0.48812 0.03998 0.23487 0.0
N664 N 0.53646 0.10226 0.16244 0.0
N665 N 0.52331 0.98224 0.26589 0.0
H666 H 0.42823 0.06672 0.25744 0.0
H667 H 0.44414 0.01684 0.27428 0.0
H668 H 0.54799 0.95864 0.26865 0.0
H669 H 0.50261 0.98735 0.2879 0.0
H670 H 0.56591 0.10521 0.1478 0.0
H671 H 0.51535 0.12919 0.16072 0.0
H672 H 0.58391 0.04043 0.13239 0.0
H673 H 0.60509 0.99478 0.1513 0.0
C674 C 0.48635 0.56773 0.72452 0.0
C675 C 0.52233 0.56634 0.69963 0.0
C676 C 0.49499 0.49599 0.67422 0.0
C677 C 0.45839 0.49766 0.69849 0.0
N678 N 0.41545 0.53713 0.74379 0.0
N679 N 0.55564 0.53372 0.64632 0.0
C680 C 0.45276 0.53436 0.72266 0.0
C681 C 0.5253 0.5316 0.67343 0.0
N682 N 0.48546 0.59973 0.75075 0.0
N683 N 0.50112 0.46004 0.65159 0.0
H684 H 0.57927 0.5584 0.64437 0.0
H685 H 0.55512 0.51325 0.62388 0.0
H686 H 0.47699 0.43623 0.64691 0.0
H687 H 0.53113 0.45271 0.63834 0.0
H688 H 0.46274 0.60053 0.7717 0.0
H689 H 0.50957 0.62424 0.75278 0.0
H690 H 0.40688 0.56479 0.75974 0.0
H691 H 0.39141 0.51242 0.74382 0.0
C692 C 0.99551 0.46806 0.1775 0.0
C693 C 0.01659 0.46317 0.20935 0.0
C694 C 0.97042 0.52343 0.23657 0.0
C695 C 0.9484 0.5271 0.20505 0.0
N696 N 0.93431 0.49735 0.14731 0.0
N697 N 0.0197 0.48065 0.27051 0.0
C698 C 0.95872 0.49721 0.17633 0.0
C699 C 1.00265 0.48924 0.23933 0.0
N700 N 0.01293 0.44787 0.1475 0.0
N701 N 0.96102 0.55321 0.26364 0.0
H702 H 0.04314 0.45578 0.27314 0.0
H703 H 1.00829 0.49551 0.29404 0.0
H704 H 0.93573 0.5767 0.2632 0.0
H705 H 0.97931 0.55599 0.28585 0.0
H706 H 1.00286 0.45501 0.12295 0.0
H707 H 0.04042 0.42703 0.14637 0.0
H708 H 0.93647 0.47244 0.12772 0.0
H709 H 0.90946 0.52028 0.1436 0.0
C710 C 0.02977 0.9614 0.66822 0.0
C711 C 1.00153 0.9539 0.69763 0.0
C712 C 0.04233 1.00992 0.73188 0.0
C713 C 0.07137 0.01624 0.70277 0.0
N714 N 0.09821 0.9912 0.64515 0.0
N715 N 0.9855 0.9646 0.7589 0.0
C716 C 0.06723 0.98931 0.67182 0.0
C717 C 1.0093 0.97623 0.72997 0.0
N718 N 0.01872 0.9453 0.636 0.0
N719 N 0.04582 0.03679 0.7611 0.0
H720 H 0.96154 0.93981 0.75819 0.0
H721 H 0.99192 0.97662 0.78386 0.0
H722 H 0.07125 0.05981 0.76399 0.0
H723 H 0.02262 0.03774 0.78176 0.0
H724 H 0.03454 0.9548 0.61314 0.0
H725 H 0.99102 0.92585 0.63135 0.0
H726 H 0.09997 0.96804 0.62428 0.0
H727 H 0.12433 1.01348 0.64467 0.0
C728 C 0.5655 0.47963 0.38447 0.0
C729 C 0.56655 0.51349 0.36005 0.0
C730 C 0.50142 0.47985 0.33262 0.0
C731 C 0.49726 0.44987 0.35964 0.0
N732 N 0.52246 0.42392 0.41353 0.0
N733 N 0.53683 0.54529 0.31 0.0
C734 C 0.52905 0.44984 0.38572 0.0
C735 C 0.53496 0.51318 0.33371 0.0
N736 N 0.59858 0.47634 0.40731 0.0
N737 N 0.47357 0.4758 0.30568 0.0
H738 H 0.56303 0.56757 0.30817 0.0
H739 H 0.51215 0.55081 0.29273 0.0
H740 H 0.44904 0.45161 0.30432 0.0
H741 H 0.47651 0.4939 0.28352 0.0
H742 H 0.60303 0.4487 0.42185 0.0
H743 H 0.62367 0.49941 0.41047 0.0
H744 H 0.54052 0.42696 0.43586 0.0
H745 H 0.49651 0.40153 0.41592 0.0
C746 C 0.04625 0.51697 0.83702 0.0
C747 C 0.07147 0.5148 0.86717 0.0
C748 C 0.02774 0.5763 0.89529 0.0
C749 C 1.0026 0.57852 0.86515 0.0
N750 N 0.9918 0.55683 0.80554 0.0
N751 N 0.09107 0.54734 0.92302 0.0
C752 C 0.01312 0.55055 0.83542 0.0
C753 C 0.06418 0.54644 0.89539 0.0
N754 N 0.05372 0.48645 0.81013 0.0
N755 N 0.01452 0.59998 0.92505 0.0
H756 H 0.11459 0.52324 0.92713 0.0
H757 H 0.0919 0.57377 0.9413 0.0
H758 H 0.98802 0.62212 0.92675 0.0
H759 H 0.02739 0.59524 0.94915 0.0
H760 H 0.03343 0.48242 0.78914 0.0
H761 H 0.07988 0.46381 0.80933 0.0
H762 H 1.0 0.5404 0.78188 0.0
H763 H 0.96768 0.58128 0.80381 0.0
C764 C 0.94549 0.03627 0.3868 0.0
C765 C 0.94285 1.00482 0.35849 0.0
C766 C 1.00475 0.04177 0.32848 0.0
C767 C 0.01154 0.06867 0.35894 0.0
N768 N 0.99315 0.08437 0.41996 0.0
N769 N 0.97094 0.97568 0.30284 0.0
C770 C 0.98276 0.06466 0.38871 0.0
C771 C 0.97266 1.00717 0.32933 0.0
N772 N 0.91326 0.03814 0.41269 0.0
N773 N 0.02856 0.04978 0.29868 0.0
H774 H 0.94638 0.95149 0.30189 0.0
H775 H 0.99494 0.97217 0.28281 0.0
H776 H 0.05173 0.07523 0.29728 0.0
H777 H 0.02264 0.03401 0.27478 0.0
H778 H 0.91094 0.06381 0.43168 0.0
H779 H 0.88655 0.01652 0.4137 0.0
H780 H 0.9764 0.07785 0.44321 0.0
H781 H 0.0213 0.10342 0.42382 0.0
C782 C 0.51649 0.99532 0.89912 0.0
C783 C 0.52324 0.96496 0.87052 0.0
C784 C 0.47034 1.00711 0.83818 0.0
C785 C 0.46916 0.04087 0.86523 0.0
N786 N 0.50057 0.07022 0.91854 0.0
N787 N 0.50883 0.94212 0.81169 0.0
C788 C 0.4951 0.036 0.89472 0.0
C789 C 0.50054 0.97064 0.83967 0.0
N790 N 0.52898 0.98457 0.93122 0.0
N791 N 0.44313 1.01018 0.81108 0.0
H792 H 0.52989 0.91485 0.81264 0.0
H793 H 0.49688 0.94675 0.78725 0.0
H794 H 0.42252 0.03744 0.8085 0.0
H795 H 0.43926 0.98482 0.79226 0.0
H796 H 0.51958 1.00337 0.95365 0.0
H797 H 0.54368 0.95431 0.93589 0.0
H798 H 0.52362 0.06931 0.93783 0.0
H799 H 0.48489 0.10066 0.91798 0.0
loop_
_geom_bond_atom_site_label_1
_geom_bond_atom_site_label_2
_geom_bond_distance
_geom_bond_site_symmetry_2
_ccdc_geom_bond_type
O0 Cd1 2.223 . S
O0 C8 1.315 . S
Cd1 O0 2.223 . S
Cd1 O4 2.297 . S
Cd1 O5 2.439 . S
Cd1 O11 2.240 . S
Cd2 O3 2.240 . S
Cd2 O10 2.223 . S
Cd2 O12 2.297 . S
Cd2 O13 2.439 . S
O3 Cd2 2.240 . S
O3 C8 1.279 . S
O4 Cd1 2.297 . S
O4 C6 1.247 . S
O5 Cd1 2.439 . S
O5 C6 1.208 . S
C6 O4 1.247 . S
C6 O5 1.208 . S
C7 O12 1.247 . S
C7 O13 1.208 . S
C8 O0 1.315 . S
C8 O3 1.279 . S
C9 O10 1.315 . S
C9 O11 1.279 . S
O10 Cd2 2.223 . S
O10 C9 1.315 . S
O11 Cd1 2.240 . S
O11 C9 1.279 . S
O12 Cd2 2.297 . S
O12 C7 1.247 . S
O13 Cd2 2.439 . S
O13 C7 1.208 . S
O14 Cd15 2.223 . S
O14 C22 1.315 . S
Cd15 O14 2.223 . S
Cd15 O18 2.297 . S
Cd15 O19 2.439 . S
Cd15 O25 2.240 . S
Cd16 O17 2.240 . S
Cd16 O24 2.223 . S
Cd16 O26 2.297 . S
Cd16 O27 2.439 . S
O17 Cd16 2.240 . S
O17 C22 1.279 . S
O18 Cd15 2.297 . S
O18 C20 1.247 . S
O19 Cd15 2.439 . S
O19 C20 1.208 . S
C20 O18 1.247 . S
C20 O19 1.208 . S
C21 O26 1.247 . S
C21 O27 1.208 . S
C22 O14 1.315 . S
C22 O17 1.279 . S
C23 O24 1.315 . S
C23 O25 1.279 . S
O24 Cd16 2.223 . S
O24 C23 1.315 . S
O25 Cd15 2.240 . S
O25 C23 1.279 . S
O26 Cd16 2.297 . S
O26 C21 1.247 . S
O27 Cd16 2.439 . S
O27 C21 1.208 . S
O28 Cd29 2.223 . S
O28 C36 1.315 . S
Cd29 O28 2.223 . S
Cd29 O32 2.297 . S
Cd29 O33 2.439 . S
Cd29 O39 2.240 . S
Cd30 O31 2.240 . S
Cd30 O38 2.223 . S
Cd30 O40 2.297 . S
Cd30 O41 2.439 . S
O31 Cd30 2.240 . S
O31 C36 1.279 . S
O32 Cd29 2.297 . S
O32 C34 1.247 . S
O33 Cd29 2.439 . S
O33 C34 1.208 . S
C34 O32 1.247 . S
C34 O33 1.208 . S
C35 O40 1.247 . S
C35 O41 1.208 . S
C36 O28 1.315 . S
C36 O31 1.279 . S
C37 O38 1.315 . S
C37 O39 1.279 . S
O38 Cd30 2.223 . S
O38 C37 1.315 . S
O39 Cd29 2.240 . S
O39 C37 1.279 . S
O40 Cd30 2.297 . S
O40 C35 1.247 . S
O41 Cd30 2.439 . S
O41 C35 1.208 . S
O42 Cd43 2.223 . S
O42 C50 1.315 . S
Cd43 O42 2.223 . S
Cd43 O46 2.297 . S
Cd43 O47 2.439 . S
Cd43 O53 2.240 . S
Cd44 O45 2.240 . S
Cd44 O52 2.223 . S
Cd44 O54 2.297 . S
Cd44 O55 2.439 . S
O45 Cd44 2.240 . S
O45 C50 1.279 . S
O46 Cd43 2.297 . S
O46 C48 1.247 . S
O47 Cd43 2.439 . S
O47 C48 1.208 . S
C48 O46 1.247 . S
C48 O47 1.208 . S
C49 O54 1.247 . S
C49 O55 1.208 . S
C50 O42 1.315 . S
C50 O45 1.279 . S
C51 O52 1.315 . S
C51 O53 1.279 . S
O52 Cd44 2.223 . S
O52 C51 1.315 . S
O53 Cd43 2.240 . S
O53 C51 1.279 . S
O54 Cd44 2.297 . S
O54 C49 1.247 . S
O55 Cd44 2.439 . S
O55 C49 1.208 . S
O56 Cd57 2.223 . S
O56 C64 1.315 . S
Cd57 O56 2.223 . S
Cd57 O60 2.297 . S
Cd57 O61 2.439 . S
Cd57 O67 2.240 . S
Cd58 O59 2.240 . S
Cd58 O66 2.223 . S
Cd58 O68 2.297 . S
Cd58 O69 2.439 . S
O59 Cd58 2.240 . S
O59 C64 1.279 . S
O60 Cd57 2.297 . S
O60 C62 1.247 . S
O61 Cd57 2.439 . S
O61 C62 1.208 . S
C62 O60 1.247 . S
C62 O61 1.208 . S
C63 O68 1.247 . S
C63 O69 1.208 . S
C64 O56 1.315 . S
C64 O59 1.279 . S
C65 O66 1.315 . S
C65 O67 1.279 . S
O66 Cd58 2.223 . S
O66 C65 1.315 . S
O67 Cd57 2.240 . S
O67 C65 1.279 . S
O68 Cd58 2.297 . S
O68 C63 1.247 . S
O69 Cd58 2.439 . S
O69 C63 1.208 . S
O70 Cd71 2.223 . S
O70 C78 1.315 . S
Cd71 O70 2.223 . S
Cd71 O74 2.297 . S
Cd71 O75 2.439 . S
Cd71 O81 2.240 . S
Cd72 O73 2.240 . S
Cd72 O80 2.223 . S
Cd72 O82 2.297 . S
Cd72 O83 2.439 . S
O73 Cd72 2.240 . S
O73 C78 1.279 . S
O74 Cd71 2.297 . S
O74 C76 1.247 . S
O75 Cd71 2.439 . S
O75 C76 1.208 . S
C76 O74 1.247 . S
C76 O75 1.208 . S
C77 O82 1.247 . S
C77 O83 1.208 . S
C78 O70 1.315 . S
C78 O73 1.279 . S
C79 O80 1.315 . S
C79 O81 1.279 . S
O80 Cd72 2.223 . S
O80 C79 1.315 . S
O81 Cd71 2.240 . S
O81 C79 1.279 . S
O82 Cd72 2.297 . S
O82 C77 1.247 . S
O83 Cd72 2.439 . S
O83 C77 1.208 . S
O84 Cd85 2.223 . S
O84 C92 1.315 . S
Cd85 O84 2.223 . S
Cd85 O88 2.297 . S
Cd85 O89 2.439 . S
Cd85 O95 2.240 . S
Cd86 O87 2.240 . S
Cd86 O94 2.223 . S
Cd86 O96 2.297 . S
Cd86 O97 2.439 . S
O87 Cd86 2.240 . S
O87 C92 1.279 . S
O88 Cd85 2.297 . S
O88 C90 1.247 . S
O89 Cd85 2.439 . S
O89 C90 1.208 . S
C90 O88 1.247 . S
C90 O89 1.208 . S
C91 O96 1.247 . S
C91 O97 1.208 . S
C92 O84 1.315 . S
C92 O87 1.279 . S
C93 O94 1.315 . S
C93 O95 1.279 . S
O94 Cd86 2.223 . S
O94 C93 1.315 . S
O95 Cd85 2.240 . S
O95 C93 1.279 . S
O96 Cd86 2.297 . S
O96 C91 1.247 . S
O97 Cd86 2.439 . S
O97 C91 1.208 . S
O98 Cd99 2.223 . S
O98 C106 1.315 . S
Cd99 O98 2.223 . S
Cd99 O102 2.297 . S
Cd99 O103 2.439 . S
Cd99 O109 2.240 . S
Cd100 O101 2.240 . S
Cd100 O108 2.223 . S
Cd100 O110 2.297 . S
Cd100 O111 2.439 . S
O101 Cd100 2.240 . S
O101 C106 1.279 . S
O102 Cd99 2.297 . S
O102 C104 1.247 . S
O103 Cd99 2.439 . S
O103 C104 1.208 . S
C104 O102 1.247 . S
C104 O103 1.208 . S
C105 O110 1.247 . S
C105 O111 1.208 . S
C106 O98 1.315 . S
C106 O101 1.279 . S
C107 O108 1.315 . S
C107 O109 1.279 . S
O108 Cd100 2.223 . S
O108 C107 1.315 . S
O109 Cd99 2.240 . S
O109 C107 1.279 . S
O110 Cd100 2.297 . S
O110 C105 1.247 . S
O111 Cd100 2.439 . S
O111 C105 1.208 . S
O112 Cd113 2.223 . S
O112 C120 1.315 . S
Cd113 O112 2.223 . S
Cd113 O116 2.297 . S
Cd113 O117 2.439 . S
Cd113 O123 2.240 . S
Cd114 O115 2.240 . S
Cd114 O122 2.223 . S
Cd114 O124 2.297 . S
Cd114 O125 2.439 . S
O115 Cd114 2.240 . S
O115 C120 1.279 . S
O116 Cd113 2.297 . S
O116 C118 1.247 . S
O117 Cd113 2.439 . S
O117 C118 1.208 . S
C118 O116 1.247 . S
C118 O117 1.208 . S
C119 O124 1.247 . S
C119 O125 1.208 . S
C120 O112 1.315 . S
C120 O115 1.279 . S
C121 O122 1.315 . S
C121 O123 1.279 . S
O122 Cd114 2.223 . S
O122 C121 1.315 . S
O123 Cd113 2.240 . S
O123 C121 1.279 . S
O124 Cd114 2.297 . S
O124 C119 1.247 . S
O125 Cd114 2.439 . S
O125 C119 1.208 . S
O126 Cd127 2.223 . S
O126 C134 1.315 . S
Cd127 O126 2.223 . S
Cd127 O130 2.297 . S
Cd127 O131 2.439 . S
Cd127 O137 2.240 . S
Cd128 O129 2.240 . S
Cd128 O136 2.223 . S
Cd128 O138 2.297 . S
Cd128 O139 2.439 . S
O129 Cd128 2.240 . S
O129 C134 1.279 . S
O130 Cd127 2.297 . S
O130 C132 1.247 . S
O131 Cd127 2.439 . S
O131 C132 1.208 . S
C132 O130 1.247 . S
C132 O131 1.208 . S
C133 O138 1.247 . S
C133 O139 1.208 . S
C134 O126 1.315 . S
C134 O129 1.279 . S
C135 O136 1.315 . S
C135 O137 1.279 . S
O136 Cd128 2.223 . S
O136 C135 1.315 . S
O137 Cd127 2.240 . S
O137 C135 1.279 . S
O138 Cd128 2.297 . S
O138 C133 1.247 . S
O139 Cd128 2.439 . S
O139 C133 1.208 . S
O140 Cd141 2.223 . S
O140 C148 1.315 . S
Cd141 O140 2.223 . S
Cd141 O144 2.297 . S
Cd141 O145 2.439 . S
Cd141 O151 2.240 . S
Cd142 O143 2.240 . S
Cd142 O150 2.223 . S
Cd142 O152 2.297 . S
Cd142 O153 2.439 . S
O143 Cd142 2.240 . S
O143 C148 1.279 . S
O144 Cd141 2.297 . S
O144 C146 1.247 . S
O145 Cd141 2.439 . S
O145 C146 1.208 . S
C146 O144 1.247 . S
C146 O145 1.208 . S
C147 O152 1.247 . S
C147 O153 1.208 . S
C148 O140 1.315 . S
C148 O143 1.279 . S
C149 O150 1.315 . S
C149 O151 1.279 . S
O150 Cd142 2.223 . S
O150 C149 1.315 . S
O151 Cd141 2.240 . S
O151 C149 1.279 . S
O152 Cd142 2.297 . S
O152 C147 1.247 . S
O153 Cd142 2.439 . S
O153 C147 1.208 . S
O154 Cd155 2.223 . S
O154 C162 1.315 . S
Cd155 O154 2.223 . S
Cd155 O158 2.297 . S
Cd155 O159 2.439 . S
Cd155 O165 2.240 . S
Cd156 O157 2.240 . S
Cd156 O164 2.223 . S
Cd156 O166 2.297 . S
Cd156 O167 2.439 . S
O157 Cd156 2.240 . S
O157 C162 1.279 . S
O158 Cd155 2.297 . S
O158 C160 1.247 . S
O159 Cd155 2.439 . S
O159 C160 1.208 . S
C160 O158 1.247 . S
C160 O159 1.208 . S
C161 O166 1.247 . S
C161 O167 1.208 . S
C162 O154 1.315 . S
C162 O157 1.279 . S
C163 O164 1.315 . S
C163 O165 1.279 . S
O164 Cd156 2.223 . S
O164 C163 1.315 . S
O165 Cd155 2.240 . S
O165 C163 1.279 . S
O166 Cd156 2.297 . S
O166 C161 1.247 . S
O167 Cd156 2.439 . S
O167 C161 1.208 . S
O168 Cd169 2.223 . S
O168 C176 1.315 . S
Cd169 O168 2.223 . S
Cd169 O172 2.297 . S
Cd169 O173 2.439 . S
Cd169 O179 2.240 . S
Cd170 O171 2.240 . S
Cd170 O178 2.223 . S
Cd170 O180 2.297 . S
Cd170 O181 2.439 . S
O171 Cd170 2.240 . S
O171 C176 1.279 . S
O172 Cd169 2.297 . S
O172 C174 1.247 . S
O173 Cd169 2.439 . S
O173 C174 1.208 . S
C174 O172 1.247 . S
C174 O173 1.208 . S
C175 O180 1.247 . S
C175 O181 1.208 . S
C176 O168 1.315 . S
C176 O171 1.279 . S
C177 O178 1.315 . S
C177 O179 1.279 . S
O178 Cd170 2.223 . S
O178 C177 1.315 . S
O179 Cd169 2.240 . S
O179 C177 1.279 . S
O180 Cd170 2.297 . S
O180 C175 1.247 . S
O181 Cd170 2.439 . S
O181 C175 1.208 . S
O182 Cd183 2.223 . S
O182 C190 1.315 . S
Cd183 O182 2.223 . S
Cd183 O186 2.297 . S
Cd183 O187 2.439 . S
Cd183 O193 2.240 . S
Cd184 O185 2.240 . S
Cd184 O192 2.223 . S
Cd184 O194 2.297 . S
Cd184 O195 2.439 . S
O185 Cd184 2.240 . S
O185 C190 1.279 . S
O186 Cd183 2.297 . S
O186 C188 1.247 . S
O187 Cd183 2.439 . S
O187 C188 1.208 . S
C188 O186 1.247 . S
C188 O187 1.208 . S
C189 O194 1.247 . S
C189 O195 1.208 . S
C190 O182 1.315 . S
C190 O185 1.279 . S
C191 O192 1.315 . S
C191 O193 1.279 . S
O192 Cd184 2.223 . S
O192 C191 1.315 . S
O193 Cd183 2.240 . S
O193 C191 1.279 . S
O194 Cd184 2.297 . S
O194 C189 1.247 . S
O195 Cd184 2.439 . S
O195 C189 1.208 . S
O196 Cd197 2.223 . S
O196 C204 1.315 . S
Cd197 O196 2.223 . S
Cd197 O200 2.297 . S
Cd197 O201 2.439 . S
Cd197 O207 2.240 . S
Cd198 O199 2.240 . S
Cd198 O206 2.223 . S
Cd198 O208 2.297 . S
Cd198 O209 2.439 . S
O199 Cd198 2.240 . S
O199 C204 1.279 . S
O200 Cd197 2.297 . S
O200 C202 1.247 . S
O201 Cd197 2.439 . S
O201 C202 1.208 . S
C202 O200 1.247 . S
C202 O201 1.208 . S
C203 O208 1.247 . S
C203 O209 1.208 . S
C204 O196 1.315 . S
C204 O199 1.279 . S
C205 O206 1.315 . S
C205 O207 1.279 . S
O206 Cd198 2.223 . S
O206 C205 1.315 . S
O207 Cd197 2.240 . S
O207 C205 1.279 . S
O208 Cd198 2.297 . S
O208 C203 1.247 . S
O209 Cd198 2.439 . S
O209 C203 1.208 . S
O210 Cd211 2.223 . S
O210 C218 1.315 . S
Cd211 O210 2.223 . S
Cd211 O214 2.297 . S
Cd211 O215 2.439 . S
Cd211 O221 2.240 . S
Cd212 O213 2.240 . S
Cd212 O220 2.223 . S
Cd212 O222 2.297 . S
Cd212 O223 2.439 . S
O213 Cd212 2.240 . S
O213 C218 1.279 . S
O214 Cd211 2.297 . S
O214 C216 1.247 . S
O215 Cd211 2.439 . S
O215 C216 1.208 . S
C216 O214 1.247 . S
C216 O215 1.208 . S
C217 O222 1.247 . S
C217 O223 1.208 . S
C218 O210 1.315 . S
C218 O213 1.279 . S
C219 O220 1.315 . S
C219 O221 1.279 . S
O220 Cd212 2.223 . S
O220 C219 1.315 . S
O221 Cd211 2.240 . S
O221 C219 1.279 . S
O222 Cd212 2.297 . S
O222 C217 1.247 . S
O223 Cd212 2.439 . S
O223 C217 1.208 . S
C224 C225 1.363 1_554 S
C224 C230 1.379 . S
C224 N232 1.356 . S
C225 C224 1.363 1_556 S
C225 C231 1.363 . S
C226 C227 1.363 1_556 S
C226 C231 1.379 . S
C226 N233 1.356 . S
C227 C226 1.363 1_554 S
C227 C230 1.363 . S
N228 C230 1.356 . S
N228 H240 0.984 . S
N228 H241 0.985 . S
N229 C231 1.356 . S
N229 H234 0.984 . S
N229 H235 0.985 . S
C230 C224 1.379 . S
C230 C227 1.363 . S
C230 N228 1.356 . S
C231 C225 1.363 . S
C231 C226 1.379 . S
C231 N229 1.356 . S
N232 C224 1.356 . S
N232 H238 0.984 . S
N232 H239 0.984 1_554 S
N233 C226 1.356 . S
N233 H236 0.984 . S
N233 H237 0.985 . S
H234 N229 0.984 . S
H235 N229 0.985 . S
H236 N233 0.984 . S
H237 N233 0.985 . S
H238 N232 0.984 . S
H239 N232 0.984 1_556 S
H240 N228 0.984 . S
H241 N228 0.985 . S
C242 C243 1.363 . S
C242 C248 1.379 . S
C242 N250 1.356 . S
C243 C242 1.363 . S
C243 C249 1.363 . S
C244 C245 1.363 . S
C244 C249 1.379 . S
C244 N251 1.356 . S
C245 C244 1.363 . S
C245 C248 1.363 . S
N246 C248 1.356 . S
N246 H258 0.984 . S
N246 H259 0.985 . S
N247 C249 1.356 . S
N247 H252 0.984 . S
N247 H253 0.985 . S
C248 C242 1.379 . S
C248 C245 1.363 . S
C248 N246 1.356 . S
C249 C243 1.363 . S
C249 C244 1.379 . S
C249 N247 1.356 . S
N250 C242 1.356 . S
N250 H256 0.984 . S
N250 H257 0.984 . S
N251 C244 1.356 . S
N251 H254 0.984 . S
N251 H255 0.985 . S
H252 N247 0.984 . S
H253 N247 0.985 . S
H254 N251 0.984 . S
H255 N251 0.985 . S
H256 N250 0.984 . S
H257 N250 0.984 . S
H258 N246 0.984 . S
H259 N246 0.985 . S
C260 C261 1.363 1_554 S
C260 C266 1.379 . S
C260 N268 1.356 . S
C261 C260 1.363 1_556 S
C261 C267 1.363 . S
C262 C263 1.363 1_556 S
C262 C267 1.379 . S
C262 N269 1.356 . S
C263 C262 1.363 1_554 S
C263 C266 1.363 . S
N264 C266 1.356 . S
N264 H276 0.984 . S
N264 H277 0.985 . S
N265 C267 1.356 . S
N265 H270 0.984 . S
N265 H271 0.985 . S
C266 C260 1.379 . S
C266 C263 1.363 . S
C266 N264 1.356 . S
C267 C261 1.363 . S
C267 C262 1.379 . S
C267 N265 1.356 . S
N268 C260 1.356 . S
N268 H274 0.984 . S
N268 H275 0.984 . S
N269 C262 1.356 . S
N269 H272 0.984 . S
N269 H273 0.985 . S
H270 N265 0.984 . S
H271 N265 0.985 . S
H272 N269 0.984 . S
H273 N269 0.985 . S
H274 N268 0.984 . S
H275 N268 0.984 . S
H276 N264 0.984 . S
H277 N264 0.985 . S
C278 C279 1.363 . S
C278 C284 1.379 . S
C278 N286 1.356 . S
C279 C278 1.363 . S
C279 C285 1.363 . S
C280 C281 1.363 . S
C280 C285 1.379 . S
C280 N287 1.356 . S
C281 C280 1.363 . S
C281 C284 1.363 . S
N282 C284 1.356 . S
N282 H294 0.984 . S
N282 H295 0.985 . S
N283 C285 1.356 . S
N283 H288 0.984 . S
N283 H289 0.985 . S
C284 C278 1.379 . S
C284 C281 1.363 . S
C284 N282 1.356 . S
C285 C279 1.363 . S
C285 C280 1.379 . S
C285 N283 1.356 . S
N286 C278 1.356 . S
N286 H292 0.984 . S
N286 H293 0.984 . S
N287 C280 1.356 . S
N287 H290 0.984 . S
N287 H291 0.985 . S
H288 N283 0.984 . S
H289 N283 0.985 . S
H290 N287 0.984 . S
H291 N287 0.985 . S
H292 N286 0.984 . S
H293 N286 0.984 . S
H294 N282 0.984 . S
H295 N282 0.985 . S
C296 C297 1.351 1_556 S
C296 C302 1.387 . S
C296 N304 1.356 1_556 S
C297 C296 1.351 1_554 S
C297 C303 1.363 . S
C298 C299 1.363 1_554 S
C298 C303 1.379 . S
C298 N305 1.356 . S
C299 C298 1.363 1_556 S
C299 C302 1.363 . S
N300 C302 1.356 . S
N300 H312 0.984 . S
N300 H313 0.985 . S
N301 C303 1.356 . S
N301 H306 0.984 . S
N301 H307 0.985 . S
C302 C296 1.387 . S
C302 C299 1.363 . S
C302 N300 1.356 . S
C303 C297 1.363 . S
C303 C298 1.379 . S
C303 N301 1.356 . S
N304 C296 1.356 1_554 S
N304 H310 0.984 1_554 S
N304 H311 0.984 . S
N305 C298 1.356 . S
N305 H308 0.984 1_554 S
N305 H309 0.985 . S
H306 N301 0.984 . S
H307 N301 0.985 . S
H308 N305 0.984 1_556 S
H309 N305 0.985 . S
H310 N304 0.984 1_556 S
H311 N304 0.984 . S
H312 N300 0.984 . S
H313 N300 0.985 . S
C314 C315 1.363 . S
C314 C320 1.379 . S
C314 N322 1.356 . S
C315 C314 1.363 . S
C315 C321 1.363 . S
C316 C317 1.363 . S
C316 C321 1.379 . S
C316 N323 1.356 . S
C317 C316 1.363 . S
C317 C320 1.363 . S
N318 C320 1.356 . S
N318 H330 0.984 . S
N318 H331 0.985 . S
N319 C321 1.356 . S
N319 H324 0.984 . S
N319 H325 0.985 . S
C320 C314 1.379 . S
C320 C317 1.363 . S
C320 N318 1.356 . S
C321 C315 1.363 . S
C321 C316 1.379 . S
C321 N319 1.356 . S
N322 C314 1.356 . S
N322 H328 0.984 . S
N322 H329 0.984 . S
N323 C316 1.356 . S
N323 H326 0.984 . S
N323 H327 0.985 . S
H324 N319 0.984 . S
H325 N319 0.985 . S
H326 N323 0.984 . S
H327 N323 0.985 . S
H328 N322 0.984 . S
H329 N322 0.984 . S
H330 N318 0.984 . S
H331 N318 0.985 . S
C332 C333 1.363 . S
C332 C338 1.379 . S
C332 N340 1.356 . S
C333 C332 1.363 . S
C333 C339 1.363 . S
C334 C335 1.363 . S
C334 C339 1.379 1_554 S
C334 N341 1.356 . S
C335 C334 1.363 . S
C335 C338 1.363 1_554 S
N336 C338 1.354 1_554 S
N336 H348 0.973 1_554 S
N336 H349 0.999 . S
N337 C339 1.356 . S
N337 H342 0.984 . S
N337 H343 0.985 1_556 S
C338 C332 1.379 . S
C338 C335 1.363 1_556 S
C338 N336 1.354 1_556 S
C339 C333 1.363 . S
C339 C334 1.379 1_556 S
C339 N337 1.356 . S
N340 C332 1.356 . S
N340 H346 0.984 . S
N340 H347 0.984 . S
N341 C334 1.356 . S
N341 H344 0.984 . S
N341 H345 0.985 . S
H342 N337 0.984 . S
H343 N337 0.985 1_554 S
H344 N341 0.984 . S
H345 N341 0.985 . S
H346 N340 0.984 . S
H347 N340 0.984 . S
H348 N336 0.973 1_556 S
H349 N336 0.999 . S
C350 C351 1.363 . S
C350 C356 1.379 . S
C350 N358 1.356 . S
C351 C350 1.363 . S
C351 C357 1.363 . S
C352 C353 1.363 . S
C352 C357 1.379 . S
C352 N359 1.356 . S
C353 C352 1.363 . S
C353 C356 1.363 . S
N354 C356 1.356 . S
N354 H366 0.984 . S
N354 H367 0.985 . S
N355 C357 1.356 . S
N355 H360 0.984 . S
N355 H361 0.985 . S
C356 C350 1.379 . S
C356 C353 1.363 . S
C356 N354 1.356 . S
C357 C351 1.363 . S
C357 C352 1.379 . S
C357 N355 1.356 . S
N358 C350 1.356 . S
N358 H364 0.984 . S
N358 H365 0.984 . S
N359 C352 1.356 . S
N359 H362 0.984 . S
N359 H363 0.985 . S
H360 N355 0.984 . S
H361 N355 0.985 . S
H362 N359 0.984 . S
H363 N359 0.985 . S
H364 N358 0.984 . S
H365 N358 0.984 . S
H366 N354 0.984 . S
H367 N354 0.985 . S
C368 C369 1.363 . S
C368 C374 1.379 . S
C368 N376 1.356 . S
C369 C368 1.363 . S
C369 C375 1.363 . S
C370 C371 1.363 . S
C370 C375 1.379 . S
C370 N377 1.356 . S
C371 C370 1.363 . S
C371 C374 1.363 . S
N372 C374 1.356 . S
N372 H384 0.984 . S
N372 H385 0.985 . S
N373 C375 1.356 . S
N373 H378 0.984 . S
N373 H379 0.985 . S
C374 C368 1.379 . S
C374 C371 1.363 . S
C374 N372 1.356 . S
C375 C369 1.363 . S
C375 C370 1.379 . S
C375 N373 1.356 . S
N376 C368 1.356 . S
N376 H382 0.984 . S
N376 H383 0.984 . S
N377 C370 1.356 . S
N377 H380 0.984 . S
N377 H381 0.985 . S
H378 N373 0.984 . S
H379 N373 0.985 . S
H380 N377 0.984 . S
H381 N377 0.985 . S
H382 N376 0.984 . S
H383 N376 0.984 . S
H384 N372 0.984 . S
H385 N372 0.985 . S
C386 C387 1.363 . S
C386 C392 1.379 . S
C386 N394 1.356 . S
C387 C386 1.363 . S
C387 C393 1.363 . S
C388 C389 1.363 . S
C388 C393 1.379 . S
C388 N395 1.356 . S
C389 C388 1.363 . S
C389 C392 1.363 . S
N390 C392 1.356 . S
N390 H402 0.984 . S
N390 H403 0.985 . S
N391 C393 1.356 . S
N391 H396 0.984 . S
N391 H397 0.985 . S
C392 C386 1.379 . S
C392 C389 1.363 . S
C392 N390 1.356 . S
C393 C387 1.363 . S
C393 C388 1.379 . S
C393 N391 1.356 . S
N394 C386 1.356 . S
N394 H400 0.984 . S
N394 H401 0.984 . S
N395 C388 1.356 . S
N395 H398 0.984 . S
N395 H399 0.985 . S
H396 N391 0.984 . S
H397 N391 0.985 . S
H398 N395 0.984 . S
H399 N395 0.985 . S
H400 N394 0.984 . S
H401 N394 0.984 . S
H402 N390 0.984 . S
H403 N390 0.985 . S
C404 C405 1.363 . S
C404 C410 1.379 . S
C404 N412 1.356 . S
C405 C404 1.363 . S
C405 C411 1.363 . S
C406 C407 1.363 . S
C406 C411 1.379 . S
C406 N413 1.356 . S
C407 C406 1.363 . S
C407 C410 1.363 . S
N408 C410 1.356 . S
N408 H420 0.984 . S
N408 H421 0.985 . S
N409 C411 1.356 . S
N409 H414 0.984 . S
N409 H415 0.985 . S
C410 C404 1.379 . S
C410 C407 1.363 . S
C410 N408 1.356 . S
C411 C405 1.363 . S
C411 C406 1.379 . S
C411 N409 1.356 . S
N412 C404 1.356 . S
N412 H418 0.984 . S
N412 H419 0.984 . S
N413 C406 1.356 . S
N413 H416 0.984 . S
N413 H417 0.985 . S
H414 N409 0.984 . S
H415 N409 0.985 . S
H416 N413 0.984 . S
H417 N413 0.985 . S
H418 N412 0.984 . S
H419 N412 0.984 . S
H420 N408 0.984 . S
H421 N408 0.985 . S
C422 C423 1.363 . S
C422 C428 1.379 . S
C422 N430 1.356 . S
C423 C422 1.363 . S
C423 C429 1.363 . S
C424 C425 1.363 . S
C424 C429 1.379 . S
C424 N431 1.356 . S
C425 C424 1.363 . S
C425 C428 1.363 . S
N426 C428 1.356 . S
N426 H438 0.984 . S
N426 H439 0.985 . S
N427 C429 1.356 . S
N427 H432 0.984 . S
N427 H433 0.985 . S
C428 C422 1.379 . S
C428 C425 1.363 . S
C428 N426 1.356 . S
C429 C423 1.363 . S
C429 C424 1.379 . S
C429 N427 1.356 . S
N430 C422 1.356 . S
N430 H436 0.984 . S
N430 H437 0.984 . S
N431 C424 1.356 . S
N431 H434 0.984 . S
N431 H435 0.985 . S
H432 N427 0.984 . S
H433 N427 0.985 . S
H434 N431 0.984 . S
H435 N431 0.985 . S
H436 N430 0.984 . S
H437 N430 0.984 . S
H438 N426 0.984 . S
H439 N426 0.985 . S
C440 C441 1.363 . S
C440 C446 1.379 . S
C440 N448 1.356 . S
C441 C440 1.363 . S
C441 C447 1.363 . S
C442 C443 1.363 . S
C442 C447 1.379 . S
C442 N449 1.356 . S
C443 C442 1.363 . S
C443 C446 1.363 . S
N444 C446 1.356 . S
N444 H456 0.984 . S
N444 H457 0.985 . S
N445 C447 1.356 . S
N445 H450 0.984 . S
N445 H451 0.985 . S
C446 C440 1.379 . S
C446 C443 1.363 . S
C446 N444 1.356 . S
C447 C441 1.363 . S
C447 C442 1.379 . S
C447 N445 1.356 . S
N448 C440 1.356 . S
N448 H454 0.984 . S
N448 H455 0.984 . S
N449 C442 1.356 . S
N449 H452 0.984 . S
N449 H453 0.985 . S
H450 N445 0.984 . S
H451 N445 0.985 . S
H452 N449 0.984 . S
H453 N449 0.985 . S
H454 N448 0.984 . S
H455 N448 0.984 . S
H456 N444 0.984 . S
H457 N444 0.985 . S
C458 C459 1.363 . S
C458 C464 1.379 . S
C458 N466 1.356 . S
C459 C458 1.363 . S
C459 C465 1.363 . S
C460 C461 1.363 . S
C460 C465 1.379 . S
C460 N467 1.356 . S
C461 C460 1.363 . S
C461 C464 1.363 . S
N462 C464 1.356 . S
N462 H474 0.984 . S
N462 H475 0.985 . S
N463 C465 1.356 . S
N463 H468 0.984 . S
N463 H469 0.985 . S
C464 C458 1.379 . S
C464 C461 1.363 . S
C464 N462 1.356 . S
C465 C459 1.363 . S
C465 C460 1.379 . S
C465 N463 1.356 . S
N466 C458 1.356 . S
N466 H472 0.984 . S
N466 H473 0.984 . S
N467 C460 1.356 . S
N467 H470 0.984 . S
N467 H471 0.985 . S
H468 N463 0.984 . S
H469 N463 0.985 . S
H470 N467 0.984 . S
H471 N467 0.985 . S
H472 N466 0.984 . S
H473 N466 0.984 . S
H474 N462 0.984 . S
H475 N462 0.985 . S
C476 C477 1.363 . S
C476 C482 1.379 . S
C476 N484 1.356 . S
C477 C476 1.363 . S
C477 C483 1.363 . S
C478 C479 1.363 . S
C478 C483 1.379 . S
C478 N485 1.356 . S
C479 C478 1.363 . S
C479 C482 1.363 . S
N480 C482 1.356 . S
N480 H492 0.984 . S
N480 H493 0.985 . S
N481 C483 1.356 . S
N481 H486 0.984 . S
N481 H487 0.985 . S
C482 C476 1.379 . S
C482 C479 1.363 . S
C482 N480 1.356 . S
C483 C477 1.363 . S
C483 C478 1.379 . S
C483 N481 1.356 . S
N484 C476 1.356 . S
N484 H490 0.984 . S
N484 H491 0.984 . S
N485 C478 1.356 . S
N485 H488 0.984 . S
N485 H489 0.985 . S
H486 N481 0.984 . S
H487 N481 0.985 . S
H488 N485 0.984 . S
H489 N485 0.985 . S
H490 N484 0.984 . S
H491 N484 0.984 . S
H492 N480 0.984 . S
H493 N480 0.985 . S
C494 C495 1.363 . S
C494 C500 1.379 . S
C494 N502 1.356 . S
C495 C494 1.363 . S
C495 C501 1.363 . S
C496 C497 1.363 . S
C496 C501 1.379 . S
C496 N503 1.356 . S
C497 C496 1.363 . S
C497 C500 1.363 . S
N498 C500 1.356 . S
N498 H510 0.984 . S
N498 H511 0.985 . S
N499 C501 1.356 . S
N499 H504 0.984 . S
N499 H505 0.985 . S
C500 C494 1.379 . S
C500 C497 1.363 . S
C500 N498 1.356 . S
C501 C495 1.363 . S
C501 C496 1.379 . S
C501 N499 1.356 . S
N502 C494 1.356 . S
N502 H508 0.984 . S
N502 H509 0.984 . S
N503 C496 1.356 . S
N503 H506 0.984 . S
N503 H507 0.985 . S
H504 N499 0.984 . S
H505 N499 0.985 . S
H506 N503 0.984 . S
H507 N503 0.985 . S
H508 N502 0.984 . S
H509 N502 0.984 . S
H510 N498 0.984 . S
H511 N498 0.985 . S
C512 C513 1.363 . S
C512 C518 1.379 . S
C512 N520 1.356 . S
C513 C512 1.363 . S
C513 C519 1.363 . S
C514 C515 1.363 . S
C514 C519 1.379 . S
C514 N521 1.356 . S
C515 C514 1.363 . S
C515 C518 1.363 . S
N516 C518 1.356 . S
N516 H528 0.984 . S
N516 H529 0.985 . S
N517 C519 1.356 . S
N517 H522 0.984 . S
N517 H523 0.985 . S
C518 C512 1.379 . S
C518 C515 1.363 . S
C518 N516 1.356 . S
C519 C513 1.363 . S
C519 C514 1.379 . S
C519 N517 1.356 . S
N520 C512 1.356 . S
N520 H526 0.984 . S
N520 H527 0.984 . S
N521 C514 1.356 . S
N521 H524 0.984 . S
N521 H525 0.985 . S
H522 N517 0.984 . S
H523 N517 0.985 . S
H524 N521 0.984 . S
H525 N521 0.985 . S
H526 N520 0.984 . S
H527 N520 0.984 . S
H528 N516 0.984 . S
H529 N516 0.985 . S
C530 C531 1.363 . S
C530 C536 1.379 . S
C530 N538 1.356 . S
C531 C530 1.363 . S
C531 C537 1.363 . S
C532 C533 1.363 . S
C532 C537 1.379 . S
C532 N539 1.356 . S
C533 C532 1.363 . S
C533 C536 1.363 . S
N534 C536 1.356 . S
N534 H546 0.984 . S
N534 H547 0.985 . S
N535 C537 1.356 . S
N535 H540 0.984 . S
N535 H541 0.985 . S
C536 C530 1.379 . S
C536 C533 1.363 . S
C536 N534 1.356 . S
C537 C531 1.363 . S
C537 C532 1.379 . S
C537 N535 1.356 . S
N538 C530 1.356 . S
N538 H544 0.984 . S
N538 H545 0.984 . S
N539 C532 1.356 . S
N539 H542 0.984 . S
N539 H543 0.985 . S
H540 N535 0.984 . S
H541 N535 0.985 . S
H542 N539 0.984 . S
H543 N539 0.985 . S
H544 N538 0.984 . S
H545 N538 0.984 . S
H546 N534 0.984 . S
H547 N534 0.985 . S
C548 C549 1.363 . S
C548 C554 1.379 . S
C548 N556 1.356 . S
C549 C548 1.363 . S
C549 C555 1.363 . S
C550 C551 1.363 . S
C550 C555 1.379 . S
C550 N557 1.356 . S
C551 C550 1.363 . S
C551 C554 1.363 . S
N552 C554 1.356 . S
N552 H564 0.984 . S
N552 H565 0.985 . S
N553 C555 1.356 . S
N553 H558 0.984 . S
N553 H559 0.985 . S
C554 C548 1.379 . S
C554 C551 1.363 . S
C554 N552 1.356 . S
C555 C549 1.363 . S
C555 C550 1.379 . S
C555 N553 1.356 . S
N556 C548 1.356 . S
N556 H562 0.984 . S
N556 H563 0.984 . S
N557 C550 1.356 . S
N557 H560 0.984 . S
N557 H561 0.985 . S
H558 N553 0.984 . S
H559 N553 0.985 . S
H560 N557 0.984 . S
H561 N557 0.985 . S
H562 N556 0.984 . S
H563 N556 0.984 . S
H564 N552 0.984 . S
H565 N552 0.985 . S
C566 C567 1.363 . S
C566 C572 1.379 . S
C566 N574 1.356 . S
C567 C566 1.363 . S
C567 C573 1.363 . S
C568 C569 1.363 . S
C568 C573 1.379 . S
C568 N575 1.356 . S
C569 C568 1.363 . S
C569 C572 1.363 . S
N570 C572 1.356 . S
N570 H582 0.984 . S
N570 H583 0.985 . S
N571 C573 1.356 . S
N571 H576 0.984 . S
N571 H577 0.985 . S
C572 C566 1.379 . S
C572 C569 1.363 . S
C572 N570 1.356 . S
C573 C567 1.363 . S
C573 C568 1.379 . S
C573 N571 1.356 . S
N574 C566 1.356 . S
N574 H580 0.984 . S
N574 H581 0.984 . S
N575 C568 1.356 . S
N575 H578 0.984 . S
N575 H579 0.985 . S
H576 N571 0.984 . S
H577 N571 0.985 . S
H578 N575 0.984 . S
H579 N575 0.985 . S
H580 N574 0.984 . S
H581 N574 0.984 . S
H582 N570 0.984 . S
H583 N570 0.985 . S
C584 C585 1.363 . S
C584 C590 1.379 . S
C584 N592 1.356 . S
C585 C584 1.363 . S
C585 C591 1.363 . S
C586 C587 1.363 . S
C586 C591 1.379 . S
C586 N593 1.356 . S
C587 C586 1.363 . S
C587 C590 1.363 . S
N588 C590 1.356 . S
N588 H600 0.984 . S
N588 H601 0.985 . S
N589 C591 1.356 . S
N589 H594 0.984 . S
N589 H595 0.985 . S
C590 C584 1.379 . S
C590 C587 1.363 . S
C590 N588 1.356 . S
C591 C585 1.363 . S
C591 C586 1.379 . S
C591 N589 1.356 . S
N592 C584 1.356 . S
N592 H598 0.984 . S
N592 H599 0.984 . S
N593 C586 1.356 . S
N593 H596 0.984 . S
N593 H597 0.985 . S
H594 N589 0.984 . S
H595 N589 0.985 . S
H596 N593 0.984 . S
H597 N593 0.985 . S
H598 N592 0.984 . S
H599 N592 0.984 . S
H600 N588 0.984 . S
H601 N588 0.985 . S
C602 C603 1.363 . S
C602 C608 1.379 . S
C602 N610 1.356 . S
C603 C602 1.363 . S
C603 C609 1.363 . S
C604 C605 1.363 . S
C604 C609 1.379 . S
C604 N611 1.356 . S
C605 C604 1.363 . S
C605 C608 1.363 . S
N606 C608 1.356 . S
N606 H618 0.984 . S
N606 H619 0.985 . S
N607 C609 1.356 . S
N607 H612 0.984 . S
N607 H613 0.985 . S
C608 C602 1.379 . S
C608 C605 1.363 . S
C608 N606 1.356 . S
C609 C603 1.363 . S
C609 C604 1.379 . S
C609 N607 1.356 . S
N610 C602 1.356 . S
N610 H616 0.984 . S
N610 H617 0.984 . S
N611 C604 1.356 . S
N611 H614 0.984 . S
N611 H615 0.985 . S
H612 N607 0.984 . S
H613 N607 0.985 . S
H614 N611 0.984 . S
H615 N611 0.985 . S
H616 N610 0.984 . S
H617 N610 0.984 . S
H618 N606 0.984 . S
H619 N606 0.985 . S
C620 C621 1.363 . S
C620 C626 1.379 . S
C620 N628 1.356 . S
C621 C620 1.363 . S
C621 C627 1.363 . S
C622 C623 1.363 . S
C622 C627 1.379 . S
C622 N629 1.356 . S
C623 C622 1.363 . S
C623 C626 1.363 . S
N624 C626 1.356 . S
N624 H636 0.984 . S
N624 H637 0.985 . S
N625 C627 1.356 . S
N625 H630 0.984 . S
N625 H631 0.985 . S
C626 C620 1.379 . S
C626 C623 1.363 . S
C626 N624 1.356 . S
C627 C621 1.363 . S
C627 C622 1.379 . S
C627 N625 1.356 . S
N628 C620 1.356 . S
N628 H634 0.984 . S
N628 H635 0.984 . S
N629 C622 1.356 . S
N629 H632 0.984 . S
N629 H633 0.985 . S
H630 N625 0.984 . S
H631 N625 0.985 . S
H632 N629 0.984 . S
H633 N629 0.985 . S
H634 N628 0.984 . S
H635 N628 0.984 . S
H636 N624 0.984 . S
H637 N624 0.985 . S
C638 C639 1.363 . S
C638 C644 1.379 . S
C638 N646 1.356 . S
C639 C638 1.363 . S
C639 C645 1.363 . S
C640 C641 1.363 . S
C640 C645 1.379 . S
C640 N647 1.356 . S
C641 C640 1.363 . S
C641 C644 1.363 . S
N642 C644 1.356 . S
N642 H654 0.984 . S
N642 H655 0.985 . S
N643 C645 1.356 . S
N643 H648 0.984 . S
N643 H649 0.985 . S
C644 C638 1.379 . S
C644 C641 1.363 . S
C644 N642 1.356 . S
C645 C639 1.363 . S
C645 C640 1.379 . S
C645 N643 1.356 . S
N646 C638 1.356 . S
N646 H652 0.984 . S
N646 H653 0.984 . S
N647 C640 1.356 . S
N647 H650 0.984 . S
N647 H651 0.985 . S
H648 N643 0.984 . S
H649 N643 0.985 . S
H650 N647 0.984 . S
H651 N647 0.985 . S
H652 N646 0.984 . S
H653 N646 0.984 . S
H654 N642 0.984 . S
H655 N642 0.985 . S
C656 C657 1.363 1_565 S
C656 C662 1.379 . S
C656 N664 1.356 . S
C657 C656 1.363 1_545 S
C657 C663 1.363 . S
C658 C659 1.363 . S
C658 C663 1.379 1_565 S
C658 N665 1.356 . S
C659 C658 1.363 . S
C659 C662 1.363 . S
N660 C662 1.356 . S
N660 H672 0.984 . S
N660 H673 0.985 . S
N661 C663 1.356 . S
N661 H666 0.984 . S
N661 H667 0.985 . S
C662 C656 1.379 . S
C662 C659 1.363 . S
C662 N660 1.356 . S
C663 C657 1.363 . S
C663 C658 1.379 1_545 S
C663 N661 1.356 . S
N664 C656 1.356 . S
N664 H670 0.984 . S
N664 H671 0.984 1_565 S
N665 C658 1.356 . S
N665 H668 0.984 . S
N665 H669 0.985 . S
H666 N661 0.984 . S
H667 N661 0.985 . S
H668 N665 0.984 . S
H669 N665 0.985 . S
H670 N664 0.984 . S
H671 N664 0.984 1_545 S
H672 N660 0.984 . S
H673 N660 0.985 . S
C674 C675 1.363 . S
C674 C680 1.379 . S
C674 N682 1.356 . S
C675 C674 1.363 . S
C675 C681 1.363 . S
C676 C677 1.363 . S
C676 C681 1.379 . S
C676 N683 1.356 . S
C677 C676 1.363 . S
C677 C680 1.363 . S
N678 C680 1.356 . S
N678 H690 0.984 . S
N678 H691 0.985 . S
N679 C681 1.356 . S
N679 H684 0.984 . S
N679 H685 0.985 . S
C680 C674 1.379 . S
C680 C677 1.363 . S
C680 N678 1.356 . S
C681 C675 1.363 . S
C681 C676 1.379 . S
C681 N679 1.356 . S
N682 C674 1.356 . S
N682 H688 0.984 . S
N682 H689 0.984 . S
N683 C676 1.356 . S
N683 H686 0.984 . S
N683 H687 0.985 . S
H684 N679 0.984 . S
H685 N679 0.985 . S
H686 N683 0.984 . S
H687 N683 0.985 . S
H688 N682 0.984 . S
H689 N682 0.984 . S
H690 N678 0.984 . S
H691 N678 0.985 . S
C692 C693 1.363 . S
C692 C698 1.379 . S
C692 N700 1.356 . S
C693 C692 1.363 . S
C693 C699 1.363 . S
C694 C695 1.363 . S
C694 C699 1.379 1_655 S
C694 N701 1.356 . S
C695 C694 1.363 . S
C695 C698 1.363 1_655 S
N696 C698 1.356 . S
N696 H708 0.984 . S
N696 H709 0.985 1_455 S
N697 C699 1.356 . S
N697 H702 0.984 . S
N697 H703 0.985 . S
C698 C692 1.379 . S
C698 C695 1.363 1_455 S
C698 N696 1.356 . S
C699 C693 1.363 . S
C699 C694 1.379 1_455 S
C699 N697 1.356 . S
N700 C692 1.356 . S
N700 H706 0.984 . S
N700 H707 0.984 . S
N701 C694 1.356 . S
N701 H704 0.984 . S
N701 H705 0.985 . S
H702 N697 0.984 . S
H703 N697 0.985 . S
H704 N701 0.984 . S
H705 N701 0.985 . S
H706 N700 0.984 . S
H707 N700 0.984 . S
H708 N696 0.984 . S
H709 N696 0.985 1_655 S
C710 C711 1.363 . S
C710 C716 1.379 . S
C710 N718 1.356 . S
C711 C710 1.363 . S
C711 C717 1.363 . S
C712 C713 1.363 . S
C712 C717 1.379 . S
C712 N719 1.356 1_565 S
C713 C712 1.363 . S
C713 C716 1.363 . S
N714 C716 1.356 . S
N714 H726 0.984 . S
N714 H727 0.985 . S
N715 C717 1.356 1_655 S
N715 H720 0.984 . S
N715 H721 0.985 . S
C716 C710 1.379 . S
C716 C713 1.363 . S
C716 N714 1.356 . S
C717 C711 1.363 . S
C717 C712 1.379 . S
C717 N715 1.356 1_455 S
N718 C710 1.356 . S
N718 H724 0.984 . S
N718 H725 0.984 . S
N719 C712 1.356 1_545 S
N719 H722 0.984 . S
N719 H723 0.985 . S
H720 N715 0.984 . S
H721 N715 0.985 . S
H722 N719 0.984 . S
H723 N719 0.985 . S
H724 N718 0.984 . S
H725 N718 0.984 . S
H726 N714 0.984 . S
H727 N714 0.985 . S
C728 C729 1.363 . S
C728 C734 1.379 . S
C728 N736 1.356 . S
C729 C728 1.363 . S
C729 C735 1.363 . S
C730 C731 1.363 . S
C730 C735 1.379 . S
C730 N737 1.356 . S
C731 C730 1.363 . S
C731 C734 1.363 . S
N732 C734 1.356 . S
N732 H744 0.984 . S
N732 H745 0.985 . S
N733 C735 1.356 . S
N733 H738 0.984 . S
N733 H739 0.985 . S
C734 C728 1.379 . S
C734 C731 1.363 . S
C734 N732 1.356 . S
C735 C729 1.363 . S
C735 C730 1.379 . S
C735 N733 1.356 . S
N736 C728 1.356 . S
N736 H742 0.984 . S
N736 H743 0.984 . S
N737 C730 1.356 . S
N737 H740 0.984 . S
N737 H741 0.985 . S
H738 N733 0.984 . S
H739 N733 0.985 . S
H740 N737 0.984 . S
H741 N737 0.985 . S
H742 N736 0.984 . S
H743 N736 0.984 . S
H744 N732 0.984 . S
H745 N732 0.985 . S
C746 C747 1.363 . S
C746 C752 1.379 1_455 S
C746 N754 1.356 . S
C747 C746 1.363 . S
C747 C753 1.363 1_455 S
C748 C749 1.363 . S
C748 C753 1.379 . S
C748 N755 1.356 . S
C749 C748 1.363 . S
C749 C752 1.363 . S
N750 C752 1.356 . S
N750 H762 0.984 . S
N750 H763 0.985 . S
N751 C753 1.356 . S
N751 H756 0.984 1_655 S
N751 H757 0.985 . S
C752 C746 1.379 1_655 S
C752 C749 1.363 . S
C752 N750 1.356 . S
C753 C747 1.363 1_655 S
C753 C748 1.379 . S
C753 N751 1.356 . S
N754 C746 1.356 . S
N754 H760 0.984 . S
N754 H761 0.984 . S
N755 C748 1.356 . S
N755 H758 0.984 . S
N755 H759 0.985 . S
H756 N751 0.984 1_455 S
H757 N751 0.985 . S
H758 N755 0.984 . S
H759 N755 0.985 . S
H760 N754 0.984 . S
H761 N754 0.984 . S
H762 N750 0.984 . S
H763 N750 0.985 . S
C764 C765 1.363 . S
C764 C770 1.379 . S
C764 N772 1.356 . S
C765 C764 1.363 . S
C765 C771 1.363 . S
C766 C767 1.363 . S
C766 C771 1.379 . S
C766 N773 1.356 1_655 S
C767 C766 1.363 . S
C767 C770 1.363 . S
N768 C770 1.356 . S
N768 H780 0.984 . S
N768 H781 0.985 . S
N769 C771 1.356 1_565 S
N769 H774 0.984 . S
N769 H775 0.985 . S
C770 C764 1.379 . S
C770 C767 1.363 . S
C770 N768 1.356 . S
C771 C765 1.363 . S
C771 C766 1.379 . S
C771 N769 1.356 1_545 S
N772 C764 1.356 . S
N772 H778 0.984 . S
N772 H779 0.984 . S
N773 C766 1.356 1_455 S
N773 H776 0.984 . S
N773 H777 0.985 . S
H774 N769 0.984 . S
H775 N769 0.985 . S
H776 N773 0.984 . S
H777 N773 0.985 . S
H778 N772 0.984 . S
H779 N772 0.984 . S
H780 N768 0.984 . S
H781 N768 0.985 . S
C782 C783 1.363 1_545 S
C782 C788 1.379 . S
C782 N790 1.356 1_545 S
C783 C782 1.363 1_565 S
C783 C789 1.363 1_565 S
C784 C785 1.363 . S
C784 C789 1.379 . S
C784 N791 1.356 . S
C785 C784 1.363 . S
C785 C788 1.363 . S
N786 C788 1.356 . S
N786 H798 0.984 . S
N786 H799 0.985 . S
N787 C789 1.356 . S
N787 H792 0.984 1_545 S
N787 H793 0.985 . S
C788 C782 1.379 . S
C788 C785 1.363 . S
C788 N786 1.356 . S
C789 C783 1.363 1_545 S
C789 C784 1.379 . S
C789 N787 1.356 . S
N790 C782 1.356 1_565 S
N790 H796 0.984 . S
N790 H797 0.984 . S
N791 C784 1.356 . S
N791 H794 0.984 . S
N791 H795 0.985 . S
H792 N787 0.984 1_565 S
H793 N787 0.985 . S
H794 N791 0.984 . S
H795 N791 0.985 . S
H796 N790 0.984 . S
H797 N790 0.984 . S
H798 N786 0.984 . S
H799 N786 0.985 . S
C225 C106 1.572 . S
C227 C8 1.628 . S
C243 C64 2.173 . S
C245 C22 2.173 . S
C261 C78 1.629 . S
C263 C36 1.572 . S
C279 C50 1.206 . S
C281 C92 1.206 . S
C297 C218 1.572 . S
C299 C120 1.629 . S
C315 C176 2.173 . S
C317 C134 2.173 . S
C333 C148 1.572 . S
C335 C190 1.629 . S
C351 C162 1.206 . S
C353 C204 1.206 . S
C369 C37 1.248 . S
C371 C9 1.224 . S
C387 C23 1.292 . S
C389 C51 1.302 . S
C405 C65 1.292 . S
C407 C93 1.302 . S
C423 C107 1.248 . S
C425 C79 1.224 . S
C441 C121 1.224 . S
C443 C149 1.248 . S
C459 C135 1.292 . S
C461 C163 1.302 . S
C477 C205 1.302 . S
C479 C177 1.292 . S
C495 C191 1.224 . S
C497 C219 1.248 . S
C513 C91 1.673 . S
C515 C7 1.615 . S
C531 C21 2.338 . S
C533 C105 2.403 . S
C549 C35 2.403 . S
C551 C63 2.338 . S
C567 C49 1.672 . S
C569 C77 1.615 . S
C585 C119 1.615 . S
C587 C203 1.672 . S
C603 C133 2.338 . S
C605 C217 2.403 . S
C621 C147 2.403 . S
C623 C175 2.338 . S
C639 C161 1.672 . S
C641 C189 1.615 . S
C657 C6 1.481 . S
C659 C216 1.465 . S
C675 C174 1.501 . S
C677 C20 1.501 . S
C693 C34 1.465 . S
C695 C188 1.481 . S
C711 C202 1.452 1_455 S
C713 C48 1.452 1_565 S
C729 C132 1.501 . S
C731 C62 1.501 . S
C747 C76 1.481 . S
C749 C146 1.465 . S
C765 C160 1.452 1_545 S
C767 C90 1.452 1_655 S
C783 C118 1.480 . S
C785 C104 1.465 . S
