# Generated by pormake.
# Topology fnl, (5)-cn, num edge types: 1
# Building blocks:
#     Node 0, Type 0, BuildingBlock: BEQFEK_clean_sbu_0, # of connection points: 5
#     Node 1, Type 0, BuildingBlock: BEQFEK_clean_sbu_0, # of connection points: 5
#     Node 2, Type 0, BuildingBlock: BEQFEK_clean_sbu_0, # of connection points: 5
#     Node 3, Type 0, BuildingBlock: BEQFEK_clean_sbu_0, # of connection points: 5
#     Node 4, Type 0, BuildingBlock: BEQFEK_clean_sbu_0, # of connection points: 5
#     Node 5, Type 0, BuildingBlock: BEQFEK_clean_sbu_0, # of connection points: 5
#     Node 6, Type 0, BuildingBlock: BEQFEK_clean_sbu_0, # of connection points: 5
#     Node 7, Type 0, BuildingBlock: BEQFEK_clean_sbu_0, # of connection points: 5
#     Node 8, Type 0, BuildingBlock: BEQFEK_clean_sbu_0, # of connection points: 5
#     Node 9, Type 0, BuildingBlock: BEQFEK_clean_sbu_0, # of connection points: 5
#     Node 10, Type 0, BuildingBlock: BEQFEK_clean_sbu_0, # of connection points: 5
#     Node 11, Type 0, BuildingBlock: BEQFEK_clean_sbu_0, # of connection points: 5
#     Node 12, Type 0, BuildingBlock: BEQFEK_clean_sbu_0, # of connection points: 5
#     Node 13, Type 0, BuildingBlock: BEQFEK_clean_sbu_0, # of connection points: 5
#     Node 14, Type 0, BuildingBlock: BEQFEK_clean_sbu_0, # of connection points: 5
#     Node 15, Type 0, BuildingBlock: BEQFEK_clean_sbu_0, # of connection points: 5
#     Edge 16, Type (0, 0), BuildingBlock: OJICUG_clean_linker_0, # of connection points: 2
#     Edge 17, Type (0, 0), BuildingBlock: OJICUG_clean_linker_0, # of connection points: 2
#     Edge 18, Type (0, 0), BuildingBlock: OJICUG_clean_linker_0, # of connection points: 2
#     Edge 19, Type (0, 0), BuildingBlock: OJICUG_clean_linker_0, # of connection points: 2
#     Edge 20, Type (0, 0), BuildingBlock: OJICUG_clean_linker_0, # of connection points: 2
#     Edge 21, Type (0, 0), BuildingBlock: OJICUG_clean_linker_0, # of connection points: 2
#     Edge 22, Type (0, 0), BuildingBlock: OJICUG_clean_linker_0, # of connection points: 2
#     Edge 23, Type (0, 0), BuildingBlock: OJICUG_clean_linker_0, # of connection points: 2
#     Edge 24, Type (0, 0), BuildingBlock: OJICUG_clean_linker_0, # of connection points: 2
#     Edge 25, Type (0, 0), BuildingBlock: OJICUG_clean_linker_0, # of connection points: 2
#     Edge 26, Type (0, 0), BuildingBlock: OJICUG_clean_linker_0, # of connection points: 2
#     Edge 27, Type (0, 0), BuildingBlock: OJICUG_clean_linker_0, # of connection points: 2
#     Edge 28, Type (0, 0), BuildingBlock: OJICUG_clean_linker_0, # of connection points: 2
#     Edge 29, Type (0, 0), BuildingBlock: OJICUG_clean_linker_0, # of connection points: 2
#     Edge 30, Type (0, 0), BuildingBlock: OJICUG_clean_linker_0, # of connection points: 2
#     Edge 31, Type (0, 0), BuildingBlock: OJICUG_clean_linker_0, # of connection points: 2
#     Edge 32, Type (0, 0), BuildingBlock: OJICUG_clean_linker_0, # of connection points: 2
#     Edge 33, Type (0, 0), BuildingBlock: OJICUG_clean_linker_0, # of connection points: 2
#     Edge 34, Type (0, 0), BuildingBlock: OJICUG_clean_linker_0, # of connection points: 2
#     Edge 35, Type (0, 0), BuildingBlock: OJICUG_clean_linker_0, # of connection points: 2
#     Edge 36, Type (0, 0), BuildingBlock: OJICUG_clean_linker_0, # of connection points: 2
#     Edge 37, Type (0, 0), BuildingBlock: OJICUG_clean_linker_0, # of connection points: 2
#     Edge 38, Type (0, 0), BuildingBlock: OJICUG_clean_linker_0, # of connection points: 2
#     Edge 39, Type (0, 0), BuildingBlock: OJICUG_clean_linker_0, # of connection points: 2
#     Edge 40, Type (0, 0), BuildingBlock: OJICUG_clean_linker_0, # of connection points: 2
#     Edge 41, Type (0, 0), BuildingBlock: OJICUG_clean_linker_0, # of connection points: 2
#     Edge 42, Type (0, 0), BuildingBlock: OJICUG_clean_linker_0, # of connection points: 2
#     Edge 43, Type (0, 0), BuildingBlock: OJICUG_clean_linker_0, # of connection points: 2
#     Edge 44, Type (0, 0), BuildingBlock: OJICUG_clean_linker_0, # of connection points: 2
#     Edge 45, Type (0, 0), BuildingBlock: OJICUG_clean_linker_0, # of connection points: 2
#     Edge 46, Type (0, 0), BuildingBlock: OJICUG_clean_linker_0, # of connection points: 2
#     Edge 47, Type (0, 0), BuildingBlock: OJICUG_clean_linker_0, # of connection points: 2
#     Edge 48, Type (0, 0), BuildingBlock: OJICUG_clean_linker_0, # of connection points: 2
#     Edge 49, Type (0, 0), BuildingBlock: OJICUG_clean_linker_0, # of connection points: 2
#     Edge 50, Type (0, 0), BuildingBlock: OJICUG_clean_linker_0, # of connection points: 2
#     Edge 51, Type (0, 0), BuildingBlock: OJICUG_clean_linker_0, # of connection points: 2
#     Edge 52, Type (0, 0), BuildingBlock: OJICUG_clean_linker_0, # of connection points: 2
#     Edge 53, Type (0, 0), BuildingBlock: OJICUG_clean_linker_0, # of connection points: 2
#     Edge 54, Type (0, 0), BuildingBlock: OJICUG_clean_linker_0, # of connection points: 2
#     Edge 55, Type (0, 0), BuildingBlock: OJICUG_clean_linker_0, # of connection points: 2
# Relax obj value: 0.415
# Max RMSD: 0.244
# Mean RMSD: 0.244
data_MOF--net-fnl--node1-BEQFEK_clean_sbu_0--edge1-OJICUG_clean_linker_0
_symmetry_space_group_name_H-M    P1
_symmetry_Int_Tables_number       1
_symmetry_cell_setting            triclinic
loop_
_symmetry_equiv_pos_as_xyz
'x, y, z'
_cell_length_a     27.982652
_cell_length_b     28.030526
_cell_length_c     74.996556
_cell_angle_alpha  90.095083
_cell_angle_beta   89.725043
_cell_angle_gamma 90.0184
loop_
_atom_site_label
_atom_site_type_symbol
_atom_site_fract_x
_atom_site_fract_y
_atom_site_fract_z
_atom_type_partial_charge
Co0 Co 0.98498 0.07364 0.08086 0.0
Co1 Co 0.99716 0.17204 0.09886 0.0
C2 C 0.9154 0.10255 0.10826 0.0
O3 O 0.92879 0.07236 0.09652 0.0
O4 O 0.93817 0.1418 0.11073 0.0
C5 C 0.03184 0.01696 0.05708 0.0
O6 O 0.06327 0.05127 0.05926 0.0
C7 C 0.97827 0.27472 0.10449 0.0
C8 C 0.04938 0.29854 0.11367 0.0
C9 C 0.00455 0.31524 0.10905 0.0
N10 N 0.00688 0.23646 0.10602 0.0
N11 N 0.04907 0.25094 0.11173 0.0
C12 C 0.92676 0.27141 0.09937 0.0
H13 H 0.91241 0.23562 0.10275 0.0
H14 H 0.92321 0.27626 0.08478 0.0
H15 H 0.9055 0.29938 0.10627 0.0
C16 C 0.97863 0.1299 0.04874 0.0
N17 N 0.98376 0.12702 0.06648 0.0
N18 N 0.99473 0.16901 0.07308 0.0
C19 C 0.99984 0.19973 0.05923 0.0
C20 C 0.98981 0.17539 0.04346 0.0
C21 C 0.96102 0.09051 0.03693 0.0
H22 H 0.99194 0.07231 0.03059 0.0
H23 H 0.93946 0.06449 0.04464 0.0
H24 H 0.9387 0.10518 0.02604 0.0
O25 O 0.04347 0.06859 0.09522 0.0
O26 O 0.05374 0.13816 0.10843 0.0
H27 H 0.04003 0.2547 0.07238 0.0
H28 H 0.03471 0.26178 0.04842 0.0
C29 C 0.01599 0.25037 0.06079 0.0
H30 H 0.98442 0.27372 0.06266 0.0
H31 H 0.07829 0.22852 0.1137 0.0
O32 O 0.99191 0.01877 0.06529 0.0
C33 C 0.06721 0.09574 0.10537 0.0
Co34 Co 0.37505 0.8613 0.32789 0.0
Co35 Co 0.27007 0.88838 0.34034 0.0
C36 C 0.31894 0.80122 0.35412 0.0
O37 O 0.35469 0.8126 0.34462 0.0
O38 O 0.28141 0.8272 0.35446 0.0
C39 C 0.47106 0.84367 0.31307 0.0
O40 O 0.50032 0.81918 0.30283 0.0
C41 C 0.16265 0.88881 0.34482 0.0
C42 C 0.14903 0.96629 0.34583 0.0
C43 C 0.12589 0.92257 0.34629 0.0
N44 N 0.20496 0.91185 0.34339 0.0
N45 N 0.19623 0.95815 0.34404 0.0
C46 C 0.15814 0.83566 0.34538 0.0
H47 H 0.19242 0.81904 0.34925 0.0
H48 H 0.14862 0.82231 0.33193 0.0
H49 H 0.1297 0.82487 0.35493 0.0
C50 C 0.33518 0.87602 0.29318 0.0
N51 N 0.32896 0.87267 0.31086 0.0
N52 N 0.28418 0.88133 0.31513 0.0
C53 C 0.25991 0.88919 0.29982 0.0
C54 C 0.2917 0.88553 0.28541 0.0
C55 C 0.3832 0.87756 0.28426 0.0
H56 H 0.40865 0.89729 0.29281 0.0
H57 H 0.39647 0.84064 0.28227 0.0
H58 H 0.38184 0.89573 0.27115 0.0
O59 O 0.38833 0.92229 0.34061 0.0
O60 O 0.31481 0.93905 0.35048 0.0
H61 H 0.202 0.93748 0.30406 0.0
H62 H 0.19388 0.89772 0.28528 0.0
C63 C 0.20779 0.90065 0.29906 0.0
H64 H 0.18773 0.87595 0.30786 0.0
H65 H 0.22261 0.98436 0.34318 0.0
O66 O 0.42875 0.82906 0.31538 0.0
C67 C 0.35949 0.94895 0.34937 0.0
Co68 Co 0.56698 0.26195 0.58214 0.0
Co69 Co 0.52134 0.16683 0.59448 0.0
C70 C 0.62251 0.19874 0.60453 0.0
O71 O 0.62 0.23244 0.59347 0.0
O72 O 0.58617 0.17211 0.6075 0.0
C73 C 0.60751 0.34978 0.58243 0.0
O74 O 0.62775 0.33548 0.59727 0.0
C75 C 0.52117 0.0603 0.59571 0.0
C76 C 0.44632 0.04438 0.60277 0.0
C77 C 0.48963 0.02226 0.59893 0.0
N78 N 0.49732 0.10198 0.5975 0.0
N79 N 0.45255 0.09199 0.6017 0.0
C80 C 0.57328 0.05786 0.59125 0.0
H81 H 0.5902 0.09338 0.59237 0.0
H82 H 0.57776 0.04577 0.57725 0.0
H83 H 0.59163 0.03234 0.60021 0.0
C84 C 0.53586 0.2322 0.5474 0.0
N85 N 0.54183 0.22344 0.5648 0.0
N86 N 0.52445 0.18141 0.56902 0.0
C87 C 0.50755 0.1612 0.55386 0.0
C88 C 0.51467 0.1929 0.53963 0.0
C89 C 0.54481 0.27992 0.53902 0.0
H90 H 0.53098 0.30838 0.54793 0.0
H91 H 0.58385 0.28518 0.53726 0.0
H92 H 0.5269 0.28353 0.52594 0.0
O93 O 0.51547 0.28177 0.59924 0.0
O94 O 0.47594 0.2156 0.60641 0.0
H95 H 0.45126 0.11313 0.56081 0.0
H96 H 0.47817 0.10135 0.5392 0.0
C97 C 0.48521 0.11278 0.5531 0.0
H98 H 0.50934 0.08654 0.55943 0.0
H99 H 0.42619 0.11766 0.60385 0.0
O100 O 0.59481 0.31837 0.57129 0.0
C101 C 0.48091 0.2611 0.60733 0.0
Co102 Co 0.17048 0.426 0.82832 0.0
Co103 Co 0.27123 0.41363 0.84448 0.0
C104 C 0.22082 0.50706 0.84731 0.0
O105 O 0.18673 0.48857 0.83858 0.0
O106 O 0.25777 0.48246 0.85119 0.0
C107 C 0.11063 0.47459 0.80401 0.0
O108 O 0.143 0.5085 0.8042 0.0
C109 C 0.37543 0.4214 0.85252 0.0
C110 C 0.39642 0.34553 0.85102 0.0
C111 C 0.41496 0.39101 0.85314 0.0
N112 N 0.33593 0.39495 0.84973 0.0
N113 N 0.34882 0.34964 0.84907 0.0
C114 C 0.37449 0.47428 0.85527 0.0
H115 H 0.34162 0.48466 0.86258 0.0
H116 H 0.37434 0.49232 0.84211 0.0
H117 H 0.40582 0.48648 0.86305 0.0
C118 C 0.21695 0.38992 0.79629 0.0
N119 N 0.21793 0.4013 0.81368 0.0
N120 N 0.26221 0.40301 0.81926 0.0
C121 C 0.29122 0.39635 0.80498 0.0
C122 C 0.26323 0.38733 0.78995 0.0
C123 C 0.17245 0.38613 0.78536 0.0
H124 H 0.14232 0.37314 0.79367 0.0
H125 H 0.16376 0.42158 0.77969 0.0
H126 H 0.17755 0.36099 0.77408 0.0
O127 O 0.15466 0.38113 0.84725 0.0
O128 O 0.22646 0.37089 0.85936 0.0
H129 H 0.36016 0.37007 0.81189 0.0
H130 H 0.35954 0.40525 0.79179 0.0
C131 C 0.34434 0.40188 0.80543 0.0
H132 H 0.35393 0.43362 0.81352 0.0
H133 H 0.32521 0.32153 0.84672 0.0
O134 O 0.11518 0.43794 0.8138 0.0
C135 C 0.18157 0.36196 0.85879 0.0
Co136 Co 0.95758 0.2719 0.92264 0.0
Co137 Co 0.99429 0.16948 0.91329 0.0
C138 C 0.90603 0.21064 0.89656 0.0
O139 O 0.91143 0.2472 0.90623 0.0
O140 O 0.93599 0.17621 0.89702 0.0
C141 C 0.9278 0.36214 0.91871 0.0
O142 O 0.9057 0.34995 0.90396 0.0
C143 C 0.99735 0.06323 0.91005 0.0
C144 C 0.07454 0.04966 0.91327 0.0
C145 C 0.03127 0.02669 0.91063 0.0
N146 N 0.01981 0.10543 0.91216 0.0
N147 N 0.06596 0.09689 0.91402 0.0
C148 C 0.94423 0.05838 0.909 0.0
H149 H 0.9266 0.08976 0.91524 0.0
H150 H 0.93211 0.02521 0.9157 0.0
H151 H 0.93354 0.05682 0.89478 0.0
C152 C 0.9669 0.23963 0.95877 0.0
N153 N 0.96786 0.23071 0.94122 0.0
N154 N 0.98193 0.18673 0.93812 0.0
C155 C 0.98957 0.16565 0.95411 0.0
C156 C 0.98001 0.19868 0.96771 0.0
C157 C 0.95987 0.28849 0.9665 0.0
H158 H 0.98021 0.31483 0.95848 0.0
H159 H 0.92142 0.29797 0.96592 0.0
H160 H 0.97226 0.29091 0.98049 0.0
O161 O 0.01872 0.28554 0.9103 0.0
O162 O 0.04544 0.21329 0.90314 0.0
H163 H 0.04457 0.11306 0.95267 0.0
H164 H 1.00108 0.1027 0.97016 0.0
C165 C 0.00613 0.11529 0.95626 0.0
H166 H 0.98606 0.09171 0.94708 0.0
H167 H 0.09161 0.12335 0.91601 0.0
O168 O 0.92997 0.3317 0.93111 0.0
C169 C 0.05014 0.2587 0.90312 0.0
Co170 Co 0.16353 0.89894 0.17221 0.0
Co171 Co 0.26326 0.90726 0.15454 0.0
C172 C 0.19348 0.82523 0.14653 0.0
O173 O 0.16267 0.84091 0.15766 0.0
O174 O 0.23333 0.8469 0.14383 0.0
C175 C 0.10766 0.94881 0.19532 0.0
O176 O 0.14198 0.97981 0.19234 0.0
C177 C 0.36736 0.89024 0.15005 0.0
C178 C 0.38906 0.9604 0.13925 0.0
C179 C 0.40701 0.91742 0.14527 0.0
N180 N 0.32795 0.91657 0.14722 0.0
N181 N 0.34126 0.95801 0.14043 0.0
C182 C 0.36692 0.84239 0.15884 0.0
H183 H 0.37255 0.81447 0.14853 0.0
H184 H 0.33197 0.83587 0.16547 0.0
H185 H 0.39637 0.83964 0.16864 0.0
C186 C 0.21784 0.89511 0.20464 0.0
N187 N 0.21625 0.89906 0.18684 0.0
N188 N 0.25903 0.90808 0.1804 0.0
C189 C 0.28912 0.91287 0.19445 0.0
C190 C 0.26336 0.90517 0.21014 0.0
C191 C 0.17788 0.87711 0.21622 0.0
H192 H 0.15905 0.90776 0.22244 0.0
H193 H 0.15243 0.85536 0.20836 0.0
H194 H 0.19213 0.85483 0.2272 0.0
O195 O 0.15934 0.95535 0.15687 0.0
O196 O 0.22951 0.96245 0.14365 0.0
H197 H 0.34763 0.94761 0.18109 0.0
H198 H 0.35201 0.94598 0.20521 0.0
C199 C 0.34079 0.92588 0.19316 0.0
H200 H 0.36242 0.89282 0.19247 0.0
H201 H 0.31788 0.98581 0.13745 0.0
O202 O 0.10855 0.90827 0.1876 0.0
C203 C 0.18721 0.97705 0.14633 0.0
Co204 Co 0.50958 0.0664 0.42806 0.0
Co205 Co 0.50821 0.16657 0.41046 0.0
C206 C 0.59857 0.10461 0.41192 0.0
O207 O 0.57702 0.07171 0.42056 0.0
O208 O 0.57651 0.14249 0.40698 0.0
C209 C 0.44988 0.00593 0.44544 0.0
O210 O 0.41963 0.03838 0.43982 0.0
C211 C 0.52946 0.27051 0.40474 0.0
C212 C 0.45805 0.29508 0.39633 0.0
C213 C 0.50346 0.31146 0.40037 0.0
N214 N 0.50015 0.23237 0.40367 0.0
N215 N 0.45778 0.24748 0.39843 0.0
C216 C 0.58141 0.26704 0.40919 0.0
H217 H 0.59546 0.23134 0.40562 0.0
H218 H 0.58626 0.27227 0.42373 0.0
H219 H 0.60218 0.29473 0.40197 0.0
C220 C 0.48817 0.11995 0.46003 0.0
N221 N 0.49296 0.11798 0.44221 0.0
N222 N 0.49064 0.16103 0.43541 0.0
C223 C 0.48324 0.19209 0.44904 0.0
C224 C 0.48047 0.16664 0.46498 0.0
C225 C 0.50074 0.07986 0.47244 0.0
H226 H 0.46822 0.05864 0.47539 0.0
H227 H 0.52839 0.05658 0.46637 0.0
H228 H 0.5147 0.09323 0.48533 0.0
O229 O 0.46875 0.05796 0.40728 0.0
O230 O 0.46491 0.12799 0.39389 0.0
H231 H 0.4597 0.25601 0.43624 0.0
H232 H 0.47192 0.26268 0.45981 0.0
C233 C 0.48363 0.24516 0.44724 0.0
H234 H 0.52036 0.25715 0.44398 0.0
H235 H 0.42812 0.22535 0.39681 0.0
O236 O 0.49417 0.00994 0.44176 0.0
C237 C 0.45342 0.084 0.39482 0.0
Co238 Co 0.35333 0.47458 0.67226 0.0
Co239 Co 0.25753 0.42957 0.65996 0.0
C240 C 0.28859 0.53099 0.65034 0.0
O241 O 0.32398 0.52693 0.66057 0.0
O242 O 0.26058 0.49557 0.64763 0.0
C243 C 0.44234 0.5128 0.67192 0.0
O244 O 0.42938 0.53196 0.6567 0.0
C245 C 0.15133 0.42822 0.65802 0.0
C246 C 0.13574 0.35146 0.65521 0.0
C247 C 0.11374 0.39564 0.65673 0.0
N248 N 0.19319 0.40437 0.65722 0.0
N249 N 0.18344 0.35847 0.65544 0.0
C250 C 0.14782 0.48057 0.66168 0.0
H251 H 0.14556 0.49995 0.64882 0.0
H252 H 0.18012 0.49313 0.66883 0.0
H253 H 0.1154 0.48878 0.6697 0.0
C254 C 0.32199 0.44494 0.70715 0.0
N255 N 0.31406 0.44993 0.68965 0.0
N256 N 0.27227 0.43201 0.68536 0.0
C257 C 0.25167 0.41527 0.70052 0.0
C258 C 0.28266 0.42335 0.71482 0.0
C259 C 0.36879 0.45602 0.71586 0.0
H260 H 0.39822 0.44087 0.70769 0.0
H261 H 0.37358 0.49527 0.71655 0.0
H262 H 0.37127 0.44085 0.72946 0.0
O263 O 0.37335 0.42315 0.6553 0.0
O264 O 0.30671 0.38523 0.64762 0.0
H265 H 0.20444 0.35853 0.69348 0.0
H266 H 0.19238 0.38451 0.71518 0.0
C267 C 0.20353 0.39221 0.70126 0.0
H268 H 0.17684 0.41608 0.69502 0.0
H269 H 0.20934 0.33176 0.65478 0.0
O270 O 0.40991 0.50233 0.68305 0.0
C271 C 0.35239 0.38946 0.64692 0.0
Co272 Co 0.65708 0.36947 0.67336 0.0
Co273 Co 0.76034 0.3987 0.662 0.0
C274 C 0.71694 0.30326 0.65204 0.0
O275 O 0.67996 0.31458 0.66079 0.0
O276 O 0.75152 0.33277 0.65024 0.0
C277 C 0.56616 0.3527 0.67048 0.0
O278 O 0.57821 0.33471 0.6549 0.0
C279 C 0.86831 0.39433 0.66041 0.0
C280 C 0.88565 0.47016 0.65609 0.0
C281 C 0.9069 0.42584 0.65828 0.0
N282 N 0.82691 0.41923 0.65963 0.0
N283 N 0.83791 0.46454 0.65704 0.0
C284 C 0.87038 0.34138 0.66274 0.0
H285 H 0.83548 0.32478 0.65979 0.0
H286 H 0.87938 0.33309 0.67678 0.0
H287 H 0.89823 0.32577 0.6539 0.0
C288 C 0.68943 0.39277 0.70854 0.0
N289 N 0.69826 0.38683 0.69112 0.0
N290 N 0.74279 0.39792 0.6873 0.0
C291 C 0.76441 0.41038 0.70276 0.0
C292 C 0.73107 0.4072 0.71673 0.0
C293 C 0.64036 0.39025 0.71658 0.0
H294 H 0.61472 0.40872 0.70775 0.0
H295 H 0.62936 0.35235 0.71774 0.0
H296 H 0.63861 0.40739 0.7299 0.0
O297 O 0.64488 0.42517 0.65802 0.0
O298 O 0.71719 0.44785 0.64904 0.0
H299 H 0.82099 0.45964 0.69761 0.0
H300 H 0.82777 0.4264 0.71815 0.0
C301 C 0.81582 0.42444 0.70409 0.0
H302 H 0.83815 0.39809 0.69684 0.0
H303 H 0.81272 0.49179 0.65596 0.0
O304 O 0.59606 0.34981 0.683 0.0
C305 C 0.67163 0.45338 0.64928 0.0
Co306 Co 0.85244 0.91746 0.18183 0.0
Co307 Co 0.74954 0.91083 0.16766 0.0
C308 C 0.80924 0.99304 0.15748 0.0
O309 O 0.8421 0.97462 0.16688 0.0
O310 O 0.76832 0.97312 0.15617 0.0
C311 C 0.91932 0.96895 0.20248 0.0
O312 O 0.88969 0.00507 0.20108 0.0
C313 C 0.6459 0.9158 0.15856 0.0
C314 C 0.62558 0.841 0.16413 0.0
C315 C 0.60719 0.88444 0.15876 0.0
N316 N 0.68497 0.89181 0.16383 0.0
N317 N 0.6725 0.84716 0.16703 0.0
C318 C 0.64669 0.96677 0.15267 0.0
H319 H 0.68176 0.9756 0.14662 0.0
H320 H 0.64124 0.9902 0.16444 0.0
H321 H 0.61816 0.97384 0.1428 0.0
C322 C 0.80593 0.90242 0.21613 0.0
N323 N 0.80437 0.90715 0.19833 0.0
N324 N 0.75991 0.91045 0.19306 0.0
C325 C 0.73156 0.91106 0.20773 0.0
C326 C 0.76006 0.9054 0.22281 0.0
C327 C 0.85082 0.89784 0.2268 0.0
H328 H 0.87849 0.87842 0.21906 0.0
H329 H 0.86406 0.93391 0.23033 0.0
H330 H 0.84422 0.87825 0.2394 0.0
O331 O 0.86096 0.86164 0.16663 0.0
O332 O 0.78834 0.8605 0.15486 0.0
H333 H 0.66129 0.88416 0.20348 0.0
H334 H 0.6648 0.92921 0.22062 0.0
C335 C 0.67866 0.9182 0.20735 0.0
H336 H 0.66941 0.94536 0.19718 0.0
H337 H 0.69613 0.8209 0.17139 0.0
O338 O 0.91036 0.92966 0.19474 0.0
C339 C 0.83078 0.84413 0.15585 0.0
Co340 Co 0.86026 0.40971 0.8285 0.0
Co341 Co 0.76131 0.42192 0.84668 0.0
C342 C 0.82063 0.32971 0.84936 0.0
O343 O 0.85351 0.34642 0.83931 0.0
O344 O 0.78373 0.35475 0.85349 0.0
C345 C 0.92168 0.45953 0.80752 0.0
O346 O 0.89045 0.49273 0.81174 0.0
C347 C 0.65718 0.40606 0.85269 0.0
C348 C 0.63525 0.47852 0.86101 0.0
C349 C 0.61744 0.43367 0.85706 0.0
N350 N 0.69648 0.43364 0.8539 0.0
N351 N 0.68303 0.47666 0.85914 0.0
C352 C 0.65754 0.35605 0.84572 0.0
H353 H 0.65517 0.33096 0.85712 0.0
H354 H 0.69118 0.34882 0.83829 0.0
H355 H 0.62627 0.34979 0.83696 0.0
C356 C 0.8056 0.42299 0.79628 0.0
N357 N 0.80819 0.42246 0.81415 0.0
N358 N 0.76587 0.43061 0.82116 0.0
C359 C 0.73492 0.4383 0.80759 0.0
C360 C 0.75975 0.43461 0.7915 0.0
C361 C 0.8438 0.40475 0.7839 0.0
H362 H 0.86561 0.4351 0.77902 0.0
H363 H 0.86692 0.37852 0.79075 0.0
H364 H 0.828 0.3871 0.77205 0.0
O365 O 0.87122 0.45775 0.84706 0.0
O366 O 0.80152 0.47001 0.86027 0.0
H367 H 0.67578 0.47163 0.8209 0.0
H368 H 0.66668 0.46071 0.79732 0.0
C369 C 0.68245 0.44641 0.80977 0.0
H370 H 0.66481 0.41204 0.81296 0.0
H371 H 0.70633 0.50541 0.8607 0.0
O372 O 0.91644 0.41744 0.8136 0.0
C373 C 0.8459 0.4792 0.85855 0.0
Co374 Co 0.67434 0.97503 0.34232 0.0
Co375 Co 0.77455 0.93407 0.35228 0.0
C376 C 0.73107 0.02369 0.36929 0.0
O377 O 0.6964 0.02214 0.35856 0.0
O378 O 0.76353 0.99139 0.36922 0.0
C379 C 0.57772 0.99018 0.34393 0.0
O380 O 0.58637 0.98838 0.36113 0.0
C381 C 0.88178 0.93412 0.35238 0.0
C382 C 0.8965 0.85699 0.3545 0.0
C383 C 0.91899 0.90081 0.35273 0.0
N384 N 0.83973 0.91078 0.35383 0.0
N385 N 0.84905 0.86473 0.35523 0.0
C386 C 0.88546 0.98657 0.34907 0.0
H387 H 0.89367 0.00496 0.3618 0.0
H388 H 0.85103 1.00062 0.34398 0.0
H389 H 0.91463 0.99426 0.33941 0.0
C390 C 0.70919 0.96595 0.3063 0.0
N391 N 0.71708 0.96527 0.32393 0.0
N392 N 0.75918 0.94668 0.32735 0.0
C393 C 0.77951 0.93436 0.31157 0.0
C394 C 0.74844 0.94649 0.29774 0.0
C395 C 0.66163 0.97748 0.29826 0.0
H396 H 0.63439 0.95268 0.30373 0.0
H397 H 0.65123 0.01435 0.30202 0.0
H398 H 0.66156 0.97411 0.28355 0.0
O399 O 0.66166 0.9139 0.35445 0.0
O400 O 0.73136 0.88121 0.36124 0.0
H401 H 0.82486 0.87514 0.31745 0.0
H402 H 0.83549 0.90148 0.29572 0.0
C403 C 0.82633 0.90903 0.30985 0.0
H404 H 0.85485 0.93146 0.31572 0.0
H405 H 0.82289 0.83834 0.35623 0.0
O406 O 0.61273 0.99579 0.33335 0.0
C407 C 0.68574 0.87977 0.36104 0.0
Co408 Co 0.46639 0.56961 0.58516 0.0
Co409 Co 0.4947 0.67083 0.5982 0.0
C410 C 0.39703 0.62824 0.60563 0.0
O411 O 0.40954 0.59173 0.59686 0.0
O412 O 0.42646 0.66251 0.60828 0.0
C413 C 0.45172 0.47849 0.58657 0.0
O414 O 0.43475 0.48963 0.60242 0.0
C415 C 0.48977 0.77744 0.60002 0.0
C416 C 0.56564 0.79589 0.60399 0.0
C417 C 0.52092 0.81611 0.60162 0.0
N418 N 0.51506 0.73657 0.60138 0.0
N419 N 0.56034 0.74811 0.6039 0.0
C420 C 0.43773 0.77906 0.59565 0.0
H421 H 0.41685 0.78199 0.60822 0.0
H422 H 0.42684 0.74584 0.58869 0.0
H423 H 0.42956 0.8105 0.58722 0.0
C424 C 0.49381 0.60528 0.55065 0.0
N425 N 0.48679 0.61183 0.56817 0.0
N426 N 0.49798 0.65567 0.57281 0.0
C427 C 0.51184 0.679 0.55784 0.0
C428 C 0.51026 0.64734 0.54345 0.0
C429 C 0.48286 0.5598 0.54098 0.0
H430 H 0.5052 0.5307 0.54649 0.0
H431 H 0.44481 0.55028 0.54319 0.0
H432 H 0.48959 0.56268 0.52644 0.0
O433 O 0.51994 0.55584 0.60138 0.0
O434 O 0.5417 0.62678 0.61176 0.0
H435 H 0.55703 0.7359 0.56645 0.0
H436 H 0.53718 0.74116 0.54359 0.0
C437 C 0.52659 0.73022 0.55727 0.0
H438 H 0.4965 0.75283 0.56194 0.0
H439 H 0.58792 0.72329 0.60506 0.0
O440 O 0.44939 0.50956 0.57443 0.0
C441 C 0.54705 0.58134 0.61101 0.0
Co442 Co 0.00452 0.75948 0.07602 0.0
Co443 Co 0.99774 0.65761 0.09098 0.0
C444 C 0.0813 0.71587 0.09994 0.0
O445 O 0.06253 0.74856 0.09052 0.0
O446 O 0.061 0.67531 0.10179 0.0
C447 C 0.05494 0.82714 0.05485 0.0
O448 O 0.09226 0.79907 0.05641 0.0
C449 C 1.0015 0.55383 0.09924 0.0
C450 C 0.92465 0.53655 0.0967 0.0
C451 C 0.96881 0.51649 0.10008 0.0
N452 N 0.97743 0.5941 0.09557 0.0
N453 N 0.93157 0.58348 0.09421 0.0
C454 C 0.05476 0.55093 0.10036 0.0
H455 H 0.07149 0.58123 0.09316 0.0
H456 H 0.06781 0.51665 0.09473 0.0
H457 H 0.06549 0.55288 0.11457 0.0
C458 C 0.9887 0.71159 0.04209 0.0
N459 N 0.99296 0.71087 0.05992 0.0
N460 N 0.99643 0.66676 0.06553 0.0
C461 C 0.99762 0.63781 0.05107 0.0
C462 C 0.99229 0.6655 0.03575 0.0
C463 C 0.98504 0.75597 0.03109 0.0
H464 H 0.96536 0.78398 0.03852 0.0
H465 H 0.02145 0.76879 0.0277 0.0
H466 H 0.96602 0.74905 0.01842 0.0
O467 O 0.94947 0.7693 0.0916 0.0
O468 O 0.94873 0.69754 0.10399 0.0
H469 H 0.97391 0.56784 0.05791 0.0
H470 H 0.01197 0.56992 0.0384 0.0
C471 C 0.00574 0.58516 0.05188 0.0
H472 H 0.03675 0.57753 0.06058 0.0
H473 H 0.90504 0.60827 0.09115 0.0
O474 O 0.01596 0.81704 0.0627 0.0
C475 C 0.93247 0.73989 0.10281 0.0
Co476 Co 0.49157 0.75717 0.42635 0.0
Co477 Co 0.51752 0.65656 0.41228 0.0
C478 C 0.42357 0.70265 0.40336 0.0
O479 O 0.4351 0.73734 0.41331 0.0
O480 O 0.45223 0.66767 0.4009 0.0
C481 C 0.43148 0.81749 0.44708 0.0
O482 O 0.39843 0.78461 0.44524 0.0
C483 C 0.51424 0.55192 0.4061 0.0
C484 C 0.59102 0.53375 0.40693 0.0
C485 C 0.54602 0.51376 0.40517 0.0
N486 N 0.53945 0.59245 0.40822 0.0
N487 N 0.58532 0.58126 0.40859 0.0
C488 C 0.46085 0.5497 0.4067 0.0
H489 H 0.44639 0.57986 0.41466 0.0
H490 H 0.4485 0.51542 0.4125 0.0
H491 H 0.44686 0.55261 0.39292 0.0
C492 C 0.51664 0.71666 0.46029 0.0
N493 N 0.51177 0.71243 0.4426 0.0
N494 N 0.51701 0.66776 0.43776 0.0
C495 C 0.5229 0.64137 0.45274 0.0
C496 C 0.5222 0.67191 0.46751 0.0
C497 C 0.51882 0.76313 0.47015 0.0
H498 H 0.53504 0.79108 0.4616 0.0
H499 H 0.48222 0.77406 0.47411 0.0
H500 H 0.54043 0.75961 0.48245 0.0
O501 O 0.54234 0.77325 0.40962 0.0
O502 O 0.56504 0.70161 0.39989 0.0
H503 H 0.56139 0.5774 0.44708 0.0
H504 H 0.52365 0.57388 0.46668 0.0
C505 C 0.52654 0.58818 0.45293 0.0
H506 H 0.49793 0.57268 0.44454 0.0
H507 H 0.61272 0.60599 0.41044 0.0
O508 O 0.47191 0.81306 0.43948 0.0
C509 C 0.56933 0.7471 0.40007 0.0
Co510 Co 0.07509 0.57478 0.91792 0.0
Co511 Co 0.04046 0.67607 0.90693 0.0
C512 C 0.1311 0.6305 0.89197 0.0
O513 O 0.12513 0.59539 0.90228 0.0
O514 O 0.10066 0.66461 0.89142 0.0
C515 C 0.09279 0.48255 0.91431 0.0
O516 O 0.10804 0.49603 0.8985 0.0
C517 C 0.04208 0.78296 0.90666 0.0
C518 C 0.9663 0.79862 0.9011 0.0
C519 C 0.0097 0.82056 0.90456 0.0
N520 N 0.01849 0.74128 0.90473 0.0
N521 N 0.97326 0.75113 0.90136 0.0
C522 C 0.09472 0.786 0.90982 0.0
H523 H 0.11254 0.7524 0.90567 0.0
H524 H 0.1013 0.79126 0.92427 0.0
H525 H 0.11034 0.81658 0.90243 0.0
C526 C 0.06259 0.61021 0.95364 0.0
N527 N 0.06478 0.6179 0.93602 0.0
N528 N 0.04851 0.66062 0.93214 0.0
C529 C 0.03463 0.68158 0.9476 0.0
C530 C 0.04347 0.65026 0.96172 0.0
C531 C 0.0712 0.56243 0.96197 0.0
H532 H 0.04697 0.53583 0.95581 0.0
H533 H 0.10852 0.55116 0.95921 0.0
H534 H 0.06483 0.56246 0.97656 0.0
O535 O 0.01427 0.56308 0.90516 0.0
O536 O 0.98797 0.6343 0.89694 0.0
H537 H 0.97822 0.72897 0.94026 0.0
H538 H 1.0008 0.73855 0.96262 0.0
C539 C 0.01066 0.72918 0.94871 0.0
H540 H 0.03516 0.75686 0.94343 0.0
H541 H 0.94691 0.72535 0.89938 0.0
O542 O 0.09399 0.51276 0.92688 0.0
C543 C 0.98303 0.58905 0.89764 0.0
C544 C 0.9523 0.43171 0.09243 0.0
C545 C 0.97748 0.46512 0.1027 0.0
H546 H 0.94213 0.35858 0.08575 0.0
C547 C 0.00962 0.44897 0.11562 0.0
H548 H 0.92749 0.44338 0.08228 0.0
C549 C 0.01692 0.40012 0.11804 0.0
C550 C 0.99233 0.36649 0.10756 0.0
H551 H 0.02869 0.47398 0.12399 0.0
H552 H 0.0422 0.38867 0.12806 0.0
C553 C 0.96009 0.38291 0.09465 0.0
C554 C 0.04514 0.95173 0.35652 0.0
C555 C 0.0729 0.91632 0.348 0.0
H556 H 0.97552 0.97464 0.36499 0.0
C557 C 0.04908 0.87685 0.34061 0.0
H558 H 0.06207 0.98277 0.36234 0.0
C559 C 0.99931 0.8723 0.34212 0.0
C560 C 0.97168 0.90753 0.35072 0.0
H561 H 0.06839 0.84981 0.33326 0.0
H562 H 0.98231 0.84127 0.3363 0.0
C563 C 0.99527 0.94736 0.3579 0.0
C564 C 0.53676 0.94745 0.59039 0.0
C565 C 0.49761 0.96914 0.59907 0.0
H566 H 0.57476 0.88279 0.58456 0.0
C567 C 0.46464 0.93902 0.60789 0.0
H568 H 0.56192 0.96791 0.58267 0.0
C569 C 0.47128 0.88935 0.6084 0.0
C570 C 0.51127 0.86829 0.60021 0.0
H571 H 0.4338 0.95387 0.61468 0.0
H572 H 0.44582 0.86766 0.61568 0.0
C573 C 0.54384 0.89798 0.59121 0.0
C574 C 0.48546 0.44486 0.84721 0.0
C575 C 0.4668 0.40241 0.85436 0.0
H576 H 0.54753 0.48795 0.84267 0.0
C577 C 0.49872 0.36911 0.86177 0.0
H578 H 0.46273 0.47016 0.84046 0.0
C579 C 0.54786 0.37861 0.86243 0.0
C580 C 0.56602 0.42172 0.85576 0.0
H581 H 0.48564 0.33574 0.86719 0.0
H582 H 0.57141 0.35274 0.86851 0.0
C583 C 0.53433 0.45472 0.84818 0.0
C584 C 0.98642 0.90414 0.8963 0.0
C585 C 0.01667 0.87328 0.90585 0.0
H586 H 0.96765 0.97617 0.88993 0.0
C587 C 0.05104 0.89359 0.91718 0.0
H588 H 0.9595 0.88986 0.88744 0.0
C589 C 0.05545 0.94326 0.91869 0.0
C590 C 0.02507 0.97401 0.90919 0.0
H591 H 0.0738 0.87145 0.92529 0.0
H592 H 0.08228 0.95765 0.92757 0.0
C593 C 0.99068 0.95379 0.89788 0.0
C594 C 0.47873 0.86378 0.14501 0.0
C595 C 0.45799 0.90822 0.14872 0.0
H596 H 0.54271 0.82187 0.14498 0.0
C597 C 0.48655 0.94499 0.15565 0.0
H598 H 0.45759 0.83504 0.13948 0.0
C599 C 0.53497 0.93747 0.15893 0.0
C600 C 0.55616 0.89338 0.1549 0.0
H601 H 0.47119 0.97941 0.1589 0.0
H602 H 0.55525 0.96592 0.16503 0.0
C603 C 0.52744 0.85643 0.14807 0.0
C604 C 0.55206 0.38015 0.41272 0.0
C605 C 0.51699 0.36288 0.40098 0.0
H606 H 0.5888 0.44128 0.42309 0.0
C607 C 0.4915 0.39606 0.39062 0.0
H608 H 0.57102 0.35644 0.42153 0.0
C609 C 0.5007 0.44501 0.39197 0.0
C610 C 0.53573 0.46202 0.40368 0.0
H611 H 0.4641 0.38421 0.38147 0.0
H612 H 0.48074 0.46946 0.38369 0.0
C613 C 0.56177 0.42907 0.41385 0.0
C614 C 0.98112 0.37796 0.66657 0.0
C615 C 0.9599 0.41716 0.65795 0.0
H616 H 0.04579 0.34048 0.67283 0.0
C617 C 0.99038 0.44999 0.64929 0.0
H618 H 0.95992 0.35287 0.67409 0.0
C619 C 0.04014 0.44352 0.64904 0.0
C620 C 0.06103 0.40399 0.65743 0.0
H621 H 0.97575 0.48073 0.64251 0.0
H622 H 0.06207 0.46899 0.6419 0.0
C623 C 0.03084 0.37117 0.6661 0.0
C624 C 0.02927 0.17386 0.0138 0.0
C625 C 0.99189 0.19057 0.02472 0.0
H626 H 0.05492 0.1632 0.98703 0.0
C627 C 0.95088 0.20957 0.01686 0.0
H628 H 0.06048 0.15742 0.01967 0.0
C629 C 0.94689 0.21108 0.99831 0.0
C630 C 0.98401 0.19402 0.98731 0.0
H631 H 0.92088 0.22074 0.02504 0.0
H632 H 0.91434 0.22498 0.99253 0.0
C633 C 0.02555 0.17591 0.9952 0.0
C634 C 0.26091 0.93174 0.25921 0.0
C635 C 0.2841 0.89145 0.26602 0.0
H636 H 0.23762 0.96839 0.2357 0.0
C637 C 0.30464 0.85836 0.2541 0.0
H638 H 0.24556 0.95815 0.2681 0.0
C639 C 0.30202 0.86529 0.2357 0.0
C640 C 0.27816 0.90507 0.22892 0.0
H641 H 0.3226 0.82685 0.25905 0.0
H642 H 0.31637 0.83836 0.22679 0.0
C643 C 0.25761 0.93825 0.24076 0.0
C644 C 0.5388 0.20136 0.50773 0.0
C645 C 0.50395 0.18796 0.52036 0.0
H646 H 0.55732 0.20787 0.48007 0.0
C647 C 0.45884 0.17327 0.51439 0.0
H648 H 0.57404 0.2125 0.51197 0.0
C649 C 0.44947 0.17046 0.49608 0.0
C650 C 0.48465 0.18339 0.48353 0.0
H651 H 0.43108 0.16363 0.52383 0.0
H652 H 0.41549 0.15628 0.49167 0.0
C653 C 0.52907 0.19962 0.48951 0.0
C654 C 0.28613 0.44935 0.74652 0.0
C655 C 0.27708 0.41297 0.73406 0.0
H656 H 0.29088 0.46888 0.77409 0.0
C657 C 0.26761 0.36664 0.7402 0.0
H658 H 0.2936 0.48538 0.74209 0.0
C659 C 0.26657 0.35716 0.75856 0.0
C660 C 0.27542 0.39377 0.77095 0.0
H661 H 0.26132 0.33788 0.73084 0.0
H662 H 0.25744 0.32164 0.76311 0.0
C663 C 0.28553 0.43981 0.76477 0.0
C664 C 0.76101 0.46664 0.76073 0.0
C665 C 0.74268 0.43338 0.77299 0.0
H666 H 0.77162 0.48462 0.73316 0.0
C667 C 0.7202 0.39212 0.7667 0.0
H668 H 0.77996 0.49795 0.76539 0.0
C669 C 0.71751 0.38346 0.7484 0.0
C670 C 0.73646 0.41629 0.73607 0.0
H671 H 0.70762 0.36516 0.77594 0.0
H672 H 0.70136 0.3505 0.74387 0.0
C673 C 0.75751 0.4584 0.74237 0.0
C674 C 0.74364 0.96134 0.24771 0.0
C675 C 0.74895 0.91422 0.24176 0.0
H676 H 0.74103 0.0085 0.27024 0.0
C677 C 0.75467 0.87753 0.2543 0.0
H678 H 0.74065 0.99029 0.23822 0.0
C679 C 0.75567 0.88795 0.27257 0.0
C680 C 0.75132 0.93527 0.27849 0.0
H681 H 0.7601 0.84108 0.24992 0.0
H682 H 0.75972 0.85914 0.28205 0.0
C683 C 0.74489 0.97178 0.26592 0.0
C684 C 0.55449 0.63693 0.49588 0.0
C685 C 0.51858 0.66174 0.48681 0.0
H686 H 0.58042 0.61379 0.52141 0.0
C687 C 0.48119 0.68292 0.49662 0.0
H688 H 0.58387 0.62079 0.48861 0.0
C689 C 0.48031 0.68069 0.51517 0.0
C690 C 0.51629 0.6564 0.52426 0.0
H691 H 0.45273 0.70181 0.4899 0.0
H692 H 0.45078 0.69675 0.5224 0.0
C693 C 0.55311 0.63395 0.51455 0.0
C694 C 0.06416 0.64651 0.99397 0.0
C695 C 0.02966 0.65394 0.98072 0.0
H696 H 0.07865 0.64259 0.022 0.0
C697 C 0.9817 0.66021 0.98574 0.0
H698 H 0.1013 0.64109 0.99036 0.0
C699 C 0.9687 0.66025 0.00379 0.0
C700 C 0.00343 0.65375 0.01702 0.0
H701 H 0.95438 0.66499 0.97571 0.0
H702 H 0.93184 0.66704 0.00746 0.0
C703 C 0.05114 0.64636 0.01198 0.0
C704 C 0.16826 0.01326 0.11702 0.0
C705 C 0.16722 0.01613 0.13569 0.0
H706 H 0.13624 0.0365 0.09261 0.0
C707 C 0.13891 0.05111 0.14401 0.0
H708 H 0.18932 0.98604 0.11038 0.0
C709 C 0.10973 0.08092 0.13385 0.0
C710 C 0.10725 0.07484 0.11531 0.0
H711 H 0.1373 0.0535 0.15843 0.0
H712 H 0.08606 0.10567 0.14063 0.0
C713 C 0.13784 0.04192 0.10691 0.0
C714 C 0.42145 0.01323 0.35381 0.0
C715 C 0.37902 0.99053 0.35939 0.0
H716 H 0.4777 0.06237 0.36049 0.0
C717 C 0.35761 0.00543 0.37546 0.0
H718 H 0.43845 0.00304 0.34138 0.0
C719 C 0.38005 0.03937 0.38634 0.0
C720 C 0.42361 0.06029 0.38117 0.0
H721 H 0.32507 0.98864 0.3802 0.0
H722 H 0.36467 0.04738 0.39929 0.0
C723 C 0.44348 0.04784 0.36457 0.0
C724 C 0.40001 0.27742 0.62254 0.0
C725 C 0.4467 0.29197 0.61779 0.0
H726 H 0.33304 0.29657 0.63517 0.0
C727 C 0.46078 0.33845 0.62255 0.0
H728 H 0.38765 0.24202 0.61906 0.0
C729 C 0.42971 0.36948 0.63151 0.0
C730 C 0.38315 0.35544 0.63635 0.0
H731 H 0.49637 0.351 0.61943 0.0
H732 H 0.4423 0.40501 0.63459 0.0
C733 C 0.36851 0.30889 0.63163 0.0
C734 C 0.10385 0.32897 0.89783 0.0
C735 C 0.0911 0.28165 0.8937 0.0
H736 H 0.14364 0.39115 0.89013 0.0
C737 C 0.11468 0.25875 0.87945 0.0
H738 H 0.08687 0.34743 0.90886 0.0
C739 C 0.14755 0.28386 0.86878 0.0
C740 C 0.15813 0.3319 0.87242 0.0
H741 H 0.10559 0.22243 0.87586 0.0
H742 H 0.16267 0.26659 0.85712 0.0
C743 C 0.13685 0.35385 0.88728 0.0
C744 C 0.82754 0.2392 0.88628 0.0
C745 C 0.87125 0.21686 0.88202 0.0
H746 H 0.77677 0.29304 0.87918 0.0
C747 C 0.88926 0.2216 0.86463 0.0
H748 H 0.81294 0.23629 0.89965 0.0
C749 C 0.86904 0.25493 0.85297 0.0
C750 C 0.83015 0.2835 0.85846 0.0
H751 H 0.92298 0.2052 0.86098 0.0
H752 H 0.88702 0.26173 0.84041 0.0
C753 C 0.80716 0.27237 0.87461 0.0
C754 C 0.65556 0.19529 0.63521 0.0
C755 C 0.66358 0.20173 0.61693 0.0
H756 H 0.66904 0.22253 0.66132 0.0
C757 C 0.70401 0.22845 0.61153 0.0
H758 H 0.62538 0.17447 0.63988 0.0
C759 C 0.72831 0.25729 0.62379 0.0
C760 C 0.71316 0.25846 0.6416 0.0
H761 H 0.71194 0.23309 0.59749 0.0
H762 H 0.7538 0.28325 0.61885 0.0
C763 C 0.6805 0.22336 0.6475 0.0
C764 C 0.70463 0.10161 0.38077 0.0
C765 C 0.72286 0.05591 0.38457 0.0
H766 H 0.65002 0.1531 0.38642 0.0
C767 C 0.70992 0.03451 0.40079 0.0
H768 H 0.71395 0.11898 0.36833 0.0
C769 C 0.67236 0.05349 0.411 0.0
C770 C 0.6479 0.09467 0.4053 0.0
H771 H 0.72315 0.99929 0.40409 0.0
H772 H 0.65935 0.03309 0.42227 0.0
C773 C 0.66719 0.12076 0.39099 0.0
C774 C 0.85714 0.06661 0.15152 0.0
C775 C 0.82346 0.03285 0.14558 0.0
H776 H 0.91167 0.11685 0.14422 0.0
C777 C 0.81347 0.03022 0.12728 0.0
H778 H 0.86582 0.0691 0.16555 0.0
C779 C 0.84067 0.05665 0.11503 0.0
C780 C 0.87742 0.08715 0.12089 0.0
H781 H 0.78826 0.00414 0.12229 0.0
H782 H 0.83532 0.0506 0.10091 0.0
C783 C 0.8834 0.09401 0.13929 0.0
C784 C 0.61708 0.52453 0.6488 0.0
C785 C 0.64765 0.49298 0.63952 0.0
H786 H 0.56254 0.57861 0.64713 0.0
C787 C 0.64801 0.49452 0.62082 0.0
H788 H 0.6151 0.52328 0.66322 0.0
C789 C 0.61692 0.52525 0.61163 0.0
C790 C 0.58572 0.55618 0.6209 0.0
H791 H 0.66998 0.46977 0.61329 0.0
H792 H 0.61595 0.52354 0.5972 0.0
C793 C 0.58701 0.55629 0.63961 0.0
C794 C 0.92645 0.51996 0.89543 0.0
C795 C 0.94123 0.5651 0.88928 0.0
H796 H 0.88316 0.45802 0.89072 0.0
C797 C 0.91832 0.58463 0.87432 0.0
H798 H 0.94305 0.50406 0.90701 0.0
C799 C 0.88394 0.55803 0.86498 0.0
C800 C 0.8709 0.51211 0.87075 0.0
H801 H 0.92905 0.61913 0.86919 0.0
H802 H 0.86939 0.57228 0.85273 0.0
C803 C 0.89166 0.49382 0.88628 0.0
C804 C 0.86294 0.79087 0.11138 0.0
C805 C 0.89827 0.75784 0.11623 0.0
H806 H 0.81214 0.84294 0.12039 0.0
C807 C 0.90577 0.74815 0.13436 0.0
H808 H 0.85674 0.79904 0.09746 0.0
C809 C 0.88139 0.77427 0.14745 0.0
C810 C 0.84797 0.80922 0.14258 0.0
H811 H 0.9332 0.7232 0.13843 0.0
H812 H 0.89029 0.76879 0.16134 0.0
C813 C 0.83736 0.81579 0.12447 0.0
C814 C 0.60961 0.83474 0.36552 0.0
C815 C 0.65879 0.83919 0.36905 0.0
H816 H 0.54335 0.80134 0.37246 0.0
C817 C 0.67982 0.80723 0.3812 0.0
H818 H 0.59215 0.85813 0.3561 0.0
C819 C 0.65144 0.77389 0.39048 0.0
C820 C 0.60186 0.77197 0.38763 0.0
H821 H 0.71755 0.80968 0.38422 0.0
H822 H 0.66767 0.75175 0.40061 0.0
C823 C 0.58157 0.80183 0.37476 0.0
C824 C 0.34576 0.74312 0.39748 0.0
C825 C 0.3812 0.71044 0.39187 0.0
H826 H 0.29626 0.79751 0.38956 0.0
C827 C 0.38323 0.69775 0.37379 0.0
H828 H 0.34301 0.75332 0.41139 0.0
C829 C 0.35631 0.72321 0.3613 0.0
C830 C 0.3267 0.76134 0.36671 0.0
H831 H 0.40996 0.67281 0.36902 0.0
H832 H 0.36302 0.71687 0.34725 0.0
C833 C 0.31861 0.76837 0.38498 0.0
C834 C 0.14747 0.75 0.14133 0.0
C835 C 0.17811 0.78572 0.1347 0.0
H836 H 0.09389 0.69774 0.13525 0.0
C837 C 0.18448 0.78962 0.11618 0.0
H838 H 0.14178 0.74633 0.15557 0.0
C839 C 0.15625 0.76251 0.10456 0.0
C840 C 0.12218 0.7301 0.11125 0.0
H841 H 0.2074 0.81711 0.11067 0.0
H842 H 0.15823 0.76975 0.09038 0.0
C843 C 0.12021 0.72194 0.1297 0.0
C844 C 0.21076 0.60044 0.88309 0.0
C845 C 0.16776 0.62272 0.878 0.0
H846 H 0.26207 0.54576 0.87719 0.0
C847 C 0.15226 0.61714 0.86037 0.0
H848 H 0.22348 0.60401 0.89665 0.0
C849 C 0.17401 0.58313 0.84926 0.0
C850 C 0.21188 0.55461 0.85556 0.0
H851 H 0.11917 0.63345 0.85606 0.0
H852 H 0.15768 0.57553 0.83649 0.0
C853 C 0.23267 0.56654 0.87197 0.0
C854 C 0.28667 0.5661 0.62005 0.0
C855 C 0.29062 0.57319 0.63846 0.0
H856 H 0.31762 0.58079 0.59455 0.0
C857 C 0.31611 0.61361 0.64454 0.0
H858 H 0.26689 0.53591 0.61486 0.0
C859 C 0.34663 0.63853 0.63296 0.0
C860 C 0.35057 0.6241 0.61513 0.0
H861 H 0.31889 0.6207 0.6587 0.0
H862 H 0.37178 0.66383 0.63852 0.0
C863 C 0.31638 0.59168 0.60842 0.0
C864 C 0.0107 0.94382 0.04085 0.0
C865 C 0.04598 0.97233 0.04861 0.0
H866 H 0.9875 0.87268 0.03591 0.0
C867 C 0.09112 0.95296 0.05233 0.0
H868 H 0.97605 0.95856 0.03755 0.0
C869 C 0.09758 0.90367 0.05155 0.0
C870 C 0.05889 0.87447 0.04697 0.0
H871 H 0.11896 0.97475 0.05818 0.0
H872 H 0.13004 0.88846 0.05694 0.0
C873 C 0.01736 0.89486 0.03987 0.0
C874 C 0.50602 0.92415 0.31042 0.0
C875 C 0.48705 0.88806 0.32118 0.0
H876 H 0.54742 0.98805 0.30956 0.0
C877 C 0.48862 0.89221 0.33977 0.0
H878 H 0.50456 0.92145 0.29602 0.0
C879 C 0.51313 0.93012 0.34757 0.0
C880 C 0.53674 0.96371 0.33675 0.0
H881 H 0.47387 0.86445 0.3482 0.0
H882 H 0.51742 0.93032 0.36191 0.0
C883 C 0.53005 0.9623 0.31819 0.0
C884 C 0.56146 0.40984 0.59968 0.0
C885 C 0.57613 0.39152 0.58312 0.0
H886 H 0.50895 0.45012 0.61384 0.0
C887 C 0.55159 0.4049 0.56762 0.0
H888 H 0.57988 0.40044 0.61185 0.0
C889 C 0.51025 0.43208 0.56885 0.0
C890 C 0.4933 0.44703 0.58556 0.0
H891 H 0.56262 0.39169 0.55465 0.0
H892 H 0.49106 0.44073 0.55676 0.0
C893 C 0.52008 0.43713 0.60089 0.0
C894 C 0.04194 0.44127 0.78848 0.0
C895 C 0.06446 0.48162 0.79563 0.0
H896 H 0.97649 0.40248 0.78675 0.0
C897 C 0.03714 0.52124 0.80074 0.0
H898 H 0.06273 0.41071 0.78417 0.0
C899 C 0.98768 0.51653 0.80225 0.0
C900 C 0.96634 0.47224 0.79863 0.0
H901 H 0.05411 0.55278 0.8062 0.0
H902 H 0.96754 0.54497 0.80856 0.0
C903 C 0.99278 0.43639 0.79011 0.0
C904 C 0.99284 0.40836 0.93293 0.0
C905 C 0.96892 0.39447 0.91735 0.0
H906 H 0.05222 0.44543 0.94412 0.0
C907 C 0.98804 0.40693 0.90065 0.0
H908 H 0.979 0.3989 0.94597 0.0
C909 C 0.03026 0.43312 0.89959 0.0
C910 C 0.05384 0.44753 0.91521 0.0
H911 H 0.97081 0.39605 0.8884 0.0
H912 H 0.04356 0.44317 0.88654 0.0
C913 C 0.03499 0.43445 0.93187 0.0
C914 C 0.03853 0.92848 0.2141 0.0
C915 C 0.06468 0.96318 0.2049 0.0
H916 H 0.96891 0.90503 0.22165 0.0
C917 C 0.04398 0.00767 0.20123 0.0
H918 H 0.05447 0.89439 0.2174 0.0
C919 C 0.99487 0.01366 0.20353 0.0
C920 C 0.9673 0.9751 0.20952 0.0
H921 H 0.06407 0.03508 0.1943 0.0
H922 H 0.97802 0.04525 0.19812 0.0
C923 C 0.9898 0.93473 0.21663 0.0
C924 C 0.38467 0.89134 0.44734 0.0
C925 C 0.42073 0.86361 0.45501 0.0
H926 H 0.36598 0.96116 0.4383 0.0
C927 C 0.45705 0.88562 0.46486 0.0
H928 H 0.3563 0.87475 0.43974 0.0
C929 C 0.46311 0.93464 0.4638 0.0
C930 C 0.43239 0.96148 0.45311 0.0
H931 H 0.48478 0.8646 0.4711 0.0
H932 H 0.49494 0.95053 0.46948 0.0
C933 C 0.39051 0.94068 0.4464 0.0
C934 C 0.52037 0.41379 0.68716 0.0
C935 C 0.5363 0.39555 0.67077 0.0
H936 H 0.48064 0.46814 0.7005 0.0
C937 C 0.5286 0.4218 0.65511 0.0
H938 H 0.52717 0.39492 0.69949 0.0
C939 C 0.50253 0.46405 0.65571 0.0
C940 C 0.48316 0.48008 0.67193 0.0
H941 H 0.54236 0.40961 0.64239 0.0
H942 H 0.49485 0.48224 0.64332 0.0
C943 C 0.49449 0.45601 0.68776 0.0
loop_
_geom_bond_atom_site_label_1
_geom_bond_atom_site_label_2
_geom_bond_distance
_geom_bond_site_symmetry_2
_ccdc_geom_bond_type
Co0 O3 1.970 1_455 S
Co0 N17 1.989 . S
Co0 O25 1.967 . S
Co0 O32 1.920 . S
Co1 O4 1.966 1_455 S
Co1 N10 2.022 . S
Co1 N18 1.993 . S
Co1 O26 1.941 . S
C2 O3 1.258 . S
C2 O4 1.263 . S
O3 Co0 1.970 1_655 S
O3 C2 1.258 . S
O4 Co1 1.966 1_655 S
O4 C2 1.263 . S
C5 O6 1.235 1_565 S
C5 O32 1.289 1_665 S
O6 C5 1.235 1_545 S
C7 C9 1.400 . S
C7 N10 1.351 1_655 S
C7 C12 1.501 . S
C8 C9 1.387 1_455 S
C8 N11 1.341 . S
C9 C7 1.400 . S
C9 C8 1.387 1_655 S
N10 Co1 2.022 . S
N10 C7 1.351 1_455 S
N10 N11 1.365 . S
N11 C8 1.341 . S
N11 N10 1.365 . S
N11 H31 0.862 . S
C12 C7 1.501 . S
C12 H13 0.961 . S
C12 H14 0.961 . S
C12 H15 0.960 . S
H13 C12 0.961 . S
H14 C12 0.961 . S
H15 C12 0.960 . S
C16 N17 1.342 . S
C16 C20 1.401 . S
C16 C21 1.499 . S
N17 Co0 1.989 . S
N17 C16 1.342 . S
N17 N18 1.388 . S
N18 Co1 1.993 . S
N18 N17 1.388 . S
N18 C19 1.346 . S
C19 N18 1.346 . S
C19 C20 1.396 . S
C19 C29 1.510 . S
C20 C16 1.401 . S
C20 C19 1.396 . S
C21 C16 1.499 . S
C21 H22 0.959 . S
C21 H23 0.960 . S
C21 H24 0.961 . S
H22 C21 0.959 . S
H23 C21 0.960 . S
H24 C21 0.961 . S
O25 Co0 1.967 . S
O25 C33 1.258 . S
O26 Co1 1.941 . S
O26 C33 1.266 . S
H27 C29 0.959 . S
H28 C29 0.961 1_655 S
C29 C19 1.510 . S
C29 H27 0.959 . S
C29 H28 0.961 1_455 S
C29 H30 0.960 . S
H30 C29 0.960 . S
H31 N11 0.862 . S
O32 Co0 1.920 . S
O32 C5 1.289 1_445 S
C33 O25 1.258 . S
C33 O26 1.266 . S
Co34 O37 1.970 . S
Co34 N51 1.989 . S
Co34 O59 1.967 . S
Co34 O66 1.920 . S
Co35 O38 1.966 . S
Co35 N44 2.022 . S
Co35 N52 1.993 . S
Co35 O60 1.941 . S
C36 O37 1.258 . S
C36 O38 1.263 . S
O37 Co34 1.970 . S
O37 C36 1.258 . S
O38 Co35 1.966 . S
O38 C36 1.263 . S
C39 O40 1.235 . S
C39 O66 1.289 . S
O40 C39 1.235 . S
C41 C43 1.400 . S
C41 N44 1.351 . S
C41 C46 1.501 . S
C42 C43 1.387 . S
C42 N45 1.341 . S
C43 C41 1.400 . S
C43 C42 1.387 . S
N44 Co35 2.022 . S
N44 C41 1.351 . S
N44 N45 1.365 . S
N45 C42 1.341 . S
N45 N44 1.365 . S
N45 H65 0.862 . S
C46 C41 1.501 . S
C46 H47 0.961 . S
C46 H48 0.961 . S
C46 H49 0.960 . S
H47 C46 0.961 . S
H48 C46 0.961 . S
H49 C46 0.960 . S
C50 N51 1.342 . S
C50 C54 1.401 . S
C50 C55 1.499 . S
N51 Co34 1.989 . S
N51 C50 1.342 . S
N51 N52 1.388 . S
N52 Co35 1.993 . S
N52 N51 1.388 . S
N52 C53 1.346 . S
C53 N52 1.346 . S
C53 C54 1.396 . S
C53 C63 1.510 . S
C54 C50 1.401 . S
C54 C53 1.396 . S
C55 C50 1.499 . S
C55 H56 0.959 . S
C55 H57 0.960 . S
C55 H58 0.961 . S
H56 C55 0.959 . S
H57 C55 0.960 . S
H58 C55 0.961 . S
O59 Co34 1.967 . S
O59 C67 1.258 . S
O60 Co35 1.941 . S
O60 C67 1.266 . S
H61 C63 0.959 . S
H62 C63 0.961 . S
C63 C53 1.510 . S
C63 H61 0.959 . S
C63 H62 0.961 . S
C63 H64 0.960 . S
H64 C63 0.960 . S
H65 N45 0.862 . S
O66 Co34 1.920 . S
O66 C39 1.289 . S
C67 O59 1.258 . S
C67 O60 1.266 . S
Co68 O71 1.970 . S
Co68 N85 1.989 . S
Co68 O93 1.967 . S
Co68 O100 1.920 . S
Co69 O72 1.966 . S
Co69 N78 2.022 . S
Co69 N86 1.993 . S
Co69 O94 1.941 . S
C70 O71 1.258 . S
C70 O72 1.263 . S
O71 Co68 1.970 . S
O71 C70 1.258 . S
O72 Co69 1.966 . S
O72 C70 1.263 . S
C73 O74 1.235 . S
C73 O100 1.289 . S
O74 C73 1.235 . S
C75 C77 1.400 . S
C75 N78 1.351 . S
C75 C80 1.501 . S
C76 C77 1.387 . S
C76 N79 1.341 . S
C77 C75 1.400 . S
C77 C76 1.387 . S
N78 Co69 2.022 . S
N78 C75 1.351 . S
N78 N79 1.365 . S
N79 C76 1.341 . S
N79 N78 1.365 . S
N79 H99 0.862 . S
C80 C75 1.501 . S
C80 H81 0.961 . S
C80 H82 0.961 . S
C80 H83 0.960 . S
H81 C80 0.961 . S
H82 C80 0.961 . S
H83 C80 0.960 . S
C84 N85 1.342 . S
C84 C88 1.401 . S
C84 C89 1.499 . S
N85 Co68 1.989 . S
N85 C84 1.342 . S
N85 N86 1.388 . S
N86 Co69 1.993 . S
N86 N85 1.388 . S
N86 C87 1.346 . S
C87 N86 1.346 . S
C87 C88 1.396 . S
C87 C97 1.510 . S
C88 C84 1.401 . S
C88 C87 1.396 . S
C89 C84 1.499 . S
C89 H90 0.959 . S
C89 H91 0.960 . S
C89 H92 0.961 . S
H90 C89 0.959 . S
H91 C89 0.960 . S
H92 C89 0.961 . S
O93 Co68 1.967 . S
O93 C101 1.258 . S
O94 Co69 1.941 . S
O94 C101 1.266 . S
H95 C97 0.959 . S
H96 C97 0.961 . S
C97 C87 1.510 . S
C97 H95 0.959 . S
C97 H96 0.961 . S
C97 H98 0.960 . S
H98 C97 0.960 . S
H99 N79 0.862 . S
O100 Co68 1.920 . S
O100 C73 1.289 . S
C101 O93 1.258 . S
C101 O94 1.266 . S
Co102 O105 1.970 . S
Co102 N119 1.989 . S
Co102 O127 1.967 . S
Co102 O134 1.920 . S
Co103 O106 1.966 . S
Co103 N112 2.022 . S
Co103 N120 1.993 . S
Co103 O128 1.941 . S
C104 O105 1.258 . S
C104 O106 1.263 . S
O105 Co102 1.970 . S
O105 C104 1.258 . S
O106 Co103 1.966 . S
O106 C104 1.263 . S
C107 O108 1.235 . S
C107 O134 1.289 . S
O108 C107 1.235 . S
C109 C111 1.400 . S
C109 N112 1.351 . S
C109 C114 1.501 . S
C110 C111 1.387 . S
C110 N113 1.341 . S
C111 C109 1.400 . S
C111 C110 1.387 . S
N112 Co103 2.022 . S
N112 C109 1.351 . S
N112 N113 1.365 . S
N113 C110 1.341 . S
N113 N112 1.365 . S
N113 H133 0.862 . S
C114 C109 1.501 . S
C114 H115 0.961 . S
C114 H116 0.961 . S
C114 H117 0.960 . S
H115 C114 0.961 . S
H116 C114 0.961 . S
H117 C114 0.960 . S
C118 N119 1.342 . S
C118 C122 1.401 . S
C118 C123 1.499 . S
N119 Co102 1.989 . S
N119 C118 1.342 . S
N119 N120 1.388 . S
N120 Co103 1.993 . S
N120 N119 1.388 . S
N120 C121 1.346 . S
C121 N120 1.346 . S
C121 C122 1.396 . S
C121 C131 1.510 . S
C122 C118 1.401 . S
C122 C121 1.396 . S
C123 C118 1.499 . S
C123 H124 0.959 . S
C123 H125 0.960 . S
C123 H126 0.961 . S
H124 C123 0.959 . S
H125 C123 0.960 . S
H126 C123 0.961 . S
O127 Co102 1.967 . S
O127 C135 1.258 . S
O128 Co103 1.941 . S
O128 C135 1.266 . S
H129 C131 0.959 . S
H130 C131 0.961 . S
C131 C121 1.510 . S
C131 H129 0.959 . S
C131 H130 0.961 . S
C131 H132 0.960 . S
H132 C131 0.960 . S
H133 N113 0.862 . S
O134 Co102 1.920 . S
O134 C107 1.289 . S
C135 O127 1.258 . S
C135 O128 1.266 . S
Co136 O139 1.970 1_455 S
Co136 N153 1.989 . S
Co136 O161 1.967 . S
Co136 O168 1.920 . S
Co137 O140 1.966 1_455 S
Co137 N146 2.022 . S
Co137 N154 1.993 . S
Co137 O162 1.941 . S
C138 O139 1.258 . S
C138 O140 1.263 . S
O139 Co136 1.970 1_655 S
O139 C138 1.258 . S
O140 Co137 1.966 1_655 S
O140 C138 1.263 . S
C141 O142 1.235 . S
C141 O168 1.289 1_655 S
O142 C141 1.235 . S
C143 C145 1.400 . S
C143 N146 1.351 1_655 S
C143 C148 1.501 . S
C144 C145 1.387 1_455 S
C144 N147 1.341 . S
C145 C143 1.400 . S
C145 C144 1.387 1_655 S
N146 Co137 2.022 . S
N146 C143 1.351 1_455 S
N146 N147 1.365 . S
N147 C144 1.341 . S
N147 N146 1.365 . S
N147 H167 0.862 . S
C148 C143 1.501 . S
C148 H149 0.961 . S
C148 H150 0.961 . S
C148 H151 0.960 . S
H149 C148 0.961 . S
H150 C148 0.961 . S
H151 C148 0.960 . S
C152 N153 1.342 . S
C152 C156 1.401 . S
C152 C157 1.499 . S
N153 Co136 1.989 . S
N153 C152 1.342 . S
N153 N154 1.388 . S
N154 Co137 1.993 . S
N154 N153 1.388 . S
N154 C155 1.346 . S
C155 N154 1.346 . S
C155 C156 1.396 . S
C155 C165 1.510 . S
C156 C152 1.401 . S
C156 C155 1.396 . S
C157 C152 1.499 . S
C157 H158 0.959 . S
C157 H159 0.960 . S
C157 H160 0.961 . S
H158 C157 0.959 . S
H159 C157 0.960 . S
H160 C157 0.961 . S
O161 Co136 1.967 . S
O161 C169 1.258 . S
O162 Co137 1.941 . S
O162 C169 1.266 . S
H163 C165 0.959 . S
H164 C165 0.961 1_655 S
C165 C155 1.510 . S
C165 H163 0.959 . S
C165 H164 0.961 1_455 S
C165 H166 0.960 . S
H166 C165 0.960 . S
H167 N147 0.862 . S
O168 Co136 1.920 . S
O168 C141 1.289 1_455 S
C169 O161 1.258 . S
C169 O162 1.266 . S
Co170 O173 1.970 . S
Co170 N187 1.989 . S
Co170 O195 1.967 . S
Co170 O202 1.920 . S
Co171 O174 1.966 . S
Co171 N180 2.022 . S
Co171 N188 1.993 . S
Co171 O196 1.941 . S
C172 O173 1.258 . S
C172 O174 1.263 . S
O173 Co170 1.970 . S
O173 C172 1.258 . S
O174 Co171 1.966 . S
O174 C172 1.263 . S
C175 O176 1.235 . S
C175 O202 1.289 . S
O176 C175 1.235 . S
C177 C179 1.400 . S
C177 N180 1.351 . S
C177 C182 1.501 . S
C178 C179 1.387 . S
C178 N181 1.341 . S
C179 C177 1.400 . S
C179 C178 1.387 . S
N180 Co171 2.022 . S
N180 C177 1.351 . S
N180 N181 1.365 . S
N181 C178 1.341 . S
N181 N180 1.365 . S
N181 H201 0.862 . S
C182 C177 1.501 . S
C182 H183 0.961 . S
C182 H184 0.961 . S
C182 H185 0.960 . S
H183 C182 0.961 . S
H184 C182 0.961 . S
H185 C182 0.960 . S
C186 N187 1.342 . S
C186 C190 1.401 . S
C186 C191 1.499 . S
N187 Co170 1.989 . S
N187 C186 1.342 . S
N187 N188 1.388 . S
N188 Co171 1.993 . S
N188 N187 1.388 . S
N188 C189 1.346 . S
C189 N188 1.346 . S
C189 C190 1.396 . S
C189 C199 1.510 . S
C190 C186 1.401 . S
C190 C189 1.396 . S
C191 C186 1.499 . S
C191 H192 0.959 . S
C191 H193 0.960 . S
C191 H194 0.961 . S
H192 C191 0.959 . S
H193 C191 0.960 . S
H194 C191 0.961 . S
O195 Co170 1.967 . S
O195 C203 1.258 . S
O196 Co171 1.941 . S
O196 C203 1.266 . S
H197 C199 0.959 . S
H198 C199 0.961 . S
C199 C189 1.510 . S
C199 H197 0.959 . S
C199 H198 0.961 . S
C199 H200 0.960 . S
H200 C199 0.960 . S
H201 N181 0.862 . S
O202 Co170 1.920 . S
O202 C175 1.289 . S
C203 O195 1.258 . S
C203 O196 1.266 . S
Co204 O207 1.970 . S
Co204 N221 1.989 . S
Co204 O229 1.967 . S
Co204 O236 1.920 . S
Co205 O208 1.966 . S
Co205 N214 2.022 . S
Co205 N222 1.993 . S
Co205 O230 1.941 . S
C206 O207 1.258 . S
C206 O208 1.263 . S
O207 Co204 1.970 . S
O207 C206 1.258 . S
O208 Co205 1.966 . S
O208 C206 1.263 . S
C209 O210 1.235 1_565 S
C209 O236 1.289 1_565 S
O210 C209 1.235 1_545 S
C211 C213 1.400 . S
C211 N214 1.351 . S
C211 C216 1.501 . S
C212 C213 1.387 . S
C212 N215 1.341 . S
C213 C211 1.400 . S
C213 C212 1.387 . S
N214 Co205 2.022 . S
N214 C211 1.351 . S
N214 N215 1.365 . S
N215 C212 1.341 . S
N215 N214 1.365 . S
N215 H235 0.862 . S
C216 C211 1.501 . S
C216 H217 0.961 . S
C216 H218 0.961 . S
C216 H219 0.960 . S
H217 C216 0.961 . S
H218 C216 0.961 . S
H219 C216 0.960 . S
C220 N221 1.342 . S
C220 C224 1.401 . S
C220 C225 1.499 . S
N221 Co204 1.989 . S
N221 C220 1.342 . S
N221 N222 1.388 . S
N222 Co205 1.993 . S
N222 N221 1.388 . S
N222 C223 1.346 . S
C223 N222 1.346 . S
C223 C224 1.396 . S
C223 C233 1.510 . S
C224 C220 1.401 . S
C224 C223 1.396 . S
C225 C220 1.499 . S
C225 H226 0.959 . S
C225 H227 0.960 . S
C225 H228 0.961 . S
H226 C225 0.959 . S
H227 C225 0.960 . S
H228 C225 0.961 . S
O229 Co204 1.967 . S
O229 C237 1.258 . S
O230 Co205 1.941 . S
O230 C237 1.266 . S
H231 C233 0.959 . S
H232 C233 0.961 . S
C233 C223 1.510 . S
C233 H231 0.959 . S
C233 H232 0.961 . S
C233 H234 0.960 . S
H234 C233 0.960 . S
H235 N215 0.862 . S
O236 Co204 1.920 . S
O236 C209 1.289 1_545 S
C237 O229 1.258 . S
C237 O230 1.266 . S
Co238 O241 1.970 . S
Co238 N255 1.989 . S
Co238 O263 1.967 . S
Co238 O270 1.920 . S
Co239 O242 1.966 . S
Co239 N248 2.022 . S
Co239 N256 1.993 . S
Co239 O264 1.941 . S
C240 O241 1.258 . S
C240 O242 1.263 . S
O241 Co238 1.970 . S
O241 C240 1.258 . S
O242 Co239 1.966 . S
O242 C240 1.263 . S
C243 O244 1.235 . S
C243 O270 1.289 . S
O244 C243 1.235 . S
C245 C247 1.400 . S
C245 N248 1.351 . S
C245 C250 1.501 . S
C246 C247 1.387 . S
C246 N249 1.341 . S
C247 C245 1.400 . S
C247 C246 1.387 . S
N248 Co239 2.022 . S
N248 C245 1.351 . S
N248 N249 1.365 . S
N249 C246 1.341 . S
N249 N248 1.365 . S
N249 H269 0.862 . S
C250 C245 1.501 . S
C250 H251 0.961 . S
C250 H252 0.961 . S
C250 H253 0.960 . S
H251 C250 0.961 . S
H252 C250 0.961 . S
H253 C250 0.960 . S
C254 N255 1.342 . S
C254 C258 1.401 . S
C254 C259 1.499 . S
N255 Co238 1.989 . S
N255 C254 1.342 . S
N255 N256 1.388 . S
N256 Co239 1.993 . S
N256 N255 1.388 . S
N256 C257 1.346 . S
C257 N256 1.346 . S
C257 C258 1.396 . S
C257 C267 1.510 . S
C258 C254 1.401 . S
C258 C257 1.396 . S
C259 C254 1.499 . S
C259 H260 0.959 . S
C259 H261 0.960 . S
C259 H262 0.961 . S
H260 C259 0.959 . S
H261 C259 0.960 . S
H262 C259 0.961 . S
O263 Co238 1.967 . S
O263 C271 1.258 . S
O264 Co239 1.941 . S
O264 C271 1.266 . S
H265 C267 0.959 . S
H266 C267 0.961 . S
C267 C257 1.510 . S
C267 H265 0.959 . S
C267 H266 0.961 . S
C267 H268 0.960 . S
H268 C267 0.960 . S
H269 N249 0.862 . S
O270 Co238 1.920 . S
O270 C243 1.289 . S
C271 O263 1.258 . S
C271 O264 1.266 . S
Co272 O275 1.970 . S
Co272 N289 1.989 . S
Co272 O297 1.967 . S
Co272 O304 1.920 . S
Co273 O276 1.966 . S
Co273 N282 2.022 . S
Co273 N290 1.993 . S
Co273 O298 1.941 . S
C274 O275 1.258 . S
C274 O276 1.263 . S
O275 Co272 1.970 . S
O275 C274 1.258 . S
O276 Co273 1.966 . S
O276 C274 1.263 . S
C277 O278 1.235 . S
C277 O304 1.289 . S
O278 C277 1.235 . S
C279 C281 1.400 . S
C279 N282 1.351 . S
C279 C284 1.501 . S
C280 C281 1.387 . S
C280 N283 1.341 . S
C281 C279 1.400 . S
C281 C280 1.387 . S
N282 Co273 2.022 . S
N282 C279 1.351 . S
N282 N283 1.365 . S
N283 C280 1.341 . S
N283 N282 1.365 . S
N283 H303 0.862 . S
C284 C279 1.501 . S
C284 H285 0.961 . S
C284 H286 0.961 . S
C284 H287 0.960 . S
H285 C284 0.961 . S
H286 C284 0.961 . S
H287 C284 0.960 . S
C288 N289 1.342 . S
C288 C292 1.401 . S
C288 C293 1.499 . S
N289 Co272 1.989 . S
N289 C288 1.342 . S
N289 N290 1.388 . S
N290 Co273 1.993 . S
N290 N289 1.388 . S
N290 C291 1.346 . S
C291 N290 1.346 . S
C291 C292 1.396 . S
C291 C301 1.510 . S
C292 C288 1.401 . S
C292 C291 1.396 . S
C293 C288 1.499 . S
C293 H294 0.959 . S
C293 H295 0.960 . S
C293 H296 0.961 . S
H294 C293 0.959 . S
H295 C293 0.960 . S
H296 C293 0.961 . S
O297 Co272 1.967 . S
O297 C305 1.258 . S
O298 Co273 1.941 . S
O298 C305 1.266 . S
H299 C301 0.959 . S
H300 C301 0.961 . S
C301 C291 1.510 . S
C301 H299 0.959 . S
C301 H300 0.961 . S
C301 H302 0.960 . S
H302 C301 0.960 . S
H303 N283 0.862 . S
O304 Co272 1.920 . S
O304 C277 1.289 . S
C305 O297 1.258 . S
C305 O298 1.266 . S
Co306 O309 1.970 . S
Co306 N323 1.989 . S
Co306 O331 1.967 . S
Co306 O338 1.920 . S
Co307 O310 1.966 . S
Co307 N316 2.022 . S
Co307 N324 1.993 . S
Co307 O332 1.941 . S
C308 O309 1.258 . S
C308 O310 1.263 . S
O309 Co306 1.970 . S
O309 C308 1.258 . S
O310 Co307 1.966 . S
O310 C308 1.263 . S
C311 O312 1.235 . S
C311 O338 1.289 . S
O312 C311 1.235 . S
C313 C315 1.400 . S
C313 N316 1.351 . S
C313 C318 1.501 . S
C314 C315 1.387 . S
C314 N317 1.341 . S
C315 C313 1.400 . S
C315 C314 1.387 . S
N316 Co307 2.022 . S
N316 C313 1.351 . S
N316 N317 1.365 . S
N317 C314 1.341 . S
N317 N316 1.365 . S
N317 H337 0.862 . S
C318 C313 1.501 . S
C318 H319 0.961 . S
C318 H320 0.961 1_565 S
C318 H321 0.960 . S
H319 C318 0.961 . S
H320 C318 0.961 1_545 S
H321 C318 0.960 . S
C322 N323 1.342 . S
C322 C326 1.401 . S
C322 C327 1.499 . S
N323 Co306 1.989 . S
N323 C322 1.342 . S
N323 N324 1.388 . S
N324 Co307 1.993 . S
N324 N323 1.388 . S
N324 C325 1.346 . S
C325 N324 1.346 . S
C325 C326 1.396 . S
C325 C335 1.510 . S
C326 C322 1.401 . S
C326 C325 1.396 . S
C327 C322 1.499 . S
C327 H328 0.959 . S
C327 H329 0.960 . S
C327 H330 0.961 . S
H328 C327 0.959 . S
H329 C327 0.960 . S
H330 C327 0.961 . S
O331 Co306 1.967 . S
O331 C339 1.258 . S
O332 Co307 1.941 . S
O332 C339 1.266 . S
H333 C335 0.959 . S
H334 C335 0.961 . S
C335 C325 1.510 . S
C335 H333 0.959 . S
C335 H334 0.961 . S
C335 H336 0.960 . S
H336 C335 0.960 . S
H337 N317 0.862 . S
O338 Co306 1.920 . S
O338 C311 1.289 . S
C339 O331 1.258 . S
C339 O332 1.266 . S
Co340 O343 1.970 . S
Co340 N357 1.989 . S
Co340 O365 1.967 . S
Co340 O372 1.920 . S
Co341 O344 1.966 . S
Co341 N350 2.022 . S
Co341 N358 1.993 . S
Co341 O366 1.941 . S
C342 O343 1.258 . S
C342 O344 1.263 . S
O343 Co340 1.970 . S
O343 C342 1.258 . S
O344 Co341 1.966 . S
O344 C342 1.263 . S
C345 O346 1.235 . S
C345 O372 1.289 . S
O346 C345 1.235 . S
C347 C349 1.400 . S
C347 N350 1.351 . S
C347 C352 1.501 . S
C348 C349 1.387 . S
C348 N351 1.341 . S
C349 C347 1.400 . S
C349 C348 1.387 . S
N350 Co341 2.022 . S
N350 C347 1.351 . S
N350 N351 1.365 . S
N351 C348 1.341 . S
N351 N350 1.365 . S
N351 H371 0.862 . S
C352 C347 1.501 . S
C352 H353 0.961 . S
C352 H354 0.961 . S
C352 H355 0.960 . S
H353 C352 0.961 . S
H354 C352 0.961 . S
H355 C352 0.960 . S
C356 N357 1.342 . S
C356 C360 1.401 . S
C356 C361 1.499 . S
N357 Co340 1.989 . S
N357 C356 1.342 . S
N357 N358 1.388 . S
N358 Co341 1.993 . S
N358 N357 1.388 . S
N358 C359 1.346 . S
C359 N358 1.346 . S
C359 C360 1.396 . S
C359 C369 1.510 . S
C360 C356 1.401 . S
C360 C359 1.396 . S
C361 C356 1.499 . S
C361 H362 0.959 . S
C361 H363 0.960 . S
C361 H364 0.961 . S
H362 C361 0.959 . S
H363 C361 0.960 . S
H364 C361 0.961 . S
O365 Co340 1.967 . S
O365 C373 1.258 . S
O366 Co341 1.941 . S
O366 C373 1.266 . S
H367 C369 0.959 . S
H368 C369 0.961 . S
C369 C359 1.510 . S
C369 H367 0.959 . S
C369 H368 0.961 . S
C369 H370 0.960 . S
H370 C369 0.960 . S
H371 N351 0.862 . S
O372 Co340 1.920 . S
O372 C345 1.289 . S
C373 O365 1.258 . S
C373 O366 1.266 . S
Co374 O377 1.970 . S
Co374 N391 1.989 . S
Co374 O399 1.967 . S
Co374 O406 1.920 . S
Co375 O378 1.966 . S
Co375 N384 2.022 . S
Co375 N392 1.993 . S
Co375 O400 1.941 . S
C376 O377 1.258 . S
C376 O378 1.263 . S
O377 Co374 1.970 . S
O377 C376 1.258 . S
O378 Co375 1.966 . S
O378 C376 1.263 . S
C379 O380 1.235 . S
C379 O406 1.289 . S
O380 C379 1.235 . S
C381 C383 1.400 . S
C381 N384 1.351 . S
C381 C386 1.501 . S
C382 C383 1.387 . S
C382 N385 1.341 . S
C383 C381 1.400 . S
C383 C382 1.387 . S
N384 Co375 2.022 . S
N384 C381 1.351 . S
N384 N385 1.365 . S
N385 C382 1.341 . S
N385 N384 1.365 . S
N385 H405 0.862 . S
C386 C381 1.501 . S
C386 H387 0.961 . S
C386 H388 0.961 1_565 S
C386 H389 0.960 . S
H387 C386 0.961 . S
H388 C386 0.961 1_545 S
H389 C386 0.960 . S
C390 N391 1.342 . S
C390 C394 1.401 . S
C390 C395 1.499 . S
N391 Co374 1.989 . S
N391 C390 1.342 . S
N391 N392 1.388 . S
N392 Co375 1.993 . S
N392 N391 1.388 . S
N392 C393 1.346 . S
C393 N392 1.346 . S
C393 C394 1.396 . S
C393 C403 1.510 . S
C394 C390 1.401 . S
C394 C393 1.396 . S
C395 C390 1.499 . S
C395 H396 0.959 . S
C395 H397 0.960 . S
C395 H398 0.961 . S
H396 C395 0.959 . S
H397 C395 0.960 . S
H398 C395 0.961 . S
O399 Co374 1.967 . S
O399 C407 1.258 . S
O400 Co375 1.941 . S
O400 C407 1.266 . S
H401 C403 0.959 . S
H402 C403 0.961 . S
C403 C393 1.510 . S
C403 H401 0.959 . S
C403 H402 0.961 . S
C403 H404 0.960 . S
H404 C403 0.960 . S
H405 N385 0.862 . S
O406 Co374 1.920 . S
O406 C379 1.289 . S
C407 O399 1.258 . S
C407 O400 1.266 . S
Co408 O411 1.970 . S
Co408 N425 1.989 . S
Co408 O433 1.967 . S
Co408 O440 1.920 . S
Co409 O412 1.966 . S
Co409 N418 2.022 . S
Co409 N426 1.993 . S
Co409 O434 1.941 . S
C410 O411 1.258 . S
C410 O412 1.263 . S
O411 Co408 1.970 . S
O411 C410 1.258 . S
O412 Co409 1.966 . S
O412 C410 1.263 . S
C413 O414 1.235 . S
C413 O440 1.289 . S
O414 C413 1.235 . S
C415 C417 1.400 . S
C415 N418 1.351 . S
C415 C420 1.501 . S
C416 C417 1.387 . S
C416 N419 1.341 . S
C417 C415 1.400 . S
C417 C416 1.387 . S
N418 Co409 2.022 . S
N418 C415 1.351 . S
N418 N419 1.365 . S
N419 C416 1.341 . S
N419 N418 1.365 . S
N419 H439 0.862 . S
C420 C415 1.501 . S
C420 H421 0.961 . S
C420 H422 0.961 . S
C420 H423 0.960 . S
H421 C420 0.961 . S
H422 C420 0.961 . S
H423 C420 0.960 . S
C424 N425 1.342 . S
C424 C428 1.401 . S
C424 C429 1.499 . S
N425 Co408 1.989 . S
N425 C424 1.342 . S
N425 N426 1.388 . S
N426 Co409 1.993 . S
N426 N425 1.388 . S
N426 C427 1.346 . S
C427 N426 1.346 . S
C427 C428 1.396 . S
C427 C437 1.510 . S
C428 C424 1.401 . S
C428 C427 1.396 . S
C429 C424 1.499 . S
C429 H430 0.959 . S
C429 H431 0.960 . S
C429 H432 0.961 . S
H430 C429 0.959 . S
H431 C429 0.960 . S
H432 C429 0.961 . S
O433 Co408 1.967 . S
O433 C441 1.258 . S
O434 Co409 1.941 . S
O434 C441 1.266 . S
H435 C437 0.959 . S
H436 C437 0.961 . S
C437 C427 1.510 . S
C437 H435 0.959 . S
C437 H436 0.961 . S
C437 H438 0.960 . S
H438 C437 0.960 . S
H439 N419 0.862 . S
O440 Co408 1.920 . S
O440 C413 1.289 . S
C441 O433 1.258 . S
C441 O434 1.266 . S
Co442 O445 1.970 . S
Co442 N459 1.989 . S
Co442 O467 1.967 1_455 S
Co442 O474 1.920 . S
Co443 O446 1.966 1_655 S
Co443 N452 2.022 . S
Co443 N460 1.993 1_655 S
Co443 O468 1.941 . S
C444 O445 1.258 . S
C444 O446 1.263 . S
O445 Co442 1.970 . S
O445 C444 1.258 . S
O446 Co443 1.966 1_455 S
O446 C444 1.263 . S
C447 O448 1.235 . S
C447 O474 1.289 . S
O448 C447 1.235 . S
C449 C451 1.400 . S
C449 N452 1.351 1_455 S
C449 C454 1.501 . S
C450 C451 1.387 1_655 S
C450 N453 1.341 . S
C451 C449 1.400 . S
C451 C450 1.387 1_455 S
N452 Co443 2.022 . S
N452 C449 1.351 1_655 S
N452 N453 1.365 . S
N453 C450 1.341 . S
N453 N452 1.365 . S
N453 H473 0.862 . S
C454 C449 1.501 . S
C454 H455 0.961 . S
C454 H456 0.961 . S
C454 H457 0.960 . S
H455 C454 0.961 . S
H456 C454 0.961 . S
H457 C454 0.960 . S
C458 N459 1.342 1_655 S
C458 C462 1.401 . S
C458 C463 1.499 . S
N459 Co442 1.989 . S
N459 C458 1.342 1_455 S
N459 N460 1.388 . S
N460 Co443 1.993 1_455 S
N460 N459 1.388 . S
N460 C461 1.346 1_455 S
C461 N460 1.346 1_655 S
C461 C462 1.396 . S
C461 C471 1.510 . S
C462 C458 1.401 . S
C462 C461 1.396 . S
C463 C458 1.499 . S
C463 H464 0.959 . S
C463 H465 0.960 1_655 S
C463 H466 0.961 . S
H464 C463 0.959 . S
H465 C463 0.960 1_455 S
H466 C463 0.961 . S
O467 Co442 1.967 1_655 S
O467 C475 1.258 . S
O468 Co443 1.941 . S
O468 C475 1.266 . S
H469 C471 0.959 . S
H470 C471 0.961 1_455 S
C471 C461 1.510 . S
C471 H469 0.959 . S
C471 H470 0.961 1_655 S
C471 H472 0.960 1_655 S
H472 C471 0.960 1_455 S
H473 N453 0.862 . S
O474 Co442 1.920 . S
O474 C447 1.289 . S
C475 O467 1.258 . S
C475 O468 1.266 . S
Co476 O479 1.970 . S
Co476 N493 1.989 . S
Co476 O501 1.967 . S
Co476 O508 1.920 . S
Co477 O480 1.966 . S
Co477 N486 2.022 . S
Co477 N494 1.993 . S
Co477 O502 1.941 . S
C478 O479 1.258 . S
C478 O480 1.263 . S
O479 Co476 1.970 . S
O479 C478 1.258 . S
O480 Co477 1.966 . S
O480 C478 1.263 . S
C481 O482 1.235 . S
C481 O508 1.289 . S
O482 C481 1.235 . S
C483 C485 1.400 . S
C483 N486 1.351 . S
C483 C488 1.501 . S
C484 C485 1.387 . S
C484 N487 1.341 . S
C485 C483 1.400 . S
C485 C484 1.387 . S
N486 Co477 2.022 . S
N486 C483 1.351 . S
N486 N487 1.365 . S
N487 C484 1.341 . S
N487 N486 1.365 . S
N487 H507 0.862 . S
C488 C483 1.501 . S
C488 H489 0.961 . S
C488 H490 0.961 . S
C488 H491 0.960 . S
H489 C488 0.961 . S
H490 C488 0.961 . S
H491 C488 0.960 . S
C492 N493 1.342 . S
C492 C496 1.401 . S
C492 C497 1.499 . S
N493 Co476 1.989 . S
N493 C492 1.342 . S
N493 N494 1.388 . S
N494 Co477 1.993 . S
N494 N493 1.388 . S
N494 C495 1.346 . S
C495 N494 1.346 . S
C495 C496 1.396 . S
C495 C505 1.510 . S
C496 C492 1.401 . S
C496 C495 1.396 . S
C497 C492 1.499 . S
C497 H498 0.959 . S
C497 H499 0.960 . S
C497 H500 0.961 . S
H498 C497 0.959 . S
H499 C497 0.960 . S
H500 C497 0.961 . S
O501 Co476 1.967 . S
O501 C509 1.258 . S
O502 Co477 1.941 . S
O502 C509 1.266 . S
H503 C505 0.959 . S
H504 C505 0.961 . S
C505 C495 1.510 . S
C505 H503 0.959 . S
C505 H504 0.961 . S
C505 H506 0.960 . S
H506 C505 0.960 . S
H507 N487 0.862 . S
O508 Co476 1.920 . S
O508 C481 1.289 . S
C509 O501 1.258 . S
C509 O502 1.266 . S
Co510 O513 1.970 . S
Co510 N527 1.989 . S
Co510 O535 1.967 1_455 S
Co510 O542 1.920 . S
Co511 O514 1.966 1_655 S
Co511 N520 2.022 . S
Co511 N528 1.993 1_655 S
Co511 O536 1.941 . S
C512 O513 1.258 . S
C512 O514 1.263 . S
O513 Co510 1.970 . S
O513 C512 1.258 . S
O514 Co511 1.966 1_455 S
O514 C512 1.263 . S
C515 O516 1.235 . S
C515 O542 1.289 . S
O516 C515 1.235 . S
C517 C519 1.400 . S
C517 N520 1.351 1_455 S
C517 C522 1.501 . S
C518 C519 1.387 1_655 S
C518 N521 1.341 . S
C519 C517 1.400 . S
C519 C518 1.387 1_455 S
N520 Co511 2.022 . S
N520 C517 1.351 1_655 S
N520 N521 1.365 . S
N521 C518 1.341 . S
N521 N520 1.365 . S
N521 H541 0.862 . S
C522 C517 1.501 . S
C522 H523 0.961 . S
C522 H524 0.961 . S
C522 H525 0.960 . S
H523 C522 0.961 . S
H524 C522 0.961 . S
H525 C522 0.960 . S
C526 N527 1.342 1_655 S
C526 C530 1.401 . S
C526 C531 1.499 . S
N527 Co510 1.989 . S
N527 C526 1.342 1_455 S
N527 N528 1.388 . S
N528 Co511 1.993 1_455 S
N528 N527 1.388 . S
N528 C529 1.346 1_455 S
C529 N528 1.346 1_655 S
C529 C530 1.396 . S
C529 C539 1.510 . S
C530 C526 1.401 . S
C530 C529 1.396 . S
C531 C526 1.499 . S
C531 H532 0.959 . S
C531 H533 0.960 1_655 S
C531 H534 0.961 . S
H532 C531 0.959 . S
H533 C531 0.960 1_455 S
H534 C531 0.961 . S
O535 Co510 1.967 1_655 S
O535 C543 1.258 . S
O536 Co511 1.941 . S
O536 C543 1.266 . S
H537 C539 0.958 . S
H538 C539 0.962 1_455 S
C539 C529 1.510 . S
C539 H537 0.958 . S
C539 H538 0.962 1_655 S
C539 H540 0.960 1_655 S
H540 C539 0.960 1_455 S
H541 N521 0.862 . S
O542 Co510 1.920 . S
O542 C515 1.289 . S
C543 O535 1.258 . S
C543 O536 1.266 . S
C544 C545 1.387 . S
C544 H548 0.950 . S
C544 C553 1.383 1_455 S
C545 C544 1.387 . S
C545 C547 1.387 . S
H546 C553 0.953 . S
C547 C545 1.387 . S
C547 C549 1.383 1_455 S
C547 H551 0.950 . S
H548 C544 0.950 . S
C549 C547 1.383 1_655 S
C549 C550 1.391 . S
C549 H552 0.953 . S
C550 C549 1.391 . S
C550 C553 1.391 . S
H551 C547 0.950 . S
H552 C549 0.953 . S
C553 C544 1.383 1_655 S
C553 H546 0.953 . S
C553 C550 1.391 . S
C554 C555 1.387 . S
C554 H558 0.950 . S
C554 C563 1.390 1_455 S
C555 C554 1.387 . S
C555 C557 1.387 . S
H556 C563 0.950 . S
C557 C555 1.387 . S
C557 C559 1.390 1_455 S
C557 H561 0.950 . S
H558 C554 0.950 . S
C559 C557 1.390 1_655 S
C559 C560 1.387 . S
C559 H562 0.950 . S
C560 C559 1.387 . S
C560 C563 1.387 . S
H561 C557 0.950 . S
H562 C559 0.950 . S
C563 C554 1.390 1_655 S
C563 H556 0.950 . S
C563 C560 1.387 . S
C564 C565 1.387 . S
C564 H568 0.950 . S
C564 C573 1.390 . S
C565 C564 1.387 . S
C565 C567 1.387 . S
H566 C573 0.950 . S
C567 C565 1.387 . S
C567 C569 1.390 . S
C567 H571 0.950 . S
H568 C564 0.950 . S
C569 C567 1.390 . S
C569 C570 1.387 . S
C569 H572 0.950 . S
C570 C569 1.387 . S
C570 C573 1.387 . S
H571 C567 0.950 . S
H572 C569 0.950 . S
C573 C564 1.390 . S
C573 H566 0.950 . S
C573 C570 1.387 . S
C574 C575 1.387 . S
C574 H578 0.950 . S
C574 C583 1.390 . S
C575 C574 1.387 . S
C575 C577 1.387 . S
H576 C583 0.950 . S
C577 C575 1.387 . S
C577 C579 1.390 . S
C577 H581 0.950 . S
H578 C574 0.950 . S
C579 C577 1.390 . S
C579 C580 1.387 . S
C579 H582 0.950 . S
C580 C579 1.387 . S
C580 C583 1.387 . S
H581 C577 0.950 . S
H582 C579 0.950 . S
C583 C574 1.390 . S
C583 H576 0.950 . S
C583 C580 1.387 . S
C584 C585 1.387 . S
C584 H588 0.950 . S
C584 C593 1.390 1_455 S
C585 C584 1.387 . S
C585 C587 1.387 . S
H586 C593 0.950 . S
C587 C585 1.387 . S
C587 C589 1.390 1_455 S
C587 H591 0.950 . S
H588 C584 0.950 . S
C589 C587 1.390 1_655 S
C589 C590 1.387 . S
C589 H592 0.950 . S
C590 C589 1.387 . S
C590 C593 1.387 . S
H591 C587 0.950 . S
H592 C589 0.950 . S
C593 C584 1.390 1_655 S
C593 H586 0.950 . S
C593 C590 1.387 . S
C594 C595 1.387 . S
C594 H598 0.950 . S
C594 C603 1.390 . S
C595 C594 1.387 . S
C595 C597 1.387 . S
H596 C603 0.950 . S
C597 C595 1.387 . S
C597 C599 1.390 . S
C597 H601 0.950 . S
H598 C594 0.950 . S
C599 C597 1.390 . S
C599 C600 1.387 . S
C599 H602 0.950 . S
C600 C599 1.387 . S
C600 C603 1.387 . S
H601 C597 0.950 . S
H602 C599 0.950 . S
C603 C594 1.390 . S
C603 H596 0.950 . S
C603 C600 1.387 . S
C604 C605 1.387 . S
C604 H608 0.950 . S
C604 C613 1.390 . S
C605 C604 1.387 . S
C605 C607 1.387 . S
H606 C613 0.950 . S
C607 C605 1.387 . S
C607 C609 1.390 . S
C607 H611 0.950 . S
H608 C604 0.950 . S
C609 C607 1.390 . S
C609 C610 1.387 . S
C609 H612 0.950 . S
C610 C609 1.387 . S
C610 C613 1.387 . S
H611 C607 0.950 . S
H612 C609 0.950 . S
C613 C604 1.390 . S
C613 H606 0.950 . S
C613 C610 1.387 . S
C614 C615 1.387 . S
C614 H618 0.950 . S
C614 C623 1.390 1_655 S
C615 C614 1.387 . S
C615 C617 1.387 . S
H616 C623 0.950 . S
C617 C615 1.387 . S
C617 C619 1.390 1_655 S
C617 H621 0.950 . S
H618 C614 0.950 . S
C619 C617 1.390 1_455 S
C619 C620 1.387 . S
C619 H622 0.950 . S
C620 C619 1.387 . S
C620 C623 1.387 . S
H621 C617 0.950 . S
H622 C619 0.950 . S
C623 C614 1.390 1_455 S
C623 H616 0.950 . S
C623 C620 1.387 . S
C624 C625 1.387 . S
C624 H628 0.950 . S
C624 C633 1.390 1_554 S
C625 C624 1.387 . S
C625 C627 1.387 1_455 S
H626 C633 0.950 . S
C627 C625 1.387 1_655 S
C627 C629 1.390 1_554 S
C627 H631 0.950 . S
H628 C624 0.950 . S
C629 C627 1.390 1_556 S
C629 C630 1.387 1_655 S
C629 H632 0.950 . S
C630 C629 1.387 1_455 S
C630 C633 1.387 . S
H631 C627 0.950 . S
H632 C629 0.950 . S
C633 C624 1.390 1_556 S
C633 H626 0.950 . S
C633 C630 1.387 . S
C634 C635 1.387 . S
C634 H638 0.950 1_565 S
C634 C643 1.390 . S
C635 C634 1.387 . S
C635 C637 1.387 . S
H636 C643 0.950 1_545 S
C637 C635 1.387 . S
C637 C639 1.390 . S
C637 H641 0.950 . S
H638 C634 0.950 1_545 S
C639 C637 1.390 . S
C639 C640 1.387 . S
C639 H642 0.950 . S
C640 C639 1.387 . S
C640 C643 1.387 . S
H641 C637 0.950 . S
H642 C639 0.950 . S
C643 C634 1.390 . S
C643 H636 0.950 1_565 S
C643 C640 1.387 . S
C644 C645 1.387 . S
C644 H648 0.950 . S
C644 C653 1.390 . S
C645 C644 1.387 . S
C645 C647 1.387 . S
H646 C653 0.950 . S
C647 C645 1.387 . S
C647 C649 1.390 . S
C647 H651 0.950 . S
H648 C644 0.950 . S
C649 C647 1.390 . S
C649 C650 1.387 . S
C649 H652 0.950 . S
C650 C649 1.387 . S
C650 C653 1.387 . S
H651 C647 0.950 . S
H652 C649 0.950 . S
C653 C644 1.390 . S
C653 H646 0.950 . S
C653 C650 1.387 . S
C654 C655 1.387 . S
C654 H658 0.950 . S
C654 C663 1.390 . S
C655 C654 1.387 . S
C655 C657 1.387 . S
H656 C663 0.950 . S
C657 C655 1.387 . S
C657 C659 1.390 . S
C657 H661 0.950 . S
H658 C654 0.950 . S
C659 C657 1.390 . S
C659 C660 1.387 . S
C659 H662 0.950 . S
C660 C659 1.387 . S
C660 C663 1.387 . S
H661 C657 0.950 . S
H662 C659 0.950 . S
C663 C654 1.390 . S
C663 H656 0.950 . S
C663 C660 1.387 . S
C664 C665 1.387 . S
C664 H668 0.950 . S
C664 C673 1.390 . S
C665 C664 1.387 . S
C665 C667 1.387 . S
H666 C673 0.950 . S
C667 C665 1.387 . S
C667 C669 1.390 . S
C667 H671 0.950 . S
H668 C664 0.950 . S
C669 C667 1.390 . S
C669 C670 1.387 . S
C669 H672 0.950 . S
C670 C669 1.387 . S
C670 C673 1.387 . S
H671 C667 0.950 . S
H672 C669 0.950 . S
C673 C664 1.390 . S
C673 H666 0.950 . S
C673 C670 1.387 . S
C674 C675 1.387 . S
C674 H678 0.950 . S
C674 C683 1.390 . S
C675 C674 1.387 . S
C675 C677 1.387 . S
H676 C683 0.950 . S
C677 C675 1.387 . S
C677 C679 1.390 . S
C677 H681 0.950 . S
H678 C674 0.950 . S
C679 C677 1.390 . S
C679 C680 1.387 . S
C679 H682 0.950 . S
C680 C679 1.387 . S
C680 C683 1.387 . S
H681 C677 0.950 . S
H682 C679 0.950 . S
C683 C674 1.390 . S
C683 H676 0.950 . S
C683 C680 1.387 . S
C684 C685 1.387 . S
C684 H688 0.950 . S
C684 C693 1.390 . S
C685 C684 1.387 . S
C685 C687 1.387 . S
H686 C693 0.950 . S
C687 C685 1.387 . S
C687 C689 1.390 . S
C687 H691 0.950 . S
H688 C684 0.950 . S
C689 C687 1.390 . S
C689 C690 1.387 . S
C689 H692 0.950 . S
C690 C689 1.387 . S
C690 C693 1.387 . S
H691 C687 0.950 . S
H692 C689 0.950 . S
C693 C684 1.390 . S
C693 H686 0.950 . S
C693 C690 1.387 . S
C694 C695 1.387 1_455 S
C694 H698 0.950 . S
C694 C703 1.390 1_556 S
C695 C694 1.387 1_655 S
C695 C697 1.387 . S
H696 C703 0.950 . S
C697 C695 1.387 . S
C697 C699 1.390 1_556 S
C697 H701 0.950 . S
H698 C694 0.950 . S
C699 C697 1.390 1_554 S
C699 C700 1.387 . S
C699 H702 0.950 . S
C700 C699 1.387 . S
C700 C703 1.387 1_655 S
H701 C697 0.950 . S
H702 C699 0.950 . S
C703 C694 1.390 1_554 S
C703 H696 0.950 . S
C703 C700 1.387 1_455 S
C704 C705 1.387 . S
C704 H708 0.950 1_545 S
C704 C713 1.390 . S
C705 C704 1.387 . S
C705 C707 1.387 . S
H706 C713 0.950 . S
C707 C705 1.387 . S
C707 C709 1.390 . S
C707 H711 0.950 . S
H708 C704 0.950 1_565 S
C709 C707 1.390 . S
C709 C710 1.387 . S
C709 H712 0.950 . S
C710 C709 1.387 . S
C710 C713 1.387 . S
H711 C707 0.950 . S
H712 C709 0.950 . S
C713 C704 1.390 . S
C713 H706 0.950 . S
C713 C710 1.387 . S
C714 C715 1.387 . S
C714 H718 0.950 . S
C714 C723 1.390 . S
C715 C714 1.387 . S
C715 C717 1.387 . S
H716 C723 0.950 . S
C717 C715 1.387 . S
C717 C719 1.390 . S
C717 H721 0.950 1_545 S
H718 C714 0.950 . S
C719 C717 1.390 . S
C719 C720 1.387 . S
C719 H722 0.950 . S
C720 C719 1.387 . S
C720 C723 1.387 . S
H721 C717 0.950 1_565 S
H722 C719 0.950 . S
C723 C714 1.390 . S
C723 H716 0.950 . S
C723 C720 1.387 . S
C724 C725 1.387 . S
C724 H728 0.950 . S
C724 C733 1.390 . S
C725 C724 1.387 . S
C725 C727 1.387 . S
H726 C733 0.950 . S
C727 C725 1.387 . S
C727 C729 1.390 . S
C727 H731 0.950 . S
H728 C724 0.950 . S
C729 C727 1.390 . S
C729 C730 1.387 . S
C729 H732 0.950 . S
C730 C729 1.387 . S
C730 C733 1.387 . S
H731 C727 0.950 . S
H732 C729 0.950 . S
C733 C724 1.390 . S
C733 H726 0.950 . S
C733 C730 1.387 . S
C734 C735 1.387 . S
C734 H738 0.950 . S
C734 C743 1.390 . S
C735 C734 1.387 . S
C735 C737 1.387 . S
H736 C743 0.950 . S
C737 C735 1.387 . S
C737 C739 1.390 . S
C737 H741 0.950 . S
H738 C734 0.950 . S
C739 C737 1.390 . S
C739 C740 1.387 . S
C739 H742 0.950 . S
C740 C739 1.387 . S
C740 C743 1.387 . S
H741 C737 0.950 . S
H742 C739 0.950 . S
C743 C734 1.390 . S
C743 H736 0.950 . S
C743 C740 1.387 . S
C744 C745 1.387 . S
C744 H748 0.950 . S
C744 C753 1.390 . S
C745 C744 1.387 . S
C745 C747 1.387 . S
H746 C753 0.950 . S
C747 C745 1.387 . S
C747 C749 1.390 . S
C747 H751 0.950 . S
H748 C744 0.950 . S
C749 C747 1.390 . S
C749 C750 1.387 . S
C749 H752 0.950 . S
C750 C749 1.387 . S
C750 C753 1.387 . S
H751 C747 0.950 . S
H752 C749 0.950 . S
C753 C744 1.390 . S
C753 H746 0.950 . S
C753 C750 1.387 . S
C754 C755 1.387 . S
C754 H758 0.950 . S
C754 C763 1.390 . S
C755 C754 1.387 . S
C755 C757 1.387 . S
H756 C763 0.950 . S
C757 C755 1.387 . S
C757 C759 1.390 . S
C757 H761 0.950 . S
H758 C754 0.950 . S
C759 C757 1.390 . S
C759 C760 1.387 . S
C759 H762 0.950 . S
C760 C759 1.387 . S
C760 C763 1.387 . S
H761 C757 0.950 . S
H762 C759 0.950 . S
C763 C754 1.390 . S
C763 H756 0.950 . S
C763 C760 1.387 . S
C764 C765 1.387 . S
C764 H768 0.950 . S
C764 C773 1.390 . S
C765 C764 1.387 . S
C765 C767 1.387 . S
H766 C773 0.950 . S
C767 C765 1.387 . S
C767 C769 1.390 . S
C767 H771 0.950 1_545 S
H768 C764 0.950 . S
C769 C767 1.390 . S
C769 C770 1.387 . S
C769 H772 0.950 . S
C770 C769 1.387 . S
C770 C773 1.387 . S
H771 C767 0.950 1_565 S
H772 C769 0.950 . S
C773 C764 1.390 . S
C773 H766 0.950 . S
C773 C770 1.387 . S
C774 C775 1.387 . S
C774 H778 0.950 . S
C774 C783 1.390 . S
C775 C774 1.387 . S
C775 C777 1.387 . S
H776 C783 0.950 . S
C777 C775 1.387 . S
C777 C779 1.390 . S
C777 H781 0.950 . S
H778 C774 0.950 . S
C779 C777 1.390 . S
C779 C780 1.387 . S
C779 H782 0.950 . S
C780 C779 1.387 . S
C780 C783 1.387 . S
H781 C777 0.950 . S
H782 C779 0.950 . S
C783 C774 1.390 . S
C783 H776 0.950 . S
C783 C780 1.387 . S
C784 C785 1.387 . S
C784 H788 0.950 . S
C784 C793 1.390 . S
C785 C784 1.387 . S
C785 C787 1.387 . S
H786 C793 0.950 . S
C787 C785 1.387 . S
C787 C789 1.390 . S
C787 H791 0.950 . S
H788 C784 0.950 . S
C789 C787 1.390 . S
C789 C790 1.387 . S
C789 H792 0.950 . S
C790 C789 1.387 . S
C790 C793 1.387 . S
H791 C787 0.950 . S
H792 C789 0.950 . S
C793 C784 1.390 . S
C793 H786 0.950 . S
C793 C790 1.387 . S
C794 C795 1.387 . S
C794 H798 0.950 . S
C794 C803 1.390 . S
C795 C794 1.387 . S
C795 C797 1.387 . S
H796 C803 0.950 . S
C797 C795 1.387 . S
C797 C799 1.390 . S
C797 H801 0.950 . S
H798 C794 0.950 . S
C799 C797 1.390 . S
C799 C800 1.387 . S
C799 H802 0.950 . S
C800 C799 1.387 . S
C800 C803 1.387 . S
H801 C797 0.950 . S
H802 C799 0.950 . S
C803 C794 1.390 . S
C803 H796 0.950 . S
C803 C800 1.387 . S
C804 C805 1.387 . S
C804 H808 0.950 . S
C804 C813 1.390 . S
C805 C804 1.387 . S
C805 C807 1.387 . S
H806 C813 0.950 . S
C807 C805 1.387 . S
C807 C809 1.390 . S
C807 H811 0.950 . S
H808 C804 0.950 . S
C809 C807 1.390 . S
C809 C810 1.387 . S
C809 H812 0.950 . S
C810 C809 1.387 . S
C810 C813 1.387 . S
H811 C807 0.950 . S
H812 C809 0.950 . S
C813 C804 1.390 . S
C813 H806 0.950 . S
C813 C810 1.387 . S
C814 C815 1.387 . S
C814 H818 0.950 . S
C814 C823 1.390 . S
C815 C814 1.387 . S
C815 C817 1.387 . S
H816 C823 0.950 . S
C817 C815 1.387 . S
C817 C819 1.390 . S
C817 H821 0.950 . S
H818 C814 0.950 . S
C819 C817 1.390 . S
C819 C820 1.387 . S
C819 H822 0.950 . S
C820 C819 1.387 . S
C820 C823 1.387 . S
H821 C817 0.950 . S
H822 C819 0.950 . S
C823 C814 1.390 . S
C823 H816 0.950 . S
C823 C820 1.387 . S
C824 C825 1.387 . S
C824 H828 0.950 . S
C824 C833 1.390 . S
C825 C824 1.387 . S
C825 C827 1.387 . S
H826 C833 0.950 . S
C827 C825 1.387 . S
C827 C829 1.390 . S
C827 H831 0.950 . S
H828 C824 0.950 . S
C829 C827 1.390 . S
C829 C830 1.387 . S
C829 H832 0.950 . S
C830 C829 1.387 . S
C830 C833 1.387 . S
H831 C827 0.950 . S
H832 C829 0.950 . S
C833 C824 1.390 . S
C833 H826 0.950 . S
C833 C830 1.387 . S
C834 C835 1.387 . S
C834 H838 0.950 . S
C834 C843 1.390 . S
C835 C834 1.387 . S
C835 C837 1.387 . S
H836 C843 0.950 . S
C837 C835 1.387 . S
C837 C839 1.390 . S
C837 H841 0.950 . S
H838 C834 0.950 . S
C839 C837 1.390 . S
C839 C840 1.387 . S
C839 H842 0.950 . S
C840 C839 1.387 . S
C840 C843 1.387 . S
H841 C837 0.950 . S
H842 C839 0.950 . S
C843 C834 1.390 . S
C843 H836 0.950 . S
C843 C840 1.387 . S
C844 C845 1.387 . S
C844 H848 0.950 . S
C844 C853 1.390 . S
C845 C844 1.387 . S
C845 C847 1.387 . S
H846 C853 0.950 . S
C847 C845 1.387 . S
C847 C849 1.390 . S
C847 H851 0.950 . S
H848 C844 0.950 . S
C849 C847 1.390 . S
C849 C850 1.387 . S
C849 H852 0.950 . S
C850 C849 1.387 . S
C850 C853 1.387 . S
H851 C847 0.950 . S
H852 C849 0.950 . S
C853 C844 1.390 . S
C853 H846 0.950 . S
C853 C850 1.387 . S
C854 C855 1.387 . S
C854 H858 0.950 . S
C854 C863 1.390 . S
C855 C854 1.387 . S
C855 C857 1.387 . S
H856 C863 0.950 . S
C857 C855 1.387 . S
C857 C859 1.390 . S
C857 H861 0.950 . S
H858 C854 0.950 . S
C859 C857 1.390 . S
C859 C860 1.387 . S
C859 H862 0.950 . S
C860 C859 1.387 . S
C860 C863 1.387 . S
H861 C857 0.950 . S
H862 C859 0.950 . S
C863 C854 1.390 . S
C863 H856 0.950 . S
C863 C860 1.387 . S
C864 C865 1.387 . S
C864 H868 0.950 . S
C864 C873 1.390 1_655 S
C865 C864 1.387 . S
C865 C867 1.387 . S
H866 C873 0.950 . S
C867 C865 1.387 . S
C867 C869 1.390 1_655 S
C867 H871 0.950 . S
H868 C864 0.950 . S
C869 C867 1.390 1_455 S
C869 C870 1.387 . S
C869 H872 0.950 . S
C870 C869 1.387 . S
C870 C873 1.387 . S
H871 C867 0.950 . S
H872 C869 0.950 . S
C873 C864 1.390 1_455 S
C873 H866 0.950 . S
C873 C870 1.387 . S
C874 C875 1.387 . S
C874 H878 0.950 . S
C874 C883 1.390 . S
C875 C874 1.387 . S
C875 C877 1.387 . S
H876 C883 0.950 . S
C877 C875 1.387 . S
C877 C879 1.390 . S
C877 H881 0.950 . S
H878 C874 0.950 . S
C879 C877 1.390 . S
C879 C880 1.387 . S
C879 H882 0.950 . S
C880 C879 1.387 . S
C880 C883 1.387 . S
H881 C877 0.950 . S
H882 C879 0.950 . S
C883 C874 1.390 . S
C883 H876 0.950 . S
C883 C880 1.387 . S
C884 C885 1.387 . S
C884 H888 0.950 . S
C884 C893 1.390 . S
C885 C884 1.387 . S
C885 C887 1.387 . S
H886 C893 0.950 . S
C887 C885 1.387 . S
C887 C889 1.390 . S
C887 H891 0.950 . S
H888 C884 0.950 . S
C889 C887 1.390 . S
C889 C890 1.387 . S
C889 H892 0.950 . S
C890 C889 1.387 . S
C890 C893 1.387 . S
H891 C887 0.950 . S
H892 C889 0.950 . S
C893 C884 1.390 . S
C893 H886 0.950 . S
C893 C890 1.387 . S
C894 C895 1.387 . S
C894 H898 0.950 . S
C894 C903 1.390 1_455 S
C895 C894 1.387 . S
C895 C897 1.387 . S
H896 C903 0.950 . S
C897 C895 1.387 . S
C897 C899 1.390 1_455 S
C897 H901 0.950 . S
H898 C894 0.950 . S
C899 C897 1.390 1_655 S
C899 C900 1.387 . S
C899 H902 0.950 . S
C900 C899 1.387 . S
C900 C903 1.387 . S
H901 C897 0.950 . S
H902 C899 0.950 . S
C903 C894 1.390 1_655 S
C903 H896 0.950 . S
C903 C900 1.387 . S
C904 C905 1.387 . S
C904 H908 0.950 . S
C904 C913 1.390 1_655 S
C905 C904 1.387 . S
C905 C907 1.387 . S
H906 C913 0.950 . S
C907 C905 1.387 . S
C907 C909 1.390 1_655 S
C907 H911 0.950 . S
H908 C904 0.950 . S
C909 C907 1.390 1_455 S
C909 C910 1.387 . S
C909 H912 0.950 . S
C910 C909 1.387 . S
C910 C913 1.387 . S
H911 C907 0.950 . S
H912 C909 0.950 . S
C913 C904 1.390 1_455 S
C913 H906 0.950 . S
C913 C910 1.387 . S
C914 C915 1.387 . S
C914 H918 0.950 . S
C914 C923 1.390 1_455 S
C915 C914 1.387 . S
C915 C917 1.387 . S
H916 C923 0.950 . S
C917 C915 1.387 . S
C917 C919 1.390 1_455 S
C917 H921 0.950 . S
H918 C914 0.950 . S
C919 C917 1.390 1_655 S
C919 C920 1.387 . S
C919 H922 0.950 . S
C920 C919 1.387 . S
C920 C923 1.387 . S
H921 C917 0.950 . S
H922 C919 0.950 . S
C923 C914 1.390 1_655 S
C923 H916 0.950 . S
C923 C920 1.387 . S
C924 C925 1.387 . S
C924 H928 0.950 . S
C924 C933 1.390 . S
C925 C924 1.387 . S
C925 C927 1.387 . S
H926 C933 0.950 . S
C927 C925 1.387 . S
C927 C929 1.390 . S
C927 H931 0.950 . S
H928 C924 0.950 . S
C929 C927 1.390 . S
C929 C930 1.387 . S
C929 H932 0.950 . S
C930 C929 1.387 . S
C930 C933 1.387 . S
H931 C927 0.950 . S
H932 C929 0.950 . S
C933 C924 1.390 . S
C933 H926 0.950 . S
C933 C930 1.387 . S
C934 C935 1.387 . S
C934 H938 0.950 . S
C934 C943 1.390 . S
C935 C934 1.387 . S
C935 C937 1.387 . S
H936 C943 0.950 . S
C937 C935 1.387 . S
C937 C939 1.390 . S
C937 H941 0.950 . S
H938 C934 0.950 . S
C939 C937 1.390 . S
C939 C940 1.387 . S
C939 H942 0.950 . S
C940 C939 1.387 . S
C940 C943 1.387 . S
H941 C937 0.950 . S
H942 C939 0.950 . S
C943 C934 1.390 . S
C943 H936 0.950 . S
C943 C940 1.387 . S
C545 C451 1.217 . S
C550 C9 1.217 . S
C555 C43 1.223 . S
C560 C383 1.223 . S
C565 C77 1.216 1_565 S
C570 C417 1.216 . S
C575 C111 1.217 . S
C580 C349 1.217 . S
C585 C519 1.223 . S
C590 C145 1.223 1_565 S
C595 C179 1.223 . S
C600 C315 1.223 . S
C605 C213 1.217 . S
C610 C485 1.217 . S
C615 C281 1.216 . S
C620 C247 1.217 . S
C625 C20 1.621 . S
C630 C156 1.621 . S
C635 C54 1.621 . S
C640 C190 1.621 . S
C645 C88 1.620 . S
C650 C224 1.620 . S
C655 C258 1.619 . S
C660 C122 1.620 . S
C665 C360 1.621 . S
C670 C292 1.621 . S
C675 C326 1.620 . S
C680 C394 1.620 . S
C685 C496 1.621 . S
C690 C428 1.621 . S
C695 C530 1.620 . S
C700 C462 1.620 . S
C705 C203 1.324 1_545 S
C710 C33 1.322 . S
C715 C67 1.321 1_545 S
C720 C237 1.323 . S
C725 C101 1.323 . S
C730 C271 1.321 . S
C735 C169 1.321 . S
C740 C135 1.323 . S
C745 C138 1.626 . S
C750 C342 1.624 . S
C755 C70 1.625 . S
C760 C274 1.627 . S
C765 C376 1.627 1_545 S
C770 C206 1.625 . S
C775 C308 1.625 1_545 S
C780 C2 1.623 . S
C785 C305 1.321 . S
C790 C441 1.323 . S
C795 C543 1.321 . S
C800 C373 1.324 . S
C805 C475 1.321 . S
C810 C339 1.323 . S
C815 C407 1.321 . S
C820 C509 1.323 . S
C825 C478 1.624 . S
C830 C36 1.623 . S
C835 C172 1.627 . S
C840 C444 1.626 . S
C845 C512 1.627 . S
C850 C104 1.627 . S
C855 C240 1.624 . S
C860 C410 1.626 . S
C865 C5 0.708 . S
C870 C447 0.708 . S
C875 C39 0.709 . S
C880 C379 0.709 . S
C885 C73 0.703 . S
C890 C413 0.703 . S
C895 C107 0.708 . S
C900 C345 0.708 . S
C905 C141 0.709 . S
C910 C515 0.709 . S
C915 C175 0.708 . S
C920 C311 0.708 . S
C925 C481 0.704 . S
C930 C209 0.704 . S
C935 C277 0.708 . S
C940 C243 0.708 . S
