# Generated by pormake.
# Topology umn, (4)-cn, num edge types: 1
# Building blocks:
#     Node 0, Type 0, BuildingBlock: GALJAG_clean_sbu_0, # of connection points: 4
#     Node 1, Type 0, BuildingBlock: GALJAG_clean_sbu_0, # of connection points: 4
#     Node 2, Type 0, BuildingBlock: GALJAG_clean_sbu_0, # of connection points: 4
#     Node 3, Type 0, BuildingBlock: GALJAG_clean_sbu_0, # of connection points: 4
#     Node 4, Type 0, BuildingBlock: GALJAG_clean_sbu_0, # of connection points: 4
#     Node 5, Type 0, BuildingBlock: GALJAG_clean_sbu_0, # of connection points: 4
#     Node 6, Type 0, BuildingBlock: GALJAG_clean_sbu_0, # of connection points: 4
#     Node 7, Type 0, BuildingBlock: GALJAG_clean_sbu_0, # of connection points: 4
#     Node 8, Type 0, BuildingBlock: GALJAG_clean_sbu_0, # of connection points: 4
#     Node 9, Type 0, BuildingBlock: GALJAG_clean_sbu_0, # of connection points: 4
#     Node 10, Type 0, BuildingBlock: GALJAG_clean_sbu_0, # of connection points: 4
#     Node 11, Type 0, BuildingBlock: GALJAG_clean_sbu_0, # of connection points: 4
#     Node 12, Type 0, BuildingBlock: GALJAG_clean_sbu_0, # of connection points: 4
#     Node 13, Type 0, BuildingBlock: GALJAG_clean_sbu_0, # of connection points: 4
#     Node 14, Type 0, BuildingBlock: GALJAG_clean_sbu_0, # of connection points: 4
#     Node 15, Type 0, BuildingBlock: GALJAG_clean_sbu_0, # of connection points: 4
#     Node 16, Type 0, BuildingBlock: GALJAG_clean_sbu_0, # of connection points: 4
#     Node 17, Type 0, BuildingBlock: GALJAG_clean_sbu_0, # of connection points: 4
#     Node 18, Type 0, BuildingBlock: GALJAG_clean_sbu_0, # of connection points: 4
#     Node 19, Type 0, BuildingBlock: GALJAG_clean_sbu_0, # of connection points: 4
#     Node 20, Type 0, BuildingBlock: GALJAG_clean_sbu_0, # of connection points: 4
#     Node 21, Type 0, BuildingBlock: GALJAG_clean_sbu_0, # of connection points: 4
#     Node 22, Type 0, BuildingBlock: GALJAG_clean_sbu_0, # of connection points: 4
#     Node 23, Type 0, BuildingBlock: GALJAG_clean_sbu_0, # of connection points: 4
#     Node 24, Type 0, BuildingBlock: GALJAG_clean_sbu_0, # of connection points: 4
#     Node 25, Type 0, BuildingBlock: GALJAG_clean_sbu_0, # of connection points: 4
#     Node 26, Type 0, BuildingBlock: GALJAG_clean_sbu_0, # of connection points: 4
#     Node 27, Type 0, BuildingBlock: GALJAG_clean_sbu_0, # of connection points: 4
#     Node 28, Type 0, BuildingBlock: GALJAG_clean_sbu_0, # of connection points: 4
#     Node 29, Type 0, BuildingBlock: GALJAG_clean_sbu_0, # of connection points: 4
#     Node 30, Type 0, BuildingBlock: GALJAG_clean_sbu_0, # of connection points: 4
#     Node 31, Type 0, BuildingBlock: GALJAG_clean_sbu_0, # of connection points: 4
#     Node 32, Type 0, BuildingBlock: GALJAG_clean_sbu_0, # of connection points: 4
#     Node 33, Type 0, BuildingBlock: GALJAG_clean_sbu_0, # of connection points: 4
#     Node 34, Type 0, BuildingBlock: GALJAG_clean_sbu_0, # of connection points: 4
#     Node 35, Type 0, BuildingBlock: GALJAG_clean_sbu_0, # of connection points: 4
#     Edge 36, Type (0, 0), BuildingBlock: TEMPAE_clean_linker_10, # of connection points: 2
#     Edge 37, Type (0, 0), BuildingBlock: TEMPAE_clean_linker_10, # of connection points: 2
#     Edge 38, Type (0, 0), BuildingBlock: TEMPAE_clean_linker_10, # of connection points: 2
#     Edge 39, Type (0, 0), BuildingBlock: TEMPAE_clean_linker_10, # of connection points: 2
#     Edge 40, Type (0, 0), BuildingBlock: TEMPAE_clean_linker_10, # of connection points: 2
#     Edge 41, Type (0, 0), BuildingBlock: TEMPAE_clean_linker_10, # of connection points: 2
#     Edge 42, Type (0, 0), BuildingBlock: TEMPAE_clean_linker_10, # of connection points: 2
#     Edge 43, Type (0, 0), BuildingBlock: TEMPAE_clean_linker_10, # of connection points: 2
#     Edge 44, Type (0, 0), BuildingBlock: TEMPAE_clean_linker_10, # of connection points: 2
#     Edge 45, Type (0, 0), BuildingBlock: TEMPAE_clean_linker_10, # of connection points: 2
#     Edge 46, Type (0, 0), BuildingBlock: TEMPAE_clean_linker_10, # of connection points: 2
#     Edge 47, Type (0, 0), BuildingBlock: TEMPAE_clean_linker_10, # of connection points: 2
#     Edge 48, Type (0, 0), BuildingBlock: TEMPAE_clean_linker_10, # of connection points: 2
#     Edge 49, Type (0, 0), BuildingBlock: TEMPAE_clean_linker_10, # of connection points: 2
#     Edge 50, Type (0, 0), BuildingBlock: TEMPAE_clean_linker_10, # of connection points: 2
#     Edge 51, Type (0, 0), BuildingBlock: TEMPAE_clean_linker_10, # of connection points: 2
#     Edge 52, Type (0, 0), BuildingBlock: TEMPAE_clean_linker_10, # of connection points: 2
#     Edge 53, Type (0, 0), BuildingBlock: TEMPAE_clean_linker_10, # of connection points: 2
#     Edge 54, Type (0, 0), BuildingBlock: TEMPAE_clean_linker_10, # of connection points: 2
#     Edge 55, Type (0, 0), BuildingBlock: TEMPAE_clean_linker_10, # of connection points: 2
#     Edge 56, Type (0, 0), BuildingBlock: TEMPAE_clean_linker_10, # of connection points: 2
#     Edge 57, Type (0, 0), BuildingBlock: TEMPAE_clean_linker_10, # of connection points: 2
#     Edge 58, Type (0, 0), BuildingBlock: TEMPAE_clean_linker_10, # of connection points: 2
#     Edge 59, Type (0, 0), BuildingBlock: TEMPAE_clean_linker_10, # of connection points: 2
#     Edge 60, Type (0, 0), BuildingBlock: TEMPAE_clean_linker_10, # of connection points: 2
#     Edge 61, Type (0, 0), BuildingBlock: TEMPAE_clean_linker_10, # of connection points: 2
#     Edge 62, Type (0, 0), BuildingBlock: TEMPAE_clean_linker_10, # of connection points: 2
#     Edge 63, Type (0, 0), BuildingBlock: TEMPAE_clean_linker_10, # of connection points: 2
#     Edge 64, Type (0, 0), BuildingBlock: TEMPAE_clean_linker_10, # of connection points: 2
#     Edge 65, Type (0, 0), BuildingBlock: TEMPAE_clean_linker_10, # of connection points: 2
#     Edge 66, Type (0, 0), BuildingBlock: TEMPAE_clean_linker_10, # of connection points: 2
#     Edge 67, Type (0, 0), BuildingBlock: TEMPAE_clean_linker_10, # of connection points: 2
#     Edge 68, Type (0, 0), BuildingBlock: TEMPAE_clean_linker_10, # of connection points: 2
#     Edge 69, Type (0, 0), BuildingBlock: TEMPAE_clean_linker_10, # of connection points: 2
#     Edge 70, Type (0, 0), BuildingBlock: TEMPAE_clean_linker_10, # of connection points: 2
#     Edge 71, Type (0, 0), BuildingBlock: TEMPAE_clean_linker_10, # of connection points: 2
#     Edge 72, Type (0, 0), BuildingBlock: TEMPAE_clean_linker_10, # of connection points: 2
#     Edge 73, Type (0, 0), BuildingBlock: TEMPAE_clean_linker_10, # of connection points: 2
#     Edge 74, Type (0, 0), BuildingBlock: TEMPAE_clean_linker_10, # of connection points: 2
#     Edge 75, Type (0, 0), BuildingBlock: TEMPAE_clean_linker_10, # of connection points: 2
#     Edge 76, Type (0, 0), BuildingBlock: TEMPAE_clean_linker_10, # of connection points: 2
#     Edge 77, Type (0, 0), BuildingBlock: TEMPAE_clean_linker_10, # of connection points: 2
#     Edge 78, Type (0, 0), BuildingBlock: TEMPAE_clean_linker_10, # of connection points: 2
#     Edge 79, Type (0, 0), BuildingBlock: TEMPAE_clean_linker_10, # of connection points: 2
#     Edge 80, Type (0, 0), BuildingBlock: TEMPAE_clean_linker_10, # of connection points: 2
#     Edge 81, Type (0, 0), BuildingBlock: TEMPAE_clean_linker_10, # of connection points: 2
#     Edge 82, Type (0, 0), BuildingBlock: TEMPAE_clean_linker_10, # of connection points: 2
#     Edge 83, Type (0, 0), BuildingBlock: TEMPAE_clean_linker_10, # of connection points: 2
#     Edge 84, Type (0, 0), BuildingBlock: TEMPAE_clean_linker_10, # of connection points: 2
#     Edge 85, Type (0, 0), BuildingBlock: TEMPAE_clean_linker_10, # of connection points: 2
#     Edge 86, Type (0, 0), BuildingBlock: TEMPAE_clean_linker_10, # of connection points: 2
#     Edge 87, Type (0, 0), BuildingBlock: TEMPAE_clean_linker_10, # of connection points: 2
#     Edge 88, Type (0, 0), BuildingBlock: TEMPAE_clean_linker_10, # of connection points: 2
#     Edge 89, Type (0, 0), BuildingBlock: TEMPAE_clean_linker_10, # of connection points: 2
#     Edge 90, Type (0, 0), BuildingBlock: TEMPAE_clean_linker_10, # of connection points: 2
#     Edge 91, Type (0, 0), BuildingBlock: TEMPAE_clean_linker_10, # of connection points: 2
#     Edge 92, Type (0, 0), BuildingBlock: TEMPAE_clean_linker_10, # of connection points: 2
#     Edge 93, Type (0, 0), BuildingBlock: TEMPAE_clean_linker_10, # of connection points: 2
#     Edge 94, Type (0, 0), BuildingBlock: TEMPAE_clean_linker_10, # of connection points: 2
#     Edge 95, Type (0, 0), BuildingBlock: TEMPAE_clean_linker_10, # of connection points: 2
#     Edge 96, Type (0, 0), BuildingBlock: TEMPAE_clean_linker_10, # of connection points: 2
#     Edge 97, Type (0, 0), BuildingBlock: TEMPAE_clean_linker_10, # of connection points: 2
#     Edge 98, Type (0, 0), BuildingBlock: TEMPAE_clean_linker_10, # of connection points: 2
#     Edge 99, Type (0, 0), BuildingBlock: TEMPAE_clean_linker_10, # of connection points: 2
#     Edge 100, Type (0, 0), BuildingBlock: TEMPAE_clean_linker_10, # of connection points: 2
#     Edge 101, Type (0, 0), BuildingBlock: TEMPAE_clean_linker_10, # of connection points: 2
#     Edge 102, Type (0, 0), BuildingBlock: TEMPAE_clean_linker_10, # of connection points: 2
#     Edge 103, Type (0, 0), BuildingBlock: TEMPAE_clean_linker_10, # of connection points: 2
#     Edge 104, Type (0, 0), BuildingBlock: TEMPAE_clean_linker_10, # of connection points: 2
#     Edge 105, Type (0, 0), BuildingBlock: TEMPAE_clean_linker_10, # of connection points: 2
#     Edge 106, Type (0, 0), BuildingBlock: TEMPAE_clean_linker_10, # of connection points: 2
#     Edge 107, Type (0, 0), BuildingBlock: TEMPAE_clean_linker_10, # of connection points: 2
# Relax obj value: 0.191
# Max RMSD: 0.184
# Mean RMSD: 0.184
data_MOF--net-umn--node1-GALJAG_clean_sbu_0--edge1-TEMPAE_clean_linker_10
_symmetry_space_group_name_H-M    P1
_symmetry_Int_Tables_number       1
_symmetry_cell_setting            triclinic
loop_
_symmetry_equiv_pos_as_xyz
'x, y, z'
_cell_length_a     84.935701
_cell_length_b     84.944781
_cell_length_c     37.055729
_cell_angle_alpha  89.97532
_cell_angle_beta   90.018753
_cell_angle_gamma 120.02291
loop_
_atom_site_label
_atom_site_type_symbol
_atom_site_fract_x
_atom_site_fract_y
_atom_site_fract_z
_atom_type_partial_charge
In0 In 0.36571 0.1007 0.24314 0.0
O1 O 0.37011 0.1055 0.30447 0.0
O2 O 0.34322 0.09386 0.28238 0.0
C3 C 0.39345 0.10882 0.19793 0.0
C4 C 0.35765 0.1256 0.22208 0.0
C5 C 0.35176 0.06494 0.24017 0.0
O6 O 0.39592 0.11008 0.23194 0.0
O7 O 0.37755 0.10435 0.18789 0.0
O8 O 0.34448 0.07272 0.2235 0.0
O9 O 0.36615 0.07535 0.25729 0.0
C10 C 0.35317 0.09904 0.31016 0.0
O11 O 0.34935 0.10949 0.20988 0.0
O12 O 0.37041 0.12924 0.24428 0.0
In13 In 0.88878 0.26031 0.23201 0.0
O14 O 0.88051 0.25871 0.29231 0.0
O15 O 0.90092 0.25235 0.27688 0.0
C16 C 0.87992 0.27858 0.1845 0.0
C17 C 0.86713 0.2258 0.2134 0.0
C18 C 0.92398 0.28365 0.22347 0.0
O19 O 0.8788 0.28042 0.21833 0.0
O20 O 0.88427 0.2669 0.17574 0.0
O21 O 0.91634 0.26807 0.20883 0.0
O22 O 0.91367 0.28737 0.24168 0.0
C23 C 0.89183 0.25385 0.3021 0.0
O24 O 0.88418 0.23379 0.20906 0.0
O25 O 0.8609 0.23537 0.22645 0.0
In26 In 0.72726 0.62389 0.22979 0.0
O27 O 0.75116 0.64005 0.19294 0.0
O28 O 0.74959 0.61733 0.22176 0.0
C29 C 0.70791 0.64019 0.23951 0.0
C30 C 0.74034 0.63358 0.2968 0.0
C31 C 0.70412 0.59848 0.1837 0.0
O32 O 0.72189 0.64707 0.21941 0.0
O33 O 0.70366 0.62501 0.2536 0.0
O34 O 0.70759 0.59388 0.21409 0.0
O35 O 0.71255 0.61534 0.17738 0.0
C36 C 0.75838 0.63049 0.20027 0.0
O37 O 0.72763 0.61746 0.28999 0.0
O38 O 0.74648 0.64404 0.26984 0.0
In39 In 0.09155 0.35714 0.28606 0.0
O40 O 0.10275 0.36536 0.22787 0.0
O41 O 0.08952 0.33742 0.24388 0.0
C42 C 0.09607 0.38238 0.33523 0.0
C43 C 0.11066 0.34403 0.31755 0.0
C44 C 0.05657 0.3453 0.27394 0.0
O45 O 0.10288 0.38708 0.30377 0.0
O46 O 0.08775 0.36547 0.34105 0.0
O47 O 0.06177 0.33705 0.29501 0.0
O48 O 0.06909 0.35966 0.25974 0.0
C49 C 0.09717 0.3489 0.21898 0.0
O50 O 0.09345 0.33515 0.31598 0.0
O51 O 0.11825 0.35989 0.30408 0.0
In52 In 0.62554 0.72707 0.29652 0.0
O53 O 0.61841 0.72802 0.23671 0.0
O54 O 0.6463 0.73993 0.25296 0.0
C55 C 0.59927 0.70633 0.34376 0.0
C56 C 0.63533 0.76042 0.31881 0.0
C57 C 0.64029 0.70597 0.29456 0.0
O58 O 0.59527 0.70785 0.31133 0.0
O59 O 0.61592 0.7157 0.35155 0.0
O60 O 0.64767 0.72092 0.31163 0.0
O61 O 0.62525 0.70158 0.27954 0.0
C62 C 0.63512 0.73629 0.2275 0.0
O63 O 0.64347 0.7522 0.32934 0.0
O64 O 0.6219 0.75154 0.29807 0.0
In65 In 0.2588 0.89578 0.28985 0.0
O66 O 0.25607 0.88316 0.23304 0.0
O67 O 0.25025 0.90471 0.24067 0.0
C68 C 0.2777 0.88985 0.34117 0.0
C69 C 0.22446 0.87583 0.31143 0.0
C70 C 0.28218 0.93121 0.28712 0.0
O71 O 0.27848 0.88597 0.30831 0.0
O72 O 0.2669 0.89567 0.34738 0.0
O73 O 0.26731 0.9248 0.30427 0.0
O74 O 0.28535 0.91961 0.27255 0.0
C75 C 0.25128 0.89382 0.21909 0.0
O76 O 0.23275 0.89302 0.31182 0.0
O77 O 0.23366 0.8687 0.30099 0.0
In78 In 0.63005 0.89382 0.78398 0.0
O79 O 0.62222 0.88741 0.72428 0.0
O80 O 0.64862 0.89315 0.74204 0.0
C81 C 0.60588 0.89326 0.8314 0.0
C82 C 0.63418 0.86727 0.81142 0.0
C83 C 0.64886 0.92955 0.77412 0.0
O84 O 0.60075 0.88603 0.80038 0.0
O85 O 0.62267 0.90013 0.83765 0.0
O86 O 0.65491 0.92156 0.79396 0.0
O87 O 0.63326 0.91952 0.76073 0.0
C88 C 0.63777 0.88966 0.71596 0.0
O89 O 0.64493 0.88382 0.81915 0.0
O90 O 0.62114 0.86417 0.79049 0.0
In91 In 0.08966 0.7248 0.77527 0.0
O92 O 0.09565 0.74857 0.81136 0.0
O93 O 0.118 0.74753 0.78663 0.0
C94 C 0.05437 0.70634 0.76036 0.0
C95 C 0.09612 0.73796 0.70797 0.0
C96 C 0.09131 0.70199 0.8234 0.0
O97 O 0.06101 0.71984 0.78166 0.0
O98 O 0.06549 0.70193 0.74793 0.0
O99 O 0.10015 0.70562 0.79394 0.0
O100 O 0.08218 0.70986 0.82757 0.0
C101 C 0.11267 0.7561 0.80644 0.0
O102 O 0.09848 0.72475 0.71658 0.0
O103 O 0.09132 0.74451 0.73343 0.0
In104 In 0.26053 0.36984 0.77806 0.0
O105 O 0.26235 0.37608 0.71698 0.0
O106 O 0.24459 0.34899 0.73585 0.0
C107 C 0.28067 0.39687 0.8247 0.0
C108 C 0.2275 0.36195 0.79877 0.0
C109 C 0.28021 0.3535 0.78207 0.0
O110 O 0.28199 0.39977 0.79085 0.0
O111 O 0.26887 0.38097 0.83389 0.0
O112 O 0.26486 0.34694 0.79736 0.0
O113 O 0.28554 0.36834 0.76565 0.0
C114 C 0.25095 0.35961 0.70921 0.0
O115 O 0.23507 0.3533 0.81027 0.0
O116 O 0.23689 0.37502 0.77739 0.0
In117 In 0.88575 0.62532 0.72008 0.0
O118 O 0.87788 0.6431 0.68854 0.0
O119 O 0.85859 0.62377 0.72586 0.0
C120 C 0.92125 0.63927 0.70906 0.0
C121 C 0.89001 0.63605 0.7893 0.0
C122 C 0.87537 0.59608 0.67741 0.0
O123 O 0.91273 0.64672 0.69627 0.0
O124 O 0.91165 0.62468 0.72627 0.0
O125 O 0.87677 0.59505 0.71135 0.0
O126 O 0.87798 0.61125 0.66637 0.0
C127 C 0.8624 0.63638 0.70333 0.0
O128 O 0.87907 0.61958 0.78077 0.0
O129 O 0.89834 0.64647 0.76324 0.0
In130 In 0.35328 0.25752 0.72655 0.0
O131 O 0.3632 0.25649 0.7844 0.0
O132 O 0.33506 0.24018 0.77103 0.0
C133 C 0.37829 0.27781 0.67641 0.0
C134 C 0.33956 0.22468 0.69758 0.0
C135 C 0.33988 0.27955 0.73681 0.0
O136 O 0.38309 0.27655 0.70832 0.0
O137 O 0.36142 0.2686 0.67058 0.0
O138 O 0.3322 0.26585 0.71626 0.0
O139 O 0.35448 0.28227 0.75132 0.0
C140 C 0.34716 0.24519 0.79496 0.0
O141 O 0.33073 0.23302 0.69929 0.0
O142 O 0.35573 0.23325 0.70948 0.0
In143 In 0.72967 0.09991 0.72692 0.0
O144 O 0.75466 0.10974 0.69242 0.0
O145 O 0.75254 0.12907 0.72647 0.0
C146 C 0.71207 0.06366 0.72667 0.0
C147 C 0.74007 0.10138 0.7957 0.0
C148 C 0.70847 0.10578 0.68134 0.0
O149 O 0.72707 0.07291 0.71039 0.0
O150 O 0.70585 0.07277 0.74159 0.0
O151 O 0.70788 0.10803 0.71512 0.0
O152 O 0.71973 0.10105 0.67169 0.0
C153 C 0.76182 0.12592 0.70388 0.0
O154 O 0.72773 0.10507 0.78738 0.0
O155 O 0.747 0.09751 0.7695 0.0
In156 In 0.02246 0.42818 0.56585 0.0
O157 O 0.0007 0.43131 0.538 0.0
O158 O 0.02633 0.45541 0.54873 0.0
C159 C 0.01063 0.39343 0.57978 0.0
C160 C 0.01493 0.43365 0.63341 0.0
C161 C 0.04614 0.43109 0.51452 0.0
O162 O 0.00201 0.39835 0.55899 0.0
O163 O 0.02534 0.4061 0.59259 0.0
O164 O 0.05178 0.43909 0.5448 0.0
O165 O 0.02906 0.42244 0.51083 0.0
C166 C 0.01026 0.44849 0.53653 0.0
O167 O 0.03126 0.4388 0.62408 0.0
O168 O 0.00325 0.42658 0.60864 0.0
In169 In 0.55459 0.59534 0.56784 0.0
O170 O 0.54715 0.56972 0.53666 0.0
O171 O 0.52824 0.56894 0.57591 0.0
C172 C 0.58956 0.61704 0.55172 0.0
C173 C 0.56082 0.59039 0.63692 0.0
C174 C 0.54217 0.61297 0.52651 0.0
O175 O 0.58076 0.60077 0.54056 0.0
O176 O 0.58047 0.62226 0.57002 0.0
O177 O 0.54494 0.61622 0.56006 0.0
O178 O 0.5444 0.60019 0.51549 0.0
C179 C 0.53209 0.56047 0.55268 0.0
O180 O 0.5489 0.59472 0.62905 0.0
O181 O 0.56913 0.58874 0.61034 0.0
In182 In 0.39826 0.96911 0.57196 0.0
O183 O 0.39608 0.95859 0.63046 0.0
O184 O 0.41803 0.98472 0.61606 0.0
C185 C 0.37512 0.94487 0.52348 0.0
C186 C 0.43003 0.97896 0.54088 0.0
C187 C 0.38093 0.9875 0.58329 0.0
O188 O 0.37826 0.93958 0.55335 0.0
O189 O 0.38375 0.96186 0.51885 0.0
O190 O 0.39434 0.99327 0.562 0.0
O191 O 0.37615 0.97233 0.59792 0.0
C192 C 0.41002 0.97322 0.64067 0.0
O193 O 0.4238 0.98965 0.54403 0.0
O194 O 0.41987 0.96293 0.55242 0.0
In195 In 0.75823 0.69482 0.60946 0.0
O196 O 0.76869 0.7056 0.55203 0.0
O197 O 0.76196 0.67855 0.56633 0.0
C198 C 0.75969 0.71821 0.66007 0.0
C199 C 0.77889 0.68379 0.64189 0.0
C200 C 0.723 0.6792 0.59365 0.0
O201 O 0.76806 0.72403 0.63025 0.0
O202 O 0.75109 0.70113 0.6634 0.0
O203 O 0.72908 0.67195 0.61526 0.0
O204 O 0.73468 0.69443 0.58095 0.0
C205 C 0.76708 0.69052 0.54209 0.0
O206 O 0.76188 0.67355 0.63813 0.0
O207 O 0.78543 0.69987 0.63001 0.0
In208 In 0.28453 0.06124 0.62298 0.0
O209 O 0.27699 0.05675 0.56256 0.0
O210 O 0.3023 0.0796 0.57893 0.0
C211 C 0.25985 0.03796 0.67045 0.0
C212 C 0.28865 0.09264 0.64613 0.0
C213 C 0.30587 0.04668 0.62145 0.0
O214 O 0.25518 0.03901 0.6383 0.0
O215 O 0.2763 0.04888 0.67775 0.0
O216 O 0.31055 0.06144 0.63794 0.0
O217 O 0.29037 0.03929 0.60681 0.0
C218 C 0.29196 0.07058 0.55325 0.0
O219 O 0.29895 0.0867 0.65627 0.0
O220 O 0.27581 0.08238 0.62508 0.0
In221 In 0.92773 0.22634 0.62352 0.0
O222 O 0.90238 0.22327 0.64954 0.0
O223 O 0.90192 0.19923 0.63033 0.0
C224 C 0.95127 0.26145 0.63356 0.0
C225 C 0.92021 0.22906 0.55376 0.0
C226 C 0.94638 0.21597 0.66692 0.0
O227 O 0.93585 0.25361 0.64878 0.0
O228 O 0.95477 0.25136 0.6141 0.0
O229 O 0.94836 0.21653 0.63287 0.0
O230 O 0.93433 0.21938 0.67784 0.0
C231 C 0.89342 0.20623 0.64506 0.0
O232 O 0.9242 0.21711 0.56347 0.0
O233 O 0.9202 0.23904 0.57883 0.0
In234 In 0.29937 0.22881 0.11908 0.0
O235 O 0.32142 0.22562 0.14565 0.0
O236 O 0.29471 0.20229 0.14352 0.0
C237 C 0.32059 0.26446 0.10789 0.0
C238 C 0.29969 0.21966 0.04917 0.0
C239 C 0.27458 0.22792 0.1663 0.0
O240 O 0.32514 0.25578 0.12915 0.0
O241 O 0.30529 0.25515 0.09295 0.0
O242 O 0.26969 0.21702 0.1398 0.0
O243 O 0.29144 0.23873 0.16823 0.0
C244 C 0.31119 0.20895 0.15274 0.0
O245 O 0.28815 0.22375 0.06076 0.0
O246 O 0.30962 0.21871 0.07324 0.0
In247 In 0.75996 0.06479 0.1153 0.0
O248 O 0.76644 0.06127 0.05658 0.0
O249 O 0.76417 0.08445 0.07089 0.0
C250 C 0.76012 0.04054 0.16197 0.0
C251 C 0.78467 0.09569 0.14588 0.0
C252 C 0.72444 0.05023 0.10325 0.0
O253 O 0.76885 0.04412 0.13244 0.0
O254 O 0.75182 0.04918 0.16705 0.0
O255 O 0.733 0.06402 0.12339 0.0
O256 O 0.73371 0.04364 0.09067 0.0
C257 C 0.76644 0.07555 0.04622 0.0
O258 O 0.76782 0.08894 0.15169 0.0
O259 O 0.78903 0.0866 0.12531 0.0
In260 In 0.92332 0.694 0.11298 0.0
O261 O 0.8972 0.67132 0.13595 0.0
O262 O 0.89809 0.69615 0.12076 0.0
C263 C 0.94769 0.68315 0.11439 0.0
C264 C 0.91626 0.68604 0.04274 0.0
C265 C 0.94086 0.71981 0.16311 0.0
O266 O 0.93261 0.67449 0.1308 0.0
O267 O 0.95053 0.69751 0.09844 0.0
O268 O 0.94187 0.72393 0.12984 0.0
O269 O 0.93056 0.70316 0.17016 0.0
C270 C 0.88889 0.68015 0.1331 0.0
O271 O 0.92153 0.70209 0.05401 0.0
O272 O 0.91442 0.67473 0.06674 0.0
In273 In 0.55431 0.96204 0.05876 0.0
O274 O 0.55062 0.95486 0.11921 0.0
O275 O 0.55653 0.98137 0.10197 0.0
C276 C 0.55059 0.93665 0.01086 0.0
C277 C 0.52613 0.96566 0.04031 0.0
C278 C 0.59042 0.98184 0.05817 0.0
O279 O 0.54775 0.93292 0.04431 0.0
O280 O 0.55463 0.95266 1.00256 0.0
O281 O 0.58075 0.98721 0.04218 0.0
O282 O 0.58177 0.96639 0.07292 0.0
C283 C 0.55368 0.97065 0.12797 0.0
O284 O 0.54197 0.9761 0.02812 0.0
O285 O 0.52445 0.95298 0.06089 0.0
In286 In 0.02931 0.59562 0.06526 0.0
O287 O 0.0108 0.57035 0.03378 0.0
O288 O 0.03223 0.57074 0.06553 0.0
C289 C 0.01639 0.61838 0.06551 0.0
C290 C 0.01902 0.5853 0.13345 0.0
C291 C 0.05612 0.61333 0.01705 0.0
O292 O 0.00842 0.60341 0.04861 0.0
O293 O 0.03104 0.6219 0.08107 0.0
O294 O 0.05954 0.61481 0.05071 0.0
O295 O 0.0397 0.60274 0.00883 0.0
C296 C 0.01862 0.56188 0.04504 0.0
O297 O 0.03578 0.59549 0.12563 0.0
O298 O 0.00814 0.58066 0.10715 0.0
In299 In 0.39832 0.43454 0.06113 0.0
O300 O 0.3918 0.43881 0.11984 0.0
O301 O 0.4184 0.44415 0.10724 0.0
C302 C 0.3745 0.4347 0.01273 0.0
C303 C 0.43014 0.4561 0.02935 0.0
C304 C 0.38487 0.39896 0.07112 0.0
O305 O 0.37922 0.4449 0.04035 0.0
O306 O 0.38179 0.42498 0.01033 0.0
O307 O 0.39847 0.40826 0.05109 0.0
O308 O 0.37798 0.4076 0.08539 0.0
C309 C 0.40743 0.44286 0.13141 0.0
O310 O 0.42401 0.4393 0.0343 0.0
O311 O 0.41986 0.46207 0.03959 0.0
In312 In 0.68874 0.75908 0.90176 0.0
O313 O 0.66628 0.76254 0.87749 0.0
O314 O 0.69165 0.78645 0.8905 0.0
C315 C 0.67941 0.7245 0.90942 0.0
C316 C 0.68104 0.76033 0.97123 0.0
C317 C 0.71261 0.76487 0.84893 0.0
O318 O 0.66982 0.72921 0.89104 0.0
O319 O 0.69395 0.73735 0.92253 0.0
O320 O 0.71806 0.77062 0.88083 0.0
O321 O 0.69558 0.75694 0.8445 0.0
C322 C 0.67562 0.77974 0.87834 0.0
O323 O 0.69723 0.77029 0.95964 0.0
O324 O 0.66939 0.75075 0.94774 0.0
In325 In 0.21922 0.91973 0.89516 0.0
O326 O 0.21293 0.89294 0.87105 0.0
O327 O 0.19063 0.89593 0.88978 0.0
C328 C 0.25476 0.94243 0.88943 0.0
C329 C 0.2216 0.9118 0.96445 0.0
C330 C 0.21124 0.9384 0.84713 0.0
O331 O 0.247 0.92714 0.8736 0.0
O332 O 0.2444 0.94622 0.90733 0.0
O333 O 0.20867 0.93928 0.88075 0.0
O334 O 0.21687 0.92764 0.83878 0.0
C335 C 0.19597 0.88577 0.87598 0.0
O336 O 0.21238 0.91934 0.95589 0.0
O337 O 0.22889 0.90836 0.93833 0.0
In338 In 0.0648 0.29708 0.89901 0.0
O339 O 0.08972 0.32026 0.874 0.0
O340 O 0.08729 0.29394 0.87283 0.0
C341 C 0.05065 0.31844 0.91145 0.0
C342 C 0.07391 0.29634 0.9689 0.0
C343 C 0.04096 0.27254 0.85123 0.0
O344 O 0.06391 0.32308 0.89027 0.0
O345 O 0.04449 0.30298 0.92577 0.0
O346 O 0.04717 0.26751 0.87716 0.0
O347 O 0.04684 0.28938 0.85009 0.0
C348 C 0.09669 0.3107 0.86521 0.0
O349 O 0.05792 0.28611 0.95736 0.0
O350 O 0.08528 0.30521 0.94465 0.0
In351 In 0.42285 0.02525 0.96025 0.0
O352 O 0.43281 0.03665 0.9028 0.0
O353 O 0.42937 0.01084 0.91704 0.0
C354 C 0.42523 0.05012 0.00854 0.0
C355 C 0.44041 0.01133 0.99544 0.0
C356 C 0.38768 0.00916 0.94317 0.0
O357 O 0.43591 0.05486 0.98163 0.0
O358 O 0.41388 0.03335 0.01023 0.0
O359 O 0.39375 0.00227 0.96561 0.0
O360 O 0.39933 0.02431 0.93017 0.0
C361 C 0.43305 0.02249 0.89269 0.0
O362 O 0.42356 0.00216 0.98874 0.0
O363 O 0.4483 0.02779 0.98536 0.0
In364 In 0.96053 0.39876 0.95411 0.0
O365 O 0.98126 0.42448 0.98105 0.0
O366 O 0.95438 0.42036 0.97455 0.0
C367 C 0.98191 0.38434 0.94606 0.0
C368 C 0.96266 0.4085 0.88394 0.0
C369 C 0.93603 0.37503 1.00185 0.0
O370 O 0.98631 0.39796 0.96609 0.0
O371 O 0.96667 0.37798 0.93067 0.0
O372 O 0.93082 0.37921 0.97309 0.0
O373 O 0.95302 0.38293 1.00579 0.0
C374 C 0.97057 0.43065 0.98515 0.0
O375 O 0.95024 0.3931 0.89495 0.0
O376 O 0.97265 0.41893 0.90848 0.0
In377 In 0.59677 0.55774 0.95341 0.0
O378 O 0.59512 0.55095 0.89259 0.0
O379 O 0.59036 0.57216 0.9104 0.0
C380 C 0.61299 0.54437 0.99618 0.0
C381 C 0.56168 0.53701 0.96893 0.0
C382 C 0.62056 0.59268 0.96549 0.0
O383 O 0.61616 0.5464 0.9625 0.0
O384 O 0.60101 0.54791 1.0068 0.0
O385 O 0.6046 0.58507 0.97844 0.0
O386 O 0.62447 0.5824 0.94774 0.0
C387 C 0.59124 0.56315 0.88423 0.0
O388 O 0.57152 0.55222 0.9841 0.0
O389 O 0.56972 0.53211 0.94674 0.0
In390 In 0.95843 0.55902 0.45118 0.0
O391 O 0.97392 0.54961 0.48632 0.0
O392 O 0.95057 0.52957 0.45746 0.0
C393 C 0.97998 0.59477 0.44333 0.0
C394 C 0.96375 0.5547 0.38138 0.0
C395 C 0.9333 0.55813 0.49685 0.0
O396 O 0.98472 0.5855 0.46258 0.0
O397 O 0.9643 0.58602 0.42957 0.0
O398 O 0.92861 0.54971 0.46695 0.0
O399 O 0.95015 0.56637 0.50303 0.0
C400 C 0.96377 0.53303 0.47815 0.0
O401 O 0.94946 0.55469 0.39166 0.0
O402 O 0.97443 0.55595 0.40632 0.0
In403 In 0.4241 0.4006 0.44922 0.0
O404 O 0.4292 0.42513 0.48126 0.0
O405 O 0.45201 0.42171 0.46896 0.0
C406 C 0.38885 0.38215 0.43422 0.0
C407 C 0.43132 0.41463 0.38223 0.0
C408 C 0.4242 0.3767 0.49687 0.0
O409 O 0.39536 0.39515 0.45667 0.0
O410 O 0.4001 0.37825 0.42052 0.0
O411 O 0.43296 0.38003 0.46732 0.0
O412 O 0.41599 0.38548 0.50147 0.0
C413 C 0.44618 0.43133 0.48344 0.0
O414 O 0.43394 0.40156 0.39059 0.0
O415 O 0.42621 0.42075 0.40789 0.0
In416 In 0.59148 0.02888 0.44782 0.0
O417 O 0.56627 0.01167 0.4808 0.0
O418 O 0.56903 0.03544 0.45437 0.0
C419 C 0.60944 0.01099 0.43953 0.0
C420 C 0.5811 0.02279 0.37865 0.0
C421 C 0.61342 0.05296 0.49737 0.0
O422 O 0.59486 0.0044 0.45772 0.0
O423 O 0.61496 0.02665 0.42653 0.0
O424 O 0.61134 0.05835 0.46662 0.0
O425 O 0.60425 0.03601 0.5023 0.0
C426 C 0.55941 0.02155 0.47365 0.0
O427 O 0.59415 0.03816 0.38866 0.0
O428 O 0.57338 0.01129 0.40353 0.0
In429 In 0.21943 0.28922 0.39532 0.0
O430 O 0.21636 0.28359 0.45668 0.0
O431 O 0.22385 0.31014 0.43707 0.0
C432 C 0.21373 0.26174 0.35091 0.0
C433 C 0.19234 0.29438 0.37551 0.0
C434 C 0.25544 0.30784 0.3887 0.0
O435 O 0.21308 0.25971 0.38498 0.0
O436 O 0.21627 0.27696 0.34039 0.0
O437 O 0.24552 0.31332 0.37425 0.0
O438 O 0.24703 0.29294 0.40544 0.0
C439 C 0.22068 0.29991 0.46405 0.0
O440 O 0.20816 0.30348 0.36226 0.0
O441 O 0.19003 0.28223 0.39821 0.0
In442 In 0.69507 0.92573 0.39584 0.0
O443 O 0.70521 0.92833 0.45479 0.0
O444 O 0.67789 0.90846 0.44149 0.0
C445 C 0.72072 0.94562 0.34661 0.0
C446 C 0.68439 0.89247 0.37191 0.0
C447 C 0.67804 0.94494 0.39802 0.0
O448 O 0.72478 0.94622 0.37978 0.0
O449 O 0.70424 0.93489 0.33918 0.0
O450 O 0.67202 0.93053 0.37965 0.0
O451 O 0.69279 0.94974 0.41439 0.0
C452 C 0.6898 0.91576 0.46567 0.0
O453 O 0.67423 0.8994 0.37107 0.0
O454 O 0.70035 0.90263 0.38384 0.0
In455 In 0.06217 0.76454 0.39039 0.0
O456 O 0.05898 0.76969 0.4502 0.0
O457 O 0.08126 0.76626 0.43388 0.0
C458 C 0.03819 0.76505 0.34364 0.0
C459 C 0.09299 0.79152 0.36408 0.0
C460 C 0.04737 0.72872 0.39749 0.0
O461 O 0.04014 0.77183 0.37503 0.0
O462 O 0.04843 0.75866 0.33669 0.0
O463 O 0.06165 0.73795 0.37891 0.0
O464 O 0.0405 0.73756 0.411 0.0
C465 C 0.07282 0.76856 0.45946 0.0
O466 O 0.08722 0.77509 0.35558 0.0
O467 O 0.08289 0.79434 0.38506 0.0
C468 C 0.30738 0.95683 0.254 0.0
C469 C 0.29406 0.95079 0.28102 0.0
C470 C 0.31764 0.97529 0.24522 0.0
C471 C 0.31461 0.98793 0.26433 0.0
C472 C 0.30154 0.98197 0.29235 0.0
C473 C 0.2913 0.96338 0.30022 0.0
C474 C 0.33138 0.98122 0.21501 0.0
C475 C 0.29821 -0.00482 0.31363 0.0
C476 C 0.35069 0.03753 0.26625 0.0
C477 C 0.34329 0.04508 0.24277 0.0
C478 C 0.34172 0.01882 0.27278 0.0
C479 C 0.32508 0.00744 0.25508 0.0
C480 C 0.31797 0.01485 0.22998 0.0
C481 C 0.32715 0.03368 0.22424 0.0
C482 C 0.34964 0.01136 0.29981 0.0
C483 C 0.30036 0.00298 0.21023 0.0
H484 H 0.30943 0.94706 0.23892 0.0
H485 H 0.28101 0.95869 0.32113 0.0
H486 H 0.32763 0.9877 0.19323 0.0
H487 H 0.34503 0.99153 0.22495 0.0
H488 H 0.33231 0.96967 0.20329 0.0
H489 H 0.28794 0.98836 0.33528 0.0
H490 H 0.31108 0.00573 0.32611 0.0
H491 H 0.29342 0.00226 0.29533 0.0
H492 H 0.3632 0.04632 0.2806 0.0
H493 H 0.32147 0.0395 0.20596 0.0
H494 H 0.35087 8e-05 0.28771 0.0
H495 H 0.34039 0.00571 0.32336 0.0
H496 H 0.36325 0.02191 0.30961 0.0
H497 H 0.3008 0.99153 0.19682 0.0
H498 H 0.29746 0.01067 0.18956 0.0
H499 H 0.28894 -0.00298 0.22977 0.0
C500 C 0.03259 0.34593 0.23651 0.0
C501 C 0.03735 0.33823 0.26495 0.0
C502 C 0.01441 0.33867 0.22619 0.0
C503 C 0.00078 0.32349 0.24505 0.0
C504 C 0.00548 0.3159 0.27427 0.0
C505 C 0.02378 0.32334 0.28378 0.0
C506 C 0.0098 0.34699 0.19481 0.0
C507 C 0.99121 0.29982 0.29526 0.0
C508 C 0.95159 0.31129 0.24526 0.0
C509 C 0.9438 0.2957 0.22351 0.0
C510 C 0.97037 0.32115 0.251 0.0
C511 C 0.98152 0.3153 0.23428 0.0
C512 C 0.97388 0.3004 0.21013 0.0
C513 C 0.95502 0.29069 0.20512 0.0
C514 C 0.97809 0.33699 0.27693 0.0
C515 C 0.98548 0.29402 0.19142 0.0
H516 H 0.04312 0.35743 0.22182 0.0
H517 H 0.02746 0.31742 0.30583 0.0
H518 H 0.00334 0.33679 0.17299 0.0
H519 H -0.00016 0.35109 0.2033 0.0
H520 H 0.022 0.35909 0.18365 0.0
H521 H -0.00287 0.29586 0.31782 0.0
H522 H 0.98102 0.30302 0.30648 0.0
H523 H 0.98387 0.28796 0.27702 0.0
H524 H 0.94294 0.31526 0.25936 0.0
H525 H 0.94901 0.27872 0.18805 0.0
H526 H 0.99018 0.3489 0.26513 0.0
H527 H 0.98257 0.3332 0.30197 0.0
H528 H 0.96796 0.34108 0.28431 0.0
H529 H -0.00247 0.30565 0.17882 0.0
H530 H 0.9778 0.2837 0.17029 0.0
H531 H 0.99052 0.28791 0.21155 0.0
C532 C 0.68445 0.64268 0.27492 0.0
C533 C 0.69763 0.64947 0.2476 0.0
C534 C 0.6749 0.65156 0.28407 0.0
C535 C 0.67852 0.66747 0.26514 0.0
C536 C 0.69171 0.67433 0.23733 0.0
C537 C 0.70122 0.66526 0.22898 0.0
C538 C 0.661 0.64397 0.31407 0.0
C539 C 0.69574 0.6912 0.21639 0.0
C540 C 0.64234 0.68095 0.26444 0.0
C541 C 0.64937 0.69527 0.28938 0.0
C542 C 0.65167 0.6717 0.25644 0.0
C543 C 0.66829 0.67681 0.27414 0.0
C544 C 0.67521 0.6909 0.30013 0.0
C545 C 0.66567 0.70006 0.30734 0.0
C546 C 0.64395 0.65676 0.22847 0.0
C547 C 0.6928 0.69649 0.31983 0.0
H548 H 0.68173 0.63052 0.28954 0.0
H549 H 0.71141 0.6705 0.20785 0.0
H550 H 0.66458 0.65436 0.33545 0.0
H551 H 0.64741 0.64051 0.30354 0.0
H552 H 0.66001 0.63159 0.32645 0.0
H553 H 0.70634 0.69468 0.19545 0.0
H554 H 0.68318 0.68922 0.20306 0.0
H555 H 0.70038 0.70291 0.23504 0.0
H556 H 0.62977 0.67727 0.25039 0.0
H557 H 0.67111 0.71112 0.32666 0.0
H558 H 0.64203 0.64392 0.24029 0.0
H559 H 0.65365 0.66039 0.20571 0.0
H560 H 0.6307 0.65427 0.21762 0.0
H561 H 0.69211 0.68456 0.33362 0.0
H562 H 0.69594 0.70726 0.3402 0.0
H563 H 0.70419 0.70161 0.30024 0.0
C564 C 0.65384 0.95589 0.73683 0.0
C565 C 0.65932 0.94907 0.7657 0.0
C566 C 0.66325 0.97441 0.72838 0.0
C567 C 0.67835 0.98641 0.74966 0.0
C568 C 0.68418 0.97959 0.77845 0.0
C569 C 0.67463 0.96089 0.78601 0.0
C570 C 0.65676 0.98118 0.69724 0.0
C571 C 0.70014 0.99209 0.80191 0.0
C572 C 0.70997 0.03381 0.71361 0.0
C573 C 0.70313 0.04379 0.73089 0.0
C574 C 0.70206 0.01503 0.71945 0.0
C575 C 0.68712 0.00623 0.74335 0.0
C576 C 0.68014 0.01627 0.76072 0.0
C577 C 0.68817 0.03492 0.75411 0.0
C578 C 0.70965 0.00463 0.70016 0.0
C579 C 0.66424 0.00733 0.78646 0.0
H580 H 0.64213 0.94672 0.72076 0.0
H581 H 0.67889 0.9556 0.80826 0.0
H582 H 0.65169 0.9901 0.70754 0.0
H583 H 0.66818 0.98945 0.67859 0.0
H584 H 0.64566 0.96989 0.68173 0.0
H585 H 0.70355 0.98452 0.82192 0.0
H586 H 0.71229 0.00049 0.78498 0.0
H587 H 0.69698 0.00155 0.81663 0.0
H588 H 0.72156 0.04067 0.6957 0.0
H589 H 0.6829 0.04262 0.76769 0.0
H590 H 0.69888 0.99365 0.68357 0.0
H591 H 0.71425 -0.00196 0.72011 0.0
H592 H 0.72128 0.0135 0.68234 0.0
H593 H 0.6521 -0.00337 0.77219 0.0
H594 H 0.66074 0.01718 0.79837 0.0
H595 H 0.66741 0.0006 0.8087 0.0
C596 C 0.02983 0.68583 0.71839 0.0
C597 C 0.03518 0.69677 0.74936 0.0
C598 C 0.01165 0.67663 0.70724 0.0
C599 C -0.00145 0.6782 0.72801 0.0
C600 C 0.00391 0.68938 0.75912 0.0
C601 C 0.02226 0.6987 0.76927 0.0
C602 C 0.00642 0.66504 0.67362 0.0
C603 C 0.9902 0.69114 0.78217 0.0
C604 C 0.95179 0.66511 0.6924 0.0
C605 C 0.94121 0.64809 0.70868 0.0
C606 C 0.97072 0.67479 0.69698 0.0
C607 C 0.97905 0.66728 0.71864 0.0
C608 C 0.96851 0.64969 0.73353 0.0
C609 C 0.9497 0.64025 0.72814 0.0
C610 C 0.98167 0.69338 0.68011 0.0
C611 C 0.97693 0.64126 0.75688 0.0
H612 H 0.03989 0.68453 0.70269 0.0
H613 H 0.02643 0.7072 0.79317 0.0
H614 H -0.0026 0.65055 0.68085 0.0
H615 H -0.0013 0.66891 0.65498 0.0
H616 H 0.01846 0.66634 0.65911 0.0
H617 H -0.00332 0.70076 0.80497 0.0
H618 H 0.98254 0.6959 0.76554 0.0
H619 H 0.9802 0.67765 0.79331 0.0
H620 H 0.94525 0.67115 0.67719 0.0
H621 H 0.94156 0.62704 0.74065 0.0
H622 H -0.00632 0.69454 0.66579 0.0
H623 H 0.9868 0.7039 0.70155 0.0
H624 H 0.9735 0.69635 0.66076 0.0
H625 H 0.98846 0.64137 0.74262 0.0
H626 H 0.96698 0.62703 0.76458 0.0
H627 H 0.98243 0.64939 0.78189 0.0
C628 C 0.31713 0.28918 0.72486 0.0
C629 C 0.33198 0.29107 0.74479 0.0
C630 C 0.30919 0.29975 0.73293 0.0
C631 C 0.31619 0.31229 0.76185 0.0
C632 C 0.33115 0.31421 0.78215 0.0
C633 C 0.33895 0.30362 0.7732 0.0
C634 C 0.29338 0.29756 0.71045 0.0
C635 C 0.33883 0.32739 0.81331 0.0
C636 C 0.30593 0.35061 0.75834 0.0
C637 C 0.2905 0.34385 0.78042 0.0
C638 C 0.31476 0.34067 0.75285 0.0
C639 C 0.30806 0.32368 0.7702 0.0
C640 C 0.29301 0.31717 0.79388 0.0
C641 C 0.28431 0.32734 0.79859 0.0
C642 C 0.33075 0.34797 0.72728 0.0
C643 C 0.28573 0.29919 0.81317 0.0
H644 H 0.31176 0.27948 0.70287 0.0
H645 H 0.35038 0.305 0.7888 0.0
H646 H 0.28133 0.2935 0.72791 0.0
H647 H 0.29681 0.31073 0.69776 0.0
H648 H 0.28962 0.28722 0.68885 0.0
H649 H 0.35031 0.32698 0.82676 0.0
H650 H 0.34368 0.34144 0.80367 0.0
H651 H 0.32804 0.32423 0.83361 0.0
H652 H 0.31077 0.36341 0.74427 0.0
H653 H 0.27242 0.32215 0.8158 0.0
H654 H 0.32719 0.33884 0.70355 0.0
H655 H 0.34259 0.34828 0.74065 0.0
H656 H 0.33487 0.36188 0.71756 0.0
H657 H 0.28008 0.28796 0.79319 0.0
H658 H 0.27488 0.29679 0.83283 0.0
H659 H 0.29686 0.29862 0.82768 0.0
C660 C 0.98851 0.36048 0.57234 0.0
C661 C 0.00367 0.37437 0.58996 0.0
C662 C 0.9814 0.34233 0.58272 0.0
C663 C 0.98958 0.33812 0.61162 0.0
C664 C 0.00492 0.35208 0.62945 0.0
C665 C 0.01186 0.3701 0.61825 0.0
C666 C 0.9651 0.32768 0.56285 0.0
C667 C 0.01385 0.34801 0.66052 0.0
C668 C 0.9581 0.29229 0.65286 0.0
C669 C 0.96319 0.28128 0.63387 0.0
C670 C 0.96742 0.31114 0.64768 0.0
C671 C 0.98199 0.31898 0.62278 0.0
C672 C 0.98801 0.30808 0.6056 0.0
C673 C 0.97855 0.28931 0.61152 0.0
C674 C 0.96088 0.32248 0.66693 0.0
C675 C 0.00352 0.31601 0.57889 0.0
H676 H 0.9822 0.36379 0.55044 0.0
H677 H 0.02355 0.38087 0.63206 0.0
H678 H 0.96841 0.31764 0.55128 0.0
H679 H 0.95362 0.32026 0.58189 0.0
H680 H 0.96054 0.33326 0.54065 0.0
H681 H 0.02577 0.36047 0.67134 0.0
H682 H 0.00388 0.3413 0.68265 0.0
H683 H 0.01837 0.33842 0.65176 0.0
H684 H 0.94631 0.2861 0.6704 0.0
H685 H 0.9826 0.28083 0.59698 0.0
H686 H 0.95409 0.32701 0.64732 0.0
H687 H 0.97252 0.33485 0.67865 0.0
H688 H 0.95108 0.31477 0.68883 0.0
H689 H -0.00077 0.32018 0.5541 0.0
H690 H 0.00786 0.30611 0.5712 0.0
H691 H 0.0154 0.32832 0.59013 0.0
C692 C 0.61861 0.64466 0.56764 0.0
C693 C 0.60945 0.62819 0.54873 0.0
C694 C 0.63752 0.6538 0.57125 0.0
C695 C 0.64746 0.64639 0.55509 0.0
C696 C 0.63843 0.63054 0.5336 0.0
C697 C 0.61943 0.62152 0.53083 0.0
C698 C 0.6467 0.67066 0.59448 0.0
C699 C 0.6487 0.62251 0.51537 0.0
C700 C 0.69858 0.67673 0.55302 0.0
C701 C 0.70376 0.67048 0.58328 0.0
C702 C 0.6803 0.66866 0.54278 0.0
C703 C 0.66696 0.65424 0.56372 0.0
C704 C 0.67214 0.64778 0.59415 0.0
C705 C 0.69055 0.65591 0.60341 0.0
C706 C 0.67523 0.67568 0.5099 0.0
C707 C 0.6582 0.63255 0.61738 0.0
H708 H 0.61093 0.64991 0.58138 0.0
H709 H 0.61237 0.60885 0.51597 0.0
H710 H 0.65201 0.66768 0.61937 0.0
H711 H 0.65846 0.68178 0.58009 0.0
H712 H 0.63726 0.67555 0.60241 0.0
H713 H 0.64007 0.61166 0.49585 0.0
H714 H 0.66077 0.63322 0.50095 0.0
H715 H 0.65368 0.61658 0.53604 0.0
H716 H 0.70884 0.6879 0.53721 0.0
H717 H 0.69458 0.65109 0.6268 0.0
H718 H 0.66669 0.68158 0.518 0.0
H719 H 0.66704 0.66434 0.49103 0.0
H720 H 0.68737 0.68626 0.49533 0.0
H721 H 0.64869 0.63656 0.62908 0.0
H722 H 0.66453 0.62897 0.63979 0.0
H723 H 0.65001 0.62024 0.60072 0.0
C724 C 0.31275 0.0241 0.59459 0.0
C725 C 0.31781 0.03889 0.61781 0.0
C726 C 0.32402 0.01669 0.58966 0.0
C727 C 0.34066 0.02417 0.60867 0.0
C728 C 0.34585 0.03906 0.63227 0.0
C729 C 0.33435 0.04634 0.63646 0.0
C730 C 0.3181 0.00083 0.56412 0.0
C731 C 0.36347 0.0472 0.65314 0.0
C732 C 0.3588 0.99198 0.61904 0.0
C733 C 0.37151 -0.00235 0.59094 0.0
C734 C 0.3492 0.00103 0.62612 0.0
C735 C 0.3523 0.01596 0.60429 0.0
C736 C 0.36546 0.02206 0.57644 0.0
C737 C 0.37501 0.01284 0.57018 0.0
C738 C 0.33532 0.99424 0.65619 0.0
C739 C 0.36896 0.03787 0.55249 0.0
H740 H 0.30001 0.01839 0.57994 0.0
H741 H 0.33826 0.05779 0.65439 0.0
H742 H 0.32857 0.00428 0.54296 0.0
H743 H 0.31669 0.98886 0.57901 0.0
H744 H 0.30493 -0.00306 0.55076 0.0
H745 H 0.36557 0.05887 0.67014 0.0
H746 H 0.36359 0.03671 0.6708 0.0
H747 H 0.3751 0.05189 0.63426 0.0
H748 H 0.35623 0.98034 0.63538 0.0
H749 H 0.38489 0.01725 0.5485 0.0
H750 H 0.32149 0.98871 0.64466 0.0
H751 H 0.33773 0.00561 0.67437 0.0
H752 H 0.33562 0.98341 0.67247 0.0
H753 H 0.35661 0.0343 0.53632 0.0
H754 H 0.38051 0.04168 0.53372 0.0
H755 H 0.37188 0.0499 0.56909 0.0
C756 C 0.36333 0.37032 0.10241 0.0
C757 C 0.37741 0.37942 0.0774 0.0
C758 C 0.35553 0.35161 0.10792 0.0
C759 C 0.36194 0.34182 0.08778 0.0
C760 C 0.37648 0.35099 0.06316 0.0
C761 C 0.3841 0.36977 0.05829 0.0
C762 C 0.34008 0.34225 0.13454 0.0
C763 C 0.38359 0.34089 0.04125 0.0
C764 C 0.3476 0.29458 0.12213 0.0
C765 C 0.33203 0.28406 0.10129 0.0
C766 C 0.35792 0.31344 0.11726 0.0
C767 C 0.3525 0.3218 0.09083 0.0
C768 C 0.33716 0.31113 0.06886 0.0
C769 C 0.32706 0.29236 0.07445 0.0
C770 C 0.37421 0.32449 0.14117 0.0
C771 C 0.33105 0.31961 0.04026 0.0
H772 H 0.35825 0.3778 0.11745 0.0
H773 H 0.39505 0.37683 0.03904 0.0
H774 H 0.32746 0.33257 0.12005 0.0
H775 H 0.34309 0.33427 0.15423 0.0
H776 H 0.33747 0.35202 0.1496 0.0
H777 H 0.39581 0.35021 0.02522 0.0
H778 H 0.38709 0.33262 0.05919 0.0
H779 H 0.37286 0.33136 0.02247 0.0
H780 H 0.35147 0.28813 0.14283 0.0
H781 H 0.31511 0.28421 0.05806 0.0
H782 H 0.37153 0.33341 0.15892 0.0
H783 H 0.38631 0.33344 0.12458 0.0
H784 H 0.37745 0.31578 0.1584 0.0
H785 H 0.32666 0.32856 0.05321 0.0
H786 H 0.31958 0.30925 0.02388 0.0
H787 H 0.3425 0.32821 0.02192 0.0
C788 C 0.62002 0.00984 0.04416 0.0
C789 C 0.61028 0.99312 0.06201 0.0
C790 C 0.63886 0.02079 0.04917 0.0
C791 C 0.64796 0.01488 0.07281 0.0
C792 C 0.63812 -0.00195 0.09097 0.0
C793 C 0.61943 0.98734 0.08517 0.0
C794 C 0.64905 0.0386 0.0291 0.0
C795 C 0.64735 0.99132 0.11652 0.0
C796 C 0.69787 0.03036 0.06497 0.0
C797 C 0.70512 0.04245 0.09406 0.0
C798 C 0.67938 0.02208 0.05646 0.0
C799 C 0.66788 0.02581 0.0779 0.0
C800 C 0.67522 0.0385 0.10655 0.0
C801 C 0.69387 0.0468 0.11418 0.0
C802 C 0.67206 0.00874 0.02548 0.0
C803 C 0.66326 0.04264 0.13015 0.0
H804 H 0.61294 0.01434 0.02631 0.0
H805 H 0.61192 0.97447 0.09925 0.0
H806 H 0.65617 0.04996 0.04851 0.0
H807 H 0.65959 0.03848 0.01161 0.0
H808 H 0.63992 0.04133 0.01204 0.0
H809 H 0.63759 0.97818 0.12939 0.0
H810 H 0.65769 0.9895 0.10176 0.0
H811 H 0.65455 0.00151 0.13806 0.0
H812 H 0.70663 0.0272 0.04901 0.0
H813 H 0.69952 0.05623 0.13656 0.0
H814 H 0.66354 0.01188 0.00752 0.0
H815 H 0.66327 0.99479 0.03613 0.0
H816 H 0.68309 0.00884 0.00917 0.0
H817 H 0.65461 0.04611 0.11334 0.0
H818 H 0.6713 0.05405 0.14906 0.0
H819 H 0.65403 0.0304 0.14616 0.0
C820 C 0.95704 0.66042 0.12928 0.0
C821 C 0.96013 0.67595 0.11028 0.0
C822 C 0.96747 0.65219 0.12222 0.0
C823 C 0.98109 0.65962 0.09527 0.0
C824 C 0.98469 0.67567 0.07692 0.0
C825 C 0.97421 0.68373 0.08482 0.0
C826 C 0.96351 0.63523 0.14273 0.0
C827 C -0.00093 0.68388 0.0479 0.0
C828 C 0.01595 0.64438 0.09513 0.0
C829 C 0.00838 0.6301 0.07008 0.0
C830 C 0.0074 0.65439 0.10311 0.0
C831 C 0.99103 0.6501 0.08527 0.0
C832 C 0.98372 0.63621 0.05883 0.0
C833 C -0.00754 0.62627 0.05167 0.0
C834 C 0.0155 0.66906 0.13159 0.0
C835 C 0.96639 0.63151 0.03891 0.0
H836 H 0.9462 0.65445 0.14906 0.0
H837 H 0.97659 0.69573 0.07 0.0
H838 H 0.9583 0.62353 0.12389 0.0
H839 H 0.97617 0.63688 0.15498 0.0
H840 H 0.9533 0.63191 0.16444 0.0
H841 H 0.00091 0.69701 0.03776 0.0
H842 H 0.0123 0.68616 0.05829 0.0
H843 H -0.00478 0.6743 0.02487 0.0
H844 H 0.02826 0.64735 0.10948 0.0
H845 H 0.98663 0.61527 0.03222 0.0
H846 H 0.00607 0.66519 0.15487 0.0
H847 H 0.01733 0.68205 0.12077 0.0
H848 H 0.02885 0.67138 0.14147 0.0
H849 H 0.95487 0.62621 0.05822 0.0
H850 H 0.96314 0.62112 0.01762 0.0
H851 H 0.96751 0.64386 0.02623 0.0
C852 C 0.64825 0.6203 0.94386 0.0
C853 C 0.63257 0.61254 0.96537 0.0
C854 C 0.65776 0.63899 0.93687 0.0
C855 C 0.65153 0.65011 0.9522 0.0
C856 C 0.63661 0.64258 0.97636 0.0
C857 C 0.62721 0.62379 0.98254 0.0
C858 C 0.67361 0.64656 0.91095 0.0
C859 C 0.62986 0.65417 0.99378 0.0
C860 C 0.68128 0.70127 0.94707 0.0
C861 C 0.67322 0.70541 0.91832 0.0
C862 C 0.67444 0.68328 0.95838 0.0
C863 C 0.65938 0.66918 0.94011 0.0
C864 C 0.65154 0.67323 0.91035 0.0
C865 C 0.65849 0.69138 0.89997 0.0
C866 C 0.68297 0.67942 0.99045 0.0
C867 C 0.63563 0.65844 0.88986 0.0
H868 H 0.65249 0.61164 0.93067 0.0
H869 H 0.61516 0.61782 0.99939 0.0
H870 H 0.66964 0.65042 0.88535 0.0
H871 H 0.68535 0.65901 0.92213 0.0
H872 H 0.67802 0.63656 0.90471 0.0
H873 H 0.61968 0.64671 0.01526 0.0
H874 H 0.64135 0.66661 1.00565 0.0
H875 H 0.62346 0.65857 0.97301 0.0
H876 H 0.69259 0.71215 0.96152 0.0
H877 H 0.65229 0.69459 0.87772 0.0
H878 H 0.68708 0.66933 0.98315 0.0
H879 H 0.67286 0.67341 0.01258 0.0
H880 H 0.69508 0.69187 1.00074 0.0
H881 H 0.63905 0.64821 0.87987 0.0
H882 H 0.6316 0.66385 0.86649 0.0
H883 H 0.62375 0.65129 0.90812 0.0
C884 C 0.35555 0.98456 0.95067 0.0
C885 C 0.36848 4e-05 0.93223 0.0
C886 C 0.33723 0.97578 0.94052 0.0
C887 C 0.33185 0.98261 0.91103 0.0
C888 C 0.34489 -0.00191 0.89196 0.0
C889 C 0.3631 0.00671 0.90295 0.0
C890 C 0.3236 0.95936 0.96165 0.0
C891 C 0.33959 0.0056 0.8602 0.0
C892 C 0.28588 0.94914 0.87219 0.0
C893 C 0.27463 0.95417 0.89044 0.0
C894 C 0.30476 0.95889 0.8772 0.0
C895 C 0.3124 0.97385 0.9012 0.0
C896 C 0.30119 0.97955 0.91818 0.0
C897 C 0.28241 0.96966 0.91245 0.0
C898 C 0.31641 0.95264 0.85826 0.0
C899 C 0.30889 -0.00456 0.94399 0.0
H900 H 0.35972 0.97939 0.97329 0.0
H901 H 0.37314 0.01862 0.88846 0.0
H902 H 0.31326 0.96208 0.97383 0.0
H903 H 0.31632 0.94752 0.94338 0.0
H904 H 0.33008 0.95565 0.98355 0.0
H905 H 0.35153 0.01731 0.84737 0.0
H906 H 0.33246 0.99484 0.83961 0.0
H907 H 0.32998 0.01009 0.86908 0.0
H908 H 0.27989 0.93722 0.85498 0.0
H909 H 0.27374 0.97364 0.92649 0.0
H910 H 0.32185 0.94688 0.87833 0.0
H911 H 0.32823 0.9643 0.84511 0.0
H912 H 0.30867 0.94211 0.83753 0.0
H913 H 0.31426 0.99208 0.96832 0.0
H914 H 0.29853 -0.00101 0.95269 0.0
H915 H 0.3204 0.00758 0.93134 0.0
C916 C 0.04802 0.34579 0.89837 0.0
C917 C 0.04261 0.32993 0.91847 0.0
C918 C 0.03957 0.35617 0.90343 0.0
C919 C 0.02551 0.3505 0.92929 0.0
C920 C 0.02048 0.33487 0.95057 0.0
C921 C 0.02908 0.32472 0.94482 0.0
C922 C 0.0452 0.37277 0.88026 0.0
C923 C 0.00558 0.3285 0.97853 0.0
C924 C 0.0095 0.38246 0.96125 0.0
C925 C -0.00643 0.37632 0.94097 0.0
C926 C 0.02033 0.37442 0.95723 0.0
C927 C 0.01504 0.36004 0.93228 0.0
C928 C -0.00082 0.35408 0.91119 0.0
C929 C 0.98859 0.36229 0.91587 0.0
C930 C 0.03717 0.38101 0.98019 0.0
C931 C -0.00682 0.3388 0.88421 0.0
H932 H 0.05854 0.34985 0.87807 0.0
H933 H 0.025 0.31253 0.96062 0.0
H934 H 0.03381 0.37043 0.86217 0.0
H935 H 0.04831 0.3847 0.89737 0.0
H936 H 0.05729 0.37611 0.8634 0.0
H937 H 0.00424 0.31684 0.99457 0.0
H938 H 0.00825 0.33976 0.99726 0.0
H939 H 0.99239 0.32429 0.96505 0.0
H940 H 0.01337 0.39334 0.98062 0.0
H941 H 0.97632 0.35761 0.89999 0.0
H942 H 0.04919 0.38479 0.96285 0.0
H943 H 0.03562 0.36991 0.99827 0.0
H944 H 0.03987 0.39293 0.997 0.0
H945 H 0.00431 0.34189 0.86481 0.0
H946 H 0.98094 0.33638 0.86882 0.0
H947 H 0.99005 0.32605 0.8984 0.0
C948 C 0.02568 0.70074 0.43033 0.0
C949 C 0.03947 0.70915 0.40448 0.0
C950 C 0.01768 0.68215 0.43745 0.0
C951 C 0.02353 0.67169 0.418 0.0
C952 C 0.03775 0.68014 0.39242 0.0
C953 C 0.04564 0.69887 0.38603 0.0
C954 C 0.00259 0.67362 0.46505 0.0
C955 C 0.0442 0.6693 0.37109 0.0
C956 C 0.00788 0.62466 0.4558 0.0
C957 C 0.99188 0.61427 0.43604 0.0
C958 C 0.01879 0.64339 0.44939 0.0
C959 C 0.01357 0.6517 0.42243 0.0
C960 C -0.00223 0.64109 0.40159 0.0
C961 C 0.98708 0.62252 0.40878 0.0
C962 C 0.03552 0.65438 0.47222 0.0
C963 C 0.99181 0.64946 0.37247 0.0
H964 H 0.02102 0.70869 0.44499 0.0
H965 H 0.05639 0.7054 0.36618 0.0
H966 H 0.98965 0.66396 0.45149 0.0
H967 H 0.00558 0.66576 0.48509 0.0
H968 H 0.00056 0.6839 0.47963 0.0
H969 H 0.0563 0.67812 0.3543 0.0
H970 H 0.04762 0.66115 0.38952 0.0
H971 H 0.03313 0.65962 0.3531 0.0
H972 H 0.01164 0.61825 0.47676 0.0
H973 H 0.97483 0.61446 0.3931 0.0
H974 H 0.03354 0.66392 0.48947 0.0
H975 H 0.0475 0.66268 0.45482 0.0
H976 H 0.03854 0.64565 0.4899 0.0
H977 H 0.98799 0.65897 0.38484 0.0
H978 H 0.97999 0.63907 0.35688 0.0
H979 H 0.00316 0.65744 0.35348 0.0
C980 C 0.2846 0.33564 0.37218 0.0
C981 C 0.27539 0.31867 0.38925 0.0
C982 C 0.30347 0.34674 0.37607 0.0
C983 C 0.31311 0.34069 0.39778 0.0
C984 C 0.30393 0.32331 0.41402 0.0
C985 C 0.28517 0.31246 0.40937 0.0
C986 C 0.31299 0.36512 0.35794 0.0
C987 C 0.3138 0.31644 0.43746 0.0
C988 C 0.36403 0.36121 0.39329 0.0
C989 C 0.36959 0.37239 0.42391 0.0
C990 C 0.3457 0.35143 0.3834 0.0
C991 C 0.33268 0.35271 0.40502 0.0
C992 C 0.33826 0.36432 0.43549 0.0
C993 C 0.35674 0.37416 0.44446 0.0
C994 C 0.3402 0.33931 0.35051 0.0
C995 C 0.32466 0.36581 0.45936 0.0
H996 H 0.27703 0.34041 0.35652 0.0
H997 H 0.27809 0.29931 0.42254 0.0
H998 H 0.31831 0.37599 0.3787 0.0
H999 H 0.3248 0.36674 0.34213 0.0
H1000 H 0.30379 0.36716 0.33966 0.0
H1001 H 0.3047 0.30234 0.44716 0.0
H1002 H 0.3252 0.31674 0.42228 0.0
H1003 H 0.31972 0.32545 0.46125 0.0
H1004 H 0.37402 0.36003 0.3771 0.0
H1005 H 0.36108 0.38286 0.46806 0.0
H1006 H 0.33136 0.34208 0.33268 0.0
H1007 H 0.33222 0.32486 0.35893 0.0
H1008 H 0.35214 0.3412 0.33472 0.0
H1009 H 0.3159 0.36931 0.443 0.0
H1010 H 0.33133 0.37623 0.48081 0.0
H1011 H 0.31564 0.3525 0.47239 0.0
C1012 C 0.6524 0.94995 0.38178 0.0
C1013 C 0.66814 0.95491 0.40199 0.0
C1014 C 0.64243 0.95884 0.38681 0.0
C1015 C 0.64832 0.97284 0.41288 0.0
C1016 C 0.66428 0.97798 0.43313 0.0
C1017 C 0.67406 0.96899 0.4273 0.0
C1018 C 0.62557 0.95322 0.36445 0.0
C1019 C 0.67091 0.99283 0.46125 0.0
C1020 C 0.63305 0.00756 0.40687 0.0
C1021 C 0.61915 0.00103 0.43272 0.0
C1022 C 0.64242 -0.00171 0.3996 0.0
C1023 C 0.63788 0.98223 0.41898 0.0
C1024 C 0.6238 0.97551 0.44504 0.0
C1025 C 0.6145 0.98497 0.45148 0.0
C1026 C 0.65726 0.00574 0.37141 0.0
C1027 C 0.61877 0.95849 0.46642 0.0
H1028 H 0.64783 0.93906 0.36216 0.0
H1029 H 0.6862 0.97281 0.44307 0.0
H1030 H 0.61354 0.94828 0.38235 0.0
H1031 H 0.62684 0.9651 0.34943 0.0
H1032 H 0.62304 0.94232 0.34482 0.0
H1033 H 0.68357 -0.00487 0.47476 0.0
H1034 H 0.67354 0.00577 0.44862 0.0
H1035 H 0.66027 0.98927 0.48209 0.0
H1036 H 0.63656 0.01991 0.3921 0.0
H1037 H 0.60374 0.97992 0.47145 0.0
H1038 H 0.65445 -0.00478 0.35069 0.0
H1039 H 0.67048 0.00936 0.3841 0.0
H1040 H 0.65861 0.018 0.35775 0.0
H1041 H 0.61496 0.94689 0.44787 0.0
H1042 H 0.60728 0.95491 0.48522 0.0
H1043 H 0.63068 0.96038 0.4823 0.0
C1044 C 0.29416 0.06156 0.48993 0.0
C1045 C 0.29836 0.0752 0.51557 0.0
C1046 C 0.30309 0.06573 0.45631 0.0
C1047 C 0.3162 0.084 0.44799 0.0
C1048 C 0.31977 0.0979 0.47324 0.0
C1049 C 0.31098 0.09329 0.50683 0.0
C1050 C 0.29906 0.0505 0.43028 0.0
C1051 C 0.33322 0.11759 0.46514 0.0
C1052 C 0.35257 0.09378 0.37702 0.0
C1053 C 0.34489 0.09686 0.34629 0.0
C1054 C 0.34333 0.08947 0.41033 0.0
C1055 C 0.32626 0.08864 0.413 0.0
C1056 C 0.31882 0.09238 0.38224 0.0
C1057 C 0.32812 0.09624 0.34925 0.0
C1058 C 0.35161 0.08535 0.44244 0.0
C1059 C 0.30093 0.09213 0.38404 0.0
H1060 H 0.28465 0.04753 0.49689 0.0
H1061 H 0.31427 0.10387 0.52671 0.0
H1062 H 0.29467 0.05315 0.40388 0.0
H1063 H 0.31159 0.04981 0.42544 0.0
H1064 H 0.28829 0.03708 0.44047 0.0
H1065 H 0.3336 0.12685 0.48672 0.0
H1066 H 0.34705 0.11945 0.46214 0.0
H1067 H 0.32973 0.12166 0.43923 0.0
H1068 H 0.36542 0.09405 0.37469 0.0
H1069 H 0.32216 0.09868 0.32553 0.0
H1070 H 0.34219 0.07138 0.45233 0.0
H1071 H 0.35364 0.09483 0.46485 0.0
H1072 H 0.36489 0.08645 0.43591 0.0
H1073 H 0.28986 0.07833 0.39141 0.0
H1074 H 0.29737 0.09608 0.35801 0.0
H1075 H 0.30149 0.10158 0.40534 0.0
C1076 C 0.91738 0.24857 0.50723 0.0
C1077 C 0.91579 0.23179 0.51636 0.0
C1078 C 0.91258 0.25172 0.47291 0.0
C1079 C 0.90568 0.23763 0.44694 0.0
C1080 C 0.9039 0.22056 0.45597 0.0
C1081 C 0.90916 0.21788 0.49054 0.0
C1082 C 0.9152 0.27027 0.46429 0.0
C1083 C 0.89642 0.20515 0.42913 0.0
C1084 C 0.88134 0.24399 0.36612 0.0
C1085 C 0.895 0.25031 0.33981 0.0
C1086 C 0.8844 0.23929 0.40092 0.0
C1087 C 0.90162 0.24136 0.40967 0.0
C1088 C 0.9155 0.24805 0.38325 0.0
C1089 C 0.91196 0.25226 0.34871 0.0
C1090 C 0.8692 0.23198 0.42825 0.0
C1091 C 0.93421 0.251 0.39154 0.0
H1092 H 0.92257 0.25943 0.52701 0.0
H1093 H 0.90773 0.20484 0.49759 0.0
H1094 H 0.92489 0.27642 0.44153 0.0
H1095 H 0.90212 0.26903 0.45565 0.0
H1096 H 0.92048 0.27968 0.4877 0.0
H1097 H 0.89489 0.19243 0.4409 0.0
H1098 H 0.88296 0.20245 0.41919 0.0
H1099 H 0.90557 0.20897 0.40541 0.0
H1100 H 0.86817 0.24228 0.35922 0.0
H1101 H 0.92262 0.25723 0.32851 0.0
H1102 H 0.87322 0.24126 0.4518 0.0
H1103 H 0.86657 0.21858 0.43835 0.0
H1104 H 0.8564 0.23041 0.41683 0.0
H1105 H 0.94037 0.26081 0.41411 0.0
H1106 H 0.94348 0.25629 0.36793 0.0
H1107 H 0.93321 0.23805 0.40031 0.0
C1108 C 0.77277 0.67215 0.49755 0.0
C1109 C 0.76819 0.68561 0.50433 0.0
C1110 C 0.76993 0.66393 0.46352 0.0
C1111 C 0.76193 0.66901 0.43573 0.0
C1112 C 0.75806 0.68323 0.44193 0.0
C1113 C 0.76141 0.6915 0.47615 0.0
C1114 C 0.77468 0.64919 0.45788 0.0
C1115 C 0.7494 0.68896 0.41308 0.0
C1116 C 0.76381 0.65624 0.33815 0.0
C1117 C 0.74658 0.6408 0.33356 0.0
C1118 C 0.76918 0.66526 0.37147 0.0
C1119 C 0.75687 0.65891 0.4008 0.0
C1120 C 0.73962 0.643 0.39662 0.0
C1121 C 0.73474 0.63402 0.36308 0.0
C1122 C 0.78783 0.68186 0.37498 0.0
C1123 C 0.72606 0.63588 0.42718 0.0
H1124 H 0.77796 0.66753 0.51941 0.0
H1125 H 0.75755 0.70165 0.48154 0.0
H1126 H 0.76204 0.6359 0.45447 0.0
H1127 H 0.78283 0.65181 0.43291 0.0
H1128 H 0.78245 0.64811 0.48094 0.0
H1129 H 0.74818 0.70086 0.42142 0.0
H1130 H 0.75745 0.6924 0.3878 0.0
H1131 H 0.73561 0.67749 0.40688 0.0
H1132 H 0.77301 0.66153 0.31533 0.0
H1133 H 0.72134 0.62225 0.35947 0.0
H1134 H 0.79513 0.68035 0.39837 0.0
H1135 H 0.78653 0.69403 0.38006 0.0
H1136 H 0.79621 0.68432 0.35036 0.0
H1137 H 0.7321 0.63307 0.45114 0.0
H1138 H 0.71335 0.62323 0.41977 0.0
H1139 H 0.72254 0.64633 0.43516 0.0
C1140 C 0.097 0.35197 0.15148 0.0
C1141 C 0.09772 0.3426 0.18196 0.0
C1142 C 0.09405 0.34406 0.11689 0.0
C1143 C 0.09204 0.32652 0.11277 0.0
C1144 C 0.09377 0.31751 0.14331 0.0
C1145 C 0.09646 0.32559 0.17745 0.0
C1146 C 0.09226 0.3541 0.08499 0.0
C1147 C 0.09204 0.29898 0.14018 0.0
C1148 C 0.06464 0.29788 0.03235 0.0
C1149 C 0.07838 0.30111 0.00751 0.0
C1150 C 0.0689 0.30589 0.06684 0.0
C1151 C 0.08736 0.31723 0.07689 0.0
C1152 C 0.10128 0.31974 0.05256 0.0
C1153 C 0.09662 0.31175 0.01814 0.0
C1154 C 0.05364 0.30284 0.09197 0.0
C1155 C 0.1211 0.33141 0.06238 0.0
H1156 H 0.09776 0.36501 0.15489 0.0
H1157 H 0.09707 0.3183 0.20096 0.0
H1158 H 0.10172 0.35523 0.06319 0.0
H1159 H 0.07826 0.34635 0.07393 0.0
H1160 H 0.09511 0.36797 0.09228 0.0
H1161 H 0.09518 0.29446 0.16598 0.0
H1162 H 0.07798 0.28883 0.13201 0.0
H1163 H 0.10132 0.2991 0.11898 0.0
H1164 H 0.05052 0.2899 0.02417 0.0
H1165 H 0.10732 0.31437 0.99901 0.0
H1166 H 0.05431 0.316 0.09761 0.0
H1167 H 0.0551 0.29737 0.11815 0.0
H1168 H 0.04004 0.29328 0.08055 0.0
H1169 H 0.12441 0.34571 0.06597 0.0
H1170 H 0.13025 0.33103 0.04141 0.0
H1171 H 0.12394 0.32686 0.08841 0.0
C1172 C 0.65845 0.74226 0.18099 0.0
C1173 C 0.64169 0.74076 0.18987 0.0
C1174 C 0.66543 0.74654 0.14586 0.0
C1175 C 0.65565 0.74988 0.11895 0.0
C1176 C 0.63887 0.74878 0.12789 0.0
C1177 C 0.63193 0.74395 0.16322 0.0
C1178 C 0.68301 0.74692 0.13734 0.0
C1179 C 0.62822 0.75258 0.10007 0.0
C1180 C 0.68197 0.77306 0.03303 0.0
C1181 C 0.6757 0.75821 0.00959 0.0
C1182 C 0.67519 0.77069 0.06857 0.0
C1183 C 0.66233 0.75301 0.08096 0.0
C1184 C 0.6564 0.73798 0.05743 0.0
C1185 C 0.66295 0.74082 0.02199 0.0
C1186 C 0.68156 0.78708 0.09268 0.0
C1187 C 0.64324 0.71883 0.06975 0.0
H1188 H 0.66599 0.73968 0.20148 0.0
H1189 H 0.61906 0.74297 0.17014 0.0
H1190 H 0.68052 0.73642 0.11678 0.0
H1191 H 0.69302 0.76028 0.12576 0.0
H1192 H 0.68913 0.74436 0.16155 0.0
H1193 H 0.61627 0.75269 0.11198 0.0
H1194 H 0.6371 0.76591 0.08697 0.0
H1195 H 0.62336 0.74207 0.07863 0.0
H1196 H 0.69166 0.78653 0.02325 0.0
H1197 H 0.65818 0.7293 1.00385 0.0
H1198 H 0.68854 0.78569 0.11674 0.0
H1199 H 0.66969 0.78796 0.10251 0.0
H1200 H 0.69103 0.79995 0.0786 0.0
H1201 H 0.64887 0.71534 0.09349 0.0
H1202 H 0.64029 0.7086 0.04826 0.0
H1203 H 0.63024 0.71779 0.0783 0.0
C1204 C 0.25455 0.91187 0.1645 0.0
C1205 C 0.24776 0.8947 0.18038 0.0
C1206 C 0.24965 0.91378 0.12936 0.0
C1207 C 0.2372 0.89813 0.10983 0.0
C1208 C 0.2304 0.88068 0.12562 0.0
C1209 C 0.23595 0.87914 0.16071 0.0
C1210 C 0.25773 0.9326 0.11329 0.0
C1211 C 0.2169 0.86371 0.10583 0.0
C1212 C 0.21424 0.90778 0.03105 0.0
C1213 C 0.22469 0.90772 1.00187 0.0
C1214 C 0.21762 0.90389 0.06628 0.0
C1215 C 0.23199 0.90023 0.07242 0.0
C1216 C 0.24244 0.90004 0.04293 0.0
C1217 C 0.23858 0.90364 0.00814 0.0
C1218 C 0.20602 0.90397 0.09703 0.0
C1219 C 0.25816 0.89668 0.04821 0.0
H1220 H 0.26365 0.92391 0.17988 0.0
H1221 H 0.23042 0.8659 0.17333 0.0
H1222 H 0.26474 0.9333 0.08758 0.0
H1223 H 0.24677 0.93566 0.10698 0.0
H1224 H 0.26762 0.9433 0.13172 0.0
H1225 H 0.21284 0.85119 0.12183 0.0
H1226 H 0.20454 0.86449 0.09941 0.0
H1227 H 0.22275 0.86262 0.07984 0.0
H1228 H 0.20343 0.91081 0.02634 0.0
H1229 H 0.2468 0.90363 0.98579 0.0
H1230 H 0.21442 0.91534 0.11567 0.0
H1231 H 0.2006 0.89117 0.11275 0.0
H1232 H 0.19445 0.90548 0.08749 0.0
H1233 H 0.26873 0.90761 0.06522 0.0
H1234 H 0.26448 0.89626 0.02226 0.0
H1235 H 0.25354 0.88364 0.06259 0.0
C1236 C 0.63714 0.89602 0.65016 0.0
C1237 C 0.64408 0.89039 0.67851 0.0
C1238 C 0.64532 0.89976 0.61584 0.0
C1239 C 0.66055 0.89749 0.60968 0.0
C1240 C 0.66706 0.89103 0.63787 0.0
C1241 C 0.65886 0.88774 0.672 0.0
C1242 C 0.63806 0.90675 0.58651 0.0
C1243 C 0.68295 0.88799 0.63223 0.0
C1244 C 0.67074 0.89301 0.51176 0.0
C1245 C 0.68486 0.91062 0.5038 0.0
C1246 C 0.66317 0.88838 0.54641 0.0
C1247 C 0.66964 0.90181 0.57371 0.0
C1248 C 0.68439 0.91947 0.56623 0.0
C1249 C 0.69196 0.92363 0.53132 0.0
C1250 C 0.64778 0.86931 0.55339 0.0
C1251 C 0.69157 0.93419 0.59459 0.0
H1252 H 0.62589 0.89833 0.65527 0.0
H1253 H 0.66426 0.88338 0.69392 0.0
H1254 H 0.64884 0.92044 0.57774 0.0
H1255 H 0.63413 0.8977 0.5626 0.0
H1256 H 0.62606 0.90765 0.59552 0.0
H1257 H 0.68574 0.88201 0.65639 0.0
H1258 H 0.68029 0.87879 0.60893 0.0
H1259 H 0.69534 0.90109 0.62583 0.0
H1260 H 0.66523 0.88291 0.49044 0.0
H1261 H 0.70269 0.93732 0.52506 0.0
H1262 H 0.63509 0.86959 0.55889 0.0
H1263 H 0.65073 0.86353 0.5776 0.0
H1264 H 0.64534 0.86011 0.53014 0.0
H1265 H 0.68075 0.93722 0.60237 0.0
H1266 H 0.70358 0.94694 0.58502 0.0
H1267 H 0.69543 0.9295 0.61925 0.0
C1268 C 0.09554 0.77124 0.50496 0.0
C1269 C 0.07787 0.76765 0.49726 0.0
C1270 C 0.10009 0.76759 0.53912 0.0
C1271 C 0.08656 0.75987 0.56614 0.0
C1272 C 0.06882 0.75678 0.55892 0.0
C1273 C 0.06472 0.76086 0.52457 0.0
C1274 C 0.11924 0.77147 0.54592 0.0
C1275 C 0.05399 0.74848 0.587 0.0
C1276 C 0.09172 0.73221 0.64148 0.0
C1277 C 0.09663 0.74426 0.6706 0.0
C1278 C 0.08865 0.73721 0.60709 0.0
C1279 C 0.09087 0.75475 0.60175 0.0
C1280 C 0.09679 0.76726 0.63072 0.0
C1281 C 0.09944 0.76181 0.66483 0.0
C1282 C 0.08225 0.72345 0.5769 0.0
C1283 C 0.09971 0.7862 0.62604 0.0
H1284 H 0.10576 0.77651 0.48386 0.0
H1285 H 0.051 0.75786 0.51855 0.0
H1286 H 0.12486 0.77992 0.57052 0.0
H1287 H 0.11915 0.75854 0.55071 0.0
H1288 H 0.12846 0.77862 0.52289 0.0
H1289 H 0.04107 0.74739 0.5775 0.0
H1290 H 0.05138 0.73469 0.59414 0.0
H1291 H 0.05834 0.75675 0.61202 0.0
H1292 H 0.0893 0.71857 0.64602 0.0
H1293 H 0.10325 0.77116 0.68736 0.0
H1294 H 0.09134 0.72919 0.55317 0.0
H1295 H 0.06842 0.72015 0.56823 0.0
H1296 H 0.08183 0.71065 0.58505 0.0
H1297 H 0.10887 0.79306 0.60283 0.0
H1298 H 0.10565 0.79471 0.6505 0.0
H1299 H 0.08654 0.78544 0.62004 0.0
C1300 C 0.22941 0.30106 0.52917 0.0
C1301 C 0.22297 0.30733 0.50104 0.0
C1302 C 0.234 0.30997 0.56286 0.0
C1303 C 0.23165 0.32518 0.5687 0.0
C1304 C 0.22447 0.33107 0.5407 0.0
C1305 C 0.22046 0.32224 0.50714 0.0
C1306 C 0.24186 0.30343 0.59185 0.0
C1307 C 0.22121 0.34684 0.54602 0.0
C1308 C 0.22837 0.33739 0.66607 0.0
C1309 C 0.24569 0.35245 0.67208 0.0
C1310 C 0.22351 0.32868 0.63241 0.0
C1311 C 0.23647 0.33485 0.60419 0.0
C1312 C 0.25394 0.35025 0.60992 0.0
C1313 C 0.25828 0.35903 0.64374 0.0
C1314 C 0.20458 0.3127 0.62723 0.0
C1315 C 0.26823 0.35708 0.58071 0.0
H1316 H 0.2316 0.28972 0.52435 0.0
H1317 H 0.21545 0.32711 0.48541 0.0
H1318 H 0.25558 0.31458 0.59954 0.0
H1319 H 0.23325 0.2996 0.61639 0.0
H1320 H 0.24299 0.29154 0.583 0.0
H1321 H 0.21478 0.34919 0.52208 0.0
H1322 H 0.21231 0.34432 0.56979 0.0
H1323 H 0.23428 0.35943 0.55151 0.0
H1324 H 0.2186 0.33229 0.68799 0.0
H1325 H 0.27177 0.3705 0.64851 0.0
H1326 H 0.20528 0.30023 0.62173 0.0
H1327 H 0.19802 0.31505 0.60353 0.0
H1328 H 0.19581 0.31022 0.65126 0.0
H1329 H 0.27112 0.34616 0.57294 0.0
H1330 H 0.28114 0.36918 0.58938 0.0
H1331 H 0.26317 0.36067 0.55625 0.0
C1332 C 0.91597 0.66618 0.99363 0.0
C1333 C 0.91301 0.68031 1.00453 0.0
C1334 C 0.91188 0.65915 0.95857 0.0
C1335 C 0.90424 0.66612 0.93379 0.0
C1336 C 0.90128 0.68049 0.9445 0.0
C1337 C 0.90593 0.6876 0.97977 0.0
C1338 C 0.91579 0.64425 0.94809 0.0
C1339 C 0.89293 0.68809 0.91892 0.0
C1340 C 0.90986 0.65894 0.83464 0.0
C1341 C 0.89334 0.64318 0.82662 0.0
C1342 C 0.91345 0.66665 0.8692 0.0
C1343 C 0.90002 0.65868 0.89637 0.0
C1344 C 0.88318 0.64287 0.88835 0.0
C1345 C 0.88011 0.63515 0.8536 0.0
C1346 C 0.93179 0.68313 0.8768 0.0
C1347 C 0.86844 0.63413 0.91651 0.0
H1348 H 0.92157 0.6606 0.0127 0.0
H1349 H 0.90347 0.69839 0.9883 0.0
H1350 H 0.90301 0.63187 0.9401 0.0
H1351 H 0.92503 0.64857 0.92442 0.0
H1352 H 0.92216 0.64063 0.97038 0.0
H1353 H 0.89115 0.69895 0.93157 0.0
H1354 H 0.90161 0.69374 0.89463 0.0
H1355 H 0.87947 0.67704 0.90967 0.0
H1356 H 0.92017 0.66515 0.81386 0.0
H1357 H 0.86726 0.6231 0.84733 0.0
H1358 H 0.93885 0.67988 0.89822 0.0
H1359 H 0.93007 0.69447 0.88691 0.0
H1360 H 0.94063 0.68786 0.8525 0.0
H1361 H 0.87316 0.6289 0.93899 0.0
H1362 H 0.8557 0.62269 0.90535 0.0
H1363 H 0.8654 0.64437 0.92805 0.0
C1364 C 0.29953 0.22891 0.98502 0.0
C1365 C 0.30409 0.21963 0.01046 0.0
C1366 C 0.3069 0.23225 0.94997 0.0
C1367 C 0.31893 0.22595 0.94001 0.0
C1368 C 0.32284 0.2158 0.96509 0.0
C1369 C 0.31547 0.21287 1.00002 0.0
C1370 C 0.30239 0.24313 0.92404 0.0
C1371 C 0.33528 0.20853 0.95541 0.0
C1372 C 0.32553 0.22298 0.83935 0.0
C1373 C 0.34192 0.23916 0.83277 0.0
C1374 C 0.31825 0.21822 0.87424 0.0
C1375 C 0.32744 0.23004 0.90339 0.0
C1376 C 0.3444 0.24606 0.89719 0.0
C1377 C 0.35152 0.25038 0.8619 0.0
C1378 C 0.30034 0.20088 0.87962 0.0
C1379 C 0.3546 0.25903 0.92756 0.0
H1380 H 0.29096 0.2344 0.99306 0.0
H1381 H 0.3191 0.20574 0.01962 0.0
H1382 H 0.31499 0.25588 0.91672 0.0
H1383 H 0.29663 0.23536 0.89876 0.0
H1384 H 0.29251 0.2467 0.9356 0.0
H1385 H 0.33607 0.19997 0.97721 0.0
H1386 H 0.3305 0.20032 0.93034 0.0
H1387 H 0.34917 0.22 0.95008 0.0
H1388 H 0.31807 0.21423 0.81689 0.0
H1389 H 0.36407 0.26298 0.85686 0.0
H1390 H 0.28978 0.20419 0.88791 0.0
H1391 H 0.30153 0.19264 0.90155 0.0
H1392 H 0.29565 0.19249 0.85472 0.0
H1393 H 0.34639 0.26482 0.93837 0.0
H1394 H 0.36799 0.27039 0.91872 0.0
H1395 H 0.3568 0.25171 0.95001 0.0
C1396 C 0.76241 0.10146 0.83912 0.0
C1397 C 0.74553 0.10027 0.83308 0.0
C1398 C 0.76725 0.09823 0.87335 0.0
C1399 C 0.75479 0.09339 0.90222 0.0
C1400 C 0.73787 0.09258 0.89653 0.0
C1401 C 0.7335 0.0962 0.862 0.0
C1402 C 0.78555 0.09963 0.87841 0.0
C1403 C 0.72417 0.08734 0.92663 0.0
C1404 C 0.75871 0.06692 0.98142 0.0
C1405 C 0.76628 0.08042 0.00801 0.0
C1406 C 0.75507 0.07099 0.94666 0.0
C1407 C 0.75941 0.08902 0.93828 0.0
C1408 C 0.76794 0.10284 0.96455 0.0
C1409 C 0.77111 0.09834 0.99917 0.0
C1410 C 0.74585 0.05585 0.91942 0.0
C1411 C 0.77318 0.12229 0.9565 0.0
H1412 H 0.77179 0.10467 0.81681 0.0
H1413 H 0.72038 0.09509 0.85731 0.0
H1414 H 0.79304 0.10908 0.90086 0.0
H1415 H 0.78367 0.08614 0.88581 0.0
H1416 H 0.79406 0.10448 0.85367 0.0
H1417 H 0.71177 0.08757 0.91798 0.0
H1418 H 0.72012 0.07346 0.93637 0.0
H1419 H 0.73033 0.09673 0.94981 0.0
H1420 H 0.7547 0.05301 0.98836 0.0
H1421 H 0.77695 0.1088 0.01975 0.0
H1422 H 0.75398 0.05937 0.89424 0.0
H1423 H 0.73236 0.05406 0.91228 0.0
H1424 H 0.7439 0.0427 0.92974 0.0
H1425 H 0.78164 0.12708 0.93175 0.0
H1426 H 0.78083 0.13162 0.97906 0.0
H1427 H 0.76076 0.12316 0.95137 0.0
C1428 C -0.00755 0.43365 0.67624 0.0
C1429 C 0.00891 0.43386 0.67081 0.0
C1430 C 0.98439 0.43052 0.7105 0.0
C1431 C -0.00716 0.42722 0.74013 0.0
C1432 C 0.00984 0.4281 0.73512 0.0
C1433 C 0.01776 0.43155 0.70049 0.0
C1434 C 0.96649 0.43009 0.71466 0.0
C1435 C 0.01927 0.42461 0.76603 0.0
C1436 C 0.9794 0.43147 0.83603 0.0
C1437 C 0.96764 0.41324 0.84553 0.0
C1438 C 0.98735 0.43624 0.80163 0.0
C1439 C 0.98365 0.42243 0.7761 0.0
C1440 C 0.97125 0.40403 0.78505 0.0
C1441 C 0.96329 0.39966 0.81962 0.0
C1442 C 0.00018 0.45603 0.79304 0.0
C1443 C 0.96695 0.3889 0.75859 0.0
H1444 H 0.98555 0.43545 0.65333 0.0
H1445 H 0.03034 0.43144 0.69629 0.0
H1446 H 0.95568 0.41615 0.72203 0.0
H1447 H 0.96737 0.43928 0.7368 0.0
H1448 H 0.96235 0.43418 0.68952 0.0
H1449 H 0.03272 0.42649 0.7581 0.0
H1450 H 0.02123 0.43387 0.78884 0.0
H1451 H 0.01063 0.41049 0.77598 0.0
H1452 H 0.98285 0.44203 0.856 0.0
H1453 H 0.95445 0.38554 0.82698 0.0
H1454 H -0.00407 0.45988 0.76778 0.0
H1455 H 0.01407 0.45829 0.78855 0.0
H1456 H 0.00077 0.46518 0.81505 0.0
H1457 H 0.96179 0.39138 0.73297 0.0
H1458 H 0.95667 0.37537 0.76927 0.0
H1459 H 0.97954 0.38857 0.75212 0.0
C1460 C 0.5897 0.58402 0.83929 0.0
C1461 C 0.58753 0.56688 0.84713 0.0
C1462 C 0.5851 0.58787 0.80541 0.0
C1463 C 0.57779 0.57413 0.77874 0.0
C1464 C 0.57559 0.55676 0.7864 0.0
C1465 C 0.58068 0.55339 0.82048 0.0
C1466 C 0.58814 0.6067 0.79816 0.0
C1467 C 0.56765 0.54171 0.75876 0.0
C1468 C 0.55202 0.58096 0.70151 0.0
C1469 C 0.56504 0.58711 0.67396 0.0
C1470 C 0.55582 0.57632 0.73564 0.0
C1471 C 0.57316 0.57827 0.74243 0.0
C1472 C 0.58645 0.5849 0.71484 0.0
C1473 C 0.58216 0.58904 0.68093 0.0
C1474 C 0.54124 0.5691 0.76428 0.0
C1475 C 0.60526 0.58769 0.72114 0.0
H1476 H 0.59507 0.59453 0.85981 0.0
H1477 H 0.5788 0.54007 0.82662 0.0
H1478 H 0.5973 0.61278 0.77462 0.0
H1479 H 0.57505 0.60591 0.79131 0.0
H1480 H 0.5942 0.61592 0.82166 0.0
H1481 H 0.56633 0.52884 0.76923 0.0
H1482 H 0.55403 0.53912 0.75028 0.0
H1483 H 0.57637 0.54585 0.73433 0.0
H1484 H 0.53872 0.57928 0.69605 0.0
H1485 H 0.59232 0.59388 0.65971 0.0
H1486 H 0.54593 0.57822 0.7881 0.0
H1487 H 0.53854 0.55554 0.7735 0.0
H1488 H 0.52831 0.56786 0.75444 0.0
H1489 H 0.61187 0.59724 0.74393 0.0
H1490 H 0.6141 0.59318 0.69696 0.0
H1491 H 0.60433 0.57461 0.72869 0.0
C1492 C 0.42835 0.02474 0.82657 0.0
C1493 C 0.43424 0.01789 0.85464 0.0
C1494 C 0.42544 0.01721 0.79168 0.0
C1495 C 0.42873 0.00267 0.78473 0.0
C1496 C 0.4357 -0.00352 0.81255 0.0
C1497 C 0.43826 0.00409 0.84716 0.0
C1498 C 0.418 0.02421 0.76273 0.0
C1499 C 0.43973 0.98129 0.80619 0.0
C1500 C 0.40269 0.97091 0.70671 0.0
C1501 C 0.41546 0.97825 0.67878 0.0
C1502 C 0.40694 0.9785 0.7416 0.0
C1503 C 0.42442 0.99363 0.74867 0.0
C1504 C 0.43764 0.0004 0.72096 0.0
C1505 C 0.43297 0.9927 0.68638 0.0
C1506 C 0.39246 0.97086 0.77046 0.0
C1507 C 0.45651 0.01628 0.72742 0.0
H1508 H 0.42497 0.03521 0.83235 0.0
H1509 H 0.4428 -0.00128 0.86883 0.0
H1510 H 0.4268 0.02818 0.73843 0.0
H1511 H 0.40428 0.01325 0.75451 0.0
H1512 H 0.41696 0.0361 0.77193 0.0
H1513 H 0.44643 0.97904 0.8298 0.0
H1514 H 0.42689 0.96848 0.80051 0.0
H1515 H 0.44864 0.98431 0.78225 0.0
H1516 H 0.38908 0.95991 0.70085 0.0
H1517 H 0.44291 -0.00156 0.66484 0.0
H1518 H 0.38902 0.98134 0.77869 0.0
H1519 H 0.3976 0.96724 0.79476 0.0
H1520 H 0.37985 0.95861 0.76116 0.0
H1521 H 0.4557 0.02867 0.73315 0.0
H1522 H 0.4656 0.01903 0.70384 0.0
H1523 H 0.46273 0.01368 0.75136 0.0
C1524 C 0.55297 0.99208 0.17265 0.0
C1525 C 0.55523 0.97711 0.16554 0.0
C1526 C 0.5565 0.00011 0.20694 0.0
C1527 C 0.56276 0.9932 0.23473 0.0
C1528 C 0.56471 0.97782 0.22794 0.0
C1529 C 0.56075 0.96983 0.19342 0.0
C1530 C 0.55381 0.01618 0.21323 0.0
C1531 C 0.5715 0.97015 0.25685 0.0
C1532 C 0.58907 0.02433 0.31322 0.0
C1533 C 0.576 0.01743 0.34066 0.0
C1534 C 0.58492 0.01667 0.27841 0.0
C1535 C 0.56721 0.00205 0.27091 0.0
C1536 C 0.55375 -0.00429 0.29816 0.0
C1537 C 0.55837 0.00335 0.33276 0.0
C1538 C 0.59968 0.02371 0.25011 0.0
C1539 C 0.5346 0.98048 0.29109 0.0
H1540 H 0.54864 -0.00228 0.15112 0.0
H1541 H 0.5627 0.95839 0.18786 0.0
H1542 H 0.54456 0.01346 0.23647 0.0
H1543 H 0.56701 0.02836 0.22007 0.0
H1544 H 0.54806 0.01936 0.18924 0.0
H1545 H 0.5722 0.95812 0.24735 0.0
H1546 H 0.58525 0.98073 0.26581 0.0
H1547 H 0.56244 0.96615 0.28076 0.0
H1548 H 0.60278 0.03503 0.31944 0.0
H1549 H 0.54823 -0.002 0.354 0.0
H1550 H 0.5952 0.02794 0.22565 0.0
H1551 H 0.60235 0.0127 0.24191 0.0
H1552 H 0.61258 0.03545 0.25991 0.0
H1553 H 0.52886 0.98371 0.26718 0.0
H1554 H 0.52546 0.97795 0.31449 0.0
H1555 H 0.53473 0.96777 0.28499 0.0
C1556 C 0.9646 0.56495 0.31781 0.0
C1557 C 0.96933 0.55586 0.34329 0.0
C1558 C 0.97285 0.56931 0.28355 0.0
C1559 C 0.98582 0.56409 0.27446 0.0
C1560 C 0.98992 0.5541 0.29955 0.0
C1561 C 0.98178 0.55028 0.33378 0.0
C1562 C 0.96824 0.58013 0.25764 0.0
C1563 C 0.00328 0.54786 0.29063 0.0
C1564 C -0.00453 0.56295 0.17479 0.0
C1565 C 0.01196 0.57928 0.17033 0.0
C1566 C 0.98708 0.55764 0.20866 0.0
C1567 C -0.00484 0.56914 0.23876 0.0
C1568 C 0.01203 0.5855 0.23459 0.0
C1569 C 0.02036 0.59029 0.20039 0.0
C1570 C 0.96938 0.53988 0.21204 0.0
C1571 C 0.02096 0.59822 0.26601 0.0
H1572 H 0.95522 0.56955 0.32534 0.0
H1573 H 0.98549 0.54328 0.35353 0.0
H1574 H 0.98065 0.59331 0.25168 0.0
H1575 H 0.96334 0.57275 0.23171 0.0
H1576 H 0.95767 0.58289 0.26855 0.0
H1577 H 0.00409 0.53923 0.31226 0.0
H1578 H -0.00064 0.54003 0.26504 0.0
H1579 H 0.01702 0.55983 0.2866 0.0
H1580 H 0.98898 0.55435 0.15155 0.0
H1581 H 0.033 0.603 0.19687 0.0
H1582 H 0.95833 0.54254 0.21995 0.0
H1583 H 0.97047 0.53138 0.23355 0.0
H1584 H 0.96544 0.53201 0.18645 0.0
H1585 H 0.01179 0.60294 0.2765 0.0
H1586 H 0.03414 0.61029 0.25844 0.0
H1587 H 0.02336 0.59097 0.28833 0.0
C1588 C 0.43008 0.44924 0.18014 0.0
C1589 C 0.41189 0.44257 0.17002 0.0
C1590 C 0.43462 0.4459 0.21464 0.0
C1591 C 0.42064 0.43551 0.23968 0.0
C1592 C 0.40228 0.42939 0.23017 0.0
C1593 C 0.39813 0.43307 0.19547 0.0
C1594 C 0.45436 0.45293 0.22378 0.0
C1595 C 0.38697 0.41832 0.25615 0.0
C1596 C 0.42924 0.40999 0.31499 0.0
C1597 C 0.43156 0.42103 0.34488 0.0
C1598 C 0.42601 0.41469 0.28039 0.0
C1599 C 0.4252 0.43086 0.27564 0.0
C1600 C 0.42839 0.44245 0.3055 0.0
C1601 C 0.43148 0.43738 0.33966 0.0
C1602 C 0.42274 0.40201 0.24917 0.0
C1603 C 0.42788 0.45989 0.30168 0.0
H1604 H 0.44079 0.45657 0.16055 0.0
H1605 H 0.38405 0.42767 0.18768 0.0
H1606 H 0.45798 0.46083 0.24926 0.0
H1607 H 0.45668 0.44132 0.2281 0.0
H1608 H 0.46366 0.46171 0.20212 0.0
H1609 H 0.37352 0.41519 0.24523 0.0
H1610 H 0.38658 0.40534 0.26221 0.0
H1611 H 0.38929 0.42573 0.28203 0.0
H1612 H 0.42908 0.39726 0.3189 0.0
H1613 H 0.43328 0.44601 0.36266 0.0
H1614 H 0.43213 0.40951 0.22664 0.0
H1615 H 0.40868 0.39654 0.23893 0.0
H1616 H 0.42463 0.39042 0.25689 0.0
H1617 H 0.43723 0.46843 0.27992 0.0
H1618 H 0.43172 0.46792 0.32706 0.0
H1619 H 0.41399 0.45674 0.29392 0.0
C1620 C 0.3369 0.20339 0.16217 0.0
C1621 C 0.31848 0.19776 0.16712 0.0
C1622 C 0.34384 0.19216 0.1722 0.0
C1623 C 0.33214 0.17515 0.18845 0.0
C1624 C 0.31369 0.16975 0.19496 0.0
C1625 C 0.30698 0.18105 0.18367 0.0
C1626 C 0.36348 0.19816 0.16404 0.0
C1627 C 0.30097 0.1519 0.21312 0.0
C1628 C 0.34339 0.13748 0.17981 0.0
C1629 C 0.35197 0.13881 0.21281 0.0
C1630 C 0.33713 0.14947 0.1713 0.0
C1631 C 0.33902 0.16265 0.19696 0.0
C1632 C 0.3476 0.16396 0.23045 0.0
C1633 C 0.35424 0.15215 0.23778 0.0
C1634 C 0.32851 0.14803 0.13488 0.0
C1635 C 0.34941 0.17755 0.25876 0.0
H1636 H 0.34575 0.21627 0.14906 0.0
H1637 H 0.29275 0.17677 0.18761 0.0
H1638 H 0.37063 0.19804 0.18899 0.0
H1639 H 0.36415 0.18849 0.14484 0.0
H1640 H 0.37087 0.21201 0.15212 0.0
H1641 H 0.28749 0.15047 0.21902 0.0
H1642 H 0.2989 0.14046 0.19552 0.0
H1643 H 0.30701 0.15065 0.23876 0.0
H1644 H 0.34171 0.12715 0.16053 0.0
H1645 H 0.36068 0.15297 0.26352 0.0
H1646 H 0.33573 0.16131 0.1207 0.0
H1647 H 0.31417 0.14462 0.13837 0.0
H1648 H 0.32876 0.13751 0.11749 0.0
H1649 H 0.3574 0.19157 0.24795 0.0
H1650 H 0.35615 0.17657 0.28369 0.0
H1651 H 0.33576 0.17532 0.26597 0.0
C1652 C 0.79573 0.12015 0.19204 0.0
C1653 C 0.79805 0.11387 0.1587 0.0
C1654 C 0.80763 0.13807 0.20304 0.0
C1655 C 0.82159 0.15004 0.17933 0.0
C1656 C 0.82404 0.14365 0.14573 0.0
C1657 C 0.81241 0.12548 0.13611 0.0
C1658 C 0.80508 0.14426 0.23965 0.0
C1659 C 0.83839 0.15617 0.11926 0.0
C1660 C 0.83826 0.20032 0.18973 0.0
C1661 C 0.85543 0.2065 0.20494 0.0
C1662 C 0.82715 0.18193 0.18086 0.0
C1663 C 0.83314 0.16947 0.1889 0.0
C1664 C 0.8503 0.17564 0.20526 0.0
C1665 C 0.86144 0.19422 0.21241 0.0
C1666 C 0.80919 0.17592 0.16228 0.0
C1667 C 0.85682 0.16263 0.21541 0.0
H1668 H 0.7846 0.11105 0.20945 0.0
H1669 H 0.81398 0.12058 0.11009 0.0
H1670 H 0.81816 0.15096 0.25458 0.0
H1671 H 0.80064 0.15444 0.23641 0.0
H1672 H 0.79479 0.13281 0.25618 0.0
H1673 H 0.83857 0.14898 0.09436 0.0
H1674 H 0.83587 0.16735 0.11156 0.0
H1675 H 0.85205 0.1625 0.13189 0.0
H1676 H 0.83376 0.20995 0.18389 0.0
H1677 H 0.87469 0.1991 0.22462 0.0
H1678 H 0.79786 0.16577 0.17913 0.0
H1679 H 0.80874 0.16923 0.13627 0.0
H1680 H 0.80685 0.18745 0.15688 0.0
H1681 H 0.84659 0.15164 0.23286 0.0
H1682 H 0.87004 0.16951 0.2299 0.0
H1683 H 0.85838 0.15608 0.19085 0.0
C1684 C 0.783 0.64399 0.15438 0.0
C1685 C 0.77671 0.63559 0.1879 0.0
C1686 C 0.801 0.65023 0.14374 0.0
C1687 C 0.81305 0.64865 0.16792 0.0
C1688 C 0.80666 0.64 0.20171 0.0
C1689 C 0.78842 0.63326 0.21102 0.0
C1690 C 0.80722 0.65881 0.10697 0.0
C1691 C 0.81925 0.6386 0.22867 0.0
C1692 C 0.8576 0.65369 0.13541 0.0
C1693 C 0.86961 0.67211 0.14231 0.0
C1694 C 0.839 0.64593 0.14275 0.0
C1695 C 0.83253 0.65676 0.15865 0.0
C1696 C 0.84473 0.67533 0.16626 0.0
C1697 C 0.86313 0.68289 0.15729 0.0
C1698 C 0.82626 0.62626 0.13313 0.0
C1699 C 0.8384 0.68713 0.18432 0.0
H1700 H 0.77383 0.6457 0.13656 0.0
H1701 H 0.78353 0.62694 0.23718 0.0
H1702 H 0.81724 0.67349 0.10995 0.0
H1703 H 0.81411 0.6525 0.0925 0.0
H1704 H 0.79574 0.65737 0.09014 0.0
H1705 H 0.81204 0.63128 0.2536 0.0
H1706 H 0.82585 0.63144 0.21652 0.0
H1707 H 0.83023 0.65244 0.23622 0.0
H1708 H 0.86269 0.64547 0.12337 0.0
H1709 H 0.87255 0.69714 0.1627 0.0
H1710 H 0.8153 0.62518 0.11517 0.0
H1711 H 0.81965 0.61831 0.15783 0.0
H1712 H 0.83339 0.61998 0.11937 0.0
H1713 H 0.82821 0.68807 0.16712 0.0
H1714 H 0.84978 0.70111 0.18963 0.0
H1715 H 0.83166 0.68093 0.21032 0.0
C1716 C 0.1138 0.31687 0.32771 0.0
C1717 C 0.12114 0.33571 0.33062 0.0
C1718 C 0.12428 0.30884 0.33602 0.0
C1719 C 0.14229 0.31989 0.34854 0.0
C1720 C 0.14945 0.33882 0.35318 0.0
C1721 C 0.13886 0.34657 0.34355 0.0
C1722 C 0.11639 0.2887 0.32974 0.0
C1723 C 0.16846 0.35093 0.36743 0.0
C1724 C 0.16613 0.2977 0.39451 0.0
C1725 C 0.1782 0.29895 0.36745 0.0
C1726 C 0.15421 0.30437 0.38872 0.0
C1727 C 0.15405 0.31187 0.3547 0.0
C1728 C 0.16564 0.31233 0.32675 0.0
C1729 C 0.17783 0.30614 0.3337 0.0
C1730 C 0.1424 0.30413 0.4194 0.0
C1731 C 0.16545 0.31973 0.28977 0.0
H1732 H 0.10013 0.30851 0.31731 0.0
H1733 H 0.14446 0.36114 0.3459 0.0
H1734 H 0.12426 0.28655 0.30834 0.0
H1735 H 0.11748 0.28201 0.35455 0.0
H1736 H 0.10189 0.28191 0.32139 0.0
H1737 H 0.17129 0.36499 0.37276 0.0
H1738 H 0.1705 0.34523 0.39279 0.0
H1739 H 0.17854 0.3516 0.34758 0.0
H1740 H 0.16665 0.29235 0.42078 0.0
H1741 H 0.18719 0.30704 0.31282 0.0
H1742 H 0.12792 0.29714 0.41104 0.0
H1743 H 0.14626 0.31828 0.42668 0.0
H1744 H 0.14369 0.29724 0.44378 0.0
H1745 H 0.15136 0.31306 0.27905 0.0
H1746 H 0.17418 0.31767 0.27025 0.0
H1747 H 0.17034 0.3345 0.29162 0.0
C1748 C 0.6889 0.86744 0.34923 0.0
C1749 C 0.67739 0.8733 0.36308 0.0
C1750 C 0.6822 0.849 0.34154 0.0
C1751 C 0.66378 0.83624 0.34924 0.0
C1752 C 0.65222 0.84213 0.36385 0.0
C1753 C 0.65911 0.86068 0.37 0.0
C1754 C 0.69472 0.8432 0.3249 0.0
C1755 C 0.63267 0.82884 0.37341 0.0
C1756 C 0.64017 0.79072 0.302 0.0
C1757 C 0.64201 0.77956 0.32743 0.0
C1758 C 0.64759 0.80933 0.30844 0.0
C1759 C 0.65646 0.81671 0.34163 0.0
C1760 C 0.65799 0.80539 0.36776 0.0
C1761 C 0.65101 0.78692 0.36002 0.0
C1762 C 0.64617 0.82112 0.27956 0.0
C1763 C 0.66684 0.81273 0.40393 0.0
H1764 H 0.70303 0.8773 0.3439 0.0
H1765 H 0.65032 0.86527 0.38126 0.0
H1766 H 0.69606 0.83356 0.34307 0.0
H1767 H 0.68888 0.83597 0.29912 0.0
H1768 H 0.7085 0.85492 0.31953 0.0
H1769 H 0.62576 0.83561 0.38607 0.0
H1770 H 0.625 0.82161 0.34884 0.0
H1771 H 0.63204 0.81841 0.39235 0.0
H1772 H 0.63341 0.78498 0.27655 0.0
H1773 H 0.65237 0.77819 0.37961 0.0
H1774 H 0.65992 0.83244 0.27258 0.0
H1775 H 0.6382 0.82729 0.28974 0.0
H1776 H 0.63957 0.81336 0.25461 0.0
H1777 H 0.68124 0.82344 0.40012 0.0
H1778 H 0.66641 0.80197 0.42164 0.0
H1779 H 0.65989 0.81912 0.4179 0.0
C1780 C 0.1215 0.81997 0.37852 0.0
C1781 C 0.11125 0.80601 0.35396 0.0
C1782 C 0.13988 0.83239 0.37187 0.0
C1783 C 0.14788 0.83109 0.33935 0.0
C1784 C 0.13723 0.81765 0.3135 0.0
C1785 C 0.11907 0.805 0.32148 0.0
C1786 C 0.15095 0.84618 0.40052 0.0
C1787 C 0.14517 0.81627 0.27799 0.0
C1788 C 0.19322 0.87125 0.31187 0.0
C1789 C 0.20509 0.86484 0.32036 0.0
C1790 C 0.17447 0.86034 0.31763 0.0
C1791 C 0.16766 0.84296 0.33341 0.0
C1792 C 0.17973 0.83671 0.34311 0.0
C1793 C 0.19832 0.84763 0.3358 0.0
C1794 C 0.16192 0.86717 0.30589 0.0
C1795 C 0.17301 0.81847 0.36104 0.0
H1796 H 0.11544 0.82056 0.40386 0.0
H1797 H 0.11103 0.79419 0.30251 0.0
H1798 H 0.16151 0.84332 0.41099 0.0
H1799 H 0.15809 0.86007 0.38891 0.0
H1800 H 0.14245 0.84596 0.42351 0.0
H1801 H 0.13458 0.80647 0.25927 0.0
H1802 H 0.15247 0.82978 0.26468 0.0
H1803 H 0.15522 0.81179 0.2828 0.0
H1804 H 0.19853 0.88452 0.2995 0.0
H1805 H 0.20761 0.84278 0.34244 0.0
H1806 H 0.15385 0.86742 0.32917 0.0
H1807 H 0.15215 0.85777 0.28554 0.0
H1808 H 0.16943 0.88103 0.29404 0.0
H1809 H 0.16496 0.81741 0.38545 0.0
H1810 H 0.18433 0.8162 0.36904 0.0
H1811 H 0.1639 0.80742 0.34241 0.0
C1812 C 0.64599 0.85397 0.85628 0.0
C1813 C 0.63765 0.85278 0.82306 0.0
C1814 C 0.65068 0.84093 0.86627 0.0
C1815 C 0.6476 0.8269 0.84171 0.0
C1816 C 0.63893 0.82553 0.8083 0.0
C1817 C 0.63375 0.83836 0.79964 0.0
C1818 C 0.65934 0.84243 0.90265 0.0
C1819 C 0.63597 0.81112 0.78096 0.0
C1820 C 0.67951 0.80816 0.85127 0.0
C1821 C 0.66817 0.79129 0.86735 0.0
C1822 C 0.67279 0.81967 0.84181 0.0
C1823 C 0.65452 0.81439 0.85 0.0
C1824 C 0.64304 0.79736 0.86644 0.0
C1825 C 0.64995 0.78582 0.87434 0.0
C1826 C 0.68526 0.83747 0.82318 0.0
C1827 C 0.62368 0.79157 0.87661 0.0
H1828 H 0.64888 0.86513 0.87438 0.0
H1829 H 0.62747 0.83762 0.77374 0.0
H1830 H 0.65231 0.82915 0.91686 0.0
H1831 H 0.67373 0.84608 0.89904 0.0
H1832 H 0.65894 0.85288 0.92003 0.0
H1833 H 0.62842 0.81152 0.75682 0.0
H1834 H 0.64932 0.81308 0.77207 0.0
H1835 H 0.62834 0.7974 0.79325 0.0
H1836 H 0.69359 0.81227 0.84577 0.0
H1837 H 0.6413 0.7728 0.88719 0.0
H1838 H 0.68749 0.84899 0.84072 0.0
H1839 H 0.67889 0.83856 0.79785 0.0
H1840 H 0.69869 0.83894 0.81658 0.0
H1841 H 0.62355 0.80156 0.89572 0.0
H1842 H 0.61658 0.7779 0.88936 0.0
H1843 H 0.61591 0.79136 0.85239 0.0
C1844 C 0.12221 0.78056 0.85234 0.0
C1845 C 0.12521 0.77451 0.81935 0.0
C1846 C 0.13372 0.79849 0.8638 0.0
C1847 C 0.14799 0.81067 0.84089 0.0
C1848 C 0.15094 0.80458 0.80738 0.0
C1849 C 0.13969 0.78642 0.79733 0.0
C1850 C 0.13065 0.80439 0.90029 0.0
C1851 C 0.16565 0.81734 0.78174 0.0
C1852 C 0.16646 0.86122 0.85248 0.0
C1853 C 0.18345 0.86661 0.86782 0.0
C1854 C 0.15469 0.84295 0.84355 0.0
C1855 C 0.15985 0.82986 0.85166 0.0
C1856 C 0.17676 0.83524 0.86847 0.0
C1857 C 0.18856 0.85368 0.87567 0.0
C1858 C 0.13704 0.83777 0.82446 0.0
C1859 C 0.1824 0.82156 0.87867 0.0
H1860 H 0.11097 0.77123 0.86926 0.0
H1861 H 0.14177 0.78171 0.77154 0.0
H1862 H 0.14336 0.81029 0.91641 0.0
H1863 H 0.12701 0.81516 0.89699 0.0
H1864 H 0.11965 0.79295 0.91567 0.0
H1865 H 0.16569 0.81054 0.75616 0.0
H1866 H 0.16373 0.82902 0.7752 0.0
H1867 H 0.17918 0.8229 0.79464 0.0
H1868 H 0.16267 0.87137 0.84642 0.0
H1869 H 0.20166 0.85797 0.88804 0.0
H1870 H 0.12538 0.82739 0.84031 0.0
H1871 H 0.13677 0.83163 0.79787 0.0
H1872 H 0.1351 0.84963 0.82008 0.0
H1873 H 0.17156 0.81042 0.89489 0.0
H1874 H 0.19526 0.8278 0.89442 0.0
H1875 H 0.18433 0.81533 0.85399 0.0
C1876 C 0.12124 0.30837 0.83312 0.0
C1877 C 0.11527 0.31898 0.85081 0.0
C1878 C 0.13939 0.31601 0.822 0.0
C1879 C 0.15183 0.3345 0.8298 0.0
C1880 C 0.14574 0.34533 0.84703 0.0
C1881 C 0.12744 0.33748 0.85691 0.0
C1882 C 0.14536 0.30419 0.80281 0.0
C1883 C 0.15871 0.36497 0.85659 0.0
C1884 C 0.20105 0.34699 0.84006 0.0
C1885 C 0.20854 0.35617 0.80767 0.0
C1886 C 0.18264 0.3402 0.84791 0.0
C1887 C 0.17144 0.3422 0.82218 0.0
C1888 C 0.17897 0.35151 0.7894 0.0
C1889 C 0.19757 0.35864 0.78275 0.0
C1890 C 0.17518 0.3308 0.8836 0.0
C1891 C 0.16731 0.35347 0.76103 0.0
H1892 H 0.11176 0.29408 0.82825 0.0
H1893 H 0.12284 0.34566 0.87086 0.0
H1894 H 0.1529 0.31099 0.77781 0.0
H1895 H 0.15474 0.3021 0.82035 0.0
H1896 H 0.13368 0.29067 0.7956 0.0
H1897 H 0.15162 0.37172 0.86859 0.0
H1898 H 0.16894 0.36572 0.87622 0.0
H1899 H 0.16621 0.37269 0.83228 0.0
H1900 H 0.20961 0.34514 0.8593 0.0
H1901 H 0.20339 0.36555 0.75747 0.0
H1902 H 0.16473 0.31638 0.87895 0.0
H1903 H 0.16845 0.33729 0.898 0.0
H1904 H 0.18592 0.33121 0.90133 0.0
H1905 H 0.15645 0.33982 0.75224 0.0
H1906 H 0.1753 0.36111 0.73699 0.0
H1907 H 0.16051 0.36061 0.77244 0.0
C1908 C 0.85047 0.6512 0.66253 0.0
C1909 C 0.84995 0.64324 0.69589 0.0
C1910 C 0.83867 0.65784 0.6552 0.0
C1911 C 0.82654 0.65697 0.68237 0.0
C1912 C 0.82624 0.64927 0.71639 0.0
C1913 C 0.83779 0.64221 0.72256 0.0
C1914 C 0.83899 0.66552 0.61826 0.0
C1915 C 0.81384 0.6486 0.74629 0.0
C1916 C 0.80782 0.68876 0.66925 0.0
C1917 C 0.79049 0.67683 0.65551 0.0
C1918 C 0.81949 0.68234 0.67951 0.0
C1919 C 0.81383 0.66371 0.67475 0.0
C1920 C 0.79623 0.6516 0.66132 0.0
C1921 C 0.78466 0.65829 0.65233 0.0
C1922 C 0.83799 0.69552 0.69474 0.0
C1923 C 0.7899 0.63173 0.65507 0.0
H1924 H 0.85988 0.65192 0.64194 0.0
H1925 H 0.8376 0.63624 0.74854 0.0
H1926 H 0.82531 0.65791 0.60574 0.0
H1927 H 0.84243 0.67991 0.62061 0.0
H1928 H 0.84899 0.66485 0.59996 0.0
H1929 H 0.8159 0.64293 0.7717 0.0
H1930 H 0.81623 0.66247 0.75177 0.0
H1931 H 0.79943 0.64013 0.73791 0.0
H1932 H 0.81226 0.7031 0.6718 0.0
H1933 H 0.7713 0.6491 0.64134 0.0
H1934 H 0.84874 0.69696 0.67579 0.0
H1935 H 0.84016 0.69027 0.72057 0.0
H1936 H 0.83969 0.7092 0.69954 0.0
H1937 H 0.79892 0.63042 0.63511 0.0
H1938 H 0.7757 0.62409 0.64494 0.0
H1939 H 0.79076 0.62529 0.68046 0.0
C1940 C 0.31219 0.19417 0.69215 0.0
C1941 C 0.33087 0.20558 0.6864 0.0
C1942 C 0.30387 0.17548 0.68542 0.0
C1943 C 0.31442 0.16824 0.67153 0.0
C1944 C 0.33315 0.17987 0.66418 0.0
C1945 C 0.34125 0.19842 0.67235 0.0
C1946 C 0.28401 0.16341 0.69462 0.0
C1947 C 0.34469 0.17265 0.64837 0.0
C1948 C 0.3012 0.11916 0.68734 0.0
C1949 C 0.29293 0.11122 0.6545 0.0
C1950 C 0.30752 0.13761 0.69386 0.0
C1951 C 0.30611 0.14838 0.66628 0.0
C1952 C 0.29744 0.1403 0.63329 0.0
C1953 C 0.29065 0.12166 0.62802 0.0
C1954 C 0.31615 0.14566 0.72984 0.0
C1955 C 0.29617 0.15148 0.60293 0.0
H1956 H 0.30423 0.19973 0.70347 0.0
H1957 H 0.35568 0.20733 0.66784 0.0
H1958 H 0.27639 0.15532 0.67074 0.0
H1959 H 0.2826 0.15365 0.71603 0.0
H1960 H 0.27762 0.17129 0.70422 0.0
H1961 H 0.35857 0.18372 0.64128 0.0
H1962 H 0.34591 0.16348 0.66803 0.0
H1963 H 0.33813 0.16456 0.62375 0.0
H1964 H 0.30292 0.11098 0.70773 0.0
H1965 H 0.28449 0.11548 0.6024 0.0
H1966 H 0.30999 0.15337 0.74149 0.0
H1967 H 0.33087 0.15536 0.72612 0.0
H1968 H 0.31458 0.13509 0.7495 0.0
H1969 H 0.28962 0.1592 0.61246 0.0
H1970 H 0.28836 0.14297 0.57954 0.0
H1971 H 0.31006 0.16157 0.59365 0.0
C1972 C 0.86294 0.2031 0.65193 0.0
C1973 C 0.87415 0.19544 0.65481 0.0
C1974 C 0.84429 0.19271 0.65918 0.0
C1975 C 0.83695 0.1745 0.6708 0.0
C1976 C 0.84837 0.16689 0.67474 0.0
C1977 C 0.86684 0.1774 0.66598 0.0
C1978 C 0.8324 0.20104 0.65356 0.0
C1979 C 0.84108 0.14769 0.68816 0.0
C1980 C 0.79197 0.1518 0.72041 0.0
C1981 C 0.78044 0.13965 0.69419 0.0
C1982 C 0.81045 0.16341 0.71308 0.0
C1983 C 0.81725 0.16323 0.67832 0.0
C1984 C 0.80539 0.15162 0.65119 0.0
C1985 C 0.78713 0.13965 0.65972 0.0
C1986 C 0.82282 0.17521 0.74297 0.0
C1987 C 0.81207 0.15153 0.61346 0.0
H1988 H 0.86867 0.21704 0.64288 0.0
H1989 H 0.87563 0.17159 0.66835 0.0
H1990 H 0.82169 0.19299 0.63337 0.0
H1991 H 0.8254 0.20069 0.67906 0.0
H1992 H 0.84025 0.21535 0.64408 0.0
H1993 H 0.85201 0.14426 0.69188 0.0
H1994 H 0.83396 0.14579 0.71428 0.0
H1995 H 0.83101 0.13791 0.66872 0.0
H1996 H 0.78673 0.15155 0.74722 0.0
H1997 H 0.77808 0.13023 0.63951 0.0
H1998 H 0.83031 0.18965 0.73442 0.0
H1999 H 0.8331 0.17114 0.74895 0.0
H2000 H 0.81525 0.17412 0.76816 0.0
H2001 H 0.81966 0.16559 0.60267 0.0
H2002 H 0.80074 0.14305 0.59469 0.0
H2003 H 0.82158 0.14616 0.614 0.0
C2004 C 0.98425 0.45394 0.53305 0.0
C2005 C 0.00249 0.45974 0.52535 0.0
C2006 C 0.97697 0.46522 0.52609 0.0
C2007 C 0.98807 0.48239 0.50989 0.0
C2008 C 0.00634 0.48802 0.50086 0.0
C2009 C 0.01346 0.47673 0.5094 0.0
C2010 C 0.95761 0.45903 0.53715 0.0
C2011 C 0.0184 0.50601 0.48247 0.0
C2012 C 0.96501 0.50522 0.46362 0.0
C2013 C 0.9684 0.51912 0.48809 0.0
C2014 C 0.97134 0.49312 0.47037 0.0
C2015 C 0.98069 0.49464 0.50295 0.0
C2016 C 0.98342 0.50818 0.52849 0.0
C2017 C 0.97754 0.52053 0.52039 0.0
C2018 C 0.96869 0.47922 0.44204 0.0
C2019 C -0.00722 0.50979 0.56407 0.0
H2020 H 0.97588 0.44086 0.54593 0.0
H2021 H 0.02757 0.48114 0.50347 0.0
H2022 H 0.95745 0.46879 0.55684 0.0
H2023 H 0.94955 0.45881 0.51342 0.0
H2024 H 0.95083 0.44528 0.54956 0.0
H2025 H 0.03184 0.50775 0.47498 0.0
H2026 H 0.01167 0.50715 0.45771 0.0
H2027 H 0.02064 0.51733 0.50059 0.0
H2028 H 0.95816 0.50435 0.43836 0.0
H2029 H 0.9801 0.53132 0.53925 0.0
H2030 H 0.96133 0.46533 0.45364 0.0
H2031 H 0.98213 0.48161 0.43271 0.0
H2032 H 0.96097 0.47973 0.41829 0.0
H2033 H 0.98622 0.49646 0.57813 0.0
H2034 H -0.00755 0.52005 0.58214 0.0
H2035 H 0.00718 0.51372 0.55929 0.0
C2036 C 0.52004 0.53417 0.51081 0.0
C2037 C 0.5199 0.54113 0.54494 0.0
C2038 C 0.50811 0.51586 0.50268 0.0
C2039 C 0.49624 0.50421 0.52977 0.0
C2040 C 0.49649 0.51108 0.56467 0.0
C2041 C 0.50815 0.52959 0.57168 0.0
C2042 C 0.50786 0.5091 0.46486 0.0
C2043 C 0.48438 0.49892 0.59446 0.0
C2044 C 0.45322 0.46263 0.49818 0.0
C2045 C 0.45846 0.44941 0.49851 0.0
C2046 C 0.46536 0.48052 0.50872 0.0
C2047 C 0.48292 0.48507 0.5209 0.0
C2048 C 0.488 0.47156 0.52285 0.0
C2049 C 0.47576 0.45388 0.51102 0.0
C2050 C 0.45964 0.49468 0.50539 0.0
C2051 C 0.50644 0.47586 0.53673 0.0
H2052 H 0.52913 0.54318 0.49016 0.0
H2053 H 0.50825 0.53501 0.59823 0.0
H2054 H 0.51071 0.49771 0.46549 0.0
H2055 H 0.49414 0.5038 0.45287 0.0
H2056 H 0.518 0.51994 0.44699 0.0
H2057 H 0.48723 0.50611 0.62077 0.0
H2058 H 0.46991 0.49374 0.58743 0.0
H2059 H 0.48621 0.48693 0.59757 0.0
H2060 H 0.43988 0.45918 0.48816 0.0
H2061 H 0.47972 0.44357 0.5114 0.0
H2062 H 0.46872 0.50539 0.48607 0.0
H2063 H 0.46099 0.5014 0.53177 0.0
H2064 H 0.44538 0.48881 0.4959 0.0
H2065 H 0.51717 0.48531 0.5179 0.0
H2066 H 0.50761 0.46346 0.53968 0.0
H2067 H 0.50915 0.48277 0.56329 0.0
C2068 C 0.53339 0.00677 0.51615 0.0
C2069 C 0.54077 0.01625 0.48401 0.0
C2070 C 0.51528 0.0009 0.52534 0.0
C2071 C 0.50426 0.00402 0.50103 0.0
C2072 C 0.51166 0.01343 0.46831 0.0
C2073 C 0.52998 0.01975 0.46049 0.0
C2074 C 0.50797 0.99144 0.56103 0.0
C2075 C 0.50014 0.01651 0.44129 0.0
C2076 C 0.45333 0.97362 0.51164 0.0
C2077 C 0.44869 0.98543 0.52865 0.0
C2078 C 0.47137 0.97964 0.50155 0.0
C2079 C 0.48502 -0.00237 0.51005 0.0
C2080 C 0.48036 0.00954 0.52748 0.0
C2081 C 0.46214 0.00336 0.53601 0.0
C2082 C 0.47583 0.96679 0.48192 0.0
C2083 C 0.49464 0.02862 0.53798 0.0
H2084 H 0.54184 0.00413 0.53424 0.0
H2085 H 0.53572 0.02686 0.43534 0.0
H2086 H 0.50236 -0.00136 0.57672 0.0
H2087 H 0.49668 0.97737 0.55642 0.0
H2088 H 0.51857 0.99081 0.57751 0.0
H2089 H 0.50786 0.02352 0.41656 0.0
H2090 H 0.48825 0.00328 0.43342 0.0
H2091 H 0.4948 0.02479 0.45359 0.0
H2092 H 0.44283 0.95975 0.50598 0.0
H2093 H 0.45852 0.01239 0.54969 0.0
H2094 H 0.48503 0.96405 0.49863 0.0
H2095 H 0.48311 0.9731 0.4564 0.0
H2096 H 0.46348 0.95362 0.4755 0.0
H2097 H 0.50487 0.02816 0.5559 0.0
H2098 H 0.48873 0.036 0.55215 0.0
H2099 H 0.50193 0.0365 0.51365 0.0
C2100 C 0.4442 0.98435 1.00176 0.0
C2101 C 0.45063 0.00279 0.00879 0.0
C2102 C 0.45512 0.97663 0.00848 0.0
C2103 C 0.47263 0.98754 0.02349 0.0
C2104 C 0.47867 0.00585 0.03289 0.0
C2105 C 0.46768 0.01336 0.02486 0.0
C2106 C 0.44841 0.95719 0.99733 0.0
C2107 C 0.49706 0.01774 0.04994 0.0
C2108 C 0.49827 0.9654 0.06135 0.0
C2109 C 0.5112 0.96933 0.03423 0.0
C2110 C 0.48541 0.97106 0.05813 0.0
C2111 C 0.48525 0.98034 0.02657 0.0
C2112 C 0.49773 0.98351 0.99833 0.0
C2113 C 0.5108 0.97822 1.00279 0.0
C2114 C 0.47262 0.96789 0.08913 0.0
C2115 C 0.49759 0.99291 0.96381 0.0
H2116 H 0.43106 0.97622 0.98898 0.0
H2117 H 0.47258 0.02761 0.03041 0.0
H2118 H 0.45673 0.95698 0.97446 0.0
H2119 H 0.44997 0.94944 0.01978 0.0
H2120 H 0.43392 0.95013 0.98885 0.0
H2121 H 0.49878 0.0309 0.05949 0.0
H2122 H 0.49904 0.01063 0.07313 0.0
H2123 H 0.50791 0.0206 0.03 0.0
H2124 H 0.4988 0.95871 0.08589 0.0
H2125 H 0.52081 0.98118 0.98184 0.0
H2126 H 0.45834 0.96095 0.07955 0.0
H2127 H 0.4756 0.98116 0.10064 0.0
H2128 H 0.47386 0.95959 0.11095 0.0
H2129 H 0.4837 0.98618 0.95211 0.0
H2130 H 0.50713 0.99288 0.94334 0.0
H2131 H 0.5015 0.00722 0.96961 0.0
C2132 C 0.00233 0.53515 1.00462 0.0
C2133 C 0.01151 0.54259 0.03702 0.0
C2134 C -0.00476 0.51665 0.99705 0.0
C2135 C -0.00312 0.50537 0.02313 0.0
C2136 C 0.00577 0.51279 0.05629 0.0
C2137 C 0.01327 0.53144 0.06259 0.0
C2138 C 0.98633 0.50928 0.96095 0.0
C2139 C 0.00733 0.50105 0.08508 0.0
C2140 C 0.96543 0.45457 0.01232 0.0
C2141 C 0.97725 0.4494 0.99717 0.0
C2142 C 0.97175 0.47274 0.02193 0.0
C2143 C 0.99011 0.48597 0.01496 0.0
C2144 C 0.00204 0.48075 0.99959 0.0
C2145 C -0.00448 0.46245 0.99141 0.0
C2146 C 0.95882 0.47781 0.03929 0.0
C2147 C 0.02157 0.49456 0.99088 0.0
H2148 H 0.00101 0.54387 0.98494 0.0
H2149 H 0.02015 0.53723 0.08792 0.0
H2150 H -0.00637 0.5034 0.94647 0.0
H2151 H 0.97211 0.49817 0.96484 0.0
H2152 H 0.98624 0.51991 0.94363 0.0
H2153 H 0.01357 0.50874 0.11029 0.0
H2154 H -0.00632 0.48942 0.09154 0.0
H2155 H 0.01572 0.49533 0.07505 0.0
H2156 H 0.95131 0.44441 0.01679 0.0
H2157 H 0.0046 0.45846 0.97924 0.0
H2158 H 0.95691 0.4872 0.02144 0.0
H2159 H 0.96463 0.48509 0.06506 0.0
H2160 H 0.9453 0.46573 0.04483 0.0
H2161 H 0.02203 0.50495 0.97207 0.0
H2162 H 0.02897 0.48824 0.97836 0.0
H2163 H 0.02888 0.50174 0.01577 0.0
C2164 C 0.454 0.48526 1.0022 0.0
C2165 C 0.44879 0.46808 0.01651 0.0
C2166 C 0.47212 0.49707 0.99211 0.0
C2167 C 0.48525 0.49168 0.99759 0.0
C2168 C 0.47997 0.47429 0.01189 0.0
C2169 C 0.46173 0.4626 0.0207 0.0
C2170 C 0.47725 0.51534 0.97596 0.0
C2171 C 0.49367 0.46824 0.01891 0.0
C2172 C 0.53059 0.51386 0.94948 0.0
C2173 C 0.54208 0.52594 0.97587 0.0
C2174 C 0.51186 0.50318 0.95558 0.0
C2175 C 0.50465 0.50429 0.98927 0.0
C2176 C 0.51621 0.51658 0.01594 0.0
C2177 C 0.53482 0.52748 0.00868 0.0
C2178 C 0.49985 0.49055 0.92622 0.0
C2179 C 0.50904 0.51776 0.05253 0.0
H2180 H 0.44394 0.48943 0.99891 0.0
H2181 H 0.45771 0.44936 0.03214 0.0
H2182 H 0.48678 0.52636 0.99419 0.0
H2183 H 0.48438 0.51713 0.94989 0.0
H2184 H 0.46521 0.51696 0.97131 0.0
H2185 H 0.4873 0.45432 0.03047 0.0
H2186 H 0.50065 0.46847 0.99347 0.0
H2187 H 0.50423 0.47779 0.03793 0.0
H2188 H 0.53624 0.51288 0.92389 0.0
H2189 H 0.54377 0.53685 0.02905 0.0
H2190 H 0.48821 0.49274 0.92114 0.0
H2191 H 0.49415 0.47622 0.93493 0.0
H2192 H 0.50734 0.49252 0.90051 0.0
H2193 H 0.49788 0.52085 0.04949 0.0
H2194 H 0.51977 0.52834 0.06992 0.0
H2195 H 0.5033 0.50445 0.06648 0.0
C2196 C 0.43935 0.08089 0.03905 0.0
C2197 C 0.42528 0.06276 0.03628 0.0
C2198 C 0.43896 0.09244 0.06603 0.0
C2199 C 0.42401 0.08574 0.09017 0.0
C2200 C 0.4099 0.0674 0.08746 0.0
C2201 C 0.41079 0.0562 0.06083 0.0
C2202 C 0.45437 0.11182 0.06836 0.0
C2203 C 0.39355 0.0596 0.11221 0.0
C2204 C 0.41875 0.10319 0.1806 0.0
C2205 C 0.40659 0.10913 0.17127 0.0
C2206 C 0.42658 0.09752 0.15372 0.0
C2207 C 0.42201 0.09776 0.11696 0.0
C2208 C 0.41161 0.10596 0.10743 0.0
C2209 C 0.40405 0.11154 0.13471 0.0
C2210 C 0.43802 0.08936 0.16501 0.0
C2211 C 0.40645 0.10668 0.06873 0.0
H2212 H 0.45064 0.08601 0.02032 0.0
H2213 H 0.39983 0.04221 0.05895 0.0
H2214 H 0.44968 0.12114 0.05866 0.0
H2215 H 0.45884 0.11553 0.09676 0.0
H2216 H 0.46622 0.11409 0.05177 0.0
H2217 H 0.38389 0.04499 0.10681 0.0
H2218 H 0.39798 0.06103 0.14077 0.0
H2219 H 0.38618 0.06722 0.10889 0.0
H2220 H 0.42082 0.10135 0.20881 0.0
H2221 H 0.39484 0.11638 0.12736 0.0
H2222 H 0.4493 0.09302 0.14566 0.0
H2223 H 0.42946 0.07432 0.1653 0.0
H2224 H 0.44379 0.09391 0.19247 0.0
H2225 H 0.4182 0.11077 0.05046 0.0
H2226 H 0.40129 0.1163 0.06516 0.0
H2227 H 0.39559 0.09294 0.06034 0.0
C2228 C 0.88204 0.30816 0.16648 0.0
C2229 C 0.87982 0.2912 0.15687 0.0
C2230 C 0.88715 0.32201 0.14047 0.0
C2231 C 0.89033 0.31884 0.10431 0.0
C2232 C 0.88618 0.30114 0.09395 0.0
C2233 C 0.88086 0.28754 0.12028 0.0
C2234 C 0.8908 0.34051 0.15242 0.0
C2235 C 0.88937 0.29703 0.05589 0.0
C2236 C 0.9048 0.35355 0.02749 0.0
C2237 C 0.92378 0.36143 0.02878 0.0
C2238 C 0.8936 0.34023 0.05295 0.0
C2239 C 0.90158 0.33444 0.07966 0.0
C2240 C 0.92075 0.34265 0.08129 0.0
C2241 C 0.93153 0.35606 0.05615 0.0
C2242 C 0.87326 0.3321 0.05073 0.0
C2243 C 0.92997 0.33684 0.10888 0.0
H2244 H 0.88113 0.31109 0.19462 0.0
H2245 H 0.8789 0.27437 0.11249 0.0
H2246 H 0.90565 0.34959 0.15615 0.0
H2247 H 0.88619 0.34674 0.13167 0.0
H2248 H 0.88393 0.33978 0.17839 0.0
H2249 H 0.883 0.28218 0.05093 0.0
H2250 H 0.88394 0.30284 0.03597 0.0
H2251 H 0.90422 0.30338 0.05108 0.0
H2252 H 0.89872 0.35771 1.00657 0.0
H2253 H 0.94617 0.36205 0.0575 0.0
H2254 H 0.86736 0.33088 0.078 0.0
H2255 H 0.86706 0.31822 0.03918 0.0
H2256 H 0.86943 0.34034 0.0334 0.0
H2257 H 0.92601 0.33847 0.13654 0.0
H2258 H 0.94504 0.3448 0.10686 0.0
H2259 H 0.92554 0.32224 0.10516 0.0
C2260 C 0.61956 0.53949 0.05921 0.0
C2261 C 0.62488 0.54234 0.02284 0.0
C2262 C 0.63238 0.54403 0.0869 0.0
C2263 C 0.65096 0.55143 0.07795 0.0
C2264 C 0.65594 0.55174 0.0413 0.0
C2265 C 0.64281 0.54728 0.01403 0.0
C2266 C 0.62631 0.54329 0.12546 0.0
C2267 C 0.67548 0.5589 0.03062 0.0
C2268 C 0.68301 0.59275 0.13291 0.0
C2269 C 0.69051 0.58577 0.1575 0.0
C2270 C 0.6703 0.58168 0.10705 0.0
C2271 C 0.66505 0.56304 0.10501 0.0
C2272 C 0.67265 0.55582 0.12955 0.0
C2273 C 0.68522 0.56728 0.15587 0.0
C2274 C 0.66233 0.59001 0.08213 0.0
C2275 C 0.66777 0.53616 0.12759 0.0
H2276 H 0.60562 0.53535 0.06623 0.0
H2277 H 0.64701 0.54935 0.98598 0.0
H2278 H 0.63358 0.5388 0.14392 0.0
H2279 H 0.62953 0.55711 0.13398 0.0
H2280 H 0.61144 0.53399 0.12855 0.0
H2281 H 0.67656 0.55429 1.00314 0.0
H2282 H 0.68276 0.57399 0.03067 0.0
H2283 H 0.68243 0.55449 0.05011 0.0
H2284 H 0.68693 0.60701 0.13417 0.0
H2285 H 0.69113 0.56188 0.17461 0.0
H2286 H 0.64731 0.58276 0.08493 0.0
H2287 H 0.66547 0.58863 0.05366 0.0
H2288 H 0.66764 0.60466 0.08778 0.0
H2289 H 0.6528 0.52711 0.12724 0.0
H2290 H 0.6735 0.53222 0.15055 0.0
H2291 H 0.6731 0.53379 0.10207 0.0
C2292 C 0.09911 0.41239 0.35391 0.0
C2293 C 0.09582 0.39495 0.3628 0.0
C2294 C 0.0951 0.42252 0.3787 0.0
C2295 C 0.08745 0.4149 0.41278 0.0
C2296 C 0.08561 0.39797 0.42277 0.0
C2297 C 0.0899 0.38831 0.3978 0.0
C2298 C 0.09784 0.44079 0.36741 0.0
C2299 C 0.07751 0.3892 0.45866 0.0
C2300 C 0.07668 0.43707 0.49128 0.0
C2301 C 0.05798 0.43011 0.4861 0.0
C2302 C 0.087 0.43356 0.46601 0.0
C2303 C 0.07831 0.42259 0.43537 0.0
C2304 C 0.05971 0.41655 0.42907 0.0
C2305 C 0.04988 0.42051 0.45425 0.0
C2306 C 0.10693 0.44077 0.47316 0.0
C2307 C 0.04973 0.4047 0.39705 0.0
H2308 H 0.10381 0.41768 0.32702 0.0
H2309 H 0.0876 0.37496 0.40514 0.0
H2310 H 0.08464 0.43925 0.35875 0.0
H2311 H 0.10294 0.45051 0.3903 0.0
H2312 H 0.10754 0.44661 0.34453 0.0
H2313 H 0.07863 0.3769 0.46369 0.0
H2314 H 0.08434 0.39894 0.48104 0.0
H2315 H 0.0629 0.38517 0.45927 0.0
H2316 H 0.0831 0.44464 0.51563 0.0
H2317 H 0.03549 0.41525 0.44968 0.0
H2318 H 0.11489 0.44531 0.44775 0.0
H2319 H 0.10882 0.42979 0.48482 0.0
H2320 H 0.11251 0.45229 0.49254 0.0
H2321 H 0.05708 0.41107 0.37168 0.0
H2322 H 0.03562 0.40219 0.39469 0.0
H2323 H 0.04911 0.39138 0.3997 0.0
C2324 C 0.54511 0.64305 0.51018 0.0
C2325 C 0.54085 0.62543 0.5002 0.0
C2326 C 0.54988 0.65667 0.48384 0.0
C2327 C 0.55085 0.6526 0.44707 0.0
C2328 C 0.54421 0.63432 0.43671 0.0
C2329 C 0.5391 0.62093 0.4634 0.0
C2330 C 0.55571 0.67579 0.4957 0.0
C2331 C 0.54474 0.62924 0.39788 0.0
C2332 C 0.56764 0.68713 0.36961 0.0
C2333 C 0.58632 0.69319 0.3703 0.0
C2334 C 0.55585 0.67458 0.39557 0.0
C2335 C 0.56287 0.66744 0.42163 0.0
C2336 C 0.58175 0.67357 0.4221 0.0
C2337 C 0.59318 0.68652 0.39693 0.0
C2338 C 0.53595 0.66888 0.39448 0.0
C2339 C 0.58992 0.66606 0.44853 0.0
H2340 H 0.5462 0.6466 0.53853 0.0
H2341 H 0.53539 0.60722 0.45539 0.0
H2342 H 0.57077 0.68381 0.49715 0.0
H2343 H 0.55117 0.68254 0.47597 0.0
H2344 H 0.55019 0.67599 0.52275 0.0
H2345 H 0.53712 0.61428 0.39371 0.0
H2346 H 0.53894 0.63549 0.37993 0.0
H2347 H 0.55908 0.63451 0.38963 0.0
H2348 H 0.5623 0.69233 0.34917 0.0
H2349 H 0.60759 0.69104 0.39745 0.0
H2350 H 0.52957 0.66495 0.42156 0.0
H2351 H 0.52873 0.65702 0.37623 0.0
H2352 H 0.53398 0.67997 0.38366 0.0
H2353 H 0.58768 0.66904 0.47659 0.0
H2354 H 0.60477 0.67188 0.44446 0.0
H2355 H 0.58322 0.65107 0.44572 0.0
C2356 C 0.3586 0.94058 0.46563 0.0
C2357 C 0.3617 0.93272 0.49617 0.0
C2358 C 0.34496 0.93009 0.44066 0.0
C2359 C 0.33416 0.91107 0.4458 0.0
C2360 C 0.33783 0.90283 0.47549 0.0
C2361 C 0.35147 0.91379 0.5006 0.0
C2362 C 0.34152 0.93959 0.4097 0.0
C2363 C 0.32694 0.88257 0.48148 0.0
C2364 C 0.28773 0.89465 0.40527 0.0
C2365 C 0.29021 0.89044 0.36985 0.0
C2366 C 0.30139 0.89982 0.4314 0.0
C2367 C 0.31793 0.90059 0.42213 0.0
C2368 C 0.31974 0.89448 0.38757 0.0
C2369 C 0.30588 0.88959 0.36165 0.0
C2370 C 0.29878 0.90624 0.46773 0.0
C2371 C 0.33689 0.8945 0.37698 0.0
H2372 H 0.36649 0.95517 0.46173 0.0
H2373 H 0.35387 0.90759 0.52396 0.0
H2374 H 0.34198 0.93343 0.38364 0.0
H2375 H 0.32775 0.93791 0.41234 0.0
H2376 H 0.3516 0.95436 0.40873 0.0
H2377 H 0.33371 0.8779 0.50089 0.0
H2378 H 0.31337 0.87889 0.49243 0.0
H2379 H 0.32476 0.87515 0.45564 0.0
H2380 H 0.27555 0.8951 0.41205 0.0
H2381 H 0.30785 0.88621 0.33444 0.0
H2382 H 0.30753 0.92124 0.46945 0.0
H2383 H 0.30291 0.90025 0.48979 0.0
H2384 H 0.28445 0.90271 0.47229 0.0
H2385 H 0.34761 0.90858 0.37026 0.0
H2386 H 0.33471 0.88577 0.35303 0.0
H2387 H 0.34198 0.88973 0.39963 0.0
C2388 C 0.60195 0.90694 0.88739 0.0
C2389 C 0.59389 0.895 0.85825 0.0
C2390 C 0.59151 0.9102 0.91223 0.0
C2391 C 0.57237 0.90102 0.90851 0.0
C2392 C 0.56398 0.88823 0.8802 0.0
C2393 C 0.57489 0.88555 0.855 0.0
C2394 C 0.60116 0.92421 0.94149 0.0
C2395 C 0.54359 0.87779 0.8759 0.0
C2396 C 0.55194 0.90871 0.99307 0.0
C2397 C 0.55159 0.92449 0.98337 0.0
C2398 C 0.55684 0.89956 0.96766 0.0
C2399 C 0.56176 0.90657 0.93213 0.0
C2400 C 0.55978 0.9215 0.92156 0.0
C2401 C 0.5546 0.93015 0.9472 0.0
C2402 C 0.55814 0.88328 0.97965 0.0
C2403 C 0.56497 0.92958 0.88416 0.0
H2404 H 0.61662 0.91431 0.8902 0.0
H2405 H 0.56857 0.87618 0.83273 0.0
H2406 H 0.59849 0.93565 0.93799 0.0
H2407 H 0.5959 0.91816 0.96841 0.0
H2408 H 0.6161 0.92979 0.94121 0.0
H2409 H 0.53908 0.86589 0.85774 0.0
H2410 H 0.53682 0.873 0.90247 0.0
H2411 H 0.53897 0.88682 0.86423 0.0
H2412 H 0.54944 0.90413 0.02086 0.0
H2413 H 0.55406 0.94217 0.93928 0.0
H2414 H 0.57257 0.88752 0.98514 0.0
H2415 H 0.55322 0.87278 0.95816 0.0
H2416 H 0.55019 0.87715 1.00466 0.0
H2417 H 0.57996 0.93647 0.88107 0.0
H2418 H 0.56057 0.93969 0.8789 0.0
H2419 H 0.55889 0.9188 0.86333 0.0
C2420 C 0.08317 0.64253 0.99663 0.0
C2421 C 0.06912 0.62489 0.98884 0.0
C2422 C 0.09153 0.65539 0.96876 0.0
C2423 C 0.08554 0.65043 0.93264 0.0
C2424 C 0.07305 0.63202 0.92447 0.0
C2425 C 0.06503 0.61949 0.95268 0.0
C2426 C 0.10528 0.67473 0.97848 0.0
C2427 C 0.06631 0.62598 0.88648 0.0
C2428 C 0.07735 0.6833 0.87805 0.0
C2429 C 0.09079 0.68919 0.85127 0.0
C2430 C 0.07591 0.67109 0.90492 0.0
C2431 C 0.08841 0.66468 0.90565 0.0
C2432 C 0.1024 0.67092 0.8793 0.0
C2433 C 0.10329 0.68298 0.85204 0.0
C2434 C 0.06059 0.66469 0.93202 0.0
C2435 C 0.11618 0.66468 0.87948 0.0
H2436 H 0.08649 0.64675 0.02452 0.0
H2437 H 0.05438 0.60575 0.94649 0.0
H2438 H 0.11614 0.68089 0.95774 0.0
H2439 H 0.09843 0.68293 0.9797 0.0
H2440 H 0.11159 0.67554 1.00519 0.0
H2441 H 0.05918 0.61095 0.88371 0.0
H2442 H 0.05665 0.63067 0.87913 0.0
H2443 H 0.07771 0.63205 0.86693 0.0
H2444 H 0.0676 0.68799 0.87769 0.0
H2445 H 0.11379 0.6876 0.83157 0.0
H2446 H 0.06615 0.6678 0.95983 0.0
H2447 H 0.05163 0.64973 0.93001 0.0
H2448 H 0.05214 0.67116 0.92786 0.0
H2449 H 0.1207 0.66426 0.90739 0.0
H2450 H 0.12827 0.67365 0.86281 0.0
H2451 H 0.1099 0.65071 0.86834 0.0
C2452 C 0.28911 0.40584 0.88868 0.0
C2453 C 0.29354 0.40957 0.852 0.0
C2454 C 0.30244 0.41378 0.91558 0.0
C2455 C 0.3207 0.4259 0.90566 0.0
C2456 C 0.32485 0.43133 0.86904 0.0
C2457 C 0.3112 0.42303 0.84251 0.0
C2458 C 0.29727 0.4075 0.95411 0.0
C2459 C 0.34404 0.44457 0.85739 0.0
C2460 C 0.35488 0.44582 0.98344 0.0
C2461 C 0.36122 0.43343 0.9851 0.0
C2462 C 0.3422 0.4441 0.9568 0.0
C2463 C 0.33553 0.42948 0.93184 0.0
C2464 C 0.34209 0.41711 0.93337 0.0
C2465 C 0.35487 0.41932 0.95968 0.0
C2466 C 0.33577 0.45773 0.95567 0.0
C2467 C 0.33526 0.40115 0.90777 0.0
H2468 H 0.27541 0.39561 0.89627 0.0
H2469 H 0.31471 0.42604 0.81424 0.0
H2470 H 0.30204 0.39787 0.96104 0.0
H2471 H 0.30385 0.41912 0.97308 0.0
H2472 H 0.28232 0.40049 0.9583 0.0
H2473 H 0.34439 0.45042 0.83037 0.0
H2474 H 0.35086 0.4558 0.87718 0.0
H2475 H 0.35195 0.43743 0.85596 0.0
H2476 H 0.35983 0.45683 1.00283 0.0
H2477 H 0.35966 0.40965 0.96068 0.0
H2478 H 0.32132 0.4511 0.96414 0.0
H2479 H 0.33654 0.46278 0.92773 0.0
H2480 H 0.34388 0.46952 0.97372 0.0
H2481 H 0.32038 0.39213 0.91128 0.0
H2482 H 0.34199 0.39297 0.91216 0.0
H2483 H 0.33763 0.406 0.87943 0.0
C2484 C 0.87993 0.56988 0.66183 0.0
C2485 C 0.87491 0.58262 0.65133 0.0
C2486 C 0.88531 0.56137 0.63592 0.0
C2487 C 0.88588 0.56594 0.59892 0.0
C2488 C 0.8787 0.57707 0.58809 0.0
C2489 C 0.87319 0.58516 0.61442 0.0
C2490 C 0.89228 0.54909 0.64856 0.0
C2491 C 0.87903 0.58241 0.54911 0.0
C2492 C 0.92765 0.57401 0.54687 0.0
C2493 C 0.92064 0.55942 0.52257 0.0
C2494 C 0.91646 0.57606 0.57185 0.0
C2495 C 0.8977 0.56294 0.57332 0.0
C2496 C 0.89051 0.54793 0.54929 0.0
C2497 C 0.90205 0.54645 0.52378 0.0
C2498 C 0.92475 0.59254 0.59628 0.0
C2499 C 0.87071 0.53343 0.55074 0.0
H2500 H 0.88116 0.56772 0.69028 0.0
H2501 H 0.86904 0.59478 0.60606 0.0
H2502 H 0.88838 0.53768 0.62944 0.0
H2503 H 0.90735 0.55696 0.64989 0.0
H2504 H 0.88704 0.54348 0.67583 0.0
H2505 H 0.87003 0.5882 0.54433 0.0
H2506 H 0.89312 0.59284 0.54167 0.0
H2507 H 0.87481 0.57061 0.53092 0.0
H2508 H 0.94199 0.58414 0.54596 0.0
H2509 H 0.89663 0.53505 0.50526 0.0
H2510 H 0.92284 0.5882 0.62494 0.0
H2511 H 0.91784 0.60056 0.59216 0.0
H2512 H 0.93953 0.60157 0.59132 0.0
H2513 H 0.86737 0.52718 0.57799 0.0
H2514 H 0.86723 0.52257 0.53041 0.0
H2515 H 0.86199 0.53953 0.5461 0.0
C2516 C 0.40739 0.3057 0.65724 0.0
C2517 C 0.39063 0.29046 0.64838 0.0
C2518 C 0.41687 0.31973 0.63185 0.0
C2519 C 0.40928 0.31848 0.59709 0.0
C2520 C 0.39327 0.3023 0.58716 0.0
C2521 C 0.38421 0.28853 0.61283 0.0
C2522 C 0.43419 0.3365 0.6432 0.0
C2523 C 0.38462 0.30024 0.55055 0.0
C2524 C 0.4114 0.35996 0.55429 0.0
C2525 C 0.42247 0.36299 0.52396 0.0
C2526 C 0.4078 0.3461 0.57905 0.0
C2527 C 0.41565 0.33498 0.57391 0.0
C2528 C 0.42768 0.33857 0.54448 0.0
C2529 C 0.43084 0.35245 0.51958 0.0
C2530 C 0.39476 0.34278 0.60973 0.0
C2531 C 0.43667 0.32732 0.53849 0.0
H2532 H 0.41251 0.30725 0.68458 0.0
H2533 H 0.37141 0.27665 0.60557 0.0
H2534 H 0.44425 0.34154 0.62087 0.0
H2535 H 0.4312 0.34744 0.65009 0.0
H2536 H 0.44036 0.33386 0.66723 0.0
H2537 H 0.37356 0.28608 0.54545 0.0
H2538 H 0.37878 0.30935 0.54882 0.0
H2539 H 0.3949 0.30427 0.52884 0.0
H2540 H 0.40496 0.36808 0.55819 0.0
H2541 H 0.43952 0.35479 0.49641 0.0
H2542 H 0.40109 0.34278 0.63589 0.0
H2543 H 0.38241 0.32923 0.60651 0.0
H2544 H 0.3905 0.35319 0.61092 0.0
H2545 H 0.44152 0.32471 0.5644 0.0
H2546 H 0.44834 0.33406 0.51957 0.0
H2547 H 0.42665 0.31396 0.52692 0.0
C2548 C 0.63143 0.05674 0.55257 0.0
C2549 C 0.62648 0.06486 0.52524 0.0
C2550 C 0.6445 0.06717 0.57845 0.0
C2551 C 0.65266 0.08634 0.57778 0.0
C2552 C 0.64712 0.09468 0.55133 0.0
C2553 C 0.63427 0.08382 0.52489 0.0
C2554 C 0.65016 0.0576 0.60553 0.0
C2555 C 0.65506 0.11501 0.55025 0.0
C2556 C 0.67889 0.10408 0.66497 0.0
C2557 C 0.69571 0.10621 0.65462 0.0
C2558 C 0.6651 0.09973 0.63917 0.0
C2559 C 0.66825 0.09723 0.60256 0.0
C2560 C 0.68588 0.10142 0.59166 0.0
C2561 C 0.6994 0.10594 0.61779 0.0
C2562 C 0.6467 0.09615 0.6516 0.0
C2563 C 0.68997 0.09904 0.55303 0.0
H2564 H 0.62551 0.04209 0.55306 0.0
H2565 H 0.63037 0.09016 0.50403 0.0
H2566 H 0.6648 0.06213 0.60208 0.0
H2567 H 0.64829 0.06113 0.6334 0.0
H2568 H 0.64227 0.04257 0.60266 0.0
H2569 H 0.646 0.11878 0.53564 0.0
H2570 H 0.6575 0.12081 0.57788 0.0
H2571 H 0.6683 0.12134 0.53597 0.0
H2572 H 0.67602 0.10449 0.69335 0.0
H2573 H 0.71253 0.10797 0.60951 0.0
H2574 H 0.63742 0.08129 0.65438 0.0
H2575 H 0.64064 0.10129 0.63154 0.0
H2576 H 0.64753 0.1026 0.67814 0.0
H2577 H 0.68321 0.08431 0.5466 0.0
H2578 H 0.7048 0.10511 0.54812 0.0
H2579 H 0.68457 0.10532 0.53419 0.0
C2580 C 0.75022 0.72167 0.72157 0.0
C2581 C 0.75871 0.72984 0.68887 0.0
C2582 C 0.74645 0.73121 0.74772 0.0
C2583 C 0.75147 0.74957 0.74141 0.0
C2584 C 0.76131 0.75837 0.70968 0.0
C2585 C 0.76473 0.74835 0.68355 0.0
C2586 C 0.7359 0.72115 0.78098 0.0
C2587 C 0.76736 0.77806 0.70239 0.0
C2588 C 0.71694 0.75902 0.78502 0.0
C2589 C 0.72455 0.76522 0.81931 0.0
C2590 C 0.7263 0.75537 0.75821 0.0
C2591 C 0.74388 0.75821 0.76556 0.0
C2592 C 0.75239 0.7662 0.79885 0.0
C2593 C 0.74255 0.7695 0.82556 0.0
C2594 C 0.71658 0.74682 0.72328 0.0
C2595 C 0.77135 0.77003 0.80729 0.0
H2596 H 0.74577 0.70745 0.72622 0.0
H2597 H 0.77145 0.75481 0.65851 0.0
H2598 H 0.7429 0.72881 0.80569 0.0
H2599 H 0.72224 0.71987 0.78041 0.0
H2600 H 0.73411 0.70729 0.78297 0.0
H2601 H 0.77825 0.78396 0.68165 0.0
H2602 H 0.75564 0.77918 0.69241 0.0
H2603 H 0.77235 0.78625 0.72745 0.0
H2604 H 0.70314 0.75596 0.7797 0.0
H2605 H 0.7486 0.77447 0.85185 0.0
H2606 H 0.71316 0.73239 0.72248 0.0
H2607 H 0.72548 0.7538 0.69984 0.0
H2608 H 0.7038 0.74727 0.72023 0.0
H2609 H 0.77086 0.75722 0.81538 0.0
H2610 H 0.77754 0.77993 0.82976 0.0
H2611 H 0.78025 0.7754 0.78319 0.0
C2612 C 0.22936 0.01236 0.69163 0.0
C2613 C 0.24803 0.02403 0.69724 0.0
C2614 C 0.21894 -0.00178 0.71627 0.0
C2615 C 0.22758 -0.00462 0.74637 0.0
C2616 C 0.24627 0.00759 0.75266 0.0
C2617 C 0.25612 0.02182 0.72841 0.0
C2618 C 0.19891 0.98596 0.70922 0.0
C2619 C 0.25625 0.00501 0.78386 0.0
C2620 C 0.20802 0.96529 0.82892 0.0
C2621 C 0.21063 0.95076 0.81953 0.0
C2622 C 0.21148 0.97912 0.80376 0.0
C2623 C 0.21815 0.9786 0.76894 0.0
C2624 C 0.2192 0.96313 0.75851 0.0
C2625 C 0.21522 0.94935 0.78375 0.0
C2626 C 0.20931 0.99495 0.81533 0.0
C2627 C 0.22637 0.96194 0.72191 0.0
H2628 H 0.22296 0.01407 0.6678 0.0
H2629 H 0.27053 0.03078 0.73315 0.0
H2630 H 0.19675 0.97357 0.69488 0.0
H2631 H 0.19111 0.98161 0.73484 0.0
H2632 H 0.19338 0.99278 0.69205 0.0
H2633 H 0.27071 0.01597 0.7854 0.0
H2634 H 0.24955 0.00467 0.80974 0.0
H2635 H 0.25585 0.9918 0.78101 0.0
H2636 H 0.20423 0.96637 0.85634 0.0
H2637 H 0.217 0.93803 0.776 0.0
H2638 H 0.20379 -0.00056 0.79293 0.0
H2639 H 0.22279 0.00659 0.82275 0.0
H2640 H 0.20019 0.99146 0.83909 0.0
H2641 H 0.21931 0.965 0.70023 0.0
H2642 H 0.22471 0.94831 0.71676 0.0
H2643 H 0.24106 0.97221 0.72016 0.0
C2644 C 0.955 0.21339 0.72985 0.0
C2645 C 0.95937 0.21545 0.69299 0.0
C2646 C 0.96853 0.2187 0.75634 0.0
C2647 C 0.98692 0.22619 0.74573 0.0
C2648 C 0.99107 0.2261 0.70867 0.0
C2649 C 0.97722 0.22077 0.68262 0.0
C2650 C 0.96334 0.2184 0.79539 0.0
C2651 C 0.01041 0.23351 0.69619 0.0
C2652 C 0.01972 0.2673 0.80058 0.0
C2653 C 0.02754 0.2602 0.82415 0.0
C2654 C 0.00682 0.2564 0.77476 0.0
C2655 C 0.00161 0.2378 0.77185 0.0
C2656 C 0.0097 0.23052 0.795 0.0
C2657 C 0.02249 0.24179 0.82118 0.0
C2658 C -0.0015 0.26482 0.75104 0.0
C2659 C 0.00468 0.21083 0.7924 0.0
H2660 H 0.94116 0.20904 0.73808 0.0
H2661 H 0.98071 0.22232 0.6542 0.0
H2662 H 0.9709 0.21396 0.8131 0.0
H2663 H 0.9669 0.23235 0.80376 0.0
H2664 H 0.94853 0.20927 0.79981 0.0
H2665 H 0.01098 0.22877 0.66854 0.0
H2666 H 0.01744 0.24859 0.69585 0.0
H2667 H 0.01797 0.22946 0.71487 0.0
H2668 H 0.02349 0.2815 0.80262 0.0
H2669 H 0.02856 0.23624 0.83916 0.0
H2670 H 0.98358 0.2578 0.75536 0.0
H2671 H 0.00085 0.26318 0.7222 0.0
H2672 H 0.00418 0.27954 0.75655 0.0
H2673 H 0.99052 0.20204 0.80189 0.0
H2674 H 0.0138 0.20785 0.8089 0.0
H2675 H 0.00525 0.20712 0.76392 0.0
C2676 C 0.2438 0.21487 0.19645 0.0
C2677 C 0.26203 0.22867 0.19328 0.0
C2678 C 0.23235 0.21595 0.22278 0.0
C2679 C 0.23925 0.2313 0.2459 0.0
C2680 C 0.25768 0.24517 0.24271 0.0
C2681 C 0.26878 0.24361 0.21674 0.0
C2682 C 0.21288 0.20077 0.22574 0.0
C2683 C 0.26566 0.26194 0.26629 0.0
C2684 C 0.21293 0.25152 0.28779 0.0
C2685 C 0.21482 0.24913 0.32469 0.0
C2686 C 0.21911 0.24407 0.26138 0.0
C2687 C 0.22734 0.23388 0.27209 0.0
C2688 C 0.22735 0.22964 0.30915 0.0
C2689 C 0.22111 0.23738 0.33513 0.0
C2690 C 0.21874 0.24897 0.22233 0.0
C2691 C 0.23561 0.21848 0.32171 0.0
H2692 H 0.23855 0.20322 0.17859 0.0
H2693 H 0.28284 0.25437 0.2145 0.0
H2694 H 0.20979 0.1958 0.25398 0.0
H2695 H 0.20357 0.2059 0.21859 0.0
H2696 H 0.20996 0.18917 0.20774 0.0
H2697 H 0.28029 0.27137 0.26064 0.0
H2698 H 0.25818 0.2694 0.26199 0.0
H2699 H 0.26419 0.25801 0.29517 0.0
H2700 H 0.20785 0.26042 0.2795 0.0
H2701 H 0.22256 0.23542 0.36359 0.0
H2702 H 0.21476 0.23708 0.20453 0.0
H2703 H 0.23256 0.25973 0.21415 0.0
H2704 H 0.2092 0.25415 0.21782 0.0
H2705 H 0.23207 0.20696 0.3031 0.0
H2706 H 0.23106 0.21309 0.3494 0.0
H2707 H 0.25065 0.22713 0.32197 0.0
C2708 C 0.76991 0.01911 0.18735 0.0
C2709 C 0.75876 0.02693 0.18873 0.0
C2710 C 0.76801 0.006 0.21307 0.0
C2711 C 0.75441 0.00037 0.24009 0.0
C2712 C 0.74336 0.00848 0.24171 0.0
C2713 C 0.74578 0.02168 0.2163 0.0
C2714 C 0.78028 -0.00205 0.2109 0.0
C2715 C 0.72849 0.0028 0.26963 0.0
C2716 C 0.7282 0.95399 0.28219 0.0
C2717 C 0.7332 0.95799 0.31856 0.0
C2718 C 0.73653 0.96726 0.25534 0.0
C2719 C 0.75027 0.985 0.26506 0.0
C2720 C 0.75686 0.98847 0.30106 0.0
C2721 C 0.74818 0.97489 0.32755 0.0
C2722 C 0.72906 0.96283 0.21741 0.0
C2723 C 0.77183 0.00705 0.31235 0.0
H2724 H 0.78006 0.02322 0.16628 0.0
H2725 H 0.73709 0.02763 0.21763 0.0
H2726 H 0.78544 -0.00267 0.23808 0.0
H2727 H 0.77248 0.98383 0.20055 0.0
H2728 H 0.79204 0.00588 0.19268 0.0
H2729 H 0.72136 0.01072 0.26761 0.0
H2730 H 0.71831 0.98817 0.26628 0.0
H2731 H 0.73426 0.0046 0.29717 0.0
H2732 H 0.71682 0.94081 0.27498 0.0
H2733 H 0.7522 0.97801 0.35558 0.0
H2734 H 0.7402 0.96857 0.19727 0.0
H2735 H 0.72042 0.969 0.21248 0.0
H2736 H 0.72066 0.94793 0.21292 0.0
H2737 H 0.78252 0.01311 0.29129 0.0
H2738 H 0.77815 0.0065 0.33822 0.0
H2739 H 0.76612 0.01617 0.31601 0.0
C2740 C 0.0139 0.77176 0.32188 0.0
C2741 C 0.02428 0.76325 0.31712 0.0
C2742 C 0.0001 0.7689 0.29706 0.0
C2743 C -0.00367 0.75687 0.26756 0.0
C2744 C 0.00715 0.74869 0.2623 0.0
C2745 C 0.02104 0.75214 0.28681 0.0
C2746 C 0.98925 0.7783 0.30311 0.0
C2747 C 0.00353 0.73554 0.23168 0.0
C2748 C 0.95011 0.72624 0.22745 0.0
C2749 C 0.95277 0.7324 0.19161 0.0
C2750 C 0.96357 0.73523 0.2537 0.0
C2751 C 0.98004 0.751 0.24409 0.0
C2752 C 0.98187 0.75854 0.20913 0.0
C2753 C 0.96824 0.74904 0.18307 0.0
C2754 C 0.96094 0.72663 0.29052 0.0
C2755 C -0.00112 0.77575 0.19829 0.0
H2756 H 0.01644 0.78048 0.34507 0.0
H2757 H 0.029 0.74553 0.2828 0.0
H2758 H 0.98596 0.7825 0.27713 0.0
H2759 H 0.97623 0.76878 0.31657 0.0
H2760 H -0.00334 0.79046 0.32063 0.0
H2761 H 0.01345 0.73063 0.23101 0.0
H2762 H 0.98967 0.72357 0.23441 0.0
H2763 H 0.00413 0.74208 0.20544 0.0
H2764 H 0.93803 0.71356 0.23448 0.0
H2765 H 0.97031 0.75401 0.15555 0.0
H2766 H 0.96496 0.73699 0.31206 0.0
H2767 H 0.96977 0.72049 0.29301 0.0
H2768 H 0.94663 0.71581 0.2952 0.0
H2769 H 0.00377 0.78579 0.22065 0.0
H2770 H -0.00339 0.782 0.17397 0.0
H2771 H 0.00979 0.7726 0.19207 0.0
loop_
_geom_bond_atom_site_label_1
_geom_bond_atom_site_label_2
_geom_bond_distance
_geom_bond_site_symmetry_2
_ccdc_geom_bond_type
In0 O1 2.294 . S
In0 O2 2.326 . S
In0 O6 2.266 . S
In0 O7 2.326 . S
In0 O8 2.266 . S
In0 O9 2.326 . S
In0 O11 2.294 . S
In0 O12 2.326 . S
O1 In0 2.294 . S
O1 C10 1.240 . S
O2 In0 2.326 . S
O2 C10 1.252 . S
C3 O6 1.252 . S
C3 O7 1.260 . S
C4 O11 1.240 . S
C4 O12 1.252 . S
C5 O8 1.252 . S
C5 O9 1.260 . S
O6 In0 2.266 . S
O6 C3 1.252 . S
O7 In0 2.326 . S
O7 C3 1.260 . S
O8 In0 2.266 . S
O8 C5 1.252 . S
O9 In0 2.326 . S
O9 C5 1.260 . S
C10 O1 1.240 . S
C10 O2 1.252 . S
O11 In0 2.294 . S
O11 C4 1.240 . S
O12 In0 2.326 . S
O12 C4 1.252 . S
In13 O14 2.294 . S
In13 O15 2.326 . S
In13 O19 2.266 . S
In13 O20 2.326 . S
In13 O21 2.266 . S
In13 O22 2.326 . S
In13 O24 2.294 . S
In13 O25 2.326 . S
O14 In13 2.294 . S
O14 C23 1.240 . S
O15 In13 2.326 . S
O15 C23 1.252 . S
C16 O19 1.252 . S
C16 O20 1.260 . S
C17 O24 1.240 . S
C17 O25 1.252 . S
C18 O21 1.252 . S
C18 O22 1.260 . S
O19 In13 2.266 . S
O19 C16 1.252 . S
O20 In13 2.326 . S
O20 C16 1.260 . S
O21 In13 2.266 . S
O21 C18 1.252 . S
O22 In13 2.326 . S
O22 C18 1.260 . S
C23 O14 1.240 . S
C23 O15 1.252 . S
O24 In13 2.294 . S
O24 C17 1.240 . S
O25 In13 2.326 . S
O25 C17 1.252 . S
In26 O27 2.294 . S
In26 O28 2.326 . S
In26 O32 2.266 . S
In26 O33 2.326 . S
In26 O34 2.266 . S
In26 O35 2.326 . S
In26 O37 2.294 . S
In26 O38 2.326 . S
O27 In26 2.294 . S
O27 C36 1.240 . S
O28 In26 2.326 . S
O28 C36 1.252 . S
C29 O32 1.252 . S
C29 O33 1.260 . S
C30 O37 1.240 . S
C30 O38 1.252 . S
C31 O34 1.252 . S
C31 O35 1.260 . S
O32 In26 2.266 . S
O32 C29 1.252 . S
O33 In26 2.326 . S
O33 C29 1.260 . S
O34 In26 2.266 . S
O34 C31 1.252 . S
O35 In26 2.326 . S
O35 C31 1.260 . S
C36 O27 1.240 . S
C36 O28 1.252 . S
O37 In26 2.294 . S
O37 C30 1.240 . S
O38 In26 2.326 . S
O38 C30 1.252 . S
In39 O40 2.294 . S
In39 O41 2.326 . S
In39 O45 2.266 . S
In39 O46 2.326 . S
In39 O47 2.266 . S
In39 O48 2.326 . S
In39 O50 2.294 . S
In39 O51 2.326 . S
O40 In39 2.294 . S
O40 C49 1.240 . S
O41 In39 2.326 . S
O41 C49 1.252 . S
C42 O45 1.252 . S
C42 O46 1.260 . S
C43 O50 1.240 . S
C43 O51 1.252 . S
C44 O47 1.252 . S
C44 O48 1.260 . S
O45 In39 2.266 . S
O45 C42 1.252 . S
O46 In39 2.326 . S
O46 C42 1.260 . S
O47 In39 2.266 . S
O47 C44 1.252 . S
O48 In39 2.326 . S
O48 C44 1.260 . S
C49 O40 1.240 . S
C49 O41 1.252 . S
O50 In39 2.294 . S
O50 C43 1.240 . S
O51 In39 2.326 . S
O51 C43 1.252 . S
In52 O53 2.294 . S
In52 O54 2.326 . S
In52 O58 2.266 . S
In52 O59 2.326 . S
In52 O60 2.266 . S
In52 O61 2.326 . S
In52 O63 2.294 . S
In52 O64 2.326 . S
O53 In52 2.294 . S
O53 C62 1.240 . S
O54 In52 2.326 . S
O54 C62 1.252 . S
C55 O58 1.252 . S
C55 O59 1.260 . S
C56 O63 1.240 . S
C56 O64 1.252 . S
C57 O60 1.252 . S
C57 O61 1.260 . S
O58 In52 2.266 . S
O58 C55 1.252 . S
O59 In52 2.326 . S
O59 C55 1.260 . S
O60 In52 2.266 . S
O60 C57 1.252 . S
O61 In52 2.326 . S
O61 C57 1.260 . S
C62 O53 1.240 . S
C62 O54 1.252 . S
O63 In52 2.294 . S
O63 C56 1.240 . S
O64 In52 2.326 . S
O64 C56 1.252 . S
In65 O66 2.294 . S
In65 O67 2.326 . S
In65 O71 2.266 . S
In65 O72 2.326 . S
In65 O73 2.266 . S
In65 O74 2.326 . S
In65 O76 2.294 . S
In65 O77 2.326 . S
O66 In65 2.294 . S
O66 C75 1.240 . S
O67 In65 2.326 . S
O67 C75 1.252 . S
C68 O71 1.252 . S
C68 O72 1.260 . S
C69 O76 1.240 . S
C69 O77 1.252 . S
C70 O73 1.252 . S
C70 O74 1.260 . S
O71 In65 2.266 . S
O71 C68 1.252 . S
O72 In65 2.326 . S
O72 C68 1.260 . S
O73 In65 2.266 . S
O73 C70 1.252 . S
O74 In65 2.326 . S
O74 C70 1.260 . S
C75 O66 1.240 . S
C75 O67 1.252 . S
O76 In65 2.294 . S
O76 C69 1.240 . S
O77 In65 2.326 . S
O77 C69 1.252 . S
In78 O79 2.294 . S
In78 O80 2.326 . S
In78 O84 2.266 . S
In78 O85 2.326 . S
In78 O86 2.266 . S
In78 O87 2.326 . S
In78 O89 2.294 . S
In78 O90 2.326 . S
O79 In78 2.294 . S
O79 C88 1.240 . S
O80 In78 2.326 . S
O80 C88 1.252 . S
C81 O84 1.252 . S
C81 O85 1.260 . S
C82 O89 1.240 . S
C82 O90 1.252 . S
C83 O86 1.252 . S
C83 O87 1.260 . S
O84 In78 2.266 . S
O84 C81 1.252 . S
O85 In78 2.326 . S
O85 C81 1.260 . S
O86 In78 2.266 . S
O86 C83 1.252 . S
O87 In78 2.326 . S
O87 C83 1.260 . S
C88 O79 1.240 . S
C88 O80 1.252 . S
O89 In78 2.294 . S
O89 C82 1.240 . S
O90 In78 2.326 . S
O90 C82 1.252 . S
In91 O92 2.294 . S
In91 O93 2.326 . S
In91 O97 2.266 . S
In91 O98 2.326 . S
In91 O99 2.266 . S
In91 O100 2.326 . S
In91 O102 2.294 . S
In91 O103 2.326 . S
O92 In91 2.294 . S
O92 C101 1.240 . S
O93 In91 2.326 . S
O93 C101 1.252 . S
C94 O97 1.252 . S
C94 O98 1.260 . S
C95 O102 1.240 . S
C95 O103 1.252 . S
C96 O99 1.252 . S
C96 O100 1.260 . S
O97 In91 2.266 . S
O97 C94 1.252 . S
O98 In91 2.326 . S
O98 C94 1.260 . S
O99 In91 2.266 . S
O99 C96 1.252 . S
O100 In91 2.326 . S
O100 C96 1.260 . S
C101 O92 1.240 . S
C101 O93 1.252 . S
O102 In91 2.294 . S
O102 C95 1.240 . S
O103 In91 2.326 . S
O103 C95 1.252 . S
In104 O105 2.294 . S
In104 O106 2.326 . S
In104 O110 2.266 . S
In104 O111 2.326 . S
In104 O112 2.266 . S
In104 O113 2.326 . S
In104 O115 2.294 . S
In104 O116 2.326 . S
O105 In104 2.294 . S
O105 C114 1.240 . S
O106 In104 2.326 . S
O106 C114 1.252 . S
C107 O110 1.252 . S
C107 O111 1.260 . S
C108 O115 1.240 . S
C108 O116 1.252 . S
C109 O112 1.252 . S
C109 O113 1.260 . S
O110 In104 2.266 . S
O110 C107 1.252 . S
O111 In104 2.326 . S
O111 C107 1.260 . S
O112 In104 2.266 . S
O112 C109 1.252 . S
O113 In104 2.326 . S
O113 C109 1.260 . S
C114 O105 1.240 . S
C114 O106 1.252 . S
O115 In104 2.294 . S
O115 C108 1.240 . S
O116 In104 2.326 . S
O116 C108 1.252 . S
In117 O118 2.294 . S
In117 O119 2.326 . S
In117 O123 2.266 . S
In117 O124 2.326 . S
In117 O125 2.266 . S
In117 O126 2.326 . S
In117 O128 2.294 . S
In117 O129 2.326 . S
O118 In117 2.294 . S
O118 C127 1.240 . S
O119 In117 2.326 . S
O119 C127 1.252 . S
C120 O123 1.252 . S
C120 O124 1.260 . S
C121 O128 1.240 . S
C121 O129 1.252 . S
C122 O125 1.252 . S
C122 O126 1.260 . S
O123 In117 2.266 . S
O123 C120 1.252 . S
O124 In117 2.326 . S
O124 C120 1.260 . S
O125 In117 2.266 . S
O125 C122 1.252 . S
O126 In117 2.326 . S
O126 C122 1.260 . S
C127 O118 1.240 . S
C127 O119 1.252 . S
O128 In117 2.294 . S
O128 C121 1.240 . S
O129 In117 2.326 . S
O129 C121 1.252 . S
In130 O131 2.294 . S
In130 O132 2.326 . S
In130 O136 2.266 . S
In130 O137 2.326 . S
In130 O138 2.266 . S
In130 O139 2.326 . S
In130 O141 2.294 . S
In130 O142 2.326 . S
O131 In130 2.294 . S
O131 C140 1.240 . S
O132 In130 2.326 . S
O132 C140 1.252 . S
C133 O136 1.252 . S
C133 O137 1.260 . S
C134 O141 1.240 . S
C134 O142 1.252 . S
C135 O138 1.252 . S
C135 O139 1.260 . S
O136 In130 2.266 . S
O136 C133 1.252 . S
O137 In130 2.326 . S
O137 C133 1.260 . S
O138 In130 2.266 . S
O138 C135 1.252 . S
O139 In130 2.326 . S
O139 C135 1.260 . S
C140 O131 1.240 . S
C140 O132 1.252 . S
O141 In130 2.294 . S
O141 C134 1.240 . S
O142 In130 2.326 . S
O142 C134 1.252 . S
In143 O144 2.294 . S
In143 O145 2.326 . S
In143 O149 2.266 . S
In143 O150 2.326 . S
In143 O151 2.266 . S
In143 O152 2.326 . S
In143 O154 2.294 . S
In143 O155 2.326 . S
O144 In143 2.294 . S
O144 C153 1.240 . S
O145 In143 2.326 . S
O145 C153 1.252 . S
C146 O149 1.252 . S
C146 O150 1.260 . S
C147 O154 1.240 . S
C147 O155 1.252 . S
C148 O151 1.252 . S
C148 O152 1.260 . S
O149 In143 2.266 . S
O149 C146 1.252 . S
O150 In143 2.326 . S
O150 C146 1.260 . S
O151 In143 2.266 . S
O151 C148 1.252 . S
O152 In143 2.326 . S
O152 C148 1.260 . S
C153 O144 1.240 . S
C153 O145 1.252 . S
O154 In143 2.294 . S
O154 C147 1.240 . S
O155 In143 2.326 . S
O155 C147 1.252 . S
In156 O157 2.294 . S
In156 O158 2.326 . S
In156 O162 2.266 . S
In156 O163 2.326 . S
In156 O164 2.266 . S
In156 O165 2.326 . S
In156 O167 2.294 . S
In156 O168 2.326 . S
O157 In156 2.294 . S
O157 C166 1.240 . S
O158 In156 2.326 . S
O158 C166 1.252 . S
C159 O162 1.252 . S
C159 O163 1.260 . S
C160 O167 1.240 . S
C160 O168 1.252 . S
C161 O164 1.252 . S
C161 O165 1.260 . S
O162 In156 2.266 . S
O162 C159 1.252 . S
O163 In156 2.326 . S
O163 C159 1.260 . S
O164 In156 2.266 . S
O164 C161 1.252 . S
O165 In156 2.326 . S
O165 C161 1.260 . S
C166 O157 1.240 . S
C166 O158 1.252 . S
O167 In156 2.294 . S
O167 C160 1.240 . S
O168 In156 2.326 . S
O168 C160 1.252 . S
In169 O170 2.294 . S
In169 O171 2.326 . S
In169 O175 2.266 . S
In169 O176 2.326 . S
In169 O177 2.266 . S
In169 O178 2.326 . S
In169 O180 2.294 . S
In169 O181 2.326 . S
O170 In169 2.294 . S
O170 C179 1.240 . S
O171 In169 2.326 . S
O171 C179 1.252 . S
C172 O175 1.252 . S
C172 O176 1.260 . S
C173 O180 1.240 . S
C173 O181 1.252 . S
C174 O177 1.252 . S
C174 O178 1.260 . S
O175 In169 2.266 . S
O175 C172 1.252 . S
O176 In169 2.326 . S
O176 C172 1.260 . S
O177 In169 2.266 . S
O177 C174 1.252 . S
O178 In169 2.326 . S
O178 C174 1.260 . S
C179 O170 1.240 . S
C179 O171 1.252 . S
O180 In169 2.294 . S
O180 C173 1.240 . S
O181 In169 2.326 . S
O181 C173 1.252 . S
In182 O183 2.294 . S
In182 O184 2.326 . S
In182 O188 2.266 . S
In182 O189 2.326 . S
In182 O190 2.266 . S
In182 O191 2.326 . S
In182 O193 2.294 . S
In182 O194 2.326 . S
O183 In182 2.294 . S
O183 C192 1.240 . S
O184 In182 2.326 . S
O184 C192 1.252 . S
C185 O188 1.252 . S
C185 O189 1.260 . S
C186 O193 1.240 . S
C186 O194 1.252 . S
C187 O190 1.252 . S
C187 O191 1.260 . S
O188 In182 2.266 . S
O188 C185 1.252 . S
O189 In182 2.326 . S
O189 C185 1.260 . S
O190 In182 2.266 . S
O190 C187 1.252 . S
O191 In182 2.326 . S
O191 C187 1.260 . S
C192 O183 1.240 . S
C192 O184 1.252 . S
O193 In182 2.294 . S
O193 C186 1.240 . S
O194 In182 2.326 . S
O194 C186 1.252 . S
In195 O196 2.294 . S
In195 O197 2.326 . S
In195 O201 2.266 . S
In195 O202 2.326 . S
In195 O203 2.266 . S
In195 O204 2.326 . S
In195 O206 2.294 . S
In195 O207 2.326 . S
O196 In195 2.294 . S
O196 C205 1.240 . S
O197 In195 2.326 . S
O197 C205 1.252 . S
C198 O201 1.252 . S
C198 O202 1.260 . S
C199 O206 1.240 . S
C199 O207 1.252 . S
C200 O203 1.252 . S
C200 O204 1.260 . S
O201 In195 2.266 . S
O201 C198 1.252 . S
O202 In195 2.326 . S
O202 C198 1.260 . S
O203 In195 2.266 . S
O203 C200 1.252 . S
O204 In195 2.326 . S
O204 C200 1.260 . S
C205 O196 1.240 . S
C205 O197 1.252 . S
O206 In195 2.294 . S
O206 C199 1.240 . S
O207 In195 2.326 . S
O207 C199 1.252 . S
In208 O209 2.294 . S
In208 O210 2.326 . S
In208 O214 2.266 . S
In208 O215 2.326 . S
In208 O216 2.266 . S
In208 O217 2.326 . S
In208 O219 2.294 . S
In208 O220 2.326 . S
O209 In208 2.294 . S
O209 C218 1.240 . S
O210 In208 2.326 . S
O210 C218 1.252 . S
C211 O214 1.252 . S
C211 O215 1.260 . S
C212 O219 1.240 . S
C212 O220 1.252 . S
C213 O216 1.252 . S
C213 O217 1.260 . S
O214 In208 2.266 . S
O214 C211 1.252 . S
O215 In208 2.326 . S
O215 C211 1.260 . S
O216 In208 2.266 . S
O216 C213 1.252 . S
O217 In208 2.326 . S
O217 C213 1.260 . S
C218 O209 1.240 . S
C218 O210 1.252 . S
O219 In208 2.294 . S
O219 C212 1.240 . S
O220 In208 2.326 . S
O220 C212 1.252 . S
In221 O222 2.294 . S
In221 O223 2.326 . S
In221 O227 2.266 . S
In221 O228 2.326 . S
In221 O229 2.266 . S
In221 O230 2.326 . S
In221 O232 2.294 . S
In221 O233 2.326 . S
O222 In221 2.294 . S
O222 C231 1.240 . S
O223 In221 2.326 . S
O223 C231 1.252 . S
C224 O227 1.252 . S
C224 O228 1.260 . S
C225 O232 1.240 . S
C225 O233 1.252 . S
C226 O229 1.252 . S
C226 O230 1.260 . S
O227 In221 2.266 . S
O227 C224 1.252 . S
O228 In221 2.326 . S
O228 C224 1.260 . S
O229 In221 2.266 . S
O229 C226 1.252 . S
O230 In221 2.326 . S
O230 C226 1.260 . S
C231 O222 1.240 . S
C231 O223 1.252 . S
O232 In221 2.294 . S
O232 C225 1.240 . S
O233 In221 2.326 . S
O233 C225 1.252 . S
In234 O235 2.294 . S
In234 O236 2.326 . S
In234 O240 2.266 . S
In234 O241 2.326 . S
In234 O242 2.266 . S
In234 O243 2.326 . S
In234 O245 2.294 . S
In234 O246 2.326 . S
O235 In234 2.294 . S
O235 C244 1.240 . S
O236 In234 2.326 . S
O236 C244 1.252 . S
C237 O240 1.252 . S
C237 O241 1.260 . S
C238 O245 1.240 . S
C238 O246 1.252 . S
C239 O242 1.252 . S
C239 O243 1.260 . S
O240 In234 2.266 . S
O240 C237 1.252 . S
O241 In234 2.326 . S
O241 C237 1.260 . S
O242 In234 2.266 . S
O242 C239 1.252 . S
O243 In234 2.326 . S
O243 C239 1.260 . S
C244 O235 1.240 . S
C244 O236 1.252 . S
O245 In234 2.294 . S
O245 C238 1.240 . S
O246 In234 2.326 . S
O246 C238 1.252 . S
In247 O248 2.294 . S
In247 O249 2.326 . S
In247 O253 2.266 . S
In247 O254 2.326 . S
In247 O255 2.266 . S
In247 O256 2.326 . S
In247 O258 2.294 . S
In247 O259 2.326 . S
O248 In247 2.294 . S
O248 C257 1.240 . S
O249 In247 2.326 . S
O249 C257 1.252 . S
C250 O253 1.252 . S
C250 O254 1.260 . S
C251 O258 1.240 . S
C251 O259 1.252 . S
C252 O255 1.252 . S
C252 O256 1.260 . S
O253 In247 2.266 . S
O253 C250 1.252 . S
O254 In247 2.326 . S
O254 C250 1.260 . S
O255 In247 2.266 . S
O255 C252 1.252 . S
O256 In247 2.326 . S
O256 C252 1.260 . S
C257 O248 1.240 . S
C257 O249 1.252 . S
O258 In247 2.294 . S
O258 C251 1.240 . S
O259 In247 2.326 . S
O259 C251 1.252 . S
In260 O261 2.294 . S
In260 O262 2.326 . S
In260 O266 2.266 . S
In260 O267 2.326 . S
In260 O268 2.266 . S
In260 O269 2.326 . S
In260 O271 2.294 . S
In260 O272 2.326 . S
O261 In260 2.294 . S
O261 C270 1.240 . S
O262 In260 2.326 . S
O262 C270 1.252 . S
C263 O266 1.252 . S
C263 O267 1.260 . S
C264 O271 1.240 . S
C264 O272 1.252 . S
C265 O268 1.252 . S
C265 O269 1.260 . S
O266 In260 2.266 . S
O266 C263 1.252 . S
O267 In260 2.326 . S
O267 C263 1.260 . S
O268 In260 2.266 . S
O268 C265 1.252 . S
O269 In260 2.326 . S
O269 C265 1.260 . S
C270 O261 1.240 . S
C270 O262 1.252 . S
O271 In260 2.294 . S
O271 C264 1.240 . S
O272 In260 2.326 . S
O272 C264 1.252 . S
In273 O274 2.294 . S
In273 O275 2.326 . S
In273 O279 2.266 . S
In273 O280 2.326 . S
In273 O281 2.266 . S
In273 O282 2.326 . S
In273 O284 2.294 . S
In273 O285 2.326 . S
O274 In273 2.294 . S
O274 C283 1.240 . S
O275 In273 2.326 . S
O275 C283 1.252 . S
C276 O279 1.252 . S
C276 O280 1.260 . S
C277 O284 1.240 . S
C277 O285 1.252 . S
C278 O281 1.252 . S
C278 O282 1.260 . S
O279 In273 2.266 . S
O279 C276 1.252 . S
O280 In273 2.326 . S
O280 C276 1.260 . S
O281 In273 2.266 . S
O281 C278 1.252 . S
O282 In273 2.326 . S
O282 C278 1.260 . S
C283 O274 1.240 . S
C283 O275 1.252 . S
O284 In273 2.294 . S
O284 C277 1.240 . S
O285 In273 2.326 . S
O285 C277 1.252 . S
In286 O287 2.294 . S
In286 O288 2.326 . S
In286 O292 2.266 . S
In286 O293 2.326 . S
In286 O294 2.266 . S
In286 O295 2.326 . S
In286 O297 2.294 . S
In286 O298 2.326 . S
O287 In286 2.294 . S
O287 C296 1.240 . S
O288 In286 2.326 . S
O288 C296 1.252 . S
C289 O292 1.252 . S
C289 O293 1.260 . S
C290 O297 1.240 . S
C290 O298 1.252 . S
C291 O294 1.252 . S
C291 O295 1.260 . S
O292 In286 2.266 . S
O292 C289 1.252 . S
O293 In286 2.326 . S
O293 C289 1.260 . S
O294 In286 2.266 . S
O294 C291 1.252 . S
O295 In286 2.326 . S
O295 C291 1.260 . S
C296 O287 1.240 . S
C296 O288 1.252 . S
O297 In286 2.294 . S
O297 C290 1.240 . S
O298 In286 2.326 . S
O298 C290 1.252 . S
In299 O300 2.294 . S
In299 O301 2.326 . S
In299 O305 2.266 . S
In299 O306 2.326 . S
In299 O307 2.266 . S
In299 O308 2.326 . S
In299 O310 2.294 . S
In299 O311 2.326 . S
O300 In299 2.294 . S
O300 C309 1.240 . S
O301 In299 2.326 . S
O301 C309 1.252 . S
C302 O305 1.252 . S
C302 O306 1.260 . S
C303 O310 1.240 . S
C303 O311 1.252 . S
C304 O307 1.252 . S
C304 O308 1.260 . S
O305 In299 2.266 . S
O305 C302 1.252 . S
O306 In299 2.326 . S
O306 C302 1.260 . S
O307 In299 2.266 . S
O307 C304 1.252 . S
O308 In299 2.326 . S
O308 C304 1.260 . S
C309 O300 1.240 . S
C309 O301 1.252 . S
O310 In299 2.294 . S
O310 C303 1.240 . S
O311 In299 2.326 . S
O311 C303 1.252 . S
In312 O313 2.294 . S
In312 O314 2.326 . S
In312 O318 2.266 . S
In312 O319 2.326 . S
In312 O320 2.266 . S
In312 O321 2.326 . S
In312 O323 2.294 . S
In312 O324 2.326 . S
O313 In312 2.294 . S
O313 C322 1.240 . S
O314 In312 2.326 . S
O314 C322 1.252 . S
C315 O318 1.252 . S
C315 O319 1.260 . S
C316 O323 1.240 . S
C316 O324 1.252 . S
C317 O320 1.252 . S
C317 O321 1.260 . S
O318 In312 2.266 . S
O318 C315 1.252 . S
O319 In312 2.326 . S
O319 C315 1.260 . S
O320 In312 2.266 . S
O320 C317 1.252 . S
O321 In312 2.326 . S
O321 C317 1.260 . S
C322 O313 1.240 . S
C322 O314 1.252 . S
O323 In312 2.294 . S
O323 C316 1.240 . S
O324 In312 2.326 . S
O324 C316 1.252 . S
In325 O326 2.294 . S
In325 O327 2.326 . S
In325 O331 2.266 . S
In325 O332 2.326 . S
In325 O333 2.266 . S
In325 O334 2.326 . S
In325 O336 2.294 . S
In325 O337 2.326 . S
O326 In325 2.294 . S
O326 C335 1.240 . S
O327 In325 2.326 . S
O327 C335 1.252 . S
C328 O331 1.252 . S
C328 O332 1.260 . S
C329 O336 1.240 . S
C329 O337 1.252 . S
C330 O333 1.252 . S
C330 O334 1.260 . S
O331 In325 2.266 . S
O331 C328 1.252 . S
O332 In325 2.326 . S
O332 C328 1.260 . S
O333 In325 2.266 . S
O333 C330 1.252 . S
O334 In325 2.326 . S
O334 C330 1.260 . S
C335 O326 1.240 . S
C335 O327 1.252 . S
O336 In325 2.294 . S
O336 C329 1.240 . S
O337 In325 2.326 . S
O337 C329 1.252 . S
In338 O339 2.294 . S
In338 O340 2.326 . S
In338 O344 2.266 . S
In338 O345 2.326 . S
In338 O346 2.266 . S
In338 O347 2.326 . S
In338 O349 2.294 . S
In338 O350 2.326 . S
O339 In338 2.294 . S
O339 C348 1.240 . S
O340 In338 2.326 . S
O340 C348 1.252 . S
C341 O344 1.252 . S
C341 O345 1.260 . S
C342 O349 1.240 . S
C342 O350 1.252 . S
C343 O346 1.252 . S
C343 O347 1.260 . S
O344 In338 2.266 . S
O344 C341 1.252 . S
O345 In338 2.326 . S
O345 C341 1.260 . S
O346 In338 2.266 . S
O346 C343 1.252 . S
O347 In338 2.326 . S
O347 C343 1.260 . S
C348 O339 1.240 . S
C348 O340 1.252 . S
O349 In338 2.294 . S
O349 C342 1.240 . S
O350 In338 2.326 . S
O350 C342 1.252 . S
In351 O352 2.294 . S
In351 O353 2.326 . S
In351 O357 2.266 . S
In351 O358 2.326 . S
In351 O359 2.266 . S
In351 O360 2.326 . S
In351 O362 2.294 . S
In351 O363 2.326 . S
O352 In351 2.294 . S
O352 C361 1.240 . S
O353 In351 2.326 . S
O353 C361 1.252 . S
C354 O357 1.252 . S
C354 O358 1.260 . S
C355 O362 1.240 . S
C355 O363 1.252 . S
C356 O359 1.252 . S
C356 O360 1.260 . S
O357 In351 2.266 . S
O357 C354 1.252 . S
O358 In351 2.326 . S
O358 C354 1.260 . S
O359 In351 2.266 . S
O359 C356 1.252 . S
O360 In351 2.326 . S
O360 C356 1.260 . S
C361 O352 1.240 . S
C361 O353 1.252 . S
O362 In351 2.294 . S
O362 C355 1.240 . S
O363 In351 2.326 . S
O363 C355 1.252 . S
In364 O365 2.294 . S
In364 O366 2.326 . S
In364 O370 2.266 . S
In364 O371 2.326 . S
In364 O372 2.266 . S
In364 O373 2.326 . S
In364 O375 2.294 . S
In364 O376 2.326 . S
O365 In364 2.294 . S
O365 C374 1.240 . S
O366 In364 2.326 . S
O366 C374 1.252 . S
C367 O370 1.252 . S
C367 O371 1.260 . S
C368 O375 1.240 . S
C368 O376 1.252 . S
C369 O372 1.252 . S
C369 O373 1.260 . S
O370 In364 2.266 . S
O370 C367 1.252 . S
O371 In364 2.326 . S
O371 C367 1.260 . S
O372 In364 2.266 . S
O372 C369 1.252 . S
O373 In364 2.326 . S
O373 C369 1.260 . S
C374 O365 1.240 . S
C374 O366 1.252 . S
O375 In364 2.294 . S
O375 C368 1.240 . S
O376 In364 2.326 . S
O376 C368 1.252 . S
In377 O378 2.294 . S
In377 O379 2.326 . S
In377 O383 2.266 . S
In377 O384 2.326 . S
In377 O385 2.266 . S
In377 O386 2.326 . S
In377 O388 2.294 . S
In377 O389 2.326 . S
O378 In377 2.294 . S
O378 C387 1.240 . S
O379 In377 2.326 . S
O379 C387 1.252 . S
C380 O383 1.252 . S
C380 O384 1.260 . S
C381 O388 1.240 . S
C381 O389 1.252 . S
C382 O385 1.252 . S
C382 O386 1.260 . S
O383 In377 2.266 . S
O383 C380 1.252 . S
O384 In377 2.326 . S
O384 C380 1.260 . S
O385 In377 2.266 . S
O385 C382 1.252 . S
O386 In377 2.326 . S
O386 C382 1.260 . S
C387 O378 1.240 . S
C387 O379 1.252 . S
O388 In377 2.294 . S
O388 C381 1.240 . S
O389 In377 2.326 . S
O389 C381 1.252 . S
In390 O391 2.294 . S
In390 O392 2.326 . S
In390 O396 2.266 . S
In390 O397 2.326 . S
In390 O398 2.266 . S
In390 O399 2.326 . S
In390 O401 2.294 . S
In390 O402 2.326 . S
O391 In390 2.294 . S
O391 C400 1.240 . S
O392 In390 2.326 . S
O392 C400 1.252 . S
C393 O396 1.252 . S
C393 O397 1.260 . S
C394 O401 1.240 . S
C394 O402 1.252 . S
C395 O398 1.252 . S
C395 O399 1.260 . S
O396 In390 2.266 . S
O396 C393 1.252 . S
O397 In390 2.326 . S
O397 C393 1.260 . S
O398 In390 2.266 . S
O398 C395 1.252 . S
O399 In390 2.326 . S
O399 C395 1.260 . S
C400 O391 1.240 . S
C400 O392 1.252 . S
O401 In390 2.294 . S
O401 C394 1.240 . S
O402 In390 2.326 . S
O402 C394 1.252 . S
In403 O404 2.294 . S
In403 O405 2.326 . S
In403 O409 2.266 . S
In403 O410 2.326 . S
In403 O411 2.266 . S
In403 O412 2.326 . S
In403 O414 2.294 . S
In403 O415 2.326 . S
O404 In403 2.294 . S
O404 C413 1.240 . S
O405 In403 2.326 . S
O405 C413 1.252 . S
C406 O409 1.252 . S
C406 O410 1.260 . S
C407 O414 1.240 . S
C407 O415 1.252 . S
C408 O411 1.252 . S
C408 O412 1.260 . S
O409 In403 2.266 . S
O409 C406 1.252 . S
O410 In403 2.326 . S
O410 C406 1.260 . S
O411 In403 2.266 . S
O411 C408 1.252 . S
O412 In403 2.326 . S
O412 C408 1.260 . S
C413 O404 1.240 . S
C413 O405 1.252 . S
O414 In403 2.294 . S
O414 C407 1.240 . S
O415 In403 2.326 . S
O415 C407 1.252 . S
In416 O417 2.294 . S
In416 O418 2.326 . S
In416 O422 2.266 . S
In416 O423 2.326 . S
In416 O424 2.266 . S
In416 O425 2.326 . S
In416 O427 2.294 . S
In416 O428 2.326 . S
O417 In416 2.294 . S
O417 C426 1.240 . S
O418 In416 2.326 . S
O418 C426 1.252 . S
C419 O422 1.252 . S
C419 O423 1.260 . S
C420 O427 1.240 . S
C420 O428 1.252 . S
C421 O424 1.252 . S
C421 O425 1.260 . S
O422 In416 2.266 . S
O422 C419 1.252 . S
O423 In416 2.326 . S
O423 C419 1.260 . S
O424 In416 2.266 . S
O424 C421 1.252 . S
O425 In416 2.326 . S
O425 C421 1.260 . S
C426 O417 1.240 . S
C426 O418 1.252 . S
O427 In416 2.294 . S
O427 C420 1.240 . S
O428 In416 2.326 . S
O428 C420 1.252 . S
In429 O430 2.294 . S
In429 O431 2.326 . S
In429 O435 2.266 . S
In429 O436 2.326 . S
In429 O437 2.266 . S
In429 O438 2.326 . S
In429 O440 2.294 . S
In429 O441 2.326 . S
O430 In429 2.294 . S
O430 C439 1.240 . S
O431 In429 2.326 . S
O431 C439 1.252 . S
C432 O435 1.252 . S
C432 O436 1.260 . S
C433 O440 1.240 . S
C433 O441 1.252 . S
C434 O437 1.252 . S
C434 O438 1.260 . S
O435 In429 2.266 . S
O435 C432 1.252 . S
O436 In429 2.326 . S
O436 C432 1.260 . S
O437 In429 2.266 . S
O437 C434 1.252 . S
O438 In429 2.326 . S
O438 C434 1.260 . S
C439 O430 1.240 . S
C439 O431 1.252 . S
O440 In429 2.294 . S
O440 C433 1.240 . S
O441 In429 2.326 . S
O441 C433 1.252 . S
In442 O443 2.294 . S
In442 O444 2.326 . S
In442 O448 2.266 . S
In442 O449 2.326 . S
In442 O450 2.266 . S
In442 O451 2.326 . S
In442 O453 2.294 . S
In442 O454 2.326 . S
O443 In442 2.294 . S
O443 C452 1.240 . S
O444 In442 2.326 . S
O444 C452 1.252 . S
C445 O448 1.252 . S
C445 O449 1.260 . S
C446 O453 1.240 . S
C446 O454 1.252 . S
C447 O450 1.252 . S
C447 O451 1.260 . S
O448 In442 2.266 . S
O448 C445 1.252 . S
O449 In442 2.326 . S
O449 C445 1.260 . S
O450 In442 2.266 . S
O450 C447 1.252 . S
O451 In442 2.326 . S
O451 C447 1.260 . S
C452 O443 1.240 . S
C452 O444 1.252 . S
O453 In442 2.294 . S
O453 C446 1.240 . S
O454 In442 2.326 . S
O454 C446 1.252 . S
In455 O456 2.294 . S
In455 O457 2.326 . S
In455 O461 2.266 . S
In455 O462 2.326 . S
In455 O463 2.266 . S
In455 O464 2.326 . S
In455 O466 2.294 . S
In455 O467 2.326 . S
O456 In455 2.294 . S
O456 C465 1.240 . S
O457 In455 2.326 . S
O457 C465 1.252 . S
C458 O461 1.252 . S
C458 O462 1.260 . S
C459 O466 1.240 . S
C459 O467 1.252 . S
C460 O463 1.252 . S
C460 O464 1.260 . S
O461 In455 2.266 . S
O461 C458 1.252 . S
O462 In455 2.326 . S
O462 C458 1.260 . S
O463 In455 2.266 . S
O463 C460 1.252 . S
O464 In455 2.326 . S
O464 C460 1.260 . S
C465 O456 1.240 . S
C465 O457 1.252 . S
O466 In455 2.294 . S
O466 C459 1.240 . S
O467 In455 2.326 . S
O467 C459 1.252 . S
C468 C469 1.391 . S
C468 C470 1.394 . S
C468 H484 0.931 . S
C469 C468 1.391 . S
C469 C473 1.376 . S
C470 C468 1.394 . S
C470 C471 1.369 . S
C470 C474 1.531 . S
C471 C470 1.369 . S
C471 C472 1.410 . S
C471 C479 1.503 1_565 S
C472 C471 1.410 . S
C472 C473 1.392 . S
C472 C475 1.511 . S
C473 C469 1.376 . S
C473 C472 1.392 . S
C473 H485 0.929 . S
C474 C470 1.531 . S
C474 H486 0.960 . S
C474 H487 0.962 . S
C474 H488 0.960 . S
C475 C472 1.511 . S
C475 H489 0.961 . S
C475 H490 0.961 1_565 S
C475 H491 0.961 . S
C476 C477 1.370 . S
C476 C478 1.363 . S
C476 H492 0.931 . S
C477 C476 1.370 . S
C477 C481 1.408 . S
C478 C476 1.363 . S
C478 C479 1.370 . S
C478 C482 1.524 . S
C479 C471 1.503 1_545 S
C479 C478 1.370 . S
C479 C480 1.403 . S
C480 C479 1.403 . S
C480 C481 1.404 . S
C480 C483 1.539 . S
C481 C477 1.408 . S
C481 C480 1.404 . S
C481 H493 0.930 . S
C482 C478 1.524 . S
C482 H494 0.956 . S
C482 H495 0.961 . S
C482 H496 0.961 . S
C483 C480 1.539 . S
C483 H497 0.958 . S
C483 H498 0.961 . S
C483 H499 0.960 1_545 S
H484 C468 0.931 . S
H485 C473 0.929 . S
H486 C474 0.960 . S
H487 C474 0.962 . S
H488 C474 0.960 . S
H489 C475 0.961 . S
H490 C475 0.961 1_545 S
H491 C475 0.961 . S
H492 C476 0.931 . S
H493 C481 0.930 . S
H494 C482 0.956 . S
H495 C482 0.961 . S
H496 C482 0.961 . S
H497 C483 0.958 . S
H498 C483 0.961 . S
H499 C483 0.960 1_565 S
C500 C501 1.391 . S
C500 C502 1.394 . S
C500 H516 0.931 . S
C501 C500 1.391 . S
C501 C505 1.376 . S
C502 C500 1.394 . S
C502 C503 1.369 . S
C502 C506 1.531 . S
C503 C502 1.369 . S
C503 C504 1.410 . S
C503 C511 1.503 1_455 S
C504 C503 1.410 . S
C504 C505 1.392 . S
C504 C507 1.511 . S
C505 C501 1.376 . S
C505 C504 1.392 . S
C505 H517 0.929 . S
C506 C502 1.531 . S
C506 H518 0.960 1_455 S
C506 H519 0.962 . S
C506 H520 0.960 . S
C507 C504 1.511 . S
C507 H521 0.961 . S
C507 H522 0.966 . S
C507 H523 0.961 . S
C508 C509 1.370 . S
C508 C510 1.363 . S
C508 H524 0.931 . S
C509 C508 1.370 . S
C509 C513 1.408 . S
C510 C508 1.363 . S
C510 C511 1.370 . S
C510 C514 1.524 . S
C511 C503 1.503 1_655 S
C511 C510 1.370 . S
C511 C512 1.403 . S
C512 C511 1.403 . S
C512 C513 1.404 . S
C512 C515 1.539 . S
C513 C509 1.408 . S
C513 C512 1.404 . S
C513 H525 0.930 . S
C514 C510 1.524 . S
C514 H526 0.956 . S
C514 H527 0.961 . S
C514 H528 0.961 . S
C515 C512 1.539 . S
C515 H529 0.958 . S
C515 H530 0.961 . S
C515 H531 0.960 1_655 S
H516 C500 0.931 . S
H517 C505 0.929 . S
H518 C506 0.960 1_655 S
H519 C506 0.962 . S
H520 C506 0.960 . S
H521 C507 0.961 . S
H522 C507 0.966 . S
H523 C507 0.961 . S
H524 C508 0.931 . S
H525 C513 0.930 . S
H526 C514 0.956 . S
H527 C514 0.961 . S
H528 C514 0.961 . S
H529 C515 0.958 . S
H530 C515 0.961 . S
H531 C515 0.960 1_455 S
C532 C533 1.391 . S
C532 C534 1.394 . S
C532 H548 0.931 . S
C533 C532 1.391 . S
C533 C537 1.376 . S
C534 C532 1.394 . S
C534 C535 1.369 . S
C534 C538 1.531 . S
C535 C534 1.369 . S
C535 C536 1.410 . S
C535 C543 1.503 . S
C536 C535 1.410 . S
C536 C537 1.392 . S
C536 C539 1.511 . S
C537 C533 1.376 . S
C537 C536 1.392 . S
C537 H549 0.929 . S
C538 C534 1.531 . S
C538 H550 0.960 . S
C538 H551 0.962 . S
C538 H552 0.960 . S
C539 C536 1.511 . S
C539 H553 0.961 . S
C539 H554 0.961 . S
C539 H555 0.961 . S
C540 C541 1.370 . S
C540 C542 1.363 . S
C540 H556 0.931 . S
C541 C540 1.370 . S
C541 C545 1.408 . S
C542 C540 1.363 . S
C542 C543 1.370 . S
C542 C546 1.524 . S
C543 C535 1.503 . S
C543 C542 1.370 . S
C543 C544 1.403 . S
C544 C543 1.403 . S
C544 C545 1.404 . S
C544 C547 1.539 . S
C545 C541 1.408 . S
C545 C544 1.404 . S
C545 H557 0.930 . S
C546 C542 1.524 . S
C546 H558 0.956 . S
C546 H559 0.961 . S
C546 H560 0.961 . S
C547 C544 1.539 . S
C547 H561 0.958 . S
C547 H562 0.961 . S
C547 H563 0.960 . S
H548 C532 0.931 . S
H549 C537 0.929 . S
H550 C538 0.960 . S
H551 C538 0.962 . S
H552 C538 0.960 . S
H553 C539 0.961 . S
H554 C539 0.961 . S
H555 C539 0.961 . S
H556 C540 0.931 . S
H557 C545 0.930 . S
H558 C546 0.956 . S
H559 C546 0.961 . S
H560 C546 0.961 . S
H561 C547 0.958 . S
H562 C547 0.961 . S
H563 C547 0.960 . S
C564 C565 1.391 . S
C564 C566 1.394 . S
C564 H580 0.931 . S
C565 C564 1.391 . S
C565 C569 1.376 . S
C566 C564 1.394 . S
C566 C567 1.369 . S
C566 C570 1.531 . S
C567 C566 1.369 . S
C567 C568 1.410 . S
C567 C575 1.503 1_565 S
C568 C567 1.410 . S
C568 C569 1.392 . S
C568 C571 1.511 . S
C569 C565 1.376 . S
C569 C568 1.392 . S
C569 H581 0.929 . S
C570 C566 1.531 . S
C570 H582 0.960 . S
C570 H583 0.962 . S
C570 H584 0.960 . S
C571 C568 1.511 . S
C571 H585 0.961 . S
C571 H586 0.961 1_565 S
C571 H587 0.961 . S
C572 C573 1.370 . S
C572 C574 1.363 . S
C572 H588 0.931 . S
C573 C572 1.370 . S
C573 C577 1.408 . S
C574 C572 1.363 . S
C574 C575 1.370 . S
C574 C578 1.524 . S
C575 C567 1.503 1_545 S
C575 C574 1.370 . S
C575 C576 1.403 . S
C576 C575 1.403 . S
C576 C577 1.404 . S
C576 C579 1.539 . S
C577 C573 1.408 . S
C577 C576 1.404 . S
C577 H589 0.930 . S
C578 C574 1.524 . S
C578 H590 0.956 . S
C578 H591 0.961 . S
C578 H592 0.961 . S
C579 C576 1.539 . S
C579 H593 0.958 . S
C579 H594 0.961 . S
C579 H595 0.960 1_545 S
H580 C564 0.931 . S
H581 C569 0.929 . S
H582 C570 0.960 . S
H583 C570 0.962 . S
H584 C570 0.960 . S
H585 C571 0.961 . S
H586 C571 0.961 1_545 S
H587 C571 0.961 . S
H588 C572 0.931 . S
H589 C577 0.930 . S
H590 C578 0.956 . S
H591 C578 0.961 . S
H592 C578 0.961 . S
H593 C579 0.958 . S
H594 C579 0.961 . S
H595 C579 0.960 1_565 S
C596 C597 1.391 . S
C596 C598 1.394 . S
C596 H612 0.931 . S
C597 C596 1.391 . S
C597 C601 1.376 . S
C598 C596 1.394 . S
C598 C599 1.369 . S
C598 C602 1.531 . S
C599 C598 1.369 . S
C599 C600 1.410 . S
C599 C607 1.503 1_455 S
C600 C599 1.410 . S
C600 C601 1.392 . S
C600 C603 1.511 . S
C601 C597 1.376 . S
C601 C600 1.392 . S
C601 H613 0.929 . S
C602 C598 1.531 . S
C602 H614 0.960 . S
C602 H615 0.962 . S
C602 H616 0.960 . S
C603 C600 1.511 . S
C603 H617 0.961 . S
C603 H618 0.961 1_455 S
C603 H619 0.961 . S
C604 C605 1.370 . S
C604 C606 1.363 . S
C604 H620 0.931 . S
C605 C604 1.370 . S
C605 C609 1.408 . S
C606 C604 1.363 . S
C606 C607 1.370 . S
C606 C610 1.524 . S
C607 C599 1.503 1_655 S
C607 C606 1.370 . S
C607 C608 1.403 . S
C608 C607 1.403 . S
C608 C609 1.404 . S
C608 C611 1.539 . S
C609 C605 1.408 . S
C609 C608 1.404 . S
C609 H621 0.930 . S
C610 C606 1.524 . S
C610 H622 0.956 1_655 S
C610 H623 0.948 1_655 S
C610 H624 0.961 . S
C611 C608 1.539 . S
C611 H625 0.958 . S
C611 H626 0.961 . S
C611 H627 0.960 . S
H612 C596 0.931 . S
H613 C601 0.929 . S
H614 C602 0.960 . S
H615 C602 0.962 . S
H616 C602 0.960 . S
H617 C603 0.961 . S
H618 C603 0.961 1_655 S
H619 C603 0.961 . S
H620 C604 0.931 . S
H621 C609 0.930 . S
H622 C610 0.956 1_455 S
H623 C610 0.948 1_455 S
H624 C610 0.961 . S
H625 C611 0.958 . S
H626 C611 0.961 . S
H627 C611 0.960 . S
C628 C629 1.391 . S
C628 C630 1.394 . S
C628 H644 0.931 . S
C629 C628 1.391 . S
C629 C633 1.376 . S
C630 C628 1.394 . S
C630 C631 1.369 . S
C630 C634 1.531 . S
C631 C630 1.369 . S
C631 C632 1.410 . S
C631 C639 1.503 . S
C632 C631 1.410 . S
C632 C633 1.392 . S
C632 C635 1.511 . S
C633 C629 1.376 . S
C633 C632 1.392 . S
C633 H645 0.929 . S
C634 C630 1.531 . S
C634 H646 0.960 . S
C634 H647 0.962 . S
C634 H648 0.960 . S
C635 C632 1.511 . S
C635 H649 0.961 . S
C635 H650 0.961 . S
C635 H651 0.961 . S
C636 C637 1.370 . S
C636 C638 1.363 . S
C636 H652 0.931 . S
C637 C636 1.370 . S
C637 C641 1.408 . S
C638 C636 1.363 . S
C638 C639 1.370 . S
C638 C642 1.524 . S
C639 C631 1.503 . S
C639 C638 1.370 . S
C639 C640 1.403 . S
C640 C639 1.403 . S
C640 C641 1.404 . S
C640 C643 1.539 . S
C641 C637 1.408 . S
C641 C640 1.404 . S
C641 H653 0.930 . S
C642 C638 1.524 . S
C642 H654 0.956 . S
C642 H655 0.961 . S
C642 H656 0.961 . S
C643 C640 1.539 . S
C643 H657 0.958 . S
C643 H658 0.961 . S
C643 H659 0.960 . S
H644 C628 0.931 . S
H645 C633 0.929 . S
H646 C634 0.960 . S
H647 C634 0.962 . S
H648 C634 0.960 . S
H649 C635 0.961 . S
H650 C635 0.961 . S
H651 C635 0.961 . S
H652 C636 0.931 . S
H653 C641 0.930 . S
H654 C642 0.956 . S
H655 C642 0.961 . S
H656 C642 0.961 . S
H657 C643 0.958 . S
H658 C643 0.961 . S
H659 C643 0.960 . S
C660 C661 1.391 1_655 S
C660 C662 1.394 . S
C660 H676 0.931 . S
C661 C660 1.391 1_455 S
C661 C665 1.376 . S
C662 C660 1.394 . S
C662 C663 1.369 . S
C662 C666 1.531 . S
C663 C662 1.369 . S
C663 C664 1.421 . S
C663 C671 1.503 . S
C664 C663 1.421 . S
C664 C665 1.392 1_655 S
C664 C667 1.500 1_655 S
C665 C661 1.376 . S
C665 C664 1.392 1_455 S
C665 H677 0.929 . S
C666 C662 1.531 . S
C666 H678 0.960 . S
C666 H679 0.962 . S
C666 H680 0.960 . S
C667 C664 1.500 1_455 S
C667 H681 0.961 . S
C667 H682 0.961 . S
C667 H683 0.939 1_455 S
C668 C669 1.370 . S
C668 C670 1.363 . S
C668 H684 0.931 . S
C669 C668 1.370 . S
C669 C673 1.408 . S
C670 C668 1.363 . S
C670 C671 1.370 . S
C670 C674 1.524 . S
C671 C663 1.503 . S
C671 C670 1.370 . S
C671 C672 1.403 . S
C672 C671 1.403 . S
C672 C673 1.404 . S
C672 C675 1.539 . S
C673 C669 1.408 . S
C673 C672 1.404 . S
C673 H685 0.930 . S
C674 C670 1.524 . S
C674 H686 0.956 . S
C674 H687 0.961 1_655 S
C674 H688 0.946 1_655 S
C675 C672 1.539 . S
C675 H689 0.958 . S
C675 H690 0.961 . S
C675 H691 0.960 . S
H676 C660 0.931 . S
H677 C665 0.929 . S
H678 C666 0.960 . S
H679 C666 0.962 . S
H680 C666 0.960 . S
H681 C667 0.961 . S
H682 C667 0.961 . S
H683 C667 0.939 1_655 S
H684 C668 0.931 . S
H685 C673 0.930 . S
H686 C674 0.956 . S
H687 C674 0.961 1_455 S
H688 C674 0.946 1_455 S
H689 C675 0.958 . S
H690 C675 0.961 . S
H691 C675 0.960 . S
C692 C693 1.391 . S
C692 C694 1.394 . S
C692 H708 0.931 . S
C693 C692 1.391 . S
C693 C697 1.376 . S
C694 C692 1.394 . S
C694 C695 1.369 . S
C694 C698 1.531 . S
C695 C694 1.369 . S
C695 C696 1.410 . S
C695 C703 1.503 . S
C696 C695 1.410 . S
C696 C697 1.392 . S
C696 C699 1.511 . S
C697 C693 1.376 . S
C697 C696 1.392 . S
C697 H709 0.929 . S
C698 C694 1.531 . S
C698 H710 0.960 . S
C698 H711 0.962 . S
C698 H712 0.960 . S
C699 C696 1.511 . S
C699 H713 0.961 . S
C699 H714 0.961 . S
C699 H715 0.961 . S
C700 C701 1.370 . S
C700 C702 1.363 . S
C700 H716 0.931 . S
C701 C700 1.370 . S
C701 C705 1.408 . S
C702 C700 1.363 . S
C702 C703 1.370 . S
C702 C706 1.524 . S
C703 C695 1.503 . S
C703 C702 1.370 . S
C703 C704 1.403 . S
C704 C703 1.403 . S
C704 C705 1.404 . S
C704 C707 1.539 . S
C705 C701 1.408 . S
C705 C704 1.404 . S
C705 H717 0.930 . S
C706 C702 1.524 . S
C706 H718 0.956 . S
C706 H719 0.961 . S
C706 H720 0.961 . S
C707 C704 1.539 . S
C707 H721 0.958 . S
C707 H722 0.961 . S
C707 H723 0.960 . S
H708 C692 0.931 . S
H709 C697 0.929 . S
H710 C698 0.960 . S
H711 C698 0.962 . S
H712 C698 0.960 . S
H713 C699 0.961 . S
H714 C699 0.961 . S
H715 C699 0.961 . S
H716 C700 0.931 . S
H717 C705 0.930 . S
H718 C706 0.956 . S
H719 C706 0.961 . S
H720 C706 0.961 . S
H721 C707 0.958 . S
H722 C707 0.961 . S
H723 C707 0.960 . S
C724 C725 1.391 . S
C724 C726 1.394 . S
C724 H740 0.931 . S
C725 C724 1.391 . S
C725 C729 1.376 . S
C726 C724 1.394 . S
C726 C727 1.369 . S
C726 C730 1.531 . S
C727 C726 1.369 . S
C727 C728 1.410 . S
C727 C735 1.503 . S
C728 C727 1.410 . S
C728 C729 1.392 . S
C728 C731 1.511 . S
C729 C725 1.376 . S
C729 C728 1.392 . S
C729 H741 0.929 . S
C730 C726 1.531 . S
C730 H742 0.960 . S
C730 H743 0.915 1_545 S
C730 H744 0.960 . S
C731 C728 1.511 . S
C731 H745 0.961 . S
C731 H746 0.961 . S
C731 H747 0.961 . S
C732 C733 1.370 . S
C732 C734 1.363 . S
C732 H748 0.931 . S
C733 C732 1.370 . S
C733 C737 1.408 1_565 S
C734 C732 1.363 . S
C734 C735 1.370 1_565 S
C734 C738 1.524 . S
C735 C727 1.503 . S
C735 C734 1.370 1_545 S
C735 C736 1.403 . S
C736 C735 1.403 . S
C736 C737 1.404 . S
C736 C739 1.539 . S
C737 C733 1.408 1_545 S
C737 C736 1.404 . S
C737 H749 0.930 . S
C738 C734 1.524 . S
C738 H750 0.956 . S
C738 H751 0.989 . S
C738 H752 0.961 . S
C739 C736 1.539 . S
C739 H753 0.958 . S
C739 H754 0.961 . S
C739 H755 0.960 . S
H740 C724 0.931 . S
H741 C729 0.929 . S
H742 C730 0.960 . S
H743 C730 0.915 1_565 S
H744 C730 0.960 . S
H745 C731 0.961 . S
H746 C731 0.961 . S
H747 C731 0.961 . S
H748 C732 0.931 . S
H749 C737 0.930 . S
H750 C738 0.956 . S
H751 C738 0.989 . S
H752 C738 0.961 . S
H753 C739 0.958 . S
H754 C739 0.961 . S
H755 C739 0.960 . S
C756 C757 1.391 . S
C756 C758 1.394 . S
C756 H772 0.931 . S
C757 C756 1.391 . S
C757 C761 1.376 . S
C758 C756 1.394 . S
C758 C759 1.369 . S
C758 C762 1.531 . S
C759 C758 1.369 . S
C759 C760 1.410 . S
C759 C767 1.503 . S
C760 C759 1.410 . S
C760 C761 1.392 . S
C760 C763 1.511 . S
C761 C757 1.376 . S
C761 C760 1.392 . S
C761 H773 0.929 . S
C762 C758 1.531 . S
C762 H774 0.960 . S
C762 H775 0.962 . S
C762 H776 0.960 . S
C763 C760 1.511 . S
C763 H777 0.961 . S
C763 H778 0.961 . S
C763 H779 0.961 . S
C764 C765 1.370 . S
C764 C766 1.363 . S
C764 H780 0.931 . S
C765 C764 1.370 . S
C765 C769 1.408 . S
C766 C764 1.363 . S
C766 C767 1.370 . S
C766 C770 1.524 . S
C767 C759 1.503 . S
C767 C766 1.370 . S
C767 C768 1.403 . S
C768 C767 1.403 . S
C768 C769 1.404 . S
C768 C771 1.539 . S
C769 C765 1.408 . S
C769 C768 1.404 . S
C769 H781 0.930 . S
C770 C766 1.524 . S
C770 H782 0.956 . S
C770 H783 0.961 . S
C770 H784 0.961 . S
C771 C768 1.539 . S
C771 H785 0.958 . S
C771 H786 0.961 . S
C771 H787 0.960 . S
H772 C756 0.931 . S
H773 C761 0.929 . S
H774 C762 0.960 . S
H775 C762 0.962 . S
H776 C762 0.960 . S
H777 C763 0.961 . S
H778 C763 0.961 . S
H779 C763 0.961 . S
H780 C764 0.931 . S
H781 C769 0.930 . S
H782 C770 0.956 . S
H783 C770 0.961 . S
H784 C770 0.961 . S
H785 C771 0.958 . S
H786 C771 0.961 . S
H787 C771 0.960 . S
C788 C789 1.391 1_545 S
C788 C790 1.394 . S
C788 H804 0.931 . S
C789 C788 1.391 1_565 S
C789 C793 1.376 . S
C790 C788 1.394 . S
C790 C791 1.369 . S
C790 C794 1.531 . S
C791 C790 1.369 . S
C791 C792 1.410 . S
C791 C799 1.503 . S
C792 C791 1.410 . S
C792 C793 1.392 1_545 S
C792 C795 1.511 . S
C793 C789 1.376 . S
C793 C792 1.392 1_565 S
C793 H805 0.929 . S
C794 C790 1.531 . S
C794 H806 0.960 . S
C794 H807 0.962 . S
C794 H808 0.960 1_554 S
C795 C792 1.511 . S
C795 H809 0.932 1_545 S
C795 H810 0.961 . S
C795 H811 0.961 . S
C796 C797 1.370 . S
C796 C798 1.363 . S
C796 H812 0.931 . S
C797 C796 1.370 . S
C797 C801 1.408 . S
C798 C796 1.363 . S
C798 C799 1.370 . S
C798 C802 1.524 1_545 S
C799 C791 1.503 . S
C799 C798 1.370 . S
C799 C800 1.403 . S
C800 C799 1.403 . S
C800 C801 1.404 . S
C800 C803 1.539 . S
C801 C797 1.408 . S
C801 C800 1.404 . S
C801 H813 0.930 . S
C802 C798 1.524 1_565 S
C802 H814 0.956 . S
C802 H815 0.961 . S
C802 H816 0.961 . S
C803 C800 1.539 . S
C803 H817 0.958 . S
C803 H818 0.961 . S
C803 H819 0.960 . S
H804 C788 0.931 . S
H805 C793 0.929 . S
H806 C794 0.960 . S
H807 C794 0.962 . S
H808 C794 0.960 1_556 S
H809 C795 0.932 1_565 S
H810 C795 0.961 . S
H811 C795 0.961 . S
H812 C796 0.931 . S
H813 C801 0.930 . S
H814 C802 0.956 . S
H815 C802 0.961 . S
H816 C802 0.961 . S
H817 C803 0.958 . S
H818 C803 0.961 . S
H819 C803 0.960 . S
C820 C821 1.391 . S
C820 C822 1.394 . S
C820 H836 0.931 . S
C821 C820 1.391 . S
C821 C825 1.376 . S
C822 C820 1.394 . S
C822 C823 1.369 . S
C822 C826 1.531 . S
C823 C822 1.369 . S
C823 C824 1.410 . S
C823 C831 1.503 . S
C824 C823 1.410 . S
C824 C825 1.392 . S
C824 C827 1.511 1_655 S
C825 C821 1.376 . S
C825 C824 1.392 . S
C825 H837 0.929 . S
C826 C822 1.531 . S
C826 H838 0.960 . S
C826 H839 0.962 . S
C826 H840 0.960 . S
C827 C824 1.511 1_455 S
C827 H841 0.961 . S
C827 H842 0.961 . S
C827 H843 0.961 . S
C828 C829 1.370 . S
C828 C830 1.363 1_455 S
C828 H844 0.931 . S
C829 C828 1.370 . S
C829 C833 1.408 1_455 S
C830 C828 1.363 1_655 S
C830 C831 1.370 . S
C830 C834 1.524 . S
C831 C823 1.503 . S
C831 C830 1.370 . S
C831 C832 1.403 . S
C832 C831 1.403 . S
C832 C833 1.404 . S
C832 C835 1.539 . S
C833 C829 1.408 1_655 S
C833 C832 1.404 . S
C833 H845 0.930 . S
C834 C830 1.524 . S
C834 H846 0.956 . S
C834 H847 0.967 1_655 S
C834 H848 0.961 1_655 S
C835 C832 1.539 . S
C835 H849 0.958 . S
C835 H850 0.961 1_554 S
C835 H851 0.960 . S
H836 C820 0.931 . S
H837 C825 0.929 . S
H838 C826 0.960 . S
H839 C826 0.962 . S
H840 C826 0.960 . S
H841 C827 0.961 . S
H842 C827 0.961 . S
H843 C827 0.961 . S
H844 C828 0.931 . S
H845 C833 0.930 . S
H846 C834 0.956 . S
H847 C834 0.967 1_455 S
H848 C834 0.961 1_455 S
H849 C835 0.958 . S
H850 C835 0.961 1_556 S
H851 C835 0.960 . S
C852 C853 1.391 . S
C852 C854 1.394 . S
C852 H868 0.931 . S
C853 C852 1.391 . S
C853 C857 1.376 . S
C854 C852 1.394 . S
C854 C855 1.369 . S
C854 C858 1.531 . S
C855 C854 1.369 . S
C855 C856 1.410 . S
C855 C863 1.503 . S
C856 C855 1.410 . S
C856 C857 1.392 . S
C856 C859 1.511 . S
C857 C853 1.376 . S
C857 C856 1.392 . S
C857 H869 0.929 . S
C858 C854 1.531 . S
C858 H870 0.960 . S
C858 H871 0.962 . S
C858 H872 0.960 . S
C859 C856 1.511 . S
C859 H873 0.961 . S
C859 H874 0.961 . S
C859 H875 0.961 . S
C860 C861 1.370 . S
C860 C862 1.363 . S
C860 H876 0.931 . S
C861 C860 1.370 . S
C861 C865 1.408 . S
C862 C860 1.363 . S
C862 C863 1.370 . S
C862 C866 1.524 . S
C863 C855 1.503 . S
C863 C862 1.370 . S
C863 C864 1.403 . S
C864 C863 1.403 . S
C864 C865 1.404 . S
C864 C867 1.539 . S
C865 C861 1.408 . S
C865 C864 1.404 . S
C865 H877 0.930 . S
C866 C862 1.524 . S
C866 H878 0.956 . S
C866 H879 0.961 . S
C866 H880 0.961 . S
C867 C864 1.539 . S
C867 H881 0.958 . S
C867 H882 0.961 . S
C867 H883 0.960 . S
H868 C852 0.931 . S
H869 C857 0.929 . S
H870 C858 0.960 . S
H871 C858 0.962 . S
H872 C858 0.960 . S
H873 C859 0.961 . S
H874 C859 0.961 . S
H875 C859 0.961 . S
H876 C860 0.931 . S
H877 C865 0.930 . S
H878 C866 0.956 . S
H879 C866 0.961 . S
H880 C866 0.961 . S
H881 C867 0.958 . S
H882 C867 0.961 . S
H883 C867 0.960 . S
C884 C885 1.391 1_565 S
C884 C886 1.394 . S
C884 H900 0.931 . S
C885 C884 1.391 1_545 S
C885 C889 1.376 . S
C886 C884 1.394 . S
C886 C887 1.369 . S
C886 C890 1.531 . S
C887 C886 1.369 . S
C887 C888 1.410 1_565 S
C887 C895 1.503 . S
C888 C887 1.410 1_545 S
C888 C889 1.392 . S
C888 C891 1.511 . S
C889 C885 1.376 . S
C889 C888 1.392 . S
C889 H901 0.929 . S
C890 C886 1.531 . S
C890 H902 0.960 . S
C890 H903 0.962 . S
C890 H904 0.960 . S
C891 C888 1.511 . S
C891 H905 0.961 . S
C891 H906 0.961 . S
C891 H907 0.961 . S
C892 C893 1.370 . S
C892 C894 1.363 . S
C892 H908 0.931 . S
C893 C892 1.370 . S
C893 C897 1.408 . S
C894 C892 1.363 . S
C894 C895 1.370 . S
C894 C898 1.524 . S
C895 C887 1.503 . S
C895 C894 1.370 . S
C895 C896 1.403 . S
C896 C895 1.403 . S
C896 C897 1.404 . S
C896 C899 1.539 . S
C897 C893 1.408 . S
C897 C896 1.404 . S
C897 H909 0.930 . S
C898 C894 1.524 . S
C898 H910 0.956 . S
C898 H911 0.961 . S
C898 H912 0.961 . S
C899 C896 1.539 . S
C899 H913 0.958 . S
C899 H914 0.953 1_556 S
C899 H915 0.960 . S
H900 C884 0.931 . S
H901 C889 0.929 . S
H902 C890 0.960 . S
H903 C890 0.962 . S
H904 C890 0.960 . S
H905 C891 0.961 . S
H906 C891 0.961 . S
H907 C891 0.961 . S
H908 C892 0.931 . S
H909 C897 0.930 . S
H910 C898 0.956 . S
H911 C898 0.961 . S
H912 C898 0.961 . S
H913 C899 0.958 . S
H914 C899 0.953 1_554 S
H915 C899 0.960 . S
C916 C917 1.391 . S
C916 C918 1.394 . S
C916 H932 0.931 . S
C917 C916 1.391 . S
C917 C921 1.376 . S
C918 C916 1.394 . S
C918 C919 1.369 . S
C918 C922 1.531 . S
C919 C918 1.369 . S
C919 C920 1.410 . S
C919 C927 1.503 . S
C920 C919 1.410 . S
C920 C921 1.392 . S
C920 C923 1.511 1_455 S
C921 C917 1.376 . S
C921 C920 1.392 . S
C921 H933 0.929 . S
C922 C918 1.531 . S
C922 H934 0.960 . S
C922 H935 0.962 . S
C922 H936 0.960 . S
C923 C920 1.511 1_655 S
C923 H937 0.961 . S
C923 H938 0.961 . S
C923 H939 0.961 . S
C924 C925 1.344 1_455 S
C924 C926 1.400 . S
C924 H940 0.921 1_455 S
C925 C924 1.344 1_655 S
C925 C929 1.408 . S
C926 C924 1.400 . S
C926 C927 1.370 . S
C926 C930 1.524 . S
C927 C919 1.503 . S
C927 C926 1.370 . S
C927 C928 1.403 . S
C928 C927 1.403 . S
C928 C929 1.404 1_455 S
C928 C931 1.539 . S
C929 C925 1.408 . S
C929 C928 1.404 1_655 S
C929 H941 0.930 . S
C930 C926 1.524 . S
C930 H942 0.956 . S
C930 H943 0.961 . S
C930 H944 0.961 1_556 S
C931 C928 1.539 . S
C931 H945 0.958 . S
C931 H946 0.911 1_455 S
C931 H947 0.960 . S
H932 C916 0.931 . S
H933 C921 0.929 . S
H934 C922 0.960 . S
H935 C922 0.962 . S
H936 C922 0.960 . S
H937 C923 0.961 . S
H938 C923 0.961 . S
H939 C923 0.961 . S
H940 C924 0.921 1_655 S
H941 C929 0.930 . S
H942 C930 0.956 . S
H943 C930 0.961 . S
H944 C930 0.961 1_554 S
H945 C931 0.958 . S
H946 C931 0.911 1_655 S
H947 C931 0.960 . S
C948 C949 1.391 . S
C948 C950 1.394 . S
C948 H964 0.931 . S
C949 C948 1.391 . S
C949 C953 1.376 . S
C950 C948 1.394 . S
C950 C951 1.369 . S
C950 C954 1.531 1_455 S
C951 C950 1.369 . S
C951 C952 1.410 . S
C951 C959 1.503 . S
C952 C951 1.410 . S
C952 C953 1.392 . S
C952 C955 1.511 . S
C953 C949 1.376 . S
C953 C952 1.392 . S
C953 H965 0.929 . S
C954 C950 1.531 1_655 S
C954 H966 0.960 . S
C954 H967 0.962 . S
C954 H968 0.960 . S
C955 C952 1.511 . S
C955 H969 0.961 . S
C955 H970 0.961 . S
C955 H971 0.961 . S
C956 C957 1.370 1_455 S
C956 C958 1.363 . S
C956 H972 0.930 . S
C957 C956 1.370 1_655 S
C957 C961 1.408 . S
C958 C956 1.363 . S
C958 C959 1.370 . S
C958 C962 1.524 . S
C959 C951 1.503 . S
C959 C958 1.370 . S
C959 C960 1.403 . S
C960 C959 1.403 . S
C960 C961 1.404 1_455 S
C960 C963 1.539 . S
C961 C957 1.408 . S
C961 C960 1.404 1_655 S
C961 H973 0.930 . S
C962 C958 1.524 . S
C962 H974 0.956 . S
C962 H975 0.961 . S
C962 H976 0.961 . S
C963 C960 1.539 . S
C963 H977 0.958 1_455 S
C963 H978 0.961 . S
C963 H979 0.960 . S
H964 C948 0.931 . S
H965 C953 0.929 . S
H966 C954 0.960 . S
H967 C954 0.962 . S
H968 C954 0.960 . S
H969 C955 0.961 . S
H970 C955 0.961 . S
H971 C955 0.961 . S
H972 C956 0.930 . S
H973 C961 0.930 . S
H974 C962 0.956 . S
H975 C962 0.961 . S
H976 C962 0.961 . S
H977 C963 0.958 1_655 S
H978 C963 0.961 . S
H979 C963 0.960 . S
C980 C981 1.391 . S
C980 C982 1.394 . S
C980 H996 0.931 . S
C981 C980 1.391 . S
C981 C985 1.376 . S
C982 C980 1.394 . S
C982 C983 1.369 . S
C982 C986 1.531 . S
C983 C982 1.369 . S
C983 C984 1.410 . S
C983 C991 1.503 . S
C984 C983 1.410 . S
C984 C985 1.392 . S
C984 C987 1.511 . S
C985 C981 1.376 . S
C985 C984 1.392 . S
C985 H997 0.929 . S
C986 C982 1.531 . S
C986 H998 0.960 . S
C986 H999 0.962 . S
C986 H1000 0.960 . S
C987 C984 1.511 . S
C987 H1001 0.961 . S
C987 H1002 0.961 . S
C987 H1003 0.961 . S
C988 C989 1.370 . S
C988 C990 1.363 . S
C988 H1004 0.931 . S
C989 C988 1.370 . S
C989 C993 1.408 . S
C990 C988 1.363 . S
C990 C991 1.370 . S
C990 C994 1.524 . S
C991 C983 1.503 . S
C991 C990 1.370 . S
C991 C992 1.403 . S
C992 C991 1.403 . S
C992 C993 1.404 . S
C992 C995 1.539 . S
C993 C989 1.408 . S
C993 C992 1.404 . S
C993 H1005 0.930 . S
C994 C990 1.524 . S
C994 H1006 0.956 . S
C994 H1007 0.961 . S
C994 H1008 0.961 . S
C995 C992 1.539 . S
C995 H1009 0.958 . S
C995 H1010 0.961 . S
C995 H1011 0.960 . S
H996 C980 0.931 . S
H997 C985 0.929 . S
H998 C986 0.960 . S
H999 C986 0.962 . S
H1000 C986 0.960 . S
H1001 C987 0.961 . S
H1002 C987 0.961 . S
H1003 C987 0.961 . S
H1004 C988 0.931 . S
H1005 C993 0.930 . S
H1006 C994 0.956 . S
H1007 C994 0.961 . S
H1008 C994 0.961 . S
H1009 C995 0.958 . S
H1010 C995 0.961 . S
H1011 C995 0.960 . S
C1012 C1013 1.391 . S
C1012 C1014 1.394 . S
C1012 H1028 0.931 . S
C1013 C1012 1.391 . S
C1013 C1017 1.376 . S
C1014 C1012 1.394 . S
C1014 C1015 1.369 . S
C1014 C1018 1.531 . S
C1015 C1014 1.369 . S
C1015 C1016 1.410 . S
C1015 C1023 1.503 . S
C1016 C1015 1.410 . S
C1016 C1017 1.392 . S
C1016 C1019 1.511 1_565 S
C1017 C1013 1.376 . S
C1017 C1016 1.392 . S
C1017 H1029 0.929 . S
C1018 C1014 1.531 . S
C1018 H1030 0.960 . S
C1018 H1031 0.962 . S
C1018 H1032 0.960 . S
C1019 C1016 1.511 1_545 S
C1019 H1033 0.961 . S
C1019 H1034 0.961 . S
C1019 H1035 0.961 . S
C1020 C1021 1.370 . S
C1020 C1022 1.363 1_545 S
C1020 H1036 0.931 . S
C1021 C1020 1.370 . S
C1021 C1025 1.407 . S
C1022 C1020 1.363 1_565 S
C1022 C1023 1.370 . S
C1022 C1026 1.524 . S
C1023 C1015 1.503 . S
C1023 C1022 1.370 . S
C1023 C1024 1.403 . S
C1024 C1023 1.403 . S
C1024 C1025 1.406 1_565 S
C1024 C1027 1.539 . S
C1025 C1021 1.407 . S
C1025 C1024 1.406 1_545 S
C1025 H1037 0.929 . S
C1026 C1022 1.524 . S
C1026 H1038 0.956 . S
C1026 H1039 0.961 . S
C1026 H1040 0.961 . S
C1027 C1024 1.539 . S
C1027 H1041 0.958 . S
C1027 H1042 0.961 . S
C1027 H1043 0.960 . S
H1028 C1012 0.931 . S
H1029 C1017 0.929 . S
H1030 C1018 0.960 . S
H1031 C1018 0.962 . S
H1032 C1018 0.960 . S
H1033 C1019 0.961 . S
H1034 C1019 0.961 . S
H1035 C1019 0.961 . S
H1036 C1020 0.931 . S
H1037 C1025 0.929 . S
H1038 C1026 0.956 . S
H1039 C1026 0.961 . S
H1040 C1026 0.961 . S
H1041 C1027 0.958 . S
H1042 C1027 0.961 . S
H1043 C1027 0.960 . S
C1044 C1045 1.391 . S
C1044 C1046 1.394 . S
C1044 H1060 0.931 . S
C1045 C1044 1.391 . S
C1045 C1049 1.376 . S
C1046 C1044 1.394 . S
C1046 C1047 1.369 . S
C1046 C1050 1.531 . S
C1047 C1046 1.369 . S
C1047 C1048 1.410 . S
C1047 C1055 1.503 . S
C1048 C1047 1.410 . S
C1048 C1049 1.392 . S
C1048 C1051 1.511 . S
C1049 C1045 1.376 . S
C1049 C1048 1.392 . S
C1049 H1061 0.929 . S
C1050 C1046 1.531 . S
C1050 H1062 0.960 . S
C1050 H1063 0.962 . S
C1050 H1064 0.960 . S
C1051 C1048 1.511 . S
C1051 H1065 0.961 . S
C1051 H1066 0.961 . S
C1051 H1067 0.961 . S
C1052 C1053 1.370 . S
C1052 C1054 1.363 . S
C1052 H1068 0.931 . S
C1053 C1052 1.370 . S
C1053 C1057 1.408 . S
C1054 C1052 1.363 . S
C1054 C1055 1.370 . S
C1054 C1058 1.524 . S
C1055 C1047 1.503 . S
C1055 C1054 1.370 . S
C1055 C1056 1.403 . S
C1056 C1055 1.403 . S
C1056 C1057 1.404 . S
C1056 C1059 1.539 . S
C1057 C1053 1.408 . S
C1057 C1056 1.404 . S
C1057 H1069 0.930 . S
C1058 C1054 1.524 . S
C1058 H1070 0.956 . S
C1058 H1071 0.961 . S
C1058 H1072 0.961 . S
C1059 C1056 1.539 . S
C1059 H1073 0.958 . S
C1059 H1074 0.961 . S
C1059 H1075 0.960 . S
H1060 C1044 0.931 . S
H1061 C1049 0.929 . S
H1062 C1050 0.960 . S
H1063 C1050 0.962 . S
H1064 C1050 0.960 . S
H1065 C1051 0.961 . S
H1066 C1051 0.961 . S
H1067 C1051 0.961 . S
H1068 C1052 0.931 . S
H1069 C1057 0.930 . S
H1070 C1058 0.956 . S
H1071 C1058 0.961 . S
H1072 C1058 0.961 . S
H1073 C1059 0.958 . S
H1074 C1059 0.961 . S
H1075 C1059 0.960 . S
C1076 C1077 1.391 . S
C1076 C1078 1.394 . S
C1076 H1092 0.931 . S
C1077 C1076 1.391 . S
C1077 C1081 1.376 . S
C1078 C1076 1.394 . S
C1078 C1079 1.369 . S
C1078 C1082 1.531 . S
C1079 C1078 1.369 . S
C1079 C1080 1.410 . S
C1079 C1087 1.503 . S
C1080 C1079 1.410 . S
C1080 C1081 1.392 . S
C1080 C1083 1.511 . S
C1081 C1077 1.376 . S
C1081 C1080 1.392 . S
C1081 H1093 0.929 . S
C1082 C1078 1.531 . S
C1082 H1094 0.960 . S
C1082 H1095 0.962 . S
C1082 H1096 0.960 . S
C1083 C1080 1.511 . S
C1083 H1097 0.961 . S
C1083 H1098 0.961 . S
C1083 H1099 0.961 . S
C1084 C1085 1.370 . S
C1084 C1086 1.363 . S
C1084 H1100 0.931 . S
C1085 C1084 1.370 . S
C1085 C1089 1.408 . S
C1086 C1084 1.363 . S
C1086 C1087 1.370 . S
C1086 C1090 1.524 . S
C1087 C1079 1.503 . S
C1087 C1086 1.370 . S
C1087 C1088 1.403 . S
C1088 C1087 1.403 . S
C1088 C1089 1.404 . S
C1088 C1091 1.539 . S
C1089 C1085 1.408 . S
C1089 C1088 1.404 . S
C1089 H1101 0.930 . S
C1090 C1086 1.524 . S
C1090 H1102 0.956 . S
C1090 H1103 0.961 . S
C1090 H1104 0.961 . S
C1091 C1088 1.539 . S
C1091 H1105 0.958 . S
C1091 H1106 0.961 . S
C1091 H1107 0.960 . S
H1092 C1076 0.931 . S
H1093 C1081 0.929 . S
H1094 C1082 0.960 . S
H1095 C1082 0.962 . S
H1096 C1082 0.960 . S
H1097 C1083 0.961 . S
H1098 C1083 0.961 . S
H1099 C1083 0.961 . S
H1100 C1084 0.931 . S
H1101 C1089 0.930 . S
H1102 C1090 0.956 . S
H1103 C1090 0.961 . S
H1104 C1090 0.961 . S
H1105 C1091 0.958 . S
H1106 C1091 0.961 . S
H1107 C1091 0.960 . S
C1108 C1109 1.391 . S
C1108 C1110 1.394 . S
C1108 H1124 0.931 . S
C1109 C1108 1.391 . S
C1109 C1113 1.376 . S
C1110 C1108 1.394 . S
C1110 C1111 1.369 . S
C1110 C1114 1.531 . S
C1111 C1110 1.369 . S
C1111 C1112 1.410 . S
C1111 C1119 1.503 . S
C1112 C1111 1.410 . S
C1112 C1113 1.392 . S
C1112 C1115 1.511 . S
C1113 C1109 1.376 . S
C1113 C1112 1.392 . S
C1113 H1125 0.929 . S
C1114 C1110 1.531 . S
C1114 H1126 0.960 . S
C1114 H1127 0.962 . S
C1114 H1128 0.960 . S
C1115 C1112 1.511 . S
C1115 H1129 0.961 . S
C1115 H1130 0.961 . S
C1115 H1131 0.961 . S
C1116 C1117 1.370 . S
C1116 C1118 1.363 . S
C1116 H1132 0.931 . S
C1117 C1116 1.370 . S
C1117 C1121 1.408 . S
C1118 C1116 1.363 . S
C1118 C1119 1.370 . S
C1118 C1122 1.524 . S
C1119 C1111 1.503 . S
C1119 C1118 1.370 . S
C1119 C1120 1.403 . S
C1120 C1119 1.403 . S
C1120 C1121 1.404 . S
C1120 C1123 1.539 . S
C1121 C1117 1.408 . S
C1121 C1120 1.404 . S
C1121 H1133 0.930 . S
C1122 C1118 1.524 . S
C1122 H1134 0.956 . S
C1122 H1135 0.961 . S
C1122 H1136 0.961 . S
C1123 C1120 1.539 . S
C1123 H1137 0.958 . S
C1123 H1138 0.961 . S
C1123 H1139 0.960 . S
H1124 C1108 0.931 . S
H1125 C1113 0.929 . S
H1126 C1114 0.960 . S
H1127 C1114 0.962 . S
H1128 C1114 0.960 . S
H1129 C1115 0.961 . S
H1130 C1115 0.961 . S
H1131 C1115 0.961 . S
H1132 C1116 0.931 . S
H1133 C1121 0.930 . S
H1134 C1122 0.956 . S
H1135 C1122 0.961 . S
H1136 C1122 0.961 . S
H1137 C1123 0.958 . S
H1138 C1123 0.961 . S
H1139 C1123 0.960 . S
C1140 C1141 1.391 . S
C1140 C1142 1.394 . S
C1140 H1156 0.931 . S
C1141 C1140 1.391 . S
C1141 C1145 1.376 . S
C1142 C1140 1.394 . S
C1142 C1143 1.369 . S
C1142 C1146 1.531 . S
C1143 C1142 1.369 . S
C1143 C1144 1.410 . S
C1143 C1151 1.503 . S
C1144 C1143 1.410 . S
C1144 C1145 1.392 . S
C1144 C1147 1.511 . S
C1145 C1141 1.376 . S
C1145 C1144 1.392 . S
C1145 H1157 0.929 . S
C1146 C1142 1.531 . S
C1146 H1158 0.960 . S
C1146 H1159 0.962 . S
C1146 H1160 0.960 . S
C1147 C1144 1.511 . S
C1147 H1161 0.961 . S
C1147 H1162 0.961 . S
C1147 H1163 0.961 . S
C1148 C1149 1.370 . S
C1148 C1150 1.363 . S
C1148 H1164 0.931 . S
C1149 C1148 1.370 . S
C1149 C1153 1.408 . S
C1150 C1148 1.363 . S
C1150 C1151 1.370 . S
C1150 C1154 1.524 . S
C1151 C1143 1.503 . S
C1151 C1150 1.370 . S
C1151 C1152 1.403 . S
C1152 C1151 1.403 . S
C1152 C1153 1.404 . S
C1152 C1155 1.539 . S
C1153 C1149 1.408 . S
C1153 C1152 1.404 . S
C1153 H1165 0.930 1_554 S
C1154 C1150 1.524 . S
C1154 H1166 0.956 . S
C1154 H1167 0.961 . S
C1154 H1168 0.961 . S
C1155 C1152 1.539 . S
C1155 H1169 0.958 . S
C1155 H1170 0.961 . S
C1155 H1171 0.960 . S
H1156 C1140 0.931 . S
H1157 C1145 0.929 . S
H1158 C1146 0.960 . S
H1159 C1146 0.962 . S
H1160 C1146 0.960 . S
H1161 C1147 0.961 . S
H1162 C1147 0.961 . S
H1163 C1147 0.961 . S
H1164 C1148 0.931 . S
H1165 C1153 0.930 1_556 S
H1166 C1154 0.956 . S
H1167 C1154 0.961 . S
H1168 C1154 0.961 . S
H1169 C1155 0.958 . S
H1170 C1155 0.961 . S
H1171 C1155 0.960 . S
C1172 C1173 1.391 . S
C1172 C1174 1.394 . S
C1172 H1188 0.931 . S
C1173 C1172 1.391 . S
C1173 C1177 1.376 . S
C1174 C1172 1.394 . S
C1174 C1175 1.369 . S
C1174 C1178 1.531 . S
C1175 C1174 1.369 . S
C1175 C1176 1.410 . S
C1175 C1183 1.503 . S
C1176 C1175 1.410 . S
C1176 C1177 1.392 . S
C1176 C1179 1.511 . S
C1177 C1173 1.376 . S
C1177 C1176 1.392 . S
C1177 H1189 0.929 . S
C1178 C1174 1.531 . S
C1178 H1190 0.960 . S
C1178 H1191 0.962 . S
C1178 H1192 0.960 . S
C1179 C1176 1.511 . S
C1179 H1193 0.961 . S
C1179 H1194 0.961 . S
C1179 H1195 0.961 . S
C1180 C1181 1.370 . S
C1180 C1182 1.363 . S
C1180 H1196 0.931 . S
C1181 C1180 1.370 . S
C1181 C1185 1.408 . S
C1182 C1180 1.363 . S
C1182 C1183 1.370 . S
C1182 C1186 1.524 . S
C1183 C1175 1.503 . S
C1183 C1182 1.370 . S
C1183 C1184 1.403 . S
C1184 C1183 1.403 . S
C1184 C1185 1.404 . S
C1184 C1187 1.539 . S
C1185 C1181 1.408 . S
C1185 C1184 1.404 . S
C1185 H1197 0.930 1_554 S
C1186 C1182 1.524 . S
C1186 H1198 0.956 . S
C1186 H1199 0.961 . S
C1186 H1200 0.961 . S
C1187 C1184 1.539 . S
C1187 H1201 0.958 . S
C1187 H1202 0.961 . S
C1187 H1203 0.960 . S
H1188 C1172 0.931 . S
H1189 C1177 0.929 . S
H1190 C1178 0.960 . S
H1191 C1178 0.962 . S
H1192 C1178 0.960 . S
H1193 C1179 0.961 . S
H1194 C1179 0.961 . S
H1195 C1179 0.961 . S
H1196 C1180 0.931 . S
H1197 C1185 0.930 1_556 S
H1198 C1186 0.956 . S
H1199 C1186 0.961 . S
H1200 C1186 0.961 . S
H1201 C1187 0.958 . S
H1202 C1187 0.961 . S
H1203 C1187 0.960 . S
C1204 C1205 1.391 . S
C1204 C1206 1.394 . S
C1204 H1220 0.931 . S
C1205 C1204 1.391 . S
C1205 C1209 1.376 . S
C1206 C1204 1.394 . S
C1206 C1207 1.369 . S
C1206 C1210 1.531 . S
C1207 C1206 1.369 . S
C1207 C1208 1.410 . S
C1207 C1215 1.503 . S
C1208 C1207 1.410 . S
C1208 C1209 1.392 . S
C1208 C1211 1.511 . S
C1209 C1205 1.376 . S
C1209 C1208 1.392 . S
C1209 H1221 0.929 . S
C1210 C1206 1.531 . S
C1210 H1222 0.960 . S
C1210 H1223 0.962 . S
C1210 H1224 0.960 . S
C1211 C1208 1.511 . S
C1211 H1225 0.961 . S
C1211 H1226 0.961 . S
C1211 H1227 0.961 . S
C1212 C1213 1.370 . S
C1212 C1214 1.363 . S
C1212 H1228 0.931 . S
C1213 C1212 1.370 . S
C1213 C1217 1.408 . S
C1214 C1212 1.363 . S
C1214 C1215 1.370 . S
C1214 C1218 1.524 . S
C1215 C1207 1.503 . S
C1215 C1214 1.370 . S
C1215 C1216 1.403 . S
C1216 C1215 1.403 . S
C1216 C1217 1.404 . S
C1216 C1219 1.539 . S
C1217 C1213 1.408 . S
C1217 C1216 1.404 . S
C1217 H1229 0.930 1_554 S
C1218 C1214 1.524 . S
C1218 H1230 0.956 . S
C1218 H1231 0.961 . S
C1218 H1232 0.961 . S
C1219 C1216 1.539 . S
C1219 H1233 0.958 . S
C1219 H1234 0.961 . S
C1219 H1235 0.960 . S
H1220 C1204 0.931 . S
H1221 C1209 0.929 . S
H1222 C1210 0.960 . S
H1223 C1210 0.962 . S
H1224 C1210 0.960 . S
H1225 C1211 0.961 . S
H1226 C1211 0.961 . S
H1227 C1211 0.961 . S
H1228 C1212 0.931 . S
H1229 C1217 0.930 1_556 S
H1230 C1218 0.956 . S
H1231 C1218 0.961 . S
H1232 C1218 0.961 . S
H1233 C1219 0.958 . S
H1234 C1219 0.961 . S
H1235 C1219 0.960 . S
C1236 C1237 1.391 . S
C1236 C1238 1.394 . S
C1236 H1252 0.931 . S
C1237 C1236 1.391 . S
C1237 C1241 1.376 . S
C1238 C1236 1.394 . S
C1238 C1239 1.369 . S
C1238 C1242 1.531 . S
C1239 C1238 1.369 . S
C1239 C1240 1.410 . S
C1239 C1247 1.503 . S
C1240 C1239 1.410 . S
C1240 C1241 1.392 . S
C1240 C1243 1.511 . S
C1241 C1237 1.376 . S
C1241 C1240 1.392 . S
C1241 H1253 0.929 . S
C1242 C1238 1.531 . S
C1242 H1254 0.960 . S
C1242 H1255 0.962 . S
C1242 H1256 0.960 . S
C1243 C1240 1.511 . S
C1243 H1257 0.961 . S
C1243 H1258 0.961 . S
C1243 H1259 0.961 . S
C1244 C1245 1.370 . S
C1244 C1246 1.363 . S
C1244 H1260 0.931 . S
C1245 C1244 1.370 . S
C1245 C1249 1.408 . S
C1246 C1244 1.363 . S
C1246 C1247 1.370 . S
C1246 C1250 1.524 . S
C1247 C1239 1.503 . S
C1247 C1246 1.370 . S
C1247 C1248 1.403 . S
C1248 C1247 1.403 . S
C1248 C1249 1.404 . S
C1248 C1251 1.539 . S
C1249 C1245 1.408 . S
C1249 C1248 1.404 . S
C1249 H1261 0.930 . S
C1250 C1246 1.524 . S
C1250 H1262 0.956 . S
C1250 H1263 0.961 . S
C1250 H1264 0.961 . S
C1251 C1248 1.539 . S
C1251 H1265 0.958 . S
C1251 H1266 0.961 . S
C1251 H1267 0.960 . S
H1252 C1236 0.931 . S
H1253 C1241 0.929 . S
H1254 C1242 0.960 . S
H1255 C1242 0.962 . S
H1256 C1242 0.960 . S
H1257 C1243 0.961 . S
H1258 C1243 0.961 . S
H1259 C1243 0.961 . S
H1260 C1244 0.931 . S
H1261 C1249 0.930 . S
H1262 C1250 0.956 . S
H1263 C1250 0.961 . S
H1264 C1250 0.961 . S
H1265 C1251 0.958 . S
H1266 C1251 0.961 . S
H1267 C1251 0.960 . S
C1268 C1269 1.391 . S
C1268 C1270 1.394 . S
C1268 H1284 0.931 . S
C1269 C1268 1.391 . S
C1269 C1273 1.376 . S
C1270 C1268 1.394 . S
C1270 C1271 1.369 . S
C1270 C1274 1.531 . S
C1271 C1270 1.369 . S
C1271 C1272 1.410 . S
C1271 C1279 1.503 . S
C1272 C1271 1.410 . S
C1272 C1273 1.392 . S
C1272 C1275 1.511 . S
C1273 C1269 1.376 . S
C1273 C1272 1.392 . S
C1273 H1285 0.929 . S
C1274 C1270 1.531 . S
C1274 H1286 0.960 . S
C1274 H1287 0.962 . S
C1274 H1288 0.960 . S
C1275 C1272 1.511 . S
C1275 H1289 0.961 . S
C1275 H1290 0.961 . S
C1275 H1291 0.961 . S
C1276 C1277 1.370 . S
C1276 C1278 1.363 . S
C1276 H1292 0.931 . S
C1277 C1276 1.370 . S
C1277 C1281 1.408 . S
C1278 C1276 1.363 . S
C1278 C1279 1.370 . S
C1278 C1282 1.524 . S
C1279 C1271 1.503 . S
C1279 C1278 1.370 . S
C1279 C1280 1.403 . S
C1280 C1279 1.403 . S
C1280 C1281 1.404 . S
C1280 C1283 1.539 . S
C1281 C1277 1.408 . S
C1281 C1280 1.404 . S
C1281 H1293 0.930 . S
C1282 C1278 1.524 . S
C1282 H1294 0.956 . S
C1282 H1295 0.961 . S
C1282 H1296 0.961 . S
C1283 C1280 1.539 . S
C1283 H1297 0.958 . S
C1283 H1298 0.961 . S
C1283 H1299 0.960 . S
H1284 C1268 0.931 . S
H1285 C1273 0.929 . S
H1286 C1274 0.960 . S
H1287 C1274 0.962 . S
H1288 C1274 0.960 . S
H1289 C1275 0.961 . S
H1290 C1275 0.961 . S
H1291 C1275 0.961 . S
H1292 C1276 0.931 . S
H1293 C1281 0.930 . S
H1294 C1282 0.956 . S
H1295 C1282 0.961 . S
H1296 C1282 0.961 . S
H1297 C1283 0.958 . S
H1298 C1283 0.961 . S
H1299 C1283 0.960 . S
C1300 C1301 1.391 . S
C1300 C1302 1.394 . S
C1300 H1316 0.931 . S
C1301 C1300 1.391 . S
C1301 C1305 1.376 . S
C1302 C1300 1.394 . S
C1302 C1303 1.369 . S
C1302 C1306 1.531 . S
C1303 C1302 1.369 . S
C1303 C1304 1.410 . S
C1303 C1311 1.503 . S
C1304 C1303 1.410 . S
C1304 C1305 1.392 . S
C1304 C1307 1.511 . S
C1305 C1301 1.376 . S
C1305 C1304 1.392 . S
C1305 H1317 0.929 . S
C1306 C1302 1.531 . S
C1306 H1318 0.960 . S
C1306 H1319 0.962 . S
C1306 H1320 0.960 . S
C1307 C1304 1.511 . S
C1307 H1321 0.961 . S
C1307 H1322 0.961 . S
C1307 H1323 0.961 . S
C1308 C1309 1.370 . S
C1308 C1310 1.363 . S
C1308 H1324 0.931 . S
C1309 C1308 1.370 . S
C1309 C1313 1.408 . S
C1310 C1308 1.363 . S
C1310 C1311 1.370 . S
C1310 C1314 1.524 . S
C1311 C1303 1.503 . S
C1311 C1310 1.370 . S
C1311 C1312 1.403 . S
C1312 C1311 1.403 . S
C1312 C1313 1.404 . S
C1312 C1315 1.539 . S
C1313 C1309 1.408 . S
C1313 C1312 1.404 . S
C1313 H1325 0.930 . S
C1314 C1310 1.524 . S
C1314 H1326 0.956 . S
C1314 H1327 0.961 . S
C1314 H1328 0.961 . S
C1315 C1312 1.539 . S
C1315 H1329 0.958 . S
C1315 H1330 0.961 . S
C1315 H1331 0.960 . S
H1316 C1300 0.931 . S
H1317 C1305 0.929 . S
H1318 C1306 0.960 . S
H1319 C1306 0.962 . S
H1320 C1306 0.960 . S
H1321 C1307 0.961 . S
H1322 C1307 0.961 . S
H1323 C1307 0.961 . S
H1324 C1308 0.931 . S
H1325 C1313 0.930 . S
H1326 C1314 0.956 . S
H1327 C1314 0.961 . S
H1328 C1314 0.961 . S
H1329 C1315 0.958 . S
H1330 C1315 0.961 . S
H1331 C1315 0.960 . S
C1332 C1333 1.391 . S
C1332 C1334 1.394 . S
C1332 H1348 0.931 1_556 S
C1333 C1332 1.391 . S
C1333 C1337 1.376 . S
C1334 C1332 1.394 . S
C1334 C1335 1.369 . S
C1334 C1338 1.531 . S
C1335 C1334 1.369 . S
C1335 C1336 1.410 . S
C1335 C1343 1.503 . S
C1336 C1335 1.410 . S
C1336 C1337 1.392 . S
C1336 C1339 1.511 . S
C1337 C1333 1.376 . S
C1337 C1336 1.392 . S
C1337 H1349 0.929 . S
C1338 C1334 1.531 . S
C1338 H1350 0.960 . S
C1338 H1351 0.962 . S
C1338 H1352 0.960 . S
C1339 C1336 1.511 . S
C1339 H1353 0.961 . S
C1339 H1354 0.961 . S
C1339 H1355 0.961 . S
C1340 C1341 1.370 . S
C1340 C1342 1.363 . S
C1340 H1356 0.931 . S
C1341 C1340 1.370 . S
C1341 C1345 1.408 . S
C1342 C1340 1.363 . S
C1342 C1343 1.370 . S
C1342 C1346 1.524 . S
C1343 C1335 1.503 . S
C1343 C1342 1.370 . S
C1343 C1344 1.403 . S
C1344 C1343 1.403 . S
C1344 C1345 1.404 . S
C1344 C1347 1.539 . S
C1345 C1341 1.408 . S
C1345 C1344 1.404 . S
C1345 H1357 0.930 . S
C1346 C1342 1.524 . S
C1346 H1358 0.956 . S
C1346 H1359 0.961 . S
C1346 H1360 0.961 . S
C1347 C1344 1.539 . S
C1347 H1361 0.958 . S
C1347 H1362 0.961 . S
C1347 H1363 0.960 . S
H1348 C1332 0.931 1_554 S
H1349 C1337 0.929 . S
H1350 C1338 0.960 . S
H1351 C1338 0.962 . S
H1352 C1338 0.960 . S
H1353 C1339 0.961 . S
H1354 C1339 0.961 . S
H1355 C1339 0.961 . S
H1356 C1340 0.931 . S
H1357 C1345 0.930 . S
H1358 C1346 0.956 . S
H1359 C1346 0.961 . S
H1360 C1346 0.961 . S
H1361 C1347 0.958 . S
H1362 C1347 0.961 . S
H1363 C1347 0.960 . S
C1364 C1365 1.391 . S
C1364 C1366 1.394 . S
C1364 H1380 0.931 . S
C1365 C1364 1.391 . S
C1365 C1369 1.376 . S
C1366 C1364 1.394 . S
C1366 C1367 1.369 . S
C1366 C1370 1.531 . S
C1367 C1366 1.369 . S
C1367 C1368 1.410 . S
C1367 C1375 1.503 . S
C1368 C1367 1.410 . S
C1368 C1369 1.392 . S
C1368 C1371 1.511 . S
C1369 C1365 1.376 . S
C1369 C1368 1.392 . S
C1369 H1381 0.929 1_556 S
C1370 C1366 1.531 . S
C1370 H1382 0.960 . S
C1370 H1383 0.962 . S
C1370 H1384 0.960 . S
C1371 C1368 1.511 . S
C1371 H1385 0.961 . S
C1371 H1386 0.961 . S
C1371 H1387 0.961 . S
C1372 C1373 1.370 . S
C1372 C1374 1.363 . S
C1372 H1388 0.931 . S
C1373 C1372 1.370 . S
C1373 C1377 1.408 . S
C1374 C1372 1.363 . S
C1374 C1375 1.370 . S
C1374 C1378 1.524 . S
C1375 C1367 1.503 . S
C1375 C1374 1.370 . S
C1375 C1376 1.403 . S
C1376 C1375 1.403 . S
C1376 C1377 1.404 . S
C1376 C1379 1.539 . S
C1377 C1373 1.408 . S
C1377 C1376 1.404 . S
C1377 H1389 0.930 . S
C1378 C1374 1.524 . S
C1378 H1390 0.956 . S
C1378 H1391 0.961 . S
C1378 H1392 0.961 . S
C1379 C1376 1.539 . S
C1379 H1393 0.958 . S
C1379 H1394 0.961 . S
C1379 H1395 0.960 . S
H1380 C1364 0.931 . S
H1381 C1369 0.929 1_554 S
H1382 C1370 0.960 . S
H1383 C1370 0.962 . S
H1384 C1370 0.960 . S
H1385 C1371 0.961 . S
H1386 C1371 0.961 . S
H1387 C1371 0.961 . S
H1388 C1372 0.931 . S
H1389 C1377 0.930 . S
H1390 C1378 0.956 . S
H1391 C1378 0.961 . S
H1392 C1378 0.961 . S
H1393 C1379 0.958 . S
H1394 C1379 0.961 . S
H1395 C1379 0.960 . S
C1396 C1397 1.391 . S
C1396 C1398 1.394 . S
C1396 H1412 0.931 . S
C1397 C1396 1.391 . S
C1397 C1401 1.376 . S
C1398 C1396 1.394 . S
C1398 C1399 1.369 . S
C1398 C1402 1.531 . S
C1399 C1398 1.369 . S
C1399 C1400 1.410 . S
C1399 C1407 1.503 . S
C1400 C1399 1.410 . S
C1400 C1401 1.392 . S
C1400 C1403 1.511 . S
C1401 C1397 1.376 . S
C1401 C1400 1.392 . S
C1401 H1413 0.929 . S
C1402 C1398 1.531 . S
C1402 H1414 0.960 . S
C1402 H1415 0.962 . S
C1402 H1416 0.960 . S
C1403 C1400 1.511 . S
C1403 H1417 0.961 . S
C1403 H1418 0.961 . S
C1403 H1419 0.961 . S
C1404 C1405 1.370 . S
C1404 C1406 1.363 . S
C1404 H1420 0.931 . S
C1405 C1404 1.370 . S
C1405 C1409 1.408 . S
C1406 C1404 1.363 . S
C1406 C1407 1.370 . S
C1406 C1410 1.524 . S
C1407 C1399 1.503 . S
C1407 C1406 1.370 . S
C1407 C1408 1.403 . S
C1408 C1407 1.403 . S
C1408 C1409 1.404 . S
C1408 C1411 1.539 . S
C1409 C1405 1.408 . S
C1409 C1408 1.404 . S
C1409 H1421 0.930 1_556 S
C1410 C1406 1.524 . S
C1410 H1422 0.956 . S
C1410 H1423 0.961 . S
C1410 H1424 0.961 . S
C1411 C1408 1.539 . S
C1411 H1425 0.958 . S
C1411 H1426 0.961 . S
C1411 H1427 0.960 . S
H1412 C1396 0.931 . S
H1413 C1401 0.929 . S
H1414 C1402 0.960 . S
H1415 C1402 0.962 . S
H1416 C1402 0.960 . S
H1417 C1403 0.961 . S
H1418 C1403 0.961 . S
H1419 C1403 0.961 . S
H1420 C1404 0.931 . S
H1421 C1409 0.930 1_554 S
H1422 C1410 0.956 . S
H1423 C1410 0.961 . S
H1424 C1410 0.961 . S
H1425 C1411 0.958 . S
H1426 C1411 0.961 . S
H1427 C1411 0.960 . S
C1428 C1429 1.391 . S
C1428 C1430 1.394 1_455 S
C1428 H1444 0.931 . S
C1429 C1428 1.391 . S
C1429 C1433 1.376 . S
C1430 C1428 1.394 1_655 S
C1430 C1431 1.369 1_655 S
C1430 C1434 1.531 . S
C1431 C1430 1.369 1_455 S
C1431 C1432 1.410 . S
C1431 C1439 1.503 1_455 S
C1432 C1431 1.410 . S
C1432 C1433 1.392 . S
C1432 C1435 1.511 . S
C1433 C1429 1.376 . S
C1433 C1432 1.392 . S
C1433 H1445 0.929 . S
C1434 C1430 1.531 . S
C1434 H1446 0.960 . S
C1434 H1447 0.962 . S
C1434 H1448 0.960 . S
C1435 C1432 1.511 . S
C1435 H1449 0.961 . S
C1435 H1450 0.961 . S
C1435 H1451 0.961 . S
C1436 C1437 1.370 . S
C1436 C1438 1.363 . S
C1436 H1452 0.931 . S
C1437 C1436 1.370 . S
C1437 C1441 1.408 . S
C1438 C1436 1.363 . S
C1438 C1439 1.370 . S
C1438 C1442 1.524 1_655 S
C1439 C1431 1.503 1_655 S
C1439 C1438 1.370 . S
C1439 C1440 1.403 . S
C1440 C1439 1.403 . S
C1440 C1441 1.404 . S
C1440 C1443 1.539 . S
C1441 C1437 1.408 . S
C1441 C1440 1.404 . S
C1441 H1453 0.930 . S
C1442 C1438 1.524 1_455 S
C1442 H1454 0.956 . S
C1442 H1455 0.961 . S
C1442 H1456 0.961 . S
C1443 C1440 1.539 . S
C1443 H1457 0.958 . S
C1443 H1458 0.961 . S
C1443 H1459 0.960 . S
H1444 C1428 0.931 . S
H1445 C1433 0.929 . S
H1446 C1434 0.960 . S
H1447 C1434 0.962 . S
H1448 C1434 0.960 . S
H1449 C1435 0.961 . S
H1450 C1435 0.961 . S
H1451 C1435 0.961 . S
H1452 C1436 0.931 . S
H1453 C1441 0.930 . S
H1454 C1442 0.956 . S
H1455 C1442 0.961 . S
H1456 C1442 0.961 . S
H1457 C1443 0.958 . S
H1458 C1443 0.961 . S
H1459 C1443 0.960 . S
C1460 C1461 1.391 . S
C1460 C1462 1.394 . S
C1460 H1476 0.931 . S
C1461 C1460 1.391 . S
C1461 C1465 1.376 . S
C1462 C1460 1.394 . S
C1462 C1463 1.369 . S
C1462 C1466 1.531 . S
C1463 C1462 1.369 . S
C1463 C1464 1.410 . S
C1463 C1471 1.503 . S
C1464 C1463 1.410 . S
C1464 C1465 1.392 . S
C1464 C1467 1.511 . S
C1465 C1461 1.376 . S
C1465 C1464 1.392 . S
C1465 H1477 0.929 . S
C1466 C1462 1.531 . S
C1466 H1478 0.960 . S
C1466 H1479 0.962 . S
C1466 H1480 0.960 . S
C1467 C1464 1.511 . S
C1467 H1481 0.961 . S
C1467 H1482 0.961 . S
C1467 H1483 0.961 . S
C1468 C1469 1.370 . S
C1468 C1470 1.363 . S
C1468 H1484 0.931 . S
C1469 C1468 1.370 . S
C1469 C1473 1.408 . S
C1470 C1468 1.363 . S
C1470 C1471 1.370 . S
C1470 C1474 1.524 . S
C1471 C1463 1.503 . S
C1471 C1470 1.370 . S
C1471 C1472 1.403 . S
C1472 C1471 1.403 . S
C1472 C1473 1.404 . S
C1472 C1475 1.539 . S
C1473 C1469 1.408 . S
C1473 C1472 1.404 . S
C1473 H1485 0.930 . S
C1474 C1470 1.524 . S
C1474 H1486 0.956 . S
C1474 H1487 0.961 . S
C1474 H1488 0.961 . S
C1475 C1472 1.539 . S
C1475 H1489 0.958 . S
C1475 H1490 0.961 . S
C1475 H1491 0.960 . S
H1476 C1460 0.931 . S
H1477 C1465 0.929 . S
H1478 C1466 0.960 . S
H1479 C1466 0.962 . S
H1480 C1466 0.960 . S
H1481 C1467 0.961 . S
H1482 C1467 0.961 . S
H1483 C1467 0.961 . S
H1484 C1468 0.931 . S
H1485 C1473 0.930 . S
H1486 C1474 0.956 . S
H1487 C1474 0.961 . S
H1488 C1474 0.961 . S
H1489 C1475 0.958 . S
H1490 C1475 0.961 . S
H1491 C1475 0.960 . S
C1492 C1493 1.391 . S
C1492 C1494 1.394 . S
C1492 H1508 0.931 . S
C1493 C1492 1.391 . S
C1493 C1497 1.376 . S
C1494 C1492 1.394 . S
C1494 C1495 1.369 . S
C1494 C1498 1.531 . S
C1495 C1494 1.369 . S
C1495 C1496 1.410 . S
C1495 C1503 1.503 1_545 S
C1496 C1495 1.410 . S
C1496 C1497 1.392 . S
C1496 C1499 1.511 1_545 S
C1497 C1493 1.376 . S
C1497 C1496 1.392 . S
C1497 H1509 0.929 . S
C1498 C1494 1.531 . S
C1498 H1510 0.960 . S
C1498 H1511 0.962 . S
C1498 H1512 0.960 . S
C1499 C1496 1.511 1_565 S
C1499 H1513 0.961 . S
C1499 H1514 0.961 . S
C1499 H1515 0.961 1_565 S
C1500 C1501 1.370 . S
C1500 C1502 1.363 . S
C1500 H1516 0.931 . S
C1501 C1500 1.370 . S
C1501 C1505 1.408 . S
C1502 C1500 1.363 . S
C1502 C1503 1.370 . S
C1502 C1506 1.524 . S
C1503 C1495 1.503 1_565 S
C1503 C1502 1.370 . S
C1503 C1504 1.403 1_565 S
C1504 C1503 1.403 1_545 S
C1504 C1505 1.404 1_545 S
C1504 C1507 1.539 . S
C1505 C1501 1.408 . S
C1505 C1504 1.404 1_565 S
C1505 H1517 0.930 . S
C1506 C1502 1.524 . S
C1506 H1518 0.956 . S
C1506 H1519 0.961 . S
C1506 H1520 0.961 . S
C1507 C1504 1.539 . S
C1507 H1521 0.958 . S
C1507 H1522 0.961 . S
C1507 H1523 0.960 . S
H1508 C1492 0.931 . S
H1509 C1497 0.929 . S
H1510 C1498 0.960 . S
H1511 C1498 0.962 . S
H1512 C1498 0.960 . S
H1513 C1499 0.961 . S
H1514 C1499 0.961 . S
H1515 C1499 0.961 1_545 S
H1516 C1500 0.931 . S
H1517 C1505 0.930 . S
H1518 C1506 0.956 . S
H1519 C1506 0.961 . S
H1520 C1506 0.961 . S
H1521 C1507 0.958 . S
H1522 C1507 0.961 . S
H1523 C1507 0.960 . S
C1524 C1525 1.391 . S
C1524 C1526 1.394 . S
C1524 H1540 0.931 . S
C1525 C1524 1.391 . S
C1525 C1529 1.376 . S
C1526 C1524 1.394 . S
C1526 C1527 1.369 . S
C1526 C1530 1.531 1_565 S
C1527 C1526 1.369 . S
C1527 C1528 1.410 . S
C1527 C1535 1.503 1_565 S
C1528 C1527 1.410 . S
C1528 C1529 1.392 . S
C1528 C1531 1.511 . S
C1529 C1525 1.376 . S
C1529 C1528 1.392 . S
C1529 H1541 0.929 . S
C1530 C1526 1.531 1_545 S
C1530 H1542 0.960 . S
C1530 H1543 0.962 . S
C1530 H1544 0.960 . S
C1531 C1528 1.511 . S
C1531 H1545 0.961 . S
C1531 H1546 0.961 . S
C1531 H1547 0.961 . S
C1532 C1533 1.370 . S
C1532 C1534 1.363 . S
C1532 H1548 0.931 . S
C1533 C1532 1.370 . S
C1533 C1537 1.408 . S
C1534 C1532 1.363 . S
C1534 C1535 1.370 . S
C1534 C1538 1.524 . S
C1535 C1527 1.503 1_545 S
C1535 C1534 1.370 . S
C1535 C1536 1.403 . S
C1536 C1535 1.403 . S
C1536 C1537 1.404 . S
C1536 C1539 1.539 1_545 S
C1537 C1533 1.408 . S
C1537 C1536 1.404 . S
C1537 H1549 0.930 . S
C1538 C1534 1.524 . S
C1538 H1550 0.956 . S
C1538 H1551 0.961 . S
C1538 H1552 0.961 . S
C1539 C1536 1.539 1_565 S
C1539 H1553 0.958 . S
C1539 H1554 0.961 . S
C1539 H1555 0.960 . S
H1540 C1524 0.931 . S
H1541 C1529 0.929 . S
H1542 C1530 0.960 . S
H1543 C1530 0.962 . S
H1544 C1530 0.960 . S
H1545 C1531 0.961 . S
H1546 C1531 0.961 . S
H1547 C1531 0.961 . S
H1548 C1532 0.931 . S
H1549 C1537 0.930 . S
H1550 C1538 0.956 . S
H1551 C1538 0.961 . S
H1552 C1538 0.961 . S
H1553 C1539 0.958 . S
H1554 C1539 0.961 . S
H1555 C1539 0.960 . S
C1556 C1557 1.391 . S
C1556 C1558 1.394 . S
C1556 H1572 0.931 . S
C1557 C1556 1.391 . S
C1557 C1561 1.376 . S
C1558 C1556 1.394 . S
C1558 C1559 1.369 . S
C1558 C1562 1.531 . S
C1559 C1558 1.369 . S
C1559 C1560 1.410 1_655 S
C1559 C1567 1.503 1_655 S
C1560 C1559 1.410 1_455 S
C1560 C1561 1.392 1_455 S
C1560 C1563 1.511 . S
C1561 C1557 1.376 . S
C1561 C1560 1.392 1_655 S
C1561 H1573 0.929 . S
C1562 C1558 1.531 . S
C1562 H1574 0.960 . S
C1562 H1575 0.962 . S
C1562 H1576 0.960 . S
C1563 C1560 1.511 . S
C1563 H1577 0.961 . S
C1563 H1578 0.961 . S
C1563 H1579 0.961 . S
C1564 C1565 1.370 . S
C1564 C1566 1.363 . S
C1564 H1580 0.931 . S
C1565 C1564 1.370 . S
C1565 C1569 1.408 . S
C1566 C1564 1.363 . S
C1566 C1567 1.370 . S
C1566 C1570 1.524 1_455 S
C1567 C1559 1.503 1_455 S
C1567 C1566 1.370 . S
C1567 C1568 1.403 . S
C1568 C1567 1.403 . S
C1568 C1569 1.404 . S
C1568 C1571 1.539 . S
C1569 C1565 1.408 . S
C1569 C1568 1.404 . S
C1569 H1581 0.930 . S
C1570 C1566 1.524 1_655 S
C1570 H1582 0.956 . S
C1570 H1583 0.961 . S
C1570 H1584 0.961 . S
C1571 C1568 1.539 . S
C1571 H1585 0.958 . S
C1571 H1586 0.961 . S
C1571 H1587 0.960 . S
H1572 C1556 0.931 . S
H1573 C1561 0.929 . S
H1574 C1562 0.960 . S
H1575 C1562 0.962 . S
H1576 C1562 0.960 . S
H1577 C1563 0.961 . S
H1578 C1563 0.961 . S
H1579 C1563 0.961 . S
H1580 C1564 0.931 . S
H1581 C1569 0.930 . S
H1582 C1570 0.956 . S
H1583 C1570 0.961 . S
H1584 C1570 0.961 . S
H1585 C1571 0.958 . S
H1586 C1571 0.961 . S
H1587 C1571 0.960 . S
C1588 C1589 1.391 . S
C1588 C1590 1.394 . S
C1588 H1604 0.931 . S
C1589 C1588 1.391 . S
C1589 C1593 1.376 . S
C1590 C1588 1.394 . S
C1590 C1591 1.369 . S
C1590 C1594 1.531 . S
C1591 C1590 1.369 . S
C1591 C1592 1.410 . S
C1591 C1599 1.503 . S
C1592 C1591 1.410 . S
C1592 C1593 1.392 . S
C1592 C1595 1.511 . S
C1593 C1589 1.376 . S
C1593 C1592 1.392 . S
C1593 H1605 0.929 . S
C1594 C1590 1.531 . S
C1594 H1606 0.960 . S
C1594 H1607 0.962 . S
C1594 H1608 0.960 . S
C1595 C1592 1.511 . S
C1595 H1609 0.961 . S
C1595 H1610 0.961 . S
C1595 H1611 0.961 . S
C1596 C1597 1.370 . S
C1596 C1598 1.363 . S
C1596 H1612 0.931 . S
C1597 C1596 1.370 . S
C1597 C1601 1.408 . S
C1598 C1596 1.363 . S
C1598 C1599 1.370 . S
C1598 C1602 1.524 . S
C1599 C1591 1.503 . S
C1599 C1598 1.370 . S
C1599 C1600 1.403 . S
C1600 C1599 1.403 . S
C1600 C1601 1.404 . S
C1600 C1603 1.539 . S
C1601 C1597 1.408 . S
C1601 C1600 1.404 . S
C1601 H1613 0.930 . S
C1602 C1598 1.524 . S
C1602 H1614 0.956 . S
C1602 H1615 0.961 . S
C1602 H1616 0.961 . S
C1603 C1600 1.539 . S
C1603 H1617 0.958 . S
C1603 H1618 0.961 . S
C1603 H1619 0.960 . S
H1604 C1588 0.931 . S
H1605 C1593 0.929 . S
H1606 C1594 0.960 . S
H1607 C1594 0.962 . S
H1608 C1594 0.960 . S
H1609 C1595 0.961 . S
H1610 C1595 0.961 . S
H1611 C1595 0.961 . S
H1612 C1596 0.931 . S
H1613 C1601 0.930 . S
H1614 C1602 0.956 . S
H1615 C1602 0.961 . S
H1616 C1602 0.961 . S
H1617 C1603 0.958 . S
H1618 C1603 0.961 . S
H1619 C1603 0.960 . S
C1620 C1621 1.391 . S
C1620 C1622 1.394 . S
C1620 H1636 0.931 . S
C1621 C1620 1.391 . S
C1621 C1625 1.376 . S
C1622 C1620 1.394 . S
C1622 C1623 1.369 . S
C1622 C1626 1.531 . S
C1623 C1622 1.369 . S
C1623 C1624 1.410 . S
C1623 C1631 1.503 . S
C1624 C1623 1.410 . S
C1624 C1625 1.392 . S
C1624 C1627 1.511 . S
C1625 C1621 1.376 . S
C1625 C1624 1.392 . S
C1625 H1637 0.929 . S
C1626 C1622 1.531 . S
C1626 H1638 0.960 . S
C1626 H1639 0.962 . S
C1626 H1640 0.960 . S
C1627 C1624 1.511 . S
C1627 H1641 0.961 . S
C1627 H1642 0.961 . S
C1627 H1643 0.961 . S
C1628 C1629 1.370 . S
C1628 C1630 1.363 . S
C1628 H1644 0.931 . S
C1629 C1628 1.370 . S
C1629 C1633 1.408 . S
C1630 C1628 1.363 . S
C1630 C1631 1.370 . S
C1630 C1634 1.524 . S
C1631 C1623 1.503 . S
C1631 C1630 1.370 . S
C1631 C1632 1.403 . S
C1632 C1631 1.403 . S
C1632 C1633 1.404 . S
C1632 C1635 1.539 . S
C1633 C1629 1.408 . S
C1633 C1632 1.404 . S
C1633 H1645 0.930 . S
C1634 C1630 1.524 . S
C1634 H1646 0.956 . S
C1634 H1647 0.961 . S
C1634 H1648 0.961 . S
C1635 C1632 1.539 . S
C1635 H1649 0.958 . S
C1635 H1650 0.961 . S
C1635 H1651 0.960 . S
H1636 C1620 0.931 . S
H1637 C1625 0.929 . S
H1638 C1626 0.960 . S
H1639 C1626 0.962 . S
H1640 C1626 0.960 . S
H1641 C1627 0.961 . S
H1642 C1627 0.961 . S
H1643 C1627 0.961 . S
H1644 C1628 0.931 . S
H1645 C1633 0.930 . S
H1646 C1634 0.956 . S
H1647 C1634 0.961 . S
H1648 C1634 0.961 . S
H1649 C1635 0.958 . S
H1650 C1635 0.961 . S
H1651 C1635 0.960 . S
C1652 C1653 1.391 . S
C1652 C1654 1.394 . S
C1652 H1668 0.931 . S
C1653 C1652 1.391 . S
C1653 C1657 1.376 . S
C1654 C1652 1.394 . S
C1654 C1655 1.369 . S
C1654 C1658 1.531 . S
C1655 C1654 1.369 . S
C1655 C1656 1.410 . S
C1655 C1663 1.503 . S
C1656 C1655 1.410 . S
C1656 C1657 1.392 . S
C1656 C1659 1.511 . S
C1657 C1653 1.376 . S
C1657 C1656 1.392 . S
C1657 H1669 0.929 . S
C1658 C1654 1.531 . S
C1658 H1670 0.960 . S
C1658 H1671 0.962 . S
C1658 H1672 0.960 . S
C1659 C1656 1.511 . S
C1659 H1673 0.961 . S
C1659 H1674 0.961 . S
C1659 H1675 0.961 . S
C1660 C1661 1.370 . S
C1660 C1662 1.363 . S
C1660 H1676 0.931 . S
C1661 C1660 1.370 . S
C1661 C1665 1.408 . S
C1662 C1660 1.363 . S
C1662 C1663 1.370 . S
C1662 C1666 1.524 . S
C1663 C1655 1.503 . S
C1663 C1662 1.370 . S
C1663 C1664 1.403 . S
C1664 C1663 1.403 . S
C1664 C1665 1.404 . S
C1664 C1667 1.539 . S
C1665 C1661 1.408 . S
C1665 C1664 1.404 . S
C1665 H1677 0.930 . S
C1666 C1662 1.524 . S
C1666 H1678 0.956 . S
C1666 H1679 0.961 . S
C1666 H1680 0.961 . S
C1667 C1664 1.539 . S
C1667 H1681 0.958 . S
C1667 H1682 0.961 . S
C1667 H1683 0.960 . S
H1668 C1652 0.931 . S
H1669 C1657 0.929 . S
H1670 C1658 0.960 . S
H1671 C1658 0.962 . S
H1672 C1658 0.960 . S
H1673 C1659 0.961 . S
H1674 C1659 0.961 . S
H1675 C1659 0.961 . S
H1676 C1660 0.931 . S
H1677 C1665 0.930 . S
H1678 C1666 0.956 . S
H1679 C1666 0.961 . S
H1680 C1666 0.961 . S
H1681 C1667 0.958 . S
H1682 C1667 0.961 . S
H1683 C1667 0.960 . S
C1684 C1685 1.391 . S
C1684 C1686 1.394 . S
C1684 H1700 0.931 . S
C1685 C1684 1.391 . S
C1685 C1689 1.376 . S
C1686 C1684 1.394 . S
C1686 C1687 1.369 . S
C1686 C1690 1.531 . S
C1687 C1686 1.369 . S
C1687 C1688 1.410 . S
C1687 C1695 1.503 . S
C1688 C1687 1.410 . S
C1688 C1689 1.392 . S
C1688 C1691 1.511 . S
C1689 C1685 1.376 . S
C1689 C1688 1.392 . S
C1689 H1701 0.929 . S
C1690 C1686 1.531 . S
C1690 H1702 0.960 . S
C1690 H1703 0.962 . S
C1690 H1704 0.960 . S
C1691 C1688 1.511 . S
C1691 H1705 0.961 . S
C1691 H1706 0.961 . S
C1691 H1707 0.961 . S
C1692 C1693 1.370 . S
C1692 C1694 1.363 . S
C1692 H1708 0.931 . S
C1693 C1692 1.370 . S
C1693 C1697 1.408 . S
C1694 C1692 1.363 . S
C1694 C1695 1.370 . S
C1694 C1698 1.524 . S
C1695 C1687 1.503 . S
C1695 C1694 1.370 . S
C1695 C1696 1.403 . S
C1696 C1695 1.403 . S
C1696 C1697 1.404 . S
C1696 C1699 1.539 . S
C1697 C1693 1.408 . S
C1697 C1696 1.404 . S
C1697 H1709 0.930 . S
C1698 C1694 1.524 . S
C1698 H1710 0.956 . S
C1698 H1711 0.961 . S
C1698 H1712 0.961 . S
C1699 C1696 1.539 . S
C1699 H1713 0.958 . S
C1699 H1714 0.961 . S
C1699 H1715 0.960 . S
H1700 C1684 0.931 . S
H1701 C1689 0.929 . S
H1702 C1690 0.960 . S
H1703 C1690 0.962 . S
H1704 C1690 0.960 . S
H1705 C1691 0.961 . S
H1706 C1691 0.961 . S
H1707 C1691 0.961 . S
H1708 C1692 0.931 . S
H1709 C1697 0.930 . S
H1710 C1698 0.956 . S
H1711 C1698 0.961 . S
H1712 C1698 0.961 . S
H1713 C1699 0.958 . S
H1714 C1699 0.961 . S
H1715 C1699 0.960 . S
C1716 C1717 1.391 . S
C1716 C1718 1.394 . S
C1716 H1732 0.931 . S
C1717 C1716 1.391 . S
C1717 C1721 1.376 . S
C1718 C1716 1.394 . S
C1718 C1719 1.369 . S
C1718 C1722 1.531 . S
C1719 C1718 1.369 . S
C1719 C1720 1.410 . S
C1719 C1727 1.503 . S
C1720 C1719 1.410 . S
C1720 C1721 1.392 . S
C1720 C1723 1.511 . S
C1721 C1717 1.376 . S
C1721 C1720 1.392 . S
C1721 H1733 0.929 . S
C1722 C1718 1.531 . S
C1722 H1734 0.960 . S
C1722 H1735 0.962 . S
C1722 H1736 0.960 . S
C1723 C1720 1.511 . S
C1723 H1737 0.961 . S
C1723 H1738 0.961 . S
C1723 H1739 0.961 . S
C1724 C1725 1.370 . S
C1724 C1726 1.363 . S
C1724 H1740 0.931 . S
C1725 C1724 1.370 . S
C1725 C1729 1.408 . S
C1726 C1724 1.363 . S
C1726 C1727 1.370 . S
C1726 C1730 1.524 . S
C1727 C1719 1.503 . S
C1727 C1726 1.370 . S
C1727 C1728 1.403 . S
C1728 C1727 1.403 . S
C1728 C1729 1.404 . S
C1728 C1731 1.539 . S
C1729 C1725 1.408 . S
C1729 C1728 1.404 . S
C1729 H1741 0.930 . S
C1730 C1726 1.524 . S
C1730 H1742 0.956 . S
C1730 H1743 0.961 . S
C1730 H1744 0.961 . S
C1731 C1728 1.539 . S
C1731 H1745 0.958 . S
C1731 H1746 0.961 . S
C1731 H1747 0.960 . S
H1732 C1716 0.931 . S
H1733 C1721 0.929 . S
H1734 C1722 0.960 . S
H1735 C1722 0.962 . S
H1736 C1722 0.960 . S
H1737 C1723 0.961 . S
H1738 C1723 0.961 . S
H1739 C1723 0.961 . S
H1740 C1724 0.931 . S
H1741 C1729 0.930 . S
H1742 C1730 0.956 . S
H1743 C1730 0.961 . S
H1744 C1730 0.961 . S
H1745 C1731 0.958 . S
H1746 C1731 0.961 . S
H1747 C1731 0.960 . S
C1748 C1749 1.391 . S
C1748 C1750 1.394 . S
C1748 H1764 0.931 . S
C1749 C1748 1.391 . S
C1749 C1753 1.376 . S
C1750 C1748 1.394 . S
C1750 C1751 1.369 . S
C1750 C1754 1.531 . S
C1751 C1750 1.369 . S
C1751 C1752 1.410 . S
C1751 C1759 1.503 . S
C1752 C1751 1.410 . S
C1752 C1753 1.392 . S
C1752 C1755 1.511 . S
C1753 C1749 1.376 . S
C1753 C1752 1.392 . S
C1753 H1765 0.929 . S
C1754 C1750 1.531 . S
C1754 H1766 0.960 . S
C1754 H1767 0.962 . S
C1754 H1768 0.960 . S
C1755 C1752 1.511 . S
C1755 H1769 0.961 . S
C1755 H1770 0.961 . S
C1755 H1771 0.961 . S
C1756 C1757 1.370 . S
C1756 C1758 1.363 . S
C1756 H1772 0.931 . S
C1757 C1756 1.370 . S
C1757 C1761 1.408 . S
C1758 C1756 1.363 . S
C1758 C1759 1.370 . S
C1758 C1762 1.524 . S
C1759 C1751 1.503 . S
C1759 C1758 1.370 . S
C1759 C1760 1.403 . S
C1760 C1759 1.403 . S
C1760 C1761 1.404 . S
C1760 C1763 1.539 . S
C1761 C1757 1.408 . S
C1761 C1760 1.404 . S
C1761 H1773 0.930 . S
C1762 C1758 1.524 . S
C1762 H1774 0.956 . S
C1762 H1775 0.961 . S
C1762 H1776 0.961 . S
C1763 C1760 1.539 . S
C1763 H1777 0.958 . S
C1763 H1778 0.961 . S
C1763 H1779 0.960 . S
H1764 C1748 0.931 . S
H1765 C1753 0.929 . S
H1766 C1754 0.960 . S
H1767 C1754 0.962 . S
H1768 C1754 0.960 . S
H1769 C1755 0.961 . S
H1770 C1755 0.961 . S
H1771 C1755 0.961 . S
H1772 C1756 0.931 . S
H1773 C1761 0.930 . S
H1774 C1762 0.956 . S
H1775 C1762 0.961 . S
H1776 C1762 0.961 . S
H1777 C1763 0.958 . S
H1778 C1763 0.961 . S
H1779 C1763 0.960 . S
C1780 C1781 1.391 . S
C1780 C1782 1.394 . S
C1780 H1796 0.931 . S
C1781 C1780 1.391 . S
C1781 C1785 1.376 . S
C1782 C1780 1.394 . S
C1782 C1783 1.369 . S
C1782 C1786 1.531 . S
C1783 C1782 1.369 . S
C1783 C1784 1.410 . S
C1783 C1791 1.503 . S
C1784 C1783 1.410 . S
C1784 C1785 1.392 . S
C1784 C1787 1.511 . S
C1785 C1781 1.376 . S
C1785 C1784 1.392 . S
C1785 H1797 0.929 . S
C1786 C1782 1.531 . S
C1786 H1798 0.960 . S
C1786 H1799 0.962 . S
C1786 H1800 0.960 . S
C1787 C1784 1.511 . S
C1787 H1801 0.961 . S
C1787 H1802 0.961 . S
C1787 H1803 0.961 . S
C1788 C1789 1.370 . S
C1788 C1790 1.363 . S
C1788 H1804 0.931 . S
C1789 C1788 1.370 . S
C1789 C1793 1.408 . S
C1790 C1788 1.363 . S
C1790 C1791 1.370 . S
C1790 C1794 1.524 . S
C1791 C1783 1.503 . S
C1791 C1790 1.370 . S
C1791 C1792 1.403 . S
C1792 C1791 1.403 . S
C1792 C1793 1.404 . S
C1792 C1795 1.539 . S
C1793 C1789 1.408 . S
C1793 C1792 1.404 . S
C1793 H1805 0.930 . S
C1794 C1790 1.524 . S
C1794 H1806 0.956 . S
C1794 H1807 0.961 . S
C1794 H1808 0.961 . S
C1795 C1792 1.539 . S
C1795 H1809 0.958 . S
C1795 H1810 0.961 . S
C1795 H1811 0.960 . S
H1796 C1780 0.931 . S
H1797 C1785 0.929 . S
H1798 C1786 0.960 . S
H1799 C1786 0.962 . S
H1800 C1786 0.960 . S
H1801 C1787 0.961 . S
H1802 C1787 0.961 . S
H1803 C1787 0.961 . S
H1804 C1788 0.931 . S
H1805 C1793 0.930 . S
H1806 C1794 0.956 . S
H1807 C1794 0.961 . S
H1808 C1794 0.961 . S
H1809 C1795 0.958 . S
H1810 C1795 0.961 . S
H1811 C1795 0.960 . S
C1812 C1813 1.391 . S
C1812 C1814 1.394 . S
C1812 H1828 0.931 . S
C1813 C1812 1.391 . S
C1813 C1817 1.376 . S
C1814 C1812 1.394 . S
C1814 C1815 1.369 . S
C1814 C1818 1.531 . S
C1815 C1814 1.369 . S
C1815 C1816 1.410 . S
C1815 C1823 1.503 . S
C1816 C1815 1.410 . S
C1816 C1817 1.392 . S
C1816 C1819 1.511 . S
C1817 C1813 1.376 . S
C1817 C1816 1.392 . S
C1817 H1829 0.929 . S
C1818 C1814 1.531 . S
C1818 H1830 0.960 . S
C1818 H1831 0.962 . S
C1818 H1832 0.960 . S
C1819 C1816 1.511 . S
C1819 H1833 0.961 . S
C1819 H1834 0.961 . S
C1819 H1835 0.961 . S
C1820 C1821 1.370 . S
C1820 C1822 1.363 . S
C1820 H1836 0.931 . S
C1821 C1820 1.370 . S
C1821 C1825 1.408 . S
C1822 C1820 1.363 . S
C1822 C1823 1.370 . S
C1822 C1826 1.524 . S
C1823 C1815 1.503 . S
C1823 C1822 1.370 . S
C1823 C1824 1.403 . S
C1824 C1823 1.403 . S
C1824 C1825 1.404 . S
C1824 C1827 1.539 . S
C1825 C1821 1.408 . S
C1825 C1824 1.404 . S
C1825 H1837 0.930 . S
C1826 C1822 1.524 . S
C1826 H1838 0.956 . S
C1826 H1839 0.961 . S
C1826 H1840 0.961 . S
C1827 C1824 1.539 . S
C1827 H1841 0.958 . S
C1827 H1842 0.961 . S
C1827 H1843 0.960 . S
H1828 C1812 0.931 . S
H1829 C1817 0.929 . S
H1830 C1818 0.960 . S
H1831 C1818 0.962 . S
H1832 C1818 0.960 . S
H1833 C1819 0.961 . S
H1834 C1819 0.961 . S
H1835 C1819 0.961 . S
H1836 C1820 0.931 . S
H1837 C1825 0.930 . S
H1838 C1826 0.956 . S
H1839 C1826 0.961 . S
H1840 C1826 0.961 . S
H1841 C1827 0.958 . S
H1842 C1827 0.961 . S
H1843 C1827 0.960 . S
C1844 C1845 1.391 . S
C1844 C1846 1.394 . S
C1844 H1860 0.931 . S
C1845 C1844 1.391 . S
C1845 C1849 1.376 . S
C1846 C1844 1.394 . S
C1846 C1847 1.369 . S
C1846 C1850 1.531 . S
C1847 C1846 1.369 . S
C1847 C1848 1.410 . S
C1847 C1855 1.503 . S
C1848 C1847 1.410 . S
C1848 C1849 1.392 . S
C1848 C1851 1.511 . S
C1849 C1845 1.376 . S
C1849 C1848 1.392 . S
C1849 H1861 0.929 . S
C1850 C1846 1.531 . S
C1850 H1862 0.960 . S
C1850 H1863 0.962 . S
C1850 H1864 0.960 . S
C1851 C1848 1.511 . S
C1851 H1865 0.961 . S
C1851 H1866 0.961 . S
C1851 H1867 0.961 . S
C1852 C1853 1.370 . S
C1852 C1854 1.363 . S
C1852 H1868 0.931 . S
C1853 C1852 1.370 . S
C1853 C1857 1.408 . S
C1854 C1852 1.363 . S
C1854 C1855 1.370 . S
C1854 C1858 1.524 . S
C1855 C1847 1.503 . S
C1855 C1854 1.370 . S
C1855 C1856 1.403 . S
C1856 C1855 1.403 . S
C1856 C1857 1.404 . S
C1856 C1859 1.539 . S
C1857 C1853 1.408 . S
C1857 C1856 1.404 . S
C1857 H1869 0.930 . S
C1858 C1854 1.524 . S
C1858 H1870 0.956 . S
C1858 H1871 0.961 . S
C1858 H1872 0.961 . S
C1859 C1856 1.539 . S
C1859 H1873 0.958 . S
C1859 H1874 0.961 . S
C1859 H1875 0.960 . S
H1860 C1844 0.931 . S
H1861 C1849 0.929 . S
H1862 C1850 0.960 . S
H1863 C1850 0.962 . S
H1864 C1850 0.960 . S
H1865 C1851 0.961 . S
H1866 C1851 0.961 . S
H1867 C1851 0.961 . S
H1868 C1852 0.931 . S
H1869 C1857 0.930 . S
H1870 C1858 0.956 . S
H1871 C1858 0.961 . S
H1872 C1858 0.961 . S
H1873 C1859 0.958 . S
H1874 C1859 0.961 . S
H1875 C1859 0.960 . S
C1876 C1877 1.391 . S
C1876 C1878 1.394 . S
C1876 H1892 0.931 . S
C1877 C1876 1.391 . S
C1877 C1881 1.376 . S
C1878 C1876 1.394 . S
C1878 C1879 1.369 . S
C1878 C1882 1.531 . S
C1879 C1878 1.369 . S
C1879 C1880 1.410 . S
C1879 C1887 1.503 . S
C1880 C1879 1.410 . S
C1880 C1881 1.392 . S
C1880 C1883 1.511 . S
C1881 C1877 1.376 . S
C1881 C1880 1.392 . S
C1881 H1893 0.929 . S
C1882 C1878 1.531 . S
C1882 H1894 0.960 . S
C1882 H1895 0.962 . S
C1882 H1896 0.960 . S
C1883 C1880 1.511 . S
C1883 H1897 0.961 . S
C1883 H1898 0.961 . S
C1883 H1899 0.961 . S
C1884 C1885 1.370 . S
C1884 C1886 1.363 . S
C1884 H1900 0.931 . S
C1885 C1884 1.370 . S
C1885 C1889 1.408 . S
C1886 C1884 1.363 . S
C1886 C1887 1.370 . S
C1886 C1890 1.524 . S
C1887 C1879 1.503 . S
C1887 C1886 1.370 . S
C1887 C1888 1.403 . S
C1888 C1887 1.403 . S
C1888 C1889 1.404 . S
C1888 C1891 1.539 . S
C1889 C1885 1.408 . S
C1889 C1888 1.404 . S
C1889 H1901 0.930 . S
C1890 C1886 1.524 . S
C1890 H1902 0.956 . S
C1890 H1903 0.961 . S
C1890 H1904 0.961 . S
C1891 C1888 1.539 . S
C1891 H1905 0.958 . S
C1891 H1906 0.961 . S
C1891 H1907 0.960 . S
H1892 C1876 0.931 . S
H1893 C1881 0.929 . S
H1894 C1882 0.960 . S
H1895 C1882 0.962 . S
H1896 C1882 0.960 . S
H1897 C1883 0.961 . S
H1898 C1883 0.961 . S
H1899 C1883 0.961 . S
H1900 C1884 0.931 . S
H1901 C1889 0.930 . S
H1902 C1890 0.956 . S
H1903 C1890 0.961 . S
H1904 C1890 0.961 . S
H1905 C1891 0.958 . S
H1906 C1891 0.961 . S
H1907 C1891 0.960 . S
C1908 C1909 1.391 . S
C1908 C1910 1.394 . S
C1908 H1924 0.931 . S
C1909 C1908 1.391 . S
C1909 C1913 1.376 . S
C1910 C1908 1.394 . S
C1910 C1911 1.369 . S
C1910 C1914 1.531 . S
C1911 C1910 1.369 . S
C1911 C1912 1.410 . S
C1911 C1919 1.503 . S
C1912 C1911 1.410 . S
C1912 C1913 1.392 . S
C1912 C1915 1.511 . S
C1913 C1909 1.376 . S
C1913 C1912 1.392 . S
C1913 H1925 0.929 . S
C1914 C1910 1.531 . S
C1914 H1926 0.960 . S
C1914 H1927 0.962 . S
C1914 H1928 0.960 . S
C1915 C1912 1.511 . S
C1915 H1929 0.961 . S
C1915 H1930 0.961 . S
C1915 H1931 0.961 . S
C1916 C1917 1.370 . S
C1916 C1918 1.363 . S
C1916 H1932 0.931 . S
C1917 C1916 1.370 . S
C1917 C1921 1.408 . S
C1918 C1916 1.363 . S
C1918 C1919 1.370 . S
C1918 C1922 1.524 . S
C1919 C1911 1.503 . S
C1919 C1918 1.370 . S
C1919 C1920 1.403 . S
C1920 C1919 1.403 . S
C1920 C1921 1.404 . S
C1920 C1923 1.539 . S
C1921 C1917 1.408 . S
C1921 C1920 1.404 . S
C1921 H1933 0.930 . S
C1922 C1918 1.524 . S
C1922 H1934 0.956 . S
C1922 H1935 0.961 . S
C1922 H1936 0.961 . S
C1923 C1920 1.539 . S
C1923 H1937 0.958 . S
C1923 H1938 0.961 . S
C1923 H1939 0.960 . S
H1924 C1908 0.931 . S
H1925 C1913 0.929 . S
H1926 C1914 0.960 . S
H1927 C1914 0.962 . S
H1928 C1914 0.960 . S
H1929 C1915 0.961 . S
H1930 C1915 0.961 . S
H1931 C1915 0.961 . S
H1932 C1916 0.931 . S
H1933 C1921 0.930 . S
H1934 C1922 0.956 . S
H1935 C1922 0.961 . S
H1936 C1922 0.961 . S
H1937 C1923 0.958 . S
H1938 C1923 0.961 . S
H1939 C1923 0.960 . S
C1940 C1941 1.391 . S
C1940 C1942 1.394 . S
C1940 H1956 0.931 . S
C1941 C1940 1.391 . S
C1941 C1945 1.376 . S
C1942 C1940 1.394 . S
C1942 C1943 1.369 . S
C1942 C1946 1.531 . S
C1943 C1942 1.369 . S
C1943 C1944 1.410 . S
C1943 C1951 1.503 . S
C1944 C1943 1.410 . S
C1944 C1945 1.392 . S
C1944 C1947 1.511 . S
C1945 C1941 1.376 . S
C1945 C1944 1.392 . S
C1945 H1957 0.929 . S
C1946 C1942 1.531 . S
C1946 H1958 0.960 . S
C1946 H1959 0.962 . S
C1946 H1960 0.960 . S
C1947 C1944 1.511 . S
C1947 H1961 0.961 . S
C1947 H1962 0.961 . S
C1947 H1963 0.961 . S
C1948 C1949 1.370 . S
C1948 C1950 1.363 . S
C1948 H1964 0.931 . S
C1949 C1948 1.370 . S
C1949 C1953 1.408 . S
C1950 C1948 1.363 . S
C1950 C1951 1.370 . S
C1950 C1954 1.524 . S
C1951 C1943 1.503 . S
C1951 C1950 1.370 . S
C1951 C1952 1.403 . S
C1952 C1951 1.403 . S
C1952 C1953 1.404 . S
C1952 C1955 1.539 . S
C1953 C1949 1.408 . S
C1953 C1952 1.404 . S
C1953 H1965 0.930 . S
C1954 C1950 1.524 . S
C1954 H1966 0.956 . S
C1954 H1967 0.961 . S
C1954 H1968 0.961 . S
C1955 C1952 1.539 . S
C1955 H1969 0.958 . S
C1955 H1970 0.961 . S
C1955 H1971 0.960 . S
H1956 C1940 0.931 . S
H1957 C1945 0.929 . S
H1958 C1946 0.960 . S
H1959 C1946 0.962 . S
H1960 C1946 0.960 . S
H1961 C1947 0.961 . S
H1962 C1947 0.961 . S
H1963 C1947 0.961 . S
H1964 C1948 0.931 . S
H1965 C1953 0.930 . S
H1966 C1954 0.956 . S
H1967 C1954 0.961 . S
H1968 C1954 0.961 . S
H1969 C1955 0.958 . S
H1970 C1955 0.961 . S
H1971 C1955 0.960 . S
C1972 C1973 1.391 . S
C1972 C1974 1.394 . S
C1972 H1988 0.931 . S
C1973 C1972 1.391 . S
C1973 C1977 1.376 . S
C1974 C1972 1.394 . S
C1974 C1975 1.369 . S
C1974 C1978 1.531 . S
C1975 C1974 1.369 . S
C1975 C1976 1.410 . S
C1975 C1983 1.503 . S
C1976 C1975 1.410 . S
C1976 C1977 1.392 . S
C1976 C1979 1.511 . S
C1977 C1973 1.376 . S
C1977 C1976 1.392 . S
C1977 H1989 0.929 . S
C1978 C1974 1.531 . S
C1978 H1990 0.960 . S
C1978 H1991 0.962 . S
C1978 H1992 0.960 . S
C1979 C1976 1.511 . S
C1979 H1993 0.961 . S
C1979 H1994 0.961 . S
C1979 H1995 0.961 . S
C1980 C1981 1.370 . S
C1980 C1982 1.363 . S
C1980 H1996 0.931 . S
C1981 C1980 1.370 . S
C1981 C1985 1.408 . S
C1982 C1980 1.363 . S
C1982 C1983 1.370 . S
C1982 C1986 1.524 . S
C1983 C1975 1.503 . S
C1983 C1982 1.370 . S
C1983 C1984 1.403 . S
C1984 C1983 1.403 . S
C1984 C1985 1.404 . S
C1984 C1987 1.539 . S
C1985 C1981 1.408 . S
C1985 C1984 1.404 . S
C1985 H1997 0.930 . S
C1986 C1982 1.524 . S
C1986 H1998 0.956 . S
C1986 H1999 0.961 . S
C1986 H2000 0.961 . S
C1987 C1984 1.539 . S
C1987 H2001 0.958 . S
C1987 H2002 0.961 . S
C1987 H2003 0.960 . S
H1988 C1972 0.931 . S
H1989 C1977 0.929 . S
H1990 C1978 0.960 . S
H1991 C1978 0.962 . S
H1992 C1978 0.960 . S
H1993 C1979 0.961 . S
H1994 C1979 0.961 . S
H1995 C1979 0.961 . S
H1996 C1980 0.931 . S
H1997 C1985 0.930 . S
H1998 C1986 0.956 . S
H1999 C1986 0.961 . S
H2000 C1986 0.961 . S
H2001 C1987 0.958 . S
H2002 C1987 0.961 . S
H2003 C1987 0.960 . S
C2004 C2005 1.391 . S
C2004 C2006 1.394 1_455 S
C2004 H2020 0.931 1_455 S
C2005 C2004 1.391 . S
C2005 C2009 1.376 . S
C2006 C2004 1.394 1_655 S
C2006 C2007 1.369 1_655 S
C2006 C2010 1.531 . S
C2007 C2006 1.369 1_455 S
C2007 C2008 1.410 . S
C2007 C2015 1.503 1_455 S
C2008 C2007 1.410 . S
C2008 C2009 1.392 . S
C2008 C2011 1.511 . S
C2009 C2005 1.376 . S
C2009 C2008 1.392 . S
C2009 H2021 0.929 . S
C2010 C2006 1.531 . S
C2010 H2022 0.960 . S
C2010 H2023 0.962 . S
C2010 H2024 0.960 . S
C2011 C2008 1.511 . S
C2011 H2025 0.961 . S
C2011 H2026 0.961 . S
C2011 H2027 0.961 . S
C2012 C2013 1.370 . S
C2012 C2014 1.363 . S
C2012 H2028 0.931 . S
C2013 C2012 1.370 . S
C2013 C2017 1.408 . S
C2014 C2012 1.363 . S
C2014 C2015 1.370 . S
C2014 C2018 1.524 . S
C2015 C2007 1.503 1_655 S
C2015 C2014 1.370 . S
C2015 C2016 1.403 1_655 S
C2016 C2015 1.403 1_455 S
C2016 C2017 1.404 1_455 S
C2016 C2019 1.539 . S
C2017 C2013 1.408 . S
C2017 C2016 1.404 1_655 S
C2017 H2029 0.930 . S
C2018 C2014 1.524 . S
C2018 H2030 0.956 . S
C2018 H2031 0.961 . S
C2018 H2032 0.961 . S
C2019 C2016 1.539 . S
C2019 H2033 0.958 . S
C2019 H2034 0.961 . S
C2019 H2035 0.960 . S
H2020 C2004 0.931 1_655 S
H2021 C2009 0.929 . S
H2022 C2010 0.960 . S
H2023 C2010 0.962 . S
H2024 C2010 0.960 . S
H2025 C2011 0.961 . S
H2026 C2011 0.961 . S
H2027 C2011 0.961 . S
H2028 C2012 0.931 . S
H2029 C2017 0.930 . S
H2030 C2018 0.956 . S
H2031 C2018 0.961 . S
H2032 C2018 0.961 . S
H2033 C2019 0.958 . S
H2034 C2019 0.961 . S
H2035 C2019 0.960 . S
C2036 C2037 1.391 . S
C2036 C2038 1.394 . S
C2036 H2052 0.931 . S
C2037 C2036 1.391 . S
C2037 C2041 1.376 . S
C2038 C2036 1.394 . S
C2038 C2039 1.369 . S
C2038 C2042 1.531 . S
C2039 C2038 1.369 . S
C2039 C2040 1.410 . S
C2039 C2047 1.503 . S
C2040 C2039 1.410 . S
C2040 C2041 1.392 . S
C2040 C2043 1.511 . S
C2041 C2037 1.376 . S
C2041 C2040 1.392 . S
C2041 H2053 0.929 . S
C2042 C2038 1.531 . S
C2042 H2054 0.960 . S
C2042 H2055 0.962 . S
C2042 H2056 0.960 . S
C2043 C2040 1.511 . S
C2043 H2057 0.961 . S
C2043 H2058 0.961 . S
C2043 H2059 0.961 . S
C2044 C2045 1.370 . S
C2044 C2046 1.363 . S
C2044 H2060 0.931 . S
C2045 C2044 1.370 . S
C2045 C2049 1.408 . S
C2046 C2044 1.363 . S
C2046 C2047 1.370 . S
C2046 C2050 1.524 . S
C2047 C2039 1.503 . S
C2047 C2046 1.370 . S
C2047 C2048 1.403 . S
C2048 C2047 1.403 . S
C2048 C2049 1.404 . S
C2048 C2051 1.539 . S
C2049 C2045 1.408 . S
C2049 C2048 1.404 . S
C2049 H2061 0.930 . S
C2050 C2046 1.524 . S
C2050 H2062 0.956 . S
C2050 H2063 0.961 . S
C2050 H2064 0.961 . S
C2051 C2048 1.539 . S
C2051 H2065 0.958 . S
C2051 H2066 0.961 . S
C2051 H2067 0.960 . S
H2052 C2036 0.931 . S
H2053 C2041 0.929 . S
H2054 C2042 0.960 . S
H2055 C2042 0.962 . S
H2056 C2042 0.960 . S
H2057 C2043 0.961 . S
H2058 C2043 0.961 . S
H2059 C2043 0.961 . S
H2060 C2044 0.931 . S
H2061 C2049 0.930 . S
H2062 C2050 0.956 . S
H2063 C2050 0.961 . S
H2064 C2050 0.961 . S
H2065 C2051 0.958 . S
H2066 C2051 0.961 . S
H2067 C2051 0.960 . S
C2068 C2069 1.391 . S
C2068 C2070 1.394 . S
C2068 H2084 0.931 . S
C2069 C2068 1.391 . S
C2069 C2073 1.376 . S
C2070 C2068 1.394 . S
C2070 C2071 1.369 . S
C2070 C2074 1.531 . S
C2071 C2070 1.369 . S
C2071 C2072 1.410 . S
C2071 C2079 1.509 1_545 S
C2072 C2071 1.410 . S
C2072 C2073 1.392 . S
C2072 C2075 1.511 . S
C2073 C2069 1.376 . S
C2073 C2072 1.392 . S
C2073 H2085 0.929 . S
C2074 C2070 1.531 . S
C2074 H2086 0.960 . S
C2074 H2087 0.962 1_545 S
C2074 H2088 0.960 . S
C2075 C2072 1.511 . S
C2075 H2089 0.961 . S
C2075 H2090 0.961 . S
C2075 H2091 0.961 . S
C2076 C2077 1.370 . S
C2076 C2078 1.363 . S
C2076 H2092 0.931 . S
C2077 C2076 1.370 . S
C2077 C2081 1.408 1_565 S
C2078 C2076 1.363 . S
C2078 C2079 1.425 . S
C2078 C2082 1.524 . S
C2079 C2071 1.509 1_565 S
C2079 C2078 1.425 . S
C2079 C2080 1.346 1_565 S
C2080 C2079 1.346 1_545 S
C2080 C2081 1.404 . S
C2080 C2083 1.539 . S
C2081 C2077 1.408 1_545 S
C2081 C2080 1.404 . S
C2081 H2093 0.930 . S
C2082 C2078 1.524 . S
C2082 H2094 0.956 . S
C2082 H2095 0.961 . S
C2082 H2096 0.961 . S
C2083 C2080 1.539 . S
C2083 H2097 0.958 . S
C2083 H2098 0.961 . S
C2083 H2099 0.960 . S
H2084 C2068 0.931 . S
H2085 C2073 0.929 . S
H2086 C2074 0.960 . S
H2087 C2074 0.962 1_565 S
H2088 C2074 0.960 . S
H2089 C2075 0.961 . S
H2090 C2075 0.961 . S
H2091 C2075 0.961 . S
H2092 C2076 0.931 . S
H2093 C2081 0.930 . S
H2094 C2082 0.956 . S
H2095 C2082 0.961 . S
H2096 C2082 0.961 . S
H2097 C2083 0.958 . S
H2098 C2083 0.961 . S
H2099 C2083 0.960 . S
C2100 C2101 1.329 1_565 S
C2100 C2102 1.443 . S
C2100 H2116 0.946 . S
C2101 C2100 1.329 1_545 S
C2101 C2105 1.376 . S
C2102 C2100 1.443 . S
C2102 C2103 1.369 1_565 S
C2102 C2106 1.531 . S
C2103 C2102 1.369 1_545 S
C2103 C2104 1.410 . S
C2103 C2111 1.503 1_546 S
C2104 C2103 1.410 . S
C2104 C2105 1.392 . S
C2104 C2107 1.511 1_556 S
C2105 C2101 1.376 . S
C2105 C2104 1.392 . S
C2105 H2117 0.929 . S
C2106 C2102 1.531 . S
C2106 H2118 0.960 . S
C2106 H2119 0.962 . S
C2106 H2120 0.960 . S
C2107 C2104 1.511 1_554 S
C2107 H2121 0.961 . S
C2107 H2122 0.961 . S
C2107 H2123 0.960 1_554 S
C2108 C2109 1.370 . S
C2108 C2110 1.363 . S
C2108 H2124 0.931 . S
C2109 C2108 1.370 . S
C2109 C2113 1.408 1_554 S
C2110 C2108 1.363 . S
C2110 C2111 1.370 . S
C2110 C2114 1.524 . S
C2111 C2103 1.503 1_564 S
C2111 C2110 1.370 . S
C2111 C2112 1.403 1_554 S
C2112 C2111 1.403 1_556 S
C2112 C2113 1.404 . S
C2112 C2115 1.540 . S
C2113 C2109 1.408 1_556 S
C2113 C2112 1.404 . S
C2113 H2125 0.930 . S
C2114 C2110 1.524 . S
C2114 H2126 0.956 . S
C2114 H2127 0.961 1_565 S
C2114 H2128 0.961 . S
C2115 C2112 1.540 . S
C2115 H2129 0.959 . S
C2115 H2130 0.962 1_565 S
C2115 H2131 0.958 1_565 S
H2116 C2100 0.946 . S
H2117 C2105 0.929 . S
H2118 C2106 0.960 . S
H2119 C2106 0.962 . S
H2120 C2106 0.960 . S
H2121 C2107 0.961 . S
H2122 C2107 0.961 . S
H2123 C2107 0.960 1_556 S
H2124 C2108 0.931 . S
H2125 C2113 0.930 . S
H2126 C2114 0.956 . S
H2127 C2114 0.961 1_545 S
H2128 C2114 0.961 . S
H2129 C2115 0.959 . S
H2130 C2115 0.962 1_545 S
H2131 C2115 0.958 1_545 S
C2132 C2133 1.391 . S
C2132 C2134 1.400 1_454 S
C2132 H2148 0.973 . S
C2133 C2132 1.391 . S
C2133 C2137 1.376 . S
C2134 C2132 1.400 1_656 S
C2134 C2135 1.338 1_656 S
C2134 C2138 1.556 . S
C2135 C2134 1.338 1_454 S
C2135 C2136 1.410 . S
C2135 C2143 1.503 1_454 S
C2136 C2135 1.410 . S
C2136 C2137 1.392 . S
C2136 C2139 1.511 . S
C2137 C2133 1.376 . S
C2137 C2136 1.392 . S
C2137 H2149 0.929 . S
C2138 C2134 1.556 . S
C2138 H2150 0.960 . S
C2138 H2151 0.962 . S
C2138 H2152 0.960 . S
C2139 C2136 1.511 . S
C2139 H2153 0.961 . S
C2139 H2154 0.961 . S
C2139 H2155 0.961 . S
C2140 C2141 1.370 . S
C2140 C2142 1.363 1_556 S
C2140 H2156 0.931 1_556 S
C2141 C2140 1.370 . S
C2141 C2145 1.408 . S
C2142 C2140 1.363 1_554 S
C2142 C2143 1.370 1_554 S
C2142 C2146 1.524 . S
C2143 C2135 1.503 1_656 S
C2143 C2142 1.370 1_556 S
C2143 C2144 1.403 1_655 S
C2144 C2143 1.403 1_455 S
C2144 C2145 1.404 1_455 S
C2144 C2147 1.539 . S
C2145 C2141 1.408 . S
C2145 C2144 1.404 1_655 S
C2145 H2157 0.930 1_655 S
C2146 C2142 1.524 . S
C2146 H2158 0.956 . S
C2146 H2159 0.961 . S
C2146 H2160 0.961 . S
C2147 C2144 1.539 . S
C2147 H2161 0.958 . S
C2147 H2162 0.961 . S
C2147 H2163 0.960 . S
H2148 C2132 0.973 . S
H2149 C2137 0.929 . S
H2150 C2138 0.960 . S
H2151 C2138 0.962 . S
H2152 C2138 0.960 . S
H2153 C2139 0.961 . S
H2154 C2139 0.961 . S
H2155 C2139 0.961 . S
H2156 C2140 0.931 1_554 S
H2157 C2145 0.930 1_455 S
H2158 C2146 0.956 . S
H2159 C2146 0.961 . S
H2160 C2146 0.961 . S
H2161 C2147 0.958 . S
H2162 C2147 0.961 . S
H2163 C2147 0.960 . S
C2164 C2165 1.391 . S
C2164 C2166 1.394 . S
C2164 H2180 0.931 . S
C2165 C2164 1.391 . S
C2165 C2169 1.376 . S
C2166 C2164 1.394 . S
C2166 C2167 1.369 . S
C2166 C2170 1.531 . S
C2167 C2166 1.369 . S
C2167 C2168 1.410 . S
C2167 C2175 1.503 1_554 S
C2168 C2167 1.410 . S
C2168 C2169 1.392 . S
C2168 C2171 1.511 . S
C2169 C2165 1.376 . S
C2169 C2168 1.392 . S
C2169 H2181 0.929 . S
C2170 C2166 1.531 . S
C2170 H2182 0.960 . S
C2170 H2183 0.962 1_554 S
C2170 H2184 0.960 . S
C2171 C2168 1.511 . S
C2171 H2185 0.961 . S
C2171 H2186 0.961 . S
C2171 H2187 0.961 . S
C2172 C2173 1.370 . S
C2172 C2174 1.363 . S
C2172 H2188 0.931 . S
C2173 C2172 1.370 . S
C2173 C2177 1.408 1_556 S
C2174 C2172 1.363 . S
C2174 C2175 1.370 . S
C2174 C2178 1.524 . S
C2175 C2167 1.503 1_556 S
C2175 C2174 1.370 . S
C2175 C2176 1.403 1_556 S
C2176 C2175 1.403 1_554 S
C2176 C2177 1.404 . S
C2176 C2179 1.539 . S
C2177 C2173 1.408 1_554 S
C2177 C2176 1.404 . S
C2177 H2189 0.930 . S
C2178 C2174 1.524 . S
C2178 H2190 0.956 . S
C2178 H2191 0.961 . S
C2178 H2192 0.961 . S
C2179 C2176 1.539 . S
C2179 H2193 0.958 . S
C2179 H2194 0.961 . S
C2179 H2195 0.960 . S
H2180 C2164 0.931 . S
H2181 C2169 0.929 . S
H2182 C2170 0.960 . S
H2183 C2170 0.962 1_556 S
H2184 C2170 0.960 . S
H2185 C2171 0.961 . S
H2186 C2171 0.961 . S
H2187 C2171 0.961 . S
H2188 C2172 0.931 . S
H2189 C2177 0.930 . S
H2190 C2178 0.956 . S
H2191 C2178 0.961 . S
H2192 C2178 0.961 . S
H2193 C2179 0.958 . S
H2194 C2179 0.961 . S
H2195 C2179 0.960 . S
C2196 C2197 1.391 . S
C2196 C2198 1.394 . S
C2196 H2212 0.931 . S
C2197 C2196 1.391 . S
C2197 C2201 1.376 . S
C2198 C2196 1.394 . S
C2198 C2199 1.369 . S
C2198 C2202 1.531 . S
C2199 C2198 1.369 . S
C2199 C2200 1.410 . S
C2199 C2207 1.503 . S
C2200 C2199 1.410 . S
C2200 C2201 1.392 . S
C2200 C2203 1.511 . S
C2201 C2197 1.376 . S
C2201 C2200 1.392 . S
C2201 H2213 0.929 . S
C2202 C2198 1.531 . S
C2202 H2214 0.960 . S
C2202 H2215 0.962 . S
C2202 H2216 0.960 . S
C2203 C2200 1.511 . S
C2203 H2217 0.961 . S
C2203 H2218 0.961 . S
C2203 H2219 0.961 . S
C2204 C2205 1.370 . S
C2204 C2206 1.363 . S
C2204 H2220 0.931 . S
C2205 C2204 1.370 . S
C2205 C2209 1.408 . S
C2206 C2204 1.363 . S
C2206 C2207 1.370 . S
C2206 C2210 1.524 . S
C2207 C2199 1.503 . S
C2207 C2206 1.370 . S
C2207 C2208 1.403 . S
C2208 C2207 1.403 . S
C2208 C2209 1.404 . S
C2208 C2211 1.539 . S
C2209 C2205 1.408 . S
C2209 C2208 1.404 . S
C2209 H2221 0.930 . S
C2210 C2206 1.524 . S
C2210 H2222 0.956 . S
C2210 H2223 0.961 . S
C2210 H2224 0.961 . S
C2211 C2208 1.539 . S
C2211 H2225 0.958 . S
C2211 H2226 0.961 . S
C2211 H2227 0.960 . S
H2212 C2196 0.931 . S
H2213 C2201 0.929 . S
H2214 C2202 0.960 . S
H2215 C2202 0.962 . S
H2216 C2202 0.960 . S
H2217 C2203 0.961 . S
H2218 C2203 0.961 . S
H2219 C2203 0.961 . S
H2220 C2204 0.931 . S
H2221 C2209 0.930 . S
H2222 C2210 0.956 . S
H2223 C2210 0.961 . S
H2224 C2210 0.961 . S
H2225 C2211 0.958 . S
H2226 C2211 0.961 . S
H2227 C2211 0.960 . S
C2228 C2229 1.391 . S
C2228 C2230 1.394 . S
C2228 H2244 0.931 . S
C2229 C2228 1.391 . S
C2229 C2233 1.376 . S
C2230 C2228 1.394 . S
C2230 C2231 1.369 . S
C2230 C2234 1.531 . S
C2231 C2230 1.369 . S
C2231 C2232 1.410 . S
C2231 C2239 1.503 . S
C2232 C2231 1.410 . S
C2232 C2233 1.392 . S
C2232 C2235 1.511 . S
C2233 C2229 1.376 . S
C2233 C2232 1.392 . S
C2233 H2245 0.929 . S
C2234 C2230 1.531 . S
C2234 H2246 0.960 . S
C2234 H2247 0.962 . S
C2234 H2248 0.960 . S
C2235 C2232 1.511 . S
C2235 H2249 0.961 . S
C2235 H2250 0.961 . S
C2235 H2251 0.961 . S
C2236 C2237 1.370 . S
C2236 C2238 1.363 . S
C2236 H2252 0.931 1_554 S
C2237 C2236 1.370 . S
C2237 C2241 1.408 . S
C2238 C2236 1.363 . S
C2238 C2239 1.370 . S
C2238 C2242 1.524 . S
C2239 C2231 1.503 . S
C2239 C2238 1.370 . S
C2239 C2240 1.403 . S
C2240 C2239 1.403 . S
C2240 C2241 1.404 . S
C2240 C2243 1.539 . S
C2241 C2237 1.408 . S
C2241 C2240 1.404 . S
C2241 H2253 0.930 . S
C2242 C2238 1.524 . S
C2242 H2254 0.956 . S
C2242 H2255 0.961 . S
C2242 H2256 0.961 . S
C2243 C2240 1.539 . S
C2243 H2257 0.958 . S
C2243 H2258 0.961 . S
C2243 H2259 0.960 . S
H2244 C2228 0.931 . S
H2245 C2233 0.929 . S
H2246 C2234 0.960 . S
H2247 C2234 0.962 . S
H2248 C2234 0.960 . S
H2249 C2235 0.961 . S
H2250 C2235 0.961 . S
H2251 C2235 0.961 . S
H2252 C2236 0.931 1_556 S
H2253 C2241 0.930 . S
H2254 C2242 0.956 . S
H2255 C2242 0.961 . S
H2256 C2242 0.961 . S
H2257 C2243 0.958 . S
H2258 C2243 0.961 . S
H2259 C2243 0.960 . S
C2260 C2261 1.391 . S
C2260 C2262 1.394 . S
C2260 H2276 0.931 . S
C2261 C2260 1.391 . S
C2261 C2265 1.376 . S
C2262 C2260 1.394 . S
C2262 C2263 1.369 . S
C2262 C2266 1.531 . S
C2263 C2262 1.369 . S
C2263 C2264 1.410 . S
C2263 C2271 1.503 . S
C2264 C2263 1.410 . S
C2264 C2265 1.392 . S
C2264 C2267 1.511 . S
C2265 C2261 1.376 . S
C2265 C2264 1.392 . S
C2265 H2277 0.929 1_554 S
C2266 C2262 1.531 . S
C2266 H2278 0.960 . S
C2266 H2279 0.962 . S
C2266 H2280 0.960 . S
C2267 C2264 1.511 . S
C2267 H2281 0.961 . S
C2267 H2282 0.961 . S
C2267 H2283 0.961 . S
C2268 C2269 1.370 . S
C2268 C2270 1.363 . S
C2268 H2284 0.931 . S
C2269 C2268 1.370 . S
C2269 C2273 1.408 . S
C2270 C2268 1.363 . S
C2270 C2271 1.370 . S
C2270 C2274 1.524 . S
C2271 C2263 1.503 . S
C2271 C2270 1.370 . S
C2271 C2272 1.403 . S
C2272 C2271 1.403 . S
C2272 C2273 1.404 . S
C2272 C2275 1.539 . S
C2273 C2269 1.408 . S
C2273 C2272 1.404 . S
C2273 H2285 0.930 . S
C2274 C2270 1.524 . S
C2274 H2286 0.956 . S
C2274 H2287 0.961 . S
C2274 H2288 0.961 . S
C2275 C2272 1.539 . S
C2275 H2289 0.958 . S
C2275 H2290 0.961 . S
C2275 H2291 0.960 . S
H2276 C2260 0.931 . S
H2277 C2265 0.929 1_556 S
H2278 C2266 0.960 . S
H2279 C2266 0.962 . S
H2280 C2266 0.960 . S
H2281 C2267 0.961 . S
H2282 C2267 0.961 . S
H2283 C2267 0.961 . S
H2284 C2268 0.931 . S
H2285 C2273 0.930 . S
H2286 C2274 0.956 . S
H2287 C2274 0.961 . S
H2288 C2274 0.961 . S
H2289 C2275 0.958 . S
H2290 C2275 0.961 . S
H2291 C2275 0.960 . S
C2292 C2293 1.391 . S
C2292 C2294 1.394 . S
C2292 H2308 0.931 . S
C2293 C2292 1.391 . S
C2293 C2297 1.376 . S
C2294 C2292 1.394 . S
C2294 C2295 1.369 . S
C2294 C2298 1.531 . S
C2295 C2294 1.369 . S
C2295 C2296 1.410 . S
C2295 C2303 1.503 . S
C2296 C2295 1.410 . S
C2296 C2297 1.392 . S
C2296 C2299 1.511 . S
C2297 C2293 1.376 . S
C2297 C2296 1.392 . S
C2297 H2309 0.929 . S
C2298 C2294 1.531 . S
C2298 H2310 0.960 . S
C2298 H2311 0.962 . S
C2298 H2312 0.960 . S
C2299 C2296 1.511 . S
C2299 H2313 0.961 . S
C2299 H2314 0.961 . S
C2299 H2315 0.961 . S
C2300 C2301 1.370 . S
C2300 C2302 1.363 . S
C2300 H2316 0.931 . S
C2301 C2300 1.370 . S
C2301 C2305 1.408 . S
C2302 C2300 1.363 . S
C2302 C2303 1.370 . S
C2302 C2306 1.524 . S
C2303 C2295 1.503 . S
C2303 C2302 1.370 . S
C2303 C2304 1.403 . S
C2304 C2303 1.403 . S
C2304 C2305 1.404 . S
C2304 C2307 1.539 . S
C2305 C2301 1.408 . S
C2305 C2304 1.404 . S
C2305 H2317 0.930 . S
C2306 C2302 1.524 . S
C2306 H2318 0.956 . S
C2306 H2319 0.961 . S
C2306 H2320 0.961 . S
C2307 C2304 1.539 . S
C2307 H2321 0.958 . S
C2307 H2322 0.961 . S
C2307 H2323 0.960 . S
H2308 C2292 0.931 . S
H2309 C2297 0.929 . S
H2310 C2298 0.960 . S
H2311 C2298 0.962 . S
H2312 C2298 0.960 . S
H2313 C2299 0.961 . S
H2314 C2299 0.961 . S
H2315 C2299 0.961 . S
H2316 C2300 0.931 . S
H2317 C2305 0.930 . S
H2318 C2306 0.956 . S
H2319 C2306 0.961 . S
H2320 C2306 0.961 . S
H2321 C2307 0.958 . S
H2322 C2307 0.961 . S
H2323 C2307 0.960 . S
C2324 C2325 1.391 . S
C2324 C2326 1.394 . S
C2324 H2340 0.931 . S
C2325 C2324 1.391 . S
C2325 C2329 1.376 . S
C2326 C2324 1.394 . S
C2326 C2327 1.369 . S
C2326 C2330 1.531 . S
C2327 C2326 1.369 . S
C2327 C2328 1.410 . S
C2327 C2335 1.503 . S
C2328 C2327 1.410 . S
C2328 C2329 1.392 . S
C2328 C2331 1.511 . S
C2329 C2325 1.376 . S
C2329 C2328 1.392 . S
C2329 H2341 0.929 . S
C2330 C2326 1.531 . S
C2330 H2342 0.960 . S
C2330 H2343 0.962 . S
C2330 H2344 0.960 . S
C2331 C2328 1.511 . S
C2331 H2345 0.961 . S
C2331 H2346 0.961 . S
C2331 H2347 0.961 . S
C2332 C2333 1.370 . S
C2332 C2334 1.363 . S
C2332 H2348 0.931 . S
C2333 C2332 1.370 . S
C2333 C2337 1.408 . S
C2334 C2332 1.363 . S
C2334 C2335 1.370 . S
C2334 C2338 1.524 . S
C2335 C2327 1.503 . S
C2335 C2334 1.370 . S
C2335 C2336 1.403 . S
C2336 C2335 1.403 . S
C2336 C2337 1.404 . S
C2336 C2339 1.539 . S
C2337 C2333 1.408 . S
C2337 C2336 1.404 . S
C2337 H2349 0.930 . S
C2338 C2334 1.524 . S
C2338 H2350 0.956 . S
C2338 H2351 0.961 . S
C2338 H2352 0.961 . S
C2339 C2336 1.539 . S
C2339 H2353 0.958 . S
C2339 H2354 0.961 . S
C2339 H2355 0.960 . S
H2340 C2324 0.931 . S
H2341 C2329 0.929 . S
H2342 C2330 0.960 . S
H2343 C2330 0.962 . S
H2344 C2330 0.960 . S
H2345 C2331 0.961 . S
H2346 C2331 0.961 . S
H2347 C2331 0.961 . S
H2348 C2332 0.931 . S
H2349 C2337 0.930 . S
H2350 C2338 0.956 . S
H2351 C2338 0.961 . S
H2352 C2338 0.961 . S
H2353 C2339 0.958 . S
H2354 C2339 0.961 . S
H2355 C2339 0.960 . S
C2356 C2357 1.391 . S
C2356 C2358 1.394 . S
C2356 H2372 0.931 . S
C2357 C2356 1.391 . S
C2357 C2361 1.376 . S
C2358 C2356 1.394 . S
C2358 C2359 1.369 . S
C2358 C2362 1.531 . S
C2359 C2358 1.369 . S
C2359 C2360 1.410 . S
C2359 C2367 1.503 . S
C2360 C2359 1.410 . S
C2360 C2361 1.392 . S
C2360 C2363 1.511 . S
C2361 C2357 1.376 . S
C2361 C2360 1.392 . S
C2361 H2373 0.929 . S
C2362 C2358 1.531 . S
C2362 H2374 0.960 . S
C2362 H2375 0.962 . S
C2362 H2376 0.960 . S
C2363 C2360 1.511 . S
C2363 H2377 0.961 . S
C2363 H2378 0.961 . S
C2363 H2379 0.961 . S
C2364 C2365 1.370 . S
C2364 C2366 1.363 . S
C2364 H2380 0.931 . S
C2365 C2364 1.370 . S
C2365 C2369 1.408 . S
C2366 C2364 1.363 . S
C2366 C2367 1.370 . S
C2366 C2370 1.524 . S
C2367 C2359 1.503 . S
C2367 C2366 1.370 . S
C2367 C2368 1.403 . S
C2368 C2367 1.403 . S
C2368 C2369 1.404 . S
C2368 C2371 1.539 . S
C2369 C2365 1.408 . S
C2369 C2368 1.404 . S
C2369 H2381 0.930 . S
C2370 C2366 1.524 . S
C2370 H2382 0.956 . S
C2370 H2383 0.961 . S
C2370 H2384 0.961 . S
C2371 C2368 1.539 . S
C2371 H2385 0.958 . S
C2371 H2386 0.961 . S
C2371 H2387 0.960 . S
H2372 C2356 0.931 . S
H2373 C2361 0.929 . S
H2374 C2362 0.960 . S
H2375 C2362 0.962 . S
H2376 C2362 0.960 . S
H2377 C2363 0.961 . S
H2378 C2363 0.961 . S
H2379 C2363 0.961 . S
H2380 C2364 0.931 . S
H2381 C2369 0.930 . S
H2382 C2370 0.956 . S
H2383 C2370 0.961 . S
H2384 C2370 0.961 . S
H2385 C2371 0.958 . S
H2386 C2371 0.961 . S
H2387 C2371 0.960 . S
C2388 C2389 1.391 . S
C2388 C2390 1.394 . S
C2388 H2404 0.931 . S
C2389 C2388 1.391 . S
C2389 C2393 1.376 . S
C2390 C2388 1.394 . S
C2390 C2391 1.369 . S
C2390 C2394 1.531 . S
C2391 C2390 1.369 . S
C2391 C2392 1.410 . S
C2391 C2399 1.503 . S
C2392 C2391 1.410 . S
C2392 C2393 1.392 . S
C2392 C2395 1.511 . S
C2393 C2389 1.376 . S
C2393 C2392 1.392 . S
C2393 H2405 0.929 . S
C2394 C2390 1.531 . S
C2394 H2406 0.960 . S
C2394 H2407 0.962 . S
C2394 H2408 0.960 . S
C2395 C2392 1.511 . S
C2395 H2409 0.961 . S
C2395 H2410 0.961 . S
C2395 H2411 0.961 . S
C2396 C2397 1.370 . S
C2396 C2398 1.363 . S
C2396 H2412 0.931 1_556 S
C2397 C2396 1.370 . S
C2397 C2401 1.408 . S
C2398 C2396 1.363 . S
C2398 C2399 1.370 . S
C2398 C2402 1.524 . S
C2399 C2391 1.503 . S
C2399 C2398 1.370 . S
C2399 C2400 1.403 . S
C2400 C2399 1.403 . S
C2400 C2401 1.404 . S
C2400 C2403 1.539 . S
C2401 C2397 1.408 . S
C2401 C2400 1.404 . S
C2401 H2413 0.930 . S
C2402 C2398 1.524 . S
C2402 H2414 0.956 . S
C2402 H2415 0.961 . S
C2402 H2416 0.961 . S
C2403 C2400 1.539 . S
C2403 H2417 0.958 . S
C2403 H2418 0.961 . S
C2403 H2419 0.960 . S
H2404 C2388 0.931 . S
H2405 C2393 0.929 . S
H2406 C2394 0.960 . S
H2407 C2394 0.962 . S
H2408 C2394 0.960 . S
H2409 C2395 0.961 . S
H2410 C2395 0.961 . S
H2411 C2395 0.961 . S
H2412 C2396 0.931 1_554 S
H2413 C2401 0.930 . S
H2414 C2402 0.956 . S
H2415 C2402 0.961 . S
H2416 C2402 0.961 . S
H2417 C2403 0.958 . S
H2418 C2403 0.961 . S
H2419 C2403 0.960 . S
C2420 C2421 1.391 . S
C2420 C2422 1.394 . S
C2420 H2436 0.931 1_556 S
C2421 C2420 1.391 . S
C2421 C2425 1.376 . S
C2422 C2420 1.394 . S
C2422 C2423 1.369 . S
C2422 C2426 1.531 . S
C2423 C2422 1.369 . S
C2423 C2424 1.410 . S
C2423 C2431 1.503 . S
C2424 C2423 1.410 . S
C2424 C2425 1.392 . S
C2424 C2427 1.511 . S
C2425 C2421 1.376 . S
C2425 C2424 1.392 . S
C2425 H2437 0.929 . S
C2426 C2422 1.531 . S
C2426 H2438 0.960 . S
C2426 H2439 0.962 . S
C2426 H2440 0.960 . S
C2427 C2424 1.511 . S
C2427 H2441 0.961 . S
C2427 H2442 0.961 . S
C2427 H2443 0.961 . S
C2428 C2429 1.370 . S
C2428 C2430 1.363 . S
C2428 H2444 0.931 . S
C2429 C2428 1.370 . S
C2429 C2433 1.408 . S
C2430 C2428 1.363 . S
C2430 C2431 1.370 . S
C2430 C2434 1.524 . S
C2431 C2423 1.503 . S
C2431 C2430 1.370 . S
C2431 C2432 1.403 . S
C2432 C2431 1.403 . S
C2432 C2433 1.404 . S
C2432 C2435 1.539 . S
C2433 C2429 1.408 . S
C2433 C2432 1.404 . S
C2433 H2445 0.930 . S
C2434 C2430 1.524 . S
C2434 H2446 0.956 . S
C2434 H2447 0.961 . S
C2434 H2448 0.961 . S
C2435 C2432 1.539 . S
C2435 H2449 0.958 . S
C2435 H2450 0.961 . S
C2435 H2451 0.960 . S
H2436 C2420 0.931 1_554 S
H2437 C2425 0.929 . S
H2438 C2426 0.960 . S
H2439 C2426 0.962 . S
H2440 C2426 0.960 . S
H2441 C2427 0.961 . S
H2442 C2427 0.961 . S
H2443 C2427 0.961 . S
H2444 C2428 0.931 . S
H2445 C2433 0.930 . S
H2446 C2434 0.956 . S
H2447 C2434 0.961 . S
H2448 C2434 0.961 . S
H2449 C2435 0.958 . S
H2450 C2435 0.961 . S
H2451 C2435 0.960 . S
C2452 C2453 1.391 . S
C2452 C2454 1.394 . S
C2452 H2468 0.931 . S
C2453 C2452 1.391 . S
C2453 C2457 1.376 . S
C2454 C2452 1.394 . S
C2454 C2455 1.369 . S
C2454 C2458 1.531 . S
C2455 C2454 1.369 . S
C2455 C2456 1.410 . S
C2455 C2463 1.503 . S
C2456 C2455 1.410 . S
C2456 C2457 1.392 . S
C2456 C2459 1.511 . S
C2457 C2453 1.376 . S
C2457 C2456 1.392 . S
C2457 H2469 0.929 . S
C2458 C2454 1.531 . S
C2458 H2470 0.960 . S
C2458 H2471 0.962 . S
C2458 H2472 0.960 . S
C2459 C2456 1.511 . S
C2459 H2473 0.961 . S
C2459 H2474 0.961 . S
C2459 H2475 0.961 . S
C2460 C2461 1.370 . S
C2460 C2462 1.363 . S
C2460 H2476 0.931 . S
C2461 C2460 1.370 . S
C2461 C2465 1.408 . S
C2462 C2460 1.363 . S
C2462 C2463 1.370 . S
C2462 C2466 1.524 . S
C2463 C2455 1.503 . S
C2463 C2462 1.370 . S
C2463 C2464 1.403 . S
C2464 C2463 1.403 . S
C2464 C2465 1.404 . S
C2464 C2467 1.539 . S
C2465 C2461 1.408 . S
C2465 C2464 1.404 . S
C2465 H2477 0.930 . S
C2466 C2462 1.524 . S
C2466 H2478 0.956 . S
C2466 H2479 0.961 . S
C2466 H2480 0.961 . S
C2467 C2464 1.539 . S
C2467 H2481 0.958 . S
C2467 H2482 0.961 . S
C2467 H2483 0.960 . S
H2468 C2452 0.931 . S
H2469 C2457 0.929 . S
H2470 C2458 0.960 . S
H2471 C2458 0.962 . S
H2472 C2458 0.960 . S
H2473 C2459 0.961 . S
H2474 C2459 0.961 . S
H2475 C2459 0.961 . S
H2476 C2460 0.931 . S
H2477 C2465 0.930 . S
H2478 C2466 0.956 . S
H2479 C2466 0.961 . S
H2480 C2466 0.961 . S
H2481 C2467 0.958 . S
H2482 C2467 0.961 . S
H2483 C2467 0.960 . S
C2484 C2485 1.391 . S
C2484 C2486 1.394 . S
C2484 H2500 0.931 . S
C2485 C2484 1.391 . S
C2485 C2489 1.376 . S
C2486 C2484 1.394 . S
C2486 C2487 1.369 . S
C2486 C2490 1.531 . S
C2487 C2486 1.369 . S
C2487 C2488 1.410 . S
C2487 C2495 1.503 . S
C2488 C2487 1.410 . S
C2488 C2489 1.392 . S
C2488 C2491 1.511 . S
C2489 C2485 1.376 . S
C2489 C2488 1.392 . S
C2489 H2501 0.929 . S
C2490 C2486 1.531 . S
C2490 H2502 0.960 . S
C2490 H2503 0.962 . S
C2490 H2504 0.960 . S
C2491 C2488 1.511 . S
C2491 H2505 0.961 . S
C2491 H2506 0.961 . S
C2491 H2507 0.961 . S
C2492 C2493 1.370 . S
C2492 C2494 1.363 . S
C2492 H2508 0.931 . S
C2493 C2492 1.370 . S
C2493 C2497 1.408 . S
C2494 C2492 1.363 . S
C2494 C2495 1.370 . S
C2494 C2498 1.524 . S
C2495 C2487 1.503 . S
C2495 C2494 1.370 . S
C2495 C2496 1.403 . S
C2496 C2495 1.403 . S
C2496 C2497 1.404 . S
C2496 C2499 1.539 . S
C2497 C2493 1.408 . S
C2497 C2496 1.404 . S
C2497 H2509 0.930 . S
C2498 C2494 1.524 . S
C2498 H2510 0.956 . S
C2498 H2511 0.961 . S
C2498 H2512 0.961 . S
C2499 C2496 1.539 . S
C2499 H2513 0.958 . S
C2499 H2514 0.961 . S
C2499 H2515 0.960 . S
H2500 C2484 0.931 . S
H2501 C2489 0.929 . S
H2502 C2490 0.960 . S
H2503 C2490 0.962 . S
H2504 C2490 0.960 . S
H2505 C2491 0.961 . S
H2506 C2491 0.961 . S
H2507 C2491 0.961 . S
H2508 C2492 0.931 . S
H2509 C2497 0.930 . S
H2510 C2498 0.956 . S
H2511 C2498 0.961 . S
H2512 C2498 0.961 . S
H2513 C2499 0.958 . S
H2514 C2499 0.961 . S
H2515 C2499 0.960 . S
C2516 C2517 1.391 . S
C2516 C2518 1.394 . S
C2516 H2532 0.931 . S
C2517 C2516 1.391 . S
C2517 C2521 1.376 . S
C2518 C2516 1.394 . S
C2518 C2519 1.369 . S
C2518 C2522 1.531 . S
C2519 C2518 1.369 . S
C2519 C2520 1.410 . S
C2519 C2527 1.503 . S
C2520 C2519 1.410 . S
C2520 C2521 1.392 . S
C2520 C2523 1.511 . S
C2521 C2517 1.376 . S
C2521 C2520 1.392 . S
C2521 H2533 0.929 . S
C2522 C2518 1.531 . S
C2522 H2534 0.960 . S
C2522 H2535 0.962 . S
C2522 H2536 0.960 . S
C2523 C2520 1.511 . S
C2523 H2537 0.961 . S
C2523 H2538 0.961 . S
C2523 H2539 0.961 . S
C2524 C2525 1.370 . S
C2524 C2526 1.363 . S
C2524 H2540 0.931 . S
C2525 C2524 1.370 . S
C2525 C2529 1.408 . S
C2526 C2524 1.363 . S
C2526 C2527 1.370 . S
C2526 C2530 1.524 . S
C2527 C2519 1.503 . S
C2527 C2526 1.370 . S
C2527 C2528 1.403 . S
C2528 C2527 1.403 . S
C2528 C2529 1.404 . S
C2528 C2531 1.539 . S
C2529 C2525 1.408 . S
C2529 C2528 1.404 . S
C2529 H2541 0.930 . S
C2530 C2526 1.524 . S
C2530 H2542 0.956 . S
C2530 H2543 0.961 . S
C2530 H2544 0.961 . S
C2531 C2528 1.539 . S
C2531 H2545 0.958 . S
C2531 H2546 0.961 . S
C2531 H2547 0.960 . S
H2532 C2516 0.931 . S
H2533 C2521 0.929 . S
H2534 C2522 0.960 . S
H2535 C2522 0.962 . S
H2536 C2522 0.960 . S
H2537 C2523 0.961 . S
H2538 C2523 0.961 . S
H2539 C2523 0.961 . S
H2540 C2524 0.931 . S
H2541 C2529 0.930 . S
H2542 C2530 0.956 . S
H2543 C2530 0.961 . S
H2544 C2530 0.961 . S
H2545 C2531 0.958 . S
H2546 C2531 0.961 . S
H2547 C2531 0.960 . S
C2548 C2549 1.391 . S
C2548 C2550 1.394 . S
C2548 H2564 0.931 . S
C2549 C2548 1.391 . S
C2549 C2553 1.376 . S
C2550 C2548 1.394 . S
C2550 C2551 1.369 . S
C2550 C2554 1.531 . S
C2551 C2550 1.369 . S
C2551 C2552 1.410 . S
C2551 C2559 1.503 . S
C2552 C2551 1.410 . S
C2552 C2553 1.392 . S
C2552 C2555 1.511 . S
C2553 C2549 1.376 . S
C2553 C2552 1.392 . S
C2553 H2565 0.929 . S
C2554 C2550 1.531 . S
C2554 H2566 0.960 . S
C2554 H2567 0.962 . S
C2554 H2568 0.960 . S
C2555 C2552 1.511 . S
C2555 H2569 0.961 . S
C2555 H2570 0.961 . S
C2555 H2571 0.961 . S
C2556 C2557 1.370 . S
C2556 C2558 1.363 . S
C2556 H2572 0.931 . S
C2557 C2556 1.370 . S
C2557 C2561 1.408 . S
C2558 C2556 1.363 . S
C2558 C2559 1.370 . S
C2558 C2562 1.524 . S
C2559 C2551 1.503 . S
C2559 C2558 1.370 . S
C2559 C2560 1.403 . S
C2560 C2559 1.403 . S
C2560 C2561 1.404 . S
C2560 C2563 1.539 . S
C2561 C2557 1.408 . S
C2561 C2560 1.404 . S
C2561 H2573 0.930 . S
C2562 C2558 1.524 . S
C2562 H2574 0.956 . S
C2562 H2575 0.961 . S
C2562 H2576 0.961 . S
C2563 C2560 1.539 . S
C2563 H2577 0.958 . S
C2563 H2578 0.961 . S
C2563 H2579 0.960 . S
H2564 C2548 0.931 . S
H2565 C2553 0.929 . S
H2566 C2554 0.960 . S
H2567 C2554 0.962 . S
H2568 C2554 0.960 . S
H2569 C2555 0.961 . S
H2570 C2555 0.961 . S
H2571 C2555 0.961 . S
H2572 C2556 0.931 . S
H2573 C2561 0.930 . S
H2574 C2562 0.956 . S
H2575 C2562 0.961 . S
H2576 C2562 0.961 . S
H2577 C2563 0.958 . S
H2578 C2563 0.961 . S
H2579 C2563 0.960 . S
C2580 C2581 1.391 . S
C2580 C2582 1.394 . S
C2580 H2596 0.931 . S
C2581 C2580 1.391 . S
C2581 C2585 1.376 . S
C2582 C2580 1.394 . S
C2582 C2583 1.369 . S
C2582 C2586 1.531 . S
C2583 C2582 1.369 . S
C2583 C2584 1.410 . S
C2583 C2591 1.503 . S
C2584 C2583 1.410 . S
C2584 C2585 1.392 . S
C2584 C2587 1.511 . S
C2585 C2581 1.376 . S
C2585 C2584 1.392 . S
C2585 H2597 0.929 . S
C2586 C2582 1.531 . S
C2586 H2598 0.960 . S
C2586 H2599 0.962 . S
C2586 H2600 0.960 . S
C2587 C2584 1.511 . S
C2587 H2601 0.961 . S
C2587 H2602 0.961 . S
C2587 H2603 0.961 . S
C2588 C2589 1.370 . S
C2588 C2590 1.363 . S
C2588 H2604 0.931 . S
C2589 C2588 1.370 . S
C2589 C2593 1.408 . S
C2590 C2588 1.363 . S
C2590 C2591 1.370 . S
C2590 C2594 1.524 . S
C2591 C2583 1.503 . S
C2591 C2590 1.370 . S
C2591 C2592 1.403 . S
C2592 C2591 1.403 . S
C2592 C2593 1.404 . S
C2592 C2595 1.539 . S
C2593 C2589 1.408 . S
C2593 C2592 1.404 . S
C2593 H2605 0.930 . S
C2594 C2590 1.524 . S
C2594 H2606 0.956 . S
C2594 H2607 0.961 . S
C2594 H2608 0.961 . S
C2595 C2592 1.539 . S
C2595 H2609 0.958 . S
C2595 H2610 0.961 . S
C2595 H2611 0.960 . S
H2596 C2580 0.931 . S
H2597 C2585 0.929 . S
H2598 C2586 0.960 . S
H2599 C2586 0.962 . S
H2600 C2586 0.960 . S
H2601 C2587 0.961 . S
H2602 C2587 0.961 . S
H2603 C2587 0.961 . S
H2604 C2588 0.931 . S
H2605 C2593 0.930 . S
H2606 C2594 0.956 . S
H2607 C2594 0.961 . S
H2608 C2594 0.961 . S
H2609 C2595 0.958 . S
H2610 C2595 0.961 . S
H2611 C2595 0.960 . S
C2612 C2613 1.391 . S
C2612 C2614 1.392 1_545 S
C2612 H2628 0.931 . S
C2613 C2612 1.391 . S
C2613 C2617 1.376 . S
C2614 C2612 1.392 1_565 S
C2614 C2615 1.369 1_565 S
C2614 C2618 1.532 . S
C2615 C2614 1.369 1_545 S
C2615 C2616 1.410 . S
C2615 C2623 1.503 1_545 S
C2616 C2615 1.410 . S
C2616 C2617 1.392 . S
C2616 C2619 1.511 . S
C2617 C2613 1.376 . S
C2617 C2616 1.392 . S
C2617 H2629 0.929 . S
C2618 C2614 1.532 . S
C2618 H2630 0.960 . S
C2618 H2631 0.962 . S
C2618 H2632 0.960 . S
C2619 C2616 1.511 . S
C2619 H2633 0.961 . S
C2619 H2634 0.961 . S
C2619 H2635 0.961 . S
C2620 C2621 1.370 . S
C2620 C2622 1.363 . S
C2620 H2636 0.931 . S
C2621 C2620 1.370 . S
C2621 C2625 1.408 . S
C2622 C2620 1.363 . S
C2622 C2623 1.370 . S
C2622 C2626 1.524 1_565 S
C2623 C2615 1.503 1_565 S
C2623 C2622 1.370 . S
C2623 C2624 1.403 . S
C2624 C2623 1.403 . S
C2624 C2625 1.404 . S
C2624 C2627 1.539 . S
C2625 C2621 1.408 . S
C2625 C2624 1.404 . S
C2625 H2637 0.930 . S
C2626 C2622 1.524 1_545 S
C2626 H2638 0.956 . S
C2626 H2639 0.961 . S
C2626 H2640 0.961 . S
C2627 C2624 1.539 . S
C2627 H2641 0.958 . S
C2627 H2642 0.961 . S
C2627 H2643 0.960 . S
H2628 C2612 0.931 . S
H2629 C2617 0.929 . S
H2630 C2618 0.960 . S
H2631 C2618 0.962 . S
H2632 C2618 0.960 . S
H2633 C2619 0.961 . S
H2634 C2619 0.961 . S
H2635 C2619 0.961 . S
H2636 C2620 0.931 . S
H2637 C2625 0.930 . S
H2638 C2626 0.956 . S
H2639 C2626 0.961 . S
H2640 C2626 0.961 . S
H2641 C2627 0.958 . S
H2642 C2627 0.961 . S
H2643 C2627 0.960 . S
C2644 C2645 1.391 . S
C2644 C2646 1.394 . S
C2644 H2660 0.931 . S
C2645 C2644 1.391 . S
C2645 C2649 1.376 . S
C2646 C2644 1.394 . S
C2646 C2647 1.369 . S
C2646 C2650 1.531 . S
C2647 C2646 1.369 . S
C2647 C2648 1.403 1_655 S
C2647 C2655 1.503 1_655 S
C2648 C2647 1.403 1_455 S
C2648 C2649 1.382 1_455 S
C2648 C2651 1.527 . S
C2649 C2645 1.376 . S
C2649 C2648 1.382 1_655 S
C2649 H2661 0.929 . S
C2650 C2646 1.531 . S
C2650 H2662 0.960 . S
C2650 H2663 0.962 . S
C2650 H2664 0.960 . S
C2651 C2648 1.527 . S
C2651 H2665 0.961 . S
C2651 H2666 0.961 . S
C2651 H2667 0.961 . S
C2652 C2653 1.370 . S
C2652 C2654 1.363 . S
C2652 H2668 0.931 . S
C2653 C2652 1.370 . S
C2653 C2657 1.408 . S
C2654 C2652 1.363 . S
C2654 C2655 1.370 . S
C2654 C2658 1.524 . S
C2655 C2647 1.503 1_455 S
C2655 C2654 1.370 . S
C2655 C2656 1.403 . S
C2656 C2655 1.403 . S
C2656 C2657 1.404 . S
C2656 C2659 1.539 . S
C2657 C2653 1.408 . S
C2657 C2656 1.404 . S
C2657 H2669 0.930 . S
C2658 C2654 1.524 . S
C2658 H2670 0.956 1_455 S
C2658 H2671 0.961 . S
C2658 H2672 0.961 . S
C2659 C2656 1.539 . S
C2659 H2673 0.958 1_455 S
C2659 H2674 0.961 . S
C2659 H2675 0.960 . S
H2660 C2644 0.931 . S
H2661 C2649 0.929 . S
H2662 C2650 0.960 . S
H2663 C2650 0.962 . S
H2664 C2650 0.960 . S
H2665 C2651 0.961 . S
H2666 C2651 0.961 . S
H2667 C2651 0.961 . S
H2668 C2652 0.931 . S
H2669 C2657 0.930 . S
H2670 C2658 0.956 1_655 S
H2671 C2658 0.961 . S
H2672 C2658 0.961 . S
H2673 C2659 0.958 1_655 S
H2674 C2659 0.961 . S
H2675 C2659 0.960 . S
C2676 C2677 1.391 . S
C2676 C2678 1.394 . S
C2676 H2692 0.931 . S
C2677 C2676 1.391 . S
C2677 C2681 1.376 . S
C2678 C2676 1.394 . S
C2678 C2679 1.369 . S
C2678 C2682 1.531 . S
C2679 C2678 1.369 . S
C2679 C2680 1.410 . S
C2679 C2687 1.503 . S
C2680 C2679 1.410 . S
C2680 C2681 1.392 . S
C2680 C2683 1.511 . S
C2681 C2677 1.376 . S
C2681 C2680 1.392 . S
C2681 H2693 0.929 . S
C2682 C2678 1.531 . S
C2682 H2694 0.960 . S
C2682 H2695 0.962 . S
C2682 H2696 0.960 . S
C2683 C2680 1.511 . S
C2683 H2697 0.961 . S
C2683 H2698 0.961 . S
C2683 H2699 0.961 . S
C2684 C2685 1.370 . S
C2684 C2686 1.363 . S
C2684 H2700 0.931 . S
C2685 C2684 1.370 . S
C2685 C2689 1.408 . S
C2686 C2684 1.363 . S
C2686 C2687 1.370 . S
C2686 C2690 1.524 . S
C2687 C2679 1.503 . S
C2687 C2686 1.370 . S
C2687 C2688 1.403 . S
C2688 C2687 1.403 . S
C2688 C2689 1.404 . S
C2688 C2691 1.539 . S
C2689 C2685 1.408 . S
C2689 C2688 1.404 . S
C2689 H2701 0.930 . S
C2690 C2686 1.524 . S
C2690 H2702 0.956 . S
C2690 H2703 0.961 . S
C2690 H2704 0.961 . S
C2691 C2688 1.539 . S
C2691 H2705 0.958 . S
C2691 H2706 0.961 . S
C2691 H2707 0.960 . S
H2692 C2676 0.931 . S
H2693 C2681 0.929 . S
H2694 C2682 0.960 . S
H2695 C2682 0.962 . S
H2696 C2682 0.960 . S
H2697 C2683 0.961 . S
H2698 C2683 0.961 . S
H2699 C2683 0.961 . S
H2700 C2684 0.931 . S
H2701 C2689 0.930 . S
H2702 C2690 0.956 . S
H2703 C2690 0.961 . S
H2704 C2690 0.961 . S
H2705 C2691 0.958 . S
H2706 C2691 0.961 . S
H2707 C2691 0.960 . S
C2708 C2709 1.391 . S
C2708 C2710 1.394 . S
C2708 H2724 0.931 . S
C2709 C2708 1.391 . S
C2709 C2713 1.376 . S
C2710 C2708 1.394 . S
C2710 C2711 1.369 . S
C2710 C2714 1.531 . S
C2711 C2710 1.369 . S
C2711 C2712 1.410 . S
C2711 C2719 1.503 1_545 S
C2712 C2711 1.410 . S
C2712 C2713 1.392 . S
C2712 C2715 1.511 1_545 S
C2713 C2709 1.376 . S
C2713 C2712 1.392 . S
C2713 H2725 0.929 . S
C2714 C2710 1.531 . S
C2714 H2726 0.960 . S
C2714 H2727 0.962 . S
C2714 H2728 0.960 . S
C2715 C2712 1.511 1_565 S
C2715 H2729 0.961 . S
C2715 H2730 0.961 . S
C2715 H2731 0.961 . S
C2716 C2717 1.370 . S
C2716 C2718 1.363 . S
C2716 H2732 0.931 . S
C2717 C2716 1.370 . S
C2717 C2721 1.408 . S
C2718 C2716 1.363 . S
C2718 C2719 1.370 . S
C2718 C2722 1.524 . S
C2719 C2711 1.503 1_565 S
C2719 C2718 1.370 . S
C2719 C2720 1.403 . S
C2720 C2719 1.403 . S
C2720 C2721 1.404 . S
C2720 C2723 1.539 1_565 S
C2721 C2717 1.408 . S
C2721 C2720 1.404 . S
C2721 H2733 0.930 . S
C2722 C2718 1.524 . S
C2722 H2734 0.956 . S
C2722 H2735 0.961 . S
C2722 H2736 0.961 . S
C2723 C2720 1.539 1_545 S
C2723 H2737 0.958 . S
C2723 H2738 0.961 . S
C2723 H2739 0.960 . S
H2724 C2708 0.931 . S
H2725 C2713 0.929 . S
H2726 C2714 0.960 . S
H2727 C2714 0.962 . S
H2728 C2714 0.960 . S
H2729 C2715 0.961 . S
H2730 C2715 0.961 . S
H2731 C2715 0.961 . S
H2732 C2716 0.931 . S
H2733 C2721 0.930 . S
H2734 C2722 0.956 . S
H2735 C2722 0.961 . S
H2736 C2722 0.961 . S
H2737 C2723 0.958 . S
H2738 C2723 0.961 . S
H2739 C2723 0.960 . S
C2740 C2741 1.391 . S
C2740 C2742 1.394 . S
C2740 H2756 0.931 . S
C2741 C2740 1.391 . S
C2741 C2745 1.376 . S
C2742 C2740 1.394 . S
C2742 C2743 1.369 . S
C2742 C2746 1.531 1_455 S
C2743 C2742 1.369 . S
C2743 C2744 1.410 . S
C2743 C2751 1.503 1_455 S
C2744 C2743 1.410 . S
C2744 C2745 1.392 . S
C2744 C2747 1.511 . S
C2745 C2741 1.376 . S
C2745 C2744 1.392 . S
C2745 H2757 0.929 . S
C2746 C2742 1.531 1_655 S
C2746 H2758 0.960 . S
C2746 H2759 0.962 . S
C2746 H2760 0.960 . S
C2747 C2744 1.511 . S
C2747 H2761 0.961 . S
C2747 H2762 0.961 . S
C2747 H2763 0.961 . S
C2748 C2749 1.370 . S
C2748 C2750 1.363 . S
C2748 H2764 0.931 . S
C2749 C2748 1.370 . S
C2749 C2753 1.408 . S
C2750 C2748 1.363 . S
C2750 C2751 1.370 . S
C2750 C2754 1.524 . S
C2751 C2743 1.503 1_655 S
C2751 C2750 1.370 . S
C2751 C2752 1.403 . S
C2752 C2751 1.403 . S
C2752 C2753 1.404 . S
C2752 C2755 1.539 1_655 S
C2753 C2749 1.408 . S
C2753 C2752 1.404 . S
C2753 H2765 0.930 . S
C2754 C2750 1.524 . S
C2754 H2766 0.956 . S
C2754 H2767 0.961 . S
C2754 H2768 0.961 . S
C2755 C2752 1.539 1_455 S
C2755 H2769 0.958 . S
C2755 H2770 0.961 . S
C2755 H2771 0.960 . S
H2756 C2740 0.931 . S
H2757 C2745 0.929 . S
H2758 C2746 0.960 . S
H2759 C2746 0.962 . S
H2760 C2746 0.960 . S
H2761 C2747 0.961 . S
H2762 C2747 0.961 . S
H2763 C2747 0.961 . S
H2764 C2748 0.931 . S
H2765 C2753 0.930 . S
H2766 C2754 0.956 . S
H2767 C2754 0.961 . S
H2768 C2754 0.961 . S
H2769 C2755 0.958 . S
H2770 C2755 0.961 . S
H2771 C2755 0.960 . S
C469 C70 1.103 . S
C477 C5 1.124 . S
C501 C44 1.101 . S
C509 C18 1.124 . S
C533 C29 1.101 . S
C541 C57 1.124 . S
C565 C83 1.105 . S
C573 C146 1.120 . S
C597 C94 1.116 . S
C605 C120 1.115 . S
C629 C135 1.101 . S
C637 C109 1.123 . S
C661 C159 1.129 . S
C669 C224 1.113 . S
C693 C172 1.107 . S
C701 C200 1.123 . S
C725 C213 1.110 . S
C733 C187 1.122 . S
C757 C304 1.131 . S
C765 C237 1.113 . S
C789 C278 1.116 . S
C797 C252 1.122 . S
C821 C263 1.102 . S
C829 C289 1.125 . S
C853 C382 1.112 . S
C861 C315 1.122 . S
C885 C356 1.131 . S
C893 C328 1.112 . S
C917 C341 1.131 . S
C925 C367 1.112 . S
C949 C460 1.131 . S
C957 C393 1.112 . S
C981 C434 1.102 . S
C989 C406 1.125 . S
C1013 C447 1.101 . S
C1021 C419 1.124 . S
C1045 C218 1.496 . S
C1053 C10 1.450 . S
C1077 C225 1.465 . S
C1085 C23 1.450 . S
C1109 C205 1.421 . S
C1117 C30 1.472 . S
C1141 C49 1.489 . S
C1149 C342 1.466 1_554 S
C1173 C62 1.470 . S
C1181 C316 1.449 1_554 S
C1205 C75 1.486 . S
C1213 C329 1.448 1_554 S
C1237 C88 1.421 . S
C1245 C452 1.478 . S
C1269 C465 1.494 . S
C1277 C95 1.457 . S
C1301 C439 1.421 . S
C1309 C114 1.479 . S
C1333 C264 1.454 1_556 S
C1341 C121 1.476 . S
C1365 C238 1.428 1_556 S
C1373 C140 1.469 . S
C1397 C147 1.500 . S
C1405 C257 1.451 1_556 S
C1429 C160 1.431 . S
C1437 C368 1.462 . S
C1461 C387 1.458 . S
C1469 C173 1.451 . S
C1493 C361 1.499 . S
C1501 C192 1.456 . S
C1525 C283 1.494 . S
C1533 C420 1.457 . S
C1557 C394 1.434 . S
C1565 C290 1.466 . S
C1589 C309 1.492 . S
C1597 C407 1.447 . S
C1621 C244 1.652 . S
C1629 C4 1.664 . S
C1653 C251 1.659 . S
C1661 C17 1.661 . S
C1685 C36 1.654 . S
C1693 C270 1.663 . S
C1717 C43 1.668 . S
C1725 C433 1.658 . S
C1749 C446 1.666 . S
C1757 C56 1.659 . S
C1781 C459 1.657 . S
C1789 C69 1.663 . S
C1813 C82 1.669 . S
C1821 C322 1.657 . S
C1845 C101 1.661 . S
C1853 C335 1.660 . S
C1877 C348 1.647 . S
C1885 C108 1.667 . S
C1909 C127 1.667 . S
C1917 C199 1.658 . S
C1941 C134 1.654 . S
C1949 C212 1.663 . S
C1973 C231 1.660 . S
C1981 C153 1.660 . S
C2005 C166 1.668 . S
C2013 C400 1.658 . S
C2037 C179 1.649 . S
C2045 C413 1.665 . S
C2069 C426 1.666 . S
C2077 C186 1.658 . S
C2101 C355 1.664 . S
C2109 C277 1.659 . S
C2133 C296 1.661 . S
C2141 C374 1.659 . S
C2165 C303 1.662 . S
C2173 C381 1.661 . S
C2197 C354 1.617 1_554 S
C2205 C3 1.609 . S
C2229 C16 1.606 . S
C2237 C369 1.606 1_554 S
C2261 C380 1.631 1_554 S
C2269 C31 1.621 . S
C2293 C42 1.586 . S
C2301 C161 1.606 . S
C2325 C174 1.588 . S
C2333 C55 1.604 . S
C2357 C185 1.617 . S
C2365 C68 1.622 . S
C2389 C81 1.604 . S
C2397 C276 1.608 1_556 S
C2421 C291 1.632 1_556 S
C2429 C96 1.622 . S
C2453 C107 1.589 . S
C2461 C302 1.604 1_556 S
C2485 C122 1.630 . S
C2493 C395 1.622 . S
C2517 C133 1.631 . S
C2525 C408 1.620 . S
C2549 C421 1.623 . S
C2557 C148 1.616 . S
C2581 C198 1.630 . S
C2589 C317 1.617 . S
C2613 C211 1.594 . S
C2621 C330 1.604 . S
C2645 C226 1.630 . S
C2653 C343 1.622 . S
C2677 C239 1.600 . S
C2685 C432 1.613 . S
C2709 C250 1.590 . S
C2717 C445 1.608 . S
C2741 C458 1.621 . S
C2749 C265 1.621 . S
