# Generated by pormake.
# Topology umf, (4)-cn, num edge types: 1
# Building blocks:
#     Node 0, Type 0, BuildingBlock: KOZSID_clean_sbu_0, # of connection points: 4
#     Node 1, Type 0, BuildingBlock: KOZSID_clean_sbu_0, # of connection points: 4
#     Node 2, Type 0, BuildingBlock: KOZSID_clean_sbu_0, # of connection points: 4
#     Node 3, Type 0, BuildingBlock: KOZSID_clean_sbu_0, # of connection points: 4
#     Node 4, Type 0, BuildingBlock: KOZSID_clean_sbu_0, # of connection points: 4
#     Node 5, Type 0, BuildingBlock: KOZSID_clean_sbu_0, # of connection points: 4
#     Node 6, Type 0, BuildingBlock: KOZSID_clean_sbu_0, # of connection points: 4
#     Node 7, Type 0, BuildingBlock: KOZSID_clean_sbu_0, # of connection points: 4
#     Edge 8, Type (0, 0), BuildingBlock: XUDNAN_clean_linker_2, # of connection points: 2
#     Edge 9, Type (0, 0), BuildingBlock: XUDNAN_clean_linker_2, # of connection points: 2
#     Edge 10, Type (0, 0), BuildingBlock: XUDNAN_clean_linker_2, # of connection points: 2
#     Edge 11, Type (0, 0), BuildingBlock: XUDNAN_clean_linker_2, # of connection points: 2
#     Edge 12, Type (0, 0), BuildingBlock: XUDNAN_clean_linker_2, # of connection points: 2
#     Edge 13, Type (0, 0), BuildingBlock: XUDNAN_clean_linker_2, # of connection points: 2
#     Edge 14, Type (0, 0), BuildingBlock: XUDNAN_clean_linker_2, # of connection points: 2
#     Edge 15, Type (0, 0), BuildingBlock: XUDNAN_clean_linker_2, # of connection points: 2
#     Edge 16, Type (0, 0), BuildingBlock: XUDNAN_clean_linker_2, # of connection points: 2
#     Edge 17, Type (0, 0), BuildingBlock: XUDNAN_clean_linker_2, # of connection points: 2
#     Edge 18, Type (0, 0), BuildingBlock: XUDNAN_clean_linker_2, # of connection points: 2
#     Edge 19, Type (0, 0), BuildingBlock: XUDNAN_clean_linker_2, # of connection points: 2
#     Edge 20, Type (0, 0), BuildingBlock: XUDNAN_clean_linker_2, # of connection points: 2
#     Edge 21, Type (0, 0), BuildingBlock: XUDNAN_clean_linker_2, # of connection points: 2
#     Edge 22, Type (0, 0), BuildingBlock: XUDNAN_clean_linker_2, # of connection points: 2
#     Edge 23, Type (0, 0), BuildingBlock: XUDNAN_clean_linker_2, # of connection points: 2
# Relax obj value: 0.077
# Max RMSD: 0.190
# Mean RMSD: 0.190
data_MOF--net-umf--node1-KOZSID_clean_sbu_0--edge1-XUDNAN_clean_linker_2
_symmetry_space_group_name_H-M    P1
_symmetry_Int_Tables_number       1
_symmetry_cell_setting            triclinic
loop_
_symmetry_equiv_pos_as_xyz
'x, y, z'
_cell_length_a     37.839202
_cell_length_b     37.953066
_cell_length_c     58.827487
_cell_angle_alpha  89.906818
_cell_angle_beta   89.983567
_cell_angle_gamma 89.836177
loop_
_atom_site_label
_atom_site_type_symbol
_atom_site_fract_x
_atom_site_fract_y
_atom_site_fract_z
_atom_type_partial_charge
C0 C 0.12999 0.24543 0.17298 0.0
C1 C 0.16669 0.24318 0.17195 0.0
C2 C 0.17696 0.25934 0.15227 0.0
C3 C 0.14625 0.26963 0.14187 0.0
N4 N 0.11716 0.261 0.15384 0.0
Co5 Co 0.06768 0.26512 0.14287 0.0
N6 N 0.08305 0.26753 0.1106 0.0
C7 C 0.11582 0.27561 0.10343 0.0
C8 C 0.1191 0.27579 0.08024 0.0
C9 C 0.08619 0.26778 0.07223 0.0
C10 C 0.06447 0.26315 0.0911 0.0
N11 N 0.01837 0.26985 0.13188 0.0
C12 C 1.00486 0.26711 0.11051 0.0
C13 C 0.96888 0.27428 0.11065 0.0
C14 C 0.95991 0.28219 0.13274 0.0
C15 C 0.99077 0.27946 0.14494 0.0
N16 N 0.05342 0.26131 0.17525 0.0
C17 C 0.02195 0.27125 0.1837 0.0
C18 C 0.01908 0.26418 0.20658 0.0
C19 C 0.05071 0.24879 0.21276 0.0
C20 C 0.07126 0.24709 0.19328 0.0
N21 N 0.0691 0.31771 0.14508 0.0
C22 C 0.05736 0.39165 0.14902 0.0
C23 C 0.07038 0.3717 0.16742 0.0
C24 C 0.07645 0.33494 0.16503 0.0
C25 C 0.05165 0.37385 0.12855 0.0
C26 C 0.05731 0.33739 0.12698 0.0
N27 N 0.06388 0.21347 0.14068 0.0
C28 C 0.02863 0.16151 0.14724 0.0
C29 C 0.05616 0.13983 0.13999 0.0
C30 C 0.08775 0.15565 0.13276 0.0
C31 C 0.09087 0.19266 0.13286 0.0
C32 C 0.03313 0.19792 0.14773 0.0
H33 H 0.11522 0.20439 0.12706 0.0
H34 H 1.01167 0.21337 0.15437 0.0
H35 H 0.08623 0.32037 0.17952 0.0
H36 H 0.05068 0.32513 0.1111 0.0
C37 C 0.14375 0.27752 0.11878 0.0
C38 C 0.10835 0.23405 0.19269 0.0
C39 C 0.02576 0.26031 0.08966 0.0
C40 C 0.99418 0.28048 0.16882 0.0
H41 H 0.18453 0.23026 0.18363 0.0
H42 H 0.20348 0.26042 0.1454 0.0
H43 H 0.14274 0.28042 0.07033 0.0
H44 H 0.07893 0.26667 0.05446 0.0
H45 H 0.95108 0.27412 0.09625 0.0
H46 H 0.9338 0.28826 0.13918 0.0
H47 H 0.99616 0.26812 0.21729 0.0
H48 H 0.05778 0.2397 0.22961 0.0
H49 H 0.07607 0.3844 0.18346 0.0
H50 H 0.04212 0.38804 0.11377 0.0
H51 H 1.00413 0.15026 0.1534 0.0
H52 H 0.10986 0.13958 0.12729 0.0
C53 C 0.78295 0.11635 0.68202 0.0
C54 C 0.77757 0.15198 0.68596 0.0
C55 C 0.75891 0.16471 0.66765 0.0
C56 C 0.75383 0.13617 0.65367 0.0
N57 N 0.76796 0.10643 0.66217 0.0
Co58 Co 0.76657 0.05947 0.64785 0.0
N59 N 0.75925 0.08027 0.61733 0.0
C60 C 0.74711 0.11303 0.61312 0.0
C61 C 0.74463 0.1203 0.59032 0.0
C62 C 0.75554 0.09012 0.57956 0.0
C63 C 0.76387 0.06589 0.59649 0.0
N64 N 0.76499 0.01253 0.63349 0.0
C65 C 0.76885 1.00347 0.61128 0.0
C66 C 0.76525 0.96736 0.60867 0.0
C67 C 0.75883 0.9537 0.63002 0.0
C68 C 0.75874 0.98213 0.64452 0.0
N69 N 0.7743 0.03989 0.67874 0.0
C70 C 0.76736 1.00665 0.68519 0.0
C71 C 0.77903 1.00003 0.70697 0.0
C72 C 0.7942 0.03099 0.71443 0.0
C73 C 0.79094 0.05505 0.69682 0.0
N74 N 0.7143 0.05686 0.65216 0.0
C75 C 0.6408 0.04259 0.65896 0.0
C76 C 0.66278 0.05484 0.67673 0.0
C77 C 0.69894 0.06216 0.67295 0.0
C78 C 0.65697 0.03896 0.63754 0.0
C79 C 0.69323 0.04582 0.63459 0.0
N80 N 0.81831 0.05979 0.64343 0.0
C81 C 0.8733 0.02785 0.6472 0.0
C82 C 0.89171 0.05443 0.63598 0.0
C83 C 0.87266 0.08423 0.62859 0.0
C84 C 0.83594 0.08667 0.63283 0.0
C85 C 0.83698 0.03073 0.65039 0.0
H86 H 0.82171 0.10982 0.62722 0.0
H87 H 0.82402 1.0087 0.65819 0.0
H88 H 0.71475 0.07106 0.6871 0.0
H89 H 0.70431 0.04114 0.618 0.0
C90 C 0.74368 0.13764 0.63077 0.0
C91 C 0.8021 0.09253 0.69744 0.0
C92 C 0.77313 0.0288 0.59235 0.0
C93 C 0.7591 0.98108 0.66857 0.0
H94 H 0.78676 0.16717 0.70034 0.0
H95 H 0.75189 0.1919 0.66432 0.0
H96 H 0.73697 0.14494 0.58242 0.0
H97 H 0.7568 0.08644 0.56135 0.0
H98 H 0.76682 0.95257 0.59298 0.0
H99 H 0.75584 0.92619 0.63448 0.0
H100 H 0.77894 0.975 0.71581 0.0
H101 H 0.80671 0.03497 0.73073 0.0
H102 H 0.65268 0.05797 0.6938 0.0
H103 H 0.64195 0.03067 0.62287 0.0
H104 H 0.88676 1.00414 0.65282 0.0
H105 H 0.88598 0.10537 0.61969 0.0
C106 C 0.89944 0.78885 0.17977 0.0
C107 C 0.86302 0.79417 0.17989 0.0
C108 C 0.85027 0.7812 0.15988 0.0
C109 C 0.87932 0.76962 0.14817 0.0
N110 N 0.90972 0.77422 0.15969 0.0
Co111 Co 0.95803 0.76647 0.14718 0.0
N112 N 0.94082 0.76921 0.11525 0.0
C113 C 0.90691 0.76602 0.10868 0.0
C114 C 0.90234 0.76875 0.08566 0.0
C115 C 0.93555 0.77339 0.07703 0.0
C116 C 0.95875 0.77315 0.0954 0.0
N117 N 1.00602 0.75778 0.13475 0.0
C118 C 0.01844 0.75993 0.11306 0.0
C119 C 0.0533 0.74855 0.11207 0.0
C120 C 0.06259 0.73838 0.13372 0.0
C121 C 0.03305 0.74409 0.14681 0.0
N122 N 0.97429 0.76578 0.17924 0.0
C123 C 1.00508 0.75217 0.18656 0.0
C124 C 1.01 0.75733 0.20949 0.0
C125 C 0.98054 0.77545 0.21688 0.0
C126 C 0.95915 0.7806 0.19803 0.0
N127 N 0.95204 0.71389 0.14743 0.0
C128 C 0.97192 0.64129 0.14865 0.0
C129 C 0.95993 0.65878 0.16833 0.0
C130 C 0.94968 0.69485 0.1673 0.0
C131 C 0.96933 0.66 0.12815 0.0
C132 C 0.95951 0.69563 0.12788 0.0
N133 N 0.96701 0.81767 0.14692 0.0
C134 C 1.00865 0.86388 0.15499 0.0
C135 C 0.98416 0.88998 0.14909 0.0
C136 C 0.95083 0.87889 0.14118 0.0
C137 C 0.94278 0.84248 0.14019 0.0
C138 C 0.99957 0.82854 0.15407 0.0
H139 H 0.91701 0.83443 0.13429 0.0
H140 H 0.01927 0.81002 0.15953 0.0
H141 H 0.9424 0.70783 0.18294 0.0
H142 H 0.96138 0.70871 0.11176 0.0
C143 C 0.87984 0.76485 0.1247 0.0
C144 C 0.92365 0.79758 0.19875 0.0
C145 C 0.99735 0.77005 0.09284 0.0
C146 C 0.03087 0.74138 0.17071 0.0
H147 H 0.8469 0.80762 0.19225 0.0
H148 H 0.82342 0.7834 0.15366 0.0
H149 H 0.87778 0.76786 0.07625 0.0
H150 H 0.94191 0.77517 0.05914 0.0
H151 H 0.07009 0.74727 0.0972 0.0
H152 H 0.08807 0.72865 0.13929 0.0
H153 H 0.03302 0.75037 0.21947 0.0
H154 H 0.97543 0.78405 0.23411 0.0
H155 H 0.96062 0.64551 0.18463 0.0
H156 H 0.97701 0.64774 0.11227 0.0
H157 H 0.0351 0.87059 0.1605 0.0
H158 H 0.93098 0.89805 0.13628 0.0
C159 C 0.24066 0.89589 0.68134 0.0
C160 C 0.24108 0.85973 0.68477 0.0
C161 C 0.25549 0.84516 0.66556 0.0
C162 C 0.26334 0.87319 0.65164 0.0
N163 N 0.25515 0.90441 0.66102 0.0
Co164 Co 0.26332 0.9513 0.64713 0.0
N165 N 0.2662 0.93115 0.61603 0.0
C166 C 0.26676 0.89651 0.61102 0.0
C167 C 0.25698 0.88985 0.58903 0.0
C168 C 0.25094 0.92225 0.57955 0.0
C169 C 0.25968 0.94727 0.59583 0.0
N170 N 0.27283 0.99801 0.63337 0.0
C171 C 0.27675 1.00745 0.6111 0.0
C172 C 0.29355 0.04002 0.60979 0.0
C173 C 0.29859 0.05165 0.63163 0.0
C174 C 0.28582 0.02538 0.64529 0.0
N175 N 0.25845 0.97057 0.67843 0.0
C176 C 0.27013 1.00212 0.6853 0.0
C177 C 0.25995 1.00965 0.70724 0.0
C178 C 0.24068 0.98091 0.71447 0.0
C179 C 0.24026 0.95725 0.69656 0.0
N180 N 0.31553 0.94606 0.65116 0.0
C181 C 0.38848 0.96064 0.65848 0.0
C182 C 0.36614 0.94989 0.67637 0.0
C183 C 0.33015 0.94221 0.67233 0.0
C184 C 0.37388 0.96059 0.63655 0.0
C185 C 0.33776 0.95325 0.63328 0.0
N186 N 0.21204 0.95884 0.64309 0.0
C187 C 0.16232 0.99866 0.64625 0.0
C188 C 0.13988 0.97407 0.6362 0.0
C189 C 0.15417 0.94129 0.62989 0.0
C190 C 0.19022 0.93397 0.63384 0.0
C191 C 0.19809 0.99079 0.64923 0.0
H192 H 0.20048 0.90846 0.62915 0.0
H193 H 0.21457 1.01103 0.65632 0.0
H194 H 0.31375 0.93517 0.68665 0.0
H195 H 0.32755 0.95592 0.61628 0.0
C196 C 0.26824 0.87101 0.62819 0.0
C197 C 0.22512 0.92127 0.69731 0.0
C198 C 0.26733 0.98502 0.59106 0.0
C199 C 0.28413 0.02583 0.66926 0.0
H200 H 0.23075 0.84541 0.69924 0.0
H201 H 0.25724 0.8174 0.66151 0.0
H202 H 0.2522 0.86446 0.58128 0.0
H203 H 0.24098 0.92655 0.56256 0.0
H204 H 0.30281 0.05369 0.59483 0.0
H205 H 0.3108 0.07608 0.63686 0.0
H206 H 0.26439 0.03385 0.7165 0.0
H207 H 0.2284 0.97795 0.73095 0.0
H208 H 0.3761 0.94837 0.6936 0.0
H209 H 0.38966 0.9684 0.62205 0.0
H210 H 0.1525 0.02439 0.65116 0.0
H211 H 0.13762 0.92149 0.62207 0.0
C212 C 0.11331 0.77876 0.8302 0.0
C213 C 0.14845 0.77383 0.8241 0.0
C214 C 0.16482 0.75812 0.8423 0.0
C215 C 0.13883 0.75388 0.85835 0.0
N216 N 0.10714 0.76568 0.85131 0.0
Co217 Co 0.06258 0.76283 0.86885 0.0
N218 N 0.08842 0.7595 0.89818 0.0
C219 C 0.12273 0.75064 0.90049 0.0
C220 C 0.13377 0.75035 0.92269 0.0
C221 C 0.10447 0.75903 0.93518 0.0
C222 C 0.07691 0.76395 0.91985 0.0
N223 N 0.01803 0.75936 0.88648 0.0
C224 C 1.0121 0.76183 0.90925 0.0
C225 C 0.97683 0.75533 0.91413 0.0
C226 C 0.96044 0.74823 0.89379 0.0
C227 C 0.98649 0.75067 0.87758 0.0
N228 N 0.03786 0.76729 0.83921 0.0
C229 C 1.00382 0.75902 0.83547 0.0
C230 C 0.99255 0.76982 0.81438 0.0
C231 C 0.02127 0.78572 0.80436 0.0
C232 C 0.04913 0.78322 0.81966 0.0
N233 N 0.06217 0.71036 0.86625 0.0
C234 C 0.04205 0.63834 0.8632 0.0
C235 C 0.05213 0.65752 0.84373 0.0
C236 C 0.06224 0.6934 0.84564 0.0
C237 C 0.04552 0.65534 0.88421 0.0
C238 C 0.05551 0.69078 0.88538 0.0
N239 N 0.06062 0.81451 0.87167 0.0
C240 C 0.0247 0.86707 0.86984 0.0
C241 C 0.05308 0.88806 0.87657 0.0
C242 C 0.08572 0.87126 0.88077 0.0
C243 C 0.089 0.83443 0.87807 0.0
C244 C 0.02895 0.83084 0.86758 0.0
H245 H 0.11421 0.82201 0.88134 0.0
H246 H 1.00604 0.81604 0.86275 0.0
H247 H 0.06814 0.7079 0.83028 0.0
H248 H 0.05532 0.70275 0.90192 0.0
C249 C 0.14449 0.7467 0.88139 0.0
C250 C 0.0863 0.79475 0.81534 0.0
C251 C 0.0396 0.76709 0.92677 0.0
C252 C 0.98167 0.75014 0.85385 0.0
H253 H 0.16109 0.78114 0.80828 0.0
H254 H 0.19272 0.75236 0.84404 0.0
H255 H 0.16008 0.74493 0.92904 0.0
H256 H 0.10326 0.76032 0.95354 0.0
H257 H 0.96438 0.75527 0.9307 0.0
H258 H 0.9327 0.74278 0.89112 0.0
H259 H 0.96588 0.76898 0.80777 0.0
H260 H 0.02079 0.79875 0.78805 0.0
H261 H 0.05023 0.64562 0.82707 0.0
H262 H 0.03883 0.64174 0.89983 0.0
H263 H 0.99878 0.87837 0.8669 0.0
H264 H 0.10851 0.8864 0.88599 0.0
C265 C 0.23248 0.12594 0.33545 0.0
C266 C 0.22262 0.16126 0.33435 0.0
C267 C 0.22896 0.17542 0.35519 0.0
C268 C 0.24154 0.14812 0.36811 0.0
N269 N 0.24412 0.11744 0.35661 0.0
Co270 Co 0.2576 0.07085 0.36993 0.0
N271 N 0.24988 0.08812 0.40141 0.0
C272 C 0.24031 0.12092 0.40751 0.0
C273 C 0.22499 0.12245 0.42859 0.0
C274 C 0.22587 0.08862 0.43653 0.0
C275 C 0.24347 0.06867 0.42024 0.0
N276 N 0.27288 0.02503 0.38377 0.0
C277 C 0.27636 0.01537 0.40612 0.0
C278 C 0.29572 0.98437 0.40793 0.0
C279 C 0.30438 0.97429 0.38621 0.0
C280 C 0.29041 0.99977 0.37226 0.0
N281 N 0.26217 0.05364 0.33805 0.0
C282 C 0.27879 0.02388 0.33177 0.0
C283 C 0.27712 0.01815 0.30872 0.0
C284 C 0.25814 0.04608 0.29998 0.0
C285 C 0.24921 0.06743 0.3182 0.0
N286 N 0.30894 0.08408 0.37044 0.0
C287 C 0.38392 0.07507 0.37038 0.0
C288 C 0.36513 0.08137 0.35016 0.0
C289 C 0.32806 0.08683 0.35063 0.0
C290 C 0.36451 0.07671 0.39071 0.0
C291 C 0.32754 0.0812 0.3904 0.0
N292 N 0.20779 0.05504 0.36926 0.0
C293 C 0.16702 1.00709 0.36333 0.0
C294 C 0.13771 0.02901 0.3671 0.0
C295 C 0.14458 0.06451 0.37246 0.0
C296 C 0.17969 0.07691 0.37356 0.0
C297 C 0.20124 0.02055 0.36411 0.0
H298 H 0.18392 0.10421 0.37769 0.0
H299 H 0.22242 1.00263 0.36034 0.0
H300 H 0.31483 0.09139 0.33465 0.0
H301 H 0.31408 0.0799 0.40647 0.0
C302 C 0.23977 0.14806 0.39169 0.0
C303 C 0.23071 0.10181 0.31588 0.0
C304 C 0.26334 0.03631 0.42576 0.0
C305 C 0.29239 1.00077 0.34835 0.0
H306 H 0.21061 0.17528 0.32031 0.0
H307 H 0.2217 0.20159 0.36085 0.0
H308 H 0.21359 0.14521 0.43693 0.0
H309 H 0.21748 0.0802 0.45328 0.0
H310 H 0.30384 0.97081 0.4232 0.0
H311 H 0.31966 0.95141 0.38125 0.0
H312 H 0.28769 0.99593 0.29939 0.0
H313 H 0.25181 0.05043 0.28226 0.0
H314 H 0.37892 0.08193 0.33404 0.0
H315 H 0.37762 0.0729 0.4069 0.0
H316 H 0.16391 0.97929 0.35984 0.0
H317 H 0.12311 0.08283 0.37543 0.0
C318 C 0.90976 0.24118 0.82789 0.0
C319 C 0.8744 0.24409 0.82178 0.0
C320 C 0.85722 0.25911 0.83988 0.0
C321 C 0.88295 0.26494 0.85587 0.0
N322 N 0.91523 0.25476 0.84889 0.0
Co323 Co 0.95961 0.26027 0.86634 0.0
N324 N 0.93362 0.26258 0.89563 0.0
C325 C 0.89887 0.26949 0.89793 0.0
C326 C 0.8878 0.26914 0.92013 0.0
C327 C 0.91754 0.26213 0.93262 0.0
C328 C 0.94535 0.25885 0.9173 0.0
N329 N 1.0039 0.26648 0.88387 0.0
C330 C 1.00996 0.26458 0.90664 0.0
C331 C 0.04482 0.27301 0.91145 0.0
C332 C 0.0608 0.28071 0.89104 0.0
C333 C 0.03493 0.2767 0.87487 0.0
N334 N 0.98454 0.2567 0.83673 0.0
C335 C 0.01805 0.26676 0.83285 0.0
C336 C 0.0297 0.25665 0.81172 0.0
C337 C 1.00178 0.23928 0.80181 0.0
C338 C 0.97403 0.24017 0.81725 0.0
N339 N 0.95708 0.31263 0.86334 0.0
C340 C 0.96593 0.38691 0.86016 0.0
C341 C 0.96062 0.36621 0.84064 0.0
C342 C 0.95575 0.32928 0.84261 0.0
C343 C 0.96573 0.36954 0.88118 0.0
C344 C 0.96164 0.33291 0.88239 0.0
N345 N 0.9644 0.20881 0.86965 0.0
C346 C 1.00372 0.15869 0.86992 0.0
C347 C 0.97665 0.13668 0.87728 0.0
C348 C 0.94271 0.15114 0.88016 0.0
C349 C 0.93712 0.18748 0.87626 0.0
C350 C 0.99711 0.19427 0.86615 0.0
H351 H 0.9111 0.19847 0.87901 0.0
H352 H 0.01905 0.21013 0.86085 0.0
H353 H 0.95175 0.31414 0.82729 0.0
H354 H 0.96349 0.32109 0.89895 0.0
C355 C 0.87689 0.27205 0.87886 0.0
C356 C 0.93757 0.2266 0.8131 0.0
C357 C 0.98277 0.25799 0.92419 0.0
C358 C 0.03972 0.2771 0.85112 0.0
H359 H 0.86218 0.23591 0.80603 0.0
H360 H 0.82905 0.26337 0.84162 0.0
H361 H 0.86123 0.27301 0.92648 0.0
H362 H 0.91879 0.26086 0.95099 0.0
H363 H 0.05724 0.27391 0.92801 0.0
H364 H 0.08823 0.28755 0.88832 0.0
H365 H 0.05619 0.25907 0.80497 0.0
H366 H 1.00265 0.22652 0.78543 0.0
H367 H 0.95986 0.37847 0.82401 0.0
H368 H 0.96956 0.38421 0.89677 0.0
H369 H 0.03025 0.14851 0.86747 0.0
H370 H 0.92106 0.1348 0.88592 0.0
C371 C 0.77276 0.90188 0.33585 0.0
C372 C 0.77042 0.8655 0.33333 0.0
C373 C 0.75287 0.85286 0.35199 0.0
C374 C 0.74611 0.88169 0.36529 0.0
N375 N 0.75808 0.91181 0.35597 0.0
Co376 Co 0.75895 0.95838 0.3712 0.0
N377 N 0.75636 0.93659 0.40179 0.0
C378 C 0.74495 0.9038 0.40631 0.0
C379 C 0.74563 0.89581 0.42906 0.0
C380 C 0.75785 0.92564 0.43952 0.0
C381 C 0.76388 0.95029 0.42247 0.0
N382 N 0.75919 1.00486 0.38635 0.0
C383 C 0.76523 0.01326 0.40846 0.0
C384 C 0.76126 0.04922 0.41175 0.0
C385 C 0.75226 0.06349 0.39096 0.0
C386 C 0.75111 0.03555 0.3761 0.0
N387 N 0.76303 0.97888 0.34046 0.0
C388 C 0.75547 0.01238 0.33483 0.0
C389 C 0.76394 0.01951 0.31252 0.0
C390 C 0.77785 0.98862 0.30388 0.0
C391 C 0.77734 0.96419 0.3214 0.0
N392 N 0.70601 0.96223 0.37014 0.0
C393 C 0.63432 0.98655 0.36948 0.0
C394 C 0.65136 0.97484 0.3495 0.0
C395 C 0.68702 0.96262 0.35021 0.0
C396 C 0.65335 0.98267 0.3898 0.0
C397 C 0.68851 0.97101 0.38978 0.0
N398 N 0.81104 0.95724 0.37253 0.0
C399 C 0.86563 0.98942 0.36828 0.0
C400 C 0.88547 0.95935 0.3732 0.0
C401 C 0.86723 0.92786 0.37783 0.0
C402 C 0.82992 0.92749 0.37775 0.0
C403 C 0.82888 0.98773 0.36776 0.0
H404 H 0.81635 0.90322 0.38167 0.0
H405 H 0.815 1.0114 0.36314 0.0
H406 H 0.6997 0.95529 0.33445 0.0
H407 H 0.702 0.97159 0.40583 0.0
C408 C 0.73924 0.87989 0.38864 0.0
C409 C 0.78875 0.92673 0.31928 0.0
C410 C 0.77246 0.98743 0.42672 0.0
C411 C 0.74885 0.0374 0.35211 0.0
H412 H 0.78153 0.84889 0.32033 0.0
H413 H 0.74891 0.82544 0.35638 0.0
H414 H 0.73899 0.87098 0.43706 0.0
H415 H 0.76118 0.92903 0.45766 0.0
H416 H 0.76436 0.06353 0.42752 0.0
H417 H 0.7483 0.09109 0.38704 0.0
H418 H 0.76237 0.0447 0.30393 0.0
H419 H 0.78767 0.98464 0.28679 0.0
H420 H 0.638 0.97679 0.33327 0.0
H421 H 0.64161 0.99016 0.40589 0.0
H422 H 0.87848 0.01408 0.36413 0.0
H423 H 0.88164 0.90387 0.38161 0.0
H424 H 1.00567 0.43127 0.17192 0.0
H425 H 0.09573 0.44111 0.12688 0.0
H426 H 0.08508 0.5052 0.12392 0.0
H427 H 0.95055 0.4933 0.14264 0.0
H428 H 0.93052 0.51192 0.16771 0.0
H429 H 0.9465 0.46716 0.16812 0.0
H430 H 0.98583 0.48142 0.20282 0.0
H431 H 0.96986 0.52623 0.20257 0.0
H432 H 0.01665 0.51747 0.20119 0.0
H433 H 0.06374 0.56752 0.12409 0.0
H434 H 0.03299 0.6244 0.12682 0.0
H435 H 0.95441 0.57745 0.17121 0.0
C436 C 0.02355 0.44715 0.16187 0.0
C437 C 0.05211 0.43105 0.14992 0.0
C438 C 0.07416 0.45271 0.13642 0.0
C439 C 0.0682 0.48923 0.1346 0.0
C440 C 0.03978 0.50425 0.14627 0.0
C441 C 0.01774 0.48405 0.15971 0.0
C442 C 0.98812 0.50711 0.1695 0.0
C443 C 0.95176 0.49409 0.16151 0.0
C444 C 0.99024 0.50811 0.19558 0.0
C445 C 0.99676 0.54319 0.15924 0.0
C446 C 0.02688 0.54064 0.14603 0.0
C447 C 0.04013 0.56972 0.13438 0.0
C448 C 0.02218 0.60209 0.13595 0.0
C449 C 0.99078 0.6059 0.14899 0.0
C450 C 0.97828 0.57582 0.16113 0.0
H451 H 0.45061 0.95072 0.63312 0.0
H452 H 0.41067 1.00309 0.69343 0.0
H453 H 0.46946 0.02913 0.69997 0.0
H454 H 0.53806 0.93064 0.65632 0.0
H455 H 0.56065 0.93803 0.62976 0.0
H456 H 0.51544 0.92325 0.62979 0.0
H457 H 0.49777 0.9766 0.60478 0.0
H458 H 0.54289 0.99163 0.60479 0.0
H459 H 0.50802 0.02054 0.61427 0.0
H460 H 0.53256 0.05267 0.69889 0.0
H461 H 0.59464 0.06791 0.69211 0.0
H462 H 0.59631 0.99705 0.63405 0.0
C463 C 0.45419 0.96759 0.64775 0.0
C464 C 0.42547 0.97449 0.66281 0.0
C465 C 0.43189 0.99669 0.68178 0.0
C466 C 0.46533 0.01193 0.68556 0.0
C467 C 0.49282 1.00474 0.6704 0.0
C468 C 0.48776 0.98274 0.652 0.0
C469 C 0.52207 0.97892 0.63854 0.0
C470 C 0.53481 0.94042 0.63862 0.0
C471 C 0.5174 0.99274 0.61415 0.0
C472 C 0.54706 1.0024 0.65211 0.0
C473 C 0.52951 0.01723 0.67031 0.0
C474 C 0.54662 0.04067 0.68486 0.0
C475 C 0.58244 0.04896 0.68091 0.0
C476 C 0.60181 0.03365 0.66265 0.0
C477 C 0.58319 1.00992 0.6481 0.0
H478 H 0.01656 0.42857 0.83793 0.0
H479 H 0.9249 0.43481 0.88198 0.0
H480 H 0.93297 0.49905 0.88533 0.0
H481 H 0.06831 0.4917 0.86818 0.0
H482 H 0.08836 0.51143 0.84347 0.0
H483 H 0.07412 0.4662 0.84261 0.0
H484 H 0.03531 0.47986 0.8075 0.0
H485 H 0.04953 0.52515 0.80819 0.0
H486 H 1.00307 0.51486 0.80893 0.0
H487 H 0.95211 0.56173 0.88604 0.0
H488 H 0.98116 0.61952 0.88427 0.0
H489 H 0.06213 0.57608 0.84012 0.0
C490 C 0.99779 0.44368 0.84784 0.0
C491 C 0.9697 0.42645 0.85951 0.0
C492 C 0.94636 0.44719 0.87279 0.0
C493 C 0.95077 0.48381 0.8748 0.0
C494 C 0.97888 0.4999 0.86351 0.0
C495 C 1.00205 0.48067 0.85023 0.0
C496 C 0.03103 0.50481 0.84092 0.0
C497 C 0.06763 0.49282 0.8493 0.0
C498 C 0.02965 0.50625 0.81483 0.0
C499 C 0.02069 0.54034 0.85128 0.0
C500 C 0.99034 0.53661 0.86414 0.0
C501 C 0.97582 0.56493 0.87597 0.0
C502 C 0.99272 0.59778 0.87492 0.0
C503 C 0.02419 0.60275 0.86219 0.0
C504 C 0.03804 0.57347 0.84989 0.0
H505 H 0.42423 0.02548 0.34594 0.0
H506 H 0.43345 0.10815 0.39636 0.0
H507 H 0.49733 0.09599 0.39968 0.0
H508 H 0.48521 0.96544 0.37323 0.0
H509 H 0.50428 0.94881 0.34728 0.0
H510 H 0.45951 0.96512 0.34743 0.0
H511 H 0.47492 1.00869 0.31511 0.0
H512 H 0.51976 0.99249 0.31486 0.0
H513 H 0.51121 0.03884 0.31873 0.0
H514 H 0.56003 0.07504 0.39832 0.0
H515 H 0.6171 0.04503 0.39403 0.0
H516 H 0.57041 0.97255 0.34562 0.0
C517 C 0.43986 0.04134 0.35742 0.0
C518 C 0.42343 0.06816 0.3708 0.0
C519 C 0.44499 0.08762 0.38593 0.0
C520 C 0.48149 0.08091 0.38789 0.0
C521 C 0.49671 0.05425 0.37477 0.0
C522 C 0.47669 0.03456 0.35986 0.0
C523 C 0.49991 1.0063 0.34865 0.0
C524 C 0.48642 0.96922 0.3545 0.0
C525 C 0.50154 0.01192 0.3228 0.0
C526 C 0.53595 0.01317 0.35965 0.0
C527 C 0.53321 0.04123 0.37451 0.0
C528 C 0.56231 0.05288 0.38685 0.0
C529 C 0.59483 0.03531 0.38437 0.0
C530 C 0.59883 1.00568 0.36981 0.0
C531 C 0.56872 0.99495 0.35693 0.0
H532 H 1.00075 0.21007 0.95794 0.0
H533 H 0.9809 0.32095 0.94585 0.0
H534 H 0.98455 0.3325 0.98719 0.0
H535 H 0.95196 0.20209 0.00978 0.0
H536 H 0.98306 0.17312 0.02364 0.0
H537 H 0.97951 0.17319 0.9931 0.0
H538 H 0.0464 0.18639 0.98938 0.0
H539 H 0.05025 0.18551 0.0199 0.0
H540 H 0.06478 0.22364 1.0042 0.0
H541 H 0.98794 0.33175 0.02998 0.0
H542 H 0.99988 0.32042 0.07071 0.0
H543 H 0.01976 0.21046 0.05577 0.0
C544 C 0.99785 0.23681 0.96407 0.0
C545 C 0.9908 0.26476 0.94875 0.0
C546 C 0.9867 0.29935 0.95733 0.0
C547 C 0.9884 0.30605 0.98079 0.0
C548 C 0.99452 0.2779 0.99556 0.0
C549 C 0.99994 0.24406 0.98755 0.0
C550 C 1.00721 0.21884 1.00715 0.0
C551 C 0.97873 0.19011 0.00849 0.0
C552 C 0.04437 0.20265 1.00503 0.0
C553 C 1.00484 0.2437 0.02738 0.0
C554 C 0.99703 0.27758 0.02028 0.0
C555 C 0.99395 0.3053 0.03572 0.0
C556 C 1.00029 0.29858 0.05888 0.0
C557 C 1.00977 0.26444 0.06648 0.0
C558 C 1.0115 0.23657 0.05051 0.0
H559 H 0.72477 0.01924 0.55802 0.0
H560 H 0.83679 0.01471 0.57258 0.0
H561 H 0.84934 1.00576 0.53155 0.0
H562 H 0.72425 0.95397 0.51177 0.0
H563 H 0.6917 0.978 0.49558 0.0
H564 H 0.69204 0.98106 0.52613 0.0
H565 H 0.69622 0.04901 0.52292 0.0
H566 H 0.69669 0.0461 0.49235 0.0
H567 H 0.73197 0.06839 0.50701 0.0
H568 H 0.84945 0.99958 0.48827 0.0
H569 H 0.83685 0.99258 0.44712 0.0
H570 H 0.72491 1.00353 0.46051 0.0
C571 C 0.75184 0.01543 0.55255 0.0
C572 C 0.77988 0.0171 0.56844 0.0
C573 C 0.81501 0.01291 0.56069 0.0
C574 C 0.82233 1.00814 0.53741 0.0
C575 C 0.79419 1.00778 0.52202 0.0
C576 C 0.75958 1.01097 0.52933 0.0
C577 C 0.7342 1.01075 0.50931 0.0
C578 C 0.70906 0.97905 0.51079 0.0
C579 C 0.71355 0.04564 0.50782 0.0
C580 C 0.7598 1.00696 0.48956 0.0
C581 C 0.79432 1.00532 0.49724 0.0
C582 C 0.82253 1.00105 0.48214 0.0
C583 C 0.81522 0.99744 0.45878 0.0
C584 C 0.78008 0.99843 0.45064 0.0
C585 C 0.75209 1.00368 0.46625 0.0
H586 H 1.00842 0.8186 0.05844 0.0
H587 H 0.01375 0.70701 0.07353 0.0
H588 H 0.02409 0.69428 0.0328 0.0
H589 H 0.96205 0.81122 1.00672 0.0
H590 H 0.98509 0.846 0.99204 0.0
H591 H 0.98118 0.84703 0.02256 0.0
H592 H 0.04918 0.85087 0.02658 0.0
H593 H 0.0533 0.8506 0.99606 0.0
H594 H 0.07665 0.81833 0.01288 0.0
H595 H 0.02859 0.69322 0.98996 0.0
H596 H 0.03428 0.70433 0.94862 0.0
H597 H 0.02775 0.8167 0.96057 0.0
C598 C 1.01299 0.79164 0.05319 0.0
C599 C 1.01119 0.76378 0.06924 0.0
C600 C 0.016 0.72872 0.06164 0.0
C601 C 0.02148 0.72127 0.03849 0.0
C602 C 0.02217 0.74916 0.023 0.0
C603 C 0.0187 0.78373 0.03004 0.0
C604 C 0.01975 0.8087 0.00976 0.0
C605 C 0.98494 0.82946 1.00765 0.0
C606 C 0.05162 0.8336 0.01142 0.0
C607 C 0.02407 0.78281 0.99021 0.0
C608 C 0.02508 0.74857 0.99827 0.0
C609 C 0.02808 0.71994 0.98353 0.0
C610 C 0.03099 0.72643 0.96006 0.0
C611 C 0.03109 0.76126 0.95142 0.0
C612 C 0.02735 0.78981 0.96672 0.0
H613 H 0.26858 0.97531 0.45415 0.0
H614 H 0.2909 0.08752 0.4535 0.0
H615 H 0.28938 0.08822 0.49526 0.0
H616 H 0.22489 0.96078 0.5036 0.0
H617 H 0.251 0.9251 0.515 0.0
H618 H 0.24949 0.9324 0.48476 0.0
H619 H 0.31765 0.93749 0.48312 0.0
H620 H 0.31942 0.9289 0.51325 0.0
H621 H 0.33985 0.96791 0.50175 0.0
H622 H 0.26129 0.07586 0.53603 0.0
H623 H 0.25062 0.0515 0.57426 0.0
H624 H 0.2909 0.95041 0.55067 0.0
C625 C 0.27482 0.99986 0.46249 0.0
C626 C 0.27639 0.0321 0.45014 0.0
C627 C 0.28607 0.06297 0.46237 0.0
C628 C 0.28549 0.06374 0.48619 0.0
C629 C 0.28026 0.03233 0.49779 0.0
C630 C 0.27938 1.00054 0.48641 0.0
C631 C 0.28202 0.97032 0.50341 0.0
C632 C 0.24993 0.9457 0.50156 0.0
C633 C 0.31681 0.94995 0.5002 0.0
C634 C 0.2817 0.99039 0.52588 0.0
C635 C 0.2781 0.02595 0.52214 0.0
C636 C 0.26739 0.0485 0.53955 0.0
C637 C 0.26187 0.03441 0.56144 0.0
C638 C 0.27072 0.99889 0.56668 0.0
C639 C 0.28198 0.97713 0.54822 0.0
H640 H 0.09666 0.17056 0.21676 0.0
H641 H 0.16131 0.26464 0.21728 0.0
H642 H 0.20286 0.23595 0.24376 0.0
H643 H 0.10885 0.15868 0.28004 0.0
H644 H 0.10647 0.11132 0.27844 0.0
H645 H 0.08278 0.13806 0.25816 0.0
H646 H 0.11424 0.10493 0.22548 0.0
H647 H 0.13876 0.0788 0.2457 0.0
H648 H 0.16186 0.10412 0.22446 0.0
H649 H 0.24349 0.19267 0.26377 0.0
H650 H 0.26739 0.15065 0.29191 0.0
H651 H 0.17014 0.09076 0.28889 0.0
C652 C 0.11927 0.18527 0.22275 0.0
C653 C 0.12692 0.21922 0.21359 0.0
C654 C 0.15582 0.23803 0.22293 0.0
C655 C 0.17977 0.22184 0.23793 0.0
C656 C 0.17327 0.18745 0.24509 0.0
C657 C 0.1425 0.17025 0.23918 0.0
C658 C 0.13989 0.13549 0.25236 0.0
C659 C 0.10758 0.13592 0.26819 0.0
C660 C 0.1386 0.10397 0.23602 0.0
C661 C 0.17445 0.13562 0.26595 0.0
C662 C 0.19385 0.16522 0.26049 0.0
C663 C 0.22796 0.17009 0.26886 0.0
C664 C 0.2416 0.14569 0.2846 0.0
C665 C 0.22055 0.11778 0.29313 0.0
C666 C 0.18689 0.11193 0.28295 0.0
H667 H 0.89327 0.16872 0.81195 0.0
H668 H 0.95165 0.23829 0.76728 0.0
H669 H 0.93002 0.2053 0.73412 0.0
H670 H 0.89582 0.08721 0.77801 0.0
H671 H 0.85024 0.07656 0.78358 0.0
H672 H 0.87537 0.10106 0.80421 0.0
H673 H 0.82846 0.15081 0.80348 0.0
H674 H 0.80311 0.12639 0.78298 0.0
H675 H 0.81664 0.17087 0.77674 0.0
H676 H 0.90021 0.16577 0.70522 0.0
H677 H 0.85833 0.1301 0.6829 0.0
H678 H 0.81029 0.09249 0.74526 0.0
C679 C 0.90231 0.17638 0.7952 0.0
C680 C 0.92654 0.20482 0.79261 0.0
C681 C 0.93584 0.21505 0.77019 0.0
C682 C 0.92294 0.19676 0.75107 0.0
C683 C 0.8994 0.16888 0.75429 0.0
C684 C 0.88846 0.15927 0.77581 0.0
C685 C 0.85919 0.13171 0.77439 0.0
C686 C 0.87086 0.09708 0.78573 0.0
C687 C 0.82481 0.14578 0.78503 0.0
C688 C 0.85541 0.12721 0.74872 0.0
C689 C 0.87951 0.14842 0.73754 0.0
C690 C 0.88126 0.14918 0.71387 0.0
C691 C 0.85735 0.12864 0.70129 0.0
C692 C 0.83117 0.1078 0.71211 0.0
C693 C 0.83056 0.10695 0.73629 0.0
H694 H 0.77934 0.87348 0.28671 0.0
H695 H 0.85454 0.95251 0.30814 0.0
H696 H 0.89778 0.92929 0.28005 0.0
H697 H 0.84578 0.80346 0.28572 0.0
H698 H 0.82476 0.78047 0.26262 0.0
H699 H 0.7986 0.80647 0.28196 0.0
H700 H 0.77336 0.84215 0.24806 0.0
H701 H 0.79949 0.81629 0.22864 0.0
H702 H 0.8033 0.86361 0.22866 0.0
H703 H 0.93274 0.8962 0.24743 0.0
H704 H 0.95559 0.85605 0.21743 0.0
H705 H 0.86411 0.78925 0.22665 0.0
C706 C 0.80532 0.88523 0.28628 0.0
C707 C 0.81366 0.91426 0.30053 0.0
C708 C 0.84726 0.93023 0.29767 0.0
C709 C 0.87217 0.91697 0.28179 0.0
C710 C 0.8637 0.88698 0.26906 0.0
C711 C 0.83116 0.87099 0.27157 0.0
C712 C 0.82923 0.83746 0.25747 0.0
C713 C 0.82431 0.80504 0.27286 0.0
C714 C 0.79958 0.84005 0.23966 0.0
C715 C 0.86544 0.83722 0.24621 0.0
C716 C 0.88473 0.86646 0.25256 0.0
C717 C 0.9178 0.87307 0.2427 0.0
C718 C 0.93079 0.84992 0.22572 0.0
C719 C 0.91137 0.81979 0.21889 0.0
C720 C 0.87907 0.81278 0.23039 0.0
H721 H 0.22001 0.92074 0.74538 0.0
H722 H 0.16436 0.89017 0.68413 0.0
H723 H 0.12147 0.8569 0.70723 0.0
H724 H 0.20974 0.84265 0.77599 0.0
H725 H 0.20121 0.86229 0.80333 0.0
H726 H 0.22672 0.88584 0.78243 0.0
H727 H 0.18355 0.93869 0.78486 0.0
H728 H 0.15814 0.91547 0.80602 0.0
H729 H 0.13693 0.93159 0.7806 0.0
H730 H 0.09183 0.81745 0.73633 0.0
H731 H 0.07019 0.78467 0.7696 0.0
H732 H 0.13503 0.8492 0.81358 0.0
C733 C 0.19792 0.90849 0.73687 0.0
C734 C 0.19555 0.90869 0.71271 0.0
C735 C 0.1668 0.89075 0.70248 0.0
C736 C 0.1423 0.87155 0.7155 0.0
C737 C 0.14589 0.87099 0.73908 0.0
C738 C 0.17226 0.8899 0.7498 0.0
C739 C 0.16981 0.88463 0.77551 0.0
C740 C 0.2039 0.86786 0.78486 0.0
C741 C 0.16162 0.91969 0.78746 0.0
C742 C 0.1387 0.8592 0.77742 0.0
C743 C 0.12577 0.85123 0.75611 0.0
C744 C 0.10037 0.82498 0.75318 0.0
C745 C 0.08743 0.80688 0.77241 0.0
C746 C 0.09837 0.81591 0.79471 0.0
C747 C 0.12467 0.84256 0.79698 0.0
H748 H 0.01515 0.09417 0.11486 0.0
H749 H 0.0869 0.09905 0.17216 0.0
H750 H 0.07344 0.03692 0.1815 0.0
H751 H 0.94983 0.03932 0.1401 0.0
H752 H 0.94111 0.01343 0.11507 0.0
H753 H 0.9566 0.05808 0.11227 0.0
H754 H 1.0094 0.03683 0.08784 0.0
H755 H 0.9937 0.99219 0.0902 0.0
H756 H 0.03819 1.0028 0.09868 0.0
H757 H 0.04801 0.97707 0.18688 0.0
H758 H 0.02156 0.91831 0.1842 0.0
H759 H 0.97003 0.94812 0.12103 0.0
C760 C 0.02854 0.08174 0.12904 0.0
C761 C 0.05245 0.10112 0.14268 0.0
C762 C 0.06906 0.0844 0.16133 0.0
C763 C 0.06126 0.04928 0.16687 0.0
C764 C 0.0371 0.03105 0.1534 0.0
C765 C 0.02162 0.04629 0.13452 0.0
C766 C 0.99733 0.02017 0.12264 0.0
C767 C 0.95894 0.03356 0.12252 0.0
C768 C 1.01045 0.01254 0.0984 0.0
C769 C 1.00137 0.98801 0.13792 0.0
C770 C 0.02398 0.99534 0.15575 0.0
C771 C 0.031 0.97074 0.17268 0.0
C772 C 0.01584 0.93727 0.17092 0.0
C773 C 0.99448 0.92788 0.15202 0.0
C774 C 0.98637 0.95415 0.1356 0.0
H775 H 0.08881 0.99359 0.66694 0.0
H776 H 0.10678 0.97794 0.59495 0.0
H777 H 0.04672 1.0011 0.58669 0.0
H778 H 0.9966 0.96612 0.66605 0.0
H779 H 0.98344 0.99744 0.68746 0.0
H780 H 0.02784 0.98023 0.68728 0.0
H781 H 0.05213 0.04395 0.68586 0.0
H782 H 1.00777 0.06131 0.68563 0.0
H783 H 0.03822 0.07312 0.66333 0.0
H784 H 0.98496 0.02909 0.58643 0.0
H785 H 0.92404 0.05009 0.59447 0.0
H786 H 0.94513 0.04365 0.66671 0.0
C787 C 0.07989 0.99477 0.64946 0.0
C788 C 0.10238 0.98393 0.63154 0.0
C789 C 0.08983 0.98579 0.6089 0.0
C790 C 0.05589 0.99921 0.60407 0.0
C791 C 0.03453 1.01025 0.6221 0.0
C792 C 0.04581 1.00741 0.64439 0.0
C793 C 0.01721 0.01948 0.66075 0.0
C794 C 1.00558 0.989 0.6763 0.0
C795 C 0.02958 0.05136 0.67471 0.0
C796 C 0.98813 0.0298 0.64425 0.0
C797 C 0.99878 0.02486 0.62199 0.0
C798 C 0.97639 0.03291 0.6038 0.0
C799 C 0.94196 0.04519 0.60849 0.0
C800 C 0.93002 0.04888 0.63116 0.0
C801 C 0.9537 0.04147 0.6492 0.0
H802 H 0.9638 0.07687 0.85222 0.0
H803 H 1.01277 0.1139 0.91421 0.0
H804 H 0.0385 0.05469 0.92076 0.0
H805 H 0.94396 0.98669 0.8725 0.0
H806 H 0.95387 0.9671 0.84534 0.0
H807 H 0.93711 1.01153 0.84672 0.0
H808 H 0.99126 0.03312 0.8237 0.0
H809 H 1.00851 0.98889 0.8226 0.0
H810 H 0.03516 0.02389 0.83407 0.0
H811 H 0.06237 0.99217 0.91912 0.0
H812 H 0.07782 0.92995 0.91124 0.0
H813 H 0.0143 0.93383 0.84988 0.0
C814 C 0.97901 0.07205 0.86751 0.0
C815 C 0.98566 0.09961 0.88304 0.0
C816 C 1.00679 0.09283 0.90243 0.0
C817 C 0.02172 0.05938 0.90617 0.0
C818 C 0.01545 0.0329 0.89029 0.0
C819 C 0.99424 0.03871 0.87147 0.0
C820 C 0.99266 1.00605 0.85664 0.0
C821 C 0.95464 0.99201 0.85523 0.0
C822 C 1.0078 0.01345 0.83285 0.0
C823 C 0.01637 0.98113 0.86996 0.0
C824 C 0.02938 0.99711 0.88927 0.0
C825 C 0.05217 0.97935 0.90408 0.0
C826 C 0.06113 0.94407 0.89935 0.0
C827 C 0.04729 0.92675 0.87999 0.0
C828 C 0.02507 0.94601 0.86499 0.0
H829 H 0.92952 1.00693 0.39422 0.0
H830 H 0.93008 0.91733 0.34861 0.0
H831 H 0.99414 0.92584 0.34199 0.0
H832 H 0.98944 0.0605 0.36366 0.0
H833 H 1.01172 0.07783 0.38829 0.0
H834 H 0.96635 0.06395 0.39038 0.0
H835 H 0.98256 0.02145 0.42325 0.0
H836 H 0.02791 0.03557 0.42149 0.0
H837 H 0.01729 0.98945 0.41921 0.0
H838 H 0.05637 0.9481 0.33723 0.0
H839 H 0.1145 0.97626 0.33862 0.0
H840 H 0.07598 0.04879 0.39019 0.0
C841 C 0.94332 0.98877 0.38313 0.0
C842 C 0.92484 0.96128 0.37199 0.0
C843 C 0.94375 0.93816 0.35755 0.0
C844 C 0.98008 0.94304 0.35355 0.0
C845 C 0.99731 0.97085 0.36438 0.0
C846 C 0.97976 0.99289 0.37926 0.0
C847 C 1.00466 0.02058 0.38884 0.0
C848 C 0.99229 0.05792 0.3824 0.0
C849 C 1.00832 0.01651 0.41474 0.0
C850 C 0.03887 1.01104 0.37675 0.0
C851 C 0.03382 0.9825 0.36256 0.0
C852 C 0.06084 0.96983 0.34875 0.0
C853 C 0.09408 0.98601 0.34987 0.0
C854 C 0.10082 0.01431 0.36508 0.0
C855 C 0.0723 0.02721 0.37844 0.0
loop_
_geom_bond_atom_site_label_1
_geom_bond_atom_site_label_2
_geom_bond_distance
_geom_bond_site_symmetry_2
_ccdc_geom_bond_type
C0 C1 1.443 . S
C0 N4 1.376 . S
C0 C38 1.389 . S
C1 C0 1.443 . S
C1 C2 1.340 . S
C1 H41 0.951 . S
C2 C1 1.340 . S
C2 C3 1.439 . S
C2 H42 0.950 . S
C3 C2 1.439 . S
C3 N4 1.374 . S
C3 C37 1.395 . S
N4 C0 1.376 . S
N4 C3 1.374 . S
N4 Co5 2.008 . S
Co5 N4 2.008 . S
Co5 N6 1.995 . S
Co5 N11 2.008 . S
Co5 N16 1.995 . S
Co5 N21 2.282 . S
Co5 N27 2.282 . S
N6 Co5 1.995 . S
N6 C7 1.376 . S
N6 C10 1.383 . S
C7 N6 1.376 . S
C7 C8 1.446 . S
C7 C37 1.391 . S
C8 C7 1.446 . S
C8 C9 1.339 . S
C8 H43 0.949 . S
C9 C8 1.339 . S
C9 C10 1.439 . S
C9 H44 0.950 . S
C10 N6 1.383 . S
C10 C9 1.439 . S
C10 C39 1.392 . S
N11 Co5 2.008 . S
N11 C12 1.376 . S
N11 C15 1.374 1_455 S
C12 N11 1.376 . S
C12 C13 1.443 1_455 S
C12 C39 1.389 . S
C13 C12 1.443 1_655 S
C13 C14 1.340 . S
C13 H45 0.951 . S
C14 C13 1.340 . S
C14 C15 1.439 . S
C14 H46 0.950 . S
C15 N11 1.374 1_655 S
C15 C14 1.439 . S
C15 C40 1.395 . S
N16 Co5 1.995 . S
N16 C17 1.376 . S
N16 C20 1.383 . S
C17 N16 1.376 . S
C17 C18 1.446 1_455 S
C17 C40 1.391 1_455 S
C18 C17 1.446 1_655 S
C18 C19 1.335 1_655 S
C18 H47 0.953 . S
C19 C18 1.335 1_455 S
C19 C20 1.439 . S
C19 H48 0.950 . S
C20 N16 1.383 . S
C20 C19 1.439 . S
C20 C38 1.392 . S
N21 Co5 2.282 . S
N21 C24 1.332 . S
N21 C26 1.332 . S
C22 C23 1.386 . S
C22 C25 1.388 . S
C23 C22 1.386 . S
C23 C24 1.382 . S
C23 H49 0.950 . S
C24 N21 1.332 . S
C24 C23 1.382 . S
C24 H35 0.952 . S
C25 C22 1.388 . S
C25 C26 1.382 . S
C25 H50 0.950 . S
C26 N21 1.332 . S
C26 C25 1.382 . S
C26 H36 0.948 . S
N27 Co5 2.282 . S
N27 C31 1.332 . S
N27 C32 1.332 . S
C28 C29 1.388 . S
C28 C32 1.382 . S
C28 H51 0.950 . S
C29 C28 1.388 . S
C29 C30 1.386 . S
C30 C29 1.386 . S
C30 C31 1.382 . S
C30 H52 0.950 . S
C31 N27 1.332 . S
C31 C30 1.382 . S
C31 H33 0.952 . S
C32 N27 1.332 . S
C32 C28 1.382 . S
C32 H34 0.948 . S
H33 C31 0.952 . S
H34 C32 0.948 . S
H35 C24 0.952 . S
H36 C26 0.948 . S
C37 C3 1.395 . S
C37 C7 1.391 . S
C38 C0 1.389 . S
C38 C20 1.392 . S
C39 C10 1.392 . S
C39 C12 1.389 . S
C40 C15 1.395 . S
C40 C17 1.391 1_655 S
H41 C1 0.951 . S
H42 C2 0.950 . S
H43 C8 0.949 . S
H44 C9 0.950 . S
H45 C13 0.951 . S
H46 C14 0.950 . S
H47 C18 0.953 . S
H48 C19 0.950 . S
H49 C23 0.950 . S
H50 C25 0.950 . S
H51 C28 0.950 . S
H52 C30 0.950 . S
C53 C54 1.443 . S
C53 N57 1.376 . S
C53 C91 1.389 . S
C54 C53 1.443 . S
C54 C55 1.340 . S
C54 H94 0.951 . S
C55 C54 1.340 . S
C55 C56 1.439 . S
C55 H95 0.950 . S
C56 C55 1.439 . S
C56 N57 1.374 . S
C56 C90 1.395 . S
N57 C53 1.376 . S
N57 C56 1.374 . S
N57 Co58 2.008 . S
Co58 N57 2.008 . S
Co58 N59 1.995 . S
Co58 N64 2.008 . S
Co58 N69 1.995 . S
Co58 N74 2.282 . S
Co58 N80 2.282 . S
N59 Co58 1.995 . S
N59 C60 1.376 . S
N59 C63 1.383 . S
C60 N59 1.376 . S
C60 C61 1.446 . S
C60 C90 1.391 . S
C61 C60 1.446 . S
C61 C62 1.339 . S
C61 H96 0.949 . S
C62 C61 1.339 . S
C62 C63 1.439 . S
C62 H97 0.950 . S
C63 N59 1.383 . S
C63 C62 1.439 . S
C63 C92 1.392 . S
N64 Co58 2.008 . S
N64 C65 1.376 . S
N64 C68 1.374 1_545 S
C65 N64 1.376 . S
C65 C66 1.443 1_545 S
C65 C92 1.389 . S
C66 C65 1.443 1_565 S
C66 C67 1.340 . S
C66 H98 0.951 . S
C67 C66 1.340 . S
C67 C68 1.439 . S
C67 H99 0.950 . S
C68 N64 1.374 1_565 S
C68 C67 1.439 . S
C68 C93 1.395 . S
N69 Co58 1.995 . S
N69 C70 1.376 . S
N69 C73 1.383 . S
C70 N69 1.376 . S
C70 C71 1.446 1_545 S
C70 C93 1.391 1_545 S
C71 C70 1.446 1_565 S
C71 C72 1.335 1_565 S
C71 H100 0.953 . S
C72 C71 1.335 1_545 S
C72 C73 1.439 . S
C72 H101 0.950 . S
C73 N69 1.383 . S
C73 C72 1.439 . S
C73 C91 1.392 . S
N74 Co58 2.282 . S
N74 C77 1.332 . S
N74 C79 1.332 . S
C75 C76 1.386 . S
C75 C78 1.388 . S
C76 C75 1.386 . S
C76 C77 1.382 . S
C76 H102 0.950 . S
C77 N74 1.332 . S
C77 C76 1.382 . S
C77 H88 0.952 . S
C78 C75 1.388 . S
C78 C79 1.382 . S
C78 H103 0.950 . S
C79 N74 1.332 . S
C79 C78 1.382 . S
C79 H89 0.948 . S
N80 Co58 2.282 . S
N80 C84 1.332 . S
N80 C85 1.332 . S
C81 C82 1.388 . S
C81 C85 1.382 . S
C81 H104 0.950 . S
C82 C81 1.388 . S
C82 C83 1.386 . S
C83 C82 1.386 . S
C83 C84 1.382 . S
C83 H105 0.950 . S
C84 N80 1.332 . S
C84 C83 1.382 . S
C84 H86 0.952 . S
C85 N80 1.332 . S
C85 C81 1.382 . S
C85 H87 0.948 . S
H86 C84 0.952 . S
H87 C85 0.948 . S
H88 C77 0.952 . S
H89 C79 0.948 . S
C90 C56 1.395 . S
C90 C60 1.391 . S
C91 C53 1.389 . S
C91 C73 1.392 . S
C92 C63 1.392 . S
C92 C65 1.389 . S
C93 C68 1.395 . S
C93 C70 1.391 1_565 S
H94 C54 0.951 . S
H95 C55 0.950 . S
H96 C61 0.949 . S
H97 C62 0.950 . S
H98 C66 0.951 . S
H99 C67 0.950 . S
H100 C71 0.953 . S
H101 C72 0.950 . S
H102 C76 0.950 . S
H103 C78 0.950 . S
H104 C81 0.950 . S
H105 C83 0.950 . S
C106 C107 1.443 . S
C106 N110 1.376 . S
C106 C144 1.389 . S
C107 C106 1.443 . S
C107 C108 1.340 . S
C107 H147 0.951 . S
C108 C107 1.340 . S
C108 C109 1.439 . S
C108 H148 0.950 . S
C109 C108 1.439 . S
C109 N110 1.374 . S
C109 C143 1.395 . S
N110 C106 1.376 . S
N110 C109 1.374 . S
N110 Co111 2.008 . S
Co111 N110 2.008 . S
Co111 N112 1.995 . S
Co111 N117 2.008 . S
Co111 N122 1.995 . S
Co111 N127 2.282 . S
Co111 N133 2.282 . S
N112 Co111 1.995 . S
N112 C113 1.376 . S
N112 C116 1.383 . S
C113 N112 1.376 . S
C113 C114 1.446 . S
C113 C143 1.391 . S
C114 C113 1.446 . S
C114 C115 1.339 . S
C114 H149 0.949 . S
C115 C114 1.339 . S
C115 C116 1.439 . S
C115 H150 0.950 . S
C116 N112 1.383 . S
C116 C115 1.439 . S
C116 C145 1.392 . S
N117 Co111 2.008 . S
N117 C118 1.376 . S
N117 C121 1.374 1_655 S
C118 N117 1.376 . S
C118 C119 1.443 1_655 S
C118 C145 1.389 . S
C119 C118 1.443 1_455 S
C119 C120 1.340 . S
C119 H151 0.951 . S
C120 C119 1.340 . S
C120 C121 1.439 . S
C120 H152 0.950 . S
C121 N117 1.374 1_455 S
C121 C120 1.439 . S
C121 C146 1.395 . S
N122 Co111 1.995 . S
N122 C123 1.376 . S
N122 C126 1.383 . S
C123 N122 1.376 . S
C123 C124 1.446 1_655 S
C123 C146 1.391 1_655 S
C124 C123 1.446 1_455 S
C124 C125 1.335 1_455 S
C124 H153 0.953 . S
C125 C124 1.335 1_655 S
C125 C126 1.439 . S
C125 H154 0.950 . S
C126 N122 1.383 . S
C126 C125 1.439 . S
C126 C144 1.392 . S
N127 Co111 2.282 . S
N127 C130 1.332 . S
N127 C132 1.332 . S
C128 C129 1.386 . S
C128 C131 1.388 . S
C129 C128 1.386 . S
C129 C130 1.382 . S
C129 H155 0.950 . S
C130 N127 1.332 . S
C130 C129 1.382 . S
C130 H141 0.952 . S
C131 C128 1.388 . S
C131 C132 1.382 . S
C131 H156 0.950 . S
C132 N127 1.332 . S
C132 C131 1.382 . S
C132 H142 0.948 . S
N133 Co111 2.282 . S
N133 C137 1.332 . S
N133 C138 1.332 . S
C134 C135 1.388 . S
C134 C138 1.382 . S
C134 H157 0.950 . S
C135 C134 1.388 . S
C135 C136 1.386 . S
C136 C135 1.386 . S
C136 C137 1.382 . S
C136 H158 0.950 . S
C137 N133 1.332 . S
C137 C136 1.382 . S
C137 H139 0.952 . S
C138 N133 1.332 . S
C138 C134 1.382 . S
C138 H140 0.948 . S
H139 C137 0.952 . S
H140 C138 0.948 . S
H141 C130 0.952 . S
H142 C132 0.948 . S
C143 C109 1.395 . S
C143 C113 1.391 . S
C144 C106 1.389 . S
C144 C126 1.392 . S
C145 C116 1.392 . S
C145 C118 1.389 . S
C146 C121 1.395 . S
C146 C123 1.391 1_455 S
H147 C107 0.951 . S
H148 C108 0.950 . S
H149 C114 0.949 . S
H150 C115 0.950 . S
H151 C119 0.951 . S
H152 C120 0.950 . S
H153 C124 0.953 . S
H154 C125 0.950 . S
H155 C129 0.950 . S
H156 C131 0.950 . S
H157 C134 0.950 . S
H158 C136 0.950 . S
C159 C160 1.443 . S
C159 N163 1.376 . S
C159 C197 1.389 . S
C160 C159 1.443 . S
C160 C161 1.340 . S
C160 H200 0.951 . S
C161 C160 1.340 . S
C161 C162 1.439 . S
C161 H201 0.950 . S
C162 C161 1.439 . S
C162 N163 1.374 . S
C162 C196 1.395 . S
N163 C159 1.376 . S
N163 C162 1.374 . S
N163 Co164 2.008 . S
Co164 N163 2.008 . S
Co164 N165 1.995 . S
Co164 N170 2.008 . S
Co164 N175 1.995 . S
Co164 N180 2.282 . S
Co164 N186 2.282 . S
N165 Co164 1.995 . S
N165 C166 1.376 . S
N165 C169 1.383 . S
C166 N165 1.376 . S
C166 C167 1.446 . S
C166 C196 1.391 . S
C167 C166 1.446 . S
C167 C168 1.339 . S
C167 H202 0.949 . S
C168 C167 1.339 . S
C168 C169 1.439 . S
C168 H203 0.950 . S
C169 N165 1.383 . S
C169 C168 1.439 . S
C169 C198 1.392 . S
N170 Co164 2.008 . S
N170 C171 1.376 . S
N170 C174 1.374 1_565 S
C171 N170 1.376 . S
C171 C172 1.443 1_565 S
C171 C198 1.389 . S
C172 C171 1.443 1_545 S
C172 C173 1.340 . S
C172 H204 0.951 . S
C173 C172 1.340 . S
C173 C174 1.439 . S
C173 H205 0.950 . S
C174 N170 1.374 1_545 S
C174 C173 1.439 . S
C174 C199 1.395 . S
N175 Co164 1.995 . S
N175 C176 1.376 . S
N175 C179 1.383 . S
C176 N175 1.376 . S
C176 C177 1.446 1_565 S
C176 C199 1.391 1_565 S
C177 C176 1.446 1_545 S
C177 C178 1.335 1_545 S
C177 H206 0.953 . S
C178 C177 1.335 1_565 S
C178 C179 1.439 . S
C178 H207 0.950 . S
C179 N175 1.383 . S
C179 C178 1.439 . S
C179 C197 1.392 . S
N180 Co164 2.282 . S
N180 C183 1.332 . S
N180 C185 1.332 . S
C181 C182 1.386 . S
C181 C184 1.388 . S
C182 C181 1.386 . S
C182 C183 1.382 . S
C182 H208 0.950 . S
C183 N180 1.332 . S
C183 C182 1.382 . S
C183 H194 0.952 . S
C184 C181 1.388 . S
C184 C185 1.382 . S
C184 H209 0.950 . S
C185 N180 1.332 . S
C185 C184 1.382 . S
C185 H195 0.948 . S
N186 Co164 2.282 . S
N186 C190 1.332 . S
N186 C191 1.332 . S
C187 C188 1.388 . S
C187 C191 1.382 . S
C187 H210 0.950 . S
C188 C187 1.388 . S
C188 C189 1.386 . S
C189 C188 1.386 . S
C189 C190 1.382 . S
C189 H211 0.950 . S
C190 N186 1.332 . S
C190 C189 1.382 . S
C190 H192 0.952 . S
C191 N186 1.332 . S
C191 C187 1.382 . S
C191 H193 0.948 . S
H192 C190 0.952 . S
H193 C191 0.948 . S
H194 C183 0.952 . S
H195 C185 0.948 . S
C196 C162 1.395 . S
C196 C166 1.391 . S
C197 C159 1.389 . S
C197 C179 1.392 . S
C198 C169 1.392 . S
C198 C171 1.389 . S
C199 C174 1.395 . S
C199 C176 1.391 1_545 S
H200 C160 0.951 . S
H201 C161 0.950 . S
H202 C167 0.949 . S
H203 C168 0.950 . S
H204 C172 0.951 . S
H205 C173 0.950 . S
H206 C177 0.953 . S
H207 C178 0.950 . S
H208 C182 0.950 . S
H209 C184 0.950 . S
H210 C187 0.950 . S
H211 C189 0.950 . S
C212 C213 1.443 . S
C212 N216 1.376 . S
C212 C250 1.389 . S
C213 C212 1.443 . S
C213 C214 1.340 . S
C213 H253 0.951 . S
C214 C213 1.340 . S
C214 C215 1.439 . S
C214 H254 0.950 . S
C215 C214 1.439 . S
C215 N216 1.374 . S
C215 C249 1.395 . S
N216 C212 1.376 . S
N216 C215 1.374 . S
N216 Co217 2.008 . S
Co217 N216 2.008 . S
Co217 N218 1.995 . S
Co217 N223 2.008 . S
Co217 N228 1.995 . S
Co217 N233 2.282 . S
Co217 N239 2.282 . S
N218 Co217 1.995 . S
N218 C219 1.376 . S
N218 C222 1.383 . S
C219 N218 1.376 . S
C219 C220 1.446 . S
C219 C249 1.391 . S
C220 C219 1.446 . S
C220 C221 1.339 . S
C220 H255 0.949 . S
C221 C220 1.339 . S
C221 C222 1.439 . S
C221 H256 0.950 . S
C222 N218 1.383 . S
C222 C221 1.439 . S
C222 C251 1.392 . S
N223 Co217 2.008 . S
N223 C224 1.376 . S
N223 C227 1.374 1_455 S
C224 N223 1.376 . S
C224 C225 1.443 1_455 S
C224 C251 1.389 . S
C225 C224 1.443 1_655 S
C225 C226 1.340 . S
C225 H257 0.951 . S
C226 C225 1.340 . S
C226 C227 1.439 . S
C226 H258 0.950 . S
C227 N223 1.374 1_655 S
C227 C226 1.439 . S
C227 C252 1.395 . S
N228 Co217 1.995 . S
N228 C229 1.376 . S
N228 C232 1.383 . S
C229 N228 1.376 . S
C229 C230 1.446 1_455 S
C229 C252 1.391 1_455 S
C230 C229 1.446 1_655 S
C230 C231 1.335 1_655 S
C230 H259 0.953 . S
C231 C230 1.335 1_455 S
C231 C232 1.439 . S
C231 H260 0.950 . S
C232 N228 1.383 . S
C232 C231 1.439 . S
C232 C250 1.392 . S
N233 Co217 2.282 . S
N233 C236 1.332 . S
N233 C238 1.332 . S
C234 C235 1.386 . S
C234 C237 1.388 . S
C235 C234 1.386 . S
C235 C236 1.382 . S
C235 H261 0.950 . S
C236 N233 1.332 . S
C236 C235 1.382 . S
C236 H247 0.952 . S
C237 C234 1.388 . S
C237 C238 1.382 . S
C237 H262 0.950 . S
C238 N233 1.332 . S
C238 C237 1.382 . S
C238 H248 0.948 . S
N239 Co217 2.282 . S
N239 C243 1.332 . S
N239 C244 1.332 . S
C240 C241 1.388 . S
C240 C244 1.382 . S
C240 H263 0.950 . S
C241 C240 1.388 . S
C241 C242 1.386 . S
C242 C241 1.386 . S
C242 C243 1.382 . S
C242 H264 0.950 . S
C243 N239 1.332 . S
C243 C242 1.382 . S
C243 H245 0.952 . S
C244 N239 1.332 . S
C244 C240 1.382 . S
C244 H246 0.948 . S
H245 C243 0.952 . S
H246 C244 0.948 . S
H247 C236 0.952 . S
H248 C238 0.948 . S
C249 C215 1.395 . S
C249 C219 1.391 . S
C250 C212 1.389 . S
C250 C232 1.392 . S
C251 C222 1.392 . S
C251 C224 1.389 . S
C252 C227 1.395 . S
C252 C229 1.391 1_655 S
H253 C213 0.951 . S
H254 C214 0.950 . S
H255 C220 0.949 . S
H256 C221 0.950 . S
H257 C225 0.951 . S
H258 C226 0.950 . S
H259 C230 0.953 . S
H260 C231 0.950 . S
H261 C235 0.950 . S
H262 C237 0.950 . S
H263 C240 0.950 . S
H264 C242 0.950 . S
C265 C266 1.443 . S
C265 N269 1.376 . S
C265 C303 1.389 . S
C266 C265 1.443 . S
C266 C267 1.340 . S
C266 H306 0.951 . S
C267 C266 1.340 . S
C267 C268 1.439 . S
C267 H307 0.950 . S
C268 C267 1.439 . S
C268 N269 1.374 . S
C268 C302 1.395 . S
N269 C265 1.376 . S
N269 C268 1.374 . S
N269 Co270 2.008 . S
Co270 N269 2.008 . S
Co270 N271 1.995 . S
Co270 N276 2.008 . S
Co270 N281 1.995 . S
Co270 N286 2.282 . S
Co270 N292 2.282 . S
N271 Co270 1.995 . S
N271 C272 1.376 . S
N271 C275 1.383 . S
C272 N271 1.376 . S
C272 C273 1.446 . S
C272 C302 1.391 . S
C273 C272 1.446 . S
C273 C274 1.339 . S
C273 H308 0.949 . S
C274 C273 1.339 . S
C274 C275 1.439 . S
C274 H309 0.950 . S
C275 N271 1.383 . S
C275 C274 1.439 . S
C275 C304 1.392 . S
N276 Co270 2.008 . S
N276 C277 1.376 . S
N276 C280 1.374 1_545 S
C277 N276 1.376 . S
C277 C278 1.443 1_545 S
C277 C304 1.389 . S
C278 C277 1.443 1_565 S
C278 C279 1.340 . S
C278 H310 0.951 . S
C279 C278 1.340 . S
C279 C280 1.439 . S
C279 H311 0.950 . S
C280 N276 1.374 1_565 S
C280 C279 1.439 . S
C280 C305 1.395 . S
N281 Co270 1.995 . S
N281 C282 1.376 . S
N281 C285 1.383 . S
C282 N281 1.376 . S
C282 C283 1.446 1_545 S
C282 C305 1.391 1_545 S
C283 C282 1.446 1_565 S
C283 C284 1.335 1_565 S
C283 H312 0.953 . S
C284 C283 1.335 1_545 S
C284 C285 1.439 . S
C284 H313 0.950 . S
C285 N281 1.383 . S
C285 C284 1.439 . S
C285 C303 1.392 . S
N286 Co270 2.282 . S
N286 C289 1.332 . S
N286 C291 1.332 . S
C287 C288 1.386 . S
C287 C290 1.388 . S
C288 C287 1.386 . S
C288 C289 1.382 . S
C288 H314 0.950 . S
C289 N286 1.332 . S
C289 C288 1.382 . S
C289 H300 0.952 . S
C290 C287 1.388 . S
C290 C291 1.382 . S
C290 H315 0.950 . S
C291 N286 1.332 . S
C291 C290 1.382 . S
C291 H301 0.948 . S
N292 Co270 2.282 . S
N292 C296 1.332 . S
N292 C297 1.332 . S
C293 C294 1.388 . S
C293 C297 1.382 . S
C293 H316 0.950 . S
C294 C293 1.388 . S
C294 C295 1.386 . S
C295 C294 1.386 . S
C295 C296 1.382 . S
C295 H317 0.950 . S
C296 N292 1.332 . S
C296 C295 1.382 . S
C296 H298 0.952 . S
C297 N292 1.332 . S
C297 C293 1.382 . S
C297 H299 0.948 . S
H298 C296 0.952 . S
H299 C297 0.948 . S
H300 C289 0.952 . S
H301 C291 0.948 . S
C302 C268 1.395 . S
C302 C272 1.391 . S
C303 C265 1.389 . S
C303 C285 1.392 . S
C304 C275 1.392 . S
C304 C277 1.389 . S
C305 C280 1.395 . S
C305 C282 1.391 1_565 S
H306 C266 0.951 . S
H307 C267 0.950 . S
H308 C273 0.949 . S
H309 C274 0.950 . S
H310 C278 0.951 . S
H311 C279 0.950 . S
H312 C283 0.953 . S
H313 C284 0.950 . S
H314 C288 0.950 . S
H315 C290 0.950 . S
H316 C293 0.950 . S
H317 C295 0.950 . S
C318 C319 1.443 . S
C318 N322 1.376 . S
C318 C356 1.389 . S
C319 C318 1.443 . S
C319 C320 1.340 . S
C319 H359 0.951 . S
C320 C319 1.340 . S
C320 C321 1.439 . S
C320 H360 0.950 . S
C321 C320 1.439 . S
C321 N322 1.374 . S
C321 C355 1.395 . S
N322 C318 1.376 . S
N322 C321 1.374 . S
N322 Co323 2.008 . S
Co323 N322 2.008 . S
Co323 N324 1.995 . S
Co323 N329 2.008 . S
Co323 N334 1.995 . S
Co323 N339 2.282 . S
Co323 N345 2.282 . S
N324 Co323 1.995 . S
N324 C325 1.376 . S
N324 C328 1.383 . S
C325 N324 1.376 . S
C325 C326 1.446 . S
C325 C355 1.391 . S
C326 C325 1.446 . S
C326 C327 1.339 . S
C326 H361 0.949 . S
C327 C326 1.339 . S
C327 C328 1.439 . S
C327 H362 0.950 . S
C328 N324 1.383 . S
C328 C327 1.439 . S
C328 C357 1.392 . S
N329 Co323 2.008 . S
N329 C330 1.376 . S
N329 C333 1.374 1_655 S
C330 N329 1.376 . S
C330 C331 1.443 1_655 S
C330 C357 1.389 . S
C331 C330 1.443 1_455 S
C331 C332 1.340 . S
C331 H363 0.951 . S
C332 C331 1.340 . S
C332 C333 1.439 . S
C332 H364 0.950 . S
C333 N329 1.374 1_455 S
C333 C332 1.439 . S
C333 C358 1.395 . S
N334 Co323 1.995 . S
N334 C335 1.376 . S
N334 C338 1.383 . S
C335 N334 1.376 . S
C335 C336 1.446 1_655 S
C335 C358 1.391 1_655 S
C336 C335 1.446 1_455 S
C336 C337 1.335 1_455 S
C336 H365 0.953 . S
C337 C336 1.335 1_655 S
C337 C338 1.439 . S
C337 H366 0.950 . S
C338 N334 1.383 . S
C338 C337 1.439 . S
C338 C356 1.392 . S
N339 Co323 2.282 . S
N339 C342 1.332 . S
N339 C344 1.332 . S
C340 C341 1.386 . S
C340 C343 1.388 . S
C341 C340 1.386 . S
C341 C342 1.382 . S
C341 H367 0.950 . S
C342 N339 1.332 . S
C342 C341 1.382 . S
C342 H353 0.952 . S
C343 C340 1.388 . S
C343 C344 1.382 . S
C343 H368 0.950 . S
C344 N339 1.332 . S
C344 C343 1.382 . S
C344 H354 0.948 . S
N345 Co323 2.282 . S
N345 C349 1.332 . S
N345 C350 1.332 . S
C346 C347 1.388 . S
C346 C350 1.382 . S
C346 H369 0.950 . S
C347 C346 1.388 . S
C347 C348 1.386 . S
C348 C347 1.386 . S
C348 C349 1.382 . S
C348 H370 0.950 . S
C349 N345 1.332 . S
C349 C348 1.382 . S
C349 H351 0.952 . S
C350 N345 1.332 . S
C350 C346 1.382 . S
C350 H352 0.948 . S
H351 C349 0.952 . S
H352 C350 0.948 . S
H353 C342 0.952 . S
H354 C344 0.948 . S
C355 C321 1.395 . S
C355 C325 1.391 . S
C356 C318 1.389 . S
C356 C338 1.392 . S
C357 C328 1.392 . S
C357 C330 1.389 . S
C358 C333 1.395 . S
C358 C335 1.391 1_455 S
H359 C319 0.951 . S
H360 C320 0.950 . S
H361 C326 0.949 . S
H362 C327 0.950 . S
H363 C331 0.951 . S
H364 C332 0.950 . S
H365 C336 0.953 . S
H366 C337 0.950 . S
H367 C341 0.950 . S
H368 C343 0.950 . S
H369 C346 0.950 . S
H370 C348 0.950 . S
C371 C372 1.443 . S
C371 N375 1.376 . S
C371 C409 1.389 . S
C372 C371 1.443 . S
C372 C373 1.340 . S
C372 H412 0.951 . S
C373 C372 1.340 . S
C373 C374 1.439 . S
C373 H413 0.950 . S
C374 C373 1.439 . S
C374 N375 1.374 . S
C374 C408 1.395 . S
N375 C371 1.376 . S
N375 C374 1.374 . S
N375 Co376 2.008 . S
Co376 N375 2.008 . S
Co376 N377 1.995 . S
Co376 N382 2.008 . S
Co376 N387 1.995 . S
Co376 N392 2.282 . S
Co376 N398 2.282 . S
N377 Co376 1.995 . S
N377 C378 1.376 . S
N377 C381 1.383 . S
C378 N377 1.376 . S
C378 C379 1.446 . S
C378 C408 1.391 . S
C379 C378 1.446 . S
C379 C380 1.339 . S
C379 H414 0.949 . S
C380 C379 1.339 . S
C380 C381 1.439 . S
C380 H415 0.950 . S
C381 N377 1.383 . S
C381 C380 1.439 . S
C381 C410 1.392 . S
N382 Co376 2.008 . S
N382 C383 1.376 . S
N382 C386 1.374 1_565 S
C383 N382 1.376 . S
C383 C384 1.443 1_565 S
C383 C410 1.389 . S
C384 C383 1.443 1_545 S
C384 C385 1.340 . S
C384 H416 0.951 . S
C385 C384 1.340 . S
C385 C386 1.439 . S
C385 H417 0.950 . S
C386 N382 1.374 1_545 S
C386 C385 1.439 . S
C386 C411 1.395 . S
N387 Co376 1.995 . S
N387 C388 1.376 . S
N387 C391 1.383 . S
C388 N387 1.376 . S
C388 C389 1.446 1_565 S
C388 C411 1.391 1_565 S
C389 C388 1.446 1_545 S
C389 C390 1.335 1_545 S
C389 H418 0.953 . S
C390 C389 1.335 1_565 S
C390 C391 1.439 . S
C390 H419 0.950 . S
C391 N387 1.383 . S
C391 C390 1.439 . S
C391 C409 1.392 . S
N392 Co376 2.282 . S
N392 C395 1.332 . S
N392 C397 1.332 . S
C393 C394 1.386 . S
C393 C396 1.388 . S
C394 C393 1.386 . S
C394 C395 1.382 . S
C394 H420 0.950 . S
C395 N392 1.332 . S
C395 C394 1.382 . S
C395 H406 0.952 . S
C396 C393 1.388 . S
C396 C397 1.382 . S
C396 H421 0.950 . S
C397 N392 1.332 . S
C397 C396 1.382 . S
C397 H407 0.948 . S
N398 Co376 2.282 . S
N398 C402 1.332 . S
N398 C403 1.332 . S
C399 C400 1.388 . S
C399 C403 1.382 . S
C399 H422 0.950 . S
C400 C399 1.388 . S
C400 C401 1.386 . S
C401 C400 1.386 . S
C401 C402 1.382 . S
C401 H423 0.950 . S
C402 N398 1.332 . S
C402 C401 1.382 . S
C402 H404 0.952 . S
C403 N398 1.332 . S
C403 C399 1.382 . S
C403 H405 0.948 . S
H404 C402 0.952 . S
H405 C403 0.948 . S
H406 C395 0.952 . S
H407 C397 0.948 . S
C408 C374 1.395 . S
C408 C378 1.391 . S
C409 C371 1.389 . S
C409 C391 1.392 . S
C410 C381 1.392 . S
C410 C383 1.389 . S
C411 C386 1.395 . S
C411 C388 1.391 1_545 S
H412 C372 0.951 . S
H413 C373 0.950 . S
H414 C379 0.949 . S
H415 C380 0.950 . S
H416 C384 0.951 . S
H417 C385 0.950 . S
H418 C389 0.953 . S
H419 C390 0.950 . S
H420 C394 0.950 . S
H421 C396 0.950 . S
H422 C399 0.950 . S
H423 C401 0.950 . S
H424 C436 0.930 . S
H425 C438 0.930 . S
H426 C439 0.930 . S
H427 C443 0.959 . S
H428 C443 0.959 . S
H429 C443 0.961 . S
H430 C444 0.960 . S
H431 C444 0.961 1_655 S
H432 C444 0.959 . S
H433 C447 0.929 1_455 S
H434 C448 0.931 . S
H435 C450 0.930 . S
C436 H424 0.930 . S
C436 C437 1.399 . S
C436 C441 1.399 . S
C437 C436 1.399 . S
C437 C438 1.376 . S
C438 H425 0.930 . S
C438 C437 1.376 . S
C438 C439 1.388 . S
C439 H426 0.930 . S
C439 C438 1.388 . S
C439 C440 1.390 . S
C440 C439 1.390 . S
C440 C441 1.394 . S
C440 C446 1.466 1_455 S
C441 C436 1.399 . S
C441 C440 1.394 . S
C441 C442 1.516 1_455 S
C442 C441 1.516 1_655 S
C442 C443 1.502 . S
C442 C444 1.561 1_655 S
C442 C445 1.526 . S
C443 H427 0.959 . S
C443 H428 0.959 . S
C443 H429 0.961 . S
C443 C442 1.502 . S
C444 H430 0.960 . S
C444 H431 0.961 1_455 S
C444 H432 0.959 . S
C444 C442 1.561 1_455 S
C445 C442 1.526 . S
C445 C446 1.395 . S
C445 C450 1.390 . S
C446 C440 1.466 1_655 S
C446 C445 1.395 . S
C446 C447 1.399 . S
C447 H433 0.929 1_655 S
C447 C446 1.399 . S
C447 C448 1.385 . S
C448 H434 0.931 . S
C448 C447 1.385 . S
C448 C449 1.389 . S
C449 C448 1.389 . S
C449 C450 1.387 . S
C450 H435 0.930 . S
C450 C445 1.390 . S
C450 C449 1.387 . S
H451 C463 0.930 . S
H452 C465 0.930 1_545 S
H453 C466 0.930 . S
H454 C470 0.959 . S
H455 C470 0.959 . S
H456 C470 0.961 . S
H457 C471 0.960 . S
H458 C471 0.961 . S
H459 C471 0.959 . S
H460 C474 0.929 . S
H461 C475 0.931 . S
H462 C477 0.930 1_565 S
C463 H451 0.930 . S
C463 C464 1.399 . S
C463 C468 1.399 . S
C464 C463 1.399 . S
C464 C465 1.376 . S
C465 H452 0.930 1_565 S
C465 C464 1.376 . S
C465 C466 1.388 1_565 S
C466 H453 0.930 . S
C466 C465 1.388 1_545 S
C466 C467 1.390 . S
C467 C466 1.390 . S
C467 C468 1.394 1_545 S
C467 C473 1.465 . S
C468 C463 1.399 . S
C468 C467 1.394 1_565 S
C468 C469 1.516 . S
C469 C468 1.516 . S
C469 C470 1.502 . S
C469 C471 1.561 . S
C469 C472 1.526 1_565 S
C470 H454 0.959 . S
C470 H455 0.959 . S
C470 H456 0.961 . S
C470 C469 1.502 . S
C471 H457 0.960 . S
C471 H458 0.961 . S
C471 H459 0.959 . S
C471 C469 1.561 . S
C472 C469 1.526 1_545 S
C472 C473 1.396 . S
C472 C477 1.390 . S
C473 C467 1.465 . S
C473 C472 1.396 . S
C473 C474 1.399 . S
C474 H460 0.929 . S
C474 C473 1.399 . S
C474 C475 1.385 . S
C475 H461 0.931 . S
C475 C474 1.385 . S
C475 C476 1.389 . S
C476 C475 1.389 . S
C476 C477 1.387 . S
C477 H462 0.930 1_545 S
C477 C472 1.390 . S
C477 C476 1.387 . S
H478 C490 0.930 . S
H479 C492 0.930 . S
H480 C493 0.930 . S
H481 C497 0.959 . S
H482 C497 0.959 . S
H483 C497 0.961 . S
H484 C498 0.960 . S
H485 C498 0.961 . S
H486 C498 0.959 . S
H487 C501 0.929 1_655 S
H488 C502 0.931 . S
H489 C504 0.930 . S
C490 H478 0.930 . S
C490 C491 1.399 . S
C490 C495 1.399 . S
C491 C490 1.399 . S
C491 C492 1.376 . S
C492 H479 0.930 . S
C492 C491 1.376 . S
C492 C493 1.388 . S
C493 H480 0.930 . S
C493 C492 1.388 . S
C493 C494 1.390 . S
C494 C493 1.390 . S
C494 C495 1.394 . S
C494 C500 1.465 1_655 S
C495 C490 1.399 . S
C495 C494 1.394 . S
C495 C496 1.516 1_655 S
C496 C495 1.516 1_455 S
C496 C497 1.502 . S
C496 C498 1.561 1_455 S
C496 C499 1.526 . S
C497 H481 0.959 . S
C497 H482 0.959 . S
C497 H483 0.961 . S
C497 C496 1.502 . S
C498 H484 0.960 . S
C498 H485 0.961 . S
C498 H486 0.959 . S
C498 C496 1.561 1_655 S
C499 C496 1.526 . S
C499 C500 1.396 . S
C499 C504 1.390 . S
C500 C494 1.465 1_455 S
C500 C499 1.396 . S
C500 C501 1.399 . S
C501 H487 0.929 1_455 S
C501 C500 1.399 . S
C501 C502 1.385 . S
C502 H488 0.931 . S
C502 C501 1.385 . S
C502 C503 1.389 . S
C503 C502 1.389 . S
C503 C504 1.387 . S
C504 H489 0.930 . S
C504 C499 1.390 . S
C504 C503 1.387 . S
H505 C517 0.930 . S
H506 C519 0.930 . S
H507 C520 0.930 . S
H508 C524 0.959 . S
H509 C524 0.959 . S
H510 C524 0.961 . S
H511 C525 0.960 . S
H512 C525 0.961 . S
H513 C525 0.959 . S
H514 C528 0.929 . S
H515 C529 0.931 . S
H516 C531 0.930 . S
C517 H505 0.930 . S
C517 C518 1.399 . S
C517 C522 1.399 . S
C518 C517 1.399 . S
C518 C519 1.376 . S
C519 H506 0.930 . S
C519 C518 1.376 . S
C519 C520 1.388 . S
C520 H507 0.930 . S
C520 C519 1.388 . S
C520 C521 1.390 . S
C521 C520 1.390 . S
C521 C522 1.394 . S
C521 C527 1.465 1_545 S
C522 C517 1.399 . S
C522 C521 1.394 . S
C522 C523 1.516 . S
C523 C522 1.516 . S
C523 C524 1.502 1_545 S
C523 C525 1.561 . S
C523 C526 1.526 1_545 S
C524 H508 0.959 . S
C524 H509 0.959 . S
C524 H510 0.961 . S
C524 C523 1.502 1_565 S
C525 H511 0.960 . S
C525 H512 0.961 . S
C525 H513 0.959 . S
C525 C523 1.561 . S
C526 C523 1.526 1_565 S
C526 C527 1.396 . S
C526 C531 1.390 . S
C527 C521 1.465 1_565 S
C527 C526 1.396 . S
C527 C528 1.399 . S
C528 H514 0.929 . S
C528 C527 1.399 . S
C528 C529 1.385 . S
C529 H515 0.931 . S
C529 C528 1.385 . S
C529 C530 1.389 . S
C530 C529 1.389 . S
C530 C531 1.387 . S
C531 H516 0.930 . S
C531 C526 1.390 . S
C531 C530 1.387 . S
H532 C544 0.930 . S
H533 C546 0.930 . S
H534 C547 0.930 . S
H535 C551 0.959 . S
H536 C551 0.959 . S
H537 C551 0.961 1_556 S
H538 C552 0.941 1_556 S
H539 C552 0.981 . S
H540 C552 0.957 1_456 S
H541 C555 0.929 . S
H542 C556 0.931 . S
H543 C558 0.933 . S
C544 H532 0.930 . S
C544 C545 1.399 . S
C544 C549 1.399 . S
C545 C544 1.399 . S
C545 C546 1.376 1_655 S
C546 H533 0.930 . S
C546 C545 1.376 1_455 S
C546 C547 1.388 . S
C547 H534 0.930 . S
C547 C546 1.388 . S
C547 C548 1.390 . S
C548 C547 1.390 . S
C548 C549 1.394 1_455 S
C548 C554 1.465 1_556 S
C549 C544 1.399 . S
C549 C548 1.394 1_655 S
C549 C550 1.516 1_556 S
C550 C549 1.516 1_554 S
C550 C551 1.502 . S
C550 C552 1.563 . S
C550 C553 1.526 . S
C551 H535 0.959 . S
C551 H536 0.959 . S
C551 H537 0.961 1_554 S
C551 C550 1.502 . S
C552 H538 0.941 1_554 S
C552 H539 0.981 . S
C552 H540 0.957 1_654 S
C552 C550 1.563 . S
C553 C550 1.526 . S
C553 C554 1.396 1_655 S
C553 C558 1.390 . S
C554 C548 1.465 1_554 S
C554 C553 1.396 1_455 S
C554 C555 1.399 . S
C555 H541 0.929 . S
C555 C554 1.399 . S
C555 C556 1.385 . S
C556 H542 0.931 . S
C556 C555 1.385 . S
C556 C557 1.389 . S
C557 C556 1.389 . S
C557 C558 1.383 1_455 S
C558 H543 0.933 . S
C558 C553 1.390 . S
C558 C557 1.383 1_655 S
H559 C571 0.930 . S
H560 C573 0.930 . S
H561 C574 0.930 . S
H562 C578 0.959 . S
H563 C578 0.959 . S
H564 C578 0.961 . S
H565 C579 0.960 . S
H566 C579 0.961 . S
H567 C579 0.959 . S
H568 C582 0.929 . S
H569 C583 0.931 . S
H570 C585 0.930 . S
C571 H559 0.930 . S
C571 C572 1.399 . S
C571 C576 1.399 . S
C572 C571 1.399 . S
C572 C573 1.376 1_545 S
C573 H560 0.930 . S
C573 C572 1.376 1_565 S
C573 C574 1.388 . S
C574 H561 0.930 . S
C574 C573 1.388 . S
C574 C575 1.390 . S
C575 C574 1.390 . S
C575 C576 1.394 1_565 S
C575 C581 1.465 . S
C576 C571 1.399 . S
C576 C575 1.394 1_545 S
C576 C577 1.516 . S
C577 C576 1.516 . S
C577 C578 1.502 . S
C577 C579 1.561 . S
C577 C580 1.526 . S
C578 H562 0.959 . S
C578 H563 0.959 . S
C578 H564 0.961 . S
C578 C577 1.502 . S
C579 H565 0.960 . S
C579 H566 0.961 . S
C579 H567 0.959 . S
C579 C577 1.561 . S
C580 C577 1.526 . S
C580 C581 1.396 1_545 S
C580 C585 1.390 . S
C581 C575 1.465 . S
C581 C580 1.396 1_565 S
C581 C582 1.399 . S
C582 H568 0.929 . S
C582 C581 1.399 . S
C582 C583 1.385 . S
C583 H569 0.931 . S
C583 C582 1.385 . S
C583 C584 1.389 . S
C584 C583 1.389 . S
C584 C585 1.387 1_565 S
C585 H570 0.930 . S
C585 C580 1.390 . S
C585 C584 1.387 1_545 S
H586 C598 0.930 . S
H587 C600 0.930 . S
H588 C601 0.930 . S
H589 C605 0.959 . S
H590 C605 0.959 . S
H591 C605 0.961 1_554 S
H592 C606 0.960 1_554 S
H593 C606 0.961 . S
H594 C606 0.959 . S
H595 C609 0.929 . S
H596 C610 0.931 . S
H597 C612 0.930 . S
C598 H586 0.930 . S
C598 C599 1.399 . S
C598 C603 1.399 . S
C599 C598 1.399 . S
C599 C600 1.376 1_655 S
C600 H587 0.930 . S
C600 C599 1.376 1_455 S
C600 C601 1.388 . S
C601 H588 0.930 . S
C601 C600 1.388 . S
C601 C602 1.390 . S
C602 C601 1.390 . S
C602 C603 1.394 1_455 S
C602 C608 1.465 1_554 S
C603 C598 1.399 . S
C603 C602 1.394 1_655 S
C603 C604 1.516 1_554 S
C604 C603 1.516 1_556 S
C604 C605 1.502 . S
C604 C606 1.561 . S
C604 C607 1.526 . S
C605 H589 0.959 . S
C605 H590 0.959 . S
C605 H591 0.961 1_556 S
C605 C604 1.502 . S
C606 H592 0.960 1_556 S
C606 H593 0.961 . S
C606 H594 0.959 . S
C606 C604 1.561 . S
C607 C604 1.526 . S
C607 C608 1.396 1_655 S
C607 C612 1.390 . S
C608 C602 1.465 1_556 S
C608 C607 1.396 1_455 S
C608 C609 1.399 . S
C609 H595 0.929 . S
C609 C608 1.399 . S
C609 C610 1.385 . S
C610 H596 0.931 . S
C610 C609 1.385 . S
C610 C611 1.389 . S
C611 C610 1.389 . S
C611 C612 1.387 1_455 S
C612 H597 0.930 . S
C612 C607 1.390 . S
C612 C611 1.387 1_655 S
H613 C625 0.930 . S
H614 C627 0.930 . S
H615 C628 0.930 . S
H616 C632 0.959 . S
H617 C632 0.959 . S
H618 C632 0.961 . S
H619 C633 0.960 . S
H620 C633 0.961 . S
H621 C633 0.959 . S
H622 C636 0.929 . S
H623 C637 0.931 . S
H624 C639 0.930 . S
C625 H613 0.930 . S
C625 C626 1.399 1_565 S
C625 C630 1.399 . S
C626 C625 1.399 1_545 S
C626 C627 1.376 . S
C627 H614 0.930 . S
C627 C626 1.376 . S
C627 C628 1.388 . S
C628 H615 0.930 . S
C628 C627 1.388 . S
C628 C629 1.390 . S
C629 C628 1.390 . S
C629 C630 1.394 1_545 S
C629 C635 1.465 . S
C630 C625 1.399 . S
C630 C629 1.394 1_565 S
C630 C631 1.516 . S
C631 C630 1.516 . S
C631 C632 1.502 . S
C631 C633 1.561 . S
C631 C634 1.526 . S
C632 H616 0.959 . S
C632 H617 0.959 . S
C632 H618 0.961 . S
C632 C631 1.502 . S
C633 H619 0.960 . S
C633 H620 0.961 . S
C633 H621 0.959 . S
C633 C631 1.561 . S
C634 C631 1.526 . S
C634 C635 1.396 1_565 S
C634 C639 1.390 . S
C635 C629 1.465 . S
C635 C634 1.396 1_545 S
C635 C636 1.399 . S
C636 H622 0.929 . S
C636 C635 1.399 . S
C636 C637 1.385 . S
C637 H623 0.931 . S
C637 C636 1.385 . S
C637 C638 1.389 1_545 S
C638 C637 1.389 1_565 S
C638 C639 1.387 . S
C639 H624 0.930 . S
C639 C634 1.390 . S
C639 C638 1.387 . S
H640 C652 0.930 . S
H641 C654 0.930 . S
H642 C655 0.930 . S
H643 C659 0.959 . S
H644 C659 0.959 . S
H645 C659 0.961 . S
H646 C660 0.960 . S
H647 C660 0.961 . S
H648 C660 0.959 . S
H649 C663 0.929 . S
H650 C664 0.931 . S
H651 C666 0.930 . S
C652 H640 0.930 . S
C652 C653 1.399 . S
C652 C657 1.399 . S
C653 C652 1.399 . S
C653 C654 1.376 . S
C654 H641 0.930 . S
C654 C653 1.376 . S
C654 C655 1.388 . S
C655 H642 0.930 . S
C655 C654 1.388 . S
C655 C656 1.390 . S
C656 C655 1.390 . S
C656 C657 1.394 . S
C656 C662 1.465 . S
C657 C652 1.399 . S
C657 C656 1.394 . S
C657 C658 1.516 . S
C658 C657 1.516 . S
C658 C659 1.502 . S
C658 C660 1.561 . S
C658 C661 1.526 . S
C659 H643 0.959 . S
C659 H644 0.959 . S
C659 H645 0.961 . S
C659 C658 1.502 . S
C660 H646 0.960 . S
C660 H647 0.961 . S
C660 H648 0.959 . S
C660 C658 1.561 . S
C661 C658 1.526 . S
C661 C662 1.396 . S
C661 C666 1.390 . S
C662 C656 1.465 . S
C662 C661 1.396 . S
C662 C663 1.399 . S
C663 H649 0.929 . S
C663 C662 1.399 . S
C663 C664 1.385 . S
C664 H650 0.931 . S
C664 C663 1.385 . S
C664 C665 1.389 . S
C665 C664 1.389 . S
C665 C666 1.387 . S
C666 H651 0.930 . S
C666 C661 1.390 . S
C666 C665 1.387 . S
H667 C679 0.930 . S
H668 C681 0.930 . S
H669 C682 0.930 . S
H670 C686 0.959 . S
H671 C686 0.959 . S
H672 C686 0.961 . S
H673 C687 0.960 . S
H674 C687 0.961 . S
H675 C687 0.959 . S
H676 C690 0.929 . S
H677 C691 0.931 . S
H678 C693 0.930 . S
C679 H667 0.930 . S
C679 C680 1.399 . S
C679 C684 1.399 . S
C680 C679 1.399 . S
C680 C681 1.376 . S
C681 H668 0.930 . S
C681 C680 1.376 . S
C681 C682 1.388 . S
C682 H669 0.930 . S
C682 C681 1.388 . S
C682 C683 1.390 . S
C683 C682 1.390 . S
C683 C684 1.394 . S
C683 C689 1.465 . S
C684 C679 1.399 . S
C684 C683 1.394 . S
C684 C685 1.516 . S
C685 C684 1.516 . S
C685 C686 1.502 . S
C685 C687 1.561 . S
C685 C688 1.526 . S
C686 H670 0.959 . S
C686 H671 0.959 . S
C686 H672 0.961 . S
C686 C685 1.502 . S
C687 H673 0.960 . S
C687 H674 0.961 . S
C687 H675 0.959 . S
C687 C685 1.561 . S
C688 C685 1.526 . S
C688 C689 1.396 . S
C688 C693 1.390 . S
C689 C683 1.465 . S
C689 C688 1.396 . S
C689 C690 1.399 . S
C690 H676 0.929 . S
C690 C689 1.399 . S
C690 C691 1.385 . S
C691 H677 0.931 . S
C691 C690 1.385 . S
C691 C692 1.389 . S
C692 C691 1.389 . S
C692 C693 1.387 . S
C693 H678 0.930 . S
C693 C688 1.390 . S
C693 C692 1.387 . S
H694 C706 0.930 . S
H695 C708 0.930 . S
H696 C709 0.930 . S
H697 C713 0.959 . S
H698 C713 0.959 . S
H699 C713 0.961 . S
H700 C714 0.960 . S
H701 C714 0.961 . S
H702 C714 0.959 . S
H703 C717 0.929 . S
H704 C718 0.931 . S
H705 C720 0.930 . S
C706 H694 0.930 . S
C706 C707 1.399 . S
C706 C711 1.399 . S
C707 C706 1.399 . S
C707 C708 1.376 . S
C708 H695 0.930 . S
C708 C707 1.376 . S
C708 C709 1.388 . S
C709 H696 0.930 . S
C709 C708 1.388 . S
C709 C710 1.390 . S
C710 C709 1.390 . S
C710 C711 1.394 . S
C710 C716 1.465 . S
C711 C706 1.399 . S
C711 C710 1.394 . S
C711 C712 1.516 . S
C712 C711 1.516 . S
C712 C713 1.502 . S
C712 C714 1.561 . S
C712 C715 1.526 . S
C713 H697 0.959 . S
C713 H698 0.959 . S
C713 H699 0.961 . S
C713 C712 1.502 . S
C714 H700 0.960 . S
C714 H701 0.961 . S
C714 H702 0.959 . S
C714 C712 1.561 . S
C715 C712 1.526 . S
C715 C716 1.396 . S
C715 C720 1.390 . S
C716 C710 1.465 . S
C716 C715 1.396 . S
C716 C717 1.399 . S
C717 H703 0.929 . S
C717 C716 1.399 . S
C717 C718 1.385 . S
C718 H704 0.931 . S
C718 C717 1.385 . S
C718 C719 1.389 . S
C719 C718 1.389 . S
C719 C720 1.387 . S
C720 H705 0.930 . S
C720 C715 1.390 . S
C720 C719 1.387 . S
H721 C733 0.930 . S
H722 C735 0.930 . S
H723 C736 0.930 . S
H724 C740 0.959 . S
H725 C740 0.959 . S
H726 C740 0.961 . S
H727 C741 0.960 . S
H728 C741 0.961 . S
H729 C741 0.959 . S
H730 C744 0.929 . S
H731 C745 0.931 . S
H732 C747 0.930 . S
C733 H721 0.930 . S
C733 C734 1.399 . S
C733 C738 1.399 . S
C734 C733 1.399 . S
C734 C735 1.376 . S
C735 H722 0.930 . S
C735 C734 1.376 . S
C735 C736 1.388 . S
C736 H723 0.930 . S
C736 C735 1.388 . S
C736 C737 1.390 . S
C737 C736 1.390 . S
C737 C738 1.394 . S
C737 C743 1.465 . S
C738 C733 1.399 . S
C738 C737 1.394 . S
C738 C739 1.516 . S
C739 C738 1.516 . S
C739 C740 1.502 . S
C739 C741 1.561 . S
C739 C742 1.526 . S
C740 H724 0.959 . S
C740 H725 0.959 . S
C740 H726 0.961 . S
C740 C739 1.502 . S
C741 H727 0.960 . S
C741 H728 0.961 . S
C741 H729 0.959 . S
C741 C739 1.561 . S
C742 C739 1.526 . S
C742 C743 1.396 . S
C742 C747 1.390 . S
C743 C737 1.465 . S
C743 C742 1.396 . S
C743 C744 1.399 . S
C744 H730 0.929 . S
C744 C743 1.399 . S
C744 C745 1.385 . S
C745 H731 0.931 . S
C745 C744 1.385 . S
C745 C746 1.389 . S
C746 C745 1.389 . S
C746 C747 1.387 . S
C747 H732 0.930 . S
C747 C742 1.390 . S
C747 C746 1.387 . S
H748 C760 0.930 . S
H749 C762 0.930 . S
H750 C763 0.930 . S
H751 C767 0.959 . S
H752 C767 0.959 . S
H753 C767 0.961 . S
H754 C768 0.960 1_455 S
H755 C768 0.961 1_565 S
H756 C768 0.959 1_465 S
H757 C771 0.929 . S
H758 C772 0.931 . S
H759 C774 0.930 . S
C760 H748 0.930 . S
C760 C761 1.399 . S
C760 C765 1.399 . S
C761 C760 1.399 . S
C761 C762 1.376 . S
C762 H749 0.930 . S
C762 C761 1.376 . S
C762 C763 1.388 . S
C763 H750 0.930 . S
C763 C762 1.388 . S
C763 C764 1.390 . S
C764 C763 1.390 . S
C764 C765 1.394 . S
C764 C770 1.465 1_545 S
C765 C760 1.399 . S
C765 C764 1.394 . S
C765 C766 1.516 1_455 S
C766 C765 1.516 1_655 S
C766 C767 1.502 . S
C766 C768 1.561 . S
C766 C769 1.526 1_545 S
C767 H751 0.959 . S
C767 H752 0.959 . S
C767 H753 0.961 . S
C767 C766 1.502 . S
C768 H754 0.960 1_655 S
C768 H755 0.961 1_545 S
C768 H756 0.959 1_645 S
C768 C766 1.561 . S
C769 C766 1.526 1_565 S
C769 C770 1.396 1_655 S
C769 C774 1.390 . S
C770 C764 1.465 1_565 S
C770 C769 1.396 1_455 S
C770 C771 1.399 . S
C771 H757 0.929 . S
C771 C770 1.399 . S
C771 C772 1.385 1_455 S
C772 H758 0.931 . S
C772 C771 1.385 1_655 S
C772 C773 1.389 . S
C773 C772 1.389 . S
C773 C774 1.387 . S
C774 H759 0.930 . S
C774 C769 1.390 . S
C774 C773 1.387 . S
H775 C787 0.930 . S
H776 C789 0.930 . S
H777 C790 0.930 . S
H778 C794 0.959 . S
H779 C794 0.959 . S
H780 C794 0.961 1_455 S
H781 C795 0.960 . S
H782 C795 0.961 . S
H783 C795 0.959 . S
H784 C798 0.929 . S
H785 C799 0.931 . S
H786 C801 0.930 . S
C787 H775 0.930 . S
C787 C788 1.399 . S
C787 C792 1.399 . S
C788 C787 1.399 . S
C788 C789 1.376 . S
C789 H776 0.930 . S
C789 C788 1.376 . S
C789 C790 1.388 . S
C790 H777 0.930 . S
C790 C789 1.388 . S
C790 C791 1.390 . S
C791 C790 1.390 . S
C791 C792 1.394 . S
C791 C797 1.465 1_465 S
C792 C787 1.399 . S
C792 C791 1.394 . S
C792 C793 1.516 1_565 S
C793 C792 1.516 1_545 S
C793 C794 1.502 1_445 S
C793 C795 1.561 . S
C793 C796 1.526 1_455 S
C794 H778 0.959 . S
C794 H779 0.959 . S
C794 H780 0.961 1_655 S
C794 C793 1.502 1_665 S
C795 H781 0.960 . S
C795 H782 0.961 . S
C795 H783 0.959 . S
C795 C793 1.561 . S
C796 C793 1.526 1_655 S
C796 C797 1.396 . S
C796 C801 1.390 . S
C797 C791 1.465 1_645 S
C797 C796 1.396 . S
C797 C798 1.399 . S
C798 H784 0.929 . S
C798 C797 1.399 . S
C798 C799 1.385 . S
C799 H785 0.931 . S
C799 C798 1.385 . S
C799 C800 1.389 . S
C800 C799 1.389 . S
C800 C801 1.387 . S
C801 H786 0.930 . S
C801 C796 1.390 . S
C801 C800 1.387 . S
H802 C814 0.930 . S
H803 C816 0.930 . S
H804 C817 0.930 . S
H805 C821 0.959 . S
H806 C821 0.959 . S
H807 C821 0.961 . S
H808 C822 0.960 . S
H809 C822 0.961 . S
H810 C822 0.959 . S
H811 C825 0.910 1_545 S
H812 C826 0.931 . S
H813 C828 0.930 . S
C814 H802 0.930 . S
C814 C815 1.399 . S
C814 C819 1.399 . S
C815 C814 1.399 . S
C815 C816 1.376 . S
C816 H803 0.930 . S
C816 C815 1.376 . S
C816 C817 1.388 1_655 S
C817 H804 0.930 . S
C817 C816 1.388 1_455 S
C817 C818 1.390 . S
C818 C817 1.390 . S
C818 C819 1.394 1_455 S
C818 C824 1.465 1_545 S
C819 C814 1.399 . S
C819 C818 1.394 1_655 S
C819 C820 1.516 1_545 S
C820 C819 1.516 1_565 S
C820 C821 1.502 . S
C820 C822 1.561 . S
C820 C823 1.526 1_655 S
C821 H805 0.959 . S
C821 H806 0.959 . S
C821 H807 0.961 . S
C821 C820 1.502 . S
C822 H808 0.960 . S
C822 H809 0.961 . S
C822 H810 0.959 . S
C822 C820 1.561 . S
C823 C820 1.526 1_455 S
C823 C824 1.396 . S
C823 C828 1.390 . S
C824 C818 1.465 1_565 S
C824 C823 1.396 . S
C824 C825 1.399 . S
C825 H811 0.910 1_565 S
C825 C824 1.399 . S
C825 C826 1.385 . S
C826 H812 0.931 . S
C826 C825 1.385 . S
C826 C827 1.389 . S
C827 C826 1.389 . S
C827 C828 1.387 . S
C828 H813 0.930 . S
C828 C823 1.390 . S
C828 C827 1.387 . S
H829 C841 0.930 . S
H830 C843 0.930 . S
H831 C844 0.930 . S
H832 C848 0.959 . S
H833 C848 0.946 1_455 S
H834 C848 0.961 . S
H835 C849 0.960 1_655 S
H836 C849 0.961 . S
H837 C849 0.959 . S
H838 C852 0.929 . S
H839 C853 0.931 . S
H840 C855 0.930 . S
C841 H829 0.930 . S
C841 C842 1.399 . S
C841 C846 1.399 . S
C842 C841 1.399 . S
C842 C843 1.376 . S
C843 H830 0.930 . S
C843 C842 1.376 . S
C843 C844 1.388 . S
C844 H831 0.930 . S
C844 C843 1.388 . S
C844 C845 1.390 . S
C845 C844 1.390 . S
C845 C846 1.394 . S
C845 C851 1.465 1_665 S
C846 C841 1.399 . S
C846 C845 1.394 . S
C846 C847 1.530 1_565 S
C847 C846 1.530 1_545 S
C847 C848 1.511 . S
C847 C849 1.552 1_645 S
C847 C850 1.511 1_655 S
C848 H832 0.959 . S
C848 H833 0.946 1_655 S
C848 H834 0.961 . S
C848 C847 1.511 . S
C849 H835 0.960 1_455 S
C849 H836 0.961 . S
C849 H837 0.959 . S
C849 C847 1.552 1_465 S
C850 C847 1.511 1_455 S
C850 C851 1.396 . S
C850 C855 1.390 . S
C851 C845 1.465 1_445 S
C851 C850 1.396 . S
C851 C852 1.399 . S
C852 H838 0.929 . S
C852 C851 1.399 . S
C852 C853 1.385 . S
C853 H839 0.931 . S
C853 C852 1.385 . S
C853 C854 1.389 . S
C854 C853 1.389 . S
C854 C855 1.387 . S
C855 H840 0.930 . S
C855 C850 1.390 . S
C855 C854 1.387 . S
C437 C22 1.886 . S
C449 C128 1.851 . S
C464 C181 1.837 . S
C476 C75 1.889 . S
C491 C340 1.884 . S
C503 C234 1.855 . S
C518 C287 1.876 . S
C530 C393 1.865 . S
C545 C357 1.798 . S
C557 C39 1.789 . S
C572 C92 1.779 . S
C584 C410 1.768 . S
C599 C145 1.786 . S
C611 C251 1.774 . S
C626 C304 1.781 . S
C638 C198 1.793 . S
C653 C38 1.839 . S
C665 C303 1.842 . S
C680 C356 1.863 . S
C692 C91 1.823 . S
C707 C409 1.856 . S
C719 C144 1.837 . S
C734 C197 1.822 . S
C746 C250 1.863 . S
C761 C29 1.698 . S
C773 C135 1.644 . S
C788 C188 1.644 . S
C800 C82 1.666 . S
C815 C347 1.628 . S
C827 C241 1.695 . S
C842 C400 1.688 . S
C854 C294 1.660 . S
