# Generated by pormake.
# Topology lcy-e, (6)-cn, num edge types: 1
# Building blocks:
#     Node 0, Type 0, BuildingBlock: BETDIP_clean_sbu_0, # of connection points: 6
#     Node 1, Type 0, BuildingBlock: BETDIP_clean_sbu_0, # of connection points: 6
#     Node 2, Type 0, BuildingBlock: BETDIP_clean_sbu_0, # of connection points: 6
#     Node 3, Type 0, BuildingBlock: BETDIP_clean_sbu_0, # of connection points: 6
#     Node 4, Type 0, BuildingBlock: BETDIP_clean_sbu_0, # of connection points: 6
#     Node 5, Type 0, BuildingBlock: BETDIP_clean_sbu_0, # of connection points: 6
#     Node 6, Type 0, BuildingBlock: BETDIP_clean_sbu_0, # of connection points: 6
#     Node 7, Type 0, BuildingBlock: BETDIP_clean_sbu_0, # of connection points: 6
#     Node 8, Type 0, BuildingBlock: BETDIP_clean_sbu_0, # of connection points: 6
#     Node 9, Type 0, BuildingBlock: BETDIP_clean_sbu_0, # of connection points: 6
#     Node 10, Type 0, BuildingBlock: BETDIP_clean_sbu_0, # of connection points: 6
#     Node 11, Type 0, BuildingBlock: BETDIP_clean_sbu_0, # of connection points: 6
#     Edge 12, Type (0, 0), BuildingBlock: TEMPAE_clean_linker_10, # of connection points: 2
#     Edge 13, Type (0, 0), BuildingBlock: TEMPAE_clean_linker_10, # of connection points: 2
#     Edge 14, Type (0, 0), BuildingBlock: TEMPAE_clean_linker_10, # of connection points: 2
#     Edge 15, Type (0, 0), BuildingBlock: TEMPAE_clean_linker_10, # of connection points: 2
#     Edge 16, Type (0, 0), BuildingBlock: TEMPAE_clean_linker_10, # of connection points: 2
#     Edge 17, Type (0, 0), BuildingBlock: TEMPAE_clean_linker_10, # of connection points: 2
#     Edge 18, Type (0, 0), BuildingBlock: TEMPAE_clean_linker_10, # of connection points: 2
#     Edge 19, Type (0, 0), BuildingBlock: TEMPAE_clean_linker_10, # of connection points: 2
#     Edge 20, Type (0, 0), BuildingBlock: TEMPAE_clean_linker_10, # of connection points: 2
#     Edge 21, Type (0, 0), BuildingBlock: TEMPAE_clean_linker_10, # of connection points: 2
#     Edge 22, Type (0, 0), BuildingBlock: TEMPAE_clean_linker_10, # of connection points: 2
#     Edge 23, Type (0, 0), BuildingBlock: TEMPAE_clean_linker_10, # of connection points: 2
#     Edge 24, Type (0, 0), BuildingBlock: TEMPAE_clean_linker_10, # of connection points: 2
#     Edge 25, Type (0, 0), BuildingBlock: TEMPAE_clean_linker_10, # of connection points: 2
#     Edge 26, Type (0, 0), BuildingBlock: TEMPAE_clean_linker_10, # of connection points: 2
#     Edge 27, Type (0, 0), BuildingBlock: TEMPAE_clean_linker_10, # of connection points: 2
#     Edge 28, Type (0, 0), BuildingBlock: TEMPAE_clean_linker_10, # of connection points: 2
#     Edge 29, Type (0, 0), BuildingBlock: TEMPAE_clean_linker_10, # of connection points: 2
#     Edge 30, Type (0, 0), BuildingBlock: TEMPAE_clean_linker_10, # of connection points: 2
#     Edge 31, Type (0, 0), BuildingBlock: TEMPAE_clean_linker_10, # of connection points: 2
#     Edge 32, Type (0, 0), BuildingBlock: TEMPAE_clean_linker_10, # of connection points: 2
#     Edge 33, Type (0, 0), BuildingBlock: TEMPAE_clean_linker_10, # of connection points: 2
#     Edge 34, Type (0, 0), BuildingBlock: TEMPAE_clean_linker_10, # of connection points: 2
#     Edge 35, Type (0, 0), BuildingBlock: TEMPAE_clean_linker_10, # of connection points: 2
#     Edge 36, Type (0, 0), BuildingBlock: TEMPAE_clean_linker_10, # of connection points: 2
#     Edge 37, Type (0, 0), BuildingBlock: TEMPAE_clean_linker_10, # of connection points: 2
#     Edge 38, Type (0, 0), BuildingBlock: TEMPAE_clean_linker_10, # of connection points: 2
#     Edge 39, Type (0, 0), BuildingBlock: TEMPAE_clean_linker_10, # of connection points: 2
#     Edge 40, Type (0, 0), BuildingBlock: TEMPAE_clean_linker_10, # of connection points: 2
#     Edge 41, Type (0, 0), BuildingBlock: TEMPAE_clean_linker_10, # of connection points: 2
#     Edge 42, Type (0, 0), BuildingBlock: TEMPAE_clean_linker_10, # of connection points: 2
#     Edge 43, Type (0, 0), BuildingBlock: TEMPAE_clean_linker_10, # of connection points: 2
#     Edge 44, Type (0, 0), BuildingBlock: TEMPAE_clean_linker_10, # of connection points: 2
#     Edge 45, Type (0, 0), BuildingBlock: TEMPAE_clean_linker_10, # of connection points: 2
#     Edge 46, Type (0, 0), BuildingBlock: TEMPAE_clean_linker_10, # of connection points: 2
#     Edge 47, Type (0, 0), BuildingBlock: TEMPAE_clean_linker_10, # of connection points: 2
# Relax obj value: 0.205
# Max RMSD: 0.300
# Mean RMSD: 0.278
data_MOF--net-lcy-e--node1-BETDIP_clean_sbu_0--edge1-TEMPAE_clean_linker_10
_symmetry_space_group_name_H-M    P1
_symmetry_Int_Tables_number       1
_symmetry_cell_setting            triclinic
loop_
_symmetry_equiv_pos_as_xyz
'x, y, z'
_cell_length_a     41.885402
_cell_length_b     45.390358
_cell_length_c     45.421685
_cell_angle_alpha  91.097291
_cell_angle_beta   90.563705
_cell_angle_gamma 88.216267
loop_
_atom_site_label
_atom_site_type_symbol
_atom_site_fract_x
_atom_site_fract_y
_atom_site_fract_z
_atom_type_partial_charge
Tb0 Tb 0.14659 0.25335 0.56069 0.0
Tb1 Tb 0.12256 0.29714 0.51513 0.0
C2 C 0.15827 0.22257 0.60499 0.0
C3 C 0.1474 0.19296 0.61275 0.0
C4 C 0.11596 0.18483 0.60607 0.0
C5 C 0.10464 0.15788 0.6151 0.0
C6 C 0.12452 0.13822 0.63089 0.0
C7 C 0.15635 0.14583 0.63672 0.0
C8 C 0.16765 0.17305 0.62783 0.0
C9 C 0.16645 0.24232 0.50587 0.0
C10 C 0.08645 0.23857 0.52244 0.0
C11 C 0.11367 0.32802 0.47019 0.0
C12 C 0.13091 0.34222 0.44644 0.0
C13 C 0.16403 0.34623 0.44757 0.0
C14 C 0.17961 0.35815 0.42344 0.0
C15 C 0.16231 0.36576 0.39776 0.0
C16 C 0.12915 0.36184 0.39704 0.0
C17 C 0.11368 0.35025 0.4211 0.0
C18 C 0.09272 0.29889 0.5671 0.0
C19 C 0.18055 0.31517 0.55529 0.0
O20 O 0.13554 0.24301 0.60387 0.0
O21 O 0.1782 0.22405 0.58297 0.0
O22 O 0.16304 0.2672 0.51839 0.0
O23 O 0.15921 0.22257 0.52465 0.0
O24 O 0.09973 0.23643 0.54886 0.0
O25 O 0.09625 0.25794 0.50349 0.0
O26 O 0.11505 0.29914 0.46966 0.0
O27 O 0.11588 0.33922 0.49697 0.0
O28 O 0.12136 0.29392 0.5614 0.0
O29 O 0.07881 0.306 0.54247 0.0
O30 O 0.16517 0.31952 0.53008 0.0
O31 O 0.1761 0.2916 0.57163 0.0
H32 H 0.09976 0.19962 0.59441 0.0
H33 H 0.08017 0.15252 0.60993 0.0
H34 H 0.17218 0.13116 0.649 0.0
H35 H 0.19195 0.17879 0.63322 0.0
H36 H 0.17782 0.33983 0.46684 0.0
H37 H 0.2052 0.3608 0.42459 0.0
H38 H 0.11508 0.36787 0.37782 0.0
H39 H 0.08814 0.34718 0.41975 0.0
Tb40 Tb 0.99589 0.90603 0.74332 0.0
Tb41 Tb 0.04731 0.92096 0.7882 0.0
C42 C 0.94899 0.90984 0.70835 0.0
C43 C 0.94274 0.91907 0.67757 0.0
C44 C 0.94872 0.94777 0.66822 0.0
C45 C 0.94049 0.95642 0.63956 0.0
C46 C 0.92633 0.93654 0.61956 0.0
C47 C 0.92119 0.90766 0.62879 0.0
C48 C 0.92919 0.8991 0.65744 0.0
C49 C 0.04666 0.87129 0.74006 0.0
C50 C 0.0441 0.95879 0.73179 0.0
C51 C 0.09538 0.92062 0.82206 0.0
C52 C 0.11852 0.9008 0.83764 0.0
C53 C 0.14292 0.88505 0.82238 0.0
C54 C 0.16733 0.86993 0.83773 0.0
C55 C 0.16821 0.87058 0.86866 0.0
C56 C 0.14332 0.88558 0.88388 0.0
C57 C 0.11879 0.9005 0.86855 0.0
C58 C 0.99224 0.95184 0.7922 0.0
C59 C 1.00088 0.87025 0.80155 0.0
O60 O 0.95613 0.93044 0.72771 0.0
O61 O 0.96632 0.88563 0.71184 0.0
O62 O 0.04685 0.89867 0.74611 0.0
O63 O 0.01826 0.86385 0.73199 0.0
O64 O 0.01914 0.94353 0.72282 0.0
O65 O 0.0599 0.95278 0.75625 0.0
O66 O 0.09694 0.92111 0.79329 0.0
O67 O 0.06588 0.92249 0.83148 0.0
O68 O 0.99672 0.92523 0.78571 0.0
O69 O 0.01969 0.96223 0.79984 0.0
O70 O 0.03097 0.87828 0.80229 0.0
O71 O 0.98039 0.88195 0.78209 0.0
H72 H 0.95929 0.96371 0.68312 0.0
H73 H 0.94502 0.97875 0.63312 0.0
H74 H 0.90991 0.8919 0.61417 0.0
H75 H 0.92417 0.87692 0.66408 0.0
H76 H 0.1438 0.88512 0.79856 0.0
H77 H 0.18625 0.85874 0.82537 0.0
H78 H 0.14313 0.88623 0.90773 0.0
H79 H 0.10061 0.91269 0.88095 0.0
Tb80 Tb 0.37606 0.7936 0.053 0.0
Tb81 Tb 0.39908 0.75605 1.00115 0.0
C82 C 0.37068 0.827 0.09763 0.0
C83 C 0.38551 0.85456 0.10802 0.0
C84 C 0.41878 0.85662 0.11158 0.0
C85 C 0.43203 0.88299 0.12157 0.0
C86 C 0.41232 0.90793 0.12776 0.0
C87 C 0.37913 0.90594 0.12379 0.0
C88 C 0.36588 0.8795 0.11419 0.0
C89 C 0.33807 0.79415 1.00664 0.0
C90 C 0.43312 0.81519 1.01238 0.0
C91 C 0.40207 0.7288 0.95235 0.0
C92 C 0.38191 0.71463 0.92944 0.0
C93 C 0.3595 0.73109 0.91265 0.0
C94 C 0.34468 0.71838 0.8879 0.0
C95 C 0.35182 0.68893 0.8795 0.0
C96 C 0.37313 0.6722 0.89712 0.0
C97 C 0.38807 0.68494 0.92171 0.0
C98 C 0.43481 0.75224 0.04968 0.0
C99 C 0.3484 0.73101 0.04476 0.0
O100 O 0.38868 0.80286 0.09698 0.0
O101 O 0.35236 0.8293 0.07425 0.0
O102 O 0.36826 0.79434 1.00612 0.0
O103 O 0.32848 0.7951 0.03366 0.0
O104 O 0.41657 0.8185 0.03702 0.0
O105 O 0.42846 0.79323 0.9936 0.0
O106 O 0.3993 0.7575 0.95526 0.0
O107 O 0.40574 0.71576 0.97773 0.0
O108 O 0.40514 0.75535 0.04761 0.0
O109 O 0.44549 0.74631 0.02341 0.0
O110 O 0.35785 0.73243 0.01703 0.0
O111 O 0.35622 0.75148 0.06461 0.0
H112 H 0.43462 0.83796 0.10665 0.0
H113 H 0.45771 0.88398 0.12423 0.0
H114 H 0.36333 0.92471 0.12869 0.0
H115 H 0.34019 0.87852 0.11161 0.0
H116 H 0.35418 0.75407 0.91795 0.0
H117 H 0.32811 0.73176 0.87501 0.0
H118 H 0.37948 0.64958 0.89111 0.0
H119 H 0.40548 0.67185 0.934 0.0
Tb120 Tb 0.52068 0.14992 0.24544 0.0
Tb121 Tb 0.46696 0.13391 0.28653 0.0
C122 C 0.57121 0.15732 0.21746 0.0
C123 C 0.58142 0.15088 0.18686 0.0
C124 C 0.61225 0.15777 0.17811 0.0
C125 C 0.62328 0.14952 0.15001 0.0
C126 C 0.60371 0.1341 0.12994 0.0
C127 C 0.57253 0.12765 0.13872 0.0
C128 C 0.56153 0.13594 0.16687 0.0
C129 C 0.46286 0.1713 0.23073 0.0
C130 C 0.47832 0.09599 0.22961 0.0
C131 C 0.41667 0.13179 0.31636 0.0
C132 C 0.39207 0.14989 0.3324 0.0
C133 C 0.3998 0.17122 0.35397 0.0
C134 C 0.37558 0.18586 0.37038 0.0
C135 C 0.34314 0.17947 0.36561 0.0
C136 C 0.33568 0.15854 0.34353 0.0
C137 C 0.35978 0.14401 0.32721 0.0
C138 C 0.52192 0.1027 0.2913 0.0
C139 C 0.51143 0.18513 0.30665 0.0
O140 O 0.5661 0.13402 0.23316 0.0
O141 O 0.54906 0.17813 0.22131 0.0
O142 O 0.47437 0.16877 0.2563 0.0
O143 O 0.48451 0.16189 0.21241 0.0
O144 O 0.50738 0.10651 0.22848 0.0
O145 O 0.45646 0.10772 0.2474 0.0
O146 O 0.41686 0.13374 0.28758 0.0
O147 O 0.44554 0.12939 0.32777 0.0
O148 O 0.51741 0.12933 0.28619 0.0
O149 O 0.4942 0.09199 0.29647 0.0
O150 O 0.48306 0.17342 0.30888 0.0
O151 O 0.53105 0.17803 0.28449 0.0
H152 H 0.62813 0.16896 0.19329 0.0
H153 H 0.64757 0.15445 0.14438 0.0
H154 H 0.55665 0.11608 0.12387 0.0
H155 H 0.53767 0.13023 0.17324 0.0
H156 H 0.42449 0.17624 0.35849 0.0
H157 H 0.38231 0.20206 0.38692 0.0
H158 H 0.31118 0.15254 0.33946 0.0
H159 H 0.35317 0.12749 0.31092 0.0
Tb160 Tb 0.63456 0.25343 0.56114 0.0
Tb161 Tb 0.65201 0.30335 0.52024 0.0
C162 C 0.63382 0.20987 0.59498 0.0
C163 C 0.6504 0.19981 0.62213 0.0
C164 C 0.66571 0.21956 0.64141 0.0
C165 C 0.67953 0.20965 0.6679 0.0
C166 C 0.67828 0.17978 0.67572 0.0
C167 C 0.66333 0.1601 0.65597 0.0
C168 C 0.64964 0.17001 0.62954 0.0
C169 C 0.59689 0.30059 0.56375 0.0
C170 C 0.69142 0.29714 0.57834 0.0
C171 C 0.6508 0.34979 0.49036 0.0
C172 C 0.62897 0.37244 0.47693 0.0
C173 C 0.60878 0.39102 0.49421 0.0
C174 C 0.59242 0.4153 0.48177 0.0
C175 C 0.5958 0.42166 0.45173 0.0
C176 C 0.61498 0.40231 0.43431 0.0
C177 C 0.63137 0.37811 0.44676 0.0
C178 C 0.68734 0.25366 0.51535 0.0
C179 C 0.59842 0.25988 0.50091 0.0
O180 O 0.65077 0.21032 0.57098 0.0
O181 O 0.61493 0.23323 0.59767 0.0
O182 O 0.62685 0.30038 0.56082 0.0
O183 O 0.58749 0.27392 0.56698 0.0
O184 O 0.67691 0.27207 0.5831 0.0
O185 O 0.68381 0.31415 0.55598 0.0
O186 O 0.65261 0.34937 0.51913 0.0
O187 O 0.65212 0.32321 0.47853 0.0
O188 O 0.65825 0.25667 0.52077 0.0
O189 O 0.69703 0.2793 0.50767 0.0
O190 O 0.60687 0.28773 0.50241 0.0
O191 O 0.60965 0.2404 0.5203 0.0
H192 H 0.66658 0.24269 0.63621 0.0
H193 H 0.69114 0.22543 0.68226 0.0
H194 H 0.66135 0.13708 0.66128 0.0
H195 H 0.63785 0.1544 0.61509 0.0
H196 H 0.6064 0.38744 0.51756 0.0
H197 H 0.57753 0.42939 0.49583 0.0
H198 H 0.61856 0.40659 0.41122 0.0
H199 H 0.64702 0.36447 0.43295 0.0
Tb200 Tb 0.98685 0.40564 0.78181 0.0
Tb201 Tb 0.032 0.38364 0.82989 0.0
C202 C 0.9583 0.4163 0.73419 0.0
C203 C 0.92772 0.40663 0.72177 0.0
C204 C 0.92285 0.40689 0.69123 0.0
C205 C 0.89628 0.39349 0.67858 0.0
C206 C 0.87412 0.37948 0.69626 0.0
C207 C 0.8786 0.38003 0.727 0.0
C208 C 0.9053 0.39334 0.73964 0.0
C209 C 0.97197 0.42446 0.83605 0.0
C210 C 0.96947 0.35018 0.81736 0.0
C211 C 0.06326 0.37517 0.87673 0.0
C212 C 0.07628 0.3905 0.90308 0.0
C213 C 0.09669 0.41442 0.90144 0.0
C214 C 0.10933 0.42722 0.92729 0.0
C215 C 0.10165 0.41644 0.9552 0.0
C216 C 0.08091 0.39276 0.95655 0.0
C217 C 0.06847 0.37998 0.93087 0.0
C218 C 0.03688 0.35675 0.77714 0.0
C219 C 0.05108 0.43975 0.79505 0.0
O220 O 0.97952 0.39482 0.73744 0.0
O221 O 0.95713 0.43431 0.75714 0.0
O222 O 0.99945 0.42064 0.82541 0.0
O223 O 0.9515 0.41785 0.81553 0.0
O224 O 0.96817 0.36226 0.7911 0.0
O225 O 0.98884 0.36007 0.83807 0.0
O226 O 0.03204 0.37476 0.87485 0.0
O227 O 0.07675 0.3786 0.85108 0.0
O228 O 0.03134 0.38318 0.78337 0.0
O229 O 0.04266 0.34347 0.80174 0.0
O230 O 0.05547 0.42401 0.8191 0.0
O231 O 0.02658 0.43567 0.77667 0.0
H232 H 0.94014 0.41664 0.67707 0.0
H233 H 0.89326 0.39377 0.65487 0.0
H234 H 0.86213 0.36923 0.74118 0.0
H235 H 0.90904 0.39237 0.76324 0.0
H236 H 0.10304 0.42306 0.88029 0.0
H237 H 0.12506 0.44557 0.92545 0.0
H238 H 0.07489 0.3835 0.97751 0.0
H239 H 0.05295 0.36145 0.93272 0.0
Tb240 Tb 0.89008 0.79169 0.05403 0.0
Tb241 Tb 0.87716 0.73929 1.01416 0.0
C242 C 0.89547 0.84025 0.08126 0.0
C243 C 0.88374 0.85101 0.11026 0.0
C244 C 0.88335 0.88122 0.11728 0.0
C245 C 0.871 0.89173 0.14422 0.0
C246 C 0.85861 0.87223 0.16471 0.0
C247 C 0.85913 0.84189 0.15751 0.0
C248 C 0.87154 0.83142 0.13059 0.0
C249 C 0.92307 0.74262 0.06604 0.0
C250 C 0.8377 0.74926 0.07432 0.0
C251 C 0.87162 0.68693 0.99561 0.0
C252 C 0.88748 0.66069 0.98176 0.0
C253 C 0.87696 0.63287 0.98946 0.0
C254 C 0.88974 0.60723 0.97605 0.0
C255 C 0.91357 0.60868 0.95455 0.0
C256 C 0.9245 0.63669 0.94714 0.0
C257 C 0.91157 0.66249 0.96064 0.0
C258 C 0.84377 0.78803 1.00185 0.0
C259 C 0.92297 0.78422 0.99071 0.0
O260 O 0.87332 0.83521 0.06155 0.0
O261 O 0.91745 0.81912 0.08153 0.0
O262 O 0.91677 0.75231 0.04075 0.0
O263 O 0.91172 0.76116 0.08555 0.0
O264 O 0.84996 0.77551 0.07822 0.0
O265 O 0.84599 0.73177 0.05179 0.0
O266 O 0.88057 0.69397 0.02246 0.0
O267 O 0.86546 0.71009 0.97948 0.0
O268 O 0.85143 0.77866 0.0269 0.0
O269 O 0.85216 0.7681 0.98232 0.0
O270 O 0.918 0.75564 0.99181 0.0
O271 O 0.91199 0.80276 1.0116 0.0
H272 H 0.89249 0.89673 0.10186 0.0
H273 H 0.87146 0.91516 0.14909 0.0
H274 H 0.84946 0.82623 0.17248 0.0
H275 H 0.87138 0.80801 0.12556 0.0
H276 H 0.85828 0.63097 1.00559 0.0
H277 H 0.88023 0.58628 0.98202 0.0
H278 H 0.94304 0.63869 0.93092 0.0
H279 H 0.92015 0.68374 0.95442 0.0
Tb280 Tb 0.48976 0.65905 0.31399 0.0
Tb281 Tb 0.54638 0.63474 0.2816 0.0
C282 C 0.4399 0.66569 0.3441 0.0
C283 C 0.42787 0.65189 0.37083 0.0
C284 C 0.4301 0.62121 0.37468 0.0
C285 C 0.41991 0.60889 0.40089 0.0
C286 C 0.40757 0.62703 0.42381 0.0
C287 C 0.40524 0.65767 0.41975 0.0
C288 C 0.41524 0.66993 0.39353 0.0
C289 C 0.53867 0.69382 0.31561 0.0
C290 C 0.53411 0.60648 0.3413 0.0
C291 C 0.59809 0.62636 0.25444 0.0
C292 C 0.62001 0.64202 0.23566 0.0
C293 C 0.61589 0.67227 0.23031 0.0
C294 C 0.63854 0.68686 0.21389 0.0
C295 C 0.6657 0.6714 0.2029 0.0
C296 C 0.66923 0.641 0.20796 0.0
C297 C 0.64659 0.6265 0.22417 0.0
C298 C 0.49319 0.60425 0.27646 0.0
C299 C 0.50136 0.68285 0.25112 0.0
O300 O 0.44166 0.64923 0.32012 0.0
O301 O 0.46515 0.68158 0.34802 0.0
O302 O 0.54053 0.66591 0.31774 0.0
O303 O 0.50902 0.7026 0.31414 0.0
O304 O 0.50616 0.62111 0.34108 0.0
O305 O 0.55585 0.61109 0.3214 0.0
O306 O 0.59625 0.63577 0.28178 0.0
O307 O 0.57014 0.6202 0.24321 0.0
O308 O 0.49618 0.63147 0.27695 0.0
O309 O 0.5216 0.59203 0.277 0.0
O310 O 0.53102 0.67239 0.25474 0.0
O311 O 0.47886 0.67723 0.2705 0.0
H312 H 0.44 0.60678 0.35759 0.0
H313 H 0.4222 0.58524 0.40344 0.0
H314 H 0.39542 0.67219 0.4368 0.0
H315 H 0.41336 0.69362 0.39106 0.0
H316 H 0.59555 0.68464 0.23923 0.0
H317 H 0.63525 0.7103 0.21043 0.0
H318 H 0.68955 0.62838 0.19935 0.0
H319 H 0.65011 0.60314 0.22811 0.0
Tb320 Tb 0.2776 0.48331 0.16257 0.0
Tb321 Tb 0.2247 0.52712 0.1807 0.0
C322 C 0.32765 0.45293 0.15286 0.0
C323 C 0.33706 0.42195 0.15853 0.0
C324 C 0.31802 0.40449 0.17605 0.0
C325 C 0.32829 0.37586 0.18339 0.0
C326 C 0.3578 0.3641 0.17331 0.0
C327 C 0.37636 0.38152 0.15512 0.0
C328 C 0.36611 0.41017 0.14789 0.0
C329 C 0.2196 0.47149 0.14167 0.0
C330 C 0.23552 0.47012 0.21719 0.0
C331 C 0.17454 0.55889 0.18403 0.0
C332 C 0.15052 0.57452 0.16542 0.0
C333 C 0.11811 0.57174 0.17192 0.0
C334 C 0.09451 0.58725 0.15607 0.0
C335 C 0.1027 0.60602 0.13322 0.0
C336 C 0.13527 0.60843 0.12636 0.0
C337 C 0.15898 0.59278 0.14227 0.0
C338 C 0.27944 0.52998 0.21108 0.0
C339 C 0.2686 0.5436 0.12801 0.0
O340 O 0.32322 0.46943 0.17656 0.0
O341 O 0.30525 0.45742 0.1329 0.0
O342 O 0.23166 0.49634 0.14495 0.0
O343 O 0.24082 0.45198 0.15007 0.0
O344 O 0.26444 0.46736 0.20582 0.0
O345 O 0.21387 0.48885 0.20641 0.0
O346 O 0.17472 0.52999 0.1825 0.0
O347 O 0.20339 0.56936 0.1859 0.0
O348 O 0.27523 0.52463 0.18433 0.0
O349 O 0.25167 0.53669 0.22219 0.0
O350 O 0.24074 0.54797 0.14112 0.0
O351 O 0.28806 0.52079 0.13434 0.0
H352 H 0.29554 0.41324 0.1846 0.0
H353 H 0.31352 0.3633 0.19767 0.0
H354 H 0.39893 0.37306 0.14654 0.0
H355 H 0.38112 0.42329 0.13434 0.0
H356 H 0.11101 0.55791 0.18975 0.0
H357 H 0.06982 0.58517 0.16237 0.0
H358 H 0.14245 0.62247 0.10874 0.0
H359 H 0.18382 0.59525 0.13671 0.0
Tb360 Tb 0.78231 0.05735 0.92025 0.0
Tb361 Tb 0.72436 0.02476 0.90089 0.0
C362 C 0.83206 0.08705 0.92138 0.0
C363 C 0.84262 0.1137 0.90612 0.0
C364 C 0.85151 0.11273 0.87628 0.0
C365 C 0.86154 0.13819 0.86249 0.0
C366 C 0.86274 0.16519 0.87816 0.0
C367 C 0.85376 0.16609 0.90791 0.0
C368 C 0.84399 0.14066 0.92173 0.0
C369 C 0.73459 0.06223 0.95719 0.0
C370 C 0.73588 0.0824 0.86834 0.0
C371 C 0.67182 0.99923 0.89747 0.0
C372 C 0.65029 0.98047 0.91372 0.0
C373 C 0.65343 0.97618 0.94418 0.0
C374 C 0.63068 0.96011 0.95911 0.0
C375 C 0.60438 0.94839 0.94381 0.0
C376 C 0.60197 0.95228 0.91322 0.0
C377 C 0.62466 0.96813 0.89839 0.0
C378 C 0.77629 0.01696 0.86803 0.0
C379 C 0.77284 0.99513 0.94686 0.0
O380 O 0.82913 0.06282 0.90555 0.0
O381 O 0.80857 0.09117 0.93994 0.0
O382 O 0.73187 0.06254 0.92929 0.0
O383 O 0.76453 0.06084 0.96462 0.0
O384 O 0.76402 0.08279 0.88203 0.0
O385 O 0.71441 0.06307 0.87486 0.0
O386 O 0.67501 0.02613 0.90774 0.0
O387 O 0.69884 0.9873 0.8882 0.0
O388 O 0.77422 0.01913 0.89529 0.0
O389 O 0.74751 0.01717 0.85713 0.0
O390 O 0.74266 0.99857 0.93801 0.0
O391 O 0.79456 1.0145 0.93972 0.0
H392 H 0.85079 0.09233 0.86354 0.0
H393 H 0.86819 0.1368 0.83951 0.0
H394 H 0.85493 0.18639 0.92076 0.0
H395 H 0.83759 0.14209 0.94478 0.0
H396 H 0.67305 0.98568 0.95642 0.0
H397 H 0.63319 0.95751 0.98268 0.0
H398 H 0.58242 0.94306 0.90066 0.0
H399 H 0.62184 0.9712 0.87489 0.0
Tb400 Tb 0.73989 0.98894 0.40938 0.0
Tb401 Tb 0.79415 0.02711 0.3945 0.0
C402 C 0.69113 0.95764 0.40615 0.0
C403 C 0.68321 0.92707 0.3966 0.0
C404 C 0.68259 0.91836 0.36668 0.0
C405 C 0.67284 0.89011 0.3581 0.0
C406 C 0.66341 0.86978 0.37917 0.0
C407 C 0.66486 0.87836 0.40912 0.0
C408 C 0.67445 0.9066 0.41767 0.0
C409 C 0.78935 0.98115 0.44447 0.0
C410 C 0.78851 0.97033 0.35648 0.0
C411 C 0.84215 0.05942 0.39513 0.0
C412 C 0.86331 0.07571 0.41586 0.0
C413 C 0.88983 0.06143 0.42924 0.0
C414 C 0.91228 0.07751 0.44535 0.0
C415 C 0.90906 0.10839 0.44827 0.0
C416 C 0.88189 0.12254 0.43581 0.0
C417 C 0.85937 0.10642 0.41976 0.0
C418 C 0.74005 0.03514 0.36368 0.0
C419 C 0.74869 0.04763 0.44517 0.0
O420 O 0.69908 0.97603 0.38578 0.0
O421 O 0.70873 0.96043 0.42995 0.0
O422 O 0.79101 0.98584 0.41701 0.0
O423 O 0.75988 0.97809 0.45175 0.0
O424 O 0.76147 0.96575 0.37056 0.0
O425 O 0.80706 0.99218 0.36394 0.0
O426 O 0.84392 0.03058 0.39543 0.0
O427 O 0.81275 0.06948 0.39159 0.0
O428 O 0.74352 0.03037 0.39043 0.0
O429 O 0.76823 0.03756 0.35257 0.0
O430 O 0.77889 0.04349 0.43772 0.0
O431 O 0.72666 0.03048 0.43312 0.0
H432 H 0.68903 0.93353 0.34976 0.0
H433 H 0.67174 0.88458 0.33482 0.0
H434 H 0.65835 0.86329 0.42609 0.0
H435 H 0.67458 0.91259 0.44087 0.0
H436 H 0.89386 0.03787 0.42649 0.0
H437 H 0.93257 0.06576 0.45502 0.0
H438 H 0.87869 0.14629 0.43729 0.0
H439 H 0.83946 0.1182 0.40948 0.0
Tb440 Tb 0.30318 0.51923 0.66884 0.0
Tb441 Tb 0.25294 0.56758 0.65693 0.0
C442 C 0.33923 0.47431 0.66245 0.0
C443 C 0.37088 0.46667 0.64968 0.0
C444 C 0.3725 0.45102 0.62273 0.0
C445 C 0.40194 0.4418 0.61106 0.0
C446 C 0.43051 0.44775 0.6262 0.0
C447 C 0.42899 0.46399 0.65287 0.0
C448 C 0.39947 0.47337 0.66451 0.0
C449 C 0.31103 0.56727 0.70021 0.0
C450 C 0.30937 0.5605 0.61249 0.0
C451 C 0.21805 0.61378 0.65864 0.0
C452 C 0.20559 0.63784 0.6783 0.0
C453 C 0.22603 0.65818 0.69187 0.0
C454 C 0.21357 0.68367 0.70598 0.0
C455 C 0.1804 0.6896 0.70659 0.0
C456 C 0.16001 0.66857 0.69406 0.0
C457 C 0.17248 0.64304 0.6801 0.0
C458 C 0.24406 0.51597 0.62963 0.0
C459 C 0.24507 0.52673 0.71115 0.0
O460 O 0.31678 0.48202 0.64362 0.0
O461 O 0.3383 0.49055 0.68664 0.0
O462 O 0.3008 0.56639 0.67388 0.0
O463 O 0.32133 0.54133 0.70795 0.0
O464 O 0.32109 0.53839 0.62834 0.0
O465 O 0.28338 0.57582 0.62009 0.0
O466 O 0.24867 0.61325 0.65309 0.0
O467 O 0.2069 0.58731 0.66142 0.0
O468 O 0.25512 0.52077 0.65482 0.0
O469 O 0.23396 0.54109 0.61932 0.0
O470 O 0.24269 0.55419 0.70182 0.0
O471 O 0.26461 0.50707 0.69798 0.0
H472 H 0.35089 0.44525 0.61094 0.0
H473 H 0.40219 0.42885 0.59077 0.0
H474 H 0.45061 0.469 0.66499 0.0
H475 H 0.39907 0.48535 0.68536 0.0
H476 H 0.25172 0.65501 0.69074 0.0
H477 H 0.22999 0.69908 0.71578 0.0
H478 H 0.13438 0.67249 0.69363 0.0
H479 H 0.15619 0.62802 0.66945 0.0
C480 C 0.17974 0.35591 0.59206 0.0
C481 C 0.19551 0.34122 0.56875 0.0
C482 C 0.18832 0.3843 0.60138 0.0
C483 C 0.21418 0.39796 0.58776 0.0
C484 C 0.23123 0.38251 0.56511 0.0
C485 C 0.22108 0.35464 0.55527 0.0
C486 C 0.16863 0.40021 0.62479 0.0
C487 C 0.25985 0.3956 0.55098 0.0
C488 C 0.21828 0.48204 0.59245 0.0
C489 C 0.23708 0.48606 0.61781 0.0
C490 C 0.2106 0.4535 0.58235 0.0
C491 C 0.22312 0.4284 0.59728 0.0
C492 C 0.24285 0.43247 0.62239 0.0
C493 C 0.24862 0.46113 0.63286 0.0
C494 C 0.18828 0.45023 0.55629 0.0
C495 C 0.2577 0.40656 0.63847 0.0
H496 H 0.15928 0.34593 0.60181 0.0
H497 H 0.23281 0.34351 0.53683 0.0
H498 H 0.18391 0.40612 0.64393 0.0
H499 H 0.15832 0.42109 0.61592 0.0
H500 H 0.14882 0.38675 0.63266 0.0
H501 H 0.27242 0.37961 0.53594 0.0
H502 H 0.25222 0.41519 0.53818 0.0
H503 H 0.27696 0.40309 0.56816 0.0
H504 H 0.20886 0.5012 0.58098 0.0
H505 H 0.26215 0.46391 0.65308 0.0
H506 H 0.16703 0.43797 0.5628 0.0
H507 H 0.20027 0.43724 0.53844 0.0
H508 H 0.18012 0.47187 0.54744 0.0
H509 H 0.23895 0.39477 0.65013 0.0
H510 H 0.27595 0.41348 0.6549 0.0
H511 H 0.26911 0.39068 0.62261 0.0
C512 C 0.81177 1.01541 0.82326 0.0
C513 C 0.80687 1.00965 0.85304 0.0
C514 C 0.84184 1.00932 0.81025 0.0
C515 C 0.86717 0.99667 0.82733 0.0
C516 C 0.86203 0.9908 0.85736 0.0
C517 C 0.83219 0.99757 0.8698 0.0
C518 C 0.84654 0.01632 0.77829 0.0
C519 C 0.88788 0.9767 0.87637 0.0
C520 C 0.93317 0.9478 0.79443 0.0
C521 C 0.96006 0.96527 0.79801 0.0
C522 C 0.90257 0.95837 0.80231 0.0
C523 C 0.89842 0.9874 0.81384 0.0
C524 C 0.9252 1.00579 0.81605 0.0
C525 C 0.95581 0.99443 0.80828 0.0
C526 C 0.87502 0.9377 0.80002 0.0
C527 C 0.92173 0.037 0.82786 0.0
H528 H 0.79236 0.02507 0.81036 0.0
H529 H 0.82855 0.99292 0.89281 0.0
H530 H 0.8675 0.03044 0.776 0.0
H531 H 0.8516 0.99569 0.76547 0.0
H532 H 0.82525 0.02777 0.76853 0.0
H533 H 0.88012 0.97397 0.89946 0.0
H534 H 0.89492 0.95468 0.8671 0.0
H535 H 0.90944 0.99028 0.87659 0.0
H536 H 0.93612 0.92527 0.78641 0.0
H537 H 0.97644 1.00811 0.8109 0.0
H538 H 0.85437 0.94843 0.78861 0.0
H539 H 0.86714 0.93217 0.82246 0.0
H540 H 0.88157 0.91685 0.78804 0.0
H541 H 0.90108 0.04861 0.81723 0.0
H542 H 0.94356 0.0497 0.8243 0.0
H543 H 0.917 0.03673 0.85184 0.0
C544 C 0.32687 0.68097 0.03382 0.0
C545 C 0.33289 0.7038 0.05428 0.0
C546 C 0.31595 0.65366 0.0429 0.0
C547 C 0.31078 0.64899 0.07317 0.0
C548 C 0.31593 0.67218 0.09385 0.0
C549 C 0.32691 0.69927 0.08417 0.0
C550 C 0.31069 0.62955 0.02016 0.0
C551 C 0.3105 0.66817 0.12632 0.0
C552 C 0.25717 0.58874 0.09872 0.0
C553 C 0.27947 0.56754 0.10908 0.0
C554 C 0.26701 0.61483 0.08598 0.0
C555 C 0.30001 0.61989 0.08337 0.0
C556 C 0.32265 0.59782 0.09218 0.0
C557 C 0.31211 0.57185 0.10491 0.0
C558 C 0.24205 0.63765 0.07676 0.0
C559 C 0.35807 0.60229 0.08959 0.0
H560 H 0.33145 0.68413 1.01067 0.0
H561 H 0.33157 0.71665 0.10019 0.0
H562 H 0.32703 0.61042 0.02465 0.0
H563 H 0.28593 0.62171 0.02148 0.0
H564 H 0.31487 0.63696 0.99739 0.0
H565 H 0.31491 0.68855 0.13948 0.0
H566 H 0.28559 0.66159 0.13004 0.0
H567 H 0.32655 0.65021 0.13461 0.0
H568 H 0.23187 0.5855 0.10161 0.0
H569 H 0.3295 0.55571 0.11303 0.0
H570 H 0.24621 0.64446 0.05382 0.0
H571 H 0.24383 0.6576 0.0911 0.0
H572 H 0.21741 0.62944 0.07824 0.0
H573 H 0.36393 0.60889 0.06693 0.0
H574 H 0.37245 0.58211 0.09504 0.0
H575 H 0.36524 0.62041 0.10477 0.0
C576 C 0.55918 0.05932 0.30255 0.0
C577 C 0.55404 0.08954 0.29797 0.0
C578 C 0.5899 0.04783 0.31002 0.0
C579 C 0.61578 0.06714 0.31358 0.0
C580 C 0.61063 0.09757 0.30838 0.0
C581 C 0.58005 0.10825 0.30041 0.0
C582 C 0.5945 1.01519 0.31485 0.0
C583 C 0.63708 0.1192 0.31259 0.0
C584 C 0.68245 0.04916 0.36824 0.0
C585 C 0.70852 0.0423 0.3499 0.0
C586 C 0.65216 0.05653 0.35667 0.0
C587 C 0.64734 0.05649 0.32579 0.0
C588 C 0.67336 0.04878 0.30703 0.0
C589 C 0.70381 0.04209 0.31931 0.0
C590 C 0.62557 0.06536 0.37762 0.0
C591 C 0.66907 0.04796 0.27402 0.0
H592 H 0.53924 0.04474 0.30048 0.0
H593 H 0.57634 0.13168 0.29697 0.0
H594 H 0.61555 1.00641 0.30246 0.0
H595 H 0.59926 1.01118 0.33852 0.0
H596 H 0.5732 1.00273 0.30792 0.0
H597 H 0.62955 0.14192 0.30628 0.0
H598 H 0.64479 0.11971 0.33604 0.0
H599 H 0.65815 0.11216 0.29933 0.0
H600 H 0.68584 0.04949 0.39192 0.0
H601 H 0.7238 0.03652 0.30506 0.0
H602 H 0.60472 0.05128 0.37372 0.0
H603 H 0.61753 0.08848 0.37364 0.0
H604 H 0.63306 0.06356 0.40107 0.0
H605 H 0.64845 0.03431 0.2678 0.0
H606 H 0.69069 0.03895 0.2626 0.0
H607 H 0.66374 0.07054 0.26604 0.0
C608 C 0.70765 0.20348 0.52822 0.0
C609 C 0.70201 0.22478 0.50677 0.0
C610 C 0.71484 0.1739 0.52037 0.0
C611 C 0.71743 0.16558 0.49024 0.0
C612 C 0.71333 0.18747 0.46849 0.0
C613 C 0.70536 0.21678 0.47702 0.0
C614 C 0.71871 0.15142 0.54433 0.0
C615 C 0.71659 0.17978 0.43616 0.0
C616 C 0.76422 0.09512 0.46937 0.0
C617 C 0.73993 0.07584 0.46094 0.0
C618 C 0.75721 0.1241 0.47918 0.0
C619 C 0.72501 0.13415 0.48146 0.0
C620 C 0.70026 0.11441 0.4745 0.0
C621 C 0.708 0.08558 0.46408 0.0
C622 C 0.78442 0.14438 0.4858 0.0
C623 C 0.66559 0.12405 0.47721 0.0
H624 H 0.70584 0.2099 0.55123 0.0
H625 H 0.70061 0.23322 0.46039 0.0
H626 H 0.70129 0.13374 0.54082 0.0
H627 H 0.74293 0.14087 0.54346 0.0
H628 H 0.71507 0.16133 0.56665 0.0
H629 H 0.71431 0.19954 0.42213 0.0
H630 H 0.7401 0.16862 0.432 0.0
H631 H 0.69791 0.16418 0.42936 0.0
H632 H 0.78904 0.08805 0.46709 0.0
H633 H 0.68905 0.07104 0.45751 0.0
H634 H 0.78246 0.15354 0.50854 0.0
H635 H 0.78313 0.16326 0.47063 0.0
H636 H 0.80817 0.13304 0.4834 0.0
H637 H 0.66101 0.13364 0.49949 0.0
H638 H 0.64926 0.10554 0.47323 0.0
H639 H 0.65979 0.14151 0.46108 0.0
C640 C 0.07992 0.46855 0.75771 0.0
C641 C 0.07692 0.45955 0.78688 0.0
C642 C 0.10769 0.48208 0.74838 0.0
C643 C 0.13296 0.48685 0.76874 0.0
C644 C 0.12917 0.4796 0.79862 0.0
C645 C 0.10122 0.46603 0.80733 0.0
C646 C 0.11073 0.48968 0.71632 0.0
C647 C 0.15536 0.4846 0.82107 0.0
C648 C 0.21522 0.48646 0.73434 0.0
C649 C 0.21997 0.51666 0.73109 0.0
C650 C 0.18755 0.4765 0.74769 0.0
C651 C 0.16415 0.49724 0.75818 0.0
C652 C 0.16981 0.52774 0.75675 0.0
C653 C 0.19767 0.53709 0.74326 0.0
C654 C 0.18254 0.44374 0.74902 0.0
C655 C 0.14563 0.55054 0.76792 0.0
H656 H 0.06137 0.46357 0.74174 0.0
H657 H 0.09904 0.45938 0.83 0.0
H658 H 0.11811 0.5128 0.71422 0.0
H659 H 0.12954 0.47528 0.70599 0.0
H660 H 0.08804 0.48684 0.70386 0.0
H661 H 0.14733 0.48087 0.8439 0.0
H662 H 0.17593 0.4693 0.81632 0.0
H663 H 0.16405 0.50737 0.81976 0.0
H664 H 0.23225 0.47048 0.72504 0.0
H665 H 0.20118 0.5605 0.74103 0.0
H666 H 0.16219 0.43781 0.73447 0.0
H667 H 0.17641 0.43752 0.77172 0.0
H668 H 0.204 0.43053 0.74197 0.0
H669 H 0.12413 0.55046 0.75345 0.0
H670 H 0.15519 0.5731 0.76833 0.0
H671 H 0.13785 0.5452 0.79042 0.0
C672 C 0.81471 0.9607 0.96897 0.0
C673 C 0.78297 0.96642 0.96001 0.0
C674 C 0.82511 0.93228 0.97769 0.0
C675 C 0.80346 0.90885 0.97688 0.0
C676 C 0.77124 0.9147 0.9686 0.0
C677 C 0.76136 0.94334 0.96062 0.0
C678 C 0.85947 0.92717 0.98706 0.0
C679 C 0.74741 0.8904 0.96692 0.0
C680 C 0.83599 0.82979 0.967 0.0
C681 C 0.8328 0.81864 0.99535 0.0
C682 C 0.82686 0.85915 0.96077 0.0
C683 C 0.81454 0.87796 0.98353 0.0
C684 C 0.81143 0.86676 1.01224 0.0
C685 C 0.82004 0.83711 0.01764 0.0
C686 C 0.83018 0.86993 0.92974 0.0
C687 C 0.79906 0.88608 0.0373 0.0
H688 H 0.83163 0.97826 0.96858 0.0
H689 H 0.7368 0.94728 0.95366 0.0
H690 H 0.86069 0.91585 1.00851 0.0
H691 H 0.87193 0.91258 0.9707 0.0
H692 H 0.8725 0.94807 0.98913 0.0
H693 H 0.72306 0.89868 0.96076 0.0
H694 H 0.7553 0.87348 0.95037 0.0
H695 H 0.74614 0.87933 0.98841 0.0
H696 H 0.84587 0.8156 0.94968 0.0
H697 H 0.81686 0.82837 0.03942 0.0
H698 H 0.84601 0.88906 0.92958 0.0
H699 H 0.80649 0.87754 0.92115 0.0
H700 H 0.84015 0.85257 0.91457 0.0
H701 H 0.8129 0.9065 0.03903 0.0
H702 H 0.80053 0.87473 0.05876 0.0
H703 H 0.77379 0.89281 0.033 0.0
C704 C 0.43625 0.60779 0.26075 0.0
C705 C 0.46233 0.5901 0.27013 0.0
C706 C 0.40666 0.59573 0.25376 0.0
C707 C 0.40264 0.56507 0.25654 0.0
C708 C 0.42865 0.54707 0.26673 0.0
C709 C 0.45835 0.55977 0.27319 0.0
C710 C 0.37999 0.61581 0.24248 0.0
C711 C 0.42519 0.51437 0.27038 0.0
C712 C 0.3151 0.54363 0.25403 0.0
C713 C 0.31124 0.53604 0.22419 0.0
C714 C 0.34524 0.55143 0.26543 0.0
C715 C 0.37192 0.55203 0.24642 0.0
C716 C 0.36819 0.54339 0.2165 0.0
C717 C 0.33805 0.5354 0.20586 0.0
C718 C 0.34828 0.56011 0.29754 0.0
C719 C 0.39563 0.54414 0.19522 0.0
H720 H 0.4391 0.63125 0.25819 0.0
H721 H 0.47837 0.54606 0.28065 0.0
H722 H 0.37335 0.60905 0.21968 0.0
H723 H 0.35845 0.61395 0.25625 0.0
H724 H 0.38672 0.63929 0.24241 0.0
H725 H 0.44663 0.50386 0.28087 0.0
H726 H 0.40399 0.51018 0.28397 0.0
H727 H 0.42129 0.50364 0.24855 0.0
H728 H 0.29451 0.544 0.26832 0.0
H729 H 0.3353 0.52963 0.18273 0.0
H730 H 0.35209 0.58414 0.29962 0.0
H731 H 0.36933 0.54864 0.30763 0.0
H732 H 0.32663 0.55493 0.31015 0.0
H733 H 0.40256 0.56729 0.19228 0.0
H734 H 0.38947 0.53455 0.17328 0.0
H735 H 0.4168 0.53186 0.2041 0.0
C736 C 0.50147 0.21021 0.35526 0.0
C737 C 0.52302 0.20203 0.33278 0.0
C738 C 0.51218 0.2203 0.3829 0.0
C739 C 0.54531 0.22285 0.38823 0.0
C740 C 0.56715 0.21623 0.36518 0.0
C741 C 0.55576 0.20579 0.33774 0.0
C742 C 0.48805 0.22703 0.4068 0.0
C743 C 0.60265 0.21916 0.36984 0.0
C744 C 0.57169 0.27109 0.45277 0.0
C745 C 0.581 0.25017 0.47389 0.0
C746 C 0.56004 0.26251 0.42495 0.0
C747 C 0.55703 0.23222 0.41802 0.0
C748 C 0.56511 0.21097 0.43959 0.0
C749 C 0.57714 0.22018 0.46723 0.0
C750 C 0.55192 0.28589 0.40261 0.0
C751 C 0.56174 0.17845 0.4332 0.0
H752 H 0.47609 0.20755 0.3517 0.0
H753 H 0.57264 0.19932 0.32069 0.0
H754 H 0.49244 0.21196 0.42546 0.0
H755 H 0.49067 0.24985 0.41546 0.0
H756 H 0.46307 0.22457 0.39889 0.0
H757 H 0.61629 0.21489 0.34926 0.0
H758 H 0.60784 0.24161 0.3783 0.0
H759 H 0.61134 0.20332 0.38664 0.0
H760 H 0.57451 0.29436 0.45754 0.0
H761 H 0.5844 0.20383 0.48324 0.0
H762 H 0.52679 0.28407 0.39505 0.0
H763 H 0.56727 0.28254 0.38298 0.0
H764 H 0.55524 0.30855 0.41157 0.0
H765 H 0.53692 0.174 0.42606 0.0
H766 H 0.56776 0.16482 0.45266 0.0
H767 H 0.57771 0.17139 0.41487 0.0
C768 C 0.10365 0.30541 0.62076 0.0
C769 C 0.08112 0.30448 0.59768 0.0
C770 C 0.09464 0.31175 0.64992 0.0
C771 C 0.06202 0.31696 0.65664 0.0
C772 C 0.03889 0.31532 0.63358 0.0
C773 C 0.04874 0.30933 0.60428 0.0
C774 C 0.12035 0.31394 0.67337 0.0
C775 C 1.00383 0.32044 0.63982 0.0
C776 C 0.04261 0.31551 0.73899 0.0
C777 C 0.04237 0.3456 0.74652 0.0
C778 C 0.04755 0.30581 0.70955 0.0
C779 C 0.05291 0.32666 0.6873 0.0
C780 C 0.0525 0.35704 0.69497 0.0
C781 C 0.04709 0.36606 0.72428 0.0
C782 C 0.04748 0.27325 0.70229 0.0
C783 C 0.05881 0.38012 0.67239 0.0
H784 H 0.12878 0.30186 0.61597 0.0
H785 H 0.03118 0.30853 0.58662 0.0
H786 H 0.12071 0.33683 0.68238 0.0
H787 H 0.11521 0.2993 0.69189 0.0
H788 H 0.14448 0.30792 0.66479 0.0
H789 H 0.98864 0.31589 0.62016 0.0
H790 H 0.99649 0.3062 0.658 0.0
H791 H 0.99932 0.34364 0.64711 0.0
H792 H 0.03877 0.29963 0.75602 0.0
H793 H 0.04714 0.38938 0.72991 0.0
H794 H 0.07168 0.26555 0.69529 0.0
H795 H 0.0309 0.26895 0.6836 0.0
H796 H 0.04033 0.26007 0.72136 0.0
H797 H 0.08337 0.37679 0.66372 0.0
H798 H 0.05633 0.4029 0.68165 0.0
H799 H 0.04204 0.37796 0.65348 0.0
C800 C 0.01143 0.8434 0.84838 0.0
C801 C 0.98944 0.85319 0.82684 0.0
C802 C 1.00126 0.83172 0.87497 0.0
C803 C 0.96822 0.82919 0.88015 0.0
C804 C 0.94586 0.8378 0.85802 0.0
C805 C 0.95672 0.84984 0.83168 0.0
C806 C 0.02593 0.82308 0.89798 0.0
C807 C 0.91043 0.835 0.86251 0.0
C808 C 0.94465 0.77648 0.93982 0.0
C809 C 0.93719 0.79579 0.96351 0.0
C810 C 0.9544 0.78706 0.91258 0.0
C811 C 0.95724 0.81774 0.90886 0.0
C812 C 0.95038 0.83737 0.9328 0.0
C813 C 0.94029 0.82619 0.95977 0.0
C814 C 0.96111 0.76539 0.88759 0.0
C815 C 0.95346 0.87023 0.92986 0.0
H816 H 0.03679 0.84581 0.845 0.0
H817 H 0.93951 0.85747 0.81533 0.0
H818 H 0.02203 0.83657 0.91833 0.0
H819 H 0.02343 0.79967 0.90389 0.0
H820 H 0.05074 0.8261 0.89041 0.0
H821 H 0.89627 0.84109 0.8426 0.0
H822 H 0.9051 0.81205 0.86831 0.0
H823 H 0.90247 0.84949 0.88114 0.0
H824 H 0.94211 0.75296 0.94224 0.0
H825 H 0.93432 0.84134 0.97775 0.0
H826 H 0.98613 0.76714 0.8802 0.0
H827 H 0.94537 0.77068 0.8685 0.0
H828 H 0.95731 0.74224 0.8939 0.0
H829 H 0.97811 0.87522 0.92323 0.0
H830 H 0.94788 0.88248 0.95068 0.0
H831 H 0.93706 0.87848 0.91234 0.0
C832 C 0.46103 0.70146 0.21389 0.0
C833 C 0.49299 0.69754 0.22291 0.0
C834 C 0.45316 0.71168 0.18555 0.0
C835 C 0.4778 0.71827 0.16574 0.0
C836 C 0.51006 0.71537 0.17513 0.0
C837 C 0.51724 0.70506 0.2035 0.0
C838 C 0.41844 0.71454 0.17648 0.0
C839 C 0.53708 0.72233 0.15489 0.0
C840 C 0.45723 0.71427 0.08372 0.0
C841 C 0.45077 0.74395 0.07753 0.0
C842 C 0.46677 0.70566 0.11219 0.0
C843 C 0.46985 0.7273 0.13493 0.0
C844 C 0.46447 0.75745 0.12831 0.0
C845 C 0.45492 0.76534 0.09968 0.0
C846 C 0.47232 0.6733 0.1182 0.0
C847 C 0.46757 0.78128 0.15171 0.0
H848 H 0.44211 0.69556 0.22857 0.0
H849 H 0.54204 0.70224 0.2102 0.0
H850 H 0.41283 0.73715 0.16868 0.0
H851 H 0.41363 0.69908 0.15785 0.0
H852 H 0.4021 0.70975 0.19478 0.0
H853 H 0.56081 0.72021 0.16594 0.0
H854 H 0.5369 0.70717 0.13544 0.0
H855 H 0.53387 0.74509 0.14665 0.0
H856 H 0.45348 0.69769 0.06663 0.0
H857 H 0.45001 0.78827 0.0947 0.0
H858 H 0.45445 0.66603 0.13418 0.0
H859 H 0.49629 0.66947 0.12828 0.0
H860 H 0.47052 0.65941 0.09788 0.0
H861 H 0.44842 0.77926 0.16818 0.0
H862 H 0.46571 0.80373 0.1424 0.0
H863 H 0.49077 0.77876 0.16353 0.0
C864 C 0.1993 0.40118 0.37466 0.0
C865 C 0.17826 0.37786 0.3716 0.0
C866 C 0.21148 0.41491 0.34977 0.0
C867 C 0.20263 0.40489 0.32115 0.0
C868 C 0.18271 0.38036 0.31802 0.0
C869 C 0.1707 0.36726 0.34323 0.0
C870 C 0.23253 0.44105 0.35411 0.0
C871 C 0.17296 0.3687 0.28801 0.0
C872 C 0.19898 0.45971 0.2588 0.0
C873 C 0.22731 0.45292 0.2435 0.0
C874 C 0.191 0.4445 0.28419 0.0
C875 C 0.21166 0.42161 0.29459 0.0
C876 C 0.24025 0.41448 0.27921 0.0
C877 C 0.24782 0.4303 0.25394 0.0
C878 C 0.16035 0.45296 0.29992 0.0
C879 C 0.26275 0.39005 0.28939 0.0
H880 H 0.20513 0.40956 0.3965 0.0
H881 H 0.15485 0.34893 0.34072 0.0
H882 H 0.25446 0.43817 0.34074 0.0
H883 H 0.21966 0.46127 0.34645 0.0
H884 H 0.23955 0.44446 0.37755 0.0
H885 H 0.15989 0.34784 0.2893 0.0
H886 H 0.15729 0.38531 0.2769 0.0
H887 H 0.19428 0.36477 0.27401 0.0
H888 H 0.18301 0.47724 0.25113 0.0
H889 H 0.26975 0.42484 0.24231 0.0
H890 H 0.16559 0.45913 0.32318 0.0
H891 H 0.14447 0.43386 0.30011 0.0
H892 H 0.14726 0.47172 0.28942 0.0
H893 H 0.27101 0.39478 0.31222 0.0
H894 H 0.28396 0.38714 0.27501 0.0
H895 H 0.25008 0.36895 0.28972 0.0
C896 C 0.89775 0.97297 0.58673 0.0
C897 C 0.91493 0.94615 0.58988 0.0
C898 C 0.88268 0.98028 0.55991 0.0
C899 C 0.8848 0.96033 0.53558 0.0
C900 C 0.9043 0.93441 0.53791 0.0
C901 C 0.91895 0.92753 0.56504 0.0
C902 C 0.86261 1.0084 0.55823 0.0
C903 C 0.9081 0.91307 0.51223 0.0
C904 C 0.80899 0.95679 0.48966 0.0
C905 C 0.81591 0.97363 0.46509 0.0
C906 C 0.83159 0.95167 0.51201 0.0
C907 C 0.86217 0.96385 0.5101 0.0
C908 C 0.86989 0.98004 0.48478 0.0
C909 C 0.84659 0.98473 0.46247 0.0
C910 C 0.82221 0.93395 0.53825 0.0
C911 C 0.90205 0.99361 0.48162 0.0
H912 H 0.89448 0.98754 0.60572 0.0
H913 H 0.93282 0.9071 0.56705 0.0
H914 H 0.86827 0.02044 0.53799 0.0
H915 H 0.83696 1.003 0.55702 0.0
H916 H 0.86636 0.02317 0.57766 0.0
H917 H 0.92745 0.89626 0.51612 0.0
H918 H 0.8854 0.90156 0.5084 0.0
H919 H 0.9134 0.92508 0.49187 0.0
H920 H 0.7854 0.94791 0.49178 0.0
H921 H 0.85201 0.99796 0.44369 0.0
H922 H 0.82292 0.94798 0.55852 0.0
H923 H 0.83942 0.91517 0.54139 0.0
H924 H 0.79787 0.92512 0.53584 0.0
H925 H 0.90076 0.0165 0.49067 0.0
H926 H 0.90875 0.99469 0.45808 0.0
H927 H 0.92117 0.98122 0.49364 0.0
C928 C 0.28818 0.61025 0.72898 0.0
C929 C 0.31485 0.59357 0.71927 0.0
C930 C 0.29055 0.6296 0.75352 0.0
C931 C 0.32047 0.6327 0.76802 0.0
C932 C 0.34785 0.61746 0.75667 0.0
C933 C 0.34457 0.59778 0.73275 0.0
C934 C 0.2608 0.64539 0.76491 0.0
C935 C 0.38029 0.62027 0.77109 0.0
C936 C 0.33942 0.69211 0.8253 0.0
C937 C 0.33902 0.6761 0.85145 0.0
C938 C 0.33154 0.67886 0.79801 0.0
C939 C 0.32302 0.64892 0.79684 0.0
C940 C 0.32068 0.63324 0.82339 0.0
C941 C 0.32878 0.64697 0.8503 0.0
C942 C 0.3342 0.69638 0.7703 0.0
C943 C 0.31116 0.60142 0.82326 0.0
H944 H 0.26509 0.60657 0.71886 0.0
H945 H 0.3651 0.58457 0.72538 0.0
H946 H 0.25804 0.64157 0.78879 0.0
H947 H 0.26283 0.66947 0.76208 0.0
H948 H 0.2389 0.63812 0.75324 0.0
H949 H 0.39961 0.60954 0.75773 0.0
H950 H 0.38581 0.64382 0.77465 0.0
H951 H 0.38027 0.60984 0.79298 0.0
H952 H 0.34747 0.71458 0.82592 0.0
H953 H 0.32784 0.63463 0.87046 0.0
H954 H 0.31274 0.69367 0.75612 0.0
H955 H 0.35516 0.68801 0.75754 0.0
H956 H 0.3371 0.72024 0.77511 0.0
H957 H 0.2889 0.59865 0.81019 0.0
H958 H 0.30735 0.59329 0.84583 0.0
H959 H 0.33015 0.58742 0.81269 0.0
C960 C 0.63677 0.14166 0.0847 0.0
C961 C 0.61641 0.1239 0.10057 0.0
C962 C 0.65164 0.13123 0.05871 0.0
C963 C 0.64603 0.10229 0.048 0.0
C964 C 0.6241 0.08484 0.06294 0.0
C965 C 0.60967 0.09578 0.08903 0.0
C966 C 0.67475 0.15069 0.04358 0.0
C967 C 0.61723 0.05396 0.05232 0.0
C968 C 0.67947 0.08182 0.97166 0.0
C969 C 0.7094 0.06933 0.97925 0.0
C970 C 0.65787 0.09175 0.99374 0.0
C971 C 0.66649 0.08909 0.02394 0.0
C972 C 0.69609 0.07519 0.03145 0.0
C973 C 0.717 0.06551 1.00912 0.0
C974 C 0.62639 0.10608 0.98477 0.0
C975 C 0.7064 0.0716 0.06319 0.0
H976 H 0.64164 0.16364 0.09294 0.0
H977 H 0.59418 0.0817 0.10105 0.0
H978 H 0.6994 0.14131 0.04609 0.0
H979 H 0.66934 0.15153 0.01965 0.0
H980 H 0.67412 0.17354 0.05281 0.0
H981 H 0.59622 0.045 0.06347 0.0
H982 H 0.61286 0.05343 0.02819 0.0
H983 H 0.63828 0.03922 0.05679 0.0
H984 H 0.67343 0.08478 0.94863 0.0
H985 H 0.73995 0.05557 0.01518 0.0
H986 H 0.62654 0.12997 0.99036 0.0
H987 H 0.60653 0.09658 0.99708 0.0
H988 H 0.62158 0.10341 0.96079 0.0
H989 H 0.70905 0.09361 0.07383 0.0
H990 H 0.72945 0.059 0.06533 0.0
H991 H 0.68795 0.06004 0.07551 0.0
C992 C 0.70643 0.14117 0.70677 0.0
C993 C 0.69134 0.16916 0.70468 0.0
C994 C 0.71611 0.12969 0.73413 0.0
C995 C 0.71086 0.14658 0.76031 0.0
C996 C 0.69703 0.17538 0.75829 0.0
C997 C 0.68738 0.18627 0.73061 0.0
C998 C 0.7308 0.09892 0.73512 0.0
C999 C 0.69113 0.19426 0.78552 0.0
C1000 C 0.69867 0.10189 0.82921 0.0
C1001 C 0.72895 0.10197 0.84282 0.0
C1002 C 0.69237 0.11698 0.80296 0.0
C1003 C 0.71684 0.13287 0.78975 0.0
C1004 C 0.74711 0.13417 0.80398 0.0
C1005 C 0.75284 0.11866 0.83028 0.0
C1006 C 0.65973 0.11493 0.78875 0.0
C1007 C 0.7738 0.15108 0.7909 0.0
H1008 H 0.71031 0.12794 0.68694 0.0
H1009 H 0.67558 0.2078 0.72948 0.0
H1010 H 0.75364 0.09897 0.74769 0.0
H1011 H 0.71453 0.08427 0.74669 0.0
H1012 H 0.73542 0.08945 0.71277 0.0
H1013 H 0.6837 0.21725 0.78009 0.0
H1014 H 0.67205 0.18465 0.79874 0.0
H1015 H 0.71297 0.19475 0.79953 0.0
H1016 H 0.67988 0.08927 0.83863 0.0
H1017 H 0.77634 0.1189 0.84048 0.0
H1018 H 0.66184 0.1034 0.76706 0.0
H1019 H 0.6494 0.13731 0.78474 0.0
H1020 H 0.64285 0.10284 0.80246 0.0
H1021 H 0.78167 0.14011 0.77006 0.0
H1022 H 0.79474 0.15248 0.80602 0.0
H1023 H 0.7653 0.17375 0.78546 0.0
C1024 C 0.19099 0.43589 0.10886 0.0
C1025 C 0.19611 0.46508 0.11791 0.0
C1026 C 0.17328 0.42951 0.08318 0.0
C1027 C 0.1603 0.45288 0.0661 0.0
C1028 C 0.16394 0.48239 0.07603 0.0
C1029 C 0.18175 0.48813 0.10184 0.0
C1030 C 0.1697 0.39773 0.07363 0.0
C1031 C 0.15034 0.50797 0.05869 0.0
C1032 C 0.14859 0.43495 0.98442 0.0
C1033 C 0.116 0.42873 0.9829 0.0
C1034 C 0.16306 0.44367 1.01116 0.0
C1035 C 0.14454 0.44632 0.0371 0.0
C1036 C 0.11141 0.44115 0.03549 0.0
C1037 C 0.09757 0.43245 1.00847 0.0
C1038 C 0.19845 0.44906 1.01185 0.0
C1039 C 0.09073 0.44396 0.06249 0.0
H1040 H 0.20192 0.41798 0.12122 0.0
H1041 H 0.18555 0.51076 0.10875 0.0
H1042 H 0.14417 0.39313 0.06951 0.0
H1043 H 0.18254 0.39346 0.05265 0.0
H1044 H 0.17933 0.38212 0.09029 0.0
H1045 H 0.15236 0.52931 0.07087 0.0
H1046 H 0.1633 0.50935 0.0376 0.0
H1047 H 0.12483 0.50462 0.0532 0.0
H1048 H 0.16312 0.4319 0.96492 0.0
H1049 H 0.07226 0.42819 1.00745 0.0
H1050 H 0.21085 0.43249 0.02591 0.0
H1051 H 0.20297 0.47112 0.02168 0.0
H1052 H 0.20913 0.44773 0.98955 0.0
H1053 H 0.09841 0.42705 0.07862 0.0
H1054 H 0.06504 0.44113 0.05722 0.0
H1055 H 0.09356 0.46584 0.07335 0.0
C1056 C 0.82792 0.95511 0.3175 0.0
C1057 C 0.79799 0.95157 0.33048 0.0
C1058 C 0.83653 0.94011 0.29131 0.0
C1059 C 0.81479 0.92087 0.27749 0.0
C1060 C 0.78493 0.91633 0.29092 0.0
C1061 C 0.77687 0.93174 0.31725 0.0
C1062 C 0.86866 0.9456 0.27795 0.0
C1063 C 0.76114 0.89588 0.27704 0.0
C1064 C 0.82721 0.91005 0.19491 0.0
C1065 C 0.84541 0.88355 0.19346 0.0
C1066 C 0.81604 0.92179 0.22193 0.0
C1067 C 0.82311 0.90672 0.24837 0.0
C1068 C 0.84054 0.87948 0.247 0.0
C1069 C 0.8515 0.86826 0.21965 0.0
C1070 C 0.79749 0.95085 0.22228 0.0
C1071 C 0.84865 0.86266 0.27457 0.0
H1072 H 0.84461 0.97018 0.3275 0.0
H1073 H 0.75368 0.92882 0.32698 0.0
H1074 H 0.88211 0.92443 0.2743 0.0
H1075 H 0.86523 0.95595 0.25616 0.0
H1076 H 0.88339 0.96024 0.29206 0.0
H1077 H 0.7401 0.89296 0.29129 0.0
H1078 H 0.75269 0.90482 0.25568 0.0
H1079 H 0.77263 0.87396 0.27238 0.0
H1080 H 0.82177 0.92178 0.17483 0.0
H1081 H 0.86572 0.84792 0.21894 0.0
H1082 H 0.81141 0.96775 0.23428 0.0
H1083 H 0.77467 0.94875 0.23414 0.0
H1084 H 0.79211 0.95883 0.19975 0.0
H1085 H 0.8656 0.87533 0.28838 0.0
H1086 H 0.85965 0.84056 0.26961 0.0
H1087 H 0.82687 0.85988 0.28782 0.0
C1088 C 0.35499 0.55473 0.5769 0.0
C1089 C 0.32591 0.56861 0.58512 0.0
C1090 C 0.37045 0.56229 0.55084 0.0
C1091 C 0.35642 0.58412 0.5325 0.0
C1092 C 0.32702 0.59806 0.5406 0.0
C1093 C 0.31222 0.59022 0.56676 0.0
C1094 C 0.40186 0.54705 0.54302 0.0
C1095 C 0.31114 0.62134 0.52161 0.0
C1096 C 0.40482 0.62753 0.47895 0.0
C1097 C 0.39682 0.61425 0.45183 0.0
C1098 C 0.39298 0.6171 0.5055 0.0
C1099 C 0.37242 0.59291 0.50496 0.0
C1100 C 0.36514 0.57876 0.47774 0.0
C1101 C 0.37752 0.58953 0.45152 0.0
C1102 C 0.40162 0.63263 0.53404 0.0
C1103 C 0.34318 0.55302 0.47619 0.0
H1104 H 0.36579 0.53799 0.59085 0.0
H1105 H 0.2897 0.60102 0.57272 0.0
H1106 H 0.39998 0.53606 0.52108 0.0
H1107 H 0.42076 0.56354 0.54159 0.0
H1108 H 0.40944 0.53031 0.55941 0.0
H1109 H 0.28801 0.6297 0.53076 0.0
H1110 H 0.3271 0.64021 0.51944 0.0
H1111 H 0.30679 0.61223 0.49914 0.0
H1112 H 0.42018 0.64632 0.47938 0.0
H1113 H 0.3711 0.57927 0.43063 0.0
H1114 H 0.41077 0.61645 0.55032 0.0
H1115 H 0.37998 0.64369 0.54354 0.0
H1116 H 0.41994 0.64946 0.53099 0.0
H1117 H 0.35125 0.53582 0.49185 0.0
H1118 H 0.34196 0.54296 0.45373 0.0
H1119 H 0.31874 0.5605 0.48271 0.0
C1120 C 0.19579 0.20653 0.47255 0.0
C1121 C 0.189 0.23584 0.48132 0.0
C1122 C 0.22005 0.19938 0.45221 0.0
C1123 C 0.23818 0.22206 0.44023 0.0
C1124 C 0.23051 0.25185 0.44806 0.0
C1125 C 0.20599 0.25838 0.46846 0.0
C1126 C 0.22699 0.16737 0.44427 0.0
C1127 C 0.24901 0.27677 0.43581 0.0
C1128 C 0.32167 0.19754 0.41476 0.0
C1129 C 0.31714 0.19331 0.3843 0.0
C1130 C 0.29655 0.20795 0.43298 0.0
C1131 C 0.26593 0.21425 0.42061 0.0
C1132 C 0.26147 0.21105 0.38977 0.0
C1133 C 0.28704 0.20074 0.37205 0.0
C1134 C 0.30251 0.21118 0.46569 0.0
C1135 C 0.22935 0.21759 0.37558 0.0
H1136 H 0.18267 0.18901 0.48228 0.0
H1137 H 0.20088 0.2811 0.47511 0.0
H1138 H 0.22641 0.16409 0.42001 0.0
H1139 H 0.25133 0.1608 0.45203 0.0
H1140 H 0.20962 0.15252 0.45417 0.0
H1141 H 0.23806 0.2987 0.44161 0.0
H1142 H 0.2738 0.27573 0.44465 0.0
H1143 H 0.25051 0.27464 0.41149 0.0
H1144 H 0.34458 0.19166 0.42464 0.0
H1145 H 0.2833 0.19817 0.34852 0.0
H1146 H 0.28829 0.19503 0.47755 0.0
H1147 H 0.29466 0.23351 0.47357 0.0
H1148 H 0.3281 0.20754 0.47164 0.0
H1149 H 0.21177 0.20175 0.38335 0.0
H1150 H 0.23029 0.21604 0.35116 0.0
H1151 H 0.22041 0.24 0.38212 0.0
C1152 C 0.08203 0.11152 0.65701 0.0
C1153 C 0.11142 0.11062 0.6424 0.0
C1154 C 0.06975 0.08607 0.66921 0.0
C1155 C 0.08708 0.05888 0.66647 0.0
C1156 C 0.11628 0.05763 0.65089 0.0
C1157 C 0.12825 0.08356 0.63928 0.0
C1158 C 0.03889 0.08857 0.68611 0.0
C1159 C 0.13527 0.02902 0.64715 0.0
C1160 C 0.07672 1.00356 0.72701 0.0
C1161 C 0.05503 0.98391 0.71431 0.0
C1162 C 0.0873 0.02781 0.71161 0.0
C1163 C 0.0763 0.03258 0.68249 0.0
C1164 C 0.0546 1.01276 0.66932 0.0
C1165 C 0.04402 0.98874 0.68547 0.0
C1166 C 0.10998 0.04862 0.72675 0.0
C1167 C 0.04258 0.01694 0.63821 0.0
H1168 H 0.06906 0.13242 0.65975 0.0
H1169 H 0.15078 0.08269 0.62771 0.0
H1170 H 0.02196 0.07195 0.67784 0.0
H1171 H 0.04367 0.08401 0.70969 0.0
H1172 H 0.02722 0.11081 0.6845 0.0
H1173 H 0.15578 0.03112 0.63209 0.0
H1174 H 0.14459 0.02176 0.66887 0.0
H1175 H 0.11972 1.01148 0.6384 0.0
H1176 H 0.08523 1.0003 0.74936 0.0
H1177 H 0.02732 0.9737 0.67544 0.0
H1178 H 0.09908 0.07121 0.72773 0.0
H1179 H 0.13234 0.04969 0.71398 0.0
H1180 H 0.11621 0.04183 0.74951 0.0
H1181 H 0.0297 0.03857 0.63645 0.0
H1182 H 0.02626 0.99933 0.63094 0.0
H1183 H 0.06306 0.01711 0.6229 0.0
C1184 C 0.20782 0.82871 0.87796 0.0
C1185 C 0.19579 0.85715 0.88511 0.0
C1186 C 0.2332 0.81571 0.89424 0.0
C1187 C 0.24703 0.83164 0.91802 0.0
C1188 C 0.23569 0.86074 0.92457 0.0
C1189 C 0.21019 0.87304 0.90817 0.0
C1190 C 0.24439 0.78458 0.88668 0.0
C1191 C 0.24992 0.87869 0.94949 0.0
C1192 C 0.28338 0.79501 0.98524 0.0
C1193 C 0.31607 0.79927 0.98145 0.0
C1194 C 0.26088 0.8037 0.96381 0.0
C1195 C 0.27124 0.81732 0.93796 0.0
C1196 C 0.30445 0.82001 0.93315 0.0
C1197 C 0.32657 0.8108 0.95497 0.0
C1198 C 0.22584 0.79988 0.96971 0.0
C1199 C 0.31651 0.83426 0.90585 0.0
H1200 H 0.19679 0.81631 0.86017 0.0
H1201 H 0.20148 0.89524 0.91341 0.0
H1202 H 0.27079 0.7832 0.88488 0.0
H1203 H 0.23773 0.76972 0.90459 0.0
H1204 H 0.2337 0.77638 0.86572 0.0
H1205 H 0.24003 0.90168 0.95035 0.0
H1206 H 0.24506 0.8682 0.97079 0.0
H1207 H 0.27623 0.87931 0.94717 0.0
H1208 H 0.27522 0.78572 1.00555 0.0
H1209 H 0.35186 0.814 0.95193 0.0
H1210 H 0.21396 0.78966 0.95029 0.0
H1211 H 0.21401 0.82178 0.97373 0.0
H1212 H 0.22195 0.786 0.98916 0.0
H1213 H 0.30439 0.8254 0.8859 0.0
H1214 H 0.34274 0.83085 0.90335 0.0
H1215 H 0.31095 0.85831 0.90708 0.0
C1216 C 0.44202 0.05467 0.21759 0.0
C1217 C 0.47022 0.06938 0.21185 0.0
C1218 C 0.43443 0.02866 0.20227 0.0
C1219 C 0.45533 0.01709 0.18033 0.0
C1220 C 0.48355 0.03209 0.17396 0.0
C1221 C 0.49078 0.05797 0.18993 0.0
C1222 C 0.40422 1.01328 0.20996 0.0
C1223 C 0.5062 0.02067 0.15044 0.0
C1224 C 0.44727 0.93528 0.16328 0.0
C1225 C 0.42601 0.93574 0.13925 0.0
C1226 C 0.45799 0.96161 0.17622 0.0
C1227 C 0.44755 0.98904 0.16456 0.0
C1228 C 0.42729 0.98954 0.13941 0.0
C1229 C 0.41655 0.9629 0.12722 0.0
C1230 C 0.47923 0.96008 0.20323 0.0
C1231 C 0.41602 0.01826 0.12601 0.0
H1232 H 0.426 0.06315 0.23455 0.0
H1233 H 0.51256 0.06922 0.18526 0.0
H1234 H 0.38861 1.0113 0.19019 0.0
H1235 H 0.41019 0.99061 0.21739 0.0
H1236 H 0.39052 0.02514 0.2276 0.0
H1237 H 0.52635 0.03558 0.1472 0.0
H1238 H 0.5161 0.99862 0.15647 0.0
H1239 H 0.4932 0.01796 0.1292 0.0
H1240 H 0.45446 0.91434 0.17277 0.0
H1241 H 0.40042 0.9633 0.10841 0.0
H1242 H 0.46615 0.96955 0.2225 0.0
H1243 H 0.50068 0.97339 0.20026 0.0
H1244 H 0.48708 0.9371 0.20827 0.0
H1245 H 0.39974 0.03036 0.14147 0.0
H1246 H 0.40313 1.01483 0.10479 0.0
H1247 H 0.43659 0.03249 0.12223 0.0
C1248 C 0.85195 0.34565 0.65746 0.0
C1249 C 0.84695 0.36377 0.68246 0.0
C1250 C 0.82639 0.33207 0.64298 0.0
C1251 C 0.79495 0.33681 0.65365 0.0
C1252 C 0.7899 0.35407 0.67961 0.0
C1253 C 0.81598 0.36729 0.69375 0.0
C1254 C 0.83289 0.31367 0.61552 0.0
C1255 C 0.75677 0.35975 0.69164 0.0
C1256 C 0.7296 0.3352 0.59538 0.0
C1257 C 0.71705 0.30713 0.59872 0.0
C1258 C 0.75442 0.34517 0.61349 0.0
C1259 C 0.76726 0.32669 0.63567 0.0
C1260 C 0.75442 0.29852 0.63964 0.0
C1261 C 0.72944 0.28904 0.62109 0.0
C1262 C 0.76727 0.37541 0.60852 0.0
C1263 C 0.76746 0.2782 0.66307 0.0
H1264 H 0.87592 0.34231 0.64899 0.0
H1265 H 0.81195 0.3813 0.71304 0.0
H1266 H 0.8214 0.29206 0.61695 0.0
H1267 H 0.82241 0.32503 0.59611 0.0
H1268 H 0.85885 0.30976 0.61175 0.0
H1269 H 0.75721 0.3708 0.71367 0.0
H1270 H 0.74276 0.37399 0.67633 0.0
H1271 H 0.74407 0.33877 0.69333 0.0
H1272 H 0.72016 0.34955 0.57837 0.0
H1273 H 0.71997 0.26733 0.62386 0.0
H1274 H 0.79276 0.37338 0.60216 0.0
H1275 H 0.76603 0.38883 0.62918 0.0
H1276 H 0.75391 0.38747 0.59101 0.0
H1277 H 0.79257 0.27162 0.65801 0.0
H1278 H 0.75338 0.25795 0.66476 0.0
H1279 H 0.76756 0.28976 0.68481 0.0
C1280 C 0.93301 0.45674 0.86436 0.0
C1281 C 0.96471 0.44772 0.8587 0.0
C1282 C 0.92586 0.48195 0.88188 0.0
C1283 C 0.95101 0.49873 0.89393 0.0
C1284 C 0.98306 0.48887 0.88944 0.0
C1285 C 0.98952 0.46343 0.87202 0.0
C1286 C 0.89134 0.49132 0.8865 0.0
C1287 C 0.01063 0.50597 0.90182 0.0
C1288 C 0.93135 0.5803 0.90894 0.0
C1289 C 0.92581 0.58101 0.9394 0.0
C1290 C 0.94029 0.55386 0.89407 0.0
C1291 C 0.94369 0.5273 0.9099 0.0
C1292 C 0.93899 0.52798 0.94073 0.0
C1293 C 0.93027 0.55475 0.95507 0.0
C1294 C 0.94531 0.55422 0.86121 0.0
C1295 C 0.94243 0.50027 0.9585 0.0
H1296 H 0.91373 0.44467 0.85421 0.0
H1297 H 0.01411 0.4566 0.86778 0.0
H1298 H 0.88658 0.49484 0.91031 0.0
H1299 H 0.88624 0.51261 0.87552 0.0
H1300 H 0.87461 0.4748 0.87754 0.0
H1301 H 0.03396 0.49409 0.89854 0.0
H1302 H 0.01141 0.52759 0.89089 0.0
H1303 H 1.00737 0.51048 0.9257 0.0
H1304 H 0.92768 0.60027 0.89649 0.0
H1305 H 0.92667 0.55505 0.97867 0.0
H1306 H 0.92726 0.54051 0.84991 0.0
H1307 H 0.96919 0.54449 0.85571 0.0
H1308 H 0.9434 0.57685 0.85234 0.0
H1309 H 0.92445 0.48427 0.95096 0.0
H1310 H 0.93921 0.50466 0.98245 0.0
H1311 H 0.96633 0.48964 0.95502 0.0
C1312 C 0.80325 0.75728 0.1189 0.0
C1313 C 0.81235 0.73982 0.09436 0.0
C1314 C 0.77901 0.74855 0.13777 0.0
C1315 C 0.76345 0.72178 0.1319 0.0
C1316 C 0.77243 0.70416 0.10711 0.0
C1317 C 0.79677 0.71334 0.08872 0.0
C1318 C 0.77021 0.76785 0.16407 0.0
C1319 C 0.75643 0.67546 0.10007 0.0
C1320 C 0.72306 0.68045 0.1923 0.0
C1321 C 0.69062 0.68662 0.18638 0.0
C1322 C 0.74703 0.69267 0.17545 0.0
C1323 C 0.7384 0.71152 0.15202 0.0
C1324 C 0.70573 0.71874 0.14662 0.0
C1325 C 0.68221 0.70625 0.16392 0.0
C1326 C 0.78157 0.68457 0.18209 0.0
C1327 C 0.69558 0.73874 0.12182 0.0
H1328 H 0.81511 0.77778 0.12348 0.0
H1329 H 0.80351 0.69969 0.06981 0.0
H1330 H 0.74447 0.77431 0.16303 0.0
H1331 H 0.77417 0.75539 0.18464 0.0
H1332 H 0.78435 0.78815 0.16539 0.0
H1333 H 0.76569 0.66467 0.07958 0.0
H1334 H 0.76023 0.66002 0.1185 0.0
H1335 H 0.73028 0.67939 0.09752 0.0
H1336 H 0.72972 0.66573 0.21 0.0
H1337 H 0.65718 0.71099 0.15916 0.0
H1338 H 0.79565 0.70476 0.18481 0.0
H1339 H 0.79192 0.67161 0.16335 0.0
H1340 H 0.78438 0.67134 0.20233 0.0
H1341 H 0.70864 0.75961 0.12328 0.0
H1342 H 0.66951 0.74405 0.12197 0.0
H1343 H 0.70171 0.72794 0.1004 0.0
C1344 C 0.56838 0.44905 0.41017 0.0
C1345 C 0.58116 0.44921 0.43889 0.0
C1346 C 0.55763 0.4753 0.39671 0.0
C1347 C 0.55966 0.5026 0.41221 0.0
C1348 C 0.57116 0.50278 0.44166 0.0
C1349 C 0.58175 0.47619 0.45461 0.0
C1350 C 0.54536 0.47392 0.36537 0.0
C1351 C 0.57378 0.53128 0.45907 0.0
C1352 C 0.5716 0.56926 0.36429 0.0
C1353 C 0.54071 0.58214 0.36242 0.0
C1354 C 0.57808 0.54401 0.381 0.0
C1355 C 0.55312 0.531 0.39649 0.0
C1356 C 0.52209 0.54449 0.39572 0.0
C1357 C 0.51624 0.56988 0.37871 0.0
C1358 C 0.61158 0.53067 0.38124 0.0
C1359 C 0.4948 0.53154 0.41203 0.0
H1360 H 0.56724 0.42836 0.39796 0.0
H1361 H 0.5918 0.47677 0.47667 0.0
H1362 H 0.52195 0.48589 0.36355 0.0
H1363 H 0.56221 0.48493 0.35076 0.0
H1364 H 0.5426 0.4509 0.35723 0.0
H1365 H 0.5796 0.52747 0.48264 0.0
H1366 H 0.59281 0.54458 0.44961 0.0
H1367 H 0.55111 0.54451 0.45765 0.0
H1368 H 0.59084 0.57854 0.35204 0.0
H1369 H 0.49228 0.5795 0.37742 0.0
H1370 H 0.61157 0.50831 0.37093 0.0
H1371 H 0.62033 0.52822 0.40422 0.0
H1372 H 0.62864 0.54418 0.36918 0.0
H1373 H 0.48889 0.50998 0.40178 0.0
H1374 H 0.47302 0.54614 0.41171 0.0
H1375 H 0.50176 0.52743 0.43525 0.0
C1376 C 0.34887 0.31059 0.18403 0.0
C1377 C 0.36968 0.33419 0.1824 0.0
C1378 C 0.36001 0.28238 0.19252 0.0
C1379 C 0.39277 0.27756 0.1995 0.0
C1380 C 0.4138 0.30134 0.19817 0.0
C1381 C 0.40202 0.32927 0.18973 0.0
C1382 C 0.33681 0.25765 0.1937 0.0
C1383 C 0.44889 0.29725 0.20549 0.0
C1384 C 0.42516 0.21315 0.24458 0.0
C1385 C 0.43953 0.19512 0.22271 0.0
C1386 C 0.40822 0.2393 0.23725 0.0
C1387 C 0.40559 0.24759 0.20736 0.0
C1388 C 0.41815 0.22836 0.18512 0.0
C1389 C 0.43489 0.20236 0.19306 0.0
C1390 C 0.3949 0.25894 0.26165 0.0
C1391 C 0.41574 0.23616 0.15299 0.0
H1392 H 0.3239 0.31403 0.17819 0.0
H1393 H 0.41821 0.34741 0.18916 0.0
H1394 H 0.34375 0.24005 0.17751 0.0
H1395 H 0.33762 0.24763 0.21579 0.0
H1396 H 0.31187 0.26524 0.18886 0.0
H1397 H 0.46201 0.31804 0.20376 0.0
H1398 H 0.45193 0.28897 0.2282 0.0
H1399 H 0.45999 0.2805 0.19035 0.0
H1400 H 0.42852 0.20761 0.26754 0.0
H1401 H 0.44576 0.18842 0.17604 0.0
H1402 H 0.37001 0.2663 0.25642 0.0
H1403 H 0.40934 0.27896 0.26385 0.0
H1404 H 0.39519 0.24769 0.28317 0.0
H1405 H 0.39082 0.24277 0.14707 0.0
H1406 H 0.42366 0.21755 0.13829 0.0
H1407 H 0.43088 0.25525 0.14883 0.0
C1408 C 0.9292 0.31209 0.80289 0.0
C1409 C 0.95026 0.32407 0.82383 0.0
C1410 C 0.9124 0.28643 0.80879 0.0
C1411 C 0.91696 0.27233 0.83618 0.0
C1412 C 0.93786 0.28457 0.85746 0.0
C1413 C 0.95408 0.31022 0.85109 0.0
C1414 C 0.8901 0.27422 0.78564 0.0
C1415 C 0.94353 0.27032 0.88694 0.0
C1416 C 0.85869 0.21961 0.8689 0.0
C1417 C 0.87443 0.19221 0.8641 0.0
C1418 C 0.87125 0.24573 0.85837 0.0
C1419 C 0.90046 0.24453 0.84287 0.0
C1420 C 0.91569 0.21679 0.83679 0.0
C1421 C 0.90244 0.19097 0.84737 0.0
C1422 C 0.85401 0.27475 0.86505 0.0
C1423 C 0.94695 0.21448 0.82053 0.0
H1424 H 0.92602 0.3226 0.78178 0.0
H1425 H 0.97025 0.31914 0.86751 0.0
H1426 H 0.8989 0.252 0.77831 0.0
H1427 H 0.86601 0.27167 0.79502 0.0
H1428 H 0.88792 0.28855 0.76612 0.0
H1429 H 0.9604 0.2827 0.90115 0.0
H1430 H 0.92061 0.26881 0.89877 0.0
H1431 H 0.95333 0.24752 0.88363 0.0
H1432 H 0.83675 0.22068 0.8814 0.0
H1433 H 0.91485 0.16993 0.84372 0.0
H1434 H 0.85163 0.28806 0.84486 0.0
H1435 H 0.86809 0.28761 0.88133 0.0
H1436 H 0.82984 0.27171 0.87416 0.0
H1437 H 0.94534 0.22716 0.7999 0.0
H1438 H 0.95408 0.19127 0.81498 0.0
H1439 H 0.96606 0.2242 0.83437 0.0
C1440 C 0.0817 0.65375 0.11192 0.0
C1441 C 0.07724 0.62392 0.11785 0.0
C1442 C 0.05668 0.6717 0.10055 0.0
C1443 C 0.02635 0.65964 0.09497 0.0
C1444 C 0.02212 0.62925 0.09961 0.0
C1445 C 0.04756 0.6118 0.11093 0.0
C1446 C 0.06231 0.70395 0.09583 0.0
C1447 C 0.9903 0.61541 0.09383 0.0
C1448 C 0.95489 0.71304 0.10224 0.0
C1449 C 0.94769 0.71949 0.07281 0.0
C1450 C 0.97995 0.69318 0.10961 0.0
C1451 C 0.99843 0.67936 0.087 0.0
C1452 C 0.99065 0.68511 0.05715 0.0
C1453 C 0.96531 0.7051 0.0504 0.0
C1454 C 0.98711 0.68752 0.1417 0.0
C1455 C 0.00962 0.67079 0.03238 0.0
H1456 H 0.10438 0.66345 0.11738 0.0
H1457 H 0.044 0.58867 0.11489 0.0
H1458 H 0.05424 0.71035 0.07345 0.0
H1459 H 0.04809 0.7175 0.11185 0.0
H1460 H 0.08787 0.70936 0.09859 0.0
H1461 H 0.99169 0.59105 0.09587 0.0
H1462 H 0.9725 0.6245 0.10978 0.0
H1463 H 0.98134 0.62084 0.07145 0.0
H1464 H 0.94124 0.72398 0.11965 0.0
H1465 H 0.95978 0.70997 0.0276 0.0
H1466 H 0.01146 0.69489 0.14737 0.0
H1467 H 0.98663 0.66355 0.14595 0.0
H1468 H 0.96979 0.69917 0.15657 0.0
H1469 H 0.03447 0.67856 0.03325 0.0
H1470 H 0.99916 0.67588 1.01042 0.0
H1471 H 0.01089 0.64651 0.03487 0.0
C1472 C 0.66337 0.82429 0.34584 0.0
C1473 C 0.65059 0.84042 0.36996 0.0
C1474 C 0.64998 0.79767 0.33598 0.0
C1475 C 0.62309 0.78677 0.35048 0.0
C1476 C 0.61083 0.80238 0.37544 0.0
C1477 C 0.62458 0.82891 0.38476 0.0
C1478 C 0.66391 0.78177 0.30935 0.0
C1479 C 0.58214 0.79177 0.39159 0.0
C1480 C 0.55963 0.74368 0.30964 0.0
C1481 C 0.56442 0.71515 0.32051 0.0
C1482 C 0.5797 0.76664 0.31789 0.0
C1483 C 0.6053 0.76118 0.33783 0.0
C1484 C 0.61151 0.73194 0.34753 0.0
C1485 C 0.59101 0.70915 0.33864 0.0
C1486 C 0.57222 0.7972 0.3066 0.0
C1487 C 0.63862 0.72508 0.36862 0.0
H1488 H 0.68376 0.83258 0.33446 0.0
H1489 H 0.61407 0.8412 0.4031 0.0
H1490 H 0.668 0.75802 0.3139 0.0
H1491 H 0.64674 0.78333 0.29065 0.0
H1492 H 0.68681 0.79115 0.30253 0.0
H1493 H 0.57725 0.80484 0.41207 0.0
H1494 H 0.56071 0.79339 0.37707 0.0
H1495 H 0.58576 0.76827 0.39739 0.0
H1496 H 0.53923 0.74835 0.2954 0.0
H1497 H 0.59473 0.68717 0.3472 0.0
H1498 H 0.59398 0.80682 0.29752 0.0
H1499 H 0.56395 0.8118 0.32505 0.0
H1500 H 0.55338 0.79725 0.28921 0.0
H1501 H 0.66087 0.73526 0.36131 0.0
H1502 H 0.64313 0.70097 0.37079 0.0
H1503 H 0.63279 0.7346 0.39067 0.0
C1504 C 0.58813 0.35514 0.57167 0.0
C1505 C 0.57585 0.3269 0.56825 0.0
C1506 C 0.56789 0.37953 0.57882 0.0
C1507 C 0.53484 0.37531 0.58284 0.0
C1508 C 0.52231 0.34698 0.57812 0.0
C1509 C 0.54295 0.3232 0.57084 0.0
C1510 C 0.582 0.4095 0.58311 0.0
C1511 C 0.4872 0.34145 0.58197 0.0
C1512 C 0.48192 0.41971 0.63512 0.0
C1513 C 0.46124 0.43443 0.61547 0.0
C1514 C 0.50787 0.40228 0.62484 0.0
C1515 C 0.5133 0.39954 0.59417 0.0
C1516 C 0.49418 0.41637 0.57441 0.0
C1517 C 0.46826 0.43354 0.5853 0.0
C1518 C 0.52772 0.38477 0.64669 0.0
C1519 C 0.4995 0.41448 0.5416 0.0
H1520 H 0.61359 0.35802 0.5696 0.0
H1521 H 0.53335 0.30141 0.56792 0.0
H1522 H 0.56799 0.42625 0.57053 0.0
H1523 H 0.58083 0.41617 0.6067 0.0
H1524 H 0.60731 0.40971 0.57604 0.0
H1525 H 0.48111 0.31841 0.57611 0.0
H1526 H 0.48039 0.34594 0.60522 0.0
H1527 H 0.47255 0.35658 0.56806 0.0
H1528 H 0.4766 0.42014 0.65844 0.0
H1529 H 0.4527 0.44534 0.57004 0.0
H1530 H 0.55353 0.38635 0.64197 0.0
H1531 H 0.52171 0.36116 0.64474 0.0
H1532 H 0.5234 0.39237 0.66975 0.0
H1533 H 0.52535 0.41452 0.5365 0.0
H1534 H 0.48717 0.43297 0.52999 0.0
H1535 H 0.49005 0.39348 0.53277 0.0
C1536 C 0.13776 0.72006 0.73274 0.0
C1537 C 0.16702 0.71851 0.71791 0.0
C1538 C 0.12248 0.74732 0.73946 0.0
C1539 C 0.13683 0.77379 0.73135 0.0
C1540 C 0.16748 0.7725 0.71851 0.0
C1541 C 0.18214 0.74491 0.71176 0.0
C1542 C 0.09013 0.74774 0.75387 0.0
C1543 C 0.18397 0.80023 0.71038 0.0
C1544 C 0.07624 0.83363 0.71053 0.0
C1545 C 0.07458 0.85111 0.7362 0.0
C1546 C 0.09773 0.80947 0.70821 0.0
C1547 C 0.11772 0.80212 0.73249 0.0
C1548 C 0.11705 0.82045 0.75819 0.0
C1549 C 0.09563 0.84505 0.75959 0.0
C1550 C 0.09757 0.79071 0.68037 0.0
C1551 C 0.13805 0.81371 0.78454 0.0
H1552 H 0.12627 0.69988 0.73835 0.0
H1553 H 0.2047 0.74413 0.70026 0.0
H1554 H 0.08982 0.76311 0.77317 0.0
H1555 H 0.07166 0.75585 0.73805 0.0
H1556 H 0.08353 0.72556 0.76122 0.0
H1557 H 0.20915 0.79574 0.70378 0.0
H1558 H 0.171 0.81085 0.69177 0.0
H1559 H 0.18357 0.81618 0.72921 0.0
H1560 H 0.05968 0.83822 0.69256 0.0
H1561 H 0.09385 0.85827 0.77966 0.0
H1562 H 0.08858 0.76859 0.68524 0.0
H1563 H 0.12218 0.78753 0.67183 0.0
H1564 H 0.08226 0.80061 0.66281 0.0
H1565 H 0.1413 0.78964 0.7878 0.0
H1566 H 0.12807 0.82386 0.80504 0.0
H1567 H 0.16197 0.8228 0.781 0.0
C1568 C 0.47718 0.8318 0.9804 0.0
C1569 C 0.45836 0.83635 1.00559 0.0
C1570 C 0.50127 0.85118 0.97336 0.0
C1571 C 0.50682 0.87599 0.99186 0.0
C1572 C 0.48816 0.88069 0.0175 0.0
C1573 C 0.46418 0.86079 0.0241 0.0
C1574 C 0.52059 0.84523 0.94584 0.0
C1575 C 0.49328 0.90689 0.03776 0.0
C1576 C 0.58733 0.91044 0.97976 0.0
C1577 C 0.57922 0.93222 0.95926 0.0
C1578 C 0.56378 0.89292 0.99186 0.0
C1579 C 0.53135 0.89738 0.98334 0.0
C1580 C 0.5229 0.92041 0.96391 0.0
C1581 C 0.54688 0.9375 0.95213 0.0
C1582 C 0.57382 0.86863 1.01254 0.0
C1583 C 0.48866 0.9261 0.95436 0.0
H1584 H 0.47315 0.81296 0.96597 0.0
H1585 H 0.4499 0.8645 0.04368 0.0
H1586 H 0.51695 0.86372 0.93041 0.0
H1587 H 0.54642 0.84378 0.95145 0.0
H1588 H 0.51398 0.82447 0.93429 0.0
H1589 H 0.47784 0.9067 0.05751 0.0
H1590 H 0.51862 0.90728 0.04508 0.0
H1591 H 0.4881 0.92757 0.02575 0.0
H1592 H 0.61225 0.90618 0.98534 0.0
H1593 H 0.54034 0.9547 0.93678 0.0
H1594 H 0.57082 0.84693 1.00135 0.0
H1595 H 0.55846 0.86922 0.03231 0.0
H1596 H 0.59915 0.87023 0.01971 0.0
H1597 H 0.48057 0.90733 0.94048 0.0
H1598 H 0.48563 0.94661 0.94152 0.0
H1599 H 0.47284 0.92781 0.9738 0.0
C1600 C 0.96717 0.11845 0.45735 0.0
C1601 C 0.93488 0.12595 0.46252 0.0
C1602 C 0.99178 0.13577 0.46885 0.0
C1603 C 0.9841 0.16142 0.4859 0.0
C1604 C 0.95163 0.16875 0.49185 0.0
C1605 C 0.92747 0.15097 0.48013 0.0
C1606 C 0.02603 0.12713 0.4619 0.0
C1607 C 0.94237 0.19583 0.51 0.0
C1608 C 0.05032 0.19639 0.53195 0.0
C1609 C 0.06 0.21893 0.51358 0.0
C1610 C 0.02556 0.17763 0.52341 0.0
C1611 C 0.00993 0.18151 0.49586 0.0
C1612 C 0.01943 0.20436 0.47736 0.0
C1613 C 0.04428 0.22268 0.48638 0.0
C1614 C 0.0163 0.15348 0.54376 0.0
C1615 C 1.00344 0.20938 0.44785 0.0
H1616 H 0.97328 0.09948 0.44344 0.0
H1617 H 0.90268 0.15678 0.48463 0.0
H1618 H 0.03649 0.14415 0.44803 0.0
H1619 H 0.04047 0.12594 0.48247 0.0
H1620 H 0.02818 0.10552 0.45005 0.0
H1621 H 0.91626 0.19761 0.51404 0.0
H1622 H 0.95512 0.19551 0.53151 0.0
H1623 H 0.94959 0.21587 0.49848 0.0
H1624 H 0.06222 0.19322 0.55297 0.0
H1625 H 0.05138 0.24003 0.47198 0.0
H1626 H 0.01985 0.13169 0.5326 0.0
H1627 H 0.99059 0.15597 0.54921 0.0
H1628 H 0.03046 0.15357 0.56458 0.0
H1629 H 1.0066 0.1894 0.43359 0.0
H1630 H 0.01321 0.22842 0.43627 0.0
H1631 H 0.97739 0.21338 0.45077 0.0
loop_
_geom_bond_atom_site_label_1
_geom_bond_atom_site_label_2
_geom_bond_distance
_geom_bond_site_symmetry_2
_ccdc_geom_bond_type
Tb0 C2 2.809 . S
Tb0 O20 2.484 . S
Tb0 O21 2.440 . S
Tb0 O22 2.658 . S
Tb0 O23 2.409 . S
Tb0 O24 2.378 . S
Tb0 O28 2.325 . S
Tb0 O31 2.341 . S
Tb1 C11 2.809 . S
Tb1 O22 2.325 . S
Tb1 O25 2.341 . S
Tb1 O26 2.484 . S
Tb1 O27 2.440 . S
Tb1 O28 2.658 . S
Tb1 O29 2.409 . S
Tb1 O30 2.378 . S
C2 Tb0 2.809 . S
C2 C3 1.514 . S
C2 O20 1.248 . S
C2 O21 1.266 . S
C3 C2 1.514 . S
C3 C4 1.359 . S
C3 C8 1.348 . S
C4 C3 1.359 . S
C4 C5 1.380 . S
C4 H32 0.929 . S
C5 C4 1.380 . S
C5 C6 1.347 . S
C5 H33 0.931 . S
C6 C5 1.347 . S
C6 C7 1.369 . S
C7 C6 1.369 . S
C7 C8 1.408 . S
C7 H34 0.930 . S
C8 C3 1.348 . S
C8 C7 1.408 . S
C8 H35 0.930 . S
C9 O22 1.281 . S
C9 O23 1.254 . S
C10 O24 1.236 . S
C10 O25 1.266 . S
C11 Tb1 2.809 . S
C11 C12 1.514 . S
C11 O26 1.248 . S
C11 O27 1.266 . S
C12 C11 1.514 . S
C12 C13 1.359 . S
C12 C17 1.348 . S
C13 C12 1.359 . S
C13 C14 1.380 . S
C13 H36 0.929 . S
C14 C13 1.380 . S
C14 C15 1.347 . S
C14 H37 0.931 . S
C15 C14 1.347 . S
C15 C16 1.369 . S
C16 C15 1.369 . S
C16 C17 1.408 . S
C16 H38 0.930 . S
C17 C12 1.348 . S
C17 C16 1.408 . S
C17 H39 0.930 . S
C18 O28 1.281 . S
C18 O29 1.254 . S
C19 O30 1.236 . S
C19 O31 1.266 . S
O20 Tb0 2.484 . S
O20 C2 1.248 . S
O21 Tb0 2.440 . S
O21 C2 1.266 . S
O22 Tb0 2.658 . S
O22 Tb1 2.325 . S
O22 C9 1.281 . S
O23 Tb0 2.409 . S
O23 C9 1.254 . S
O24 Tb0 2.378 . S
O24 C10 1.236 . S
O25 Tb1 2.341 . S
O25 C10 1.266 . S
O26 Tb1 2.484 . S
O26 C11 1.248 . S
O27 Tb1 2.440 . S
O27 C11 1.266 . S
O28 Tb0 2.325 . S
O28 Tb1 2.658 . S
O28 C18 1.281 . S
O29 Tb1 2.409 . S
O29 C18 1.254 . S
O30 Tb1 2.378 . S
O30 C19 1.236 . S
O31 Tb0 2.341 . S
O31 C19 1.266 . S
H32 C4 0.929 . S
H33 C5 0.931 . S
H34 C7 0.930 . S
H35 C8 0.930 . S
H36 C13 0.929 . S
H37 C14 0.931 . S
H38 C16 0.930 . S
H39 C17 0.930 . S
Tb40 C42 2.809 . S
Tb40 O60 2.484 . S
Tb40 O61 2.440 . S
Tb40 O62 2.658 1_655 S
Tb40 O63 2.409 1_655 S
Tb40 O64 2.378 1_655 S
Tb40 O68 2.325 . S
Tb40 O71 2.341 . S
Tb41 C51 2.809 . S
Tb41 O62 2.325 . S
Tb41 O65 2.341 . S
Tb41 O66 2.484 . S
Tb41 O67 2.440 . S
Tb41 O68 2.658 1_455 S
Tb41 O69 2.409 1_455 S
Tb41 O70 2.378 1_455 S
C42 Tb40 2.809 . S
C42 C43 1.514 . S
C42 O60 1.248 . S
C42 O61 1.266 . S
C43 C42 1.514 . S
C43 C44 1.359 . S
C43 C48 1.348 . S
C44 C43 1.359 . S
C44 C45 1.380 . S
C44 H72 0.929 . S
C45 C44 1.380 . S
C45 C46 1.347 . S
C45 H73 0.931 . S
C46 C45 1.347 . S
C46 C47 1.369 . S
C47 C46 1.369 . S
C47 C48 1.408 . S
C47 H74 0.930 . S
C48 C43 1.348 . S
C48 C47 1.408 . S
C48 H75 0.930 . S
C49 O62 1.281 . S
C49 O63 1.254 . S
C50 O64 1.236 . S
C50 O65 1.266 . S
C51 Tb41 2.809 . S
C51 C52 1.514 . S
C51 O66 1.248 . S
C51 O67 1.266 . S
C52 C51 1.514 . S
C52 C53 1.359 . S
C52 C57 1.348 . S
C53 C52 1.359 . S
C53 C54 1.380 . S
C53 H76 0.929 . S
C54 C53 1.380 . S
C54 C55 1.347 . S
C54 H77 0.931 . S
C55 C54 1.347 . S
C55 C56 1.369 . S
C56 C55 1.369 . S
C56 C57 1.408 . S
C56 H78 0.930 . S
C57 C52 1.348 . S
C57 C56 1.408 . S
C57 H79 0.930 . S
C58 O68 1.281 . S
C58 O69 1.254 . S
C59 O70 1.236 . S
C59 O71 1.266 . S
O60 Tb40 2.484 . S
O60 C42 1.248 . S
O61 Tb40 2.440 . S
O61 C42 1.266 . S
O62 Tb40 2.658 1_455 S
O62 Tb41 2.325 . S
O62 C49 1.281 . S
O63 Tb40 2.409 1_455 S
O63 C49 1.254 . S
O64 Tb40 2.378 1_455 S
O64 C50 1.236 . S
O65 Tb41 2.341 . S
O65 C50 1.266 . S
O66 Tb41 2.484 . S
O66 C51 1.248 . S
O67 Tb41 2.440 . S
O67 C51 1.266 . S
O68 Tb40 2.325 . S
O68 Tb41 2.658 1_655 S
O68 C58 1.281 . S
O69 Tb41 2.409 1_655 S
O69 C58 1.254 . S
O70 Tb41 2.378 1_655 S
O70 C59 1.236 . S
O71 Tb40 2.341 . S
O71 C59 1.266 . S
H72 C44 0.929 . S
H73 C45 0.931 . S
H74 C47 0.930 . S
H75 C48 0.930 . S
H76 C53 0.929 . S
H77 C54 0.931 . S
H78 C56 0.930 . S
H79 C57 0.930 . S
Tb80 C82 2.809 . S
Tb80 O100 2.484 . S
Tb80 O101 2.440 . S
Tb80 O102 2.658 1_554 S
Tb80 O103 2.409 1_554 S
Tb80 O104 2.378 1_554 S
Tb80 O108 2.325 . S
Tb80 O111 2.341 . S
Tb81 C91 2.809 . S
Tb81 O102 2.325 . S
Tb81 O105 2.341 . S
Tb81 O106 2.484 . S
Tb81 O107 2.440 . S
Tb81 O108 2.658 1_556 S
Tb81 O109 2.409 1_556 S
Tb81 O110 2.380 . S
C82 Tb80 2.809 . S
C82 C83 1.514 . S
C82 O100 1.248 . S
C82 O101 1.266 . S
C83 C82 1.514 . S
C83 C84 1.359 . S
C83 C88 1.348 . S
C84 C83 1.359 . S
C84 C85 1.380 . S
C84 H112 0.929 . S
C85 C84 1.380 . S
C85 C86 1.347 . S
C85 H113 0.931 . S
C86 C85 1.347 . S
C86 C87 1.369 . S
C87 C86 1.369 . S
C87 C88 1.408 . S
C87 H114 0.930 . S
C88 C83 1.348 . S
C88 C87 1.408 . S
C88 H115 0.930 . S
C89 O102 1.281 . S
C89 O103 1.254 . S
C90 O104 1.236 . S
C90 O105 1.266 . S
C91 Tb81 2.809 . S
C91 C92 1.514 . S
C91 O106 1.248 . S
C91 O107 1.266 . S
C92 C91 1.514 . S
C92 C93 1.359 . S
C92 C97 1.348 . S
C93 C92 1.359 . S
C93 C94 1.380 . S
C93 H116 0.929 . S
C94 C93 1.380 . S
C94 C95 1.347 . S
C94 H117 0.931 . S
C95 C94 1.347 . S
C95 C96 1.369 . S
C96 C95 1.369 . S
C96 C97 1.408 . S
C96 H118 0.930 . S
C97 C92 1.348 . S
C97 C96 1.408 . S
C97 H119 0.930 . S
C98 O108 1.281 . S
C98 O109 1.254 . S
C99 O110 1.234 1_554 S
C99 O111 1.266 . S
O100 Tb80 2.484 . S
O100 C82 1.248 . S
O101 Tb80 2.440 . S
O101 C82 1.266 . S
O102 Tb80 2.658 1_556 S
O102 Tb81 2.325 . S
O102 C89 1.281 . S
O103 Tb80 2.409 1_556 S
O103 C89 1.254 . S
O104 Tb80 2.378 1_556 S
O104 C90 1.236 . S
O105 Tb81 2.341 . S
O105 C90 1.266 . S
O106 Tb81 2.484 . S
O106 C91 1.248 . S
O107 Tb81 2.440 . S
O107 C91 1.266 . S
O108 Tb80 2.325 . S
O108 Tb81 2.658 1_554 S
O108 C98 1.281 . S
O109 Tb81 2.409 1_554 S
O109 C98 1.254 . S
O110 Tb81 2.380 . S
O110 C99 1.234 1_556 S
O111 Tb80 2.341 . S
O111 C99 1.266 . S
H112 C84 0.929 . S
H113 C85 0.931 . S
H114 C87 0.930 . S
H115 C88 0.930 . S
H116 C93 0.929 . S
H117 C94 0.931 . S
H118 C96 0.930 . S
H119 C97 0.930 . S
Tb120 C122 2.809 . S
Tb120 O140 2.484 . S
Tb120 O141 2.440 . S
Tb120 O142 2.658 . S
Tb120 O143 2.409 . S
Tb120 O144 2.378 . S
Tb120 O148 2.325 . S
Tb120 O151 2.341 . S
Tb121 C131 2.809 . S
Tb121 O142 2.325 . S
Tb121 O145 2.341 . S
Tb121 O146 2.484 . S
Tb121 O147 2.440 . S
Tb121 O148 2.658 . S
Tb121 O149 2.409 . S
Tb121 O150 2.378 . S
C122 Tb120 2.809 . S
C122 C123 1.514 . S
C122 O140 1.248 . S
C122 O141 1.266 . S
C123 C122 1.514 . S
C123 C124 1.359 . S
C123 C128 1.348 . S
C124 C123 1.359 . S
C124 C125 1.380 . S
C124 H152 0.929 . S
C125 C124 1.380 . S
C125 C126 1.347 . S
C125 H153 0.931 . S
C126 C125 1.347 . S
C126 C127 1.369 . S
C127 C126 1.369 . S
C127 C128 1.408 . S
C127 H154 0.930 . S
C128 C123 1.348 . S
C128 C127 1.408 . S
C128 H155 0.930 . S
C129 O142 1.281 . S
C129 O143 1.254 . S
C130 O144 1.236 . S
C130 O145 1.266 . S
C131 Tb121 2.809 . S
C131 C132 1.514 . S
C131 O146 1.248 . S
C131 O147 1.266 . S
C132 C131 1.514 . S
C132 C133 1.359 . S
C132 C137 1.348 . S
C133 C132 1.359 . S
C133 C134 1.380 . S
C133 H156 0.929 . S
C134 C133 1.380 . S
C134 C135 1.347 . S
C134 H157 0.931 . S
C135 C134 1.347 . S
C135 C136 1.369 . S
C136 C135 1.369 . S
C136 C137 1.408 . S
C136 H158 0.930 . S
C137 C132 1.348 . S
C137 C136 1.408 . S
C137 H159 0.930 . S
C138 O148 1.281 . S
C138 O149 1.254 . S
C139 O150 1.236 . S
C139 O151 1.266 . S
O140 Tb120 2.484 . S
O140 C122 1.248 . S
O141 Tb120 2.440 . S
O141 C122 1.266 . S
O142 Tb120 2.658 . S
O142 Tb121 2.325 . S
O142 C129 1.281 . S
O143 Tb120 2.409 . S
O143 C129 1.254 . S
O144 Tb120 2.378 . S
O144 C130 1.236 . S
O145 Tb121 2.341 . S
O145 C130 1.266 . S
O146 Tb121 2.484 . S
O146 C131 1.248 . S
O147 Tb121 2.440 . S
O147 C131 1.266 . S
O148 Tb120 2.325 . S
O148 Tb121 2.658 . S
O148 C138 1.281 . S
O149 Tb121 2.409 . S
O149 C138 1.254 . S
O150 Tb121 2.378 . S
O150 C139 1.236 . S
O151 Tb120 2.341 . S
O151 C139 1.266 . S
H152 C124 0.929 . S
H153 C125 0.931 . S
H154 C127 0.930 . S
H155 C128 0.930 . S
H156 C133 0.929 . S
H157 C134 0.931 . S
H158 C136 0.930 . S
H159 C137 0.930 . S
Tb160 C162 2.809 . S
Tb160 O180 2.484 . S
Tb160 O181 2.440 . S
Tb160 O182 2.658 . S
Tb160 O183 2.409 . S
Tb160 O184 2.378 . S
Tb160 O188 2.325 . S
Tb160 O191 2.341 . S
Tb161 C171 2.809 . S
Tb161 O182 2.325 . S
Tb161 O185 2.341 . S
Tb161 O186 2.484 . S
Tb161 O187 2.440 . S
Tb161 O188 2.658 . S
Tb161 O189 2.409 . S
Tb161 O190 2.378 . S
C162 Tb160 2.809 . S
C162 C163 1.514 . S
C162 O180 1.248 . S
C162 O181 1.266 . S
C163 C162 1.514 . S
C163 C164 1.359 . S
C163 C168 1.348 . S
C164 C163 1.359 . S
C164 C165 1.380 . S
C164 H192 0.929 . S
C165 C164 1.380 . S
C165 C166 1.347 . S
C165 H193 0.931 . S
C166 C165 1.347 . S
C166 C167 1.369 . S
C167 C166 1.369 . S
C167 C168 1.408 . S
C167 H194 0.930 . S
C168 C163 1.348 . S
C168 C167 1.408 . S
C168 H195 0.930 . S
C169 O182 1.281 . S
C169 O183 1.254 . S
C170 O184 1.236 . S
C170 O185 1.266 . S
C171 Tb161 2.809 . S
C171 C172 1.514 . S
C171 O186 1.248 . S
C171 O187 1.266 . S
C172 C171 1.514 . S
C172 C173 1.359 . S
C172 C177 1.348 . S
C173 C172 1.359 . S
C173 C174 1.380 . S
C173 H196 0.929 . S
C174 C173 1.380 . S
C174 C175 1.347 . S
C174 H197 0.931 . S
C175 C174 1.347 . S
C175 C176 1.369 . S
C176 C175 1.369 . S
C176 C177 1.408 . S
C176 H198 0.930 . S
C177 C172 1.348 . S
C177 C176 1.408 . S
C177 H199 0.930 . S
C178 O188 1.281 . S
C178 O189 1.254 . S
C179 O190 1.236 . S
C179 O191 1.266 . S
O180 Tb160 2.484 . S
O180 C162 1.248 . S
O181 Tb160 2.440 . S
O181 C162 1.266 . S
O182 Tb160 2.658 . S
O182 Tb161 2.325 . S
O182 C169 1.281 . S
O183 Tb160 2.409 . S
O183 C169 1.254 . S
O184 Tb160 2.378 . S
O184 C170 1.236 . S
O185 Tb161 2.341 . S
O185 C170 1.266 . S
O186 Tb161 2.484 . S
O186 C171 1.248 . S
O187 Tb161 2.440 . S
O187 C171 1.266 . S
O188 Tb160 2.325 . S
O188 Tb161 2.658 . S
O188 C178 1.281 . S
O189 Tb161 2.409 . S
O189 C178 1.254 . S
O190 Tb161 2.378 . S
O190 C179 1.236 . S
O191 Tb160 2.341 . S
O191 C179 1.266 . S
H192 C164 0.929 . S
H193 C165 0.931 . S
H194 C167 0.930 . S
H195 C168 0.930 . S
H196 C173 0.929 . S
H197 C174 0.931 . S
H198 C176 0.930 . S
H199 C177 0.930 . S
Tb200 C202 2.809 . S
Tb200 O220 2.484 . S
Tb200 O221 2.440 . S
Tb200 O222 2.658 . S
Tb200 O223 2.409 . S
Tb200 O224 2.378 . S
Tb200 O228 2.325 1_655 S
Tb200 O231 2.341 1_655 S
Tb201 C211 2.809 . S
Tb201 O222 2.325 1_455 S
Tb201 O225 2.341 1_455 S
Tb201 O226 2.484 . S
Tb201 O227 2.440 . S
Tb201 O228 2.658 . S
Tb201 O229 2.409 . S
Tb201 O230 2.378 . S
C202 Tb200 2.809 . S
C202 C203 1.514 . S
C202 O220 1.248 . S
C202 O221 1.266 . S
C203 C202 1.514 . S
C203 C204 1.359 . S
C203 C208 1.348 . S
C204 C203 1.359 . S
C204 C205 1.380 . S
C204 H232 0.929 . S
C205 C204 1.380 . S
C205 C206 1.347 . S
C205 H233 0.931 . S
C206 C205 1.347 . S
C206 C207 1.369 . S
C207 C206 1.369 . S
C207 C208 1.408 . S
C207 H234 0.930 . S
C208 C203 1.348 . S
C208 C207 1.408 . S
C208 H235 0.930 . S
C209 O222 1.281 . S
C209 O223 1.254 . S
C210 O224 1.236 . S
C210 O225 1.266 . S
C211 Tb201 2.809 . S
C211 C212 1.514 . S
C211 O226 1.248 . S
C211 O227 1.266 . S
C212 C211 1.514 . S
C212 C213 1.359 . S
C212 C217 1.348 . S
C213 C212 1.359 . S
C213 C214 1.380 . S
C213 H236 0.929 . S
C214 C213 1.380 . S
C214 C215 1.347 . S
C214 H237 0.931 . S
C215 C214 1.347 . S
C215 C216 1.369 . S
C216 C215 1.369 . S
C216 C217 1.408 . S
C216 H238 0.930 . S
C217 C212 1.348 . S
C217 C216 1.408 . S
C217 H239 0.930 . S
C218 O228 1.281 . S
C218 O229 1.254 . S
C219 O230 1.236 . S
C219 O231 1.266 . S
O220 Tb200 2.484 . S
O220 C202 1.248 . S
O221 Tb200 2.440 . S
O221 C202 1.266 . S
O222 Tb200 2.658 . S
O222 Tb201 2.325 1_655 S
O222 C209 1.281 . S
O223 Tb200 2.409 . S
O223 C209 1.254 . S
O224 Tb200 2.378 . S
O224 C210 1.236 . S
O225 Tb201 2.341 1_655 S
O225 C210 1.266 . S
O226 Tb201 2.484 . S
O226 C211 1.248 . S
O227 Tb201 2.440 . S
O227 C211 1.266 . S
O228 Tb200 2.325 1_455 S
O228 Tb201 2.658 . S
O228 C218 1.281 . S
O229 Tb201 2.409 . S
O229 C218 1.254 . S
O230 Tb201 2.378 . S
O230 C219 1.236 . S
O231 Tb200 2.341 1_455 S
O231 C219 1.266 . S
H232 C204 0.929 . S
H233 C205 0.931 . S
H234 C207 0.930 . S
H235 C208 0.930 . S
H236 C213 0.929 . S
H237 C214 0.931 . S
H238 C216 0.930 . S
H239 C217 0.930 . S
Tb240 C242 2.809 . S
Tb240 O260 2.484 . S
Tb240 O261 2.440 . S
Tb240 O262 2.658 . S
Tb240 O263 2.409 . S
Tb240 O264 2.378 . S
Tb240 O268 2.325 . S
Tb240 O271 2.341 1_554 S
Tb241 C251 2.809 . S
Tb241 O262 2.325 1_556 S
Tb241 O265 2.341 1_556 S
Tb241 O266 2.484 . S
Tb241 O267 2.440 . S
Tb241 O268 2.658 1_556 S
Tb241 O269 2.409 . S
Tb241 O270 2.378 . S
C242 Tb240 2.809 . S
C242 C243 1.514 . S
C242 O260 1.248 . S
C242 O261 1.266 . S
C243 C242 1.514 . S
C243 C244 1.359 . S
C243 C248 1.348 . S
C244 C243 1.359 . S
C244 C245 1.380 . S
C244 H272 0.929 . S
C245 C244 1.380 . S
C245 C246 1.347 . S
C245 H273 0.931 . S
C246 C245 1.347 . S
C246 C247 1.369 . S
C247 C246 1.369 . S
C247 C248 1.408 . S
C247 H274 0.930 . S
C248 C243 1.348 . S
C248 C247 1.408 . S
C248 H275 0.930 . S
C249 O262 1.281 . S
C249 O263 1.254 . S
C250 O264 1.236 . S
C250 O265 1.266 . S
C251 Tb241 2.809 . S
C251 C252 1.514 . S
C251 O266 1.248 . S
C251 O267 1.266 . S
C252 C251 1.514 . S
C252 C253 1.359 . S
C252 C257 1.348 . S
C253 C252 1.359 . S
C253 C254 1.380 . S
C253 H276 0.929 . S
C254 C253 1.380 . S
C254 C255 1.347 . S
C254 H277 0.931 . S
C255 C254 1.347 . S
C255 C256 1.369 . S
C256 C255 1.369 . S
C256 C257 1.408 . S
C256 H278 0.930 . S
C257 C252 1.348 . S
C257 C256 1.408 . S
C257 H279 0.930 . S
C258 O268 1.281 1_556 S
C258 O269 1.254 . S
C259 O270 1.236 . S
C259 O271 1.266 . S
O260 Tb240 2.484 . S
O260 C242 1.248 . S
O261 Tb240 2.440 . S
O261 C242 1.266 . S
O262 Tb240 2.658 . S
O262 Tb241 2.325 1_554 S
O262 C249 1.281 . S
O263 Tb240 2.409 . S
O263 C249 1.254 . S
O264 Tb240 2.378 . S
O264 C250 1.236 . S
O265 Tb241 2.341 1_554 S
O265 C250 1.266 . S
O266 Tb241 2.484 . S
O266 C251 1.248 . S
O267 Tb241 2.440 . S
O267 C251 1.266 . S
O268 Tb240 2.325 . S
O268 Tb241 2.658 1_554 S
O268 C258 1.281 1_554 S
O269 Tb241 2.409 . S
O269 C258 1.254 . S
O270 Tb241 2.378 . S
O270 C259 1.236 . S
O271 Tb240 2.341 1_556 S
O271 C259 1.266 . S
H272 C244 0.929 . S
H273 C245 0.931 . S
H274 C247 0.930 . S
H275 C248 0.930 . S
H276 C253 0.929 . S
H277 C254 0.931 . S
H278 C256 0.930 . S
H279 C257 0.930 . S
Tb280 C282 2.809 . S
Tb280 O300 2.484 . S
Tb280 O301 2.440 . S
Tb280 O302 2.658 . S
Tb280 O303 2.409 . S
Tb280 O304 2.378 . S
Tb280 O308 2.325 . S
Tb280 O311 2.341 . S
Tb281 C291 2.809 . S
Tb281 O302 2.325 . S
Tb281 O305 2.341 . S
Tb281 O306 2.484 . S
Tb281 O307 2.440 . S
Tb281 O308 2.658 . S
Tb281 O309 2.409 . S
Tb281 O310 2.378 . S
C282 Tb280 2.809 . S
C282 C283 1.514 . S
C282 O300 1.248 . S
C282 O301 1.266 . S
C283 C282 1.514 . S
C283 C284 1.359 . S
C283 C288 1.348 . S
C284 C283 1.359 . S
C284 C285 1.380 . S
C284 H312 0.929 . S
C285 C284 1.380 . S
C285 C286 1.347 . S
C285 H313 0.931 . S
C286 C285 1.347 . S
C286 C287 1.369 . S
C287 C286 1.369 . S
C287 C288 1.408 . S
C287 H314 0.930 . S
C288 C283 1.348 . S
C288 C287 1.408 . S
C288 H315 0.930 . S
C289 O302 1.281 . S
C289 O303 1.254 . S
C290 O304 1.236 . S
C290 O305 1.266 . S
C291 Tb281 2.809 . S
C291 C292 1.514 . S
C291 O306 1.248 . S
C291 O307 1.266 . S
C292 C291 1.514 . S
C292 C293 1.359 . S
C292 C297 1.348 . S
C293 C292 1.359 . S
C293 C294 1.380 . S
C293 H316 0.929 . S
C294 C293 1.380 . S
C294 C295 1.347 . S
C294 H317 0.931 . S
C295 C294 1.347 . S
C295 C296 1.369 . S
C296 C295 1.369 . S
C296 C297 1.408 . S
C296 H318 0.930 . S
C297 C292 1.348 . S
C297 C296 1.408 . S
C297 H319 0.930 . S
C298 O308 1.281 . S
C298 O309 1.254 . S
C299 O310 1.236 . S
C299 O311 1.266 . S
O300 Tb280 2.484 . S
O300 C282 1.248 . S
O301 Tb280 2.440 . S
O301 C282 1.266 . S
O302 Tb280 2.658 . S
O302 Tb281 2.325 . S
O302 C289 1.281 . S
O303 Tb280 2.409 . S
O303 C289 1.254 . S
O304 Tb280 2.378 . S
O304 C290 1.236 . S
O305 Tb281 2.341 . S
O305 C290 1.266 . S
O306 Tb281 2.484 . S
O306 C291 1.248 . S
O307 Tb281 2.440 . S
O307 C291 1.266 . S
O308 Tb280 2.325 . S
O308 Tb281 2.658 . S
O308 C298 1.281 . S
O309 Tb281 2.409 . S
O309 C298 1.254 . S
O310 Tb281 2.378 . S
O310 C299 1.236 . S
O311 Tb280 2.341 . S
O311 C299 1.266 . S
H312 C284 0.929 . S
H313 C285 0.931 . S
H314 C287 0.930 . S
H315 C288 0.930 . S
H316 C293 0.929 . S
H317 C294 0.931 . S
H318 C296 0.930 . S
H319 C297 0.930 . S
Tb320 C322 2.809 . S
Tb320 O340 2.484 . S
Tb320 O341 2.440 . S
Tb320 O342 2.658 . S
Tb320 O343 2.409 . S
Tb320 O344 2.378 . S
Tb320 O348 2.325 . S
Tb320 O351 2.341 . S
Tb321 C331 2.809 . S
Tb321 O342 2.325 . S
Tb321 O345 2.341 . S
Tb321 O346 2.484 . S
Tb321 O347 2.440 . S
Tb321 O348 2.658 . S
Tb321 O349 2.409 . S
Tb321 O350 2.378 . S
C322 Tb320 2.809 . S
C322 C323 1.514 . S
C322 O340 1.248 . S
C322 O341 1.266 . S
C323 C322 1.514 . S
C323 C324 1.359 . S
C323 C328 1.348 . S
C324 C323 1.359 . S
C324 C325 1.380 . S
C324 H352 0.929 . S
C325 C324 1.380 . S
C325 C326 1.347 . S
C325 H353 0.931 . S
C326 C325 1.347 . S
C326 C327 1.369 . S
C327 C326 1.369 . S
C327 C328 1.408 . S
C327 H354 0.930 . S
C328 C323 1.348 . S
C328 C327 1.408 . S
C328 H355 0.930 . S
C329 O342 1.281 . S
C329 O343 1.254 . S
C330 O344 1.236 . S
C330 O345 1.266 . S
C331 Tb321 2.809 . S
C331 C332 1.514 . S
C331 O346 1.248 . S
C331 O347 1.266 . S
C332 C331 1.514 . S
C332 C333 1.359 . S
C332 C337 1.348 . S
C333 C332 1.359 . S
C333 C334 1.380 . S
C333 H356 0.929 . S
C334 C333 1.380 . S
C334 C335 1.347 . S
C334 H357 0.931 . S
C335 C334 1.347 . S
C335 C336 1.369 . S
C336 C335 1.369 . S
C336 C337 1.408 . S
C336 H358 0.930 . S
C337 C332 1.348 . S
C337 C336 1.408 . S
C337 H359 0.930 . S
C338 O348 1.281 . S
C338 O349 1.254 . S
C339 O350 1.236 . S
C339 O351 1.266 . S
O340 Tb320 2.484 . S
O340 C322 1.248 . S
O341 Tb320 2.440 . S
O341 C322 1.266 . S
O342 Tb320 2.658 . S
O342 Tb321 2.325 . S
O342 C329 1.281 . S
O343 Tb320 2.409 . S
O343 C329 1.254 . S
O344 Tb320 2.378 . S
O344 C330 1.236 . S
O345 Tb321 2.341 . S
O345 C330 1.266 . S
O346 Tb321 2.484 . S
O346 C331 1.248 . S
O347 Tb321 2.440 . S
O347 C331 1.266 . S
O348 Tb320 2.325 . S
O348 Tb321 2.658 . S
O348 C338 1.281 . S
O349 Tb321 2.409 . S
O349 C338 1.254 . S
O350 Tb321 2.378 . S
O350 C339 1.236 . S
O351 Tb320 2.341 . S
O351 C339 1.266 . S
H352 C324 0.929 . S
H353 C325 0.931 . S
H354 C327 0.930 . S
H355 C328 0.930 . S
H356 C333 0.929 . S
H357 C334 0.931 . S
H358 C336 0.930 . S
H359 C337 0.930 . S
Tb360 C362 2.809 . S
Tb360 O380 2.484 . S
Tb360 O381 2.440 . S
Tb360 O382 2.658 . S
Tb360 O383 2.409 . S
Tb360 O384 2.378 . S
Tb360 O388 2.325 . S
Tb360 O391 2.341 . S
Tb361 C371 2.809 1_545 S
Tb361 O382 2.325 . S
Tb361 O385 2.341 . S
Tb361 O386 2.484 1_545 S
Tb361 O387 2.440 1_545 S
Tb361 O388 2.658 . S
Tb361 O389 2.409 1_545 S
Tb361 O390 2.378 1_545 S
C362 Tb360 2.809 . S
C362 C363 1.514 . S
C362 O380 1.248 . S
C362 O381 1.266 . S
C363 C362 1.514 . S
C363 C364 1.359 . S
C363 C368 1.348 . S
C364 C363 1.359 . S
C364 C365 1.380 . S
C364 H392 0.929 . S
C365 C364 1.380 . S
C365 C366 1.347 . S
C365 H393 0.931 . S
C366 C365 1.347 . S
C366 C367 1.369 . S
C367 C366 1.369 . S
C367 C368 1.408 . S
C367 H394 0.930 . S
C368 C363 1.348 . S
C368 C367 1.408 . S
C368 H395 0.930 . S
C369 O382 1.281 . S
C369 O383 1.254 . S
C370 O384 1.236 . S
C370 O385 1.266 . S
C371 Tb361 2.809 1_565 S
C371 C372 1.514 . S
C371 O386 1.248 . S
C371 O387 1.266 . S
C372 C371 1.514 . S
C372 C373 1.359 . S
C372 C377 1.348 . S
C373 C372 1.359 . S
C373 C374 1.380 . S
C373 H396 0.929 . S
C374 C373 1.380 . S
C374 C375 1.347 . S
C374 H397 0.931 . S
C375 C374 1.347 . S
C375 C376 1.369 . S
C376 C375 1.369 . S
C376 C377 1.408 . S
C376 H398 0.930 . S
C377 C372 1.348 . S
C377 C376 1.408 . S
C377 H399 0.930 . S
C378 O388 1.281 1_565 S
C378 O389 1.254 . S
C379 O390 1.236 . S
C379 O391 1.266 1_565 S
O380 Tb360 2.484 . S
O380 C362 1.248 . S
O381 Tb360 2.440 . S
O381 C362 1.266 . S
O382 Tb360 2.658 . S
O382 Tb361 2.325 . S
O382 C369 1.281 . S
O383 Tb360 2.409 . S
O383 C369 1.254 . S
O384 Tb360 2.378 . S
O384 C370 1.236 . S
O385 Tb361 2.341 . S
O385 C370 1.266 . S
O386 Tb361 2.484 1_565 S
O386 C371 1.248 . S
O387 Tb361 2.440 1_565 S
O387 C371 1.266 . S
O388 Tb360 2.325 . S
O388 Tb361 2.658 . S
O388 C378 1.281 1_545 S
O389 Tb361 2.409 1_565 S
O389 C378 1.254 . S
O390 Tb361 2.378 1_565 S
O390 C379 1.236 . S
O391 Tb360 2.341 . S
O391 C379 1.266 1_545 S
H392 C364 0.929 . S
H393 C365 0.931 . S
H394 C367 0.930 . S
H395 C368 0.930 . S
H396 C373 0.929 . S
H397 C374 0.931 . S
H398 C376 0.930 . S
H399 C377 0.930 . S
Tb400 C402 2.809 . S
Tb400 O420 2.484 . S
Tb400 O421 2.440 . S
Tb400 O422 2.658 . S
Tb400 O423 2.409 . S
Tb400 O424 2.378 . S
Tb400 O428 2.325 . S
Tb400 O431 2.341 1_565 S
Tb401 C411 2.809 . S
Tb401 O422 2.325 1_545 S
Tb401 O425 2.341 1_545 S
Tb401 O426 2.484 . S
Tb401 O427 2.440 . S
Tb401 O428 2.658 1_545 S
Tb401 O429 2.409 . S
Tb401 O430 2.378 . S
C402 Tb400 2.809 . S
C402 C403 1.514 . S
C402 O420 1.248 . S
C402 O421 1.266 . S
C403 C402 1.514 . S
C403 C404 1.359 . S
C403 C408 1.348 . S
C404 C403 1.359 . S
C404 C405 1.380 . S
C404 H432 0.929 . S
C405 C404 1.380 . S
C405 C406 1.347 . S
C405 H433 0.931 . S
C406 C405 1.347 . S
C406 C407 1.369 . S
C407 C406 1.369 . S
C407 C408 1.408 . S
C407 H434 0.930 . S
C408 C403 1.348 . S
C408 C407 1.408 . S
C408 H435 0.930 . S
C409 O422 1.281 . S
C409 O423 1.254 . S
C410 O424 1.236 . S
C410 O425 1.266 . S
C411 Tb401 2.809 . S
C411 C412 1.514 . S
C411 O426 1.248 . S
C411 O427 1.266 . S
C412 C411 1.514 . S
C412 C413 1.359 . S
C412 C417 1.348 . S
C413 C412 1.359 . S
C413 C414 1.380 . S
C413 H436 0.929 . S
C414 C413 1.380 . S
C414 C415 1.347 . S
C414 H437 0.931 . S
C415 C414 1.347 . S
C415 C416 1.369 . S
C416 C415 1.369 . S
C416 C417 1.408 . S
C416 H438 0.930 . S
C417 C412 1.348 . S
C417 C416 1.408 . S
C417 H439 0.930 . S
C418 O428 1.281 1_545 S
C418 O429 1.254 . S
C419 O430 1.236 . S
C419 O431 1.266 . S
O420 Tb400 2.484 . S
O420 C402 1.248 . S
O421 Tb400 2.440 . S
O421 C402 1.266 . S
O422 Tb400 2.658 . S
O422 Tb401 2.325 1_565 S
O422 C409 1.281 . S
O423 Tb400 2.409 . S
O423 C409 1.254 . S
O424 Tb400 2.378 . S
O424 C410 1.236 . S
O425 Tb401 2.341 1_565 S
O425 C410 1.266 . S
O426 Tb401 2.484 . S
O426 C411 1.248 . S
O427 Tb401 2.440 . S
O427 C411 1.266 . S
O428 Tb400 2.325 . S
O428 Tb401 2.658 1_565 S
O428 C418 1.281 1_565 S
O429 Tb401 2.409 . S
O429 C418 1.254 . S
O430 Tb401 2.378 . S
O430 C419 1.236 . S
O431 Tb400 2.341 1_545 S
O431 C419 1.266 . S
H432 C404 0.929 . S
H433 C405 0.931 . S
H434 C407 0.930 . S
H435 C408 0.930 . S
H436 C413 0.929 . S
H437 C414 0.931 . S
H438 C416 0.930 . S
H439 C417 0.930 . S
Tb440 C442 2.809 . S
Tb440 O460 2.484 . S
Tb440 O461 2.440 . S
Tb440 O462 2.658 . S
Tb440 O463 2.409 . S
Tb440 O464 2.378 . S
Tb440 O468 2.325 . S
Tb440 O471 2.341 . S
Tb441 C451 2.809 . S
Tb441 O462 2.325 . S
Tb441 O465 2.341 . S
Tb441 O466 2.484 . S
Tb441 O467 2.440 . S
Tb441 O468 2.658 . S
Tb441 O469 2.409 . S
Tb441 O470 2.378 . S
C442 Tb440 2.809 . S
C442 C443 1.514 . S
C442 O460 1.248 . S
C442 O461 1.266 . S
C443 C442 1.514 . S
C443 C444 1.359 . S
C443 C448 1.348 . S
C444 C443 1.359 . S
C444 C445 1.380 . S
C444 H472 0.929 . S
C445 C444 1.380 . S
C445 C446 1.347 . S
C445 H473 0.931 . S
C446 C445 1.347 . S
C446 C447 1.369 . S
C447 C446 1.369 . S
C447 C448 1.408 . S
C447 H474 0.930 . S
C448 C443 1.348 . S
C448 C447 1.408 . S
C448 H475 0.930 . S
C449 O462 1.281 . S
C449 O463 1.254 . S
C450 O464 1.236 . S
C450 O465 1.266 . S
C451 Tb441 2.809 . S
C451 C452 1.514 . S
C451 O466 1.248 . S
C451 O467 1.266 . S
C452 C451 1.514 . S
C452 C453 1.359 . S
C452 C457 1.348 . S
C453 C452 1.359 . S
C453 C454 1.380 . S
C453 H476 0.929 . S
C454 C453 1.380 . S
C454 C455 1.347 . S
C454 H477 0.931 . S
C455 C454 1.347 . S
C455 C456 1.369 . S
C456 C455 1.369 . S
C456 C457 1.408 . S
C456 H478 0.930 . S
C457 C452 1.348 . S
C457 C456 1.408 . S
C457 H479 0.930 . S
C458 O468 1.281 . S
C458 O469 1.254 . S
C459 O470 1.236 . S
C459 O471 1.266 . S
O460 Tb440 2.484 . S
O460 C442 1.248 . S
O461 Tb440 2.440 . S
O461 C442 1.266 . S
O462 Tb440 2.658 . S
O462 Tb441 2.325 . S
O462 C449 1.281 . S
O463 Tb440 2.409 . S
O463 C449 1.254 . S
O464 Tb440 2.378 . S
O464 C450 1.236 . S
O465 Tb441 2.341 . S
O465 C450 1.266 . S
O466 Tb441 2.484 . S
O466 C451 1.248 . S
O467 Tb441 2.440 . S
O467 C451 1.266 . S
O468 Tb440 2.325 . S
O468 Tb441 2.658 . S
O468 C458 1.281 . S
O469 Tb441 2.409 . S
O469 C458 1.254 . S
O470 Tb441 2.378 . S
O470 C459 1.236 . S
O471 Tb440 2.341 . S
O471 C459 1.266 . S
H472 C444 0.929 . S
H473 C445 0.931 . S
H474 C447 0.930 . S
H475 C448 0.930 . S
H476 C453 0.929 . S
H477 C454 0.931 . S
H478 C456 0.930 . S
H479 C457 0.930 . S
C480 C481 1.391 . S
C480 C482 1.394 . S
C480 H496 0.931 . S
C481 C480 1.391 . S
C481 C485 1.376 . S
C482 C480 1.394 . S
C482 C483 1.369 . S
C482 C486 1.531 . S
C483 C482 1.369 . S
C483 C484 1.410 . S
C483 C491 1.503 . S
C484 C483 1.410 . S
C484 C485 1.392 . S
C484 C487 1.511 . S
C485 C481 1.376 . S
C485 C484 1.392 . S
C485 H497 0.929 . S
C486 C482 1.531 . S
C486 H498 0.960 . S
C486 H499 0.962 . S
C486 H500 0.960 . S
C487 C484 1.511 . S
C487 H501 0.961 . S
C487 H502 0.961 . S
C487 H503 0.961 . S
C488 C489 1.370 . S
C488 C490 1.363 . S
C488 H504 0.931 . S
C489 C488 1.370 . S
C489 C493 1.408 . S
C490 C488 1.363 . S
C490 C491 1.370 . S
C490 C494 1.524 . S
C491 C483 1.503 . S
C491 C490 1.370 . S
C491 C492 1.403 . S
C492 C491 1.403 . S
C492 C493 1.404 . S
C492 C495 1.539 . S
C493 C489 1.408 . S
C493 C492 1.404 . S
C493 H505 0.930 . S
C494 C490 1.524 . S
C494 H506 0.956 . S
C494 H507 0.961 . S
C494 H508 0.961 . S
C495 C492 1.539 . S
C495 H509 0.958 . S
C495 H510 0.961 . S
C495 H511 0.960 . S
H496 C480 0.931 . S
H497 C485 0.929 . S
H498 C486 0.960 . S
H499 C486 0.962 . S
H500 C486 0.960 . S
H501 C487 0.961 . S
H502 C487 0.961 . S
H503 C487 0.961 . S
H504 C488 0.931 . S
H505 C493 0.930 . S
H506 C494 0.956 . S
H507 C494 0.961 . S
H508 C494 0.961 . S
H509 C495 0.958 . S
H510 C495 0.961 . S
H511 C495 0.960 . S
C512 C513 1.384 1_545 S
C512 C514 1.389 1_545 S
C512 H528 0.942 . S
C513 C512 1.384 1_565 S
C513 C517 1.376 . S
C514 C512 1.389 1_565 S
C514 C515 1.369 . S
C514 C518 1.531 1_565 S
C515 C514 1.369 . S
C515 C516 1.410 . S
C515 C523 1.503 . S
C516 C515 1.410 . S
C516 C517 1.392 . S
C516 C519 1.511 . S
C517 C513 1.376 . S
C517 C516 1.392 . S
C517 H529 0.929 . S
C518 C514 1.531 1_545 S
C518 H530 0.960 1_545 S
C518 H531 0.962 1_545 S
C518 H532 0.960 . S
C519 C516 1.511 . S
C519 H533 0.961 . S
C519 H534 0.961 . S
C519 H535 0.961 . S
C520 C521 1.370 . S
C520 C522 1.363 . S
C520 H536 0.931 . S
C521 C520 1.370 . S
C521 C525 1.408 . S
C522 C520 1.363 . S
C522 C523 1.370 . S
C522 C526 1.524 . S
C523 C515 1.503 . S
C523 C522 1.370 . S
C523 C524 1.403 . S
C524 C523 1.403 . S
C524 C525 1.404 . S
C524 C527 1.539 . S
C525 C521 1.408 . S
C525 C524 1.404 . S
C525 H537 0.930 . S
C526 C522 1.524 . S
C526 H538 0.956 . S
C526 H539 0.961 . S
C526 H540 0.961 . S
C527 C524 1.539 . S
C527 H541 0.958 . S
C527 H542 0.961 . S
C527 H543 0.960 . S
H528 C512 0.942 . S
H529 C517 0.929 . S
H530 C518 0.960 1_565 S
H531 C518 0.962 1_565 S
H532 C518 0.960 . S
H533 C519 0.961 . S
H534 C519 0.961 . S
H535 C519 0.961 . S
H536 C520 0.931 . S
H537 C525 0.930 . S
H538 C526 0.956 . S
H539 C526 0.961 . S
H540 C526 0.961 . S
H541 C527 0.958 . S
H542 C527 0.961 . S
H543 C527 0.960 . S
C544 C545 1.391 . S
C544 C546 1.394 . S
C544 H560 0.931 1_554 S
C545 C544 1.391 . S
C545 C549 1.376 . S
C546 C544 1.394 . S
C546 C547 1.369 . S
C546 C550 1.531 1_554 S
C547 C546 1.369 . S
C547 C548 1.410 . S
C547 C555 1.503 . S
C548 C547 1.410 . S
C548 C549 1.392 . S
C548 C551 1.511 . S
C549 C545 1.376 . S
C549 C548 1.392 . S
C549 H561 0.929 . S
C550 C546 1.531 1_556 S
C550 H562 0.960 1_556 S
C550 H563 0.962 . S
C550 H564 0.960 . S
C551 C548 1.511 . S
C551 H565 0.961 . S
C551 H566 0.961 . S
C551 H567 0.961 . S
C552 C553 1.370 . S
C552 C554 1.363 . S
C552 H568 0.931 . S
C553 C552 1.370 . S
C553 C557 1.408 . S
C554 C552 1.363 . S
C554 C555 1.370 . S
C554 C558 1.524 . S
C555 C547 1.503 . S
C555 C554 1.370 . S
C555 C556 1.403 . S
C556 C555 1.403 . S
C556 C557 1.404 . S
C556 C559 1.539 . S
C557 C553 1.408 . S
C557 C556 1.404 . S
C557 H569 0.930 . S
C558 C554 1.524 . S
C558 H570 0.956 . S
C558 H571 0.961 . S
C558 H572 0.961 . S
C559 C556 1.539 . S
C559 H573 0.958 . S
C559 H574 0.961 . S
C559 H575 0.960 . S
H560 C544 0.931 1_556 S
H561 C549 0.929 . S
H562 C550 0.960 1_554 S
H563 C550 0.962 . S
H564 C550 0.960 . S
H565 C551 0.961 . S
H566 C551 0.961 . S
H567 C551 0.961 . S
H568 C552 0.931 . S
H569 C557 0.930 . S
H570 C558 0.956 . S
H571 C558 0.961 . S
H572 C558 0.961 . S
H573 C559 0.958 . S
H574 C559 0.961 . S
H575 C559 0.960 . S
C576 C577 1.391 . S
C576 C578 1.394 . S
C576 H592 0.931 . S
C577 C576 1.391 . S
C577 C581 1.376 . S
C578 C576 1.394 . S
C578 C579 1.369 . S
C578 C582 1.531 . S
C579 C578 1.369 . S
C579 C580 1.410 . S
C579 C587 1.503 . S
C580 C579 1.410 . S
C580 C581 1.392 . S
C580 C583 1.511 . S
C581 C577 1.376 . S
C581 C580 1.392 . S
C581 H593 0.929 . S
C582 C578 1.531 . S
C582 H594 0.960 . S
C582 H595 0.962 . S
C582 H596 0.960 . S
C583 C580 1.511 . S
C583 H597 0.961 . S
C583 H598 0.961 . S
C583 H599 0.961 . S
C584 C585 1.370 . S
C584 C586 1.363 . S
C584 H600 0.931 . S
C585 C584 1.370 . S
C585 C589 1.408 . S
C586 C584 1.363 . S
C586 C587 1.370 . S
C586 C590 1.524 . S
C587 C579 1.503 . S
C587 C586 1.370 . S
C587 C588 1.403 . S
C588 C587 1.403 . S
C588 C589 1.404 . S
C588 C591 1.539 . S
C589 C585 1.408 . S
C589 C588 1.404 . S
C589 H601 0.930 . S
C590 C586 1.524 . S
C590 H602 0.956 . S
C590 H603 0.961 . S
C590 H604 0.961 . S
C591 C588 1.539 . S
C591 H605 0.958 . S
C591 H606 0.961 . S
C591 H607 0.960 . S
H592 C576 0.931 . S
H593 C581 0.929 . S
H594 C582 0.960 . S
H595 C582 0.962 . S
H596 C582 0.960 . S
H597 C583 0.961 . S
H598 C583 0.961 . S
H599 C583 0.961 . S
H600 C584 0.931 . S
H601 C589 0.930 . S
H602 C590 0.956 . S
H603 C590 0.961 . S
H604 C590 0.961 . S
H605 C591 0.958 . S
H606 C591 0.961 . S
H607 C591 0.960 . S
C608 C609 1.391 . S
C608 C610 1.394 . S
C608 H624 0.931 . S
C609 C608 1.391 . S
C609 C613 1.376 . S
C610 C608 1.394 . S
C610 C611 1.369 . S
C610 C614 1.531 . S
C611 C610 1.369 . S
C611 C612 1.410 . S
C611 C619 1.503 . S
C612 C611 1.410 . S
C612 C613 1.392 . S
C612 C615 1.511 . S
C613 C609 1.376 . S
C613 C612 1.392 . S
C613 H625 0.929 . S
C614 C610 1.531 . S
C614 H626 0.960 . S
C614 H627 0.962 . S
C614 H628 0.960 . S
C615 C612 1.511 . S
C615 H629 0.961 . S
C615 H630 0.961 . S
C615 H631 0.961 . S
C616 C617 1.370 . S
C616 C618 1.363 . S
C616 H632 0.931 . S
C617 C616 1.370 . S
C617 C621 1.408 . S
C618 C616 1.363 . S
C618 C619 1.370 . S
C618 C622 1.524 . S
C619 C611 1.503 . S
C619 C618 1.370 . S
C619 C620 1.403 . S
C620 C619 1.403 . S
C620 C621 1.404 . S
C620 C623 1.539 . S
C621 C617 1.408 . S
C621 C620 1.404 . S
C621 H633 0.930 . S
C622 C618 1.524 . S
C622 H634 0.956 . S
C622 H635 0.961 . S
C622 H636 0.961 . S
C623 C620 1.539 . S
C623 H637 0.958 . S
C623 H638 0.961 . S
C623 H639 0.960 . S
H624 C608 0.931 . S
H625 C613 0.929 . S
H626 C614 0.960 . S
H627 C614 0.962 . S
H628 C614 0.960 . S
H629 C615 0.961 . S
H630 C615 0.961 . S
H631 C615 0.961 . S
H632 C616 0.931 . S
H633 C621 0.930 . S
H634 C622 0.956 . S
H635 C622 0.961 . S
H636 C622 0.961 . S
H637 C623 0.958 . S
H638 C623 0.961 . S
H639 C623 0.960 . S
C640 C641 1.391 . S
C640 C642 1.394 . S
C640 H656 0.931 . S
C641 C640 1.391 . S
C641 C645 1.376 . S
C642 C640 1.394 . S
C642 C643 1.369 . S
C642 C646 1.531 . S
C643 C642 1.369 . S
C643 C644 1.410 . S
C643 C651 1.503 . S
C644 C643 1.410 . S
C644 C645 1.392 . S
C644 C647 1.511 . S
C645 C641 1.376 . S
C645 C644 1.392 . S
C645 H657 0.929 . S
C646 C642 1.531 . S
C646 H658 0.960 . S
C646 H659 0.962 . S
C646 H660 0.960 . S
C647 C644 1.511 . S
C647 H661 0.961 . S
C647 H662 0.961 . S
C647 H663 0.961 . S
C648 C649 1.370 . S
C648 C650 1.363 . S
C648 H664 0.931 . S
C649 C648 1.370 . S
C649 C653 1.408 . S
C650 C648 1.363 . S
C650 C651 1.370 . S
C650 C654 1.524 . S
C651 C643 1.503 . S
C651 C650 1.370 . S
C651 C652 1.403 . S
C652 C651 1.403 . S
C652 C653 1.404 . S
C652 C655 1.539 . S
C653 C649 1.408 . S
C653 C652 1.404 . S
C653 H665 0.930 . S
C654 C650 1.524 . S
C654 H666 0.956 . S
C654 H667 0.961 . S
C654 H668 0.961 . S
C655 C652 1.539 . S
C655 H669 0.958 . S
C655 H670 0.961 . S
C655 H671 0.960 . S
H656 C640 0.931 . S
H657 C645 0.929 . S
H658 C646 0.960 . S
H659 C646 0.962 . S
H660 C646 0.960 . S
H661 C647 0.961 . S
H662 C647 0.961 . S
H663 C647 0.961 . S
H664 C648 0.931 . S
H665 C653 0.930 . S
H666 C654 0.956 . S
H667 C654 0.961 . S
H668 C654 0.961 . S
H669 C655 0.958 . S
H670 C655 0.961 . S
H671 C655 0.960 . S
C672 C673 1.391 . S
C672 C674 1.394 . S
C672 H688 0.931 . S
C673 C672 1.391 . S
C673 C677 1.376 . S
C674 C672 1.394 . S
C674 C675 1.369 . S
C674 C678 1.531 . S
C675 C674 1.369 . S
C675 C676 1.410 . S
C675 C683 1.503 . S
C676 C675 1.410 . S
C676 C677 1.392 . S
C676 C679 1.511 1_556 S
C677 C673 1.376 . S
C677 C676 1.392 . S
C677 H689 0.929 . S
C678 C674 1.531 . S
C678 H690 0.960 . S
C678 H691 0.962 . S
C678 H692 0.960 . S
C679 C676 1.511 1_554 S
C679 H693 0.961 . S
C679 H694 0.961 . S
C679 H695 0.961 . S
C680 C681 1.370 . S
C680 C682 1.363 . S
C680 H696 0.931 . S
C681 C680 1.370 . S
C681 C685 1.408 . S
C682 C680 1.363 . S
C682 C683 1.370 . S
C682 C686 1.524 . S
C683 C675 1.503 . S
C683 C682 1.370 . S
C683 C684 1.403 . S
C684 C683 1.403 . S
C684 C685 1.404 . S
C684 C687 1.539 1_556 S
C685 C681 1.408 . S
C685 C684 1.404 . S
C685 H697 0.930 1_556 S
C686 C682 1.524 . S
C686 H698 0.956 . S
C686 H699 0.961 . S
C686 H700 0.961 . S
C687 C684 1.539 1_554 S
C687 H701 0.958 1_554 S
C687 H702 0.961 . S
C687 H703 0.960 . S
H688 C672 0.931 . S
H689 C677 0.929 . S
H690 C678 0.960 . S
H691 C678 0.962 . S
H692 C678 0.960 . S
H693 C679 0.961 . S
H694 C679 0.961 . S
H695 C679 0.961 . S
H696 C680 0.931 . S
H697 C685 0.930 1_554 S
H698 C686 0.956 . S
H699 C686 0.961 . S
H700 C686 0.961 . S
H701 C687 0.958 1_556 S
H702 C687 0.961 . S
H703 C687 0.960 . S
C704 C705 1.391 . S
C704 C706 1.394 . S
C704 H720 0.931 . S
C705 C704 1.391 . S
C705 C709 1.376 . S
C706 C704 1.394 . S
C706 C707 1.369 . S
C706 C710 1.531 . S
C707 C706 1.369 . S
C707 C708 1.410 . S
C707 C715 1.503 . S
C708 C707 1.410 . S
C708 C709 1.392 . S
C708 C711 1.511 . S
C709 C705 1.376 . S
C709 C708 1.392 . S
C709 H721 0.929 . S
C710 C706 1.531 . S
C710 H722 0.960 . S
C710 H723 0.962 . S
C710 H724 0.960 . S
C711 C708 1.511 . S
C711 H725 0.961 . S
C711 H726 0.961 . S
C711 H727 0.961 . S
C712 C713 1.370 . S
C712 C714 1.363 . S
C712 H728 0.931 . S
C713 C712 1.370 . S
C713 C717 1.408 . S
C714 C712 1.363 . S
C714 C715 1.370 . S
C714 C718 1.524 . S
C715 C707 1.503 . S
C715 C714 1.370 . S
C715 C716 1.403 . S
C716 C715 1.403 . S
C716 C717 1.404 . S
C716 C719 1.539 . S
C717 C713 1.408 . S
C717 C716 1.404 . S
C717 H729 0.930 . S
C718 C714 1.524 . S
C718 H730 0.956 . S
C718 H731 0.961 . S
C718 H732 0.961 . S
C719 C716 1.539 . S
C719 H733 0.958 . S
C719 H734 0.961 . S
C719 H735 0.960 . S
H720 C704 0.931 . S
H721 C709 0.929 . S
H722 C710 0.960 . S
H723 C710 0.962 . S
H724 C710 0.960 . S
H725 C711 0.961 . S
H726 C711 0.961 . S
H727 C711 0.961 . S
H728 C712 0.931 . S
H729 C717 0.930 . S
H730 C718 0.956 . S
H731 C718 0.961 . S
H732 C718 0.961 . S
H733 C719 0.958 . S
H734 C719 0.961 . S
H735 C719 0.960 . S
C736 C737 1.391 . S
C736 C738 1.394 . S
C736 H752 0.931 . S
C737 C736 1.391 . S
C737 C741 1.376 . S
C738 C736 1.394 . S
C738 C739 1.369 . S
C738 C742 1.531 . S
C739 C738 1.369 . S
C739 C740 1.410 . S
C739 C747 1.503 . S
C740 C739 1.410 . S
C740 C741 1.392 . S
C740 C743 1.511 . S
C741 C737 1.376 . S
C741 C740 1.392 . S
C741 H753 0.929 . S
C742 C738 1.531 . S
C742 H754 0.960 . S
C742 H755 0.962 . S
C742 H756 0.960 . S
C743 C740 1.511 . S
C743 H757 0.961 . S
C743 H758 0.961 . S
C743 H759 0.961 . S
C744 C745 1.370 . S
C744 C746 1.363 . S
C744 H760 0.931 . S
C745 C744 1.370 . S
C745 C749 1.408 . S
C746 C744 1.363 . S
C746 C747 1.370 . S
C746 C750 1.524 . S
C747 C739 1.503 . S
C747 C746 1.370 . S
C747 C748 1.403 . S
C748 C747 1.403 . S
C748 C749 1.404 . S
C748 C751 1.539 . S
C749 C745 1.408 . S
C749 C748 1.404 . S
C749 H761 0.930 . S
C750 C746 1.524 . S
C750 H762 0.956 . S
C750 H763 0.961 . S
C750 H764 0.961 . S
C751 C748 1.539 . S
C751 H765 0.958 . S
C751 H766 0.961 . S
C751 H767 0.960 . S
H752 C736 0.931 . S
H753 C741 0.929 . S
H754 C742 0.960 . S
H755 C742 0.962 . S
H756 C742 0.960 . S
H757 C743 0.961 . S
H758 C743 0.961 . S
H759 C743 0.961 . S
H760 C744 0.931 . S
H761 C749 0.930 . S
H762 C750 0.956 . S
H763 C750 0.961 . S
H764 C750 0.961 . S
H765 C751 0.958 . S
H766 C751 0.961 . S
H767 C751 0.960 . S
C768 C769 1.391 . S
C768 C770 1.394 . S
C768 H784 0.931 . S
C769 C768 1.391 . S
C769 C773 1.376 . S
C770 C768 1.394 . S
C770 C771 1.369 . S
C770 C774 1.531 . S
C771 C770 1.369 . S
C771 C772 1.410 . S
C771 C779 1.503 . S
C772 C771 1.410 . S
C772 C773 1.392 . S
C772 C775 1.504 1_455 S
C773 C769 1.376 . S
C773 C772 1.392 . S
C773 H785 0.929 . S
C774 C770 1.531 . S
C774 H786 0.960 . S
C774 H787 0.962 . S
C774 H788 0.960 . S
C775 C772 1.504 1_655 S
C775 H789 0.964 . S
C775 H790 0.961 . S
C775 H791 0.964 . S
C776 C777 1.370 . S
C776 C778 1.363 . S
C776 H792 0.931 . S
C777 C776 1.370 . S
C777 C781 1.408 . S
C778 C776 1.363 . S
C778 C779 1.370 . S
C778 C782 1.524 . S
C779 C771 1.503 . S
C779 C778 1.370 . S
C779 C780 1.403 . S
C780 C779 1.403 . S
C780 C781 1.404 . S
C780 C783 1.539 . S
C781 C777 1.408 . S
C781 C780 1.404 . S
C781 H793 0.930 . S
C782 C778 1.524 . S
C782 H794 0.956 . S
C782 H795 0.961 . S
C782 H796 0.961 . S
C783 C780 1.539 . S
C783 H797 0.958 . S
C783 H798 0.961 . S
C783 H799 0.960 . S
H784 C768 0.931 . S
H785 C773 0.929 . S
H786 C774 0.960 . S
H787 C774 0.962 . S
H788 C774 0.960 . S
H789 C775 0.964 . S
H790 C775 0.961 . S
H791 C775 0.964 . S
H792 C776 0.931 . S
H793 C781 0.930 . S
H794 C782 0.956 . S
H795 C782 0.961 . S
H796 C782 0.961 . S
H797 C783 0.958 . S
H798 C783 0.961 . S
H799 C783 0.960 . S
C800 C801 1.391 . S
C800 C802 1.394 . S
C800 H816 0.931 . S
C801 C800 1.391 . S
C801 C805 1.376 . S
C802 C800 1.394 . S
C802 C803 1.369 . S
C802 C806 1.531 . S
C803 C802 1.369 . S
C803 C804 1.410 . S
C803 C811 1.503 . S
C804 C803 1.410 . S
C804 C805 1.392 . S
C804 C807 1.511 . S
C805 C801 1.376 . S
C805 C804 1.392 . S
C805 H817 0.929 . S
C806 C802 1.531 . S
C806 H818 0.960 . S
C806 H819 0.962 . S
C806 H820 0.960 . S
C807 C804 1.511 . S
C807 H821 0.961 . S
C807 H822 0.961 . S
C807 H823 0.961 . S
C808 C809 1.370 . S
C808 C810 1.363 . S
C808 H824 0.931 . S
C809 C808 1.370 . S
C809 C813 1.408 . S
C810 C808 1.363 . S
C810 C811 1.370 . S
C810 C814 1.524 . S
C811 C803 1.503 . S
C811 C810 1.370 . S
C811 C812 1.403 . S
C812 C811 1.403 . S
C812 C813 1.404 . S
C812 C815 1.539 1_655 S
C813 C809 1.408 . S
C813 C812 1.404 . S
C813 H825 0.930 . S
C814 C810 1.524 . S
C814 H826 0.956 . S
C814 H827 0.961 . S
C814 H828 0.961 . S
C815 C812 1.539 1_455 S
C815 H829 0.958 . S
C815 H830 0.961 . S
C815 H831 0.960 . S
H816 C800 0.931 . S
H817 C805 0.929 . S
H818 C806 0.960 . S
H819 C806 0.962 . S
H820 C806 0.960 . S
H821 C807 0.961 . S
H822 C807 0.961 . S
H823 C807 0.961 . S
H824 C808 0.931 . S
H825 C813 0.930 . S
H826 C814 0.956 . S
H827 C814 0.961 . S
H828 C814 0.961 . S
H829 C815 0.958 . S
H830 C815 0.961 . S
H831 C815 0.960 . S
C832 C833 1.391 . S
C832 C834 1.394 . S
C832 H848 0.931 . S
C833 C832 1.391 . S
C833 C837 1.376 . S
C834 C832 1.394 . S
C834 C835 1.369 . S
C834 C838 1.531 . S
C835 C834 1.369 . S
C835 C836 1.410 . S
C835 C843 1.503 . S
C836 C835 1.410 . S
C836 C837 1.392 . S
C836 C839 1.511 . S
C837 C833 1.376 . S
C837 C836 1.392 . S
C837 H849 0.929 . S
C838 C834 1.531 . S
C838 H850 0.960 . S
C838 H851 0.962 . S
C838 H852 0.960 . S
C839 C836 1.511 . S
C839 H853 0.961 . S
C839 H854 0.961 . S
C839 H855 0.961 . S
C840 C841 1.370 . S
C840 C842 1.363 . S
C840 H856 0.931 . S
C841 C840 1.370 . S
C841 C845 1.408 . S
C842 C840 1.363 . S
C842 C843 1.370 . S
C842 C846 1.524 . S
C843 C835 1.503 . S
C843 C842 1.370 . S
C843 C844 1.403 . S
C844 C843 1.403 . S
C844 C845 1.404 . S
C844 C847 1.539 . S
C845 C841 1.408 . S
C845 C844 1.404 . S
C845 H857 0.930 . S
C846 C842 1.524 . S
C846 H858 0.956 . S
C846 H859 0.961 . S
C846 H860 0.961 . S
C847 C844 1.539 . S
C847 H861 0.958 . S
C847 H862 0.961 . S
C847 H863 0.960 . S
H848 C832 0.931 . S
H849 C837 0.929 . S
H850 C838 0.960 . S
H851 C838 0.962 . S
H852 C838 0.960 . S
H853 C839 0.961 . S
H854 C839 0.961 . S
H855 C839 0.961 . S
H856 C840 0.931 . S
H857 C845 0.930 . S
H858 C846 0.956 . S
H859 C846 0.961 . S
H860 C846 0.961 . S
H861 C847 0.958 . S
H862 C847 0.961 . S
H863 C847 0.960 . S
C864 C865 1.391 . S
C864 C866 1.394 . S
C864 H880 0.931 . S
C865 C864 1.391 . S
C865 C869 1.376 . S
C866 C864 1.394 . S
C866 C867 1.369 . S
C866 C870 1.531 . S
C867 C866 1.369 . S
C867 C868 1.410 . S
C867 C875 1.503 . S
C868 C867 1.410 . S
C868 C869 1.392 . S
C868 C871 1.511 . S
C869 C865 1.376 . S
C869 C868 1.392 . S
C869 H881 0.929 . S
C870 C866 1.531 . S
C870 H882 0.960 . S
C870 H883 0.962 . S
C870 H884 0.960 . S
C871 C868 1.511 . S
C871 H885 0.961 . S
C871 H886 0.961 . S
C871 H887 0.961 . S
C872 C873 1.370 . S
C872 C874 1.363 . S
C872 H888 0.931 . S
C873 C872 1.370 . S
C873 C877 1.408 . S
C874 C872 1.363 . S
C874 C875 1.370 . S
C874 C878 1.524 . S
C875 C867 1.503 . S
C875 C874 1.370 . S
C875 C876 1.403 . S
C876 C875 1.403 . S
C876 C877 1.404 . S
C876 C879 1.539 . S
C877 C873 1.408 . S
C877 C876 1.404 . S
C877 H889 0.930 . S
C878 C874 1.524 . S
C878 H890 0.956 . S
C878 H891 0.961 . S
C878 H892 0.961 . S
C879 C876 1.539 . S
C879 H893 0.958 . S
C879 H894 0.961 . S
C879 H895 0.960 . S
H880 C864 0.931 . S
H881 C869 0.929 . S
H882 C870 0.960 . S
H883 C870 0.962 . S
H884 C870 0.960 . S
H885 C871 0.961 . S
H886 C871 0.961 . S
H887 C871 0.961 . S
H888 C872 0.931 . S
H889 C877 0.930 . S
H890 C878 0.956 . S
H891 C878 0.961 . S
H892 C878 0.961 . S
H893 C879 0.958 . S
H894 C879 0.961 . S
H895 C879 0.960 . S
C896 C897 1.391 . S
C896 C898 1.394 . S
C896 H912 0.931 . S
C897 C896 1.391 . S
C897 C901 1.376 . S
C898 C896 1.394 . S
C898 C899 1.369 . S
C898 C902 1.531 . S
C899 C898 1.369 . S
C899 C900 1.410 . S
C899 C907 1.503 . S
C900 C899 1.410 . S
C900 C901 1.392 . S
C900 C903 1.511 . S
C901 C897 1.376 . S
C901 C900 1.392 . S
C901 H913 0.929 . S
C902 C898 1.531 . S
C902 H914 0.960 . S
C902 H915 0.962 . S
C902 H916 0.960 . S
C903 C900 1.511 . S
C903 H917 0.961 . S
C903 H918 0.961 . S
C903 H919 0.961 . S
C904 C905 1.370 . S
C904 C906 1.363 . S
C904 H920 0.931 . S
C905 C904 1.370 . S
C905 C909 1.408 . S
C906 C904 1.363 . S
C906 C907 1.370 . S
C906 C910 1.524 . S
C907 C899 1.503 . S
C907 C906 1.370 . S
C907 C908 1.403 . S
C908 C907 1.403 . S
C908 C909 1.404 . S
C908 C911 1.539 . S
C909 C905 1.408 . S
C909 C908 1.404 . S
C909 H921 0.936 . S
C910 C906 1.524 . S
C910 H922 0.956 . S
C910 H923 0.961 . S
C910 H924 0.961 . S
C911 C908 1.539 . S
C911 H925 0.958 1_565 S
C911 H926 0.961 1_565 S
C911 H927 0.960 . S
H912 C896 0.931 . S
H913 C901 0.929 . S
H914 C902 0.960 . S
H915 C902 0.962 . S
H916 C902 0.960 . S
H917 C903 0.961 . S
H918 C903 0.961 . S
H919 C903 0.961 . S
H920 C904 0.931 . S
H921 C909 0.936 . S
H922 C910 0.956 . S
H923 C910 0.961 . S
H924 C910 0.961 . S
H925 C911 0.958 1_545 S
H926 C911 0.961 1_545 S
H927 C911 0.960 . S
C928 C929 1.391 . S
C928 C930 1.394 . S
C928 H944 0.931 . S
C929 C928 1.391 . S
C929 C933 1.376 . S
C930 C928 1.394 . S
C930 C931 1.369 . S
C930 C934 1.531 . S
C931 C930 1.369 . S
C931 C932 1.410 . S
C931 C939 1.503 . S
C932 C931 1.410 . S
C932 C933 1.392 . S
C932 C935 1.511 . S
C933 C929 1.376 . S
C933 C932 1.392 . S
C933 H945 0.929 . S
C934 C930 1.531 . S
C934 H946 0.960 . S
C934 H947 0.962 . S
C934 H948 0.960 . S
C935 C932 1.511 . S
C935 H949 0.961 . S
C935 H950 0.961 . S
C935 H951 0.961 . S
C936 C937 1.370 . S
C936 C938 1.363 . S
C936 H952 0.931 . S
C937 C936 1.370 . S
C937 C941 1.408 . S
C938 C936 1.363 . S
C938 C939 1.370 . S
C938 C942 1.524 . S
C939 C931 1.503 . S
C939 C938 1.370 . S
C939 C940 1.403 . S
C940 C939 1.403 . S
C940 C941 1.404 . S
C940 C943 1.539 . S
C941 C937 1.408 . S
C941 C940 1.404 . S
C941 H953 0.930 . S
C942 C938 1.524 . S
C942 H954 0.956 . S
C942 H955 0.961 . S
C942 H956 0.961 . S
C943 C940 1.539 . S
C943 H957 0.958 . S
C943 H958 0.961 . S
C943 H959 0.960 . S
H944 C928 0.931 . S
H945 C933 0.929 . S
H946 C934 0.960 . S
H947 C934 0.962 . S
H948 C934 0.960 . S
H949 C935 0.961 . S
H950 C935 0.961 . S
H951 C935 0.961 . S
H952 C936 0.931 . S
H953 C941 0.930 . S
H954 C942 0.956 . S
H955 C942 0.961 . S
H956 C942 0.961 . S
H957 C943 0.958 . S
H958 C943 0.961 . S
H959 C943 0.960 . S
C960 C961 1.391 . S
C960 C962 1.394 . S
C960 H976 0.931 . S
C961 C960 1.391 . S
C961 C965 1.376 . S
C962 C960 1.394 . S
C962 C963 1.369 . S
C962 C966 1.531 . S
C963 C962 1.369 . S
C963 C964 1.410 . S
C963 C971 1.503 . S
C964 C963 1.410 . S
C964 C965 1.392 . S
C964 C967 1.511 . S
C965 C961 1.376 . S
C965 C964 1.392 . S
C965 H977 0.929 . S
C966 C962 1.531 . S
C966 H978 0.960 . S
C966 H979 0.962 . S
C966 H980 0.960 . S
C967 C964 1.511 . S
C967 H981 0.961 . S
C967 H982 0.961 1_554 S
C967 H983 0.961 . S
C968 C969 1.370 . S
C968 C970 1.363 . S
C968 H984 0.931 . S
C969 C968 1.370 . S
C969 C973 1.408 . S
C970 C968 1.363 . S
C970 C971 1.370 1_556 S
C970 C974 1.524 . S
C971 C963 1.503 . S
C971 C970 1.370 1_554 S
C971 C972 1.403 . S
C972 C971 1.403 . S
C972 C973 1.404 1_554 S
C972 C975 1.539 . S
C973 C969 1.408 . S
C973 C972 1.404 1_556 S
C973 H985 0.930 . S
C974 C970 1.524 . S
C974 H986 0.956 1_556 S
C974 H987 0.961 1_556 S
C974 H988 0.961 . S
C975 C972 1.539 . S
C975 H989 0.958 . S
C975 H990 0.961 1_545 S
C975 H991 0.960 . S
H976 C960 0.931 . S
H977 C965 0.929 . S
H978 C966 0.960 . S
H979 C966 0.962 . S
H980 C966 0.960 . S
H981 C967 0.961 . S
H982 C967 0.961 1_556 S
H983 C967 0.961 . S
H984 C968 0.931 . S
H985 C973 0.930 . S
H986 C974 0.956 1_554 S
H987 C974 0.961 1_554 S
H988 C974 0.961 . S
H989 C975 0.958 . S
H990 C975 0.961 1_565 S
H991 C975 0.960 . S
C992 C993 1.391 . S
C992 C994 1.394 . S
C992 H1008 0.931 . S
C993 C992 1.391 . S
C993 C997 1.376 . S
C994 C992 1.394 . S
C994 C995 1.369 . S
C994 C998 1.531 . S
C995 C994 1.369 . S
C995 C996 1.410 . S
C995 C1003 1.503 . S
C996 C995 1.410 . S
C996 C997 1.392 . S
C996 C999 1.511 . S
C997 C993 1.376 . S
C997 C996 1.392 . S
C997 H1009 0.929 . S
C998 C994 1.531 . S
C998 H1010 0.960 . S
C998 H1011 0.962 . S
C998 H1012 0.960 . S
C999 C996 1.511 . S
C999 H1013 0.961 . S
C999 H1014 0.961 . S
C999 H1015 0.961 . S
C1000 C1001 1.370 . S
C1000 C1002 1.363 . S
C1000 H1016 0.931 . S
C1001 C1000 1.370 . S
C1001 C1005 1.408 . S
C1002 C1000 1.363 . S
C1002 C1003 1.370 . S
C1002 C1006 1.524 . S
C1003 C995 1.503 . S
C1003 C1002 1.370 . S
C1003 C1004 1.403 . S
C1004 C1003 1.403 . S
C1004 C1005 1.404 . S
C1004 C1007 1.539 . S
C1005 C1001 1.408 . S
C1005 C1004 1.404 . S
C1005 H1017 0.930 . S
C1006 C1002 1.524 . S
C1006 H1018 0.956 . S
C1006 H1019 0.961 . S
C1006 H1020 0.961 . S
C1007 C1004 1.539 . S
C1007 H1021 0.958 . S
C1007 H1022 0.961 . S
C1007 H1023 0.960 . S
H1008 C992 0.931 . S
H1009 C997 0.929 . S
H1010 C998 0.960 . S
H1011 C998 0.962 . S
H1012 C998 0.960 . S
H1013 C999 0.961 . S
H1014 C999 0.961 . S
H1015 C999 0.961 . S
H1016 C1000 0.931 . S
H1017 C1005 0.930 . S
H1018 C1006 0.956 . S
H1019 C1006 0.961 . S
H1020 C1006 0.961 . S
H1021 C1007 0.958 . S
H1022 C1007 0.961 . S
H1023 C1007 0.960 . S
C1024 C1025 1.391 . S
C1024 C1026 1.394 . S
C1024 H1040 0.931 . S
C1025 C1024 1.391 . S
C1025 C1029 1.376 . S
C1026 C1024 1.394 . S
C1026 C1027 1.369 . S
C1026 C1030 1.531 . S
C1027 C1026 1.369 . S
C1027 C1028 1.410 . S
C1027 C1035 1.503 1_554 S
C1028 C1027 1.410 . S
C1028 C1029 1.392 . S
C1028 C1031 1.511 . S
C1029 C1025 1.376 . S
C1029 C1028 1.392 . S
C1029 H1041 0.929 . S
C1030 C1026 1.531 . S
C1030 H1042 0.960 1_554 S
C1030 H1043 0.981 . S
C1030 H1044 0.960 . S
C1031 C1028 1.511 . S
C1031 H1045 0.961 . S
C1031 H1046 0.961 1_554 S
C1031 H1047 0.961 . S
C1032 C1033 1.370 . S
C1032 C1034 1.363 . S
C1032 H1048 0.931 . S
C1033 C1032 1.370 . S
C1033 C1037 1.408 . S
C1034 C1032 1.363 . S
C1034 C1035 1.370 . S
C1034 C1038 1.524 . S
C1035 C1027 1.503 1_556 S
C1035 C1034 1.370 . S
C1035 C1036 1.403 . S
C1036 C1035 1.403 . S
C1036 C1037 1.404 . S
C1036 C1039 1.539 . S
C1037 C1033 1.408 . S
C1037 C1036 1.404 . S
C1037 H1049 0.930 . S
C1038 C1034 1.524 . S
C1038 H1050 0.956 . S
C1038 H1051 0.961 . S
C1038 H1052 0.961 . S
C1039 C1036 1.539 . S
C1039 H1053 0.958 . S
C1039 H1054 0.961 . S
C1039 H1055 0.960 1_556 S
H1040 C1024 0.931 . S
H1041 C1029 0.929 . S
H1042 C1030 0.960 1_556 S
H1043 C1030 0.981 . S
H1044 C1030 0.960 . S
H1045 C1031 0.961 . S
H1046 C1031 0.961 1_556 S
H1047 C1031 0.961 . S
H1048 C1032 0.931 . S
H1049 C1037 0.930 . S
H1050 C1038 0.956 . S
H1051 C1038 0.961 . S
H1052 C1038 0.961 . S
H1053 C1039 0.958 . S
H1054 C1039 0.961 . S
H1055 C1039 0.960 1_554 S
C1056 C1057 1.391 . S
C1056 C1058 1.394 . S
C1056 H1072 0.931 . S
C1057 C1056 1.391 . S
C1057 C1061 1.376 . S
C1058 C1056 1.394 . S
C1058 C1059 1.369 . S
C1058 C1062 1.531 . S
C1059 C1058 1.369 . S
C1059 C1060 1.410 . S
C1059 C1067 1.503 . S
C1060 C1059 1.410 . S
C1060 C1061 1.392 . S
C1060 C1063 1.511 . S
C1061 C1057 1.376 . S
C1061 C1060 1.392 . S
C1061 H1073 0.929 . S
C1062 C1058 1.531 . S
C1062 H1074 0.960 . S
C1062 H1075 0.962 . S
C1062 H1076 0.960 . S
C1063 C1060 1.511 . S
C1063 H1077 0.961 . S
C1063 H1078 0.961 . S
C1063 H1079 0.961 . S
C1064 C1065 1.370 . S
C1064 C1066 1.363 . S
C1064 H1080 0.931 . S
C1065 C1064 1.370 . S
C1065 C1069 1.408 . S
C1066 C1064 1.363 . S
C1066 C1067 1.370 . S
C1066 C1070 1.524 . S
C1067 C1059 1.503 . S
C1067 C1066 1.370 . S
C1067 C1068 1.403 . S
C1068 C1067 1.403 . S
C1068 C1069 1.404 . S
C1068 C1071 1.539 . S
C1069 C1065 1.408 . S
C1069 C1068 1.404 . S
C1069 H1081 0.930 . S
C1070 C1066 1.524 . S
C1070 H1082 0.956 . S
C1070 H1083 0.961 . S
C1070 H1084 0.961 . S
C1071 C1068 1.539 . S
C1071 H1085 0.958 . S
C1071 H1086 0.961 . S
C1071 H1087 0.960 . S
H1072 C1056 0.931 . S
H1073 C1061 0.929 . S
H1074 C1062 0.960 . S
H1075 C1062 0.962 . S
H1076 C1062 0.960 . S
H1077 C1063 0.961 . S
H1078 C1063 0.961 . S
H1079 C1063 0.961 . S
H1080 C1064 0.931 . S
H1081 C1069 0.930 . S
H1082 C1070 0.956 . S
H1083 C1070 0.961 . S
H1084 C1070 0.961 . S
H1085 C1071 0.958 . S
H1086 C1071 0.961 . S
H1087 C1071 0.960 . S
C1088 C1089 1.391 . S
C1088 C1090 1.394 . S
C1088 H1104 0.931 . S
C1089 C1088 1.391 . S
C1089 C1093 1.376 . S
C1090 C1088 1.394 . S
C1090 C1091 1.369 . S
C1090 C1094 1.531 . S
C1091 C1090 1.369 . S
C1091 C1092 1.410 . S
C1091 C1099 1.503 . S
C1092 C1091 1.410 . S
C1092 C1093 1.392 . S
C1092 C1095 1.511 . S
C1093 C1089 1.376 . S
C1093 C1092 1.392 . S
C1093 H1105 0.929 . S
C1094 C1090 1.531 . S
C1094 H1106 0.960 . S
C1094 H1107 0.962 . S
C1094 H1108 0.960 . S
C1095 C1092 1.511 . S
C1095 H1109 0.961 . S
C1095 H1110 0.961 . S
C1095 H1111 0.961 . S
C1096 C1097 1.370 . S
C1096 C1098 1.363 . S
C1096 H1112 0.931 . S
C1097 C1096 1.370 . S
C1097 C1101 1.408 . S
C1098 C1096 1.363 . S
C1098 C1099 1.370 . S
C1098 C1102 1.524 . S
C1099 C1091 1.503 . S
C1099 C1098 1.370 . S
C1099 C1100 1.403 . S
C1100 C1099 1.403 . S
C1100 C1101 1.404 . S
C1100 C1103 1.539 . S
C1101 C1097 1.408 . S
C1101 C1100 1.404 . S
C1101 H1113 0.930 . S
C1102 C1098 1.524 . S
C1102 H1114 0.956 . S
C1102 H1115 0.961 . S
C1102 H1116 0.961 . S
C1103 C1100 1.539 . S
C1103 H1117 0.958 . S
C1103 H1118 0.961 . S
C1103 H1119 0.960 . S
H1104 C1088 0.931 . S
H1105 C1093 0.929 . S
H1106 C1094 0.960 . S
H1107 C1094 0.962 . S
H1108 C1094 0.960 . S
H1109 C1095 0.961 . S
H1110 C1095 0.961 . S
H1111 C1095 0.961 . S
H1112 C1096 0.931 . S
H1113 C1101 0.930 . S
H1114 C1102 0.956 . S
H1115 C1102 0.961 . S
H1116 C1102 0.961 . S
H1117 C1103 0.958 . S
H1118 C1103 0.961 . S
H1119 C1103 0.960 . S
C1120 C1121 1.391 . S
C1120 C1122 1.394 . S
C1120 H1136 0.931 . S
C1121 C1120 1.391 . S
C1121 C1125 1.376 . S
C1122 C1120 1.394 . S
C1122 C1123 1.369 . S
C1122 C1126 1.531 . S
C1123 C1122 1.369 . S
C1123 C1124 1.410 . S
C1123 C1131 1.503 . S
C1124 C1123 1.410 . S
C1124 C1125 1.392 . S
C1124 C1127 1.511 . S
C1125 C1121 1.376 . S
C1125 C1124 1.392 . S
C1125 H1137 0.929 . S
C1126 C1122 1.531 . S
C1126 H1138 0.960 . S
C1126 H1139 0.962 . S
C1126 H1140 0.960 . S
C1127 C1124 1.511 . S
C1127 H1141 0.961 . S
C1127 H1142 0.961 . S
C1127 H1143 0.961 . S
C1128 C1129 1.370 . S
C1128 C1130 1.363 . S
C1128 H1144 0.931 . S
C1129 C1128 1.370 . S
C1129 C1133 1.408 . S
C1130 C1128 1.363 . S
C1130 C1131 1.370 . S
C1130 C1134 1.524 . S
C1131 C1123 1.503 . S
C1131 C1130 1.370 . S
C1131 C1132 1.403 . S
C1132 C1131 1.403 . S
C1132 C1133 1.404 . S
C1132 C1135 1.539 . S
C1133 C1129 1.408 . S
C1133 C1132 1.404 . S
C1133 H1145 0.930 . S
C1134 C1130 1.524 . S
C1134 H1146 0.956 . S
C1134 H1147 0.961 . S
C1134 H1148 0.961 . S
C1135 C1132 1.539 . S
C1135 H1149 0.958 . S
C1135 H1150 0.961 . S
C1135 H1151 0.960 . S
H1136 C1120 0.931 . S
H1137 C1125 0.929 . S
H1138 C1126 0.960 . S
H1139 C1126 0.962 . S
H1140 C1126 0.960 . S
H1141 C1127 0.961 . S
H1142 C1127 0.961 . S
H1143 C1127 0.961 . S
H1144 C1128 0.931 . S
H1145 C1133 0.930 . S
H1146 C1134 0.956 . S
H1147 C1134 0.961 . S
H1148 C1134 0.961 . S
H1149 C1135 0.958 . S
H1150 C1135 0.961 . S
H1151 C1135 0.960 . S
C1152 C1153 1.391 . S
C1152 C1154 1.394 . S
C1152 H1168 0.931 . S
C1153 C1152 1.391 . S
C1153 C1157 1.376 . S
C1154 C1152 1.394 . S
C1154 C1155 1.369 . S
C1154 C1158 1.531 . S
C1155 C1154 1.369 . S
C1155 C1156 1.410 . S
C1155 C1163 1.503 1_545 S
C1156 C1155 1.410 . S
C1156 C1157 1.392 . S
C1156 C1159 1.511 1_545 S
C1157 C1153 1.376 . S
C1157 C1156 1.392 . S
C1157 H1169 0.929 . S
C1158 C1154 1.531 . S
C1158 H1170 0.960 . S
C1158 H1171 0.962 . S
C1158 H1172 0.960 . S
C1159 C1156 1.511 1_565 S
C1159 H1173 0.961 . S
C1159 H1174 0.961 . S
C1159 H1175 0.961 . S
C1160 C1161 1.370 . S
C1160 C1162 1.363 . S
C1160 H1176 0.931 . S
C1161 C1160 1.370 . S
C1161 C1165 1.408 . S
C1162 C1160 1.363 . S
C1162 C1163 1.370 . S
C1162 C1166 1.524 . S
C1163 C1155 1.503 1_565 S
C1163 C1162 1.370 . S
C1163 C1164 1.403 . S
C1164 C1163 1.403 . S
C1164 C1165 1.404 . S
C1164 C1167 1.539 1_455 S
C1165 C1161 1.408 . S
C1165 C1164 1.404 . S
C1165 H1177 0.930 1_455 S
C1166 C1162 1.524 . S
C1166 H1178 0.956 1_565 S
C1166 H1179 0.961 . S
C1166 H1180 0.961 . S
C1167 C1164 1.539 1_655 S
C1167 H1181 0.958 1_565 S
C1167 H1182 0.961 . S
C1167 H1183 0.960 1_665 S
H1168 C1152 0.931 . S
H1169 C1157 0.929 . S
H1170 C1158 0.960 . S
H1171 C1158 0.962 . S
H1172 C1158 0.960 . S
H1173 C1159 0.961 . S
H1174 C1159 0.961 . S
H1175 C1159 0.961 . S
H1176 C1160 0.931 . S
H1177 C1165 0.930 1_655 S
H1178 C1166 0.956 1_545 S
H1179 C1166 0.961 . S
H1180 C1166 0.961 . S
H1181 C1167 0.958 1_545 S
H1182 C1167 0.961 . S
H1183 C1167 0.960 1_445 S
C1184 C1185 1.391 . S
C1184 C1186 1.394 . S
C1184 H1200 0.931 . S
C1185 C1184 1.391 . S
C1185 C1189 1.376 . S
C1186 C1184 1.394 . S
C1186 C1187 1.369 . S
C1186 C1190 1.531 . S
C1187 C1186 1.369 . S
C1187 C1188 1.410 . S
C1187 C1195 1.503 . S
C1188 C1187 1.410 . S
C1188 C1189 1.392 . S
C1188 C1191 1.511 . S
C1189 C1185 1.376 . S
C1189 C1188 1.392 . S
C1189 H1201 0.929 . S
C1190 C1186 1.531 . S
C1190 H1202 0.960 . S
C1190 H1203 0.962 . S
C1190 H1204 0.960 . S
C1191 C1188 1.511 . S
C1191 H1205 0.961 . S
C1191 H1206 0.961 . S
C1191 H1207 0.961 . S
C1192 C1193 1.370 . S
C1192 C1194 1.363 . S
C1192 H1208 0.931 . S
C1193 C1192 1.370 . S
C1193 C1197 1.408 . S
C1194 C1192 1.363 . S
C1194 C1195 1.370 . S
C1194 C1198 1.524 . S
C1195 C1187 1.503 . S
C1195 C1194 1.370 . S
C1195 C1196 1.403 . S
C1196 C1195 1.403 . S
C1196 C1197 1.404 . S
C1196 C1199 1.539 . S
C1197 C1193 1.408 . S
C1197 C1196 1.404 . S
C1197 H1209 0.930 . S
C1198 C1194 1.524 . S
C1198 H1210 0.956 . S
C1198 H1211 0.961 . S
C1198 H1212 0.961 . S
C1199 C1196 1.539 . S
C1199 H1213 0.958 . S
C1199 H1214 0.961 . S
C1199 H1215 0.960 . S
H1200 C1184 0.931 . S
H1201 C1189 0.929 . S
H1202 C1190 0.960 . S
H1203 C1190 0.962 . S
H1204 C1190 0.960 . S
H1205 C1191 0.961 . S
H1206 C1191 0.961 . S
H1207 C1191 0.961 . S
H1208 C1192 0.931 . S
H1209 C1197 0.930 . S
H1210 C1198 0.956 . S
H1211 C1198 0.961 . S
H1212 C1198 0.961 . S
H1213 C1199 0.958 . S
H1214 C1199 0.961 . S
H1215 C1199 0.960 . S
C1216 C1217 1.391 . S
C1216 C1218 1.394 . S
C1216 H1232 0.931 . S
C1217 C1216 1.391 . S
C1217 C1221 1.376 . S
C1218 C1216 1.394 . S
C1218 C1219 1.369 . S
C1218 C1222 1.531 . S
C1219 C1218 1.369 . S
C1219 C1220 1.410 . S
C1219 C1227 1.503 1_545 S
C1220 C1219 1.410 . S
C1220 C1221 1.392 . S
C1220 C1223 1.511 . S
C1221 C1217 1.376 . S
C1221 C1220 1.392 . S
C1221 H1233 0.929 . S
C1222 C1218 1.531 . S
C1222 H1234 0.960 . S
C1222 H1235 0.962 . S
C1222 H1236 0.960 . S
C1223 C1220 1.511 . S
C1223 H1237 0.961 . S
C1223 H1238 0.961 1_545 S
C1223 H1239 0.961 . S
C1224 C1225 1.370 . S
C1224 C1226 1.363 . S
C1224 H1240 0.931 . S
C1225 C1224 1.370 . S
C1225 C1229 1.408 . S
C1226 C1224 1.363 . S
C1226 C1227 1.370 . S
C1226 C1230 1.524 . S
C1227 C1219 1.503 1_565 S
C1227 C1226 1.370 . S
C1227 C1228 1.403 . S
C1228 C1227 1.403 . S
C1228 C1229 1.404 . S
C1228 C1231 1.539 1_565 S
C1229 C1225 1.408 . S
C1229 C1228 1.404 . S
C1229 H1241 0.930 . S
C1230 C1226 1.524 . S
C1230 H1242 0.956 . S
C1230 H1243 0.961 . S
C1230 H1244 0.961 . S
C1231 C1228 1.539 1_545 S
C1231 H1245 0.958 . S
C1231 H1246 0.961 . S
C1231 H1247 0.960 . S
H1232 C1216 0.931 . S
H1233 C1221 0.929 . S
H1234 C1222 0.960 . S
H1235 C1222 0.962 . S
H1236 C1222 0.960 . S
H1237 C1223 0.961 . S
H1238 C1223 0.961 1_565 S
H1239 C1223 0.961 . S
H1240 C1224 0.931 . S
H1241 C1229 0.930 . S
H1242 C1230 0.956 . S
H1243 C1230 0.961 . S
H1244 C1230 0.961 . S
H1245 C1231 0.958 . S
H1246 C1231 0.961 . S
H1247 C1231 0.960 . S
C1248 C1249 1.391 . S
C1248 C1250 1.394 . S
C1248 H1264 0.931 . S
C1249 C1248 1.391 . S
C1249 C1253 1.376 . S
C1250 C1248 1.394 . S
C1250 C1251 1.369 . S
C1250 C1254 1.531 . S
C1251 C1250 1.369 . S
C1251 C1252 1.410 . S
C1251 C1259 1.503 . S
C1252 C1251 1.410 . S
C1252 C1253 1.392 . S
C1252 C1255 1.511 . S
C1253 C1249 1.376 . S
C1253 C1252 1.392 . S
C1253 H1265 0.929 . S
C1254 C1250 1.531 . S
C1254 H1266 0.960 . S
C1254 H1267 0.962 . S
C1254 H1268 0.960 . S
C1255 C1252 1.511 . S
C1255 H1269 0.961 . S
C1255 H1270 0.961 . S
C1255 H1271 0.961 . S
C1256 C1257 1.370 . S
C1256 C1258 1.363 . S
C1256 H1272 0.931 . S
C1257 C1256 1.370 . S
C1257 C1261 1.408 . S
C1258 C1256 1.363 . S
C1258 C1259 1.370 . S
C1258 C1262 1.524 . S
C1259 C1251 1.503 . S
C1259 C1258 1.370 . S
C1259 C1260 1.403 . S
C1260 C1259 1.403 . S
C1260 C1261 1.404 . S
C1260 C1263 1.539 . S
C1261 C1257 1.408 . S
C1261 C1260 1.404 . S
C1261 H1273 0.930 . S
C1262 C1258 1.524 . S
C1262 H1274 0.956 . S
C1262 H1275 0.961 . S
C1262 H1276 0.961 . S
C1263 C1260 1.539 . S
C1263 H1277 0.958 . S
C1263 H1278 0.961 . S
C1263 H1279 0.960 . S
H1264 C1248 0.931 . S
H1265 C1253 0.929 . S
H1266 C1254 0.960 . S
H1267 C1254 0.962 . S
H1268 C1254 0.960 . S
H1269 C1255 0.961 . S
H1270 C1255 0.961 . S
H1271 C1255 0.961 . S
H1272 C1256 0.931 . S
H1273 C1261 0.930 . S
H1274 C1262 0.956 . S
H1275 C1262 0.961 . S
H1276 C1262 0.961 . S
H1277 C1263 0.958 . S
H1278 C1263 0.961 . S
H1279 C1263 0.960 . S
C1280 C1281 1.391 . S
C1280 C1282 1.394 . S
C1280 H1296 0.931 . S
C1281 C1280 1.391 . S
C1281 C1285 1.376 . S
C1282 C1280 1.394 . S
C1282 C1283 1.369 . S
C1282 C1286 1.531 . S
C1283 C1282 1.369 . S
C1283 C1284 1.410 . S
C1283 C1291 1.503 . S
C1284 C1283 1.410 . S
C1284 C1285 1.392 . S
C1284 C1287 1.511 . S
C1285 C1281 1.376 . S
C1285 C1284 1.392 . S
C1285 H1297 0.929 . S
C1286 C1282 1.531 . S
C1286 H1298 0.960 . S
C1286 H1299 0.962 . S
C1286 H1300 0.960 . S
C1287 C1284 1.511 . S
C1287 H1301 0.961 . S
C1287 H1302 0.961 . S
C1287 H1303 0.961 . S
C1288 C1289 1.370 . S
C1288 C1290 1.363 . S
C1288 H1304 0.931 . S
C1289 C1288 1.370 . S
C1289 C1293 1.408 . S
C1290 C1288 1.363 . S
C1290 C1291 1.370 . S
C1290 C1294 1.524 . S
C1291 C1283 1.503 . S
C1291 C1290 1.370 . S
C1291 C1292 1.403 . S
C1292 C1291 1.403 . S
C1292 C1293 1.404 . S
C1292 C1295 1.539 . S
C1293 C1289 1.408 . S
C1293 C1292 1.404 . S
C1293 H1305 0.930 . S
C1294 C1290 1.524 . S
C1294 H1306 0.956 . S
C1294 H1307 0.961 . S
C1294 H1308 0.961 . S
C1295 C1292 1.539 . S
C1295 H1309 0.958 . S
C1295 H1310 0.961 1_655 S
C1295 H1311 0.960 . S
H1296 C1280 0.931 . S
H1297 C1285 0.929 . S
H1298 C1286 0.960 . S
H1299 C1286 0.962 . S
H1300 C1286 0.960 . S
H1301 C1287 0.961 . S
H1302 C1287 0.961 . S
H1303 C1287 0.961 . S
H1304 C1288 0.931 . S
H1305 C1293 0.930 . S
H1306 C1294 0.956 . S
H1307 C1294 0.961 . S
H1308 C1294 0.961 . S
H1309 C1295 0.958 . S
H1310 C1295 0.961 1_455 S
H1311 C1295 0.960 . S
C1312 C1313 1.391 . S
C1312 C1314 1.394 . S
C1312 H1328 0.931 . S
C1313 C1312 1.391 . S
C1313 C1317 1.376 . S
C1314 C1312 1.394 . S
C1314 C1315 1.369 . S
C1314 C1318 1.531 . S
C1315 C1314 1.369 . S
C1315 C1316 1.410 . S
C1315 C1323 1.503 . S
C1316 C1315 1.410 . S
C1316 C1317 1.392 . S
C1316 C1319 1.511 . S
C1317 C1313 1.376 . S
C1317 C1316 1.392 . S
C1317 H1329 0.929 . S
C1318 C1314 1.531 . S
C1318 H1330 0.960 . S
C1318 H1331 0.962 . S
C1318 H1332 0.960 . S
C1319 C1316 1.511 . S
C1319 H1333 0.961 . S
C1319 H1334 0.961 . S
C1319 H1335 0.961 . S
C1320 C1321 1.370 . S
C1320 C1322 1.363 . S
C1320 H1336 0.931 . S
C1321 C1320 1.370 . S
C1321 C1325 1.408 . S
C1322 C1320 1.363 . S
C1322 C1323 1.370 . S
C1322 C1326 1.524 . S
C1323 C1315 1.503 . S
C1323 C1322 1.370 . S
C1323 C1324 1.403 . S
C1324 C1323 1.403 . S
C1324 C1325 1.404 . S
C1324 C1327 1.539 . S
C1325 C1321 1.408 . S
C1325 C1324 1.404 . S
C1325 H1337 0.930 . S
C1326 C1322 1.524 . S
C1326 H1338 0.956 . S
C1326 H1339 0.961 . S
C1326 H1340 0.961 . S
C1327 C1324 1.539 . S
C1327 H1341 0.958 . S
C1327 H1342 0.961 . S
C1327 H1343 0.960 . S
H1328 C1312 0.931 . S
H1329 C1317 0.929 . S
H1330 C1318 0.960 . S
H1331 C1318 0.962 . S
H1332 C1318 0.960 . S
H1333 C1319 0.961 . S
H1334 C1319 0.961 . S
H1335 C1319 0.961 . S
H1336 C1320 0.931 . S
H1337 C1325 0.930 . S
H1338 C1326 0.956 . S
H1339 C1326 0.961 . S
H1340 C1326 0.961 . S
H1341 C1327 0.958 . S
H1342 C1327 0.961 . S
H1343 C1327 0.960 . S
C1344 C1345 1.391 . S
C1344 C1346 1.394 . S
C1344 H1360 0.931 . S
C1345 C1344 1.391 . S
C1345 C1349 1.376 . S
C1346 C1344 1.394 . S
C1346 C1347 1.369 . S
C1346 C1350 1.531 . S
C1347 C1346 1.369 . S
C1347 C1348 1.410 . S
C1347 C1355 1.503 . S
C1348 C1347 1.410 . S
C1348 C1349 1.392 . S
C1348 C1351 1.511 . S
C1349 C1345 1.376 . S
C1349 C1348 1.392 . S
C1349 H1361 0.929 . S
C1350 C1346 1.531 . S
C1350 H1362 0.960 . S
C1350 H1363 0.962 . S
C1350 H1364 0.960 . S
C1351 C1348 1.511 . S
C1351 H1365 0.961 . S
C1351 H1366 0.961 . S
C1351 H1367 0.961 . S
C1352 C1353 1.370 . S
C1352 C1354 1.363 . S
C1352 H1368 0.931 . S
C1353 C1352 1.370 . S
C1353 C1357 1.408 . S
C1354 C1352 1.363 . S
C1354 C1355 1.370 . S
C1354 C1358 1.524 . S
C1355 C1347 1.503 . S
C1355 C1354 1.370 . S
C1355 C1356 1.403 . S
C1356 C1355 1.403 . S
C1356 C1357 1.404 . S
C1356 C1359 1.539 . S
C1357 C1353 1.408 . S
C1357 C1356 1.404 . S
C1357 H1369 0.930 . S
C1358 C1354 1.524 . S
C1358 H1370 0.956 . S
C1358 H1371 0.961 . S
C1358 H1372 0.961 . S
C1359 C1356 1.539 . S
C1359 H1373 0.958 . S
C1359 H1374 0.961 . S
C1359 H1375 0.960 . S
H1360 C1344 0.931 . S
H1361 C1349 0.929 . S
H1362 C1350 0.960 . S
H1363 C1350 0.962 . S
H1364 C1350 0.960 . S
H1365 C1351 0.961 . S
H1366 C1351 0.961 . S
H1367 C1351 0.961 . S
H1368 C1352 0.931 . S
H1369 C1357 0.930 . S
H1370 C1358 0.956 . S
H1371 C1358 0.961 . S
H1372 C1358 0.961 . S
H1373 C1359 0.958 . S
H1374 C1359 0.961 . S
H1375 C1359 0.960 . S
C1376 C1377 1.391 . S
C1376 C1378 1.394 . S
C1376 H1392 0.931 . S
C1377 C1376 1.391 . S
C1377 C1381 1.376 . S
C1378 C1376 1.394 . S
C1378 C1379 1.369 . S
C1378 C1382 1.531 . S
C1379 C1378 1.369 . S
C1379 C1380 1.410 . S
C1379 C1387 1.503 . S
C1380 C1379 1.410 . S
C1380 C1381 1.392 . S
C1380 C1383 1.511 . S
C1381 C1377 1.376 . S
C1381 C1380 1.392 . S
C1381 H1393 0.929 . S
C1382 C1378 1.531 . S
C1382 H1394 0.960 . S
C1382 H1395 0.962 . S
C1382 H1396 0.960 . S
C1383 C1380 1.511 . S
C1383 H1397 0.961 . S
C1383 H1398 0.961 . S
C1383 H1399 0.961 . S
C1384 C1385 1.370 . S
C1384 C1386 1.363 . S
C1384 H1400 0.931 . S
C1385 C1384 1.370 . S
C1385 C1389 1.408 . S
C1386 C1384 1.363 . S
C1386 C1387 1.370 . S
C1386 C1390 1.524 . S
C1387 C1379 1.503 . S
C1387 C1386 1.370 . S
C1387 C1388 1.403 . S
C1388 C1387 1.403 . S
C1388 C1389 1.404 . S
C1388 C1391 1.539 . S
C1389 C1385 1.408 . S
C1389 C1388 1.404 . S
C1389 H1401 0.930 . S
C1390 C1386 1.524 . S
C1390 H1402 0.956 . S
C1390 H1403 0.961 . S
C1390 H1404 0.961 . S
C1391 C1388 1.539 . S
C1391 H1405 0.958 . S
C1391 H1406 0.961 . S
C1391 H1407 0.960 . S
H1392 C1376 0.931 . S
H1393 C1381 0.929 . S
H1394 C1382 0.960 . S
H1395 C1382 0.962 . S
H1396 C1382 0.960 . S
H1397 C1383 0.961 . S
H1398 C1383 0.961 . S
H1399 C1383 0.961 . S
H1400 C1384 0.931 . S
H1401 C1389 0.930 . S
H1402 C1390 0.956 . S
H1403 C1390 0.961 . S
H1404 C1390 0.961 . S
H1405 C1391 0.958 . S
H1406 C1391 0.961 . S
H1407 C1391 0.960 . S
C1408 C1409 1.391 . S
C1408 C1410 1.394 . S
C1408 H1424 0.931 . S
C1409 C1408 1.391 . S
C1409 C1413 1.376 . S
C1410 C1408 1.394 . S
C1410 C1411 1.369 . S
C1410 C1414 1.531 . S
C1411 C1410 1.369 . S
C1411 C1412 1.410 . S
C1411 C1419 1.503 . S
C1412 C1411 1.410 . S
C1412 C1413 1.392 . S
C1412 C1415 1.511 . S
C1413 C1409 1.376 . S
C1413 C1412 1.392 . S
C1413 H1425 0.929 . S
C1414 C1410 1.531 . S
C1414 H1426 0.960 . S
C1414 H1427 0.962 . S
C1414 H1428 0.960 . S
C1415 C1412 1.511 . S
C1415 H1429 0.961 . S
C1415 H1430 0.961 . S
C1415 H1431 0.961 . S
C1416 C1417 1.370 . S
C1416 C1418 1.363 . S
C1416 H1432 0.931 . S
C1417 C1416 1.370 . S
C1417 C1421 1.408 . S
C1418 C1416 1.363 . S
C1418 C1419 1.370 . S
C1418 C1422 1.524 . S
C1419 C1411 1.503 . S
C1419 C1418 1.370 . S
C1419 C1420 1.403 . S
C1420 C1419 1.403 . S
C1420 C1421 1.404 . S
C1420 C1423 1.539 . S
C1421 C1417 1.408 . S
C1421 C1420 1.404 . S
C1421 H1433 0.930 . S
C1422 C1418 1.524 . S
C1422 H1434 0.956 . S
C1422 H1435 0.961 . S
C1422 H1436 0.961 . S
C1423 C1420 1.539 . S
C1423 H1437 0.958 . S
C1423 H1438 0.961 . S
C1423 H1439 0.960 . S
H1424 C1408 0.931 . S
H1425 C1413 0.929 . S
H1426 C1414 0.960 . S
H1427 C1414 0.962 . S
H1428 C1414 0.960 . S
H1429 C1415 0.961 . S
H1430 C1415 0.961 . S
H1431 C1415 0.961 . S
H1432 C1416 0.931 . S
H1433 C1421 0.930 . S
H1434 C1422 0.956 . S
H1435 C1422 0.961 . S
H1436 C1422 0.961 . S
H1437 C1423 0.958 . S
H1438 C1423 0.961 . S
H1439 C1423 0.960 . S
C1440 C1441 1.391 . S
C1440 C1442 1.394 . S
C1440 H1456 0.931 . S
C1441 C1440 1.391 . S
C1441 C1445 1.376 . S
C1442 C1440 1.394 . S
C1442 C1443 1.369 . S
C1442 C1446 1.531 . S
C1443 C1442 1.369 . S
C1443 C1444 1.410 . S
C1443 C1451 1.503 . S
C1444 C1443 1.410 . S
C1444 C1445 1.392 . S
C1444 C1447 1.511 . S
C1445 C1441 1.376 . S
C1445 C1444 1.392 . S
C1445 H1457 0.929 . S
C1446 C1442 1.531 . S
C1446 H1458 0.960 . S
C1446 H1459 0.962 . S
C1446 H1460 0.960 . S
C1447 C1444 1.511 . S
C1447 H1461 0.961 . S
C1447 H1462 0.961 . S
C1447 H1463 0.961 . S
C1448 C1449 1.370 . S
C1448 C1450 1.363 . S
C1448 H1464 0.931 . S
C1449 C1448 1.370 . S
C1449 C1453 1.408 . S
C1450 C1448 1.363 . S
C1450 C1451 1.370 1_655 S
C1450 C1454 1.524 1_655 S
C1451 C1443 1.503 . S
C1451 C1450 1.370 1_455 S
C1451 C1452 1.403 1_455 S
C1452 C1451 1.403 1_655 S
C1452 C1453 1.404 . S
C1452 C1455 1.539 1_655 S
C1453 C1449 1.408 . S
C1453 C1452 1.404 . S
C1453 H1465 0.930 . S
C1454 C1450 1.524 1_455 S
C1454 H1466 0.956 . S
C1454 H1467 0.961 . S
C1454 H1468 0.961 1_455 S
C1455 C1452 1.539 1_455 S
C1455 H1469 0.958 . S
C1455 H1470 0.961 . S
C1455 H1471 0.960 . S
H1456 C1440 0.931 . S
H1457 C1445 0.929 . S
H1458 C1446 0.960 . S
H1459 C1446 0.962 . S
H1460 C1446 0.960 . S
H1461 C1447 0.961 . S
H1462 C1447 0.961 . S
H1463 C1447 0.961 . S
H1464 C1448 0.931 . S
H1465 C1453 0.930 . S
H1466 C1454 0.956 . S
H1467 C1454 0.961 . S
H1468 C1454 0.961 1_655 S
H1469 C1455 0.958 . S
H1470 C1455 0.961 . S
H1471 C1455 0.960 . S
C1472 C1473 1.391 . S
C1472 C1474 1.394 . S
C1472 H1488 0.931 . S
C1473 C1472 1.391 . S
C1473 C1477 1.376 . S
C1474 C1472 1.394 . S
C1474 C1475 1.369 . S
C1474 C1478 1.531 . S
C1475 C1474 1.369 . S
C1475 C1476 1.410 . S
C1475 C1483 1.503 . S
C1476 C1475 1.410 . S
C1476 C1477 1.392 . S
C1476 C1479 1.511 . S
C1477 C1473 1.376 . S
C1477 C1476 1.392 . S
C1477 H1489 0.929 . S
C1478 C1474 1.531 . S
C1478 H1490 0.960 . S
C1478 H1491 0.962 . S
C1478 H1492 0.960 . S
C1479 C1476 1.511 . S
C1479 H1493 0.961 . S
C1479 H1494 0.961 . S
C1479 H1495 0.961 . S
C1480 C1481 1.370 . S
C1480 C1482 1.363 . S
C1480 H1496 0.931 . S
C1481 C1480 1.370 . S
C1481 C1485 1.408 . S
C1482 C1480 1.363 . S
C1482 C1483 1.370 . S
C1482 C1486 1.524 . S
C1483 C1475 1.503 . S
C1483 C1482 1.370 . S
C1483 C1484 1.403 . S
C1484 C1483 1.403 . S
C1484 C1485 1.404 . S
C1484 C1487 1.539 . S
C1485 C1481 1.408 . S
C1485 C1484 1.404 . S
C1485 H1497 0.930 . S
C1486 C1482 1.524 . S
C1486 H1498 0.956 . S
C1486 H1499 0.961 . S
C1486 H1500 0.961 . S
C1487 C1484 1.539 . S
C1487 H1501 0.958 . S
C1487 H1502 0.961 . S
C1487 H1503 0.960 . S
H1488 C1472 0.931 . S
H1489 C1477 0.929 . S
H1490 C1478 0.960 . S
H1491 C1478 0.962 . S
H1492 C1478 0.960 . S
H1493 C1479 0.961 . S
H1494 C1479 0.961 . S
H1495 C1479 0.961 . S
H1496 C1480 0.931 . S
H1497 C1485 0.930 . S
H1498 C1486 0.956 . S
H1499 C1486 0.961 . S
H1500 C1486 0.961 . S
H1501 C1487 0.958 . S
H1502 C1487 0.961 . S
H1503 C1487 0.960 . S
C1504 C1505 1.391 . S
C1504 C1506 1.394 . S
C1504 H1520 0.931 . S
C1505 C1504 1.391 . S
C1505 C1509 1.376 . S
C1506 C1504 1.394 . S
C1506 C1507 1.369 . S
C1506 C1510 1.531 . S
C1507 C1506 1.369 . S
C1507 C1508 1.410 . S
C1507 C1515 1.503 . S
C1508 C1507 1.410 . S
C1508 C1509 1.392 . S
C1508 C1511 1.511 . S
C1509 C1505 1.376 . S
C1509 C1508 1.392 . S
C1509 H1521 0.929 . S
C1510 C1506 1.531 . S
C1510 H1522 0.960 . S
C1510 H1523 0.962 . S
C1510 H1524 0.960 . S
C1511 C1508 1.511 . S
C1511 H1525 0.961 . S
C1511 H1526 0.961 . S
C1511 H1527 0.961 . S
C1512 C1513 1.370 . S
C1512 C1514 1.363 . S
C1512 H1528 0.931 . S
C1513 C1512 1.370 . S
C1513 C1517 1.408 . S
C1514 C1512 1.363 . S
C1514 C1515 1.370 . S
C1514 C1518 1.524 . S
C1515 C1507 1.503 . S
C1515 C1514 1.370 . S
C1515 C1516 1.403 . S
C1516 C1515 1.403 . S
C1516 C1517 1.404 . S
C1516 C1519 1.539 . S
C1517 C1513 1.408 . S
C1517 C1516 1.404 . S
C1517 H1529 0.930 . S
C1518 C1514 1.524 . S
C1518 H1530 0.956 . S
C1518 H1531 0.961 . S
C1518 H1532 0.961 . S
C1519 C1516 1.539 . S
C1519 H1533 0.958 . S
C1519 H1534 0.961 . S
C1519 H1535 0.960 . S
H1520 C1504 0.931 . S
H1521 C1509 0.929 . S
H1522 C1510 0.960 . S
H1523 C1510 0.962 . S
H1524 C1510 0.960 . S
H1525 C1511 0.961 . S
H1526 C1511 0.961 . S
H1527 C1511 0.961 . S
H1528 C1512 0.931 . S
H1529 C1517 0.930 . S
H1530 C1518 0.956 . S
H1531 C1518 0.961 . S
H1532 C1518 0.961 . S
H1533 C1519 0.958 . S
H1534 C1519 0.961 . S
H1535 C1519 0.960 . S
C1536 C1537 1.391 . S
C1536 C1538 1.394 . S
C1536 H1552 0.931 . S
C1537 C1536 1.391 . S
C1537 C1541 1.376 . S
C1538 C1536 1.394 . S
C1538 C1539 1.369 . S
C1538 C1542 1.531 . S
C1539 C1538 1.369 . S
C1539 C1540 1.410 . S
C1539 C1547 1.503 . S
C1540 C1539 1.410 . S
C1540 C1541 1.392 . S
C1540 C1543 1.511 . S
C1541 C1537 1.376 . S
C1541 C1540 1.392 . S
C1541 H1553 0.929 . S
C1542 C1538 1.531 . S
C1542 H1554 0.960 . S
C1542 H1555 0.962 . S
C1542 H1556 0.960 . S
C1543 C1540 1.511 . S
C1543 H1557 0.961 . S
C1543 H1558 0.961 . S
C1543 H1559 0.961 . S
C1544 C1545 1.370 . S
C1544 C1546 1.363 . S
C1544 H1560 0.931 . S
C1545 C1544 1.370 . S
C1545 C1549 1.408 . S
C1546 C1544 1.363 . S
C1546 C1547 1.370 . S
C1546 C1550 1.524 . S
C1547 C1539 1.503 . S
C1547 C1546 1.370 . S
C1547 C1548 1.403 . S
C1548 C1547 1.403 . S
C1548 C1549 1.404 . S
C1548 C1551 1.539 . S
C1549 C1545 1.408 . S
C1549 C1548 1.404 . S
C1549 H1561 0.930 . S
C1550 C1546 1.524 . S
C1550 H1562 0.956 . S
C1550 H1563 0.961 . S
C1550 H1564 0.961 . S
C1551 C1548 1.539 . S
C1551 H1565 0.958 . S
C1551 H1566 0.961 . S
C1551 H1567 0.960 . S
H1552 C1536 0.931 . S
H1553 C1541 0.929 . S
H1554 C1542 0.960 . S
H1555 C1542 0.962 . S
H1556 C1542 0.960 . S
H1557 C1543 0.961 . S
H1558 C1543 0.961 . S
H1559 C1543 0.961 . S
H1560 C1544 0.931 . S
H1561 C1549 0.930 . S
H1562 C1550 0.956 . S
H1563 C1550 0.961 . S
H1564 C1550 0.961 . S
H1565 C1551 0.958 . S
H1566 C1551 0.961 . S
H1567 C1551 0.960 . S
C1568 C1569 1.391 . S
C1568 C1570 1.394 . S
C1568 H1584 0.931 . S
C1569 C1568 1.391 . S
C1569 C1573 1.376 . S
C1570 C1568 1.394 . S
C1570 C1571 1.369 . S
C1570 C1574 1.531 . S
C1571 C1570 1.369 . S
C1571 C1572 1.410 . S
C1571 C1579 1.503 . S
C1572 C1571 1.410 . S
C1572 C1573 1.392 . S
C1572 C1575 1.511 . S
C1573 C1569 1.376 . S
C1573 C1572 1.392 . S
C1573 H1585 0.929 . S
C1574 C1570 1.531 . S
C1574 H1586 0.960 . S
C1574 H1587 0.962 . S
C1574 H1588 0.960 . S
C1575 C1572 1.511 . S
C1575 H1589 0.961 . S
C1575 H1590 0.961 . S
C1575 H1591 0.961 . S
C1576 C1577 1.370 . S
C1576 C1578 1.363 . S
C1576 H1592 0.931 . S
C1577 C1576 1.370 . S
C1577 C1581 1.408 . S
C1578 C1576 1.363 . S
C1578 C1579 1.370 . S
C1578 C1582 1.513 1_556 S
C1579 C1571 1.503 . S
C1579 C1578 1.370 . S
C1579 C1580 1.403 . S
C1580 C1579 1.403 . S
C1580 C1581 1.404 . S
C1580 C1583 1.539 . S
C1581 C1577 1.408 . S
C1581 C1580 1.404 . S
C1581 H1593 0.930 . S
C1582 C1578 1.513 1_554 S
C1582 H1594 0.956 1_554 S
C1582 H1595 0.965 . S
C1582 H1596 0.967 . S
C1583 C1580 1.539 . S
C1583 H1597 0.958 . S
C1583 H1598 0.961 . S
C1583 H1599 0.960 . S
H1584 C1568 0.931 . S
H1585 C1573 0.929 . S
H1586 C1574 0.960 . S
H1587 C1574 0.962 . S
H1588 C1574 0.960 . S
H1589 C1575 0.961 . S
H1590 C1575 0.961 . S
H1591 C1575 0.961 . S
H1592 C1576 0.931 . S
H1593 C1581 0.930 . S
H1594 C1582 0.956 1_556 S
H1595 C1582 0.965 . S
H1596 C1582 0.967 . S
H1597 C1583 0.958 . S
H1598 C1583 0.961 . S
H1599 C1583 0.960 . S
C1600 C1601 1.391 . S
C1600 C1602 1.394 . S
C1600 H1616 0.931 . S
C1601 C1600 1.391 . S
C1601 C1605 1.376 . S
C1602 C1600 1.394 . S
C1602 C1603 1.369 . S
C1602 C1606 1.531 . S
C1603 C1602 1.369 . S
C1603 C1604 1.410 . S
C1603 C1611 1.503 . S
C1604 C1603 1.410 . S
C1604 C1605 1.392 . S
C1604 C1607 1.511 . S
C1605 C1601 1.376 . S
C1605 C1604 1.392 . S
C1605 H1617 0.929 . S
C1606 C1602 1.531 . S
C1606 H1618 0.960 . S
C1606 H1619 0.962 . S
C1606 H1620 0.960 . S
C1607 C1604 1.511 . S
C1607 H1621 0.961 . S
C1607 H1622 0.961 . S
C1607 H1623 0.961 . S
C1608 C1609 1.370 . S
C1608 C1610 1.363 1_455 S
C1608 H1624 0.931 . S
C1609 C1608 1.370 . S
C1609 C1613 1.408 . S
C1610 C1608 1.363 1_655 S
C1610 C1611 1.370 . S
C1610 C1614 1.524 . S
C1611 C1603 1.503 . S
C1611 C1610 1.370 . S
C1611 C1612 1.403 1_655 S
C1612 C1611 1.403 1_455 S
C1612 C1613 1.404 . S
C1612 C1615 1.539 . S
C1613 C1609 1.408 . S
C1613 C1612 1.404 . S
C1613 H1625 0.930 . S
C1614 C1610 1.524 . S
C1614 H1626 0.956 . S
C1614 H1627 0.961 . S
C1614 H1628 0.961 . S
C1615 C1612 1.539 . S
C1615 H1629 0.958 . S
C1615 H1630 0.961 . S
C1615 H1631 0.960 1_455 S
H1616 C1600 0.931 . S
H1617 C1605 0.929 . S
H1618 C1606 0.960 . S
H1619 C1606 0.962 . S
H1620 C1606 0.960 . S
H1621 C1607 0.961 . S
H1622 C1607 0.961 . S
H1623 C1607 0.961 . S
H1624 C1608 0.931 . S
H1625 C1613 0.930 . S
H1626 C1614 0.956 . S
H1627 C1614 0.961 . S
H1628 C1614 0.961 . S
H1629 C1615 0.958 . S
H1630 C1615 0.961 . S
H1631 C1615 0.960 1_655 S
C481 C19 1.601 . S
C489 C458 1.690 . S
C513 C378 1.666 . S
C521 C58 1.668 . S
C545 C99 1.351 . S
C553 C339 1.388 . S
C577 C138 1.644 . S
C585 C418 1.635 . S
C609 C178 2.055 . S
C617 C419 1.970 . S
C641 C219 1.342 . S
C649 C459 1.337 . S
C673 C379 1.774 . S
C681 C258 1.854 . S
C705 C298 1.352 . S
C713 C338 1.365 . S
C737 C139 1.860 . S
C745 C179 1.859 . S
C769 C18 1.787 . S
C777 C218 1.800 . S
C801 C59 1.454 . S
C809 C259 1.476 . S
C833 C299 1.720 . S
C841 C98 1.764 . S
C865 C15 2.643 . S
C873 C330 2.792 . S
C897 C46 1.086 . S
C905 C409 1.054 . S
C929 C449 1.584 . S
C937 C95 1.706 . S
C961 C126 1.399 . S
C969 C369 1.323 . S
C993 C166 1.494 . S
C1001 C370 1.494 . S
C1025 C329 1.742 . S
C1033 C215 1.772 . S
C1057 C410 1.950 . S
C1065 C246 1.979 . S
C1089 C450 1.784 . S
C1097 C286 1.814 . S
C1121 C9 1.528 . S
C1129 C135 1.567 . S
C1153 C6 2.224 . S
C1161 C50 2.211 . S
C1185 C55 1.971 . S
C1193 C89 1.942 . S
C1217 C130 1.933 . S
C1225 C86 1.939 . S
C1249 C206 1.038 . S
C1257 C170 1.017 . S
C1281 C209 1.721 . S
C1289 C255 1.787 . S
C1313 C250 1.341 . S
C1321 C295 1.328 . S
C1345 C175 1.758 . S
C1353 C290 1.809 . S
C1377 C326 1.203 . S
C1385 C129 1.165 . S
C1409 C210 1.644 . S
C1417 C366 1.678 . S
C1441 C335 2.003 . S
C1449 C249 1.892 . S
C1473 C406 1.593 . S
C1481 C289 1.513 . S
C1505 C169 0.757 . S
C1513 C446 0.711 . S
C1537 C455 1.546 . S
C1545 C49 1.522 . S
C1569 C90 1.348 . S
C1577 C375 1.318 . S
C1601 C415 1.831 . S
C1609 C10 1.906 . S
