# Generated by pormake.
# Topology sxa, (6)-cn, num edge types: 1
# Building blocks:
#     Node 0, Type 0, BuildingBlock: IZENUY_clean_sbu_0, # of connection points: 6
#     Node 1, Type 0, BuildingBlock: IZENUY_clean_sbu_0, # of connection points: 6
#     Node 2, Type 0, BuildingBlock: IZENUY_clean_sbu_0, # of connection points: 6
#     Node 3, Type 0, BuildingBlock: IZENUY_clean_sbu_0, # of connection points: 6
#     Edge 4, Type (0, 0), BuildingBlock: FUNLAD_clean_linker_0, # of connection points: 2
#     Edge 5, Type (0, 0), BuildingBlock: FUNLAD_clean_linker_0, # of connection points: 2
#     Edge 6, Type (0, 0), BuildingBlock: FUNLAD_clean_linker_0, # of connection points: 2
#     Edge 7, Type (0, 0), BuildingBlock: FUNLAD_clean_linker_0, # of connection points: 2
#     Edge 8, Type (0, 0), BuildingBlock: FUNLAD_clean_linker_0, # of connection points: 2
#     Edge 9, Type (0, 0), BuildingBlock: FUNLAD_clean_linker_0, # of connection points: 2
#     Edge 10, Type (0, 0), BuildingBlock: FUNLAD_clean_linker_0, # of connection points: 2
#     Edge 11, Type (0, 0), BuildingBlock: FUNLAD_clean_linker_0, # of connection points: 2
#     Edge 12, Type (0, 0), BuildingBlock: FUNLAD_clean_linker_0, # of connection points: 2
#     Edge 13, Type (0, 0), BuildingBlock: FUNLAD_clean_linker_0, # of connection points: 2
#     Edge 14, Type (0, 0), BuildingBlock: FUNLAD_clean_linker_0, # of connection points: 2
#     Edge 15, Type (0, 0), BuildingBlock: FUNLAD_clean_linker_0, # of connection points: 2
# Relax obj value: 0.274
# Max RMSD: 0.267
# Mean RMSD: 0.267
data_MOF--net-sxa--node1-IZENUY_clean_sbu_0--edge1-FUNLAD_clean_linker_0
_symmetry_space_group_name_H-M    P1
_symmetry_Int_Tables_number       1
_symmetry_cell_setting            triclinic
loop_
_symmetry_equiv_pos_as_xyz
'x, y, z'
_cell_length_a     27.95335
_cell_length_b     32.006247
_cell_length_c     20.112414
_cell_angle_alpha  90.367344
_cell_angle_beta   90.136889
_cell_angle_gamma 90.04168
loop_
_atom_site_label
_atom_site_type_symbol
_atom_site_fract_x
_atom_site_fract_y
_atom_site_fract_z
_atom_type_partial_charge
Fe0 Fe 0.02724 0.83297 0.30714 0.0
Fe1 Fe 0.00882 0.73681 0.30889 0.0
O2 O 0.0152 0.78486 0.26514 0.0
Fe3 Fe 0.00879 0.7845 0.17716 0.0
O4 O 0.07058 0.79932 0.16731 0.0
O5 O 0.06942 0.85034 0.2428 0.0
O6 O 0.07888 0.81206 0.35004 0.0
C7 C 0.08508 0.77763 0.37873 0.0
C8 C 0.97296 0.86565 0.20692 0.0
O9 O 0.05569 0.74782 0.37116 0.0
C10 C 0.93275 0.73783 0.21533 0.0
O11 O -0.01311 0.8226 0.37745 0.0
O12 O 0.96221 0.75777 0.36146 0.0
O13 O -0.00946 0.83903 0.16777 0.0
O14 O 0.97718 0.86058 0.26867 0.0
C15 C 0.05085 0.70463 0.19783 0.0
O16 O 0.9603 0.71786 0.25411 0.0
O17 O 0.94657 0.7702 0.18518 0.0
C18 C 0.95831 0.79284 0.38983 0.0
O19 O 0.05478 0.71036 0.25968 0.0
O20 O 0.02599 0.72966 0.16405 0.0
C21 C 0.08891 0.83165 0.19378 0.0
Fe22 Fe 0.50741 0.2875 0.16908 0.0
Fe23 Fe 0.52823 0.33675 0.29771 0.0
O24 O 0.51743 0.2881 0.25649 0.0
Fe25 Fe 0.5155 0.23971 0.30058 0.0
O26 O 0.56099 0.21506 0.2479 0.0
O27 O 0.5276 0.23379 0.15466 0.0
O28 O 0.56759 0.30512 0.15434 0.0
C29 C 0.58557 0.33796 0.17956 0.0
C30 C 0.43619 0.23709 0.21266 0.0
O31 O 0.56783 0.35558 0.23091 0.0
C32 C 0.46373 0.2939 0.38402 0.0
O33 O 0.48576 0.34112 0.16081 0.0
O34 O 0.47591 0.3626 0.26235 0.0
O35 O 0.46638 0.21856 0.2493 0.0
O36 O 0.44656 0.27017 0.18176 0.0
C37 C 0.59115 0.28398 0.36628 0.0
O38 O 0.49013 0.3249 0.36991 0.0
O39 O 0.46952 0.25874 0.35642 0.0
C40 C 0.46936 0.36761 0.20107 0.0
O41 O 0.58191 0.31803 0.33806 0.0
O42 O 0.56384 0.25264 0.35971 0.0
C43 C 0.55564 0.21013 0.186 0.0
Fe44 Fe 0.01818 0.28356 0.92701 0.0
Fe45 Fe 0.01465 0.32819 0.79247 0.0
O46 O 0.02152 0.2811 0.83876 0.0
Fe47 Fe 0.03166 0.23162 0.79974 0.0
O48 O -0.01727 0.20572 0.84324 0.0
O49 O 0.00104 0.22906 0.94139 0.0
O50 O 0.95605 0.29749 0.92232 0.0
C51 C 0.94083 0.32921 0.89145 0.0
C52 C 0.09786 0.23668 0.9089 0.0
O53 O 0.9656 0.34709 0.84659 0.0
C54 C 0.08913 0.28484 0.72278 0.0
O55 O 0.03454 0.33859 0.93701 0.0
O56 O 0.06035 0.35668 0.83976 0.0
O57 O 0.07655 0.21605 0.863 0.0
O58 O 0.08023 0.26989 0.93298 0.0
C59 C 0.96222 0.27042 0.71527 0.0
O60 O 0.06209 0.31619 0.73157 0.0
O61 O 0.08146 0.25064 0.75152 0.0
C62 C 0.0575 0.36361 0.90127 0.0
O63 O 0.9683 0.30629 0.74003 0.0
O64 O -0.01129 0.2399 0.7313 0.0
C65 C 0.98122 0.20186 0.90533 0.0
Fe66 Fe 0.51791 0.835 0.80648 0.0
Fe67 Fe 0.52665 0.73732 0.80183 0.0
O68 O 0.52396 0.78564 0.84695 0.0
Fe69 Fe 0.52754 0.78424 0.93543 0.0
O70 O 0.46669 0.80216 0.94157 0.0
O71 O 0.47305 0.85323 0.86709 0.0
O72 O 0.46782 0.818 0.7559 0.0
C73 C 0.45689 0.78367 0.72896 0.0
C74 C 0.56917 0.86391 0.91359 0.0
O75 O 0.48044 0.75075 0.74044 0.0
C76 C 0.60121 0.73401 0.89884 0.0
O77 O 0.56163 0.82329 0.74081 0.0
O78 O 0.57441 0.75534 0.74879 0.0
O79 O 0.54867 0.83746 0.94932 0.0
O80 O 0.56726 0.86007 0.85144 0.0
C81 C 0.48158 0.70652 0.91129 0.0
O82 O 0.57389 0.71627 0.8565 0.0
O83 O 0.58871 0.76652 0.93054 0.0
C84 C 0.58452 0.79056 0.72483 0.0
O85 O 0.4788 0.71281 0.84974 0.0
O86 O 0.50695 0.73045 0.94641 0.0
C87 C 0.45087 0.83497 0.91405 0.0
C88 C 0.068 0.41145 0.99991 0.0
C89 C 0.07192 0.40479 0.93078 0.0
C90 C 0.07409 0.45131 1.02799 0.0
C91 C 0.08469 0.48599 0.9878 0.0
C92 C 0.0905 0.47899 0.91897 0.0
C93 C 0.08436 0.43899 0.89081 0.0
C94 C 0.0861 0.53006 1.01437 0.0
C95 C 0.08763 0.54066 0.07983 0.0
C96 C 0.08321 0.58443 0.10694 0.0
C97 C 0.09248 0.59179 0.17497 0.0
C98 C 0.08426 0.63115 0.20419 0.0
C99 C 0.06626 0.66438 0.1662 0.0
H100 H 0.05817 0.61437 1.01643 0.0
C101 C 0.05857 0.65746 0.09769 0.0
C102 C 0.06672 0.61818 0.06853 0.0
H103 H 0.04459 0.68214 0.06661 0.0
H104 H 0.05839 0.38598 1.03251 0.0
H105 H 0.06839 0.45468 0.08085 0.0
H106 H 0.09853 0.50487 0.88637 0.0
H107 H 0.08746 0.43526 0.83744 0.0
H108 H 0.08526 0.55466 0.97759 0.0
H109 H 0.09187 0.51619 0.11637 0.0
H110 H 0.10505 0.56662 0.20624 0.0
H111 H 0.09047 0.63507 0.25704 0.0
C112 C 0.44593 0.4137 0.10546 0.0
C113 C 0.45293 0.40871 0.17437 0.0
C114 C 0.43942 0.4534 0.07766 0.0
C115 C 0.43989 0.48958 0.11803 0.0
C116 C 0.44409 0.48425 0.18735 0.0
C117 C 0.45052 0.44447 0.21518 0.0
C118 C 0.43839 0.53328 0.09066 0.0
C119 C 0.4409 0.54327 1.02522 0.0
C120 C 0.4455 0.58696 0.99871 0.0
C121 C 0.43918 0.59379 0.93005 0.0
C122 C 0.44824 0.63306 0.90171 0.0
C123 C 0.46425 0.66664 0.94131 0.0
H124 H 0.46606 0.61773 0.09132 0.0
C125 C 0.46879 0.66027 1.01034 0.0
C126 C 0.45973 0.62113 1.03862 0.0
H127 H 0.48118 0.68526 1.04263 0.0
H128 H 0.44721 0.38691 0.07231 0.0
H129 H 0.4352 0.45515 1.02439 0.0
H130 H 0.44418 0.51121 0.22021 0.0
H131 H 0.4559 0.44205 0.26837 0.0
H132 H 0.43689 0.55833 0.12713 0.0
H133 H 0.44105 0.51852 0.98827 0.0
H134 H 0.42841 0.56826 0.89768 0.0
H135 H 0.44454 0.63657 0.84843 0.0
C136 C 0.58569 0.94181 0.9126 0.0
C137 C 0.586 0.90337 0.9462 0.0
C138 C 0.59149 0.97972 0.94778 0.0
C139 C 0.59814 0.98003 1.01753 0.0
C140 C 0.60119 0.94134 1.04994 0.0
C141 C 0.59521 0.90373 1.01502 0.0
C142 C 0.59814 1.01909 0.05971 0.0
C143 C 0.60024 0.05859 1.03626 0.0
C144 C 0.59415 0.09749 0.07789 0.0
C145 C 0.58499 0.13523 1.04493 0.0
C146 C 0.57497 0.17191 0.08042 0.0
C147 C 0.57418 0.17237 0.15039 0.0
H148 H 0.60388 0.07043 0.17618 0.0
C149 C 0.58593 0.1353 0.18395 0.0
C150 C 0.59574 0.09825 0.14821 0.0
H151 H 0.58567 0.13446 0.23777 0.0
H152 H 0.57812 0.94281 0.8598 0.0
H153 H 0.58843 1.00844 0.92019 0.0
H154 H 0.60649 0.94014 0.10329 0.0
H155 H 0.59579 0.8748 1.0427 0.0
H156 H 0.59429 1.01455 0.11279 0.0
H157 H 0.60423 0.06317 0.98321 0.0
H158 H 0.58397 0.13616 0.99109 0.0
H159 H 0.56644 0.19986 0.05269 0.0
C160 C 0.95042 0.9107 0.10976 0.0
C161 C 0.95733 0.90661 0.17885 0.0
C162 C 0.94395 0.95001 0.08064 0.0
C163 C 0.94451 0.98672 0.11975 0.0
C164 C 0.94876 0.98233 0.18926 0.0
C165 C 0.95509 0.94291 0.21845 0.0
C166 C 0.94235 1.02999 0.09077 0.0
C167 C 0.94702 0.03902 1.02519 0.0
C168 C 0.95005 0.08232 0.99667 0.0
C169 C 0.94739 0.0872 0.92713 0.0
C170 C 0.95491 0.12626 0.89736 0.0
C171 C 0.96564 0.16169 0.93632 0.0
H172 H 0.9621 0.11642 0.08922 0.0
C173 C 0.96649 0.1572 1.00601 0.0
C174 C 0.95894 0.11821 1.03578 0.0
H175 H 0.97475 0.18367 1.03786 0.0
H176 H 0.95146 0.88346 0.07756 0.0
H177 H 0.93933 0.95105 1.02736 0.0
H178 H 0.94885 1.00973 0.22117 0.0
H179 H 0.96039 0.94115 0.27172 0.0
H180 H 0.93849 0.05546 0.1261 0.0
H181 H 0.95031 1.01364 0.98963 0.0
H182 H 0.9407 0.06037 0.89533 0.0
H183 H 0.95413 0.12828 0.84363 0.0
C184 C 0.39176 0.74539 0.66433 0.0
C185 C 0.41507 0.78286 0.68246 0.0
C186 C 0.3512 0.74588 0.62251 0.0
C187 C 0.33342 0.78389 0.59734 0.0
C188 C 0.35737 0.821 0.61471 0.0
C189 C 0.39717 0.82058 0.65691 0.0
C190 C 0.29129 0.78697 0.55136 0.0
C191 C 0.25532 0.75872 0.54637 0.0
C192 C 0.21185 0.76432 0.50291 0.0
C193 C 0.1817 0.72988 0.49002 0.0
C194 C 0.14046 0.73394 0.45034 0.0
C195 C 0.12809 0.7727 0.42245 0.0
H196 H 0.21938 0.83119 0.48557 0.0
C197 C 0.15791 0.80722 0.43599 0.0
C198 C 0.19883 0.80324 0.47577 0.0
H199 H 0.14954 0.83773 0.41609 0.0
H200 H 0.4045 0.71575 0.68307 0.0
H201 H 0.33447 0.71648 0.60932 0.0
H202 H 0.34495 0.85076 0.59598 0.0
H203 H 0.41409 0.85009 0.66926 0.0
H204 H 0.2897 0.81511 0.5218 0.0
H205 H 0.25722 0.73042 0.57571 0.0
H206 H 0.19019 0.69955 0.51051 0.0
H207 H 0.11848 0.70661 0.44118 0.0
C208 C 0.15437 0.32485 0.66205 0.0
C209 C 0.1312 0.28698 0.67719 0.0
C210 C 0.19604 0.32515 0.62252 0.0
C211 C 0.21494 0.28753 0.59664 0.0
C212 C 0.19084 0.2501 0.61059 0.0
C213 C 0.15004 0.24974 0.65053 0.0
C214 C 0.25865 0.28501 0.5537 0.0
C215 C 0.29428 0.31366 0.55143 0.0
C216 C 0.33892 0.30788 0.51071 0.0
C217 C 0.36644 0.34293 0.49288 0.0
C218 C 0.40778 0.33859 0.45364 0.0
C219 C 0.42293 0.29893 0.43146 0.0
H220 H 0.33686 0.23993 0.50521 0.0
C221 C 0.39633 0.26379 0.45133 0.0
C222 C 0.35527 0.26811 0.49057 0.0
H223 H 0.40694 0.23265 0.43602 0.0
H224 H 0.14089 0.35411 0.68181 0.0
H225 H 0.21289 0.35479 0.61192 0.0
H226 H 0.20405 0.22064 0.59119 0.0
H227 H 0.13318 0.21995 0.66054 0.0
H228 H 0.26189 0.25684 0.52379 0.0
H229 H 0.29096 0.34236 0.58006 0.0
H230 H 0.3554 0.37395 0.50827 0.0
H231 H 0.42717 0.36642 0.43938 0.0
C232 C 0.89948 0.2999 0.63936 0.0
C233 C 0.92159 0.26467 0.66754 0.0
C234 C 0.85897 0.29588 0.59883 0.0
C235 C 0.83846 0.2564 0.58583 0.0
C236 C 0.86152 0.22097 0.61206 0.0
C237 C 0.90254 0.225 0.65244 0.0
C238 C 0.79397 0.25125 0.5442 0.0
C239 C 0.76237 0.2826 0.53354 0.0
C240 C 0.71893 0.28044 0.48977 0.0
C241 C 0.69947 0.31831 0.46746 0.0
C242 C 0.65847 0.31906 0.42764 0.0
C243 C 0.63483 0.28189 0.40931 0.0
H244 H 0.70882 0.21312 0.48858 0.0
C245 C 0.65383 0.24373 0.432 0.0
C246 C 0.69559 0.24296 0.47156 0.0
H247 H 0.63663 0.21448 0.41892 0.0
H248 H 0.91341 0.33097 0.6488 0.0
H249 H 0.84434 0.32405 0.57756 0.0
H250 H 0.84725 0.19005 0.60232 0.0
H251 H 0.91853 0.19714 0.67318 0.0
H252 H 0.78731 0.22076 0.52213 0.0
H253 H 0.76881 0.31266 0.55708 0.0
H254 H 0.71626 0.34775 0.48069 0.0
H255 H 0.64511 0.34913 0.41163 0.0
C256 C 0.88956 0.76471 0.45598 0.0
C257 C 0.9176 0.7991 0.43671 0.0
C258 C 0.84868 0.77016 0.49496 0.0
C259 C 0.83405 0.81033 0.51538 0.0
C260 C 0.86305 0.8446 0.49844 0.0
C261 C 0.90425 0.83912 0.45935 0.0
C262 C 0.78958 0.81703 0.55558 0.0
C263 C 0.75203 0.79037 0.55348 0.0
C264 C 0.70837 0.79305 0.59612 0.0
C265 C 0.68117 0.75655 0.60425 0.0
C266 C 0.64067 0.75628 0.64471 0.0
C267 C 0.62546 0.79277 0.67768 0.0
H268 H 0.71211 0.85905 0.62191 0.0
C269 C 0.65159 0.82988 0.66805 0.0
C270 C 0.69283 0.83001 0.62795 0.0
H271 H 0.64091 0.85852 0.69283 0.0
H272 H 0.89892 0.7333 0.44044 0.0
H273 H 0.82896 0.74257 0.50926 0.0
H274 H 0.85325 0.87585 0.51427 0.0
H275 H 0.92492 0.86635 0.4456 0.0
H276 H 0.78811 0.84452 0.58737 0.0
H277 H 0.75369 0.76367 0.52002 0.0
H278 H 0.69182 0.72766 0.58012 0.0
H279 H 0.6214 0.72716 0.65052 0.0
C280 C 0.39493 0.84727 1.00757 0.0
C281 C 0.40753 0.85439 0.94122 0.0
C282 C 0.35243 0.86315 1.03286 0.0
C283 C 0.3214 0.88633 0.99208 0.0
C284 C 0.33469 0.89454 0.92622 0.0
C285 C 0.37781 0.87911 0.90111 0.0
C286 C 0.27206 0.89542 1.01388 0.0
C287 C 0.26037 0.89794 0.07851 0.0
C288 C 0.21274 0.88568 0.1033 0.0
C289 C 0.19892 0.89811 0.16739 0.0
C290 C 0.15813 0.8811 0.1966 0.0
C291 C 0.13104 0.85075 0.1625 0.0
H292 H 0.19498 0.84469 1.01991 0.0
C293 C 0.14433 0.83894 0.09786 0.0
C294 C 0.18467 0.85624 0.06849 0.0
H295 H 0.12398 0.81583 0.07016 0.0
H296 H 0.41745 0.8286 1.0397 0.0
H297 H 0.34287 0.85493 0.08322 0.0
H298 H 0.31097 0.91168 0.8936 0.0
H299 H 0.38688 0.88497 0.84966 0.0
H300 H 0.24412 0.89412 0.97625 0.0
H301 H 0.28809 0.90365 0.11546 0.0
H302 H 0.22047 0.92014 0.19561 0.0
H303 H 0.14864 0.89082 0.24654 0.0
C304 C 0.15678 0.23808 1.00134 0.0
C305 C 0.13972 0.21865 0.94314 0.0
C306 C 0.19389 0.22052 1.03736 0.0
C307 C 0.21522 0.18303 1.01627 0.0
C308 C 0.19961 0.16409 0.95696 0.0
C309 C 0.16159 0.1815 0.92094 0.0
C310 C 0.25703 0.16681 0.05298 0.0
C311 C 0.25932 0.17088 0.11952 0.0
C312 C 0.30472 0.18181 0.15259 0.0
C313 C 0.30493 0.21672 0.19523 0.0
C314 C 0.34804 0.23421 0.21632 0.0
C315 C 0.3913 0.21614 0.19674 0.0
H316 H 0.34875 0.13536 0.10317 0.0
C317 C 0.39134 0.17942 0.15829 0.0
C318 C 0.34815 0.16248 0.13564 0.0
H319 H 0.42475 0.16514 0.14312 0.0
H320 H 0.14126 0.26689 1.01982 0.0
H321 H 0.20656 0.23703 0.08119 0.0
H322 H 0.21649 0.13576 0.93894 0.0
H323 H 0.14936 0.16595 0.87604 0.0
H324 H 0.28888 0.15964 1.02424 0.0
H325 H 0.22668 0.17804 0.14667 0.0
H326 H 0.2718 0.23218 0.20858 0.0
H327 H 0.34766 0.26246 0.24634 0.0
C328 C 0.63444 0.34816 0.07773 0.0
C329 C 0.62545 0.35824 0.14454 0.0
C330 C 0.67372 0.36504 1.0451 0.0
C331 C 0.70514 0.39233 0.07876 0.0
C332 C 0.69499 0.40379 0.14474 0.0
C333 C 0.65521 0.38719 0.17727 0.0
C334 C 0.75275 0.40239 0.05101 0.0
C335 C 0.76342 0.39755 0.98623 0.0
C336 C 0.81189 0.38515 0.96441 0.0
C337 C 0.82647 0.39243 0.89873 0.0
C338 C 0.86912 0.3751 0.87481 0.0
C339 C 0.8969 0.34929 0.91586 0.0
H340 H 0.82992 0.35265 0.05589 0.0
C341 C 0.88254 0.34256 0.9817 0.0
C342 C 0.84069 0.36032 1.00576 0.0
H343 H 0.90342 0.32311 1.01475 0.0
H344 H 0.61176 0.32635 0.05088 0.0
H345 H 0.6807 0.35438 0.99493 0.0
H346 H 0.71898 0.42427 0.17207 0.0
H347 H 0.64895 0.39566 0.22875 0.0
H348 H 0.78153 0.40755 0.0866 0.0
H349 H 0.73514 0.39679 0.94913 0.0
H350 H 0.80436 0.41077 0.8656 0.0
H351 H 0.87954 0.38074 0.8238 0.0
C352 C 0.84522 0.74288 0.19967 0.0
C353 C 0.8872 0.71923 0.1954 0.0
C354 C 0.80271 0.72739 0.17288 0.0
C355 C 0.80222 0.68883 0.1394 0.0
C356 C 0.84384 0.66434 0.13748 0.0
C357 C 0.88609 0.67929 0.16627 0.0
C358 C 0.75959 0.67772 0.10011 0.0
C359 C 0.76326 0.67067 1.03435 0.0
C360 C 0.7221 0.67883 0.99038 0.0
C361 C 0.72841 0.70577 0.93627 0.0
C362 C 0.68872 0.72238 0.90354 0.0
C363 C 0.64259 0.71125 0.92366 0.0
H364 H 0.67024 0.64446 1.04851 0.0
C365 C 0.63623 0.68164 0.9739 0.0
C366 C 0.67583 0.66554 1.00732 0.0
H367 H 0.6006 0.67285 0.98977 0.0
H368 H 0.84566 0.77376 0.2221 0.0
H369 H 0.77092 0.74674 0.17449 0.0
H370 H 0.844 0.63446 0.11187 0.0
H371 H 0.91843 0.66079 0.16241 0.0
H372 H 0.72493 0.68519 0.12155 0.0
H373 H 0.79851 0.66848 1.01179 0.0
H374 H 0.76383 0.71646 0.92268 0.0
H375 H 0.69394 0.74535 0.86486 0.0
loop_
_geom_bond_atom_site_label_1
_geom_bond_atom_site_label_2
_geom_bond_distance
_geom_bond_site_symmetry_2
_ccdc_geom_bond_type
Fe0 O2 1.918 . S
Fe0 O5 1.997 . S
Fe0 O6 2.002 . S
Fe0 O11 1.976 . S
Fe0 O14 1.996 . S
Fe1 O2 1.918 1_655 S
Fe1 O9 1.997 1_655 S
Fe1 O12 1.996 . S
Fe1 O16 1.976 . S
Fe1 O19 2.002 1_655 S
O2 Fe0 1.918 . S
O2 Fe1 1.918 1_455 S
O2 Fe3 1.918 . S
Fe3 O2 1.918 . S
Fe3 O4 2.002 . S
Fe3 O13 1.976 . S
Fe3 O17 1.996 1_455 S
Fe3 O20 1.997 . S
O4 Fe3 2.002 . S
O4 C21 1.295 . S
O5 Fe0 1.997 . S
O5 C21 1.235 . S
O6 Fe0 2.002 . S
O6 C7 1.295 . S
C7 O6 1.295 . S
C7 O9 1.235 . S
C8 O13 1.287 . S
C8 O14 1.255 . S
O9 Fe1 1.997 1_455 S
O9 C7 1.235 . S
C10 O16 1.287 . S
C10 O17 1.255 . S
O11 Fe0 1.976 . S
O11 C18 1.287 1_455 S
O12 Fe1 1.996 . S
O12 C18 1.255 . S
O13 Fe3 1.976 . S
O13 C8 1.287 . S
O14 Fe0 1.996 . S
O14 C8 1.255 . S
C15 O19 1.295 . S
C15 O20 1.235 . S
O16 Fe1 1.976 . S
O16 C10 1.287 . S
O17 Fe3 1.996 1_655 S
O17 C10 1.255 . S
C18 O11 1.287 1_655 S
C18 O12 1.255 . S
O19 Fe1 2.002 1_455 S
O19 C15 1.295 . S
O20 Fe3 1.997 . S
O20 C15 1.235 . S
C21 O4 1.295 . S
C21 O5 1.235 . S
Fe22 O24 1.918 . S
Fe22 O27 1.997 . S
Fe22 O28 2.002 . S
Fe22 O33 1.976 . S
Fe22 O36 1.996 . S
Fe23 O24 1.918 . S
Fe23 O31 1.997 . S
Fe23 O34 1.996 . S
Fe23 O38 1.976 . S
Fe23 O41 2.002 . S
O24 Fe22 1.918 . S
O24 Fe23 1.918 . S
O24 Fe25 1.918 . S
Fe25 O24 1.918 . S
Fe25 O26 2.002 . S
Fe25 O35 1.976 . S
Fe25 O39 1.996 . S
Fe25 O42 1.997 . S
O26 Fe25 2.002 . S
O26 C43 1.295 . S
O27 Fe22 1.997 . S
O27 C43 1.235 . S
O28 Fe22 2.002 . S
O28 C29 1.295 . S
C29 O28 1.295 . S
C29 O31 1.235 . S
C30 O35 1.287 . S
C30 O36 1.255 . S
O31 Fe23 1.997 . S
O31 C29 1.235 . S
C32 O38 1.287 . S
C32 O39 1.255 . S
O33 Fe22 1.976 . S
O33 C40 1.287 . S
O34 Fe23 1.996 . S
O34 C40 1.255 . S
O35 Fe25 1.976 . S
O35 C30 1.287 . S
O36 Fe22 1.996 . S
O36 C30 1.255 . S
C37 O41 1.295 . S
C37 O42 1.235 . S
O38 Fe23 1.976 . S
O38 C32 1.287 . S
O39 Fe25 1.996 . S
O39 C32 1.255 . S
C40 O33 1.287 . S
C40 O34 1.255 . S
O41 Fe23 2.002 . S
O41 C37 1.295 . S
O42 Fe25 1.997 . S
O42 C37 1.235 . S
C43 O26 1.295 . S
C43 O27 1.235 . S
Fe44 O46 1.918 . S
Fe44 O49 1.997 . S
Fe44 O50 2.002 1_455 S
Fe44 O55 1.976 . S
Fe44 O58 1.996 . S
Fe45 O46 1.918 . S
Fe45 O53 1.997 1_455 S
Fe45 O56 1.996 . S
Fe45 O60 1.976 . S
Fe45 O63 2.002 1_455 S
O46 Fe44 1.918 . S
O46 Fe45 1.918 . S
O46 Fe47 1.918 . S
Fe47 O46 1.918 . S
Fe47 O48 2.002 . S
Fe47 O57 1.976 . S
Fe47 O61 1.996 . S
Fe47 O64 1.997 . S
O48 Fe47 2.002 . S
O48 C65 1.295 . S
O49 Fe44 1.997 . S
O49 C65 1.235 . S
O50 Fe44 2.002 1_655 S
O50 C51 1.295 . S
C51 O50 1.295 . S
C51 O53 1.235 . S
C52 O57 1.287 . S
C52 O58 1.255 . S
O53 Fe45 1.997 1_655 S
O53 C51 1.235 . S
C54 O60 1.287 . S
C54 O61 1.255 . S
O55 Fe44 1.976 . S
O55 C62 1.287 . S
O56 Fe45 1.996 . S
O56 C62 1.255 . S
O57 Fe47 1.976 . S
O57 C52 1.287 . S
O58 Fe44 1.996 . S
O58 C52 1.255 . S
C59 O63 1.295 . S
C59 O64 1.235 1_655 S
O60 Fe45 1.976 . S
O60 C54 1.287 . S
O61 Fe47 1.996 . S
O61 C54 1.255 . S
C62 O55 1.287 . S
C62 O56 1.255 . S
O63 Fe45 2.002 1_655 S
O63 C59 1.295 . S
O64 Fe47 1.997 . S
O64 C59 1.235 1_455 S
C65 O48 1.295 . S
C65 O49 1.235 . S
Fe66 O68 1.918 . S
Fe66 O71 1.997 . S
Fe66 O72 2.002 . S
Fe66 O77 1.976 . S
Fe66 O80 1.996 . S
Fe67 O68 1.918 . S
Fe67 O75 1.997 . S
Fe67 O78 1.996 . S
Fe67 O82 1.976 . S
Fe67 O85 2.002 . S
O68 Fe66 1.918 . S
O68 Fe67 1.918 . S
O68 Fe69 1.918 . S
Fe69 O68 1.918 . S
Fe69 O70 2.002 . S
Fe69 O79 1.976 . S
Fe69 O83 1.996 . S
Fe69 O86 1.997 . S
O70 Fe69 2.002 . S
O70 C87 1.295 . S
O71 Fe66 1.997 . S
O71 C87 1.235 . S
O72 Fe66 2.002 . S
O72 C73 1.295 . S
C73 O72 1.295 . S
C73 O75 1.235 . S
C74 O79 1.287 . S
C74 O80 1.255 . S
O75 Fe67 1.997 . S
O75 C73 1.235 . S
C76 O82 1.287 . S
C76 O83 1.255 . S
O77 Fe66 1.976 . S
O77 C84 1.287 . S
O78 Fe67 1.996 . S
O78 C84 1.255 . S
O79 Fe69 1.976 . S
O79 C74 1.287 . S
O80 Fe66 1.996 . S
O80 C74 1.255 . S
C81 O85 1.295 . S
C81 O86 1.235 . S
O82 Fe67 1.976 . S
O82 C76 1.287 . S
O83 Fe69 1.996 . S
O83 C76 1.255 . S
C84 O77 1.287 . S
C84 O78 1.255 . S
O85 Fe67 2.002 . S
O85 C81 1.295 . S
O86 Fe69 1.997 . S
O86 C81 1.235 . S
C87 O70 1.295 . S
C87 O71 1.235 . S
C88 C89 1.386 . S
C88 C90 1.383 . S
C88 H104 0.951 . S
C89 C88 1.386 . S
C89 C93 1.383 . S
C90 C88 1.383 . S
C90 C91 1.402 . S
C90 H105 0.951 1_556 S
C91 C90 1.402 . S
C91 C92 1.375 . S
C91 C94 1.481 . S
C92 C91 1.375 . S
C92 C93 1.367 . S
C92 H106 0.950 1_455 S
C93 C89 1.383 . S
C93 C92 1.367 . S
C93 H107 0.950 . S
C94 C91 1.481 . S
C94 C95 1.297 1_556 S
C94 H108 0.950 . S
C95 C94 1.297 1_554 S
C95 C96 1.479 . S
C95 H109 0.950 . S
C96 C95 1.479 . S
C96 C97 1.375 . S
C96 C102 1.404 . S
C97 C96 1.375 . S
C97 C98 1.369 . S
C97 H110 0.950 . S
C98 C97 1.369 . S
C98 C99 1.392 . S
C98 H111 0.951 . S
C99 C98 1.392 . S
C99 C101 1.384 . S
H100 C102 0.949 1_556 S
C101 C99 1.384 . S
C101 C102 1.385 . S
C101 H103 0.950 . S
C102 C96 1.404 . S
C102 H100 0.949 1_554 S
C102 C101 1.385 . S
H103 C101 0.950 . S
H104 C88 0.951 . S
H105 C90 0.951 1_554 S
H106 C92 0.950 1_655 S
H107 C93 0.950 . S
H108 C94 0.950 . S
H109 C95 0.950 . S
H110 C97 0.950 . S
H111 C98 0.951 . S
C112 C113 1.386 . S
C112 C114 1.383 . S
C112 H128 0.951 . S
C113 C112 1.386 . S
C113 C117 1.383 . S
C114 C112 1.383 . S
C114 C115 1.402 . S
C114 H129 0.951 1_554 S
C115 C114 1.402 . S
C115 C116 1.375 . S
C115 C118 1.481 . S
C116 C115 1.375 . S
C116 C117 1.367 . S
C116 H130 0.951 . S
C117 C113 1.383 . S
C117 C116 1.367 . S
C117 H131 0.950 . S
C118 C115 1.481 . S
C118 C119 1.297 1_554 S
C118 H132 0.950 . S
C119 C118 1.297 1_556 S
C119 C120 1.479 . S
C119 H133 0.950 . S
C120 C119 1.479 . S
C120 C121 1.375 . S
C120 C126 1.404 . S
C121 C120 1.375 . S
C121 C122 1.369 . S
C121 H134 0.950 . S
C122 C121 1.369 . S
C122 C123 1.392 . S
C122 H135 0.951 . S
C123 C122 1.392 . S
C123 C125 1.384 . S
H124 C126 0.949 1_554 S
C125 C123 1.384 . S
C125 C126 1.385 . S
C125 H127 0.950 . S
C126 C120 1.404 . S
C126 H124 0.949 1_556 S
C126 C125 1.385 . S
H127 C125 0.950 . S
H128 C112 0.951 . S
H129 C114 0.951 1_556 S
H130 C116 0.951 . S
H131 C117 0.950 . S
H132 C118 0.950 . S
H133 C119 0.950 . S
H134 C121 0.950 . S
H135 C122 0.951 . S
C136 C137 1.386 . S
C136 C138 1.383 . S
C136 H152 0.951 . S
C137 C136 1.386 . S
C137 C141 1.383 . S
C138 C136 1.383 . S
C138 C139 1.402 . S
C138 H153 0.951 . S
C139 C138 1.402 . S
C139 C140 1.375 1_556 S
C139 C142 1.481 1_556 S
C140 C139 1.375 1_554 S
C140 C141 1.367 1_554 S
C140 H154 0.951 . S
C141 C137 1.383 . S
C141 C140 1.367 1_556 S
C141 H155 0.950 . S
C142 C139 1.481 1_554 S
C142 C143 1.297 1_565 S
C142 H156 0.950 . S
C143 C142 1.297 1_545 S
C143 C144 1.479 . S
C143 H157 0.950 1_554 S
C144 C143 1.479 . S
C144 C145 1.375 . S
C144 C150 1.404 . S
C145 C144 1.375 . S
C145 C146 1.369 . S
C145 H158 0.950 1_554 S
C146 C145 1.369 . S
C146 C147 1.392 . S
C146 H159 0.951 . S
C147 C146 1.392 . S
C147 C149 1.384 . S
H148 C150 0.949 . S
C149 C147 1.384 . S
C149 C150 1.385 . S
C149 H151 0.950 . S
C150 C144 1.404 . S
C150 H148 0.949 . S
C150 C149 1.385 . S
H151 C149 0.950 . S
H152 C136 0.951 . S
H153 C138 0.951 . S
H154 C140 0.951 . S
H155 C141 0.950 . S
H156 C142 0.950 . S
H157 C143 0.950 1_556 S
H158 C145 0.950 1_556 S
H159 C146 0.951 . S
C160 C161 1.386 . S
C160 C162 1.383 . S
C160 H176 0.951 . S
C161 C160 1.386 . S
C161 C165 1.383 . S
C162 C160 1.383 . S
C162 C163 1.402 . S
C162 H177 0.951 1_554 S
C163 C162 1.402 . S
C163 C164 1.375 . S
C163 C166 1.481 . S
C164 C163 1.375 . S
C164 C165 1.367 . S
C164 H178 0.951 . S
C165 C161 1.383 . S
C165 C164 1.367 . S
C165 H179 0.950 . S
C166 C163 1.481 . S
C166 C167 1.297 1_564 S
C166 H180 0.950 1_565 S
C167 C166 1.297 1_546 S
C167 C168 1.479 . S
C167 H181 0.950 1_445 S
C168 C167 1.479 . S
C168 C169 1.375 . S
C168 C174 1.404 . S
C169 C168 1.375 . S
C169 C170 1.369 . S
C169 H182 0.950 1_455 S
C170 C169 1.369 . S
C170 C171 1.392 . S
C170 H183 0.951 . S
C171 C170 1.392 . S
C171 C173 1.384 . S
H172 C174 0.949 1_554 S
C173 C171 1.384 . S
C173 C174 1.385 . S
C173 H175 0.950 . S
C174 C168 1.404 . S
C174 H172 0.949 1_556 S
C174 C173 1.385 . S
H175 C173 0.950 . S
H176 C160 0.951 . S
H177 C162 0.951 1_556 S
H178 C164 0.951 . S
H179 C165 0.950 . S
H180 C166 0.950 1_545 S
H181 C167 0.950 1_665 S
H182 C169 0.950 1_655 S
H183 C170 0.951 . S
C184 C185 1.386 . S
C184 C186 1.383 . S
C184 H200 0.951 . S
C185 C184 1.386 . S
C185 C189 1.383 . S
C186 C184 1.383 . S
C186 C187 1.402 . S
C186 H201 0.951 . S
C187 C186 1.402 . S
C187 C188 1.375 . S
C187 C190 1.481 . S
C188 C187 1.375 . S
C188 C189 1.367 . S
C188 H202 0.951 . S
C189 C185 1.383 . S
C189 C188 1.367 . S
C189 H203 0.950 . S
C190 C187 1.481 . S
C190 C191 1.297 . S
C190 H204 0.950 . S
C191 C190 1.297 . S
C191 C192 1.479 . S
C191 H205 0.950 . S
C192 C191 1.479 . S
C192 C193 1.375 . S
C192 C198 1.404 . S
C193 C192 1.375 . S
C193 C194 1.369 . S
C193 H206 0.950 . S
C194 C193 1.369 . S
C194 C195 1.392 . S
C194 H207 0.951 . S
C195 C194 1.392 . S
C195 C197 1.384 . S
H196 C198 0.949 . S
C197 C195 1.384 . S
C197 C198 1.385 . S
C197 H199 0.950 . S
C198 C192 1.404 . S
C198 H196 0.949 . S
C198 C197 1.385 . S
H199 C197 0.950 . S
H200 C184 0.951 . S
H201 C186 0.951 . S
H202 C188 0.951 . S
H203 C189 0.950 . S
H204 C190 0.950 . S
H205 C191 0.950 . S
H206 C193 0.950 . S
H207 C194 0.951 . S
C208 C209 1.386 . S
C208 C210 1.383 . S
C208 H224 0.951 . S
C209 C208 1.386 . S
C209 C213 1.383 . S
C210 C208 1.383 . S
C210 C211 1.402 . S
C210 H225 0.951 . S
C211 C210 1.402 . S
C211 C212 1.375 . S
C211 C214 1.481 . S
C212 C211 1.375 . S
C212 C213 1.367 . S
C212 H226 0.951 . S
C213 C209 1.383 . S
C213 C212 1.367 . S
C213 H227 0.950 . S
C214 C211 1.481 . S
C214 C215 1.297 . S
C214 H228 0.950 . S
C215 C214 1.297 . S
C215 C216 1.479 . S
C215 H229 0.950 . S
C216 C215 1.479 . S
C216 C217 1.375 . S
C216 C222 1.404 . S
C217 C216 1.375 . S
C217 C218 1.369 . S
C217 H230 0.950 . S
C218 C217 1.369 . S
C218 C219 1.392 . S
C218 H231 0.951 . S
C219 C218 1.392 . S
C219 C221 1.384 . S
H220 C222 0.949 . S
C221 C219 1.384 . S
C221 C222 1.385 . S
C221 H223 0.950 . S
C222 C216 1.404 . S
C222 H220 0.949 . S
C222 C221 1.385 . S
H223 C221 0.950 . S
H224 C208 0.951 . S
H225 C210 0.951 . S
H226 C212 0.951 . S
H227 C213 0.950 . S
H228 C214 0.950 . S
H229 C215 0.950 . S
H230 C217 0.950 . S
H231 C218 0.951 . S
C232 C233 1.386 . S
C232 C234 1.383 . S
C232 H248 0.951 . S
C233 C232 1.386 . S
C233 C237 1.383 . S
C234 C232 1.383 . S
C234 C235 1.402 . S
C234 H249 0.951 . S
C235 C234 1.402 . S
C235 C236 1.375 . S
C235 C238 1.481 . S
C236 C235 1.375 . S
C236 C237 1.367 . S
C236 H250 0.951 . S
C237 C233 1.383 . S
C237 C236 1.367 . S
C237 H251 0.950 . S
C238 C235 1.481 . S
C238 C239 1.297 . S
C238 H252 0.950 . S
C239 C238 1.297 . S
C239 C240 1.479 . S
C239 H253 0.950 . S
C240 C239 1.479 . S
C240 C241 1.375 . S
C240 C246 1.404 . S
C241 C240 1.375 . S
C241 C242 1.369 . S
C241 H254 0.950 . S
C242 C241 1.369 . S
C242 C243 1.392 . S
C242 H255 0.951 . S
C243 C242 1.392 . S
C243 C245 1.384 . S
H244 C246 0.949 . S
C245 C243 1.384 . S
C245 C246 1.385 . S
C245 H247 0.950 . S
C246 C240 1.404 . S
C246 H244 0.949 . S
C246 C245 1.385 . S
H247 C245 0.950 . S
H248 C232 0.951 . S
H249 C234 0.951 . S
H250 C236 0.951 . S
H251 C237 0.950 . S
H252 C238 0.950 . S
H253 C239 0.950 . S
H254 C241 0.950 . S
H255 C242 0.951 . S
C256 C257 1.386 . S
C256 C258 1.383 . S
C256 H272 0.951 . S
C257 C256 1.386 . S
C257 C261 1.383 . S
C258 C256 1.383 . S
C258 C259 1.402 . S
C258 H273 0.951 . S
C259 C258 1.402 . S
C259 C260 1.375 . S
C259 C262 1.481 . S
C260 C259 1.375 . S
C260 C261 1.367 . S
C260 H274 0.951 . S
C261 C257 1.383 . S
C261 C260 1.367 . S
C261 H275 0.950 . S
C262 C259 1.481 . S
C262 C263 1.297 . S
C262 H276 0.950 . S
C263 C262 1.297 . S
C263 C264 1.479 . S
C263 H277 0.950 . S
C264 C263 1.479 . S
C264 C265 1.375 . S
C264 C270 1.404 . S
C265 C264 1.375 . S
C265 C266 1.369 . S
C265 H278 0.950 . S
C266 C265 1.369 . S
C266 C267 1.392 . S
C266 H279 0.951 . S
C267 C266 1.392 . S
C267 C269 1.384 . S
H268 C270 0.949 . S
C269 C267 1.384 . S
C269 C270 1.385 . S
C269 H271 0.950 . S
C270 C264 1.404 . S
C270 H268 0.949 . S
C270 C269 1.385 . S
H271 C269 0.950 . S
H272 C256 0.951 . S
H273 C258 0.951 . S
H274 C260 0.951 . S
H275 C261 0.950 . S
H276 C262 0.950 . S
H277 C263 0.950 . S
H278 C265 0.950 . S
H279 C266 0.951 . S
C280 C281 1.386 . S
C280 C282 1.383 . S
C280 H296 0.951 . S
C281 C280 1.386 . S
C281 C285 1.383 . S
C282 C280 1.383 . S
C282 C283 1.402 . S
C282 H297 0.951 . S
C283 C282 1.402 . S
C283 C284 1.375 . S
C283 C286 1.481 . S
C284 C283 1.375 . S
C284 C285 1.367 . S
C284 H298 0.951 . S
C285 C281 1.383 . S
C285 C284 1.367 . S
C285 H299 0.950 . S
C286 C283 1.481 . S
C286 C287 1.297 . S
C286 H300 0.950 . S
C287 C286 1.297 . S
C287 C288 1.479 1_556 S
C287 H301 0.950 . S
C288 C287 1.479 1_554 S
C288 C289 1.375 . S
C288 C294 1.404 . S
C289 C288 1.375 . S
C289 C290 1.369 . S
C289 H302 0.950 . S
C290 C289 1.369 . S
C290 C291 1.392 . S
C290 H303 0.951 . S
C291 C290 1.392 . S
C291 C293 1.384 . S
H292 C294 0.949 . S
C293 C291 1.384 . S
C293 C294 1.385 . S
C293 H295 0.950 . S
C294 C288 1.404 . S
C294 H292 0.949 . S
C294 C293 1.385 . S
H295 C293 0.950 . S
H296 C280 0.951 . S
H297 C282 0.951 . S
H298 C284 0.951 . S
H299 C285 0.950 . S
H300 C286 0.950 . S
H301 C287 0.950 . S
H302 C289 0.950 . S
H303 C290 0.951 . S
C304 C305 1.386 . S
C304 C306 1.383 . S
C304 H320 0.951 . S
C305 C304 1.386 . S
C305 C309 1.383 . S
C306 C304 1.383 . S
C306 C307 1.402 . S
C306 H321 0.951 . S
C307 C306 1.402 . S
C307 C308 1.375 . S
C307 C310 1.481 1_556 S
C308 C307 1.375 . S
C308 C309 1.367 . S
C308 H322 0.951 1_556 S
C309 C305 1.383 . S
C309 C308 1.367 . S
C309 H323 0.950 . S
C310 C307 1.481 1_554 S
C310 C311 1.297 . S
C310 H324 0.950 . S
C311 C310 1.297 . S
C311 C312 1.479 . S
C311 H325 0.950 1_554 S
C312 C311 1.479 . S
C312 C313 1.375 . S
C312 C318 1.404 . S
C313 C312 1.375 . S
C313 C314 1.369 . S
C313 H326 0.950 . S
C314 C313 1.369 . S
C314 C315 1.392 . S
C314 H327 0.951 . S
C315 C314 1.392 . S
C315 C317 1.384 . S
H316 C318 0.949 . S
C317 C315 1.384 . S
C317 C318 1.385 . S
C317 H319 0.950 . S
C318 C312 1.404 . S
C318 H316 0.949 . S
C318 C317 1.385 . S
H319 C317 0.950 . S
H320 C304 0.951 . S
H321 C306 0.951 . S
H322 C308 0.951 1_554 S
H323 C309 0.950 . S
H324 C310 0.950 . S
H325 C311 0.950 1_556 S
H326 C313 0.950 . S
H327 C314 0.951 . S
C328 C329 1.386 . S
C328 C330 1.383 . S
C328 H344 0.951 . S
C329 C328 1.386 . S
C329 C333 1.383 . S
C330 C328 1.383 . S
C330 C331 1.402 . S
C330 H345 0.951 . S
C331 C330 1.402 . S
C331 C332 1.375 . S
C331 C334 1.481 . S
C332 C331 1.375 . S
C332 C333 1.367 . S
C332 H346 0.951 . S
C333 C329 1.383 . S
C333 C332 1.367 . S
C333 H347 0.950 . S
C334 C331 1.481 . S
C334 C335 1.297 . S
C334 H348 0.950 1_554 S
C335 C334 1.297 . S
C335 C336 1.479 1_554 S
C335 H349 0.950 . S
C336 C335 1.479 1_556 S
C336 C337 1.375 . S
C336 C342 1.404 . S
C337 C336 1.375 . S
C337 C338 1.369 . S
C337 H350 0.950 1_556 S
C338 C337 1.369 . S
C338 C339 1.392 . S
C338 H351 0.951 . S
C339 C338 1.392 . S
C339 C341 1.384 . S
H340 C342 0.949 . S
C341 C339 1.384 . S
C341 C342 1.385 . S
C341 H343 0.950 . S
C342 C336 1.404 . S
C342 H340 0.949 . S
C342 C341 1.385 . S
H343 C341 0.950 . S
H344 C328 0.951 . S
H345 C330 0.951 . S
H346 C332 0.951 . S
H347 C333 0.950 . S
H348 C334 0.950 1_556 S
H349 C335 0.950 . S
H350 C337 0.950 1_554 S
H351 C338 0.951 . S
C352 C353 1.386 . S
C352 C354 1.383 . S
C352 H368 0.951 . S
C353 C352 1.386 . S
C353 C357 1.383 . S
C354 C352 1.383 . S
C354 C355 1.402 . S
C354 H369 0.951 . S
C355 C354 1.402 . S
C355 C356 1.375 . S
C355 C358 1.481 1_554 S
C356 C355 1.375 . S
C356 C357 1.367 . S
C356 H370 0.951 . S
C357 C353 1.383 . S
C357 C356 1.367 . S
C357 H371 0.950 . S
C358 C355 1.481 1_556 S
C358 C359 1.297 . S
C358 H372 0.950 . S
C359 C358 1.297 . S
C359 C360 1.479 . S
C359 H373 0.950 . S
C360 C359 1.479 . S
C360 C361 1.375 . S
C360 C366 1.404 . S
C361 C360 1.375 . S
C361 C362 1.369 . S
C361 H374 0.950 . S
C362 C361 1.369 . S
C362 C363 1.392 . S
C362 H375 0.951 . S
C363 C362 1.392 . S
C363 C365 1.384 . S
H364 C366 0.949 . S
C365 C363 1.384 . S
C365 C366 1.385 . S
C365 H367 0.950 . S
C366 C360 1.404 . S
C366 H364 0.949 . S
C366 C365 1.385 . S
H367 C365 0.950 . S
H368 C352 0.951 . S
H369 C354 0.951 . S
H370 C356 0.951 . S
H371 C357 0.950 . S
H372 C358 0.950 . S
H373 C359 0.950 . S
H374 C361 0.950 . S
H375 C362 0.951 . S
C89 C62 1.597 . S
C99 C15 1.589 . S
C113 C40 1.601 . S
C123 C81 1.597 . S
C137 C74 1.591 . S
C147 C43 1.547 . S
C161 C8 1.602 . S
C171 C65 1.599 . S
C185 C73 2.237 . S
C195 C7 2.234 . S
C209 C54 2.168 . S
C219 C32 2.192 . S
C233 C59 2.270 . S
C243 C37 2.235 . S
C257 C18 2.204 . S
C267 C84 2.158 . S
C281 C87 0.378 . S
C291 C21 0.137 . S
C305 C52 0.146 . S
C315 C30 0.336 . S
C329 C29 0.321 . S
C339 C51 0.200 . S
C353 C10 0.215 . S
C363 C76 0.408 . S
