# Generated by pormake.
# Topology msp, (4)-cn, num edge types: 1
# Building blocks:
#     Node 0, Type 0, BuildingBlock: ESEHIV_clean_sbu_0, # of connection points: 4
#     Node 1, Type 0, BuildingBlock: ESEHIV_clean_sbu_0, # of connection points: 4
#     Node 2, Type 0, BuildingBlock: ESEHIV_clean_sbu_0, # of connection points: 4
#     Node 3, Type 0, BuildingBlock: ESEHIV_clean_sbu_0, # of connection points: 4
#     Node 4, Type 0, BuildingBlock: ESEHIV_clean_sbu_0, # of connection points: 4
#     Node 5, Type 0, BuildingBlock: ESEHIV_clean_sbu_0, # of connection points: 4
#     Node 6, Type 0, BuildingBlock: ESEHIV_clean_sbu_0, # of connection points: 4
#     Node 7, Type 0, BuildingBlock: ESEHIV_clean_sbu_0, # of connection points: 4
#     Edge 8, Type (0, 0), BuildingBlock: UVAHIK_clean_linker_0, # of connection points: 2
#     Edge 9, Type (0, 0), BuildingBlock: UVAHIK_clean_linker_0, # of connection points: 2
#     Edge 10, Type (0, 0), BuildingBlock: UVAHIK_clean_linker_0, # of connection points: 2
#     Edge 11, Type (0, 0), BuildingBlock: UVAHIK_clean_linker_0, # of connection points: 2
#     Edge 12, Type (0, 0), BuildingBlock: UVAHIK_clean_linker_0, # of connection points: 2
#     Edge 13, Type (0, 0), BuildingBlock: UVAHIK_clean_linker_0, # of connection points: 2
#     Edge 14, Type (0, 0), BuildingBlock: UVAHIK_clean_linker_0, # of connection points: 2
#     Edge 15, Type (0, 0), BuildingBlock: UVAHIK_clean_linker_0, # of connection points: 2
#     Edge 16, Type (0, 0), BuildingBlock: UVAHIK_clean_linker_0, # of connection points: 2
#     Edge 17, Type (0, 0), BuildingBlock: UVAHIK_clean_linker_0, # of connection points: 2
#     Edge 18, Type (0, 0), BuildingBlock: UVAHIK_clean_linker_0, # of connection points: 2
#     Edge 19, Type (0, 0), BuildingBlock: UVAHIK_clean_linker_0, # of connection points: 2
#     Edge 20, Type (0, 0), BuildingBlock: UVAHIK_clean_linker_0, # of connection points: 2
#     Edge 21, Type (0, 0), BuildingBlock: UVAHIK_clean_linker_0, # of connection points: 2
#     Edge 22, Type (0, 0), BuildingBlock: UVAHIK_clean_linker_0, # of connection points: 2
#     Edge 23, Type (0, 0), BuildingBlock: UVAHIK_clean_linker_0, # of connection points: 2
# Relax obj value: 0.063
# Max RMSD: 0.171
# Mean RMSD: 0.156
data_MOF--net-msp--node1-ESEHIV_clean_sbu_0--edge1-UVAHIK_clean_linker_0
_symmetry_space_group_name_H-M    P1
_symmetry_Int_Tables_number       1
_symmetry_cell_setting            triclinic
loop_
_symmetry_equiv_pos_as_xyz
'x, y, z'
_cell_length_a     28.928288
_cell_length_b     27.988698
_cell_length_c     63.285087
_cell_angle_alpha  89.915158
_cell_angle_beta   98.732086
_cell_angle_gamma 90.177404
loop_
_atom_site_label
_atom_site_type_symbol
_atom_site_fract_x
_atom_site_fract_y
_atom_site_fract_z
_atom_type_partial_charge
Cu0 Cu 0.02309 0.2965 0.36992 0.0
N1 N 0.05494 0.25166 0.38862 0.0
N2 N 0.10249 0.22112 0.41646 0.0
C3 C 0.08119 0.26076 0.40763 0.0
C4 C 0.08862 0.18547 0.40259 0.0
C5 C 0.05942 0.2045 0.38537 0.0
O6 O 1.01146 0.35252 0.38655 0.0
C7 C 0.104 0.30686 0.3498 0.0
O8 O 0.12663 0.29996 0.36917 0.0
H9 H 0.08516 0.29586 0.41476 0.0
H10 H 0.04353 0.18558 0.3712 0.0
N11 N 0.96563 0.27052 0.35789 0.0
N12 N 0.90064 0.25441 0.33508 0.0
C13 C 0.93965 0.28167 0.33901 0.0
C14 C 0.94218 0.23538 0.36623 0.0
C15 C 0.90217 0.22526 0.35218 0.0
C16 C 0.04382 0.37996 0.39543 0.0
O17 O 0.08662 0.37403 0.39139 0.0
H18 H 0.94967 0.30849 0.32821 0.0
H19 H 0.95356 0.21816 0.38143 0.0
O20 O 0.0595 0.30912 0.34697 0.0
H21 H 0.10017 0.14874 0.40435 0.0
H22 H 0.87604 0.19877 0.35446 0.0
Cu23 Cu 0.50961 0.30003 0.65503 0.0
N24 N 0.48245 0.25307 0.63608 0.0
N25 N 0.4396 0.2196 0.60748 0.0
C26 C 0.4575 0.26053 0.61663 0.0
C27 C 0.45434 0.18487 0.62175 0.0
C28 C 0.48083 0.20566 0.63936 0.0
O29 O 0.5148 0.35831 0.63868 0.0
C30 C 0.42959 0.2981 0.676 0.0
O31 O 0.40734 0.28897 0.65675 0.0
H32 H 0.45114 0.29555 0.60968 0.0
H33 H 0.49692 0.18767 0.65374 0.0
N34 N 0.57012 0.28103 0.66608 0.0
N35 N 0.6368 0.26825 0.68837 0.0
C36 C 0.59162 0.28245 0.68651 0.0
C37 C 0.60241 0.26545 0.65459 0.0
C38 C 0.64346 0.25756 0.66821 0.0
C39 C 0.48003 0.38167 0.6292 0.0
O40 O 0.43768 0.37015 0.63253 0.0
H41 H 0.57436 0.294 0.69962 0.0
H42 H 0.59665 0.2611 0.63741 0.0
O43 O 0.4734 0.30643 0.67847 0.0
H44 H 0.44627 0.14722 0.61978 0.0
H45 H 0.67596 0.24612 0.66339 0.0
Cu46 Cu 0.94804 0.67994 0.63852 0.0
N47 N 0.90678 0.66373 0.65746 0.0
N48 N 0.85891 0.6707 0.68186 0.0
C49 C 0.89146 0.69247 0.67198 0.0
C50 C 0.85369 0.62654 0.67328 0.0
C51 C 0.88339 0.6223 0.65829 0.0
O52 O 1.00623 0.70161 0.65502 0.0
C53 C 0.87592 0.72427 0.61131 0.0
O54 O 0.85117 0.69164 0.61952 0.0
H55 H 0.90263 0.72916 0.67468 0.0
H56 H 0.88689 0.5916 0.6483 0.0
N57 N 0.96184 0.62628 0.62322 0.0
N58 N 0.97605 0.58062 0.59602 0.0
C59 C 0.95637 0.62133 0.6018 0.0
C60 C 0.98542 0.58734 0.63125 0.0
C61 C 0.99433 0.55912 0.6145 0.0
C62 C 1.01201 0.74152 0.66465 0.0
O63 O 0.97759 0.7725 0.66255 0.0
H64 H 0.94059 0.64821 0.59069 0.0
H65 H 0.99689 0.58094 0.64808 0.0
O66 O 0.91967 0.72701 0.61793 0.0
H67 H 0.82998 0.59936 0.67749 0.0
H68 H 1.0136 0.52589 0.61578 0.0
Cu69 Cu 0.5822 0.68447 0.38708 0.0
N70 N 0.63106 0.67033 0.37195 0.0
N71 N 0.68105 0.67526 0.34829 0.0
C72 C 0.64196 0.69316 0.35459 0.0
C73 C 0.69484 0.63952 0.36218 0.0
C74 C 0.66401 0.63664 0.37674 0.0
O75 O 0.5273 0.70143 0.36701 0.0
C76 C 0.63603 0.76114 0.40836 0.0
O77 O 0.65703 0.7629 0.39138 0.0
H78 H 0.62184 0.72266 0.34694 0.0
H79 H 0.66593 0.61234 0.39015 0.0
N80 N 0.56682 0.6304 0.40186 0.0
N81 N 0.55041 0.58419 0.42861 0.0
C82 C 0.57012 0.6254 0.42323 0.0
C83 C 0.5446 0.59096 0.39344 0.0
C84 C 0.53435 0.5624 0.4099 0.0
C85 C 0.5148 0.74325 0.36072 0.0
O86 O 0.53993 0.78025 0.36838 0.0
H87 H 0.58457 0.65251 0.43455 0.0
H88 H 0.53508 0.58433 0.3765 0.0
O89 O 0.60153 0.73292 0.40857 0.0
H90 H 0.72582 0.6179 0.36225 0.0
H91 H 0.51583 0.52862 0.40824 0.0
Cu92 Cu 0.525 0.79647 0.86795 0.0
N93 N 0.5594 0.75148 0.88548 0.0
N94 N 0.60936 0.72101 0.91244 0.0
C95 C 0.58929 0.76102 0.90341 0.0
C96 C 0.59113 0.68477 0.89977 0.0
C97 C 0.56043 0.70376 0.88305 0.0
O98 O 0.51129 0.84878 0.88619 0.0
C99 C 0.60365 0.81631 0.84722 0.0
O100 O 0.62747 0.81463 0.8666 0.0
H101 H 0.59607 0.79666 0.90975 0.0
H102 H 0.54049 0.68424 0.86998 0.0
N103 N 0.46795 0.76961 0.85604 0.0
N104 N 0.40088 0.75666 0.83412 0.0
C105 C 0.4414 0.78167 0.83745 0.0
C106 C 0.44358 0.73592 0.86481 0.0
C107 C 0.40227 0.72777 0.85133 0.0
C108 C 0.53915 0.8816 0.89413 0.0
O109 O 0.58042 0.88562 0.88807 0.0
H110 H 0.45116 0.80914 0.8269 0.0
H111 H 0.45487 0.71888 0.88006 0.0
O112 O 0.55925 0.81278 0.84472 0.0
H113 H 0.60006 0.64742 0.90216 0.0
H114 H 0.37548 0.70238 0.85401 0.0
Cu115 Cu 1.00518 0.80173 0.15485 0.0
N116 N 0.9754 0.75534 0.13634 0.0
N117 N 0.933 0.72194 0.10762 0.0
C118 C 0.95348 0.76228 0.11627 0.0
C119 C 0.94285 0.68817 0.12291 0.0
C120 C 0.96901 0.7089 0.14059 0.0
O121 O 1.01452 0.8582 0.13794 0.0
C122 C 0.92426 0.80637 0.17519 0.0
O123 O 0.90205 0.79708 0.15596 0.0
H124 H 0.95124 0.79667 0.10844 0.0
H125 H 0.98182 0.69161 0.15563 0.0
N126 N 0.06354 0.77816 0.16681 0.0
N127 N 0.12892 0.76372 0.18956 0.0
C128 C 0.08948 0.79009 0.1856 0.0
C129 C 0.08746 0.74347 0.15857 0.0
C130 C 0.12772 0.73438 0.17258 0.0
C131 C 0.98085 0.88281 0.12826 0.0
O132 O 0.9381 0.87364 0.13175 0.0
H133 H 0.07903 0.81658 0.19637 0.0
H134 H 0.07608 0.72565 0.14351 0.0
O135 O 0.96843 0.81248 0.17783 0.0
H136 H 0.93173 0.65121 0.12155 0.0
H137 H 0.15414 0.70829 0.17041 0.0
Cu138 Cu 0.44334 0.18519 0.13686 0.0
N139 N 0.39307 0.17576 0.1518 0.0
N140 N 0.34264 0.18512 0.17497 0.0
C141 C 0.3849 0.19731 0.16991 0.0
C142 C 0.32393 0.1544 0.15955 0.0
C143 C 0.35505 0.14876 0.14532 0.0
O144 O 0.4997 0.19762 0.15692 0.0
C145 C 0.39318 0.26243 0.11472 0.0
O146 O 0.36905 0.26243 0.1307 0.0
H147 H 0.40852 0.22304 0.17859 0.0
H148 H 0.34986 0.12743 0.13091 0.0
N149 N 0.45217 0.12946 0.12186 0.0
N150 N 0.4624 0.08063 0.09505 0.0
C151 C 0.46159 0.12643 0.10169 0.0
C152 C 0.44718 0.08414 0.12826 0.0
C153 C 0.45332 0.05392 0.11173 0.0
C154 C 0.5141 0.23879 0.16344 0.0
O155 O 0.49048 0.27682 0.15602 0.0
H156 H 0.4662 0.15724 0.09185 0.0
H157 H 0.4387 0.07392 0.14371 0.0
O158 O 0.42841 0.23499 0.11543 0.0
H159 H 0.28997 0.13748 0.1585 0.0
H160 H 0.45115 0.01531 0.11194 0.0
Cu161 Cu 0.0876 0.19138 0.88811 0.0
N162 N 0.1366 0.17203 0.87404 0.0
N163 N 0.18794 0.17315 0.85092 0.0
C164 C 0.14873 0.19255 0.85641 0.0
C165 C 0.20053 0.13861 0.8656 0.0
C166 C 0.16884 0.13811 0.87986 0.0
O167 O 0.03867 0.21614 0.86661 0.0
C168 C 0.14523 0.26528 0.9089 0.0
O169 O 0.1632 0.26724 0.89107 0.0
H170 H 0.12949 0.22178 0.84806 0.0
H171 H 0.16989 0.11553 0.89382 0.0
N172 N 0.06412 0.13959 0.90179 0.0
N173 N 0.04423 0.09353 0.92789 0.0
C174 C 0.07028 0.13094 0.92298 0.0
C175 C 0.03341 0.10645 0.89295 0.0
C176 C 0.021 0.078 0.90901 0.0
C177 C 0.9987 0.22963 0.87024 0.0
O178 O 0.98982 0.23028 0.88999 0.0
H179 H 0.09177 0.15301 0.93464 0.0
H180 H 0.01989 0.10417 0.87608 0.0
O181 O 0.11072 0.23762 0.91007 0.0
H182 H 0.23133 0.11643 0.86645 0.0
H183 H 0.99635 0.04859 0.90698 0.0
C184 C 0.07229 0.4261 0.42872 0.0
C185 C 0.03502 0.41162 0.41315 0.0
C186 C 0.06386 0.45037 0.44704 0.0
C187 C 0.96881 0.47177 0.47963 0.0
H188 H 0.06113 0.55727 0.51034 0.0
C189 C 0.94419 0.57299 0.55762 0.0
C190 C 0.98068 0.56564 0.57467 0.0
C191 C 0.94876 0.55805 0.53692 0.0
C192 C 0.03505 0.53347 0.5019 0.0
H193 H 0.95977 0.4135 0.40406 0.0
H194 H 0.94505 0.45787 0.4355 0.0
H195 H 0.07216 0.52725 0.47531 0.0
H196 H 0.05089 0.53813 0.58336 0.0
H197 H 0.05929 0.513 0.54714 0.0
H198 H 0.93142 0.47911 0.50626 0.0
C199 C 0.98081 0.44899 0.43401 0.0
C200 C 0.04144 0.51593 0.48186 0.0
C201 C 0.98923 0.42394 0.41584 0.0
C202 C 0.02205 0.54376 0.57057 0.0
C203 C 0.027 0.52978 0.54984 0.0
C204 C 0.96203 0.49007 0.4995 0.0
C205 C 0.01793 0.4616 0.45015 0.0
C206 C 1.0089 0.484 0.47059 0.0
C207 C 0.99034 0.53655 0.53283 0.0
C208 C 0.99552 0.52036 0.511 0.0
H209 H 0.10798 0.41675 0.42728 0.0
H210 H 0.09344 0.45852 0.45914 0.0
H211 H 0.94328 0.44672 0.47176 0.0
H212 H 0.91191 0.58961 0.5604 0.0
H213 H 0.92003 0.56374 0.52406 0.0
C214 C 0.50354 0.54408 0.45304 0.0
C215 C 0.54429 0.56869 0.44975 0.0
C216 C 0.49717 0.52961 0.47356 0.0
C217 C 0.56044 0.496 0.5256 0.0
H218 H 0.44348 0.5213 0.54631 0.0
C219 C 0.53126 0.43185 0.6093 0.0
C220 C 0.48668 0.41396 0.61129 0.0
C221 C 0.53874 0.45679 0.59091 0.0
C222 C 0.47618 0.51333 0.54074 0.0
H223 H 0.61048 0.59696 0.46535 0.0
H224 H 0.59984 0.57059 0.5013 0.0
H225 H 0.45565 0.5514 0.51139 0.0
H226 H 0.41473 0.40923 0.59569 0.0
H227 H 0.42785 0.45105 0.56348 0.0
H228 H 0.58043 0.45609 0.55431 0.0
C229 C 0.57268 0.56299 0.48795 0.0
C230 C 0.48317 0.53085 0.52074 0.0
C231 C 0.57868 0.57826 0.46745 0.0
C232 C 0.44943 0.42297 0.5948 0.0
C233 C 0.45702 0.44721 0.57627 0.0
C234 C 0.5532 0.47778 0.54545 0.0
C235 C 0.53174 0.5387 0.49122 0.0
C236 C 0.52523 0.52208 0.5129 0.0
C237 C 0.50197 0.46377 0.57386 0.0
C238 C 0.51079 0.48584 0.55327 0.0
H239 H 0.47624 0.53665 0.43975 0.0
H240 H 0.46543 0.51064 0.47559 0.0
H241 H 0.59304 0.4883 0.51986 0.0
H242 H 0.56066 0.4257 0.62178 0.0
H243 H 0.5736 0.46992 0.58997 0.0
C244 C 0.49951 0.08805 0.06242 0.0
C245 C 0.46938 0.06377 0.07424 0.0
C246 C 0.50685 0.07104 0.04239 0.0
C247 C 0.49181 0.96113 1.00863 0.0
H248 H 0.51196 0.04821 0.96315 0.0
C249 C 0.48882 0.89696 0.92229 0.0
C250 C 0.52776 0.90961 0.91257 0.0
C251 C 0.48108 0.91879 0.94127 0.0
C252 C 0.50661 0.02354 0.97576 0.0
H253 H 0.42202 0.00369 0.07401 0.0
H254 H 0.43346 0.97479 0.03896 0.0
H255 H 0.49933 0.08006 0.99777 0.0
H256 H 0.58781 0.95694 0.91472 0.0
H257 H 0.57359 0.99582 0.94779 0.0
H258 H 0.49793 0.90476 0.9864 0.0
C259 C 0.45289 0.00601 0.04535 0.0
C260 C 0.49959 0.0417 0.99566 0.0
C261 C 0.44612 0.02264 0.06546 0.0
C262 C 0.55753 0.9463 0.92179 0.0
C263 C 0.54938 0.96864 0.94069 0.0
C264 C 0.49815 0.94312 0.9887 0.0
C265 C 0.48373 0.02963 0.03358 0.0
C266 C 0.4919 0.01071 0.01237 0.0
C267 C 0.5117 0.95423 0.95089 0.0
C268 C 0.50544 0.97406 0.97203 0.0
H269 H 0.51821 0.11963 0.06888 0.0
H270 H 0.53137 0.08988 0.03403 0.0
H271 H 0.4873 0.93596 0.02116 0.0
H272 H 0.46507 0.86893 0.91567 0.0
H273 H 0.45141 0.90742 0.94863 0.0
C274 C 0.03419 0.92736 0.1072 0.0
C275 C 0.9887 0.91441 0.11028 0.0
C276 C 0.04178 0.95221 0.0888 0.0
C277 C 0.97991 0.01938 0.04151 0.0
H278 H 0.08785 0.98227 0.01582 0.0
C279 C 0.99668 0.05759 0.95317 0.0
C280 C 0.03956 0.07613 0.94894 0.0
C281 C 0.99182 0.04142 0.97364 0.0
C282 C 0.0578 0.99336 0.02291 0.0
H283 H 0.9154 0.91844 0.09659 0.0
H284 H 0.92855 0.96029 0.0644 0.0
H285 H 0.07685 0.94878 0.05028 0.0
H286 H 0.11112 0.09167 0.96283 0.0
H287 H 0.10286 0.06264 0.99862 0.0
H288 H 0.96014 0.06254 0.0136 0.0
C289 C 0.95849 0.95246 0.07635 0.0
C290 C 0.05154 0.97436 0.04276 0.0
C291 C 0.95089 0.92819 0.09485 0.0
C292 C 0.0776 0.07784 0.96564 0.0
C293 C 0.07295 0.06097 0.98607 0.0
C294 C 0.98588 0.03785 0.02154 0.0
C295 C 1.00411 0.96421 0.07286 0.0
C296 C 1.01228 0.98679 0.0523 0.0
C297 C 0.02992 0.04279 0.99031 0.0
C298 C 0.02471 0.02477 1.01195 0.0
H299 H 0.06409 0.91749 0.11882 0.0
H300 H 0.07732 0.96147 0.08697 0.0
H301 H 0.94978 0.0307 0.04846 0.0
H302 H 0.96661 0.05625 0.94071 0.0
H303 H 0.95835 0.02724 0.97638 0.0
C304 C 0.57818 0.20223 0.18947 0.0
C305 C 0.55658 0.24328 0.17972 0.0
C306 C 0.61763 0.20603 0.20512 0.0
C307 C 0.68235 0.29131 0.24371 0.0
H308 H 0.77876 0.1944 0.2472 0.0
C309 C 0.85338 0.29818 0.30531 0.0
C310 C 0.86502 0.25535 0.31647 0.0
C311 C 0.81773 0.29908 0.28764 0.0
C312 C 0.75203 0.22163 0.24648 0.0
H313 H 0.55997 0.32064 0.17869 0.0
H314 H 0.62952 0.32728 0.20575 0.0
H315 H 0.7134 0.19214 0.21798 0.0
H316 H 0.84928 0.17972 0.31748 0.0
H317 H 0.78736 0.18119 0.2867 0.0
H318 H 0.72145 0.3208 0.27225 0.0
C319 C 0.6154 0.2921 0.20154 0.0
C320 C 0.71442 0.22028 0.22977 0.0
C321 C 0.57565 0.28829 0.18593 0.0
C322 C 0.84081 0.21335 0.30937 0.0
C323 C 0.80565 0.21412 0.2916 0.0
C324 C 0.72025 0.29288 0.26034 0.0
C325 C 0.63687 0.25098 0.21138 0.0
C326 C 0.67862 0.25461 0.22835 0.0
C327 C 0.7935 0.25701 0.2806 0.0
C328 C 0.7551 0.25759 0.26209 0.0
H329 H 0.5643 0.16697 0.18521 0.0
H330 H 0.63252 0.1736 0.21259 0.0
H331 H 0.65525 0.31804 0.24331 0.0
H332 H 0.8712 0.33115 0.31049 0.0
H333 H 0.8093 0.33262 0.27941 0.0
C334 C 0.66398 0.29006 0.72639 0.0
C335 C 0.67139 0.26656 0.7075 0.0
C336 C 0.69822 0.28942 0.74461 0.0
C337 C 0.8246 0.27572 0.76093 0.0
H338 H 0.79416 0.24215 0.81666 0.0
C339 C 0.96782 0.22877 0.8311 0.0
C340 C 0.96141 0.2403 0.85206 0.0
C341 C 0.93194 0.23582 0.81397 0.0
C342 C 0.80326 0.25247 0.80132 0.0
H343 H 0.7208 0.22249 0.69364 0.0
H344 H 0.78034 0.22258 0.72504 0.0
H345 H 0.73196 0.24721 0.78599 0.0
H346 H 0.91251 0.26947 0.87138 0.0
H347 H 0.85023 0.28328 0.84136 0.0
H348 H 0.89558 0.28173 0.77605 0.0
C349 C 0.74814 0.24186 0.72562 0.0
C350 C 0.76755 0.25516 0.78373 0.0
C351 C 0.71382 0.24197 0.70753 0.0
C352 C 0.91851 0.26003 0.85543 0.0
C353 C 0.88267 0.26761 0.83822 0.0
C354 C 0.86016 0.27364 0.7785 0.0
C355 C 0.74086 0.26577 0.74431 0.0
C356 C 0.77801 0.266 0.76329 0.0
C357 C 0.88877 0.25521 0.81725 0.0
C358 C 0.85017 0.26112 0.79889 0.0
H359 H 0.63219 0.30976 0.72711 0.0
H360 H 0.69177 0.30835 0.75878 0.0
H361 H 0.83357 0.28498 0.74542 0.0
H362 H 1.00025 0.2131 0.82791 0.0
H363 H 0.93781 0.22486 0.7982 0.0
C364 C 0.06089 0.79206 0.69237 0.0
C365 C 0.05572 0.75067 0.67967 0.0
C366 C 0.10048 0.7984 0.70785 0.0
C367 C 0.22127 0.75377 0.72548 0.0
H368 H 0.19985 0.79787 0.78122 0.0
C369 C 0.37213 0.77731 0.79629 0.0
C370 C 0.36341 0.76073 0.81631 0.0
C371 C 0.33581 0.7806 0.779 0.0
C372 C 0.20643 0.78535 0.76577 0.0
H373 H 0.08893 0.68419 0.67283 0.0
H374 H 0.15742 0.69501 0.69984 0.0
H375 H 0.13505 0.79544 0.75176 0.0
H376 H 0.30919 0.73562 0.83385 0.0
H377 H 0.24632 0.7404 0.80374 0.0
H378 H 0.29231 0.74204 0.73972 0.0
C379 C 0.13123 0.72288 0.69775 0.0
C380 C 0.16937 0.78454 0.74879 0.0
C381 C 0.09171 0.71653 0.68232 0.0
C382 C 0.3174 0.74796 0.81864 0.0
C383 C 0.28114 0.75132 0.80141 0.0
C384 C 0.25835 0.7546 0.74247 0.0
C385 C 0.13582 0.76353 0.71094 0.0
C386 C 0.17616 0.76811 0.7285 0.0
C387 C 0.28987 0.76756 0.78135 0.0
C388 C 0.25123 0.76975 0.76291 0.0
H389 H 0.03392 0.81914 0.6907 0.0
H390 H 0.10321 0.83045 0.71753 0.0
H391 H 0.22786 0.74143 0.71001 0.0
H392 H 0.40715 0.78708 0.79384 0.0
H393 H 0.3437 0.79361 0.76382 0.0
C394 C 0.45525 0.79507 0.33831 0.0
C395 C 0.47248 0.74942 0.34449 0.0
C396 C 0.41537 0.80019 0.32285 0.0
C397 C 0.31293 0.73147 0.29545 0.0
H398 H 0.30897 0.83001 0.25209 0.0
C399 C 0.18806 0.72323 0.21566 0.0
C400 C 0.16433 0.76513 0.20822 0.0
C401 C 0.22296 0.72438 0.23351 0.0
C402 C 0.30934 0.8027 0.26426 0.0
H403 H 0.46146 0.67338 0.33909 0.0
H404 H 0.39314 0.68227 0.31202 0.0
H405 H 0.37531 0.8265 0.28099 0.0
H406 H 0.15869 0.84114 0.2136 0.0
H407 H 0.22039 0.8433 0.24482 0.0
H408 H 0.24774 0.70678 0.2783 0.0
C409 C 0.40949 0.71422 0.31939 0.0
C410 C 0.34729 0.80071 0.28086 0.0
C411 C 0.44903 0.70912 0.33486 0.0
C412 C 0.1762 0.80828 0.21908 0.0
C413 C 0.21168 0.80956 0.23681 0.0
C414 C 0.27531 0.73321 0.27878 0.0
C415 C 0.39196 0.75976 0.3132 0.0
C416 C 0.34995 0.76454 0.29648 0.0
C417 C 0.23535 0.76755 0.24422 0.0
C418 C 0.27344 0.76837 0.26282 0.0
H419 H 0.47242 0.82685 0.34545 0.0
H420 H 0.40263 0.8358 0.31863 0.0
H421 H 0.31312 0.70385 0.30747 0.0
H422 H 0.17937 0.6894 0.20776 0.0
H423 H 0.24086 0.6915 0.23872 0.0
C424 C 0.27164 0.20606 0.19032 0.0
C425 C 0.32065 0.20321 0.19233 0.0
C426 C 0.25011 0.22304 0.20715 0.0
C427 C 0.26935 0.23752 0.26549 0.0
H428 H 0.1616 0.32106 0.25468 0.0
C429 C 0.17902 0.30627 0.33458 0.0
C430 C 0.12986 0.30577 0.33129 0.0
C431 C 0.20378 0.29967 0.31748 0.0
C432 C 0.19139 0.29741 0.25797 0.0
H433 H 0.38541 0.21619 0.21367 0.0
H434 H 0.34778 0.24598 0.24313 0.0
H435 H 0.20223 0.29778 0.22522 0.0
H436 H 0.06815 0.2996 0.30726 0.0
H437 H 0.11125 0.28726 0.2775 0.0
H438 H 0.25801 0.23603 0.29808 0.0
C439 C 0.32605 0.23486 0.22849 0.0
C440 C 0.21473 0.28414 0.24108 0.0
C441 C 0.34764 0.21816 0.21156 0.0
C442 C 0.10601 0.30035 0.31035 0.0
C443 C 0.1308 0.29343 0.29325 0.0
C444 C 0.2459 0.25057 0.28236 0.0
C445 C 0.27701 0.2374 0.22648 0.0
C446 C 0.25374 0.2537 0.24461 0.0
C447 C 0.18003 0.29207 0.29666 0.0
C448 C 0.20637 0.28041 0.27881 0.0
H449 H 0.24979 0.19549 0.17565 0.0
H450 H 0.21227 0.22408 0.20514 0.0
H451 H 0.29888 0.2135 0.26871 0.0
H452 H 0.19852 0.31077 0.35047 0.0
H453 H 0.24164 0.29992 0.32065 0.0
C454 C 0.42917 0.2958 0.71573 0.0
C455 C 0.40474 0.29331 0.69477 0.0
C456 C 0.40623 0.28666 0.73329 0.0
C457 C 0.28831 0.27743 0.74957 0.0
H458 H 0.3515 0.19702 0.79485 0.0
C459 C 0.20831 0.23527 0.82591 0.0
C460 C 0.21269 0.18825 0.83385 0.0
C461 C 0.23247 0.25007 0.8095 0.0
C462 C 0.33324 0.21927 0.78228 0.0
H463 H 0.33666 0.28067 0.67594 0.0
H464 H 0.29693 0.26456 0.70643 0.0
H465 H 0.39184 0.22046 0.76529 0.0
H466 H 0.24582 0.11989 0.8305 0.0
H467 H 0.28781 0.14559 0.80182 0.0
H468 H 0.22926 0.27517 0.76624 0.0
C469 C 0.3337 0.27392 0.70937 0.0
C470 C 0.35661 0.23326 0.76546 0.0
C471 C 0.3566 0.28295 0.69184 0.0
C472 C 0.24202 0.15647 0.82497 0.0
C473 C 0.26619 0.17127 0.80853 0.0
C474 C 0.26496 0.2635 0.7664 0.0
C475 C 0.35832 0.27499 0.73031 0.0
C476 C 0.33432 0.26224 0.74881 0.0
C477 C 0.26169 0.21827 0.80057 0.0
C478 C 0.28701 0.23397 0.78291 0.0
H479 H 0.46626 0.30374 0.71858 0.0
H480 H 0.42612 0.28847 0.74921 0.0
H481 H 0.27022 0.30015 0.73714 0.0
H482 H 0.18683 0.26105 0.8326 0.0
H483 H 0.22877 0.28673 0.80403 0.0
C484 C 0.60607 0.79676 0.80877 0.0
C485 C 0.62872 0.81411 0.82849 0.0
C486 C 0.63136 0.78777 0.79203 0.0
C487 C 0.75333 0.76446 0.78278 0.0
H488 H 0.697 0.77034 0.7232 0.0
C489 C 0.8554 0.72393 0.71273 0.0
C490 C 0.83363 0.69104 0.69761 0.0
C491 C 0.83102 0.74311 0.72821 0.0
C492 C 0.7131 0.76846 0.73979 0.0
H493 H 0.69509 0.83853 0.84566 0.0
H494 H 0.73883 0.82497 0.81623 0.0
H495 H 0.65355 0.79945 0.75074 0.0
H496 H 0.76898 0.65343 0.68651 0.0
H497 H 0.72615 0.68741 0.71338 0.0
H498 H 0.81315 0.73407 0.77165 0.0
C499 C 0.70187 0.81648 0.81387 0.0
C500 C 0.68817 0.78494 0.75562 0.0
C501 C 0.6767 0.82475 0.83072 0.0
C502 C 0.78677 0.67831 0.69809 0.0
C503 C 0.76216 0.69808 0.71333 0.0
C504 C 0.77848 0.74869 0.76693 0.0
C505 C 0.67986 0.79659 0.79448 0.0
C506 C 0.70765 0.78255 0.77739 0.0
C507 C 0.78412 0.73044 0.72864 0.0
C508 C 0.7584 0.74991 0.7453 0.0
H509 H 0.56918 0.78786 0.80657 0.0
H510 H 0.61309 0.77192 0.77753 0.0
H511 H 0.76934 0.76101 0.79932 0.0
H512 H 0.89155 0.73414 0.7128 0.0
H513 H 0.84875 0.7681 0.73978 0.0
C514 C 0.92301 0.80561 0.21487 0.0
C515 C 0.89885 0.80343 0.19386 0.0
C516 C 0.89956 0.79728 0.23233 0.0
C517 C 0.7811 0.78889 0.24838 0.0
H518 H 0.84316 0.70561 0.29279 0.0
C519 C 0.69965 0.7397 0.32392 0.0
C520 C 0.70461 0.69213 0.33111 0.0
C521 C 0.72358 0.75627 0.3077 0.0
C522 C 0.8252 0.72869 0.28047 0.0
H523 H 0.83063 0.79269 0.17484 0.0
H524 H 0.79003 0.77792 0.20517 0.0
H525 H 0.88413 0.73071 0.26374 0.0
H526 H 0.73785 0.62447 0.32637 0.0
H527 H 0.7793 0.6532 0.29811 0.0
H528 H 0.72163 0.78561 0.26479 0.0
C529 C 0.82699 0.78639 0.20822 0.0
C530 C 0.84897 0.74366 0.26395 0.0
C531 C 0.8504 0.79464 0.19079 0.0
C532 C 0.73378 0.66149 0.32152 0.0
C533 C 0.75765 0.67803 0.3053 0.0
C534 C 0.75734 0.77395 0.26493 0.0
C535 C 0.8514 0.78671 0.22921 0.0
C536 C 0.82709 0.77357 0.24757 0.0
C537 C 0.75307 0.7257 0.29825 0.0
C538 C 0.77891 0.74323 0.28107 0.0
H539 H 0.96031 0.81241 0.21783 0.0
H540 H 0.91931 0.79855 0.2483 0.0
H541 H 0.76333 0.81231 0.23615 0.0
H542 H 0.67808 0.76453 0.33113 0.0
H543 H 0.71965 0.79335 0.30285 0.0
C544 C 0.3776 0.17597 0.58353 0.0
C545 C 0.40815 0.21529 0.58751 0.0
C546 C 0.34478 0.17388 0.56485 0.0
C547 C 0.27871 0.2524 0.52493 0.0
H548 H 0.2574 0.13878 0.48978 0.0
C549 C 0.16478 0.25793 0.44236 0.0
C550 C 0.13598 0.21854 0.43577 0.0
C551 C 0.19748 0.25567 0.46097 0.0
C552 C 0.26239 0.1706 0.49959 0.0
H553 H 0.42951 0.28192 0.57415 0.0
H554 H 0.37191 0.27859 0.54198 0.0
H555 H 0.31591 0.13751 0.52201 0.0
H556 H 0.11878 0.14594 0.4436 0.0
H557 H 0.17538 0.14215 0.47644 0.0
H558 H 0.22499 0.28546 0.50291 0.0
C559 C 0.37294 0.24975 0.55348 0.0
C560 C 0.29603 0.16986 0.518 0.0
C561 C 0.40593 0.25166 0.572 0.0
C562 C 0.14075 0.1767 0.4482 0.0
C563 C 0.17328 0.17455 0.46697 0.0
C564 C 0.24487 0.25303 0.50669 0.0
C565 C 0.34159 0.21121 0.54984 0.0
C566 C 0.3049 0.21097 0.5307 0.0
C567 C 0.20201 0.2141 0.47362 0.0
C568 C 0.23664 0.21236 0.4936 0.0
H569 H 0.37792 0.14747 0.59511 0.0
H570 H 0.32088 0.14382 0.56249 0.0
H571 H 0.28416 0.28435 0.53464 0.0
H572 H 0.16271 0.29032 0.43291 0.0
H573 H 0.2197 0.28644 0.46525 0.0
C574 C 0.88072 0.77572 0.57912 0.0
C575 C 0.85372 0.75245 0.59273 0.0
C576 C 0.85927 0.7956 0.55977 0.0
C577 C 0.74315 0.82717 0.52848 0.0
H578 H 0.7991 0.78306 0.48016 0.0
C579 C 0.63766 0.77854 0.44726 0.0
C580 C 0.65799 0.78382 0.42857 0.0
C581 C 0.66243 0.79144 0.46713 0.0
C582 C 0.7834 0.79677 0.4934 0.0
H583 H 0.78296 0.73481 0.59748 0.0
H584 H 0.74583 0.76888 0.56392 0.0
H585 H 0.84238 0.77592 0.51604 0.0
H586 H 0.71882 0.81046 0.41594 0.0
H587 H 0.76195 0.83313 0.45066 0.0
H588 H 0.68313 0.84571 0.50579 0.0
C589 C 0.78343 0.77218 0.56808 0.0
C590 C 0.80831 0.79269 0.51403 0.0
C591 C 0.80481 0.7522 0.58729 0.0
C592 C 0.70224 0.80558 0.43003 0.0
C593 C 0.7271 0.81834 0.44994 0.0
C594 C 0.71818 0.83116 0.50783 0.0
C595 C 0.81043 0.79287 0.55378 0.0
C596 C 0.78784 0.80627 0.53188 0.0
C597 C 0.70811 0.80987 0.46878 0.0
C598 C 0.73742 0.81448 0.49012 0.0
H599 H 0.91851 0.77659 0.58289 0.0
H600 H 0.88101 0.81178 0.5492 0.0
H601 H 0.72673 0.83878 0.54187 0.0
H602 H 0.60356 0.76208 0.44672 0.0
H603 H 0.64684 0.78405 0.48131 0.0
C604 C 0.90686 0.75123 0.07082 0.0
C605 C 0.90385 0.71743 0.08705 0.0
C606 C 0.87634 0.74921 0.05152 0.0
C607 C 0.79731 0.67052 0.01623 0.0
H608 H 0.73675 0.78913 0.99628 0.0
C609 C 0.64555 0.67831 0.94501 0.0
C610 C 0.64373 0.71819 0.93141 0.0
C611 C 0.67799 0.67655 0.96381 0.0
C612 C 0.75381 0.75579 1.0014 0.0
H613 H 0.86678 0.65406 0.09521 0.0
H614 H 0.81407 0.65018 0.06131 0.0
H615 H 0.79299 0.78854 0.02902 0.0
H616 H 0.67569 0.78651 0.92635 0.0
H617 H 0.73277 0.78318 0.95876 0.0
H618 H 0.75863 0.63784 0.98843 0.0
C619 C 0.8402 0.67826 0.06367 0.0
C620 C 0.78597 0.75548 0.02022 0.0
C621 C 0.87053 0.68048 0.08309 0.0
C622 C 0.67563 0.75576 0.93673 0.0
C623 C 0.70829 0.75384 0.95536 0.0
C624 C 0.76538 0.67088 0.99725 0.0
C625 C 0.84229 0.71309 0.04783 0.0
C626 C 0.80815 0.71291 0.02781 0.0
C627 C 0.70959 0.71448 0.96929 0.0
C628 C 0.74332 0.7136 0.98956 0.0
H629 H 0.93268 0.77953 0.07299 0.0
H630 H 0.87932 0.77604 0.03944 0.0
H631 H 0.81416 0.63725 0.02164 0.0
H632 H 0.62111 0.64904 0.94139 0.0
H633 H 0.67755 0.64595 0.97426 0.0
C634 C 0.40048 0.28975 0.07761 0.0
C635 C 0.37373 0.28567 0.09429 0.0
C636 C 0.37955 0.30369 0.05715 0.0
C637 C 0.26641 0.3471 0.02568 0.0
H638 H 0.30765 0.27125 0.98089 0.0
C639 C 0.15029 0.28766 0.94753 0.0
C640 C 0.17027 0.2875 0.92861 0.0
C641 C 0.1769 0.30105 0.96695 0.0
C642 C 0.29617 0.29335 0.99313 0.0
H643 H 0.30461 0.29566 0.10286 0.0
H644 H 0.26785 0.31785 0.06727 0.0
H645 H 0.35233 0.26992 0.01655 0.0
H646 H 0.23301 0.30408 0.91506 0.0
H647 H 0.27956 0.32663 0.94906 0.0
H648 H 0.20823 0.36761 1.00222 0.0
C649 C 0.30519 0.31162 0.06988 0.0
C650 C 0.32196 0.29284 0.01364 0.0
C651 C 0.3263 0.29856 0.09039 0.0
C652 C 0.21655 0.3037 0.92933 0.0
C653 C 0.24332 0.31644 0.94879 0.0
C654 C 0.24014 0.34691 1.00519 0.0
C655 C 0.33118 0.31293 0.05279 0.0
C656 C 0.30701 0.31895 0.03036 0.0
C657 C 0.22412 0.31398 0.96786 0.0
C658 C 0.25441 0.3194 0.98883 0.0
H659 H 0.43725 0.28054 0.08018 0.0
H660 H 0.40108 0.30561 0.0446 0.0
H661 H 0.25422 0.36848 0.03796 0.0
H662 H 0.11469 0.27551 0.9475 0.0
H663 H 0.16131 0.29855 0.98143 0.0
loop_
_geom_bond_atom_site_label_1
_geom_bond_atom_site_label_2
_geom_bond_distance
_geom_bond_site_symmetry_2
_ccdc_geom_bond_type
Cu0 N1 1.999 . S
Cu0 O6 1.974 1_455 S
Cu0 N11 1.985 1_455 S
Cu0 O20 1.959 . S
N1 Cu0 1.999 . S
N1 C3 1.263 . S
N1 C5 1.389 . S
N2 C3 1.358 . S
N2 C4 1.400 . S
C3 N1 1.263 . S
C3 N2 1.358 . S
C3 H9 0.930 . S
C4 N2 1.400 . S
C4 C5 1.351 . S
C4 H21 0.930 . S
C5 N1 1.389 . S
C5 C4 1.351 . S
C5 H10 0.930 . S
O6 Cu0 1.974 1_655 S
O6 C16 1.282 . S
C7 O8 1.261 . S
C7 O20 1.251 . S
O8 C7 1.261 . S
H9 C3 0.930 . S
H10 C5 0.930 . S
N11 Cu0 1.985 1_655 S
N11 C13 1.335 . S
N11 C14 1.390 . S
N12 C13 1.345 . S
N12 C15 1.336 . S
C13 N11 1.335 . S
C13 N12 1.345 . S
C13 H18 0.930 . S
C14 N11 1.390 . S
C14 C15 1.346 . S
C14 H19 0.930 . S
C15 N12 1.336 . S
C15 C14 1.346 . S
C15 H22 0.929 . S
C16 O6 1.282 . S
C16 O17 1.216 1_655 S
O17 C16 1.216 1_455 S
H18 C13 0.930 . S
H19 C14 0.930 . S
O20 Cu0 1.959 . S
O20 C7 1.251 . S
H21 C4 0.930 . S
H22 C15 0.929 . S
Cu23 N24 1.999 . S
Cu23 O29 1.974 . S
Cu23 N34 1.985 . S
Cu23 O43 1.959 . S
N24 Cu23 1.999 . S
N24 C26 1.263 . S
N24 C28 1.389 . S
N25 C26 1.358 . S
N25 C27 1.400 . S
C26 N24 1.263 . S
C26 N25 1.358 . S
C26 H32 0.930 . S
C27 N25 1.400 . S
C27 C28 1.351 . S
C27 H44 0.930 . S
C28 N24 1.389 . S
C28 C27 1.351 . S
C28 H33 0.930 . S
O29 Cu23 1.974 . S
O29 C39 1.282 . S
C30 O31 1.261 . S
C30 O43 1.251 . S
O31 C30 1.261 . S
H32 C26 0.930 . S
H33 C28 0.930 . S
N34 Cu23 1.985 . S
N34 C36 1.335 . S
N34 C37 1.390 . S
N35 C36 1.345 . S
N35 C38 1.336 . S
C36 N34 1.335 . S
C36 N35 1.345 . S
C36 H41 0.930 . S
C37 N34 1.390 . S
C37 C38 1.346 . S
C37 H42 0.930 . S
C38 N35 1.336 . S
C38 C37 1.346 . S
C38 H45 0.929 . S
C39 O29 1.282 . S
C39 O40 1.216 . S
O40 C39 1.216 . S
H41 C36 0.930 . S
H42 C37 0.930 . S
O43 Cu23 1.959 . S
O43 C30 1.251 . S
H44 C27 0.930 . S
H45 C38 0.929 . S
Cu46 N47 1.999 . S
Cu46 O52 1.974 . S
Cu46 N57 1.985 . S
Cu46 O66 1.959 . S
N47 Cu46 1.999 . S
N47 C49 1.263 . S
N47 C51 1.389 . S
N48 C49 1.358 . S
N48 C50 1.400 . S
C49 N47 1.263 . S
C49 N48 1.358 . S
C49 H55 0.930 . S
C50 N48 1.400 . S
C50 C51 1.351 . S
C50 H67 0.930 . S
C51 N47 1.389 . S
C51 C50 1.351 . S
C51 H56 0.930 . S
O52 Cu46 1.974 . S
O52 C62 1.286 . S
C53 O54 1.261 . S
C53 O66 1.251 . S
O54 C53 1.261 . S
H55 C49 0.930 . S
H56 C51 0.930 . S
N57 Cu46 1.985 . S
N57 C59 1.335 . S
N57 C60 1.390 1_655 S
N58 C59 1.345 . S
N58 C61 1.336 1_655 S
C59 N57 1.335 . S
C59 N58 1.345 . S
C59 H64 0.930 . S
C60 N57 1.390 1_455 S
C60 C61 1.346 . S
C60 H65 0.930 . S
C61 N58 1.336 1_455 S
C61 C60 1.346 . S
C61 H68 0.929 . S
C62 O52 1.286 . S
C62 O63 1.216 . S
O63 C62 1.216 . S
H64 C59 0.930 . S
H65 C60 0.930 . S
O66 Cu46 1.959 . S
O66 C53 1.251 . S
H67 C50 0.930 . S
H68 C61 0.929 . S
Cu69 N70 1.999 . S
Cu69 O75 1.974 . S
Cu69 N80 1.985 . S
Cu69 O89 1.959 . S
N70 Cu69 1.999 . S
N70 C72 1.263 . S
N70 C74 1.389 . S
N71 C72 1.358 . S
N71 C73 1.400 . S
C72 N70 1.263 . S
C72 N71 1.358 . S
C72 H78 0.930 . S
C73 N71 1.400 . S
C73 C74 1.351 . S
C73 H90 0.930 . S
C74 N70 1.389 . S
C74 C73 1.351 . S
C74 H79 0.930 . S
O75 Cu69 1.974 . S
O75 C85 1.282 . S
C76 O77 1.261 . S
C76 O89 1.251 . S
O77 C76 1.261 . S
H78 C72 0.930 . S
H79 C74 0.930 . S
N80 Cu69 1.985 . S
N80 C82 1.335 . S
N80 C83 1.390 . S
N81 C82 1.345 . S
N81 C84 1.336 . S
C82 N80 1.335 . S
C82 N81 1.345 . S
C82 H87 0.930 . S
C83 N80 1.390 . S
C83 C84 1.346 . S
C83 H88 0.930 . S
C84 N81 1.336 . S
C84 C83 1.346 . S
C84 H91 0.929 . S
C85 O75 1.282 . S
C85 O86 1.216 . S
O86 C85 1.216 . S
H87 C82 0.930 . S
H88 C83 0.930 . S
O89 Cu69 1.959 . S
O89 C76 1.251 . S
H90 C73 0.930 . S
H91 C84 0.929 . S
Cu92 N93 1.999 . S
Cu92 O98 1.974 . S
Cu92 N103 1.985 . S
Cu92 O112 1.959 . S
N93 Cu92 1.999 . S
N93 C95 1.263 . S
N93 C97 1.389 . S
N94 C95 1.358 . S
N94 C96 1.400 . S
C95 N93 1.263 . S
C95 N94 1.358 . S
C95 H101 0.930 . S
C96 N94 1.400 . S
C96 C97 1.351 . S
C96 H113 0.930 . S
C97 N93 1.389 . S
C97 C96 1.351 . S
C97 H102 0.930 . S
O98 Cu92 1.974 . S
O98 C108 1.282 . S
C99 O100 1.261 . S
C99 O112 1.251 . S
O100 C99 1.261 . S
H101 C95 0.930 . S
H102 C97 0.930 . S
N103 Cu92 1.985 . S
N103 C105 1.335 . S
N103 C106 1.390 . S
N104 C105 1.345 . S
N104 C107 1.336 . S
C105 N103 1.335 . S
C105 N104 1.345 . S
C105 H110 0.930 . S
C106 N103 1.390 . S
C106 C107 1.346 . S
C106 H111 0.930 . S
C107 N104 1.336 . S
C107 C106 1.346 . S
C107 H114 0.929 . S
C108 O98 1.282 . S
C108 O109 1.216 . S
O109 C108 1.216 . S
H110 C105 0.930 . S
H111 C106 0.930 . S
O112 Cu92 1.959 . S
O112 C99 1.251 . S
H113 C96 0.930 . S
H114 C107 0.929 . S
Cu115 N116 1.999 . S
Cu115 O121 1.974 1_655 S
Cu115 N126 1.985 1_655 S
Cu115 O135 1.959 . S
N116 Cu115 1.999 . S
N116 C118 1.263 . S
N116 C120 1.389 . S
N117 C118 1.358 . S
N117 C119 1.400 . S
C118 N116 1.263 . S
C118 N117 1.358 . S
C118 H124 0.930 . S
C119 N117 1.400 . S
C119 C120 1.351 . S
C119 H136 0.930 . S
C120 N116 1.389 . S
C120 C119 1.351 . S
C120 H125 0.930 . S
O121 Cu115 1.974 1_455 S
O121 C131 1.282 . S
C122 O123 1.261 . S
C122 O135 1.251 . S
O123 C122 1.261 . S
H124 C118 0.930 . S
H125 C120 0.930 . S
N126 Cu115 1.985 1_455 S
N126 C128 1.335 . S
N126 C129 1.390 . S
N127 C128 1.345 . S
N127 C130 1.336 . S
C128 N126 1.335 . S
C128 N127 1.345 . S
C128 H133 0.930 . S
C129 N126 1.390 . S
C129 C130 1.346 . S
C129 H134 0.930 . S
C130 N127 1.336 . S
C130 C129 1.346 . S
C130 H137 0.929 . S
C131 O121 1.282 . S
C131 O132 1.216 1_455 S
O132 C131 1.216 1_655 S
H133 C128 0.930 . S
H134 C129 0.930 . S
O135 Cu115 1.959 . S
O135 C122 1.251 . S
H136 C119 0.930 . S
H137 C130 0.929 . S
Cu138 N139 1.999 . S
Cu138 O144 1.974 . S
Cu138 N149 1.985 . S
Cu138 O158 1.959 . S
N139 Cu138 1.999 . S
N139 C141 1.263 . S
N139 C143 1.389 . S
N140 C141 1.358 . S
N140 C142 1.400 . S
C141 N139 1.263 . S
C141 N140 1.358 . S
C141 H147 0.930 . S
C142 N140 1.400 . S
C142 C143 1.351 . S
C142 H159 0.930 . S
C143 N139 1.389 . S
C143 C142 1.351 . S
C143 H148 0.930 . S
O144 Cu138 1.974 . S
O144 C154 1.282 . S
C145 O146 1.261 . S
C145 O158 1.251 . S
O146 C145 1.261 . S
H147 C141 0.930 . S
H148 C143 0.930 . S
N149 Cu138 1.985 . S
N149 C151 1.335 . S
N149 C152 1.390 . S
N150 C151 1.345 . S
N150 C153 1.336 . S
C151 N149 1.335 . S
C151 N150 1.345 . S
C151 H156 0.930 . S
C152 N149 1.390 . S
C152 C153 1.346 . S
C152 H157 0.930 . S
C153 N150 1.336 . S
C153 C152 1.346 . S
C153 H160 0.929 . S
C154 O144 1.282 . S
C154 O155 1.216 . S
O155 C154 1.216 . S
H156 C151 0.930 . S
H157 C152 0.930 . S
O158 Cu138 1.959 . S
O158 C145 1.251 . S
H159 C142 0.930 . S
H160 C153 0.929 . S
Cu161 N162 1.999 . S
Cu161 O167 1.974 . S
Cu161 N172 1.985 . S
Cu161 O181 1.959 . S
N162 Cu161 1.999 . S
N162 C164 1.263 . S
N162 C166 1.389 . S
N163 C164 1.358 . S
N163 C165 1.400 . S
C164 N162 1.263 . S
C164 N163 1.358 . S
C164 H170 0.930 . S
C165 N163 1.400 . S
C165 C166 1.351 . S
C165 H182 0.930 . S
C166 N162 1.389 . S
C166 C165 1.351 . S
C166 H171 0.930 . S
O167 Cu161 1.974 . S
O167 C177 1.286 . S
C168 O169 1.261 . S
C168 O181 1.251 . S
O169 C168 1.261 . S
H170 C164 0.930 . S
H171 C166 0.930 . S
N172 Cu161 1.985 . S
N172 C174 1.335 . S
N172 C175 1.390 1_455 S
N173 C174 1.345 . S
N173 C176 1.336 1_455 S
C174 N172 1.335 . S
C174 N173 1.345 . S
C174 H179 0.930 . S
C175 N172 1.390 1_655 S
C175 C176 1.346 . S
C175 H180 0.930 . S
C176 N173 1.336 1_655 S
C176 C175 1.346 . S
C176 H183 0.929 . S
C177 O167 1.286 . S
C177 O178 1.216 . S
O178 C177 1.216 . S
H179 C174 0.930 . S
H180 C175 0.930 . S
O181 Cu161 1.959 . S
O181 C168 1.251 . S
H182 C165 0.930 . S
H183 C176 0.929 . S
C184 C185 1.349 1_455 S
C184 C186 1.327 . S
C184 H209 0.950 . S
C185 C184 1.349 1_655 S
C185 C201 1.349 . S
C186 C184 1.327 . S
C186 C205 1.429 1_455 S
C186 H210 0.950 . S
C187 C204 1.574 . S
C187 C206 1.368 . S
C187 H211 0.949 . S
H188 C192 0.949 . S
C189 C190 1.349 . S
C189 C191 1.327 . S
C189 H212 0.950 . S
C190 C189 1.349 . S
C190 C202 1.349 1_655 S
C191 C189 1.327 . S
C191 C207 1.429 . S
C191 H213 0.950 . S
C192 H188 0.949 . S
C192 C200 1.574 . S
C192 C208 1.368 1_455 S
H193 C201 0.950 . S
H194 C199 0.950 . S
H195 C200 0.949 . S
H196 C202 0.950 . S
H197 C203 0.950 . S
H198 C204 0.949 . S
C199 H194 0.950 . S
C199 C201 1.327 . S
C199 C205 1.429 . S
C200 C192 1.574 . S
C200 H195 0.949 . S
C200 C206 1.368 1_455 S
C201 C185 1.349 . S
C201 H193 0.950 . S
C201 C199 1.327 . S
C202 C190 1.349 1_455 S
C202 H196 0.950 . S
C202 C203 1.327 . S
C203 H197 0.950 . S
C203 C202 1.327 . S
C203 C207 1.429 1_455 S
C204 C187 1.574 . S
C204 H198 0.949 . S
C204 C208 1.368 . S
C205 C186 1.429 1_655 S
C205 C199 1.429 . S
C205 C206 1.523 . S
C206 C187 1.368 . S
C206 C200 1.368 1_655 S
C206 C205 1.523 . S
C207 C191 1.429 . S
C207 C203 1.429 1_655 S
C207 C208 1.523 . S
C208 C192 1.368 1_655 S
C208 C204 1.368 . S
C208 C207 1.523 . S
H209 C184 0.950 . S
H210 C186 0.950 . S
H211 C187 0.949 . S
H212 C189 0.950 . S
H213 C191 0.950 . S
C214 C215 1.349 . S
C214 C216 1.327 . S
C214 H239 0.950 . S
C215 C214 1.349 . S
C215 C231 1.349 . S
C216 C214 1.327 . S
C216 C235 1.429 . S
C216 H240 0.950 . S
C217 C234 1.574 . S
C217 C236 1.368 . S
C217 H241 0.949 . S
H218 C222 0.949 . S
C219 C220 1.349 . S
C219 C221 1.327 . S
C219 H242 0.950 . S
C220 C219 1.349 . S
C220 C232 1.349 . S
C221 C219 1.327 . S
C221 C237 1.429 . S
C221 H243 0.950 . S
C222 H218 0.949 . S
C222 C230 1.574 . S
C222 C238 1.368 . S
H223 C231 0.950 . S
H224 C229 0.950 . S
H225 C230 0.949 . S
H226 C232 0.950 . S
H227 C233 0.950 . S
H228 C234 0.949 . S
C229 H224 0.950 . S
C229 C231 1.327 . S
C229 C235 1.429 . S
C230 C222 1.574 . S
C230 H225 0.949 . S
C230 C236 1.368 . S
C231 C215 1.349 . S
C231 H223 0.950 . S
C231 C229 1.327 . S
C232 C220 1.349 . S
C232 H226 0.950 . S
C232 C233 1.327 . S
C233 H227 0.950 . S
C233 C232 1.327 . S
C233 C237 1.429 . S
C234 C217 1.574 . S
C234 H228 0.949 . S
C234 C238 1.368 . S
C235 C216 1.429 . S
C235 C229 1.429 . S
C235 C236 1.523 . S
C236 C217 1.368 . S
C236 C230 1.368 . S
C236 C235 1.523 . S
C237 C221 1.429 . S
C237 C233 1.429 . S
C237 C238 1.523 . S
C238 C222 1.368 . S
C238 C234 1.368 . S
C238 C237 1.523 . S
H239 C214 0.950 . S
H240 C216 0.950 . S
H241 C217 0.949 . S
H242 C219 0.950 . S
H243 C221 0.950 . S
C244 C245 1.349 . S
C244 C246 1.327 . S
C244 H269 0.950 . S
C245 C244 1.349 . S
C245 C261 1.349 . S
C246 C244 1.327 . S
C246 C265 1.429 . S
C246 H270 0.950 . S
C247 C264 1.574 1_554 S
C247 C266 1.368 1_564 S
C247 H271 0.949 . S
H248 C252 0.949 . S
C249 C250 1.349 . S
C249 C251 1.327 . S
C249 H272 0.950 . S
C250 C249 1.349 . S
C250 C262 1.349 . S
C251 C249 1.327 . S
C251 C267 1.429 . S
C251 H273 0.950 . S
C252 H248 0.949 . S
C252 C260 1.574 . S
C252 C268 1.368 1_545 S
H253 C261 0.950 . S
H254 C259 0.950 . S
H255 C260 0.949 . S
H256 C262 0.950 . S
H257 C263 0.950 . S
H258 C264 0.949 . S
C259 H254 0.950 . S
C259 C261 1.327 . S
C259 C265 1.429 . S
C260 C252 1.574 . S
C260 H255 0.949 . S
C260 C266 1.368 . S
C261 C245 1.349 . S
C261 H253 0.950 . S
C261 C259 1.327 . S
C262 C250 1.349 . S
C262 H256 0.950 . S
C262 C263 1.327 . S
C263 H257 0.950 . S
C263 C262 1.327 . S
C263 C267 1.429 . S
C264 C247 1.574 1_556 S
C264 H258 0.949 . S
C264 C268 1.368 . S
C265 C246 1.429 . S
C265 C259 1.429 . S
C265 C266 1.523 1_554 S
C266 C247 1.368 1_546 S
C266 C260 1.368 . S
C266 C265 1.523 1_556 S
C267 C251 1.429 . S
C267 C263 1.429 . S
C267 C268 1.523 . S
C268 C252 1.368 1_565 S
C268 C264 1.368 . S
C268 C267 1.523 . S
H269 C244 0.950 . S
H270 C246 0.950 . S
H271 C247 0.949 . S
H272 C249 0.950 . S
H273 C251 0.950 . S
C274 C275 1.349 . S
C274 C276 1.327 . S
C274 H299 0.950 . S
C275 C274 1.349 . S
C275 C291 1.349 1_455 S
C276 C274 1.327 . S
C276 C295 1.429 . S
C276 H300 0.950 . S
C277 C294 1.574 1_565 S
C277 C296 1.368 1_655 S
C277 H301 0.949 . S
H278 C282 0.949 1_556 S
C279 C280 1.349 1_655 S
C279 C281 1.327 . S
C279 H302 0.950 . S
C280 C279 1.349 1_455 S
C280 C292 1.349 . S
C281 C279 1.327 . S
C281 C297 1.429 1_655 S
C281 H303 0.950 . S
C282 H278 0.949 1_554 S
C282 C290 1.574 . S
C282 C298 1.368 1_565 S
H283 C291 0.950 . S
H284 C289 0.950 . S
H285 C290 0.949 . S
H286 C292 0.950 . S
H287 C293 0.950 . S
H288 C294 0.949 . S
C289 H284 0.950 . S
C289 C291 1.327 . S
C289 C295 1.429 1_655 S
C290 C282 1.574 . S
C290 H285 0.949 . S
C290 C296 1.368 . S
C291 C275 1.349 1_655 S
C291 H283 0.950 . S
C291 C289 1.327 . S
C292 C280 1.349 . S
C292 H286 0.950 . S
C292 C293 1.327 . S
C293 H287 0.950 . S
C293 C292 1.327 . S
C293 C297 1.429 . S
C294 C277 1.574 1_545 S
C294 H288 0.949 . S
C294 C298 1.368 1_655 S
C295 C276 1.429 . S
C295 C289 1.429 1_455 S
C295 C296 1.523 . S
C296 C277 1.368 1_455 S
C296 C290 1.368 . S
C296 C295 1.523 . S
C297 C281 1.429 1_455 S
C297 C293 1.429 . S
C297 C298 1.523 1_556 S
C298 C282 1.368 1_545 S
C298 C294 1.368 1_455 S
C298 C297 1.523 1_554 S
H299 C274 0.950 . S
H300 C276 0.950 . S
H301 C277 0.949 . S
H302 C279 0.950 . S
H303 C281 0.950 . S
C304 C305 1.349 . S
C304 C306 1.327 . S
C304 H329 0.950 . S
C305 C304 1.349 . S
C305 C321 1.349 . S
C306 C304 1.327 . S
C306 C325 1.429 . S
C306 H330 0.950 . S
C307 C324 1.574 . S
C307 C326 1.368 . S
C307 H331 0.949 . S
H308 C312 0.949 . S
C309 C310 1.349 . S
C309 C311 1.327 . S
C309 H332 0.950 . S
C310 C309 1.349 . S
C310 C322 1.349 . S
C311 C309 1.327 . S
C311 C327 1.429 . S
C311 H333 0.950 . S
C312 H308 0.949 . S
C312 C320 1.574 . S
C312 C328 1.368 . S
H313 C321 0.950 . S
H314 C319 0.950 . S
H315 C320 0.949 . S
H316 C322 0.950 . S
H317 C323 0.950 . S
H318 C324 0.949 . S
C319 H314 0.950 . S
C319 C321 1.327 . S
C319 C325 1.429 . S
C320 C312 1.574 . S
C320 H315 0.949 . S
C320 C326 1.368 . S
C321 C305 1.349 . S
C321 H313 0.950 . S
C321 C319 1.327 . S
C322 C310 1.349 . S
C322 H316 0.950 . S
C322 C323 1.327 . S
C323 H317 0.950 . S
C323 C322 1.327 . S
C323 C327 1.429 . S
C324 C307 1.574 . S
C324 H318 0.949 . S
C324 C328 1.368 . S
C325 C306 1.429 . S
C325 C319 1.429 . S
C325 C326 1.523 . S
C326 C307 1.368 . S
C326 C320 1.368 . S
C326 C325 1.523 . S
C327 C311 1.429 . S
C327 C323 1.429 . S
C327 C328 1.523 . S
C328 C312 1.368 . S
C328 C324 1.368 . S
C328 C327 1.523 . S
H329 C304 0.950 . S
H330 C306 0.950 . S
H331 C307 0.949 . S
H332 C309 0.950 . S
H333 C311 0.950 . S
C334 C335 1.349 . S
C334 C336 1.327 . S
C334 H359 0.950 . S
C335 C334 1.349 . S
C335 C351 1.349 . S
C336 C334 1.327 . S
C336 C355 1.429 . S
C336 H360 0.950 . S
C337 C354 1.574 . S
C337 C356 1.368 . S
C337 H361 0.949 . S
H338 C342 0.949 . S
C339 C340 1.349 . S
C339 C341 1.327 . S
C339 H362 0.950 . S
C340 C339 1.349 . S
C340 C352 1.349 . S
C341 C339 1.327 . S
C341 C357 1.429 . S
C341 H363 0.950 . S
C342 H338 0.949 . S
C342 C350 1.574 . S
C342 C358 1.368 . S
H343 C351 0.950 . S
H344 C349 0.950 . S
H345 C350 0.949 . S
H346 C352 0.950 . S
H347 C353 0.950 . S
H348 C354 0.949 . S
C349 H344 0.950 . S
C349 C351 1.327 . S
C349 C355 1.429 . S
C350 C342 1.574 . S
C350 H345 0.949 . S
C350 C356 1.368 . S
C351 C335 1.349 . S
C351 H343 0.950 . S
C351 C349 1.327 . S
C352 C340 1.349 . S
C352 H346 0.950 . S
C352 C353 1.327 . S
C353 H347 0.950 . S
C353 C352 1.327 . S
C353 C357 1.429 . S
C354 C337 1.574 . S
C354 H348 0.949 . S
C354 C358 1.368 . S
C355 C336 1.429 . S
C355 C349 1.429 . S
C355 C356 1.523 . S
C356 C337 1.368 . S
C356 C350 1.368 . S
C356 C355 1.523 . S
C357 C341 1.429 . S
C357 C353 1.429 . S
C357 C358 1.523 . S
C358 C342 1.368 . S
C358 C354 1.368 . S
C358 C357 1.523 . S
H359 C334 0.950 . S
H360 C336 0.950 . S
H361 C337 0.949 . S
H362 C339 0.950 . S
H363 C341 0.950 . S
C364 C365 1.349 . S
C364 C366 1.327 . S
C364 H389 0.950 . S
C365 C364 1.349 . S
C365 C381 1.349 . S
C366 C364 1.327 . S
C366 C385 1.429 . S
C366 H390 0.950 . S
C367 C384 1.574 . S
C367 C386 1.368 . S
C367 H391 0.949 . S
H368 C372 0.949 . S
C369 C370 1.349 . S
C369 C371 1.327 . S
C369 H392 0.950 . S
C370 C369 1.349 . S
C370 C382 1.349 . S
C371 C369 1.327 . S
C371 C387 1.429 . S
C371 H393 0.950 . S
C372 H368 0.949 . S
C372 C380 1.574 . S
C372 C388 1.368 . S
H373 C381 0.950 . S
H374 C379 0.950 . S
H375 C380 0.949 . S
H376 C382 0.950 . S
H377 C383 0.950 . S
H378 C384 0.949 . S
C379 H374 0.950 . S
C379 C381 1.327 . S
C379 C385 1.429 . S
C380 C372 1.574 . S
C380 H375 0.949 . S
C380 C386 1.368 . S
C381 C365 1.349 . S
C381 H373 0.950 . S
C381 C379 1.327 . S
C382 C370 1.349 . S
C382 H376 0.950 . S
C382 C383 1.327 . S
C383 H377 0.950 . S
C383 C382 1.327 . S
C383 C387 1.429 . S
C384 C367 1.574 . S
C384 H378 0.949 . S
C384 C388 1.368 . S
C385 C366 1.429 . S
C385 C379 1.429 . S
C385 C386 1.523 . S
C386 C367 1.368 . S
C386 C380 1.368 . S
C386 C385 1.523 . S
C387 C371 1.429 . S
C387 C383 1.429 . S
C387 C388 1.523 . S
C388 C372 1.368 . S
C388 C384 1.368 . S
C388 C387 1.523 . S
H389 C364 0.950 . S
H390 C366 0.950 . S
H391 C367 0.949 . S
H392 C369 0.950 . S
H393 C371 0.950 . S
C394 C395 1.349 . S
C394 C396 1.327 . S
C394 H419 0.950 . S
C395 C394 1.349 . S
C395 C411 1.349 . S
C396 C394 1.327 . S
C396 C415 1.429 . S
C396 H420 0.950 . S
C397 C414 1.574 . S
C397 C416 1.368 . S
C397 H421 0.949 . S
H398 C402 0.949 . S
C399 C400 1.349 . S
C399 C401 1.327 . S
C399 H422 0.950 . S
C400 C399 1.349 . S
C400 C412 1.349 . S
C401 C399 1.327 . S
C401 C417 1.429 . S
C401 H423 0.950 . S
C402 H398 0.949 . S
C402 C410 1.574 . S
C402 C418 1.368 . S
H403 C411 0.950 . S
H404 C409 0.950 . S
H405 C410 0.949 . S
H406 C412 0.950 . S
H407 C413 0.950 . S
H408 C414 0.949 . S
C409 H404 0.950 . S
C409 C411 1.327 . S
C409 C415 1.429 . S
C410 C402 1.574 . S
C410 H405 0.949 . S
C410 C416 1.368 . S
C411 C395 1.349 . S
C411 H403 0.950 . S
C411 C409 1.327 . S
C412 C400 1.349 . S
C412 H406 0.950 . S
C412 C413 1.327 . S
C413 H407 0.950 . S
C413 C412 1.327 . S
C413 C417 1.429 . S
C414 C397 1.574 . S
C414 H408 0.949 . S
C414 C418 1.368 . S
C415 C396 1.429 . S
C415 C409 1.429 . S
C415 C416 1.523 . S
C416 C397 1.368 . S
C416 C410 1.368 . S
C416 C415 1.523 . S
C417 C401 1.429 . S
C417 C413 1.429 . S
C417 C418 1.523 . S
C418 C402 1.368 . S
C418 C414 1.368 . S
C418 C417 1.523 . S
H419 C394 0.950 . S
H420 C396 0.950 . S
H421 C397 0.949 . S
H422 C399 0.950 . S
H423 C401 0.950 . S
C424 C425 1.349 . S
C424 C426 1.327 . S
C424 H449 0.950 . S
C425 C424 1.349 . S
C425 C441 1.349 . S
C426 C424 1.327 . S
C426 C445 1.429 . S
C426 H450 0.950 . S
C427 C444 1.574 . S
C427 C446 1.368 . S
C427 H451 0.949 . S
H428 C432 0.949 . S
C429 C430 1.349 . S
C429 C431 1.327 . S
C429 H452 0.950 . S
C430 C429 1.349 . S
C430 C442 1.349 . S
C431 C429 1.327 . S
C431 C447 1.429 . S
C431 H453 0.950 . S
C432 H428 0.949 . S
C432 C440 1.574 . S
C432 C448 1.368 . S
H433 C441 0.950 . S
H434 C439 0.950 . S
H435 C440 0.949 . S
H436 C442 0.950 . S
H437 C443 0.950 . S
H438 C444 0.949 . S
C439 H434 0.950 . S
C439 C441 1.327 . S
C439 C445 1.429 . S
C440 C432 1.574 . S
C440 H435 0.949 . S
C440 C446 1.368 . S
C441 C425 1.349 . S
C441 H433 0.950 . S
C441 C439 1.327 . S
C442 C430 1.349 . S
C442 H436 0.950 . S
C442 C443 1.327 . S
C443 H437 0.950 . S
C443 C442 1.327 . S
C443 C447 1.429 . S
C444 C427 1.574 . S
C444 H438 0.949 . S
C444 C448 1.368 . S
C445 C426 1.429 . S
C445 C439 1.429 . S
C445 C446 1.523 . S
C446 C427 1.368 . S
C446 C440 1.368 . S
C446 C445 1.523 . S
C447 C431 1.429 . S
C447 C443 1.429 . S
C447 C448 1.523 . S
C448 C432 1.368 . S
C448 C444 1.368 . S
C448 C447 1.523 . S
H449 C424 0.950 . S
H450 C426 0.950 . S
H451 C427 0.949 . S
H452 C429 0.950 . S
H453 C431 0.950 . S
C454 C455 1.349 . S
C454 C456 1.327 . S
C454 H479 0.950 . S
C455 C454 1.349 . S
C455 C471 1.349 . S
C456 C454 1.327 . S
C456 C475 1.429 . S
C456 H480 0.950 . S
C457 C474 1.574 . S
C457 C476 1.368 . S
C457 H481 0.949 . S
H458 C462 0.949 . S
C459 C460 1.349 . S
C459 C461 1.327 . S
C459 H482 0.950 . S
C460 C459 1.349 . S
C460 C472 1.349 . S
C461 C459 1.327 . S
C461 C477 1.429 . S
C461 H483 0.950 . S
C462 H458 0.949 . S
C462 C470 1.574 . S
C462 C478 1.368 . S
H463 C471 0.950 . S
H464 C469 0.950 . S
H465 C470 0.949 . S
H466 C472 0.950 . S
H467 C473 0.950 . S
H468 C474 0.949 . S
C469 H464 0.950 . S
C469 C471 1.327 . S
C469 C475 1.429 . S
C470 C462 1.574 . S
C470 H465 0.949 . S
C470 C476 1.368 . S
C471 C455 1.349 . S
C471 H463 0.950 . S
C471 C469 1.327 . S
C472 C460 1.349 . S
C472 H466 0.950 . S
C472 C473 1.327 . S
C473 H467 0.950 . S
C473 C472 1.327 . S
C473 C477 1.429 . S
C474 C457 1.574 . S
C474 H468 0.949 . S
C474 C478 1.368 . S
C475 C456 1.429 . S
C475 C469 1.429 . S
C475 C476 1.523 . S
C476 C457 1.368 . S
C476 C470 1.368 . S
C476 C475 1.523 . S
C477 C461 1.429 . S
C477 C473 1.429 . S
C477 C478 1.523 . S
C478 C462 1.368 . S
C478 C474 1.368 . S
C478 C477 1.523 . S
H479 C454 0.950 . S
H480 C456 0.950 . S
H481 C457 0.949 . S
H482 C459 0.950 . S
H483 C461 0.950 . S
C484 C485 1.349 . S
C484 C486 1.327 . S
C484 H509 0.950 . S
C485 C484 1.349 . S
C485 C501 1.349 . S
C486 C484 1.327 . S
C486 C505 1.429 . S
C486 H510 0.950 . S
C487 C504 1.574 . S
C487 C506 1.368 . S
C487 H511 0.949 . S
H488 C492 0.949 . S
C489 C490 1.349 . S
C489 C491 1.327 . S
C489 H512 0.950 . S
C490 C489 1.349 . S
C490 C502 1.349 . S
C491 C489 1.327 . S
C491 C507 1.429 . S
C491 H513 0.950 . S
C492 H488 0.949 . S
C492 C500 1.574 . S
C492 C508 1.368 . S
H493 C501 0.950 . S
H494 C499 0.950 . S
H495 C500 0.949 . S
H496 C502 0.950 . S
H497 C503 0.950 . S
H498 C504 0.949 . S
C499 H494 0.950 . S
C499 C501 1.327 . S
C499 C505 1.429 . S
C500 C492 1.574 . S
C500 H495 0.949 . S
C500 C506 1.368 . S
C501 C485 1.349 . S
C501 H493 0.950 . S
C501 C499 1.327 . S
C502 C490 1.349 . S
C502 H496 0.950 . S
C502 C503 1.327 . S
C503 H497 0.950 . S
C503 C502 1.327 . S
C503 C507 1.429 . S
C504 C487 1.574 . S
C504 H498 0.949 . S
C504 C508 1.368 . S
C505 C486 1.429 . S
C505 C499 1.429 . S
C505 C506 1.523 . S
C506 C487 1.368 . S
C506 C500 1.368 . S
C506 C505 1.523 . S
C507 C491 1.429 . S
C507 C503 1.429 . S
C507 C508 1.523 . S
C508 C492 1.368 . S
C508 C504 1.368 . S
C508 C507 1.523 . S
H509 C484 0.950 . S
H510 C486 0.950 . S
H511 C487 0.949 . S
H512 C489 0.950 . S
H513 C491 0.950 . S
C514 C515 1.349 . S
C514 C516 1.327 . S
C514 H539 0.950 . S
C515 C514 1.349 . S
C515 C531 1.349 . S
C516 C514 1.327 . S
C516 C535 1.429 . S
C516 H540 0.950 . S
C517 C534 1.574 . S
C517 C536 1.368 . S
C517 H541 0.949 . S
H518 C522 0.949 . S
C519 C520 1.349 . S
C519 C521 1.327 . S
C519 H542 0.950 . S
C520 C519 1.349 . S
C520 C532 1.349 . S
C521 C519 1.327 . S
C521 C537 1.429 . S
C521 H543 0.950 . S
C522 H518 0.949 . S
C522 C530 1.574 . S
C522 C538 1.368 . S
H523 C531 0.950 . S
H524 C529 0.950 . S
H525 C530 0.949 . S
H526 C532 0.950 . S
H527 C533 0.950 . S
H528 C534 0.949 . S
C529 H524 0.950 . S
C529 C531 1.327 . S
C529 C535 1.429 . S
C530 C522 1.574 . S
C530 H525 0.949 . S
C530 C536 1.368 . S
C531 C515 1.349 . S
C531 H523 0.950 . S
C531 C529 1.327 . S
C532 C520 1.349 . S
C532 H526 0.950 . S
C532 C533 1.327 . S
C533 H527 0.950 . S
C533 C532 1.327 . S
C533 C537 1.429 . S
C534 C517 1.574 . S
C534 H528 0.949 . S
C534 C538 1.368 . S
C535 C516 1.429 . S
C535 C529 1.429 . S
C535 C536 1.523 . S
C536 C517 1.368 . S
C536 C530 1.368 . S
C536 C535 1.523 . S
C537 C521 1.429 . S
C537 C533 1.429 . S
C537 C538 1.523 . S
C538 C522 1.368 . S
C538 C534 1.368 . S
C538 C537 1.523 . S
H539 C514 0.950 . S
H540 C516 0.950 . S
H541 C517 0.949 . S
H542 C519 0.950 . S
H543 C521 0.950 . S
C544 C545 1.349 . S
C544 C546 1.327 . S
C544 H569 0.950 . S
C545 C544 1.349 . S
C545 C561 1.349 . S
C546 C544 1.327 . S
C546 C565 1.429 . S
C546 H570 0.950 . S
C547 C564 1.574 . S
C547 C566 1.368 . S
C547 H571 0.949 . S
H548 C552 0.949 . S
C549 C550 1.349 . S
C549 C551 1.327 . S
C549 H572 0.950 . S
C550 C549 1.349 . S
C550 C562 1.349 . S
C551 C549 1.327 . S
C551 C567 1.429 . S
C551 H573 0.950 . S
C552 H548 0.949 . S
C552 C560 1.574 . S
C552 C568 1.368 . S
H553 C561 0.950 . S
H554 C559 0.950 . S
H555 C560 0.949 . S
H556 C562 0.950 . S
H557 C563 0.950 . S
H558 C564 0.949 . S
C559 H554 0.950 . S
C559 C561 1.327 . S
C559 C565 1.429 . S
C560 C552 1.574 . S
C560 H555 0.949 . S
C560 C566 1.368 . S
C561 C545 1.349 . S
C561 H553 0.950 . S
C561 C559 1.327 . S
C562 C550 1.349 . S
C562 H556 0.950 . S
C562 C563 1.327 . S
C563 H557 0.950 . S
C563 C562 1.327 . S
C563 C567 1.429 . S
C564 C547 1.574 . S
C564 H558 0.949 . S
C564 C568 1.368 . S
C565 C546 1.429 . S
C565 C559 1.429 . S
C565 C566 1.523 . S
C566 C547 1.368 . S
C566 C560 1.368 . S
C566 C565 1.523 . S
C567 C551 1.429 . S
C567 C563 1.429 . S
C567 C568 1.523 . S
C568 C552 1.368 . S
C568 C564 1.368 . S
C568 C567 1.523 . S
H569 C544 0.950 . S
H570 C546 0.950 . S
H571 C547 0.949 . S
H572 C549 0.950 . S
H573 C551 0.950 . S
C574 C575 1.349 . S
C574 C576 1.327 . S
C574 H599 0.950 . S
C575 C574 1.349 . S
C575 C591 1.349 . S
C576 C574 1.327 . S
C576 C595 1.429 . S
C576 H600 0.950 . S
C577 C594 1.574 . S
C577 C596 1.368 . S
C577 H601 0.949 . S
H578 C582 0.949 . S
C579 C580 1.349 . S
C579 C581 1.327 . S
C579 H602 0.950 . S
C580 C579 1.349 . S
C580 C592 1.349 . S
C581 C579 1.327 . S
C581 C597 1.429 . S
C581 H603 0.950 . S
C582 H578 0.949 . S
C582 C590 1.574 . S
C582 C598 1.368 . S
H583 C591 0.950 . S
H584 C589 0.950 . S
H585 C590 0.949 . S
H586 C592 0.950 . S
H587 C593 0.950 . S
H588 C594 0.949 . S
C589 H584 0.950 . S
C589 C591 1.327 . S
C589 C595 1.429 . S
C590 C582 1.574 . S
C590 H585 0.949 . S
C590 C596 1.368 . S
C591 C575 1.349 . S
C591 H583 0.950 . S
C591 C589 1.327 . S
C592 C580 1.349 . S
C592 H586 0.950 . S
C592 C593 1.327 . S
C593 H587 0.950 . S
C593 C592 1.327 . S
C593 C597 1.429 . S
C594 C577 1.574 . S
C594 H588 0.949 . S
C594 C598 1.368 . S
C595 C576 1.429 . S
C595 C589 1.429 . S
C595 C596 1.523 . S
C596 C577 1.368 . S
C596 C590 1.368 . S
C596 C595 1.523 . S
C597 C581 1.429 . S
C597 C593 1.429 . S
C597 C598 1.523 . S
C598 C582 1.368 . S
C598 C594 1.368 . S
C598 C597 1.523 . S
H599 C574 0.950 . S
H600 C576 0.950 . S
H601 C577 0.949 . S
H602 C579 0.950 . S
H603 C581 0.950 . S
C604 C605 1.349 . S
C604 C606 1.327 . S
C604 H629 0.950 . S
C605 C604 1.349 . S
C605 C621 1.349 . S
C606 C604 1.327 . S
C606 C625 1.429 . S
C606 H630 0.950 . S
C607 C624 1.574 1_554 S
C607 C626 1.368 . S
C607 H631 0.949 . S
H608 C612 0.949 . S
C609 C610 1.349 . S
C609 C611 1.327 . S
C609 H632 0.950 . S
C610 C609 1.349 . S
C610 C622 1.349 . S
C611 C609 1.327 . S
C611 C627 1.429 . S
C611 H633 0.950 . S
C612 H608 0.949 . S
C612 C620 1.574 1_556 S
C612 C628 1.368 . S
H613 C621 0.950 . S
H614 C619 0.950 . S
H615 C620 0.949 . S
H616 C622 0.950 . S
H617 C623 0.950 . S
H618 C624 0.949 . S
C619 H614 0.950 . S
C619 C621 1.327 . S
C619 C625 1.429 . S
C620 C612 1.574 1_554 S
C620 H615 0.949 . S
C620 C626 1.368 . S
C621 C605 1.349 . S
C621 H613 0.950 . S
C621 C619 1.327 . S
C622 C610 1.349 . S
C622 H616 0.950 . S
C622 C623 1.327 . S
C623 H617 0.950 . S
C623 C622 1.327 . S
C623 C627 1.429 . S
C624 C607 1.574 1_556 S
C624 H618 0.949 . S
C624 C628 1.368 . S
C625 C606 1.429 . S
C625 C619 1.429 . S
C625 C626 1.523 . S
C626 C607 1.368 . S
C626 C620 1.368 . S
C626 C625 1.523 . S
C627 C611 1.429 . S
C627 C623 1.429 . S
C627 C628 1.523 . S
C628 C612 1.368 . S
C628 C624 1.368 . S
C628 C627 1.523 . S
H629 C604 0.950 . S
H630 C606 0.950 . S
H631 C607 0.949 . S
H632 C609 0.950 . S
H633 C611 0.950 . S
C634 C635 1.349 . S
C634 C636 1.327 . S
C634 H659 0.950 . S
C635 C634 1.349 . S
C635 C651 1.349 . S
C636 C634 1.327 . S
C636 C655 1.429 . S
C636 H660 0.950 . S
C637 C654 1.574 1_554 S
C637 C656 1.368 . S
C637 H661 0.949 . S
H638 C642 0.949 . S
C639 C640 1.349 . S
C639 C641 1.327 . S
C639 H662 0.950 . S
C640 C639 1.349 . S
C640 C652 1.349 . S
C641 C639 1.327 . S
C641 C657 1.429 . S
C641 H663 0.950 . S
C642 H638 0.949 . S
C642 C650 1.574 1_556 S
C642 C658 1.368 . S
H643 C651 0.950 . S
H644 C649 0.950 . S
H645 C650 0.949 . S
H646 C652 0.950 . S
H647 C653 0.950 . S
H648 C654 0.949 . S
C649 H644 0.950 . S
C649 C651 1.327 . S
C649 C655 1.429 . S
C650 C642 1.574 1_554 S
C650 H645 0.949 . S
C650 C656 1.368 . S
C651 C635 1.349 . S
C651 H643 0.950 . S
C651 C649 1.327 . S
C652 C640 1.349 . S
C652 H646 0.950 . S
C652 C653 1.327 . S
C653 H647 0.950 . S
C653 C652 1.327 . S
C653 C657 1.429 . S
C654 C637 1.574 1_556 S
C654 H648 0.949 . S
C654 C658 1.368 . S
C655 C636 1.429 . S
C655 C649 1.429 . S
C655 C656 1.523 . S
C656 C637 1.368 . S
C656 C650 1.368 . S
C656 C655 1.523 . S
C657 C641 1.429 . S
C657 C653 1.429 . S
C657 C658 1.523 . S
C658 C642 1.368 . S
C658 C654 1.368 . S
C658 C657 1.523 . S
H659 C634 0.950 . S
H660 C636 0.950 . S
H661 C637 0.949 . S
H662 C639 0.950 . S
H663 C641 0.950 . S
C185 C16 1.666 . S
C190 N58 1.731 . S
C215 N81 1.731 . S
C220 C39 1.666 . S
C245 N150 1.731 . S
C250 C108 1.667 . S
C275 C131 1.667 . S
C280 N173 1.731 . S
C305 C154 1.959 . S
C310 N12 1.936 . S
C335 N35 1.936 . S
C340 C177 1.955 1_655 S
C365 C62 1.955 1_455 S
C370 N104 1.936 . S
C395 C85 1.959 . S
C400 N127 1.936 . S
C425 N140 1.925 . S
C430 C7 2.054 . S
C455 C30 2.055 . S
C460 N163 1.926 . S
C485 C99 2.055 . S
C490 N48 1.926 . S
C515 C122 2.055 . S
C520 N71 1.926 . S
C545 N25 0.577 . S
C550 N2 0.577 . S
C575 C53 0.302 . S
C580 C76 0.302 . S
C605 N117 0.578 . S
C610 N94 0.578 . S
C635 C145 0.303 . S
C640 C168 0.303 . S
