# Generated by pormake.
# Topology ukd, (4)-cn, num edge types: 1
# Building blocks:
#     Node 0, Type 0, BuildingBlock: QUQFOY_clean_sbu_1, # of connection points: 4
#     Node 1, Type 0, BuildingBlock: QUQFOY_clean_sbu_1, # of connection points: 4
#     Node 2, Type 0, BuildingBlock: QUQFOY_clean_sbu_1, # of connection points: 4
#     Node 3, Type 0, BuildingBlock: QUQFOY_clean_sbu_1, # of connection points: 4
#     Node 4, Type 0, BuildingBlock: QUQFOY_clean_sbu_1, # of connection points: 4
#     Node 5, Type 0, BuildingBlock: QUQFOY_clean_sbu_1, # of connection points: 4
#     Node 6, Type 0, BuildingBlock: QUQFOY_clean_sbu_1, # of connection points: 4
#     Node 7, Type 0, BuildingBlock: QUQFOY_clean_sbu_1, # of connection points: 4
#     Node 8, Type 0, BuildingBlock: QUQFOY_clean_sbu_1, # of connection points: 4
#     Node 9, Type 0, BuildingBlock: QUQFOY_clean_sbu_1, # of connection points: 4
#     Node 10, Type 0, BuildingBlock: QUQFOY_clean_sbu_1, # of connection points: 4
#     Node 11, Type 0, BuildingBlock: QUQFOY_clean_sbu_1, # of connection points: 4
#     Node 12, Type 0, BuildingBlock: QUQFOY_clean_sbu_1, # of connection points: 4
#     Node 13, Type 0, BuildingBlock: QUQFOY_clean_sbu_1, # of connection points: 4
#     Node 14, Type 0, BuildingBlock: QUQFOY_clean_sbu_1, # of connection points: 4
#     Node 15, Type 0, BuildingBlock: QUQFOY_clean_sbu_1, # of connection points: 4
#     Node 16, Type 0, BuildingBlock: QUQFOY_clean_sbu_1, # of connection points: 4
#     Node 17, Type 0, BuildingBlock: QUQFOY_clean_sbu_1, # of connection points: 4
#     Node 18, Type 0, BuildingBlock: QUQFOY_clean_sbu_1, # of connection points: 4
#     Node 19, Type 0, BuildingBlock: QUQFOY_clean_sbu_1, # of connection points: 4
#     Node 20, Type 0, BuildingBlock: QUQFOY_clean_sbu_1, # of connection points: 4
#     Node 21, Type 0, BuildingBlock: QUQFOY_clean_sbu_1, # of connection points: 4
#     Node 22, Type 0, BuildingBlock: QUQFOY_clean_sbu_1, # of connection points: 4
#     Node 23, Type 0, BuildingBlock: QUQFOY_clean_sbu_1, # of connection points: 4
#     Node 24, Type 0, BuildingBlock: QUQFOY_clean_sbu_1, # of connection points: 4
#     Node 25, Type 0, BuildingBlock: QUQFOY_clean_sbu_1, # of connection points: 4
#     Node 26, Type 0, BuildingBlock: QUQFOY_clean_sbu_1, # of connection points: 4
#     Node 27, Type 0, BuildingBlock: QUQFOY_clean_sbu_1, # of connection points: 4
#     Node 28, Type 0, BuildingBlock: QUQFOY_clean_sbu_1, # of connection points: 4
#     Node 29, Type 0, BuildingBlock: QUQFOY_clean_sbu_1, # of connection points: 4
#     Node 30, Type 0, BuildingBlock: QUQFOY_clean_sbu_1, # of connection points: 4
#     Node 31, Type 0, BuildingBlock: QUQFOY_clean_sbu_1, # of connection points: 4
#     Edge 32, Type (0, 0), BuildingBlock: AJUNOK_clean_linker_0, # of connection points: 2
#     Edge 33, Type (0, 0), BuildingBlock: AJUNOK_clean_linker_0, # of connection points: 2
#     Edge 34, Type (0, 0), BuildingBlock: AJUNOK_clean_linker_0, # of connection points: 2
#     Edge 35, Type (0, 0), BuildingBlock: AJUNOK_clean_linker_0, # of connection points: 2
#     Edge 36, Type (0, 0), BuildingBlock: AJUNOK_clean_linker_0, # of connection points: 2
#     Edge 37, Type (0, 0), BuildingBlock: AJUNOK_clean_linker_0, # of connection points: 2
#     Edge 38, Type (0, 0), BuildingBlock: AJUNOK_clean_linker_0, # of connection points: 2
#     Edge 39, Type (0, 0), BuildingBlock: AJUNOK_clean_linker_0, # of connection points: 2
#     Edge 40, Type (0, 0), BuildingBlock: AJUNOK_clean_linker_0, # of connection points: 2
#     Edge 41, Type (0, 0), BuildingBlock: AJUNOK_clean_linker_0, # of connection points: 2
#     Edge 42, Type (0, 0), BuildingBlock: AJUNOK_clean_linker_0, # of connection points: 2
#     Edge 43, Type (0, 0), BuildingBlock: AJUNOK_clean_linker_0, # of connection points: 2
#     Edge 44, Type (0, 0), BuildingBlock: AJUNOK_clean_linker_0, # of connection points: 2
#     Edge 45, Type (0, 0), BuildingBlock: AJUNOK_clean_linker_0, # of connection points: 2
#     Edge 46, Type (0, 0), BuildingBlock: AJUNOK_clean_linker_0, # of connection points: 2
#     Edge 47, Type (0, 0), BuildingBlock: AJUNOK_clean_linker_0, # of connection points: 2
#     Edge 48, Type (0, 0), BuildingBlock: AJUNOK_clean_linker_0, # of connection points: 2
#     Edge 49, Type (0, 0), BuildingBlock: AJUNOK_clean_linker_0, # of connection points: 2
#     Edge 50, Type (0, 0), BuildingBlock: AJUNOK_clean_linker_0, # of connection points: 2
#     Edge 51, Type (0, 0), BuildingBlock: AJUNOK_clean_linker_0, # of connection points: 2
#     Edge 52, Type (0, 0), BuildingBlock: AJUNOK_clean_linker_0, # of connection points: 2
#     Edge 53, Type (0, 0), BuildingBlock: AJUNOK_clean_linker_0, # of connection points: 2
#     Edge 54, Type (0, 0), BuildingBlock: AJUNOK_clean_linker_0, # of connection points: 2
#     Edge 55, Type (0, 0), BuildingBlock: AJUNOK_clean_linker_0, # of connection points: 2
#     Edge 56, Type (0, 0), BuildingBlock: AJUNOK_clean_linker_0, # of connection points: 2
#     Edge 57, Type (0, 0), BuildingBlock: AJUNOK_clean_linker_0, # of connection points: 2
#     Edge 58, Type (0, 0), BuildingBlock: AJUNOK_clean_linker_0, # of connection points: 2
#     Edge 59, Type (0, 0), BuildingBlock: AJUNOK_clean_linker_0, # of connection points: 2
#     Edge 60, Type (0, 0), BuildingBlock: AJUNOK_clean_linker_0, # of connection points: 2
#     Edge 61, Type (0, 0), BuildingBlock: AJUNOK_clean_linker_0, # of connection points: 2
#     Edge 62, Type (0, 0), BuildingBlock: AJUNOK_clean_linker_0, # of connection points: 2
#     Edge 63, Type (0, 0), BuildingBlock: AJUNOK_clean_linker_0, # of connection points: 2
#     Edge 64, Type (0, 0), BuildingBlock: AJUNOK_clean_linker_0, # of connection points: 2
#     Edge 65, Type (0, 0), BuildingBlock: AJUNOK_clean_linker_0, # of connection points: 2
#     Edge 66, Type (0, 0), BuildingBlock: AJUNOK_clean_linker_0, # of connection points: 2
#     Edge 67, Type (0, 0), BuildingBlock: AJUNOK_clean_linker_0, # of connection points: 2
#     Edge 68, Type (0, 0), BuildingBlock: AJUNOK_clean_linker_0, # of connection points: 2
#     Edge 69, Type (0, 0), BuildingBlock: AJUNOK_clean_linker_0, # of connection points: 2
#     Edge 70, Type (0, 0), BuildingBlock: AJUNOK_clean_linker_0, # of connection points: 2
#     Edge 71, Type (0, 0), BuildingBlock: AJUNOK_clean_linker_0, # of connection points: 2
#     Edge 72, Type (0, 0), BuildingBlock: AJUNOK_clean_linker_0, # of connection points: 2
#     Edge 73, Type (0, 0), BuildingBlock: AJUNOK_clean_linker_0, # of connection points: 2
#     Edge 74, Type (0, 0), BuildingBlock: AJUNOK_clean_linker_0, # of connection points: 2
#     Edge 75, Type (0, 0), BuildingBlock: AJUNOK_clean_linker_0, # of connection points: 2
#     Edge 76, Type (0, 0), BuildingBlock: AJUNOK_clean_linker_0, # of connection points: 2
#     Edge 77, Type (0, 0), BuildingBlock: AJUNOK_clean_linker_0, # of connection points: 2
#     Edge 78, Type (0, 0), BuildingBlock: AJUNOK_clean_linker_0, # of connection points: 2
#     Edge 79, Type (0, 0), BuildingBlock: AJUNOK_clean_linker_0, # of connection points: 2
#     Edge 80, Type (0, 0), BuildingBlock: AJUNOK_clean_linker_0, # of connection points: 2
#     Edge 81, Type (0, 0), BuildingBlock: AJUNOK_clean_linker_0, # of connection points: 2
#     Edge 82, Type (0, 0), BuildingBlock: AJUNOK_clean_linker_0, # of connection points: 2
#     Edge 83, Type (0, 0), BuildingBlock: AJUNOK_clean_linker_0, # of connection points: 2
#     Edge 84, Type (0, 0), BuildingBlock: AJUNOK_clean_linker_0, # of connection points: 2
#     Edge 85, Type (0, 0), BuildingBlock: AJUNOK_clean_linker_0, # of connection points: 2
#     Edge 86, Type (0, 0), BuildingBlock: AJUNOK_clean_linker_0, # of connection points: 2
#     Edge 87, Type (0, 0), BuildingBlock: AJUNOK_clean_linker_0, # of connection points: 2
#     Edge 88, Type (0, 0), BuildingBlock: AJUNOK_clean_linker_0, # of connection points: 2
#     Edge 89, Type (0, 0), BuildingBlock: AJUNOK_clean_linker_0, # of connection points: 2
#     Edge 90, Type (0, 0), BuildingBlock: AJUNOK_clean_linker_0, # of connection points: 2
#     Edge 91, Type (0, 0), BuildingBlock: AJUNOK_clean_linker_0, # of connection points: 2
#     Edge 92, Type (0, 0), BuildingBlock: AJUNOK_clean_linker_0, # of connection points: 2
#     Edge 93, Type (0, 0), BuildingBlock: AJUNOK_clean_linker_0, # of connection points: 2
#     Edge 94, Type (0, 0), BuildingBlock: AJUNOK_clean_linker_0, # of connection points: 2
#     Edge 95, Type (0, 0), BuildingBlock: AJUNOK_clean_linker_0, # of connection points: 2
# Relax obj value: 0.012
# Max RMSD: 0.047
# Mean RMSD: 0.047
data_MOF--net-ukd--node1-QUQFOY_clean_sbu_1--edge1-AJUNOK_clean_linker_0
_symmetry_space_group_name_H-M    P1
_symmetry_Int_Tables_number       1
_symmetry_cell_setting            triclinic
loop_
_symmetry_equiv_pos_as_xyz
'x, y, z'
_cell_length_a     34.250372
_cell_length_b     34.254095
_cell_length_c     58.279701
_cell_angle_alpha  89.98643
_cell_angle_beta   89.958497
_cell_angle_gamma 90.025982
loop_
_atom_site_label
_atom_site_type_symbol
_atom_site_fract_x
_atom_site_fract_y
_atom_site_fract_z
_atom_type_partial_charge
O0 O 0.19338 0.16128 0.3934 0.0
Cd1 Cd 0.23979 0.19948 0.39292 0.0
Cd2 Cd 0.20494 0.21966 0.35231 0.0
O3 O 0.1704 0.17087 0.35854 0.0
O4 O 0.27974 0.17634 0.41388 0.0
O5 O 0.28849 0.18225 0.37646 0.0
C6 C 0.30113 0.16982 0.39605 0.0
C7 C 0.22884 0.23533 0.31575 0.0
C8 C 0.16936 0.15263 0.37758 0.0
C9 C 0.20606 0.27884 0.39139 0.0
O10 O 0.19386 0.26856 0.37171 0.0
O11 O 0.22762 0.25619 0.40314 0.0
O12 O 0.19228 0.23815 0.32066 0.0
O13 O 0.25168 0.22115 0.3313 0.0
O14 O 0.11415 0.94361 0.64393 0.0
Cd15 Cd 0.07702 0.99079 0.64331 0.0
Cd16 Cd 0.05609 0.957 0.60255 0.0
O17 O 0.10366 0.92096 0.60907 0.0
O18 O 0.10143 0.03158 0.66318 0.0
O19 O 0.09445 0.03809 0.62566 0.0
C20 C 0.10778 0.05171 0.64482 0.0
C21 C 0.0415 0.98004 0.56565 0.0
C22 C 0.1219 0.9193 0.62808 0.0
C23 C 0.99653 0.96012 0.64152 0.0
O24 O 1.00645 0.94803 0.62176 0.0
O25 O 0.02007 0.98006 0.65365 0.0
O26 O 0.03746 0.94379 0.57101 0.0
O27 O 0.0563 1.00299 0.58095 0.0
O28 O 0.33506 0.86657 0.89401 0.0
Cd29 Cd 0.28914 0.82783 0.89352 0.0
Cd30 Cd 0.32367 0.80871 0.85266 0.0
O31 O 0.35761 0.85787 0.85896 0.0
O32 O 0.24883 0.8504 0.91447 0.0
O33 O 0.24044 0.84475 0.87701 0.0
C34 C 0.22757 0.85697 0.89661 0.0
C35 C 0.29969 0.79339 0.8161 0.0
C36 C 0.35868 0.87583 0.87808 0.0
C37 C 0.32363 0.74886 0.89142 0.0
O38 O 0.33547 0.7596 0.87174 0.0
O39 O 0.30199 0.77108 0.90342 0.0
O40 O 0.33631 0.79088 0.82088 0.0
O41 O 0.27679 0.80705 0.8318 0.0
O42 O 0.41365 0.08471 0.14526 0.0
Cd43 Cd 0.45067 0.03741 0.145 0.0
Cd44 Cd 0.47134 0.06991 0.10402 0.0
O45 O 0.42415 0.10659 0.11023 0.0
O46 O 0.42671 0.99777 0.16585 0.0
O47 O 0.4327 0.98914 0.12843 0.0
C48 C 0.42 0.97656 0.14799 0.0
C49 C 0.48437 0.04324 0.06782 0.0
C50 C 0.406 0.10876 0.12926 0.0
C51 C 0.53127 0.06798 0.1426 0.0
O52 O 0.52132 0.07955 0.12274 0.0
O53 O 0.50773 0.04843 0.15497 0.0
O54 O 0.48913 0.07991 0.07189 0.0
O55 O 0.46984 0.02201 0.08405 0.0
O56 O 0.19217 0.86328 0.15276 0.0
Cd57 Cd 0.23926 0.82605 0.15355 0.0
Cd58 Cd 0.20556 0.80564 0.19431 0.0
O59 O 0.16968 0.8533 0.18772 0.0
O60 O 0.28046 0.85035 0.1339 0.0
O61 O 0.28622 0.8434 0.17147 0.0
C62 C 0.30023 0.85671 0.15239 0.0
C63 C 0.22871 0.79129 0.2312 0.0
C64 C 0.16799 0.87133 0.16864 0.0
C65 C 0.20849 0.74569 0.1556 0.0
O66 O 0.19635 0.75586 0.17531 0.0
O67 O 0.22854 0.76904 0.14338 0.0
O68 O 0.19242 0.78739 0.22593 0.0
O69 O 0.25167 0.80581 0.2158 0.0
O70 O 0.41232 0.94247 0.40214 0.0
Cd71 Cd 0.4505 0.98883 0.40282 0.0
Cd72 Cd 0.46937 0.95561 0.44362 0.0
O73 O 0.4211 0.9204 0.43727 0.0
O74 O 0.4272 0.03007 0.38279 0.0
O75 O 0.43363 0.03637 0.42035 0.0
C76 C 0.4208 0.05022 0.40114 0.0
C77 C 0.48235 0.98324 0.47954 0.0
C78 C 0.4033 0.91885 0.41811 0.0
C79 C 0.53022 0.95636 0.4055 0.0
O80 O 0.51941 0.94458 0.42518 0.0
O81 O 0.50755 0.97686 0.39312 0.0
O82 O 0.48628 0.94631 0.47597 0.0
O83 O 0.46863 1.0042 0.46297 0.0
O84 O 0.33513 0.16514 0.65306 0.0
Cd85 Cd 0.28807 0.20247 0.65332 0.0
Cd86 Cd 0.32165 0.22312 0.69443 0.0
O87 O 0.35744 0.17533 0.68802 0.0
O88 O 0.24865 0.1787 0.63227 0.0
O89 O 0.23954 0.18441 0.66967 0.0
C90 C 0.22722 0.17183 0.65004 0.0
C91 C 0.29823 0.23789 0.73123 0.0
C92 C 0.35918 0.15716 0.66899 0.0
C93 C 0.31928 0.28284 0.65556 0.0
O94 O 0.33117 0.27272 0.67533 0.0
O95 O 0.29929 0.25951 0.64332 0.0
O96 O 0.33458 0.24164 0.72602 0.0
O97 O 0.27537 0.22324 0.71583 0.0
O98 O 0.11686 0.08474 0.90239 0.0
Cd99 Cd 0.07867 0.03834 0.90324 0.0
Cd100 Cd 0.05942 0.07226 0.94358 0.0
O101 O 0.10792 0.10719 0.93742 0.0
O102 O 0.10203 0.99707 0.88325 0.0
O103 O 0.09535 0.99073 0.92079 0.0
C104 C 0.10825 0.97686 0.90159 0.0
C105 C 0.04567 0.04459 0.9794 0.0
C106 C 0.12577 0.10858 0.91826 0.0
C107 C 0.99937 0.07191 0.90514 0.0
O108 O 1.00998 0.08397 0.92478 0.0
O109 O 0.02183 0.05039 0.89322 0.0
O110 O 0.04205 0.08156 0.97585 0.0
O111 O 0.05946 0.02358 0.96287 0.0
O112 O 0.83422 0.76119 0.67548 0.0
Cd113 Cd 0.8227 0.81039 0.69454 0.0
Cd114 Cd 0.78795 0.82953 0.65378 0.0
O115 O 0.80029 0.77262 0.644 0.0
O116 O 0.83556 0.7926 0.72629 0.0
O117 O 0.77597 0.80878 0.71557 0.0
C118 C 0.79898 0.79511 0.7312 0.0
C119 C 0.72659 0.85903 0.65031 0.0
C120 C 0.82202 0.75037 0.65591 0.0
C121 C 0.85796 0.87715 0.66891 0.0
O122 O 0.83419 0.86792 0.65308 0.0
O123 O 0.85686 0.85936 0.68809 0.0
O124 O 0.74809 0.85214 0.63258 0.0
O125 O 0.73912 0.84701 0.67002 0.0
O126 O 0.91232 0.08407 0.40203 0.0
Cd127 Cd 0.95041 0.03767 0.40262 0.0
Cd128 Cd 0.97037 0.0713 0.44316 0.0
O129 O 0.92225 0.10677 0.43692 0.0
O130 O 0.92664 0.99629 0.38289 0.0
O131 O 0.93386 0.99027 0.42042 0.0
C132 C 0.92064 0.97627 0.40134 0.0
C133 C 0.98363 0.04435 0.47924 0.0
C134 C 0.90391 0.10804 0.41793 0.0
C135 C 0.03041 0.06969 0.40459 0.0
O136 O 0.02019 0.0816 0.42434 0.0
O137 O 1.00725 0.04939 0.39241 0.0
O138 O 0.98791 0.08115 0.47534 0.0
O139 O 0.96949 0.02314 0.46291 0.0
O140 O 0.69316 0.26758 0.17563 0.0
Cd141 Cd 0.70485 0.2186 0.19485 0.0
Cd142 Cd 0.73953 0.19917 0.15401 0.0
O143 O 0.72686 0.25593 0.14406 0.0
O144 O 0.692 0.2367 0.22655 0.0
O145 O 0.75157 0.22038 0.21583 0.0
C146 C 0.72858 0.2342 0.23144 0.0
C147 C 0.8009 0.16972 0.15034 0.0
C148 C 0.70514 0.27822 0.15596 0.0
C149 C 0.6697 0.15153 0.16951 0.0
O150 O 0.69341 0.16065 0.15359 0.0
O151 O 0.67079 0.16952 0.18861 0.0
O152 O 0.7792 0.17647 0.1327 0.0
O153 O 0.78858 0.18189 0.17007 0.0
O154 O 0.61427 0.9429 0.90266 0.0
Cd155 Cd 0.57735 0.99026 0.90293 0.0
Cd156 Cd 0.55617 0.95685 0.94405 0.0
O157 O 0.60348 0.92045 0.93755 0.0
O158 O 0.60139 0.02955 0.88188 0.0
O159 O 0.59557 0.0387 0.91927 0.0
C160 C 0.60825 0.05098 0.89963 0.0
C161 C 0.54171 0.9797 0.98104 0.0
C162 C 0.62177 0.9186 0.91856 0.0
C163 C 0.4967 0.95978 0.90508 0.0
O164 O 0.5065 0.948 0.92492 0.0
O165 O 0.52035 0.97938 0.89281 0.0
O166 O 0.53752 0.94352 0.97559 0.0
O167 O 0.55652 1.00272 0.96576 0.0
O168 O 0.83382 0.27041 0.87124 0.0
Cd169 Cd 0.82329 0.22116 0.852 0.0
Cd170 Cd 0.7895 0.20072 0.89257 0.0
O171 O 0.80085 0.25752 0.90291 0.0
O172 O 0.836 0.23954 0.82032 0.0
O173 O 0.77673 0.22178 0.83083 0.0
C174 C 0.79956 0.23606 0.81528 0.0
C175 C 0.72841 0.17032 0.89421 0.0
C176 C 0.82187 0.2805 0.89102 0.0
C177 C 0.86049 0.1551 0.87731 0.0
O178 O 0.83643 0.16326 0.89323 0.0
O179 O 0.85874 0.1731 0.85823 0.0
O180 O 0.74863 0.17661 0.91254 0.0
O181 O 0.74204 0.18356 0.87503 0.0
O182 O 0.61458 0.08628 0.64294 0.0
Cd183 Cd 0.57671 0.03964 0.6425 0.0
Cd184 Cd 0.55639 0.07333 0.60188 0.0
O185 O 0.60484 0.1084 0.6079 0.0
O186 O 0.60059 0.99892 0.66264 0.0
O187 O 0.59356 0.99182 0.62517 0.0
C188 C 0.60678 0.97843 0.6444 0.0
C189 C 0.54098 0.04924 0.56533 0.0
C190 C 0.62293 0.11013 0.62694 0.0
C191 C 0.49723 0.07272 0.64104 0.0
O192 O 0.50738 0.08445 0.62123 0.0
O193 O 0.52004 0.05155 0.65293 0.0
O194 O 0.53786 0.08577 0.57021 0.0
O195 O 0.55525 0.02653 0.58092 0.0
O196 O 0.6958 0.75716 0.37214 0.0
Cd197 Cd 0.70652 0.80724 0.35369 0.0
Cd198 Cd 0.73992 0.82636 0.39459 0.0
O199 O 0.72813 0.76921 0.40415 0.0
O200 O 0.69682 0.79029 0.32138 0.0
O201 O 0.75487 0.80806 0.33408 0.0
C202 C 0.73371 0.79427 0.31762 0.0
C203 C 0.8012 0.85623 0.39731 0.0
C204 C 0.70771 0.74643 0.39179 0.0
C205 C 0.66952 0.87306 0.37936 0.0
O206 O 0.69332 0.86425 0.39526 0.0
O207 O 0.67108 0.85529 0.36019 0.0
O208 O 0.78031 0.84939 0.41531 0.0
O209 O 0.78808 0.84398 0.37778 0.0
O210 O 0.91249 0.94225 0.14284 0.0
Cd211 Cd 0.95044 0.98884 0.14222 0.0
Cd212 Cd 0.97048 0.95484 0.10163 0.0
O213 O 0.92195 0.91996 0.1078 0.0
O214 O 0.92675 0.02965 0.16238 0.0
O215 O 0.93354 0.03665 0.12489 0.0
C216 C 0.92047 0.05012 0.14415 0.0
C217 C 0.98595 0.97881 0.06506 0.0
C218 C 0.90398 0.91835 0.12691 0.0
C219 C 0.02982 0.95551 0.14062 0.0
O220 O 0.0195 0.9436 0.12089 0.0
O221 O 1.00716 0.97689 0.1525 0.0
O222 O 0.98889 0.94227 0.06995 0.0
O223 O 0.97178 1.00161 0.08064 0.0
O224 O 0.69399 0.66187 0.89359 0.0
Cd225 Cd 0.73995 0.70056 0.8933 0.0
Cd226 Cd 0.70644 0.71962 0.85256 0.0
O227 O 0.67221 0.67051 0.85839 0.0
O228 O 0.77973 0.67789 0.91453 0.0
O229 O 0.78899 0.68352 0.87714 0.0
C230 C 0.80137 0.67125 0.89683 0.0
C231 C 0.73414 0.73421 0.81684 0.0
C232 C 0.67071 0.65258 0.87751 0.0
C233 C 0.70531 0.77949 0.89112 0.0
O234 O 0.69368 0.76875 0.87141 0.0
O235 O 0.72697 0.75732 0.90313 0.0
O236 O 0.69708 0.73707 0.82031 0.0
O237 O 0.75529 0.72068 0.83338 0.0
O238 O 0.61404 0.44146 0.1441 0.0
Cd239 Cd 0.57705 0.48875 0.14344 0.0
Cd240 Cd 0.55634 0.45534 0.10263 0.0
O241 O 0.60365 0.41898 0.1092 0.0
O242 O 0.60143 0.52948 0.16335 0.0
O243 O 0.59462 0.53601 0.12582 0.0
C244 C 0.60787 0.54962 0.145 0.0
C245 C 0.54235 0.47861 0.06569 0.0
C246 C 0.62176 0.41717 0.12824 0.0
C247 C 0.49649 0.45844 0.14143 0.0
O248 O 0.50647 0.44647 0.12165 0.0
O249 O 0.52004 0.47817 0.15366 0.0
O250 O 0.53804 0.44237 0.071 0.0
O251 O 0.55702 0.50144 0.08109 0.0
O252 O 0.83484 0.36442 0.39457 0.0
Cd253 Cd 0.7881 0.32668 0.39422 0.0
Cd254 Cd 0.82062 0.30681 0.35336 0.0
O255 O 0.85664 0.35454 0.35947 0.0
O256 O 0.74707 0.35051 0.41418 0.0
O257 O 0.74051 0.34341 0.37668 0.0
C258 C 0.7268 0.35658 0.39585 0.0
C259 C 0.79345 0.29355 0.31734 0.0
C260 C 0.85865 0.37259 0.37852 0.0
C261 C 0.81974 0.24663 0.39183 0.0
O262 O 0.83115 0.2569 0.37199 0.0
O263 O 0.7998 0.26977 0.40425 0.0
O264 O 0.83027 0.2893 0.32115 0.0
O265 O 0.77235 0.30773 0.33372 0.0
O266 O 0.91276 0.58692 0.64438 0.0
Cd267 Cd 0.95017 0.53988 0.64371 0.0
Cd268 Cd 0.97017 0.57283 0.60325 0.0
O269 O 0.92247 0.60882 0.60928 0.0
O270 O 0.92613 0.49878 0.66356 0.0
O271 O 0.93314 0.49256 0.62603 0.0
C272 C 0.91996 0.47869 0.64516 0.0
C273 C 0.98342 0.54503 0.5674 0.0
C274 C 0.9046 0.61086 0.6284 0.0
C275 C 0.0301 0.57194 0.64176 0.0
O276 O 0.01983 0.58377 0.622 0.0
O277 O 1.00713 0.55112 0.6538 0.0
O278 O 0.98776 0.58191 0.57099 0.0
O279 O 0.96921 0.52423 0.58391 0.0
O280 O 0.69267 0.36578 0.65226 0.0
Cd281 Cd 0.73964 0.32827 0.65259 0.0
Cd282 Cd 0.70686 0.30819 0.69333 0.0
O283 O 0.67109 0.35612 0.68744 0.0
O284 O 0.77961 0.35182 0.63176 0.0
O285 O 0.78796 0.34589 0.66921 0.0
C286 C 0.80074 0.35846 0.64966 0.0
C287 C 0.73439 0.29449 0.72921 0.0
C288 C 0.66893 0.37401 0.66833 0.0
C289 C 0.70704 0.24847 0.65467 0.0
O290 O 0.69545 0.25872 0.67449 0.0
O291 O 0.72792 0.27134 0.64261 0.0
O292 O 0.69749 0.29051 0.72555 0.0
O293 O 0.75541 0.30857 0.71274 0.0
O294 O 0.91326 0.44324 0.90324 0.0
Cd295 Cd 0.95081 0.49011 0.90385 0.0
Cd296 Cd 0.97111 0.45651 0.94469 0.0
O297 O 0.92329 0.42078 0.93819 0.0
O298 O 0.9269 0.53112 0.88395 0.0
O299 O 0.93377 0.53755 0.92147 0.0
C300 C 0.92065 0.55129 0.9023 0.0
C301 C 0.98571 0.47965 0.98157 0.0
C302 C 0.90519 0.41911 0.91914 0.0
C303 C 0.03094 0.45871 0.90588 0.0
O304 O 0.02077 0.44687 0.92565 0.0
O305 O 1.00771 0.47881 0.89364 0.0
O306 O 0.98934 0.44333 0.97631 0.0
O307 O 0.97132 0.50267 0.96617 0.0
O308 O 0.83537 0.66283 0.15343 0.0
Cd309 Cd 0.78826 0.70012 0.15374 0.0
Cd310 Cd 0.8219 0.72102 0.19455 0.0
O311 O 0.85756 0.67306 0.18841 0.0
O312 O 0.74893 0.67632 0.13265 0.0
O313 O 0.73964 0.68219 0.17003 0.0
C314 C 0.7274 0.66956 0.15039 0.0
C315 C 0.79833 0.73609 0.2313 0.0
C316 C 0.85941 0.65491 0.16938 0.0
C317 C 0.82044 0.78011 0.15536 0.0
O318 O 0.83227 0.77018 0.17518 0.0
O319 O 0.79964 0.75696 0.14347 0.0
O320 O 0.83472 0.73963 0.22614 0.0
O321 O 0.77544 0.72166 0.21585 0.0
O322 O 0.61528 0.58358 0.40265 0.0
Cd323 Cd 0.57709 0.53719 0.40351 0.0
Cd324 Cd 0.55802 0.5718 0.44429 0.0
O325 O 0.60683 0.60612 0.43772 0.0
O326 O 0.59989 0.49684 0.38268 0.0
O327 O 0.59458 0.48887 0.4202 0.0
C328 C 0.60674 0.47585 0.40062 0.0
C329 C 0.5429 0.54846 0.48107 0.0
C330 C 0.62448 0.60737 0.41849 0.0
C331 C 0.49789 0.57099 0.40571 0.0
O332 O 0.50873 0.58313 0.42529 0.0
O333 O 0.52015 0.54935 0.39374 0.0
O334 O 0.54029 0.58497 0.47602 0.0
O335 O 0.55656 0.52531 0.46551 0.0
O336 O 0.33468 0.25947 0.17574 0.0
Cd337 Cd 0.32226 0.30903 0.19429 0.0
Cd338 Cd 0.28838 0.32725 0.1538 0.0
O339 O 0.30104 0.27037 0.14409 0.0
O340 O 0.33156 0.29219 0.22666 0.0
O341 O 0.27344 0.30868 0.21349 0.0
C342 C 0.29452 0.29536 0.23012 0.0
C343 C 0.22667 0.3563 0.15219 0.0
C344 C 0.32281 0.24837 0.15614 0.0
C345 C 0.35788 0.37547 0.16872 0.0
O346 O 0.33434 0.36593 0.15282 0.0
O347 O 0.35657 0.35793 0.18797 0.0
O348 O 0.2468 0.35 0.13381 0.0
O349 O 0.24073 0.34369 0.17139 0.0
O350 O 0.41457 0.5855 0.90203 0.0
Cd351 Cd 0.45173 0.53829 0.902 0.0
Cd352 Cd 0.47272 0.57042 0.943 0.0
O353 O 0.42557 0.60724 0.93703 0.0
O354 O 0.42767 0.49857 0.88126 0.0
O355 O 0.43413 0.48999 0.91867 0.0
C356 C 0.42126 0.47735 0.89918 0.0
C357 C 0.48576 0.54331 0.97908 0.0
C358 C 0.40714 0.60948 0.91811 0.0
C359 C 0.53238 0.56877 0.90421 0.0
O360 O 0.52263 0.58008 0.92417 0.0
O361 O 0.50867 0.54948 0.89184 0.0
O362 O 0.49068 0.58 0.97513 0.0
O363 O 0.47111 0.52231 0.9628 0.0
O364 O 0.19461 0.77042 0.67564 0.0
Cd365 Cd 0.20648 0.72095 0.6944 0.0
Cd366 Cd 0.23937 0.70143 0.65382 0.0
O367 O 0.22715 0.75821 0.64374 0.0
O368 O 0.19719 0.73836 0.72667 0.0
O369 O 0.25513 0.72074 0.71371 0.0
C370 C 0.23413 0.73455 0.73025 0.0
C371 C 0.30085 0.67187 0.65206 0.0
C372 C 0.20606 0.78084 0.65582 0.0
C373 C 0.16916 0.65485 0.66938 0.0
O374 O 0.19285 0.66336 0.65333 0.0
O375 O 0.17112 0.67274 0.68849 0.0
O376 O 0.28048 0.67794 0.63377 0.0
O377 O 0.28713 0.68489 0.67127 0.0
O378 O 0.11471 0.44149 0.40388 0.0
Cd379 Cd 0.07717 0.48838 0.40459 0.0
Cd380 Cd 0.05681 0.45443 0.44508 0.0
O381 O 0.1049 0.41902 0.43885 0.0
O382 O 0.10125 0.52939 0.38471 0.0
O383 O 0.09423 0.53578 0.42224 0.0
C384 C 0.10749 0.54952 0.40308 0.0
C385 C 0.0418 0.47855 0.48167 0.0
C386 C 0.12291 0.41738 0.41975 0.0
C387 C 0.99743 0.45594 0.40613 0.0
O388 O 1.00759 0.44389 0.42586 0.0
O389 O 0.02037 0.47703 0.39424 0.0
O390 O 0.03834 0.44205 0.47678 0.0
O391 O 0.05624 0.50118 0.46607 0.0
O392 O 0.33069 0.76982 0.37211 0.0
Cd393 Cd 0.32019 0.71985 0.35355 0.0
Cd394 Cd 0.28793 0.69989 0.39467 0.0
O395 O 0.29948 0.75699 0.40442 0.0
O396 O 0.32988 0.73739 0.32135 0.0
O397 O 0.27194 0.71886 0.33388 0.0
C398 C 0.29307 0.7331 0.31752 0.0
C399 C 0.22695 0.66954 0.39794 0.0
C400 C 0.3193 0.78014 0.39194 0.0
C401 C 0.35866 0.65437 0.37873 0.0
O402 O 0.33495 0.66251 0.39484 0.0
O403 O 0.35639 0.67229 0.35964 0.0
O404 O 0.24833 0.67635 0.41573 0.0
O405 O 0.23942 0.68203 0.37831 0.0
O406 O 0.11625 0.58326 0.14486 0.0
Cd407 Cd 0.07766 0.53717 0.14427 0.0
Cd408 Cd 0.05887 0.57106 0.10362 0.0
O409 O 0.10773 0.60548 0.10974 0.0
O410 O 0.10017 0.49681 0.1652 0.0
O411 O 0.09472 0.48856 0.12773 0.0
C412 C 0.10682 0.47561 0.14732 0.0
C413 C 0.04488 0.54377 0.06773 0.0
C414 C 0.12552 0.60682 0.1289 0.0
C415 C 0.99858 0.5715 0.142 0.0
O416 O 1.00945 0.58334 0.12234 0.0
O417 O 0.02077 0.54987 0.15401 0.0
O418 O 0.04173 0.58076 0.07135 0.0
O419 O 0.05834 0.52248 0.08423 0.0
O420 O 0.19571 0.25888 0.87202 0.0
Cd421 Cd 0.20608 0.30896 0.85348 0.0
Cd422 Cd 0.2398 0.32819 0.89404 0.0
O423 O 0.2283 0.27116 0.90391 0.0
O424 O 0.19638 0.29188 0.8212 0.0
O425 O 0.25437 0.31 0.83384 0.0
C426 C 0.23323 0.29607 0.81741 0.0
C427 C 0.30117 0.35798 0.89519 0.0
C428 C 0.20785 0.24826 0.89165 0.0
C429 C 0.16944 0.37499 0.87912 0.0
O430 O 0.19336 0.3662 0.89496 0.0
O431 O 0.17072 0.35705 0.85999 0.0
O432 O 0.28139 0.3517 0.9137 0.0
O433 O 0.28694 0.34501 0.87611 0.0
O434 O 0.4119 0.44511 0.64456 0.0
Cd435 Cd 0.45034 0.49132 0.64383 0.0
Cd436 Cd 0.46894 0.45739 0.60312 0.0
O437 O 0.4201 0.42297 0.6094 0.0
O438 O 0.42782 0.53162 0.66481 0.0
O439 O 0.43298 0.53984 0.62731 0.0
C440 C 0.42095 0.55276 0.64693 0.0
C441 C 0.48292 0.48459 0.56718 0.0
C442 C 0.4025 0.42157 0.62863 0.0
C443 C 0.52946 0.45714 0.64133 0.0
O444 O 0.51844 0.44517 0.62174 0.0
O445 O 0.50735 0.47883 0.65338 0.0
O446 O 0.48597 0.4476 0.57083 0.0
O447 O 0.4695 0.50593 0.58369 0.0
C448 C 0.16521 0.38098 0.39218 0.0
C449 C 0.15044 0.38486 0.41464 0.0
C450 C 0.18537 0.34749 0.3853 0.0
C451 C 0.19231 0.31664 0.40063 0.0
H452 H 0.15953 0.40309 0.37932 0.0
H453 H 0.19428 0.3451 0.3675 0.0
S454 S 0.16453 0.3138 0.4621 0.0
N455 N 0.14756 0.35611 0.45285 0.0
N456 N 0.18612 0.29325 0.43982 0.0
C457 C 0.18047 0.32114 0.42358 0.0
C458 C 0.15937 0.35521 0.4306 0.0
C459 C 0.95543 0.93033 0.67241 0.0
C460 C 0.95828 0.94758 0.65059 0.0
C461 C 0.92176 0.90954 0.67891 0.0
C462 C 0.88975 0.9056 0.66385 0.0
H463 H 0.98033 0.93049 0.68386 0.0
H464 H 0.92181 0.89468 0.69532 0.0
S465 S 0.88055 0.95233 0.6065 0.0
N466 N 0.92489 0.96399 0.61521 0.0
N467 N 0.86135 0.92609 0.62742 0.0
C468 C 0.89117 0.92593 0.64281 0.0
C469 C 0.92553 0.94657 0.63617 0.0
C470 C 0.3642 0.6466 0.89123 0.0
C471 C 0.37981 0.64238 0.91346 0.0
C472 C 0.34394 0.68026 0.88476 0.0
C473 C 0.3377 0.71095 0.90031 0.0
H474 H 0.36924 0.62459 0.87822 0.0
H475 H 0.33433 0.6829 0.86711 0.0
S476 S 0.36807 0.71306 0.96133 0.0
N477 N 0.38444 0.67076 0.9517 0.0
N478 N 0.34566 0.73393 0.93945 0.0
C479 C 0.35049 0.70617 0.92305 0.0
C480 C 0.37171 0.67193 0.92964 0.0
C481 C 0.57229 0.09833 0.17329 0.0
C482 C 0.5695 0.08078 0.15155 0.0
C483 C 0.60593 0.11921 0.17968 0.0
C484 C 0.63796 0.12297 0.1646 0.0
H485 H 0.54738 0.09829 0.18475 0.0
H486 H 0.60584 0.13431 0.19601 0.0
S487 S 0.64735 0.07539 0.10751 0.0
N488 N 0.60298 0.06386 0.11626 0.0
N489 N 0.66648 0.10196 0.12828 0.0
C490 C 0.63661 0.10234 0.14366 0.0
C491 C 0.60228 0.0816 0.13713 0.0
C492 C 0.17866 0.70426 0.12492 0.0
C493 C 0.19594 0.70734 0.14671 0.0
C494 C 0.15789 0.67051 0.11858 0.0
C495 C 0.15398 0.63866 0.13379 0.0
H496 H 0.1788 0.72903 0.11336 0.0
H497 H 0.143 0.67037 0.1022 0.0
S498 S 0.20081 0.63011 0.19112 0.0
N499 N 0.21243 0.67435 0.18222 0.0
N500 N 0.17454 0.61067 0.17032 0.0
C501 C 0.17434 0.64032 0.1548 0.0
C502 C 0.19497 0.67475 0.16127 0.0
C503 C 0.57195 0.92594 0.37512 0.0
C504 C 0.56857 0.94321 0.3969 0.0
C505 C 0.60575 0.90512 0.36892 0.0
C506 C 0.63738 0.90118 0.38426 0.0
H507 H 0.54739 0.92624 0.36341 0.0
H508 H 0.60615 0.89035 0.3525 0.0
S509 S 0.64507 0.94777 0.44172 0.0
N510 N 0.601 0.95948 0.43261 0.0
N511 N 0.66478 0.92152 0.42098 0.0
C512 C 0.63538 0.9214 0.40532 0.0
C513 C 0.60089 0.94206 0.41164 0.0
C514 C 0.3492 0.3242 0.62483 0.0
C515 C 0.33201 0.32114 0.64665 0.0
C516 C 0.37003 0.3579 0.61843 0.0
C517 C 0.37407 0.38973 0.63362 0.0
H518 H 0.34894 0.29944 0.61326 0.0
H519 H 0.38483 0.35802 0.60201 0.0
S520 S 0.32755 0.39837 0.69108 0.0
N521 N 0.31578 0.35416 0.6822 0.0
N522 N 0.35377 0.41775 0.6702 0.0
C523 C 0.35383 0.3881 0.65469 0.0
C524 C 0.33314 0.35372 0.66121 0.0
C525 C 0.93093 0.09304 0.91161 0.0
C526 C 0.96147 0.08578 0.8961 0.0
C527 C 0.89735 0.11318 0.90486 0.0
C528 C 0.89309 0.12763 0.88235 0.0
H529 H 0.93361 0.08436 0.92943 0.0
H530 H 0.8755 0.11911 0.91784 0.0
S531 S 0.96321 0.11266 0.83448 0.0
N532 N 0.98414 0.09135 0.85673 0.0
N533 N 0.92113 0.12989 0.84394 0.0
C534 C 0.92243 0.11841 0.86625 0.0
C535 C 0.95658 0.09732 0.87313 0.0
C536 C 0.86316 0.64829 0.65596 0.0
C537 C 0.87733 0.64365 0.63341 0.0
C538 C 0.84318 0.68202 0.66262 0.0
C539 C 0.83582 0.71235 0.64699 0.0
H540 H 0.86916 0.62661 0.66901 0.0
H541 H 0.83469 0.68498 0.68046 0.0
S542 S 0.86202 0.71311 0.58527 0.0
N543 N 0.87924 0.67112 0.59486 0.0
N544 N 0.84102 0.73442 0.6075 0.0
C545 C 0.8471 0.70709 0.62401 0.0
C546 C 0.86803 0.67279 0.6172 0.0
C547 C 0.10527 0.12087 0.3675 0.0
C548 C 0.13737 0.12435 0.38254 0.0
C549 C 0.07151 0.10016 0.37392 0.0
C550 C 0.06864 0.08254 0.39563 0.0
H551 H 0.10527 0.13599 0.35118 0.0
H552 H 0.04659 0.10027 0.36248 0.0
S553 S 0.14645 0.0766 0.43961 0.0
N554 N 0.16574 0.10309 0.41883 0.0
N555 N 0.10201 0.06537 0.43089 0.0
C556 C 0.10141 0.08316 0.41004 0.0
C557 C 0.13587 0.1037 0.40347 0.0
C558 C 0.6636 0.38012 0.15575 0.0
C559 C 0.64904 0.3844 0.13327 0.0
C560 C 0.68383 0.34658 0.16246 0.0
C561 C 0.69106 0.31606 0.14694 0.0
H562 H 0.65775 0.40198 0.16873 0.0
H563 H 0.69263 0.34391 0.18025 0.0
S564 S 0.66376 0.31428 0.08541 0.0
N565 N 0.64655 0.35634 0.09489 0.0
N566 N 0.68524 0.29338 0.10761 0.0
C567 C 0.67934 0.32093 0.12401 0.0
C568 C 0.65815 0.35505 0.11716 0.0
C569 C 0.4559 0.92937 0.87432 0.0
C570 C 0.45852 0.94706 0.89602 0.0
C571 C 0.42236 0.90833 0.86792 0.0
C572 C 0.39026 0.90456 0.88296 0.0
H573 H 0.48089 0.92937 0.86292 0.0
H574 H 0.42258 0.89311 0.85163 0.0
S575 S 0.38043 0.95249 0.93992 0.0
N576 N 0.4248 0.96412 0.93121 0.0
N577 N 0.36149 0.92573 0.91917 0.0
C578 C 0.39144 0.92535 0.90384 0.0
C579 C 0.42566 0.94626 0.91038 0.0
C580 C 0.86256 0.38275 0.89172 0.0
C581 C 0.87761 0.38656 0.91412 0.0
C582 C 0.8423 0.34926 0.88491 0.0
C583 C 0.83554 0.31835 0.90024 0.0
H584 H 0.8681 0.4049 0.87886 0.0
H585 H 0.83321 0.34691 0.86715 0.0
S586 S 0.86399 0.3154 0.96159 0.0
N587 N 0.88088 0.35773 0.95229 0.0
N588 N 0.84216 0.29488 0.93938 0.0
C589 C 0.84763 0.32281 0.92314 0.0
C590 C 0.86883 0.35688 0.93009 0.0
C591 C 0.39527 0.11399 0.64173 0.0
C592 C 0.39163 0.12943 0.66405 0.0
C593 C 0.42859 0.09343 0.63497 0.0
C594 C 0.45952 0.08675 0.65028 0.0
H595 H 0.37309 0.11941 0.62889 0.0
H596 H 0.43081 0.08402 0.61726 0.0
S597 S 0.46295 0.11627 0.71144 0.0
N598 N 0.42067 0.13322 0.70214 0.0
N599 N 0.48322 0.09394 0.68932 0.0
C600 C 0.45525 0.09927 0.67311 0.0
C601 C 0.42135 0.12078 0.68001 0.0
C602 C 0.67797 0.70465 0.4224 0.0
C603 C 0.69467 0.70807 0.40046 0.0
C604 C 0.65719 0.6709 0.42875 0.0
C605 C 0.65274 0.63933 0.41341 0.0
H606 H 0.67864 0.72917 0.43414 0.0
H607 H 0.64282 0.6705 0.4453 0.0
S608 S 0.69784 0.63168 0.35551 0.0
N609 N 0.70994 0.67569 0.36457 0.0
N610 N 0.67206 0.61198 0.37646 0.0
C611 C 0.67244 0.64133 0.39217 0.0
C612 C 0.69306 0.67579 0.38569 0.0
C613 C 0.13165 0.91386 0.14116 0.0
C614 C 0.1355 0.89893 0.16359 0.0
C615 C 0.09831 0.93435 0.13439 0.0
C616 C 0.06757 0.94147 0.14979 0.0
H617 H 0.15367 0.90809 0.12827 0.0
H618 H 0.09593 0.94338 0.11662 0.0
S619 S 0.06474 0.91334 0.2112 0.0
N620 N 0.10687 0.89606 0.20184 0.0
N621 N 0.04427 0.93522 0.189 0.0
C622 C 0.07205 0.92943 0.1727 0.0
C623 C 0.10597 0.908 0.17961 0.0
C624 C 0.6839 0.8478 0.8845 0.0
C625 C 0.691 0.81731 0.90005 0.0
C626 C 0.66369 0.88139 0.89114 0.0
C627 C 0.64899 0.88575 0.9136 0.0
H628 H 0.69285 0.84509 0.86672 0.0
H629 H 0.65798 0.90323 0.87814 0.0
S630 S 0.66321 0.81566 0.96154 0.0
N631 N 0.68483 0.7947 0.9394 0.0
N632 N 0.64614 0.85774 0.952 0.0
C633 C 0.65792 0.85639 0.92974 0.0
C634 C 0.67909 0.82222 0.92296 0.0
C635 C 0.45522 0.42882 0.1723 0.0
C636 C 0.45819 0.44589 0.15043 0.0
C637 C 0.42153 0.40805 0.17878 0.0
C638 C 0.38963 0.40395 0.16366 0.0
H639 H 0.48004 0.4291 0.18381 0.0
H640 H 0.42149 0.39331 0.19522 0.0
S641 S 0.38071 0.45026 0.10618 0.0
N642 N 0.42498 0.46203 0.11494 0.0
N643 N 0.36142 0.42414 0.12713 0.0
C644 C 0.39115 0.42412 0.14257 0.0
C645 C 0.42552 0.44475 0.13595 0.0
C646 C 0.87218 0.17197 0.42834 0.0
C647 C 0.87552 0.13999 0.41321 0.0
C648 C 0.85109 0.2056 0.42218 0.0
C649 C 0.83292 0.20844 0.40063 0.0
H650 H 0.88766 0.17199 0.44453 0.0
H651 H 0.85132 0.23047 0.43366 0.0
S652 S 0.82649 0.13083 0.35654 0.0
N653 N 0.85361 0.11164 0.37704 0.0
N654 N 0.81515 0.17512 0.36545 0.0
C655 C 0.83343 0.17575 0.38615 0.0
C656 C 0.85438 0.14143 0.39245 0.0
C657 C 0.13244 0.61242 0.64203 0.0
C658 C 0.13664 0.6272 0.66447 0.0
C659 C 0.0988 0.59232 0.63533 0.0
C660 C 0.06812 0.58546 0.65082 0.0
H661 H 0.15439 0.61809 0.62907 0.0
H662 H 0.09615 0.58343 0.61755 0.0
S663 S 0.06628 0.61308 0.71231 0.0
N664 N 0.10848 0.63001 0.70284 0.0
N665 N 0.04534 0.59159 0.69013 0.0
C666 C 0.073 0.59722 0.67374 0.0
C667 C 0.10722 0.61825 0.68058 0.0
C668 C 0.66577 0.14645 0.65426 0.0
C669 C 0.65075 0.14251 0.63187 0.0
C670 C 0.68618 0.17989 0.66099 0.0
C671 C 0.69312 0.21063 0.64556 0.0
H672 H 0.66008 0.12444 0.66719 0.0
H673 H 0.69526 0.18235 0.67874 0.0
S674 S 0.66485 0.21315 0.58418 0.0
N675 N 0.64773 0.17099 0.5936 0.0
N676 N 0.68672 0.23376 0.60634 0.0
C677 C 0.68107 0.20602 0.62267 0.0
C678 C 0.65972 0.172 0.61581 0.0
C679 C 0.10556 0.40704 0.86894 0.0
C680 C 0.13754 0.40335 0.88405 0.0
C681 C 0.07195 0.42805 0.87526 0.0
C682 C 0.06914 0.44578 0.89694 0.0
H683 H 0.10552 0.39188 0.85264 0.0
H684 H 0.04708 0.42807 0.86379 0.0
S685 S 0.14675 0.45119 0.94107 0.0
N686 N 0.1659 0.42447 0.92036 0.0
N687 N 0.10248 0.46279 0.93224 0.0
C688 C 0.10183 0.44494 0.91141 0.0
C689 C 0.13612 0.42407 0.90495 0.0
C690 C 0.86117 0.88232 0.15442 0.0
C691 C 0.87617 0.88602 0.13199 0.0
C692 C 0.84089 0.84889 0.16132 0.0
C693 C 0.83406 0.81793 0.14605 0.0
H694 H 0.86681 0.9045 0.16724 0.0
H695 H 0.83186 0.84661 0.1791 0.0
S696 S 0.86221 0.81477 0.08464 0.0
N697 N 0.87921 0.85709 0.09384 0.0
N698 N 0.84045 0.79435 0.10692 0.0
C699 C 0.84603 0.82231 0.12312 0.0
C700 C 0.86725 0.85632 0.11607 0.0
C701 C 0.42949 0.59189 0.41248 0.0
C702 C 0.45989 0.58487 0.39684 0.0
C703 C 0.39585 0.61213 0.40595 0.0
C704 C 0.39137 0.62691 0.38353 0.0
H705 H 0.43235 0.58296 0.43025 0.0
H706 H 0.37411 0.61784 0.41902 0.0
S707 S 0.46106 0.61266 0.33536 0.0
N708 N 0.48219 0.59102 0.35743 0.0
N709 N 0.41906 0.62973 0.34504 0.0
C710 C 0.42056 0.61793 0.36728 0.0
C711 C 0.45478 0.59674 0.37395 0.0
C712 C 0.3644 0.14647 0.1566 0.0
C713 C 0.37882 0.1417 0.13412 0.0
C714 C 0.34426 0.18018 0.16311 0.0
C715 C 0.33697 0.21038 0.14739 0.0
H716 H 0.37028 0.12487 0.16973 0.0
H717 H 0.33553 0.18323 0.18091 0.0
S718 S 0.36398 0.21085 0.08578 0.0
N719 N 0.38118 0.16896 0.09552 0.0
N720 N 0.34264 0.23224 0.10787 0.0
C721 C 0.34859 0.20503 0.12447 0.0
C722 C 0.36969 0.17074 0.11782 0.0
C723 C 0.57319 0.59971 0.8736 0.0
C724 C 0.57056 0.58159 0.89519 0.0
C725 C 0.60683 0.62065 0.86725 0.0
C726 C 0.63901 0.6239 0.88224 0.0
H727 H 0.54815 0.60009 0.86226 0.0
H728 H 0.60662 0.63623 0.85108 0.0
S729 S 0.64887 0.57467 0.93881 0.0
N730 N 0.60436 0.56354 0.93016 0.0
N731 N 0.66786 0.60175 0.9182 0.0
C732 C 0.63782 0.60269 0.90297 0.0
C733 C 0.60349 0.58187 0.90947 0.0
C734 C 0.18464 0.84921 0.66223 0.0
C735 C 0.19183 0.81861 0.64677 0.0
C736 C 0.1642 0.88263 0.65552 0.0
C737 C 0.14939 0.8867 0.63309 0.0
H738 H 0.19363 0.8467 0.68 0.0
H739 H 0.15839 0.90455 0.66847 0.0
S740 S 0.16393 0.81635 0.58532 0.0
N741 N 0.1857 0.79568 0.60749 0.0
N742 N 0.14664 0.8584 0.59477 0.0
C743 C 0.15847 0.85729 0.61701 0.0
C744 C 0.17986 0.8233 0.62386 0.0
C745 C 0.9286 0.43593 0.41235 0.0
C746 C 0.95951 0.44237 0.39697 0.0
C747 C 0.89506 0.41565 0.40567 0.0
C748 C 0.8912 0.40025 0.38336 0.0
H749 H 0.931 0.44529 0.43007 0.0
H750 H 0.87291 0.41036 0.41857 0.0
S751 S 0.96237 0.41298 0.33578 0.0
N752 N 0.98295 0.43511 0.35786 0.0
N753 N 0.91999 0.39634 0.34518 0.0
C754 C 0.92089 0.40874 0.36732 0.0
C755 C 0.95501 0.42996 0.37414 0.0
C756 C 0.35009 0.82146 0.42235 0.0
C757 C 0.33242 0.81841 0.40067 0.0
C758 C 0.37112 0.85513 0.42854 0.0
C759 C 0.3749 0.88693 0.4133 0.0
H760 H 0.34999 0.79673 0.43394 0.0
H761 H 0.38623 0.85527 0.44486 0.0
S762 S 0.3272 0.89557 0.35622 0.0
N763 N 0.31553 0.85139 0.36522 0.0
N764 N 0.35391 0.91492 0.37686 0.0
C765 C 0.35424 0.88529 0.39239 0.0
C766 C 0.33335 0.85095 0.38606 0.0
C767 C 0.93032 0.59297 0.13528 0.0
C768 C 0.96065 0.58562 0.15089 0.0
C769 C 0.89669 0.61314 0.14192 0.0
C770 C 0.89213 0.62752 0.16442 0.0
H771 H 0.93321 0.58431 0.11747 0.0
H772 H 0.875 0.61912 0.12887 0.0
S773 S 0.96164 0.61236 0.21253 0.0
N774 N 0.98282 0.59108 0.19035 0.0
N775 N 0.9197 0.62967 0.20293 0.0
C776 C 0.92128 0.61826 0.18062 0.0
C777 C 0.95549 0.59713 0.17384 0.0
C778 C 0.1782 0.2064 0.92223 0.0
C779 C 0.19517 0.20983 0.90036 0.0
C780 C 0.15772 0.17245 0.92856 0.0
C781 C 0.15383 0.14074 0.91328 0.0
H782 H 0.17843 0.23101 0.9339 0.0
H783 H 0.1431 0.17202 0.94504 0.0
S784 S 0.19986 0.13316 0.85563 0.0
N785 N 0.21132 0.17738 0.86463 0.0
N786 N 0.17401 0.11332 0.87651 0.0
C787 C 0.17383 0.14279 0.89214 0.0
C788 C 0.19414 0.17743 0.88567 0.0
C789 C 0.59769 0.43573 0.63439 0.0
C790 C 0.56749 0.44315 0.65011 0.0
C791 C 0.63141 0.41564 0.64094 0.0
C792 C 0.63618 0.40139 0.66345 0.0
H793 H 0.59462 0.44428 0.61657 0.0
H794 H 0.65297 0.4096 0.62782 0.0
S795 S 0.56711 0.41678 0.71181 0.0
N796 N 0.5457 0.4379 0.68966 0.0
N797 N 0.60898 0.39946 0.70208 0.0
C798 C 0.60718 0.41074 0.67975 0.0
C799 C 0.57289 0.43178 0.67307 0.0
C800 C 0.30053 0.26323 0.2686 0.0
C801 C 0.27686 0.28156 0.25202 0.0
C802 C 0.28468 0.24787 0.28888 0.0
C803 C 0.24443 0.25013 0.29352 0.0
H804 H 0.33168 0.26036 0.26587 0.0
H805 H 0.3043 0.23424 0.30105 0.0
S806 S 0.16959 0.29581 0.2559 0.0
N807 N 0.21097 0.30145 0.24177 0.0
N808 N 0.18114 0.27269 0.2798 0.0
C809 C 0.22034 0.26852 0.27712 0.0
C810 C 0.23655 0.28422 0.25644 0.0
C811 C 0.03096 0.03519 0.53805 0.0
C812 C 0.02735 0.99523 0.54321 0.0
C813 C 0.01613 0.05075 0.51757 0.0
C814 C 0.99701 0.02706 0.5013 0.0
H815 H 0.04523 0.05482 0.54996 0.0
H816 H 0.02002 0.08168 0.51444 0.0
S817 S 0.97931 0.92047 0.50654 0.0
N818 N 1.00277 0.93218 0.53029 0.0
N819 N 0.97502 0.96147 0.49188 0.0
C820 C 0.99307 0.98703 0.50623 0.0
C821 C 1.00821 0.97112 0.52711 0.0
C822 C 0.2281 0.76639 0.76879 0.0
C823 C 0.25175 0.74807 0.75219 0.0
C824 C 0.24392 0.78143 0.78915 0.0
C825 C 0.28413 0.77887 0.79383 0.0
H826 H 0.19699 0.76949 0.76604 0.0
H827 H 0.22432 0.79508 0.80133 0.0
S828 S 0.3589 0.73304 0.75617 0.0
N829 N 0.31756 0.72782 0.74196 0.0
N830 N 0.34735 0.756 0.78013 0.0
C831 C 0.30819 0.76048 0.7774 0.0
C832 C 0.29202 0.74509 0.75665 0.0
C833 C 0.51578 0.05014 0.02917 0.0
C834 C 0.49761 0.02612 0.04566 0.0
C835 C 0.53049 0.03479 1.00859 0.0
C836 C 0.52772 0.99473 1.00356 0.0
H837 H 0.51896 0.08118 0.03217 0.0
H838 H 0.54397 0.05468 0.99649 0.0
S839 S 0.48267 0.91904 0.04092 0.0
N840 N 0.47762 0.96005 0.05548 0.0
N841 N 0.50516 0.93118 1.0169 0.0
C842 C 0.50959 0.97028 1.0199 0.0
C843 C 0.49456 0.98597 0.04088 0.0
C844 C 0.29965 0.76465 0.2789 0.0
C845 C 0.27572 0.74659 0.29549 0.0
C846 C 0.28411 0.7796 0.25845 0.0
C847 C 0.24394 0.77718 0.25364 0.0
H848 H 0.33076 0.76756 0.28173 0.0
H849 H 0.30393 0.79296 0.24626 0.0
S850 S 0.16845 0.7326 0.29133 0.0
N851 N 0.20963 0.72713 0.30565 0.0
N852 N 0.1804 0.75511 0.26729 0.0
C853 C 0.21959 0.75919 0.27008 0.0
C854 C 0.23547 0.74392 0.29093 0.0
C855 C 0.51431 0.97743 0.51806 0.0
C856 C 0.49575 1.00094 0.50148 0.0
C857 C 0.52933 0.99337 0.53839 0.0
C858 C 0.52648 0.03356 0.54308 0.0
H859 H 0.51764 0.94635 0.51529 0.0
H860 H 0.54318 0.97388 0.55055 0.0
S861 S 0.48003 0.10797 0.50549 0.0
N862 N 0.47503 0.0666 0.4913 0.0
N863 N 0.50315 0.0966 0.52941 0.0
C864 C 0.50786 0.05748 0.52668 0.0
C865 C 0.49251 0.04118 0.50596 0.0
C866 C 0.22706 0.26379 0.77901 0.0
C867 C 0.25068 0.28274 0.79537 0.0
C868 C 0.24278 0.24887 0.75858 0.0
C869 C 0.28284 0.2522 0.75359 0.0
H870 H 0.19607 0.2601 0.782 0.0
H871 H 0.22321 0.23473 0.74659 0.0
S872 S 0.35744 0.29979 0.79056 0.0
N873 N 0.31629 0.30434 0.80505 0.0
N874 N 0.34588 0.2764 0.76676 0.0
C875 C 0.30686 0.2712 0.76978 0.0
C876 C 0.29079 0.28645 0.7906 0.0
C877 C 1.01348 0.05054 1.01787 0.0
C878 C 0.0319 0.02691 1.00129 0.0
C879 C 0.9982 0.03466 0.03817 0.0
C880 C 1.00062 0.99443 0.04281 0.0
H881 H 1.0105 0.08167 1.01515 0.0
H882 H 0.9845 0.05424 0.05034 0.0
S883 S 0.04646 0.9197 1.00516 0.0
N884 N 0.05197 0.96109 0.99103 0.0
N885 N 0.02334 0.9312 0.02908 0.0
C886 C 0.01906 0.97039 0.0264 0.0
C887 C 0.03468 0.98662 1.00571 0.0
C888 C 0.7432 0.7811 0.75786 0.0
C889 C 0.78359 0.78038 0.75349 0.0
C890 C 0.7276 0.7655 0.77815 0.0
C891 C 0.75167 0.74846 0.795 0.0
H892 H 0.72327 0.7936 0.74545 0.0
H893 H 0.6963 0.76708 0.78063 0.0
S894 S 0.85956 0.73904 0.79203 0.0
N895 N 0.84751 0.76103 0.76785 0.0
N896 N 0.81815 0.73182 0.80589 0.0
C897 C 0.79215 0.7475 0.79089 0.0
C898 C 0.8081 0.76344 0.7702 0.0
C899 C 0.78414 0.24634 0.25851 0.0
C900 C 0.74397 0.2489 0.25371 0.0
C901 C 0.7998 0.26152 0.27887 0.0
C902 C 0.77603 0.27999 0.29536 0.0
H903 H 0.80383 0.23257 0.24642 0.0
H904 H 0.83089 0.2584 0.28173 0.0
S905 S 0.66892 0.29502 0.29104 0.0
N906 N 0.68066 0.27189 0.26717 0.0
N907 N 0.71015 0.30033 0.30535 0.0
C908 C 0.73581 0.28296 0.29077 0.0
C909 C 0.71979 0.26743 0.27001 0.0
C910 C 0.74381 0.24835 0.78836 0.0
C911 C 0.78409 0.25028 0.79292 0.0
C912 C 0.7281 0.26332 0.76796 0.0
C913 C 0.75196 0.28091 0.75116 0.0
H914 H 0.72404 0.23535 0.80071 0.0
H915 H 0.6969 0.26081 0.76533 0.0
S916 S 0.85949 0.2935 0.75461 0.0
N917 N 0.84767 0.27137 0.7788 0.0
N918 N 0.81812 0.2994 0.74054 0.0
C919 C 0.79232 0.28309 0.75547 0.0
C920 C 0.80837 0.26779 0.77627 0.0
C921 C 0.72713 0.76347 0.2788 0.0
C922 C 0.75111 0.78089 0.29557 0.0
C923 C 0.7427 0.74854 0.25834 0.0
C924 C 0.78298 0.75034 0.2537 0.0
H925 H 0.69593 0.76103 0.2815 0.0
H926 H 0.72285 0.73566 0.24602 0.0
S927 S 0.85867 0.79313 0.2919 0.0
N928 N 0.81737 0.79911 0.30607 0.0
N929 N 0.84668 0.77116 0.2677 0.0
C930 C 0.80738 0.76772 0.27031 0.0
C931 C 0.79146 0.78297 0.29117 0.0
C932 C 0.53178 0.534 0.03825 0.0
C933 C 0.52862 0.49392 0.04319 0.0
C934 C 0.51726 0.54963 1.01771 0.0
C935 C 0.49889 0.52589 1.00117 0.0
H936 H 0.54543 0.55367 0.05039 0.0
H937 H 0.52073 0.58065 1.01478 0.0
S938 S 0.48294 0.41893 1.00567 0.0
N939 N 0.5055 0.43068 0.02971 0.0
N940 N 0.47831 0.46008 0.9912 0.0
C941 C 0.49547 0.48573 1.00586 0.0
C942 C 0.51031 0.46976 0.0268 0.0
C943 C 0.03066 0.53448 0.50863 0.0
C944 C 0.02743 0.49433 0.50393 0.0
C945 C 0.01571 0.55055 0.52894 0.0
C946 C 0.99683 0.5272 0.54549 0.0
H947 H 0.04475 0.55385 0.49648 0.0
H948 H 0.01931 0.5816 0.53171 0.0
S949 S 0.98008 0.42031 0.54147 0.0
N950 N 1.00343 0.43148 0.51757 0.0
N951 N 0.97542 0.46173 0.55566 0.0
C952 C 0.99322 0.48699 0.54102 0.0
C953 C 1.00851 0.47057 0.52031 0.0
C954 C 1.01347 0.55053 0.0291 0.0
C955 C 0.03104 0.52645 0.04576 0.0
C956 C 0.99828 0.53507 1.00868 0.0
C957 C 0.99999 0.49483 1.00398 0.0
H958 H 1.01114 0.58171 0.03184 0.0
H959 H 0.98533 0.55501 0.99643 0.0
S960 S 0.04308 0.41892 0.04191 0.0
N961 N 0.04927 0.46013 0.05612 0.0
N962 N 0.02085 0.43105 1.01783 0.0
C963 C 0.01748 0.47032 1.0205 0.0
C964 C 0.03298 0.48612 0.04132 0.0
C965 C 0.52917 0.49298 0.50799 0.0
C966 C 0.52834 0.53331 0.50345 0.0
C967 C 0.51379 0.4776 0.52839 0.0
C968 C 0.49686 0.50185 0.54521 0.0
H969 H 0.54161 0.47292 0.49562 0.0
H970 H 0.51546 0.44634 0.531 0.0
S971 S 0.48717 0.60967 0.54182 0.0
N972 N 0.50897 0.59736 0.51762 0.0
N973 N 0.48016 0.56843 0.55588 0.0
C974 C 0.49576 0.54227 0.54093 0.0
C975 C 0.51148 0.55799 0.52012 0.0
C976 C 0.3524 0.12795 0.37774 0.0
C977 C 0.33666 0.14493 0.39769 0.0
C978 C 0.38124 0.09893 0.379 0.0
C979 C 0.39578 0.08578 0.40025 0.0
H980 H 0.34099 0.1356 0.361 0.0
H981 H 0.39094 0.08556 0.36315 0.0
S982 S 0.36866 0.12513 0.45747 0.0
N983 N 0.34097 0.14957 0.43928 0.0
N984 N 0.39524 0.0953 0.44164 0.0
C985 C 0.38236 0.10455 0.42026 0.0
C986 C 0.3528 0.134 0.41898 0.0
C987 C 0.14713 0.10066 0.66693 0.0
C988 C 0.13302 0.08714 0.64565 0.0
C989 C 0.17587 0.1298 0.66823 0.0
C990 C 0.19196 0.14654 0.6483 0.0
H991 H 0.13707 0.08757 0.68279 0.0
H992 H 0.18687 0.1378 0.685 0.0
S993 S 0.16149 0.12542 0.5884 0.0
N994 N 0.1346 0.09582 0.60422 0.0
N995 N 0.18864 0.15033 0.60664 0.0
C996 C 0.17636 0.13513 0.62695 0.0
C997 C 0.14691 0.10555 0.62563 0.0
C998 C 0.1765 0.89895 0.87824 0.0
C999 C 0.19201 0.88183 0.8982 0.0
C1000 C 0.14776 0.92807 0.87947 0.0
C1001 C 0.1331 0.94119 0.90071 0.0
H1002 H 0.18804 0.89135 0.86151 0.0
H1003 H 0.13826 0.94155 0.86362 0.0
S1004 S 0.15952 0.90142 0.95793 0.0
N1005 N 0.18729 0.87698 0.93977 0.0
N1006 N 0.1332 0.93144 0.94208 0.0
C1007 C 0.14625 0.92225 0.92072 0.0
C1008 C 0.17571 0.8927 0.91947 0.0
C1009 C 0.34943 0.89632 0.13059 0.0
C1010 C 0.33562 0.88202 0.15177 0.0
C1011 C 0.37847 0.92519 0.12949 0.0
C1012 C 0.39481 0.9412 0.14954 0.0
H1013 H 0.33663 0.88633 0.11464 0.0
H1014 H 0.3867 0.93633 0.11278 0.0
S1015 S 0.37289 0.91017 0.20927 0.0
N1016 N 0.34364 0.88329 0.19325 0.0
N1017 N 0.39798 0.93757 0.1912 0.0
C1018 C 0.38314 0.92539 0.1708 0.0
C1019 C 0.35366 0.89581 0.17191 0.0
C1020 C 0.67484 0.90079 0.66827 0.0
C1021 C 0.69107 0.88389 0.64843 0.0
C1022 C 0.64598 0.92977 0.6668 0.0
C1023 C 0.6319 0.94295 0.64545 0.0
H1024 H 0.68586 0.8931 0.68509 0.0
H1025 H 0.63587 0.94305 0.68259 0.0
S1026 S 0.66058 0.90398 0.58841 0.0
N1027 N 0.6878 0.87945 0.6068 0.0
N1028 N 0.63354 0.93367 0.60406 0.0
C1029 C 0.64585 0.92429 0.62553 0.0
C1030 C 0.67542 0.89488 0.62702 0.0
C1031 C 0.88081 0.92727 0.37959 0.0
C1032 C 0.89568 0.94064 0.40072 0.0
C1033 C 0.85203 0.89814 0.37859 0.0
C1034 C 0.83667 0.88126 0.39868 0.0
H1035 H 0.89021 0.94054 0.36364 0.0
H1036 H 0.84038 0.89031 0.36194 0.0
S1037 S 0.86965 0.90165 0.45821 0.0
N1038 N 0.89587 0.93144 0.44213 0.0
N1039 N 0.84171 0.87697 0.44026 0.0
C1040 C 0.85314 0.89242 0.41984 0.0
C1041 C 0.88265 0.92198 0.42086 0.0
C1042 C 0.85276 0.12797 0.16816 0.0
C1043 C 0.83639 0.14483 0.14836 0.0
C1044 C 0.88156 0.09893 0.16663 0.0
C1045 C 0.89542 0.08564 0.14524 0.0
H1046 H 0.8419 0.13574 0.18501 0.0
H1047 H 0.89179 0.08569 0.1824 0.0
S1048 S 0.86628 0.12444 0.08825 0.0
N1049 N 0.83928 0.14909 0.10671 0.0
N1050 N 0.89342 0.09476 0.10385 0.0
C1051 C 0.88132 0.10425 0.12535 0.0
C1052 C 0.85181 0.13372 0.12691 0.0
C1053 C 0.65038 0.10223 0.91777 0.0
C1054 C 0.63355 0.08622 0.89786 0.0
C1055 C 0.67952 0.13098 0.91642 0.0
C1056 C 0.69293 0.14515 0.89512 0.0
H1057 H 0.64246 0.09117 0.93455 0.0
H1058 H 0.6927 0.14097 0.93226 0.0
S1059 S 0.65433 0.11693 0.83794 0.0
N1060 N 0.62952 0.08971 0.85622 0.0
N1061 N 0.68403 0.14376 0.85371 0.0
C1062 C 0.67441 0.13136 0.87514 0.0
C1063 C 0.64484 0.1019 0.8765 0.0
C1064 C 0.85321 0.62975 0.87876 0.0
C1065 C 0.83682 0.64628 0.89867 0.0
C1066 C 0.8819 0.6006 0.88012 0.0
C1067 C 0.89566 0.58687 0.90143 0.0
H1068 H 0.84243 0.63787 0.86196 0.0
H1069 H 0.89215 0.58763 0.86428 0.0
S1070 S 0.86648 0.6247 0.95865 0.0
N1071 N 0.8396 0.64976 0.94034 0.0
N1072 N 0.89357 0.59523 0.94288 0.0
C1073 C 0.88157 0.60515 0.92143 0.0
C1074 C 0.85216 0.63474 0.92005 0.0
C1075 C 0.67594 0.6276 0.16852 0.0
C1076 C 0.6921 0.64435 0.14861 0.0
C1077 C 0.64718 0.59849 0.16718 0.0
C1078 C 0.63312 0.58503 0.14588 0.0
H1079 H 0.68692 0.63556 0.1853 0.0
H1080 H 0.63707 0.58539 0.18302 0.0
S1081 S 0.66173 0.6234 0.08867 0.0
N1082 N 0.68887 0.64824 0.10695 0.0
N1083 N 0.63477 0.59378 0.10445 0.0
C1084 C 0.64705 0.60346 0.12588 0.0
C1085 C 0.67654 0.633 0.12724 0.0
C1086 C 0.67816 0.3964 0.41791 0.0
C1087 C 0.69118 0.38151 0.3967 0.0
C1088 C 0.64901 0.42511 0.4191 0.0
C1089 C 0.63175 0.44039 0.39911 0.0
H1090 H 0.69171 0.38705 0.43377 0.0
H1091 H 0.64147 0.4368 0.43579 0.0
S1092 S 0.65112 0.40733 0.33946 0.0
N1093 N 0.68124 0.38121 0.35536 0.0
N1094 N 0.62673 0.43525 0.35757 0.0
C1095 C 0.64256 0.4239 0.37788 0.0
C1096 C 0.67214 0.39446 0.37668 0.0
C1097 C 0.88016 0.42985 0.6671 0.0
C1098 C 0.89498 0.44309 0.64591 0.0
C1099 C 0.85146 0.40066 0.66821 0.0
C1100 C 0.83613 0.3836 0.64819 0.0
H1101 H 0.88956 0.44324 0.683 0.0
H1102 H 0.83983 0.39291 0.6849 0.0
S1103 S 0.86902 0.40358 0.58856 0.0
N1104 N 0.89518 0.43357 0.60453 0.0
N1105 N 0.84114 0.37899 0.60662 0.0
C1106 C 0.85254 0.39464 0.62697 0.0
C1107 C 0.88198 0.42426 0.62584 0.0
C1108 C 0.14866 0.42445 0.1289 0.0
C1109 C 0.13162 0.44001 0.14888 0.0
C1110 C 0.17776 0.39569 0.13011 0.0
C1111 C 0.19093 0.38105 0.15134 0.0
H1112 H 0.14104 0.43598 0.11218 0.0
H1113 H 0.19121 0.38617 0.11424 0.0
S1114 S 0.15126 0.40751 0.20859 0.0
N1115 N 0.12682 0.4353 0.19046 0.0
N1116 N 0.18123 0.38116 0.19271 0.0
C1117 C 0.17202 0.39421 0.17136 0.0
C1118 C 0.14249 0.4237 0.17014 0.0
C1119 C 0.37952 0.42637 0.91788 0.0
C1120 C 0.39613 0.44196 0.89778 0.0
C1121 C 0.35039 0.39759 0.9169 0.0
C1122 C 0.33678 0.38295 0.89577 0.0
H1123 H 0.38757 0.43784 0.93454 0.0
H1124 H 0.33733 0.388 0.93286 0.0
S1125 S 0.37505 0.40964 0.8382 0.0
N1126 N 0.39993 0.43739 0.85616 0.0
N1127 N 0.34546 0.38322 0.85431 0.0
C1128 C 0.35518 0.39622 0.87559 0.0
C1129 C 0.38473 0.42573 0.8766 0.0
C1130 C 0.37879 0.60374 0.62861 0.0
C1131 C 0.39601 0.58825 0.64855 0.0
C1132 C 0.34962 0.63242 0.62988 0.0
C1133 C 0.33655 0.64707 0.65114 0.0
H1134 H 0.38636 0.59223 0.61188 0.0
H1135 H 0.33607 0.64191 0.61405 0.0
S1136 S 0.37656 0.62072 0.7083 0.0
N1137 N 0.40099 0.59299 0.69011 0.0
N1138 N 0.34645 0.64698 0.69249 0.0
C1139 C 0.35558 0.63395 0.67112 0.0
C1140 C 0.38518 0.60454 0.66983 0.0
C1141 C 0.1468 0.59858 0.38099 0.0
C1142 C 0.13261 0.58503 0.40226 0.0
C1143 C 0.17556 0.6277 0.37971 0.0
C1144 C 0.1916 0.64438 0.39966 0.0
H1145 H 0.13681 0.5855 0.36512 0.0
H1146 H 0.18665 0.63571 0.36295 0.0
S1147 S 0.16079 0.62328 0.45953 0.0
N1148 N 0.13395 0.5937 0.44369 0.0
N1149 N 0.18806 0.64818 0.44131 0.0
C1150 C 0.17587 0.63299 0.42099 0.0
C1151 C 0.14638 0.60344 0.42229 0.0
loop_
_geom_bond_atom_site_label_1
_geom_bond_atom_site_label_2
_geom_bond_distance
_geom_bond_site_symmetry_2
_ccdc_geom_bond_type
O0 Cd1 2.223 . S
O0 C8 1.315 . S
Cd1 O0 2.223 . S
Cd1 O4 2.297 . S
Cd1 O5 2.439 . S
Cd1 O11 2.240 . S
Cd2 O3 2.240 . S
Cd2 O10 2.223 . S
Cd2 O12 2.297 . S
Cd2 O13 2.439 . S
O3 Cd2 2.240 . S
O3 C8 1.279 . S
O4 Cd1 2.297 . S
O4 C6 1.247 . S
O5 Cd1 2.439 . S
O5 C6 1.208 . S
C6 O4 1.247 . S
C6 O5 1.208 . S
C7 O12 1.247 . S
C7 O13 1.208 . S
C8 O0 1.315 . S
C8 O3 1.279 . S
C9 O10 1.315 . S
C9 O11 1.279 . S
O10 Cd2 2.223 . S
O10 C9 1.315 . S
O11 Cd1 2.240 . S
O11 C9 1.279 . S
O12 Cd2 2.297 . S
O12 C7 1.247 . S
O13 Cd2 2.439 . S
O13 C7 1.208 . S
O14 Cd15 2.223 . S
O14 C22 1.315 . S
Cd15 O14 2.223 . S
Cd15 O18 2.297 . S
Cd15 O19 2.425 1_565 S
Cd15 O25 2.240 . S
Cd16 O17 2.240 . S
Cd16 O24 2.223 . S
Cd16 O26 2.297 . S
Cd16 O27 2.439 . S
O17 Cd16 2.240 . S
O17 C22 1.279 . S
O18 Cd15 2.297 . S
O18 C20 1.247 1_565 S
O19 Cd15 2.425 1_545 S
O19 C20 1.212 . S
C20 O18 1.247 1_545 S
C20 O19 1.212 . S
C21 O26 1.247 . S
C21 O27 1.208 . S
C22 O14 1.315 . S
C22 O17 1.279 . S
C23 O24 1.315 . S
C23 O25 1.279 . S
O24 Cd16 2.223 . S
O24 C23 1.315 . S
O25 Cd15 2.240 . S
O25 C23 1.279 . S
O26 Cd16 2.297 . S
O26 C21 1.247 . S
O27 Cd16 2.439 . S
O27 C21 1.208 . S
O28 Cd29 2.223 . S
O28 C36 1.315 . S
Cd29 O28 2.223 . S
Cd29 O32 2.297 . S
Cd29 O33 2.439 . S
Cd29 O39 2.240 . S
Cd30 O31 2.240 . S
Cd30 O38 2.223 . S
Cd30 O40 2.297 . S
Cd30 O41 2.439 . S
O31 Cd30 2.240 . S
O31 C36 1.279 . S
O32 Cd29 2.297 . S
O32 C34 1.247 . S
O33 Cd29 2.439 . S
O33 C34 1.208 . S
C34 O32 1.247 . S
C34 O33 1.208 . S
C35 O40 1.247 . S
C35 O41 1.208 . S
C36 O28 1.315 . S
C36 O31 1.279 . S
C37 O38 1.315 . S
C37 O39 1.279 . S
O38 Cd30 2.223 . S
O38 C37 1.315 . S
O39 Cd29 2.240 . S
O39 C37 1.279 . S
O40 Cd30 2.297 . S
O40 C35 1.247 . S
O41 Cd30 2.439 . S
O41 C35 1.208 . S
O42 Cd43 2.223 . S
O42 C50 1.315 . S
Cd43 O42 2.223 . S
Cd43 O46 2.297 . S
Cd43 O47 2.425 1_545 S
Cd43 O53 2.240 . S
Cd44 O45 2.240 . S
Cd44 O52 2.223 . S
Cd44 O54 2.297 . S
Cd44 O55 2.439 . S
O45 Cd44 2.240 . S
O45 C50 1.279 . S
O46 Cd43 2.297 . S
O46 C48 1.247 1_545 S
O47 Cd43 2.425 1_565 S
O47 C48 1.212 . S
C48 O46 1.247 1_565 S
C48 O47 1.212 . S
C49 O54 1.247 . S
C49 O55 1.208 . S
C50 O42 1.315 . S
C50 O45 1.279 . S
C51 O52 1.315 . S
C51 O53 1.279 . S
O52 Cd44 2.223 . S
O52 C51 1.315 . S
O53 Cd43 2.240 . S
O53 C51 1.279 . S
O54 Cd44 2.297 . S
O54 C49 1.247 . S
O55 Cd44 2.439 . S
O55 C49 1.208 . S
O56 Cd57 2.223 . S
O56 C64 1.315 . S
Cd57 O56 2.223 . S
Cd57 O60 2.297 . S
Cd57 O61 2.439 . S
Cd57 O67 2.240 . S
Cd58 O59 2.240 . S
Cd58 O66 2.223 . S
Cd58 O68 2.297 . S
Cd58 O69 2.439 . S
O59 Cd58 2.240 . S
O59 C64 1.279 . S
O60 Cd57 2.297 . S
O60 C62 1.247 . S
O61 Cd57 2.439 . S
O61 C62 1.208 . S
C62 O60 1.247 . S
C62 O61 1.208 . S
C63 O68 1.247 . S
C63 O69 1.208 . S
C64 O56 1.315 . S
C64 O59 1.279 . S
C65 O66 1.315 . S
C65 O67 1.279 . S
O66 Cd58 2.223 . S
O66 C65 1.315 . S
O67 Cd57 2.240 . S
O67 C65 1.279 . S
O68 Cd58 2.297 . S
O68 C63 1.247 . S
O69 Cd58 2.439 . S
O69 C63 1.208 . S
O70 Cd71 2.223 . S
O70 C78 1.315 . S
Cd71 O70 2.223 . S
Cd71 O74 2.297 . S
Cd71 O75 2.425 1_565 S
Cd71 O81 2.240 . S
Cd72 O73 2.240 . S
Cd72 O80 2.223 . S
Cd72 O82 2.297 . S
Cd72 O83 2.439 . S
O73 Cd72 2.240 . S
O73 C78 1.279 . S
O74 Cd71 2.297 . S
O74 C76 1.247 1_565 S
O75 Cd71 2.425 1_545 S
O75 C76 1.212 . S
C76 O74 1.247 1_545 S
C76 O75 1.212 . S
C77 O82 1.247 . S
C77 O83 1.208 . S
C78 O70 1.315 . S
C78 O73 1.279 . S
C79 O80 1.315 . S
C79 O81 1.279 . S
O80 Cd72 2.223 . S
O80 C79 1.315 . S
O81 Cd71 2.240 . S
O81 C79 1.279 . S
O82 Cd72 2.297 . S
O82 C77 1.247 . S
O83 Cd72 2.439 . S
O83 C77 1.208 . S
O84 Cd85 2.223 . S
O84 C92 1.315 . S
Cd85 O84 2.223 . S
Cd85 O88 2.297 . S
Cd85 O89 2.439 . S
Cd85 O95 2.240 . S
Cd86 O87 2.240 . S
Cd86 O94 2.223 . S
Cd86 O96 2.297 . S
Cd86 O97 2.439 . S
O87 Cd86 2.240 . S
O87 C92 1.279 . S
O88 Cd85 2.297 . S
O88 C90 1.247 . S
O89 Cd85 2.439 . S
O89 C90 1.208 . S
C90 O88 1.247 . S
C90 O89 1.208 . S
C91 O96 1.247 . S
C91 O97 1.208 . S
C92 O84 1.315 . S
C92 O87 1.279 . S
C93 O94 1.315 . S
C93 O95 1.279 . S
O94 Cd86 2.223 . S
O94 C93 1.315 . S
O95 Cd85 2.240 . S
O95 C93 1.279 . S
O96 Cd86 2.297 . S
O96 C91 1.247 . S
O97 Cd86 2.439 . S
O97 C91 1.208 . S
O98 Cd99 2.223 . S
O98 C106 1.315 . S
Cd99 O98 2.223 . S
Cd99 O102 2.297 . S
Cd99 O103 2.425 1_545 S
Cd99 O109 2.240 . S
Cd100 O101 2.240 . S
Cd100 O108 2.223 . S
Cd100 O110 2.297 . S
Cd100 O111 2.439 . S
O101 Cd100 2.240 . S
O101 C106 1.279 . S
O102 Cd99 2.297 . S
O102 C104 1.247 1_545 S
O103 Cd99 2.425 1_565 S
O103 C104 1.212 . S
C104 O102 1.247 1_565 S
C104 O103 1.212 . S
C105 O110 1.247 . S
C105 O111 1.208 . S
C106 O98 1.315 . S
C106 O101 1.279 . S
C107 O108 1.315 . S
C107 O109 1.279 . S
O108 Cd100 2.223 . S
O108 C107 1.315 . S
O109 Cd99 2.240 . S
O109 C107 1.279 . S
O110 Cd100 2.297 . S
O110 C105 1.247 . S
O111 Cd100 2.439 . S
O111 C105 1.208 . S
O112 Cd113 2.223 . S
O112 C120 1.315 . S
Cd113 O112 2.223 . S
Cd113 O116 2.297 . S
Cd113 O117 2.439 . S
Cd113 O123 2.240 . S
Cd114 O115 2.240 . S
Cd114 O122 2.223 . S
Cd114 O124 2.297 . S
Cd114 O125 2.439 . S
O115 Cd114 2.240 . S
O115 C120 1.279 . S
O116 Cd113 2.297 . S
O116 C118 1.247 . S
O117 Cd113 2.439 . S
O117 C118 1.208 . S
C118 O116 1.247 . S
C118 O117 1.208 . S
C119 O124 1.247 . S
C119 O125 1.208 . S
C120 O112 1.315 . S
C120 O115 1.279 . S
C121 O122 1.315 . S
C121 O123 1.279 . S
O122 Cd114 2.223 . S
O122 C121 1.315 . S
O123 Cd113 2.240 . S
O123 C121 1.279 . S
O124 Cd114 2.297 . S
O124 C119 1.247 . S
O125 Cd114 2.439 . S
O125 C119 1.208 . S
O126 Cd127 2.223 . S
O126 C134 1.315 . S
Cd127 O126 2.223 . S
Cd127 O130 2.297 . S
Cd127 O131 2.425 1_545 S
Cd127 O137 2.240 . S
Cd128 O129 2.240 . S
Cd128 O136 2.223 . S
Cd128 O138 2.297 . S
Cd128 O139 2.439 . S
O129 Cd128 2.240 . S
O129 C134 1.279 . S
O130 Cd127 2.297 . S
O130 C132 1.247 1_545 S
O131 Cd127 2.425 1_565 S
O131 C132 1.212 . S
C132 O130 1.247 1_565 S
C132 O131 1.212 . S
C133 O138 1.247 . S
C133 O139 1.208 . S
C134 O126 1.315 . S
C134 O129 1.279 . S
C135 O136 1.315 . S
C135 O137 1.279 . S
O136 Cd128 2.223 . S
O136 C135 1.315 . S
O137 Cd127 2.240 . S
O137 C135 1.279 . S
O138 Cd128 2.297 . S
O138 C133 1.247 . S
O139 Cd128 2.439 . S
O139 C133 1.208 . S
O140 Cd141 2.223 . S
O140 C148 1.315 . S
Cd141 O140 2.223 . S
Cd141 O144 2.297 . S
Cd141 O145 2.439 . S
Cd141 O151 2.240 . S
Cd142 O143 2.240 . S
Cd142 O150 2.223 . S
Cd142 O152 2.297 . S
Cd142 O153 2.439 . S
O143 Cd142 2.240 . S
O143 C148 1.279 . S
O144 Cd141 2.297 . S
O144 C146 1.247 . S
O145 Cd141 2.439 . S
O145 C146 1.208 . S
C146 O144 1.247 . S
C146 O145 1.208 . S
C147 O152 1.247 . S
C147 O153 1.208 . S
C148 O140 1.315 . S
C148 O143 1.279 . S
C149 O150 1.315 . S
C149 O151 1.279 . S
O150 Cd142 2.223 . S
O150 C149 1.315 . S
O151 Cd141 2.240 . S
O151 C149 1.279 . S
O152 Cd142 2.297 . S
O152 C147 1.247 . S
O153 Cd142 2.439 . S
O153 C147 1.208 . S
O154 Cd155 2.223 . S
O154 C162 1.315 . S
Cd155 O154 2.223 . S
Cd155 O158 2.297 . S
Cd155 O159 2.425 1_565 S
Cd155 O165 2.240 . S
Cd156 O157 2.240 . S
Cd156 O164 2.223 . S
Cd156 O166 2.297 . S
Cd156 O167 2.439 . S
O157 Cd156 2.240 . S
O157 C162 1.279 . S
O158 Cd155 2.297 . S
O158 C160 1.247 1_565 S
O159 Cd155 2.425 1_545 S
O159 C160 1.212 . S
C160 O158 1.247 1_545 S
C160 O159 1.212 . S
C161 O166 1.247 . S
C161 O167 1.208 . S
C162 O154 1.315 . S
C162 O157 1.279 . S
C163 O164 1.315 . S
C163 O165 1.279 . S
O164 Cd156 2.223 . S
O164 C163 1.315 . S
O165 Cd155 2.240 . S
O165 C163 1.279 . S
O166 Cd156 2.297 . S
O166 C161 1.247 . S
O167 Cd156 2.439 . S
O167 C161 1.208 . S
O168 Cd169 2.223 . S
O168 C176 1.315 . S
Cd169 O168 2.223 . S
Cd169 O172 2.297 . S
Cd169 O173 2.439 . S
Cd169 O179 2.240 . S
Cd170 O171 2.240 . S
Cd170 O178 2.223 . S
Cd170 O180 2.297 . S
Cd170 O181 2.439 . S
O171 Cd170 2.240 . S
O171 C176 1.279 . S
O172 Cd169 2.297 . S
O172 C174 1.247 . S
O173 Cd169 2.439 . S
O173 C174 1.208 . S
C174 O172 1.247 . S
C174 O173 1.208 . S
C175 O180 1.247 . S
C175 O181 1.208 . S
C176 O168 1.315 . S
C176 O171 1.279 . S
C177 O178 1.315 . S
C177 O179 1.279 . S
O178 Cd170 2.223 . S
O178 C177 1.315 . S
O179 Cd169 2.240 . S
O179 C177 1.279 . S
O180 Cd170 2.297 . S
O180 C175 1.247 . S
O181 Cd170 2.439 . S
O181 C175 1.208 . S
O182 Cd183 2.223 . S
O182 C190 1.315 . S
Cd183 O182 2.223 . S
Cd183 O186 2.297 . S
Cd183 O187 2.425 1_545 S
Cd183 O193 2.240 . S
Cd184 O185 2.240 . S
Cd184 O192 2.223 . S
Cd184 O194 2.297 . S
Cd184 O195 2.439 . S
O185 Cd184 2.240 . S
O185 C190 1.279 . S
O186 Cd183 2.297 . S
O186 C188 1.247 1_545 S
O187 Cd183 2.425 1_565 S
O187 C188 1.212 . S
C188 O186 1.247 1_565 S
C188 O187 1.212 . S
C189 O194 1.247 . S
C189 O195 1.208 . S
C190 O182 1.315 . S
C190 O185 1.279 . S
C191 O192 1.315 . S
C191 O193 1.279 . S
O192 Cd184 2.223 . S
O192 C191 1.315 . S
O193 Cd183 2.240 . S
O193 C191 1.279 . S
O194 Cd184 2.297 . S
O194 C189 1.247 . S
O195 Cd184 2.439 . S
O195 C189 1.208 . S
O196 Cd197 2.223 . S
O196 C204 1.315 . S
Cd197 O196 2.223 . S
Cd197 O200 2.297 . S
Cd197 O201 2.439 . S
Cd197 O207 2.240 . S
Cd198 O199 2.240 . S
Cd198 O206 2.223 . S
Cd198 O208 2.297 . S
Cd198 O209 2.439 . S
O199 Cd198 2.240 . S
O199 C204 1.279 . S
O200 Cd197 2.297 . S
O200 C202 1.247 . S
O201 Cd197 2.439 . S
O201 C202 1.208 . S
C202 O200 1.247 . S
C202 O201 1.208 . S
C203 O208 1.247 . S
C203 O209 1.208 . S
C204 O196 1.315 . S
C204 O199 1.279 . S
C205 O206 1.315 . S
C205 O207 1.279 . S
O206 Cd198 2.223 . S
O206 C205 1.315 . S
O207 Cd197 2.240 . S
O207 C205 1.279 . S
O208 Cd198 2.297 . S
O208 C203 1.247 . S
O209 Cd198 2.439 . S
O209 C203 1.208 . S
O210 Cd211 2.223 . S
O210 C218 1.315 . S
Cd211 O210 2.223 . S
Cd211 O214 2.297 . S
Cd211 O215 2.425 1_565 S
Cd211 O221 2.240 . S
Cd212 O213 2.240 . S
Cd212 O220 2.223 . S
Cd212 O222 2.297 . S
Cd212 O223 2.439 . S
O213 Cd212 2.240 . S
O213 C218 1.279 . S
O214 Cd211 2.297 . S
O214 C216 1.247 1_565 S
O215 Cd211 2.425 1_545 S
O215 C216 1.212 . S
C216 O214 1.247 1_545 S
C216 O215 1.212 . S
C217 O222 1.247 . S
C217 O223 1.208 . S
C218 O210 1.315 . S
C218 O213 1.279 . S
C219 O220 1.315 . S
C219 O221 1.279 . S
O220 Cd212 2.223 . S
O220 C219 1.315 . S
O221 Cd211 2.240 . S
O221 C219 1.279 . S
O222 Cd212 2.297 . S
O222 C217 1.247 . S
O223 Cd212 2.439 . S
O223 C217 1.208 . S
O224 Cd225 2.223 . S
O224 C232 1.315 . S
Cd225 O224 2.223 . S
Cd225 O228 2.297 . S
Cd225 O229 2.439 . S
Cd225 O235 2.240 . S
Cd226 O227 2.240 . S
Cd226 O234 2.223 . S
Cd226 O236 2.297 . S
Cd226 O237 2.439 . S
O227 Cd226 2.240 . S
O227 C232 1.279 . S
O228 Cd225 2.297 . S
O228 C230 1.247 . S
O229 Cd225 2.439 . S
O229 C230 1.208 . S
C230 O228 1.247 . S
C230 O229 1.208 . S
C231 O236 1.247 . S
C231 O237 1.208 . S
C232 O224 1.315 . S
C232 O227 1.279 . S
C233 O234 1.315 . S
C233 O235 1.279 . S
O234 Cd226 2.223 . S
O234 C233 1.315 . S
O235 Cd225 2.240 . S
O235 C233 1.279 . S
O236 Cd226 2.297 . S
O236 C231 1.247 . S
O237 Cd226 2.439 . S
O237 C231 1.208 . S
O238 Cd239 2.223 . S
O238 C246 1.315 . S
Cd239 O238 2.223 . S
Cd239 O242 2.297 . S
Cd239 O243 2.439 . S
Cd239 O249 2.240 . S
Cd240 O241 2.240 . S
Cd240 O248 2.223 . S
Cd240 O250 2.297 . S
Cd240 O251 2.439 . S
O241 Cd240 2.240 . S
O241 C246 1.279 . S
O242 Cd239 2.297 . S
O242 C244 1.247 . S
O243 Cd239 2.439 . S
O243 C244 1.208 . S
C244 O242 1.247 . S
C244 O243 1.208 . S
C245 O250 1.247 . S
C245 O251 1.208 . S
C246 O238 1.315 . S
C246 O241 1.279 . S
C247 O248 1.315 . S
C247 O249 1.279 . S
O248 Cd240 2.223 . S
O248 C247 1.315 . S
O249 Cd239 2.240 . S
O249 C247 1.279 . S
O250 Cd240 2.297 . S
O250 C245 1.247 . S
O251 Cd240 2.439 . S
O251 C245 1.208 . S
O252 Cd253 2.223 . S
O252 C260 1.315 . S
Cd253 O252 2.223 . S
Cd253 O256 2.297 . S
Cd253 O257 2.439 . S
Cd253 O263 2.240 . S
Cd254 O255 2.240 . S
Cd254 O262 2.223 . S
Cd254 O264 2.297 . S
Cd254 O265 2.439 . S
O255 Cd254 2.240 . S
O255 C260 1.279 . S
O256 Cd253 2.297 . S
O256 C258 1.247 . S
O257 Cd253 2.439 . S
O257 C258 1.208 . S
C258 O256 1.247 . S
C258 O257 1.208 . S
C259 O264 1.247 . S
C259 O265 1.208 . S
C260 O252 1.315 . S
C260 O255 1.279 . S
C261 O262 1.315 . S
C261 O263 1.279 . S
O262 Cd254 2.223 . S
O262 C261 1.315 . S
O263 Cd253 2.240 . S
O263 C261 1.279 . S
O264 Cd254 2.297 . S
O264 C259 1.247 . S
O265 Cd254 2.439 . S
O265 C259 1.208 . S
O266 Cd267 2.223 . S
O266 C274 1.315 . S
Cd267 O266 2.223 . S
Cd267 O270 2.297 . S
Cd267 O271 2.439 . S
Cd267 O277 2.240 . S
Cd268 O269 2.240 . S
Cd268 O276 2.223 . S
Cd268 O278 2.297 . S
Cd268 O279 2.439 . S
O269 Cd268 2.240 . S
O269 C274 1.279 . S
O270 Cd267 2.297 . S
O270 C272 1.247 . S
O271 Cd267 2.439 . S
O271 C272 1.208 . S
C272 O270 1.247 . S
C272 O271 1.208 . S
C273 O278 1.247 . S
C273 O279 1.208 . S
C274 O266 1.315 . S
C274 O269 1.279 . S
C275 O276 1.315 . S
C275 O277 1.279 . S
O276 Cd268 2.223 . S
O276 C275 1.315 . S
O277 Cd267 2.240 . S
O277 C275 1.279 . S
O278 Cd268 2.297 . S
O278 C273 1.247 . S
O279 Cd268 2.439 . S
O279 C273 1.208 . S
O280 Cd281 2.223 . S
O280 C288 1.315 . S
Cd281 O280 2.223 . S
Cd281 O284 2.297 . S
Cd281 O285 2.439 . S
Cd281 O291 2.240 . S
Cd282 O283 2.240 . S
Cd282 O290 2.223 . S
Cd282 O292 2.297 . S
Cd282 O293 2.439 . S
O283 Cd282 2.240 . S
O283 C288 1.279 . S
O284 Cd281 2.297 . S
O284 C286 1.247 . S
O285 Cd281 2.439 . S
O285 C286 1.208 . S
C286 O284 1.247 . S
C286 O285 1.208 . S
C287 O292 1.247 . S
C287 O293 1.208 . S
C288 O280 1.315 . S
C288 O283 1.279 . S
C289 O290 1.315 . S
C289 O291 1.279 . S
O290 Cd282 2.223 . S
O290 C289 1.315 . S
O291 Cd281 2.240 . S
O291 C289 1.279 . S
O292 Cd282 2.297 . S
O292 C287 1.247 . S
O293 Cd282 2.439 . S
O293 C287 1.208 . S
O294 Cd295 2.223 . S
O294 C302 1.315 . S
Cd295 O294 2.223 . S
Cd295 O298 2.297 . S
Cd295 O299 2.439 . S
Cd295 O305 2.240 . S
Cd296 O297 2.240 . S
Cd296 O304 2.223 . S
Cd296 O306 2.297 . S
Cd296 O307 2.439 . S
O297 Cd296 2.240 . S
O297 C302 1.279 . S
O298 Cd295 2.297 . S
O298 C300 1.247 . S
O299 Cd295 2.439 . S
O299 C300 1.208 . S
C300 O298 1.247 . S
C300 O299 1.208 . S
C301 O306 1.247 . S
C301 O307 1.208 . S
C302 O294 1.315 . S
C302 O297 1.279 . S
C303 O304 1.315 . S
C303 O305 1.279 . S
O304 Cd296 2.223 . S
O304 C303 1.315 . S
O305 Cd295 2.240 . S
O305 C303 1.279 . S
O306 Cd296 2.297 . S
O306 C301 1.247 . S
O307 Cd296 2.439 . S
O307 C301 1.208 . S
O308 Cd309 2.223 . S
O308 C316 1.315 . S
Cd309 O308 2.223 . S
Cd309 O312 2.297 . S
Cd309 O313 2.439 . S
Cd309 O319 2.240 . S
Cd310 O311 2.240 . S
Cd310 O318 2.223 . S
Cd310 O320 2.297 . S
Cd310 O321 2.439 . S
O311 Cd310 2.240 . S
O311 C316 1.279 . S
O312 Cd309 2.297 . S
O312 C314 1.247 . S
O313 Cd309 2.439 . S
O313 C314 1.208 . S
C314 O312 1.247 . S
C314 O313 1.208 . S
C315 O320 1.247 . S
C315 O321 1.208 . S
C316 O308 1.315 . S
C316 O311 1.279 . S
C317 O318 1.315 . S
C317 O319 1.279 . S
O318 Cd310 2.223 . S
O318 C317 1.315 . S
O319 Cd309 2.240 . S
O319 C317 1.279 . S
O320 Cd310 2.297 . S
O320 C315 1.247 . S
O321 Cd310 2.439 . S
O321 C315 1.208 . S
O322 Cd323 2.223 . S
O322 C330 1.315 . S
Cd323 O322 2.223 . S
Cd323 O326 2.297 . S
Cd323 O327 2.439 . S
Cd323 O333 2.240 . S
Cd324 O325 2.240 . S
Cd324 O332 2.223 . S
Cd324 O334 2.297 . S
Cd324 O335 2.439 . S
O325 Cd324 2.240 . S
O325 C330 1.279 . S
O326 Cd323 2.297 . S
O326 C328 1.247 . S
O327 Cd323 2.439 . S
O327 C328 1.208 . S
C328 O326 1.247 . S
C328 O327 1.208 . S
C329 O334 1.247 . S
C329 O335 1.208 . S
C330 O322 1.315 . S
C330 O325 1.279 . S
C331 O332 1.315 . S
C331 O333 1.279 . S
O332 Cd324 2.223 . S
O332 C331 1.315 . S
O333 Cd323 2.240 . S
O333 C331 1.279 . S
O334 Cd324 2.297 . S
O334 C329 1.247 . S
O335 Cd324 2.439 . S
O335 C329 1.208 . S
O336 Cd337 2.223 . S
O336 C344 1.315 . S
Cd337 O336 2.223 . S
Cd337 O340 2.297 . S
Cd337 O341 2.439 . S
Cd337 O347 2.240 . S
Cd338 O339 2.240 . S
Cd338 O346 2.223 . S
Cd338 O348 2.297 . S
Cd338 O349 2.439 . S
O339 Cd338 2.240 . S
O339 C344 1.279 . S
O340 Cd337 2.297 . S
O340 C342 1.247 . S
O341 Cd337 2.439 . S
O341 C342 1.208 . S
C342 O340 1.247 . S
C342 O341 1.208 . S
C343 O348 1.247 . S
C343 O349 1.208 . S
C344 O336 1.315 . S
C344 O339 1.279 . S
C345 O346 1.315 . S
C345 O347 1.279 . S
O346 Cd338 2.223 . S
O346 C345 1.315 . S
O347 Cd337 2.240 . S
O347 C345 1.279 . S
O348 Cd338 2.297 . S
O348 C343 1.247 . S
O349 Cd338 2.439 . S
O349 C343 1.208 . S
O350 Cd351 2.223 . S
O350 C358 1.315 . S
Cd351 O350 2.223 . S
Cd351 O354 2.297 . S
Cd351 O355 2.439 . S
Cd351 O361 2.240 . S
Cd352 O353 2.240 . S
Cd352 O360 2.223 . S
Cd352 O362 2.297 . S
Cd352 O363 2.439 . S
O353 Cd352 2.240 . S
O353 C358 1.279 . S
O354 Cd351 2.297 . S
O354 C356 1.247 . S
O355 Cd351 2.439 . S
O355 C356 1.208 . S
C356 O354 1.247 . S
C356 O355 1.208 . S
C357 O362 1.247 . S
C357 O363 1.208 . S
C358 O350 1.315 . S
C358 O353 1.279 . S
C359 O360 1.315 . S
C359 O361 1.279 . S
O360 Cd352 2.223 . S
O360 C359 1.315 . S
O361 Cd351 2.240 . S
O361 C359 1.279 . S
O362 Cd352 2.297 . S
O362 C357 1.247 . S
O363 Cd352 2.439 . S
O363 C357 1.208 . S
O364 Cd365 2.223 . S
O364 C372 1.315 . S
Cd365 O364 2.223 . S
Cd365 O368 2.297 . S
Cd365 O369 2.439 . S
Cd365 O375 2.240 . S
Cd366 O367 2.240 . S
Cd366 O374 2.223 . S
Cd366 O376 2.297 . S
Cd366 O377 2.439 . S
O367 Cd366 2.240 . S
O367 C372 1.279 . S
O368 Cd365 2.297 . S
O368 C370 1.247 . S
O369 Cd365 2.439 . S
O369 C370 1.208 . S
C370 O368 1.247 . S
C370 O369 1.208 . S
C371 O376 1.247 . S
C371 O377 1.208 . S
C372 O364 1.315 . S
C372 O367 1.279 . S
C373 O374 1.315 . S
C373 O375 1.279 . S
O374 Cd366 2.223 . S
O374 C373 1.315 . S
O375 Cd365 2.240 . S
O375 C373 1.279 . S
O376 Cd366 2.297 . S
O376 C371 1.247 . S
O377 Cd366 2.439 . S
O377 C371 1.208 . S
O378 Cd379 2.223 . S
O378 C386 1.315 . S
Cd379 O378 2.223 . S
Cd379 O382 2.297 . S
Cd379 O383 2.439 . S
Cd379 O389 2.240 . S
Cd380 O381 2.240 . S
Cd380 O388 2.223 . S
Cd380 O390 2.297 . S
Cd380 O391 2.439 . S
O381 Cd380 2.240 . S
O381 C386 1.279 . S
O382 Cd379 2.297 . S
O382 C384 1.247 . S
O383 Cd379 2.439 . S
O383 C384 1.208 . S
C384 O382 1.247 . S
C384 O383 1.208 . S
C385 O390 1.247 . S
C385 O391 1.208 . S
C386 O378 1.315 . S
C386 O381 1.279 . S
C387 O388 1.315 . S
C387 O389 1.279 . S
O388 Cd380 2.223 . S
O388 C387 1.315 . S
O389 Cd379 2.240 . S
O389 C387 1.279 . S
O390 Cd380 2.297 . S
O390 C385 1.247 . S
O391 Cd380 2.439 . S
O391 C385 1.208 . S
O392 Cd393 2.223 . S
O392 C400 1.315 . S
Cd393 O392 2.223 . S
Cd393 O396 2.297 . S
Cd393 O397 2.439 . S
Cd393 O403 2.240 . S
Cd394 O395 2.240 . S
Cd394 O402 2.223 . S
Cd394 O404 2.297 . S
Cd394 O405 2.439 . S
O395 Cd394 2.240 . S
O395 C400 1.279 . S
O396 Cd393 2.297 . S
O396 C398 1.247 . S
O397 Cd393 2.439 . S
O397 C398 1.208 . S
C398 O396 1.247 . S
C398 O397 1.208 . S
C399 O404 1.247 . S
C399 O405 1.208 . S
C400 O392 1.315 . S
C400 O395 1.279 . S
C401 O402 1.315 . S
C401 O403 1.279 . S
O402 Cd394 2.223 . S
O402 C401 1.315 . S
O403 Cd393 2.240 . S
O403 C401 1.279 . S
O404 Cd394 2.297 . S
O404 C399 1.247 . S
O405 Cd394 2.439 . S
O405 C399 1.208 . S
O406 Cd407 2.223 . S
O406 C414 1.315 . S
Cd407 O406 2.223 . S
Cd407 O410 2.297 . S
Cd407 O411 2.439 . S
Cd407 O417 2.240 . S
Cd408 O409 2.240 . S
Cd408 O416 2.223 . S
Cd408 O418 2.297 . S
Cd408 O419 2.439 . S
O409 Cd408 2.240 . S
O409 C414 1.279 . S
O410 Cd407 2.297 . S
O410 C412 1.247 . S
O411 Cd407 2.439 . S
O411 C412 1.208 . S
C412 O410 1.247 . S
C412 O411 1.208 . S
C413 O418 1.247 . S
C413 O419 1.208 . S
C414 O406 1.315 . S
C414 O409 1.279 . S
C415 O416 1.315 . S
C415 O417 1.279 . S
O416 Cd408 2.223 . S
O416 C415 1.315 . S
O417 Cd407 2.240 . S
O417 C415 1.279 . S
O418 Cd408 2.297 . S
O418 C413 1.247 . S
O419 Cd408 2.439 . S
O419 C413 1.208 . S
O420 Cd421 2.223 . S
O420 C428 1.315 . S
Cd421 O420 2.223 . S
Cd421 O424 2.297 . S
Cd421 O425 2.439 . S
Cd421 O431 2.240 . S
Cd422 O423 2.240 . S
Cd422 O430 2.223 . S
Cd422 O432 2.297 . S
Cd422 O433 2.439 . S
O423 Cd422 2.240 . S
O423 C428 1.279 . S
O424 Cd421 2.297 . S
O424 C426 1.247 . S
O425 Cd421 2.439 . S
O425 C426 1.208 . S
C426 O424 1.247 . S
C426 O425 1.208 . S
C427 O432 1.247 . S
C427 O433 1.208 . S
C428 O420 1.315 . S
C428 O423 1.279 . S
C429 O430 1.315 . S
C429 O431 1.279 . S
O430 Cd422 2.223 . S
O430 C429 1.315 . S
O431 Cd421 2.240 . S
O431 C429 1.279 . S
O432 Cd422 2.297 . S
O432 C427 1.247 . S
O433 Cd422 2.439 . S
O433 C427 1.208 . S
O434 Cd435 2.223 . S
O434 C442 1.315 . S
Cd435 O434 2.223 . S
Cd435 O438 2.297 . S
Cd435 O439 2.439 . S
Cd435 O445 2.240 . S
Cd436 O437 2.240 . S
Cd436 O444 2.223 . S
Cd436 O446 2.297 . S
Cd436 O447 2.439 . S
O437 Cd436 2.240 . S
O437 C442 1.279 . S
O438 Cd435 2.297 . S
O438 C440 1.247 . S
O439 Cd435 2.439 . S
O439 C440 1.208 . S
C440 O438 1.247 . S
C440 O439 1.208 . S
C441 O446 1.247 . S
C441 O447 1.208 . S
C442 O434 1.315 . S
C442 O437 1.279 . S
C443 O444 1.315 . S
C443 O445 1.279 . S
O444 Cd436 2.223 . S
O444 C443 1.315 . S
O445 Cd435 2.240 . S
O445 C443 1.279 . S
O446 Cd436 2.297 . S
O446 C441 1.247 . S
O447 Cd436 2.439 . S
O447 C441 1.208 . S
C448 C449 1.369 . S
C448 C450 1.419 . S
C448 H452 0.930 . S
C449 C448 1.369 . S
C449 C458 1.429 . S
C450 C448 1.419 . S
C450 C451 1.363 . S
C450 H453 0.929 . S
C451 C450 1.363 . S
C451 C457 1.428 . S
H452 C448 0.930 . S
H453 C450 0.929 . S
S454 N455 1.613 . S
S454 N456 1.610 . S
N455 S454 1.613 . S
N455 C458 1.350 . S
N456 S454 1.610 . S
N456 C457 1.351 . S
C457 C451 1.428 . S
C457 N456 1.351 . S
C457 C458 1.434 . S
C458 C449 1.429 . S
C458 N455 1.350 . S
C458 C457 1.434 . S
C459 C460 1.369 . S
C459 C461 1.419 . S
C459 H463 0.930 . S
C460 C459 1.369 . S
C460 C469 1.429 . S
C461 C459 1.419 . S
C461 C462 1.363 . S
C461 H464 0.929 . S
C462 C461 1.363 . S
C462 C468 1.428 . S
H463 C459 0.930 . S
H464 C461 0.929 . S
S465 N466 1.613 . S
S465 N467 1.610 . S
N466 S465 1.613 . S
N466 C469 1.350 . S
N467 S465 1.610 . S
N467 C468 1.351 . S
C468 C462 1.428 . S
C468 N467 1.351 . S
C468 C469 1.434 . S
C469 C460 1.429 . S
C469 N466 1.350 . S
C469 C468 1.434 . S
C470 C471 1.369 . S
C470 C472 1.419 . S
C470 H474 0.930 . S
C471 C470 1.369 . S
C471 C480 1.429 . S
C472 C470 1.419 . S
C472 C473 1.363 . S
C472 H475 0.929 . S
C473 C472 1.363 . S
C473 C479 1.428 . S
H474 C470 0.930 . S
H475 C472 0.929 . S
S476 N477 1.613 . S
S476 N478 1.610 . S
N477 S476 1.613 . S
N477 C480 1.350 . S
N478 S476 1.610 . S
N478 C479 1.351 . S
C479 C473 1.428 . S
C479 N478 1.351 . S
C479 C480 1.434 . S
C480 C471 1.429 . S
C480 N477 1.350 . S
C480 C479 1.434 . S
C481 C482 1.369 . S
C481 C483 1.419 . S
C481 H485 0.930 . S
C482 C481 1.369 . S
C482 C491 1.429 . S
C483 C481 1.419 . S
C483 C484 1.363 . S
C483 H486 0.929 . S
C484 C483 1.363 . S
C484 C490 1.428 . S
H485 C481 0.930 . S
H486 C483 0.929 . S
S487 N488 1.613 . S
S487 N489 1.610 . S
N488 S487 1.613 . S
N488 C491 1.350 . S
N489 S487 1.610 . S
N489 C490 1.351 . S
C490 C484 1.428 . S
C490 N489 1.351 . S
C490 C491 1.434 . S
C491 C482 1.429 . S
C491 N488 1.350 . S
C491 C490 1.434 . S
C492 C493 1.369 . S
C492 C494 1.419 . S
C492 H496 0.930 . S
C493 C492 1.369 . S
C493 C502 1.429 . S
C494 C492 1.419 . S
C494 C495 1.363 . S
C494 H497 0.929 . S
C495 C494 1.363 . S
C495 C501 1.428 . S
H496 C492 0.930 . S
H497 C494 0.929 . S
S498 N499 1.613 . S
S498 N500 1.610 . S
N499 S498 1.613 . S
N499 C502 1.350 . S
N500 S498 1.610 . S
N500 C501 1.351 . S
C501 C495 1.428 . S
C501 N500 1.351 . S
C501 C502 1.434 . S
C502 C493 1.429 . S
C502 N499 1.350 . S
C502 C501 1.434 . S
C503 C504 1.369 . S
C503 C505 1.419 . S
C503 H507 0.930 . S
C504 C503 1.369 . S
C504 C513 1.429 . S
C505 C503 1.419 . S
C505 C506 1.363 . S
C505 H508 0.929 . S
C506 C505 1.363 . S
C506 C512 1.428 . S
H507 C503 0.930 . S
H508 C505 0.929 . S
S509 N510 1.613 . S
S509 N511 1.610 . S
N510 S509 1.613 . S
N510 C513 1.350 . S
N511 S509 1.610 . S
N511 C512 1.351 . S
C512 C506 1.428 . S
C512 N511 1.351 . S
C512 C513 1.434 . S
C513 C504 1.429 . S
C513 N510 1.350 . S
C513 C512 1.434 . S
C514 C515 1.369 . S
C514 C516 1.419 . S
C514 H518 0.930 . S
C515 C514 1.369 . S
C515 C524 1.429 . S
C516 C514 1.419 . S
C516 C517 1.363 . S
C516 H519 0.929 . S
C517 C516 1.363 . S
C517 C523 1.428 . S
H518 C514 0.930 . S
H519 C516 0.929 . S
S520 N521 1.613 . S
S520 N522 1.610 . S
N521 S520 1.613 . S
N521 C524 1.350 . S
N522 S520 1.610 . S
N522 C523 1.351 . S
C523 C517 1.428 . S
C523 N522 1.351 . S
C523 C524 1.434 . S
C524 C515 1.429 . S
C524 N521 1.350 . S
C524 C523 1.434 . S
C525 C526 1.369 . S
C525 C527 1.419 . S
C525 H529 0.930 . S
C526 C525 1.369 . S
C526 C535 1.429 . S
C527 C525 1.419 . S
C527 C528 1.363 . S
C527 H530 0.929 . S
C528 C527 1.363 . S
C528 C534 1.428 . S
H529 C525 0.930 . S
H530 C527 0.929 . S
S531 N532 1.611 1_655 S
S531 N533 1.610 . S
N532 S531 1.611 1_455 S
N532 C535 1.345 1_455 S
N533 S531 1.610 . S
N533 C534 1.351 . S
C534 C528 1.428 . S
C534 N533 1.351 . S
C534 C535 1.434 . S
C535 C526 1.429 . S
C535 N532 1.345 1_655 S
C535 C534 1.434 . S
C536 C537 1.369 . S
C536 C538 1.419 . S
C536 H540 0.930 . S
C537 C536 1.369 . S
C537 C546 1.429 . S
C538 C536 1.419 . S
C538 C539 1.363 . S
C538 H541 0.929 . S
C539 C538 1.363 . S
C539 C545 1.428 . S
H540 C536 0.930 . S
H541 C538 0.929 . S
S542 N543 1.613 . S
S542 N544 1.610 . S
N543 S542 1.613 . S
N543 C546 1.350 . S
N544 S542 1.610 . S
N544 C545 1.351 . S
C545 C539 1.428 . S
C545 N544 1.351 . S
C545 C546 1.434 . S
C546 C537 1.429 . S
C546 N543 1.350 . S
C546 C545 1.434 . S
C547 C548 1.369 . S
C547 C549 1.419 . S
C547 H551 0.930 . S
C548 C547 1.369 . S
C548 C557 1.429 . S
C549 C547 1.419 . S
C549 C550 1.363 . S
C549 H552 0.929 . S
C550 C549 1.363 . S
C550 C556 1.428 . S
H551 C547 0.930 . S
H552 C549 0.929 . S
S553 N554 1.613 . S
S553 N555 1.610 . S
N554 S553 1.613 . S
N554 C557 1.350 . S
N555 S553 1.610 . S
N555 C556 1.351 . S
C556 C550 1.428 . S
C556 N555 1.351 . S
C556 C557 1.434 . S
C557 C548 1.429 . S
C557 N554 1.350 . S
C557 C556 1.434 . S
C558 C559 1.369 . S
C558 C560 1.419 . S
C558 H562 0.930 . S
C559 C558 1.369 . S
C559 C568 1.429 . S
C560 C558 1.419 . S
C560 C561 1.363 . S
C560 H563 0.929 . S
C561 C560 1.363 . S
C561 C567 1.428 . S
H562 C558 0.930 . S
H563 C560 0.929 . S
S564 N565 1.613 . S
S564 N566 1.610 . S
N565 S564 1.613 . S
N565 C568 1.350 . S
N566 S564 1.610 . S
N566 C567 1.351 . S
C567 C561 1.428 . S
C567 N566 1.351 . S
C567 C568 1.434 . S
C568 C559 1.429 . S
C568 N565 1.350 . S
C568 C567 1.434 . S
C569 C570 1.369 . S
C569 C571 1.419 . S
C569 H573 0.930 . S
C570 C569 1.369 . S
C570 C579 1.429 . S
C571 C569 1.419 . S
C571 C572 1.363 . S
C571 H574 0.929 . S
C572 C571 1.363 . S
C572 C578 1.428 . S
H573 C569 0.930 . S
H574 C571 0.929 . S
S575 N576 1.613 . S
S575 N577 1.610 . S
N576 S575 1.613 . S
N576 C579 1.350 . S
N577 S575 1.610 . S
N577 C578 1.351 . S
C578 C572 1.428 . S
C578 N577 1.351 . S
C578 C579 1.434 . S
C579 C570 1.429 . S
C579 N576 1.350 . S
C579 C578 1.434 . S
C580 C581 1.369 . S
C580 C582 1.419 . S
C580 H584 0.930 . S
C581 C580 1.369 . S
C581 C590 1.429 . S
C582 C580 1.419 . S
C582 C583 1.363 . S
C582 H585 0.929 . S
C583 C582 1.363 . S
C583 C589 1.428 . S
H584 C580 0.930 . S
H585 C582 0.929 . S
S586 N587 1.613 . S
S586 N588 1.610 . S
N587 S586 1.613 . S
N587 C590 1.350 . S
N588 S586 1.610 . S
N588 C589 1.351 . S
C589 C583 1.428 . S
C589 N588 1.351 . S
C589 C590 1.434 . S
C590 C581 1.429 . S
C590 N587 1.350 . S
C590 C589 1.434 . S
C591 C592 1.369 . S
C591 C593 1.419 . S
C591 H595 0.930 . S
C592 C591 1.369 . S
C592 C601 1.429 . S
C593 C591 1.419 . S
C593 C594 1.363 . S
C593 H596 0.929 . S
C594 C593 1.363 . S
C594 C600 1.428 . S
H595 C591 0.930 . S
H596 C593 0.929 . S
S597 N598 1.613 . S
S597 N599 1.610 . S
N598 S597 1.613 . S
N598 C601 1.350 . S
N599 S597 1.610 . S
N599 C600 1.351 . S
C600 C594 1.428 . S
C600 N599 1.351 . S
C600 C601 1.434 . S
C601 C592 1.429 . S
C601 N598 1.350 . S
C601 C600 1.434 . S
C602 C603 1.369 . S
C602 C604 1.419 . S
C602 H606 0.930 . S
C603 C602 1.369 . S
C603 C612 1.429 . S
C604 C602 1.419 . S
C604 C605 1.363 . S
C604 H607 0.929 . S
C605 C604 1.363 . S
C605 C611 1.428 . S
H606 C602 0.930 . S
H607 C604 0.929 . S
S608 N609 1.613 . S
S608 N610 1.610 . S
N609 S608 1.613 . S
N609 C612 1.350 . S
N610 S608 1.610 . S
N610 C611 1.351 . S
C611 C605 1.428 . S
C611 N610 1.351 . S
C611 C612 1.434 . S
C612 C603 1.429 . S
C612 N609 1.350 . S
C612 C611 1.434 . S
C613 C614 1.369 . S
C613 C615 1.419 . S
C613 H617 0.930 . S
C614 C613 1.369 . S
C614 C623 1.429 . S
C615 C613 1.419 . S
C615 C616 1.363 . S
C615 H618 0.929 . S
C616 C615 1.363 . S
C616 C622 1.428 . S
H617 C613 0.930 . S
H618 C615 0.929 . S
S619 N620 1.613 . S
S619 N621 1.610 . S
N620 S619 1.613 . S
N620 C623 1.350 . S
N621 S619 1.610 . S
N621 C622 1.351 . S
C622 C616 1.428 . S
C622 N621 1.351 . S
C622 C623 1.434 . S
C623 C614 1.429 . S
C623 N620 1.350 . S
C623 C622 1.434 . S
C624 C625 1.369 . S
C624 C626 1.419 . S
C624 H628 0.930 . S
C625 C624 1.369 . S
C625 C634 1.429 . S
C626 C624 1.419 . S
C626 C627 1.363 . S
C626 H629 0.929 . S
C627 C626 1.363 . S
C627 C633 1.428 . S
H628 C624 0.930 . S
H629 C626 0.929 . S
S630 N631 1.613 . S
S630 N632 1.610 . S
N631 S630 1.613 . S
N631 C634 1.350 . S
N632 S630 1.610 . S
N632 C633 1.351 . S
C633 C627 1.428 . S
C633 N632 1.351 . S
C633 C634 1.434 . S
C634 C625 1.429 . S
C634 N631 1.350 . S
C634 C633 1.434 . S
C635 C636 1.369 . S
C635 C637 1.419 . S
C635 H639 0.930 . S
C636 C635 1.369 . S
C636 C645 1.429 . S
C637 C635 1.419 . S
C637 C638 1.363 . S
C637 H640 0.929 . S
C638 C637 1.363 . S
C638 C644 1.428 . S
H639 C635 0.930 . S
H640 C637 0.929 . S
S641 N642 1.613 . S
S641 N643 1.610 . S
N642 S641 1.613 . S
N642 C645 1.350 . S
N643 S641 1.610 . S
N643 C644 1.351 . S
C644 C638 1.428 . S
C644 N643 1.351 . S
C644 C645 1.434 . S
C645 C636 1.429 . S
C645 N642 1.350 . S
C645 C644 1.434 . S
C646 C647 1.369 . S
C646 C648 1.419 . S
C646 H650 0.930 . S
C647 C646 1.369 . S
C647 C656 1.429 . S
C648 C646 1.419 . S
C648 C649 1.363 . S
C648 H651 0.929 . S
C649 C648 1.363 . S
C649 C655 1.428 . S
H650 C646 0.930 . S
H651 C648 0.929 . S
S652 N653 1.613 . S
S652 N654 1.610 . S
N653 S652 1.613 . S
N653 C656 1.350 . S
N654 S652 1.610 . S
N654 C655 1.351 . S
C655 C649 1.428 . S
C655 N654 1.351 . S
C655 C656 1.434 . S
C656 C647 1.429 . S
C656 N653 1.350 . S
C656 C655 1.434 . S
C657 C658 1.369 . S
C657 C659 1.419 . S
C657 H661 0.930 . S
C658 C657 1.369 . S
C658 C667 1.429 . S
C659 C657 1.419 . S
C659 C660 1.363 . S
C659 H662 0.929 . S
C660 C659 1.363 . S
C660 C666 1.428 . S
H661 C657 0.930 . S
H662 C659 0.929 . S
S663 N664 1.613 . S
S663 N665 1.610 1_455 S
N664 S663 1.613 . S
N664 C667 1.350 . S
N665 S663 1.610 1_655 S
N665 C666 1.351 1_655 S
C666 C660 1.428 . S
C666 N665 1.351 1_455 S
C666 C667 1.434 . S
C667 C658 1.429 . S
C667 N664 1.350 . S
C667 C666 1.434 . S
C668 C669 1.369 . S
C668 C670 1.419 . S
C668 H672 0.930 . S
C669 C668 1.369 . S
C669 C678 1.429 . S
C670 C668 1.419 . S
C670 C671 1.363 . S
C670 H673 0.929 . S
C671 C670 1.363 . S
C671 C677 1.428 . S
H672 C668 0.930 . S
H673 C670 0.929 . S
S674 N675 1.613 . S
S674 N676 1.610 . S
N675 S674 1.613 . S
N675 C678 1.350 . S
N676 S674 1.610 . S
N676 C677 1.351 . S
C677 C671 1.428 . S
C677 N676 1.351 . S
C677 C678 1.434 . S
C678 C669 1.429 . S
C678 N675 1.350 . S
C678 C677 1.434 . S
C679 C680 1.369 . S
C679 C681 1.419 . S
C679 H683 0.930 . S
C680 C679 1.369 . S
C680 C689 1.429 . S
C681 C679 1.419 . S
C681 C682 1.363 . S
C681 H684 0.929 . S
C682 C681 1.363 . S
C682 C688 1.428 . S
H683 C679 0.930 . S
H684 C681 0.929 . S
S685 N686 1.613 . S
S685 N687 1.610 . S
N686 S685 1.613 . S
N686 C689 1.350 . S
N687 S685 1.610 . S
N687 C688 1.351 . S
C688 C682 1.428 . S
C688 N687 1.351 . S
C688 C689 1.434 . S
C689 C680 1.429 . S
C689 N686 1.350 . S
C689 C688 1.434 . S
C690 C691 1.369 . S
C690 C692 1.419 . S
C690 H694 0.930 . S
C691 C690 1.369 . S
C691 C700 1.429 . S
C692 C690 1.419 . S
C692 C693 1.363 . S
C692 H695 0.929 . S
C693 C692 1.363 . S
C693 C699 1.428 . S
H694 C690 0.930 . S
H695 C692 0.929 . S
S696 N697 1.613 . S
S696 N698 1.610 . S
N697 S696 1.613 . S
N697 C700 1.350 . S
N698 S696 1.610 . S
N698 C699 1.351 . S
C699 C693 1.428 . S
C699 N698 1.351 . S
C699 C700 1.434 . S
C700 C691 1.429 . S
C700 N697 1.350 . S
C700 C699 1.434 . S
C701 C702 1.369 . S
C701 C703 1.419 . S
C701 H705 0.930 . S
C702 C701 1.369 . S
C702 C711 1.429 . S
C703 C701 1.419 . S
C703 C704 1.363 . S
C703 H706 0.929 . S
C704 C703 1.363 . S
C704 C710 1.428 . S
H705 C701 0.930 . S
H706 C703 0.929 . S
S707 N708 1.613 . S
S707 N709 1.610 . S
N708 S707 1.613 . S
N708 C711 1.350 . S
N709 S707 1.610 . S
N709 C710 1.351 . S
C710 C704 1.428 . S
C710 N709 1.351 . S
C710 C711 1.434 . S
C711 C702 1.429 . S
C711 N708 1.350 . S
C711 C710 1.434 . S
C712 C713 1.369 . S
C712 C714 1.419 . S
C712 H716 0.930 . S
C713 C712 1.369 . S
C713 C722 1.429 . S
C714 C712 1.419 . S
C714 C715 1.363 . S
C714 H717 0.929 . S
C715 C714 1.363 . S
C715 C721 1.428 . S
H716 C712 0.930 . S
H717 C714 0.929 . S
S718 N719 1.613 . S
S718 N720 1.610 . S
N719 S718 1.613 . S
N719 C722 1.350 . S
N720 S718 1.610 . S
N720 C721 1.351 . S
C721 C715 1.428 . S
C721 N720 1.351 . S
C721 C722 1.434 . S
C722 C713 1.429 . S
C722 N719 1.350 . S
C722 C721 1.434 . S
C723 C724 1.369 . S
C723 C725 1.419 . S
C723 H727 0.930 . S
C724 C723 1.369 . S
C724 C733 1.429 . S
C725 C723 1.419 . S
C725 C726 1.363 . S
C725 H728 0.929 . S
C726 C725 1.363 . S
C726 C732 1.428 . S
H727 C723 0.930 . S
H728 C725 0.929 . S
S729 N730 1.613 . S
S729 N731 1.610 . S
N730 S729 1.613 . S
N730 C733 1.350 . S
N731 S729 1.610 . S
N731 C732 1.351 . S
C732 C726 1.428 . S
C732 N731 1.351 . S
C732 C733 1.434 . S
C733 C724 1.429 . S
C733 N730 1.350 . S
C733 C732 1.434 . S
C734 C735 1.369 . S
C734 C736 1.419 . S
C734 H738 0.930 . S
C735 C734 1.369 . S
C735 C744 1.429 . S
C736 C734 1.419 . S
C736 C737 1.363 . S
C736 H739 0.929 . S
C737 C736 1.363 . S
C737 C743 1.428 . S
H738 C734 0.930 . S
H739 C736 0.929 . S
S740 N741 1.613 . S
S740 N742 1.610 . S
N741 S740 1.613 . S
N741 C744 1.350 . S
N742 S740 1.610 . S
N742 C743 1.351 . S
C743 C737 1.428 . S
C743 N742 1.351 . S
C743 C744 1.434 . S
C744 C735 1.429 . S
C744 N741 1.350 . S
C744 C743 1.434 . S
C745 C746 1.369 . S
C745 C747 1.419 . S
C745 H749 0.930 . S
C746 C745 1.369 . S
C746 C755 1.429 . S
C747 C745 1.419 . S
C747 C748 1.363 . S
C747 H750 0.929 . S
C748 C747 1.363 . S
C748 C754 1.428 . S
H749 C745 0.930 . S
H750 C747 0.929 . S
S751 N752 1.610 1_655 S
S751 N753 1.610 . S
N752 S751 1.610 1_455 S
N752 C755 1.342 1_455 S
N753 S751 1.610 . S
N753 C754 1.351 . S
C754 C748 1.428 . S
C754 N753 1.351 . S
C754 C755 1.434 . S
C755 C746 1.429 . S
C755 N752 1.342 1_655 S
C755 C754 1.434 . S
C756 C757 1.369 . S
C756 C758 1.419 . S
C756 H760 0.930 . S
C757 C756 1.369 . S
C757 C766 1.429 . S
C758 C756 1.419 . S
C758 C759 1.363 . S
C758 H761 0.929 . S
C759 C758 1.363 . S
C759 C765 1.428 . S
H760 C756 0.930 . S
H761 C758 0.929 . S
S762 N763 1.613 . S
S762 N764 1.610 . S
N763 S762 1.613 . S
N763 C766 1.350 . S
N764 S762 1.610 . S
N764 C765 1.351 . S
C765 C759 1.428 . S
C765 N764 1.351 . S
C765 C766 1.434 . S
C766 C757 1.429 . S
C766 N763 1.350 . S
C766 C765 1.434 . S
C767 C768 1.369 . S
C767 C769 1.419 . S
C767 H771 0.930 . S
C768 C767 1.369 . S
C768 C777 1.429 . S
C769 C767 1.419 . S
C769 C770 1.363 . S
C769 H772 0.929 . S
C770 C769 1.363 . S
C770 C776 1.428 . S
H771 C767 0.930 . S
H772 C769 0.929 . S
S773 N774 1.613 . S
S773 N775 1.610 . S
N774 S773 1.613 . S
N774 C777 1.350 . S
N775 S773 1.610 . S
N775 C776 1.351 . S
C776 C770 1.428 . S
C776 N775 1.351 . S
C776 C777 1.434 . S
C777 C768 1.429 . S
C777 N774 1.350 . S
C777 C776 1.434 . S
C778 C779 1.369 . S
C778 C780 1.419 . S
C778 H782 0.930 . S
C779 C778 1.369 . S
C779 C788 1.429 . S
C780 C778 1.419 . S
C780 C781 1.363 . S
C780 H783 0.929 . S
C781 C780 1.363 . S
C781 C787 1.428 . S
H782 C778 0.930 . S
H783 C780 0.929 . S
S784 N785 1.613 . S
S784 N786 1.610 . S
N785 S784 1.613 . S
N785 C788 1.350 . S
N786 S784 1.610 . S
N786 C787 1.351 . S
C787 C781 1.428 . S
C787 N786 1.351 . S
C787 C788 1.434 . S
C788 C779 1.429 . S
C788 N785 1.350 . S
C788 C787 1.434 . S
C789 C790 1.369 . S
C789 C791 1.419 . S
C789 H793 0.930 . S
C790 C789 1.369 . S
C790 C799 1.429 . S
C791 C789 1.419 . S
C791 C792 1.363 . S
C791 H794 0.929 . S
C792 C791 1.363 . S
C792 C798 1.428 . S
H793 C789 0.930 . S
H794 C791 0.929 . S
S795 N796 1.613 . S
S795 N797 1.610 . S
N796 S795 1.613 . S
N796 C799 1.350 . S
N797 S795 1.610 . S
N797 C798 1.351 . S
C798 C792 1.428 . S
C798 N797 1.351 . S
C798 C799 1.434 . S
C799 C790 1.429 . S
C799 N796 1.350 . S
C799 C798 1.434 . S
C800 C801 1.369 . S
C800 C802 1.419 . S
C800 H804 0.930 . S
C801 C800 1.369 . S
C801 C810 1.429 . S
C802 C800 1.419 . S
C802 C803 1.363 . S
C802 H805 0.929 . S
C803 C802 1.363 . S
C803 C809 1.428 . S
H804 C800 0.930 . S
H805 C802 0.929 . S
S806 N807 1.613 . S
S806 N808 1.610 . S
N807 S806 1.613 . S
N807 C810 1.350 . S
N808 S806 1.610 . S
N808 C809 1.351 . S
C809 C803 1.428 . S
C809 N808 1.351 . S
C809 C810 1.434 . S
C810 C801 1.429 . S
C810 N807 1.350 . S
C810 C809 1.434 . S
C811 C812 1.378 . S
C811 C813 1.410 1_565 S
C811 H815 0.930 . S
C812 C811 1.378 . S
C812 C821 1.429 1_455 S
C813 C811 1.410 1_545 S
C813 C814 1.363 1_455 S
C813 H816 0.929 . S
C814 C813 1.363 1_655 S
C814 C820 1.426 1_545 S
H815 C811 0.930 . S
H816 C813 0.929 . S
S817 N818 1.613 . S
S817 N819 1.610 . S
N818 S817 1.613 . S
N818 C821 1.350 . S
N819 S817 1.610 . S
N819 C820 1.352 . S
C820 C814 1.426 1_565 S
C820 N819 1.352 . S
C820 C821 1.436 . S
C821 C812 1.429 1_655 S
C821 N818 1.350 . S
C821 C820 1.436 . S
C822 C823 1.369 . S
C822 C824 1.419 . S
C822 H826 0.930 . S
C823 C822 1.369 . S
C823 C832 1.429 . S
C824 C822 1.419 . S
C824 C825 1.363 . S
C824 H827 0.929 . S
C825 C824 1.363 . S
C825 C831 1.428 . S
H826 C822 0.930 . S
H827 C824 0.929 . S
S828 N829 1.613 . S
S828 N830 1.610 . S
N829 S828 1.613 . S
N829 C832 1.350 . S
N830 S828 1.610 . S
N830 C831 1.351 . S
C831 C825 1.428 . S
C831 N830 1.351 . S
C831 C832 1.434 . S
C832 C823 1.429 . S
C832 N829 1.350 . S
C832 C831 1.434 . S
C833 C834 1.369 . S
C833 C835 1.419 1_554 S
C833 H837 0.930 . S
C834 C833 1.369 . S
C834 C843 1.429 1_545 S
C835 C833 1.419 1_556 S
C835 C836 1.363 1_545 S
C835 H838 0.929 . S
C836 C835 1.363 1_565 S
C836 C842 1.428 . S
H837 C833 0.930 . S
H838 C835 0.929 . S
S839 N840 1.613 . S
S839 N841 1.610 1_554 S
N840 S839 1.613 . S
N840 C843 1.350 . S
N841 S839 1.610 1_556 S
N841 C842 1.351 . S
C842 C836 1.428 . S
C842 N841 1.351 . S
C842 C843 1.434 1_556 S
C843 C834 1.429 1_565 S
C843 N840 1.350 . S
C843 C842 1.434 1_554 S
C844 C845 1.369 . S
C844 C846 1.419 . S
C844 H848 0.930 . S
C845 C844 1.369 . S
C845 C854 1.429 . S
C846 C844 1.419 . S
C846 C847 1.363 . S
C846 H849 0.929 . S
C847 C846 1.363 . S
C847 C853 1.428 . S
H848 C844 0.930 . S
H849 C846 0.929 . S
S850 N851 1.613 . S
S850 N852 1.610 . S
N851 S850 1.613 . S
N851 C854 1.350 . S
N852 S850 1.610 . S
N852 C853 1.351 . S
C853 C847 1.428 . S
C853 N852 1.351 . S
C853 C854 1.434 . S
C854 C845 1.429 . S
C854 N851 1.350 . S
C854 C853 1.434 . S
C855 C856 1.369 . S
C855 C857 1.419 . S
C855 H859 0.930 . S
C856 C855 1.369 . S
C856 C865 1.429 1_565 S
C857 C855 1.419 . S
C857 C858 1.363 1_565 S
C857 H860 0.929 . S
C858 C857 1.363 1_545 S
C858 C864 1.428 . S
H859 C855 0.930 . S
H860 C857 0.929 . S
S861 N862 1.613 . S
S861 N863 1.610 . S
N862 S861 1.613 . S
N862 C865 1.350 . S
N863 S861 1.610 . S
N863 C864 1.351 . S
C864 C858 1.428 . S
C864 N863 1.351 . S
C864 C865 1.434 . S
C865 C856 1.429 1_545 S
C865 N862 1.350 . S
C865 C864 1.434 . S
C866 C867 1.369 . S
C866 C868 1.419 . S
C866 H870 0.930 . S
C867 C866 1.369 . S
C867 C876 1.429 . S
C868 C866 1.419 . S
C868 C869 1.363 . S
C868 H871 0.929 . S
C869 C868 1.363 . S
C869 C875 1.428 . S
H870 C866 0.930 . S
H871 C868 0.929 . S
S872 N873 1.613 . S
S872 N874 1.610 . S
N873 S872 1.613 . S
N873 C876 1.350 . S
N874 S872 1.610 . S
N874 C875 1.351 . S
C875 C869 1.428 . S
C875 N874 1.351 . S
C875 C876 1.434 . S
C876 C867 1.429 . S
C876 N873 1.350 . S
C876 C875 1.434 . S
C877 C878 1.369 1_655 S
C877 C879 1.419 1_556 S
C877 H881 0.930 . S
C878 C877 1.369 1_455 S
C878 C887 1.429 1_545 S
C879 C877 1.419 1_554 S
C879 C880 1.363 1_545 S
C879 H882 0.929 . S
C880 C879 1.363 1_565 S
C880 C886 1.428 1_655 S
H881 C877 0.930 . S
H882 C879 0.929 . S
S883 N884 1.613 . S
S883 N885 1.610 1_556 S
N884 S883 1.613 . S
N884 C887 1.350 . S
N885 S883 1.610 1_554 S
N885 C886 1.351 . S
C886 C880 1.428 1_455 S
C886 N885 1.351 . S
C886 C887 1.434 1_554 S
C887 C878 1.429 1_565 S
C887 N884 1.350 . S
C887 C886 1.434 1_556 S
C888 C889 1.369 . S
C888 C890 1.419 . S
C888 H892 0.930 . S
C889 C888 1.369 . S
C889 C898 1.429 . S
C890 C888 1.419 . S
C890 C891 1.363 . S
C890 H893 0.929 . S
C891 C890 1.363 . S
C891 C897 1.428 . S
H892 C888 0.930 . S
H893 C890 0.929 . S
S894 N895 1.613 . S
S894 N896 1.610 . S
N895 S894 1.613 . S
N895 C898 1.350 . S
N896 S894 1.610 . S
N896 C897 1.351 . S
C897 C891 1.428 . S
C897 N896 1.351 . S
C897 C898 1.434 . S
C898 C889 1.429 . S
C898 N895 1.350 . S
C898 C897 1.434 . S
C899 C900 1.369 . S
C899 C901 1.419 . S
C899 H903 0.930 . S
C900 C899 1.369 . S
C900 C909 1.429 . S
C901 C899 1.419 . S
C901 C902 1.363 . S
C901 H904 0.929 . S
C902 C901 1.363 . S
C902 C908 1.428 . S
H903 C899 0.930 . S
H904 C901 0.929 . S
S905 N906 1.613 . S
S905 N907 1.610 . S
N906 S905 1.613 . S
N906 C909 1.350 . S
N907 S905 1.610 . S
N907 C908 1.351 . S
C908 C902 1.428 . S
C908 N907 1.351 . S
C908 C909 1.434 . S
C909 C900 1.429 . S
C909 N906 1.350 . S
C909 C908 1.434 . S
C910 C911 1.369 . S
C910 C912 1.419 . S
C910 H914 0.930 . S
C911 C910 1.369 . S
C911 C920 1.429 . S
C912 C910 1.419 . S
C912 C913 1.363 . S
C912 H915 0.929 . S
C913 C912 1.363 . S
C913 C919 1.428 . S
H914 C910 0.930 . S
H915 C912 0.929 . S
S916 N917 1.613 . S
S916 N918 1.610 . S
N917 S916 1.613 . S
N917 C920 1.350 . S
N918 S916 1.610 . S
N918 C919 1.351 . S
C919 C913 1.428 . S
C919 N918 1.351 . S
C919 C920 1.434 . S
C920 C911 1.429 . S
C920 N917 1.350 . S
C920 C919 1.434 . S
C921 C922 1.369 . S
C921 C923 1.419 . S
C921 H925 0.930 . S
C922 C921 1.369 . S
C922 C931 1.429 . S
C923 C921 1.419 . S
C923 C924 1.363 . S
C923 H926 0.929 . S
C924 C923 1.363 . S
C924 C930 1.428 . S
H925 C921 0.930 . S
H926 C923 0.929 . S
S927 N928 1.613 . S
S927 N929 1.610 . S
N928 S927 1.613 . S
N928 C931 1.350 . S
N929 S927 1.610 . S
N929 C930 1.351 . S
C930 C924 1.428 . S
C930 N929 1.351 . S
C930 C931 1.434 . S
C931 C922 1.429 . S
C931 N928 1.350 . S
C931 C930 1.434 . S
C932 C933 1.369 . S
C932 C934 1.419 1_554 S
C932 H936 0.930 . S
C933 C932 1.369 . S
C933 C942 1.429 . S
C934 C932 1.419 1_556 S
C934 C935 1.363 . S
C934 H937 0.929 . S
C935 C934 1.363 . S
C935 C941 1.428 . S
H936 C932 0.930 . S
H937 C934 0.929 . S
S938 N939 1.613 1_556 S
S938 N940 1.610 . S
N939 S938 1.613 1_554 S
N939 C942 1.350 . S
N940 S938 1.610 . S
N940 C941 1.351 . S
C941 C935 1.428 . S
C941 N940 1.351 . S
C941 C942 1.434 1_556 S
C942 C933 1.429 . S
C942 N939 1.350 . S
C942 C941 1.434 1_554 S
C943 C944 1.369 1_655 S
C943 C945 1.419 . S
C943 H947 0.930 . S
C944 C943 1.369 1_455 S
C944 C953 1.429 . S
C945 C943 1.419 . S
C945 C946 1.363 . S
C945 H948 0.929 . S
C946 C945 1.363 . S
C946 C952 1.428 1_655 S
H947 C943 0.930 . S
H948 C945 0.929 . S
S949 N950 1.613 . S
S949 N951 1.610 . S
N950 S949 1.613 . S
N950 C953 1.350 . S
N951 S949 1.610 . S
N951 C952 1.351 . S
C952 C946 1.428 1_455 S
C952 N951 1.351 . S
C952 C953 1.434 . S
C953 C944 1.429 . S
C953 N950 1.350 . S
C953 C952 1.434 . S
C954 C955 1.369 . S
C954 C956 1.419 1_554 S
C954 H958 0.930 . S
C955 C954 1.369 . S
C955 C964 1.429 1_455 S
C956 C954 1.419 1_556 S
C956 C957 1.363 1_455 S
C956 H959 0.929 . S
C957 C956 1.363 1_655 S
C957 C963 1.428 . S
H958 C954 0.930 . S
H959 C956 0.929 . S
S960 N961 1.613 . S
S960 N962 1.650 . S
N961 S960 1.613 . S
N961 C964 1.350 . S
N962 S960 1.650 . S
N962 C963 1.348 1_554 S
C963 C957 1.428 . S
C963 N962 1.348 1_556 S
C963 C964 1.434 1_556 S
C964 C955 1.429 1_655 S
C964 N961 1.350 . S
C964 C963 1.434 1_554 S
C965 C966 1.369 . S
C965 C967 1.419 . S
C965 H969 0.930 . S
C966 C965 1.369 . S
C966 C975 1.429 . S
C967 C965 1.419 . S
C967 C968 1.363 . S
C967 H970 0.929 . S
C968 C967 1.363 . S
C968 C974 1.428 . S
H969 C965 0.930 . S
H970 C967 0.929 . S
S971 N972 1.613 . S
S971 N973 1.610 . S
N972 S971 1.613 . S
N972 C975 1.350 . S
N973 S971 1.610 . S
N973 C974 1.351 . S
C974 C968 1.428 . S
C974 N973 1.351 . S
C974 C975 1.434 . S
C975 C966 1.429 . S
C975 N972 1.350 . S
C975 C974 1.434 . S
C976 C977 1.369 . S
C976 C978 1.419 . S
C976 H980 0.930 . S
C977 C976 1.369 . S
C977 C986 1.429 . S
C978 C976 1.419 . S
C978 C979 1.363 . S
C978 H981 0.946 . S
C979 C978 1.363 . S
C979 C985 1.428 . S
H980 C976 0.930 . S
H981 C978 0.946 . S
S982 N983 1.613 . S
S982 N984 1.610 . S
N983 S982 1.613 . S
N983 C986 1.350 . S
N984 S982 1.610 . S
N984 C985 1.351 . S
C985 C979 1.428 . S
C985 N984 1.351 . S
C985 C986 1.434 . S
C986 C977 1.429 . S
C986 N983 1.350 . S
C986 C985 1.434 . S
C987 C988 1.369 . S
C987 C989 1.419 . S
C987 H991 0.930 . S
C988 C987 1.369 . S
C988 C997 1.429 . S
C989 C987 1.419 . S
C989 C990 1.363 . S
C989 H992 0.929 . S
C990 C989 1.363 . S
C990 C996 1.428 . S
H991 C987 0.930 . S
H992 C989 0.929 . S
S993 N994 1.613 . S
S993 N995 1.610 . S
N994 S993 1.613 . S
N994 C997 1.350 . S
N995 S993 1.610 . S
N995 C996 1.351 . S
C996 C990 1.428 . S
C996 N995 1.351 . S
C996 C997 1.434 . S
C997 C988 1.429 . S
C997 N994 1.350 . S
C997 C996 1.434 . S
C998 C999 1.369 . S
C998 C1000 1.419 . S
C998 H1002 0.930 . S
C999 C998 1.369 . S
C999 C1008 1.429 . S
C1000 C998 1.419 . S
C1000 C1001 1.363 . S
C1000 H1003 0.929 . S
C1001 C1000 1.363 . S
C1001 C1007 1.428 . S
H1002 C998 0.930 . S
H1003 C1000 0.929 . S
S1004 N1005 1.613 . S
S1004 N1006 1.610 . S
N1005 S1004 1.613 . S
N1005 C1008 1.350 . S
N1006 S1004 1.610 . S
N1006 C1007 1.351 . S
C1007 C1001 1.428 . S
C1007 N1006 1.351 . S
C1007 C1008 1.434 . S
C1008 C999 1.429 . S
C1008 N1005 1.350 . S
C1008 C1007 1.434 . S
C1009 C1010 1.369 . S
C1009 C1011 1.419 . S
C1009 H1013 0.930 . S
C1010 C1009 1.369 . S
C1010 C1019 1.429 . S
C1011 C1009 1.419 . S
C1011 C1012 1.363 . S
C1011 H1014 0.929 . S
C1012 C1011 1.363 . S
C1012 C1018 1.428 . S
H1013 C1009 0.930 . S
H1014 C1011 0.929 . S
S1015 N1016 1.613 1_545 S
S1015 N1017 1.610 . S
N1016 S1015 1.613 1_565 S
N1016 C1019 1.350 . S
N1017 S1015 1.610 . S
N1017 C1018 1.351 1_545 S
C1018 C1012 1.428 . S
C1018 N1017 1.351 1_565 S
C1018 C1019 1.434 . S
C1019 C1010 1.429 . S
C1019 N1016 1.350 . S
C1019 C1018 1.434 . S
C1020 C1021 1.369 . S
C1020 C1022 1.419 . S
C1020 H1024 0.930 . S
C1021 C1020 1.369 . S
C1021 C1030 1.429 . S
C1022 C1020 1.419 . S
C1022 C1023 1.363 . S
C1022 H1025 0.929 . S
C1023 C1022 1.363 . S
C1023 C1029 1.428 . S
H1024 C1020 0.930 . S
H1025 C1022 0.929 . S
S1026 N1027 1.613 . S
S1026 N1028 1.610 . S
N1027 S1026 1.613 . S
N1027 C1030 1.350 . S
N1028 S1026 1.610 . S
N1028 C1029 1.351 . S
C1029 C1023 1.428 . S
C1029 N1028 1.351 . S
C1029 C1030 1.434 . S
C1030 C1021 1.429 . S
C1030 N1027 1.350 . S
C1030 C1029 1.434 . S
C1031 C1032 1.369 . S
C1031 C1033 1.419 . S
C1031 H1035 0.930 . S
C1032 C1031 1.369 . S
C1032 C1041 1.429 . S
C1033 C1031 1.419 . S
C1033 C1034 1.363 . S
C1033 H1036 0.929 . S
C1034 C1033 1.363 . S
C1034 C1040 1.428 . S
H1035 C1031 0.930 . S
H1036 C1033 0.929 . S
S1037 N1038 1.613 . S
S1037 N1039 1.610 . S
N1038 S1037 1.613 . S
N1038 C1041 1.350 . S
N1039 S1037 1.610 . S
N1039 C1040 1.351 . S
C1040 C1034 1.428 . S
C1040 N1039 1.351 . S
C1040 C1041 1.434 . S
C1041 C1032 1.429 . S
C1041 N1038 1.350 . S
C1041 C1040 1.434 . S
C1042 C1043 1.369 . S
C1042 C1044 1.419 . S
C1042 H1046 0.930 . S
C1043 C1042 1.369 . S
C1043 C1052 1.429 . S
C1044 C1042 1.419 . S
C1044 C1045 1.363 . S
C1044 H1047 0.929 . S
C1045 C1044 1.363 . S
C1045 C1051 1.428 . S
H1046 C1042 0.930 . S
H1047 C1044 0.929 . S
S1048 N1049 1.613 . S
S1048 N1050 1.610 . S
N1049 S1048 1.613 . S
N1049 C1052 1.350 . S
N1050 S1048 1.610 . S
N1050 C1051 1.351 . S
C1051 C1045 1.428 . S
C1051 N1050 1.351 . S
C1051 C1052 1.434 . S
C1052 C1043 1.429 . S
C1052 N1049 1.350 . S
C1052 C1051 1.434 . S
C1053 C1054 1.369 . S
C1053 C1055 1.419 . S
C1053 H1057 0.930 . S
C1054 C1053 1.369 . S
C1054 C1063 1.429 . S
C1055 C1053 1.419 . S
C1055 C1056 1.363 . S
C1055 H1058 0.929 . S
C1056 C1055 1.363 . S
C1056 C1062 1.428 . S
H1057 C1053 0.930 . S
H1058 C1055 0.929 . S
S1059 N1060 1.613 . S
S1059 N1061 1.610 1_565 S
N1060 S1059 1.613 . S
N1060 C1063 1.350 1_565 S
N1061 S1059 1.610 1_545 S
N1061 C1062 1.351 . S
C1062 C1056 1.428 . S
C1062 N1061 1.351 . S
C1062 C1063 1.434 . S
C1063 C1054 1.429 . S
C1063 N1060 1.350 1_545 S
C1063 C1062 1.434 . S
C1064 C1065 1.369 . S
C1064 C1066 1.419 . S
C1064 H1068 0.930 . S
C1065 C1064 1.369 . S
C1065 C1074 1.429 . S
C1066 C1064 1.419 . S
C1066 C1067 1.363 . S
C1066 H1069 0.929 . S
C1067 C1066 1.363 . S
C1067 C1073 1.428 . S
H1068 C1064 0.930 . S
H1069 C1066 0.929 . S
S1070 N1071 1.613 . S
S1070 N1072 1.610 . S
N1071 S1070 1.613 . S
N1071 C1074 1.350 . S
N1072 S1070 1.610 . S
N1072 C1073 1.351 . S
C1073 C1067 1.428 . S
C1073 N1072 1.351 . S
C1073 C1074 1.434 . S
C1074 C1065 1.429 . S
C1074 N1071 1.350 . S
C1074 C1073 1.434 . S
C1075 C1076 1.369 . S
C1075 C1077 1.419 . S
C1075 H1079 0.930 . S
C1076 C1075 1.369 . S
C1076 C1085 1.429 . S
C1077 C1075 1.419 . S
C1077 C1078 1.363 . S
C1077 H1080 0.929 . S
C1078 C1077 1.363 . S
C1078 C1084 1.428 . S
H1079 C1075 0.930 . S
H1080 C1077 0.929 . S
S1081 N1082 1.613 . S
S1081 N1083 1.610 . S
N1082 S1081 1.613 . S
N1082 C1085 1.350 . S
N1083 S1081 1.610 . S
N1083 C1084 1.351 . S
C1084 C1078 1.428 . S
C1084 N1083 1.351 . S
C1084 C1085 1.434 . S
C1085 C1076 1.429 . S
C1085 N1082 1.350 . S
C1085 C1084 1.434 . S
C1086 C1087 1.369 . S
C1086 C1088 1.419 . S
C1086 H1090 0.930 . S
C1087 C1086 1.369 . S
C1087 C1096 1.429 . S
C1088 C1086 1.419 . S
C1088 C1089 1.363 . S
C1088 H1091 0.929 . S
C1089 C1088 1.363 . S
C1089 C1095 1.428 . S
H1090 C1086 0.930 . S
H1091 C1088 0.929 . S
S1092 N1093 1.613 . S
S1092 N1094 1.610 . S
N1093 S1092 1.613 . S
N1093 C1096 1.350 . S
N1094 S1092 1.610 . S
N1094 C1095 1.351 . S
C1095 C1089 1.428 . S
C1095 N1094 1.351 . S
C1095 C1096 1.434 . S
C1096 C1087 1.429 . S
C1096 N1093 1.350 . S
C1096 C1095 1.434 . S
C1097 C1098 1.369 . S
C1097 C1099 1.419 . S
C1097 H1101 0.930 . S
C1098 C1097 1.369 . S
C1098 C1107 1.429 . S
C1099 C1097 1.419 . S
C1099 C1100 1.363 . S
C1099 H1102 0.929 . S
C1100 C1099 1.363 . S
C1100 C1106 1.428 . S
H1101 C1097 0.930 . S
H1102 C1099 0.929 . S
S1103 N1104 1.613 . S
S1103 N1105 1.610 . S
N1104 S1103 1.613 . S
N1104 C1107 1.350 . S
N1105 S1103 1.610 . S
N1105 C1106 1.351 . S
C1106 C1100 1.428 . S
C1106 N1105 1.351 . S
C1106 C1107 1.434 . S
C1107 C1098 1.429 . S
C1107 N1104 1.350 . S
C1107 C1106 1.434 . S
C1108 C1109 1.369 . S
C1108 C1110 1.419 . S
C1108 H1112 0.930 . S
C1109 C1108 1.369 . S
C1109 C1118 1.429 . S
C1110 C1108 1.419 . S
C1110 C1111 1.363 . S
C1110 H1113 0.929 . S
C1111 C1110 1.363 . S
C1111 C1117 1.428 . S
H1112 C1108 0.930 . S
H1113 C1110 0.929 . S
S1114 N1115 1.613 . S
S1114 N1116 1.610 . S
N1115 S1114 1.613 . S
N1115 C1118 1.350 . S
N1116 S1114 1.610 . S
N1116 C1117 1.351 . S
C1117 C1111 1.428 . S
C1117 N1116 1.351 . S
C1117 C1118 1.434 . S
C1118 C1109 1.429 . S
C1118 N1115 1.350 . S
C1118 C1117 1.434 . S
C1119 C1120 1.369 . S
C1119 C1121 1.419 . S
C1119 H1123 0.930 . S
C1120 C1119 1.369 . S
C1120 C1129 1.429 . S
C1121 C1119 1.419 . S
C1121 C1122 1.363 . S
C1121 H1124 0.929 . S
C1122 C1121 1.363 . S
C1122 C1128 1.428 . S
H1123 C1119 0.930 . S
H1124 C1121 0.929 . S
S1125 N1126 1.613 . S
S1125 N1127 1.610 . S
N1126 S1125 1.613 . S
N1126 C1129 1.350 . S
N1127 S1125 1.610 . S
N1127 C1128 1.351 . S
C1128 C1122 1.428 . S
C1128 N1127 1.351 . S
C1128 C1129 1.434 . S
C1129 C1120 1.429 . S
C1129 N1126 1.350 . S
C1129 C1128 1.434 . S
C1130 C1131 1.369 . S
C1130 C1132 1.419 . S
C1130 H1134 0.930 . S
C1131 C1130 1.369 . S
C1131 C1140 1.429 . S
C1132 C1130 1.419 . S
C1132 C1133 1.363 . S
C1132 H1135 0.929 . S
C1133 C1132 1.363 . S
C1133 C1139 1.428 . S
H1134 C1130 0.930 . S
H1135 C1132 0.929 . S
S1136 N1137 1.613 . S
S1136 N1138 1.610 . S
N1137 S1136 1.613 . S
N1137 C1140 1.350 . S
N1138 S1136 1.610 . S
N1138 C1139 1.351 . S
C1139 C1133 1.428 . S
C1139 N1138 1.351 . S
C1139 C1140 1.434 . S
C1140 C1131 1.429 . S
C1140 N1137 1.350 . S
C1140 C1139 1.434 . S
C1141 C1142 1.369 . S
C1141 C1143 1.419 . S
C1141 H1145 0.930 . S
C1142 C1141 1.369 . S
C1142 C1151 1.429 . S
C1143 C1141 1.419 . S
C1143 C1144 1.363 . S
C1143 H1146 0.929 . S
C1144 C1143 1.363 . S
C1144 C1150 1.428 . S
H1145 C1141 0.930 . S
H1146 C1143 0.929 . S
S1147 N1148 1.613 . S
S1147 N1149 1.610 . S
N1148 S1147 1.613 . S
N1148 C1151 1.350 . S
N1149 S1147 1.610 . S
N1149 C1150 1.351 . S
C1150 C1144 1.428 . S
C1150 N1149 1.351 . S
C1150 C1151 1.434 . S
C1151 C1142 1.429 . S
C1151 N1148 1.350 . S
C1151 C1150 1.434 . S
C449 C386 1.556 . S
C451 C9 1.562 . S
C460 C23 1.562 1_655 S
C462 C121 1.553 . S
C471 C358 1.554 . S
C473 C37 1.559 . S
C482 C51 1.562 . S
C484 C149 1.554 . S
C493 C65 1.559 . S
C495 C414 1.551 . S
C504 C79 1.562 . S
C506 C205 1.554 . S
C515 C93 1.558 . S
C517 C442 1.552 . S
C526 C107 1.561 1_655 S
C528 C177 1.555 . S
C537 C274 1.555 . S
C539 C120 1.560 . S
C548 C8 1.555 . S
C550 C135 1.562 1_455 S
C559 C246 1.556 . S
C561 C148 1.562 . S
C570 C163 1.558 . S
C572 C36 1.552 . S
C581 C302 1.556 . S
C583 C176 1.562 . S
C592 C92 1.556 . S
C594 C191 1.562 . S
C603 C204 1.559 . S
C605 C330 1.553 . S
C614 C64 1.555 . S
C616 C219 1.562 1_455 S
C625 C233 1.562 . S
C627 C162 1.556 . S
C636 C247 1.560 . S
C638 C345 1.552 . S
C647 C134 1.551 . S
C649 C261 1.558 . S
C658 C373 1.556 . S
C660 C275 1.561 1_455 S
C669 C190 1.556 . S
C671 C289 1.562 . S
C680 C429 1.551 . S
C682 C303 1.558 1_455 S
C691 C218 1.555 . S
C693 C317 1.562 . S
C702 C331 1.563 . S
C704 C401 1.555 . S
C713 C50 1.556 . S
C715 C344 1.562 . S
C724 C359 1.558 . S
C726 C232 1.552 . S
C735 C372 1.563 . S
C737 C22 1.556 . S
C746 C387 1.563 1_655 S
C748 C260 1.556 . S
C757 C400 1.558 . S
C759 C78 1.552 . S
C768 C415 1.562 1_655 S
C770 C316 1.554 . S
C779 C428 1.560 . S
C781 C106 1.553 . S
C790 C443 1.561 . S
C792 C288 1.555 . S
C801 C342 1.489 . S
C803 C7 1.487 . S
C812 C21 1.487 . S
C814 C133 1.488 . S
C823 C370 1.490 . S
C825 C35 1.486 . S
C834 C49 1.491 . S
C836 C161 1.486 . S
C845 C398 1.490 . S
C847 C63 1.486 . S
C856 C77 1.490 . S
C858 C189 1.486 . S
C867 C426 1.488 . S
C869 C91 1.488 . S
C878 C105 1.491 . S
C880 C217 1.486 . S
C889 C118 1.485 . S
C891 C231 1.490 . S
C900 C146 1.489 . S
C902 C259 1.487 . S
C911 C174 1.488 . S
C913 C287 1.488 . S
C922 C202 1.491 . S
C924 C315 1.486 . S
C933 C245 1.485 . S
C935 C357 1.490 . S
C944 C385 1.485 . S
C946 C273 1.490 . S
C955 C413 1.490 . S
C957 C301 1.486 . S
C966 C329 1.486 . S
C968 C441 1.489 . S
C977 C6 1.386 . S
C979 C76 1.388 . S
C988 C20 1.390 . S
C990 C90 1.386 . S
C999 C34 1.384 . S
C1001 C104 1.390 . S
C1010 C62 1.389 . S
C1012 C48 1.388 . S
C1021 C119 1.384 . S
C1023 C188 1.390 . S
C1032 C132 1.390 . S
C1034 C203 1.386 . S
C1043 C147 1.387 . S
C1045 C216 1.389 . S
C1054 C160 1.387 . S
C1056 C175 1.389 . S
C1065 C230 1.385 . S
C1067 C300 1.389 . S
C1076 C314 1.386 . S
C1078 C244 1.390 . S
C1087 C258 1.389 . S
C1089 C328 1.386 . S
C1098 C272 1.389 . S
C1100 C286 1.386 . S
C1109 C412 1.384 . S
C1111 C343 1.390 . S
C1120 C356 1.384 . S
C1122 C427 1.390 . S
C1131 C440 1.385 . S
C1133 C371 1.388 . S
C1142 C384 1.391 . S
C1144 C399 1.385 . S
