# Generated by pormake.
# Topology rob, (6)-cn, num edge types: 1
# Building blocks:
#     Node 0, Type 0, BuildingBlock: PAMTOO_clean_sbu_0, # of connection points: 6
#     Node 1, Type 0, BuildingBlock: PAMTOO_clean_sbu_0, # of connection points: 6
#     Node 2, Type 0, BuildingBlock: PAMTOO_clean_sbu_0, # of connection points: 6
#     Node 3, Type 0, BuildingBlock: PAMTOO_clean_sbu_0, # of connection points: 6
#     Edge 4, Type (0, 0), BuildingBlock: EZIPEK_clean_linker_0, # of connection points: 2
#     Edge 5, Type (0, 0), BuildingBlock: EZIPEK_clean_linker_0, # of connection points: 2
#     Edge 6, Type (0, 0), BuildingBlock: EZIPEK_clean_linker_0, # of connection points: 2
#     Edge 7, Type (0, 0), BuildingBlock: EZIPEK_clean_linker_0, # of connection points: 2
#     Edge 8, Type (0, 0), BuildingBlock: EZIPEK_clean_linker_0, # of connection points: 2
#     Edge 9, Type (0, 0), BuildingBlock: EZIPEK_clean_linker_0, # of connection points: 2
#     Edge 10, Type (0, 0), BuildingBlock: EZIPEK_clean_linker_0, # of connection points: 2
#     Edge 11, Type (0, 0), BuildingBlock: EZIPEK_clean_linker_0, # of connection points: 2
#     Edge 12, Type (0, 0), BuildingBlock: EZIPEK_clean_linker_0, # of connection points: 2
#     Edge 13, Type (0, 0), BuildingBlock: EZIPEK_clean_linker_0, # of connection points: 2
#     Edge 14, Type (0, 0), BuildingBlock: EZIPEK_clean_linker_0, # of connection points: 2
#     Edge 15, Type (0, 0), BuildingBlock: EZIPEK_clean_linker_0, # of connection points: 2
# Relax obj value: 0.086
# Max RMSD: 0.216
# Mean RMSD: 0.216
data_MOF--net-rob--node1-PAMTOO_clean_sbu_0--edge1-EZIPEK_clean_linker_0
_symmetry_space_group_name_H-M    P1
_symmetry_Int_Tables_number       1
_symmetry_cell_setting            triclinic
loop_
_symmetry_equiv_pos_as_xyz
'x, y, z'
_cell_length_a     13.083936
_cell_length_b     18.390678
_cell_length_c     28.615532
_cell_angle_alpha  103.55261
_cell_angle_beta   89.802428
_cell_angle_gamma 89.636968
loop_
_atom_site_label
_atom_site_type_symbol
_atom_site_fract_x
_atom_site_fract_y
_atom_site_fract_z
_atom_type_partial_charge
Dy0 Dy 0.32725 0.16827 0.9863 0.0
Dy1 Dy 0.16491 0.28119 0.06516 0.0
C2 C 0.36633 0.3475 1.02529 0.0
O3 O 0.36363 0.1418 0.05719 0.0
O4 O 0.27909 0.23856 0.10958 0.0
O5 O 0.47926 0.13759 0.95791 0.0
O6 O 0.34724 0.07868 0.92312 0.0
O7 O 0.09394 0.16745 0.0491 0.0
O8 O 0.21307 0.08895 1.00217 0.0
O9 O 0.12038 0.30506 0.99518 0.0
O10 O 0.21904 0.21801 0.94175 0.0
O11 O 0.01437 0.3095 0.09607 0.0
O12 O 0.14614 0.37359 0.12679 0.0
C13 C 0.33982 0.17995 0.10089 0.0
O14 O 0.40143 0.28034 1.00503 0.0
O15 O 0.27726 0.36009 0.04684 0.0
C16 C 0.47882 0.10075 0.873 0.0
C17 C 0.53018 0.11745 0.7805 0.0
C18 C 0.4828 0.17635 0.8138 0.0
C19 C 0.45694 0.16794 0.85967 0.0
C20 C 0.52672 0.04202 0.83987 0.0
C21 C 0.55195 0.0502 0.79377 0.0
C22 C 0.44487 0.09014 0.91999 0.0
C23 C 0.12676 0.10084 1.0261 0.0
C24 C 0.14993 0.27177 0.95142 0.0
C25 C 0.02347 0.35022 0.18158 0.0
C26 C 0.98178 0.33352 0.27523 0.0
C27 C 0.94437 0.28143 0.23511 0.0
C28 C 0.96521 0.28954 0.18861 0.0
C29 C 0.06137 0.40183 0.22194 0.0
C30 C 0.04159 0.39308 0.2683 0.0
C31 C 0.05058 0.35848 0.13284 0.0
H32 H 0.46602 0.22878 0.80424 0.0
H33 H 0.41927 0.21362 0.8847 0.0
H34 H 0.54365 -0.01026 0.84956 0.0
H35 H 0.58958 0.00469 0.76859 0.0
H36 H 0.89795 0.2351 0.23988 0.0
H37 H 0.93579 0.24829 0.15832 0.0
H38 H 0.10719 0.44868 0.21759 0.0
H39 H 0.07247 0.433 0.29884 0.0
Dy40 Dy 0.83813 0.66376 0.98676 0.0
Dy41 Dy 0.6691 0.77728 0.06252 0.0
C42 C 0.87582 0.84304 1.02707 0.0
O43 O 0.88067 0.64722 0.05967 0.0
O44 O 0.7636 0.72393 0.1094 0.0
O45 O 0.99195 0.64021 0.95819 0.0
O46 O 0.86678 0.56822 0.92815 0.0
O47 O 0.59823 0.66383 0.04437 0.0
O48 O 0.72266 0.5846 1.00202 0.0
O49 O 0.63776 0.80116 0.99075 0.0
O50 O 0.72516 0.70373 0.9399 0.0
O51 O 0.51544 0.80531 0.0898 0.0
O52 O 0.64348 0.87189 0.12215 0.0
C53 C 0.83946 0.67558 0.10226 0.0
O54 O 0.89796 0.77977 0.99643 0.0
O55 O 0.79923 0.85173 0.05744 0.0
C56 C 0.9879 0.59598 0.87349 0.0
C57 C 0.04003 0.622 0.78308 0.0
C58 C 0.93721 0.61934 0.79642 0.0
C59 C 0.91132 0.60723 0.84136 0.0
C60 C 0.09085 0.5967 0.85955 0.0
C61 C 0.11681 0.61017 0.81477 0.0
C62 C 0.96074 0.58757 0.92221 0.0
C63 C 0.63359 0.59688 1.02362 0.0
C64 C 0.66269 0.76157 0.94764 0.0
C65 C 0.51721 0.84818 0.17545 0.0
C66 C 0.47044 0.83032 0.26854 0.0
C67 C 0.42692 0.78295 0.22789 0.0
C68 C 0.45016 0.79166 0.18174 0.0
C69 C 0.56016 0.89571 0.21637 0.0
C70 C 0.53767 0.88644 0.26242 0.0
C71 C 0.54788 0.85562 0.12681 0.0
H72 H 0.87707 0.62862 0.7725 0.0
H73 H 0.83123 0.60773 0.85113 0.0
H74 H 0.15112 0.58833 0.88367 0.0
H75 H 0.19663 0.61211 0.80499 0.0
H76 H 0.37433 0.73956 0.23197 0.0
H77 H 0.41599 0.75386 0.15111 0.0
H78 H 0.61225 0.9396 0.21273 0.0
H79 H 0.57233 0.92325 0.29332 0.0
Dy80 Dy 0.33153 0.78568 0.56313 0.0
Dy81 Dy 0.1596 0.68332 0.49127 0.0
C82 C 0.36178 0.61113 0.5221 0.0
O83 O 0.35399 0.81841 0.49328 0.0
O84 O 0.27796 0.71621 0.44344 0.0
O85 O 0.48629 0.80423 0.58985 0.0
O86 O 0.36442 0.87855 0.62273 0.0
O87 O 0.11369 0.80206 0.49659 0.0
O88 O 0.19336 0.8591 0.567 0.0
O89 O 0.10066 0.69003 0.56589 0.0
O90 O 0.25218 0.71745 0.60686 0.0
O91 O 0.00586 0.66024 0.46458 0.0
O92 O 0.1309 0.58727 0.43314 0.0
C93 C 0.33402 0.77686 0.45025 0.0
O94 O 0.40546 0.67657 0.52755 0.0
O95 O 0.2625 0.60382 0.51731 0.0
C96 C 0.48643 0.84586 0.67534 0.0
C97 C 0.53397 0.82214 0.76693 0.0
C98 C 0.587 0.78294 0.72588 0.0
C99 C 0.56366 0.79476 0.68054 0.0
C100 C 0.43374 0.88519 0.71667 0.0
C101 C 0.45682 0.87302 0.76194 0.0
C102 C 0.45774 0.85613 0.62709 0.0
C103 C 0.12707 0.85966 0.53284 0.0
C104 C 0.15691 0.69536 0.60457 0.0
C105 C 0.00505 0.6115 0.38064 0.0
C106 C 0.95646 0.61979 0.28608 0.0
C107 C 0.00977 0.67809 0.31658 0.0
C108 C 0.03426 0.67371 0.36338 0.0
C109 C 0.95088 0.55363 0.35055 0.0
C110 C 0.92727 0.55748 0.30347 0.0
C111 C 0.0355 0.60562 0.42909 0.0
H112 H 0.64706 0.74358 0.72906 0.0
H113 H 0.60581 0.76354 0.64958 0.0
H114 H 0.37412 0.92517 0.71407 0.0
H115 H 0.41499 0.90374 0.79316 0.0
H116 H 0.0324 0.72693 0.30414 0.0
H117 H 0.07625 0.71869 0.38619 0.0
H118 H 0.92802 0.50521 0.36332 0.0
H119 H 0.88537 0.51229 0.28064 0.0
Dy120 Dy 0.81363 0.29286 0.56879 0.0
Dy121 Dy 0.6682 0.17821 0.48897 0.0
C122 C 0.87069 0.11704 0.53048 0.0
O123 O 0.88453 0.29855 0.49849 0.0
O124 O 0.75397 0.24719 0.44745 0.0
O125 O 0.95824 0.33137 0.60131 0.0
O126 O 0.81716 0.38275 0.6329 0.0
O127 O 0.57923 0.28429 0.51722 0.0
O128 O 0.71175 0.36666 0.53764 0.0
O129 O 0.64866 0.1434 0.55869 0.0
O130 O 0.67766 0.25947 0.60611 0.0
O131 O 0.51852 0.14332 0.46004 0.0
O132 O 0.6547 0.08827 0.42571 0.0
C133 C 0.84193 0.28193 0.45576 0.0
O134 O 0.87437 0.17732 0.56574 0.0
O135 O 0.80852 0.11095 0.49392 0.0
C136 C 0.9472 0.36646 0.68679 0.0
C137 C 0.00244 0.3478 0.7785 0.0
C138 C 0.04419 0.30092 0.73691 0.0
C139 C 0.01696 0.31009 0.69148 0.0
C140 C 0.90604 0.41378 0.72861 0.0
C141 C 0.93364 0.40463 0.77414 0.0
C142 C 0.91509 0.37529 0.6388 0.0
C143 C 0.61557 0.35262 0.52633 0.0
C144 C 0.64671 0.19055 0.60107 0.0
C145 C 0.52182 0.10625 0.37498 0.0
C146 C 0.46623 0.11915 0.28208 0.0
C147 C 0.5271 0.17394 0.31141 0.0
C148 C 0.55522 0.16726 0.35735 0.0
C149 C 0.46025 0.05187 0.34597 0.0
C150 C 0.43317 0.05803 0.29972 0.0
C151 C 0.55646 0.09698 0.42221 0.0
H152 H 0.09784 0.25702 0.73968 0.0
H153 H 0.04997 0.2725 0.66012 0.0
H154 H 0.85261 0.45791 0.72604 0.0
H155 H 0.90129 0.44156 0.80594 0.0
H156 H 0.55306 0.2217 0.29864 0.0
H157 H 0.60397 0.2093 0.37892 0.0
H158 H 0.43446 0.00412 0.3588 0.0
H159 H 0.38583 0.0155 0.27767 0.0
C160 C 0.59952 0.47374 0.04492 0.0
C161 C 0.56675 0.53181 1.02308 0.0
C162 C 0.40086 0.47041 1.00382 0.0
C163 C 0.43357 0.41227 1.0256 0.0
N164 N 0.55372 0.36594 0.07562 0.0
N165 N 0.44751 0.57718 0.97233 0.0
C166 C 0.53063 0.41548 0.04809 0.0
C167 C 0.47001 0.5283 1.00037 0.0
N168 N 0.69716 0.47337 0.06185 0.0
N169 N 0.30304 0.47129 0.9872 0.0
H170 H 0.49799 0.61825 0.96719 0.0
H171 H 0.38374 0.57289 0.95026 0.0
H172 H 0.2511 0.42842 0.9864 0.0
H173 H 0.27029 0.51685 0.97696 0.0
H174 H 0.7303 0.42794 0.07209 0.0
H175 H 0.74857 0.51672 0.06307 0.0
H176 H 0.61767 0.36999 0.09755 0.0
H177 H 0.50404 0.32411 0.08037 0.0
C178 C 0.47891 0.54065 0.56571 0.0
C179 C 0.42557 0.54427 0.52308 0.0
C180 C 0.49549 0.42106 0.48231 0.0
C181 C 0.54568 0.41645 0.52553 0.0
N182 N 0.56767 0.46334 0.61081 0.0
N183 N 0.37417 0.48597 0.44213 0.0
C184 C 0.53296 0.47411 0.56786 0.0
C185 C 0.43066 0.48355 0.48189 0.0
N186 N 0.4779 0.60076 0.60436 0.0
N187 N 0.5138 0.36752 0.44104 0.0
H188 H 0.33371 0.53332 0.4385 0.0
H189 H 0.36319 0.4401 0.41348 0.0
H190 H 0.55995 0.32079 0.43988 0.0
H191 H 0.48983 0.37154 0.40711 0.0
H192 H 0.52616 0.60561 0.63377 0.0
H193 H 0.43306 0.64832 0.60617 0.0
H194 H 0.55145 0.49934 0.64391 0.0
H195 H 0.60468 0.41442 0.61412 0.0
C196 C 0.10135 0.97634 0.0464 0.0
C197 C 0.06238 0.03496 1.02664 0.0
C198 C 0.89879 0.96971 1.01004 0.0
C199 C 0.94007 0.90892 1.02685 0.0
N200 N 0.08318 0.84954 0.05621 0.0
N201 N 0.93248 0.08113 0.98121 0.0
C202 C 0.04233 0.91071 0.04341 0.0
C203 C 0.9631 0.03019 1.0064 0.0
N204 N 0.19294 -0.01528 0.06989 0.0
N205 N 0.79807 0.96969 0.99742 0.0
H206 H 0.97841 0.12508 0.97665 0.0
H207 H 0.86578 0.07618 0.96101 0.0
H208 H 0.7498 0.92456 0.99644 0.0
H209 H 0.76037 0.01623 0.99074 0.0
H210 H 0.21987 0.94852 0.09016 0.0
H211 H 0.2393 0.03124 0.0724 0.0
H212 H 0.16065 0.8434 0.06264 0.0
H213 H 0.04069 0.80234 0.05766 0.0
C214 C 0.0229 0.03489 0.50074 0.0
C215 C 0.9379 0.05226 0.53243 0.0
C216 C 0.97603 0.94185 0.56424 0.0
C217 C 0.06491 0.92807 0.53495 0.0
N218 N 0.18633 0.97141 0.48429 0.0
N219 N 0.84005 0.02811 0.59879 0.0
C220 C 0.09224 0.97748 0.50576 0.0
C221 C 0.9168 0.00768 0.56576 0.0
N222 N 0.03658 0.07227 0.46521 0.0
N223 N 0.94631 0.89065 0.58929 0.0
H224 H 0.79151 0.07323 0.59921 0.0
H225 H 0.82838 0.00343 0.62759 0.0
H226 H 0.98886 0.84263 0.5897 0.0
H227 H 0.87627 0.89279 0.60695 0.0
H228 H 0.09068 0.05662 0.43784 0.0
H229 H 0.9879 0.11498 0.46057 0.0
H230 H 0.21488 0.0103 0.46646 0.0
H231 H 0.24003 0.93138 0.48841 0.0
C232 C 0.32952 0.13907 0.22453 0.0
C233 C 0.43417 0.12741 0.23355 0.0
C234 C 0.47935 0.14607 0.15362 0.0
C235 C 0.37406 0.15365 0.14377 0.0
N236 N 0.19817 0.13694 0.16506 0.0
N237 N 0.60578 0.1021 0.20265 0.0
C238 C 0.29898 0.14356 0.17775 0.0
C239 C 0.50828 0.12536 0.19677 0.0
N240 N 0.25956 0.14969 0.26117 0.0
N241 N 0.5519 0.16251 0.12328 0.0
H242 H 0.6293 0.08586 0.23352 0.0
H243 H 0.66034 0.09216 0.17525 0.0
H244 H 0.53402 0.17856 0.09166 0.0
H245 H 0.6295 0.16616 0.13143 0.0
H246 H 0.18393 0.16534 0.25752 0.0
H247 H 0.27869 0.14983 0.29652 0.0
H248 H 0.14161 0.12147 0.18647 0.0
H249 H 0.17224 0.13905 0.13103 0.0
C250 C 0.50941 0.79458 0.34681 0.0
C251 C 0.44001 0.82382 0.31762 0.0
C252 C 0.30388 0.82785 0.37719 0.0
C253 C 0.37314 0.7994 0.40686 0.0
N254 N 0.54537 0.76755 0.42441 0.0
N255 N 0.27958 0.88481 0.30975 0.0
C256 C 0.47736 0.78701 0.39318 0.0
C257 C 0.33971 0.84539 0.33429 0.0
N258 N 0.60433 0.77098 0.32928 0.0
N259 N 0.20286 0.8366 0.38943 0.0
H260 H 0.30257 0.8981 0.27786 0.0
H261 H 0.21071 0.91023 0.32301 0.0
H262 H 0.17437 0.82879 0.42178 0.0
H263 H 0.14612 0.84716 0.36641 0.0
H264 H 0.65497 0.74191 0.34631 0.0
H265 H 0.63062 0.77625 0.29581 0.0
H266 H 0.62413 0.76525 0.41903 0.0
H267 H 0.52374 0.7587 0.45774 0.0
C268 C 0.69424 0.8177 0.87705 0.0
C269 C 0.62487 0.78544 0.90463 0.0
C270 C 0.49488 0.77687 0.84193 0.0
C271 C 0.56287 0.81215 0.81541 0.0
N272 N 0.71757 0.88186 0.81294 0.0
N273 N 0.45331 0.74819 0.91842 0.0
C274 C 0.65978 0.83718 0.83453 0.0
C275 C 0.52302 0.76982 0.88877 0.0
N276 N 0.79389 0.8286 0.89097 0.0
N277 N 0.40579 0.74676 0.82143 0.0
H278 H 0.47179 0.74181 0.95265 0.0
H279 H 0.37552 0.74294 0.91093 0.0
H280 H 0.38314 0.74987 0.78704 0.0
H281 H 0.3583 0.71335 0.83672 0.0
H282 H 0.85108 0.8422 0.86915 0.0
H283 H 0.82101 0.81969 0.92333 0.0
H284 H 0.78347 0.90879 0.82811 0.0
H285 H 0.69477 0.89794 0.78194 0.0
C286 C 0.51919 0.13578 0.65002 0.0
C287 C 0.61801 0.16526 0.64528 0.0
C288 C 0.66317 0.15019 0.72605 0.0
C289 C 0.5617 0.12824 0.73259 0.0
N290 N 0.39151 0.09999 0.70251 0.0
N291 N 0.78277 0.20533 0.68045 0.0
C292 C 0.48941 0.12035 0.69483 0.0
C293 C 0.68959 0.17356 0.68371 0.0
N294 N 0.4534 0.12358 0.61199 0.0
N295 N 0.73539 0.14715 0.76005 0.0
H296 H 0.81125 0.21701 0.64913 0.0
H297 H 0.83058 0.22393 0.70975 0.0
H298 H 0.71863 0.13433 0.79283 0.0
H299 H 0.81355 0.15145 0.75441 0.0
H300 H 0.38521 0.09444 0.61078 0.0
H301 H 0.46866 0.13985 0.58017 0.0
H302 H 0.33129 0.10083 0.67902 0.0
H303 H 0.36889 0.08489 0.73392 0.0
C304 C 0.97805 0.65159 0.15917 0.0
C305 C 0.8736 0.6498 0.14547 0.0
C306 C 0.82371 0.62854 0.22401 0.0
C307 C 0.92812 0.62562 0.23658 0.0
N308 N 0.10465 0.61479 0.2111 0.0
N309 N 0.70054 0.61438 0.16002 0.0
C310 C 0.00538 0.63087 0.2025 0.0
C311 C 0.79768 0.63101 0.17635 0.0
N312 N 0.05063 0.67731 0.13273 0.0
N313 N 0.74892 0.63314 0.2581 0.0
H314 H 0.67778 0.61459 0.12524 0.0
H315 H 0.64557 0.59258 0.17927 0.0
H316 H 0.76403 0.6349 0.29407 0.0
H317 H 0.67225 0.6428 0.25173 0.0
H318 H 0.12583 0.68751 0.14414 0.0
H319 H 0.03417 0.69495 0.10154 0.0
H320 H 0.1626 0.6106 0.18551 0.0
H321 H 0.12709 0.5982 0.24201 0.0
C322 C 0.98779 0.28289 0.39718 0.0
C323 C 0.88906 0.30789 0.41512 0.0
C324 C 0.85465 0.35377 0.34288 0.0
C325 C 0.95265 0.32827 0.32458 0.0
N326 N 0.12151 0.28465 0.33835 0.0
N327 N 0.74636 0.39016 0.41328 0.0
C328 C 0.02232 0.29816 0.35316 0.0
C329 C 0.82778 0.35025 0.39033 0.0
N330 N 0.0468 0.24186 0.42095 0.0
N331 N 0.78663 0.38078 0.31482 0.0
H332 H 0.72921 0.39232 0.44916 0.0
H333 H 0.70388 0.42775 0.39894 0.0
H334 H 0.80479 0.3881 0.28072 0.0
H335 H 0.71005 0.39152 0.32416 0.0
H336 H 0.11271 0.21314 0.40645 0.0
H337 H 0.02765 0.23377 0.45466 0.0
H338 H 0.17885 0.27039 0.35979 0.0
H339 H 0.14861 0.29322 0.30578 0.0
C340 C 0.96792 0.30235 0.85367 0.0
C341 C 0.03405 0.33772 0.82649 0.0
C342 C 0.17426 0.33242 0.88211 0.0
C343 C 0.10782 0.29857 0.9102 0.0
N344 N 0.93712 0.26315 0.92779 0.0
N345 N 0.19008 0.40401 0.8213 0.0
C346 C 0.00296 0.28787 0.89778 0.0
C347 C 0.13421 0.35814 0.84276 0.0
N348 N 0.87339 0.27943 0.83618 0.0
N349 N 0.27629 0.33879 0.89231 0.0
H350 H 0.16255 0.42438 0.79262 0.0
H351 H 0.25909 0.42783 0.83479 0.0
H352 H 0.30868 0.3249 0.92228 0.0
H353 H 0.33023 0.35373 0.86946 0.0
H354 H 0.82599 0.24562 0.85115 0.0
H355 H 0.84444 0.29022 0.80456 0.0
H356 H 0.85811 0.26218 0.92359 0.0
H357 H 0.96052 0.24833 0.95908 0.0
C358 C 0.10864 0.6003 0.65067 0.0
C359 C 0.11363 0.67629 0.64809 0.0
C360 C 0.06237 0.71641 0.73299 0.0
C361 C 0.06665 0.6407 0.73665 0.0
N362 N 0.10622 0.5113 0.70127 0.0
N363 N 0.10298 0.80752 0.68664 0.0
C364 C 0.09295 0.58276 0.69605 0.0
C365 C 0.09215 0.7346 0.68922 0.0
N366 N 0.11827 0.54493 0.60962 0.0
N367 N 0.02928 0.77087 0.77138 0.0
H368 H 0.11872 0.82309 0.65459 0.0
H369 H 0.10154 0.85256 0.71645 0.0
H370 H 0.013 0.76072 0.80497 0.0
H371 H 0.01228 0.82544 0.76944 0.0
H372 H 0.10494 0.48868 0.6081 0.0
H373 H 0.13115 0.55582 0.57596 0.0
H374 H 0.13646 0.46797 0.67459 0.0
H375 H 0.09408 0.49621 0.73373 0.0
loop_
_geom_bond_atom_site_label_1
_geom_bond_atom_site_label_2
_geom_bond_distance
_geom_bond_site_symmetry_2
_ccdc_geom_bond_type
Dy0 O3 2.307 1_556 S
Dy0 O5 2.395 . S
Dy0 O6 2.379 . S
Dy0 O8 2.339 . S
Dy0 O10 2.298 . S
Dy0 O14 2.275 . S
Dy0 C22 2.738 . S
Dy1 O4 2.298 . S
Dy1 O7 2.275 . S
Dy1 O9 2.307 1_554 S
Dy1 O11 2.395 . S
Dy1 O12 2.379 . S
Dy1 O15 2.339 . S
Dy1 C31 2.738 . S
C2 O14 1.254 1_554 S
C2 O15 1.257 . S
O3 Dy0 2.307 1_554 S
O3 C13 1.266 . S
O4 Dy1 2.298 . S
O4 C13 1.236 . S
O5 Dy0 2.395 . S
O5 C22 1.255 . S
O6 Dy0 2.379 . S
O6 C22 1.249 . S
O7 Dy1 2.275 . S
O7 C23 1.254 1_554 S
O8 Dy0 2.339 . S
O8 C23 1.257 . S
O9 Dy1 2.307 1_556 S
O9 C24 1.266 . S
O10 Dy0 2.298 . S
O10 C24 1.236 . S
O11 Dy1 2.395 . S
O11 C31 1.255 . S
O12 Dy1 2.379 . S
O12 C31 1.249 . S
C13 O3 1.266 . S
C13 O4 1.236 . S
O14 Dy0 2.275 . S
O14 C2 1.254 1_556 S
O15 Dy1 2.339 . S
O15 C2 1.257 . S
C16 C19 1.344 . S
C16 C20 1.328 . S
C16 C22 1.516 . S
C17 C18 1.304 . S
C17 C21 1.323 . S
C18 C17 1.304 . S
C18 C19 1.371 . S
C18 H32 0.930 . S
C19 C16 1.344 . S
C19 C18 1.371 . S
C19 H33 0.931 . S
C20 C16 1.328 . S
C20 C21 1.433 . S
C20 H34 0.931 . S
C21 C17 1.323 . S
C21 C20 1.433 . S
C21 H35 0.933 . S
C22 Dy0 2.738 . S
C22 O5 1.255 . S
C22 O6 1.249 . S
C22 C16 1.516 . S
C23 O7 1.254 1_556 S
C23 O8 1.257 . S
C24 O9 1.266 . S
C24 O10 1.236 . S
C25 C28 1.344 . S
C25 C29 1.328 . S
C25 C31 1.516 . S
C26 C27 1.304 . S
C26 C30 1.323 . S
C27 C26 1.304 . S
C27 C28 1.371 1_655 S
C27 H36 0.930 . S
C28 C25 1.344 . S
C28 C27 1.371 1_455 S
C28 H37 0.931 . S
C29 C25 1.328 . S
C29 C30 1.433 1_455 S
C29 H38 0.931 . S
C30 C26 1.323 . S
C30 C29 1.433 1_655 S
C30 H39 0.933 . S
C31 Dy1 2.738 . S
C31 O11 1.255 . S
C31 O12 1.249 . S
C31 C25 1.516 . S
H32 C18 0.930 . S
H33 C19 0.931 . S
H34 C20 0.931 . S
H35 C21 0.933 . S
H36 C27 0.930 . S
H37 C28 0.931 . S
H38 C29 0.931 . S
H39 C30 0.933 . S
Dy40 O43 2.307 1_556 S
Dy40 O45 2.395 . S
Dy40 O46 2.379 . S
Dy40 O48 2.339 . S
Dy40 O50 2.298 . S
Dy40 O54 2.275 . S
Dy40 C62 2.738 . S
Dy41 O44 2.298 . S
Dy41 O47 2.275 . S
Dy41 O49 2.307 1_554 S
Dy41 O51 2.395 . S
Dy41 O52 2.379 . S
Dy41 O55 2.339 . S
Dy41 C71 2.738 . S
C42 O54 1.254 1_554 S
C42 O55 1.257 . S
O43 Dy40 2.307 1_554 S
O43 C53 1.266 . S
O44 Dy41 2.298 . S
O44 C53 1.236 . S
O45 Dy40 2.395 . S
O45 C62 1.255 . S
O46 Dy40 2.379 . S
O46 C62 1.249 . S
O47 Dy41 2.275 . S
O47 C63 1.254 1_554 S
O48 Dy40 2.339 . S
O48 C63 1.257 . S
O49 Dy41 2.307 1_556 S
O49 C64 1.266 . S
O50 Dy40 2.298 . S
O50 C64 1.236 . S
O51 Dy41 2.395 . S
O51 C71 1.255 . S
O52 Dy41 2.379 . S
O52 C71 1.249 . S
C53 O43 1.266 . S
C53 O44 1.236 . S
O54 Dy40 2.275 . S
O54 C42 1.254 1_556 S
O55 Dy41 2.339 . S
O55 C42 1.257 . S
C56 C59 1.344 . S
C56 C60 1.328 . S
C56 C62 1.516 . S
C57 C58 1.304 . S
C57 C61 1.323 . S
C58 C57 1.304 . S
C58 C59 1.371 1_455 S
C58 H72 0.930 . S
C59 C56 1.344 . S
C59 C58 1.371 1_655 S
C59 H73 0.931 . S
C60 C56 1.328 . S
C60 C61 1.433 1_655 S
C60 H74 0.931 . S
C61 C57 1.323 . S
C61 C60 1.433 1_455 S
C61 H75 0.933 . S
C62 Dy40 2.738 . S
C62 O45 1.255 . S
C62 O46 1.249 . S
C62 C56 1.516 . S
C63 O47 1.254 1_556 S
C63 O48 1.257 . S
C64 O49 1.266 . S
C64 O50 1.236 . S
C65 C68 1.344 . S
C65 C69 1.328 . S
C65 C71 1.516 . S
C66 C67 1.304 . S
C66 C70 1.323 . S
C67 C66 1.304 . S
C67 C68 1.371 . S
C67 H76 0.930 . S
C68 C65 1.344 . S
C68 C67 1.371 . S
C68 H77 0.931 . S
C69 C65 1.328 . S
C69 C70 1.433 . S
C69 H78 0.931 . S
C70 C66 1.323 . S
C70 C69 1.433 . S
C70 H79 0.933 . S
C71 Dy41 2.738 . S
C71 O51 1.255 . S
C71 O52 1.249 . S
C71 C65 1.516 . S
H72 C58 0.930 . S
H73 C59 0.931 . S
H74 C60 0.931 . S
H75 C61 0.933 . S
H76 C67 0.930 . S
H77 C68 0.931 . S
H78 C69 0.931 . S
H79 C70 0.933 . S
Dy80 O83 2.307 . S
Dy80 O85 2.395 . S
Dy80 O86 2.379 . S
Dy80 O88 2.339 . S
Dy80 O90 2.298 . S
Dy80 O94 2.275 . S
Dy80 C102 2.738 . S
Dy81 O84 2.298 . S
Dy81 O87 2.275 . S
Dy81 O89 2.307 . S
Dy81 O91 2.395 . S
Dy81 O92 2.379 . S
Dy81 O95 2.339 . S
Dy81 C111 2.738 . S
C82 O94 1.254 . S
C82 O95 1.257 . S
O83 Dy80 2.307 . S
O83 C93 1.266 . S
O84 Dy81 2.298 . S
O84 C93 1.236 . S
O85 Dy80 2.395 . S
O85 C102 1.255 . S
O86 Dy80 2.379 . S
O86 C102 1.249 . S
O87 Dy81 2.275 . S
O87 C103 1.254 . S
O88 Dy80 2.339 . S
O88 C103 1.257 . S
O89 Dy81 2.307 . S
O89 C104 1.266 . S
O90 Dy80 2.298 . S
O90 C104 1.236 . S
O91 Dy81 2.395 . S
O91 C111 1.255 . S
O92 Dy81 2.379 . S
O92 C111 1.249 . S
C93 O83 1.266 . S
C93 O84 1.236 . S
O94 Dy80 2.275 . S
O94 C82 1.254 . S
O95 Dy81 2.339 . S
O95 C82 1.257 . S
C96 C99 1.344 . S
C96 C100 1.328 . S
C96 C102 1.516 . S
C97 C98 1.304 . S
C97 C101 1.323 . S
C98 C97 1.304 . S
C98 C99 1.371 . S
C98 H112 0.930 . S
C99 C96 1.344 . S
C99 C98 1.371 . S
C99 H113 0.931 . S
C100 C96 1.328 . S
C100 C101 1.433 . S
C100 H114 0.931 . S
C101 C97 1.323 . S
C101 C100 1.433 . S
C101 H115 0.933 . S
C102 Dy80 2.738 . S
C102 O85 1.255 . S
C102 O86 1.249 . S
C102 C96 1.516 . S
C103 O87 1.254 . S
C103 O88 1.257 . S
C104 O89 1.266 . S
C104 O90 1.236 . S
C105 C108 1.344 . S
C105 C109 1.328 . S
C105 C111 1.516 . S
C106 C107 1.304 . S
C106 C110 1.323 . S
C107 C106 1.304 . S
C107 C108 1.371 1_655 S
C107 H116 0.930 . S
C108 C105 1.344 . S
C108 C107 1.371 1_455 S
C108 H117 0.931 . S
C109 C105 1.328 . S
C109 C110 1.433 1_455 S
C109 H118 0.931 . S
C110 C106 1.323 . S
C110 C109 1.433 1_655 S
C110 H119 0.933 . S
C111 Dy81 2.738 . S
C111 O91 1.255 . S
C111 O92 1.249 . S
C111 C105 1.516 . S
H112 C98 0.930 . S
H113 C99 0.931 . S
H114 C100 0.931 . S
H115 C101 0.933 . S
H116 C107 0.930 . S
H117 C108 0.931 . S
H118 C109 0.931 . S
H119 C110 0.933 . S
Dy120 O123 2.307 . S
Dy120 O125 2.395 . S
Dy120 O126 2.379 . S
Dy120 O128 2.339 . S
Dy120 O130 2.298 . S
Dy120 O134 2.275 . S
Dy120 C142 2.738 . S
Dy121 O124 2.298 . S
Dy121 O127 2.275 . S
Dy121 O129 2.307 . S
Dy121 O131 2.395 . S
Dy121 O132 2.379 . S
Dy121 O135 2.339 . S
Dy121 C151 2.738 . S
C122 O134 1.254 . S
C122 O135 1.257 . S
O123 Dy120 2.307 . S
O123 C133 1.266 . S
O124 Dy121 2.298 . S
O124 C133 1.236 . S
O125 Dy120 2.395 . S
O125 C142 1.255 . S
O126 Dy120 2.379 . S
O126 C142 1.249 . S
O127 Dy121 2.275 . S
O127 C143 1.254 . S
O128 Dy120 2.339 . S
O128 C143 1.257 . S
O129 Dy121 2.307 . S
O129 C144 1.266 . S
O130 Dy120 2.298 . S
O130 C144 1.236 . S
O131 Dy121 2.395 . S
O131 C151 1.255 . S
O132 Dy121 2.379 . S
O132 C151 1.249 . S
C133 O123 1.266 . S
C133 O124 1.236 . S
O134 Dy120 2.275 . S
O134 C122 1.254 . S
O135 Dy121 2.339 . S
O135 C122 1.257 . S
C136 C139 1.344 . S
C136 C140 1.328 . S
C136 C142 1.516 . S
C137 C138 1.304 . S
C137 C141 1.323 . S
C138 C137 1.304 . S
C138 C139 1.371 1_455 S
C138 H152 0.930 . S
C139 C136 1.344 . S
C139 C138 1.371 1_655 S
C139 H153 0.931 . S
C140 C136 1.328 . S
C140 C141 1.433 1_655 S
C140 H154 0.931 . S
C141 C137 1.323 . S
C141 C140 1.433 1_455 S
C141 H155 0.933 . S
C142 Dy120 2.738 . S
C142 O125 1.255 . S
C142 O126 1.249 . S
C142 C136 1.516 . S
C143 O127 1.254 . S
C143 O128 1.257 . S
C144 O129 1.266 . S
C144 O130 1.236 . S
C145 C148 1.344 . S
C145 C149 1.328 . S
C145 C151 1.516 . S
C146 C147 1.304 . S
C146 C150 1.323 . S
C147 C146 1.304 . S
C147 C148 1.371 . S
C147 H156 0.930 . S
C148 C145 1.344 . S
C148 C147 1.371 . S
C148 H157 0.931 . S
C149 C145 1.328 . S
C149 C150 1.433 . S
C149 H158 0.931 . S
C150 C146 1.323 . S
C150 C149 1.433 . S
C150 H159 0.933 . S
C151 Dy121 2.738 . S
C151 O131 1.255 . S
C151 O132 1.249 . S
C151 C145 1.516 . S
H152 C138 0.930 . S
H153 C139 0.931 . S
H154 C140 0.931 . S
H155 C141 0.933 . S
H156 C147 0.930 . S
H157 C148 0.931 . S
H158 C149 0.931 . S
H159 C150 0.933 . S
C160 C161 1.340 1_554 S
C160 C166 1.379 . S
C160 N168 1.356 . S
C161 C160 1.340 1_556 S
C161 C167 1.382 . S
C162 C163 1.363 1_556 S
C162 C167 1.379 . S
C162 N169 1.356 . S
C163 C162 1.363 1_554 S
C163 C166 1.363 . S
N164 C166 1.356 . S
N164 H176 0.984 . S
N164 H177 0.985 . S
N165 C167 1.356 . S
N165 H170 0.984 . S
N165 H171 0.985 . S
C166 C160 1.379 . S
C166 C163 1.363 . S
C166 N164 1.356 . S
C167 C161 1.382 . S
C167 C162 1.379 . S
C167 N165 1.356 . S
N168 C160 1.356 . S
N168 H174 0.984 . S
N168 H175 0.984 . S
N169 C162 1.356 . S
N169 H172 0.984 . S
N169 H173 0.985 . S
H170 N165 0.984 . S
H171 N165 0.985 . S
H172 N169 0.984 . S
H173 N169 0.985 . S
H174 N168 0.984 . S
H175 N168 0.984 . S
H176 N164 0.984 . S
H177 N164 0.985 . S
C178 C179 1.363 . S
C178 C184 1.379 . S
C178 N186 1.356 . S
C179 C178 1.363 . S
C179 C185 1.363 . S
C180 C181 1.363 . S
C180 C185 1.379 . S
C180 N187 1.356 . S
C181 C180 1.363 . S
C181 C184 1.363 . S
N182 C184 1.356 . S
N182 H194 0.984 . S
N182 H195 0.985 . S
N183 C185 1.356 . S
N183 H188 0.984 . S
N183 H189 0.985 . S
C184 C178 1.379 . S
C184 C181 1.363 . S
C184 N182 1.356 . S
C185 C179 1.363 . S
C185 C180 1.379 . S
C185 N183 1.356 . S
N186 C178 1.356 . S
N186 H192 0.984 . S
N186 H193 0.984 . S
N187 C180 1.356 . S
N187 H190 0.984 . S
N187 H191 0.985 . S
H188 N183 0.984 . S
H189 N183 0.985 . S
H190 N187 0.984 . S
H191 N187 0.985 . S
H192 N186 0.984 . S
H193 N186 0.984 . S
H194 N182 0.984 . S
H195 N182 0.985 . S
C196 C197 1.341 1_554 S
C196 C202 1.379 1_445 S
C196 N204 1.356 . S
C197 C196 1.341 1_556 S
C197 C203 1.381 . S
C198 C199 1.363 1_556 S
C198 C203 1.379 1_665 S
C198 N205 1.356 . S
C199 C198 1.363 1_554 S
C199 C202 1.363 . S
N200 C202 1.356 . S
N200 H212 0.984 . S
N200 H213 0.985 . S
N201 C203 1.356 . S
N201 H206 0.984 . S
N201 H207 0.985 . S
C202 C196 1.379 1_665 S
C202 C199 1.363 . S
C202 N200 1.356 . S
C203 C197 1.381 . S
C203 C198 1.379 1_445 S
C203 N201 1.356 . S
N204 C196 1.356 . S
N204 H210 0.984 . S
N204 H211 0.984 . S
N205 C198 1.356 . S
N205 H208 0.984 . S
N205 H209 0.985 . S
H206 N201 0.984 . S
H207 N201 0.985 . S
H208 N205 0.984 . S
H209 N205 0.985 . S
H210 N204 0.984 . S
H211 N204 0.984 . S
H212 N200 0.984 . S
H213 N200 0.985 . S
C214 C215 1.363 . S
C214 C220 1.379 1_645 S
C214 N222 1.356 . S
C215 C214 1.363 . S
C215 C221 1.363 . S
C216 C217 1.363 . S
C216 C221 1.379 1_465 S
C216 N223 1.356 . S
C217 C216 1.363 . S
C217 C220 1.363 . S
N218 C220 1.356 . S
N218 H230 0.984 . S
N218 H231 0.985 . S
N219 C221 1.356 . S
N219 H224 0.984 . S
N219 H225 0.985 . S
C220 C214 1.379 1_465 S
C220 C217 1.363 . S
C220 N218 1.356 . S
C221 C215 1.363 . S
C221 C216 1.379 1_645 S
C221 N219 1.356 . S
N222 C214 1.356 . S
N222 H228 0.986 . S
N222 H229 0.984 . S
N223 C216 1.356 . S
N223 H226 0.984 . S
N223 H227 0.986 . S
H224 N219 0.984 . S
H225 N219 0.985 . S
H226 N223 0.984 . S
H227 N223 0.986 . S
H228 N222 0.986 . S
H229 N222 0.984 . S
H230 N218 0.984 . S
H231 N218 0.985 . S
C232 C233 1.363 . S
C232 C238 1.379 . S
C232 N240 1.356 . S
C233 C232 1.363 . S
C233 C239 1.363 . S
C234 C235 1.363 . S
C234 C239 1.379 . S
C234 N241 1.356 . S
C235 C234 1.363 . S
C235 C238 1.363 . S
N236 C238 1.356 . S
N236 H248 0.984 . S
N236 H249 0.985 . S
N237 C239 1.356 . S
N237 H242 0.984 . S
N237 H243 0.985 . S
C238 C232 1.379 . S
C238 C235 1.363 . S
C238 N236 1.356 . S
C239 C233 1.363 . S
C239 C234 1.379 . S
C239 N237 1.356 . S
N240 C232 1.356 . S
N240 H246 0.984 . S
N240 H247 0.984 . S
N241 C234 1.356 . S
N241 H244 0.984 . S
N241 H245 0.985 . S
H242 N237 0.984 . S
H243 N237 0.985 . S
H244 N241 0.984 . S
H245 N241 0.985 . S
H246 N240 0.984 . S
H247 N240 0.984 . S
H248 N236 0.984 . S
H249 N236 0.985 . S
C250 C251 1.363 . S
C250 C256 1.379 . S
C250 N258 1.356 . S
C251 C250 1.363 . S
C251 C257 1.363 . S
C252 C253 1.363 . S
C252 C257 1.379 . S
C252 N259 1.356 . S
C253 C252 1.363 . S
C253 C256 1.363 . S
N254 C256 1.356 . S
N254 H266 0.984 . S
N254 H267 0.985 . S
N255 C257 1.356 . S
N255 H260 0.984 . S
N255 H261 0.985 . S
C256 C250 1.379 . S
C256 C253 1.363 . S
C256 N254 1.356 . S
C257 C251 1.363 . S
C257 C252 1.379 . S
C257 N255 1.356 . S
N258 C250 1.356 . S
N258 H264 0.984 . S
N258 H265 0.984 . S
N259 C252 1.356 . S
N259 H262 0.984 . S
N259 H263 0.985 . S
H260 N255 0.984 . S
H261 N255 0.985 . S
H262 N259 0.984 . S
H263 N259 0.985 . S
H264 N258 0.984 . S
H265 N258 0.984 . S
H266 N254 0.984 . S
H267 N254 0.985 . S
C268 C269 1.363 . S
C268 C274 1.379 . S
C268 N276 1.356 . S
C269 C268 1.363 . S
C269 C275 1.363 . S
C270 C271 1.363 . S
C270 C275 1.379 . S
C270 N277 1.356 . S
C271 C270 1.363 . S
C271 C274 1.363 . S
N272 C274 1.356 . S
N272 H284 0.984 . S
N272 H285 0.985 . S
N273 C275 1.356 . S
N273 H278 0.984 . S
N273 H279 0.985 . S
C274 C268 1.379 . S
C274 C271 1.363 . S
C274 N272 1.356 . S
C275 C269 1.363 . S
C275 C270 1.379 . S
C275 N273 1.356 . S
N276 C268 1.356 . S
N276 H282 0.984 . S
N276 H283 0.984 . S
N277 C270 1.356 . S
N277 H280 0.984 . S
N277 H281 0.985 . S
H278 N273 0.984 . S
H279 N273 0.985 . S
H280 N277 0.984 . S
H281 N277 0.985 . S
H282 N276 0.984 . S
H283 N276 0.984 . S
H284 N272 0.984 . S
H285 N272 0.985 . S
C286 C287 1.363 . S
C286 C292 1.379 . S
C286 N294 1.356 . S
C287 C286 1.363 . S
C287 C293 1.363 . S
C288 C289 1.363 . S
C288 C293 1.379 . S
C288 N295 1.356 . S
C289 C288 1.363 . S
C289 C292 1.363 . S
N290 C292 1.356 . S
N290 H302 0.984 . S
N290 H303 0.985 . S
N291 C293 1.356 . S
N291 H296 0.984 . S
N291 H297 0.985 . S
C292 C286 1.379 . S
C292 C289 1.363 . S
C292 N290 1.356 . S
C293 C287 1.363 . S
C293 C288 1.379 . S
C293 N291 1.356 . S
N294 C286 1.356 . S
N294 H300 0.984 . S
N294 H301 0.984 . S
N295 C288 1.356 . S
N295 H298 0.984 . S
N295 H299 0.985 . S
H296 N291 0.984 . S
H297 N291 0.985 . S
H298 N295 0.984 . S
H299 N295 0.985 . S
H300 N294 0.984 . S
H301 N294 0.984 . S
H302 N290 0.984 . S
H303 N290 0.985 . S
C304 C305 1.363 . S
C304 C310 1.379 . S
C304 N312 1.356 1_655 S
C305 C304 1.363 . S
C305 C311 1.363 . S
C306 C307 1.363 . S
C306 C311 1.379 . S
C306 N313 1.356 . S
C307 C306 1.363 . S
C307 C310 1.363 . S
N308 C310 1.356 1_455 S
N308 H320 0.984 . S
N308 H321 0.985 . S
N309 C311 1.356 . S
N309 H314 0.984 . S
N309 H315 0.985 . S
C310 C304 1.379 . S
C310 C307 1.363 . S
C310 N308 1.356 1_655 S
C311 C305 1.363 . S
C311 C306 1.379 . S
C311 N309 1.356 . S
N312 C304 1.356 1_455 S
N312 H318 0.984 . S
N312 H319 0.984 1_455 S
N313 C306 1.356 . S
N313 H316 0.984 . S
N313 H317 0.985 . S
H314 N309 0.984 . S
H315 N309 0.985 . S
H316 N313 0.984 . S
H317 N313 0.985 . S
H318 N312 0.984 . S
H319 N312 0.984 1_655 S
H320 N308 0.984 . S
H321 N308 0.985 . S
C322 C323 1.363 . S
C322 C328 1.379 . S
C322 N330 1.356 . S
C323 C322 1.363 . S
C323 C329 1.363 . S
C324 C325 1.363 . S
C324 C329 1.379 . S
C324 N331 1.356 . S
C325 C324 1.363 . S
C325 C328 1.363 . S
N326 C328 1.356 . S
N326 H338 0.984 1_655 S
N326 H339 0.985 . S
N327 C329 1.356 . S
N327 H332 0.984 . S
N327 H333 0.985 . S
C328 C322 1.379 . S
C328 C325 1.363 . S
C328 N326 1.356 . S
C329 C323 1.363 . S
C329 C324 1.379 . S
C329 N327 1.356 . S
N330 C322 1.356 . S
N330 H336 0.984 . S
N330 H337 0.984 . S
N331 C324 1.356 . S
N331 H334 0.984 . S
N331 H335 0.985 . S
H332 N327 0.984 . S
H333 N327 0.985 . S
H334 N331 0.984 . S
H335 N331 0.985 . S
H336 N330 0.984 . S
H337 N330 0.984 . S
H338 N326 0.984 1_455 S
H339 N326 0.985 . S
C340 C341 1.363 . S
C340 C346 1.379 . S
C340 N348 1.356 1_455 S
C341 C340 1.363 . S
C341 C347 1.363 . S
C342 C343 1.363 . S
C342 C347 1.379 . S
C342 N349 1.356 . S
C343 C342 1.363 . S
C343 C346 1.363 . S
N344 C346 1.356 1_655 S
N344 H356 0.984 . S
N344 H357 0.985 1_655 S
N345 C347 1.356 . S
N345 H350 0.984 . S
N345 H351 0.985 . S
C346 C340 1.379 . S
C346 C343 1.363 . S
C346 N344 1.356 1_455 S
C347 C341 1.363 . S
C347 C342 1.379 . S
C347 N345 1.356 . S
N348 C340 1.356 1_655 S
N348 H354 0.984 . S
N348 H355 0.984 . S
N349 C342 1.356 . S
N349 H352 0.984 . S
N349 H353 0.985 . S
H350 N345 0.984 . S
H351 N345 0.985 . S
H352 N349 0.984 . S
H353 N349 0.985 . S
H354 N348 0.984 . S
H355 N348 0.984 . S
H356 N344 0.984 . S
H357 N344 0.985 1_455 S
C358 C359 1.363 . S
C358 C364 1.379 . S
C358 N366 1.356 . S
C359 C358 1.363 . S
C359 C365 1.363 . S
C360 C361 1.363 . S
C360 C365 1.379 . S
C360 N367 1.356 . S
C361 C360 1.363 . S
C361 C364 1.363 . S
N362 C364 1.356 . S
N362 H374 0.984 . S
N362 H375 0.985 . S
N363 C365 1.356 . S
N363 H368 0.984 . S
N363 H369 0.985 . S
C364 C358 1.379 . S
C364 C361 1.363 . S
C364 N362 1.356 . S
C365 C359 1.363 . S
C365 C360 1.379 . S
C365 N363 1.356 . S
N366 C358 1.356 . S
N366 H372 0.984 . S
N366 H373 0.984 . S
N367 C360 1.356 . S
N367 H370 0.984 . S
N367 H371 0.985 . S
H368 N363 0.984 . S
H369 N363 0.985 . S
H370 N367 0.984 . S
H371 N367 0.985 . S
H372 N366 0.984 . S
H373 N366 0.984 . S
H374 N362 0.984 . S
H375 N362 0.985 . S
C161 C63 1.610 . S
C163 C2 1.603 . S
C179 C82 1.603 . S
C181 C143 1.603 . S
C197 C23 1.611 . S
C199 C42 1.603 . S
C215 C122 1.603 . S
C217 C103 1.603 . S
C233 C146 1.374 . S
C235 C13 1.466 . S
C251 C66 1.374 . S
C253 C93 1.466 . S
C269 C64 1.466 . S
C271 C97 1.374 . S
C287 C144 1.466 . S
C289 C17 1.374 . S
C305 C53 1.466 . S
C307 C106 1.374 . S
C323 C133 1.466 . S
C325 C26 1.374 . S
C341 C137 1.374 . S
C343 C24 1.466 . S
C359 C104 1.466 . S
C361 C57 1.374 . S
