# Generated by pormake.
# Topology unx, (4)-cn, num edge types: 1
# Building blocks:
#     Node 0, Type 0, BuildingBlock: GALJAG_clean_sbu_0, # of connection points: 4
#     Node 1, Type 0, BuildingBlock: GALJAG_clean_sbu_0, # of connection points: 4
#     Node 2, Type 0, BuildingBlock: GALJAG_clean_sbu_0, # of connection points: 4
#     Node 3, Type 0, BuildingBlock: GALJAG_clean_sbu_0, # of connection points: 4
#     Node 4, Type 0, BuildingBlock: GALJAG_clean_sbu_0, # of connection points: 4
#     Node 5, Type 0, BuildingBlock: GALJAG_clean_sbu_0, # of connection points: 4
#     Node 6, Type 0, BuildingBlock: GALJAG_clean_sbu_0, # of connection points: 4
#     Node 7, Type 0, BuildingBlock: GALJAG_clean_sbu_0, # of connection points: 4
#     Node 8, Type 0, BuildingBlock: GALJAG_clean_sbu_0, # of connection points: 4
#     Node 9, Type 0, BuildingBlock: GALJAG_clean_sbu_0, # of connection points: 4
#     Node 10, Type 0, BuildingBlock: GALJAG_clean_sbu_0, # of connection points: 4
#     Node 11, Type 0, BuildingBlock: GALJAG_clean_sbu_0, # of connection points: 4
#     Node 12, Type 0, BuildingBlock: GALJAG_clean_sbu_0, # of connection points: 4
#     Node 13, Type 0, BuildingBlock: GALJAG_clean_sbu_0, # of connection points: 4
#     Node 14, Type 0, BuildingBlock: GALJAG_clean_sbu_0, # of connection points: 4
#     Node 15, Type 0, BuildingBlock: GALJAG_clean_sbu_0, # of connection points: 4
#     Node 16, Type 0, BuildingBlock: GALJAG_clean_sbu_0, # of connection points: 4
#     Node 17, Type 0, BuildingBlock: GALJAG_clean_sbu_0, # of connection points: 4
#     Node 18, Type 0, BuildingBlock: GALJAG_clean_sbu_0, # of connection points: 4
#     Node 19, Type 0, BuildingBlock: GALJAG_clean_sbu_0, # of connection points: 4
#     Node 20, Type 0, BuildingBlock: GALJAG_clean_sbu_0, # of connection points: 4
#     Node 21, Type 0, BuildingBlock: GALJAG_clean_sbu_0, # of connection points: 4
#     Node 22, Type 0, BuildingBlock: GALJAG_clean_sbu_0, # of connection points: 4
#     Node 23, Type 0, BuildingBlock: GALJAG_clean_sbu_0, # of connection points: 4
#     Node 24, Type 0, BuildingBlock: GALJAG_clean_sbu_0, # of connection points: 4
#     Node 25, Type 0, BuildingBlock: GALJAG_clean_sbu_0, # of connection points: 4
#     Node 26, Type 0, BuildingBlock: GALJAG_clean_sbu_0, # of connection points: 4
#     Node 27, Type 0, BuildingBlock: GALJAG_clean_sbu_0, # of connection points: 4
#     Node 28, Type 0, BuildingBlock: GALJAG_clean_sbu_0, # of connection points: 4
#     Node 29, Type 0, BuildingBlock: GALJAG_clean_sbu_0, # of connection points: 4
#     Node 30, Type 0, BuildingBlock: GALJAG_clean_sbu_0, # of connection points: 4
#     Node 31, Type 0, BuildingBlock: GALJAG_clean_sbu_0, # of connection points: 4
#     Node 32, Type 0, BuildingBlock: GALJAG_clean_sbu_0, # of connection points: 4
#     Node 33, Type 0, BuildingBlock: GALJAG_clean_sbu_0, # of connection points: 4
#     Node 34, Type 0, BuildingBlock: GALJAG_clean_sbu_0, # of connection points: 4
#     Node 35, Type 0, BuildingBlock: GALJAG_clean_sbu_0, # of connection points: 4
#     Node 36, Type 0, BuildingBlock: GALJAG_clean_sbu_0, # of connection points: 4
#     Node 37, Type 0, BuildingBlock: GALJAG_clean_sbu_0, # of connection points: 4
#     Node 38, Type 0, BuildingBlock: GALJAG_clean_sbu_0, # of connection points: 4
#     Node 39, Type 0, BuildingBlock: GALJAG_clean_sbu_0, # of connection points: 4
#     Node 40, Type 0, BuildingBlock: GALJAG_clean_sbu_0, # of connection points: 4
#     Node 41, Type 0, BuildingBlock: GALJAG_clean_sbu_0, # of connection points: 4
#     Node 42, Type 0, BuildingBlock: GALJAG_clean_sbu_0, # of connection points: 4
#     Node 43, Type 0, BuildingBlock: GALJAG_clean_sbu_0, # of connection points: 4
#     Node 44, Type 0, BuildingBlock: GALJAG_clean_sbu_0, # of connection points: 4
#     Node 45, Type 0, BuildingBlock: GALJAG_clean_sbu_0, # of connection points: 4
#     Node 46, Type 0, BuildingBlock: GALJAG_clean_sbu_0, # of connection points: 4
#     Node 47, Type 0, BuildingBlock: GALJAG_clean_sbu_0, # of connection points: 4
#     Edge 48, Type (0, 0), BuildingBlock: XIVTED_clean_linker_0, # of connection points: 2
#     Edge 49, Type (0, 0), BuildingBlock: XIVTED_clean_linker_0, # of connection points: 2
#     Edge 50, Type (0, 0), BuildingBlock: XIVTED_clean_linker_0, # of connection points: 2
#     Edge 51, Type (0, 0), BuildingBlock: XIVTED_clean_linker_0, # of connection points: 2
#     Edge 52, Type (0, 0), BuildingBlock: XIVTED_clean_linker_0, # of connection points: 2
#     Edge 53, Type (0, 0), BuildingBlock: XIVTED_clean_linker_0, # of connection points: 2
#     Edge 54, Type (0, 0), BuildingBlock: XIVTED_clean_linker_0, # of connection points: 2
#     Edge 55, Type (0, 0), BuildingBlock: XIVTED_clean_linker_0, # of connection points: 2
#     Edge 56, Type (0, 0), BuildingBlock: XIVTED_clean_linker_0, # of connection points: 2
#     Edge 57, Type (0, 0), BuildingBlock: XIVTED_clean_linker_0, # of connection points: 2
#     Edge 58, Type (0, 0), BuildingBlock: XIVTED_clean_linker_0, # of connection points: 2
#     Edge 59, Type (0, 0), BuildingBlock: XIVTED_clean_linker_0, # of connection points: 2
#     Edge 60, Type (0, 0), BuildingBlock: XIVTED_clean_linker_0, # of connection points: 2
#     Edge 61, Type (0, 0), BuildingBlock: XIVTED_clean_linker_0, # of connection points: 2
#     Edge 62, Type (0, 0), BuildingBlock: XIVTED_clean_linker_0, # of connection points: 2
#     Edge 63, Type (0, 0), BuildingBlock: XIVTED_clean_linker_0, # of connection points: 2
#     Edge 64, Type (0, 0), BuildingBlock: XIVTED_clean_linker_0, # of connection points: 2
#     Edge 65, Type (0, 0), BuildingBlock: XIVTED_clean_linker_0, # of connection points: 2
#     Edge 66, Type (0, 0), BuildingBlock: XIVTED_clean_linker_0, # of connection points: 2
#     Edge 67, Type (0, 0), BuildingBlock: XIVTED_clean_linker_0, # of connection points: 2
#     Edge 68, Type (0, 0), BuildingBlock: XIVTED_clean_linker_0, # of connection points: 2
#     Edge 69, Type (0, 0), BuildingBlock: XIVTED_clean_linker_0, # of connection points: 2
#     Edge 70, Type (0, 0), BuildingBlock: XIVTED_clean_linker_0, # of connection points: 2
#     Edge 71, Type (0, 0), BuildingBlock: XIVTED_clean_linker_0, # of connection points: 2
#     Edge 72, Type (0, 0), BuildingBlock: XIVTED_clean_linker_0, # of connection points: 2
#     Edge 73, Type (0, 0), BuildingBlock: XIVTED_clean_linker_0, # of connection points: 2
#     Edge 74, Type (0, 0), BuildingBlock: XIVTED_clean_linker_0, # of connection points: 2
#     Edge 75, Type (0, 0), BuildingBlock: XIVTED_clean_linker_0, # of connection points: 2
#     Edge 76, Type (0, 0), BuildingBlock: XIVTED_clean_linker_0, # of connection points: 2
#     Edge 77, Type (0, 0), BuildingBlock: XIVTED_clean_linker_0, # of connection points: 2
#     Edge 78, Type (0, 0), BuildingBlock: XIVTED_clean_linker_0, # of connection points: 2
#     Edge 79, Type (0, 0), BuildingBlock: XIVTED_clean_linker_0, # of connection points: 2
#     Edge 80, Type (0, 0), BuildingBlock: XIVTED_clean_linker_0, # of connection points: 2
#     Edge 81, Type (0, 0), BuildingBlock: XIVTED_clean_linker_0, # of connection points: 2
#     Edge 82, Type (0, 0), BuildingBlock: XIVTED_clean_linker_0, # of connection points: 2
#     Edge 83, Type (0, 0), BuildingBlock: XIVTED_clean_linker_0, # of connection points: 2
#     Edge 84, Type (0, 0), BuildingBlock: XIVTED_clean_linker_0, # of connection points: 2
#     Edge 85, Type (0, 0), BuildingBlock: XIVTED_clean_linker_0, # of connection points: 2
#     Edge 86, Type (0, 0), BuildingBlock: XIVTED_clean_linker_0, # of connection points: 2
#     Edge 87, Type (0, 0), BuildingBlock: XIVTED_clean_linker_0, # of connection points: 2
#     Edge 88, Type (0, 0), BuildingBlock: XIVTED_clean_linker_0, # of connection points: 2
#     Edge 89, Type (0, 0), BuildingBlock: XIVTED_clean_linker_0, # of connection points: 2
#     Edge 90, Type (0, 0), BuildingBlock: XIVTED_clean_linker_0, # of connection points: 2
#     Edge 91, Type (0, 0), BuildingBlock: XIVTED_clean_linker_0, # of connection points: 2
#     Edge 92, Type (0, 0), BuildingBlock: XIVTED_clean_linker_0, # of connection points: 2
#     Edge 93, Type (0, 0), BuildingBlock: XIVTED_clean_linker_0, # of connection points: 2
#     Edge 94, Type (0, 0), BuildingBlock: XIVTED_clean_linker_0, # of connection points: 2
#     Edge 95, Type (0, 0), BuildingBlock: XIVTED_clean_linker_0, # of connection points: 2
#     Edge 96, Type (0, 0), BuildingBlock: XIVTED_clean_linker_0, # of connection points: 2
#     Edge 97, Type (0, 0), BuildingBlock: XIVTED_clean_linker_0, # of connection points: 2
#     Edge 98, Type (0, 0), BuildingBlock: XIVTED_clean_linker_0, # of connection points: 2
#     Edge 99, Type (0, 0), BuildingBlock: XIVTED_clean_linker_0, # of connection points: 2
#     Edge 100, Type (0, 0), BuildingBlock: XIVTED_clean_linker_0, # of connection points: 2
#     Edge 101, Type (0, 0), BuildingBlock: XIVTED_clean_linker_0, # of connection points: 2
#     Edge 102, Type (0, 0), BuildingBlock: XIVTED_clean_linker_0, # of connection points: 2
#     Edge 103, Type (0, 0), BuildingBlock: XIVTED_clean_linker_0, # of connection points: 2
#     Edge 104, Type (0, 0), BuildingBlock: XIVTED_clean_linker_0, # of connection points: 2
#     Edge 105, Type (0, 0), BuildingBlock: XIVTED_clean_linker_0, # of connection points: 2
#     Edge 106, Type (0, 0), BuildingBlock: XIVTED_clean_linker_0, # of connection points: 2
#     Edge 107, Type (0, 0), BuildingBlock: XIVTED_clean_linker_0, # of connection points: 2
#     Edge 108, Type (0, 0), BuildingBlock: XIVTED_clean_linker_0, # of connection points: 2
#     Edge 109, Type (0, 0), BuildingBlock: XIVTED_clean_linker_0, # of connection points: 2
#     Edge 110, Type (0, 0), BuildingBlock: XIVTED_clean_linker_0, # of connection points: 2
#     Edge 111, Type (0, 0), BuildingBlock: XIVTED_clean_linker_0, # of connection points: 2
#     Edge 112, Type (0, 0), BuildingBlock: XIVTED_clean_linker_0, # of connection points: 2
#     Edge 113, Type (0, 0), BuildingBlock: XIVTED_clean_linker_0, # of connection points: 2
#     Edge 114, Type (0, 0), BuildingBlock: XIVTED_clean_linker_0, # of connection points: 2
#     Edge 115, Type (0, 0), BuildingBlock: XIVTED_clean_linker_0, # of connection points: 2
#     Edge 116, Type (0, 0), BuildingBlock: XIVTED_clean_linker_0, # of connection points: 2
#     Edge 117, Type (0, 0), BuildingBlock: XIVTED_clean_linker_0, # of connection points: 2
#     Edge 118, Type (0, 0), BuildingBlock: XIVTED_clean_linker_0, # of connection points: 2
#     Edge 119, Type (0, 0), BuildingBlock: XIVTED_clean_linker_0, # of connection points: 2
#     Edge 120, Type (0, 0), BuildingBlock: XIVTED_clean_linker_0, # of connection points: 2
#     Edge 121, Type (0, 0), BuildingBlock: XIVTED_clean_linker_0, # of connection points: 2
#     Edge 122, Type (0, 0), BuildingBlock: XIVTED_clean_linker_0, # of connection points: 2
#     Edge 123, Type (0, 0), BuildingBlock: XIVTED_clean_linker_0, # of connection points: 2
#     Edge 124, Type (0, 0), BuildingBlock: XIVTED_clean_linker_0, # of connection points: 2
#     Edge 125, Type (0, 0), BuildingBlock: XIVTED_clean_linker_0, # of connection points: 2
#     Edge 126, Type (0, 0), BuildingBlock: XIVTED_clean_linker_0, # of connection points: 2
#     Edge 127, Type (0, 0), BuildingBlock: XIVTED_clean_linker_0, # of connection points: 2
#     Edge 128, Type (0, 0), BuildingBlock: XIVTED_clean_linker_0, # of connection points: 2
#     Edge 129, Type (0, 0), BuildingBlock: XIVTED_clean_linker_0, # of connection points: 2
#     Edge 130, Type (0, 0), BuildingBlock: XIVTED_clean_linker_0, # of connection points: 2
#     Edge 131, Type (0, 0), BuildingBlock: XIVTED_clean_linker_0, # of connection points: 2
#     Edge 132, Type (0, 0), BuildingBlock: XIVTED_clean_linker_0, # of connection points: 2
#     Edge 133, Type (0, 0), BuildingBlock: XIVTED_clean_linker_0, # of connection points: 2
#     Edge 134, Type (0, 0), BuildingBlock: XIVTED_clean_linker_0, # of connection points: 2
#     Edge 135, Type (0, 0), BuildingBlock: XIVTED_clean_linker_0, # of connection points: 2
#     Edge 136, Type (0, 0), BuildingBlock: XIVTED_clean_linker_0, # of connection points: 2
#     Edge 137, Type (0, 0), BuildingBlock: XIVTED_clean_linker_0, # of connection points: 2
#     Edge 138, Type (0, 0), BuildingBlock: XIVTED_clean_linker_0, # of connection points: 2
#     Edge 139, Type (0, 0), BuildingBlock: XIVTED_clean_linker_0, # of connection points: 2
#     Edge 140, Type (0, 0), BuildingBlock: XIVTED_clean_linker_0, # of connection points: 2
#     Edge 141, Type (0, 0), BuildingBlock: XIVTED_clean_linker_0, # of connection points: 2
#     Edge 142, Type (0, 0), BuildingBlock: XIVTED_clean_linker_0, # of connection points: 2
#     Edge 143, Type (0, 0), BuildingBlock: XIVTED_clean_linker_0, # of connection points: 2
# Relax obj value: 0.526
# Max RMSD: 0.259
# Mean RMSD: 0.214
data_MOF--net-unx--node1-GALJAG_clean_sbu_0--edge1-XIVTED_clean_linker_0
_symmetry_space_group_name_H-M    P1
_symmetry_Int_Tables_number       1
_symmetry_cell_setting            triclinic
loop_
_symmetry_equiv_pos_as_xyz
'x, y, z'
_cell_length_a     54.727477
_cell_length_b     54.948495
_cell_length_c     54.13573
_cell_angle_alpha  89.890103
_cell_angle_beta   90.078535
_cell_angle_gamma 90.428602
loop_
_atom_site_label
_atom_site_type_symbol
_atom_site_fract_x
_atom_site_fract_y
_atom_site_fract_z
_atom_type_partial_charge
In0 In 0.20636 0.55493 0.21441 0.0
O1 O 0.23712 0.57994 0.22756 0.0
O2 O 0.23455 0.54427 0.24313 0.0
C3 C 0.18417 0.57881 0.1772 0.0
C4 C 0.22943 0.52322 0.1853 0.0
C5 C 0.16891 0.55221 0.24645 0.0
O6 O 0.19942 0.58934 0.19127 0.0
O7 O 0.18014 0.55678 0.18225 0.0
O8 O 0.17671 0.53381 0.23495 0.0
O9 O 0.18097 0.57158 0.24289 0.0
C10 C 0.24653 0.56401 0.24152 0.0
O11 O 0.21011 0.51704 0.19662 0.0
O12 O 0.23661 0.54475 0.18884 0.0
In13 In 0.65906 0.30904 0.46977 0.0
O14 O 0.62199 0.31127 0.45073 0.0
O15 O 0.65217 0.29797 0.43007 0.0
C16 C 0.64773 0.34999 0.49468 0.0
C17 C 0.65607 0.26401 0.4901 0.0
C18 C 0.70163 0.32838 0.4536 0.0
O19 O 0.63816 0.34452 0.47418 0.0
O20 O 0.66173 0.33393 0.50348 0.0
O21 O 0.69708 0.32569 0.4763 0.0
O22 O 0.6857 0.31943 0.43941 0.0
C23 C 0.62977 0.30321 0.43036 0.0
O24 O 0.67359 0.27086 0.47666 0.0
O25 O 0.64094 0.28046 0.495 0.0
In26 In 0.95098 0.89192 0.67538 0.0
O27 O 0.9341 0.88381 0.71305 0.0
O28 O 0.93274 0.92017 0.69895 0.0
C29 C 0.96918 0.85318 0.65258 0.0
C30 C 0.90953 0.89028 0.64933 0.0
C31 C 0.99468 0.91382 0.6776 0.0
O32 O 0.96169 0.85168 0.67475 0.0
O33 O 0.96739 0.87388 0.64261 0.0
O34 O 0.97799 0.92113 0.66312 0.0
O35 O 0.98838 0.89698 0.69237 0.0
C36 C 0.92576 0.90519 0.71534 0.0
O37 O 0.92536 0.90685 0.64517 0.0
O38 O 0.91517 0.87505 0.66579 0.0
In39 In 0.36495 0.04743 0.91603 0.0
O40 O 0.39825 0.07066 0.90484 0.0
O41 O 0.36438 0.07412 0.88509 0.0
C42 C 0.36711 0.01139 0.94896 0.0
C43 C 0.34077 0.08179 0.93999 0.0
C44 C 0.36602 0.01612 0.87892 0.0
O45 O 0.38565 0.02484 0.94452 0.0
O46 O 0.34755 0.01748 0.93807 0.0
O47 O 0.34646 0.02737 0.8842 0.0
O48 O 0.3843 0.02065 0.89257 0.0
C49 C 0.38635 0.08099 0.88752 0.0
O50 O 0.33035 0.0683 0.92401 0.0
O51 O 0.36269 0.07637 0.94513 0.0
In52 In 0.05826 0.39069 0.82504 0.0
O53 O 0.04597 0.3507 0.82563 0.0
O54 O 0.04066 0.37303 0.8576 0.0
C55 C 0.08477 0.4036 0.78567 0.0
C56 C 0.01544 0.41342 0.82217 0.0
C57 C 0.09915 0.38799 0.85165 0.0
O58 O 0.07528 0.38251 0.78755 0.0
O59 O 0.07827 0.41859 0.80211 0.0
O60 O 0.08398 0.40498 0.85554 0.0
O61 O 0.0931 0.37285 0.83522 0.0
C62 C 0.03818 0.3524 0.84767 0.0
O63 O 0.03207 0.42024 0.83707 0.0
O64 O 0.02151 0.39676 0.80727 0.0
In65 In 0.82836 0.44316 0.09459 0.0
O66 O 0.80751 0.46015 0.12694 0.0
O67 O 0.84466 0.47082 0.11959 0.0
C68 C 0.80519 0.40892 0.06844 0.0
C69 C 0.83251 0.48044 0.06304 0.0
C70 C 0.85347 0.41044 0.12079 0.0
O71 O 0.79439 0.42048 0.0855 0.0
O72 O 0.82668 0.41616 0.06363 0.0
O73 O 0.86382 0.42302 0.10399 0.0
O74 O 0.83104 0.41463 0.12392 0.0
C75 C 0.82589 0.47318 0.13289 0.0
O76 O 0.85041 0.46655 0.06773 0.0
O77 O 0.81239 0.47427 0.07291 0.0
In78 In 0.79578 0.0358 0.28675 0.0
O79 O 0.79833 0.07054 0.31045 0.0
O80 O 0.82536 0.04324 0.31484 0.0
C81 C 0.75426 0.05098 0.26476 0.0
C82 C 0.83134 0.02904 0.25271 0.0
C83 C 0.77627 0.00147 0.31737 0.0
O84 O 0.76514 0.06367 0.28098 0.0
O85 O 0.76519 0.03166 0.25878 0.0
O86 O 0.76619 0.00789 0.29757 0.0
O87 O 0.7972 0.01051 0.32043 0.0
C88 C 0.81726 0.06348 0.32182 0.0
O89 O 0.82188 0.01169 0.26479 0.0
O90 O 0.82185 0.04949 0.25674 0.0
In91 In 0.14992 0.19396 0.53221 0.0
O92 O 0.18731 0.17561 0.52832 0.0
O93 O 0.17299 0.18052 0.56428 0.0
C94 C 0.15157 0.2402 0.51479 0.0
C95 C 0.13847 0.15623 0.50223 0.0
C96 C 0.11944 0.19953 0.5706 0.0
O97 O 0.16897 0.23048 0.52633 0.0
O98 O 0.13392 0.22601 0.51027 0.0
O99 O 0.11233 0.19063 0.55025 0.0
O100 O 0.14167 0.20571 0.57129 0.0
C101 C 0.18974 0.17181 0.55117 0.0
O102 O 0.12777 0.1598 0.52254 0.0
O103 O 0.1536 0.17269 0.49622 0.0
In104 In 0.1523 0.9514 0.39688 0.0
O105 O 0.18577 0.92969 0.408 0.0
O106 O 0.15254 0.92418 0.42812 0.0
C107 C 0.15975 0.97682 0.35558 0.0
C108 C 0.12527 0.91892 0.37169 0.0
C109 C 0.14884 0.99018 0.42665 0.0
O110 O 0.17601 0.96261 0.36387 0.0
O111 O 0.14075 0.97858 0.36862 0.0
O112 O 0.1305 0.97661 0.42206 0.0
O113 O 0.16883 0.9832 0.41739 0.0
C114 C 0.17434 0.91763 0.42439 0.0
O115 O 0.11527 0.93362 0.38665 0.0
O116 O 0.14818 0.92077 0.37013 0.0
In117 In 0.30304 0.44341 0.72407 0.0
O118 O 0.27777 0.47619 0.71964 0.0
O119 O 0.30959 0.47557 0.69787 0.0
C120 C 0.33619 0.4368 0.76067 0.0
C121 C 0.25819 0.42779 0.7377 0.0
C122 C 0.32283 0.42317 0.68356 0.0
O123 O 0.32911 0.45767 0.75418 0.0
O124 O 0.32566 0.41952 0.74964 0.0
O125 O 0.30353 0.41475 0.69336 0.0
O126 O 0.33215 0.44119 0.69456 0.0
C127 C 0.28957 0.48578 0.7022 0.0
O128 O 0.26992 0.41773 0.72041 0.0
O129 O 0.26973 0.44453 0.74881 0.0
In130 In 0.83881 0.68884 0.96722 0.0
O131 O 0.87633 0.68585 0.94925 0.0
O132 O 0.84708 0.70053 0.92802 0.0
C133 C 0.84887 0.64952 0.99535 0.0
C134 C 0.83989 0.73439 0.98615 0.0
C135 C 0.79782 0.66782 0.94904 0.0
O136 O 0.85923 0.65347 0.97489 0.0
O137 O 0.83495 0.66636 0.00247 0.0
O138 O 0.80098 0.67119 0.97187 0.0
O139 O 0.81425 0.67694 0.93558 0.0
C140 C 0.8693 0.69465 0.92884 0.0
O141 O 0.82217 0.72616 0.97375 0.0
O142 O 0.85628 0.71904 0.99071 0.0
In143 In 0.55876 0.09007 0.15903 0.0
O144 O 0.57632 0.09792 0.19652 0.0
O145 O 0.57951 0.06221 0.1812 0.0
C146 C 0.53985 0.12869 0.13618 0.0
C147 C 0.59962 0.09359 0.13254 0.0
C148 C 0.51551 0.06736 0.16356 0.0
O149 O 0.54709 0.12999 0.15848 0.0
O150 O 0.54195 0.10808 0.12612 0.0
O151 O 0.53156 0.06017 0.14833 0.0
O152 O 0.52225 0.08461 0.17758 0.0
C153 C 0.586 0.07701 0.19794 0.0
O154 O 0.58427 0.07661 0.12816 0.0
O155 O 0.59375 0.10825 0.1494 0.0
In156 In 0.54363 0.2951 0.97803 0.0
O157 O 0.58422 0.29977 0.96874 0.0
O158 O 0.56723 0.26546 0.9618 0.0
C159 C 0.53501 0.33094 0.01087 0.0
C160 C 0.52278 0.30364 0.93359 0.0
C161 C 0.53534 0.26084 0.01263 0.0
O162 O 0.55602 0.32671 0.00227 0.0
O163 O 0.51796 0.31905 1.00062 0.0
O164 O 0.52137 0.26302 0.99408 0.0
O165 O 0.55342 0.27515 0.01292 0.0
C166 C 0.58647 0.27822 0.96091 0.0
O167 O 0.51449 0.28788 0.94851 0.0
O168 O 0.54036 0.31622 0.94189 0.0
In169 In 0.01301 0.78139 0.22002 0.0
O170 O 0.98305 0.76471 0.24461 0.0
O171 O 0.01833 0.74928 0.24643 0.0
C172 C 0.98348 0.81134 0.19372 0.0
C173 C 0.03927 0.8118 0.24899 0.0
C174 C 0.03465 0.7625 0.17954 0.0
O175 O 0.98842 0.79012 0.18666 0.0
O176 O 0.99142 0.81637 0.21493 0.0
O177 O 0.04337 0.78089 0.19067 0.0
O178 O 0.01619 0.75294 0.18985 0.0
C179 C 0.997 0.74967 0.25508 0.0
O180 O 0.04939 0.79467 0.23727 0.0
O181 O 0.01668 0.81375 0.24523 0.0
In182 In 0.40371 0.3395 0.48242 0.0
O183 O 0.36673 0.32456 0.46952 0.0
O184 O 0.37604 0.36182 0.46222 0.0
C185 C 0.42627 0.30817 0.51287 0.0
C186 C 0.42932 0.3447 0.4403 0.0
C187 C 0.38777 0.36451 0.52154 0.0
O188 O 0.40738 0.3021 0.50064 0.0
O189 O 0.43509 0.32883 0.50741 0.0
O190 O 0.40625 0.37203 0.50939 0.0
O191 O 0.37794 0.34528 0.5135 0.0
C192 C 0.36018 0.34504 0.46088 0.0
O193 O 0.42839 0.36141 0.45644 0.0
O194 O 0.41895 0.3249 0.44644 0.0
In195 In 0.98138 0.63597 0.73877 0.0
O196 O 0.97368 0.59491 0.73897 0.0
O197 O 0.94418 0.619 0.73197 0.0
C198 C 0.02233 0.64077 0.76612 0.0
C199 C 0.98714 0.64691 0.69037 0.0
C200 C 0.95809 0.65828 0.77568 0.0
O201 O 0.01324 0.62019 0.76074 0.0
O202 O 0.01285 0.65843 0.75468 0.0
O203 O 0.96084 0.66881 0.755 0.0
O204 O 0.96578 0.63677 0.77679 0.0
C205 C 0.95105 0.59733 0.73482 0.0
O206 O 0.97274 0.65825 0.70441 0.0
O207 O 3e-05 0.63107 0.70111 0.0
In208 In 0.10733 0.67843 0.98068 0.0
O209 O 0.10418 0.64594 0.00755 0.0
O210 O 0.13053 0.67419 0.01419 0.0
C211 C 0.08265 0.67373 0.93793 0.0
C212 C 0.08305 0.70975 0.00942 0.0
C213 C 0.15088 0.67046 0.96028 0.0
O214 O 0.08253 0.65723 0.95439 0.0
O215 O 0.09374 0.69319 0.94394 0.0
O216 O 0.14533 0.6914 0.96844 0.0
O217 O 0.13428 0.65444 0.96189 0.0
C218 C 0.12094 0.6545 0.02145 0.0
O219 O 0.10273 0.7159 0.99855 0.0
O220 O 0.07459 0.6891 0.00334 0.0
In221 In 0.48709 0.88206 0.2662 0.0
O222 O 0.46794 0.91895 0.26655 0.0
O223 O 0.44657 0.88716 0.27346 0.0
C224 C 0.52498 0.89004 0.23509 0.0
C225 C 0.50251 0.87568 0.31341 0.0
C226 C 0.46905 0.84907 0.23442 0.0
O227 O 0.50876 0.90584 0.23901 0.0
O228 O 0.52393 0.87198 0.24953 0.0
O229 O 0.47081 0.84404 0.2572 0.0
O230 O 0.47508 0.87042 0.22855 0.0
C231 C 0.44703 0.90999 0.27088 0.0
O232 O 0.49792 0.85812 0.29907 0.0
O233 O 0.50032 0.89645 0.30367 0.0
In234 In 0.47351 0.22635 0.72679 0.0
O235 O 0.50627 0.2019 0.71797 0.0
O236 O 0.47166 0.19457 0.70104 0.0
C237 C 0.48589 0.26036 0.76029 0.0
C238 C 0.46174 0.25031 0.68498 0.0
C239 C 0.4522 0.19749 0.76073 0.0
O240 O 0.50191 0.2486 0.74842 0.0
O241 O 0.46408 0.25627 0.75366 0.0
O242 O 0.4395 0.21006 0.74582 0.0
O243 O 0.47501 0.19954 0.75807 0.0
C244 C 0.49365 0.18838 0.70378 0.0
O245 O 0.44585 0.23931 0.69798 0.0
O246 O 0.48308 0.25056 0.69405 0.0
In247 In 0.52849 0.37468 0.2392 0.0
O248 O 0.49976 0.39428 0.26228 0.0
O249 O 0.49455 0.35652 0.2554 0.0
C250 C 0.56268 0.40981 0.23359 0.0
C251 C 0.54939 0.34934 0.27571 0.0
C252 C 0.52099 0.36284 0.19132 0.0
O253 O 0.54044 0.41485 0.23723 0.0
O254 O 0.5672 0.38739 0.23228 0.0
O255 O 0.53454 0.35078 0.20565 0.0
O256 O 0.50974 0.38015 0.20153 0.0
C257 C 0.488 0.37502 0.26748 0.0
O258 O 0.54495 0.33943 0.25506 0.0
O259 O 0.54461 0.37168 0.27701 0.0
In260 In 0.20923 0.9801 0.65845 0.0
O261 O 0.21181 0.00255 0.62309 0.0
O262 O 0.22557 0.01822 0.65631 0.0
C263 C 0.17197 0.9491 0.64956 0.0
C264 C 0.25207 0.95609 0.65691 0.0
C265 C 0.18275 -0.00023 0.6949 0.0
O266 O 0.17783 0.96596 0.63473 0.0
O267 O 0.18681 0.94609 0.6672 0.0
O268 O 0.20376 0.99118 0.69931 0.0
O269 O 0.17628 -0.0006 0.67258 0.0
C270 C 0.22183 0.02067 0.63343 0.0
O271 O 0.24302 0.9636 0.67698 0.0
O272 O 0.23893 0.95962 0.6381 0.0
In273 In 0.83592 0.95394 0.993 0.0
O274 O 0.85476 0.92385 0.972 0.0
O275 O 0.86002 0.92482 0.01082 0.0
C276 C 0.81527 0.97594 0.95363 0.0
C277 C 0.79834 0.92961 0.01354 0.0
C278 C 0.85868 0.99396 0.0106 0.0
O279 O 0.83571 0.96552 0.95251 0.0
O280 O 0.80504 0.97489 0.97447 0.0
O281 O 0.84107 0.98381 0.02171 0.0
O282 O 0.86623 0.98254 0.99195 0.0
C283 C 0.86292 0.91321 0.99093 0.0
O284 O 0.81006 0.94577 0.02537 0.0
O285 O 0.80492 0.92677 0.99142 0.0
In286 In 0.95064 0.53931 0.30805 0.0
O287 O 0.92912 0.54492 0.34365 0.0
O288 O 0.93063 0.57408 0.31795 0.0
C289 C 0.9673 0.49403 0.31605 0.0
C290 C 0.91542 0.53195 0.27396 0.0
C291 C 0.99497 0.55878 0.29839 0.0
O292 O 0.95891 0.50686 0.33343 0.0
O293 O 0.9668 0.50393 0.29503 0.0
O294 O 0.97913 0.55453 0.282 0.0
O295 O 0.98773 0.55522 0.32028 0.0
C296 C 0.9213 0.56564 0.3375 0.0
O297 O 0.93115 0.54877 0.27206 0.0
O298 O 0.91787 0.51849 0.29267 0.0
In299 In 0.23489 0.70406 0.48081 0.0
O300 O 0.22698 0.73303 0.45207 0.0
O301 O 0.20929 0.73583 0.48708 0.0
C302 C 0.26592 0.67369 0.45813 0.0
C303 C 0.26769 0.72798 0.50865 0.0
C304 C 0.19828 0.67174 0.48716 0.0
O305 O 0.2528 0.68855 0.44626 0.0
O306 O 0.26353 0.67443 0.48128 0.0
O307 O 0.21018 0.68027 0.50534 0.0
O308 O 0.20403 0.68064 0.46646 0.0
C309 C 0.21339 0.74532 0.46616 0.0
O310 O 0.25391 0.71179 0.5181 0.0
O311 O 0.26484 0.73149 0.48584 0.0
In312 In 0.04418 0.006 0.16351 0.0
O313 O 0.0149 0.00178 0.19257 0.0
O314 O 0.00793 0.02707 0.16356 0.0
C315 C 0.07503 0.00257 0.20207 0.0
C316 C 0.02827 0.96534 0.14093 0.0
C317 C 0.07536 0.03368 0.13653 0.0
O318 O 0.06189 0.02094 0.19825 0.0
O319 O 0.07174 0.98524 0.18711 0.0
O320 O 0.07141 0.01149 0.13202 0.0
O321 O 0.06092 0.04263 0.15215 0.0
C322 C 8e-05 0.01645 0.18282 0.0
O323 O 0.01866 0.98583 0.13698 0.0
O324 O 0.04678 0.96575 0.1549 0.0
In325 In 0.73261 0.81023 0.52441 0.0
O326 O 0.70404 0.83425 0.50505 0.0
O327 O 0.70255 0.83107 0.54398 0.0
C328 C 0.75764 0.79755 0.48329 0.0
C329 C 0.76635 0.83352 0.5521 0.0
C330 C 0.72266 0.76461 0.53996 0.0
O331 O 0.74012 0.78509 0.49165 0.0
O332 O 0.76104 0.81746 0.49431 0.0
O333 O 0.74131 0.77632 0.54715 0.0
O334 O 0.7085 0.77639 0.52594 0.0
C335 C 0.69388 0.84076 0.52486 0.0
O336 O 0.75269 0.81694 0.5608 0.0
O337 O 0.76295 0.83823 0.52956 0.0
In338 In 0.80017 0.47389 0.84656 0.0
O339 O 0.80622 0.48466 0.8057 0.0
O340 O 0.83149 0.49671 0.8333 0.0
C341 C 0.75908 0.44665 0.84831 0.0
C342 C 0.83893 0.44533 0.85482 0.0
C343 C 0.7839 0.5129 0.8714 0.0
O344 O 0.76663 0.45628 0.82844 0.0
O345 O 0.77298 0.44968 0.86669 0.0
O346 O 0.79561 0.49601 0.88187 0.0
O347 O 0.78053 0.51008 0.84851 0.0
C348 C 0.82604 0.49574 0.81071 0.0
O349 O 0.83255 0.46171 0.86983 0.0
O350 O 0.82403 0.44155 0.83735 0.0
In351 In 0.33444 0.54499 0.99247 0.0
O352 O 0.33443 0.53423 0.03304 0.0
O353 O 0.30276 0.52564 0.01189 0.0
C354 C 0.36841 0.58065 0.99391 0.0
C355 C 0.35075 0.50319 0.97264 0.0
C356 C 0.29924 0.57552 0.97728 0.0
O357 O 0.36143 0.56906 0.01279 0.0
O358 O 0.36009 0.57249 0.97375 0.0
O359 O 0.30739 0.559 0.9633 0.0
O360 O 0.30823 0.57583 0.99874 0.0
C361 C 0.3134 0.52465 0.03255 0.0
O362 O 0.33359 0.51521 0.96301 0.0
O363 O 0.36096 0.51344 0.99076 0.0
In364 In 0.2724 0.29764 0.9721 0.0
O365 O 0.25436 0.29599 0.01066 0.0
O366 O 0.24459 0.26969 0.98336 0.0
C367 C 0.30809 0.33161 0.97276 0.0
C368 C 0.29448 0.25546 0.96195 0.0
C369 C 0.23941 0.32254 0.94544 0.0
O370 O 0.29723 0.32499 0.99234 0.0
O371 O 0.30183 0.3201 0.95363 0.0
O372 O 0.25304 0.30662 0.93597 0.0
O373 O 0.24229 0.32567 0.96832 0.0
C374 C 0.24164 0.27743 0.00501 0.0
O375 O 0.28015 0.26579 0.94695 0.0
O376 O 0.29897 0.2673 0.9815 0.0
In377 In 0.29229 0.0094 0.15859 0.0
O378 O 0.25726 0.0273 0.17299 0.0
O379 O 0.26623 0.03253 0.13534 0.0
C380 C 0.3076 0.99519 0.20381 0.0
C381 C 0.28021 0.96946 0.13258 0.0
C382 C 0.3372 0.02685 0.14663 0.0
O383 O 0.30827 0.01714 0.19692 0.0
O384 O 0.29727 0.98094 0.18877 0.0
O385 O 0.32991 0.00582 0.14074 0.0
O386 O 0.32114 0.03984 0.15677 0.0
C387 C 0.25098 0.03594 0.15236 0.0
O388 O 0.29132 0.98739 0.12298 0.0
O389 O 0.2752 0.97179 0.15522 0.0
In390 In 0.66104 0.0473 0.50427 0.0
O391 O 0.63902 0.07494 0.48273 0.0
O392 O 0.63645 0.07598 0.52181 0.0
C393 C 0.68302 0.02517 0.46591 0.0
C394 C 0.69786 0.07456 0.52228 0.0
C395 C 0.6407 0.0067 0.52354 0.0
O396 O 0.66255 0.03547 0.46388 0.0
O397 O 0.6925 0.02641 0.48713 0.0
O398 O 0.6574 0.0185 0.53443 0.0
O399 O 0.63268 0.01677 0.50423 0.0
C400 C 0.6316 0.08625 0.50151 0.0
O401 O 0.68753 0.05831 0.53528 0.0
O402 O 0.69027 0.07611 0.50034 0.0
In403 In 0.54839 0.4606 0.81962 0.0
O404 O 0.55936 0.45402 0.77946 0.0
O405 O 0.58091 0.47849 0.80096 0.0
C406 C 0.50453 0.43794 0.8211 0.0
C407 C 0.58244 0.43608 0.84551 0.0
C408 C 0.53277 0.50667 0.82454 0.0
O409 O 0.51895 0.43609 0.80304 0.0
O410 O 0.51291 0.44988 0.83916 0.0
O411 O 0.54385 0.49571 0.84177 0.0
O412 O 0.52971 0.49438 0.80509 0.0
C413 C 0.57788 0.46788 0.78055 0.0
O414 O 0.57394 0.45614 0.85281 0.0
O415 O 0.57172 0.42731 0.82689 0.0
In416 In 0.53689 0.72353 0.77875 0.0
O417 O 0.56231 0.74036 0.80766 0.0
O418 O 0.52394 0.74607 0.81136 0.0
C419 C 0.5625 0.69917 0.74456 0.0
C420 C 0.52152 0.68277 0.80142 0.0
C421 C 0.51919 0.75467 0.74489 0.0
O422 O 0.57318 0.71307 0.75995 0.0
O423 O 0.53964 0.69772 0.74694 0.0
O424 O 0.50592 0.73859 0.75519 0.0
O425 O 0.54066 0.7564 0.75341 0.0
C426 C 0.54506 0.749 0.82048 0.0
O427 O 0.50704 0.69555 0.78857 0.0
O428 O 0.54303 0.69102 0.80311 0.0
In429 In 0.03451 0.20376 0.02164 0.0
O430 O 0.01352 0.22345 0.05157 0.0
O431 O 0.02205 0.18633 0.05827 0.0
C432 C 0.02919 0.23451 0.98343 0.0
C433 C 0.08046 0.21419 0.03633 0.0
C434 C 0.02125 0.16702 0.99146 0.0
O435 O 0.01333 0.23309 1.00039 0.0
O436 O 0.04779 0.22152 0.98662 0.0
O437 O 0.04244 0.16891 0.00063 0.0
O438 O 0.00589 0.18166 1.00037 0.0
C439 C 0.01327 0.20588 0.06661 0.0
O440 O 0.07355 0.1926 0.03186 0.0
O441 O 0.0642 0.2301 0.03354 0.0
In442 In 0.89544 0.16298 0.5183 0.0
O443 O 0.89842 0.13018 0.49182 0.0
O444 O 0.87044 0.15654 0.48631 0.0
C445 C 0.92086 0.15767 0.56055 0.0
C446 C 0.91863 0.19494 0.48879 0.0
C447 C 0.85193 0.15863 0.5402 0.0
O448 O 0.91938 0.14084 0.54458 0.0
O449 O 0.91115 0.17757 0.5542 0.0
O450 O 0.85902 0.17878 0.53105 0.0
O451 O 0.86706 0.14145 0.53875 0.0
C452 C 0.88049 0.13738 0.47881 0.0
O453 O 0.89933 0.20046 0.50039 0.0
O454 O 0.92744 0.17442 0.49434 0.0
In455 In 0.01841 0.1288 0.76238 0.0
O456 O 0.03473 0.16434 0.74634 0.0
O457 O 0.03466 0.13189 0.72471 0.0
C458 C 0.01044 0.13959 0.81041 0.0
C459 C 0.97799 0.1284 0.73397 0.0
C460 C 0.05197 0.0935 0.7674 0.0
O461 O 0.02508 0.15145 0.79687 0.0
O462 O 0.99852 0.12308 0.79934 0.0
O463 O 0.02962 0.08872 0.76359 0.0
O464 O 0.05699 0.11584 0.76932 0.0
C465 C 0.03923 0.15434 0.72578 0.0
O466 O 0.98939 0.10913 0.73936 0.0
O467 O 0.98487 0.14698 0.74592 0.0
In468 In 0.47827 0.79762 0.52105 0.0
O469 O 0.49597 0.76405 0.5039 0.0
O470 O 0.46476 0.7792 0.48624 0.0
C471 C 0.49777 0.79571 0.56699 0.0
C472 C 0.49745 0.83169 0.49048 0.0
C473 C 0.43109 0.79123 0.534 0.0
O474 O 0.4985 0.77832 0.55186 0.0
O475 O 0.48894 0.81513 0.55831 0.0
O476 O 0.43921 0.81164 0.52673 0.0
O477 O 0.44671 0.77453 0.53474 0.0
C478 C 0.48114 0.76319 0.48597 0.0
O479 O 0.47636 0.83367 0.49975 0.0
O480 O 0.50969 0.81417 0.49896 0.0
In481 In 0.5994 0.84757 0.01884 0.0
O482 O 0.57556 0.8716 0.04338 0.0
O483 O 0.58335 0.83544 0.05548 0.0
C484 C 0.61678 0.87082 0.97889 0.0
C485 C 0.64282 0.85147 0.04114 0.0
C486 C 0.57604 0.81504 0.99006 0.0
O487 O 0.59867 0.87931 0.99071 0.0
O488 O 0.62563 0.85155 0.98768 0.0
O489 O 0.59456 0.80938 0.0029 0.0
O490 O 0.56784 0.83614 0.99409 0.0
C491 C 0.57396 0.85584 0.06049 0.0
O492 O 0.63505 0.83115 0.03304 0.0
O493 O 0.6283 0.86907 0.03861 0.0
In494 In 0.70931 0.51936 0.34808 0.0
O495 O 0.68993 0.52764 0.31168 0.0
O496 O 0.70638 0.493 0.31572 0.0
C497 C 0.74836 0.54986 0.35171 0.0
C498 C 0.66412 0.5324 0.36295 0.0
C499 C 0.72536 0.48009 0.37293 0.0
O500 O 0.74097 0.54138 0.33139 0.0
O501 O 0.73545 0.54388 0.37 0.0
O502 O 0.71423 0.49729 0.38343 0.0
O503 O 0.72836 0.48276 0.34996 0.0
C504 C 0.6933 0.5068 0.30264 0.0
O505 O 0.67201 0.511 0.36511 0.0
O506 O 0.6797 0.54763 0.35512 0.0
In507 In 0.17551 0.45913 0.51409 0.0
O508 O 0.17203 0.4895 0.48551 0.0
O509 O 0.14795 0.48991 0.51624 0.0
C510 C 0.21152 0.43298 0.49361 0.0
C511 C 0.19759 0.47916 0.5538 0.0
C512 C 0.14517 0.42026 0.51514 0.0
O513 O 0.20109 0.44993 0.48188 0.0
O514 O 0.20452 0.43022 0.51563 0.0
O515 O 0.1542 0.42975 0.53432 0.0
O516 O 0.14911 0.43217 0.49556 0.0
C517 C 0.15572 0.50078 0.49724 0.0
O518 O 0.17664 0.46942 0.55486 0.0
O519 O 0.20758 0.47838 0.53282 0.0
In520 In 0.46711 0.96743 0.6816 0.0
O521 O 0.47294 0.00323 0.66069 0.0
O522 O 0.48521 0.00098 0.69797 0.0
C523 C 0.43041 0.9462 0.65585 0.0
C524 C 0.51103 0.94582 0.67717 0.0
C525 C 0.4407 0.97025 0.7233 0.0
O526 O 0.43836 0.96727 0.65088 0.0
O527 O 0.44294 0.93491 0.67164 0.0
O528 O 0.45847 0.95585 0.72117 0.0
O529 O 0.43693 0.98368 0.70479 0.0
C530 C 0.48332 0.01375 0.67867 0.0
O531 O 0.49736 0.94283 0.69568 0.0
O532 O 0.50167 0.95809 0.65988 0.0
In533 In 0.77027 0.18855 0.01037 0.0
O534 O 0.75103 0.18033 0.04688 0.0
O535 O 0.7427 0.158 0.01582 0.0
C536 C 0.7786 0.23432 0.02624 0.0
C537 C 0.81022 0.15972 0.01012 0.0
C538 C 0.74318 0.20088 0.97037 0.0
O539 O 0.76074 0.22167 0.03387 0.0
O540 O 0.79274 0.22345 0.01156 0.0
O541 O 0.76193 0.2127 0.97681 0.0
O542 O 0.7396 0.1817 0.98262 0.0
C543 C 0.73895 0.16251 0.03832 0.0
O544 O 0.79881 0.16498 0.99057 0.0
O545 O 0.80221 0.16995 0.0292 0.0
In546 In 0.96573 0.27896 0.2762 0.0
O547 O 0.99597 0.30636 0.28639 0.0
O548 O 0.96008 0.3113 0.30084 0.0
C549 C 0.9849 0.24825 0.24288 0.0
C550 C 0.95566 0.25386 0.31779 0.0
C551 C 0.93996 0.30349 0.24203 0.0
O552 O 0.99763 0.26428 0.25384 0.0
O553 O 0.96313 0.24632 0.25046 0.0
O554 O 0.92956 0.28875 0.25679 0.0
O555 O 0.9627 0.3057 0.24496 0.0
C556 C 0.98173 0.31918 0.29934 0.0
O557 O 0.93907 0.26273 0.30422 0.0
O558 O 0.97712 0.2562 0.30939 0.0
In559 In 0.95832 0.7066 0.47822 0.0
O560 O 0.98213 0.73454 0.49882 0.0
O561 O 0.94718 0.72502 0.51344 0.0
C562 C 0.97873 0.70703 0.43284 0.0
C563 C 0.96917 0.66944 0.50873 0.0
C564 C 0.91387 0.72141 0.46339 0.0
O565 O 0.98166 0.72394 0.44834 0.0
O566 O 0.96725 0.68863 0.44099 0.0
O567 O 0.91817 0.69923 0.46792 0.0
O568 O 0.9318 0.73562 0.4665 0.0
C569 C 0.96683 0.7368 0.51618 0.0
O570 O 0.94782 0.67297 0.50054 0.0
O571 O 0.9855 0.68231 0.49848 0.0
In572 In 0.71039 0.9511 0.77994 0.0
O573 O 0.68608 0.96746 0.74953 0.0
O574 O 0.68605 0.92911 0.7541 0.0
C575 C 0.72636 0.99189 0.80349 0.0
C576 C 0.6886 0.93023 0.81929 0.0
C577 C 0.75405 0.9343 0.76483 0.0
O578 O 0.73828 0.98164 0.7867 0.0
O579 O 0.70515 0.98336 0.80624 0.0
O580 O 0.74306 0.92526 0.78332 0.0
O581 O 0.74231 0.9506 0.75345 0.0
C582 C 0.67736 0.94716 0.74283 0.0
O583 O 0.70717 0.92091 0.80917 0.0
O584 O 0.68104 0.94944 0.80918 0.0
In585 In 0.36379 0.80156 0.04255 0.0
O586 O 0.38471 0.83765 0.03895 0.0
O587 O 0.36275 0.82619 0.00867 0.0
C588 C 0.39186 0.79574 0.08287 0.0
C589 C 0.32011 0.81982 0.05589 0.0
C590 C 0.36593 0.75664 0.02222 0.0
O591 O 0.40077 0.80184 0.06218 0.0
O592 O 0.36903 0.79253 0.08299 0.0
O593 O 0.34945 0.76302 0.03699 0.0
O594 O 0.38075 0.77334 0.01641 0.0
C595 C 0.37614 0.84265 0.01789 0.0
O596 O 0.32591 0.81682 0.03357 0.0
O597 O 0.33553 0.81198 0.07119 0.0
In598 In 0.4428 0.58699 0.34885 0.0
O599 O 0.45529 0.62679 0.34716 0.0
O600 O 0.46056 0.60642 0.3805 0.0
C601 C 0.41587 0.57473 0.30954 0.0
C602 C 0.48515 0.56327 0.34536 0.0
C603 C 0.40194 0.59092 0.37524 0.0
O604 O 0.42676 0.59515 0.31102 0.0
O605 O 0.42106 0.55972 0.32652 0.0
O606 O 0.41721 0.57429 0.3803 0.0
O607 O 0.40788 0.60509 0.35789 0.0
C608 C 0.463 0.62647 0.36929 0.0
O609 O 0.46888 0.55686 0.36082 0.0
O610 O 0.47895 0.58006 0.33063 0.0
In611 In 0.66415 0.55489 0.59525 0.0
O612 O 0.64271 0.53311 0.56672 0.0
O613 O 0.68023 0.52402 0.57351 0.0
C614 C 0.64088 0.58841 0.62184 0.0
C615 C 0.66199 0.52334 0.6323 0.0
C616 C 0.68943 0.58896 0.57107 0.0
O617 O 0.63016 0.57743 0.60414 0.0
O618 O 0.66275 0.58222 0.62569 0.0
O619 O 0.6992 0.57649 0.58821 0.0
O620 O 0.6679 0.58264 0.56516 0.0
C621 C 0.66039 0.5188 0.5625 0.0
O622 O 0.68176 0.53487 0.62776 0.0
O623 O 0.64414 0.52793 0.61822 0.0
H624 H 0.26648 0.50766 0.03772 0.0
H625 H 0.27742 0.51299 0.18283 0.0
H626 H 0.33388 0.51793 0.07794 0.0
H627 H 0.20916 0.5021 0.14463 0.0
H628 H 0.29937 0.50311 0.14505 0.0
H629 H 0.24633 0.49551 0.07623 0.0
C630 C 0.27711 0.50703 0.0546 0.0
C631 C 0.30174 0.51432 0.0548 0.0
C632 C 0.2796 0.50216 0.14496 0.0
C633 C 0.27889 0.5004 0.09879 0.0
C634 C 0.26711 0.50752 0.16663 0.0
C635 C 0.24157 0.50834 0.16665 0.0
C636 C 0.26638 0.49842 0.12301 0.0
C637 C 0.22893 0.50147 0.14524 0.0
C638 C 0.26563 0.50002 0.07655 0.0
C639 C 0.31474 0.51289 0.07706 0.0
N640 N 0.24148 0.49742 0.12399 0.0
N641 N 0.30308 0.50641 0.0982 0.0
H642 H 0.72291 0.36577 0.47909 0.0
H643 H 0.74281 0.43798 0.35308 0.0
H644 H 0.71927 0.33316 0.40676 0.0
H645 H 0.72403 0.47114 0.42264 0.0
H646 H 0.74852 0.39913 0.37443 0.0
H647 H 0.73869 0.40327 0.46038 0.0
C648 C 0.72639 0.36614 0.45939 0.0
C649 C 0.71935 0.34654 0.44434 0.0
C650 C 0.74359 0.41502 0.38506 0.0
C651 C 0.73692 0.38939 0.42287 0.0
C652 C 0.7403 0.43718 0.37291 0.0
C653 C 0.73245 0.45766 0.38607 0.0
C654 C 0.73908 0.41338 0.41054 0.0
C655 C 0.72969 0.45567 0.41175 0.0
C656 C 0.73512 0.38765 0.4487 0.0
C657 C 0.72415 0.34804 0.41894 0.0
N658 N 0.73271 0.43383 0.42312 0.0
N659 N 0.73219 0.3693 0.40891 0.0
H660 H 0.86847 0.86915 0.66676 0.0
H661 H 0.80023 0.86699 0.53637 0.0
H662 H 0.89732 0.90546 0.60227 0.0
H663 H 0.77574 0.82834 0.60134 0.0
H664 H 0.83318 0.88552 0.56077 0.0
H665 H 0.8315 0.85912 0.64397 0.0
C666 C 0.86687 0.87521 0.64776 0.0
C667 C 0.88605 0.88786 0.63622 0.0
C668 C 0.82048 0.87314 0.56971 0.0
C669 C 0.84378 0.87608 0.60979 0.0
C670 C 0.80169 0.86254 0.55582 0.0
C671 C 0.78538 0.84594 0.56685 0.0
C672 C 0.82289 0.8671 0.59479 0.0
C673 C 0.78802 0.84089 0.59207 0.0
C674 C 0.84574 0.86944 0.63473 0.0
C675 C 0.88291 0.8956 0.61175 0.0
N676 N 0.80649 0.85133 0.60513 0.0
N677 N 0.86224 0.88927 0.59915 0.0
H678 H 0.44651 0.9454 0.76669 0.0
H679 H 0.34185 0.02014 0.83483 0.0
H680 H 0.39983 0.99744 0.73043 0.0
H681 H 0.39791 0.97936 0.87219 0.0
H682 H 0.35565 0.0032 0.79536 0.0
H683 H 0.42222 0.94969 0.80431 0.0
C684 C 0.43106 0.95761 0.76662 0.0
C685 C 0.42543 0.97144 0.74563 0.0
C686 C 0.36455 0.99755 0.81228 0.0
C687 C 0.39752 0.97633 0.78842 0.0
C688 C 0.35652 0.00702 0.83477 0.0
C689 C 0.36905 0.00135 0.85659 0.0
C690 C 0.3851 0.98233 0.81185 0.0
C691 C 0.38804 0.98441 0.85562 0.0
C692 C 0.41716 0.95999 0.78804 0.0
C693 C 0.40503 0.98674 0.74639 0.0
N694 N 0.39572 0.97574 0.83357 0.0
N695 N 0.39193 0.98896 0.76753 0.0
H696 H 0.23268 0.32203 0.89557 0.0
H697 H 0.11113 0.40204 0.89909 0.0
H698 H 0.205 0.35426 0.96246 0.0
H699 H 0.13976 0.36677 0.83429 0.0
H700 H 0.14809 0.38997 0.92196 0.0
H701 H 0.20126 0.34314 0.87209 0.0
C702 C 0.22 0.33363 0.9053 0.0
C703 C 0.22124 0.3362 0.93099 0.0
C704 C 0.14636 0.38519 0.90264 0.0
C705 C 0.18508 0.36041 0.90429 0.0
C706 C 0.12539 0.3922 0.88962 0.0
C707 C 0.12236 0.38504 0.86498 0.0
C708 C 0.16423 0.37114 0.89073 0.0
C709 C 0.14125 0.37228 0.85344 0.0
C710 C 0.20207 0.34575 0.8919 0.0
C711 C 0.20452 0.35166 0.94265 0.0
N712 N 0.16124 0.36559 0.86645 0.0
N713 N 0.18694 0.36304 0.92923 0.0
H714 H 0.81101 0.46155 0.17964 0.0
H715 H 0.90588 0.55898 0.23274 0.0
H716 H 0.84585 0.51797 0.13665 0.0
H717 H 0.88034 0.49623 0.2735 0.0
H718 H 0.87558 0.55027 0.20073 0.0
H719 H 0.82696 0.48063 0.21745 0.0
C720 C 0.82114 0.47852 0.1783 0.0
C721 C 0.82735 0.48822 0.15519 0.0
C722 C 0.87641 0.53854 0.2168 0.0
C723 C 0.84605 0.50967 0.19788 0.0
C724 C 0.89377 0.54346 0.23502 0.0
C725 C 0.89592 0.52801 0.25552 0.0
C726 C 0.86119 0.51793 0.21901 0.0
C727 C 0.87952 0.50837 0.25776 0.0
C728 C 0.83051 0.48922 0.19978 0.0
C729 C 0.84085 0.50994 0.15424 0.0
N730 N 0.86303 0.5037 0.23955 0.0
N731 N 0.85007 0.51975 0.17526 0.0
H732 H 0.72829 0.00455 0.46534 0.0
H733 H 0.72738 0.99101 0.31896 0.0
H734 H 0.66583 0.01867 0.41888 0.0
H735 H 0.7927 0.99022 0.36368 0.0
H736 H 0.70276 0.98884 0.35651 0.0
H737 H 0.74996 0.98845 0.42951 0.0
C738 C 0.71905 0.00404 0.44763 0.0
C739 C 0.69539 0.01336 0.44495 0.0
C740 C 0.72249 0.98855 0.35809 0.0
C741 C 0.72003 0.99485 0.40395 0.0
C742 C 0.73658 0.98953 0.33663 0.0
C743 C 0.76212 0.99135 0.33825 0.0
C744 C 0.73407 0.9894 0.38124 0.0
C745 C 0.77303 0.98924 0.36162 0.0
C746 C 0.73141 0.99479 0.42722 0.0
C747 C 0.68419 0.012 0.42167 0.0
N748 N 0.75893 0.98889 0.38226 0.0
N749 N 0.69671 0.00317 0.402 0.0
H750 H 0.21269 0.1351 0.5267 0.0
H751 H 0.23575 0.06431 0.65321 0.0
H752 H 0.20443 0.16685 0.59898 0.0
H753 H 0.21929 0.02943 0.58374 0.0
H754 H 0.23809 0.10354 0.63184 0.0
H755 H 0.22962 0.09852 0.54593 0.0
C756 C 0.21529 0.13474 0.54654 0.0
C757 C 0.20684 0.15381 0.56136 0.0
C758 C 0.23438 0.08723 0.62123 0.0
C759 C 0.22582 0.11209 0.58337 0.0
C760 C 0.23304 0.06485 0.63339 0.0
C761 C 0.22686 0.04369 0.62026 0.0
C762 C 0.22965 0.0884 0.59577 0.0
C763 C 0.22372 0.04539 0.59459 0.0
C764 C 0.22471 0.11377 0.5575 0.0
C765 C 0.21047 0.15237 0.58696 0.0
N766 N 0.22488 0.06743 0.5832 0.0
N767 N 0.21935 0.13167 0.59722 0.0
H768 H 0.02267 0.14637 0.67985 0.0
H769 H 0.13101 0.21815 0.61591 0.0
H770 H 0.07247 0.19205 0.72097 0.0
H771 H 0.07274 0.18237 0.57593 0.0
H772 H 0.1077 0.2133 0.65411 0.0
H773 H 0.03814 0.16365 0.64151 0.0
C774 C 0.03683 0.16026 0.68071 0.0
C775 C 0.04669 0.16757 0.70343 0.0
C776 C 0.09982 0.20689 0.63693 0.0
C777 C 0.0648 0.18723 0.65958 0.0
C778 C 0.11312 0.20961 0.61512 0.0
C779 C 0.10392 0.20027 0.59281 0.0
C780 C 0.0773 0.19453 0.63643 0.0
C781 C 0.08061 0.18959 0.59278 0.0
C782 C 0.04559 0.1702 0.65883 0.0
C783 C 0.06459 0.18589 0.7037 0.0
N784 N 0.06826 0.1867 0.61432 0.0
N785 N 0.07348 0.19482 0.68197 0.0
H786 H 0.0551 0.23098 0.94092 0.0
H787 H 0.00596 0.35381 0.88547 0.0
H788 H 0.99612 0.27084 0.9743 0.0
H789 H 0.0508 0.3044 0.84394 0.0
H790 H 0.99879 0.32202 0.91618 0.0
H791 H 0.05147 0.25604 0.90395 0.0
C792 C 0.04134 0.24504 0.94044 0.0
C793 C 0.02615 0.24917 0.96084 0.0
C794 C 0.00978 0.31789 0.90013 0.0
C795 C 0.02186 0.27791 0.91849 0.0
C796 C 0.01384 0.33601 0.88258 0.0
C797 C 0.02919 0.33169 0.86236 0.0
C798 C 0.02161 0.29547 0.8977 0.0
C799 C 0.03887 0.30839 0.85933 0.0
C800 C 0.03914 0.2592 0.91922 0.0
C801 C 0.00835 0.26728 0.95905 0.0
N802 N 0.03534 0.29123 0.87714 0.0
N803 N 0.00691 0.28125 0.93833 0.0
H804 H 0.83294 0.3788 0.15346 0.0
H805 H 0.9604 0.33252 0.2069 0.0
H806 H 0.90279 0.40136 0.12406 0.0
H807 H 0.89052 0.30622 0.23294 0.0
H808 H 0.93965 0.35673 0.17565 0.0
H809 H 0.85365 0.35107 0.18154 0.0
C810 C 0.85269 0.37783 0.15283 0.0
C811 C 0.86621 0.39254 0.13649 0.0
C812 C 0.9288 0.34562 0.18809 0.0
C813 C 0.89007 0.36079 0.16879 0.0
C814 C 0.94063 0.3318 0.20601 0.0
C815 C 0.92712 0.31742 0.22266 0.0
C816 C 0.90322 0.34523 0.1868 0.0
C817 C 0.90161 0.3171 0.22053 0.0
C818 C 0.86449 0.36195 0.16889 0.0
C819 C 0.8917 0.39039 0.1364 0.0
N820 N 0.89045 0.33092 0.20298 0.0
N821 N 0.90284 0.37492 0.15245 0.0
H822 H 0.89996 0.09793 0.45434 0.0
H823 H 0.80107 0.10489 0.34467 0.0
H824 H 0.84175 0.15039 0.45062 0.0
H825 H 0.85767 0.05073 0.34814 0.0
H826 H 0.81717 0.12297 0.3827 0.0
H827 H 0.88571 0.08075 0.4149 0.0
C828 C 0.88416 0.10572 0.44532 0.0
C829 C 0.87202 0.12555 0.45579 0.0
C830 C 0.82616 0.1072 0.37508 0.0
C831 C 0.85577 0.10629 0.41076 0.0
C832 C 0.81702 0.09697 0.35329 0.0
C833 C 0.828 0.07628 0.34328 0.0
C834 C 0.8464 0.09661 0.38693 0.0
C835 C 0.8486 0.06668 0.35527 0.0
C836 C 0.87608 0.09602 0.42279 0.0
C837 C 0.8517 0.13507 0.44326 0.0
N838 N 0.85706 0.07684 0.37651 0.0
N839 N 0.84427 0.12539 0.42147 0.0
H840 H 0.1445 0.88202 0.34504 0.0
H841 H 0.01966 0.84843 0.27608 0.0
H842 H 0.07582 0.9163 0.3618 0.0
H843 H 0.08757 0.81114 0.26325 0.0
H844 H 0.03977 0.87341 0.30735 0.0
H845 H 0.12373 0.85559 0.31562 0.0
C846 C 0.12494 0.88388 0.34265 0.0
C847 C 0.11186 0.90148 0.35584 0.0
C848 C 0.05032 0.8598 0.29772 0.0
C849 C 0.08793 0.87126 0.32185 0.0
C850 C 0.03888 0.84556 0.27976 0.0
C851 C 0.05201 0.82769 0.26696 0.0
C852 C 0.07513 0.85624 0.30297 0.0
C853 C 0.07681 0.82476 0.2726 0.0
C854 C 0.1131 0.86876 0.32578 0.0
C855 C 0.08657 0.90295 0.35204 0.0
N856 N 0.08757 0.83891 0.29019 0.0
N857 N 0.07543 0.88813 0.33524 0.0
H858 H 0.4089 0.40034 0.5506 0.0
H859 H 0.30455 0.38705 0.65401 0.0
H860 H 0.34513 0.35404 0.54441 0.0
H861 H 0.36392 0.43889 0.6596 0.0
H862 H 0.32035 0.3741 0.61401 0.0
H863 H 0.39344 0.41505 0.59056 0.0
C864 C 0.39159 0.3935 0.5575 0.0
C865 C 0.37835 0.37589 0.54426 0.0
C866 C 0.32998 0.3883 0.62397 0.0
C867 C 0.36077 0.39225 0.58976 0.0
C868 C 0.321 0.39559 0.64687 0.0
C869 C 0.33294 0.41403 0.66011 0.0
C870 C 0.35109 0.3995 0.61423 0.0
C871 C 0.35416 0.42457 0.64995 0.0
C872 C 0.38284 0.40176 0.58031 0.0
C873 C 0.35608 0.3675 0.55405 0.0
N874 N 0.36256 0.41717 0.62759 0.0
N875 N 0.34809 0.37565 0.57618 0.0
H876 H 0.97328 0.65081 0.82222 0.0
H877 H 0.85776 0.71227 0.88309 0.0
H878 H 0.92139 0.6922 0.77971 0.0
H879 H 0.91668 0.68004 0.92454 0.0
H880 H 0.88234 0.70933 0.84552 0.0
H881 H 0.95482 0.66553 0.86009 0.0
C882 C 0.958 0.6632 0.82094 0.0
C883 C 0.9485 0.67004 0.79794 0.0
C884 C 0.89003 0.70324 0.86289 0.0
C885 C 0.92699 0.68677 0.84127 0.0
C886 C 0.87601 0.70487 0.88433 0.0
C887 C 0.88511 0.69603 0.90687 0.0
C888 C 0.9132 0.69253 0.86402 0.0
C889 C 0.90888 0.68682 0.9075 0.0
C890 C 0.94752 0.67169 0.84258 0.0
C891 C 0.92906 0.68645 0.79719 0.0
N892 N 0.92198 0.68504 0.88633 0.0
N893 N 0.91858 0.69396 0.81866 0.0
H894 H 0.55569 0.2619 0.0583 0.0
H895 H 0.51387 0.12837 0.09339 0.0
H896 H 0.5055 0.2203 0.01331 0.0
H897 H 0.54873 0.17704 0.14521 0.0
H898 H 0.50786 0.16244 0.0651 0.0
H899 H 0.55128 0.23191 0.0912 0.0
C900 C 0.54364 0.24644 0.05539 0.0
C901 C 0.53118 0.24336 0.03293 0.0
C902 C 0.51644 0.1658 0.08281 0.0
C903 C 0.52609 0.20885 0.07058 0.0
C904 C 0.51988 0.14637 0.09898 0.0
C905 C 0.53205 0.14991 0.12154 0.0
C906 C 0.52562 0.18889 0.08906 0.0
C907 C 0.53932 0.17356 0.12796 0.0
C908 C 0.54101 0.22939 0.07427 0.0
C909 C 0.51555 0.22322 0.0303 0.0
N910 N 0.53637 0.19212 0.11159 0.0
N911 N 0.5137 0.2065 0.04881 0.0
H912 H 0.99228 0.81293 0.14425 0.0
H913 H 0.04882 0.92221 0.12808 0.0
H914 H 0.96211 0.85489 0.20397 0.0
H915 H 0.97957 0.95595 0.14292 0.0
H916 H 0.02904 0.8822 0.13098 0.0
H917 H 0.99748 0.85048 0.12026 0.0
C918 C 0.98567 0.82986 0.15187 0.0
C919 C 0.97714 0.83095 0.17629 0.0
C920 C 0.01795 0.89836 0.13258 0.0
C921 C 0.98325 0.87369 0.14913 0.0
C922 C 0.02926 0.92115 0.13099 0.0
C923 C 0.01574 0.94227 0.13516 0.0
C924 C 0.99319 0.89677 0.1393 0.0
C925 C 0.99052 0.94001 0.13934 0.0
C926 C 0.98892 0.85127 0.13826 0.0
C927 C 0.96904 0.85338 0.18531 0.0
N928 N 0.98018 0.91759 0.14221 0.0
N929 N 0.97266 0.87399 0.17186 0.0
H930 H 0.31883 0.32182 0.47701 0.0
H931 H 0.23837 0.44005 0.4513 0.0
H932 H 0.34355 0.38288 0.4333 0.0
H933 H 0.22629 0.38906 0.51083 0.0
H934 H 0.27094 0.41372 0.43554 0.0
H935 H 0.27823 0.34011 0.47919 0.0
C936 C 0.31547 0.33861 0.4671 0.0
C937 C 0.33458 0.35108 0.45528 0.0
C938 C 0.26091 0.40822 0.45188 0.0
C939 C 0.28854 0.37229 0.45811 0.0
C940 C 0.24243 0.42323 0.46088 0.0
C941 C 0.23003 0.41692 0.48264 0.0
C942 C 0.2667 0.38666 0.46458 0.0
C943 C 0.23576 0.39483 0.49425 0.0
C944 C 0.29239 0.3492 0.46859 0.0
C945 C 0.3293 0.37288 0.44288 0.0
N946 N 0.25377 0.38058 0.48517 0.0
N947 N 0.30686 0.38303 0.44496 0.0
H948 H 0.81664 0.52199 0.7683 0.0
H949 H 0.95923 0.55075 0.7506 0.0
H950 H 0.87476 0.49069 0.81145 0.0
H951 H 0.9022 0.59815 0.72448 0.0
H952 H 0.92808 0.52076 0.76239 0.0
H953 H 0.84756 0.54251 0.74224 0.0
C954 C 0.83587 0.51905 0.77188 0.0
C955 C 0.84331 0.50504 0.79213 0.0
C956 C 0.92242 0.53756 0.75367 0.0
C957 C 0.87844 0.52796 0.76265 0.0
C958 C 0.9402 0.55461 0.74683 0.0
C959 C 0.93324 0.57711 0.73698 0.0
C960 C 0.89754 0.54307 0.75061 0.0
C961 C 0.90831 0.58113 0.73239 0.0
C962 C 0.85345 0.53076 0.75716 0.0
C963 C 0.86837 0.50173 0.79618 0.0
N964 N 0.8913 0.56442 0.73958 0.0
N965 N 0.88502 0.51321 0.78169 0.0
H966 H 0.28847 0.6183 0.99966 0.0
H967 H 0.1642 0.63436 0.92908 0.0
H968 H 0.26831 0.57371 0.93727 0.0
H969 H 0.19406 0.68924 0.97749 0.0
H970 H 0.20402 0.61468 0.92778 0.0
H971 H 0.256 0.64658 0.98899 0.0
C972 C 0.27724 0.61453 0.9836 0.0
C973 C 0.28079 0.59344 0.96954 0.0
C974 C 0.20211 0.63136 0.93821 0.0
C975 C 0.24348 0.62576 0.95722 0.0
C976 C 0.1794 0.64265 0.93886 0.0
C977 C 0.17588 0.6633 0.95359 0.0
C978 C 0.22125 0.64047 0.95286 0.0
C979 C 0.19608 0.67335 0.9659 0.0
C980 C 0.25881 0.63081 0.9774 0.0
C981 C 0.266 0.58966 0.94872 0.0
N982 N 0.21782 0.6615 0.96573 0.0
N983 N 0.2477 0.60549 0.9434 0.0
H984 H 0.40003 0.89383 0.27611 0.0
H985 H 0.34401 0.01916 0.22868 0.0
H986 H 0.44248 0.9592 0.26375 0.0
H987 H 0.30696 0.94973 0.22428 0.0
H988 H 0.37642 0.00013 0.25301 0.0
H989 H 0.36273 0.91678 0.2683 0.0
C990 C 0.40149 0.91311 0.27215 0.0
C991 C 0.42442 0.92455 0.27019 0.0
C992 C 0.36092 0.98919 0.2472 0.0
C993 C 0.38177 0.9509 0.26116 0.0
C994 C 0.34228 8e-05 0.23351 0.0
C995 C 0.32293 0.9859 0.22418 0.0
C996 C 0.36009 0.96401 0.25165 0.0
C997 C 0.32169 0.96126 0.2309 0.0
C998 C 0.38017 0.92619 0.26766 0.0
C999 C 0.42519 0.94961 0.26518 0.0
N1000 N 0.34021 0.95101 0.24393 0.0
N1001 N 0.40418 0.9619 0.26053 0.0
H1002 H 0.40385 0.18727 0.77052 0.0
H1003 H 0.43424 0.09645 0.88292 0.0
H1004 H 0.47704 0.17145 0.79526 0.0
H1005 H 0.36184 0.10782 0.85358 0.0
H1006 H 0.45024 0.12607 0.85283 0.0
H1007 H 0.38784 0.16011 0.80276 0.0
C1008 C 0.41652 0.17812 0.78273 0.0
C1009 C 0.44178 0.18154 0.78013 0.0
C1010 C 0.43084 0.1221 0.85308 0.0
C1011 C 0.42371 0.15053 0.81706 0.0
C1012 C 0.42173 0.10525 0.87028 0.0
C1013 C 0.39673 0.09957 0.87066 0.0
C1014 C 0.41477 0.13333 0.83628 0.0
C1015 C 0.38129 0.11151 0.85386 0.0
C1016 C 0.40741 0.16263 0.80114 0.0
C1017 C 0.4574 0.16928 0.79652 0.0
N1018 N 0.39055 0.12774 0.83737 0.0
N1019 N 0.44813 0.15433 0.81423 0.0
H1020 H 0.53337 0.3565 0.3219 0.0
H1021 H 0.64282 0.28729 0.38445 0.0
H1022 H 0.58284 0.31229 0.2797 0.0
H1023 H 0.58243 0.31756 0.42501 0.0
H1024 H 0.61968 0.29232 0.34611 0.0
H1025 H 0.54918 0.33881 0.35983 0.0
C1026 C 0.54753 0.34286 0.32071 0.0
C1027 C 0.55718 0.33605 0.29783 0.0
C1028 C 0.61133 0.29744 0.36344 0.0
C1029 C 0.57566 0.31592 0.34119 0.0
C1030 C 0.62452 0.29463 0.38532 0.0
C1031 C 0.61464 0.30242 0.40785 0.0
C1032 C 0.58823 0.30834 0.36415 0.0
C1033 C 0.59084 0.3116 0.408 0.0
C1034 C 0.55647 0.33266 0.34235 0.0
C1035 C 0.57512 0.31804 0.29712 0.0
N1036 N 0.57859 0.31463 0.38642 0.0
N1037 N 0.5842 0.30888 0.31863 0.0
H1038 H 0.70708 0.00774 0.84718 0.0
H1039 H 0.83538 0.98426 0.9082 0.0
H1040 H 0.7746 0.00482 0.80628 0.0
H1041 H 0.76916 0.99451 0.94993 0.0
H1042 H 0.81481 -5e-05 0.87148 0.0
H1043 H 0.73046 0.01294 0.88524 0.0
C1044 C 0.72681 0.00912 0.84606 0.0
C1045 C 0.73894 0.00512 0.82362 0.0
C1046 C 0.80483 0.99912 0.88873 0.0
C1047 C 0.76581 0.0103 0.86717 0.0
C1048 C 0.81656 0.99003 0.90967 0.0
C1049 C 0.8038 0.98765 0.93199 0.0
C1050 C 0.78006 0.00557 0.89003 0.0
C1051 C 0.77956 0.99573 0.93297 0.0
C1052 C 0.74019 0.01183 0.86788 0.0
C1053 C 0.7645 0.00731 0.82327 0.0
N1054 N 0.76835 0.00397 0.91218 0.0
N1055 N 0.77713 0.00906 0.84482 0.0
H1056 H 0.3915 0.58528 0.42475 0.0
H1057 H 0.27106 0.66508 0.4088 0.0
H1058 H 0.35993 0.606 0.35488 0.0
H1059 H 0.29957 0.64399 0.47998 0.0
H1060 H 0.30086 0.63877 0.389 0.0
H1061 H 0.35507 0.60119 0.44579 0.0
C1062 C 0.37661 0.59256 0.41387 0.0
C1063 C 0.37869 0.59467 0.38818 0.0
C1064 C 0.30055 0.63972 0.40897 0.0
C1065 C 0.3375 0.61308 0.4118 0.0
C1066 C 0.28357 0.65483 0.42025 0.0
C1067 C 0.28306 0.65692 0.44601 0.0
C1068 C 0.31737 0.62677 0.42354 0.0
C1069 C 0.29951 0.64302 0.46001 0.0
C1070 C 0.35596 0.60181 0.42582 0.0
C1071 C 0.3591 0.60438 0.37481 0.0
N1072 N 0.3162 0.62871 0.44858 0.0
N1073 N 0.33947 0.61345 0.38677 0.0
H1074 H 0.08606 0.03845 0.23495 0.0
H1075 H 0.17539 0.95456 0.31362 0.0
H1076 H 0.10621 0.96554 0.21409 0.0
H1077 H 0.14199 0.02015 0.34046 0.0
H1078 H 0.16038 0.96401 0.27199 0.0
H1079 H 0.1155 0.03685 0.26878 0.0
C1080 C 0.09673 0.0221 0.23748 0.0
C1081 C 0.09335 0.00189 0.22204 0.0
C1082 C 0.15698 0.9767 0.28685 0.0
C1083 C 0.12724 2e-05 0.2606 0.0
C1084 C 0.16587 0.97151 0.31049 0.0
C1085 C 0.15969 0.98656 0.33035 0.0
C1086 C 0.14202 0.99711 0.2833 0.0
C1087 C 0.14695 0.00806 0.32553 0.0
C1088 C 0.11364 0.02126 0.2567 0.0
C1089 C 0.10798 0.98136 0.22586 0.0
N1090 N 0.13819 0.01251 0.30255 0.0
N1091 N 0.12414 0.98084 0.24495 0.0
H1092 H 0.78491 0.5218 0.92111 0.0
H1093 H 0.78176 0.66211 0.90173 0.0
H1094 H 0.76533 0.55448 0.85138 0.0
H1095 H 0.77839 0.62915 0.97401 0.0
H1096 H 0.76877 0.62352 0.88353 0.0
H1097 H 0.77703 0.56057 0.9416 0.0
C1098 C 0.77865 0.53706 0.91017 0.0
C1099 C 0.7762 0.53509 0.88448 0.0
C1100 C 0.77014 0.62485 0.90344 0.0
C1101 C 0.76728 0.57951 0.90771 0.0
C1102 C 0.77739 0.64696 0.91383 0.0
C1103 C 0.78149 0.64867 0.93934 0.0
C1104 C 0.7676 0.60424 0.91864 0.0
C1105 C 0.77557 0.62854 0.95422 0.0
C1106 C 0.774 0.55916 0.92189 0.0
C1107 C 0.76775 0.55533 0.87121 0.0
N1108 N 0.76961 0.60691 0.94358 0.0
N1109 N 0.76403 0.57683 0.88291 0.0
H1110 H 0.79691 0.82045 0.46225 0.0
H1111 H 0.86991 0.69684 0.46246 0.0
H1112 H 0.76225 0.75002 0.46941 0.0
H1113 H 0.90246 0.7674 0.44912 0.0
H1114 H 0.82936 0.71482 0.45708 0.0
H1115 H 0.83414 0.80061 0.44829 0.0
C1116 C 0.79691 0.80084 0.46017 0.0
C1117 C 0.77664 0.78684 0.46743 0.0
C1118 C 0.8454 0.72628 0.45491 0.0
C1119 C 0.81942 0.7639 0.45227 0.0
C1120 C 0.86852 0.71601 0.45801 0.0
C1121 C 0.8895 0.73076 0.45671 0.0
C1122 C 0.84335 0.75145 0.4506 0.0
C1123 C 0.88672 0.75544 0.45072 0.0
C1124 C 0.81824 0.78946 0.45237 0.0
C1125 C 0.77758 0.7615 0.46425 0.0
N1126 N 0.8641 0.76506 0.44823 0.0
N1127 N 0.79885 0.75078 0.45749 0.0
H1128 H 0.12096 0.1852 0.03497 0.0
H1129 H 0.21118 0.29997 0.03789 0.0
H1130 H 0.09817 0.2587 0.04994 0.0
H1131 H 0.2288 0.22995 0.0072 0.0
H1132 H 0.17321 0.2824 0.0547 0.0
H1133 H 0.16362 0.19878 0.03695 0.0
C1134 C 0.12494 0.20409 0.03913 0.0
C1135 C 0.10605 0.22095 0.0418 0.0
C1136 C 0.18572 0.27076 0.04481 0.0
C1137 C 0.15469 0.23664 0.04398 0.0
C1138 C 0.20743 0.28074 0.03544 0.0
C1139 C 0.22283 0.2664 0.02094 0.0
C1140 C 0.17967 0.24634 0.03968 0.0
C1141 C 0.21715 0.24164 0.01805 0.0
C1142 C 0.14928 0.21186 0.04022 0.0
C1143 C 0.11223 0.24519 0.04734 0.0
N1144 N 0.19589 0.23246 0.02705 0.0
N1145 N 0.13602 0.25239 0.04791 0.0
H1146 H 0.81066 0.1827 0.52601 0.0
H1147 H 0.72681 0.06885 0.56333 0.0
H1148 H 0.83555 0.12236 0.57019 0.0
H1149 H 0.71248 0.11769 0.50261 0.0
H1150 H 0.76139 0.09494 0.57567 0.0
H1151 H 0.76899 0.1662 0.52811 0.0
C1152 C 0.8072 0.16645 0.53686 0.0
C1153 C 0.82652 0.1536 0.54758 0.0
C1154 C 0.75041 0.10006 0.55986 0.0
C1155 C 0.77925 0.13449 0.54972 0.0
C1156 C 0.73077 0.08519 0.55282 0.0
C1157 C 0.7172 0.0909 0.53165 0.0
C1158 C 0.75619 0.12084 0.54576 0.0
C1159 C 0.72286 0.11238 0.51877 0.0
C1160 C 0.7835 0.15691 0.53785 0.0
C1161 C 0.82112 0.13258 0.56135 0.0
N1162 N 0.74204 0.12647 0.52591 0.0
N1163 N 0.79803 0.12343 0.5617 0.0
H1164 H 0.48639 0.65096 0.78479 0.0
H1165 H 0.54467 0.54007 0.86016 0.0
H1166 H 0.54361 0.65881 0.8391 0.0
H1167 H 0.50372 0.53169 0.79251 0.0
H1168 H 0.53576 0.58371 0.85956 0.0
H1169 H 0.48365 0.6074 0.79479 0.0
C1170 C 0.49786 0.64364 0.79929 0.0
C1171 C 0.51543 0.65834 0.81097 0.0
C1172 C 0.52848 0.57224 0.84503 0.0
C1173 C 0.51259 0.60879 0.8223 0.0
C1174 C 0.53353 0.54736 0.84538 0.0
C1175 C 0.52522 0.53236 0.82617 0.0
C1176 C 0.51491 0.5821 0.8254 0.0
C1177 C 0.51076 0.5427 0.80752 0.0
C1178 C 0.49646 0.61879 0.80484 0.0
C1179 C 0.53 0.64798 0.82949 0.0
N1180 N 0.50622 0.56697 0.80748 0.0
N1181 N 0.52844 0.62379 0.83442 0.0
H1182 H 0.43112 0.81588 0.23473 0.0
H1183 H 0.44098 0.80347 0.0882 0.0
H1184 H 0.49028 0.84378 0.19018 0.0
H1185 H 0.37586 0.78584 0.12961 0.0
H1186 H 0.46338 0.80796 0.12699 0.0
H1187 H 0.41484 0.79461 0.19812 0.0
C1188 C 0.44099 0.81691 0.21742 0.0
C1189 C 0.46177 0.83174 0.21517 0.0
C1190 C 0.44426 0.80278 0.12761 0.0
C1191 C 0.44348 0.80789 0.17361 0.0
C1192 C 0.4315 0.80021 0.10546 0.0
C1193 C 0.40646 0.79477 0.10575 0.0
C1194 C 0.43184 0.80009 0.15019 0.0
C1195 C 0.39511 0.79044 0.12861 0.0
C1196 C 0.43168 0.80496 0.19655 0.0
C1197 C 0.47395 0.83273 0.19245 0.0
N1198 N 0.40779 0.79357 0.14997 0.0
N1199 N 0.4645 0.82119 0.17249 0.0
H1200 H 0.39178 0.8204 0.52432 0.0
H1201 H 0.29665 0.71142 0.5465 0.0
H1202 H 0.41112 0.7505 0.55476 0.0
H1203 H 0.28335 0.77395 0.50033 0.0
H1204 H 0.335 0.73055 0.56057 0.0
H1205 H 0.3486 0.80848 0.52633 0.0
C1206 C 0.38691 0.80274 0.53185 0.0
C1207 C 0.40501 0.78624 0.53895 0.0
C1208 C 0.32337 0.74029 0.54779 0.0
C1209 C 0.35582 0.77246 0.54123 0.0
C1210 C 0.30146 0.72947 0.53995 0.0
C1211 C 0.28714 0.74106 0.52206 0.0
C1212 C 0.33068 0.76285 0.53774 0.0
C1213 C 0.29415 0.76432 0.51393 0.0
C1214 C 0.36229 0.79592 0.53295 0.0
C1215 C 0.39771 0.76363 0.5487 0.0
N1216 N 0.31555 0.77434 0.52162 0.0
N1217 N 0.37369 0.75727 0.54927 0.0
H1218 H 0.77113 0.93861 0.05509 0.0
H1219 H 0.68297 0.82518 0.02813 0.0
H1220 H 0.78142 0.88613 0.99692 0.0
H1221 H 0.66093 0.88897 0.06843 0.0
H1222 H 0.72507 0.84062 0.02802 0.0
H1223 H 0.73627 0.91438 0.07024 0.0
C1224 C 0.76622 0.92187 0.04572 0.0
C1225 C 0.77874 0.91458 0.02446 0.0
C1226 C 0.7111 0.85091 0.03744 0.0
C1227 C 0.73948 0.88672 0.04181 0.0
C1228 C 0.68715 0.84198 0.03773 0.0
C1229 C 0.66848 0.85607 0.04792 0.0
C1230 C 0.71626 0.87397 0.0475 0.0
C1231 C 0.67483 0.87778 0.06004 0.0
C1232 C 0.74643 0.90806 0.05437 0.0
C1233 C 0.77187 0.89265 0.01309 0.0
N1234 N 0.69815 0.8863 0.05913 0.0
N1235 N 0.7526 0.87958 0.02181 0.0
H1236 H 0.63392 0.48286 0.63458 0.0
H1237 H 0.6195 0.49552 0.77969 0.0
H1238 H 0.68025 0.52903 0.67905 0.0
H1239 H 0.57519 0.44811 0.73428 0.0
H1240 H 0.64637 0.50305 0.74444 0.0
H1241 H 0.61783 0.464 0.672 0.0
C1242 C 0.64117 0.48853 0.65233 0.0
C1243 C 0.65821 0.5076 0.6539 0.0
C1244 C 0.63093 0.49081 0.74224 0.0
C1245 C 0.63929 0.48679 0.69682 0.0
C1246 C 0.6155 0.4866 0.7623 0.0
C1247 C 0.59486 0.47149 0.75974 0.0
C1248 C 0.62561 0.47991 0.71941 0.0
C1249 C 0.59073 0.46014 0.73695 0.0
C1250 C 0.63187 0.47789 0.67369 0.0
C1251 C 0.66711 0.51432 0.67718 0.0
N1252 N 0.60583 0.46478 0.71759 0.0
N1253 N 0.65712 0.50427 0.69786 0.0
H1254 H 0.26345 0.92625 0.15121 0.0
H1255 H 0.29855 0.85539 0.02838 0.0
H1256 H 0.28629 0.96066 0.08326 0.0
H1257 H 0.29927 0.82381 0.10138 0.0
H1258 H 0.27881 0.89156 0.0452 0.0
H1259 H 0.26209 0.88703 0.12991 0.0
C1260 C 0.26775 0.92562 0.13169 0.0
C1261 C 0.2755 0.94661 0.11906 0.0
C1262 C 0.28264 0.8764 0.05738 0.0
C1263 C 0.27385 0.90192 0.09466 0.0
C1264 C 0.29367 0.85564 0.04777 0.0
C1265 C 0.30093 0.83683 0.06365 0.0
C1266 C 0.27877 0.87814 0.08296 0.0
C1267 C 0.29427 0.83813 0.08861 0.0
C1268 C 0.26695 0.90325 0.11958 0.0
C1269 C 0.28063 0.94482 0.09376 0.0
N1270 N 0.28394 0.85867 0.09761 0.0
N1271 N 0.28002 0.92277 0.08244 0.0
H1272 H 0.30874 0.50341 0.65903 0.0
H1273 H 0.1785 0.4863 0.59981 0.0
H1274 H 0.24196 0.50042 0.70121 0.0
H1275 H 0.24443 0.49648 0.55732 0.0
H1276 H 0.20031 0.50001 0.6367 0.0
H1277 H 0.2849 0.5113 0.62181 0.0
C1278 C 0.28912 0.50533 0.66065 0.0
C1279 C 0.27725 0.50052 0.68311 0.0
C1280 C 0.20996 0.49962 0.61926 0.0
C1281 C 0.24981 0.50877 0.64049 0.0
C1282 C 0.19753 0.49165 0.59822 0.0
C1283 C 0.20983 0.48979 0.57561 0.0
C1284 C 0.23497 0.50546 0.61775 0.0
C1285 C 0.23436 0.4973 0.57449 0.0
C1286 C 0.27546 0.50959 0.6393 0.0
C1287 C 0.25183 0.50351 0.68416 0.0
N1288 N 0.24624 0.50443 0.59535 0.0
N1289 N 0.23887 0.50673 0.663 0.0
H1290 H 0.61185 0.07987 0.08508 0.0
H1291 H 0.73056 0.16562 0.08787 0.0
H1292 H 0.63997 0.116 0.14995 0.0
H1293 H 0.70686 0.12752 0.02236 0.0
H1294 H 0.69936 0.144 0.11159 0.0
H1295 H 0.64864 0.09303 0.06233 0.0
C1296 C 0.62596 0.09014 0.0946 0.0
C1297 C 0.62281 0.09721 0.11924 0.0
C1298 C 0.70103 0.14019 0.09205 0.0
C1299 C 0.66448 0.11239 0.09358 0.0
C1300 C 0.71883 0.1526 0.07852 0.0
C1301 C 0.72112 0.14851 0.05312 0.0
C1302 C 0.68519 0.12372 0.08006 0.0
C1303 C 0.70558 0.13129 0.04193 0.0
C1304 C 0.64684 0.09775 0.08164 0.0
C1305 C 0.64152 0.11054 0.13081 0.0
N1306 N 0.68808 0.11967 0.05543 0.0
N1307 N 0.66139 0.11785 0.11785 0.0
H1308 H 0.59506 0.2325 0.94364 0.0
H1309 H 0.73928 0.2482 0.95523 0.0
H1310 H 0.6315 0.30052 0.95991 0.0
H1311 H 0.7015 0.17904 0.95335 0.0
H1312 H 0.70113 0.26846 0.94429 0.0
H1313 H 0.63466 0.21404 0.93548 0.0
C1314 C 0.61139 0.24365 0.94521 0.0
C1315 C 0.61005 0.26797 0.9529 0.0
C1316 C 0.70133 0.2488 0.94566 0.0
C1317 C 0.65546 0.24691 0.94359 0.0
C1318 C 0.72317 0.23718 0.95165 0.0
C1319 C 0.72341 0.21193 0.95566 0.0
C1320 C 0.6797 0.23503 0.94362 0.0
C1321 C 0.70201 0.19858 0.95078 0.0
C1322 C 0.634 0.23309 0.9405 0.0
C1323 C 0.63176 0.28162 0.95433 0.0
N1324 N 0.6809 0.21033 0.94546 0.0
N1325 N 0.65363 0.27081 0.95004 0.0
H1326 H 0.55978 0.45874 0.2435 0.0
H1327 H 0.69976 0.46468 0.27687 0.0
H1328 H 0.61101 0.40237 0.22495 0.0
H1329 H 0.65237 0.52681 0.28234 0.0
H1330 H 0.6691 0.44417 0.25141 0.0
H1331 H 0.59416 0.4864 0.25172 0.0
C1332 C 0.57823 0.45235 0.24067 0.0
C1333 C 0.58258 0.42812 0.23398 0.0
C1334 C 0.66557 0.46251 0.25768 0.0
C1335 C 0.62194 0.45946 0.24357 0.0
C1336 C 0.68315 0.47425 0.27215 0.0
C1337 C 0.67845 0.49731 0.28197 0.0
C1338 C 0.64291 0.47371 0.25348 0.0
C1339 C 0.65667 0.50894 0.27523 0.0
C1340 C 0.59787 0.46812 0.24537 0.0
C1341 C 0.60684 0.4208 0.23047 0.0
N1342 N 0.63944 0.49679 0.26187 0.0
N1343 N 0.62558 0.43627 0.23569 0.0
H1344 H 0.52708 0.1573 0.72403 0.0
H1345 H 0.47599 0.04727 0.64196 0.0
H1346 H 0.47799 0.16561 0.66229 0.0
H1347 H 0.50972 0.03843 0.71347 0.0
H1348 H 0.48628 0.09071 0.6432 0.0
H1349 H 0.5311 0.11398 0.71386 0.0
C1350 C 0.51784 0.15017 0.70785 0.0
C1351 C 0.50199 0.16485 0.6941 0.0
C1352 C 0.4917 0.07918 0.65848 0.0
C1353 C 0.50614 0.11556 0.68263 0.0
C1354 C 0.48582 0.05442 0.65777 0.0
C1355 C 0.49165 0.03936 0.67782 0.0
C1356 C 0.50355 0.0889 0.67935 0.0
C1357 C 0.50456 0.0495 0.69778 0.0
C1358 C 0.51991 0.12544 0.7022 0.0
C1359 C 0.4902 0.15475 0.67348 0.0
N1360 N 0.50988 0.07369 0.69815 0.0
N1361 N 0.49226 0.13066 0.66854 0.0
H1362 H 0.95839 0.46271 0.35457 0.0
H1363 H 0.01738 0.3504 0.28286 0.0
H1364 H 0.99623 0.46841 0.28492 0.0
H1365 H 0.96001 0.34335 0.337 0.0
H1366 H 0.02021 0.39402 0.29216 0.0
H1367 H 0.96895 0.41937 0.35638 0.0
C1368 C 0.96926 0.45493 0.3399 0.0
C1369 C 0.9761 0.46895 0.31936 0.0
C1370 C 0.0074 0.38278 0.30238 0.0
C1371 C 0.98837 0.41975 0.32139 0.0
C1372 C 0.00592 0.3579 0.29723 0.0
C1373 C 0.9882 0.34344 0.30895 0.0
C1374 C 0.99116 0.39306 0.31949 0.0
C1375 C 0.97369 0.35402 0.32733 0.0
C1376 C 0.97525 0.43026 0.34092 0.0
C1377 C 0.99025 0.45808 0.30088 0.0
N1378 N 0.97528 0.37827 0.33183 0.0
N1379 N 0.99576 0.43407 0.30223 0.0
H1380 H 0.19123 0.03009 0.73456 0.0
H1381 H 0.04738 0.04535 0.75525 0.0
H1382 H 0.13507 0.98844 0.69763 0.0
H1383 H 0.1008 0.09972 0.77609 0.0
H1384 H 0.08061 0.01763 0.745 0.0
H1385 H 0.15947 0.04917 0.76024 0.0
C1386 C 0.17232 0.02455 0.73236 0.0
C1387 C 0.16556 0.00801 0.71389 0.0
C1388 C 0.08505 0.03549 0.75222 0.0
C1389 C 0.12948 0.02941 0.74287 0.0
C1390 C 0.06608 0.05127 0.75816 0.0
C1391 C 0.07136 0.07499 0.76608 0.0
C1392 C 0.10944 0.04353 0.75418 0.0
C1393 C 0.09595 0.08167 0.76966 0.0
C1394 C 0.15423 0.03547 0.74684 0.0
C1395 C 0.14088 0.00143 0.71153 0.0
N1396 N 0.11411 0.06615 0.76334 0.0
N1397 N 0.12373 0.01226 0.7257 0.0
H1398 H 0.70271 0.89102 0.84701 0.0
H1399 H 0.59967 0.90928 0.95084 0.0
H1400 H 0.64889 0.94793 0.84361 0.0
H1401 H 0.657 0.85584 0.95443 0.0
H1402 H 0.61659 0.92375 0.91128 0.0
H1403 H 0.68493 0.87719 0.88604 0.0
C1404 C 0.68706 0.9005 0.85441 0.0
C1405 C 0.67727 0.92062 0.84208 0.0
C1406 C 0.62544 0.9089 0.92084 0.0
C1407 C 0.65688 0.90509 0.88683 0.0
C1408 C 0.61584 0.90073 0.94341 0.0
C1409 C 0.62691 0.88134 0.95591 0.0
C1410 C 0.64616 0.8975 0.91083 0.0
C1411 C 0.64778 0.87081 0.94543 0.0
C1412 C 0.67694 0.89269 0.87674 0.0
C1413 C 0.65701 0.93231 0.85254 0.0
N1414 N 0.65664 0.87897 0.92357 0.0
N1415 N 0.6475 0.92441 0.87433 0.0
H1416 H 0.49171 0.62756 0.41012 0.0
H1417 H 0.4564 0.76299 0.44232 0.0
H1418 H 0.45439 0.67442 0.35865 0.0
H1419 H 0.50926 0.7222 0.48431 0.0
H1420 H 0.45701 0.73161 0.41046 0.0
H1421 H 0.5006 0.66269 0.43618 0.0
C1422 C 0.48573 0.64538 0.40414 0.0
C1423 C 0.4721 0.64815 0.38238 0.0
C1424 C 0.46868 0.72962 0.4265 0.0
C1425 C 0.48179 0.68834 0.41231 0.0
C1426 C 0.46823 0.74744 0.44477 0.0
C1427 C 0.48258 0.74498 0.4661 0.0
C1428 C 0.48334 0.70902 0.42975 0.0
C1429 C 0.49777 0.72467 0.46822 0.0
C1430 C 0.49081 0.66542 0.41901 0.0
C1431 C 0.46492 0.67158 0.37534 0.0
N1432 N 0.49754 0.70729 0.45038 0.0
N1433 N 0.46949 0.69078 0.39052 0.0
H1434 H 0.59268 0.60236 0.62264 0.0
H1435 H 0.61197 0.69348 0.73713 0.0
H1436 H 0.66253 0.61639 0.65709 0.0
H1437 H 0.54146 0.6731 0.70759 0.0
H1438 H 0.63143 0.66834 0.70537 0.0
H1439 H 0.57395 0.63145 0.65112 0.0
C1440 C 0.60407 0.61166 0.63607 0.0
C1441 C 0.62912 0.60683 0.63763 0.0
C1442 C 0.61169 0.66948 0.70582 0.0
C1443 C 0.60795 0.64004 0.67022 0.0
C1444 C 0.60063 0.68384 0.72392 0.0
C1445 C 0.5751 0.68522 0.72511 0.0
C1446 C 0.59708 0.65656 0.68881 0.0
C1447 C 0.56123 0.6724 0.70749 0.0
C1448 C 0.5934 0.62821 0.65235 0.0
C1449 C 0.64308 0.61942 0.65536 0.0
N1450 N 0.57237 0.65859 0.69015 0.0
N1451 N 0.63231 0.63536 0.67099 0.0
H1452 H 0.94224 0.73391 0.55955 0.0
H1453 H 0.00058 0.85355 0.61403 0.0
H1454 H 0.00255 0.77126 0.52445 0.0
H1455 H 0.95426 0.80569 0.65676 0.0
H1456 H 0.00507 0.82173 0.58304 0.0
H1457 H 0.9488 0.75817 0.59662 0.0
C1458 C 0.95691 0.74727 0.55967 0.0
C1459 C 0.97161 0.75096 0.53877 0.0
C1460 C 0.99435 0.81792 0.59941 0.0
C1461 C 0.97928 0.77875 0.58123 0.0
C1462 C 0.99183 0.83605 0.61712 0.0
C1463 C 0.97681 0.83222 0.63775 0.0
C1464 C 0.98131 0.79601 0.60212 0.0
C1465 C 0.96596 0.8093 0.64105 0.0
C1466 C 0.96079 0.76095 0.58094 0.0
C1467 C 0.99064 0.7681 0.5401 0.0
N1468 N 0.968 0.79217 0.62308 0.0
N1469 N 0.99372 0.78165 0.56089 0.0
H1470 H 0.15345 0.67318 0.05419 0.0
H1471 H 0.15004 0.55943 0.14605 0.0
H1472 H 0.10657 0.61074 0.04241 0.0
H1473 H 0.19228 0.6248 0.15906 0.0
H1474 H 0.13311 0.57787 0.10873 0.0
H1475 H 0.16715 0.65562 0.0929 0.0
C1476 C 0.14601 0.65568 0.05974 0.0
C1477 C 0.12889 0.64332 0.04494 0.0
C1478 C 0.14596 0.58824 0.1198 0.0
C1479 C 0.14463 0.62304 0.08958 0.0
C1480 C 0.15565 0.57775 0.14113 0.0
C1481 C 0.17268 0.5906 0.15563 0.0
C1482 C 0.15344 0.61173 0.11284 0.0
C1483 C 0.17923 0.61425 0.14841 0.0
C1484 C 0.15384 0.64569 0.08196 0.0
C1485 C 0.11985 0.62081 0.05323 0.0
N1486 N 0.16969 0.624 0.12744 0.0
N1487 N 0.12792 0.61131 0.07501 0.0
H1488 H 0.27794 0.60297 0.23769 0.0
H1489 H 0.38799 0.53357 0.30479 0.0
H1490 H 0.27227 0.53047 0.268 0.0
H1491 H 0.39326 0.60794 0.27953 0.0
H1492 H 0.3469 0.5309 0.28739 0.0
H1493 H 0.32084 0.60464 0.25064 0.0
C1494 C 0.28563 0.58753 0.24733 0.0
C1495 C 0.27145 0.56661 0.2519 0.0
C1496 C 0.35713 0.54773 0.28536 0.0
C1497 C 0.32066 0.56818 0.2663 0.0
C1498 C 0.38073 0.54918 0.29506 0.0
C1499 C 0.39408 0.57104 0.29371 0.0
C1500 C 0.34668 0.56833 0.27427 0.0
C1501 C 0.38365 0.59071 0.28097 0.0
C1502 C 0.31017 0.58841 0.25454 0.0
C1503 C 0.28245 0.54703 0.26423 0.0
N1504 N 0.36046 0.58898 0.272 0.0
N1505 N 0.30637 0.54827 0.27092 0.0
H1506 H 0.6177 0.38702 0.48016 0.0
H1507 H 0.61963 0.50162 0.53825 0.0
H1508 H 0.67432 0.36952 0.53263 0.0
H1509 H 0.69371 0.48257 0.55706 0.0
H1510 H 0.61343 0.46068 0.52146 0.0
H1511 H 0.61901 0.42929 0.49418 0.0
C1512 C 0.63005 0.39198 0.495 0.0
C1513 C 0.64577 0.37466 0.5054 0.0
C1514 C 0.63121 0.4656 0.52875 0.0
C1515 C 0.64746 0.42307 0.52153 0.0
C1516 C 0.63474 0.489 0.53837 0.0
C1517 C 0.65727 0.49559 0.54894 0.0
C1518 C 0.65033 0.44865 0.52987 0.0
C1519 C 0.67609 0.47837 0.54896 0.0
C1520 C 0.63075 0.41615 0.50305 0.0
C1521 C 0.66169 0.38218 0.52428 0.0
N1522 N 0.67211 0.45567 0.53984 0.0
N1523 N 0.66229 0.40585 0.53154 0.0
H1524 H 0.90657 0.9497 0.72531 0.0
H1525 H 0.78256 0.95707 0.73071 0.0
H1526 H 0.89542 0.8732 0.73985 0.0
H1527 H 0.7846 0.9001 0.78564 0.0
H1528 H 0.826 0.95155 0.72337 0.0
H1529 H 0.86525 0.95762 0.74 0.0
C1530 C 0.89561 0.93461 0.7321 0.0
C1531 C 0.90434 0.91071 0.731 0.0
C1532 C 0.81709 0.94044 0.73729 0.0
C1533 C 0.8566 0.91952 0.74683 0.0
C1534 C 0.79215 0.94331 0.74121 0.0
C1535 C 0.7799 0.92907 0.75888 0.0
C1536 C 0.83008 0.92312 0.75105 0.0
C1537 C 0.79336 0.91149 0.77187 0.0
C1538 C 0.87186 0.9391 0.74009 0.0
C1539 C 0.88936 0.8919 0.74026 0.0
N1540 N 0.81777 0.90887 0.76758 0.0
N1541 N 0.86602 0.89665 0.74748 0.0
H1542 H 0.33115 0.9775 0.9547 0.0
H1543 H 0.40699 0.88022 0.03102 0.0
H1544 H 0.40661 0.99165 0.97347 0.0
H1545 H 0.349 0.86132 0.98033 0.0
H1546 H 0.4056 0.92244 0.01579 0.0
H1547 H 0.33497 0.9365 0.97131 0.0
C1548 C 0.34847 0.97212 0.96265 0.0
C1549 C 0.36865 0.98804 0.96258 0.0
C1550 C 0.3934 0.90892 0.0079 0.0
C1551 C 0.37313 0.94086 0.98153 0.0
C1552 C 0.39422 0.88487 0.01648 0.0
C1553 C 0.37814 0.86723 0.00684 0.0
C1554 C 0.37601 0.91537 0.99001 0.0
C1555 C 0.36184 0.87426 0.98818 0.0
C1556 C 0.35067 0.9486 0.97193 0.0
C1557 C 0.39062 0.97995 0.97314 0.0
N1558 N 0.361 0.8978 0.9806 0.0
N1559 N 0.39231 0.95684 0.98221 0.0
H1560 H 0.10817 0.44703 0.77903 0.0
H1561 H 0.22913 0.3904 0.72012 0.0
H1562 H 0.1121 0.37126 0.75875 0.0
H1563 H 0.22733 0.45476 0.76561 0.0
H1564 H 0.18484 0.38513 0.72656 0.0
H1565 H 0.14994 0.45289 0.76446 0.0
C1566 C 0.11759 0.43174 0.77091 0.0
C1567 C 0.10667 0.40856 0.77035 0.0
C1568 C 0.19424 0.40036 0.73509 0.0
C1569 C 0.15482 0.41506 0.75409 0.0
C1570 C 0.21947 0.40331 0.73154 0.0
C1571 C 0.23197 0.42292 0.74254 0.0
C1572 C 0.18145 0.41742 0.74931 0.0
C1573 C 0.21854 0.43923 0.75697 0.0
C1574 C 0.14156 0.43504 0.76285 0.0
C1575 C 0.11982 0.38944 0.75957 0.0
N1576 N 0.19407 0.43618 0.75982 0.0
N1577 N 0.14337 0.39302 0.75214 0.0
H1578 H 0.87271 0.49837 0.03823 0.0
H1579 H 0.81958 0.63314 0.03263 0.0
H1580 H 0.79937 0.51702 0.05995 0.0
H1581 H 0.87849 0.61069 0.98515 0.0
H1582 H 0.81603 0.59148 0.04809 0.0
H1583 H 0.87844 0.54 0.02237 0.0
C1584 C 0.85774 0.5111 0.03938 0.0
C1585 C 0.83551 0.50419 0.05037 0.0
C1586 C 0.82986 0.59569 0.03441 0.0
C1587 C 0.84217 0.55183 0.03297 0.0
C1588 C 0.83208 0.61954 0.02577 0.0
C1589 C 0.84938 0.62541 0.00758 0.0
C1590 C 0.8452 0.57755 0.02502 0.0
C1591 C 0.86492 0.60693 0.9992 0.0
C1592 C 0.86106 0.53484 0.03044 0.0
C1593 C 0.81678 0.52147 0.05154 0.0
N1594 N 0.86247 0.58379 0.00798 0.0
N1595 N 0.82062 0.54451 0.04321 0.0
H1596 H 0.72548 0.09082 0.27455 0.0
H1597 H 0.6097 0.0339 0.20364 0.0
H1598 H 0.72564 0.02268 0.2351 0.0
H1599 H 0.61224 0.10888 0.22708 0.0
H1600 H 0.65018 0.02786 0.22138 0.0
H1601 H 0.68271 0.09678 0.26196 0.0
C1602 C 0.71661 0.07724 0.26309 0.0
C1603 C 0.72923 0.0563 0.25574 0.0
C1604 C 0.64182 0.04559 0.22292 0.0
C1605 C 0.68025 0.0627 0.24179 0.0
C1606 C 0.61855 0.049 0.213 0.0
C1607 C 0.60755 0.07197 0.21376 0.0
C1608 C 0.65436 0.06529 0.23372 0.0
C1609 C 0.62 0.09084 0.22611 0.0
C1610 C 0.69219 0.08058 0.25603 0.0
C1611 C 0.71675 0.03918 0.24109 0.0
N1612 N 0.64285 0.08716 0.2354 0.0
N1613 N 0.69303 0.04272 0.23472 0.0
H1614 H 0.10576 0.11878 0.50963 0.0
H1615 H 0.18394 0.02529 0.43074 0.0
H1616 H 0.16778 0.13988 0.46517 0.0
H1617 H 0.10911 0.0097 0.45061 0.0
H1618 H 0.17975 0.06609 0.44773 0.0
H1619 H 0.10733 0.07788 0.49147 0.0
C1620 C 0.11946 0.11493 0.49578 0.0
C1621 C 0.13664 0.13279 0.48885 0.0
C1622 C 0.16423 0.05377 0.44843 0.0
C1623 C 0.13891 0.08597 0.46856 0.0
C1624 C 0.16666 0.03036 0.43892 0.0
C1625 C 0.14684 0.01401 0.43926 0.0
C1626 C 0.14188 0.06095 0.45867 0.0
C1627 C 0.12486 0.02172 0.44999 0.0
C1628 C 0.12039 0.09158 0.48551 0.0
C1629 C 0.1541 0.12675 0.47097 0.0
N1630 N 0.12297 0.04465 0.45936 0.0
N1631 N 0.15495 0.10381 0.46168 0.0
H1632 H 0.18022 0.27473 0.53619 0.0
H1633 H 0.12924 0.39277 0.47569 0.0
H1634 H 0.11901 0.26631 0.48649 0.0
H1635 H 0.14571 0.38833 0.55356 0.0
H1636 H 0.12878 0.34798 0.47383 0.0
H1637 H 0.17385 0.31863 0.53617 0.0
C1638 C 0.1657 0.28214 0.5249 0.0
C1639 C 0.15009 0.26684 0.51134 0.0
C1640 C 0.13195 0.35696 0.49135 0.0
C1641 C 0.1427 0.31708 0.51137 0.0
C1642 C 0.13205 0.38244 0.4925 0.0
C1643 C 0.1377 0.39432 0.51479 0.0
C1644 C 0.13813 0.34352 0.51248 0.0
C1645 C 0.1414 0.38001 0.53596 0.0
C1646 C 0.16191 0.30715 0.52515 0.0
C1647 C 0.13143 0.27752 0.4972 0.0
N1648 N 0.14212 0.35541 0.53416 0.0
N1649 N 0.12827 0.30212 0.49747 0.0
H1650 H 0.97639 0.39993 0.79374 0.0
H1651 H 0.87729 0.45733 0.88509 0.0
H1652 H 0.9955 0.44204 0.85823 0.0
H1653 H 0.85886 0.41468 0.82077 0.0
H1654 H 0.92062 0.45055 0.87672 0.0
H1655 H 0.93322 0.40557 0.80326 0.0
C1656 C 0.9715 0.41072 0.80969 0.0
C1657 C 0.9896 0.42057 0.82519 0.0
C1658 C 0.90709 0.44243 0.8646 0.0
C1659 C 0.94011 0.42664 0.83655 0.0
C1660 C 0.88232 0.44605 0.86954 0.0
C1661 C 0.8644 0.43655 0.85361 0.0
C1662 C 0.91399 0.42927 0.84353 0.0
C1663 C 0.87203 0.42231 0.83359 0.0
C1664 C 0.94682 0.41374 0.81526 0.0
C1665 C 0.98217 0.43424 0.8457 0.0
N1666 N 0.89623 0.41929 0.829 0.0
N1667 N 0.95799 0.43674 0.85087 0.0
H1668 H 0.76666 0.38084 0.08475 0.0
H1669 H 0.81277 0.26584 0.00806 0.0
H1670 H 0.8234 0.38366 0.02954 0.0
H1671 H 0.75049 0.26249 0.05677 0.0
H1672 H 0.8159 0.30949 0.01534 0.0
H1673 H 0.75829 0.33838 0.07334 0.0
C1674 C 0.77693 0.37273 0.06982 0.0
C1675 C 0.79587 0.38573 0.05818 0.0
C1676 C 0.80151 0.29928 0.02447 0.0
C1677 C 0.78681 0.33715 0.04547 0.0
C1678 C 0.79983 0.27429 0.02044 0.0
C1679 C 0.78144 0.26049 0.03195 0.0
C1680 C 0.78475 0.31067 0.04024 0.0
C1681 C 0.76504 0.27246 0.04764 0.0
C1682 C 0.77231 0.34844 0.06348 0.0
C1683 C 0.80875 0.37428 0.03913 0.0
N1684 N 0.76712 0.29688 0.0514 0.0
N1685 N 0.80417 0.35061 0.03358 0.0
H1686 H 0.8539 0.063 0.22317 0.0
H1687 H 0.9777 0.98847 0.2176 0.0
H1688 H 0.86085 0.98929 0.24972 0.0
H1689 H 0.96475 0.04946 0.16912 0.0
H1690 H 0.93557 0.99064 0.23179 0.0
H1691 H 0.89457 0.06006 0.20442 0.0
C1692 C 0.86382 0.04608 0.22473 0.0
C1693 C 0.854 0.02636 0.23808 0.0
C1694 C 0.94187 0.00355 0.21802 0.0
C1695 C 0.90065 0.0231 0.21717 0.0
C1696 C 0.96602 0.00246 0.21003 0.0
C1697 C 0.97481 0.01889 0.1922 0.0
C1698 C 0.9263 0.0214 0.20839 0.0
C1699 C 0.95872 0.03649 0.18294 0.0
C1700 C 0.88704 0.04445 0.21408 0.0
C1701 C 0.86767 0.00493 0.23959 0.0
N1702 N 0.93523 0.0374 0.19126 0.0
N1703 N 0.89039 0.00398 0.22955 0.0
H1704 H 0.21459 0.89225 0.40979 0.0
H1705 H 0.18293 0.7751 0.49219 0.0
H1706 H 0.15453 0.8899 0.46132 0.0
H1707 H 0.2284 0.7732 0.42717 0.0
H1708 H 0.17543 0.81838 0.48459 0.0
H1709 H 0.22434 0.85018 0.42065 0.0
C1710 C 0.2038 0.88307 0.4238 0.0
C1711 C 0.18366 0.89454 0.4346 0.0
C1712 C 0.18694 0.80843 0.47192 0.0
C1713 C 0.19442 0.84631 0.44677 0.0
C1714 C 0.19109 0.78372 0.47616 0.0
C1715 C 0.20617 0.77051 0.46019 0.0
C1716 C 0.19819 0.82006 0.45176 0.0
C1717 C 0.21649 0.78264 0.43984 0.0
C1718 C 0.20919 0.85897 0.42977 0.0
C1719 C 0.17018 0.8817 0.45249 0.0
N1720 N 0.21243 0.80676 0.43629 0.0
N1721 N 0.1757 0.85822 0.45791 0.0
H1722 H 0.35964 0.39406 0.76987 0.0
H1723 H 0.484 0.40411 0.79043 0.0
H1724 H 0.36197 0.47056 0.78769 0.0
H1725 H 0.46592 0.4571 0.84602 0.0
H1726 H 0.44053 0.39943 0.7809 0.0
H1727 H 0.39929 0.389 0.79007 0.0
C1728 C 0.36831 0.40974 0.77837 0.0
C1729 C 0.35768 0.43287 0.77676 0.0
C1730 C 0.44597 0.4115 0.79573 0.0
C1731 C 0.40316 0.42722 0.79953 0.0
C1732 C 0.47079 0.41424 0.8011 0.0
C1733 C 0.47851 0.43095 0.81906 0.0
C1734 C 0.42881 0.42599 0.80808 0.0
C1735 C 0.46068 0.44387 0.83216 0.0
C1736 C 0.39103 0.40685 0.78968 0.0
C1737 C 0.36966 0.45247 0.78827 0.0
N1738 N 0.43667 0.44156 0.82599 0.0
N1739 N 0.39188 0.44924 0.79904 0.0
H1740 H 0.81484 0.77147 0.96499 0.0
H1741 H 0.8757 0.88344 0.02978 0.0
H1742 H 0.87351 0.75723 0.01626 0.0
H1743 H 0.85978 0.88258 0.95166 0.0
H1744 H 0.87165 0.83878 0.03048 0.0
H1745 H 0.8251 0.81475 0.96637 0.0
C1746 C 0.82959 0.77749 0.97692 0.0
C1747 C 0.84338 0.76073 0.9905 0.0
C1748 C 0.86958 0.84847 0.01317 0.0
C1749 C 0.85525 0.81022 0.992 0.0
C1750 C 0.87207 0.87386 0.01268 0.0
C1751 C 0.8679 0.88678 0.99065 0.0
C1752 C 0.86231 0.83621 0.99164 0.0
C1753 C 0.86304 0.87345 0.96908 0.0
C1754 C 0.83561 0.80213 0.97744 0.0
C1755 C 0.86245 0.76961 0.0055 0.0
N1756 N 0.85982 0.84897 0.97024 0.0
N1757 N 0.86783 0.79387 0.00595 0.0
H1758 H 0.37494 0.00266 0.12456 0.0
H1759 H 0.47737 0.08398 0.19098 0.0
H1760 H 0.35924 0.06638 0.16799 0.0
H1761 H 0.49454 0.0327 0.13341 0.0
H1762 H 0.43406 0.0747 0.18546 0.0
H1763 H 0.41874 0.01132 0.12901 0.0
C1764 C 0.38069 0.01868 0.13471 0.0
C1765 C 0.36338 0.03388 0.14584 0.0
C1766 C 0.44727 0.06537 0.17409 0.0
C1767 C 0.41347 0.04354 0.15151 0.0
C1768 C 0.47207 0.0705 0.17738 0.0
C1769 C 0.48967 0.0591 0.16263 0.0
C1770 C 0.43987 0.04859 0.15598 0.0
C1771 C 0.48162 0.04187 0.14522 0.0
C1772 C 0.4057 0.02353 0.13735 0.0
C1773 C 0.3719 0.05426 0.15896 0.0
N1774 N 0.45729 0.03717 0.14234 0.0
N1775 N 0.3963 0.05836 0.1616 0.0
H1776 H 0.49209 0.34284 0.03423 0.0
H1777 H 0.55438 0.33768 0.16475 0.0
H1778 H 0.5704 0.34472 0.04352 0.0
H1779 H 0.4886 0.37968 0.15618 0.0
H1780 H 0.55735 0.33437 0.11991 0.0
H1781 H 0.48745 0.35278 0.07828 0.0
C1782 C 0.50829 0.34595 0.04534 0.0
C1783 C 0.53168 0.34291 0.03515 0.0
C1784 C 0.54224 0.34429 0.12783 0.0
C1785 C 0.52644 0.3533 0.0855 0.0
C1786 C 0.54037 0.34598 0.15344 0.0
C1787 C 0.52117 0.35895 0.16424 0.0
C1788 C 0.52454 0.3552 0.11277 0.0
C1789 C 0.50368 0.36951 0.14857 0.0
C1790 C 0.5056 0.35147 0.07046 0.0
C1791 C 0.55202 0.34692 0.05049 0.0
N1792 N 0.50565 0.36724 0.12355 0.0
N1793 N 0.54892 0.35141 0.07496 0.0
H1794 H 0.01602 0.72575 0.15134 0.0
H1795 H 0.10413 0.74766 0.03528 0.0
H1796 H 0.0712 0.78222 0.15051 0.0
H1797 H 0.04126 0.69984 0.03497 0.0
H1798 H 0.0926 0.76156 0.07674 0.0
H1799 H 0.02622 0.71577 0.10878 0.0
C1800 C 0.0305 0.73592 0.14228 0.0
C1801 C 0.04284 0.75479 0.15462 0.0
C1802 C 0.08117 0.74828 0.06743 0.0
C1803 C 0.05449 0.74361 0.10543 0.0
C1804 C 0.08759 0.74052 0.04364 0.0
C1805 C 0.07366 0.72252 0.03159 0.0
C1806 C 0.06076 0.73784 0.07928 0.0
C1807 C 0.0526 0.7137 0.04351 0.0
C1808 C 0.03619 0.73033 0.11784 0.0
C1809 C 0.06131 0.76742 0.14177 0.0
N1810 N 0.04697 0.72125 0.06669 0.0
N1811 N 0.06659 0.76161 0.11788 0.0
H1812 H 0.47925 0.40979 0.30265 0.0
H1813 H 0.43216 0.31198 0.4024 0.0
H1814 H 0.4657 0.33414 0.28603 0.0
H1815 H 0.44694 0.3872 0.41995 0.0
H1816 H 0.44322 0.32014 0.35943 0.0
H1817 H 0.46471 0.4027 0.34482 0.0
C1818 C 0.47264 0.39182 0.30765 0.0
C1819 C 0.47368 0.37255 0.29067 0.0
C1820 C 0.44415 0.33488 0.37266 0.0
C1821 C 0.45759 0.36413 0.33925 0.0
C1822 C 0.43799 0.33018 0.39728 0.0
C1823 C 0.43873 0.3489 0.4149 0.0
C1824 C 0.45105 0.35853 0.36543 0.0
C1825 C 0.44625 0.37217 0.40707 0.0
C1826 C 0.46461 0.38771 0.33186 0.0
C1827 C 0.46516 0.34958 0.2984 0.0
N1828 N 0.45205 0.37633 0.38294 0.0
N1829 N 0.45771 0.34598 0.32212 0.0
H1830 H 0.01285 0.66005 0.532 0.0
H1831 H 0.95154 0.66829 0.66295 0.0
H1832 H 0.9348 0.65502 0.54223 0.0
H1833 H 0.02028 0.63106 0.65569 0.0
H1834 H 0.94771 0.66909 0.618 0.0
H1835 H 0.01845 0.65266 0.57647 0.0
C1836 C 0.99693 0.6567 0.54342 0.0
C1837 C 0.9733 0.65817 0.53332 0.0
C1838 C 0.96366 0.66076 0.62623 0.0
C1839 C 0.9796 0.65076 0.58418 0.0
C1840 C 0.966 0.66054 0.65189 0.0
C1841 C 0.9863 0.64963 0.66311 0.0
C1842 C 0.98194 0.65044 0.61152 0.0
C1843 C 0.00435 0.63967 0.64777 0.0
C1844 C 0.00016 0.65268 0.5688 0.0
C1845 C 0.95335 0.65398 0.5491 0.0
N1846 N 0.00186 0.64046 0.62269 0.0
N1847 N 0.95693 0.65099 0.57377 0.0
H1848 H 0.03639 0.60682 0.80037 0.0
H1849 H 0.07984 0.70644 0.89974 0.0
H1850 H 0.04029 0.68374 0.78468 0.0
H1851 H 0.06525 0.63123 0.91775 0.0
H1852 H 0.06848 0.69815 0.85679 0.0
H1853 H 0.05158 0.61483 0.84212 0.0
C1854 C 0.04101 0.62534 0.80547 0.0
C1855 C 0.03706 0.64462 0.7889 0.0
C1856 C 0.06766 0.68347 0.87014 0.0
C1857 C 0.05396 0.65402 0.83702 0.0
C1858 C 0.07402 0.68823 0.89473 0.0
C1859 C 0.07336 0.66954 0.91246 0.0
C1860 C 0.06077 0.65978 0.86309 0.0
C1861 C 0.06586 0.64624 0.90478 0.0
C1862 C 0.04941 0.62994 0.82946 0.0
C1863 C 0.04312 0.66829 0.79675 0.0
N1864 N 0.05996 0.64202 0.8807 0.0
N1865 N 0.05108 0.67233 0.82025 0.0
H1866 H 0.47633 0.87173 0.46897 0.0
H1867 H 0.51998 0.83505 0.3365 0.0
H1868 H 0.53354 0.81922 0.45829 0.0
H1869 H 0.4957 0.90811 0.35103 0.0
H1870 H 0.52374 0.82814 0.3811 0.0
H1871 H 0.48203 0.88555 0.42618 0.0
C1872 C 0.4905 0.86354 0.45785 0.0
C1873 C 0.50445 0.84428 0.46725 0.0
C1874 C 0.51792 0.8458 0.37451 0.0
C1875 C 0.51046 0.8594 0.41812 0.0
C1876 C 0.51572 0.84972 0.34909 0.0
C1877 C 0.50753 0.87217 0.34008 0.0
C1878 C 0.51126 0.86424 0.3911 0.0
C1879 C 0.50219 0.89055 0.35722 0.0
C1880 C 0.49367 0.87136 0.43341 0.0
C1881 C 0.52241 0.83417 0.45189 0.0
N1882 N 0.50374 0.88606 0.38193 0.0
N1883 N 0.52454 0.84149 0.42797 0.0
H1884 H 0.54672 0.32573 0.89522 0.0
H1885 H 0.53079 0.27472 0.77818 0.0
H1886 H 0.48258 0.28265 0.91184 0.0
H1887 H 0.45379 0.27634 0.79501 0.0
H1888 H 0.53956 0.29088 0.81947 0.0
H1889 H 0.5382 0.32086 0.85105 0.0
C1890 C 0.53061 0.31558 0.88959 0.0
C1891 C 0.51542 0.30439 0.90725 0.0
C1892 C 0.52072 0.28833 0.81388 0.0
C1893 C 0.50583 0.29846 0.85676 0.0
C1894 C 0.51573 0.27902 0.79032 0.0
C1895 C 0.49154 0.27422 0.7831 0.0
C1896 C 0.50139 0.29244 0.83043 0.0
C1897 C 0.47272 0.27987 0.79973 0.0
C1898 C 0.52595 0.31257 0.86437 0.0
C1899 C 0.49484 0.29144 0.89887 0.0
N1900 N 0.47806 0.2882 0.82276 0.0
N1901 N 0.49067 0.28879 0.87422 0.0
H1902 H 0.40337 0.90989 0.67723 0.0
H1903 H 0.28187 0.93945 0.69396 0.0
H1904 H 0.3992 0.96643 0.622 0.0
H1905 H 0.28007 0.95292 0.61545 0.0
H1906 H 0.32544 0.92997 0.69072 0.0
H1907 H 0.35882 0.90593 0.67614 0.0
C1908 C 0.39317 0.921 0.66435 0.0
C1909 C 0.40502 0.93876 0.64989 0.0
C1910 C 0.31536 0.93435 0.6741 0.0
C1911 C 0.35405 0.93464 0.64901 0.0
C1912 C 0.29054 0.93992 0.67598 0.0
C1913 C 0.27735 0.94693 0.65495 0.0
C1914 C 0.32714 0.93627 0.65108 0.0
C1915 C 0.28954 0.94747 0.63212 0.0
C1916 C 0.36771 0.91896 0.66405 0.0
C1917 C 0.3908 0.95265 0.6336 0.0
N1918 N 0.31386 0.94272 0.63087 0.0
N1919 N 0.36601 0.95045 0.63375 0.0
H1920 H 0.83028 0.14 0.05163 0.0
H1921 H 0.88097 0.02535 0.97853 0.0
H1922 H 0.83095 0.13404 0.97216 0.0
H1923 H 0.84895 0.02176 0.05123 0.0
H1924 H 0.87831 0.06977 0.97983 0.0
H1925 H 0.85243 0.10163 0.0545 0.0
C1926 C 0.83564 0.13096 0.03474 0.0
C1927 C 0.82837 0.13998 0.0116 0.0
C1928 C 0.87254 0.05925 0.99576 0.0
C1929 C 0.85378 0.09619 0.01485 0.0
C1930 C 0.87424 0.03392 0.99516 0.0
C1931 C 0.86478 0.01986 0.01467 0.0
C1932 C 0.86164 0.07052 0.01615 0.0
C1933 C 0.85618 0.03193 0.0357 0.0
C1934 C 0.84822 0.10904 0.03644 0.0
C1935 C 0.83593 0.12755 0.99037 0.0
N1936 N 0.85448 0.0566 0.03574 0.0
N1937 N 0.84797 0.10608 0.9925 0.0
H1938 H 0.89228 0.60061 0.31727 0.0
H1939 H 0.77608 0.55467 0.39342 0.0
H1940 H 0.89659 0.55116 0.37911 0.0
H1941 H 0.77527 0.57261 0.31582 0.0
H1942 H 0.81903 0.56759 0.39552 0.0
H1943 H 0.84854 0.60514 0.32492 0.0
C1944 C 0.88426 0.59142 0.33305 0.0
C1945 C 0.89802 0.57509 0.34731 0.0
C1946 C 0.80923 0.56922 0.37821 0.0
C1947 C 0.84802 0.58017 0.35599 0.0
C1948 C 0.78473 0.56195 0.37698 0.0
C1949 C 0.77224 0.5623 0.35432 0.0
C1950 C 0.82112 0.57725 0.3567 0.0
C1951 C 0.78434 0.57182 0.33359 0.0
C1952 C 0.85924 0.59387 0.33723 0.0
C1953 C 0.88659 0.56369 0.36749 0.0
N1954 N 0.80819 0.57873 0.33522 0.0
N1955 N 0.86212 0.56612 0.371 0.0
H1956 H 0.1641 0.527 0.45508 0.0
H1957 H 0.18379 0.64678 0.52879 0.0
H1958 H 0.13783 0.53397 0.52979 0.0
H1959 H 0.17671 0.64692 0.44939 0.0
H1960 H 0.16458 0.60632 0.52988 0.0
H1961 H 0.16628 0.57138 0.45193 0.0
C1962 C 0.15816 0.5379 0.47057 0.0
C1963 C 0.15093 0.52683 0.49275 0.0
C1964 C 0.16674 0.61548 0.51228 0.0
C1965 C 0.15414 0.57751 0.48962 0.0
C1966 C 0.1777 0.63856 0.51167 0.0
C1967 C 0.18214 0.65009 0.48896 0.0
C1968 C 0.16068 0.60375 0.49001 0.0
C1969 C 0.17386 0.6386 0.46731 0.0
C1970 C 0.15946 0.56323 0.46882 0.0
C1971 C 0.14352 0.5418 0.51234 0.0
N1972 N 0.16402 0.61587 0.46832 0.0
N1973 N 0.14589 0.56639 0.51054 0.0
H1974 H 0.09654 0.07285 0.15943 0.0
H1975 H 0.2175 0.05215 0.18597 0.0
H1976 H 0.10997 0.01895 0.10332 0.0
H1977 H 0.22755 0.03996 0.10798 0.0
H1978 H 0.17424 0.06021 0.17834 0.0
H1979 H 0.14042 0.08146 0.16134 0.0
C1980 C 0.10859 0.06338 0.1469 0.0
C1981 C 0.09958 0.04484 0.13145 0.0
C1982 C 0.18603 0.05655 0.16277 0.0
C1983 C 0.14986 0.05418 0.13408 0.0
C1984 C 0.21072 0.05179 0.16716 0.0
C1985 C 0.22614 0.04538 0.1476 0.0
C1986 C 0.17659 0.05441 0.13868 0.0
C1987 C 0.21632 0.04495 0.12359 0.0
C1988 C 0.1337 0.06804 0.14833 0.0
C1989 C 0.11614 0.0332 0.11569 0.0
N1990 N 0.19205 0.0488 0.11988 0.0
N1991 N 0.14053 0.03782 0.11763 0.0
H1992 H 0.65288 0.98105 0.56507 0.0
H1993 H 0.6711 0.86436 0.48662 0.0
H1994 H 0.61991 0.97283 0.49312 0.0
H1995 H 0.67684 0.86337 0.56611 0.0
H1996 H 0.64848 0.90254 0.48925 0.0
H1997 H 0.65741 0.93689 0.56755 0.0
C1998 C 0.6459 0.96989 0.55014 0.0
C1999 C 0.63633 0.98063 0.52873 0.0
C2000 C 0.65421 0.89369 0.50615 0.0
C2001 C 0.64219 0.93022 0.53104 0.0
C2002 C 0.66716 0.87191 0.50464 0.0
C2003 C 0.67615 0.86088 0.52615 0.0
C2004 C 0.6507 0.9047 0.5293 0.0
C2005 C 0.67044 0.87139 0.54903 0.0
C2006 C 0.64858 0.94467 0.55149 0.0
C2007 C 0.62756 0.96531 0.50991 0.0
N2008 N 0.65854 0.89298 0.54999 0.0
N2009 N 0.6313 0.94091 0.5112 0.0
H2010 H 0.73506 0.43514 0.89099 0.0
H2011 H 0.60958 0.45018 0.88567 0.0
H2012 H 0.72637 0.43472 0.81176 0.0
H2013 H 0.61186 0.40445 0.82104 0.0
H2014 H 0.65382 0.44579 0.89011 0.0
H2015 H 0.69164 0.42507 0.89544 0.0
C2016 C 0.72413 0.43251 0.87451 0.0
C2017 C 0.73425 0.43614 0.85094 0.0
C2018 C 0.64453 0.436 0.87547 0.0
C2019 C 0.68459 0.42488 0.85597 0.0
C2020 C 0.61925 0.43851 0.87295 0.0
C2021 C 0.60703 0.42776 0.85292 0.0
C2022 C 0.65766 0.42302 0.85755 0.0
C2023 C 0.62053 0.41306 0.83678 0.0
C2024 C 0.69931 0.42698 0.87711 0.0
C2025 C 0.71924 0.43237 0.83026 0.0
N2026 N 0.64522 0.41169 0.83903 0.0
N2027 N 0.6951 0.42708 0.83326 0.0
H2028 H 0.32817 0.35177 0.93138 0.0
H2029 H 0.33473 0.47719 0.93261 0.0
H2030 H 0.32287 0.36211 0.0102 0.0
H2031 H 0.37335 0.46964 0.0017 0.0
H2032 H 0.33146 0.43287 0.92999 0.0
H2033 H 0.34623 0.39239 0.92747 0.0
C2034 C 0.33119 0.36242 0.94794 0.0
C2035 C 0.32359 0.35372 0.97114 0.0
C2036 C 0.34139 0.44086 0.9453 0.0
C2037 C 0.34389 0.40031 0.96665 0.0
C2038 C 0.3432 0.46618 0.94681 0.0
C2039 C 0.35427 0.47709 0.9674 0.0
C2040 C 0.3503 0.42644 0.96478 0.0
C2041 C 0.36471 0.46196 0.98545 0.0
C2042 C 0.34129 0.38568 0.94562 0.0
C2043 C 0.3282 0.36822 0.99195 0.0
N2044 N 0.3619 0.4374 0.98406 0.0
N2045 N 0.33787 0.39095 0.98919 0.0
H2046 H 0.38343 0.60338 0.0359 0.0
H2047 H 0.3906 0.7379 0.98228 0.0
H2048 H 0.37591 0.61472 0.95734 0.0
H2049 H 0.35023 0.71703 0.04746 0.0
H2050 H 0.39817 0.6944 0.97381 0.0
H2051 H 0.387 0.64731 0.04155 0.0
C2052 C 0.38333 0.61503 0.01973 0.0
C2053 C 0.37889 0.60541 0.99616 0.0
C2054 C 0.38771 0.69955 0.98993 0.0
C2055 C 0.38282 0.65562 0.00261 0.0
C2056 C 0.38331 0.72419 0.9947 0.0
C2057 C 0.36956 0.73094 0.01544 0.0
C2058 C 0.37901 0.68187 0.00653 0.0
C2059 C 0.36065 0.7126 0.0311 0.0
C2060 C 0.38515 0.64009 0.02303 0.0
C2061 C 0.37909 0.62143 0.97587 0.0
N2062 N 0.36573 0.68894 0.02646 0.0
N2063 N 0.38059 0.64591 0.97957 0.0
H2064 H 0.67425 0.61558 0.53164 0.0
H2065 H 0.75031 0.73485 0.56946 0.0
H2066 H 0.72719 0.61589 0.59076 0.0
H2067 H 0.6877 0.73444 0.52094 0.0
H2068 H 0.74594 0.69062 0.57442 0.0
H2069 H 0.68416 0.65804 0.52302 0.0
C2070 C 0.68836 0.62446 0.5425 0.0
C2071 C 0.69978 0.61224 0.56207 0.0
C2072 C 0.73316 0.70025 0.56273 0.0
C2073 C 0.71083 0.66115 0.55268 0.0
C2074 C 0.73555 0.72549 0.56001 0.0
C2075 C 0.71922 0.73835 0.5449 0.0
C2076 C 0.71446 0.68783 0.55006 0.0
C2077 C 0.70058 0.7253 0.53291 0.0
C2078 C 0.69385 0.6488 0.53771 0.0
C2079 C 0.71796 0.62465 0.57548 0.0
N2080 N 0.69876 0.7008 0.5357 0.0
N2081 N 0.72273 0.64857 0.57074 0.0
H2082 H 0.28095 0.22425 0.92522 0.0
H2083 H 0.35777 0.11218 0.9761 0.0
H2084 H 0.32458 0.22841 0.99157 0.0
H2085 H 0.30094 0.10517 0.92119 0.0
H2086 H 0.34614 0.15458 0.98244 0.0
H2087 H 0.28966 0.18084 0.92254 0.0
C2088 C 0.29262 0.21608 0.93908 0.0
C2089 C 0.30216 0.22998 0.9586 0.0
C2090 C 0.33598 0.14367 0.96927 0.0
C2091 C 0.31191 0.18018 0.95584 0.0
C2092 C 0.3425 0.11942 0.96576 0.0
C2093 C 0.33035 0.10517 0.94803 0.0
C2094 C 0.31741 0.15382 0.9547 0.0
C2095 C 0.31076 0.11549 0.93509 0.0
C2096 C 0.29737 0.19123 0.93768 0.0
C2097 C 0.31696 0.21838 0.97615 0.0
N2098 N 0.30512 0.1393 0.93843 0.0
N2099 N 0.32142 0.19413 0.97434 0.0
H2100 H 0.62466 0.24381 0.52432 0.0
H2101 H 0.62919 0.11447 0.46022 0.0
H2102 H 0.67543 0.22516 0.46658 0.0
H2103 H 0.62199 0.11796 0.53953 0.0
H2104 H 0.63304 0.15872 0.45895 0.0
H2105 H 0.6131 0.20041 0.5278 0.0
C2106 C 0.63354 0.23059 0.51262 0.0
C2107 C 0.65115 0.23802 0.49526 0.0
C2108 C 0.63011 0.14978 0.47656 0.0
C2109 C 0.63728 0.18905 0.49839 0.0
C2110 C 0.62762 0.12455 0.47731 0.0
C2111 C 0.62562 0.11244 0.50007 0.0
C2112 C 0.63021 0.16306 0.49864 0.0
C2113 C 0.62367 0.12657 0.52161 0.0
C2114 C 0.62685 0.20599 0.51453 0.0
C2115 C 0.66196 0.22024 0.48037 0.0
N2116 N 0.6263 0.15123 0.52043 0.0
N2117 N 0.65461 0.19666 0.48205 0.0
H2118 H 0.59955 0.77693 0.96817 0.0
H2119 H 0.51221 0.77336 0.84927 0.0
H2120 H 0.53572 0.82198 0.9609 0.0
H2121 H 0.58629 0.74711 0.84918 0.0
H2122 H 0.51776 0.78691 0.89204 0.0
H2123 H 0.59145 0.7602 0.92704 0.0
C2124 C 0.58349 0.78288 0.9582 0.0
C2125 C 0.56829 0.80091 0.96803 0.0
C2126 C 0.53282 0.77827 0.88262 0.0
C2127 C 0.55915 0.78211 0.92072 0.0
C2128 C 0.52971 0.77061 0.85818 0.0
C2129 C 0.54888 0.75924 0.84555 0.0
C2130 C 0.55516 0.7742 0.89471 0.0
C2131 C 0.57109 0.75599 0.85811 0.0
C2132 C 0.57905 0.77354 0.93458 0.0
C2133 C 0.54791 0.80811 0.95407 0.0
N2134 N 0.57358 0.7633 0.88201 0.0
N2135 N 0.544 0.79879 0.93111 0.0
H2136 H 0.04513 0.16099 0.83915 0.0
H2137 H 0.97789 0.16049 0.96637 0.0
H2138 H 0.97513 0.12461 0.84359 0.0
H2139 H 0.05542 0.14793 0.96066 0.0
H2140 H 0.9737 0.15146 0.92204 0.0
H2141 H 0.04657 0.16277 0.88422 0.0
C2142 C 0.0299 0.15363 0.84961 0.0
C2143 C 0.00995 0.14267 0.83759 0.0
C2144 C 0.99149 0.15019 0.93072 0.0
C2145 C 0.01154 0.14469 0.88925 0.0
C2146 C 0.9939 0.15516 0.95601 0.0
C2147 C 0.01707 0.15502 0.96728 0.0
C2148 C 0.01247 0.14572 0.91661 0.0
C2149 C 0.0372 0.14825 0.95285 0.0
C2150 C 0.03088 0.15442 0.87532 0.0
C2151 C 0.99084 0.13322 0.85216 0.0
N2152 N 0.03452 0.14443 0.9282 0.0
N2153 N 0.99197 0.13464 0.87731 0.0
H2154 H 0.55494 0.85385 0.21887 0.0
H2155 H 0.55518 0.89895 0.07775 0.0
H2156 H 0.52306 0.9218 0.19583 0.0
H2157 H 0.57438 0.82651 0.10127 0.0
H2158 H 0.54625 0.90942 0.12088 0.0
H2159 H 0.56699 0.84613 0.17622 0.0
C2160 C 0.55102 0.86748 0.20496 0.0
C2161 C 0.53794 0.88852 0.21104 0.0
C2162 C 0.5523 0.89121 0.11655 0.0
C2163 C 0.55119 0.87946 0.16181 0.0
C2164 C 0.55723 0.88517 0.09191 0.0
C2165 C 0.56543 0.86177 0.08582 0.0
C2166 C 0.55583 0.87381 0.13528 0.0
C2167 C 0.56799 0.84473 0.10501 0.0
C2168 C 0.55763 0.8629 0.18049 0.0
C2169 C 0.53319 0.90537 0.19206 0.0
N2170 N 0.56334 0.85111 0.1288 0.0
N2171 N 0.53961 0.90039 0.16829 0.0
H2172 H 0.89486 0.23106 0.46368 0.0
H2173 H 0.98733 0.23064 0.34898 0.0
H2174 H 0.96054 0.18816 0.46225 0.0
H2175 H 0.91325 0.25655 0.34438 0.0
H2176 H 0.98013 0.219 0.39209 0.0
H2177 H 0.90436 0.246 0.42212 0.0
C2178 C 0.91159 0.22524 0.45489 0.0
C2179 C 0.92692 0.2083 0.46648 0.0
C2180 C 0.96542 0.22713 0.38161 0.0
C2181 C 0.93766 0.22499 0.41869 0.0
C2182 C 0.96948 0.23367 0.35697 0.0
C2183 C 0.9508 0.24441 0.34299 0.0
C2184 C 0.94262 0.23166 0.39251 0.0
C2185 C 0.9281 0.24811 0.35438 0.0
C2186 C 0.91684 0.23354 0.43102 0.0
C2187 C 0.9482 0.20119 0.45403 0.0
N2188 N 0.92468 0.24187 0.37849 0.0
N2189 N 0.95287 0.20945 0.43078 0.0
H2190 H 0.96849 0.09333 0.69915 0.0
H2191 H 0.92467 0.19072 0.59809 0.0
H2192 H 0.95665 0.16926 0.71493 0.0
H2193 H 0.93699 0.11506 0.58145 0.0
H2194 H 0.93525 0.18282 0.64121 0.0
H2195 H 0.95428 0.10014 0.65682 0.0
C2196 C 0.96231 0.11131 0.69393 0.0
C2197 C 0.96375 0.13074 0.71071 0.0
C2198 C 0.93574 0.16792 0.62815 0.0
C2199 C 0.94806 0.13881 0.66196 0.0
C2200 C 0.92987 0.17247 0.60344 0.0
C2201 C 0.93005 0.15355 0.58604 0.0
C2202 C 0.94182 0.14423 0.63568 0.0
C2203 C 0.93676 0.13023 0.59417 0.0
C2204 C 0.95447 0.11524 0.66963 0.0
C2205 C 0.95578 0.1537 0.70271 0.0
N2206 N 0.94231 0.12623 0.61838 0.0
N2207 N 0.94853 0.15713 0.67891 0.0
H2208 H 0.40226 0.27154 0.53767 0.0
H2209 H 0.49197 0.27698 0.65497 0.0
H2210 H 0.46727 0.31631 0.54067 0.0
H2211 H 0.42034 0.24377 0.65697 0.0
H2212 H 0.48498 0.28852 0.61189 0.0
H2213 H 0.41105 0.25695 0.57955 0.0
C2214 C 0.4187 0.27786 0.54688 0.0
C2215 C 0.43407 0.29517 0.53559 0.0
C2216 C 0.47073 0.2788 0.62175 0.0
C2217 C 0.44398 0.2789 0.58377 0.0
C2218 C 0.47466 0.27231 0.64642 0.0
C2219 C 0.45665 0.25953 0.6597 0.0
C2220 C 0.44869 0.27227 0.61007 0.0
C2221 C 0.43465 0.2538 0.64754 0.0
C2222 C 0.42354 0.26975 0.57093 0.0
C2223 C 0.45492 0.30295 0.54861 0.0
N2224 N 0.43134 0.26011 0.62341 0.0
N2225 N 0.45918 0.29488 0.572 0.0
H2226 H 0.53976 0.79488 0.72267 0.0
H2227 H 0.50024 0.75258 0.59121 0.0
H2228 H 0.48423 0.73969 0.71238 0.0
H2229 H 0.50537 0.83001 0.60359 0.0
H2230 H 0.5029 0.74582 0.6357 0.0
H2231 H 0.53415 0.80758 0.67936 0.0
C2232 C 0.52601 0.78583 0.71149 0.0
C2233 C 0.51238 0.76623 0.72115 0.0
C2234 C 0.50356 0.76428 0.62865 0.0
C2235 C 0.50669 0.77999 0.67168 0.0
C2236 C 0.50233 0.76818 0.60326 0.0
C2237 C 0.50263 0.79192 0.59365 0.0
C2238 C 0.5057 0.78418 0.64467 0.0
C2239 C 0.50511 0.81143 0.61027 0.0
C2240 C 0.52292 0.79303 0.68685 0.0
C2241 C 0.495 0.75497 0.7058 0.0
N2242 N 0.50675 0.80714 0.63506 0.0
N2243 N 0.49304 0.76166 0.6817 0.0
H2244 H 0.50517 0.52861 0.37607 0.0
H2245 H 0.6412 0.57378 0.34799 0.0
H2246 H 0.52394 0.58065 0.31924 0.0
H2247 H 0.62698 0.50329 0.3804 0.0
H2248 H 0.59724 0.57986 0.34367 0.0
H2249 H 0.54898 0.52103 0.38259 0.0
C2250 C 0.51844 0.53814 0.36473 0.0
C2251 C 0.51088 0.55527 0.34707 0.0
C2252 C 0.60373 0.56313 0.35191 0.0
C2253 C 0.56076 0.54728 0.35496 0.0
C2254 C 0.62882 0.55977 0.35464 0.0
C2255 C 0.63777 0.53799 0.36454 0.0
C2256 C 0.58739 0.5447 0.35933 0.0
C2257 C 0.62082 0.52036 0.37266 0.0
C2258 C 0.54339 0.53392 0.36857 0.0
C2259 C 0.52887 0.56726 0.33303 0.0
N2260 N 0.5964 0.52407 0.36984 0.0
N2261 N 0.55291 0.56324 0.33747 0.0
H2262 H 0.5479 0.966 0.6497 0.0
H2263 H 0.65698 0.98221 0.71324 0.0
H2264 H 0.53421 0.91421 0.70815 0.0
H2265 H 0.64959 0.9067 0.73411 0.0
H2266 H 0.61853 0.97898 0.69024 0.0
H2267 H 0.59165 0.96459 0.65932 0.0
C2268 C 0.55416 0.95387 0.66414 0.0
C2269 C 0.5374 0.9404 0.67837 0.0
C2270 C 0.62567 0.96293 0.69923 0.0
C2271 C 0.5872 0.93918 0.6898 0.0
C2272 C 0.64754 0.96483 0.71251 0.0
C2273 C 0.65643 0.94474 0.72567 0.0
C2274 C 0.61248 0.94085 0.69944 0.0
C2275 C 0.6434 0.92266 0.72424 0.0
C2276 C 0.57908 0.95337 0.66985 0.0
C2277 C 0.54651 0.92506 0.6969 0.0
N2278 N 0.62183 0.92145 0.71181 0.0
N2279 N 0.57079 0.92499 0.7022 0.0
H2280 H 0.15207 0.58484 0.28066 0.0
H2281 H 0.01549 0.55382 0.25313 0.0
H2282 H 0.13116 0.52043 0.24012 0.0
H2283 H 0.03378 0.5707 0.32883 0.0
H2284 H 0.05892 0.55178 0.24345 0.0
H2285 H 0.10968 0.58835 0.29552 0.0
C2286 C 0.13868 0.57123 0.27527 0.0
C2287 C 0.14508 0.55227 0.25919 0.0
C2288 C 0.05337 0.55618 0.26211 0.0
C2289 C 0.09687 0.55677 0.27525 0.0
C2290 C 0.02862 0.55762 0.26764 0.0
C2291 C 0.02099 0.56235 0.29189 0.0
C2292 C 0.07071 0.56002 0.28076 0.0
C2293 C 0.03893 0.56697 0.30992 0.0
C2294 C 0.11461 0.5733 0.28369 0.0
C2295 C 0.12705 0.53522 0.2526 0.0
N2296 N 0.06311 0.56574 0.30399 0.0
N2297 N 0.10365 0.53815 0.26026 0.0
H2298 H 0.1527 0.91708 0.68318 0.0
H2299 H 0.0146 0.94421 0.64269 0.0
H2300 H 0.13353 0.95969 0.61909 0.0
H2301 H 0.03398 0.89885 0.70473 0.0
H2302 H 0.05807 0.95049 0.63398 0.0
H2303 H 0.10935 0.90886 0.6904 0.0
C2304 C 0.13941 0.92423 0.67027 0.0
C2305 C 0.14679 0.93909 0.65049 0.0
C2306 C 0.05282 0.93927 0.64959 0.0
C2307 C 0.09701 0.93033 0.65906 0.0
C2308 C 0.02799 0.93589 0.65472 0.0
C2309 C 0.02063 0.92104 0.67452 0.0
C2310 C 0.07044 0.92771 0.66434 0.0
C2311 C 0.03881 0.91051 0.68933 0.0
C2312 C 0.11461 0.91976 0.67457 0.0
C2313 C 0.1287 0.94807 0.63453 0.0
N2314 N 0.06283 0.91397 0.68389 0.0
N2315 N 0.10466 0.94376 0.6393 0.0
H2316 H 0.0015 0.17136 0.10185 0.0
H2317 H 0.02256 0.26242 0.2132 0.0
H2318 H 0.01275 0.24852 0.09167 0.0
H2319 H 0.96447 0.20916 0.21865 0.0
H2320 H 0.02948 0.24992 0.17043 0.0
H2321 H 0.99624 0.17844 0.1466 0.0
C2322 C 0.00264 0.18974 0.10898 0.0
C2323 C 0.00735 0.20942 0.09303 0.0
C2324 C 0.01551 0.2407 0.18119 0.0
C2325 C 0.00244 0.21736 0.14384 0.0
C2326 C 0.01171 0.24762 0.20565 0.0
C2327 C 0.99283 0.23687 0.21948 0.0
C2328 C 0.00069 0.22258 0.17058 0.0
C2329 C 0.97918 0.21794 0.20858 0.0
C2330 C -0.00026 0.19371 0.1344 0.0
C2331 C 0.00889 0.23285 0.10322 0.0
N2332 N 0.98331 0.21139 0.18468 0.0
N2333 N 0.00677 0.23612 0.12796 0.0
H2334 H 0.01817 0.70961 0.27638 0.0
H2335 H 0.98564 0.75012 0.40929 0.0
H2336 H 0.96322 0.76409 0.28872 0.0
H2337 H 0.98231 0.67281 0.39569 0.0
H2338 H 0.98777 0.75731 0.3648 0.0
H2339 H 0.01369 0.69634 0.31969 0.0
C2340 C 0.00479 0.71838 0.28802 0.0
C2341 C 0.99095 0.73791 0.27895 0.0
C2342 C 0.98678 0.73877 0.37162 0.0
C2343 C 0.98659 0.72355 0.32836 0.0
C2344 C 0.98584 0.7346 0.39698 0.0
C2345 C 0.98384 0.7108 0.40623 0.0
C2346 C 0.98634 0.71903 0.35529 0.0
C2347 C 0.98388 0.69143 0.38929 0.0
C2348 C 0.00234 0.71086 0.31265 0.0
C2349 C 0.97409 0.74885 0.29487 0.0
N2350 N 0.98529 0.69594 0.36453 0.0
N2351 N 0.97278 0.74189 0.31894 0.0
loop_
_geom_bond_atom_site_label_1
_geom_bond_atom_site_label_2
_geom_bond_distance
_geom_bond_site_symmetry_2
_ccdc_geom_bond_type
In0 O1 2.294 . S
In0 O2 2.326 . S
In0 O6 2.266 . S
In0 O7 2.326 . S
In0 O8 2.266 . S
In0 O9 2.326 . S
In0 O11 2.294 . S
In0 O12 2.326 . S
O1 In0 2.294 . S
O1 C10 1.240 . S
O2 In0 2.326 . S
O2 C10 1.252 . S
C3 O6 1.252 . S
C3 O7 1.260 . S
C4 O11 1.240 . S
C4 O12 1.252 . S
C5 O8 1.252 . S
C5 O9 1.260 . S
O6 In0 2.266 . S
O6 C3 1.252 . S
O7 In0 2.326 . S
O7 C3 1.260 . S
O8 In0 2.266 . S
O8 C5 1.252 . S
O9 In0 2.326 . S
O9 C5 1.260 . S
C10 O1 1.240 . S
C10 O2 1.252 . S
O11 In0 2.294 . S
O11 C4 1.240 . S
O12 In0 2.326 . S
O12 C4 1.252 . S
In13 O14 2.294 . S
In13 O15 2.326 . S
In13 O19 2.266 . S
In13 O20 2.326 . S
In13 O21 2.266 . S
In13 O22 2.326 . S
In13 O24 2.294 . S
In13 O25 2.326 . S
O14 In13 2.294 . S
O14 C23 1.240 . S
O15 In13 2.326 . S
O15 C23 1.252 . S
C16 O19 1.252 . S
C16 O20 1.260 . S
C17 O24 1.240 . S
C17 O25 1.252 . S
C18 O21 1.252 . S
C18 O22 1.260 . S
O19 In13 2.266 . S
O19 C16 1.252 . S
O20 In13 2.326 . S
O20 C16 1.260 . S
O21 In13 2.266 . S
O21 C18 1.252 . S
O22 In13 2.326 . S
O22 C18 1.260 . S
C23 O14 1.240 . S
C23 O15 1.252 . S
O24 In13 2.294 . S
O24 C17 1.240 . S
O25 In13 2.326 . S
O25 C17 1.252 . S
In26 O27 2.294 . S
In26 O28 2.326 . S
In26 O32 2.266 . S
In26 O33 2.326 . S
In26 O34 2.266 . S
In26 O35 2.326 . S
In26 O37 2.294 . S
In26 O38 2.326 . S
O27 In26 2.294 . S
O27 C36 1.240 . S
O28 In26 2.326 . S
O28 C36 1.252 . S
C29 O32 1.252 . S
C29 O33 1.260 . S
C30 O37 1.240 . S
C30 O38 1.252 . S
C31 O34 1.252 . S
C31 O35 1.260 . S
O32 In26 2.266 . S
O32 C29 1.252 . S
O33 In26 2.326 . S
O33 C29 1.260 . S
O34 In26 2.266 . S
O34 C31 1.252 . S
O35 In26 2.326 . S
O35 C31 1.260 . S
C36 O27 1.240 . S
C36 O28 1.252 . S
O37 In26 2.294 . S
O37 C30 1.240 . S
O38 In26 2.326 . S
O38 C30 1.252 . S
In39 O40 2.294 . S
In39 O41 2.326 . S
In39 O45 2.266 . S
In39 O46 2.326 . S
In39 O47 2.266 . S
In39 O48 2.326 . S
In39 O50 2.294 . S
In39 O51 2.326 . S
O40 In39 2.294 . S
O40 C49 1.240 . S
O41 In39 2.326 . S
O41 C49 1.252 . S
C42 O45 1.252 . S
C42 O46 1.260 . S
C43 O50 1.240 . S
C43 O51 1.252 . S
C44 O47 1.252 . S
C44 O48 1.260 . S
O45 In39 2.266 . S
O45 C42 1.252 . S
O46 In39 2.326 . S
O46 C42 1.260 . S
O47 In39 2.266 . S
O47 C44 1.252 . S
O48 In39 2.326 . S
O48 C44 1.260 . S
C49 O40 1.240 . S
C49 O41 1.252 . S
O50 In39 2.294 . S
O50 C43 1.240 . S
O51 In39 2.326 . S
O51 C43 1.252 . S
In52 O53 2.294 . S
In52 O54 2.326 . S
In52 O58 2.266 . S
In52 O59 2.326 . S
In52 O60 2.266 . S
In52 O61 2.326 . S
In52 O63 2.294 . S
In52 O64 2.326 . S
O53 In52 2.294 . S
O53 C62 1.240 . S
O54 In52 2.326 . S
O54 C62 1.252 . S
C55 O58 1.252 . S
C55 O59 1.260 . S
C56 O63 1.240 . S
C56 O64 1.252 . S
C57 O60 1.252 . S
C57 O61 1.260 . S
O58 In52 2.266 . S
O58 C55 1.252 . S
O59 In52 2.326 . S
O59 C55 1.260 . S
O60 In52 2.266 . S
O60 C57 1.252 . S
O61 In52 2.326 . S
O61 C57 1.260 . S
C62 O53 1.240 . S
C62 O54 1.252 . S
O63 In52 2.294 . S
O63 C56 1.240 . S
O64 In52 2.326 . S
O64 C56 1.252 . S
In65 O66 2.294 . S
In65 O67 2.326 . S
In65 O71 2.266 . S
In65 O72 2.326 . S
In65 O73 2.266 . S
In65 O74 2.326 . S
In65 O76 2.294 . S
In65 O77 2.326 . S
O66 In65 2.294 . S
O66 C75 1.240 . S
O67 In65 2.326 . S
O67 C75 1.252 . S
C68 O71 1.252 . S
C68 O72 1.260 . S
C69 O76 1.240 . S
C69 O77 1.252 . S
C70 O73 1.252 . S
C70 O74 1.260 . S
O71 In65 2.266 . S
O71 C68 1.252 . S
O72 In65 2.326 . S
O72 C68 1.260 . S
O73 In65 2.266 . S
O73 C70 1.252 . S
O74 In65 2.326 . S
O74 C70 1.260 . S
C75 O66 1.240 . S
C75 O67 1.252 . S
O76 In65 2.294 . S
O76 C69 1.240 . S
O77 In65 2.326 . S
O77 C69 1.252 . S
In78 O79 2.294 . S
In78 O80 2.326 . S
In78 O84 2.266 . S
In78 O85 2.326 . S
In78 O86 2.266 1_545 S
In78 O87 2.326 . S
In78 O89 2.294 1_545 S
In78 O90 2.326 . S
O79 In78 2.294 . S
O79 C88 1.240 . S
O80 In78 2.326 . S
O80 C88 1.252 . S
C81 O84 1.252 . S
C81 O85 1.260 . S
C82 O89 1.240 1_545 S
C82 O90 1.252 . S
C83 O86 1.252 1_545 S
C83 O87 1.260 . S
O84 In78 2.266 . S
O84 C81 1.252 . S
O85 In78 2.326 . S
O85 C81 1.260 . S
O86 In78 2.266 1_565 S
O86 C83 1.252 1_565 S
O87 In78 2.326 . S
O87 C83 1.260 . S
C88 O79 1.240 . S
C88 O80 1.252 . S
O89 In78 2.294 1_565 S
O89 C82 1.240 1_565 S
O90 In78 2.326 . S
O90 C82 1.252 . S
In91 O92 2.294 . S
In91 O93 2.326 . S
In91 O97 2.266 . S
In91 O98 2.326 . S
In91 O99 2.266 . S
In91 O100 2.326 . S
In91 O102 2.294 . S
In91 O103 2.326 . S
O92 In91 2.294 . S
O92 C101 1.240 . S
O93 In91 2.326 . S
O93 C101 1.252 . S
C94 O97 1.252 . S
C94 O98 1.260 . S
C95 O102 1.240 . S
C95 O103 1.252 . S
C96 O99 1.252 . S
C96 O100 1.260 . S
O97 In91 2.266 . S
O97 C94 1.252 . S
O98 In91 2.326 . S
O98 C94 1.260 . S
O99 In91 2.266 . S
O99 C96 1.252 . S
O100 In91 2.326 . S
O100 C96 1.260 . S
C101 O92 1.240 . S
C101 O93 1.252 . S
O102 In91 2.294 . S
O102 C95 1.240 . S
O103 In91 2.326 . S
O103 C95 1.252 . S
In104 O105 2.294 . S
In104 O106 2.326 . S
In104 O110 2.266 . S
In104 O111 2.326 . S
In104 O112 2.266 . S
In104 O113 2.326 . S
In104 O115 2.294 . S
In104 O116 2.326 . S
O105 In104 2.294 . S
O105 C114 1.240 . S
O106 In104 2.326 . S
O106 C114 1.252 . S
C107 O110 1.252 . S
C107 O111 1.260 . S
C108 O115 1.240 . S
C108 O116 1.252 . S
C109 O112 1.252 . S
C109 O113 1.260 . S
O110 In104 2.266 . S
O110 C107 1.252 . S
O111 In104 2.326 . S
O111 C107 1.260 . S
O112 In104 2.266 . S
O112 C109 1.252 . S
O113 In104 2.326 . S
O113 C109 1.260 . S
C114 O105 1.240 . S
C114 O106 1.252 . S
O115 In104 2.294 . S
O115 C108 1.240 . S
O116 In104 2.326 . S
O116 C108 1.252 . S
In117 O118 2.294 . S
In117 O119 2.326 . S
In117 O123 2.266 . S
In117 O124 2.326 . S
In117 O125 2.266 . S
In117 O126 2.326 . S
In117 O128 2.294 . S
In117 O129 2.326 . S
O118 In117 2.294 . S
O118 C127 1.240 . S
O119 In117 2.326 . S
O119 C127 1.252 . S
C120 O123 1.252 . S
C120 O124 1.260 . S
C121 O128 1.240 . S
C121 O129 1.252 . S
C122 O125 1.252 . S
C122 O126 1.260 . S
O123 In117 2.266 . S
O123 C120 1.252 . S
O124 In117 2.326 . S
O124 C120 1.260 . S
O125 In117 2.266 . S
O125 C122 1.252 . S
O126 In117 2.326 . S
O126 C122 1.260 . S
C127 O118 1.240 . S
C127 O119 1.252 . S
O128 In117 2.294 . S
O128 C121 1.240 . S
O129 In117 2.326 . S
O129 C121 1.252 . S
In130 O131 2.294 . S
In130 O132 2.326 . S
In130 O136 2.266 . S
In130 O137 2.326 . S
In130 O138 2.266 . S
In130 O139 2.326 . S
In130 O141 2.294 . S
In130 O142 2.326 . S
O131 In130 2.294 . S
O131 C140 1.240 . S
O132 In130 2.326 . S
O132 C140 1.252 . S
C133 O136 1.256 . S
C133 O137 1.266 . S
C134 O141 1.240 . S
C134 O142 1.252 . S
C135 O138 1.252 . S
C135 O139 1.260 . S
O136 In130 2.266 . S
O136 C133 1.256 . S
O137 In130 2.326 . S
O137 C133 1.266 . S
O138 In130 2.266 . S
O138 C135 1.252 . S
O139 In130 2.326 . S
O139 C135 1.260 . S
C140 O131 1.240 . S
C140 O132 1.252 . S
O141 In130 2.294 . S
O141 C134 1.240 . S
O142 In130 2.326 . S
O142 C134 1.252 . S
In143 O144 2.294 . S
In143 O145 2.326 . S
In143 O149 2.266 . S
In143 O150 2.326 . S
In143 O151 2.266 . S
In143 O152 2.326 . S
In143 O154 2.294 . S
In143 O155 2.326 . S
O144 In143 2.294 . S
O144 C153 1.240 . S
O145 In143 2.326 . S
O145 C153 1.252 . S
C146 O149 1.252 . S
C146 O150 1.260 . S
C147 O154 1.240 . S
C147 O155 1.252 . S
C148 O151 1.252 . S
C148 O152 1.260 . S
O149 In143 2.266 . S
O149 C146 1.252 . S
O150 In143 2.326 . S
O150 C146 1.260 . S
O151 In143 2.266 . S
O151 C148 1.252 . S
O152 In143 2.326 . S
O152 C148 1.260 . S
C153 O144 1.240 . S
C153 O145 1.252 . S
O154 In143 2.294 . S
O154 C147 1.240 . S
O155 In143 2.326 . S
O155 C147 1.252 . S
In156 O157 2.294 . S
In156 O158 2.326 . S
In156 O162 2.266 . S
In156 O163 2.326 . S
In156 O164 2.266 . S
In156 O165 2.326 . S
In156 O167 2.294 . S
In156 O168 2.326 . S
O157 In156 2.294 . S
O157 C166 1.240 . S
O158 In156 2.326 . S
O158 C166 1.252 . S
C159 O162 1.252 . S
C159 O163 1.260 . S
C160 O167 1.240 1_556 S
C160 O168 1.252 1_556 S
C161 O164 1.252 . S
C161 O165 1.260 . S
O162 In156 2.266 . S
O162 C159 1.252 . S
O163 In156 2.326 . S
O163 C159 1.260 . S
O164 In156 2.266 . S
O164 C161 1.252 . S
O165 In156 2.326 . S
O165 C161 1.260 . S
C166 O157 1.240 . S
C166 O158 1.252 . S
O167 In156 2.294 . S
O167 C160 1.240 1_554 S
O168 In156 2.326 . S
O168 C160 1.252 1_554 S
In169 O170 2.293 1_455 S
In169 O171 2.326 1_455 S
In169 O175 2.266 1_455 S
In169 O176 2.326 . S
In169 O177 2.267 . S
In169 O178 2.325 1_455 S
In169 O180 2.295 . S
In169 O181 2.326 . S
O170 In169 2.293 1_655 S
O170 C179 1.240 . S
O171 In169 2.326 1_655 S
O171 C179 1.257 . S
C172 O175 1.252 . S
C172 O176 1.260 1_655 S
C173 O180 1.240 . S
C173 O181 1.252 . S
C174 O177 1.252 . S
C174 O178 1.260 1_455 S
O175 In169 2.266 1_655 S
O175 C172 1.252 . S
O176 In169 2.326 . S
O176 C172 1.260 1_455 S
O177 In169 2.267 . S
O177 C174 1.252 . S
O178 In169 2.325 1_655 S
O178 C174 1.260 1_655 S
C179 O170 1.240 . S
C179 O171 1.257 . S
O180 In169 2.295 . S
O180 C173 1.240 . S
O181 In169 2.326 . S
O181 C173 1.252 . S
In182 O183 2.294 . S
In182 O184 2.326 . S
In182 O188 2.266 . S
In182 O189 2.326 . S
In182 O190 2.266 . S
In182 O191 2.326 . S
In182 O193 2.294 . S
In182 O194 2.326 . S
O183 In182 2.294 . S
O183 C192 1.240 . S
O184 In182 2.326 . S
O184 C192 1.252 . S
C185 O188 1.252 . S
C185 O189 1.260 . S
C186 O193 1.240 . S
C186 O194 1.252 . S
C187 O190 1.252 . S
C187 O191 1.260 . S
O188 In182 2.266 . S
O188 C185 1.252 . S
O189 In182 2.326 . S
O189 C185 1.260 . S
O190 In182 2.266 . S
O190 C187 1.252 . S
O191 In182 2.326 . S
O191 C187 1.260 . S
C192 O183 1.240 . S
C192 O184 1.252 . S
O193 In182 2.294 . S
O193 C186 1.240 . S
O194 In182 2.326 . S
O194 C186 1.252 . S
In195 O196 2.298 . S
In195 O197 2.326 . S
In195 O201 2.266 1_655 S
In195 O202 2.326 1_655 S
In195 O203 2.266 . S
In195 O204 2.326 . S
In195 O206 2.294 . S
In195 O207 2.326 1_655 S
O196 In195 2.298 . S
O196 C205 1.277 . S
O197 In195 2.326 . S
O197 C205 1.252 . S
C198 O201 1.252 . S
C198 O202 1.260 . S
C199 O206 1.240 1_455 S
C199 O207 1.252 . S
C200 O203 1.252 . S
C200 O204 1.260 . S
O201 In195 2.266 1_455 S
O201 C198 1.252 . S
O202 In195 2.326 1_455 S
O202 C198 1.260 . S
O203 In195 2.266 . S
O203 C200 1.252 . S
O204 In195 2.326 . S
O204 C200 1.260 . S
C205 O196 1.277 . S
C205 O197 1.252 . S
O206 In195 2.294 . S
O206 C199 1.240 1_655 S
O207 In195 2.326 1_455 S
O207 C199 1.252 . S
In208 O209 2.294 . S
In208 O210 2.326 . S
In208 O214 2.266 . S
In208 O215 2.326 . S
In208 O216 2.266 . S
In208 O217 2.326 . S
In208 O219 2.294 . S
In208 O220 2.326 . S
O209 In208 2.294 . S
O209 C218 1.240 . S
O210 In208 2.326 . S
O210 C218 1.252 . S
C211 O214 1.252 . S
C211 O215 1.260 . S
C212 O219 1.240 . S
C212 O220 1.252 . S
C213 O216 1.252 . S
C213 O217 1.260 . S
O214 In208 2.266 . S
O214 C211 1.252 . S
O215 In208 2.326 . S
O215 C211 1.260 . S
O216 In208 2.266 . S
O216 C213 1.252 . S
O217 In208 2.326 . S
O217 C213 1.260 . S
C218 O209 1.240 . S
C218 O210 1.252 . S
O219 In208 2.294 . S
O219 C212 1.240 . S
O220 In208 2.326 . S
O220 C212 1.252 . S
In221 O222 2.294 . S
In221 O223 2.326 . S
In221 O227 2.266 . S
In221 O228 2.326 . S
In221 O229 2.266 . S
In221 O230 2.326 . S
In221 O232 2.294 . S
In221 O233 2.326 . S
O222 In221 2.294 . S
O222 C231 1.240 . S
O223 In221 2.326 . S
O223 C231 1.252 . S
C224 O227 1.252 . S
C224 O228 1.260 . S
C225 O232 1.240 . S
C225 O233 1.252 . S
C226 O229 1.252 . S
C226 O230 1.260 . S
O227 In221 2.266 . S
O227 C224 1.252 . S
O228 In221 2.326 . S
O228 C224 1.260 . S
O229 In221 2.266 . S
O229 C226 1.252 . S
O230 In221 2.326 . S
O230 C226 1.260 . S
C231 O222 1.240 . S
C231 O223 1.252 . S
O232 In221 2.294 . S
O232 C225 1.240 . S
O233 In221 2.326 . S
O233 C225 1.252 . S
In234 O235 2.294 . S
In234 O236 2.326 . S
In234 O240 2.266 . S
In234 O241 2.326 . S
In234 O242 2.266 . S
In234 O243 2.326 . S
In234 O245 2.294 . S
In234 O246 2.326 . S
O235 In234 2.294 . S
O235 C244 1.240 . S
O236 In234 2.326 . S
O236 C244 1.252 . S
C237 O240 1.252 . S
C237 O241 1.260 . S
C238 O245 1.240 . S
C238 O246 1.252 . S
C239 O242 1.252 . S
C239 O243 1.260 . S
O240 In234 2.266 . S
O240 C237 1.252 . S
O241 In234 2.326 . S
O241 C237 1.260 . S
O242 In234 2.266 . S
O242 C239 1.252 . S
O243 In234 2.326 . S
O243 C239 1.260 . S
C244 O235 1.240 . S
C244 O236 1.252 . S
O245 In234 2.294 . S
O245 C238 1.240 . S
O246 In234 2.326 . S
O246 C238 1.252 . S
In247 O248 2.294 . S
In247 O249 2.326 . S
In247 O253 2.266 . S
In247 O254 2.326 . S
In247 O255 2.266 . S
In247 O256 2.326 . S
In247 O258 2.294 . S
In247 O259 2.326 . S
O248 In247 2.294 . S
O248 C257 1.240 . S
O249 In247 2.326 . S
O249 C257 1.252 . S
C250 O253 1.252 . S
C250 O254 1.260 . S
C251 O258 1.240 . S
C251 O259 1.252 . S
C252 O255 1.252 . S
C252 O256 1.260 . S
O253 In247 2.266 . S
O253 C250 1.252 . S
O254 In247 2.326 . S
O254 C250 1.260 . S
O255 In247 2.266 . S
O255 C252 1.252 . S
O256 In247 2.326 . S
O256 C252 1.260 . S
C257 O248 1.240 . S
C257 O249 1.252 . S
O258 In247 2.294 . S
O258 C251 1.240 . S
O259 In247 2.326 . S
O259 C251 1.252 . S
In260 O261 2.294 . S
In260 O262 2.327 . S
In260 O266 2.266 1_545 S
In260 O267 2.325 1_545 S
In260 O268 2.266 . S
In260 O269 2.326 . S
In260 O271 2.294 1_545 S
In260 O272 2.326 1_545 S
O261 In260 2.294 . S
O261 C270 1.240 . S
O262 In260 2.327 . S
O262 C270 1.252 . S
C263 O266 1.252 . S
C263 O267 1.260 . S
C264 O271 1.239 . S
C264 O272 1.252 . S
C265 O268 1.252 . S
C265 O269 1.260 . S
O266 In260 2.266 1_565 S
O266 C263 1.252 . S
O267 In260 2.325 1_565 S
O267 C263 1.260 . S
O268 In260 2.266 . S
O268 C265 1.252 . S
O269 In260 2.326 . S
O269 C265 1.260 . S
C270 O261 1.240 . S
C270 O262 1.252 . S
O271 In260 2.294 1_565 S
O271 C264 1.239 . S
O272 In260 2.326 1_565 S
O272 C264 1.252 . S
In273 O274 2.294 . S
In273 O275 2.327 1_556 S
In273 O279 2.265 . S
In273 O280 2.325 . S
In273 O281 2.267 1_556 S
In273 O282 2.326 1_556 S
In273 O284 2.295 1_556 S
In273 O285 2.326 . S
O274 In273 2.294 . S
O274 C283 1.240 1_556 S
O275 In273 2.327 1_554 S
O275 C283 1.252 . S
C276 O279 1.252 . S
C276 O280 1.260 . S
C277 O284 1.240 . S
C277 O285 1.252 1_554 S
C278 O281 1.252 . S
C278 O282 1.260 . S
O279 In273 2.265 . S
O279 C276 1.252 . S
O280 In273 2.325 . S
O280 C276 1.260 . S
O281 In273 2.267 1_554 S
O281 C278 1.252 . S
O282 In273 2.326 1_554 S
O282 C278 1.260 . S
C283 O274 1.240 1_554 S
C283 O275 1.252 . S
O284 In273 2.295 1_554 S
O284 C277 1.240 . S
O285 In273 2.326 . S
O285 C277 1.252 1_556 S
In286 O287 2.294 . S
In286 O288 2.326 . S
In286 O292 2.266 . S
In286 O293 2.326 . S
In286 O294 2.266 . S
In286 O295 2.326 . S
In286 O297 2.294 . S
In286 O298 2.326 . S
O287 In286 2.294 . S
O287 C296 1.240 . S
O288 In286 2.326 . S
O288 C296 1.252 . S
C289 O292 1.252 . S
C289 O293 1.260 . S
C290 O297 1.240 . S
C290 O298 1.252 . S
C291 O294 1.252 . S
C291 O295 1.260 . S
O292 In286 2.266 . S
O292 C289 1.252 . S
O293 In286 2.326 . S
O293 C289 1.260 . S
O294 In286 2.266 . S
O294 C291 1.252 . S
O295 In286 2.326 . S
O295 C291 1.260 . S
C296 O287 1.240 . S
C296 O288 1.252 . S
O297 In286 2.294 . S
O297 C290 1.240 . S
O298 In286 2.326 . S
O298 C290 1.252 . S
In299 O300 2.294 . S
In299 O301 2.326 . S
In299 O305 2.266 . S
In299 O306 2.326 . S
In299 O307 2.266 . S
In299 O308 2.326 . S
In299 O310 2.294 . S
In299 O311 2.326 . S
O300 In299 2.294 . S
O300 C309 1.240 . S
O301 In299 2.326 . S
O301 C309 1.252 . S
C302 O305 1.252 . S
C302 O306 1.260 . S
C303 O310 1.240 . S
C303 O311 1.252 . S
C304 O307 1.252 . S
C304 O308 1.260 . S
O305 In299 2.266 . S
O305 C302 1.252 . S
O306 In299 2.326 . S
O306 C302 1.260 . S
O307 In299 2.266 . S
O307 C304 1.252 . S
O308 In299 2.326 . S
O308 C304 1.260 . S
C309 O300 1.240 . S
C309 O301 1.252 . S
O310 In299 2.294 . S
O310 C303 1.240 . S
O311 In299 2.326 . S
O311 C303 1.252 . S
In312 O313 2.293 1_565 S
In312 O314 2.326 1_565 S
In312 O318 2.266 1_565 S
In312 O319 2.326 . S
In312 O320 2.266 1_565 S
In312 O321 2.325 1_565 S
In312 O323 2.295 . S
In312 O324 2.327 . S
O313 In312 2.293 1_545 S
O313 C322 1.240 . S
O314 In312 2.326 1_545 S
O314 C322 1.252 . S
C315 O318 1.252 1_565 S
C315 O319 1.260 . S
C316 O323 1.240 . S
C316 O324 1.252 . S
C317 O320 1.252 . S
C317 O321 1.260 . S
O318 In312 2.266 1_545 S
O318 C315 1.252 1_545 S
O319 In312 2.326 . S
O319 C315 1.260 . S
O320 In312 2.266 1_545 S
O320 C317 1.252 . S
O321 In312 2.325 1_545 S
O321 C317 1.260 . S
C322 O313 1.240 . S
C322 O314 1.252 . S
O323 In312 2.295 . S
O323 C316 1.240 . S
O324 In312 2.327 . S
O324 C316 1.252 . S
In325 O326 2.294 . S
In325 O327 2.326 . S
In325 O331 2.266 . S
In325 O332 2.326 . S
In325 O333 2.266 . S
In325 O334 2.326 . S
In325 O336 2.294 . S
In325 O337 2.326 . S
O326 In325 2.294 . S
O326 C335 1.240 . S
O327 In325 2.326 . S
O327 C335 1.252 . S
C328 O331 1.252 . S
C328 O332 1.260 . S
C329 O336 1.240 . S
C329 O337 1.252 . S
C330 O333 1.252 . S
C330 O334 1.260 . S
O331 In325 2.266 . S
O331 C328 1.252 . S
O332 In325 2.326 . S
O332 C328 1.260 . S
O333 In325 2.266 . S
O333 C330 1.252 . S
O334 In325 2.326 . S
O334 C330 1.260 . S
C335 O326 1.240 . S
C335 O327 1.252 . S
O336 In325 2.294 . S
O336 C329 1.240 . S
O337 In325 2.326 . S
O337 C329 1.252 . S
In338 O339 2.294 . S
In338 O340 2.326 . S
In338 O344 2.266 . S
In338 O345 2.326 . S
In338 O346 2.266 . S
In338 O347 2.326 . S
In338 O349 2.294 . S
In338 O350 2.326 . S
O339 In338 2.294 . S
O339 C348 1.240 . S
O340 In338 2.326 . S
O340 C348 1.252 . S
C341 O344 1.252 . S
C341 O345 1.260 . S
C342 O349 1.240 . S
C342 O350 1.252 . S
C343 O346 1.252 . S
C343 O347 1.260 . S
O344 In338 2.266 . S
O344 C341 1.252 . S
O345 In338 2.326 . S
O345 C341 1.260 . S
O346 In338 2.266 . S
O346 C343 1.252 . S
O347 In338 2.326 . S
O347 C343 1.260 . S
C348 O339 1.240 . S
C348 O340 1.252 . S
O349 In338 2.294 . S
O349 C342 1.240 . S
O350 In338 2.326 . S
O350 C342 1.252 . S
In351 O352 2.295 . S
In351 O353 2.327 . S
In351 O357 2.266 . S
In351 O358 2.324 1_554 S
In351 O359 2.265 1_554 S
In351 O360 2.326 . S
In351 O362 2.293 1_554 S
In351 O363 2.326 1_554 S
O352 In351 2.295 . S
O352 C361 1.240 . S
O353 In351 2.327 . S
O353 C361 1.252 . S
C354 O357 1.252 1_556 S
C354 O358 1.260 . S
C355 O362 1.240 . S
C355 O363 1.252 . S
C356 O359 1.252 . S
C356 O360 1.260 1_556 S
O357 In351 2.266 . S
O357 C354 1.252 1_554 S
O358 In351 2.324 1_556 S
O358 C354 1.260 . S
O359 In351 2.265 1_556 S
O359 C356 1.252 . S
O360 In351 2.326 . S
O360 C356 1.260 1_554 S
C361 O352 1.240 . S
C361 O353 1.252 . S
O362 In351 2.293 1_556 S
O362 C355 1.240 . S
O363 In351 2.326 1_556 S
O363 C355 1.252 . S
In364 O365 2.295 1_556 S
In364 O366 2.326 . S
In364 O370 2.267 1_556 S
In364 O371 2.325 . S
In364 O372 2.265 . S
In364 O373 2.325 . S
In364 O375 2.293 . S
In364 O376 2.327 1_556 S
O365 In364 2.295 1_554 S
O365 C374 1.240 . S
O366 In364 2.326 . S
O366 C374 1.252 1_556 S
C367 O370 1.252 . S
C367 O371 1.260 1_554 S
C368 O375 1.275 . S
C368 O376 1.216 1_556 S
C369 O372 1.252 . S
C369 O373 1.260 . S
O370 In364 2.267 1_554 S
O370 C367 1.252 . S
O371 In364 2.325 . S
O371 C367 1.260 1_556 S
O372 In364 2.265 . S
O372 C369 1.252 . S
O373 In364 2.325 . S
O373 C369 1.260 . S
C374 O365 1.240 . S
C374 O366 1.252 1_554 S
O375 In364 2.293 . S
O375 C368 1.275 . S
O376 In364 2.327 1_554 S
O376 C368 1.216 1_554 S
In377 O378 2.294 . S
In377 O379 2.326 1_565 S
In377 O383 2.266 . S
In377 O384 2.326 . S
In377 O385 2.266 1_565 S
In377 O386 2.325 1_565 S
In377 O388 2.294 . S
In377 O389 2.327 . S
O378 In377 2.294 . S
O378 C387 1.237 1_565 S
O379 In377 2.326 1_545 S
O379 C387 1.252 . S
C380 O383 1.252 . S
C380 O384 1.260 . S
C381 O388 1.240 . S
C381 O389 1.252 . S
C382 O385 1.252 . S
C382 O386 1.260 . S
O383 In377 2.266 . S
O383 C380 1.252 . S
O384 In377 2.326 . S
O384 C380 1.260 . S
O385 In377 2.266 1_545 S
O385 C382 1.252 . S
O386 In377 2.325 1_545 S
O386 C382 1.260 . S
C387 O378 1.237 1_545 S
C387 O379 1.252 . S
O388 In377 2.294 . S
O388 C381 1.240 . S
O389 In377 2.327 . S
O389 C381 1.252 . S
In390 O391 2.294 . S
In390 O392 2.326 . S
In390 O396 2.266 . S
In390 O397 2.326 . S
In390 O398 2.266 . S
In390 O399 2.326 . S
In390 O401 2.294 . S
In390 O402 2.326 . S
O391 In390 2.294 . S
O391 C400 1.240 . S
O392 In390 2.326 . S
O392 C400 1.252 . S
C393 O396 1.252 . S
C393 O397 1.260 . S
C394 O401 1.240 . S
C394 O402 1.252 . S
C395 O398 1.252 . S
C395 O399 1.260 . S
O396 In390 2.266 . S
O396 C393 1.252 . S
O397 In390 2.326 . S
O397 C393 1.260 . S
O398 In390 2.266 . S
O398 C395 1.252 . S
O399 In390 2.326 . S
O399 C395 1.260 . S
C400 O391 1.240 . S
C400 O392 1.252 . S
O401 In390 2.294 . S
O401 C394 1.240 . S
O402 In390 2.326 . S
O402 C394 1.252 . S
In403 O404 2.294 . S
In403 O405 2.326 . S
In403 O409 2.266 . S
In403 O410 2.326 . S
In403 O411 2.266 . S
In403 O412 2.326 . S
In403 O414 2.294 . S
In403 O415 2.326 . S
O404 In403 2.294 . S
O404 C413 1.240 . S
O405 In403 2.326 . S
O405 C413 1.252 . S
C406 O409 1.252 . S
C406 O410 1.260 . S
C407 O414 1.240 . S
C407 O415 1.252 . S
C408 O411 1.252 . S
C408 O412 1.260 . S
O409 In403 2.266 . S
O409 C406 1.252 . S
O410 In403 2.326 . S
O410 C406 1.260 . S
O411 In403 2.266 . S
O411 C408 1.252 . S
O412 In403 2.326 . S
O412 C408 1.260 . S
C413 O404 1.240 . S
C413 O405 1.252 . S
O414 In403 2.294 . S
O414 C407 1.240 . S
O415 In403 2.326 . S
O415 C407 1.252 . S
In416 O417 2.294 . S
In416 O418 2.326 . S
In416 O422 2.266 . S
In416 O423 2.326 . S
In416 O424 2.266 . S
In416 O425 2.326 . S
In416 O427 2.294 . S
In416 O428 2.326 . S
O417 In416 2.294 . S
O417 C426 1.240 . S
O418 In416 2.326 . S
O418 C426 1.252 . S
C419 O422 1.252 . S
C419 O423 1.260 . S
C420 O427 1.240 . S
C420 O428 1.252 . S
C421 O424 1.252 . S
C421 O425 1.260 . S
O422 In416 2.266 . S
O422 C419 1.252 . S
O423 In416 2.326 . S
O423 C419 1.260 . S
O424 In416 2.266 . S
O424 C421 1.252 . S
O425 In416 2.326 . S
O425 C421 1.260 . S
C426 O417 1.240 . S
C426 O418 1.252 . S
O427 In416 2.294 . S
O427 C420 1.240 . S
O428 In416 2.326 . S
O428 C420 1.252 . S
In429 O430 2.294 1_455 S
In429 O431 2.326 . S
In429 O435 2.266 . S
In429 O436 2.326 . S
In429 O437 2.266 . S
In429 O438 2.326 1_455 S
In429 O440 2.294 . S
In429 O441 2.326 . S
O430 In429 2.294 1_655 S
O430 C439 1.240 1_556 S
O431 In429 2.326 . S
O431 C439 1.252 1_456 S
C432 O435 1.252 . S
C432 O436 1.260 . S
C433 O440 1.240 . S
C433 O441 1.252 . S
C434 O437 1.252 1_655 S
C434 O438 1.260 . S
O435 In429 2.266 . S
O435 C432 1.252 . S
O436 In429 2.326 . S
O436 C432 1.260 . S
O437 In429 2.266 . S
O437 C434 1.252 1_455 S
O438 In429 2.326 1_655 S
O438 C434 1.260 . S
C439 O430 1.240 1_554 S
C439 O431 1.252 1_654 S
O440 In429 2.294 . S
O440 C433 1.240 . S
O441 In429 2.326 . S
O441 C433 1.252 . S
In442 O443 2.294 . S
In442 O444 2.326 . S
In442 O448 2.266 . S
In442 O449 2.326 . S
In442 O450 2.266 . S
In442 O451 2.326 . S
In442 O453 2.294 . S
In442 O454 2.326 . S
O443 In442 2.294 . S
O443 C452 1.240 . S
O444 In442 2.326 . S
O444 C452 1.252 . S
C445 O448 1.252 . S
C445 O449 1.260 . S
C446 O453 1.240 . S
C446 O454 1.252 . S
C447 O450 1.252 . S
C447 O451 1.260 . S
O448 In442 2.266 . S
O448 C445 1.252 . S
O449 In442 2.326 . S
O449 C445 1.260 . S
O450 In442 2.266 . S
O450 C447 1.252 . S
O451 In442 2.326 . S
O451 C447 1.260 . S
C452 O443 1.240 . S
C452 O444 1.252 . S
O453 In442 2.294 . S
O453 C446 1.240 . S
O454 In442 2.326 . S
O454 C446 1.252 . S
In455 O456 2.294 . S
In455 O457 2.326 . S
In455 O461 2.266 . S
In455 O462 2.326 1_455 S
In455 O463 2.266 . S
In455 O464 2.326 . S
In455 O466 2.294 1_455 S
In455 O467 2.326 1_455 S
O456 In455 2.294 . S
O456 C465 1.240 . S
O457 In455 2.326 . S
O457 C465 1.252 . S
C458 O461 1.246 1_655 S
C458 O462 1.264 . S
C459 O466 1.240 . S
C459 O467 1.252 . S
C460 O463 1.252 . S
C460 O464 1.260 . S
O461 In455 2.266 . S
O461 C458 1.246 1_455 S
O462 In455 2.326 1_655 S
O462 C458 1.264 . S
O463 In455 2.266 . S
O463 C460 1.252 . S
O464 In455 2.326 . S
O464 C460 1.260 . S
C465 O456 1.240 . S
C465 O457 1.252 . S
O466 In455 2.294 1_655 S
O466 C459 1.240 . S
O467 In455 2.326 1_655 S
O467 C459 1.252 . S
In468 O469 2.294 . S
In468 O470 2.326 . S
In468 O474 2.266 . S
In468 O475 2.326 . S
In468 O476 2.266 . S
In468 O477 2.326 . S
In468 O479 2.294 . S
In468 O480 2.326 . S
O469 In468 2.294 . S
O469 C478 1.240 . S
O470 In468 2.326 . S
O470 C478 1.252 . S
C471 O474 1.252 . S
C471 O475 1.260 . S
C472 O479 1.240 . S
C472 O480 1.252 . S
C473 O476 1.252 . S
C473 O477 1.260 . S
O474 In468 2.266 . S
O474 C471 1.252 . S
O475 In468 2.326 . S
O475 C471 1.260 . S
O476 In468 2.266 . S
O476 C473 1.252 . S
O477 In468 2.326 . S
O477 C473 1.260 . S
C478 O469 1.240 . S
C478 O470 1.252 . S
O479 In468 2.294 . S
O479 C472 1.240 . S
O480 In468 2.326 . S
O480 C472 1.252 . S
In481 O482 2.294 . S
In481 O483 2.326 . S
In481 O487 2.266 . S
In481 O488 2.326 . S
In481 O489 2.266 . S
In481 O490 2.326 . S
In481 O492 2.294 . S
In481 O493 2.326 . S
O482 In481 2.294 . S
O482 C491 1.240 . S
O483 In481 2.326 . S
O483 C491 1.252 . S
C484 O487 1.252 . S
C484 O488 1.260 . S
C485 O492 1.240 . S
C485 O493 1.252 . S
C486 O489 1.252 . S
C486 O490 1.260 . S
O487 In481 2.266 . S
O487 C484 1.252 . S
O488 In481 2.326 . S
O488 C484 1.260 . S
O489 In481 2.266 . S
O489 C486 1.252 . S
O490 In481 2.326 . S
O490 C486 1.260 . S
C491 O482 1.240 . S
C491 O483 1.252 . S
O492 In481 2.294 . S
O492 C485 1.240 . S
O493 In481 2.326 . S
O493 C485 1.252 . S
In494 O495 2.294 . S
In494 O496 2.326 . S
In494 O500 2.266 . S
In494 O501 2.326 . S
In494 O502 2.266 . S
In494 O503 2.326 . S
In494 O505 2.294 . S
In494 O506 2.326 . S
O495 In494 2.294 . S
O495 C504 1.240 . S
O496 In494 2.326 . S
O496 C504 1.252 . S
C497 O500 1.252 . S
C497 O501 1.260 . S
C498 O505 1.240 . S
C498 O506 1.252 . S
C499 O502 1.252 . S
C499 O503 1.260 . S
O500 In494 2.266 . S
O500 C497 1.252 . S
O501 In494 2.326 . S
O501 C497 1.260 . S
O502 In494 2.266 . S
O502 C499 1.252 . S
O503 In494 2.326 . S
O503 C499 1.260 . S
C504 O495 1.240 . S
C504 O496 1.252 . S
O505 In494 2.294 . S
O505 C498 1.240 . S
O506 In494 2.326 . S
O506 C498 1.252 . S
In507 O508 2.294 . S
In507 O509 2.326 . S
In507 O513 2.266 . S
In507 O514 2.326 . S
In507 O515 2.266 . S
In507 O516 2.326 . S
In507 O518 2.294 . S
In507 O519 2.326 . S
O508 In507 2.294 . S
O508 C517 1.240 . S
O509 In507 2.326 . S
O509 C517 1.252 . S
C510 O513 1.252 . S
C510 O514 1.260 . S
C511 O518 1.240 . S
C511 O519 1.252 . S
C512 O515 1.252 . S
C512 O516 1.260 . S
O513 In507 2.266 . S
O513 C510 1.252 . S
O514 In507 2.326 . S
O514 C510 1.260 . S
O515 In507 2.266 . S
O515 C512 1.252 . S
O516 In507 2.326 . S
O516 C512 1.260 . S
C517 O508 1.240 . S
C517 O509 1.252 . S
O518 In507 2.294 . S
O518 C511 1.240 . S
O519 In507 2.326 . S
O519 C511 1.252 . S
In520 O521 2.295 . S
In520 O522 2.327 . S
In520 O526 2.266 1_545 S
In520 O527 2.325 1_545 S
In520 O528 2.266 1_545 S
In520 O529 2.326 . S
In520 O531 2.293 1_545 S
In520 O532 2.326 1_545 S
O521 In520 2.295 . S
O521 C530 1.240 . S
O522 In520 2.327 . S
O522 C530 1.252 . S
C523 O526 1.252 . S
C523 O527 1.260 . S
C524 O531 1.240 . S
C524 O532 1.252 . S
C525 O528 1.252 1_545 S
C525 O529 1.260 . S
O526 In520 2.266 1_565 S
O526 C523 1.252 . S
O527 In520 2.325 1_565 S
O527 C523 1.260 . S
O528 In520 2.266 1_565 S
O528 C525 1.252 1_565 S
O529 In520 2.326 . S
O529 C525 1.260 . S
C530 O521 1.240 . S
C530 O522 1.252 . S
O531 In520 2.293 1_565 S
O531 C524 1.240 . S
O532 In520 2.326 1_565 S
O532 C524 1.252 . S
In533 O534 2.295 . S
In533 O535 2.327 . S
In533 O539 2.267 . S
In533 O540 2.325 1_554 S
In533 O541 2.265 1_554 S
In533 O542 2.326 . S
In533 O544 2.293 1_554 S
In533 O545 2.326 . S
O534 In533 2.295 . S
O534 C543 1.240 . S
O535 In533 2.327 . S
O535 C543 1.252 . S
C536 O539 1.292 . S
C536 O540 1.218 1_554 S
C537 O544 1.240 . S
C537 O545 1.252 1_556 S
C538 O541 1.252 . S
C538 O542 1.260 1_556 S
O539 In533 2.267 . S
O539 C536 1.292 . S
O540 In533 2.325 1_556 S
O540 C536 1.218 1_556 S
O541 In533 2.265 1_556 S
O541 C538 1.252 . S
O542 In533 2.326 . S
O542 C538 1.260 1_554 S
C543 O534 1.240 . S
C543 O535 1.252 . S
O544 In533 2.293 1_556 S
O544 C537 1.240 . S
O545 In533 2.326 . S
O545 C537 1.252 1_554 S
In546 O547 2.294 1_655 S
In546 O548 2.326 . S
In546 O552 2.267 1_655 S
In546 O553 2.325 1_655 S
In546 O554 2.266 . S
In546 O555 2.325 . S
In546 O557 2.294 . S
In546 O558 2.327 1_655 S
O547 In546 2.294 1_455 S
O547 C556 1.240 . S
O548 In546 2.326 . S
O548 C556 1.252 1_655 S
C549 O552 1.252 . S
C549 O553 1.267 . S
C550 O557 1.240 . S
C550 O558 1.252 1_655 S
C551 O554 1.252 . S
C551 O555 1.260 . S
O552 In546 2.267 1_455 S
O552 C549 1.252 . S
O553 In546 2.325 1_455 S
O553 C549 1.267 . S
O554 In546 2.266 . S
O554 C551 1.252 . S
O555 In546 2.325 . S
O555 C551 1.260 . S
C556 O547 1.240 . S
C556 O548 1.252 1_455 S
O557 In546 2.294 . S
O557 C550 1.240 . S
O558 In546 2.327 1_455 S
O558 C550 1.252 1_455 S
In559 O560 2.294 1_655 S
In559 O561 2.326 . S
In559 O565 2.266 1_655 S
In559 O566 2.326 . S
In559 O567 2.266 . S
In559 O568 2.326 . S
In559 O570 2.294 . S
In559 O571 2.326 1_655 S
O560 In559 2.294 1_455 S
O560 C569 1.240 1_455 S
O561 In559 2.326 . S
O561 C569 1.252 . S
C562 O565 1.252 . S
C562 O566 1.260 1_455 S
C563 O570 1.240 1_455 S
C563 O571 1.252 . S
C564 O567 1.252 . S
C564 O568 1.260 . S
O565 In559 2.266 1_455 S
O565 C562 1.252 . S
O566 In559 2.326 . S
O566 C562 1.260 1_655 S
O567 In559 2.266 . S
O567 C564 1.252 . S
O568 In559 2.326 . S
O568 C564 1.260 . S
C569 O560 1.240 1_655 S
C569 O561 1.252 . S
O570 In559 2.294 . S
O570 C563 1.240 1_655 S
O571 In559 2.326 1_455 S
O571 C563 1.252 . S
In572 O573 2.294 1_565 S
In572 O574 2.326 . S
In572 O578 2.266 1_565 S
In572 O579 2.326 . S
In572 O580 2.266 . S
In572 O581 2.326 . S
In572 O583 2.294 . S
In572 O584 2.326 . S
O573 In572 2.294 1_545 S
O573 C582 1.240 1_545 S
O574 In572 2.326 . S
O574 C582 1.252 . S
C575 O578 1.252 1_565 S
C575 O579 1.260 . S
C576 O583 1.240 . S
C576 O584 1.252 . S
C577 O580 1.252 . S
C577 O581 1.260 . S
O578 In572 2.266 1_545 S
O578 C575 1.252 1_545 S
O579 In572 2.326 . S
O579 C575 1.260 . S
O580 In572 2.266 . S
O580 C577 1.252 . S
O581 In572 2.326 . S
O581 C577 1.260 . S
C582 O573 1.240 1_565 S
C582 O574 1.252 . S
O583 In572 2.294 . S
O583 C576 1.240 . S
O584 In572 2.326 . S
O584 C576 1.252 . S
In585 O586 2.294 . S
In585 O587 2.326 . S
In585 O591 2.266 . S
In585 O592 2.326 . S
In585 O593 2.266 . S
In585 O594 2.326 . S
In585 O596 2.294 . S
In585 O597 2.326 . S
O586 In585 2.294 . S
O586 C595 1.240 1_554 S
O587 In585 2.326 . S
O587 C595 1.252 1_554 S
C588 O591 1.252 . S
C588 O592 1.260 . S
C589 O596 1.240 . S
C589 O597 1.252 . S
C590 O593 1.252 . S
C590 O594 1.260 . S
O591 In585 2.266 . S
O591 C588 1.252 . S
O592 In585 2.326 . S
O592 C588 1.260 . S
O593 In585 2.266 . S
O593 C590 1.252 . S
O594 In585 2.326 . S
O594 C590 1.260 . S
C595 O586 1.240 1_556 S
C595 O587 1.252 1_556 S
O596 In585 2.294 . S
O596 C589 1.240 . S
O597 In585 2.326 . S
O597 C589 1.252 . S
In598 O599 2.294 . S
In598 O600 2.326 . S
In598 O604 2.266 . S
In598 O605 2.326 . S
In598 O606 2.266 . S
In598 O607 2.326 . S
In598 O609 2.294 . S
In598 O610 2.326 . S
O599 In598 2.294 . S
O599 C608 1.240 . S
O600 In598 2.326 . S
O600 C608 1.252 . S
C601 O604 1.252 . S
C601 O605 1.260 . S
C602 O609 1.240 . S
C602 O610 1.252 . S
C603 O606 1.252 . S
C603 O607 1.260 . S
O604 In598 2.266 . S
O604 C601 1.252 . S
O605 In598 2.326 . S
O605 C601 1.260 . S
O606 In598 2.266 . S
O606 C603 1.252 . S
O607 In598 2.326 . S
O607 C603 1.260 . S
C608 O599 1.240 . S
C608 O600 1.252 . S
O609 In598 2.294 . S
O609 C602 1.240 . S
O610 In598 2.326 . S
O610 C602 1.252 . S
In611 O612 2.294 . S
In611 O613 2.326 . S
In611 O617 2.266 . S
In611 O618 2.326 . S
In611 O619 2.266 . S
In611 O620 2.326 . S
In611 O622 2.294 . S
In611 O623 2.326 . S
O612 In611 2.294 . S
O612 C621 1.240 . S
O613 In611 2.326 . S
O613 C621 1.252 . S
C614 O617 1.252 . S
C614 O618 1.260 . S
C615 O622 1.240 . S
C615 O623 1.252 . S
C616 O619 1.252 . S
C616 O620 1.260 . S
O617 In611 2.266 . S
O617 C614 1.252 . S
O618 In611 2.326 . S
O618 C614 1.260 . S
O619 In611 2.266 . S
O619 C616 1.252 . S
O620 In611 2.326 . S
O620 C616 1.260 . S
C621 O612 1.240 . S
C621 O613 1.252 . S
O622 In611 2.294 . S
O622 C615 1.240 . S
O623 In611 2.326 . S
O623 C615 1.252 . S
H624 C630 0.930 . S
H625 C634 0.930 . S
H626 C639 0.929 . S
H627 C637 0.929 . S
H628 C632 0.929 . S
H629 C638 0.929 . S
C630 H624 0.930 . S
C630 C631 1.367 . S
C630 C638 1.378 . S
C631 C630 1.367 . S
C631 C639 1.433 . S
C632 H628 0.929 . S
C632 C634 1.378 . S
C632 C636 1.350 . S
C633 C636 1.463 . S
C633 C638 1.350 . S
C633 N641 1.427 . S
C634 H625 0.930 . S
C634 C632 1.378 . S
C634 C635 1.367 . S
C635 C634 1.367 . S
C635 C637 1.433 . S
C636 C632 1.350 . S
C636 C633 1.463 . S
C636 N640 1.427 . S
C637 H627 0.929 . S
C637 C635 1.433 . S
C637 N640 1.384 . S
C638 H629 0.929 . S
C638 C630 1.378 . S
C638 C633 1.350 . S
C639 H626 0.929 . S
C639 C631 1.433 . S
C639 N641 1.384 . S
N640 C636 1.427 . S
N640 C637 1.384 . S
N641 C633 1.427 . S
N641 C639 1.384 . S
H642 C648 0.930 . S
H643 C652 0.930 . S
H644 C657 0.929 . S
H645 C655 0.929 . S
H646 C650 0.929 . S
H647 C656 0.929 . S
C648 H642 0.930 . S
C648 C649 1.367 . S
C648 C656 1.378 . S
C649 C648 1.367 . S
C649 C657 1.433 . S
C650 H646 0.929 . S
C650 C652 1.378 . S
C650 C654 1.350 . S
C651 C654 1.463 . S
C651 C656 1.350 . S
C651 N659 1.427 . S
C652 H643 0.930 . S
C652 C650 1.378 . S
C652 C653 1.367 . S
C653 C652 1.367 . S
C653 C655 1.433 . S
C654 C650 1.350 . S
C654 C651 1.463 . S
C654 N658 1.427 . S
C655 H645 0.929 . S
C655 C653 1.433 . S
C655 N658 1.384 . S
C656 H647 0.929 . S
C656 C648 1.378 . S
C656 C651 1.350 . S
C657 H644 0.929 . S
C657 C649 1.433 . S
C657 N659 1.384 . S
N658 C654 1.427 . S
N658 C655 1.384 . S
N659 C651 1.427 . S
N659 C657 1.384 . S
H660 C666 0.930 . S
H661 C670 0.930 . S
H662 C675 0.929 . S
H663 C673 0.929 . S
H664 C668 0.929 . S
H665 C674 0.929 . S
C666 H660 0.930 . S
C666 C667 1.367 . S
C666 C674 1.378 . S
C667 C666 1.367 . S
C667 C675 1.433 . S
C668 H664 0.929 . S
C668 C670 1.378 . S
C668 C672 1.350 . S
C669 C672 1.463 . S
C669 C674 1.350 . S
C669 N677 1.427 . S
C670 H661 0.930 . S
C670 C668 1.378 . S
C670 C671 1.367 . S
C671 C670 1.367 . S
C671 C673 1.433 . S
C672 C668 1.350 . S
C672 C669 1.463 . S
C672 N676 1.427 . S
C673 H663 0.929 . S
C673 C671 1.433 . S
C673 N676 1.384 . S
C674 H665 0.929 . S
C674 C666 1.378 . S
C674 C669 1.350 . S
C675 H662 0.929 . S
C675 C667 1.433 . S
C675 N677 1.384 . S
N676 C672 1.427 . S
N676 C673 1.384 . S
N677 C669 1.427 . S
N677 C675 1.384 . S
H678 C684 0.930 . S
H679 C688 0.930 . S
H680 C693 0.929 . S
H681 C691 0.929 . S
H682 C686 0.929 . S
H683 C692 0.939 . S
C684 H678 0.930 . S
C684 C685 1.367 1_565 S
C684 C692 1.378 1_565 S
C685 C684 1.367 1_545 S
C685 C693 1.433 . S
C686 H682 0.929 . S
C686 C688 1.378 . S
C686 C690 1.350 . S
C687 C690 1.463 . S
C687 C692 1.350 . S
C687 N695 1.427 . S
C688 H679 0.930 . S
C688 C686 1.378 . S
C688 C689 1.367 . S
C689 C688 1.367 . S
C689 C691 1.433 . S
C690 C686 1.350 . S
C690 C687 1.463 . S
C690 N694 1.427 . S
C691 H681 0.929 . S
C691 C689 1.433 . S
C691 N694 1.384 . S
C692 H683 0.939 . S
C692 C684 1.378 1_545 S
C692 C687 1.350 . S
C693 H680 0.929 . S
C693 C685 1.433 . S
C693 N695 1.384 . S
N694 C690 1.427 . S
N694 C691 1.384 . S
N695 C687 1.427 . S
N695 C693 1.384 . S
H696 C702 0.930 . S
H697 C706 0.930 . S
H698 C711 0.929 . S
H699 C709 0.929 . S
H700 C704 0.929 . S
H701 C710 0.929 . S
C702 H696 0.930 . S
C702 C703 1.367 . S
C702 C710 1.378 . S
C703 C702 1.367 . S
C703 C711 1.433 . S
C704 H700 0.929 . S
C704 C706 1.378 . S
C704 C708 1.350 . S
C705 C708 1.463 . S
C705 C710 1.350 . S
C705 N713 1.427 . S
C706 H697 0.930 . S
C706 C704 1.378 . S
C706 C707 1.367 . S
C707 C706 1.367 . S
C707 C709 1.433 . S
C708 C704 1.350 . S
C708 C705 1.463 . S
C708 N712 1.427 . S
C709 H699 0.929 . S
C709 C707 1.433 . S
C709 N712 1.384 . S
C710 H701 0.929 . S
C710 C702 1.378 . S
C710 C705 1.350 . S
C711 H698 0.929 . S
C711 C703 1.433 . S
C711 N713 1.384 . S
N712 C708 1.427 . S
N712 C709 1.384 . S
N713 C705 1.427 . S
N713 C711 1.384 . S
H714 C720 0.930 . S
H715 C724 0.930 . S
H716 C729 0.929 . S
H717 C727 0.929 . S
H718 C722 0.929 . S
H719 C728 0.929 . S
C720 H714 0.930 . S
C720 C721 1.367 . S
C720 C728 1.378 . S
C721 C720 1.367 . S
C721 C729 1.433 . S
C722 H718 0.929 . S
C722 C724 1.378 . S
C722 C726 1.350 . S
C723 C726 1.463 . S
C723 C728 1.350 . S
C723 N731 1.427 . S
C724 H715 0.930 . S
C724 C722 1.378 . S
C724 C725 1.367 . S
C725 C724 1.367 . S
C725 C727 1.433 . S
C726 C722 1.350 . S
C726 C723 1.463 . S
C726 N730 1.427 . S
C727 H717 0.929 . S
C727 C725 1.433 . S
C727 N730 1.384 . S
C728 H719 0.929 . S
C728 C720 1.378 . S
C728 C723 1.350 . S
C729 H716 0.929 . S
C729 C721 1.433 . S
C729 N731 1.384 . S
N730 C726 1.427 . S
N730 C727 1.384 . S
N731 C723 1.427 . S
N731 C729 1.384 . S
H732 C738 0.930 . S
H733 C742 0.930 . S
H734 C747 0.929 . S
H735 C745 0.929 . S
H736 C740 0.929 . S
H737 C746 0.929 . S
C738 H732 0.930 . S
C738 C739 1.367 . S
C738 C746 1.378 . S
C739 C738 1.367 . S
C739 C747 1.433 . S
C740 H736 0.929 . S
C740 C742 1.378 . S
C740 C744 1.350 . S
C741 C744 1.463 . S
C741 C746 1.350 . S
C741 N749 1.427 . S
C742 H733 0.930 . S
C742 C740 1.378 . S
C742 C743 1.367 . S
C743 C742 1.367 . S
C743 C745 1.433 . S
C744 C740 1.350 . S
C744 C741 1.463 . S
C744 N748 1.427 . S
C745 H735 0.929 . S
C745 C743 1.433 . S
C745 N748 1.384 . S
C746 H737 0.929 . S
C746 C738 1.378 . S
C746 C741 1.350 . S
C747 H734 0.929 . S
C747 C739 1.433 . S
C747 N749 1.384 . S
N748 C744 1.427 . S
N748 C745 1.384 . S
N749 C741 1.427 . S
N749 C747 1.384 . S
H750 C756 0.930 . S
H751 C760 0.930 . S
H752 C765 0.929 . S
H753 C763 0.929 . S
H754 C758 0.929 . S
H755 C764 0.929 . S
C756 H750 0.930 . S
C756 C757 1.367 . S
C756 C764 1.378 . S
C757 C756 1.367 . S
C757 C765 1.433 . S
C758 H754 0.929 . S
C758 C760 1.378 . S
C758 C762 1.350 . S
C759 C762 1.463 . S
C759 C764 1.350 . S
C759 N767 1.427 . S
C760 H751 0.930 . S
C760 C758 1.378 . S
C760 C761 1.367 . S
C761 C760 1.367 . S
C761 C763 1.433 . S
C762 C758 1.350 . S
C762 C759 1.463 . S
C762 N766 1.427 . S
C763 H753 0.929 . S
C763 C761 1.433 . S
C763 N766 1.384 . S
C764 H755 0.929 . S
C764 C756 1.378 . S
C764 C759 1.350 . S
C765 H752 0.929 . S
C765 C757 1.433 . S
C765 N767 1.384 . S
N766 C762 1.427 . S
N766 C763 1.384 . S
N767 C759 1.427 . S
N767 C765 1.384 . S
H768 C774 0.930 . S
H769 C778 0.930 . S
H770 C783 0.929 . S
H771 C781 0.929 . S
H772 C776 0.929 . S
H773 C782 0.929 . S
C774 H768 0.930 . S
C774 C775 1.367 . S
C774 C782 1.378 . S
C775 C774 1.367 . S
C775 C783 1.433 . S
C776 H772 0.929 . S
C776 C778 1.378 . S
C776 C780 1.350 . S
C777 C780 1.463 . S
C777 C782 1.350 . S
C777 N785 1.427 . S
C778 H769 0.930 . S
C778 C776 1.378 . S
C778 C779 1.367 . S
C779 C778 1.367 . S
C779 C781 1.433 . S
C780 C776 1.350 . S
C780 C777 1.463 . S
C780 N784 1.427 . S
C781 H771 0.929 . S
C781 C779 1.433 . S
C781 N784 1.384 . S
C782 H773 0.929 . S
C782 C774 1.378 . S
C782 C777 1.350 . S
C783 H770 0.929 . S
C783 C775 1.433 . S
C783 N785 1.384 . S
N784 C780 1.427 . S
N784 C781 1.384 . S
N785 C777 1.427 . S
N785 C783 1.384 . S
H786 C792 0.930 . S
H787 C796 0.930 . S
H788 C801 0.929 1_655 S
H789 C799 0.929 . S
H790 C794 0.929 . S
H791 C800 0.929 . S
C792 H786 0.930 . S
C792 C793 1.367 . S
C792 C800 1.378 . S
C793 C792 1.367 . S
C793 C801 1.433 . S
C794 H790 0.929 . S
C794 C796 1.378 . S
C794 C798 1.350 . S
C795 C798 1.463 . S
C795 C800 1.350 . S
C795 N803 1.427 . S
C796 H787 0.930 . S
C796 C794 1.378 . S
C796 C797 1.367 . S
C797 C796 1.367 . S
C797 C799 1.433 . S
C798 C794 1.350 . S
C798 C795 1.463 . S
C798 N802 1.427 . S
C799 H789 0.929 . S
C799 C797 1.433 . S
C799 N802 1.384 . S
C800 H791 0.929 . S
C800 C792 1.378 . S
C800 C795 1.350 . S
C801 H788 0.929 1_455 S
C801 C793 1.433 . S
C801 N803 1.384 . S
N802 C798 1.427 . S
N802 C799 1.384 . S
N803 C795 1.427 . S
N803 C801 1.384 . S
H804 C810 0.930 . S
H805 C814 0.930 . S
H806 C819 0.929 . S
H807 C817 0.929 . S
H808 C812 0.929 . S
H809 C818 0.929 . S
C810 H804 0.930 . S
C810 C811 1.367 . S
C810 C818 1.378 . S
C811 C810 1.367 . S
C811 C819 1.433 . S
C812 H808 0.929 . S
C812 C814 1.378 . S
C812 C816 1.350 . S
C813 C816 1.463 . S
C813 C818 1.350 . S
C813 N821 1.427 . S
C814 H805 0.930 . S
C814 C812 1.378 . S
C814 C815 1.367 . S
C815 C814 1.367 . S
C815 C817 1.433 . S
C816 C812 1.350 . S
C816 C813 1.463 . S
C816 N820 1.427 . S
C817 H807 0.929 . S
C817 C815 1.433 . S
C817 N820 1.384 . S
C818 H809 0.929 . S
C818 C810 1.378 . S
C818 C813 1.350 . S
C819 H806 0.929 . S
C819 C811 1.433 . S
C819 N821 1.384 . S
N820 C816 1.427 . S
N820 C817 1.384 . S
N821 C813 1.427 . S
N821 C819 1.384 . S
H822 C828 0.930 . S
H823 C832 0.930 . S
H824 C837 0.929 . S
H825 C835 0.929 . S
H826 C830 0.929 . S
H827 C836 0.929 . S
C828 H822 0.930 . S
C828 C829 1.367 . S
C828 C836 1.378 . S
C829 C828 1.367 . S
C829 C837 1.433 . S
C830 H826 0.929 . S
C830 C832 1.378 . S
C830 C834 1.350 . S
C831 C834 1.463 . S
C831 C836 1.350 . S
C831 N839 1.427 . S
C832 H823 0.930 . S
C832 C830 1.378 . S
C832 C833 1.367 . S
C833 C832 1.367 . S
C833 C835 1.433 . S
C834 C830 1.350 . S
C834 C831 1.463 . S
C834 N838 1.427 . S
C835 H825 0.929 . S
C835 C833 1.433 . S
C835 N838 1.384 . S
C836 H827 0.929 . S
C836 C828 1.378 . S
C836 C831 1.350 . S
C837 H824 0.929 . S
C837 C829 1.433 . S
C837 N839 1.384 . S
N838 C834 1.427 . S
N838 C835 1.384 . S
N839 C831 1.427 . S
N839 C837 1.384 . S
H840 C846 0.930 . S
H841 C850 0.930 . S
H842 C855 0.929 . S
H843 C853 0.929 . S
H844 C848 0.929 . S
H845 C854 0.929 . S
C846 H840 0.930 . S
C846 C847 1.367 . S
C846 C854 1.378 . S
C847 C846 1.367 . S
C847 C855 1.433 . S
C848 H844 0.929 . S
C848 C850 1.378 . S
C848 C852 1.350 . S
C849 C852 1.463 . S
C849 C854 1.350 . S
C849 N857 1.427 . S
C850 H841 0.930 . S
C850 C848 1.378 . S
C850 C851 1.367 . S
C851 C850 1.367 . S
C851 C853 1.433 . S
C852 C848 1.350 . S
C852 C849 1.463 . S
C852 N856 1.427 . S
C853 H843 0.929 . S
C853 C851 1.433 . S
C853 N856 1.384 . S
C854 H845 0.929 . S
C854 C846 1.378 . S
C854 C849 1.350 . S
C855 H842 0.929 . S
C855 C847 1.433 . S
C855 N857 1.384 . S
N856 C852 1.427 . S
N856 C853 1.384 . S
N857 C849 1.427 . S
N857 C855 1.384 . S
H858 C864 0.930 . S
H859 C868 0.930 . S
H860 C873 0.929 . S
H861 C871 0.929 . S
H862 C866 0.929 . S
H863 C872 0.929 . S
C864 H858 0.930 . S
C864 C865 1.367 . S
C864 C872 1.378 . S
C865 C864 1.367 . S
C865 C873 1.433 . S
C866 H862 0.929 . S
C866 C868 1.378 . S
C866 C870 1.350 . S
C867 C870 1.463 . S
C867 C872 1.350 . S
C867 N875 1.427 . S
C868 H859 0.930 . S
C868 C866 1.378 . S
C868 C869 1.367 . S
C869 C868 1.367 . S
C869 C871 1.433 . S
C870 C866 1.350 . S
C870 C867 1.463 . S
C870 N874 1.427 . S
C871 H861 0.929 . S
C871 C869 1.433 . S
C871 N874 1.384 . S
C872 H863 0.929 . S
C872 C864 1.378 . S
C872 C867 1.350 . S
C873 H860 0.929 . S
C873 C865 1.433 . S
C873 N875 1.384 . S
N874 C870 1.427 . S
N874 C871 1.384 . S
N875 C867 1.427 . S
N875 C873 1.384 . S
H876 C882 0.930 . S
H877 C886 0.930 . S
H878 C891 0.929 . S
H879 C889 0.929 . S
H880 C884 0.929 . S
H881 C890 0.929 . S
C882 H876 0.930 . S
C882 C883 1.367 . S
C882 C890 1.378 . S
C883 C882 1.367 . S
C883 C891 1.433 . S
C884 H880 0.929 . S
C884 C886 1.378 . S
C884 C888 1.350 . S
C885 C888 1.463 . S
C885 C890 1.350 . S
C885 N893 1.427 . S
C886 H877 0.930 . S
C886 C884 1.378 . S
C886 C887 1.367 . S
C887 C886 1.367 . S
C887 C889 1.433 . S
C888 C884 1.350 . S
C888 C885 1.463 . S
C888 N892 1.427 . S
C889 H879 0.929 . S
C889 C887 1.433 . S
C889 N892 1.384 . S
C890 H881 0.929 . S
C890 C882 1.378 . S
C890 C885 1.350 . S
C891 H878 0.929 . S
C891 C883 1.433 . S
C891 N893 1.384 . S
N892 C888 1.427 . S
N892 C889 1.384 . S
N893 C885 1.427 . S
N893 C891 1.384 . S
H894 C900 0.930 . S
H895 C904 0.930 . S
H896 C909 0.929 . S
H897 C907 0.929 . S
H898 C902 0.929 . S
H899 C908 0.929 . S
C900 H894 0.930 . S
C900 C901 1.367 . S
C900 C908 1.378 . S
C901 C900 1.367 . S
C901 C909 1.433 . S
C902 H898 0.929 . S
C902 C904 1.378 . S
C902 C906 1.350 . S
C903 C906 1.463 . S
C903 C908 1.350 . S
C903 N911 1.427 . S
C904 H895 0.930 . S
C904 C902 1.378 . S
C904 C905 1.367 . S
C905 C904 1.367 . S
C905 C907 1.433 . S
C906 C902 1.350 . S
C906 C903 1.463 . S
C906 N910 1.427 . S
C907 H897 0.929 . S
C907 C905 1.433 . S
C907 N910 1.384 . S
C908 H899 0.929 . S
C908 C900 1.378 . S
C908 C903 1.350 . S
C909 H896 0.929 . S
C909 C901 1.433 . S
C909 N911 1.384 . S
N910 C906 1.427 . S
N910 C907 1.384 . S
N911 C903 1.427 . S
N911 C909 1.384 . S
H912 C918 0.930 . S
H913 C922 0.930 . S
H914 C927 0.929 . S
H915 C925 0.929 . S
H916 C920 0.929 . S
H917 C926 0.929 . S
C918 H912 0.930 . S
C918 C919 1.367 . S
C918 C926 1.378 . S
C919 C918 1.367 . S
C919 C927 1.433 1_655 S
C920 H916 0.929 . S
C920 C922 1.378 . S
C920 C924 1.350 . S
C921 C924 1.463 . S
C921 C926 1.350 1_455 S
C921 N929 1.427 . S
C922 H913 0.930 . S
C922 C920 1.378 . S
C922 C923 1.367 . S
C923 C922 1.367 . S
C923 C925 1.433 . S
C924 C920 1.350 . S
C924 C921 1.463 . S
C924 N928 1.427 . S
C925 H915 0.929 . S
C925 C923 1.433 . S
C925 N928 1.384 . S
C926 H917 0.929 . S
C926 C918 1.378 . S
C926 C921 1.350 1_655 S
C927 H914 0.929 . S
C927 C919 1.433 1_455 S
C927 N929 1.384 . S
N928 C924 1.427 . S
N928 C925 1.384 . S
N929 C921 1.427 . S
N929 C927 1.384 . S
H930 C936 0.930 . S
H931 C940 0.930 . S
H932 C945 0.929 . S
H933 C943 0.929 . S
H934 C938 0.929 . S
H935 C944 0.929 . S
C936 H930 0.930 . S
C936 C937 1.367 . S
C936 C944 1.378 . S
C937 C936 1.367 . S
C937 C945 1.433 . S
C938 H934 0.929 . S
C938 C940 1.378 . S
C938 C942 1.350 . S
C939 C942 1.463 . S
C939 C944 1.350 . S
C939 N947 1.427 . S
C940 H931 0.930 . S
C940 C938 1.378 . S
C940 C941 1.367 . S
C941 C940 1.367 . S
C941 C943 1.433 . S
C942 C938 1.350 . S
C942 C939 1.463 . S
C942 N946 1.427 . S
C943 H933 0.929 . S
C943 C941 1.433 . S
C943 N946 1.384 . S
C944 H935 0.929 . S
C944 C936 1.378 . S
C944 C939 1.350 . S
C945 H932 0.929 . S
C945 C937 1.433 . S
C945 N947 1.384 . S
N946 C942 1.427 . S
N946 C943 1.384 . S
N947 C939 1.427 . S
N947 C945 1.384 . S
H948 C954 0.930 . S
H949 C958 0.930 . S
H950 C963 0.929 . S
H951 C961 0.929 . S
H952 C956 0.929 . S
H953 C962 0.929 . S
C954 H948 0.930 . S
C954 C955 1.367 . S
C954 C962 1.378 . S
C955 C954 1.367 . S
C955 C963 1.433 . S
C956 H952 0.929 . S
C956 C958 1.378 . S
C956 C960 1.350 . S
C957 C960 1.463 . S
C957 C962 1.350 . S
C957 N965 1.427 . S
C958 H949 0.930 . S
C958 C956 1.378 . S
C958 C959 1.367 . S
C959 C958 1.367 . S
C959 C961 1.433 . S
C960 C956 1.350 . S
C960 C957 1.463 . S
C960 N964 1.427 . S
C961 H951 0.929 . S
C961 C959 1.433 . S
C961 N964 1.384 . S
C962 H953 0.929 . S
C962 C954 1.378 . S
C962 C957 1.350 . S
C963 H950 0.929 . S
C963 C955 1.433 . S
C963 N965 1.384 . S
N964 C960 1.427 . S
N964 C961 1.384 . S
N965 C957 1.427 . S
N965 C963 1.384 . S
H966 C972 0.930 . S
H967 C976 0.930 . S
H968 C981 0.929 . S
H969 C979 0.929 . S
H970 C974 0.929 . S
H971 C980 0.929 . S
C972 H966 0.930 . S
C972 C973 1.367 1_554 S
C972 C980 1.378 . S
C973 C972 1.367 1_556 S
C973 C981 1.433 . S
C974 H970 0.929 . S
C974 C976 1.378 . S
C974 C978 1.350 1_556 S
C975 C978 1.463 . S
C975 C980 1.350 . S
C975 N983 1.427 1_554 S
C976 H967 0.930 . S
C976 C974 1.378 . S
C976 C977 1.367 1_556 S
C977 C976 1.367 1_554 S
C977 C979 1.433 . S
C978 C974 1.350 1_554 S
C978 C975 1.463 . S
C978 N982 1.427 . S
C979 H969 0.929 . S
C979 C977 1.433 . S
C979 N982 1.384 . S
C980 H971 0.929 . S
C980 C972 1.378 . S
C980 C975 1.350 . S
C981 H968 0.929 . S
C981 C973 1.433 . S
C981 N983 1.384 . S
N982 C978 1.427 . S
N982 C979 1.384 . S
N983 C975 1.427 1_556 S
N983 C981 1.384 . S
H984 C990 0.930 . S
H985 C994 0.930 . S
H986 C999 0.929 . S
H987 C997 0.929 . S
H988 C992 0.929 . S
H989 C998 0.929 . S
C990 H984 0.930 . S
C990 C991 1.367 . S
C990 C998 1.378 . S
C991 C990 1.367 . S
C991 C999 1.433 . S
C992 H988 0.929 . S
C992 C994 1.378 . S
C992 C996 1.350 . S
C993 C996 1.463 . S
C993 C998 1.350 . S
C993 N1001 1.427 . S
C994 H985 0.930 . S
C994 C992 1.378 . S
C994 C995 1.367 . S
C995 C994 1.367 . S
C995 C997 1.433 . S
C996 C992 1.350 . S
C996 C993 1.463 . S
C996 N1000 1.427 . S
C997 H987 0.929 . S
C997 C995 1.433 . S
C997 N1000 1.384 . S
C998 H989 0.929 . S
C998 C990 1.378 . S
C998 C993 1.350 . S
C999 H986 0.929 . S
C999 C991 1.433 . S
C999 N1001 1.384 . S
N1000 C996 1.427 . S
N1000 C997 1.384 . S
N1001 C993 1.427 . S
N1001 C999 1.384 . S
H1002 C1008 0.930 . S
H1003 C1012 0.930 . S
H1004 C1017 0.929 . S
H1005 C1015 0.929 . S
H1006 C1010 0.929 . S
H1007 C1016 0.929 . S
C1008 H1002 0.930 . S
C1008 C1009 1.367 . S
C1008 C1016 1.378 . S
C1009 C1008 1.367 . S
C1009 C1017 1.433 . S
C1010 H1006 0.929 . S
C1010 C1012 1.378 . S
C1010 C1014 1.350 . S
C1011 C1014 1.463 . S
C1011 C1016 1.350 . S
C1011 N1019 1.427 . S
C1012 H1003 0.930 . S
C1012 C1010 1.378 . S
C1012 C1013 1.367 . S
C1013 C1012 1.367 . S
C1013 C1015 1.433 . S
C1014 C1010 1.350 . S
C1014 C1011 1.463 . S
C1014 N1018 1.427 . S
C1015 H1005 0.929 . S
C1015 C1013 1.433 . S
C1015 N1018 1.384 . S
C1016 H1007 0.929 . S
C1016 C1008 1.378 . S
C1016 C1011 1.350 . S
C1017 H1004 0.929 . S
C1017 C1009 1.433 . S
C1017 N1019 1.384 . S
N1018 C1014 1.427 . S
N1018 C1015 1.384 . S
N1019 C1011 1.427 . S
N1019 C1017 1.384 . S
H1020 C1026 0.930 . S
H1021 C1030 0.930 . S
H1022 C1035 0.929 . S
H1023 C1033 0.929 . S
H1024 C1028 0.929 . S
H1025 C1034 0.929 . S
C1026 H1020 0.930 . S
C1026 C1027 1.367 . S
C1026 C1034 1.378 . S
C1027 C1026 1.367 . S
C1027 C1035 1.433 . S
C1028 H1024 0.929 . S
C1028 C1030 1.378 . S
C1028 C1032 1.350 . S
C1029 C1032 1.463 . S
C1029 C1034 1.350 . S
C1029 N1037 1.427 . S
C1030 H1021 0.930 . S
C1030 C1028 1.378 . S
C1030 C1031 1.367 . S
C1031 C1030 1.367 . S
C1031 C1033 1.433 . S
C1032 C1028 1.350 . S
C1032 C1029 1.463 . S
C1032 N1036 1.427 . S
C1033 H1023 0.929 . S
C1033 C1031 1.433 . S
C1033 N1036 1.384 . S
C1034 H1025 0.929 . S
C1034 C1026 1.378 . S
C1034 C1029 1.350 . S
C1035 H1022 0.929 . S
C1035 C1027 1.433 . S
C1035 N1037 1.384 . S
N1036 C1032 1.427 . S
N1036 C1033 1.384 . S
N1037 C1029 1.427 . S
N1037 C1035 1.384 . S
H1038 C1044 0.930 . S
H1039 C1048 0.930 . S
H1040 C1053 0.929 . S
H1041 C1051 0.929 . S
H1042 C1046 0.929 . S
H1043 C1052 0.929 1_545 S
C1044 H1038 0.930 . S
C1044 C1045 1.367 1_545 S
C1044 C1052 1.378 1_545 S
C1045 C1044 1.367 1_565 S
C1045 C1053 1.433 . S
C1046 H1042 0.929 . S
C1046 C1048 1.378 . S
C1046 C1050 1.350 . S
C1047 C1050 1.463 . S
C1047 C1052 1.350 . S
C1047 N1055 1.427 . S
C1048 H1039 0.930 . S
C1048 C1046 1.378 . S
C1048 C1049 1.367 . S
C1049 C1048 1.367 . S
C1049 C1051 1.433 . S
C1050 C1046 1.350 . S
C1050 C1047 1.463 . S
C1050 N1054 1.427 . S
C1051 H1041 0.929 . S
C1051 C1049 1.433 . S
C1051 N1054 1.384 . S
C1052 H1043 0.929 1_565 S
C1052 C1044 1.378 1_565 S
C1052 C1047 1.350 . S
C1053 H1040 0.929 . S
C1053 C1045 1.433 . S
C1053 N1055 1.384 . S
N1054 C1050 1.427 . S
N1054 C1051 1.384 . S
N1055 C1047 1.427 . S
N1055 C1053 1.384 . S
H1056 C1062 0.930 . S
H1057 C1066 0.930 . S
H1058 C1071 0.929 . S
H1059 C1069 0.929 . S
H1060 C1064 0.929 . S
H1061 C1070 0.929 . S
C1062 H1056 0.930 . S
C1062 C1063 1.367 . S
C1062 C1070 1.378 . S
C1063 C1062 1.367 . S
C1063 C1071 1.433 . S
C1064 H1060 0.929 . S
C1064 C1066 1.378 . S
C1064 C1068 1.350 . S
C1065 C1068 1.463 . S
C1065 C1070 1.350 . S
C1065 N1073 1.427 . S
C1066 H1057 0.930 . S
C1066 C1064 1.378 . S
C1066 C1067 1.367 . S
C1067 C1066 1.367 . S
C1067 C1069 1.433 . S
C1068 C1064 1.350 . S
C1068 C1065 1.463 . S
C1068 N1072 1.427 . S
C1069 H1059 0.929 . S
C1069 C1067 1.433 . S
C1069 N1072 1.384 . S
C1070 H1061 0.929 . S
C1070 C1062 1.378 . S
C1070 C1065 1.350 . S
C1071 H1058 0.929 . S
C1071 C1063 1.433 . S
C1071 N1073 1.384 . S
N1072 C1068 1.427 . S
N1072 C1069 1.384 . S
N1073 C1065 1.427 . S
N1073 C1071 1.384 . S
H1074 C1080 0.930 . S
H1075 C1084 0.930 . S
H1076 C1089 0.929 . S
H1077 C1087 0.929 . S
H1078 C1082 0.929 . S
H1079 C1088 0.929 . S
C1080 H1074 0.930 . S
C1080 C1081 1.367 1_545 S
C1080 C1088 1.378 1_545 S
C1081 C1080 1.367 1_565 S
C1081 C1089 1.433 . S
C1082 H1078 0.929 . S
C1082 C1084 1.378 . S
C1082 C1086 1.350 . S
C1083 C1086 1.463 . S
C1083 C1088 1.350 . S
C1083 N1091 1.427 . S
C1084 H1075 0.930 . S
C1084 C1082 1.378 . S
C1084 C1085 1.367 . S
C1085 C1084 1.367 . S
C1085 C1087 1.433 . S
C1086 C1082 1.350 . S
C1086 C1083 1.463 . S
C1086 N1090 1.427 . S
C1087 H1077 0.929 . S
C1087 C1085 1.433 . S
C1087 N1090 1.384 . S
C1088 H1079 0.929 . S
C1088 C1080 1.378 1_565 S
C1088 C1083 1.350 . S
C1089 H1076 0.929 . S
C1089 C1081 1.433 . S
C1089 N1091 1.384 . S
N1090 C1086 1.427 . S
N1090 C1087 1.384 . S
N1091 C1083 1.427 . S
N1091 C1089 1.384 . S
H1092 C1098 0.930 . S
H1093 C1102 0.930 . S
H1094 C1107 0.929 . S
H1095 C1105 0.929 . S
H1096 C1100 0.929 . S
H1097 C1106 0.929 . S
C1098 H1092 0.930 . S
C1098 C1099 1.367 . S
C1098 C1106 1.378 . S
C1099 C1098 1.367 . S
C1099 C1107 1.433 . S
C1100 H1096 0.929 . S
C1100 C1102 1.378 . S
C1100 C1104 1.350 . S
C1101 C1104 1.463 . S
C1101 C1106 1.350 . S
C1101 N1109 1.427 . S
C1102 H1093 0.930 . S
C1102 C1100 1.378 . S
C1102 C1103 1.367 . S
C1103 C1102 1.367 . S
C1103 C1105 1.433 . S
C1104 C1100 1.350 . S
C1104 C1101 1.463 . S
C1104 N1108 1.427 . S
C1105 H1095 0.929 . S
C1105 C1103 1.433 . S
C1105 N1108 1.384 . S
C1106 H1097 0.929 . S
C1106 C1098 1.378 . S
C1106 C1101 1.350 . S
C1107 H1094 0.929 . S
C1107 C1099 1.433 . S
C1107 N1109 1.384 . S
N1108 C1104 1.427 . S
N1108 C1105 1.384 . S
N1109 C1101 1.427 . S
N1109 C1107 1.384 . S
H1110 C1116 0.930 . S
H1111 C1120 0.930 . S
H1112 C1125 0.929 . S
H1113 C1123 0.929 . S
H1114 C1118 0.929 . S
H1115 C1124 0.929 . S
C1116 H1110 0.930 . S
C1116 C1117 1.367 . S
C1116 C1124 1.378 . S
C1117 C1116 1.367 . S
C1117 C1125 1.433 . S
C1118 H1114 0.929 . S
C1118 C1120 1.378 . S
C1118 C1122 1.350 . S
C1119 C1122 1.463 . S
C1119 C1124 1.350 . S
C1119 N1127 1.427 . S
C1120 H1111 0.930 . S
C1120 C1118 1.378 . S
C1120 C1121 1.367 . S
C1121 C1120 1.367 . S
C1121 C1123 1.433 . S
C1122 C1118 1.350 . S
C1122 C1119 1.463 . S
C1122 N1126 1.427 . S
C1123 H1113 0.929 . S
C1123 C1121 1.433 . S
C1123 N1126 1.384 . S
C1124 H1115 0.929 . S
C1124 C1116 1.378 . S
C1124 C1119 1.350 . S
C1125 H1112 0.929 . S
C1125 C1117 1.433 . S
C1125 N1127 1.384 . S
N1126 C1122 1.427 . S
N1126 C1123 1.384 . S
N1127 C1119 1.427 . S
N1127 C1125 1.384 . S
H1128 C1134 0.930 . S
H1129 C1138 0.930 . S
H1130 C1143 0.929 . S
H1131 C1141 0.929 . S
H1132 C1136 0.929 . S
H1133 C1142 0.929 . S
C1134 H1128 0.930 . S
C1134 C1135 1.367 . S
C1134 C1142 1.378 . S
C1135 C1134 1.367 . S
C1135 C1143 1.433 1_556 S
C1136 H1132 0.929 . S
C1136 C1138 1.378 . S
C1136 C1140 1.350 . S
C1137 C1140 1.463 . S
C1137 C1142 1.350 1_554 S
C1137 N1145 1.427 . S
C1138 H1129 0.930 . S
C1138 C1136 1.378 . S
C1138 C1139 1.367 . S
C1139 C1138 1.367 . S
C1139 C1141 1.433 . S
C1140 C1136 1.350 . S
C1140 C1137 1.463 . S
C1140 N1144 1.427 . S
C1141 H1131 0.929 . S
C1141 C1139 1.433 . S
C1141 N1144 1.384 . S
C1142 H1133 0.929 . S
C1142 C1134 1.378 . S
C1142 C1137 1.350 1_556 S
C1143 H1130 0.929 . S
C1143 C1135 1.433 1_554 S
C1143 N1145 1.384 . S
N1144 C1140 1.427 . S
N1144 C1141 1.384 . S
N1145 C1137 1.427 . S
N1145 C1143 1.384 . S
H1146 C1152 0.930 . S
H1147 C1156 0.930 . S
H1148 C1161 0.929 . S
H1149 C1159 0.929 . S
H1150 C1154 0.929 . S
H1151 C1160 0.929 . S
C1152 H1146 0.930 . S
C1152 C1153 1.367 . S
C1152 C1160 1.378 . S
C1153 C1152 1.367 . S
C1153 C1161 1.433 . S
C1154 H1150 0.929 . S
C1154 C1156 1.378 . S
C1154 C1158 1.350 . S
C1155 C1158 1.463 . S
C1155 C1160 1.350 . S
C1155 N1163 1.427 . S
C1156 H1147 0.930 . S
C1156 C1154 1.378 . S
C1156 C1157 1.367 . S
C1157 C1156 1.367 . S
C1157 C1159 1.433 . S
C1158 C1154 1.350 . S
C1158 C1155 1.463 . S
C1158 N1162 1.427 . S
C1159 H1149 0.929 . S
C1159 C1157 1.433 . S
C1159 N1162 1.384 . S
C1160 H1151 0.929 . S
C1160 C1152 1.378 . S
C1160 C1155 1.350 . S
C1161 H1148 0.929 . S
C1161 C1153 1.433 . S
C1161 N1163 1.384 . S
N1162 C1158 1.427 . S
N1162 C1159 1.384 . S
N1163 C1155 1.427 . S
N1163 C1161 1.384 . S
H1164 C1170 0.930 . S
H1165 C1174 0.930 . S
H1166 C1179 0.929 . S
H1167 C1177 0.929 . S
H1168 C1172 0.929 . S
H1169 C1178 0.929 . S
C1170 H1164 0.930 . S
C1170 C1171 1.367 . S
C1170 C1178 1.378 . S
C1171 C1170 1.367 . S
C1171 C1179 1.433 . S
C1172 H1168 0.929 . S
C1172 C1174 1.378 . S
C1172 C1176 1.350 . S
C1173 C1176 1.463 . S
C1173 C1178 1.350 . S
C1173 N1181 1.427 . S
C1174 H1165 0.930 . S
C1174 C1172 1.378 . S
C1174 C1175 1.367 . S
C1175 C1174 1.367 . S
C1175 C1177 1.433 . S
C1176 C1172 1.350 . S
C1176 C1173 1.463 . S
C1176 N1180 1.427 . S
C1177 H1167 0.929 . S
C1177 C1175 1.433 . S
C1177 N1180 1.384 . S
C1178 H1169 0.929 . S
C1178 C1170 1.378 . S
C1178 C1173 1.350 . S
C1179 H1166 0.929 . S
C1179 C1171 1.433 . S
C1179 N1181 1.384 . S
N1180 C1176 1.427 . S
N1180 C1177 1.384 . S
N1181 C1173 1.427 . S
N1181 C1179 1.384 . S
H1182 C1188 0.930 . S
H1183 C1192 0.930 . S
H1184 C1197 0.929 . S
H1185 C1195 0.929 . S
H1186 C1190 0.929 . S
H1187 C1196 0.929 . S
C1188 H1182 0.930 . S
C1188 C1189 1.367 . S
C1188 C1196 1.378 . S
C1189 C1188 1.367 . S
C1189 C1197 1.433 . S
C1190 H1186 0.929 . S
C1190 C1192 1.378 . S
C1190 C1194 1.350 . S
C1191 C1194 1.463 . S
C1191 C1196 1.350 . S
C1191 N1199 1.427 . S
C1192 H1183 0.930 . S
C1192 C1190 1.378 . S
C1192 C1193 1.367 . S
C1193 C1192 1.367 . S
C1193 C1195 1.433 . S
C1194 C1190 1.350 . S
C1194 C1191 1.463 . S
C1194 N1198 1.427 . S
C1195 H1185 0.929 . S
C1195 C1193 1.433 . S
C1195 N1198 1.384 . S
C1196 H1187 0.929 . S
C1196 C1188 1.378 . S
C1196 C1191 1.350 . S
C1197 H1184 0.929 . S
C1197 C1189 1.433 . S
C1197 N1199 1.384 . S
N1198 C1194 1.427 . S
N1198 C1195 1.384 . S
N1199 C1191 1.427 . S
N1199 C1197 1.384 . S
H1200 C1206 0.930 . S
H1201 C1210 0.930 . S
H1202 C1215 0.929 . S
H1203 C1213 0.929 . S
H1204 C1208 0.929 . S
H1205 C1214 0.929 . S
C1206 H1200 0.930 . S
C1206 C1207 1.367 . S
C1206 C1214 1.378 . S
C1207 C1206 1.367 . S
C1207 C1215 1.433 . S
C1208 H1204 0.929 . S
C1208 C1210 1.378 . S
C1208 C1212 1.350 . S
C1209 C1212 1.463 . S
C1209 C1214 1.350 . S
C1209 N1217 1.427 . S
C1210 H1201 0.930 . S
C1210 C1208 1.378 . S
C1210 C1211 1.367 . S
C1211 C1210 1.367 . S
C1211 C1213 1.433 . S
C1212 C1208 1.350 . S
C1212 C1209 1.463 . S
C1212 N1216 1.427 . S
C1213 H1203 0.929 . S
C1213 C1211 1.433 . S
C1213 N1216 1.384 . S
C1214 H1205 0.929 . S
C1214 C1206 1.378 . S
C1214 C1209 1.350 . S
C1215 H1202 0.929 . S
C1215 C1207 1.433 . S
C1215 N1217 1.384 . S
N1216 C1212 1.427 . S
N1216 C1213 1.384 . S
N1217 C1209 1.427 . S
N1217 C1215 1.384 . S
H1218 C1224 0.930 . S
H1219 C1228 0.930 . S
H1220 C1233 0.929 . S
H1221 C1231 0.929 . S
H1222 C1226 0.929 . S
H1223 C1232 0.929 . S
C1224 H1218 0.930 . S
C1224 C1225 1.367 . S
C1224 C1232 1.378 . S
C1225 C1224 1.367 . S
C1225 C1233 1.433 1_554 S
C1226 H1222 0.929 . S
C1226 C1228 1.378 . S
C1226 C1230 1.350 . S
C1227 C1230 1.462 1_554 S
C1227 C1232 1.353 . S
C1227 N1235 1.425 1_554 S
C1228 H1219 0.930 . S
C1228 C1226 1.378 . S
C1228 C1229 1.367 . S
C1229 C1228 1.367 . S
C1229 C1231 1.433 1_556 S
C1230 C1226 1.350 . S
C1230 C1227 1.462 1_556 S
C1230 N1234 1.427 1_556 S
C1231 H1221 0.929 . S
C1231 C1229 1.433 1_554 S
C1231 N1234 1.384 . S
C1232 H1223 0.929 . S
C1232 C1224 1.378 . S
C1232 C1227 1.353 . S
C1233 H1220 0.929 . S
C1233 C1225 1.433 1_556 S
C1233 N1235 1.384 . S
N1234 C1230 1.427 1_554 S
N1234 C1231 1.384 . S
N1235 C1227 1.425 1_556 S
N1235 C1233 1.384 . S
H1236 C1242 0.930 . S
H1237 C1246 0.930 . S
H1238 C1251 0.929 . S
H1239 C1249 0.929 . S
H1240 C1244 0.929 . S
H1241 C1250 0.929 . S
C1242 H1236 0.930 . S
C1242 C1243 1.367 . S
C1242 C1250 1.378 . S
C1243 C1242 1.367 . S
C1243 C1251 1.433 . S
C1244 H1240 0.929 . S
C1244 C1246 1.378 . S
C1244 C1248 1.350 . S
C1245 C1248 1.463 . S
C1245 C1250 1.350 . S
C1245 N1253 1.427 . S
C1246 H1237 0.930 . S
C1246 C1244 1.378 . S
C1246 C1247 1.367 . S
C1247 C1246 1.367 . S
C1247 C1249 1.433 . S
C1248 C1244 1.350 . S
C1248 C1245 1.463 . S
C1248 N1252 1.427 . S
C1249 H1239 0.929 . S
C1249 C1247 1.433 . S
C1249 N1252 1.384 . S
C1250 H1241 0.929 . S
C1250 C1242 1.378 . S
C1250 C1245 1.350 . S
C1251 H1238 0.929 . S
C1251 C1243 1.433 . S
C1251 N1253 1.384 . S
N1252 C1248 1.427 . S
N1252 C1249 1.384 . S
N1253 C1245 1.427 . S
N1253 C1251 1.384 . S
H1254 C1260 0.930 . S
H1255 C1264 0.930 . S
H1256 C1269 0.929 . S
H1257 C1267 0.929 . S
H1258 C1262 0.929 . S
H1259 C1268 0.929 . S
C1260 H1254 0.930 . S
C1260 C1261 1.367 . S
C1260 C1268 1.378 . S
C1261 C1260 1.367 . S
C1261 C1269 1.433 . S
C1262 H1258 0.929 . S
C1262 C1264 1.378 . S
C1262 C1266 1.350 . S
C1263 C1266 1.463 . S
C1263 C1268 1.350 . S
C1263 N1271 1.427 . S
C1264 H1255 0.930 . S
C1264 C1262 1.378 . S
C1264 C1265 1.367 . S
C1265 C1264 1.367 . S
C1265 C1267 1.433 . S
C1266 C1262 1.350 . S
C1266 C1263 1.463 . S
C1266 N1270 1.427 . S
C1267 H1257 0.929 . S
C1267 C1265 1.433 . S
C1267 N1270 1.384 . S
C1268 H1259 0.929 . S
C1268 C1260 1.378 . S
C1268 C1263 1.350 . S
C1269 H1256 0.929 . S
C1269 C1261 1.433 . S
C1269 N1271 1.384 . S
N1270 C1266 1.427 . S
N1270 C1267 1.384 . S
N1271 C1263 1.427 . S
N1271 C1269 1.384 . S
H1272 C1278 0.930 . S
H1273 C1282 0.930 . S
H1274 C1287 0.929 . S
H1275 C1285 0.929 . S
H1276 C1280 0.929 . S
H1277 C1286 0.929 . S
C1278 H1272 0.930 . S
C1278 C1279 1.367 . S
C1278 C1286 1.378 . S
C1279 C1278 1.367 . S
C1279 C1287 1.433 . S
C1280 H1276 0.929 . S
C1280 C1282 1.378 . S
C1280 C1284 1.350 . S
C1281 C1284 1.463 . S
C1281 C1286 1.350 . S
C1281 N1289 1.427 . S
C1282 H1273 0.930 . S
C1282 C1280 1.378 . S
C1282 C1283 1.367 . S
C1283 C1282 1.367 . S
C1283 C1285 1.433 . S
C1284 C1280 1.350 . S
C1284 C1281 1.463 . S
C1284 N1288 1.427 . S
C1285 H1275 0.929 . S
C1285 C1283 1.433 . S
C1285 N1288 1.384 . S
C1286 H1277 0.929 . S
C1286 C1278 1.378 . S
C1286 C1281 1.350 . S
C1287 H1274 0.929 . S
C1287 C1279 1.433 . S
C1287 N1289 1.384 . S
N1288 C1284 1.427 . S
N1288 C1285 1.384 . S
N1289 C1281 1.427 . S
N1289 C1287 1.384 . S
H1290 C1296 0.930 . S
H1291 C1300 0.930 . S
H1292 C1305 0.929 . S
H1293 C1303 0.929 . S
H1294 C1298 0.929 . S
H1295 C1304 0.929 . S
C1296 H1290 0.930 . S
C1296 C1297 1.367 . S
C1296 C1304 1.378 . S
C1297 C1296 1.367 . S
C1297 C1305 1.433 . S
C1298 H1294 0.929 . S
C1298 C1300 1.378 . S
C1298 C1302 1.350 . S
C1299 C1302 1.463 . S
C1299 C1304 1.350 . S
C1299 N1307 1.427 . S
C1300 H1291 0.930 . S
C1300 C1298 1.378 . S
C1300 C1301 1.367 . S
C1301 C1300 1.367 . S
C1301 C1303 1.433 . S
C1302 C1298 1.350 . S
C1302 C1299 1.463 . S
C1302 N1306 1.427 . S
C1303 H1293 0.929 . S
C1303 C1301 1.433 . S
C1303 N1306 1.384 . S
C1304 H1295 0.929 . S
C1304 C1296 1.378 . S
C1304 C1299 1.350 . S
C1305 H1292 0.929 . S
C1305 C1297 1.433 . S
C1305 N1307 1.384 . S
N1306 C1302 1.427 . S
N1306 C1303 1.384 . S
N1307 C1299 1.427 . S
N1307 C1305 1.384 . S
H1308 C1314 0.930 . S
H1309 C1318 0.929 1_554 S
H1310 C1323 0.929 . S
H1311 C1321 0.929 . S
H1312 C1316 0.929 . S
H1313 C1322 0.929 . S
C1314 H1308 0.930 . S
C1314 C1315 1.367 1_556 S
C1314 C1322 1.378 . S
C1315 C1314 1.367 1_554 S
C1315 C1323 1.433 . S
C1316 H1312 0.929 . S
C1316 C1318 1.378 1_554 S
C1316 C1320 1.350 1_554 S
C1317 C1320 1.463 . S
C1317 C1322 1.350 . S
C1317 N1325 1.427 1_556 S
C1318 H1309 0.929 1_556 S
C1318 C1316 1.378 1_556 S
C1318 C1319 1.367 . S
C1319 C1318 1.367 . S
C1319 C1321 1.433 . S
C1320 C1316 1.350 1_556 S
C1320 C1317 1.463 . S
C1320 N1324 1.427 . S
C1321 H1311 0.929 . S
C1321 C1319 1.433 . S
C1321 N1324 1.384 . S
C1322 H1313 0.929 . S
C1322 C1314 1.378 . S
C1322 C1317 1.350 . S
C1323 H1310 0.929 . S
C1323 C1315 1.433 . S
C1323 N1325 1.384 . S
N1324 C1320 1.427 . S
N1324 C1321 1.384 . S
N1325 C1317 1.427 1_554 S
N1325 C1323 1.384 . S
H1326 C1332 0.930 . S
H1327 C1336 0.930 . S
H1328 C1341 0.929 . S
H1329 C1339 0.929 . S
H1330 C1334 0.929 . S
H1331 C1340 0.929 . S
C1332 H1326 0.930 . S
C1332 C1333 1.367 . S
C1332 C1340 1.378 . S
C1333 C1332 1.367 . S
C1333 C1341 1.433 . S
C1334 H1330 0.929 . S
C1334 C1336 1.378 . S
C1334 C1338 1.350 . S
C1335 C1338 1.463 . S
C1335 C1340 1.350 . S
C1335 N1343 1.427 . S
C1336 H1327 0.930 . S
C1336 C1334 1.378 . S
C1336 C1337 1.367 . S
C1337 C1336 1.367 . S
C1337 C1339 1.433 . S
C1338 C1334 1.350 . S
C1338 C1335 1.463 . S
C1338 N1342 1.427 . S
C1339 H1329 0.929 . S
C1339 C1337 1.433 . S
C1339 N1342 1.384 . S
C1340 H1331 0.929 . S
C1340 C1332 1.378 . S
C1340 C1335 1.350 . S
C1341 H1328 0.929 . S
C1341 C1333 1.433 . S
C1341 N1343 1.384 . S
N1342 C1338 1.427 . S
N1342 C1339 1.384 . S
N1343 C1335 1.427 . S
N1343 C1341 1.384 . S
H1344 C1350 0.930 . S
H1345 C1354 0.930 . S
H1346 C1359 0.929 . S
H1347 C1357 0.929 . S
H1348 C1352 0.929 . S
H1349 C1358 0.929 . S
C1350 H1344 0.930 . S
C1350 C1351 1.367 . S
C1350 C1358 1.378 . S
C1351 C1350 1.367 . S
C1351 C1359 1.433 . S
C1352 H1348 0.929 . S
C1352 C1354 1.378 . S
C1352 C1356 1.350 . S
C1353 C1356 1.463 . S
C1353 C1358 1.350 . S
C1353 N1361 1.427 . S
C1354 H1345 0.930 . S
C1354 C1352 1.378 . S
C1354 C1355 1.367 . S
C1355 C1354 1.367 . S
C1355 C1357 1.433 . S
C1356 C1352 1.350 . S
C1356 C1353 1.463 . S
C1356 N1360 1.427 . S
C1357 H1347 0.929 . S
C1357 C1355 1.433 . S
C1357 N1360 1.384 . S
C1358 H1349 0.929 . S
C1358 C1350 1.378 . S
C1358 C1353 1.350 . S
C1359 H1346 0.929 . S
C1359 C1351 1.433 . S
C1359 N1361 1.384 . S
N1360 C1356 1.427 . S
N1360 C1357 1.384 . S
N1361 C1353 1.427 . S
N1361 C1359 1.384 . S
H1362 C1368 0.930 . S
H1363 C1372 0.930 . S
H1364 C1377 0.929 . S
H1365 C1375 0.929 . S
H1366 C1370 0.929 . S
H1367 C1376 0.929 . S
C1368 H1362 0.930 . S
C1368 C1369 1.367 . S
C1368 C1376 1.378 . S
C1369 C1368 1.367 . S
C1369 C1377 1.433 . S
C1370 H1366 0.929 . S
C1370 C1372 1.378 . S
C1370 C1374 1.350 1_455 S
C1371 C1374 1.463 . S
C1371 C1376 1.350 . S
C1371 N1379 1.427 . S
C1372 H1363 0.930 . S
C1372 C1370 1.378 . S
C1372 C1373 1.367 . S
C1373 C1372 1.367 . S
C1373 C1375 1.433 1_455 S
C1374 C1370 1.350 1_655 S
C1374 C1371 1.463 . S
C1374 N1378 1.427 . S
C1375 H1365 0.929 . S
C1375 C1373 1.433 1_655 S
C1375 N1378 1.384 . S
C1376 H1367 0.929 . S
C1376 C1368 1.378 . S
C1376 C1371 1.350 . S
C1377 H1364 0.929 . S
C1377 C1369 1.433 . S
C1377 N1379 1.384 . S
N1378 C1374 1.427 . S
N1378 C1375 1.384 . S
N1379 C1371 1.427 . S
N1379 C1377 1.384 . S
H1380 C1386 0.930 . S
H1381 C1390 0.930 . S
H1382 C1395 0.929 . S
H1383 C1393 0.929 . S
H1384 C1388 0.929 . S
H1385 C1394 0.929 . S
C1386 H1380 0.930 . S
C1386 C1387 1.367 . S
C1386 C1394 1.378 . S
C1387 C1386 1.367 . S
C1387 C1395 1.433 . S
C1388 H1384 0.929 . S
C1388 C1390 1.378 . S
C1388 C1392 1.350 . S
C1389 C1392 1.463 . S
C1389 C1394 1.350 . S
C1389 N1397 1.427 . S
C1390 H1381 0.930 . S
C1390 C1388 1.378 . S
C1390 C1391 1.367 . S
C1391 C1390 1.367 . S
C1391 C1393 1.433 . S
C1392 C1388 1.350 . S
C1392 C1389 1.463 . S
C1392 N1396 1.427 . S
C1393 H1383 0.929 . S
C1393 C1391 1.433 . S
C1393 N1396 1.384 . S
C1394 H1385 0.929 . S
C1394 C1386 1.378 . S
C1394 C1389 1.350 . S
C1395 H1382 0.929 . S
C1395 C1387 1.433 . S
C1395 N1397 1.384 . S
N1396 C1392 1.427 . S
N1396 C1393 1.384 . S
N1397 C1389 1.427 . S
N1397 C1395 1.384 . S
H1398 C1404 0.930 . S
H1399 C1408 0.930 . S
H1400 C1413 0.929 . S
H1401 C1411 0.929 . S
H1402 C1406 0.929 . S
H1403 C1412 0.929 . S
C1404 H1398 0.930 . S
C1404 C1405 1.367 . S
C1404 C1412 1.378 . S
C1405 C1404 1.367 . S
C1405 C1413 1.433 . S
C1406 H1402 0.929 . S
C1406 C1408 1.378 . S
C1406 C1410 1.350 . S
C1407 C1410 1.463 . S
C1407 C1412 1.350 . S
C1407 N1415 1.427 . S
C1408 H1399 0.930 . S
C1408 C1406 1.378 . S
C1408 C1409 1.367 . S
C1409 C1408 1.367 . S
C1409 C1411 1.433 . S
C1410 C1406 1.350 . S
C1410 C1407 1.463 . S
C1410 N1414 1.427 . S
C1411 H1401 0.929 . S
C1411 C1409 1.433 . S
C1411 N1414 1.384 . S
C1412 H1403 0.929 . S
C1412 C1404 1.378 . S
C1412 C1407 1.350 . S
C1413 H1400 0.929 . S
C1413 C1405 1.433 . S
C1413 N1415 1.384 . S
N1414 C1410 1.427 . S
N1414 C1411 1.384 . S
N1415 C1407 1.427 . S
N1415 C1413 1.384 . S
H1416 C1422 0.930 . S
H1417 C1426 0.930 . S
H1418 C1431 0.929 . S
H1419 C1429 0.929 . S
H1420 C1424 0.929 . S
H1421 C1430 0.929 . S
C1422 H1416 0.930 . S
C1422 C1423 1.367 . S
C1422 C1430 1.378 . S
C1423 C1422 1.367 . S
C1423 C1431 1.433 . S
C1424 H1420 0.929 . S
C1424 C1426 1.378 . S
C1424 C1428 1.350 . S
C1425 C1428 1.463 . S
C1425 C1430 1.350 . S
C1425 N1433 1.427 . S
C1426 H1417 0.930 . S
C1426 C1424 1.378 . S
C1426 C1427 1.367 . S
C1427 C1426 1.367 . S
C1427 C1429 1.433 . S
C1428 C1424 1.350 . S
C1428 C1425 1.463 . S
C1428 N1432 1.427 . S
C1429 H1419 0.929 . S
C1429 C1427 1.433 . S
C1429 N1432 1.384 . S
C1430 H1421 0.929 . S
C1430 C1422 1.378 . S
C1430 C1425 1.350 . S
C1431 H1418 0.929 . S
C1431 C1423 1.433 . S
C1431 N1433 1.384 . S
N1432 C1428 1.427 . S
N1432 C1429 1.384 . S
N1433 C1425 1.427 . S
N1433 C1431 1.384 . S
H1434 C1440 0.930 . S
H1435 C1444 0.930 . S
H1436 C1449 0.929 . S
H1437 C1447 0.929 . S
H1438 C1442 0.929 . S
H1439 C1448 0.929 . S
C1440 H1434 0.930 . S
C1440 C1441 1.367 . S
C1440 C1448 1.378 . S
C1441 C1440 1.367 . S
C1441 C1449 1.433 . S
C1442 H1438 0.929 . S
C1442 C1444 1.378 . S
C1442 C1446 1.350 . S
C1443 C1446 1.463 . S
C1443 C1448 1.350 . S
C1443 N1451 1.427 . S
C1444 H1435 0.930 . S
C1444 C1442 1.378 . S
C1444 C1445 1.367 . S
C1445 C1444 1.367 . S
C1445 C1447 1.433 . S
C1446 C1442 1.350 . S
C1446 C1443 1.463 . S
C1446 N1450 1.427 . S
C1447 H1437 0.929 . S
C1447 C1445 1.433 . S
C1447 N1450 1.384 . S
C1448 H1439 0.929 . S
C1448 C1440 1.378 . S
C1448 C1443 1.350 . S
C1449 H1436 0.929 . S
C1449 C1441 1.433 . S
C1449 N1451 1.384 . S
N1450 C1446 1.427 . S
N1450 C1447 1.384 . S
N1451 C1443 1.427 . S
N1451 C1449 1.384 . S
H1452 C1458 0.930 . S
H1453 C1462 0.930 . S
H1454 C1467 0.929 . S
H1455 C1465 0.929 . S
H1456 C1460 0.929 . S
H1457 C1466 0.929 1_455 S
C1458 H1452 0.930 . S
C1458 C1459 1.367 1_455 S
C1458 C1466 1.378 1_455 S
C1459 C1458 1.367 1_655 S
C1459 C1467 1.433 . S
C1460 H1456 0.929 . S
C1460 C1462 1.378 . S
C1460 C1464 1.350 . S
C1461 C1464 1.463 . S
C1461 C1466 1.350 . S
C1461 N1469 1.427 . S
C1462 H1453 0.930 . S
C1462 C1460 1.378 . S
C1462 C1463 1.367 . S
C1463 C1462 1.367 . S
C1463 C1465 1.433 . S
C1464 C1460 1.350 . S
C1464 C1461 1.463 . S
C1464 N1468 1.427 . S
C1465 H1455 0.929 . S
C1465 C1463 1.433 . S
C1465 N1468 1.384 . S
C1466 H1457 0.929 1_655 S
C1466 C1458 1.378 1_655 S
C1466 C1461 1.350 . S
C1467 H1454 0.929 . S
C1467 C1459 1.433 . S
C1467 N1469 1.384 . S
N1468 C1464 1.427 . S
N1468 C1465 1.384 . S
N1469 C1461 1.427 . S
N1469 C1467 1.384 . S
H1470 C1476 0.930 . S
H1471 C1480 0.930 . S
H1472 C1485 0.929 . S
H1473 C1483 0.929 . S
H1474 C1478 0.929 . S
H1475 C1484 0.929 . S
C1476 H1470 0.930 . S
C1476 C1477 1.367 . S
C1476 C1484 1.378 . S
C1477 C1476 1.367 . S
C1477 C1485 1.433 . S
C1478 H1474 0.929 . S
C1478 C1480 1.378 . S
C1478 C1482 1.350 . S
C1479 C1482 1.463 . S
C1479 C1484 1.350 . S
C1479 N1487 1.427 . S
C1480 H1471 0.930 . S
C1480 C1478 1.378 . S
C1480 C1481 1.367 . S
C1481 C1480 1.367 . S
C1481 C1483 1.433 . S
C1482 C1478 1.350 . S
C1482 C1479 1.463 . S
C1482 N1486 1.427 . S
C1483 H1473 0.929 . S
C1483 C1481 1.433 . S
C1483 N1486 1.384 . S
C1484 H1475 0.929 . S
C1484 C1476 1.378 . S
C1484 C1479 1.350 . S
C1485 H1472 0.929 . S
C1485 C1477 1.433 . S
C1485 N1487 1.384 . S
N1486 C1482 1.427 . S
N1486 C1483 1.384 . S
N1487 C1479 1.427 . S
N1487 C1485 1.384 . S
H1488 C1494 0.930 . S
H1489 C1498 0.930 . S
H1490 C1503 0.929 . S
H1491 C1501 0.929 . S
H1492 C1496 0.929 . S
H1493 C1502 0.929 . S
C1494 H1488 0.930 . S
C1494 C1495 1.367 . S
C1494 C1502 1.378 . S
C1495 C1494 1.367 . S
C1495 C1503 1.433 . S
C1496 H1492 0.929 . S
C1496 C1498 1.378 . S
C1496 C1500 1.350 . S
C1497 C1500 1.463 . S
C1497 C1502 1.350 . S
C1497 N1505 1.427 . S
C1498 H1489 0.930 . S
C1498 C1496 1.378 . S
C1498 C1499 1.367 . S
C1499 C1498 1.367 . S
C1499 C1501 1.433 . S
C1500 C1496 1.350 . S
C1500 C1497 1.463 . S
C1500 N1504 1.427 . S
C1501 H1491 0.929 . S
C1501 C1499 1.433 . S
C1501 N1504 1.384 . S
C1502 H1493 0.929 . S
C1502 C1494 1.378 . S
C1502 C1497 1.350 . S
C1503 H1490 0.929 . S
C1503 C1495 1.433 . S
C1503 N1505 1.384 . S
N1504 C1500 1.427 . S
N1504 C1501 1.384 . S
N1505 C1497 1.427 . S
N1505 C1503 1.384 . S
H1506 C1512 0.930 . S
H1507 C1516 0.930 . S
H1508 C1521 0.929 . S
H1509 C1519 0.929 . S
H1510 C1514 0.929 . S
H1511 C1520 0.929 . S
C1512 H1506 0.930 . S
C1512 C1513 1.367 . S
C1512 C1520 1.378 . S
C1513 C1512 1.367 . S
C1513 C1521 1.433 . S
C1514 H1510 0.929 . S
C1514 C1516 1.378 . S
C1514 C1518 1.350 . S
C1515 C1518 1.463 . S
C1515 C1520 1.350 . S
C1515 N1523 1.427 . S
C1516 H1507 0.930 . S
C1516 C1514 1.378 . S
C1516 C1517 1.367 . S
C1517 C1516 1.367 . S
C1517 C1519 1.433 . S
C1518 C1514 1.350 . S
C1518 C1515 1.463 . S
C1518 N1522 1.427 . S
C1519 H1509 0.929 . S
C1519 C1517 1.433 . S
C1519 N1522 1.384 . S
C1520 H1511 0.929 . S
C1520 C1512 1.378 . S
C1520 C1515 1.350 . S
C1521 H1508 0.929 . S
C1521 C1513 1.433 . S
C1521 N1523 1.384 . S
N1522 C1518 1.427 . S
N1522 C1519 1.384 . S
N1523 C1515 1.427 . S
N1523 C1521 1.384 . S
H1524 C1530 0.930 . S
H1525 C1534 0.930 . S
H1526 C1539 0.929 . S
H1527 C1537 0.929 . S
H1528 C1532 0.929 . S
H1529 C1538 0.929 . S
C1530 H1524 0.930 . S
C1530 C1531 1.367 . S
C1530 C1538 1.378 . S
C1531 C1530 1.367 . S
C1531 C1539 1.433 . S
C1532 H1528 0.929 . S
C1532 C1534 1.378 . S
C1532 C1536 1.350 . S
C1533 C1536 1.463 . S
C1533 C1538 1.350 . S
C1533 N1541 1.427 . S
C1534 H1525 0.930 . S
C1534 C1532 1.378 . S
C1534 C1535 1.367 . S
C1535 C1534 1.367 . S
C1535 C1537 1.433 . S
C1536 C1532 1.350 . S
C1536 C1533 1.463 . S
C1536 N1540 1.427 . S
C1537 H1527 0.929 . S
C1537 C1535 1.433 . S
C1537 N1540 1.384 . S
C1538 H1529 0.929 . S
C1538 C1530 1.378 . S
C1538 C1533 1.350 . S
C1539 H1526 0.929 . S
C1539 C1531 1.433 . S
C1539 N1541 1.384 . S
N1540 C1536 1.427 . S
N1540 C1537 1.384 . S
N1541 C1533 1.427 . S
N1541 C1539 1.384 . S
H1542 C1548 0.930 . S
H1543 C1552 0.930 . S
H1544 C1557 0.929 . S
H1545 C1555 0.929 . S
H1546 C1550 0.929 . S
H1547 C1556 0.929 . S
C1548 H1542 0.930 . S
C1548 C1549 1.367 . S
C1548 C1556 1.378 1_545 S
C1549 C1548 1.367 . S
C1549 C1557 1.433 . S
C1550 H1546 0.929 . S
C1550 C1552 1.378 . S
C1550 C1554 1.350 . S
C1551 C1554 1.463 . S
C1551 C1556 1.350 . S
C1551 N1559 1.427 . S
C1552 H1543 0.930 . S
C1552 C1550 1.378 . S
C1552 C1553 1.367 . S
C1553 C1552 1.367 . S
C1553 C1555 1.433 . S
C1554 C1550 1.350 . S
C1554 C1551 1.463 . S
C1554 N1558 1.427 . S
C1555 H1545 0.929 . S
C1555 C1553 1.433 . S
C1555 N1558 1.384 . S
C1556 H1547 0.929 . S
C1556 C1548 1.378 1_565 S
C1556 C1551 1.350 . S
C1557 H1544 0.929 . S
C1557 C1549 1.433 . S
C1557 N1559 1.384 1_545 S
N1558 C1554 1.427 . S
N1558 C1555 1.384 . S
N1559 C1551 1.427 . S
N1559 C1557 1.384 1_565 S
H1560 C1566 0.930 . S
H1561 C1570 0.930 . S
H1562 C1575 0.929 . S
H1563 C1573 0.929 . S
H1564 C1568 0.929 . S
H1565 C1574 0.929 . S
C1566 H1560 0.930 . S
C1566 C1567 1.367 . S
C1566 C1574 1.378 . S
C1567 C1566 1.367 . S
C1567 C1575 1.433 . S
C1568 H1564 0.929 . S
C1568 C1570 1.378 . S
C1568 C1572 1.350 . S
C1569 C1572 1.463 . S
C1569 C1574 1.350 . S
C1569 N1577 1.427 . S
C1570 H1561 0.930 . S
C1570 C1568 1.378 . S
C1570 C1571 1.367 . S
C1571 C1570 1.367 . S
C1571 C1573 1.433 . S
C1572 C1568 1.350 . S
C1572 C1569 1.463 . S
C1572 N1576 1.427 . S
C1573 H1563 0.929 . S
C1573 C1571 1.433 . S
C1573 N1576 1.384 . S
C1574 H1565 0.929 . S
C1574 C1566 1.378 . S
C1574 C1569 1.350 . S
C1575 H1562 0.929 . S
C1575 C1567 1.433 . S
C1575 N1577 1.384 . S
N1576 C1572 1.427 . S
N1576 C1573 1.384 . S
N1577 C1569 1.427 . S
N1577 C1575 1.384 . S
H1578 C1584 0.930 . S
H1579 C1588 0.930 1_556 S
H1580 C1593 0.929 . S
H1581 C1591 0.929 . S
H1582 C1586 0.929 . S
H1583 C1592 0.929 . S
C1584 H1578 0.930 . S
C1584 C1585 1.367 . S
C1584 C1592 1.378 . S
C1585 C1584 1.367 . S
C1585 C1593 1.433 . S
C1586 H1582 0.929 . S
C1586 C1588 1.378 . S
C1586 C1590 1.350 . S
C1587 C1590 1.463 . S
C1587 C1592 1.350 . S
C1587 N1595 1.427 . S
C1588 H1579 0.930 1_554 S
C1588 C1586 1.378 . S
C1588 C1589 1.367 . S
C1589 C1588 1.367 . S
C1589 C1591 1.433 . S
C1590 C1586 1.350 . S
C1590 C1587 1.463 . S
C1590 N1594 1.427 . S
C1591 H1581 0.929 . S
C1591 C1589 1.433 . S
C1591 N1594 1.384 . S
C1592 H1583 0.929 . S
C1592 C1584 1.378 . S
C1592 C1587 1.350 . S
C1593 H1580 0.929 . S
C1593 C1585 1.433 . S
C1593 N1595 1.384 . S
N1594 C1590 1.427 . S
N1594 C1591 1.384 . S
N1595 C1587 1.427 . S
N1595 C1593 1.384 . S
H1596 C1602 0.930 . S
H1597 C1606 0.930 . S
H1598 C1611 0.934 . S
H1599 C1609 0.929 . S
H1600 C1604 0.929 . S
H1601 C1610 0.929 . S
C1602 H1596 0.930 . S
C1602 C1603 1.367 . S
C1602 C1610 1.378 . S
C1603 C1602 1.367 . S
C1603 C1611 1.433 . S
C1604 H1600 0.929 . S
C1604 C1606 1.378 . S
C1604 C1608 1.350 . S
C1605 C1608 1.463 . S
C1605 C1610 1.350 . S
C1605 N1613 1.427 . S
C1606 H1597 0.930 . S
C1606 C1604 1.378 . S
C1606 C1607 1.367 . S
C1607 C1606 1.367 . S
C1607 C1609 1.433 . S
C1608 C1604 1.350 . S
C1608 C1605 1.463 . S
C1608 N1612 1.427 . S
C1609 H1599 0.929 . S
C1609 C1607 1.433 . S
C1609 N1612 1.384 . S
C1610 H1601 0.929 . S
C1610 C1602 1.378 . S
C1610 C1605 1.350 . S
C1611 H1598 0.934 . S
C1611 C1603 1.433 . S
C1611 N1613 1.384 . S
N1612 C1608 1.427 . S
N1612 C1609 1.384 . S
N1613 C1605 1.427 . S
N1613 C1611 1.384 . S
H1614 C1620 0.930 . S
H1615 C1624 0.930 . S
H1616 C1629 0.929 . S
H1617 C1627 0.929 . S
H1618 C1622 0.929 . S
H1619 C1628 0.929 . S
C1620 H1614 0.930 . S
C1620 C1621 1.367 . S
C1620 C1628 1.378 . S
C1621 C1620 1.367 . S
C1621 C1629 1.433 . S
C1622 H1618 0.929 . S
C1622 C1624 1.378 1_545 S
C1622 C1626 1.350 . S
C1623 C1626 1.463 . S
C1623 C1628 1.350 . S
C1623 N1631 1.427 . S
C1624 H1615 0.930 . S
C1624 C1622 1.378 1_565 S
C1624 C1625 1.367 . S
C1625 C1624 1.367 . S
C1625 C1627 1.433 . S
C1626 C1622 1.350 . S
C1626 C1623 1.463 . S
C1626 N1630 1.427 . S
C1627 H1617 0.929 . S
C1627 C1625 1.433 . S
C1627 N1630 1.384 1_565 S
C1628 H1619 0.929 . S
C1628 C1620 1.378 . S
C1628 C1623 1.350 . S
C1629 H1616 0.929 . S
C1629 C1621 1.433 . S
C1629 N1631 1.384 . S
N1630 C1626 1.427 . S
N1630 C1627 1.384 1_545 S
N1631 C1623 1.427 . S
N1631 C1629 1.384 . S
H1632 C1638 0.930 . S
H1633 C1642 0.930 . S
H1634 C1647 0.929 . S
H1635 C1645 0.929 . S
H1636 C1640 0.929 . S
H1637 C1646 0.929 . S
C1638 H1632 0.930 . S
C1638 C1639 1.367 . S
C1638 C1646 1.378 . S
C1639 C1638 1.367 . S
C1639 C1647 1.433 . S
C1640 H1636 0.929 . S
C1640 C1642 1.378 . S
C1640 C1644 1.350 . S
C1641 C1644 1.463 . S
C1641 C1646 1.350 . S
C1641 N1649 1.427 . S
C1642 H1633 0.930 . S
C1642 C1640 1.378 . S
C1642 C1643 1.367 . S
C1643 C1642 1.367 . S
C1643 C1645 1.433 . S
C1644 C1640 1.350 . S
C1644 C1641 1.463 . S
C1644 N1648 1.427 . S
C1645 H1635 0.929 . S
C1645 C1643 1.433 . S
C1645 N1648 1.384 . S
C1646 H1637 0.929 . S
C1646 C1638 1.378 . S
C1646 C1641 1.350 . S
C1647 H1634 0.929 . S
C1647 C1639 1.433 . S
C1647 N1649 1.384 . S
N1648 C1644 1.427 . S
N1648 C1645 1.384 . S
N1649 C1641 1.427 . S
N1649 C1647 1.384 . S
H1650 C1656 0.930 . S
H1651 C1660 0.930 . S
H1652 C1665 0.929 . S
H1653 C1663 0.929 . S
H1654 C1658 0.929 . S
H1655 C1664 0.929 . S
C1656 H1650 0.930 . S
C1656 C1657 1.367 . S
C1656 C1664 1.378 1_455 S
C1657 C1656 1.367 . S
C1657 C1665 1.433 . S
C1658 H1654 0.929 . S
C1658 C1660 1.378 . S
C1658 C1662 1.350 . S
C1659 C1662 1.463 . S
C1659 C1664 1.350 . S
C1659 N1667 1.427 . S
C1660 H1651 0.930 . S
C1660 C1658 1.378 . S
C1660 C1661 1.367 . S
C1661 C1660 1.367 . S
C1661 C1663 1.433 . S
C1662 C1658 1.350 . S
C1662 C1659 1.463 . S
C1662 N1666 1.427 . S
C1663 H1653 0.929 . S
C1663 C1661 1.433 . S
C1663 N1666 1.384 . S
C1664 H1655 0.929 . S
C1664 C1656 1.378 1_655 S
C1664 C1659 1.350 . S
C1665 H1652 0.929 . S
C1665 C1657 1.433 . S
C1665 N1667 1.384 1_455 S
N1666 C1662 1.427 . S
N1666 C1663 1.384 . S
N1667 C1659 1.427 . S
N1667 C1665 1.384 1_655 S
H1668 C1674 0.930 . S
H1669 C1678 0.930 . S
H1670 C1683 0.929 . S
H1671 C1681 0.929 . S
H1672 C1676 0.929 . S
H1673 C1682 0.929 . S
C1674 H1668 0.930 . S
C1674 C1675 1.367 . S
C1674 C1682 1.378 . S
C1675 C1674 1.367 . S
C1675 C1683 1.433 . S
C1676 H1672 0.929 . S
C1676 C1678 1.378 1_554 S
C1676 C1680 1.350 . S
C1677 C1680 1.463 . S
C1677 C1682 1.350 . S
C1677 N1685 1.427 . S
C1678 H1669 0.930 . S
C1678 C1676 1.378 1_556 S
C1678 C1679 1.367 1_556 S
C1679 C1678 1.367 1_554 S
C1679 C1681 1.433 . S
C1680 C1676 1.350 . S
C1680 C1677 1.463 . S
C1680 N1684 1.427 . S
C1681 H1671 0.929 . S
C1681 C1679 1.433 . S
C1681 N1684 1.384 . S
C1682 H1673 0.929 . S
C1682 C1674 1.378 . S
C1682 C1677 1.350 . S
C1683 H1670 0.929 . S
C1683 C1675 1.433 . S
C1683 N1685 1.384 . S
N1684 C1680 1.427 . S
N1684 C1681 1.384 . S
N1685 C1677 1.427 . S
N1685 C1683 1.384 . S
H1686 C1692 0.930 . S
H1687 C1696 0.930 1_455 S
H1688 C1701 0.929 . S
H1689 C1699 0.929 . S
H1690 C1694 0.929 1_565 S
H1691 C1700 0.929 . S
C1692 H1686 0.930 . S
C1692 C1693 1.367 . S
C1692 C1700 1.378 . S
C1693 C1692 1.367 . S
C1693 C1701 1.433 1_545 S
C1694 H1690 0.929 1_545 S
C1694 C1696 1.378 . S
C1694 C1698 1.350 . S
C1695 C1698 1.463 . S
C1695 C1700 1.350 . S
C1695 N1703 1.427 1_545 S
C1696 H1687 0.930 1_655 S
C1696 C1694 1.378 . S
C1696 C1697 1.367 . S
C1697 C1696 1.367 . S
C1697 C1699 1.433 . S
C1698 C1694 1.350 . S
C1698 C1695 1.463 . S
C1698 N1702 1.427 . S
C1699 H1689 0.929 . S
C1699 C1697 1.433 . S
C1699 N1702 1.384 . S
C1700 H1691 0.929 . S
C1700 C1692 1.378 . S
C1700 C1695 1.350 . S
C1701 H1688 0.929 . S
C1701 C1693 1.433 1_565 S
C1701 N1703 1.384 . S
N1702 C1698 1.427 . S
N1702 C1699 1.384 . S
N1703 C1695 1.427 1_565 S
N1703 C1701 1.384 . S
H1704 C1710 0.930 . S
H1705 C1714 0.930 . S
H1706 C1719 0.929 . S
H1707 C1717 0.929 . S
H1708 C1712 0.929 . S
H1709 C1718 0.929 . S
C1710 H1704 0.930 . S
C1710 C1711 1.367 . S
C1710 C1718 1.378 . S
C1711 C1710 1.367 . S
C1711 C1719 1.433 . S
C1712 H1708 0.929 . S
C1712 C1714 1.378 . S
C1712 C1716 1.350 . S
C1713 C1716 1.463 . S
C1713 C1718 1.350 . S
C1713 N1721 1.427 . S
C1714 H1705 0.930 . S
C1714 C1712 1.378 . S
C1714 C1715 1.367 . S
C1715 C1714 1.367 . S
C1715 C1717 1.433 . S
C1716 C1712 1.350 . S
C1716 C1713 1.463 . S
C1716 N1720 1.427 . S
C1717 H1707 0.929 . S
C1717 C1715 1.433 . S
C1717 N1720 1.384 . S
C1718 H1709 0.929 . S
C1718 C1710 1.378 . S
C1718 C1713 1.350 . S
C1719 H1706 0.929 . S
C1719 C1711 1.433 . S
C1719 N1721 1.384 . S
N1720 C1716 1.427 . S
N1720 C1717 1.384 . S
N1721 C1713 1.427 . S
N1721 C1719 1.384 . S
H1722 C1728 0.930 . S
H1723 C1732 0.930 . S
H1724 C1737 0.929 . S
H1725 C1735 0.929 . S
H1726 C1730 0.929 . S
H1727 C1736 0.929 . S
C1728 H1722 0.930 . S
C1728 C1729 1.367 . S
C1728 C1736 1.378 . S
C1729 C1728 1.367 . S
C1729 C1737 1.433 . S
C1730 H1726 0.929 . S
C1730 C1732 1.378 . S
C1730 C1734 1.350 . S
C1731 C1734 1.463 . S
C1731 C1736 1.350 . S
C1731 N1739 1.427 . S
C1732 H1723 0.930 . S
C1732 C1730 1.378 . S
C1732 C1733 1.367 . S
C1733 C1732 1.367 . S
C1733 C1735 1.433 . S
C1734 C1730 1.350 . S
C1734 C1731 1.463 . S
C1734 N1738 1.427 . S
C1735 H1725 0.929 . S
C1735 C1733 1.433 . S
C1735 N1738 1.384 . S
C1736 H1727 0.929 . S
C1736 C1728 1.378 . S
C1736 C1731 1.350 . S
C1737 H1724 0.929 . S
C1737 C1729 1.433 . S
C1737 N1739 1.384 . S
N1738 C1734 1.427 . S
N1738 C1735 1.384 . S
N1739 C1731 1.427 . S
N1739 C1737 1.384 . S
H1740 C1746 0.930 . S
H1741 C1750 0.930 . S
H1742 C1755 0.929 . S
H1743 C1753 0.929 . S
H1744 C1748 0.929 . S
H1745 C1754 0.929 . S
C1746 H1740 0.930 . S
C1746 C1747 1.367 . S
C1746 C1754 1.378 . S
C1747 C1746 1.367 . S
C1747 C1755 1.433 1_556 S
C1748 H1744 0.929 . S
C1748 C1750 1.378 . S
C1748 C1752 1.350 . S
C1749 C1752 1.463 1_556 S
C1749 C1754 1.350 . S
C1749 N1757 1.427 1_556 S
C1750 H1741 0.930 . S
C1750 C1748 1.378 . S
C1750 C1751 1.367 . S
C1751 C1750 1.367 . S
C1751 C1753 1.433 1_554 S
C1752 C1748 1.350 . S
C1752 C1749 1.463 1_554 S
C1752 N1756 1.427 1_554 S
C1753 H1743 0.929 . S
C1753 C1751 1.433 1_556 S
C1753 N1756 1.384 . S
C1754 H1745 0.929 . S
C1754 C1746 1.378 . S
C1754 C1749 1.350 . S
C1755 H1742 0.929 . S
C1755 C1747 1.433 1_554 S
C1755 N1757 1.384 . S
N1756 C1752 1.427 1_556 S
N1756 C1753 1.384 . S
N1757 C1749 1.427 1_554 S
N1757 C1755 1.384 . S
H1758 C1764 0.930 . S
H1759 C1768 0.930 . S
H1760 C1773 0.929 . S
H1761 C1771 0.929 . S
H1762 C1766 0.929 . S
H1763 C1772 0.929 . S
C1764 H1758 0.930 . S
C1764 C1765 1.367 . S
C1764 C1772 1.378 . S
C1765 C1764 1.367 . S
C1765 C1773 1.433 . S
C1766 H1762 0.929 . S
C1766 C1768 1.378 . S
C1766 C1770 1.350 . S
C1767 C1770 1.463 . S
C1767 C1772 1.350 . S
C1767 N1775 1.427 . S
C1768 H1759 0.930 . S
C1768 C1766 1.378 . S
C1768 C1769 1.367 . S
C1769 C1768 1.367 . S
C1769 C1771 1.433 . S
C1770 C1766 1.350 . S
C1770 C1767 1.463 . S
C1770 N1774 1.427 . S
C1771 H1761 0.929 . S
C1771 C1769 1.433 . S
C1771 N1774 1.384 . S
C1772 H1763 0.929 . S
C1772 C1764 1.378 . S
C1772 C1767 1.350 . S
C1773 H1760 0.929 . S
C1773 C1765 1.433 . S
C1773 N1775 1.384 . S
N1774 C1770 1.427 . S
N1774 C1771 1.384 . S
N1775 C1767 1.427 . S
N1775 C1773 1.384 . S
H1776 C1782 0.930 . S
H1777 C1786 0.930 . S
H1778 C1791 0.929 . S
H1779 C1789 0.929 . S
H1780 C1784 0.929 . S
H1781 C1790 0.929 . S
C1782 H1776 0.930 . S
C1782 C1783 1.367 . S
C1782 C1790 1.378 . S
C1783 C1782 1.367 . S
C1783 C1791 1.433 . S
C1784 H1780 0.929 . S
C1784 C1786 1.378 . S
C1784 C1788 1.350 . S
C1785 C1788 1.463 . S
C1785 C1790 1.350 . S
C1785 N1793 1.427 . S
C1786 H1777 0.930 . S
C1786 C1784 1.378 . S
C1786 C1787 1.367 . S
C1787 C1786 1.367 . S
C1787 C1789 1.433 . S
C1788 C1784 1.350 . S
C1788 C1785 1.463 . S
C1788 N1792 1.427 . S
C1789 H1779 0.929 . S
C1789 C1787 1.433 . S
C1789 N1792 1.384 . S
C1790 H1781 0.929 . S
C1790 C1782 1.378 . S
C1790 C1785 1.350 . S
C1791 H1778 0.929 . S
C1791 C1783 1.433 . S
C1791 N1793 1.384 . S
N1792 C1788 1.427 . S
N1792 C1789 1.384 . S
N1793 C1785 1.427 . S
N1793 C1791 1.384 . S
H1794 C1800 0.930 1_655 S
H1795 C1804 0.930 . S
H1796 C1809 0.929 . S
H1797 C1807 0.929 . S
H1798 C1802 0.929 . S
H1799 C1808 0.929 . S
C1800 H1794 0.930 1_455 S
C1800 C1801 1.367 . S
C1800 C1808 1.378 . S
C1801 C1800 1.367 . S
C1801 C1809 1.433 . S
C1802 H1798 0.929 . S
C1802 C1804 1.378 . S
C1802 C1806 1.350 . S
C1803 C1806 1.463 . S
C1803 C1808 1.350 . S
C1803 N1811 1.427 . S
C1804 H1795 0.930 . S
C1804 C1802 1.378 . S
C1804 C1805 1.367 . S
C1805 C1804 1.367 . S
C1805 C1807 1.433 . S
C1806 C1802 1.350 . S
C1806 C1803 1.463 . S
C1806 N1810 1.427 . S
C1807 H1797 0.929 . S
C1807 C1805 1.433 . S
C1807 N1810 1.384 . S
C1808 H1799 0.929 . S
C1808 C1800 1.378 . S
C1808 C1803 1.350 . S
C1809 H1796 0.929 . S
C1809 C1801 1.433 . S
C1809 N1811 1.384 . S
N1810 C1806 1.427 . S
N1810 C1807 1.384 . S
N1811 C1803 1.427 . S
N1811 C1809 1.384 . S
H1812 C1818 0.930 . S
H1813 C1822 0.930 . S
H1814 C1827 0.929 . S
H1815 C1825 0.929 . S
H1816 C1820 0.929 . S
H1817 C1826 0.929 . S
C1818 H1812 0.930 . S
C1818 C1819 1.367 . S
C1818 C1826 1.378 . S
C1819 C1818 1.367 . S
C1819 C1827 1.433 . S
C1820 H1816 0.929 . S
C1820 C1822 1.378 . S
C1820 C1824 1.350 . S
C1821 C1824 1.463 . S
C1821 C1826 1.350 . S
C1821 N1829 1.427 . S
C1822 H1813 0.930 . S
C1822 C1820 1.378 . S
C1822 C1823 1.367 . S
C1823 C1822 1.367 . S
C1823 C1825 1.433 . S
C1824 C1820 1.350 . S
C1824 C1821 1.463 . S
C1824 N1828 1.427 . S
C1825 H1815 0.929 . S
C1825 C1823 1.433 . S
C1825 N1828 1.384 . S
C1826 H1817 0.929 . S
C1826 C1818 1.378 . S
C1826 C1821 1.350 . S
C1827 H1814 0.929 . S
C1827 C1819 1.433 . S
C1827 N1829 1.384 . S
N1828 C1824 1.427 . S
N1828 C1825 1.384 . S
N1829 C1821 1.427 . S
N1829 C1827 1.384 . S
H1830 C1836 0.930 . S
H1831 C1840 0.930 . S
H1832 C1845 0.929 . S
H1833 C1843 0.929 . S
H1834 C1838 0.929 . S
H1835 C1844 0.929 . S
C1836 H1830 0.930 . S
C1836 C1837 1.367 . S
C1836 C1844 1.378 . S
C1837 C1836 1.367 . S
C1837 C1845 1.433 1_455 S
C1838 H1834 0.929 . S
C1838 C1840 1.378 . S
C1838 C1842 1.350 1_655 S
C1839 C1842 1.463 . S
C1839 C1844 1.350 . S
C1839 N1847 1.427 1_455 S
C1840 H1831 0.930 . S
C1840 C1838 1.378 . S
C1840 C1841 1.367 1_655 S
C1841 C1840 1.367 1_455 S
C1841 C1843 1.433 . S
C1842 C1838 1.350 1_455 S
C1842 C1839 1.463 . S
C1842 N1846 1.427 . S
C1843 H1833 0.929 . S
C1843 C1841 1.433 . S
C1843 N1846 1.384 . S
C1844 H1835 0.929 . S
C1844 C1836 1.378 . S
C1844 C1839 1.350 . S
C1845 H1832 0.929 . S
C1845 C1837 1.433 1_655 S
C1845 N1847 1.384 . S
N1846 C1842 1.427 . S
N1846 C1843 1.384 . S
N1847 C1839 1.427 1_655 S
N1847 C1845 1.384 . S
H1848 C1854 0.930 . S
H1849 C1858 0.930 . S
H1850 C1863 0.929 . S
H1851 C1861 0.929 . S
H1852 C1856 0.929 . S
H1853 C1862 0.929 . S
C1854 H1848 0.930 . S
C1854 C1855 1.367 . S
C1854 C1862 1.378 . S
C1855 C1854 1.367 . S
C1855 C1863 1.433 . S
C1856 H1852 0.929 . S
C1856 C1858 1.378 . S
C1856 C1860 1.350 . S
C1857 C1860 1.463 . S
C1857 C1862 1.350 . S
C1857 N1865 1.427 . S
C1858 H1849 0.930 . S
C1858 C1856 1.378 . S
C1858 C1859 1.367 . S
C1859 C1858 1.367 . S
C1859 C1861 1.433 . S
C1860 C1856 1.350 . S
C1860 C1857 1.463 . S
C1860 N1864 1.427 . S
C1861 H1851 0.929 . S
C1861 C1859 1.433 . S
C1861 N1864 1.384 . S
C1862 H1853 0.929 . S
C1862 C1854 1.378 . S
C1862 C1857 1.350 . S
C1863 H1850 0.929 . S
C1863 C1855 1.433 . S
C1863 N1865 1.384 . S
N1864 C1860 1.427 . S
N1864 C1861 1.384 . S
N1865 C1857 1.427 . S
N1865 C1863 1.384 . S
H1866 C1872 0.930 . S
H1867 C1876 0.930 . S
H1868 C1881 0.929 . S
H1869 C1879 0.929 . S
H1870 C1874 0.929 . S
H1871 C1880 0.929 . S
C1872 H1866 0.930 . S
C1872 C1873 1.367 . S
C1872 C1880 1.378 . S
C1873 C1872 1.367 . S
C1873 C1881 1.433 . S
C1874 H1870 0.929 . S
C1874 C1876 1.378 . S
C1874 C1878 1.350 . S
C1875 C1878 1.463 . S
C1875 C1880 1.350 . S
C1875 N1883 1.427 . S
C1876 H1867 0.930 . S
C1876 C1874 1.378 . S
C1876 C1877 1.367 . S
C1877 C1876 1.367 . S
C1877 C1879 1.433 . S
C1878 C1874 1.350 . S
C1878 C1875 1.463 . S
C1878 N1882 1.427 . S
C1879 H1869 0.929 . S
C1879 C1877 1.433 . S
C1879 N1882 1.384 . S
C1880 H1871 0.929 . S
C1880 C1872 1.378 . S
C1880 C1875 1.350 . S
C1881 H1868 0.929 . S
C1881 C1873 1.433 . S
C1881 N1883 1.384 . S
N1882 C1878 1.427 . S
N1882 C1879 1.384 . S
N1883 C1875 1.427 . S
N1883 C1881 1.384 . S
H1884 C1890 0.930 . S
H1885 C1894 0.930 . S
H1886 C1899 0.929 . S
H1887 C1897 0.929 . S
H1888 C1892 0.929 . S
H1889 C1898 0.929 . S
C1890 H1884 0.930 . S
C1890 C1891 1.367 . S
C1890 C1898 1.378 . S
C1891 C1890 1.367 . S
C1891 C1899 1.433 . S
C1892 H1888 0.929 . S
C1892 C1894 1.378 . S
C1892 C1896 1.350 . S
C1893 C1896 1.463 . S
C1893 C1898 1.350 . S
C1893 N1901 1.427 . S
C1894 H1885 0.930 . S
C1894 C1892 1.378 . S
C1894 C1895 1.367 . S
C1895 C1894 1.367 . S
C1895 C1897 1.433 . S
C1896 C1892 1.350 . S
C1896 C1893 1.463 . S
C1896 N1900 1.427 . S
C1897 H1887 0.929 . S
C1897 C1895 1.433 . S
C1897 N1900 1.384 . S
C1898 H1889 0.929 . S
C1898 C1890 1.378 . S
C1898 C1893 1.350 . S
C1899 H1886 0.929 . S
C1899 C1891 1.433 . S
C1899 N1901 1.384 . S
N1900 C1896 1.427 . S
N1900 C1897 1.384 . S
N1901 C1893 1.427 . S
N1901 C1899 1.384 . S
H1902 C1908 0.930 . S
H1903 C1912 0.930 . S
H1904 C1917 0.929 . S
H1905 C1915 0.929 . S
H1906 C1910 0.929 . S
H1907 C1916 0.929 . S
C1908 H1902 0.930 . S
C1908 C1909 1.367 . S
C1908 C1916 1.378 . S
C1909 C1908 1.367 . S
C1909 C1917 1.433 . S
C1910 H1906 0.929 . S
C1910 C1912 1.378 . S
C1910 C1914 1.350 . S
C1911 C1914 1.463 . S
C1911 C1916 1.350 . S
C1911 N1919 1.427 . S
C1912 H1903 0.930 . S
C1912 C1910 1.378 . S
C1912 C1913 1.367 . S
C1913 C1912 1.367 . S
C1913 C1915 1.433 . S
C1914 C1910 1.350 . S
C1914 C1911 1.463 . S
C1914 N1918 1.427 . S
C1915 H1905 0.929 . S
C1915 C1913 1.433 . S
C1915 N1918 1.384 . S
C1916 H1907 0.929 . S
C1916 C1908 1.378 . S
C1916 C1911 1.350 . S
C1917 H1904 0.929 . S
C1917 C1909 1.433 . S
C1917 N1919 1.384 . S
N1918 C1914 1.427 . S
N1918 C1915 1.384 . S
N1919 C1911 1.427 . S
N1919 C1917 1.384 . S
H1920 C1926 0.930 . S
H1921 C1930 0.936 . S
H1922 C1935 0.929 . S
H1923 C1933 0.929 . S
H1924 C1928 0.929 . S
H1925 C1934 0.929 . S
C1926 H1920 0.930 . S
C1926 C1927 1.367 1_554 S
C1926 C1934 1.378 . S
C1927 C1926 1.367 1_556 S
C1927 C1935 1.433 . S
C1928 H1924 0.929 . S
C1928 C1930 1.370 1_545 S
C1928 C1932 1.350 1_556 S
C1929 C1932 1.454 1_556 S
C1929 C1934 1.317 1_556 S
C1929 N1937 1.472 . S
C1930 H1921 0.936 . S
C1930 C1928 1.370 1_565 S
C1930 C1931 1.369 1_556 S
C1931 C1930 1.369 1_554 S
C1931 C1933 1.433 1_565 S
C1932 C1928 1.350 1_554 S
C1932 C1929 1.454 1_554 S
C1932 N1936 1.427 . S
C1933 H1923 0.929 . S
C1933 C1931 1.433 1_545 S
C1933 N1936 1.384 . S
C1934 H1925 0.929 . S
C1934 C1926 1.378 . S
C1934 C1929 1.317 1_554 S
C1935 H1922 0.929 . S
C1935 C1927 1.433 . S
C1935 N1937 1.384 . S
N1936 C1932 1.427 . S
N1936 C1933 1.384 . S
N1937 C1929 1.472 . S
N1937 C1935 1.384 . S
H1938 C1944 0.930 . S
H1939 C1948 0.930 . S
H1940 C1953 0.929 . S
H1941 C1951 0.929 . S
H1942 C1946 0.929 . S
H1943 C1952 0.929 . S
C1944 H1938 0.930 . S
C1944 C1945 1.367 . S
C1944 C1952 1.378 . S
C1945 C1944 1.367 . S
C1945 C1953 1.433 . S
C1946 H1942 0.929 . S
C1946 C1948 1.378 . S
C1946 C1950 1.350 . S
C1947 C1950 1.463 . S
C1947 C1952 1.350 . S
C1947 N1955 1.427 . S
C1948 H1939 0.930 . S
C1948 C1946 1.378 . S
C1948 C1949 1.367 . S
C1949 C1948 1.367 . S
C1949 C1951 1.433 . S
C1950 C1946 1.350 . S
C1950 C1947 1.463 . S
C1950 N1954 1.427 . S
C1951 H1941 0.929 . S
C1951 C1949 1.433 . S
C1951 N1954 1.384 . S
C1952 H1943 0.929 . S
C1952 C1944 1.378 . S
C1952 C1947 1.350 . S
C1953 H1940 0.929 . S
C1953 C1945 1.433 . S
C1953 N1955 1.384 . S
N1954 C1950 1.427 . S
N1954 C1951 1.384 . S
N1955 C1947 1.427 . S
N1955 C1953 1.384 . S
H1956 C1962 0.930 . S
H1957 C1966 0.930 . S
H1958 C1971 0.929 . S
H1959 C1969 0.929 . S
H1960 C1964 0.929 . S
H1961 C1970 0.929 . S
C1962 H1956 0.930 . S
C1962 C1963 1.367 . S
C1962 C1970 1.378 . S
C1963 C1962 1.367 . S
C1963 C1971 1.433 . S
C1964 H1960 0.929 . S
C1964 C1966 1.378 . S
C1964 C1968 1.350 . S
C1965 C1968 1.463 . S
C1965 C1970 1.350 . S
C1965 N1973 1.427 . S
C1966 H1957 0.930 . S
C1966 C1964 1.378 . S
C1966 C1967 1.367 . S
C1967 C1966 1.367 . S
C1967 C1969 1.433 . S
C1968 C1964 1.350 . S
C1968 C1965 1.463 . S
C1968 N1972 1.427 . S
C1969 H1959 0.929 . S
C1969 C1967 1.433 . S
C1969 N1972 1.384 . S
C1970 H1961 0.929 . S
C1970 C1962 1.378 . S
C1970 C1965 1.350 . S
C1971 H1958 0.929 . S
C1971 C1963 1.433 . S
C1971 N1973 1.384 . S
N1972 C1968 1.427 . S
N1972 C1969 1.384 . S
N1973 C1965 1.427 . S
N1973 C1971 1.384 . S
H1974 C1980 0.930 . S
H1975 C1984 0.930 . S
H1976 C1989 0.929 . S
H1977 C1987 0.929 . S
H1978 C1982 0.929 . S
H1979 C1988 0.929 . S
C1980 H1974 0.930 . S
C1980 C1981 1.367 . S
C1980 C1988 1.378 . S
C1981 C1980 1.367 . S
C1981 C1989 1.433 . S
C1982 H1978 0.929 . S
C1982 C1984 1.378 . S
C1982 C1986 1.350 . S
C1983 C1986 1.463 . S
C1983 C1988 1.350 . S
C1983 N1991 1.427 . S
C1984 H1975 0.930 . S
C1984 C1982 1.378 . S
C1984 C1985 1.367 . S
C1985 C1984 1.367 . S
C1985 C1987 1.433 . S
C1986 C1982 1.350 . S
C1986 C1983 1.463 . S
C1986 N1990 1.427 . S
C1987 H1977 0.929 . S
C1987 C1985 1.433 . S
C1987 N1990 1.384 . S
C1988 H1979 0.929 . S
C1988 C1980 1.378 . S
C1988 C1983 1.350 . S
C1989 H1976 0.929 . S
C1989 C1981 1.433 . S
C1989 N1991 1.384 . S
N1990 C1986 1.427 . S
N1990 C1987 1.384 . S
N1991 C1983 1.427 . S
N1991 C1989 1.384 . S
H1992 C1998 0.930 . S
H1993 C2002 0.930 . S
H1994 C2007 0.929 . S
H1995 C2005 0.929 . S
H1996 C2000 0.929 . S
H1997 C2006 0.929 . S
C1998 H1992 0.930 . S
C1998 C1999 1.367 1_565 S
C1998 C2006 1.378 . S
C1999 C1998 1.367 1_545 S
C1999 C2007 1.433 . S
C2000 H1996 0.929 . S
C2000 C2002 1.378 . S
C2000 C2004 1.350 . S
C2001 C2004 1.463 . S
C2001 C2006 1.350 . S
C2001 N2009 1.427 . S
C2002 H1993 0.930 . S
C2002 C2000 1.378 . S
C2002 C2003 1.367 . S
C2003 C2002 1.367 . S
C2003 C2005 1.433 . S
C2004 C2000 1.350 . S
C2004 C2001 1.463 . S
C2004 N2008 1.427 . S
C2005 H1995 0.929 . S
C2005 C2003 1.433 . S
C2005 N2008 1.384 . S
C2006 H1997 0.929 . S
C2006 C1998 1.378 . S
C2006 C2001 1.350 . S
C2007 H1994 0.929 . S
C2007 C1999 1.433 . S
C2007 N2009 1.384 1_545 S
N2008 C2004 1.427 . S
N2008 C2005 1.384 . S
N2009 C2001 1.427 . S
N2009 C2007 1.384 1_565 S
H2010 C2016 0.930 . S
H2011 C2020 0.930 . S
H2012 C2025 0.929 . S
H2013 C2023 0.929 . S
H2014 C2018 0.929 . S
H2015 C2024 0.929 . S
C2016 H2010 0.930 . S
C2016 C2017 1.367 . S
C2016 C2024 1.378 . S
C2017 C2016 1.367 . S
C2017 C2025 1.433 . S
C2018 H2014 0.929 . S
C2018 C2020 1.378 . S
C2018 C2022 1.350 . S
C2019 C2022 1.463 . S
C2019 C2024 1.350 . S
C2019 N2027 1.427 . S
C2020 H2011 0.930 . S
C2020 C2018 1.378 . S
C2020 C2021 1.367 . S
C2021 C2020 1.367 . S
C2021 C2023 1.433 . S
C2022 C2018 1.350 . S
C2022 C2019 1.463 . S
C2022 N2026 1.427 . S
C2023 H2013 0.929 . S
C2023 C2021 1.433 . S
C2023 N2026 1.384 . S
C2024 H2015 0.929 . S
C2024 C2016 1.378 . S
C2024 C2019 1.350 . S
C2025 H2012 0.929 . S
C2025 C2017 1.433 . S
C2025 N2027 1.384 . S
N2026 C2022 1.427 . S
N2026 C2023 1.384 . S
N2027 C2019 1.427 . S
N2027 C2025 1.384 . S
H2028 C2034 0.930 . S
H2029 C2038 0.930 . S
H2030 C2043 0.933 . S
H2031 C2041 0.929 1_554 S
H2032 C2036 0.929 . S
H2033 C2042 0.929 . S
C2034 H2028 0.930 . S
C2034 C2035 1.367 . S
C2034 C2042 1.378 . S
C2035 C2034 1.367 . S
C2035 C2043 1.426 1_554 S
C2036 H2032 0.929 . S
C2036 C2038 1.378 . S
C2036 C2040 1.350 . S
C2037 C2040 1.463 1_554 S
C2037 C2042 1.350 . S
C2037 N2045 1.427 1_554 S
C2038 H2029 0.930 . S
C2038 C2036 1.378 . S
C2038 C2039 1.367 . S
C2039 C2038 1.367 . S
C2039 C2041 1.433 . S
C2040 C2036 1.350 . S
C2040 C2037 1.463 1_556 S
C2040 N2044 1.427 1_556 S
C2041 H2031 0.929 1_556 S
C2041 C2039 1.433 . S
C2041 N2044 1.384 1_556 S
C2042 H2033 0.929 . S
C2042 C2034 1.378 . S
C2042 C2037 1.350 . S
C2043 H2030 0.933 . S
C2043 C2035 1.426 1_556 S
C2043 N2045 1.387 . S
N2044 C2040 1.427 1_554 S
N2044 C2041 1.384 1_554 S
N2045 C2037 1.427 1_556 S
N2045 C2043 1.387 . S
H2046 C2052 0.930 . S
H2047 C2056 0.930 . S
H2048 C2061 0.929 . S
H2049 C2059 0.929 . S
H2050 C2054 0.929 . S
H2051 C2060 0.929 . S
C2052 H2046 0.930 . S
C2052 C2053 1.367 1_554 S
C2052 C2060 1.378 . S
C2053 C2052 1.367 1_556 S
C2053 C2061 1.433 . S
C2054 H2050 0.929 . S
C2054 C2056 1.378 . S
C2054 C2058 1.350 . S
C2055 C2058 1.463 . S
C2055 C2060 1.350 1_556 S
C2055 N2063 1.427 . S
C2056 H2047 0.930 . S
C2056 C2054 1.378 . S
C2056 C2057 1.367 1_556 S
C2057 C2056 1.367 1_554 S
C2057 C2059 1.433 . S
C2058 C2054 1.350 . S
C2058 C2055 1.463 . S
C2058 N2062 1.427 1_556 S
C2059 H2049 0.929 . S
C2059 C2057 1.433 . S
C2059 N2062 1.384 . S
C2060 H2051 0.929 . S
C2060 C2052 1.378 . S
C2060 C2055 1.350 1_554 S
C2061 H2048 0.929 . S
C2061 C2053 1.433 . S
C2061 N2063 1.384 . S
N2062 C2058 1.427 1_554 S
N2062 C2059 1.384 . S
N2063 C2055 1.427 . S
N2063 C2061 1.384 . S
H2064 C2070 0.930 . S
H2065 C2074 0.930 . S
H2066 C2079 0.929 . S
H2067 C2077 0.929 . S
H2068 C2072 0.929 . S
H2069 C2078 0.929 . S
C2070 H2064 0.930 . S
C2070 C2071 1.367 . S
C2070 C2078 1.378 . S
C2071 C2070 1.367 . S
C2071 C2079 1.433 . S
C2072 H2068 0.929 . S
C2072 C2074 1.378 . S
C2072 C2076 1.350 . S
C2073 C2076 1.463 . S
C2073 C2078 1.350 . S
C2073 N2081 1.427 . S
C2074 H2065 0.930 . S
C2074 C2072 1.378 . S
C2074 C2075 1.367 . S
C2075 C2074 1.367 . S
C2075 C2077 1.433 . S
C2076 C2072 1.350 . S
C2076 C2073 1.463 . S
C2076 N2080 1.427 . S
C2077 H2067 0.929 . S
C2077 C2075 1.433 . S
C2077 N2080 1.384 . S
C2078 H2069 0.929 . S
C2078 C2070 1.378 . S
C2078 C2073 1.350 . S
C2079 H2066 0.929 . S
C2079 C2071 1.433 . S
C2079 N2081 1.384 . S
N2080 C2076 1.427 . S
N2080 C2077 1.384 . S
N2081 C2073 1.427 . S
N2081 C2079 1.384 . S
H2082 C2088 0.930 . S
H2083 C2092 0.930 . S
H2084 C2097 0.929 . S
H2085 C2095 0.929 . S
H2086 C2090 0.929 . S
H2087 C2096 0.929 . S
C2088 H2082 0.930 . S
C2088 C2089 1.367 . S
C2088 C2096 1.378 . S
C2089 C2088 1.367 . S
C2089 C2097 1.433 1_556 S
C2090 H2086 0.929 . S
C2090 C2092 1.378 . S
C2090 C2094 1.350 . S
C2091 C2094 1.463 . S
C2091 C2096 1.350 . S
C2091 N2099 1.427 . S
C2092 H2083 0.930 . S
C2092 C2090 1.378 . S
C2092 C2093 1.367 . S
C2093 C2092 1.367 . S
C2093 C2095 1.433 . S
C2094 C2090 1.350 . S
C2094 C2091 1.463 . S
C2094 N2098 1.427 . S
C2095 H2085 0.929 . S
C2095 C2093 1.433 . S
C2095 N2098 1.384 . S
C2096 H2087 0.929 . S
C2096 C2088 1.378 . S
C2096 C2091 1.350 . S
C2097 H2084 0.929 . S
C2097 C2089 1.433 1_554 S
C2097 N2099 1.384 1_554 S
N2098 C2094 1.427 . S
N2098 C2095 1.384 . S
N2099 C2091 1.427 . S
N2099 C2097 1.384 1_556 S
H2100 C2106 0.930 . S
H2101 C2110 0.930 . S
H2102 C2115 0.929 . S
H2103 C2113 0.929 . S
H2104 C2108 0.929 . S
H2105 C2114 0.929 . S
C2106 H2100 0.930 . S
C2106 C2107 1.367 . S
C2106 C2114 1.378 . S
C2107 C2106 1.367 . S
C2107 C2115 1.433 . S
C2108 H2104 0.929 . S
C2108 C2110 1.378 . S
C2108 C2112 1.350 . S
C2109 C2112 1.463 . S
C2109 C2114 1.350 . S
C2109 N2117 1.427 . S
C2110 H2101 0.930 . S
C2110 C2108 1.378 . S
C2110 C2111 1.367 . S
C2111 C2110 1.367 . S
C2111 C2113 1.433 . S
C2112 C2108 1.350 . S
C2112 C2109 1.463 . S
C2112 N2116 1.427 . S
C2113 H2103 0.929 . S
C2113 C2111 1.433 . S
C2113 N2116 1.384 . S
C2114 H2105 0.929 . S
C2114 C2106 1.378 . S
C2114 C2109 1.350 . S
C2115 H2102 0.929 . S
C2115 C2107 1.433 . S
C2115 N2117 1.384 . S
N2116 C2112 1.427 . S
N2116 C2113 1.384 . S
N2117 C2109 1.427 . S
N2117 C2115 1.384 . S
H2118 C2124 0.930 . S
H2119 C2128 0.930 . S
H2120 C2133 0.929 . S
H2121 C2131 0.929 . S
H2122 C2126 0.929 . S
H2123 C2132 0.929 . S
C2124 H2118 0.930 . S
C2124 C2125 1.367 . S
C2124 C2132 1.378 . S
C2125 C2124 1.367 . S
C2125 C2133 1.433 . S
C2126 H2122 0.929 . S
C2126 C2128 1.378 . S
C2126 C2130 1.350 . S
C2127 C2130 1.463 . S
C2127 C2132 1.350 . S
C2127 N2135 1.427 . S
C2128 H2119 0.930 . S
C2128 C2126 1.378 . S
C2128 C2129 1.367 . S
C2129 C2128 1.367 . S
C2129 C2131 1.433 . S
C2130 C2126 1.350 . S
C2130 C2127 1.463 . S
C2130 N2134 1.427 . S
C2131 H2121 0.929 . S
C2131 C2129 1.433 . S
C2131 N2134 1.384 . S
C2132 H2123 0.929 . S
C2132 C2124 1.378 . S
C2132 C2127 1.350 . S
C2133 H2120 0.929 . S
C2133 C2125 1.433 . S
C2133 N2135 1.384 . S
N2134 C2130 1.427 . S
N2134 C2131 1.384 . S
N2135 C2127 1.427 . S
N2135 C2133 1.384 . S
H2136 C2142 0.930 . S
H2137 C2146 0.930 . S
H2138 C2151 0.929 . S
H2139 C2149 0.929 . S
H2140 C2144 0.929 . S
H2141 C2150 0.929 . S
C2142 H2136 0.930 . S
C2142 C2143 1.367 1_455 S
C2142 C2150 1.378 . S
C2143 C2142 1.367 1_655 S
C2143 C2151 1.433 . S
C2144 H2140 0.929 . S
C2144 C2146 1.378 . S
C2144 C2148 1.350 . S
C2145 C2148 1.463 . S
C2145 C2150 1.350 1_655 S
C2145 N2153 1.427 . S
C2146 H2137 0.930 . S
C2146 C2144 1.378 . S
C2146 C2147 1.367 . S
C2147 C2146 1.367 . S
C2147 C2149 1.433 1_655 S
C2148 C2144 1.350 . S
C2148 C2145 1.463 . S
C2148 N2152 1.427 1_655 S
C2149 H2139 0.929 . S
C2149 C2147 1.433 1_455 S
C2149 N2152 1.384 . S
C2150 H2141 0.929 . S
C2150 C2142 1.378 . S
C2150 C2145 1.350 1_455 S
C2151 H2138 0.929 . S
C2151 C2143 1.433 . S
C2151 N2153 1.384 . S
N2152 C2148 1.427 1_455 S
N2152 C2149 1.384 . S
N2153 C2145 1.427 . S
N2153 C2151 1.384 . S
H2154 C2160 0.930 . S
H2155 C2164 0.930 . S
H2156 C2169 0.929 . S
H2157 C2167 0.929 . S
H2158 C2162 0.929 . S
H2159 C2168 0.929 . S
C2160 H2154 0.930 . S
C2160 C2161 1.367 . S
C2160 C2168 1.378 . S
C2161 C2160 1.367 . S
C2161 C2169 1.433 . S
C2162 H2158 0.929 . S
C2162 C2164 1.378 . S
C2162 C2166 1.350 . S
C2163 C2166 1.463 . S
C2163 C2168 1.350 . S
C2163 N2171 1.427 . S
C2164 H2155 0.930 . S
C2164 C2162 1.378 . S
C2164 C2165 1.367 . S
C2165 C2164 1.367 . S
C2165 C2167 1.433 . S
C2166 C2162 1.350 . S
C2166 C2163 1.463 . S
C2166 N2170 1.427 . S
C2167 H2157 0.929 . S
C2167 C2165 1.433 . S
C2167 N2170 1.384 . S
C2168 H2159 0.929 . S
C2168 C2160 1.378 . S
C2168 C2163 1.350 . S
C2169 H2156 0.929 . S
C2169 C2161 1.433 . S
C2169 N2171 1.384 . S
N2170 C2166 1.427 . S
N2170 C2167 1.384 . S
N2171 C2163 1.427 . S
N2171 C2169 1.384 . S
H2172 C2178 0.930 . S
H2173 C2182 0.930 . S
H2174 C2187 0.929 . S
H2175 C2185 0.929 . S
H2176 C2180 0.929 1_455 S
H2177 C2186 0.929 . S
C2178 H2172 0.930 . S
C2178 C2179 1.367 . S
C2178 C2186 1.378 . S
C2179 C2178 1.367 . S
C2179 C2187 1.433 . S
C2180 H2176 0.929 1_655 S
C2180 C2182 1.378 1_655 S
C2180 C2184 1.350 . S
C2181 C2184 1.463 . S
C2181 C2186 1.350 . S
C2181 N2189 1.427 . S
C2182 H2173 0.930 . S
C2182 C2180 1.378 1_455 S
C2182 C2183 1.367 1_455 S
C2183 C2182 1.367 1_655 S
C2183 C2185 1.433 . S
C2184 C2180 1.350 . S
C2184 C2181 1.463 . S
C2184 N2188 1.427 . S
C2185 H2175 0.929 . S
C2185 C2183 1.433 . S
C2185 N2188 1.384 . S
C2186 H2177 0.929 . S
C2186 C2178 1.378 . S
C2186 C2181 1.350 . S
C2187 H2174 0.929 . S
C2187 C2179 1.433 . S
C2187 N2189 1.384 . S
N2188 C2184 1.427 . S
N2188 C2185 1.384 . S
N2189 C2181 1.427 . S
N2189 C2187 1.384 . S
H2190 C2196 0.930 . S
H2191 C2200 0.930 . S
H2192 C2205 0.929 . S
H2193 C2203 0.929 . S
H2194 C2198 0.929 . S
H2195 C2204 0.929 . S
C2196 H2190 0.930 . S
C2196 C2197 1.367 . S
C2196 C2204 1.378 . S
C2197 C2196 1.367 . S
C2197 C2205 1.433 . S
C2198 H2194 0.929 . S
C2198 C2200 1.378 . S
C2198 C2202 1.350 . S
C2199 C2202 1.463 . S
C2199 C2204 1.350 . S
C2199 N2207 1.427 . S
C2200 H2191 0.930 . S
C2200 C2198 1.378 . S
C2200 C2201 1.367 . S
C2201 C2200 1.367 . S
C2201 C2203 1.433 . S
C2202 C2198 1.350 . S
C2202 C2199 1.463 . S
C2202 N2206 1.427 . S
C2203 H2193 0.929 . S
C2203 C2201 1.433 . S
C2203 N2206 1.384 . S
C2204 H2195 0.929 . S
C2204 C2196 1.378 . S
C2204 C2199 1.350 . S
C2205 H2192 0.929 . S
C2205 C2197 1.433 . S
C2205 N2207 1.384 . S
N2206 C2202 1.427 . S
N2206 C2203 1.384 . S
N2207 C2199 1.427 . S
N2207 C2205 1.384 . S
H2208 C2214 0.930 . S
H2209 C2218 0.930 . S
H2210 C2223 0.929 . S
H2211 C2221 0.929 . S
H2212 C2216 0.929 . S
H2213 C2222 0.929 . S
C2214 H2208 0.930 . S
C2214 C2215 1.367 . S
C2214 C2222 1.378 . S
C2215 C2214 1.367 . S
C2215 C2223 1.433 . S
C2216 H2212 0.929 . S
C2216 C2218 1.378 . S
C2216 C2220 1.350 . S
C2217 C2220 1.463 . S
C2217 C2222 1.350 . S
C2217 N2225 1.427 . S
C2218 H2209 0.930 . S
C2218 C2216 1.378 . S
C2218 C2219 1.367 . S
C2219 C2218 1.367 . S
C2219 C2221 1.433 . S
C2220 C2216 1.350 . S
C2220 C2217 1.463 . S
C2220 N2224 1.427 . S
C2221 H2211 0.929 . S
C2221 C2219 1.433 . S
C2221 N2224 1.384 . S
C2222 H2213 0.929 . S
C2222 C2214 1.378 . S
C2222 C2217 1.350 . S
C2223 H2210 0.929 . S
C2223 C2215 1.433 . S
C2223 N2225 1.384 . S
N2224 C2220 1.427 . S
N2224 C2221 1.384 . S
N2225 C2217 1.427 . S
N2225 C2223 1.384 . S
H2226 C2232 0.930 . S
H2227 C2236 0.930 . S
H2228 C2241 0.929 . S
H2229 C2239 0.929 . S
H2230 C2234 0.929 . S
H2231 C2240 0.929 . S
C2232 H2226 0.930 . S
C2232 C2233 1.367 . S
C2232 C2240 1.378 . S
C2233 C2232 1.367 . S
C2233 C2241 1.433 . S
C2234 H2230 0.929 . S
C2234 C2236 1.378 . S
C2234 C2238 1.350 . S
C2235 C2238 1.463 . S
C2235 C2240 1.350 . S
C2235 N2243 1.427 . S
C2236 H2227 0.930 . S
C2236 C2234 1.378 . S
C2236 C2237 1.367 . S
C2237 C2236 1.367 . S
C2237 C2239 1.433 . S
C2238 C2234 1.350 . S
C2238 C2235 1.463 . S
C2238 N2242 1.427 . S
C2239 H2229 0.929 . S
C2239 C2237 1.433 . S
C2239 N2242 1.384 . S
C2240 H2231 0.929 . S
C2240 C2232 1.378 . S
C2240 C2235 1.350 . S
C2241 H2228 0.929 . S
C2241 C2233 1.433 . S
C2241 N2243 1.384 . S
N2242 C2238 1.427 . S
N2242 C2239 1.384 . S
N2243 C2235 1.427 . S
N2243 C2241 1.384 . S
H2244 C2250 0.930 . S
H2245 C2254 0.930 . S
H2246 C2259 0.929 . S
H2247 C2257 0.929 . S
H2248 C2252 0.929 . S
H2249 C2258 0.929 . S
C2250 H2244 0.930 . S
C2250 C2251 1.367 . S
C2250 C2258 1.378 . S
C2251 C2250 1.367 . S
C2251 C2259 1.433 . S
C2252 H2248 0.929 . S
C2252 C2254 1.378 . S
C2252 C2256 1.350 . S
C2253 C2256 1.463 . S
C2253 C2258 1.350 . S
C2253 N2261 1.427 . S
C2254 H2245 0.930 . S
C2254 C2252 1.378 . S
C2254 C2255 1.367 . S
C2255 C2254 1.367 . S
C2255 C2257 1.433 . S
C2256 C2252 1.350 . S
C2256 C2253 1.463 . S
C2256 N2260 1.427 . S
C2257 H2247 0.929 . S
C2257 C2255 1.433 . S
C2257 N2260 1.384 . S
C2258 H2249 0.929 . S
C2258 C2250 1.378 . S
C2258 C2253 1.350 . S
C2259 H2246 0.929 . S
C2259 C2251 1.433 . S
C2259 N2261 1.384 . S
N2260 C2256 1.427 . S
N2260 C2257 1.384 . S
N2261 C2253 1.427 . S
N2261 C2259 1.384 . S
H2262 C2268 0.930 . S
H2263 C2272 0.930 . S
H2264 C2277 0.929 . S
H2265 C2275 0.929 . S
H2266 C2270 0.929 . S
H2267 C2276 0.922 1_545 S
C2268 H2262 0.930 . S
C2268 C2269 1.367 . S
C2268 C2276 1.378 . S
C2269 C2268 1.367 . S
C2269 C2277 1.433 . S
C2270 H2266 0.929 . S
C2270 C2272 1.378 . S
C2270 C2274 1.350 . S
C2271 C2274 1.463 . S
C2271 C2276 1.350 . S
C2271 N2279 1.427 . S
C2272 H2263 0.930 . S
C2272 C2270 1.378 . S
C2272 C2273 1.367 . S
C2273 C2272 1.367 . S
C2273 C2275 1.433 1_565 S
C2274 C2270 1.350 . S
C2274 C2271 1.463 . S
C2274 N2278 1.432 . S
C2275 H2265 0.929 . S
C2275 C2273 1.433 1_545 S
C2275 N2278 1.382 1_545 S
C2276 H2267 0.922 1_565 S
C2276 C2268 1.378 . S
C2276 C2271 1.350 . S
C2277 H2264 0.929 . S
C2277 C2269 1.433 . S
C2277 N2279 1.384 . S
N2278 C2274 1.432 . S
N2278 C2275 1.382 1_565 S
N2279 C2271 1.427 . S
N2279 C2277 1.384 . S
H2280 C2286 0.930 . S
H2281 C2290 0.930 . S
H2282 C2295 0.929 . S
H2283 C2293 0.929 . S
H2284 C2288 0.929 . S
H2285 C2294 0.929 . S
C2286 H2280 0.930 . S
C2286 C2287 1.367 . S
C2286 C2294 1.378 . S
C2287 C2286 1.367 . S
C2287 C2295 1.433 . S
C2288 H2284 0.929 . S
C2288 C2290 1.378 . S
C2288 C2292 1.350 . S
C2289 C2292 1.463 . S
C2289 C2294 1.350 . S
C2289 N2297 1.427 . S
C2290 H2281 0.930 . S
C2290 C2288 1.378 . S
C2290 C2291 1.367 . S
C2291 C2290 1.367 . S
C2291 C2293 1.433 . S
C2292 C2288 1.350 . S
C2292 C2289 1.463 . S
C2292 N2296 1.427 . S
C2293 H2283 0.929 . S
C2293 C2291 1.433 . S
C2293 N2296 1.384 . S
C2294 H2285 0.929 . S
C2294 C2286 1.378 . S
C2294 C2289 1.350 . S
C2295 H2282 0.929 . S
C2295 C2287 1.433 . S
C2295 N2297 1.384 . S
N2296 C2292 1.427 . S
N2296 C2293 1.384 . S
N2297 C2289 1.427 . S
N2297 C2295 1.384 . S
H2298 C2304 0.930 . S
H2299 C2308 0.930 1_655 S
H2300 C2313 0.929 . S
H2301 C2311 0.929 . S
H2302 C2306 0.929 . S
H2303 C2312 0.929 . S
C2304 H2298 0.930 . S
C2304 C2305 1.367 . S
C2304 C2312 1.378 . S
C2305 C2304 1.367 . S
C2305 C2313 1.433 . S
C2306 H2302 0.929 . S
C2306 C2308 1.378 . S
C2306 C2310 1.350 . S
C2307 C2310 1.463 . S
C2307 C2312 1.350 . S
C2307 N2315 1.427 . S
C2308 H2299 0.930 1_455 S
C2308 C2306 1.378 . S
C2308 C2309 1.367 1_455 S
C2309 C2308 1.367 1_655 S
C2309 C2311 1.433 . S
C2310 C2306 1.350 . S
C2310 C2307 1.463 . S
C2310 N2314 1.427 . S
C2311 H2301 0.929 . S
C2311 C2309 1.433 . S
C2311 N2314 1.384 1_655 S
C2312 H2303 0.929 . S
C2312 C2304 1.378 . S
C2312 C2307 1.350 . S
C2313 H2300 0.929 . S
C2313 C2305 1.433 . S
C2313 N2315 1.384 . S
N2314 C2310 1.427 . S
N2314 C2311 1.384 1_455 S
N2315 C2307 1.427 . S
N2315 C2313 1.384 . S
H2316 C2322 0.930 . S
H2317 C2326 0.930 1_655 S
H2318 C2331 0.929 . S
H2319 C2329 0.929 . S
H2320 C2324 0.907 1_655 S
H2321 C2330 0.929 . S
C2322 H2316 0.930 . S
C2322 C2323 1.367 1_455 S
C2322 C2330 1.378 . S
C2323 C2322 1.367 1_655 S
C2323 C2331 1.433 . S
C2324 H2320 0.907 1_455 S
C2324 C2326 1.385 . S
C2324 C2328 1.366 . S
C2325 C2328 1.463 . S
C2325 C2330 1.350 . S
C2325 N2333 1.427 1_455 S
C2326 H2317 0.930 1_455 S
C2326 C2324 1.385 . S
C2326 C2327 1.367 . S
C2327 C2326 1.367 . S
C2327 C2329 1.433 . S
C2328 C2324 1.366 . S
C2328 C2325 1.463 . S
C2328 N2332 1.427 . S
C2329 H2319 0.929 . S
C2329 C2327 1.433 . S
C2329 N2332 1.384 . S
C2330 H2321 0.929 . S
C2330 C2322 1.378 . S
C2330 C2325 1.350 . S
C2331 H2318 0.929 . S
C2331 C2323 1.433 . S
C2331 N2333 1.384 . S
N2332 C2328 1.427 . S
N2332 C2329 1.384 . S
N2333 C2325 1.427 1_655 S
N2333 C2331 1.384 . S
H2334 C2340 0.930 1_455 S
H2335 C2344 0.930 . S
H2336 C2349 0.929 . S
H2337 C2347 0.929 . S
H2338 C2342 0.929 . S
H2339 C2348 0.929 . S
C2340 H2334 0.930 1_655 S
C2340 C2341 1.367 . S
C2340 C2348 1.378 1_655 S
C2341 C2340 1.367 . S
C2341 C2349 1.433 . S
C2342 H2338 0.929 . S
C2342 C2344 1.378 . S
C2342 C2346 1.350 . S
C2343 C2346 1.463 . S
C2343 C2348 1.350 1_655 S
C2343 N2351 1.427 . S
C2344 H2335 0.930 . S
C2344 C2342 1.378 . S
C2344 C2345 1.367 1_655 S
C2345 C2344 1.367 1_455 S
C2345 C2347 1.433 . S
C2346 C2342 1.350 . S
C2346 C2343 1.463 . S
C2346 N2350 1.427 1_655 S
C2347 H2337 0.929 . S
C2347 C2345 1.433 . S
C2347 N2350 1.384 . S
C2348 H2339 0.929 . S
C2348 C2340 1.378 1_455 S
C2348 C2343 1.350 1_455 S
C2349 H2336 0.929 . S
C2349 C2341 1.433 . S
C2349 N2351 1.384 . S
N2350 C2346 1.427 1_455 S
N2350 C2347 1.384 . S
N2351 C2343 1.427 . S
N2351 C2349 1.384 . S
C631 C361 0.928 . S
C635 C4 0.880 . S
C649 C18 0.964 . S
C653 C499 1.001 . S
C667 C30 0.773 . S
C671 C329 0.779 . S
C685 C525 0.648 . S
C689 C44 0.667 . S
C703 C369 0.815 . S
C707 C57 0.826 . S
C721 C75 0.699 . S
C725 C290 0.712 . S
C739 C393 0.931 . S
C743 C83 0.912 . S
C757 C101 0.907 . S
C761 C270 0.936 . S
C775 C465 0.948 . S
C779 C96 0.965 . S
C793 C432 0.702 . S
C797 C62 0.706 . S
C811 C70 0.792 . S
C815 C551 0.803 . S
C829 C452 0.896 . S
C833 C88 0.887 . S
C847 C108 0.787 . S
C851 C173 0.800 . S
C865 C187 0.831 . S
C869 C122 0.844 . S
C883 C200 0.891 . S
C887 C140 0.913 . S
C901 C161 0.789 . S
C905 C146 0.774 . S
C919 C172 1.018 . S
C923 C316 1.023 . S
C937 C192 0.854 . S
C941 C510 0.847 . S
C955 C348 1.031 . S
C959 C205 1.033 . S
C973 C356 0.824 . S
C977 C213 0.812 . S
C991 C231 1.028 . S
C995 C380 1.021 . S
C1009 C239 0.811 . S
C1013 C49 0.824 . S
C1027 C251 0.912 . S
C1031 C23 0.932 . S
C1045 C575 0.878 . S
C1049 C276 0.881 . S
C1063 C603 0.774 . S
C1067 C302 0.786 . S
C1081 C315 0.647 . S
C1085 C107 0.669 . S
C1099 C343 1.015 . S
C1103 C135 0.989 . S
C1117 C328 1.111 . S
C1121 C564 1.171 . S
C1135 C433 1.144 . S
C1139 C374 1.112 . S
C1153 C447 0.782 . S
C1157 C394 0.805 . S
C1171 C420 1.078 . S
C1175 C408 1.122 . S
C1189 C226 0.953 . S
C1193 C588 0.942 . S
C1207 C473 1.192 . S
C1211 C303 1.140 . S
C1225 C277 0.793 . S
C1229 C485 0.766 . S
C1243 C615 0.671 . S
C1247 C413 0.674 . S
C1261 C381 0.931 . S
C1265 C589 0.927 . S
C1279 C127 0.918 . S
C1283 C511 0.946 . S
C1297 C147 0.827 . S
C1301 C543 0.829 . S
C1315 C166 1.120 . S
C1319 C538 1.081 . S
C1333 C250 1.031 . S
C1337 C504 1.018 . S
C1351 C244 0.982 . S
C1355 C530 1.024 . S
C1369 C289 1.102 . S
C1373 C556 1.073 . S
C1387 C265 1.039 . S
C1391 C460 1.043 . S
C1405 C576 0.921 . S
C1409 C484 0.920 . S
C1423 C608 0.682 . S
C1427 C478 0.686 . S
C1441 C614 0.815 . S
C1445 C419 0.815 . S
C1459 C569 0.781 . S
C1463 C29 0.758 . S
C1477 C218 0.849 . S
C1481 C3 0.842 . S
C1495 C10 1.510 . S
C1499 C601 1.530 . S
C1513 C16 1.448 . S
C1517 C621 1.480 . S
C1531 C36 1.524 . S
C1535 C577 1.525 . S
C1549 C42 1.532 . S
C1553 C595 1.475 . S
C1567 C55 1.539 . S
C1571 C121 1.526 . S
C1585 C69 1.443 . S
C1589 C133 1.400 1_554 S
C1603 C81 1.544 . S
C1607 C153 1.545 . S
C1621 C95 1.477 . S
C1625 C109 1.530 . S
C1639 C94 1.880 . S
C1643 C512 1.698 . S
C1657 C56 1.508 . S
C1661 C342 1.420 . S
C1675 C68 1.696 . S
C1679 C536 1.677 . S
C1693 C82 1.945 . S
C1697 C322 1.814 1_655 S
C1711 C114 1.664 . S
C1715 C309 1.621 . S
C1729 C120 1.966 . S
C1733 C406 1.852 . S
C1747 C134 1.918 . S
C1751 C283 1.719 . S
C1765 C382 1.422 . S
C1769 C148 1.516 . S
C1783 C159 1.510 . S
C1787 C252 1.642 . S
C1801 C174 1.573 . S
C1805 C212 1.564 . S
C1819 C257 1.324 . S
C1823 C186 1.387 . S
C1837 C563 1.490 . S
C1841 C199 1.617 . S
C1855 C198 1.376 . S
C1859 C211 1.440 1_556 S
C1873 C472 1.581 . S
C1877 C225 1.733 . S
C1891 C160 1.749 . S
C1895 C237 1.774 . S
C1909 C523 1.828 . S
C1913 C264 1.945 . S
C1927 C537 1.993 . S
C1931 C278 1.905 . S
C1945 C296 1.759 . S
C1949 C497 1.922 . S
C1963 C517 1.950 . S
C1967 C304 2.059 . S
C1981 C317 1.837 . S
C1985 C387 1.962 . S
C1999 C395 1.961 . S
C2003 C335 2.046 . S
C2017 C341 1.968 . S
C2021 C407 1.795 . S
C2035 C367 1.976 . S
C2039 C355 1.860 . S
C2053 C354 1.676 . S
C2057 C590 1.851 . S
C2071 C616 1.704 . S
C2075 C330 1.669 . S
C2089 C368 1.595 . S
C2093 C43 1.629 . S
C2107 C17 1.939 . S
C2111 C400 1.716 . S
C2125 C486 1.569 . S
C2129 C426 1.562 . S
C2143 C458 1.726 . S
C2147 C434 1.572 . S
C2161 C224 1.359 . S
C2165 C491 1.420 1_554 S
C2179 C446 1.578 . S
C2183 C550 1.575 . S
C2197 C459 1.327 . S
C2201 C445 1.402 . S
C2215 C185 1.613 . S
C2219 C238 1.601 . S
C2233 C421 1.808 . S
C2237 C471 1.762 . S
C2251 C602 1.520 . S
C2255 C498 1.435 . S
C2269 C524 1.782 . S
C2273 C582 1.901 . S
C2287 C5 1.940 . S
C2291 C291 1.831 1_455 S
C2305 C263 1.437 . S
C2309 C31 1.521 . S
C2323 C439 1.773 . S
C2327 C549 1.822 . S
C2341 C179 1.736 . S
C2345 C562 1.721 . S
