# Generated by pormake.
# Topology wkt, (7)-cn, num edge types: 1
# Building blocks:
#     Node 0, Type 0, BuildingBlock: HICVOG_clean_sbu_0, # of connection points: 7
#     Node 1, Type 0, BuildingBlock: HICVOG_clean_sbu_0, # of connection points: 7
#     Node 2, Type 0, BuildingBlock: HICVOG_clean_sbu_0, # of connection points: 7
#     Node 3, Type 0, BuildingBlock: HICVOG_clean_sbu_0, # of connection points: 7
#     Node 4, Type 0, BuildingBlock: HICVOG_clean_sbu_0, # of connection points: 7
#     Node 5, Type 0, BuildingBlock: HICVOG_clean_sbu_0, # of connection points: 7
#     Node 6, Type 0, BuildingBlock: HICVOG_clean_sbu_0, # of connection points: 7
#     Node 7, Type 0, BuildingBlock: HICVOG_clean_sbu_0, # of connection points: 7
#     Node 8, Type 0, BuildingBlock: HICVOG_clean_sbu_0, # of connection points: 7
#     Node 9, Type 0, BuildingBlock: HICVOG_clean_sbu_0, # of connection points: 7
#     Node 10, Type 0, BuildingBlock: HICVOG_clean_sbu_0, # of connection points: 7
#     Node 11, Type 0, BuildingBlock: HICVOG_clean_sbu_0, # of connection points: 7
#     Edge 12, Type (0, 0), None
#     Edge 13, Type (0, 0), None
#     Edge 14, Type (0, 0), None
#     Edge 15, Type (0, 0), None
#     Edge 16, Type (0, 0), None
#     Edge 17, Type (0, 0), None
#     Edge 18, Type (0, 0), None
#     Edge 19, Type (0, 0), None
#     Edge 20, Type (0, 0), None
#     Edge 21, Type (0, 0), None
#     Edge 22, Type (0, 0), None
#     Edge 23, Type (0, 0), None
#     Edge 24, Type (0, 0), None
#     Edge 25, Type (0, 0), None
#     Edge 26, Type (0, 0), None
#     Edge 27, Type (0, 0), None
#     Edge 28, Type (0, 0), None
#     Edge 29, Type (0, 0), None
#     Edge 30, Type (0, 0), None
#     Edge 31, Type (0, 0), None
#     Edge 32, Type (0, 0), None
#     Edge 33, Type (0, 0), None
#     Edge 34, Type (0, 0), None
#     Edge 35, Type (0, 0), None
#     Edge 36, Type (0, 0), None
#     Edge 37, Type (0, 0), None
#     Edge 38, Type (0, 0), None
#     Edge 39, Type (0, 0), None
#     Edge 40, Type (0, 0), None
#     Edge 41, Type (0, 0), None
#     Edge 42, Type (0, 0), None
#     Edge 43, Type (0, 0), None
#     Edge 44, Type (0, 0), None
#     Edge 45, Type (0, 0), None
#     Edge 46, Type (0, 0), None
#     Edge 47, Type (0, 0), None
#     Edge 48, Type (0, 0), None
#     Edge 49, Type (0, 0), None
#     Edge 50, Type (0, 0), None
#     Edge 51, Type (0, 0), None
#     Edge 52, Type (0, 0), None
#     Edge 53, Type (0, 0), None
# Relax obj value: 0.394
# Max RMSD: 0.239
# Mean RMSD: 0.239
data_MOF--net-wkt--node1-HICVOG_clean_sbu_0--edge1-none
_symmetry_space_group_name_H-M    P1
_symmetry_Int_Tables_number       1
_symmetry_cell_setting            triclinic
loop_
_symmetry_equiv_pos_as_xyz
'x, y, z'
_cell_length_a     16.833012
_cell_length_b     16.835032
_cell_length_c     25.693065
_cell_angle_alpha  90.000359
_cell_angle_beta   89.999923
_cell_angle_gamma 120.00931
loop_
_atom_site_label
_atom_site_type_symbol
_atom_site_fract_x
_atom_site_fract_y
_atom_site_fract_z
_atom_type_partial_charge
Zn0 Zn 0.3909 0.48219 0.04506 0.0
C1 C 0.35046 0.23312 0.10352 0.0
N2 N 0.29045 0.24316 0.1333 0.0
C3 C 0.30815 0.32919 0.12209 0.0
N4 N 0.37381 0.37142 0.0861 0.0
N5 N 0.3963 0.30937 0.07178 0.0
C6 C 0.38944 0.18642 0.97348 0.0
O7 O 0.33328 0.21845 0.97968 0.0
O8 O 0.38091 0.59972 0.07997 0.0
Zn9 Zn 0.4982 0.34864 0.02562 0.0
N10 N 0.28651 0.4183 1.00163 0.0
C11 C 0.13959 0.30234 0.97218 0.0
C12 C 0.2188 0.32856 1.00179 0.0
C13 C 0.28176 0.47968 0.97098 0.0
N14 N 0.12981 0.36794 0.94681 0.0
C15 C 0.19985 0.45627 0.94633 0.0
O16 O 0.53435 0.44352 0.96582 0.0
C17 C 0.53843 0.52024 0.958 0.0
O18 O 0.49632 0.54663 0.98867 0.0
H19 H 0.2241 0.27859 0.02557 0.0
H20 H 0.33742 0.55023 0.97231 0.0
C21 C 0.65615 0.49958 0.06535 0.0
C22 C 0.70211 0.56372 0.10504 0.0
C23 C 0.60507 0.45769 0.16717 0.0
C24 C 0.56715 0.39092 0.12814 0.0
N25 N 0.59113 0.41352 0.07763 0.0
N26 N 0.67491 0.54225 0.15515 0.0
H27 H 0.67461 0.51761 0.02497 0.0
C28 C 0.37381 0.65614 0.11199 0.0
O29 O 0.3653 0.63873 0.1619 0.0
O30 O 0.47251 0.23378 0.98793 0.0
H31 H 0.51437 0.3233 0.137 0.0
H32 H 0.08419 0.23187 0.97222 0.0
H33 H 0.58159 0.44159 0.20698 0.0
Zn34 Zn 0.19757 0.47429 0.1923 0.0
C35 C 1.02683 0.28415 0.28869 0.0
N36 N 0.09511 0.26635 0.29986 0.0
C37 C 0.16526 0.32649 0.27019 0.0
N38 N 0.13494 0.37251 0.23854 0.0
N39 N 1.05039 0.35006 0.25285 0.0
C40 C 0.76563 0.34988 0.27866 0.0
O41 O 0.77452 0.34131 0.32856 0.0
O42 O 0.28673 0.44856 0.15461 0.0
Zn43 Zn 0.9567 0.36702 0.21174 0.0
N44 N 0.22565 0.56732 0.24423 0.0
C45 C 0.19551 0.58117 0.3338 0.0
C46 C 0.22441 0.54335 0.29473 0.0
C47 C 0.20449 0.63226 0.232 0.0
N48 N 0.18068 0.65094 0.32182 0.0
C49 C 0.1863 0.67814 0.27173 0.0
O50 O 0.99768 0.47243 0.15536 0.0
C51 C 1.06617 0.51449 0.12467 0.0
O52 O 0.1388 0.51037 0.13247 0.0
H53 H 0.23936 0.49064 0.30354 0.0
H54 H 0.20482 0.65072 0.19162 0.0
C55 C 0.84995 0.25781 0.13775 0.0
C56 C 0.79144 0.1759 0.11309 0.0
C57 C 0.88525 0.11575 0.13885 0.0
C58 C 0.93828 0.19497 0.16844 0.0
N59 N 0.91622 0.26265 0.1683 0.0
N60 N 0.80981 0.10593 0.11352 0.0
H61 H 0.83502 0.31342 0.13909 0.0
C62 C 0.25104 0.36545 0.14027 0.0
O63 O 0.16286 0.30925 0.14652 0.0
O64 O 0.82916 0.35701 0.24663 0.0
H65 H 0.99361 0.2003 0.19219 0.0
H66 H 0.18819 0.55767 0.3736 0.0
H67 H 0.90035 0.06039 0.13885 0.0
Zn68 Zn 0.63766 0.93271 0.37839 0.0
C69 C 0.88673 0.14136 0.43686 0.0
N70 N 0.87669 0.0713 0.46663 0.0
C71 C 0.79065 1.00295 0.45542 0.0
N72 N 0.74842 1.02639 0.41944 0.0
N73 N 0.81047 0.11093 0.40512 0.0
C74 C 0.93343 0.22705 0.30683 0.0
O75 O 0.90137 0.13885 0.31302 0.0
O76 O 0.52018 0.80519 0.4133 0.0
Zn77 Zn 0.7712 0.17356 0.35897 0.0
N78 N 0.70157 0.89228 0.33493 0.0
C79 C 0.81758 0.86143 0.30546 0.0
C80 C 0.79133 0.91437 0.33509 0.0
C81 C 0.64019 0.82615 0.30427 0.0
N82 N 0.75198 0.78605 0.28008 0.0
C83 C 0.66363 0.76769 0.2796 0.0
O84 O 0.67632 0.11481 0.29916 0.0
C85 C 0.59958 1.04216 0.29135 0.0
O86 O 0.57318 0.97367 0.32202 0.0
H87 H 0.84129 0.96963 0.35889 0.0
H88 H 0.56964 0.81122 0.3056 0.0
C89 C 0.62025 0.18054 0.39869 0.0
C90 C 0.5561 0.16236 0.43838 0.0
C91 C 0.66212 0.17136 0.50052 0.0
C92 C 0.7289 0.2002 0.46148 0.0
N93 N 0.70631 0.20157 0.41097 0.0
N94 N 0.57757 0.15665 0.48849 0.0
H95 H 0.60223 0.18096 0.35831 0.0
C96 C 0.46376 0.74164 0.44533 0.0
O97 O 0.48118 0.75055 0.49523 0.0
O98 O 0.88608 0.26275 0.32128 0.0
H99 H 0.79652 0.21503 0.47034 0.0
H100 H 0.88805 0.87654 0.30549 0.0
H101 H 0.67821 0.16398 0.54033 0.0
Zn102 Zn 0.64559 0.74726 0.52566 0.0
C103 C 0.83581 0.76675 0.62201 0.0
N104 N 0.85361 0.85283 0.63318 0.0
C105 C 0.79345 0.86281 0.60352 0.0
N106 N 0.74742 0.78646 0.57187 0.0
N107 N 0.76988 0.72438 0.58617 0.0
C108 C 0.76996 0.43973 0.61199 0.0
O109 O 0.77848 0.45717 0.66189 0.0
O110 O 0.6713 0.86216 0.48798 0.0
Zn111 Zn 0.75288 0.6137 0.54507 0.0
N112 N 0.55259 0.6823 0.57762 0.0
C113 C 0.53876 0.63827 0.66718 0.0
C114 C 0.57661 0.70499 0.62811 0.0
C115 C 0.48758 0.59621 0.56538 0.0
N116 N 0.46891 0.55368 0.65521 0.0
C117 C 0.44167 0.53212 0.60511 0.0
O118 O 0.64747 0.54928 0.48867 0.0
C119 C 0.60538 0.57569 0.45801 0.0
O120 O 0.60947 0.65241 0.46584 0.0
H121 H 0.62937 0.77263 0.63693 0.0
H122 H 0.4691 0.5781 0.52501 0.0
C123 C 0.86211 0.61614 0.47111 0.0
C124 C 0.94402 0.63956 0.44644 0.0
C125 C 1.00417 0.79355 0.47215 0.0
C126 C 0.92495 0.76735 0.50175 0.0
N127 N 0.85727 0.6776 0.50164 0.0
N128 N 1.01399 0.72792 0.44684 0.0
H129 H 0.8065 0.54558 0.47247 0.0
C130 C 0.7544 0.90959 0.4736 0.0
O131 O 0.8106 0.87762 0.47982 0.0
O132 O 0.76286 0.49614 0.57995 0.0
H133 H 0.91961 0.81736 0.52547 0.0
H134 H 0.56228 0.65442 0.70698 0.0
H135 H 1.05953 0.86403 0.47213 0.0
Zn136 Zn 0.1872 0.72897 0.71173 0.0
C137 C 0.97857 0.76938 0.77019 0.0
N138 N 1.04863 0.82937 0.79998 0.0
C139 C 0.11697 0.81167 0.78877 0.0
N140 N 0.09352 0.74603 0.75278 0.0
N141 N 1.00898 0.72355 0.73844 0.0
C142 C 0.8929 0.73046 0.64015 0.0
O143 O 0.98111 0.78663 0.64637 0.0
O144 O 0.31472 0.73898 0.74665 0.0
Zn145 Zn 0.94635 0.62169 0.69226 0.0
N146 N 0.22769 0.83333 0.66829 0.0
C147 C 0.25866 0.98025 0.63887 0.0
C148 C 0.20567 0.90104 0.66847 0.0
C149 C 0.29381 0.83809 0.63763 0.0
N150 N 0.33403 0.99003 0.61348 0.0
C151 C 0.35233 0.92001 0.61298 0.0
O152 O 1.00512 0.58559 0.63245 0.0
C153 C 0.07775 0.58147 0.62466 0.0
O154 O 0.14623 0.62353 0.65536 0.0
H155 H 0.15041 0.89574 0.69227 0.0
H156 H 0.30869 0.78244 0.63893 0.0
C157 C 0.93938 0.46378 0.73196 0.0
C158 C 0.95759 0.41786 0.77166 0.0
C159 C 0.94846 0.5148 0.83379 0.0
C160 C 0.91957 0.55268 0.79475 0.0
N161 N 0.91827 0.52875 0.74424 0.0
N162 N 0.96325 0.44502 0.82177 0.0
H163 H 0.93898 0.44534 0.69158 0.0
C164 C 0.37828 0.74613 0.77866 0.0
O165 O 0.36943 0.75472 0.82856 0.0
O166 O 0.85718 0.64739 0.65456 0.0
H167 H 0.90467 0.60541 0.8036 0.0
H168 H 0.2436 1.03564 0.63892 0.0
H169 H 0.95581 0.53826 0.8736 0.0
Zn170 Zn 0.37267 0.9223 0.85902 0.0
C171 C 0.35313 0.09304 0.95531 0.0
N172 N 0.26706 1.02473 0.9665 0.0
C173 C 0.25711 0.95458 0.93686 0.0
N174 N 0.33347 0.98492 0.90522 0.0
N175 N 0.39554 0.06949 0.91951 0.0
C176 C 0.68013 0.35423 0.94531 0.0
O177 O 0.66267 0.3453 0.99521 0.0
O178 O 0.25775 0.83311 0.82134 0.0
Zn179 Zn 0.50621 0.16316 0.87839 0.0
N180 N 0.43764 0.8943 0.91097 0.0
C181 C 0.4817 0.92447 1.00054 0.0
C182 C 0.41498 0.89563 0.96147 0.0
C183 C 0.52373 0.91535 0.89873 0.0
N184 N 0.56628 0.93919 0.98855 0.0
C185 C 0.58782 0.93351 0.93846 0.0
O186 O 0.57066 0.1222 0.82201 0.0
C187 C 0.54426 0.05368 0.79136 0.0
O188 O 0.46753 0.98103 0.79919 0.0
H189 H 0.34734 0.88078 0.9703 0.0
H190 H 0.54182 0.91497 0.85836 0.0
C191 C 0.50374 0.26988 0.8044 0.0
C192 C 0.4803 0.32833 0.77971 0.0
C193 C 0.3263 0.23443 0.80543 0.0
C194 C 0.35252 0.18146 0.83505 0.0
N195 N 0.44229 0.20358 0.83494 0.0
N196 N 0.39192 0.30989 0.78011 0.0
H197 H 0.57431 0.28486 0.80576 0.0
C198 C 0.21035 0.86878 0.80695 0.0
O199 O 0.24236 0.95696 0.81317 0.0
O200 O 0.62373 0.2907 0.91328 0.0
H201 H 0.30251 0.12612 0.85878 0.0
H202 H 0.46556 0.93184 0.04034 0.0
H203 H 0.2558 0.21927 0.80541 0.0
Zn204 Zn 0.6377 0.72894 0.82752 0.0
C205 C 0.8868 0.76942 0.7691 0.0
N206 N 0.87676 0.8294 0.7393 0.0
C207 C 0.79072 0.81169 0.7505 0.0
N208 N 0.74847 0.74603 0.78648 0.0
N209 N 0.81052 0.72355 0.80082 0.0
C210 C 0.93348 0.73042 0.89909 0.0
O211 O 0.90143 0.78656 0.89291 0.0
O212 O 0.5202 0.73897 0.79261 0.0
Zn213 Zn 0.77125 0.62166 0.84697 0.0
N214 N 0.7016 0.83329 0.87098 0.0
C215 C 0.81759 0.98018 0.90044 0.0
C216 C 0.79135 0.901 0.87081 0.0
C217 C 0.64022 0.83801 0.90165 0.0
N218 N 0.752 0.98993 0.92585 0.0
C219 C 0.66366 0.91989 0.92634 0.0
O220 O 0.67637 0.58555 0.90679 0.0
C221 C 0.59963 0.58143 0.91459 0.0
O222 O 0.57322 0.6235 0.8839 0.0
H223 H 0.84132 0.89572 0.84701 0.0
H224 H 0.56967 0.78236 0.90033 0.0
C225 C 0.62027 0.46375 0.80725 0.0
C226 C 0.55612 0.4178 0.76756 0.0
C227 C 0.66218 0.51477 0.70542 0.0
C228 C 0.72895 0.55271 0.74446 0.0
N229 N 0.70635 0.52876 0.79497 0.0
N230 N 0.5776 0.44494 0.71745 0.0
H231 H 0.60223 0.4453 0.84764 0.0
C232 C 0.46378 0.74607 0.76059 0.0
O233 O 0.48117 0.75454 0.71069 0.0
O234 O 0.88612 0.64735 0.88466 0.0
H235 H 0.79658 0.60549 0.7356 0.0
H236 H 0.88806 1.03557 0.90041 0.0
H237 H 0.67828 0.53822 0.66561 0.0
Zn238 Zn 0.19759 0.74727 1.01364 0.0
C239 C 1.02687 0.76673 0.91726 0.0
N240 N 0.09517 0.85281 0.90608 0.0
C241 C 0.1653 0.8628 0.93577 0.0
N242 N 0.13498 0.78642 0.96739 0.0
N243 N 1.05043 0.72434 0.95307 0.0
C244 C 0.76566 0.43977 0.92726 0.0
O245 O 0.77458 0.45722 0.87736 0.0
O246 O 0.28675 0.86218 0.05131 0.0
Zn247 Zn 0.95673 0.61368 0.99418 0.0
N248 N 0.22565 0.68231 0.96172 0.0
C249 C 0.19556 0.63834 0.87214 0.0
C250 C 0.22444 0.70504 0.91122 0.0
C251 C 0.20445 0.59619 0.97395 0.0
N252 N 0.18069 0.55372 0.88411 0.0
C253 C 0.18624 0.53212 0.93421 0.0
O254 O 0.9977 0.54923 0.05056 0.0
C255 C 1.06618 0.57567 0.08126 0.0
O256 O 0.13881 0.65244 0.07347 0.0
H257 H 0.23941 0.77272 0.90241 0.0
H258 H 0.20477 0.57807 1.01432 0.0
C259 C 0.85005 0.61615 0.06821 0.0
C260 C 0.79158 0.63956 0.09289 0.0
C261 C 0.88534 0.79352 0.0671 0.0
C262 C 0.93835 0.76732 0.03749 0.0
N263 N 0.91629 0.67758 0.03764 0.0
N264 N 0.80993 0.7279 0.09246 0.0
H265 H 0.83511 0.5456 0.06687 0.0
C266 C 0.25106 0.9096 0.06564 0.0
O267 O 0.16287 0.87758 0.05939 0.0
O268 O 0.82919 0.49616 0.9593 0.0
H269 H 0.99365 0.81732 1.01373 0.0
H270 H 0.18828 0.65452 0.83233 0.0
H271 H 0.90044 0.86399 0.06709 0.0
Zn272 Zn 0.3909 0.93271 0.16085 0.0
C273 C 0.35043 0.14133 0.10243 0.0
N274 N 0.29045 0.07129 0.07263 0.0
C275 C 0.30813 1.00296 0.08385 0.0
N276 N 0.37381 1.0264 0.11982 0.0
N277 N 0.39629 0.11093 0.13416 0.0
C278 C 0.38936 0.22699 0.23243 0.0
O279 O 0.33319 0.1388 0.22621 0.0
O280 O 0.38091 0.80519 0.12595 0.0
Zn281 Zn 0.49816 0.17355 0.18034 0.0
N282 N 0.28651 0.89219 0.20429 0.0
C283 C 0.13956 0.86117 0.23372 0.0
C284 C 0.21878 0.91418 0.20412 0.0
C285 C 0.28179 0.8261 0.23496 0.0
N286 N 0.12981 0.78582 0.25912 0.0
C287 C 0.19988 0.76759 0.25962 0.0
O288 O 0.53426 0.11478 0.24015 0.0
C289 C 0.53837 1.04216 0.24794 0.0
O290 O 0.49633 0.97369 0.21724 0.0
H291 H 0.22405 0.96942 0.18032 0.0
H292 H 0.33746 0.81124 0.23365 0.0
C293 C 0.65607 0.18049 0.14064 0.0
C294 C 0.70198 0.16227 0.10094 0.0
C295 C 0.60507 0.17145 0.0388 0.0
C296 C 0.56718 0.20032 0.07784 0.0
N297 N 0.59111 0.20162 0.12836 0.0
N298 N 0.67485 0.15664 0.05083 0.0
H299 H 0.67451 0.18089 0.18102 0.0
C300 C 0.3738 0.74166 0.09392 0.0
O301 O 0.36531 0.75057 0.04402 0.0
O302 O 0.47246 0.26271 0.21803 0.0
H303 H 0.51444 0.21522 0.06899 0.0
H304 H 0.08414 0.87619 0.23367 0.0
H305 H 0.58162 0.16412 0.99899 0.0
Zn306 Zn 0.37262 0.47432 0.34693 0.0
C307 C 0.35307 0.28406 0.2506 0.0
N308 N 0.26699 0.26629 0.23942 0.0
C309 C 0.25703 0.32644 0.2691 0.0
N310 N 0.33342 0.37251 0.30072 0.0
N311 N 0.39549 0.35002 0.28641 0.0
C312 C 0.68011 0.34992 0.2606 0.0
O313 O 0.66268 0.34143 0.2107 0.0
O314 O 0.2577 0.44858 0.3846 0.0
Zn315 Zn 0.50617 0.36702 0.32752 0.0
N316 N 0.43761 0.5673 0.29497 0.0
C317 C 0.48164 0.58119 0.2054 0.0
C318 C 0.41492 0.54331 0.24447 0.0
C319 C 0.52371 0.6323 0.30721 0.0
N320 N 0.56624 0.65103 0.21738 0.0
C321 C 0.58779 0.67822 0.26748 0.0
O322 O 0.57062 0.47245 0.38391 0.0
C323 C 0.54421 0.51452 0.41458 0.0
O324 O 0.46747 0.51042 0.40676 0.0
H325 H 0.34727 0.49053 0.23565 0.0
H326 H 0.54181 0.65077 0.34758 0.0
C327 C 0.50371 0.25786 0.40153 0.0
C328 C 0.48027 0.17599 0.42622 0.0
C329 C 0.32628 0.1158 0.40048 0.0
C330 C 0.35249 0.19499 0.37086 0.0
N331 N 0.44226 0.26267 0.37097 0.0
N332 N 0.39191 0.106 0.42582 0.0
H333 H 0.57428 0.31347 0.40017 0.0
C334 C 0.21029 0.36549 0.39898 0.0
O335 O 0.24231 0.30933 0.39276 0.0
O336 O 0.6237 0.35702 0.29264 0.0
H337 H 0.30249 0.2003 0.34711 0.0
H338 H 0.46549 0.5577 0.1656 0.0
H339 H 0.2558 0.06044 0.40049 0.0
Zn340 Zn 0.18717 0.48221 0.4942 0.0
C341 C 0.97853 0.23313 0.43576 0.0
N342 N 1.04857 0.24318 0.40597 0.0
C343 C 0.11693 0.32921 0.41718 0.0
N344 N 0.09349 0.37146 0.45315 0.0
N345 N 1.00894 0.3094 0.46748 0.0
C346 C 0.89289 0.1864 0.56576 0.0
O347 O 0.9811 0.21847 0.55954 0.0
O348 O 0.3147 0.59969 0.45928 0.0
Zn349 Zn 0.94633 0.34863 0.51368 0.0
N350 N 0.22763 0.41832 0.53765 0.0
C351 C 0.25857 0.30236 0.56708 0.0
C352 C 0.2056 0.32859 0.53746 0.0
C353 C 0.29371 0.47968 0.56834 0.0
N354 N 0.33392 0.36796 0.59249 0.0
C355 C 0.35219 0.45627 0.59301 0.0
O356 O 1.00511 0.44349 0.57349 0.0
C357 C 0.07775 0.52026 0.58127 0.0
O358 O 0.14621 0.54669 0.55056 0.0
H359 H 0.15037 0.27863 0.51365 0.0
H360 H 0.3086 0.55022 0.56703 0.0
C361 C 0.93941 0.4996 0.47398 0.0
C362 C 0.95764 0.56373 0.43428 0.0
C363 C 0.94841 0.45764 0.37215 0.0
C364 C 0.91954 0.39087 0.41119 0.0
N365 N 0.91826 0.41351 0.4617 0.0
N366 N 0.96324 0.54223 0.38417 0.0
H367 H 0.93903 0.51764 0.51436 0.0
C368 C 0.37825 0.6561 0.42726 0.0
O369 O 0.36937 0.63866 0.37736 0.0
O370 O 0.85716 0.23375 0.55136 0.0
H371 H 0.90463 0.32324 0.40234 0.0
H372 H 0.24352 0.23191 0.56702 0.0
H373 H 0.95573 0.44152 0.33233 0.0
Zn374 Zn 0.64563 0.92231 0.6803 0.0
C375 C 0.83583 0.09302 0.58393 0.0
N376 N 0.85361 1.02474 0.57275 0.0
C377 C 0.79348 0.95462 0.60244 0.0
N378 N 0.74742 0.98493 0.63407 0.0
N379 N 0.76988 0.06946 0.61975 0.0
C380 C 0.76997 0.3542 0.59393 0.0
O381 O 0.77848 0.34528 0.54403 0.0
O382 O 0.67136 0.83314 0.71797 0.0
Zn383 Zn 0.75289 0.16316 0.66085 0.0
N384 N 0.55261 0.89425 0.62837 0.0
C385 C 0.53875 0.92439 0.53879 0.0
C386 C 0.57658 0.89551 0.57787 0.0
C387 C 0.48767 0.91542 0.6406 0.0
N388 N 0.46898 0.93922 0.55077 0.0
C389 C 0.4418 0.93363 0.60087 0.0
O390 O 0.64747 0.12216 0.71724 0.0
C391 C 0.60543 0.05369 0.74794 0.0
O392 O 0.60956 0.98107 0.74013 0.0
H393 H 0.62931 0.88057 0.56905 0.0
H394 H 0.4692 0.91507 0.68097 0.0
C395 C 0.86209 0.26992 0.73483 0.0
C396 C 0.94398 0.32841 0.75951 0.0
C397 C 1.0042 0.23467 0.73375 0.0
C398 C 0.92498 0.18163 0.70416 0.0
N399 N 0.85728 0.20366 0.70428 0.0
N400 N 1.01399 0.31009 0.75909 0.0
H401 H 0.80646 0.28484 0.73349 0.0
C402 C 0.75447 0.8688 0.73232 0.0
O403 O 0.81069 0.95698 0.72608 0.0
O404 O 0.76287 0.29069 0.62596 0.0
H405 H 0.91966 0.12631 0.68042 0.0
H406 H 0.56225 0.9317 0.49899 0.0
H407 H 1.05958 0.21959 0.73376 0.0
loop_
_geom_bond_atom_site_label_1
_geom_bond_atom_site_label_2
_geom_bond_distance
_geom_bond_site_symmetry_2
_ccdc_geom_bond_type
Zn0 N4 2.020 . S
Zn0 O8 2.019 . S
Zn0 N10 2.119 1_554 S
Zn0 O18 1.975 1_554 S
C1 N2 1.334 . S
C1 N5 1.336 . S
N2 C1 1.334 . S
N2 C3 1.334 . S
C3 N2 1.334 . S
C3 N4 1.336 . S
N4 Zn0 2.020 . S
N4 C3 1.336 . S
N4 N5 1.354 . S
N5 C1 1.336 . S
N5 N4 1.354 . S
N5 Zn9 2.020 1_554 S
C6 O7 1.244 . S
C6 O30 1.257 . S
O7 C6 1.244 . S
O8 Zn0 2.019 . S
O8 C28 1.257 . S
Zn9 N5 2.020 1_556 S
Zn9 O16 1.975 . S
Zn9 N25 2.119 1_556 S
Zn9 O30 2.019 . S
N10 Zn0 2.119 1_556 S
N10 C12 1.334 . S
N10 C13 1.328 . S
C11 C12 1.391 . S
C11 N14 1.329 . S
C11 H32 0.930 . S
C12 N10 1.334 . S
C12 C11 1.391 . S
C12 H19 0.930 . S
C13 N10 1.328 . S
C13 C15 1.392 . S
C13 H20 0.930 1_556 S
N14 C11 1.329 . S
N14 C15 1.331 . S
C15 C13 1.392 . S
C15 N14 1.331 . S
O16 Zn9 1.975 . S
O16 C17 1.252 . S
C17 O16 1.252 . S
C17 O18 1.252 . S
O18 Zn0 1.975 1_556 S
O18 C17 1.252 . S
H19 C12 0.930 . S
H20 C13 0.930 1_554 S
C21 C22 1.392 . S
C21 N25 1.328 . S
C21 H27 0.930 . S
C22 C21 1.392 . S
C22 N26 1.331 . S
C23 C24 1.391 . S
C23 N26 1.329 . S
C23 H33 0.930 . S
C24 C23 1.391 . S
C24 N25 1.334 . S
C24 H31 0.930 . S
N25 Zn9 2.119 1_554 S
N25 C21 1.328 . S
N25 C24 1.334 . S
N26 C22 1.331 . S
N26 C23 1.329 . S
H27 C21 0.930 . S
C28 O8 1.257 . S
C28 O29 1.244 . S
O29 C28 1.244 . S
O30 C6 1.257 . S
O30 Zn9 2.019 . S
H31 C24 0.930 . S
H32 C11 0.930 . S
H33 C23 0.930 . S
Zn34 N38 2.020 . S
Zn34 O42 2.019 . S
Zn34 N44 2.119 . S
Zn34 O52 1.975 1_455 S
C35 N36 1.334 . S
C35 N39 1.336 . S
N36 C35 1.334 . S
N36 C37 1.334 1_655 S
C37 N36 1.334 1_455 S
C37 N38 1.336 . S
N38 Zn34 2.020 . S
N38 C37 1.336 . S
N38 N39 1.354 1_455 S
N39 C35 1.336 . S
N39 N38 1.354 1_655 S
N39 Zn43 2.020 . S
C40 O41 1.244 . S
C40 O64 1.257 . S
O41 C40 1.244 . S
O42 Zn34 2.019 . S
O42 C62 1.257 . S
Zn43 N39 2.020 . S
Zn43 O50 1.975 . S
Zn43 N59 2.119 . S
Zn43 O64 2.019 . S
N44 Zn34 2.119 . S
N44 C46 1.334 . S
N44 C47 1.328 . S
C45 C46 1.391 . S
C45 N48 1.329 . S
C45 H66 0.930 . S
C46 N44 1.334 . S
C46 C45 1.391 . S
C46 H53 0.930 . S
C47 N44 1.328 . S
C47 C49 1.392 . S
C47 H54 0.930 . S
N48 C45 1.329 . S
N48 C49 1.331 . S
C49 C47 1.392 . S
C49 N48 1.331 . S
O50 Zn43 1.975 . S
O50 C51 1.252 . S
C51 O50 1.252 . S
C51 O52 1.252 . S
O52 Zn34 1.975 1_655 S
O52 C51 1.252 . S
H53 C46 0.930 . S
H54 C47 0.930 . S
C55 C56 1.392 . S
C55 N59 1.328 . S
C55 H61 0.930 . S
C56 C55 1.392 . S
C56 N60 1.331 . S
C57 C58 1.391 . S
C57 N60 1.329 . S
C57 H67 0.930 . S
C58 C57 1.391 . S
C58 N59 1.334 . S
C58 H65 0.930 . S
N59 Zn43 2.119 . S
N59 C55 1.328 . S
N59 C58 1.334 . S
N60 C56 1.331 . S
N60 C57 1.329 . S
H61 C55 0.930 . S
C62 O42 1.257 . S
C62 O63 1.244 . S
O63 C62 1.244 . S
O64 C40 1.257 . S
O64 Zn43 2.019 . S
H65 C58 0.930 . S
H66 C45 0.930 . S
H67 C57 0.930 . S
Zn68 N72 2.020 . S
Zn68 O76 2.019 . S
Zn68 N78 2.119 . S
Zn68 O86 1.975 . S
C69 N70 1.334 1_545 S
C69 N73 1.336 . S
N70 C69 1.334 1_565 S
N70 C71 1.334 . S
C71 N70 1.334 . S
C71 N72 1.336 . S
N72 Zn68 2.020 . S
N72 C71 1.336 . S
N72 N73 1.354 1_565 S
N73 C69 1.336 . S
N73 N72 1.354 1_545 S
N73 Zn77 2.020 . S
C74 O75 1.244 . S
C74 O98 1.257 . S
O75 C74 1.244 . S
O76 Zn68 2.019 . S
O76 C96 1.257 . S
Zn77 N73 2.020 . S
Zn77 O84 1.975 1_545 S
Zn77 N93 2.119 . S
Zn77 O98 2.019 . S
N78 Zn68 2.119 . S
N78 C80 1.334 . S
N78 C81 1.328 . S
C79 C80 1.391 . S
C79 N82 1.329 . S
C79 H100 0.930 . S
C80 N78 1.334 . S
C80 C79 1.391 . S
C80 H87 0.930 . S
C81 N78 1.328 . S
C81 C83 1.392 . S
C81 H88 0.930 . S
N82 C79 1.329 . S
N82 C83 1.331 . S
C83 C81 1.392 . S
C83 N82 1.331 . S
O84 Zn77 1.975 1_565 S
O84 C85 1.252 . S
C85 O84 1.252 . S
C85 O86 1.252 . S
O86 Zn68 1.975 . S
O86 C85 1.252 . S
H87 C80 0.930 . S
H88 C81 0.930 . S
C89 C90 1.392 . S
C89 N93 1.328 . S
C89 H95 0.930 . S
C90 C89 1.392 . S
C90 N94 1.331 . S
C91 C92 1.391 . S
C91 N94 1.329 . S
C91 H101 0.930 . S
C92 C91 1.391 . S
C92 N93 1.334 . S
C92 H99 0.930 . S
N93 Zn77 2.119 . S
N93 C89 1.328 . S
N93 C92 1.334 . S
N94 C90 1.331 . S
N94 C91 1.329 . S
H95 C89 0.930 . S
C96 O76 1.257 . S
C96 O97 1.244 . S
O97 C96 1.244 . S
O98 C74 1.257 . S
O98 Zn77 2.019 . S
H99 C92 0.930 . S
H100 C79 0.930 . S
H101 C91 0.930 . S
Zn102 N106 2.020 . S
Zn102 O110 2.019 . S
Zn102 N112 2.119 . S
Zn102 O120 1.975 . S
C103 N104 1.334 . S
C103 N107 1.336 . S
N104 C103 1.334 . S
N104 C105 1.334 . S
C105 N104 1.334 . S
C105 N106 1.336 . S
N106 Zn102 2.020 . S
N106 C105 1.336 . S
N106 N107 1.354 . S
N107 C103 1.336 . S
N107 N106 1.354 . S
N107 Zn111 2.020 . S
C108 O109 1.244 . S
C108 O132 1.257 . S
O109 C108 1.244 . S
O110 Zn102 2.019 . S
O110 C130 1.257 . S
Zn111 N107 2.020 . S
Zn111 O118 1.975 . S
Zn111 N127 2.119 . S
Zn111 O132 2.019 . S
N112 Zn102 2.119 . S
N112 C114 1.334 . S
N112 C115 1.328 . S
C113 C114 1.391 . S
C113 N116 1.329 . S
C113 H134 0.930 . S
C114 N112 1.334 . S
C114 C113 1.391 . S
C114 H121 0.930 . S
C115 N112 1.328 . S
C115 C117 1.392 . S
C115 H122 0.930 . S
N116 C113 1.329 . S
N116 C117 1.331 . S
C117 C115 1.392 . S
C117 N116 1.331 . S
O118 Zn111 1.975 . S
O118 C119 1.252 . S
C119 O118 1.252 . S
C119 O120 1.252 . S
O120 Zn102 1.975 . S
O120 C119 1.252 . S
H121 C114 0.930 . S
H122 C115 0.930 . S
C123 C124 1.392 . S
C123 N127 1.328 . S
C123 H129 0.930 . S
C124 C123 1.392 . S
C124 N128 1.331 . S
C125 C126 1.391 . S
C125 N128 1.329 . S
C125 H135 0.930 . S
C126 C125 1.391 . S
C126 N127 1.334 . S
C126 H133 0.930 . S
N127 Zn111 2.119 . S
N127 C123 1.328 . S
N127 C126 1.334 . S
N128 C124 1.331 . S
N128 C125 1.329 . S
H129 C123 0.930 . S
C130 O110 1.257 . S
C130 O131 1.244 . S
O131 C130 1.244 . S
O132 C108 1.257 . S
O132 Zn111 2.019 . S
H133 C126 0.930 . S
H134 C113 0.930 . S
H135 C125 0.930 . S
Zn136 N140 2.020 . S
Zn136 O144 2.019 . S
Zn136 N146 2.119 . S
Zn136 O154 1.975 . S
C137 N138 1.334 1_655 S
C137 N141 1.336 . S
N138 C137 1.334 1_455 S
N138 C139 1.334 . S
C139 N138 1.334 . S
C139 N140 1.336 . S
N140 Zn136 2.020 . S
N140 C139 1.336 . S
N140 N141 1.354 1_455 S
N141 C137 1.336 . S
N141 N140 1.354 1_655 S
N141 Zn145 2.020 . S
C142 O143 1.244 . S
C142 O166 1.257 . S
O143 C142 1.244 . S
O144 Zn136 2.019 . S
O144 C164 1.257 . S
Zn145 N141 2.020 . S
Zn145 O152 1.975 1_655 S
Zn145 N161 2.119 . S
Zn145 O166 2.019 . S
N146 Zn136 2.119 . S
N146 C148 1.334 . S
N146 C149 1.328 . S
C147 C148 1.391 . S
C147 N150 1.329 . S
C147 H168 0.930 . S
C148 N146 1.334 . S
C148 C147 1.391 . S
C148 H155 0.930 . S
C149 N146 1.328 . S
C149 C151 1.392 . S
C149 H156 0.930 . S
N150 C147 1.329 . S
N150 C151 1.331 . S
C151 C149 1.392 . S
C151 N150 1.331 . S
O152 Zn145 1.975 1_455 S
O152 C153 1.252 . S
C153 O152 1.252 . S
C153 O154 1.252 . S
O154 Zn136 1.975 . S
O154 C153 1.252 . S
H155 C148 0.930 . S
H156 C149 0.930 . S
C157 C158 1.392 . S
C157 N161 1.328 . S
C157 H163 0.930 . S
C158 C157 1.392 . S
C158 N162 1.331 . S
C159 C160 1.391 . S
C159 N162 1.329 . S
C159 H169 0.930 . S
C160 C159 1.391 . S
C160 N161 1.334 . S
C160 H167 0.930 . S
N161 Zn145 2.119 . S
N161 C157 1.328 . S
N161 C160 1.334 . S
N162 C158 1.331 . S
N162 C159 1.329 . S
H163 C157 0.930 . S
C164 O144 1.257 . S
C164 O165 1.244 . S
O165 C164 1.244 . S
O166 C142 1.257 . S
O166 Zn145 2.019 . S
H167 C160 0.930 . S
H168 C147 0.930 . S
H169 C159 0.930 . S
Zn170 N174 2.020 . S
Zn170 O178 2.019 . S
Zn170 N180 2.119 . S
Zn170 O188 1.975 1_565 S
C171 N172 1.334 . S
C171 N175 1.336 . S
N172 C171 1.334 . S
N172 C173 1.334 1_545 S
C173 N172 1.334 1_565 S
C173 N174 1.336 . S
N174 Zn170 2.020 . S
N174 C173 1.336 . S
N174 N175 1.354 1_565 S
N175 C171 1.336 . S
N175 N174 1.354 1_545 S
N175 Zn179 2.020 . S
C176 O177 1.244 . S
C176 O200 1.257 . S
O177 C176 1.244 . S
O178 Zn170 2.019 . S
O178 C198 1.257 . S
Zn179 N175 2.020 . S
Zn179 O186 1.975 . S
Zn179 N195 2.119 . S
Zn179 O200 2.019 . S
N180 Zn170 2.119 . S
N180 C182 1.334 . S
N180 C183 1.328 . S
C181 C182 1.391 . S
C181 N184 1.329 . S
C181 H202 0.930 . S
C182 N180 1.334 . S
C182 C181 1.391 . S
C182 H189 0.930 . S
C183 N180 1.328 . S
C183 C185 1.392 . S
C183 H190 0.930 . S
N184 C181 1.329 . S
N184 C185 1.331 . S
C185 C183 1.392 . S
C185 N184 1.331 . S
O186 Zn179 1.975 . S
O186 C187 1.252 . S
C187 O186 1.252 . S
C187 O188 1.252 . S
O188 Zn170 1.975 1_545 S
O188 C187 1.252 . S
H189 C182 0.930 . S
H190 C183 0.930 . S
C191 C192 1.392 . S
C191 N195 1.328 . S
C191 H197 0.930 . S
C192 C191 1.392 . S
C192 N196 1.331 . S
C193 C194 1.391 . S
C193 N196 1.329 . S
C193 H203 0.930 . S
C194 C193 1.391 . S
C194 N195 1.334 . S
C194 H201 0.930 . S
N195 Zn179 2.119 . S
N195 C191 1.328 . S
N195 C194 1.334 . S
N196 C192 1.331 . S
N196 C193 1.329 . S
H197 C191 0.930 . S
C198 O178 1.257 . S
C198 O199 1.244 . S
O199 C198 1.244 . S
O200 C176 1.257 . S
O200 Zn179 2.019 . S
H201 C194 0.930 . S
H202 C181 0.930 . S
H203 C193 0.930 . S
Zn204 N208 2.020 . S
Zn204 O212 2.019 . S
Zn204 N214 2.119 . S
Zn204 O222 1.975 . S
C205 N206 1.334 . S
C205 N209 1.336 . S
N206 C205 1.334 . S
N206 C207 1.334 . S
C207 N206 1.334 . S
C207 N208 1.336 . S
N208 Zn204 2.020 . S
N208 C207 1.336 . S
N208 N209 1.354 . S
N209 C205 1.336 . S
N209 N208 1.354 . S
N209 Zn213 2.020 . S
C210 O211 1.244 . S
C210 O234 1.257 . S
O211 C210 1.244 . S
O212 Zn204 2.019 . S
O212 C232 1.257 . S
Zn213 N209 2.020 . S
Zn213 O220 1.975 . S
Zn213 N229 2.119 . S
Zn213 O234 2.019 . S
N214 Zn204 2.119 . S
N214 C216 1.334 . S
N214 C217 1.328 . S
C215 C216 1.391 . S
C215 N218 1.329 . S
C215 H236 0.930 . S
C216 N214 1.334 . S
C216 C215 1.391 . S
C216 H223 0.930 . S
C217 N214 1.328 . S
C217 C219 1.392 . S
C217 H224 0.930 . S
N218 C215 1.329 . S
N218 C219 1.331 . S
C219 C217 1.392 . S
C219 N218 1.331 . S
O220 Zn213 1.975 . S
O220 C221 1.252 . S
C221 O220 1.252 . S
C221 O222 1.252 . S
O222 Zn204 1.975 . S
O222 C221 1.252 . S
H223 C216 0.930 . S
H224 C217 0.930 . S
C225 C226 1.392 . S
C225 N229 1.328 . S
C225 H231 0.930 . S
C226 C225 1.392 . S
C226 N230 1.331 . S
C227 C228 1.391 . S
C227 N230 1.329 . S
C227 H237 0.930 . S
C228 C227 1.391 . S
C228 N229 1.334 . S
C228 H235 0.930 . S
N229 Zn213 2.119 . S
N229 C225 1.328 . S
N229 C228 1.334 . S
N230 C226 1.331 . S
N230 C227 1.329 . S
H231 C225 0.930 . S
C232 O212 1.257 . S
C232 O233 1.244 . S
O233 C232 1.244 . S
O234 C210 1.257 . S
O234 Zn213 2.019 . S
H235 C228 0.930 . S
H236 C215 0.930 . S
H237 C227 0.930 . S
Zn238 N242 2.020 1_554 S
Zn238 O246 2.019 . S
Zn238 N248 2.119 1_554 S
Zn238 O256 1.975 1_455 S
C239 N240 1.334 . S
C239 N243 1.336 . S
N240 C239 1.334 . S
N240 C241 1.334 1_655 S
C241 N240 1.334 1_455 S
C241 N242 1.336 . S
N242 Zn238 2.020 1_556 S
N242 C241 1.336 . S
N242 N243 1.354 1_455 S
N243 C239 1.336 . S
N243 N242 1.354 1_655 S
N243 Zn247 2.020 . S
C244 O245 1.244 . S
C244 O268 1.257 . S
O245 C244 1.244 . S
O246 Zn238 2.019 . S
O246 C266 1.257 . S
Zn247 N243 2.020 . S
Zn247 O254 1.975 1_556 S
Zn247 N263 2.119 1_556 S
Zn247 O268 2.019 . S
N248 Zn238 2.119 1_556 S
N248 C250 1.334 . S
N248 C251 1.328 . S
C249 C250 1.391 . S
C249 N252 1.329 . S
C249 H270 0.930 . S
C250 N248 1.334 . S
C250 C249 1.391 . S
C250 H257 0.930 . S
C251 N248 1.328 . S
C251 C253 1.392 . S
C251 H258 0.930 . S
N252 C249 1.329 . S
N252 C253 1.331 . S
C253 C251 1.392 . S
C253 N252 1.331 . S
O254 Zn247 1.975 1_554 S
O254 C255 1.252 . S
C255 O254 1.252 . S
C255 O256 1.252 . S
O256 Zn238 1.975 1_655 S
O256 C255 1.252 . S
H257 C250 0.930 . S
H258 C251 0.930 . S
C259 C260 1.392 . S
C259 N263 1.328 . S
C259 H265 0.930 1_554 S
C260 C259 1.392 . S
C260 N264 1.331 . S
C261 C262 1.391 . S
C261 N264 1.329 . S
C261 H271 0.930 . S
C262 C261 1.391 . S
C262 N263 1.334 . S
C262 H269 0.930 . S
N263 Zn247 2.119 1_554 S
N263 C259 1.328 . S
N263 C262 1.334 . S
N264 C260 1.331 . S
N264 C261 1.329 . S
H265 C259 0.930 1_556 S
C266 O246 1.257 . S
C266 O267 1.244 . S
O267 C266 1.244 . S
O268 C244 1.257 . S
O268 Zn247 2.019 . S
H269 C262 0.930 . S
H270 C249 0.930 . S
H271 C261 0.930 . S
Zn272 N276 2.020 . S
Zn272 O280 2.019 . S
Zn272 N282 2.119 . S
Zn272 O290 1.975 . S
C273 N274 1.334 1_545 S
C273 N277 1.336 . S
N274 C273 1.334 1_565 S
N274 C275 1.334 . S
C275 N274 1.334 . S
C275 N276 1.336 . S
N276 Zn272 2.020 . S
N276 C275 1.336 . S
N276 N277 1.354 1_565 S
N277 C273 1.336 . S
N277 N276 1.354 1_545 S
N277 Zn281 2.020 . S
C278 O279 1.244 . S
C278 O302 1.257 . S
O279 C278 1.244 . S
O280 Zn272 2.019 . S
O280 C300 1.257 . S
Zn281 N277 2.020 . S
Zn281 O288 1.975 1_545 S
Zn281 N297 2.119 . S
Zn281 O302 2.019 . S
N282 Zn272 2.119 . S
N282 C284 1.334 . S
N282 C285 1.328 . S
C283 C284 1.391 . S
C283 N286 1.329 . S
C283 H304 0.930 . S
C284 N282 1.334 . S
C284 C283 1.391 . S
C284 H291 0.930 . S
C285 N282 1.328 . S
C285 C287 1.392 . S
C285 H292 0.930 . S
N286 C283 1.329 . S
N286 C287 1.331 . S
C287 C285 1.392 . S
C287 N286 1.331 . S
O288 Zn281 1.975 1_565 S
O288 C289 1.252 . S
C289 O288 1.252 . S
C289 O290 1.252 . S
O290 Zn272 1.975 . S
O290 C289 1.252 . S
H291 C284 0.930 . S
H292 C285 0.930 . S
C293 C294 1.392 . S
C293 N297 1.328 . S
C293 H299 0.930 . S
C294 C293 1.392 . S
C294 N298 1.331 . S
C295 C296 1.391 . S
C295 N298 1.329 . S
C295 H305 0.930 . S
C296 C295 1.391 . S
C296 N297 1.334 . S
C296 H303 0.930 . S
N297 Zn281 2.119 . S
N297 C293 1.328 . S
N297 C296 1.334 . S
N298 C294 1.331 . S
N298 C295 1.329 . S
H299 C293 0.930 . S
C300 O280 1.257 . S
C300 O301 1.244 . S
O301 C300 1.244 . S
O302 C278 1.257 . S
O302 Zn281 2.019 . S
H303 C296 0.930 . S
H304 C283 0.930 . S
H305 C295 0.930 . S
Zn306 N310 2.020 . S
Zn306 O314 2.019 . S
Zn306 N316 2.119 . S
Zn306 O324 1.975 . S
C307 N308 1.334 . S
C307 N311 1.336 . S
N308 C307 1.334 . S
N308 C309 1.334 . S
C309 N308 1.334 . S
C309 N310 1.336 . S
N310 Zn306 2.020 . S
N310 C309 1.336 . S
N310 N311 1.354 . S
N311 C307 1.336 . S
N311 N310 1.354 . S
N311 Zn315 2.020 . S
C312 O313 1.244 . S
C312 O336 1.257 . S
O313 C312 1.244 . S
O314 Zn306 2.019 . S
O314 C334 1.257 . S
Zn315 N311 2.020 . S
Zn315 O322 1.975 . S
Zn315 N331 2.119 . S
Zn315 O336 2.019 . S
N316 Zn306 2.119 . S
N316 C318 1.334 . S
N316 C319 1.328 . S
C317 C318 1.391 . S
C317 N320 1.329 . S
C317 H338 0.930 . S
C318 N316 1.334 . S
C318 C317 1.391 . S
C318 H325 0.930 . S
C319 N316 1.328 . S
C319 C321 1.392 . S
C319 H326 0.930 . S
N320 C317 1.329 . S
N320 C321 1.331 . S
C321 C319 1.392 . S
C321 N320 1.331 . S
O322 Zn315 1.975 . S
O322 C323 1.252 . S
C323 O322 1.252 . S
C323 O324 1.252 . S
O324 Zn306 1.975 . S
O324 C323 1.252 . S
H325 C318 0.930 . S
H326 C319 0.930 . S
C327 C328 1.392 . S
C327 N331 1.328 . S
C327 H333 0.930 . S
C328 C327 1.392 . S
C328 N332 1.331 . S
C329 C330 1.391 . S
C329 N332 1.329 . S
C329 H339 0.930 . S
C330 C329 1.391 . S
C330 N331 1.334 . S
C330 H337 0.930 . S
N331 Zn315 2.119 . S
N331 C327 1.328 . S
N331 C330 1.334 . S
N332 C328 1.331 . S
N332 C329 1.329 . S
H333 C327 0.930 . S
C334 O314 1.257 . S
C334 O335 1.244 . S
O335 C334 1.244 . S
O336 C312 1.257 . S
O336 Zn315 2.019 . S
H337 C330 0.930 . S
H338 C317 0.930 . S
H339 C329 0.930 . S
Zn340 N344 2.020 . S
Zn340 O348 2.019 . S
Zn340 N350 2.119 . S
Zn340 O358 1.975 . S
C341 N342 1.334 1_655 S
C341 N345 1.336 . S
N342 C341 1.334 1_455 S
N342 C343 1.334 . S
C343 N342 1.334 . S
C343 N344 1.336 . S
N344 Zn340 2.020 . S
N344 C343 1.336 . S
N344 N345 1.354 1_455 S
N345 C341 1.336 . S
N345 N344 1.354 1_655 S
N345 Zn349 2.020 . S
C346 O347 1.244 . S
C346 O370 1.257 . S
O347 C346 1.244 . S
O348 Zn340 2.019 . S
O348 C368 1.257 . S
Zn349 N345 2.020 . S
Zn349 O356 1.975 1_655 S
Zn349 N365 2.119 . S
Zn349 O370 2.019 . S
N350 Zn340 2.119 . S
N350 C352 1.334 . S
N350 C353 1.328 . S
C351 C352 1.391 . S
C351 N354 1.329 . S
C351 H372 0.930 . S
C352 N350 1.334 . S
C352 C351 1.391 . S
C352 H359 0.930 . S
C353 N350 1.328 . S
C353 C355 1.392 . S
C353 H360 0.930 . S
N354 C351 1.329 . S
N354 C355 1.331 . S
C355 C353 1.392 . S
C355 N354 1.331 . S
O356 Zn349 1.975 1_455 S
O356 C357 1.252 . S
C357 O356 1.252 . S
C357 O358 1.252 . S
O358 Zn340 1.975 . S
O358 C357 1.252 . S
H359 C352 0.930 . S
H360 C353 0.930 . S
C361 C362 1.392 . S
C361 N365 1.328 . S
C361 H367 0.930 . S
C362 C361 1.392 . S
C362 N366 1.331 . S
C363 C364 1.391 . S
C363 N366 1.329 . S
C363 H373 0.930 . S
C364 C363 1.391 . S
C364 N365 1.334 . S
C364 H371 0.930 . S
N365 Zn349 2.119 . S
N365 C361 1.328 . S
N365 C364 1.334 . S
N366 C362 1.331 . S
N366 C363 1.329 . S
H367 C361 0.930 . S
C368 O348 1.257 . S
C368 O369 1.244 . S
O369 C368 1.244 . S
O370 C346 1.257 . S
O370 Zn349 2.019 . S
H371 C364 0.930 . S
H372 C351 0.930 . S
H373 C363 0.930 . S
Zn374 N378 2.020 . S
Zn374 O382 2.019 . S
Zn374 N384 2.119 . S
Zn374 O392 1.975 1_565 S
C375 N376 1.334 . S
C375 N379 1.336 . S
N376 C375 1.334 . S
N376 C377 1.334 1_545 S
C377 N376 1.334 1_565 S
C377 N378 1.336 . S
N378 Zn374 2.020 . S
N378 C377 1.336 . S
N378 N379 1.354 1_565 S
N379 C375 1.336 . S
N379 N378 1.354 1_545 S
N379 Zn383 2.020 . S
C380 O381 1.244 . S
C380 O404 1.257 . S
O381 C380 1.244 . S
O382 Zn374 2.019 . S
O382 C402 1.257 . S
Zn383 N379 2.020 . S
Zn383 O390 1.975 . S
Zn383 N399 2.119 . S
Zn383 O404 2.019 . S
N384 Zn374 2.119 . S
N384 C386 1.334 . S
N384 C387 1.328 . S
C385 C386 1.391 . S
C385 N388 1.329 . S
C385 H406 0.930 . S
C386 N384 1.334 . S
C386 C385 1.391 . S
C386 H393 0.930 . S
C387 N384 1.328 . S
C387 C389 1.392 . S
C387 H394 0.930 . S
N388 C385 1.329 . S
N388 C389 1.331 . S
C389 C387 1.392 . S
C389 N388 1.331 . S
O390 Zn383 1.975 . S
O390 C391 1.252 . S
C391 O390 1.252 . S
C391 O392 1.252 . S
O392 Zn374 1.975 1_545 S
O392 C391 1.252 . S
H393 C386 0.930 . S
H394 C387 0.930 . S
C395 C396 1.392 . S
C395 N399 1.328 . S
C395 H401 0.930 . S
C396 C395 1.392 . S
C396 N400 1.331 . S
C397 C398 1.391 . S
C397 N400 1.329 . S
C397 H407 0.930 . S
C398 C397 1.391 . S
C398 N399 1.334 . S
C398 H405 0.930 . S
N399 Zn383 2.119 . S
N399 C395 1.328 . S
N399 C398 1.334 . S
N400 C396 1.331 . S
N400 C397 1.329 . S
H401 C395 0.930 . S
C402 O382 1.257 . S
C402 O403 1.244 . S
O403 C402 1.244 . S
O404 C380 1.257 . S
O404 Zn383 2.019 . S
H405 C398 0.930 . S
H406 C385 0.930 . S
H407 C397 0.930 . S
C28 C300 2.227 . S
C40 C312 2.227 . S
C368 C96 2.227 . S
C108 C380 2.227 . S
C164 C232 2.227 . S
C176 C244 2.227 . S
C171 C6 2.324 . S
C62 C3 2.324 . S
C74 C35 2.324 . S
C71 C130 2.324 . S
C103 C142 2.324 . S
C139 C198 2.324 . S
C210 C239 2.324 . S
C275 C266 2.324 . S
C307 C278 2.324 . S
C343 C334 2.324 . S
C375 C346 2.324 . S
C402 C207 2.324 . S
C17 C221 2.267 . S
C51 C255 2.267 . S
C289 C85 2.267 . S
C323 C119 2.267 . S
C153 C357 2.267 . S
C187 C391 2.267 . S
C273 C1 4.201 . S
C309 C37 4.201 . S
C341 C69 4.201 . S
C105 C377 4.201 . S
C205 C137 4.201 . S
C241 C173 4.201 . S
C260 C22 2.618 . S
C287 C49 2.618 . S
C328 C90 2.618 . S
C355 C117 2.618 . S
C396 C158 2.618 . S
C219 C185 2.618 . S
C226 C192 2.618 . S
C253 C15 2.618 . S
C56 C294 2.618 . S
C83 C321 2.618 . S
C362 C124 2.618 . S
C151 C389 2.618 . S
