# Generated by pormake.
# Topology kag, (6)-cn, num edge types: 1
# Building blocks:
#     Node 0, Type 0, BuildingBlock: KUMBOL_clean_sbu_1, # of connection points: 6
#     Node 1, Type 0, BuildingBlock: KUMBOL_clean_sbu_1, # of connection points: 6
#     Node 2, Type 0, BuildingBlock: KUMBOL_clean_sbu_1, # of connection points: 6
#     Edge 3, Type (0, 0), BuildingBlock: OJICUG_clean_linker_0, # of connection points: 2
#     Edge 4, Type (0, 0), BuildingBlock: OJICUG_clean_linker_0, # of connection points: 2
#     Edge 5, Type (0, 0), BuildingBlock: OJICUG_clean_linker_0, # of connection points: 2
#     Edge 6, Type (0, 0), BuildingBlock: OJICUG_clean_linker_0, # of connection points: 2
#     Edge 7, Type (0, 0), BuildingBlock: OJICUG_clean_linker_0, # of connection points: 2
#     Edge 8, Type (0, 0), BuildingBlock: OJICUG_clean_linker_0, # of connection points: 2
#     Edge 9, Type (0, 0), BuildingBlock: OJICUG_clean_linker_0, # of connection points: 2
#     Edge 10, Type (0, 0), BuildingBlock: OJICUG_clean_linker_0, # of connection points: 2
#     Edge 11, Type (0, 0), BuildingBlock: OJICUG_clean_linker_0, # of connection points: 2
# Relax obj value: 0.137
# Max RMSD: 0.202
# Mean RMSD: 0.148
data_MOF--net-kag--node1-KUMBOL_clean_sbu_1--edge1-OJICUG_clean_linker_0
_symmetry_space_group_name_H-M    P1
_symmetry_Int_Tables_number       1
_symmetry_cell_setting            triclinic
loop_
_symmetry_equiv_pos_as_xyz
'x, y, z'
_cell_length_a     23.025006
_cell_length_b     32.797366
_cell_length_c     10.789381
_cell_angle_alpha  108.07867
_cell_angle_beta   97.882278
_cell_angle_gamma 93.599601
loop_
_atom_site_label
_atom_site_type_symbol
_atom_site_fract_x
_atom_site_fract_y
_atom_site_fract_z
_atom_type_partial_charge
C0 C 0.13508 0.37589 0.79838 0.0
C1 C 0.18125 0.34794 0.96726 0.0
C2 C 0.14472 0.37653 0.9303 0.0
C3 C 0.20436 0.31716 0.87041 0.0
C4 C 0.16143 0.34659 0.7028 0.0
C5 C 0.19448 0.31648 0.73874 0.0
N6 N 0.09882 0.403 0.76287 0.0
C7 C 0.08708 0.40226 0.63482 0.0
C8 C 0.15162 0.34704 0.57226 0.0
C9 C 0.11422 0.37507 0.53827 0.0
Gd10 Gd 0.06667 0.56187 0.07936 0.0
Gd11 Gd 1.0438 0.43586 0.92391 0.0
N12 N 0.11732 0.40405 0.02106 0.0
C13 C 0.1919 0.34999 0.0999 0.0
C14 C 0.12573 0.40484 0.14963 0.0
C15 C 0.16454 0.37892 0.19161 0.0
H16 H 0.1012 0.42364 0.21986 0.0
H17 H 0.17178 0.38011 0.29388 0.0
H18 H 1.00933 0.5741 0.78334 0.0
H19 H 1.05311 0.41967 0.60469 0.0
H20 H 0.93857 0.61747 0.70915 0.0
H21 H 0.22038 0.32888 0.13212 0.0
H22 H 0.22967 0.29343 0.89656 0.0
H23 H 0.05738 0.57808 0.39852 0.0
H24 H 0.17126 0.32499 0.49628 0.0
H25 H 0.10376 0.37419 0.4366 0.0
H26 H 0.8803 0.70396 0.10623 0.0
H27 H 0.21224 0.29224 0.66472 0.0
H28 H 0.93877 0.67246 0.50661 0.0
H29 H 1.00653 0.62344 0.56648 0.0
N30 N 1.01155 0.59466 0.24026 0.0
C31 C 0.9752 0.6217 0.20466 0.0
C32 C 1.02332 0.59542 0.36832 0.0
C33 C 0.95851 0.65047 0.43069 0.0
C34 C 0.99606 0.62254 0.46479 0.0
C35 C 0.9487 0.65091 0.30014 0.0
H36 H 0.89765 0.70513 0.33807 0.0
N37 N 0.9931 0.59361 0.98205 0.0
C38 C 0.96557 0.62105 0.07272 0.0
C39 C 0.91829 0.64751 0.90303 0.0
C40 C 0.92892 0.64956 0.03567 0.0
C41 C 0.98471 0.59282 0.85349 0.0
C42 C 0.94579 0.61866 0.81142 0.0
O43 O 0.14048 0.46443 0.94159 0.0
O44 O 0.15624 0.53668 0.06921 0.0
O45 O 0.10187 0.62057 0.0521 0.0
O46 O 0.11677 0.61251 0.2459 0.0
O47 O 1.02643 0.46298 0.13337 0.0
O48 O 0.09507 0.52187 0.20677 0.0
O49 O 0.97008 0.53322 0.06233 0.0
O50 O 0.95424 0.46116 0.93286 0.0
O51 O 1.00828 0.37736 0.9519 0.0
O52 O 0.99392 0.38505 0.75757 0.0
O53 O 0.08405 0.5348 0.8699 0.0
O54 O 1.01549 0.47586 0.79642 0.0
C55 C 0.1761 0.50047 0.00536 0.0
C56 C 0.05854 0.49418 0.23041 0.0
C57 C 0.18738 0.65841 0.19904 0.0
C58 C 0.25247 0.71244 0.15984 0.0
C59 C 0.28617 0.67922 0.32518 0.0
C60 C 0.23183 0.65405 0.29575 0.0
C61 C 0.2961 0.7088 0.25902 0.0
C62 C 0.19833 0.68701 0.13044 0.0
C63 C 0.12756 0.63684 0.17509 0.0
C64 C 0.90566 0.68027 0.13244 0.0
C65 C 0.91551 0.68094 0.26411 0.0
H66 H 0.88972 0.66856 0.87073 0.0
C67 C 0.93441 0.49726 0.99763 0.0
C68 C 1.05202 0.50356 0.77284 0.0
C69 C 0.9227 0.3398 0.80499 0.0
C70 C 0.85679 0.28624 0.84422 0.0
C71 C 0.82324 0.32069 0.68194 0.0
C72 C 0.87812 0.34508 0.71016 0.0
C73 C 0.81289 0.29096 0.74736 0.0
C74 C 0.91146 0.31095 0.87254 0.0
C75 C 0.98274 0.36096 0.82883 0.0
H76 H 0.3201 0.67653 0.40135 0.0
H77 H 0.22433 0.63205 0.35033 0.0
H78 H 0.33693 0.72961 0.28775 0.0
H79 H 0.16412 0.68982 0.05462 0.0
H80 H 0.78911 0.32418 0.60747 0.0
H81 H 0.88585 0.3673 0.65645 0.0
H82 H 0.77142 0.27096 0.72 0.0
H83 H 0.94583 0.30747 0.94696 0.0
C84 C 0.7245 0.95396 0.14488 0.0
C85 C 0.75588 0.91077 0.9438 0.0
C86 C 0.7236 0.94374 0.00913 0.0
C87 C 0.7875 0.88776 0.01543 0.0
C88 C 0.75637 0.93105 0.2171 0.0
C89 C 0.78773 0.89786 0.15154 0.0
N90 N 0.6923 0.9853 0.20542 0.0
C91 C 0.69186 0.9966 0.33798 0.0
C92 C 0.75516 0.94185 0.35296 0.0
C93 C 0.72296 0.97494 0.41374 0.0
Gd94 Gd 0.46983 0.97929 0.93399 0.0
Gd95 Gd 0.63998 0.01883 0.07084 0.0
N96 N 0.69166 0.96609 0.94151 0.0
C97 C 0.75615 0.90223 0.80859 0.0
C98 C 0.69589 0.96006 0.812 0.0
C99 C 0.72682 0.92745 0.74302 0.0
H100 H 0.67756 0.98087 0.76099 0.0
H101 H 0.72891 0.92232 0.63973 0.0
H102 H 0.43234 0.01745 0.24389 0.0
H103 H 0.66849 0.02297 0.38547 0.0
H104 H 0.3806 0.07583 0.36459 0.0
H105 H 0.78036 0.87714 0.75486 0.0
H106 H 0.81228 0.86223 0.96652 0.0
H107 H 0.44155 0.97508 0.61923 0.0
H108 H 0.77906 0.92496 0.41181 0.0
H109 H 0.72225 0.98391 0.51887 0.0
H110 H 0.29657 0.1353 0.03684 0.0
H111 H 0.81237 0.8798 0.20527 0.0
H112 H 0.33021 0.07257 0.59191 0.0
H113 H 0.3875 0.01388 0.48538 0.0
N114 N 0.41754 0.01272 0.79907 0.0
C115 C 0.38507 0.04391 0.85933 0.0
C116 C 0.41805 0.00139 0.66653 0.0
C117 C 0.35427 0.05582 0.65098 0.0
C118 C 0.38676 0.02288 0.5905 0.0
C119 C 0.35298 0.06664 0.78681 0.0
H120 H 0.29655 0.11761 0.79809 0.0
N121 N 0.41799 0.03198 0.06298 0.0
C122 C 0.38589 0.05418 0.99507 0.0
C123 C 0.35309 0.09566 0.19534 0.0
C124 C 0.35338 0.08703 0.0601 0.0
C125 C 0.41382 0.03812 0.19258 0.0
C126 C 0.38267 0.07063 0.26126 0.0
O127 O 0.60708 0.95151 0.07232 0.0
O128 O 0.53646 0.931 0.88973 0.0
O129 O 0.40763 0.93588 0.98084 0.0
O130 O 0.40663 0.93402 0.77548 0.0
O131 O 0.60462 0.02025 0.86418 0.0
O132 O 0.5323 0.96293 0.78704 0.0
O133 O 0.50264 0.04671 0.93297 0.0
O134 O 0.57319 0.06691 0.11556 0.0
O135 O 0.70178 0.06238 0.02363 0.0
O136 O 0.70344 0.06406 0.22901 0.0
O137 O 0.50511 0.97789 0.14078 0.0
O138 O 0.57757 0.03516 0.21798 0.0
C139 C 0.57058 0.92105 0.98122 0.0
C140 C 0.56758 0.99223 0.76629 0.0
C141 C 0.33589 0.88331 0.81248 0.0
C142 C 0.28374 0.82208 0.84543 0.0
C143 C 0.25334 0.84117 0.64838 0.0
C144 C 0.29842 0.87539 0.69137 0.0
C145 C 0.24565 0.81468 0.72556 0.0
C146 C 0.32873 0.85636 0.88857 0.0
C147 C 0.38443 0.91805 0.85673 0.0
C148 C 0.32155 0.10986 0.98817 0.0
C149 C 0.32135 0.0997 0.85205 0.0
H150 H 0.32872 0.12067 0.24883 0.0
C151 C 0.53925 0.07705 0.02423 0.0
C152 C 0.54223 0.00587 0.23868 0.0
C153 C 0.77365 0.115 0.19129 0.0
C154 C 0.82542 0.17622 0.15747 0.0
C155 C 0.85641 0.15726 0.3545 0.0
C156 C 0.81138 0.12301 0.31211 0.0
C157 C 0.86378 0.18369 0.27701 0.0
C158 C 0.78047 0.14194 0.11495 0.0
C159 C 0.72523 0.08018 0.14759 0.0
H160 H 0.22441 0.83515 0.55513 0.0
H161 H 0.30395 0.8956 0.63028 0.0
H162 H 0.2106 0.78819 0.69129 0.0
H163 H 0.35816 0.86187 0.98124 0.0
H164 H 0.88556 0.16333 0.44749 0.0
H165 H 0.80613 0.10283 0.37339 0.0
H166 H 0.89884 0.21018 0.31076 0.0
H167 H 0.75082 0.13637 0.02253 0.0
C168 C 0.67737 0.62048 0.25176 0.0
C169 C 0.73685 0.64461 0.11239 0.0
C170 C 0.6892 0.61819 0.12577 0.0
C171 C 0.77087 0.67426 0.22581 0.0
C172 C 0.71505 0.6479 0.36552 0.0
C173 C 0.76188 0.67465 0.35168 0.0
N174 N 0.62759 0.59804 0.26306 0.0
C175 C 0.61239 0.60304 0.38468 0.0
C176 C 0.70228 0.64988 0.49022 0.0
C177 C 0.65052 0.62748 0.49973 0.0
Gd178 Gd 0.54489 0.43316 0.94259 0.0
Gd179 Gd 0.56558 0.56453 0.06009 0.0
N180 N 0.65367 0.59062 0.01652 0.0
C181 C 0.74774 0.6414 0.98521 0.0
C182 C 0.66296 0.58806 0.8923 0.0
C183 C 0.71102 0.61264 0.87477 0.0
H184 H 0.63222 0.56824 0.80719 0.0
H185 H 0.71855 0.61051 0.77621 0.0
H186 H 0.4784 0.42936 0.19564 0.0
H187 H 0.5697 0.59049 0.39464 0.0
H188 H 0.39191 0.38728 0.22674 0.0
H189 H 0.78398 0.66125 0.97104 0.0
H190 H 0.80299 0.69808 0.21734 0.0
H191 H 0.54057 0.40725 0.60803 0.0
H192 H 0.73058 0.67022 0.57966 0.0
H193 H 0.63854 0.6307 0.59565 0.0
H194 H 0.30704 0.29997 0.78564 0.0
H195 H 0.78973 0.69727 0.43785 0.0
H196 H 0.37941 0.32783 0.42325 0.0
H197 H 0.47155 0.36722 0.40712 0.0
N198 N 0.48275 0.3997 0.73975 0.0
C199 C 0.43295 0.3773 0.75112 0.0
C200 C 0.49787 0.39474 0.61809 0.0
C201 C 0.40782 0.34808 0.51266 0.0
C202 C 0.45963 0.3704 0.50308 0.0
C203 C 0.39513 0.35002 0.63739 0.0
H204 H 0.32021 0.30084 0.56511 0.0
N205 N 0.45685 0.40703 0.98632 0.0
C206 C 0.42119 0.37957 0.87712 0.0
C207 C 0.36257 0.35647 0.01775 0.0
C208 C 0.37344 0.35326 0.89055 0.0
C209 C 0.44759 0.40961 0.11057 0.0
C210 C 0.39943 0.38513 0.12817 0.0
O211 O 0.65227 0.53155 0.04624 0.0
O212 O 0.64106 0.4567 0.94728 0.0
O213 O 0.57147 0.38715 0.04958 0.0
O214 O 0.56124 0.36899 0.83539 0.0
O215 O 0.52868 0.52524 0.84877 0.0
O216 O 0.5774 0.46481 0.80224 0.0
O217 O 0.45822 0.46617 0.95651 0.0
O218 O 0.46943 0.54103 0.05563 0.0
O219 O 0.53892 0.61039 0.95276 0.0
O220 O 0.54964 0.62884 0.16694 0.0
O221 O 0.58177 0.47244 0.15394 0.0
O222 O 0.53308 0.53289 0.20048 0.0
C223 C 0.67455 0.49428 1.00016 0.0
C224 C 0.55537 0.49666 0.76863 0.0
C225 C 0.5947 0.31437 0.92367 0.0
C226 C 0.59126 0.24085 0.94103 0.0
C227 C 0.65268 0.26169 0.8004 0.0
C228 C 0.6357 0.30316 0.83736 0.0
C229 C 0.63188 0.2312 0.85354 0.0
C230 C 0.57195 0.28275 0.97569 0.0
C231 C 0.56958 0.35608 0.93821 0.0
C232 C 0.33924 0.32372 0.77715 0.0
C233 C 0.34819 0.32335 0.65127 0.0
H234 H 0.32623 0.33672 0.03195 0.0
C235 C 0.43594 0.50344 0.00269 0.0
C236 C 0.55509 0.50104 0.23408 0.0
C237 C 0.51552 0.68307 0.07797 0.0
C238 C 0.51896 0.7569 0.06305 0.0
C239 C 0.45649 0.73508 0.20018 0.0
C240 C 0.4738 0.69372 0.16269 0.0
C241 C 0.4777 0.76602 0.14912 0.0
C242 C 0.53856 0.71509 0.02785 0.0
C243 C 0.54131 0.64165 0.06391 0.0
H244 H 0.68099 0.25254 0.72722 0.0
H245 H 0.65271 0.32601 0.79337 0.0
H246 H 0.64645 0.19931 0.82315 0.0
H247 H 0.53846 0.29013 0.03826 0.0
H248 H 0.42756 0.74374 0.27211 0.0
H249 H 0.45656 0.67054 0.20524 0.0
H250 H 0.46285 0.79782 0.17988 0.0
H251 H 0.57258 0.70812 0.96658 0.0
C252 C 0.10359 0.51935 0.60031 0.0
C253 C 1.05307 0.50223 0.63461 0.0
H254 H 0.14551 0.52925 0.44495 0.0
C255 C 1.00461 0.48199 0.53471 0.0
H256 H 0.14171 0.53484 0.67498 0.0
C257 C 1.00696 0.47842 0.40296 0.0
C258 C 0.05748 0.49553 0.36866 0.0
H259 H 0.96504 0.46852 0.55832 0.0
H260 H 0.96884 0.46292 0.32829 0.0
C261 C 0.10594 0.51577 0.46856 0.0
C262 C 0.5683 0.03893 0.48558 0.0
C263 C 0.54677 0.00274 0.374 0.0
H264 H 0.59263 0.0638 0.69661 0.0
C265 C 0.53321 0.96285 0.39237 0.0
H266 H 0.57918 0.0701 0.47455 0.0
C267 C 0.54158 0.95914 0.51935 0.0
C268 C 0.56307 0.99534 0.63095 0.0
H269 H 0.51723 0.93427 0.30832 0.0
H270 H 0.5307 0.92797 0.53039 0.0
C271 C 0.57665 0.03522 0.61256 0.0
C272 C 0.59394 0.47474 0.55279 0.0
C273 C 0.55552 0.49789 0.63196 0.0
H274 H 0.62358 0.45721 0.36547 0.0
C275 C 0.51709 0.52225 0.57919 0.0
H276 H 0.62463 0.45606 0.5908 0.0
C277 C 0.51651 0.52295 0.44992 0.0
C278 C 0.55493 0.49981 0.37075 0.0
H279 H 0.48688 0.54048 0.63724 0.0
H280 H 0.48582 0.54162 0.4119 0.0
C281 C 0.59336 0.47544 0.42352 0.0
C282 C 0.28207 0.53889 0.07024 0.0
C283 C 0.2426 0.50104 0.00385 0.0
H284 H 0.37159 0.5696 0.12263 0.0
C285 C 0.26792 0.46428 0.9352 0.0
H286 H 0.26537 0.56827 0.12375 0.0
C287 C 0.32947 0.46526 0.9334 0.0
C288 C 0.36916 0.50276 1.00163 0.0
H289 H 0.24015 0.43451 0.88113 0.0
H290 H 0.34557 0.43647 0.87584 0.0
C291 C 0.34374 0.53972 0.06931 0.0
C292 C 0.7873 0.22781 0.04771 0.0
C293 C 0.83255 0.20363 0.0751 0.0
H294 H 0.76098 0.27466 0.95678 0.0
C295 C 0.88427 0.20487 0.02128 0.0
H296 H 0.74701 0.22705 0.08877 0.0
C297 C 0.89105 0.23043 0.94157 0.0
C298 C 0.84667 0.25583 0.91701 0.0
H299 H 0.91914 0.18581 0.04016 0.0
H300 H 0.93134 0.23069 0.90029 0.0
C301 C 0.79473 0.25428 0.97058 0.0
C302 C 0.59791 0.86511 0.09067 0.0
C303 C 0.5638 0.87605 0.98914 0.0
H304 H 0.61167 0.8182 0.19076 0.0
C305 C 0.52023 0.84426 0.90085 0.0
H306 H 0.63129 0.88864 0.16177 0.0
C307 C 0.50933 0.80367 0.91738 0.0
C308 C 0.54216 0.79339 0.0214 0.0
H309 H 0.49258 0.85135 0.82218 0.0
H310 H 0.47291 0.78116 0.85318 0.0
C311 C 0.58714 0.82444 0.10664 0.0
C312 C 0.82845 0.45881 0.93297 0.0
C313 C 0.8679 0.49668 0.99914 0.0
H314 H 0.73894 0.42807 0.88073 0.0
C315 C 0.84255 0.53347 0.06754 0.0
H316 H 0.84517 0.42941 0.87971 0.0
C317 C 0.78099 0.53249 0.06927 0.0
C318 C 0.74133 0.49496 1.00126 0.0
H319 H 0.87029 0.56326 0.12144 0.0
H320 H 0.76487 0.56131 0.12659 0.0
C321 C 0.76677 0.45798 0.93386 0.0
C322 C 0.21753 0.76743 0.05964 0.0
C323 C 0.26229 0.74257 0.08605 0.0
H324 H 0.18922 0.81163 0.95957 0.0
C325 C 0.31448 0.74441 0.03359 0.0
H326 H 0.17699 0.76686 0.09986 0.0
C327 C 0.32192 0.77078 0.95623 0.0
C328 C 0.27641 0.79457 0.92738 0.0
H329 H 0.34844 0.72433 0.04857 0.0
H330 H 0.36248 0.77183 0.91629 0.0
C331 C 0.22433 0.79291 0.97967 0.0
C332 C 0.60311 0.19355 0.08455 0.0
C333 C 0.56842 0.20473 0.98469 0.0
H334 H 0.6211 0.14522 0.1763 0.0
C335 C 0.52141 0.17461 0.90378 0.0
H336 H 0.641 0.2153 0.14515 0.0
C337 C 0.51052 0.13392 0.91959 0.0
C338 C 0.54641 0.12209 0.01681 0.0
H339 H 0.4953 0.18153 0.82272 0.0
H340 H 0.47549 0.11108 0.85166 0.0
C341 C 0.59202 0.15301 0.10113 0.0
loop_
_geom_bond_atom_site_label_1
_geom_bond_atom_site_label_2
_geom_bond_distance
_geom_bond_site_symmetry_2
_ccdc_geom_bond_type
C0 C2 1.422 . S
C0 C4 1.415 . S
C0 N6 1.369 . S
C1 C2 1.421 . S
C1 C3 1.417 . S
C1 C13 1.422 1_556 S
C2 C0 1.422 . S
C2 C1 1.421 . S
C2 N12 1.359 . S
C3 C1 1.417 . S
C3 C5 1.329 . S
C3 H22 0.930 . S
C4 C0 1.415 . S
C4 C5 1.437 . S
C4 C8 1.413 . S
C5 C3 1.329 . S
C5 C4 1.437 . S
C5 H27 0.929 . S
N6 C0 1.369 . S
N6 C7 1.338 . S
N6 Gd11 2.622 1_455 S
C7 N6 1.338 . S
C7 C9 1.378 . S
C7 H19 0.929 1_455 S
C8 C4 1.413 . S
C8 C9 1.348 . S
C8 H24 0.931 . S
C9 C7 1.378 . S
C9 C8 1.348 . S
C9 H25 0.930 . S
Gd10 N30 2.622 1_455 S
Gd10 N37 2.570 1_455 S
Gd10 O44 2.353 . S
Gd10 O45 2.468 1_554 S
Gd10 O46 2.427 . S
Gd10 O48 2.388 . S
Gd10 O49 2.386 1_455 S
Gd10 O53 2.307 1_454 S
Gd10 C63 2.805 . S
Gd11 N6 2.622 1_655 S
Gd11 N12 2.570 1_655 S
Gd11 O43 2.386 1_655 S
Gd11 O47 2.307 1_656 S
Gd11 O50 2.353 . S
Gd11 O51 2.468 1_556 S
Gd11 O52 2.427 . S
Gd11 O54 2.388 . S
Gd11 C75 2.805 . S
N12 C2 1.359 . S
N12 Gd11 2.570 1_455 S
N12 C14 1.343 1_556 S
C13 C1 1.422 1_554 S
C13 C15 1.321 . S
C13 H21 0.931 . S
C14 N12 1.343 1_554 S
C14 C15 1.390 . S
C14 H16 0.931 . S
C15 C13 1.321 . S
C15 C14 1.390 . S
C15 H17 0.930 . S
H16 C14 0.931 . S
H17 C15 0.930 . S
H18 C41 0.931 . S
H19 C7 0.929 1_655 S
H20 C42 0.930 . S
H21 C13 0.931 . S
H22 C3 0.930 . S
H23 C32 0.929 1_455 S
H24 C8 0.931 . S
H25 C9 0.930 . S
H26 C64 0.930 . S
H27 C5 0.929 . S
H28 C33 0.931 . S
H29 C34 0.930 . S
N30 Gd10 2.622 1_655 S
N30 C31 1.369 . S
N30 C32 1.338 . S
C31 N30 1.369 . S
C31 C35 1.415 . S
C31 C38 1.422 . S
C32 H23 0.929 1_655 S
C32 N30 1.338 . S
C32 C34 1.378 . S
C33 H28 0.931 . S
C33 C34 1.348 . S
C33 C35 1.413 . S
C34 H29 0.930 . S
C34 C32 1.378 . S
C34 C33 1.348 . S
C35 C31 1.415 . S
C35 C33 1.413 . S
C35 C65 1.437 . S
H36 C65 0.929 . S
N37 Gd10 2.570 1_655 S
N37 C38 1.359 . S
N37 C41 1.343 1_554 S
C38 C31 1.422 . S
C38 N37 1.359 . S
C38 C40 1.421 . S
C39 C40 1.422 1_556 S
C39 C42 1.321 . S
C39 H66 0.931 . S
C40 C38 1.421 . S
C40 C39 1.422 1_554 S
C40 C64 1.417 . S
C41 H18 0.931 . S
C41 N37 1.343 1_556 S
C41 C42 1.390 . S
C42 H20 0.930 . S
C42 C39 1.321 . S
C42 C41 1.390 . S
O43 Gd11 2.386 1_455 S
O43 C55 1.265 1_556 S
O44 Gd10 2.353 . S
O44 C55 1.242 . S
O45 Gd10 2.468 1_556 S
O45 C63 1.263 1_556 S
O46 Gd10 2.427 . S
O46 C63 1.252 . S
O47 Gd11 2.307 1_454 S
O47 C56 1.261 . S
O48 Gd10 2.388 . S
O48 C56 1.252 . S
O49 Gd10 2.386 1_655 S
O49 C67 1.265 1_554 S
O50 Gd11 2.353 . S
O50 C67 1.242 . S
O51 Gd11 2.468 1_554 S
O51 C75 1.263 1_554 S
O52 Gd11 2.427 . S
O52 C75 1.252 . S
O53 Gd10 2.307 1_656 S
O53 C68 1.261 . S
O54 Gd11 2.388 . S
O54 C68 1.252 . S
C55 O43 1.265 1_554 S
C55 O44 1.242 . S
C56 O47 1.261 . S
C56 O48 1.252 . S
C57 C60 1.394 . S
C57 C62 1.370 . S
C57 C63 1.500 . S
C58 C61 1.383 . S
C58 C62 1.395 . S
C59 C60 1.396 . S
C59 C61 1.365 . S
C59 H76 0.929 . S
C60 C57 1.394 . S
C60 C59 1.396 . S
C60 H77 0.930 . S
C61 C58 1.383 . S
C61 C59 1.365 . S
C61 H78 0.931 . S
C62 C57 1.370 . S
C62 C58 1.395 . S
C62 H79 0.930 1_554 S
C63 Gd10 2.805 . S
C63 O45 1.263 1_554 S
C63 O46 1.252 . S
C63 C57 1.500 . S
C64 H26 0.930 . S
C64 C40 1.417 . S
C64 C65 1.329 . S
C65 C35 1.437 . S
C65 H36 0.929 . S
C65 C64 1.329 . S
H66 C39 0.931 . S
C67 O49 1.265 1_556 S
C67 O50 1.242 . S
C68 O53 1.261 . S
C68 O54 1.252 . S
C69 C72 1.394 . S
C69 C74 1.370 . S
C69 C75 1.500 . S
C70 C73 1.383 . S
C70 C74 1.395 . S
C71 C72 1.396 . S
C71 C73 1.365 . S
C71 H80 0.929 . S
C72 C69 1.394 . S
C72 C71 1.396 . S
C72 H81 0.930 . S
C73 C70 1.383 . S
C73 C71 1.365 . S
C73 H82 0.931 . S
C74 C69 1.370 . S
C74 C70 1.395 . S
C74 H83 0.930 1_556 S
C75 Gd11 2.805 . S
C75 O51 1.263 1_556 S
C75 O52 1.252 . S
C75 C69 1.500 . S
H76 C59 0.929 . S
H77 C60 0.930 . S
H78 C61 0.931 . S
H79 C62 0.930 1_556 S
H80 C71 0.929 . S
H81 C72 0.930 . S
H82 C73 0.931 . S
H83 C74 0.930 1_554 S
C84 C86 1.422 . S
C84 C88 1.415 . S
C84 N90 1.369 1_565 S
C85 C86 1.421 1_556 S
C85 C87 1.417 1_556 S
C85 C97 1.422 . S
C86 C84 1.422 . S
C86 C85 1.421 1_554 S
C86 N96 1.359 1_554 S
C87 C85 1.417 1_554 S
C87 C89 1.329 . S
C87 H106 0.930 . S
C88 C84 1.415 . S
C88 C89 1.437 . S
C88 C92 1.413 . S
C89 C87 1.329 . S
C89 C88 1.437 . S
C89 H111 0.929 . S
N90 C84 1.369 1_545 S
N90 C91 1.338 . S
N90 Gd95 2.622 . S
C91 N90 1.338 . S
C91 C93 1.378 . S
C91 H103 0.929 . S
C92 C88 1.413 . S
C92 C93 1.348 1_565 S
C92 H108 0.931 . S
C93 C91 1.378 . S
C93 C92 1.348 1_545 S
C93 H109 0.930 . S
Gd94 N114 2.622 . S
Gd94 N121 2.570 1_566 S
Gd94 O128 2.353 . S
Gd94 O129 2.468 1_556 S
Gd94 O130 2.427 . S
Gd94 O132 2.388 . S
Gd94 O133 2.386 1_565 S
Gd94 O137 2.307 1_566 S
Gd94 C147 2.805 . S
Gd95 N90 2.622 . S
Gd95 N96 2.570 1_544 S
Gd95 O127 2.386 1_545 S
Gd95 O131 2.307 1_544 S
Gd95 O134 2.353 . S
Gd95 O135 2.468 1_554 S
Gd95 O136 2.427 . S
Gd95 O138 2.388 . S
Gd95 C159 2.805 . S
N96 C86 1.359 1_556 S
N96 Gd95 2.570 1_566 S
N96 C98 1.343 . S
C97 C85 1.422 . S
C97 C99 1.321 . S
C97 H105 0.931 . S
C98 N96 1.343 . S
C98 C99 1.390 . S
C98 H100 0.931 . S
C99 C97 1.321 . S
C99 C98 1.390 . S
C99 H101 0.930 . S
H100 C98 0.931 . S
H101 C99 0.930 . S
H102 C125 0.931 . S
H103 C91 0.929 . S
H104 C126 0.930 . S
H105 C97 0.931 . S
H106 C87 0.930 . S
H107 C116 0.929 . S
H108 C92 0.931 . S
H109 C93 0.930 . S
H110 C148 0.930 . S
H111 C89 0.929 . S
H112 C117 0.931 . S
H113 C118 0.930 . S
N114 Gd94 2.622 . S
N114 C115 1.369 1_565 S
N114 C116 1.338 . S
C115 N114 1.369 1_545 S
C115 C119 1.415 . S
C115 C122 1.422 . S
C116 H107 0.929 . S
C116 N114 1.338 . S
C116 C118 1.378 . S
C117 H112 0.931 . S
C117 C118 1.348 1_545 S
C117 C119 1.413 . S
C118 H113 0.930 . S
C118 C116 1.378 . S
C118 C117 1.348 1_565 S
C119 C115 1.415 . S
C119 C117 1.413 . S
C119 C149 1.437 . S
H120 C149 0.929 . S
N121 Gd94 2.570 1_544 S
N121 C122 1.359 1_554 S
N121 C125 1.343 . S
C122 C115 1.422 . S
C122 N121 1.359 1_556 S
C122 C124 1.421 1_556 S
C123 C124 1.422 . S
C123 C126 1.321 . S
C123 H150 0.931 . S
C124 C122 1.421 1_554 S
C124 C123 1.422 . S
C124 C148 1.417 1_554 S
C125 H102 0.931 . S
C125 N121 1.343 . S
C125 C126 1.390 . S
C126 H104 0.930 . S
C126 C123 1.321 . S
C126 C125 1.390 . S
O127 Gd95 2.386 1_565 S
O127 C139 1.265 1_554 S
O128 Gd94 2.353 . S
O128 C139 1.242 . S
O129 Gd94 2.468 1_554 S
O129 C147 1.263 1_554 S
O130 Gd94 2.427 . S
O130 C147 1.252 . S
O131 Gd95 2.307 1_566 S
O131 C140 1.261 . S
O132 Gd94 2.388 . S
O132 C140 1.252 . S
O133 Gd94 2.386 1_545 S
O133 C151 1.265 1_556 S
O134 Gd95 2.353 . S
O134 C151 1.242 . S
O135 Gd95 2.468 1_556 S
O135 C159 1.263 1_556 S
O136 Gd95 2.427 . S
O136 C159 1.252 . S
O137 Gd94 2.307 1_544 S
O137 C152 1.261 . S
O138 Gd95 2.388 . S
O138 C152 1.252 . S
C139 O127 1.265 1_556 S
C139 O128 1.242 . S
C140 O131 1.261 . S
C140 O132 1.252 . S
C141 C144 1.394 . S
C141 C146 1.370 1_556 S
C141 C147 1.500 . S
C142 C145 1.383 1_554 S
C142 C146 1.395 . S
C143 C144 1.396 . S
C143 C145 1.365 . S
C143 H160 0.929 . S
C144 C141 1.394 . S
C144 C143 1.396 . S
C144 H161 0.930 . S
C145 C142 1.383 1_556 S
C145 C143 1.365 . S
C145 H162 0.931 . S
C146 C141 1.370 1_554 S
C146 C142 1.395 . S
C146 H163 0.930 . S
C147 Gd94 2.805 . S
C147 O129 1.263 1_556 S
C147 O130 1.252 . S
C147 C141 1.500 . S
C148 H110 0.930 . S
C148 C124 1.417 1_556 S
C148 C149 1.329 . S
C149 C119 1.437 . S
C149 H120 0.929 . S
C149 C148 1.329 . S
H150 C123 0.931 . S
C151 O133 1.265 1_554 S
C151 O134 1.242 . S
C152 O137 1.261 . S
C152 O138 1.252 . S
C153 C156 1.394 . S
C153 C158 1.370 1_554 S
C153 C159 1.500 . S
C154 C157 1.383 1_556 S
C154 C158 1.395 . S
C155 C156 1.396 . S
C155 C157 1.365 . S
C155 H164 0.929 . S
C156 C153 1.394 . S
C156 C155 1.396 . S
C156 H165 0.930 . S
C157 C154 1.383 1_554 S
C157 C155 1.365 . S
C157 H166 0.931 . S
C158 C153 1.370 1_556 S
C158 C154 1.395 . S
C158 H167 0.930 . S
C159 Gd95 2.805 . S
C159 O135 1.263 1_554 S
C159 O136 1.252 . S
C159 C153 1.500 . S
H160 C143 0.929 . S
H161 C144 0.930 . S
H162 C145 0.931 . S
H163 C146 0.930 . S
H164 C155 0.929 . S
H165 C156 0.930 . S
H166 C157 0.931 . S
H167 C158 0.930 . S
C168 C170 1.422 . S
C168 C172 1.415 . S
C168 N174 1.369 . S
C169 C170 1.421 . S
C169 C171 1.417 . S
C169 C181 1.422 1_554 S
C170 C168 1.422 . S
C170 C169 1.421 . S
C170 N180 1.359 . S
C171 C169 1.417 . S
C171 C173 1.329 . S
C171 H190 0.930 . S
C172 C168 1.415 . S
C172 C173 1.437 . S
C172 C176 1.413 . S
C173 C171 1.329 . S
C173 C172 1.437 . S
C173 H195 0.929 . S
N174 C168 1.369 . S
N174 C175 1.338 . S
N174 Gd179 2.622 . S
C175 N174 1.338 . S
C175 C177 1.378 . S
C175 H187 0.929 . S
C176 C172 1.413 . S
C176 C177 1.348 . S
C176 H192 0.931 . S
C177 C175 1.378 . S
C177 C176 1.348 . S
C177 H193 0.930 . S
Gd178 N198 2.622 . S
Gd178 N205 2.570 . S
Gd178 O212 2.353 . S
Gd178 O213 2.468 1_556 S
Gd178 O214 2.427 . S
Gd178 O216 2.388 . S
Gd178 O217 2.386 . S
Gd178 O221 2.307 1_556 S
Gd178 C231 2.805 . S
Gd179 N174 2.622 . S
Gd179 N180 2.570 . S
Gd179 O211 2.386 . S
Gd179 O215 2.307 1_554 S
Gd179 O218 2.353 . S
Gd179 O219 2.468 1_554 S
Gd179 O220 2.427 . S
Gd179 O222 2.388 . S
Gd179 C243 2.805 . S
N180 C170 1.359 . S
N180 Gd179 2.570 . S
N180 C182 1.343 1_554 S
C181 C169 1.422 1_556 S
C181 C183 1.321 . S
C181 H189 0.931 . S
C182 N180 1.343 1_556 S
C182 C183 1.390 . S
C182 H184 0.931 . S
C183 C181 1.321 . S
C183 C182 1.390 . S
C183 H185 0.930 . S
H184 C182 0.931 . S
H185 C183 0.930 . S
H186 C209 0.931 . S
H187 C175 0.929 . S
H188 C210 0.930 . S
H189 C181 0.931 . S
H190 C171 0.930 . S
H191 C200 0.929 . S
H192 C176 0.931 . S
H193 C177 0.930 . S
H194 C232 0.930 . S
H195 C173 0.929 . S
H196 C201 0.931 . S
H197 C202 0.930 . S
N198 Gd178 2.622 . S
N198 C199 1.369 . S
N198 C200 1.338 . S
C199 N198 1.369 . S
C199 C203 1.415 . S
C199 C206 1.422 . S
C200 H191 0.929 . S
C200 N198 1.338 . S
C200 C202 1.378 . S
C201 H196 0.931 . S
C201 C202 1.348 . S
C201 C203 1.413 . S
C202 H197 0.930 . S
C202 C200 1.378 . S
C202 C201 1.348 . S
C203 C199 1.415 . S
C203 C201 1.413 . S
C203 C233 1.437 . S
H204 C233 0.929 . S
N205 Gd178 2.570 . S
N205 C206 1.359 . S
N205 C209 1.343 1_556 S
C206 C199 1.422 . S
C206 N205 1.359 . S
C206 C208 1.421 . S
C207 C208 1.422 1_554 S
C207 C210 1.321 . S
C207 H234 0.931 . S
C208 C206 1.421 . S
C208 C207 1.422 1_556 S
C208 C232 1.417 . S
C209 H186 0.931 . S
C209 N205 1.343 1_554 S
C209 C210 1.390 . S
C210 H188 0.930 . S
C210 C207 1.321 . S
C210 C209 1.390 . S
O211 Gd179 2.386 . S
O211 C223 1.265 . S
O212 Gd178 2.353 . S
O212 C223 1.242 1_556 S
O213 Gd178 2.468 1_554 S
O213 C231 1.263 1_554 S
O214 Gd178 2.427 . S
O214 C231 1.252 . S
O215 Gd179 2.307 1_556 S
O215 C224 1.261 . S
O216 Gd178 2.388 . S
O216 C224 1.252 . S
O217 Gd178 2.386 . S
O217 C235 1.265 . S
O218 Gd179 2.353 . S
O218 C235 1.242 1_554 S
O219 Gd179 2.468 1_556 S
O219 C243 1.263 1_556 S
O220 Gd179 2.427 . S
O220 C243 1.252 . S
O221 Gd178 2.307 1_554 S
O221 C236 1.261 . S
O222 Gd179 2.388 . S
O222 C236 1.252 . S
C223 O211 1.265 . S
C223 O212 1.242 1_554 S
C224 O215 1.261 . S
C224 O216 1.252 . S
C225 C228 1.394 . S
C225 C230 1.367 1_556 S
C225 C231 1.500 . S
C226 C229 1.383 . S
C226 C230 1.396 1_556 S
C227 C228 1.396 . S
C227 C229 1.365 . S
C227 H244 0.929 . S
C228 C225 1.394 . S
C228 C227 1.396 . S
C228 H245 0.930 . S
C229 C226 1.383 . S
C229 C227 1.365 . S
C229 H246 0.931 . S
C230 C225 1.367 1_554 S
C230 C226 1.396 1_554 S
C230 H247 0.932 . S
C231 Gd178 2.805 . S
C231 O213 1.263 1_556 S
C231 O214 1.252 . S
C231 C225 1.500 . S
C232 H194 0.930 . S
C232 C208 1.417 . S
C232 C233 1.329 . S
C233 C203 1.437 . S
C233 H204 0.929 . S
C233 C232 1.329 . S
H234 C207 0.931 . S
C235 O217 1.265 . S
C235 O218 1.242 1_556 S
C236 O221 1.261 . S
C236 O222 1.252 . S
C237 C240 1.394 . S
C237 C242 1.370 1_554 S
C237 C243 1.500 . S
C238 C241 1.383 . S
C238 C242 1.395 1_554 S
C239 C240 1.396 . S
C239 C241 1.365 . S
C239 H248 0.929 . S
C240 C237 1.394 . S
C240 C239 1.396 . S
C240 H249 0.930 . S
C241 C238 1.383 . S
C241 C239 1.365 . S
C241 H250 0.931 . S
C242 C237 1.370 1_556 S
C242 C238 1.395 1_556 S
C242 H251 0.931 . S
C243 Gd179 2.805 . S
C243 O219 1.263 1_554 S
C243 O220 1.252 . S
C243 C237 1.500 . S
H244 C227 0.929 . S
H245 C228 0.930 . S
H246 C229 0.931 . S
H247 C230 0.932 . S
H248 C239 0.929 . S
H249 C240 0.930 . S
H250 C241 0.931 . S
H251 C242 0.931 . S
C252 C253 1.387 1_455 S
C252 H256 0.950 . S
C252 C261 1.390 . S
C253 C252 1.387 1_655 S
C253 C255 1.387 . S
H254 C261 0.950 . S
C255 C253 1.387 . S
C255 C257 1.390 . S
C255 H259 0.950 . S
H256 C252 0.950 . S
C257 C255 1.390 . S
C257 C258 1.387 1_655 S
C257 H260 0.950 . S
C258 C257 1.387 1_455 S
C258 C261 1.387 . S
H259 C255 0.950 . S
H260 C257 0.950 . S
C261 C252 1.390 . S
C261 H254 0.950 . S
C261 C258 1.387 . S
C262 C263 1.387 . S
C262 H266 0.950 . S
C262 C271 1.390 . S
C263 C262 1.387 . S
C263 C265 1.387 1_545 S
H264 C271 0.950 . S
C265 C263 1.387 1_565 S
C265 C267 1.390 . S
C265 H269 0.950 . S
H266 C262 0.950 . S
C267 C265 1.390 . S
C267 C268 1.387 . S
C267 H270 0.950 . S
C268 C267 1.387 . S
C268 C271 1.387 1_565 S
H269 C265 0.950 . S
H270 C267 0.950 . S
C271 C262 1.390 . S
C271 H264 0.950 . S
C271 C268 1.387 1_545 S
C272 C273 1.387 . S
C272 H276 0.950 . S
C272 C281 1.390 . S
C273 C272 1.387 . S
C273 C275 1.387 . S
H274 C281 0.950 . S
C275 C273 1.387 . S
C275 C277 1.390 . S
C275 H279 0.950 . S
H276 C272 0.950 . S
C277 C275 1.390 . S
C277 C278 1.387 . S
C277 H280 0.950 . S
C278 C277 1.387 . S
C278 C281 1.387 . S
H279 C275 0.950 . S
H280 C277 0.950 . S
C281 C272 1.390 . S
C281 H274 0.950 . S
C281 C278 1.387 . S
C282 C283 1.387 . S
C282 H286 0.950 . S
C282 C291 1.390 . S
C283 C282 1.387 . S
C283 C285 1.387 1_554 S
H284 C291 0.950 . S
C285 C283 1.387 1_556 S
C285 C287 1.390 . S
C285 H289 0.950 . S
H286 C282 0.950 . S
C287 C285 1.390 . S
C287 C288 1.387 . S
C287 H290 0.950 . S
C288 C287 1.387 . S
C288 C291 1.387 1_556 S
H289 C285 0.950 . S
H290 C287 0.950 . S
C291 C282 1.390 . S
C291 H284 0.950 . S
C291 C288 1.387 1_554 S
C292 C293 1.387 1_554 S
C292 H296 0.950 . S
C292 C301 1.390 . S
C293 C292 1.387 1_556 S
C293 C295 1.387 . S
H294 C301 0.950 . S
C295 C293 1.387 . S
C295 C297 1.390 . S
C295 H299 0.950 . S
H296 C292 0.950 . S
C297 C295 1.390 . S
C297 C298 1.387 1_556 S
C297 H300 0.950 . S
C298 C297 1.387 1_554 S
C298 C301 1.387 . S
H299 C295 0.950 . S
H300 C297 0.950 . S
C301 C292 1.390 . S
C301 H294 0.950 . S
C301 C298 1.387 . S
C302 C303 1.387 1_554 S
C302 H306 0.950 . S
C302 C311 1.390 . S
C303 C302 1.387 1_556 S
C303 C305 1.387 . S
H304 C311 0.950 . S
C305 C303 1.387 . S
C305 C307 1.390 . S
C305 H309 0.950 . S
H306 C302 0.950 . S
C307 C305 1.390 . S
C307 C308 1.387 . S
C307 H310 0.950 . S
C308 C307 1.387 . S
C308 C311 1.387 1_556 S
H309 C305 0.950 . S
H310 C307 0.950 . S
C311 C302 1.390 . S
C311 H304 0.950 . S
C311 C308 1.387 1_554 S
C312 C313 1.387 . S
C312 H316 0.950 . S
C312 C321 1.390 . S
C313 C312 1.387 . S
C313 C315 1.387 1_556 S
H314 C321 0.950 . S
C315 C313 1.387 1_554 S
C315 C317 1.390 . S
C315 H319 0.950 . S
H316 C312 0.950 . S
C317 C315 1.390 . S
C317 C318 1.387 . S
C317 H320 0.950 . S
C318 C317 1.387 . S
C318 C321 1.387 1_554 S
H319 C315 0.950 . S
H320 C317 0.950 . S
C321 C312 1.390 . S
C321 H314 0.950 . S
C321 C318 1.387 1_556 S
C322 C323 1.387 1_554 S
C322 H326 0.950 . S
C322 C331 1.390 . S
C323 C322 1.387 1_556 S
C323 C325 1.387 . S
H324 C331 0.950 . S
C325 C323 1.387 . S
C325 C327 1.390 . S
C325 H329 0.950 . S
H326 C322 0.950 . S
C327 C325 1.390 . S
C327 C328 1.387 1_556 S
C327 H330 0.950 . S
C328 C327 1.387 1_554 S
C328 C331 1.387 . S
H329 C325 0.950 . S
H330 C327 0.950 . S
C331 C322 1.390 . S
C331 H324 0.950 . S
C331 C328 1.387 . S
C332 C333 1.387 . S
C332 H336 0.950 . S
C332 C341 1.390 . S
C333 C332 1.387 . S
C333 C335 1.387 1_554 S
H334 C341 0.950 . S
C335 C333 1.387 1_556 S
C335 C337 1.390 . S
C335 H339 0.950 . S
H336 C332 0.950 . S
C337 C335 1.390 . S
C337 C338 1.387 1_556 S
C337 H340 0.950 . S
C338 C337 1.387 1_554 S
C338 C341 1.387 . S
H339 C335 0.950 . S
H340 C337 0.950 . S
C341 C332 1.390 . S
C341 H334 0.950 . S
C341 C338 1.387 . S
C253 C68 1.489 . S
C258 C56 1.489 . S
C263 C152 1.534 . S
C268 C140 1.534 . S
C273 C224 1.473 . S
C278 C236 1.473 . S
C283 C55 2.374 . S
C288 C235 2.389 . S
C293 C154 0.843 . S
C298 C70 0.845 1_554 S
C303 C139 1.797 . S
C308 C238 1.690 1_556 S
C313 C67 2.375 . S
C318 C223 2.395 . S
C323 C58 0.846 1_556 S
C328 C142 0.844 . S
C333 C226 1.687 1_554 S
C338 C151 1.795 . S
