# Generated by pormake.
# Topology yfm, (5)-cn, num edge types: 1
# Building blocks:
#     Node 0, Type 0, BuildingBlock: XOMCOT_clean_sbu_0, # of connection points: 5
#     Node 1, Type 0, BuildingBlock: XOMCOT_clean_sbu_0, # of connection points: 5
#     Node 2, Type 0, BuildingBlock: XOMCOT_clean_sbu_0, # of connection points: 5
#     Node 3, Type 0, BuildingBlock: XOMCOT_clean_sbu_0, # of connection points: 5
#     Node 4, Type 0, BuildingBlock: XOMCOT_clean_sbu_0, # of connection points: 5
#     Node 5, Type 0, BuildingBlock: XOMCOT_clean_sbu_0, # of connection points: 5
#     Node 6, Type 0, BuildingBlock: XOMCOT_clean_sbu_0, # of connection points: 5
#     Node 7, Type 0, BuildingBlock: XOMCOT_clean_sbu_0, # of connection points: 5
#     Node 8, Type 0, BuildingBlock: XOMCOT_clean_sbu_0, # of connection points: 5
#     Node 9, Type 0, BuildingBlock: XOMCOT_clean_sbu_0, # of connection points: 5
#     Node 10, Type 0, BuildingBlock: XOMCOT_clean_sbu_0, # of connection points: 5
#     Node 11, Type 0, BuildingBlock: XOMCOT_clean_sbu_0, # of connection points: 5
#     Node 12, Type 0, BuildingBlock: XOMCOT_clean_sbu_0, # of connection points: 5
#     Node 13, Type 0, BuildingBlock: XOMCOT_clean_sbu_0, # of connection points: 5
#     Node 14, Type 0, BuildingBlock: XOMCOT_clean_sbu_0, # of connection points: 5
#     Node 15, Type 0, BuildingBlock: XOMCOT_clean_sbu_0, # of connection points: 5
#     Node 16, Type 0, BuildingBlock: XOMCOT_clean_sbu_0, # of connection points: 5
#     Node 17, Type 0, BuildingBlock: XOMCOT_clean_sbu_0, # of connection points: 5
#     Node 18, Type 0, BuildingBlock: XOMCOT_clean_sbu_0, # of connection points: 5
#     Node 19, Type 0, BuildingBlock: XOMCOT_clean_sbu_0, # of connection points: 5
#     Node 20, Type 0, BuildingBlock: XOMCOT_clean_sbu_0, # of connection points: 5
#     Node 21, Type 0, BuildingBlock: XOMCOT_clean_sbu_0, # of connection points: 5
#     Node 22, Type 0, BuildingBlock: XOMCOT_clean_sbu_0, # of connection points: 5
#     Node 23, Type 0, BuildingBlock: XOMCOT_clean_sbu_0, # of connection points: 5
#     Node 24, Type 0, BuildingBlock: XOMCOT_clean_sbu_0, # of connection points: 5
#     Node 25, Type 0, BuildingBlock: XOMCOT_clean_sbu_0, # of connection points: 5
#     Node 26, Type 0, BuildingBlock: XOMCOT_clean_sbu_0, # of connection points: 5
#     Node 27, Type 0, BuildingBlock: XOMCOT_clean_sbu_0, # of connection points: 5
#     Node 28, Type 0, BuildingBlock: XOMCOT_clean_sbu_0, # of connection points: 5
#     Node 29, Type 0, BuildingBlock: XOMCOT_clean_sbu_0, # of connection points: 5
#     Node 30, Type 0, BuildingBlock: XOMCOT_clean_sbu_0, # of connection points: 5
#     Node 31, Type 0, BuildingBlock: XOMCOT_clean_sbu_0, # of connection points: 5
#     Edge 32, Type (0, 0), BuildingBlock: AJUNOK_clean_linker_0, # of connection points: 2
#     Edge 33, Type (0, 0), BuildingBlock: AJUNOK_clean_linker_0, # of connection points: 2
#     Edge 34, Type (0, 0), BuildingBlock: AJUNOK_clean_linker_0, # of connection points: 2
#     Edge 35, Type (0, 0), BuildingBlock: AJUNOK_clean_linker_0, # of connection points: 2
#     Edge 36, Type (0, 0), BuildingBlock: AJUNOK_clean_linker_0, # of connection points: 2
#     Edge 37, Type (0, 0), BuildingBlock: AJUNOK_clean_linker_0, # of connection points: 2
#     Edge 38, Type (0, 0), BuildingBlock: AJUNOK_clean_linker_0, # of connection points: 2
#     Edge 39, Type (0, 0), BuildingBlock: AJUNOK_clean_linker_0, # of connection points: 2
#     Edge 40, Type (0, 0), BuildingBlock: AJUNOK_clean_linker_0, # of connection points: 2
#     Edge 41, Type (0, 0), BuildingBlock: AJUNOK_clean_linker_0, # of connection points: 2
#     Edge 42, Type (0, 0), BuildingBlock: AJUNOK_clean_linker_0, # of connection points: 2
#     Edge 43, Type (0, 0), BuildingBlock: AJUNOK_clean_linker_0, # of connection points: 2
#     Edge 44, Type (0, 0), BuildingBlock: AJUNOK_clean_linker_0, # of connection points: 2
#     Edge 45, Type (0, 0), BuildingBlock: AJUNOK_clean_linker_0, # of connection points: 2
#     Edge 46, Type (0, 0), BuildingBlock: AJUNOK_clean_linker_0, # of connection points: 2
#     Edge 47, Type (0, 0), BuildingBlock: AJUNOK_clean_linker_0, # of connection points: 2
#     Edge 48, Type (0, 0), BuildingBlock: AJUNOK_clean_linker_0, # of connection points: 2
#     Edge 49, Type (0, 0), BuildingBlock: AJUNOK_clean_linker_0, # of connection points: 2
#     Edge 50, Type (0, 0), BuildingBlock: AJUNOK_clean_linker_0, # of connection points: 2
#     Edge 51, Type (0, 0), BuildingBlock: AJUNOK_clean_linker_0, # of connection points: 2
#     Edge 52, Type (0, 0), BuildingBlock: AJUNOK_clean_linker_0, # of connection points: 2
#     Edge 53, Type (0, 0), BuildingBlock: AJUNOK_clean_linker_0, # of connection points: 2
#     Edge 54, Type (0, 0), BuildingBlock: AJUNOK_clean_linker_0, # of connection points: 2
#     Edge 55, Type (0, 0), BuildingBlock: AJUNOK_clean_linker_0, # of connection points: 2
#     Edge 56, Type (0, 0), BuildingBlock: AJUNOK_clean_linker_0, # of connection points: 2
#     Edge 57, Type (0, 0), BuildingBlock: AJUNOK_clean_linker_0, # of connection points: 2
#     Edge 58, Type (0, 0), BuildingBlock: AJUNOK_clean_linker_0, # of connection points: 2
#     Edge 59, Type (0, 0), BuildingBlock: AJUNOK_clean_linker_0, # of connection points: 2
#     Edge 60, Type (0, 0), BuildingBlock: AJUNOK_clean_linker_0, # of connection points: 2
#     Edge 61, Type (0, 0), BuildingBlock: AJUNOK_clean_linker_0, # of connection points: 2
#     Edge 62, Type (0, 0), BuildingBlock: AJUNOK_clean_linker_0, # of connection points: 2
#     Edge 63, Type (0, 0), BuildingBlock: AJUNOK_clean_linker_0, # of connection points: 2
#     Edge 64, Type (0, 0), BuildingBlock: AJUNOK_clean_linker_0, # of connection points: 2
#     Edge 65, Type (0, 0), BuildingBlock: AJUNOK_clean_linker_0, # of connection points: 2
#     Edge 66, Type (0, 0), BuildingBlock: AJUNOK_clean_linker_0, # of connection points: 2
#     Edge 67, Type (0, 0), BuildingBlock: AJUNOK_clean_linker_0, # of connection points: 2
#     Edge 68, Type (0, 0), BuildingBlock: AJUNOK_clean_linker_0, # of connection points: 2
#     Edge 69, Type (0, 0), BuildingBlock: AJUNOK_clean_linker_0, # of connection points: 2
#     Edge 70, Type (0, 0), BuildingBlock: AJUNOK_clean_linker_0, # of connection points: 2
#     Edge 71, Type (0, 0), BuildingBlock: AJUNOK_clean_linker_0, # of connection points: 2
#     Edge 72, Type (0, 0), BuildingBlock: AJUNOK_clean_linker_0, # of connection points: 2
#     Edge 73, Type (0, 0), BuildingBlock: AJUNOK_clean_linker_0, # of connection points: 2
#     Edge 74, Type (0, 0), BuildingBlock: AJUNOK_clean_linker_0, # of connection points: 2
#     Edge 75, Type (0, 0), BuildingBlock: AJUNOK_clean_linker_0, # of connection points: 2
#     Edge 76, Type (0, 0), BuildingBlock: AJUNOK_clean_linker_0, # of connection points: 2
#     Edge 77, Type (0, 0), BuildingBlock: AJUNOK_clean_linker_0, # of connection points: 2
#     Edge 78, Type (0, 0), BuildingBlock: AJUNOK_clean_linker_0, # of connection points: 2
#     Edge 79, Type (0, 0), BuildingBlock: AJUNOK_clean_linker_0, # of connection points: 2
#     Edge 80, Type (0, 0), BuildingBlock: AJUNOK_clean_linker_0, # of connection points: 2
#     Edge 81, Type (0, 0), BuildingBlock: AJUNOK_clean_linker_0, # of connection points: 2
#     Edge 82, Type (0, 0), BuildingBlock: AJUNOK_clean_linker_0, # of connection points: 2
#     Edge 83, Type (0, 0), BuildingBlock: AJUNOK_clean_linker_0, # of connection points: 2
#     Edge 84, Type (0, 0), BuildingBlock: AJUNOK_clean_linker_0, # of connection points: 2
#     Edge 85, Type (0, 0), BuildingBlock: AJUNOK_clean_linker_0, # of connection points: 2
#     Edge 86, Type (0, 0), BuildingBlock: AJUNOK_clean_linker_0, # of connection points: 2
#     Edge 87, Type (0, 0), BuildingBlock: AJUNOK_clean_linker_0, # of connection points: 2
#     Edge 88, Type (0, 0), BuildingBlock: AJUNOK_clean_linker_0, # of connection points: 2
#     Edge 89, Type (0, 0), BuildingBlock: AJUNOK_clean_linker_0, # of connection points: 2
#     Edge 90, Type (0, 0), BuildingBlock: AJUNOK_clean_linker_0, # of connection points: 2
#     Edge 91, Type (0, 0), BuildingBlock: AJUNOK_clean_linker_0, # of connection points: 2
#     Edge 92, Type (0, 0), BuildingBlock: AJUNOK_clean_linker_0, # of connection points: 2
#     Edge 93, Type (0, 0), BuildingBlock: AJUNOK_clean_linker_0, # of connection points: 2
#     Edge 94, Type (0, 0), BuildingBlock: AJUNOK_clean_linker_0, # of connection points: 2
#     Edge 95, Type (0, 0), BuildingBlock: AJUNOK_clean_linker_0, # of connection points: 2
#     Edge 96, Type (0, 0), BuildingBlock: AJUNOK_clean_linker_0, # of connection points: 2
#     Edge 97, Type (0, 0), BuildingBlock: AJUNOK_clean_linker_0, # of connection points: 2
#     Edge 98, Type (0, 0), BuildingBlock: AJUNOK_clean_linker_0, # of connection points: 2
#     Edge 99, Type (0, 0), BuildingBlock: AJUNOK_clean_linker_0, # of connection points: 2
#     Edge 100, Type (0, 0), BuildingBlock: AJUNOK_clean_linker_0, # of connection points: 2
#     Edge 101, Type (0, 0), BuildingBlock: AJUNOK_clean_linker_0, # of connection points: 2
#     Edge 102, Type (0, 0), BuildingBlock: AJUNOK_clean_linker_0, # of connection points: 2
#     Edge 103, Type (0, 0), BuildingBlock: AJUNOK_clean_linker_0, # of connection points: 2
#     Edge 104, Type (0, 0), BuildingBlock: AJUNOK_clean_linker_0, # of connection points: 2
#     Edge 105, Type (0, 0), BuildingBlock: AJUNOK_clean_linker_0, # of connection points: 2
#     Edge 106, Type (0, 0), BuildingBlock: AJUNOK_clean_linker_0, # of connection points: 2
#     Edge 107, Type (0, 0), BuildingBlock: AJUNOK_clean_linker_0, # of connection points: 2
#     Edge 108, Type (0, 0), BuildingBlock: AJUNOK_clean_linker_0, # of connection points: 2
#     Edge 109, Type (0, 0), BuildingBlock: AJUNOK_clean_linker_0, # of connection points: 2
#     Edge 110, Type (0, 0), BuildingBlock: AJUNOK_clean_linker_0, # of connection points: 2
#     Edge 111, Type (0, 0), BuildingBlock: AJUNOK_clean_linker_0, # of connection points: 2
# Relax obj value: 0.405
# Max RMSD: 0.226
# Mean RMSD: 0.226
data_MOF--net-yfm--node1-XOMCOT_clean_sbu_0--edge1-AJUNOK_clean_linker_0
_symmetry_space_group_name_H-M    P1
_symmetry_Int_Tables_number       1
_symmetry_cell_setting            triclinic
loop_
_symmetry_equiv_pos_as_xyz
'x, y, z'
_cell_length_a     52.026294
_cell_length_b     52.13078
_cell_length_c     36.025347
_cell_angle_alpha  89.902776
_cell_angle_beta   90.06698
_cell_angle_gamma 89.928469
loop_
_atom_site_label
_atom_site_type_symbol
_atom_site_fract_x
_atom_site_fract_y
_atom_site_fract_z
_atom_type_partial_charge
Co0 Co 0.26895 0.12699 0.08339 0.0
C1 C 0.29255 0.10789 1.0124 0.0
C2 C 0.26284 0.08281 0.03155 0.0
C3 C 0.27426 0.07209 1.00052 0.0
N4 N 0.27417 0.10542 0.0391 0.0
N5 N 0.29318 0.08772 0.98831 0.0
H6 H 0.30546 0.124 1.01113 0.0
H7 H 0.24798 0.07404 0.04822 0.0
C8 C 0.21933 0.11268 0.12332 0.0
O9 O 0.21483 0.13639 0.13373 0.0
N10 N 0.26529 0.14858 0.12692 0.0
C11 C 0.26685 0.17442 0.12824 0.0
C12 C 0.26759 0.18204 0.16466 0.0
C13 C 0.2657 0.14088 0.16272 0.0
N14 N 0.26717 0.16091 0.1862 0.0
C15 C 0.27075 0.16941 0.03353 0.0
C16 C 0.22251 0.18855 0.04919 0.0
C17 C 0.24102 0.20531 0.03428 0.0
C18 C 0.2648 0.1948 0.02414 0.0
C19 C 0.22917 0.16297 0.05761 0.0
N20 N 0.2538 0.15441 0.05277 0.0
H21 H 0.29016 0.16298 0.02892 0.0
H22 H 0.21498 0.15087 0.07029 0.0
H23 H 0.26848 0.18705 0.10465 0.0
H24 H 0.26587 0.12099 0.17139 0.0
O25 O 0.30497 0.13765 0.08194 0.0
O26 O 0.28948 0.10384 0.11187 0.0
O27 O 0.23519 0.1082 0.09645 0.0
C28 C 0.30892 0.11842 0.10433 0.0
H29 H 0.26963 0.05353 0.9889 0.0
H30 H 0.26877 0.20161 0.17449 0.0
H31 H 0.20345 0.19545 0.056 0.0
H32 H 0.27966 0.20674 1.01214 0.0
Co33 Co 0.14796 0.02101 0.33589 0.0
C34 C 0.17235 0.04458 0.2679 0.0
C35 C 0.18015 1.0043 0.27194 0.0
C36 C 0.19128 1.01372 0.23982 0.0
N37 N 0.16835 0.02363 0.28992 0.0
N38 N 0.18655 0.03916 0.2372 0.0
H39 H 0.16499 0.06351 0.27398 0.0
H40 H 0.18023 0.98452 0.28099 0.0
C41 C 0.16272 0.9727 0.37934 0.0
O42 O 0.1394 0.97042 0.39281 0.0
N43 N 0.12708 0.02001 0.38048 0.0
C44 C 0.1014 0.02366 0.38212 0.0
C45 C 0.09416 0.02602 0.4186 0.0
C46 C 0.13519 0.02111 0.41606 0.0
N47 N 0.11544 0.02453 0.43976 0.0
C48 C 0.10685 0.02157 0.28407 0.0
C49 C 0.08273 0.97733 0.30791 0.0
C50 C 0.06823 0.99546 0.2878 0.0
C51 C 0.08124 0.01704 0.27401 0.0
C52 C 0.10855 0.98255 0.31711 0.0
N53 N 0.11958 1.00547 0.30775 0.0
H54 H 0.11564 0.0394 0.27559 0.0
H55 H 0.11873 0.969 0.33408 0.0
H56 H 0.08876 0.02562 0.3585 0.0
H57 H 0.15518 0.02022 0.42436 0.0
O58 O 0.13794 0.05705 0.33165 0.0
O59 O 0.1723 0.04199 0.36122 0.0
O60 O 0.16657 0.9873 0.35079 0.0
C61 C 0.15801 0.06142 0.35235 0.0
H62 H 0.2014 1.00238 0.21937 0.0
H63 H 0.07479 0.02889 0.42872 0.0
H64 H 0.07377 0.9602 0.31888 0.0
H65 H 0.07121 0.03124 0.25746 0.0
Co66 Co 0.26462 0.89918 0.57961 0.0
C67 C 0.24251 0.91828 0.5076 0.0
C68 C 0.27523 0.94041 0.52396 0.0
C69 C 0.26405 0.95175 0.4931 0.0
N70 N 0.2618 0.91928 0.53326 0.0
N71 N 0.24336 0.93788 0.48254 0.0
H72 H 0.22736 0.90413 0.50823 0.0
H73 H 0.29113 0.94808 0.5397 0.0
C74 C 0.31385 0.91048 0.62113 0.0
O75 O 0.31637 0.88658 0.63219 0.0
N76 N 0.26549 0.87912 0.62508 0.0
C77 C 0.26376 0.85338 0.6284 0.0
C78 C 0.26323 0.84706 0.6654 0.0
C79 C 0.265 0.88811 0.66024 0.0
N80 N 0.26399 0.86889 0.68529 0.0
C81 C 0.26053 0.85496 0.53331 0.0
C82 C 0.30891 0.83523 0.54709 0.0
C83 C 0.29017 0.81894 0.53185 0.0
C84 C 0.2661 0.8296 0.52334 0.0
C85 C 0.30263 0.86074 0.55611 0.0
N86 N 0.27808 0.86969 0.5518 0.0
H87 H 0.24123 0.86191 0.52893 0.0
H88 H 0.31724 0.87262 0.56823 0.0
H89 H 0.26248 0.83991 0.60579 0.0
H90 H 0.2661 0.90824 0.66731 0.0
O91 O 0.22784 0.89181 0.57721 0.0
O92 O 0.24625 0.92521 0.60482 0.0
O93 O 0.29963 0.91545 0.59257 0.0
C94 C 0.22554 0.91269 0.59674 0.0
H95 H 0.26985 0.96988 0.48113 0.0
H96 H 0.26198 0.82789 0.67687 0.0
H97 H 0.32799 0.82805 0.55323 0.0
H98 H 0.25094 0.8179 0.51165 0.0
Co99 Co 0.37986 1.00807 0.83159 0.0
C100 C 0.36063 0.9853 0.76031 0.0
C101 C 0.33816 0.01793 0.77612 0.0
C102 C 0.32774 1.00738 0.7442 0.0
N103 N 0.35892 1.00416 0.78635 0.0
N104 N 0.34191 0.98682 0.73397 0.0
H105 H 0.37504 0.97035 0.76094 0.0
H106 H 0.33043 0.03402 0.79138 0.0
C107 C 0.36703 0.05723 0.87294 0.0
O108 O 0.3913 0.06009 0.88203 0.0
N109 N 0.40102 1.01033 0.87586 0.0
C110 C 0.42692 1.00963 0.87775 0.0
C111 C 0.43422 1.00928 0.91437 0.0
C112 C 0.39296 1.00973 0.91148 0.0
N113 N 0.41286 1.00912 0.93548 0.0
C114 C 0.42264 1.00728 0.78257 0.0
C115 C 0.44068 0.05598 0.79725 0.0
C116 C 0.45762 0.03799 0.78152 0.0
C117 C 0.44771 1.01382 0.77237 0.0
C118 C 0.41541 0.04869 0.80649 0.0
N119 N 0.4075 0.02386 0.8022 0.0
H120 H 0.41642 0.98787 0.77763 0.0
H121 H 0.40289 0.06277 0.81852 0.0
H122 H 0.43983 1.0089 0.85438 0.0
H123 H 0.37294 1.00928 0.91965 0.0
O124 O 0.39062 0.97222 0.82826 0.0
O125 O 0.35631 0.9868 0.85815 0.0
O126 O 0.36108 0.04158 0.84647 0.0
C127 C 0.37093 0.96761 0.84942 0.0
H128 H 0.31023 1.01374 0.7308 0.0
H129 H 0.45378 1.00923 0.92461 0.0
H130 H 0.44719 0.0752 0.80364 0.0
H131 H 0.45985 0.99921 0.76019 0.0
Co132 Co 0.2673 0.90132 0.94869 0.0
C133 C 0.29361 0.92423 1.01596 0.0
C134 C 0.25397 0.93518 1.01216 0.0
C135 C 0.26453 0.94624 0.0435 0.0
N136 N 0.27216 0.92146 0.99446 0.0
N137 N 0.28957 0.93956 0.04597 0.0
H138 H 0.31189 0.91532 1.00985 0.0
H139 H 0.23417 0.93681 1.00335 0.0
C140 C 0.2187 0.91817 0.90805 0.0
O141 O 0.21333 0.89492 0.89646 0.0
N142 N 0.26364 0.88092 0.90393 0.0
C143 C 0.26484 0.85512 0.90145 0.0
C144 C 0.26462 0.84827 0.86469 0.0
C145 C 0.26362 0.88939 0.86847 0.0
N146 N 0.26379 0.86982 0.84401 0.0
C147 C 0.26787 0.8593 0.99883 0.0
C148 C 0.22096 0.83881 0.97895 0.0
C149 C 0.23929 0.82256 0.99561 0.0
C150 C 0.26231 0.83373 1.0078 0.0
C151 C 0.22727 0.86446 0.97071 0.0
N152 N 0.25139 0.87364 0.9777 0.0
H153 H 0.28665 0.8667 1.00575 0.0
H154 H 0.21336 0.87611 0.95654 0.0
H155 H 0.26678 0.84204 0.92453 0.0
H156 H 0.26435 0.90946 0.86082 0.0
O157 O 0.30291 0.88954 0.95046 0.0
O158 O 0.28862 0.92459 0.92197 0.0
O159 O 0.23414 0.92131 0.93583 0.0
C160 C 0.30754 0.90918 0.92913 0.0
H161 H 0.25426 0.95785 0.06347 0.0
H162 H 0.26549 0.82891 0.85396 0.0
H163 H 0.20237 0.83144 0.97065 0.0
H164 H 0.27693 0.82228 0.02143 0.0
Co165 Co 0.38204 0.01911 0.19895 0.0
C166 C 0.35948 0.04452 0.26686 0.0
C167 C 0.35118 1.00432 0.26549 0.0
C168 C 0.34128 1.01461 0.29792 0.0
N169 N 0.36257 0.02305 0.24568 0.0
N170 N 0.34659 0.03997 0.29914 0.0
H171 H 0.36643 0.06318 0.25873 0.0
H172 H 0.35056 0.98436 0.25742 0.0
C173 C 0.36525 0.97037 0.15786 0.0
O174 O 0.38855 0.96559 0.14577 0.0
N175 N 0.40197 0.01658 0.15357 0.0
C176 C 0.42778 0.01814 0.15091 0.0
C177 C 0.43465 0.01647 0.11425 0.0
C178 C 0.39343 0.0154 0.11817 0.0
N179 N 0.41307 1.01432 0.0938 0.0
C180 C 0.42503 0.01827 0.24777 0.0
C181 C 0.44467 0.97161 0.22527 0.0
C182 C 0.46132 0.98928 0.2422 0.0
C183 C 0.4507 1.01212 0.25578 0.0
C184 C 0.41887 0.97833 0.21858 0.0
N185 N 0.41013 1.00243 0.22652 0.0
H186 H 0.41796 0.03697 0.25562 0.0
H187 H 0.40668 0.96467 0.20513 0.0
H188 H 0.44087 0.02079 0.17384 0.0
H189 H 0.37335 1.01463 0.11045 0.0
O190 O 0.3939 0.05458 0.20219 0.0
O191 O 0.35838 0.04111 0.17402 0.0
O192 O 0.36175 0.98632 0.18495 0.0
C193 C 0.37372 0.05982 0.18214 0.0
H194 H 0.33145 1.00397 0.31947 0.0
H195 H 0.45403 0.01726 0.10341 0.0
H196 H 0.45184 0.95328 0.21563 0.0
H197 H 0.46269 0.02612 0.26965 0.0
Co198 Co 0.26378 0.1299 0.4494 0.0
C199 C 0.23775 0.10628 0.51613 0.0
C200 C 0.27861 0.10157 0.51761 0.0
C201 C 0.26836 0.0923 0.55041 0.0
N202 N 0.25949 0.11028 0.49578 0.0
N203 N 0.2425 0.09506 0.54967 0.0
H204 H 0.21882 0.1121 0.50711 0.0
H205 H 0.29884 0.10304 0.51105 0.0
C206 C 0.31382 0.11525 0.41054 0.0
O207 O 0.3174 0.13886 0.39894 0.0
N208 N 0.26682 0.15012 0.40432 0.0
C209 C 0.26532 0.17591 0.40165 0.0
C210 C 0.26651 0.18279 0.36491 0.0
C211 C 0.26775 0.14163 0.36894 0.0
N212 N 0.26825 0.16124 0.34452 0.0
C213 C 0.26168 0.17245 0.49845 0.0
C214 C 0.30912 0.19309 0.48172 0.0
C215 C 0.2906 0.20899 0.49841 0.0
C216 C 0.26711 0.19781 0.50851 0.0
C217 C 0.30297 0.16757 0.47256 0.0
N218 N 0.2787 0.1583 0.47808 0.0
H219 H 0.24276 0.16498 0.50425 0.0
H220 H 0.31735 0.15599 0.4594 0.0
H221 H 0.2628 0.18898 0.42456 0.0
H222 H 0.26845 0.12157 0.36124 0.0
O223 O 0.22773 0.14042 0.45047 0.0
O224 O 0.24334 0.1057 0.42289 0.0
O225 O 0.29764 0.11079 0.43704 0.0
C226 C 0.22385 0.12051 0.42942 0.0
H227 H 0.2795 0.08546 0.57376 0.0
H228 H 0.26543 0.2021 0.35391 0.0
H229 H 0.32786 0.20061 0.47449 0.0
H230 H 0.25215 0.20911 0.52153 0.0
Co231 Co 0.15445 0.02039 0.7 0.0
C232 C 0.17949 0.99257 0.76428 0.0
C233 C 0.18625 0.03306 0.766 0.0
C234 C 0.19648 0.022 0.79764 0.0
N235 N 0.17563 1.01469 0.7447 0.0
N236 N 0.19241 0.99641 0.79674 0.0
H237 H 0.17245 0.97405 0.75546 0.0
H238 H 0.18557 0.05338 0.76003 0.0
C239 C 0.16591 0.07157 0.66502 0.0
O240 O 0.14229 0.07759 0.6554 0.0
N241 N 0.13239 0.02472 0.65659 0.0
C242 C 0.10678 0.02028 0.65536 0.0
C243 C 0.09835 0.02232 0.61935 0.0
C244 C 0.13924 0.02838 0.62081 0.0
N245 N 0.11879 0.02739 0.59786 0.0
C246 C 0.11368 1.01097 0.75063 0.0
C247 C 0.08759 0.05645 0.73829 0.0
C248 C 0.07395 0.03551 0.753 0.0
C249 C 0.08792 1.01315 0.76141 0.0
C250 C 0.11359 0.05356 0.7284 0.0
N251 N 0.12556 0.0303 0.7317 0.0
H252 H 0.12324 0.99273 0.75416 0.0
H253 H 0.12314 0.06933 0.71507 0.0
H254 H 0.09501 1.01462 0.67858 0.0
H255 H 0.15871 0.03181 0.61168 0.0
O256 O 0.14817 0.98347 0.69533 0.0
O257 O 0.18011 1.00525 0.6697 0.0
O258 O 0.16951 0.05651 0.69305 0.0
C259 C 0.16795 0.98379 0.67304 0.0
H260 H 0.20502 0.03242 0.82046 0.0
H261 H 0.07901 0.01896 0.60939 0.0
H262 H 0.07785 0.07422 0.73152 0.0
H263 H 0.0785 0.9967 0.77372 0.0
Co264 Co 0.76207 0.89878 0.95045 0.0
C265 C 0.73801 0.92008 0.02039 0.0
C266 C 0.77553 0.93558 1.01055 0.0
C267 C 0.76585 0.94603 0.04288 0.0
N268 N 0.75812 0.91931 0.99607 0.0
N269 N 0.74223 0.9363 0.04939 0.0
H270 H 0.72046 0.90928 0.01669 0.0
H271 H 0.79419 0.93958 0.99876 0.0
C272 C 0.81154 0.91301 0.90957 0.0
O273 O 0.81507 0.88923 0.89879 0.0
N274 N 0.76482 0.87807 0.90597 0.0
C275 C 0.76392 0.85228 0.90348 0.0
C276 C 0.76421 0.8455 0.86663 0.0
C277 C 0.76488 0.88659 0.87058 0.0
N278 N 0.7649 0.86709 0.846 0.0
C279 C 0.76127 0.85678 1.00056 0.0
C280 C 0.8089 0.8367 0.98344 0.0
C281 C 0.79076 0.82065 1.00069 0.0
C282 C 0.76717 0.83158 1.01095 0.0
C283 C 0.80226 0.86208 0.97389 0.0
N284 N 0.77787 0.87103 0.97962 0.0
H285 H 0.74227 0.86395 1.00658 0.0
H286 H 0.81635 0.87379 0.96034 0.0
H287 H 0.76239 0.83917 0.92659 0.0
H288 H 0.76401 0.90669 0.86316 0.0
O289 O 0.72621 0.88778 0.95328 0.0
O290 O 0.74062 0.92233 0.92392 0.0
O291 O 0.79548 0.91794 0.93604 0.0
C292 C 0.72151 0.90744 0.93202 0.0
H293 H 0.77573 0.95956 0.06061 0.0
H294 H 0.76363 0.82614 0.85586 0.0
H295 H 0.82771 0.8294 0.97605 0.0
H296 H 0.75245 0.82017 0.02429 0.0
Co297 Co 0.88135 1.00892 0.69837 0.0
C298 C 0.85706 0.98299 0.76453 0.0
C299 C 0.84989 0.02344 0.76417 0.0
C300 C 0.83967 1.01302 0.7963 0.0
N301 N 0.86078 1.00464 0.74394 0.0
N302 N 0.8443 0.98751 0.79691 0.0
H303 H 0.86363 0.96426 0.75601 0.0
H304 H 0.85004 0.04355 0.75679 0.0
C305 C 0.87072 0.0597 0.66072 0.0
O306 O 0.89513 0.0623 0.65243 0.0
N307 N 0.90228 1.01191 0.65387 0.0
C308 C 0.92807 1.00975 0.65156 0.0
C309 C 0.93509 1.01003 0.61481 0.0
C310 C 0.89398 1.01299 0.61831 0.0
N311 N 0.91363 1.01174 0.59395 0.0
C312 C 0.92335 1.00379 0.74806 0.0
C313 C 0.94557 0.05111 0.73573 0.0
C314 C 0.96091 0.0313 0.75046 0.0
C315 C 0.9488 1.00799 0.75892 0.0
C316 C 0.91983 0.04615 0.72583 0.0
N317 N 0.90994 0.02194 0.72866 0.0
H318 H 0.9152 0.98501 0.75257 0.0
H319 H 0.90858 0.06151 0.71442 0.0
H320 H 0.94102 1.00734 0.67473 0.0
H321 H 0.87391 1.01375 0.61042 0.0
O322 O 0.89026 0.9725 0.69859 0.0
O323 O 0.85654 0.98996 0.67042 0.0
O324 O 0.86426 0.04382 0.68665 0.0
C325 C 0.87036 0.96976 0.67706 0.0
H326 H 0.83029 0.02369 0.8182 0.0
H327 H 0.95454 1.00881 0.60433 0.0
H328 H 0.95371 0.06973 0.72958 0.0
H329 H 0.95943 0.99243 0.77172 0.0
Co330 Co 0.77251 0.13028 0.45162 0.0
C331 C 0.79626 0.11181 0.52268 0.0
C332 C 0.76195 0.09094 0.51015 0.0
C333 C 0.77325 0.08037 0.54148 0.0
N334 N 0.77638 0.11073 0.49814 0.0
N335 N 0.79507 0.0933 0.54933 0.0
H336 H 0.81151 0.12577 0.52074 0.0
H337 H 0.74487 0.08389 0.49648 0.0
C338 C 0.72421 0.11475 0.40993 0.0
O339 O 0.72082 0.13827 0.39777 0.0
N340 N 0.77019 0.14976 0.40572 0.0
C341 C 0.76931 0.17543 0.40133 0.0
C342 C 0.77027 0.18102 0.36406 0.0
C343 C 0.77255 0.14022 0.37108 0.0
N344 N 0.77234 0.15885 0.34498 0.0
C345 C 0.773 0.17349 0.49921 0.0
C346 C 0.72552 0.19312 0.48024 0.0
C347 C 0.74382 0.20971 0.49616 0.0
C348 C 0.76717 0.19896 0.50782 0.0
C349 C 0.73214 0.16748 0.47233 0.0
N350 N 0.75651 0.1587 0.4789 0.0
H351 H 0.79195 0.16653 0.506 0.0
H352 H 0.71816 0.15546 0.45903 0.0
H353 H 0.7688 0.18937 0.42343 0.0
H354 H 0.77543 0.12007 0.36551 0.0
O355 O 0.80821 0.14162 0.4545 0.0
O356 O 0.79418 0.10606 0.42731 0.0
O357 O 0.73921 0.11077 0.43801 0.0
C358 C 0.81316 0.12124 0.43506 0.0
H359 H 0.76645 0.06364 0.55631 0.0
H360 H 0.7698 0.20005 0.35205 0.0
H361 H 0.7067 0.20019 0.4724 0.0
H362 H 0.7818 0.21067 0.52081 0.0
Co363 Co 0.65437 0.01927 0.20392 0.0
C364 C 0.67323 0.03746 0.27763 0.0
C365 C 0.69593 1.00597 0.25839 0.0
C366 C 0.70727 0.01611 0.29003 0.0
N367 N 0.6744 0.0193 0.25049 0.0
N368 N 0.693 0.03608 0.30225 0.0
H369 H 0.65879 0.05236 0.27844 0.0
H370 H 0.70394 0.99106 0.2411 0.0
C371 C 0.67836 0.96504 0.17769 0.0
O372 O 0.66698 0.94827 0.19936 0.0
N373 N 0.63453 0.02068 0.1587 0.0
C374 C 0.60943 0.02675 0.15604 0.0
C375 C 0.60259 0.02687 0.11928 0.0
C376 C 0.64286 0.0179 0.12356 0.0
N377 N 0.6236 0.02138 0.0988 0.0
C378 C 0.61258 1.01194 0.25392 0.0
C379 C 0.58948 0.97291 0.21433 0.0
C380 C 0.57425 0.98723 0.23906 0.0
C381 C 0.58667 1.006 0.26048 0.0
C382 C 0.61529 0.97968 0.20825 0.0
N383 N 0.62618 0.9999 0.22659 0.0
H384 H 0.6207 0.02828 0.26798 0.0
H385 H 0.62522 0.97083 0.18536 0.0
H386 H 0.59698 0.03099 0.17924 0.0
H387 H 0.66276 1.01451 0.1165 0.0
O388 O 0.64257 0.05423 0.21382 0.0
O389 O 0.67804 0.04281 0.18354 0.0
O390 O 0.6737 0.98902 0.18136 0.0
C391 C 0.66291 0.06083 0.19493 0.0
H392 H 0.72565 1.0103 0.30134 0.0
H393 H 0.58355 0.03073 0.1085 0.0
H394 H 0.58112 0.95771 0.19784 0.0
H395 H 0.57596 0.01761 0.27999 0.0
Co396 Co 0.76454 0.12385 0.08245 0.0
C397 C 0.73682 0.10491 1.01342 0.0
C398 C 0.7698 0.08217 0.02708 0.0
C399 C 0.75833 0.07201 0.99587 0.0
N400 N 0.75663 0.10307 0.03815 0.0
N401 N 0.73767 0.0864 0.98673 0.0
H402 H 0.7218 0.11917 1.01512 0.0
H403 H 0.78631 0.07419 0.04122 0.0
C404 C 0.81825 0.09752 0.10246 0.0
O405 O 0.84095 0.09494 0.08701 0.0
N406 N 0.77185 0.14431 0.12622 0.0
C407 C 0.76769 0.16969 0.13 0.0
C408 C 0.77113 0.17632 0.1665 0.0
C409 C 0.77711 0.13579 0.16084 0.0
N410 N 0.7769 0.15498 0.18606 0.0
C411 C 0.75551 0.1664 0.03379 0.0
C412 C 0.80258 0.18957 0.04481 0.0
C413 C 0.78215 0.20451 0.031 0.0
C414 C 0.75886 0.19209 0.02346 0.0
C415 C 0.79844 0.16385 0.05484 0.0
N416 N 0.77462 0.15301 0.05131 0.0
H417 H 0.73654 0.15836 0.03127 0.0
H418 H 0.81366 0.15375 0.06907 0.0
H419 H 0.76106 0.18242 0.10832 0.0
H420 H 0.77954 0.11584 0.1676 0.0
O421 O 0.7286 0.13253 0.08809 0.0
O422 O 0.74813 0.09889 0.11362 0.0
O423 O 0.80111 0.1097 0.08325 0.0
C424 C 0.72745 0.11276 0.10988 0.0
H425 H 0.76428 0.0546 0.98202 0.0
H426 H 0.7679 0.19518 0.17813 0.0
H427 H 0.82116 0.19814 0.05019 0.0
H428 H 0.74254 0.2027 1.01275 0.0
Co429 Co 0.64873 1.00899 0.83414 0.0
C430 C 0.66534 0.98658 0.76142 0.0
C431 C 0.69058 0.01665 0.77882 0.0
C432 C 0.70052 1.00537 0.74718 0.0
N433 N 0.66842 1.00493 0.78791 0.0
N434 N 0.68481 0.98619 0.73612 0.0
H435 H 0.64935 0.97347 0.76129 0.0
H436 H 0.69967 0.03157 0.79491 0.0
C437 C 0.66159 0.05881 0.87323 0.0
O438 O 0.63756 0.06234 0.88318 0.0
N439 N 0.62922 1.01149 0.8799 0.0
C440 C 0.60346 1.01114 0.88414 0.0
C441 C 0.59787 1.01263 0.92137 0.0
C442 C 0.63889 1.01223 0.91471 0.0
N443 N 0.62015 1.01331 0.94045 0.0
C444 C 0.60401 1.00623 0.78856 0.0
C445 C 0.58654 0.05568 0.79913 0.0
C446 C 0.56947 0.03735 0.78464 0.0
C447 C 0.57901 1.01269 0.77782 0.0
C448 C 0.61181 0.04849 0.80877 0.0
N449 N 0.61962 0.02348 0.80611 0.0
H450 H 0.6099 0.98655 0.7853 0.0
H451 H 0.62449 0.06289 0.81959 0.0
H452 H 0.58954 1.00979 0.86201 0.0
H453 H 0.65924 1.01293 0.92095 0.0
O454 O 0.63908 0.97286 0.83266 0.0
O455 O 0.67381 0.98888 0.85987 0.0
O456 O 0.66669 0.04329 0.84625 0.0
C457 C 0.6595 0.96915 0.85278 0.0
H458 H 0.71872 1.01018 0.73445 0.0
H459 H 0.57886 1.01304 0.93357 0.0
H460 H 0.58019 0.07518 0.80393 0.0
H461 H 0.56666 0.99784 0.76674 0.0
Co462 Co 0.76483 0.89962 0.58169 0.0
C463 C 0.78696 0.9185 0.50985 0.0
C464 C 0.7535 0.94001 0.52495 0.0
C465 C 0.76379 0.95038 0.49282 0.0
N466 N 0.76799 0.91991 0.53578 0.0
N467 N 0.78489 0.93683 0.48306 0.0
H468 H 0.80242 0.90463 0.51093 0.0
H469 H 0.73713 0.9474 0.53998 0.0
C470 C 0.71518 0.91155 0.62242 0.0
O471 O 0.71288 0.88737 0.63213 0.0
N472 N 0.7633 0.87918 0.62682 0.0
C473 C 0.76509 0.85343 0.62966 0.0
C474 C 0.76514 0.84677 0.66656 0.0
C475 C 0.76314 0.88783 0.66218 0.0
N476 N 0.76391 0.86839 0.68696 0.0
C477 C 0.76655 0.85583 0.53457 0.0
C478 C 0.7178 0.83778 0.54943 0.0
C479 C 0.73617 0.82062 0.53522 0.0
C480 C 0.76026 0.83052 0.52548 0.0
C481 C 0.72481 0.86324 0.55748 0.0
N482 N 0.74967 0.87118 0.55337 0.0
H483 H 0.78593 0.86218 0.52942 0.0
H484 H 0.71044 0.87595 0.56838 0.0
H485 H 0.7668 0.84024 0.60678 0.0
H486 H 0.76188 0.90792 0.66947 0.0
O487 O 0.80094 0.88979 0.57841 0.0
O488 O 0.78551 0.92406 0.6074 0.0
O489 O 0.7308 0.91757 0.59594 0.0
C490 C 0.80508 0.90979 0.59908 0.0
H491 H 0.75691 0.9675 0.47899 0.0
H492 H 0.76652 0.82749 0.67758 0.0
H493 H 0.6985 0.83132 0.55562 0.0
H494 H 0.77495 0.81824 0.51371 0.0
Co495 Co 0.87524 0.01691 0.33183 0.0
C496 C 0.84733 0.04258 0.26749 0.0
C497 C 0.84346 1.0017 0.26707 0.0
C498 C 0.83118 1.01167 0.23619 0.0
N499 N 0.85364 0.02097 0.28703 0.0
N500 N 0.8333 0.03753 0.23628 0.0
H501 H 0.85332 0.06164 0.27545 0.0
H502 H 0.84566 0.98156 0.27362 0.0
C503 C 0.86167 0.96736 0.37227 0.0
O504 O 0.88557 0.96374 0.38281 0.0
N505 N 0.89694 1.01417 0.37581 0.0
C506 C 0.92271 0.01704 0.37704 0.0
C507 C 0.93068 0.01612 0.41339 0.0
C508 C 0.88952 1.0128 0.41177 0.0
N509 N 0.90982 1.01329 0.43509 0.0
C510 C 0.91563 0.01899 0.27921 0.0
C511 C 0.94026 0.97447 0.30092 0.0
C512 C 0.95483 0.99364 0.28319 0.0
C513 C 0.94152 0.01528 0.26999 0.0
C514 C 0.91412 0.97883 0.30905 0.0
N515 N 0.90293 1.00202 0.30153 0.0
H516 H 0.90661 0.03692 0.2716 0.0
H517 H 0.90375 0.96427 0.32374 0.0
H518 H 0.93494 0.02047 0.35337 0.0
H519 H 0.86971 1.01125 0.42067 0.0
O520 O 0.88583 0.05269 0.32923 0.0
O521 O 0.85198 0.03749 0.35976 0.0
O522 O 0.85679 0.98304 0.34531 0.0
C523 C 0.8668 0.05676 0.35188 0.0
H524 H 0.82268 1.00033 0.21431 0.0
H525 H 0.95024 0.01814 0.42323 0.0
H526 H 0.94929 0.95711 0.31107 0.0
H527 H 0.95151 0.03021 0.25486 0.0
Co528 Co 0.76798 0.63088 0.58528 0.0
C529 C 0.79082 0.61283 0.51365 0.0
C530 C 0.7589 0.58939 0.52954 0.0
C531 C 0.76985 0.57933 0.49768 0.0
N532 N 0.772 0.61053 0.53968 0.0
N533 N 0.78998 0.59411 0.48744 0.0
H534 H 0.80539 0.62757 0.51436 0.0
H535 H 0.74315 0.5811 0.54495 0.0
C536 C 0.71928 0.61612 0.6271 0.0
O537 O 0.71603 0.63984 0.63837 0.0
N538 N 0.76564 0.65149 0.6299 0.0
C539 C 0.76625 0.67733 0.63215 0.0
C540 C 0.76724 0.68428 0.66885 0.0
C541 C 0.76696 0.64312 0.66535 0.0
N542 N 0.7679 0.66276 0.68959 0.0
C543 C 0.7676 0.67374 0.53637 0.0
C544 C 0.71908 0.69155 0.55346 0.0
C545 C 0.73677 0.70863 0.53731 0.0
C546 C 0.7607 0.6988 0.52662 0.0
C547 C 0.7267 0.66634 0.5623 0.0
N548 N 0.75148 0.65851 0.55667 0.0
H549 H 0.78696 0.66762 0.53056 0.0
H550 H 0.71302 0.65386 0.57534 0.0
H551 H 0.76663 0.69042 0.60895 0.0
H552 H 0.76778 0.62308 0.67319 0.0
O553 O 0.80366 0.6422 0.58161 0.0
O554 O 0.78981 0.60739 0.61099 0.0
O555 O 0.73488 0.61141 0.60001 0.0
C556 C 0.80875 0.62228 0.60212 0.0
H557 H 0.76415 0.56161 0.48447 0.0
H558 H 0.76745 0.7037 0.67942 0.0
H559 H 0.69991 0.69793 0.56065 0.0
H560 H 0.77491 0.711 0.51356 0.0
Co561 Co 0.65269 0.51476 0.8356 0.0
C562 C 0.67595 0.54261 0.77024 0.0
C563 C 0.68119 0.50196 0.76658 0.0
C564 C 0.69074 0.51326 0.73465 0.0
N565 N 0.67193 0.52031 0.78917 0.0
N566 N 0.68733 0.53893 0.73659 0.0
H567 H 0.67053 0.56117 0.78083 0.0
H568 H 0.6803 0.48161 0.77225 0.0
C569 C 0.66972 0.4655 0.87375 0.0
O570 O 0.64657 0.46036 0.88615 0.0
N571 N 0.63298 0.51046 0.88087 0.0
C572 C 0.60724 0.51285 0.88413 0.0
C573 C 0.60095 0.51373 0.92108 0.0
C574 C 0.642 0.51046 0.91606 0.0
N575 N 0.62284 0.51249 0.94099 0.0
C576 C 0.61035 0.51679 0.78602 0.0
C577 C 0.58879 0.4701 0.8044 0.0
C578 C 0.57318 0.4886 0.78694 0.0
C579 C 0.58481 0.5117 0.77611 0.0
C580 C 0.61447 0.47593 0.81353 0.0
N581 N 0.62426 0.49983 0.80693 0.0
H582 H 0.61814 0.53549 0.77977 0.0
H583 H 0.62566 0.46176 0.82791 0.0
H584 H 0.59392 0.5153 0.86139 0.0
H585 H 0.66222 0.51033 0.92323 0.0
O586 O 0.64127 0.5505 0.83588 0.0
O587 O 0.6767 0.53529 0.86239 0.0
O588 O 0.67257 0.48122 0.84622 0.0
C589 C 0.66129 0.55447 0.85682 0.0
H590 H 0.69879 0.50313 0.71117 0.0
H591 H 0.58182 0.51593 0.93242 0.0
H592 H 0.58091 0.4517 0.81242 0.0
H593 H 0.57376 0.52667 0.76266 0.0
Co594 Co 0.77333 0.39892 0.07898 0.0
C595 C 0.74491 0.4236 1.01505 0.0
C596 C 0.78525 0.43185 1.01468 0.0
C597 C 0.77417 0.44235 0.98324 0.0
N598 N 0.76698 0.42016 0.0349 0.0
N599 N 0.74864 0.43742 0.98332 0.0
H600 H 0.72654 0.41576 0.02328 0.0
H601 H 0.80549 0.43181 0.02151 0.0
C602 C 0.80506 0.43971 0.11481 0.0
O603 O 0.823 0.42878 0.09466 0.0
N604 N 0.77853 0.37713 0.12265 0.0
C605 C 0.76962 0.35289 0.12636 0.0
C606 C 0.76921 0.34626 0.16321 0.0
C607 C 0.78365 0.38462 0.15789 0.0
N608 N 0.77769 0.36634 0.18305 0.0
C609 C 0.75481 0.35582 0.03487 0.0
C610 C 0.80236 0.3318 0.03696 0.0
C611 C 0.7806 0.3171 0.02829 0.0
C612 C 0.7568 0.32977 0.02501 0.0
C613 C 0.79955 0.35765 0.04643 0.0
N614 N 0.77584 0.36871 0.04779 0.0
H615 H 0.73606 0.36475 0.03556 0.0
H616 H 0.81602 0.36817 0.05662 0.0
H617 H 0.76155 0.34134 0.10453 0.0
H618 H 0.7891 0.40377 0.16559 0.0
O619 O 0.73537 0.3964 0.08872 0.0
O620 O 0.75865 0.42598 0.11188 0.0
O621 O 0.78149 0.43151 0.11135 0.0
C622 C 0.73622 0.41564 0.11007 0.0
H623 H 0.78459 0.45179 0.96117 0.0
H624 H 0.7615 0.32868 0.1747 0.0
H625 H 0.82114 0.32291 0.03905 0.0
H626 H 0.73957 0.31917 0.01806 0.0
Co627 Co 0.88202 0.52046 0.33256 0.0
C628 C 0.8535 0.49936 0.266 0.0
C629 C 0.85602 0.54042 0.26517 0.0
C630 C 0.84399 0.53234 0.23298 0.0
N631 N 0.86207 0.5198 0.28608 0.0
N632 N 0.84227 0.50654 0.23357 0.0
H633 H 0.85637 0.47956 0.27385 0.0
H634 H 0.86074 0.56001 0.27228 0.0
C635 C 0.86864 0.56795 0.37723 0.0
O636 O 0.89222 0.57015 0.38987 0.0
N637 N 0.90203 0.51989 0.37802 0.0
C638 C 0.92769 0.51679 0.38099 0.0
C639 C 0.93406 0.51506 0.41791 0.0
C640 C 0.89305 0.51885 0.41317 0.0
N641 N 0.91229 0.51642 0.43807 0.0
C642 C 0.92439 0.51953 0.28309 0.0
C643 C 0.94735 0.56464 0.30546 0.0
C644 C 0.9623 0.54664 0.28595 0.0
C645 C 0.94996 0.52438 0.27329 0.0
C646 C 0.92166 0.559 0.31462 0.0
N647 N 0.91117 0.53575 0.30591 0.0
H648 H 0.91595 0.50151 0.27482 0.0
H649 H 0.91092 0.57284 0.33023 0.0
H650 H 0.94094 0.51528 0.35806 0.0
H651 H 0.87293 0.52061 0.42029 0.0
O652 O 0.89126 0.48444 0.32686 0.0
O653 O 0.85685 0.49966 0.35617 0.0
O654 O 0.86437 0.55421 0.34808 0.0
C655 C 0.87097 0.48016 0.34701 0.0
H656 H 0.83742 0.54449 0.21047 0.0
H657 H 0.95322 0.51261 0.42911 0.0
H658 H 0.95574 0.58248 0.31488 0.0
H659 H 0.96044 0.50975 0.25829 0.0
Co660 Co 0.76957 0.40301 0.44742 0.0
C661 C 0.79565 0.42573 0.51469 0.0
C662 C 0.75486 0.43108 0.51621 0.0
C663 C 0.7654 0.4406 0.54869 0.0
N664 N 0.77378 0.42178 0.49457 0.0
N665 N 0.79114 0.43714 0.54811 0.0
H666 H 0.81455 0.42037 0.50501 0.0
H667 H 0.73461 0.43035 0.5095 0.0
C668 C 0.71919 0.41544 0.41063 0.0
O669 O 0.71604 0.39196 0.39826 0.0
N670 N 0.76688 0.38342 0.40114 0.0
C671 C 0.76965 0.35771 0.39788 0.0
C672 C 0.77015 0.35118 0.36099 0.0
C673 C 0.76636 0.39214 0.36563 0.0
N674 N 0.7683 0.37279 0.34086 0.0
C675 C 0.77563 0.35809 0.49227 0.0
C676 C 0.72684 0.33863 0.4811 0.0
C677 C 0.74614 0.32201 0.49405 0.0
C678 C 0.77039 0.33251 0.50175 0.0
C679 C 0.73281 0.36421 0.47246 0.0
N680 N 0.75748 0.373 0.47522 0.0
H681 H 0.79498 0.3652 0.4957 0.0
H682 H 0.71781 0.3763 0.46172 0.0
H683 H 0.77223 0.34438 0.42046 0.0
H684 H 0.76433 0.41212 0.35805 0.0
O685 O 0.80658 0.39601 0.44533 0.0
O686 O 0.78638 0.42975 0.42148 0.0
O687 O 0.73412 0.4193 0.43867 0.0
C688 C 0.80751 0.41695 0.42541 0.0
H689 H 0.75468 0.44872 0.57157 0.0
H690 H 0.77267 0.3321 0.34971 0.0
H691 H 0.70754 0.33162 0.47619 0.0
H692 H 0.78579 0.32055 0.51236 0.0
Co693 Co 0.8786 0.51898 0.70097 0.0
C694 C 0.85945 0.5433 0.77136 0.0
C695 C 0.83594 0.51148 0.75565 0.0
C696 C 0.82538 0.52306 0.78671 0.0
N697 N 0.85747 0.52409 0.74589 0.0
N698 N 0.84003 0.54331 0.7968 0.0
H699 H 0.87473 0.55718 0.77082 0.0
H700 H 0.82782 0.4955 0.74062 0.0
C701 C 0.86558 0.4689 0.66194 0.0
O702 O 0.88957 0.46545 0.65185 0.0
N703 N 0.89977 0.51561 0.65687 0.0
C704 C 0.92563 0.51665 0.65481 0.0
C705 C 0.93278 0.51613 0.61816 0.0
C706 C 0.89158 0.51543 0.62128 0.0
N707 N 0.91137 0.51534 0.59707 0.0
C708 C 0.92078 0.52211 0.75091 0.0
C709 C 0.94254 0.47513 0.73479 0.0
C710 C 0.95827 0.4944 0.74999 0.0
C711 C 0.94636 0.51738 0.76056 0.0
C712 C 0.91655 0.48049 0.72641 0.0
N713 N 0.90673 0.50464 0.73128 0.0
H714 H 0.91338 0.54108 0.75584 0.0
H715 H 0.90519 0.46578 0.71367 0.0
H716 H 0.93859 0.51857 0.67802 0.0
H717 H 0.87153 0.51613 0.61344 0.0
O718 O 0.88864 0.55506 0.7018 0.0
O719 O 0.85465 0.53886 0.67288 0.0
O720 O 0.86035 0.48481 0.68844 0.0
C721 C 0.869 0.55855 0.67995 0.0
H722 H 0.80757 0.51744 0.7999 0.0
H723 H 0.9523 0.51672 0.60784 0.0
H724 H 0.95057 0.45678 0.72683 0.0
H725 H 0.95733 0.53256 0.77357 0.0
Co726 Co 0.76008 0.63014 0.95227 0.0
C727 C 0.73811 0.6116 0.02444 0.0
C728 C 0.77019 0.58862 1.00765 0.0
C729 C 0.75978 0.57828 0.03971 0.0
N730 N 0.75669 0.60965 0.99795 0.0
N731 N 0.73957 0.59276 0.05056 0.0
H732 H 0.72332 0.62618 0.02415 0.0
H733 H 0.78587 0.58057 0.99181 0.0
C734 C 0.80983 0.61787 0.91158 0.0
O735 O 0.81272 0.6421 0.90253 0.0
N736 N 0.76186 0.65077 0.90748 0.0
C737 C 0.76058 0.67657 0.90503 0.0
C738 C 0.7623 0.68357 0.86838 0.0
C739 C 0.76313 0.64241 0.87204 0.0
N740 N 0.76431 0.66211 0.84781 0.0
C741 C 0.75836 0.67372 0.9999 0.0
C742 C 0.8073 0.69172 0.98616 0.0
C743 C 0.7891 0.70867 1.00133 0.0
C744 C 0.76479 0.69881 1.01 0.0
C745 C 0.80017 0.66641 0.97717 0.0
N746 N 0.77527 0.65846 0.98099 0.0
H747 H 0.73887 0.66752 1.00447 0.0
H748 H 0.81449 0.65382 0.9659 0.0
H749 H 0.75831 0.6896 0.92802 0.0
H750 H 0.76416 0.62238 0.86428 0.0
O751 O 0.72393 0.63997 0.9555 0.0
O752 O 0.73945 0.60581 0.92633 0.0
O753 O 0.79408 0.61194 0.93797 0.0
C754 C 0.71983 0.61988 0.93499 0.0
H755 H 0.76591 0.56057 0.05269 0.0
H756 H 0.76173 0.70297 0.85762 0.0
H757 H 0.82663 0.69821 0.98021 0.0
H758 H 0.75006 0.71099 0.02185 0.0
Co759 Co 0.65338 0.51524 0.20526 0.0
C760 C 0.67061 0.49472 0.27849 0.0
C761 C 0.69422 0.52612 0.26119 0.0
C762 C 0.70479 0.51525 0.29283 0.0
N763 N 0.67267 0.51329 0.25209 0.0
N764 N 0.68995 0.49538 0.30389 0.0
H765 H 0.6559 0.48011 0.27811 0.0
H766 H 0.70271 0.54125 0.24476 0.0
C767 C 0.66358 0.56457 0.16393 0.0
O768 O 0.63961 0.56662 0.15279 0.0
N769 N 0.63396 0.51537 0.15913 0.0
C770 C 0.60818 0.51374 0.15527 0.0
C771 C 0.60215 0.5138 0.11822 0.0
C772 C 0.64329 0.51529 0.12411 0.0
N773 N 0.62419 0.51495 0.09883 0.0
C774 C 0.60794 0.50987 0.24921 0.0
C775 C 0.58796 0.55816 0.23634 0.0
C776 C 0.57139 0.5389 0.24957 0.0
C777 C 0.58221 0.51494 0.25802 0.0
C778 C 0.61381 0.55234 0.2283 0.0
N779 N 0.62293 0.52785 0.23201 0.0
H780 H 0.61496 0.49061 0.25324 0.0
H781 H 0.62586 0.56729 0.21744 0.0
H782 H 0.5944 0.51236 0.17748 0.0
H783 H 0.66352 0.51628 0.11724 0.0
O784 O 0.64706 0.4784 0.20773 0.0
O785 O 0.68057 0.49744 0.18116 0.0
O786 O 0.66876 0.55057 0.19259 0.0
C787 C 0.6684 0.47652 0.18907 0.0
H788 H 0.72305 0.52054 0.30496 0.0
H789 H 0.58305 0.51287 0.10634 0.0
H790 H 0.5808 0.57732 0.23095 0.0
H791 H 0.57042 0.49952 0.26874 0.0
Co792 Co 0.26064 0.39957 0.45013 0.0
C793 C 0.23562 0.42409 0.51715 0.0
C794 C 0.27632 0.43013 0.51574 0.0
C795 C 0.26663 0.44064 0.54806 0.0
N796 N 0.25695 0.41981 0.496 0.0
N797 N 0.24091 0.43704 0.5491 0.0
H798 H 0.21659 0.41756 0.5097 0.0
H799 H 0.29637 0.42926 0.50795 0.0
C800 C 0.30964 0.41469 0.40889 0.0
O801 O 0.31303 0.39107 0.39729 0.0
N802 N 0.26322 0.37893 0.40551 0.0
C803 C 0.26214 0.35311 0.4035 0.0
C804 C 0.26187 0.34596 0.36687 0.0
C805 C 0.26284 0.38713 0.36992 0.0
N806 N 0.26206 0.36735 0.34584 0.0
C807 C 0.26069 0.35765 0.50042 0.0
C808 C 0.30792 0.33744 0.48137 0.0
C809 C 0.29 0.32134 0.49906 0.0
C810 C 0.26665 0.33234 0.51033 0.0
C811 C 0.3012 0.36287 0.47225 0.0
N812 N 0.27695 0.37188 0.47891 0.0
H813 H 0.24184 0.36494 0.5072 0.0
H814 H 0.31507 0.37455 0.45818 0.0
H815 H 0.26089 0.34018 0.42686 0.0
H816 H 0.26246 0.40714 0.36185 0.0
O817 O 0.22493 0.38812 0.45342 0.0
O818 O 0.23874 0.42293 0.42405 0.0
O819 O 0.29372 0.41923 0.43567 0.0
C820 C 0.21987 0.40774 0.43226 0.0
H821 H 0.27802 0.44923 0.56987 0.0
H822 H 0.26147 0.32648 0.35658 0.0
H823 H 0.32656 0.33012 0.47324 0.0
H824 H 0.25212 0.32093 0.52409 0.0
Co825 Co 0.37917 0.5135 0.20072 0.0
C826 C 0.355 0.48693 0.26626 0.0
C827 C 0.34841 0.52747 0.26745 0.0
C828 C 0.33835 0.51664 0.29943 0.0
N829 N 0.35883 0.50886 0.24636 0.0
N830 N 0.34262 0.49107 0.29904 0.0
H831 H 0.36122 0.46828 0.25694 0.0
H832 H 0.34881 0.54769 0.26074 0.0
C833 C 0.36793 0.56392 0.16264 0.0
O834 O 0.39243 0.56791 0.15623 0.0
N835 N 0.40001 0.51684 0.15616 0.0
C836 C 0.4259 0.51595 0.15381 0.0
C837 C 0.43295 0.5181 0.11723 0.0
C838 C 0.3917 0.51856 0.12068 0.0
N839 N 0.41145 0.51991 0.09659 0.0
C840 C 0.42272 0.50894 0.24821 0.0
C841 C 0.44181 0.55779 0.23782 0.0
C842 C 0.4587 0.53849 0.25022 0.0
C843 C 0.44825 0.51426 0.25782 0.0
C844 C 0.41614 0.55169 0.2291 0.0
N845 N 0.40775 0.52688 0.23076 0.0
H846 H 0.4158 0.48959 0.25179 0.0
H847 H 0.40361 0.56672 0.21966 0.0
H848 H 0.43898 0.51341 0.17675 0.0
H849 H 0.37165 0.51932 0.11269 0.0
O850 O 0.38846 0.47715 0.2006 0.0
O851 O 0.35454 0.49448 0.17282 0.0
O852 O 0.36152 0.54816 0.1888 0.0
C853 C 0.36861 0.47439 0.17894 0.0
H854 H 0.32932 0.52706 0.32188 0.0
H855 H 0.45238 0.51767 0.1065 0.0
H856 H 0.44861 0.5772 0.23356 0.0
H857 H 0.46023 0.49887 0.26833 0.0
Co858 Co 0.27071 0.63136 0.94865 0.0
C859 C 0.29596 0.61133 0.01811 0.0
C860 C 0.25946 0.59345 1.00918 0.0
C861 C 0.27055 0.58317 0.04093 0.0
N862 N 0.27541 0.61114 0.99459 0.0
N863 N 0.29369 0.59423 0.04658 0.0
H864 H 0.31222 0.62397 1.01465 0.0
H865 H 0.24112 0.58802 0.9975 0.0
C866 C 0.22124 0.61666 0.90856 0.0
O867 O 0.21781 0.64037 0.89721 0.0
N868 N 0.26756 0.65188 0.90385 0.0
C869 C 0.26809 0.67771 0.90139 0.0
C870 C 0.2684 0.68466 0.86465 0.0
C871 C 0.26825 0.64351 0.86839 0.0
N872 N 0.26879 0.66315 0.84399 0.0
C873 C 0.27157 0.67434 0.99724 0.0
C874 C 0.22331 0.69303 0.98029 0.0
C875 C 0.24149 0.70997 0.99559 0.0
C876 C 0.26529 0.69972 1.00632 0.0
C877 C 0.2303 0.66755 0.97213 0.0
N878 N 0.25498 0.65926 0.97751 0.0
H879 H 0.29082 0.66771 1.00304 0.0
H880 H 0.21625 0.65521 0.95966 0.0
H881 H 0.26898 0.69084 0.92446 0.0
H882 H 0.26905 0.62346 0.86065 0.0
O883 O 0.3066 0.64243 0.95054 0.0
O884 O 0.29187 0.60763 0.92224 0.0
O885 O 0.23724 0.61199 0.93526 0.0
C886 C 0.31109 0.62251 0.9298 0.0
H887 H 0.2624 0.56814 0.05798 0.0
H888 H 0.26845 0.70409 0.85404 0.0
H889 H 0.20421 0.69972 0.97315 0.0
H890 H 0.27983 0.71177 0.01889 0.0
Co891 Co 0.15162 0.51659 0.70113 0.0
C892 C 0.17578 0.54389 0.76625 0.0
C893 C 0.18128 0.50323 0.76921 0.0
C894 C 0.19134 0.51432 0.80096 0.0
N895 N 0.17154 0.52172 0.74715 0.0
N896 N 0.18777 0.53998 0.79947 0.0
H897 H 0.17011 0.56251 0.75607 0.0
H898 H 0.18043 0.48292 0.76329 0.0
C899 C 0.16615 0.46668 0.66317 0.0
O900 O 0.14257 0.46217 0.65197 0.0
N901 N 0.13129 0.51279 0.65624 0.0
C902 C 0.10553 0.51474 0.65317 0.0
C903 C 0.099 0.5146 0.61624 0.0
C904 C 0.14007 0.51235 0.62101 0.0
N905 N 0.12074 0.51315 0.596 0.0
C906 C 0.1098 0.52026 0.75105 0.0
C907 C 0.0866 0.47419 0.73352 0.0
C908 C 0.07153 0.49363 0.74962 0.0
C909 C 0.08408 0.51619 0.76066 0.0
C910 C 0.11257 0.47898 0.72481 0.0
N911 N 0.12306 0.5027 0.73053 0.0
H912 H 0.11827 0.5387 0.75707 0.0
H913 H 0.12336 0.46424 0.71113 0.0
H914 H 0.09229 0.51729 0.67592 0.0
H915 H 0.16027 0.51257 0.61406 0.0
O916 O 0.14153 0.55276 0.70037 0.0
O917 O 0.17612 0.53605 0.67368 0.0
O918 O 0.17012 0.48233 0.69044 0.0
C919 C 0.16152 0.55583 0.67906 0.0
H920 H 0.19988 0.50403 0.82403 0.0
H921 H 0.0797 0.51605 0.60517 0.0
H922 H 0.07801 0.45621 0.72508 0.0
H923 H 0.07358 0.53144 0.77432 0.0
Co924 Co 0.26286 0.62835 0.58182 0.0
C925 C 0.24114 0.6087 0.50984 0.0
C926 C 0.27328 0.58622 0.52786 0.0
C927 C 0.26312 0.57532 0.49609 0.0
N928 N 0.25959 0.60729 0.53667 0.0
N929 N 0.24288 0.58949 0.48436 0.0
H930 H 0.22624 0.62316 0.50946 0.0
H931 H 0.28896 0.57852 0.54409 0.0
C932 C 0.31225 0.61564 0.62363 0.0
O933 O 0.31546 0.63965 0.63358 0.0
N934 N 0.26458 0.64945 0.62609 0.0
C935 C 0.26279 0.67524 0.6278 0.0
C936 C 0.26401 0.68267 0.6643 0.0
C937 C 0.26561 0.6415 0.66179 0.0
N938 N 0.26619 0.66147 0.68552 0.0
C939 C 0.26117 0.67093 0.53232 0.0
C940 C 0.30913 0.6906 0.54832 0.0
C941 C 0.2908 0.70685 0.53172 0.0
C942 C 0.26703 0.69614 0.52203 0.0
C943 C 0.30253 0.6652 0.55773 0.0
N944 N 0.27804 0.6564 0.55254 0.0
H945 H 0.24198 0.66412 0.52698 0.0
H946 H 0.3168 0.65332 0.57073 0.0
H947 H 0.26035 0.68795 0.6044 0.0
H948 H 0.26675 0.62157 0.67013 0.0
O949 O 0.22678 0.63825 0.57807 0.0
O950 O 0.2421 0.60434 0.60832 0.0
O951 O 0.2969 0.61035 0.59645 0.0
C952 C 0.22256 0.61847 0.59921 0.0
H953 H 0.26946 0.55744 0.48398 0.0
H954 H 0.26288 0.70216 0.67449 0.0
H955 H 0.32806 0.69775 0.55527 0.0
H956 H 0.25214 0.70772 0.50929 0.0
Co957 Co 0.15269 0.51005 0.33165 0.0
C958 C 0.17002 0.48625 0.25994 0.0
C959 C 0.19521 0.51648 0.27688 0.0
C960 C 0.20531 0.50479 0.24564 0.0
N961 N 0.17297 0.50493 0.28603 0.0
N962 N 0.18963 0.48552 0.23482 0.0
H963 H 0.15395 0.47321 0.25987 0.0
H964 H 0.20421 0.53165 0.29259 0.0
C965 C 0.16748 0.55947 0.37097 0.0
O966 O 0.14354 0.56366 0.38083 0.0
N967 N 0.13243 0.51351 0.37663 0.0
C968 C 0.10663 0.51236 0.37968 0.0
C969 C 0.10017 0.51304 0.41661 0.0
C970 C 0.14129 0.51404 0.41192 0.0
N971 N 0.12195 0.51411 0.43687 0.0
C972 C 0.10875 0.50947 0.28429 0.0
C973 C 0.09216 0.55882 0.29825 0.0
C974 C 0.07454 0.54113 0.28349 0.0
C975 C 0.08367 0.51661 0.27463 0.0
C976 C 0.11744 0.55101 0.30668 0.0
N977 N 0.12473 0.52594 0.30272 0.0
H978 H 0.11432 0.4898 0.2799 0.0
H979 H 0.1305 0.56492 0.31783 0.0
H980 H 0.09329 0.51042 0.35691 0.0
H981 H 0.16149 0.51482 0.41897 0.0
O982 O 0.14123 0.47443 0.32992 0.0
O983 O 0.17624 0.48877 0.35835 0.0
O984 O 0.17224 0.54345 0.34446 0.0
C985 C 0.16102 0.46978 0.35095 0.0
H986 H 0.22356 0.50949 0.23296 0.0
H987 H 0.08088 0.51211 0.42778 0.0
H988 H 0.0862 0.57827 0.30439 0.0
H989 H 0.07092 0.50228 0.26307 0.0
Co990 Co 0.27007 0.39763 0.08194 0.0
C991 C 0.29445 0.42266 1.01506 0.0
C992 C 0.2534 0.42546 1.01381 0.0
C993 C 0.26321 0.43613 0.98157 0.0
N994 N 0.27295 0.41709 0.03515 0.0
N995 N 0.28915 0.43457 0.98225 0.0
H996 H 0.3137 0.41782 0.02391 0.0
H997 H 0.23328 0.4232 0.02056 0.0
C998 C 0.22011 0.40997 0.12197 0.0
O999 O 0.21766 0.38589 0.13209 0.0
N1000 N 0.2686 0.37782 0.12757 0.0
C1001 C 0.2705 0.35209 0.13076 0.0
C1002 C 0.26898 0.34553 0.16758 0.0
C1003 C 0.26717 0.38662 0.1628 0.0
N1004 N 0.2665 0.36721 0.18756 0.0
C1005 C 0.27244 0.35348 0.03551 0.0
C1006 C 0.224 0.33463 0.05046 0.0
C1007 C 0.24258 0.31772 0.03613 0.0
C1008 C 0.26654 0.32802 0.02646 0.0
C1009 C 0.23064 0.36019 0.0586 0.0
N1010 N 0.25536 0.36855 0.05437 0.0
H1011 H 0.29164 0.36032 0.03004 0.0
H1012 H 0.21608 0.37269 0.06944 0.0
H1013 H 0.27307 0.33882 0.10813 0.0
H1014 H 0.2657 0.40672 0.17003 0.0
O1015 O 0.30636 0.38819 0.07937 0.0
O1016 O 0.29028 0.42275 0.10696 0.0
O1017 O 0.23582 0.41566 0.0954 0.0
C1018 C 0.31008 0.40862 0.09939 0.0
H1019 H 0.25183 0.44344 0.95874 0.0
H1020 H 0.26996 0.3263 0.17885 0.0
H1021 H 0.20475 0.32794 0.05649 0.0
H1022 H 0.28137 0.31601 1.01449 0.0
Co1023 Co 0.38122 0.51832 0.83374 0.0
C1024 C 0.36159 0.54188 0.76282 0.0
C1025 C 0.34153 0.50721 0.77596 0.0
C1026 C 0.331 0.51771 0.74408 0.0
N1027 N 0.36084 0.52229 0.78791 0.0
N1028 N 0.34366 0.53954 0.73546 0.0
H1029 H 0.37479 0.55783 0.76474 0.0
H1030 H 0.33485 0.49011 0.78992 0.0
C1031 C 0.36652 0.46937 0.87494 0.0
O1032 O 0.38997 0.46606 0.8876 0.0
N1033 N 0.40179 0.51596 0.87859 0.0
C1034 C 0.42758 0.51825 0.88107 0.0
C1035 C 0.43439 0.5201 0.91779 0.0
C1036 C 0.39327 0.51709 0.91396 0.0
N1037 N 0.41278 0.51963 0.93832 0.0
C1038 C 0.42411 0.51958 0.78476 0.0
C1039 C 0.44425 0.47222 0.8032 0.0
C1040 C 0.46047 0.49026 0.78608 0.0
C1041 C 0.44955 0.51373 0.7752 0.0
C1042 C 0.41868 0.47878 0.81191 0.0
N1043 N 0.40956 0.50298 0.80528 0.0
H1044 H 0.41703 0.53858 0.77862 0.0
H1045 H 0.40699 0.46486 0.82591 0.0
H1046 H 0.44067 0.51959 0.85794 0.0
H1047 H 0.37315 0.51694 0.92162 0.0
O1048 O 0.39153 0.55432 0.83132 0.0
O1049 O 0.35699 0.53902 0.85987 0.0
O1050 O 0.36253 0.4846 0.84715 0.0
C1051 C 0.37156 0.55845 0.85223 0.0
H1052 H 0.31441 0.5103 0.72952 0.0
H1053 H 0.45375 0.52192 0.9285 0.0
H1054 H 0.45157 0.45356 0.81124 0.0
H1055 H 0.46112 0.5284 0.76205 0.0
C1056 C 0.17868 0.07718 0.19608 0.0
C1057 C 0.19444 0.05654 0.20735 0.0
C1058 C 0.18627 0.09433 0.16761 0.0
C1059 C 0.20986 0.09158 0.14855 0.0
H1060 H 0.16033 0.08022 0.20948 0.0
H1061 H 0.17367 0.11023 0.16087 0.0
S1062 S 0.25955 0.04268 0.17018 0.0
N1063 N 0.23582 0.03577 0.19883 0.0
N1064 N 0.24961 0.06733 0.14516 0.0
C1065 C 0.22578 0.07103 0.15955 0.0
C1066 C 0.21822 0.05375 0.18885 0.0
C1067 C 0.17894 0.9463 0.43373 0.0
C1068 C 0.18459 0.96143 0.40207 0.0
C1069 C 0.19811 0.93821 0.45899 0.0
C1070 C 0.22418 0.94477 0.45428 0.0
H1071 H 0.15925 0.94115 0.43991 0.0
H1072 H 0.19217 0.92746 0.48322 0.0
S1073 S 0.25015 0.98221 0.3746 0.0
N1074 N 0.21888 0.98146 0.36674 0.0
N1075 N 0.25481 0.96596 0.41343 0.0
C1076 C 0.23036 0.95911 0.42204 0.0
C1077 C 0.21072 0.96741 0.39623 0.0
C1078 C 0.33651 0.92445 0.67997 0.0
C1079 C 0.32335 0.93133 0.64699 0.0
C1080 C 0.34293 0.94258 0.7075 0.0
C1081 C 0.33656 0.96875 0.70382 0.0
H1082 H 0.34138 0.90458 0.68531 0.0
H1083 H 0.35225 0.93578 0.73252 0.0
S1084 S 0.30424 0.99775 0.62156 0.0
N1085 N 0.30549 0.96686 0.61167 0.0
N1086 N 0.31793 1.0009 0.6627 0.0
C1087 C 0.3242 0.97617 0.67042 0.0
C1088 C 0.31759 0.95758 0.6423 0.0
C1089 C 0.32155 0.05885 0.89976 0.0
C1090 C 0.34702 0.06812 0.89916 0.0
C1091 C 0.30406 0.06584 0.92819 0.0
C1092 C 0.31104 0.08243 0.95768 0.0
H1093 H 0.31526 0.04535 0.87883 0.0
H1094 H 0.2849 0.05781 0.92721 0.0
S1095 S 0.37527 0.1128 0.96871 0.0
N1096 N 0.37782 0.09592 0.93023 0.0
N1097 N 0.34567 0.10809 0.98352 0.0
C1098 C 0.33627 0.09234 0.95679 0.0
C1099 C 0.35396 0.08543 0.92774 0.0
C1100 C 0.18919 0.93762 0.85959 0.0
C1101 C 0.21072 0.94022 0.88328 0.0
C1102 C 0.18329 0.95591 0.83179 0.0
C1103 C 0.19877 0.97773 0.82582 0.0
H1104 H 0.1769 0.92095 0.86208 0.0
H1105 H 0.16644 0.95283 0.81476 0.0
S1106 S 0.2586 0.99287 0.87822 0.0
N1107 N 0.24804 0.96624 0.8978 0.0
N1108 N 0.23758 1.00001 0.8454 0.0
C1109 C 0.22045 0.98056 0.84928 0.0
C1110 C 0.22624 0.96205 0.87792 0.0
C1111 C 0.32654 0.92998 0.08845 0.0
C1112 C 0.30766 0.94711 0.07508 0.0
C1113 C 0.34407 0.93715 0.11672 0.0
C1114 C 0.34337 0.96165 0.13349 0.0
H1115 H 0.32787 0.91088 0.07686 0.0
H1116 H 0.35868 0.92348 0.12508 0.0
S1117 S 0.30037 1.01494 0.1048 0.0
N1118 N 0.2913 0.9907 0.07847 0.0
N1119 N 0.32337 1.00368 0.13193 0.0
C1120 C 0.32469 0.97897 0.1202 0.0
C1121 C 0.30713 0.97185 0.09104 0.0
C1122 C 0.31035 0.07151 0.37937 0.0
C1123 C 0.32455 0.09401 0.38656 0.0
C1124 C 0.31779 0.05394 0.35132 0.0
C1125 C 0.33983 0.05793 0.32895 0.0
H1126 H 0.29263 0.06802 0.3943 0.0
H1127 H 0.30561 0.03749 0.34635 0.0
S1128 S 0.38545 0.11227 0.33962 0.0
N1129 N 0.36287 0.11816 0.37062 0.0
N1130 N 0.37705 0.08524 0.31915 0.0
C1131 C 0.35477 0.0798 0.33709 0.0
C1132 C 0.34712 0.09769 0.36545 0.0
C1133 C 0.18303 0.09786 0.61125 0.0
C1134 C 0.1873 0.0787 0.63843 0.0
C1135 C 0.20097 0.10308 0.5828 0.0
C1136 C 0.22421 0.08929 0.57954 0.0
H1137 H 0.16538 0.10889 0.6116 0.0
H1138 H 0.19649 0.1182 0.56321 0.0
S1139 S 0.24444 0.03603 0.64227 0.0
N1140 N 0.21681 0.04573 0.65978 0.0
N1141 N 0.24978 0.05451 0.60582 0.0
C1142 C 0.22876 0.06996 0.60652 0.0
C1143 C 0.21059 0.06497 0.63594 0.0
C1144 C 0.81564 0.97393 0.84938 0.0
C1145 C 0.83742 0.96955 0.82667 0.0
C1146 C 0.80823 0.95656 0.87773 0.0
C1147 C 0.82221 0.93388 0.88487 0.0
H1148 H 0.80366 0.99058 0.84452 0.0
H1149 H 0.79072 0.96039 0.89301 0.0
S1150 S 0.88226 0.9144 0.83664 0.0
N1151 N 0.87407 0.94155 0.81617 0.0
N1152 N 0.85996 0.90898 0.86823 0.0
C1153 C 0.84447 0.92972 0.86327 0.0
C1154 C 0.85209 0.94742 0.83459 0.0
C1155 C 0.80636 0.07471 0.61155 0.0
C1156 C 0.81391 0.08686 0.57812 0.0
C1157 C 0.82447 0.06687 0.63876 0.0
C1158 C 0.85109 0.07087 0.63406 0.0
H1159 H 0.78622 0.07099 0.61668 0.0
H1160 H 0.81753 0.05712 0.66334 0.0
S1161 S 0.8813 0.10106 0.5509 0.0
N1162 N 0.85027 0.1016 0.54173 0.0
N1163 N 0.88386 0.08802 0.59246 0.0
C1164 C 0.85881 0.08341 0.60091 0.0
C1165 C 0.84043 0.09109 0.57317 0.0
C1166 C 0.69903 0.09914 0.35435 0.0
C1167 C 0.71417 0.09315 0.38586 0.0
C1168 C 0.69195 0.08051 0.32795 0.0
C1169 C 0.6995 0.05463 0.33134 0.0
H1170 H 0.69306 0.11873 0.34919 0.0
H1171 H 0.68112 0.08678 0.30394 0.0
S1172 S 0.73757 0.02788 0.40996 0.0
N1173 N 0.73548 0.05878 0.41955 0.0
N1174 N 0.72179 0.02371 0.3706 0.0
C1175 C 0.71399 0.04806 0.36329 0.0
C1176 C 0.7213 0.06721 0.3903 0.0
C1177 C 0.72617 0.96767 0.09628 0.0
C1178 C 0.72562 0.94279 0.08083 0.0
C1179 C 0.71115 0.9744 0.12741 0.0
C1180 C 0.69494 0.95656 0.14537 0.0
H1181 H 0.73817 0.98231 0.0839 0.0
H1182 H 0.71236 0.99392 0.13753 0.0
S1183 S 0.68626 0.88868 0.11639 0.0
N1184 N 0.70725 0.90014 0.08629 0.0
N1185 N 0.67923 0.91264 0.14458 0.0
C1186 C 0.69419 0.93155 0.13027 0.0
C1187 C 0.70935 0.92475 0.09817 0.0
C1188 C 0.83471 0.09292 0.16741 0.0
C1189 C 0.81573 0.0865 0.1409 0.0
C1190 C 0.83931 0.07784 0.1994 0.0
C1191 C 0.82532 0.05521 0.20657 0.0
H1192 H 0.84735 0.10903 0.16215 0.0
H1193 H 0.85509 0.08319 0.21735 0.0
S1194 S 0.77103 0.03141 0.14849 0.0
N1195 N 0.78167 0.05671 0.12554 0.0
N1196 N 0.78897 0.02924 0.18624 0.0
C1197 C 0.80492 0.0496 0.18164 0.0
C1198 C 0.80048 0.06491 0.14877 0.0
C1199 C 0.67518 0.08104 0.93261 0.0
C1200 C 0.68227 0.06838 0.89936 0.0
C1201 C 0.69328 0.08745 0.9603 0.0
C1202 C 0.71956 0.08156 0.95642 0.0
H1203 H 0.65519 0.08542 0.93807 0.0
H1204 H 0.68642 0.0963 0.98558 0.0
S1205 S 0.7491 0.05101 0.87336 0.0
N1206 N 0.71809 0.05174 0.86356 0.0
N1207 N 0.75206 0.06425 0.91475 0.0
C1208 C 0.72717 0.06987 0.92269 0.0
C1209 C 0.70864 0.06322 0.89449 0.0
C1210 C 0.70567 0.97499 0.67547 0.0
C1211 C 0.68971 0.9681 0.70575 0.0
C1212 C 0.71266 0.95724 0.64749 0.0
C1213 C 0.70402 0.93161 0.64814 0.0
H1214 H 0.71326 0.99425 0.67358 0.0
H1215 H 0.72573 0.96349 0.62591 0.0
S1216 S 0.6608 0.90356 0.71984 0.0
N1217 N 0.66502 0.93344 0.73345 0.0
N1218 N 0.67729 0.90075 0.681 0.0
C1219 C 0.6872 0.92475 0.67739 0.0
C1220 C 0.68027 0.94272 0.70599 0.0
C1221 C 0.82945 0.93727 0.45766 0.0
C1222 C 0.80309 0.94267 0.45326 0.0
C1223 C 0.84771 0.94432 0.43065 0.0
C1224 C 0.84077 0.95721 0.39748 0.0
H1225 H 0.8363 0.92823 0.48286 0.0
H1226 H 0.8677 0.94021 0.43663 0.0
S1227 S 0.7739 0.97328 0.3698 0.0
N1228 N 0.7707 0.95974 0.41103 0.0
N1229 N 0.80502 0.97336 0.36085 0.0
C1230 C 0.81434 0.96189 0.39195 0.0
C1231 C 0.79561 0.95461 0.41957 0.0
C1232 C 0.71443 0.55322 0.68281 0.0
C1233 C 0.694 0.5578 0.70792 0.0
C1234 C 0.72159 0.57133 0.65532 0.0
C1235 C 0.7087 0.595 0.65146 0.0
H1236 H 0.72557 0.53575 0.68503 0.0
H1237 H 0.73807 0.56714 0.63799 0.0
S1238 S 0.65217 0.61568 0.70707 0.0
N1239 N 0.65965 0.58731 0.72437 0.0
N1240 N 0.67328 0.62118 0.67385 0.0
C1241 C 0.68773 0.59946 0.67553 0.0
C1242 C 0.68038 0.58102 0.70337 0.0
C1243 C 0.68959 0.43513 0.92064 0.0
C1244 C 0.69206 0.45702 0.89767 0.0
C1245 C 0.70803 0.4288 0.94806 0.0
C1246 C 0.72991 0.44417 0.9544 0.0
H1247 H 0.67288 0.4229 0.9179 0.0
H1248 H 0.70501 0.41169 0.96451 0.0
S1249 S 0.74477 0.50476 0.90378 0.0
N1250 N 0.71804 0.49448 0.8841 0.0
N1251 N 0.75208 0.48329 0.93585 0.0
C1252 C 0.73263 0.46619 0.93159 0.0
C1253 C 0.71396 0.47241 0.90329 0.0
C1254 C 0.8115 0.47386 0.20924 0.0
C1255 C 0.83265 0.49032 0.20384 0.0
C1256 C 0.8016 0.45867 0.17992 0.0
C1257 C 0.81297 0.45866 0.14429 0.0
H1258 H 0.80243 0.47291 0.23624 0.0
H1259 H 0.78545 0.4463 0.18564 0.0
S1260 S 0.86846 0.49892 0.11585 0.0
N1261 N 0.86394 0.50639 0.1599 0.0
N1262 N 0.84637 0.4773 0.10566 0.0
C1263 C 0.83403 0.47525 0.13875 0.0
C1264 C 0.84359 0.49115 0.16822 0.0
C1265 C 0.83437 0.59686 0.46164 0.0
C1266 C 0.80852 0.58926 0.45771 0.0
C1267 C 0.85305 0.59099 0.43463 0.0
C1268 C 0.84707 0.57716 0.402 0.0
H1269 H 0.84056 0.60671 0.48649 0.0
H1270 H 0.87266 0.59679 0.44016 0.0
S1271 S 0.78177 0.55459 0.3761 0.0
N1272 N 0.77758 0.56867 0.41669 0.0
N1273 N 0.81271 0.55723 0.36662 0.0
C1274 C 0.82111 0.57018 0.39697 0.0
C1275 C 0.80195 0.57624 0.42456 0.0
C1276 C 0.68783 0.45076 0.32879 0.0
C1277 C 0.69565 0.47648 0.33284 0.0
C1278 C 0.69453 0.43174 0.35492 0.0
C1279 C 0.70947 0.43725 0.38674 0.0
H1280 H 0.67713 0.44492 0.30447 0.0
H1281 H 0.68845 0.41226 0.34935 0.0
S1282 S 0.73331 0.50197 0.41254 0.0
N1283 N 0.71784 0.50674 0.37305 0.0
N1284 N 0.73082 0.471 0.42151 0.0
C1285 C 0.71677 0.46306 0.39188 0.0
C1286 C 0.70986 0.48256 0.36518 0.0
C1287 C 0.82158 0.47159 0.63082 0.0
C1288 C 0.84499 0.45845 0.63641 0.0
C1289 C 0.8042 0.46447 0.60229 0.0
C1290 C 0.80928 0.44385 0.57777 0.0
H1291 H 0.81707 0.48821 0.64761 0.0
H1292 H 0.78691 0.47578 0.5988 0.0
S1293 S 0.86675 0.40154 0.5827 0.0
N1294 N 0.87146 0.42269 0.61605 0.0
N1295 N 0.83896 0.40922 0.56354 0.0
C1296 C 0.83224 0.43004 0.58395 0.0
C1297 C 0.84993 0.43733 0.61287 0.0
C1298 C 0.81861 0.55461 0.85724 0.0
C1299 C 0.83468 0.56152 0.82704 0.0
C1300 C 0.8117 0.57227 0.88547 0.0
C1301 C 0.82056 0.59784 0.88527 0.0
H1302 H 0.81095 0.53538 0.85904 0.0
H1303 H 0.79861 0.56597 0.90699 0.0
S1304 S 0.86394 0.62606 0.81389 0.0
N1305 N 0.8595 0.59632 0.79985 0.0
N1306 N 0.84747 0.6287 0.85275 0.0
C1307 C 0.83737 0.60475 0.85602 0.0
C1308 C 0.84418 0.58691 0.82713 0.0
C1309 C 0.67741 0.58779 0.10549 0.0
C1310 C 0.68437 0.57419 0.13803 0.0
C1311 C 0.69547 0.59426 0.07782 0.0
C1312 C 0.72162 0.58748 0.08093 0.0
H1313 H 0.65752 0.59296 0.1006 0.0
H1314 H 0.6886 0.60392 0.05311 0.0
S1315 S 0.75082 0.55365 0.16176 0.0
N1316 N 0.71997 0.55533 0.17226 0.0
N1317 N 0.75386 0.56787 0.12099 0.0
C1318 C 0.72913 0.57466 0.1139 0.0
C1319 C 0.71063 0.56801 0.14216 0.0
C1320 C 0.31438 0.47695 0.35172 0.0
C1321 C 0.33576 0.47263 0.32819 0.0
C1322 C 0.30692 0.45907 0.37938 0.0
C1323 C 0.32046 0.43591 0.38498 0.0
H1324 H 0.30273 0.49397 0.34803 0.0
H1325 H 0.28971 0.46293 0.39532 0.0
S1326 S 0.37952 0.41633 0.33431 0.0
N1327 N 0.37167 0.44411 0.31541 0.0
N1328 N 0.35748 0.41065 0.36618 0.0
C1329 C 0.34238 0.43181 0.36263 0.0
C1330 C 0.35004 0.45001 0.33465 0.0
C1331 C 0.32191 0.57177 0.13932 0.0
C1332 C 0.34873 0.57322 0.13375 0.0
C1333 C 0.30416 0.57898 0.11116 0.0
C1334 C 0.31226 0.58789 0.07588 0.0
H1335 H 0.31452 0.56486 0.16558 0.0
H1336 H 0.28383 0.57752 0.11716 0.0
S1337 S 0.38021 0.59301 0.04518 0.0
N1338 N 0.38222 0.58324 0.08865 0.0
N1339 N 0.34921 0.59599 0.03664 0.0
C1340 C 0.33897 0.58911 0.06985 0.0
C1341 C 0.35701 0.58199 0.0984 0.0
C1342 C 0.22338 0.57204 0.87984 0.0
C1343 C 0.21034 0.59555 0.88452 0.0
C1344 C 0.21583 0.55408 0.85241 0.0
C1345 C 0.19484 0.55865 0.82816 0.0
H1346 H 0.24027 0.56789 0.89642 0.0
H1347 H 0.2271 0.53674 0.84951 0.0
S1348 S 0.15243 0.61605 0.8315 0.0
N1349 N 0.17417 0.6215 0.86393 0.0
N1350 N 0.15985 0.58792 0.81351 0.0
C1351 C 0.18108 0.58168 0.83359 0.0
C1352 C 0.18881 0.59996 0.86137 0.0
C1353 C 0.18394 0.4359 0.61539 0.0
C1354 C 0.18757 0.45774 0.63802 0.0
C1355 C 0.20135 0.4292 0.58689 0.0
C1356 C 0.2233 0.44412 0.57913 0.0
H1357 H 0.16708 0.42402 0.61925 0.0
H1358 H 0.19746 0.41219 0.57069 0.0
S1359 S 0.24087 0.50449 0.62802 0.0
N1360 N 0.21463 0.49476 0.64951 0.0
N1361 N 0.24682 0.48279 0.59581 0.0
C1362 C 0.22719 0.46609 0.60152 0.0
C1363 C 0.20956 0.47271 0.63088 0.0
C1364 C 0.34178 0.5842 0.71043 0.0
C1365 C 0.33757 0.55772 0.70565 0.0
C1366 C 0.33449 0.6023 0.6832 0.0
C1367 C 0.32254 0.59506 0.64946 0.0
H1368 H 0.35006 0.59121 0.73603 0.0
H1369 H 0.33766 0.62236 0.68941 0.0
S1370 S 0.30949 0.5279 0.62099 0.0
N1371 N 0.3225 0.52503 0.66263 0.0
N1372 N 0.30836 0.55897 0.61219 0.0
C1373 C 0.31895 0.56856 0.64371 0.0
C1374 C 0.32651 0.55001 0.67149 0.0
C1375 C 0.19928 0.59137 0.45537 0.0
C1376 C 0.22523 0.58368 0.45374 0.0
C1377 C 0.18142 0.5845 0.42763 0.0
C1378 C 0.18833 0.56943 0.39653 0.0
H1379 H 0.19234 0.60212 0.47899 0.0
H1380 H 0.16168 0.59051 0.43145 0.0
S1381 S 0.25437 0.54617 0.37651 0.0
N1382 N 0.25736 0.56176 0.41615 0.0
N1383 N 0.22372 0.5483 0.36499 0.0
C1384 C 0.21441 0.56231 0.39376 0.0
C1385 C 0.23276 0.56948 0.42201 0.0
C1386 C 0.21088 0.47379 0.17454 0.0
C1387 C 0.19462 0.46721 0.20466 0.0
C1388 C 0.21791 0.45585 0.14678 0.0
C1389 C 0.20901 0.4303 0.14745 0.0
H1390 H 0.21868 0.49296 0.17258 0.0
H1391 H 0.2312 0.46189 0.12536 0.0
S1392 S 0.16496 0.40301 0.21873 0.0
N1393 N 0.16936 0.4329 0.23217 0.0
N1394 N 0.18174 0.39987 0.1802 0.0
C1395 C 0.19192 0.42374 0.17655 0.0
C1396 C 0.18494 0.44192 0.20492 0.0
C1397 C 0.33109 0.42996 0.94897 0.0
C1398 C 0.30732 0.44265 0.95341 0.0
C1399 C 0.3493 0.43788 0.92225 0.0
C1400 C 0.34477 0.45883 0.89813 0.0
H1401 H 0.33584 0.41374 0.96648 0.0
H1402 H 0.36744 0.42771 0.92102 0.0
S1403 S 0.28617 0.49956 0.89861 0.0
N1404 N 0.28075 0.47806 0.9314 0.0
N1405 N 0.31459 0.4924 0.88109 0.0
C1406 C 0.32092 0.47147 0.9017 0.0
C1407 C 0.30239 0.46356 0.92922 0.0
C1408 C 0.25456 0.14215 0.28511 0.0
C1409 C 0.26973 0.1598 0.30483 0.0
C1410 C 0.25418 0.14223 0.24619 0.0
C1411 C 0.26904 0.15988 0.22593 0.0
H1412 H 0.24232 0.12883 0.29982 0.0
H1413 H 0.24161 0.12898 0.23186 0.0
S1414 S 0.3155 0.2066 0.26475 0.0
N1415 N 0.30222 0.19307 0.30149 0.0
N1416 N 0.30182 0.19303 0.22838 0.0
C1417 C 0.28537 0.17657 0.2454 0.0
C1418 C 0.28564 0.17656 0.28487 0.0
C1419 C 0.13281 1.00949 0.49942 0.0
C1420 C 0.11687 0.02635 0.47945 0.0
C1421 C 0.13353 1.01012 0.53824 0.0
C1422 C 0.1189 0.028 0.55817 0.0
H1423 H 0.14407 0.99516 0.48496 0.0
H1424 H 0.14469 0.99591 0.55291 0.0
S1425 S 0.07538 0.07727 0.5191 0.0
N1426 N 0.08672 0.06199 0.48245 0.0
N1427 N 0.08864 0.06332 0.55562 0.0
C1428 C 0.10322 0.04519 0.53864 0.0
C1429 C 0.10213 0.04437 0.49917 0.0
C1430 C 0.27904 0.85269 0.74552 0.0
C1431 C 0.26476 0.8707 0.72507 0.0
C1432 C 0.27905 0.85295 0.78429 0.0
C1433 C 0.2647 0.87119 0.80415 0.0
H1434 H 0.29029 0.83822 0.73136 0.0
H1435 H 0.29037 0.83869 0.79886 0.0
S1436 S 0.22365 0.92233 0.76356 0.0
N1437 N 0.23579 0.90728 0.72726 0.0
N1438 N 0.23566 0.90773 0.80045 0.0
C1439 C 0.25063 0.88966 0.78406 0.0
C1440 C 0.25069 0.88942 0.74442 0.0
C1441 C 0.39281 0.02266 0.99439 0.0
C1442 C 0.41164 1.00847 0.97533 0.0
C1443 C 0.39267 0.0237 0.03331 0.0
C1444 C 0.41163 1.011 0.05426 0.0
H1445 H 0.3786 0.03363 0.97911 0.0
H1446 H 0.37816 0.03512 0.04702 0.0
S1447 S 0.46144 0.96679 0.01791 0.0
N1448 N 0.44696 0.97812 0.98051 0.0
N1449 N 0.44706 0.98061 0.05348 0.0
C1450 C 0.42947 0.99545 0.03558 0.0
C1451 C 0.42943 0.99413 0.99615 0.0
C1452 C 0.75032 0.85041 0.74694 0.0
C1453 C 0.76309 0.86971 0.72688 0.0
C1454 C 0.75071 0.84994 0.78572 0.0
C1455 C 0.76402 0.86869 0.8061 0.0
H1456 H 0.73991 0.83548 0.73247 0.0
H1457 H 0.74042 0.83477 0.79985 0.0
S1458 S 0.80064 0.92347 0.76702 0.0
N1459 N 0.78901 0.90843 0.73039 0.0
N1460 N 0.79042 0.90712 0.80337 0.0
C1461 C 0.77654 0.8884 0.7865 0.0
C1462 C 0.77589 0.88903 0.74688 0.0
C1463 C 0.89219 0.02587 0.49615 0.0
C1464 C 0.90965 1.01145 0.47492 0.0
C1465 C 0.89334 0.02566 0.53511 0.0
C1466 C 0.91191 1.01092 0.55403 0.0
H1467 H 0.87807 0.03792 0.48261 0.0
H1468 H 0.88004 0.03754 0.55051 0.0
S1469 S 0.9587 0.96623 0.51091 0.0
N1470 N 0.94388 0.97984 0.47542 0.0
N1471 N 0.94579 0.97897 0.54845 0.0
C1472 C 0.92851 0.99538 0.53299 0.0
C1473 C 0.92743 0.99576 0.49349 0.0
C1474 C 0.78596 0.17639 0.28446 0.0
C1475 C 0.77532 0.15618 0.30529 0.0
C1476 C 0.78759 0.17516 0.24579 0.0
C1477 C 0.77888 0.1536 0.22606 0.0
H1478 H 0.79296 0.1935 0.29805 0.0
H1479 H 0.79538 0.19153 0.2311 0.0
S1480 S 0.75202 0.09404 0.26764 0.0
N1481 N 0.75714 0.11317 0.30329 0.0
N1482 N 0.76179 0.11022 0.23091 0.0
C1483 C 0.76985 0.13243 0.24666 0.0
C1484 C 0.76761 0.13391 0.28617 0.0
C1485 C 0.60623 0.03283 0.99902 0.0
C1486 C 0.62293 0.01635 0.9799 0.0
C1487 C 0.60723 0.03496 0.03763 0.0
C1488 C 0.62469 0.02036 0.05884 0.0
H1489 H 0.59223 0.04416 0.98391 0.0
H1490 H 0.59403 0.04809 0.05095 0.0
S1491 S 0.67308 0.97469 0.02175 0.0
N1492 N 0.65828 0.98603 0.98461 0.0
N1493 N 0.65941 0.98901 0.05749 0.0
C1494 C 0.64198 1.00422 0.03995 0.0
C1495 C 0.64127 1.00246 1.00041 0.0
C1496 C 0.75498 0.64245 0.74856 0.0
C1497 C 0.76918 0.66118 0.72936 0.0
C1498 C 0.75431 0.64213 0.78746 0.0
C1499 C 0.76744 0.66076 0.80826 0.0
H1500 H 0.74367 0.62852 0.7334 0.0
H1501 H 0.7428 0.62777 0.80133 0.0
S1502 S 0.81202 0.70996 0.77133 0.0
N1503 N 0.80007 0.69594 0.73407 0.0
N1504 N 0.79838 0.69561 0.80712 0.0
C1505 C 0.7831 0.6784 0.78941 0.0
C1506 C 0.784 0.67859 0.74995 0.0
C1507 C 0.64165 0.4987 1.0007 0.0
C1508 C 0.62525 0.51507 0.98049 0.0
C1509 C 0.64215 0.4994 0.03968 0.0
C1510 C 0.62627 0.51648 0.05926 0.0
H1511 H 0.65331 0.48466 0.98632 0.0
H1512 H 0.65411 0.48585 0.05464 0.0
S1513 S 0.58385 0.56639 0.01907 0.0
N1514 N 0.59563 0.5511 0.98275 0.0
N1515 N 0.59642 0.55217 0.05586 0.0
C1516 C 0.61111 0.53394 0.03927 0.0
C1517 C 0.61064 0.5333 0.99986 0.0
C1518 C 0.75078 0.3618 0.27971 0.0
C1519 C 0.76963 0.37409 0.30109 0.0
C1520 C 0.75336 0.35966 0.24111 0.0
C1521 C 0.77502 0.3696 0.22257 0.0
H1522 H 0.73419 0.35339 0.29315 0.0
H1523 H 0.73833 0.35007 0.22567 0.0
S1524 S 0.83034 0.40234 0.26638 0.0
N1525 N 0.81104 0.39533 0.30135 0.0
N1526 N 0.81567 0.39195 0.22862 0.0
C1527 C 0.79379 0.38227 0.24363 0.0
C1528 C 0.7912 0.38428 0.28298 0.0
C1529 C 0.92976 0.52885 0.53726 0.0
C1530 C 0.9103 0.51613 0.55711 0.0
C1531 C 0.92999 0.52907 0.49851 0.0
C1532 C 0.91065 0.51683 0.47792 0.0
H1533 H 0.94497 0.53882 0.55175 0.0
H1534 H 0.94542 0.53906 0.48449 0.0
S1535 S 0.85511 0.48093 0.5162 0.0
N1536 N 0.87116 0.4907 0.55312 0.0
N1537 N 0.8711 0.49207 0.48003 0.0
C1538 C 0.89062 0.5046 0.49723 0.0
C1539 C 0.89058 0.50401 0.53689 0.0
C1540 C 0.27624 0.38755 0.24781 0.0
C1541 C 0.26317 0.36885 0.22706 0.0
C1542 C 0.27542 0.38736 0.28674 0.0
C1543 C 0.26115 0.36868 0.30599 0.0
H1544 H 0.2878 0.40185 0.23389 0.0
H1545 H 0.28664 0.40136 0.30189 0.0
S1546 S 0.21844 0.31977 0.2639 0.0
N1547 N 0.23226 0.334 0.22817 0.0
N1548 N 0.23024 0.33391 0.30117 0.0
C1549 C 0.24641 0.3512 0.28535 0.0
C1550 C 0.24747 0.35127 0.24591 0.0
C1551 C 0.39332 0.5065 0.99771 0.0
C1552 C 0.41094 0.52173 0.97798 0.0
C1553 C 0.39287 0.50665 0.03661 0.0
C1554 C 0.41013 0.52191 0.0569 0.0
H1555 H 0.38048 0.49372 0.98299 0.0
H1556 H 0.37966 0.49404 0.05086 0.0
S1557 S 0.45641 0.5688 0.01833 0.0
N1558 N 0.44341 0.55513 0.98151 0.0
N1559 N 0.44283 0.55502 0.05464 0.0
C1560 C 0.42675 0.53828 0.03748 0.0
C1561 C 0.4271 0.53828 0.99799 0.0
C1562 C 0.25616 0.64173 0.74616 0.0
C1563 C 0.26889 0.6606 0.72521 0.0
C1564 C 0.25653 0.64234 0.78508 0.0
C1565 C 0.27007 0.66157 0.8042 0.0
H1566 H 0.24524 0.62689 0.73239 0.0
H1567 H 0.24557 0.62815 0.80029 0.0
S1568 S 0.31181 0.71128 0.76195 0.0
N1569 N 0.29876 0.69635 0.72624 0.0
N1570 N 0.30006 0.69713 0.79926 0.0
C1571 C 0.28452 0.67927 0.78349 0.0
C1572 C 0.28385 0.67883 0.74401 0.0
C1573 C 0.10411 0.52784 0.4968 0.0
C1574 C 0.12351 0.51519 0.4768 0.0
C1575 C 0.10371 0.52752 0.53557 0.0
C1576 C 0.12259 0.51434 0.5561 0.0
H1577 H 0.08899 0.53807 0.48231 0.0
H1578 H 0.08838 0.53769 0.54953 0.0
S1579 S 0.17823 0.47876 0.51721 0.0
N1580 N 0.16288 0.49005 0.48053 0.0
N1581 N 0.1616 0.48861 0.55347 0.0
C1582 C 0.14255 0.50212 0.53655 0.0
C1583 C 0.14315 0.50277 0.4969 0.0
C1584 C 0.34815 0.09882 0.18503 0.0
C1585 C 0.36789 0.08525 0.16741 0.0
C1586 C 0.33078 0.11337 0.16419 0.0
C1587 C 0.33276 0.11468 0.12529 0.0
H1588 H 0.34393 0.09533 0.21406 0.0
H1589 H 0.31408 0.12104 0.17817 0.0
S1590 S 0.38554 0.08881 0.06804 0.0
N1591 N 0.39199 0.07867 0.11054 0.0
N1592 N 0.35899 0.1061 0.07118 0.0
C1593 C 0.3547 0.10468 0.10829 0.0
C1594 C 0.37249 0.0899 0.12957 0.0
C1595 C 0.18425 0.10008 0.34944 0.0
C1596 C 0.16462 0.08658 0.3674 0.0
C1597 C 0.2017 0.1147 0.36995 0.0
C1598 C 0.19999 0.11612 0.40884 0.0
H1599 H 0.18823 0.09662 0.32034 0.0
H1600 H 0.21825 0.12247 0.35578 0.0
S1601 S 0.14831 0.08945 0.46739 0.0
N1602 N 0.14127 0.07974 0.42493 0.0
N1603 N 0.1746 0.10699 0.46358 0.0
C1604 C 0.17837 0.10587 0.42632 0.0
C1605 C 0.16044 0.09111 0.4054 0.0
C1606 C 0.19025 0.91831 0.64162 0.0
C1607 C 0.20112 0.92431 0.6069 0.0
C1608 C 0.17693 0.93708 0.66208 0.0
C1609 C 0.17522 0.96235 0.64867 0.0
H1610 H 0.19449 0.90006 0.65472 0.0
H1611 H 0.17041 0.93252 0.68986 0.0
S1612 S 0.19941 0.9865 0.55798 0.0
N1613 N 0.20673 0.95575 0.55829 0.0
N1614 N 0.18425 0.99158 0.59748 0.0
C1615 C 0.18437 0.96772 0.61269 0.0
C1616 C 0.19653 0.94841 0.59142 0.0
C1617 C 0.3469 0.92747 0.84855 0.0
C1618 C 0.36559 0.94257 0.86588 0.0
C1619 C 0.33015 0.91254 0.86982 0.0
C1620 C 0.33159 0.91263 0.90883 0.0
H1621 H 0.34294 0.92988 0.81919 0.0
H1622 H 0.3141 0.90353 0.85591 0.0
S1623 S 0.38154 0.94366 0.96609 0.0
N1624 N 0.38841 0.9522 0.92303 0.0
N1625 N 0.3561 0.92482 0.96321 0.0
C1626 C 0.35257 0.92446 0.92585 0.0
C1627 C 0.36989 0.93934 0.90413 0.0
C1628 C 0.66366 0.94504 0.91082 0.0
C1629 C 0.6649 0.94501 0.87187 0.0
C1630 C 0.67959 0.92897 0.93189 0.0
C1631 C 0.69664 0.91217 0.91427 0.0
H1632 H 0.65252 0.95955 0.92487 0.0
H1633 H 0.68083 0.93196 0.96159 0.0
S1634 S 0.70117 0.89969 0.81324 0.0
N1635 N 0.68043 0.92358 0.81672 0.0
N1636 N 0.7092 0.89203 0.85625 0.0
C1637 C 0.69464 0.90897 0.87561 0.0
C1638 C 0.67896 0.92581 0.85422 0.0
C1639 C 0.84732 0.92867 0.67657 0.0
C1640 C 0.86388 0.94571 0.65841 0.0
C1641 C 0.83054 0.91324 0.65602 0.0
C1642 C 0.82967 0.91488 0.61711 0.0
H1643 H 0.84518 0.92945 0.70646 0.0
H1644 H 0.81626 0.90211 0.67064 0.0
S1645 S 0.87375 0.95148 0.55684 0.0
N1646 N 0.88248 0.95898 0.59958 0.0
N1647 N 0.84985 0.93086 0.56116 0.0
C1648 C 0.84852 0.92901 0.59873 0.0
C1649 C 0.86595 0.94433 0.61954 0.0
C1650 C 0.86459 0.07766 0.41255 0.0
C1651 C 0.86432 0.08021 0.37372 0.0
C1652 C 0.85169 0.09519 0.43504 0.0
C1653 C 0.83825 0.11567 0.41908 0.0
H1654 H 0.87213 0.06051 0.42535 0.0
H1655 H 0.84902 0.0905 0.4641 0.0
S1656 S 0.83894 0.13508 0.32014 0.0
N1657 N 0.85486 0.10764 0.32108 0.0
N1658 N 0.83111 0.14137 0.36366 0.0
C1659 C 0.84191 0.12093 0.38115 0.0
C1660 C 0.85478 0.10283 0.35813 0.0
C1661 C 0.6903 0.09792 0.19599 0.0
C1662 C 0.6681 0.08659 0.18132 0.0
C1663 C 0.70878 0.10843 0.17232 0.0
C1664 C 0.70518 0.10843 0.13378 0.0
H1665 H 0.69533 0.09496 0.22491 0.0
H1666 H 0.72677 0.11485 0.1838 0.0
S1667 S 0.64662 0.0888 0.08333 0.0
N1668 N 0.64058 0.08192 0.12727 0.0
N1669 N 0.67553 0.10191 0.08271 0.0
C1670 C 0.68122 0.10145 0.11951 0.0
C1671 C 0.66232 0.09084 0.14365 0.0
C1672 C 0.8486 0.59781 0.59969 0.0
C1673 C 0.83411 0.61676 0.6175 0.0
C1674 C 0.86364 0.58079 0.62045 0.0
C1675 C 0.86441 0.58232 0.65942 0.0
H1676 H 0.84559 0.59389 0.57046 0.0
H1677 H 0.87219 0.56462 0.60628 0.0
S1678 S 0.83487 0.63257 0.71764 0.0
N1679 N 0.82564 0.63957 0.6749 0.0
N1680 N 0.85346 0.60696 0.71414 0.0
C1681 C 0.85314 0.60345 0.67681 0.0
C1682 C 0.83805 0.62096 0.6556 0.0
C1683 C 0.68201 0.59259 0.93787 0.0
C1684 C 0.69466 0.61292 0.92033 0.0
C1685 C 0.66743 0.57531 0.91712 0.0
C1686 C 0.66518 0.57793 0.87838 0.0
H1687 H 0.68616 0.58805 0.96665 0.0
H1688 H 0.6604 0.55829 0.93094 0.0
S1689 S 0.68856 0.63217 0.82171 0.0
N1690 N 0.69957 0.63804 0.86393 0.0
N1691 N 0.67192 0.60528 0.82479 0.0
C1692 C 0.67434 0.60033 0.86164 0.0
C1693 C 0.68922 0.61799 0.88281 0.0
C1694 C 0.67372 0.44607 0.13794 0.0
C1695 C 0.67872 0.45246 0.17518 0.0
C1696 C 0.69155 0.4318 0.11732 0.0
C1697 C 0.71486 0.4241 0.13346 0.0
H1698 H 0.65735 0.4544 0.12368 0.0
H1699 H 0.68818 0.42892 0.08793 0.0
S1700 S 0.73453 0.43218 0.23168 0.0
N1701 N 0.70657 0.44707 0.22858 0.0
N1702 N 0.74017 0.42034 0.18996 0.0
C1703 C 0.71874 0.42816 0.17156 0.0
C1704 C 0.70053 0.44233 0.19251 0.0
C1705 C 0.83966 0.44635 0.34401 0.0
C1706 C 0.86289 0.45475 0.35891 0.0
C1707 C 0.82297 0.43174 0.36525 0.0
C1708 C 0.82918 0.42413 0.40159 0.0
H1709 H 0.83267 0.45404 0.31791 0.0
H1710 H 0.80393 0.42879 0.35427 0.0
S1711 S 0.89068 0.43623 0.44987 0.0
N1712 N 0.89353 0.45142 0.40973 0.0
N1713 N 0.8621 0.42238 0.44936 0.0
C1714 C 0.85387 0.42939 0.41504 0.0
C1715 C 0.87085 0.44503 0.39355 0.0
C1716 C 0.17846 0.43009 0.43163 0.0
C1717 C 0.19484 0.41225 0.41481 0.0
C1718 C 0.16328 0.4464 0.40982 0.0
C1719 C 0.16466 0.44561 0.3709 0.0
H1720 H 0.17984 0.43367 0.46117 0.0
H1721 H 0.15282 0.46168 0.42326 0.0
S1722 S 0.19847 0.39719 0.3145 0.0
N1723 N 0.20624 0.39014 0.35783 0.0
N1724 N 0.17897 0.42215 0.31682 0.0
C1725 C 0.17768 0.42531 0.35418 0.0
C1726 C 0.19255 0.4082 0.37636 0.0
C1727 C 0.34703 0.43705 0.0973 0.0
C1728 C 0.33503 0.41612 0.11429 0.0
C1729 C 0.3612 0.45442 0.11842 0.0
C1730 C 0.36383 0.45128 0.15698 0.0
H1731 H 0.34271 0.44191 0.0687 0.0
H1732 H 0.36775 0.4718 0.10516 0.0
S1733 S 0.34185 0.39586 0.21243 0.0
N1734 N 0.33084 0.39025 0.17013 0.0
N1735 N 0.35787 0.42317 0.20995 0.0
C1736 C 0.3552 0.42851 0.17325 0.0
C1737 C 0.34065 0.41075 0.1517 0.0
C1738 C 0.36706 0.58213 0.91058 0.0
C1739 C 0.36686 0.58266 0.87153 0.0
C1740 C 0.35172 0.59897 0.93107 0.0
C1741 C 0.33603 0.61689 0.91298 0.0
H1742 H 0.37667 0.56675 0.92527 0.0
H1743 H 0.34959 0.59567 0.96057 0.0
S1744 S 0.33387 0.6301 0.81192 0.0
N1745 N 0.35354 0.60534 0.81601 0.0
N1746 N 0.32533 0.63781 0.85465 0.0
C1747 C 0.33885 0.62018 0.87444 0.0
C1748 C 0.35419 0.60277 0.85353 0.0
C1749 C 0.18403 0.59201 0.59718 0.0
C1750 C 0.19734 0.61207 0.61424 0.0
C1751 C 0.16857 0.57569 0.61824 0.0
C1752 C 0.16621 0.5789 0.65686 0.0
H1753 H 0.18812 0.58694 0.56861 0.0
H1754 H 0.1609 0.55883 0.60482 0.0
S1755 S 0.19129 0.63301 0.71204 0.0
N1756 N 0.20282 0.63783 0.66985 0.0
N1757 N 0.17369 0.6067 0.70963 0.0
C1758 C 0.17619 0.60112 0.67301 0.0
C1759 C 0.1919 0.61788 0.6515 0.0
C1760 C 0.24516 0.24824 1.00183 0.0
C1761 C 0.23718 0.23389 0.033 0.0
C1762 C 0.24566 0.27528 1.00233 0.0
C1763 C 0.23817 0.28927 0.034 0.0
H1764 H 0.25178 0.23844 0.97713 0.0
H1765 H 0.25262 0.28531 0.97799 0.0
S1766 S 0.21642 0.26114 0.12334 0.0
N1767 N 0.22187 0.23601 0.09664 0.0
N1768 N 0.22271 0.28654 0.09749 0.0
C1769 C 0.22948 0.27521 0.06498 0.0
C1770 C 0.22901 0.24768 0.0645 0.0
C1771 C 0.99757 0.01545 0.29178 0.0
C1772 C 0.98381 0.99305 0.28253 0.0
C1773 C 0.02455 0.01588 0.29293 0.0
C1774 C 0.03939 0.99392 0.285 0.0
H1775 H 0.98738 0.03284 0.29912 0.0
H1776 H 0.03387 0.03359 0.30099 0.0
S1777 S 1.01326 0.93046 0.25759 0.0
N1778 N 0.98741 0.94833 0.26411 0.0
N1779 N 0.03815 0.94913 0.26652 0.0
C1780 C 0.02601 0.97133 0.27559 0.0
C1781 C 0.99834 0.97089 0.27431 0.0
C1782 C 0.30376 0.74939 0.55922 0.0
C1783 C 0.29492 0.73527 0.52839 0.0
C1784 C 0.30353 0.77643 0.55929 0.0
C1785 C 0.29442 0.79056 0.52856 0.0
H1786 H 0.30957 0.7395 0.58434 0.0
H1787 H 0.30924 0.7863 0.58441 0.0
S1788 S 0.27316 0.76304 0.43871 0.0
N1789 N 0.27975 0.73771 0.46465 0.0
N1790 N 0.27917 0.78831 0.46491 0.0
C1791 C 0.28704 0.77672 0.49677 0.0
C1792 C 0.28733 0.74921 0.49665 0.0
C1793 C 0.49975 0.05192 0.80967 0.0
C1794 C 0.48597 0.04286 0.77861 0.0
C1795 C 0.52685 0.0518 0.81043 0.0
C1796 C 0.5413 0.04258 0.78019 0.0
H1797 H 0.48955 0.05766 0.83451 0.0
H1798 H 0.53649 0.05746 0.83579 0.0
S1799 S 0.51475 0.02103 0.68985 0.0
N1800 N 0.48908 0.02763 0.71505 0.0
N1801 N 0.53977 0.02722 0.71662 0.0
C1802 C 0.52779 0.03521 0.74805 0.0
C1803 C 0.50026 0.0354 0.74722 0.0
C1804 C 0.24324 0.77979 0.02881 0.0
C1805 C 0.23598 0.79389 0.997 0.0
C1806 C 0.2438 0.75273 0.0288 0.0
C1807 C 0.23706 0.73846 0.99702 0.0
H1808 H 0.24916 0.78977 0.05372 0.0
H1809 H 0.25018 0.74289 0.05367 0.0
S1810 S 0.21762 0.76587 0.906 0.0
N1811 N 0.22236 0.79121 0.93255 0.0
N1812 N 0.22327 0.74069 0.93265 0.0
C1813 C 0.22919 0.75228 0.96532 0.0
C1814 C 0.22868 0.77982 0.96528 0.0
C1815 C 0.53168 0.98654 0.27357 0.0
C1816 C 0.54537 0.9848 0.23981 0.0
C1817 C 0.50455 0.98714 0.27444 0.0
C1818 C 0.48988 0.98564 0.24165 0.0
H1819 H 0.54202 0.9879 0.2996 0.0
H1820 H 0.49498 0.98916 0.30096 0.0
S1821 S 0.5157 0.98256 0.14584 0.0
N1822 N 0.54155 0.98293 0.17248 0.0
N1823 N 0.49096 0.98317 0.17445 0.0
C1824 C 0.50318 0.98354 0.20782 0.0
C1825 C 0.53075 0.9833 0.20681 0.0
C1826 C 0.30248 0.25179 0.47051 0.0
C1827 C 0.29435 0.23748 0.5016 0.0
C1828 C 0.30234 0.27883 0.47067 0.0
C1829 C 0.2941 0.29284 0.50195 0.0
H1830 H 0.30775 0.24204 0.4451 0.0
H1831 H 0.30748 0.28881 0.44535 0.0
S1832 S 0.27482 0.26468 0.59247 0.0
N1833 N 0.28055 0.23952 0.56592 0.0
N1834 N 0.28042 0.29012 0.56633 0.0
C1835 C 0.28738 0.27876 0.53394 0.0
C1836 C 0.28747 0.25123 0.53374 0.0
C1837 C 0.03179 1.01388 0.74035 0.0
C1838 C 0.04509 0.03527 0.75451 0.0
C1839 C 1.00486 1.01294 0.73959 0.0
C1840 C 0.98967 0.03333 0.75295 0.0
H1841 H 0.04229 0.99781 0.72882 0.0
H1842 H 0.99585 0.99616 0.72757 0.0
S1843 S 1.0147 0.09353 0.7943 0.0
N1844 N 0.04084 0.07726 0.78312 0.0
N1845 N 0.99011 0.07548 0.78172 0.0
C1846 C 1.00261 0.0549 0.76731 0.0
C1847 C 0.03025 0.05587 0.76808 0.0
C1848 C 0.80324 0.77789 0.97328 0.0
C1849 C 0.79485 0.79221 1.00418 0.0
C1850 C 0.80288 0.75085 0.97345 0.0
C1851 C 0.79406 0.73693 1.00449 0.0
H1852 H 0.80876 0.78763 0.94794 0.0
H1853 H 0.80814 0.74082 0.94826 0.0
S1854 S 0.77415 0.76497 0.09461 0.0
N1855 N 0.78054 0.79015 0.06832 0.0
N1856 N 0.77966 0.73955 0.06848 0.0
C1857 C 0.78721 0.75096 0.03636 0.0
C1858 C 0.78765 0.77846 0.03624 0.0
C1859 C 0.74843 0.25255 0.52848 0.0
C1860 C 0.74028 0.23831 0.49732 0.0
C1861 C 0.74937 0.27957 0.52785 0.0
C1862 C 0.74197 0.2936 0.49614 0.0
H1863 H 0.75487 0.24269 0.5533 0.0
H1864 H 0.75647 0.28955 0.55213 0.0
S1865 S 0.71977 0.26589 0.40685 0.0
N1866 N 0.725 0.24067 0.43359 0.0
N1867 N 0.72637 0.29117 0.43268 0.0
C1868 C 0.73309 0.2797 0.46519 0.0
C1869 C 0.73229 0.2522 0.46572 0.0
C1870 C 0.77347 0.24688 0.99852 0.0
C1871 C 0.78377 0.23322 0.029 0.0
C1872 C 0.77268 0.27395 0.99802 0.0
C1873 C 0.78228 0.28845 0.02791 0.0
H1874 H 0.76574 0.23655 0.97497 0.0
H1875 H 0.76446 0.2836 0.97415 0.0
S1876 S 0.80875 0.26228 0.11593 0.0
N1877 N 0.80207 0.23663 0.09094 0.0
N1878 N 0.80092 0.28709 0.08973 0.0
C1879 C 0.79243 0.27506 0.0586 0.0
C1880 C 0.79312 0.24762 0.0592 0.0
C1881 C 0.73877 0.7779 0.50243 0.0
C1882 C 0.73167 0.79224 0.53393 0.0
C1883 C 0.73884 0.75088 0.50293 0.0
C1884 C 0.7319 0.73697 0.53499 0.0
H1885 H 0.74513 0.78767 0.47752 0.0
H1886 H 0.74524 0.74079 0.47835 0.0
S1887 S 0.71221 0.76531 0.6251 0.0
N1888 N 0.71744 0.79037 0.59807 0.0
N1889 N 0.7177 0.73984 0.5991 0.0
C1890 C 0.72394 0.75109 0.56628 0.0
C1891 C 0.72381 0.7786 0.56573 0.0
C1892 C 0.53013 0.4773 0.81486 0.0
C1893 C 0.54453 0.4853 0.78378 0.0
C1894 C 0.50303 0.47769 0.81465 0.0
C1895 C 0.48903 0.48612 0.78336 0.0
H1896 H 0.53987 0.47188 0.84029 0.0
H1897 H 0.49301 0.47257 0.83993 0.0
S1898 S 0.5173 0.50528 0.69289 0.0
N1899 N 0.5425 0.49919 0.71942 0.0
N1900 N 0.4918 0.49995 0.71904 0.0
C1901 C 0.50317 0.49279 0.75142 0.0
C1902 C 0.53076 0.49238 0.75163 0.0
C1903 C 0.03294 0.5553 0.31278 0.0
C1904 C 0.04633 0.54684 0.2811 0.0
C1905 C 1.00588 0.55652 0.31341 0.0
C1906 C 0.99097 0.54944 0.28233 0.0
H1907 H 0.04339 0.55966 0.33802 0.0
H1908 H 0.99656 0.56175 0.33919 0.0
S1909 S 0.0169 0.53007 0.1905 0.0
N1910 N 0.04273 0.53399 0.21657 0.0
N1911 N 0.99211 0.53674 0.21741 0.0
C1912 C 1.00426 0.54257 0.24971 0.0
C1913 C 0.0318 0.54115 0.24918 0.0
C1914 C 0.02848 0.51366 0.73761 0.0
C1915 C 0.04266 0.49239 0.75043 0.0
C1916 C 1.00153 0.51379 0.73753 0.0
C1917 C 0.98714 0.49267 0.75037 0.0
H1918 H 0.03831 0.53043 0.72694 0.0
H1919 H 0.99186 0.53066 0.72679 0.0
S1920 S 1.01467 0.43193 0.78696 0.0
N1921 N 0.04014 0.44933 0.7762 0.0
N1922 N 0.98933 0.44961 0.77621 0.0
C1923 C 1.00097 0.471 0.76283 0.0
C1924 C 0.02866 0.47086 0.76283 0.0
C1925 C 0.50163 0.53333 0.28257 0.0
C1926 C 0.48727 0.54244 0.25204 0.0
C1927 C 0.52872 0.53343 0.28238 0.0
C1928 C 0.54276 0.54259 0.25162 0.0
H1929 H 0.49181 0.52544 0.3065 0.0
H1930 H 0.53879 0.52564 0.30621 0.0
S1931 S 0.5145 0.56775 0.16408 0.0
N1932 N 0.48933 0.56065 0.18999 0.0
N1933 N 0.53997 0.56076 0.18956 0.0
C1934 C 0.52863 0.55234 0.22128 0.0
C1935 C 0.50104 0.55227 0.22151 0.0
loop_
_geom_bond_atom_site_label_1
_geom_bond_atom_site_label_2
_geom_bond_distance
_geom_bond_site_symmetry_2
_ccdc_geom_bond_type
Co0 N4 2.148 . S
Co0 N10 2.128 . S
Co0 N20 2.194 . S
Co0 O25 2.351 . S
Co0 O26 2.155 . S
Co0 O27 2.096 . S
C1 N4 1.301 . S
C1 N5 1.328 1_554 S
C1 H6 0.930 . S
C2 C3 1.333 1_554 S
C2 N4 1.317 . S
C2 H7 0.930 . S
C3 C2 1.333 1_556 S
C3 N5 1.350 . S
C3 H29 0.931 . S
N4 Co0 2.148 . S
N4 C1 1.301 . S
N4 C2 1.317 . S
N5 C1 1.328 1_556 S
N5 C3 1.350 . S
H6 C1 0.930 . S
H7 C2 0.930 . S
C8 O9 1.224 . S
C8 O27 1.247 . S
O9 C8 1.224 . S
N10 Co0 2.128 . S
N10 C11 1.355 . S
N10 C13 1.311 . S
C11 N10 1.355 . S
C11 C12 1.363 . S
C11 H23 0.929 . S
C12 C11 1.363 . S
C12 N14 1.375 . S
C12 H30 0.931 . S
C13 N10 1.311 . S
C13 N14 1.347 . S
C13 H24 0.929 . S
N14 C12 1.375 . S
N14 C13 1.347 . S
C15 C18 1.365 . S
C15 N20 1.328 . S
C15 H21 0.929 . S
C16 C17 1.362 . S
C16 C19 1.378 . S
C16 H31 0.929 . S
C17 C16 1.362 . S
C17 C18 1.366 . S
C18 C15 1.365 . S
C18 C17 1.366 . S
C18 H32 0.930 . S
C19 C16 1.378 . S
C19 N20 1.315 . S
C19 H22 0.930 . S
N20 Co0 2.194 . S
N20 C15 1.328 . S
N20 C19 1.315 . S
H21 C15 0.929 . S
H22 C19 0.930 . S
H23 C11 0.929 . S
H24 C13 0.929 . S
O25 Co0 2.351 . S
O25 C28 1.244 . S
O26 Co0 2.155 . S
O26 C28 1.240 . S
O27 Co0 2.096 . S
O27 C8 1.247 . S
C28 O25 1.244 . S
C28 O26 1.240 . S
H29 C3 0.931 . S
H30 C12 0.931 . S
H31 C16 0.929 . S
H32 C18 0.930 . S
Co33 N37 2.141 1_545 S
Co33 N43 2.133 . S
Co33 N53 2.192 1_545 S
Co33 O58 2.397 . S
Co33 O59 2.186 . S
Co33 O60 2.062 1_545 S
C34 N37 1.301 1_545 S
C34 N38 1.335 . S
C34 H39 0.930 . S
C35 C36 1.333 . S
C35 N37 1.317 . S
C35 H40 0.930 . S
C36 C35 1.333 . S
C36 N38 1.336 1_565 S
C36 H62 0.931 . S
N37 Co33 2.141 1_565 S
N37 C34 1.301 1_565 S
N37 C35 1.317 . S
N38 C34 1.335 . S
N38 C36 1.336 1_545 S
H39 C34 0.930 . S
H40 C35 0.930 . S
C41 O42 1.224 . S
C41 O60 1.247 . S
O42 C41 1.224 . S
N43 Co33 2.133 . S
N43 C44 1.355 . S
N43 C46 1.311 1_545 S
C44 N43 1.355 . S
C44 C45 1.363 . S
C44 H56 0.929 . S
C45 C44 1.363 . S
C45 N47 1.375 1_545 S
C45 H63 0.931 . S
C46 N43 1.311 1_565 S
C46 N47 1.347 . S
C46 H57 0.929 . S
N47 C45 1.375 1_565 S
N47 C46 1.347 . S
C48 C51 1.365 . S
C48 N53 1.310 1_545 S
C48 H54 0.929 . S
C49 C50 1.362 . S
C49 C52 1.378 . S
C49 H64 0.929 . S
C50 C49 1.362 . S
C50 C51 1.366 1_565 S
C51 C48 1.365 . S
C51 C50 1.366 1_545 S
C51 H65 0.930 . S
C52 C49 1.378 . S
C52 N53 1.335 . S
C52 H55 0.930 . S
N53 Co33 2.192 1_565 S
N53 C48 1.310 1_565 S
N53 C52 1.335 . S
H54 C48 0.929 . S
H55 C52 0.930 . S
H56 C44 0.929 . S
H57 C46 0.929 . S
O58 Co33 2.397 . S
O58 C61 1.244 . S
O59 Co33 2.186 . S
O59 C61 1.240 . S
O60 Co33 2.062 1_565 S
O60 C41 1.247 . S
C61 O58 1.244 . S
C61 O59 1.240 . S
H62 C36 0.931 . S
H63 C45 0.931 . S
H64 C49 0.929 . S
H65 C51 0.930 . S
Co66 N70 2.148 . S
Co66 N76 2.128 . S
Co66 N86 2.194 . S
Co66 O91 2.351 . S
Co66 O92 2.155 . S
Co66 O93 2.096 . S
C67 N70 1.301 . S
C67 N71 1.328 . S
C67 H72 0.930 . S
C68 C69 1.333 . S
C68 N70 1.317 . S
C68 H73 0.930 . S
C69 C68 1.333 . S
C69 N71 1.350 . S
C69 H95 0.931 . S
N70 Co66 2.148 . S
N70 C67 1.301 . S
N70 C68 1.317 . S
N71 C67 1.328 . S
N71 C69 1.350 . S
H72 C67 0.930 . S
H73 C68 0.930 . S
C74 O75 1.224 . S
C74 O93 1.247 . S
O75 C74 1.224 . S
N76 Co66 2.128 . S
N76 C77 1.355 . S
N76 C79 1.311 . S
C77 N76 1.355 . S
C77 C78 1.363 . S
C77 H89 0.929 . S
C78 C77 1.363 . S
C78 N80 1.375 . S
C78 H96 0.931 . S
C79 N76 1.311 . S
C79 N80 1.347 . S
C79 H90 0.929 . S
N80 C78 1.375 . S
N80 C79 1.347 . S
C81 C84 1.365 . S
C81 N86 1.328 . S
C81 H87 0.929 . S
C82 C83 1.362 . S
C82 C85 1.378 . S
C82 H97 0.929 . S
C83 C82 1.362 . S
C83 C84 1.366 . S
C84 C81 1.365 . S
C84 C83 1.366 . S
C84 H98 0.930 . S
C85 C82 1.378 . S
C85 N86 1.315 . S
C85 H88 0.930 . S
N86 Co66 2.194 . S
N86 C81 1.328 . S
N86 C85 1.315 . S
H87 C81 0.929 . S
H88 C85 0.930 . S
H89 C77 0.929 . S
H90 C79 0.929 . S
O91 Co66 2.351 . S
O91 C94 1.244 . S
O92 Co66 2.155 . S
O92 C94 1.240 . S
O93 Co66 2.096 . S
O93 C74 1.247 . S
C94 O91 1.244 . S
C94 O92 1.240 . S
H95 C69 0.931 . S
H96 C78 0.931 . S
H97 C82 0.929 . S
H98 C84 0.930 . S
Co99 N103 2.141 1_565 S
Co99 N109 2.133 . S
Co99 N119 2.192 1_565 S
Co99 O124 2.398 . S
Co99 O125 2.186 . S
Co99 O126 2.062 1_565 S
C100 N103 1.301 1_565 S
C100 N104 1.335 . S
C100 H105 0.930 . S
C101 C102 1.333 . S
C101 N103 1.317 . S
C101 H106 0.930 . S
C102 C101 1.333 . S
C102 N104 1.336 1_545 S
C102 H128 0.931 . S
N103 Co99 2.141 1_545 S
N103 C100 1.301 1_545 S
N103 C101 1.317 . S
N104 C100 1.335 . S
N104 C102 1.336 1_565 S
H105 C100 0.930 . S
H106 C101 0.930 . S
C107 O108 1.224 . S
C107 O126 1.247 . S
O108 C107 1.224 . S
N109 Co99 2.133 . S
N109 C110 1.355 . S
N109 C112 1.311 1_565 S
C110 N109 1.355 . S
C110 C111 1.363 . S
C110 H122 0.929 . S
C111 C110 1.363 . S
C111 N113 1.375 1_565 S
C111 H129 0.931 . S
C112 N109 1.311 1_545 S
C112 N113 1.347 . S
C112 H123 0.929 . S
N113 C111 1.375 1_545 S
N113 C112 1.347 . S
C114 C117 1.365 . S
C114 N119 1.310 1_565 S
C114 H120 0.929 . S
C115 C116 1.362 . S
C115 C118 1.378 . S
C115 H130 0.929 . S
C116 C115 1.362 . S
C116 C117 1.366 1_545 S
C117 C114 1.365 . S
C117 C116 1.366 1_565 S
C117 H131 0.930 . S
C118 C115 1.378 . S
C118 N119 1.335 . S
C118 H121 0.930 . S
N119 Co99 2.192 1_545 S
N119 C114 1.310 1_545 S
N119 C118 1.335 . S
H120 C114 0.929 . S
H121 C118 0.930 . S
H122 C110 0.929 . S
H123 C112 0.929 . S
O124 Co99 2.398 . S
O124 C127 1.244 . S
O125 Co99 2.186 . S
O125 C127 1.240 . S
O126 Co99 2.062 1_545 S
O126 C107 1.247 . S
C127 O124 1.244 . S
C127 O125 1.240 . S
H128 C102 0.931 . S
H129 C111 0.931 . S
H130 C115 0.929 . S
H131 C117 0.930 . S
Co132 N136 2.148 . S
Co132 N142 2.128 . S
Co132 N152 2.194 . S
Co132 O157 2.351 . S
Co132 O158 2.155 . S
Co132 O159 2.096 . S
C133 N136 1.301 . S
C133 N137 1.328 1_556 S
C133 H138 0.930 . S
C134 C135 1.333 1_556 S
C134 N136 1.317 . S
C134 H139 0.930 . S
C135 C134 1.333 1_554 S
C135 N137 1.350 . S
C135 H161 0.931 . S
N136 Co132 2.148 . S
N136 C133 1.301 . S
N136 C134 1.317 . S
N137 C133 1.328 1_554 S
N137 C135 1.350 . S
H138 C133 0.930 . S
H139 C134 0.930 . S
C140 O141 1.224 . S
C140 O159 1.247 . S
O141 C140 1.224 . S
N142 Co132 2.128 . S
N142 C143 1.355 . S
N142 C145 1.311 . S
C143 N142 1.355 . S
C143 C144 1.363 . S
C143 H155 0.929 . S
C144 C143 1.363 . S
C144 N146 1.375 . S
C144 H162 0.931 . S
C145 N142 1.311 . S
C145 N146 1.347 . S
C145 H156 0.929 . S
N146 C144 1.375 . S
N146 C145 1.347 . S
C147 C150 1.365 . S
C147 N152 1.328 . S
C147 H153 0.929 . S
C148 C149 1.362 . S
C148 C151 1.378 . S
C148 H163 0.929 . S
C149 C148 1.362 . S
C149 C150 1.366 . S
C150 C147 1.365 . S
C150 C149 1.366 . S
C150 H164 0.930 . S
C151 C148 1.378 . S
C151 N152 1.315 . S
C151 H154 0.930 . S
N152 Co132 2.194 . S
N152 C147 1.328 . S
N152 C151 1.315 . S
H153 C147 0.929 . S
H154 C151 0.930 . S
H155 C143 0.929 . S
H156 C145 0.929 . S
O157 Co132 2.351 . S
O157 C160 1.244 . S
O158 Co132 2.155 . S
O158 C160 1.240 . S
O159 Co132 2.096 . S
O159 C140 1.247 . S
C160 O157 1.244 . S
C160 O158 1.240 . S
H161 C135 0.931 . S
H162 C144 0.931 . S
H163 C148 0.929 . S
H164 C150 0.930 . S
Co165 N169 2.141 1_545 S
Co165 N175 2.133 . S
Co165 N185 2.192 1_545 S
Co165 O190 2.398 . S
Co165 O191 2.186 . S
Co165 O192 2.062 1_545 S
C166 N169 1.301 1_545 S
C166 N170 1.335 . S
C166 H171 0.930 . S
C167 C168 1.333 . S
C167 N169 1.317 . S
C167 H172 0.930 . S
C168 C167 1.333 . S
C168 N170 1.336 1_565 S
C168 H194 0.931 . S
N169 Co165 2.141 1_565 S
N169 C166 1.301 1_565 S
N169 C167 1.317 . S
N170 C166 1.335 . S
N170 C168 1.336 1_545 S
H171 C166 0.930 . S
H172 C167 0.930 . S
C173 O174 1.224 . S
C173 O192 1.247 . S
O174 C173 1.224 . S
N175 Co165 2.133 . S
N175 C176 1.355 . S
N175 C178 1.311 1_545 S
C176 N175 1.355 . S
C176 C177 1.363 . S
C176 H188 0.929 . S
C177 C176 1.363 . S
C177 N179 1.375 1_545 S
C177 H195 0.931 . S
C178 N175 1.311 1_565 S
C178 N179 1.347 . S
C178 H189 0.929 . S
N179 C177 1.375 1_565 S
N179 C178 1.347 . S
C180 C183 1.365 . S
C180 N185 1.310 1_545 S
C180 H186 0.929 . S
C181 C182 1.362 . S
C181 C184 1.378 . S
C181 H196 0.929 . S
C182 C181 1.362 . S
C182 C183 1.366 1_565 S
C183 C180 1.365 . S
C183 C182 1.366 1_545 S
C183 H197 0.930 . S
C184 C181 1.378 . S
C184 N185 1.335 . S
C184 H187 0.930 . S
N185 Co165 2.192 1_565 S
N185 C180 1.310 1_565 S
N185 C184 1.335 . S
H186 C180 0.929 . S
H187 C184 0.930 . S
H188 C176 0.929 . S
H189 C178 0.929 . S
O190 Co165 2.398 . S
O190 C193 1.244 . S
O191 Co165 2.186 . S
O191 C193 1.240 . S
O192 Co165 2.062 1_565 S
O192 C173 1.247 . S
C193 O190 1.244 . S
C193 O191 1.240 . S
H194 C168 0.931 . S
H195 C177 0.931 . S
H196 C181 0.929 . S
H197 C183 0.930 . S
Co198 N202 2.148 . S
Co198 N208 2.128 . S
Co198 N218 2.194 . S
Co198 O223 2.351 . S
Co198 O224 2.155 . S
Co198 O225 2.096 . S
C199 N202 1.301 . S
C199 N203 1.328 . S
C199 H204 0.930 . S
C200 C201 1.333 . S
C200 N202 1.317 . S
C200 H205 0.930 . S
C201 C200 1.333 . S
C201 N203 1.350 . S
C201 H227 0.931 . S
N202 Co198 2.148 . S
N202 C199 1.301 . S
N202 C200 1.317 . S
N203 C199 1.328 . S
N203 C201 1.350 . S
H204 C199 0.930 . S
H205 C200 0.930 . S
C206 O207 1.224 . S
C206 O225 1.247 . S
O207 C206 1.224 . S
N208 Co198 2.128 . S
N208 C209 1.355 . S
N208 C211 1.311 . S
C209 N208 1.355 . S
C209 C210 1.363 . S
C209 H221 0.929 . S
C210 C209 1.363 . S
C210 N212 1.375 . S
C210 H228 0.931 . S
C211 N208 1.311 . S
C211 N212 1.347 . S
C211 H222 0.929 . S
N212 C210 1.375 . S
N212 C211 1.347 . S
C213 C216 1.365 . S
C213 N218 1.328 . S
C213 H219 0.929 . S
C214 C215 1.362 . S
C214 C217 1.378 . S
C214 H229 0.929 . S
C215 C214 1.362 . S
C215 C216 1.366 . S
C216 C213 1.365 . S
C216 C215 1.366 . S
C216 H230 0.930 . S
C217 C214 1.378 . S
C217 N218 1.315 . S
C217 H220 0.930 . S
N218 Co198 2.194 . S
N218 C213 1.328 . S
N218 C217 1.315 . S
H219 C213 0.929 . S
H220 C217 0.930 . S
H221 C209 0.929 . S
H222 C211 0.929 . S
O223 Co198 2.351 . S
O223 C226 1.244 . S
O224 Co198 2.155 . S
O224 C226 1.240 . S
O225 Co198 2.096 . S
O225 C206 1.247 . S
C226 O223 1.244 . S
C226 O224 1.240 . S
H227 C201 0.931 . S
H228 C210 0.931 . S
H229 C214 0.929 . S
H230 C216 0.930 . S
Co231 N235 2.141 1_565 S
Co231 N241 2.133 . S
Co231 N251 2.192 1_565 S
Co231 O256 2.397 . S
Co231 O257 2.186 . S
Co231 O258 2.062 1_565 S
C232 N235 1.301 1_565 S
C232 N236 1.335 . S
C232 H237 0.930 . S
C233 C234 1.333 . S
C233 N235 1.317 . S
C233 H238 0.930 . S
C234 C233 1.333 . S
C234 N236 1.336 1_545 S
C234 H260 0.931 . S
N235 Co231 2.141 1_545 S
N235 C232 1.301 1_545 S
N235 C233 1.317 . S
N236 C232 1.335 . S
N236 C234 1.336 1_565 S
H237 C232 0.930 . S
H238 C233 0.930 . S
C239 O240 1.224 . S
C239 O258 1.247 . S
O240 C239 1.224 . S
N241 Co231 2.133 . S
N241 C242 1.355 . S
N241 C244 1.311 1_565 S
C242 N241 1.355 . S
C242 C243 1.363 . S
C242 H254 0.929 . S
C243 C242 1.363 . S
C243 N245 1.375 1_565 S
C243 H261 0.931 . S
C244 N241 1.311 1_545 S
C244 N245 1.347 . S
C244 H255 0.929 . S
N245 C243 1.375 1_545 S
N245 C244 1.347 . S
C246 C249 1.365 . S
C246 N251 1.310 1_565 S
C246 H252 0.929 . S
C247 C248 1.362 . S
C247 C250 1.378 . S
C247 H262 0.929 . S
C248 C247 1.362 . S
C248 C249 1.366 1_545 S
C249 C246 1.365 . S
C249 C248 1.366 1_565 S
C249 H263 0.930 . S
C250 C247 1.378 . S
C250 N251 1.335 . S
C250 H253 0.930 . S
N251 Co231 2.192 1_545 S
N251 C246 1.310 1_545 S
N251 C250 1.335 . S
H252 C246 0.929 . S
H253 C250 0.930 . S
H254 C242 0.929 . S
H255 C244 0.929 . S
O256 Co231 2.397 . S
O256 C259 1.244 . S
O257 Co231 2.186 . S
O257 C259 1.240 . S
O258 Co231 2.062 1_545 S
O258 C239 1.247 . S
C259 O256 1.244 . S
C259 O257 1.240 . S
H260 C234 0.931 . S
H261 C243 0.931 . S
H262 C247 0.929 . S
H263 C249 0.930 . S
Co264 N268 2.148 . S
Co264 N274 2.128 . S
Co264 N284 2.194 . S
Co264 O289 2.351 . S
Co264 O290 2.155 . S
Co264 O291 2.096 . S
C265 N268 1.301 . S
C265 N269 1.328 1_556 S
C265 H270 0.930 . S
C266 C267 1.333 1_556 S
C266 N268 1.317 . S
C266 H271 0.930 . S
C267 C266 1.333 1_554 S
C267 N269 1.350 . S
C267 H293 0.931 . S
N268 Co264 2.148 . S
N268 C265 1.301 . S
N268 C266 1.317 . S
N269 C265 1.328 1_554 S
N269 C267 1.350 . S
H270 C265 0.930 . S
H271 C266 0.930 . S
C272 O273 1.224 . S
C272 O291 1.247 . S
O273 C272 1.224 . S
N274 Co264 2.128 . S
N274 C275 1.355 . S
N274 C277 1.311 . S
C275 N274 1.355 . S
C275 C276 1.363 . S
C275 H287 0.929 . S
C276 C275 1.363 . S
C276 N278 1.375 . S
C276 H294 0.931 . S
C277 N274 1.311 . S
C277 N278 1.347 . S
C277 H288 0.929 . S
N278 C276 1.375 . S
N278 C277 1.347 . S
C279 C282 1.365 . S
C279 N284 1.328 . S
C279 H285 0.929 . S
C280 C281 1.362 . S
C280 C283 1.378 . S
C280 H295 0.929 . S
C281 C280 1.362 . S
C281 C282 1.366 . S
C282 C279 1.365 . S
C282 C281 1.366 . S
C282 H296 0.930 . S
C283 C280 1.378 . S
C283 N284 1.315 . S
C283 H286 0.930 . S
N284 Co264 2.194 . S
N284 C279 1.328 . S
N284 C283 1.315 . S
H285 C279 0.929 . S
H286 C283 0.930 . S
H287 C275 0.929 . S
H288 C277 0.929 . S
O289 Co264 2.351 . S
O289 C292 1.244 . S
O290 Co264 2.155 . S
O290 C292 1.240 . S
O291 Co264 2.096 . S
O291 C272 1.247 . S
C292 O289 1.244 . S
C292 O290 1.240 . S
H293 C267 0.931 . S
H294 C276 0.931 . S
H295 C280 0.929 . S
H296 C282 0.930 . S
Co297 N301 2.141 1_565 S
Co297 N307 2.133 . S
Co297 N317 2.192 1_565 S
Co297 O322 2.397 . S
Co297 O323 2.186 . S
Co297 O324 2.062 1_565 S
C298 N301 1.301 1_565 S
C298 N302 1.335 . S
C298 H303 0.930 . S
C299 C300 1.333 . S
C299 N301 1.317 . S
C299 H304 0.930 . S
C300 C299 1.333 . S
C300 N302 1.336 1_545 S
C300 H326 0.931 . S
N301 Co297 2.141 1_545 S
N301 C298 1.301 1_545 S
N301 C299 1.317 . S
N302 C298 1.335 . S
N302 C300 1.336 1_565 S
H303 C298 0.930 . S
H304 C299 0.930 . S
C305 O306 1.224 . S
C305 O324 1.247 . S
O306 C305 1.224 . S
N307 Co297 2.133 . S
N307 C308 1.355 . S
N307 C310 1.311 1_565 S
C308 N307 1.355 . S
C308 C309 1.363 . S
C308 H320 0.929 . S
C309 C308 1.363 . S
C309 N311 1.375 1_565 S
C309 H327 0.931 . S
C310 N307 1.311 1_545 S
C310 N311 1.347 . S
C310 H321 0.929 . S
N311 C309 1.375 1_545 S
N311 C310 1.347 . S
C312 C315 1.365 . S
C312 N317 1.310 1_565 S
C312 H318 0.929 . S
C313 C314 1.362 . S
C313 C316 1.378 . S
C313 H328 0.929 . S
C314 C313 1.362 . S
C314 C315 1.366 1_545 S
C315 C312 1.365 . S
C315 C314 1.366 1_565 S
C315 H329 0.930 . S
C316 C313 1.378 . S
C316 N317 1.335 . S
C316 H319 0.930 . S
N317 Co297 2.192 1_545 S
N317 C312 1.310 1_545 S
N317 C316 1.335 . S
H318 C312 0.929 . S
H319 C316 0.930 . S
H320 C308 0.929 . S
H321 C310 0.929 . S
O322 Co297 2.397 . S
O322 C325 1.244 . S
O323 Co297 2.186 . S
O323 C325 1.240 . S
O324 Co297 2.062 1_545 S
O324 C305 1.247 . S
C325 O322 1.244 . S
C325 O323 1.240 . S
H326 C300 0.931 . S
H327 C309 0.931 . S
H328 C313 0.929 . S
H329 C315 0.930 . S
Co330 N334 2.148 . S
Co330 N340 2.128 . S
Co330 N350 2.194 . S
Co330 O355 2.351 . S
Co330 O356 2.155 . S
Co330 O357 2.096 . S
C331 N334 1.301 . S
C331 N335 1.328 . S
C331 H336 0.930 . S
C332 C333 1.333 . S
C332 N334 1.317 . S
C332 H337 0.930 . S
C333 C332 1.333 . S
C333 N335 1.350 . S
C333 H359 0.931 . S
N334 Co330 2.148 . S
N334 C331 1.301 . S
N334 C332 1.317 . S
N335 C331 1.328 . S
N335 C333 1.350 . S
H336 C331 0.930 . S
H337 C332 0.930 . S
C338 O339 1.224 . S
C338 O357 1.247 . S
O339 C338 1.224 . S
N340 Co330 2.128 . S
N340 C341 1.355 . S
N340 C343 1.311 . S
C341 N340 1.355 . S
C341 C342 1.363 . S
C341 H353 0.929 . S
C342 C341 1.363 . S
C342 N344 1.375 . S
C342 H360 0.931 . S
C343 N340 1.311 . S
C343 N344 1.347 . S
C343 H354 0.929 . S
N344 C342 1.375 . S
N344 C343 1.347 . S
C345 C348 1.365 . S
C345 N350 1.328 . S
C345 H351 0.929 . S
C346 C347 1.362 . S
C346 C349 1.378 . S
C346 H361 0.929 . S
C347 C346 1.362 . S
C347 C348 1.366 . S
C348 C345 1.365 . S
C348 C347 1.366 . S
C348 H362 0.930 . S
C349 C346 1.378 . S
C349 N350 1.315 . S
C349 H352 0.930 . S
N350 Co330 2.194 . S
N350 C345 1.328 . S
N350 C349 1.315 . S
H351 C345 0.929 . S
H352 C349 0.930 . S
H353 C341 0.929 . S
H354 C343 0.929 . S
O355 Co330 2.351 . S
O355 C358 1.244 . S
O356 Co330 2.155 . S
O356 C358 1.240 . S
O357 Co330 2.096 . S
O357 C338 1.247 . S
C358 O355 1.244 . S
C358 O356 1.240 . S
H359 C333 0.931 . S
H360 C342 0.931 . S
H361 C346 0.929 . S
H362 C348 0.930 . S
Co363 N367 2.141 1_545 S
Co363 N373 2.133 . S
Co363 N383 2.192 1_545 S
Co363 O388 2.398 . S
Co363 O389 2.186 . S
Co363 O390 2.062 1_545 S
C364 N367 1.301 1_545 S
C364 N368 1.335 . S
C364 H369 0.930 . S
C365 C366 1.333 . S
C365 N367 1.317 . S
C365 H370 0.930 . S
C366 C365 1.333 . S
C366 N368 1.336 1_565 S
C366 H392 0.931 . S
N367 Co363 2.141 1_565 S
N367 C364 1.301 1_565 S
N367 C365 1.317 . S
N368 C364 1.335 . S
N368 C366 1.336 1_545 S
H369 C364 0.930 . S
H370 C365 0.930 . S
C371 O372 1.224 . S
C371 O390 1.247 . S
O372 C371 1.224 . S
N373 Co363 2.133 . S
N373 C374 1.355 . S
N373 C376 1.311 1_545 S
C374 N373 1.355 . S
C374 C375 1.363 . S
C374 H386 0.929 . S
C375 C374 1.363 . S
C375 N377 1.375 1_545 S
C375 H393 0.931 . S
C376 N373 1.311 1_565 S
C376 N377 1.347 . S
C376 H387 0.929 . S
N377 C375 1.375 1_565 S
N377 C376 1.347 . S
C378 C381 1.365 . S
C378 N383 1.310 1_545 S
C378 H384 0.929 . S
C379 C380 1.362 . S
C379 C382 1.378 . S
C379 H394 0.929 . S
C380 C379 1.362 . S
C380 C381 1.366 1_565 S
C381 C378 1.365 . S
C381 C380 1.366 1_545 S
C381 H395 0.930 . S
C382 C379 1.378 . S
C382 N383 1.335 . S
C382 H385 0.930 . S
N383 Co363 2.192 1_565 S
N383 C378 1.310 1_565 S
N383 C382 1.335 . S
H384 C378 0.929 . S
H385 C382 0.930 . S
H386 C374 0.929 . S
H387 C376 0.929 . S
O388 Co363 2.398 . S
O388 C391 1.244 . S
O389 Co363 2.186 . S
O389 C391 1.240 . S
O390 Co363 2.062 1_565 S
O390 C371 1.247 . S
C391 O388 1.244 . S
C391 O389 1.240 . S
H392 C366 0.931 . S
H393 C375 0.931 . S
H394 C379 0.929 . S
H395 C381 0.930 . S
Co396 N400 2.148 . S
Co396 N406 2.128 . S
Co396 N416 2.194 . S
Co396 O421 2.351 . S
Co396 O422 2.155 . S
Co396 O423 2.096 . S
C397 N400 1.301 . S
C397 N401 1.328 1_554 S
C397 H402 0.930 . S
C398 C399 1.333 1_554 S
C398 N400 1.317 . S
C398 H403 0.930 . S
C399 C398 1.333 1_556 S
C399 N401 1.350 . S
C399 H425 0.931 . S
N400 Co396 2.148 . S
N400 C397 1.301 . S
N400 C398 1.317 . S
N401 C397 1.328 1_556 S
N401 C399 1.350 . S
H402 C397 0.930 . S
H403 C398 0.930 . S
C404 O405 1.224 . S
C404 O423 1.247 . S
O405 C404 1.224 . S
N406 Co396 2.128 . S
N406 C407 1.355 . S
N406 C409 1.311 . S
C407 N406 1.355 . S
C407 C408 1.363 . S
C407 H419 0.929 . S
C408 C407 1.363 . S
C408 N410 1.375 . S
C408 H426 0.931 . S
C409 N406 1.311 . S
C409 N410 1.347 . S
C409 H420 0.929 . S
N410 C408 1.375 . S
N410 C409 1.347 . S
C411 C414 1.365 . S
C411 N416 1.328 . S
C411 H417 0.929 . S
C412 C413 1.362 . S
C412 C415 1.378 . S
C412 H427 0.929 . S
C413 C412 1.362 . S
C413 C414 1.366 . S
C414 C411 1.365 . S
C414 C413 1.366 . S
C414 H428 0.930 . S
C415 C412 1.378 . S
C415 N416 1.315 . S
C415 H418 0.930 . S
N416 Co396 2.194 . S
N416 C411 1.328 . S
N416 C415 1.315 . S
H417 C411 0.929 . S
H418 C415 0.930 . S
H419 C407 0.929 . S
H420 C409 0.929 . S
O421 Co396 2.351 . S
O421 C424 1.244 . S
O422 Co396 2.155 . S
O422 C424 1.240 . S
O423 Co396 2.096 . S
O423 C404 1.247 . S
C424 O421 1.244 . S
C424 O422 1.240 . S
H425 C399 0.931 . S
H426 C408 0.931 . S
H427 C412 0.929 . S
H428 C414 0.930 . S
Co429 N433 2.141 1_565 S
Co429 N439 2.133 . S
Co429 N449 2.192 1_565 S
Co429 O454 2.398 . S
Co429 O455 2.186 . S
Co429 O456 2.062 1_565 S
C430 N433 1.301 1_565 S
C430 N434 1.335 . S
C430 H435 0.930 . S
C431 C432 1.333 . S
C431 N433 1.317 . S
C431 H436 0.930 . S
C432 C431 1.333 . S
C432 N434 1.336 1_545 S
C432 H458 0.931 . S
N433 Co429 2.141 1_545 S
N433 C430 1.301 1_545 S
N433 C431 1.317 . S
N434 C430 1.335 . S
N434 C432 1.336 1_565 S
H435 C430 0.930 . S
H436 C431 0.930 . S
C437 O438 1.224 . S
C437 O456 1.247 . S
O438 C437 1.224 . S
N439 Co429 2.133 . S
N439 C440 1.355 . S
N439 C442 1.311 1_565 S
C440 N439 1.355 . S
C440 C441 1.363 . S
C440 H452 0.929 . S
C441 C440 1.363 . S
C441 N443 1.375 1_565 S
C441 H459 0.931 . S
C442 N439 1.311 1_545 S
C442 N443 1.347 . S
C442 H453 0.929 . S
N443 C441 1.375 1_545 S
N443 C442 1.347 . S
C444 C447 1.365 . S
C444 N449 1.310 1_565 S
C444 H450 0.929 . S
C445 C446 1.362 . S
C445 C448 1.378 . S
C445 H460 0.929 . S
C446 C445 1.362 . S
C446 C447 1.366 1_545 S
C447 C444 1.365 . S
C447 C446 1.366 1_565 S
C447 H461 0.930 . S
C448 C445 1.378 . S
C448 N449 1.335 . S
C448 H451 0.930 . S
N449 Co429 2.192 1_545 S
N449 C444 1.310 1_545 S
N449 C448 1.335 . S
H450 C444 0.929 . S
H451 C448 0.930 . S
H452 C440 0.929 . S
H453 C442 0.929 . S
O454 Co429 2.398 . S
O454 C457 1.244 . S
O455 Co429 2.186 . S
O455 C457 1.240 . S
O456 Co429 2.062 1_545 S
O456 C437 1.247 . S
C457 O454 1.244 . S
C457 O455 1.240 . S
H458 C432 0.931 . S
H459 C441 0.931 . S
H460 C445 0.929 . S
H461 C447 0.930 . S
Co462 N466 2.148 . S
Co462 N472 2.128 . S
Co462 N482 2.194 . S
Co462 O487 2.351 . S
Co462 O488 2.155 . S
Co462 O489 2.096 . S
C463 N466 1.301 . S
C463 N467 1.328 . S
C463 H468 0.930 . S
C464 C465 1.333 . S
C464 N466 1.317 . S
C464 H469 0.930 . S
C465 C464 1.333 . S
C465 N467 1.350 . S
C465 H491 0.931 . S
N466 Co462 2.148 . S
N466 C463 1.301 . S
N466 C464 1.317 . S
N467 C463 1.328 . S
N467 C465 1.350 . S
H468 C463 0.930 . S
H469 C464 0.930 . S
C470 O471 1.224 . S
C470 O489 1.247 . S
O471 C470 1.224 . S
N472 Co462 2.128 . S
N472 C473 1.355 . S
N472 C475 1.311 . S
C473 N472 1.355 . S
C473 C474 1.363 . S
C473 H485 0.929 . S
C474 C473 1.363 . S
C474 N476 1.375 . S
C474 H492 0.931 . S
C475 N472 1.311 . S
C475 N476 1.347 . S
C475 H486 0.929 . S
N476 C474 1.375 . S
N476 C475 1.347 . S
C477 C480 1.365 . S
C477 N482 1.328 . S
C477 H483 0.929 . S
C478 C479 1.362 . S
C478 C481 1.378 . S
C478 H493 0.929 . S
C479 C478 1.362 . S
C479 C480 1.366 . S
C480 C477 1.365 . S
C480 C479 1.366 . S
C480 H494 0.930 . S
C481 C478 1.378 . S
C481 N482 1.315 . S
C481 H484 0.930 . S
N482 Co462 2.194 . S
N482 C477 1.328 . S
N482 C481 1.315 . S
H483 C477 0.929 . S
H484 C481 0.930 . S
H485 C473 0.929 . S
H486 C475 0.929 . S
O487 Co462 2.351 . S
O487 C490 1.244 . S
O488 Co462 2.155 . S
O488 C490 1.240 . S
O489 Co462 2.096 . S
O489 C470 1.247 . S
C490 O487 1.244 . S
C490 O488 1.240 . S
H491 C465 0.931 . S
H492 C474 0.931 . S
H493 C478 0.929 . S
H494 C480 0.930 . S
Co495 N499 2.141 1_545 S
Co495 N505 2.133 . S
Co495 N515 2.192 1_545 S
Co495 O520 2.397 . S
Co495 O521 2.186 . S
Co495 O522 2.062 1_545 S
C496 N499 1.301 1_545 S
C496 N500 1.335 . S
C496 H501 0.930 . S
C497 C498 1.333 . S
C497 N499 1.317 . S
C497 H502 0.930 . S
C498 C497 1.333 . S
C498 N500 1.336 1_565 S
C498 H524 0.931 . S
N499 Co495 2.141 1_565 S
N499 C496 1.301 1_565 S
N499 C497 1.317 . S
N500 C496 1.335 . S
N500 C498 1.336 1_545 S
H501 C496 0.930 . S
H502 C497 0.930 . S
C503 O504 1.224 . S
C503 O522 1.247 . S
O504 C503 1.224 . S
N505 Co495 2.133 . S
N505 C506 1.355 . S
N505 C508 1.311 1_545 S
C506 N505 1.355 . S
C506 C507 1.363 . S
C506 H518 0.929 . S
C507 C506 1.363 . S
C507 N509 1.375 1_545 S
C507 H525 0.931 . S
C508 N505 1.311 1_565 S
C508 N509 1.347 . S
C508 H519 0.929 . S
N509 C507 1.375 1_565 S
N509 C508 1.347 . S
C510 C513 1.365 . S
C510 N515 1.310 1_545 S
C510 H516 0.929 . S
C511 C512 1.362 . S
C511 C514 1.378 . S
C511 H526 0.929 . S
C512 C511 1.362 . S
C512 C513 1.366 1_565 S
C513 C510 1.365 . S
C513 C512 1.366 1_545 S
C513 H527 0.930 . S
C514 C511 1.378 . S
C514 N515 1.335 . S
C514 H517 0.930 . S
N515 Co495 2.192 1_565 S
N515 C510 1.310 1_565 S
N515 C514 1.335 . S
H516 C510 0.929 . S
H517 C514 0.930 . S
H518 C506 0.929 . S
H519 C508 0.929 . S
O520 Co495 2.397 . S
O520 C523 1.244 . S
O521 Co495 2.186 . S
O521 C523 1.240 . S
O522 Co495 2.062 1_565 S
O522 C503 1.247 . S
C523 O520 1.244 . S
C523 O521 1.240 . S
H524 C498 0.931 . S
H525 C507 0.931 . S
H526 C511 0.929 . S
H527 C513 0.930 . S
Co528 N532 2.148 . S
Co528 N538 2.128 . S
Co528 N548 2.194 . S
Co528 O553 2.351 . S
Co528 O554 2.155 . S
Co528 O555 2.096 . S
C529 N532 1.301 . S
C529 N533 1.328 . S
C529 H534 0.930 . S
C530 C531 1.333 . S
C530 N532 1.317 . S
C530 H535 0.930 . S
C531 C530 1.333 . S
C531 N533 1.350 . S
C531 H557 0.931 . S
N532 Co528 2.148 . S
N532 C529 1.301 . S
N532 C530 1.317 . S
N533 C529 1.328 . S
N533 C531 1.350 . S
H534 C529 0.930 . S
H535 C530 0.930 . S
C536 O537 1.224 . S
C536 O555 1.247 . S
O537 C536 1.224 . S
N538 Co528 2.128 . S
N538 C539 1.355 . S
N538 C541 1.311 . S
C539 N538 1.355 . S
C539 C540 1.363 . S
C539 H551 0.929 . S
C540 C539 1.363 . S
C540 N542 1.375 . S
C540 H558 0.931 . S
C541 N538 1.311 . S
C541 N542 1.347 . S
C541 H552 0.929 . S
N542 C540 1.375 . S
N542 C541 1.347 . S
C543 C546 1.365 . S
C543 N548 1.328 . S
C543 H549 0.929 . S
C544 C545 1.362 . S
C544 C547 1.378 . S
C544 H559 0.929 . S
C545 C544 1.362 . S
C545 C546 1.366 . S
C546 C543 1.365 . S
C546 C545 1.366 . S
C546 H560 0.930 . S
C547 C544 1.378 . S
C547 N548 1.315 . S
C547 H550 0.930 . S
N548 Co528 2.194 . S
N548 C543 1.328 . S
N548 C547 1.315 . S
H549 C543 0.929 . S
H550 C547 0.930 . S
H551 C539 0.929 . S
H552 C541 0.929 . S
O553 Co528 2.351 . S
O553 C556 1.244 . S
O554 Co528 2.155 . S
O554 C556 1.240 . S
O555 Co528 2.096 . S
O555 C536 1.247 . S
C556 O553 1.244 . S
C556 O554 1.240 . S
H557 C531 0.931 . S
H558 C540 0.931 . S
H559 C544 0.929 . S
H560 C546 0.930 . S
Co561 N565 2.148 . S
Co561 N571 2.128 . S
Co561 N581 2.194 . S
Co561 O586 2.351 . S
Co561 O587 2.155 . S
Co561 O588 2.096 . S
C562 N565 1.301 . S
C562 N566 1.328 . S
C562 H567 0.930 . S
C563 C564 1.333 . S
C563 N565 1.317 . S
C563 H568 0.930 . S
C564 C563 1.333 . S
C564 N566 1.350 . S
C564 H590 0.931 . S
N565 Co561 2.148 . S
N565 C562 1.301 . S
N565 C563 1.317 . S
N566 C562 1.328 . S
N566 C564 1.350 . S
H567 C562 0.930 . S
H568 C563 0.930 . S
C569 O570 1.224 . S
C569 O588 1.247 . S
O570 C569 1.224 . S
N571 Co561 2.128 . S
N571 C572 1.355 . S
N571 C574 1.311 . S
C572 N571 1.355 . S
C572 C573 1.363 . S
C572 H584 0.929 . S
C573 C572 1.363 . S
C573 N575 1.375 . S
C573 H591 0.931 . S
C574 N571 1.311 . S
C574 N575 1.347 . S
C574 H585 0.929 . S
N575 C573 1.375 . S
N575 C574 1.347 . S
C576 C579 1.365 . S
C576 N581 1.328 . S
C576 H582 0.929 . S
C577 C578 1.362 . S
C577 C580 1.378 . S
C577 H592 0.929 . S
C578 C577 1.362 . S
C578 C579 1.366 . S
C579 C576 1.365 . S
C579 C578 1.366 . S
C579 H593 0.930 . S
C580 C577 1.378 . S
C580 N581 1.315 . S
C580 H583 0.930 . S
N581 Co561 2.194 . S
N581 C576 1.328 . S
N581 C580 1.315 . S
H582 C576 0.929 . S
H583 C580 0.930 . S
H584 C572 0.929 . S
H585 C574 0.929 . S
O586 Co561 2.351 . S
O586 C589 1.244 . S
O587 Co561 2.155 . S
O587 C589 1.240 . S
O588 Co561 2.096 . S
O588 C569 1.247 . S
C589 O586 1.244 . S
C589 O587 1.240 . S
H590 C564 0.931 . S
H591 C573 0.931 . S
H592 C577 0.929 . S
H593 C579 0.930 . S
Co594 N598 2.148 . S
Co594 N604 2.128 . S
Co594 N614 2.194 . S
Co594 O619 2.351 . S
Co594 O620 2.155 . S
Co594 O621 2.096 . S
C595 N598 1.301 . S
C595 N599 1.328 1_554 S
C595 H600 0.930 . S
C596 C597 1.333 1_554 S
C596 N598 1.317 . S
C596 H601 0.930 . S
C597 C596 1.333 1_556 S
C597 N599 1.350 . S
C597 H623 0.931 . S
N598 Co594 2.148 . S
N598 C595 1.301 . S
N598 C596 1.317 . S
N599 C595 1.328 1_556 S
N599 C597 1.350 . S
H600 C595 0.930 . S
H601 C596 0.930 . S
C602 O603 1.224 . S
C602 O621 1.247 . S
O603 C602 1.224 . S
N604 Co594 2.128 . S
N604 C605 1.355 . S
N604 C607 1.311 . S
C605 N604 1.355 . S
C605 C606 1.363 . S
C605 H617 0.929 . S
C606 C605 1.363 . S
C606 N608 1.375 . S
C606 H624 0.931 . S
C607 N604 1.311 . S
C607 N608 1.347 . S
C607 H618 0.929 . S
N608 C606 1.375 . S
N608 C607 1.347 . S
C609 C612 1.365 . S
C609 N614 1.328 . S
C609 H615 0.929 . S
C610 C611 1.362 . S
C610 C613 1.378 . S
C610 H625 0.929 . S
C611 C610 1.362 . S
C611 C612 1.366 . S
C612 C609 1.365 . S
C612 C611 1.366 . S
C612 H626 0.930 . S
C613 C610 1.378 . S
C613 N614 1.315 . S
C613 H616 0.930 . S
N614 Co594 2.194 . S
N614 C609 1.328 . S
N614 C613 1.315 . S
H615 C609 0.929 . S
H616 C613 0.930 . S
H617 C605 0.929 . S
H618 C607 0.929 . S
O619 Co594 2.351 . S
O619 C622 1.244 . S
O620 Co594 2.155 . S
O620 C622 1.240 . S
O621 Co594 2.096 . S
O621 C602 1.247 . S
C622 O619 1.244 . S
C622 O620 1.240 . S
H623 C597 0.931 . S
H624 C606 0.931 . S
H625 C610 0.929 . S
H626 C612 0.930 . S
Co627 N631 2.148 . S
Co627 N637 2.128 . S
Co627 N647 2.194 . S
Co627 O652 2.351 . S
Co627 O653 2.155 . S
Co627 O654 2.096 . S
C628 N631 1.301 . S
C628 N632 1.328 . S
C628 H633 0.930 . S
C629 C630 1.333 . S
C629 N631 1.317 . S
C629 H634 0.930 . S
C630 C629 1.333 . S
C630 N632 1.350 . S
C630 H656 0.931 . S
N631 Co627 2.148 . S
N631 C628 1.301 . S
N631 C629 1.317 . S
N632 C628 1.328 . S
N632 C630 1.350 . S
H633 C628 0.930 . S
H634 C629 0.930 . S
C635 O636 1.224 . S
C635 O654 1.247 . S
O636 C635 1.224 . S
N637 Co627 2.128 . S
N637 C638 1.355 . S
N637 C640 1.311 . S
C638 N637 1.355 . S
C638 C639 1.363 . S
C638 H650 0.929 . S
C639 C638 1.363 . S
C639 N641 1.375 . S
C639 H657 0.931 . S
C640 N637 1.311 . S
C640 N641 1.347 . S
C640 H651 0.929 . S
N641 C639 1.375 . S
N641 C640 1.347 . S
C642 C645 1.365 . S
C642 N647 1.328 . S
C642 H648 0.929 . S
C643 C644 1.362 . S
C643 C646 1.378 . S
C643 H658 0.929 . S
C644 C643 1.362 . S
C644 C645 1.366 . S
C645 C642 1.365 . S
C645 C644 1.366 . S
C645 H659 0.930 . S
C646 C643 1.378 . S
C646 N647 1.315 . S
C646 H649 0.930 . S
N647 Co627 2.194 . S
N647 C642 1.328 . S
N647 C646 1.315 . S
H648 C642 0.929 . S
H649 C646 0.930 . S
H650 C638 0.929 . S
H651 C640 0.929 . S
O652 Co627 2.351 . S
O652 C655 1.244 . S
O653 Co627 2.155 . S
O653 C655 1.240 . S
O654 Co627 2.096 . S
O654 C635 1.247 . S
C655 O652 1.244 . S
C655 O653 1.240 . S
H656 C630 0.931 . S
H657 C639 0.931 . S
H658 C643 0.929 . S
H659 C645 0.930 . S
Co660 N664 2.148 . S
Co660 N670 2.128 . S
Co660 N680 2.194 . S
Co660 O685 2.351 . S
Co660 O686 2.155 . S
Co660 O687 2.096 . S
C661 N664 1.301 . S
C661 N665 1.328 . S
C661 H666 0.930 . S
C662 C663 1.333 . S
C662 N664 1.317 . S
C662 H667 0.930 . S
C663 C662 1.333 . S
C663 N665 1.350 . S
C663 H689 0.931 . S
N664 Co660 2.148 . S
N664 C661 1.301 . S
N664 C662 1.317 . S
N665 C661 1.328 . S
N665 C663 1.350 . S
H666 C661 0.930 . S
H667 C662 0.930 . S
C668 O669 1.224 . S
C668 O687 1.247 . S
O669 C668 1.224 . S
N670 Co660 2.128 . S
N670 C671 1.355 . S
N670 C673 1.311 . S
C671 N670 1.355 . S
C671 C672 1.363 . S
C671 H683 0.929 . S
C672 C671 1.363 . S
C672 N674 1.375 . S
C672 H690 0.931 . S
C673 N670 1.311 . S
C673 N674 1.347 . S
C673 H684 0.929 . S
N674 C672 1.375 . S
N674 C673 1.347 . S
C675 C678 1.365 . S
C675 N680 1.328 . S
C675 H681 0.929 . S
C676 C677 1.362 . S
C676 C679 1.378 . S
C676 H691 0.929 . S
C677 C676 1.362 . S
C677 C678 1.366 . S
C678 C675 1.365 . S
C678 C677 1.366 . S
C678 H692 0.930 . S
C679 C676 1.378 . S
C679 N680 1.315 . S
C679 H682 0.930 . S
N680 Co660 2.194 . S
N680 C675 1.328 . S
N680 C679 1.315 . S
H681 C675 0.929 . S
H682 C679 0.930 . S
H683 C671 0.929 . S
H684 C673 0.929 . S
O685 Co660 2.351 . S
O685 C688 1.244 . S
O686 Co660 2.155 . S
O686 C688 1.240 . S
O687 Co660 2.096 . S
O687 C668 1.247 . S
C688 O685 1.244 . S
C688 O686 1.240 . S
H689 C663 0.931 . S
H690 C672 0.931 . S
H691 C676 0.929 . S
H692 C678 0.930 . S
Co693 N697 2.148 . S
Co693 N703 2.128 . S
Co693 N713 2.194 . S
Co693 O718 2.351 . S
Co693 O719 2.155 . S
Co693 O720 2.096 . S
C694 N697 1.301 . S
C694 N698 1.328 . S
C694 H699 0.930 . S
C695 C696 1.333 . S
C695 N697 1.317 . S
C695 H700 0.930 . S
C696 C695 1.333 . S
C696 N698 1.350 . S
C696 H722 0.931 . S
N697 Co693 2.148 . S
N697 C694 1.301 . S
N697 C695 1.317 . S
N698 C694 1.328 . S
N698 C696 1.350 . S
H699 C694 0.930 . S
H700 C695 0.930 . S
C701 O702 1.224 . S
C701 O720 1.247 . S
O702 C701 1.224 . S
N703 Co693 2.128 . S
N703 C704 1.355 . S
N703 C706 1.311 . S
C704 N703 1.355 . S
C704 C705 1.363 . S
C704 H716 0.929 . S
C705 C704 1.363 . S
C705 N707 1.375 . S
C705 H723 0.931 . S
C706 N703 1.311 . S
C706 N707 1.347 . S
C706 H717 0.929 . S
N707 C705 1.375 . S
N707 C706 1.347 . S
C708 C711 1.365 . S
C708 N713 1.328 . S
C708 H714 0.929 . S
C709 C710 1.362 . S
C709 C712 1.378 . S
C709 H724 0.929 . S
C710 C709 1.362 . S
C710 C711 1.366 . S
C711 C708 1.365 . S
C711 C710 1.366 . S
C711 H725 0.930 . S
C712 C709 1.378 . S
C712 N713 1.315 . S
C712 H715 0.930 . S
N713 Co693 2.194 . S
N713 C708 1.328 . S
N713 C712 1.315 . S
H714 C708 0.929 . S
H715 C712 0.930 . S
H716 C704 0.929 . S
H717 C706 0.929 . S
O718 Co693 2.351 . S
O718 C721 1.244 . S
O719 Co693 2.155 . S
O719 C721 1.240 . S
O720 Co693 2.096 . S
O720 C701 1.247 . S
C721 O718 1.244 . S
C721 O719 1.240 . S
H722 C696 0.931 . S
H723 C705 0.931 . S
H724 C709 0.929 . S
H725 C711 0.930 . S
Co726 N730 2.148 . S
Co726 N736 2.128 . S
Co726 N746 2.194 . S
Co726 O751 2.351 . S
Co726 O752 2.155 . S
Co726 O753 2.096 . S
C727 N730 1.301 . S
C727 N731 1.328 1_556 S
C727 H732 0.930 . S
C728 C729 1.333 1_556 S
C728 N730 1.317 . S
C728 H733 0.930 . S
C729 C728 1.333 1_554 S
C729 N731 1.350 . S
C729 H755 0.931 . S
N730 Co726 2.148 . S
N730 C727 1.301 . S
N730 C728 1.317 . S
N731 C727 1.328 1_554 S
N731 C729 1.350 . S
H732 C727 0.930 . S
H733 C728 0.930 . S
C734 O735 1.224 . S
C734 O753 1.247 . S
O735 C734 1.224 . S
N736 Co726 2.128 . S
N736 C737 1.355 . S
N736 C739 1.311 . S
C737 N736 1.355 . S
C737 C738 1.363 . S
C737 H749 0.929 . S
C738 C737 1.363 . S
C738 N740 1.375 . S
C738 H756 0.931 . S
C739 N736 1.311 . S
C739 N740 1.347 . S
C739 H750 0.929 . S
N740 C738 1.375 . S
N740 C739 1.347 . S
C741 C744 1.365 . S
C741 N746 1.328 . S
C741 H747 0.929 . S
C742 C743 1.362 . S
C742 C745 1.378 . S
C742 H757 0.929 . S
C743 C742 1.362 . S
C743 C744 1.366 . S
C744 C741 1.365 . S
C744 C743 1.366 . S
C744 H758 0.930 . S
C745 C742 1.378 . S
C745 N746 1.315 . S
C745 H748 0.930 . S
N746 Co726 2.194 . S
N746 C741 1.328 . S
N746 C745 1.315 . S
H747 C741 0.929 . S
H748 C745 0.930 . S
H749 C737 0.929 . S
H750 C739 0.929 . S
O751 Co726 2.351 . S
O751 C754 1.244 . S
O752 Co726 2.155 . S
O752 C754 1.240 . S
O753 Co726 2.096 . S
O753 C734 1.247 . S
C754 O751 1.244 . S
C754 O752 1.240 . S
H755 C729 0.931 . S
H756 C738 0.931 . S
H757 C742 0.929 . S
H758 C744 0.930 . S
Co759 N763 2.148 . S
Co759 N769 2.128 . S
Co759 N779 2.194 . S
Co759 O784 2.351 . S
Co759 O785 2.155 . S
Co759 O786 2.096 . S
C760 N763 1.301 . S
C760 N764 1.328 . S
C760 H765 0.930 . S
C761 C762 1.333 . S
C761 N763 1.317 . S
C761 H766 0.930 . S
C762 C761 1.333 . S
C762 N764 1.350 . S
C762 H788 0.931 . S
N763 Co759 2.148 . S
N763 C760 1.301 . S
N763 C761 1.317 . S
N764 C760 1.328 . S
N764 C762 1.350 . S
H765 C760 0.930 . S
H766 C761 0.930 . S
C767 O768 1.224 . S
C767 O786 1.247 . S
O768 C767 1.224 . S
N769 Co759 2.128 . S
N769 C770 1.355 . S
N769 C772 1.311 . S
C770 N769 1.355 . S
C770 C771 1.363 . S
C770 H782 0.929 . S
C771 C770 1.363 . S
C771 N773 1.375 . S
C771 H789 0.931 . S
C772 N769 1.311 . S
C772 N773 1.347 . S
C772 H783 0.929 . S
N773 C771 1.375 . S
N773 C772 1.347 . S
C774 C777 1.365 . S
C774 N779 1.328 . S
C774 H780 0.929 . S
C775 C776 1.362 . S
C775 C778 1.378 . S
C775 H790 0.929 . S
C776 C775 1.362 . S
C776 C777 1.366 . S
C777 C774 1.365 . S
C777 C776 1.366 . S
C777 H791 0.930 . S
C778 C775 1.378 . S
C778 N779 1.315 . S
C778 H781 0.930 . S
N779 Co759 2.194 . S
N779 C774 1.328 . S
N779 C778 1.315 . S
H780 C774 0.929 . S
H781 C778 0.930 . S
H782 C770 0.929 . S
H783 C772 0.929 . S
O784 Co759 2.351 . S
O784 C787 1.244 . S
O785 Co759 2.155 . S
O785 C787 1.240 . S
O786 Co759 2.096 . S
O786 C767 1.247 . S
C787 O784 1.244 . S
C787 O785 1.240 . S
H788 C762 0.931 . S
H789 C771 0.931 . S
H790 C775 0.929 . S
H791 C777 0.930 . S
Co792 N796 2.148 . S
Co792 N802 2.128 . S
Co792 N812 2.194 . S
Co792 O817 2.351 . S
Co792 O818 2.155 . S
Co792 O819 2.096 . S
C793 N796 1.301 . S
C793 N797 1.328 . S
C793 H798 0.930 . S
C794 C795 1.333 . S
C794 N796 1.317 . S
C794 H799 0.930 . S
C795 C794 1.333 . S
C795 N797 1.350 . S
C795 H821 0.931 . S
N796 Co792 2.148 . S
N796 C793 1.301 . S
N796 C794 1.317 . S
N797 C793 1.328 . S
N797 C795 1.350 . S
H798 C793 0.930 . S
H799 C794 0.930 . S
C800 O801 1.224 . S
C800 O819 1.247 . S
O801 C800 1.224 . S
N802 Co792 2.128 . S
N802 C803 1.355 . S
N802 C805 1.311 . S
C803 N802 1.355 . S
C803 C804 1.363 . S
C803 H815 0.929 . S
C804 C803 1.363 . S
C804 N806 1.375 . S
C804 H822 0.931 . S
C805 N802 1.311 . S
C805 N806 1.347 . S
C805 H816 0.929 . S
N806 C804 1.375 . S
N806 C805 1.347 . S
C807 C810 1.365 . S
C807 N812 1.328 . S
C807 H813 0.929 . S
C808 C809 1.362 . S
C808 C811 1.378 . S
C808 H823 0.929 . S
C809 C808 1.362 . S
C809 C810 1.366 . S
C810 C807 1.365 . S
C810 C809 1.366 . S
C810 H824 0.930 . S
C811 C808 1.378 . S
C811 N812 1.315 . S
C811 H814 0.930 . S
N812 Co792 2.194 . S
N812 C807 1.328 . S
N812 C811 1.315 . S
H813 C807 0.929 . S
H814 C811 0.930 . S
H815 C803 0.929 . S
H816 C805 0.929 . S
O817 Co792 2.351 . S
O817 C820 1.244 . S
O818 Co792 2.155 . S
O818 C820 1.240 . S
O819 Co792 2.096 . S
O819 C800 1.247 . S
C820 O817 1.244 . S
C820 O818 1.240 . S
H821 C795 0.931 . S
H822 C804 0.931 . S
H823 C808 0.929 . S
H824 C810 0.930 . S
Co825 N829 2.148 . S
Co825 N835 2.128 . S
Co825 N845 2.194 . S
Co825 O850 2.351 . S
Co825 O851 2.155 . S
Co825 O852 2.096 . S
C826 N829 1.301 . S
C826 N830 1.328 . S
C826 H831 0.930 . S
C827 C828 1.333 . S
C827 N829 1.317 . S
C827 H832 0.930 . S
C828 C827 1.333 . S
C828 N830 1.350 . S
C828 H854 0.931 . S
N829 Co825 2.148 . S
N829 C826 1.301 . S
N829 C827 1.317 . S
N830 C826 1.328 . S
N830 C828 1.350 . S
H831 C826 0.930 . S
H832 C827 0.930 . S
C833 O834 1.224 . S
C833 O852 1.247 . S
O834 C833 1.224 . S
N835 Co825 2.128 . S
N835 C836 1.355 . S
N835 C838 1.311 . S
C836 N835 1.355 . S
C836 C837 1.363 . S
C836 H848 0.929 . S
C837 C836 1.363 . S
C837 N839 1.375 . S
C837 H855 0.931 . S
C838 N835 1.311 . S
C838 N839 1.347 . S
C838 H849 0.929 . S
N839 C837 1.375 . S
N839 C838 1.347 . S
C840 C843 1.365 . S
C840 N845 1.328 . S
C840 H846 0.929 . S
C841 C842 1.362 . S
C841 C844 1.378 . S
C841 H856 0.929 . S
C842 C841 1.362 . S
C842 C843 1.366 . S
C843 C840 1.365 . S
C843 C842 1.366 . S
C843 H857 0.930 . S
C844 C841 1.378 . S
C844 N845 1.315 . S
C844 H847 0.930 . S
N845 Co825 2.194 . S
N845 C840 1.328 . S
N845 C844 1.315 . S
H846 C840 0.929 . S
H847 C844 0.930 . S
H848 C836 0.929 . S
H849 C838 0.929 . S
O850 Co825 2.351 . S
O850 C853 1.244 . S
O851 Co825 2.155 . S
O851 C853 1.240 . S
O852 Co825 2.096 . S
O852 C833 1.247 . S
C853 O850 1.244 . S
C853 O851 1.240 . S
H854 C828 0.931 . S
H855 C837 0.931 . S
H856 C841 0.929 . S
H857 C843 0.930 . S
Co858 N862 2.148 . S
Co858 N868 2.128 . S
Co858 N878 2.194 . S
Co858 O883 2.351 . S
Co858 O884 2.155 . S
Co858 O885 2.096 . S
C859 N862 1.301 . S
C859 N863 1.328 1_556 S
C859 H864 0.930 . S
C860 C861 1.333 1_556 S
C860 N862 1.317 . S
C860 H865 0.930 . S
C861 C860 1.333 1_554 S
C861 N863 1.350 . S
C861 H887 0.931 . S
N862 Co858 2.148 . S
N862 C859 1.301 . S
N862 C860 1.317 . S
N863 C859 1.328 1_554 S
N863 C861 1.350 . S
H864 C859 0.930 . S
H865 C860 0.930 . S
C866 O867 1.224 . S
C866 O885 1.247 . S
O867 C866 1.224 . S
N868 Co858 2.128 . S
N868 C869 1.355 . S
N868 C871 1.311 . S
C869 N868 1.355 . S
C869 C870 1.363 . S
C869 H881 0.929 . S
C870 C869 1.363 . S
C870 N872 1.375 . S
C870 H888 0.931 . S
C871 N868 1.311 . S
C871 N872 1.347 . S
C871 H882 0.929 . S
N872 C870 1.375 . S
N872 C871 1.347 . S
C873 C876 1.365 . S
C873 N878 1.328 . S
C873 H879 0.929 . S
C874 C875 1.362 . S
C874 C877 1.378 . S
C874 H889 0.929 . S
C875 C874 1.362 . S
C875 C876 1.366 . S
C876 C873 1.365 . S
C876 C875 1.366 . S
C876 H890 0.930 . S
C877 C874 1.378 . S
C877 N878 1.315 . S
C877 H880 0.930 . S
N878 Co858 2.194 . S
N878 C873 1.328 . S
N878 C877 1.315 . S
H879 C873 0.929 . S
H880 C877 0.930 . S
H881 C869 0.929 . S
H882 C871 0.929 . S
O883 Co858 2.351 . S
O883 C886 1.244 . S
O884 Co858 2.155 . S
O884 C886 1.240 . S
O885 Co858 2.096 . S
O885 C866 1.247 . S
C886 O883 1.244 . S
C886 O884 1.240 . S
H887 C861 0.931 . S
H888 C870 0.931 . S
H889 C874 0.929 . S
H890 C876 0.930 . S
Co891 N895 2.148 . S
Co891 N901 2.128 . S
Co891 N911 2.194 . S
Co891 O916 2.351 . S
Co891 O917 2.155 . S
Co891 O918 2.096 . S
C892 N895 1.301 . S
C892 N896 1.328 . S
C892 H897 0.930 . S
C893 C894 1.333 . S
C893 N895 1.317 . S
C893 H898 0.930 . S
C894 C893 1.333 . S
C894 N896 1.350 . S
C894 H920 0.931 . S
N895 Co891 2.148 . S
N895 C892 1.301 . S
N895 C893 1.317 . S
N896 C892 1.328 . S
N896 C894 1.350 . S
H897 C892 0.930 . S
H898 C893 0.930 . S
C899 O900 1.224 . S
C899 O918 1.247 . S
O900 C899 1.224 . S
N901 Co891 2.128 . S
N901 C902 1.355 . S
N901 C904 1.311 . S
C902 N901 1.355 . S
C902 C903 1.363 . S
C902 H914 0.929 . S
C903 C902 1.363 . S
C903 N905 1.375 . S
C903 H921 0.931 . S
C904 N901 1.311 . S
C904 N905 1.347 . S
C904 H915 0.929 . S
N905 C903 1.375 . S
N905 C904 1.347 . S
C906 C909 1.365 . S
C906 N911 1.328 . S
C906 H912 0.929 . S
C907 C908 1.362 . S
C907 C910 1.378 . S
C907 H922 0.929 . S
C908 C907 1.362 . S
C908 C909 1.366 . S
C909 C906 1.365 . S
C909 C908 1.366 . S
C909 H923 0.930 . S
C910 C907 1.378 . S
C910 N911 1.315 . S
C910 H913 0.930 . S
N911 Co891 2.194 . S
N911 C906 1.328 . S
N911 C910 1.315 . S
H912 C906 0.929 . S
H913 C910 0.930 . S
H914 C902 0.929 . S
H915 C904 0.929 . S
O916 Co891 2.351 . S
O916 C919 1.244 . S
O917 Co891 2.155 . S
O917 C919 1.240 . S
O918 Co891 2.096 . S
O918 C899 1.247 . S
C919 O916 1.244 . S
C919 O917 1.240 . S
H920 C894 0.931 . S
H921 C903 0.931 . S
H922 C907 0.929 . S
H923 C909 0.930 . S
Co924 N928 2.148 . S
Co924 N934 2.128 . S
Co924 N944 2.194 . S
Co924 O949 2.351 . S
Co924 O950 2.155 . S
Co924 O951 2.096 . S
C925 N928 1.301 . S
C925 N929 1.328 . S
C925 H930 0.930 . S
C926 C927 1.333 . S
C926 N928 1.317 . S
C926 H931 0.930 . S
C927 C926 1.333 . S
C927 N929 1.350 . S
C927 H953 0.931 . S
N928 Co924 2.148 . S
N928 C925 1.301 . S
N928 C926 1.317 . S
N929 C925 1.328 . S
N929 C927 1.350 . S
H930 C925 0.930 . S
H931 C926 0.930 . S
C932 O933 1.224 . S
C932 O951 1.247 . S
O933 C932 1.224 . S
N934 Co924 2.128 . S
N934 C935 1.355 . S
N934 C937 1.311 . S
C935 N934 1.355 . S
C935 C936 1.363 . S
C935 H947 0.929 . S
C936 C935 1.363 . S
C936 N938 1.375 . S
C936 H954 0.931 . S
C937 N934 1.311 . S
C937 N938 1.347 . S
C937 H948 0.929 . S
N938 C936 1.375 . S
N938 C937 1.347 . S
C939 C942 1.365 . S
C939 N944 1.328 . S
C939 H945 0.929 . S
C940 C941 1.362 . S
C940 C943 1.378 . S
C940 H955 0.929 . S
C941 C940 1.362 . S
C941 C942 1.366 . S
C942 C939 1.365 . S
C942 C941 1.366 . S
C942 H956 0.930 . S
C943 C940 1.378 . S
C943 N944 1.315 . S
C943 H946 0.930 . S
N944 Co924 2.194 . S
N944 C939 1.328 . S
N944 C943 1.315 . S
H945 C939 0.929 . S
H946 C943 0.930 . S
H947 C935 0.929 . S
H948 C937 0.929 . S
O949 Co924 2.351 . S
O949 C952 1.244 . S
O950 Co924 2.155 . S
O950 C952 1.240 . S
O951 Co924 2.096 . S
O951 C932 1.247 . S
C952 O949 1.244 . S
C952 O950 1.240 . S
H953 C927 0.931 . S
H954 C936 0.931 . S
H955 C940 0.929 . S
H956 C942 0.930 . S
Co957 N961 2.148 . S
Co957 N967 2.128 . S
Co957 N977 2.194 . S
Co957 O982 2.351 . S
Co957 O983 2.155 . S
Co957 O984 2.096 . S
C958 N961 1.301 . S
C958 N962 1.328 . S
C958 H963 0.930 . S
C959 C960 1.333 . S
C959 N961 1.317 . S
C959 H964 0.930 . S
C960 C959 1.333 . S
C960 N962 1.350 . S
C960 H986 0.931 . S
N961 Co957 2.148 . S
N961 C958 1.301 . S
N961 C959 1.317 . S
N962 C958 1.328 . S
N962 C960 1.350 . S
H963 C958 0.930 . S
H964 C959 0.930 . S
C965 O966 1.224 . S
C965 O984 1.247 . S
O966 C965 1.224 . S
N967 Co957 2.128 . S
N967 C968 1.355 . S
N967 C970 1.311 . S
C968 N967 1.355 . S
C968 C969 1.363 . S
C968 H980 0.929 . S
C969 C968 1.363 . S
C969 N971 1.375 . S
C969 H987 0.931 . S
C970 N967 1.311 . S
C970 N971 1.347 . S
C970 H981 0.929 . S
N971 C969 1.375 . S
N971 C970 1.347 . S
C972 C975 1.365 . S
C972 N977 1.328 . S
C972 H978 0.929 . S
C973 C974 1.362 . S
C973 C976 1.378 . S
C973 H988 0.929 . S
C974 C973 1.362 . S
C974 C975 1.366 . S
C975 C972 1.365 . S
C975 C974 1.366 . S
C975 H989 0.930 . S
C976 C973 1.378 . S
C976 N977 1.315 . S
C976 H979 0.930 . S
N977 Co957 2.194 . S
N977 C972 1.328 . S
N977 C976 1.315 . S
H978 C972 0.929 . S
H979 C976 0.930 . S
H980 C968 0.929 . S
H981 C970 0.929 . S
O982 Co957 2.351 . S
O982 C985 1.244 . S
O983 Co957 2.155 . S
O983 C985 1.240 . S
O984 Co957 2.096 . S
O984 C965 1.247 . S
C985 O982 1.244 . S
C985 O983 1.240 . S
H986 C960 0.931 . S
H987 C969 0.931 . S
H988 C973 0.929 . S
H989 C975 0.930 . S
Co990 N994 2.148 . S
Co990 N1000 2.128 . S
Co990 N1010 2.194 . S
Co990 O1015 2.351 . S
Co990 O1016 2.155 . S
Co990 O1017 2.096 . S
C991 N994 1.301 . S
C991 N995 1.328 1_554 S
C991 H996 0.930 . S
C992 C993 1.333 1_554 S
C992 N994 1.317 . S
C992 H997 0.930 . S
C993 C992 1.333 1_556 S
C993 N995 1.350 . S
C993 H1019 0.931 . S
N994 Co990 2.148 . S
N994 C991 1.301 . S
N994 C992 1.317 . S
N995 C991 1.328 1_556 S
N995 C993 1.350 . S
H996 C991 0.930 . S
H997 C992 0.930 . S
C998 O999 1.224 . S
C998 O1017 1.247 . S
O999 C998 1.224 . S
N1000 Co990 2.128 . S
N1000 C1001 1.355 . S
N1000 C1003 1.311 . S
C1001 N1000 1.355 . S
C1001 C1002 1.363 . S
C1001 H1013 0.929 . S
C1002 C1001 1.363 . S
C1002 N1004 1.375 . S
C1002 H1020 0.931 . S
C1003 N1000 1.311 . S
C1003 N1004 1.347 . S
C1003 H1014 0.929 . S
N1004 C1002 1.375 . S
N1004 C1003 1.347 . S
C1005 C1008 1.365 . S
C1005 N1010 1.328 . S
C1005 H1011 0.929 . S
C1006 C1007 1.362 . S
C1006 C1009 1.378 . S
C1006 H1021 0.929 . S
C1007 C1006 1.362 . S
C1007 C1008 1.366 . S
C1008 C1005 1.365 . S
C1008 C1007 1.366 . S
C1008 H1022 0.930 . S
C1009 C1006 1.378 . S
C1009 N1010 1.315 . S
C1009 H1012 0.930 . S
N1010 Co990 2.194 . S
N1010 C1005 1.328 . S
N1010 C1009 1.315 . S
H1011 C1005 0.929 . S
H1012 C1009 0.930 . S
H1013 C1001 0.929 . S
H1014 C1003 0.929 . S
O1015 Co990 2.351 . S
O1015 C1018 1.244 . S
O1016 Co990 2.155 . S
O1016 C1018 1.240 . S
O1017 Co990 2.096 . S
O1017 C998 1.247 . S
C1018 O1015 1.244 . S
C1018 O1016 1.240 . S
H1019 C993 0.931 . S
H1020 C1002 0.931 . S
H1021 C1006 0.929 . S
H1022 C1008 0.930 . S
Co1023 N1027 2.148 . S
Co1023 N1033 2.128 . S
Co1023 N1043 2.194 . S
Co1023 O1048 2.351 . S
Co1023 O1049 2.155 . S
Co1023 O1050 2.096 . S
C1024 N1027 1.301 . S
C1024 N1028 1.328 . S
C1024 H1029 0.930 . S
C1025 C1026 1.333 . S
C1025 N1027 1.317 . S
C1025 H1030 0.930 . S
C1026 C1025 1.333 . S
C1026 N1028 1.350 . S
C1026 H1052 0.931 . S
N1027 Co1023 2.148 . S
N1027 C1024 1.301 . S
N1027 C1025 1.317 . S
N1028 C1024 1.328 . S
N1028 C1026 1.350 . S
H1029 C1024 0.930 . S
H1030 C1025 0.930 . S
C1031 O1032 1.224 . S
C1031 O1050 1.247 . S
O1032 C1031 1.224 . S
N1033 Co1023 2.128 . S
N1033 C1034 1.355 . S
N1033 C1036 1.311 . S
C1034 N1033 1.355 . S
C1034 C1035 1.363 . S
C1034 H1046 0.929 . S
C1035 C1034 1.363 . S
C1035 N1037 1.375 . S
C1035 H1053 0.931 . S
C1036 N1033 1.311 . S
C1036 N1037 1.347 . S
C1036 H1047 0.929 . S
N1037 C1035 1.375 . S
N1037 C1036 1.347 . S
C1038 C1041 1.365 . S
C1038 N1043 1.328 . S
C1038 H1044 0.929 . S
C1039 C1040 1.362 . S
C1039 C1042 1.378 . S
C1039 H1054 0.929 . S
C1040 C1039 1.362 . S
C1040 C1041 1.366 . S
C1041 C1038 1.365 . S
C1041 C1040 1.366 . S
C1041 H1055 0.930 . S
C1042 C1039 1.378 . S
C1042 N1043 1.315 . S
C1042 H1045 0.930 . S
N1043 Co1023 2.194 . S
N1043 C1038 1.328 . S
N1043 C1042 1.315 . S
H1044 C1038 0.929 . S
H1045 C1042 0.930 . S
H1046 C1034 0.929 . S
H1047 C1036 0.929 . S
O1048 Co1023 2.351 . S
O1048 C1051 1.244 . S
O1049 Co1023 2.155 . S
O1049 C1051 1.240 . S
O1050 Co1023 2.096 . S
O1050 C1031 1.247 . S
C1051 O1048 1.244 . S
C1051 O1049 1.240 . S
H1052 C1026 0.931 . S
H1053 C1035 0.931 . S
H1054 C1039 0.929 . S
H1055 C1041 0.930 . S
C1056 C1057 1.369 . S
C1056 C1058 1.419 . S
C1056 H1060 0.930 . S
C1057 C1056 1.369 . S
C1057 C1066 1.429 . S
C1058 C1056 1.419 . S
C1058 C1059 1.363 . S
C1058 H1061 0.929 . S
C1059 C1058 1.363 . S
C1059 C1065 1.428 . S
H1060 C1056 0.930 . S
H1061 C1058 0.929 . S
S1062 N1063 1.613 . S
S1062 N1064 1.610 . S
N1063 S1062 1.613 . S
N1063 C1066 1.350 . S
N1064 S1062 1.610 . S
N1064 C1065 1.351 . S
C1065 C1059 1.428 . S
C1065 N1064 1.351 . S
C1065 C1066 1.434 . S
C1066 C1057 1.429 . S
C1066 N1063 1.350 . S
C1066 C1065 1.434 . S
C1067 C1068 1.369 . S
C1067 C1069 1.419 . S
C1067 H1071 0.930 . S
C1068 C1067 1.369 . S
C1068 C1077 1.429 . S
C1069 C1067 1.419 . S
C1069 C1070 1.363 . S
C1069 H1072 0.929 . S
C1070 C1069 1.363 . S
C1070 C1076 1.428 . S
H1071 C1067 0.930 . S
H1072 C1069 0.929 . S
S1073 N1074 1.613 . S
S1073 N1075 1.610 . S
N1074 S1073 1.613 . S
N1074 C1077 1.350 . S
N1075 S1073 1.610 . S
N1075 C1076 1.351 . S
C1076 C1070 1.428 . S
C1076 N1075 1.351 . S
C1076 C1077 1.434 . S
C1077 C1068 1.429 . S
C1077 N1074 1.350 . S
C1077 C1076 1.434 . S
C1078 C1079 1.369 . S
C1078 C1080 1.419 . S
C1078 H1082 0.930 . S
C1079 C1078 1.369 . S
C1079 C1088 1.429 . S
C1080 C1078 1.419 . S
C1080 C1081 1.363 . S
C1080 H1083 0.929 . S
C1081 C1080 1.363 . S
C1081 C1087 1.428 . S
H1082 C1078 0.930 . S
H1083 C1080 0.929 . S
S1084 N1085 1.613 . S
S1084 N1086 1.609 1_565 S
N1085 S1084 1.613 . S
N1085 C1088 1.350 . S
N1086 S1084 1.609 1_545 S
N1086 C1087 1.346 1_545 S
C1087 C1081 1.428 . S
C1087 N1086 1.346 1_565 S
C1087 C1088 1.434 . S
C1088 C1079 1.429 . S
C1088 N1085 1.350 . S
C1088 C1087 1.434 . S
C1089 C1090 1.369 . S
C1089 C1091 1.419 . S
C1089 H1093 0.930 . S
C1090 C1089 1.369 . S
C1090 C1099 1.429 . S
C1091 C1089 1.419 . S
C1091 C1092 1.363 . S
C1091 H1094 0.929 . S
C1092 C1091 1.363 . S
C1092 C1098 1.428 . S
H1093 C1089 0.930 . S
H1094 C1091 0.929 . S
S1095 N1096 1.613 . S
S1095 N1097 1.610 . S
N1096 S1095 1.613 . S
N1096 C1099 1.350 . S
N1097 S1095 1.610 . S
N1097 C1098 1.351 . S
C1098 C1092 1.428 . S
C1098 N1097 1.351 . S
C1098 C1099 1.434 . S
C1099 C1090 1.429 . S
C1099 N1096 1.350 . S
C1099 C1098 1.434 . S
C1100 C1101 1.369 . S
C1100 C1102 1.419 . S
C1100 H1104 0.930 . S
C1101 C1100 1.369 . S
C1101 C1110 1.429 . S
C1102 C1100 1.419 . S
C1102 C1103 1.363 . S
C1102 H1105 0.929 . S
C1103 C1102 1.363 . S
C1103 C1109 1.428 . S
H1104 C1100 0.930 . S
H1105 C1102 0.929 . S
S1106 N1107 1.613 . S
S1106 N1108 1.610 . S
N1107 S1106 1.613 . S
N1107 C1110 1.350 . S
N1108 S1106 1.610 . S
N1108 C1109 1.351 . S
C1109 C1103 1.428 . S
C1109 N1108 1.351 . S
C1109 C1110 1.434 . S
C1110 C1101 1.429 . S
C1110 N1107 1.350 . S
C1110 C1109 1.434 . S
C1111 C1112 1.369 . S
C1111 C1113 1.419 . S
C1111 H1115 0.930 . S
C1112 C1111 1.369 . S
C1112 C1121 1.429 . S
C1113 C1111 1.419 . S
C1113 C1114 1.363 . S
C1113 H1116 0.929 . S
C1114 C1113 1.363 . S
C1114 C1120 1.428 . S
H1115 C1111 0.930 . S
H1116 C1113 0.929 . S
S1117 N1118 1.613 . S
S1117 N1119 1.610 . S
N1118 S1117 1.613 . S
N1118 C1121 1.350 . S
N1119 S1117 1.610 . S
N1119 C1120 1.351 . S
C1120 C1114 1.428 . S
C1120 N1119 1.351 . S
C1120 C1121 1.434 . S
C1121 C1112 1.429 . S
C1121 N1118 1.350 . S
C1121 C1120 1.434 . S
C1122 C1123 1.369 . S
C1122 C1124 1.419 . S
C1122 H1126 0.930 . S
C1123 C1122 1.369 . S
C1123 C1132 1.429 . S
C1124 C1122 1.419 . S
C1124 C1125 1.363 . S
C1124 H1127 0.929 . S
C1125 C1124 1.363 . S
C1125 C1131 1.428 . S
H1126 C1122 0.930 . S
H1127 C1124 0.929 . S
S1128 N1129 1.613 . S
S1128 N1130 1.610 . S
N1129 S1128 1.613 . S
N1129 C1132 1.350 . S
N1130 S1128 1.610 . S
N1130 C1131 1.351 . S
C1131 C1125 1.428 . S
C1131 N1130 1.351 . S
C1131 C1132 1.434 . S
C1132 C1123 1.429 . S
C1132 N1129 1.350 . S
C1132 C1131 1.434 . S
C1133 C1134 1.369 . S
C1133 C1135 1.419 . S
C1133 H1137 0.930 . S
C1134 C1133 1.369 . S
C1134 C1143 1.429 . S
C1135 C1133 1.419 . S
C1135 C1136 1.363 . S
C1135 H1138 0.929 . S
C1136 C1135 1.363 . S
C1136 C1142 1.428 . S
H1137 C1133 0.930 . S
H1138 C1135 0.929 . S
S1139 N1140 1.613 . S
S1139 N1141 1.610 . S
N1140 S1139 1.613 . S
N1140 C1143 1.350 . S
N1141 S1139 1.610 . S
N1141 C1142 1.351 . S
C1142 C1136 1.428 . S
C1142 N1141 1.351 . S
C1142 C1143 1.434 . S
C1143 C1134 1.429 . S
C1143 N1140 1.350 . S
C1143 C1142 1.434 . S
C1144 C1145 1.369 . S
C1144 C1146 1.419 . S
C1144 H1148 0.930 . S
C1145 C1144 1.369 . S
C1145 C1154 1.429 . S
C1146 C1144 1.419 . S
C1146 C1147 1.363 . S
C1146 H1149 0.929 . S
C1147 C1146 1.363 . S
C1147 C1153 1.428 . S
H1148 C1144 0.930 . S
H1149 C1146 0.929 . S
S1150 N1151 1.613 . S
S1150 N1152 1.610 . S
N1151 S1150 1.613 . S
N1151 C1154 1.350 . S
N1152 S1150 1.610 . S
N1152 C1153 1.351 . S
C1153 C1147 1.428 . S
C1153 N1152 1.351 . S
C1153 C1154 1.434 . S
C1154 C1145 1.429 . S
C1154 N1151 1.350 . S
C1154 C1153 1.434 . S
C1155 C1156 1.369 . S
C1155 C1157 1.419 . S
C1155 H1159 0.930 . S
C1156 C1155 1.369 . S
C1156 C1165 1.429 . S
C1157 C1155 1.419 . S
C1157 C1158 1.363 . S
C1157 H1160 0.929 . S
C1158 C1157 1.363 . S
C1158 C1164 1.428 . S
H1159 C1155 0.930 . S
H1160 C1157 0.929 . S
S1161 N1162 1.613 . S
S1161 N1163 1.610 . S
N1162 S1161 1.613 . S
N1162 C1165 1.350 . S
N1163 S1161 1.610 . S
N1163 C1164 1.351 . S
C1164 C1158 1.428 . S
C1164 N1163 1.351 . S
C1164 C1165 1.434 . S
C1165 C1156 1.429 . S
C1165 N1162 1.350 . S
C1165 C1164 1.434 . S
C1166 C1167 1.369 . S
C1166 C1168 1.419 . S
C1166 H1170 0.930 . S
C1167 C1166 1.369 . S
C1167 C1176 1.429 . S
C1168 C1166 1.419 . S
C1168 C1169 1.363 . S
C1168 H1171 0.929 . S
C1169 C1168 1.363 . S
C1169 C1175 1.428 . S
H1170 C1166 0.930 . S
H1171 C1168 0.929 . S
S1172 N1173 1.613 . S
S1172 N1174 1.610 1_545 S
N1173 S1172 1.613 . S
N1173 C1176 1.350 . S
N1174 S1172 1.610 1_565 S
N1174 C1175 1.351 1_565 S
C1175 C1169 1.428 . S
C1175 N1174 1.351 1_545 S
C1175 C1176 1.434 . S
C1176 C1167 1.429 . S
C1176 N1173 1.350 . S
C1176 C1175 1.434 . S
C1177 C1178 1.369 . S
C1177 C1179 1.419 . S
C1177 H1181 0.930 . S
C1178 C1177 1.369 . S
C1178 C1187 1.429 . S
C1179 C1177 1.419 . S
C1179 C1180 1.363 . S
C1179 H1182 0.929 . S
C1180 C1179 1.363 . S
C1180 C1186 1.428 . S
H1181 C1177 0.930 . S
H1182 C1179 0.929 . S
S1183 N1184 1.613 . S
S1183 N1185 1.610 . S
N1184 S1183 1.613 . S
N1184 C1187 1.350 . S
N1185 S1183 1.610 . S
N1185 C1186 1.351 . S
C1186 C1180 1.428 . S
C1186 N1185 1.351 . S
C1186 C1187 1.434 . S
C1187 C1178 1.429 . S
C1187 N1184 1.350 . S
C1187 C1186 1.434 . S
C1188 C1189 1.369 . S
C1188 C1190 1.419 . S
C1188 H1192 0.930 . S
C1189 C1188 1.369 . S
C1189 C1198 1.429 . S
C1190 C1188 1.419 . S
C1190 C1191 1.363 . S
C1190 H1193 0.929 . S
C1191 C1190 1.363 . S
C1191 C1197 1.428 . S
H1192 C1188 0.930 . S
H1193 C1190 0.929 . S
S1194 N1195 1.613 . S
S1194 N1196 1.610 . S
N1195 S1194 1.613 . S
N1195 C1198 1.350 . S
N1196 S1194 1.610 . S
N1196 C1197 1.351 . S
C1197 C1191 1.428 . S
C1197 N1196 1.351 . S
C1197 C1198 1.434 . S
C1198 C1189 1.429 . S
C1198 N1195 1.350 . S
C1198 C1197 1.434 . S
C1199 C1200 1.369 . S
C1199 C1201 1.419 . S
C1199 H1203 0.930 . S
C1200 C1199 1.369 . S
C1200 C1209 1.429 . S
C1201 C1199 1.419 . S
C1201 C1202 1.363 . S
C1201 H1204 0.929 . S
C1202 C1201 1.363 . S
C1202 C1208 1.428 . S
H1203 C1199 0.930 . S
H1204 C1201 0.929 . S
S1205 N1206 1.613 . S
S1205 N1207 1.610 . S
N1206 S1205 1.613 . S
N1206 C1209 1.350 . S
N1207 S1205 1.610 . S
N1207 C1208 1.351 . S
C1208 C1202 1.428 . S
C1208 N1207 1.351 . S
C1208 C1209 1.434 . S
C1209 C1200 1.429 . S
C1209 N1206 1.350 . S
C1209 C1208 1.434 . S
C1210 C1211 1.369 . S
C1210 C1212 1.419 . S
C1210 H1214 0.930 . S
C1211 C1210 1.369 . S
C1211 C1220 1.429 . S
C1212 C1210 1.419 . S
C1212 C1213 1.363 . S
C1212 H1215 0.929 . S
C1213 C1212 1.363 . S
C1213 C1219 1.428 . S
H1214 C1210 0.930 . S
H1215 C1212 0.929 . S
S1216 N1217 1.613 . S
S1216 N1218 1.610 . S
N1217 S1216 1.613 . S
N1217 C1220 1.350 . S
N1218 S1216 1.610 . S
N1218 C1219 1.351 . S
C1219 C1213 1.428 . S
C1219 N1218 1.351 . S
C1219 C1220 1.434 . S
C1220 C1211 1.429 . S
C1220 N1217 1.350 . S
C1220 C1219 1.434 . S
C1221 C1222 1.369 . S
C1221 C1223 1.419 . S
C1221 H1225 0.930 . S
C1222 C1221 1.369 . S
C1222 C1231 1.429 . S
C1223 C1221 1.419 . S
C1223 C1224 1.363 . S
C1223 H1226 0.929 . S
C1224 C1223 1.363 . S
C1224 C1230 1.428 . S
H1225 C1221 0.930 . S
H1226 C1223 0.929 . S
S1227 N1228 1.613 . S
S1227 N1229 1.610 . S
N1228 S1227 1.613 . S
N1228 C1231 1.350 . S
N1229 S1227 1.610 . S
N1229 C1230 1.351 . S
C1230 C1224 1.428 . S
C1230 N1229 1.351 . S
C1230 C1231 1.434 . S
C1231 C1222 1.429 . S
C1231 N1228 1.350 . S
C1231 C1230 1.434 . S
C1232 C1233 1.369 . S
C1232 C1234 1.419 . S
C1232 H1236 0.930 . S
C1233 C1232 1.369 . S
C1233 C1242 1.429 . S
C1234 C1232 1.419 . S
C1234 C1235 1.363 . S
C1234 H1237 0.929 . S
C1235 C1234 1.363 . S
C1235 C1241 1.428 . S
H1236 C1232 0.930 . S
H1237 C1234 0.929 . S
S1238 N1239 1.613 . S
S1238 N1240 1.610 . S
N1239 S1238 1.613 . S
N1239 C1242 1.350 . S
N1240 S1238 1.610 . S
N1240 C1241 1.351 . S
C1241 C1235 1.428 . S
C1241 N1240 1.351 . S
C1241 C1242 1.434 . S
C1242 C1233 1.429 . S
C1242 N1239 1.350 . S
C1242 C1241 1.434 . S
C1243 C1244 1.369 . S
C1243 C1245 1.419 . S
C1243 H1247 0.930 . S
C1244 C1243 1.369 . S
C1244 C1253 1.429 . S
C1245 C1243 1.419 . S
C1245 C1246 1.363 . S
C1245 H1248 0.929 . S
C1246 C1245 1.363 . S
C1246 C1252 1.428 . S
H1247 C1243 0.930 . S
H1248 C1245 0.929 . S
S1249 N1250 1.613 . S
S1249 N1251 1.610 . S
N1250 S1249 1.613 . S
N1250 C1253 1.350 . S
N1251 S1249 1.610 . S
N1251 C1252 1.351 . S
C1252 C1246 1.428 . S
C1252 N1251 1.351 . S
C1252 C1253 1.434 . S
C1253 C1244 1.429 . S
C1253 N1250 1.350 . S
C1253 C1252 1.434 . S
C1254 C1255 1.369 . S
C1254 C1256 1.419 . S
C1254 H1258 0.930 . S
C1255 C1254 1.369 . S
C1255 C1264 1.429 . S
C1256 C1254 1.419 . S
C1256 C1257 1.363 . S
C1256 H1259 0.929 . S
C1257 C1256 1.363 . S
C1257 C1263 1.428 . S
H1258 C1254 0.930 . S
H1259 C1256 0.929 . S
S1260 N1261 1.613 . S
S1260 N1262 1.610 . S
N1261 S1260 1.613 . S
N1261 C1264 1.350 . S
N1262 S1260 1.610 . S
N1262 C1263 1.351 . S
C1263 C1257 1.428 . S
C1263 N1262 1.351 . S
C1263 C1264 1.434 . S
C1264 C1255 1.429 . S
C1264 N1261 1.350 . S
C1264 C1263 1.434 . S
C1265 C1266 1.369 . S
C1265 C1267 1.419 . S
C1265 H1269 0.930 . S
C1266 C1265 1.369 . S
C1266 C1275 1.429 . S
C1267 C1265 1.419 . S
C1267 C1268 1.363 . S
C1267 H1270 0.929 . S
C1268 C1267 1.363 . S
C1268 C1274 1.428 . S
H1269 C1265 0.930 . S
H1270 C1267 0.929 . S
S1271 N1272 1.613 . S
S1271 N1273 1.610 . S
N1272 S1271 1.613 . S
N1272 C1275 1.350 . S
N1273 S1271 1.610 . S
N1273 C1274 1.351 . S
C1274 C1268 1.428 . S
C1274 N1273 1.351 . S
C1274 C1275 1.434 . S
C1275 C1266 1.429 . S
C1275 N1272 1.350 . S
C1275 C1274 1.434 . S
C1276 C1277 1.369 . S
C1276 C1278 1.419 . S
C1276 H1280 0.930 . S
C1277 C1276 1.369 . S
C1277 C1286 1.429 . S
C1278 C1276 1.419 . S
C1278 C1279 1.363 . S
C1278 H1281 0.929 . S
C1279 C1278 1.363 . S
C1279 C1285 1.428 . S
H1280 C1276 0.930 . S
H1281 C1278 0.929 . S
S1282 N1283 1.613 . S
S1282 N1284 1.610 . S
N1283 S1282 1.613 . S
N1283 C1286 1.350 . S
N1284 S1282 1.610 . S
N1284 C1285 1.351 . S
C1285 C1279 1.428 . S
C1285 N1284 1.351 . S
C1285 C1286 1.434 . S
C1286 C1277 1.429 . S
C1286 N1283 1.350 . S
C1286 C1285 1.434 . S
C1287 C1288 1.369 . S
C1287 C1289 1.419 . S
C1287 H1291 0.930 . S
C1288 C1287 1.369 . S
C1288 C1297 1.429 . S
C1289 C1287 1.419 . S
C1289 C1290 1.363 . S
C1289 H1292 0.929 . S
C1290 C1289 1.363 . S
C1290 C1296 1.428 . S
H1291 C1287 0.930 . S
H1292 C1289 0.929 . S
S1293 N1294 1.613 . S
S1293 N1295 1.610 . S
N1294 S1293 1.613 . S
N1294 C1297 1.350 . S
N1295 S1293 1.610 . S
N1295 C1296 1.351 . S
C1296 C1290 1.428 . S
C1296 N1295 1.351 . S
C1296 C1297 1.434 . S
C1297 C1288 1.429 . S
C1297 N1294 1.350 . S
C1297 C1296 1.434 . S
C1298 C1299 1.369 . S
C1298 C1300 1.419 . S
C1298 H1302 0.930 . S
C1299 C1298 1.369 . S
C1299 C1308 1.429 . S
C1300 C1298 1.419 . S
C1300 C1301 1.363 . S
C1300 H1303 0.929 . S
C1301 C1300 1.363 . S
C1301 C1307 1.428 . S
H1302 C1298 0.930 . S
H1303 C1300 0.929 . S
S1304 N1305 1.613 . S
S1304 N1306 1.610 . S
N1305 S1304 1.613 . S
N1305 C1308 1.350 . S
N1306 S1304 1.610 . S
N1306 C1307 1.351 . S
C1307 C1301 1.428 . S
C1307 N1306 1.351 . S
C1307 C1308 1.434 . S
C1308 C1299 1.429 . S
C1308 N1305 1.350 . S
C1308 C1307 1.434 . S
C1309 C1310 1.369 . S
C1309 C1311 1.419 . S
C1309 H1313 0.930 . S
C1310 C1309 1.369 . S
C1310 C1319 1.429 . S
C1311 C1309 1.419 . S
C1311 C1312 1.363 . S
C1311 H1314 0.929 . S
C1312 C1311 1.363 . S
C1312 C1318 1.428 . S
H1313 C1309 0.930 . S
H1314 C1311 0.929 . S
S1315 N1316 1.613 . S
S1315 N1317 1.610 . S
N1316 S1315 1.613 . S
N1316 C1319 1.350 . S
N1317 S1315 1.610 . S
N1317 C1318 1.351 . S
C1318 C1312 1.428 . S
C1318 N1317 1.351 . S
C1318 C1319 1.434 . S
C1319 C1310 1.429 . S
C1319 N1316 1.350 . S
C1319 C1318 1.434 . S
C1320 C1321 1.369 . S
C1320 C1322 1.419 . S
C1320 H1324 0.930 . S
C1321 C1320 1.369 . S
C1321 C1330 1.429 . S
C1322 C1320 1.419 . S
C1322 C1323 1.363 . S
C1322 H1325 0.929 . S
C1323 C1322 1.363 . S
C1323 C1329 1.428 . S
H1324 C1320 0.930 . S
H1325 C1322 0.929 . S
S1326 N1327 1.613 . S
S1326 N1328 1.610 . S
N1327 S1326 1.613 . S
N1327 C1330 1.350 . S
N1328 S1326 1.610 . S
N1328 C1329 1.351 . S
C1329 C1323 1.428 . S
C1329 N1328 1.351 . S
C1329 C1330 1.434 . S
C1330 C1321 1.429 . S
C1330 N1327 1.350 . S
C1330 C1329 1.434 . S
C1331 C1332 1.369 . S
C1331 C1333 1.419 . S
C1331 H1335 0.930 . S
C1332 C1331 1.369 . S
C1332 C1341 1.429 . S
C1333 C1331 1.419 . S
C1333 C1334 1.363 . S
C1333 H1336 0.929 . S
C1334 C1333 1.363 . S
C1334 C1340 1.428 . S
H1335 C1331 0.930 . S
H1336 C1333 0.929 . S
S1337 N1338 1.613 . S
S1337 N1339 1.610 . S
N1338 S1337 1.613 . S
N1338 C1341 1.350 . S
N1339 S1337 1.610 . S
N1339 C1340 1.351 . S
C1340 C1334 1.428 . S
C1340 N1339 1.351 . S
C1340 C1341 1.434 . S
C1341 C1332 1.429 . S
C1341 N1338 1.350 . S
C1341 C1340 1.434 . S
C1342 C1343 1.369 . S
C1342 C1344 1.419 . S
C1342 H1346 0.930 . S
C1343 C1342 1.369 . S
C1343 C1352 1.429 . S
C1344 C1342 1.419 . S
C1344 C1345 1.363 . S
C1344 H1347 0.929 . S
C1345 C1344 1.363 . S
C1345 C1351 1.428 . S
H1346 C1342 0.930 . S
H1347 C1344 0.929 . S
S1348 N1349 1.613 . S
S1348 N1350 1.610 . S
N1349 S1348 1.613 . S
N1349 C1352 1.350 . S
N1350 S1348 1.610 . S
N1350 C1351 1.351 . S
C1351 C1345 1.428 . S
C1351 N1350 1.351 . S
C1351 C1352 1.434 . S
C1352 C1343 1.429 . S
C1352 N1349 1.350 . S
C1352 C1351 1.434 . S
C1353 C1354 1.369 . S
C1353 C1355 1.419 . S
C1353 H1357 0.930 . S
C1354 C1353 1.369 . S
C1354 C1363 1.429 . S
C1355 C1353 1.419 . S
C1355 C1356 1.363 . S
C1355 H1358 0.929 . S
C1356 C1355 1.363 . S
C1356 C1362 1.428 . S
H1357 C1353 0.930 . S
H1358 C1355 0.929 . S
S1359 N1360 1.613 . S
S1359 N1361 1.610 . S
N1360 S1359 1.613 . S
N1360 C1363 1.350 . S
N1361 S1359 1.610 . S
N1361 C1362 1.351 . S
C1362 C1356 1.428 . S
C1362 N1361 1.351 . S
C1362 C1363 1.434 . S
C1363 C1354 1.429 . S
C1363 N1360 1.350 . S
C1363 C1362 1.434 . S
C1364 C1365 1.369 . S
C1364 C1366 1.419 . S
C1364 H1368 0.930 . S
C1365 C1364 1.369 . S
C1365 C1374 1.429 . S
C1366 C1364 1.419 . S
C1366 C1367 1.363 . S
C1366 H1369 0.929 . S
C1367 C1366 1.363 . S
C1367 C1373 1.428 . S
H1368 C1364 0.930 . S
H1369 C1366 0.929 . S
S1370 N1371 1.613 . S
S1370 N1372 1.610 . S
N1371 S1370 1.613 . S
N1371 C1374 1.350 . S
N1372 S1370 1.610 . S
N1372 C1373 1.351 . S
C1373 C1367 1.428 . S
C1373 N1372 1.351 . S
C1373 C1374 1.434 . S
C1374 C1365 1.429 . S
C1374 N1371 1.350 . S
C1374 C1373 1.434 . S
C1375 C1376 1.369 . S
C1375 C1377 1.419 . S
C1375 H1379 0.930 . S
C1376 C1375 1.369 . S
C1376 C1385 1.429 . S
C1377 C1375 1.419 . S
C1377 C1378 1.363 . S
C1377 H1380 0.929 . S
C1378 C1377 1.363 . S
C1378 C1384 1.428 . S
H1379 C1375 0.930 . S
H1380 C1377 0.929 . S
S1381 N1382 1.613 . S
S1381 N1383 1.610 . S
N1382 S1381 1.613 . S
N1382 C1385 1.350 . S
N1383 S1381 1.610 . S
N1383 C1384 1.351 . S
C1384 C1378 1.428 . S
C1384 N1383 1.351 . S
C1384 C1385 1.434 . S
C1385 C1376 1.429 . S
C1385 N1382 1.350 . S
C1385 C1384 1.434 . S
C1386 C1387 1.369 . S
C1386 C1388 1.419 . S
C1386 H1390 0.930 . S
C1387 C1386 1.369 . S
C1387 C1396 1.429 . S
C1388 C1386 1.419 . S
C1388 C1389 1.363 . S
C1388 H1391 0.929 . S
C1389 C1388 1.363 . S
C1389 C1395 1.428 . S
H1390 C1386 0.930 . S
H1391 C1388 0.929 . S
S1392 N1393 1.613 . S
S1392 N1394 1.610 . S
N1393 S1392 1.613 . S
N1393 C1396 1.350 . S
N1394 S1392 1.610 . S
N1394 C1395 1.351 . S
C1395 C1389 1.428 . S
C1395 N1394 1.351 . S
C1395 C1396 1.434 . S
C1396 C1387 1.429 . S
C1396 N1393 1.350 . S
C1396 C1395 1.434 . S
C1397 C1398 1.369 . S
C1397 C1399 1.419 . S
C1397 H1401 0.930 . S
C1398 C1397 1.369 . S
C1398 C1407 1.429 . S
C1399 C1397 1.419 . S
C1399 C1400 1.363 . S
C1399 H1402 0.929 . S
C1400 C1399 1.363 . S
C1400 C1406 1.428 . S
H1401 C1397 0.930 . S
H1402 C1399 0.929 . S
S1403 N1404 1.613 . S
S1403 N1405 1.610 . S
N1404 S1403 1.613 . S
N1404 C1407 1.350 . S
N1405 S1403 1.610 . S
N1405 C1406 1.351 . S
C1406 C1400 1.428 . S
C1406 N1405 1.351 . S
C1406 C1407 1.434 . S
C1407 C1398 1.429 . S
C1407 N1404 1.350 . S
C1407 C1406 1.434 . S
C1408 C1409 1.369 . S
C1408 C1410 1.419 . S
C1408 H1412 0.930 . S
C1409 C1408 1.369 . S
C1409 C1418 1.429 . S
C1410 C1408 1.419 . S
C1410 C1411 1.363 . S
C1410 H1413 0.929 . S
C1411 C1410 1.363 . S
C1411 C1417 1.428 . S
H1412 C1408 0.930 . S
H1413 C1410 0.929 . S
S1414 N1415 1.613 . S
S1414 N1416 1.610 . S
N1415 S1414 1.613 . S
N1415 C1418 1.350 . S
N1416 S1414 1.610 . S
N1416 C1417 1.351 . S
C1417 C1411 1.428 . S
C1417 N1416 1.351 . S
C1417 C1418 1.434 . S
C1418 C1409 1.429 . S
C1418 N1415 1.350 . S
C1418 C1417 1.434 . S
C1419 C1420 1.369 . S
C1419 C1421 1.419 . S
C1419 H1423 0.930 . S
C1420 C1419 1.369 . S
C1420 C1429 1.429 1_565 S
C1421 C1419 1.419 . S
C1421 C1422 1.363 1_565 S
C1421 H1424 0.929 . S
C1422 C1421 1.363 1_545 S
C1422 C1428 1.428 . S
H1423 C1419 0.930 . S
H1424 C1421 0.929 . S
S1425 N1426 1.613 . S
S1425 N1427 1.610 . S
N1426 S1425 1.613 . S
N1426 C1429 1.350 . S
N1427 S1425 1.610 . S
N1427 C1428 1.351 . S
C1428 C1422 1.428 . S
C1428 N1427 1.351 . S
C1428 C1429 1.434 . S
C1429 C1420 1.429 1_545 S
C1429 N1426 1.350 . S
C1429 C1428 1.434 . S
C1430 C1431 1.369 . S
C1430 C1432 1.419 . S
C1430 H1434 0.930 . S
C1431 C1430 1.369 . S
C1431 C1440 1.429 . S
C1432 C1430 1.419 . S
C1432 C1433 1.363 . S
C1432 H1435 0.929 . S
C1433 C1432 1.363 . S
C1433 C1439 1.428 . S
H1434 C1430 0.930 . S
H1435 C1432 0.929 . S
S1436 N1437 1.613 . S
S1436 N1438 1.610 . S
N1437 S1436 1.613 . S
N1437 C1440 1.350 . S
N1438 S1436 1.610 . S
N1438 C1439 1.351 . S
C1439 C1433 1.428 . S
C1439 N1438 1.351 . S
C1439 C1440 1.434 . S
C1440 C1431 1.429 . S
C1440 N1437 1.350 . S
C1440 C1439 1.434 . S
C1441 C1442 1.369 . S
C1441 C1443 1.419 1_556 S
C1441 H1445 0.930 . S
C1442 C1441 1.369 . S
C1442 C1451 1.429 1_545 S
C1443 C1441 1.419 1_554 S
C1443 C1444 1.363 1_545 S
C1443 H1446 0.929 . S
C1444 C1443 1.363 1_565 S
C1444 C1450 1.428 . S
H1445 C1441 0.930 . S
H1446 C1443 0.929 . S
S1447 N1448 1.613 . S
S1447 N1449 1.610 1_556 S
N1448 S1447 1.613 . S
N1448 C1451 1.350 . S
N1449 S1447 1.610 1_554 S
N1449 C1450 1.351 . S
C1450 C1444 1.428 . S
C1450 N1449 1.351 . S
C1450 C1451 1.434 1_554 S
C1451 C1442 1.429 1_565 S
C1451 N1448 1.350 . S
C1451 C1450 1.434 1_556 S
C1452 C1453 1.369 . S
C1452 C1454 1.419 . S
C1452 H1456 0.930 . S
C1453 C1452 1.369 . S
C1453 C1462 1.429 . S
C1454 C1452 1.419 . S
C1454 C1455 1.363 . S
C1454 H1457 0.929 . S
C1455 C1454 1.363 . S
C1455 C1461 1.428 . S
H1456 C1452 0.930 . S
H1457 C1454 0.929 . S
S1458 N1459 1.613 . S
S1458 N1460 1.610 . S
N1459 S1458 1.613 . S
N1459 C1462 1.350 . S
N1460 S1458 1.610 . S
N1460 C1461 1.351 . S
C1461 C1455 1.428 . S
C1461 N1460 1.351 . S
C1461 C1462 1.434 . S
C1462 C1453 1.429 . S
C1462 N1459 1.350 . S
C1462 C1461 1.434 . S
C1463 C1464 1.369 1_545 S
C1463 C1465 1.419 . S
C1463 H1467 0.930 . S
C1464 C1463 1.369 1_565 S
C1464 C1473 1.429 . S
C1465 C1463 1.419 . S
C1465 C1466 1.363 . S
C1465 H1468 0.929 . S
C1466 C1465 1.363 . S
C1466 C1472 1.428 1_545 S
H1467 C1463 0.930 . S
H1468 C1465 0.929 . S
S1469 N1470 1.613 . S
S1469 N1471 1.610 . S
N1470 S1469 1.613 . S
N1470 C1473 1.350 . S
N1471 S1469 1.610 . S
N1471 C1472 1.351 . S
C1472 C1466 1.428 1_565 S
C1472 N1471 1.351 . S
C1472 C1473 1.434 . S
C1473 C1464 1.429 . S
C1473 N1470 1.350 . S
C1473 C1472 1.434 . S
C1474 C1475 1.369 . S
C1474 C1476 1.419 . S
C1474 H1478 0.930 . S
C1475 C1474 1.369 . S
C1475 C1484 1.429 . S
C1476 C1474 1.419 . S
C1476 C1477 1.363 . S
C1476 H1479 0.929 . S
C1477 C1476 1.363 . S
C1477 C1483 1.428 . S
H1478 C1474 0.930 . S
H1479 C1476 0.929 . S
S1480 N1481 1.613 . S
S1480 N1482 1.610 . S
N1481 S1480 1.613 . S
N1481 C1484 1.350 . S
N1482 S1480 1.610 . S
N1482 C1483 1.351 . S
C1483 C1477 1.428 . S
C1483 N1482 1.351 . S
C1483 C1484 1.434 . S
C1484 C1475 1.429 . S
C1484 N1481 1.350 . S
C1484 C1483 1.434 . S
C1485 C1486 1.369 . S
C1485 C1487 1.419 1_556 S
C1485 H1489 0.930 . S
C1486 C1485 1.369 . S
C1486 C1495 1.429 1_545 S
C1487 C1485 1.419 1_554 S
C1487 C1488 1.363 1_545 S
C1487 H1490 0.929 . S
C1488 C1487 1.363 1_565 S
C1488 C1494 1.428 . S
H1489 C1485 0.930 . S
H1490 C1487 0.929 . S
S1491 N1492 1.613 . S
S1491 N1493 1.610 1_556 S
N1492 S1491 1.613 . S
N1492 C1495 1.350 . S
N1493 S1491 1.610 1_554 S
N1493 C1494 1.351 . S
C1494 C1488 1.428 . S
C1494 N1493 1.351 . S
C1494 C1495 1.434 1_554 S
C1495 C1486 1.429 1_565 S
C1495 N1492 1.350 . S
C1495 C1494 1.434 1_556 S
C1496 C1497 1.369 . S
C1496 C1498 1.419 . S
C1496 H1500 0.930 . S
C1497 C1496 1.369 . S
C1497 C1506 1.429 . S
C1498 C1496 1.419 . S
C1498 C1499 1.363 . S
C1498 H1501 0.929 . S
C1499 C1498 1.363 . S
C1499 C1505 1.428 . S
H1500 C1496 0.930 . S
H1501 C1498 0.929 . S
S1502 N1503 1.613 . S
S1502 N1504 1.610 . S
N1503 S1502 1.613 . S
N1503 C1506 1.350 . S
N1504 S1502 1.610 . S
N1504 C1505 1.351 . S
C1505 C1499 1.428 . S
C1505 N1504 1.351 . S
C1505 C1506 1.434 . S
C1506 C1497 1.429 . S
C1506 N1503 1.350 . S
C1506 C1505 1.434 . S
C1507 C1508 1.369 . S
C1507 C1509 1.419 1_556 S
C1507 H1511 0.930 . S
C1508 C1507 1.369 . S
C1508 C1517 1.429 . S
C1509 C1507 1.419 1_554 S
C1509 C1510 1.363 . S
C1509 H1512 0.929 . S
C1510 C1509 1.363 . S
C1510 C1516 1.428 . S
H1511 C1507 0.930 . S
H1512 C1509 0.929 . S
S1513 N1514 1.613 . S
S1513 N1515 1.610 1_556 S
N1514 S1513 1.613 . S
N1514 C1517 1.350 . S
N1515 S1513 1.610 1_554 S
N1515 C1516 1.351 . S
C1516 C1510 1.428 . S
C1516 N1515 1.351 . S
C1516 C1517 1.434 1_554 S
C1517 C1508 1.429 . S
C1517 N1514 1.350 . S
C1517 C1516 1.434 1_556 S
C1518 C1519 1.369 . S
C1518 C1520 1.419 . S
C1518 H1522 0.930 . S
C1519 C1518 1.369 . S
C1519 C1528 1.429 . S
C1520 C1518 1.419 . S
C1520 C1521 1.363 . S
C1520 H1523 0.929 . S
C1521 C1520 1.363 . S
C1521 C1527 1.428 . S
H1522 C1518 0.930 . S
H1523 C1520 0.929 . S
S1524 N1525 1.613 . S
S1524 N1526 1.610 . S
N1525 S1524 1.613 . S
N1525 C1528 1.350 . S
N1526 S1524 1.610 . S
N1526 C1527 1.351 . S
C1527 C1521 1.428 . S
C1527 N1526 1.351 . S
C1527 C1528 1.434 . S
C1528 C1519 1.429 . S
C1528 N1525 1.350 . S
C1528 C1527 1.434 . S
C1529 C1530 1.369 . S
C1529 C1531 1.419 . S
C1529 H1533 0.930 . S
C1530 C1529 1.369 . S
C1530 C1539 1.429 . S
C1531 C1529 1.419 . S
C1531 C1532 1.363 . S
C1531 H1534 0.929 . S
C1532 C1531 1.363 . S
C1532 C1538 1.428 . S
H1533 C1529 0.930 . S
H1534 C1531 0.929 . S
S1535 N1536 1.613 . S
S1535 N1537 1.610 . S
N1536 S1535 1.613 . S
N1536 C1539 1.350 . S
N1537 S1535 1.610 . S
N1537 C1538 1.351 . S
C1538 C1532 1.428 . S
C1538 N1537 1.351 . S
C1538 C1539 1.434 . S
C1539 C1530 1.429 . S
C1539 N1536 1.350 . S
C1539 C1538 1.434 . S
C1540 C1541 1.369 . S
C1540 C1542 1.419 . S
C1540 H1544 0.930 . S
C1541 C1540 1.369 . S
C1541 C1550 1.429 . S
C1542 C1540 1.419 . S
C1542 C1543 1.363 . S
C1542 H1545 0.929 . S
C1543 C1542 1.363 . S
C1543 C1549 1.428 . S
H1544 C1540 0.930 . S
H1545 C1542 0.929 . S
S1546 N1547 1.613 . S
S1546 N1548 1.610 . S
N1547 S1546 1.613 . S
N1547 C1550 1.350 . S
N1548 S1546 1.610 . S
N1548 C1549 1.351 . S
C1549 C1543 1.428 . S
C1549 N1548 1.351 . S
C1549 C1550 1.434 . S
C1550 C1541 1.429 . S
C1550 N1547 1.350 . S
C1550 C1549 1.434 . S
C1551 C1552 1.369 . S
C1551 C1553 1.419 1_556 S
C1551 H1555 0.930 . S
C1552 C1551 1.369 . S
C1552 C1561 1.429 . S
C1553 C1551 1.419 1_554 S
C1553 C1554 1.363 . S
C1553 H1556 0.929 . S
C1554 C1553 1.363 . S
C1554 C1560 1.428 . S
H1555 C1551 0.930 . S
H1556 C1553 0.929 . S
S1557 N1558 1.613 . S
S1557 N1559 1.610 1_556 S
N1558 S1557 1.613 . S
N1558 C1561 1.350 . S
N1559 S1557 1.610 1_554 S
N1559 C1560 1.351 . S
C1560 C1554 1.428 . S
C1560 N1559 1.351 . S
C1560 C1561 1.434 1_554 S
C1561 C1552 1.429 . S
C1561 N1558 1.350 . S
C1561 C1560 1.434 1_556 S
C1562 C1563 1.369 . S
C1562 C1564 1.419 . S
C1562 H1566 0.930 . S
C1563 C1562 1.369 . S
C1563 C1572 1.429 . S
C1564 C1562 1.419 . S
C1564 C1565 1.363 . S
C1564 H1567 0.929 . S
C1565 C1564 1.363 . S
C1565 C1571 1.428 . S
H1566 C1562 0.930 . S
H1567 C1564 0.929 . S
S1568 N1569 1.613 . S
S1568 N1570 1.610 . S
N1569 S1568 1.613 . S
N1569 C1572 1.350 . S
N1570 S1568 1.610 . S
N1570 C1571 1.351 . S
C1571 C1565 1.428 . S
C1571 N1570 1.351 . S
C1571 C1572 1.434 . S
C1572 C1563 1.429 . S
C1572 N1569 1.350 . S
C1572 C1571 1.434 . S
C1573 C1574 1.369 . S
C1573 C1575 1.419 . S
C1573 H1577 0.930 . S
C1574 C1573 1.369 . S
C1574 C1583 1.429 . S
C1575 C1573 1.419 . S
C1575 C1576 1.363 . S
C1575 H1578 0.929 . S
C1576 C1575 1.363 . S
C1576 C1582 1.428 . S
H1577 C1573 0.930 . S
H1578 C1575 0.929 . S
S1579 N1580 1.613 . S
S1579 N1581 1.610 . S
N1580 S1579 1.613 . S
N1580 C1583 1.350 . S
N1581 S1579 1.610 . S
N1581 C1582 1.351 . S
C1582 C1576 1.428 . S
C1582 N1581 1.351 . S
C1582 C1583 1.434 . S
C1583 C1574 1.429 . S
C1583 N1580 1.350 . S
C1583 C1582 1.434 . S
C1584 C1585 1.369 . S
C1584 C1586 1.419 . S
C1584 H1588 0.930 . S
C1585 C1584 1.369 . S
C1585 C1594 1.429 . S
C1586 C1584 1.419 . S
C1586 C1587 1.363 . S
C1586 H1589 0.929 . S
C1587 C1586 1.363 . S
C1587 C1593 1.428 . S
H1588 C1584 0.930 . S
H1589 C1586 0.929 . S
S1590 N1591 1.613 . S
S1590 N1592 1.610 . S
N1591 S1590 1.613 . S
N1591 C1594 1.350 . S
N1592 S1590 1.610 . S
N1592 C1593 1.351 . S
C1593 C1587 1.428 . S
C1593 N1592 1.351 . S
C1593 C1594 1.434 . S
C1594 C1585 1.429 . S
C1594 N1591 1.350 . S
C1594 C1593 1.434 . S
C1595 C1596 1.369 . S
C1595 C1597 1.419 . S
C1595 H1599 0.930 . S
C1596 C1595 1.369 . S
C1596 C1605 1.429 . S
C1597 C1595 1.419 . S
C1597 C1598 1.363 . S
C1597 H1600 0.929 . S
C1598 C1597 1.363 . S
C1598 C1604 1.428 . S
H1599 C1595 0.930 . S
H1600 C1597 0.929 . S
S1601 N1602 1.613 . S
S1601 N1603 1.610 . S
N1602 S1601 1.613 . S
N1602 C1605 1.350 . S
N1603 S1601 1.610 . S
N1603 C1604 1.351 . S
C1604 C1598 1.428 . S
C1604 N1603 1.351 . S
C1604 C1605 1.434 . S
C1605 C1596 1.429 . S
C1605 N1602 1.350 . S
C1605 C1604 1.434 . S
C1606 C1607 1.369 . S
C1606 C1608 1.419 . S
C1606 H1610 0.930 . S
C1607 C1606 1.369 . S
C1607 C1616 1.429 . S
C1608 C1606 1.419 . S
C1608 C1609 1.363 . S
C1608 H1611 0.929 . S
C1609 C1608 1.363 . S
C1609 C1615 1.428 . S
H1610 C1606 0.930 . S
H1611 C1608 0.929 . S
S1612 N1613 1.613 . S
S1612 N1614 1.610 . S
N1613 S1612 1.613 . S
N1613 C1616 1.350 . S
N1614 S1612 1.610 . S
N1614 C1615 1.351 . S
C1615 C1609 1.428 . S
C1615 N1614 1.351 . S
C1615 C1616 1.434 . S
C1616 C1607 1.429 . S
C1616 N1613 1.350 . S
C1616 C1615 1.434 . S
C1617 C1618 1.369 . S
C1617 C1619 1.419 . S
C1617 H1621 0.930 . S
C1618 C1617 1.369 . S
C1618 C1627 1.429 . S
C1619 C1617 1.419 . S
C1619 C1620 1.363 . S
C1619 H1622 0.929 . S
C1620 C1619 1.363 . S
C1620 C1626 1.428 . S
H1621 C1617 0.930 . S
H1622 C1619 0.929 . S
S1623 N1624 1.613 . S
S1623 N1625 1.610 . S
N1624 S1623 1.613 . S
N1624 C1627 1.350 . S
N1625 S1623 1.610 . S
N1625 C1626 1.351 . S
C1626 C1620 1.428 . S
C1626 N1625 1.351 . S
C1626 C1627 1.434 . S
C1627 C1618 1.429 . S
C1627 N1624 1.350 . S
C1627 C1626 1.434 . S
C1628 C1629 1.369 . S
C1628 C1630 1.419 . S
C1628 H1632 0.930 . S
C1629 C1628 1.369 . S
C1629 C1638 1.429 . S
C1630 C1628 1.419 . S
C1630 C1631 1.363 . S
C1630 H1633 0.929 . S
C1631 C1630 1.363 . S
C1631 C1637 1.428 . S
H1632 C1628 0.930 . S
H1633 C1630 0.929 . S
S1634 N1635 1.613 . S
S1634 N1636 1.610 . S
N1635 S1634 1.613 . S
N1635 C1638 1.350 . S
N1636 S1634 1.610 . S
N1636 C1637 1.351 . S
C1637 C1631 1.428 . S
C1637 N1636 1.351 . S
C1637 C1638 1.434 . S
C1638 C1629 1.429 . S
C1638 N1635 1.350 . S
C1638 C1637 1.434 . S
C1639 C1640 1.369 . S
C1639 C1641 1.419 . S
C1639 H1643 0.930 . S
C1640 C1639 1.369 . S
C1640 C1649 1.429 . S
C1641 C1639 1.419 . S
C1641 C1642 1.363 . S
C1641 H1644 0.929 . S
C1642 C1641 1.363 . S
C1642 C1648 1.428 . S
H1643 C1639 0.930 . S
H1644 C1641 0.929 . S
S1645 N1646 1.613 . S
S1645 N1647 1.610 . S
N1646 S1645 1.613 . S
N1646 C1649 1.350 . S
N1647 S1645 1.610 . S
N1647 C1648 1.351 . S
C1648 C1642 1.428 . S
C1648 N1647 1.351 . S
C1648 C1649 1.434 . S
C1649 C1640 1.429 . S
C1649 N1646 1.350 . S
C1649 C1648 1.434 . S
C1650 C1651 1.369 . S
C1650 C1652 1.419 . S
C1650 H1654 0.930 . S
C1651 C1650 1.369 . S
C1651 C1660 1.429 . S
C1652 C1650 1.419 . S
C1652 C1653 1.363 . S
C1652 H1655 0.929 . S
C1653 C1652 1.363 . S
C1653 C1659 1.428 . S
H1654 C1650 0.930 . S
H1655 C1652 0.929 . S
S1656 N1657 1.613 . S
S1656 N1658 1.610 . S
N1657 S1656 1.613 . S
N1657 C1660 1.350 . S
N1658 S1656 1.610 . S
N1658 C1659 1.351 . S
C1659 C1653 1.428 . S
C1659 N1658 1.351 . S
C1659 C1660 1.434 . S
C1660 C1651 1.429 . S
C1660 N1657 1.350 . S
C1660 C1659 1.434 . S
C1661 C1662 1.369 . S
C1661 C1663 1.419 . S
C1661 H1665 0.930 . S
C1662 C1661 1.369 . S
C1662 C1671 1.429 . S
C1663 C1661 1.419 . S
C1663 C1664 1.363 . S
C1663 H1666 0.929 . S
C1664 C1663 1.363 . S
C1664 C1670 1.428 . S
H1665 C1661 0.930 . S
H1666 C1663 0.929 . S
S1667 N1668 1.613 . S
S1667 N1669 1.610 . S
N1668 S1667 1.613 . S
N1668 C1671 1.350 . S
N1669 S1667 1.610 . S
N1669 C1670 1.351 . S
C1670 C1664 1.428 . S
C1670 N1669 1.351 . S
C1670 C1671 1.434 . S
C1671 C1662 1.429 . S
C1671 N1668 1.350 . S
C1671 C1670 1.434 . S
C1672 C1673 1.369 . S
C1672 C1674 1.419 . S
C1672 H1676 0.930 . S
C1673 C1672 1.369 . S
C1673 C1682 1.429 . S
C1674 C1672 1.419 . S
C1674 C1675 1.363 . S
C1674 H1677 0.929 . S
C1675 C1674 1.363 . S
C1675 C1681 1.428 . S
H1676 C1672 0.930 . S
H1677 C1674 0.929 . S
S1678 N1679 1.613 . S
S1678 N1680 1.610 . S
N1679 S1678 1.613 . S
N1679 C1682 1.350 . S
N1680 S1678 1.610 . S
N1680 C1681 1.351 . S
C1681 C1675 1.428 . S
C1681 N1680 1.351 . S
C1681 C1682 1.434 . S
C1682 C1673 1.429 . S
C1682 N1679 1.350 . S
C1682 C1681 1.434 . S
C1683 C1684 1.369 . S
C1683 C1685 1.419 . S
C1683 H1687 0.930 . S
C1684 C1683 1.369 . S
C1684 C1693 1.429 . S
C1685 C1683 1.419 . S
C1685 C1686 1.363 . S
C1685 H1688 0.929 . S
C1686 C1685 1.363 . S
C1686 C1692 1.428 . S
H1687 C1683 0.930 . S
H1688 C1685 0.929 . S
S1689 N1690 1.613 . S
S1689 N1691 1.610 . S
N1690 S1689 1.613 . S
N1690 C1693 1.350 . S
N1691 S1689 1.610 . S
N1691 C1692 1.351 . S
C1692 C1686 1.428 . S
C1692 N1691 1.351 . S
C1692 C1693 1.434 . S
C1693 C1684 1.429 . S
C1693 N1690 1.350 . S
C1693 C1692 1.434 . S
C1694 C1695 1.369 . S
C1694 C1696 1.419 . S
C1694 H1698 0.930 . S
C1695 C1694 1.369 . S
C1695 C1704 1.429 . S
C1696 C1694 1.419 . S
C1696 C1697 1.363 . S
C1696 H1699 0.929 . S
C1697 C1696 1.363 . S
C1697 C1703 1.428 . S
H1698 C1694 0.930 . S
H1699 C1696 0.929 . S
S1700 N1701 1.613 . S
S1700 N1702 1.610 . S
N1701 S1700 1.613 . S
N1701 C1704 1.350 . S
N1702 S1700 1.610 . S
N1702 C1703 1.351 . S
C1703 C1697 1.428 . S
C1703 N1702 1.351 . S
C1703 C1704 1.434 . S
C1704 C1695 1.429 . S
C1704 N1701 1.350 . S
C1704 C1703 1.434 . S
C1705 C1706 1.369 . S
C1705 C1707 1.419 . S
C1705 H1709 0.930 . S
C1706 C1705 1.369 . S
C1706 C1715 1.429 . S
C1707 C1705 1.419 . S
C1707 C1708 1.363 . S
C1707 H1710 0.929 . S
C1708 C1707 1.363 . S
C1708 C1714 1.428 . S
H1709 C1705 0.930 . S
H1710 C1707 0.929 . S
S1711 N1712 1.613 . S
S1711 N1713 1.610 . S
N1712 S1711 1.613 . S
N1712 C1715 1.350 . S
N1713 S1711 1.610 . S
N1713 C1714 1.351 . S
C1714 C1708 1.428 . S
C1714 N1713 1.351 . S
C1714 C1715 1.434 . S
C1715 C1706 1.429 . S
C1715 N1712 1.350 . S
C1715 C1714 1.434 . S
C1716 C1717 1.369 . S
C1716 C1718 1.419 . S
C1716 H1720 0.930 . S
C1717 C1716 1.369 . S
C1717 C1726 1.429 . S
C1718 C1716 1.419 . S
C1718 C1719 1.363 . S
C1718 H1721 0.929 . S
C1719 C1718 1.363 . S
C1719 C1725 1.428 . S
H1720 C1716 0.930 . S
H1721 C1718 0.929 . S
S1722 N1723 1.613 . S
S1722 N1724 1.610 . S
N1723 S1722 1.613 . S
N1723 C1726 1.350 . S
N1724 S1722 1.610 . S
N1724 C1725 1.351 . S
C1725 C1719 1.428 . S
C1725 N1724 1.351 . S
C1725 C1726 1.434 . S
C1726 C1717 1.429 . S
C1726 N1723 1.350 . S
C1726 C1725 1.434 . S
C1727 C1728 1.369 . S
C1727 C1729 1.419 . S
C1727 H1731 0.930 . S
C1728 C1727 1.369 . S
C1728 C1737 1.429 . S
C1729 C1727 1.419 . S
C1729 C1730 1.363 . S
C1729 H1732 0.929 . S
C1730 C1729 1.363 . S
C1730 C1736 1.428 . S
H1731 C1727 0.930 . S
H1732 C1729 0.929 . S
S1733 N1734 1.613 . S
S1733 N1735 1.610 . S
N1734 S1733 1.613 . S
N1734 C1737 1.350 . S
N1735 S1733 1.610 . S
N1735 C1736 1.351 . S
C1736 C1730 1.428 . S
C1736 N1735 1.351 . S
C1736 C1737 1.434 . S
C1737 C1728 1.429 . S
C1737 N1734 1.350 . S
C1737 C1736 1.434 . S
C1738 C1739 1.369 . S
C1738 C1740 1.419 . S
C1738 H1742 0.930 . S
C1739 C1738 1.369 . S
C1739 C1748 1.429 . S
C1740 C1738 1.419 . S
C1740 C1741 1.363 . S
C1740 H1743 0.929 . S
C1741 C1740 1.363 . S
C1741 C1747 1.428 . S
H1742 C1738 0.930 . S
H1743 C1740 0.929 . S
S1744 N1745 1.613 . S
S1744 N1746 1.610 . S
N1745 S1744 1.613 . S
N1745 C1748 1.350 . S
N1746 S1744 1.610 . S
N1746 C1747 1.351 . S
C1747 C1741 1.428 . S
C1747 N1746 1.351 . S
C1747 C1748 1.434 . S
C1748 C1739 1.429 . S
C1748 N1745 1.350 . S
C1748 C1747 1.434 . S
C1749 C1750 1.369 . S
C1749 C1751 1.419 . S
C1749 H1753 0.930 . S
C1750 C1749 1.369 . S
C1750 C1759 1.429 . S
C1751 C1749 1.419 . S
C1751 C1752 1.363 . S
C1751 H1754 0.929 . S
C1752 C1751 1.363 . S
C1752 C1758 1.428 . S
H1753 C1749 0.930 . S
H1754 C1751 0.929 . S
S1755 N1756 1.613 . S
S1755 N1757 1.610 . S
N1756 S1755 1.613 . S
N1756 C1759 1.350 . S
N1757 S1755 1.610 . S
N1757 C1758 1.351 . S
C1758 C1752 1.428 . S
C1758 N1757 1.351 . S
C1758 C1759 1.434 . S
C1759 C1750 1.429 . S
C1759 N1756 1.350 . S
C1759 C1758 1.434 . S
C1760 C1761 1.369 . S
C1760 C1762 1.419 . S
C1760 H1764 0.930 1_554 S
C1761 C1760 1.369 . S
C1761 C1770 1.429 . S
C1762 C1760 1.419 . S
C1762 C1763 1.363 . S
C1762 H1765 0.929 1_554 S
C1763 C1762 1.363 . S
C1763 C1769 1.428 . S
H1764 C1760 0.930 1_556 S
H1765 C1762 0.929 1_556 S
S1766 N1767 1.613 . S
S1766 N1768 1.610 . S
N1767 S1766 1.613 . S
N1767 C1770 1.350 . S
N1768 S1766 1.610 . S
N1768 C1769 1.351 . S
C1769 C1763 1.428 . S
C1769 N1768 1.351 . S
C1769 C1770 1.434 . S
C1770 C1761 1.429 . S
C1770 N1767 1.350 . S
C1770 C1769 1.434 . S
C1771 C1772 1.369 1_545 S
C1771 C1773 1.419 1_655 S
C1771 H1775 0.930 . S
C1772 C1771 1.369 1_565 S
C1772 C1781 1.429 . S
C1773 C1771 1.419 1_455 S
C1773 C1774 1.363 1_545 S
C1773 H1776 0.929 . S
C1774 C1773 1.363 1_565 S
C1774 C1780 1.428 . S
H1775 C1771 0.930 . S
H1776 C1773 0.929 . S
S1777 N1778 1.617 1_455 S
S1777 N1779 1.607 . S
N1778 S1777 1.617 1_655 S
N1778 C1781 1.350 . S
N1779 S1777 1.607 . S
N1779 C1780 1.351 . S
C1780 C1774 1.428 . S
C1780 N1779 1.351 . S
C1780 C1781 1.434 1_455 S
C1781 C1772 1.429 . S
C1781 N1778 1.350 . S
C1781 C1780 1.434 1_655 S
C1782 C1783 1.369 . S
C1782 C1784 1.419 . S
C1782 H1786 0.930 . S
C1783 C1782 1.369 . S
C1783 C1792 1.429 . S
C1784 C1782 1.419 . S
C1784 C1785 1.363 . S
C1784 H1787 0.929 . S
C1785 C1784 1.363 . S
C1785 C1791 1.428 . S
H1786 C1782 0.930 . S
H1787 C1784 0.929 . S
S1788 N1789 1.613 . S
S1788 N1790 1.610 . S
N1789 S1788 1.613 . S
N1789 C1792 1.350 . S
N1790 S1788 1.610 . S
N1790 C1791 1.351 . S
C1791 C1785 1.428 . S
C1791 N1790 1.351 . S
C1791 C1792 1.434 . S
C1792 C1783 1.429 . S
C1792 N1789 1.350 . S
C1792 C1791 1.434 . S
C1793 C1794 1.369 . S
C1793 C1795 1.419 . S
C1793 H1797 0.930 . S
C1794 C1793 1.369 . S
C1794 C1803 1.429 1_545 S
C1795 C1793 1.419 . S
C1795 C1796 1.363 . S
C1795 H1798 0.929 . S
C1796 C1795 1.363 . S
C1796 C1802 1.428 1_545 S
H1797 C1793 0.930 . S
H1798 C1795 0.929 . S
S1799 N1800 1.613 . S
S1799 N1801 1.610 . S
N1800 S1799 1.613 . S
N1800 C1803 1.350 . S
N1801 S1799 1.610 . S
N1801 C1802 1.351 . S
C1802 C1796 1.428 1_565 S
C1802 N1801 1.351 . S
C1802 C1803 1.434 . S
C1803 C1794 1.429 1_565 S
C1803 N1800 1.350 . S
C1803 C1802 1.434 . S
C1804 C1805 1.369 . S
C1804 C1806 1.419 . S
C1804 H1808 0.930 . S
C1805 C1804 1.369 . S
C1805 C1814 1.429 . S
C1806 C1804 1.419 . S
C1806 C1807 1.363 . S
C1806 H1809 0.929 . S
C1807 C1806 1.363 . S
C1807 C1813 1.428 . S
H1808 C1804 0.930 . S
H1809 C1806 0.929 . S
S1810 N1811 1.613 . S
S1810 N1812 1.610 . S
N1811 S1810 1.613 . S
N1811 C1814 1.350 . S
N1812 S1810 1.610 . S
N1812 C1813 1.351 . S
C1813 C1807 1.428 . S
C1813 N1812 1.351 . S
C1813 C1814 1.434 . S
C1814 C1805 1.429 . S
C1814 N1811 1.350 . S
C1814 C1813 1.434 . S
C1815 C1816 1.369 1_545 S
C1815 C1817 1.419 . S
C1815 H1819 0.930 . S
C1816 C1815 1.369 1_565 S
C1816 C1825 1.429 . S
C1817 C1815 1.419 . S
C1817 C1818 1.363 1_545 S
C1817 H1820 0.929 . S
C1818 C1817 1.363 1_565 S
C1818 C1824 1.428 . S
H1819 C1815 0.930 . S
H1820 C1817 0.929 . S
S1821 N1822 1.613 . S
S1821 N1823 1.610 . S
N1822 S1821 1.613 . S
N1822 C1825 1.350 . S
N1823 S1821 1.610 . S
N1823 C1824 1.351 . S
C1824 C1818 1.428 . S
C1824 N1823 1.351 . S
C1824 C1825 1.434 . S
C1825 C1816 1.429 . S
C1825 N1822 1.350 . S
C1825 C1824 1.434 . S
C1826 C1827 1.369 . S
C1826 C1828 1.419 . S
C1826 H1830 0.930 . S
C1827 C1826 1.369 . S
C1827 C1836 1.429 . S
C1828 C1826 1.419 . S
C1828 C1829 1.363 . S
C1828 H1831 0.929 . S
C1829 C1828 1.363 . S
C1829 C1835 1.428 . S
H1830 C1826 0.930 . S
H1831 C1828 0.929 . S
S1832 N1833 1.613 . S
S1832 N1834 1.610 . S
N1833 S1832 1.613 . S
N1833 C1836 1.350 . S
N1834 S1832 1.610 . S
N1834 C1835 1.351 . S
C1835 C1829 1.428 . S
C1835 N1834 1.351 . S
C1835 C1836 1.434 . S
C1836 C1827 1.429 . S
C1836 N1833 1.350 . S
C1836 C1835 1.434 . S
C1837 C1838 1.369 1_565 S
C1837 C1839 1.419 1_455 S
C1837 H1841 0.930 . S
C1838 C1837 1.369 1_545 S
C1838 C1847 1.429 . S
C1839 C1837 1.419 1_655 S
C1839 C1840 1.363 1_565 S
C1839 H1842 0.929 . S
C1840 C1839 1.363 1_545 S
C1840 C1846 1.428 . S
H1841 C1837 0.930 . S
H1842 C1839 0.929 . S
S1843 N1844 1.617 1_655 S
S1843 N1845 1.607 . S
N1844 S1843 1.617 1_455 S
N1844 C1847 1.350 . S
N1845 S1843 1.607 . S
N1845 C1846 1.351 . S
C1846 C1840 1.428 . S
C1846 N1845 1.351 . S
C1846 C1847 1.434 1_655 S
C1847 C1838 1.429 . S
C1847 N1844 1.350 . S
C1847 C1846 1.434 1_455 S
C1848 C1849 1.369 . S
C1848 C1850 1.419 . S
C1848 H1852 0.930 . S
C1849 C1848 1.369 . S
C1849 C1858 1.429 . S
C1850 C1848 1.419 . S
C1850 C1851 1.363 . S
C1850 H1853 0.929 . S
C1851 C1850 1.363 . S
C1851 C1857 1.428 . S
H1852 C1848 0.930 . S
H1853 C1850 0.929 . S
S1854 N1855 1.613 . S
S1854 N1856 1.610 . S
N1855 S1854 1.613 . S
N1855 C1858 1.350 1_554 S
N1856 S1854 1.610 . S
N1856 C1857 1.351 1_554 S
C1857 C1851 1.428 . S
C1857 N1856 1.351 1_556 S
C1857 C1858 1.434 . S
C1858 C1849 1.429 . S
C1858 N1855 1.350 1_556 S
C1858 C1857 1.434 . S
C1859 C1860 1.369 . S
C1859 C1861 1.419 . S
C1859 H1863 0.930 . S
C1860 C1859 1.369 . S
C1860 C1869 1.429 . S
C1861 C1859 1.419 . S
C1861 C1862 1.363 . S
C1861 H1864 0.929 . S
C1862 C1861 1.363 . S
C1862 C1868 1.428 . S
H1863 C1859 0.930 . S
H1864 C1861 0.929 . S
S1865 N1866 1.613 . S
S1865 N1867 1.610 . S
N1866 S1865 1.613 . S
N1866 C1869 1.350 . S
N1867 S1865 1.610 . S
N1867 C1868 1.351 . S
C1868 C1862 1.428 . S
C1868 N1867 1.351 . S
C1868 C1869 1.434 . S
C1869 C1860 1.429 . S
C1869 N1866 1.350 . S
C1869 C1868 1.434 . S
C1870 C1871 1.369 . S
C1870 C1872 1.419 . S
C1870 H1874 0.930 . S
C1871 C1870 1.369 . S
C1871 C1880 1.429 . S
C1872 C1870 1.419 . S
C1872 C1873 1.363 . S
C1872 H1875 0.929 . S
C1873 C1872 1.363 . S
C1873 C1879 1.428 . S
H1874 C1870 0.930 . S
H1875 C1872 0.929 . S
S1876 N1877 1.613 . S
S1876 N1878 1.610 . S
N1877 S1876 1.613 . S
N1877 C1880 1.350 . S
N1878 S1876 1.610 . S
N1878 C1879 1.351 . S
C1879 C1873 1.428 . S
C1879 N1878 1.351 . S
C1879 C1880 1.434 . S
C1880 C1871 1.429 . S
C1880 N1877 1.350 . S
C1880 C1879 1.434 . S
C1881 C1882 1.369 . S
C1881 C1883 1.419 . S
C1881 H1885 0.930 . S
C1882 C1881 1.369 . S
C1882 C1891 1.429 . S
C1883 C1881 1.419 . S
C1883 C1884 1.363 . S
C1883 H1886 0.929 . S
C1884 C1883 1.363 . S
C1884 C1890 1.428 . S
H1885 C1881 0.930 . S
H1886 C1883 0.929 . S
S1887 N1888 1.613 . S
S1887 N1889 1.610 . S
N1888 S1887 1.613 . S
N1888 C1891 1.350 . S
N1889 S1887 1.610 . S
N1889 C1890 1.351 . S
C1890 C1884 1.428 . S
C1890 N1889 1.351 . S
C1890 C1891 1.434 . S
C1891 C1882 1.429 . S
C1891 N1888 1.350 . S
C1891 C1890 1.434 . S
C1892 C1893 1.369 . S
C1892 C1894 1.419 . S
C1892 H1896 0.930 . S
C1893 C1892 1.369 . S
C1893 C1902 1.429 . S
C1894 C1892 1.419 . S
C1894 C1895 1.363 . S
C1894 H1897 0.929 . S
C1895 C1894 1.363 . S
C1895 C1901 1.428 . S
H1896 C1892 0.930 . S
H1897 C1894 0.929 . S
S1898 N1899 1.613 . S
S1898 N1900 1.610 . S
N1899 S1898 1.613 . S
N1899 C1902 1.350 . S
N1900 S1898 1.610 . S
N1900 C1901 1.351 . S
C1901 C1895 1.428 . S
C1901 N1900 1.351 . S
C1901 C1902 1.434 . S
C1902 C1893 1.429 . S
C1902 N1899 1.350 . S
C1902 C1901 1.434 . S
C1903 C1904 1.369 . S
C1903 C1905 1.419 1_455 S
C1903 H1907 0.930 . S
C1904 C1903 1.369 . S
C1904 C1913 1.429 . S
C1905 C1903 1.419 1_655 S
C1905 C1906 1.363 . S
C1905 H1908 0.929 . S
C1906 C1905 1.363 . S
C1906 C1912 1.428 . S
H1907 C1903 0.930 . S
H1908 C1905 0.929 . S
S1909 N1910 1.617 1_655 S
S1909 N1911 1.607 . S
N1910 S1909 1.617 1_455 S
N1910 C1913 1.350 . S
N1911 S1909 1.607 . S
N1911 C1912 1.351 . S
C1912 C1906 1.428 . S
C1912 N1911 1.351 . S
C1912 C1913 1.434 1_655 S
C1913 C1904 1.429 . S
C1913 N1910 1.350 . S
C1913 C1912 1.434 1_455 S
C1914 C1915 1.369 . S
C1914 C1916 1.419 1_455 S
C1914 H1918 0.930 . S
C1915 C1914 1.369 . S
C1915 C1924 1.429 . S
C1916 C1914 1.419 1_655 S
C1916 C1917 1.363 . S
C1916 H1919 0.929 . S
C1917 C1916 1.363 . S
C1917 C1923 1.428 . S
H1918 C1914 0.930 . S
H1919 C1916 0.929 . S
S1920 N1921 1.617 1_655 S
S1920 N1922 1.607 . S
N1921 S1920 1.617 1_455 S
N1921 C1924 1.350 . S
N1922 S1920 1.607 . S
N1922 C1923 1.351 . S
C1923 C1917 1.428 . S
C1923 N1922 1.351 . S
C1923 C1924 1.434 1_655 S
C1924 C1915 1.429 . S
C1924 N1921 1.350 . S
C1924 C1923 1.434 1_455 S
C1925 C1926 1.369 . S
C1925 C1927 1.419 . S
C1925 H1929 0.930 . S
C1926 C1925 1.369 . S
C1926 C1935 1.429 . S
C1927 C1925 1.419 . S
C1927 C1928 1.363 . S
C1927 H1930 0.929 . S
C1928 C1927 1.363 . S
C1928 C1934 1.428 . S
H1929 C1925 0.930 . S
H1930 C1927 0.929 . S
S1931 N1932 1.613 . S
S1931 N1933 1.610 . S
N1932 S1931 1.613 . S
N1932 C1935 1.350 . S
N1933 S1931 1.610 . S
N1933 C1934 1.351 . S
C1934 C1928 1.428 . S
C1934 N1933 1.351 . S
C1934 C1935 1.434 . S
C1935 C1926 1.429 . S
C1935 N1932 1.350 . S
C1935 C1934 1.434 . S
C1057 N38 2.161 . S
C1059 C8 2.069 . S
C1068 C41 2.072 . S
C1070 N71 2.153 . S
C1079 C74 2.072 . S
C1081 N104 2.165 . S
C1090 C107 2.071 . S
C1092 N5 2.150 . S
C1101 C140 2.069 . S
C1103 N236 2.163 . S
C1112 N137 2.150 . S
C1114 C173 2.069 . S
C1123 C206 2.073 . S
C1125 N170 2.161 . S
C1134 C239 2.070 . S
C1136 N203 2.153 . S
C1145 N302 2.160 . S
C1147 C272 2.072 . S
C1156 N335 2.149 . S
C1158 C305 2.072 . S
C1167 C338 2.070 . S
C1169 N368 2.164 . S
C1178 N269 2.153 . S
C1180 C371 2.075 . S
C1189 C404 2.069 . S
C1191 N500 2.161 . S
C1200 C437 2.071 . S
C1202 N401 2.153 . S
C1211 N434 2.160 . S
C1213 C470 2.070 . S
C1222 N467 2.154 . S
C1224 C503 2.075 . S
C1233 N566 2.151 . S
C1235 C536 2.074 . S
C1244 C569 2.071 . S
C1246 N599 2.153 . S
C1255 N632 2.154 . S
C1257 C602 2.074 . S
C1266 N533 2.154 . S
C1268 C635 2.074 . S
C1277 N764 2.153 . S
C1279 C668 2.071 . S
C1288 C701 2.074 . S
C1290 N665 2.151 . S
C1299 N698 2.149 . S
C1301 C734 2.071 . S
C1310 C767 2.076 . S
C1312 N731 2.153 . S
C1321 N830 2.153 . S
C1323 C800 2.075 . S
C1332 C833 2.072 . S
C1334 N863 2.150 . S
C1343 C866 2.076 . S
C1345 N896 2.153 . S
C1354 C899 2.070 . S
C1356 N797 2.153 . S
C1365 N1028 2.154 . S
C1367 C932 2.072 . S
C1376 N929 2.154 . S
C1378 C965 2.073 . S
C1387 N962 2.149 . S
C1389 C998 2.071 . S
C1398 N995 2.152 . S
C1400 C1031 2.069 . S
C1409 N212 0.711 . S
C1411 N14 0.697 . S
C1420 N47 0.691 . S
C1422 N245 0.713 . S
C1431 N80 0.695 . S
C1433 N146 0.710 . S
C1442 N113 0.691 . S
C1444 N179 0.713 . S
C1453 N476 0.692 . S
C1455 N278 0.713 . S
C1464 N509 0.715 . S
C1466 N311 0.695 . S
C1475 N344 0.700 . S
C1477 N410 0.705 . S
C1486 N443 0.692 . S
C1488 N377 0.713 . S
C1497 N542 0.691 . S
C1499 N740 0.713 . S
C1508 N575 0.691 . S
C1510 N773 0.713 . S
C1519 N674 0.694 . S
C1521 N608 0.711 . S
C1530 N707 0.713 . S
C1532 N641 0.696 . S
C1541 N1004 0.714 . S
C1543 N806 0.695 . S
C1552 N1037 0.691 . S
C1554 N839 0.713 . S
C1563 N938 0.716 . S
C1565 N872 0.695 . S
C1574 N971 0.691 . S
C1576 N905 0.713 . S
C1585 C193 0.894 . S
C1587 C28 0.889 . S
C1596 C61 0.883 . S
C1598 C226 0.896 . S
C1607 C94 0.893 . S
C1609 C259 0.878 . S
C1618 C127 0.881 . S
C1620 C160 0.896 . S
C1629 C457 0.900 . S
C1631 C292 0.880 . S
C1640 C325 0.885 . S
C1642 C490 0.883 . S
C1651 C523 0.898 . S
C1653 C358 0.883 . S
C1662 C391 0.883 . S
C1664 C424 0.895 . S
C1673 C556 0.874 . S
C1675 C721 0.894 . S
C1684 C754 0.888 . S
C1686 C589 0.894 . S
C1695 C787 0.891 . S
C1697 C622 0.878 . S
C1706 C655 0.892 . S
C1708 C688 0.891 . S
C1717 C820 0.874 . S
C1719 C985 0.896 . S
C1728 C1018 0.886 . S
C1730 C853 0.894 . S
C1739 C1051 0.895 . S
C1741 C886 0.877 . S
C1750 C952 0.878 . S
C1752 C919 0.897 . S
C1761 C17 1.453 . S
C1763 C1007 1.453 . S
C1772 C512 1.454 . S
C1774 C50 1.454 . S
C1783 C941 1.456 . S
C1785 C83 1.455 . S
C1794 C116 1.454 . S
C1796 C446 1.455 . S
C1805 C149 1.455 . S
C1807 C875 1.454 . S
C1816 C380 1.453 . S
C1818 C182 1.453 . S
C1827 C215 1.456 . S
C1829 C809 1.456 . S
C1838 C248 1.455 . S
C1840 C314 1.455 . S
C1849 C281 1.456 . S
C1851 C743 1.455 . S
C1860 C347 1.453 . S
C1862 C677 1.453 . S
C1871 C413 1.453 . S
C1873 C611 1.454 . S
C1882 C479 1.453 . S
C1884 C545 1.453 . S
C1893 C578 1.455 . S
C1895 C1040 1.455 . S
C1904 C974 1.455 . S
C1906 C644 1.455 . S
C1915 C908 1.455 . S
C1917 C710 1.455 . S
C1926 C842 1.453 . S
C1928 C776 1.453 . S
