# Generated by pormake.
# Topology sxb, (6)-cn, num edge types: 1
# Building blocks:
#     Node 0, Type 0, BuildingBlock: BETFAJ_clean_sbu_0, # of connection points: 6
#     Node 1, Type 0, BuildingBlock: BETFAJ_clean_sbu_0, # of connection points: 6
#     Node 2, Type 0, BuildingBlock: BETFAJ_clean_sbu_0, # of connection points: 6
#     Node 3, Type 0, BuildingBlock: BETFAJ_clean_sbu_0, # of connection points: 6
#     Edge 4, Type (0, 0), BuildingBlock: TEMPAE_clean_linker_10, # of connection points: 2
#     Edge 5, Type (0, 0), BuildingBlock: TEMPAE_clean_linker_10, # of connection points: 2
#     Edge 6, Type (0, 0), BuildingBlock: TEMPAE_clean_linker_10, # of connection points: 2
#     Edge 7, Type (0, 0), BuildingBlock: TEMPAE_clean_linker_10, # of connection points: 2
#     Edge 8, Type (0, 0), BuildingBlock: TEMPAE_clean_linker_10, # of connection points: 2
#     Edge 9, Type (0, 0), BuildingBlock: TEMPAE_clean_linker_10, # of connection points: 2
#     Edge 10, Type (0, 0), BuildingBlock: TEMPAE_clean_linker_10, # of connection points: 2
#     Edge 11, Type (0, 0), BuildingBlock: TEMPAE_clean_linker_10, # of connection points: 2
#     Edge 12, Type (0, 0), BuildingBlock: TEMPAE_clean_linker_10, # of connection points: 2
#     Edge 13, Type (0, 0), BuildingBlock: TEMPAE_clean_linker_10, # of connection points: 2
#     Edge 14, Type (0, 0), BuildingBlock: TEMPAE_clean_linker_10, # of connection points: 2
#     Edge 15, Type (0, 0), BuildingBlock: TEMPAE_clean_linker_10, # of connection points: 2
# Relax obj value: 0.416
# Max RMSD: 0.126
# Mean RMSD: 0.082
data_MOF--net-sxb--node1-BETFAJ_clean_sbu_0--edge1-TEMPAE_clean_linker_10
_symmetry_space_group_name_H-M    P1
_symmetry_Int_Tables_number       1
_symmetry_cell_setting            triclinic
loop_
_symmetry_equiv_pos_as_xyz
'x, y, z'
_cell_length_a     17.169747
_cell_length_b     35.409253
_cell_length_c     30.880781
_cell_angle_alpha  92.449405
_cell_angle_beta   94.092313
_cell_angle_gamma 67.833823
loop_
_atom_site_label
_atom_site_type_symbol
_atom_site_fract_x
_atom_site_fract_y
_atom_site_fract_z
_atom_type_partial_charge
Sm0 Sm 1.01693 1.06231 0.93562 0.0
Sm1 Sm 0.16152 0.06855 0.94419 0.0
C2 C 0.88675 1.04472 0.95373 0.0
C3 C 0.85221 1.04835 -0.00335 0.0
C4 C 0.90599 1.04254 0.03448 0.0
C5 C 0.87367 1.04894 0.07554 0.0
C6 C 0.7867 1.06129 0.07953 0.0
C7 C 0.73312 1.06644 0.04154 0.0
C8 C 0.76559 1.06022 0.00047 0.0
C9 C 1.05561 0.07416 0.85225 0.0
C10 C 1.00085 0.15516 0.93783 0.0
C11 C 0.29606 0.0861 0.96144 0.0
C12 C 0.34915 0.07439 0.00204 0.0
C13 C 0.36122 0.10463 0.0294 0.0
C14 C 0.39712 0.09523 0.07157 0.0
C15 C 0.42177 1.05539 0.08707 0.0
C16 C 0.40964 1.02516 0.05969 0.0
C17 C 0.37346 1.03457 0.01769 0.0
C18 C 0.11344 1.0559 0.02539 0.0
C19 C 0.18645 0.97393 0.93476 0.0
O20 O 0.96224 1.01713 0.95063 0.0
O21 O 0.87794 0.07898 0.93596 0.0
O22 O 0.1079 1.05092 0.87996 0.0
O23 O 0.98206 0.09089 0.86778 0.0
O24 O 0.96696 0.13187 0.95479 0.0
O25 O 1.07518 0.13563 0.9216 0.0
O26 O 0.29626 1.05659 0.93447 0.0
O27 O 0.22036 0.11249 0.96704 0.0
O28 O 1.06909 0.08186 -0.00192 0.0
O29 O 0.18218 1.03297 0.00849 0.0
O30 O 0.22772 0.99839 0.93211 0.0
O31 O 0.10402 0.99141 0.93902 0.0
H32 H 0.97318 1.03338 0.03226 0.0
H33 H 0.9166 1.04488 0.10398 0.0
H34 H 0.66584 0.07507 0.04354 0.0
H35 H 0.7231 1.06499 0.97177 0.0
H36 H 0.34097 0.13574 0.01848 0.0
H37 H 0.40753 0.11889 0.09169 0.0
H38 H 0.42843 0.99418 0.07076 0.0
H39 H 0.36264 1.0108 -0.00207 0.0
Sm40 Sm 0.12368 1.0335 0.44118 0.0
Sm41 Sm 1.0506 0.11294 0.43778 0.0
C42 C 0.17019 0.95585 0.46114 0.0
C43 C 0.12937 0.9343 0.48501 0.0
C44 C 1.07395 0.95475 0.51723 0.0
C45 C 1.02604 0.93604 0.53556 0.0
C46 C 1.03206 0.89681 0.52152 0.0
C47 C 1.09066 0.87582 0.49064 0.0
C48 C 0.13899 0.89444 0.47261 0.0
C49 C 0.11271 1.05716 0.35553 0.0
C50 C 0.90699 0.0725 0.43596 0.0
C51 C 0.99947 0.19247 0.42507 0.0
C52 C 1.02971 0.22504 0.43964 0.0
C53 C 1.09245 0.2314 0.41772 0.0
C54 C 0.12734 0.2591 0.43421 0.0
C55 C 0.09985 0.28124 0.47277 0.0
C56 C 1.03432 0.27638 0.4936 0.0
C57 C 0.99914 0.24868 0.47701 0.0
C58 C 1.06384 0.08794 0.52333 0.0
C59 C 0.26953 0.07372 0.44015 0.0
O60 O 0.19505 0.98152 0.48398 0.0
O61 O 0.13232 0.97051 0.42393 0.0
O62 O 1.05295 0.0698 0.38094 0.0
O63 O 0.18082 1.03277 0.37553 0.0
O64 O 0.97698 1.04238 0.45138 0.0
O65 O 0.92054 0.10394 0.42099 0.0
O66 O 1.04518 0.16486 0.39813 0.0
O67 O 0.97162 0.17674 0.45494 0.0
O68 O 0.12268 0.07669 0.49756 0.0
O69 O 0.99477 0.11159 0.50369 0.0
O70 O 0.19816 0.10722 0.43766 0.0
O71 O 0.25841 1.03877 0.44286 0.0
H72 H 1.06529 0.98577 0.52706 0.0
H73 H 0.98212 0.95285 0.55951 0.0
H74 H 0.09581 0.8459 0.47843 0.0
H75 H 0.18097 0.87844 0.44753 0.0
H76 H 0.11677 0.21401 0.38862 0.0
H77 H 0.17854 0.26183 0.41772 0.0
H78 H 1.01146 0.29341 0.52311 0.0
H79 H 0.94979 0.24491 0.49419 0.0
Sm80 Sm 0.51829 0.56207 0.93533 0.0
Sm81 Sm 0.66337 0.56834 0.94419 0.0
C82 C 0.38789 0.54432 0.95267 0.0
C83 C 0.35489 0.54635 -0.00425 0.0
C84 C 0.40992 0.53933 0.03319 0.0
C85 C 0.37905 0.5443 0.07453 0.0
C86 C 0.29232 0.55642 0.07917 0.0
C87 C 0.2375 0.56277 0.04153 0.0
C88 C 0.26852 0.55798 0.0002 0.0
C89 C 0.55928 0.57286 0.85202 0.0
C90 C 0.502 0.65504 0.93762 0.0
C91 C 0.7986 0.58527 0.96154 0.0
C92 C 0.85344 0.572 0.00138 0.0
C93 C 0.86635 0.60122 0.03001 0.0
C94 C 0.90379 0.59019 0.07165 0.0
C95 C 0.9292 0.54971 0.08531 0.0
C96 C 0.91646 0.52048 0.05662 0.0
C97 C 0.87869 0.53152 0.01517 0.0
C98 C 0.6164 0.55414 0.02493 0.0
C99 C 0.68756 0.47379 0.93488 0.0
O100 O 0.46282 0.51664 0.9482 0.0
O101 O 0.37931 0.57922 0.93657 0.0
O102 O 0.61054 0.55001 0.88028 0.0
O103 O 0.48534 0.59004 0.86704 0.0
O104 O 0.46776 0.63171 0.95417 0.0
O105 O 0.57678 0.63556 0.92179 0.0
O106 O 0.79749 0.55682 0.93337 0.0
O107 O 0.7233 0.61143 0.96857 0.0
O108 O 0.57135 0.58058 -0.00181 0.0
O109 O 0.68528 0.53186 0.00775 0.0
O110 O 0.72889 0.49818 0.93185 0.0
O111 O 0.60527 0.49129 0.93952 0.0
H112 H 0.47694 0.53035 0.03045 0.0
H113 H 0.42288 0.53934 0.10269 0.0
H114 H 0.17038 0.57125 0.04401 0.0
H115 H 0.2251 0.56368 0.9718 0.0
H116 H 0.84548 0.63279 0.02055 0.0
H117 H 0.91467 0.61313 0.0928 0.0
H118 H 0.93584 0.48904 0.06627 0.0
H119 H 0.8673 0.50847 -0.0056 0.0
Sm120 Sm 0.63986 0.5193 0.44 0.0
Sm121 Sm 0.56756 0.59842 0.43769 0.0
C122 C 0.68558 0.44141 0.45864 0.0
C123 C 0.64518 0.41952 0.48254 0.0
C124 C 0.60753 0.43547 0.52173 0.0
C125 C 0.55775 0.41799 0.54046 0.0
C126 C 0.54362 0.38475 0.51995 0.0
C127 C 0.58491 0.36781 0.48181 0.0
C128 C 0.63554 0.38492 0.46348 0.0
C129 C 0.62702 0.54417 0.35458 0.0
C130 C 0.42356 0.55822 0.43533 0.0
C131 C 0.52033 0.67785 0.42654 0.0
C132 C 0.55394 0.70725 0.44605 0.0
C133 C 0.53401 0.74516 0.42701 0.0
C134 C 0.57171 0.77174 0.44404 0.0
C135 C 0.62965 0.76058 0.48027 0.0
C136 C 0.6473 0.72301 0.49998 0.0
C137 C 0.60994 0.69647 0.48288 0.0
C138 C 0.58009 0.57332 0.52301 0.0
C139 C 0.78663 0.55873 0.43969 0.0
O140 O 0.71247 0.46642 0.48143 0.0
O141 O 0.64673 0.45675 0.42183 0.0
O142 O 0.56799 0.55633 0.38034 0.0
O143 O 0.69564 0.51966 0.37406 0.0
O144 O 0.49355 0.52808 0.45064 0.0
O145 O 0.43718 0.58972 0.42047 0.0
O146 O 0.57005 0.6505 0.40082 0.0
O147 O 0.48599 0.66217 0.45332 0.0
O148 O 0.63917 0.56174 0.49732 0.0
O149 O 0.51156 0.59748 0.50345 0.0
O150 O 0.71543 0.59229 0.43779 0.0
O151 O 0.77516 0.52383 0.44171 0.0
H152 H 0.61361 0.46242 0.53701 0.0
H153 H 0.5279 0.43147 0.57009 0.0
H154 H 0.5743 0.34279 0.46447 0.0
H155 H 0.66349 0.37243 0.43309 0.0
H156 H 0.49094 0.75375 0.39852 0.0
H157 H 0.55698 0.80063 0.4284 0.0
H158 H 0.69275 0.71338 0.52744 0.0
H159 H 0.62638 0.66705 0.49771 0.0
C160 C 0.4011 0.72341 0.96889 0.0
C161 C 0.45677 0.70191 0.93678 0.0
C162 C 0.35906 0.76688 0.96914 0.0
C163 C 0.36854 0.79089 0.9354 0.0
C164 C 0.42348 0.76919 0.90239 0.0
C165 C 0.46755 0.72581 0.90395 0.0
C166 C 0.305 0.78727 0.00627 0.0
C167 C 0.43483 0.79182 0.8646 0.0
C168 C 0.19373 0.90036 0.91808 0.0
C169 C 0.23287 0.92711 0.93451 0.0
C170 C 0.23693 0.8569 0.91716 0.0
C171 C 0.32164 0.83814 0.9348 0.0
C172 C 0.36073 0.86509 0.95226 0.0
C173 C 0.31726 0.90847 0.95108 0.0
C174 C 0.19169 0.83094 0.89655 0.0
C175 C 0.44879 0.84804 0.97318 0.0
H176 H 0.39159 0.70616 -0.00522 0.0
H177 H 0.50919 0.71038 0.87853 0.0
H178 H 0.32488 0.81152 0.02123 0.0
H179 H 0.23836 0.8021 -0.00592 0.0
H180 H 0.30858 0.76536 0.03175 0.0
H181 H 0.47384 0.7709 0.83981 0.0
H182 H 0.37246 0.81031 0.84897 0.0
H183 H 0.46545 0.8132 0.87625 0.0
H184 H 0.12917 0.91351 0.90488 0.0
H185 H 0.34918 0.92797 0.96435 0.0
H186 H 0.18202 0.81175 0.92146 0.0
H187 H 0.2306 0.81004 0.87174 0.0
H188 H 0.12936 0.84956 0.88092 0.0
H189 H 0.45244 0.82623 -0.00125 0.0
H190 H 0.46901 0.87227 -0.01204 0.0
H191 H 0.49389 0.83093 0.94868 0.0
C192 C 0.69398 0.40037 0.91873 0.0
C193 C 0.73372 0.42701 0.93467 0.0
C194 C 0.73685 0.35692 0.91786 0.0
C195 C 0.82184 0.33811 0.93504 0.0
C196 C 0.86158 0.36495 0.952 0.0
C197 C 0.81836 0.40832 0.9508 0.0
C198 C 0.69095 0.33103 0.89779 0.0
C199 C 0.95005 0.34779 0.97239 0.0
C200 C 0.90123 0.22357 0.96946 0.0
C201 C 0.95588 0.20198 0.937 0.0
C202 C 0.85953 0.26704 0.9697 0.0
C203 C 0.86839 0.2909 0.93565 0.0
C204 C 0.92229 0.26909 0.9023 0.0
C205 C 0.96603 0.22572 0.90384 0.0
C206 C 0.80655 0.28758 0.00715 0.0
C207 C 0.93285 0.29161 0.86421 0.0
H208 H 0.62918 0.4136 0.90588 0.0
H209 H 0.8507 0.42777 0.96369 0.0
H210 H 0.72905 0.31014 0.87273 0.0
H211 H 0.682 0.31184 0.92293 0.0
H212 H 0.62824 0.34971 0.8826 0.0
H213 H 0.97087 0.37198 -0.01325 0.0
H214 H 0.95406 0.32615 -0.00178 0.0
H215 H 0.99445 0.33047 0.9477 0.0
H216 H 0.89229 0.2064 -0.00441 0.0
H217 H 1.00691 0.21018 0.87817 0.0
H218 H 0.7397 0.3026 -0.00463 0.0
H219 H 0.82714 0.31172 0.02181 0.0
H220 H 0.81046 0.26574 0.03277 0.0
H221 H 0.8702 0.31009 0.84886 0.0
H222 H 0.97127 0.27061 0.83928 0.0
H223 H 0.96373 0.31298 0.87546 0.0
C224 C 0.17009 0.33048 0.46626 0.0
C225 C 0.14517 0.3064 0.49261 0.0
C226 C 0.22903 0.34694 0.48205 0.0
C227 C 0.26277 0.33952 0.52549 0.0
C228 C 0.23102 0.31899 0.55358 0.0
C229 C 0.17284 0.30228 0.53665 0.0
C230 C 0.26039 0.36919 0.45104 0.0
C231 C 0.26275 0.31176 0.60051 0.0
C232 C 0.48811 0.32982 0.52871 0.0
C233 C 0.47844 0.37081 0.53448 0.0
C234 C 0.41899 0.31819 0.52975 0.0
C235 C 0.33922 0.34807 0.53847 0.0
C236 C 0.33191 0.38804 0.55094 0.0
C237 C 0.40137 0.39929 0.54798 0.0
C238 C 0.42967 0.27491 0.51701 0.0
C239 C 0.24897 0.41957 0.56385 0.0
H240 H 0.14698 0.33451 0.43249 0.0
H241 H 0.15347 0.28377 0.55726 0.0
H242 H 0.25798 0.39881 0.46541 0.0
H243 H 0.32712 0.35074 0.4448 0.0
H244 H 0.22298 0.37505 0.41945 0.0
H245 H 0.21309 0.31007 0.62065 0.0
H246 H 0.31688 0.28215 0.60308 0.0
H247 H 0.28403 0.336 0.6141 0.0
H248 H 0.54841 0.30731 0.52017 0.0
H249 H 0.39302 0.43101 0.5531 0.0
H250 H 0.39657 0.27467 0.48483 0.0
H251 H 0.40115 0.26211 0.54072 0.0
H252 H 0.49695 0.25464 0.51497 0.0
H253 H 0.20342 0.42774 0.5352 0.0
H254 H 0.25595 0.44774 0.57752 0.0
H255 H 0.22157 0.40691 0.5883 0.0
C256 C 0.9952 0.83758 0.53938 0.0
C257 C 0.97055 0.87972 0.53426 0.0
C258 C 0.93503 0.81977 0.53982 0.0
C259 C 0.84846 0.84492 0.53583 0.0
C260 C 0.8234 0.8878 0.53633 0.0
C261 C 0.88481 0.90477 0.53502 0.0
C262 C 0.96428 0.77384 0.53986 0.0
C263 C 0.73174 0.91579 0.53353 0.0
C264 C 0.7164 0.80012 0.46432 0.0
C265 C 0.67809 0.78594 0.49494 0.0
C266 C 0.77045 0.82022 0.47743 0.0
C267 C 0.78623 0.82639 0.52229 0.0
C268 C 0.74525 0.81356 0.55339 0.0
C269 C 0.69181 0.79318 0.53931 0.0
C270 C 0.81279 0.83367 0.44322 0.0
C271 C 0.75908 0.82071 0.60136 0.0
H272 H 1.06151 0.8182 0.54015 0.0
H273 H 0.86477 0.93742 0.53112 0.0
H274 H 0.92701 0.76397 0.56154 0.0
H275 H 0.95474 0.76264 0.50655 0.0
H276 H 1.0321 0.75919 0.55033 0.0
H277 H 0.70964 0.9212 0.49885 0.0
H278 H 0.69158 0.90251 0.54882 0.0
H279 H 0.72294 0.9457 0.5495 0.0
H280 H 0.70678 0.79403 0.43006 0.0
H281 H 0.66146 0.78247 0.56295 0.0
H282 H 0.88221 0.81809 0.44785 0.0
H283 H 0.79777 0.86697 0.44642 0.0
H284 H 0.79292 0.82686 0.40973 0.0
H285 H 0.82588 0.80351 0.61197 0.0
H286 H 0.7184 0.81111 0.62113 0.0
H287 H 0.74608 0.8535 0.60806 0.0
C288 C 0.44938 0.06838 0.16653 0.0
C289 C 0.47223 1.04434 0.12868 0.0
C290 C 0.5111 1.0656 0.20019 0.0
C291 C 0.59651 1.04267 0.19254 0.0
C292 C 0.611 1.00914 0.16284 0.0
C293 C 0.55021 1.01189 0.12926 0.0
C294 C 0.48664 0.08956 0.2418 0.0
C295 C 0.69114 0.97179 0.16391 0.0
C296 C 0.67341 0.09983 0.12874 0.0
C297 C 0.75053 0.06791 0.12273 0.0
C298 C 0.6275 0.10034 0.1645 0.0
C299 C 0.65508 1.06547 0.19138 0.0
C300 C 0.7427 1.04242 0.19371 0.0
C301 C 0.78915 1.04183 0.15768 0.0
C302 C 0.5497 0.13762 0.172 0.0
C303 C 0.78487 1.01621 0.2322 0.0
H304 H 0.38584 0.0907 0.1687 0.0
H305 H 0.56621 0.99026 0.10228 0.0
H306 H 0.54202 0.09205 0.26077 0.0
H307 H 0.43812 0.12036 0.23526 0.0
H308 H 0.45789 0.07362 0.26193 0.0
H309 H 0.73853 0.97664 0.14466 0.0
H310 H 0.71658 0.96407 0.19773 0.0
H311 H 0.67974 0.94503 0.1491 0.0
H312 H 0.64773 0.12368 0.10489 0.0
H313 H 0.85238 1.01925 0.15576 0.0
H314 H 0.54042 0.14328 0.20716 0.0
H315 H 0.49368 0.13403 0.1552 0.0
H316 H 0.55483 0.16514 0.15853 0.0
H317 H 0.82089 1.03142 0.25244 0.0
H318 H 0.83085 0.98617 0.22166 0.0
H319 H 0.7384 1.01197 0.25279 0.0
C320 C 0.43416 1.03927 0.42895 0.0
C321 C 0.36248 0.07446 0.43932 0.0
C322 C 0.51927 1.03864 0.42739 0.0
C323 C 0.54058 0.07377 0.43829 0.0
C324 C 0.4683 0.10938 0.44956 0.0
C325 C 0.38306 0.10944 0.44905 0.0
C326 C 0.58588 0.99919 0.413 0.0
C327 C 0.47926 0.14855 0.46304 0.0
C328 C 0.7898 1.04906 0.46579 0.0
C329 C 0.81388 0.07203 0.43634 0.0
C330 C 0.70428 1.05007 0.46747 0.0
C331 C 0.63555 0.07325 0.43769 0.0
C332 C 0.66057 0.09555 0.407 0.0
C333 C 0.74562 0.09548 0.40752 0.0
C334 C 0.68907 1.02553 0.50218 0.0
C335 C 0.59805 0.11977 0.37208 0.0
H336 H 0.42378 1.01138 0.42092 0.0
H337 H 0.33205 0.13749 0.45742 0.0
H338 H 0.64246 1.0032 0.4022 0.0
H339 H 0.60503 0.97758 0.44032 0.0
H340 H 0.55997 0.9849 0.38593 0.0
H341 H 0.43615 0.16464 0.48885 0.0
H342 H 0.54475 0.14356 0.4751 0.0
H343 H 0.46214 0.16901 0.43477 0.0
H344 H 0.83814 1.0305 0.48892 0.0
H345 H 0.75894 0.11368 0.38392 0.0
H346 H 0.70534 0.99378 0.48995 0.0
H347 H 0.62255 1.03775 0.51117 0.0
H348 H 0.73038 1.0245 0.53185 0.0
H349 H 0.54537 0.10909 0.36517 0.0
H350 H 0.62954 0.11808 0.34144 0.0
H351 H 0.57189 0.15231 0.38247 0.0
C352 C 0.95838 0.55965 0.1653 0.0
C353 C 0.98064 0.53717 0.12645 0.0
C354 C 1.02059 0.55566 0.19902 0.0
C355 C 0.10587 0.53322 0.19066 0.0
C356 C 0.11999 0.5009 0.15941 0.0
C357 C 1.0587 0.50487 0.12576 0.0
C358 C 0.99675 0.57792 0.2416 0.0
C359 C 0.20017 0.46361 0.15905 0.0
C360 C 0.18078 0.59313 0.12998 0.0
C361 C 0.25766 0.56151 0.12264 0.0
C362 C 0.13595 0.59221 0.16569 0.0
C363 C 0.1642 0.55628 0.19095 0.0
C364 C 0.25184 0.53331 0.19239 0.0
C365 C 0.29729 0.53418 0.15645 0.0
C366 C 1.05841 0.62911 0.17478 0.0
C367 C 0.29501 0.50568 0.22972 0.0
H368 H 0.89483 0.58173 0.1683 0.0
H369 H 1.07429 0.48433 0.09785 0.0
H370 H 1.05237 0.57976 0.26093 0.0
H371 H 0.9481 0.60893 0.23635 0.0
H372 H 0.96838 0.56109 0.26075 0.0
H373 H 0.24708 0.46928 0.14018 0.0
H374 H 0.2263 0.45467 0.19254 0.0
H375 H 0.18853 0.43735 0.14306 0.0
H376 H 0.1544 0.61786 0.10716 0.0
H377 H 0.36046 0.51177 0.15362 0.0
H378 H 1.04991 0.6333 0.21011 0.0
H379 H 1.00204 0.62614 0.15764 0.0
H380 H 1.06328 0.65721 0.1627 0.0
H381 H 0.33153 0.5202 0.25061 0.0
H382 H 0.34069 0.47608 0.21793 0.0
H383 H 0.24914 0.50057 0.25004 0.0
C384 C 0.2617 0.58157 0.40758 0.0
C385 C 0.33058 0.5576 0.43574 0.0
C386 C 0.17683 0.58141 0.40712 0.0
C387 C 0.15264 0.55826 0.43723 0.0
C388 C 0.22216 0.53442 0.46627 0.0
C389 C 0.30738 0.53376 0.46453 0.0
C390 C 0.11364 0.6063 0.37281 0.0
C391 C 0.20858 0.50885 0.50044 0.0
C392 C 0.90031 0.59428 0.44901 0.0
C393 C 0.87964 0.55938 0.43895 0.0
C394 C 0.98553 0.59421 0.44955 0.0
C395 C 1.05773 0.5587 0.43795 0.0
C396 C 1.03638 0.52361 0.42685 0.0
C397 C 0.95125 0.52423 0.42836 0.0
C398 C 0.99652 0.63325 0.46357 0.0
C399 C 0.1032 0.48416 0.41262 0.0
H400 H 0.27434 0.60041 0.38445 0.0
H401 H 0.35624 0.51473 0.48712 0.0
H402 H 1.06063 0.59585 0.36588 0.0
H403 H 1.08809 0.63868 0.38379 0.0
H404 H 0.14446 0.60503 0.34205 0.0
H405 H 0.2452 0.51051 0.53111 0.0
H406 H 0.1414 0.51815 0.50749 0.0
H407 H 0.23279 0.47654 0.48919 0.0
H408 H 0.84937 0.62225 0.45765 0.0
H409 H 0.94081 0.49638 0.42019 0.0
H410 H 0.97797 0.65429 0.43575 0.0
H411 H 1.06228 0.62828 0.47509 0.0
H412 H 0.95437 0.6487 0.48996 0.0
H413 H 0.15827 0.48854 0.40031 0.0
H414 H 1.07688 0.4688 0.38677 0.0
H415 H 0.12489 0.46331 0.44059 0.0
C416 C 0.17387 1.06079 0.28503 0.0
C417 C 0.10433 1.06213 0.30731 0.0
C418 C 0.17006 1.06277 0.23929 0.0
C419 C 0.09584 1.06448 0.21457 0.0
C420 C 1.02493 1.06641 0.23707 0.0
C421 C 1.02967 1.06576 0.28301 0.0
C422 C 0.24608 1.06263 0.21739 0.0
C423 C 0.94547 1.06652 0.21289 0.0
C424 C 1.06567 0.096 0.09479 0.0
C425 C 0.10237 1.05834 0.07318 0.0
C426 C 1.06282 0.09854 0.14056 0.0
C427 C 0.09437 1.06245 0.16546 0.0
C428 C 0.12764 1.02426 0.14334 0.0
C429 C 0.13302 1.02275 0.09782 0.0
C430 C 1.02801 0.13994 0.16243 0.0
C431 C 0.15793 0.98484 0.16782 0.0
H432 H 0.23168 1.05827 0.30352 0.0
H433 H 0.97593 1.06628 0.29982 0.0
H434 H 0.27389 1.03386 0.19845 0.0
H435 H 0.22718 0.08812 0.19423 0.0
H436 H 0.29547 1.0655 0.24108 0.0
H437 H 0.89025 0.07955 0.23316 0.0
H438 H 0.93161 0.08381 0.18234 0.0
H439 H 0.95398 1.03453 0.2043 0.0
H440 H 1.04222 0.12368 0.07606 0.0
H441 H 0.16081 0.99351 0.08133 0.0
H442 H 1.07686 0.14396 0.18563 0.0
H443 H 0.9738 0.14231 0.18138 0.0
H444 H 1.00701 0.16513 0.13878 0.0
H445 H 0.21383 0.98245 0.18954 0.0
H446 H 0.17521 0.95771 0.14572 0.0
H447 H 0.10811 0.98438 0.18857 0.0
C448 C 1.02634 0.11003 0.781 0.0
C449 C 1.06813 0.07431 0.80472 0.0
C450 C 1.03265 0.1109 0.73571 0.0
C451 C 1.07915 0.07469 0.71268 0.0
C452 C 0.12162 1.03843 0.73659 0.0
C453 C 0.11695 1.03886 0.78228 0.0
C454 C 0.9886 0.15067 0.71241 0.0
C455 C 0.16933 0.99874 0.71369 0.0
C456 C 1.009 0.07424 0.59173 0.0
C457 C 1.07292 0.08091 0.57121 0.0
C458 C 1.01249 0.07017 0.63722 0.0
C459 C 1.07977 0.07468 0.6636 0.0
C460 C 0.14487 0.08125 0.64289 0.0
C461 C 0.14152 0.08345 0.59702 0.0
C462 C 0.9432 1.06157 0.65709 0.0
C463 C 0.2163 0.08774 0.66929 0.0
H464 H 0.98873 0.13759 0.79806 0.0
H465 H 0.14869 1.01099 0.80021 0.0
H466 H 1.03308 0.15691 0.69212 0.0
H467 H 0.9364 0.14864 0.69036 0.0
H468 H 0.96221 0.17681 0.73528 0.0
H469 H 0.2001 0.97337 0.73671 0.0
H470 H 0.12549 0.99041 0.69067 0.0
H471 H 0.21825 1.0021 0.69435 0.0
H472 H 0.95598 0.07202 0.57201 0.0
H473 H 0.19071 0.08906 0.58149 0.0
H474 H 0.90489 0.08852 0.67632 0.0
H475 H 0.97053 1.03561 0.67961 0.0
H476 H 0.9008 1.05432 0.63211 0.0
H477 H 0.19081 0.11545 0.69016 0.0
H478 H 0.26316 0.09141 0.64854 0.0
H479 H 0.24895 1.06168 0.69112 0.0
C480 C 0.68601 0.54946 0.28391 0.0
C481 C 0.61725 0.55032 0.30654 0.0
C482 C 0.68025 0.55309 0.23831 0.0
C483 C 0.60479 0.55603 0.21405 0.0
C484 C 0.53478 0.55733 0.23691 0.0
C485 C 0.54148 0.55504 0.28276 0.0
C486 C 0.75551 0.55343 0.21604 0.0
C487 C 0.45417 0.55855 0.21308 0.0
C488 C 0.57062 0.59196 0.09576 0.0
C489 C 0.60575 0.55504 0.07264 0.0
C490 C 0.56941 0.59284 0.14159 0.0
C491 C 0.60109 0.55582 0.16495 0.0
C492 C 0.63255 0.51842 0.14126 0.0
C493 C 0.63629 0.51855 0.09575 0.0
C494 C 0.53651 0.63345 0.16518 0.0
C495 C 0.66294 0.47812 0.16407 0.0
H496 H 0.74464 0.54612 0.30203 0.0
H497 H 0.4883 0.55523 0.29984 0.0
H498 H 0.78177 0.52537 0.1958 0.0
H499 H 0.73618 0.5798 0.19403 0.0
H500 H 0.80621 0.55512 0.23956 0.0
H501 H 0.4002 0.57004 0.23431 0.0
H502 H 0.43847 0.57776 0.18385 0.0
H503 H 0.46249 0.52707 0.20222 0.0
H504 H 0.54738 0.62032 0.07819 0.0
H505 H 0.66295 0.48988 0.07806 0.0
H506 H 0.5868 0.63647 0.18807 0.0
H507 H 0.48335 0.6353 0.1847 0.0
H508 H 0.51464 0.6595 0.1426 0.0
H509 H 0.71997 0.47463 0.18534 0.0
H510 H 0.67847 0.45182 0.14087 0.0
H511 H 0.61392 0.47716 0.18509 0.0
C512 C 0.52615 0.55978 0.59161 0.0
C513 C 0.58879 0.56748 0.57103 0.0
C514 C 0.52781 0.55771 0.63725 0.0
C515 C 0.59171 0.56535 0.66361 0.0
C516 C 0.6557 0.57284 0.64284 0.0
C517 C 0.65434 0.57306 0.5969 0.0
C518 C 0.45996 0.54806 0.65728 0.0
C519 C 0.72351 0.58251 0.66916 0.0
C520 C 0.52935 0.60539 0.77875 0.0
C521 C 0.57303 0.57121 0.80448 0.0
C522 C 0.53769 0.60432 0.73347 0.0
C523 C 0.58848 0.56764 0.71259 0.0
C524 C 0.63283 0.53295 0.73853 0.0
C525 C 0.62583 0.53537 0.7841 0.0
C526 C 0.49124 0.64253 0.70789 0.0
C527 C 0.68525 0.49278 0.71795 0.0
H528 H 0.47537 0.55538 0.57182 0.0
H529 H 0.7023 0.57961 0.58127 0.0
H530 H 0.48851 0.52348 0.68135 0.0
H531 H 0.41823 0.57538 0.67481 0.0
H532 H 0.42071 0.53834 0.63255 0.0
H533 H 0.77034 0.58624 0.64845 0.0
H534 H 0.69432 0.61113 0.68819 0.0
H535 H 0.75696 0.55801 0.6927 0.0
H536 H 0.48871 0.63325 0.7942 0.0
H537 H 0.65918 0.50867 0.80359 0.0
H538 H 0.44172 0.63803 0.68564 0.0
H539 H 0.53522 0.64915 0.68758 0.0
H540 H 0.46098 0.66946 0.72921 0.0
H541 H 0.64451 0.48215 0.69515 0.0
H542 H 0.71696 0.46882 0.7424 0.0
H543 H 0.73388 0.49656 0.69872 0.0
loop_
_geom_bond_atom_site_label_1
_geom_bond_atom_site_label_2
_geom_bond_distance
_geom_bond_site_symmetry_2
_ccdc_geom_bond_type
Sm0 C2 2.846 1_565 S
Sm0 O20 2.543 1_566 S
Sm0 O21 2.450 . S
Sm0 O22 2.681 1_655 S
Sm0 O23 2.464 . S
Sm0 O24 2.396 1_565 S
Sm0 O28 2.386 1_566 S
Sm0 O31 2.408 1_655 S
Sm1 C11 2.846 1_545 S
Sm1 O22 2.386 1_544 S
Sm1 O25 2.408 1_455 S
Sm1 O26 2.543 1_544 S
Sm1 O27 2.450 . S
Sm1 O28 2.681 1_455 S
Sm1 O29 2.464 . S
Sm1 O30 2.396 1_545 S
C2 Sm0 2.846 1_545 S
C2 C3 1.506 . S
C2 O20 1.263 1_556 S
C2 O21 1.239 1_545 S
C3 C2 1.506 . S
C3 C4 1.358 1_556 S
C3 C8 1.382 . S
C4 C3 1.358 1_554 S
C4 C5 1.385 . S
C4 H32 0.930 . S
C5 C4 1.385 . S
C5 C6 1.395 1_554 S
C5 H33 0.929 . S
C6 C5 1.395 1_556 S
C6 C7 1.335 . S
C7 C6 1.335 . S
C7 C8 1.398 . S
C7 H34 0.930 . S
C8 C3 1.382 . S
C8 C7 1.398 . S
C8 H35 0.929 1_545 S
C9 O22 1.271 1_655 S
C9 O23 1.251 . S
C10 O24 1.252 . S
C10 O25 1.272 1_556 S
C11 Sm1 2.846 1_565 S
C11 C12 1.505 . S
C11 O26 1.261 1_554 S
C11 O27 1.243 1_565 S
C12 C11 1.505 . S
C12 C13 1.358 1_554 S
C12 C17 1.382 . S
C13 C12 1.358 1_556 S
C13 C14 1.385 . S
C13 H36 0.930 . S
C14 C13 1.385 . S
C14 C15 1.395 1_556 S
C14 H37 0.929 . S
C15 C14 1.395 1_554 S
C15 C16 1.335 . S
C16 C15 1.335 . S
C16 C17 1.398 . S
C16 H38 0.930 . S
C17 C12 1.382 . S
C17 C16 1.398 . S
C17 H39 0.929 1_565 S
C18 O28 1.271 1_455 S
C18 O29 1.251 . S
C19 O30 1.252 . S
C19 O31 1.272 1_554 S
O20 Sm0 2.543 1_544 S
O20 C2 1.263 1_554 S
O21 Sm0 2.450 . S
O21 C2 1.239 1_565 S
O22 Sm0 2.681 1_455 S
O22 Sm1 2.386 1_566 S
O22 C9 1.271 1_455 S
O23 Sm0 2.464 . S
O23 C9 1.251 . S
O24 Sm0 2.396 1_545 S
O24 C10 1.252 . S
O25 Sm1 2.408 1_655 S
O25 C10 1.272 1_554 S
O26 Sm1 2.543 1_566 S
O26 C11 1.261 1_556 S
O27 Sm1 2.450 . S
O27 C11 1.243 1_545 S
O28 Sm0 2.386 1_544 S
O28 Sm1 2.681 1_655 S
O28 C18 1.271 1_655 S
O29 Sm1 2.464 . S
O29 C18 1.251 . S
O30 Sm1 2.396 1_565 S
O30 C19 1.252 . S
O31 Sm0 2.408 1_455 S
O31 C19 1.272 1_556 S
H32 C4 0.930 . S
H33 C5 0.929 . S
H34 C7 0.930 . S
H35 C8 0.929 1_565 S
H36 C13 0.930 . S
H37 C14 0.929 . S
H38 C16 0.930 . S
H39 C17 0.929 1_545 S
Sm40 C42 2.846 1_455 S
Sm40 O60 2.543 1_455 S
Sm40 O61 2.450 1_455 S
Sm40 O62 2.681 1_565 S
Sm40 O63 2.464 . S
Sm40 O64 2.396 1_455 S
Sm40 O68 2.386 1_455 S
Sm40 O71 2.408 . S
Sm41 C51 2.846 1_655 S
Sm41 O62 2.386 1_655 S
Sm41 O65 2.408 . S
Sm41 O66 2.543 1_655 S
Sm41 O67 2.450 1_655 S
Sm41 O68 2.681 1_545 S
Sm41 O69 2.464 . S
Sm41 O70 2.396 1_655 S
C42 Sm40 2.846 1_655 S
C42 C43 1.506 . S
C42 O60 1.261 . S
C42 O61 1.242 . S
C43 C42 1.506 . S
C43 C44 1.358 . S
C43 C48 1.382 . S
C44 C43 1.358 . S
C44 C45 1.385 . S
C44 H72 0.930 . S
C45 C44 1.385 . S
C45 C46 1.395 . S
C45 H73 0.929 . S
C46 C45 1.395 . S
C46 C47 1.335 . S
C47 C46 1.335 . S
C47 C48 1.398 . S
C47 H74 0.930 . S
C48 C43 1.382 . S
C48 C47 1.398 . S
C48 H75 0.929 . S
C49 O62 1.271 1_565 S
C49 O63 1.251 . S
C50 O64 1.252 1_545 S
C50 O65 1.272 . S
C51 Sm41 2.846 1_455 S
C51 C52 1.506 . S
C51 O66 1.261 . S
C51 O67 1.242 . S
C52 C51 1.506 . S
C52 C53 1.358 . S
C52 C57 1.382 . S
C53 C52 1.358 . S
C53 C54 1.385 . S
C53 H76 0.930 . S
C54 C53 1.385 . S
C54 C55 1.395 . S
C54 H77 0.929 . S
C55 C54 1.395 . S
C55 C56 1.335 . S
C56 C55 1.335 . S
C56 C57 1.398 . S
C56 H78 0.930 . S
C57 C52 1.382 . S
C57 C56 1.398 . S
C57 H79 0.929 . S
C58 O68 1.271 1_545 S
C58 O69 1.251 . S
C59 O70 1.252 1_565 S
C59 O71 1.272 . S
O60 Sm40 2.543 1_655 S
O60 C42 1.261 . S
O61 Sm40 2.450 1_655 S
O61 C42 1.242 . S
O62 Sm40 2.681 1_545 S
O62 Sm41 2.386 1_455 S
O62 C49 1.271 1_545 S
O63 Sm40 2.464 . S
O63 C49 1.251 . S
O64 Sm40 2.396 1_655 S
O64 C50 1.252 1_565 S
O65 Sm41 2.408 . S
O65 C50 1.272 . S
O66 Sm41 2.543 1_455 S
O66 C51 1.261 . S
O67 Sm41 2.450 1_455 S
O67 C51 1.242 . S
O68 Sm40 2.386 1_655 S
O68 Sm41 2.681 1_565 S
O68 C58 1.271 1_565 S
O69 Sm41 2.464 . S
O69 C58 1.251 . S
O70 Sm41 2.396 1_455 S
O70 C59 1.252 1_545 S
O71 Sm40 2.408 . S
O71 C59 1.272 . S
H72 C44 0.930 . S
H73 C45 0.929 . S
H74 C47 0.930 . S
H75 C48 0.929 . S
H76 C53 0.930 . S
H77 C54 0.929 . S
H78 C56 0.930 . S
H79 C57 0.929 . S
Sm80 C82 2.846 . S
Sm80 O100 2.543 1_556 S
Sm80 O101 2.450 . S
Sm80 O102 2.681 . S
Sm80 O103 2.464 . S
Sm80 O104 2.396 . S
Sm80 O108 2.386 1_556 S
Sm80 O111 2.408 . S
Sm81 C91 2.846 . S
Sm81 O102 2.386 1_554 S
Sm81 O105 2.408 . S
Sm81 O106 2.543 1_554 S
Sm81 O107 2.450 . S
Sm81 O108 2.681 . S
Sm81 O109 2.464 . S
Sm81 O110 2.396 . S
C82 Sm80 2.846 . S
C82 C83 1.506 . S
C82 O100 1.261 1_556 S
C82 O101 1.242 . S
C83 C82 1.506 . S
C83 C84 1.358 1_556 S
C83 C88 1.382 . S
C84 C83 1.358 1_554 S
C84 C85 1.385 . S
C84 H112 0.930 . S
C85 C84 1.385 . S
C85 C86 1.395 1_554 S
C85 H113 0.929 . S
C86 C85 1.395 1_556 S
C86 C87 1.335 . S
C87 C86 1.335 . S
C87 C88 1.398 . S
C87 H114 0.930 . S
C88 C83 1.382 . S
C88 C87 1.398 . S
C88 H115 0.929 . S
C89 O102 1.271 . S
C89 O103 1.251 . S
C90 O104 1.252 . S
C90 O105 1.272 1_556 S
C91 Sm81 2.846 . S
C91 C92 1.506 . S
C91 O106 1.261 1_554 S
C91 O107 1.242 . S
C92 C91 1.506 . S
C92 C93 1.358 1_554 S
C92 C97 1.382 . S
C93 C92 1.358 1_556 S
C93 C94 1.385 . S
C93 H116 0.930 . S
C94 C93 1.385 . S
C94 C95 1.395 1_556 S
C94 H117 0.929 . S
C95 C94 1.395 1_554 S
C95 C96 1.335 . S
C96 C95 1.335 . S
C96 C97 1.398 . S
C96 H118 0.930 . S
C97 C92 1.382 . S
C97 C96 1.398 . S
C97 H119 0.929 . S
C98 O108 1.271 . S
C98 O109 1.251 . S
C99 O110 1.252 . S
C99 O111 1.272 1_554 S
O100 Sm80 2.543 1_554 S
O100 C82 1.261 1_554 S
O101 Sm80 2.450 . S
O101 C82 1.242 . S
O102 Sm80 2.681 . S
O102 Sm81 2.386 1_556 S
O102 C89 1.271 . S
O103 Sm80 2.464 . S
O103 C89 1.251 . S
O104 Sm80 2.396 . S
O104 C90 1.252 . S
O105 Sm81 2.408 . S
O105 C90 1.272 1_554 S
O106 Sm81 2.543 1_556 S
O106 C91 1.261 1_556 S
O107 Sm81 2.450 . S
O107 C91 1.242 . S
O108 Sm80 2.386 1_554 S
O108 Sm81 2.681 . S
O108 C98 1.271 . S
O109 Sm81 2.464 . S
O109 C98 1.251 . S
O110 Sm81 2.396 . S
O110 C99 1.252 . S
O111 Sm80 2.408 . S
O111 C99 1.272 1_556 S
H112 C84 0.930 . S
H113 C85 0.929 . S
H114 C87 0.930 . S
H115 C88 0.929 . S
H116 C93 0.930 . S
H117 C94 0.929 . S
H118 C96 0.930 . S
H119 C97 0.929 . S
Sm120 C122 2.846 . S
Sm120 O140 2.543 . S
Sm120 O141 2.450 . S
Sm120 O142 2.681 . S
Sm120 O143 2.464 . S
Sm120 O144 2.396 . S
Sm120 O148 2.386 . S
Sm120 O151 2.408 . S
Sm121 C131 2.846 . S
Sm121 O142 2.386 . S
Sm121 O145 2.408 . S
Sm121 O146 2.543 . S
Sm121 O147 2.450 . S
Sm121 O148 2.681 . S
Sm121 O149 2.464 . S
Sm121 O150 2.396 . S
C122 Sm120 2.846 . S
C122 C123 1.506 . S
C122 O140 1.261 . S
C122 O141 1.242 . S
C123 C122 1.506 . S
C123 C124 1.358 . S
C123 C128 1.382 . S
C124 C123 1.358 . S
C124 C125 1.385 . S
C124 H152 0.930 . S
C125 C124 1.385 . S
C125 C126 1.395 . S
C125 H153 0.929 . S
C126 C125 1.395 . S
C126 C127 1.335 . S
C127 C126 1.335 . S
C127 C128 1.398 . S
C127 H154 0.930 . S
C128 C123 1.382 . S
C128 C127 1.398 . S
C128 H155 0.929 . S
C129 O142 1.271 . S
C129 O143 1.251 . S
C130 O144 1.252 . S
C130 O145 1.272 . S
C131 Sm121 2.846 . S
C131 C132 1.506 . S
C131 O146 1.261 . S
C131 O147 1.242 . S
C132 C131 1.506 . S
C132 C133 1.358 . S
C132 C137 1.382 . S
C133 C132 1.358 . S
C133 C134 1.385 . S
C133 H156 0.930 . S
C134 C133 1.385 . S
C134 C135 1.395 . S
C134 H157 0.929 . S
C135 C134 1.395 . S
C135 C136 1.335 . S
C136 C135 1.335 . S
C136 C137 1.398 . S
C136 H158 0.930 . S
C137 C132 1.382 . S
C137 C136 1.398 . S
C137 H159 0.929 . S
C138 O148 1.271 . S
C138 O149 1.251 . S
C139 O150 1.252 . S
C139 O151 1.272 . S
O140 Sm120 2.543 . S
O140 C122 1.261 . S
O141 Sm120 2.450 . S
O141 C122 1.242 . S
O142 Sm120 2.681 . S
O142 Sm121 2.386 . S
O142 C129 1.271 . S
O143 Sm120 2.464 . S
O143 C129 1.251 . S
O144 Sm120 2.396 . S
O144 C130 1.252 . S
O145 Sm121 2.408 . S
O145 C130 1.272 . S
O146 Sm121 2.543 . S
O146 C131 1.261 . S
O147 Sm121 2.450 . S
O147 C131 1.242 . S
O148 Sm120 2.386 . S
O148 Sm121 2.681 . S
O148 C138 1.271 . S
O149 Sm121 2.464 . S
O149 C138 1.251 . S
O150 Sm121 2.396 . S
O150 C139 1.252 . S
O151 Sm120 2.408 . S
O151 C139 1.272 . S
H152 C124 0.930 . S
H153 C125 0.929 . S
H154 C127 0.930 . S
H155 C128 0.929 . S
H156 C133 0.930 . S
H157 C134 0.929 . S
H158 C136 0.930 . S
H159 C137 0.929 . S
C160 C161 1.391 . S
C160 C162 1.394 . S
C160 H176 0.931 . S
C161 C160 1.391 . S
C161 C165 1.376 . S
C162 C160 1.394 . S
C162 C163 1.369 . S
C162 C166 1.531 . S
C163 C162 1.369 . S
C163 C164 1.410 . S
C163 C171 1.503 . S
C164 C163 1.410 . S
C164 C165 1.392 . S
C164 C167 1.515 . S
C165 C161 1.376 . S
C165 C164 1.392 . S
C165 H177 0.929 1_554 S
C166 C162 1.531 . S
C166 H178 0.960 . S
C166 H179 0.962 1_554 S
C166 H180 0.960 . S
C167 C164 1.515 . S
C167 H181 0.948 1_554 S
C167 H182 0.952 1_554 S
C167 H183 0.979 . S
C168 C169 1.360 1_556 S
C168 C170 1.363 . S
C168 H184 0.931 . S
C169 C168 1.360 1_554 S
C169 C173 1.419 . S
C170 C168 1.363 . S
C170 C171 1.370 1_556 S
C170 C174 1.524 . S
C171 C163 1.503 . S
C171 C170 1.370 1_554 S
C171 C172 1.403 . S
C172 C171 1.403 . S
C172 C173 1.404 . S
C172 C175 1.539 . S
C173 C169 1.419 . S
C173 C172 1.404 . S
C173 H185 0.930 . S
C174 C170 1.524 . S
C174 H186 0.956 . S
C174 H187 0.961 . S
C174 H188 0.961 . S
C175 C172 1.539 . S
C175 H189 0.958 . S
C175 H190 0.961 . S
C175 H191 0.960 . S
H176 C160 0.931 . S
H177 C165 0.929 1_556 S
H178 C166 0.960 . S
H179 C166 0.962 1_556 S
H180 C166 0.960 . S
H181 C167 0.948 1_556 S
H182 C167 0.952 1_556 S
H183 C167 0.979 . S
H184 C168 0.931 . S
H185 C173 0.930 . S
H186 C174 0.956 . S
H187 C174 0.961 . S
H188 C174 0.961 . S
H189 C175 0.958 . S
H190 C175 0.961 . S
H191 C175 0.960 . S
C192 C193 1.391 . S
C192 C194 1.394 . S
C192 H208 0.931 . S
C193 C192 1.391 . S
C193 C197 1.376 . S
C194 C192 1.394 . S
C194 C195 1.369 . S
C194 C198 1.531 . S
C195 C194 1.369 . S
C195 C196 1.410 . S
C195 C203 1.503 . S
C196 C195 1.410 . S
C196 C197 1.392 . S
C196 C199 1.511 . S
C197 C193 1.376 . S
C197 C196 1.392 . S
C197 H209 0.929 . S
C198 C194 1.531 . S
C198 H210 0.960 . S
C198 H211 0.962 1_556 S
C198 H212 0.960 . S
C199 C196 1.511 . S
C199 H213 0.961 1_556 S
C199 H214 0.961 1_556 S
C199 H215 0.961 . S
C200 C201 1.364 1_554 S
C200 C202 1.363 . S
C200 H216 0.931 . S
C201 C200 1.364 1_556 S
C201 C205 1.416 . S
C202 C200 1.363 . S
C202 C203 1.370 1_554 S
C202 C206 1.524 . S
C203 C195 1.503 . S
C203 C202 1.370 1_556 S
C203 C204 1.403 . S
C204 C203 1.403 . S
C204 C205 1.404 . S
C204 C207 1.539 . S
C205 C201 1.416 . S
C205 C204 1.404 . S
C205 H217 0.930 . S
C206 C202 1.524 . S
C206 H218 0.956 . S
C206 H219 0.961 . S
C206 H220 0.961 . S
C207 C204 1.539 . S
C207 H221 0.958 . S
C207 H222 0.961 . S
C207 H223 0.960 . S
H208 C192 0.931 . S
H209 C197 0.929 . S
H210 C198 0.960 . S
H211 C198 0.962 1_554 S
H212 C198 0.960 . S
H213 C199 0.961 1_554 S
H214 C199 0.961 1_554 S
H215 C199 0.961 . S
H216 C200 0.931 . S
H217 C205 0.930 . S
H218 C206 0.956 . S
H219 C206 0.961 . S
H220 C206 0.961 . S
H221 C207 0.958 . S
H222 C207 0.961 . S
H223 C207 0.960 . S
C224 C225 1.391 . S
C224 C226 1.394 . S
C224 H240 0.931 . S
C225 C224 1.391 . S
C225 C229 1.376 . S
C226 C224 1.394 . S
C226 C227 1.369 . S
C226 C230 1.531 . S
C227 C226 1.369 . S
C227 C228 1.410 . S
C227 C235 1.503 . S
C228 C227 1.410 . S
C228 C229 1.392 . S
C228 C231 1.511 . S
C229 C225 1.376 . S
C229 C228 1.392 . S
C229 H241 0.929 . S
C230 C226 1.531 . S
C230 H242 0.960 . S
C230 H243 0.962 . S
C230 H244 0.960 . S
C231 C228 1.511 . S
C231 H245 0.961 . S
C231 H246 0.961 . S
C231 H247 0.961 . S
C232 C233 1.370 . S
C232 C234 1.363 . S
C232 H248 0.931 . S
C233 C232 1.370 . S
C233 C237 1.408 . S
C234 C232 1.363 . S
C234 C235 1.370 . S
C234 C238 1.524 . S
C235 C227 1.503 . S
C235 C234 1.370 . S
C235 C236 1.403 . S
C236 C235 1.403 . S
C236 C237 1.404 . S
C236 C239 1.539 . S
C237 C233 1.408 . S
C237 C236 1.404 . S
C237 H249 0.930 . S
C238 C234 1.524 . S
C238 H250 0.956 . S
C238 H251 0.961 . S
C238 H252 0.961 . S
C239 C236 1.539 . S
C239 H253 0.958 . S
C239 H254 0.961 . S
C239 H255 0.960 . S
H240 C224 0.931 . S
H241 C229 0.929 . S
H242 C230 0.960 . S
H243 C230 0.962 . S
H244 C230 0.960 . S
H245 C231 0.961 . S
H246 C231 0.961 . S
H247 C231 0.961 . S
H248 C232 0.931 . S
H249 C237 0.930 . S
H250 C238 0.956 . S
H251 C238 0.961 . S
H252 C238 0.961 . S
H253 C239 0.958 . S
H254 C239 0.961 . S
H255 C239 0.960 . S
C256 C257 1.391 . S
C256 C258 1.394 . S
C256 H272 0.931 . S
C257 C256 1.391 . S
C257 C261 1.376 . S
C258 C256 1.394 . S
C258 C259 1.369 . S
C258 C262 1.531 . S
C259 C258 1.369 . S
C259 C260 1.410 . S
C259 C267 1.503 . S
C260 C259 1.410 . S
C260 C261 1.392 . S
C260 C263 1.511 . S
C261 C257 1.376 . S
C261 C260 1.392 . S
C261 H273 0.929 . S
C262 C258 1.531 . S
C262 H274 0.960 . S
C262 H275 0.962 . S
C262 H276 0.960 . S
C263 C260 1.511 . S
C263 H277 0.961 . S
C263 H278 0.961 . S
C263 H279 0.961 . S
C264 C265 1.370 . S
C264 C266 1.363 . S
C264 H280 0.931 . S
C265 C264 1.370 . S
C265 C269 1.408 . S
C266 C264 1.363 . S
C266 C267 1.370 . S
C266 C270 1.524 . S
C267 C259 1.503 . S
C267 C266 1.370 . S
C267 C268 1.403 . S
C268 C267 1.403 . S
C268 C269 1.404 . S
C268 C271 1.539 . S
C269 C265 1.408 . S
C269 C268 1.404 . S
C269 H281 0.930 . S
C270 C266 1.524 . S
C270 H282 0.956 . S
C270 H283 0.961 . S
C270 H284 0.961 . S
C271 C268 1.539 . S
C271 H285 0.958 . S
C271 H286 0.961 . S
C271 H287 0.960 . S
H272 C256 0.931 . S
H273 C261 0.929 . S
H274 C262 0.960 . S
H275 C262 0.962 . S
H276 C262 0.960 . S
H277 C263 0.961 . S
H278 C263 0.961 . S
H279 C263 0.961 . S
H280 C264 0.931 . S
H281 C269 0.930 . S
H282 C270 0.956 . S
H283 C270 0.961 . S
H284 C270 0.961 . S
H285 C271 0.958 . S
H286 C271 0.961 . S
H287 C271 0.960 . S
C288 C289 1.391 . S
C288 C290 1.394 . S
C288 H304 0.931 . S
C289 C288 1.391 . S
C289 C293 1.376 1_554 S
C290 C288 1.394 . S
C290 C291 1.369 . S
C290 C294 1.531 1_565 S
C291 C290 1.369 . S
C291 C292 1.410 1_554 S
C291 C299 1.503 1_565 S
C292 C291 1.410 1_556 S
C292 C293 1.392 . S
C292 C295 1.511 . S
C293 C289 1.376 1_556 S
C293 C292 1.392 . S
C293 H305 0.929 . S
C294 C290 1.531 1_545 S
C294 H306 0.960 . S
C294 H307 0.962 . S
C294 H308 0.960 . S
C295 C292 1.511 . S
C295 H309 0.961 . S
C295 H310 0.961 . S
C295 H311 0.961 1_556 S
C296 C297 1.369 . S
C296 C298 1.363 . S
C296 H312 0.931 . S
C297 C296 1.369 . S
C297 C301 1.410 1_556 S
C298 C296 1.363 . S
C298 C299 1.370 1_556 S
C298 C302 1.524 . S
C299 C291 1.503 1_545 S
C299 C298 1.370 1_554 S
C299 C300 1.403 . S
C300 C299 1.403 . S
C300 C301 1.404 . S
C300 C303 1.539 1_545 S
C301 C297 1.410 1_554 S
C301 C300 1.404 . S
C301 H313 0.930 . S
C302 C298 1.524 . S
C302 H314 0.956 . S
C302 H315 0.961 . S
C302 H316 0.961 . S
C303 C300 1.539 1_565 S
C303 H317 0.958 1_565 S
C303 H318 0.961 . S
C303 H319 0.960 . S
H304 C288 0.931 . S
H305 C293 0.929 . S
H306 C294 0.960 . S
H307 C294 0.962 . S
H308 C294 0.960 . S
H309 C295 0.961 . S
H310 C295 0.961 . S
H311 C295 0.961 1_554 S
H312 C296 0.931 . S
H313 C301 0.930 . S
H314 C302 0.956 . S
H315 C302 0.961 . S
H316 C302 0.961 . S
H317 C303 0.958 1_545 S
H318 C303 0.961 . S
H319 C303 0.960 . S
C320 C321 1.392 . S
C320 C322 1.394 . S
C320 H336 0.931 . S
C321 C320 1.392 . S
C321 C325 1.374 1_565 S
C322 C320 1.394 . S
C322 C323 1.369 1_565 S
C322 C326 1.531 . S
C323 C322 1.369 1_545 S
C323 C324 1.410 . S
C323 C331 1.503 . S
C324 C323 1.410 . S
C324 C325 1.392 . S
C324 C327 1.511 . S
C325 C321 1.374 1_545 S
C325 C324 1.392 . S
C325 H337 0.929 . S
C326 C322 1.531 . S
C326 H338 0.960 . S
C326 H339 0.962 . S
C326 H340 0.960 . S
C327 C324 1.511 . S
C327 H341 0.961 . S
C327 H342 0.961 . S
C327 H343 0.961 . S
C328 C329 1.370 1_565 S
C328 C330 1.363 . S
C328 H344 0.931 . S
C329 C328 1.370 1_545 S
C329 C333 1.408 . S
C330 C328 1.363 . S
C330 C331 1.370 1_565 S
C330 C334 1.524 . S
C331 C323 1.503 . S
C331 C330 1.370 1_545 S
C331 C332 1.403 . S
C332 C331 1.403 . S
C332 C333 1.404 . S
C332 C335 1.539 . S
C333 C329 1.408 . S
C333 C332 1.404 . S
C333 H345 0.930 . S
C334 C330 1.524 . S
C334 H346 0.956 . S
C334 H347 0.961 . S
C334 H348 0.961 . S
C335 C332 1.539 . S
C335 H349 0.958 . S
C335 H350 0.961 . S
C335 H351 0.960 . S
H336 C320 0.931 . S
H337 C325 0.929 . S
H338 C326 0.960 . S
H339 C326 0.962 . S
H340 C326 0.960 . S
H341 C327 0.961 . S
H342 C327 0.961 . S
H343 C327 0.961 . S
H344 C328 0.931 . S
H345 C333 0.930 . S
H346 C334 0.956 . S
H347 C334 0.961 . S
H348 C334 0.961 . S
H349 C335 0.958 . S
H350 C335 0.961 . S
H351 C335 0.960 . S
C352 C353 1.391 . S
C352 C354 1.394 . S
C352 H368 0.931 . S
C353 C352 1.391 . S
C353 C357 1.376 1_554 S
C354 C352 1.394 . S
C354 C355 1.369 . S
C354 C358 1.531 . S
C355 C354 1.369 . S
C355 C356 1.410 1_654 S
C355 C363 1.503 1_655 S
C356 C355 1.410 1_456 S
C356 C357 1.392 1_455 S
C356 C359 1.511 . S
C357 C353 1.376 1_556 S
C357 C356 1.392 1_655 S
C357 H369 0.929 . S
C358 C354 1.531 . S
C358 H370 0.960 . S
C358 H371 0.962 . S
C358 H372 0.960 . S
C359 C356 1.511 . S
C359 H373 0.961 . S
C359 H374 0.961 . S
C359 H375 0.961 . S
C360 C361 1.371 . S
C360 C362 1.363 . S
C360 H376 0.931 . S
C361 C360 1.371 . S
C361 C365 1.408 1_556 S
C362 C360 1.363 . S
C362 C363 1.370 1_556 S
C362 C366 1.524 1_455 S
C363 C355 1.503 1_455 S
C363 C362 1.370 1_554 S
C363 C364 1.403 . S
C364 C363 1.403 . S
C364 C365 1.404 . S
C364 C367 1.539 . S
C365 C361 1.408 1_554 S
C365 C364 1.404 . S
C365 H377 0.930 . S
C366 C362 1.524 1_655 S
C366 H378 0.956 . S
C366 H379 0.961 . S
C366 H380 0.961 . S
C367 C364 1.539 . S
C367 H381 0.958 . S
C367 H382 0.961 . S
C367 H383 0.960 . S
H368 C352 0.931 . S
H369 C357 0.929 . S
H370 C358 0.960 . S
H371 C358 0.962 . S
H372 C358 0.960 . S
H373 C359 0.961 . S
H374 C359 0.961 . S
H375 C359 0.961 . S
H376 C360 0.931 . S
H377 C365 0.930 . S
H378 C366 0.956 . S
H379 C366 0.961 . S
H380 C366 0.961 . S
H381 C367 0.958 . S
H382 C367 0.961 . S
H383 C367 0.960 . S
C384 C385 1.391 . S
C384 C386 1.394 . S
C384 H400 0.931 . S
C385 C384 1.391 . S
C385 C389 1.376 . S
C386 C384 1.394 . S
C386 C387 1.369 . S
C386 C390 1.531 1_455 S
C387 C386 1.369 . S
C387 C388 1.410 . S
C387 C395 1.503 1_455 S
C388 C387 1.410 . S
C388 C389 1.392 . S
C388 C391 1.511 . S
C389 C385 1.376 . S
C389 C388 1.392 . S
C389 H401 0.929 . S
C390 C386 1.531 1_655 S
C390 H402 0.960 . S
C390 H403 0.962 . S
C390 H404 0.960 1_655 S
C391 C388 1.511 . S
C391 H405 0.961 . S
C391 H406 0.961 . S
C391 H407 0.961 . S
C392 C393 1.370 . S
C392 C394 1.363 . S
C392 H408 0.931 . S
C393 C392 1.370 . S
C393 C397 1.408 . S
C394 C392 1.363 . S
C394 C395 1.370 . S
C394 C398 1.524 . S
C395 C387 1.503 1_655 S
C395 C394 1.370 . S
C395 C396 1.403 . S
C396 C395 1.403 . S
C396 C397 1.404 . S
C396 C399 1.539 . S
C397 C393 1.408 . S
C397 C396 1.404 . S
C397 H409 0.930 . S
C398 C394 1.524 . S
C398 H410 0.956 . S
C398 H411 0.961 1_655 S
C398 H412 0.961 . S
C399 C396 1.539 . S
C399 H413 0.958 . S
C399 H414 0.961 . S
C399 H415 0.960 1_655 S
H400 C384 0.931 . S
H401 C389 0.929 . S
H402 C390 0.960 . S
H403 C390 0.962 . S
H404 C390 0.960 1_455 S
H405 C391 0.961 . S
H406 C391 0.961 . S
H407 C391 0.961 . S
H408 C392 0.931 . S
H409 C397 0.930 . S
H410 C398 0.956 . S
H411 C398 0.961 1_455 S
H412 C398 0.961 . S
H413 C399 0.958 . S
H414 C399 0.961 . S
H415 C399 0.960 1_455 S
C416 C417 1.391 1_455 S
C416 C418 1.394 . S
C416 H432 0.931 . S
C417 C416 1.391 1_655 S
C417 C421 1.376 1_565 S
C418 C416 1.394 . S
C418 C419 1.369 1_455 S
C418 C422 1.531 . S
C419 C418 1.369 1_655 S
C419 C420 1.410 1_565 S
C419 C427 1.503 . S
C420 C419 1.410 1_545 S
C420 C421 1.392 . S
C420 C423 1.511 . S
C421 C417 1.376 1_545 S
C421 C420 1.392 . S
C421 H433 0.929 . S
C422 C418 1.531 . S
C422 H434 0.960 . S
C422 H435 0.962 . S
C422 H436 0.960 . S
C423 C420 1.511 . S
C423 H437 0.961 . S
C423 H438 0.961 . S
C423 H439 0.961 . S
C424 C425 1.387 1_455 S
C424 C426 1.363 . S
C424 H440 0.931 . S
C425 C424 1.387 1_655 S
C425 C429 1.388 1_545 S
C426 C424 1.363 . S
C426 C427 1.370 1_445 S
C426 C430 1.524 . S
C427 C419 1.503 . S
C427 C426 1.370 1_665 S
C427 C428 1.403 . S
C428 C427 1.403 . S
C428 C429 1.404 . S
C428 C431 1.539 . S
C429 C425 1.388 1_565 S
C429 C428 1.404 . S
C429 H441 0.930 . S
C430 C426 1.524 . S
C430 H442 0.956 . S
C430 H443 0.961 . S
C430 H444 0.961 . S
C431 C428 1.539 . S
C431 H445 0.958 . S
C431 H446 0.961 . S
C431 H447 0.960 . S
H432 C416 0.931 . S
H433 C421 0.929 . S
H434 C422 0.960 . S
H435 C422 0.962 . S
H436 C422 0.960 . S
H437 C423 0.961 . S
H438 C423 0.961 . S
H439 C423 0.961 . S
H440 C424 0.931 . S
H441 C429 0.930 . S
H442 C430 0.956 . S
H443 C430 0.961 . S
H444 C430 0.961 . S
H445 C431 0.958 . S
H446 C431 0.961 . S
H447 C431 0.960 . S
C448 C449 1.391 1_655 S
C448 C450 1.394 . S
C448 H464 0.931 . S
C449 C448 1.391 1_455 S
C449 C453 1.376 1_545 S
C450 C448 1.394 . S
C450 C451 1.369 1_655 S
C450 C454 1.531 . S
C451 C450 1.369 1_455 S
C451 C452 1.410 1_545 S
C451 C459 1.503 . S
C452 C451 1.410 1_565 S
C452 C453 1.392 . S
C452 C455 1.511 . S
C453 C449 1.376 1_565 S
C453 C452 1.392 . S
C453 H465 0.929 . S
C454 C450 1.531 . S
C454 H466 0.960 . S
C454 H467 0.962 . S
C454 H468 0.960 . S
C455 C452 1.511 . S
C455 H469 0.961 . S
C455 H470 0.961 . S
C455 H471 0.961 . S
C456 C457 1.372 1_655 S
C456 C458 1.363 . S
C456 H472 0.931 . S
C457 C456 1.372 1_455 S
C457 C461 1.406 1_565 S
C458 C456 1.363 . S
C458 C459 1.370 1_665 S
C458 C462 1.524 . S
C459 C451 1.503 . S
C459 C458 1.370 1_445 S
C459 C460 1.403 . S
C460 C459 1.403 . S
C460 C461 1.404 . S
C460 C463 1.539 . S
C461 C457 1.406 1_545 S
C461 C460 1.404 . S
C461 H473 0.930 . S
C462 C458 1.524 . S
C462 H474 0.956 . S
C462 H475 0.961 . S
C462 H476 0.961 . S
C463 C460 1.539 . S
C463 H477 0.958 . S
C463 H478 0.961 . S
C463 H479 0.960 . S
H464 C448 0.931 . S
H465 C453 0.929 . S
H466 C454 0.960 . S
H467 C454 0.962 . S
H468 C454 0.960 . S
H469 C455 0.961 . S
H470 C455 0.961 . S
H471 C455 0.961 . S
H472 C456 0.931 . S
H473 C461 0.930 . S
H474 C462 0.956 . S
H475 C462 0.961 . S
H476 C462 0.961 . S
H477 C463 0.958 . S
H478 C463 0.961 . S
H479 C463 0.960 . S
C480 C481 1.391 . S
C480 C482 1.394 . S
C480 H496 0.931 . S
C481 C480 1.391 . S
C481 C485 1.376 . S
C482 C480 1.394 . S
C482 C483 1.369 . S
C482 C486 1.531 . S
C483 C482 1.369 . S
C483 C484 1.410 . S
C483 C491 1.503 . S
C484 C483 1.410 . S
C484 C485 1.392 . S
C484 C487 1.511 . S
C485 C481 1.376 . S
C485 C484 1.392 . S
C485 H497 0.929 . S
C486 C482 1.531 . S
C486 H498 0.960 . S
C486 H499 0.962 . S
C486 H500 0.960 . S
C487 C484 1.511 . S
C487 H501 0.961 . S
C487 H502 0.961 . S
C487 H503 0.961 . S
C488 C489 1.370 . S
C488 C490 1.363 . S
C488 H504 0.931 . S
C489 C488 1.370 . S
C489 C493 1.408 . S
C490 C488 1.363 . S
C490 C491 1.370 . S
C490 C494 1.524 . S
C491 C483 1.503 . S
C491 C490 1.370 . S
C491 C492 1.403 . S
C492 C491 1.403 . S
C492 C493 1.404 . S
C492 C495 1.539 . S
C493 C489 1.408 . S
C493 C492 1.404 . S
C493 H505 0.930 . S
C494 C490 1.524 . S
C494 H506 0.956 . S
C494 H507 0.961 . S
C494 H508 0.961 . S
C495 C492 1.539 . S
C495 H509 0.958 . S
C495 H510 0.961 . S
C495 H511 0.960 . S
H496 C480 0.931 . S
H497 C485 0.929 . S
H498 C486 0.960 . S
H499 C486 0.962 . S
H500 C486 0.960 . S
H501 C487 0.961 . S
H502 C487 0.961 . S
H503 C487 0.961 . S
H504 C488 0.931 . S
H505 C493 0.930 . S
H506 C494 0.956 . S
H507 C494 0.961 . S
H508 C494 0.961 . S
H509 C495 0.958 . S
H510 C495 0.961 . S
H511 C495 0.960 . S
C512 C513 1.391 . S
C512 C514 1.394 . S
C512 H528 0.931 . S
C513 C512 1.391 . S
C513 C517 1.376 . S
C514 C512 1.394 . S
C514 C515 1.369 . S
C514 C518 1.531 . S
C515 C514 1.369 . S
C515 C516 1.410 . S
C515 C523 1.503 . S
C516 C515 1.410 . S
C516 C517 1.392 . S
C516 C519 1.511 . S
C517 C513 1.376 . S
C517 C516 1.392 . S
C517 H529 0.929 . S
C518 C514 1.531 . S
C518 H530 0.960 . S
C518 H531 0.962 . S
C518 H532 0.960 . S
C519 C516 1.511 . S
C519 H533 0.961 . S
C519 H534 0.961 . S
C519 H535 0.961 . S
C520 C521 1.370 . S
C520 C522 1.363 . S
C520 H536 0.931 . S
C521 C520 1.370 . S
C521 C525 1.408 . S
C522 C520 1.363 . S
C522 C523 1.370 . S
C522 C526 1.524 . S
C523 C515 1.503 . S
C523 C522 1.370 . S
C523 C524 1.403 . S
C524 C523 1.403 . S
C524 C525 1.404 . S
C524 C527 1.539 . S
C525 C521 1.408 . S
C525 C524 1.404 . S
C525 H537 0.930 . S
C526 C522 1.524 . S
C526 H538 0.956 . S
C526 H539 0.961 . S
C526 H540 0.961 . S
C527 C524 1.539 . S
C527 H541 0.958 . S
C527 H542 0.961 . S
C527 H543 0.960 . S
H528 C512 0.931 . S
H529 C517 0.929 . S
H530 C518 0.960 . S
H531 C518 0.962 . S
H532 C518 0.960 . S
H533 C519 0.961 . S
H534 C519 0.961 . S
H535 C519 0.961 . S
H536 C520 0.931 . S
H537 C525 0.930 . S
H538 C526 0.956 . S
H539 C526 0.961 . S
H540 C526 0.961 . S
H541 C527 0.958 . S
H542 C527 0.961 . S
H543 C527 0.960 . S
C161 C90 3.577 1_554 S
C169 C19 3.578 . S
C193 C99 3.578 1_556 S
C201 C10 3.576 . S
C225 C55 0.219 . S
C233 C126 0.173 . S
C257 C46 0.197 . S
C265 C135 0.184 . S
C289 C15 0.960 . S
C297 C6 0.902 . S
C321 C59 4.871 . S
C329 C50 4.873 . S
C353 C95 0.966 . S
C361 C86 0.900 . S
C385 C130 4.864 . S
C393 C139 4.875 . S
C417 C49 1.423 1_655 S
C425 C18 1.470 1_655 S
C449 C9 1.478 1_445 S
C457 C58 1.445 1_465 S
C481 C129 1.422 . S
C489 C98 1.464 . S
C513 C138 1.474 . S
C521 C89 1.460 . S
