# Generated by pormake.
# Topology wkj, (6)-cn, num edge types: 1
# Building blocks:
#     Node 0, Type 0, BuildingBlock: KUMBUR_clean_sbu_1, # of connection points: 6
#     Node 1, Type 0, BuildingBlock: KUMBUR_clean_sbu_1, # of connection points: 6
#     Node 2, Type 0, BuildingBlock: KUMBUR_clean_sbu_1, # of connection points: 6
#     Node 3, Type 0, BuildingBlock: KUMBUR_clean_sbu_1, # of connection points: 6
#     Node 4, Type 0, BuildingBlock: KUMBUR_clean_sbu_1, # of connection points: 6
#     Node 5, Type 0, BuildingBlock: KUMBUR_clean_sbu_1, # of connection points: 6
#     Node 6, Type 0, BuildingBlock: KUMBUR_clean_sbu_1, # of connection points: 6
#     Node 7, Type 0, BuildingBlock: KUMBUR_clean_sbu_1, # of connection points: 6
#     Node 8, Type 0, BuildingBlock: KUMBUR_clean_sbu_1, # of connection points: 6
#     Node 9, Type 0, BuildingBlock: KUMBUR_clean_sbu_1, # of connection points: 6
#     Node 10, Type 0, BuildingBlock: KUMBUR_clean_sbu_1, # of connection points: 6
#     Node 11, Type 0, BuildingBlock: KUMBUR_clean_sbu_1, # of connection points: 6
#     Edge 12, Type (0, 0), BuildingBlock: XIVTED_clean_linker_0, # of connection points: 2
#     Edge 13, Type (0, 0), BuildingBlock: XIVTED_clean_linker_0, # of connection points: 2
#     Edge 14, Type (0, 0), BuildingBlock: XIVTED_clean_linker_0, # of connection points: 2
#     Edge 15, Type (0, 0), BuildingBlock: XIVTED_clean_linker_0, # of connection points: 2
#     Edge 16, Type (0, 0), BuildingBlock: XIVTED_clean_linker_0, # of connection points: 2
#     Edge 17, Type (0, 0), BuildingBlock: XIVTED_clean_linker_0, # of connection points: 2
#     Edge 18, Type (0, 0), BuildingBlock: XIVTED_clean_linker_0, # of connection points: 2
#     Edge 19, Type (0, 0), BuildingBlock: XIVTED_clean_linker_0, # of connection points: 2
#     Edge 20, Type (0, 0), BuildingBlock: XIVTED_clean_linker_0, # of connection points: 2
#     Edge 21, Type (0, 0), BuildingBlock: XIVTED_clean_linker_0, # of connection points: 2
#     Edge 22, Type (0, 0), BuildingBlock: XIVTED_clean_linker_0, # of connection points: 2
#     Edge 23, Type (0, 0), BuildingBlock: XIVTED_clean_linker_0, # of connection points: 2
#     Edge 24, Type (0, 0), BuildingBlock: XIVTED_clean_linker_0, # of connection points: 2
#     Edge 25, Type (0, 0), BuildingBlock: XIVTED_clean_linker_0, # of connection points: 2
#     Edge 26, Type (0, 0), BuildingBlock: XIVTED_clean_linker_0, # of connection points: 2
#     Edge 27, Type (0, 0), BuildingBlock: XIVTED_clean_linker_0, # of connection points: 2
#     Edge 28, Type (0, 0), BuildingBlock: XIVTED_clean_linker_0, # of connection points: 2
#     Edge 29, Type (0, 0), BuildingBlock: XIVTED_clean_linker_0, # of connection points: 2
#     Edge 30, Type (0, 0), BuildingBlock: XIVTED_clean_linker_0, # of connection points: 2
#     Edge 31, Type (0, 0), BuildingBlock: XIVTED_clean_linker_0, # of connection points: 2
#     Edge 32, Type (0, 0), BuildingBlock: XIVTED_clean_linker_0, # of connection points: 2
#     Edge 33, Type (0, 0), BuildingBlock: XIVTED_clean_linker_0, # of connection points: 2
#     Edge 34, Type (0, 0), BuildingBlock: XIVTED_clean_linker_0, # of connection points: 2
#     Edge 35, Type (0, 0), BuildingBlock: XIVTED_clean_linker_0, # of connection points: 2
#     Edge 36, Type (0, 0), BuildingBlock: XIVTED_clean_linker_0, # of connection points: 2
#     Edge 37, Type (0, 0), BuildingBlock: XIVTED_clean_linker_0, # of connection points: 2
#     Edge 38, Type (0, 0), BuildingBlock: XIVTED_clean_linker_0, # of connection points: 2
#     Edge 39, Type (0, 0), BuildingBlock: XIVTED_clean_linker_0, # of connection points: 2
#     Edge 40, Type (0, 0), BuildingBlock: XIVTED_clean_linker_0, # of connection points: 2
#     Edge 41, Type (0, 0), BuildingBlock: XIVTED_clean_linker_0, # of connection points: 2
#     Edge 42, Type (0, 0), BuildingBlock: XIVTED_clean_linker_0, # of connection points: 2
#     Edge 43, Type (0, 0), BuildingBlock: XIVTED_clean_linker_0, # of connection points: 2
#     Edge 44, Type (0, 0), BuildingBlock: XIVTED_clean_linker_0, # of connection points: 2
#     Edge 45, Type (0, 0), BuildingBlock: XIVTED_clean_linker_0, # of connection points: 2
#     Edge 46, Type (0, 0), BuildingBlock: XIVTED_clean_linker_0, # of connection points: 2
#     Edge 47, Type (0, 0), BuildingBlock: XIVTED_clean_linker_0, # of connection points: 2
# Relax obj value: 0.658
# Max RMSD: 0.201
# Mean RMSD: 0.201
data_MOF--net-wkj--node1-KUMBUR_clean_sbu_1--edge1-XIVTED_clean_linker_0
_symmetry_space_group_name_H-M    P1
_symmetry_Int_Tables_number       1
_symmetry_cell_setting            triclinic
loop_
_symmetry_equiv_pos_as_xyz
'x, y, z'
_cell_length_a     51.262953
_cell_length_b     51.336076
_cell_length_c     30.209934
_cell_angle_alpha  90.059548
_cell_angle_beta   89.896316
_cell_angle_gamma 120.12376
loop_
_atom_site_label
_atom_site_type_symbol
_atom_site_fract_x
_atom_site_fract_y
_atom_site_fract_z
_atom_type_partial_charge
Tb0 Tb 0.54894 0.12139 0.29532 0.0
C1 C 0.40661 0.04499 0.28419 0.0
N2 N 0.42904 0.07336 0.2751 0.0
C3 C 0.40273 0.0742 0.2099 0.0
C4 C 0.38185 0.0295 0.25551 0.0
C5 C 0.42678 0.08866 0.23959 0.0
C6 C 0.38041 0.04431 0.21749 0.0
C7 C 0.38338 0.00434 0.33723 0.0
C8 C 0.40738 0.03271 0.32436 0.0
C9 C 0.35954 0.9878 0.3076 0.0
C10 C 0.35876 0.00038 0.26677 0.0
Tb11 Tb 0.46797 0.09479 0.32469 0.0
N12 N 0.43023 0.04996 0.35248 0.0
C13 C 0.38337 0.99416 0.38019 0.0
C14 C 0.42906 0.04108 0.39543 0.0
C15 C 0.40605 0.01288 0.40967 0.0
H16 H 0.44394 0.11176 0.2336 0.0
H17 H 0.4056 0.00581 0.44354 0.0
H18 H 0.55103 0.06445 0.24511 0.0
H19 H 0.63109 0.21261 0.39607 0.0
H20 H 0.44585 0.05594 0.4189 0.0
H21 H 0.36535 0.97249 0.39143 0.0
H22 H 0.58445 0.18506 0.35219 0.0
H23 H 0.40142 0.08612 0.18124 0.0
H24 H 0.34105 0.9658 0.31664 0.0
H25 H 0.3397 0.9879 0.24493 0.0
H26 H 0.58368 0.04219 0.24475 0.0
H27 H 0.36172 0.03322 0.19461 0.0
H28 H 0.66567 0.19235 0.40337 0.0
N29 N 0.57865 0.09981 0.28988 0.0
C30 C 0.60462 0.11296 0.31368 0.0
C31 C 0.58984 0.06213 0.26432 0.0
C32 C 0.62407 0.101 0.31431 0.0
C33 C 0.57133 0.07493 0.26466 0.0
C34 C 0.61626 0.07512 0.28942 0.0
N35 N 0.59194 0.14895 0.33597 0.0
C36 C 0.59926 0.17589 0.35527 0.0
C37 C 0.63832 0.15334 0.36241 0.0
C38 C 0.61138 0.13834 0.33789 0.0
C39 C 0.64517 0.1801 0.38418 0.0
C40 C 0.62571 0.19161 0.38013 0.0
H41 H 0.63051 0.0651 0.28914 0.0
H42 H 0.66578 0.10637 0.34077 0.0
H43 H 0.67847 0.15249 0.38254 0.0
O44 O 0.54312 0.13983 0.2364 0.0
O45 O 0.54708 0.12378 0.37188 0.0
O46 O 0.49642 0.10354 0.39088 0.0
O47 O 0.58703 0.14752 0.25552 0.0
O48 O 0.53597 0.15598 0.31268 0.0
O49 O 0.49201 0.13247 0.27759 0.0
O50 O 0.43121 0.10004 0.34177 0.0
O51 O 0.46967 0.07421 0.25631 0.0
O52 O 0.5187 0.0855 0.24284 0.0
O53 O 0.47621 0.13492 0.35667 0.0
O54 O 0.48431 0.06874 0.35731 0.0
O55 O 0.52094 0.07347 0.30991 0.0
C56 C 0.52589 0.11519 0.40394 0.0
C57 C 0.58457 0.18865 0.22385 0.0
C58 C 0.58094 0.22955 0.18852 0.0
C59 C 0.60613 0.25061 0.21269 0.0
C60 C 0.60985 0.21009 0.24769 0.0
C61 C 0.6204 0.24085 0.2422 0.0
C62 C 0.57039 0.19862 0.19431 0.0
C63 C 0.515 0.1582 0.2905 0.0
C64 C 0.57216 0.15589 0.22983 0.0
C65 C 0.65057 0.11525 0.33973 0.0
C66 C 0.65774 0.14144 0.36363 0.0
C67 C 0.48943 0.07129 0.22992 0.0
C68 C 0.43763 0.1295 0.40481 0.0
C69 C 0.41088 0.10672 0.47359 0.0
C70 C 0.41632 0.13509 0.48789 0.0
C71 C 0.44285 0.15765 0.41927 0.0
C72 C 0.42197 0.10444 0.43222 0.0
C73 C 0.43227 0.16041 0.46077 0.0
C74 C 0.50513 0.06252 0.34627 0.0
C75 C 0.44773 0.12598 0.36077 0.0
H76 H 0.61474 0.27453 0.20871 0.0
H77 H 0.62148 0.20322 0.27056 0.0
H78 H 0.6398 0.25718 0.26079 0.0
H79 H 0.55135 0.18213 0.17515 0.0
H80 H 0.40798 0.13768 0.51958 0.0
H81 H 0.45491 0.17737 0.39845 0.0
H82 H 0.41838 0.083 0.42113 0.0
H83 H 0.43627 0.18217 0.47182 0.0
Tb84 Tb 0.41628 0.53594 0.64079 0.0
C85 C 0.31212 0.40301 0.61288 0.0
N86 N 0.31586 0.42718 0.63654 0.0
C87 C 0.26383 0.41215 0.62414 0.0
C88 C 0.28485 0.38413 0.59048 0.0
C89 C 0.29126 0.43008 0.64581 0.0
C90 C 0.26091 0.38966 0.59521 0.0
C91 C 0.33097 0.36984 0.59174 0.0
C92 C 0.33451 0.39539 0.61465 0.0
C93 C 0.30482 0.35234 0.56667 0.0
C94 C 0.28172 0.35936 0.56626 0.0
Tb95 Tb 0.36211 0.45494 0.66969 0.0
N96 N 0.35923 0.41236 0.64017 0.0
C97 C 0.35357 0.36231 0.59529 0.0
C98 C 0.38107 0.40459 0.64447 0.0
C99 C 0.3786 0.37966 0.62194 0.0
H100 H 0.2929 0.44674 0.66924 0.0
H101 H 0.39611 0.37394 0.62494 0.0
H102 H 0.42869 0.58893 0.7139 0.0
H103 H 0.35073 0.50248 0.4875 0.0
H104 H 0.40087 0.41784 0.66426 0.0
H105 H 0.35175 0.34295 0.57803 0.0
H106 H 0.37684 0.49553 0.549 0.0
H107 H 0.24492 0.41554 0.6301 0.0
H108 H 0.30183 0.33279 0.5486 0.0
H109 H 0.26112 0.34491 0.54831 0.0
H110 H 0.41926 0.63131 0.72029 0.0
H111 H 0.23957 0.37562 0.57871 0.0
H112 H 0.34351 0.54649 0.48545 0.0
N113 N 0.40705 0.5745 0.65127 0.0
C114 C 0.39307 0.58008 0.61752 0.0
C115 C 0.41156 0.61693 0.69137 0.0
C116 C 0.38703 0.60398 0.62003 0.0
C117 C 0.41663 0.59267 0.68776 0.0
C118 C 0.39661 0.62256 0.65744 0.0
N119 N 0.38797 0.5367 0.58161 0.0
C120 C 0.37589 0.51575 0.54846 0.0
C121 C 0.36722 0.5649 0.54701 0.0
C122 C 0.38338 0.56071 0.58142 0.0
C123 C 0.35607 0.5441 0.5124 0.0
C124 C 0.36016 0.51928 0.51341 0.0
H125 H 0.39258 0.64128 0.66044 0.0
H126 H 0.3668 0.62683 0.58664 0.0
H127 H 0.34954 0.59269 0.52264 0.0
O128 O 0.44821 0.56518 0.59379 0.0
O129 O 0.41421 0.53553 0.71652 0.0
O130 O 0.38205 0.48543 0.73458 0.0
O131 O 0.45823 0.57106 0.66267 0.0
O132 O 0.3689 0.52509 0.66055 0.0
O133 O 0.34458 0.47895 0.63055 0.0
O134 O 0.34729 0.41694 0.71075 0.0
O135 O 0.38367 0.45479 0.60198 0.0
O136 O 0.42156 0.50428 0.58997 0.0
O137 O 0.33323 0.44985 0.72197 0.0
O138 O 0.40899 0.46845 0.66676 0.0
O139 O 0.43673 0.51717 0.68455 0.0
C140 C 0.40065 0.51455 0.74818 0.0
C141 C 0.48078 0.6153 0.62018 0.0
C142 C 0.48483 0.66002 0.58528 0.0
C143 C 0.50946 0.67836 0.61245 0.0
C144 C 0.50528 0.63401 0.64755 0.0
C145 C 0.51941 0.66533 0.64381 0.0
C146 C 0.47043 0.6285 0.5894 0.0
C147 C 0.34354 0.50262 0.64412 0.0
C148 C 0.46727 0.58229 0.62371 0.0
C149 C 0.3715 0.60848 0.5854 0.0
C150 C 0.36178 0.58911 0.54888 0.0
C151 C 0.40721 0.47489 0.57716 0.0
C152 C 0.33587 0.42423 0.78502 0.0
C153 C 0.35431 0.40985 0.84975 0.0
C154 C 0.34031 0.42146 0.87722 0.0
C155 C 0.32199 0.43549 0.8132 0.0
C156 C 0.35152 0.41092 0.80356 0.0
C157 C 0.32423 0.43408 0.85898 0.0
C158 C 0.42953 0.48924 0.69095 0.0
C159 C 0.33261 0.42557 0.73666 0.0
H160 H 0.52101 0.70265 0.6092 0.0
H161 H 0.51371 0.62436 0.67155 0.0
H162 H 0.5384 0.67953 0.66484 0.0
H163 H 0.45184 0.61437 0.5676 0.0
H164 H 0.34118 0.42024 0.91292 0.0
H165 H 0.30929 0.44533 0.7998 0.0
H166 H 0.36161 0.40153 0.78211 0.0
H167 H 0.31341 0.44276 0.88042 0.0
Tb168 Tb 0.87844 0.42642 0.99231 0.0
C169 C 0.9361 0.34038 0.98628 0.0
N170 N 0.90978 0.33857 0.97452 0.0
C171 C 0.90718 0.30965 0.91031 0.0
C172 C 0.94959 0.32765 0.96 0.0
C173 C 0.89451 0.32224 0.938 0.0
C174 C 0.9351 0.31275 0.92099 0.0
C175 C 0.97365 0.35262 1.04293 0.0
C176 C 0.948 0.35284 1.02664 0.0
C177 C 0.98829 0.34149 1.01608 0.0
C178 C 0.97632 0.32911 0.97452 0.0
Tb179 Tb 0.89159 0.36186 1.01972 0.0
N180 N 0.93293 0.36303 1.0514 0.0
C181 C 0.98297 0.36237 1.08628 0.0
C182 C 0.94151 0.37182 0.09414 0.0
C183 C 0.96649 0.37154 0.11227 0.0
H184 H 0.87288 0.31955 0.92941 0.0
H185 H 0.97332 0.37892 0.14598 0.0
H186 H 0.94197 0.4802 0.94679 0.0
H187 H 0.80032 0.43303 0.10509 0.0
H188 H 0.92944 0.37965 0.11416 0.0
H189 H 0.00243 0.36238 0.10022 0.0
H190 H 0.8179 0.40828 1.05188 0.0
H191 H 0.89535 0.29746 0.88085 0.0
H192 H 0.00827 0.34149 1.0277 0.0
H193 H 0.98724 0.31973 0.95465 0.0
H194 H 0.97758 0.53429 0.95839 0.0
H195 H 0.94472 0.3027 0.89978 0.0
H196 H 0.83377 0.48663 0.12489 0.0
N197 N 0.91238 0.47701 0.99888 0.0
C198 C 0.90586 0.49236 1.0293 0.0
C199 C 0.95756 0.52273 0.97879 0.0
C200 C 0.92506 0.5235 1.0361 0.0
C201 C 0.93744 0.49194 0.97266 0.0
C202 C 0.95147 0.53856 1.01089 0.0
N203 N 0.86126 0.4471 1.0438 0.0
C204 C 0.83258 0.43165 1.06066 0.0
C205 C 0.86997 0.49211 1.08173 0.0
C206 C 0.879 0.47698 1.05196 0.0
C207 C 0.84157 0.47586 0.10175 0.0
C208 C 0.82262 0.44558 0.09069 0.0
H209 H 0.9669 0.56245 1.01517 0.0
H210 H 0.93118 0.56255 1.0726 0.0
H211 H 0.88291 0.53504 0.11266 0.0
O212 O 0.8362 0.41128 0.96422 0.0
O213 O 0.88004 0.42481 1.06824 0.0
O214 O 0.88656 0.38454 1.08612 0.0
O215 O 0.87355 0.45436 0.94532 0.0
O216 O 0.83864 0.3784 0.99565 0.0
O217 O 0.86027 0.35454 0.9653 0.0
O218 O 0.87797 0.31822 1.04248 0.0
O219 O 0.91204 0.38156 0.94814 0.0
O220 O 0.90398 0.42138 0.93227 0.0
O221 O 0.84798 0.33597 1.04737 0.0
O222 O 0.91906 0.40487 1.04808 0.0
O223 O 0.92488 0.43409 0.99087 0.0
C224 C 0.88187 0.40745 0.09979 0.0
C225 C 0.83344 0.42884 0.89381 0.0
C226 C 0.80681 0.3933 0.83417 0.0
C227 C 0.80472 0.41611 0.81139 0.0
C228 C 0.83136 0.45133 0.87058 0.0
C229 C 0.81705 0.44494 0.8295 0.0
C230 C 0.82121 0.39993 0.87544 0.0
C231 C 0.83543 0.35506 0.97217 0.0
C232 C 0.8452 0.43482 0.93915 0.0
C233 C 0.91682 0.53864 1.06693 0.0
C234 C 0.88929 0.52298 0.08967 0.0
C235 C 0.91545 0.40383 0.9194 0.0
C236 C 0.84738 0.30557 0.10642 0.0
C237 C 0.86721 0.30915 0.1813 0.0
C238 C 0.83764 0.29218 0.19745 0.0
C239 C 0.81795 0.289 0.12314 0.0
C240 C 0.8717 0.31484 0.13569 0.0
C241 C 0.81315 0.28206 0.16837 0.0
C242 C 0.93684 0.42616 1.02239 0.0
C243 C 0.85282 0.31435 1.05914 0.0
H244 H 0.79436 0.41201 0.77901 0.0
H245 H 0.84028 0.47364 0.88461 0.0
H246 H 0.81549 0.46238 0.81162 0.0
H247 H 0.82251 0.38242 0.89352 0.0
H248 H 0.83349 0.28736 0.23248 0.0
H249 H 0.79875 0.28158 0.10132 0.0
H250 H 0.89432 0.32647 0.12309 0.0
H251 H 0.79037 0.26924 0.18105 0.0
Tb252 Tb 0.44414 0.87298 0.28696 0.0
C253 C 0.58875 0.93609 0.28117 0.0
N254 N 0.56474 0.9094 0.26922 0.0
C255 C 0.59142 0.90816 0.20454 0.0
C256 C 0.6149 0.95046 0.25467 0.0
C257 C 0.56604 0.89482 0.2321 0.0
C258 C 0.61585 0.93629 0.2156 0.0
C259 C 0.61239 0.9752 0.3363 0.0
C260 C 0.5875 0.9481 0.3212 0.0
C261 C 0.63811 0.99043 0.30935 0.0
C262 C 0.63938 0.97804 0.26858 0.0
Tb263 Tb 0.52296 0.89027 0.31372 0.0
N264 N 0.56238 0.93237 0.34626 0.0
C265 C 0.61095 0.98577 0.37836 0.0
C266 C 0.56148 0.94213 0.38821 0.0
C267 C 0.5855 0.96895 0.40461 0.0
H268 H 0.54716 0.87329 0.22295 0.0
H269 H 0.58426 0.97669 0.43748 0.0
H270 H 0.4433 0.93377 0.25029 0.0
H271 H 0.36551 0.78082 0.39014 0.0
H272 H 0.54203 0.92983 0.4092 0.0
H273 H 0.62953 0.00652 0.39118 0.0
H274 H 0.40825 0.80688 0.33836 0.0
H275 H 0.59207 0.89679 0.17473 0.0
H276 H 0.65735 0.01141 0.32016 0.0
H277 H 0.65959 0.98962 0.24853 0.0
H278 H 0.41688 0.9615 0.26887 0.0
H279 H 0.63551 0.94657 0.19427 0.0
H280 H 0.33783 0.806 0.41588 0.0
N281 N 0.42015 0.89983 0.29908 0.0
C282 C 0.39767 0.8882 0.32972 0.0
C283 C 0.41144 0.94102 0.28646 0.0
C284 C 0.38144 0.90281 0.34046 0.0
C285 C 0.42654 0.92538 0.27633 0.0
C286 C 0.389 0.92983 0.31896 0.0
N287 N 0.40564 0.84699 0.33618 0.0
C288 C 0.39656 0.81823 0.34964 0.0
C289 C 0.36501 0.84639 0.37746 0.0
C290 C 0.38963 0.86048 0.34809 0.0
C291 C 0.35664 0.81762 0.39328 0.0
C292 C 0.37226 0.80335 0.37888 0.0
H293 H 0.37704 0.9417 0.32627 0.0
H294 H 0.34504 0.90051 0.3801 0.0
H295 H 0.33058 0.85102 0.41242 0.0
O296 O 0.43343 0.84445 0.23157 0.0
O297 O 0.44723 0.87271 0.36312 0.0
O298 O 0.49674 0.88737 0.38048 0.0
O299 O 0.40443 0.86135 0.25134 0.0
O300 O 0.45365 0.83448 0.29281 0.0
O301 O 0.49825 0.85819 0.2599 0.0
O302 O 0.55278 0.87569 0.33371 0.0
O303 O 0.5244 0.9131 0.2458 0.0
O304 O 0.47644 0.90588 0.233 0.0
O305 O 0.505 0.84722 0.34241 0.0
O306 O 0.50843 0.918 0.34197 0.0
O307 O 0.47687 0.92105 0.2926 0.0
C308 C 0.46824 0.87956 0.39447 0.0
C309 C 0.38095 0.81006 0.22942 0.0
C310 C 0.35918 0.75757 0.20639 0.0
C311 C 0.33315 0.74981 0.23106 0.0
C312 C 0.35476 0.80193 0.25448 0.0
C313 C 0.33116 0.77195 0.25546 0.0
C314 C 0.3829 0.78766 0.2058 0.0
C315 C 0.47419 0.83232 0.2689 0.0
C316 C 0.40671 0.84137 0.22798 0.0
C317 C 0.35765 0.88951 0.37117 0.0
C318 C 0.34938 0.86131 0.38952 0.0
C319 C 0.50566 0.91814 0.22002 0.0
C320 C 0.5361 0.84364 0.39534 0.0
C321 C 0.55014 0.8609 0.47128 0.0
C322 C 0.54677 0.83284 0.48264 0.0
C323 C 0.533 0.81577 0.40667 0.0
C324 C 0.54378 0.86553 0.42788 0.0
C325 C 0.53806 0.81032 0.45039 0.0
C326 C 0.4985 0.93329 0.32176 0.0
C327 C 0.53138 0.85037 0.3499 0.0
H328 H 0.31436 0.72691 0.23086 0.0
H329 H 0.35244 0.81862 0.27329 0.0
H330 H 0.31108 0.76596 0.27466 0.0
H331 H 0.4027 0.79384 0.18559 0.0
H332 H 0.55149 0.82856 0.51593 0.0
H333 H 0.52672 0.79837 0.38187 0.0
H334 H 0.54513 0.88649 0.41901 0.0
H335 H 0.53567 0.78879 0.45913 0.0
Tb336 Tb 0.56851 0.44464 0.64122 0.0
C337 C 0.63037 0.58655 0.62763 0.0
N338 N 0.63905 0.56577 0.62209 0.0
C339 C 0.66945 0.59336 0.55972 0.0
C340 C 0.64002 0.6111 0.59846 0.0
C341 C 0.65931 0.56944 0.58973 0.0
C342 C 0.65943 0.61405 0.5637 0.0
C343 C 0.60613 0.60659 0.67411 0.0
C344 C 0.61364 0.58425 0.6647 0.0
C345 C 0.61397 0.63014 0.64376 0.0
C346 C 0.63093 0.6324 0.60597 0.0
Tb347 Tb 0.61993 0.52657 0.67128 0.0
N348 N 0.60745 0.56172 0.69371 0.0
C349 C 0.59243 0.60546 0.71473 0.0
C350 C 0.59656 0.56214 0.73492 0.0
C351 C 0.58825 0.58349 0.74568 0.0
H352 H 0.66732 0.5537 0.58653 0.0
H353 H 0.57909 0.58328 0.77808 0.0
H354 H 0.50837 0.43409 0.58631 0.0
H355 H 0.58331 0.37061 0.75282 0.0
H356 H 0.59466 0.54621 0.75977 0.0
H357 H 0.58635 0.62223 0.72333 0.0
H358 H 0.60011 0.41308 0.70059 0.0
H359 H 0.68501 0.59584 0.5336 0.0
H360 H 0.60807 0.64733 0.65008 0.0
H361 H 0.63778 0.65125 0.58364 0.0
H362 H 0.45308 0.39998 0.5903 0.0
H363 H 0.66742 0.63262 0.54056 0.0
H364 H 0.52902 0.3383 0.76985 0.0
N365 N 0.51739 0.41435 0.64177 0.0
C366 C 0.50591 0.39189 0.67226 0.0
C367 C 0.4677 0.39762 0.61375 0.0
C368 C 0.47465 0.37184 0.67561 0.0
C369 C 0.49897 0.41692 0.61161 0.0
C370 C 0.45547 0.37527 0.64633 0.0
N371 N 0.55587 0.40595 0.69017 0.0
C372 C 0.57641 0.39934 0.70818 0.0
C373 C 0.51524 0.36259 0.72611 0.0
C374 C 0.52588 0.38731 0.69707 0.0
C375 C 0.53628 0.35708 0.74726 0.0
C376 C 0.56696 0.37526 0.73771 0.0
H377 H 0.43135 0.36006 0.64764 0.0
H378 H 0.43974 0.33274 0.70998 0.0
H379 H 0.47534 0.32466 0.75433 0.0
O380 O 0.59406 0.4406 0.58937 0.0
O381 O 0.57005 0.44692 0.71761 0.0
O382 O 0.59993 0.49734 0.73651 0.0
O383 O 0.54864 0.40537 0.60245 0.0
O384 O 0.61716 0.46012 0.65712 0.0
O385 O 0.63769 0.50531 0.62492 0.0
O386 O 0.65688 0.565 0.69864 0.0
O387 O 0.59979 0.52454 0.60137 0.0
O388 O 0.56471 0.47467 0.58584 0.0
O389 O 0.65387 0.52179 0.70322 0.0
O390 O 0.57604 0.5069 0.70005 0.0
O391 O 0.54776 0.47251 0.64837 0.0
C392 C 0.58238 0.46794 0.74952 0.0
C393 C 0.58388 0.39022 0.58416 0.0
C394 C 0.61623 0.37178 0.55566 0.0
C395 C 0.60276 0.34734 0.58499 0.0
C396 C 0.57015 0.36515 0.61267 0.0
C397 C 0.57998 0.34424 0.61363 0.0
C398 C 0.60708 0.39347 0.55611 0.0
C399 C 0.64042 0.48201 0.63587 0.0
C400 C 0.57373 0.41258 0.58226 0.0
C401 C 0.46374 0.3482 0.70651 0.0
C402 C 0.48401 0.34358 0.73174 0.0
C403 C 0.57868 0.50418 0.57365 0.0
C404 C 0.67078 0.55267 0.7667 0.0
C405 C 0.65908 0.56823 0.83717 0.0
C406 C 0.67057 0.55223 0.85976 0.0
C407 C 0.68242 0.53712 0.78997 0.0
C408 C 0.65995 0.56889 0.79067 0.0
C409 C 0.68249 0.53711 0.83623 0.0
C410 C 0.5498 0.4869 0.68514 0.0
C411 C 0.66713 0.54935 0.71803 0.0
H412 H 0.60925 0.33024 0.58479 0.0
H413 H 0.55155 0.36136 0.63386 0.0
H414 H 0.56931 0.32511 0.63576 0.0
H415 H 0.61684 0.41206 0.53283 0.0
H416 H 0.67047 0.55152 0.89559 0.0
H417 H 0.69084 0.52444 0.77236 0.0
H418 H 0.6511 0.58114 0.77322 0.0
H419 H 0.6913 0.52487 0.85393 0.0
Tb420 Tb 0.13254 0.58489 0.98951 0.0
C421 C 0.0405 0.64478 0.99211 0.0
N422 N 0.06747 0.64951 0.97722 0.0
C423 C 0.06518 0.67844 0.91643 0.0
C424 C 0.02444 0.6563 0.96946 0.0
C425 C 0.08034 0.66675 0.94039 0.0
C426 C 0.03696 0.67297 0.9308 0.0
C427 C 0.00281 0.62568 1.05001 0.0
C428 C 0.02985 0.62967 1.03149 0.0
C429 C 0.98607 0.63614 1.027 0.0
C430 C -0.00314 0.6514 0.9867 0.0
Tb431 Tb 0.08957 0.62767 1.01673 0.0
N432 N 0.04687 0.62023 1.05271 0.0
C433 C 0.9938 0.61188 0.09147 0.0
C434 C 0.03847 0.60734 0.09374 0.0
C435 C 0.01178 0.60277 0.11347 0.0
H436 H 0.10206 0.67115 0.9287 0.0
H437 H 0.00518 0.59235 0.14579 0.0
H438 H 0.10296 0.51144 1.00381 0.0
H439 H 0.21947 0.68026 1.08551 0.0
H440 H 0.05204 0.60029 0.11154 0.0
H441 H 0.97332 0.60861 0.10707 0.0
H442 H 0.17876 0.65748 1.03339 0.0
H443 H 0.07528 0.69166 0.8869 0.0
H444 H 0.96509 0.63303 1.04045 0.0
H445 H 0.98405 0.65988 0.96965 0.0
H446 H 0.11181 0.47735 1.05008 0.0
H447 H 0.02534 0.68218 0.91233 0.0
H448 H 0.23519 0.6493 0.12727 0.0
N449 N 0.13653 0.55126 1.03426 0.0
C450 C 0.16089 0.56343 1.06182 0.0
C451 C 0.12547 0.50149 1.05432 0.0
C452 C 0.16746 0.54475 1.08824 0.0
C453 C 0.11981 0.52082 1.02892 0.0
C454 C 0.1493 0.51349 1.08433 0.0
N455 N 0.17038 0.61231 1.04101 0.0
C456 C 0.18471 0.64271 1.04938 0.0
C457 C 0.20162 0.60757 0.09717 0.0
C458 C 0.17801 0.59473 1.06571 0.0
C459 C 0.21703 0.63868 0.10343 0.0
C460 C 0.20823 0.6562 1.07992 0.0
H461 H 0.15366 0.49845 0.10401 0.0
H462 H 0.19703 0.54371 0.13843 0.0
H463 H 0.22677 0.59861 0.1465 0.0
O464 O 0.16839 0.58351 0.96078 0.0
O465 O 0.11468 0.57248 1.06146 0.0
O466 O 0.09653 0.60479 1.08039 0.0
O467 O 0.12273 0.54903 0.94512 0.0
O468 O 0.1609 0.63114 0.96627 0.0
O469 O 0.12965 0.65224 0.96913 0.0
O470 O 0.09937 0.66895 1.04467 0.0
O471 O 0.07796 0.61093 0.94321 0.0
O472 O 0.0996 0.58051 0.92953 0.0
O473 O 0.13051 0.65176 1.05002 0.0
O474 O 0.05429 0.58021 1.026 0.0
O475 O 0.0945 0.58723 0.99857 0.0
C476 C 0.10526 0.58473 0.09296 0.0
C477 C 0.162 0.56002 0.89194 0.0
C478 C 0.20228 0.58362 0.83677 0.0
C479 C 0.18347 0.56142 0.80604 0.0
C480 C 0.14369 0.53811 0.86094 0.0
C481 C 0.15457 0.53869 0.81831 0.0
C482 C 0.19161 0.58186 0.88001 0.0
C483 C 0.15618 0.65391 0.95954 0.0
C484 C 0.15145 0.55942 0.93757 0.0
C485 C 0.19162 0.55772 0.11807 0.0
C486 C 0.2086 0.58899 0.12256 0.0
C487 C 0.08101 0.59146 0.91602 0.0
C488 C 0.12919 0.68078 0.10965 0.0
C489 C 0.11028 0.68459 0.18213 0.0
C490 C 0.1397 0.69758 0.19911 0.0
C491 C 0.15837 0.69361 0.1272 0.0
C492 C 0.1052 0.67622 0.13731 0.0
C493 C 0.16356 0.70194 0.17174 0.0
C494 C 0.06746 0.56712 1.00918 0.0
C495 C 0.1243 0.67255 1.06247 0.0
H496 H 0.19042 0.56225 0.77197 0.0
H497 H 0.1211 0.52059 0.86965 0.0
H498 H 0.14027 0.52191 0.79431 0.0
H499 H 0.20635 0.59814 0.90424 0.0
H500 H 0.14417 0.70397 0.23365 0.0
H501 H 0.17715 0.69725 0.10639 0.0
H502 H 0.08265 0.66662 0.12393 0.0
H503 H 0.18614 0.7118 0.18509 0.0
Tb504 Tb 0.88451 0.4527 0.55314 0.0
C505 C 0.85607 0.55552 0.54114 0.0
N506 N 0.86878 0.54787 0.50809 0.0
C507 C 0.84622 0.56449 0.45394 0.0
C508 C 0.83766 0.568 0.53191 0.0
C509 C 0.86396 0.5518 0.46483 0.0
C510 C 0.83317 0.57284 0.48766 0.0
C511 C 0.84401 0.55299 0.61891 0.0
C512 C 0.85967 0.5485 0.58397 0.0
C513 C 0.82666 0.56663 0.61033 0.0
C514 C 0.82356 0.57421 0.56689 0.0
Tb515 Tb 0.90114 0.532 0.52783 0.0
N516 N 0.87583 0.53435 0.59048 0.0
C517 C 0.84486 0.54215 0.66093 0.0
C518 C 0.87425 0.52143 0.63085 0.0
C519 C 0.85948 0.52571 0.66664 0.0
H520 H 0.87436 0.5457 0.43875 0.0
H521 H 0.85873 0.51562 0.69841 0.0
H522 H 0.83074 0.4265 0.47301 0.0
H523 H 0.87687 0.42657 0.72832 0.0
H524 H 0.8828 0.50641 0.63575 0.0
H525 H 0.833 0.54497 0.68857 0.0
H526 H 0.90305 0.44946 0.65924 0.0
H527 H 0.8427 0.56791 0.41962 0.0
H528 H 0.8147 0.57046 0.63683 0.0
H529 H 0.80941 0.58391 0.56056 0.0
H530 H 0.7765 0.39291 0.46835 0.0
H531 H 0.81923 0.58244 0.47916 0.0
H532 H 0.82157 0.39391 0.72916 0.0
N533 N 0.83336 0.42138 0.54294 0.0
C534 C 0.81736 0.40718 0.58003 0.0
C535 C 0.78772 0.39677 0.50001 0.0
C536 C 0.78583 0.38774 0.57853 0.0
C537 C 0.81889 0.41604 0.50301 0.0
C538 C 0.77109 0.38263 0.53788 0.0
N539 N 0.86292 0.43257 0.6205 0.0
C540 C 0.87884 0.43668 0.65874 0.0
C541 C 0.81669 0.39927 0.65926 0.0
C542 C 0.83257 0.41327 0.62007 0.0
C543 C 0.83285 0.40457 0.69861 0.0
C544 C 0.86407 0.42309 0.69825 0.0
H545 H 0.7469 0.36788 0.5354 0.0
H546 H 0.74568 0.35951 0.61713 0.0
H547 H 0.7727 0.36969 0.68774 0.0
O548 O 0.87565 0.41247 0.5227 0.0
O549 O 0.88217 0.45746 0.47765 0.0
O550 O 0.89162 0.50553 0.46 0.0
O551 O 0.90676 0.42999 0.57681 0.0
O552 O 0.85131 0.46771 0.57468 0.0
O553 O 0.85372 0.49671 0.51753 0.0
O554 O 0.9267 0.55997 0.47587 0.0
O555 O 0.92822 0.53365 0.5927 0.0
O556 O 0.92071 0.48541 0.60394 0.0
O557 O 0.92429 0.57918 0.5377 0.0
O558 O 0.93697 0.52266 0.53407 0.0
O559 O 0.92158 0.47752 0.50626 0.0
C560 C 0.8847 0.47737 0.44639 0.0
C561 C 0.88411 0.37744 0.55974 0.0
C562 C 0.84981 0.33102 0.59836 0.0
C563 C 0.86257 0.31609 0.57615 0.0
C564 C 0.89635 0.36217 0.53716 0.0
C565 C 0.88558 0.33162 0.54528 0.0
C566 C 0.86077 0.36176 0.59008 0.0
C567 C 0.83774 0.47891 0.55002 0.0
C568 C 0.89411 0.40872 0.54735 0.0
C569 C 0.76991 0.37436 0.61764 0.0
C570 C 0.7853 0.38017 0.65789 0.0
C571 C 0.93381 0.51456 0.61755 0.0
C572 C 0.93442 0.60902 0.47231 0.0
C573 C 0.95251 0.64161 0.40742 0.0
C574 C 0.93829 0.65717 0.4229 0.0
C575 C 0.92012 0.62459 0.48749 0.0
C576 C 0.95041 0.61763 0.43236 0.0
C577 C 0.92194 0.64846 0.46262 0.0
C578 C 0.94053 0.50633 0.50526 0.0
C579 C 0.93473 0.58467 0.49754 0.0
H580 H 0.85462 0.29251 0.5825 0.0
H581 H 0.91387 0.37381 0.51264 0.0
H582 H 0.89492 0.31991 0.5274 0.0
H583 H 0.85138 0.37347 0.60766 0.0
H584 H 0.93977 0.67589 0.40431 0.0
H585 H 0.90776 0.61849 0.51843 0.0
H586 H 0.96209 0.60609 0.42124 0.0
H587 H 0.91092 0.66043 0.47438 0.0
Tb588 Tb 0.42625 0.89306 0.84613 0.0
C589 C 0.33797 0.94694 0.86886 0.0
N590 N 0.33226 0.91878 0.85907 0.0
C591 C 0.28122 0.89831 0.88477 0.0
C592 C 0.31539 0.95198 0.88661 0.0
C593 C 0.30428 0.89449 0.86701 0.0
C594 C 0.28672 0.92721 0.89437 0.0
C595 C 0.37426 2e-05 0.87508 0.0
C596 C 0.36684 0.97058 0.86222 0.0
C597 C 0.35164 0.00544 0.89087 0.0
C598 C 0.32221 0.98144 0.8966 0.0
Tb599 Tb 0.36984 0.91438 0.82463 0.0
N600 N 0.38819 0.96417 0.84767 0.0
C601 C 0.40446 0.02274 0.87454 0.0
C602 C 0.41797 0.98579 0.85302 0.0
C603 C 0.42644 0.01527 0.86516 0.0
H604 H 0.2992 0.87206 0.85818 0.0
H605 H 0.45 0.03191 0.86917 0.0
H606 H 0.49696 0.92872 0.81038 0.0
H607 H 0.32993 0.79653 0.76706 0.0
H608 H 0.43557 0.9804 0.85214 0.0
H609 H 0.41115 0.04552 0.88463 0.0
H610 H 0.35539 0.84625 0.80184 0.0
H611 H 0.2591 0.87897 0.89053 0.0
H612 H 0.35691 0.02793 0.90034 0.0
H613 H 0.30512 0.98579 0.90988 0.0
H614 H 0.53074 0.915 0.77092 0.0
H615 H 0.26879 0.93013 0.90799 0.0
H616 H 0.35948 0.77311 0.7427 0.0
N617 N 0.45832 0.88516 0.80364 0.0
C618 C 0.44654 0.85688 0.78678 0.0
C619 C 0.50714 0.89843 0.77536 0.0
C620 C 0.46489 0.84817 0.76387 0.0
C621 C 0.48801 0.90616 0.79751 0.0
C622 C 0.49565 0.86919 0.75904 0.0
N623 N 0.39826 0.84918 0.8057 0.0
C624 C 0.36828 0.83552 0.79519 0.0
C625 C 0.40196 0.8104 0.76516 0.0
C626 C 0.41534 0.83814 0.78794 0.0
C627 C 0.37064 0.79447 0.76006 0.0
C628 C 0.35387 0.80757 0.77386 0.0
H629 H 0.51049 0.86338 0.74152 0.0
H630 H 0.4655 0.81211 0.72741 0.0
H631 H 0.4104 0.7791 0.72831 0.0
O632 O 0.43761 0.86454 0.87974 0.0
O633 O 0.4286 0.89735 0.77154 0.0
O634 O 0.38576 0.89973 0.75812 0.0
O635 O 0.46712 0.91219 0.88214 0.0
O636 O 0.3828 0.8587 0.87989 0.0
O637 O 0.34839 0.87369 0.86568 0.0
O638 O 0.34355 0.92618 0.78605 0.0
O639 O 0.38722 0.92905 0.89731 0.0
O640 O 0.43004 0.92559 0.90181 0.0
O641 O 0.33253 0.8795 0.79177 0.0
O642 O 0.40714 0.94276 0.78346 0.0
O643 O 0.44569 0.93944 0.81802 0.0
C644 C 0.40851 0.89541 0.74203 0.0
C645 C 0.4688 0.8829 0.94227 0.0
C646 C 0.46433 0.84926 1.00267 0.0
C647 C 0.47996 0.87451 1.03047 0.0
C648 C 0.4846 0.90783 0.97031 0.0
C649 C 0.49026 0.90357 1.01416 0.0
C650 C 0.45973 0.85393 0.95833 0.0
C651 C 0.35499 0.85442 0.88321 0.0
C652 C 0.46253 0.88623 0.89568 0.0
C653 C 0.45173 0.81942 0.74467 0.0
C654 C 0.42033 0.80056 0.74532 0.0
C655 C 0.41273 0.93565 0.91964 0.0
C656 C 0.32186 0.89482 0.72333 0.0
C657 C 0.32587 0.91702 0.65036 0.0
C658 C 0.30897 0.88793 0.63234 0.0
C659 C 0.30485 0.86596 0.70484 0.0
C660 C 0.3328 0.92009 0.69569 0.0
C661 C 0.29876 0.86259 0.65947 0.0
C662 C 0.43551 0.95189 0.78927 0.0
C663 C 0.32675 0.89862 0.77157 0.0
H664 H 0.48348 0.87187 1.06513 0.0
H665 H 0.49259 0.93049 0.95845 0.0
H666 H 0.50222 0.92281 1.03579 0.0
H667 H 0.44862 0.83481 0.93616 0.0
H668 H 0.30303 0.88469 0.5976 0.0
H669 H 0.29605 0.84607 0.72551 0.0
H670 H 0.3466 0.94236 0.7096 0.0
H671 H 0.28557 0.84028 0.64544 0.0
Tb672 Tb 0.53208 0.42436 0.19994 0.0
C673 C 0.39335 0.33524 0.22625 0.0
N674 N 0.41865 0.33368 0.23319 0.0
C675 C 0.39853 0.30848 0.30242 0.0
C676 C 0.37 0.32448 0.25792 0.0
C677 C 0.4211 0.31956 0.27001 0.0
C678 C 0.37303 0.31129 0.29665 0.0
C679 C 0.36386 0.34705 0.17649 0.0
C680 C 0.39039 0.34629 0.18621 0.0
C681 C 0.34114 0.3379 0.20875 0.0
C682 C 0.34418 0.32654 0.2494 0.0
Tb683 Tb 0.45558 0.35474 0.18029 0.0
N684 N 0.41262 0.35427 0.15573 0.0
C685 C 0.36051 0.35595 0.13417 0.0
C686 C 0.40819 0.36068 0.11331 0.0
C687 C 0.38257 0.36229 0.10222 0.0
H688 H 0.44084 0.31761 0.27516 0.0
H689 H 0.37982 0.36829 1.06891 0.0
H690 H 0.52477 0.47857 0.24658 0.0
H691 H 0.6191 0.4291 0.09336 0.0
H692 H 0.42472 0.36538 1.08789 0.0
H693 H 0.34056 0.35698 0.12541 0.0
H694 H 0.57598 0.40512 0.14535 0.0
H695 H 0.40089 0.29791 0.33194 0.0
H696 H 0.32076 0.33864 0.20208 0.0
H697 H 0.32612 0.31874 0.27352 0.0
H698 H 0.55131 0.53413 0.24449 0.0
H699 H 0.35559 0.30271 0.32181 0.0
H700 H 0.64006 0.48247 1.07207 0.0
N701 N 0.55019 0.47491 0.19358 0.0
C702 C 0.57273 0.48982 0.16367 0.0
C703 C 0.55736 0.52192 0.22135 0.0
C704 C 0.5878 0.52147 0.16034 0.0
C705 C 0.54209 0.4904 0.22203 0.0
C706 C 0.57988 0.53749 0.18975 0.0
N707 N 0.57099 0.44379 0.14999 0.0
C708 C 0.58462 0.42823 0.13533 0.0
C709 C 0.60853 0.48846 0.11249 0.0
C710 C 0.58333 0.47361 0.14074 0.0
C711 C 0.62074 0.47188 0.09401 0.0
C712 C 0.60903 0.44176 0.10606 0.0
H713 H 0.59135 0.56182 0.18902 0.0
H714 H 0.62324 0.56035 0.12639 0.0
H715 H 0.64101 0.53143 1.0839 0.0
O716 O 0.54936 0.40854 0.25039 0.0
O717 O 0.52973 0.41805 0.12538 0.0
O718 O 0.48343 0.37505 0.11204 0.0
O719 O 0.56878 0.45567 0.23813 0.0
O720 O 0.52814 0.37814 0.19494 0.0
O721 O 0.48515 0.35439 0.23175 0.0
O722 O 0.4233 0.3103 0.16288 0.0
O723 O 0.45475 0.37916 0.24611 0.0
O724 O 0.50081 0.42292 0.25532 0.0
O725 O 0.47031 0.32554 0.15682 0.0
O726 O 0.46521 0.39157 0.14111 0.0
O727 O 0.49362 0.43218 0.18456 0.0
C728 C 0.51061 0.39827 0.09606 0.0
C729 C 0.6028 0.43852 0.25311 0.0
C730 C 0.63905 0.42307 0.27456 0.0
C731 C 0.65982 0.44359 0.2439 0.0
C732 C 0.6247 0.46009 0.22451 0.0
C733 C 0.65264 0.46202 0.21917 0.0
C734 C 0.61025 0.4202 0.27818 0.0
C735 C 0.50974 0.35474 0.21995 0.0
C736 C 0.57244 0.4352 0.25727 0.0
C737 C 0.61163 0.53614 0.13 0.0
C738 C 0.62182 0.51964 0.10583 0.0
C739 C 0.47268 0.40444 0.27004 0.0
C740 C 0.43856 0.29188 0.10321 0.0
C741 C 0.4265 0.29587 1.0264 0.0
C742 C 0.42791 0.26994 1.01599 0.0
C743 C 0.43967 0.26586 0.09283 0.0
C744 C 0.43295 0.30707 1.06971 0.0
C745 C 0.43468 0.25513 1.04915 0.0
C746 C 0.47288 0.41837 0.15344 0.0
C747 C 0.44327 0.30378 0.14853 0.0
H748 H 0.68193 0.44601 0.23997 0.0
H749 H 0.62043 0.47558 0.20617 0.0
H750 H 0.66902 0.47833 0.19642 0.0
H751 H 0.59399 0.4047 0.30191 0.0
H752 H 0.42313 0.26078 0.98277 0.0
H753 H 0.44437 0.25394 0.11829 0.0
H754 H 0.43328 0.32767 1.07772 0.0
H755 H 0.43556 0.23503 1.04114 0.0
Tb756 Tb 0.10858 0.53499 0.54573 0.0
C757 C 0.02704 0.39488 0.56883 0.0
N758 N 0.0565 0.41688 0.57251 0.0
C759 C 0.06134 0.3931 0.63804 0.0
C760 C 0.01344 0.37154 0.60033 0.0
C761 C 0.07402 0.41559 0.6057 0.0
C762 C 0.03088 0.37115 0.6356 0.0
C763 C 0.98105 0.37168 0.52552 0.0
C764 C 0.01093 0.39518 0.53222 0.0
C765 C 0.96706 0.34898 0.55762 0.0
C766 C 0.98316 0.34899 0.59504 0.0
Tb767 Tb 0.0746 0.4523 0.51703 0.0
N768 N 0.02559 0.41691 0.5011 0.0
C769 C 0.96667 0.37089 0.48579 0.0
C770 C 0.01203 0.41537 0.46142 0.0
C771 C 0.98232 0.39269 0.45347 0.0
H772 H 0.09761 0.43213 0.60818 0.0
H773 H 0.97174 0.39166 0.42204 0.0
H774 H 0.08524 0.58493 0.52012 0.0
H775 H 0.18895 0.51558 0.4516 0.0
H776 H 0.02446 0.43115 0.43528 0.0
H777 H 0.94391 0.35293 0.47906 0.0
H778 H 0.14223 0.49978 0.49157 0.0
H779 H 0.07514 0.39262 0.66473 0.0
H780 H 0.94413 0.33077 0.55318 0.0
H781 H 0.97227 0.33097 0.61902 0.0
H782 H 0.10488 0.63176 0.47915 0.0
H783 H 0.02123 0.35365 0.66055 0.0
H784 H 0.21932 0.56826 0.42638 0.0
N785 N 0.12092 0.57678 0.50243 0.0
C786 C 0.14819 0.58855 0.48163 0.0
C787 C 0.11718 0.61972 0.47919 0.0
C788 C 0.16081 0.61631 0.45886 0.0
C789 C 0.10559 0.5923 0.50153 0.0
C790 C 0.14501 0.63192 0.45808 0.0
N791 N 0.14763 0.54317 0.49802 0.0
C792 C 0.156 0.52294 0.48493 0.0
C793 C 0.18852 0.58129 0.45388 0.0
C794 C 0.16214 0.5713 0.47972 0.0
C795 C 0.19925 0.56151 0.44611 0.0
C796 C 0.18228 0.53185 0.46042 0.0
H797 H 0.15394 0.65324 0.4409 0.0
H798 H 0.19849 0.64872 0.41933 0.0
H799 H 0.22265 0.61792 0.41467 0.0
O800 O 0.1426 0.57143 0.58101 0.0
O801 O 0.09999 0.5318 0.47041 0.0
O802 O 0.08625 0.48252 0.45205 0.0
O803 O 0.09708 0.56335 0.5808 0.0
O804 O 0.13832 0.52003 0.5761 0.0
O805 O 0.11862 0.47047 0.55376 0.0
O806 O 0.06442 0.41119 0.48731 0.0
O807 O 0.05566 0.45576 0.58555 0.0
O808 O 0.07868 0.50599 0.60571 0.0
O809 O 0.10926 0.44874 0.48476 0.0
O810 O 0.0507 0.47246 0.4885 0.0
O811 O 0.05973 0.50658 0.54156 0.0
C812 C 0.09489 0.51131 0.43871 0.0
C813 C 0.13136 0.59831 0.63408 0.0
C814 C 0.16895 0.64047 0.67785 0.0
C815 C 0.14741 0.63207 0.71215 0.0
C816 C 0.11029 0.59019 0.66842 0.0
C817 C 0.11825 0.60741 0.70709 0.0
C818 C 0.15991 0.62404 0.63821 0.0
C819 C 0.13988 0.49509 0.57401 0.0
C820 C 0.12483 0.58145 0.5926 0.0
C821 C 0.18832 0.62727 0.4364 0.0
C822 C 0.20217 0.6098 0.43394 0.0
C823 C 0.05902 0.47659 0.61578 0.0
C824 C 0.09036 0.41932 0.41959 0.0
C825 C 0.06234 0.40337 0.3498 0.0
C826 C 0.08977 0.41862 0.32654 0.0
C827 C 0.11747 0.43413 0.39563 0.0
C828 C 0.06294 0.40329 0.39629 0.0
C829 C 0.11712 0.43358 0.34939 0.0
C830 C 0.04533 0.49246 0.5058 0.0
C831 C 0.09053 0.4224 0.4684 0.0
H832 H 0.1533 0.64345 0.74381 0.0
H833 H 0.08795 0.57064 0.66547 0.0
H834 H 0.10211 0.60103 0.73387 0.0
H835 H 0.17547 0.63052 0.61061 0.0
H836 H 0.09008 0.41891 0.2907 0.0
H837 H 0.13887 0.44655 0.41265 0.0
H838 H 0.04183 0.39165 0.41421 0.0
H839 H 0.13811 0.44525 0.33116 0.0
Tb840 Tb 0.56563 0.10863 0.8593 0.0
C841 C 0.68485 0.0991 0.89341 0.0
N842 N 0.68072 0.11757 0.86549 0.0
C843 C 0.73241 0.15637 0.87624 0.0
C844 C 0.71227 0.10966 0.91659 0.0
C845 C 0.70497 0.14492 0.85389 0.0
C846 C 0.73576 0.13902 0.90874 0.0
C847 C 0.66759 0.04864 0.92175 0.0
C848 C 0.6629 0.06866 0.89549 0.0
C849 C 0.69383 0.05972 0.9474 0.0
C850 C 0.71613 0.09012 0.94476 0.0
Tb851 Tb 0.63467 0.09487 0.83073 0.0
N852 N 0.63772 0.05835 0.87002 0.0
C853 C 0.64623 0.01786 0.92042 0.0
C854 C 0.61776 0.028 0.86654 0.0
C855 C 0.62143 0.00748 0.89227 0.0
H856 H 0.70303 0.15832 0.82787 0.0
H857 H 0.60513 0.98366 0.89035 0.0
H858 H 0.49627 0.05817 0.82834 0.0
H859 H 0.64281 0.21563 0.77878 0.0
H860 H 0.59847 0.01979 0.84505 0.0
H861 H 0.64906 0.00185 0.94018 0.0
H862 H 0.62992 0.16785 0.8134 0.0
H863 H 0.751 0.17851 0.86819 0.0
H864 H 0.69761 0.04473 0.96815 0.0
H865 H 0.73685 0.09802 0.96328 0.0
H866 H 0.45467 0.05768 0.78646 0.0
H867 H 0.75714 0.14788 0.92579 0.0
H868 H 0.6024 0.22482 0.7532 0.0
N869 N 0.52678 0.10449 0.8173 0.0
C870 C 0.53126 0.13048 0.7987 0.0
C871 C 0.47611 0.07832 0.78961 0.0
C872 C 0.50792 0.13159 0.77575 0.0
C873 C 0.49988 0.07845 0.81247 0.0
C874 C 0.47996 0.10513 0.77185 0.0
N875 N 0.58273 0.15147 0.81637 0.0
C876 C 0.61207 0.17224 0.80698 0.0
C877 C 0.56653 0.18151 0.77576 0.0
C878 C 0.56024 0.15509 0.79883 0.0
C879 C 0.59658 0.20421 0.77077 0.0
C880 C 0.61945 0.19915 0.78531 0.0
H881 H 0.46149 0.10501 0.75432 0.0
H882 H 0.49587 0.16011 0.73862 0.0
H883 H 0.54726 0.2039 0.73865 0.0
O884 O 0.56151 0.13855 0.90255 0.0
O885 O 0.56964 0.10681 0.78327 0.0
O886 O 0.61633 0.11022 0.76821 0.0
O887 O 0.52564 0.09288 0.89654 0.0
O888 O 0.61198 0.1418 0.89016 0.0
O889 O 0.65213 0.14099 0.85462 0.0
O890 O 0.6329 0.06147 0.78826 0.0
O891 O 0.6101 0.07123 0.89838 0.0
O892 O 0.56846 0.07754 0.91218 0.0
O893 O 0.66815 0.10774 0.78231 0.0
O894 O 0.59091 0.08287 0.83226 0.0
O895 O 0.54489 0.0606 0.8387 0.0
C896 C 0.59051 0.1098 0.75336 0.0
C897 C 0.51182 0.13016 0.91016 0.0
C898 C 0.49943 0.16911 0.92869 0.0
C899 C 0.47047 0.15107 0.91094 0.0
C900 C 0.48226 0.1119 0.89436 0.0
C901 C 0.46206 0.12267 0.89364 0.0
C902 C 0.52013 0.15871 0.92713 0.0
C903 C 0.64185 0.15308 0.88338 0.0
C904 C 0.53366 0.11929 0.91257 0.0
C905 C 0.51363 0.15864 0.75581 0.0
C906 C 0.54289 0.18361 0.75593 0.0
C907 C 0.58555 0.06545 0.92397 0.0
C908 C 0.65317 0.07903 0.71642 0.0
C909 C 0.63387 0.04838 0.64964 0.0
C910 C 0.64918 0.07471 0.62387 0.0
C911 C 0.66836 0.10498 0.69 0.0
C912 C 0.63628 0.05085 0.69596 0.0
C913 C 0.66629 0.10274 0.64402 0.0
C914 C 0.56693 0.05748 0.82547 0.0
C915 C 0.65593 0.08091 0.7651 0.0
H916 H 0.45406 0.15846 0.91197 0.0
H917 H 0.47447 0.08915 0.88336 0.0
H918 H 0.43945 0.10852 0.88106 0.0
H919 H 0.54226 0.17203 0.9419 0.0
H920 H 0.64859 0.0737 0.58808 0.0
H921 H 0.68193 0.12703 0.70473 0.0
H922 H 0.62466 0.03087 0.71637 0.0
H923 H 0.6781 0.12281 0.62389 0.0
Tb924 Tb 0.45687 0.56369 0.19835 0.0
C925 C 0.59428 0.64454 0.22617 0.0
N926 N 0.56949 0.64757 0.22954 0.0
C927 C 0.58896 0.67592 0.2967 0.0
C928 C 0.617 0.65633 0.25879 0.0
C929 C 0.56714 0.66406 0.26335 0.0
C930 C 0.61382 0.67175 0.29471 0.0
C931 C 0.6237 0.62884 0.1827 0.0
C932 C 0.59734 0.63062 0.18889 0.0
C933 C 0.64586 0.63946 0.21588 0.0
C934 C 0.64246 0.65309 0.25393 0.0
Tb935 Tb 0.53471 0.62663 0.17379 0.0
N936 N 0.57558 0.62097 0.15725 0.0
C937 C 0.62755 0.61748 0.14272 0.0
C938 C 0.58003 0.611 0.11737 0.0
C939 C 0.60571 0.60871 0.10981 0.0
H940 H 0.54832 0.66784 0.26529 0.0
H941 H 0.60879 0.60052 1.07833 0.0
H942 H 0.45832 0.50689 0.25048 0.0
H943 H 0.36896 0.56319 0.09885 0.0
H944 H 0.56407 0.60508 0.09071 0.0
H945 H 0.64763 0.61605 0.13655 0.0
H946 H 0.41422 0.58589 0.14609 0.0
H947 H 0.58665 0.68841 0.32383 0.0
H948 H 0.66606 0.63792 0.21191 0.0
H949 H 0.66004 0.66179 0.2788 0.0
H950 H 0.42903 0.45185 0.2512 0.0
H951 H 0.63077 0.68112 0.32048 0.0
H952 H 0.34186 0.50839 1.08404 0.0
N953 N 0.43194 0.51196 0.20037 0.0
C954 C 0.40759 0.49735 0.17354 0.0
C955 C 0.4228 0.46436 0.22898 0.0
C956 C 0.3905 0.46561 0.17207 0.0
C957 C 0.43956 0.49586 0.22826 0.0
C958 C 0.39848 0.44911 0.20018 0.0
N959 N 0.41381 0.5446 0.15638 0.0
C960 C 0.40277 0.56199 0.13973 0.0
C961 C 0.37203 0.50031 0.12421 0.0
C962 C 0.3983 0.51434 0.15041 0.0
C963 C 0.36191 0.51828 0.1045 0.0
C964 C 0.3771 0.5492 0.11288 0.0
H965 H 0.38578 0.42471 0.20039 0.0
H966 H 0.35214 0.42709 0.142 0.0
H967 H 0.33606 0.45758 0.09968 0.0
O968 O 0.45978 0.58669 0.25741 0.0
O969 O 0.45678 0.56822 0.12378 0.0
O970 O 0.50506 0.60683 0.10707 0.0
O971 O 0.41853 0.54601 0.23922 0.0
O972 O 0.46322 0.61017 0.18333 0.0
O973 O 0.50701 0.63657 0.21828 0.0
O974 O 0.57238 0.66525 0.148 0.0
O975 O 0.53405 0.60325 0.24173 0.0
O976 O 0.48828 0.55925 0.24803 0.0
O977 O 0.52896 0.66162 0.1476 0.0
O978 O 0.52086 0.58795 0.13579 0.0
O979 O 0.48989 0.54922 0.18063 0.0
C980 C 0.4764 0.58563 0.09294 0.0
C981 C 0.41408 0.58604 0.27082 0.0
C982 C 0.41061 0.62695 0.3064 0.0
C983 C 0.38462 0.61941 0.28163 0.0
C984 C 0.38782 0.57858 0.24662 0.0
C985 C 0.37338 0.59537 0.25181 0.0
C986 C 0.42522 0.61017 0.3006 0.0
C987 C 0.48224 0.63528 0.20471 0.0
C988 C 0.43083 0.56979 0.26466 0.0
C989 C 0.36527 0.45144 0.14412 0.0
C990 C 0.35611 0.46879 0.12006 0.0
C991 C 0.51603 0.57735 0.26434 0.0
C992 C 0.5595 0.68313 1.08468 0.0
C993 C 0.57093 0.67333 1.00981 0.0
C994 C 0.56314 0.69405 0.99307 0.0
C995 C 0.55163 0.70356 1.06735 0.0
C996 C 0.56921 0.66827 1.05567 0.0
C997 C 0.55354 0.70903 1.02175 0.0
C998 C 0.51024 0.56064 0.14872 0.0
C999 C 0.55637 0.67632 0.13257 0.0
H1000 H 0.37289 0.63189 0.28566 0.0
H1001 H 0.37839 0.55986 0.22371 0.0
H1002 H 0.35326 0.58955 0.23292 0.0
H1003 H 0.44497 0.61536 0.32015 0.0
H1004 H 0.56412 0.69841 0.95786 0.0
H1005 H 0.54388 0.71512 0.08902 0.0
H1006 H 0.57589 0.65301 1.0688 0.0
H1007 H 0.5474 0.72481 1.00855 0.0
H1008 H 0.56277 0.21823 0.29963 0.0
H1009 H 0.46442 0.29622 0.23606 0.0
H1010 H 0.47007 0.16838 0.25825 0.0
H1011 H 0.56114 0.34695 0.22461 0.0
H1012 H 0.46692 0.25099 0.25202 0.0
H1013 H 0.56364 0.26564 0.28069 0.0
C1014 C 0.54252 0.217 0.28668 0.0
C1015 C 0.51636 0.18845 0.28043 0.0
C1016 C 0.48776 0.27186 0.24605 0.0
C1017 C 0.517 0.24389 0.25928 0.0
C1018 C 0.48641 0.2982 0.2369 0.0
C1019 C 0.51253 0.32638 0.22838 0.0
C1020 C 0.51563 0.27272 0.24832 0.0
C1021 C 0.54013 0.3262 0.23026 0.0
C1022 C 0.54308 0.24436 0.27571 0.0
C1023 C 0.49098 0.18925 0.26364 0.0
N1024 N 0.54093 0.30022 0.24031 0.0
N1025 N 0.49192 0.21598 0.25423 0.0
H1026 H 0.30114 0.47316 0.57839 0.0
H1027 H 0.18814 0.53813 0.6256 0.0
H1028 H 0.32012 0.53784 0.68191 0.0
H1029 H 0.16203 0.45639 0.55331 0.0
H1030 H 0.23708 0.54185 0.64251 0.0
H1031 H 0.25305 0.47095 0.56436 0.0
C1032 C 0.29538 0.48699 0.59856 0.0
C1033 C 0.31527 0.50508 0.63256 0.0
C1034 C 0.22066 0.52297 0.62315 0.0
C1035 C 0.25861 0.50323 0.61509 0.0
C1036 C 0.19231 0.5207 0.61343 0.0
C1037 C 0.16978 0.49658 0.58814 0.0
C1038 C 0.22772 0.50137 0.6069 0.0
C1039 C 0.17777 0.47525 0.57334 0.0
C1040 C 0.2675 0.4857 0.59025 0.0
C1041 C 0.30599 0.52314 0.65575 0.0
N1042 N 0.20557 0.47828 0.58251 0.0
N1043 N 0.27873 0.5217 0.64675 0.0
H1044 H 0.77679 0.34676 0.95727 0.0
H1045 H 0.69159 0.16371 0.93289 0.0
H1046 H 0.8222 0.29559 0.96318 0.0
H1047 H 0.65065 0.21272 0.88168 0.0
H1048 H 0.73657 0.21153 0.95307 0.0
H1049 H 0.72927 0.29973 0.93857 0.0
C1050 C 0.77704 0.32584 0.9551 0.0
C1051 C 0.80454 0.32611 0.9622 0.0
C1052 C 0.71783 0.21216 0.93768 0.0
C1053 C 0.74866 0.27064 0.9408 0.0
C1054 C 0.6918 0.18446 0.9258 0.0
C1055 C 0.66657 0.18314 0.90455 0.0
C1056 C 0.71955 0.24009 0.92952 0.0
C1057 C 0.66885 0.21168 0.89808 0.0
C1058 C 0.74959 0.29869 0.94408 0.0
C1059 C 0.80235 0.29748 0.95806 0.0
N1060 N 0.69442 0.23846 0.9103 0.0
N1061 N 0.77552 0.27161 0.94827 0.0
H1062 H 0.43012 0.64212 0.20105 0.0
H1063 H 0.52174 0.82296 0.24723 0.0
H1064 H 0.52541 0.69373 0.22673 0.0
H1065 H 0.42608 0.77147 0.26984 0.0
H1066 H 0.52203 0.77626 0.23167 0.0
H1067 H 0.42649 0.68767 0.21777 0.0
C1068 C 0.45037 0.6628 0.20994 0.0
C1069 C 0.47817 0.66311 0.21242 0.0
C1070 C 0.5008 0.77487 0.23986 0.0
C1071 C 0.47421 0.71681 0.23121 0.0
C1072 C 0.50055 0.80198 0.24869 0.0
C1073 C 0.47381 0.8022 0.25984 0.0
C1074 C 0.47397 0.74657 0.24111 0.0
C1075 C 0.44744 0.77323 0.2615 0.0
C1076 C 0.44824 0.68907 0.21973 0.0
C1077 C 0.5033 0.6914 0.22436 0.0
N1078 N 0.44818 0.7471 0.25208 0.0
N1079 N 0.50073 0.71644 0.23271 0.0
H1080 H 0.68658 0.51709 0.57597 0.0
H1081 H 0.79997 0.45249 0.62492 0.0
H1082 H 0.66116 0.44317 0.66574 0.0
H1083 H 0.8042 0.50027 0.50578 0.0
H1084 H 0.75284 0.45191 0.64542 0.0
H1085 H 0.73205 0.51498 0.55582 0.0
C1086 C 0.69035 0.50036 0.5918 0.0
C1087 C 0.66907 0.48035 0.62305 0.0
C1088 C 0.76404 0.4626 0.61477 0.0
C1089 C 0.72313 0.47804 0.5998 0.0
C1090 C 0.79126 0.46288 0.6028 0.0
C1091 C 0.80721 0.47671 0.56328 0.0
C1092 C 0.75209 0.47668 0.58773 0.0
C1093 C 0.79375 0.48966 0.53681 0.0
C1094 C 0.71667 0.49913 0.57999 0.0
C1095 C 0.67626 0.45924 0.64158 0.0
N1096 N 0.76782 0.48961 0.54954 0.0
N1097 N 0.70231 0.45887 0.63014 0.0
H1098 H 0.34481 0.79476 0.8845 0.0
H1099 H 0.1667 0.71379 0.95695 0.0
H1100 H 0.30053 0.84431 0.91909 0.0
H1101 H 0.2124 0.66429 0.9309 0.0
H1102 H 0.21437 0.76107 0.94132 0.0
H1103 H 0.29738 0.74738 0.90091 0.0
C1104 C 0.32548 0.79602 0.89615 0.0
C1105 C 0.3276 0.82452 0.90008 0.0
C1106 C 0.21401 0.73986 0.93865 0.0
C1107 C 0.27149 0.76887 0.9184 0.0
C1108 C 0.18637 0.7125 0.94732 0.0
C1109 C 0.18442 0.68401 0.94497 0.0
C1110 C 0.24077 0.7396 0.9273 0.0
C1111 C 0.21181 0.68503 0.93296 0.0
C1112 C 0.29796 0.76861 0.90515 0.0
C1113 C 0.30069 0.82351 0.91463 0.0
N1114 N 0.23818 0.71174 0.92478 0.0
N1115 N 0.27438 0.79676 0.92291 0.0
H1116 H 0.55158 0.22402 0.92922 0.0
H1117 H 0.60888 0.27388 0.12603 0.0
H1118 H 0.4643 0.17496 0.99149 0.0
H1119 H 0.52084 0.2074 0.17323 0.0
H1120 H 0.58615 0.27793 1.05766 0.0
H1121 H 0.57027 0.25715 0.99278 0.0
C1122 C 0.53605 0.22095 0.95578 0.0
C1123 C 0.50679 0.19592 0.95604 0.0
C1124 C 0.57159 0.26254 1.08284 0.0
C1125 C 0.52802 0.23346 1.02989 0.0
C1126 C 0.58462 0.26061 0.12238 0.0
C1127 C 0.56684 0.23919 0.15437 0.0
C1128 C 0.54077 0.2423 1.07512 0.0
C1129 C 0.53551 0.22322 0.14846 0.0
C1130 C 0.54673 0.23997 0.99247 0.0
C1131 C 0.48731 0.19351 0.99044 0.0
N1132 N 0.52356 0.22449 0.10907 0.0
N1133 N 0.49854 0.21142 1.02665 0.0
H1134 H 0.37639 0.63502 0.3684 0.0
H1135 H 0.43037 0.65591 0.57428 0.0
H1136 H 0.46844 0.67091 0.32569 0.0
H1137 H 0.51831 0.6936 0.51538 0.0
H1138 H 0.41079 0.66372 0.50558 0.0
H1139 H 0.39426 0.66002 0.43904 0.0
C1140 C 0.40047 0.64887 0.37358 0.0
C1141 C 0.42098 0.6498 0.342 0.0
C1142 C 0.43451 0.67098 0.50718 0.0
C1143 C 0.4419 0.67725 0.42406 0.0
C1144 C 0.44555 0.66635 0.54672 0.0
C1145 C 0.47549 0.67307 0.5496 0.0
C1146 C 0.45367 0.68196 0.47 0.0
C1147 C 0.49485 0.68763 0.51398 0.0
C1148 C 0.41083 0.66287 0.41453 0.0
C1149 C 0.45187 0.66855 0.35007 0.0
N1150 N 0.48344 0.69093 0.47523 0.0
N1151 N 0.46139 0.68084 0.39077 0.0
H1152 H 0.75623 0.35923 0.78337 0.0
H1153 H 0.85282 0.30082 0.67037 0.0
H1154 H 0.83442 0.35943 0.83678 0.0
H1155 H 0.79512 0.32755 0.60551 0.0
H1156 H 0.82485 0.29372 0.7392 0.0
H1157 H 0.74987 0.32012 0.73095 0.0
C1158 C 0.7716 0.35056 0.78486 0.0
C1159 C 0.79681 0.36373 0.8129 0.0
C1160 C 0.81748 0.2999 0.70945 0.0
C1161 C 0.78965 0.31928 0.75331 0.0
C1162 C 0.8334 0.3039 0.67019 0.0
C1163 C 0.82683 0.31585 0.63303 0.0
C1164 C 0.79538 0.30843 0.71123 0.0
C1165 C 0.80137 0.31922 0.63415 0.0
C1166 C 0.76778 0.32805 0.75524 0.0
C1167 C 0.81515 0.35066 0.8149 0.0
N1168 N 0.78698 0.31631 0.67309 0.0
N1169 N 0.81172 0.32974 0.78453 0.0
H1170 H 0.48579 0.82663 1.06686 0.0
H1171 H 0.39582 0.73293 0.20965 0.0
H1172 H 0.40998 0.80032 0.97951 0.0
H1173 H 0.3279 0.73537 0.12998 0.0
H1174 H 0.4248 0.73752 0.14297 0.0
H1175 H 0.45661 0.78 0.10749 0.0
C1176 C 0.46323 0.81075 1.05559 0.0
C1177 C 0.45004 0.81811 1.02074 0.0
C1178 C 0.40322 0.73634 0.13965 0.0
C1179 C 0.41628 0.76387 1.06662 0.0
C1180 C 0.38637 0.733 0.17775 0.0
C1181 C 0.36102 0.73654 0.17512 0.0
C1182 C 0.39411 0.74319 0.09953 0.0
C1183 C 0.34845 0.73444 0.13334 0.0
C1184 C 0.44657 0.78363 1.07843 0.0
C1185 C 0.42115 0.79606 1.00654 0.0
N1186 N 0.36587 0.73941 0.09695 0.0
N1187 N 0.40506 0.77036 1.03015 0.0
H1188 H 0.69367 0.44581 0.31637 0.0
H1189 H 0.67047 0.41891 0.52905 0.0
H1190 H 0.60638 0.36526 0.30673 0.0
H1191 H 0.60574 0.32645 0.49879 0.0
H1192 H 0.69028 0.4255 0.45442 0.0
H1193 H 0.70351 0.42628 0.38365 0.0
C1194 C 0.67677 0.42368 0.32779 0.0
C1195 C 0.64852 0.40773 0.30696 0.0
C1196 C 0.67269 0.40328 0.46418 0.0
C1197 C 0.65901 0.38614 0.38553 0.0
C1198 C 0.66131 0.39963 0.50704 0.0
C1199 C 0.63585 0.37245 0.51936 0.0
C1200 C 0.65795 0.37967 0.43339 0.0
C1201 C 0.62507 0.34799 0.49014 0.0
C1202 C 0.68227 0.41273 0.36677 0.0
C1203 C 0.62788 0.37897 0.32295 0.0
N1204 N 0.63549 0.35246 0.44791 0.0
N1205 N 0.63321 0.36943 0.36197 0.0
H1206 H 0.24417 0.58945 0.7734 0.0
H1207 H 0.19593 0.69031 0.73396 0.0
H1208 H 0.22639 0.64207 0.86728 0.0
H1209 H 0.21928 0.64203 0.63968 0.0
H1210 H 0.2424 0.70428 0.77361 0.0
H1211 H 0.27264 0.63454 0.72862 0.0
C1212 C 0.24672 0.61053 0.78519 0.0
C1213 C 0.23021 0.61121 0.82184 0.0
C1214 C 0.23783 0.69139 0.74332 0.0
C1215 C 0.26123 0.66222 0.76976 0.0
C1216 C 0.21091 0.683 0.72097 0.0
C1217 C 0.20166 0.66178 0.68655 0.0
C1218 C 0.25389 0.67657 0.73273 0.0
C1219 C 0.22366 0.65602 0.66858 0.0
C1220 C 0.26336 0.63651 0.75986 0.0
C1221 C 0.23667 0.63967 0.83749 0.0
N1222 N 0.24849 0.66261 0.69271 0.0
N1223 N 0.25096 0.66399 0.81062 0.0
H1224 H 0.38306 0.95849 0.97889 0.0
H1225 H 0.52079 0.05499 0.16403 0.0
H1226 H 0.46821 0.96176 0.97196 0.0
H1227 H 0.43092 0.0383 0.18444 0.0
H1228 H 0.50367 0.02489 0.0949 0.0
H1229 H 0.39988 0.98841 1.04846 0.0
C1230 C 0.40536 0.96506 0.99113 0.0
C1231 C 0.42325 0.95573 0.96613 0.0
C1232 C 0.48723 0.02742 0.11402 0.0
C1233 C 0.44442 0.99322 1.05178 0.0
C1234 C 0.49731 0.04531 0.15495 0.0
C1235 C 0.47816 0.05085 0.18378 0.0
C1236 C 0.45679 0.0135 0.098 0.0
C1237 C 0.44779 0.03613 0.16602 0.0
C1238 C 0.41526 0.98279 1.03228 0.0
C1239 C 0.45228 0.96688 0.98746 0.0
N1240 N 0.43873 0.01916 0.12626 0.0
N1241 N 0.46134 0.9842 1.02684 0.0
H1242 H 0.41628 0.37513 0.32152 0.0
H1243 H 0.45921 0.50529 0.51877 0.0
H1244 H 0.50246 0.45604 0.32842 0.0
H1245 H 0.37873 0.41879 0.52627 0.0
H1246 H 0.4736 0.48885 0.4505 0.0
H1247 H 0.40128 0.39031 0.39096 0.0
C1248 C 0.43251 0.39613 0.33681 0.0
C1249 C 0.46146 0.41356 0.31575 0.0
C1250 C 0.45262 0.47311 0.46636 0.0
C1251 C 0.44312 0.43249 0.40097 0.0
C1252 C 0.44407 0.48275 0.50678 0.0
C1253 C 0.41705 0.46417 0.53168 0.0
C1254 C 0.43439 0.44396 0.44688 0.0
C1255 C 0.39975 0.43499 0.51083 0.0
C1256 C 0.42362 0.40505 0.37781 0.0
C1257 C 0.48 0.44077 0.34068 0.0
N1258 N 0.40835 0.42641 0.47137 0.0
N1259 N 0.47079 0.4488 0.37992 0.0
H1260 H 0.05717 0.50959 0.69433 0.0
H1261 H 0.93432 0.37076 0.85912 0.0
H1262 H 0.01125 0.41819 0.64869 0.0
H1263 H 0.94851 0.46022 0.87065 0.0
H1264 H 0.96627 0.38671 0.79125 0.0
H1265 H 0.02612 0.49282 0.76277 0.0
C1266 C 0.04067 0.48589 0.69748 0.0
C1267 C 0.03854 0.46612 0.66201 0.0
C1268 C 0.96273 0.40326 0.80819 0.0
C1269 C -0.00079 0.4454 0.74617 0.0
C1270 C 0.94381 0.39387 0.84837 0.0
C1271 C 0.93674 0.41326 0.87395 0.0
C1272 C 0.97719 0.43344 0.79089 0.0
C1273 C 0.95164 0.44316 0.85453 0.0
C1274 C 0.02208 0.47608 0.73785 0.0
C1275 C 0.01543 0.43549 0.67259 0.0
N1276 N 0.97038 0.45177 0.81652 0.0
N1277 N -0.00226 0.42671 0.71172 0.0
H1278 H 0.47631 0.93891 0.15904 0.0
H1279 H 0.61507 0.03987 0.97806 0.0
H1280 H 0.56435 0.94959 0.17432 0.0
H1281 H 0.53043 0.03786 0.97588 0.0
H1282 H 0.59758 0.00665 1.04435 0.0
H1283 H 0.49447 0.97156 0.09265 0.0
C1284 C 0.49958 0.94779 0.14927 0.0
C1285 C 0.51791 0.93983 0.17561 0.0
C1286 C 0.58245 0.0132 1.02979 0.0
C1287 C 0.54051 0.98034 0.0937 0.0
C1288 C 0.5927 0.03271 0.99051 0.0
C1289 C 0.57505 0.04329 0.96797 0.0
C1290 C 0.55332 0.00237 1.04961 0.0
C1291 C 0.54607 0.0317 0.98958 0.0
C1292 C 0.51027 0.96719 0.1101 0.0
C1293 C 0.54815 0.95373 0.15756 0.0
N1294 N 0.53672 0.01275 1.02713 0.0
N1295 N 0.55784 0.97232 0.11948 0.0
H1296 H 0.60522 0.56229 0.52911 0.0
H1297 H 0.48704 0.52253 0.31609 0.0
H1298 H 0.53081 0.47341 0.50663 0.0
H1299 H 0.56973 0.60707 0.32325 0.0
H1300 H 0.50127 0.50642 0.38424 0.0
H1301 H 0.59247 0.57935 0.4599 0.0
C1302 C 0.5861 0.5458 0.51038 0.0
C1303 C 0.5699 0.51545 0.52728 0.0
C1304 C 0.51668 0.5285 0.37153 0.0
C1305 C 0.55364 0.5365 0.44169 0.0
C1306 C 0.50839 0.53823 0.33104 0.0
C1307 C 0.52651 0.56703 0.30997 0.0
C1308 C 0.54397 0.54696 0.39534 0.0
C1309 C 0.55394 0.58474 0.33521 0.0
C1310 C 0.5786 0.55598 0.46941 0.0
C1311 C 0.54509 0.49686 0.49788 0.0
N1312 N 0.56123 0.57479 0.3747 0.0
N1313 N 0.53817 0.50737 0.45872 0.0
H1314 H 0.05032 0.61671 0.86723 0.0
H1315 H 0.95438 0.48407 0.67743 0.0
H1316 H 0.06094 0.53929 0.85505 0.0
H1317 H 0.96701 0.57287 0.6644 0.0
H1318 H 0.9862 0.50074 0.74444 0.0
H1319 H 0.01797 0.60027 0.80043 0.0
C1320 C 0.04639 0.59619 0.85119 0.0
C1321 C 0.06045 0.58047 0.87005 0.0
C1322 C 0.98308 0.51719 0.72679 0.0
C1323 C 0.01948 0.55943 0.78793 0.0
C1324 C 0.96372 0.50729 0.68747 0.0
C1325 C 0.95623 0.52619 0.66159 0.0
C1326 C -0.0028 0.54732 0.74368 0.0
C1327 C 0.97081 0.55623 0.68044 0.0
C1328 C 0.02715 0.58651 0.8117 0.0
C1329 C 0.05222 0.55356 0.84437 0.0
N1330 N 0.98958 0.56521 0.71843 0.0
N1331 N 0.03303 0.54441 0.80682 0.0
H1332 H 0.56375 0.07776 0.36623 0.0
H1333 H 0.46323 0.93502 0.38523 0.0
H1334 H 0.47553 0.03472 0.4236 0.0
H1335 H 0.54948 0.98561 0.32105 0.0
H1336 H 0.48258 0.96919 0.44841 0.0
H1337 H 0.57972 0.05618 0.42513 0.0
C1338 C 0.54734 0.06246 0.38897 0.0
C1339 C 0.51652 0.05263 0.3837 0.0
C1340 C 0.49733 0.97298 0.42043 0.0
C1341 C 0.53345 0.02549 0.44454 0.0
C1342 C 0.48578 0.95444 0.38362 0.0
C1343 C 0.50409 0.95936 0.34658 0.0
C1344 C 0.52673 -0.00195 0.4188 0.0
C1345 C 0.53395 0.98285 0.34746 0.0
C1346 C 0.5566 0.05138 0.42426 0.0
C1347 C 0.49786 0.03795 0.42059 0.0
N1348 N 0.54431 0.00139 0.38283 0.0
N1349 N 0.50793 0.0266 0.45266 0.0
H1350 H 0.46952 0.52561 0.75555 0.0
H1351 H 0.55462 0.50094 0.77358 0.0
H1352 H 0.39902 0.43445 0.73276 0.0
H1353 H 0.48953 0.44479 0.67554 0.0
H1354 H 0.5153 0.48377 0.82814 0.0
H1355 H 0.48403 0.50769 0.82106 0.0
C1356 C 0.45787 0.50175 0.76299 0.0
C1357 C 0.43629 0.4805 0.73402 0.0
C1358 C 0.50984 0.47416 0.79518 0.0
C1359 C 0.45634 0.46062 0.80221 0.0
C1360 C 0.53219 0.48454 0.76315 0.0
C1361 C 0.5255 0.47473 0.71875 0.0
C1362 C 0.47997 0.45605 0.78191 0.0
C1363 C 0.496 0.45295 0.70872 0.0
C1364 C 0.46539 0.49149 0.80105 0.0
C1365 C 0.41898 0.45072 0.74964 0.0
N1366 N 0.47425 0.44465 0.73989 0.0
N1367 N 0.42869 0.44161 0.78502 0.0
H1368 H 0.97263 0.43452 0.09191 0.0
H1369 H 0.05771 0.52959 0.94038 0.0
H1370 H 0.96751 0.41961 0.95114 0.0
H1371 H 0.0543 0.53271 1.08272 0.0
H1372 H 0.04657 0.47795 0.94441 0.0
H1373 H 0.0222 0.43852 0.0906 0.0
C1374 C 0.98235 0.4336 1.06047 0.0
C1375 C 0.96739 0.43111 1.0204 0.0
C1376 C 0.04918 0.49011 0.97494 0.0
C1377 C 0.0253 0.44292 1.01931 0.0
C1378 C 0.05533 0.51959 0.97261 0.0
C1379 C 0.0573 0.53533 1.01136 0.0
C1380 C 0.04419 0.47608 1.01655 0.0
C1381 C 0.05322 0.52128 1.05215 0.0
C1382 C 0.00996 0.43451 1.05978 0.0
C1383 C 0.97964 0.42633 0.98168 0.0
N1384 N 0.04723 0.49256 1.05373 0.0
N1385 N 0.00805 0.43073 0.98258 0.0
H1386 H 0.04326 0.54313 0.52012 0.0
H1387 H 0.93912 0.47914 0.42553 0.0
H1388 H 0.02726 0.4776 0.4191 0.0
H1389 H 0.97711 0.56697 0.48666 0.0
H1390 H 0.97148 0.50346 0.36158 0.0
H1391 H 0.03911 0.57481 0.46473 0.0
C1392 C 0.03867 0.53538 0.48624 0.0
C1393 C 0.03547 0.50775 0.47469 0.0
C1394 C 0.97216 0.5174 0.38903 0.0
C1395 C 0.02288 0.54025 0.41323 0.0
C1396 C 0.9541 0.50327 0.42604 0.0
C1397 C 0.95734 0.52049 0.46414 0.0
C1398 C -0.00185 0.5453 0.39724 0.0
C1399 C 0.97561 0.55205 0.46031 0.0
C1400 C 0.0361 0.55328 0.45428 0.0
C1401 C 0.0284 0.4981 0.43046 0.0
N1402 N 0.99363 0.56401 0.4241 0.0
N1403 N 0.02172 0.51402 0.40147 0.0
H1404 H 0.47596 0.01223 0.7999 0.0
H1405 H 0.59414 0.06252 0.74289 0.0
H1406 H 0.43774 0.94577 0.69888 0.0
H1407 H 0.53409 0.99517 0.83497 0.0
H1408 H 0.56649 0.03161 0.68266 0.0
H1409 H 0.51898 0.04137 0.75037 0.0
C1410 C 0.47703 0.00311 0.76825 0.0
C1411 C 0.45596 0.97365 0.75687 0.0
C1412 C 0.56036 0.02269 0.71596 0.0
C1413 C 0.50748 0.00227 0.70905 0.0
C1414 C 0.57568 0.0412 0.75142 0.0
C1415 C 0.56391 0.03362 0.79467 0.0
C1416 C 0.53224 -0.00192 0.72471 0.0
C1417 C 0.54198 0.00353 0.80189 0.0
C1418 C 0.50127 0.01944 0.73958 0.0
C1419 C 0.45691 0.96434 0.71361 0.0
N1420 N 0.52722 0.98595 0.76635 0.0
N1421 N 0.48357 0.97747 0.69167 0.0
H1422 H 0.51044 0.56759 1.05834 0.0
H1423 H 0.45086 0.45773 0.16057 0.0
H1424 H 0.52376 0.51541 0.15591 0.0
H1425 H 0.46918 0.40787 1.06375 0.0
H1426 H 0.44636 0.48666 0.09891 0.0
H1427 H 0.49058 0.5251 1.0073 0.0
C1428 C 0.5088 0.54696 1.06932 0.0
C1429 C 0.51207 0.54162 0.11421 0.0
C1430 C 0.45162 0.46914 0.09145 0.0
C1431 C 0.49769 0.49727 1.05372 0.0
C1432 C 0.45497 0.4535 0.12716 0.0
C1433 C 0.46629 0.43431 0.11861 0.0
C1434 C 0.46746 0.47062 1.0521 0.0
C1435 C 0.46741 0.42702 1.07354 0.0
C1436 C 0.49993 0.52388 1.03885 0.0
C1437 C 0.51804 0.51871 0.12325 0.0
N1438 N 0.46818 0.44551 1.04109 0.0
N1439 N 0.51294 0.49815 0.09133 0.0
H1440 H 0.34476 0.92639 0.56338 0.0
H1441 H 0.41284 0.10141 0.56402 0.0
H1442 H 0.32933 0.97021 0.67443 0.0
H1443 H 0.37119 0.04911 0.44617 0.0
H1444 H 0.38972 0.05464 0.60707 0.0
H1445 H 0.36255 0.97269 0.5203 0.0
C1446 C 0.34488 0.94554 0.57867 0.0
C1447 C 0.33577 0.94437 0.62284 0.0
C1448 C 0.38564 0.05364 0.57176 0.0
C1449 C 0.35684 -0.00261 0.5742 0.0
C1450 C 0.3986 0.08027 0.54725 0.0
C1451 C 0.39435 0.07926 0.50126 0.0
C1452 C 0.36888 0.02594 0.54996 0.0
C1453 C 0.37591 0.05103 0.4813 0.0
C1454 C 0.35516 0.97193 0.55414 0.0
C1455 C 0.33692 0.9702 0.64099 0.0
N1456 N 0.36425 0.02544 0.50566 0.0
N1457 N 0.34761 0.99576 0.61677 0.0
H1458 H 0.44297 0.30939 0.93835 0.0
H1459 H 0.38952 0.42743 0.92429 0.0
H1460 H 0.38782 0.31657 1.0404 0.0
H1461 H 0.35736 0.36047 0.82037 0.0
H1462 H 0.41006 0.39976 0.96252 0.0
H1463 H 0.42975 0.33944 0.88895 0.0
C1464 C 0.42805 0.31709 0.95024 0.0
C1465 C 0.41698 0.31106 0.99385 0.0
C1466 C 0.39895 0.3916 0.93089 0.0
C1467 C 0.40296 0.34579 0.93873 0.0
C1468 C 0.38692 0.40709 0.90927 0.0
C1469 C 0.37086 0.39584 0.8696 0.0
C1470 C 0.39556 0.3651 0.91227 0.0
C1471 C 0.36943 0.37 0.8509 0.0
C1472 C 0.42078 0.3343 0.9223 0.0
C1473 C 0.39776 0.3216 1.00766 0.0
N1474 N 0.38138 0.35525 0.87268 0.0
N1475 N 0.39176 0.33884 0.98048 0.0
H1476 H 0.88232 0.28128 0.24627 0.0
H1477 H 0.04602 0.4261 0.2803 0.0
H1478 H 0.91228 0.36743 0.18494 0.0
H1479 H 0.01174 0.34828 0.36542 0.0
H1480 H -0.00246 0.40309 0.24231 0.0
H1481 H 0.92939 0.30386 0.28955 0.0
C1482 C 0.89868 0.30496 0.24219 0.0
C1483 C 0.89373 0.32243 0.21132 0.0
C1484 C 0.00053 0.39099 0.26933 0.0
C1485 C 0.94743 0.34825 0.26007 0.0
C1486 C 0.02835 0.40402 0.29074 0.0
C1487 C 0.03305 0.389 0.32587 0.0
C1488 C 0.97711 0.36259 0.28287 0.0
C1489 C 0.00905 0.36069 0.33858 0.0
C1490 C 0.92553 0.3178 0.26667 0.0
C1491 C 0.91556 0.35299 0.20736 0.0
N1492 N 0.98214 0.34831 0.31697 0.0
N1493 N 0.94145 0.36484 0.23109 0.0
H1494 H 0.60039 0.0341 0.57333 0.0
H1495 H 0.53609 0.85987 0.55999 0.0
H1496 H 0.62673 0.9939 0.67699 0.0
H1497 H 0.5902 0.91985 0.45492 0.0
H1498 H 0.5525 0.90408 0.60869 0.0
H1499 H 0.5772 0.98613 0.53374 0.0
C1500 C 0.60123 0.0153 0.58798 0.0
C1501 C 0.61628 0.01842 0.62814 0.0
C1502 C 0.56047 0.90719 0.5748 0.0
C1503 C 0.58853 0.96334 0.58394 0.0
C1504 C 0.55141 0.88216 0.54724 0.0
C1505 C 0.56131 0.88625 0.50307 0.0
C1506 C 0.57888 0.93614 0.55746 0.0
C1507 C 0.5811 0.91566 0.48818 0.0
C1508 C 0.58769 0.98793 0.56558 0.0
C1509 C 0.61541 0.9927 0.64624 0.0
N1510 N 0.58887 0.93948 0.51509 0.0
N1511 N 0.60192 0.96618 0.62381 0.0
H1512 H 0.61005 0.69594 0.93937 0.0
H1513 H 0.62009 0.54633 0.90752 0.0
H1514 H 0.55568 0.61394 1.01272 0.0
H1515 H 0.66553 0.62393 0.82224 0.0
H1516 H 0.59673 0.57102 0.94701 0.0
H1517 H 0.63019 0.66993 0.89539 0.0
C1518 C 0.60211 0.67239 0.94594 0.0
C1519 C 0.58142 0.65723 0.98018 0.0
C1520 C 0.61178 0.58266 0.91962 0.0
C1521 C 0.60474 0.62741 0.93042 0.0
C1522 C 0.62534 0.56867 0.89732 0.0
C1523 C 0.64503 0.58319 0.86176 0.0
C1524 C 0.61803 0.61149 0.90648 0.0
C1525 C 0.65043 0.61186 0.84936 0.0
C1526 C 0.61377 0.65759 0.92101 0.0
C1527 C 0.57215 0.62675 0.98741 0.0
N1528 N 0.63714 0.62511 0.8718 0.0
N1529 N 0.58401 0.61293 0.963 0.0
H1530 H 0.05475 0.63413 0.18776 0.0
H1531 H -0.00225 0.69793 0.38439 0.0
H1532 H 0.10789 0.7234 0.24221 0.0
H1533 H 0.95018 0.60584 0.33912 0.0
H1534 H 0.03451 0.71032 0.32447 0.0
H1535 H 0.01285 0.62577 0.23573 0.0
C1536 C 0.05743 0.65208 0.20952 0.0
C1537 C 0.08476 0.67949 0.21102 0.0
C1538 C 0.01578 0.6875 0.3273 0.0
C1539 C 0.03711 0.67 0.26654 0.0
C1540 C 0.99468 0.68052 0.36117 0.0
C1541 C 0.97114 0.65081 0.36678 0.0
C1542 C 0.01315 0.66456 0.29894 0.0
C1543 C 0.96827 0.62897 0.33613 0.0
C1544 C 0.03359 0.64727 0.23707 0.0
C1545 C 0.08729 0.70181 0.24044 0.0
N1546 N 0.98919 0.63622 0.30379 0.0
N1547 N 0.06378 0.69655 0.26717 0.0
H1548 H 0.58294 0.12976 0.44408 0.0
H1549 H 0.53585 0.10002 0.71224 0.0
H1550 H 0.49275 0.0994 0.48905 0.0
H1551 H 0.62415 0.12238 0.66781 0.0
H1552 H 0.52111 0.10107 0.63477 0.0
H1553 H 0.59821 0.12853 0.52151 0.0
C1554 C 0.56585 0.12295 0.46954 0.0
C1555 C 0.53579 0.11503 0.4561 0.0
C1556 C 0.54386 0.10582 0.64107 0.0
C1557 C 0.55457 0.11343 0.55203 0.0
C1558 C 0.55275 0.10531 0.68693 0.0
C1559 C 0.5821 0.11105 0.7007 0.0
C1560 C 0.56388 0.11242 0.60435 0.0
C1561 C 0.60131 0.11743 0.66231 0.0
C1562 C 0.57497 0.12217 0.51529 0.0
C1563 C 0.51618 0.10619 0.49442 0.0
N1564 N 0.59216 0.11797 0.61816 0.0
N1565 N 0.52567 0.10584 0.53835 0.0
H1566 H 0.44475 0.57129 0.78565 0.0
H1567 H 0.42604 0.53329 1.05574 0.0
H1568 H 0.38352 0.4828 0.83466 0.0
H1569 H 0.50117 0.61448 1.0052 0.0
H1570 H 0.40893 0.51668 0.97924 0.0
H1571 H 0.4627 0.58793 0.86204 0.0
C1572 C 0.43436 0.55487 0.81186 0.0
C1573 C 0.41125 0.52484 0.79993 0.0
C1574 C 0.42913 0.53828 0.98403 0.0
C1575 C 0.43335 0.54538 0.89451 0.0
C1576 C 0.43929 0.54831 1.02923 0.0
C1577 C 0.46578 0.57632 1.04089 0.0
C1578 C 0.44455 0.55585 0.94603 0.0
C1579 C 0.48072 0.59298 1.00127 0.0
C1580 C 0.44515 0.5648 0.85694 0.0
C1581 C 0.40054 0.50612 0.83901 0.0
N1582 N 0.47009 0.58289 0.95776 0.0
N1583 N 0.41112 0.51644 0.88242 0.0
H1584 H 0.89355 0.46336 0.13853 0.0
H1585 H 0.87193 0.42122 0.40747 0.0
H1586 H 0.8709 0.37573 0.18563 0.0
H1587 H 0.89499 0.50909 0.36051 0.0
H1588 H 0.87138 0.40502 0.33023 0.0
H1589 H 0.89373 0.47955 0.21561 0.0
C1590 C 0.88851 0.44699 0.1644 0.0
C1591 C 0.88244 0.41743 0.15177 0.0
C1592 C 0.87649 0.42791 0.33601 0.0
C1593 C 0.8828 0.43733 0.24709 0.0
C1594 C 0.87676 0.43758 0.38155 0.0
C1595 C 0.88321 0.46726 0.39425 0.0
C1596 C 0.8828 0.44741 0.2989 0.0
C1597 C 0.88944 0.48599 0.35555 0.0
C1598 C 0.88878 0.4567 0.20991 0.0
C1599 C 0.87652 0.39883 0.19054 0.0
N1600 N 0.88903 0.47603 0.31172 0.0
N1601 N 0.87686 0.40879 0.23434 0.0
H1602 H 0.41566 0.87687 0.43351 0.0
H1603 H 0.45745 0.89229 0.70222 0.0
H1604 H 0.4995 0.88786 0.48034 0.0
H1605 H 0.3772 0.88992 0.65589 0.0
H1606 H 0.47131 0.88892 0.62517 0.0
H1607 H 0.40102 0.87968 0.51052 0.0
C1608 C 0.43136 0.87957 0.45929 0.0
C1609 C 0.45937 0.88155 0.44648 0.0
C1610 C 0.45047 0.88891 0.631 0.0
C1611 C 0.44153 0.88532 0.54195 0.0
C1612 C 0.44202 0.89068 0.67658 0.0
C1613 C 0.41519 0.89111 0.68966 0.0
C1614 C 0.43251 0.88728 0.59391 0.0
C1615 C 0.39787 0.88946 0.65092 0.0
C1616 C 0.42268 0.88141 0.5048 0.0
C1617 C 0.47763 0.88582 0.48521 0.0
N1618 N 0.40657 0.88762 0.60695 0.0
N1619 N 0.46858 0.88732 0.52903 0.0
H1620 H 0.60272 0.50008 0.8342 0.0
H1621 H 0.48486 0.36615 1.01117 0.0
H1622 H 0.53706 0.4118 0.78948 0.0
H1623 H 0.55796 0.45124 1.05423 0.0
H1624 H 0.50106 0.38173 0.93312 0.0
H1625 H 0.58599 0.48367 0.91158 0.0
C1626 C 0.5849 0.47709 0.83958 0.0
C1627 C 0.57241 0.4579 0.80154 0.0
C1628 C 0.51397 0.39726 0.95932 0.0
C1629 C 0.55134 0.43769 0.89658 0.0
C1630 C 0.50444 0.38808 1.0054 0.0
C1631 C 0.51965 0.40649 1.04329 0.0
C1632 C 0.53946 0.42595 0.94752 0.0
C1633 C 0.54488 0.43497 1.02906 0.0
C1634 C 0.57501 0.46746 0.88526 0.0
C1635 C 0.54872 0.42832 0.81506 0.0
N1636 N 0.55339 0.44326 0.98462 0.0
N1637 N 0.53948 0.41972 0.85931 0.0
H1638 H 0.09124 0.48096 0.35474 0.0
H1639 H 0.09681 0.60828 0.17635 0.0
H1640 H 0.10091 0.56502 0.398 0.0
H1641 H 0.10825 0.53492 0.13337 0.0
H1642 H 0.09459 0.59159 0.25413 0.0
H1643 H 0.09358 0.49743 0.27671 0.0
C1644 C 0.09383 0.50293 0.34886 0.0
C1645 C 0.09592 0.52096 0.38658 0.0
C1646 C 0.09754 0.57879 0.22811 0.0
C1647 C 0.09837 0.54112 0.29104 0.0
C1648 C 0.09879 0.58853 0.18223 0.0
C1649 C 0.10287 0.57375 0.14465 0.0
C1650 C 0.09984 0.55298 0.23997 0.0
C1651 C 0.10522 0.5481 0.15866 0.0
C1652 C 0.09522 0.5126 0.30286 0.0
C1653 C 0.09922 0.54937 0.3726 0.0
N1654 N 0.10354 0.53897 0.20313 0.0
N1655 N 0.1001 0.55794 0.32804 0.0
loop_
_geom_bond_atom_site_label_1
_geom_bond_atom_site_label_2
_geom_bond_distance
_geom_bond_site_symmetry_2
_ccdc_geom_bond_type
Tb0 N29 2.617 . S
Tb0 N35 2.572 . S
Tb0 O44 2.465 . S
Tb0 O45 2.387 . S
Tb0 O47 2.428 . S
Tb0 O48 2.308 . S
Tb0 O52 2.349 . S
Tb0 O55 2.393 . S
Tb0 C64 2.802 . S
C1 N2 1.379 . S
C1 C4 1.416 . S
C1 C8 1.424 . S
N2 C1 1.379 . S
N2 C5 1.334 . S
N2 Tb11 2.617 . S
C3 C5 1.390 . S
C3 C6 1.339 . S
C3 H23 0.930 . S
C4 C1 1.416 . S
C4 C6 1.416 . S
C4 C10 1.448 . S
C5 N2 1.334 . S
C5 C3 1.390 . S
C5 H16 0.930 . S
C6 C3 1.339 . S
C6 C4 1.416 . S
C6 H27 0.930 . S
C7 C8 1.413 . S
C7 C9 1.427 . S
C7 C13 1.416 . S
C8 C1 1.424 . S
C8 C7 1.413 . S
C8 N12 1.361 . S
C9 C7 1.427 . S
C9 C10 1.328 . S
C9 H24 0.929 . S
C10 C4 1.448 . S
C10 C9 1.328 . S
C10 H25 0.930 . S
Tb11 N2 2.617 . S
Tb11 N12 2.572 . S
Tb11 O46 2.349 . S
Tb11 O49 2.393 . S
Tb11 O50 2.465 . S
Tb11 O51 2.387 . S
Tb11 O53 2.428 . S
Tb11 O54 2.308 . S
Tb11 C75 2.802 . S
N12 C8 1.361 . S
N12 Tb11 2.572 . S
N12 C14 1.340 . S
C13 C7 1.416 . S
C13 C15 1.332 . S
C13 H21 0.931 1_545 S
C14 N12 1.340 . S
C14 C15 1.407 . S
C14 H20 0.930 . S
C15 C13 1.332 . S
C15 C14 1.407 . S
C15 H17 0.929 1_545 S
H16 C5 0.930 . S
H17 C15 0.929 1_565 S
H18 C33 0.930 . S
H19 C40 0.929 . S
H20 C14 0.930 . S
H21 C13 0.931 1_565 S
H22 C36 0.930 . S
H23 C3 0.930 . S
H24 C9 0.929 . S
H25 C10 0.930 . S
H26 C31 0.930 . S
H27 C6 0.930 . S
H28 C39 0.931 . S
N29 Tb0 2.617 . S
N29 C30 1.379 . S
N29 C33 1.334 . S
C30 N29 1.379 . S
C30 C32 1.416 . S
C30 C38 1.424 . S
C31 H26 0.930 . S
C31 C33 1.390 . S
C31 C34 1.339 . S
C32 C30 1.416 . S
C32 C34 1.416 . S
C32 C65 1.448 . S
C33 H18 0.930 . S
C33 N29 1.334 . S
C33 C31 1.390 . S
C34 C31 1.339 . S
C34 C32 1.416 . S
C34 H41 0.930 . S
N35 Tb0 2.572 . S
N35 C36 1.340 . S
N35 C38 1.361 . S
C36 H22 0.930 . S
C36 N35 1.340 . S
C36 C40 1.407 . S
C37 C38 1.413 . S
C37 C39 1.416 . S
C37 C66 1.427 . S
C38 C30 1.424 . S
C38 N35 1.361 . S
C38 C37 1.413 . S
C39 H28 0.931 . S
C39 C37 1.416 . S
C39 C40 1.332 . S
C40 H19 0.929 . S
C40 C36 1.407 . S
C40 C39 1.332 . S
H41 C34 0.930 . S
H42 C65 0.930 . S
H43 C66 0.929 . S
O44 Tb0 2.465 . S
O44 C64 1.264 . S
O45 Tb0 2.387 . S
O45 C56 1.264 . S
O46 Tb11 2.349 . S
O46 C56 1.243 . S
O47 Tb0 2.428 . S
O47 C64 1.256 . S
O48 Tb0 2.308 . S
O48 C63 1.266 . S
O49 Tb11 2.393 . S
O49 C63 1.248 . S
O50 Tb11 2.465 . S
O50 C75 1.264 . S
O51 Tb11 2.387 . S
O51 C67 1.264 . S
O52 Tb0 2.349 . S
O52 C67 1.243 . S
O53 Tb11 2.428 . S
O53 C75 1.256 . S
O54 Tb11 2.308 . S
O54 C74 1.266 . S
O55 Tb0 2.393 . S
O55 C74 1.248 . S
C56 O45 1.264 . S
C56 O46 1.243 . S
C57 C60 1.399 . S
C57 C62 1.383 . S
C57 C64 1.496 . S
C58 C59 1.399 . S
C58 C62 1.389 . S
C59 C58 1.399 . S
C59 C61 1.380 . S
C59 H76 0.929 . S
C60 C57 1.399 . S
C60 C61 1.392 . S
C60 H77 0.929 . S
C61 C59 1.380 . S
C61 C60 1.392 . S
C61 H78 0.929 . S
C62 C57 1.383 . S
C62 C58 1.389 . S
C62 H79 0.931 . S
C63 O48 1.266 . S
C63 O49 1.248 . S
C64 Tb0 2.802 . S
C64 O44 1.264 . S
C64 O47 1.256 . S
C64 C57 1.496 . S
C65 C32 1.448 . S
C65 H42 0.930 . S
C65 C66 1.328 . S
C66 C37 1.427 . S
C66 H43 0.929 . S
C66 C65 1.328 . S
C67 O51 1.264 . S
C67 O52 1.243 . S
C68 C71 1.399 . S
C68 C72 1.383 . S
C68 C75 1.496 . S
C69 C70 1.399 . S
C69 C72 1.389 . S
C70 C69 1.399 . S
C70 C73 1.380 . S
C70 H80 0.929 . S
C71 C68 1.399 . S
C71 C73 1.392 . S
C71 H81 0.929 . S
C72 C68 1.383 . S
C72 C69 1.389 . S
C72 H82 0.931 . S
C73 C70 1.380 . S
C73 C71 1.392 . S
C73 H83 0.929 . S
C74 O54 1.266 . S
C74 O55 1.248 . S
C75 Tb11 2.802 . S
C75 O50 1.264 . S
C75 O53 1.256 . S
C75 C68 1.496 . S
H76 C59 0.929 . S
H77 C60 0.929 . S
H78 C61 0.929 . S
H79 C62 0.931 . S
H80 C70 0.929 . S
H81 C71 0.929 . S
H82 C72 0.931 . S
H83 C73 0.929 . S
Tb84 N113 2.617 . S
Tb84 N119 2.572 . S
Tb84 O128 2.465 . S
Tb84 O129 2.387 . S
Tb84 O131 2.428 . S
Tb84 O132 2.308 . S
Tb84 O136 2.349 . S
Tb84 O139 2.393 . S
Tb84 C148 2.802 . S
C85 N86 1.379 . S
C85 C88 1.416 . S
C85 C92 1.424 . S
N86 C85 1.379 . S
N86 C89 1.334 . S
N86 Tb95 2.617 . S
C87 C89 1.390 . S
C87 C90 1.339 . S
C87 H107 0.930 . S
C88 C85 1.416 . S
C88 C90 1.416 . S
C88 C94 1.448 . S
C89 N86 1.334 . S
C89 C87 1.390 . S
C89 H100 0.930 . S
C90 C87 1.339 . S
C90 C88 1.416 . S
C90 H111 0.930 . S
C91 C92 1.413 . S
C91 C93 1.427 . S
C91 C97 1.416 . S
C92 C85 1.424 . S
C92 C91 1.413 . S
C92 N96 1.361 . S
C93 C91 1.427 . S
C93 C94 1.328 . S
C93 H108 0.929 . S
C94 C88 1.448 . S
C94 C93 1.328 . S
C94 H109 0.930 . S
Tb95 N86 2.617 . S
Tb95 N96 2.572 . S
Tb95 O130 2.349 . S
Tb95 O133 2.393 . S
Tb95 O134 2.465 . S
Tb95 O135 2.387 . S
Tb95 O137 2.428 . S
Tb95 O138 2.308 . S
Tb95 C159 2.802 . S
N96 C92 1.361 . S
N96 Tb95 2.572 . S
N96 C98 1.340 . S
C97 C91 1.416 . S
C97 C99 1.332 . S
C97 H105 0.931 . S
C98 N96 1.340 . S
C98 C99 1.407 . S
C98 H104 0.930 . S
C99 C97 1.332 . S
C99 C98 1.407 . S
C99 H101 0.929 . S
H100 C89 0.930 . S
H101 C99 0.929 . S
H102 C117 0.930 . S
H103 C124 0.929 . S
H104 C98 0.930 . S
H105 C97 0.931 . S
H106 C120 0.930 . S
H107 C87 0.930 . S
H108 C93 0.929 . S
H109 C94 0.930 . S
H110 C115 0.930 . S
H111 C90 0.930 . S
H112 C123 0.931 . S
N113 Tb84 2.617 . S
N113 C114 1.379 . S
N113 C117 1.334 . S
C114 N113 1.379 . S
C114 C116 1.416 . S
C114 C122 1.424 . S
C115 H110 0.930 . S
C115 C117 1.390 . S
C115 C118 1.339 . S
C116 C114 1.416 . S
C116 C118 1.416 . S
C116 C149 1.448 . S
C117 H102 0.930 . S
C117 N113 1.334 . S
C117 C115 1.390 . S
C118 C115 1.339 . S
C118 C116 1.416 . S
C118 H125 0.930 . S
N119 Tb84 2.572 . S
N119 C120 1.340 . S
N119 C122 1.361 . S
C120 H106 0.930 . S
C120 N119 1.340 . S
C120 C124 1.407 . S
C121 C122 1.413 . S
C121 C123 1.416 . S
C121 C150 1.427 . S
C122 C114 1.424 . S
C122 N119 1.361 . S
C122 C121 1.413 . S
C123 H112 0.931 . S
C123 C121 1.416 . S
C123 C124 1.332 . S
C124 H103 0.929 . S
C124 C120 1.407 . S
C124 C123 1.332 . S
H125 C118 0.930 . S
H126 C149 0.930 . S
H127 C150 0.929 . S
O128 Tb84 2.465 . S
O128 C148 1.264 . S
O129 Tb84 2.387 . S
O129 C140 1.264 . S
O130 Tb95 2.349 . S
O130 C140 1.243 . S
O131 Tb84 2.428 . S
O131 C148 1.256 . S
O132 Tb84 2.308 . S
O132 C147 1.266 . S
O133 Tb95 2.393 . S
O133 C147 1.248 . S
O134 Tb95 2.465 . S
O134 C159 1.264 . S
O135 Tb95 2.387 . S
O135 C151 1.264 . S
O136 Tb84 2.349 . S
O136 C151 1.243 . S
O137 Tb95 2.428 . S
O137 C159 1.256 . S
O138 Tb95 2.308 . S
O138 C158 1.266 . S
O139 Tb84 2.393 . S
O139 C158 1.248 . S
C140 O129 1.264 . S
C140 O130 1.243 . S
C141 C144 1.399 . S
C141 C146 1.383 . S
C141 C148 1.496 . S
C142 C143 1.399 . S
C142 C146 1.389 . S
C143 C142 1.399 . S
C143 C145 1.380 . S
C143 H160 0.929 . S
C144 C141 1.399 . S
C144 C145 1.392 . S
C144 H161 0.929 . S
C145 C143 1.380 . S
C145 C144 1.392 . S
C145 H162 0.929 . S
C146 C141 1.383 . S
C146 C142 1.389 . S
C146 H163 0.931 . S
C147 O132 1.266 . S
C147 O133 1.248 . S
C148 Tb84 2.802 . S
C148 O128 1.264 . S
C148 O131 1.256 . S
C148 C141 1.496 . S
C149 C116 1.448 . S
C149 H126 0.930 . S
C149 C150 1.328 . S
C150 C121 1.427 . S
C150 H127 0.929 . S
C150 C149 1.328 . S
C151 O135 1.264 . S
C151 O136 1.243 . S
C152 C155 1.399 . S
C152 C156 1.383 . S
C152 C159 1.496 . S
C153 C154 1.399 . S
C153 C156 1.389 . S
C154 C153 1.399 . S
C154 C157 1.380 . S
C154 H164 0.929 . S
C155 C152 1.399 . S
C155 C157 1.392 . S
C155 H165 0.929 . S
C156 C152 1.383 . S
C156 C153 1.389 . S
C156 H166 0.931 . S
C157 C154 1.380 . S
C157 C155 1.392 . S
C157 H167 0.929 . S
C158 O138 1.266 . S
C158 O139 1.248 . S
C159 Tb95 2.802 . S
C159 O134 1.264 . S
C159 O137 1.256 . S
C159 C152 1.496 . S
H160 C143 0.929 . S
H161 C144 0.929 . S
H162 C145 0.929 . S
H163 C146 0.931 . S
H164 C154 0.929 . S
H165 C155 0.929 . S
H166 C156 0.931 . S
H167 C157 0.929 . S
Tb168 N197 2.617 . S
Tb168 N203 2.572 . S
Tb168 O212 2.465 . S
Tb168 O213 2.387 . S
Tb168 O215 2.428 . S
Tb168 O216 2.308 . S
Tb168 O220 2.349 . S
Tb168 O223 2.393 . S
Tb168 C232 2.802 . S
C169 N170 1.379 . S
C169 C172 1.416 . S
C169 C176 1.424 . S
N170 C169 1.379 . S
N170 C173 1.334 . S
N170 Tb179 2.617 . S
C171 C173 1.390 . S
C171 C174 1.339 . S
C171 H191 0.930 . S
C172 C169 1.416 . S
C172 C174 1.416 . S
C172 C178 1.448 . S
C173 N170 1.334 . S
C173 C171 1.390 . S
C173 H184 0.930 . S
C174 C171 1.339 . S
C174 C172 1.416 . S
C174 H195 0.930 . S
C175 C176 1.413 . S
C175 C177 1.427 . S
C175 C181 1.416 . S
C176 C169 1.424 . S
C176 C175 1.413 . S
C176 N180 1.361 . S
C177 C175 1.427 . S
C177 C178 1.328 . S
C177 H192 0.929 . S
C178 C172 1.448 . S
C178 C177 1.328 . S
C178 H193 0.930 . S
Tb179 N170 2.617 . S
Tb179 N180 2.572 . S
Tb179 O214 2.349 . S
Tb179 O217 2.393 . S
Tb179 O218 2.465 1_556 S
Tb179 O219 2.387 . S
Tb179 O221 2.428 1_556 S
Tb179 O222 2.308 . S
Tb179 C243 2.802 1_556 S
N180 C176 1.361 . S
N180 Tb179 2.572 . S
N180 C182 1.340 . S
C181 C175 1.416 . S
C181 C183 1.332 . S
C181 H189 0.931 1_655 S
C182 N180 1.340 . S
C182 C183 1.407 . S
C182 H188 0.930 . S
C183 C181 1.332 . S
C183 C182 1.407 . S
C183 H185 0.929 1_655 S
H184 C173 0.930 . S
H185 C183 0.929 1_455 S
H186 C201 0.930 . S
H187 C208 0.929 . S
H188 C182 0.930 . S
H189 C181 0.931 1_455 S
H190 C204 0.930 . S
H191 C171 0.930 . S
H192 C177 0.929 . S
H193 C178 0.930 . S
H194 C199 0.930 . S
H195 C174 0.930 . S
H196 C207 0.931 . S
N197 Tb168 2.617 . S
N197 C198 1.379 . S
N197 C201 1.334 . S
C198 N197 1.379 . S
C198 C200 1.416 . S
C198 C206 1.424 . S
C199 H194 0.930 . S
C199 C201 1.390 . S
C199 C202 1.339 . S
C200 C198 1.416 . S
C200 C202 1.416 . S
C200 C233 1.448 . S
C201 H186 0.930 . S
C201 N197 1.334 . S
C201 C199 1.390 . S
C202 C199 1.339 . S
C202 C200 1.416 . S
C202 H209 0.930 . S
N203 Tb168 2.572 . S
N203 C204 1.340 . S
N203 C206 1.361 . S
C204 H190 0.930 . S
C204 N203 1.340 . S
C204 C208 1.407 . S
C205 C206 1.413 . S
C205 C207 1.416 . S
C205 C234 1.427 . S
C206 C198 1.424 . S
C206 N203 1.361 . S
C206 C205 1.413 . S
C207 H196 0.931 . S
C207 C205 1.416 . S
C207 C208 1.332 . S
C208 H187 0.929 . S
C208 C204 1.407 . S
C208 C207 1.332 . S
H209 C202 0.930 . S
H210 C233 0.930 . S
H211 C234 0.929 . S
O212 Tb168 2.465 . S
O212 C232 1.264 . S
O213 Tb168 2.387 . S
O213 C224 1.264 . S
O214 Tb179 2.349 . S
O214 C224 1.243 . S
O215 Tb168 2.428 . S
O215 C232 1.256 . S
O216 Tb168 2.308 . S
O216 C231 1.266 . S
O217 Tb179 2.393 . S
O217 C231 1.248 . S
O218 Tb179 2.465 1_554 S
O218 C243 1.264 . S
O219 Tb179 2.387 . S
O219 C235 1.264 . S
O220 Tb168 2.349 . S
O220 C235 1.243 . S
O221 Tb179 2.428 1_554 S
O221 C243 1.256 . S
O222 Tb179 2.308 . S
O222 C242 1.266 . S
O223 Tb168 2.393 . S
O223 C242 1.248 . S
C224 O213 1.264 . S
C224 O214 1.243 . S
C225 C228 1.399 . S
C225 C230 1.383 . S
C225 C232 1.496 . S
C226 C227 1.399 . S
C226 C230 1.389 . S
C227 C226 1.399 . S
C227 C229 1.380 . S
C227 H244 0.929 . S
C228 C225 1.399 . S
C228 C229 1.392 . S
C228 H245 0.929 . S
C229 C227 1.380 . S
C229 C228 1.392 . S
C229 H246 0.929 . S
C230 C225 1.383 . S
C230 C226 1.389 . S
C230 H247 0.931 . S
C231 O216 1.266 . S
C231 O217 1.248 . S
C232 Tb168 2.802 . S
C232 O212 1.264 . S
C232 O215 1.256 . S
C232 C225 1.496 . S
C233 C200 1.448 . S
C233 H210 0.930 . S
C233 C234 1.328 . S
C234 C205 1.427 . S
C234 H211 0.929 . S
C234 C233 1.328 . S
C235 O219 1.264 . S
C235 O220 1.243 . S
C236 C239 1.399 . S
C236 C240 1.383 . S
C236 C243 1.496 . S
C237 C238 1.399 . S
C237 C240 1.389 . S
C238 C237 1.399 . S
C238 C241 1.380 . S
C238 H248 0.929 . S
C239 C236 1.399 . S
C239 C241 1.392 . S
C239 H249 0.929 . S
C240 C236 1.383 . S
C240 C237 1.389 . S
C240 H250 0.931 . S
C241 C238 1.380 . S
C241 C239 1.392 . S
C241 H251 0.929 . S
C242 O222 1.266 . S
C242 O223 1.248 . S
C243 Tb179 2.802 1_554 S
C243 O218 1.264 . S
C243 O221 1.256 . S
C243 C236 1.496 . S
H244 C227 0.929 . S
H245 C228 0.929 . S
H246 C229 0.929 . S
H247 C230 0.931 . S
H248 C238 0.929 . S
H249 C239 0.929 . S
H250 C240 0.931 . S
H251 C241 0.929 . S
Tb252 N281 2.617 . S
Tb252 N287 2.572 . S
Tb252 O296 2.465 . S
Tb252 O297 2.387 . S
Tb252 O299 2.428 . S
Tb252 O300 2.308 . S
Tb252 O304 2.349 . S
Tb252 O307 2.393 . S
Tb252 C316 2.802 . S
C253 N254 1.379 . S
C253 C256 1.416 . S
C253 C260 1.424 . S
N254 C253 1.379 . S
N254 C257 1.334 . S
N254 Tb263 2.617 . S
C255 C257 1.390 . S
C255 C258 1.339 . S
C255 H275 0.930 . S
C256 C253 1.416 . S
C256 C258 1.416 . S
C256 C262 1.448 . S
C257 N254 1.334 . S
C257 C255 1.390 . S
C257 H268 0.930 . S
C258 C255 1.339 . S
C258 C256 1.416 . S
C258 H279 0.930 . S
C259 C260 1.413 . S
C259 C261 1.427 . S
C259 C265 1.416 . S
C260 C253 1.424 . S
C260 C259 1.413 . S
C260 N264 1.361 . S
C261 C259 1.427 . S
C261 C262 1.328 . S
C261 H276 0.929 . S
C262 C256 1.448 . S
C262 C261 1.328 . S
C262 H277 0.930 . S
Tb263 N254 2.617 . S
Tb263 N264 2.572 . S
Tb263 O298 2.349 . S
Tb263 O301 2.393 . S
Tb263 O302 2.465 . S
Tb263 O303 2.387 . S
Tb263 O305 2.428 . S
Tb263 O306 2.308 . S
Tb263 C327 2.802 . S
N264 C260 1.361 . S
N264 Tb263 2.572 . S
N264 C266 1.340 . S
C265 C259 1.416 . S
C265 C267 1.332 . S
C265 H273 0.931 1_565 S
C266 N264 1.340 . S
C266 C267 1.407 . S
C266 H272 0.930 . S
C267 C265 1.332 . S
C267 C266 1.407 . S
C267 H269 0.929 1_565 S
H268 C257 0.930 . S
H269 C267 0.929 1_545 S
H270 C285 0.930 . S
H271 C292 0.929 . S
H272 C266 0.930 . S
H273 C265 0.931 1_545 S
H274 C288 0.930 . S
H275 C255 0.930 . S
H276 C261 0.929 . S
H277 C262 0.930 . S
H278 C283 0.930 . S
H279 C258 0.930 . S
H280 C291 0.931 . S
N281 Tb252 2.617 . S
N281 C282 1.379 . S
N281 C285 1.334 . S
C282 N281 1.379 . S
C282 C284 1.416 . S
C282 C290 1.424 . S
C283 H278 0.930 . S
C283 C285 1.390 . S
C283 C286 1.339 . S
C284 C282 1.416 . S
C284 C286 1.416 . S
C284 C317 1.448 . S
C285 H270 0.930 . S
C285 N281 1.334 . S
C285 C283 1.390 . S
C286 C283 1.339 . S
C286 C284 1.416 . S
C286 H293 0.930 . S
N287 Tb252 2.572 . S
N287 C288 1.340 . S
N287 C290 1.361 . S
C288 H274 0.930 . S
C288 N287 1.340 . S
C288 C292 1.407 . S
C289 C290 1.413 . S
C289 C291 1.416 . S
C289 C318 1.427 . S
C290 C282 1.424 . S
C290 N287 1.361 . S
C290 C289 1.413 . S
C291 H280 0.931 . S
C291 C289 1.416 . S
C291 C292 1.332 . S
C292 H271 0.929 . S
C292 C288 1.407 . S
C292 C291 1.332 . S
H293 C286 0.930 . S
H294 C317 0.930 . S
H295 C318 0.929 . S
O296 Tb252 2.465 . S
O296 C316 1.264 . S
O297 Tb252 2.387 . S
O297 C308 1.264 . S
O298 Tb263 2.349 . S
O298 C308 1.243 . S
O299 Tb252 2.428 . S
O299 C316 1.256 . S
O300 Tb252 2.308 . S
O300 C315 1.266 . S
O301 Tb263 2.393 . S
O301 C315 1.248 . S
O302 Tb263 2.465 . S
O302 C327 1.264 . S
O303 Tb263 2.387 . S
O303 C319 1.264 . S
O304 Tb252 2.349 . S
O304 C319 1.243 . S
O305 Tb263 2.428 . S
O305 C327 1.256 . S
O306 Tb263 2.308 . S
O306 C326 1.266 . S
O307 Tb252 2.393 . S
O307 C326 1.248 . S
C308 O297 1.264 . S
C308 O298 1.243 . S
C309 C312 1.399 . S
C309 C314 1.383 . S
C309 C316 1.496 . S
C310 C311 1.399 . S
C310 C314 1.389 . S
C311 C310 1.399 . S
C311 C313 1.380 . S
C311 H328 0.929 . S
C312 C309 1.399 . S
C312 C313 1.392 . S
C312 H329 0.929 . S
C313 C311 1.380 . S
C313 C312 1.392 . S
C313 H330 0.929 . S
C314 C309 1.383 . S
C314 C310 1.389 . S
C314 H331 0.931 . S
C315 O300 1.266 . S
C315 O301 1.248 . S
C316 Tb252 2.802 . S
C316 O296 1.264 . S
C316 O299 1.256 . S
C316 C309 1.496 . S
C317 C284 1.448 . S
C317 H294 0.930 . S
C317 C318 1.328 . S
C318 C289 1.427 . S
C318 H295 0.929 . S
C318 C317 1.328 . S
C319 O303 1.264 . S
C319 O304 1.243 . S
C320 C323 1.399 . S
C320 C324 1.383 . S
C320 C327 1.496 . S
C321 C322 1.399 . S
C321 C324 1.389 . S
C322 C321 1.399 . S
C322 C325 1.380 . S
C322 H332 0.929 . S
C323 C320 1.399 . S
C323 C325 1.392 . S
C323 H333 0.929 . S
C324 C320 1.383 . S
C324 C321 1.389 . S
C324 H334 0.931 . S
C325 C322 1.380 . S
C325 C323 1.392 . S
C325 H335 0.929 . S
C326 O306 1.266 . S
C326 O307 1.248 . S
C327 Tb263 2.802 . S
C327 O302 1.264 . S
C327 O305 1.256 . S
C327 C320 1.496 . S
H328 C311 0.929 . S
H329 C312 0.929 . S
H330 C313 0.929 . S
H331 C314 0.931 . S
H332 C322 0.929 . S
H333 C323 0.929 . S
H334 C324 0.931 . S
H335 C325 0.929 . S
Tb336 N365 2.617 . S
Tb336 N371 2.572 . S
Tb336 O380 2.465 . S
Tb336 O381 2.387 . S
Tb336 O383 2.428 . S
Tb336 O384 2.308 . S
Tb336 O388 2.349 . S
Tb336 O391 2.393 . S
Tb336 C400 2.802 . S
C337 N338 1.379 . S
C337 C340 1.416 . S
C337 C344 1.424 . S
N338 C337 1.379 . S
N338 C341 1.334 . S
N338 Tb347 2.617 . S
C339 C341 1.390 . S
C339 C342 1.339 . S
C339 H359 0.930 . S
C340 C337 1.416 . S
C340 C342 1.416 . S
C340 C346 1.448 . S
C341 N338 1.334 . S
C341 C339 1.390 . S
C341 H352 0.930 . S
C342 C339 1.339 . S
C342 C340 1.416 . S
C342 H363 0.930 . S
C343 C344 1.413 . S
C343 C345 1.427 . S
C343 C349 1.416 . S
C344 C337 1.424 . S
C344 C343 1.413 . S
C344 N348 1.361 . S
C345 C343 1.427 . S
C345 C346 1.328 . S
C345 H360 0.929 . S
C346 C340 1.448 . S
C346 C345 1.328 . S
C346 H361 0.930 . S
Tb347 N338 2.617 . S
Tb347 N348 2.572 . S
Tb347 O382 2.349 . S
Tb347 O385 2.393 . S
Tb347 O386 2.465 . S
Tb347 O387 2.387 . S
Tb347 O389 2.428 . S
Tb347 O390 2.308 . S
Tb347 C411 2.802 . S
N348 C344 1.361 . S
N348 Tb347 2.572 . S
N348 C350 1.340 . S
C349 C343 1.416 . S
C349 C351 1.332 . S
C349 H357 0.931 . S
C350 N348 1.340 . S
C350 C351 1.407 . S
C350 H356 0.930 . S
C351 C349 1.332 . S
C351 C350 1.407 . S
C351 H353 0.929 . S
H352 C341 0.930 . S
H353 C351 0.929 . S
H354 C369 0.930 . S
H355 C376 0.929 . S
H356 C350 0.930 . S
H357 C349 0.931 . S
H358 C372 0.930 . S
H359 C339 0.930 . S
H360 C345 0.929 . S
H361 C346 0.930 . S
H362 C367 0.930 . S
H363 C342 0.930 . S
H364 C375 0.931 . S
N365 Tb336 2.617 . S
N365 C366 1.379 . S
N365 C369 1.334 . S
C366 N365 1.379 . S
C366 C368 1.416 . S
C366 C374 1.424 . S
C367 H362 0.930 . S
C367 C369 1.390 . S
C367 C370 1.339 . S
C368 C366 1.416 . S
C368 C370 1.416 . S
C368 C401 1.448 . S
C369 H354 0.930 . S
C369 N365 1.334 . S
C369 C367 1.390 . S
C370 C367 1.339 . S
C370 C368 1.416 . S
C370 H377 0.930 . S
N371 Tb336 2.572 . S
N371 C372 1.340 . S
N371 C374 1.361 . S
C372 H358 0.930 . S
C372 N371 1.340 . S
C372 C376 1.407 . S
C373 C374 1.413 . S
C373 C375 1.416 . S
C373 C402 1.427 . S
C374 C366 1.424 . S
C374 N371 1.361 . S
C374 C373 1.413 . S
C375 H364 0.931 . S
C375 C373 1.416 . S
C375 C376 1.332 . S
C376 H355 0.929 . S
C376 C372 1.407 . S
C376 C375 1.332 . S
H377 C370 0.930 . S
H378 C401 0.930 . S
H379 C402 0.929 . S
O380 Tb336 2.465 . S
O380 C400 1.264 . S
O381 Tb336 2.387 . S
O381 C392 1.264 . S
O382 Tb347 2.349 . S
O382 C392 1.243 . S
O383 Tb336 2.428 . S
O383 C400 1.256 . S
O384 Tb336 2.308 . S
O384 C399 1.266 . S
O385 Tb347 2.393 . S
O385 C399 1.248 . S
O386 Tb347 2.465 . S
O386 C411 1.264 . S
O387 Tb347 2.387 . S
O387 C403 1.264 . S
O388 Tb336 2.349 . S
O388 C403 1.243 . S
O389 Tb347 2.428 . S
O389 C411 1.256 . S
O390 Tb347 2.308 . S
O390 C410 1.266 . S
O391 Tb336 2.393 . S
O391 C410 1.248 . S
C392 O381 1.264 . S
C392 O382 1.243 . S
C393 C396 1.399 . S
C393 C398 1.383 . S
C393 C400 1.496 . S
C394 C395 1.399 . S
C394 C398 1.389 . S
C395 C394 1.399 . S
C395 C397 1.380 . S
C395 H412 0.929 . S
C396 C393 1.399 . S
C396 C397 1.392 . S
C396 H413 0.929 . S
C397 C395 1.380 . S
C397 C396 1.392 . S
C397 H414 0.929 . S
C398 C393 1.383 . S
C398 C394 1.389 . S
C398 H415 0.931 . S
C399 O384 1.266 . S
C399 O385 1.248 . S
C400 Tb336 2.802 . S
C400 O380 1.264 . S
C400 O383 1.256 . S
C400 C393 1.496 . S
C401 C368 1.448 . S
C401 H378 0.930 . S
C401 C402 1.328 . S
C402 C373 1.427 . S
C402 H379 0.929 . S
C402 C401 1.328 . S
C403 O387 1.264 . S
C403 O388 1.243 . S
C404 C407 1.399 . S
C404 C408 1.383 . S
C404 C411 1.496 . S
C405 C406 1.399 . S
C405 C408 1.389 . S
C406 C405 1.399 . S
C406 C409 1.380 . S
C406 H416 0.929 . S
C407 C404 1.399 . S
C407 C409 1.392 . S
C407 H417 0.929 . S
C408 C404 1.383 . S
C408 C405 1.389 . S
C408 H418 0.931 . S
C409 C406 1.380 . S
C409 C407 1.392 . S
C409 H419 0.929 . S
C410 O390 1.266 . S
C410 O391 1.248 . S
C411 Tb347 2.802 . S
C411 O386 1.264 . S
C411 O389 1.256 . S
C411 C404 1.496 . S
H412 C395 0.929 . S
H413 C396 0.929 . S
H414 C397 0.929 . S
H415 C398 0.931 . S
H416 C406 0.929 . S
H417 C407 0.929 . S
H418 C408 0.931 . S
H419 C409 0.929 . S
Tb420 N449 2.617 . S
Tb420 N455 2.572 . S
Tb420 O464 2.465 . S
Tb420 O465 2.387 . S
Tb420 O467 2.428 . S
Tb420 O468 2.308 . S
Tb420 O472 2.349 . S
Tb420 O475 2.393 . S
Tb420 C484 2.802 . S
C421 N422 1.379 . S
C421 C424 1.416 . S
C421 C428 1.424 . S
N422 C421 1.379 . S
N422 C425 1.334 . S
N422 Tb431 2.617 . S
C423 C425 1.390 . S
C423 C426 1.339 . S
C423 H443 0.930 . S
C424 C421 1.416 . S
C424 C426 1.416 . S
C424 C430 1.448 . S
C425 N422 1.334 . S
C425 C423 1.390 . S
C425 H436 0.930 . S
C426 C423 1.339 . S
C426 C424 1.416 . S
C426 H447 0.930 . S
C427 C428 1.413 . S
C427 C429 1.427 . S
C427 C433 1.416 . S
C428 C421 1.424 . S
C428 C427 1.413 . S
C428 N432 1.361 . S
C429 C427 1.427 . S
C429 C430 1.328 . S
C429 H444 0.929 . S
C430 C424 1.448 . S
C430 C429 1.328 . S
C430 H445 0.930 . S
Tb431 N422 2.617 . S
Tb431 N432 2.572 . S
Tb431 O466 2.349 . S
Tb431 O469 2.393 . S
Tb431 O470 2.465 1_556 S
Tb431 O471 2.387 . S
Tb431 O473 2.428 1_556 S
Tb431 O474 2.308 . S
Tb431 C495 2.802 1_556 S
N432 C428 1.361 . S
N432 Tb431 2.572 . S
N432 C434 1.340 . S
C433 C427 1.416 . S
C433 C435 1.332 . S
C433 H441 0.931 1_455 S
C434 N432 1.340 . S
C434 C435 1.407 . S
C434 H440 0.930 . S
C435 C433 1.332 . S
C435 C434 1.407 . S
C435 H437 0.929 1_455 S
H436 C425 0.930 . S
H437 C435 0.929 1_655 S
H438 C453 0.930 . S
H439 C460 0.929 . S
H440 C434 0.930 . S
H441 C433 0.931 1_655 S
H442 C456 0.930 . S
H443 C423 0.930 . S
H444 C429 0.929 . S
H445 C430 0.930 . S
H446 C451 0.930 . S
H447 C426 0.930 . S
H448 C459 0.931 . S
N449 Tb420 2.617 . S
N449 C450 1.379 . S
N449 C453 1.334 . S
C450 N449 1.379 . S
C450 C452 1.416 . S
C450 C458 1.424 . S
C451 H446 0.930 . S
C451 C453 1.390 . S
C451 C454 1.339 . S
C452 C450 1.416 . S
C452 C454 1.416 . S
C452 C485 1.448 . S
C453 H438 0.930 . S
C453 N449 1.334 . S
C453 C451 1.390 . S
C454 C451 1.339 . S
C454 C452 1.416 . S
C454 H461 0.930 . S
N455 Tb420 2.572 . S
N455 C456 1.340 . S
N455 C458 1.361 . S
C456 H442 0.930 . S
C456 N455 1.340 . S
C456 C460 1.407 . S
C457 C458 1.413 . S
C457 C459 1.416 . S
C457 C486 1.427 . S
C458 C450 1.424 . S
C458 N455 1.361 . S
C458 C457 1.413 . S
C459 H448 0.931 . S
C459 C457 1.416 . S
C459 C460 1.332 . S
C460 H439 0.929 . S
C460 C456 1.407 . S
C460 C459 1.332 . S
H461 C454 0.930 . S
H462 C485 0.930 . S
H463 C486 0.929 . S
O464 Tb420 2.465 . S
O464 C484 1.264 . S
O465 Tb420 2.387 . S
O465 C476 1.264 . S
O466 Tb431 2.349 . S
O466 C476 1.243 . S
O467 Tb420 2.428 . S
O467 C484 1.256 . S
O468 Tb420 2.308 . S
O468 C483 1.266 . S
O469 Tb431 2.393 . S
O469 C483 1.248 . S
O470 Tb431 2.465 1_554 S
O470 C495 1.264 . S
O471 Tb431 2.387 . S
O471 C487 1.264 . S
O472 Tb420 2.349 . S
O472 C487 1.243 . S
O473 Tb431 2.428 1_554 S
O473 C495 1.256 . S
O474 Tb431 2.308 . S
O474 C494 1.266 . S
O475 Tb420 2.393 . S
O475 C494 1.248 . S
C476 O465 1.264 . S
C476 O466 1.243 . S
C477 C480 1.399 . S
C477 C482 1.383 . S
C477 C484 1.496 . S
C478 C479 1.399 . S
C478 C482 1.389 . S
C479 C478 1.399 . S
C479 C481 1.380 . S
C479 H496 0.929 . S
C480 C477 1.399 . S
C480 C481 1.392 . S
C480 H497 0.929 . S
C481 C479 1.380 . S
C481 C480 1.392 . S
C481 H498 0.929 . S
C482 C477 1.383 . S
C482 C478 1.389 . S
C482 H499 0.931 . S
C483 O468 1.266 . S
C483 O469 1.248 . S
C484 Tb420 2.802 . S
C484 O464 1.264 . S
C484 O467 1.256 . S
C484 C477 1.496 . S
C485 C452 1.448 . S
C485 H462 0.930 . S
C485 C486 1.328 . S
C486 C457 1.427 . S
C486 H463 0.929 . S
C486 C485 1.328 . S
C487 O471 1.264 . S
C487 O472 1.243 . S
C488 C491 1.399 . S
C488 C492 1.383 . S
C488 C495 1.496 . S
C489 C490 1.399 . S
C489 C492 1.389 . S
C490 C489 1.399 . S
C490 C493 1.380 . S
C490 H500 0.929 . S
C491 C488 1.399 . S
C491 C493 1.392 . S
C491 H501 0.929 . S
C492 C488 1.383 . S
C492 C489 1.389 . S
C492 H502 0.931 . S
C493 C490 1.380 . S
C493 C491 1.392 . S
C493 H503 0.929 . S
C494 O474 1.266 . S
C494 O475 1.248 . S
C495 Tb431 2.802 1_554 S
C495 O470 1.264 . S
C495 O473 1.256 . S
C495 C488 1.496 . S
H496 C479 0.929 . S
H497 C480 0.929 . S
H498 C481 0.929 . S
H499 C482 0.931 . S
H500 C490 0.929 . S
H501 C491 0.929 . S
H502 C492 0.931 . S
H503 C493 0.929 . S
Tb504 N533 2.617 . S
Tb504 N539 2.572 . S
Tb504 O548 2.465 . S
Tb504 O549 2.387 . S
Tb504 O551 2.428 . S
Tb504 O552 2.308 . S
Tb504 O556 2.349 . S
Tb504 O559 2.393 . S
Tb504 C568 2.802 . S
C505 N506 1.379 . S
C505 C508 1.416 . S
C505 C512 1.424 . S
N506 C505 1.379 . S
N506 C509 1.334 . S
N506 Tb515 2.617 . S
C507 C509 1.390 . S
C507 C510 1.339 . S
C507 H527 0.930 . S
C508 C505 1.416 . S
C508 C510 1.416 . S
C508 C514 1.448 . S
C509 N506 1.334 . S
C509 C507 1.390 . S
C509 H520 0.930 . S
C510 C507 1.339 . S
C510 C508 1.416 . S
C510 H531 0.930 . S
C511 C512 1.413 . S
C511 C513 1.427 . S
C511 C517 1.416 . S
C512 C505 1.424 . S
C512 C511 1.413 . S
C512 N516 1.361 . S
C513 C511 1.427 . S
C513 C514 1.328 . S
C513 H528 0.929 . S
C514 C508 1.448 . S
C514 C513 1.328 . S
C514 H529 0.930 . S
Tb515 N506 2.617 . S
Tb515 N516 2.572 . S
Tb515 O550 2.349 . S
Tb515 O553 2.393 . S
Tb515 O554 2.465 . S
Tb515 O555 2.387 . S
Tb515 O557 2.428 . S
Tb515 O558 2.308 . S
Tb515 C579 2.802 . S
N516 C512 1.361 . S
N516 Tb515 2.572 . S
N516 C518 1.340 . S
C517 C511 1.416 . S
C517 C519 1.332 . S
C517 H525 0.931 1_655 S
C518 N516 1.340 . S
C518 C519 1.407 . S
C518 H524 0.930 . S
C519 C517 1.332 . S
C519 C518 1.407 . S
C519 H521 0.929 1_655 S
H520 C509 0.930 . S
H521 C519 0.929 1_455 S
H522 C537 0.930 . S
H523 C544 0.929 . S
H524 C518 0.930 . S
H525 C517 0.931 1_455 S
H526 C540 0.930 . S
H527 C507 0.930 . S
H528 C513 0.929 . S
H529 C514 0.930 . S
H530 C535 0.930 . S
H531 C510 0.930 . S
H532 C543 0.931 . S
N533 Tb504 2.617 . S
N533 C534 1.379 . S
N533 C537 1.334 . S
C534 N533 1.379 . S
C534 C536 1.416 . S
C534 C542 1.424 . S
C535 H530 0.930 . S
C535 C537 1.390 . S
C535 C538 1.339 . S
C536 C534 1.416 . S
C536 C538 1.416 . S
C536 C569 1.448 . S
C537 H522 0.930 . S
C537 N533 1.334 . S
C537 C535 1.390 . S
C538 C535 1.339 . S
C538 C536 1.416 . S
C538 H545 0.930 . S
N539 Tb504 2.572 . S
N539 C540 1.340 . S
N539 C542 1.361 . S
C540 H526 0.930 . S
C540 N539 1.340 . S
C540 C544 1.407 . S
C541 C542 1.413 . S
C541 C543 1.416 . S
C541 C570 1.427 . S
C542 C534 1.424 . S
C542 N539 1.361 . S
C542 C541 1.413 . S
C543 H532 0.931 . S
C543 C541 1.416 . S
C543 C544 1.332 . S
C544 H523 0.929 . S
C544 C540 1.407 . S
C544 C543 1.332 . S
H545 C538 0.930 . S
H546 C569 0.930 . S
H547 C570 0.929 . S
O548 Tb504 2.465 . S
O548 C568 1.264 . S
O549 Tb504 2.387 . S
O549 C560 1.264 . S
O550 Tb515 2.349 . S
O550 C560 1.243 . S
O551 Tb504 2.428 . S
O551 C568 1.256 . S
O552 Tb504 2.308 . S
O552 C567 1.266 . S
O553 Tb515 2.393 . S
O553 C567 1.248 . S
O554 Tb515 2.465 . S
O554 C579 1.264 . S
O555 Tb515 2.387 . S
O555 C571 1.264 . S
O556 Tb504 2.349 . S
O556 C571 1.243 . S
O557 Tb515 2.428 . S
O557 C579 1.256 . S
O558 Tb515 2.308 . S
O558 C578 1.266 . S
O559 Tb504 2.393 . S
O559 C578 1.248 . S
C560 O549 1.264 . S
C560 O550 1.243 . S
C561 C564 1.399 . S
C561 C566 1.383 . S
C561 C568 1.496 . S
C562 C563 1.399 . S
C562 C566 1.389 . S
C563 C562 1.399 . S
C563 C565 1.380 . S
C563 H580 0.929 . S
C564 C561 1.399 . S
C564 C565 1.392 . S
C564 H581 0.929 . S
C565 C563 1.380 . S
C565 C564 1.392 . S
C565 H582 0.929 . S
C566 C561 1.383 . S
C566 C562 1.389 . S
C566 H583 0.931 . S
C567 O552 1.266 . S
C567 O553 1.248 . S
C568 Tb504 2.802 . S
C568 O548 1.264 . S
C568 O551 1.256 . S
C568 C561 1.496 . S
C569 C536 1.448 . S
C569 H546 0.930 . S
C569 C570 1.328 . S
C570 C541 1.427 . S
C570 H547 0.929 . S
C570 C569 1.328 . S
C571 O555 1.264 . S
C571 O556 1.243 . S
C572 C575 1.399 . S
C572 C576 1.383 . S
C572 C579 1.496 . S
C573 C574 1.399 . S
C573 C576 1.389 . S
C574 C573 1.399 . S
C574 C577 1.380 . S
C574 H584 0.929 . S
C575 C572 1.399 . S
C575 C577 1.392 . S
C575 H585 0.929 . S
C576 C572 1.383 . S
C576 C573 1.389 . S
C576 H586 0.931 . S
C577 C574 1.380 . S
C577 C575 1.392 . S
C577 H587 0.929 . S
C578 O558 1.266 . S
C578 O559 1.248 . S
C579 Tb515 2.802 . S
C579 O554 1.264 . S
C579 O557 1.256 . S
C579 C572 1.496 . S
H580 C563 0.929 . S
H581 C564 0.929 . S
H582 C565 0.929 . S
H583 C566 0.931 . S
H584 C574 0.929 . S
H585 C575 0.929 . S
H586 C576 0.931 . S
H587 C577 0.929 . S
Tb588 N617 2.617 . S
Tb588 N623 2.572 . S
Tb588 O632 2.465 . S
Tb588 O633 2.387 . S
Tb588 O635 2.428 . S
Tb588 O636 2.308 . S
Tb588 O640 2.349 . S
Tb588 O643 2.393 . S
Tb588 C652 2.802 . S
C589 N590 1.379 . S
C589 C592 1.416 . S
C589 C596 1.424 . S
N590 C589 1.379 . S
N590 C593 1.334 . S
N590 Tb599 2.617 . S
C591 C593 1.390 . S
C591 C594 1.339 . S
C591 H611 0.930 . S
C592 C589 1.416 . S
C592 C594 1.416 . S
C592 C598 1.448 . S
C593 N590 1.334 . S
C593 C591 1.390 . S
C593 H604 0.930 . S
C594 C591 1.339 . S
C594 C592 1.416 . S
C594 H615 0.930 . S
C595 C596 1.413 . S
C595 C597 1.427 . S
C595 C601 1.416 . S
C596 C589 1.424 . S
C596 C595 1.413 . S
C596 N600 1.361 . S
C597 C595 1.427 . S
C597 C598 1.328 . S
C597 H612 0.929 . S
C598 C592 1.448 . S
C598 C597 1.328 . S
C598 H613 0.930 . S
Tb599 N590 2.617 . S
Tb599 N600 2.572 . S
Tb599 O634 2.349 . S
Tb599 O637 2.393 . S
Tb599 O638 2.465 . S
Tb599 O639 2.387 . S
Tb599 O641 2.428 . S
Tb599 O642 2.308 . S
Tb599 C663 2.802 . S
N600 C596 1.361 . S
N600 Tb599 2.572 . S
N600 C602 1.340 . S
C601 C595 1.416 . S
C601 C603 1.332 . S
C601 H609 0.931 1_565 S
C602 N600 1.340 . S
C602 C603 1.407 . S
C602 H608 0.930 . S
C603 C601 1.332 . S
C603 C602 1.407 . S
C603 H605 0.929 1_565 S
H604 C593 0.930 . S
H605 C603 0.929 1_545 S
H606 C621 0.930 . S
H607 C628 0.929 . S
H608 C602 0.930 . S
H609 C601 0.931 1_545 S
H610 C624 0.930 . S
H611 C591 0.930 . S
H612 C597 0.929 . S
H613 C598 0.930 . S
H614 C619 0.930 . S
H615 C594 0.930 . S
H616 C627 0.931 . S
N617 Tb588 2.617 . S
N617 C618 1.379 . S
N617 C621 1.334 . S
C618 N617 1.379 . S
C618 C620 1.416 . S
C618 C626 1.424 . S
C619 H614 0.930 . S
C619 C621 1.390 . S
C619 C622 1.339 . S
C620 C618 1.416 . S
C620 C622 1.416 . S
C620 C653 1.448 . S
C621 H606 0.930 . S
C621 N617 1.334 . S
C621 C619 1.390 . S
C622 C619 1.339 . S
C622 C620 1.416 . S
C622 H629 0.930 . S
N623 Tb588 2.572 . S
N623 C624 1.340 . S
N623 C626 1.361 . S
C624 H610 0.930 . S
C624 N623 1.340 . S
C624 C628 1.407 . S
C625 C626 1.413 . S
C625 C627 1.416 . S
C625 C654 1.427 . S
C626 C618 1.424 . S
C626 N623 1.361 . S
C626 C625 1.413 . S
C627 H616 0.931 . S
C627 C625 1.416 . S
C627 C628 1.332 . S
C628 H607 0.929 . S
C628 C624 1.407 . S
C628 C627 1.332 . S
H629 C622 0.930 . S
H630 C653 0.930 . S
H631 C654 0.929 . S
O632 Tb588 2.465 . S
O632 C652 1.264 . S
O633 Tb588 2.387 . S
O633 C644 1.264 . S
O634 Tb599 2.349 . S
O634 C644 1.243 . S
O635 Tb588 2.428 . S
O635 C652 1.256 . S
O636 Tb588 2.308 . S
O636 C651 1.266 . S
O637 Tb599 2.393 . S
O637 C651 1.248 . S
O638 Tb599 2.465 . S
O638 C663 1.264 . S
O639 Tb599 2.387 . S
O639 C655 1.264 . S
O640 Tb588 2.349 . S
O640 C655 1.243 . S
O641 Tb599 2.428 . S
O641 C663 1.256 . S
O642 Tb599 2.308 . S
O642 C662 1.266 . S
O643 Tb588 2.393 . S
O643 C662 1.248 . S
C644 O633 1.264 . S
C644 O634 1.243 . S
C645 C648 1.399 . S
C645 C650 1.383 . S
C645 C652 1.496 . S
C646 C647 1.399 . S
C646 C650 1.389 . S
C647 C646 1.399 . S
C647 C649 1.380 . S
C647 H664 0.929 . S
C648 C645 1.399 . S
C648 C649 1.392 . S
C648 H665 0.929 . S
C649 C647 1.380 . S
C649 C648 1.392 . S
C649 H666 0.929 . S
C650 C645 1.383 . S
C650 C646 1.389 . S
C650 H667 0.931 . S
C651 O636 1.266 . S
C651 O637 1.248 . S
C652 Tb588 2.802 . S
C652 O632 1.264 . S
C652 O635 1.256 . S
C652 C645 1.496 . S
C653 C620 1.448 . S
C653 H630 0.930 . S
C653 C654 1.328 . S
C654 C625 1.427 . S
C654 H631 0.929 . S
C654 C653 1.328 . S
C655 O639 1.264 . S
C655 O640 1.243 . S
C656 C659 1.399 . S
C656 C660 1.383 . S
C656 C663 1.496 . S
C657 C658 1.399 . S
C657 C660 1.389 . S
C658 C657 1.399 . S
C658 C661 1.380 . S
C658 H668 0.929 . S
C659 C656 1.399 . S
C659 C661 1.392 . S
C659 H669 0.929 . S
C660 C656 1.383 . S
C660 C657 1.389 . S
C660 H670 0.931 . S
C661 C658 1.380 . S
C661 C659 1.392 . S
C661 H671 0.929 . S
C662 O642 1.266 . S
C662 O643 1.248 . S
C663 Tb599 2.802 . S
C663 O638 1.264 . S
C663 O641 1.256 . S
C663 C656 1.496 . S
H664 C647 0.929 . S
H665 C648 0.929 . S
H666 C649 0.929 . S
H667 C650 0.931 . S
H668 C658 0.929 . S
H669 C659 0.929 . S
H670 C660 0.931 . S
H671 C661 0.929 . S
Tb672 N701 2.617 . S
Tb672 N707 2.572 . S
Tb672 O716 2.465 . S
Tb672 O717 2.387 . S
Tb672 O719 2.428 . S
Tb672 O720 2.308 . S
Tb672 O724 2.349 . S
Tb672 O727 2.393 . S
Tb672 C736 2.802 . S
C673 N674 1.379 . S
C673 C676 1.416 . S
C673 C680 1.424 . S
N674 C673 1.379 . S
N674 C677 1.334 . S
N674 Tb683 2.617 . S
C675 C677 1.390 . S
C675 C678 1.339 . S
C675 H695 0.930 . S
C676 C673 1.416 . S
C676 C678 1.416 . S
C676 C682 1.448 . S
C677 N674 1.334 . S
C677 C675 1.390 . S
C677 H688 0.930 . S
C678 C675 1.339 . S
C678 C676 1.416 . S
C678 H699 0.930 . S
C679 C680 1.413 . S
C679 C681 1.427 . S
C679 C685 1.416 . S
C680 C673 1.424 . S
C680 C679 1.413 . S
C680 N684 1.361 . S
C681 C679 1.427 . S
C681 C682 1.328 . S
C681 H696 0.929 . S
C682 C676 1.448 . S
C682 C681 1.328 . S
C682 H697 0.930 . S
Tb683 N674 2.617 . S
Tb683 N684 2.572 . S
Tb683 O718 2.349 . S
Tb683 O721 2.393 . S
Tb683 O722 2.465 1_554 S
Tb683 O723 2.387 . S
Tb683 O725 2.428 1_554 S
Tb683 O726 2.308 . S
Tb683 C747 2.802 1_554 S
N684 C680 1.361 . S
N684 Tb683 2.572 . S
N684 C686 1.340 . S
C685 C679 1.416 . S
C685 C687 1.332 . S
C685 H693 0.931 . S
C686 N684 1.340 . S
C686 C687 1.407 . S
C686 H692 0.930 . S
C687 C685 1.332 . S
C687 C686 1.407 . S
C687 H689 0.929 . S
H688 C677 0.930 . S
H689 C687 0.929 . S
H690 C705 0.930 . S
H691 C712 0.929 . S
H692 C686 0.930 . S
H693 C685 0.931 . S
H694 C708 0.930 . S
H695 C675 0.930 . S
H696 C681 0.929 . S
H697 C682 0.930 . S
H698 C703 0.930 . S
H699 C678 0.930 . S
H700 C711 0.931 . S
N701 Tb672 2.617 . S
N701 C702 1.379 . S
N701 C705 1.334 . S
C702 N701 1.379 . S
C702 C704 1.416 . S
C702 C710 1.424 . S
C703 H698 0.930 . S
C703 C705 1.390 . S
C703 C706 1.339 . S
C704 C702 1.416 . S
C704 C706 1.416 . S
C704 C737 1.448 . S
C705 H690 0.930 . S
C705 N701 1.334 . S
C705 C703 1.390 . S
C706 C703 1.339 . S
C706 C704 1.416 . S
C706 H713 0.930 . S
N707 Tb672 2.572 . S
N707 C708 1.340 . S
N707 C710 1.361 . S
C708 H694 0.930 . S
C708 N707 1.340 . S
C708 C712 1.407 . S
C709 C710 1.413 . S
C709 C711 1.416 . S
C709 C738 1.427 . S
C710 C702 1.424 . S
C710 N707 1.361 . S
C710 C709 1.413 . S
C711 H700 0.931 . S
C711 C709 1.416 . S
C711 C712 1.332 . S
C712 H691 0.929 . S
C712 C708 1.407 . S
C712 C711 1.332 . S
H713 C706 0.930 . S
H714 C737 0.930 . S
H715 C738 0.929 . S
O716 Tb672 2.465 . S
O716 C736 1.264 . S
O717 Tb672 2.387 . S
O717 C728 1.264 . S
O718 Tb683 2.349 . S
O718 C728 1.243 . S
O719 Tb672 2.428 . S
O719 C736 1.256 . S
O720 Tb672 2.308 . S
O720 C735 1.266 . S
O721 Tb683 2.393 . S
O721 C735 1.248 . S
O722 Tb683 2.465 1_556 S
O722 C747 1.264 . S
O723 Tb683 2.387 . S
O723 C739 1.264 . S
O724 Tb672 2.349 . S
O724 C739 1.243 . S
O725 Tb683 2.428 1_556 S
O725 C747 1.256 . S
O726 Tb683 2.308 . S
O726 C746 1.266 . S
O727 Tb672 2.393 . S
O727 C746 1.248 . S
C728 O717 1.264 . S
C728 O718 1.243 . S
C729 C732 1.399 . S
C729 C734 1.383 . S
C729 C736 1.496 . S
C730 C731 1.399 . S
C730 C734 1.389 . S
C731 C730 1.399 . S
C731 C733 1.380 . S
C731 H748 0.929 . S
C732 C729 1.399 . S
C732 C733 1.392 . S
C732 H749 0.929 . S
C733 C731 1.380 . S
C733 C732 1.392 . S
C733 H750 0.929 . S
C734 C729 1.383 . S
C734 C730 1.389 . S
C734 H751 0.931 . S
C735 O720 1.266 . S
C735 O721 1.248 . S
C736 Tb672 2.802 . S
C736 O716 1.264 . S
C736 O719 1.256 . S
C736 C729 1.496 . S
C737 C704 1.448 . S
C737 H714 0.930 . S
C737 C738 1.328 . S
C738 C709 1.427 . S
C738 H715 0.929 . S
C738 C737 1.328 . S
C739 O723 1.264 . S
C739 O724 1.243 . S
C740 C743 1.399 . S
C740 C744 1.383 . S
C740 C747 1.496 . S
C741 C742 1.399 . S
C741 C744 1.389 . S
C742 C741 1.399 . S
C742 C745 1.380 . S
C742 H752 0.929 . S
C743 C740 1.399 . S
C743 C745 1.392 . S
C743 H753 0.929 . S
C744 C740 1.383 . S
C744 C741 1.389 . S
C744 H754 0.931 . S
C745 C742 1.380 . S
C745 C743 1.392 . S
C745 H755 0.929 . S
C746 O726 1.266 . S
C746 O727 1.248 . S
C747 Tb683 2.802 1_556 S
C747 O722 1.264 . S
C747 O725 1.256 . S
C747 C740 1.496 . S
H748 C731 0.929 . S
H749 C732 0.929 . S
H750 C733 0.929 . S
H751 C734 0.931 . S
H752 C742 0.929 . S
H753 C743 0.929 . S
H754 C744 0.931 . S
H755 C745 0.929 . S
Tb756 N785 2.617 . S
Tb756 N791 2.572 . S
Tb756 O800 2.465 . S
Tb756 O801 2.387 . S
Tb756 O803 2.428 . S
Tb756 O804 2.308 . S
Tb756 O808 2.349 . S
Tb756 O811 2.393 . S
Tb756 C820 2.802 . S
C757 N758 1.379 . S
C757 C760 1.416 . S
C757 C764 1.424 . S
N758 C757 1.379 . S
N758 C761 1.334 . S
N758 Tb767 2.617 . S
C759 C761 1.390 . S
C759 C762 1.339 . S
C759 H779 0.930 . S
C760 C757 1.416 . S
C760 C762 1.416 . S
C760 C766 1.448 . S
C761 N758 1.334 . S
C761 C759 1.390 . S
C761 H772 0.930 . S
C762 C759 1.339 . S
C762 C760 1.416 . S
C762 H783 0.930 . S
C763 C764 1.413 . S
C763 C765 1.427 . S
C763 C769 1.416 . S
C764 C757 1.424 . S
C764 C763 1.413 . S
C764 N768 1.361 . S
C765 C763 1.427 . S
C765 C766 1.328 . S
C765 H780 0.929 . S
C766 C760 1.448 . S
C766 C765 1.328 . S
C766 H781 0.930 . S
Tb767 N758 2.617 . S
Tb767 N768 2.572 . S
Tb767 O802 2.349 . S
Tb767 O805 2.393 . S
Tb767 O806 2.465 . S
Tb767 O807 2.387 . S
Tb767 O809 2.428 . S
Tb767 O810 2.308 . S
Tb767 C831 2.802 . S
N768 C764 1.361 . S
N768 Tb767 2.572 . S
N768 C770 1.340 . S
C769 C763 1.416 . S
C769 C771 1.332 . S
C769 H777 0.931 1_455 S
C770 N768 1.340 . S
C770 C771 1.407 . S
C770 H776 0.930 . S
C771 C769 1.332 . S
C771 C770 1.407 . S
C771 H773 0.929 1_455 S
H772 C761 0.930 . S
H773 C771 0.929 1_655 S
H774 C789 0.930 . S
H775 C796 0.929 . S
H776 C770 0.930 . S
H777 C769 0.931 1_655 S
H778 C792 0.930 . S
H779 C759 0.930 . S
H780 C765 0.929 . S
H781 C766 0.930 . S
H782 C787 0.930 . S
H783 C762 0.930 . S
H784 C795 0.931 . S
N785 Tb756 2.617 . S
N785 C786 1.379 . S
N785 C789 1.334 . S
C786 N785 1.379 . S
C786 C788 1.416 . S
C786 C794 1.424 . S
C787 H782 0.930 . S
C787 C789 1.390 . S
C787 C790 1.339 . S
C788 C786 1.416 . S
C788 C790 1.416 . S
C788 C821 1.448 . S
C789 H774 0.930 . S
C789 N785 1.334 . S
C789 C787 1.390 . S
C790 C787 1.339 . S
C790 C788 1.416 . S
C790 H797 0.930 . S
N791 Tb756 2.572 . S
N791 C792 1.340 . S
N791 C794 1.361 . S
C792 H778 0.930 . S
C792 N791 1.340 . S
C792 C796 1.407 . S
C793 C794 1.413 . S
C793 C795 1.416 . S
C793 C822 1.427 . S
C794 C786 1.424 . S
C794 N791 1.361 . S
C794 C793 1.413 . S
C795 H784 0.931 . S
C795 C793 1.416 . S
C795 C796 1.332 . S
C796 H775 0.929 . S
C796 C792 1.407 . S
C796 C795 1.332 . S
H797 C790 0.930 . S
H798 C821 0.930 . S
H799 C822 0.929 . S
O800 Tb756 2.465 . S
O800 C820 1.264 . S
O801 Tb756 2.387 . S
O801 C812 1.264 . S
O802 Tb767 2.349 . S
O802 C812 1.243 . S
O803 Tb756 2.428 . S
O803 C820 1.256 . S
O804 Tb756 2.308 . S
O804 C819 1.266 . S
O805 Tb767 2.393 . S
O805 C819 1.248 . S
O806 Tb767 2.465 . S
O806 C831 1.264 . S
O807 Tb767 2.387 . S
O807 C823 1.264 . S
O808 Tb756 2.349 . S
O808 C823 1.243 . S
O809 Tb767 2.428 . S
O809 C831 1.256 . S
O810 Tb767 2.308 . S
O810 C830 1.266 . S
O811 Tb756 2.393 . S
O811 C830 1.248 . S
C812 O801 1.264 . S
C812 O802 1.243 . S
C813 C816 1.399 . S
C813 C818 1.383 . S
C813 C820 1.496 . S
C814 C815 1.399 . S
C814 C818 1.389 . S
C815 C814 1.399 . S
C815 C817 1.380 . S
C815 H832 0.929 . S
C816 C813 1.399 . S
C816 C817 1.392 . S
C816 H833 0.929 . S
C817 C815 1.380 . S
C817 C816 1.392 . S
C817 H834 0.929 . S
C818 C813 1.383 . S
C818 C814 1.389 . S
C818 H835 0.931 . S
C819 O804 1.266 . S
C819 O805 1.248 . S
C820 Tb756 2.802 . S
C820 O800 1.264 . S
C820 O803 1.256 . S
C820 C813 1.496 . S
C821 C788 1.448 . S
C821 H798 0.930 . S
C821 C822 1.328 . S
C822 C793 1.427 . S
C822 H799 0.929 . S
C822 C821 1.328 . S
C823 O807 1.264 . S
C823 O808 1.243 . S
C824 C827 1.399 . S
C824 C828 1.383 . S
C824 C831 1.496 . S
C825 C826 1.399 . S
C825 C828 1.389 . S
C826 C825 1.399 . S
C826 C829 1.380 . S
C826 H836 0.929 . S
C827 C824 1.399 . S
C827 C829 1.392 . S
C827 H837 0.929 . S
C828 C824 1.383 . S
C828 C825 1.389 . S
C828 H838 0.931 . S
C829 C826 1.380 . S
C829 C827 1.392 . S
C829 H839 0.929 . S
C830 O810 1.266 . S
C830 O811 1.248 . S
C831 Tb767 2.802 . S
C831 O806 1.264 . S
C831 O809 1.256 . S
C831 C824 1.496 . S
H832 C815 0.929 . S
H833 C816 0.929 . S
H834 C817 0.929 . S
H835 C818 0.931 . S
H836 C826 0.929 . S
H837 C827 0.929 . S
H838 C828 0.931 . S
H839 C829 0.929 . S
Tb840 N869 2.617 . S
Tb840 N875 2.572 . S
Tb840 O884 2.465 . S
Tb840 O885 2.387 . S
Tb840 O887 2.428 . S
Tb840 O888 2.308 . S
Tb840 O892 2.349 . S
Tb840 O895 2.393 . S
Tb840 C904 2.802 . S
C841 N842 1.379 . S
C841 C844 1.416 . S
C841 C848 1.424 . S
N842 C841 1.379 . S
N842 C845 1.334 . S
N842 Tb851 2.617 . S
C843 C845 1.390 . S
C843 C846 1.339 . S
C843 H863 0.930 . S
C844 C841 1.416 . S
C844 C846 1.416 . S
C844 C850 1.448 . S
C845 N842 1.334 . S
C845 C843 1.390 . S
C845 H856 0.930 . S
C846 C843 1.339 . S
C846 C844 1.416 . S
C846 H867 0.930 . S
C847 C848 1.413 . S
C847 C849 1.427 . S
C847 C853 1.416 . S
C848 C841 1.424 . S
C848 C847 1.413 . S
C848 N852 1.361 . S
C849 C847 1.427 . S
C849 C850 1.328 . S
C849 H864 0.929 . S
C850 C844 1.448 . S
C850 C849 1.328 . S
C850 H865 0.930 . S
Tb851 N842 2.617 . S
Tb851 N852 2.572 . S
Tb851 O886 2.349 . S
Tb851 O889 2.393 . S
Tb851 O890 2.465 . S
Tb851 O891 2.387 . S
Tb851 O893 2.428 . S
Tb851 O894 2.308 . S
Tb851 C915 2.802 . S
N852 C848 1.361 . S
N852 Tb851 2.572 . S
N852 C854 1.340 . S
C853 C847 1.416 . S
C853 C855 1.332 . S
C853 H861 0.931 1_545 S
C854 N852 1.340 . S
C854 C855 1.407 . S
C854 H860 0.930 . S
C855 C853 1.332 . S
C855 C854 1.407 . S
C855 H857 0.929 1_545 S
H856 C845 0.930 . S
H857 C855 0.929 1_565 S
H858 C873 0.930 . S
H859 C880 0.929 . S
H860 C854 0.930 . S
H861 C853 0.931 1_565 S
H862 C876 0.930 . S
H863 C843 0.930 . S
H864 C849 0.929 . S
H865 C850 0.930 . S
H866 C871 0.930 . S
H867 C846 0.930 . S
H868 C879 0.931 . S
N869 Tb840 2.617 . S
N869 C870 1.379 . S
N869 C873 1.334 . S
C870 N869 1.379 . S
C870 C872 1.416 . S
C870 C878 1.424 . S
C871 H866 0.930 . S
C871 C873 1.390 . S
C871 C874 1.339 . S
C872 C870 1.416 . S
C872 C874 1.416 . S
C872 C905 1.448 . S
C873 H858 0.930 . S
C873 N869 1.334 . S
C873 C871 1.390 . S
C874 C871 1.339 . S
C874 C872 1.416 . S
C874 H881 0.930 . S
N875 Tb840 2.572 . S
N875 C876 1.340 . S
N875 C878 1.361 . S
C876 H862 0.930 . S
C876 N875 1.340 . S
C876 C880 1.407 . S
C877 C878 1.413 . S
C877 C879 1.416 . S
C877 C906 1.427 . S
C878 C870 1.424 . S
C878 N875 1.361 . S
C878 C877 1.413 . S
C879 H868 0.931 . S
C879 C877 1.416 . S
C879 C880 1.332 . S
C880 H859 0.929 . S
C880 C876 1.407 . S
C880 C879 1.332 . S
H881 C874 0.930 . S
H882 C905 0.930 . S
H883 C906 0.929 . S
O884 Tb840 2.465 . S
O884 C904 1.264 . S
O885 Tb840 2.387 . S
O885 C896 1.264 . S
O886 Tb851 2.349 . S
O886 C896 1.243 . S
O887 Tb840 2.428 . S
O887 C904 1.256 . S
O888 Tb840 2.308 . S
O888 C903 1.266 . S
O889 Tb851 2.393 . S
O889 C903 1.248 . S
O890 Tb851 2.465 . S
O890 C915 1.264 . S
O891 Tb851 2.387 . S
O891 C907 1.264 . S
O892 Tb840 2.349 . S
O892 C907 1.243 . S
O893 Tb851 2.428 . S
O893 C915 1.256 . S
O894 Tb851 2.308 . S
O894 C914 1.266 . S
O895 Tb840 2.393 . S
O895 C914 1.248 . S
C896 O885 1.264 . S
C896 O886 1.243 . S
C897 C900 1.399 . S
C897 C902 1.383 . S
C897 C904 1.496 . S
C898 C899 1.399 . S
C898 C902 1.389 . S
C899 C898 1.399 . S
C899 C901 1.380 . S
C899 H916 0.929 . S
C900 C897 1.399 . S
C900 C901 1.392 . S
C900 H917 0.929 . S
C901 C899 1.380 . S
C901 C900 1.392 . S
C901 H918 0.929 . S
C902 C897 1.383 . S
C902 C898 1.389 . S
C902 H919 0.931 . S
C903 O888 1.266 . S
C903 O889 1.248 . S
C904 Tb840 2.802 . S
C904 O884 1.264 . S
C904 O887 1.256 . S
C904 C897 1.496 . S
C905 C872 1.448 . S
C905 H882 0.930 . S
C905 C906 1.328 . S
C906 C877 1.427 . S
C906 H883 0.929 . S
C906 C905 1.328 . S
C907 O891 1.264 . S
C907 O892 1.243 . S
C908 C911 1.399 . S
C908 C912 1.383 . S
C908 C915 1.496 . S
C909 C910 1.399 . S
C909 C912 1.389 . S
C910 C909 1.399 . S
C910 C913 1.380 . S
C910 H920 0.929 . S
C911 C908 1.399 . S
C911 C913 1.392 . S
C911 H921 0.929 . S
C912 C908 1.383 . S
C912 C909 1.389 . S
C912 H922 0.931 . S
C913 C910 1.380 . S
C913 C911 1.392 . S
C913 H923 0.929 . S
C914 O894 1.266 . S
C914 O895 1.248 . S
C915 Tb851 2.802 . S
C915 O890 1.264 . S
C915 O893 1.256 . S
C915 C908 1.496 . S
H916 C899 0.929 . S
H917 C900 0.929 . S
H918 C901 0.929 . S
H919 C902 0.931 . S
H920 C910 0.929 . S
H921 C911 0.929 . S
H922 C912 0.931 . S
H923 C913 0.929 . S
Tb924 N953 2.617 . S
Tb924 N959 2.572 . S
Tb924 O968 2.465 . S
Tb924 O969 2.387 . S
Tb924 O971 2.428 . S
Tb924 O972 2.308 . S
Tb924 O976 2.349 . S
Tb924 O979 2.393 . S
Tb924 C988 2.802 . S
C925 N926 1.379 . S
C925 C928 1.416 . S
C925 C932 1.424 . S
N926 C925 1.379 . S
N926 C929 1.334 . S
N926 Tb935 2.617 . S
C927 C929 1.390 . S
C927 C930 1.339 . S
C927 H947 0.930 . S
C928 C925 1.416 . S
C928 C930 1.416 . S
C928 C934 1.448 . S
C929 N926 1.334 . S
C929 C927 1.390 . S
C929 H940 0.930 . S
C930 C927 1.339 . S
C930 C928 1.416 . S
C930 H951 0.930 . S
C931 C932 1.413 . S
C931 C933 1.427 . S
C931 C937 1.416 . S
C932 C925 1.424 . S
C932 C931 1.413 . S
C932 N936 1.361 . S
C933 C931 1.427 . S
C933 C934 1.328 . S
C933 H948 0.929 . S
C934 C928 1.448 . S
C934 C933 1.328 . S
C934 H949 0.930 . S
Tb935 N926 2.617 . S
Tb935 N936 2.572 . S
Tb935 O970 2.349 . S
Tb935 O973 2.393 . S
Tb935 O974 2.465 1_554 S
Tb935 O975 2.387 . S
Tb935 O977 2.428 1_554 S
Tb935 O978 2.308 . S
Tb935 C999 2.802 1_554 S
N936 C932 1.361 . S
N936 Tb935 2.572 . S
N936 C938 1.340 . S
C937 C931 1.416 . S
C937 C939 1.332 . S
C937 H945 0.931 . S
C938 N936 1.340 . S
C938 C939 1.407 . S
C938 H944 0.930 . S
C939 C937 1.332 . S
C939 C938 1.407 . S
C939 H941 0.929 . S
H940 C929 0.930 . S
H941 C939 0.929 . S
H942 C957 0.930 . S
H943 C964 0.929 . S
H944 C938 0.930 . S
H945 C937 0.931 . S
H946 C960 0.930 . S
H947 C927 0.930 . S
H948 C933 0.929 . S
H949 C934 0.930 . S
H950 C955 0.930 . S
H951 C930 0.930 . S
H952 C963 0.931 . S
N953 Tb924 2.617 . S
N953 C954 1.379 . S
N953 C957 1.334 . S
C954 N953 1.379 . S
C954 C956 1.416 . S
C954 C962 1.424 . S
C955 H950 0.930 . S
C955 C957 1.390 . S
C955 C958 1.339 . S
C956 C954 1.416 . S
C956 C958 1.416 . S
C956 C989 1.448 . S
C957 H942 0.930 . S
C957 N953 1.334 . S
C957 C955 1.390 . S
C958 C955 1.339 . S
C958 C956 1.416 . S
C958 H965 0.930 . S
N959 Tb924 2.572 . S
N959 C960 1.340 . S
N959 C962 1.361 . S
C960 H946 0.930 . S
C960 N959 1.340 . S
C960 C964 1.407 . S
C961 C962 1.413 . S
C961 C963 1.416 . S
C961 C990 1.427 . S
C962 C954 1.424 . S
C962 N959 1.361 . S
C962 C961 1.413 . S
C963 H952 0.931 . S
C963 C961 1.416 . S
C963 C964 1.332 . S
C964 H943 0.929 . S
C964 C960 1.407 . S
C964 C963 1.332 . S
H965 C958 0.930 . S
H966 C989 0.930 . S
H967 C990 0.929 . S
O968 Tb924 2.465 . S
O968 C988 1.264 . S
O969 Tb924 2.387 . S
O969 C980 1.264 . S
O970 Tb935 2.349 . S
O970 C980 1.243 . S
O971 Tb924 2.428 . S
O971 C988 1.256 . S
O972 Tb924 2.308 . S
O972 C987 1.266 . S
O973 Tb935 2.393 . S
O973 C987 1.248 . S
O974 Tb935 2.465 1_556 S
O974 C999 1.264 . S
O975 Tb935 2.387 . S
O975 C991 1.264 . S
O976 Tb924 2.349 . S
O976 C991 1.243 . S
O977 Tb935 2.428 1_556 S
O977 C999 1.256 . S
O978 Tb935 2.308 . S
O978 C998 1.266 . S
O979 Tb924 2.393 . S
O979 C998 1.248 . S
C980 O969 1.264 . S
C980 O970 1.243 . S
C981 C984 1.399 . S
C981 C986 1.383 . S
C981 C988 1.496 . S
C982 C983 1.399 . S
C982 C986 1.389 . S
C983 C982 1.399 . S
C983 C985 1.380 . S
C983 H1000 0.929 . S
C984 C981 1.399 . S
C984 C985 1.392 . S
C984 H1001 0.929 . S
C985 C983 1.380 . S
C985 C984 1.392 . S
C985 H1002 0.929 . S
C986 C981 1.383 . S
C986 C982 1.389 . S
C986 H1003 0.931 . S
C987 O972 1.266 . S
C987 O973 1.248 . S
C988 Tb924 2.802 . S
C988 O968 1.264 . S
C988 O971 1.256 . S
C988 C981 1.496 . S
C989 C956 1.448 . S
C989 H966 0.930 . S
C989 C990 1.328 . S
C990 C961 1.427 . S
C990 H967 0.929 . S
C990 C989 1.328 . S
C991 O975 1.264 . S
C991 O976 1.243 . S
C992 C995 1.399 . S
C992 C996 1.383 . S
C992 C999 1.496 . S
C993 C994 1.399 . S
C993 C996 1.389 . S
C994 C993 1.399 . S
C994 C997 1.380 . S
C994 H1004 0.929 . S
C995 C992 1.399 . S
C995 C997 1.392 . S
C995 H1005 0.929 . S
C996 C992 1.383 . S
C996 C993 1.389 . S
C996 H1006 0.931 . S
C997 C994 1.380 . S
C997 C995 1.392 . S
C997 H1007 0.929 . S
C998 O978 1.266 . S
C998 O979 1.248 . S
C999 Tb935 2.802 1_556 S
C999 O974 1.264 . S
C999 O977 1.256 . S
C999 C992 1.496 . S
H1000 C983 0.929 . S
H1001 C984 0.929 . S
H1002 C985 0.929 . S
H1003 C986 0.931 . S
H1004 C994 0.929 . S
H1005 C995 0.929 . S
H1006 C996 0.931 . S
H1007 C997 0.929 . S
H1008 C1014 0.930 . S
H1009 C1018 0.930 . S
H1010 C1023 0.929 . S
H1011 C1021 0.929 . S
H1012 C1016 0.929 . S
H1013 C1022 0.929 . S
C1014 H1008 0.930 . S
C1014 C1015 1.367 . S
C1014 C1022 1.378 . S
C1015 C1014 1.367 . S
C1015 C1023 1.433 . S
C1016 H1012 0.929 . S
C1016 C1018 1.378 . S
C1016 C1020 1.350 . S
C1017 C1020 1.463 . S
C1017 C1022 1.350 . S
C1017 N1025 1.427 . S
C1018 H1009 0.930 . S
C1018 C1016 1.378 . S
C1018 C1019 1.367 . S
C1019 C1018 1.367 . S
C1019 C1021 1.433 . S
C1020 C1016 1.350 . S
C1020 C1017 1.463 . S
C1020 N1024 1.427 . S
C1021 H1011 0.929 . S
C1021 C1019 1.433 . S
C1021 N1024 1.384 . S
C1022 H1013 0.929 . S
C1022 C1014 1.378 . S
C1022 C1017 1.350 . S
C1023 H1010 0.929 . S
C1023 C1015 1.433 . S
C1023 N1025 1.384 . S
N1024 C1020 1.427 . S
N1024 C1021 1.384 . S
N1025 C1017 1.427 . S
N1025 C1023 1.384 . S
H1026 C1032 0.930 . S
H1027 C1036 0.930 . S
H1028 C1041 0.929 . S
H1029 C1039 0.929 . S
H1030 C1034 0.929 . S
H1031 C1040 0.929 . S
C1032 H1026 0.930 . S
C1032 C1033 1.367 . S
C1032 C1040 1.378 . S
C1033 C1032 1.367 . S
C1033 C1041 1.433 . S
C1034 H1030 0.929 . S
C1034 C1036 1.378 . S
C1034 C1038 1.350 . S
C1035 C1038 1.463 . S
C1035 C1040 1.350 . S
C1035 N1043 1.427 . S
C1036 H1027 0.930 . S
C1036 C1034 1.378 . S
C1036 C1037 1.367 . S
C1037 C1036 1.367 . S
C1037 C1039 1.433 . S
C1038 C1034 1.350 . S
C1038 C1035 1.463 . S
C1038 N1042 1.427 . S
C1039 H1029 0.929 . S
C1039 C1037 1.433 . S
C1039 N1042 1.384 . S
C1040 H1031 0.929 . S
C1040 C1032 1.378 . S
C1040 C1035 1.350 . S
C1041 H1028 0.929 . S
C1041 C1033 1.433 . S
C1041 N1043 1.384 . S
N1042 C1038 1.427 . S
N1042 C1039 1.384 . S
N1043 C1035 1.427 . S
N1043 C1041 1.384 . S
H1044 C1050 0.930 . S
H1045 C1054 0.930 . S
H1046 C1059 0.929 . S
H1047 C1057 0.929 . S
H1048 C1052 0.929 . S
H1049 C1058 0.929 . S
C1050 H1044 0.930 . S
C1050 C1051 1.367 . S
C1050 C1058 1.378 . S
C1051 C1050 1.367 . S
C1051 C1059 1.433 . S
C1052 H1048 0.929 . S
C1052 C1054 1.378 . S
C1052 C1056 1.350 . S
C1053 C1056 1.463 . S
C1053 C1058 1.350 . S
C1053 N1061 1.427 . S
C1054 H1045 0.930 . S
C1054 C1052 1.378 . S
C1054 C1055 1.367 . S
C1055 C1054 1.367 . S
C1055 C1057 1.433 . S
C1056 C1052 1.350 . S
C1056 C1053 1.463 . S
C1056 N1060 1.427 . S
C1057 H1047 0.929 . S
C1057 C1055 1.433 . S
C1057 N1060 1.384 . S
C1058 H1049 0.929 . S
C1058 C1050 1.378 . S
C1058 C1053 1.350 . S
C1059 H1046 0.929 . S
C1059 C1051 1.433 . S
C1059 N1061 1.384 . S
N1060 C1056 1.427 . S
N1060 C1057 1.384 . S
N1061 C1053 1.427 . S
N1061 C1059 1.384 . S
H1062 C1068 0.930 . S
H1063 C1072 0.930 . S
H1064 C1077 0.929 . S
H1065 C1075 0.929 . S
H1066 C1070 0.929 . S
H1067 C1076 0.929 . S
C1068 H1062 0.930 . S
C1068 C1069 1.367 . S
C1068 C1076 1.378 . S
C1069 C1068 1.367 . S
C1069 C1077 1.433 . S
C1070 H1066 0.929 . S
C1070 C1072 1.378 . S
C1070 C1074 1.350 . S
C1071 C1074 1.463 . S
C1071 C1076 1.350 . S
C1071 N1079 1.427 . S
C1072 H1063 0.930 . S
C1072 C1070 1.378 . S
C1072 C1073 1.367 . S
C1073 C1072 1.367 . S
C1073 C1075 1.433 . S
C1074 C1070 1.350 . S
C1074 C1071 1.463 . S
C1074 N1078 1.427 . S
C1075 H1065 0.929 . S
C1075 C1073 1.433 . S
C1075 N1078 1.384 . S
C1076 H1067 0.929 . S
C1076 C1068 1.378 . S
C1076 C1071 1.350 . S
C1077 H1064 0.929 . S
C1077 C1069 1.433 . S
C1077 N1079 1.384 . S
N1078 C1074 1.427 . S
N1078 C1075 1.384 . S
N1079 C1071 1.427 . S
N1079 C1077 1.384 . S
H1080 C1086 0.930 . S
H1081 C1090 0.930 . S
H1082 C1095 0.929 . S
H1083 C1093 0.929 . S
H1084 C1088 0.929 . S
H1085 C1094 0.929 . S
C1086 H1080 0.930 . S
C1086 C1087 1.367 . S
C1086 C1094 1.378 . S
C1087 C1086 1.367 . S
C1087 C1095 1.433 . S
C1088 H1084 0.929 . S
C1088 C1090 1.378 . S
C1088 C1092 1.350 . S
C1089 C1092 1.463 . S
C1089 C1094 1.350 . S
C1089 N1097 1.427 . S
C1090 H1081 0.930 . S
C1090 C1088 1.378 . S
C1090 C1091 1.367 . S
C1091 C1090 1.367 . S
C1091 C1093 1.433 . S
C1092 C1088 1.350 . S
C1092 C1089 1.463 . S
C1092 N1096 1.427 . S
C1093 H1083 0.929 . S
C1093 C1091 1.433 . S
C1093 N1096 1.384 . S
C1094 H1085 0.929 . S
C1094 C1086 1.378 . S
C1094 C1089 1.350 . S
C1095 H1082 0.929 . S
C1095 C1087 1.433 . S
C1095 N1097 1.384 . S
N1096 C1092 1.427 . S
N1096 C1093 1.384 . S
N1097 C1089 1.427 . S
N1097 C1095 1.384 . S
H1098 C1104 0.930 . S
H1099 C1108 0.930 . S
H1100 C1113 0.929 . S
H1101 C1111 0.929 . S
H1102 C1106 0.929 . S
H1103 C1112 0.929 . S
C1104 H1098 0.930 . S
C1104 C1105 1.367 . S
C1104 C1112 1.378 . S
C1105 C1104 1.367 . S
C1105 C1113 1.433 . S
C1106 H1102 0.929 . S
C1106 C1108 1.378 . S
C1106 C1110 1.350 . S
C1107 C1110 1.463 . S
C1107 C1112 1.350 . S
C1107 N1115 1.427 . S
C1108 H1099 0.930 . S
C1108 C1106 1.378 . S
C1108 C1109 1.367 . S
C1109 C1108 1.367 . S
C1109 C1111 1.433 . S
C1110 C1106 1.350 . S
C1110 C1107 1.463 . S
C1110 N1114 1.427 . S
C1111 H1101 0.929 . S
C1111 C1109 1.433 . S
C1111 N1114 1.384 . S
C1112 H1103 0.929 . S
C1112 C1104 1.378 . S
C1112 C1107 1.350 . S
C1113 H1100 0.929 . S
C1113 C1105 1.433 . S
C1113 N1115 1.384 . S
N1114 C1110 1.427 . S
N1114 C1111 1.384 . S
N1115 C1107 1.427 . S
N1115 C1113 1.384 . S
H1116 C1122 0.930 . S
H1117 C1126 0.930 . S
H1118 C1131 0.929 . S
H1119 C1129 0.929 . S
H1120 C1124 0.929 . S
H1121 C1130 0.929 . S
C1122 H1116 0.930 . S
C1122 C1123 1.367 . S
C1122 C1130 1.378 . S
C1123 C1122 1.367 . S
C1123 C1131 1.433 . S
C1124 H1120 0.929 . S
C1124 C1126 1.378 . S
C1124 C1128 1.350 . S
C1125 C1128 1.463 1_556 S
C1125 C1130 1.350 . S
C1125 N1133 1.427 . S
C1126 H1117 0.930 . S
C1126 C1124 1.378 . S
C1126 C1127 1.367 . S
C1127 C1126 1.367 . S
C1127 C1129 1.433 . S
C1128 C1124 1.350 . S
C1128 C1125 1.463 1_554 S
C1128 N1132 1.427 . S
C1129 H1119 0.929 . S
C1129 C1127 1.433 . S
C1129 N1132 1.384 . S
C1130 H1121 0.929 . S
C1130 C1122 1.378 . S
C1130 C1125 1.350 . S
C1131 H1118 0.929 . S
C1131 C1123 1.433 . S
C1131 N1133 1.384 . S
N1132 C1128 1.427 . S
N1132 C1129 1.384 . S
N1133 C1125 1.427 . S
N1133 C1131 1.384 . S
H1134 C1140 0.930 . S
H1135 C1144 0.930 . S
H1136 C1149 0.929 . S
H1137 C1147 0.929 . S
H1138 C1142 0.929 . S
H1139 C1148 0.929 . S
C1140 H1134 0.930 . S
C1140 C1141 1.367 . S
C1140 C1148 1.378 . S
C1141 C1140 1.367 . S
C1141 C1149 1.433 . S
C1142 H1138 0.929 . S
C1142 C1144 1.378 . S
C1142 C1146 1.350 . S
C1143 C1146 1.463 . S
C1143 C1148 1.350 . S
C1143 N1151 1.427 . S
C1144 H1135 0.930 . S
C1144 C1142 1.378 . S
C1144 C1145 1.367 . S
C1145 C1144 1.367 . S
C1145 C1147 1.433 . S
C1146 C1142 1.350 . S
C1146 C1143 1.463 . S
C1146 N1150 1.427 . S
C1147 H1137 0.929 . S
C1147 C1145 1.433 . S
C1147 N1150 1.384 . S
C1148 H1139 0.929 . S
C1148 C1140 1.378 . S
C1148 C1143 1.350 . S
C1149 H1136 0.929 . S
C1149 C1141 1.433 . S
C1149 N1151 1.384 . S
N1150 C1146 1.427 . S
N1150 C1147 1.384 . S
N1151 C1143 1.427 . S
N1151 C1149 1.384 . S
H1152 C1158 0.930 . S
H1153 C1162 0.930 . S
H1154 C1167 0.929 . S
H1155 C1165 0.929 . S
H1156 C1160 0.929 . S
H1157 C1166 0.929 . S
C1158 H1152 0.930 . S
C1158 C1159 1.367 . S
C1158 C1166 1.378 . S
C1159 C1158 1.367 . S
C1159 C1167 1.433 . S
C1160 H1156 0.929 . S
C1160 C1162 1.378 . S
C1160 C1164 1.350 . S
C1161 C1164 1.463 . S
C1161 C1166 1.350 . S
C1161 N1169 1.427 . S
C1162 H1153 0.930 . S
C1162 C1160 1.378 . S
C1162 C1163 1.367 . S
C1163 C1162 1.367 . S
C1163 C1165 1.433 . S
C1164 C1160 1.350 . S
C1164 C1161 1.463 . S
C1164 N1168 1.427 . S
C1165 H1155 0.929 . S
C1165 C1163 1.433 . S
C1165 N1168 1.384 . S
C1166 H1157 0.929 . S
C1166 C1158 1.378 . S
C1166 C1161 1.350 . S
C1167 H1154 0.929 . S
C1167 C1159 1.433 . S
C1167 N1169 1.384 . S
N1168 C1164 1.427 . S
N1168 C1165 1.384 . S
N1169 C1161 1.427 . S
N1169 C1167 1.384 . S
H1170 C1176 0.930 . S
H1171 C1180 0.930 . S
H1172 C1185 0.929 . S
H1173 C1183 0.929 . S
H1174 C1178 0.929 . S
H1175 C1184 0.929 . S
C1176 H1170 0.930 . S
C1176 C1177 1.367 . S
C1176 C1184 1.378 . S
C1177 C1176 1.367 . S
C1177 C1185 1.433 . S
C1178 H1174 0.929 . S
C1178 C1180 1.378 . S
C1178 C1182 1.350 . S
C1179 C1182 1.463 1_556 S
C1179 C1184 1.350 . S
C1179 N1187 1.427 . S
C1180 H1171 0.930 . S
C1180 C1178 1.378 . S
C1180 C1181 1.367 . S
C1181 C1180 1.367 . S
C1181 C1183 1.433 . S
C1182 C1178 1.350 . S
C1182 C1179 1.463 1_554 S
C1182 N1186 1.427 . S
C1183 H1173 0.929 . S
C1183 C1181 1.433 . S
C1183 N1186 1.384 . S
C1184 H1175 0.929 . S
C1184 C1176 1.378 . S
C1184 C1179 1.350 . S
C1185 H1172 0.929 . S
C1185 C1177 1.433 . S
C1185 N1187 1.384 . S
N1186 C1182 1.427 . S
N1186 C1183 1.384 . S
N1187 C1179 1.427 . S
N1187 C1185 1.384 . S
H1188 C1194 0.930 . S
H1189 C1198 0.930 . S
H1190 C1203 0.929 . S
H1191 C1201 0.929 . S
H1192 C1196 0.929 . S
H1193 C1202 0.929 . S
C1194 H1188 0.930 . S
C1194 C1195 1.367 . S
C1194 C1202 1.378 . S
C1195 C1194 1.367 . S
C1195 C1203 1.433 . S
C1196 H1192 0.929 . S
C1196 C1198 1.378 . S
C1196 C1200 1.350 . S
C1197 C1200 1.463 . S
C1197 C1202 1.350 . S
C1197 N1205 1.427 . S
C1198 H1189 0.930 . S
C1198 C1196 1.378 . S
C1198 C1199 1.367 . S
C1199 C1198 1.367 . S
C1199 C1201 1.433 . S
C1200 C1196 1.350 . S
C1200 C1197 1.463 . S
C1200 N1204 1.427 . S
C1201 H1191 0.929 . S
C1201 C1199 1.433 . S
C1201 N1204 1.384 . S
C1202 H1193 0.929 . S
C1202 C1194 1.378 . S
C1202 C1197 1.350 . S
C1203 H1190 0.929 . S
C1203 C1195 1.433 . S
C1203 N1205 1.384 . S
N1204 C1200 1.427 . S
N1204 C1201 1.384 . S
N1205 C1197 1.427 . S
N1205 C1203 1.384 . S
H1206 C1212 0.930 . S
H1207 C1216 0.930 . S
H1208 C1221 0.929 . S
H1209 C1219 0.929 . S
H1210 C1214 0.929 . S
H1211 C1220 0.929 . S
C1212 H1206 0.930 . S
C1212 C1213 1.367 . S
C1212 C1220 1.378 . S
C1213 C1212 1.367 . S
C1213 C1221 1.433 . S
C1214 H1210 0.929 . S
C1214 C1216 1.378 . S
C1214 C1218 1.350 . S
C1215 C1218 1.463 . S
C1215 C1220 1.350 . S
C1215 N1223 1.427 . S
C1216 H1207 0.930 . S
C1216 C1214 1.378 . S
C1216 C1217 1.367 . S
C1217 C1216 1.367 . S
C1217 C1219 1.433 . S
C1218 C1214 1.350 . S
C1218 C1215 1.463 . S
C1218 N1222 1.427 . S
C1219 H1209 0.929 . S
C1219 C1217 1.433 . S
C1219 N1222 1.384 . S
C1220 H1211 0.929 . S
C1220 C1212 1.378 . S
C1220 C1215 1.350 . S
C1221 H1208 0.929 . S
C1221 C1213 1.433 . S
C1221 N1223 1.384 . S
N1222 C1218 1.427 . S
N1222 C1219 1.384 . S
N1223 C1215 1.427 . S
N1223 C1221 1.384 . S
H1224 C1230 0.930 . S
H1225 C1234 0.930 . S
H1226 C1239 0.929 . S
H1227 C1237 0.929 . S
H1228 C1232 0.929 . S
H1229 C1238 0.929 . S
C1230 H1224 0.930 . S
C1230 C1231 1.367 . S
C1230 C1238 1.378 1_565 S
C1231 C1230 1.367 . S
C1231 C1239 1.433 . S
C1232 H1228 0.929 . S
C1232 C1234 1.378 1_565 S
C1232 C1236 1.350 1_565 S
C1233 C1236 1.463 1_566 S
C1233 C1238 1.350 1_565 S
C1233 N1241 1.427 . S
C1234 H1225 0.930 . S
C1234 C1232 1.378 1_545 S
C1234 C1235 1.367 . S
C1235 C1234 1.367 . S
C1235 C1237 1.433 . S
C1236 C1232 1.350 1_545 S
C1236 C1233 1.463 1_544 S
C1236 N1240 1.427 . S
C1237 H1227 0.929 . S
C1237 C1235 1.433 . S
C1237 N1240 1.384 . S
C1238 H1229 0.929 . S
C1238 C1230 1.378 1_545 S
C1238 C1233 1.350 1_545 S
C1239 H1226 0.929 . S
C1239 C1231 1.433 . S
C1239 N1241 1.384 . S
N1240 C1236 1.427 . S
N1240 C1237 1.384 . S
N1241 C1233 1.427 . S
N1241 C1239 1.384 . S
H1242 C1248 0.930 . S
H1243 C1252 0.930 . S
H1244 C1257 0.929 . S
H1245 C1255 0.929 . S
H1246 C1250 0.929 . S
H1247 C1256 0.929 . S
C1248 H1242 0.930 . S
C1248 C1249 1.367 . S
C1248 C1256 1.378 . S
C1249 C1248 1.367 . S
C1249 C1257 1.433 . S
C1250 H1246 0.929 . S
C1250 C1252 1.378 . S
C1250 C1254 1.350 . S
C1251 C1254 1.463 . S
C1251 C1256 1.350 . S
C1251 N1259 1.427 . S
C1252 H1243 0.930 . S
C1252 C1250 1.378 . S
C1252 C1253 1.367 . S
C1253 C1252 1.367 . S
C1253 C1255 1.433 . S
C1254 C1250 1.350 . S
C1254 C1251 1.463 . S
C1254 N1258 1.427 . S
C1255 H1245 0.929 . S
C1255 C1253 1.433 . S
C1255 N1258 1.384 . S
C1256 H1247 0.929 . S
C1256 C1248 1.378 . S
C1256 C1251 1.350 . S
C1257 H1244 0.929 . S
C1257 C1249 1.433 . S
C1257 N1259 1.384 . S
N1258 C1254 1.427 . S
N1258 C1255 1.384 . S
N1259 C1251 1.427 . S
N1259 C1257 1.384 . S
H1260 C1266 0.930 . S
H1261 C1270 0.930 . S
H1262 C1275 0.929 . S
H1263 C1273 0.929 . S
H1264 C1268 0.929 . S
H1265 C1274 0.929 . S
C1266 H1260 0.930 . S
C1266 C1267 1.367 . S
C1266 C1274 1.378 . S
C1267 C1266 1.367 . S
C1267 C1275 1.433 . S
C1268 H1264 0.929 . S
C1268 C1270 1.378 . S
C1268 C1272 1.350 . S
C1269 C1272 1.463 1_455 S
C1269 C1274 1.350 . S
C1269 N1277 1.427 1_455 S
C1270 H1261 0.930 . S
C1270 C1268 1.378 . S
C1270 C1271 1.367 . S
C1271 C1270 1.367 . S
C1271 C1273 1.433 . S
C1272 C1268 1.350 . S
C1272 C1269 1.463 1_655 S
C1272 N1276 1.427 1_655 S
C1273 H1263 0.929 . S
C1273 C1271 1.433 . S
C1273 N1276 1.384 1_655 S
C1274 H1265 0.929 . S
C1274 C1266 1.378 . S
C1274 C1269 1.350 . S
C1275 H1262 0.929 . S
C1275 C1267 1.433 . S
C1275 N1277 1.384 1_455 S
N1276 C1272 1.427 1_455 S
N1276 C1273 1.384 1_455 S
N1277 C1269 1.427 1_655 S
N1277 C1275 1.384 1_655 S
H1278 C1284 0.930 . S
H1279 C1288 0.930 . S
H1280 C1293 0.929 . S
H1281 C1291 0.929 . S
H1282 C1286 0.929 1_554 S
H1283 C1292 0.929 1_556 S
C1284 H1278 0.930 . S
C1284 C1285 1.367 . S
C1284 C1292 1.378 . S
C1285 C1284 1.367 . S
C1285 C1293 1.433 . S
C1286 H1282 0.929 1_556 S
C1286 C1288 1.378 . S
C1286 C1290 1.350 . S
C1287 C1290 1.463 1_564 S
C1287 C1292 1.350 . S
C1287 N1295 1.427 1_565 S
C1288 H1279 0.930 . S
C1288 C1286 1.378 . S
C1288 C1289 1.367 . S
C1289 C1288 1.367 . S
C1289 C1291 1.433 . S
C1290 C1286 1.350 . S
C1290 C1287 1.463 1_546 S
C1290 N1294 1.427 1_545 S
C1291 H1281 0.929 . S
C1291 C1289 1.433 . S
C1291 N1294 1.384 1_545 S
C1292 H1283 0.929 1_554 S
C1292 C1284 1.378 . S
C1292 C1287 1.350 . S
C1293 H1280 0.929 . S
C1293 C1285 1.433 . S
C1293 N1295 1.384 1_565 S
N1294 C1290 1.427 1_565 S
N1294 C1291 1.384 1_565 S
N1295 C1287 1.427 1_545 S
N1295 C1293 1.384 1_545 S
H1296 C1302 0.930 . S
H1297 C1306 0.930 . S
H1298 C1311 0.929 . S
H1299 C1309 0.929 . S
H1300 C1304 0.929 . S
H1301 C1310 0.929 . S
C1302 H1296 0.930 . S
C1302 C1303 1.367 . S
C1302 C1310 1.378 . S
C1303 C1302 1.367 . S
C1303 C1311 1.433 . S
C1304 H1300 0.929 . S
C1304 C1306 1.378 . S
C1304 C1308 1.350 . S
C1305 C1308 1.463 . S
C1305 C1310 1.350 . S
C1305 N1313 1.427 . S
C1306 H1297 0.930 . S
C1306 C1304 1.378 . S
C1306 C1307 1.367 . S
C1307 C1306 1.367 . S
C1307 C1309 1.433 . S
C1308 C1304 1.350 . S
C1308 C1305 1.463 . S
C1308 N1312 1.427 . S
C1309 H1299 0.929 . S
C1309 C1307 1.433 . S
C1309 N1312 1.384 . S
C1310 H1301 0.929 . S
C1310 C1302 1.378 . S
C1310 C1305 1.350 . S
C1311 H1298 0.929 . S
C1311 C1303 1.433 . S
C1311 N1313 1.384 . S
N1312 C1308 1.427 . S
N1312 C1309 1.384 . S
N1313 C1305 1.427 . S
N1313 C1311 1.384 . S
H1314 C1320 0.930 . S
H1315 C1324 0.930 . S
H1316 C1329 0.929 . S
H1317 C1327 0.929 . S
H1318 C1322 0.929 . S
H1319 C1328 0.929 . S
C1320 H1314 0.930 . S
C1320 C1321 1.367 . S
C1320 C1328 1.378 . S
C1321 C1320 1.367 . S
C1321 C1329 1.433 . S
C1322 H1318 0.929 . S
C1322 C1324 1.378 . S
C1322 C1326 1.350 . S
C1323 C1326 1.463 1_455 S
C1323 C1328 1.350 . S
C1323 N1331 1.427 1_455 S
C1324 H1315 0.930 . S
C1324 C1322 1.378 . S
C1324 C1325 1.367 . S
C1325 C1324 1.367 . S
C1325 C1327 1.433 . S
C1326 C1322 1.350 . S
C1326 C1323 1.463 1_655 S
C1326 N1330 1.427 1_655 S
C1327 H1317 0.929 . S
C1327 C1325 1.433 . S
C1327 N1330 1.384 1_655 S
C1328 H1319 0.929 . S
C1328 C1320 1.378 . S
C1328 C1323 1.350 . S
C1329 H1316 0.929 . S
C1329 C1321 1.433 . S
C1329 N1331 1.384 1_455 S
N1330 C1326 1.427 1_455 S
N1330 C1327 1.384 1_455 S
N1331 C1323 1.427 1_655 S
N1331 C1329 1.384 1_655 S
H1332 C1338 0.930 . S
H1333 C1342 0.930 . S
H1334 C1347 0.929 . S
H1335 C1345 0.929 . S
H1336 C1340 0.929 . S
H1337 C1346 0.929 . S
C1338 H1332 0.930 . S
C1338 C1339 1.367 . S
C1338 C1346 1.378 . S
C1339 C1338 1.367 . S
C1339 C1347 1.433 . S
C1340 H1336 0.929 . S
C1340 C1342 1.378 . S
C1340 C1344 1.350 . S
C1341 C1344 1.463 1_545 S
C1341 C1346 1.350 . S
C1341 N1349 1.427 . S
C1342 H1333 0.930 . S
C1342 C1340 1.378 . S
C1342 C1343 1.367 . S
C1343 C1342 1.367 . S
C1343 C1345 1.433 . S
C1344 C1340 1.350 . S
C1344 C1341 1.463 1_565 S
C1344 N1348 1.427 . S
C1345 H1335 0.929 . S
C1345 C1343 1.433 . S
C1345 N1348 1.384 . S
C1346 H1337 0.929 . S
C1346 C1338 1.378 . S
C1346 C1341 1.350 . S
C1347 H1334 0.929 . S
C1347 C1339 1.433 . S
C1347 N1349 1.384 . S
N1348 C1344 1.427 . S
N1348 C1345 1.384 . S
N1349 C1341 1.427 . S
N1349 C1347 1.384 . S
H1350 C1356 0.930 . S
H1351 C1360 0.930 . S
H1352 C1365 0.929 . S
H1353 C1363 0.929 . S
H1354 C1358 0.929 . S
H1355 C1364 0.929 . S
C1356 H1350 0.930 . S
C1356 C1357 1.367 . S
C1356 C1364 1.378 . S
C1357 C1356 1.367 . S
C1357 C1365 1.433 . S
C1358 H1354 0.929 . S
C1358 C1360 1.378 . S
C1358 C1362 1.350 . S
C1359 C1362 1.463 . S
C1359 C1364 1.350 . S
C1359 N1367 1.427 . S
C1360 H1351 0.930 . S
C1360 C1358 1.378 . S
C1360 C1361 1.367 . S
C1361 C1360 1.367 . S
C1361 C1363 1.433 . S
C1362 C1358 1.350 . S
C1362 C1359 1.463 . S
C1362 N1366 1.427 . S
C1363 H1353 0.929 . S
C1363 C1361 1.433 . S
C1363 N1366 1.384 . S
C1364 H1355 0.929 . S
C1364 C1356 1.378 . S
C1364 C1359 1.350 . S
C1365 H1352 0.929 . S
C1365 C1357 1.433 . S
C1365 N1367 1.384 . S
N1366 C1362 1.427 . S
N1366 C1363 1.384 . S
N1367 C1359 1.427 . S
N1367 C1365 1.384 . S
H1368 C1374 0.930 . S
H1369 C1378 0.930 . S
H1370 C1383 0.929 . S
H1371 C1381 0.929 . S
H1372 C1376 0.929 . S
H1373 C1382 0.929 . S
C1374 H1368 0.930 . S
C1374 C1375 1.367 . S
C1374 C1382 1.378 . S
C1375 C1374 1.367 . S
C1375 C1383 1.433 . S
C1376 H1372 0.929 . S
C1376 C1378 1.378 . S
C1376 C1380 1.350 . S
C1377 C1380 1.463 1_655 S
C1377 C1382 1.350 . S
C1377 N1385 1.427 . S
C1378 H1369 0.930 . S
C1378 C1376 1.378 . S
C1378 C1379 1.367 . S
C1379 C1378 1.367 . S
C1379 C1381 1.433 . S
C1380 C1376 1.350 . S
C1380 C1377 1.463 1_455 S
C1380 N1384 1.427 . S
C1381 H1371 0.929 . S
C1381 C1379 1.433 . S
C1381 N1384 1.384 . S
C1382 H1373 0.929 . S
C1382 C1374 1.378 . S
C1382 C1377 1.350 . S
C1383 H1370 0.929 . S
C1383 C1375 1.433 . S
C1383 N1385 1.384 . S
N1384 C1380 1.427 . S
N1384 C1381 1.384 . S
N1385 C1377 1.427 . S
N1385 C1383 1.384 . S
H1386 C1392 0.930 . S
H1387 C1396 0.930 . S
H1388 C1401 0.929 . S
H1389 C1399 0.929 . S
H1390 C1394 0.929 . S
H1391 C1400 0.929 . S
C1392 H1386 0.930 . S
C1392 C1393 1.367 . S
C1392 C1400 1.378 . S
C1393 C1392 1.367 . S
C1393 C1401 1.433 . S
C1394 H1390 0.929 . S
C1394 C1396 1.378 . S
C1394 C1398 1.350 . S
C1395 C1398 1.463 1_455 S
C1395 C1400 1.350 . S
C1395 N1403 1.427 . S
C1396 H1387 0.930 . S
C1396 C1394 1.378 . S
C1396 C1397 1.367 . S
C1397 C1396 1.367 . S
C1397 C1399 1.433 . S
C1398 C1394 1.350 . S
C1398 C1395 1.463 1_655 S
C1398 N1402 1.427 . S
C1399 H1389 0.929 . S
C1399 C1397 1.433 . S
C1399 N1402 1.384 . S
C1400 H1391 0.929 . S
C1400 C1392 1.378 . S
C1400 C1395 1.350 . S
C1401 H1388 0.929 . S
C1401 C1393 1.433 . S
C1401 N1403 1.384 . S
N1402 C1398 1.427 . S
N1402 C1399 1.384 . S
N1403 C1395 1.427 . S
N1403 C1401 1.384 . S
H1404 C1410 0.930 . S
H1405 C1414 0.930 . S
H1406 C1419 0.929 . S
H1407 C1417 0.929 . S
H1408 C1412 0.929 . S
H1409 C1418 0.929 . S
C1410 H1404 0.930 . S
C1410 C1411 1.367 . S
C1410 C1418 1.378 . S
C1411 C1410 1.367 . S
C1411 C1419 1.433 . S
C1412 H1408 0.929 . S
C1412 C1414 1.378 . S
C1412 C1416 1.350 . S
C1413 C1416 1.463 1_565 S
C1413 C1418 1.350 . S
C1413 N1421 1.427 . S
C1414 H1405 0.930 . S
C1414 C1412 1.378 . S
C1414 C1415 1.367 . S
C1415 C1414 1.367 . S
C1415 C1417 1.433 . S
C1416 C1412 1.350 . S
C1416 C1413 1.463 1_545 S
C1416 N1420 1.427 . S
C1417 H1407 0.929 . S
C1417 C1415 1.433 . S
C1417 N1420 1.384 . S
C1418 H1409 0.929 . S
C1418 C1410 1.378 . S
C1418 C1413 1.350 . S
C1419 H1406 0.929 . S
C1419 C1411 1.433 . S
C1419 N1421 1.384 . S
N1420 C1416 1.427 . S
N1420 C1417 1.384 . S
N1421 C1413 1.427 . S
N1421 C1419 1.384 . S
H1422 C1428 0.930 . S
H1423 C1432 0.930 . S
H1424 C1437 0.929 . S
H1425 C1435 0.929 . S
H1426 C1430 0.929 . S
H1427 C1436 0.929 . S
C1428 H1422 0.930 . S
C1428 C1429 1.367 . S
C1428 C1436 1.378 . S
C1429 C1428 1.367 . S
C1429 C1437 1.433 . S
C1430 H1426 0.929 . S
C1430 C1432 1.378 . S
C1430 C1434 1.350 . S
C1431 C1434 1.463 . S
C1431 C1436 1.350 . S
C1431 N1439 1.427 . S
C1432 H1423 0.930 . S
C1432 C1430 1.378 . S
C1432 C1433 1.367 . S
C1433 C1432 1.367 . S
C1433 C1435 1.433 . S
C1434 C1430 1.350 . S
C1434 C1431 1.463 . S
C1434 N1438 1.427 . S
C1435 H1425 0.929 . S
C1435 C1433 1.433 . S
C1435 N1438 1.384 . S
C1436 H1427 0.929 . S
C1436 C1428 1.378 . S
C1436 C1431 1.350 . S
C1437 H1424 0.929 . S
C1437 C1429 1.433 . S
C1437 N1439 1.384 . S
N1438 C1434 1.427 . S
N1438 C1435 1.384 . S
N1439 C1431 1.427 . S
N1439 C1437 1.384 . S
H1440 C1446 0.930 . S
H1441 C1450 0.930 . S
H1442 C1455 0.929 . S
H1443 C1453 0.929 . S
H1444 C1448 0.929 . S
H1445 C1454 0.929 . S
C1446 H1440 0.930 . S
C1446 C1447 1.367 . S
C1446 C1454 1.378 . S
C1447 C1446 1.367 . S
C1447 C1455 1.433 . S
C1448 H1444 0.929 . S
C1448 C1450 1.378 . S
C1448 C1452 1.350 . S
C1449 C1452 1.463 1_565 S
C1449 C1454 1.350 . S
C1449 N1457 1.427 . S
C1450 H1441 0.930 . S
C1450 C1448 1.378 . S
C1450 C1451 1.367 . S
C1451 C1450 1.367 . S
C1451 C1453 1.433 . S
C1452 C1448 1.350 . S
C1452 C1449 1.463 1_545 S
C1452 N1456 1.427 . S
C1453 H1443 0.929 . S
C1453 C1451 1.433 . S
C1453 N1456 1.384 . S
C1454 H1445 0.929 . S
C1454 C1446 1.378 . S
C1454 C1449 1.350 . S
C1455 H1442 0.929 . S
C1455 C1447 1.433 . S
C1455 N1457 1.384 . S
N1456 C1452 1.427 . S
N1456 C1453 1.384 . S
N1457 C1449 1.427 . S
N1457 C1455 1.384 . S
H1458 C1464 0.930 . S
H1459 C1468 0.930 . S
H1460 C1473 0.929 . S
H1461 C1471 0.929 . S
H1462 C1466 0.929 . S
H1463 C1472 0.929 . S
C1464 H1458 0.930 . S
C1464 C1465 1.367 . S
C1464 C1472 1.378 . S
C1465 C1464 1.367 . S
C1465 C1473 1.433 . S
C1466 H1462 0.929 . S
C1466 C1468 1.378 . S
C1466 C1470 1.350 . S
C1467 C1470 1.463 . S
C1467 C1472 1.350 . S
C1467 N1475 1.427 . S
C1468 H1459 0.930 . S
C1468 C1466 1.378 . S
C1468 C1469 1.367 . S
C1469 C1468 1.367 . S
C1469 C1471 1.433 . S
C1470 C1466 1.350 . S
C1470 C1467 1.463 . S
C1470 N1474 1.427 . S
C1471 H1461 0.929 . S
C1471 C1469 1.433 . S
C1471 N1474 1.384 . S
C1472 H1463 0.929 . S
C1472 C1464 1.378 . S
C1472 C1467 1.350 . S
C1473 H1460 0.929 . S
C1473 C1465 1.433 . S
C1473 N1475 1.384 . S
N1474 C1470 1.427 . S
N1474 C1471 1.384 . S
N1475 C1467 1.427 . S
N1475 C1473 1.384 . S
H1476 C1482 0.930 . S
H1477 C1486 0.930 . S
H1478 C1491 0.929 . S
H1479 C1489 0.929 . S
H1480 C1484 0.929 . S
H1481 C1490 0.929 . S
C1482 H1476 0.930 . S
C1482 C1483 1.367 . S
C1482 C1490 1.378 . S
C1483 C1482 1.367 . S
C1483 C1491 1.433 . S
C1484 H1480 0.929 . S
C1484 C1486 1.378 . S
C1484 C1488 1.350 . S
C1485 C1488 1.463 1_655 S
C1485 C1490 1.350 . S
C1485 N1493 1.427 . S
C1486 H1477 0.930 . S
C1486 C1484 1.378 . S
C1486 C1487 1.367 . S
C1487 C1486 1.367 . S
C1487 C1489 1.433 . S
C1488 C1484 1.350 . S
C1488 C1485 1.463 1_455 S
C1488 N1492 1.427 . S
C1489 H1479 0.929 . S
C1489 C1487 1.433 . S
C1489 N1492 1.384 . S
C1490 H1481 0.929 . S
C1490 C1482 1.378 . S
C1490 C1485 1.350 . S
C1491 H1478 0.929 . S
C1491 C1483 1.433 . S
C1491 N1493 1.384 . S
N1492 C1488 1.427 . S
N1492 C1489 1.384 . S
N1493 C1485 1.427 . S
N1493 C1491 1.384 . S
H1494 C1500 0.930 . S
H1495 C1504 0.930 . S
H1496 C1509 0.929 . S
H1497 C1507 0.929 . S
H1498 C1502 0.929 . S
H1499 C1508 0.929 . S
C1500 H1494 0.930 . S
C1500 C1501 1.367 . S
C1500 C1508 1.378 . S
C1501 C1500 1.367 . S
C1501 C1509 1.433 . S
C1502 H1498 0.929 . S
C1502 C1504 1.378 . S
C1502 C1506 1.350 . S
C1503 C1506 1.463 1_545 S
C1503 C1508 1.350 . S
C1503 N1511 1.427 . S
C1504 H1495 0.930 . S
C1504 C1502 1.378 . S
C1504 C1505 1.367 . S
C1505 C1504 1.367 . S
C1505 C1507 1.433 . S
C1506 C1502 1.350 . S
C1506 C1503 1.463 1_565 S
C1506 N1510 1.427 . S
C1507 H1497 0.929 . S
C1507 C1505 1.433 . S
C1507 N1510 1.384 . S
C1508 H1499 0.929 . S
C1508 C1500 1.378 . S
C1508 C1503 1.350 . S
C1509 H1496 0.929 . S
C1509 C1501 1.433 . S
C1509 N1511 1.384 . S
N1510 C1506 1.427 . S
N1510 C1507 1.384 . S
N1511 C1503 1.427 . S
N1511 C1509 1.384 . S
H1512 C1518 0.930 . S
H1513 C1522 0.930 . S
H1514 C1527 0.929 . S
H1515 C1525 0.929 . S
H1516 C1520 0.929 . S
H1517 C1526 0.929 . S
C1518 H1512 0.930 . S
C1518 C1519 1.367 . S
C1518 C1526 1.378 . S
C1519 C1518 1.367 . S
C1519 C1527 1.433 . S
C1520 H1516 0.929 . S
C1520 C1522 1.378 . S
C1520 C1524 1.350 . S
C1521 C1524 1.463 . S
C1521 C1526 1.350 . S
C1521 N1529 1.427 . S
C1522 H1513 0.930 . S
C1522 C1520 1.378 . S
C1522 C1523 1.367 . S
C1523 C1522 1.367 . S
C1523 C1525 1.433 . S
C1524 C1520 1.350 . S
C1524 C1521 1.463 . S
C1524 N1528 1.427 . S
C1525 H1515 0.929 . S
C1525 C1523 1.433 . S
C1525 N1528 1.384 . S
C1526 H1517 0.929 . S
C1526 C1518 1.378 . S
C1526 C1521 1.350 . S
C1527 H1514 0.929 . S
C1527 C1519 1.433 . S
C1527 N1529 1.384 . S
N1528 C1524 1.427 . S
N1528 C1525 1.384 . S
N1529 C1521 1.427 . S
N1529 C1527 1.384 . S
H1530 C1536 0.930 . S
H1531 C1540 0.930 . S
H1532 C1545 0.929 . S
H1533 C1543 0.929 . S
H1534 C1538 0.929 . S
H1535 C1544 0.929 . S
C1536 H1530 0.930 . S
C1536 C1537 1.367 . S
C1536 C1544 1.378 . S
C1537 C1536 1.367 . S
C1537 C1545 1.433 . S
C1538 H1534 0.929 . S
C1538 C1540 1.378 . S
C1538 C1542 1.350 . S
C1539 C1542 1.463 1_455 S
C1539 C1544 1.350 . S
C1539 N1547 1.427 . S
C1540 H1531 0.930 . S
C1540 C1538 1.378 . S
C1540 C1541 1.367 . S
C1541 C1540 1.367 . S
C1541 C1543 1.433 . S
C1542 C1538 1.350 . S
C1542 C1539 1.463 1_655 S
C1542 N1546 1.427 . S
C1543 H1533 0.929 . S
C1543 C1541 1.433 . S
C1543 N1546 1.384 . S
C1544 H1535 0.929 . S
C1544 C1536 1.378 . S
C1544 C1539 1.350 . S
C1545 H1532 0.929 . S
C1545 C1537 1.433 . S
C1545 N1547 1.384 . S
N1546 C1542 1.427 . S
N1546 C1543 1.384 . S
N1547 C1539 1.427 . S
N1547 C1545 1.384 . S
H1548 C1554 0.930 . S
H1549 C1558 0.930 . S
H1550 C1563 0.929 . S
H1551 C1561 0.929 . S
H1552 C1556 0.929 . S
H1553 C1562 0.929 . S
C1554 H1548 0.930 . S
C1554 C1555 1.367 . S
C1554 C1562 1.378 . S
C1555 C1554 1.367 . S
C1555 C1563 1.433 . S
C1556 H1552 0.929 . S
C1556 C1558 1.378 . S
C1556 C1560 1.350 . S
C1557 C1560 1.463 . S
C1557 C1562 1.350 . S
C1557 N1565 1.427 . S
C1558 H1549 0.930 . S
C1558 C1556 1.378 . S
C1558 C1559 1.367 . S
C1559 C1558 1.367 . S
C1559 C1561 1.433 . S
C1560 C1556 1.350 . S
C1560 C1557 1.463 . S
C1560 N1564 1.427 . S
C1561 H1551 0.929 . S
C1561 C1559 1.433 . S
C1561 N1564 1.384 . S
C1562 H1553 0.929 . S
C1562 C1554 1.378 . S
C1562 C1557 1.350 . S
C1563 H1550 0.929 . S
C1563 C1555 1.433 . S
C1563 N1565 1.384 . S
N1564 C1560 1.427 . S
N1564 C1561 1.384 . S
N1565 C1557 1.427 . S
N1565 C1563 1.384 . S
H1566 C1572 0.930 . S
H1567 C1576 0.930 . S
H1568 C1581 0.929 . S
H1569 C1579 0.929 . S
H1570 C1574 0.929 . S
H1571 C1580 0.929 . S
C1572 H1566 0.930 . S
C1572 C1573 1.367 . S
C1572 C1580 1.378 . S
C1573 C1572 1.367 . S
C1573 C1581 1.433 . S
C1574 H1570 0.929 . S
C1574 C1576 1.378 . S
C1574 C1578 1.350 . S
C1575 C1578 1.463 . S
C1575 C1580 1.350 . S
C1575 N1583 1.427 . S
C1576 H1567 0.930 . S
C1576 C1574 1.378 . S
C1576 C1577 1.367 . S
C1577 C1576 1.367 . S
C1577 C1579 1.433 . S
C1578 C1574 1.350 . S
C1578 C1575 1.463 . S
C1578 N1582 1.427 . S
C1579 H1569 0.929 . S
C1579 C1577 1.433 . S
C1579 N1582 1.384 . S
C1580 H1571 0.929 . S
C1580 C1572 1.378 . S
C1580 C1575 1.350 . S
C1581 H1568 0.929 . S
C1581 C1573 1.433 . S
C1581 N1583 1.384 . S
N1582 C1578 1.427 . S
N1582 C1579 1.384 . S
N1583 C1575 1.427 . S
N1583 C1581 1.384 . S
H1584 C1590 0.930 . S
H1585 C1594 0.930 . S
H1586 C1599 0.929 . S
H1587 C1597 0.929 . S
H1588 C1592 0.929 . S
H1589 C1598 0.929 . S
C1590 H1584 0.930 . S
C1590 C1591 1.367 . S
C1590 C1598 1.378 . S
C1591 C1590 1.367 . S
C1591 C1599 1.433 . S
C1592 H1588 0.929 . S
C1592 C1594 1.378 . S
C1592 C1596 1.350 . S
C1593 C1596 1.463 . S
C1593 C1598 1.350 . S
C1593 N1601 1.427 . S
C1594 H1585 0.930 . S
C1594 C1592 1.378 . S
C1594 C1595 1.367 . S
C1595 C1594 1.367 . S
C1595 C1597 1.433 . S
C1596 C1592 1.350 . S
C1596 C1593 1.463 . S
C1596 N1600 1.427 . S
C1597 H1587 0.929 . S
C1597 C1595 1.433 . S
C1597 N1600 1.384 . S
C1598 H1589 0.929 . S
C1598 C1590 1.378 . S
C1598 C1593 1.350 . S
C1599 H1586 0.929 . S
C1599 C1591 1.433 . S
C1599 N1601 1.384 . S
N1600 C1596 1.427 . S
N1600 C1597 1.384 . S
N1601 C1593 1.427 . S
N1601 C1599 1.384 . S
H1602 C1608 0.930 . S
H1603 C1612 0.930 . S
H1604 C1617 0.929 . S
H1605 C1615 0.929 . S
H1606 C1610 0.929 . S
H1607 C1616 0.929 . S
C1608 H1602 0.930 . S
C1608 C1609 1.367 . S
C1608 C1616 1.378 . S
C1609 C1608 1.367 . S
C1609 C1617 1.433 . S
C1610 H1606 0.929 . S
C1610 C1612 1.378 . S
C1610 C1614 1.350 . S
C1611 C1614 1.463 . S
C1611 C1616 1.350 . S
C1611 N1619 1.427 . S
C1612 H1603 0.930 . S
C1612 C1610 1.378 . S
C1612 C1613 1.367 . S
C1613 C1612 1.367 . S
C1613 C1615 1.433 . S
C1614 C1610 1.350 . S
C1614 C1611 1.463 . S
C1614 N1618 1.427 . S
C1615 H1605 0.929 . S
C1615 C1613 1.433 . S
C1615 N1618 1.384 . S
C1616 H1607 0.929 . S
C1616 C1608 1.378 . S
C1616 C1611 1.350 . S
C1617 H1604 0.929 . S
C1617 C1609 1.433 . S
C1617 N1619 1.384 . S
N1618 C1614 1.427 . S
N1618 C1615 1.384 . S
N1619 C1611 1.427 . S
N1619 C1617 1.384 . S
H1620 C1626 0.930 . S
H1621 C1630 0.930 . S
H1622 C1635 0.929 . S
H1623 C1633 0.929 . S
H1624 C1628 0.929 . S
H1625 C1634 0.929 . S
C1626 H1620 0.930 . S
C1626 C1627 1.367 . S
C1626 C1634 1.378 . S
C1627 C1626 1.367 . S
C1627 C1635 1.433 . S
C1628 H1624 0.929 . S
C1628 C1630 1.378 . S
C1628 C1632 1.350 . S
C1629 C1632 1.463 . S
C1629 C1634 1.350 . S
C1629 N1637 1.427 . S
C1630 H1621 0.930 . S
C1630 C1628 1.378 . S
C1630 C1631 1.367 . S
C1631 C1630 1.367 . S
C1631 C1633 1.433 . S
C1632 C1628 1.350 . S
C1632 C1629 1.463 . S
C1632 N1636 1.427 . S
C1633 H1623 0.929 . S
C1633 C1631 1.433 . S
C1633 N1636 1.384 . S
C1634 H1625 0.929 . S
C1634 C1626 1.378 . S
C1634 C1629 1.350 . S
C1635 H1622 0.929 . S
C1635 C1627 1.433 . S
C1635 N1637 1.384 . S
N1636 C1632 1.427 . S
N1636 C1633 1.384 . S
N1637 C1629 1.427 . S
N1637 C1635 1.384 . S
H1638 C1644 0.930 . S
H1639 C1648 0.930 . S
H1640 C1653 0.929 . S
H1641 C1651 0.929 . S
H1642 C1646 0.929 . S
H1643 C1652 0.929 . S
C1644 H1638 0.930 . S
C1644 C1645 1.367 . S
C1644 C1652 1.378 . S
C1645 C1644 1.367 . S
C1645 C1653 1.433 . S
C1646 H1642 0.929 . S
C1646 C1648 1.378 . S
C1646 C1650 1.350 . S
C1647 C1650 1.463 . S
C1647 C1652 1.350 . S
C1647 N1655 1.427 . S
C1648 H1639 0.930 . S
C1648 C1646 1.378 . S
C1648 C1649 1.367 . S
C1649 C1648 1.367 . S
C1649 C1651 1.433 . S
C1650 C1646 1.350 . S
C1650 C1647 1.463 . S
C1650 N1654 1.427 . S
C1651 H1641 0.929 . S
C1651 C1649 1.433 . S
C1651 N1654 1.384 . S
C1652 H1643 0.929 . S
C1652 C1644 1.378 . S
C1652 C1647 1.350 . S
C1653 H1640 0.929 . S
C1653 C1645 1.433 . S
C1653 N1655 1.384 . S
N1654 C1650 1.427 . S
N1654 C1651 1.384 . S
N1655 C1647 1.427 . S
N1655 C1653 1.384 . S
C1015 C63 1.104 . S
C1019 C735 1.106 . S
C1033 C147 1.103 . S
C1037 C819 1.105 . S
C1051 C231 1.103 . S
C1055 C903 1.104 . S
C1069 C987 1.103 . S
C1073 C315 1.103 . S
C1087 C399 1.104 . S
C1091 C567 1.102 . S
C1105 C651 1.106 . S
C1109 C483 1.105 . S
C1123 C898 1.568 . S
C1127 C58 1.588 . S
C1141 C982 1.590 . S
C1145 C142 1.571 . S
C1159 C226 1.570 . S
C1163 C562 1.570 . S
C1177 C646 1.581 . S
C1181 C310 1.565 . S
C1195 C730 1.590 . S
C1199 C394 1.573 . S
C1213 C478 1.570 . S
C1217 C814 1.570 . S
C1231 C655 4.547 . S
C1235 C67 4.546 . S
C1249 C739 4.547 . S
C1253 C151 4.545 . S
C1267 C823 4.546 . S
C1271 C235 4.547 . S
C1285 C319 4.546 . S
C1289 C907 4.546 . S
C1303 C403 4.547 . S
C1307 C991 4.545 . S
C1321 C487 4.546 . S
C1325 C571 4.546 . S
C1339 C74 0.536 . S
C1343 C326 0.564 . S
C1357 C158 0.543 . S
C1361 C410 0.556 . S
C1375 C242 0.571 . S
C1379 C494 0.531 . S
C1393 C830 0.538 . S
C1397 C578 0.561 . S
C1411 C662 0.537 . S
C1415 C914 0.569 . S
C1429 C998 0.571 . S
C1433 C746 0.532 . S
C1447 C657 0.568 . S
C1451 C69 0.589 . S
C1465 C741 0.571 . S
C1469 C153 0.584 . S
C1483 C237 0.566 . S
C1487 C825 0.597 . S
C1501 C909 0.567 . S
C1505 C321 0.591 . S
C1519 C993 0.566 . S
C1523 C405 0.597 . S
C1537 C489 0.598 . S
C1541 C573 0.569 . S
C1555 C56 3.546 . S
C1559 C896 3.547 . S
C1573 C140 3.548 . S
C1577 C980 3.545 1_556 S
C1591 C224 3.547 1_554 S
C1595 C560 3.546 . S
C1609 C308 3.544 . S
C1613 C644 3.549 . S
C1627 C392 3.544 . S
C1631 C728 3.550 1_556 S
C1645 C812 3.550 . S
C1649 C476 3.544 1_554 S
