# Generated by pormake.
# Topology sms, (6)-cn, num edge types: 1
# Building blocks:
#     Node 0, Type 0, BuildingBlock: IZENUY_clean_sbu_0, # of connection points: 6
#     Node 1, Type 0, BuildingBlock: IZENUY_clean_sbu_0, # of connection points: 6
#     Node 2, Type 0, BuildingBlock: IZENUY_clean_sbu_0, # of connection points: 6
#     Node 3, Type 0, BuildingBlock: IZENUY_clean_sbu_0, # of connection points: 6
#     Node 4, Type 0, BuildingBlock: IZENUY_clean_sbu_0, # of connection points: 6
#     Node 5, Type 0, BuildingBlock: IZENUY_clean_sbu_0, # of connection points: 6
#     Node 6, Type 0, BuildingBlock: IZENUY_clean_sbu_0, # of connection points: 6
#     Node 7, Type 0, BuildingBlock: IZENUY_clean_sbu_0, # of connection points: 6
#     Node 8, Type 0, BuildingBlock: IZENUY_clean_sbu_0, # of connection points: 6
#     Node 9, Type 0, BuildingBlock: IZENUY_clean_sbu_0, # of connection points: 6
#     Node 10, Type 0, BuildingBlock: IZENUY_clean_sbu_0, # of connection points: 6
#     Node 11, Type 0, BuildingBlock: IZENUY_clean_sbu_0, # of connection points: 6
#     Node 12, Type 0, BuildingBlock: IZENUY_clean_sbu_0, # of connection points: 6
#     Node 13, Type 0, BuildingBlock: IZENUY_clean_sbu_0, # of connection points: 6
#     Node 14, Type 0, BuildingBlock: IZENUY_clean_sbu_0, # of connection points: 6
#     Node 15, Type 0, BuildingBlock: IZENUY_clean_sbu_0, # of connection points: 6
#     Node 16, Type 0, BuildingBlock: IZENUY_clean_sbu_0, # of connection points: 6
#     Node 17, Type 0, BuildingBlock: IZENUY_clean_sbu_0, # of connection points: 6
#     Edge 18, Type (0, 0), BuildingBlock: XUDNAN_clean_linker_2, # of connection points: 2
#     Edge 19, Type (0, 0), BuildingBlock: XUDNAN_clean_linker_2, # of connection points: 2
#     Edge 20, Type (0, 0), BuildingBlock: XUDNAN_clean_linker_2, # of connection points: 2
#     Edge 21, Type (0, 0), BuildingBlock: XUDNAN_clean_linker_2, # of connection points: 2
#     Edge 22, Type (0, 0), BuildingBlock: XUDNAN_clean_linker_2, # of connection points: 2
#     Edge 23, Type (0, 0), BuildingBlock: XUDNAN_clean_linker_2, # of connection points: 2
#     Edge 24, Type (0, 0), BuildingBlock: XUDNAN_clean_linker_2, # of connection points: 2
#     Edge 25, Type (0, 0), BuildingBlock: XUDNAN_clean_linker_2, # of connection points: 2
#     Edge 26, Type (0, 0), BuildingBlock: XUDNAN_clean_linker_2, # of connection points: 2
#     Edge 27, Type (0, 0), BuildingBlock: XUDNAN_clean_linker_2, # of connection points: 2
#     Edge 28, Type (0, 0), BuildingBlock: XUDNAN_clean_linker_2, # of connection points: 2
#     Edge 29, Type (0, 0), BuildingBlock: XUDNAN_clean_linker_2, # of connection points: 2
#     Edge 30, Type (0, 0), BuildingBlock: XUDNAN_clean_linker_2, # of connection points: 2
#     Edge 31, Type (0, 0), BuildingBlock: XUDNAN_clean_linker_2, # of connection points: 2
#     Edge 32, Type (0, 0), BuildingBlock: XUDNAN_clean_linker_2, # of connection points: 2
#     Edge 33, Type (0, 0), BuildingBlock: XUDNAN_clean_linker_2, # of connection points: 2
#     Edge 34, Type (0, 0), BuildingBlock: XUDNAN_clean_linker_2, # of connection points: 2
#     Edge 35, Type (0, 0), BuildingBlock: XUDNAN_clean_linker_2, # of connection points: 2
#     Edge 36, Type (0, 0), BuildingBlock: XUDNAN_clean_linker_2, # of connection points: 2
#     Edge 37, Type (0, 0), BuildingBlock: XUDNAN_clean_linker_2, # of connection points: 2
#     Edge 38, Type (0, 0), BuildingBlock: XUDNAN_clean_linker_2, # of connection points: 2
#     Edge 39, Type (0, 0), BuildingBlock: XUDNAN_clean_linker_2, # of connection points: 2
#     Edge 40, Type (0, 0), BuildingBlock: XUDNAN_clean_linker_2, # of connection points: 2
#     Edge 41, Type (0, 0), BuildingBlock: XUDNAN_clean_linker_2, # of connection points: 2
#     Edge 42, Type (0, 0), BuildingBlock: XUDNAN_clean_linker_2, # of connection points: 2
#     Edge 43, Type (0, 0), BuildingBlock: XUDNAN_clean_linker_2, # of connection points: 2
#     Edge 44, Type (0, 0), BuildingBlock: XUDNAN_clean_linker_2, # of connection points: 2
#     Edge 45, Type (0, 0), BuildingBlock: XUDNAN_clean_linker_2, # of connection points: 2
#     Edge 46, Type (0, 0), BuildingBlock: XUDNAN_clean_linker_2, # of connection points: 2
#     Edge 47, Type (0, 0), BuildingBlock: XUDNAN_clean_linker_2, # of connection points: 2
#     Edge 48, Type (0, 0), BuildingBlock: XUDNAN_clean_linker_2, # of connection points: 2
#     Edge 49, Type (0, 0), BuildingBlock: XUDNAN_clean_linker_2, # of connection points: 2
#     Edge 50, Type (0, 0), BuildingBlock: XUDNAN_clean_linker_2, # of connection points: 2
#     Edge 51, Type (0, 0), BuildingBlock: XUDNAN_clean_linker_2, # of connection points: 2
#     Edge 52, Type (0, 0), BuildingBlock: XUDNAN_clean_linker_2, # of connection points: 2
#     Edge 53, Type (0, 0), BuildingBlock: XUDNAN_clean_linker_2, # of connection points: 2
#     Edge 54, Type (0, 0), BuildingBlock: XUDNAN_clean_linker_2, # of connection points: 2
#     Edge 55, Type (0, 0), BuildingBlock: XUDNAN_clean_linker_2, # of connection points: 2
#     Edge 56, Type (0, 0), BuildingBlock: XUDNAN_clean_linker_2, # of connection points: 2
#     Edge 57, Type (0, 0), BuildingBlock: XUDNAN_clean_linker_2, # of connection points: 2
#     Edge 58, Type (0, 0), BuildingBlock: XUDNAN_clean_linker_2, # of connection points: 2
#     Edge 59, Type (0, 0), BuildingBlock: XUDNAN_clean_linker_2, # of connection points: 2
#     Edge 60, Type (0, 0), BuildingBlock: XUDNAN_clean_linker_2, # of connection points: 2
#     Edge 61, Type (0, 0), BuildingBlock: XUDNAN_clean_linker_2, # of connection points: 2
#     Edge 62, Type (0, 0), BuildingBlock: XUDNAN_clean_linker_2, # of connection points: 2
#     Edge 63, Type (0, 0), BuildingBlock: XUDNAN_clean_linker_2, # of connection points: 2
#     Edge 64, Type (0, 0), BuildingBlock: XUDNAN_clean_linker_2, # of connection points: 2
#     Edge 65, Type (0, 0), BuildingBlock: XUDNAN_clean_linker_2, # of connection points: 2
#     Edge 66, Type (0, 0), BuildingBlock: XUDNAN_clean_linker_2, # of connection points: 2
#     Edge 67, Type (0, 0), BuildingBlock: XUDNAN_clean_linker_2, # of connection points: 2
#     Edge 68, Type (0, 0), BuildingBlock: XUDNAN_clean_linker_2, # of connection points: 2
#     Edge 69, Type (0, 0), BuildingBlock: XUDNAN_clean_linker_2, # of connection points: 2
#     Edge 70, Type (0, 0), BuildingBlock: XUDNAN_clean_linker_2, # of connection points: 2
#     Edge 71, Type (0, 0), BuildingBlock: XUDNAN_clean_linker_2, # of connection points: 2
# Relax obj value: 0.430
# Max RMSD: 0.158
# Mean RMSD: 0.158
data_MOF--net-sms--node1-IZENUY_clean_sbu_0--edge1-XUDNAN_clean_linker_2
_symmetry_space_group_name_H-M    P1
_symmetry_Int_Tables_number       1
_symmetry_cell_setting            triclinic
loop_
_symmetry_equiv_pos_as_xyz
'x, y, z'
_cell_length_a     38.151243
_cell_length_b     38.185794
_cell_length_c     60.322057
_cell_angle_alpha  90.024246
_cell_angle_beta   90.042136
_cell_angle_gamma 119.98977
loop_
_atom_site_label
_atom_site_type_symbol
_atom_site_fract_x
_atom_site_fract_y
_atom_site_fract_z
_atom_type_partial_charge
Fe0 Fe 0.22854 0.44237 0.08432 0.0
Fe1 Fe 0.17826 0.35224 0.07329 0.0
O2 O 0.20444 0.40345 0.06467 0.0
Fe3 Fe 0.20628 0.41631 0.03634 0.0
O4 O 0.26101 0.44011 0.03569 0.0
O5 O 0.26883 0.47638 0.0655 0.0
O6 O 0.26152 0.42369 0.09244 0.0
C7 C 0.24984 0.38889 0.10009 0.0
C8 C 0.19468 0.47497 0.05785 0.0
O9 O 0.21395 0.3601 0.09644 0.0
C10 C 0.12736 0.35772 0.04087 0.0
O11 O 0.19332 0.41534 0.10688 0.0
O12 O 0.1447 0.36071 0.0913 0.0
O13 O 0.2084 0.46489 0.04146 0.0
O14 O 0.19633 0.4631 0.0771 0.0
C15 C 0.21352 0.34629 0.03512 0.0
O16 O 0.13825 0.33619 0.05174 0.0
O17 O 0.1523 0.3937 0.0357 0.0
C18 C 0.15696 0.38703 0.10643 0.0
O19 O 0.20984 0.34034 0.05578 0.0
O20 O 0.20384 0.37002 0.02595 0.0
C21 C 0.28348 0.46832 0.04873 0.0
Fe22 Fe 0.55391 0.77436 0.08571 0.0
Fe23 Fe 0.64589 0.82337 0.08041 0.0
O24 O 0.59683 0.79826 0.06847 0.0
Fe25 Fe 0.59033 0.79688 0.03936 0.0
O26 O 0.5609 0.82241 0.04121 0.0
O27 O 0.52053 0.78238 0.06715 0.0
O28 O 0.56687 0.82191 0.0988 0.0
C29 C 0.59993 0.84423 0.10863 0.0
C30 C 0.53205 0.71798 0.05317 0.0
O31 O 0.63042 0.83994 0.1054 0.0
C32 C 0.65461 0.78449 0.04257 0.0
O33 O 0.57874 0.76131 0.10744 0.0
O34 O 0.63831 0.77749 0.09384 0.0
O35 O 0.54464 0.7463 0.03902 0.0
O36 O 0.53908 0.72581 0.07352 0.0
C37 C 0.65539 0.87624 0.04742 0.0
O38 O 0.66981 0.81147 0.05746 0.0
O39 O 0.61904 0.77142 0.03569 0.0
C40 C 0.60897 0.75625 0.10648 0.0
O41 O 0.65697 0.87073 0.06791 0.0
O42 O 0.635 0.84679 0.03446 0.0
C43 C 0.52863 0.80852 0.05223 0.0
Fe44 Fe 0.1756 0.82532 0.08066 0.0
Fe45 Fe 0.20061 0.79676 0.03872 0.0
O46 O 0.19943 0.80073 0.068 0.0
Fe47 Fe 0.22204 0.7795 0.08478 0.0
O48 O 0.17374 0.74485 0.09732 0.0
O49 O 0.1573 0.79128 0.10489 0.0
O50 O 0.12772 0.791 0.06755 0.0
C51 C 0.12189 0.78359 0.04707 0.0
C52 C 0.24248 0.85177 0.10704 0.0
O53 O 0.15126 0.79304 0.03401 0.0
C54 C 0.27893 0.8147 0.05258 0.0
O55 O 0.1896 0.86315 0.0586 0.0
O56 O 0.22717 0.8512 0.03547 0.0
O57 O 0.23539 0.81576 0.10737 0.0
O58 O 0.2221 0.86164 0.09475 0.0
C59 C 0.18632 0.72204 0.05088 0.0
O60 O 0.25062 0.80005 0.03834 0.0
O61 O 0.2713 0.81302 0.07301 0.0
C62 C 0.21604 0.87467 0.04341 0.0
O63 O 0.17367 0.74165 0.03998 0.0
O64 O 0.21334 0.7391 0.06546 0.0
C65 C 0.15131 0.75563 0.10693 0.0
Fe66 Fe 0.41 0.21207 0.95814 0.0
Fe67 Fe 0.43688 0.21019 0.91056 0.0
O68 O 0.3979 0.19622 0.93017 0.0
Fe69 Fe 0.34693 0.16647 0.92156 0.0
O70 O 0.32713 0.18856 0.94166 0.0
O71 O 0.38143 0.23824 0.95732 0.0
O72 O 0.45564 0.261 0.95139 0.0
C73 C 0.46544 0.28091 0.93338 0.0
C74 C 0.34511 0.13117 0.96125 0.0
O75 O 0.45439 0.2631 0.91498 0.0
C76 C 0.38739 0.13301 0.89722 0.0
O77 O 0.43898 0.18647 0.96111 0.0
O78 O 0.47333 0.21022 0.9303 0.0
O79 O 0.33901 0.12623 0.94058 0.0
O80 O 0.36665 0.16617 0.96952 0.0
C81 C 0.37853 0.21984 0.88722 0.0
O82 O 0.42149 0.15803 0.90502 0.0
O83 O 0.35757 0.13882 0.89965 0.0
C84 C 0.46734 0.19151 0.94845 0.0
O85 O 0.40753 0.21268 0.88712 0.0
O86 O 0.35224 0.20567 0.90234 0.0
C87 C 0.3444 0.22159 0.95236 0.0
Fe88 Fe 0.81968 0.1763 0.92896 0.0
Fe89 Fe 0.78614 0.2052 0.967 0.0
O90 O 0.78996 0.19723 0.93845 0.0
Fe91 Fe 0.76401 0.21081 0.91935 0.0
O92 O 0.73434 0.15929 0.91028 0.0
O93 O 0.78541 0.14864 0.90531 0.0
O94 O 0.79047 0.13078 0.94545 0.0
C95 C 0.78582 0.13107 0.96615 0.0
C96 C 0.83756 0.23465 0.89754 0.0
O97 O 0.79146 0.16259 0.97608 0.0
C98 C 0.79348 0.2752 0.94731 0.0
O99 O 0.85873 0.20064 0.95096 0.0
O100 O 0.83968 0.23903 0.96854 0.0
O101 O 0.80025 0.22295 0.89695 0.0
O102 O 0.85135 0.22062 0.91185 0.0
C103 C 0.70826 0.17679 0.95426 0.0
O104 O 0.78115 0.2501 0.96313 0.0
O105 O 0.79268 0.26344 0.92767 0.0
C106 C 0.86669 0.23083 0.96326 0.0
O107 O 0.73145 0.1716 0.96706 0.0
O108 O 0.72247 0.2007 0.938 0.0
C109 C 0.74868 0.13898 0.90183 0.0
Fe110 Fe 0.83214 0.65725 0.92369 0.0
Fe111 Fe 0.78458 0.59056 0.95801 0.0
O112 O 0.80097 0.60553 0.93046 0.0
Fe113 Fe 0.7861 0.56884 0.90942 0.0
O114 O 0.83815 0.5836 0.90384 0.0
O115 O 0.85881 0.64823 0.90082 0.0
O116 O 0.87198 0.66182 0.94226 0.0
C117 C 0.86646 0.6533 0.96271 0.0
C118 C 0.77911 0.63089 0.88898 0.0
O119 O 0.83107 0.6314 0.97043 0.0
C120 C 0.71528 0.53865 0.93225 0.0
O121 O 0.81166 0.67563 0.94523 0.0
O122 O 0.75989 0.62071 0.95875 0.0
O123 O 0.78538 0.60149 0.8875 0.0
O124 O 0.79327 0.65526 0.90508 0.0
C125 C 0.80221 0.5324 0.94541 0.0
O126 O 0.73522 0.54685 0.95021 0.0
O127 O 0.73309 0.55193 0.91398 0.0
C128 C 0.77856 0.65844 0.95572 0.0
O129 O 0.80846 0.55969 0.95922 0.0
O130 O 0.78425 0.52956 0.92734 0.0
C131 C 0.86397 0.61837 0.89725 0.0
Fe132 Fe 0.87701 0.77039 0.42063 0.0
Fe133 Fe 0.83404 0.67929 0.41352 0.0
O134 O 0.8582 0.72881 0.40234 0.0
Fe135 Fe 0.86362 0.73714 0.37329 0.0
O136 O 0.91366 0.78339 0.37551 0.0
O137 O 0.92813 0.78853 0.4112 0.0
O138 O 0.88738 0.74539 0.44341 0.0
C139 C 0.89538 0.71707 0.44326 0.0
C140 C 0.84683 0.79624 0.38559 0.0
O141 O 0.87953 0.68933 0.42892 0.0
C142 C 0.78412 0.6697 0.37839 0.0
O143 O 0.82657 0.7542 0.43081 0.0
O144 O 0.8126 0.692 0.43767 0.0
O145 O 0.83691 0.76575 0.37351 0.0
O146 O 0.87067 0.80379 0.40166 0.0
C147 C 0.87744 0.67348 0.37671 0.0
O148 O 0.78769 0.66629 0.39898 0.0
O149 O 0.8146 0.69219 0.36644 0.0
C150 C 0.80474 0.72042 0.43994 0.0
O151 O 0.85012 0.65754 0.39131 0.0
O152 O 0.8906 0.70942 0.37049 0.0
C153 C 0.93929 0.797 0.39127 0.0
Fe154 Fe 0.25386 0.12502 0.3738 0.0
Fe155 Fe 0.2212 0.1138 0.42112 0.0
O156 O 0.26257 0.1321 0.40272 0.0
Fe157 Fe 0.31259 0.15735 0.41352 0.0
O158 O 0.32493 0.20298 0.39849 0.0
O159 O 0.29871 0.17324 0.36645 0.0
O160 O 0.22591 0.15199 0.37334 0.0
C161 C 0.19599 0.14369 0.38553 0.0
C162 C 0.31748 0.11184 0.37785 0.0
O163 O 0.18792 0.12071 0.40209 0.0
C164 C 0.27562 0.09623 0.44339 0.0
O165 O 0.20737 0.07569 0.37633 0.0
O166 O 0.20212 0.06218 0.41204 0.0
O167 O 0.33398 0.14083 0.39144 0.0
O168 O 0.28117 0.09759 0.372 0.0
C169 C 0.27174 0.18704 0.43971 0.0
O170 O 0.24681 0.10365 0.44379 0.0
O171 O 0.30337 0.1127 0.42916 0.0
C172 C 0.1935 0.05055 0.39218 0.0
O173 O 0.23773 0.1643 0.431 0.0
O174 O 0.30041 0.17955 0.43744 0.0
C175 C 0.32048 0.20465 0.37787 0.0
Fe176 Fe 0.84063 0.15436 0.41291 0.0
Fe177 Fe 0.86799 0.12771 0.37103 0.0
O178 O 0.86601 0.13132 0.40035 0.0
Fe179 Fe 0.88934 0.11133 0.41734 0.0
O180 O 0.8415 0.07558 0.42952 0.0
O181 O 0.82307 0.12026 0.43736 0.0
O182 O 0.79363 0.11855 0.39979 0.0
C183 C 0.78797 0.11066 0.37938 0.0
C184 C 0.90548 0.18225 0.44056 0.0
O185 O 0.81745 0.12147 0.36617 0.0
C186 C 0.94693 0.14783 0.38561 0.0
O187 O 0.85324 0.19192 0.39067 0.0
O188 O 0.89251 0.18195 0.36788 0.0
O189 O 0.90098 0.14716 0.44012 0.0
O190 O 0.88639 0.19192 0.42714 0.0
C191 C 0.85582 0.05355 0.38324 0.0
O192 O 0.91918 0.13359 0.37096 0.0
O193 O 0.93824 0.14609 0.4059 0.0
C194 C 0.87946 0.20413 0.3753 0.0
O195 O 0.84324 0.0727 0.37186 0.0
O196 O 0.88221 0.07135 0.3981 0.0
C197 C 0.81921 0.08545 0.44003 0.0
Fe198 Fe 0.00977 0.50154 0.25425 0.0
Fe199 Fe 0.0698 0.54005 0.29312 0.0
O200 O 0.05987 0.53194 0.26435 0.0
Fe201 Fe 0.1008 0.5547 0.24568 0.0
O202 O 0.07219 0.56023 0.22325 0.0
O203 O 0.01307 0.54324 0.23764 0.0
O204 O 0.9868 0.51721 0.27629 0.0
C205 C 0.00223 0.54719 0.28952 0.0
C206 C 0.05722 0.4799 0.22702 0.0
O207 O 0.0389 0.56361 0.2953 0.0
C208 C 0.13164 0.52845 0.27975 0.0
O209 O 0.00241 0.45777 0.2703 0.0
O210 O 0.02746 0.4911 0.30144 0.0
O211 O 0.09021 0.50595 0.23563 0.0
O212 O 0.02478 0.48084 0.23051 0.0
C213 C 0.12241 0.61668 0.27462 0.0
O214 O 0.10146 0.51646 0.29247 0.0
O215 O 0.13736 0.55337 0.26453 0.0
C216 C 0.00649 0.45825 0.29111 0.0
O217 O 0.11356 0.59125 0.29014 0.0
O218 O 0.11352 0.60487 0.25483 0.0
C219 C 0.04101 0.5635 0.22397 0.0
Fe220 Fe 0.48976 0.50414 0.25512 0.0
Fe221 Fe 0.44999 0.5266 0.29262 0.0
O222 O 0.46077 0.52617 0.2641 0.0
Fe223 Fe 0.44237 0.5475 0.24452 0.0
O224 O 0.43567 0.51205 0.2223 0.0
O225 O 0.44791 0.46725 0.23797 0.0
O226 O 0.47198 0.46592 0.27711 0.0
C227 C 0.44076 0.45146 0.28921 0.0
C228 C 0.51786 0.57343 0.228 0.0
O229 O 0.42403 0.47184 0.29384 0.0
C230 C 0.46677 0.60235 0.28035 0.0
O231 O 0.53319 0.53934 0.27188 0.0
O232 O 0.49749 0.53093 0.3021 0.0
O233 O 0.4931 0.58317 0.23544 0.0
O234 O 0.51303 0.53862 0.23149 0.0
C235 C 0.37675 0.51007 0.27191 0.0
O236 O 0.47515 0.58161 0.29331 0.0
O237 O 0.44601 0.58689 0.26304 0.0
C238 C 0.53116 0.54264 0.29264 0.0
O239 O 0.40048 0.52216 0.28834 0.0
O240 O 0.39014 0.51341 0.25242 0.0
C241 C 0.43125 0.47699 0.22296 0.0
Fe242 Fe 0.48991 0.97774 0.2611 0.0
Fe243 Fe 0.4471 0.9144 0.29827 0.0
O244 O 0.4575 0.927 0.26983 0.0
Fe245 Fe 0.43509 0.8882 0.24978 0.0
O246 O 0.47551 0.91281 0.22948 0.0
O247 O 0.52403 0.96457 0.24703 0.0
O248 O 0.52391 0.99184 0.28532 0.0
C249 C 0.5279 0.97076 0.30029 0.0
C250 C 0.42473 0.94616 0.23002 0.0
O251 O 0.49997 0.93547 0.30462 0.0
C252 C 0.37247 0.86452 0.28076 0.0
O253 O 0.45883 0.99492 0.27445 0.0
O254 O 0.44799 0.9612 0.3058 0.0
O255 O 0.40788 0.91096 0.23798 0.0
O256 O 0.46085 0.97223 0.23532 0.0
C257 C 0.45877 0.85208 0.28061 0.0
O258 O 0.39291 0.89241 0.29432 0.0
O259 O 0.38981 0.85569 0.26582 0.0
C260 C 0.4467 0.98815 0.29424 0.0
O261 O 0.44482 0.8652 0.29555 0.0
O262 O 0.46141 0.86362 0.26075 0.0
C263 C 0.51239 0.93895 0.23161 0.0
Fe264 Fe 0.51453 0.01383 0.74462 0.0
Fe265 Fe 0.5389 0.07918 0.70834 0.0
O266 O 0.53359 0.06505 0.73665 0.0
Fe267 Fe 0.54823 0.10281 0.75722 0.0
O268 O 0.56209 0.07706 0.77806 0.0
O269 O 0.56046 0.0264 0.76014 0.0
O270 O 0.53719 0.00118 0.72103 0.0
C271 C 0.5654 0.02429 0.70797 0.0
C272 C 0.47763 0.04369 0.77456 0.0
O273 O 0.57199 0.05923 0.70357 0.0
C274 C 0.51367 0.12918 0.72435 0.0
O275 O 0.46762 0.99729 0.72968 0.0
O276 O 0.49412 0.03258 0.69917 0.0
O277 O 0.49711 0.07952 0.76752 0.0
O278 O 0.48832 0.01794 0.76964 0.0
C279 C 0.61086 0.14041 0.72816 0.0
O280 O 0.50634 0.101 0.711 0.0
O281 O 0.53706 0.13603 0.74064 0.0
C282 C 0.46447 0.00511 0.70972 0.0
O283 O 0.58499 0.1282 0.71262 0.0
O284 O 0.60035 0.12806 0.74778 0.0
C285 C 0.57338 0.05132 0.77594 0.0
Fe286 Fe 0.89601 0.45695 0.75415 0.0
Fe287 Fe 0.98682 0.49395 0.74801 0.0
O288 O 0.93773 0.47273 0.73618 0.0
Fe289 Fe 0.9297 0.46718 0.70707 0.0
O290 O 0.90238 0.49536 0.7066 0.0
O291 O 0.86348 0.46329 0.73464 0.0
O292 O 0.91492 0.50852 0.76326 0.0
C293 C 0.94903 0.52911 0.77244 0.0
C294 C 0.86749 0.39316 0.7257 0.0
O295 O 0.97553 0.51837 0.77114 0.0
C296 C 0.99017 0.44795 0.71194 0.0
O297 O 0.91924 0.44651 0.77763 0.0
O298 O 0.97288 0.44805 0.76413 0.0
O299 O 0.88252 0.41788 0.70958 0.0
O300 O 0.87567 0.40507 0.74558 0.0
C301 C 0.00023 0.54456 0.71234 0.0
O302 O 0.00677 0.4742 0.727 0.0
O303 O 0.95586 0.4387 0.70432 0.0
C304 C 0.94395 0.43378 0.77775 0.0
O305 O 0.00406 0.54045 0.73283 0.0
O306 O 0.97562 0.51511 0.70035 0.0
C307 C 0.87068 0.48483 0.71766 0.0
Fe308 Fe 0.51 0.49141 0.74846 0.0
Fe309 Fe 0.53959 0.4642 0.7077 0.0
O310 O 0.53483 0.4669 0.7368 0.0
Fe311 Fe 0.55541 0.44515 0.75456 0.0
O312 O 0.51827 0.43304 0.77667 0.0
O313 O 0.47273 0.44545 0.7624 0.0
O314 O 0.47347 0.47799 0.72553 0.0
C315 C 0.46267 0.4517 0.71031 0.0
C316 C 0.57883 0.5163 0.77585 0.0
O317 O 0.48544 0.43872 0.70387 0.0
C318 C 0.61364 0.47691 0.72025 0.0
O319 O 0.54515 0.53845 0.73539 0.0
O320 O 0.54497 0.51417 0.70219 0.0
O321 O 0.58978 0.49392 0.76635 0.0
O322 O 0.54309 0.51013 0.77328 0.0
C323 C 0.521 0.38622 0.72337 0.0
O324 O 0.59466 0.48995 0.70912 0.0
O325 O 0.59636 0.45231 0.73593 0.0
C326 C 0.55309 0.5437 0.71497 0.0
O327 O 0.53454 0.41325 0.70835 0.0
O328 O 0.52214 0.39567 0.74348 0.0
C329 C 0.48221 0.42589 0.77554 0.0
Fe330 Fe 0.75652 0.87574 0.63328 0.0
Fe331 Fe 0.78138 0.87562 0.58523 0.0
O332 O 0.74333 0.86458 0.60504 0.0
Fe333 Fe 0.69213 0.84291 0.59652 0.0
O334 O 0.67804 0.86779 0.61833 0.0
O335 O 0.73652 0.90958 0.63376 0.0
O336 O 0.80599 0.92028 0.62799 0.0
C337 C 0.81876 0.94306 0.61118 0.0
C338 C 0.68368 0.80049 0.63436 0.0
O339 O 0.80701 0.92901 0.59198 0.0
C340 C 0.72308 0.80348 0.56929 0.0
O341 O 0.77815 0.84289 0.63459 0.0
O342 O 0.81359 0.86632 0.60398 0.0
O343 O 0.67744 0.79858 0.61371 0.0
O344 O 0.70912 0.83334 0.64354 0.0
C345 C 0.73016 0.89843 0.56367 0.0
O346 O 0.75807 0.8231 0.57744 0.0
O347 O 0.6971 0.81434 0.57304 0.0
C348 C 0.8059 0.8464 0.62184 0.0
O349 O 0.75598 0.88687 0.5628 0.0
O350 O 0.7041 0.88631 0.57895 0.0
C351 C 0.7006 0.89976 0.6292 0.0
Fe352 Fe 0.14031 0.88145 0.6306 0.0
Fe353 Fe 0.11085 0.88703 0.58423 0.0
O354 O 0.13537 0.86933 0.60199 0.0
Fe355 Fe 0.15517 0.83943 0.59112 0.0
O356 O 0.12192 0.797 0.60883 0.0
O357 O 0.13707 0.8339 0.63921 0.0
O358 O 0.08582 0.85652 0.63435 0.0
C359 C 0.06221 0.86297 0.62267 0.0
C360 C 0.21392 0.88909 0.62307 0.0
O361 O 0.074 0.88302 0.60486 0.0
C362 C 0.17896 0.89896 0.55989 0.0
O363 O 0.14427 0.93118 0.62718 0.0
O364 O 0.1457 0.93934 0.59115 0.0
O365 O 0.19672 0.8572 0.61142 0.0
O366 O 0.19511 0.90699 0.62876 0.0
C367 C 0.08243 0.81202 0.56646 0.0
O368 O 0.1436 0.89402 0.56055 0.0
O369 O 0.18979 0.88044 0.57306 0.0
C370 C 0.15263 0.95394 0.61043 0.0
O371 O 0.07401 0.83622 0.57596 0.0
O372 O 0.11729 0.81601 0.56867 0.0
C373 C 0.12242 0.79977 0.62975 0.0
Fe374 Fe 0.16321 0.32971 0.58724 0.0
Fe375 Fe 0.13942 0.26539 0.62418 0.0
O376 O 0.14273 0.27852 0.59576 0.0
Fe377 Fe 0.12557 0.24004 0.57545 0.0
O378 O 0.17583 0.26161 0.56417 0.0
O379 O 0.18586 0.32345 0.56148 0.0
O380 O 0.21109 0.34436 0.60076 0.0
C381 C 0.21577 0.33751 0.62072 0.0
C382 C 0.09977 0.29165 0.55847 0.0
O383 O 0.18649 0.31114 0.63206 0.0
C384 C 0.06494 0.20489 0.60567 0.0
O385 O 0.14472 0.34485 0.61152 0.0
O386 O 0.10935 0.28855 0.63046 0.0
O387 O 0.11114 0.2662 0.55534 0.0
O388 O 0.11631 0.31859 0.57315 0.0
C389 C 0.16035 0.21208 0.60712 0.0
O390 O 0.09135 0.21756 0.62098 0.0
O391 O 0.07453 0.2165 0.58592 0.0
C392 C 0.11838 0.32426 0.626 0.0
O393 O 0.16945 0.24074 0.62049 0.0
O394 O 0.13617 0.20585 0.59138 0.0
C395 C 0.19584 0.29716 0.55688 0.0
H396 H 0.23125 0.69358 0.0321 0.0
H397 H 0.11383 0.65641 0.06071 0.0
H398 H 0.09961 0.58559 0.06236 0.0
H399 H 0.2003 0.59796 0.99926 0.0
H400 H 0.24808 0.60083 0.00489 0.0
H401 H 0.24549 0.64653 0.00244 0.0
H402 H 0.27808 0.66927 0.04141 0.0
H403 H 0.28091 0.62384 0.04377 0.0
H404 H 0.25519 0.6362 0.06475 0.0
H405 H 0.10507 0.52306 0.06821 0.0
H406 H 0.12526 0.4709 0.07247 0.0
H407 H 0.23695 0.54773 0.03742 0.0
C408 C 0.20178 0.67003 0.03763 0.0
C409 C 0.17307 0.67977 0.04571 0.0
C410 C 0.13549 0.64893 0.0538 0.0
C411 C 0.1274 0.60883 0.05496 0.0
C412 C 0.15707 0.60032 0.04764 0.0
C413 C 0.1931 0.62991 0.03857 0.0
C414 C 0.22135 0.61384 0.03358 0.0
C415 C 0.22925 0.61484 0.00855 0.0
C416 C 0.26122 0.63716 0.04666 0.0
C417 C 0.19626 0.57097 0.04193 0.0
C418 C 0.15937 0.56374 0.05014 0.0
C419 C 0.13326 0.52791 0.06119 0.0
C420 C 0.14502 0.49867 0.06371 0.0
C421 C 0.18218 0.50532 0.0549 0.0
C422 C 0.20785 0.54168 0.04372 0.0
H423 H 0.49165 0.65297 0.08039 0.0
H424 H 0.5057 0.68836 0.01115 0.0
H425 H 0.44971 0.62037 0.00129 0.0
H426 H 0.45732 0.54294 0.07167 0.0
H427 H 0.42138 0.52831 0.09402 0.0
H428 H 0.46808 0.57583 0.09525 0.0
H429 H 0.42899 0.61401 0.10082 0.0
H430 H 0.38211 0.56698 0.10001 0.0
H431 H 0.39041 0.607 0.08112 0.0
H432 H 0.38525 0.55299 0.9999 0.0
H433 H 0.31687 0.495 0.00754 0.0
H434 H 0.34482 0.506 0.07769 0.0
C435 C 0.4839 0.64616 0.06304 0.0
C436 C 0.50305 0.67597 0.04653 0.0
C437 C 0.49149 0.66592 0.02408 0.0
C438 C 0.45988 0.6273 0.0183 0.0
C439 C 0.4405 0.5991 0.03516 0.0
C440 C 0.45231 0.60812 0.05708 0.0
C441 C 0.42324 0.57524 0.0725 0.0
C442 C 0.44376 0.55432 0.08402 0.0
C443 C 0.40512 0.59181 0.08958 0.0
C444 C 0.39196 0.54739 0.05599 0.0
C445 C 0.40289 0.56083 0.03445 0.0
C446 C 0.37678 0.54171 0.01663 0.0
C447 C 0.3381 0.50884 0.02108 0.0
C448 C 0.32597 0.49637 0.04317 0.0
C449 C 0.35368 0.515 0.06064 0.0
H450 H 0.44868 0.75572 0.04762 0.0
H451 H 0.53781 0.88318 0.04386 0.0
H452 H 0.48265 0.89928 0.03923 0.0
H453 H 0.37785 0.75932 0.00652 0.0
H454 H 0.33368 0.72247 0.02119 0.0
H455 H 0.37963 0.72 0.02214 0.0
H456 H 0.3803 0.72226 0.0648 0.0
H457 H 0.33413 0.72404 0.06481 0.0
H458 H 0.37818 0.76286 0.07885 0.0
H459 H 0.41689 0.90113 0.04136 0.0
H460 H 0.34681 0.88819 0.04676 0.0
H461 H 0.30186 0.75932 0.04626 0.0
C462 C 0.45654 0.78696 0.04531 0.0
C463 C 0.49721 0.81833 0.04608 0.0
C464 C 0.50668 0.85883 0.04308 0.0
C465 C 0.47559 0.86816 0.0405 0.0
C466 C 0.43552 0.83645 0.04037 0.0
C467 C 0.42609 0.79658 0.04222 0.0
C468 C 0.38087 0.76805 0.04256 0.0
C469 C 0.36721 0.74084 0.02188 0.0
C470 C 0.36762 0.74285 0.06403 0.0
C471 C 0.36611 0.7981 0.04185 0.0
C472 C 0.39796 0.83746 0.04043 0.0
C473 C 0.39171 0.87045 0.04179 0.0
C474 C 0.352 0.86293 0.04486 0.0
C475 C 0.31938 0.82285 0.04628 0.0
C476 C 0.32644 0.79017 0.04446 0.0
H477 H 0.5089 0.16925 0.92111 0.0
H478 H 0.48958 0.18287 0.99062 0.0
H479 H 0.5426 0.16622 1.00075 0.0
H480 H 0.53352 0.08567 0.92884 0.0
H481 H 0.57038 0.10579 0.90686 0.0
H482 H 0.52619 0.11134 0.9058 0.0
H483 H 0.57193 0.18883 0.90165 0.0
H484 H 0.61598 0.18348 0.90269 0.0
H485 H 0.61064 0.21642 0.9221 0.0
H486 H 0.60597 0.16036 0.00247 0.0
H487 H 0.6733 0.16751 0.9954 0.0
H488 H 0.6479 0.15451 0.92496 0.0
C489 C 0.5153 0.16795 0.93849 0.0
C490 C 0.49557 0.17763 0.9551 0.0
C491 C 0.50443 0.17543 0.97767 0.0
C492 C 0.53431 0.16582 0.98355 0.0
C493 C 0.55407 0.15743 0.96666 0.0
C494 C 0.54438 0.15782 0.94458 0.0
C495 C 0.5723 0.1517 0.92938 0.0
C496 C 0.54923 0.11119 0.917 0.0
C497 C 0.594 0.18724 0.91303 0.0
C498 C 0.60114 0.15081 0.94622 0.0
C499 C 0.58975 0.15309 0.96771 0.0
C500 C 0.61461 0.15747 0.98578 0.0
C501 C 0.65269 0.16132 0.98167 0.0
C502 C 0.66541 0.16132 0.95967 0.0
C503 C 0.63853 0.15412 0.94196 0.0
H504 H 0.81425 0.48548 0.91629 0.0
H505 H 0.81065 0.50692 0.98667 0.0
H506 H 0.81711 0.44688 0.99496 0.0
H507 H 0.75372 0.38378 0.91694 0.0
H508 H 0.78095 0.37233 0.89645 0.0
H509 H 0.78356 0.42061 0.89612 0.0
H510 H 0.86185 0.45696 0.89849 0.0
H511 H 0.85941 0.4086 0.89856 0.0
H512 H 0.88555 0.44438 0.9205 0.0
H513 H 0.81321 0.3794 0.99522 0.0
H514 H 0.80164 0.31096 0.98772 0.0
H515 H 0.80839 0.33445 0.91696 0.0
C516 C 0.81567 0.47803 0.93347 0.0
C517 C 0.8117 0.50051 0.95088 0.0
C518 C 0.81382 0.49008 0.97313 0.0
C519 C 0.81753 0.45612 0.97796 0.0
C520 C 0.8199 0.4337 0.96033 0.0
C521 C 0.81971 0.44464 0.93852 0.0
C522 C 0.81931 0.41386 0.92257 0.0
C523 C 0.78217 0.39663 0.90713 0.0
C524 C 0.85889 0.43204 0.90925 0.0
C525 C 0.81664 0.38253 0.93879 0.0
C526 C 0.81788 0.39487 0.96048 0.0
C527 C 0.81295 0.36972 0.97832 0.0
C528 C 0.80613 0.33081 0.97387 0.0
C529 C 0.80395 0.31733 0.95174 0.0
C530 C 0.81014 0.34394 0.93405 0.0
H531 H 0.67372 0.47792 0.96239 0.0
H532 H 0.65936 0.52837 0.9009 0.0
H533 H 0.58929 0.47157 0.89762 0.0
H534 H 0.62538 0.37904 0.94466 0.0
H535 H 0.60131 0.3566 0.97064 0.0
H536 H 0.6475 0.40455 0.97042 0.0
H537 H 0.61268 0.43677 0.99265 0.0
H538 H 0.56628 0.38875 0.99302 0.0
H539 H 0.56655 0.43293 0.98227 0.0
H540 H 0.52522 0.4058 0.89817 0.0
H541 H 0.4713 0.33476 0.9022 0.0
H542 H 0.52631 0.32565 0.96329 0.0
C543 C 0.65535 0.47768 0.94863 0.0
C544 C 0.6718 0.50776 0.932 0.0
C545 C 0.64727 0.50574 0.91387 0.0
C546 C 0.60739 0.47369 0.91192 0.0
C547 C 0.59245 0.4439 0.92825 0.0
C548 C 0.61556 0.44562 0.94632 0.0
C549 C 0.59381 0.40748 0.9602 0.0
C550 C 0.61847 0.38564 0.96154 0.0
C551 C 0.58426 0.41707 0.98341 0.0
C552 C 0.55549 0.38349 0.94669 0.0
C553 C 0.55515 0.40539 0.92851 0.0
C554 C 0.52476 0.38863 0.91254 0.0
C555 C 0.49435 0.34821 0.91494 0.0
C556 C 0.49448 0.32486 0.93315 0.0
C557 C 0.52496 0.34308 0.9495 0.0
H558 H 0.85137 0.99891 0.41295 0.0
H559 H 0.83092 0.01169 0.3435 0.0
H560 H 0.81732 0.94177 0.33648 0.0
H561 H 0.9053 0.95022 0.4056 0.0
H562 H 0.88481 0.91776 0.42943 0.0
H563 H 0.88696 0.96582 0.42898 0.0
H564 H 0.81017 0.93052 0.43633 0.0
H565 H 0.80726 0.88199 0.43685 0.0
H566 H 0.77535 0.89065 0.41824 0.0
H567 H 0.81514 0.87258 0.33699 0.0
H568 H 0.82397 0.81354 0.34512 0.0
H569 H 0.84394 0.84854 0.41437 0.0
C570 C 0.84335 0.98681 0.39629 0.0
C571 C 0.8424 0.01062 0.37873 0.0
C572 C 0.8316 0.99372 0.3572 0.0
C573 C 0.82387 0.9541 0.3531 0.0
C574 C 0.82631 0.93178 0.37081 0.0
C575 C 0.83529 0.94762 0.39203 0.0
C576 C 0.83903 0.91944 0.4081 0.0
C577 C 0.88154 0.93951 0.41862 0.0
C578 C 0.80593 0.90472 0.42593 0.0
C579 C 0.83224 0.88568 0.39257 0.0
C580 C 0.8245 0.89272 0.37113 0.0
C581 C 0.82047 0.86655 0.35381 0.0
C582 C 0.82542 0.83306 0.35855 0.0
C583 C 0.83473 0.82658 0.38036 0.0
C584 C 0.83687 0.85266 0.39751 0.0
H585 H 0.99798 0.84315 0.4215 0.0
H586 H 0.97601 0.82307 0.35074 0.0
H587 H 0.04386 0.8814 0.34335 0.0
H588 H 0.04256 0.94618 0.41968 0.0
H589 H 0.07922 0.9565 0.44124 0.0
H590 H 0.03231 0.90928 0.44105 0.0
H591 H 0.07158 0.87016 0.44115 0.0
H592 H 0.11879 0.9174 0.44146 0.0
H593 H 0.10905 0.88062 0.42008 0.0
H594 H 0.1098 0.94677 0.34367 0.0
H595 H 0.16816 0.01422 0.35158 0.0
H596 H 0.1465 0.99162 0.42218 0.0
C597 C 0.00775 0.85025 0.40443 0.0
C598 C 0.98165 0.82843 0.38669 0.0
C599 C 0.99547 0.83927 0.36461 0.0
C600 C 0.03404 0.87226 0.36025 0.0
C601 C 0.05848 0.89387 0.37814 0.0
C602 C 0.04596 0.88313 0.3998 0.0
C603 C 0.07605 0.91359 0.41603 0.0
C604 C 0.05635 0.9325 0.43032 0.0
C605 C 0.09499 0.89428 0.43053 0.0
C606 C 0.10671 0.94403 0.40009 0.0
C607 C 0.09642 0.9318 0.37833 0.0
C608 C 0.11853 0.95636 0.36065 0.0
C609 C 0.15157 0.9947 0.36532 0.0
C610 C 0.16197 0.00826 0.38751 0.0
C611 C 0.13968 0.98205 0.40505 0.0
H612 H 0.15534 0.16492 0.41395 0.0
H613 H 0.17088 0.1511 0.34397 0.0
H614 H 0.11329 0.16176 0.33533 0.0
H615 H 0.054 0.11081 0.41544 0.0
H616 H 0.04634 0.14207 0.43499 0.0
H617 H 0.09309 0.14152 0.4351 0.0
H618 H 0.13337 0.21922 0.42994 0.0
H619 H 0.08661 0.22016 0.43018 0.0
H620 H 0.12118 0.24196 0.40726 0.0
H621 H 0.04615 0.16049 0.33545 0.0
H622 H 0.9786 0.15119 0.34405 0.0
H623 H 0.01019 0.16928 0.41391 0.0
C624 C 0.1473 0.16533 0.39676 0.0
C625 C 0.1672 0.15715 0.3796 0.0
C626 C 0.15604 0.1577 0.3573 0.0
C627 C 0.12343 0.16371 0.35228 0.0
C628 C 0.10327 0.17016 0.36974 0.0
C629 C 0.11546 0.1719 0.39152 0.0
C630 C 0.08701 0.17561 0.40748 0.0
C631 C 0.06905 0.1404 0.42421 0.0
C632 C 0.10831 0.2167 0.41941 0.0
C633 C 0.05538 0.17305 0.39145 0.0
C634 C 0.06541 0.17055 0.36972 0.0
C635 C 0.03848 0.1635 0.35234 0.0
C636 C 0.00011 0.15811 0.35739 0.0
C637 C 0.98905 0.15958 0.37964 0.0
C638 C 0.01772 0.16842 0.39668 0.0
H639 H 0.33063 0.52711 0.24458 0.0
H640 H 0.32924 0.47345 0.30809 0.0
H641 H 0.26252 0.46667 0.31652 0.0
H642 H 0.29352 0.58762 0.26508 0.0
H643 H 0.2649 0.58397 0.24054 0.0
H644 H 0.30921 0.57898 0.23843 0.0
H645 H 0.26698 0.50972 0.21923 0.0
H646 H 0.22214 0.51384 0.22158 0.0
H647 H 0.22275 0.47037 0.23283 0.0
H648 H 0.19766 0.47142 0.31892 0.0
H649 H 0.14278 0.48819 0.31505 0.0
H650 H 0.1905 0.54079 0.25055 0.0
C651 C 0.31568 0.51271 0.25994 0.0
C652 C 0.33455 0.5001 0.27551 0.0
C653 C 0.31484 0.48286 0.29584 0.0
C654 C 0.27704 0.47894 0.30077 0.0
C655 C 0.25971 0.49286 0.28528 0.0
C656 C 0.27859 0.50947 0.26531 0.0
C657 C 0.25614 0.52582 0.25236 0.0
C658 C 0.28251 0.57181 0.24892 0.0
C659 C 0.24108 0.50355 0.23017 0.0
C660 C 0.22154 0.51579 0.26804 0.0
C661 C 0.22373 0.49665 0.28695 0.0
C662 C 0.19554 0.48617 0.30408 0.0
C663 C 0.16453 0.49582 0.30179 0.0
C664 C 0.16248 0.51609 0.28262 0.0
C665 C 0.1912 0.52555 0.26554 0.0
H666 H 0.47971 0.66161 0.25154 0.0
H667 H 0.47434 0.63588 0.32183 0.0
H668 H 0.47879 0.70169 0.33012 0.0
H669 H 0.54876 0.77304 0.2555 0.0
H670 H 0.52243 0.78212 0.23342 0.0
H671 H 0.52518 0.73636 0.23362 0.0
H672 H 0.44693 0.69406 0.23138 0.0
H673 H 0.44384 0.73949 0.23147 0.0
H674 H 0.41696 0.70111 0.2521 0.0
H675 H 0.47329 0.76553 0.32997 0.0
H676 H 0.46301 0.82323 0.32169 0.0
H677 H 0.47333 0.80619 0.25135 0.0
C678 C 0.48048 0.67026 0.26872 0.0
C679 C 0.47666 0.64384 0.28608 0.0
C680 C 0.47765 0.656 0.30833 0.0
C681 C 0.48003 0.6932 0.31315 0.0
C682 C 0.48215 0.7179 0.29551 0.0
C683 C 0.48314 0.70712 0.27374 0.0
C684 C 0.48256 0.73712 0.25764 0.0
C685 C 0.52209 0.75843 0.24426 0.0
C686 C 0.44536 0.71671 0.24226 0.0
C687 C 0.47951 0.76585 0.27366 0.0
C688 C 0.47961 0.75459 0.29544 0.0
C689 C 0.47396 0.77502 0.313 0.0
C690 C 0.46793 0.80761 0.30812 0.0
C691 C 0.46749 0.81934 0.28587 0.0
C692 C 0.47396 0.79838 0.26854 0.0
H693 H 0.1691 0.67578 0.24494 0.0
H694 H 0.13938 0.65483 0.31484 0.0
H695 H 0.19381 0.72423 0.32328 0.0
H696 H 0.26874 0.72047 0.25118 0.0
H697 H 0.28306 0.75732 0.22932 0.0
H698 H 0.23546 0.71109 0.22791 0.0
H699 H 0.19801 0.75158 0.2244 0.0
H700 H 0.24557 0.79826 0.22574 0.0
H701 H 0.20565 0.78895 0.24496 0.0
H702 H 0.25846 0.79055 0.3249 0.0
H703 H 0.32912 0.84573 0.31958 0.0
H704 H 0.3177 0.82176 0.24892 0.0
C705 C 0.17301 0.68631 0.26192 0.0
C706 C 0.15001 0.66001 0.27923 0.0
C707 C 0.15671 0.67454 0.30132 0.0
C708 C 0.18735 0.71403 0.30625 0.0
C709 C 0.21081 0.73867 0.2889 0.0
C710 C 0.20375 0.72542 0.26711 0.0
C711 C 0.23689 0.75504 0.25195 0.0
C712 C 0.25723 0.73476 0.23938 0.0
C713 C 0.22054 0.77463 0.23582 0.0
C714 C 0.26507 0.78541 0.26879 0.0
C715 C 0.24893 0.77639 0.28991 0.0
C716 C 0.27108 0.79841 0.30838 0.0
C717 C 0.31114 0.82966 0.30524 0.0
C718 C 0.32866 0.83769 0.28387 0.0
C719 C 0.30486 0.81616 0.26544 0.0
H720 H 0.50877 0.18 0.75341 0.0
H721 H 0.49379 0.1482 0.68369 0.0
H722 H 0.48717 0.20839 0.67543 0.0
H723 H 0.44148 0.22323 0.75642 0.0
H724 H 0.47624 0.26068 0.7757 0.0
H725 H 0.47186 0.2117 0.77466 0.0
H726 H 0.55017 0.24913 0.76898 0.0
H727 H 0.55261 0.29735 0.76867 0.0
H728 H 0.57188 0.28229 0.7455 0.0
H729 H 0.49313 0.27896 0.67493 0.0
H730 H 0.50539 0.34815 0.68253 0.0
H731 H 0.51426 0.3294 0.75281 0.0
C732 C 0.5031 0.18503 0.73643 0.0
C733 C 0.50174 0.15954 0.71921 0.0
C734 C 0.49451 0.16725 0.69719 0.0
C735 C 0.49095 0.20146 0.69235 0.0
C736 C 0.49426 0.22707 0.70978 0.0
C737 C 0.49967 0.2187 0.73139 0.0
C738 C 0.50551 0.2518 0.7471 0.0
C739 C 0.47164 0.23582 0.76447 0.0
C740 C 0.54753 0.27127 0.75819 0.0
C741 C 0.50257 0.28052 0.73109 0.0
C742 C 0.49647 0.26623 0.70956 0.0
C743 C 0.497 0.28997 0.6918 0.0
C744 C 0.5041 0.32924 0.69624 0.0
C745 C 0.51031 0.34408 0.71827 0.0
C746 C 0.50881 0.31889 0.7358 0.0
H747 H 0.6698 0.18869 0.75811 0.0
H748 H 0.64592 0.16648 0.68759 0.0
H749 H 0.71316 0.22465 0.67936 0.0
H750 H 0.7166 0.29318 0.75539 0.0
H751 H 0.75387 0.30309 0.77654 0.0
H752 H 0.70621 0.25659 0.77697 0.0
H753 H 0.74415 0.21621 0.77701 0.0
H754 H 0.79209 0.26265 0.77623 0.0
H755 H 0.78 0.22458 0.75532 0.0
H756 H 0.77923 0.28918 0.67858 0.0
H757 H 0.83935 0.356 0.68547 0.0
H758 H 0.82057 0.33594 0.75643 0.0
C759 C 0.67905 0.19553 0.74095 0.0
C760 C 0.65258 0.17306 0.7235 0.0
C761 C 0.66562 0.18335 0.70125 0.0
C762 C 0.70386 0.21621 0.69638 0.0
C763 C 0.72886 0.23832 0.71394 0.0
C764 C 0.71712 0.22834 0.73578 0.0
C765 C 0.74839 0.25895 0.7515 0.0
C766 C 0.73017 0.27914 0.76593 0.0
C767 C 0.76727 0.23941 0.76587 0.0
C768 C 0.7787 0.28842 0.73504 0.0
C769 C 0.7672 0.27568 0.71348 0.0
C770 C 0.78894 0.29924 0.6954 0.0
C771 C 0.823 0.33718 0.69948 0.0
C772 C 0.83477 0.35125 0.72146 0.0
C773 C 0.8127 0.32599 0.73941 0.0
H774 H 0.79188 0.4296 0.71939 0.0
H775 H 0.87392 0.55264 0.69859 0.0
H776 H 0.815 0.56288 0.69252 0.0
H777 H 0.70533 0.40901 0.68277 0.0
H778 H 0.66961 0.37996 0.70419 0.0
H779 H 0.71738 0.38118 0.70254 0.0
H780 H 0.73239 0.40541 0.74337 0.0
H781 H 0.68513 0.40484 0.74509 0.0
H782 H 0.73173 0.45056 0.75141 0.0
H783 H 0.7455 0.56059 0.69353 0.0
H784 H 0.67562 0.54647 0.70158 0.0
H785 H 0.64322 0.42598 0.72351 0.0
C786 C 0.79749 0.45847 0.71298 0.0
C787 C 0.8373 0.49035 0.70939 0.0
C788 C 0.84351 0.5277 0.70114 0.0
C789 C 0.81022 0.53372 0.69776 0.0
C790 C 0.77125 0.5019 0.70251 0.0
C791 C 0.76503 0.46485 0.70971 0.0
C792 C 0.72146 0.43647 0.71588 0.0
C793 C 0.70232 0.39948 0.70041 0.0
C794 C 0.71749 0.42361 0.74038 0.0
C795 C 0.70395 0.46359 0.71184 0.0
C796 C 0.73259 0.50098 0.70372 0.0
C797 C 0.72291 0.53123 0.69966 0.0
C798 C 0.68324 0.52302 0.70426 0.0
C799 C 0.65425 0.48525 0.71328 0.0
C800 C 0.66484 0.45523 0.71675 0.0
H801 H 0.99619 0.82911 0.59665 0.0
H802 H 0.03461 0.86587 0.66436 0.0
H803 H 0.96551 0.8521 0.67385 0.0
H804 H 0.94263 0.87342 0.58852 0.0
H805 H 0.90144 0.83397 0.57294 0.0
H806 H 0.94987 0.83705 0.57306 0.0
H807 H 0.91859 0.76289 0.58902 0.0
H808 H 0.87026 0.76029 0.58568 0.0
H809 H 0.8844 0.7487 0.61203 0.0
H810 H 0.89615 0.84624 0.67369 0.0
H811 H 0.8354 0.85062 0.66381 0.0
H812 H 0.84356 0.81739 0.59616 0.0
C813 C 0.9896 0.83308 0.61363 0.0
C814 C 0.02034 0.84857 0.6298 0.0
C815 C 0.0111 0.85362 0.65185 0.0
C816 C 0.97198 0.84578 0.65734 0.0
C817 C 0.94248 0.83181 0.64071 0.0
C818 C 0.95078 0.82471 0.61939 0.0
C819 C 0.91549 0.81339 0.60395 0.0
C820 C 0.92814 0.84116 0.58345 0.0
C821 C 0.89597 0.76868 0.59724 0.0
C822 C 0.88787 0.81989 0.61917 0.0
C823 C 0.90289 0.82863 0.64059 0.0
C824 C 0.88369 0.83851 0.65712 0.0
C825 C 0.84916 0.84081 0.65141 0.0
C826 C 0.83499 0.83419 0.62927 0.0
C827 C 0.85378 0.82227 0.61324 0.0
H828 H 0.15669 0.15642 0.57786 0.0
H829 H 0.18955 0.19704 0.64581 0.0
H830 H 0.19875 0.13824 0.65327 0.0
H831 H 0.09738 0.05523 0.58976 0.0
H832 H 0.11147 0.03744 0.56555 0.0
H833 H 0.11346 0.08546 0.56491 0.0
H834 H 0.18968 0.12188 0.55385 0.0
H835 H 0.18606 0.07312 0.55347 0.0
H836 H 0.22434 0.11329 0.57013 0.0
H837 H 0.19443 0.06937 0.65428 0.0
H838 H 0.18036 -0.00063 0.64847 0.0
H839 H 0.15186 0.00601 0.57947 0.0
C840 C 0.1667 0.15356 0.59423 0.0
C841 C 0.17239 0.18131 0.61127 0.0
C842 C 0.18532 0.17632 0.63245 0.0
C843 C 0.19051 0.14296 0.63683 0.0
C844 C 0.18318 0.11535 0.61976 0.0
C845 C 0.17202 0.12074 0.59881 0.0
C846 C 0.16284 0.08558 0.5837 0.0
C847 C 0.11868 0.06471 0.57552 0.0
C848 C 0.19257 0.09933 0.56415 0.0
C849 C 0.16968 0.05884 0.59949 0.0
C850 C 0.18147 0.07645 0.62022 0.0
C851 C 0.18598 0.0557 0.63801 0.0
C852 C 0.17777 0.01588 0.63456 0.0
C853 C 0.16523 0.99722 0.61349 0.0
C854 C 0.16201 0.01951 0.5957 0.0
H855 H 0.01026 0.15109 0.576 0.0
H856 H 0.02764 0.18226 0.64594 0.0
H857 H 0.96195 0.12167 0.65429 0.0
H858 H 0.89937 0.10598 0.57425 0.0
H859 H 0.89216 0.06557 0.55593 0.0
H860 H 0.9379 0.11387 0.55434 0.0
H861 H 0.98174 0.08098 0.56021 0.0
H862 H 0.9368 0.03204 0.56128 0.0
H863 H 0.97259 0.04862 0.58384 0.0
H864 H 0.89913 0.05479 0.65562 0.0
H865 H 0.84293 0.98529 0.64998 0.0
H866 H 0.86701 0.9967 0.5792 0.0
C867 C -0.00025 0.14577 0.593 0.0
C868 C 0.02384 0.17142 0.61035 0.0
C869 C 0.00954 0.16295 0.63243 0.0
C870 C 0.97224 0.12877 0.63731 0.0
C871 C 0.94976 0.10346 0.61992 0.0
C872 C 0.96287 0.11154 0.59819 0.0
C873 C 0.93509 0.07733 0.5829 0.0
C874 C 0.9149 0.09156 0.56587 0.0
C875 C 0.95792 0.05864 0.5714 0.0
C876 C 0.90474 0.04844 0.59952 0.0
C877 C 0.91356 0.0643 0.62072 0.0
C878 C 0.89155 0.04222 0.63907 0.0
C879 C 0.85985 0.00269 0.63569 0.0
C880 C 0.85064 0.9856 0.61415 0.0
C881 C 0.87305 0.00909 0.59582 0.0
H882 H 0.17934 0.41624 0.14799 0.0
H883 H 0.07418 0.35596 0.1053 0.0
H884 H 0.03284 0.36534 0.13401 0.0
H885 H 0.12771 0.38026 0.20152 0.0
H886 H 0.15882 0.42813 0.21496 0.0
H887 H 0.17944 0.41213 0.19284 0.0
H888 H 0.20004 0.47724 0.17164 0.0
H889 H 0.17883 0.49576 0.19198 0.0
H890 H 0.16237 0.49022 0.16369 0.0
H891 H 0.00632 0.39148 0.16603 0.0
H892 H 0.99789 0.42908 0.19725 0.0
H893 H 0.12142 0.47004 0.21784 0.0
C894 C 0.14732 0.40389 0.14487 0.0
C895 C 0.12988 0.38521 0.1245 0.0
C896 C 0.08799 0.3699 0.12097 0.0
C897 C 0.06437 0.37523 0.13716 0.0
C898 C 0.08307 0.39528 0.15684 0.0
C899 C 0.12357 0.40872 0.16075 0.0
C900 C 0.13814 0.43293 0.18188 0.0
C901 C 0.15188 0.41213 0.19879 0.0
C902 C 0.17186 0.47656 0.17701 0.0
C903 C 0.09983 0.4317 0.1893 0.0
C904 C 0.06813 0.40987 0.17483 0.0
C905 C 0.03083 0.40794 0.17764 0.0
C906 C 0.02627 0.42937 0.19544 0.0
C907 C 0.05894 0.45252 0.21008 0.0
C908 C 0.09565 0.45256 0.20711 0.0
H909 H 0.55116 0.67903 0.11304 0.0
H910 H 0.6692 0.77101 0.13611 0.0
H911 H 0.66344 0.72768 0.16814 0.0
H912 H 0.50322 0.65374 0.16085 0.0
H913 H 0.47323 0.59986 0.15669 0.0
H914 H 0.49048 0.63304 0.13319 0.0
H915 H 0.52723 0.59646 0.11686 0.0
H916 H 0.50648 0.56155 0.13975 0.0
H917 H 0.56019 0.58783 0.13448 0.0
H918 H 0.63801 0.68086 0.20123 0.0
H919 H 0.5971 0.63275 0.23101 0.0
H920 H 0.49703 0.57084 0.18531 0.0
C921 C 0.57641 0.68918 0.12441 0.0
C922 C 0.61071 0.7279 0.12223 0.0
C923 C 0.64304 0.74098 0.13744 0.0
C924 C 0.63993 0.71661 0.15565 0.0
C925 C 0.60478 0.67903 0.15789 0.0
C926 C 0.57404 0.66495 0.1423 0.0
C927 C 0.53784 0.62541 0.14938 0.0
C928 C 0.49895 0.62825 0.15008 0.0
C929 C 0.5326 0.59073 0.13423 0.0
C930 C 0.55141 0.62125 0.17227 0.0
C931 C 0.5905 0.65178 0.17673 0.0
C932 C 0.60791 0.65616 0.19768 0.0
C933 C 0.5846 0.62891 0.21447 0.0
C934 C 0.54454 0.5981 0.21007 0.0
C935 C 0.52807 0.59379 0.18872 0.0
H936 H 0.41971 0.91015 0.19131 0.0
H937 H 0.38562 0.98945 0.22404 0.0
H938 H 0.3413 0.98252 0.19209 0.0
H939 H 0.41325 0.93913 0.13219 0.0
H940 H 0.39248 0.88741 0.1233 0.0
H941 H 0.42791 0.90657 0.14601 0.0
H942 H 0.37638 0.84835 0.17084 0.0
H943 H 0.34051 0.82923 0.14851 0.0
H944 H 0.32651 0.84166 0.17464 0.0
H945 H 0.29245 0.95734 0.15894 0.0
H946 H 0.24421 0.91608 0.12919 0.0
H947 H 0.31018 0.85206 0.11996 0.0
C948 C 0.4043 0.92751 0.1912 0.0
C949 C 0.40659 0.95111 0.20966 0.0
C950 C 0.3849 0.97215 0.20964 0.0
C951 C 0.35964 0.96822 0.19162 0.0
C952 C 0.35679 0.94329 0.17388 0.0
C953 C 0.37903 0.92366 0.17354 0.0
C954 C 0.36702 0.89438 0.15439 0.0
C955 C 0.40226 0.90769 0.13799 0.0
C956 C 0.35168 0.85087 0.1626 0.0
C957 C 0.33325 0.89906 0.14449 0.0
C958 C 0.32816 0.92797 0.15552 0.0
C959 C 0.29668 0.93515 0.15 0.0
C960 C 0.26944 0.91166 0.13312 0.0
C961 C 0.2735 0.88089 0.12243 0.0
C962 C 0.30637 0.8754 0.12791 0.0
H963 H 0.44409 0.11029 0.89065 0.0
H964 H 0.32804 0.08927 0.86641 0.0
H965 H 0.33289 0.05071 0.8348 0.0
H966 H 0.49156 0.1324 0.84139 0.0
H967 H 0.52145 0.10863 0.84639 0.0
H968 H 0.5044 0.12618 0.8693 0.0
H969 H 0.46936 0.05373 0.88656 0.0
H970 H 0.48765 0.03719 0.86356 0.0
H971 H 0.43438 0.01129 0.86999 0.0
H972 H 0.35711 0.02771 0.80209 0.0
H973 H 0.39786 0.02113 0.77209 0.0
H974 H 0.49707 0.05563 0.81788 0.0
C975 C 0.41898 0.09641 0.87913 0.0
C976 C 0.38562 0.10279 0.88106 0.0
C977 C 0.35371 0.08452 0.86544 0.0
C978 C 0.35622 0.06253 0.8474 0.0
C979 C 0.39049 0.05846 0.84543 0.0
C980 C 0.42103 0.0744 0.86111 0.0
C981 C 0.45685 0.07024 0.85396 0.0
C982 C 0.49582 0.11181 0.85268 0.0
C983 C 0.46239 0.0414 0.86944 0.0
C984 C 0.44279 0.05169 0.83121 0.0
C985 C 0.40409 0.04432 0.82671 0.0
C986 C 0.38679 0.03198 0.8057 0.0
C987 C 0.40997 0.02813 0.78877 0.0
C988 C 0.44979 0.03637 0.79305 0.0
C989 C 0.46595 0.04734 0.8146 0.0
H990 H 0.87818 0.39266 0.80344 0.0
H991 H 0.99666 0.40682 0.79124 0.0
H992 H 0.98419 0.35723 0.8214 0.0
H993 H 0.87914 0.38628 0.86184 0.0
H994 H 0.8259 0.34981 0.86346 0.0
H995 H 0.84489 0.38567 0.84106 0.0
H996 H 0.81391 0.32715 0.81219 0.0
H997 H 0.79411 0.29123 0.83453 0.0
H998 H 0.82613 0.28733 0.81391 0.0
H999 H 0.95614 0.30493 0.85457 0.0
H1000 H 0.91592 0.25611 0.8844 0.0
H1001 H 0.81803 0.28044 0.8722 0.0
C1002 C 0.90192 0.38579 0.80701 0.0
C1003 C 0.93862 0.404 0.79509 0.0
C1004 C 0.96833 0.39333 0.80024 0.0
C1005 C 0.96148 0.36529 0.81735 0.0
C1006 C 0.92479 0.34828 0.82892 0.0
C1007 C 0.89563 0.35831 0.82371 0.0
C1008 C 0.85846 0.3364 0.83794 0.0
C1009 C 0.85172 0.36631 0.8519 0.0
C1010 C 0.82096 0.30891 0.8238 0.0
C1011 C 0.87083 0.31209 0.85217 0.0
C1012 C 0.9091 0.31904 0.84704 0.0
C1013 C 0.92612 0.29933 0.85856 0.0
C1014 C 0.90317 0.27173 0.87548 0.0
C1015 C 0.86364 0.26407 0.88047 0.0
C1016 C 0.84787 0.28499 0.86868 0.0
H1017 H 0.65937 0.54389 0.77989 0.0
H1018 H 0.56198 0.55628 0.80866 0.0
H1019 H 0.60874 0.60039 0.83803 0.0
H1020 H 0.69711 0.53139 0.82821 0.0
H1021 H 0.74949 0.55849 0.81991 0.0
H1022 H 0.71058 0.53501 0.79931 0.0
H1023 H 0.73852 0.60387 0.77917 0.0
H1024 H 0.77749 0.62769 0.79993 0.0
H1025 H 0.74404 0.64717 0.79419 0.0
H1026 H 0.66383 0.63407 0.86752 0.0
H1027 H 0.71918 0.64994 0.89434 0.0
H1028 H 0.77928 0.61535 0.84545 0.0
C1029 C 0.64796 0.55655 0.79206 0.0
C1030 C 0.60699 0.54655 0.79202 0.0
C1031 C 0.59333 0.56368 0.80831 0.0
C1032 C 0.61974 0.58889 0.825 0.0
C1033 C 0.6598 0.59718 0.8249 0.0
C1034 C 0.67378 0.58163 0.80867 0.0
C1035 C 0.71644 0.59082 0.81335 0.0
C1036 C 0.71848 0.55161 0.81533 0.0
C1037 C 0.74586 0.61908 0.7956 0.0
C1038 C 0.72376 0.61218 0.83539 0.0
C1039 C 0.69127 0.61655 0.84165 0.0
C1040 C 0.68981 0.63171 0.86252 0.0
C1041 C 0.72148 0.64098 0.87761 0.0
C1042 C 0.7536 0.63435 0.87176 0.0
C1043 C 0.75539 0.62141 0.85012 0.0
H1044 H 0.93987 0.51172 0.81581 0.0
H1045 H 0.96149 0.60565 0.76861 0.0
H1046 H 0.95626 0.64696 0.79884 0.0
H1047 H 0.8632 0.5147 0.84117 0.0
H1048 H 0.87253 0.50409 0.86892 0.0
H1049 H 0.88903 0.48661 0.84571 0.0
H1050 H 0.96277 0.52379 0.85988 0.0
H1051 H 0.94685 0.54053 0.88381 0.0
H1052 H 0.98704 0.57692 0.86646 0.0
H1053 H 0.93834 0.67258 0.83274 0.0
H1054 H 0.9028 0.67729 0.8658 0.0
H1055 H 0.88993 0.56469 0.89034 0.0
C1056 C 0.94521 0.54178 0.81215 0.0
C1057 C 0.95218 0.5564 0.79028 0.0
C1058 C 0.95701 0.59473 0.78552 0.0
C1059 C 0.95428 0.6183 0.80257 0.0
C1060 C 0.9464 0.6027 0.82408 0.0
C1061 C 0.94179 0.56515 0.82886 0.0
C1062 C 0.92629 0.55183 0.85216 0.0
C1063 C 0.88536 0.51198 0.85196 0.0
C1064 C 0.95763 0.54807 0.86642 0.0
C1065 C 0.92157 0.58706 0.85955 0.0
C1066 C 0.93428 0.61661 0.84339 0.0
C1067 C 0.92905 0.65006 0.84569 0.0
C1068 C 0.90891 0.65255 0.86456 0.0
C1069 C 0.89366 0.62133 0.88061 0.0
C1070 C 0.9016 0.58916 0.87842 0.0
H1071 H 0.40919 0.22963 0.84575 0.0
H1072 H 0.34664 0.2704 0.88939 0.0
H1073 H 0.35755 0.32377 0.86225 0.0
H1074 H 0.48458 0.31912 0.83179 0.0
H1075 H 0.48956 0.31015 0.80301 0.0
H1076 H 0.46876 0.26862 0.82219 0.0
H1077 H 0.40472 0.23026 0.79916 0.0
H1078 H 0.42043 0.27024 0.77891 0.0
H1079 H 0.3734 0.25214 0.79332 0.0
H1080 H 0.38543 0.37954 0.83219 0.0
H1081 H 0.42699 0.43011 0.8034 0.0
H1082 H 0.47116 0.3515 0.78107 0.0
C1083 C 0.39662 0.24895 0.84931 0.0
C1084 C 0.37692 0.24583 0.86956 0.0
C1085 C 0.36129 0.27194 0.87376 0.0
C1086 C 0.36746 0.30238 0.85846 0.0
C1087 C 0.38858 0.30567 0.83893 0.0
C1088 C 0.40225 0.27904 0.83426 0.0
C1089 C 0.42723 0.29063 0.81336 0.0
C1090 C 0.47001 0.2975 0.81785 0.0
C1091 C 0.4052 0.25889 0.79513 0.0
C1092 C 0.42822 0.32957 0.80779 0.0
C1093 C 0.40482 0.33744 0.82219 0.0
C1094 C 0.40324 0.37319 0.82064 0.0
C1095 C 0.42678 0.40168 0.80427 0.0
C1096 C 0.45205 0.39439 0.79016 0.0
C1097 C 0.45194 0.35759 0.7917 0.0
H1098 H 0.56715 0.06098 0.81982 0.0
H1099 H 0.63751 0.03792 0.77178 0.0
H1100 H 0.6867 0.04661 0.80131 0.0
H1101 H 0.64472 0.13776 0.84675 0.0
H1102 H 0.62339 0.12482 0.8742 0.0
H1103 H 0.5906 0.10928 0.85049 0.0
H1104 H 0.55687 0.03468 0.86313 0.0
H1105 H 0.58937 0.04998 0.88714 0.0
H1106 H 0.58773 0.01213 0.86861 0.0
H1107 H 0.73438 0.07117 0.83483 0.0
H1108 H 0.77354 0.10635 0.86851 0.0
H1109 H 0.66841 0.108 0.89453 0.0
C1110 C 0.59227 0.05652 0.81567 0.0
C1111 C 0.59867 0.0487 0.79364 0.0
C1112 C 0.63196 0.04342 0.78868 0.0
C1113 C 0.65998 0.04835 0.80534 0.0
C1114 C 0.65351 0.05747 0.82688 0.0
C1115 C 0.61986 0.06063 0.83208 0.0
C1116 C 0.62117 0.07411 0.85576 0.0
C1117 C 0.61994 0.11384 0.85684 0.0
C1118 C 0.58675 0.04071 0.86947 0.0
C1119 C 0.66187 0.08024 0.86283 0.0
C1120 C 0.68009 0.07014 0.84615 0.0
C1121 C 0.71994 0.07812 0.8482 0.0
C1122 C 0.74197 0.09801 0.86742 0.0
C1123 C 0.72407 0.10985 0.88421 0.0
C1124 C 0.68299 0.09911 0.88213 0.0
H1125 H 0.54399 0.8671 0.11642 0.0
H1126 H 0.65747 0.88197 0.14115 0.0
H1127 H 0.65359 0.91997 0.17336 0.0
H1128 H 0.55855 0.96622 0.13699 0.0
H1129 H 0.50571 0.94385 0.14385 0.0
H1130 H 0.52107 0.92465 0.12076 0.0
H1131 H 0.48351 0.85275 0.13755 0.0
H1132 H 0.4676 0.87117 0.16057 0.0
H1133 H 0.49514 0.84493 0.16546 0.0
H1134 H 0.63124 0.94645 0.20586 0.0
H1135 H 0.59166 0.95692 0.2352 0.0
H1136 H 0.49408 0.92476 0.18834 0.0
C1137 C 0.56857 0.87917 0.12831 0.0
C1138 C 0.60094 0.8715 0.12632 0.0
C1139 C 0.63241 0.88765 0.1423 0.0
C1140 C 0.63055 0.9094 0.16061 0.0
C1141 C 0.59741 0.91528 0.16245 0.0
C1142 C 0.56722 0.90092 0.14653 0.0
C1143 C 0.53262 0.9071 0.15331 0.0
C1144 C 0.52931 0.93725 0.1378 0.0
C1145 C 0.49239 0.86659 0.15429 0.0
C1146 C 0.54687 0.92497 0.17609 0.0
C1147 C 0.58469 0.93047 0.181 0.0
C1148 C 0.60202 0.94313 0.20202 0.0
C1149 C 0.5795 0.94909 0.21855 0.0
C1150 C 0.54003 0.9416 0.2139 0.0
C1151 C 0.52434 0.93083 0.19225 0.0
H1152 H 0.16317 0.75517 0.15114 0.0
H1153 H 0.07547 0.69317 0.09911 0.0
H1154 H 0.02943 0.64189 0.12624 0.0
H1155 H 0.15319 0.66965 0.17493 0.0
H1156 H 0.15988 0.6867 0.20325 0.0
H1157 H 0.18192 0.7229 0.18123 0.0
H1158 H 0.1448 0.75983 0.19478 0.0
H1159 H 0.1221 0.72401 0.2171 0.0
H1160 H 0.09056 0.73219 0.198 0.0
H1161 H 0.99759 0.59247 0.15811 0.0
H1162 H 0.98618 0.54776 0.19047 0.0
H1163 H 0.09517 0.6423 0.22111 0.0
C1164 C 0.13363 0.73149 0.14574 0.0
C1165 C 0.12214 0.72823 0.12334 0.0
C1166 C 0.08416 0.69622 0.11641 0.0
C1167 C 0.05788 0.66719 0.1317 0.0
C1168 C 0.07023 0.67075 0.15379 0.0
C1169 C 0.10733 0.70219 0.16075 0.0
C1170 C 0.11611 0.69642 0.18449 0.0
C1171 C 0.15505 0.69375 0.18605 0.0
C1172 C 0.11853 0.73013 0.19947 0.0
C1173 C 0.07889 0.65628 0.18962 0.0
C1174 C 0.05225 0.64215 0.17194 0.0
C1175 C 0.01772 0.60368 0.17225 0.0
C1176 C 0.0112 0.57858 0.19072 0.0
C1177 C 0.03934 0.59213 0.20835 0.0
C1178 C 0.07267 0.63181 0.20804 0.0
H1179 H 0.4361 0.49476 0.17938 0.0
H1180 H 0.37189 0.39731 0.2262 0.0
H1181 H 0.32222 0.35689 0.19687 0.0
H1182 H 0.35621 0.49201 0.15559 0.0
H1183 H 0.37475 0.50238 0.12753 0.0
H1184 H 0.40989 0.51948 0.15021 0.0
H1185 H 0.44462 0.48188 0.13448 0.0
H1186 H 0.40995 0.46397 0.11138 0.0
H1187 H 0.41525 0.42847 0.12869 0.0
H1188 H 0.27232 0.33394 0.16434 0.0
H1189 H 0.23001 0.33002 0.13216 0.0
H1190 H 0.32983 0.4415 0.1066 0.0
C1191 C 0.41247 0.46423 0.18318 0.0
C1192 C 0.40787 0.44884 0.20488 0.0
C1193 C 0.37626 0.40919 0.2095 0.0
C1194 C 0.34789 0.38618 0.19295 0.0
C1195 C 0.35229 0.40299 0.17184 0.0
C1196 C 0.3845 0.44087 0.16685 0.0
C1197 C 0.38076 0.45416 0.14378 0.0
C1198 C 0.38035 0.49434 0.14433 0.0
C1199 C 0.41466 0.4573 0.1287 0.0
C1200 C 0.34011 0.41911 0.13702 0.0
C1201 C 0.32425 0.38946 0.15315 0.0
C1202 C 0.28497 0.35646 0.15137 0.0
C1203 C 0.26111 0.35439 0.133 0.0
C1204 C 0.27656 0.38534 0.11679 0.0
C1205 C 0.3171 0.41712 0.11857 0.0
H1206 H 0.76648 0.76582 0.56116 0.0
H1207 H 0.66852 0.78035 0.53507 0.0
H1208 H 0.67139 0.74877 0.49991 0.0
H1209 H 0.82386 0.79546 0.51577 0.0
H1210 H 0.84274 0.76069 0.51716 0.0
H1211 H 0.82708 0.77474 0.54206 0.0
H1212 H 0.77643 0.69986 0.55093 0.0
H1213 H 0.79264 0.68506 0.52634 0.0
H1214 H 0.73977 0.66842 0.53038 0.0
H1215 H 0.6959 0.73176 0.46534 0.0
H1216 H 0.73566 0.72378 0.43527 0.0
H1217 H 0.81517 0.71676 0.48402 0.0
C1218 C 0.74449 0.76083 0.54838 0.0
C1219 C 0.71717 0.77541 0.55088 0.0
C1220 C 0.68935 0.76896 0.53366 0.0
C1221 C 0.69086 0.75114 0.51358 0.0
C1222 C 0.71976 0.7392 0.51119 0.0
C1223 C 0.74548 0.74293 0.52835 0.0
C1224 C 0.77683 0.73213 0.52087 0.0
C1225 C 0.82015 0.76788 0.52416 0.0
C1226 C 0.77104 0.69409 0.53284 0.0
C1227 C 0.7661 0.72381 0.49654 0.0
C1228 C 0.73289 0.72772 0.49129 0.0
C1229 C 0.72088 0.72704 0.46935 0.0
C1230 C 0.74357 0.7226 0.4524 0.0
C1231 C 0.77736 0.71836 0.45757 0.0
C1232 C 0.7883 0.71823 0.47986 0.0
H1233 H 0.24758 0.08906 0.48513 0.0
H1234 H 0.30551 0.04385 0.44101 0.0
H1235 H 0.29587 0.99208 0.46904 0.0
H1236 H 0.28567 0.06908 0.53794 0.0
H1237 H 0.23897 0.05432 0.55225 0.0
H1238 H 0.25603 0.09226 0.53078 0.0
H1239 H 0.18914 0.05165 0.5094 0.0
H1240 H 0.17008 0.01311 0.53033 0.0
H1241 H 0.1719 -0.00017 0.50188 0.0
H1242 H 0.26984 0.93868 0.5004 0.0
H1243 H 0.23059 0.8909 0.53081 0.0
H1244 H 0.19008 0.97282 0.55262 0.0
C1245 C 0.25927 0.06898 0.48159 0.0
C1246 C 0.27729 0.07032 0.461 0.0
C1247 C 0.29203 0.0435 0.45687 0.0
C1248 C 0.28661 0.01403 0.47267 0.0
C1249 C 0.26718 0.01254 0.49259 0.0
C1250 C 0.25438 0.03991 0.49711 0.0
C1251 C 0.23104 0.03027 0.51854 0.0
C1252 C 0.2543 0.06348 0.53589 0.0
C1253 C 0.18803 0.0233 0.5148 0.0
C1254 C 0.2303 0.99173 0.52477 0.0
C1255 C 0.2521 0.98221 0.51008 0.0
C1256 C 0.2533 0.94632 0.51216 0.0
C1257 C 0.23104 0.9194 0.52941 0.0
C1258 C 0.20741 0.9284 0.54385 0.0
C1259 C 0.20795 0.96533 0.54172 0.0
H1260 H 0.02902 0.22466 0.55094 0.0
H1261 H 0.0988 0.35085 0.5326 0.0
H1262 H 0.04967 0.33894 0.50232 0.0
H1263 H 0.01092 0.18554 0.49989 0.0
H1264 H 0.9602 0.14472 0.50485 0.0
H1265 H 0.99537 0.16542 0.52744 0.0
H1266 H 0.94598 0.18176 0.54918 0.0
H1267 H 0.91026 0.15873 0.52678 0.0
H1268 H 0.92553 0.20953 0.53552 0.0
H1269 H 0.99793 0.30914 0.4702 0.0
H1270 H 0.95009 0.26578 0.4408 0.0
H1271 H 0.91669 0.15996 0.48127 0.0
C1272 C 0.03308 0.2501 0.54105 0.0
C1273 C 0.06718 0.28868 0.54411 0.0
C1274 C 0.07224 0.32124 0.53069 0.0
C1275 C 0.04459 0.31461 0.51344 0.0
C1276 C 0.01193 0.2755 0.51024 0.0
C1277 C 0.00586 0.24401 0.52405 0.0
C1278 C 0.97129 0.20404 0.51622 0.0
C1279 C 0.98532 0.17317 0.51183 0.0
C1280 C 0.93617 0.18752 0.53291 0.0
C1281 C 0.96027 0.21723 0.49503 0.0
C1282 C 0.98314 0.2586 0.49197 0.0
C1283 C 0.97945 0.27685 0.47268 0.0
C1284 C 0.95225 0.25209 0.45608 0.0
C1285 C 0.92988 0.2096 0.45877 0.0
C1286 C 0.93347 0.19237 0.47872 0.0
H1287 H 0.17595 0.28524 0.51384 0.0
H1288 H 0.27457 0.317 0.55962 0.0
H1289 H 0.31275 0.30501 0.5303 0.0
H1290 H 0.17344 0.20418 0.49448 0.0
H1291 H 0.16121 0.20712 0.46594 0.0
H1292 H 0.14743 0.23103 0.48706 0.0
H1293 H 0.18651 0.2998 0.46715 0.0
H1294 H 0.20034 0.27657 0.44541 0.0
H1295 H 0.23901 0.31987 0.46003 0.0
H1296 H 0.33239 0.27468 0.49954 0.0
H1297 H 0.33208 0.22938 0.47019 0.0
H1298 H 0.21917 0.21512 0.44485 0.0
C1299 C 0.20668 0.29212 0.5171 0.0
C1300 C 0.22327 0.30345 0.5385 0.0
C1301 C 0.26231 0.30974 0.54296 0.0
C1302 C 0.28403 0.30286 0.52643 0.0
C1303 C 0.26601 0.28957 0.50567 0.0
C1304 C 0.22832 0.28477 0.50086 0.0
C1305 C 0.21229 0.26328 0.47895 0.0
C1306 C 0.17121 0.22411 0.4818 0.0
C1307 C 0.20938 0.29158 0.46187 0.0
C1308 C 0.24546 0.25433 0.47291 0.0
C1309 C 0.27673 0.27066 0.48814 0.0
C1310 C 0.30861 0.26264 0.4872 0.0
C1311 C 0.3081 0.23673 0.47052 0.0
C1312 C 0.27554 0.21864 0.45529 0.0
C1313 C 0.24458 0.22862 0.45621 0.0
H1314 H 0.80407 0.00912 0.44872 0.0
H1315 H 0.77801 0.10081 0.47277 0.0
H1316 H 0.74371 0.05816 0.50552 0.0
H1317 H 0.71015 0.91871 0.47054 0.0
H1318 H 0.73903 0.89406 0.4761 0.0
H1319 H 0.75281 0.92922 0.45339 0.0
H1320 H 0.82621 0.96953 0.47079 0.0
H1321 H 0.81 0.93426 0.4934 0.0
H1322 H 0.83139 0.98751 0.49887 0.0
H1323 H 0.71855 0.00766 0.53781 0.0
H1324 H 0.70812 0.95668 0.56647 0.0
H1325 H 0.75391 0.9011 0.52101 0.0
C1326 C 0.79045 0.02004 0.46058 0.0
C1327 C 0.79375 0.05838 0.45813 0.0
C1328 C 0.77566 0.07144 0.47419 0.0
C1329 C 0.75608 0.04738 0.49284 0.0
C1330 C 0.75458 0.01024 0.49506 0.0
C1331 C 0.77114 0.99665 0.47921 0.0
C1332 C 0.76913 0.95768 0.48616 0.0
C1333 C 0.74114 0.92284 0.47063 0.0
C1334 C 0.81169 0.96255 0.48738 0.0
C1335 C 0.75056 0.95225 0.50889 0.0
C1336 C 0.74132 0.98216 0.51361 0.0
C1337 C 0.72526 0.98388 0.53412 0.0
C1338 C 0.71931 0.95479 0.55027 0.0
C1339 C 0.73022 0.92506 0.5459 0.0
C1340 C 0.74528 0.9235 0.5248 0.0
H1341 H 0.00712 0.79962 0.55682 0.0
H1342 H 0.09325 0.76277 0.53703 0.0
H1343 H 0.04913 0.72513 0.50531 0.0
H1344 H 0.91377 0.70701 0.53897 0.0
H1345 H 0.89082 0.7355 0.52917 0.0
H1346 H 0.92551 0.75398 0.55215 0.0
H1347 H 0.9701 0.82171 0.53224 0.0
H1348 H 0.93556 0.80431 0.50925 0.0
H1349 H 0.98842 0.8215 0.50473 0.0
H1350 H 0.99862 0.69851 0.47274 0.0
H1351 H 0.94908 0.68834 0.44304 0.0
H1352 H 0.89872 0.74454 0.48484 0.0
C1353 C 0.01638 0.78282 0.54621 0.0
C1354 C 0.0537 0.78413 0.54952 0.0
C1355 C 0.0647 0.76204 0.53497 0.0
C1356 C 0.03978 0.74053 0.5169 0.0
C1357 C 0.00383 0.74113 0.51369 0.0
C1358 C 0.99215 0.76158 0.52813 0.0
C1359 C 0.95458 0.76144 0.52005 0.0
C1360 C 0.91903 0.73802 0.53603 0.0
C1361 C 0.96269 0.8048 0.51634 0.0
C1362 C 0.94761 0.73898 0.49844 0.0
C1363 C 0.97567 0.7267 0.49508 0.0
C1364 C 0.97617 0.70748 0.47542 0.0
C1365 C 0.94789 0.70165 0.45868 0.0
C1366 C 0.92016 0.71562 0.4617 0.0
C1367 C 0.91955 0.73346 0.48207 0.0
H1368 H 0.27576 0.33092 0.04146 0.0
H1369 H 0.17874 0.3099 0.99624 0.0
H1370 H 0.20084 0.27436 0.9705 0.0
H1371 H 0.34941 0.35354 0.99926 0.0
H1372 H 0.37412 0.32998 0.01315 0.0
H1373 H 0.34865 0.35048 0.02909 0.0
H1374 H 0.30479 0.28109 0.04814 0.0
H1375 H 0.33038 0.26045 0.03239 0.0
H1376 H 0.276 0.23662 0.03133 0.0
H1377 H 0.23334 0.24138 0.94967 0.0
H1378 H 0.27645 0.21601 0.93414 0.0
H1379 H 0.35588 0.26327 0.99126 0.0
C1380 C 0.25885 0.31811 0.02631 0.0
C1381 C 0.22527 0.32251 0.02088 0.0
C1382 C 0.20442 0.30652 1.00067 0.0
C1383 C 0.21671 0.28629 0.98599 0.0
C1384 C 0.25033 0.28296 0.9916 0.0
C1385 C 0.27134 0.29864 0.01118 0.0
C1386 C 0.30799 0.29314 0.01248 0.0
C1387 C 0.34736 0.33423 0.01355 0.0
C1388 C 0.30457 0.26621 0.03226 0.0
C1389 C 0.30423 0.27193 0.99061 0.0
C1390 C 0.27047 0.26593 0.97896 0.0
C1391 C 0.25998 0.24607 0.95857 0.0
C1392 C 0.28459 0.23177 0.94989 0.0
C1393 C 0.3196 0.23803 0.96139 0.0
C1394 C 0.32961 0.25861 0.98195 0.0
H1395 H 0.7366 0.05072 0.95588 0.0
H1396 H 0.8134 0.13214 0.00754 0.0
H1397 H 0.79139 0.07472 0.0331 0.0
H1398 H 0.65492 0.99093 0.99016 0.0
H1399 H 0.64059 0.94335 0.97686 0.0
H1400 H 0.66633 0.98962 0.96128 0.0
H1401 H 0.72243 0.97343 0.95045 0.0
H1402 H 0.69656 0.92676 0.96577 0.0
H1403 H 0.74872 0.96275 0.97187 0.0
H1404 H 0.75631 0.01125 0.05419 0.0
H1405 H 0.71221 0.9433 0.06945 0.0
H1406 H 0.65709 0.90172 0.00458 0.0
C1407 C 0.74958 0.05609 0.97236 0.0
C1408 C 0.77677 0.09565 0.97978 0.0
C1409 C 0.79246 0.10194 0.00161 0.0
C1410 C 0.78026 0.06957 0.01622 0.0
C1411 C 0.75234 0.03109 0.00874 0.0
C1412 C 0.73738 0.02398 0.98732 0.0
C1413 C 0.70537 0.97998 0.98419 0.0
C1414 C 0.66439 0.97575 0.97775 0.0
C1415 C 0.71911 0.95952 0.96706 0.0
C1416 C 0.70414 0.96394 0.00734 0.0
C1417 C 0.7317 0.99396 0.02114 0.0
C1418 C 0.73497 0.98724 0.04351 0.0
C1419 C 0.70959 0.94857 0.05204 0.0
C1420 C 0.6813 0.9171 0.0382 0.0
C1421 C 0.67865 0.92503 0.01554 0.0
H1422 H 0.94868 0.69366 0.95381 0.0
H1423 H 0.86176 0.65581 0.00771 0.0
H1424 H 0.91745 0.6864 0.03465 0.0
H1425 H 0.01991 0.67405 0.98229 0.0
H1426 H 0.06399 0.71723 0.9709 0.0
H1427 H 0.0173 0.69347 0.95547 0.0
H1428 H 0.01912 0.76208 0.9529 0.0
H1429 H 0.06581 0.78605 0.96834 0.0
H1430 H 0.02294 0.78957 0.97794 0.0
H1431 H 0.98172 0.72023 0.056 0.0
H1432 H 0.05139 0.75397 0.07056 0.0
H1433 H 0.09765 0.76949 0.00331 0.0
C1434 C 0.94141 0.69202 0.97126 0.0
C1435 C 0.90074 0.67234 0.97857 0.0
C1436 C 0.89257 0.67057 0.00161 0.0
C1437 C 0.92402 0.68798 0.01711 0.0
C1438 C 0.96365 0.70699 0.00941 0.0
C1439 C 0.97258 0.70907 0.98708 0.0
C1440 C 0.01798 0.73048 0.98343 0.0
C1441 C 0.03052 0.70211 0.97237 0.0
C1442 C 0.0323 0.76936 0.96985 0.0
C1443 C 0.03296 0.73995 0.00719 0.0
C1444 C 0.00105 0.72627 0.02186 0.0
C1445 C 0.00704 0.73119 0.04469 0.0
C1446 C 0.04678 0.75049 0.05279 0.0
C1447 C 0.08012 0.76456 0.03812 0.0
C1448 C 0.07291 0.7592 0.01499 0.0
H1449 H 0.63049 0.71266 0.02154 0.0
H1450 H 0.73655 0.82779 0.03764 0.0
H1451 H 0.77931 0.80811 0.01638 0.0
H1452 H 0.68044 0.65339 0.02646 0.0
H1453 H 0.65222 0.61986 0.00402 0.0
H1454 H 0.62992 0.64318 0.02035 0.0
H1455 H 0.61691 0.67259 0.9846 0.0
H1456 H 0.63945 0.64964 0.96817 0.0
H1457 H 0.65862 0.70331 0.9664 0.0
H1458 H 0.80956 0.77795 0.99198 0.0
H1459 H 0.82765 0.73594 0.96915 0.0
H1460 H 0.70269 0.63827 0.97065 0.0
C1461 C 0.66274 0.73364 0.0206 0.0
C1462 C 0.68034 0.77179 0.03107 0.0
C1463 C 0.72262 0.79835 0.02977 0.0
C1464 C 0.74706 0.78755 0.01766 0.0
C1465 C 0.72871 0.7499 0.00731 0.0
C1466 C 0.68767 0.72305 0.00894 0.0
C1467 C 0.67586 0.684 0.99675 0.0
C1468 C 0.6586 0.64798 0.01286 0.0
C1469 C 0.64594 0.677 0.97786 0.0
C1470 C 0.71668 0.6933 0.98784 0.0
C1471 C 0.74658 0.73168 0.99395 0.0
C1472 C 0.78654 0.74774 0.98723 0.0
C1473 C 0.79641 0.7237 0.97415 0.0
C1474 C 0.76651 0.68385 0.9682 0.0
C1475 C 0.72612 0.66854 0.9751 0.0
H1476 H 0.25035 0.90243 0.00241 0.0
H1477 H 0.21978 0.94011 0.06385 0.0
H1478 H 0.24894 0.00952 0.04928 0.0
H1479 H 0.34465 0.99319 0.99251 0.0
H1480 H 0.33756 0.99267 0.96294 0.0
H1481 H 0.31454 0.94589 0.97819 0.0
H1482 H 0.2442 0.92822 0.9627 0.0
H1483 H 0.26702 0.97496 0.94739 0.0
H1484 H 0.22623 0.96343 0.96641 0.0
H1485 H 0.28418 0.0752 0.02897 0.0
H1486 H 0.31917 0.13245 0.00307 0.0
H1487 H 0.32318 0.05181 0.95372 0.0
C1488 C 0.24983 0.92532 0.01278 0.0
C1489 C 0.23289 0.91593 0.0343 0.0
C1490 C 0.23243 0.94659 0.0473 0.0
C1491 C 0.24902 0.98612 0.03919 0.0
C1492 C 0.26548 0.99437 0.01795 0.0
C1493 C 0.26566 0.96482 0.0048 0.0
C1494 C 0.28455 0.98168 0.98239 0.0
C1495 C 0.32258 0.97815 0.9788 0.0
C1496 C 0.25365 0.96083 0.96361 0.0
C1497 C 0.29528 0.02539 0.98508 0.0
C1498 C 0.28431 0.03207 0.00581 0.0
C1499 C 0.29257 0.0703 0.01261 0.0
C1500 C 0.31255 0.10262 0.99782 0.0
C1501 C 0.32355 0.09643 0.97637 0.0
C1502 C 0.31455 0.05723 0.96991 0.0
H1503 H 0.92438 0.20931 0.97388 0.0
H1504 H 0.89891 0.30817 0.97665 0.0
H1505 H 0.96056 0.3484 0.99848 0.0
H1506 H 0.96356 0.22124 0.02909 0.0
H1507 H 0.00334 0.21069 0.02221 0.0
H1508 H 0.9576 0.18886 0.00592 0.0
H1509 H 0.99942 0.22007 0.97022 0.0
H1510 H 0.04531 0.24141 0.98635 0.0
H1511 H 0.03473 0.27366 0.96919 0.0
H1512 H 0.02181 0.37737 0.02064 0.0
H1513 H 0.08641 0.39776 0.03937 0.0
H1514 H 0.07551 0.28189 0.02321 0.0
C1515 C 0.93229 0.23966 0.9788 0.0
C1516 C 0.90675 0.25554 0.97367 0.0
C1517 C 0.91782 0.29525 0.98055 0.0
C1518 C 0.95274 0.31837 0.993 0.0
C1519 C 0.97649 0.3015 0.99846 0.0
C1520 C 0.96737 0.26343 0.99141 0.0
C1521 C 0.99889 0.25327 0.99972 0.0
C1522 C 0.97968 0.21632 0.01515 0.0
C1523 C 0.0209 0.24673 0.98021 0.0
C1524 C 0.02689 0.29165 0.01246 0.0
C1525 C 0.01289 0.31873 0.01152 0.0
C1526 C 0.03326 0.35657 0.02149 0.0
C1527 C 0.06982 0.3678 0.03212 0.0
C1528 C 0.08572 0.34134 0.03274 0.0
C1529 C 0.06359 0.30235 0.02323 0.0
H1530 H 0.95026 0.69644 0.35637 0.0
H1531 H 0.83198 0.59245 0.36928 0.0
H1532 H 0.85011 0.54955 0.34704 0.0
H1533 H 0.96188 0.67125 0.30052 0.0
H1534 H 0.01497 0.68788 0.30339 0.0
H1535 H 0.99256 0.71093 0.31986 0.0
H1536 H 0.01784 0.69334 0.35575 0.0
H1537 H 0.04061 0.67056 0.33938 0.0
H1538 H 0.00485 0.64171 0.36082 0.0
H1539 H 0.87979 0.51856 0.32202 0.0
H1540 H 0.9223 0.4996 0.29987 0.0
H1541 H 0.02302 0.62229 0.30545 0.0
C1542 C 0.92826 0.66462 0.3545 0.0
C1543 C 0.88967 0.64776 0.36446 0.0
C1544 C 0.8618 0.60593 0.36189 0.0
C1545 C 0.8717 0.58138 0.34917 0.0
C1546 C 0.90984 0.59895 0.33941 0.0
C1547 C 0.93798 0.63944 0.34224 0.0
C1548 C 0.97749 0.65027 0.33081 0.0
C1549 C 0.98728 0.68196 0.31256 0.0
C1550 C 0.01225 0.66482 0.3477 0.0
C1551 C 0.96704 0.60962 0.32102 0.0
C1552 C 0.92766 0.58058 0.32589 0.0
C1553 C 0.91077 0.54095 0.31821 0.0
C1554 C 0.93502 0.53053 0.30553 0.0
C1555 C 0.97588 0.55945 0.30101 0.0
C1556 C 0.99191 0.59953 0.30877 0.0
H1557 H 0.3649 0.38922 0.29872 0.0
H1558 H 0.49261 0.43253 0.30918 0.0
H1559 H 0.47554 0.37425 0.33359 0.0
H1560 H 0.33017 0.35063 0.35291 0.0
H1561 H 0.28464 0.30628 0.34373 0.0
H1562 H 0.30667 0.35151 0.32713 0.0
H1563 H 0.31021 0.31126 0.29343 0.0
H1564 H 0.28787 0.26583 0.30988 0.0
H1565 H 0.33566 0.28245 0.29625 0.0
H1566 H 0.44485 0.31481 0.359 0.0
H1567 H 0.40202 0.2517 0.37993 0.0
H1568 H 0.29457 0.24304 0.3501 0.0
C1569 C 0.3891 0.38609 0.30608 0.0
C1570 C 0.42996 0.41503 0.3022 0.0
C1571 C 0.46109 0.41024 0.31188 0.0
C1572 C 0.45172 0.37748 0.32585 0.0
C1573 C 0.41112 0.34952 0.32953 0.0
C1574 C 0.38028 0.35293 0.31959 0.0
C1575 C 0.33921 0.31779 0.32571 0.0
C1576 C 0.31368 0.33245 0.33811 0.0
C1577 C 0.31693 0.29285 0.30509 0.0
C1578 C 0.35184 0.29451 0.3409 0.0
C1579 C 0.39344 0.3137 0.34314 0.0
C1580 C 0.41227 0.29914 0.35718 0.0
C1581 C 0.38786 0.26359 0.36905 0.0
C1582 C 0.3454 0.24291 0.36636 0.0
C1583 C 0.32714 0.25841 0.35213 0.0
H1584 H 0.60694 0.02816 0.2905 0.0
H1585 H 0.5285 0.95431 0.34386 0.0
H1586 H 0.58617 0.98385 0.36967 0.0
H1587 H 0.69238 0.01791 0.30701 0.0
H1588 H 0.72979 0.06878 0.29944 0.0
H1589 H 0.68199 0.04351 0.28508 0.0
H1590 H 0.66961 0.10254 0.29479 0.0
H1591 H 0.71735 0.12796 0.30922 0.0
H1592 H 0.67144 0.11726 0.32336 0.0
H1593 H 0.65063 0.02137 0.38991 0.0
H1594 H 0.7208 0.06141 0.40321 0.0
H1595 H 0.76018 0.1086 0.33677 0.0
C1596 C 0.60204 0.01851 0.30765 0.0
C1597 C 0.56328 0.98908 0.31523 0.0
C1598 C 0.55799 0.97667 0.33769 0.0
C1599 C 0.59049 0.9934 0.35252 0.0
C1600 C 0.62829 0.02215 0.34459 0.0
C1601 C 0.63452 0.03437 0.32269 0.0
C1602 C 0.67889 0.06443 0.31847 0.0
C1603 C 0.69681 0.04764 0.3015 0.0
C1604 C 0.68465 0.10548 0.31102 0.0
C1605 C 0.69635 0.06713 0.34144 0.0
C1606 C 0.66638 0.04279 0.35624 0.0
C1607 C 0.67448 0.04048 0.37851 0.0
C1608 C 0.71442 0.06347 0.38591 0.0
C1609 C 0.74594 0.0881 0.37104 0.0
C1610 C 0.73672 0.08988 0.34848 0.0
H1611 H 0.30239 0.03578 0.36785 0.0
H1612 H 0.39001 0.16299 0.35942 0.0
H1613 H 0.43208 0.1452 0.33604 0.0
H1614 H 0.37744 0.00419 0.37287 0.0
H1615 H 0.34678 0.9569 0.35866 0.0
H1616 H 0.32302 0.97979 0.37407 0.0
H1617 H 0.28297 0.97807 0.33896 0.0
H1618 H 0.30684 0.95544 0.3234 0.0
H1619 H 0.31005 0.00166 0.31382 0.0
H1620 H 0.46191 0.11373 0.31166 0.0
H1621 H 0.48302 0.07013 0.29217 0.0
H1622 H 0.37991 0.96368 0.31974 0.0
C1623 C 0.33051 0.05971 0.36108 0.0
C1624 C 0.34316 0.10063 0.36522 0.0
C1625 C 0.38018 0.13141 0.35641 0.0
C1626 C 0.40405 0.12164 0.34306 0.0
C1627 C 0.39072 0.08097 0.33912 0.0
C1628 C 0.35529 0.05045 0.34823 0.0
C1629 C 0.34898 0.00918 0.34232 0.0
C1630 C 0.34908 0.98617 0.36323 0.0
C1631 C 0.30989 0.98465 0.32882 0.0
C1632 C 0.38614 0.02132 0.32827 0.0
C1633 C 0.40945 0.06284 0.32631 0.0
C1634 C 0.44425 0.08118 0.31329 0.0
C1635 C 0.45588 0.05633 0.30223 0.0
C1636 C 0.43319 0.01389 0.30475 0.0
C1637 C 0.39794 0.9962 0.31788 0.0
H1638 H 0.99298 0.38061 0.28544 0.0
H1639 H 0.96349 0.45461 0.32732 0.0
H1640 H 0.92498 0.3967 0.3523 0.0
H1641 H 0.89704 0.28453 0.29296 0.0
H1642 H 0.92161 0.25468 0.29395 0.0
H1643 H 0.94357 0.30075 0.27802 0.0
H1644 H 0.01072 0.32741 0.29981 0.0
H1645 H 0.98889 0.28159 0.31588 0.0
H1646 H 0.01015 0.32986 0.32965 0.0
H1647 H 0.89231 0.33241 0.37367 0.0
H1648 H 0.86864 0.26553 0.39068 0.0
H1649 H 0.92149 0.23323 0.33622 0.0
C1650 C 0.97766 0.38417 0.29963 0.0
C1651 C 0.98084 0.42185 0.30443 0.0
C1652 C 0.96131 0.42588 0.32341 0.0
C1653 C 0.93929 0.39318 0.33766 0.0
C1654 C 0.93734 0.35662 0.33282 0.0
C1655 C 0.95599 0.35182 0.31433 0.0
C1656 C 0.95126 0.30993 0.31393 0.0
C1657 C 0.92691 0.28606 0.2935 0.0
C1658 C 0.99272 0.31237 0.31488 0.0
C1659 C 0.9275 0.29233 0.33515 0.0
C1660 C 0.91943 0.31966 0.34563 0.0
C1661 C 0.89826 0.31061 0.36558 0.0
C1662 C 0.88494 0.27253 0.37513 0.0
C1663 C 0.89318 0.24407 0.36485 0.0
C1664 C 0.91476 0.25429 0.34456 0.0
H1665 H 0.76051 0.67285 0.33536 0.0
H1666 H 0.7162 0.60981 0.39806 0.0
H1667 H 0.64879 0.56826 0.38167 0.0
H1668 H 0.67163 0.67695 0.32188 0.0
H1669 H 0.67354 0.66885 0.29257 0.0
H1670 H 0.71953 0.69252 0.30861 0.0
H1671 H 0.73638 0.63812 0.29529 0.0
H1672 H 0.69035 0.61421 0.27924 0.0
H1673 H 0.70008 0.58538 0.29948 0.0
H1674 H 0.58626 0.53567 0.35991 0.0
H1675 H 0.52986 0.51422 0.33375 0.0
H1676 H 0.61222 0.59699 0.28426 0.0
C1677 C 0.7367 0.65005 0.34557 0.0
C1678 C 0.74383 0.64459 0.36802 0.0
C1679 C 0.71169 0.6147 0.38086 0.0
C1680 C 0.67323 0.59075 0.37168 0.0
C1681 C 0.66721 0.59694 0.34961 0.0
C1682 C 0.69783 0.6258 0.33665 0.0
C1683 C 0.68228 0.6271 0.31362 0.0
C1684 C 0.68702 0.66884 0.30891 0.0
C1685 C 0.70354 0.6155 0.29586 0.0
C1686 C 0.63803 0.59483 0.31588 0.0
C1687 C 0.63036 0.57781 0.3368 0.0
C1688 C 0.59183 0.54857 0.34344 0.0
C1689 C 0.55997 0.53673 0.32846 0.0
C1690 C 0.56666 0.55402 0.307 0.0
C1691 C 0.60638 0.58299 0.30047 0.0
H1692 H 0.62391 0.87478 0.64535 0.0
H1693 H 0.74221 0.98054 0.63512 0.0
H1694 H 0.7198 0.02286 0.65428 0.0
H1695 H 0.56463 0.92598 0.63909 0.0
H1696 H 0.52944 0.89709 0.66075 0.0
H1697 H 0.55362 0.87514 0.64484 0.0
H1698 H 0.58018 0.86039 0.68115 0.0
H1699 H 0.55649 0.88271 0.69715 0.0
H1700 H 0.60996 0.90127 0.70005 0.0
H1701 H 0.68666 0.05345 0.67491 0.0
H1702 H 0.64319 0.0721 0.69584 0.0
H1703 H 0.54596 0.947 0.69483 0.0
C1704 C 0.64467 0.90698 0.64681 0.0
C1705 C 0.68468 0.92459 0.63866 0.0
C1706 C 0.71144 0.9666 0.64125 0.0
C1707 C 0.69902 0.99085 0.6521 0.0
C1708 C 0.65983 0.97258 0.66044 0.0
C1709 C 0.63289 0.93172 0.65795 0.0
C1710 C 0.593 0.91992 0.66937 0.0
C1711 C 0.55811 0.90357 0.65251 0.0
C1712 C 0.58442 0.88925 0.68804 0.0
C1713 C 0.60195 0.96057 0.67863 0.0
C1714 C 0.6407 0.99037 0.67311 0.0
C1715 C 0.65622 0.03048 0.67933 0.0
C1716 C 0.63127 0.04073 0.69121 0.0
C1717 C 0.59126 0.01099 0.69694 0.0
C1718 C 0.57656 0.97022 0.69084 0.0
H1719 H 0.06727 0.71942 0.62125 0.0
H1720 H 0.15355 0.80009 0.67014 0.0
H1721 H 0.13438 0.74268 0.69524 0.0
H1722 H 0.99058 0.65903 0.6598 0.0
H1723 H 0.9738 0.61182 0.64549 0.0
H1724 H 0.99656 0.65851 0.63017 0.0
H1725 H 0.04996 0.64241 0.6142 0.0
H1726 H 0.02727 0.59556 0.62944 0.0
H1727 H 0.08032 0.63168 0.63287 0.0
H1728 H 0.10397 0.67884 0.716 0.0
H1729 H 0.06307 0.61081 0.73174 0.0
H1730 H 0.99508 0.56977 0.67016 0.0
C1731 C 0.08248 0.72472 0.63709 0.0
C1732 C 0.11186 0.76417 0.64376 0.0
C1733 C 0.13074 0.77016 0.66475 0.0
C1734 C 0.12025 0.73773 0.6791 0.0
C1735 C 0.09074 0.6994 0.67228 0.0
C1736 C 0.07204 0.69254 0.65183 0.0
C1737 C 0.03959 0.64847 0.64934 0.0
C1738 C 0.99765 0.64423 0.64601 0.0
C1739 C 0.04992 0.62835 0.63033 0.0
C1740 C 0.04274 0.63203 0.6717 0.0
C1741 C 0.07271 0.662 0.68454 0.0
C1742 C 0.0806 0.65493 0.70609 0.0
C1743 C 0.05707 0.61614 0.71489 0.0
C1744 C 0.02588 0.5848 0.70219 0.0
C1745 C 0.01893 0.59292 0.68022 0.0
H1746 H 0.23848 0.32813 0.66254 0.0
H1747 H 0.28376 0.40219 0.60331 0.0
H1748 H 0.35048 0.44239 0.62119 0.0
H1749 H 0.29456 0.40866 0.70263 0.0
H1750 H 0.30398 0.37676 0.72077 0.0
H1751 H 0.259 0.35515 0.70386 0.0
H1752 H 0.27841 0.3048 0.68688 0.0
H1753 H 0.32331 0.32613 0.70378 0.0
H1754 H 0.32733 0.32392 0.6741 0.0
H1755 H 0.41284 0.47264 0.64467 0.0
H1756 H 0.46762 0.48937 0.67187 0.0
H1757 H 0.38239 0.39579 0.71578 0.0
C1758 C 0.26227 0.35303 0.65336 0.0
C1759 C 0.25573 0.36209 0.63152 0.0
C1760 C 0.28791 0.39467 0.62006 0.0
C1761 C 0.3259 0.41779 0.6301 0.0
C1762 C 0.33126 0.40798 0.65161 0.0
C1763 C 0.3004 0.37633 0.6631 0.0
C1764 C 0.31465 0.37096 0.68566 0.0
C1765 C 0.29168 0.37833 0.70433 0.0
C1766 C 0.3107 0.32897 0.68771 0.0
C1767 C 0.35857 0.40417 0.68492 0.0
C1768 C 0.36737 0.42539 0.66519 0.0
C1769 C 0.40623 0.45654 0.66025 0.0
C1770 C 0.43704 0.46587 0.67574 0.0
C1771 C 0.42874 0.44415 0.69584 0.0
C1772 C 0.38905 0.41319 0.70063 0.0
H1773 H 0.98472 0.41766 0.66987 0.0
H1774 H 0.04686 0.43661 0.73285 0.0
H1775 H 0.08649 0.40741 0.71738 0.0
H1776 H 0.97948 0.32324 0.65548 0.0
H1777 H 0.98919 0.33528 0.62644 0.0
H1778 H 0.9646 0.35645 0.64263 0.0
H1779 H 0.01971 0.42852 0.63093 0.0
H1780 H 0.04458 0.40759 0.61479 0.0
H1781 H 0.07224 0.44471 0.63592 0.0
H1782 H 0.11825 0.37524 0.6957 0.0
H1783 H 0.14235 0.34381 0.6683 0.0
H1784 H 0.06315 0.34905 0.61852 0.0
C1785 C 0.00643 0.4153 0.68042 0.0
C1786 C 0.01264 0.42918 0.70259 0.0
C1787 C 0.04174 0.42622 0.71581 0.0
C1788 C 0.06432 0.40964 0.70719 0.0
C1789 C 0.05782 0.39662 0.68524 0.0
C1790 C 0.02981 0.39943 0.67195 0.0
C1791 C 0.02977 0.38426 0.64869 0.0
C1792 C 0.98829 0.34762 0.64298 0.0
C1793 C 0.04233 0.41831 0.63157 0.0
C1794 C 0.06188 0.37219 0.65108 0.0
C1795 C 0.07744 0.37941 0.67238 0.0
C1796 C 0.10657 0.36972 0.67894 0.0
C1797 C 0.12006 0.35197 0.66334 0.0
C1798 C 0.10478 0.34462 0.64146 0.0
C1799 C 0.07554 0.35501 0.63515 0.0
H1800 H 0.5749 0.56909 0.67174 0.0
H1801 H 0.56882 0.61183 0.73767 0.0
H1802 H 0.59666 0.68073 0.72319 0.0
H1803 H 0.66873 0.65451 0.65667 0.0
H1804 H 0.65504 0.65527 0.62814 0.0
H1805 H 0.63213 0.60834 0.64324 0.0
H1806 H 0.56096 0.59736 0.63405 0.0
H1807 H 0.58369 0.64439 0.61897 0.0
H1808 H 0.54886 0.63594 0.64124 0.0
H1809 H 0.62828 0.74495 0.7028 0.0
H1810 H 0.66366 0.80236 0.67726 0.0
H1811 H 0.64921 0.71969 0.62396 0.0
C1812 C 0.57913 0.59289 0.68308 0.0
C1813 C 0.56951 0.5849 0.70585 0.0
C1814 C 0.57582 0.61701 0.72017 0.0
C1815 C 0.59152 0.65632 0.7121 0.0
C1816 C 0.6007 0.66315 0.68967 0.0
C1817 C 0.59484 0.63251 0.6753 0.0
C1818 C 0.60902 0.64876 0.6521 0.0
C1819 C 0.64327 0.64128 0.64461 0.0
C1820 C 0.57351 0.63052 0.63562 0.0
C1821 C 0.62436 0.69338 0.65586 0.0
C1822 C 0.61895 0.70077 0.67767 0.0
C1823 C 0.63239 0.73962 0.68563 0.0
C1824 C 0.65255 0.772 0.67101 0.0
C1825 C 0.65897 0.76537 0.64865 0.0
C1826 C 0.64407 0.72548 0.64088 0.0
H1827 H 0.27818 0.96426 0.63226 0.0
H1828 H 0.23368 0.83609 0.64094 0.0
H1829 H 0.2931 0.85171 0.66419 0.0
H1830 H 0.38528 0.99242 0.62813 0.0
H1831 H 0.40271 0.03979 0.64238 0.0
H1832 H 0.35683 0.01838 0.62624 0.0
H1833 H 0.31773 0.02136 0.66063 0.0
H1834 H 0.36338 0.0424 0.67692 0.0
H1835 H 0.31894 0.99687 0.68594 0.0
H1836 H 0.35358 0.88128 0.68947 0.0
H1837 H 0.41689 0.92305 0.71061 0.0
H1838 H 0.42584 0.03164 0.68243 0.0
C1839 C 0.28135 0.93962 0.63887 0.0
C1840 C 0.2516 0.89903 0.63484 0.0
C1841 C 0.25652 0.8674 0.64367 0.0
C1842 C 0.28996 0.87596 0.657 0.0
C1843 C 0.3186 0.9163 0.66092 0.0
C1844 C 0.31518 0.94763 0.65171 0.0
C1845 C 0.35082 0.98829 0.65807 0.0
C1846 C 0.37537 0.01105 0.63748 0.0
C1847 C 0.33686 0.01371 0.67117 0.0
C1848 C 0.37429 0.97489 0.67265 0.0
C1849 C 0.35489 0.93326 0.67433 0.0
C1850 C 0.36946 0.91388 0.68798 0.0
C1851 C 0.40518 0.93773 0.69999 0.0
C1852 C 0.42616 0.98029 0.69785 0.0
C1853 C 0.41054 0.99903 0.684 0.0
loop_
_geom_bond_atom_site_label_1
_geom_bond_atom_site_label_2
_geom_bond_distance
_geom_bond_site_symmetry_2
_ccdc_geom_bond_type
Fe0 O2 1.918 . S
Fe0 O5 1.997 . S
Fe0 O6 2.002 . S
Fe0 O11 1.976 . S
Fe0 O14 1.996 . S
Fe1 O2 1.918 . S
Fe1 O9 1.997 . S
Fe1 O12 1.996 . S
Fe1 O16 1.976 . S
Fe1 O19 2.002 . S
O2 Fe0 1.918 . S
O2 Fe1 1.918 . S
O2 Fe3 1.918 . S
Fe3 O2 1.918 . S
Fe3 O4 2.002 . S
Fe3 O13 1.976 . S
Fe3 O17 1.996 . S
Fe3 O20 1.997 . S
O4 Fe3 2.002 . S
O4 C21 1.295 . S
O5 Fe0 1.997 . S
O5 C21 1.235 . S
O6 Fe0 2.002 . S
O6 C7 1.295 . S
C7 O6 1.295 . S
C7 O9 1.235 . S
C8 O13 1.287 . S
C8 O14 1.255 . S
O9 Fe1 1.997 . S
O9 C7 1.235 . S
C10 O16 1.287 . S
C10 O17 1.255 . S
O11 Fe0 1.976 . S
O11 C18 1.287 . S
O12 Fe1 1.996 . S
O12 C18 1.255 . S
O13 Fe3 1.976 . S
O13 C8 1.287 . S
O14 Fe0 1.996 . S
O14 C8 1.255 . S
C15 O19 1.295 . S
C15 O20 1.235 . S
O16 Fe1 1.976 . S
O16 C10 1.287 . S
O17 Fe3 1.996 . S
O17 C10 1.255 . S
C18 O11 1.287 . S
C18 O12 1.255 . S
O19 Fe1 2.002 . S
O19 C15 1.295 . S
O20 Fe3 1.997 . S
O20 C15 1.235 . S
C21 O4 1.295 . S
C21 O5 1.235 . S
Fe22 O24 1.918 . S
Fe22 O27 1.997 . S
Fe22 O28 2.002 . S
Fe22 O33 1.976 . S
Fe22 O36 1.996 . S
Fe23 O24 1.918 . S
Fe23 O31 1.997 . S
Fe23 O34 1.996 . S
Fe23 O38 1.976 . S
Fe23 O41 2.002 . S
O24 Fe22 1.918 . S
O24 Fe23 1.918 . S
O24 Fe25 1.918 . S
Fe25 O24 1.918 . S
Fe25 O26 2.002 . S
Fe25 O35 1.976 . S
Fe25 O39 1.996 . S
Fe25 O42 1.997 . S
O26 Fe25 2.002 . S
O26 C43 1.295 . S
O27 Fe22 1.997 . S
O27 C43 1.235 . S
O28 Fe22 2.002 . S
O28 C29 1.295 . S
C29 O28 1.295 . S
C29 O31 1.235 . S
C30 O35 1.287 . S
C30 O36 1.255 . S
O31 Fe23 1.997 . S
O31 C29 1.235 . S
C32 O38 1.287 . S
C32 O39 1.255 . S
O33 Fe22 1.976 . S
O33 C40 1.287 . S
O34 Fe23 1.996 . S
O34 C40 1.255 . S
O35 Fe25 1.976 . S
O35 C30 1.287 . S
O36 Fe22 1.996 . S
O36 C30 1.255 . S
C37 O41 1.295 . S
C37 O42 1.235 . S
O38 Fe23 1.976 . S
O38 C32 1.287 . S
O39 Fe25 1.996 . S
O39 C32 1.255 . S
C40 O33 1.287 . S
C40 O34 1.255 . S
O41 Fe23 2.002 . S
O41 C37 1.295 . S
O42 Fe25 1.997 . S
O42 C37 1.235 . S
C43 O26 1.295 . S
C43 O27 1.235 . S
Fe44 O46 1.918 . S
Fe44 O49 1.997 . S
Fe44 O50 2.002 . S
Fe44 O55 1.976 . S
Fe44 O58 1.996 . S
Fe45 O46 1.918 . S
Fe45 O53 1.997 . S
Fe45 O56 1.996 . S
Fe45 O60 1.976 . S
Fe45 O63 2.002 . S
O46 Fe44 1.918 . S
O46 Fe45 1.918 . S
O46 Fe47 1.918 . S
Fe47 O46 1.918 . S
Fe47 O48 2.002 . S
Fe47 O57 1.976 . S
Fe47 O61 1.996 . S
Fe47 O64 1.997 . S
O48 Fe47 2.002 . S
O48 C65 1.295 . S
O49 Fe44 1.997 . S
O49 C65 1.235 . S
O50 Fe44 2.002 . S
O50 C51 1.295 . S
C51 O50 1.295 . S
C51 O53 1.235 . S
C52 O57 1.287 . S
C52 O58 1.255 . S
O53 Fe45 1.997 . S
O53 C51 1.235 . S
C54 O60 1.287 . S
C54 O61 1.255 . S
O55 Fe44 1.976 . S
O55 C62 1.287 . S
O56 Fe45 1.996 . S
O56 C62 1.255 . S
O57 Fe47 1.976 . S
O57 C52 1.287 . S
O58 Fe44 1.996 . S
O58 C52 1.255 . S
C59 O63 1.295 . S
C59 O64 1.235 . S
O60 Fe45 1.976 . S
O60 C54 1.287 . S
O61 Fe47 1.996 . S
O61 C54 1.255 . S
C62 O55 1.287 . S
C62 O56 1.255 . S
O63 Fe45 2.002 . S
O63 C59 1.295 . S
O64 Fe47 1.997 . S
O64 C59 1.235 . S
C65 O48 1.295 . S
C65 O49 1.235 . S
Fe66 O68 1.918 . S
Fe66 O71 1.997 . S
Fe66 O72 2.002 . S
Fe66 O77 1.976 . S
Fe66 O80 1.996 . S
Fe67 O68 1.918 . S
Fe67 O75 1.997 . S
Fe67 O78 1.996 . S
Fe67 O82 1.976 . S
Fe67 O85 2.002 . S
O68 Fe66 1.918 . S
O68 Fe67 1.918 . S
O68 Fe69 1.918 . S
Fe69 O68 1.918 . S
Fe69 O70 2.002 . S
Fe69 O79 1.976 . S
Fe69 O83 1.996 . S
Fe69 O86 1.997 . S
O70 Fe69 2.002 . S
O70 C87 1.295 . S
O71 Fe66 1.997 . S
O71 C87 1.235 . S
O72 Fe66 2.002 . S
O72 C73 1.295 . S
C73 O72 1.295 . S
C73 O75 1.235 . S
C74 O79 1.287 . S
C74 O80 1.255 . S
O75 Fe67 1.997 . S
O75 C73 1.235 . S
C76 O82 1.287 . S
C76 O83 1.255 . S
O77 Fe66 1.976 . S
O77 C84 1.287 . S
O78 Fe67 1.996 . S
O78 C84 1.255 . S
O79 Fe69 1.976 . S
O79 C74 1.287 . S
O80 Fe66 1.996 . S
O80 C74 1.255 . S
C81 O85 1.295 . S
C81 O86 1.235 . S
O82 Fe67 1.976 . S
O82 C76 1.287 . S
O83 Fe69 1.996 . S
O83 C76 1.255 . S
C84 O77 1.287 . S
C84 O78 1.255 . S
O85 Fe67 2.002 . S
O85 C81 1.295 . S
O86 Fe69 1.997 . S
O86 C81 1.235 . S
C87 O70 1.295 . S
C87 O71 1.235 . S
Fe88 O90 1.918 . S
Fe88 O93 1.997 . S
Fe88 O94 2.002 . S
Fe88 O99 1.976 . S
Fe88 O102 1.996 . S
Fe89 O90 1.918 . S
Fe89 O97 1.997 . S
Fe89 O100 1.996 . S
Fe89 O104 1.976 . S
Fe89 O107 2.002 . S
O90 Fe88 1.918 . S
O90 Fe89 1.918 . S
O90 Fe91 1.918 . S
Fe91 O90 1.918 . S
Fe91 O92 2.002 . S
Fe91 O101 1.976 . S
Fe91 O105 1.996 . S
Fe91 O108 1.997 . S
O92 Fe91 2.002 . S
O92 C109 1.295 . S
O93 Fe88 1.997 . S
O93 C109 1.235 . S
O94 Fe88 2.002 . S
O94 C95 1.295 . S
C95 O94 1.295 . S
C95 O97 1.235 . S
C96 O101 1.287 . S
C96 O102 1.255 . S
O97 Fe89 1.997 . S
O97 C95 1.235 . S
C98 O104 1.287 . S
C98 O105 1.255 . S
O99 Fe88 1.976 . S
O99 C106 1.287 . S
O100 Fe89 1.996 . S
O100 C106 1.255 . S
O101 Fe91 1.976 . S
O101 C96 1.287 . S
O102 Fe88 1.996 . S
O102 C96 1.255 . S
C103 O107 1.295 . S
C103 O108 1.235 . S
O104 Fe89 1.976 . S
O104 C98 1.287 . S
O105 Fe91 1.996 . S
O105 C98 1.255 . S
C106 O99 1.287 . S
C106 O100 1.255 . S
O107 Fe89 2.002 . S
O107 C103 1.295 . S
O108 Fe91 1.997 . S
O108 C103 1.235 . S
C109 O92 1.295 . S
C109 O93 1.235 . S
Fe110 O112 1.918 . S
Fe110 O115 1.997 . S
Fe110 O116 2.002 . S
Fe110 O121 1.976 . S
Fe110 O124 1.996 . S
Fe111 O112 1.918 . S
Fe111 O119 1.997 . S
Fe111 O122 1.996 . S
Fe111 O126 1.976 . S
Fe111 O129 2.002 . S
O112 Fe110 1.918 . S
O112 Fe111 1.918 . S
O112 Fe113 1.918 . S
Fe113 O112 1.918 . S
Fe113 O114 2.002 . S
Fe113 O123 1.976 . S
Fe113 O127 1.996 . S
Fe113 O130 1.997 . S
O114 Fe113 2.002 . S
O114 C131 1.295 . S
O115 Fe110 1.997 . S
O115 C131 1.235 . S
O116 Fe110 2.002 . S
O116 C117 1.295 . S
C117 O116 1.295 . S
C117 O119 1.235 . S
C118 O123 1.287 . S
C118 O124 1.255 . S
O119 Fe111 1.997 . S
O119 C117 1.235 . S
C120 O126 1.287 . S
C120 O127 1.255 . S
O121 Fe110 1.976 . S
O121 C128 1.287 . S
O122 Fe111 1.996 . S
O122 C128 1.255 . S
O123 Fe113 1.976 . S
O123 C118 1.287 . S
O124 Fe110 1.996 . S
O124 C118 1.255 . S
C125 O129 1.295 . S
C125 O130 1.235 . S
O126 Fe111 1.976 . S
O126 C120 1.287 . S
O127 Fe113 1.996 . S
O127 C120 1.255 . S
C128 O121 1.287 . S
C128 O122 1.255 . S
O129 Fe111 2.002 . S
O129 C125 1.295 . S
O130 Fe113 1.997 . S
O130 C125 1.235 . S
C131 O114 1.295 . S
C131 O115 1.235 . S
Fe132 O134 1.918 . S
Fe132 O137 1.997 . S
Fe132 O138 2.002 . S
Fe132 O143 1.976 . S
Fe132 O146 1.996 . S
Fe133 O134 1.918 . S
Fe133 O141 1.997 . S
Fe133 O144 1.996 . S
Fe133 O148 1.976 . S
Fe133 O151 2.002 . S
O134 Fe132 1.918 . S
O134 Fe133 1.918 . S
O134 Fe135 1.918 . S
Fe135 O134 1.918 . S
Fe135 O136 2.002 . S
Fe135 O145 1.976 . S
Fe135 O149 1.996 . S
Fe135 O152 1.997 . S
O136 Fe135 2.002 . S
O136 C153 1.295 . S
O137 Fe132 1.997 . S
O137 C153 1.235 . S
O138 Fe132 2.002 . S
O138 C139 1.295 . S
C139 O138 1.295 . S
C139 O141 1.235 . S
C140 O145 1.287 . S
C140 O146 1.255 . S
O141 Fe133 1.997 . S
O141 C139 1.235 . S
C142 O148 1.287 . S
C142 O149 1.255 . S
O143 Fe132 1.976 . S
O143 C150 1.287 . S
O144 Fe133 1.996 . S
O144 C150 1.255 . S
O145 Fe135 1.976 . S
O145 C140 1.287 . S
O146 Fe132 1.996 . S
O146 C140 1.255 . S
C147 O151 1.295 . S
C147 O152 1.235 . S
O148 Fe133 1.976 . S
O148 C142 1.287 . S
O149 Fe135 1.996 . S
O149 C142 1.255 . S
C150 O143 1.287 . S
C150 O144 1.255 . S
O151 Fe133 2.002 . S
O151 C147 1.295 . S
O152 Fe135 1.997 . S
O152 C147 1.235 . S
C153 O136 1.295 . S
C153 O137 1.235 . S
Fe154 O156 1.918 . S
Fe154 O159 1.997 . S
Fe154 O160 2.002 . S
Fe154 O165 1.976 . S
Fe154 O168 1.996 . S
Fe155 O156 1.918 . S
Fe155 O163 1.997 . S
Fe155 O166 1.996 . S
Fe155 O170 1.976 . S
Fe155 O173 2.002 . S
O156 Fe154 1.918 . S
O156 Fe155 1.918 . S
O156 Fe157 1.918 . S
Fe157 O156 1.918 . S
Fe157 O158 2.002 . S
Fe157 O167 1.976 . S
Fe157 O171 1.996 . S
Fe157 O174 1.997 . S
O158 Fe157 2.002 . S
O158 C175 1.295 . S
O159 Fe154 1.997 . S
O159 C175 1.235 . S
O160 Fe154 2.002 . S
O160 C161 1.295 . S
C161 O160 1.295 . S
C161 O163 1.235 . S
C162 O167 1.287 . S
C162 O168 1.255 . S
O163 Fe155 1.997 . S
O163 C161 1.235 . S
C164 O170 1.287 . S
C164 O171 1.255 . S
O165 Fe154 1.976 . S
O165 C172 1.287 . S
O166 Fe155 1.996 . S
O166 C172 1.255 . S
O167 Fe157 1.976 . S
O167 C162 1.287 . S
O168 Fe154 1.996 . S
O168 C162 1.255 . S
C169 O173 1.295 . S
C169 O174 1.235 . S
O170 Fe155 1.976 . S
O170 C164 1.287 . S
O171 Fe157 1.996 . S
O171 C164 1.255 . S
C172 O165 1.287 . S
C172 O166 1.255 . S
O173 Fe155 2.002 . S
O173 C169 1.295 . S
O174 Fe157 1.997 . S
O174 C169 1.235 . S
C175 O158 1.295 . S
C175 O159 1.235 . S
Fe176 O178 1.918 . S
Fe176 O181 1.997 . S
Fe176 O182 2.002 . S
Fe176 O187 1.976 . S
Fe176 O190 1.996 . S
Fe177 O178 1.918 . S
Fe177 O185 1.997 . S
Fe177 O188 1.996 . S
Fe177 O192 1.976 . S
Fe177 O195 2.002 . S
O178 Fe176 1.918 . S
O178 Fe177 1.918 . S
O178 Fe179 1.918 . S
Fe179 O178 1.918 . S
Fe179 O180 2.002 . S
Fe179 O189 1.976 . S
Fe179 O193 1.996 . S
Fe179 O196 1.997 . S
O180 Fe179 2.002 . S
O180 C197 1.295 . S
O181 Fe176 1.997 . S
O181 C197 1.235 . S
O182 Fe176 2.002 . S
O182 C183 1.295 . S
C183 O182 1.295 . S
C183 O185 1.235 . S
C184 O189 1.287 . S
C184 O190 1.255 . S
O185 Fe177 1.997 . S
O185 C183 1.235 . S
C186 O192 1.287 . S
C186 O193 1.255 . S
O187 Fe176 1.976 . S
O187 C194 1.287 . S
O188 Fe177 1.996 . S
O188 C194 1.255 . S
O189 Fe179 1.976 . S
O189 C184 1.287 . S
O190 Fe176 1.996 . S
O190 C184 1.255 . S
C191 O195 1.295 . S
C191 O196 1.235 . S
O192 Fe177 1.976 . S
O192 C186 1.287 . S
O193 Fe179 1.996 . S
O193 C186 1.255 . S
C194 O187 1.287 . S
C194 O188 1.255 . S
O195 Fe177 2.002 . S
O195 C191 1.295 . S
O196 Fe179 1.997 . S
O196 C191 1.235 . S
C197 O180 1.295 . S
C197 O181 1.235 . S
Fe198 O200 1.918 . S
Fe198 O203 1.997 . S
Fe198 O204 2.002 1_455 S
Fe198 O209 1.976 1_455 S
Fe198 O212 1.996 . S
Fe199 O200 1.918 . S
Fe199 O207 1.997 . S
Fe199 O210 1.996 . S
Fe199 O214 1.976 . S
Fe199 O217 2.002 . S
O200 Fe198 1.918 . S
O200 Fe199 1.918 . S
O200 Fe201 1.918 . S
Fe201 O200 1.918 . S
Fe201 O202 2.002 . S
Fe201 O211 1.976 . S
Fe201 O215 1.996 . S
Fe201 O218 1.997 . S
O202 Fe201 2.002 . S
O202 C219 1.295 . S
O203 Fe198 1.997 . S
O203 C219 1.235 . S
O204 Fe198 2.002 1_655 S
O204 C205 1.295 1_655 S
C205 O204 1.295 1_455 S
C205 O207 1.235 . S
C206 O211 1.287 . S
C206 O212 1.255 . S
O207 Fe199 1.997 . S
O207 C205 1.235 . S
C208 O214 1.287 . S
C208 O215 1.255 . S
O209 Fe198 1.976 1_655 S
O209 C216 1.287 1_655 S
O210 Fe199 1.996 . S
O210 C216 1.255 . S
O211 Fe201 1.976 . S
O211 C206 1.287 . S
O212 Fe198 1.996 . S
O212 C206 1.255 . S
C213 O217 1.295 . S
C213 O218 1.235 . S
O214 Fe199 1.976 . S
O214 C208 1.287 . S
O215 Fe201 1.996 . S
O215 C208 1.255 . S
C216 O209 1.287 1_455 S
C216 O210 1.255 . S
O217 Fe199 2.002 . S
O217 C213 1.295 . S
O218 Fe201 1.997 . S
O218 C213 1.235 . S
C219 O202 1.295 . S
C219 O203 1.235 . S
Fe220 O222 1.918 . S
Fe220 O225 1.997 . S
Fe220 O226 2.002 . S
Fe220 O231 1.976 . S
Fe220 O234 1.996 . S
Fe221 O222 1.918 . S
Fe221 O229 1.997 . S
Fe221 O232 1.996 . S
Fe221 O236 1.976 . S
Fe221 O239 2.002 . S
O222 Fe220 1.918 . S
O222 Fe221 1.918 . S
O222 Fe223 1.918 . S
Fe223 O222 1.918 . S
Fe223 O224 2.002 . S
Fe223 O233 1.976 . S
Fe223 O237 1.996 . S
Fe223 O240 1.997 . S
O224 Fe223 2.002 . S
O224 C241 1.295 . S
O225 Fe220 1.997 . S
O225 C241 1.235 . S
O226 Fe220 2.002 . S
O226 C227 1.295 . S
C227 O226 1.295 . S
C227 O229 1.235 . S
C228 O233 1.287 . S
C228 O234 1.255 . S
O229 Fe221 1.997 . S
O229 C227 1.235 . S
C230 O236 1.287 . S
C230 O237 1.255 . S
O231 Fe220 1.976 . S
O231 C238 1.287 . S
O232 Fe221 1.996 . S
O232 C238 1.255 . S
O233 Fe223 1.976 . S
O233 C228 1.287 . S
O234 Fe220 1.996 . S
O234 C228 1.255 . S
C235 O239 1.295 . S
C235 O240 1.235 . S
O236 Fe221 1.976 . S
O236 C230 1.287 . S
O237 Fe223 1.996 . S
O237 C230 1.255 . S
C238 O231 1.287 . S
C238 O232 1.255 . S
O239 Fe221 2.002 . S
O239 C235 1.295 . S
O240 Fe223 1.997 . S
O240 C235 1.235 . S
C241 O224 1.295 . S
C241 O225 1.235 . S
Fe242 O244 1.918 . S
Fe242 O247 1.997 . S
Fe242 O248 2.002 1_565 S
Fe242 O253 1.976 1_565 S
Fe242 O256 1.996 . S
Fe243 O244 1.918 . S
Fe243 O251 1.997 . S
Fe243 O254 1.996 . S
Fe243 O258 1.976 . S
Fe243 O261 2.002 . S
O244 Fe242 1.918 . S
O244 Fe243 1.918 . S
O244 Fe245 1.918 . S
Fe245 O244 1.918 . S
Fe245 O246 2.002 . S
Fe245 O255 1.976 . S
Fe245 O259 1.996 . S
Fe245 O262 1.997 . S
O246 Fe245 2.002 . S
O246 C263 1.295 . S
O247 Fe242 1.997 . S
O247 C263 1.235 . S
O248 Fe242 2.002 1_545 S
O248 C249 1.295 1_545 S
C249 O248 1.295 1_565 S
C249 O251 1.235 . S
C250 O255 1.287 . S
C250 O256 1.255 . S
O251 Fe243 1.997 . S
O251 C249 1.235 . S
C252 O258 1.287 . S
C252 O259 1.255 . S
O253 Fe242 1.976 1_545 S
O253 C260 1.287 1_545 S
O254 Fe243 1.996 . S
O254 C260 1.255 . S
O255 Fe245 1.976 . S
O255 C250 1.287 . S
O256 Fe242 1.996 . S
O256 C250 1.255 . S
C257 O261 1.295 . S
C257 O262 1.235 . S
O258 Fe243 1.976 . S
O258 C252 1.287 . S
O259 Fe245 1.996 . S
O259 C252 1.255 . S
C260 O253 1.287 1_565 S
C260 O254 1.255 . S
O261 Fe243 2.002 . S
O261 C257 1.295 . S
O262 Fe245 1.997 . S
O262 C257 1.235 . S
C263 O246 1.295 . S
C263 O247 1.235 . S
Fe264 O266 1.918 . S
Fe264 O269 1.997 . S
Fe264 O270 2.002 1_545 S
Fe264 O275 1.976 1_545 S
Fe264 O278 1.996 . S
Fe265 O266 1.918 . S
Fe265 O273 1.997 . S
Fe265 O276 1.996 . S
Fe265 O280 1.976 . S
Fe265 O283 2.002 . S
O266 Fe264 1.918 . S
O266 Fe265 1.918 . S
O266 Fe267 1.918 . S
Fe267 O266 1.918 . S
Fe267 O268 2.002 . S
Fe267 O277 1.976 . S
Fe267 O281 1.996 . S
Fe267 O284 1.997 . S
O268 Fe267 2.002 . S
O268 C285 1.295 . S
O269 Fe264 1.997 . S
O269 C285 1.235 . S
O270 Fe264 2.002 1_565 S
O270 C271 1.295 1_565 S
C271 O270 1.295 1_545 S
C271 O273 1.235 . S
C272 O277 1.287 . S
C272 O278 1.255 . S
O273 Fe265 1.997 . S
O273 C271 1.235 . S
C274 O280 1.287 . S
C274 O281 1.255 . S
O275 Fe264 1.976 1_565 S
O275 C282 1.287 1_565 S
O276 Fe265 1.996 . S
O276 C282 1.255 . S
O277 Fe267 1.976 . S
O277 C272 1.287 . S
O278 Fe264 1.996 . S
O278 C272 1.255 . S
C279 O283 1.295 . S
C279 O284 1.235 . S
O280 Fe265 1.976 . S
O280 C274 1.287 . S
O281 Fe267 1.996 . S
O281 C274 1.255 . S
C282 O275 1.287 1_545 S
C282 O276 1.255 . S
O283 Fe265 2.002 . S
O283 C279 1.295 . S
O284 Fe267 1.997 . S
O284 C279 1.235 . S
C285 O268 1.295 . S
C285 O269 1.235 . S
Fe286 O288 1.918 . S
Fe286 O291 1.997 . S
Fe286 O292 2.002 . S
Fe286 O297 1.976 . S
Fe286 O300 1.996 . S
Fe287 O288 1.918 . S
Fe287 O295 1.997 . S
Fe287 O298 1.996 . S
Fe287 O302 1.976 1_655 S
Fe287 O305 2.002 1_655 S
O288 Fe286 1.918 . S
O288 Fe287 1.918 . S
O288 Fe289 1.918 . S
Fe289 O288 1.918 . S
Fe289 O290 2.002 . S
Fe289 O299 1.976 . S
Fe289 O303 1.996 . S
Fe289 O306 1.997 . S
O290 Fe289 2.002 . S
O290 C307 1.295 . S
O291 Fe286 1.997 . S
O291 C307 1.235 . S
O292 Fe286 2.002 . S
O292 C293 1.295 . S
C293 O292 1.295 . S
C293 O295 1.235 . S
C294 O299 1.287 . S
C294 O300 1.255 . S
O295 Fe287 1.997 . S
O295 C293 1.235 . S
C296 O302 1.287 1_655 S
C296 O303 1.255 . S
O297 Fe286 1.976 . S
O297 C304 1.287 . S
O298 Fe287 1.996 . S
O298 C304 1.255 . S
O299 Fe289 1.976 . S
O299 C294 1.287 . S
O300 Fe286 1.996 . S
O300 C294 1.255 . S
C301 O305 1.295 1_655 S
C301 O306 1.235 . S
O302 Fe287 1.976 1_455 S
O302 C296 1.287 1_455 S
O303 Fe289 1.996 . S
O303 C296 1.255 . S
C304 O297 1.287 . S
C304 O298 1.255 . S
O305 Fe287 2.002 1_455 S
O305 C301 1.295 1_455 S
O306 Fe289 1.997 . S
O306 C301 1.235 . S
C307 O290 1.295 . S
C307 O291 1.235 . S
Fe308 O310 1.918 . S
Fe308 O313 1.997 . S
Fe308 O314 2.002 . S
Fe308 O319 1.976 . S
Fe308 O322 1.996 . S
Fe309 O310 1.918 . S
Fe309 O317 1.997 . S
Fe309 O320 1.996 . S
Fe309 O324 1.976 . S
Fe309 O327 2.002 . S
O310 Fe308 1.918 . S
O310 Fe309 1.918 . S
O310 Fe311 1.918 . S
Fe311 O310 1.918 . S
Fe311 O312 2.002 . S
Fe311 O321 1.976 . S
Fe311 O325 1.996 . S
Fe311 O328 1.997 . S
O312 Fe311 2.002 . S
O312 C329 1.295 . S
O313 Fe308 1.997 . S
O313 C329 1.235 . S
O314 Fe308 2.002 . S
O314 C315 1.295 . S
C315 O314 1.295 . S
C315 O317 1.235 . S
C316 O321 1.287 . S
C316 O322 1.255 . S
O317 Fe309 1.997 . S
O317 C315 1.235 . S
C318 O324 1.287 . S
C318 O325 1.255 . S
O319 Fe308 1.976 . S
O319 C326 1.287 . S
O320 Fe309 1.996 . S
O320 C326 1.255 . S
O321 Fe311 1.976 . S
O321 C316 1.287 . S
O322 Fe308 1.996 . S
O322 C316 1.255 . S
C323 O327 1.295 . S
C323 O328 1.235 . S
O324 Fe309 1.976 . S
O324 C318 1.287 . S
O325 Fe311 1.996 . S
O325 C318 1.255 . S
C326 O319 1.287 . S
C326 O320 1.255 . S
O327 Fe309 2.002 . S
O327 C323 1.295 . S
O328 Fe311 1.997 . S
O328 C323 1.235 . S
C329 O312 1.295 . S
C329 O313 1.235 . S
Fe330 O332 1.918 . S
Fe330 O335 1.997 . S
Fe330 O336 2.002 . S
Fe330 O341 1.976 . S
Fe330 O344 1.996 . S
Fe331 O332 1.918 . S
Fe331 O339 1.997 . S
Fe331 O342 1.996 . S
Fe331 O346 1.976 . S
Fe331 O349 2.002 . S
O332 Fe330 1.918 . S
O332 Fe331 1.918 . S
O332 Fe333 1.918 . S
Fe333 O332 1.918 . S
Fe333 O334 2.002 . S
Fe333 O343 1.976 . S
Fe333 O347 1.996 . S
Fe333 O350 1.997 . S
O334 Fe333 2.002 . S
O334 C351 1.295 . S
O335 Fe330 1.997 . S
O335 C351 1.235 . S
O336 Fe330 2.002 . S
O336 C337 1.295 . S
C337 O336 1.295 . S
C337 O339 1.235 . S
C338 O343 1.287 . S
C338 O344 1.255 . S
O339 Fe331 1.997 . S
O339 C337 1.235 . S
C340 O346 1.287 . S
C340 O347 1.255 . S
O341 Fe330 1.976 . S
O341 C348 1.287 . S
O342 Fe331 1.996 . S
O342 C348 1.255 . S
O343 Fe333 1.976 . S
O343 C338 1.287 . S
O344 Fe330 1.996 . S
O344 C338 1.255 . S
C345 O349 1.295 . S
C345 O350 1.235 . S
O346 Fe331 1.976 . S
O346 C340 1.287 . S
O347 Fe333 1.996 . S
O347 C340 1.255 . S
C348 O341 1.287 . S
C348 O342 1.255 . S
O349 Fe331 2.002 . S
O349 C345 1.295 . S
O350 Fe333 1.997 . S
O350 C345 1.235 . S
C351 O334 1.295 . S
C351 O335 1.235 . S
Fe352 O354 1.918 . S
Fe352 O357 1.997 . S
Fe352 O358 2.002 . S
Fe352 O363 1.976 . S
Fe352 O366 1.996 . S
Fe353 O354 1.918 . S
Fe353 O361 1.997 . S
Fe353 O364 1.996 . S
Fe353 O368 1.976 . S
Fe353 O371 2.002 . S
O354 Fe352 1.918 . S
O354 Fe353 1.918 . S
O354 Fe355 1.918 . S
Fe355 O354 1.918 . S
Fe355 O356 2.002 . S
Fe355 O365 1.976 . S
Fe355 O369 1.996 . S
Fe355 O372 1.997 . S
O356 Fe355 2.002 . S
O356 C373 1.295 . S
O357 Fe352 1.997 . S
O357 C373 1.235 . S
O358 Fe352 2.002 . S
O358 C359 1.295 . S
C359 O358 1.295 . S
C359 O361 1.235 . S
C360 O365 1.287 . S
C360 O366 1.255 . S
O361 Fe353 1.997 . S
O361 C359 1.235 . S
C362 O368 1.287 . S
C362 O369 1.255 . S
O363 Fe352 1.976 . S
O363 C370 1.287 . S
O364 Fe353 1.996 . S
O364 C370 1.255 . S
O365 Fe355 1.976 . S
O365 C360 1.287 . S
O366 Fe352 1.996 . S
O366 C360 1.255 . S
C367 O371 1.295 . S
C367 O372 1.235 . S
O368 Fe353 1.976 . S
O368 C362 1.287 . S
O369 Fe355 1.996 . S
O369 C362 1.255 . S
C370 O363 1.287 . S
C370 O364 1.255 . S
O371 Fe353 2.002 . S
O371 C367 1.295 . S
O372 Fe355 1.997 . S
O372 C367 1.235 . S
C373 O356 1.295 . S
C373 O357 1.235 . S
Fe374 O376 1.918 . S
Fe374 O379 1.997 . S
Fe374 O380 2.002 . S
Fe374 O385 1.976 . S
Fe374 O388 1.996 . S
Fe375 O376 1.918 . S
Fe375 O383 1.997 . S
Fe375 O386 1.996 . S
Fe375 O390 1.976 . S
Fe375 O393 2.002 . S
O376 Fe374 1.918 . S
O376 Fe375 1.918 . S
O376 Fe377 1.918 . S
Fe377 O376 1.918 . S
Fe377 O378 2.002 . S
Fe377 O387 1.976 . S
Fe377 O391 1.996 . S
Fe377 O394 1.997 . S
O378 Fe377 2.002 . S
O378 C395 1.295 . S
O379 Fe374 1.997 . S
O379 C395 1.235 . S
O380 Fe374 2.002 . S
O380 C381 1.295 . S
C381 O380 1.295 . S
C381 O383 1.235 . S
C382 O387 1.287 . S
C382 O388 1.255 . S
O383 Fe375 1.997 . S
O383 C381 1.235 . S
C384 O390 1.287 . S
C384 O391 1.255 . S
O385 Fe374 1.976 . S
O385 C392 1.287 . S
O386 Fe375 1.996 . S
O386 C392 1.255 . S
O387 Fe377 1.976 . S
O387 C382 1.287 . S
O388 Fe374 1.996 . S
O388 C382 1.255 . S
C389 O393 1.295 . S
C389 O394 1.235 . S
O390 Fe375 1.976 . S
O390 C384 1.287 . S
O391 Fe377 1.996 . S
O391 C384 1.255 . S
C392 O385 1.287 . S
C392 O386 1.255 . S
O393 Fe375 2.002 . S
O393 C389 1.295 . S
O394 Fe377 1.997 . S
O394 C389 1.235 . S
C395 O378 1.295 . S
C395 O379 1.235 . S
H396 C408 0.930 . S
H397 C410 0.930 . S
H398 C411 0.930 . S
H399 C415 0.959 . S
H400 C415 0.960 1_556 S
H401 C415 0.961 . S
H402 C416 0.972 . S
H403 C416 0.961 1_556 S
H404 C416 0.959 . S
H405 C419 0.929 . S
H406 C420 0.931 . S
H407 C422 0.930 . S
C408 H396 0.930 . S
C408 C409 1.399 . S
C408 C413 1.399 . S
C409 C408 1.399 . S
C409 C410 1.376 . S
C410 H397 0.930 . S
C410 C409 1.376 . S
C410 C411 1.388 . S
C411 H398 0.930 . S
C411 C410 1.388 . S
C411 C412 1.390 . S
C412 C411 1.390 . S
C412 C413 1.394 . S
C412 C418 1.465 . S
C413 C408 1.399 . S
C413 C412 1.394 . S
C413 C414 1.516 . S
C414 C413 1.516 . S
C414 C415 1.502 . S
C414 C416 1.561 . S
C414 C417 1.526 . S
C415 H399 0.959 . S
C415 H400 0.960 1_554 S
C415 H401 0.961 . S
C415 C414 1.502 . S
C416 H402 0.972 . S
C416 H403 0.961 1_554 S
C416 H404 0.959 . S
C416 C414 1.561 . S
C417 C414 1.526 . S
C417 C418 1.396 . S
C417 C422 1.390 . S
C418 C412 1.465 . S
C418 C417 1.396 . S
C418 C419 1.399 . S
C419 H405 0.929 . S
C419 C418 1.399 . S
C419 C420 1.385 . S
C420 H406 0.931 . S
C420 C419 1.385 . S
C420 C421 1.389 . S
C421 C420 1.389 . S
C421 C422 1.387 . S
C422 H407 0.930 . S
C422 C417 1.390 . S
C422 C421 1.387 . S
H423 C435 0.930 . S
H424 C437 0.930 . S
H425 C438 0.930 . S
H426 C442 0.959 . S
H427 C442 0.959 . S
H428 C442 0.961 . S
H429 C443 0.960 . S
H430 C443 0.961 . S
H431 C443 0.959 . S
H432 C446 0.929 . S
H433 C447 0.931 . S
H434 C449 0.930 . S
C435 H423 0.930 . S
C435 C436 1.399 . S
C435 C440 1.399 . S
C436 C435 1.399 . S
C436 C437 1.376 . S
C437 H424 0.930 . S
C437 C436 1.376 . S
C437 C438 1.388 . S
C438 H425 0.930 . S
C438 C437 1.388 . S
C438 C439 1.390 . S
C439 C438 1.390 . S
C439 C440 1.394 . S
C439 C445 1.465 . S
C440 C435 1.399 . S
C440 C439 1.394 . S
C440 C441 1.516 . S
C441 C440 1.516 . S
C441 C442 1.502 . S
C441 C443 1.561 . S
C441 C444 1.526 . S
C442 H426 0.959 . S
C442 H427 0.959 . S
C442 H428 0.961 . S
C442 C441 1.502 . S
C443 H429 0.960 . S
C443 H430 0.961 . S
C443 H431 0.959 . S
C443 C441 1.561 . S
C444 C441 1.526 . S
C444 C445 1.396 . S
C444 C449 1.390 . S
C445 C439 1.465 . S
C445 C444 1.396 . S
C445 C446 1.399 . S
C446 H432 0.929 . S
C446 C445 1.399 . S
C446 C447 1.385 . S
C447 H433 0.931 . S
C447 C446 1.385 . S
C447 C448 1.389 . S
C448 C447 1.389 . S
C448 C449 1.387 . S
C449 H434 0.930 . S
C449 C444 1.390 . S
C449 C448 1.387 . S
H450 C462 0.930 . S
H451 C464 0.930 . S
H452 C465 0.930 . S
H453 C469 0.959 . S
H454 C469 0.959 . S
H455 C469 0.961 . S
H456 C470 0.960 . S
H457 C470 0.961 . S
H458 C470 0.959 . S
H459 C473 0.929 . S
H460 C474 0.931 . S
H461 C476 0.930 . S
C462 H450 0.930 . S
C462 C463 1.399 . S
C462 C467 1.399 . S
C463 C462 1.399 . S
C463 C464 1.376 . S
C464 H451 0.930 . S
C464 C463 1.376 . S
C464 C465 1.388 . S
C465 H452 0.930 . S
C465 C464 1.388 . S
C465 C466 1.390 . S
C466 C465 1.390 . S
C466 C467 1.394 . S
C466 C472 1.465 . S
C467 C462 1.399 . S
C467 C466 1.394 . S
C467 C468 1.516 . S
C468 C467 1.516 . S
C468 C469 1.502 . S
C468 C470 1.561 . S
C468 C471 1.526 . S
C469 H453 0.959 . S
C469 H454 0.959 . S
C469 H455 0.961 . S
C469 C468 1.502 . S
C470 H456 0.960 . S
C470 H457 0.961 . S
C470 H458 0.959 . S
C470 C468 1.561 . S
C471 C468 1.526 . S
C471 C472 1.396 . S
C471 C476 1.390 . S
C472 C466 1.465 . S
C472 C471 1.396 . S
C472 C473 1.399 . S
C473 H459 0.929 . S
C473 C472 1.399 . S
C473 C474 1.385 . S
C474 H460 0.931 . S
C474 C473 1.385 . S
C474 C475 1.389 . S
C475 C474 1.389 . S
C475 C476 1.387 . S
C476 H461 0.930 . S
C476 C471 1.390 . S
C476 C475 1.387 . S
H477 C489 0.930 . S
H478 C491 0.930 . S
H479 C492 0.930 . S
H480 C496 0.959 . S
H481 C496 0.959 . S
H482 C496 0.961 . S
H483 C497 0.960 . S
H484 C497 0.961 . S
H485 C497 0.959 . S
H486 C500 0.929 . S
H487 C501 0.931 . S
H488 C503 0.930 . S
C489 H477 0.930 . S
C489 C490 1.399 . S
C489 C494 1.399 . S
C490 C489 1.399 . S
C490 C491 1.376 . S
C491 H478 0.930 . S
C491 C490 1.376 . S
C491 C492 1.388 . S
C492 H479 0.930 . S
C492 C491 1.388 . S
C492 C493 1.390 . S
C493 C492 1.390 . S
C493 C494 1.394 . S
C493 C499 1.465 . S
C494 C489 1.399 . S
C494 C493 1.394 . S
C494 C495 1.516 . S
C495 C494 1.516 . S
C495 C496 1.502 . S
C495 C497 1.561 . S
C495 C498 1.526 . S
C496 H480 0.959 . S
C496 H481 0.959 . S
C496 H482 0.961 . S
C496 C495 1.502 . S
C497 H483 0.960 . S
C497 H484 0.961 . S
C497 H485 0.959 . S
C497 C495 1.561 . S
C498 C495 1.526 . S
C498 C499 1.396 . S
C498 C503 1.390 . S
C499 C493 1.465 . S
C499 C498 1.396 . S
C499 C500 1.399 . S
C500 H486 0.929 . S
C500 C499 1.399 . S
C500 C501 1.385 . S
C501 H487 0.931 . S
C501 C500 1.385 . S
C501 C502 1.389 . S
C502 C501 1.389 . S
C502 C503 1.387 . S
C503 H488 0.930 . S
C503 C498 1.390 . S
C503 C502 1.387 . S
H504 C516 0.930 . S
H505 C518 0.930 . S
H506 C519 0.930 . S
H507 C523 0.959 . S
H508 C523 0.959 . S
H509 C523 0.961 . S
H510 C524 0.960 . S
H511 C524 0.961 . S
H512 C524 0.959 . S
H513 C527 0.929 . S
H514 C528 0.931 . S
H515 C530 0.930 . S
C516 H504 0.930 . S
C516 C517 1.399 . S
C516 C521 1.399 . S
C517 C516 1.399 . S
C517 C518 1.376 . S
C518 H505 0.930 . S
C518 C517 1.376 . S
C518 C519 1.388 . S
C519 H506 0.930 . S
C519 C518 1.388 . S
C519 C520 1.390 . S
C520 C519 1.390 . S
C520 C521 1.394 . S
C520 C526 1.465 . S
C521 C516 1.399 . S
C521 C520 1.394 . S
C521 C522 1.516 . S
C522 C521 1.516 . S
C522 C523 1.502 . S
C522 C524 1.561 . S
C522 C525 1.526 . S
C523 H507 0.959 . S
C523 H508 0.959 . S
C523 H509 0.961 . S
C523 C522 1.502 . S
C524 H510 0.960 . S
C524 H511 0.961 . S
C524 H512 0.959 . S
C524 C522 1.561 . S
C525 C522 1.526 . S
C525 C526 1.396 . S
C525 C530 1.390 . S
C526 C520 1.465 . S
C526 C525 1.396 . S
C526 C527 1.399 . S
C527 H513 0.929 . S
C527 C526 1.399 . S
C527 C528 1.385 . S
C528 H514 0.931 . S
C528 C527 1.385 . S
C528 C529 1.389 . S
C529 C528 1.389 . S
C529 C530 1.387 . S
C530 H515 0.930 . S
C530 C525 1.390 . S
C530 C529 1.387 . S
H531 C543 0.930 . S
H532 C545 0.930 . S
H533 C546 0.930 . S
H534 C550 0.959 . S
H535 C550 0.959 1_554 S
H536 C550 0.962 1_554 S
H537 C551 0.960 . S
H538 C551 0.961 . S
H539 C551 0.959 . S
H540 C554 0.929 . S
H541 C555 0.931 . S
H542 C557 0.930 . S
C543 H531 0.930 . S
C543 C544 1.399 . S
C543 C548 1.399 . S
C544 C543 1.399 . S
C544 C545 1.376 . S
C545 H532 0.930 . S
C545 C544 1.376 . S
C545 C546 1.388 . S
C546 H533 0.930 . S
C546 C545 1.388 . S
C546 C547 1.390 . S
C547 C546 1.390 . S
C547 C548 1.394 . S
C547 C553 1.465 . S
C548 C543 1.399 . S
C548 C547 1.394 . S
C548 C549 1.516 . S
C549 C548 1.516 . S
C549 C550 1.502 . S
C549 C551 1.561 . S
C549 C552 1.526 . S
C550 H534 0.959 . S
C550 H535 0.959 1_556 S
C550 H536 0.962 1_556 S
C550 C549 1.502 . S
C551 H537 0.960 . S
C551 H538 0.961 . S
C551 H539 0.959 . S
C551 C549 1.561 . S
C552 C549 1.526 . S
C552 C553 1.396 . S
C552 C557 1.390 . S
C553 C547 1.465 . S
C553 C552 1.396 . S
C553 C554 1.399 . S
C554 H540 0.929 . S
C554 C553 1.399 . S
C554 C555 1.385 . S
C555 H541 0.931 . S
C555 C554 1.385 . S
C555 C556 1.389 . S
C556 C555 1.389 . S
C556 C557 1.387 . S
C557 H542 0.930 . S
C557 C552 1.390 . S
C557 C556 1.387 . S
H558 C570 0.930 1_545 S
H559 C572 0.930 1_545 S
H560 C573 0.930 . S
H561 C577 0.959 . S
H562 C577 0.959 . S
H563 C577 0.961 . S
H564 C578 0.960 . S
H565 C578 0.961 . S
H566 C578 0.959 . S
H567 C581 0.929 . S
H568 C582 0.931 . S
H569 C584 0.930 . S
C570 H558 0.930 1_565 S
C570 C571 1.399 1_565 S
C570 C575 1.399 . S
C571 C570 1.399 1_545 S
C571 C572 1.376 1_545 S
C572 H559 0.930 1_565 S
C572 C571 1.376 1_565 S
C572 C573 1.388 . S
C573 H560 0.930 . S
C573 C572 1.388 . S
C573 C574 1.390 . S
C574 C573 1.390 . S
C574 C575 1.394 . S
C574 C580 1.465 . S
C575 C570 1.399 . S
C575 C574 1.394 . S
C575 C576 1.516 . S
C576 C575 1.516 . S
C576 C577 1.502 . S
C576 C578 1.561 . S
C576 C579 1.526 . S
C577 H561 0.959 . S
C577 H562 0.959 . S
C577 H563 0.961 . S
C577 C576 1.502 . S
C578 H564 0.960 . S
C578 H565 0.961 . S
C578 H566 0.959 . S
C578 C576 1.561 . S
C579 C576 1.526 . S
C579 C580 1.396 . S
C579 C584 1.390 . S
C580 C574 1.465 . S
C580 C579 1.396 . S
C580 C581 1.399 . S
C581 H567 0.929 . S
C581 C580 1.399 . S
C581 C582 1.385 . S
C582 H568 0.931 . S
C582 C581 1.385 . S
C582 C583 1.389 . S
C583 C582 1.389 . S
C583 C584 1.387 . S
C584 H569 0.930 . S
C584 C579 1.390 . S
C584 C583 1.387 . S
H585 C597 0.930 . S
H586 C599 0.930 . S
H587 C600 0.930 . S
H588 C604 0.959 . S
H589 C604 0.959 . S
H590 C604 0.961 . S
H591 C605 0.960 . S
H592 C605 0.961 . S
H593 C605 0.959 . S
H594 C608 0.929 . S
H595 C609 0.931 . S
H596 C611 0.930 . S
C597 H585 0.930 . S
C597 C598 1.399 1_455 S
C597 C602 1.399 . S
C598 C597 1.399 1_655 S
C598 C599 1.376 . S
C599 H586 0.930 . S
C599 C598 1.376 . S
C599 C600 1.388 1_655 S
C600 H587 0.930 . S
C600 C599 1.388 1_455 S
C600 C601 1.390 . S
C601 C600 1.390 . S
C601 C602 1.394 . S
C601 C607 1.465 . S
C602 C597 1.399 . S
C602 C601 1.394 . S
C602 C603 1.516 . S
C603 C602 1.516 . S
C603 C604 1.502 . S
C603 C605 1.561 . S
C603 C606 1.526 . S
C604 H588 0.959 . S
C604 H589 0.959 . S
C604 H590 0.961 . S
C604 C603 1.502 . S
C605 H591 0.960 . S
C605 H592 0.961 . S
C605 H593 0.959 . S
C605 C603 1.561 . S
C606 C603 1.526 . S
C606 C607 1.396 . S
C606 C611 1.390 . S
C607 C601 1.465 . S
C607 C606 1.396 . S
C607 C608 1.399 . S
C608 H594 0.929 . S
C608 C607 1.399 . S
C608 C609 1.385 1_565 S
C609 H595 0.931 . S
C609 C608 1.385 1_545 S
C609 C610 1.389 . S
C610 C609 1.389 . S
C610 C611 1.387 1_545 S
C611 H596 0.930 . S
C611 C606 1.390 . S
C611 C610 1.387 1_565 S
H612 C624 0.930 . S
H613 C626 0.930 . S
H614 C627 0.930 . S
H615 C631 0.959 . S
H616 C631 0.959 . S
H617 C631 0.961 . S
H618 C632 0.960 . S
H619 C632 0.961 . S
H620 C632 0.959 . S
H621 C635 0.929 . S
H622 C636 0.931 1_655 S
H623 C638 0.921 1_655 S
C624 H612 0.930 . S
C624 C625 1.399 . S
C624 C629 1.399 . S
C625 C624 1.399 . S
C625 C626 1.376 . S
C626 H613 0.930 . S
C626 C625 1.376 . S
C626 C627 1.388 . S
C627 H614 0.930 . S
C627 C626 1.388 . S
C627 C628 1.390 . S
C628 C627 1.390 . S
C628 C629 1.394 . S
C628 C634 1.465 . S
C629 C624 1.399 . S
C629 C628 1.394 . S
C629 C630 1.516 . S
C630 C629 1.516 . S
C630 C631 1.502 . S
C630 C632 1.561 . S
C630 C633 1.526 . S
C631 H615 0.959 . S
C631 H616 0.959 . S
C631 H617 0.961 . S
C631 C630 1.502 . S
C632 H618 0.960 . S
C632 H619 0.961 . S
C632 H620 0.959 . S
C632 C630 1.561 . S
C633 C630 1.526 . S
C633 C634 1.396 . S
C633 C638 1.390 . S
C634 C628 1.465 . S
C634 C633 1.396 . S
C634 C635 1.399 . S
C635 H621 0.929 . S
C635 C634 1.399 . S
C635 C636 1.385 . S
C636 H622 0.931 1_455 S
C636 C635 1.385 . S
C636 C637 1.389 1_455 S
C637 C636 1.389 1_655 S
C637 C638 1.387 1_655 S
C638 H623 0.921 1_455 S
C638 C633 1.390 . S
C638 C637 1.387 1_455 S
H639 C651 0.930 . S
H640 C653 0.930 . S
H641 C654 0.930 . S
H642 C658 0.959 . S
H643 C658 0.959 . S
H644 C658 0.961 . S
H645 C659 0.960 . S
H646 C659 0.961 . S
H647 C659 0.959 . S
H648 C662 0.929 . S
H649 C663 0.931 . S
H650 C665 0.930 . S
C651 H639 0.930 . S
C651 C652 1.399 . S
C651 C656 1.399 . S
C652 C651 1.399 . S
C652 C653 1.376 . S
C653 H640 0.930 . S
C653 C652 1.376 . S
C653 C654 1.388 . S
C654 H641 0.930 . S
C654 C653 1.388 . S
C654 C655 1.390 . S
C655 C654 1.390 . S
C655 C656 1.394 . S
C655 C661 1.465 . S
C656 C651 1.399 . S
C656 C655 1.394 . S
C656 C657 1.516 . S
C657 C656 1.516 . S
C657 C658 1.502 . S
C657 C659 1.561 . S
C657 C660 1.526 . S
C658 H642 0.959 . S
C658 H643 0.959 . S
C658 H644 0.961 . S
C658 C657 1.502 . S
C659 H645 0.960 . S
C659 H646 0.961 . S
C659 H647 0.959 . S
C659 C657 1.561 . S
C660 C657 1.526 . S
C660 C661 1.396 . S
C660 C665 1.390 . S
C661 C655 1.465 . S
C661 C660 1.396 . S
C661 C662 1.399 . S
C662 H648 0.929 . S
C662 C661 1.399 . S
C662 C663 1.385 . S
C663 H649 0.931 . S
C663 C662 1.385 . S
C663 C664 1.389 . S
C664 C663 1.389 . S
C664 C665 1.387 . S
C665 H650 0.930 . S
C665 C660 1.390 . S
C665 C664 1.387 . S
H666 C678 0.930 . S
H667 C680 0.930 . S
H668 C681 0.930 . S
H669 C685 0.959 . S
H670 C685 0.959 . S
H671 C685 0.961 . S
H672 C686 0.960 . S
H673 C686 0.961 . S
H674 C686 0.959 . S
H675 C689 0.929 . S
H676 C690 0.931 . S
H677 C692 0.930 . S
C678 H666 0.930 . S
C678 C679 1.399 . S
C678 C683 1.399 . S
C679 C678 1.399 . S
C679 C680 1.376 . S
C680 H667 0.930 . S
C680 C679 1.376 . S
C680 C681 1.388 . S
C681 H668 0.930 . S
C681 C680 1.388 . S
C681 C682 1.390 . S
C682 C681 1.390 . S
C682 C683 1.394 . S
C682 C688 1.465 . S
C683 C678 1.399 . S
C683 C682 1.394 . S
C683 C684 1.516 . S
C684 C683 1.516 . S
C684 C685 1.502 . S
C684 C686 1.561 . S
C684 C687 1.526 . S
C685 H669 0.959 . S
C685 H670 0.959 . S
C685 H671 0.961 . S
C685 C684 1.502 . S
C686 H672 0.960 . S
C686 H673 0.961 . S
C686 H674 0.959 . S
C686 C684 1.561 . S
C687 C684 1.526 . S
C687 C688 1.396 . S
C687 C692 1.390 . S
C688 C682 1.465 . S
C688 C687 1.396 . S
C688 C689 1.399 . S
C689 H675 0.929 . S
C689 C688 1.399 . S
C689 C690 1.385 . S
C690 H676 0.931 . S
C690 C689 1.385 . S
C690 C691 1.389 . S
C691 C690 1.389 . S
C691 C692 1.387 . S
C692 H677 0.930 . S
C692 C687 1.390 . S
C692 C691 1.387 . S
H693 C705 0.930 . S
H694 C707 0.930 . S
H695 C708 0.930 . S
H696 C712 0.959 . S
H697 C712 0.959 . S
H698 C712 0.961 . S
H699 C713 0.960 . S
H700 C713 0.961 . S
H701 C713 0.959 . S
H702 C716 0.929 . S
H703 C717 0.931 . S
H704 C719 0.930 . S
C705 H693 0.930 . S
C705 C706 1.399 . S
C705 C710 1.399 . S
C706 C705 1.399 . S
C706 C707 1.376 . S
C707 H694 0.930 . S
C707 C706 1.376 . S
C707 C708 1.388 . S
C708 H695 0.930 . S
C708 C707 1.388 . S
C708 C709 1.390 . S
C709 C708 1.390 . S
C709 C710 1.394 . S
C709 C715 1.465 . S
C710 C705 1.399 . S
C710 C709 1.394 . S
C710 C711 1.516 . S
C711 C710 1.516 . S
C711 C712 1.502 . S
C711 C713 1.561 . S
C711 C714 1.526 . S
C712 H696 0.959 . S
C712 H697 0.959 . S
C712 H698 0.961 . S
C712 C711 1.502 . S
C713 H699 0.960 . S
C713 H700 0.961 . S
C713 H701 0.959 . S
C713 C711 1.561 . S
C714 C711 1.526 . S
C714 C715 1.396 . S
C714 C719 1.390 . S
C715 C709 1.465 . S
C715 C714 1.396 . S
C715 C716 1.399 . S
C716 H702 0.929 . S
C716 C715 1.399 . S
C716 C717 1.385 . S
C717 H703 0.931 . S
C717 C716 1.385 . S
C717 C718 1.389 . S
C718 C717 1.389 . S
C718 C719 1.387 . S
C719 H704 0.930 . S
C719 C714 1.390 . S
C719 C718 1.387 . S
H720 C732 0.930 . S
H721 C734 0.930 . S
H722 C735 0.930 . S
H723 C739 0.959 . S
H724 C739 0.959 . S
H725 C739 0.961 . S
H726 C740 0.960 . S
H727 C740 0.961 . S
H728 C740 0.959 . S
H729 C743 0.929 . S
H730 C744 0.931 . S
H731 C746 0.930 . S
C732 H720 0.930 . S
C732 C733 1.399 . S
C732 C737 1.399 . S
C733 C732 1.399 . S
C733 C734 1.376 . S
C734 H721 0.930 . S
C734 C733 1.376 . S
C734 C735 1.388 . S
C735 H722 0.930 . S
C735 C734 1.388 . S
C735 C736 1.390 . S
C736 C735 1.390 . S
C736 C737 1.394 . S
C736 C742 1.465 . S
C737 C732 1.399 . S
C737 C736 1.394 . S
C737 C738 1.516 . S
C738 C737 1.516 . S
C738 C739 1.502 . S
C738 C740 1.561 . S
C738 C741 1.526 . S
C739 H723 0.959 . S
C739 H724 0.959 . S
C739 H725 0.961 . S
C739 C738 1.502 . S
C740 H726 0.960 . S
C740 H727 0.961 . S
C740 H728 0.959 . S
C740 C738 1.561 . S
C741 C738 1.526 . S
C741 C742 1.396 . S
C741 C746 1.390 . S
C742 C736 1.465 . S
C742 C741 1.396 . S
C742 C743 1.399 . S
C743 H729 0.929 . S
C743 C742 1.399 . S
C743 C744 1.385 . S
C744 H730 0.931 . S
C744 C743 1.385 . S
C744 C745 1.389 . S
C745 C744 1.389 . S
C745 C746 1.387 . S
C746 H731 0.930 . S
C746 C741 1.390 . S
C746 C745 1.387 . S
H747 C759 0.930 . S
H748 C761 0.930 . S
H749 C762 0.930 . S
H750 C766 0.959 . S
H751 C766 0.959 . S
H752 C766 0.961 . S
H753 C767 0.960 . S
H754 C767 0.961 . S
H755 C767 0.959 . S
H756 C770 0.929 . S
H757 C771 0.931 . S
H758 C773 0.930 . S
C759 H747 0.930 . S
C759 C760 1.399 . S
C759 C764 1.399 . S
C760 C759 1.399 . S
C760 C761 1.376 . S
C761 H748 0.930 . S
C761 C760 1.376 . S
C761 C762 1.388 . S
C762 H749 0.930 . S
C762 C761 1.388 . S
C762 C763 1.390 . S
C763 C762 1.390 . S
C763 C764 1.394 . S
C763 C769 1.465 . S
C764 C759 1.399 . S
C764 C763 1.394 . S
C764 C765 1.516 . S
C765 C764 1.516 . S
C765 C766 1.502 . S
C765 C767 1.561 . S
C765 C768 1.526 . S
C766 H750 0.959 . S
C766 H751 0.959 . S
C766 H752 0.961 . S
C766 C765 1.502 . S
C767 H753 0.960 . S
C767 H754 0.961 . S
C767 H755 0.959 . S
C767 C765 1.561 . S
C768 C765 1.526 . S
C768 C769 1.396 . S
C768 C773 1.390 . S
C769 C763 1.465 . S
C769 C768 1.396 . S
C769 C770 1.399 . S
C770 H756 0.929 . S
C770 C769 1.399 . S
C770 C771 1.385 . S
C771 H757 0.931 . S
C771 C770 1.385 . S
C771 C772 1.389 . S
C772 C771 1.389 . S
C772 C773 1.387 . S
C773 H758 0.930 . S
C773 C768 1.390 . S
C773 C772 1.387 . S
H774 C786 0.930 . S
H775 C788 0.930 . S
H776 C789 0.930 . S
H777 C793 0.959 . S
H778 C793 0.959 . S
H779 C793 0.961 . S
H780 C794 0.960 . S
H781 C794 0.961 . S
H782 C794 0.959 . S
H783 C797 0.929 . S
H784 C798 0.931 . S
H785 C800 0.930 . S
C786 H774 0.930 . S
C786 C787 1.399 . S
C786 C791 1.399 . S
C787 C786 1.399 . S
C787 C788 1.376 . S
C788 H775 0.930 . S
C788 C787 1.376 . S
C788 C789 1.388 . S
C789 H776 0.930 . S
C789 C788 1.388 . S
C789 C790 1.390 . S
C790 C789 1.390 . S
C790 C791 1.394 . S
C790 C796 1.465 . S
C791 C786 1.399 . S
C791 C790 1.394 . S
C791 C792 1.516 . S
C792 C791 1.516 . S
C792 C793 1.502 . S
C792 C794 1.561 . S
C792 C795 1.526 . S
C793 H777 0.959 . S
C793 H778 0.959 . S
C793 H779 0.961 . S
C793 C792 1.502 . S
C794 H780 0.960 . S
C794 H781 0.961 . S
C794 H782 0.959 . S
C794 C792 1.561 . S
C795 C792 1.526 . S
C795 C796 1.396 . S
C795 C800 1.390 . S
C796 C790 1.465 . S
C796 C795 1.396 . S
C796 C797 1.399 . S
C797 H783 0.929 . S
C797 C796 1.399 . S
C797 C798 1.385 . S
C798 H784 0.931 . S
C798 C797 1.385 . S
C798 C799 1.389 . S
C799 C798 1.389 . S
C799 C800 1.387 . S
C800 H785 0.930 . S
C800 C795 1.390 . S
C800 C799 1.387 . S
H801 C813 0.930 1_455 S
H802 C815 0.929 1_455 S
H803 C816 0.930 . S
H804 C820 0.959 . S
H805 C820 0.959 . S
H806 C820 0.961 . S
H807 C821 0.960 . S
H808 C821 0.961 . S
H809 C821 0.959 . S
H810 C824 0.929 . S
H811 C825 0.931 . S
H812 C827 0.930 . S
C813 H801 0.930 1_655 S
C813 C814 1.399 1_655 S
C813 C818 1.399 . S
C814 C813 1.399 1_455 S
C814 C815 1.376 1_455 S
C815 H802 0.929 1_655 S
C815 C814 1.376 1_655 S
C815 C816 1.391 . S
C816 H803 0.930 . S
C816 C815 1.391 . S
C816 C817 1.390 . S
C817 C816 1.390 . S
C817 C818 1.394 . S
C817 C823 1.465 . S
C818 C813 1.399 . S
C818 C817 1.394 . S
C818 C819 1.516 . S
C819 C818 1.516 . S
C819 C820 1.502 . S
C819 C821 1.561 . S
C819 C822 1.526 . S
C820 H804 0.959 . S
C820 H805 0.959 . S
C820 H806 0.961 . S
C820 C819 1.502 . S
C821 H807 0.960 . S
C821 H808 0.961 . S
C821 H809 0.959 . S
C821 C819 1.561 . S
C822 C819 1.526 . S
C822 C823 1.396 . S
C822 C827 1.390 . S
C823 C817 1.465 . S
C823 C822 1.396 . S
C823 C824 1.399 . S
C824 H810 0.929 . S
C824 C823 1.399 . S
C824 C825 1.385 . S
C825 H811 0.931 . S
C825 C824 1.385 . S
C825 C826 1.389 . S
C826 C825 1.389 . S
C826 C827 1.387 . S
C827 H812 0.930 . S
C827 C822 1.390 . S
C827 C826 1.387 . S
H828 C840 0.930 . S
H829 C842 0.930 . S
H830 C843 0.930 . S
H831 C847 0.959 . S
H832 C847 0.959 . S
H833 C847 0.961 . S
H834 C848 0.960 . S
H835 C848 0.961 . S
H836 C848 0.959 . S
H837 C851 0.929 . S
H838 C852 0.931 1_565 S
H839 C854 0.930 1_565 S
C840 H828 0.930 . S
C840 C841 1.399 . S
C840 C845 1.399 . S
C841 C840 1.399 . S
C841 C842 1.376 . S
C842 H829 0.930 . S
C842 C841 1.376 . S
C842 C843 1.388 . S
C843 H830 0.930 . S
C843 C842 1.388 . S
C843 C844 1.390 . S
C844 C843 1.390 . S
C844 C845 1.394 . S
C844 C850 1.465 . S
C845 C840 1.399 . S
C845 C844 1.394 . S
C845 C846 1.516 . S
C846 C845 1.516 . S
C846 C847 1.502 . S
C846 C848 1.561 . S
C846 C849 1.526 . S
C847 H831 0.959 . S
C847 H832 0.959 . S
C847 H833 0.961 . S
C847 C846 1.502 . S
C848 H834 0.960 . S
C848 H835 0.961 . S
C848 H836 0.959 . S
C848 C846 1.561 . S
C849 C846 1.526 . S
C849 C850 1.396 . S
C849 C854 1.390 . S
C850 C844 1.465 . S
C850 C849 1.396 . S
C850 C851 1.399 . S
C851 H837 0.929 . S
C851 C850 1.399 . S
C851 C852 1.385 . S
C852 H838 0.931 1_545 S
C852 C851 1.385 . S
C852 C853 1.389 1_545 S
C853 C852 1.389 1_565 S
C853 C854 1.387 1_565 S
C854 H839 0.930 1_545 S
C854 C849 1.390 . S
C854 C853 1.387 1_545 S
H855 C867 0.930 . S
H856 C869 0.930 . S
H857 C870 0.930 . S
H858 C874 0.959 . S
H859 C874 0.959 . S
H860 C874 0.961 . S
H861 C875 0.960 . S
H862 C875 0.961 . S
H863 C875 0.959 . S
H864 C878 0.929 . S
H865 C879 0.931 . S
H866 C881 0.930 . S
C867 H855 0.930 . S
C867 C868 1.399 1_655 S
C867 C872 1.399 . S
C868 C867 1.399 1_455 S
C868 C869 1.376 . S
C869 H856 0.930 . S
C869 C868 1.376 . S
C869 C870 1.388 1_455 S
C870 H857 0.930 . S
C870 C869 1.388 1_655 S
C870 C871 1.390 . S
C871 C870 1.390 . S
C871 C872 1.394 . S
C871 C877 1.465 . S
C872 C867 1.399 . S
C872 C871 1.394 . S
C872 C873 1.516 . S
C873 C872 1.516 . S
C873 C874 1.502 . S
C873 C875 1.561 . S
C873 C876 1.526 . S
C874 H858 0.959 . S
C874 H859 0.959 . S
C874 H860 0.961 . S
C874 C873 1.502 . S
C875 H861 0.960 . S
C875 H862 0.961 . S
C875 H863 0.959 . S
C875 C873 1.561 . S
C876 C873 1.526 . S
C876 C877 1.396 . S
C876 C881 1.390 . S
C877 C871 1.465 . S
C877 C876 1.396 . S
C877 C878 1.399 . S
C878 H864 0.929 . S
C878 C877 1.399 . S
C878 C879 1.385 1_545 S
C879 H865 0.931 . S
C879 C878 1.385 1_565 S
C879 C880 1.389 . S
C880 C879 1.389 . S
C880 C881 1.387 1_565 S
C881 H866 0.930 . S
C881 C876 1.390 . S
C881 C880 1.387 1_545 S
H882 C894 0.930 . S
H883 C896 0.930 . S
H884 C897 0.930 . S
H885 C901 0.959 . S
H886 C901 0.959 . S
H887 C901 0.961 . S
H888 C902 0.960 . S
H889 C902 0.961 . S
H890 C902 0.959 . S
H891 C905 0.929 . S
H892 C906 0.931 . S
H893 C908 0.930 . S
C894 H882 0.930 . S
C894 C895 1.399 . S
C894 C899 1.399 . S
C895 C894 1.399 . S
C895 C896 1.376 . S
C896 H883 0.930 . S
C896 C895 1.376 . S
C896 C897 1.388 . S
C897 H884 0.930 . S
C897 C896 1.388 . S
C897 C898 1.390 . S
C898 C897 1.390 . S
C898 C899 1.394 . S
C898 C904 1.465 . S
C899 C894 1.399 . S
C899 C898 1.394 . S
C899 C900 1.516 . S
C900 C899 1.516 . S
C900 C901 1.502 . S
C900 C902 1.561 . S
C900 C903 1.526 . S
C901 H885 0.959 . S
C901 H886 0.959 . S
C901 H887 0.961 . S
C901 C900 1.502 . S
C902 H888 0.960 . S
C902 H889 0.961 . S
C902 H890 0.959 . S
C902 C900 1.561 . S
C903 C900 1.526 . S
C903 C904 1.396 . S
C903 C908 1.390 . S
C904 C898 1.465 . S
C904 C903 1.396 . S
C904 C905 1.399 . S
C905 H891 0.929 . S
C905 C904 1.399 . S
C905 C906 1.385 . S
C906 H892 0.931 . S
C906 C905 1.385 . S
C906 C907 1.389 . S
C907 C906 1.389 . S
C907 C908 1.387 . S
C908 H893 0.930 . S
C908 C903 1.390 . S
C908 C907 1.387 . S
H909 C921 0.930 . S
H910 C923 0.930 . S
H911 C924 0.930 . S
H912 C928 0.959 . S
H913 C928 0.959 . S
H914 C928 0.961 . S
H915 C929 0.960 . S
H916 C929 0.961 . S
H917 C929 0.959 . S
H918 C932 0.929 . S
H919 C933 0.931 . S
H920 C935 0.930 . S
C921 H909 0.930 . S
C921 C922 1.399 . S
C921 C926 1.399 . S
C922 C921 1.399 . S
C922 C923 1.376 . S
C923 H910 0.930 . S
C923 C922 1.376 . S
C923 C924 1.388 . S
C924 H911 0.930 . S
C924 C923 1.388 . S
C924 C925 1.390 . S
C925 C924 1.390 . S
C925 C926 1.394 . S
C925 C931 1.465 . S
C926 C921 1.399 . S
C926 C925 1.394 . S
C926 C927 1.516 . S
C927 C926 1.516 . S
C927 C928 1.502 . S
C927 C929 1.561 . S
C927 C930 1.526 . S
C928 H912 0.959 . S
C928 H913 0.959 . S
C928 H914 0.961 . S
C928 C927 1.502 . S
C929 H915 0.960 . S
C929 H916 0.961 . S
C929 H917 0.959 . S
C929 C927 1.561 . S
C930 C927 1.526 . S
C930 C931 1.396 . S
C930 C935 1.390 . S
C931 C925 1.465 . S
C931 C930 1.396 . S
C931 C932 1.399 . S
C932 H918 0.929 . S
C932 C931 1.399 . S
C932 C933 1.385 . S
C933 H919 0.931 . S
C933 C932 1.385 . S
C933 C934 1.389 . S
C934 C933 1.389 . S
C934 C935 1.387 . S
C935 H920 0.930 . S
C935 C930 1.390 . S
C935 C934 1.387 . S
H936 C948 0.930 . S
H937 C950 0.930 . S
H938 C951 0.930 . S
H939 C955 0.959 . S
H940 C955 0.959 . S
H941 C955 0.961 . S
H942 C956 0.960 . S
H943 C956 0.961 . S
H944 C956 0.959 . S
H945 C959 0.929 . S
H946 C960 0.931 . S
H947 C962 0.930 . S
C948 H936 0.930 . S
C948 C949 1.399 . S
C948 C953 1.399 . S
C949 C948 1.399 . S
C949 C950 1.376 . S
C950 H937 0.930 . S
C950 C949 1.376 . S
C950 C951 1.388 . S
C951 H938 0.930 . S
C951 C950 1.388 . S
C951 C952 1.390 . S
C952 C951 1.390 . S
C952 C953 1.394 . S
C952 C958 1.465 . S
C953 C948 1.399 . S
C953 C952 1.394 . S
C953 C954 1.516 . S
C954 C953 1.516 . S
C954 C955 1.502 . S
C954 C956 1.561 . S
C954 C957 1.526 . S
C955 H939 0.959 . S
C955 H940 0.959 . S
C955 H941 0.961 . S
C955 C954 1.502 . S
C956 H942 0.960 . S
C956 H943 0.961 . S
C956 H944 0.959 . S
C956 C954 1.561 . S
C957 C954 1.526 . S
C957 C958 1.396 . S
C957 C962 1.390 . S
C958 C952 1.465 . S
C958 C957 1.396 . S
C958 C959 1.399 . S
C959 H945 0.929 . S
C959 C958 1.399 . S
C959 C960 1.385 . S
C960 H946 0.931 . S
C960 C959 1.385 . S
C960 C961 1.389 . S
C961 C960 1.389 . S
C961 C962 1.387 . S
C962 H947 0.930 . S
C962 C957 1.390 . S
C962 C961 1.387 . S
H963 C975 0.930 . S
H964 C977 0.930 . S
H965 C978 0.930 . S
H966 C982 0.959 . S
H967 C982 0.959 . S
H968 C982 0.961 . S
H969 C983 0.960 . S
H970 C983 0.961 . S
H971 C983 0.959 . S
H972 C986 0.929 . S
H973 C987 0.931 . S
H974 C989 0.930 . S
C975 H963 0.930 . S
C975 C976 1.399 . S
C975 C980 1.399 . S
C976 C975 1.399 . S
C976 C977 1.376 . S
C977 H964 0.930 . S
C977 C976 1.376 . S
C977 C978 1.388 . S
C978 H965 0.930 . S
C978 C977 1.388 . S
C978 C979 1.390 . S
C979 C978 1.390 . S
C979 C980 1.394 . S
C979 C985 1.465 . S
C980 C975 1.399 . S
C980 C979 1.394 . S
C980 C981 1.516 . S
C981 C980 1.516 . S
C981 C982 1.502 . S
C981 C983 1.561 . S
C981 C984 1.526 . S
C982 H966 0.959 . S
C982 H967 0.959 . S
C982 H968 0.961 . S
C982 C981 1.502 . S
C983 H969 0.960 . S
C983 H970 0.961 . S
C983 H971 0.959 . S
C983 C981 1.561 . S
C984 C981 1.526 . S
C984 C985 1.396 . S
C984 C989 1.390 . S
C985 C979 1.465 . S
C985 C984 1.396 . S
C985 C986 1.399 . S
C986 H972 0.929 . S
C986 C985 1.399 . S
C986 C987 1.385 . S
C987 H973 0.931 . S
C987 C986 1.385 . S
C987 C988 1.389 . S
C988 C987 1.389 . S
C988 C989 1.387 . S
C989 H974 0.930 . S
C989 C984 1.390 . S
C989 C988 1.387 . S
H990 C1002 0.930 . S
H991 C1004 0.930 . S
H992 C1005 0.930 . S
H993 C1009 0.959 . S
H994 C1009 0.959 . S
H995 C1009 0.961 . S
H996 C1010 0.960 . S
H997 C1010 0.961 . S
H998 C1010 0.959 . S
H999 C1013 0.929 . S
H1000 C1014 0.931 . S
H1001 C1016 0.930 . S
C1002 H990 0.930 . S
C1002 C1003 1.399 . S
C1002 C1007 1.399 . S
C1003 C1002 1.399 . S
C1003 C1004 1.376 . S
C1004 H991 0.930 . S
C1004 C1003 1.376 . S
C1004 C1005 1.388 . S
C1005 H992 0.930 . S
C1005 C1004 1.388 . S
C1005 C1006 1.390 . S
C1006 C1005 1.390 . S
C1006 C1007 1.394 . S
C1006 C1012 1.465 . S
C1007 C1002 1.399 . S
C1007 C1006 1.394 . S
C1007 C1008 1.516 . S
C1008 C1007 1.516 . S
C1008 C1009 1.502 . S
C1008 C1010 1.561 . S
C1008 C1011 1.526 . S
C1009 H993 0.959 . S
C1009 H994 0.959 . S
C1009 H995 0.961 . S
C1009 C1008 1.502 . S
C1010 H996 0.960 . S
C1010 H997 0.961 . S
C1010 H998 0.959 . S
C1010 C1008 1.561 . S
C1011 C1008 1.526 . S
C1011 C1012 1.396 . S
C1011 C1016 1.390 . S
C1012 C1006 1.465 . S
C1012 C1011 1.396 . S
C1012 C1013 1.399 . S
C1013 H999 0.929 . S
C1013 C1012 1.399 . S
C1013 C1014 1.385 . S
C1014 H1000 0.931 . S
C1014 C1013 1.385 . S
C1014 C1015 1.389 . S
C1015 C1014 1.389 . S
C1015 C1016 1.387 . S
C1016 H1001 0.930 . S
C1016 C1011 1.390 . S
C1016 C1015 1.387 . S
H1017 C1029 0.930 . S
H1018 C1031 0.930 . S
H1019 C1032 0.930 . S
H1020 C1036 0.959 . S
H1021 C1036 0.959 . S
H1022 C1036 0.961 . S
H1023 C1037 0.960 . S
H1024 C1037 0.961 . S
H1025 C1037 0.959 . S
H1026 C1040 0.929 . S
H1027 C1041 0.931 . S
H1028 C1043 0.930 . S
C1029 H1017 0.930 . S
C1029 C1030 1.399 . S
C1029 C1034 1.399 . S
C1030 C1029 1.399 . S
C1030 C1031 1.376 . S
C1031 H1018 0.930 . S
C1031 C1030 1.376 . S
C1031 C1032 1.388 . S
C1032 H1019 0.930 . S
C1032 C1031 1.388 . S
C1032 C1033 1.390 . S
C1033 C1032 1.390 . S
C1033 C1034 1.394 . S
C1033 C1039 1.465 . S
C1034 C1029 1.399 . S
C1034 C1033 1.394 . S
C1034 C1035 1.516 . S
C1035 C1034 1.516 . S
C1035 C1036 1.502 . S
C1035 C1037 1.561 . S
C1035 C1038 1.526 . S
C1036 H1020 0.959 . S
C1036 H1021 0.959 . S
C1036 H1022 0.961 . S
C1036 C1035 1.502 . S
C1037 H1023 0.960 . S
C1037 H1024 0.961 . S
C1037 H1025 0.959 . S
C1037 C1035 1.561 . S
C1038 C1035 1.526 . S
C1038 C1039 1.396 . S
C1038 C1043 1.390 . S
C1039 C1033 1.465 . S
C1039 C1038 1.396 . S
C1039 C1040 1.399 . S
C1040 H1026 0.929 . S
C1040 C1039 1.399 . S
C1040 C1041 1.385 . S
C1041 H1027 0.931 . S
C1041 C1040 1.385 . S
C1041 C1042 1.389 . S
C1042 C1041 1.389 . S
C1042 C1043 1.387 . S
C1043 H1028 0.930 . S
C1043 C1038 1.390 . S
C1043 C1042 1.387 . S
H1044 C1056 0.930 . S
H1045 C1058 0.930 . S
H1046 C1059 0.930 . S
H1047 C1063 0.959 . S
H1048 C1063 0.959 . S
H1049 C1063 0.961 . S
H1050 C1064 0.960 . S
H1051 C1064 0.961 . S
H1052 C1064 0.959 . S
H1053 C1067 0.929 . S
H1054 C1068 0.931 . S
H1055 C1070 0.930 . S
C1056 H1044 0.930 . S
C1056 C1057 1.399 . S
C1056 C1061 1.399 . S
C1057 C1056 1.399 . S
C1057 C1058 1.376 . S
C1058 H1045 0.930 . S
C1058 C1057 1.376 . S
C1058 C1059 1.388 . S
C1059 H1046 0.930 . S
C1059 C1058 1.388 . S
C1059 C1060 1.390 . S
C1060 C1059 1.390 . S
C1060 C1061 1.394 . S
C1060 C1066 1.465 . S
C1061 C1056 1.399 . S
C1061 C1060 1.394 . S
C1061 C1062 1.516 . S
C1062 C1061 1.516 . S
C1062 C1063 1.502 . S
C1062 C1064 1.561 . S
C1062 C1065 1.526 . S
C1063 H1047 0.959 . S
C1063 H1048 0.959 . S
C1063 H1049 0.961 . S
C1063 C1062 1.502 . S
C1064 H1050 0.960 . S
C1064 H1051 0.961 . S
C1064 H1052 0.959 . S
C1064 C1062 1.561 . S
C1065 C1062 1.526 . S
C1065 C1066 1.396 . S
C1065 C1070 1.390 . S
C1066 C1060 1.465 . S
C1066 C1065 1.396 . S
C1066 C1067 1.399 . S
C1067 H1053 0.929 . S
C1067 C1066 1.399 . S
C1067 C1068 1.385 . S
C1068 H1054 0.931 . S
C1068 C1067 1.385 . S
C1068 C1069 1.389 . S
C1069 C1068 1.389 . S
C1069 C1070 1.387 . S
C1070 H1055 0.930 . S
C1070 C1065 1.390 . S
C1070 C1069 1.387 . S
H1071 C1083 0.930 . S
H1072 C1085 0.930 . S
H1073 C1086 0.930 . S
H1074 C1090 0.959 . S
H1075 C1090 0.959 . S
H1076 C1090 0.961 . S
H1077 C1091 0.960 . S
H1078 C1091 0.961 . S
H1079 C1091 0.959 . S
H1080 C1094 0.929 . S
H1081 C1095 0.931 . S
H1082 C1097 0.930 . S
C1083 H1071 0.930 . S
C1083 C1084 1.399 . S
C1083 C1088 1.399 . S
C1084 C1083 1.399 . S
C1084 C1085 1.376 . S
C1085 H1072 0.930 . S
C1085 C1084 1.376 . S
C1085 C1086 1.388 . S
C1086 H1073 0.930 . S
C1086 C1085 1.388 . S
C1086 C1087 1.390 . S
C1087 C1086 1.390 . S
C1087 C1088 1.394 . S
C1087 C1093 1.465 . S
C1088 C1083 1.399 . S
C1088 C1087 1.394 . S
C1088 C1089 1.516 . S
C1089 C1088 1.516 . S
C1089 C1090 1.502 . S
C1089 C1091 1.561 . S
C1089 C1092 1.526 . S
C1090 H1074 0.959 . S
C1090 H1075 0.959 . S
C1090 H1076 0.961 . S
C1090 C1089 1.502 . S
C1091 H1077 0.960 . S
C1091 H1078 0.961 . S
C1091 H1079 0.959 . S
C1091 C1089 1.561 . S
C1092 C1089 1.526 . S
C1092 C1093 1.396 . S
C1092 C1097 1.390 . S
C1093 C1087 1.465 . S
C1093 C1092 1.396 . S
C1093 C1094 1.399 . S
C1094 H1080 0.929 . S
C1094 C1093 1.399 . S
C1094 C1095 1.385 . S
C1095 H1081 0.931 . S
C1095 C1094 1.385 . S
C1095 C1096 1.389 . S
C1096 C1095 1.389 . S
C1096 C1097 1.387 . S
C1097 H1082 0.930 . S
C1097 C1092 1.390 . S
C1097 C1096 1.387 . S
H1098 C1110 0.930 . S
H1099 C1112 0.930 . S
H1100 C1113 0.930 . S
H1101 C1117 0.959 . S
H1102 C1117 0.959 . S
H1103 C1117 0.961 . S
H1104 C1118 0.960 . S
H1105 C1118 0.961 . S
H1106 C1118 0.959 . S
H1107 C1121 0.929 . S
H1108 C1122 0.931 . S
H1109 C1124 0.930 . S
C1110 H1098 0.930 . S
C1110 C1111 1.399 . S
C1110 C1115 1.399 . S
C1111 C1110 1.399 . S
C1111 C1112 1.376 . S
C1112 H1099 0.930 . S
C1112 C1111 1.376 . S
C1112 C1113 1.388 . S
C1113 H1100 0.930 . S
C1113 C1112 1.388 . S
C1113 C1114 1.390 . S
C1114 C1113 1.390 . S
C1114 C1115 1.394 . S
C1114 C1120 1.465 . S
C1115 C1110 1.399 . S
C1115 C1114 1.394 . S
C1115 C1116 1.516 . S
C1116 C1115 1.516 . S
C1116 C1117 1.502 . S
C1116 C1118 1.561 . S
C1116 C1119 1.526 . S
C1117 H1101 0.959 . S
C1117 H1102 0.959 . S
C1117 H1103 0.961 . S
C1117 C1116 1.502 . S
C1118 H1104 0.960 . S
C1118 H1105 0.961 . S
C1118 H1106 0.959 . S
C1118 C1116 1.561 . S
C1119 C1116 1.526 . S
C1119 C1120 1.396 . S
C1119 C1124 1.390 . S
C1120 C1114 1.465 . S
C1120 C1119 1.396 . S
C1120 C1121 1.399 . S
C1121 H1107 0.929 . S
C1121 C1120 1.399 . S
C1121 C1122 1.385 . S
C1122 H1108 0.931 . S
C1122 C1121 1.385 . S
C1122 C1123 1.389 . S
C1123 C1122 1.389 . S
C1123 C1124 1.387 . S
C1124 H1109 0.930 . S
C1124 C1119 1.390 . S
C1124 C1123 1.387 . S
H1125 C1137 0.930 . S
H1126 C1139 0.930 . S
H1127 C1140 0.930 . S
H1128 C1144 0.959 . S
H1129 C1144 0.959 1_545 S
H1130 C1144 0.961 . S
H1131 C1145 0.960 . S
H1132 C1145 0.961 1_545 S
H1133 C1145 0.959 . S
H1134 C1148 0.929 . S
H1135 C1149 0.931 . S
H1136 C1151 0.930 . S
C1137 H1125 0.930 . S
C1137 C1138 1.399 . S
C1137 C1142 1.399 . S
C1138 C1137 1.399 . S
C1138 C1139 1.376 . S
C1139 H1126 0.930 . S
C1139 C1138 1.376 . S
C1139 C1140 1.388 . S
C1140 H1127 0.930 . S
C1140 C1139 1.388 . S
C1140 C1141 1.390 . S
C1141 C1140 1.390 . S
C1141 C1142 1.394 . S
C1141 C1147 1.465 . S
C1142 C1137 1.399 . S
C1142 C1141 1.394 . S
C1142 C1143 1.516 . S
C1143 C1142 1.516 . S
C1143 C1144 1.502 . S
C1143 C1145 1.561 . S
C1143 C1146 1.526 . S
C1144 H1128 0.959 . S
C1144 H1129 0.959 1_565 S
C1144 H1130 0.961 . S
C1144 C1143 1.502 . S
C1145 H1131 0.960 . S
C1145 H1132 0.961 1_565 S
C1145 H1133 0.959 . S
C1145 C1143 1.561 . S
C1146 C1143 1.526 . S
C1146 C1147 1.396 . S
C1146 C1151 1.390 . S
C1147 C1141 1.465 . S
C1147 C1146 1.396 . S
C1147 C1148 1.399 . S
C1148 H1134 0.929 . S
C1148 C1147 1.399 . S
C1148 C1149 1.385 . S
C1149 H1135 0.931 . S
C1149 C1148 1.385 . S
C1149 C1150 1.389 . S
C1150 C1149 1.389 . S
C1150 C1151 1.387 . S
C1151 H1136 0.930 . S
C1151 C1146 1.390 . S
C1151 C1150 1.387 . S
H1152 C1164 0.930 . S
H1153 C1166 0.930 . S
H1154 C1167 0.930 . S
H1155 C1171 0.959 . S
H1156 C1171 0.959 . S
H1157 C1171 0.961 . S
H1158 C1172 0.960 . S
H1159 C1172 0.961 . S
H1160 C1172 0.959 . S
H1161 C1175 0.929 . S
H1162 C1176 0.931 . S
H1163 C1178 0.930 . S
C1164 H1152 0.930 . S
C1164 C1165 1.399 . S
C1164 C1169 1.399 . S
C1165 C1164 1.399 . S
C1165 C1166 1.376 . S
C1166 H1153 0.930 . S
C1166 C1165 1.376 . S
C1166 C1167 1.388 . S
C1167 H1154 0.930 . S
C1167 C1166 1.388 . S
C1167 C1168 1.390 . S
C1168 C1167 1.390 . S
C1168 C1169 1.394 . S
C1168 C1174 1.465 . S
C1169 C1164 1.399 . S
C1169 C1168 1.394 . S
C1169 C1170 1.516 . S
C1170 C1169 1.516 . S
C1170 C1171 1.502 . S
C1170 C1172 1.561 . S
C1170 C1173 1.526 . S
C1171 H1155 0.959 . S
C1171 H1156 0.959 . S
C1171 H1157 0.961 . S
C1171 C1170 1.502 . S
C1172 H1158 0.960 . S
C1172 H1159 0.961 . S
C1172 H1160 0.959 . S
C1172 C1170 1.561 . S
C1173 C1170 1.526 . S
C1173 C1174 1.396 . S
C1173 C1178 1.390 . S
C1174 C1168 1.465 . S
C1174 C1173 1.396 . S
C1174 C1175 1.399 . S
C1175 H1161 0.929 . S
C1175 C1174 1.399 . S
C1175 C1176 1.385 . S
C1176 H1162 0.931 . S
C1176 C1175 1.385 . S
C1176 C1177 1.389 . S
C1177 C1176 1.389 . S
C1177 C1178 1.387 . S
C1178 H1163 0.930 . S
C1178 C1173 1.390 . S
C1178 C1177 1.387 . S
H1179 C1191 0.930 . S
H1180 C1193 0.930 . S
H1181 C1194 0.930 . S
H1182 C1198 0.959 . S
H1183 C1198 0.959 . S
H1184 C1198 0.961 . S
H1185 C1199 0.960 . S
H1186 C1199 0.961 . S
H1187 C1199 0.959 . S
H1188 C1202 0.929 . S
H1189 C1203 0.931 . S
H1190 C1205 0.930 . S
C1191 H1179 0.930 . S
C1191 C1192 1.399 . S
C1191 C1196 1.399 . S
C1192 C1191 1.399 . S
C1192 C1193 1.376 . S
C1193 H1180 0.930 . S
C1193 C1192 1.376 . S
C1193 C1194 1.388 . S
C1194 H1181 0.930 . S
C1194 C1193 1.388 . S
C1194 C1195 1.390 . S
C1195 C1194 1.390 . S
C1195 C1196 1.394 . S
C1195 C1201 1.465 . S
C1196 C1191 1.399 . S
C1196 C1195 1.394 . S
C1196 C1197 1.516 . S
C1197 C1196 1.516 . S
C1197 C1198 1.502 . S
C1197 C1199 1.561 . S
C1197 C1200 1.526 . S
C1198 H1182 0.959 . S
C1198 H1183 0.959 . S
C1198 H1184 0.961 . S
C1198 C1197 1.502 . S
C1199 H1185 0.960 . S
C1199 H1186 0.961 . S
C1199 H1187 0.959 . S
C1199 C1197 1.561 . S
C1200 C1197 1.526 . S
C1200 C1201 1.396 . S
C1200 C1205 1.390 . S
C1201 C1195 1.465 . S
C1201 C1200 1.396 . S
C1201 C1202 1.399 . S
C1202 H1188 0.929 . S
C1202 C1201 1.399 . S
C1202 C1203 1.385 . S
C1203 H1189 0.931 . S
C1203 C1202 1.385 . S
C1203 C1204 1.389 . S
C1204 C1203 1.389 . S
C1204 C1205 1.387 . S
C1205 H1190 0.930 . S
C1205 C1200 1.390 . S
C1205 C1204 1.387 . S
H1206 C1218 0.930 . S
H1207 C1220 0.930 . S
H1208 C1221 0.930 . S
H1209 C1225 0.959 . S
H1210 C1225 0.959 . S
H1211 C1225 0.961 . S
H1212 C1226 0.960 . S
H1213 C1226 0.961 . S
H1214 C1226 0.959 . S
H1215 C1229 0.929 . S
H1216 C1230 0.931 . S
H1217 C1232 0.930 . S
C1218 H1206 0.930 . S
C1218 C1219 1.399 . S
C1218 C1223 1.399 . S
C1219 C1218 1.399 . S
C1219 C1220 1.376 . S
C1220 H1207 0.930 . S
C1220 C1219 1.376 . S
C1220 C1221 1.388 . S
C1221 H1208 0.930 . S
C1221 C1220 1.388 . S
C1221 C1222 1.390 . S
C1222 C1221 1.390 . S
C1222 C1223 1.394 . S
C1222 C1228 1.465 . S
C1223 C1218 1.399 . S
C1223 C1222 1.394 . S
C1223 C1224 1.516 . S
C1224 C1223 1.516 . S
C1224 C1225 1.502 . S
C1224 C1226 1.561 . S
C1224 C1227 1.526 . S
C1225 H1209 0.959 . S
C1225 H1210 0.959 . S
C1225 H1211 0.961 . S
C1225 C1224 1.502 . S
C1226 H1212 0.960 . S
C1226 H1213 0.961 . S
C1226 H1214 0.959 . S
C1226 C1224 1.561 . S
C1227 C1224 1.526 . S
C1227 C1228 1.396 . S
C1227 C1232 1.390 . S
C1228 C1222 1.465 . S
C1228 C1227 1.396 . S
C1228 C1229 1.399 . S
C1229 H1215 0.929 . S
C1229 C1228 1.399 . S
C1229 C1230 1.385 . S
C1230 H1216 0.931 . S
C1230 C1229 1.385 . S
C1230 C1231 1.389 . S
C1231 C1230 1.389 . S
C1231 C1232 1.387 . S
C1232 H1217 0.930 . S
C1232 C1227 1.390 . S
C1232 C1231 1.387 . S
H1233 C1245 0.930 . S
H1234 C1247 0.930 . S
H1235 C1248 0.930 . S
H1236 C1252 0.959 . S
H1237 C1252 0.959 . S
H1238 C1252 0.961 . S
H1239 C1253 0.960 . S
H1240 C1253 0.961 . S
H1241 C1253 0.959 . S
H1242 C1256 0.929 . S
H1243 C1257 0.931 . S
H1244 C1259 0.930 . S
C1245 H1233 0.930 . S
C1245 C1246 1.399 . S
C1245 C1250 1.399 . S
C1246 C1245 1.399 . S
C1246 C1247 1.376 . S
C1247 H1234 0.930 . S
C1247 C1246 1.376 . S
C1247 C1248 1.388 1_545 S
C1248 H1235 0.930 . S
C1248 C1247 1.388 1_565 S
C1248 C1249 1.392 . S
C1249 C1248 1.392 . S
C1249 C1250 1.385 1_565 S
C1249 C1255 1.470 . S
C1250 C1245 1.399 . S
C1250 C1249 1.385 1_545 S
C1250 C1251 1.516 . S
C1251 C1250 1.516 . S
C1251 C1252 1.502 . S
C1251 C1253 1.561 . S
C1251 C1254 1.526 1_545 S
C1252 H1236 0.959 . S
C1252 H1237 0.959 . S
C1252 H1238 0.961 . S
C1252 C1251 1.502 . S
C1253 H1239 0.960 . S
C1253 H1240 0.961 . S
C1253 H1241 0.959 . S
C1253 C1251 1.561 . S
C1254 C1251 1.526 1_565 S
C1254 C1255 1.396 . S
C1254 C1259 1.390 . S
C1255 C1249 1.470 . S
C1255 C1254 1.396 . S
C1255 C1256 1.399 . S
C1256 H1242 0.929 . S
C1256 C1255 1.399 . S
C1256 C1257 1.385 . S
C1257 H1243 0.931 . S
C1257 C1256 1.385 . S
C1257 C1258 1.389 . S
C1258 C1257 1.389 . S
C1258 C1259 1.387 . S
C1259 H1244 0.930 . S
C1259 C1254 1.390 . S
C1259 C1258 1.387 . S
H1260 C1272 0.930 . S
H1261 C1274 0.930 . S
H1262 C1275 0.930 . S
H1263 C1279 0.959 . S
H1264 C1279 0.959 . S
H1265 C1279 0.961 . S
H1266 C1280 0.960 . S
H1267 C1280 0.961 . S
H1268 C1280 0.959 . S
H1269 C1283 0.915 1_455 S
H1270 C1284 0.931 . S
H1271 C1286 0.930 . S
C1272 H1260 0.930 . S
C1272 C1273 1.399 . S
C1272 C1277 1.399 . S
C1273 C1272 1.399 . S
C1273 C1274 1.376 . S
C1274 H1261 0.930 . S
C1274 C1273 1.376 . S
C1274 C1275 1.388 . S
C1275 H1262 0.930 . S
C1275 C1274 1.388 . S
C1275 C1276 1.390 . S
C1276 C1275 1.390 . S
C1276 C1277 1.394 . S
C1276 C1282 1.448 1_455 S
C1277 C1272 1.399 . S
C1277 C1276 1.394 . S
C1277 C1278 1.516 1_455 S
C1278 C1277 1.516 1_655 S
C1278 C1279 1.502 . S
C1278 C1280 1.561 . S
C1278 C1281 1.526 . S
C1279 H1263 0.959 . S
C1279 H1264 0.959 . S
C1279 H1265 0.961 . S
C1279 C1278 1.502 . S
C1280 H1266 0.960 . S
C1280 H1267 0.961 . S
C1280 H1268 0.959 . S
C1280 C1278 1.561 . S
C1281 C1278 1.526 . S
C1281 C1282 1.424 . S
C1281 C1286 1.390 . S
C1282 C1276 1.448 1_655 S
C1282 C1281 1.424 . S
C1282 C1283 1.395 . S
C1283 H1269 0.915 1_655 S
C1283 C1282 1.395 . S
C1283 C1284 1.396 . S
C1284 H1270 0.931 . S
C1284 C1283 1.396 . S
C1284 C1285 1.389 . S
C1285 C1284 1.389 . S
C1285 C1286 1.387 . S
C1286 H1271 0.930 . S
C1286 C1281 1.390 . S
C1286 C1285 1.387 . S
H1287 C1299 0.930 . S
H1288 C1301 0.930 . S
H1289 C1302 0.930 . S
H1290 C1306 0.959 . S
H1291 C1306 0.959 . S
H1292 C1306 0.961 . S
H1293 C1307 0.960 . S
H1294 C1307 0.961 . S
H1295 C1307 0.959 . S
H1296 C1310 0.929 . S
H1297 C1311 0.931 . S
H1298 C1313 0.930 . S
C1299 H1287 0.930 . S
C1299 C1300 1.399 . S
C1299 C1304 1.399 . S
C1300 C1299 1.399 . S
C1300 C1301 1.376 . S
C1301 H1288 0.930 . S
C1301 C1300 1.376 . S
C1301 C1302 1.388 . S
C1302 H1289 0.930 . S
C1302 C1301 1.388 . S
C1302 C1303 1.390 . S
C1303 C1302 1.390 . S
C1303 C1304 1.394 . S
C1303 C1309 1.465 . S
C1304 C1299 1.399 . S
C1304 C1303 1.394 . S
C1304 C1305 1.516 . S
C1305 C1304 1.516 . S
C1305 C1306 1.502 . S
C1305 C1307 1.561 . S
C1305 C1308 1.526 . S
C1306 H1290 0.959 . S
C1306 H1291 0.959 . S
C1306 H1292 0.961 . S
C1306 C1305 1.502 . S
C1307 H1293 0.960 . S
C1307 H1294 0.961 . S
C1307 H1295 0.959 . S
C1307 C1305 1.561 . S
C1308 C1305 1.526 . S
C1308 C1309 1.396 . S
C1308 C1313 1.390 . S
C1309 C1303 1.465 . S
C1309 C1308 1.396 . S
C1309 C1310 1.399 . S
C1310 H1296 0.929 . S
C1310 C1309 1.399 . S
C1310 C1311 1.385 . S
C1311 H1297 0.931 . S
C1311 C1310 1.385 . S
C1311 C1312 1.389 . S
C1312 C1311 1.389 . S
C1312 C1313 1.387 . S
C1313 H1298 0.930 . S
C1313 C1308 1.390 . S
C1313 C1312 1.387 . S
H1314 C1326 0.930 . S
H1315 C1328 0.930 . S
H1316 C1329 0.930 . S
H1317 C1333 0.959 . S
H1318 C1333 0.959 . S
H1319 C1333 0.961 . S
H1320 C1334 0.960 . S
H1321 C1334 0.961 . S
H1322 C1334 0.959 . S
H1323 C1337 0.929 . S
H1324 C1338 0.931 . S
H1325 C1340 0.930 . S
C1326 H1314 0.930 . S
C1326 C1327 1.399 . S
C1326 C1331 1.399 . S
C1327 C1326 1.399 . S
C1327 C1328 1.376 . S
C1328 H1315 0.930 . S
C1328 C1327 1.376 . S
C1328 C1329 1.388 . S
C1329 H1316 0.930 . S
C1329 C1328 1.388 . S
C1329 C1330 1.390 . S
C1330 C1329 1.390 . S
C1330 C1331 1.394 . S
C1330 C1336 1.468 . S
C1331 C1326 1.399 . S
C1331 C1330 1.394 . S
C1331 C1332 1.516 1_545 S
C1332 C1331 1.516 1_565 S
C1332 C1333 1.502 . S
C1332 C1334 1.561 . S
C1332 C1335 1.526 . S
C1333 H1317 0.959 . S
C1333 H1318 0.959 . S
C1333 H1319 0.961 . S
C1333 C1332 1.502 . S
C1334 H1320 0.960 . S
C1334 H1321 0.961 . S
C1334 H1322 0.959 . S
C1334 C1332 1.561 . S
C1335 C1332 1.526 . S
C1335 C1336 1.393 1_565 S
C1335 C1340 1.390 . S
C1336 C1330 1.468 . S
C1336 C1335 1.393 1_545 S
C1336 C1337 1.399 . S
C1337 H1323 0.929 . S
C1337 C1336 1.399 . S
C1337 C1338 1.385 1_545 S
C1338 H1324 0.931 . S
C1338 C1337 1.385 1_565 S
C1338 C1339 1.389 . S
C1339 C1338 1.389 . S
C1339 C1340 1.387 . S
C1340 H1325 0.930 . S
C1340 C1335 1.390 . S
C1340 C1339 1.387 . S
H1341 C1353 0.930 . S
H1342 C1355 0.930 . S
H1343 C1356 0.930 . S
H1344 C1360 0.959 . S
H1345 C1360 0.959 . S
H1346 C1360 0.961 1_455 S
H1347 C1361 0.960 . S
H1348 C1361 0.961 . S
H1349 C1361 0.959 . S
H1350 C1364 0.929 . S
H1351 C1365 0.931 . S
H1352 C1367 0.930 . S
C1353 H1341 0.930 . S
C1353 C1354 1.399 . S
C1353 C1358 1.399 . S
C1354 C1353 1.399 . S
C1354 C1355 1.376 . S
C1355 H1342 0.930 . S
C1355 C1354 1.376 . S
C1355 C1356 1.388 . S
C1356 H1343 0.930 . S
C1356 C1355 1.388 . S
C1356 C1357 1.390 . S
C1357 C1356 1.390 . S
C1357 C1358 1.394 . S
C1357 C1363 1.465 1_455 S
C1358 C1353 1.399 . S
C1358 C1357 1.394 . S
C1358 C1359 1.516 . S
C1359 C1358 1.516 . S
C1359 C1360 1.502 1_455 S
C1359 C1361 1.561 . S
C1359 C1362 1.526 1_455 S
C1360 H1344 0.959 . S
C1360 H1345 0.959 . S
C1360 H1346 0.961 1_655 S
C1360 C1359 1.502 1_655 S
C1361 H1347 0.960 . S
C1361 H1348 0.961 . S
C1361 H1349 0.959 . S
C1361 C1359 1.561 . S
C1362 C1359 1.526 1_655 S
C1362 C1363 1.396 . S
C1362 C1367 1.390 . S
C1363 C1357 1.465 1_655 S
C1363 C1362 1.396 . S
C1363 C1364 1.399 . S
C1364 H1350 0.929 . S
C1364 C1363 1.399 . S
C1364 C1365 1.385 . S
C1365 H1351 0.931 . S
C1365 C1364 1.385 . S
C1365 C1366 1.389 . S
C1366 C1365 1.389 . S
C1366 C1367 1.387 . S
C1367 H1352 0.930 . S
C1367 C1362 1.390 . S
C1367 C1366 1.387 . S
H1368 C1380 0.930 . S
H1369 C1382 0.930 . S
H1370 C1383 0.962 . S
H1371 C1387 0.959 . S
H1372 C1387 0.959 . S
H1373 C1387 0.961 . S
H1374 C1388 0.960 . S
H1375 C1388 0.961 . S
H1376 C1388 0.959 . S
H1377 C1391 0.929 . S
H1378 C1392 0.931 . S
H1379 C1394 0.930 . S
C1380 H1368 0.930 . S
C1380 C1381 1.399 . S
C1380 C1385 1.399 . S
C1381 C1380 1.399 . S
C1381 C1382 1.376 . S
C1382 H1369 0.930 . S
C1382 C1381 1.376 . S
C1382 C1383 1.361 1_554 S
C1383 H1370 0.962 . S
C1383 C1382 1.361 1_556 S
C1383 C1384 1.386 1_556 S
C1384 C1383 1.386 1_554 S
C1384 C1385 1.394 . S
C1384 C1390 1.465 1_554 S
C1385 C1380 1.399 . S
C1385 C1384 1.394 . S
C1385 C1386 1.516 . S
C1386 C1385 1.516 . S
C1386 C1387 1.502 . S
C1386 C1388 1.561 . S
C1386 C1389 1.526 1_554 S
C1387 H1371 0.959 . S
C1387 H1372 0.959 . S
C1387 H1373 0.961 . S
C1387 C1386 1.502 . S
C1388 H1374 0.960 . S
C1388 H1375 0.961 . S
C1388 H1376 0.959 . S
C1388 C1386 1.561 . S
C1389 C1386 1.526 1_556 S
C1389 C1390 1.396 . S
C1389 C1394 1.390 . S
C1390 C1384 1.465 1_556 S
C1390 C1389 1.396 . S
C1390 C1391 1.399 . S
C1391 H1377 0.929 . S
C1391 C1390 1.399 . S
C1391 C1392 1.385 . S
C1392 H1378 0.931 . S
C1392 C1391 1.385 . S
C1392 C1393 1.389 . S
C1393 C1392 1.389 . S
C1393 C1394 1.387 . S
C1394 H1379 0.930 . S
C1394 C1389 1.390 . S
C1394 C1393 1.387 . S
H1395 C1407 0.930 . S
H1396 C1409 0.930 . S
H1397 C1410 0.930 . S
H1398 C1414 0.959 . S
H1399 C1414 0.959 . S
H1400 C1414 0.961 . S
H1401 C1415 0.960 . S
H1402 C1415 0.961 . S
H1403 C1415 0.959 . S
H1404 C1418 0.929 1_545 S
H1405 C1419 0.931 . S
H1406 C1421 0.930 . S
C1407 H1395 0.930 . S
C1407 C1408 1.399 . S
C1407 C1412 1.399 . S
C1408 C1407 1.399 . S
C1408 C1409 1.376 . S
C1409 H1396 0.930 . S
C1409 C1408 1.376 . S
C1409 C1410 1.388 1_556 S
C1410 H1397 0.930 . S
C1410 C1409 1.388 1_554 S
C1410 C1411 1.390 . S
C1411 C1410 1.390 . S
C1411 C1412 1.394 1_554 S
C1411 C1417 1.465 1_545 S
C1412 C1407 1.399 . S
C1412 C1411 1.394 1_556 S
C1412 C1413 1.516 1_545 S
C1413 C1412 1.516 1_565 S
C1413 C1414 1.502 . S
C1413 C1415 1.561 . S
C1413 C1416 1.526 1_556 S
C1414 H1398 0.959 . S
C1414 H1399 0.959 . S
C1414 H1400 0.961 . S
C1414 C1413 1.502 . S
C1415 H1401 0.960 . S
C1415 H1402 0.961 . S
C1415 H1403 0.959 . S
C1415 C1413 1.561 . S
C1416 C1413 1.526 1_554 S
C1416 C1417 1.396 . S
C1416 C1421 1.390 . S
C1417 C1411 1.465 1_565 S
C1417 C1416 1.396 . S
C1417 C1418 1.399 . S
C1418 H1404 0.929 1_565 S
C1418 C1417 1.399 . S
C1418 C1419 1.385 . S
C1419 H1405 0.931 . S
C1419 C1418 1.385 . S
C1419 C1420 1.389 . S
C1420 C1419 1.389 . S
C1420 C1421 1.387 . S
C1421 H1406 0.930 . S
C1421 C1416 1.390 . S
C1421 C1420 1.387 . S
H1422 C1434 0.930 . S
H1423 C1436 0.930 . S
H1424 C1437 0.930 1_554 S
H1425 C1441 0.969 1_554 S
H1426 C1441 0.959 . S
H1427 C1441 0.961 1_655 S
H1428 C1442 0.960 . S
H1429 C1442 0.961 . S
H1430 C1442 0.959 . S
H1431 C1445 0.929 . S
H1432 C1446 0.931 . S
H1433 C1448 0.930 . S
C1434 H1422 0.930 . S
C1434 C1435 1.399 . S
C1434 C1439 1.399 . S
C1435 C1434 1.399 . S
C1435 C1436 1.376 . S
C1436 H1423 0.930 . S
C1436 C1435 1.376 . S
C1436 C1437 1.388 . S
C1437 H1424 0.930 1_556 S
C1437 C1436 1.388 . S
C1437 C1438 1.390 . S
C1438 C1437 1.390 . S
C1438 C1439 1.394 . S
C1438 C1444 1.465 1_656 S
C1439 C1434 1.399 . S
C1439 C1438 1.394 . S
C1439 C1440 1.516 1_655 S
C1440 C1439 1.516 1_455 S
C1440 C1441 1.502 . S
C1440 C1442 1.561 . S
C1440 C1443 1.526 1_556 S
C1441 H1425 0.969 1_556 S
C1441 H1426 0.959 . S
C1441 H1427 0.961 1_455 S
C1441 C1440 1.502 . S
C1442 H1428 0.960 . S
C1442 H1429 0.961 . S
C1442 H1430 0.959 . S
C1442 C1440 1.561 . S
C1443 C1440 1.526 1_554 S
C1443 C1444 1.396 . S
C1443 C1448 1.390 . S
C1444 C1438 1.465 1_454 S
C1444 C1443 1.396 . S
C1444 C1445 1.399 . S
C1445 H1431 0.929 . S
C1445 C1444 1.399 . S
C1445 C1446 1.385 . S
C1446 H1432 0.931 . S
C1446 C1445 1.385 . S
C1446 C1447 1.389 . S
C1447 C1446 1.389 . S
C1447 C1448 1.387 . S
C1448 H1433 0.930 . S
C1448 C1443 1.390 . S
C1448 C1447 1.387 . S
H1449 C1461 0.930 . S
H1450 C1463 0.930 . S
H1451 C1464 0.930 . S
H1452 C1468 0.959 . S
H1453 C1468 0.959 . S
H1454 C1468 0.961 . S
H1455 C1469 0.960 . S
H1456 C1469 0.961 . S
H1457 C1469 0.959 . S
H1458 C1472 0.929 . S
H1459 C1473 0.931 . S
H1460 C1475 0.919 1_554 S
C1461 H1449 0.930 . S
C1461 C1462 1.399 . S
C1461 C1466 1.399 . S
C1462 C1461 1.399 . S
C1462 C1463 1.376 . S
C1463 H1450 0.930 . S
C1463 C1462 1.376 . S
C1463 C1464 1.388 1_554 S
C1464 H1451 0.930 . S
C1464 C1463 1.388 1_556 S
C1464 C1465 1.390 . S
C1465 C1464 1.390 . S
C1465 C1466 1.394 1_556 S
C1465 C1471 1.465 . S
C1466 C1461 1.399 . S
C1466 C1465 1.394 1_554 S
C1466 C1467 1.516 . S
C1467 C1466 1.516 . S
C1467 C1468 1.502 . S
C1467 C1469 1.561 . S
C1467 C1470 1.526 1_554 S
C1468 H1452 0.959 . S
C1468 H1453 0.959 . S
C1468 H1454 0.961 . S
C1468 C1467 1.502 . S
C1469 H1455 0.960 . S
C1469 H1456 0.961 . S
C1469 H1457 0.959 . S
C1469 C1467 1.561 . S
C1470 C1467 1.526 1_556 S
C1470 C1471 1.396 . S
C1470 C1475 1.390 . S
C1471 C1465 1.465 . S
C1471 C1470 1.396 . S
C1471 C1472 1.399 . S
C1472 H1458 0.929 . S
C1472 C1471 1.399 . S
C1472 C1473 1.385 . S
C1473 H1459 0.931 . S
C1473 C1472 1.385 . S
C1473 C1474 1.389 . S
C1474 C1473 1.389 . S
C1474 C1475 1.387 . S
C1475 H1460 0.919 1_556 S
C1475 C1470 1.390 . S
C1475 C1474 1.387 . S
H1476 C1488 0.906 1_556 S
H1477 C1490 0.930 . S
H1478 C1491 0.930 1_545 S
H1479 C1495 0.959 . S
H1480 C1495 0.959 . S
H1481 C1495 0.961 . S
H1482 C1496 0.960 . S
H1483 C1496 0.961 . S
H1484 C1496 0.959 . S
H1485 C1499 0.929 . S
H1486 C1500 0.931 . S
H1487 C1502 0.930 . S
C1488 H1476 0.906 1_554 S
C1488 C1489 1.399 . S
C1488 C1493 1.415 . S
C1489 C1488 1.399 . S
C1489 C1490 1.376 . S
C1490 H1477 0.930 . S
C1490 C1489 1.376 . S
C1490 C1491 1.388 . S
C1491 H1478 0.930 1_565 S
C1491 C1490 1.388 . S
C1491 C1492 1.390 . S
C1492 C1491 1.390 . S
C1492 C1493 1.423 . S
C1492 C1498 1.465 1_565 S
C1493 C1488 1.415 . S
C1493 C1492 1.423 . S
C1493 C1494 1.473 1_554 S
C1494 C1493 1.473 1_556 S
C1494 C1495 1.502 . S
C1494 C1496 1.561 . S
C1494 C1497 1.526 1_565 S
C1495 H1479 0.959 . S
C1495 H1480 0.959 . S
C1495 H1481 0.961 . S
C1495 C1494 1.502 . S
C1496 H1482 0.960 . S
C1496 H1483 0.961 . S
C1496 H1484 0.959 . S
C1496 C1494 1.561 . S
C1497 C1494 1.526 1_545 S
C1497 C1498 1.396 1_556 S
C1497 C1502 1.390 . S
C1498 C1492 1.465 1_545 S
C1498 C1497 1.396 1_554 S
C1498 C1499 1.399 . S
C1499 H1485 0.929 . S
C1499 C1498 1.399 . S
C1499 C1500 1.385 1_554 S
C1500 H1486 0.931 . S
C1500 C1499 1.385 1_556 S
C1500 C1501 1.389 . S
C1501 C1500 1.389 . S
C1501 C1502 1.387 . S
C1502 H1487 0.930 . S
C1502 C1497 1.390 . S
C1502 C1501 1.387 . S
H1503 C1515 0.930 . S
H1504 C1517 0.930 . S
H1505 C1518 0.930 . S
H1506 C1522 0.959 . S
H1507 C1522 0.959 . S
H1508 C1522 0.961 . S
H1509 C1523 0.960 . S
H1510 C1523 0.961 1_455 S
H1511 C1523 0.959 1_456 S
H1512 C1526 0.929 . S
H1513 C1527 0.931 . S
H1514 C1529 0.930 . S
C1515 H1503 0.930 . S
C1515 C1516 1.399 . S
C1515 C1520 1.399 . S
C1516 C1515 1.399 . S
C1516 C1517 1.376 . S
C1517 H1504 0.930 . S
C1517 C1516 1.376 . S
C1517 C1518 1.388 . S
C1518 H1505 0.930 . S
C1518 C1517 1.388 . S
C1518 C1519 1.390 . S
C1519 C1518 1.390 . S
C1519 C1520 1.394 . S
C1519 C1525 1.465 1_655 S
C1520 C1515 1.399 . S
C1520 C1519 1.394 . S
C1520 C1521 1.516 1_556 S
C1521 C1520 1.516 1_554 S
C1521 C1522 1.502 . S
C1521 C1523 1.561 . S
C1521 C1524 1.526 1_655 S
C1522 H1506 0.959 . S
C1522 H1507 0.959 . S
C1522 H1508 0.961 . S
C1522 C1521 1.502 . S
C1523 H1509 0.960 . S
C1523 H1510 0.961 1_655 S
C1523 H1511 0.959 1_654 S
C1523 C1521 1.561 . S
C1524 C1521 1.526 1_455 S
C1524 C1525 1.396 1_554 S
C1524 C1529 1.390 . S
C1525 C1519 1.465 1_455 S
C1525 C1524 1.396 1_556 S
C1525 C1526 1.399 . S
C1526 H1512 0.929 . S
C1526 C1525 1.399 . S
C1526 C1527 1.385 1_556 S
C1527 H1513 0.931 . S
C1527 C1526 1.385 1_554 S
C1527 C1528 1.389 . S
C1528 C1527 1.389 . S
C1528 C1529 1.387 . S
C1529 H1514 0.930 . S
C1529 C1524 1.390 . S
C1529 C1528 1.387 . S
H1530 C1542 0.930 . S
H1531 C1544 0.930 . S
H1532 C1545 0.930 . S
H1533 C1549 0.959 1_455 S
H1534 C1549 0.971 . S
H1535 C1549 0.961 . S
H1536 C1550 0.960 . S
H1537 C1550 0.961 . S
H1538 C1550 0.959 . S
H1539 C1553 0.929 . S
H1540 C1554 0.931 . S
H1541 C1556 0.930 . S
C1542 H1530 0.930 . S
C1542 C1543 1.399 . S
C1542 C1547 1.399 . S
C1543 C1542 1.399 . S
C1543 C1544 1.376 . S
C1544 H1531 0.930 . S
C1544 C1543 1.376 . S
C1544 C1545 1.388 . S
C1545 H1532 0.930 . S
C1545 C1544 1.388 . S
C1545 C1546 1.390 . S
C1546 C1545 1.390 . S
C1546 C1547 1.394 . S
C1546 C1552 1.465 . S
C1547 C1542 1.399 . S
C1547 C1546 1.394 . S
C1547 C1548 1.516 . S
C1548 C1547 1.516 . S
C1548 C1549 1.502 . S
C1548 C1550 1.561 . S
C1548 C1551 1.526 . S
C1549 H1533 0.959 1_655 S
C1549 H1534 0.971 . S
C1549 H1535 0.961 . S
C1549 C1548 1.502 . S
C1550 H1536 0.960 . S
C1550 H1537 0.961 . S
C1550 H1538 0.959 . S
C1550 C1548 1.561 . S
C1551 C1548 1.526 . S
C1551 C1552 1.396 . S
C1551 C1556 1.390 . S
C1552 C1546 1.465 . S
C1552 C1551 1.396 . S
C1552 C1553 1.399 . S
C1553 H1539 0.929 . S
C1553 C1552 1.399 . S
C1553 C1554 1.385 . S
C1554 H1540 0.931 . S
C1554 C1553 1.385 . S
C1554 C1555 1.389 . S
C1555 C1554 1.389 . S
C1555 C1556 1.387 . S
C1556 H1541 0.930 . S
C1556 C1551 1.390 . S
C1556 C1555 1.387 . S
H1557 C1569 0.930 . S
H1558 C1571 0.930 . S
H1559 C1572 0.930 . S
H1560 C1576 0.959 . S
H1561 C1576 0.959 . S
H1562 C1576 0.961 . S
H1563 C1577 0.960 . S
H1564 C1577 0.961 . S
H1565 C1577 0.959 . S
H1566 C1580 0.929 . S
H1567 C1581 0.931 . S
H1568 C1583 0.930 . S
C1569 H1557 0.930 . S
C1569 C1570 1.399 . S
C1569 C1574 1.399 . S
C1570 C1569 1.399 . S
C1570 C1571 1.376 . S
C1571 H1558 0.930 . S
C1571 C1570 1.376 . S
C1571 C1572 1.388 . S
C1572 H1559 0.930 . S
C1572 C1571 1.388 . S
C1572 C1573 1.390 . S
C1573 C1572 1.390 . S
C1573 C1574 1.394 . S
C1573 C1579 1.465 . S
C1574 C1569 1.399 . S
C1574 C1573 1.394 . S
C1574 C1575 1.516 . S
C1575 C1574 1.516 . S
C1575 C1576 1.502 . S
C1575 C1577 1.561 . S
C1575 C1578 1.526 . S
C1576 H1560 0.959 . S
C1576 H1561 0.959 . S
C1576 H1562 0.961 . S
C1576 C1575 1.502 . S
C1577 H1563 0.960 . S
C1577 H1564 0.961 . S
C1577 H1565 0.959 . S
C1577 C1575 1.561 . S
C1578 C1575 1.526 . S
C1578 C1579 1.396 . S
C1578 C1583 1.390 . S
C1579 C1573 1.465 . S
C1579 C1578 1.396 . S
C1579 C1580 1.399 . S
C1580 H1566 0.929 . S
C1580 C1579 1.399 . S
C1580 C1581 1.385 . S
C1581 H1567 0.931 . S
C1581 C1580 1.385 . S
C1581 C1582 1.389 . S
C1582 C1581 1.389 . S
C1582 C1583 1.387 . S
C1583 H1568 0.930 . S
C1583 C1578 1.390 . S
C1583 C1582 1.387 . S
H1584 C1596 0.930 . S
H1585 C1598 0.930 . S
H1586 C1599 0.930 . S
H1587 C1603 0.959 . S
H1588 C1603 0.959 . S
H1589 C1603 0.961 . S
H1590 C1604 0.960 . S
H1591 C1604 0.961 . S
H1592 C1604 0.959 . S
H1593 C1607 0.952 . S
H1594 C1608 0.931 . S
H1595 C1610 0.930 . S
C1596 H1584 0.930 . S
C1596 C1597 1.399 . S
C1596 C1601 1.399 . S
C1597 C1596 1.399 . S
C1597 C1598 1.376 1_545 S
C1598 H1585 0.930 . S
C1598 C1597 1.376 1_565 S
C1598 C1599 1.388 . S
C1599 H1586 0.930 . S
C1599 C1598 1.388 . S
C1599 C1600 1.390 1_565 S
C1600 C1599 1.390 1_545 S
C1600 C1601 1.394 . S
C1600 C1606 1.465 . S
C1601 C1596 1.399 . S
C1601 C1600 1.394 . S
C1601 C1602 1.516 . S
C1602 C1601 1.516 . S
C1602 C1603 1.502 . S
C1602 C1604 1.561 . S
C1602 C1605 1.526 . S
C1603 H1587 0.959 . S
C1603 H1588 0.959 . S
C1603 H1589 0.961 . S
C1603 C1602 1.502 . S
C1604 H1590 0.960 . S
C1604 H1591 0.961 . S
C1604 H1592 0.959 . S
C1604 C1602 1.561 . S
C1605 C1602 1.526 . S
C1605 C1606 1.396 . S
C1605 C1610 1.390 . S
C1606 C1600 1.465 . S
C1606 C1605 1.396 . S
C1606 C1607 1.399 . S
C1607 H1593 0.952 . S
C1607 C1606 1.399 . S
C1607 C1608 1.385 . S
C1608 H1594 0.931 . S
C1608 C1607 1.385 . S
C1608 C1609 1.389 . S
C1609 C1608 1.389 . S
C1609 C1610 1.387 . S
C1610 H1595 0.930 . S
C1610 C1605 1.390 . S
C1610 C1609 1.387 . S
H1611 C1623 0.930 . S
H1612 C1625 0.930 . S
H1613 C1626 0.930 . S
H1614 C1630 0.959 . S
H1615 C1630 0.959 1_565 S
H1616 C1630 0.961 . S
H1617 C1631 0.960 . S
H1618 C1631 0.961 . S
H1619 C1631 0.959 . S
H1620 C1634 0.929 . S
H1621 C1635 0.931 . S
H1622 C1637 0.930 1_565 S
C1623 H1611 0.930 . S
C1623 C1624 1.399 . S
C1623 C1628 1.399 . S
C1624 C1623 1.399 . S
C1624 C1625 1.376 . S
C1625 H1612 0.930 . S
C1625 C1624 1.376 . S
C1625 C1626 1.388 . S
C1626 H1613 0.930 . S
C1626 C1625 1.388 . S
C1626 C1627 1.390 . S
C1627 C1626 1.390 . S
C1627 C1628 1.394 . S
C1627 C1633 1.465 . S
C1628 C1623 1.399 . S
C1628 C1627 1.394 . S
C1628 C1629 1.516 . S
C1629 C1628 1.516 . S
C1629 C1630 1.502 . S
C1629 C1631 1.561 1_545 S
C1629 C1632 1.526 . S
C1630 H1614 0.959 . S
C1630 H1615 0.959 1_545 S
C1630 H1616 0.961 . S
C1630 C1629 1.502 . S
C1631 H1617 0.960 . S
C1631 H1618 0.961 . S
C1631 H1619 0.959 . S
C1631 C1629 1.561 1_565 S
C1632 C1629 1.526 . S
C1632 C1633 1.396 . S
C1632 C1637 1.390 . S
C1633 C1627 1.465 . S
C1633 C1632 1.396 . S
C1633 C1634 1.399 . S
C1634 H1620 0.929 . S
C1634 C1633 1.399 . S
C1634 C1635 1.385 . S
C1635 H1621 0.931 . S
C1635 C1634 1.385 . S
C1635 C1636 1.389 . S
C1636 C1635 1.389 . S
C1636 C1637 1.387 . S
C1637 H1622 0.930 1_545 S
C1637 C1632 1.390 . S
C1637 C1636 1.387 . S
H1638 C1650 0.930 . S
H1639 C1652 0.930 . S
H1640 C1653 0.930 . S
H1641 C1657 0.959 . S
H1642 C1657 0.959 . S
H1643 C1657 0.961 . S
H1644 C1658 0.960 . S
H1645 C1658 0.961 . S
H1646 C1658 0.959 . S
H1647 C1661 0.943 . S
H1648 C1662 0.931 . S
H1649 C1664 0.930 . S
C1650 H1638 0.930 . S
C1650 C1651 1.399 . S
C1650 C1655 1.399 . S
C1651 C1650 1.399 . S
C1651 C1652 1.376 1_655 S
C1652 H1639 0.930 . S
C1652 C1651 1.376 1_455 S
C1652 C1653 1.388 . S
C1653 H1640 0.930 . S
C1653 C1652 1.388 . S
C1653 C1654 1.390 1_455 S
C1654 C1653 1.390 1_655 S
C1654 C1655 1.394 . S
C1654 C1660 1.465 . S
C1655 C1650 1.399 . S
C1655 C1654 1.394 . S
C1655 C1656 1.516 . S
C1656 C1655 1.516 . S
C1656 C1657 1.502 . S
C1656 C1658 1.561 . S
C1656 C1659 1.526 . S
C1657 H1641 0.959 . S
C1657 H1642 0.959 . S
C1657 H1643 0.961 . S
C1657 C1656 1.502 . S
C1658 H1644 0.960 . S
C1658 H1645 0.961 . S
C1658 H1646 0.959 . S
C1658 C1656 1.561 . S
C1659 C1656 1.526 . S
C1659 C1660 1.396 . S
C1659 C1664 1.390 . S
C1660 C1654 1.465 . S
C1660 C1659 1.396 . S
C1660 C1661 1.399 . S
C1661 H1647 0.943 . S
C1661 C1660 1.399 . S
C1661 C1662 1.385 . S
C1662 H1648 0.931 . S
C1662 C1661 1.385 . S
C1662 C1663 1.389 . S
C1663 C1662 1.389 . S
C1663 C1664 1.387 . S
C1664 H1649 0.930 . S
C1664 C1659 1.390 . S
C1664 C1663 1.387 . S
H1665 C1677 0.930 . S
H1666 C1679 0.930 . S
H1667 C1680 0.930 . S
H1668 C1684 0.959 . S
H1669 C1684 0.959 . S
H1670 C1684 0.961 . S
H1671 C1685 0.960 . S
H1672 C1685 0.961 . S
H1673 C1685 0.959 . S
H1674 C1688 0.929 . S
H1675 C1689 0.931 . S
H1676 C1691 0.930 . S
C1677 H1665 0.930 . S
C1677 C1678 1.399 . S
C1677 C1682 1.399 . S
C1678 C1677 1.399 . S
C1678 C1679 1.376 . S
C1679 H1666 0.930 . S
C1679 C1678 1.376 . S
C1679 C1680 1.388 . S
C1680 H1667 0.930 . S
C1680 C1679 1.388 . S
C1680 C1681 1.390 . S
C1681 C1680 1.390 . S
C1681 C1682 1.394 . S
C1681 C1687 1.465 . S
C1682 C1677 1.399 . S
C1682 C1681 1.394 . S
C1682 C1683 1.516 . S
C1683 C1682 1.516 . S
C1683 C1684 1.502 . S
C1683 C1685 1.561 . S
C1683 C1686 1.526 . S
C1684 H1668 0.959 . S
C1684 H1669 0.959 . S
C1684 H1670 0.961 . S
C1684 C1683 1.502 . S
C1685 H1671 0.960 . S
C1685 H1672 0.961 . S
C1685 H1673 0.959 . S
C1685 C1683 1.561 . S
C1686 C1683 1.526 . S
C1686 C1687 1.396 . S
C1686 C1691 1.390 . S
C1687 C1681 1.465 . S
C1687 C1686 1.396 . S
C1687 C1688 1.399 . S
C1688 H1674 0.929 . S
C1688 C1687 1.399 . S
C1688 C1689 1.385 . S
C1689 H1675 0.931 . S
C1689 C1688 1.385 . S
C1689 C1690 1.389 . S
C1690 C1689 1.389 . S
C1690 C1691 1.387 . S
C1691 H1676 0.930 . S
C1691 C1686 1.390 . S
C1691 C1690 1.387 . S
H1692 C1704 0.930 . S
H1693 C1706 0.930 . S
H1694 C1707 0.930 . S
H1695 C1711 0.959 . S
H1696 C1711 0.959 . S
H1697 C1711 0.961 . S
H1698 C1712 0.960 . S
H1699 C1712 0.961 . S
H1700 C1712 0.959 . S
H1701 C1715 0.929 . S
H1702 C1716 0.931 . S
H1703 C1718 0.930 . S
C1704 H1692 0.930 . S
C1704 C1705 1.399 . S
C1704 C1709 1.399 . S
C1705 C1704 1.399 . S
C1705 C1706 1.376 . S
C1706 H1693 0.930 . S
C1706 C1705 1.376 . S
C1706 C1707 1.388 . S
C1707 H1694 0.930 . S
C1707 C1706 1.388 . S
C1707 C1708 1.390 . S
C1708 C1707 1.390 . S
C1708 C1709 1.394 . S
C1708 C1714 1.465 . S
C1709 C1704 1.399 . S
C1709 C1708 1.394 . S
C1709 C1710 1.516 . S
C1710 C1709 1.516 . S
C1710 C1711 1.502 . S
C1710 C1712 1.561 . S
C1710 C1713 1.526 . S
C1711 H1695 0.959 . S
C1711 H1696 0.959 . S
C1711 H1697 0.961 . S
C1711 C1710 1.502 . S
C1712 H1698 0.960 . S
C1712 H1699 0.961 . S
C1712 H1700 0.959 . S
C1712 C1710 1.561 . S
C1713 C1710 1.526 . S
C1713 C1714 1.396 . S
C1713 C1718 1.390 . S
C1714 C1708 1.465 . S
C1714 C1713 1.396 . S
C1714 C1715 1.399 1_565 S
C1715 H1701 0.929 . S
C1715 C1714 1.399 1_545 S
C1715 C1716 1.385 . S
C1716 H1702 0.931 . S
C1716 C1715 1.385 . S
C1716 C1717 1.389 1_545 S
C1717 C1716 1.389 1_565 S
C1717 C1718 1.387 . S
C1718 H1703 0.930 . S
C1718 C1713 1.390 . S
C1718 C1717 1.387 . S
H1719 C1731 0.930 . S
H1720 C1733 0.930 . S
H1721 C1734 0.930 . S
H1722 C1738 0.959 . S
H1723 C1738 0.959 . S
H1724 C1738 0.961 . S
H1725 C1739 0.960 . S
H1726 C1739 0.961 . S
H1727 C1739 0.959 . S
H1728 C1742 0.929 . S
H1729 C1743 0.931 . S
H1730 C1745 0.930 1_655 S
C1731 H1719 0.930 . S
C1731 C1732 1.399 . S
C1731 C1736 1.399 . S
C1732 C1731 1.399 . S
C1732 C1733 1.376 . S
C1733 H1720 0.930 . S
C1733 C1732 1.376 . S
C1733 C1734 1.388 . S
C1734 H1721 0.930 . S
C1734 C1733 1.388 . S
C1734 C1735 1.390 . S
C1735 C1734 1.390 . S
C1735 C1736 1.394 . S
C1735 C1741 1.465 . S
C1736 C1731 1.399 . S
C1736 C1735 1.394 . S
C1736 C1737 1.516 . S
C1737 C1736 1.516 . S
C1737 C1738 1.502 1_455 S
C1737 C1739 1.561 . S
C1737 C1740 1.526 . S
C1738 H1722 0.959 . S
C1738 H1723 0.959 . S
C1738 H1724 0.961 . S
C1738 C1737 1.502 1_655 S
C1739 H1725 0.960 . S
C1739 H1726 0.961 . S
C1739 H1727 0.959 . S
C1739 C1737 1.561 . S
C1740 C1737 1.526 . S
C1740 C1741 1.396 . S
C1740 C1745 1.390 . S
C1741 C1735 1.465 . S
C1741 C1740 1.396 . S
C1741 C1742 1.399 . S
C1742 H1728 0.929 . S
C1742 C1741 1.399 . S
C1742 C1743 1.385 . S
C1743 H1729 0.931 . S
C1743 C1742 1.385 . S
C1743 C1744 1.389 . S
C1744 C1743 1.389 . S
C1744 C1745 1.387 . S
C1745 H1730 0.930 1_455 S
C1745 C1740 1.390 . S
C1745 C1744 1.387 . S
H1746 C1758 0.930 . S
H1747 C1760 0.930 . S
H1748 C1761 0.930 . S
H1749 C1765 0.959 . S
H1750 C1765 0.959 . S
H1751 C1765 0.961 . S
H1752 C1766 0.960 . S
H1753 C1766 0.961 . S
H1754 C1766 0.959 . S
H1755 C1769 0.929 . S
H1756 C1770 0.931 . S
H1757 C1772 0.930 . S
C1758 H1746 0.930 . S
C1758 C1759 1.399 . S
C1758 C1763 1.399 . S
C1759 C1758 1.399 . S
C1759 C1760 1.376 . S
C1760 H1747 0.930 . S
C1760 C1759 1.376 . S
C1760 C1761 1.388 . S
C1761 H1748 0.930 . S
C1761 C1760 1.388 . S
C1761 C1762 1.390 . S
C1762 C1761 1.390 . S
C1762 C1763 1.394 . S
C1762 C1768 1.465 . S
C1763 C1758 1.399 . S
C1763 C1762 1.394 . S
C1763 C1764 1.516 . S
C1764 C1763 1.516 . S
C1764 C1765 1.502 . S
C1764 C1766 1.561 . S
C1764 C1767 1.526 . S
C1765 H1749 0.959 . S
C1765 H1750 0.959 . S
C1765 H1751 0.961 . S
C1765 C1764 1.502 . S
C1766 H1752 0.960 . S
C1766 H1753 0.961 . S
C1766 H1754 0.959 . S
C1766 C1764 1.561 . S
C1767 C1764 1.526 . S
C1767 C1768 1.396 . S
C1767 C1772 1.390 . S
C1768 C1762 1.465 . S
C1768 C1767 1.396 . S
C1768 C1769 1.399 . S
C1769 H1755 0.929 . S
C1769 C1768 1.399 . S
C1769 C1770 1.385 . S
C1770 H1756 0.931 . S
C1770 C1769 1.385 . S
C1770 C1771 1.389 . S
C1771 C1770 1.389 . S
C1771 C1772 1.387 . S
C1772 H1757 0.930 . S
C1772 C1767 1.390 . S
C1772 C1771 1.387 . S
H1773 C1785 0.930 . S
H1774 C1787 0.931 1_655 S
H1775 C1788 0.930 . S
H1776 C1792 0.959 . S
H1777 C1792 0.959 . S
H1778 C1792 0.961 . S
H1779 C1793 0.960 . S
H1780 C1793 0.961 . S
H1781 C1793 0.959 . S
H1782 C1796 0.929 . S
H1783 C1797 0.931 . S
H1784 C1799 0.930 . S
C1785 H1773 0.930 . S
C1785 C1786 1.399 . S
C1785 C1790 1.399 . S
C1786 C1785 1.399 . S
C1786 C1787 1.376 . S
C1787 H1774 0.931 1_455 S
C1787 C1786 1.376 . S
C1787 C1788 1.388 . S
C1788 H1775 0.930 . S
C1788 C1787 1.388 . S
C1788 C1789 1.390 . S
C1789 C1788 1.390 . S
C1789 C1790 1.394 . S
C1789 C1795 1.465 . S
C1790 C1785 1.399 . S
C1790 C1789 1.394 . S
C1790 C1791 1.516 . S
C1791 C1790 1.516 . S
C1791 C1792 1.502 . S
C1791 C1793 1.561 . S
C1791 C1794 1.526 . S
C1792 H1776 0.959 . S
C1792 H1777 0.959 . S
C1792 H1778 0.961 . S
C1792 C1791 1.502 . S
C1793 H1779 0.960 . S
C1793 H1780 0.961 . S
C1793 H1781 0.959 . S
C1793 C1791 1.561 . S
C1794 C1791 1.526 . S
C1794 C1795 1.396 . S
C1794 C1799 1.390 . S
C1795 C1789 1.465 . S
C1795 C1794 1.396 . S
C1795 C1796 1.399 . S
C1796 H1782 0.929 . S
C1796 C1795 1.399 . S
C1796 C1797 1.385 . S
C1797 H1783 0.931 . S
C1797 C1796 1.385 . S
C1797 C1798 1.389 . S
C1798 C1797 1.389 . S
C1798 C1799 1.387 . S
C1799 H1784 0.930 . S
C1799 C1794 1.390 . S
C1799 C1798 1.387 . S
H1800 C1812 0.930 . S
H1801 C1814 0.930 . S
H1802 C1815 0.930 . S
H1803 C1819 0.959 . S
H1804 C1819 0.959 . S
H1805 C1819 0.961 . S
H1806 C1820 0.960 . S
H1807 C1820 0.961 . S
H1808 C1820 0.959 . S
H1809 C1823 0.929 . S
H1810 C1824 0.931 . S
H1811 C1826 0.930 . S
C1812 H1800 0.930 . S
C1812 C1813 1.399 . S
C1812 C1817 1.399 . S
C1813 C1812 1.399 . S
C1813 C1814 1.376 . S
C1814 H1801 0.930 . S
C1814 C1813 1.376 . S
C1814 C1815 1.388 . S
C1815 H1802 0.930 . S
C1815 C1814 1.388 . S
C1815 C1816 1.390 . S
C1816 C1815 1.390 . S
C1816 C1817 1.394 . S
C1816 C1822 1.465 . S
C1817 C1812 1.399 . S
C1817 C1816 1.394 . S
C1817 C1818 1.516 . S
C1818 C1817 1.516 . S
C1818 C1819 1.502 . S
C1818 C1820 1.561 . S
C1818 C1821 1.526 . S
C1819 H1803 0.959 . S
C1819 H1804 0.959 . S
C1819 H1805 0.961 . S
C1819 C1818 1.502 . S
C1820 H1806 0.960 . S
C1820 H1807 0.961 . S
C1820 H1808 0.959 . S
C1820 C1818 1.561 . S
C1821 C1818 1.526 . S
C1821 C1822 1.396 . S
C1821 C1826 1.390 . S
C1822 C1816 1.465 . S
C1822 C1821 1.396 . S
C1822 C1823 1.399 . S
C1823 H1809 0.929 . S
C1823 C1822 1.399 . S
C1823 C1824 1.385 . S
C1824 H1810 0.931 . S
C1824 C1823 1.385 . S
C1824 C1825 1.389 . S
C1825 C1824 1.389 . S
C1825 C1826 1.387 . S
C1826 H1811 0.930 . S
C1826 C1821 1.390 . S
C1826 C1825 1.387 . S
H1827 C1839 0.930 . S
H1828 C1841 0.930 . S
H1829 C1842 0.930 . S
H1830 C1846 0.959 . S
H1831 C1846 0.959 . S
H1832 C1846 0.961 . S
H1833 C1847 0.960 . S
H1834 C1847 0.961 1_545 S
H1835 C1847 0.959 1_545 S
H1836 C1850 0.929 . S
H1837 C1851 0.931 . S
H1838 C1853 0.930 . S
C1839 H1827 0.930 . S
C1839 C1840 1.399 . S
C1839 C1844 1.399 . S
C1840 C1839 1.399 . S
C1840 C1841 1.376 . S
C1841 H1828 0.930 . S
C1841 C1840 1.376 . S
C1841 C1842 1.388 . S
C1842 H1829 0.930 . S
C1842 C1841 1.388 . S
C1842 C1843 1.390 . S
C1843 C1842 1.390 . S
C1843 C1844 1.394 . S
C1843 C1849 1.465 . S
C1844 C1839 1.399 . S
C1844 C1843 1.394 . S
C1844 C1845 1.516 . S
C1845 C1844 1.516 . S
C1845 C1846 1.502 . S
C1845 C1847 1.561 . S
C1845 C1848 1.526 . S
C1846 H1830 0.959 . S
C1846 H1831 0.959 . S
C1846 H1832 0.961 . S
C1846 C1845 1.502 . S
C1847 H1833 0.960 . S
C1847 H1834 0.961 1_565 S
C1847 H1835 0.959 1_565 S
C1847 C1845 1.561 . S
C1848 C1845 1.526 . S
C1848 C1849 1.396 . S
C1848 C1853 1.390 . S
C1849 C1843 1.465 . S
C1849 C1848 1.396 . S
C1849 C1850 1.399 . S
C1850 H1836 0.929 . S
C1850 C1849 1.399 . S
C1850 C1851 1.385 . S
C1851 H1837 0.931 . S
C1851 C1850 1.385 . S
C1851 C1852 1.389 . S
C1852 C1851 1.389 . S
C1852 C1853 1.387 . S
C1853 H1838 0.930 . S
C1853 C1848 1.390 . S
C1853 C1852 1.387 . S
C409 C59 1.011 . S
C421 C8 1.020 . S
C436 C30 1.083 . S
C448 C21 1.078 . S
C463 C43 1.058 . S
C475 C54 1.058 . S
C490 C84 1.067 . S
C502 C103 1.058 . S
C517 C125 1.021 . S
C529 C98 1.035 . S
C544 C120 1.021 . S
C556 C73 1.014 . S
C571 C191 1.093 . S
C583 C140 1.093 . S
C598 C153 1.004 . S
C610 C172 1.016 . S
C625 C161 1.087 . S
C637 C186 1.089 . S
C652 C235 1.086 . S
C664 C208 1.083 . S
C679 C230 1.083 . S
C691 C257 1.077 . S
C706 C213 1.093 . S
C718 C252 1.093 . S
C733 C274 1.091 . S
C745 C323 1.089 . S
C760 C279 1.006 . S
C772 C294 1.017 . S
C787 C307 1.010 . S
C799 C318 1.019 . S
C814 C359 1.087 . S
C826 C348 1.089 . S
C841 C389 1.089 . S
C853 C370 1.090 . S
C868 C384 1.044 . S
C880 C337 1.032 . S
C895 C18 1.010 . S
C907 C206 1.020 . S
C922 C40 1.086 . S
C934 C228 1.058 . S
C949 C250 1.055 . S
C961 C52 1.084 . S
C976 C76 1.082 . S
C988 C272 1.052 . S
C1003 C304 1.097 . S
C1015 C96 1.076 . S
C1030 C316 1.043 . S
C1042 C118 1.018 . S
C1057 C293 1.176 . S
C1069 C131 1.153 . S
C1084 C81 1.176 . S
C1096 C329 1.155 . S
C1111 C285 1.158 . S
C1123 C109 1.130 . S
C1138 C29 1.085 . S
C1150 C263 1.088 . S
C1165 C65 1.176 . S
C1177 C219 1.154 . S
C1192 C241 1.104 . S
C1204 C7 1.087 . S
C1219 C340 1.084 . S
C1231 C150 1.055 . S
C1246 C164 1.048 . S
C1258 C362 1.078 . S
C1273 C382 1.056 . S
C1285 C184 1.027 . S
C1300 C395 1.181 . S
C1312 C169 1.163 . S
C1327 C197 1.098 . S
C1339 C345 1.125 . S
C1354 C367 1.180 . S
C1366 C139 1.182 . S
C1381 C15 1.339 . S
C1393 C87 1.349 . S
C1408 C95 1.335 . S
C1420 C37 1.352 . S
C1435 C117 1.341 . S
C1447 C51 1.348 . S
C1462 C32 1.216 . S
C1474 C128 1.234 . S
C1489 C62 1.241 . S
C1501 C74 1.225 . S
C1516 C106 1.228 . S
C1528 C10 1.213 . S
C1543 C147 1.333 . S
C1555 C205 1.354 1_655 S
C1570 C227 1.339 . S
C1582 C175 1.350 . S
C1597 C249 1.340 1_545 S
C1609 C183 1.344 . S
C1624 C162 1.222 . S
C1636 C260 1.240 1_545 S
C1651 C216 1.212 1_655 S
C1663 C194 1.217 . S
C1678 C142 1.241 . S
C1690 C238 1.225 . S
C1705 C351 1.337 . S
C1717 C271 1.347 1_565 S
C1732 C373 1.335 . S
C1744 C301 1.352 1_455 S
C1759 C381 1.351 . S
C1771 C315 1.334 . S
C1786 C296 1.233 1_455 S
C1798 C392 1.216 . S
C1813 C326 1.232 . S
C1825 C338 1.215 . S
C1840 C360 1.212 . S
C1852 C282 1.228 1_565 S
