# Generated by pormake.
# Topology wme, (6)-cn, num edge types: 1
# Building blocks:
#     Node 0, Type 0, BuildingBlock: CUKXOW_clean_sbu_0, # of connection points: 6
#     Node 1, Type 0, BuildingBlock: CUKXOW_clean_sbu_0, # of connection points: 6
#     Node 2, Type 0, BuildingBlock: CUKXOW_clean_sbu_0, # of connection points: 6
#     Node 3, Type 0, BuildingBlock: CUKXOW_clean_sbu_0, # of connection points: 6
#     Node 4, Type 0, BuildingBlock: CUKXOW_clean_sbu_0, # of connection points: 6
#     Node 5, Type 0, BuildingBlock: CUKXOW_clean_sbu_0, # of connection points: 6
#     Node 6, Type 0, BuildingBlock: CUKXOW_clean_sbu_0, # of connection points: 6
#     Node 7, Type 0, BuildingBlock: CUKXOW_clean_sbu_0, # of connection points: 6
#     Node 8, Type 0, BuildingBlock: CUKXOW_clean_sbu_0, # of connection points: 6
#     Node 9, Type 0, BuildingBlock: CUKXOW_clean_sbu_0, # of connection points: 6
#     Node 10, Type 0, BuildingBlock: CUKXOW_clean_sbu_0, # of connection points: 6
#     Node 11, Type 0, BuildingBlock: CUKXOW_clean_sbu_0, # of connection points: 6
#     Edge 12, Type (0, 0), BuildingBlock: CIFDUS_clean_linker_0, # of connection points: 2
#     Edge 13, Type (0, 0), BuildingBlock: CIFDUS_clean_linker_0, # of connection points: 2
#     Edge 14, Type (0, 0), BuildingBlock: CIFDUS_clean_linker_0, # of connection points: 2
#     Edge 15, Type (0, 0), BuildingBlock: CIFDUS_clean_linker_0, # of connection points: 2
#     Edge 16, Type (0, 0), BuildingBlock: CIFDUS_clean_linker_0, # of connection points: 2
#     Edge 17, Type (0, 0), BuildingBlock: CIFDUS_clean_linker_0, # of connection points: 2
#     Edge 18, Type (0, 0), BuildingBlock: CIFDUS_clean_linker_0, # of connection points: 2
#     Edge 19, Type (0, 0), BuildingBlock: CIFDUS_clean_linker_0, # of connection points: 2
#     Edge 20, Type (0, 0), BuildingBlock: CIFDUS_clean_linker_0, # of connection points: 2
#     Edge 21, Type (0, 0), BuildingBlock: CIFDUS_clean_linker_0, # of connection points: 2
#     Edge 22, Type (0, 0), BuildingBlock: CIFDUS_clean_linker_0, # of connection points: 2
#     Edge 23, Type (0, 0), BuildingBlock: CIFDUS_clean_linker_0, # of connection points: 2
#     Edge 24, Type (0, 0), BuildingBlock: CIFDUS_clean_linker_0, # of connection points: 2
#     Edge 25, Type (0, 0), BuildingBlock: CIFDUS_clean_linker_0, # of connection points: 2
#     Edge 26, Type (0, 0), BuildingBlock: CIFDUS_clean_linker_0, # of connection points: 2
#     Edge 27, Type (0, 0), BuildingBlock: CIFDUS_clean_linker_0, # of connection points: 2
#     Edge 28, Type (0, 0), BuildingBlock: CIFDUS_clean_linker_0, # of connection points: 2
#     Edge 29, Type (0, 0), BuildingBlock: CIFDUS_clean_linker_0, # of connection points: 2
#     Edge 30, Type (0, 0), BuildingBlock: CIFDUS_clean_linker_0, # of connection points: 2
#     Edge 31, Type (0, 0), BuildingBlock: CIFDUS_clean_linker_0, # of connection points: 2
#     Edge 32, Type (0, 0), BuildingBlock: CIFDUS_clean_linker_0, # of connection points: 2
#     Edge 33, Type (0, 0), BuildingBlock: CIFDUS_clean_linker_0, # of connection points: 2
#     Edge 34, Type (0, 0), BuildingBlock: CIFDUS_clean_linker_0, # of connection points: 2
#     Edge 35, Type (0, 0), BuildingBlock: CIFDUS_clean_linker_0, # of connection points: 2
#     Edge 36, Type (0, 0), BuildingBlock: CIFDUS_clean_linker_0, # of connection points: 2
#     Edge 37, Type (0, 0), BuildingBlock: CIFDUS_clean_linker_0, # of connection points: 2
#     Edge 38, Type (0, 0), BuildingBlock: CIFDUS_clean_linker_0, # of connection points: 2
#     Edge 39, Type (0, 0), BuildingBlock: CIFDUS_clean_linker_0, # of connection points: 2
#     Edge 40, Type (0, 0), BuildingBlock: CIFDUS_clean_linker_0, # of connection points: 2
#     Edge 41, Type (0, 0), BuildingBlock: CIFDUS_clean_linker_0, # of connection points: 2
#     Edge 42, Type (0, 0), BuildingBlock: CIFDUS_clean_linker_0, # of connection points: 2
#     Edge 43, Type (0, 0), BuildingBlock: CIFDUS_clean_linker_0, # of connection points: 2
#     Edge 44, Type (0, 0), BuildingBlock: CIFDUS_clean_linker_0, # of connection points: 2
#     Edge 45, Type (0, 0), BuildingBlock: CIFDUS_clean_linker_0, # of connection points: 2
#     Edge 46, Type (0, 0), BuildingBlock: CIFDUS_clean_linker_0, # of connection points: 2
#     Edge 47, Type (0, 0), BuildingBlock: CIFDUS_clean_linker_0, # of connection points: 2
# Relax obj value: 0.056
# Max RMSD: 0.149
# Mean RMSD: 0.149
data_MOF--net-wme--node1-CUKXOW_clean_sbu_0--edge1-CIFDUS_clean_linker_0
_symmetry_space_group_name_H-M    P1
_symmetry_Int_Tables_number       1
_symmetry_cell_setting            triclinic
loop_
_symmetry_equiv_pos_as_xyz
'x, y, z'
_cell_length_a     28.13335
_cell_length_b     28.119905
_cell_length_c     49.426093
_cell_angle_alpha  89.934287
_cell_angle_beta   90.109394
_cell_angle_gamma 119.88118
loop_
_atom_site_label
_atom_site_type_symbol
_atom_site_fract_x
_atom_site_fract_y
_atom_site_fract_z
_atom_type_partial_charge
Tb0 Tb 0.26412 0.40048 0.12119 0.0
C1 C 0.22324 0.32995 0.06852 0.0
Tb2 Tb 0.14378 0.30973 0.11858 0.0
O3 O 0.29184 0.34025 0.11709 0.0
O4 O 0.21694 0.31945 0.13499 0.0
O5 O 0.26062 0.37788 0.0788 0.0
C6 C 0.04455 0.22253 0.11214 0.0
O7 O 0.17713 0.29595 0.08136 0.0
C8 C 0.16077 0.40964 0.11696 0.0
C9 C 0.19066 0.36575 0.1744 0.0
O10 O 0.06365 0.26823 0.09892 0.0
O11 O 0.08166 0.22554 0.12886 0.0
O12 O 0.11744 0.36848 0.12716 0.0
O13 O 0.19033 0.39311 0.10589 0.0
O14 O 0.15368 0.31989 0.16225 0.0
O15 O 0.23279 0.40587 0.16119 0.0
C16 C 0.35768 0.49518 0.12617 0.0
O17 O 0.34545 0.45007 0.1388 0.0
O18 O 0.31715 0.48709 0.11054 0.0
C19 C 0.24649 0.30069 0.12694 0.0
Tb20 Tb 0.89836 0.26784 0.62673 0.0
C21 C 0.91051 0.2253 0.56904 0.0
Tb22 Tb 0.87524 0.14973 0.62159 0.0
O23 O 0.97617 0.29093 0.64799 0.0
O24 O 0.94401 0.22842 0.61962 0.0
O25 O 0.906 0.26342 0.58288 0.0
C26 C 0.87381 0.05458 0.61724 0.0
O27 O 0.90098 0.17799 0.58001 0.0
C28 C 0.78859 0.15981 0.631 0.0
C29 C 0.88257 0.20021 0.67905 0.0
O30 O 0.83781 0.06532 0.60667 0.0
O31 O 0.91116 0.09774 0.62971 0.0
O32 O 0.79437 0.11919 0.63893 0.0
O33 O 0.82883 0.19096 0.61617 0.0
O34 O 0.89371 0.16731 0.66451 0.0
O35 O 0.8729 0.23743 0.66776 0.0
C36 C 0.90167 0.3644 0.62387 0.0
O37 O 0.94249 0.35615 0.61991 0.0
O38 O 0.85814 0.31788 0.62949 0.0
C39 C 0.9818 0.25253 0.63649 0.0
Tb40 Tb 0.64364 0.89032 0.12913 0.0
C41 C 0.70569 0.92705 0.07397 0.0
Tb42 Tb 0.73463 0.86332 0.11853 0.0
O43 O 0.70273 0.97867 0.12661 0.0
O44 O 0.72634 0.92311 0.13999 0.0
O45 O 0.65898 0.91332 0.08665 0.0
C46 C 0.8239 0.8566 0.10815 0.0
O47 O 0.74274 0.91541 0.08384 0.0
C48 C 0.63479 0.78046 0.11642 0.0
C49 C 0.68506 0.8438 0.17702 0.0
O50 O 0.7772 0.8291 0.09581 0.0
O51 O 0.82056 0.88862 0.126 0.0
O52 O 0.67678 0.77652 0.12399 0.0
O53 O 0.65041 0.82843 0.10819 0.0
O54 O 0.72834 0.85355 0.16218 0.0
O55 O 0.64389 0.84916 0.16711 0.0
C56 C 0.54759 0.88445 0.13801 0.0
O57 O 0.59355 0.91866 0.1496 0.0
O58 O 0.5557 0.85352 0.12141 0.0
C59 C 0.74368 0.97228 0.13384 0.0
Tb60 Tb 0.77327 0.64253 0.63101 0.0
C61 C 0.81426 0.69995 0.57352 0.0
Tb62 Tb 0.89753 0.7397 0.62297 0.0
O63 O 0.74774 0.69878 0.64849 0.0
O64 O 0.81726 0.72774 0.62506 0.0
O65 O 0.7814 0.65361 0.58688 0.0
C66 C 0.99302 0.83396 0.62287 0.0
O67 O 0.85913 0.74147 0.58463 0.0
C68 C 0.88597 0.63984 0.61885 0.0
C69 C 0.84893 0.6961 0.68159 0.0
O70 O 0.96354 0.81001 0.60153 0.0
O71 O 0.96798 0.80553 0.64417 0.0
O72 O 0.9324 0.68491 0.61616 0.0
O73 O 0.85139 0.65432 0.62323 0.0
O74 O 0.88314 0.73867 0.66649 0.0
O75 O 0.8078 0.65036 0.67134 0.0
C76 C 0.6851 0.54191 0.63144 0.0
O77 O 0.72921 0.55774 0.64573 0.0
O78 O 0.69021 0.58309 0.61717 0.0
C79 C 0.79175 0.74287 0.64026 0.0
Tb80 Tb 0.14898 0.7777 0.13141 0.0
C81 C 0.12626 0.81901 0.07668 0.0
Tb82 Tb 0.18309 0.89885 0.12686 0.0
O83 O 0.06228 0.75217 0.12446 0.0
O84 O 0.11608 0.8274 0.14234 0.0
O85 O 0.13307 0.78026 0.08842 0.0
C86 C 0.19846 0.9986 0.11769 0.0
O87 O 0.1395 0.86624 0.08868 0.0
C88 C 0.26302 0.87725 0.12826 0.0
C89 C 0.1829 0.85261 0.18453 0.0
O90 O 0.22529 0.97778 0.10619 0.0
O91 O 0.16262 0.96313 0.13433 0.0
O92 O 0.26645 0.92162 0.13794 0.0
O93 O 0.21773 0.84935 0.11633 0.0
O94 O 0.17919 0.89115 0.17063 0.0
O95 O 0.17919 0.80827 0.17267 0.0
C96 C 0.15247 0.68522 0.13602 0.0
O97 O 0.11741 0.69534 0.14801 0.0
O98 O 0.18547 0.72711 0.12144 0.0
C99 C 0.06861 0.79874 0.13301 0.0
Tb100 Tb 0.40572 0.15012 0.62993 0.0
C101 C 0.34726 0.12525 0.57157 0.0
Tb102 Tb 0.31137 0.17273 0.62055 0.0
O103 O 0.35045 0.0702 0.64977 0.0
O104 O 0.32175 0.10421 0.62156 0.0
O105 O 0.39033 0.13266 0.58623 0.0
C106 C 0.22025 0.1799 0.62254 0.0
O107 O 0.30911 0.13536 0.58143 0.0
C108 C 0.40975 0.2553 0.61038 0.0
C109 C 0.35313 0.17066 0.6801 0.0
O110 O 0.26712 0.21468 0.63304 0.0
O111 O 0.22463 0.14106 0.61072 0.0
O112 O 0.36565 0.24601 0.59755 0.0
O113 O 0.39665 0.22089 0.62934 0.0
O114 O 0.31045 0.16003 0.66445 0.0
O115 O 0.40022 0.17897 0.66986 0.0
C116 C 0.50778 0.16608 0.62743 0.0
O117 O 0.46758 0.12773 0.64121 0.0
O118 O 0.49032 0.19508 0.61496 0.0
C119 C 0.30679 0.06625 0.63837 0.0
Tb120 Tb 0.6378 0.75097 0.39391 0.0
C121 C 0.71788 0.80082 0.44369 0.0
Tb122 Tb 0.73318 0.86849 0.38939 0.0
O123 O 0.69628 0.71998 0.39711 0.0
O124 O 0.71633 0.7911 0.37605 0.0
O125 O 0.66984 0.76087 0.4349 0.0
C126 C 0.82901 0.96109 0.38493 0.0
O127 O 0.74886 0.84611 0.42951 0.0
C128 C 0.63761 0.86155 0.39666 0.0
C129 C 0.6654 0.81094 0.33762 0.0
O130 O 0.78401 0.95044 0.37278 0.0
O131 O 0.8203 0.9195 0.39983 0.0
O132 O 0.67985 0.90347 0.38629 0.0
O133 O 0.65266 0.82953 0.40637 0.0
O134 O 0.71568 0.84297 0.34724 0.0
O135 O 0.62483 0.7764 0.35362 0.0
C136 C 0.53868 0.66313 0.40025 0.0
O137 O 0.57209 0.6703 0.3805 0.0
O138 O 0.5609 0.70533 0.41618 0.0
C139 C 0.73533 0.76216 0.38469 0.0
Tb140 Tb 0.90194 0.63974 0.89682 0.0
C141 C 0.92377 0.70498 0.94969 0.0
Tb142 Tb 0.87422 0.73241 0.89852 0.0
O143 O 0.99093 0.69974 0.89958 0.0
O144 O 0.93671 0.72082 0.88251 0.0
O145 O 0.90355 0.65475 0.93988 0.0
C146 C 0.86234 0.82001 0.90567 0.0
O147 O 0.92269 0.74458 0.93546 0.0
C148 C 0.79108 0.6326 0.90133 0.0
C149 C 0.86675 0.67608 0.8423 0.0
O150 O 0.83774 0.77477 0.9194 0.0
O151 O 0.89473 0.81648 0.88805 0.0
O152 O 0.78886 0.67329 0.8904 0.0
O153 O 0.83732 0.64965 0.91225 0.0
O154 O 0.87114 0.72016 0.85473 0.0
O155 O 0.87412 0.63841 0.85506 0.0
C156 C 0.889 0.53872 0.89548 0.0
O157 O 0.93221 0.58237 0.90431 0.0
O158 O 0.85386 0.55229 0.88681 0.0
C159 C 0.98521 0.7398 0.89012 0.0
Tb160 Tb 0.26488 0.86912 0.40104 0.0
C161 C 0.22414 0.90722 0.45122 0.0
Tb162 Tb 0.14704 0.84891 0.40042 0.0
O163 O 0.30209 0.95835 0.40418 0.0
O164 O 0.22474 0.91127 0.38681 0.0
O165 O 0.25962 0.8924 0.44258 0.0
C166 C 0.04659 0.83623 0.40585 0.0
O167 O 0.17986 0.89756 0.43721 0.0
C168 C 0.1572 0.76096 0.40295 0.0
C169 C 0.1975 0.83952 0.34582 0.0
O170 O 0.06874 0.81576 0.4216 0.0
O171 O 0.08182 0.86553 0.38724 0.0
O172 O 0.11718 0.76287 0.39115 0.0
O173 O 0.18743 0.80621 0.41453 0.0
O174 O 0.16203 0.85176 0.35711 0.0
O175 O 0.23598 0.83621 0.36011 0.0
C176 C 0.34979 0.85084 0.40314 0.0
O177 O 0.34359 0.88176 0.38555 0.0
O178 O 0.3084 0.83066 0.41956 0.0
C179 C 0.25873 0.95872 0.39518 0.0
Tb180 Tb 0.40915 0.26581 0.89274 0.0
C181 C 0.34227 0.23466 0.94623 0.0
Tb182 Tb 0.31287 0.14923 0.89807 0.0
O183 O 0.35718 0.30273 0.89613 0.0
O184 O 0.32541 0.22347 0.88057 0.0
O185 O 0.39148 0.26574 0.93544 0.0
C186 C 0.22483 0.05037 0.90685 0.0
O187 O 0.30326 0.19012 0.93387 0.0
C188 C 0.41116 0.16007 0.90068 0.0
C189 C 0.36894 0.18791 0.84158 0.0
O190 O 0.26859 0.07363 0.92173 0.0
O191 O 0.2299 0.08359 0.88733 0.0
O192 O 0.36879 0.11779 0.89061 0.0
O193 O 0.39659 0.1921 0.91042 0.0
O194 O 0.32185 0.15522 0.85406 0.0
O195 O 0.41136 0.2284 0.85433 0.0
C196 C 0.50733 0.35526 0.88661 0.0
O197 O 0.46353 0.34378 0.87293 0.0
O198 O 0.49601 0.31618 0.90383 0.0
C199 C 0.3131 0.25869 0.88842 0.0
Tb200 Tb 0.13601 0.37319 0.38637 0.0
C201 C 0.11527 0.31111 0.44349 0.0
Tb202 Tb 0.17015 0.28578 0.39374 0.0
O203 O 0.06066 0.31569 0.36505 0.0
O204 O 0.09663 0.28818 0.39335 0.0
O205 O 0.11969 0.35438 0.43004 0.0
C206 C 0.17986 0.19552 0.39148 0.0
O207 O 0.1283 0.27612 0.43224 0.0
C208 C 0.24795 0.38905 0.401 0.0
C209 C 0.171 0.3335 0.33492 0.0
O210 O 0.21148 0.23977 0.40501 0.0
O211 O 0.14286 0.20218 0.37914 0.0
O212 O 0.24646 0.34762 0.41336 0.0
O213 O 0.20955 0.37047 0.38417 0.0
O214 O 0.1693 0.2928 0.34948 0.0
O215 O 0.16816 0.37499 0.34609 0.0
C216 C 0.13562 0.46804 0.38812 0.0
O217 O 0.10047 0.42409 0.37534 0.0
O218 O 0.17118 0.45859 0.40022 0.0
C219 C 0.06026 0.27295 0.37543 0.0
Tb220 Tb 0.78237 0.14845 0.89324 0.0
C221 C 0.82919 0.12613 0.94612 0.0
Tb222 Tb 0.90353 0.1789 0.89496 0.0
O223 O 0.75723 0.06126 0.89929 0.0
O224 O 0.82986 0.11436 0.8797 0.0
O225 O 0.79463 0.14115 0.93632 0.0
C226 C 1.00075 0.18538 0.88914 0.0
O227 O 0.87176 0.13158 0.93205 0.0
C228 C 0.88179 0.25358 0.91461 0.0
C229 C 0.85286 0.19072 0.83953 0.0
O230 O 0.95532 0.14112 0.89508 0.0
O231 O 0.99145 0.226 0.88644 0.0
O232 O 0.92104 0.24574 0.92313 0.0
O233 O 0.85923 0.22193 0.89489 0.0
O234 O 0.89449 0.18958 0.85179 0.0
O235 O 0.80686 0.1799 0.85219 0.0
C236 C 0.68748 0.14781 0.89006 0.0
O237 O 0.70063 0.11703 0.87603 0.0
O238 O 0.72792 0.17915 0.90602 0.0
C239 C 0.80178 0.06656 0.88863 0.0
H240 H 0.14941 0.04747 0.14303 0.0
H241 H 0.27582 0.07674 0.08524 0.0
H242 H 0.30194 0.17363 0.08268 0.0
H243 H 0.29103 0.25067 0.09841 0.0
H244 H 0.16493 0.2209 0.15647 0.0
H245 H 0.13632 0.12346 0.15745 0.0
C246 C 0.18238 0.07507 0.12975 0.0
C247 C 0.21088 0.05548 0.11445 0.0
C248 C 0.19741 0.13056 0.1286 0.0
C249 C 0.25344 0.09127 0.09724 0.0
C250 C 0.26849 0.14658 0.09584 0.0
C251 C 0.25747 0.2227 0.1113 0.0
C252 C 0.23016 0.24246 0.12741 0.0
C253 C 0.24127 0.16681 0.11173 0.0
C254 C 0.18628 0.20617 0.14382 0.0
C255 C 0.17 0.1506 0.14443 0.0
H256 H 0.20305 0.24997 0.65297 0.0
H257 H 0.12619 0.12042 0.59395 0.0
H258 H 0.04515 0.13127 0.59347 0.0
H259 H 0.99835 0.18026 0.6083 0.0
H260 H 0.07211 0.30669 0.66898 0.0
H261 H 0.15286 0.29492 0.67023 0.0
C262 C 0.16841 0.22407 0.64009 0.0
C263 C 0.17054 0.1848 0.62332 0.0
C264 C 0.1218 0.23018 0.64017 0.0
C265 C 0.12539 0.15104 0.60693 0.0
C266 C 0.07918 0.15729 0.60663 0.0
C267 C 0.03162 0.20455 0.62218 0.0
C268 C 0.02929 0.24403 0.63867 0.0
C269 C 0.0772 0.19701 0.62299 0.0
C270 C 0.07311 0.276 0.65615 0.0
C271 C 0.11917 0.26928 0.65683 0.0
H272 H 0.78993 0.06351 0.10266 0.0
H273 H 0.82741 0.97254 0.16084 0.0
H274 H 0.92495 0.04045 0.15808 0.0
H275 H 0.9991 0.12752 0.14033 0.0
H276 H 0.96212 0.21786 0.08149 0.0
H277 H 0.86499 0.14813 0.08293 0.0
C278 C 0.8196 0.05895 0.11479 0.0
C279 C 0.80194 1.01381 0.13215 0.0
C280 C 0.87558 0.09777 0.11284 0.0
C281 C 0.84045 1.00732 0.14741 0.0
C282 C 0.89609 0.04603 0.14583 0.0
C283 C 0.96976 0.13158 0.12768 0.0
C284 C 0.98737 0.17766 0.11098 0.0
C285 C 0.91408 0.09159 0.12875 0.0
C286 C 0.94925 0.18259 0.09456 0.0
C287 C 0.89375 0.14294 0.09547 0.0
H288 H 0.88544 0.83743 0.63002 0.0
H289 H 0.71405 0.77238 0.64766 0.0
H290 H 0.72369 0.8628 0.63998 0.0
H291 H 0.78059 0.96 0.62718 0.0
H292 H 0.95379 0.02739 0.61415 0.0
H293 H 0.94397 0.93632 0.62066 0.0
C294 C 0.85046 0.84338 0.63248 0.0
C295 C 0.79913 0.79855 0.63934 0.0
C296 C 0.85656 0.89559 0.62841 0.0
C297 C 0.75403 0.80648 0.64258 0.0
C298 C 0.75944 0.85802 0.63796 0.0
C299 C 0.81595 0.95442 0.62552 0.0
C300 C 0.86758 0.99961 0.61961 0.0
C301 C 0.81034 0.90268 0.63055 0.0
C302 C 0.91358 0.9927 0.61831 0.0
C303 C 0.90798 0.94085 0.62217 0.0
H304 H 0.98141 0.75903 0.09909 0.0
H305 H 0.06846 0.88214 0.16002 0.0
H306 H 1.00313 0.91495 0.15566 0.0
H307 H 0.91831 0.90499 0.13651 0.0
H308 H 0.83023 0.78165 0.07582 0.0
H309 H 0.89934 0.75306 0.07768 0.0
C310 C 0.98576 0.7929 0.11141 0.0
C311 C 0.02901 0.81789 0.13003 0.0
C312 C 0.94816 0.81164 0.10871 0.0
C313 C 0.03521 0.86235 0.14558 0.0
C314 C 0.99794 0.88109 0.14311 0.0
C315 C 0.91472 0.87236 0.12344 0.0
C316 C 0.86935 0.84518 0.10619 0.0
C317 C 0.95396 0.85566 0.12496 0.0
C318 C 0.86499 0.80308 0.08929 0.0
C319 C 0.90422 0.7865 0.09047 0.0
H320 H 0.07119 0.86376 0.66168 0.0
H321 H 0.04049 0.91063 0.58331 0.0
H322 H 0.13473 0.98749 0.58175 0.0
H323 H 0.22594 0.03951 0.60205 0.0
H324 H 0.25988 0.99013 0.67894 0.0
H325 H 0.16415 0.91551 0.68174 0.0
C326 C 0.08513 0.89116 0.64439 0.0
C327 C 0.04898 0.88197 0.62269 0.0
C328 C 0.13984 0.9343 0.64333 0.0
C329 C 0.0676 0.91709 0.60023 0.0
C330 C 0.12142 0.9609 0.59933 0.0
C331 C 0.21241 1.01258 0.6195 0.0
C332 C 0.24976 0.02034 0.64036 0.0
C333 C 0.15793 0.9696 0.62066 0.0
C334 C 0.23183 0.98473 0.66264 0.0
C335 C 0.17714 0.94229 0.66424 0.0
H336 H 0.99203 0.86969 0.3722 0.0
H337 H 0.96957 0.76712 0.4414 0.0
H338 H 0.87104 0.73362 0.44077 0.0
H339 H 0.79021 0.73121 0.41963 0.0
H340 H 0.81325 0.83593 0.35131 0.0
H341 H 0.91193 0.87048 0.35238 0.0
C342 C 0.96556 0.84038 0.38725 0.0
C343 C 0.98803 0.82083 0.40675 0.0
C344 C 0.90876 0.82108 0.38672 0.0
C345 C 0.95327 0.78286 0.42616 0.0
C346 C 0.89683 0.76343 0.42575 0.0
C347 C 0.81691 0.76115 0.40486 0.0
C348 C 0.7945 0.78034 0.38515 0.0
C349 C 0.87393 0.78165 0.4059 0.0
C350 C 0.82958 0.82015 0.36651 0.0
C351 C 0.88605 0.84009 0.36716 0.0
H352 H 0.07352 0.7947 0.92356 0.0
H353 H 0.98684 0.81723 0.85729 0.0
H354 H 0.05136 0.91579 0.85737 0.0
H355 H 0.13395 0.99565 0.87553 0.0
H356 H 0.21928 0.97444 0.94285 0.0
H357 H 0.15363 0.87593 0.94348 0.0
C358 C 0.06926 0.8213 0.90904 0.0
C359 C 0.02617 0.79884 0.89017 0.0
C360 C 0.10598 0.8783 0.90957 0.0
C361 C 1.02006 0.8337 0.87187 0.0
C362 C 0.05683 0.89006 0.87194 0.0
C363 C 0.13782 0.96948 0.89047 0.0
C364 C 0.18145 0.99218 0.90902 0.0
C365 C 0.10006 0.91285 0.89063 0.0
C366 C 0.18595 0.95788 0.92834 0.0
C367 C 0.14863 0.90148 0.92861 0.0
H368 H 0.2597 0.1812 0.41398 0.0
H369 H 0.11258 0.09877 0.36587 0.0
H370 H 0.12288 0.01734 0.36298 0.0
H371 H 0.17518 0.97004 0.37359 0.0
H372 H 0.3228 0.05415 0.42135 0.0
H373 H 0.31093 0.1341 0.42495 0.0
C374 C 0.22988 0.14537 0.4029 0.0
C375 C 0.18558 0.14601 0.3901 0.0
C376 C 0.23628 0.09895 0.4012 0.0
C377 C 0.14718 0.0993 0.37582 0.0
C378 C 0.15305 0.05274 0.37417 0.0
C379 C 0.20458 1.00591 0.38478 0.0
C380 C 0.24998 1.00634 0.39703 0.0
C381 C 0.19763 0.05214 0.38667 0.0
C382 C 0.28779 0.053 0.41152 0.0
C383 C 0.28098 0.09874 0.41365 0.0
H384 H 0.2143 0.16553 0.88241 0.0
H385 H 0.28949 0.34046 0.89283 0.0
H386 H 0.19953 0.33354 0.89261 0.0
H387 H 0.09939 0.2777 0.89056 0.0
H388 H 1.02288 0.10193 0.8837 0.0
H389 H 0.11319 0.10887 0.88148 0.0
C390 C 0.21079 0.20194 0.88456 0.0
C391 C 0.25827 0.25334 0.88752 0.0
C392 C 0.15872 0.19745 0.88511 0.0
C393 C 0.2534 0.30039 0.89048 0.0
C394 C 0.20202 0.2965 0.89037 0.0
C395 C 0.10259 0.241 0.88843 0.0
C396 C 0.05489 0.18948 0.88714 0.0
C397 C 0.15442 0.24526 0.88783 0.0
C398 C 0.0593 0.14207 0.88471 0.0
C399 C 0.11083 0.14603 0.88343 0.0
H400 H 0.04813 0.18347 0.40196 0.0
H401 H 0.97424 0.2352 0.3406 0.0
H402 H 0.89736 0.14143 0.33685 0.0
H403 H 0.84881 0.04659 0.35315 0.0
H404 H 0.92243 0.99441 0.4144 0.0
H405 H 1.00288 0.0867 0.41572 0.0
C406 C 1.01561 0.174 0.38747 0.0
C407 C 1.0165 0.21593 0.37161 0.0
C408 C 0.97174 0.12018 0.38548 0.0
C409 C 0.97409 0.20342 0.35307 0.0
C410 C 0.93024 0.14994 0.35094 0.0
C411 C 0.88274 0.05535 0.36659 0.0
C412 C 0.87982 1.0143 0.38384 0.0
C413 C 0.92827 0.10828 0.36736 0.0
C414 C 0.92396 0.02572 0.40104 0.0
C415 C 0.96973 0.07838 0.40185 0.0
H416 H 0.90392 0.91281 0.87533 0.0
H417 H 0.79045 0.82622 0.93995 0.0
H418 H 0.76125 0.89476 0.94047 0.0
H419 H 0.76536 0.97765 0.92132 0.0
H420 H 0.87931 0.06468 0.85699 0.0
H421 H 0.91092 0.99792 0.85752 0.0
C422 C 0.8732 0.90934 0.88966 0.0
C423 C 0.84923 0.86457 0.9075 0.0
C424 C 0.85631 0.94872 0.88972 0.0
C425 C 0.80946 0.86041 0.926 0.0
C426 C 0.79256 0.89944 0.92624 0.0
C427 C 0.79689 0.98166 0.90738 0.0
C428 C 0.81977 0.02555 0.88903 0.0
C429 C 0.81511 0.94334 0.90794 0.0
C430 C 0.86114 0.03102 0.87129 0.0
C431 C 0.87922 0.99292 0.87158 0.0
H432 H 0.21682 0.65604 0.10782 0.0
H433 H 0.08765 0.5976 0.16731 0.0
H434 H 0.08198 0.50816 0.16768 0.0
H435 H 0.10962 0.44544 0.14936 0.0
H436 H 0.23612 0.50052 0.08873 0.0
H437 H 0.24774 0.59306 0.09072 0.0
C438 C 0.18779 0.62373 0.12098 0.0
C439 C 0.1524 0.63298 0.1374 0.0
C440 C 0.18432 0.57211 0.12082 0.0
C441 C 0.11503 0.59114 0.15442 0.0
C442 C 0.11176 0.54007 0.15462 0.0
C443 C 0.13993 0.47775 0.13662 0.0
C444 C 0.17191 0.46647 0.11886 0.0
C445 C 0.14553 0.52994 0.13761 0.0
C446 C 0.21137 0.50861 0.10268 0.0
C447 C 0.21769 0.56126 0.10372 0.0
H448 H 0.75291 0.22367 0.60529 0.0
H449 H 0.70759 0.09679 0.66535 0.0
H450 H 0.61765 0.08821 0.66996 0.0
H451 H 0.54961 0.11291 0.65562 0.0
H452 H 0.59256 0.2398 0.59603 0.0
H453 H 0.68506 0.25227 0.59257 0.0
C454 C 0.72344 0.19467 0.61954 0.0
C455 C 0.73679 0.16061 0.63477 0.0
C456 C 0.67104 0.18954 0.62205 0.0
C457 C 0.69823 0.12319 0.6532 0.0
C458 C 0.64663 0.11813 0.65587 0.0
C459 C 0.57928 0.14338 0.64193 0.0
C460 C 0.56421 0.175 0.62595 0.0
C461 C 0.63223 0.15039 0.64013 0.0
C462 C 0.60318 0.21469 0.60845 0.0
C463 C 0.65609 0.22186 0.60648 0.0
H464 H 0.59843 0.68718 0.14419 0.0
H465 H 0.54505 0.77024 0.08916 0.0
H466 H 0.45269 0.68946 0.08818 0.0
H467 H 0.38883 0.593 0.10139 0.0
H468 H 0.44474 0.51165 0.15631 0.0
H469 H 0.53463 0.594 0.15891 0.0
C470 C 0.56649 0.68765 0.13205 0.0
C471 C 0.57821 0.73424 0.11674 0.0
C472 C 0.51417 0.64128 0.13147 0.0
C473 C 0.53659 0.73476 0.10128 0.0
C474 C 0.48402 0.68854 0.1006 0.0
C475 C 0.42074 0.59362 0.11399 0.0
C476 C 0.41052 0.54639 0.12849 0.0
C477 C 0.47255 0.64126 0.11537 0.0
C478 C 0.45184 0.54752 0.14489 0.0
C479 C 0.50322 0.59452 0.14638 0.0
H480 H 0.96484 0.61276 0.62046 0.0
H481 H 0.78975 0.54165 0.61549 0.0
H482 H 0.77799 0.44927 0.61807 0.0
H483 H 0.81877 0.38873 0.62171 0.0
H484 H 0.99487 0.46224 0.62348 0.0
H485 H 1.0052 0.55349 0.62193 0.0
C486 C 0.92409 0.57701 0.61989 0.0
C487 C 0.87801 0.58381 0.61868 0.0
C488 C 0.91803 0.52442 0.62071 0.0
C489 C 0.82556 0.53728 0.61759 0.0
C490 C 0.81899 0.48452 0.61871 0.0
C491 C 0.85926 0.42484 0.6218 0.0
C492 C 0.906 0.41887 0.62285 0.0
C493 C 0.86501 0.47755 0.62047 0.0
C494 C 0.95829 0.46582 0.62269 0.0
C495 C 0.96429 0.51806 0.62181 0.0
H496 H 0.45197 0.82169 0.11125 0.0
H497 H 0.52723 0.94676 0.17258 0.0
H498 H 0.44366 0.95242 0.17612 0.0
H499 H 0.35194 0.92627 0.15983 0.0
H500 H 0.27669 0.80398 0.09736 0.0
H501 H 0.35725 0.79198 0.09641 0.0
C502 C 0.44972 0.84976 0.12553 0.0
C503 C 0.49555 0.88404 0.14153 0.0
C504 C 0.40174 0.85326 0.12721 0.0
C505 C 0.49241 0.92019 0.16001 0.0
C506 C 0.44474 0.92348 0.16201 0.0
C507 C 0.35307 0.89673 0.14612 0.0
C508 C 0.30872 0.86598 0.12871 0.0
C509 C 0.39962 0.89094 0.14539 0.0
C510 C 0.31028 0.82762 0.11115 0.0
C511 C 0.35644 0.8211 0.11048 0.0
H512 H 0.59963 0.50019 0.5963 0.0
H513 H 0.66589 0.45657 0.66447 0.0
H514 H 0.58802 0.36281 0.66335 0.0
H515 H 0.49911 0.29375 0.64373 0.0
H516 H 0.43476 0.33781 0.57483 0.0
H517 H 0.51385 0.43028 0.57528 0.0
C518 C 0.5969 0.47013 0.61092 0.0
C519 C 0.638 0.48534 0.63062 0.0
C520 C 0.5524 0.41619 0.60994 0.0
C521 C 0.63444 0.44586 0.64923 0.0
C522 C 0.59 0.39223 0.64856 0.0
C523 C 0.50278 0.3235 0.62868 0.0
C524 C 0.46095 0.30904 0.60939 0.0
C525 C 0.5485 0.37694 0.62909 0.0
C526 C 0.46628 0.34795 0.58997 0.0
C527 C 0.51143 0.40096 0.59025 0.0
H528 H 0.43122 0.88073 0.36662 0.0
H529 H 0.37396 0.79936 0.44337 0.0
H530 H 0.4554 0.78923 0.44738 0.0
H531 H 0.54748 0.81044 0.43035 0.0
H532 H 0.60259 0.89279 0.35354 0.0
H533 H 0.51756 0.89447 0.34802 0.0
C534 C 0.43643 0.86048 0.38414 0.0
C535 C 0.39709 0.84147 0.40479 0.0
C536 C 0.48317 0.85476 0.38626 0.0
C537 C 0.40401 0.81473 0.42725 0.0
C538 C 0.45057 0.80889 0.42956 0.0
C539 C 0.54012 0.82762 0.41223 0.0
C540 C 0.58139 0.85184 0.39249 0.0
C541 C 0.49104 0.82956 0.40936 0.0
C542 C 0.57163 0.87438 0.36916 0.0
C543 C 0.52305 0.87554 0.36598 0.0
H544 H 0.70331 0.59383 0.8691 0.0
H545 H 0.77703 0.54398 0.93128 0.0
H546 H 0.69617 0.45143 0.93125 0.0
H547 H 0.60154 0.38693 0.91526 0.0
H548 H 0.53029 0.43956 0.8529 0.0
H549 H 0.61335 0.52895 0.85118 0.0
C550 C 0.7018 0.56265 0.8826 0.0
C551 C 0.74547 0.57559 0.90041 0.0
C552 C 0.65556 0.51021 0.88246 0.0
C553 C 0.74354 0.53477 0.9175 0.0
C554 C 0.69735 0.48205 0.91751 0.0
C555 C 0.6046 0.41793 0.90118 0.0
C556 C 0.55982 0.40701 0.88438 0.0
C557 C 0.65265 0.46959 0.90036 0.0
C558 C 0.56415 0.44719 0.8661 0.0
C559 C 0.61157 0.49832 0.86513 0.0
H560 H 0.10017 0.67045 0.37302 0.0
H561 H 0.22569 0.73966 0.43431 0.0
H562 H 0.23232 0.65584 0.43441 0.0
H563 H 0.19969 0.56099 0.41766 0.0
H564 H 0.07028 0.49225 0.35807 0.0
H565 H 0.0674 0.57739 0.35692 0.0
C566 C 0.12911 0.66732 0.38639 0.0
C567 C 0.16309 0.71153 0.4033 0.0
C568 C 0.13157 0.61874 0.38677 0.0
C569 C 0.20015 0.70675 0.42059 0.0
C570 C 0.20347 0.65857 0.42084 0.0
C571 C 0.171 0.56488 0.40444 0.0
C572 C 0.13519 0.5204 0.38798 0.0
C573 C 0.16913 0.6141 0.40407 0.0
C574 C 0.09812 0.5258 0.37098 0.0
C575 C 0.09647 0.57451 0.37027 0.0
H576 H 0.65528 0.21153 0.91705 0.0
H577 H 0.60025 0.07944 0.8593 0.0
H578 H 0.51048 0.07276 0.85711 0.0
H579 H 0.44683 0.10256 0.87233 0.0
H580 H 0.50001 0.2341 0.93012 0.0
H581 H 0.59147 0.24345 0.93142 0.0
C582 C 0.62358 0.18146 0.90396 0.0
C583 C 0.63416 0.14584 0.88845 0.0
C584 C 0.57187 0.17785 0.90278 0.0
C585 C 0.59298 0.1072 0.87148 0.0
C586 C 0.54164 0.10332 0.87022 0.0
C587 C 0.47851 0.13335 0.88518 0.0
C588 C 0.46696 0.1677 0.90105 0.0
C589 C 0.53053 0.13812 0.8859 0.0
C590 C 0.50828 0.20761 0.9175 0.0
C591 C 0.5604 0.2127 0.91836 0.0
H592 H 0.32162 0.45347 0.43912 0.0
H593 H 0.28873 0.44144 0.35343 0.0
H594 H 0.37667 0.52418 0.34537 0.0
H595 H 0.46447 0.59906 0.36256 0.0
H596 H 0.49333 0.61763 0.44852 0.0
H597 H 0.40591 0.53365 0.45673 0.0
C598 C 0.33379 0.46938 0.41877 0.0
C599 C 0.29916 0.44144 0.39692 0.0
C600 C 0.38383 0.518 0.41434 0.0
C601 C 0.31477 0.46247 0.3706 0.0
C602 C 0.36515 0.50963 0.36594 0.0
C603 C 0.45139 0.58454 0.38304 0.0
C604 C 0.48519 0.61369 0.4049 0.0
C605 C 0.40024 0.53749 0.38762 0.0
C606 C 0.46773 0.59546 0.43141 0.0
C607 C 0.41787 0.54751 0.4361 0.0
H608 H 0.9447 0.50155 0.92546 0.0
H609 H 0.81016 0.44873 0.86939 0.0
H610 H 0.7931 0.35451 0.87182 0.0
H611 H 0.81896 0.28786 0.88856 0.0
H612 H 0.95161 0.34034 0.94586 0.0
H613 H 0.96617 0.43355 0.94474 0.0
C614 C 0.91178 0.46936 0.91374 0.0
C615 C 0.87926 0.48206 0.89695 0.0
C616 C 0.90155 0.41514 0.91567 0.0
C617 C 0.83606 0.43992 0.88225 0.0
C618 C 0.82618 0.38606 0.8837 0.0
C619 C 0.8505 0.31955 0.9011 0.0
C620 C 0.88438 0.30728 0.91715 0.0
C621 C 0.85888 0.37322 0.90022 0.0
C622 C 0.92503 0.34872 0.93331 0.0
C623 C 0.93362 0.40215 0.93255 0.0
H624 H 0.20536 0.41834 0.29928 0.0
H625 H 0.14276 0.24374 0.30368 0.0
H626 H 0.14065 0.23815 0.25441 0.0
H627 H 0.15557 0.28241 0.21007 0.0
H628 H 0.22368 0.45757 0.20513 0.0
H629 H 0.2242 0.46345 0.25464 0.0
C630 C 0.19146 0.37913 0.28943 0.0
C631 C 0.17418 0.33152 0.30513 0.0
C632 C 0.19086 0.37626 0.26103 0.0
C633 C 0.1567 0.28108 0.29209 0.0
C634 C 0.15511 0.27775 0.26391 0.0
C635 C 0.16998 0.32178 0.21986 0.0
C636 C 0.18879 0.3694 0.2041 0.0
C637 C 0.17172 0.32497 0.24819 0.0
C638 C 0.2087 0.42036 0.21695 0.0
C639 C 0.20911 0.4237 0.2452 0.0
H640 H 0.83178 0.23203 0.71567 0.0
H641 H 0.93608 0.16059 0.70915 0.0
H642 H 0.93895 0.15479 0.75831 0.0
H643 H 0.91022 0.16788 0.8031 0.0
H644 H 0.80117 0.23364 0.80994 0.0
H645 H 0.80207 0.24423 0.76075 0.0
C646 C 0.85529 0.21543 0.72506 0.0
C647 C 0.88365 0.19678 0.70882 0.0
C648 C 0.85602 0.21133 0.75338 0.0
C649 C 0.91353 0.17484 0.72121 0.0
C650 C 0.9154 0.17171 0.74932 0.0
C651 C 0.88718 0.18514 0.79384 0.0
C652 C 0.85606 0.20039 0.81008 0.0
C653 C 0.88667 0.18963 0.76559 0.0
C654 C 0.82551 0.22167 0.7978 0.0
C655 C 0.82596 0.22767 0.76971 0.0
H656 H 0.60267 0.81175 0.21462 0.0
H657 H 0.77185 0.85318 0.20562 0.0
H658 H 0.77964 0.84573 0.25412 0.0
H659 H 0.74083 0.83197 0.29927 0.0
H660 H 0.57148 0.78707 0.30977 0.0
H661 H 0.56127 0.7911 0.26054 0.0
C662 C 0.64105 0.81868 0.22326 0.0
C663 C 0.68664 0.83336 0.20635 0.0
C664 C 0.6454 0.81403 0.25146 0.0
C665 C 0.73596 0.84179 0.21796 0.0
C666 C 0.74067 0.83777 0.2458 0.0
C667 C 0.7016 0.82303 0.29081 0.0
C668 C 0.65714 0.8099 0.30806 0.0
C669 C 0.69601 0.82473 0.26273 0.0
C670 C 0.6063 0.79734 0.29681 0.0
C671 C 0.60057 0.7998 0.26872 0.0
H672 H 0.81459 0.61376 0.71874 0.0
H673 H 0.89883 0.79009 0.71132 0.0
H674 H 0.90953 0.79941 0.76036 0.0
H675 H 0.89595 0.75768 0.80546 0.0
H676 H 0.81699 0.58171 0.81286 0.0
H677 H 0.80305 0.57202 0.76385 0.0
C678 C 0.83515 0.6542 0.72788 0.0
C679 C 0.85576 0.70112 0.71137 0.0
C680 C 0.84206 0.65934 0.75613 0.0
C681 C 0.88283 0.75326 0.72351 0.0
C682 C 0.88882 0.75867 0.75159 0.0
C683 C 0.87534 0.71722 0.79634 0.0
C684 C 0.85723 0.67047 0.81274 0.0
C685 C 0.86868 0.71203 0.7681 0.0
C686 C 0.8314 0.61833 0.80063 0.0
C687 C 0.82338 0.61276 0.77262 0.0
H688 H 0.21447 0.79972 0.2209 0.0
H689 H 0.15467 0.91421 0.21557 0.0
H690 H 0.15184 0.91816 0.26463 0.0
H691 H 0.16546 0.88916 0.30917 0.0
H692 H 0.23065 0.7796 0.31566 0.0
H693 H 0.23202 0.77347 0.26619 0.0
C694 C 0.201 0.82562 0.23051 0.0
C695 C 0.18481 0.85656 0.21448 0.0
C696 C 0.2001 0.82838 0.25898 0.0
C697 C 0.1678 0.89022 0.22729 0.0
C698 C 0.16584 0.89235 0.25542 0.0
C699 C 0.17957 0.86357 0.29977 0.0
C700 C 0.19728 0.83435 0.31602 0.0
C701 C 0.18162 0.86146 0.27145 0.0
C702 C 0.21661 0.80234 0.30355 0.0
C703 C 0.21743 0.79887 0.27528 0.0
H704 H 0.28754 0.14961 0.80383 0.0
H705 H 0.46189 0.21647 0.8131 0.0
H706 H 0.47243 0.21674 0.76405 0.0
H707 H 0.43279 0.20103 0.71848 0.0
H708 H 0.2589 0.13782 0.70895 0.0
H709 H 0.2477 0.13358 0.758 0.0
C710 C 0.32768 0.1635 0.79509 0.0
C711 C 0.37381 0.18271 0.81207 0.0
C712 C 0.33369 0.1649 0.76678 0.0
C713 C 0.42573 0.20149 0.80045 0.0
C714 C 0.43183 0.2018 0.7724 0.0
C715 C 0.3924 0.18633 0.72708 0.0
C716 C 0.34685 0.16996 0.70994 0.0
C717 C 0.38622 0.18425 0.75535 0.0
C718 C 0.29485 0.15111 0.72156 0.0
C719 C 0.2883 0.14839 0.74967 0.0
H720 H 0.24081 0.20487 0.96625 0.0
H721 H 0.41338 0.31196 0.98162 0.0
H722 H 0.39179 0.35329 0.01956 0.0
H723 H 0.32412 0.3599 0.04825 0.0
H724 H 0.1516 0.25197 0.03355 0.0
H725 H 0.173 0.21078 0.99534 0.0
C726 C 0.27373 0.23671 0.97812 0.0
C727 C 0.32867 0.25498 0.9711 0.0
C728 C 0.26106 0.26089 0.9998 0.0
C729 C 0.37072 0.29692 0.98653 0.0
C730 C 0.35844 0.32084 1.00819 0.0
C731 C 0.29118 0.32798 0.03642 0.0
C732 C 0.23633 0.3096 0.04355 0.0
C733 C 0.30379 0.30359 0.01484 0.0
C734 C 0.19419 0.26722 0.02839 0.0
C735 C 0.20639 0.2434 1.00662 0.0
H736 H 0.04453 0.34259 0.46357 0.0
H737 H 0.11346 0.2387 0.48062 0.0
H738 H 0.05212 0.19906 0.51918 0.0
H739 H 0.97852 0.19303 0.54793 0.0
H740 H 0.91091 0.29838 0.53227 0.0
H741 H 0.9711 0.33728 0.49296 0.0
C742 C 0.04679 0.31195 0.47598 0.0
C743 C 0.08393 0.29396 0.46922 0.0
C744 C 1.01064 0.28854 0.498 0.0
C745 C 0.08552 0.25352 0.48535 0.0
C746 C 0.05012 0.23046 0.50732 0.0
C747 C 0.97598 0.22359 0.53556 0.0
C748 C 0.93941 0.24195 0.54271 0.0
C749 C 1.01202 0.24709 0.51361 0.0
C750 C 0.93808 0.28294 0.52696 0.0
C751 C 0.9729 0.30558 0.50464 0.0
H752 H 0.80553 0.98511 0.04987 0.0
H753 H 0.63758 0.94845 0.04308 0.0
H754 H 0.66182 1.00991 1.0042 0.0
H755 H 0.73039 0.07305 0.97167 0.0
H756 H 0.89789 0.10833 0.97816 0.0
H757 H 0.87416 0.04901 0.01784 0.0
C758 C 0.774 0.99004 0.03977 0.0
C759 C 0.71962 0.96162 0.0493 0.0
C760 C 0.78829 0.0258 0.01754 0.0
C761 C 0.67968 0.96947 0.03615 0.0
C762 C 0.69355 1.00481 0.01395 0.0
C763 C 0.76192 0.06845 0.98199 0.0
C764 C 0.81597 0.09548 0.97201 0.0
C765 C 0.74775 0.0333 1.0045 0.0
C766 C 0.85602 0.08821 0.98542 0.0
C767 C 0.84244 0.05405 1.00805 0.0
H768 H 0.84929 0.79708 0.547 0.0
H769 H 0.73321 0.62373 0.54111 0.0
H770 H 0.69189 0.64013 0.50132 0.0
H771 H 0.68662 0.70367 0.46901 0.0
H772 H 0.80284 0.87693 0.4745 0.0
H773 H 0.84559 0.8605 0.51382 0.0
C774 C 0.81551 0.76268 0.5368 0.0
C775 C 0.79462 0.70913 0.54712 0.0
C776 C 0.79122 0.77249 0.51412 0.0
C777 C 0.75033 0.66533 0.5337 0.0
C778 C 0.72639 0.67471 0.51099 0.0
C779 C 0.72086 0.73803 0.47898 0.0
C780 C 0.74085 0.79163 0.46899 0.0
C781 C 0.74591 0.72818 0.50129 0.0
C782 C 0.78616 0.83534 0.48186 0.0
C783 C 0.81087 0.82593 0.50428 0.0
H784 H 0.99983 0.80576 0.96862 0.0
H785 H 0.91849 0.63336 0.98838 0.0
H786 H 0.9764 0.65313 0.02833 0.0
H787 H 0.05078 0.71902 0.05751 0.0
H788 H 0.13117 0.89157 0.03852 0.0
H789 H 0.07371 0.872 0.99823 0.0
C790 C 0.99418 0.7726 0.98189 0.0
C791 C 0.95452 0.71817 0.97557 0.0
C792 C 0.02817 0.78416 1.00473 0.0
C793 C 0.94851 0.67565 0.99277 0.0
C794 C 0.98183 0.68686 0.01558 0.0
C795 C 0.05632 0.75226 0.04433 0.0
C796 C 0.09574 0.80658 0.0508 0.0
C797 C 1.02219 0.74085 0.0216 0.0
C798 C 0.1014 0.84933 0.03387 0.0
C799 C 0.06832 0.83821 0.01092 0.0
H800 H 0.3253 0.97195 0.47337 0.0
H801 H 0.15507 0.92595 0.48216 0.0
H802 H 0.17899 0.99301 0.5184 0.0
H803 H 0.24777 0.06419 0.54772 0.0
H804 H 0.41806 0.10992 0.53971 0.0
H805 H 0.39466 0.04435 0.50262 0.0
C806 C 0.29332 0.97598 0.48349 0.0
C807 C 0.23833 0.94335 0.47525 0.0
C808 C 0.30748 0.0154 0.50407 0.0
C809 C 0.19764 0.95015 0.4882 0.0
C810 C 0.21132 0.98878 0.50882 0.0
C811 C 0.28005 0.06068 0.53758 0.0
C812 C 0.33476 0.09244 0.54638 0.0
C813 C 0.26612 0.02189 0.51678 0.0
C814 C 0.3757 0.08633 0.53326 0.0
C815 C 0.36227 0.0485 0.51218 0.0
loop_
_geom_bond_atom_site_label_1
_geom_bond_atom_site_label_2
_geom_bond_distance
_geom_bond_site_symmetry_2
_ccdc_geom_bond_type
Tb0 O3 2.453 . S
Tb0 O4 2.596 . S
Tb0 O5 2.374 . S
Tb0 O13 2.343 . S
Tb0 O15 2.353 . S
Tb0 O17 2.427 . S
Tb0 O18 2.513 . S
C1 O5 1.251 . S
C1 O7 1.263 . S
Tb2 O4 2.343 . S
Tb2 O7 2.353 . S
Tb2 O10 2.427 . S
Tb2 O11 2.513 . S
Tb2 O12 2.453 . S
Tb2 O13 2.596 . S
Tb2 O14 2.374 . S
O3 Tb0 2.453 . S
O3 C19 1.245 . S
O4 Tb0 2.596 . S
O4 Tb2 2.343 . S
O4 C19 1.259 . S
O5 Tb0 2.374 . S
O5 C1 1.251 . S
C6 O10 1.275 . S
C6 O11 1.246 . S
O7 C1 1.263 . S
O7 Tb2 2.353 . S
C8 O12 1.245 . S
C8 O13 1.259 . S
C9 O14 1.250 . S
C9 O15 1.263 . S
O10 Tb2 2.427 . S
O10 C6 1.275 . S
O11 Tb2 2.513 . S
O11 C6 1.246 . S
O12 Tb2 2.453 . S
O12 C8 1.245 . S
O13 Tb0 2.343 . S
O13 Tb2 2.596 . S
O13 C8 1.259 . S
O14 Tb2 2.374 . S
O14 C9 1.250 . S
O15 Tb0 2.353 . S
O15 C9 1.263 . S
C16 O17 1.275 . S
C16 O18 1.246 . S
O17 Tb0 2.427 . S
O17 C16 1.275 . S
O18 Tb0 2.513 . S
O18 C16 1.246 . S
C19 O3 1.245 . S
C19 O4 1.259 . S
Tb20 O23 2.453 . S
Tb20 O24 2.596 . S
Tb20 O25 2.374 . S
Tb20 O33 2.343 . S
Tb20 O35 2.353 . S
Tb20 O37 2.427 . S
Tb20 O38 2.513 . S
C21 O25 1.251 . S
C21 O27 1.263 . S
Tb22 O24 2.343 . S
Tb22 O27 2.353 . S
Tb22 O30 2.427 . S
Tb22 O31 2.513 . S
Tb22 O32 2.453 . S
Tb22 O33 2.596 . S
Tb22 O34 2.374 . S
O23 Tb20 2.453 . S
O23 C39 1.245 . S
O24 Tb20 2.596 . S
O24 Tb22 2.343 . S
O24 C39 1.259 . S
O25 Tb20 2.374 . S
O25 C21 1.251 . S
C26 O30 1.275 . S
C26 O31 1.246 . S
O27 C21 1.263 . S
O27 Tb22 2.353 . S
C28 O32 1.245 . S
C28 O33 1.259 . S
C29 O34 1.250 . S
C29 O35 1.263 . S
O30 Tb22 2.427 . S
O30 C26 1.275 . S
O31 Tb22 2.513 . S
O31 C26 1.246 . S
O32 Tb22 2.453 . S
O32 C28 1.245 . S
O33 Tb20 2.343 . S
O33 Tb22 2.596 . S
O33 C28 1.259 . S
O34 Tb22 2.374 . S
O34 C29 1.250 . S
O35 Tb20 2.353 . S
O35 C29 1.263 . S
C36 O37 1.275 . S
C36 O38 1.246 . S
O37 Tb20 2.427 . S
O37 C36 1.275 . S
O38 Tb20 2.513 . S
O38 C36 1.246 . S
C39 O23 1.245 . S
C39 O24 1.259 . S
Tb40 O43 2.453 . S
Tb40 O44 2.596 . S
Tb40 O45 2.374 . S
Tb40 O53 2.343 . S
Tb40 O55 2.353 . S
Tb40 O57 2.427 . S
Tb40 O58 2.513 . S
C41 O45 1.251 . S
C41 O47 1.263 . S
Tb42 O44 2.343 . S
Tb42 O47 2.353 . S
Tb42 O50 2.427 . S
Tb42 O51 2.513 . S
Tb42 O52 2.453 . S
Tb42 O53 2.596 . S
Tb42 O54 2.374 . S
O43 Tb40 2.453 . S
O43 C59 1.245 . S
O44 Tb40 2.596 . S
O44 Tb42 2.343 . S
O44 C59 1.259 . S
O45 Tb40 2.374 . S
O45 C41 1.251 . S
C46 O50 1.275 . S
C46 O51 1.246 . S
O47 C41 1.263 . S
O47 Tb42 2.353 . S
C48 O52 1.245 . S
C48 O53 1.259 . S
C49 O54 1.250 . S
C49 O55 1.263 . S
O50 Tb42 2.427 . S
O50 C46 1.275 . S
O51 Tb42 2.513 . S
O51 C46 1.246 . S
O52 Tb42 2.453 . S
O52 C48 1.245 . S
O53 Tb40 2.343 . S
O53 Tb42 2.596 . S
O53 C48 1.259 . S
O54 Tb42 2.374 . S
O54 C49 1.250 . S
O55 Tb40 2.353 . S
O55 C49 1.263 . S
C56 O57 1.275 . S
C56 O58 1.246 . S
O57 Tb40 2.427 . S
O57 C56 1.275 . S
O58 Tb40 2.513 . S
O58 C56 1.246 . S
C59 O43 1.245 . S
C59 O44 1.259 . S
Tb60 O63 2.453 . S
Tb60 O64 2.596 . S
Tb60 O65 2.374 . S
Tb60 O73 2.343 . S
Tb60 O75 2.353 . S
Tb60 O77 2.427 . S
Tb60 O78 2.513 . S
C61 O65 1.251 . S
C61 O67 1.263 . S
Tb62 O64 2.343 . S
Tb62 O67 2.353 . S
Tb62 O70 2.427 . S
Tb62 O71 2.513 . S
Tb62 O72 2.453 . S
Tb62 O73 2.596 . S
Tb62 O74 2.374 . S
O63 Tb60 2.453 . S
O63 C79 1.245 . S
O64 Tb60 2.596 . S
O64 Tb62 2.343 . S
O64 C79 1.259 . S
O65 Tb60 2.374 . S
O65 C61 1.251 . S
C66 O70 1.275 . S
C66 O71 1.246 . S
O67 C61 1.263 . S
O67 Tb62 2.353 . S
C68 O72 1.245 . S
C68 O73 1.259 . S
C69 O74 1.250 . S
C69 O75 1.263 . S
O70 Tb62 2.427 . S
O70 C66 1.275 . S
O71 Tb62 2.513 . S
O71 C66 1.246 . S
O72 Tb62 2.453 . S
O72 C68 1.245 . S
O73 Tb60 2.343 . S
O73 Tb62 2.596 . S
O73 C68 1.259 . S
O74 Tb62 2.374 . S
O74 C69 1.250 . S
O75 Tb60 2.353 . S
O75 C69 1.263 . S
C76 O77 1.275 . S
C76 O78 1.246 . S
O77 Tb60 2.427 . S
O77 C76 1.275 . S
O78 Tb60 2.513 . S
O78 C76 1.246 . S
C79 O63 1.245 . S
C79 O64 1.259 . S
Tb80 O83 2.453 . S
Tb80 O84 2.596 . S
Tb80 O85 2.374 . S
Tb80 O93 2.343 . S
Tb80 O95 2.353 . S
Tb80 O97 2.427 . S
Tb80 O98 2.513 . S
C81 O85 1.251 . S
C81 O87 1.263 . S
Tb82 O84 2.343 . S
Tb82 O87 2.353 . S
Tb82 O90 2.427 . S
Tb82 O91 2.513 . S
Tb82 O92 2.453 . S
Tb82 O93 2.596 . S
Tb82 O94 2.374 . S
O83 Tb80 2.453 . S
O83 C99 1.245 . S
O84 Tb80 2.596 . S
O84 Tb82 2.343 . S
O84 C99 1.259 . S
O85 Tb80 2.374 . S
O85 C81 1.251 . S
C86 O90 1.275 . S
C86 O91 1.246 . S
O87 C81 1.263 . S
O87 Tb82 2.353 . S
C88 O92 1.245 . S
C88 O93 1.259 . S
C89 O94 1.250 . S
C89 O95 1.263 . S
O90 Tb82 2.427 . S
O90 C86 1.275 . S
O91 Tb82 2.513 . S
O91 C86 1.246 . S
O92 Tb82 2.453 . S
O92 C88 1.245 . S
O93 Tb80 2.343 . S
O93 Tb82 2.596 . S
O93 C88 1.259 . S
O94 Tb82 2.374 . S
O94 C89 1.250 . S
O95 Tb80 2.353 . S
O95 C89 1.263 . S
C96 O97 1.275 . S
C96 O98 1.246 . S
O97 Tb80 2.427 . S
O97 C96 1.275 . S
O98 Tb80 2.513 . S
O98 C96 1.246 . S
C99 O83 1.245 . S
C99 O84 1.259 . S
Tb100 O103 2.453 . S
Tb100 O104 2.596 . S
Tb100 O105 2.374 . S
Tb100 O113 2.343 . S
Tb100 O115 2.353 . S
Tb100 O117 2.427 . S
Tb100 O118 2.513 . S
C101 O105 1.251 . S
C101 O107 1.263 . S
Tb102 O104 2.343 . S
Tb102 O107 2.353 . S
Tb102 O110 2.427 . S
Tb102 O111 2.513 . S
Tb102 O112 2.453 . S
Tb102 O113 2.596 . S
Tb102 O114 2.374 . S
O103 Tb100 2.453 . S
O103 C119 1.245 . S
O104 Tb100 2.596 . S
O104 Tb102 2.343 . S
O104 C119 1.259 . S
O105 Tb100 2.374 . S
O105 C101 1.251 . S
C106 O110 1.275 . S
C106 O111 1.246 . S
O107 C101 1.263 . S
O107 Tb102 2.353 . S
C108 O112 1.245 . S
C108 O113 1.259 . S
C109 O114 1.250 . S
C109 O115 1.263 . S
O110 Tb102 2.427 . S
O110 C106 1.275 . S
O111 Tb102 2.513 . S
O111 C106 1.246 . S
O112 Tb102 2.453 . S
O112 C108 1.245 . S
O113 Tb100 2.343 . S
O113 Tb102 2.596 . S
O113 C108 1.259 . S
O114 Tb102 2.374 . S
O114 C109 1.250 . S
O115 Tb100 2.353 . S
O115 C109 1.263 . S
C116 O117 1.275 . S
C116 O118 1.246 . S
O117 Tb100 2.427 . S
O117 C116 1.275 . S
O118 Tb100 2.513 . S
O118 C116 1.246 . S
C119 O103 1.245 . S
C119 O104 1.259 . S
Tb120 O123 2.453 . S
Tb120 O124 2.596 . S
Tb120 O125 2.374 . S
Tb120 O133 2.343 . S
Tb120 O135 2.353 . S
Tb120 O137 2.427 . S
Tb120 O138 2.513 . S
C121 O125 1.251 . S
C121 O127 1.263 . S
Tb122 O124 2.343 . S
Tb122 O127 2.353 . S
Tb122 O130 2.427 . S
Tb122 O131 2.513 . S
Tb122 O132 2.453 . S
Tb122 O133 2.596 . S
Tb122 O134 2.374 . S
O123 Tb120 2.453 . S
O123 C139 1.245 . S
O124 Tb120 2.596 . S
O124 Tb122 2.343 . S
O124 C139 1.259 . S
O125 Tb120 2.374 . S
O125 C121 1.251 . S
C126 O130 1.275 . S
C126 O131 1.246 . S
O127 C121 1.263 . S
O127 Tb122 2.353 . S
C128 O132 1.245 . S
C128 O133 1.259 . S
C129 O134 1.250 . S
C129 O135 1.263 . S
O130 Tb122 2.427 . S
O130 C126 1.275 . S
O131 Tb122 2.513 . S
O131 C126 1.246 . S
O132 Tb122 2.453 . S
O132 C128 1.245 . S
O133 Tb120 2.343 . S
O133 Tb122 2.596 . S
O133 C128 1.259 . S
O134 Tb122 2.374 . S
O134 C129 1.250 . S
O135 Tb120 2.353 . S
O135 C129 1.263 . S
C136 O137 1.275 . S
C136 O138 1.246 . S
O137 Tb120 2.427 . S
O137 C136 1.275 . S
O138 Tb120 2.513 . S
O138 C136 1.246 . S
C139 O123 1.245 . S
C139 O124 1.259 . S
Tb140 O143 2.453 . S
Tb140 O144 2.596 . S
Tb140 O145 2.374 . S
Tb140 O153 2.343 . S
Tb140 O155 2.353 . S
Tb140 O157 2.427 . S
Tb140 O158 2.513 . S
C141 O145 1.251 . S
C141 O147 1.263 . S
Tb142 O144 2.343 . S
Tb142 O147 2.353 . S
Tb142 O150 2.427 . S
Tb142 O151 2.513 . S
Tb142 O152 2.453 . S
Tb142 O153 2.596 . S
Tb142 O154 2.374 . S
O143 Tb140 2.453 . S
O143 C159 1.245 . S
O144 Tb140 2.596 . S
O144 Tb142 2.343 . S
O144 C159 1.259 . S
O145 Tb140 2.374 . S
O145 C141 1.251 . S
C146 O150 1.275 . S
C146 O151 1.246 . S
O147 C141 1.263 . S
O147 Tb142 2.353 . S
C148 O152 1.245 . S
C148 O153 1.259 . S
C149 O154 1.250 . S
C149 O155 1.263 . S
O150 Tb142 2.427 . S
O150 C146 1.275 . S
O151 Tb142 2.513 . S
O151 C146 1.246 . S
O152 Tb142 2.453 . S
O152 C148 1.245 . S
O153 Tb140 2.343 . S
O153 Tb142 2.596 . S
O153 C148 1.259 . S
O154 Tb142 2.374 . S
O154 C149 1.250 . S
O155 Tb140 2.353 . S
O155 C149 1.263 . S
C156 O157 1.275 . S
C156 O158 1.246 . S
O157 Tb140 2.427 . S
O157 C156 1.275 . S
O158 Tb140 2.513 . S
O158 C156 1.246 . S
C159 O143 1.245 . S
C159 O144 1.259 . S
Tb160 O163 2.453 . S
Tb160 O164 2.596 . S
Tb160 O165 2.374 . S
Tb160 O173 2.343 . S
Tb160 O175 2.353 . S
Tb160 O177 2.427 . S
Tb160 O178 2.513 . S
C161 O165 1.251 . S
C161 O167 1.263 . S
Tb162 O164 2.343 . S
Tb162 O167 2.353 . S
Tb162 O170 2.427 . S
Tb162 O171 2.513 . S
Tb162 O172 2.453 . S
Tb162 O173 2.596 . S
Tb162 O174 2.374 . S
O163 Tb160 2.453 . S
O163 C179 1.245 . S
O164 Tb160 2.596 . S
O164 Tb162 2.343 . S
O164 C179 1.259 . S
O165 Tb160 2.374 . S
O165 C161 1.251 . S
C166 O170 1.275 . S
C166 O171 1.246 . S
O167 C161 1.263 . S
O167 Tb162 2.353 . S
C168 O172 1.245 . S
C168 O173 1.259 . S
C169 O174 1.250 . S
C169 O175 1.263 . S
O170 Tb162 2.427 . S
O170 C166 1.275 . S
O171 Tb162 2.513 . S
O171 C166 1.246 . S
O172 Tb162 2.453 . S
O172 C168 1.245 . S
O173 Tb160 2.343 . S
O173 Tb162 2.596 . S
O173 C168 1.259 . S
O174 Tb162 2.374 . S
O174 C169 1.250 . S
O175 Tb160 2.353 . S
O175 C169 1.263 . S
C176 O177 1.275 . S
C176 O178 1.246 . S
O177 Tb160 2.427 . S
O177 C176 1.275 . S
O178 Tb160 2.513 . S
O178 C176 1.246 . S
C179 O163 1.245 . S
C179 O164 1.259 . S
Tb180 O183 2.453 . S
Tb180 O184 2.596 . S
Tb180 O185 2.374 . S
Tb180 O193 2.343 . S
Tb180 O195 2.353 . S
Tb180 O197 2.427 . S
Tb180 O198 2.513 . S
C181 O185 1.251 . S
C181 O187 1.263 . S
Tb182 O184 2.343 . S
Tb182 O187 2.353 . S
Tb182 O190 2.427 . S
Tb182 O191 2.513 . S
Tb182 O192 2.453 . S
Tb182 O193 2.596 . S
Tb182 O194 2.374 . S
O183 Tb180 2.453 . S
O183 C199 1.245 . S
O184 Tb180 2.596 . S
O184 Tb182 2.343 . S
O184 C199 1.259 . S
O185 Tb180 2.374 . S
O185 C181 1.251 . S
C186 O190 1.275 . S
C186 O191 1.246 . S
O187 C181 1.263 . S
O187 Tb182 2.353 . S
C188 O192 1.245 . S
C188 O193 1.259 . S
C189 O194 1.250 . S
C189 O195 1.263 . S
O190 Tb182 2.427 . S
O190 C186 1.275 . S
O191 Tb182 2.513 . S
O191 C186 1.246 . S
O192 Tb182 2.453 . S
O192 C188 1.245 . S
O193 Tb180 2.343 . S
O193 Tb182 2.596 . S
O193 C188 1.259 . S
O194 Tb182 2.374 . S
O194 C189 1.250 . S
O195 Tb180 2.353 . S
O195 C189 1.263 . S
C196 O197 1.275 . S
C196 O198 1.246 . S
O197 Tb180 2.427 . S
O197 C196 1.275 . S
O198 Tb180 2.513 . S
O198 C196 1.246 . S
C199 O183 1.245 . S
C199 O184 1.259 . S
Tb200 O203 2.453 . S
Tb200 O204 2.596 . S
Tb200 O205 2.374 . S
Tb200 O213 2.343 . S
Tb200 O215 2.353 . S
Tb200 O217 2.427 . S
Tb200 O218 2.513 . S
C201 O205 1.251 . S
C201 O207 1.263 . S
Tb202 O204 2.343 . S
Tb202 O207 2.353 . S
Tb202 O210 2.427 . S
Tb202 O211 2.513 . S
Tb202 O212 2.453 . S
Tb202 O213 2.596 . S
Tb202 O214 2.374 . S
O203 Tb200 2.453 . S
O203 C219 1.245 . S
O204 Tb200 2.596 . S
O204 Tb202 2.343 . S
O204 C219 1.259 . S
O205 Tb200 2.374 . S
O205 C201 1.251 . S
C206 O210 1.275 . S
C206 O211 1.246 . S
O207 C201 1.263 . S
O207 Tb202 2.353 . S
C208 O212 1.245 . S
C208 O213 1.259 . S
C209 O214 1.250 . S
C209 O215 1.263 . S
O210 Tb202 2.427 . S
O210 C206 1.275 . S
O211 Tb202 2.513 . S
O211 C206 1.246 . S
O212 Tb202 2.453 . S
O212 C208 1.245 . S
O213 Tb200 2.343 . S
O213 Tb202 2.596 . S
O213 C208 1.259 . S
O214 Tb202 2.374 . S
O214 C209 1.250 . S
O215 Tb200 2.353 . S
O215 C209 1.263 . S
C216 O217 1.275 . S
C216 O218 1.246 . S
O217 Tb200 2.427 . S
O217 C216 1.275 . S
O218 Tb200 2.513 . S
O218 C216 1.246 . S
C219 O203 1.245 . S
C219 O204 1.259 . S
Tb220 O223 2.453 . S
Tb220 O224 2.596 . S
Tb220 O225 2.374 . S
Tb220 O233 2.343 . S
Tb220 O235 2.353 . S
Tb220 O237 2.427 . S
Tb220 O238 2.513 . S
C221 O225 1.251 . S
C221 O227 1.263 . S
Tb222 O224 2.343 . S
Tb222 O227 2.353 . S
Tb222 O230 2.427 . S
Tb222 O231 2.513 . S
Tb222 O232 2.453 . S
Tb222 O233 2.596 . S
Tb222 O234 2.374 . S
O223 Tb220 2.453 . S
O223 C239 1.245 . S
O224 Tb220 2.596 . S
O224 Tb222 2.343 . S
O224 C239 1.259 . S
O225 Tb220 2.374 . S
O225 C221 1.251 . S
C226 O230 1.275 . S
C226 O231 1.246 . S
O227 C221 1.263 . S
O227 Tb222 2.353 . S
C228 O232 1.245 . S
C228 O233 1.259 . S
C229 O234 1.250 . S
C229 O235 1.263 . S
O230 Tb222 2.427 . S
O230 C226 1.275 . S
O231 Tb222 2.513 . S
O231 C226 1.246 . S
O232 Tb222 2.453 . S
O232 C228 1.245 . S
O233 Tb220 2.343 . S
O233 Tb222 2.596 . S
O233 C228 1.259 . S
O234 Tb222 2.374 . S
O234 C229 1.250 . S
O235 Tb220 2.353 . S
O235 C229 1.263 . S
C236 O237 1.275 . S
C236 O238 1.246 . S
O237 Tb220 2.427 . S
O237 C236 1.275 . S
O238 Tb220 2.513 . S
O238 C236 1.246 . S
C239 O223 1.245 . S
C239 O224 1.259 . S
H240 C246 0.930 . S
H241 C249 0.930 . S
H242 C250 0.930 . S
H243 C251 0.930 . S
H244 C254 0.930 . S
H245 C255 0.930 . S
C246 H240 0.930 . S
C246 C247 1.355 . S
C246 C248 1.415 . S
C247 C246 1.355 . S
C247 C249 1.419 . S
C248 C246 1.415 . S
C248 C253 1.425 . S
C248 C255 1.409 . S
C249 H241 0.930 . S
C249 C247 1.419 . S
C249 C250 1.362 . S
C250 H242 0.930 . S
C250 C249 1.362 . S
C250 C253 1.409 . S
C251 H243 0.930 . S
C251 C252 1.355 . S
C251 C253 1.415 . S
C252 C251 1.355 . S
C252 C254 1.419 . S
C253 C248 1.425 . S
C253 C250 1.409 . S
C253 C251 1.415 . S
C254 H244 0.930 . S
C254 C252 1.419 . S
C254 C255 1.362 . S
C255 H245 0.930 . S
C255 C248 1.409 . S
C255 C254 1.362 . S
H256 C262 0.930 . S
H257 C265 0.930 . S
H258 C266 0.930 . S
H259 C267 0.930 . S
H260 C270 0.930 . S
H261 C271 0.930 . S
C262 H256 0.930 . S
C262 C263 1.355 . S
C262 C264 1.415 . S
C263 C262 1.355 . S
C263 C265 1.419 . S
C264 C262 1.415 . S
C264 C269 1.425 . S
C264 C271 1.409 . S
C265 H257 0.930 . S
C265 C263 1.419 . S
C265 C266 1.362 . S
C266 H258 0.930 . S
C266 C265 1.362 . S
C266 C269 1.409 . S
C267 H259 0.930 . S
C267 C268 1.355 . S
C267 C269 1.415 1_655 S
C268 C267 1.355 . S
C268 C270 1.419 1_655 S
C269 C264 1.425 . S
C269 C266 1.409 . S
C269 C267 1.415 1_455 S
C270 H260 0.930 . S
C270 C268 1.419 1_455 S
C270 C271 1.362 . S
C271 H261 0.930 . S
C271 C264 1.409 . S
C271 C270 1.362 . S
H272 C278 0.930 . S
H273 C281 0.930 . S
H274 C282 0.930 1_565 S
H275 C283 0.930 . S
H276 C286 0.930 . S
H277 C287 0.930 . S
C278 H272 0.930 . S
C278 C279 1.355 1_545 S
C278 C280 1.415 . S
C279 C278 1.355 1_565 S
C279 C281 1.419 . S
C280 C278 1.415 . S
C280 C285 1.425 . S
C280 C287 1.409 . S
C281 H273 0.930 . S
C281 C279 1.419 . S
C281 C282 1.362 1_565 S
C282 H274 0.930 1_545 S
C282 C281 1.362 1_545 S
C282 C285 1.409 . S
C283 H275 0.930 . S
C283 C284 1.355 . S
C283 C285 1.415 . S
C284 C283 1.355 . S
C284 C286 1.419 . S
C285 C280 1.425 . S
C285 C282 1.409 . S
C285 C283 1.415 . S
C286 H276 0.930 . S
C286 C284 1.419 . S
C286 C287 1.362 . S
C287 H277 0.930 . S
C287 C280 1.409 . S
C287 C286 1.362 . S
H288 C294 0.930 . S
H289 C297 0.930 . S
H290 C298 0.930 . S
H291 C299 0.930 . S
H292 C302 0.930 1_545 S
H293 C303 0.930 . S
C294 H288 0.930 . S
C294 C295 1.355 . S
C294 C296 1.415 . S
C295 C294 1.355 . S
C295 C297 1.419 . S
C296 C294 1.415 . S
C296 C301 1.425 . S
C296 C303 1.409 . S
C297 H289 0.930 . S
C297 C295 1.419 . S
C297 C298 1.362 . S
C298 H290 0.930 . S
C298 C297 1.362 . S
C298 C301 1.409 . S
C299 H291 0.930 . S
C299 C300 1.355 . S
C299 C301 1.415 . S
C300 C299 1.355 . S
C300 C302 1.419 . S
C301 C296 1.425 . S
C301 C298 1.409 . S
C301 C299 1.415 . S
C302 H292 0.930 1_565 S
C302 C300 1.419 . S
C302 C303 1.362 . S
C303 H293 0.930 . S
C303 C296 1.409 . S
C303 C302 1.362 . S
H304 C310 0.930 . S
H305 C313 0.930 . S
H306 C314 0.930 . S
H307 C315 0.930 . S
H308 C318 0.930 . S
H309 C319 0.930 . S
C310 H304 0.930 . S
C310 C311 1.355 1_655 S
C310 C312 1.415 . S
C311 C310 1.355 1_455 S
C311 C313 1.419 . S
C312 C310 1.415 . S
C312 C317 1.425 . S
C312 C319 1.409 . S
C313 H305 0.930 . S
C313 C311 1.419 . S
C313 C314 1.362 . S
C314 H306 0.930 . S
C314 C313 1.362 . S
C314 C317 1.409 1_455 S
C315 H307 0.930 . S
C315 C316 1.355 . S
C315 C317 1.415 . S
C316 C315 1.355 . S
C316 C318 1.419 . S
C317 C312 1.425 . S
C317 C314 1.409 1_655 S
C317 C315 1.415 . S
C318 H308 0.930 . S
C318 C316 1.419 . S
C318 C319 1.362 . S
C319 H309 0.930 . S
C319 C312 1.409 . S
C319 C318 1.362 . S
H320 C326 0.930 . S
H321 C329 0.930 1_655 S
H322 C330 0.930 . S
H323 C331 0.930 . S
H324 C334 0.930 . S
H325 C335 0.930 . S
C326 H320 0.930 . S
C326 C327 1.355 . S
C326 C328 1.415 . S
C327 C326 1.355 . S
C327 C329 1.419 . S
C328 C326 1.415 . S
C328 C333 1.425 . S
C328 C335 1.409 . S
C329 H321 0.930 1_455 S
C329 C327 1.419 . S
C329 C330 1.362 . S
C330 H322 0.930 . S
C330 C329 1.362 . S
C330 C333 1.409 . S
C331 H323 0.930 . S
C331 C332 1.355 . S
C331 C333 1.415 1_545 S
C332 C331 1.355 . S
C332 C334 1.419 1_545 S
C333 C328 1.425 . S
C333 C330 1.409 . S
C333 C331 1.415 1_565 S
C334 H324 0.930 . S
C334 C332 1.419 1_565 S
C334 C335 1.362 . S
C335 H325 0.930 . S
C335 C328 1.409 . S
C335 C334 1.362 . S
H336 C342 0.930 . S
H337 C345 0.930 . S
H338 C346 0.930 . S
H339 C347 0.930 . S
H340 C350 0.930 . S
H341 C351 0.930 . S
C342 H336 0.930 . S
C342 C343 1.355 . S
C342 C344 1.415 . S
C343 C342 1.355 . S
C343 C345 1.419 . S
C344 C342 1.415 . S
C344 C349 1.425 . S
C344 C351 1.409 . S
C345 H337 0.930 . S
C345 C343 1.419 . S
C345 C346 1.362 . S
C346 H338 0.930 . S
C346 C345 1.362 . S
C346 C349 1.409 . S
C347 H339 0.930 . S
C347 C348 1.355 . S
C347 C349 1.415 . S
C348 C347 1.355 . S
C348 C350 1.419 . S
C349 C344 1.425 . S
C349 C346 1.409 . S
C349 C347 1.415 . S
C350 H340 0.930 . S
C350 C348 1.419 . S
C350 C351 1.362 . S
C351 H341 0.930 . S
C351 C344 1.409 . S
C351 C350 1.362 . S
H352 C358 0.930 . S
H353 C361 0.930 . S
H354 C362 0.930 1_655 S
H355 C363 0.930 . S
H356 C366 0.930 . S
H357 C367 0.930 . S
C358 H352 0.930 . S
C358 C359 1.355 1_455 S
C358 C360 1.415 . S
C359 C358 1.355 1_655 S
C359 C361 1.419 . S
C360 C358 1.415 . S
C360 C365 1.425 . S
C360 C367 1.409 . S
C361 H353 0.930 . S
C361 C359 1.419 . S
C361 C362 1.362 1_655 S
C362 H354 0.930 1_455 S
C362 C361 1.362 1_455 S
C362 C365 1.409 . S
C363 H355 0.930 . S
C363 C364 1.355 . S
C363 C365 1.415 . S
C364 C363 1.355 . S
C364 C366 1.419 . S
C365 C360 1.425 . S
C365 C362 1.409 . S
C365 C363 1.415 . S
C366 H356 0.930 . S
C366 C364 1.419 . S
C366 C367 1.362 . S
C367 H357 0.930 . S
C367 C360 1.409 . S
C367 C366 1.362 . S
H368 C374 0.930 . S
H369 C377 0.930 . S
H370 C378 0.930 . S
H371 C379 0.930 . S
H372 C382 0.930 . S
H373 C383 0.930 . S
C374 H368 0.930 . S
C374 C375 1.355 . S
C374 C376 1.415 . S
C375 C374 1.355 . S
C375 C377 1.419 . S
C376 C374 1.415 . S
C376 C381 1.425 . S
C376 C383 1.409 . S
C377 H369 0.930 . S
C377 C375 1.419 . S
C377 C378 1.362 . S
C378 H370 0.930 . S
C378 C377 1.362 . S
C378 C381 1.409 . S
C379 H371 0.930 . S
C379 C380 1.355 . S
C379 C381 1.415 1_565 S
C380 C379 1.355 . S
C380 C382 1.419 1_565 S
C381 C376 1.425 . S
C381 C378 1.409 . S
C381 C379 1.415 1_545 S
C382 H372 0.930 . S
C382 C380 1.419 1_545 S
C382 C383 1.362 . S
C383 H373 0.930 . S
C383 C376 1.409 . S
C383 C382 1.362 . S
H384 C390 0.930 . S
H385 C393 0.930 . S
H386 C394 0.930 . S
H387 C395 0.930 . S
H388 C398 0.930 1_655 S
H389 C399 0.930 . S
C390 H384 0.930 . S
C390 C391 1.355 . S
C390 C392 1.415 . S
C391 C390 1.355 . S
C391 C393 1.419 . S
C392 C390 1.415 . S
C392 C397 1.425 . S
C392 C399 1.409 . S
C393 H385 0.930 . S
C393 C391 1.419 . S
C393 C394 1.362 . S
C394 H386 0.930 . S
C394 C393 1.362 . S
C394 C397 1.409 . S
C395 H387 0.930 . S
C395 C396 1.355 . S
C395 C397 1.415 . S
C396 C395 1.355 . S
C396 C398 1.419 . S
C397 C392 1.425 . S
C397 C394 1.409 . S
C397 C395 1.415 . S
C398 H388 0.930 1_455 S
C398 C396 1.419 . S
C398 C399 1.362 . S
C399 H389 0.930 . S
C399 C392 1.409 . S
C399 C398 1.362 . S
H400 C406 0.930 . S
H401 C409 0.930 . S
H402 C410 0.930 . S
H403 C411 0.930 . S
H404 C414 0.930 1_565 S
H405 C415 0.930 . S
C406 H400 0.930 . S
C406 C407 1.355 . S
C406 C408 1.415 1_455 S
C407 C406 1.355 . S
C407 C409 1.419 1_455 S
C408 C406 1.415 1_655 S
C408 C413 1.425 . S
C408 C415 1.409 . S
C409 H401 0.930 . S
C409 C407 1.419 1_655 S
C409 C410 1.362 . S
C410 H402 0.930 . S
C410 C409 1.362 . S
C410 C413 1.409 . S
C411 H403 0.930 . S
C411 C412 1.355 . S
C411 C413 1.415 . S
C412 C411 1.355 . S
C412 C414 1.419 . S
C413 C408 1.425 . S
C413 C410 1.409 . S
C413 C411 1.415 . S
C414 H404 0.930 1_545 S
C414 C412 1.419 . S
C414 C415 1.362 . S
C415 H405 0.930 . S
C415 C408 1.409 . S
C415 C414 1.362 . S
H416 C422 0.930 . S
H417 C425 0.930 . S
H418 C426 0.930 . S
H419 C427 0.930 . S
H420 C430 0.930 . S
H421 C431 0.930 . S
C422 H416 0.930 . S
C422 C423 1.355 . S
C422 C424 1.415 . S
C423 C422 1.355 . S
C423 C425 1.419 . S
C424 C422 1.415 . S
C424 C429 1.425 . S
C424 C431 1.409 1_565 S
C425 H417 0.930 . S
C425 C423 1.419 . S
C425 C426 1.362 . S
C426 H418 0.930 . S
C426 C425 1.362 . S
C426 C429 1.409 . S
C427 H419 0.930 . S
C427 C428 1.355 1_565 S
C427 C429 1.415 . S
C428 C427 1.355 1_545 S
C428 C430 1.419 . S
C429 C424 1.425 . S
C429 C426 1.409 . S
C429 C427 1.415 . S
C430 H420 0.930 . S
C430 C428 1.419 . S
C430 C431 1.362 . S
C431 H421 0.930 . S
C431 C424 1.409 1_545 S
C431 C430 1.362 . S
H432 C438 0.930 . S
H433 C441 0.930 . S
H434 C442 0.930 . S
H435 C443 0.930 . S
H436 C446 0.930 . S
H437 C447 0.930 . S
C438 H432 0.930 . S
C438 C439 1.355 . S
C438 C440 1.415 . S
C439 C438 1.355 . S
C439 C441 1.419 . S
C440 C438 1.415 . S
C440 C445 1.425 . S
C440 C447 1.409 . S
C441 H433 0.930 . S
C441 C439 1.419 . S
C441 C442 1.362 . S
C442 H434 0.930 . S
C442 C441 1.362 . S
C442 C445 1.409 . S
C443 H435 0.930 . S
C443 C444 1.355 . S
C443 C445 1.415 . S
C444 C443 1.355 . S
C444 C446 1.419 . S
C445 C440 1.425 . S
C445 C442 1.409 . S
C445 C443 1.415 . S
C446 H436 0.930 . S
C446 C444 1.419 . S
C446 C447 1.362 . S
C447 H437 0.930 . S
C447 C440 1.409 . S
C447 C446 1.362 . S
H448 C454 0.930 . S
H449 C457 0.930 . S
H450 C458 0.930 . S
H451 C459 0.930 . S
H452 C462 0.930 . S
H453 C463 0.930 . S
C454 H448 0.930 . S
C454 C455 1.355 . S
C454 C456 1.415 . S
C455 C454 1.355 . S
C455 C457 1.419 . S
C456 C454 1.415 . S
C456 C461 1.425 . S
C456 C463 1.409 . S
C457 H449 0.930 . S
C457 C455 1.419 . S
C457 C458 1.362 . S
C458 H450 0.930 . S
C458 C457 1.362 . S
C458 C461 1.409 . S
C459 H451 0.930 . S
C459 C460 1.355 . S
C459 C461 1.415 . S
C460 C459 1.355 . S
C460 C462 1.419 . S
C461 C456 1.425 . S
C461 C458 1.409 . S
C461 C459 1.415 . S
C462 H452 0.930 . S
C462 C460 1.419 . S
C462 C463 1.362 . S
C463 H453 0.930 . S
C463 C456 1.409 . S
C463 C462 1.362 . S
H464 C470 0.930 . S
H465 C473 0.930 . S
H466 C474 0.930 . S
H467 C475 0.930 . S
H468 C478 0.930 . S
H469 C479 0.930 . S
C470 H464 0.930 . S
C470 C471 1.355 . S
C470 C472 1.415 . S
C471 C470 1.355 . S
C471 C473 1.419 . S
C472 C470 1.415 . S
C472 C477 1.425 . S
C472 C479 1.409 . S
C473 H465 0.930 . S
C473 C471 1.419 . S
C473 C474 1.362 . S
C474 H466 0.930 . S
C474 C473 1.362 . S
C474 C477 1.409 . S
C475 H467 0.930 . S
C475 C476 1.355 . S
C475 C477 1.415 . S
C476 C475 1.355 . S
C476 C478 1.419 . S
C477 C472 1.425 . S
C477 C474 1.409 . S
C477 C475 1.415 . S
C478 H468 0.930 . S
C478 C476 1.419 . S
C478 C479 1.362 . S
C479 H469 0.930 . S
C479 C472 1.409 . S
C479 C478 1.362 . S
H480 C486 0.930 . S
H481 C489 0.930 . S
H482 C490 0.930 . S
H483 C491 0.930 . S
H484 C494 0.930 . S
H485 C495 0.930 . S
C486 H480 0.930 . S
C486 C487 1.355 . S
C486 C488 1.415 . S
C487 C486 1.355 . S
C487 C489 1.419 . S
C488 C486 1.415 . S
C488 C493 1.425 . S
C488 C495 1.409 . S
C489 H481 0.930 . S
C489 C487 1.419 . S
C489 C490 1.362 . S
C490 H482 0.930 . S
C490 C489 1.362 . S
C490 C493 1.409 . S
C491 H483 0.930 . S
C491 C492 1.355 . S
C491 C493 1.415 . S
C492 C491 1.355 . S
C492 C494 1.419 . S
C493 C488 1.425 . S
C493 C490 1.409 . S
C493 C491 1.415 . S
C494 H484 0.930 . S
C494 C492 1.419 . S
C494 C495 1.362 . S
C495 H485 0.930 . S
C495 C488 1.409 . S
C495 C494 1.362 . S
H496 C502 0.930 . S
H497 C505 0.930 . S
H498 C506 0.930 . S
H499 C507 0.930 . S
H500 C510 0.930 . S
H501 C511 0.930 . S
C502 H496 0.930 . S
C502 C503 1.355 . S
C502 C504 1.415 . S
C503 C502 1.355 . S
C503 C505 1.419 . S
C504 C502 1.415 . S
C504 C509 1.425 . S
C504 C511 1.409 . S
C505 H497 0.930 . S
C505 C503 1.419 . S
C505 C506 1.362 . S
C506 H498 0.930 . S
C506 C505 1.362 . S
C506 C509 1.409 . S
C507 H499 0.930 . S
C507 C508 1.355 . S
C507 C509 1.415 . S
C508 C507 1.355 . S
C508 C510 1.419 . S
C509 C504 1.425 . S
C509 C506 1.409 . S
C509 C507 1.415 . S
C510 H500 0.930 . S
C510 C508 1.419 . S
C510 C511 1.362 . S
C511 H501 0.930 . S
C511 C504 1.409 . S
C511 C510 1.362 . S
H512 C518 0.930 . S
H513 C521 0.930 . S
H514 C522 0.930 . S
H515 C523 0.930 . S
H516 C526 0.930 . S
H517 C527 0.930 . S
C518 H512 0.930 . S
C518 C519 1.355 . S
C518 C520 1.415 . S
C519 C518 1.355 . S
C519 C521 1.419 . S
C520 C518 1.415 . S
C520 C525 1.425 . S
C520 C527 1.409 . S
C521 H513 0.930 . S
C521 C519 1.419 . S
C521 C522 1.362 . S
C522 H514 0.930 . S
C522 C521 1.362 . S
C522 C525 1.409 . S
C523 H515 0.930 . S
C523 C524 1.355 . S
C523 C525 1.415 . S
C524 C523 1.355 . S
C524 C526 1.419 . S
C525 C520 1.425 . S
C525 C522 1.409 . S
C525 C523 1.415 . S
C526 H516 0.930 . S
C526 C524 1.419 . S
C526 C527 1.362 . S
C527 H517 0.930 . S
C527 C520 1.409 . S
C527 C526 1.362 . S
H528 C534 0.930 . S
H529 C537 0.930 . S
H530 C538 0.930 . S
H531 C539 0.930 . S
H532 C542 0.930 . S
H533 C543 0.930 . S
C534 H528 0.930 . S
C534 C535 1.355 . S
C534 C536 1.415 . S
C535 C534 1.355 . S
C535 C537 1.419 . S
C536 C534 1.415 . S
C536 C541 1.425 . S
C536 C543 1.409 . S
C537 H529 0.930 . S
C537 C535 1.419 . S
C537 C538 1.362 . S
C538 H530 0.930 . S
C538 C537 1.362 . S
C538 C541 1.409 . S
C539 H531 0.930 . S
C539 C540 1.355 . S
C539 C541 1.415 . S
C540 C539 1.355 . S
C540 C542 1.419 . S
C541 C536 1.425 . S
C541 C538 1.409 . S
C541 C539 1.415 . S
C542 H532 0.930 . S
C542 C540 1.419 . S
C542 C543 1.362 . S
C543 H533 0.930 . S
C543 C536 1.409 . S
C543 C542 1.362 . S
H544 C550 0.930 . S
H545 C553 0.930 . S
H546 C554 0.930 . S
H547 C555 0.930 . S
H548 C558 0.930 . S
H549 C559 0.930 . S
C550 H544 0.930 . S
C550 C551 1.355 . S
C550 C552 1.415 . S
C551 C550 1.355 . S
C551 C553 1.419 . S
C552 C550 1.415 . S
C552 C557 1.425 . S
C552 C559 1.409 . S
C553 H545 0.930 . S
C553 C551 1.419 . S
C553 C554 1.362 . S
C554 H546 0.930 . S
C554 C553 1.362 . S
C554 C557 1.409 . S
C555 H547 0.930 . S
C555 C556 1.355 . S
C555 C557 1.415 . S
C556 C555 1.355 . S
C556 C558 1.419 . S
C557 C552 1.425 . S
C557 C554 1.409 . S
C557 C555 1.415 . S
C558 H548 0.930 . S
C558 C556 1.419 . S
C558 C559 1.362 . S
C559 H549 0.930 . S
C559 C552 1.409 . S
C559 C558 1.362 . S
H560 C566 0.930 . S
H561 C569 0.930 . S
H562 C570 0.930 . S
H563 C571 0.930 . S
H564 C574 0.930 . S
H565 C575 0.930 . S
C566 H560 0.930 . S
C566 C567 1.355 . S
C566 C568 1.415 . S
C567 C566 1.355 . S
C567 C569 1.419 . S
C568 C566 1.415 . S
C568 C573 1.425 . S
C568 C575 1.409 . S
C569 H561 0.930 . S
C569 C567 1.419 . S
C569 C570 1.362 . S
C570 H562 0.930 . S
C570 C569 1.362 . S
C570 C573 1.409 . S
C571 H563 0.930 . S
C571 C572 1.355 . S
C571 C573 1.415 . S
C572 C571 1.355 . S
C572 C574 1.419 . S
C573 C568 1.425 . S
C573 C570 1.409 . S
C573 C571 1.415 . S
C574 H564 0.930 . S
C574 C572 1.419 . S
C574 C575 1.362 . S
C575 H565 0.930 . S
C575 C568 1.409 . S
C575 C574 1.362 . S
H576 C582 0.930 . S
H577 C585 0.930 . S
H578 C586 0.930 . S
H579 C587 0.930 . S
H580 C590 0.930 . S
H581 C591 0.930 . S
C582 H576 0.930 . S
C582 C583 1.355 . S
C582 C584 1.415 . S
C583 C582 1.355 . S
C583 C585 1.419 . S
C584 C582 1.415 . S
C584 C589 1.425 . S
C584 C591 1.409 . S
C585 H577 0.930 . S
C585 C583 1.419 . S
C585 C586 1.362 . S
C586 H578 0.930 . S
C586 C585 1.362 . S
C586 C589 1.409 . S
C587 H579 0.930 . S
C587 C588 1.355 . S
C587 C589 1.415 . S
C588 C587 1.355 . S
C588 C590 1.419 . S
C589 C584 1.425 . S
C589 C586 1.409 . S
C589 C587 1.415 . S
C590 H580 0.930 . S
C590 C588 1.419 . S
C590 C591 1.362 . S
C591 H581 0.930 . S
C591 C584 1.409 . S
C591 C590 1.362 . S
H592 C598 0.930 . S
H593 C601 0.930 . S
H594 C602 0.930 . S
H595 C603 0.930 . S
H596 C606 0.930 . S
H597 C607 0.930 . S
C598 H592 0.930 . S
C598 C599 1.355 . S
C598 C600 1.415 . S
C599 C598 1.355 . S
C599 C601 1.419 . S
C600 C598 1.415 . S
C600 C605 1.425 . S
C600 C607 1.409 . S
C601 H593 0.930 . S
C601 C599 1.419 . S
C601 C602 1.362 . S
C602 H594 0.930 . S
C602 C601 1.362 . S
C602 C605 1.409 . S
C603 H595 0.930 . S
C603 C604 1.355 . S
C603 C605 1.415 . S
C604 C603 1.355 . S
C604 C606 1.419 . S
C605 C600 1.425 . S
C605 C602 1.409 . S
C605 C603 1.415 . S
C606 H596 0.930 . S
C606 C604 1.419 . S
C606 C607 1.362 . S
C607 H597 0.930 . S
C607 C600 1.409 . S
C607 C606 1.362 . S
H608 C614 0.930 . S
H609 C617 0.930 . S
H610 C618 0.930 . S
H611 C619 0.930 . S
H612 C622 0.930 . S
H613 C623 0.930 . S
C614 H608 0.930 . S
C614 C615 1.355 . S
C614 C616 1.415 . S
C615 C614 1.355 . S
C615 C617 1.419 . S
C616 C614 1.415 . S
C616 C621 1.425 . S
C616 C623 1.409 . S
C617 H609 0.930 . S
C617 C615 1.419 . S
C617 C618 1.362 . S
C618 H610 0.930 . S
C618 C617 1.362 . S
C618 C621 1.409 . S
C619 H611 0.930 . S
C619 C620 1.355 . S
C619 C621 1.415 . S
C620 C619 1.355 . S
C620 C622 1.419 . S
C621 C616 1.425 . S
C621 C618 1.409 . S
C621 C619 1.415 . S
C622 H612 0.930 . S
C622 C620 1.419 . S
C622 C623 1.362 . S
C623 H613 0.930 . S
C623 C616 1.409 . S
C623 C622 1.362 . S
H624 C630 0.930 . S
H625 C633 0.930 . S
H626 C634 0.930 . S
H627 C635 0.930 . S
H628 C638 0.930 . S
H629 C639 0.930 . S
C630 H624 0.930 . S
C630 C631 1.355 . S
C630 C632 1.415 . S
C631 C630 1.355 . S
C631 C633 1.419 . S
C632 C630 1.415 . S
C632 C637 1.425 . S
C632 C639 1.409 . S
C633 H625 0.930 . S
C633 C631 1.419 . S
C633 C634 1.362 . S
C634 H626 0.930 . S
C634 C633 1.362 . S
C634 C637 1.409 . S
C635 H627 0.930 . S
C635 C636 1.355 . S
C635 C637 1.415 . S
C636 C635 1.355 . S
C636 C638 1.419 . S
C637 C632 1.425 . S
C637 C634 1.409 . S
C637 C635 1.415 . S
C638 H628 0.930 . S
C638 C636 1.419 . S
C638 C639 1.362 . S
C639 H629 0.930 . S
C639 C632 1.409 . S
C639 C638 1.362 . S
H640 C646 0.930 . S
H641 C649 0.930 . S
H642 C650 0.930 . S
H643 C651 0.930 . S
H644 C654 0.930 . S
H645 C655 0.930 . S
C646 H640 0.930 . S
C646 C647 1.355 . S
C646 C648 1.415 . S
C647 C646 1.355 . S
C647 C649 1.419 . S
C648 C646 1.415 . S
C648 C653 1.425 . S
C648 C655 1.409 . S
C649 H641 0.930 . S
C649 C647 1.419 . S
C649 C650 1.362 . S
C650 H642 0.930 . S
C650 C649 1.362 . S
C650 C653 1.409 . S
C651 H643 0.930 . S
C651 C652 1.355 . S
C651 C653 1.415 . S
C652 C651 1.355 . S
C652 C654 1.419 . S
C653 C648 1.425 . S
C653 C650 1.409 . S
C653 C651 1.415 . S
C654 H644 0.930 . S
C654 C652 1.419 . S
C654 C655 1.362 . S
C655 H645 0.930 . S
C655 C648 1.409 . S
C655 C654 1.362 . S
H656 C662 0.930 . S
H657 C665 0.930 . S
H658 C666 0.930 . S
H659 C667 0.930 . S
H660 C670 0.930 . S
H661 C671 0.930 . S
C662 H656 0.930 . S
C662 C663 1.355 . S
C662 C664 1.415 . S
C663 C662 1.355 . S
C663 C665 1.419 . S
C664 C662 1.415 . S
C664 C669 1.425 . S
C664 C671 1.409 . S
C665 H657 0.930 . S
C665 C663 1.419 . S
C665 C666 1.362 . S
C666 H658 0.930 . S
C666 C665 1.362 . S
C666 C669 1.409 . S
C667 H659 0.930 . S
C667 C668 1.355 . S
C667 C669 1.415 . S
C668 C667 1.355 . S
C668 C670 1.419 . S
C669 C664 1.425 . S
C669 C666 1.409 . S
C669 C667 1.415 . S
C670 H660 0.930 . S
C670 C668 1.419 . S
C670 C671 1.362 . S
C671 H661 0.930 . S
C671 C664 1.409 . S
C671 C670 1.362 . S
H672 C678 0.930 . S
H673 C681 0.930 . S
H674 C682 0.930 . S
H675 C683 0.930 . S
H676 C686 0.930 . S
H677 C687 0.930 . S
C678 H672 0.930 . S
C678 C679 1.355 . S
C678 C680 1.415 . S
C679 C678 1.355 . S
C679 C681 1.419 . S
C680 C678 1.415 . S
C680 C685 1.425 . S
C680 C687 1.409 . S
C681 H673 0.930 . S
C681 C679 1.419 . S
C681 C682 1.362 . S
C682 H674 0.930 . S
C682 C681 1.362 . S
C682 C685 1.409 . S
C683 H675 0.930 . S
C683 C684 1.355 . S
C683 C685 1.415 . S
C684 C683 1.355 . S
C684 C686 1.419 . S
C685 C680 1.425 . S
C685 C682 1.409 . S
C685 C683 1.415 . S
C686 H676 0.930 . S
C686 C684 1.419 . S
C686 C687 1.362 . S
C687 H677 0.930 . S
C687 C680 1.409 . S
C687 C686 1.362 . S
H688 C694 0.930 . S
H689 C697 0.930 . S
H690 C698 0.930 . S
H691 C699 0.930 . S
H692 C702 0.930 . S
H693 C703 0.930 . S
C694 H688 0.930 . S
C694 C695 1.355 . S
C694 C696 1.415 . S
C695 C694 1.355 . S
C695 C697 1.419 . S
C696 C694 1.415 . S
C696 C701 1.425 . S
C696 C703 1.409 . S
C697 H689 0.930 . S
C697 C695 1.419 . S
C697 C698 1.362 . S
C698 H690 0.930 . S
C698 C697 1.362 . S
C698 C701 1.409 . S
C699 H691 0.930 . S
C699 C700 1.355 . S
C699 C701 1.415 . S
C700 C699 1.355 . S
C700 C702 1.419 . S
C701 C696 1.425 . S
C701 C698 1.409 . S
C701 C699 1.415 . S
C702 H692 0.930 . S
C702 C700 1.419 . S
C702 C703 1.362 . S
C703 H693 0.930 . S
C703 C696 1.409 . S
C703 C702 1.362 . S
H704 C710 0.930 . S
H705 C713 0.930 . S
H706 C714 0.930 . S
H707 C715 0.930 . S
H708 C718 0.930 . S
H709 C719 0.930 . S
C710 H704 0.930 . S
C710 C711 1.355 . S
C710 C712 1.415 . S
C711 C710 1.355 . S
C711 C713 1.419 . S
C712 C710 1.415 . S
C712 C717 1.425 . S
C712 C719 1.409 . S
C713 H705 0.930 . S
C713 C711 1.419 . S
C713 C714 1.362 . S
C714 H706 0.930 . S
C714 C713 1.362 . S
C714 C717 1.409 . S
C715 H707 0.930 . S
C715 C716 1.355 . S
C715 C717 1.415 . S
C716 C715 1.355 . S
C716 C718 1.419 . S
C717 C712 1.425 . S
C717 C714 1.409 . S
C717 C715 1.415 . S
C718 H708 0.930 . S
C718 C716 1.419 . S
C718 C719 1.362 . S
C719 H709 0.930 . S
C719 C712 1.409 . S
C719 C718 1.362 . S
H720 C726 0.930 . S
H721 C729 0.930 . S
H722 C730 0.930 . S
H723 C731 0.930 . S
H724 C734 0.930 . S
H725 C735 0.930 . S
C726 H720 0.930 . S
C726 C727 1.355 . S
C726 C728 1.415 . S
C727 C726 1.355 . S
C727 C729 1.419 . S
C728 C726 1.415 . S
C728 C733 1.425 1_556 S
C728 C735 1.409 . S
C729 H721 0.930 . S
C729 C727 1.419 . S
C729 C730 1.362 1_556 S
C730 H722 0.930 . S
C730 C729 1.362 1_554 S
C730 C733 1.409 . S
C731 H723 0.930 . S
C731 C732 1.355 . S
C731 C733 1.415 . S
C732 C731 1.355 . S
C732 C734 1.419 . S
C733 C728 1.425 1_554 S
C733 C730 1.409 . S
C733 C731 1.415 . S
C734 H724 0.930 . S
C734 C732 1.419 . S
C734 C735 1.362 1_554 S
C735 H725 0.930 . S
C735 C728 1.409 . S
C735 C734 1.362 1_556 S
H736 C742 0.930 . S
H737 C745 0.930 . S
H738 C746 0.930 . S
H739 C747 0.930 . S
H740 C750 0.930 . S
H741 C751 0.930 . S
C742 H736 0.930 . S
C742 C743 1.355 . S
C742 C744 1.415 1_455 S
C743 C742 1.355 . S
C743 C745 1.419 . S
C744 C742 1.415 1_655 S
C744 C749 1.425 1_655 S
C744 C751 1.409 . S
C745 H737 0.930 . S
C745 C743 1.419 . S
C745 C746 1.362 . S
C746 H738 0.930 . S
C746 C745 1.362 . S
C746 C749 1.409 . S
C747 H739 0.930 . S
C747 C748 1.355 . S
C747 C749 1.415 1_655 S
C748 C747 1.355 . S
C748 C750 1.419 . S
C749 C744 1.425 1_455 S
C749 C746 1.409 . S
C749 C747 1.415 1_455 S
C750 H740 0.930 . S
C750 C748 1.419 . S
C750 C751 1.362 . S
C751 H741 0.930 . S
C751 C744 1.409 . S
C751 C750 1.362 . S
H752 C758 0.930 . S
H753 C761 0.930 . S
H754 C762 0.930 . S
H755 C763 0.930 . S
H756 C766 0.930 . S
H757 C767 0.930 . S
C758 H752 0.930 . S
C758 C759 1.355 . S
C758 C760 1.415 1_565 S
C759 C758 1.355 . S
C759 C761 1.419 . S
C760 C758 1.415 1_545 S
C760 C765 1.425 1_544 S
C760 C767 1.409 . S
C761 H753 0.930 . S
C761 C759 1.419 . S
C761 C762 1.362 1_554 S
C762 H754 0.930 . S
C762 C761 1.362 1_556 S
C762 C765 1.409 . S
C763 H755 0.930 . S
C763 C764 1.355 . S
C763 C765 1.415 1_545 S
C764 C763 1.355 . S
C764 C766 1.419 . S
C765 C760 1.425 1_566 S
C765 C762 1.409 . S
C765 C763 1.415 1_565 S
C766 H756 0.930 . S
C766 C764 1.419 . S
C766 C767 1.362 1_556 S
C767 H757 0.930 . S
C767 C760 1.409 . S
C767 C766 1.362 1_554 S
H768 C774 0.930 . S
H769 C777 0.930 . S
H770 C778 0.930 . S
H771 C779 0.930 . S
H772 C782 0.930 . S
H773 C783 0.930 . S
C774 H768 0.930 . S
C774 C775 1.355 . S
C774 C776 1.415 . S
C775 C774 1.355 . S
C775 C777 1.419 . S
C776 C774 1.415 . S
C776 C781 1.425 . S
C776 C783 1.409 . S
C777 H769 0.930 . S
C777 C775 1.419 . S
C777 C778 1.362 . S
C778 H770 0.930 . S
C778 C777 1.362 . S
C778 C781 1.409 . S
C779 H771 0.930 . S
C779 C780 1.355 . S
C779 C781 1.415 . S
C780 C779 1.355 . S
C780 C782 1.419 . S
C781 C776 1.425 . S
C781 C778 1.409 . S
C781 C779 1.415 . S
C782 H772 0.930 . S
C782 C780 1.419 . S
C782 C783 1.362 . S
C783 H773 0.930 . S
C783 C776 1.409 . S
C783 C782 1.362 . S
H784 C790 0.930 . S
H785 C793 0.930 . S
H786 C794 0.930 . S
H787 C795 0.930 . S
H788 C798 0.930 . S
H789 C799 0.930 . S
C790 H784 0.930 . S
C790 C791 1.355 . S
C790 C792 1.415 1_556 S
C791 C790 1.355 . S
C791 C793 1.419 . S
C792 C790 1.415 1_554 S
C792 C797 1.425 1_654 S
C792 C799 1.409 . S
C793 H785 0.930 . S
C793 C791 1.419 . S
C793 C794 1.362 1_655 S
C794 H786 0.930 . S
C794 C793 1.362 1_455 S
C794 C797 1.409 . S
C795 H787 0.930 . S
C795 C796 1.355 . S
C795 C797 1.415 1_554 S
C796 C795 1.355 . S
C796 C798 1.419 . S
C797 C792 1.425 1_456 S
C797 C794 1.409 . S
C797 C795 1.415 1_556 S
C798 H788 0.930 . S
C798 C796 1.419 . S
C798 C799 1.362 1_455 S
C799 H789 0.930 . S
C799 C792 1.409 . S
C799 C798 1.362 1_655 S
H800 C806 0.930 . S
H801 C809 0.930 . S
H802 C810 0.930 . S
H803 C811 0.930 . S
H804 C814 0.930 . S
H805 C815 0.930 . S
C806 H800 0.930 . S
C806 C807 1.355 . S
C806 C808 1.415 1_565 S
C807 C806 1.355 . S
C807 C809 1.419 . S
C808 C806 1.415 1_545 S
C808 C813 1.425 1_545 S
C808 C815 1.409 . S
C809 H801 0.930 . S
C809 C807 1.419 . S
C809 C810 1.362 . S
C810 H802 0.930 . S
C810 C809 1.362 . S
C810 C813 1.409 . S
C811 H803 0.930 . S
C811 C812 1.355 . S
C811 C813 1.415 1_545 S
C812 C811 1.355 . S
C812 C814 1.419 . S
C813 C808 1.425 1_565 S
C813 C810 1.409 . S
C813 C811 1.415 1_565 S
C814 H804 0.930 . S
C814 C812 1.419 . S
C814 C815 1.362 . S
C815 H805 0.930 . S
C815 C808 1.409 . S
C815 C814 1.362 . S
C247 C86 1.403 1_545 S
C252 C19 1.403 . S
C263 C106 1.416 . S
C268 C39 1.415 . S
C279 C59 1.441 . S
C284 C6 1.352 1_655 S
C295 C79 1.398 . S
C300 C26 1.429 1_565 S
C311 C99 1.449 . S
C316 C46 1.356 . S
C327 C66 1.427 1_455 S
C332 C119 1.403 . S
C343 C166 1.351 1_655 S
C348 C139 1.442 . S
C359 C159 1.446 . S
C364 C186 1.365 1_565 S
C375 C206 1.413 . S
C380 C179 1.417 . S
C391 C199 1.403 . S
C396 C226 1.403 1_455 S
C407 C219 1.399 . S
C412 C126 1.429 1_545 S
C423 C146 1.358 . S
C428 C239 1.434 . S
C439 C96 1.549 . S
C444 C8 1.533 . S
C455 C28 1.447 . S
C460 C116 1.584 . S
C471 C48 1.519 . S
C476 C16 1.554 . S
C487 C68 1.526 . S
C492 C36 1.551 . S
C503 C56 1.551 . S
C508 C88 1.530 . S
C519 C76 1.583 . S
C524 C108 1.449 . S
C535 C176 1.573 . S
C540 C128 1.477 . S
C551 C148 1.531 . S
C556 C196 1.549 . S
C567 C168 1.532 . S
C572 C216 1.549 . S
C583 C236 1.551 . S
C588 C188 1.527 . S
C599 C208 1.477 . S
C604 C136 1.573 . S
C615 C156 1.583 . S
C620 C228 1.450 . S
C631 C209 1.685 . S
C636 C9 1.715 . S
C647 C29 1.668 . S
C652 C229 1.714 . S
C663 C49 1.671 . S
C668 C129 1.715 . S
C679 C69 1.655 . S
C684 C149 1.704 . S
C695 C89 1.693 . S
C700 C169 1.713 . S
C711 C189 1.679 . S
C716 C109 1.650 . S
C727 C181 1.822 . S
C732 C1 1.843 . S
C743 C201 1.846 . S
C748 C21 1.838 . S
C759 C41 1.834 . S
C764 C221 1.847 . S
C775 C61 1.835 . S
C780 C121 1.847 . S
C791 C141 1.810 . S
C796 C81 1.813 . S
C807 C161 1.844 . S
C812 C101 1.842 . S
