# Generated by pormake.
# Topology wjd, (6)-cn, num edge types: 1
# Building blocks:
#     Node 0, Type 0, BuildingBlock: JUFBIX_clean_sbu_0, # of connection points: 6
#     Node 1, Type 0, BuildingBlock: JUFBIX_clean_sbu_0, # of connection points: 6
#     Node 2, Type 0, BuildingBlock: JUFBIX_clean_sbu_0, # of connection points: 6
#     Node 3, Type 0, BuildingBlock: JUFBIX_clean_sbu_0, # of connection points: 6
#     Node 4, Type 0, BuildingBlock: JUFBIX_clean_sbu_0, # of connection points: 6
#     Node 5, Type 0, BuildingBlock: JUFBIX_clean_sbu_0, # of connection points: 6
#     Node 6, Type 0, BuildingBlock: JUFBIX_clean_sbu_0, # of connection points: 6
#     Node 7, Type 0, BuildingBlock: JUFBIX_clean_sbu_0, # of connection points: 6
#     Node 8, Type 0, BuildingBlock: JUFBIX_clean_sbu_0, # of connection points: 6
#     Node 9, Type 0, BuildingBlock: JUFBIX_clean_sbu_0, # of connection points: 6
#     Node 10, Type 0, BuildingBlock: JUFBIX_clean_sbu_0, # of connection points: 6
#     Node 11, Type 0, BuildingBlock: JUFBIX_clean_sbu_0, # of connection points: 6
#     Edge 12, Type (0, 0), BuildingBlock: UVAHIK_clean_linker_0, # of connection points: 2
#     Edge 13, Type (0, 0), BuildingBlock: UVAHIK_clean_linker_0, # of connection points: 2
#     Edge 14, Type (0, 0), BuildingBlock: UVAHIK_clean_linker_0, # of connection points: 2
#     Edge 15, Type (0, 0), BuildingBlock: UVAHIK_clean_linker_0, # of connection points: 2
#     Edge 16, Type (0, 0), BuildingBlock: UVAHIK_clean_linker_0, # of connection points: 2
#     Edge 17, Type (0, 0), BuildingBlock: UVAHIK_clean_linker_0, # of connection points: 2
#     Edge 18, Type (0, 0), BuildingBlock: UVAHIK_clean_linker_0, # of connection points: 2
#     Edge 19, Type (0, 0), BuildingBlock: UVAHIK_clean_linker_0, # of connection points: 2
#     Edge 20, Type (0, 0), BuildingBlock: UVAHIK_clean_linker_0, # of connection points: 2
#     Edge 21, Type (0, 0), BuildingBlock: UVAHIK_clean_linker_0, # of connection points: 2
#     Edge 22, Type (0, 0), BuildingBlock: UVAHIK_clean_linker_0, # of connection points: 2
#     Edge 23, Type (0, 0), BuildingBlock: UVAHIK_clean_linker_0, # of connection points: 2
#     Edge 24, Type (0, 0), BuildingBlock: UVAHIK_clean_linker_0, # of connection points: 2
#     Edge 25, Type (0, 0), BuildingBlock: UVAHIK_clean_linker_0, # of connection points: 2
#     Edge 26, Type (0, 0), BuildingBlock: UVAHIK_clean_linker_0, # of connection points: 2
#     Edge 27, Type (0, 0), BuildingBlock: UVAHIK_clean_linker_0, # of connection points: 2
#     Edge 28, Type (0, 0), BuildingBlock: UVAHIK_clean_linker_0, # of connection points: 2
#     Edge 29, Type (0, 0), BuildingBlock: UVAHIK_clean_linker_0, # of connection points: 2
#     Edge 30, Type (0, 0), BuildingBlock: UVAHIK_clean_linker_0, # of connection points: 2
#     Edge 31, Type (0, 0), BuildingBlock: UVAHIK_clean_linker_0, # of connection points: 2
#     Edge 32, Type (0, 0), BuildingBlock: UVAHIK_clean_linker_0, # of connection points: 2
#     Edge 33, Type (0, 0), BuildingBlock: UVAHIK_clean_linker_0, # of connection points: 2
#     Edge 34, Type (0, 0), BuildingBlock: UVAHIK_clean_linker_0, # of connection points: 2
#     Edge 35, Type (0, 0), BuildingBlock: UVAHIK_clean_linker_0, # of connection points: 2
#     Edge 36, Type (0, 0), BuildingBlock: UVAHIK_clean_linker_0, # of connection points: 2
#     Edge 37, Type (0, 0), BuildingBlock: UVAHIK_clean_linker_0, # of connection points: 2
#     Edge 38, Type (0, 0), BuildingBlock: UVAHIK_clean_linker_0, # of connection points: 2
#     Edge 39, Type (0, 0), BuildingBlock: UVAHIK_clean_linker_0, # of connection points: 2
#     Edge 40, Type (0, 0), BuildingBlock: UVAHIK_clean_linker_0, # of connection points: 2
#     Edge 41, Type (0, 0), BuildingBlock: UVAHIK_clean_linker_0, # of connection points: 2
#     Edge 42, Type (0, 0), BuildingBlock: UVAHIK_clean_linker_0, # of connection points: 2
#     Edge 43, Type (0, 0), BuildingBlock: UVAHIK_clean_linker_0, # of connection points: 2
#     Edge 44, Type (0, 0), BuildingBlock: UVAHIK_clean_linker_0, # of connection points: 2
#     Edge 45, Type (0, 0), BuildingBlock: UVAHIK_clean_linker_0, # of connection points: 2
#     Edge 46, Type (0, 0), BuildingBlock: UVAHIK_clean_linker_0, # of connection points: 2
#     Edge 47, Type (0, 0), BuildingBlock: UVAHIK_clean_linker_0, # of connection points: 2
# Relax obj value: 0.292
# Max RMSD: 0.235
# Mean RMSD: 0.234
data_MOF--net-wjd--node1-JUFBIX_clean_sbu_0--edge1-UVAHIK_clean_linker_0
_symmetry_space_group_name_H-M    P1
_symmetry_Int_Tables_number       1
_symmetry_cell_setting            triclinic
loop_
_symmetry_equiv_pos_as_xyz
'x, y, z'
_cell_length_a     41.504827
_cell_length_b     41.508518
_cell_length_c     73.52964
_cell_angle_alpha  89.986127
_cell_angle_beta   89.980324
_cell_angle_gamma 120.13196
loop_
_atom_site_label
_atom_site_type_symbol
_atom_site_fract_x
_atom_site_fract_y
_atom_site_fract_z
_atom_type_partial_charge
Co0 Co 0.31766 0.13528 0.12952 0.0
C1 C 0.34925 0.14159 0.16407 0.0
Co2 Co 0.34828 0.1052 0.13271 0.0
C3 C 0.25805 0.1524 0.12492 0.0
C4 C 0.31106 0.19999 0.13102 0.0
N5 N 0.29416 0.16302 0.12783 0.0
N6 N 0.25197 0.18142 0.12613 0.0
C7 C 0.28536 0.21135 0.12991 0.0
H8 H 0.23659 0.12387 0.1224 0.0
H9 H 0.34005 0.21748 0.13466 0.0
C10 C 0.31617 0.09731 0.09841 0.0
N11 N 0.37371 0.07948 0.13464 0.0
C12 C 0.4095 0.09473 0.13987 0.0
C13 C 0.36439 0.04541 0.12833 0.0
N14 N 0.42358 0.07231 0.13652 0.0
C15 C 0.39514 0.04098 0.12938 0.0
C16 C 0.2733 0.06366 0.14149 0.0
O17 O 0.30298 0.11661 0.10515 0.0
O18 O 0.33772 0.09084 0.10804 0.0
O19 O 0.30287 0.06193 0.13956 0.0
O20 O 0.27413 0.09417 0.13845 0.0
O21 O 0.35854 0.11928 0.15735 0.0
H22 H 0.3379 0.02621 0.12216 0.0
H23 H 0.42595 0.12324 0.14449 0.0
O24 O 0.33214 0.15318 0.15407 0.0
O25 O 0.36119 0.17616 0.12039 0.0
O26 O 0.39357 0.14901 0.12579 0.0
C27 C 0.39214 0.17725 0.12039 0.0
H28 H 0.29055 0.23918 0.13266 0.0
H29 H 0.39698 0.01753 0.12424 0.0
Co30 Co 0.76349 0.68743 0.3756 0.0
C31 C 0.78453 0.65567 0.34809 0.0
Co32 Co 0.785 0.65203 0.38575 0.0
C33 C 0.75635 0.75162 0.37207 0.0
C34 C 0.72556 0.71203 0.35122 0.0
N35 N 0.74616 0.71706 0.36628 0.0
N36 N 0.74353 0.76865 0.36113 0.0
C37 C 0.72424 0.74405 0.34789 0.0
H38 H 0.77494 0.765 0.38344 0.0
H39 H 0.71388 0.68745 0.34272 0.0
C40 C 0.76324 0.68536 0.41291 0.0
N41 N 0.80345 0.62318 0.39517 0.0
C42 C 0.80505 0.5946 0.38734 0.0
C43 C 0.82011 0.62782 0.41149 0.0
N44 N 0.82182 0.58123 0.3982 0.0
C45 C 0.83116 0.60189 0.41344 0.0
C46 C 0.8403 0.72491 0.38081 0.0
O47 O 0.75669 0.69982 0.39929 0.0
O48 O 0.77509 0.66276 0.41026 0.0
O49 O 0.83301 0.69322 0.38658 0.0
O50 O 0.81371 0.72931 0.37526 0.0
O51 O 0.7942 0.6419 0.36103 0.0
H52 H 0.82468 0.64918 0.42126 0.0
H53 H 0.79409 0.5837 0.37397 0.0
O54 O 0.77025 0.67555 0.35194 0.0
O55 O 0.71369 0.64493 0.37584 0.0
O56 O 0.73724 0.61048 0.38472 0.0
C57 C 0.70928 0.61313 0.37997 0.0
H58 H 0.71123 0.74931 0.3364 0.0
H59 H 0.84583 0.59907 0.42495 0.0
Co60 Co 0.85126 0.18007 0.12474 0.0
C61 C 0.84514 0.20392 0.15971 0.0
Co62 Co 0.88129 0.24078 0.12854 0.0
C63 C 0.83434 0.10361 0.1193 0.0
C64 C 0.78673 0.10834 0.1261 0.0
N65 N 0.82362 0.1288 0.12272 0.0
N66 N 0.80545 0.0683 0.12038 0.0
C67 C 0.77551 0.07132 0.12461 0.0
H68 H 0.86284 0.111 0.11648 0.0
H69 H 0.76923 0.11953 0.13013 0.0
C70 C 0.88885 0.21758 0.0938 0.0
N71 N 0.907 0.29199 0.13081 0.0
C72 C 0.89175 0.31253 0.13594 0.0
C73 C 0.94141 0.31689 0.12486 0.0
N74 N 0.91451 0.34918 0.13286 0.0
C75 C 0.94605 0.35214 0.12602 0.0
C76 C 0.92309 0.20732 0.13643 0.0
O77 O 0.8693 0.18485 0.1003 0.0
O78 O 0.89566 0.24541 0.10371 0.0
O79 O 0.92469 0.23868 0.13507 0.0
O80 O 0.89264 0.17766 0.13311 0.0
O81 O 0.86717 0.23606 0.15332 0.0
H82 H 0.96076 0.30968 0.11885 0.0
H83 H 0.86308 0.30042 0.14031 0.0
O84 O 0.83396 0.17575 0.14936 0.0
O85 O 0.81004 0.18266 0.11619 0.0
O86 O 0.83732 0.24215 0.12196 0.0
C87 C 0.80889 0.21248 0.11661 0.0
H88 H 0.74779 0.04838 0.12737 0.0
H89 H 0.96986 0.37758 0.12116 0.0
Co90 Co 0.31215 0.08277 0.38166 0.0
C91 C 0.34776 0.13678 0.3558 0.0
Co92 Co 0.34289 0.13884 0.39391 0.0
C93 C 0.24616 0.01476 0.37461 0.0
C94 C 0.29159 0.01508 0.36075 0.0
N95 N 0.28328 0.03537 0.37214 0.0
N96 N 0.23069 0.98298 0.36498 0.0
C97 C 0.25909 0.98256 0.35635 0.0
H98 H 0.23038 0.02321 0.3831 0.0
H99 H 0.31914 0.02391 0.35549 0.0
C100 C 0.3065 0.08278 0.41949 0.0
N101 N 0.36955 0.18643 0.4037 0.0
C102 C 0.39813 0.21743 0.39631 0.0
C103 C 0.36042 0.19842 0.41885 0.0
N104 N 0.40673 0.24827 0.40609 0.0
C105 C 0.38318 0.23632 0.42036 0.0
C106 C 0.27179 0.1201 0.38507 0.0
O107 O 0.29558 0.06295 0.40523 0.0
O108 O 0.32847 0.11771 0.41791 0.0
O109 O 0.30113 0.14462 0.39279 0.0
O110 O 0.27072 0.09109 0.37882 0.0
O111 O 0.35662 0.15875 0.36937 0.0
H112 H 0.33748 0.18103 0.4278 0.0
H113 H 0.41101 0.21772 0.38347 0.0
O114 O 0.32856 0.10192 0.35835 0.0
O115 O 0.35448 0.07612 0.3843 0.0
O116 O 0.38502 0.13322 0.39523 0.0
C117 C 0.3844 0.10342 0.39058 0.0
H118 H 0.25632 0.96123 0.34696 0.0
H119 H 0.38185 0.25382 0.43089 0.0
Co120 Co 0.80907 0.6709 0.12057 0.0
C121 C 0.78422 0.63912 0.15506 0.0
Co122 Co 0.74819 0.63929 0.12368 0.0
C123 C 0.88572 0.73176 0.1173 0.0
C124 C 0.88107 0.67841 0.12079 0.0
N125 N 0.86052 0.69509 0.11874 0.0
N126 N 0.92106 0.73841 0.11838 0.0
C127 C 0.91808 0.7048 0.12048 0.0
H128 H 0.8783 0.75321 0.11609 0.0
H129 H 0.87001 0.64905 0.12333 0.0
C130 C 0.77213 0.67163 0.08941 0.0
N131 N 0.69707 0.61347 0.12582 0.0
C132 C 0.67695 0.57816 0.1318 0.0
C133 C 0.6718 0.62211 0.11958 0.0
N134 N 0.64015 0.56373 0.12909 0.0
C135 C 0.63667 0.5914 0.12147 0.0
C136 C 0.78093 0.71443 0.13231 0.0
O137 O 0.80467 0.68492 0.09614 0.0
O138 O 0.74403 0.64984 0.09901 0.0
O139 O 0.74987 0.68437 0.13058 0.0
O140 O 0.81095 0.7143 0.12922 0.0
O141 O 0.75243 0.62897 0.14828 0.0
H142 H 0.67862 0.64813 0.11304 0.0
H143 H 0.68941 0.56227 0.13664 0.0
O144 O 0.81302 0.65725 0.14518 0.0
O145 O 0.80675 0.6273 0.11173 0.0
O146 O 0.74699 0.59429 0.11675 0.0
C147 C 0.77703 0.59609 0.1117 0.0
H148 H 0.94094 0.69978 0.12282 0.0
H149 H 0.6109 0.58904 0.11671 0.0
Co150 Co 0.9197 0.23299 0.37749 0.0
C151 C 0.86421 0.20718 0.35148 0.0
Co152 Co 0.8633 0.20741 0.38948 0.0
C153 C 0.99275 0.2449 0.37326 0.0
C154 C 0.98017 0.27148 0.35172 0.0
N155 N 0.96668 0.25276 0.36748 0.0
N156 N 0.0216 0.25717 0.36165 0.0
C157 C 0.0139 0.27385 0.34799 0.0
H158 H 0.98918 0.2277 0.38502 0.0
H159 H 0.96538 0.28062 0.34296 0.0
C160 C 0.92048 0.23298 0.41524 0.0
N161 N 0.81601 0.18631 0.39964 0.0
C162 C 0.78504 0.18492 0.39289 0.0
C163 C 0.8052 0.16799 0.41564 0.0
N164 N 0.75556 0.16672 0.40414 0.0
C165 C 0.76818 0.15618 0.4185 0.0
C166 C 0.88592 0.1567 0.38369 0.0
O167 O 0.9407 0.24248 0.40109 0.0
O168 O 0.88529 0.21735 0.41341 0.0
O169 O 0.85961 0.16078 0.38971 0.0
O170 O 0.9152 0.1847 0.37753 0.0
O171 O 0.84229 0.19777 0.3651 0.0
H172 H 0.82296 0.16313 0.42462 0.0
H173 H 0.78418 0.1973 0.38007 0.0
O174 O 0.89901 0.22332 0.35419 0.0
O175 O 0.92316 0.28087 0.37731 0.0
O176 O 0.86709 0.2541 0.38942 0.0
C177 C 0.89572 0.28312 0.38356 0.0
H178 H 0.03057 0.28534 0.33584 0.0
H179 H 0.7516 0.14041 0.43007 0.0
Co180 Co 0.09828 0.34404 0.62585 0.0
C181 C 0.09501 0.31249 0.59192 0.0
Co182 Co 0.11468 0.3012 0.6263 0.0
C183 C 0.10721 0.41698 0.62982 0.0
C184 C 0.0561 0.37921 0.6165 0.0
N185 N 0.08627 0.3812 0.62449 0.0
N186 N 0.09153 0.43756 0.62533 0.0
C187 C 0.05921 0.41379 0.61703 0.0
H188 H 0.1338 0.42783 0.63661 0.0
H189 H 0.03393 0.35454 0.61012 0.0
C190 C 0.11609 0.33235 0.66031 0.0
N191 N 0.12633 0.26381 0.62787 0.0
C192 C 0.15176 0.25917 0.61855 0.0
C193 C 0.10981 0.23425 0.6392 0.0
N194 N 0.15108 0.22758 0.6235 0.0
C195 C 0.12475 0.21177 0.63641 0.0
C196 C 0.17484 0.37068 0.62104 0.0
O197 O 0.10422 0.35042 0.65132 0.0
O198 O 0.12328 0.30984 0.65194 0.0
O199 O 0.16483 0.33641 0.62174 0.0
O200 O 0.15032 0.38037 0.62259 0.0
O201 O 0.10522 0.29253 0.6006 0.0
H202 H 0.08828 0.22936 0.64894 0.0
H203 H 0.16999 0.27818 0.60822 0.0
O204 O 0.09203 0.33747 0.60044 0.0
O205 O 0.04641 0.30701 0.62916 0.0
O206 O 0.06486 0.26614 0.63087 0.0
C207 C 0.03883 0.27356 0.63144 0.0
H208 H 0.03996 0.42115 0.61103 0.0
H209 H 0.11728 0.18604 0.64345 0.0
Co210 Co 0.19755 0.8848 0.89249 0.0
C211 C 0.23142 0.89034 0.85861 0.0
Co212 Co 0.25831 0.90907 0.89343 0.0
C213 C 0.12019 0.86744 0.89783 0.0
C214 C 0.12678 0.82913 0.88088 0.0
N215 N 0.14628 0.86115 0.89034 0.0
N216 N 0.08542 0.84 0.89361 0.0
C217 C 0.08953 0.81605 0.88294 0.0
H218 H 0.12645 0.89091 0.90653 0.0
H219 H 0.13892 0.81563 0.87321 0.0
C220 C 0.22518 0.90555 0.92716 0.0
N221 N 0.30911 0.92959 0.89514 0.0
C222 C 0.32758 0.91406 0.8876 0.0
C223 C 0.33351 0.95549 0.90671 0.0
N224 N 0.36203 0.92762 0.89458 0.0
C225 C 0.36611 0.9543 0.90642 0.0
C226 C 0.23494 0.96065 0.88892 0.0
O227 O 0.19501 0.89174 0.91808 0.0
O228 O 0.25525 0.9132 0.91904 0.0
O229 O 0.26354 0.95712 0.89071 0.0
O230 O 0.20269 0.93175 0.88853 0.0
O231 O 0.26129 0.90534 0.86781 0.0
H232 H 0.32693 0.97174 0.91589 0.0
H233 H 0.31458 0.89109 0.87815 0.0
O234 O 0.20065 0.87891 0.86683 0.0
O235 O 0.1926 0.83787 0.89677 0.0
O236 O 0.25262 0.86053 0.89637 0.0
C237 C 0.22006 0.83268 0.89771 0.0
H238 H 0.06706 0.79095 0.87697 0.0
H239 H 0.38952 0.96959 0.91546 0.0
Co240 Co 0.63821 0.73835 0.62473 0.0
C241 C 0.66444 0.76268 0.58956 0.0
Co242 Co 0.66508 0.79941 0.62119 0.0
C243 C 0.58029 0.66481 0.63307 0.0
C244 C 0.62624 0.66335 0.62083 0.0
N245 N 0.61548 0.68696 0.62715 0.0
N246 N 0.56788 0.62831 0.63021 0.0
C247 C 0.59702 0.62727 0.62266 0.0
H248 H 0.56308 0.6756 0.6381 0.0
H249 H 0.65267 0.67188 0.61428 0.0
C250 C 0.64002 0.77377 0.65671 0.0
N251 N 0.68522 0.85091 0.61903 0.0
C252 C 0.7205 0.87892 0.61607 0.0
C253 C 0.66531 0.86827 0.62133 0.0
N254 N 0.72283 0.91263 0.61612 0.0
C255 C 0.68813 0.90588 0.61938 0.0
C256 C 0.58901 0.76162 0.61481 0.0
O257 O 0.63078 0.7424 0.64967 0.0
O258 O 0.65465 0.80267 0.64662 0.0
O259 O 0.61869 0.79275 0.61436 0.0
O260 O 0.59041 0.73301 0.61949 0.0
O261 O 0.67569 0.7952 0.596 0.0
H262 H 0.63608 0.85474 0.62483 0.0
H263 H 0.74405 0.8748 0.61418 0.0
O264 O 0.64623 0.73447 0.59977 0.0
O265 O 0.6865 0.74468 0.62983 0.0
O266 O 0.71133 0.80548 0.62769 0.0
C267 C 0.71507 0.77732 0.63042 0.0
H268 H 0.59682 0.60249 0.61794 0.0
H269 H 0.68018 0.92686 0.62112 0.0
Co270 Co 0.11105 0.30524 0.88993 0.0
C271 C 0.11479 0.33818 0.85624 0.0
Co272 Co 0.09624 0.34918 0.89077 0.0
C273 C 0.14598 0.2614 0.89752 0.0
C274 C 0.10483 0.23805 0.87645 0.0
N275 N 0.12144 0.26712 0.88805 0.0
N276 N 0.14471 0.22964 0.89241 0.0
C277 C 0.11887 0.21478 0.87924 0.0
H278 H 0.16392 0.27973 0.90812 0.0
H279 H 0.08381 0.234 0.86658 0.0
C280 C 0.09034 0.31499 0.9243 0.0
N281 N 0.08538 0.3871 0.89254 0.0
C282 C 0.10741 0.42337 0.88823 0.0
C283 C 0.05522 0.3851 0.90055 0.0
N284 N 0.09248 0.44427 0.89347 0.0
C285 C 0.05947 0.4201 0.90113 0.0
C286 C 0.03592 0.2799 0.88436 0.0
O287 O 0.10036 0.2952 0.91537 0.0
O288 O 0.08871 0.34117 0.91618 0.0
O289 O 0.04432 0.31349 0.88693 0.0
O290 O 0.06127 0.27151 0.88486 0.0
O291 O 0.10339 0.35678 0.86517 0.0
H292 H 0.03245 0.36011 0.90641 0.0
H293 H 0.1344 0.43431 0.88185 0.0
O294 O 0.12076 0.31489 0.86463 0.0
O295 O 0.16125 0.3392 0.89497 0.0
O296 O 0.1483 0.38424 0.89466 0.0
C297 C 0.17213 0.37363 0.89612 0.0
H298 H 0.11108 0.18914 0.87204 0.0
H299 H 0.04058 0.42736 0.90763 0.0
Co300 Co 0.25822 0.90358 0.62769 0.0
C301 C 0.22528 0.90028 0.59391 0.0
Co302 Co 0.19768 0.88186 0.62869 0.0
C303 C 0.32664 0.90428 0.63138 0.0
C304 C 0.33438 0.95133 0.61595 0.0
N305 N 0.30888 0.92213 0.62572 0.0
N306 N 0.36181 0.92017 0.62506 0.0
C307 C 0.36698 0.95011 0.61545 0.0
H308 H 0.31288 0.87813 0.63868 0.0
H309 H 0.32885 0.97066 0.60864 0.0
C310 C 0.23179 0.88736 0.66259 0.0
N311 N 0.14647 0.86049 0.63119 0.0
C312 C 0.12087 0.86744 0.62359 0.0
C313 C 0.12643 0.82976 0.64148 0.0
N314 N 0.08587 0.84163 0.62859 0.0
C315 C 0.08941 0.81811 0.63985 0.0
C316 C 0.21669 0.82695 0.62438 0.0
O317 O 0.26151 0.90041 0.6533 0.0
O318 O 0.20121 0.8773 0.65443 0.0
O319 O 0.19022 0.83367 0.62521 0.0
O320 O 0.24984 0.85396 0.62518 0.0
O321 O 0.19509 0.88762 0.60295 0.0
H322 H 0.13801 0.81608 0.64944 0.0
H323 H 0.12759 0.89009 0.61423 0.0
O324 O 0.25503 0.9072 0.60213 0.0
O325 O 0.26578 0.95275 0.63005 0.0
O326 O 0.20524 0.92996 0.63193 0.0
C327 C 0.23811 0.95792 0.63154 0.0
H328 H 0.39172 0.96859 0.60777 0.0
H329 H 0.06668 0.79415 0.64646 0.0
Co330 Co 0.67389 0.80506 0.8874 0.0
C331 C 0.64461 0.77485 0.8529 0.0
Co332 Co 0.64193 0.74379 0.88626 0.0
C333 C 0.72858 0.88387 0.89462 0.0
C334 C 0.67989 0.87437 0.88005 0.0
N335 N 0.6966 0.85655 0.88729 0.0
N336 N 0.7317 0.91768 0.89246 0.0
C337 C 0.70122 0.91173 0.88327 0.0
H338 H 0.7486 0.87904 0.90173 0.0
H339 H 0.65335 0.86088 0.87309 0.0
C340 C 0.67233 0.77313 0.92046 0.0
N341 N 0.61587 0.69218 0.88633 0.0
C342 C 0.58018 0.67108 0.88093 0.0
C343 C 0.62377 0.66846 0.8951 0.0
N344 N 0.5647 0.63546 0.88662 0.0
C345 C 0.59233 0.63352 0.8953 0.0
C346 C 0.71838 0.77645 0.87945 0.0
O347 O 0.68661 0.80461 0.91249 0.0
O348 O 0.65077 0.74379 0.91159 0.0
O349 O 0.6883 0.7453 0.88152 0.0
O350 O 0.71769 0.80663 0.8806 0.0
O351 O 0.6335 0.74392 0.8609 0.0
H352 H 0.64959 0.67665 0.90219 0.0
H353 H 0.56511 0.68241 0.87397 0.0
O354 O 0.66157 0.80472 0.86212 0.0
O355 O 0.63017 0.80354 0.89459 0.0
O356 O 0.5962 0.74339 0.89125 0.0
C357 C 0.59874 0.77426 0.89522 0.0
H358 H 0.69508 0.93305 0.87902 0.0
H359 H 0.58925 0.60952 0.90263 0.0
C360 C 0.95382 0.17046 0.14363 0.0
C361 C 0.95688 0.20508 0.13984 0.0
C362 C 0.98545 0.16689 0.14407 0.0
C363 C 0.08876 0.22054 0.14527 0.0
H364 H 0.0793 0.13416 0.11994 0.0
C365 C 0.21607 0.21319 0.12136 0.0
C366 C 0.217 0.18078 0.12588 0.0
C367 C 0.18342 0.21455 0.12339 0.0
C368 C 0.08222 0.15819 0.1272 0.0
H369 H 0.99553 0.26343 0.13437 0.0
H370 H 0.05079 0.25712 0.1348 0.0
H371 H 0.02443 0.14035 0.12438 0.0
H372 H 0.18386 0.12373 0.13528 0.0
H373 H 0.12636 0.12593 0.13854 0.0
H374 H 0.14681 0.23878 0.14762 0.0
C375 C 0.02402 0.2328 0.1377 0.0
C376 C 0.05082 0.16171 0.12984 0.0
C377 C 0.99235 0.23645 0.13741 0.0
C378 C 0.18398 0.14902 0.13156 0.0
C379 C 0.15114 0.15032 0.13351 0.0
C380 C 0.12017 0.21714 0.1425 0.0
C381 C 0.0208 0.19778 0.14057 0.0
C382 C 0.05379 0.19307 0.13879 0.0
C383 C 0.15089 0.18343 0.12987 0.0
C384 C 0.11724 0.18612 0.1333 0.0
H385 H 0.92682 0.14582 0.14571 0.0
H386 H 0.98211 0.13972 0.14674 0.0
H387 H 0.09189 0.2447 0.15247 0.0
H388 H 0.24083 0.23782 0.11654 0.0
H389 H 0.18372 0.24014 0.12008 0.0
C390 C 0.17682 0.919 0.36385 0.0
C391 C 0.1914 0.9576 0.36316 0.0
C392 C 0.13819 0.8948 0.36409 0.0
C393 C 0.05045 0.89483 0.3746 0.0
H394 H 0.00432 0.79591 0.35363 0.0
C395 C 0.88995 0.79051 0.3729 0.0
C396 C 0.87976 0.75461 0.37914 0.0
C397 C 0.92759 0.81701 0.37004 0.0
C398 C 0.0169 0.82352 0.35954 0.0
H399 H 0.17761 0.00129 0.36091 0.0
H400 H 0.11051 0.95936 0.3606 0.0
H401 H 0.07089 0.83838 0.34937 0.0
H402 H 0.9012 0.71872 0.38762 0.0
H403 H 0.96614 0.76454 0.38246 0.0
H404 H 0.9961 0.87975 0.38461 0.0
C405 C 0.12848 0.94752 0.36174 0.0
C406 C 0.05507 0.84778 0.3572 0.0
C407 C 0.16691 0.97157 0.36179 0.0
C408 C 0.90792 0.74605 0.38277 0.0
C409 C 0.9452 0.77218 0.37969 0.0
C410 C 0.01217 0.87069 0.37673 0.0
C411 C 0.11352 0.90885 0.36334 0.0
C412 C 0.07248 0.88359 0.36492 0.0
C413 C 0.95542 0.80773 0.37311 0.0
C414 C 0.99518 0.83462 0.36947 0.0
H415 H 0.19528 0.90773 0.36501 0.0
H416 H 0.12776 0.86522 0.36552 0.0
H417 H 0.06288 0.92192 0.38103 0.0
H418 H 0.86891 0.79792 0.36998 0.0
H419 H 0.93487 0.84436 0.36499 0.0
C420 C 0.77398 0.00086 0.11471 0.0
C421 C 0.80627 0.03412 0.11954 0.0
C422 C 0.7728 0.96684 0.11613 0.0
C423 C 0.81741 0.92232 0.14061 0.0
H424 H 0.76125 0.84207 0.10648 0.0
C425 C 0.81672 0.7825 0.13894 0.0
C426 C 0.78238 0.75017 0.13548 0.0
C427 C 0.81957 0.81744 0.13866 0.0
C428 C 0.77664 0.86413 0.11623 0.0
H429 H 0.86329 0.05799 0.12888 0.0
H430 H 0.86164 -0.00156 0.13084 0.0
H431 H 0.76913 0.90339 0.10074 0.0
H432 H 0.7237 0.72881 0.13012 0.0
H433 H 0.72879 0.79003 0.12959 0.0
H434 H 0.82539 0.88289 0.1559 0.0
C435 C 0.83693 -0.0013 0.12634 0.0
C436 C 0.78125 0.89926 0.11293 0.0
C437 C 0.83807 0.03285 0.12497 0.0
C438 C 0.75052 0.75323 0.13282 0.0
C439 C 0.75347 0.78823 0.13237 0.0
C440 C 0.81306 0.88719 0.14383 0.0
C441 C 0.80401 0.96527 0.12227 0.0
C442 C 0.80139 0.92868 0.12516 0.0
C443 C 0.78822 0.82065 0.13476 0.0
C444 C 0.79234 0.85772 0.13174 0.0
H445 H 0.74924 0.00103 0.11021 0.0
H446 H 0.74689 0.94166 0.11302 0.0
H447 H 0.83258 0.94424 0.15045 0.0
H448 H 0.84175 0.78098 0.1411 0.0
H449 H 0.84669 0.84202 0.1405 0.0
C450 C 0.21674 0.1128 0.36761 0.0
C451 C 0.24038 0.12674 0.38278 0.0
C452 C 0.19018 0.12351 0.3644 0.0
C453 C 0.13557 0.15906 0.38633 0.0
H454 H 0.14523 0.21229 0.34144 0.0
C455 C 0.06638 0.24745 0.37905 0.0
C456 C 0.04992 0.24705 0.36235 0.0
C457 C 0.08944 0.23215 0.38056 0.0
C458 C 0.14168 0.19699 0.35391 0.0
H459 H 0.25374 0.16101 0.40695 0.0
H460 H 0.20661 0.1786 0.40168 0.0
H461 H 0.18226 0.1821 0.34597 0.0
H462 H 0.04519 0.23136 0.33401 0.0
H463 H 0.08487 0.20363 0.33662 0.0
H464 H 0.09485 0.17324 0.39434 0.0
C465 C 0.20891 0.15994 0.39216 0.0
C466 C 0.16287 0.17971 0.35647 0.0
C467 C 0.23589 0.14997 0.39513 0.0
C468 C 0.05805 0.2324 0.34697 0.0
C469 C 0.0807 0.21648 0.34852 0.0
C470 C 0.11403 0.1758 0.3837 0.0
C471 C 0.18637 0.14745 0.3766 0.0
C472 C 0.16049 0.16128 0.37285 0.0
C473 C 0.09595 0.21537 0.36545 0.0
C474 C 0.11743 0.19575 0.36764 0.0
H475 H 0.21986 0.095 0.35785 0.0
H476 H 0.17294 0.11351 0.35234 0.0
H477 H 0.13311 0.14472 0.39903 0.0
H478 H 0.06059 0.25887 0.39103 0.0
H479 H 0.10161 0.23288 0.39369 0.0
C480 C 0.23271 0.99451 0.1417 0.0
C481 C 0.23721 0.02985 0.14494 0.0
C482 C 0.19716 0.96306 0.14154 0.0
C483 C 0.10019 0.93868 0.13312 0.0
H484 H 0.07935 0.83971 0.14652 0.0
C485 C 0.95474 0.80468 0.12757 0.0
C486 C 0.95493 0.77367 0.12 0.0
C487 C 0.98827 0.83718 0.13147 0.0
C488 C 0.0849 0.86724 0.14267 0.0
H489 H 0.20857 0.05977 0.15204 0.0
H490 H 0.14668 0.00474 0.15232 0.0
H491 H 0.13963 0.89351 0.1541 0.0
H492 H 0.99022 0.75342 0.10933 0.0
H493 H 0.04858 0.80988 0.11632 0.0
H494 H 0.0453 0.91215 0.1217 0.0
C495 C 0.1704 0.00141 0.14933 0.0
C496 C 0.11936 0.89799 0.14699 0.0
C497 C 0.20587 0.03287 0.14931 0.0
C498 C 0.98919 0.77651 0.11556 0.0
C499 C 0.02257 0.80876 0.11957 0.0
C500 C 0.06558 0.90791 0.12895 0.0
C501 C 0.16552 0.96636 0.1448 0.0
C502 C 0.12765 0.93402 0.14198 0.0
C503 C 0.02241 0.83903 0.12794 0.0
C504 C 0.05795 0.8719 0.13339 0.0
H505 H 0.25636 0.99138 0.13821 0.0
H506 H 0.1944 0.93653 0.13785 0.0
H507 H 0.10587 0.96598 0.12878 0.0
H508 H 0.92884 0.80329 0.13128 0.0
H509 H 0.9875 0.86025 0.13791 0.0
C510 C 0.76643 0.82982 0.34667 0.0
C511 C 0.7539 0.8071 0.3622 0.0
C512 C 0.78153 0.8683 0.34825 0.0
C513 C 0.78243 0.9402 0.37667 0.0
H514 H 0.88357 0.00443 0.35963 0.0
C515 C 0.85962 0.09317 0.39624 0.0
C516 C 0.88038 0.119 0.38265 0.0
C517 C 0.84747 0.05554 0.39381 0.0
C518 C 0.85517 0.98697 0.36426 0.0
H519 H 0.74572 0.80592 0.39129 0.0
H520 H 0.77101 0.87315 0.39404 0.0
H521 H 0.85253 0.93735 0.35393 0.0
H522 H 0.90653 0.12661 0.3563 0.0
H523 H 0.88411 0.06033 0.35165 0.0
H524 H 0.78421 0.98927 0.38661 0.0
C525 C 0.76958 0.86133 0.38072 0.0
C526 C 0.83747 0.94865 0.36098 0.0
C527 C 0.7552 0.82307 0.37918 0.0
C528 C 0.89076 0.10706 0.36702 0.0
C529 C 0.87787 0.06913 0.36439 0.0
C530 C 0.79982 0.97842 0.37971 0.0
C531 C 0.78351 0.88431 0.36533 0.0
C532 C 0.80116 0.92501 0.36739 0.0
C533 C 0.85496 0.04283 0.37751 0.0
C534 C 0.83663 0.00224 0.37382 0.0
H535 H 0.76606 0.818 0.33349 0.0
H536 H 0.792 0.8856 0.33622 0.0
H537 H 0.75425 0.92245 0.38157 0.0
H538 H 0.85164 0.10195 0.40849 0.0
H539 H 0.83103 0.03625 0.40448 0.0
C540 C 0.27886 0.02722 0.62769 0.0
C541 C 0.24334 0.99579 0.63048 0.0
C542 C 0.28257 0.06204 0.62396 0.0
C543 C 0.23628 0.10165 0.60085 0.0
H544 H 0.26172 0.17842 0.63717 0.0
C545 C 0.15615 0.17604 0.61081 0.0
C546 C 0.17352 0.21295 0.61685 0.0
C547 C 0.17702 0.15887 0.60757 0.0
C548 C 0.25572 0.15798 0.6266 0.0
H549 H 0.18419 0.97672 0.63238 0.0
H550 H 0.19084 0.03713 0.62572 0.0
H551 H 0.27693 0.12931 0.64254 0.0
H552 H 0.22606 0.26177 0.62353 0.0
H553 H 0.26313 0.23127 0.61829 0.0
H554 H 0.21257 0.12841 0.5855 0.0
C555 C 0.21563 0.0347 0.62637 0.0
C556 C 0.26435 0.12991 0.62972 0.0
C557 C 0.21193 0.00021 0.63026 0.0
C558 C 0.2124 0.2333 0.61869 0.0
C559 C 0.2334 0.21586 0.61579 0.0
C560 C 0.22782 0.12969 0.59769 0.0
C561 C 0.25078 0.06558 0.62282 0.0
C562 C 0.25291 0.10062 0.61727 0.0
C563 C 0.21568 0.17817 0.61063 0.0
C564 C 0.23548 0.15683 0.61102 0.0
H565 H 0.30358 0.02465 0.62775 0.0
H566 H 0.30992 0.08576 0.62133 0.0
H567 H 0.22726 0.07917 0.59111 0.0
H568 H 0.12613 0.16002 0.60943 0.0
H569 H 0.16244 0.12965 0.6039 0.0
C570 C 0.04313 0.86523 0.89526 0.0
C571 C 0.05031 0.83618 0.89854 0.0
C572 C 0.0065 0.85832 0.89565 0.0
C573 C 0.91216 0.77944 0.88799 0.0
H574 H 0.88144 0.8502 0.90156 0.0
C575 C 0.78658 0.81284 0.87389 0.0
C576 C 0.75492 0.7787 0.8784 0.0
C577 C 0.82214 0.81824 0.87661 0.0
C578 C 0.88975 0.83029 0.89759 0.0
H579 H 0.02624 0.7785 0.90651 0.0
H580 H 0.96244 0.76658 0.90788 0.0
H581 H 0.94463 0.86399 0.90843 0.0
H582 H 0.73558 0.72263 0.88818 0.0
H583 H 0.79814 0.73203 0.89279 0.0
H584 H 0.85731 0.74587 0.87707 0.0
C585 C 0.98461 0.7943 0.90438 0.0
C586 C 0.92588 0.83817 0.90156 0.0
C587 C 0.02104 0.80113 0.90378 0.0
C588 C 0.75949 0.74916 0.88449 0.0
C589 C 0.79526 0.7546 0.88721 0.0
C590 C 0.876 0.77151 0.8841 0.0
C591 C 0.97672 0.82232 0.89949 0.0
C592 C 0.9376 0.813 0.89664 0.0
C593 C 0.82685 0.78962 0.88387 0.0
C594 C 0.86462 0.79709 0.88863 0.0
H595 H 0.06541 0.89234 0.89104 0.0
H596 H 0.00135 0.8805 0.89176 0.0
H597 H 0.9205 0.75974 0.8837 0.0
H598 H 0.78395 0.83605 0.86901 0.0
H599 H 0.84601 0.84521 0.87348 0.0
C600 C 0.78799 0.95684 0.6246 0.0
C601 C 0.75538 0.94907 0.61528 0.0
C602 C 0.81706 0.99366 0.62648 0.0
C603 C 0.85666 0.08872 0.60809 0.0
H604 H 0.89488 0.11883 0.65701 0.0
C605 C 0.97069 0.24005 0.6238 0.0
C606 C 0.00056 0.24226 0.63376 0.0
C607 C 0.93683 0.20623 0.62286 0.0
C608 C 0.88463 0.11088 0.64326 0.0
H609 H 0.72841 0.97303 0.59962 0.0
H610 H 0.77935 0.03725 0.60262 0.0
H611 H 0.84655 0.05464 0.6512 0.0
H612 H 0.01783 0.21222 0.65165 0.0
H613 H 0.95948 0.15388 0.65008 0.0
H614 H 0.89552 0.14464 0.60002 0.0
C615 C 0.7824 0.0151 0.60863 0.0
C616 C 0.85708 0.07406 0.63992 0.0
C617 C 0.75325 0.97843 0.60696 0.0
C618 C 0.99522 0.21121 0.64383 0.0
C619 C 0.9616 0.17775 0.64299 0.0
C620 C 0.88452 0.12553 0.61139 0.0
C621 C 0.81415 0.02321 0.61884 0.0
C622 C 0.84319 0.06246 0.62227 0.0
C623 C 0.93238 0.17439 0.63202 0.0
C624 C 0.89926 0.13691 0.62897 0.0
H625 H 0.79015 0.93472 0.63125 0.0
H626 H 0.84148 -0.00087 0.63423 0.0
H627 H 0.84644 0.08052 0.59434 0.0
H628 H 0.97428 0.26357 0.61582 0.0
H629 H 0.91463 0.20463 0.61447 0.0
C630 C 0.20511 0.23455 0.89908 0.0
C631 C 0.16604 0.214 0.89933 0.0
C632 C 0.22562 0.21688 0.90274 0.0
C633 C 0.21739 0.12998 0.92105 0.0
H634 H 0.27264 0.13115 0.87821 0.0
C635 C 0.20606 0.00037 0.89143 0.0
C636 C 0.2384 0.99777 0.88987 0.0
C637 C 0.2086 0.03434 0.89533 0.0
C638 C 0.25826 0.13127 0.89049 0.0
H639 H 0.1176 0.16035 0.90467 0.0
H640 H 0.153 0.12954 0.91149 0.0
H641 H 0.25703 0.18027 0.8825 0.0
H642 H 0.29889 0.02921 0.89017 0.0
H643 H 0.30313 0.08941 0.89647 0.0
H644 H 0.21564 0.07914 0.92815 0.0
C645 C 0.16807 0.15908 0.90847 0.0
C646 C 0.24943 0.15936 0.893 0.0
C647 C 0.14775 0.17649 0.90446 0.0
C648 C 0.27348 0.03038 0.89131 0.0
C649 C 0.27599 0.06469 0.89498 0.0
C650 C 0.22603 0.10193 0.9185 0.0
C651 C 0.20713 0.17877 0.9071 0.0
C652 C 0.22703 0.15763 0.90776 0.0
C653 C 0.24347 0.06651 0.89753 0.0
C654 C 0.24473 0.10135 0.90272 0.0
H655 H 0.21951 0.26353 0.89499 0.0
H656 H 0.25568 0.23254 0.90152 0.0
H657 H 0.20048 0.12832 0.93263 0.0
H658 H 0.17861 0.97591 0.89038 0.0
H659 H 0.18318 0.03539 0.89694 0.0
C660 C 0.04516 0.86866 0.62519 0.0
C661 C 0.05099 0.83832 0.62351 0.0
C662 C 0.00894 0.86302 0.62435 0.0
C663 C 0.91325 0.78806 0.63355 0.0
H664 H 0.88406 0.85481 0.61207 0.0
C665 C 0.75988 0.75347 0.62975 0.0
C666 C 0.75303 0.78304 0.63227 0.0
C667 C 0.79647 0.76032 0.62881 0.0
C668 C 0.89191 0.83612 0.61833 0.0
H669 H 0.02476 0.77931 0.61797 0.0
H670 H 0.96184 0.76949 0.616 0.0
H671 H 0.94795 0.86767 0.60839 0.0
H672 H 0.77908 0.84266 0.63674 0.0
H673 H 0.84258 0.85436 0.63548 0.0
H674 H 0.85748 0.75667 0.64362 0.0
C675 C 0.98475 0.79736 0.61855 0.0
C676 C 0.92847 0.84347 0.61616 0.0
C677 C 0.0207 0.80297 0.61952 0.0
C678 C 0.7834 0.81926 0.63465 0.0
C679 C 0.81985 0.82607 0.63376 0.0
C680 C 0.8768 0.78076 0.63573 0.0
C681 C 0.97825 0.82698 0.62172 0.0
C682 C 0.93948 0.81942 0.62369 0.0
C683 C 0.82684 0.79684 0.63042 0.0
C684 C 0.86568 0.80468 0.62816 0.0
H685 H 0.06819 0.89607 0.62841 0.0
H686 H 0.00479 0.8864 0.62684 0.0
H687 H 0.92108 0.76941 0.63987 0.0
H688 H 0.73708 0.72531 0.62774 0.0
H689 H 0.80094 0.7372 0.62612 0.0
C690 C 0.99075 0.21754 0.87288 0.0
C691 C -0.00268 0.24916 0.8828 0.0
C692 C 0.95836 0.18363 0.87566 0.0
C693 C 0.86448 0.13215 0.89078 0.0
H694 H 0.89244 0.06184 0.90915 0.0
C695 C 0.75333 0.98031 0.90451 0.0
C696 C 0.7615 0.95358 0.89777 0.0
C697 C 0.78134 0.01741 0.9063 0.0
C698 C 0.88411 0.08098 0.90396 0.0
H699 H 0.97391 0.27121 0.90212 0.0
H700 H 0.91607 0.21124 0.9067 0.0
H701 H 0.9404 0.12621 0.90326 0.0
H702 H 0.80526 0.94381 0.88854 0.0
H703 H 0.85447 0.00889 0.89117 0.0
H704 H 0.80845 0.08667 0.89041 0.0
C705 C 0.93643 0.21303 0.89692 0.0
C706 C 0.91152 0.11782 0.90071 0.0
C707 C 0.96921 0.24725 0.89418 0.0
C708 C 0.79851 0.96399 0.89392 0.0
C709 C 0.82658 0.00128 0.89546 0.0
C710 C 0.83699 0.09507 0.8938 0.0
C711 C 0.93182 0.18076 0.88831 0.0
C712 C 0.90198 0.14341 0.89373 0.0
C713 C 0.81807 0.02864 0.90111 0.0
C714 C 0.8466 0.06885 0.90006 0.0
H715 H 0.01198 0.2184 0.86397 0.0
H716 H 0.955 0.15912 0.86869 0.0
H717 H 0.85666 0.15151 0.88533 0.0
H718 H 0.72489 0.97263 0.90774 0.0
H719 H 0.77395 0.03749 0.91116 0.0
C720 C 0.36743 0.1296 0.32492 0.0
C721 C 0.3591 0.15056 0.33704 0.0
C722 C 0.37378 0.13909 0.30656 0.0
C723 C 0.34497 0.17741 0.2705 0.0
H724 H 0.42441 0.17583 0.24348 0.0
C725 C 0.34697 0.17695 0.19147 0.0
C726 C 0.35692 0.15234 0.18352 0.0
C727 C 0.35252 0.18509 0.21011 0.0
C728 C 0.40189 0.17614 0.25076 0.0
H729 H 0.35154 0.1983 0.33959 0.0
H730 H 0.36161 0.21442 0.30701 0.0
H731 H 0.42542 0.17563 0.27663 0.0
H732 H 0.38104 0.11748 0.18895 0.0
H733 H 0.38981 0.13082 0.22121 0.0
H734 H 0.32015 0.17559 0.24471 0.0
C735 C 0.36374 0.19096 0.31193 0.0
C736 C 0.40269 0.17634 0.26977 0.0
C737 C 0.35823 0.18193 0.33052 0.0
C738 C 0.37315 0.13667 0.19456 0.0
C739 C 0.3785 0.14462 0.21312 0.0
C740 C 0.3439 0.17674 0.25144 0.0
C741 C 0.37122 0.16933 0.29976 0.0
C742 C 0.37375 0.17598 0.27983 0.0
C743 C 0.36807 0.16874 0.22123 0.0
C744 C 0.3718 0.17497 0.24132 0.0
H745 H 0.36825 0.10527 0.32961 0.0
H746 H 0.37911 0.1217 0.2975 0.0
H747 H 0.32212 0.17679 0.27792 0.0
H748 H 0.33452 0.1896 0.18334 0.0
H749 H 0.34451 0.2041 0.21581 0.0
C750 C 0.77947 0.66763 0.31537 0.0
C751 C 0.78868 0.64907 0.32859 0.0
C752 C 0.78067 0.66084 0.29695 0.0
C753 C 0.75853 0.62131 0.26111 0.0
H754 H 0.84405 0.62787 0.23632 0.0
C755 C 0.75557 0.60476 0.18392 0.0
C756 C 0.78726 0.63139 0.17447 0.0
C757 C 0.75687 0.6001 0.20266 0.0
C758 C 0.81993 0.62591 0.24306 0.0
H759 H 0.8078 0.60965 0.33263 0.0
H760 H 0.81006 0.59774 0.2999 0.0
H761 H 0.8445 0.63315 0.26961 0.0
H762 H 0.84576 0.67272 0.17716 0.0
H763 H 0.84783 0.66541 0.21007 0.0
H764 H 0.73441 0.61583 0.23491 0.0
C765 C 0.80176 0.61753 0.3041 0.0
C766 C 0.82007 0.62853 0.26212 0.0
C767 C 0.8004 0.62427 0.32279 0.0
C768 C 0.82085 0.652 0.18407 0.0
C769 C 0.82206 0.64763 0.20293 0.0
C770 C 0.75834 0.61865 0.24221 0.0
C771 C 0.79114 0.63528 0.29105 0.0
C772 C 0.78969 0.6272 0.27127 0.0
C773 C 0.78978 0.62232 0.21255 0.0
C774 C 0.78925 0.62157 0.23285 0.0
H775 H 0.77078 0.68732 0.31921 0.0
H776 H 0.77314 0.6756 0.28724 0.0
H777 H 0.73453 0.6198 0.26779 0.0
H778 H 0.72939 0.58799 0.17688 0.0
H779 H 0.73171 0.57968 0.2095 0.0
C780 C 0.81364 0.16358 0.18693 0.0
C781 C 0.83442 0.19927 0.17921 0.0
C782 C 0.80664 0.1593 0.20567 0.0
C783 C 0.8098 0.21002 0.24814 0.0
H784 H 0.83266 0.13974 0.27105 0.0
C785 C 0.81659 0.19539 0.32705 0.0
C786 C 0.85059 0.19869 0.33249 0.0
C787 C 0.80635 0.19032 0.30858 0.0
C788 C 0.8258 0.15923 0.26486 0.0
H789 H 0.86261 0.25848 0.18505 0.0
H790 H 0.85069 0.25102 0.21765 0.0
H791 H 0.82966 0.14165 0.23803 0.0
H792 H 0.89966 0.19775 0.32304 0.0
H793 H 0.88165 0.18838 0.29128 0.0
H794 H 0.80772 0.22867 0.27513 0.0
C795 C 0.83952 0.22629 0.20925 0.0
C796 C 0.82381 0.16016 0.24591 0.0
C797 C 0.84663 0.23057 0.19054 0.0
C798 C 0.87336 0.19553 0.3193 0.0
C799 C 0.86291 0.18986 0.30108 0.0
C800 C 0.81157 0.20891 0.26715 0.0
C801 C 0.82011 0.19061 0.21711 0.0
C802 C 0.81683 0.18627 0.23728 0.0
C803 C 0.82956 0.18759 0.29542 0.0
C804 C 0.82074 0.18427 0.27567 0.0
H805 H 0.80363 0.13887 0.1786 0.0
H806 H 0.79121 0.13143 0.21124 0.0
H807 H 0.80391 0.23016 0.24192 0.0
H808 H 0.79857 0.19783 0.33693 0.0
H809 H 0.78044 0.18865 0.30457 0.0
C810 C 0.1309 0.31503 0.69065 0.0
C811 C 0.12023 0.33666 0.68034 0.0
C812 C 0.13307 0.318 0.70963 0.0
C813 C 0.09739 0.34738 0.74852 0.0
H814 H 0.17605 0.34376 0.77521 0.0
C815 C 0.11162 0.3666 0.82657 0.0
C816 C 0.11952 0.34212 0.83622 0.0
C817 C 0.1141 0.36855 0.80757 0.0
C818 C 0.15371 0.34451 0.76797 0.0
H819 H 0.10427 0.37901 0.68191 0.0
H820 H 0.1084 0.3844 0.71492 0.0
H821 H 0.17592 0.34204 0.74204 0.0
H822 H 0.13682 0.30094 0.83342 0.0
H823 H 0.1408 0.30413 0.8004 0.0
H824 H 0.07494 0.34944 0.77441 0.0
C825 C 0.11455 0.36472 0.70838 0.0
C826 C 0.15364 0.3435 0.74895 0.0
C827 C 0.1124 0.36177 0.68942 0.0
C828 C 0.13063 0.3202 0.82645 0.0
C829 C 0.13312 0.32217 0.80748 0.0
C830 C 0.09745 0.34837 0.76753 0.0
C831 C 0.1246 0.34266 0.71874 0.0
C832 C 0.12536 0.34473 0.73898 0.0
C833 C 0.12457 0.34611 0.79778 0.0
C834 C 0.12549 0.34672 0.77751 0.0
H835 H 0.13702 0.29534 0.6841 0.0
H836 H 0.14052 0.3003 0.7172 0.0
H837 H 0.07485 0.34779 0.7413 0.0
H838 H 0.10308 0.38395 0.83367 0.0
H839 H 0.1078 0.38766 0.80055 0.0
C840 C 0.19926 0.8716 0.82838 0.0
C841 C 0.23238 0.88709 0.83856 0.0
C842 C 0.20017 0.8697 0.80942 0.0
C843 C 0.26293 0.91257 0.77007 0.0
H844 H 0.18642 0.82678 0.7442 0.0
C845 C 0.26664 0.89762 0.69193 0.0
C846 C 0.23271 0.88474 0.68267 0.0
C847 C 0.26748 0.89632 0.71093 0.0
C848 C 0.20782 0.85108 0.75121 0.0
H849 H 0.29242 0.91215 0.83677 0.0
H850 H 0.29395 0.90848 0.80369 0.0
H851 H 0.18635 0.82726 0.77736 0.0
H852 H 0.17297 0.85993 0.68617 0.0
H853 H 0.1745 0.85792 0.71924 0.0
H854 H 0.28423 0.93649 0.7439 0.0
C855 C 0.2673 0.89828 0.81036 0.0
C856 C 0.20778 0.85136 0.77023 0.0
C857 C 0.2664 0.90018 0.82934 0.0
C858 C 0.19961 0.87005 0.69285 0.0
C859 C 0.20044 0.86868 0.71183 0.0
C860 C 0.26299 0.91226 0.75104 0.0
C861 C 0.23422 0.88321 0.80015 0.0
C862 C 0.23516 0.88224 0.7799 0.0
C863 C 0.2344 0.882 0.72112 0.0
C864 C 0.23526 0.88164 0.74137 0.0
H865 H 0.17257 0.86132 0.83503 0.0
H866 H 0.1742 0.85837 0.80199 0.0
H867 H 0.28412 0.93703 0.77706 0.0
H868 H 0.29265 0.909 0.68451 0.0
H869 H 0.29406 0.90639 0.71765 0.0
C870 C 0.65268 0.81058 0.68581 0.0
C871 C 0.63574 0.77618 0.67666 0.0
C872 C 0.65154 0.81189 0.70488 0.0
C873 C 0.63973 0.75312 0.74508 0.0
H874 H 0.62651 0.82612 0.77182 0.0
C875 C 0.62086 0.74303 0.82281 0.0
C876 C 0.63982 0.77615 0.83292 0.0
C877 C 0.61871 0.74405 0.80385 0.0
C878 C 0.63059 0.80575 0.76456 0.0
H879 H 0.60269 0.71629 0.68039 0.0
H880 H 0.60031 0.71863 0.71332 0.0
H881 H 0.62589 0.82656 0.73854 0.0
H882 H 0.67057 0.83644 0.83095 0.0
H883 H 0.66714 0.8382 0.79784 0.0
H884 H 0.64475 0.73243 0.77091 0.0
C885 C 0.61526 0.74461 0.7059 0.0
C886 C 0.63024 0.80602 0.74547 0.0
C887 C 0.61643 0.7433 0.68695 0.0
C888 C 0.6557 0.81037 0.82361 0.0
C889 C 0.6536 0.81139 0.8046 0.0
C890 C 0.64012 0.75287 0.76408 0.0
C891 C 0.63344 0.77882 0.71518 0.0
C892 C 0.63451 0.77949 0.73549 0.0
C893 C 0.63555 0.77821 0.79444 0.0
C894 C 0.6353 0.77899 0.77412 0.0
H895 H 0.66783 0.83642 0.6783 0.0
H896 H 0.66596 0.83872 0.71158 0.0
H897 H 0.644 0.7328 0.73788 0.0
H898 H 0.60808 0.71617 0.82952 0.0
H899 H 0.60393 0.71794 0.79654 0.0
C900 C 0.25821 0.92534 0.95701 0.0
C901 C 0.22687 0.91713 0.94637 0.0
C902 C 0.26306 0.94166 0.97415 0.0
C903 C 0.23959 0.00223 1.00025 0.0
H904 H 0.27966 0.97341 0.04065 0.0
C905 C 0.27305 0.07561 0.07129 0.0
C906 C 0.30499 0.0799 0.08015 0.0
C907 C 0.26052 0.05495 0.0551 0.0
C908 C 0.26885 0.98214 0.02946 0.0
H909 H 0.17554 0.91887 0.94562 0.0
H910 H 0.18417 0.94766 0.97568 0.0
H911 H 0.26178 0.9367 0.01283 0.0
H912 H 0.34983 0.06748 0.07845 0.0
H913 H 0.32877 0.0327 0.05026 0.0
H914 H 0.24761 0.0483 0.01676 0.0
C915 C 0.20495 0.94138 0.97067 0.0
C916 C 0.25842 0.96092 0.01353 0.0
C917 C 0.19982 0.92453 0.95355 0.0
C918 C 0.3249 0.06444 0.07211 0.0
C919 C 0.31258 0.04412 0.05598 0.0
C920 C 0.25027 0.02367 0.0162 0.0
C921 C 0.23692 0.9506 0.98105 0.0
C922 C 0.24426 0.97103 0.99861 0.0
C923 C 0.27976 0.03829 0.04745 0.0
C924 C 0.26574 0.0143 0.03089 0.0
H925 H 0.27965 0.92016 0.95185 0.0
H926 H 0.28816 0.94869 0.98169 0.0
H927 H 0.22907 0.01095 0.98893 0.0
H928 H 0.25698 0.087 0.07719 0.0
H929 H 0.2351 0.051 0.04894 0.0
C930 C 0.7548 0.72769 0.43404 0.0
C931 C 0.75679 0.69517 0.43145 0.0
C932 C 0.74695 0.73672 0.45115 0.0
C933 C 0.74119 0.71296 0.5006 0.0
H934 H 0.6821 0.7615 0.50265 0.0
C935 C 0.67003 0.72198 0.56623 0.0
C936 C 0.67468 0.75695 0.57095 0.0
C937 C 0.68146 0.71624 0.54928 0.0
C938 C 0.69895 0.74831 0.50228 0.0
H939 H 0.7524 0.64673 0.4449 0.0
H940 H 0.73727 0.66162 0.47473 0.0
H941 H 0.69874 0.74692 0.47324 0.0
H942 H 0.69454 0.81317 0.56131 0.0
H943 H 0.71371 0.80272 0.53127 0.0
H944 H 0.73993 0.71316 0.52975 0.0
C945 C 0.74273 0.6808 0.46362 0.0
C946 C 0.70868 0.74 0.4854 0.0
C947 C 0.75123 0.67207 0.44648 0.0
C948 C 0.69049 0.78592 0.55809 0.0
C949 C 0.70142 0.77993 0.54091 0.0
C950 C 0.73096 0.72077 0.51746 0.0
C951 C 0.74018 0.71316 0.46618 0.0
C952 C 0.72997 0.72217 0.48427 0.0
C953 C 0.69741 0.74511 0.53644 0.0
C954 C 0.70966 0.73846 0.51849 0.0
H955 H 0.75939 0.74639 0.42279 0.0
H956 H 0.74633 0.76236 0.45254 0.0
H957 H 0.75818 0.69994 0.50041 0.0
H958 H 0.65812 0.699 0.57578 0.0
H959 H 0.67759 0.68901 0.54616 0.0
C960 C 0.06955 0.33008 0.95337 0.0
C961 C 0.0758 0.30512 0.94315 0.0
C962 C 0.05007 0.31902 0.96981 0.0
C963 C 0.0141 0.24618 1.00588 0.0
H964 H 0.9441 0.28096 0.01341 0.0
C965 C 0.90814 0.19565 0.06605 0.0
C966 C 0.90598 0.22403 0.07545 0.0
C967 C 0.92761 0.20327 0.04953 0.0
C968 C 0.96365 0.27116 0.01159 0.0
H969 H 0.06779 0.24935 0.94262 0.0
H970 H 0.03337 0.22984 0.97132 0.0
H971 H 0.98225 0.29918 0.98608 0.0
H972 H 0.92191 0.28244 0.0746 0.0
H973 H 0.95528 0.29548 0.04591 0.0
H974 H 0.99508 0.21798 0.0315 0.0
C975 C 0.04388 0.25815 0.96669 0.0
C976 C 0.98572 0.28176 0.99593 0.0
C977 C 0.06367 0.26935 0.95023 0.0
C978 C 0.92288 0.25985 0.06773 0.0
C979 C 0.94195 0.26734 0.05121 0.0
C980 C 0.99181 0.23541 0.02157 0.0
C981 C 0.03594 0.28257 0.97644 0.0
C982 C 0.01169 0.26992 0.99297 0.0
C983 C 0.94492 0.23929 0.04197 0.0
C984 C 0.96668 0.24822 0.02472 0.0
H985 H 0.07873 0.35794 0.9484 0.0
H986 H 0.04546 0.33896 0.97717 0.0
H987 H 0.03388 0.23666 1.00412 0.0
H988 H 0.89562 0.16781 0.07168 0.0
H989 H 0.92912 0.18098 0.04267 0.0
C990 C 0.30797 0.08506 0.45378 0.0
C991 C 0.29437 0.06465 0.43758 0.0
C992 C 0.29764 0.06705 0.4707 0.0
C993 C 0.22789 0.97849 0.49318 0.0
H994 H 0.30511 0.00727 0.52954 0.0
C995 C 0.26037 0.92212 0.56465 0.0
C996 C 0.22769 0.91184 0.57462 0.0
C997 C 0.26607 0.93919 0.54765 0.0
C998 C 0.28323 -0.00136 0.51949 0.0
H999 H 0.25857 0.00931 0.42655 0.0
H1000 H 0.24107 0.97814 0.45585 0.0
H1001 H 0.31954 0.04111 0.5009 0.0
H1002 H 0.17459 0.91003 0.57412 0.0
H1003 H 0.18457 0.94 0.54436 0.0
H1004 H 0.19184 0.93535 0.51166 0.0
C1005 C 0.25933 0.00807 0.45559 0.0
C1006 C 0.2914 0.01846 0.50315 0.0
C1007 C 0.26964 0.026 0.43873 0.0
C1008 C 0.19996 0.91736 0.56674 0.0
C1009 C 0.20574 0.93462 0.54969 0.0
C1010 C 0.21969 0.95865 0.50957 0.0
C1011 C 0.27342 0.02824 0.47181 0.0
C1012 C 0.26396 0.00847 0.48968 0.0
C1013 C 0.23934 0.94666 0.54016 0.0
C1014 C 0.24739 0.9682 0.52286 0.0
H1015 H 0.32695 0.11486 0.45339 0.0
H1016 H 0.30868 0.08355 0.48293 0.0
H1017 H 0.20592 0.97027 0.48321 0.0
H1018 H 0.28224 0.91808 0.57023 0.0
H1019 H 0.29184 0.94716 0.54052 0.0
C1020 C 0.79367 0.71588 0.06273 0.0
C1021 C 0.76598 0.68336 0.07127 0.0
C1022 C 0.78565 0.72909 0.04676 0.0
C1023 C 0.70441 0.72102 0.0212 0.0
H1024 H 0.77446 0.76529 0.98139 0.0
C1025 C 0.65996 0.73665 0.94919 0.0
C1026 C 0.68265 0.76944 0.93934 0.0
C1027 C 0.67132 0.73046 0.96607 0.0
C1028 C 0.7548 0.75348 0.99251 0.0
H1029 H 0.70876 0.63826 0.06919 0.0
H1030 H 0.69523 0.66044 0.0413 0.0
H1031 H 0.79282 0.74499 0.00877 0.0
H1032 H 0.73493 0.82179 0.93967 0.0
H1033 H 0.75507 0.81074 0.96927 0.0
H1034 H 0.66609 0.72854 1.00478 0.0
C1035 C 0.72279 0.67656 0.04714 0.0
C1036 C 0.7653 0.7418 0.00822 0.0
C1037 C 0.73069 0.66359 0.06308 0.0
C1038 C 0.71668 0.7964 0.947 0.0
C1039 C 0.72836 0.78992 0.96385 0.0
C1040 C 0.69388 0.73241 1.00551 0.0
C1041 C 0.74981 0.70996 0.03896 0.0
C1042 C 0.73996 0.72476 0.02264 0.0
C1043 C 0.70592 0.75667 0.97348 0.0
C1044 C 0.71869 0.74822 0.99085 0.0
H1045 H 0.82107 0.7319 0.06876 0.0
H1046 H 0.80714 0.75496 0.0409 0.0
H1047 H 0.68446 0.70904 0.0322 0.0
H1048 H 0.63363 0.71527 0.94366 0.0
H1049 H 0.65352 0.70442 0.97302 0.0
C1050 C 0.07617 0.27201 0.56386 0.0
C1051 C 0.08273 0.30486 0.57265 0.0
C1052 C 0.05949 0.26289 0.54658 0.0
C1053 C 0.03899 0.25994 0.50605 0.0
H1054 H 0.95788 0.27957 0.49851 0.0
C1055 C 0.97687 0.25463 0.43498 0.0
C1056 C 0.93809 0.23942 0.43347 0.0
C1057 C 0.99386 0.26042 0.45201 0.0
C1058 C 0.9802 0.27355 0.50042 0.0
H1059 H 0.07865 0.35475 0.56971 0.0
H1060 H 0.05032 0.33915 0.53976 0.0
H1061 H 0.98954 0.29372 0.52778 0.0
H1062 H 0.88677 0.21816 0.44881 0.0
H1063 H 0.91649 0.22832 0.47863 0.0
H1064 H 0.02939 0.23953 0.47866 0.0
C1065 C 0.05718 0.31997 0.54629 0.0
C1066 C -0.0013 0.2821 0.51715 0.0
C1067 C 0.07377 0.32906 0.56345 0.0
C1068 C 0.9167 0.23008 0.44948 0.0
C1069 C 0.93377 0.23602 0.46656 0.0
C1070 C 0.02055 0.25152 0.48925 0.0
C1071 C 0.049 0.28639 0.5378 0.0
C1072 C 0.02859 0.27579 0.52013 0.0
C1073 C 0.97259 0.25126 0.46804 0.0
C1074 C 0.9911 0.2585 0.48618 0.0
H1075 H 0.08256 0.25268 0.57059 0.0
H1076 H 0.05354 0.23677 0.54043 0.0
H1077 H 0.06192 0.25481 0.50786 0.0
H1078 H 0.99428 0.26214 0.42296 0.0
H1079 H 0.02384 0.27272 0.45261 0.0
C1080 C 0.74587 0.18155 0.10287 0.0
C1081 C 0.77291 0.21045 0.1136 0.0
C1082 C 0.70879 0.17271 0.10365 0.0
C1083 C 0.64529 0.17177 0.13725 0.0
H1084 H 0.57439 0.13704 0.0975 0.0
C1085 C 0.48748 0.11309 0.14773 0.0
C1086 C 0.46272 0.08438 0.13613 0.0
C1087 C 0.52587 0.13027 0.14507 0.0
C1088 C 0.5938 0.14619 0.10876 0.0
H1089 H 0.78319 0.2547 0.13247 0.0
H1090 H 0.71788 0.23893 0.13399 0.0
H1091 H 0.64101 0.16893 0.09093 0.0
H1092 H 0.45911 0.04948 0.11337 0.0
H1093 H 0.52615 0.07836 0.10918 0.0
H1094 H 0.5983 0.14792 0.15512 0.0
C1095 C 0.72552 0.22317 0.125 0.0
C1096 C 0.63191 0.1648 0.10497 0.0
C1097 C 0.76285 0.2324 0.124 0.0
C1098 C 0.47732 0.07141 0.1226 0.0
C1099 C 0.51578 0.08845 0.11999 0.0
C1100 C 0.60719 0.15291 0.14105 0.0
C1101 C 0.69801 0.19232 0.11536 0.0
C1102 C 0.65799 0.17737 0.11918 0.0
C1103 C 0.54043 0.11885 0.13083 0.0
C1104 C 0.58099 0.13947 0.12685 0.0
H1105 H 0.75301 0.16426 0.09473 0.0
H1106 H 0.68819 0.14871 0.09614 0.0
H1107 H 0.66479 0.18052 0.14848 0.0
H1108 H 0.47708 0.12331 0.15846 0.0
H1109 H 0.544 0.15357 0.15368 0.0
C1110 C 0.67162 0.54509 0.37477 0.0
C1111 C 0.67273 0.57873 0.37873 0.0
C1112 C 0.638 0.51155 0.37487 0.0
C1113 C 0.54896 0.46551 0.39721 0.0
H1114 H 0.5255 0.38902 0.36092 0.0
C1115 C 0.4262 0.31517 0.40635 0.0
C1116 C 0.43289 0.28635 0.40134 0.0
C1117 C 0.45145 0.35211 0.4017 0.0
C1118 C 0.53176 0.40996 0.37124 0.0
H1119 H 0.63951 0.60393 0.38548 0.0
H1120 H 0.58008 0.54441 0.38619 0.0
H1121 H 0.57627 0.45237 0.35548 0.0
H1122 H 0.47136 0.27371 0.3876 0.0
H1123 H 0.51592 0.33819 0.3798 0.0
H1124 H 0.50584 0.42288 0.41342 0.0
C1125 C 0.60548 0.5444 0.38281 0.0
C1126 C 0.56062 0.44629 0.36804 0.0
C1127 C 0.6393 0.57833 0.38235 0.0
C1128 C 0.46529 0.29526 0.39148 0.0
C1129 C 0.4907 0.33224 0.38695 0.0
C1130 C 0.52026 0.42906 0.4005 0.0
C1131 C 0.60467 0.5107 0.3792 0.0
C1132 C 0.57009 0.47419 0.38118 0.0
C1133 C 0.48413 0.36116 0.39202 0.0
C1134 C 0.51193 0.40063 0.38774 0.0
H1135 H 0.69696 0.54461 0.37181 0.0
H1136 H 0.63831 0.48602 0.37225 0.0
H1137 H 0.55599 0.4864 0.40766 0.0
H1138 H 0.40112 0.30913 0.41364 0.0
H1139 H 0.44517 0.37353 0.40558 0.0
C1140 C 0.8734 0.37217 0.14359 0.0
C1141 C 0.90277 0.37647 0.1324 0.0
C1142 C 0.85675 0.39377 0.14078 0.0
C1143 C 0.84406 0.44793 0.10448 0.0
H1144 H 0.80717 0.48282 0.14381 0.0
C1145 C 0.80928 0.56497 0.09844 0.0
C1146 C 0.7795 0.56239 0.10867 0.0
C1147 C 0.81821 0.53683 0.09932 0.0
C1148 C 0.81668 0.4726 0.13268 0.0
H1149 H 0.93938 0.40878 0.11027 0.0
H1150 H 0.91141 0.44756 0.10587 0.0
H1151 H 0.83894 0.44839 0.1508 0.0
H1152 H 0.73391 0.5273 0.12673 0.0
H1153 H 0.74981 0.47795 0.12841 0.0
H1154 H 0.8229 0.47345 0.08642 0.0
C1155 C 0.9004 0.42655 0.11644 0.0
C1156 C 0.83504 0.45303 0.13668 0.0
C1157 C 0.9169 0.40474 0.11917 0.0
C1158 C 0.75689 0.52982 0.11864 0.0
C1159 C 0.76619 0.50182 0.11974 0.0
C1160 C 0.82596 0.46776 0.1005 0.0
C1161 C 0.86937 0.42049 0.12682 0.0
C1162 C 0.84936 0.44086 0.12263 0.0
C1163 C 0.79779 0.50582 0.11062 0.0
C1164 C 0.81245 0.48061 0.11457 0.0
H1165 H 0.86228 0.35104 0.15409 0.0
H1166 H 0.83294 0.38834 0.14905 0.0
H1167 H 0.85392 0.43815 0.09332 0.0
H1168 H 0.82711 0.58984 0.09065 0.0
H1169 H 0.84279 0.54073 0.09221 0.0
C1170 C 0.44288 0.12017 0.40695 0.0
C1171 C 0.419 0.10194 0.39229 0.0
C1172 C 0.47827 0.12422 0.40761 0.0
C1173 C 0.54065 0.09413 0.38648 0.0
H1174 H 0.61675 0.18815 0.40675 0.0
C1175 C 0.70138 0.15033 0.38428 0.0
C1176 C 0.7182 0.15961 0.40153 0.0
C1177 C 0.66446 0.14199 0.38203 0.0
C1178 C 0.59577 0.16178 0.40107 0.0
H1179 H 0.41264 0.0725 0.36706 0.0
H1180 H 0.47543 0.08073 0.36778 0.0
H1181 H 0.5528 0.17496 0.40491 0.0
H1182 H 0.71013 0.16825 0.42981 0.0
H1183 H 0.64606 0.15476 0.42581 0.0
H1184 H 0.58463 0.08185 0.38224 0.0
C1185 C 0.4665 0.09119 0.37903 0.0
C1186 C 0.55898 0.15397 0.40015 0.0
C1187 C 0.43055 0.08642 0.37859 0.0
C1188 C 0.69771 0.16095 0.41641 0.0
C1189 C 0.66119 0.1534 0.4141 0.0
C1190 C 0.57777 0.10229 0.38714 0.0
C1191 C 0.49118 0.11106 0.39334 0.0
C1192 C 0.53069 0.1197 0.39323 0.0
C1193 C 0.64416 0.14368 0.39693 0.0
C1194 C 0.60546 0.13592 0.39475 0.0
H1195 H 0.43441 0.13202 0.4178 0.0
H1196 H 0.4958 0.13844 0.41919 0.0
H1197 H 0.5197 0.06742 0.38114 0.0
H1198 H 0.71657 0.14882 0.37264 0.0
H1199 H 0.65191 0.1347 0.36865 0.0
C1200 C 0.45876 0.22382 0.1264 0.0
C1201 C 0.42598 0.21286 0.11648 0.0
C1202 C 0.4872 0.26112 0.12633 0.0
C1203 C 0.52167 0.35229 0.10381 0.0
H1204 H 0.54192 0.39169 0.15293 0.0
C1205 C 0.58416 0.50849 0.11703 0.0
C1206 C 0.61291 0.52468 0.12994 0.0
C1207 C 0.56243 0.4698 0.1156 0.0
C1208 C 0.53702 0.38116 0.13913 0.0
H1209 H 0.39846 0.23088 0.09738 0.0
H1210 H 0.4483 0.29561 0.09692 0.0
H1211 H 0.50737 0.32453 0.14818 0.0
H1212 H 0.63934 0.51313 0.15244 0.0
H1213 H 0.60208 0.44574 0.1497 0.0
H1214 H 0.55104 0.40882 0.09472 0.0
C1215 C 0.45207 0.27577 0.10487 0.0
C1216 C 0.51742 0.34269 0.13642 0.0
C1217 C 0.4235 0.23876 0.10517 0.0
C1218 C 0.61778 0.50142 0.14216 0.0
C1219 C 0.59623 0.46279 0.14067 0.0
C1220 C 0.54151 0.39075 0.10651 0.0
C1221 C 0.48339 0.28762 0.11607 0.0
C1222 C 0.50904 0.32793 0.11874 0.0
C1223 C 0.56906 0.44654 0.12701 0.0
C1224 C 0.54882 0.40563 0.12421 0.0
H1225 H 0.46117 0.20432 0.1353 0.0
H1226 H 0.5113 0.26961 0.13496 0.0
H1227 H 0.51568 0.34155 0.09004 0.0
H1228 H 0.57974 0.52556 0.10737 0.0
H1229 H 0.54104 0.45811 0.10522 0.0
C1230 C 0.82619 0.52712 0.40818 0.0
C1231 C 0.82931 0.55175 0.39433 0.0
C1232 C 0.83436 0.499 0.4047 0.0
C1233 C 0.8903 0.47368 0.37772 0.0
H1234 H 0.81679 0.37269 0.39128 0.0
C1235 C 0.91134 0.34494 0.37016 0.0
C1236 C 0.89586 0.31858 0.38421 0.0
C1237 C 0.90531 0.3753 0.36969 0.0
C1238 C 0.8378 0.40078 0.38758 0.0
H1239 H 0.84381 0.56688 0.36608 0.0
H1240 H 0.859 0.51769 0.36003 0.0
H1241 H 0.80115 0.42175 0.39327 0.0
H1242 H 0.86484 0.30456 0.40948 0.0
H1243 H 0.8557 0.35783 0.4091 0.0
H1244 H 0.92755 0.45289 0.37278 0.0
C1245 C 0.84982 0.52012 0.37349 0.0
C1246 C 0.82868 0.42873 0.3886 0.0
C1247 C 0.8409 0.54791 0.3769 0.0
C1248 C 0.87655 0.32422 0.39834 0.0
C1249 C 0.87103 0.35457 0.39802 0.0
C1250 C 0.89966 0.44565 0.37691 0.0
C1251 C 0.84641 0.49539 0.38738 0.0
C1252 C 0.85506 0.4655 0.38407 0.0
C1253 C 0.88405 0.37968 0.38337 0.0
C1254 C 0.87376 0.40909 0.38231 0.0
H1255 H 0.81714 0.52949 0.42167 0.0
H1256 H 0.83171 0.4803 0.41563 0.0
H1257 H 0.91107 0.50198 0.3742 0.0
H1258 H 0.92625 0.34099 0.35909 0.0
H1259 H 0.91582 0.39429 0.35826 0.0
C1260 C 0.23659 0.77878 0.62482 0.0
C1261 C 0.20825 0.78787 0.6238 0.0
C1262 C 0.22756 0.74145 0.62588 0.0
C1263 C 0.15067 0.64996 0.64003 0.0
H1264 H 0.19733 0.60834 0.60983 0.0
C1265 C 0.08427 0.4928 0.62831 0.0
C1266 C 0.10742 0.4772 0.62738 0.0
C1267 C 0.09955 0.53132 0.62936 0.0
C1268 C 0.18446 0.61968 0.61857 0.0
H1269 H 0.14834 0.76493 0.62246 0.0
H1270 H 0.13287 0.7004 0.6242 0.0
H1271 H 0.21943 0.67515 0.60845 0.0
H1272 H 0.16495 0.49 0.62692 0.0
H1273 H 0.19163 0.5573 0.62906 0.0
H1274 H 0.11544 0.59473 0.65003 0.0
C1275 C 0.16196 0.72194 0.62448 0.0
C1276 C 0.1971 0.65789 0.61776 0.0
C1277 C 0.1709 0.75899 0.62334 0.0
C1278 C 0.14629 0.50104 0.62782 0.0
C1279 C 0.16161 0.53964 0.62883 0.0
C1280 C 0.13814 0.61192 0.64088 0.0
C1281 C 0.19009 0.71275 0.62607 0.0
C1282 C 0.1797 0.6732 0.62818 0.0
C1283 C 0.13839 0.5552 0.62951 0.0
C1284 C 0.1543 0.59619 0.62987 0.0
H1285 H 0.26562 0.80045 0.62522 0.0
H1286 H 0.24978 0.73508 0.62708 0.0
H1287 H 0.13726 0.66116 0.64851 0.0
H1288 H 0.05426 0.47522 0.62818 0.0
H1289 H 0.08087 0.54242 0.62965 0.0
C1290 C 0.42198 0.92944 0.89947 0.0
C1291 C 0.38516 0.91088 0.89299 0.0
C1292 C 0.4429 0.91157 0.89969 0.0
C1293 C 0.43139 0.81708 0.89898 0.0
H1294 H 0.53775 0.87206 0.89003 0.0
C1295 C 0.53253 0.75749 0.89001 0.0
C1296 C 0.56626 0.77804 0.89944 0.0
C1297 C 0.50606 0.76903 0.8904 0.0
C1298 C 0.50804 0.85644 0.89263 0.0
H1299 H 0.34219 0.85869 0.88109 0.0
H1300 H 0.37904 0.82881 0.88076 0.0
H1301 H 0.50183 0.90341 0.88682 0.0
H1302 H 0.59723 0.82364 0.91823 0.0
H1303 H 0.55111 0.84336 0.919 0.0
H1304 H 0.438 0.76987 0.90445 0.0
C1305 C 0.3914 0.85681 0.88615 0.0
C1306 C 0.48752 0.87441 0.89087 0.0
C1307 C 0.3704 0.87446 0.88609 0.0
C1308 C 0.57157 0.80767 0.91066 0.0
C1309 C 0.54534 0.81905 0.91105 0.0
C1310 C 0.45197 0.79895 0.90053 0.0
C1311 C 0.42762 0.87485 0.89325 0.0
C1312 C 0.44905 0.85513 0.89428 0.0
C1313 C 0.51333 0.80105 0.90023 0.0
C1314 C 0.49053 0.81874 0.89767 0.0
H1315 H 0.43453 0.95755 0.90468 0.0
H1316 H 0.4707 0.92623 0.90538 0.0
H1317 H 0.40183 0.80151 0.9019 0.0
H1318 H 0.52801 0.73463 0.88124 0.0
H1319 H 0.48137 0.75471 0.88201 0.0
C1320 C 0.51603 0.5664 0.62067 0.0
C1321 C 0.52949 0.5986 0.63148 0.0
C1322 C 0.47787 0.54034 0.62 0.0
C1323 C 0.3867 0.51292 0.64269 0.0
H1324 H 0.34641 0.46843 0.59572 0.0
C1325 C 0.22872 0.43487 0.62667 0.0
C1326 C 0.21494 0.39866 0.61986 0.0
C1327 C 0.26717 0.45959 0.62767 0.0
C1328 C 0.35734 0.48063 0.60891 0.0
H1329 H 0.51314 0.62675 0.65114 0.0
H1330 H 0.44709 0.58275 0.64929 0.0
H1331 H 0.41344 0.50925 0.5992 0.0
H1332 H 0.23045 0.3605 0.60801 0.0
H1333 H 0.29746 0.40407 0.60926 0.0
H1334 H 0.33017 0.48502 0.65213 0.0
C1335 C 0.46582 0.57718 0.64144 0.0
C1336 C 0.39582 0.50376 0.611 0.0
C1337 C 0.50393 0.6029 0.64231 0.0
C1338 C 0.24026 0.38823 0.61334 0.0
C1339 C 0.27858 0.41315 0.61401 0.0
C1340 C 0.34819 0.49029 0.6405 0.0
C1341 C 0.4521 0.5459 0.62999 0.0
C1342 C 0.41111 0.52021 0.62794 0.0
C1343 C 0.29244 0.44878 0.62153 0.0
C1344 C 0.33316 0.47389 0.62361 0.0
H1345 H 0.53463 0.56189 0.61215 0.0
H1346 H 0.46857 0.51612 0.61139 0.0
H1347 H 0.39728 0.52437 0.65602 0.0
H1348 H 0.20987 0.44359 0.63188 0.0
H1349 H 0.2772 0.48704 0.6334 0.0
C1350 C 0.17682 0.76511 0.90282 0.0
C1351 C 0.21329 0.79437 0.89969 0.0
C1352 C 0.16908 0.72845 0.90365 0.0
C1353 C 0.20235 0.66671 0.88805 0.0
H1354 H 0.12723 0.59838 0.92185 0.0
C1355 C 0.14889 0.50711 0.89233 0.0
C1356 C 0.10984 0.48433 0.89316 0.0
C1357 C 0.16563 0.54587 0.89357 0.0
C1358 C 0.1482 0.61714 0.91231 0.0
H1359 H 0.27047 0.80815 0.89524 0.0
H1360 H 0.2568 0.74338 0.89676 0.0
H1361 H 0.15074 0.665 0.92457 0.0
H1362 H 0.05793 0.48487 0.89494 0.0
H1363 H 0.08714 0.55221 0.89742 0.0
H1364 H 0.1993 0.61837 0.87573 0.0
C1365 C 0.23426 0.74914 0.89848 0.0
C1366 C 0.16169 0.65525 0.91387 0.0
C1367 C 0.2421 0.78615 0.89771 0.0
C1368 C 0.08802 0.50136 0.89468 0.0
C1369 C 0.10474 0.53996 0.89608 0.0
C1370 C 0.18898 0.62842 0.88658 0.0
C1371 C 0.19758 0.71993 0.9014 0.0
C1372 C 0.18805 0.68037 0.90142 0.0
C1373 C 0.14369 0.56254 0.89583 0.0
C1374 C 0.16098 0.60326 0.89838 0.0
H1375 H 0.15391 0.7704 0.90436 0.0
H1376 H 0.14043 0.7066 0.90557 0.0
H1377 H 0.2225 0.68536 0.8782 0.0
H1378 H 0.16669 0.4951 0.89135 0.0
H1379 H 0.19574 0.5627 0.89338 0.0
C1380 C 0.40792 0.9077 0.61022 0.0
C1381 C 0.38442 0.90283 0.625 0.0
C1382 C 0.42508 0.88623 0.60877 0.0
C1383 C 0.45029 0.82585 0.63488 0.0
H1384 H 0.45634 0.79084 0.58679 0.0
C1385 C 0.5239 0.74196 0.62394 0.0
C1386 C 0.55366 0.76074 0.61176 0.0
C1387 C 0.49516 0.75033 0.62436 0.0
C1388 C 0.45451 0.80015 0.60031 0.0
H1389 H 0.36259 0.87335 0.65044 0.0
H1390 H 0.39181 0.83536 0.64773 0.0
H1391 H 0.42479 0.82658 0.59084 0.0
H1392 H 0.57534 0.79993 0.5894 0.0
H1393 H 0.52488 0.8137 0.58974 0.0
H1394 H 0.48065 0.79995 0.64426 0.0
C1395 C 0.39703 0.85576 0.63725 0.0
C1396 C 0.43684 0.82096 0.60262 0.0
C1397 C 0.38005 0.87737 0.63874 0.0
C1398 C 0.55253 0.78506 0.59887 0.0
C1399 C 0.52361 0.79287 0.59906 0.0
C1400 C 0.46774 0.80482 0.63258 0.0
C1401 C 0.41908 0.85935 0.62204 0.0
C1402 C 0.4354 0.83489 0.61986 0.0
C1403 C 0.49561 0.77697 0.61236 0.0
C1404 C 0.47083 0.79257 0.6152 0.0
H1405 H 0.4118 0.92687 0.59934 0.0
H1406 H 0.44266 0.89035 0.5971 0.0
H1407 H 0.4499 0.83633 0.64832 0.0
H1408 H 0.52448 0.72337 0.63411 0.0
H1409 H 0.47372 0.73755 0.63467 0.0
C1410 C 0.4987 0.61959 0.88631 0.0
C1411 C 0.52542 0.60818 0.88697 0.0
C1412 C 0.4608 0.59371 0.88784 0.0
C1413 C 0.39156 0.49377 0.88364 0.0
H1414 H 0.33067 0.52039 0.91296 0.0
C1415 C 0.23802 0.38822 0.89945 0.0
C1416 C 0.21243 0.40085 0.89772 0.0
C1417 C 0.27629 0.41332 0.89919 0.0
C1418 C 0.34722 0.51268 0.9046 0.0
H1419 H 0.53282 0.56029 0.88947 0.0
H1420 H 0.46638 0.51494 0.8924 0.0
H1421 H 0.39733 0.56393 0.91011 0.0
H1422 H 0.20701 0.44993 0.89489 0.0
H1423 H 0.27402 0.49388 0.89436 0.0
H1424 H 0.3414 0.44256 0.87808 0.0
C1425 C 0.47498 0.54405 0.89053 0.0
C1426 C 0.38543 0.53761 0.90295 0.0
C1427 C 0.51306 0.57003 0.88898 0.0
C1428 C 0.22599 0.43932 0.89631 0.0
C1429 C 0.26439 0.46449 0.89605 0.0
C1430 C 0.35335 0.4688 0.8853 0.0
C1431 C 0.44845 0.55569 0.89017 0.0
C1432 C 0.40803 0.52856 0.89235 0.0
C1433 C 0.28996 0.45169 0.89718 0.0
C1434 C 0.3307 0.47803 0.89575 0.0
H1435 H 0.50689 0.64867 0.8851 0.0
H1436 H 0.44113 0.6036 0.88723 0.0
H1437 H 0.40806 0.48613 0.87518 0.0
H1438 H 0.22854 0.35878 0.90067 0.0
H1439 H 0.29521 0.40262 0.90044 0.0
loop_
_geom_bond_atom_site_label_1
_geom_bond_atom_site_label_2
_geom_bond_distance
_geom_bond_site_symmetry_2
_ccdc_geom_bond_type
Co0 N5 2.057 . S
Co0 O17 2.021 . S
Co0 O20 2.062 . S
Co0 O24 2.117 . S
Co0 O25 2.020 . S
C1 O21 1.259 . S
C1 O24 1.258 . S
Co2 N11 2.057 . S
Co2 O18 2.117 . S
Co2 O19 2.020 . S
Co2 O21 2.021 . S
Co2 O26 2.062 . S
C3 N5 1.316 . S
C3 N6 1.347 . S
C3 H8 0.931 . S
C4 N5 1.375 . S
C4 C7 1.350 . S
C4 H9 0.930 . S
N5 Co0 2.057 . S
N5 C3 1.316 . S
N5 C4 1.375 . S
N6 C3 1.347 . S
N6 C7 1.373 . S
C7 C4 1.350 . S
C7 N6 1.373 . S
C7 H28 0.931 . S
H8 C3 0.931 . S
H9 C4 0.930 . S
C10 O17 1.259 . S
C10 O18 1.258 . S
N11 Co2 2.057 . S
N11 C12 1.316 . S
N11 C13 1.375 . S
C12 N11 1.316 . S
C12 N14 1.347 . S
C12 H23 0.931 . S
C13 N11 1.375 . S
C13 C15 1.350 . S
C13 H22 0.930 . S
N14 C12 1.347 . S
N14 C15 1.373 . S
C15 C13 1.350 . S
C15 N14 1.373 . S
C15 H29 0.931 . S
C16 O19 1.256 . S
C16 O20 1.255 . S
O17 Co0 2.021 . S
O17 C10 1.259 . S
O18 Co2 2.117 . S
O18 C10 1.258 . S
O19 Co2 2.020 . S
O19 C16 1.256 . S
O20 Co0 2.062 . S
O20 C16 1.255 . S
O21 C1 1.259 . S
O21 Co2 2.021 . S
H22 C13 0.930 . S
H23 C12 0.931 . S
O24 Co0 2.117 . S
O24 C1 1.258 . S
O25 Co0 2.020 . S
O25 C27 1.256 . S
O26 Co2 2.062 . S
O26 C27 1.255 . S
C27 O25 1.256 . S
C27 O26 1.255 . S
H28 C7 0.931 . S
H29 C15 0.931 . S
Co30 N35 2.057 . S
Co30 O47 2.021 . S
Co30 O50 2.062 . S
Co30 O54 2.117 . S
Co30 O55 2.020 . S
C31 O51 1.259 . S
C31 O54 1.258 . S
Co32 N41 2.057 . S
Co32 O48 2.117 . S
Co32 O49 2.020 . S
Co32 O51 2.021 . S
Co32 O56 2.062 . S
C33 N35 1.316 . S
C33 N36 1.347 . S
C33 H38 0.931 . S
C34 N35 1.375 . S
C34 C37 1.350 . S
C34 H39 0.930 . S
N35 Co30 2.057 . S
N35 C33 1.316 . S
N35 C34 1.375 . S
N36 C33 1.347 . S
N36 C37 1.373 . S
C37 C34 1.350 . S
C37 N36 1.373 . S
C37 H58 0.931 . S
H38 C33 0.931 . S
H39 C34 0.930 . S
C40 O47 1.259 . S
C40 O48 1.258 . S
N41 Co32 2.057 . S
N41 C42 1.316 . S
N41 C43 1.375 . S
C42 N41 1.316 . S
C42 N44 1.347 . S
C42 H53 0.931 . S
C43 N41 1.375 . S
C43 C45 1.350 . S
C43 H52 0.930 . S
N44 C42 1.347 . S
N44 C45 1.373 . S
C45 C43 1.350 . S
C45 N44 1.373 . S
C45 H59 0.931 . S
C46 O49 1.256 . S
C46 O50 1.255 . S
O47 Co30 2.021 . S
O47 C40 1.259 . S
O48 Co32 2.117 . S
O48 C40 1.258 . S
O49 Co32 2.020 . S
O49 C46 1.256 . S
O50 Co30 2.062 . S
O50 C46 1.255 . S
O51 C31 1.259 . S
O51 Co32 2.021 . S
H52 C43 0.930 . S
H53 C42 0.931 . S
O54 Co30 2.117 . S
O54 C31 1.258 . S
O55 Co30 2.020 . S
O55 C57 1.256 . S
O56 Co32 2.062 . S
O56 C57 1.255 . S
C57 O55 1.256 . S
C57 O56 1.255 . S
H58 C37 0.931 . S
H59 C45 0.931 . S
Co60 N65 2.057 . S
Co60 O77 2.021 . S
Co60 O80 2.062 . S
Co60 O84 2.117 . S
Co60 O85 2.020 . S
C61 O81 1.259 . S
C61 O84 1.258 . S
Co62 N71 2.057 . S
Co62 O78 2.117 . S
Co62 O79 2.020 . S
Co62 O81 2.021 . S
Co62 O86 2.062 . S
C63 N65 1.316 . S
C63 N66 1.347 . S
C63 H68 0.931 . S
C64 N65 1.375 . S
C64 C67 1.350 . S
C64 H69 0.930 . S
N65 Co60 2.057 . S
N65 C63 1.316 . S
N65 C64 1.375 . S
N66 C63 1.347 . S
N66 C67 1.373 . S
C67 C64 1.350 . S
C67 N66 1.373 . S
C67 H88 0.931 . S
H68 C63 0.931 . S
H69 C64 0.930 . S
C70 O77 1.259 . S
C70 O78 1.258 . S
N71 Co62 2.057 . S
N71 C72 1.316 . S
N71 C73 1.375 . S
C72 N71 1.316 . S
C72 N74 1.347 . S
C72 H83 0.931 . S
C73 N71 1.375 . S
C73 C75 1.350 . S
C73 H82 0.930 . S
N74 C72 1.347 . S
N74 C75 1.373 . S
C75 C73 1.350 . S
C75 N74 1.373 . S
C75 H89 0.931 . S
C76 O79 1.256 . S
C76 O80 1.255 . S
O77 Co60 2.021 . S
O77 C70 1.259 . S
O78 Co62 2.117 . S
O78 C70 1.258 . S
O79 Co62 2.020 . S
O79 C76 1.256 . S
O80 Co60 2.062 . S
O80 C76 1.255 . S
O81 C61 1.259 . S
O81 Co62 2.021 . S
H82 C73 0.930 . S
H83 C72 0.931 . S
O84 Co60 2.117 . S
O84 C61 1.258 . S
O85 Co60 2.020 . S
O85 C87 1.256 . S
O86 Co62 2.062 . S
O86 C87 1.255 . S
C87 O85 1.256 . S
C87 O86 1.255 . S
H88 C67 0.931 . S
H89 C75 0.931 . S
Co90 N95 2.057 . S
Co90 O107 2.021 . S
Co90 O110 2.062 . S
Co90 O114 2.117 . S
Co90 O115 2.020 . S
C91 O111 1.259 . S
C91 O114 1.258 . S
Co92 N101 2.057 . S
Co92 O108 2.117 . S
Co92 O109 2.020 . S
Co92 O111 2.021 . S
Co92 O116 2.062 . S
C93 N95 1.316 . S
C93 N96 1.347 1_545 S
C93 H98 0.931 . S
C94 N95 1.375 . S
C94 C97 1.350 1_545 S
C94 H99 0.930 . S
N95 Co90 2.057 . S
N95 C93 1.316 . S
N95 C94 1.375 . S
N96 C93 1.347 1_565 S
N96 C97 1.373 . S
C97 C94 1.350 1_565 S
C97 N96 1.373 . S
C97 H118 0.931 . S
H98 C93 0.931 . S
H99 C94 0.930 . S
C100 O107 1.259 . S
C100 O108 1.258 . S
N101 Co92 2.057 . S
N101 C102 1.316 . S
N101 C103 1.375 . S
C102 N101 1.316 . S
C102 N104 1.347 . S
C102 H113 0.931 . S
C103 N101 1.375 . S
C103 C105 1.350 . S
C103 H112 0.930 . S
N104 C102 1.347 . S
N104 C105 1.373 . S
C105 C103 1.350 . S
C105 N104 1.373 . S
C105 H119 0.931 . S
C106 O109 1.256 . S
C106 O110 1.255 . S
O107 Co90 2.021 . S
O107 C100 1.259 . S
O108 Co92 2.117 . S
O108 C100 1.258 . S
O109 Co92 2.020 . S
O109 C106 1.256 . S
O110 Co90 2.062 . S
O110 C106 1.255 . S
O111 C91 1.259 . S
O111 Co92 2.021 . S
H112 C103 0.930 . S
H113 C102 0.931 . S
O114 Co90 2.117 . S
O114 C91 1.258 . S
O115 Co90 2.020 . S
O115 C117 1.256 . S
O116 Co92 2.062 . S
O116 C117 1.255 . S
C117 O115 1.256 . S
C117 O116 1.255 . S
H118 C97 0.931 . S
H119 C105 0.931 . S
Co120 N125 2.057 . S
Co120 O137 2.021 . S
Co120 O140 2.062 . S
Co120 O144 2.117 . S
Co120 O145 2.020 . S
C121 O141 1.259 . S
C121 O144 1.258 . S
Co122 N131 2.057 . S
Co122 O138 2.117 . S
Co122 O139 2.020 . S
Co122 O141 2.021 . S
Co122 O146 2.062 . S
C123 N125 1.316 . S
C123 N126 1.347 . S
C123 H128 0.931 . S
C124 N125 1.375 . S
C124 C127 1.350 . S
C124 H129 0.930 . S
N125 Co120 2.057 . S
N125 C123 1.316 . S
N125 C124 1.375 . S
N126 C123 1.347 . S
N126 C127 1.373 . S
C127 C124 1.350 . S
C127 N126 1.373 . S
C127 H148 0.931 . S
H128 C123 0.931 . S
H129 C124 0.930 . S
C130 O137 1.259 . S
C130 O138 1.258 . S
N131 Co122 2.057 . S
N131 C132 1.316 . S
N131 C133 1.375 . S
C132 N131 1.316 . S
C132 N134 1.347 . S
C132 H143 0.931 . S
C133 N131 1.375 . S
C133 C135 1.350 . S
C133 H142 0.930 . S
N134 C132 1.347 . S
N134 C135 1.373 . S
C135 C133 1.350 . S
C135 N134 1.373 . S
C135 H149 0.931 . S
C136 O139 1.256 . S
C136 O140 1.255 . S
O137 Co120 2.021 . S
O137 C130 1.259 . S
O138 Co122 2.117 . S
O138 C130 1.258 . S
O139 Co122 2.020 . S
O139 C136 1.256 . S
O140 Co120 2.062 . S
O140 C136 1.255 . S
O141 C121 1.259 . S
O141 Co122 2.021 . S
H142 C133 0.930 . S
H143 C132 0.931 . S
O144 Co120 2.117 . S
O144 C121 1.258 . S
O145 Co120 2.020 . S
O145 C147 1.256 . S
O146 Co122 2.062 . S
O146 C147 1.255 . S
C147 O145 1.256 . S
C147 O146 1.255 . S
H148 C127 0.931 . S
H149 C135 0.931 . S
Co150 N155 2.057 . S
Co150 O167 2.021 . S
Co150 O170 2.062 . S
Co150 O174 2.117 . S
Co150 O175 2.020 . S
C151 O171 1.259 . S
C151 O174 1.258 . S
Co152 N161 2.057 . S
Co152 O168 2.117 . S
Co152 O169 2.020 . S
Co152 O171 2.021 . S
Co152 O176 2.062 . S
C153 N155 1.316 . S
C153 N156 1.347 1_655 S
C153 H158 0.931 . S
C154 N155 1.375 . S
C154 C157 1.350 1_655 S
C154 H159 0.930 . S
N155 Co150 2.057 . S
N155 C153 1.316 . S
N155 C154 1.375 . S
N156 C153 1.347 1_455 S
N156 C157 1.373 . S
C157 C154 1.350 1_455 S
C157 N156 1.373 . S
C157 H178 0.931 . S
H158 C153 0.931 . S
H159 C154 0.930 . S
C160 O167 1.259 . S
C160 O168 1.258 . S
N161 Co152 2.057 . S
N161 C162 1.316 . S
N161 C163 1.375 . S
C162 N161 1.316 . S
C162 N164 1.347 . S
C162 H173 0.931 . S
C163 N161 1.375 . S
C163 C165 1.350 . S
C163 H172 0.930 . S
N164 C162 1.347 . S
N164 C165 1.373 . S
C165 C163 1.350 . S
C165 N164 1.373 . S
C165 H179 0.931 . S
C166 O169 1.256 . S
C166 O170 1.255 . S
O167 Co150 2.021 . S
O167 C160 1.259 . S
O168 Co152 2.117 . S
O168 C160 1.258 . S
O169 Co152 2.020 . S
O169 C166 1.256 . S
O170 Co150 2.062 . S
O170 C166 1.255 . S
O171 C151 1.259 . S
O171 Co152 2.021 . S
H172 C163 0.930 . S
H173 C162 0.931 . S
O174 Co150 2.117 . S
O174 C151 1.258 . S
O175 Co150 2.020 . S
O175 C177 1.256 . S
O176 Co152 2.062 . S
O176 C177 1.255 . S
C177 O175 1.256 . S
C177 O176 1.255 . S
H178 C157 0.931 . S
H179 C165 0.931 . S
Co180 N185 2.057 . S
Co180 O197 2.021 . S
Co180 O200 2.062 . S
Co180 O204 2.117 . S
Co180 O205 2.020 . S
C181 O201 1.259 . S
C181 O204 1.258 . S
Co182 N191 2.057 . S
Co182 O198 2.117 . S
Co182 O199 2.020 . S
Co182 O201 2.021 . S
Co182 O206 2.062 . S
C183 N185 1.316 . S
C183 N186 1.347 . S
C183 H188 0.931 . S
C184 N185 1.375 . S
C184 C187 1.350 . S
C184 H189 0.930 . S
N185 Co180 2.057 . S
N185 C183 1.316 . S
N185 C184 1.375 . S
N186 C183 1.347 . S
N186 C187 1.373 . S
C187 C184 1.350 . S
C187 N186 1.373 . S
C187 H208 0.931 . S
H188 C183 0.931 . S
H189 C184 0.930 . S
C190 O197 1.259 . S
C190 O198 1.258 . S
N191 Co182 2.057 . S
N191 C192 1.316 . S
N191 C193 1.375 . S
C192 N191 1.316 . S
C192 N194 1.347 . S
C192 H203 0.931 . S
C193 N191 1.375 . S
C193 C195 1.350 . S
C193 H202 0.930 . S
N194 C192 1.347 . S
N194 C195 1.373 . S
C195 C193 1.350 . S
C195 N194 1.373 . S
C195 H209 0.931 . S
C196 O199 1.256 . S
C196 O200 1.255 . S
O197 Co180 2.021 . S
O197 C190 1.259 . S
O198 Co182 2.117 . S
O198 C190 1.258 . S
O199 Co182 2.020 . S
O199 C196 1.256 . S
O200 Co180 2.062 . S
O200 C196 1.255 . S
O201 C181 1.259 . S
O201 Co182 2.021 . S
H202 C193 0.930 . S
H203 C192 0.931 . S
O204 Co180 2.117 . S
O204 C181 1.258 . S
O205 Co180 2.020 . S
O205 C207 1.256 . S
O206 Co182 2.062 . S
O206 C207 1.255 . S
C207 O205 1.256 . S
C207 O206 1.255 . S
H208 C187 0.931 . S
H209 C195 0.931 . S
Co210 N215 2.057 . S
Co210 O227 2.021 . S
Co210 O230 2.062 . S
Co210 O234 2.117 . S
Co210 O235 2.020 . S
C211 O231 1.259 . S
C211 O234 1.258 . S
Co212 N221 2.057 . S
Co212 O228 2.117 . S
Co212 O229 2.020 . S
Co212 O231 2.021 . S
Co212 O236 2.062 . S
C213 N215 1.316 . S
C213 N216 1.347 . S
C213 H218 0.931 . S
C214 N215 1.375 . S
C214 C217 1.350 . S
C214 H219 0.930 . S
N215 Co210 2.057 . S
N215 C213 1.316 . S
N215 C214 1.375 . S
N216 C213 1.347 . S
N216 C217 1.373 . S
C217 C214 1.350 . S
C217 N216 1.373 . S
C217 H238 0.931 . S
H218 C213 0.931 . S
H219 C214 0.930 . S
C220 O227 1.259 . S
C220 O228 1.258 . S
N221 Co212 2.057 . S
N221 C222 1.316 . S
N221 C223 1.375 . S
C222 N221 1.316 . S
C222 N224 1.347 . S
C222 H233 0.931 . S
C223 N221 1.375 . S
C223 C225 1.350 . S
C223 H232 0.930 . S
N224 C222 1.347 . S
N224 C225 1.373 . S
C225 C223 1.350 . S
C225 N224 1.373 . S
C225 H239 0.931 . S
C226 O229 1.256 . S
C226 O230 1.255 . S
O227 Co210 2.021 . S
O227 C220 1.259 . S
O228 Co212 2.117 . S
O228 C220 1.258 . S
O229 Co212 2.020 . S
O229 C226 1.256 . S
O230 Co210 2.062 . S
O230 C226 1.255 . S
O231 C211 1.259 . S
O231 Co212 2.021 . S
H232 C223 0.930 . S
H233 C222 0.931 . S
O234 Co210 2.117 . S
O234 C211 1.258 . S
O235 Co210 2.020 . S
O235 C237 1.256 . S
O236 Co212 2.062 . S
O236 C237 1.255 . S
C237 O235 1.256 . S
C237 O236 1.255 . S
H238 C217 0.931 . S
H239 C225 0.931 . S
Co240 N245 2.057 . S
Co240 O257 2.021 . S
Co240 O260 2.062 . S
Co240 O264 2.117 . S
Co240 O265 2.020 . S
C241 O261 1.259 . S
C241 O264 1.258 . S
Co242 N251 2.057 . S
Co242 O258 2.117 . S
Co242 O259 2.020 . S
Co242 O261 2.021 . S
Co242 O266 2.062 . S
C243 N245 1.316 . S
C243 N246 1.347 . S
C243 H248 0.931 . S
C244 N245 1.375 . S
C244 C247 1.350 . S
C244 H249 0.930 . S
N245 Co240 2.057 . S
N245 C243 1.316 . S
N245 C244 1.375 . S
N246 C243 1.347 . S
N246 C247 1.373 . S
C247 C244 1.350 . S
C247 N246 1.373 . S
C247 H268 0.931 . S
H248 C243 0.931 . S
H249 C244 0.930 . S
C250 O257 1.259 . S
C250 O258 1.258 . S
N251 Co242 2.057 . S
N251 C252 1.316 . S
N251 C253 1.375 . S
C252 N251 1.316 . S
C252 N254 1.347 . S
C252 H263 0.931 . S
C253 N251 1.375 . S
C253 C255 1.350 . S
C253 H262 0.930 . S
N254 C252 1.347 . S
N254 C255 1.373 . S
C255 C253 1.350 . S
C255 N254 1.373 . S
C255 H269 0.931 . S
C256 O259 1.256 . S
C256 O260 1.255 . S
O257 Co240 2.021 . S
O257 C250 1.259 . S
O258 Co242 2.117 . S
O258 C250 1.258 . S
O259 Co242 2.020 . S
O259 C256 1.256 . S
O260 Co240 2.062 . S
O260 C256 1.255 . S
O261 C241 1.259 . S
O261 Co242 2.021 . S
H262 C253 0.930 . S
H263 C252 0.931 . S
O264 Co240 2.117 . S
O264 C241 1.258 . S
O265 Co240 2.020 . S
O265 C267 1.256 . S
O266 Co242 2.062 . S
O266 C267 1.255 . S
C267 O265 1.256 . S
C267 O266 1.255 . S
H268 C247 0.931 . S
H269 C255 0.931 . S
Co270 N275 2.057 . S
Co270 O287 2.021 . S
Co270 O290 2.062 . S
Co270 O294 2.117 . S
Co270 O295 2.020 . S
C271 O291 1.259 . S
C271 O294 1.258 . S
Co272 N281 2.057 . S
Co272 O288 2.117 . S
Co272 O289 2.020 . S
Co272 O291 2.021 . S
Co272 O296 2.062 . S
C273 N275 1.316 . S
C273 N276 1.347 . S
C273 H278 0.931 . S
C274 N275 1.375 . S
C274 C277 1.350 . S
C274 H279 0.930 . S
N275 Co270 2.057 . S
N275 C273 1.316 . S
N275 C274 1.375 . S
N276 C273 1.347 . S
N276 C277 1.373 . S
C277 C274 1.350 . S
C277 N276 1.373 . S
C277 H298 0.931 . S
H278 C273 0.931 . S
H279 C274 0.930 . S
C280 O287 1.259 . S
C280 O288 1.258 . S
N281 Co272 2.057 . S
N281 C282 1.316 . S
N281 C283 1.375 . S
C282 N281 1.316 . S
C282 N284 1.347 . S
C282 H293 0.931 . S
C283 N281 1.375 . S
C283 C285 1.350 . S
C283 H292 0.930 . S
N284 C282 1.347 . S
N284 C285 1.373 . S
C285 C283 1.350 . S
C285 N284 1.373 . S
C285 H299 0.931 . S
C286 O289 1.256 . S
C286 O290 1.255 . S
O287 Co270 2.021 . S
O287 C280 1.259 . S
O288 Co272 2.117 . S
O288 C280 1.258 . S
O289 Co272 2.020 . S
O289 C286 1.256 . S
O290 Co270 2.062 . S
O290 C286 1.255 . S
O291 C271 1.259 . S
O291 Co272 2.021 . S
H292 C283 0.930 . S
H293 C282 0.931 . S
O294 Co270 2.117 . S
O294 C271 1.258 . S
O295 Co270 2.020 . S
O295 C297 1.256 . S
O296 Co272 2.062 . S
O296 C297 1.255 . S
C297 O295 1.256 . S
C297 O296 1.255 . S
H298 C277 0.931 . S
H299 C285 0.931 . S
Co300 N305 2.057 . S
Co300 O317 2.021 . S
Co300 O320 2.062 . S
Co300 O324 2.117 . S
Co300 O325 2.020 . S
C301 O321 1.259 . S
C301 O324 1.258 . S
Co302 N311 2.057 . S
Co302 O318 2.117 . S
Co302 O319 2.020 . S
Co302 O321 2.021 . S
Co302 O326 2.062 . S
C303 N305 1.316 . S
C303 N306 1.347 . S
C303 H308 0.931 . S
C304 N305 1.375 . S
C304 C307 1.350 . S
C304 H309 0.930 . S
N305 Co300 2.057 . S
N305 C303 1.316 . S
N305 C304 1.375 . S
N306 C303 1.347 . S
N306 C307 1.373 . S
C307 C304 1.350 . S
C307 N306 1.373 . S
C307 H328 0.931 . S
H308 C303 0.931 . S
H309 C304 0.930 . S
C310 O317 1.259 . S
C310 O318 1.258 . S
N311 Co302 2.057 . S
N311 C312 1.316 . S
N311 C313 1.375 . S
C312 N311 1.316 . S
C312 N314 1.347 . S
C312 H323 0.931 . S
C313 N311 1.375 . S
C313 C315 1.350 . S
C313 H322 0.930 . S
N314 C312 1.347 . S
N314 C315 1.373 . S
C315 C313 1.350 . S
C315 N314 1.373 . S
C315 H329 0.931 . S
C316 O319 1.256 . S
C316 O320 1.255 . S
O317 Co300 2.021 . S
O317 C310 1.259 . S
O318 Co302 2.117 . S
O318 C310 1.258 . S
O319 Co302 2.020 . S
O319 C316 1.256 . S
O320 Co300 2.062 . S
O320 C316 1.255 . S
O321 C301 1.259 . S
O321 Co302 2.021 . S
H322 C313 0.930 . S
H323 C312 0.931 . S
O324 Co300 2.117 . S
O324 C301 1.258 . S
O325 Co300 2.020 . S
O325 C327 1.256 . S
O326 Co302 2.062 . S
O326 C327 1.255 . S
C327 O325 1.256 . S
C327 O326 1.255 . S
H328 C307 0.931 . S
H329 C315 0.931 . S
Co330 N335 2.057 . S
Co330 O347 2.021 . S
Co330 O350 2.062 . S
Co330 O354 2.117 . S
Co330 O355 2.020 . S
C331 O351 1.259 . S
C331 O354 1.258 . S
Co332 N341 2.057 . S
Co332 O348 2.117 . S
Co332 O349 2.020 . S
Co332 O351 2.021 . S
Co332 O356 2.062 . S
C333 N335 1.316 . S
C333 N336 1.347 . S
C333 H338 0.931 . S
C334 N335 1.375 . S
C334 C337 1.350 . S
C334 H339 0.930 . S
N335 Co330 2.057 . S
N335 C333 1.316 . S
N335 C334 1.375 . S
N336 C333 1.347 . S
N336 C337 1.373 . S
C337 C334 1.350 . S
C337 N336 1.373 . S
C337 H358 0.931 . S
H338 C333 0.931 . S
H339 C334 0.930 . S
C340 O347 1.259 . S
C340 O348 1.258 . S
N341 Co332 2.057 . S
N341 C342 1.316 . S
N341 C343 1.375 . S
C342 N341 1.316 . S
C342 N344 1.347 . S
C342 H353 0.931 . S
C343 N341 1.375 . S
C343 C345 1.350 . S
C343 H352 0.930 . S
N344 C342 1.347 . S
N344 C345 1.373 . S
C345 C343 1.350 . S
C345 N344 1.373 . S
C345 H359 0.931 . S
C346 O349 1.256 . S
C346 O350 1.255 . S
O347 Co330 2.021 . S
O347 C340 1.259 . S
O348 Co332 2.117 . S
O348 C340 1.258 . S
O349 Co332 2.020 . S
O349 C346 1.256 . S
O350 Co330 2.062 . S
O350 C346 1.255 . S
O351 C331 1.259 . S
O351 Co332 2.021 . S
H352 C343 0.930 . S
H353 C342 0.931 . S
O354 Co330 2.117 . S
O354 C331 1.258 . S
O355 Co330 2.020 . S
O355 C357 1.256 . S
O356 Co332 2.062 . S
O356 C357 1.255 . S
C357 O355 1.256 . S
C357 O356 1.255 . S
H358 C337 0.931 . S
H359 C345 0.931 . S
C360 C361 1.349 . S
C360 C362 1.327 . S
C360 H385 0.950 . S
C361 C360 1.349 . S
C361 C377 1.349 . S
C362 C360 1.327 . S
C362 C381 1.429 1_655 S
C362 H386 0.950 . S
C363 C380 1.574 . S
C363 C382 1.368 . S
C363 H387 0.949 . S
H364 C368 0.949 . S
C365 C366 1.349 . S
C365 C367 1.327 . S
C365 H388 0.950 . S
C366 C365 1.349 . S
C366 C378 1.349 . S
C367 C365 1.327 . S
C367 C383 1.429 . S
C367 H389 0.950 . S
C368 H364 0.949 . S
C368 C376 1.574 . S
C368 C384 1.368 . S
H369 C377 0.950 . S
H370 C375 0.950 . S
H371 C376 0.949 . S
H372 C378 0.950 . S
H373 C379 0.950 . S
H374 C380 0.949 . S
C375 H370 0.950 . S
C375 C377 1.327 1_455 S
C375 C381 1.429 . S
C376 C368 1.574 . S
C376 H371 0.949 . S
C376 C382 1.368 . S
C377 C361 1.349 . S
C377 H369 0.950 . S
C377 C375 1.327 1_655 S
C378 C366 1.349 . S
C378 H372 0.950 . S
C378 C379 1.327 . S
C379 H373 0.950 . S
C379 C378 1.327 . S
C379 C383 1.429 . S
C380 C363 1.574 . S
C380 H374 0.949 . S
C380 C384 1.368 . S
C381 C362 1.429 1_455 S
C381 C375 1.429 . S
C381 C382 1.523 . S
C382 C363 1.368 . S
C382 C376 1.368 . S
C382 C381 1.523 . S
C383 C367 1.429 . S
C383 C379 1.429 . S
C383 C384 1.523 . S
C384 C368 1.368 . S
C384 C380 1.368 . S
C384 C383 1.523 . S
H385 C360 0.950 . S
H386 C362 0.950 . S
H387 C363 0.949 . S
H388 C365 0.950 . S
H389 C367 0.950 . S
C390 C391 1.349 . S
C390 C392 1.327 . S
C390 H415 0.950 . S
C391 C390 1.349 . S
C391 C407 1.349 . S
C392 C390 1.327 . S
C392 C411 1.429 . S
C392 H416 0.950 . S
C393 C410 1.574 . S
C393 C412 1.368 . S
C393 H417 0.949 . S
H394 C398 0.949 . S
C395 C396 1.349 . S
C395 C397 1.327 . S
C395 H418 0.950 . S
C396 C395 1.349 . S
C396 C408 1.349 . S
C397 C395 1.327 . S
C397 C413 1.429 . S
C397 H419 0.950 . S
C398 H394 0.949 . S
C398 C406 1.574 . S
C398 C414 1.368 . S
H399 C407 0.950 . S
H400 C405 0.950 . S
H401 C406 0.949 . S
H402 C408 0.950 . S
H403 C409 0.950 . S
H404 C410 0.949 . S
C405 H400 0.950 . S
C405 C407 1.327 . S
C405 C411 1.429 . S
C406 C398 1.574 . S
C406 H401 0.949 . S
C406 C412 1.368 . S
C407 C391 1.349 . S
C407 H399 0.950 . S
C407 C405 1.327 . S
C408 C396 1.349 . S
C408 H402 0.950 . S
C408 C409 1.327 . S
C409 H403 0.950 . S
C409 C408 1.327 . S
C409 C413 1.429 . S
C410 C393 1.574 . S
C410 H404 0.949 . S
C410 C414 1.368 . S
C411 C392 1.429 . S
C411 C405 1.429 . S
C411 C412 1.523 . S
C412 C393 1.368 . S
C412 C406 1.368 . S
C412 C411 1.523 . S
C413 C397 1.429 . S
C413 C409 1.429 . S
C413 C414 1.523 1_655 S
C414 C398 1.368 . S
C414 C410 1.368 . S
C414 C413 1.523 1_455 S
H415 C390 0.950 . S
H416 C392 0.950 . S
H417 C393 0.949 . S
H418 C395 0.950 . S
H419 C397 0.950 . S
C420 C421 1.349 . S
C420 C422 1.327 1_545 S
C420 H445 0.950 . S
C421 C420 1.349 . S
C421 C437 1.349 . S
C422 C420 1.327 1_565 S
C422 C441 1.429 . S
C422 H446 0.950 . S
C423 C440 1.574 . S
C423 C442 1.368 . S
C423 H447 0.949 . S
H424 C428 0.949 . S
C425 C426 1.349 . S
C425 C427 1.327 . S
C425 H448 0.950 . S
C426 C425 1.349 . S
C426 C438 1.349 . S
C427 C425 1.327 . S
C427 C443 1.429 . S
C427 H449 0.950 . S
C428 H424 0.949 . S
C428 C436 1.574 . S
C428 C444 1.368 . S
H429 C437 0.950 . S
H430 C435 0.950 . S
H431 C436 0.949 . S
H432 C438 0.950 . S
H433 C439 0.950 . S
H434 C440 0.949 . S
C435 H430 0.950 . S
C435 C437 1.327 1_565 S
C435 C441 1.429 . S
C436 C428 1.574 . S
C436 H431 0.949 . S
C436 C442 1.368 . S
C437 C421 1.349 . S
C437 H429 0.950 . S
C437 C435 1.327 1_545 S
C438 C426 1.349 . S
C438 H432 0.950 . S
C438 C439 1.327 . S
C439 H433 0.950 . S
C439 C438 1.327 . S
C439 C443 1.429 . S
C440 C423 1.574 . S
C440 H434 0.949 . S
C440 C444 1.368 . S
C441 C422 1.429 . S
C441 C435 1.429 . S
C441 C442 1.523 . S
C442 C423 1.368 . S
C442 C436 1.368 . S
C442 C441 1.523 . S
C443 C427 1.429 . S
C443 C439 1.429 . S
C443 C444 1.523 . S
C444 C428 1.368 . S
C444 C440 1.368 . S
C444 C443 1.523 . S
H445 C420 0.950 . S
H446 C422 0.950 . S
H447 C423 0.949 . S
H448 C425 0.950 . S
H449 C427 0.950 . S
C450 C451 1.349 . S
C450 C452 1.327 . S
C450 H475 0.950 . S
C451 C450 1.349 . S
C451 C467 1.349 . S
C452 C450 1.327 . S
C452 C471 1.429 . S
C452 H476 0.950 . S
C453 C470 1.574 . S
C453 C472 1.368 . S
C453 H477 0.949 . S
H454 C458 0.949 . S
C455 C456 1.349 . S
C455 C457 1.327 . S
C455 H478 0.950 . S
C456 C455 1.349 . S
C456 C468 1.349 . S
C457 C455 1.327 . S
C457 C473 1.429 . S
C457 H479 0.950 . S
C458 H454 0.949 . S
C458 C466 1.574 . S
C458 C474 1.368 . S
H459 C467 0.950 . S
H460 C465 0.950 . S
H461 C466 0.949 . S
H462 C468 0.950 . S
H463 C469 0.950 . S
H464 C470 0.949 . S
C465 H460 0.950 . S
C465 C467 1.327 . S
C465 C471 1.429 . S
C466 C458 1.574 . S
C466 H461 0.949 . S
C466 C472 1.368 . S
C467 C451 1.349 . S
C467 H459 0.950 . S
C467 C465 1.327 . S
C468 C456 1.349 . S
C468 H462 0.950 . S
C468 C469 1.327 . S
C469 H463 0.950 . S
C469 C468 1.327 . S
C469 C473 1.429 . S
C470 C453 1.574 . S
C470 H464 0.949 . S
C470 C474 1.368 . S
C471 C452 1.429 . S
C471 C465 1.429 . S
C471 C472 1.523 . S
C472 C453 1.368 . S
C472 C466 1.368 . S
C472 C471 1.523 . S
C473 C457 1.429 . S
C473 C469 1.429 . S
C473 C474 1.523 . S
C474 C458 1.368 . S
C474 C470 1.368 . S
C474 C473 1.523 . S
H475 C450 0.950 . S
H476 C452 0.950 . S
H477 C453 0.949 . S
H478 C455 0.950 . S
H479 C457 0.950 . S
C480 C481 1.349 . S
C480 C482 1.327 1_545 S
C480 H505 0.950 . S
C481 C480 1.349 . S
C481 C497 1.349 . S
C482 C480 1.327 1_565 S
C482 C501 1.429 . S
C482 H506 0.950 . S
C483 C500 1.574 . S
C483 C502 1.368 . S
C483 H507 0.949 . S
H484 C488 0.949 . S
C485 C486 1.349 . S
C485 C487 1.327 1_655 S
C485 H508 0.950 . S
C486 C485 1.349 . S
C486 C498 1.349 . S
C487 C485 1.327 1_455 S
C487 C503 1.429 . S
C487 H509 0.950 . S
C488 H484 0.949 . S
C488 C496 1.574 . S
C488 C504 1.368 . S
H489 C497 0.950 . S
H490 C495 0.950 . S
H491 C496 0.949 . S
H492 C498 0.950 . S
H493 C499 0.950 . S
H494 C500 0.949 . S
C495 H490 0.950 . S
C495 C497 1.327 . S
C495 C501 1.429 1_545 S
C496 C488 1.574 . S
C496 H491 0.949 . S
C496 C502 1.368 . S
C497 C481 1.349 . S
C497 H489 0.950 . S
C497 C495 1.327 . S
C498 C486 1.349 . S
C498 H492 0.950 . S
C498 C499 1.327 1_655 S
C499 H493 0.950 . S
C499 C498 1.327 1_455 S
C499 C503 1.429 . S
C500 C483 1.574 . S
C500 H494 0.949 . S
C500 C504 1.368 . S
C501 C482 1.429 . S
C501 C495 1.429 1_565 S
C501 C502 1.523 . S
C502 C483 1.368 . S
C502 C496 1.368 . S
C502 C501 1.523 . S
C503 C487 1.429 . S
C503 C499 1.429 . S
C503 C504 1.523 . S
C504 C488 1.368 . S
C504 C500 1.368 . S
C504 C503 1.523 . S
H505 C480 0.950 . S
H506 C482 0.950 . S
H507 C483 0.949 . S
H508 C485 0.950 . S
H509 C487 0.950 . S
C510 C511 1.349 . S
C510 C512 1.327 . S
C510 H535 0.950 . S
C511 C510 1.349 . S
C511 C527 1.349 . S
C512 C510 1.327 . S
C512 C531 1.429 . S
C512 H536 0.950 . S
C513 C530 1.574 . S
C513 C532 1.368 . S
C513 H537 0.949 . S
H514 C518 0.949 . S
C515 C516 1.349 . S
C515 C517 1.327 . S
C515 H538 0.950 . S
C516 C515 1.349 . S
C516 C528 1.349 . S
C517 C515 1.327 . S
C517 C533 1.429 . S
C517 H539 0.950 . S
C518 H514 0.949 . S
C518 C526 1.574 . S
C518 C534 1.368 . S
H519 C527 0.950 . S
H520 C525 0.950 . S
H521 C526 0.949 . S
H522 C528 0.950 . S
H523 C529 0.950 . S
H524 C530 0.949 . S
C525 H520 0.950 . S
C525 C527 1.327 . S
C525 C531 1.429 . S
C526 C518 1.574 . S
C526 H521 0.949 . S
C526 C532 1.368 . S
C527 C511 1.349 . S
C527 H519 0.950 . S
C527 C525 1.327 . S
C528 C516 1.349 . S
C528 H522 0.950 . S
C528 C529 1.327 . S
C529 H523 0.950 . S
C529 C528 1.327 . S
C529 C533 1.429 . S
C530 C513 1.574 . S
C530 H524 0.949 . S
C530 C534 1.368 . S
C531 C512 1.429 . S
C531 C525 1.429 . S
C531 C532 1.523 . S
C532 C513 1.368 . S
C532 C526 1.368 . S
C532 C531 1.523 . S
C533 C517 1.429 . S
C533 C529 1.429 . S
C533 C534 1.523 1_545 S
C534 C518 1.368 . S
C534 C530 1.368 . S
C534 C533 1.523 1_565 S
H535 C510 0.950 . S
H536 C512 0.950 . S
H537 C513 0.949 . S
H538 C515 0.950 . S
H539 C517 0.950 . S
C540 C541 1.349 . S
C540 C542 1.327 1_565 S
C540 H565 0.950 . S
C541 C540 1.349 . S
C541 C557 1.349 . S
C542 C540 1.327 1_545 S
C542 C561 1.429 . S
C542 H566 0.950 . S
C543 C560 1.574 . S
C543 C562 1.368 . S
C543 H567 0.949 . S
H544 C548 0.949 . S
C545 C546 1.349 . S
C545 C547 1.327 . S
C545 H568 0.950 . S
C546 C545 1.349 . S
C546 C558 1.349 . S
C547 C545 1.327 . S
C547 C563 1.429 . S
C547 H569 0.950 . S
C548 H544 0.949 . S
C548 C556 1.574 . S
C548 C564 1.368 . S
H549 C557 0.950 . S
H550 C555 0.950 . S
H551 C556 0.949 . S
H552 C558 0.950 . S
H553 C559 0.950 . S
H554 C560 0.949 . S
C555 H550 0.950 . S
C555 C557 1.327 . S
C555 C561 1.429 1_565 S
C556 C548 1.574 . S
C556 H551 0.949 . S
C556 C562 1.368 . S
C557 C541 1.349 . S
C557 H549 0.950 . S
C557 C555 1.327 . S
C558 C546 1.349 . S
C558 H552 0.950 . S
C558 C559 1.327 . S
C559 H553 0.950 . S
C559 C558 1.327 . S
C559 C563 1.429 . S
C560 C543 1.574 . S
C560 H554 0.949 . S
C560 C564 1.368 . S
C561 C542 1.429 . S
C561 C555 1.429 1_545 S
C561 C562 1.523 . S
C562 C543 1.368 . S
C562 C556 1.368 . S
C562 C561 1.523 . S
C563 C547 1.429 . S
C563 C559 1.429 . S
C563 C564 1.523 . S
C564 C548 1.368 . S
C564 C560 1.368 . S
C564 C563 1.523 . S
H565 C540 0.950 . S
H566 C542 0.950 . S
H567 C543 0.949 . S
H568 C545 0.950 . S
H569 C547 0.950 . S
C570 C571 1.349 . S
C570 C572 1.327 1_455 S
C570 H595 0.950 . S
C571 C570 1.349 . S
C571 C587 1.349 . S
C572 C570 1.327 1_655 S
C572 C591 1.429 . S
C572 H596 0.950 . S
C573 C590 1.574 . S
C573 C592 1.368 . S
C573 H597 0.949 . S
H574 C578 0.949 . S
C575 C576 1.349 . S
C575 C577 1.327 . S
C575 H598 0.950 . S
C576 C575 1.349 . S
C576 C588 1.349 . S
C577 C575 1.327 . S
C577 C593 1.429 . S
C577 H599 0.950 . S
C578 H574 0.949 . S
C578 C586 1.574 . S
C578 C594 1.368 . S
H579 C587 0.950 . S
H580 C585 0.950 . S
H581 C586 0.949 . S
H582 C588 0.950 . S
H583 C589 0.950 . S
H584 C590 0.949 . S
C585 H580 0.950 . S
C585 C587 1.327 1_655 S
C585 C591 1.429 . S
C586 C578 1.574 . S
C586 H581 0.949 . S
C586 C592 1.368 . S
C587 C571 1.349 . S
C587 H579 0.950 . S
C587 C585 1.327 1_455 S
C588 C576 1.349 . S
C588 H582 0.950 . S
C588 C589 1.327 . S
C589 H583 0.950 . S
C589 C588 1.327 . S
C589 C593 1.429 . S
C590 C573 1.574 . S
C590 H584 0.949 . S
C590 C594 1.368 . S
C591 C572 1.429 . S
C591 C585 1.429 . S
C591 C592 1.523 . S
C592 C573 1.368 . S
C592 C586 1.368 . S
C592 C591 1.523 . S
C593 C577 1.429 . S
C593 C589 1.429 . S
C593 C594 1.523 . S
C594 C578 1.368 . S
C594 C590 1.368 . S
C594 C593 1.523 . S
H595 C570 0.950 . S
H596 C572 0.950 . S
H597 C573 0.949 . S
H598 C575 0.950 . S
H599 C577 0.950 . S
C600 C601 1.349 . S
C600 C602 1.327 1_565 S
C600 H625 0.950 . S
C601 C600 1.349 . S
C601 C617 1.349 . S
C602 C600 1.327 1_545 S
C602 C621 1.429 . S
C602 H626 0.950 . S
C603 C620 1.574 . S
C603 C622 1.368 . S
C603 H627 0.949 . S
H604 C608 0.949 . S
C605 C606 1.349 . S
C605 C607 1.320 1_455 S
C605 H628 0.950 . S
C606 C605 1.349 . S
C606 C618 1.349 . S
C607 C605 1.320 1_655 S
C607 C623 1.428 . S
C607 H629 0.958 . S
C608 H604 0.949 . S
C608 C616 1.574 . S
C608 C624 1.368 . S
H609 C617 0.950 . S
H610 C615 0.950 . S
H611 C616 0.949 . S
H612 C618 0.950 . S
H613 C619 0.950 . S
H614 C620 0.949 . S
C615 H610 0.950 . S
C615 C617 1.327 1_545 S
C615 C621 1.429 . S
C616 C608 1.574 . S
C616 H611 0.949 . S
C616 C622 1.368 . S
C617 C601 1.349 . S
C617 H609 0.950 . S
C617 C615 1.327 1_565 S
C618 C606 1.349 . S
C618 H612 0.950 . S
C618 C619 1.327 . S
C619 H613 0.950 . S
C619 C618 1.327 . S
C619 C623 1.429 1_455 S
C620 C603 1.574 . S
C620 H614 0.949 . S
C620 C624 1.368 . S
C621 C602 1.429 . S
C621 C615 1.429 . S
C621 C622 1.523 . S
C622 C603 1.368 . S
C622 C616 1.368 . S
C622 C621 1.523 . S
C623 C607 1.428 . S
C623 C619 1.429 1_655 S
C623 C624 1.523 . S
C624 C608 1.368 . S
C624 C620 1.368 . S
C624 C623 1.523 . S
H625 C600 0.950 . S
H626 C602 0.950 . S
H627 C603 0.949 . S
H628 C605 0.950 . S
H629 C607 0.958 . S
C630 C631 1.349 . S
C630 C632 1.327 . S
C630 H655 0.950 . S
C631 C630 1.349 . S
C631 C647 1.349 . S
C632 C630 1.327 . S
C632 C651 1.429 . S
C632 H656 0.950 . S
C633 C650 1.574 . S
C633 C652 1.368 . S
C633 H657 0.949 . S
H634 C638 0.949 . S
C635 C636 1.349 . S
C635 C637 1.327 . S
C635 H658 0.950 . S
C636 C635 1.349 . S
C636 C648 1.349 . S
C637 C635 1.327 . S
C637 C653 1.429 1_565 S
C637 H659 0.950 . S
C638 H634 0.949 . S
C638 C646 1.574 . S
C638 C654 1.368 . S
H639 C647 0.950 . S
H640 C645 0.950 . S
H641 C646 0.949 . S
H642 C648 0.950 . S
H643 C649 0.950 . S
H644 C650 0.949 . S
C645 H640 0.950 . S
C645 C647 1.327 . S
C645 C651 1.429 . S
C646 C638 1.574 . S
C646 H641 0.949 . S
C646 C652 1.368 . S
C647 C631 1.349 . S
C647 H639 0.950 . S
C647 C645 1.327 . S
C648 C636 1.349 . S
C648 H642 0.950 . S
C648 C649 1.327 1_565 S
C649 H643 0.950 . S
C649 C648 1.327 1_545 S
C649 C653 1.429 . S
C650 C633 1.574 . S
C650 H644 0.949 . S
C650 C654 1.368 . S
C651 C632 1.429 . S
C651 C645 1.429 . S
C651 C652 1.523 . S
C652 C633 1.368 . S
C652 C646 1.368 . S
C652 C651 1.523 . S
C653 C637 1.429 1_545 S
C653 C649 1.429 . S
C653 C654 1.523 . S
C654 C638 1.368 . S
C654 C650 1.368 . S
C654 C653 1.523 . S
H655 C630 0.950 . S
H656 C632 0.950 . S
H657 C633 0.949 . S
H658 C635 0.950 . S
H659 C637 0.950 . S
C660 C661 1.349 . S
C660 C662 1.327 1_455 S
C660 H685 0.950 . S
C661 C660 1.349 . S
C661 C677 1.349 . S
C662 C660 1.327 1_655 S
C662 C681 1.429 . S
C662 H686 0.950 . S
C663 C680 1.574 . S
C663 C682 1.368 . S
C663 H687 0.949 . S
H664 C668 0.949 . S
C665 C666 1.349 . S
C665 C667 1.327 . S
C665 H688 0.950 . S
C666 C665 1.349 . S
C666 C678 1.349 . S
C667 C665 1.327 . S
C667 C683 1.429 . S
C667 H689 0.950 . S
C668 H664 0.949 . S
C668 C676 1.574 . S
C668 C684 1.368 . S
H669 C677 0.950 . S
H670 C675 0.950 . S
H671 C676 0.949 . S
H672 C678 0.950 . S
H673 C679 0.950 . S
H674 C680 0.949 . S
C675 H670 0.950 . S
C675 C677 1.327 1_655 S
C675 C681 1.429 . S
C676 C668 1.574 . S
C676 H671 0.949 . S
C676 C682 1.368 . S
C677 C661 1.349 . S
C677 H669 0.950 . S
C677 C675 1.327 1_455 S
C678 C666 1.349 . S
C678 H672 0.950 . S
C678 C679 1.327 . S
C679 H673 0.950 . S
C679 C678 1.327 . S
C679 C683 1.429 . S
C680 C663 1.574 . S
C680 H674 0.949 . S
C680 C684 1.368 . S
C681 C662 1.429 . S
C681 C675 1.429 . S
C681 C682 1.523 . S
C682 C663 1.368 . S
C682 C676 1.368 . S
C682 C681 1.523 . S
C683 C667 1.429 . S
C683 C679 1.429 . S
C683 C684 1.523 . S
C684 C668 1.368 . S
C684 C680 1.368 . S
C684 C683 1.523 . S
H685 C660 0.950 . S
H686 C662 0.950 . S
H687 C663 0.949 . S
H688 C665 0.950 . S
H689 C667 0.950 . S
C690 C691 1.349 . S
C690 C692 1.327 . S
C690 H715 0.950 . S
C691 C690 1.349 . S
C691 C707 1.349 . S
C692 C690 1.327 . S
C692 C711 1.429 1_455 S
C692 H716 0.950 . S
C693 C710 1.574 . S
C693 C712 1.368 . S
C693 H717 0.949 . S
H694 C698 0.949 . S
C695 C696 1.349 . S
C695 C697 1.327 1_565 S
C695 H718 0.950 . S
C696 C695 1.349 . S
C696 C708 1.349 . S
C697 C695 1.327 1_545 S
C697 C713 1.429 . S
C697 H719 0.950 . S
C698 H694 0.949 . S
C698 C706 1.574 . S
C698 C714 1.368 . S
H699 C707 0.950 . S
H700 C705 0.950 . S
H701 C706 0.949 . S
H702 C708 0.950 . S
H703 C709 0.950 . S
H704 C710 0.949 . S
C705 H700 0.950 . S
C705 C707 1.327 1_655 S
C705 C711 1.429 . S
C706 C698 1.574 . S
C706 H701 0.949 . S
C706 C712 1.368 . S
C707 C691 1.349 . S
C707 H699 0.950 . S
C707 C705 1.327 1_455 S
C708 C696 1.349 . S
C708 H702 0.950 . S
C708 C709 1.327 1_565 S
C709 H703 0.950 . S
C709 C708 1.327 1_545 S
C709 C713 1.429 . S
C710 C693 1.574 . S
C710 H704 0.949 . S
C710 C714 1.368 . S
C711 C692 1.429 1_655 S
C711 C705 1.429 . S
C711 C712 1.523 . S
C712 C693 1.368 . S
C712 C706 1.368 . S
C712 C711 1.523 . S
C713 C697 1.429 . S
C713 C709 1.429 . S
C713 C714 1.523 . S
C714 C698 1.368 . S
C714 C710 1.368 . S
C714 C713 1.523 . S
H715 C690 0.950 . S
H716 C692 0.950 . S
H717 C693 0.949 . S
H718 C695 0.950 . S
H719 C697 0.950 . S
C720 C721 1.349 . S
C720 C722 1.327 . S
C720 H745 0.950 . S
C721 C720 1.349 . S
C721 C737 1.349 . S
C722 C720 1.327 . S
C722 C741 1.429 . S
C722 H746 0.950 . S
C723 C740 1.574 . S
C723 C742 1.368 . S
C723 H747 0.949 . S
H724 C728 0.949 . S
C725 C726 1.349 . S
C725 C727 1.327 . S
C725 H748 0.950 . S
C726 C725 1.349 . S
C726 C738 1.349 . S
C727 C725 1.327 . S
C727 C743 1.429 . S
C727 H749 0.950 . S
C728 H724 0.949 . S
C728 C736 1.574 . S
C728 C744 1.368 . S
H729 C737 0.950 . S
H730 C735 0.950 . S
H731 C736 0.949 . S
H732 C738 0.950 . S
H733 C739 0.950 . S
H734 C740 0.949 . S
C735 H730 0.950 . S
C735 C737 1.327 . S
C735 C741 1.429 . S
C736 C728 1.574 . S
C736 H731 0.949 . S
C736 C742 1.368 . S
C737 C721 1.349 . S
C737 H729 0.950 . S
C737 C735 1.327 . S
C738 C726 1.349 . S
C738 H732 0.950 . S
C738 C739 1.327 . S
C739 H733 0.950 . S
C739 C738 1.327 . S
C739 C743 1.429 . S
C740 C723 1.574 . S
C740 H734 0.949 . S
C740 C744 1.368 . S
C741 C722 1.429 . S
C741 C735 1.429 . S
C741 C742 1.523 . S
C742 C723 1.368 . S
C742 C736 1.368 . S
C742 C741 1.523 . S
C743 C727 1.429 . S
C743 C739 1.429 . S
C743 C744 1.523 . S
C744 C728 1.368 . S
C744 C740 1.368 . S
C744 C743 1.523 . S
H745 C720 0.950 . S
H746 C722 0.950 . S
H747 C723 0.949 . S
H748 C725 0.950 . S
H749 C727 0.950 . S
C750 C751 1.349 . S
C750 C752 1.327 . S
C750 H775 0.950 . S
C751 C750 1.349 . S
C751 C767 1.349 . S
C752 C750 1.327 . S
C752 C771 1.429 . S
C752 H776 0.950 . S
C753 C770 1.574 . S
C753 C772 1.368 . S
C753 H777 0.949 . S
H754 C758 0.949 . S
C755 C756 1.349 . S
C755 C757 1.327 . S
C755 H778 0.950 . S
C756 C755 1.349 . S
C756 C768 1.349 . S
C757 C755 1.327 . S
C757 C773 1.429 . S
C757 H779 0.950 . S
C758 H754 0.949 . S
C758 C766 1.574 . S
C758 C774 1.368 . S
H759 C767 0.950 . S
H760 C765 0.950 . S
H761 C766 0.949 . S
H762 C768 0.950 . S
H763 C769 0.950 . S
H764 C770 0.949 . S
C765 H760 0.950 . S
C765 C767 1.327 . S
C765 C771 1.429 . S
C766 C758 1.574 . S
C766 H761 0.949 . S
C766 C772 1.368 . S
C767 C751 1.349 . S
C767 H759 0.950 . S
C767 C765 1.327 . S
C768 C756 1.349 . S
C768 H762 0.950 . S
C768 C769 1.327 . S
C769 H763 0.950 . S
C769 C768 1.327 . S
C769 C773 1.429 . S
C770 C753 1.574 . S
C770 H764 0.949 . S
C770 C774 1.368 . S
C771 C752 1.429 . S
C771 C765 1.429 . S
C771 C772 1.523 . S
C772 C753 1.368 . S
C772 C766 1.368 . S
C772 C771 1.523 . S
C773 C757 1.429 . S
C773 C769 1.429 . S
C773 C774 1.523 . S
C774 C758 1.368 . S
C774 C770 1.368 . S
C774 C773 1.523 . S
H775 C750 0.950 . S
H776 C752 0.950 . S
H777 C753 0.949 . S
H778 C755 0.950 . S
H779 C757 0.950 . S
C780 C781 1.349 . S
C780 C782 1.327 . S
C780 H805 0.950 . S
C781 C780 1.349 . S
C781 C797 1.349 . S
C782 C780 1.327 . S
C782 C801 1.429 . S
C782 H806 0.950 . S
C783 C800 1.574 . S
C783 C802 1.368 . S
C783 H807 0.949 . S
H784 C788 0.949 . S
C785 C786 1.349 . S
C785 C787 1.327 . S
C785 H808 0.950 . S
C786 C785 1.349 . S
C786 C798 1.349 . S
C787 C785 1.327 . S
C787 C803 1.429 . S
C787 H809 0.950 . S
C788 H784 0.949 . S
C788 C796 1.574 . S
C788 C804 1.368 . S
H789 C797 0.950 . S
H790 C795 0.950 . S
H791 C796 0.949 . S
H792 C798 0.950 . S
H793 C799 0.950 . S
H794 C800 0.949 . S
C795 H790 0.950 . S
C795 C797 1.327 . S
C795 C801 1.429 . S
C796 C788 1.574 . S
C796 H791 0.949 . S
C796 C802 1.368 . S
C797 C781 1.349 . S
C797 H789 0.950 . S
C797 C795 1.327 . S
C798 C786 1.349 . S
C798 H792 0.950 . S
C798 C799 1.327 . S
C799 H793 0.950 . S
C799 C798 1.327 . S
C799 C803 1.429 . S
C800 C783 1.574 . S
C800 H794 0.949 . S
C800 C804 1.368 . S
C801 C782 1.429 . S
C801 C795 1.429 . S
C801 C802 1.523 . S
C802 C783 1.368 . S
C802 C796 1.368 . S
C802 C801 1.523 . S
C803 C787 1.429 . S
C803 C799 1.429 . S
C803 C804 1.523 . S
C804 C788 1.368 . S
C804 C800 1.368 . S
C804 C803 1.523 . S
H805 C780 0.950 . S
H806 C782 0.950 . S
H807 C783 0.949 . S
H808 C785 0.950 . S
H809 C787 0.950 . S
C810 C811 1.349 . S
C810 C812 1.327 . S
C810 H835 0.950 . S
C811 C810 1.349 . S
C811 C827 1.349 . S
C812 C810 1.327 . S
C812 C831 1.429 . S
C812 H836 0.950 . S
C813 C830 1.574 . S
C813 C832 1.368 . S
C813 H837 0.949 . S
H814 C818 0.949 . S
C815 C816 1.349 . S
C815 C817 1.327 . S
C815 H838 0.950 . S
C816 C815 1.349 . S
C816 C828 1.349 . S
C817 C815 1.327 . S
C817 C833 1.429 . S
C817 H839 0.950 . S
C818 H814 0.949 . S
C818 C826 1.574 . S
C818 C834 1.368 . S
H819 C827 0.950 . S
H820 C825 0.950 . S
H821 C826 0.949 . S
H822 C828 0.950 . S
H823 C829 0.950 . S
H824 C830 0.949 . S
C825 H820 0.950 . S
C825 C827 1.327 . S
C825 C831 1.429 . S
C826 C818 1.574 . S
C826 H821 0.949 . S
C826 C832 1.368 . S
C827 C811 1.349 . S
C827 H819 0.950 . S
C827 C825 1.327 . S
C828 C816 1.349 . S
C828 H822 0.950 . S
C828 C829 1.327 . S
C829 H823 0.950 . S
C829 C828 1.327 . S
C829 C833 1.429 . S
C830 C813 1.574 . S
C830 H824 0.949 . S
C830 C834 1.368 . S
C831 C812 1.429 . S
C831 C825 1.429 . S
C831 C832 1.523 . S
C832 C813 1.368 . S
C832 C826 1.368 . S
C832 C831 1.523 . S
C833 C817 1.429 . S
C833 C829 1.429 . S
C833 C834 1.523 . S
C834 C818 1.368 . S
C834 C830 1.368 . S
C834 C833 1.523 . S
H835 C810 0.950 . S
H836 C812 0.950 . S
H837 C813 0.949 . S
H838 C815 0.950 . S
H839 C817 0.950 . S
C840 C841 1.349 . S
C840 C842 1.327 . S
C840 H865 0.950 . S
C841 C840 1.349 . S
C841 C857 1.349 . S
C842 C840 1.327 . S
C842 C861 1.429 . S
C842 H866 0.950 . S
C843 C860 1.574 . S
C843 C862 1.368 . S
C843 H867 0.949 . S
H844 C848 0.949 . S
C845 C846 1.349 . S
C845 C847 1.327 . S
C845 H868 0.950 . S
C846 C845 1.349 . S
C846 C858 1.349 . S
C847 C845 1.327 . S
C847 C863 1.429 . S
C847 H869 0.950 . S
C848 H844 0.949 . S
C848 C856 1.574 . S
C848 C864 1.368 . S
H849 C857 0.950 . S
H850 C855 0.950 . S
H851 C856 0.949 . S
H852 C858 0.950 . S
H853 C859 0.950 . S
H854 C860 0.949 . S
C855 H850 0.950 . S
C855 C857 1.327 . S
C855 C861 1.429 . S
C856 C848 1.574 . S
C856 H851 0.949 . S
C856 C862 1.368 . S
C857 C841 1.349 . S
C857 H849 0.950 . S
C857 C855 1.327 . S
C858 C846 1.349 . S
C858 H852 0.950 . S
C858 C859 1.327 . S
C859 H853 0.950 . S
C859 C858 1.327 . S
C859 C863 1.429 . S
C860 C843 1.574 . S
C860 H854 0.949 . S
C860 C864 1.368 . S
C861 C842 1.429 . S
C861 C855 1.429 . S
C861 C862 1.523 . S
C862 C843 1.368 . S
C862 C856 1.368 . S
C862 C861 1.523 . S
C863 C847 1.429 . S
C863 C859 1.429 . S
C863 C864 1.523 . S
C864 C848 1.368 . S
C864 C860 1.368 . S
C864 C863 1.523 . S
H865 C840 0.950 . S
H866 C842 0.950 . S
H867 C843 0.949 . S
H868 C845 0.950 . S
H869 C847 0.950 . S
C870 C871 1.349 . S
C870 C872 1.327 . S
C870 H895 0.950 . S
C871 C870 1.349 . S
C871 C887 1.349 . S
C872 C870 1.327 . S
C872 C891 1.429 . S
C872 H896 0.950 . S
C873 C890 1.574 . S
C873 C892 1.368 . S
C873 H897 0.949 . S
H874 C878 0.949 . S
C875 C876 1.349 . S
C875 C877 1.327 . S
C875 H898 0.950 . S
C876 C875 1.349 . S
C876 C888 1.349 . S
C877 C875 1.327 . S
C877 C893 1.429 . S
C877 H899 0.950 . S
C878 H874 0.949 . S
C878 C886 1.574 . S
C878 C894 1.368 . S
H879 C887 0.950 . S
H880 C885 0.950 . S
H881 C886 0.949 . S
H882 C888 0.950 . S
H883 C889 0.950 . S
H884 C890 0.949 . S
C885 H880 0.950 . S
C885 C887 1.327 . S
C885 C891 1.429 . S
C886 C878 1.574 . S
C886 H881 0.949 . S
C886 C892 1.368 . S
C887 C871 1.349 . S
C887 H879 0.950 . S
C887 C885 1.327 . S
C888 C876 1.349 . S
C888 H882 0.950 . S
C888 C889 1.327 . S
C889 H883 0.950 . S
C889 C888 1.327 . S
C889 C893 1.429 . S
C890 C873 1.574 . S
C890 H884 0.949 . S
C890 C894 1.368 . S
C891 C872 1.429 . S
C891 C885 1.429 . S
C891 C892 1.523 . S
C892 C873 1.368 . S
C892 C886 1.368 . S
C892 C891 1.523 . S
C893 C877 1.429 . S
C893 C889 1.429 . S
C893 C894 1.523 . S
C894 C878 1.368 . S
C894 C890 1.368 . S
C894 C893 1.523 . S
H895 C870 0.950 . S
H896 C872 0.950 . S
H897 C873 0.949 . S
H898 C875 0.950 . S
H899 C877 0.950 . S
C900 C901 1.349 . S
C900 C902 1.327 . S
C900 H925 0.950 . S
C901 C900 1.349 . S
C901 C917 1.349 . S
C902 C900 1.327 . S
C902 C921 1.429 . S
C902 H926 0.950 . S
C903 C920 1.574 . S
C903 C922 1.368 1_545 S
C903 H927 0.949 . S
H904 C908 0.949 . S
C905 C906 1.349 . S
C905 C907 1.327 . S
C905 H928 0.950 . S
C906 C905 1.349 . S
C906 C918 1.349 . S
C907 C905 1.327 . S
C907 C923 1.429 . S
C907 H929 0.950 . S
C908 H904 0.949 . S
C908 C916 1.574 . S
C908 C924 1.368 1_565 S
H909 C917 0.950 . S
H910 C915 0.950 . S
H911 C916 0.949 . S
H912 C918 0.950 . S
H913 C919 0.950 . S
H914 C920 0.949 . S
C915 H910 0.950 . S
C915 C917 1.327 . S
C915 C921 1.429 . S
C916 C908 1.574 . S
C916 H911 0.949 . S
C916 C922 1.368 1_554 S
C917 C901 1.349 . S
C917 H909 0.950 . S
C917 C915 1.327 . S
C918 C906 1.349 . S
C918 H912 0.950 . S
C918 C919 1.327 . S
C919 H913 0.950 . S
C919 C918 1.327 . S
C919 C923 1.429 . S
C920 C903 1.574 . S
C920 H914 0.949 . S
C920 C924 1.368 1_556 S
C921 C902 1.429 . S
C921 C915 1.429 . S
C921 C922 1.523 . S
C922 C903 1.368 1_565 S
C922 C916 1.368 1_556 S
C922 C921 1.523 . S
C923 C907 1.429 . S
C923 C919 1.429 . S
C923 C924 1.523 . S
C924 C908 1.368 1_545 S
C924 C920 1.368 1_554 S
C924 C923 1.523 . S
H925 C900 0.950 . S
H926 C902 0.950 . S
H927 C903 0.949 . S
H928 C905 0.950 . S
H929 C907 0.950 . S
C930 C931 1.349 . S
C930 C932 1.327 . S
C930 H955 0.950 . S
C931 C930 1.349 . S
C931 C947 1.349 . S
C932 C930 1.327 . S
C932 C951 1.429 . S
C932 H956 0.950 . S
C933 C950 1.574 . S
C933 C952 1.368 . S
C933 H957 0.949 . S
H934 C938 0.949 . S
C935 C936 1.349 . S
C935 C937 1.327 . S
C935 H958 0.950 . S
C936 C935 1.349 . S
C936 C948 1.349 . S
C937 C935 1.327 . S
C937 C953 1.429 . S
C937 H959 0.950 . S
C938 H934 0.949 . S
C938 C946 1.574 . S
C938 C954 1.368 . S
H939 C947 0.950 . S
H940 C945 0.950 . S
H941 C946 0.949 . S
H942 C948 0.950 . S
H943 C949 0.950 . S
H944 C950 0.949 . S
C945 H940 0.950 . S
C945 C947 1.327 . S
C945 C951 1.429 . S
C946 C938 1.574 . S
C946 H941 0.949 . S
C946 C952 1.368 . S
C947 C931 1.349 . S
C947 H939 0.950 . S
C947 C945 1.327 . S
C948 C936 1.349 . S
C948 H942 0.950 . S
C948 C949 1.327 . S
C949 H943 0.950 . S
C949 C948 1.327 . S
C949 C953 1.429 . S
C950 C933 1.574 . S
C950 H944 0.949 . S
C950 C954 1.368 . S
C951 C932 1.429 . S
C951 C945 1.429 . S
C951 C952 1.523 . S
C952 C933 1.368 . S
C952 C946 1.368 . S
C952 C951 1.523 . S
C953 C937 1.429 . S
C953 C949 1.429 . S
C953 C954 1.523 . S
C954 C938 1.368 . S
C954 C950 1.368 . S
C954 C953 1.523 . S
H955 C930 0.950 . S
H956 C932 0.950 . S
H957 C933 0.949 . S
H958 C935 0.950 . S
H959 C937 0.950 . S
C960 C961 1.349 . S
C960 C962 1.327 . S
C960 H985 0.950 . S
C961 C960 1.349 . S
C961 C977 1.349 . S
C962 C960 1.327 . S
C962 C981 1.429 . S
C962 H986 0.950 . S
C963 C980 1.574 1_456 S
C963 C982 1.368 . S
C963 H987 0.949 . S
H964 C968 0.949 . S
C965 C966 1.349 . S
C965 C967 1.327 . S
C965 H988 0.950 . S
C966 C965 1.349 . S
C966 C978 1.349 . S
C967 C965 1.327 . S
C967 C983 1.429 . S
C967 H989 0.950 . S
C968 H964 0.949 . S
C968 C976 1.574 1_654 S
C968 C984 1.368 . S
H969 C977 0.950 . S
H970 C975 0.950 . S
H971 C976 0.949 . S
H972 C978 0.950 . S
H973 C979 0.950 . S
H974 C980 0.949 . S
C975 H970 0.950 . S
C975 C977 1.327 . S
C975 C981 1.429 . S
C976 C968 1.574 1_456 S
C976 H971 0.949 . S
C976 C982 1.368 . S
C977 C961 1.349 . S
C977 H969 0.950 . S
C977 C975 1.327 . S
C978 C966 1.349 . S
C978 H972 0.950 . S
C978 C979 1.327 . S
C979 H973 0.950 . S
C979 C978 1.327 . S
C979 C983 1.429 . S
C980 C963 1.574 1_654 S
C980 H974 0.949 . S
C980 C984 1.368 . S
C981 C962 1.429 . S
C981 C975 1.429 . S
C981 C982 1.523 . S
C982 C963 1.368 . S
C982 C976 1.368 . S
C982 C981 1.523 . S
C983 C967 1.429 . S
C983 C979 1.429 . S
C983 C984 1.523 . S
C984 C968 1.368 . S
C984 C980 1.368 . S
C984 C983 1.523 . S
H985 C960 0.950 . S
H986 C962 0.950 . S
H987 C963 0.949 . S
H988 C965 0.950 . S
H989 C967 0.950 . S
C990 C991 1.349 . S
C990 C992 1.327 . S
C990 H1015 0.950 . S
C991 C990 1.349 . S
C991 C1007 1.349 . S
C992 C990 1.327 . S
C992 C1011 1.429 . S
C992 H1016 0.950 . S
C993 C1010 1.574 . S
C993 C1012 1.368 1_565 S
C993 H1017 0.949 . S
H994 C998 0.949 . S
C995 C996 1.349 . S
C995 C997 1.327 . S
C995 H1018 0.950 . S
C996 C995 1.349 . S
C996 C1008 1.349 . S
C997 C995 1.327 . S
C997 C1013 1.429 . S
C997 H1019 0.950 . S
C998 H994 0.949 . S
C998 C1006 1.574 . S
C998 C1014 1.368 1_545 S
H999 C1007 0.950 . S
H1000 C1005 0.950 . S
H1001 C1006 0.949 . S
H1002 C1008 0.950 . S
H1003 C1009 0.950 . S
H1004 C1010 0.949 . S
C1005 H1000 0.950 . S
C1005 C1007 1.327 . S
C1005 C1011 1.429 . S
C1006 C998 1.574 . S
C1006 H1001 0.949 . S
C1006 C1012 1.368 . S
C1007 C991 1.349 . S
C1007 H999 0.950 . S
C1007 C1005 1.327 . S
C1008 C996 1.349 . S
C1008 H1002 0.950 . S
C1008 C1009 1.327 . S
C1009 H1003 0.950 . S
C1009 C1008 1.327 . S
C1009 C1013 1.429 . S
C1010 C993 1.574 . S
C1010 H1004 0.949 . S
C1010 C1014 1.368 . S
C1011 C992 1.429 . S
C1011 C1005 1.429 . S
C1011 C1012 1.523 . S
C1012 C993 1.368 1_545 S
C1012 C1006 1.368 . S
C1012 C1011 1.523 . S
C1013 C997 1.429 . S
C1013 C1009 1.429 . S
C1013 C1014 1.523 . S
C1014 C998 1.368 1_565 S
C1014 C1010 1.368 . S
C1014 C1013 1.523 . S
H1015 C990 0.950 . S
H1016 C992 0.950 . S
H1017 C993 0.949 . S
H1018 C995 0.950 . S
H1019 C997 0.950 . S
C1020 C1021 1.349 . S
C1020 C1022 1.327 . S
C1020 H1045 0.950 . S
C1021 C1020 1.349 . S
C1021 C1037 1.349 . S
C1022 C1020 1.327 . S
C1022 C1041 1.429 . S
C1022 H1046 0.950 . S
C1023 C1040 1.574 1_554 S
C1023 C1042 1.368 . S
C1023 H1047 0.949 . S
H1024 C1028 0.949 . S
C1025 C1026 1.349 . S
C1025 C1027 1.327 . S
C1025 H1048 0.950 . S
C1026 C1025 1.349 . S
C1026 C1038 1.349 . S
C1027 C1025 1.327 . S
C1027 C1043 1.429 . S
C1027 H1049 0.950 . S
C1028 H1024 0.949 . S
C1028 C1036 1.574 1_556 S
C1028 C1044 1.368 . S
H1029 C1037 0.950 . S
H1030 C1035 0.950 . S
H1031 C1036 0.949 . S
H1032 C1038 0.950 . S
H1033 C1039 0.950 . S
H1034 C1040 0.949 . S
C1035 H1030 0.950 . S
C1035 C1037 1.327 . S
C1035 C1041 1.429 . S
C1036 C1028 1.574 1_554 S
C1036 H1031 0.949 . S
C1036 C1042 1.368 . S
C1037 C1021 1.349 . S
C1037 H1029 0.950 . S
C1037 C1035 1.327 . S
C1038 C1026 1.349 . S
C1038 H1032 0.950 . S
C1038 C1039 1.327 . S
C1039 H1033 0.950 . S
C1039 C1038 1.327 . S
C1039 C1043 1.429 . S
C1040 C1023 1.574 1_556 S
C1040 H1034 0.949 . S
C1040 C1044 1.368 . S
C1041 C1022 1.429 . S
C1041 C1035 1.429 . S
C1041 C1042 1.523 . S
C1042 C1023 1.368 . S
C1042 C1036 1.368 . S
C1042 C1041 1.523 . S
C1043 C1027 1.429 . S
C1043 C1039 1.429 . S
C1043 C1044 1.523 . S
C1044 C1028 1.368 . S
C1044 C1040 1.368 . S
C1044 C1043 1.523 . S
H1045 C1020 0.950 . S
H1046 C1022 0.950 . S
H1047 C1023 0.949 . S
H1048 C1025 0.950 . S
H1049 C1027 0.950 . S
C1050 C1051 1.349 . S
C1050 C1052 1.327 . S
C1050 H1075 0.950 . S
C1051 C1050 1.349 . S
C1051 C1067 1.349 . S
C1052 C1050 1.327 . S
C1052 C1071 1.429 . S
C1052 H1076 0.950 . S
C1053 C1070 1.574 . S
C1053 C1072 1.368 . S
C1053 H1077 0.949 . S
H1054 C1058 0.949 . S
C1055 C1056 1.349 . S
C1055 C1057 1.327 . S
C1055 H1078 0.950 . S
C1056 C1055 1.349 . S
C1056 C1068 1.349 . S
C1057 C1055 1.327 . S
C1057 C1073 1.429 . S
C1057 H1079 0.950 . S
C1058 H1054 0.949 . S
C1058 C1066 1.574 . S
C1058 C1074 1.368 . S
H1059 C1067 0.950 . S
H1060 C1065 0.950 . S
H1061 C1066 0.949 . S
H1062 C1068 0.950 . S
H1063 C1069 0.950 . S
H1064 C1070 0.949 . S
C1065 H1060 0.950 . S
C1065 C1067 1.327 . S
C1065 C1071 1.429 . S
C1066 C1058 1.574 . S
C1066 H1061 0.949 . S
C1066 C1072 1.368 1_655 S
C1067 C1051 1.349 . S
C1067 H1059 0.950 . S
C1067 C1065 1.327 . S
C1068 C1056 1.349 . S
C1068 H1062 0.950 . S
C1068 C1069 1.327 . S
C1069 H1063 0.950 . S
C1069 C1068 1.327 . S
C1069 C1073 1.429 . S
C1070 C1053 1.574 . S
C1070 H1064 0.949 . S
C1070 C1074 1.368 1_455 S
C1071 C1052 1.429 . S
C1071 C1065 1.429 . S
C1071 C1072 1.523 . S
C1072 C1053 1.368 . S
C1072 C1066 1.368 1_455 S
C1072 C1071 1.523 . S
C1073 C1057 1.429 . S
C1073 C1069 1.429 . S
C1073 C1074 1.523 . S
C1074 C1058 1.368 . S
C1074 C1070 1.368 1_655 S
C1074 C1073 1.523 . S
H1075 C1050 0.950 . S
H1076 C1052 0.950 . S
H1077 C1053 0.949 . S
H1078 C1055 0.950 . S
H1079 C1057 0.950 . S
C1080 C1081 1.349 . S
C1080 C1082 1.327 . S
C1080 H1105 0.950 . S
C1081 C1080 1.349 . S
C1081 C1097 1.349 . S
C1082 C1080 1.327 . S
C1082 C1101 1.429 . S
C1082 H1106 0.950 . S
C1083 C1100 1.574 . S
C1083 C1102 1.368 . S
C1083 H1107 0.949 . S
H1084 C1088 0.949 . S
C1085 C1086 1.349 . S
C1085 C1087 1.327 . S
C1085 H1108 0.950 . S
C1086 C1085 1.349 . S
C1086 C1098 1.349 . S
C1087 C1085 1.327 . S
C1087 C1103 1.429 . S
C1087 H1109 0.950 . S
C1088 H1084 0.949 . S
C1088 C1096 1.574 . S
C1088 C1104 1.368 . S
H1089 C1097 0.950 . S
H1090 C1095 0.950 . S
H1091 C1096 0.949 . S
H1092 C1098 0.950 . S
H1093 C1099 0.950 . S
H1094 C1100 0.949 . S
C1095 H1090 0.950 . S
C1095 C1097 1.327 . S
C1095 C1101 1.429 . S
C1096 C1088 1.574 . S
C1096 H1091 0.949 . S
C1096 C1102 1.368 . S
C1097 C1081 1.349 . S
C1097 H1089 0.950 . S
C1097 C1095 1.327 . S
C1098 C1086 1.349 . S
C1098 H1092 0.950 . S
C1098 C1099 1.327 . S
C1099 H1093 0.950 . S
C1099 C1098 1.327 . S
C1099 C1103 1.429 . S
C1100 C1083 1.574 . S
C1100 H1094 0.949 . S
C1100 C1104 1.368 . S
C1101 C1082 1.429 . S
C1101 C1095 1.429 . S
C1101 C1102 1.523 . S
C1102 C1083 1.368 . S
C1102 C1096 1.368 . S
C1102 C1101 1.523 . S
C1103 C1087 1.429 . S
C1103 C1099 1.429 . S
C1103 C1104 1.523 . S
C1104 C1088 1.368 . S
C1104 C1100 1.368 . S
C1104 C1103 1.523 . S
H1105 C1080 0.950 . S
H1106 C1082 0.950 . S
H1107 C1083 0.949 . S
H1108 C1085 0.950 . S
H1109 C1087 0.950 . S
C1110 C1111 1.349 . S
C1110 C1112 1.327 . S
C1110 H1135 0.950 . S
C1111 C1110 1.349 . S
C1111 C1127 1.349 . S
C1112 C1110 1.327 . S
C1112 C1131 1.429 . S
C1112 H1136 0.950 . S
C1113 C1130 1.574 . S
C1113 C1132 1.368 . S
C1113 H1137 0.949 . S
H1114 C1118 0.949 . S
C1115 C1116 1.349 . S
C1115 C1117 1.327 . S
C1115 H1138 0.950 . S
C1116 C1115 1.349 . S
C1116 C1128 1.349 . S
C1117 C1115 1.327 . S
C1117 C1133 1.429 . S
C1117 H1139 0.950 . S
C1118 H1114 0.949 . S
C1118 C1126 1.574 . S
C1118 C1134 1.368 . S
H1119 C1127 0.950 . S
H1120 C1125 0.950 . S
H1121 C1126 0.949 . S
H1122 C1128 0.950 . S
H1123 C1129 0.950 . S
H1124 C1130 0.949 . S
C1125 H1120 0.950 . S
C1125 C1127 1.327 . S
C1125 C1131 1.429 . S
C1126 C1118 1.574 . S
C1126 H1121 0.949 . S
C1126 C1132 1.368 . S
C1127 C1111 1.349 . S
C1127 H1119 0.950 . S
C1127 C1125 1.327 . S
C1128 C1116 1.349 . S
C1128 H1122 0.950 . S
C1128 C1129 1.327 . S
C1129 H1123 0.950 . S
C1129 C1128 1.327 . S
C1129 C1133 1.429 . S
C1130 C1113 1.574 . S
C1130 H1124 0.949 . S
C1130 C1134 1.368 . S
C1131 C1112 1.429 . S
C1131 C1125 1.429 . S
C1131 C1132 1.523 . S
C1132 C1113 1.368 . S
C1132 C1126 1.368 . S
C1132 C1131 1.523 . S
C1133 C1117 1.429 . S
C1133 C1129 1.429 . S
C1133 C1134 1.523 . S
C1134 C1118 1.368 . S
C1134 C1130 1.368 . S
C1134 C1133 1.523 . S
H1135 C1110 0.950 . S
H1136 C1112 0.950 . S
H1137 C1113 0.949 . S
H1138 C1115 0.950 . S
H1139 C1117 0.950 . S
C1140 C1141 1.349 . S
C1140 C1142 1.327 . S
C1140 H1165 0.950 . S
C1141 C1140 1.349 . S
C1141 C1157 1.349 . S
C1142 C1140 1.327 . S
C1142 C1161 1.429 . S
C1142 H1166 0.950 . S
C1143 C1160 1.574 . S
C1143 C1162 1.368 . S
C1143 H1167 0.949 . S
H1144 C1148 0.949 . S
C1145 C1146 1.349 . S
C1145 C1147 1.327 . S
C1145 H1168 0.950 . S
C1146 C1145 1.349 . S
C1146 C1158 1.349 . S
C1147 C1145 1.327 . S
C1147 C1163 1.429 . S
C1147 H1169 0.950 . S
C1148 H1144 0.949 . S
C1148 C1156 1.574 . S
C1148 C1164 1.368 . S
H1149 C1157 0.950 . S
H1150 C1155 0.950 . S
H1151 C1156 0.949 . S
H1152 C1158 0.950 . S
H1153 C1159 0.950 . S
H1154 C1160 0.949 . S
C1155 H1150 0.950 . S
C1155 C1157 1.327 . S
C1155 C1161 1.429 . S
C1156 C1148 1.574 . S
C1156 H1151 0.949 . S
C1156 C1162 1.368 . S
C1157 C1141 1.349 . S
C1157 H1149 0.950 . S
C1157 C1155 1.327 . S
C1158 C1146 1.349 . S
C1158 H1152 0.950 . S
C1158 C1159 1.327 . S
C1159 H1153 0.950 . S
C1159 C1158 1.327 . S
C1159 C1163 1.429 . S
C1160 C1143 1.574 . S
C1160 H1154 0.949 . S
C1160 C1164 1.368 . S
C1161 C1142 1.429 . S
C1161 C1155 1.429 . S
C1161 C1162 1.523 . S
C1162 C1143 1.368 . S
C1162 C1156 1.368 . S
C1162 C1161 1.523 . S
C1163 C1147 1.429 . S
C1163 C1159 1.429 . S
C1163 C1164 1.523 . S
C1164 C1148 1.368 . S
C1164 C1160 1.368 . S
C1164 C1163 1.523 . S
H1165 C1140 0.950 . S
H1166 C1142 0.950 . S
H1167 C1143 0.949 . S
H1168 C1145 0.950 . S
H1169 C1147 0.950 . S
C1170 C1171 1.349 . S
C1170 C1172 1.327 . S
C1170 H1195 0.950 . S
C1171 C1170 1.349 . S
C1171 C1187 1.349 . S
C1172 C1170 1.327 . S
C1172 C1191 1.429 . S
C1172 H1196 0.950 . S
C1173 C1190 1.574 . S
C1173 C1192 1.368 . S
C1173 H1197 0.949 . S
H1174 C1178 0.949 . S
C1175 C1176 1.349 . S
C1175 C1177 1.327 . S
C1175 H1198 0.950 . S
C1176 C1175 1.349 . S
C1176 C1188 1.349 . S
C1177 C1175 1.327 . S
C1177 C1193 1.429 . S
C1177 H1199 0.950 . S
C1178 H1174 0.949 . S
C1178 C1186 1.574 . S
C1178 C1194 1.368 . S
H1179 C1187 0.950 . S
H1180 C1185 0.950 . S
H1181 C1186 0.949 . S
H1182 C1188 0.950 . S
H1183 C1189 0.950 . S
H1184 C1190 0.949 . S
C1185 H1180 0.950 . S
C1185 C1187 1.327 . S
C1185 C1191 1.429 . S
C1186 C1178 1.574 . S
C1186 H1181 0.949 . S
C1186 C1192 1.368 . S
C1187 C1171 1.349 . S
C1187 H1179 0.950 . S
C1187 C1185 1.327 . S
C1188 C1176 1.349 . S
C1188 H1182 0.950 . S
C1188 C1189 1.327 . S
C1189 H1183 0.950 . S
C1189 C1188 1.327 . S
C1189 C1193 1.429 . S
C1190 C1173 1.574 . S
C1190 H1184 0.949 . S
C1190 C1194 1.368 . S
C1191 C1172 1.429 . S
C1191 C1185 1.429 . S
C1191 C1192 1.523 . S
C1192 C1173 1.368 . S
C1192 C1186 1.368 . S
C1192 C1191 1.523 . S
C1193 C1177 1.429 . S
C1193 C1189 1.429 . S
C1193 C1194 1.523 . S
C1194 C1178 1.368 . S
C1194 C1190 1.368 . S
C1194 C1193 1.523 . S
H1195 C1170 0.950 . S
H1196 C1172 0.950 . S
H1197 C1173 0.949 . S
H1198 C1175 0.950 . S
H1199 C1177 0.950 . S
C1200 C1201 1.349 . S
C1200 C1202 1.327 . S
C1200 H1225 0.950 . S
C1201 C1200 1.349 . S
C1201 C1217 1.349 . S
C1202 C1200 1.327 . S
C1202 C1221 1.429 . S
C1202 H1226 0.950 . S
C1203 C1220 1.574 . S
C1203 C1222 1.368 . S
C1203 H1227 0.949 . S
H1204 C1208 0.949 . S
C1205 C1206 1.349 . S
C1205 C1207 1.327 . S
C1205 H1228 0.950 . S
C1206 C1205 1.349 . S
C1206 C1218 1.349 . S
C1207 C1205 1.327 . S
C1207 C1223 1.429 . S
C1207 H1229 0.950 . S
C1208 H1204 0.949 . S
C1208 C1216 1.574 . S
C1208 C1224 1.368 . S
H1209 C1217 0.950 . S
H1210 C1215 0.950 . S
H1211 C1216 0.949 . S
H1212 C1218 0.950 . S
H1213 C1219 0.950 . S
H1214 C1220 0.949 . S
C1215 H1210 0.950 . S
C1215 C1217 1.327 . S
C1215 C1221 1.429 . S
C1216 C1208 1.574 . S
C1216 H1211 0.949 . S
C1216 C1222 1.368 . S
C1217 C1201 1.349 . S
C1217 H1209 0.950 . S
C1217 C1215 1.327 . S
C1218 C1206 1.349 . S
C1218 H1212 0.950 . S
C1218 C1219 1.327 . S
C1219 H1213 0.950 . S
C1219 C1218 1.327 . S
C1219 C1223 1.429 . S
C1220 C1203 1.574 . S
C1220 H1214 0.949 . S
C1220 C1224 1.368 . S
C1221 C1202 1.429 . S
C1221 C1215 1.429 . S
C1221 C1222 1.523 . S
C1222 C1203 1.368 . S
C1222 C1216 1.368 . S
C1222 C1221 1.523 . S
C1223 C1207 1.429 . S
C1223 C1219 1.429 . S
C1223 C1224 1.523 . S
C1224 C1208 1.368 . S
C1224 C1220 1.368 . S
C1224 C1223 1.523 . S
H1225 C1200 0.950 . S
H1226 C1202 0.950 . S
H1227 C1203 0.949 . S
H1228 C1205 0.950 . S
H1229 C1207 0.950 . S
C1230 C1231 1.349 . S
C1230 C1232 1.327 . S
C1230 H1255 0.950 . S
C1231 C1230 1.349 . S
C1231 C1247 1.349 . S
C1232 C1230 1.327 . S
C1232 C1251 1.429 . S
C1232 H1256 0.950 . S
C1233 C1250 1.574 . S
C1233 C1252 1.368 . S
C1233 H1257 0.949 . S
H1234 C1238 0.949 . S
C1235 C1236 1.349 . S
C1235 C1237 1.327 . S
C1235 H1258 0.950 . S
C1236 C1235 1.349 . S
C1236 C1248 1.349 . S
C1237 C1235 1.327 . S
C1237 C1253 1.429 . S
C1237 H1259 0.950 . S
C1238 H1234 0.949 . S
C1238 C1246 1.574 . S
C1238 C1254 1.368 . S
H1239 C1247 0.950 . S
H1240 C1245 0.950 . S
H1241 C1246 0.949 . S
H1242 C1248 0.950 . S
H1243 C1249 0.950 . S
H1244 C1250 0.949 . S
C1245 H1240 0.950 . S
C1245 C1247 1.327 . S
C1245 C1251 1.429 . S
C1246 C1238 1.574 . S
C1246 H1241 0.949 . S
C1246 C1252 1.368 . S
C1247 C1231 1.349 . S
C1247 H1239 0.950 . S
C1247 C1245 1.327 . S
C1248 C1236 1.349 . S
C1248 H1242 0.950 . S
C1248 C1249 1.327 . S
C1249 H1243 0.950 . S
C1249 C1248 1.327 . S
C1249 C1253 1.429 . S
C1250 C1233 1.574 . S
C1250 H1244 0.949 . S
C1250 C1254 1.368 . S
C1251 C1232 1.429 . S
C1251 C1245 1.429 . S
C1251 C1252 1.523 . S
C1252 C1233 1.368 . S
C1252 C1246 1.368 . S
C1252 C1251 1.523 . S
C1253 C1237 1.429 . S
C1253 C1249 1.429 . S
C1253 C1254 1.523 . S
C1254 C1238 1.368 . S
C1254 C1250 1.368 . S
C1254 C1253 1.523 . S
H1255 C1230 0.950 . S
H1256 C1232 0.950 . S
H1257 C1233 0.949 . S
H1258 C1235 0.950 . S
H1259 C1237 0.950 . S
C1260 C1261 1.349 . S
C1260 C1262 1.327 . S
C1260 H1285 0.950 . S
C1261 C1260 1.349 . S
C1261 C1277 1.349 . S
C1262 C1260 1.327 . S
C1262 C1281 1.429 . S
C1262 H1286 0.950 . S
C1263 C1280 1.574 . S
C1263 C1282 1.368 . S
C1263 H1287 0.949 . S
H1264 C1268 0.949 . S
C1265 C1266 1.349 . S
C1265 C1267 1.327 . S
C1265 H1288 0.950 . S
C1266 C1265 1.349 . S
C1266 C1278 1.349 . S
C1267 C1265 1.327 . S
C1267 C1283 1.429 . S
C1267 H1289 0.950 . S
C1268 H1264 0.949 . S
C1268 C1276 1.574 . S
C1268 C1284 1.368 . S
H1269 C1277 0.950 . S
H1270 C1275 0.950 . S
H1271 C1276 0.949 . S
H1272 C1278 0.950 . S
H1273 C1279 0.950 . S
H1274 C1280 0.949 . S
C1275 H1270 0.950 . S
C1275 C1277 1.327 . S
C1275 C1281 1.429 . S
C1276 C1268 1.574 . S
C1276 H1271 0.949 . S
C1276 C1282 1.368 . S
C1277 C1261 1.349 . S
C1277 H1269 0.950 . S
C1277 C1275 1.327 . S
C1278 C1266 1.349 . S
C1278 H1272 0.950 . S
C1278 C1279 1.327 . S
C1279 H1273 0.950 . S
C1279 C1278 1.327 . S
C1279 C1283 1.429 . S
C1280 C1263 1.574 . S
C1280 H1274 0.949 . S
C1280 C1284 1.368 . S
C1281 C1262 1.429 . S
C1281 C1275 1.429 . S
C1281 C1282 1.523 . S
C1282 C1263 1.368 . S
C1282 C1276 1.368 . S
C1282 C1281 1.523 . S
C1283 C1267 1.429 . S
C1283 C1279 1.429 . S
C1283 C1284 1.523 . S
C1284 C1268 1.368 . S
C1284 C1280 1.368 . S
C1284 C1283 1.523 . S
H1285 C1260 0.950 . S
H1286 C1262 0.950 . S
H1287 C1263 0.949 . S
H1288 C1265 0.950 . S
H1289 C1267 0.950 . S
C1290 C1291 1.349 . S
C1290 C1292 1.327 . S
C1290 H1315 0.950 . S
C1291 C1290 1.349 . S
C1291 C1307 1.349 . S
C1292 C1290 1.327 . S
C1292 C1311 1.429 . S
C1292 H1316 0.950 . S
C1293 C1310 1.574 . S
C1293 C1312 1.368 . S
C1293 H1317 0.949 . S
H1294 C1298 0.949 . S
C1295 C1296 1.349 . S
C1295 C1297 1.327 . S
C1295 H1318 0.950 . S
C1296 C1295 1.349 . S
C1296 C1308 1.349 . S
C1297 C1295 1.327 . S
C1297 C1313 1.429 . S
C1297 H1319 0.950 . S
C1298 H1294 0.949 . S
C1298 C1306 1.574 . S
C1298 C1314 1.368 . S
H1299 C1307 0.950 . S
H1300 C1305 0.950 . S
H1301 C1306 0.949 . S
H1302 C1308 0.950 . S
H1303 C1309 0.950 . S
H1304 C1310 0.949 . S
C1305 H1300 0.950 . S
C1305 C1307 1.327 . S
C1305 C1311 1.429 . S
C1306 C1298 1.574 . S
C1306 H1301 0.949 . S
C1306 C1312 1.368 . S
C1307 C1291 1.349 . S
C1307 H1299 0.950 . S
C1307 C1305 1.327 . S
C1308 C1296 1.349 . S
C1308 H1302 0.950 . S
C1308 C1309 1.327 . S
C1309 H1303 0.950 . S
C1309 C1308 1.327 . S
C1309 C1313 1.429 . S
C1310 C1293 1.574 . S
C1310 H1304 0.949 . S
C1310 C1314 1.368 . S
C1311 C1292 1.429 . S
C1311 C1305 1.429 . S
C1311 C1312 1.523 . S
C1312 C1293 1.368 . S
C1312 C1306 1.368 . S
C1312 C1311 1.523 . S
C1313 C1297 1.429 . S
C1313 C1309 1.429 . S
C1313 C1314 1.523 . S
C1314 C1298 1.368 . S
C1314 C1310 1.368 . S
C1314 C1313 1.523 . S
H1315 C1290 0.950 . S
H1316 C1292 0.950 . S
H1317 C1293 0.949 . S
H1318 C1295 0.950 . S
H1319 C1297 0.950 . S
C1320 C1321 1.349 . S
C1320 C1322 1.327 . S
C1320 H1345 0.950 . S
C1321 C1320 1.349 . S
C1321 C1337 1.349 . S
C1322 C1320 1.327 . S
C1322 C1341 1.429 . S
C1322 H1346 0.950 . S
C1323 C1340 1.574 . S
C1323 C1342 1.368 . S
C1323 H1347 0.949 . S
H1324 C1328 0.949 . S
C1325 C1326 1.349 . S
C1325 C1327 1.327 . S
C1325 H1348 0.950 . S
C1326 C1325 1.349 . S
C1326 C1338 1.349 . S
C1327 C1325 1.327 . S
C1327 C1343 1.429 . S
C1327 H1349 0.950 . S
C1328 H1324 0.949 . S
C1328 C1336 1.574 . S
C1328 C1344 1.368 . S
H1329 C1337 0.950 . S
H1330 C1335 0.950 . S
H1331 C1336 0.949 . S
H1332 C1338 0.950 . S
H1333 C1339 0.950 . S
H1334 C1340 0.949 . S
C1335 H1330 0.950 . S
C1335 C1337 1.327 . S
C1335 C1341 1.429 . S
C1336 C1328 1.574 . S
C1336 H1331 0.949 . S
C1336 C1342 1.368 . S
C1337 C1321 1.349 . S
C1337 H1329 0.950 . S
C1337 C1335 1.327 . S
C1338 C1326 1.349 . S
C1338 H1332 0.950 . S
C1338 C1339 1.327 . S
C1339 H1333 0.950 . S
C1339 C1338 1.327 . S
C1339 C1343 1.429 . S
C1340 C1323 1.574 . S
C1340 H1334 0.949 . S
C1340 C1344 1.368 . S
C1341 C1322 1.429 . S
C1341 C1335 1.429 . S
C1341 C1342 1.523 . S
C1342 C1323 1.368 . S
C1342 C1336 1.368 . S
C1342 C1341 1.523 . S
C1343 C1327 1.429 . S
C1343 C1339 1.429 . S
C1343 C1344 1.523 . S
C1344 C1328 1.368 . S
C1344 C1340 1.368 . S
C1344 C1343 1.523 . S
H1345 C1320 0.950 . S
H1346 C1322 0.950 . S
H1347 C1323 0.949 . S
H1348 C1325 0.950 . S
H1349 C1327 0.950 . S
C1350 C1351 1.349 . S
C1350 C1352 1.327 . S
C1350 H1375 0.950 . S
C1351 C1350 1.349 . S
C1351 C1367 1.349 . S
C1352 C1350 1.327 . S
C1352 C1371 1.429 . S
C1352 H1376 0.950 . S
C1353 C1370 1.574 . S
C1353 C1372 1.368 . S
C1353 H1377 0.949 . S
H1354 C1358 0.949 . S
C1355 C1356 1.349 . S
C1355 C1357 1.327 . S
C1355 H1378 0.950 . S
C1356 C1355 1.349 . S
C1356 C1368 1.349 . S
C1357 C1355 1.327 . S
C1357 C1373 1.429 . S
C1357 H1379 0.950 . S
C1358 H1354 0.949 . S
C1358 C1366 1.574 . S
C1358 C1374 1.368 . S
H1359 C1367 0.950 . S
H1360 C1365 0.950 . S
H1361 C1366 0.949 . S
H1362 C1368 0.950 . S
H1363 C1369 0.950 . S
H1364 C1370 0.949 . S
C1365 H1360 0.950 . S
C1365 C1367 1.327 . S
C1365 C1371 1.429 . S
C1366 C1358 1.574 . S
C1366 H1361 0.949 . S
C1366 C1372 1.368 . S
C1367 C1351 1.349 . S
C1367 H1359 0.950 . S
C1367 C1365 1.327 . S
C1368 C1356 1.349 . S
C1368 H1362 0.950 . S
C1368 C1369 1.327 . S
C1369 H1363 0.950 . S
C1369 C1368 1.327 . S
C1369 C1373 1.429 . S
C1370 C1353 1.574 . S
C1370 H1364 0.949 . S
C1370 C1374 1.368 . S
C1371 C1352 1.429 . S
C1371 C1365 1.429 . S
C1371 C1372 1.523 . S
C1372 C1353 1.368 . S
C1372 C1366 1.368 . S
C1372 C1371 1.523 . S
C1373 C1357 1.429 . S
C1373 C1369 1.429 . S
C1373 C1374 1.523 . S
C1374 C1358 1.368 . S
C1374 C1370 1.368 . S
C1374 C1373 1.523 . S
H1375 C1350 0.950 . S
H1376 C1352 0.950 . S
H1377 C1353 0.949 . S
H1378 C1355 0.950 . S
H1379 C1357 0.950 . S
C1380 C1381 1.349 . S
C1380 C1382 1.327 . S
C1380 H1405 0.950 . S
C1381 C1380 1.349 . S
C1381 C1397 1.349 . S
C1382 C1380 1.327 . S
C1382 C1401 1.429 . S
C1382 H1406 0.950 . S
C1383 C1400 1.574 . S
C1383 C1402 1.368 . S
C1383 H1407 0.949 . S
H1384 C1388 0.949 . S
C1385 C1386 1.349 . S
C1385 C1387 1.327 . S
C1385 H1408 0.950 . S
C1386 C1385 1.349 . S
C1386 C1398 1.349 . S
C1387 C1385 1.327 . S
C1387 C1403 1.429 . S
C1387 H1409 0.950 . S
C1388 H1384 0.949 . S
C1388 C1396 1.574 . S
C1388 C1404 1.368 . S
H1389 C1397 0.950 . S
H1390 C1395 0.950 . S
H1391 C1396 0.949 . S
H1392 C1398 0.950 . S
H1393 C1399 0.950 . S
H1394 C1400 0.949 . S
C1395 H1390 0.950 . S
C1395 C1397 1.327 . S
C1395 C1401 1.429 . S
C1396 C1388 1.574 . S
C1396 H1391 0.949 . S
C1396 C1402 1.368 . S
C1397 C1381 1.349 . S
C1397 H1389 0.950 . S
C1397 C1395 1.327 . S
C1398 C1386 1.349 . S
C1398 H1392 0.950 . S
C1398 C1399 1.327 . S
C1399 H1393 0.950 . S
C1399 C1398 1.327 . S
C1399 C1403 1.429 . S
C1400 C1383 1.574 . S
C1400 H1394 0.949 . S
C1400 C1404 1.368 . S
C1401 C1382 1.429 . S
C1401 C1395 1.429 . S
C1401 C1402 1.523 . S
C1402 C1383 1.368 . S
C1402 C1396 1.368 . S
C1402 C1401 1.523 . S
C1403 C1387 1.429 . S
C1403 C1399 1.429 . S
C1403 C1404 1.523 . S
C1404 C1388 1.368 . S
C1404 C1400 1.368 . S
C1404 C1403 1.523 . S
H1405 C1380 0.950 . S
H1406 C1382 0.950 . S
H1407 C1383 0.949 . S
H1408 C1385 0.950 . S
H1409 C1387 0.950 . S
C1410 C1411 1.349 . S
C1410 C1412 1.327 . S
C1410 H1435 0.950 . S
C1411 C1410 1.349 . S
C1411 C1427 1.349 . S
C1412 C1410 1.327 . S
C1412 C1431 1.429 . S
C1412 H1436 0.950 . S
C1413 C1430 1.574 . S
C1413 C1432 1.368 . S
C1413 H1437 0.949 . S
H1414 C1418 0.949 . S
C1415 C1416 1.349 . S
C1415 C1417 1.327 . S
C1415 H1438 0.950 . S
C1416 C1415 1.349 . S
C1416 C1428 1.349 . S
C1417 C1415 1.327 . S
C1417 C1433 1.429 . S
C1417 H1439 0.950 . S
C1418 H1414 0.949 . S
C1418 C1426 1.574 . S
C1418 C1434 1.368 . S
H1419 C1427 0.950 . S
H1420 C1425 0.950 . S
H1421 C1426 0.949 . S
H1422 C1428 0.950 . S
H1423 C1429 0.950 . S
H1424 C1430 0.949 . S
C1425 H1420 0.950 . S
C1425 C1427 1.327 . S
C1425 C1431 1.429 . S
C1426 C1418 1.574 . S
C1426 H1421 0.949 . S
C1426 C1432 1.368 . S
C1427 C1411 1.349 . S
C1427 H1419 0.950 . S
C1427 C1425 1.327 . S
C1428 C1416 1.349 . S
C1428 H1422 0.950 . S
C1428 C1429 1.327 . S
C1429 H1423 0.950 . S
C1429 C1428 1.327 . S
C1429 C1433 1.429 . S
C1430 C1413 1.574 . S
C1430 H1424 0.949 . S
C1430 C1434 1.368 . S
C1431 C1412 1.429 . S
C1431 C1425 1.429 . S
C1431 C1432 1.523 . S
C1432 C1413 1.368 . S
C1432 C1426 1.368 . S
C1432 C1431 1.523 . S
C1433 C1417 1.429 . S
C1433 C1429 1.429 . S
C1433 C1434 1.523 . S
C1434 C1418 1.368 . S
C1434 C1430 1.368 . S
C1434 C1433 1.523 . S
H1435 C1410 0.950 . S
H1436 C1412 0.950 . S
H1437 C1413 0.949 . S
H1438 C1415 0.950 . S
H1439 C1417 0.950 . S
C361 C76 0.624 . S
C366 N6 0.635 . S
C391 N96 0.726 . S
C396 C46 0.725 . S
C421 N66 0.635 . S
C426 C136 0.624 . S
C451 C106 0.725 . S
C456 N156 0.726 . S
C481 C16 0.624 . S
C486 N126 0.635 . S
C511 N36 0.726 . S
C516 C166 0.725 . S
C541 C327 0.623 . S
C546 N194 0.634 . S
C571 N216 0.634 . S
C576 C346 0.623 . S
C601 N254 0.634 . S
C606 C207 0.623 . S
C631 N276 0.635 . S
C636 C226 0.624 . S
C661 N314 0.634 . S
C666 C267 0.623 . S
C691 C286 0.624 . S
C696 N336 0.635 . S
C721 C91 1.717 . S
C726 C1 1.702 . S
C751 C31 1.717 . S
C756 C121 1.702 . S
C781 C61 1.702 . S
C786 C151 1.717 . S
C811 C190 1.703 . S
C816 C271 1.703 . S
C841 C211 1.703 . S
C846 C310 1.703 . S
C871 C250 1.702 . S
C876 C331 1.702 . S
C901 C220 1.969 . S
C906 C10 1.969 . S
C931 C40 1.912 . S
C936 C241 1.970 . S
C961 C280 1.969 . S
C966 C70 1.969 . S
C991 C100 1.912 . S
C996 C301 1.970 . S
C1021 C130 1.969 . S
C1026 C340 1.969 . S
C1051 C181 1.970 . S
C1056 C160 1.912 . S
C1081 C87 1.121 . S
C1086 N14 1.098 . S
C1111 C57 1.019 . S
C1116 N104 1.024 . S
C1141 N74 1.098 . S
C1146 C147 1.121 . S
C1171 C117 1.019 . S
C1176 N164 1.024 . S
C1201 C27 1.121 . S
C1206 N134 1.098 . S
C1231 N44 1.024 . S
C1236 C177 1.019 . S
C1261 C316 1.122 . S
C1266 N186 1.098 . S
C1291 N224 1.097 . S
C1296 C357 1.120 . S
C1321 N246 1.098 . S
C1326 C196 1.121 . S
C1351 C237 1.120 . S
C1356 N284 1.097 . S
C1381 N306 1.098 . S
C1386 C256 1.122 . S
C1411 N344 1.097 . S
C1416 C297 1.120 . S
