# Generated by pormake.
# Topology smq, (6)-cn, num edge types: 1
# Building blocks:
#     Node 0, Type 0, BuildingBlock: IZENUY_clean_sbu_0, # of connection points: 6
#     Node 1, Type 0, BuildingBlock: IZENUY_clean_sbu_0, # of connection points: 6
#     Node 2, Type 0, BuildingBlock: IZENUY_clean_sbu_0, # of connection points: 6
#     Node 3, Type 0, BuildingBlock: IZENUY_clean_sbu_0, # of connection points: 6
#     Node 4, Type 0, BuildingBlock: IZENUY_clean_sbu_0, # of connection points: 6
#     Node 5, Type 0, BuildingBlock: IZENUY_clean_sbu_0, # of connection points: 6
#     Node 6, Type 0, BuildingBlock: IZENUY_clean_sbu_0, # of connection points: 6
#     Node 7, Type 0, BuildingBlock: IZENUY_clean_sbu_0, # of connection points: 6
#     Node 8, Type 0, BuildingBlock: IZENUY_clean_sbu_0, # of connection points: 6
#     Node 9, Type 0, BuildingBlock: IZENUY_clean_sbu_0, # of connection points: 6
#     Node 10, Type 0, BuildingBlock: IZENUY_clean_sbu_0, # of connection points: 6
#     Node 11, Type 0, BuildingBlock: IZENUY_clean_sbu_0, # of connection points: 6
#     Node 12, Type 0, BuildingBlock: IZENUY_clean_sbu_0, # of connection points: 6
#     Node 13, Type 0, BuildingBlock: IZENUY_clean_sbu_0, # of connection points: 6
#     Node 14, Type 0, BuildingBlock: IZENUY_clean_sbu_0, # of connection points: 6
#     Node 15, Type 0, BuildingBlock: IZENUY_clean_sbu_0, # of connection points: 6
#     Node 16, Type 0, BuildingBlock: IZENUY_clean_sbu_0, # of connection points: 6
#     Node 17, Type 0, BuildingBlock: IZENUY_clean_sbu_0, # of connection points: 6
#     Node 18, Type 0, BuildingBlock: IZENUY_clean_sbu_0, # of connection points: 6
#     Node 19, Type 0, BuildingBlock: IZENUY_clean_sbu_0, # of connection points: 6
#     Node 20, Type 0, BuildingBlock: IZENUY_clean_sbu_0, # of connection points: 6
#     Node 21, Type 0, BuildingBlock: IZENUY_clean_sbu_0, # of connection points: 6
#     Node 22, Type 0, BuildingBlock: IZENUY_clean_sbu_0, # of connection points: 6
#     Node 23, Type 0, BuildingBlock: IZENUY_clean_sbu_0, # of connection points: 6
#     Edge 24, Type (0, 0), BuildingBlock: XIVTED_clean_linker_0, # of connection points: 2
#     Edge 25, Type (0, 0), BuildingBlock: XIVTED_clean_linker_0, # of connection points: 2
#     Edge 26, Type (0, 0), BuildingBlock: XIVTED_clean_linker_0, # of connection points: 2
#     Edge 27, Type (0, 0), BuildingBlock: XIVTED_clean_linker_0, # of connection points: 2
#     Edge 28, Type (0, 0), BuildingBlock: XIVTED_clean_linker_0, # of connection points: 2
#     Edge 29, Type (0, 0), BuildingBlock: XIVTED_clean_linker_0, # of connection points: 2
#     Edge 30, Type (0, 0), BuildingBlock: XIVTED_clean_linker_0, # of connection points: 2
#     Edge 31, Type (0, 0), BuildingBlock: XIVTED_clean_linker_0, # of connection points: 2
#     Edge 32, Type (0, 0), BuildingBlock: XIVTED_clean_linker_0, # of connection points: 2
#     Edge 33, Type (0, 0), BuildingBlock: XIVTED_clean_linker_0, # of connection points: 2
#     Edge 34, Type (0, 0), BuildingBlock: XIVTED_clean_linker_0, # of connection points: 2
#     Edge 35, Type (0, 0), BuildingBlock: XIVTED_clean_linker_0, # of connection points: 2
#     Edge 36, Type (0, 0), BuildingBlock: XIVTED_clean_linker_0, # of connection points: 2
#     Edge 37, Type (0, 0), BuildingBlock: XIVTED_clean_linker_0, # of connection points: 2
#     Edge 38, Type (0, 0), BuildingBlock: XIVTED_clean_linker_0, # of connection points: 2
#     Edge 39, Type (0, 0), BuildingBlock: XIVTED_clean_linker_0, # of connection points: 2
#     Edge 40, Type (0, 0), BuildingBlock: XIVTED_clean_linker_0, # of connection points: 2
#     Edge 41, Type (0, 0), BuildingBlock: XIVTED_clean_linker_0, # of connection points: 2
#     Edge 42, Type (0, 0), BuildingBlock: XIVTED_clean_linker_0, # of connection points: 2
#     Edge 43, Type (0, 0), BuildingBlock: XIVTED_clean_linker_0, # of connection points: 2
#     Edge 44, Type (0, 0), BuildingBlock: XIVTED_clean_linker_0, # of connection points: 2
#     Edge 45, Type (0, 0), BuildingBlock: XIVTED_clean_linker_0, # of connection points: 2
#     Edge 46, Type (0, 0), BuildingBlock: XIVTED_clean_linker_0, # of connection points: 2
#     Edge 47, Type (0, 0), BuildingBlock: XIVTED_clean_linker_0, # of connection points: 2
#     Edge 48, Type (0, 0), BuildingBlock: XIVTED_clean_linker_0, # of connection points: 2
#     Edge 49, Type (0, 0), BuildingBlock: XIVTED_clean_linker_0, # of connection points: 2
#     Edge 50, Type (0, 0), BuildingBlock: XIVTED_clean_linker_0, # of connection points: 2
#     Edge 51, Type (0, 0), BuildingBlock: XIVTED_clean_linker_0, # of connection points: 2
#     Edge 52, Type (0, 0), BuildingBlock: XIVTED_clean_linker_0, # of connection points: 2
#     Edge 53, Type (0, 0), BuildingBlock: XIVTED_clean_linker_0, # of connection points: 2
#     Edge 54, Type (0, 0), BuildingBlock: XIVTED_clean_linker_0, # of connection points: 2
#     Edge 55, Type (0, 0), BuildingBlock: XIVTED_clean_linker_0, # of connection points: 2
#     Edge 56, Type (0, 0), BuildingBlock: XIVTED_clean_linker_0, # of connection points: 2
#     Edge 57, Type (0, 0), BuildingBlock: XIVTED_clean_linker_0, # of connection points: 2
#     Edge 58, Type (0, 0), BuildingBlock: XIVTED_clean_linker_0, # of connection points: 2
#     Edge 59, Type (0, 0), BuildingBlock: XIVTED_clean_linker_0, # of connection points: 2
#     Edge 60, Type (0, 0), BuildingBlock: XIVTED_clean_linker_0, # of connection points: 2
#     Edge 61, Type (0, 0), BuildingBlock: XIVTED_clean_linker_0, # of connection points: 2
#     Edge 62, Type (0, 0), BuildingBlock: XIVTED_clean_linker_0, # of connection points: 2
#     Edge 63, Type (0, 0), BuildingBlock: XIVTED_clean_linker_0, # of connection points: 2
#     Edge 64, Type (0, 0), BuildingBlock: XIVTED_clean_linker_0, # of connection points: 2
#     Edge 65, Type (0, 0), BuildingBlock: XIVTED_clean_linker_0, # of connection points: 2
#     Edge 66, Type (0, 0), BuildingBlock: XIVTED_clean_linker_0, # of connection points: 2
#     Edge 67, Type (0, 0), BuildingBlock: XIVTED_clean_linker_0, # of connection points: 2
#     Edge 68, Type (0, 0), BuildingBlock: XIVTED_clean_linker_0, # of connection points: 2
#     Edge 69, Type (0, 0), BuildingBlock: XIVTED_clean_linker_0, # of connection points: 2
#     Edge 70, Type (0, 0), BuildingBlock: XIVTED_clean_linker_0, # of connection points: 2
#     Edge 71, Type (0, 0), BuildingBlock: XIVTED_clean_linker_0, # of connection points: 2
#     Edge 72, Type (0, 0), BuildingBlock: XIVTED_clean_linker_0, # of connection points: 2
#     Edge 73, Type (0, 0), BuildingBlock: XIVTED_clean_linker_0, # of connection points: 2
#     Edge 74, Type (0, 0), BuildingBlock: XIVTED_clean_linker_0, # of connection points: 2
#     Edge 75, Type (0, 0), BuildingBlock: XIVTED_clean_linker_0, # of connection points: 2
#     Edge 76, Type (0, 0), BuildingBlock: XIVTED_clean_linker_0, # of connection points: 2
#     Edge 77, Type (0, 0), BuildingBlock: XIVTED_clean_linker_0, # of connection points: 2
#     Edge 78, Type (0, 0), BuildingBlock: XIVTED_clean_linker_0, # of connection points: 2
#     Edge 79, Type (0, 0), BuildingBlock: XIVTED_clean_linker_0, # of connection points: 2
#     Edge 80, Type (0, 0), BuildingBlock: XIVTED_clean_linker_0, # of connection points: 2
#     Edge 81, Type (0, 0), BuildingBlock: XIVTED_clean_linker_0, # of connection points: 2
#     Edge 82, Type (0, 0), BuildingBlock: XIVTED_clean_linker_0, # of connection points: 2
#     Edge 83, Type (0, 0), BuildingBlock: XIVTED_clean_linker_0, # of connection points: 2
#     Edge 84, Type (0, 0), BuildingBlock: XIVTED_clean_linker_0, # of connection points: 2
#     Edge 85, Type (0, 0), BuildingBlock: XIVTED_clean_linker_0, # of connection points: 2
#     Edge 86, Type (0, 0), BuildingBlock: XIVTED_clean_linker_0, # of connection points: 2
#     Edge 87, Type (0, 0), BuildingBlock: XIVTED_clean_linker_0, # of connection points: 2
#     Edge 88, Type (0, 0), BuildingBlock: XIVTED_clean_linker_0, # of connection points: 2
#     Edge 89, Type (0, 0), BuildingBlock: XIVTED_clean_linker_0, # of connection points: 2
#     Edge 90, Type (0, 0), BuildingBlock: XIVTED_clean_linker_0, # of connection points: 2
#     Edge 91, Type (0, 0), BuildingBlock: XIVTED_clean_linker_0, # of connection points: 2
#     Edge 92, Type (0, 0), BuildingBlock: XIVTED_clean_linker_0, # of connection points: 2
#     Edge 93, Type (0, 0), BuildingBlock: XIVTED_clean_linker_0, # of connection points: 2
#     Edge 94, Type (0, 0), BuildingBlock: XIVTED_clean_linker_0, # of connection points: 2
#     Edge 95, Type (0, 0), BuildingBlock: XIVTED_clean_linker_0, # of connection points: 2
# Relax obj value: 0.236
# Max RMSD: 0.213
# Mean RMSD: 0.213
data_MOF--net-smq--node1-IZENUY_clean_sbu_0--edge1-XIVTED_clean_linker_0
_symmetry_space_group_name_H-M    P1
_symmetry_Int_Tables_number       1
_symmetry_cell_setting            triclinic
loop_
_symmetry_equiv_pos_as_xyz
'x, y, z'
_cell_length_a     45.665703
_cell_length_b     45.648257
_cell_length_c     45.650565
_cell_angle_alpha  90.035288
_cell_angle_beta   89.905797
_cell_angle_gamma 90.02447
loop_
_atom_site_label
_atom_site_type_symbol
_atom_site_fract_x
_atom_site_fract_y
_atom_site_fract_z
_atom_type_partial_charge
Fe0 Fe 0.99327 0.16491 0.29564 0.0
Fe1 Fe 0.00645 0.16255 0.23018 0.0
O2 O 3e-05 0.18322 0.26219 0.0
Fe3 Fe 0.00046 0.22195 0.2607 0.0
O4 O 0.03047 0.22345 0.28668 0.0
O5 O 0.01062 0.19305 0.3184 0.0
O6 O 0.02881 0.14711 0.29421 0.0
C7 C 0.03722 0.13144 0.27315 0.0
C8 C 0.9535 0.20906 0.29968 0.0
O9 O 0.02352 0.13158 0.24912 0.0
C10 C 0.97123 0.20896 0.21027 0.0
O11 O 0.97406 0.13365 0.27866 0.0
O12 O 0.97055 0.14656 0.23256 0.0
O13 O 0.97264 0.22672 0.28981 0.0
O14 O 0.95781 0.18183 0.29906 0.0
C15 C 0.0467 0.20526 0.22197 0.0
O16 O 0.99032 0.18949 0.20549 0.0
O17 O 0.97055 0.22263 0.23434 0.0
C18 C 0.96033 0.13342 0.25452 0.0
O19 O 0.04259 0.1782 0.22592 0.0
O20 O 0.02814 0.22381 0.23127 0.0
C21 C 0.02979 0.21196 0.3118 0.0
Fe22 Fe 0.31041 0.4995 0.792 0.0
Fe23 Fe 0.30233 0.49346 0.7261 0.0
O24 O 0.28694 0.49671 0.76137 0.0
Fe25 Fe 0.2484 0.49694 0.76564 0.0
O26 O 0.24863 0.52203 0.79747 0.0
O27 O 0.295 0.53427 0.80215 0.0
O28 O 0.33874 0.5207 0.77239 0.0
C29 C 0.3359 0.53664 0.74977 0.0
C30 C 0.26533 0.46181 0.81144 0.0
O31 O 0.31895 0.52913 0.72931 0.0
C32 C 0.25871 0.45367 0.72174 0.0
O33 O 0.32736 0.46441 0.78392 0.0
O34 O 0.33585 0.47504 0.73805 0.0
O35 O 0.24965 0.46473 0.78887 0.0
O36 O 0.28603 0.47945 0.81682 0.0
C37 C 0.25339 0.52965 0.71616 0.0
O38 O 0.28603 0.45776 0.72163 0.0
O39 O 0.24168 0.47177 0.73441 0.0
C40 C 0.33983 0.45874 0.76002 0.0
O41 O 0.27189 0.51123 0.70706 0.0
O42 O 0.24468 0.52924 0.7424 0.0
C43 C 0.26834 0.5393 0.80688 0.0
Fe44 Fe 0.99569 0.77073 0.25985 0.0
Fe45 Fe -9e-05 0.82971 0.29256 0.0
O46 O 0.99582 0.80952 0.25973 0.0
Fe47 Fe 0.99156 0.82844 0.22638 0.0
O48 O 0.95556 0.81293 0.22134 0.0
O49 O 0.96983 0.76752 0.22879 0.0
O50 O 0.96403 0.77005 0.28378 0.0
C51 C 0.96175 0.7835 0.30785 0.0
C52 C 0.02814 0.7818 0.2109 0.0
O53 O 0.97995 0.80316 0.31511 0.0
C54 C 0.03645 0.85814 0.25193 0.0
O55 O 0.02115 0.76735 0.29109 0.0
O56 O 0.03475 0.81271 0.30015 0.0
O57 O 0.00851 0.8 0.20406 0.0
O58 O 0.02757 0.76925 0.23557 0.0
C59 C 0.95781 0.86177 0.26467 0.0
O60 O 0.02121 0.8595 0.27523 0.0
O61 O 0.02739 0.8441 0.23001 0.0
C62 C 0.03899 0.78554 0.30227 0.0
O63 O 0.96472 0.84774 0.28732 0.0
O64 O 0.97411 0.8607 0.24239 0.0
C65 C 0.95133 0.78574 0.21867 0.0
Fe66 Fe 0.68777 0.49407 0.78991 0.0
Fe67 Fe 0.69676 0.5014 0.72426 0.0
O68 O 0.7117 0.49797 0.75963 0.0
Fe69 Fe 0.75017 0.49894 0.7644 0.0
O70 O 0.75009 0.47335 0.79572 0.0
O71 O 0.70404 0.45946 0.79969 0.0
O72 O 0.66032 0.47269 0.76944 0.0
C73 C 0.66413 0.45694 0.7468 0.0
C74 C 0.73136 0.53262 0.81058 0.0
O75 O 0.68118 0.46516 0.72666 0.0
C76 C 0.73917 0.54285 0.72163 0.0
O77 O 0.67021 0.52899 0.78217 0.0
O78 O 0.66263 0.51877 0.73614 0.0
O79 O 0.74741 0.53056 0.78817 0.0
O80 O 0.71119 0.51424 0.81547 0.0
C81 C 0.74762 0.46753 0.71395 0.0
O82 O 0.71206 0.53763 0.72059 0.0
O83 O 0.75659 0.52502 0.734 0.0
C84 C 0.65884 0.53539 0.75792 0.0
O85 O 0.72797 0.48499 0.7054 0.0
O86 O 0.75569 0.46733 0.74039 0.0
C87 C 0.73083 0.45543 0.80483 0.0
Fe88 Fe 0.00057 0.83433 0.77028 0.0
Fe89 Fe -0.0009 0.7753 0.73839 0.0
O90 O -0.00183 0.81408 0.73745 0.0
Fe91 Fe 0.99505 0.83303 0.70379 0.0
O92 O 0.02998 0.85104 0.70956 0.0
O93 O 0.01927 0.86579 0.75379 0.0
O94 O 0.03626 0.81931 0.77812 0.0
C95 C 0.04093 0.79229 0.78148 0.0
C96 C 0.95714 0.86317 0.74135 0.0
O97 O 0.02364 0.77339 0.77054 0.0
C98 C 0.95676 0.78827 0.69442 0.0
O99 O 0.98235 0.80676 0.79271 0.0
O100 O 0.96648 0.77366 0.76153 0.0
O101 O 0.97374 0.86373 0.71908 0.0
O102 O 0.9648 0.84972 0.76413 0.0
C103 C 0.03415 0.78714 0.69102 0.0
O104 O 0.97475 0.7707 0.70635 0.0
O105 O 0.96043 0.81559 0.69601 0.0
C106 C 0.96422 0.78709 0.78565 0.0
O107 O 0.03177 0.77458 0.71556 0.0
O108 O 0.01536 0.80569 0.68269 0.0
C109 C 0.03645 0.86556 0.73207 0.0
Fe110 Fe 0.69127 0.50418 0.26869 0.0
Fe111 Fe 0.7472 0.49696 0.2323 0.0
O112 O 0.70837 0.49864 0.23451 0.0
Fe113 Fe 0.68646 0.495 0.20279 0.0
O114 O 0.67007 0.53091 0.20811 0.0
O115 O 0.65939 0.52359 0.25424 0.0
O116 O 0.70912 0.53926 0.27279 0.0
C117 C 0.73658 0.54196 0.27432 0.0
C118 C 0.65697 0.46123 0.24532 0.0
O119 O 0.75334 0.52281 0.26297 0.0
C120 C 0.72808 0.45348 0.19191 0.0
O121 O 0.71957 0.48553 0.2897 0.0
O122 O 0.7486 0.46546 0.25691 0.0
O123 O 0.65632 0.47562 0.22155 0.0
O124 O 0.67301 0.46932 0.26623 0.0
C125 C 0.73336 0.53083 0.18457 0.0
O126 O 0.74773 0.47077 0.20137 0.0
O127 O 0.70137 0.4593 0.19523 0.0
C128 C 0.73716 0.46558 0.28213 0.0
O129 O 0.74816 0.52835 0.2078 0.0
O130 O 0.71282 0.51316 0.17868 0.0
C131 C 0.65665 0.53829 0.23101 0.0
Fe132 Fe 0.99385 0.17132 0.76981 0.0
Fe133 Fe 0.00036 0.22606 0.73198 0.0
O134 O -0.00092 0.18747 0.73506 0.0
Fe135 Fe 0.00288 0.16466 0.70385 0.0
O136 O 0.96705 0.14844 0.71005 0.0
O137 O 0.97532 0.1386 0.756 0.0
O138 O 0.95833 0.18828 0.77327 0.0
C139 C 0.95475 0.21569 0.77343 0.0
C140 C 0.03789 0.13817 0.7468 0.0
O141 O 0.97384 0.23255 0.76207 0.0
C142 C 0.04409 0.20652 0.69205 0.0
O143 O 0.01133 0.20088 0.79047 0.0
O144 O 0.03161 0.2283 0.75664 0.0
O145 O 0.02264 0.13558 0.72369 0.0
O146 O 0.0293 0.15421 0.76761 0.0
C147 C 0.96736 0.21132 0.68406 0.0
O148 O 0.02677 0.2261 0.70152 0.0
O149 O 0.03845 0.17971 0.69532 0.0
C150 C 0.03075 0.21889 0.78256 0.0
O151 O 0.96949 0.22633 0.70718 0.0
O152 O 0.98435 0.19 0.67896 0.0
C153 C 0.95919 0.13667 0.73368 0.0
Fe154 Fe 0.30632 0.49507 0.20676 0.0
Fe155 Fe 0.29711 0.50257 0.27231 0.0
O156 O 0.28224 0.49938 0.23687 0.0
Fe157 Fe 0.2438 0.5009 0.23193 0.0
O158 O 0.24366 0.47489 0.20094 0.0
O159 O 0.28964 0.46065 0.19699 0.0
O160 O 0.33336 0.47338 0.22744 0.0
C161 C 0.3292 0.45767 0.25002 0.0
C162 C 0.26319 0.53381 0.18546 0.0
O163 O 0.31199 0.46603 0.26999 0.0
C164 C 0.25554 0.54482 0.27477 0.0
O165 O 0.32422 0.52984 0.21458 0.0
O166 O 0.33158 0.5192 0.2605 0.0
O167 O 0.24695 0.53218 0.20776 0.0
O168 O 0.28341 0.51541 0.18098 0.0
C169 C 0.2456 0.46979 0.28256 0.0
O170 O 0.28253 0.53906 0.27586 0.0
O171 O 0.23779 0.52742 0.26214 0.0
C172 C 0.33548 0.53604 0.23894 0.0
O173 O 0.26554 0.48688 0.29116 0.0
O174 O 0.23768 0.46961 0.25611 0.0
C175 C 0.26277 0.45664 0.19218 0.0
Fe176 Fe 0.27188 0.99513 0.24583 0.0
Fe177 Fe 0.30495 0.00196 0.18737 0.0
O178 O 0.27202 0.99621 0.2071 0.0
Fe179 Fe 0.23918 0.99105 0.18771 0.0
O180 O 0.21578 0.00685 0.21605 0.0
O181 O 0.24602 0.02557 0.24843 0.0
O182 O 0.30181 0.02211 0.24976 0.0
C183 C 0.31156 0.04112 0.2319 0.0
C184 C 0.23167 0.9501 0.22979 0.0
O185 O 0.31017 0.03706 0.20465 0.0
C186 C 0.27937 0.95875 0.15498 0.0
O187 O 0.29701 0.96445 0.24569 0.0
O188 O 0.3283 0.98342 0.21431 0.0
O189 O 0.2349 0.95467 0.20272 0.0
O190 O 0.24194 0.96805 0.24842 0.0
C191 C 0.26358 0.03661 0.15796 0.0
O192 O 0.30164 0.96662 0.16917 0.0
O193 O 0.25643 0.97418 0.1557 0.0
C194 C 0.32158 0.96416 0.23309 0.0
O195 O 0.28728 0.02211 0.15713 0.0
O196 O 0.24194 0.02728 0.17235 0.0
C197 C 0.22086 0.02419 0.23705 0.0
Fe198 Fe 0.50173 0.72283 0.67164 0.0
Fe199 Fe 0.49929 0.7576 0.72892 0.0
O200 O 0.49843 0.75659 0.69011 0.0
Fe201 Fe 0.49459 0.78916 0.66944 0.0
O202 O 0.47329 0.77192 0.6397 0.0
O203 O 0.46599 0.72718 0.65577 0.0
O204 O 0.48406 0.70148 0.70039 0.0
C205 C 0.46542 0.70929 0.71928 0.0
C206 C 0.53662 0.75996 0.63842 0.0
O207 O 0.46711 0.73403 0.73157 0.0
C208 C 0.53328 0.80508 0.7149 0.0
O209 O 0.53758 0.7168 0.68704 0.0
O210 O 0.52456 0.72599 0.73252 0.0
O211 O 0.52965 0.78317 0.65155 0.0
O212 O 0.51983 0.73804 0.63935 0.0
C213 C 0.45611 0.80004 0.71374 0.0
O214 O 0.53141 0.78108 0.72855 0.0
O215 O 0.51464 0.81199 0.6956 0.0
C216 C 0.54223 0.71463 0.71416 0.0
O217 O 0.47429 0.78935 0.73188 0.0
O218 O 0.45988 0.79717 0.68654 0.0
C219 C 0.45778 0.74887 0.64088 0.0
Fe220 Fe 0.72275 -0.00094 0.23841 0.0
Fe221 Fe 0.688 -0.00271 0.18045 0.0
O222 O 0.72162 -0.0003 0.19956 0.0
Fe223 Fe 0.75441 0.00297 0.17943 0.0
O224 O 0.77708 0.98447 0.20651 0.0
O225 O 0.74628 0.96669 0.23889 0.0
O226 O 0.69113 0.97399 0.24229 0.0
C227 C 0.67926 0.95686 0.22383 0.0
C228 C 0.76555 0.04189 0.22264 0.0
O229 O 0.67985 0.96244 0.19686 0.0
C230 C 0.71595 0.03827 0.14734 0.0
O231 O 0.69976 0.03138 0.24059 0.0
O232 O 0.66698 0.01733 0.2082 0.0
O233 O 0.76164 0.03841 0.19548 0.0
O234 O 0.75465 0.02391 0.24095 0.0
C235 C 0.72597 0.95982 0.14967 0.0
O236 O 0.6939 0.03255 0.16283 0.0
O237 O 0.73814 0.02185 0.14808 0.0
C238 C 0.67542 0.03481 0.22801 0.0
O239 O 0.70336 0.97605 0.14948 0.0
O240 O 0.74865 0.96762 0.16323 0.0
C241 C 0.77053 0.96557 0.2256 0.0
Fe242 Fe 0.50003 0.23872 0.72424 0.0
Fe243 Fe 0.49623 0.20612 0.66501 0.0
O244 O 0.50046 0.23886 0.68546 0.0
Fe245 Fe 0.50572 0.27213 0.66656 0.0
O246 O 0.5417 0.27632 0.68226 0.0
O247 O 0.52732 0.26855 0.72769 0.0
O248 O 0.53049 0.21333 0.72576 0.0
C249 C 0.53226 0.18926 0.71231 0.0
C250 C 0.4707 0.28965 0.71435 0.0
O251 O 0.51492 0.1829 0.69169 0.0
C252 C 0.46128 0.24758 0.63561 0.0
O253 O 0.47302 0.20882 0.72698 0.0
O254 O 0.46092 0.19896 0.68126 0.0
O255 O 0.48944 0.29519 0.69478 0.0
O256 O 0.46939 0.26445 0.72567 0.0
C257 C 0.5397 0.23371 0.63453 0.0
O258 O 0.47602 0.22396 0.63485 0.0
O259 O 0.46991 0.26918 0.65051 0.0
C260 C 0.4557 0.19754 0.70835 0.0
O261 O 0.53205 0.21093 0.64798 0.0
O262 O 0.52298 0.25561 0.63451 0.0
C263 C 0.54607 0.27832 0.70947 0.0
Fe264 Fe 0.30833 0.00102 0.81662 0.0
Fe265 Fe 0.2417 0.99632 0.81761 0.0
O266 O 0.27458 -0.00116 0.79751 0.0
Fe267 Fe 0.27371 -0.00083 0.75869 0.0
O268 O 0.29619 0.96637 0.75703 0.0
O269 O 0.32927 0.98133 0.7886 0.0
O270 O 0.30222 0.96569 0.83378 0.0
C271 C 0.27956 0.95925 0.84812 0.0
C272 C 0.31713 0.04128 0.77326 0.0
O273 O 0.25781 0.97635 0.84834 0.0
C274 C 0.22666 0.03393 0.77128 0.0
O275 O 0.29331 0.02156 0.84807 0.0
O276 O 0.24848 0.03154 0.83418 0.0
O277 O 0.30569 0.02367 0.75498 0.0
O278 O 0.31638 0.03607 0.80036 0.0
C279 C 0.22936 0.95775 0.77417 0.0
O280 O 0.21959 0.01573 0.79082 0.0
O281 O 0.25074 0.0319 0.75778 0.0
C282 C 0.27125 0.0384 0.84805 0.0
O283 O 0.233 0.96125 0.80135 0.0
O284 O 0.24142 0.97499 0.75593 0.0
C285 C 0.32063 0.96319 0.7695 0.0
Fe286 Fe 0.5015 0.78753 0.32732 0.0
Fe287 Fe 0.4928 0.72148 0.32374 0.0
O288 O 0.49701 0.75545 0.30592 0.0
Fe289 Fe 0.49631 0.75719 0.26724 0.0
O290 O 0.52294 0.78769 0.26511 0.0
O291 O 0.53659 0.79498 0.31085 0.0
O292 O 0.52183 0.76895 0.3568 0.0
C293 C 0.53739 0.74601 0.35471 0.0
C294 C 0.46464 0.8061 0.28143 0.0
O295 O 0.52891 0.72469 0.33933 0.0
C296 C 0.45173 0.71554 0.28132 0.0
O297 O 0.46596 0.78202 0.34469 0.0
O298 O 0.47535 0.73671 0.35646 0.0
O299 O 0.46525 0.782 0.26794 0.0
O300 O 0.48285 0.81178 0.30146 0.0
C301 C 0.52674 0.70647 0.27404 0.0
O302 O 0.45666 0.71679 0.30848 0.0
O303 O 0.46951 0.72695 0.2631 0.0
C304 C 0.45874 0.75877 0.35768 0.0
O305 O 0.50923 0.69982 0.29442 0.0
O306 O 0.52727 0.73212 0.26375 0.0
C307 C 0.54099 0.79786 0.28374 0.0
Fe308 Fe 0.72213 -0.00016 0.75724 0.0
Fe309 Fe 0.69118 -0.003 0.81724 0.0
O310 O 0.72364 -0.00129 0.796 0.0
Fe311 Fe 0.75775 -0.00064 0.81402 0.0
O312 O 0.76614 0.03484 0.79887 0.0
O313 O 0.75495 0.02351 0.75335 0.0
O314 O 0.70043 0.03301 0.7579 0.0
C315 C 0.6767 0.03616 0.7717 0.0
C316 C 0.76895 0.96385 0.76477 0.0
O317 O 0.66907 0.01826 0.79144 0.0
C318 C 0.72891 0.95732 0.84497 0.0
O319 O 0.6893 0.97628 0.75482 0.0
O320 O 0.68096 0.96278 0.80045 0.0
O321 O 0.77777 0.98069 0.78482 0.0
O322 O 0.74388 0.96668 0.7537 0.0
C323 C 0.7233 0.03667 0.848 0.0
O324 O 0.70755 0.97498 0.84685 0.0
O325 O 0.75092 0.96363 0.82957 0.0
C326 C 0.67842 0.95849 0.77331 0.0
O327 O 0.69964 0.03156 0.83489 0.0
O328 O 0.74412 0.01848 0.84662 0.0
C329 C 0.76802 0.03985 0.77177 0.0
Fe330 Fe 0.49992 0.20724 0.32883 0.0
Fe331 Fe 0.49293 0.27358 0.32695 0.0
O332 O 0.49622 0.23992 0.30832 0.0
Fe333 Fe 0.49516 0.23918 0.26954 0.0
O334 O 0.46298 0.21589 0.26997 0.0
O335 O 0.47945 0.18465 0.30274 0.0
O336 O 0.46493 0.21343 0.34691 0.0
C337 C 0.45816 0.23665 0.36012 0.0
C338 C 0.53807 0.19627 0.2842 0.0
O339 O 0.47534 0.25824 0.35941 0.0
C340 C 0.5289 0.2875 0.27918 0.0
O341 O 0.52165 0.22436 0.35839 0.0
O342 O 0.52875 0.26928 0.34248 0.0
O343 O 0.52 0.2074 0.26622 0.0
O344 O 0.53444 0.19892 0.31145 0.0
C345 C 0.452 0.2814 0.28486 0.0
O346 O 0.5102 0.29512 0.2981 0.0
O347 O 0.52737 0.26276 0.26687 0.0
C348 C 0.53693 0.24762 0.35742 0.0
O349 O 0.45691 0.27939 0.31194 0.0
O350 O 0.4699 0.27074 0.26634 0.0
C351 C 0.46074 0.19197 0.28366 0.0
Fe352 Fe 0.24175 0.263 0.00111 0.0
Fe353 Fe 0.17954 0.28867 -0.00247 0.0
O354 O 0.20336 0.25817 -0.00078 0.0
Fe355 Fe 0.18823 0.22264 -0.00061 0.0
O356 O 0.20313 0.21561 0.03516 0.0
O357 O 0.24786 0.23059 0.02484 0.0
O358 O 0.23855 0.28437 0.03448 0.0
C359 C 0.22273 0.3068 0.0376 0.0
C360 C 0.23919 0.21557 0.96514 0.0
O361 O 0.20306 0.31291 0.01913 0.0
C362 C 0.15553 0.2489 0.95728 0.0
O363 O 0.2418 0.2961 0.97771 0.0
O364 O 0.19583 0.30063 0.96362 0.0
O365 O 0.21949 0.20515 0.9815 0.0
O366 O 0.2477 0.24169 0.96788 0.0
C367 C 0.15103 0.25362 0.03645 0.0
O368 O 0.15176 0.26987 0.97513 0.0
O369 O 0.17289 0.22831 0.96331 0.0
C370 C 0.2227 0.30582 0.95992 0.0
O371 O 0.16234 0.27834 0.03185 0.0
O372 O 0.15419 0.23334 0.01784 0.0
C373 C 0.23005 0.21657 0.0411 0.0
Fe374 Fe 0.19759 0.77647 0.00243 0.0
Fe375 Fe 0.24852 0.73295 1e-05 0.0
O376 O 0.21031 0.74012 -0.0003 0.0
Fe377 Fe 0.1846 0.71124 -0.00308 0.0
O378 O 0.15778 0.73259 0.97549 0.0
O379 O 0.18052 0.77415 0.96698 0.0
O380 O 0.22918 0.7927 0.98384 0.0
C381 C 0.24674 0.78151 0.96561 0.0
C382 C 0.15802 0.74566 0.03791 0.0
O383 O 0.25438 0.75508 0.96744 0.0
C384 C 0.22784 0.68892 0.03511 0.0
O385 O 0.21425 0.78045 0.03793 0.0
O386 O 0.25756 0.76402 0.02471 0.0
O387 O 0.16805 0.72075 0.03181 0.0
O388 O 0.16348 0.76723 0.02146 0.0
C389 C 0.22596 0.69285 0.95787 0.0
O390 O 0.24514 0.71032 0.03244 0.0
O391 O 0.20693 0.68499 0.01735 0.0
C392 C 0.24137 0.77824 0.04241 0.0
O393 O 0.24599 0.70089 0.97543 0.0
O394 O 0.19962 0.6997 0.96231 0.0
C395 C 0.162 0.75507 0.95966 0.0
Fe396 Fe 0.7701 0.73852 0.50075 0.0
Fe397 Fe 0.80631 0.68156 0.49656 0.0
O398 O 0.77225 0.69976 0.50038 0.0
Fe399 Fe 0.74003 0.67883 0.50399 0.0
O400 O 0.71631 0.70574 0.48674 0.0
O401 O 0.74607 0.73895 0.46872 0.0
O402 O 0.80126 0.74381 0.47553 0.0
C403 C 0.81312 0.72628 0.45748 0.0
C404 C 0.72868 0.72089 0.54415 0.0
O405 O 0.81304 0.69907 0.46189 0.0
C406 C 0.77967 0.64828 0.5384 0.0
O407 O 0.79357 0.74042 0.53266 0.0
O408 O 0.82706 0.70946 0.51686 0.0
O409 O 0.7331 0.6939 0.53996 0.0
O410 O 0.73863 0.73975 0.52621 0.0
C411 C 0.7682 0.65073 0.45937 0.0
O412 O 0.80175 0.66322 0.53156 0.0
O413 O 0.75772 0.64771 0.5217 0.0
C414 C 0.8184 0.72853 0.53513 0.0
O415 O 0.7912 0.65064 0.47502 0.0
O416 O 0.7454 0.66356 0.46809 0.0
C417 C 0.72223 0.7249 0.46774 0.0
Fe418 Fe 0.8133 0.22526 0.99061 0.0
Fe419 Fe 0.75883 0.26349 -0.0027 0.0
O420 O 0.79744 0.25997 0.99618 0.0
Fe421 Fe 0.82059 0.29092 -0.0001 0.0
O422 O 0.83651 0.28493 0.96381 0.0
O423 O 0.84598 0.23889 0.97201 0.0
O424 O 0.79624 0.22223 0.95516 0.0
C425 C 0.76887 0.2219 0.95163 0.0
C426 C 0.84786 0.24708 0.03378 0.0
O427 O 0.75204 0.2337 0.97049 0.0
C428 C 0.77918 0.30286 0.04142 0.0
O429 O 0.78371 0.20483 0.00807 0.0
O430 O 0.75558 0.2382 0.02819 0.0
O431 O 0.84977 0.27072 0.01921 0.0
O432 O 0.83079 0.22688 0.02584 0.0
C433 C 0.77462 0.31132 0.96422 0.0
O434 O 0.75926 0.29381 0.02419 0.0
O435 O 0.80586 0.29902 0.03558 0.0
C436 C 0.76452 0.21206 0.02667 0.0
O437 O 0.75932 0.28842 0.96642 0.0
O438 O 0.79534 0.31636 0.9819 0.0
C439 C 0.84797 0.26118 0.95584 0.0
Fe440 Fe 0.22643 0.26196 0.49534 0.0
Fe441 Fe 0.25323 0.32303 0.48843 0.0
O442 O 0.2225 0.30056 0.49485 0.0
Fe443 Fe 0.18786 0.31688 0.50072 0.0
O444 O 0.18507 0.30049 0.53646 0.0
O445 O 0.19725 0.25593 0.52281 0.0
O446 O 0.25236 0.26348 0.52562 0.0
C447 C 0.2755 0.27866 0.52492 0.0
C448 C 0.17552 0.2684 0.46467 0.0
O449 O 0.27925 0.29811 0.50559 0.0
C450 C 0.20876 0.35108 0.45659 0.0
O451 O 0.2563 0.26132 0.46821 0.0
O452 O 0.25913 0.30681 0.45269 0.0
O453 O 0.16724 0.287 0.48352 0.0
O454 O 0.20121 0.2583 0.46495 0.0
C455 C 0.22636 0.35162 0.5336 0.0
O456 O 0.23272 0.35239 0.47035 0.0
O457 O 0.18863 0.3342 0.46489 0.0
C458 C 0.26476 0.27993 0.44933 0.0
O459 O 0.24923 0.33967 0.52392 0.0
O460 O 0.20247 0.34955 0.51961 0.0
C461 C 0.18641 0.27344 0.54156 0.0
Fe462 Fe 0.81236 0.70773 0.99597 0.0
Fe463 Fe 0.80123 0.77326 0.00248 0.0
O464 O 0.78754 0.7373 -0.00084 0.0
Fe465 Fe 0.74921 0.73123 -0.0007 0.0
O466 O 0.75177 0.70823 0.03158 0.0
O467 O 0.78923 0.68188 0.01624 0.0
O468 O 0.82902 0.71635 0.03097 0.0
C469 C 0.83928 0.74102 0.03767 0.0
C470 C 0.77051 0.69095 0.95689 0.0
O471 O 0.83504 0.76277 0.02116 0.0
C472 C 0.75219 0.78047 0.96599 0.0
O473 O 0.83973 0.7286 0.97477 0.0
O474 O 0.81826 0.77098 0.96687 0.0
O475 O 0.75081 0.69927 0.97467 0.0
O476 O 0.79704 0.69708 0.9612 0.0
C477 C 0.75737 0.77547 0.04234 0.0
O478 O 0.77001 0.7907 0.98447 0.0
O479 O 0.74436 0.75398 0.96685 0.0
C480 C 0.8361 0.75134 0.95918 0.0
O481 O 0.78461 0.77701 0.03813 0.0
O482 O 0.74095 0.76227 0.02416 0.0
C483 C 0.76852 0.68638 0.03419 0.0
Fe484 Fe 0.77262 0.25775 0.49794 0.0
Fe485 Fe 0.80811 0.31519 0.49537 0.0
O486 O 0.77449 0.29653 0.50038 0.0
Fe487 Fe 0.74254 0.31683 0.50804 0.0
O488 O 0.73818 0.29863 0.54296 0.0
O489 O 0.74289 0.25414 0.52518 0.0
O490 O 0.79828 0.25371 0.52789 0.0
C491 C 0.82306 0.26585 0.52932 0.0
C492 C 0.7226 0.27318 0.46943 0.0
O493 O 0.83024 0.28617 0.51186 0.0
C494 C 0.76721 0.34924 0.46424 0.0
O495 O 0.8019 0.25464 0.47023 0.0
O496 O 0.81238 0.3003 0.45906 0.0
O497 O 0.71787 0.29121 0.4899 0.0
O498 O 0.74652 0.25941 0.46782 0.0
C499 C 0.78521 0.34646 0.54088 0.0
O500 O 0.7916 0.34744 0.47743 0.0
O501 O 0.74517 0.33545 0.47346 0.0
C502 C 0.81243 0.27349 0.45268 0.0
O503 O 0.80626 0.33121 0.53181 0.0
O504 O 0.76116 0.34667 0.52731 0.0
C505 C 0.73378 0.2714 0.54506 0.0
Fe506 Fe 0.25438 0.67837 0.49671 0.0
Fe507 Fe 0.224 0.73821 0.49815 0.0
O508 O 0.22214 0.69941 0.49869 0.0
Fe509 Fe 0.18791 0.68121 0.50111 0.0
O510 O 0.20197 0.64948 0.52179 0.0
O511 O 0.24695 0.66247 0.5322 0.0
O512 O 0.27711 0.70494 0.51585 0.0
C513 C 0.27052 0.72528 0.53339 0.0
C514 C 0.21586 0.64878 0.45961 0.0
O515 O 0.24686 0.73936 0.53087 0.0
C516 C 0.17679 0.72788 0.46252 0.0
O517 O 0.26371 0.69373 0.46144 0.0
O518 O 0.25651 0.73973 0.47395 0.0
O519 O 0.19357 0.6637 0.46593 0.0
O520 O 0.23738 0.64783 0.47699 0.0
C521 C 0.18038 0.72527 0.54065 0.0
O522 O 0.20164 0.73966 0.46526 0.0
O523 O 0.16767 0.70956 0.48123 0.0
C524 C 0.26798 0.7207 0.45714 0.0
O525 O 0.19196 0.74303 0.52255 0.0
O526 O 0.18056 0.69806 0.53601 0.0
C527 C 0.22387 0.64892 0.53879 0.0
H528 H 0.0584 0.26084 0.20207 0.0
H529 H 0.13482 0.20034 0.0579 0.0
H530 H 0.08353 0.17043 0.18984 0.0
H531 H 0.13402 0.29252 0.07925 0.0
H532 H 0.11397 0.18957 0.10577 0.0
H533 H 0.08579 0.27373 0.15781 0.0
C534 C 0.07009 0.24378 0.19044 0.0
C535 C 0.06824 0.21441 0.19948 0.0
C536 C 0.11833 0.21217 0.10003 0.0
C537 C 0.09909 0.22898 0.14859 0.0
C538 C 0.12993 0.21839 0.07252 0.0
C539 C 0.13591 0.24743 0.06441 0.0
C540 C 0.11231 0.23514 0.11959 0.0
C541 C 0.12954 0.26984 0.08454 0.0
C542 C 0.08561 0.25116 0.1651 0.0
C543 C 0.084 0.1933 0.18358 0.0
N544 N 0.11792 0.26323 0.11119 0.0
N545 N 0.09837 0.20093 0.15869 0.0
H546 H 0.25088 0.58939 0.71658 0.0
H547 H 0.19131 0.59997 0.55192 0.0
H548 H 0.22689 0.5135 0.6658 0.0
H549 H 0.25334 0.66083 0.58899 0.0
H550 H 0.19165 0.57247 0.59827 0.0
H551 H 0.23831 0.6207 0.6745 0.0
C552 C 0.24209 0.5795 0.69688 0.0
C553 C 0.23981 0.54902 0.69443 0.0
C554 C 0.205 0.59198 0.5962 0.0
C555 C 0.22569 0.58424 0.6466 0.0
C556 C 0.20485 0.60759 0.56984 0.0
C557 C 0.22279 0.63231 0.5665 0.0
C558 C 0.22265 0.60165 0.61948 0.0
C559 C 0.23972 0.64148 0.59046 0.0
C560 C 0.23523 0.59722 0.67287 0.0
C561 C 0.22888 0.53702 0.66836 0.0
N562 N 0.23924 0.62616 0.61594 0.0
N563 N 0.22231 0.55465 0.64536 0.0
H564 H 0.86137 0.69907 0.07495 0.0
H565 H 0.90747 0.81826 0.19458 0.0
H566 H 0.85217 0.79263 0.0644 0.0
H567 H 0.94495 0.7314 0.19329 0.0
H568 H 0.87787 0.80547 0.15215 0.0
H569 H 0.88482 0.70758 0.12266 0.0
C570 C 0.86443 0.72135 0.08256 0.0
C571 C 0.85515 0.7452 0.06551 0.0
C572 C 0.89239 0.78911 0.1613 0.0
C573 C 0.88106 0.75493 0.12009 0.0
C574 C 0.90919 0.79633 0.18564 0.0
C575 C 0.92916 0.77605 0.19718 0.0
C576 C 0.89545 0.76139 0.14836 0.0
C577 C 0.93005 0.7478 0.18492 0.0
C578 C 0.87766 0.72614 0.10977 0.0
C579 C 0.85934 0.77358 0.07655 0.0
N580 N 0.91367 0.74138 0.16088 0.0
N581 N 0.87187 0.77762 0.10314 0.0
H582 H 0.76269 0.48783 0.66074 0.0
H583 H 0.81228 0.33435 0.59309 0.0
H584 H 0.7689 0.41076 0.71498 0.0
H585 H 0.76508 0.40182 0.54697 0.0
H586 H 0.81099 0.36498 0.63773 0.0
H587 H 0.77996 0.45953 0.619 0.0
C588 C 0.76812 0.46493 0.66392 0.0
C589 C 0.76383 0.45139 0.69114 0.0
C590 C 0.80137 0.37311 0.61766 0.0
C591 C 0.78334 0.41878 0.64326 0.0
C592 C 0.80225 0.35584 0.59226 0.0
C593 C 0.78867 0.3657 0.56651 0.0
C594 C 0.78749 0.40054 0.61679 0.0
C595 C 0.77565 0.39343 0.56646 0.0
C596 C 0.77794 0.44881 0.64008 0.0
C597 C 0.77177 0.42186 0.69423 0.0
N598 N 0.77542 0.40986 0.59118 0.0
N599 N 0.78073 0.40626 0.67031 0.0
H600 H 0.04584 0.73947 0.80997 0.0
H601 H 0.16212 0.8032 0.92425 0.0
H602 H 0.08519 0.82531 0.80423 0.0
H603 H 0.12323 0.71737 0.93293 0.0
H604 H 0.13604 0.80994 0.87846 0.0
H605 H 0.0768 0.72883 0.85243 0.0
C606 C 0.06132 0.75588 0.8173 0.0
C607 C 0.0627 0.78345 0.80371 0.0
C608 C 0.13314 0.7896 0.8903 0.0
C609 C 0.09783 0.77155 0.85241 0.0
C610 C 0.14802 0.78573 0.91658 0.0
C611 C 0.14482 0.75968 0.9326 0.0
C612 C 0.11473 0.76733 0.87981 0.0
C613 C 0.12618 0.73789 0.92143 0.0
C614 C 0.07883 0.74986 0.84166 0.0
C615 C 0.08312 0.80389 0.8142 0.0
N616 N 0.11178 0.74222 0.89571 0.0
N617 N 0.09967 0.7976 0.83802 0.0
H618 H 0.78676 0.53761 0.3072 0.0
H619 H 0.73064 0.66283 0.41538 0.0
H620 H 0.712 0.59325 0.29187 0.0
H621 H 0.80499 0.60831 0.43588 0.0
H622 H 0.72798 0.64079 0.36734 0.0
H623 H 0.79875 0.56685 0.35073 0.0
C624 C 0.77334 0.55645 0.31252 0.0
C625 C 0.74817 0.56291 0.29608 0.0
C626 C 0.74493 0.63347 0.38219 0.0
C627 C 0.76149 0.59601 0.34589 0.0
C628 C 0.7463 0.64592 0.40988 0.0
C629 C 0.76761 0.63689 0.43005 0.0
C630 C 0.76488 0.61149 0.37432 0.0
C631 C 0.78795 0.6156 0.42113 0.0
C632 C 0.78005 0.57293 0.33752 0.0
C633 C 0.73142 0.58733 0.30409 0.0
N634 N 0.78589 0.60331 0.39394 0.0
N635 N 0.73822 0.60276 0.32853 0.0
H636 H 0.90592 0.18816 0.79358 0.0
H637 H 0.86969 0.30445 0.9194 0.0
H638 H 0.95321 0.26984 0.79998 0.0
H639 H 0.85689 0.21093 0.92573 0.0
H640 H 0.89109 0.2973 0.87022 0.0
H641 H 0.87623 0.20265 0.83552 0.0
C642 C 0.9097 0.20941 0.80348 0.0
C643 C 0.93245 0.22756 0.79366 0.0
C644 C 0.88349 0.27849 0.88253 0.0
C645 C 0.89879 0.24408 0.84195 0.0
C646 C 0.87145 0.28251 0.91051 0.0
C647 C 0.86197 0.2582 0.92683 0.0
C648 C 0.88524 0.25011 0.87074 0.0
C649 C 0.86438 0.23027 0.91421 0.0
C650 C 0.89285 0.2176 0.82751 0.0
C651 C 0.93603 0.25508 0.80704 0.0
N652 N 0.87565 0.22705 0.88697 0.0
N653 N 0.91965 0.26237 0.83091 0.0
H654 H 0.22354 0.41343 0.28092 0.0
H655 H 0.22382 0.4082 0.45301 0.0
H656 H 0.23087 0.48987 0.33599 0.0
H657 H 0.18486 0.33813 0.40316 0.0
H658 H 0.22386 0.4388 0.40938 0.0
H659 H 0.20589 0.38536 0.32366 0.0
C660 C 0.22072 0.4244 0.30178 0.0
C661 C 0.22918 0.45373 0.30523 0.0
C662 C 0.21482 0.41692 0.4079 0.0
C663 C 0.20946 0.42212 0.35375 0.0
C664 C 0.21486 0.39948 0.43284 0.0
C665 C 0.20436 0.37074 0.43151 0.0
C666 C 0.20503 0.40527 0.38113 0.0
C667 C 0.19298 0.36035 0.40492 0.0
C668 C 0.21076 0.40845 0.32612 0.0
C669 C 0.2252 0.46707 0.33261 0.0
N670 N 0.19414 0.37745 0.38048 0.0
N671 N 0.21603 0.4511 0.35583 0.0
H672 H 0.2173 0.07753 0.26591 0.0
H673 H 0.04491 0.07754 0.24967 0.0
H674 H 0.16614 0.00241 0.23993 0.0
H675 H 0.08842 0.14287 0.30218 0.0
H676 H 0.09007 0.04937 0.24784 0.0
H677 H 0.17171 0.10194 0.28188 0.0
C678 C 0.19661 0.06607 0.26402 0.0
C679 C 0.19531 0.03829 0.25095 0.0
C680 C 0.08981 0.06964 0.26018 0.0
C681 C 0.14362 0.06571 0.26895 0.0
C682 C 0.06399 0.0857 0.26118 0.0
C683 C 0.06307 0.11246 0.27606 0.0
C684 C 0.11523 0.08076 0.27351 0.0
C685 C 0.08835 0.12214 0.29064 0.0
C686 C 0.17068 0.07994 0.27308 0.0
C687 C 0.16806 0.0242 0.24912 0.0
N688 N 0.1137 0.10652 0.28857 0.0
N689 N 0.14338 0.03816 0.25768 0.0
H690 H 0.44333 0.69335 0.77342 0.0
H691 H 0.34026 0.57126 0.70139 0.0
H692 H 0.43528 0.67706 0.68075 0.0
H693 H 0.37012 0.56455 0.79088 0.0
H694 H 0.36777 0.61647 0.69607 0.0
H695 H 0.40907 0.65241 0.78276 0.0
C696 C 0.43389 0.68155 0.75514 0.0
C697 C 0.44203 0.68834 0.72631 0.0
C698 C 0.36838 0.60513 0.7169 0.0
C699 C 0.40335 0.64215 0.73663 0.0
C700 C 0.35271 0.57922 0.71995 0.0
C701 C 0.35324 0.56379 0.74649 0.0
C702 C 0.38471 0.61596 0.74056 0.0
C703 C 0.3695 0.57551 0.76987 0.0
C704 C 0.41465 0.65816 0.76043 0.0
C705 C 0.42958 0.67236 0.70329 0.0
N706 N 0.38471 0.60095 0.76635 0.0
N707 N 0.41093 0.65006 0.70894 0.0
H708 H 0.9132 0.86574 0.30567 0.0
H709 H 0.80693 0.93879 0.18819 0.0
H710 H 0.93796 0.89382 0.21874 0.0
H711 H 0.78698 0.94507 0.28033 0.0
H712 H 0.85136 0.91214 0.19976 0.0
H713 H 0.86447 0.88774 0.29806 0.0
C714 C 0.90859 0.87681 0.28522 0.0
C715 C 0.92975 0.87791 0.26279 0.0
C716 C 0.83728 0.91909 0.21757 0.0
C717 C 0.87419 0.90218 0.25382 0.0
C718 C 0.81175 0.93408 0.21094 0.0
C719 C 0.79346 0.94429 0.23335 0.0
C720 C 0.84496 0.91443 0.24693 0.0
C721 C 0.80061 0.93744 0.26247 0.0
C722 C 0.88078 0.88916 0.28087 0.0
C723 C 0.92249 0.8923 0.23667 0.0
N724 N 0.82617 0.92316 0.26854 0.0
N725 N 0.89537 0.9036 0.23289 0.0
H726 H 0.62503 0.43166 0.785 0.0
H727 H 0.59478 0.29533 0.67946 0.0
H728 H 0.66778 0.41786 0.70165 0.0
H729 H 0.54904 0.30876 0.76121 0.0
H730 H 0.62633 0.33683 0.69083 0.0
H731 H 0.60038 0.38436 0.77943 0.0
C732 C 0.62914 0.41878 0.76549 0.0
C733 C 0.64821 0.42894 0.74357 0.0
C734 C 0.60965 0.33054 0.70649 0.0
C735 C 0.62045 0.37468 0.73731 0.0
C736 C 0.59171 0.30673 0.70007 0.0
C737 C 0.56902 0.29884 0.71925 0.0
C738 C 0.60471 0.34678 0.73217 0.0
C739 C 0.56622 0.31418 0.74576 0.0
C740 C 0.61521 0.3917 0.76242 0.0
C741 C 0.65302 0.41112 0.71896 0.0
N742 N 0.58358 0.33775 0.75126 0.0
N743 N 0.63917 0.38496 0.71648 0.0
H744 H 0.20893 0.94956 0.71816 0.0
H745 H 0.079 0.87128 0.68972 0.0
H746 H 0.19342 0.92345 0.80779 0.0
H747 H 0.06029 0.89155 0.78026 0.0
H748 H 0.12877 0.89003 0.69644 0.0
H749 H 0.16275 0.92654 0.70416 0.0
C750 C 0.1962 0.93838 0.73479 0.0
C751 C 0.20502 0.93872 0.76428 0.0
C752 C 0.1136 0.8909 0.71464 0.0
C753 C 0.15207 0.91232 0.74837 0.0
C754 C 0.08516 0.88019 0.71083 0.0
C755 C 0.06529 0.88015 0.73437 0.0
C756 C 0.12221 0.90142 0.74226 0.0
C757 C 0.07467 0.89143 0.76138 0.0
C758 C 0.16979 0.92518 0.72673 0.0
C759 C 0.1875 0.92398 0.78484 0.0
N760 N 0.10247 0.90136 0.76461 0.0
N761 N 0.16168 0.91183 0.77657 0.0
H762 H 0.51264 0.64904 0.2741 0.0
H763 H 0.65951 0.58978 0.19979 0.0
H764 H 0.57887 0.70892 0.24285 0.0
H765 H 0.60632 0.54239 0.26194 0.0
H766 H 0.62606 0.63205 0.20458 0.0
H767 H 0.54218 0.60817 0.25759 0.0
C768 C 0.53347 0.65362 0.26365 0.0
C769 C 0.54365 0.68244 0.26046 0.0
C770 C 0.62171 0.61223 0.21686 0.0
C771 C 0.57779 0.63538 0.24152 0.0
C772 C 0.64057 0.58816 0.21403 0.0
C773 C 0.63563 0.56273 0.23064 0.0
C774 C 0.59759 0.61035 0.23591 0.0
C775 C 0.61104 0.56167 0.24894 0.0
C776 C 0.55032 0.63021 0.25418 0.0
C777 C 0.57043 0.68698 0.24598 0.0
N778 N 0.59299 0.58508 0.25104 0.0
N779 N 0.5869 0.66356 0.23733 0.0
H780 H 0.79389 0.08292 0.80379 0.0
H781 H 0.92159 0.119 0.68977 0.0
H782 H 0.79584 0.04265 0.71819 0.0
H783 H 0.93007 0.12348 0.78387 0.0
H784 H 0.87177 0.09921 0.69608 0.0
H785 H 0.83921 0.10853 0.79219 0.0
C786 C 0.80359 0.07983 0.78233 0.0
C787 C 0.7913 0.06022 0.7621 0.0
C788 C 0.88472 0.10449 0.71522 0.0
C789 C 0.84347 0.08931 0.74884 0.0
C790 C 0.91311 0.11563 0.71168 0.0
C791 C 0.93015 0.12256 0.73634 0.0
C792 C 0.87324 0.101 0.74356 0.0
C793 C 0.91797 0.11808 0.76422 0.0
C794 C 0.82958 0.09432 0.77581 0.0
C795 C 0.80466 0.05745 0.73447 0.0
N796 N 0.89028 0.10778 0.76703 0.0
N797 N 0.83033 0.07158 0.72873 0.0
H798 H 0.44725 0.31025 0.23229 0.0
H799 H 0.32501 0.41874 0.29524 0.0
H800 H 0.40511 0.30044 0.31646 0.0
H801 H 0.36932 0.43262 0.21273 0.0
H802 H 0.35076 0.37245 0.30068 0.0
H803 H 0.41461 0.35143 0.22153 0.0
C804 C 0.43076 0.31637 0.24825 0.0
C805 C 0.42913 0.30219 0.27547 0.0
C806 C 0.35488 0.38556 0.28135 0.0
C807 C 0.39212 0.34937 0.2635 0.0
C808 C 0.34027 0.41213 0.27828 0.0
C809 C 0.34529 0.42983 0.25366 0.0
C810 C 0.37476 0.37651 0.25968 0.0
C811 C 0.36502 0.41984 0.23224 0.0
C812 C 0.4123 0.34001 0.24219 0.0
C813 C 0.4074 0.31104 0.29536 0.0
N814 N 0.37917 0.39388 0.23581 0.0
N815 N 0.38997 0.33423 0.28909 0.0
H816 H 0.28224 0.18657 0.0423 0.0
H817 H 0.21813 0.07499 0.1605 0.0
H818 H 0.20123 0.19838 0.08961 0.0
H819 H 0.30302 0.06298 0.12039 0.0
H820 H 0.21385 0.12203 0.13639 0.0
H821 H 0.29334 0.14403 0.07334 0.0
C822 C 0.26722 0.1807 0.05973 0.0
C823 C 0.24067 0.19576 0.06331 0.0
C824 C 0.23349 0.10923 0.13278 0.0
C825 C 0.25286 0.14712 0.09828 0.0
C826 C 0.23587 0.08215 0.14643 0.0
C827 C 0.26084 0.06477 0.1422 0.0
C828 C 0.25613 0.11918 0.11448 0.0
C829 C 0.28326 0.07555 0.12404 0.0
C830 C 0.27341 0.15629 0.07722 0.0
C831 C 0.2218 0.18714 0.08595 0.0
N832 N 0.2803 0.10205 0.11065 0.0
N833 N 0.22812 0.16325 0.10233 0.0
H834 H 0.29993 0.80874 0.96162 0.0
H835 H 0.22992 0.93042 0.86279 0.0
H836 H 0.21695 0.79854 0.91813 0.0
H837 H 0.32406 0.92356 0.86808 0.0
H838 H 0.22546 0.88302 0.88648 0.0
H839 H 0.3111 0.85063 0.92935 0.0
C840 C 0.28461 0.81475 0.94455 0.0
C841 C 0.25762 0.80035 0.94214 0.0
C842 C 0.24714 0.89176 0.88242 0.0
C843 C 0.26954 0.84827 0.90638 0.0
C844 C 0.24971 0.91903 0.86921 0.0
C845 C 0.27741 0.93109 0.86378 0.0
C846 C 0.27242 0.8765 0.89081 0.0
C847 C 0.30229 0.91503 0.87208 0.0
C848 C 0.29084 0.83866 0.92638 0.0
C849 C 0.23802 0.80919 0.92042 0.0
N850 N 0.29923 0.88858 0.88556 0.0
N851 N 0.24417 0.83286 0.90362 0.0
H852 H 0.57221 0.69794 0.35995 0.0
H853 H 0.70253 0.77797 0.44587 0.0
H854 H 0.5678 0.78949 0.38351 0.0
H855 H 0.68953 0.68454 0.44077 0.0
H856 H 0.65808 0.78487 0.41575 0.0
H857 H 0.62005 0.69485 0.38272 0.0
C858 C 0.58121 0.7174 0.37011 0.0
C859 C 0.56573 0.74391 0.37017 0.0
C860 C 0.66537 0.76291 0.42094 0.0
C861 C 0.62098 0.74058 0.3962 0.0
C862 C 0.69079 0.75901 0.43778 0.0
C863 C 0.69961 0.73066 0.44561 0.0
C864 C 0.64929 0.73823 0.41179 0.0
C865 C 0.68351 0.70675 0.43508 0.0
C866 C 0.60866 0.71565 0.38305 0.0
C867 C 0.5788 0.76849 0.38339 0.0
N868 N 0.65919 0.71108 0.41884 0.0
N869 N 0.60574 0.76624 0.39597 0.0
H870 H 0.71383 0.19723 0.9495 0.0
H871 H 0.77522 0.06155 0.86275 0.0
H872 H 0.79771 0.19712 0.90566 0.0
H873 H 0.68193 0.07658 0.8665 0.0
H874 H 0.78337 0.10997 0.88341 0.0
H875 H 0.70024 0.15306 0.92193 0.0
C876 C 0.72907 0.18843 0.93357 0.0
C877 C 0.75716 0.20058 0.93026 0.0
C878 C 0.76109 0.10272 0.87974 0.0
C879 C 0.74204 0.14995 0.89945 0.0
C880 C 0.75639 0.0749 0.86829 0.0
C881 C 0.72783 0.06491 0.86313 0.0
C882 C 0.73709 0.12065 0.88657 0.0
C883 C 0.7043 0.08344 0.8703 0.0
C884 C 0.72136 0.16314 0.91802 0.0
C885 C 0.77603 0.1882 0.90934 0.0
N886 N 0.70943 0.11044 0.88193 0.0
N887 N 0.76834 0.16328 0.89517 0.0
H888 H 0.29643 0.31561 0.41291 0.0
H889 H 0.41558 0.1949 0.36987 0.0
H890 H 0.28735 0.22511 0.43907 0.0
H891 H 0.43314 0.28751 0.37838 0.0
H892 H 0.36507 0.2038 0.38645 0.0
H893 H 0.34236 0.30335 0.38859 0.0
C894 C 0.30374 0.29304 0.41309 0.0
C895 C 0.28827 0.27149 0.42864 0.0
C896 C 0.38015 0.22204 0.38472 0.0
C897 C 0.34106 0.25744 0.40108 0.0
C898 C 0.40895 0.21698 0.3755 0.0
C899 C 0.42873 0.24043 0.37307 0.0
C900 C 0.37107 0.25078 0.39092 0.0
C901 C 0.41885 0.26867 0.38025 0.0
C902 C 0.33012 0.28612 0.3994 0.0
C903 C 0.29878 0.24253 0.42774 0.0
N904 N 0.39073 0.27304 0.38866 0.0
N905 N 0.32476 0.23639 0.41452 0.0
H906 H 0.77954 0.78905 0.0955 0.0
H907 H 0.68536 0.93599 0.11135 0.0
H908 H 0.70807 0.80933 0.03733 0.0
H909 H 0.76652 0.91703 0.15594 0.0
H910 H 0.68702 0.88669 0.08933 0.0
H911 H 0.76711 0.83172 0.12501 0.0
C912 C 0.76074 0.80219 0.0894 0.0
C913 C 0.74493 0.7959 0.06393 0.0
C914 C 0.70432 0.89347 0.10404 0.0
C915 C 0.73119 0.84547 0.09687 0.0
C916 C 0.70349 0.92158 0.11644 0.0
C917 C 0.7261 0.93088 0.1351 0.0
C918 C 0.72769 0.87459 0.11079 0.0
C919 C 0.74884 0.91117 0.14129 0.0
C920 C 0.75378 0.82671 0.10606 0.0
C921 C 0.72074 0.81351 0.05692 0.0
N922 N 0.74903 0.88413 0.12919 0.0
N923 N 0.7149 0.83796 0.07302 0.0
H924 H 0.56705 0.28419 0.61938 0.0
H925 H 0.70847 0.21675 0.54891 0.0
H926 H 0.5806 0.1906 0.62265 0.0
H927 H 0.70572 0.3032 0.58738 0.0
H928 H 0.66231 0.20499 0.57378 0.0
H929 H 0.61729 0.29056 0.60337 0.0
C930 C 0.58049 0.26486 0.61637 0.0
C931 C 0.56945 0.23675 0.6221 0.0
C932 C 0.67222 0.22628 0.57717 0.0
C933 C 0.62744 0.24406 0.60392 0.0
C934 C 0.6986 0.23303 0.56309 0.0
C935 C 0.71071 0.26127 0.56552 0.0
C936 C 0.65782 0.24806 0.59339 0.0
C937 C 0.69699 0.28135 0.58436 0.0
C938 C 0.60936 0.2686 0.60758 0.0
C939 C 0.5882 0.21264 0.61824 0.0
N940 N 0.67102 0.27454 0.59708 0.0
N941 N 0.61633 0.21681 0.60908 0.0
H942 H 0.29506 0.77912 0.54541 0.0
H943 H 0.42449 0.70026 0.63271 0.0
H944 H 0.29721 0.68795 0.56967 0.0
H945 H 0.42621 0.793 0.61414 0.0
H946 H 0.37619 0.69714 0.61144 0.0
H947 H 0.3405 0.78701 0.57359 0.0
C948 C 0.3046 0.76107 0.55746 0.0
C949 C 0.29253 0.73289 0.55547 0.0
C950 C 0.38696 0.71827 0.6119 0.0
C951 C 0.34429 0.7414 0.58677 0.0
C952 C 0.41475 0.72005 0.62401 0.0
C953 C 0.42954 0.74693 0.6252 0.0
C954 C 0.37359 0.74353 0.60059 0.0
C955 C 0.41567 0.77176 0.61341 0.0
C956 C 0.33062 0.76544 0.57318 0.0
C957 C 0.30587 0.71001 0.57082 0.0
N958 N 0.3884 0.76948 0.60152 0.0
N959 N 0.33107 0.71472 0.58559 0.0
H960 H 0.8409 0.80119 0.92667 0.0
H961 H 0.94162 0.73281 0.80037 0.0
H962 H 0.87021 0.71129 0.9296 0.0
H963 H 0.93571 0.82494 0.82054 0.0
H964 H 0.90816 0.7225 0.84172 0.0
H965 H 0.86855 0.8082 0.88165 0.0
C966 C 0.85324 0.7829 0.91791 0.0
C967 C 0.85357 0.75571 0.93221 0.0
C968 C 0.91407 0.74494 0.83677 0.0
C969 C 0.88512 0.76358 0.88026 0.0
C970 C 0.93287 0.7508 0.81314 0.0
C971 C 0.9414 0.77972 0.80724 0.0
C972 C 0.90354 0.76827 0.85397 0.0
C973 C 0.92977 0.80231 0.82449 0.0
C974 C 0.869 0.78692 0.89214 0.0
C975 C 0.86974 0.73275 0.91953 0.0
N976 N 0.91149 0.79612 0.84701 0.0
N977 N 0.88494 0.73719 0.89422 0.0
H978 H 0.71666 0.3637 0.43658 0.0
H979 H 0.79133 0.44593 0.30061 0.0
H980 H 0.81043 0.37413 0.42984 0.0
H981 H 0.69853 0.43625 0.3149 0.0
H982 H 0.80038 0.41635 0.34503 0.0
H983 H 0.71099 0.38819 0.39001 0.0
C984 C 0.73614 0.37139 0.4254 0.0
C985 C 0.76408 0.36696 0.43731 0.0
C986 C 0.77809 0.42042 0.33811 0.0
C987 C 0.75772 0.39509 0.38325 0.0
C988 C 0.77298 0.43693 0.31267 0.0
C989 C 0.74417 0.44336 0.30428 0.0
C990 C 0.75414 0.41041 0.35482 0.0
C991 C 0.72106 0.43177 0.32075 0.0
C992 C 0.7329 0.38533 0.3986 0.0
C993 C 0.78846 0.37738 0.42159 0.0
N994 N 0.72654 0.41604 0.34521 0.0
N995 N 0.78474 0.39098 0.39527 0.0
H996 H 0.01456 0.24266 0.83424 0.0
H997 H 0.16798 0.21794 0.90762 0.0
H998 H 0.09047 0.2207 0.78252 0.0
H999 H 0.10457 0.27769 0.94446 0.0
H1000 H 0.13929 0.21619 0.86238 0.0
H1001 H 0.0465 0.25425 0.87565 0.0
C1002 C 0.03809 0.24087 0.83155 0.0
C1003 C 0.05011 0.23093 0.80511 0.0
C1004 C 0.13183 0.22984 0.88031 0.0
C1005 C 0.08655 0.24313 0.85241 0.0
C1006 C 0.14798 0.23062 0.90621 0.0
C1007 C 0.13841 0.24772 0.92993 0.0
C1008 C 0.10568 0.24584 0.87835 0.0
C1009 C 0.11262 0.26409 0.92676 0.0
C1010 C 0.05625 0.24743 0.8551 0.0
C1011 C 0.08057 0.22865 0.80257 0.0
N1012 N 0.09693 0.26246 0.90156 0.0
N1013 N 0.09784 0.2342 0.8262 0.0
H1014 H 0.28574 0.59128 0.29629 0.0
H1015 H 0.17166 0.63364 0.42143 0.0
H1016 H 0.20116 0.54914 0.30049 0.0
H1017 H 0.26563 0.63232 0.43175 0.0
H1018 H 0.17768 0.61314 0.3718 0.0
H1019 H 0.27304 0.61987 0.33957 0.0
C1020 C 0.26421 0.58853 0.30594 0.0
C1021 C 0.24469 0.5674 0.29517 0.0
C1022 C 0.19683 0.61738 0.38512 0.0
C1023 C 0.23025 0.59978 0.34485 0.0
C1024 C 0.19346 0.62887 0.41336 0.0
C1025 C 0.21818 0.63429 0.43083 0.0
C1026 C 0.22511 0.61218 0.37423 0.0
C1027 C 0.24594 0.62807 0.41926 0.0
C1028 C 0.25708 0.60469 0.33073 0.0
C1029 C 0.21692 0.56507 0.30827 0.0
N1030 N 0.24864 0.61756 0.39166 0.0
N1031 N 0.21062 0.58077 0.33285 0.0
H1032 H 0.86124 0.19496 0.05917 0.0
H1033 H 0.94421 0.26169 0.19779 0.0
H1034 H 0.87611 0.288 0.06778 0.0
H1035 H 0.95264 0.17235 0.16796 0.0
H1036 H 0.91359 0.27231 0.15457 0.0
H1037 H 0.88946 0.18679 0.10346 0.0
C1038 C 0.87058 0.21371 0.07033 0.0
C1039 C 0.86653 0.24219 0.05965 0.0
C1040 C 0.9222 0.25044 0.15767 0.0
C1041 C 0.89871 0.23297 0.11073 0.0
C1042 C 0.93941 0.24435 0.18232 0.0
C1043 C 0.95106 0.21619 0.18623 0.0
C1044 C 0.91637 0.22801 0.13736 0.0
C1045 C 0.94435 0.19445 0.1656 0.0
C1046 C 0.88671 0.20902 0.09565 0.0
C1047 C 0.87907 0.26565 0.07513 0.0
N1048 N 0.92746 0.20081 0.14215 0.0
N1049 N 0.89458 0.26054 0.10007 0.0
H1050 H 0.28382 0.40281 0.70426 0.0
H1051 H 0.18347 0.38383 0.56197 0.0
H1052 H 0.20836 0.45755 0.68912 0.0
H1053 H 0.27196 0.35188 0.57165 0.0
H1054 H 0.18642 0.40466 0.61168 0.0
H1055 H 0.27231 0.37533 0.66 0.0
C1056 C 0.26441 0.4086 0.69191 0.0
C1057 C 0.2472 0.43263 0.70013 0.0
C1058 C 0.20508 0.39305 0.60275 0.0
C1059 C 0.23434 0.40186 0.64893 0.0
C1060 C 0.2035 0.38135 0.57438 0.0
C1061 C 0.22761 0.36637 0.56244 0.0
C1062 C 0.23074 0.38924 0.61926 0.0
C1063 C 0.2529 0.36349 0.57966 0.0
C1064 C 0.25798 0.3931 0.6665 0.0
C1065 C 0.22218 0.43911 0.68348 0.0
N1066 N 0.25372 0.37472 0.60708 0.0
N1067 N 0.21672 0.4241 0.65827 0.0
H1068 H 0.13176 0.79612 0.05564 0.0
H1069 H 0.05983 0.73059 0.20195 0.0
H1070 H 0.14237 0.70539 0.08024 0.0
H1071 H 0.04718 0.81818 0.16878 0.0
H1072 H 0.09307 0.72063 0.16035 0.0
H1073 H 0.10302 0.80424 0.09948 0.0
C1074 C 0.12789 0.77778 0.07019 0.0
C1075 C 0.13932 0.74996 0.06405 0.0
C1076 C 0.08304 0.74202 0.1624 0.0
C1077 C 0.10628 0.7592 0.11486 0.0
C1078 C 0.06427 0.74772 0.18615 0.0
C1079 C 0.05049 0.77509 0.18852 0.0
C1080 C 0.08805 0.76401 0.14135 0.0
C1081 C 0.05693 0.79659 0.16756 0.0
C1082 C 0.11148 0.78246 0.0954 0.0
C1083 C 0.13373 0.72715 0.08401 0.0
N1084 N 0.07507 0.79055 0.14493 0.0
N1085 N 0.11752 0.73226 0.10858 0.0
H1086 H 0.71012 0.59049 0.7013 0.0
H1087 H 0.82426 0.63273 0.57614 0.0
H1088 H 0.79354 0.54633 0.69581 0.0
H1089 H 0.73016 0.63238 0.56679 0.0
H1090 H 0.81844 0.61196 0.62574 0.0
H1091 H 0.72358 0.61993 0.65885 0.0
C1092 C 0.73155 0.58744 0.69154 0.0
C1093 C 0.7505 0.56554 0.70165 0.0
C1094 C 0.79923 0.61652 0.61263 0.0
C1095 C 0.76581 0.59886 0.65294 0.0
C1096 C 0.8025 0.62815 0.58442 0.0
C1097 C 0.77767 0.63387 0.56721 0.0
C1098 C 0.77098 0.61154 0.62372 0.0
C1099 C 0.74994 0.6279 0.57903 0.0
C1100 C 0.73914 0.60412 0.66725 0.0
C1101 C 0.77822 0.56285 0.68849 0.0
N1102 N 0.74738 0.61727 0.60656 0.0
N1103 N 0.78492 0.57901 0.66433 0.0
H1104 H 0.7785 0.90746 0.77971 0.0
H1105 H 0.93564 0.90334 0.7018 0.0
H1106 H 0.80926 0.97645 0.7232 0.0
H1107 H 0.91163 0.85326 0.77838 0.0
H1108 H 0.88596 0.92407 0.70086 0.0
H1109 H 0.82324 0.87968 0.76928 0.0
C1110 C 0.79429 0.91616 0.76426 0.0
C1111 C 0.79034 0.94387 0.75192 0.0
C1112 C 0.8917 0.90847 0.71777 0.0
C1113 C 0.84173 0.91311 0.74077 0.0
C1114 C 0.92 0.89679 0.71841 0.0
C1115 C 0.92793 0.87698 0.74051 0.0
C1116 C 0.8712 0.89983 0.73907 0.0
C1117 C 0.90671 0.8689 0.76127 0.0
C1118 C 0.81992 0.90059 0.75859 0.0
C1119 C 0.81159 0.95483 0.73267 0.0
N1120 N 0.87937 0.88034 0.76002 0.0
N1121 N 0.83665 0.93951 0.72786 0.0
H1122 H 0.55089 0.30309 0.22484 0.0
H1123 H 0.646 0.43216 0.29612 0.0
H1124 H 0.55814 0.32105 0.31728 0.0
H1125 H 0.62679 0.42966 0.20355 0.0
H1126 H 0.61852 0.38728 0.30269 0.0
H1127 H 0.58386 0.34493 0.21494 0.0
C1128 C 0.55988 0.31548 0.24296 0.0
C1129 C 0.55182 0.30889 0.27187 0.0
C1130 C 0.62015 0.39648 0.28088 0.0
C1131 C 0.58892 0.35628 0.26092 0.0
C1132 C 0.63588 0.42223 0.27711 0.0
C1133 C 0.63856 0.43487 0.24926 0.0
C1134 C 0.60686 0.38299 0.25666 0.0
C1135 C 0.62495 0.42082 0.22548 0.0
C1136 C 0.57837 0.33941 0.23735 0.0
C1137 C 0.56368 0.32562 0.29467 0.0
N1138 N 0.60962 0.39555 0.22971 0.0
N1139 N 0.5815 0.34851 0.2887 0.0
H1140 H 0.2032 0.04712 0.71731 0.0
H1141 H 0.07352 0.13668 0.79447 0.0
H1142 H 0.19869 0.06886 0.80906 0.0
H1143 H 0.06842 0.10745 0.70461 0.0
H1144 H 0.12247 0.11659 0.79773 0.0
H1145 H 0.15754 0.07494 0.70934 0.0
C1146 C 0.19314 0.05861 0.73549 0.0
C1147 C 0.20467 0.05609 0.76382 0.0
C1148 C 0.11072 0.11439 0.77726 0.0
C1149 C 0.15267 0.08697 0.75519 0.0
C1150 C 0.08257 0.12575 0.77544 0.0
C1151 C 0.06661 0.12345 0.74932 0.0
C1152 C 0.12326 0.10049 0.75284 0.0
C1153 C 0.0798 0.10933 0.72531 0.0
C1154 C 0.16697 0.07408 0.73107 0.0
C1155 C 0.19059 0.07063 0.78686 0.0
N1156 N 0.10742 0.0983 0.72764 0.0
N1157 N 0.16531 0.08525 0.78208 0.0
H1158 H 0.34979 0.56138 0.29074 0.0
H1159 H 0.44483 0.69142 0.22638 0.0
H1160 H 0.35747 0.57415 0.19732 0.0
H1161 H 0.40791 0.69088 0.31354 0.0
H1162 H 0.4142 0.64899 0.21393 0.0
H1163 H 0.37389 0.60806 0.29873 0.0
C1164 C 0.35683 0.57388 0.27183 0.0
C1165 C 0.35187 0.56364 0.24329 0.0
C1166 C 0.41254 0.65854 0.23559 0.0
C1167 C 0.37939 0.61761 0.25238 0.0
C1168 C 0.42987 0.68283 0.24269 0.0
C1169 C 0.42928 0.69445 0.27121 0.0
C1170 C 0.39479 0.64578 0.25726 0.0
C1171 C 0.40949 0.68239 0.29143 0.0
C1172 C 0.37033 0.60077 0.27644 0.0
C1173 C 0.36107 0.58115 0.21969 0.0
N1174 N 0.3934 0.65851 0.28419 0.0
N1175 N 0.37465 0.60727 0.22475 0.0
H1176 H 0.78971 0.08687 0.19167 0.0
H1177 H 0.9286 0.10425 0.29699 0.0
H1178 H 0.79685 0.0409 0.27399 0.0
H1179 H 0.92499 0.13212 0.20664 0.0
H1180 H 0.87816 0.08599 0.29259 0.0
H1181 H 0.8362 0.11099 0.20163 0.0
C1182 C 0.80082 0.08223 0.2121 0.0
C1183 C 0.7896 0.0615 0.2318 0.0
C1184 C 0.88857 0.09606 0.27379 0.0
C1185 C 0.84321 0.08863 0.2431 0.0
C1186 C 0.91738 0.10627 0.27621 0.0
C1187 C 0.93118 0.11951 0.25209 0.0
C1188 C 0.8735 0.09946 0.24719 0.0
C1189 C 0.91544 0.1219 0.2258 0.0
C1190 C 0.8275 0.09584 0.21769 0.0
C1191 C 0.80479 0.05663 0.25811 0.0
N1192 N 0.88752 0.11207 0.22412 0.0
N1193 N 0.8311 0.06978 0.26283 0.0
H1194 H 0.47793 0.34709 0.70155 0.0
H1195 H 0.34299 0.4089 0.79387 0.0
H1196 H 0.42303 0.28901 0.75234 0.0
H1197 H 0.3836 0.45238 0.72034 0.0
H1198 H 0.37597 0.36681 0.78617 0.0
H1199 H 0.44788 0.38797 0.71628 0.0
C1200 C 0.45947 0.34282 0.71586 0.0
C1201 C 0.45279 0.31434 0.72536 0.0
C1202 C 0.37762 0.3857 0.77192 0.0
C1203 C 0.41791 0.3617 0.74237 0.0
C1204 C 0.35903 0.40972 0.77638 0.0
C1205 C 0.3606 0.43411 0.75766 0.0
C1206 C 0.39808 0.3865 0.74894 0.0
C1207 C 0.38151 0.43402 0.73519 0.0
C1208 C 0.44226 0.36634 0.72428 0.0
C1209 C 0.42882 0.31056 0.74434 0.0
N1210 N 0.39938 0.41066 0.73153 0.0
N1211 N 0.41201 0.33405 0.75213 0.0
H1212 H 0.20005 0.94995 0.28096 0.0
H1213 H 0.07379 0.85735 0.20554 0.0
H1214 H 0.20887 0.90482 0.19826 0.0
H1215 H 0.06698 0.88784 0.29492 0.0
H1216 H 0.12392 0.87432 0.20383 0.0
H1217 H 0.15314 0.92526 0.28883 0.0
C1218 C 0.19256 0.93422 0.26485 0.0
C1219 C 0.20818 0.92974 0.23867 0.0
C1220 C 0.11159 0.87736 0.22388 0.0
C1221 C 0.15436 0.90204 0.2473 0.0
C1222 C 0.08273 0.8679 0.22482 0.0
C1223 C 0.06595 0.87138 0.25038 0.0
C1224 C 0.124 0.89071 0.24859 0.0
C1225 C 0.07902 0.88499 0.27467 0.0
C1226 C 0.16563 0.92037 0.26926 0.0
C1227 C 0.19736 0.90924 0.21855 0.0
N1228 N 0.10732 0.8943 0.27315 0.0
N1229 N 0.17093 0.8965 0.2231 0.0
H1230 H 0.586 0.69054 0.68148 0.0
H1231 H 0.6366 0.57248 0.80031 0.0
H1232 H 0.54875 0.68893 0.76848 0.0
H1233 H 0.64391 0.5615 0.70663 0.0
H1234 H 0.61131 0.61942 0.79209 0.0
H1235 H 0.61616 0.6485 0.69408 0.0
C1236 C 0.58441 0.68159 0.7034 0.0
C1237 C 0.56441 0.69302 0.72379 0.0
C1238 C 0.61846 0.60658 0.77345 0.0
C1239 C 0.59886 0.64453 0.73828 0.0
C1240 C 0.63276 0.57982 0.77809 0.0
C1241 C 0.64207 0.56286 0.75412 0.0
C1242 C 0.61406 0.61658 0.74469 0.0
C1243 C 0.6368 0.57356 0.7258 0.0
C1244 C 0.60156 0.65745 0.71052 0.0
C1245 C 0.56372 0.6807 0.75202 0.0
N1246 N 0.62331 0.5997 0.72192 0.0
N1247 N 0.58049 0.65685 0.75837 0.0
H1248 H 0.76302 0.90932 0.83529 0.0
H1249 H 0.71745 0.82648 0.97921 0.0
H1250 H 0.69322 0.94107 0.89072 0.0
H1251 H 0.75942 0.78255 0.90697 0.0
H1252 H 0.70681 0.86818 0.94721 0.0
H1253 H 0.76205 0.86281 0.86155 0.0
C1254 C 0.74753 0.90654 0.85307 0.0
C1255 C 0.72843 0.92927 0.8611 0.0
C1256 C 0.71765 0.84914 0.9381 0.0
C1257 C 0.72713 0.87594 0.89116 0.0
C1258 C 0.72352 0.82534 0.95628 0.0
C1259 C 0.73891 0.80111 0.94541 0.0
C1260 C 0.72811 0.84899 0.90917 0.0
C1261 C 0.74705 0.80074 0.91586 0.0
C1262 C 0.74678 0.87985 0.86784 0.0
C1263 C 0.70849 0.92422 0.88399 0.0
N1264 N 0.74201 0.82463 0.89881 0.0
N1265 N 0.70861 0.89819 0.89848 0.0
H1266 H 0.73509 0.21419 0.07993 0.0
H1267 H 0.74177 0.04103 0.09411 0.0
H1268 H 0.76109 0.15526 0.01061 0.0
H1269 H 0.69108 0.09257 0.155 0.0
H1270 H 0.74788 0.08395 0.0633 0.0
H1271 H 0.71714 0.1716 0.10813 0.0
C1272 C 0.73667 0.19245 0.07054 0.0
C1273 C 0.75017 0.18818 0.04321 0.0
C1274 C 0.73508 0.086 0.08319 0.0
C1275 C 0.72988 0.13983 0.07499 0.0
C1276 C 0.73163 0.06143 0.10078 0.0
C1277 C 0.71596 0.06334 0.12706 0.0
C1278 C 0.72333 0.11302 0.09216 0.0
C1279 C 0.7032 0.09029 0.13471 0.0
C1280 C 0.72646 0.16823 0.08657 0.0
C1281 C 0.75155 0.15961 0.03191 0.0
N1282 N 0.70755 0.11434 0.11752 0.0
N1283 N 0.74183 0.13666 0.0479 0.0
H1284 H 0.42786 0.20417 0.61026 0.0
H1285 H 0.31234 0.31878 0.54698 0.0
H1286 H 0.43187 0.2978 0.62327 0.0
H1287 H 0.2949 0.22591 0.5474 0.0
H1288 H 0.35694 0.31035 0.57442 0.0
H1289 H 0.38041 0.21038 0.58558 0.0
C1290 C 0.41894 0.226 0.60768 0.0
C1291 C 0.43393 0.25053 0.61867 0.0
C1292 C 0.34338 0.29171 0.56884 0.0
C1293 C 0.37983 0.25767 0.59098 0.0
C1294 C 0.31785 0.29654 0.55319 0.0
C1295 C 0.30005 0.27299 0.54491 0.0
C1296 C 0.35157 0.26299 0.57603 0.0
C1297 C 0.30809 0.24463 0.55357 0.0
C1298 C 0.39179 0.22947 0.59388 0.0
C1299 C 0.4212 0.27824 0.61513 0.0
N1300 N 0.33359 0.24032 0.56846 0.0
N1301 N 0.39501 0.28101 0.60159 0.0
H1302 H 0.29653 0.80293 0.04347 0.0
H1303 H 0.32576 0.92318 0.13875 0.0
H1304 H 0.21457 0.8003 0.09058 0.0
H1305 H 0.23148 0.92968 0.13548 0.0
H1306 H 0.32247 0.87494 0.11467 0.0
H1307 H 0.31126 0.84553 0.07295 0.0
C1308 C 0.28208 0.81068 0.06063 0.0
C1309 C 0.25413 0.79833 0.06436 0.0
C1310 C 0.30264 0.88719 0.11898 0.0
C1311 C 0.27061 0.84692 0.09775 0.0
C1312 C 0.30448 0.91465 0.13271 0.0
C1313 C 0.27889 0.93069 0.13874 0.0
C1314 C 0.27498 0.87571 0.11187 0.0
C1315 C 0.25185 0.91843 0.13087 0.0
C1316 C 0.29046 0.83504 0.07739 0.0
C1317 C 0.23613 0.80941 0.08667 0.0
N1318 N 0.25065 0.89168 0.11812 0.0
N1319 N 0.24444 0.83337 0.10207 0.0
H1320 H 0.69966 0.68587 0.58313 0.0
H1321 H 0.57695 0.80304 0.62546 0.0
H1322 H 0.7036 0.77512 0.55189 0.0
H1323 H 0.56313 0.70952 0.62126 0.0
H1324 H 0.62708 0.79564 0.607 0.0
H1325 H 0.65404 0.69731 0.60836 0.0
C1326 C 0.69123 0.70802 0.58195 0.0
C1327 C 0.70519 0.7294 0.56481 0.0
C1328 C 0.61289 0.77687 0.61009 0.0
C1329 C 0.65278 0.7425 0.59349 0.0
C1330 C 0.58432 0.78106 0.62041 0.0
C1331 C 0.56571 0.7569 0.62457 0.0
C1332 C 0.62294 0.74832 0.60458 0.0
C1333 C 0.57649 0.72885 0.61805 0.0
C1334 C 0.66506 0.71446 0.5962 0.0
C1335 C 0.69338 0.75785 0.56453 0.0
N1336 N 0.60439 0.72535 0.60857 0.0
N1337 N 0.66759 0.76352 0.57837 0.0
H1338 H 0.27331 0.17018 0.98139 0.0
H1339 H 0.2414 0.08759 0.83396 0.0
H1340 H 0.2375 0.21342 0.90568 0.0
H1341 H 0.30362 0.0541 0.89651 0.0
H1342 H 0.24115 0.13432 0.85963 0.0
H1343 H 0.28754 0.12863 0.9505 0.0
C1344 C 0.26937 0.17121 0.958 0.0
C1345 C 0.25458 0.19514 0.9458 0.0
C1346 C 0.25505 0.11689 0.8677 0.0
C1347 C 0.26957 0.14749 0.91071 0.0
C1348 C 0.25489 0.09005 0.85327 0.0
C1349 C 0.27202 0.06674 0.86355 0.0
C1350 C 0.27213 0.12043 0.89294 0.0
C1351 C 0.28983 0.07144 0.88811 0.0
C1352 C 0.27731 0.1475 0.94045 0.0
C1353 C 0.24928 0.19542 0.91566 0.0
N1354 N 0.28908 0.09768 0.90231 0.0
N1355 N 0.25632 0.17164 0.89915 0.0
H1356 H 0.29662 0.68588 0.4178 0.0
H1357 H 0.41932 0.80224 0.37271 0.0
H1358 H 0.29443 0.77464 0.45061 0.0
H1359 H 0.43197 0.70852 0.37492 0.0
H1360 H 0.36997 0.79521 0.39349 0.0
H1361 H 0.3419 0.6971 0.39194 0.0
C1362 C 0.30541 0.70788 0.41927 0.0
C1363 C 0.2919 0.7292 0.43687 0.0
C1364 C 0.38374 0.77632 0.38946 0.0
C1365 C 0.34404 0.7421 0.40735 0.0
C1366 C 0.41186 0.78029 0.37775 0.0
C1367 C 0.42994 0.75596 0.37236 0.0
C1368 C 0.37355 0.74782 0.39511 0.0
C1369 C 0.41904 0.72798 0.37901 0.0
C1370 C 0.33139 0.71421 0.40461 0.0
C1371 C 0.30422 0.75745 0.4375 0.0
N1372 N 0.39159 0.72471 0.38982 0.0
N1373 N 0.32982 0.76304 0.42318 0.0
H1374 H 0.5662 0.29767 0.37038 0.0
H1375 H 0.70482 0.22078 0.44474 0.0
H1376 H 0.57071 0.20387 0.38182 0.0
H1377 H 0.68505 0.31309 0.44853 0.0
H1378 H 0.65945 0.213 0.41633 0.0
H1379 H 0.61316 0.30258 0.39433 0.0
C1380 C 0.57701 0.27803 0.37812 0.0
C1381 C 0.56438 0.25031 0.37425 0.0
C1382 C 0.6653 0.23492 0.42327 0.0
C1383 C 0.61868 0.25581 0.40176 0.0
C1384 C 0.69121 0.23937 0.43914 0.0
C1385 C 0.69842 0.26758 0.44899 0.0
C1386 C 0.64705 0.25896 0.41709 0.0
C1387 C 0.68008 0.29096 0.44153 0.0
C1388 C 0.60395 0.28086 0.39181 0.0
C1389 C 0.57956 0.22568 0.38471 0.0
N1390 N 0.6553 0.28612 0.42613 0.0
N1391 N 0.60607 0.22899 0.39801 0.0
H1392 H 0.18736 0.24689 0.41008 0.0
H1393 H 0.02197 0.21119 0.37091 0.0
H1394 H 0.11595 0.26749 0.46862 0.0
H1395 H 0.08519 0.23344 0.30414 0.0
H1396 H 0.05781 0.2242 0.40848 0.0
H1397 H 0.15166 0.23363 0.37217 0.0
C1398 C 0.16419 0.24829 0.41503 0.0
C1399 C 0.15451 0.25823 0.44246 0.0
C1400 C 0.06375 0.22635 0.3856 0.0
C1401 C 0.11388 0.24316 0.39949 0.0
C1402 C 0.04339 0.2189 0.36419 0.0
C1403 C 0.05068 0.22139 0.33444 0.0
C1404 C 0.09177 0.23573 0.37719 0.0
C1405 C 0.07869 0.2315 0.32688 0.0
C1406 C 0.14392 0.241 0.39337 0.0
C1407 C 0.12429 0.25999 0.4477 0.0
N1408 N 0.09841 0.23807 0.34818 0.0
N1409 N 0.10501 0.25236 0.42644 0.0
H1410 H 0.27979 0.67365 0.93907 0.0
H1411 H 0.21394 0.55678 0.82647 0.0
H1412 H 0.18726 0.66538 0.92129 0.0
H1413 H 0.30591 0.57828 0.83218 0.0
H1414 H 0.20339 0.59604 0.86158 0.0
H1415 H 0.28971 0.63799 0.90033 0.0
C1416 C 0.26158 0.66443 0.92699 0.0
C1417 C 0.23267 0.67242 0.9336 0.0
C1418 C 0.22584 0.5922 0.85496 0.0
C1419 C 0.24382 0.63151 0.88932 0.0
C1420 C 0.23186 0.5698 0.83494 0.0
C1421 C 0.26085 0.56401 0.82652 0.0
C1422 C 0.249 0.60876 0.86674 0.0
C1423 C 0.28321 0.58171 0.83816 0.0
C1424 C 0.26724 0.64411 0.90483 0.0
C1425 C 0.20993 0.65983 0.91707 0.0
N1426 N 0.27683 0.60309 0.85778 0.0
N1427 N 0.21598 0.63987 0.89586 0.0
H1428 H 0.92372 0.73713 0.3046 0.0
H1429 H 0.83665 0.7812 0.45047 0.0
H1430 H 0.94507 0.81268 0.35745 0.0
H1431 H 0.83017 0.69657 0.40867 0.0
H1432 H 0.87091 0.79672 0.4121 0.0
H1433 H 0.88423 0.72524 0.33874 0.0
C1434 C 0.92015 0.7512 0.32339 0.0
C1435 C 0.93796 0.77574 0.32837 0.0
C1436 C 0.8618 0.77483 0.41128 0.0
C1437 C 0.89263 0.76243 0.3673 0.0
C1438 C 0.84213 0.76605 0.43304 0.0
C1439 C 0.83087 0.73747 0.43291 0.0
C1440 C 0.86995 0.75495 0.38921 0.0
C1441 C 0.83869 0.71869 0.40982 0.0
C1442 C 0.89758 0.74442 0.34284 0.0
C1443 C 0.93213 0.79332 0.35295 0.0
N1444 N 0.85785 0.72772 0.38898 0.0
N1445 N 0.90998 0.78631 0.37153 0.0
H1446 H 0.69775 0.40839 0.82124 0.0
H1447 H 0.80662 0.3597 0.94892 0.0
H1448 H 0.78194 0.44891 0.83579 0.0
H1449 H 0.72898 0.31115 0.92521 0.0
H1450 H 0.79744 0.39326 0.90837 0.0
H1451 H 0.7088 0.37268 0.85933 0.0
C1452 C 0.71869 0.40965 0.83231 0.0
C1453 C 0.73889 0.43182 0.82545 0.0
C1454 C 0.78242 0.37527 0.91204 0.0
C1455 C 0.75155 0.39108 0.86935 0.0
C1456 C 0.78752 0.35618 0.93533 0.0
C1457 C 0.76843 0.33263 0.94063 0.0
C1458 C 0.75797 0.37091 0.89395 0.0
C1459 C 0.74423 0.32905 0.92205 0.0
C1460 C 0.72496 0.38924 0.85408 0.0
C1461 C 0.76573 0.43221 0.84036 0.0
N1462 N 0.73966 0.34802 0.8996 0.0
N1463 N 0.77118 0.4123 0.86182 0.0
H1464 H 0.16361 0.69485 0.58918 0.0
H1465 H 0.05204 0.8173 0.64278 0.0
H1466 H 0.15746 0.78028 0.54913 0.0
H1467 H 0.07143 0.73984 0.69339 0.0
H1468 H 0.09087 0.80422 0.60858 0.0
H1469 H 0.13071 0.71114 0.62802 0.0
C1470 C 0.15546 0.71713 0.58865 0.0
C1471 C 0.16299 0.73616 0.56568 0.0
C1472 C 0.08677 0.79013 0.62722 0.0
C1473 C 0.12517 0.75486 0.61005 0.0
C1474 C 0.06445 0.79747 0.64668 0.0
C1475 C 0.05822 0.77941 0.6708 0.0
C1476 C 0.10288 0.76438 0.63166 0.0
C1477 C 0.07536 0.75427 0.67499 0.0
C1478 C 0.13674 0.72642 0.61091 0.0
C1479 C 0.15212 0.76487 0.56635 0.0
N1480 N 0.09676 0.74735 0.65543 0.0
N1481 N 0.13345 0.77325 0.58801 0.0
H1482 H 0.78538 0.55987 0.17519 0.0
H1483 H 0.71707 0.67458 0.06284 0.0
H1484 H 0.69547 0.55598 0.14644 0.0
H1485 H 0.80803 0.64917 0.05897 0.0
H1486 H 0.70895 0.6375 0.10086 0.0
H1487 H 0.79438 0.59917 0.13939 0.0
C1488 C 0.76759 0.56731 0.16141 0.0
C1489 C 0.73975 0.55449 0.1635 0.0
C1490 C 0.73067 0.64013 0.09165 0.0
C1491 C 0.74968 0.59949 0.12324 0.0
C1492 C 0.73533 0.66129 0.07008 0.0
C1493 C 0.76318 0.6647 0.05758 0.0
C1494 C 0.75417 0.62273 0.10117 0.0
C1495 C 0.78612 0.64695 0.0678 0.0
C1496 C 0.77273 0.5896 0.14102 0.0
C1497 C 0.71738 0.56498 0.14523 0.0
N1498 N 0.78114 0.62678 0.08911 0.0
N1499 N 0.72278 0.58697 0.12599 0.0
H1500 H 0.82756 0.21235 0.55629 0.0
H1501 H 0.94402 0.26545 0.67365 0.0
H1502 H 0.86622 0.29863 0.55368 0.0
H1503 H 0.94117 0.17565 0.64409 0.0
H1504 H 0.90833 0.27837 0.63574 0.0
H1505 H 0.86265 0.19858 0.59467 0.0
C1506 C 0.84344 0.22832 0.56377 0.0
C1507 C 0.84424 0.25655 0.55171 0.0
C1508 C 0.9156 0.25587 0.63762 0.0
C1509 C 0.88365 0.24125 0.59566 0.0
C1510 C 0.93579 0.24848 0.65925 0.0
C1511 C 0.94564 0.21952 0.66176 0.0
C1512 C 0.90476 0.23401 0.61892 0.0
C1513 C 0.93433 0.19831 0.64258 0.0
C1514 C 0.8634 0.22046 0.58552 0.0
C1515 C 0.86514 0.27651 0.56217 0.0
N1516 N 0.91429 0.20594 0.62202 0.0
N1517 N 0.88389 0.26855 0.58375 0.0
H1518 H 0.21055 0.44799 0.16364 0.0
H1519 H 0.26751 0.30586 0.07769 0.0
H1520 H 0.29589 0.40938 0.17649 0.0
H1521 H 0.18946 0.35373 0.05417 0.0
H1522 H 0.27547 0.34012 0.11809 0.0
H1523 H 0.1994 0.40962 0.12787 0.0
C1524 C 0.22681 0.4313 0.15918 0.0
C1525 C 0.2543 0.4321 0.17282 0.0
C1526 C 0.25659 0.34308 0.10408 0.0
C1527 C 0.24176 0.38827 0.13192 0.0
C1528 C 0.25205 0.32354 0.081 0.0
C1529 C 0.22796 0.3271 0.0623 0.0
C1530 C 0.23681 0.36622 0.10862 0.0
C1531 C 0.20852 0.35032 0.06781 0.0
C1532 C 0.2205 0.4095 0.13866 0.0
C1533 C 0.27454 0.40986 0.16622 0.0
N1534 N 0.2134 0.36901 0.09043 0.0
N1535 N 0.26791 0.38895 0.14615 0.0
H1536 H 0.33674 0.04871 0.28596 0.0
H1537 H 0.42115 0.19511 0.23857 0.0
H1538 H 0.32642 0.09047 0.20176 0.0
H1539 H 0.44471 0.14277 0.31372 0.0
H1540 H 0.38127 0.16089 0.22816 0.0
H1541 H 0.37082 0.0876 0.30025 0.0
C1542 C 0.34132 0.06625 0.27065 0.0
C1543 C 0.32903 0.06618 0.24252 0.0
C1544 C 0.39518 0.15695 0.24694 0.0
C1545 C 0.368 0.11052 0.25861 0.0
C1546 C 0.41796 0.17644 0.25286 0.0
C1547 C 0.43654 0.1716 0.27683 0.0
C1548 C 0.39079 0.13259 0.26524 0.0
C1549 C 0.43119 0.14717 0.29476 0.0
C1550 C 0.36089 0.08832 0.27874 0.0
C1551 C 0.33572 0.08946 0.22354 0.0
N1552 N 0.40885 0.12856 0.28857 0.0
N1553 N 0.35488 0.11059 0.23187 0.0
H1554 H 0.37019 0.94516 0.7976 0.0
H1555 H 0.40819 0.81876 0.68332 0.0
H1556 H 0.31454 0.92385 0.72422 0.0
H1557 H 0.45169 0.82825 0.76668 0.0
H1558 H 0.37378 0.85718 0.69754 0.0
H1559 H 0.40095 0.90317 0.78578 0.0
C1560 C 0.36449 0.93175 0.77887 0.0
C1561 C 0.33982 0.93822 0.76172 0.0
C1562 C 0.39067 0.85068 0.71284 0.0
C1563 C 0.37499 0.88985 0.7482 0.0
C1564 C 0.41033 0.82873 0.70475 0.0
C1565 C 0.433 0.82042 0.72378 0.0
C1566 C 0.39385 0.86468 0.74001 0.0
C1567 C 0.43458 0.83395 0.75133 0.0
C1568 C 0.38199 0.90762 0.77228 0.0
C1569 C 0.3334 0.91979 0.73795 0.0
N1570 N 0.41547 0.85566 0.75849 0.0
N1571 N 0.35098 0.89652 0.7318 0.0
H1572 H 0.6677 0.93828 0.28017 0.0
H1573 H 0.55628 0.81367 0.22769 0.0
H1574 H 0.65181 0.91637 0.18949 0.0
H1575 H 0.58053 0.82698 0.31816 0.0
H1576 H 0.59273 0.85013 0.21327 0.0
H1577 H 0.63704 0.89666 0.29477 0.0
C1578 C 0.6579 0.92471 0.26336 0.0
C1579 C 0.66211 0.93109 0.23358 0.0
C1580 C 0.59022 0.8449 0.23627 0.0
C1581 C 0.62705 0.88352 0.25008 0.0
C1582 C 0.56942 0.82403 0.2445 0.0
C1583 C 0.56507 0.81743 0.27419 0.0
C1584 C 0.60668 0.85942 0.25788 0.0
C1585 C 0.58289 0.83152 0.295 0.0
C1586 C 0.64044 0.90093 0.27168 0.0
C1587 C 0.64898 0.91259 0.21274 0.0
N1588 N 0.60269 0.85203 0.28647 0.0
N1589 N 0.63194 0.88983 0.22138 0.0
H1590 H 0.63628 0.06305 0.8064 0.0
H1591 H 0.55801 0.14801 0.67793 0.0
H1592 H 0.67126 0.06322 0.71852 0.0
H1593 H 0.55698 0.18136 0.76641 0.0
H1594 H 0.59465 0.11175 0.69249 0.0
H1595 H 0.60199 0.10182 0.79229 0.0
C1596 C 0.63668 0.07123 0.78413 0.0
C1597 C 0.65648 0.0599 0.76352 0.0
C1598 C 0.58644 0.12708 0.70865 0.0
C1599 C 0.61731 0.10381 0.7473 0.0
C1600 C 0.56544 0.14759 0.70046 0.0
C1601 C 0.55442 0.16755 0.72108 0.0
C1602 C 0.596 0.12613 0.7378 0.0
C1603 C 0.56499 0.16634 0.74988 0.0
C1604 C 0.61728 0.09342 0.77619 0.0
C1605 C 0.65634 0.07143 0.73505 0.0
N1606 N 0.58503 0.14569 0.75752 0.0
N1607 N 0.63678 0.09257 0.72765 0.0
H1608 H 0.81215 0.77493 0.57284 0.0
H1609 H 0.95285 0.73387 0.66894 0.0
H1610 H 0.86877 0.70167 0.55344 0.0
H1611 H 0.90904 0.81754 0.67353 0.0
H1612 H 0.91808 0.7184 0.63115 0.0
H1613 H 0.84394 0.78794 0.61387 0.0
C1614 C 0.8313 0.76161 0.57714 0.0
C1615 C 0.83792 0.73731 0.55948 0.0
C1616 C 0.91601 0.74008 0.64058 0.0
C1617 C 0.8742 0.7519 0.60668 0.0
C1618 C 0.93571 0.74884 0.6623 0.0
C1619 C 0.93399 0.77712 0.67425 0.0
C1620 C 0.89429 0.75963 0.63098 0.0
C1621 C 0.91136 0.79563 0.66472 0.0
C1622 C 0.84942 0.76905 0.60059 0.0
C1623 C 0.86297 0.72078 0.56625 0.0
N1624 N 0.89248 0.7866 0.64361 0.0
N1625 N 0.88016 0.72835 0.58934 0.0
H1626 H 0.81679 0.32843 0.08041 0.0
H1627 H 0.69099 0.41332 0.16752 0.0
H1628 H 0.72465 0.31982 0.06085 0.0
H1629 H 0.78279 0.43524 0.17407 0.0
H1630 H 0.70328 0.37388 0.13378 0.0
H1631 H 0.80475 0.36228 0.11989 0.0
C1632 C 0.79397 0.33349 0.08447 0.0
C1633 C 0.77168 0.32145 0.06696 0.0
C1634 C 0.72075 0.38723 0.14267 0.0
C1635 C 0.75785 0.36029 0.11237 0.0
C1636 C 0.7138 0.40979 0.16201 0.0
C1637 C 0.7359 0.42796 0.17344 0.0
C1638 C 0.75003 0.38257 0.13469 0.0
C1639 C 0.76503 0.42198 0.16567 0.0
C1640 C 0.78716 0.35289 0.10705 0.0
C1641 C 0.74256 0.3287 0.07358 0.0
N1642 N 0.77124 0.39988 0.14664 0.0
N1643 N 0.73649 0.34777 0.09568 0.0
H1644 H 0.08103 0.17077 0.66084 0.0
H1645 H 0.16662 0.30502 0.58821 0.0
H1646 H 0.06528 0.26169 0.68184 0.0
H1647 H 0.17129 0.21656 0.5549 0.0
H1648 H 0.13613 0.28785 0.62843 0.0
H1649 H 0.12029 0.1858 0.62765 0.0
C1650 C 0.08594 0.19388 0.65867 0.0
C1651 C 0.06952 0.21506 0.67386 0.0
C1652 C 0.14395 0.27212 0.61245 0.0
C1653 C 0.11452 0.2323 0.63601 0.0
C1654 C 0.16139 0.2819 0.58944 0.0
C1655 C 0.1711 0.26226 0.56782 0.0
C1656 C 0.13604 0.24247 0.61396 0.0
C1657 C 0.16406 0.23249 0.57093 0.0
C1658 C 0.10835 0.20241 0.63968 0.0
C1659 C 0.07708 0.24463 0.67033 0.0
N1660 N 0.14666 0.22353 0.59342 0.0
N1661 N 0.09891 0.25236 0.65165 0.0
H1662 H 0.30251 0.55641 0.14665 0.0
H1663 H 0.18749 0.65296 0.06021 0.0
H1664 H 0.21259 0.56423 0.17492 0.0
H1665 H 0.27938 0.67502 0.06247 0.0
H1666 H 0.19595 0.61571 0.09777 0.0
H1667 H 0.29413 0.59535 0.11081 0.0
C1668 C 0.28096 0.56623 0.14519 0.0
C1669 C 0.25814 0.55704 0.16364 0.0
C1670 C 0.21421 0.62879 0.09009 0.0
C1671 C 0.24848 0.60134 0.12273 0.0
C1672 C 0.20946 0.64989 0.06859 0.0
C1673 C 0.23282 0.66695 0.05819 0.0
C1674 C 0.2426 0.62435 0.10083 0.0
C1675 C 0.26079 0.66233 0.06997 0.0
C1676 C 0.27629 0.58855 0.12492 0.0
C1677 C 0.23076 0.57071 0.1611 0.0
N1678 N 0.26498 0.64121 0.09051 0.0
N1679 N 0.2266 0.59205 0.1408 0.0
H1680 H 0.81998 0.21759 0.43163 0.0
H1681 H 0.94001 0.26596 0.31422 0.0
H1682 H 0.84136 0.30788 0.41299 0.0
H1683 H 0.90921 0.17703 0.32418 0.0
H1684 H 0.90153 0.28227 0.3478 0.0
H1685 H 0.85024 0.20258 0.39005 0.0
C1686 C 0.83085 0.23427 0.4187 0.0
C1687 C 0.82843 0.264 0.4261 0.0
C1688 C 0.90303 0.25923 0.34238 0.0
C1689 C 0.86321 0.24699 0.37855 0.0
C1690 C 0.92499 0.24992 0.32317 0.0
C1691 C 0.92818 0.22004 0.31672 0.0
C1692 C 0.88428 0.23848 0.35533 0.0
C1693 C 0.90791 0.20025 0.32884 0.0
C1694 C 0.8481 0.2257 0.39492 0.0
C1695 C 0.84283 0.28467 0.40836 0.0
N1696 N 0.88708 0.20978 0.3478 0.0
N1697 N 0.85983 0.27575 0.38562 0.0
H1698 H 0.27473 0.33542 0.95282 0.0
H1699 H 0.21921 0.42319 0.81139 0.0
H1700 H 0.18964 0.3234 0.91345 0.0
H1701 H 0.29766 0.44558 0.85917 0.0
H1702 H 0.21017 0.38342 0.84605 0.0
H1703 H 0.28597 0.37247 0.91564 0.0
C1704 C 0.25852 0.34038 0.93625 0.0
C1705 C 0.23111 0.32648 0.93642 0.0
C1706 C 0.22935 0.39707 0.84896 0.0
C1707 C 0.24377 0.36881 0.89394 0.0
C1708 C 0.2345 0.41981 0.82918 0.0
C1709 C 0.25911 0.43793 0.83248 0.0
C1710 C 0.24902 0.39226 0.8721 0.0
C1711 C 0.27826 0.43235 0.85589 0.0
C1712 C 0.26489 0.36161 0.91513 0.0
C1713 C 0.21094 0.33378 0.91439 0.0
N1714 N 0.27282 0.41002 0.87479 0.0
N1715 N 0.21765 0.35447 0.89413 0.0
H1716 H 0.12723 0.69978 0.44447 0.0
H1717 H 0.08669 0.81627 0.32131 0.0
H1718 H 0.1828 0.77339 0.42341 0.0
H1719 H 0.04461 0.7319 0.32881 0.0
H1720 H 0.12189 0.80149 0.35874 0.0
H1721 H 0.09602 0.71209 0.403 0.0
C1722 C 0.13282 0.71866 0.43121 0.0
C1723 C 0.15757 0.73575 0.43763 0.0
C1724 C 0.10514 0.7861 0.352 0.0
C1725 C 0.12187 0.74986 0.38987 0.0
C1726 C 0.08501 0.79451 0.33064 0.0
C1727 C 0.06251 0.77535 0.32206 0.0
C1728 C 0.10257 0.75846 0.3652 0.0
C1729 C 0.06156 0.74738 0.33475 0.0
C1730 C 0.11507 0.72552 0.40737 0.0
C1731 C 0.16388 0.75969 0.41938 0.0
N1732 N 0.08109 0.73991 0.35593 0.0
N1733 N 0.14602 0.76616 0.39644 0.0
H1734 H 0.69776 0.54756 0.85795 0.0
H1735 H 0.80492 0.67517 0.91057 0.0
H1736 H 0.77626 0.57248 0.81126 0.0
H1737 H 0.71987 0.65958 0.94905 0.0
H1738 H 0.79476 0.63762 0.874 0.0
H1739 H 0.70582 0.58796 0.89202 0.0
C1740 C 0.71678 0.56143 0.85492 0.0
C1741 C 0.73649 0.55649 0.8318 0.0
C1742 C 0.77823 0.64252 0.89031 0.0
C1743 C 0.74569 0.6029 0.87065 0.0
C1744 C 0.78401 0.66396 0.91123 0.0
C1745 C 0.76328 0.67035 0.93306 0.0
C1746 C 0.75162 0.62716 0.89132 0.0
C1747 C 0.73648 0.65532 0.93266 0.0
C1748 C 0.72125 0.58461 0.87429 0.0
C1749 C 0.76056 0.57538 0.82881 0.0
N1750 N 0.73152 0.63421 0.91226 0.0
N1751 N 0.76454 0.59768 0.84809 0.0
H1752 H 0.54923 0.85384 0.68428 0.0
H1753 H 0.66111 0.91098 0.8051 0.0
H1754 H 0.57036 0.8048 0.76229 0.0
H1755 H 0.65343 0.94989 0.71926 0.0
H1756 H 0.62771 0.87213 0.79003 0.0
H1757 H 0.58678 0.88956 0.69704 0.0
C1758 C 0.56174 0.85059 0.70415 0.0
C1759 C 0.55643 0.82641 0.72242 0.0
C1760 C 0.63345 0.88904 0.77442 0.0
C1761 C 0.59958 0.8673 0.73708 0.0
C1762 C 0.65245 0.91131 0.78302 0.0
C1763 C 0.65985 0.9339 0.76347 0.0
C1764 C 0.62149 0.88945 0.74615 0.0
C1765 C 0.64825 0.93298 0.73505 0.0
C1766 C 0.5833 0.87094 0.71132 0.0
C1767 C 0.57361 0.82317 0.74766 0.0
N1768 N 0.62941 0.91125 0.72732 0.0
N1769 N 0.59429 0.84352 0.75436 0.0
H1770 H 0.54313 0.17052 0.23008 0.0
H1771 H 0.68115 0.07213 0.27489 0.0
H1772 H 0.58494 0.1751 0.31473 0.0
H1773 H 0.62632 0.05436 0.19995 0.0
H1774 H 0.64979 0.11382 0.2872 0.0
H1775 H 0.57788 0.13235 0.21562 0.0
C1776 C 0.55982 0.16378 0.24549 0.0
C1777 C 0.56096 0.17585 0.27375 0.0
C1778 C 0.64464 0.10074 0.2681 0.0
C1779 C 0.60064 0.13209 0.25741 0.0
C1780 C 0.66249 0.07691 0.26108 0.0
C1781 C 0.65623 0.05953 0.23649 0.0
C1782 C 0.62052 0.10744 0.25025 0.0
C1783 C 0.63184 0.06693 0.21929 0.0
C1784 C 0.57952 0.14185 0.2373 0.0
C1785 C 0.58306 0.1662 0.29282 0.0
N1786 N 0.61493 0.09033 0.22647 0.0
N1787 N 0.60195 0.14483 0.28435 0.0
H1788 H 0.32788 0.05874 0.71659 0.0
H1789 H 0.43887 0.18531 0.76479 0.0
H1790 H 0.34495 0.08252 0.80657 0.0
H1791 H 0.41681 0.16665 0.6747 0.0
H1792 H 0.40201 0.14986 0.7805 0.0
H1793 H 0.35818 0.1 0.70067 0.0
C1794 C 0.33788 0.07265 0.73299 0.0
C1795 C 0.33413 0.06689 0.76295 0.0
C1796 C 0.40508 0.15369 0.75729 0.0
C1797 C 0.36879 0.11414 0.74491 0.0
C1798 C 0.42612 0.17398 0.74831 0.0
C1799 C 0.43125 0.17874 0.71837 0.0
C1800 C 0.38914 0.13791 0.7362 0.0
C1801 C 0.41387 0.16352 0.69802 0.0
C1802 C 0.35514 0.09625 0.7239 0.0
C1803 C 0.34745 0.08585 0.78322 0.0
N1804 N 0.39381 0.1436 0.70731 0.0
N1805 N 0.36432 0.10846 0.77383 0.0
H1806 H 0.40983 0.79882 0.2585 0.0
H1807 H 0.38119 0.96774 0.23026 0.0
H1808 H 0.47179 0.86516 0.28489 0.0
H1809 H 0.3107 0.90875 0.25252 0.0
H1810 H 0.41643 0.92877 0.2412 0.0
H1811 H 0.37446 0.83763 0.24666 0.0
C1812 C 0.41602 0.82153 0.26154 0.0
C1813 C 0.44363 0.82891 0.27272 0.0
C1814 C 0.39323 0.92447 0.24375 0.0
C1815 C 0.40374 0.873 0.25906 0.0
C1816 C 0.37317 0.9466 0.23749 0.0
C1817 C 0.34308 0.94142 0.24072 0.0
C1818 C 0.38303 0.89685 0.25256 0.0
C1819 C 0.33378 0.91366 0.2501 0.0
C1820 C 0.39585 0.84355 0.255 0.0
C1821 C 0.45061 0.8586 0.27648 0.0
N1822 N 0.35371 0.89225 0.25546 0.0
N1823 N 0.43084 0.87962 0.26947 0.0
loop_
_geom_bond_atom_site_label_1
_geom_bond_atom_site_label_2
_geom_bond_distance
_geom_bond_site_symmetry_2
_ccdc_geom_bond_type
Fe0 O2 1.918 1_455 S
Fe0 O5 2.012 . S
Fe0 O6 2.018 . S
Fe0 O11 1.960 1_455 S
Fe0 O14 1.980 1_455 S
Fe1 O2 1.918 1_455 S
Fe1 O9 2.011 . S
Fe1 O12 1.981 1_455 S
Fe1 O16 1.961 1_455 S
Fe1 O19 2.017 . S
O2 Fe0 1.918 1_655 S
O2 Fe1 1.918 1_655 S
O2 Fe3 1.918 1_655 S
Fe3 O2 1.918 1_455 S
Fe3 O4 2.017 . S
Fe3 O13 1.962 1_455 S
Fe3 O17 1.982 1_455 S
Fe3 O20 2.011 . S
O4 Fe3 2.017 . S
O4 C21 1.295 . S
O5 Fe0 2.012 . S
O5 C21 1.235 . S
O6 Fe0 2.018 . S
O6 C7 1.295 . S
C7 O6 1.295 . S
C7 O9 1.235 . S
C8 O13 1.287 . S
C8 O14 1.255 . S
O9 Fe1 2.011 . S
O9 C7 1.235 . S
C10 O16 1.287 . S
C10 O17 1.255 . S
O11 Fe0 1.960 1_655 S
O11 C18 1.287 . S
O12 Fe1 1.981 1_655 S
O12 C18 1.255 . S
O13 Fe3 1.962 1_655 S
O13 C8 1.287 . S
O14 Fe0 1.980 1_655 S
O14 C8 1.255 . S
C15 O19 1.295 . S
C15 O20 1.235 . S
O16 Fe1 1.961 1_655 S
O16 C10 1.287 . S
O17 Fe3 1.982 1_655 S
O17 C10 1.255 . S
C18 O11 1.287 . S
C18 O12 1.255 . S
O19 Fe1 2.017 . S
O19 C15 1.295 . S
O20 Fe3 2.011 . S
O20 C15 1.235 . S
C21 O4 1.295 . S
C21 O5 1.235 . S
Fe22 O24 1.918 . S
Fe22 O27 1.997 . S
Fe22 O28 2.002 . S
Fe22 O33 1.976 . S
Fe22 O36 1.996 . S
Fe23 O24 1.918 . S
Fe23 O31 1.997 . S
Fe23 O34 1.996 . S
Fe23 O38 1.976 . S
Fe23 O41 2.002 . S
O24 Fe22 1.918 . S
O24 Fe23 1.918 . S
O24 Fe25 1.918 . S
Fe25 O24 1.918 . S
Fe25 O26 2.002 . S
Fe25 O35 1.976 . S
Fe25 O39 1.996 . S
Fe25 O42 1.997 . S
O26 Fe25 2.002 . S
O26 C43 1.295 . S
O27 Fe22 1.997 . S
O27 C43 1.235 . S
O28 Fe22 2.002 . S
O28 C29 1.295 . S
C29 O28 1.295 . S
C29 O31 1.235 . S
C30 O35 1.287 . S
C30 O36 1.255 . S
O31 Fe23 1.997 . S
O31 C29 1.235 . S
C32 O38 1.287 . S
C32 O39 1.255 . S
O33 Fe22 1.976 . S
O33 C40 1.287 . S
O34 Fe23 1.996 . S
O34 C40 1.255 . S
O35 Fe25 1.976 . S
O35 C30 1.287 . S
O36 Fe22 1.996 . S
O36 C30 1.255 . S
C37 O41 1.295 . S
C37 O42 1.235 . S
O38 Fe23 1.976 . S
O38 C32 1.287 . S
O39 Fe25 1.996 . S
O39 C32 1.255 . S
C40 O33 1.287 . S
C40 O34 1.255 . S
O41 Fe23 2.002 . S
O41 C37 1.295 . S
O42 Fe25 1.997 . S
O42 C37 1.235 . S
C43 O26 1.295 . S
C43 O27 1.235 . S
Fe44 O46 1.918 . S
Fe44 O49 1.997 1_455 S
Fe44 O50 2.002 1_455 S
Fe44 O55 1.976 . S
Fe44 O58 1.996 . S
Fe45 O46 1.918 . S
Fe45 O53 1.997 1_455 S
Fe45 O56 1.996 . S
Fe45 O60 1.976 . S
Fe45 O63 2.002 1_455 S
O46 Fe44 1.918 . S
O46 Fe45 1.918 . S
O46 Fe47 1.918 . S
Fe47 O46 1.918 . S
Fe47 O48 2.002 1_455 S
Fe47 O57 1.976 . S
Fe47 O61 1.996 . S
Fe47 O64 1.997 1_455 S
O48 Fe47 2.002 1_655 S
O48 C65 1.295 . S
O49 Fe44 1.997 1_655 S
O49 C65 1.235 . S
O50 Fe44 2.002 1_655 S
O50 C51 1.295 . S
C51 O50 1.295 . S
C51 O53 1.235 . S
C52 O57 1.287 . S
C52 O58 1.255 . S
O53 Fe45 1.997 1_655 S
O53 C51 1.235 . S
C54 O60 1.287 . S
C54 O61 1.255 . S
O55 Fe44 1.976 . S
O55 C62 1.287 . S
O56 Fe45 1.996 . S
O56 C62 1.255 . S
O57 Fe47 1.976 . S
O57 C52 1.287 . S
O58 Fe44 1.996 . S
O58 C52 1.255 . S
C59 O63 1.295 . S
C59 O64 1.235 . S
O60 Fe45 1.976 . S
O60 C54 1.287 . S
O61 Fe47 1.996 . S
O61 C54 1.255 . S
C62 O55 1.287 . S
C62 O56 1.255 . S
O63 Fe45 2.002 1_655 S
O63 C59 1.295 . S
O64 Fe47 1.997 1_655 S
O64 C59 1.235 . S
C65 O48 1.295 . S
C65 O49 1.235 . S
Fe66 O68 1.918 . S
Fe66 O71 1.997 . S
Fe66 O72 2.002 . S
Fe66 O77 1.976 . S
Fe66 O80 1.996 . S
Fe67 O68 1.918 . S
Fe67 O75 1.997 . S
Fe67 O78 1.996 . S
Fe67 O82 1.976 . S
Fe67 O85 2.002 . S
O68 Fe66 1.918 . S
O68 Fe67 1.918 . S
O68 Fe69 1.918 . S
Fe69 O68 1.918 . S
Fe69 O70 2.002 . S
Fe69 O79 1.976 . S
Fe69 O83 1.996 . S
Fe69 O86 1.997 . S
O70 Fe69 2.002 . S
O70 C87 1.295 . S
O71 Fe66 1.997 . S
O71 C87 1.235 . S
O72 Fe66 2.002 . S
O72 C73 1.295 . S
C73 O72 1.295 . S
C73 O75 1.235 . S
C74 O79 1.287 . S
C74 O80 1.255 . S
O75 Fe67 1.997 . S
O75 C73 1.235 . S
C76 O82 1.287 . S
C76 O83 1.255 . S
O77 Fe66 1.976 . S
O77 C84 1.287 . S
O78 Fe67 1.996 . S
O78 C84 1.255 . S
O79 Fe69 1.976 . S
O79 C74 1.287 . S
O80 Fe66 1.996 . S
O80 C74 1.255 . S
C81 O85 1.295 . S
C81 O86 1.235 . S
O82 Fe67 1.976 . S
O82 C76 1.287 . S
O83 Fe69 1.996 . S
O83 C76 1.255 . S
C84 O77 1.287 . S
C84 O78 1.255 . S
O85 Fe67 2.002 . S
O85 C81 1.295 . S
O86 Fe69 1.997 . S
O86 C81 1.235 . S
C87 O70 1.295 . S
C87 O71 1.235 . S
Fe88 O90 1.919 . S
Fe88 O93 1.997 . S
Fe88 O94 2.002 . S
Fe88 O99 1.976 1_455 S
Fe88 O102 1.996 1_455 S
Fe89 O90 1.919 . S
Fe89 O97 1.997 . S
Fe89 O100 1.996 1_455 S
Fe89 O104 1.976 1_455 S
Fe89 O107 2.002 . S
O90 Fe88 1.919 . S
O90 Fe89 1.919 . S
O90 Fe91 1.919 . S
Fe91 O90 1.919 . S
Fe91 O92 2.002 . S
Fe91 O101 1.976 1_455 S
Fe91 O105 1.996 1_455 S
Fe91 O108 1.997 . S
O92 Fe91 2.002 . S
O92 C109 1.295 . S
O93 Fe88 1.997 . S
O93 C109 1.235 . S
O94 Fe88 2.002 . S
O94 C95 1.295 . S
C95 O94 1.295 . S
C95 O97 1.235 . S
C96 O101 1.287 . S
C96 O102 1.255 . S
O97 Fe89 1.997 . S
O97 C95 1.235 . S
C98 O104 1.287 . S
C98 O105 1.255 . S
O99 Fe88 1.976 1_655 S
O99 C106 1.287 . S
O100 Fe89 1.996 1_655 S
O100 C106 1.255 . S
O101 Fe91 1.976 1_655 S
O101 C96 1.287 . S
O102 Fe88 1.996 1_655 S
O102 C96 1.255 . S
C103 O107 1.295 . S
C103 O108 1.235 . S
O104 Fe89 1.976 1_655 S
O104 C98 1.287 . S
O105 Fe91 1.996 1_655 S
O105 C98 1.255 . S
C106 O99 1.287 . S
C106 O100 1.255 . S
O107 Fe89 2.002 . S
O107 C103 1.295 . S
O108 Fe91 1.997 . S
O108 C103 1.235 . S
C109 O92 1.295 . S
C109 O93 1.235 . S
Fe110 O112 1.918 . S
Fe110 O115 1.997 . S
Fe110 O116 2.002 . S
Fe110 O121 1.976 . S
Fe110 O124 1.996 . S
Fe111 O112 1.918 . S
Fe111 O119 1.997 . S
Fe111 O122 1.996 . S
Fe111 O126 1.976 . S
Fe111 O129 2.002 . S
O112 Fe110 1.918 . S
O112 Fe111 1.918 . S
O112 Fe113 1.918 . S
Fe113 O112 1.918 . S
Fe113 O114 2.002 . S
Fe113 O123 1.976 . S
Fe113 O127 1.996 . S
Fe113 O130 1.997 . S
O114 Fe113 2.002 . S
O114 C131 1.295 . S
O115 Fe110 1.997 . S
O115 C131 1.235 . S
O116 Fe110 2.002 . S
O116 C117 1.295 . S
C117 O116 1.295 . S
C117 O119 1.235 . S
C118 O123 1.287 . S
C118 O124 1.255 . S
O119 Fe111 1.997 . S
O119 C117 1.235 . S
C120 O126 1.287 . S
C120 O127 1.255 . S
O121 Fe110 1.976 . S
O121 C128 1.287 . S
O122 Fe111 1.996 . S
O122 C128 1.255 . S
O123 Fe113 1.976 . S
O123 C118 1.287 . S
O124 Fe110 1.996 . S
O124 C118 1.255 . S
C125 O129 1.295 . S
C125 O130 1.235 . S
O126 Fe111 1.976 . S
O126 C120 1.287 . S
O127 Fe113 1.996 . S
O127 C120 1.255 . S
C128 O121 1.287 . S
C128 O122 1.255 . S
O129 Fe111 2.002 . S
O129 C125 1.295 . S
O130 Fe113 1.997 . S
O130 C125 1.235 . S
C131 O114 1.295 . S
C131 O115 1.235 . S
Fe132 O134 1.918 . S
Fe132 O137 1.997 1_455 S
Fe132 O138 2.002 1_455 S
Fe132 O143 1.976 . S
Fe132 O146 1.996 . S
Fe133 O134 1.918 . S
Fe133 O141 1.997 1_455 S
Fe133 O144 1.996 . S
Fe133 O148 1.976 . S
Fe133 O151 2.002 1_455 S
O134 Fe132 1.918 . S
O134 Fe133 1.918 . S
O134 Fe135 1.918 . S
Fe135 O134 1.918 . S
Fe135 O136 2.002 1_455 S
Fe135 O145 1.976 . S
Fe135 O149 1.996 . S
Fe135 O152 1.997 1_455 S
O136 Fe135 2.002 1_655 S
O136 C153 1.295 . S
O137 Fe132 1.997 1_655 S
O137 C153 1.235 . S
O138 Fe132 2.002 1_655 S
O138 C139 1.295 . S
C139 O138 1.295 . S
C139 O141 1.235 . S
C140 O145 1.287 . S
C140 O146 1.255 . S
O141 Fe133 1.997 1_655 S
O141 C139 1.235 . S
C142 O148 1.287 . S
C142 O149 1.255 . S
O143 Fe132 1.976 . S
O143 C150 1.287 . S
O144 Fe133 1.996 . S
O144 C150 1.255 . S
O145 Fe135 1.976 . S
O145 C140 1.287 . S
O146 Fe132 1.996 . S
O146 C140 1.255 . S
C147 O151 1.295 . S
C147 O152 1.235 . S
O148 Fe133 1.976 . S
O148 C142 1.287 . S
O149 Fe135 1.996 . S
O149 C142 1.255 . S
C150 O143 1.287 . S
C150 O144 1.255 . S
O151 Fe133 2.002 1_655 S
O151 C147 1.295 . S
O152 Fe135 1.997 1_655 S
O152 C147 1.235 . S
C153 O136 1.295 . S
C153 O137 1.235 . S
Fe154 O156 1.918 . S
Fe154 O159 1.997 . S
Fe154 O160 2.002 . S
Fe154 O165 1.976 . S
Fe154 O168 1.996 . S
Fe155 O156 1.918 . S
Fe155 O163 1.997 . S
Fe155 O166 1.996 . S
Fe155 O170 1.976 . S
Fe155 O173 2.002 . S
O156 Fe154 1.918 . S
O156 Fe155 1.918 . S
O156 Fe157 1.918 . S
Fe157 O156 1.918 . S
Fe157 O158 2.002 . S
Fe157 O167 1.976 . S
Fe157 O171 1.996 . S
Fe157 O174 1.997 . S
O158 Fe157 2.002 . S
O158 C175 1.295 . S
O159 Fe154 1.997 . S
O159 C175 1.235 . S
O160 Fe154 2.002 . S
O160 C161 1.295 . S
C161 O160 1.295 . S
C161 O163 1.235 . S
C162 O167 1.287 . S
C162 O168 1.255 . S
O163 Fe155 1.997 . S
O163 C161 1.235 . S
C164 O170 1.287 . S
C164 O171 1.255 . S
O165 Fe154 1.976 . S
O165 C172 1.287 . S
O166 Fe155 1.996 . S
O166 C172 1.255 . S
O167 Fe157 1.976 . S
O167 C162 1.287 . S
O168 Fe154 1.996 . S
O168 C162 1.255 . S
C169 O173 1.295 . S
C169 O174 1.235 . S
O170 Fe155 1.976 . S
O170 C164 1.287 . S
O171 Fe157 1.996 . S
O171 C164 1.255 . S
C172 O165 1.287 . S
C172 O166 1.255 . S
O173 Fe155 2.002 . S
O173 C169 1.295 . S
O174 Fe157 1.997 . S
O174 C169 1.235 . S
C175 O158 1.295 . S
C175 O159 1.235 . S
Fe176 O178 1.918 . S
Fe176 O181 1.997 . S
Fe176 O182 2.002 . S
Fe176 O187 1.976 1_545 S
Fe176 O190 1.996 1_545 S
Fe177 O178 1.918 . S
Fe177 O185 1.997 . S
Fe177 O188 1.996 1_545 S
Fe177 O192 1.976 1_545 S
Fe177 O195 2.002 . S
O178 Fe176 1.918 . S
O178 Fe177 1.918 . S
O178 Fe179 1.918 . S
Fe179 O178 1.918 . S
Fe179 O180 2.002 . S
Fe179 O189 1.976 1_545 S
Fe179 O193 1.996 1_545 S
Fe179 O196 1.997 . S
O180 Fe179 2.002 . S
O180 C197 1.295 . S
O181 Fe176 1.997 . S
O181 C197 1.235 . S
O182 Fe176 2.002 . S
O182 C183 1.295 . S
C183 O182 1.295 . S
C183 O185 1.235 . S
C184 O189 1.287 . S
C184 O190 1.255 . S
O185 Fe177 1.997 . S
O185 C183 1.235 . S
C186 O192 1.287 . S
C186 O193 1.255 . S
O187 Fe176 1.976 1_565 S
O187 C194 1.287 . S
O188 Fe177 1.996 1_565 S
O188 C194 1.255 . S
O189 Fe179 1.976 1_565 S
O189 C184 1.287 . S
O190 Fe176 1.996 1_565 S
O190 C184 1.255 . S
C191 O195 1.295 . S
C191 O196 1.235 . S
O192 Fe177 1.976 1_565 S
O192 C186 1.287 . S
O193 Fe179 1.996 1_565 S
O193 C186 1.255 . S
C194 O187 1.287 . S
C194 O188 1.255 . S
O195 Fe177 2.002 . S
O195 C191 1.295 . S
O196 Fe179 1.997 . S
O196 C191 1.235 . S
C197 O180 1.295 . S
C197 O181 1.235 . S
Fe198 O200 1.918 . S
Fe198 O203 1.997 . S
Fe198 O204 2.002 . S
Fe198 O209 1.976 . S
Fe198 O212 1.996 . S
Fe199 O200 1.918 . S
Fe199 O207 1.997 . S
Fe199 O210 1.996 . S
Fe199 O214 1.976 . S
Fe199 O217 2.002 . S
O200 Fe198 1.918 . S
O200 Fe199 1.918 . S
O200 Fe201 1.918 . S
Fe201 O200 1.918 . S
Fe201 O202 2.002 . S
Fe201 O211 1.976 . S
Fe201 O215 1.996 . S
Fe201 O218 1.997 . S
O202 Fe201 2.002 . S
O202 C219 1.295 . S
O203 Fe198 1.997 . S
O203 C219 1.235 . S
O204 Fe198 2.002 . S
O204 C205 1.295 . S
C205 O204 1.295 . S
C205 O207 1.235 . S
C206 O211 1.287 . S
C206 O212 1.255 . S
O207 Fe199 1.997 . S
O207 C205 1.235 . S
C208 O214 1.287 . S
C208 O215 1.255 . S
O209 Fe198 1.976 . S
O209 C216 1.287 . S
O210 Fe199 1.996 . S
O210 C216 1.255 . S
O211 Fe201 1.976 . S
O211 C206 1.287 . S
O212 Fe198 1.996 . S
O212 C206 1.255 . S
C213 O217 1.295 . S
C213 O218 1.235 . S
O214 Fe199 1.976 . S
O214 C208 1.287 . S
O215 Fe201 1.996 . S
O215 C208 1.255 . S
C216 O209 1.287 . S
C216 O210 1.255 . S
O217 Fe199 2.002 . S
O217 C213 1.295 . S
O218 Fe201 1.997 . S
O218 C213 1.235 . S
C219 O202 1.295 . S
C219 O203 1.235 . S
Fe220 O222 1.918 . S
Fe220 O225 1.997 1_545 S
Fe220 O226 2.002 1_545 S
Fe220 O231 1.976 . S
Fe220 O234 1.996 . S
Fe221 O222 1.918 . S
Fe221 O229 1.997 1_545 S
Fe221 O232 1.996 . S
Fe221 O236 1.976 . S
Fe221 O239 2.002 1_545 S
O222 Fe220 1.918 . S
O222 Fe221 1.918 . S
O222 Fe223 1.918 . S
Fe223 O222 1.918 . S
Fe223 O224 2.002 1_545 S
Fe223 O233 1.976 . S
Fe223 O237 1.996 . S
Fe223 O240 1.997 1_545 S
O224 Fe223 2.002 1_565 S
O224 C241 1.295 . S
O225 Fe220 1.997 1_565 S
O225 C241 1.235 . S
O226 Fe220 2.002 1_565 S
O226 C227 1.295 . S
C227 O226 1.295 . S
C227 O229 1.235 . S
C228 O233 1.287 . S
C228 O234 1.255 . S
O229 Fe221 1.997 1_565 S
O229 C227 1.235 . S
C230 O236 1.287 . S
C230 O237 1.255 . S
O231 Fe220 1.976 . S
O231 C238 1.287 . S
O232 Fe221 1.996 . S
O232 C238 1.255 . S
O233 Fe223 1.976 . S
O233 C228 1.287 . S
O234 Fe220 1.996 . S
O234 C228 1.255 . S
C235 O239 1.295 . S
C235 O240 1.235 . S
O236 Fe221 1.976 . S
O236 C230 1.287 . S
O237 Fe223 1.996 . S
O237 C230 1.255 . S
C238 O231 1.287 . S
C238 O232 1.255 . S
O239 Fe221 2.002 1_565 S
O239 C235 1.295 . S
O240 Fe223 1.997 1_565 S
O240 C235 1.235 . S
C241 O224 1.295 . S
C241 O225 1.235 . S
Fe242 O244 1.918 . S
Fe242 O247 1.997 . S
Fe242 O248 2.002 . S
Fe242 O253 1.976 . S
Fe242 O256 1.996 . S
Fe243 O244 1.918 . S
Fe243 O251 1.997 . S
Fe243 O254 1.996 . S
Fe243 O258 1.976 . S
Fe243 O261 2.002 . S
O244 Fe242 1.918 . S
O244 Fe243 1.918 . S
O244 Fe245 1.918 . S
Fe245 O244 1.918 . S
Fe245 O246 2.002 . S
Fe245 O255 1.976 . S
Fe245 O259 1.996 . S
Fe245 O262 1.997 . S
O246 Fe245 2.002 . S
O246 C263 1.295 . S
O247 Fe242 1.997 . S
O247 C263 1.235 . S
O248 Fe242 2.002 . S
O248 C249 1.295 . S
C249 O248 1.295 . S
C249 O251 1.235 . S
C250 O255 1.287 . S
C250 O256 1.255 . S
O251 Fe243 1.997 . S
O251 C249 1.235 . S
C252 O258 1.287 . S
C252 O259 1.255 . S
O253 Fe242 1.976 . S
O253 C260 1.287 . S
O254 Fe243 1.996 . S
O254 C260 1.255 . S
O255 Fe245 1.976 . S
O255 C250 1.287 . S
O256 Fe242 1.996 . S
O256 C250 1.255 . S
C257 O261 1.295 . S
C257 O262 1.235 . S
O258 Fe243 1.976 . S
O258 C252 1.287 . S
O259 Fe245 1.996 . S
O259 C252 1.255 . S
C260 O253 1.287 . S
C260 O254 1.255 . S
O261 Fe243 2.002 . S
O261 C257 1.295 . S
O262 Fe245 1.997 . S
O262 C257 1.235 . S
C263 O246 1.295 . S
C263 O247 1.235 . S
Fe264 O266 1.918 . S
Fe264 O269 1.997 1_545 S
Fe264 O270 2.002 1_545 S
Fe264 O275 1.976 . S
Fe264 O278 1.996 . S
Fe265 O266 1.918 . S
Fe265 O273 1.997 1_545 S
Fe265 O276 1.996 . S
Fe265 O280 1.976 . S
Fe265 O283 2.002 1_545 S
O266 Fe264 1.918 . S
O266 Fe265 1.918 . S
O266 Fe267 1.918 . S
Fe267 O266 1.918 . S
Fe267 O268 2.002 1_545 S
Fe267 O277 1.976 . S
Fe267 O281 1.996 . S
Fe267 O284 1.997 1_545 S
O268 Fe267 2.002 1_565 S
O268 C285 1.295 . S
O269 Fe264 1.997 1_565 S
O269 C285 1.235 . S
O270 Fe264 2.002 1_565 S
O270 C271 1.295 . S
C271 O270 1.295 . S
C271 O273 1.235 . S
C272 O277 1.287 . S
C272 O278 1.255 . S
O273 Fe265 1.997 1_565 S
O273 C271 1.235 . S
C274 O280 1.287 . S
C274 O281 1.255 . S
O275 Fe264 1.976 . S
O275 C282 1.287 . S
O276 Fe265 1.996 . S
O276 C282 1.255 . S
O277 Fe267 1.976 . S
O277 C272 1.287 . S
O278 Fe264 1.996 . S
O278 C272 1.255 . S
C279 O283 1.295 . S
C279 O284 1.235 . S
O280 Fe265 1.976 . S
O280 C274 1.287 . S
O281 Fe267 1.996 . S
O281 C274 1.255 . S
C282 O275 1.287 . S
C282 O276 1.255 . S
O283 Fe265 2.002 1_565 S
O283 C279 1.295 . S
O284 Fe267 1.997 1_565 S
O284 C279 1.235 . S
C285 O268 1.295 . S
C285 O269 1.235 . S
Fe286 O288 1.918 . S
Fe286 O291 1.997 . S
Fe286 O292 2.002 . S
Fe286 O297 1.976 . S
Fe286 O300 1.996 . S
Fe287 O288 1.918 . S
Fe287 O295 1.997 . S
Fe287 O298 1.996 . S
Fe287 O302 1.976 . S
Fe287 O305 2.002 . S
O288 Fe286 1.918 . S
O288 Fe287 1.918 . S
O288 Fe289 1.918 . S
Fe289 O288 1.918 . S
Fe289 O290 2.002 . S
Fe289 O299 1.976 . S
Fe289 O303 1.996 . S
Fe289 O306 1.997 . S
O290 Fe289 2.002 . S
O290 C307 1.295 . S
O291 Fe286 1.997 . S
O291 C307 1.235 . S
O292 Fe286 2.002 . S
O292 C293 1.295 . S
C293 O292 1.295 . S
C293 O295 1.235 . S
C294 O299 1.287 . S
C294 O300 1.255 . S
O295 Fe287 1.997 . S
O295 C293 1.235 . S
C296 O302 1.287 . S
C296 O303 1.255 . S
O297 Fe286 1.976 . S
O297 C304 1.287 . S
O298 Fe287 1.996 . S
O298 C304 1.255 . S
O299 Fe289 1.976 . S
O299 C294 1.287 . S
O300 Fe286 1.996 . S
O300 C294 1.255 . S
C301 O305 1.295 . S
C301 O306 1.235 . S
O302 Fe287 1.976 . S
O302 C296 1.287 . S
O303 Fe289 1.996 . S
O303 C296 1.255 . S
C304 O297 1.287 . S
C304 O298 1.255 . S
O305 Fe287 2.002 . S
O305 C301 1.295 . S
O306 Fe289 1.997 . S
O306 C301 1.235 . S
C307 O290 1.295 . S
C307 O291 1.235 . S
Fe308 O310 1.918 . S
Fe308 O313 1.997 . S
Fe308 O314 2.002 . S
Fe308 O319 1.976 1_545 S
Fe308 O322 1.996 1_545 S
Fe309 O310 1.918 . S
Fe309 O317 1.997 . S
Fe309 O320 1.996 1_545 S
Fe309 O324 1.976 1_545 S
Fe309 O327 2.002 . S
O310 Fe308 1.918 . S
O310 Fe309 1.918 . S
O310 Fe311 1.918 . S
Fe311 O310 1.918 . S
Fe311 O312 2.002 . S
Fe311 O321 1.976 1_545 S
Fe311 O325 1.996 1_545 S
Fe311 O328 1.997 . S
O312 Fe311 2.002 . S
O312 C329 1.295 . S
O313 Fe308 1.997 . S
O313 C329 1.235 . S
O314 Fe308 2.002 . S
O314 C315 1.295 . S
C315 O314 1.295 . S
C315 O317 1.235 . S
C316 O321 1.287 . S
C316 O322 1.255 . S
O317 Fe309 1.997 . S
O317 C315 1.235 . S
C318 O324 1.287 . S
C318 O325 1.255 . S
O319 Fe308 1.976 1_565 S
O319 C326 1.287 . S
O320 Fe309 1.996 1_565 S
O320 C326 1.255 . S
O321 Fe311 1.976 1_565 S
O321 C316 1.287 . S
O322 Fe308 1.996 1_565 S
O322 C316 1.255 . S
C323 O327 1.295 . S
C323 O328 1.235 . S
O324 Fe309 1.976 1_565 S
O324 C318 1.287 . S
O325 Fe311 1.996 1_565 S
O325 C318 1.255 . S
C326 O319 1.287 . S
C326 O320 1.255 . S
O327 Fe309 2.002 . S
O327 C323 1.295 . S
O328 Fe311 1.997 . S
O328 C323 1.235 . S
C329 O312 1.295 . S
C329 O313 1.235 . S
Fe330 O332 1.918 . S
Fe330 O335 1.997 . S
Fe330 O336 2.002 . S
Fe330 O341 1.976 . S
Fe330 O344 1.996 . S
Fe331 O332 1.918 . S
Fe331 O339 1.997 . S
Fe331 O342 1.996 . S
Fe331 O346 1.976 . S
Fe331 O349 2.002 . S
O332 Fe330 1.918 . S
O332 Fe331 1.918 . S
O332 Fe333 1.918 . S
Fe333 O332 1.918 . S
Fe333 O334 2.002 . S
Fe333 O343 1.976 . S
Fe333 O347 1.996 . S
Fe333 O350 1.997 . S
O334 Fe333 2.002 . S
O334 C351 1.295 . S
O335 Fe330 1.997 . S
O335 C351 1.235 . S
O336 Fe330 2.002 . S
O336 C337 1.295 . S
C337 O336 1.295 . S
C337 O339 1.235 . S
C338 O343 1.287 . S
C338 O344 1.255 . S
O339 Fe331 1.997 . S
O339 C337 1.235 . S
C340 O346 1.287 . S
C340 O347 1.255 . S
O341 Fe330 1.976 . S
O341 C348 1.287 . S
O342 Fe331 1.996 . S
O342 C348 1.255 . S
O343 Fe333 1.976 . S
O343 C338 1.287 . S
O344 Fe330 1.996 . S
O344 C338 1.255 . S
C345 O349 1.295 . S
C345 O350 1.235 . S
O346 Fe331 1.976 . S
O346 C340 1.287 . S
O347 Fe333 1.996 . S
O347 C340 1.255 . S
C348 O341 1.287 . S
C348 O342 1.255 . S
O349 Fe331 2.002 . S
O349 C345 1.295 . S
O350 Fe333 1.997 . S
O350 C345 1.235 . S
C351 O334 1.295 . S
C351 O335 1.235 . S
Fe352 O354 1.918 . S
Fe352 O357 1.997 . S
Fe352 O358 2.002 . S
Fe352 O363 1.976 1_554 S
Fe352 O366 1.996 1_554 S
Fe353 O354 1.918 . S
Fe353 O361 1.997 . S
Fe353 O364 1.996 1_554 S
Fe353 O368 1.976 1_554 S
Fe353 O371 2.002 . S
O354 Fe352 1.918 . S
O354 Fe353 1.918 . S
O354 Fe355 1.918 . S
Fe355 O354 1.918 . S
Fe355 O356 2.002 . S
Fe355 O365 1.976 1_554 S
Fe355 O369 1.996 1_554 S
Fe355 O372 1.997 . S
O356 Fe355 2.002 . S
O356 C373 1.295 . S
O357 Fe352 1.997 . S
O357 C373 1.235 . S
O358 Fe352 2.002 . S
O358 C359 1.295 . S
C359 O358 1.295 . S
C359 O361 1.235 . S
C360 O365 1.287 . S
C360 O366 1.255 . S
O361 Fe353 1.997 . S
O361 C359 1.235 . S
C362 O368 1.287 . S
C362 O369 1.255 . S
O363 Fe352 1.976 1_556 S
O363 C370 1.287 . S
O364 Fe353 1.996 1_556 S
O364 C370 1.255 . S
O365 Fe355 1.976 1_556 S
O365 C360 1.287 . S
O366 Fe352 1.996 1_556 S
O366 C360 1.255 . S
C367 O371 1.295 . S
C367 O372 1.235 . S
O368 Fe353 1.976 1_556 S
O368 C362 1.287 . S
O369 Fe355 1.996 1_556 S
O369 C362 1.255 . S
C370 O363 1.287 . S
C370 O364 1.255 . S
O371 Fe353 2.002 . S
O371 C367 1.295 . S
O372 Fe355 1.997 . S
O372 C367 1.235 . S
C373 O356 1.295 . S
C373 O357 1.235 . S
Fe374 O376 1.918 . S
Fe374 O379 1.997 1_554 S
Fe374 O380 2.002 1_554 S
Fe374 O385 1.976 . S
Fe374 O388 1.996 . S
Fe375 O376 1.918 . S
Fe375 O383 1.997 1_554 S
Fe375 O386 1.996 . S
Fe375 O390 1.976 . S
Fe375 O393 2.002 1_554 S
O376 Fe374 1.918 . S
O376 Fe375 1.918 . S
O376 Fe377 1.918 . S
Fe377 O376 1.918 . S
Fe377 O378 2.002 1_554 S
Fe377 O387 1.976 . S
Fe377 O391 1.996 . S
Fe377 O394 1.997 1_554 S
O378 Fe377 2.002 1_556 S
O378 C395 1.295 . S
O379 Fe374 1.997 1_556 S
O379 C395 1.235 . S
O380 Fe374 2.002 1_556 S
O380 C381 1.295 . S
C381 O380 1.295 . S
C381 O383 1.235 . S
C382 O387 1.287 . S
C382 O388 1.255 . S
O383 Fe375 1.997 1_556 S
O383 C381 1.235 . S
C384 O390 1.287 . S
C384 O391 1.255 . S
O385 Fe374 1.976 . S
O385 C392 1.287 . S
O386 Fe375 1.996 . S
O386 C392 1.255 . S
O387 Fe377 1.976 . S
O387 C382 1.287 . S
O388 Fe374 1.996 . S
O388 C382 1.255 . S
C389 O393 1.295 . S
C389 O394 1.235 . S
O390 Fe375 1.976 . S
O390 C384 1.287 . S
O391 Fe377 1.996 . S
O391 C384 1.255 . S
C392 O385 1.287 . S
C392 O386 1.255 . S
O393 Fe375 2.002 1_556 S
O393 C389 1.295 . S
O394 Fe377 1.997 1_556 S
O394 C389 1.235 . S
C395 O378 1.295 . S
C395 O379 1.235 . S
Fe396 O398 1.918 . S
Fe396 O401 1.997 . S
Fe396 O402 2.002 . S
Fe396 O407 1.976 . S
Fe396 O410 1.996 . S
Fe397 O398 1.918 . S
Fe397 O405 1.997 . S
Fe397 O408 1.996 . S
Fe397 O412 1.976 . S
Fe397 O415 2.002 . S
O398 Fe396 1.918 . S
O398 Fe397 1.918 . S
O398 Fe399 1.918 . S
Fe399 O398 1.918 . S
Fe399 O400 2.002 . S
Fe399 O409 1.976 . S
Fe399 O413 1.996 . S
Fe399 O416 1.997 . S
O400 Fe399 2.002 . S
O400 C417 1.295 . S
O401 Fe396 1.997 . S
O401 C417 1.235 . S
O402 Fe396 2.002 . S
O402 C403 1.295 . S
C403 O402 1.295 . S
C403 O405 1.235 . S
C404 O409 1.287 . S
C404 O410 1.255 . S
O405 Fe397 1.997 . S
O405 C403 1.235 . S
C406 O412 1.287 . S
C406 O413 1.255 . S
O407 Fe396 1.976 . S
O407 C414 1.287 . S
O408 Fe397 1.996 . S
O408 C414 1.255 . S
O409 Fe399 1.976 . S
O409 C404 1.287 . S
O410 Fe396 1.996 . S
O410 C404 1.255 . S
C411 O415 1.295 . S
C411 O416 1.235 . S
O412 Fe397 1.976 . S
O412 C406 1.287 . S
O413 Fe399 1.996 . S
O413 C406 1.255 . S
C414 O407 1.287 . S
C414 O408 1.255 . S
O415 Fe397 2.002 . S
O415 C411 1.295 . S
O416 Fe399 1.997 . S
O416 C411 1.235 . S
C417 O400 1.295 . S
C417 O401 1.235 . S
Fe418 O420 1.918 . S
Fe418 O423 1.997 1_554 S
Fe418 O424 2.002 1_554 S
Fe418 O429 1.976 . S
Fe418 O432 1.996 . S
Fe419 O420 1.918 . S
Fe419 O427 1.997 1_554 S
Fe419 O430 1.996 . S
Fe419 O434 1.976 . S
Fe419 O437 2.002 1_554 S
O420 Fe418 1.918 . S
O420 Fe419 1.918 . S
O420 Fe421 1.918 . S
Fe421 O420 1.918 . S
Fe421 O422 2.002 1_554 S
Fe421 O431 1.976 . S
Fe421 O435 1.996 . S
Fe421 O438 1.997 1_554 S
O422 Fe421 2.002 1_556 S
O422 C439 1.295 . S
O423 Fe418 1.997 1_556 S
O423 C439 1.235 . S
O424 Fe418 2.002 1_556 S
O424 C425 1.295 . S
C425 O424 1.295 . S
C425 O427 1.235 . S
C426 O431 1.287 . S
C426 O432 1.255 . S
O427 Fe419 1.997 1_556 S
O427 C425 1.235 . S
C428 O434 1.287 . S
C428 O435 1.255 . S
O429 Fe418 1.976 . S
O429 C436 1.287 . S
O430 Fe419 1.996 . S
O430 C436 1.255 . S
O431 Fe421 1.976 . S
O431 C426 1.287 . S
O432 Fe418 1.996 . S
O432 C426 1.255 . S
C433 O437 1.295 . S
C433 O438 1.235 . S
O434 Fe419 1.976 . S
O434 C428 1.287 . S
O435 Fe421 1.996 . S
O435 C428 1.255 . S
C436 O429 1.287 . S
C436 O430 1.255 . S
O437 Fe419 2.002 1_556 S
O437 C433 1.295 . S
O438 Fe421 1.997 1_556 S
O438 C433 1.235 . S
C439 O422 1.295 . S
C439 O423 1.235 . S
Fe440 O442 1.918 . S
Fe440 O445 1.997 . S
Fe440 O446 2.002 . S
Fe440 O451 1.976 . S
Fe440 O454 1.996 . S
Fe441 O442 1.918 . S
Fe441 O449 1.997 . S
Fe441 O452 1.996 . S
Fe441 O456 1.976 . S
Fe441 O459 2.002 . S
O442 Fe440 1.918 . S
O442 Fe441 1.918 . S
O442 Fe443 1.918 . S
Fe443 O442 1.918 . S
Fe443 O444 2.002 . S
Fe443 O453 1.976 . S
Fe443 O457 1.996 . S
Fe443 O460 1.997 . S
O444 Fe443 2.002 . S
O444 C461 1.295 . S
O445 Fe440 1.997 . S
O445 C461 1.235 . S
O446 Fe440 2.002 . S
O446 C447 1.295 . S
C447 O446 1.295 . S
C447 O449 1.235 . S
C448 O453 1.287 . S
C448 O454 1.255 . S
O449 Fe441 1.997 . S
O449 C447 1.235 . S
C450 O456 1.287 . S
C450 O457 1.255 . S
O451 Fe440 1.976 . S
O451 C458 1.287 . S
O452 Fe441 1.996 . S
O452 C458 1.255 . S
O453 Fe443 1.976 . S
O453 C448 1.287 . S
O454 Fe440 1.996 . S
O454 C448 1.255 . S
C455 O459 1.295 . S
C455 O460 1.235 . S
O456 Fe441 1.976 . S
O456 C450 1.287 . S
O457 Fe443 1.996 . S
O457 C450 1.255 . S
C458 O451 1.287 . S
C458 O452 1.255 . S
O459 Fe441 2.002 . S
O459 C455 1.295 . S
O460 Fe443 1.997 . S
O460 C455 1.235 . S
C461 O444 1.295 . S
C461 O445 1.235 . S
Fe462 O464 1.919 . S
Fe462 O467 1.997 . S
Fe462 O468 2.002 . S
Fe462 O473 1.976 1_554 S
Fe462 O476 1.996 1_554 S
Fe463 O464 1.919 . S
Fe463 O471 1.997 . S
Fe463 O474 1.996 1_554 S
Fe463 O478 1.976 1_554 S
Fe463 O481 2.002 . S
O464 Fe462 1.919 . S
O464 Fe463 1.919 . S
O464 Fe465 1.919 . S
Fe465 O464 1.919 . S
Fe465 O466 2.002 . S
Fe465 O475 1.976 1_554 S
Fe465 O479 1.996 1_554 S
Fe465 O482 1.997 . S
O466 Fe465 2.002 . S
O466 C483 1.295 . S
O467 Fe462 1.997 . S
O467 C483 1.235 . S
O468 Fe462 2.002 . S
O468 C469 1.295 . S
C469 O468 1.295 . S
C469 O471 1.235 . S
C470 O475 1.287 . S
C470 O476 1.255 . S
O471 Fe463 1.997 . S
O471 C469 1.235 . S
C472 O478 1.287 . S
C472 O479 1.255 . S
O473 Fe462 1.976 1_556 S
O473 C480 1.287 . S
O474 Fe463 1.996 1_556 S
O474 C480 1.255 . S
O475 Fe465 1.976 1_556 S
O475 C470 1.287 . S
O476 Fe462 1.996 1_556 S
O476 C470 1.255 . S
C477 O481 1.295 . S
C477 O482 1.235 . S
O478 Fe463 1.976 1_556 S
O478 C472 1.287 . S
O479 Fe465 1.996 1_556 S
O479 C472 1.255 . S
C480 O473 1.287 . S
C480 O474 1.255 . S
O481 Fe463 2.002 . S
O481 C477 1.295 . S
O482 Fe465 1.997 . S
O482 C477 1.235 . S
C483 O466 1.295 . S
C483 O467 1.235 . S
Fe484 O486 1.918 . S
Fe484 O489 1.997 . S
Fe484 O490 2.002 . S
Fe484 O495 1.976 . S
Fe484 O498 1.996 . S
Fe485 O486 1.918 . S
Fe485 O493 1.997 . S
Fe485 O496 1.996 . S
Fe485 O500 1.976 . S
Fe485 O503 2.002 . S
O486 Fe484 1.918 . S
O486 Fe485 1.918 . S
O486 Fe487 1.918 . S
Fe487 O486 1.918 . S
Fe487 O488 2.002 . S
Fe487 O497 1.976 . S
Fe487 O501 1.996 . S
Fe487 O504 1.997 . S
O488 Fe487 2.002 . S
O488 C505 1.295 . S
O489 Fe484 1.997 . S
O489 C505 1.235 . S
O490 Fe484 2.002 . S
O490 C491 1.295 . S
C491 O490 1.295 . S
C491 O493 1.235 . S
C492 O497 1.287 . S
C492 O498 1.255 . S
O493 Fe485 1.997 . S
O493 C491 1.235 . S
C494 O500 1.287 . S
C494 O501 1.255 . S
O495 Fe484 1.976 . S
O495 C502 1.287 . S
O496 Fe485 1.996 . S
O496 C502 1.255 . S
O497 Fe487 1.976 . S
O497 C492 1.287 . S
O498 Fe484 1.996 . S
O498 C492 1.255 . S
C499 O503 1.295 . S
C499 O504 1.235 . S
O500 Fe485 1.976 . S
O500 C494 1.287 . S
O501 Fe487 1.996 . S
O501 C494 1.255 . S
C502 O495 1.287 . S
C502 O496 1.255 . S
O503 Fe485 2.002 . S
O503 C499 1.295 . S
O504 Fe487 1.997 . S
O504 C499 1.235 . S
C505 O488 1.295 . S
C505 O489 1.235 . S
Fe506 O508 1.918 . S
Fe506 O511 1.997 . S
Fe506 O512 2.002 . S
Fe506 O517 1.976 . S
Fe506 O520 1.996 . S
Fe507 O508 1.918 . S
Fe507 O515 1.997 . S
Fe507 O518 1.996 . S
Fe507 O522 1.976 . S
Fe507 O525 2.002 . S
O508 Fe506 1.918 . S
O508 Fe507 1.918 . S
O508 Fe509 1.918 . S
Fe509 O508 1.918 . S
Fe509 O510 2.002 . S
Fe509 O519 1.976 . S
Fe509 O523 1.996 . S
Fe509 O526 1.997 . S
O510 Fe509 2.002 . S
O510 C527 1.295 . S
O511 Fe506 1.997 . S
O511 C527 1.235 . S
O512 Fe506 2.002 . S
O512 C513 1.295 . S
C513 O512 1.295 . S
C513 O515 1.235 . S
C514 O519 1.287 . S
C514 O520 1.255 . S
O515 Fe507 1.997 . S
O515 C513 1.235 . S
C516 O522 1.287 . S
C516 O523 1.255 . S
O517 Fe506 1.976 . S
O517 C524 1.287 . S
O518 Fe507 1.996 . S
O518 C524 1.255 . S
O519 Fe509 1.976 . S
O519 C514 1.287 . S
O520 Fe506 1.996 . S
O520 C514 1.255 . S
C521 O525 1.295 . S
C521 O526 1.235 . S
O522 Fe507 1.976 . S
O522 C516 1.287 . S
O523 Fe509 1.996 . S
O523 C516 1.255 . S
C524 O517 1.287 . S
C524 O518 1.255 . S
O525 Fe507 2.002 . S
O525 C521 1.295 . S
O526 Fe509 1.997 . S
O526 C521 1.235 . S
C527 O510 1.295 . S
C527 O511 1.235 . S
H528 C534 0.930 . S
H529 C538 0.930 . S
H530 C543 0.929 . S
H531 C541 0.929 . S
H532 C536 0.929 . S
H533 C542 0.929 . S
C534 H528 0.930 . S
C534 C535 1.367 . S
C534 C542 1.378 . S
C535 C534 1.367 . S
C535 C543 1.433 . S
C536 H532 0.929 . S
C536 C538 1.378 . S
C536 C540 1.350 . S
C537 C540 1.463 . S
C537 C542 1.350 . S
C537 N545 1.427 . S
C538 H529 0.930 . S
C538 C536 1.378 . S
C538 C539 1.367 . S
C539 C538 1.367 . S
C539 C541 1.433 . S
C540 C536 1.350 . S
C540 C537 1.463 . S
C540 N544 1.427 . S
C541 H531 0.929 . S
C541 C539 1.433 . S
C541 N544 1.384 . S
C542 H533 0.929 . S
C542 C534 1.378 . S
C542 C537 1.350 . S
C543 H530 0.929 . S
C543 C535 1.433 . S
C543 N545 1.384 . S
N544 C540 1.427 . S
N544 C541 1.384 . S
N545 C537 1.427 . S
N545 C543 1.384 . S
H546 C552 0.930 . S
H547 C556 0.930 . S
H548 C561 0.929 . S
H549 C559 0.929 . S
H550 C554 0.929 . S
H551 C560 0.929 . S
C552 H546 0.930 . S
C552 C553 1.367 . S
C552 C560 1.378 . S
C553 C552 1.367 . S
C553 C561 1.433 . S
C554 H550 0.929 . S
C554 C556 1.378 . S
C554 C558 1.350 . S
C555 C558 1.463 . S
C555 C560 1.350 . S
C555 N563 1.427 . S
C556 H547 0.930 . S
C556 C554 1.378 . S
C556 C557 1.367 . S
C557 C556 1.367 . S
C557 C559 1.433 . S
C558 C554 1.350 . S
C558 C555 1.463 . S
C558 N562 1.427 . S
C559 H549 0.929 . S
C559 C557 1.433 . S
C559 N562 1.384 . S
C560 H551 0.929 . S
C560 C552 1.378 . S
C560 C555 1.350 . S
C561 H548 0.929 . S
C561 C553 1.433 . S
C561 N563 1.384 . S
N562 C558 1.427 . S
N562 C559 1.384 . S
N563 C555 1.427 . S
N563 C561 1.384 . S
H564 C570 0.930 . S
H565 C574 0.930 . S
H566 C579 0.929 . S
H567 C577 0.929 . S
H568 C572 0.929 . S
H569 C578 0.929 . S
C570 H564 0.930 . S
C570 C571 1.367 . S
C570 C578 1.378 . S
C571 C570 1.367 . S
C571 C579 1.433 . S
C572 H568 0.929 . S
C572 C574 1.378 . S
C572 C576 1.350 . S
C573 C576 1.463 . S
C573 C578 1.350 . S
C573 N581 1.427 . S
C574 H565 0.930 . S
C574 C572 1.378 . S
C574 C575 1.367 . S
C575 C574 1.367 . S
C575 C577 1.433 . S
C576 C572 1.350 . S
C576 C573 1.463 . S
C576 N580 1.427 . S
C577 H567 0.929 . S
C577 C575 1.433 . S
C577 N580 1.384 . S
C578 H569 0.929 . S
C578 C570 1.378 . S
C578 C573 1.350 . S
C579 H566 0.929 . S
C579 C571 1.433 . S
C579 N581 1.384 . S
N580 C576 1.427 . S
N580 C577 1.384 . S
N581 C573 1.427 . S
N581 C579 1.384 . S
H582 C588 0.930 . S
H583 C592 0.930 . S
H584 C597 0.929 . S
H585 C595 0.929 . S
H586 C590 0.929 . S
H587 C596 0.929 . S
C588 H582 0.930 . S
C588 C589 1.367 . S
C588 C596 1.378 . S
C589 C588 1.367 . S
C589 C597 1.433 . S
C590 H586 0.929 . S
C590 C592 1.378 . S
C590 C594 1.350 . S
C591 C594 1.463 . S
C591 C596 1.350 . S
C591 N599 1.427 . S
C592 H583 0.930 . S
C592 C590 1.378 . S
C592 C593 1.367 . S
C593 C592 1.367 . S
C593 C595 1.433 . S
C594 C590 1.350 . S
C594 C591 1.463 . S
C594 N598 1.427 . S
C595 H585 0.929 . S
C595 C593 1.433 . S
C595 N598 1.384 . S
C596 H587 0.929 . S
C596 C588 1.378 . S
C596 C591 1.350 . S
C597 H584 0.929 . S
C597 C589 1.433 . S
C597 N599 1.384 . S
N598 C594 1.427 . S
N598 C595 1.384 . S
N599 C591 1.427 . S
N599 C597 1.384 . S
H600 C606 0.930 . S
H601 C610 0.930 . S
H602 C615 0.929 . S
H603 C613 0.929 . S
H604 C608 0.929 . S
H605 C614 0.929 . S
C606 H600 0.930 . S
C606 C607 1.367 . S
C606 C614 1.378 . S
C607 C606 1.367 . S
C607 C615 1.433 . S
C608 H604 0.929 . S
C608 C610 1.378 . S
C608 C612 1.350 . S
C609 C612 1.463 . S
C609 C614 1.350 . S
C609 N617 1.427 . S
C610 H601 0.930 . S
C610 C608 1.378 . S
C610 C611 1.367 . S
C611 C610 1.367 . S
C611 C613 1.433 . S
C612 C608 1.350 . S
C612 C609 1.463 . S
C612 N616 1.427 . S
C613 H603 0.929 . S
C613 C611 1.433 . S
C613 N616 1.384 . S
C614 H605 0.929 . S
C614 C606 1.378 . S
C614 C609 1.350 . S
C615 H602 0.929 . S
C615 C607 1.433 . S
C615 N617 1.384 . S
N616 C612 1.427 . S
N616 C613 1.384 . S
N617 C609 1.427 . S
N617 C615 1.384 . S
H618 C624 0.930 . S
H619 C628 0.930 . S
H620 C633 0.929 . S
H621 C631 0.929 . S
H622 C626 0.929 . S
H623 C632 0.929 . S
C624 H618 0.930 . S
C624 C625 1.367 . S
C624 C632 1.378 . S
C625 C624 1.367 . S
C625 C633 1.433 . S
C626 H622 0.929 . S
C626 C628 1.378 . S
C626 C630 1.350 . S
C627 C630 1.463 . S
C627 C632 1.350 . S
C627 N635 1.427 . S
C628 H619 0.930 . S
C628 C626 1.378 . S
C628 C629 1.367 . S
C629 C628 1.367 . S
C629 C631 1.433 . S
C630 C626 1.350 . S
C630 C627 1.463 . S
C630 N634 1.427 . S
C631 H621 0.929 . S
C631 C629 1.433 . S
C631 N634 1.384 . S
C632 H623 0.929 . S
C632 C624 1.378 . S
C632 C627 1.350 . S
C633 H620 0.929 . S
C633 C625 1.433 . S
C633 N635 1.384 . S
N634 C630 1.427 . S
N634 C631 1.384 . S
N635 C627 1.427 . S
N635 C633 1.384 . S
H636 C642 0.930 . S
H637 C646 0.930 . S
H638 C651 0.929 . S
H639 C649 0.929 . S
H640 C644 0.929 . S
H641 C650 0.929 . S
C642 H636 0.930 . S
C642 C643 1.367 . S
C642 C650 1.378 . S
C643 C642 1.367 . S
C643 C651 1.433 . S
C644 H640 0.929 . S
C644 C646 1.378 . S
C644 C648 1.350 . S
C645 C648 1.463 . S
C645 C650 1.350 . S
C645 N653 1.427 . S
C646 H637 0.930 . S
C646 C644 1.378 . S
C646 C647 1.367 . S
C647 C646 1.367 . S
C647 C649 1.433 . S
C648 C644 1.350 . S
C648 C645 1.463 . S
C648 N652 1.427 . S
C649 H639 0.929 . S
C649 C647 1.433 . S
C649 N652 1.384 . S
C650 H641 0.929 . S
C650 C642 1.378 . S
C650 C645 1.350 . S
C651 H638 0.929 . S
C651 C643 1.433 . S
C651 N653 1.384 . S
N652 C648 1.427 . S
N652 C649 1.384 . S
N653 C645 1.427 . S
N653 C651 1.384 . S
H654 C660 0.930 . S
H655 C664 0.930 . S
H656 C669 0.929 . S
H657 C667 0.929 . S
H658 C662 0.929 . S
H659 C668 0.929 . S
C660 H654 0.930 . S
C660 C661 1.367 . S
C660 C668 1.378 . S
C661 C660 1.367 . S
C661 C669 1.433 . S
C662 H658 0.929 . S
C662 C664 1.378 . S
C662 C666 1.350 . S
C663 C666 1.463 . S
C663 C668 1.350 . S
C663 N671 1.427 . S
C664 H655 0.930 . S
C664 C662 1.378 . S
C664 C665 1.367 . S
C665 C664 1.367 . S
C665 C667 1.433 . S
C666 C662 1.350 . S
C666 C663 1.463 . S
C666 N670 1.427 . S
C667 H657 0.929 . S
C667 C665 1.433 . S
C667 N670 1.384 . S
C668 H659 0.929 . S
C668 C660 1.378 . S
C668 C663 1.350 . S
C669 H656 0.929 . S
C669 C661 1.433 . S
C669 N671 1.384 . S
N670 C666 1.427 . S
N670 C667 1.384 . S
N671 C663 1.427 . S
N671 C669 1.384 . S
H672 C678 0.930 . S
H673 C682 0.930 . S
H674 C687 0.929 . S
H675 C685 0.929 . S
H676 C680 0.929 . S
H677 C686 0.929 . S
C678 H672 0.930 . S
C678 C679 1.367 . S
C678 C686 1.378 . S
C679 C678 1.367 . S
C679 C687 1.433 . S
C680 H676 0.929 . S
C680 C682 1.378 . S
C680 C684 1.350 . S
C681 C684 1.463 . S
C681 C686 1.350 . S
C681 N689 1.427 . S
C682 H673 0.930 . S
C682 C680 1.378 . S
C682 C683 1.367 . S
C683 C682 1.367 . S
C683 C685 1.433 . S
C684 C680 1.350 . S
C684 C681 1.463 . S
C684 N688 1.427 . S
C685 H675 0.929 . S
C685 C683 1.433 . S
C685 N688 1.384 . S
C686 H677 0.929 . S
C686 C678 1.378 . S
C686 C681 1.350 . S
C687 H674 0.929 . S
C687 C679 1.433 . S
C687 N689 1.384 . S
N688 C684 1.427 . S
N688 C685 1.384 . S
N689 C681 1.427 . S
N689 C687 1.384 . S
H690 C696 0.930 . S
H691 C700 0.930 . S
H692 C705 0.929 . S
H693 C703 0.929 . S
H694 C698 0.929 . S
H695 C704 0.929 . S
C696 H690 0.930 . S
C696 C697 1.367 . S
C696 C704 1.378 . S
C697 C696 1.367 . S
C697 C705 1.433 . S
C698 H694 0.929 . S
C698 C700 1.378 . S
C698 C702 1.350 . S
C699 C702 1.463 . S
C699 C704 1.350 . S
C699 N707 1.427 . S
C700 H691 0.930 . S
C700 C698 1.378 . S
C700 C701 1.367 . S
C701 C700 1.367 . S
C701 C703 1.433 . S
C702 C698 1.350 . S
C702 C699 1.463 . S
C702 N706 1.427 . S
C703 H693 0.929 . S
C703 C701 1.433 . S
C703 N706 1.384 . S
C704 H695 0.929 . S
C704 C696 1.378 . S
C704 C699 1.350 . S
C705 H692 0.929 . S
C705 C697 1.433 . S
C705 N707 1.384 . S
N706 C702 1.427 . S
N706 C703 1.384 . S
N707 C699 1.427 . S
N707 C705 1.384 . S
H708 C714 0.930 . S
H709 C718 0.930 . S
H710 C723 0.929 . S
H711 C721 0.929 . S
H712 C716 0.929 . S
H713 C722 0.929 . S
C714 H708 0.930 . S
C714 C715 1.367 . S
C714 C722 1.378 . S
C715 C714 1.367 . S
C715 C723 1.433 . S
C716 H712 0.929 . S
C716 C718 1.378 . S
C716 C720 1.350 . S
C717 C720 1.463 . S
C717 C722 1.350 . S
C717 N725 1.427 . S
C718 H709 0.930 . S
C718 C716 1.378 . S
C718 C719 1.367 . S
C719 C718 1.367 . S
C719 C721 1.433 . S
C720 C716 1.350 . S
C720 C717 1.463 . S
C720 N724 1.427 . S
C721 H711 0.929 . S
C721 C719 1.433 . S
C721 N724 1.384 . S
C722 H713 0.929 . S
C722 C714 1.378 . S
C722 C717 1.350 . S
C723 H710 0.929 . S
C723 C715 1.433 . S
C723 N725 1.384 . S
N724 C720 1.427 . S
N724 C721 1.384 . S
N725 C717 1.427 . S
N725 C723 1.384 . S
H726 C732 0.930 . S
H727 C736 0.930 . S
H728 C741 0.929 . S
H729 C739 0.929 . S
H730 C734 0.929 . S
H731 C740 0.929 . S
C732 H726 0.930 . S
C732 C733 1.367 . S
C732 C740 1.378 . S
C733 C732 1.367 . S
C733 C741 1.433 . S
C734 H730 0.929 . S
C734 C736 1.378 . S
C734 C738 1.350 . S
C735 C738 1.463 . S
C735 C740 1.350 . S
C735 N743 1.427 . S
C736 H727 0.930 . S
C736 C734 1.378 . S
C736 C737 1.367 . S
C737 C736 1.367 . S
C737 C739 1.433 . S
C738 C734 1.350 . S
C738 C735 1.463 . S
C738 N742 1.427 . S
C739 H729 0.929 . S
C739 C737 1.433 . S
C739 N742 1.384 . S
C740 H731 0.929 . S
C740 C732 1.378 . S
C740 C735 1.350 . S
C741 H728 0.929 . S
C741 C733 1.433 . S
C741 N743 1.384 . S
N742 C738 1.427 . S
N742 C739 1.384 . S
N743 C735 1.427 . S
N743 C741 1.384 . S
H744 C750 0.930 . S
H745 C754 0.930 . S
H746 C759 0.929 . S
H747 C757 0.929 . S
H748 C752 0.929 . S
H749 C758 0.929 . S
C750 H744 0.930 . S
C750 C751 1.367 . S
C750 C758 1.378 . S
C751 C750 1.367 . S
C751 C759 1.433 . S
C752 H748 0.929 . S
C752 C754 1.378 . S
C752 C756 1.350 . S
C753 C756 1.463 . S
C753 C758 1.350 . S
C753 N761 1.427 . S
C754 H745 0.930 . S
C754 C752 1.378 . S
C754 C755 1.367 . S
C755 C754 1.367 . S
C755 C757 1.433 . S
C756 C752 1.350 . S
C756 C753 1.463 . S
C756 N760 1.427 . S
C757 H747 0.929 . S
C757 C755 1.433 . S
C757 N760 1.384 . S
C758 H749 0.929 . S
C758 C750 1.378 . S
C758 C753 1.350 . S
C759 H746 0.929 . S
C759 C751 1.433 . S
C759 N761 1.384 . S
N760 C756 1.427 . S
N760 C757 1.384 . S
N761 C753 1.427 . S
N761 C759 1.384 . S
H762 C768 0.930 . S
H763 C772 0.930 . S
H764 C777 0.929 . S
H765 C775 0.929 . S
H766 C770 0.929 . S
H767 C776 0.929 . S
C768 H762 0.930 . S
C768 C769 1.367 . S
C768 C776 1.378 . S
C769 C768 1.367 . S
C769 C777 1.433 . S
C770 H766 0.929 . S
C770 C772 1.378 . S
C770 C774 1.350 . S
C771 C774 1.463 . S
C771 C776 1.350 . S
C771 N779 1.427 . S
C772 H763 0.930 . S
C772 C770 1.378 . S
C772 C773 1.367 . S
C773 C772 1.367 . S
C773 C775 1.433 . S
C774 C770 1.350 . S
C774 C771 1.463 . S
C774 N778 1.427 . S
C775 H765 0.929 . S
C775 C773 1.433 . S
C775 N778 1.384 . S
C776 H767 0.929 . S
C776 C768 1.378 . S
C776 C771 1.350 . S
C777 H764 0.929 . S
C777 C769 1.433 . S
C777 N779 1.384 . S
N778 C774 1.427 . S
N778 C775 1.384 . S
N779 C771 1.427 . S
N779 C777 1.384 . S
H780 C786 0.930 . S
H781 C790 0.930 . S
H782 C795 0.929 . S
H783 C793 0.929 . S
H784 C788 0.929 . S
H785 C794 0.929 . S
C786 H780 0.930 . S
C786 C787 1.367 . S
C786 C794 1.378 . S
C787 C786 1.367 . S
C787 C795 1.433 . S
C788 H784 0.929 . S
C788 C790 1.378 . S
C788 C792 1.350 . S
C789 C792 1.463 . S
C789 C794 1.350 . S
C789 N797 1.427 . S
C790 H781 0.930 . S
C790 C788 1.378 . S
C790 C791 1.367 . S
C791 C790 1.367 . S
C791 C793 1.433 . S
C792 C788 1.350 . S
C792 C789 1.463 . S
C792 N796 1.427 . S
C793 H783 0.929 . S
C793 C791 1.433 . S
C793 N796 1.384 . S
C794 H785 0.929 . S
C794 C786 1.378 . S
C794 C789 1.350 . S
C795 H782 0.929 . S
C795 C787 1.433 . S
C795 N797 1.384 . S
N796 C792 1.427 . S
N796 C793 1.384 . S
N797 C789 1.427 . S
N797 C795 1.384 . S
H798 C804 0.930 . S
H799 C808 0.930 . S
H800 C813 0.929 . S
H801 C811 0.929 . S
H802 C806 0.929 . S
H803 C812 0.929 . S
C804 H798 0.930 . S
C804 C805 1.367 . S
C804 C812 1.378 . S
C805 C804 1.367 . S
C805 C813 1.433 . S
C806 H802 0.929 . S
C806 C808 1.378 . S
C806 C810 1.350 . S
C807 C810 1.463 . S
C807 C812 1.350 . S
C807 N815 1.427 . S
C808 H799 0.930 . S
C808 C806 1.378 . S
C808 C809 1.367 . S
C809 C808 1.367 . S
C809 C811 1.433 . S
C810 C806 1.350 . S
C810 C807 1.463 . S
C810 N814 1.427 . S
C811 H801 0.929 . S
C811 C809 1.433 . S
C811 N814 1.384 . S
C812 H803 0.929 . S
C812 C804 1.378 . S
C812 C807 1.350 . S
C813 H800 0.929 . S
C813 C805 1.433 . S
C813 N815 1.384 . S
N814 C810 1.427 . S
N814 C811 1.384 . S
N815 C807 1.427 . S
N815 C813 1.384 . S
H816 C822 0.930 . S
H817 C826 0.930 . S
H818 C831 0.929 . S
H819 C829 0.929 . S
H820 C824 0.929 . S
H821 C830 0.929 . S
C822 H816 0.930 . S
C822 C823 1.367 . S
C822 C830 1.378 . S
C823 C822 1.367 . S
C823 C831 1.433 . S
C824 H820 0.929 . S
C824 C826 1.378 . S
C824 C828 1.350 . S
C825 C828 1.463 . S
C825 C830 1.350 . S
C825 N833 1.427 . S
C826 H817 0.930 . S
C826 C824 1.378 . S
C826 C827 1.367 . S
C827 C826 1.367 . S
C827 C829 1.433 . S
C828 C824 1.350 . S
C828 C825 1.463 . S
C828 N832 1.427 . S
C829 H819 0.929 . S
C829 C827 1.433 . S
C829 N832 1.384 . S
C830 H821 0.929 . S
C830 C822 1.378 . S
C830 C825 1.350 . S
C831 H818 0.929 . S
C831 C823 1.433 . S
C831 N833 1.384 . S
N832 C828 1.427 . S
N832 C829 1.384 . S
N833 C825 1.427 . S
N833 C831 1.384 . S
H834 C840 0.930 . S
H835 C844 0.930 . S
H836 C849 0.929 . S
H837 C847 0.929 . S
H838 C842 0.929 . S
H839 C848 0.929 . S
C840 H834 0.930 . S
C840 C841 1.367 . S
C840 C848 1.378 . S
C841 C840 1.367 . S
C841 C849 1.433 . S
C842 H838 0.929 . S
C842 C844 1.378 . S
C842 C846 1.350 . S
C843 C846 1.463 . S
C843 C848 1.350 . S
C843 N851 1.427 . S
C844 H835 0.930 . S
C844 C842 1.378 . S
C844 C845 1.367 . S
C845 C844 1.367 . S
C845 C847 1.433 . S
C846 C842 1.350 . S
C846 C843 1.463 . S
C846 N850 1.427 . S
C847 H837 0.929 . S
C847 C845 1.433 . S
C847 N850 1.384 . S
C848 H839 0.929 . S
C848 C840 1.378 . S
C848 C843 1.350 . S
C849 H836 0.929 . S
C849 C841 1.433 . S
C849 N851 1.384 . S
N850 C846 1.427 . S
N850 C847 1.384 . S
N851 C843 1.427 . S
N851 C849 1.384 . S
H852 C858 0.930 . S
H853 C862 0.930 . S
H854 C867 0.929 . S
H855 C865 0.929 . S
H856 C860 0.929 . S
H857 C866 0.929 . S
C858 H852 0.930 . S
C858 C859 1.367 . S
C858 C866 1.378 . S
C859 C858 1.367 . S
C859 C867 1.433 . S
C860 H856 0.929 . S
C860 C862 1.378 . S
C860 C864 1.350 . S
C861 C864 1.463 . S
C861 C866 1.350 . S
C861 N869 1.427 . S
C862 H853 0.930 . S
C862 C860 1.378 . S
C862 C863 1.367 . S
C863 C862 1.367 . S
C863 C865 1.433 . S
C864 C860 1.350 . S
C864 C861 1.463 . S
C864 N868 1.427 . S
C865 H855 0.929 . S
C865 C863 1.433 . S
C865 N868 1.384 . S
C866 H857 0.929 . S
C866 C858 1.378 . S
C866 C861 1.350 . S
C867 H854 0.929 . S
C867 C859 1.433 . S
C867 N869 1.384 . S
N868 C864 1.427 . S
N868 C865 1.384 . S
N869 C861 1.427 . S
N869 C867 1.384 . S
H870 C876 0.930 . S
H871 C880 0.930 . S
H872 C885 0.929 . S
H873 C883 0.929 . S
H874 C878 0.929 . S
H875 C884 0.929 . S
C876 H870 0.930 . S
C876 C877 1.367 . S
C876 C884 1.378 . S
C877 C876 1.367 . S
C877 C885 1.433 . S
C878 H874 0.929 . S
C878 C880 1.378 . S
C878 C882 1.350 . S
C879 C882 1.463 . S
C879 C884 1.350 . S
C879 N887 1.427 . S
C880 H871 0.930 . S
C880 C878 1.378 . S
C880 C881 1.367 . S
C881 C880 1.367 . S
C881 C883 1.433 . S
C882 C878 1.350 . S
C882 C879 1.463 . S
C882 N886 1.427 . S
C883 H873 0.929 . S
C883 C881 1.433 . S
C883 N886 1.384 . S
C884 H875 0.929 . S
C884 C876 1.378 . S
C884 C879 1.350 . S
C885 H872 0.929 . S
C885 C877 1.433 . S
C885 N887 1.384 . S
N886 C882 1.427 . S
N886 C883 1.384 . S
N887 C879 1.427 . S
N887 C885 1.384 . S
H888 C894 0.930 . S
H889 C898 0.930 . S
H890 C903 0.929 . S
H891 C901 0.929 . S
H892 C896 0.929 . S
H893 C902 0.929 . S
C894 H888 0.930 . S
C894 C895 1.367 . S
C894 C902 1.378 . S
C895 C894 1.367 . S
C895 C903 1.433 . S
C896 H892 0.929 . S
C896 C898 1.378 . S
C896 C900 1.350 . S
C897 C900 1.463 . S
C897 C902 1.350 . S
C897 N905 1.427 . S
C898 H889 0.930 . S
C898 C896 1.378 . S
C898 C899 1.367 . S
C899 C898 1.367 . S
C899 C901 1.433 . S
C900 C896 1.350 . S
C900 C897 1.463 . S
C900 N904 1.427 . S
C901 H891 0.929 . S
C901 C899 1.433 . S
C901 N904 1.384 . S
C902 H893 0.929 . S
C902 C894 1.378 . S
C902 C897 1.350 . S
C903 H890 0.929 . S
C903 C895 1.433 . S
C903 N905 1.384 . S
N904 C900 1.427 . S
N904 C901 1.384 . S
N905 C897 1.427 . S
N905 C903 1.384 . S
H906 C912 0.930 . S
H907 C916 0.930 . S
H908 C921 0.929 . S
H909 C919 0.929 . S
H910 C914 0.929 . S
H911 C920 0.929 . S
C912 H906 0.930 . S
C912 C913 1.367 . S
C912 C920 1.378 . S
C913 C912 1.367 . S
C913 C921 1.433 . S
C914 H910 0.929 . S
C914 C916 1.378 . S
C914 C918 1.350 . S
C915 C918 1.463 . S
C915 C920 1.350 . S
C915 N923 1.427 . S
C916 H907 0.930 . S
C916 C914 1.378 . S
C916 C917 1.367 . S
C917 C916 1.367 . S
C917 C919 1.433 . S
C918 C914 1.350 . S
C918 C915 1.463 . S
C918 N922 1.427 . S
C919 H909 0.929 . S
C919 C917 1.433 . S
C919 N922 1.384 . S
C920 H911 0.929 . S
C920 C912 1.378 . S
C920 C915 1.350 . S
C921 H908 0.929 . S
C921 C913 1.433 . S
C921 N923 1.384 . S
N922 C918 1.427 . S
N922 C919 1.384 . S
N923 C915 1.427 . S
N923 C921 1.384 . S
H924 C930 0.930 . S
H925 C934 0.930 . S
H926 C939 0.929 . S
H927 C937 0.929 . S
H928 C932 0.929 . S
H929 C938 0.929 . S
C930 H924 0.930 . S
C930 C931 1.367 . S
C930 C938 1.378 . S
C931 C930 1.367 . S
C931 C939 1.433 . S
C932 H928 0.929 . S
C932 C934 1.378 . S
C932 C936 1.350 . S
C933 C936 1.463 . S
C933 C938 1.350 . S
C933 N941 1.427 . S
C934 H925 0.930 . S
C934 C932 1.378 . S
C934 C935 1.367 . S
C935 C934 1.367 . S
C935 C937 1.433 . S
C936 C932 1.350 . S
C936 C933 1.463 . S
C936 N940 1.427 . S
C937 H927 0.929 . S
C937 C935 1.433 . S
C937 N940 1.384 . S
C938 H929 0.929 . S
C938 C930 1.378 . S
C938 C933 1.350 . S
C939 H926 0.929 . S
C939 C931 1.433 . S
C939 N941 1.384 . S
N940 C936 1.427 . S
N940 C937 1.384 . S
N941 C933 1.427 . S
N941 C939 1.384 . S
H942 C948 0.930 . S
H943 C952 0.930 . S
H944 C957 0.929 . S
H945 C955 0.929 . S
H946 C950 0.929 . S
H947 C956 0.929 . S
C948 H942 0.930 . S
C948 C949 1.367 . S
C948 C956 1.378 . S
C949 C948 1.367 . S
C949 C957 1.433 . S
C950 H946 0.929 . S
C950 C952 1.378 . S
C950 C954 1.350 . S
C951 C954 1.463 . S
C951 C956 1.350 . S
C951 N959 1.427 . S
C952 H943 0.930 . S
C952 C950 1.378 . S
C952 C953 1.367 . S
C953 C952 1.367 . S
C953 C955 1.433 . S
C954 C950 1.350 . S
C954 C951 1.463 . S
C954 N958 1.427 . S
C955 H945 0.929 . S
C955 C953 1.433 . S
C955 N958 1.384 . S
C956 H947 0.929 . S
C956 C948 1.378 . S
C956 C951 1.350 . S
C957 H944 0.929 . S
C957 C949 1.433 . S
C957 N959 1.384 . S
N958 C954 1.427 . S
N958 C955 1.384 . S
N959 C951 1.427 . S
N959 C957 1.384 . S
H960 C966 0.930 . S
H961 C970 0.930 . S
H962 C975 0.929 . S
H963 C973 0.929 . S
H964 C968 0.929 . S
H965 C974 0.929 . S
C966 H960 0.930 . S
C966 C967 1.367 . S
C966 C974 1.378 . S
C967 C966 1.367 . S
C967 C975 1.433 . S
C968 H964 0.929 . S
C968 C970 1.378 . S
C968 C972 1.350 . S
C969 C972 1.463 . S
C969 C974 1.350 . S
C969 N977 1.427 . S
C970 H961 0.930 . S
C970 C968 1.378 . S
C970 C971 1.367 . S
C971 C970 1.367 . S
C971 C973 1.433 . S
C972 C968 1.350 . S
C972 C969 1.463 . S
C972 N976 1.427 . S
C973 H963 0.929 . S
C973 C971 1.433 . S
C973 N976 1.384 . S
C974 H965 0.929 . S
C974 C966 1.378 . S
C974 C969 1.350 . S
C975 H962 0.929 . S
C975 C967 1.433 . S
C975 N977 1.384 . S
N976 C972 1.427 . S
N976 C973 1.384 . S
N977 C969 1.427 . S
N977 C975 1.384 . S
H978 C984 0.930 . S
H979 C988 0.930 . S
H980 C993 0.929 . S
H981 C991 0.929 . S
H982 C986 0.929 . S
H983 C992 0.929 . S
C984 H978 0.930 . S
C984 C985 1.367 . S
C984 C992 1.378 . S
C985 C984 1.367 . S
C985 C993 1.433 . S
C986 H982 0.929 . S
C986 C988 1.378 . S
C986 C990 1.350 . S
C987 C990 1.463 . S
C987 C992 1.350 . S
C987 N995 1.427 . S
C988 H979 0.930 . S
C988 C986 1.378 . S
C988 C989 1.367 . S
C989 C988 1.367 . S
C989 C991 1.433 . S
C990 C986 1.350 . S
C990 C987 1.463 . S
C990 N994 1.427 . S
C991 H981 0.929 . S
C991 C989 1.433 . S
C991 N994 1.384 . S
C992 H983 0.929 . S
C992 C984 1.378 . S
C992 C987 1.350 . S
C993 H980 0.929 . S
C993 C985 1.433 . S
C993 N995 1.384 . S
N994 C990 1.427 . S
N994 C991 1.384 . S
N995 C987 1.427 . S
N995 C993 1.384 . S
H996 C1002 0.930 . S
H997 C1006 0.930 . S
H998 C1011 0.929 . S
H999 C1009 0.929 . S
H1000 C1004 0.929 . S
H1001 C1010 0.929 . S
C1002 H996 0.930 . S
C1002 C1003 1.367 . S
C1002 C1010 1.378 . S
C1003 C1002 1.367 . S
C1003 C1011 1.433 . S
C1004 H1000 0.929 . S
C1004 C1006 1.378 . S
C1004 C1008 1.350 . S
C1005 C1008 1.463 . S
C1005 C1010 1.350 . S
C1005 N1013 1.427 . S
C1006 H997 0.930 . S
C1006 C1004 1.378 . S
C1006 C1007 1.367 . S
C1007 C1006 1.367 . S
C1007 C1009 1.433 . S
C1008 C1004 1.350 . S
C1008 C1005 1.463 . S
C1008 N1012 1.427 . S
C1009 H999 0.929 . S
C1009 C1007 1.433 . S
C1009 N1012 1.384 . S
C1010 H1001 0.929 . S
C1010 C1002 1.378 . S
C1010 C1005 1.350 . S
C1011 H998 0.929 . S
C1011 C1003 1.433 . S
C1011 N1013 1.384 . S
N1012 C1008 1.427 . S
N1012 C1009 1.384 . S
N1013 C1005 1.427 . S
N1013 C1011 1.384 . S
H1014 C1020 0.930 . S
H1015 C1024 0.930 . S
H1016 C1029 0.929 . S
H1017 C1027 0.929 . S
H1018 C1022 0.929 . S
H1019 C1028 0.929 . S
C1020 H1014 0.930 . S
C1020 C1021 1.367 . S
C1020 C1028 1.378 . S
C1021 C1020 1.367 . S
C1021 C1029 1.433 . S
C1022 H1018 0.929 . S
C1022 C1024 1.378 . S
C1022 C1026 1.350 . S
C1023 C1026 1.463 . S
C1023 C1028 1.350 . S
C1023 N1031 1.427 . S
C1024 H1015 0.930 . S
C1024 C1022 1.378 . S
C1024 C1025 1.367 . S
C1025 C1024 1.367 . S
C1025 C1027 1.433 . S
C1026 C1022 1.350 . S
C1026 C1023 1.463 . S
C1026 N1030 1.427 . S
C1027 H1017 0.929 . S
C1027 C1025 1.433 . S
C1027 N1030 1.384 . S
C1028 H1019 0.929 . S
C1028 C1020 1.378 . S
C1028 C1023 1.350 . S
C1029 H1016 0.929 . S
C1029 C1021 1.433 . S
C1029 N1031 1.384 . S
N1030 C1026 1.427 . S
N1030 C1027 1.384 . S
N1031 C1023 1.427 . S
N1031 C1029 1.384 . S
H1032 C1038 0.930 . S
H1033 C1042 0.930 . S
H1034 C1047 0.929 . S
H1035 C1045 0.929 . S
H1036 C1040 0.929 . S
H1037 C1046 0.929 . S
C1038 H1032 0.930 . S
C1038 C1039 1.367 . S
C1038 C1046 1.378 . S
C1039 C1038 1.367 . S
C1039 C1047 1.433 . S
C1040 H1036 0.929 . S
C1040 C1042 1.378 . S
C1040 C1044 1.350 . S
C1041 C1044 1.463 . S
C1041 C1046 1.350 . S
C1041 N1049 1.427 . S
C1042 H1033 0.930 . S
C1042 C1040 1.378 . S
C1042 C1043 1.367 . S
C1043 C1042 1.367 . S
C1043 C1045 1.433 . S
C1044 C1040 1.350 . S
C1044 C1041 1.463 . S
C1044 N1048 1.427 . S
C1045 H1035 0.929 . S
C1045 C1043 1.433 . S
C1045 N1048 1.384 . S
C1046 H1037 0.929 . S
C1046 C1038 1.378 . S
C1046 C1041 1.350 . S
C1047 H1034 0.929 . S
C1047 C1039 1.433 . S
C1047 N1049 1.384 . S
N1048 C1044 1.427 . S
N1048 C1045 1.384 . S
N1049 C1041 1.427 . S
N1049 C1047 1.384 . S
H1050 C1056 0.930 . S
H1051 C1060 0.930 . S
H1052 C1065 0.929 . S
H1053 C1063 0.929 . S
H1054 C1058 0.929 . S
H1055 C1064 0.929 . S
C1056 H1050 0.930 . S
C1056 C1057 1.367 . S
C1056 C1064 1.378 . S
C1057 C1056 1.367 . S
C1057 C1065 1.433 . S
C1058 H1054 0.929 . S
C1058 C1060 1.378 . S
C1058 C1062 1.350 . S
C1059 C1062 1.463 . S
C1059 C1064 1.350 . S
C1059 N1067 1.427 . S
C1060 H1051 0.930 . S
C1060 C1058 1.378 . S
C1060 C1061 1.367 . S
C1061 C1060 1.367 . S
C1061 C1063 1.433 . S
C1062 C1058 1.350 . S
C1062 C1059 1.463 . S
C1062 N1066 1.427 . S
C1063 H1053 0.929 . S
C1063 C1061 1.433 . S
C1063 N1066 1.384 . S
C1064 H1055 0.929 . S
C1064 C1056 1.378 . S
C1064 C1059 1.350 . S
C1065 H1052 0.929 . S
C1065 C1057 1.433 . S
C1065 N1067 1.384 . S
N1066 C1062 1.427 . S
N1066 C1063 1.384 . S
N1067 C1059 1.427 . S
N1067 C1065 1.384 . S
H1068 C1074 0.930 . S
H1069 C1078 0.930 . S
H1070 C1083 0.929 . S
H1071 C1081 0.929 . S
H1072 C1076 0.929 . S
H1073 C1082 0.929 . S
C1074 H1068 0.930 . S
C1074 C1075 1.367 . S
C1074 C1082 1.378 . S
C1075 C1074 1.367 . S
C1075 C1083 1.433 . S
C1076 H1072 0.929 . S
C1076 C1078 1.378 . S
C1076 C1080 1.350 . S
C1077 C1080 1.463 . S
C1077 C1082 1.350 . S
C1077 N1085 1.427 . S
C1078 H1069 0.930 . S
C1078 C1076 1.378 . S
C1078 C1079 1.367 . S
C1079 C1078 1.367 . S
C1079 C1081 1.433 . S
C1080 C1076 1.350 . S
C1080 C1077 1.463 . S
C1080 N1084 1.427 . S
C1081 H1071 0.929 . S
C1081 C1079 1.433 . S
C1081 N1084 1.384 . S
C1082 H1073 0.929 . S
C1082 C1074 1.378 . S
C1082 C1077 1.350 . S
C1083 H1070 0.929 . S
C1083 C1075 1.433 . S
C1083 N1085 1.384 . S
N1084 C1080 1.427 . S
N1084 C1081 1.384 . S
N1085 C1077 1.427 . S
N1085 C1083 1.384 . S
H1086 C1092 0.930 . S
H1087 C1096 0.930 . S
H1088 C1101 0.929 . S
H1089 C1099 0.929 . S
H1090 C1094 0.929 . S
H1091 C1100 0.929 . S
C1092 H1086 0.930 . S
C1092 C1093 1.367 . S
C1092 C1100 1.378 . S
C1093 C1092 1.367 . S
C1093 C1101 1.433 . S
C1094 H1090 0.929 . S
C1094 C1096 1.378 . S
C1094 C1098 1.350 . S
C1095 C1098 1.463 . S
C1095 C1100 1.350 . S
C1095 N1103 1.427 . S
C1096 H1087 0.930 . S
C1096 C1094 1.378 . S
C1096 C1097 1.367 . S
C1097 C1096 1.367 . S
C1097 C1099 1.433 . S
C1098 C1094 1.350 . S
C1098 C1095 1.463 . S
C1098 N1102 1.427 . S
C1099 H1089 0.929 . S
C1099 C1097 1.433 . S
C1099 N1102 1.384 . S
C1100 H1091 0.929 . S
C1100 C1092 1.378 . S
C1100 C1095 1.350 . S
C1101 H1088 0.929 . S
C1101 C1093 1.433 . S
C1101 N1103 1.384 . S
N1102 C1098 1.427 . S
N1102 C1099 1.384 . S
N1103 C1095 1.427 . S
N1103 C1101 1.384 . S
H1104 C1110 0.930 . S
H1105 C1114 0.930 . S
H1106 C1119 0.929 . S
H1107 C1117 0.929 . S
H1108 C1112 0.929 . S
H1109 C1118 0.929 . S
C1110 H1104 0.930 . S
C1110 C1111 1.367 . S
C1110 C1118 1.378 . S
C1111 C1110 1.367 . S
C1111 C1119 1.433 . S
C1112 H1108 0.929 . S
C1112 C1114 1.378 . S
C1112 C1116 1.350 . S
C1113 C1116 1.463 . S
C1113 C1118 1.350 . S
C1113 N1121 1.427 . S
C1114 H1105 0.930 . S
C1114 C1112 1.378 . S
C1114 C1115 1.367 . S
C1115 C1114 1.367 . S
C1115 C1117 1.433 . S
C1116 C1112 1.350 . S
C1116 C1113 1.463 . S
C1116 N1120 1.427 . S
C1117 H1107 0.929 . S
C1117 C1115 1.433 . S
C1117 N1120 1.384 . S
C1118 H1109 0.929 . S
C1118 C1110 1.378 . S
C1118 C1113 1.350 . S
C1119 H1106 0.929 . S
C1119 C1111 1.433 . S
C1119 N1121 1.384 . S
N1120 C1116 1.427 . S
N1120 C1117 1.384 . S
N1121 C1113 1.427 . S
N1121 C1119 1.384 . S
H1122 C1128 0.930 . S
H1123 C1132 0.930 . S
H1124 C1137 0.929 . S
H1125 C1135 0.929 . S
H1126 C1130 0.929 . S
H1127 C1136 0.929 . S
C1128 H1122 0.930 . S
C1128 C1129 1.367 . S
C1128 C1136 1.378 . S
C1129 C1128 1.367 . S
C1129 C1137 1.433 . S
C1130 H1126 0.929 . S
C1130 C1132 1.378 . S
C1130 C1134 1.350 . S
C1131 C1134 1.463 . S
C1131 C1136 1.350 . S
C1131 N1139 1.427 . S
C1132 H1123 0.930 . S
C1132 C1130 1.378 . S
C1132 C1133 1.367 . S
C1133 C1132 1.367 . S
C1133 C1135 1.433 . S
C1134 C1130 1.350 . S
C1134 C1131 1.463 . S
C1134 N1138 1.427 . S
C1135 H1125 0.929 . S
C1135 C1133 1.433 . S
C1135 N1138 1.384 . S
C1136 H1127 0.929 . S
C1136 C1128 1.378 . S
C1136 C1131 1.350 . S
C1137 H1124 0.929 . S
C1137 C1129 1.433 . S
C1137 N1139 1.384 . S
N1138 C1134 1.427 . S
N1138 C1135 1.384 . S
N1139 C1131 1.427 . S
N1139 C1137 1.384 . S
H1140 C1146 0.930 . S
H1141 C1150 0.930 . S
H1142 C1155 0.929 . S
H1143 C1153 0.929 . S
H1144 C1148 0.929 . S
H1145 C1154 0.929 . S
C1146 H1140 0.930 . S
C1146 C1147 1.367 . S
C1146 C1154 1.378 . S
C1147 C1146 1.367 . S
C1147 C1155 1.433 . S
C1148 H1144 0.929 . S
C1148 C1150 1.378 . S
C1148 C1152 1.350 . S
C1149 C1152 1.463 . S
C1149 C1154 1.350 . S
C1149 N1157 1.427 . S
C1150 H1141 0.930 . S
C1150 C1148 1.378 . S
C1150 C1151 1.367 . S
C1151 C1150 1.367 . S
C1151 C1153 1.433 . S
C1152 C1148 1.350 . S
C1152 C1149 1.463 . S
C1152 N1156 1.427 . S
C1153 H1143 0.929 . S
C1153 C1151 1.433 . S
C1153 N1156 1.384 . S
C1154 H1145 0.929 . S
C1154 C1146 1.378 . S
C1154 C1149 1.350 . S
C1155 H1142 0.929 . S
C1155 C1147 1.433 . S
C1155 N1157 1.384 . S
N1156 C1152 1.427 . S
N1156 C1153 1.384 . S
N1157 C1149 1.427 . S
N1157 C1155 1.384 . S
H1158 C1164 0.930 . S
H1159 C1168 0.930 . S
H1160 C1173 0.929 . S
H1161 C1171 0.929 . S
H1162 C1166 0.929 . S
H1163 C1172 0.929 . S
C1164 H1158 0.930 . S
C1164 C1165 1.367 . S
C1164 C1172 1.378 . S
C1165 C1164 1.367 . S
C1165 C1173 1.433 . S
C1166 H1162 0.929 . S
C1166 C1168 1.378 . S
C1166 C1170 1.350 . S
C1167 C1170 1.463 . S
C1167 C1172 1.350 . S
C1167 N1175 1.427 . S
C1168 H1159 0.930 . S
C1168 C1166 1.378 . S
C1168 C1169 1.367 . S
C1169 C1168 1.367 . S
C1169 C1171 1.433 . S
C1170 C1166 1.350 . S
C1170 C1167 1.463 . S
C1170 N1174 1.427 . S
C1171 H1161 0.929 . S
C1171 C1169 1.433 . S
C1171 N1174 1.384 . S
C1172 H1163 0.929 . S
C1172 C1164 1.378 . S
C1172 C1167 1.350 . S
C1173 H1160 0.929 . S
C1173 C1165 1.433 . S
C1173 N1175 1.384 . S
N1174 C1170 1.427 . S
N1174 C1171 1.384 . S
N1175 C1167 1.427 . S
N1175 C1173 1.384 . S
H1176 C1182 0.930 . S
H1177 C1186 0.930 . S
H1178 C1191 0.929 . S
H1179 C1189 0.929 . S
H1180 C1184 0.929 . S
H1181 C1190 0.929 . S
C1182 H1176 0.930 . S
C1182 C1183 1.367 . S
C1182 C1190 1.378 . S
C1183 C1182 1.367 . S
C1183 C1191 1.433 . S
C1184 H1180 0.929 . S
C1184 C1186 1.378 . S
C1184 C1188 1.350 . S
C1185 C1188 1.463 . S
C1185 C1190 1.350 . S
C1185 N1193 1.427 . S
C1186 H1177 0.930 . S
C1186 C1184 1.378 . S
C1186 C1187 1.367 . S
C1187 C1186 1.367 . S
C1187 C1189 1.433 . S
C1188 C1184 1.350 . S
C1188 C1185 1.463 . S
C1188 N1192 1.427 . S
C1189 H1179 0.929 . S
C1189 C1187 1.433 . S
C1189 N1192 1.384 . S
C1190 H1181 0.929 . S
C1190 C1182 1.378 . S
C1190 C1185 1.350 . S
C1191 H1178 0.929 . S
C1191 C1183 1.433 . S
C1191 N1193 1.384 . S
N1192 C1188 1.427 . S
N1192 C1189 1.384 . S
N1193 C1185 1.427 . S
N1193 C1191 1.384 . S
H1194 C1200 0.930 . S
H1195 C1204 0.930 . S
H1196 C1209 0.929 . S
H1197 C1207 0.929 . S
H1198 C1202 0.929 . S
H1199 C1208 0.929 . S
C1200 H1194 0.930 . S
C1200 C1201 1.367 . S
C1200 C1208 1.378 . S
C1201 C1200 1.367 . S
C1201 C1209 1.433 . S
C1202 H1198 0.929 . S
C1202 C1204 1.378 . S
C1202 C1206 1.350 . S
C1203 C1206 1.463 . S
C1203 C1208 1.350 . S
C1203 N1211 1.427 . S
C1204 H1195 0.930 . S
C1204 C1202 1.378 . S
C1204 C1205 1.367 . S
C1205 C1204 1.367 . S
C1205 C1207 1.433 . S
C1206 C1202 1.350 . S
C1206 C1203 1.463 . S
C1206 N1210 1.427 . S
C1207 H1197 0.929 . S
C1207 C1205 1.433 . S
C1207 N1210 1.384 . S
C1208 H1199 0.929 . S
C1208 C1200 1.378 . S
C1208 C1203 1.350 . S
C1209 H1196 0.929 . S
C1209 C1201 1.433 . S
C1209 N1211 1.384 . S
N1210 C1206 1.427 . S
N1210 C1207 1.384 . S
N1211 C1203 1.427 . S
N1211 C1209 1.384 . S
H1212 C1218 0.930 . S
H1213 C1222 0.930 . S
H1214 C1227 0.929 . S
H1215 C1225 0.929 . S
H1216 C1220 0.929 . S
H1217 C1226 0.929 . S
C1218 H1212 0.930 . S
C1218 C1219 1.367 . S
C1218 C1226 1.378 . S
C1219 C1218 1.367 . S
C1219 C1227 1.433 . S
C1220 H1216 0.929 . S
C1220 C1222 1.378 . S
C1220 C1224 1.350 . S
C1221 C1224 1.463 . S
C1221 C1226 1.350 . S
C1221 N1229 1.427 . S
C1222 H1213 0.930 . S
C1222 C1220 1.378 . S
C1222 C1223 1.367 . S
C1223 C1222 1.367 . S
C1223 C1225 1.433 . S
C1224 C1220 1.350 . S
C1224 C1221 1.463 . S
C1224 N1228 1.427 . S
C1225 H1215 0.929 . S
C1225 C1223 1.433 . S
C1225 N1228 1.384 . S
C1226 H1217 0.929 . S
C1226 C1218 1.378 . S
C1226 C1221 1.350 . S
C1227 H1214 0.929 . S
C1227 C1219 1.433 . S
C1227 N1229 1.384 . S
N1228 C1224 1.427 . S
N1228 C1225 1.384 . S
N1229 C1221 1.427 . S
N1229 C1227 1.384 . S
H1230 C1236 0.930 . S
H1231 C1240 0.930 . S
H1232 C1245 0.929 . S
H1233 C1243 0.929 . S
H1234 C1238 0.929 . S
H1235 C1244 0.929 . S
C1236 H1230 0.930 . S
C1236 C1237 1.367 . S
C1236 C1244 1.378 . S
C1237 C1236 1.367 . S
C1237 C1245 1.433 . S
C1238 H1234 0.929 . S
C1238 C1240 1.378 . S
C1238 C1242 1.350 . S
C1239 C1242 1.463 . S
C1239 C1244 1.350 . S
C1239 N1247 1.427 . S
C1240 H1231 0.930 . S
C1240 C1238 1.378 . S
C1240 C1241 1.367 . S
C1241 C1240 1.367 . S
C1241 C1243 1.433 . S
C1242 C1238 1.350 . S
C1242 C1239 1.463 . S
C1242 N1246 1.427 . S
C1243 H1233 0.929 . S
C1243 C1241 1.433 . S
C1243 N1246 1.384 . S
C1244 H1235 0.929 . S
C1244 C1236 1.378 . S
C1244 C1239 1.350 . S
C1245 H1232 0.929 . S
C1245 C1237 1.433 . S
C1245 N1247 1.384 . S
N1246 C1242 1.427 . S
N1246 C1243 1.384 . S
N1247 C1239 1.427 . S
N1247 C1245 1.384 . S
H1248 C1254 0.930 . S
H1249 C1258 0.930 . S
H1250 C1263 0.929 . S
H1251 C1261 0.929 . S
H1252 C1256 0.929 . S
H1253 C1262 0.929 . S
C1254 H1248 0.930 . S
C1254 C1255 1.367 . S
C1254 C1262 1.378 . S
C1255 C1254 1.367 . S
C1255 C1263 1.433 . S
C1256 H1252 0.929 . S
C1256 C1258 1.378 . S
C1256 C1260 1.350 . S
C1257 C1260 1.463 . S
C1257 C1262 1.350 . S
C1257 N1265 1.427 . S
C1258 H1249 0.930 . S
C1258 C1256 1.378 . S
C1258 C1259 1.367 . S
C1259 C1258 1.367 . S
C1259 C1261 1.433 . S
C1260 C1256 1.350 . S
C1260 C1257 1.463 . S
C1260 N1264 1.427 . S
C1261 H1251 0.929 . S
C1261 C1259 1.433 . S
C1261 N1264 1.384 . S
C1262 H1253 0.929 . S
C1262 C1254 1.378 . S
C1262 C1257 1.350 . S
C1263 H1250 0.929 . S
C1263 C1255 1.433 . S
C1263 N1265 1.384 . S
N1264 C1260 1.427 . S
N1264 C1261 1.384 . S
N1265 C1257 1.427 . S
N1265 C1263 1.384 . S
H1266 C1272 0.930 . S
H1267 C1276 0.930 . S
H1268 C1281 0.929 . S
H1269 C1279 0.929 . S
H1270 C1274 0.929 . S
H1271 C1280 0.929 . S
C1272 H1266 0.930 . S
C1272 C1273 1.367 . S
C1272 C1280 1.378 . S
C1273 C1272 1.367 . S
C1273 C1281 1.433 . S
C1274 H1270 0.929 . S
C1274 C1276 1.378 . S
C1274 C1278 1.350 . S
C1275 C1278 1.463 . S
C1275 C1280 1.350 . S
C1275 N1283 1.427 . S
C1276 H1267 0.930 . S
C1276 C1274 1.378 . S
C1276 C1277 1.367 . S
C1277 C1276 1.367 . S
C1277 C1279 1.433 . S
C1278 C1274 1.350 . S
C1278 C1275 1.463 . S
C1278 N1282 1.427 . S
C1279 H1269 0.929 . S
C1279 C1277 1.433 . S
C1279 N1282 1.384 . S
C1280 H1271 0.929 . S
C1280 C1272 1.378 . S
C1280 C1275 1.350 . S
C1281 H1268 0.929 . S
C1281 C1273 1.433 . S
C1281 N1283 1.384 . S
N1282 C1278 1.427 . S
N1282 C1279 1.384 . S
N1283 C1275 1.427 . S
N1283 C1281 1.384 . S
H1284 C1290 0.930 . S
H1285 C1294 0.930 . S
H1286 C1299 0.929 . S
H1287 C1297 0.929 . S
H1288 C1292 0.929 . S
H1289 C1298 0.929 . S
C1290 H1284 0.930 . S
C1290 C1291 1.367 . S
C1290 C1298 1.378 . S
C1291 C1290 1.367 . S
C1291 C1299 1.433 . S
C1292 H1288 0.929 . S
C1292 C1294 1.378 . S
C1292 C1296 1.350 . S
C1293 C1296 1.463 . S
C1293 C1298 1.350 . S
C1293 N1301 1.427 . S
C1294 H1285 0.930 . S
C1294 C1292 1.378 . S
C1294 C1295 1.367 . S
C1295 C1294 1.367 . S
C1295 C1297 1.433 . S
C1296 C1292 1.350 . S
C1296 C1293 1.463 . S
C1296 N1300 1.427 . S
C1297 H1287 0.929 . S
C1297 C1295 1.433 . S
C1297 N1300 1.384 . S
C1298 H1289 0.929 . S
C1298 C1290 1.378 . S
C1298 C1293 1.350 . S
C1299 H1286 0.929 . S
C1299 C1291 1.433 . S
C1299 N1301 1.384 . S
N1300 C1296 1.427 . S
N1300 C1297 1.384 . S
N1301 C1293 1.427 . S
N1301 C1299 1.384 . S
H1302 C1308 0.930 . S
H1303 C1312 0.930 . S
H1304 C1317 0.929 . S
H1305 C1315 0.929 . S
H1306 C1310 0.929 . S
H1307 C1316 0.929 . S
C1308 H1302 0.930 . S
C1308 C1309 1.367 . S
C1308 C1316 1.378 . S
C1309 C1308 1.367 . S
C1309 C1317 1.433 . S
C1310 H1306 0.929 . S
C1310 C1312 1.378 . S
C1310 C1314 1.350 . S
C1311 C1314 1.463 . S
C1311 C1316 1.350 . S
C1311 N1319 1.427 . S
C1312 H1303 0.930 . S
C1312 C1310 1.378 . S
C1312 C1313 1.367 . S
C1313 C1312 1.367 . S
C1313 C1315 1.433 . S
C1314 C1310 1.350 . S
C1314 C1311 1.463 . S
C1314 N1318 1.427 . S
C1315 H1305 0.929 . S
C1315 C1313 1.433 . S
C1315 N1318 1.384 . S
C1316 H1307 0.929 . S
C1316 C1308 1.378 . S
C1316 C1311 1.350 . S
C1317 H1304 0.929 . S
C1317 C1309 1.433 . S
C1317 N1319 1.384 . S
N1318 C1314 1.427 . S
N1318 C1315 1.384 . S
N1319 C1311 1.427 . S
N1319 C1317 1.384 . S
H1320 C1326 0.930 . S
H1321 C1330 0.930 . S
H1322 C1335 0.929 . S
H1323 C1333 0.929 . S
H1324 C1328 0.929 . S
H1325 C1334 0.929 . S
C1326 H1320 0.930 . S
C1326 C1327 1.367 . S
C1326 C1334 1.378 . S
C1327 C1326 1.367 . S
C1327 C1335 1.433 . S
C1328 H1324 0.929 . S
C1328 C1330 1.378 . S
C1328 C1332 1.350 . S
C1329 C1332 1.463 . S
C1329 C1334 1.350 . S
C1329 N1337 1.427 . S
C1330 H1321 0.930 . S
C1330 C1328 1.378 . S
C1330 C1331 1.367 . S
C1331 C1330 1.367 . S
C1331 C1333 1.433 . S
C1332 C1328 1.350 . S
C1332 C1329 1.463 . S
C1332 N1336 1.427 . S
C1333 H1323 0.929 . S
C1333 C1331 1.433 . S
C1333 N1336 1.384 . S
C1334 H1325 0.929 . S
C1334 C1326 1.378 . S
C1334 C1329 1.350 . S
C1335 H1322 0.929 . S
C1335 C1327 1.433 . S
C1335 N1337 1.384 . S
N1336 C1332 1.427 . S
N1336 C1333 1.384 . S
N1337 C1329 1.427 . S
N1337 C1335 1.384 . S
H1338 C1344 0.930 . S
H1339 C1348 0.930 . S
H1340 C1353 0.929 . S
H1341 C1351 0.929 . S
H1342 C1346 0.929 . S
H1343 C1352 0.929 . S
C1344 H1338 0.930 . S
C1344 C1345 1.367 . S
C1344 C1352 1.378 . S
C1345 C1344 1.367 . S
C1345 C1353 1.433 . S
C1346 H1342 0.929 . S
C1346 C1348 1.378 . S
C1346 C1350 1.350 . S
C1347 C1350 1.463 . S
C1347 C1352 1.350 . S
C1347 N1355 1.427 . S
C1348 H1339 0.930 . S
C1348 C1346 1.378 . S
C1348 C1349 1.367 . S
C1349 C1348 1.367 . S
C1349 C1351 1.433 . S
C1350 C1346 1.350 . S
C1350 C1347 1.463 . S
C1350 N1354 1.427 . S
C1351 H1341 0.929 . S
C1351 C1349 1.433 . S
C1351 N1354 1.384 . S
C1352 H1343 0.929 . S
C1352 C1344 1.378 . S
C1352 C1347 1.350 . S
C1353 H1340 0.929 . S
C1353 C1345 1.433 . S
C1353 N1355 1.384 . S
N1354 C1350 1.427 . S
N1354 C1351 1.384 . S
N1355 C1347 1.427 . S
N1355 C1353 1.384 . S
H1356 C1362 0.930 . S
H1357 C1366 0.930 . S
H1358 C1371 0.929 . S
H1359 C1369 0.929 . S
H1360 C1364 0.929 . S
H1361 C1370 0.929 . S
C1362 H1356 0.930 . S
C1362 C1363 1.367 . S
C1362 C1370 1.378 . S
C1363 C1362 1.367 . S
C1363 C1371 1.433 . S
C1364 H1360 0.929 . S
C1364 C1366 1.378 . S
C1364 C1368 1.350 . S
C1365 C1368 1.463 . S
C1365 C1370 1.350 . S
C1365 N1373 1.427 . S
C1366 H1357 0.930 . S
C1366 C1364 1.378 . S
C1366 C1367 1.367 . S
C1367 C1366 1.367 . S
C1367 C1369 1.433 . S
C1368 C1364 1.350 . S
C1368 C1365 1.463 . S
C1368 N1372 1.427 . S
C1369 H1359 0.929 . S
C1369 C1367 1.433 . S
C1369 N1372 1.384 . S
C1370 H1361 0.929 . S
C1370 C1362 1.378 . S
C1370 C1365 1.350 . S
C1371 H1358 0.929 . S
C1371 C1363 1.433 . S
C1371 N1373 1.384 . S
N1372 C1368 1.427 . S
N1372 C1369 1.384 . S
N1373 C1365 1.427 . S
N1373 C1371 1.384 . S
H1374 C1380 0.930 . S
H1375 C1384 0.930 . S
H1376 C1389 0.929 . S
H1377 C1387 0.929 . S
H1378 C1382 0.929 . S
H1379 C1388 0.929 . S
C1380 H1374 0.930 . S
C1380 C1381 1.367 . S
C1380 C1388 1.378 . S
C1381 C1380 1.367 . S
C1381 C1389 1.433 . S
C1382 H1378 0.929 . S
C1382 C1384 1.378 . S
C1382 C1386 1.350 . S
C1383 C1386 1.463 . S
C1383 C1388 1.350 . S
C1383 N1391 1.427 . S
C1384 H1375 0.930 . S
C1384 C1382 1.378 . S
C1384 C1385 1.367 . S
C1385 C1384 1.367 . S
C1385 C1387 1.433 . S
C1386 C1382 1.350 . S
C1386 C1383 1.463 . S
C1386 N1390 1.427 . S
C1387 H1377 0.929 . S
C1387 C1385 1.433 . S
C1387 N1390 1.384 . S
C1388 H1379 0.929 . S
C1388 C1380 1.378 . S
C1388 C1383 1.350 . S
C1389 H1376 0.929 . S
C1389 C1381 1.433 . S
C1389 N1391 1.384 . S
N1390 C1386 1.427 . S
N1390 C1387 1.384 . S
N1391 C1383 1.427 . S
N1391 C1389 1.384 . S
H1392 C1398 0.930 . S
H1393 C1402 0.930 . S
H1394 C1407 0.929 . S
H1395 C1405 0.929 . S
H1396 C1400 0.929 . S
H1397 C1406 0.929 . S
C1398 H1392 0.930 . S
C1398 C1399 1.367 . S
C1398 C1406 1.378 . S
C1399 C1398 1.367 . S
C1399 C1407 1.433 . S
C1400 H1396 0.929 . S
C1400 C1402 1.378 . S
C1400 C1404 1.350 . S
C1401 C1404 1.463 . S
C1401 C1406 1.350 . S
C1401 N1409 1.427 . S
C1402 H1393 0.930 . S
C1402 C1400 1.378 . S
C1402 C1403 1.367 . S
C1403 C1402 1.367 . S
C1403 C1405 1.433 . S
C1404 C1400 1.350 . S
C1404 C1401 1.463 . S
C1404 N1408 1.427 . S
C1405 H1395 0.929 . S
C1405 C1403 1.433 . S
C1405 N1408 1.384 . S
C1406 H1397 0.929 . S
C1406 C1398 1.378 . S
C1406 C1401 1.350 . S
C1407 H1394 0.929 . S
C1407 C1399 1.433 . S
C1407 N1409 1.384 . S
N1408 C1404 1.427 . S
N1408 C1405 1.384 . S
N1409 C1401 1.427 . S
N1409 C1407 1.384 . S
H1410 C1416 0.930 . S
H1411 C1420 0.930 . S
H1412 C1425 0.929 . S
H1413 C1423 0.929 . S
H1414 C1418 0.929 . S
H1415 C1424 0.929 . S
C1416 H1410 0.930 . S
C1416 C1417 1.367 . S
C1416 C1424 1.378 . S
C1417 C1416 1.367 . S
C1417 C1425 1.433 . S
C1418 H1414 0.929 . S
C1418 C1420 1.378 . S
C1418 C1422 1.350 . S
C1419 C1422 1.463 . S
C1419 C1424 1.350 . S
C1419 N1427 1.427 . S
C1420 H1411 0.930 . S
C1420 C1418 1.378 . S
C1420 C1421 1.367 . S
C1421 C1420 1.367 . S
C1421 C1423 1.433 . S
C1422 C1418 1.350 . S
C1422 C1419 1.463 . S
C1422 N1426 1.427 . S
C1423 H1413 0.929 . S
C1423 C1421 1.433 . S
C1423 N1426 1.384 . S
C1424 H1415 0.929 . S
C1424 C1416 1.378 . S
C1424 C1419 1.350 . S
C1425 H1412 0.929 . S
C1425 C1417 1.433 . S
C1425 N1427 1.384 . S
N1426 C1422 1.427 . S
N1426 C1423 1.384 . S
N1427 C1419 1.427 . S
N1427 C1425 1.384 . S
H1428 C1434 0.930 . S
H1429 C1438 0.930 . S
H1430 C1443 0.929 . S
H1431 C1441 0.929 . S
H1432 C1436 0.929 . S
H1433 C1442 0.929 . S
C1434 H1428 0.930 . S
C1434 C1435 1.367 . S
C1434 C1442 1.378 . S
C1435 C1434 1.367 . S
C1435 C1443 1.433 . S
C1436 H1432 0.929 . S
C1436 C1438 1.378 . S
C1436 C1440 1.350 . S
C1437 C1440 1.463 . S
C1437 C1442 1.350 . S
C1437 N1445 1.427 . S
C1438 H1429 0.930 . S
C1438 C1436 1.378 . S
C1438 C1439 1.367 . S
C1439 C1438 1.367 . S
C1439 C1441 1.433 . S
C1440 C1436 1.350 . S
C1440 C1437 1.463 . S
C1440 N1444 1.427 . S
C1441 H1431 0.929 . S
C1441 C1439 1.433 . S
C1441 N1444 1.384 . S
C1442 H1433 0.929 . S
C1442 C1434 1.378 . S
C1442 C1437 1.350 . S
C1443 H1430 0.929 . S
C1443 C1435 1.433 . S
C1443 N1445 1.384 . S
N1444 C1440 1.427 . S
N1444 C1441 1.384 . S
N1445 C1437 1.427 . S
N1445 C1443 1.384 . S
H1446 C1452 0.930 . S
H1447 C1456 0.930 . S
H1448 C1461 0.929 . S
H1449 C1459 0.929 . S
H1450 C1454 0.929 . S
H1451 C1460 0.929 . S
C1452 H1446 0.930 . S
C1452 C1453 1.367 . S
C1452 C1460 1.378 . S
C1453 C1452 1.367 . S
C1453 C1461 1.433 . S
C1454 H1450 0.929 . S
C1454 C1456 1.378 . S
C1454 C1458 1.350 . S
C1455 C1458 1.463 . S
C1455 C1460 1.350 . S
C1455 N1463 1.427 . S
C1456 H1447 0.930 . S
C1456 C1454 1.378 . S
C1456 C1457 1.367 . S
C1457 C1456 1.367 . S
C1457 C1459 1.433 . S
C1458 C1454 1.350 . S
C1458 C1455 1.463 . S
C1458 N1462 1.427 . S
C1459 H1449 0.929 . S
C1459 C1457 1.433 . S
C1459 N1462 1.384 . S
C1460 H1451 0.929 . S
C1460 C1452 1.378 . S
C1460 C1455 1.350 . S
C1461 H1448 0.929 . S
C1461 C1453 1.433 . S
C1461 N1463 1.384 . S
N1462 C1458 1.427 . S
N1462 C1459 1.384 . S
N1463 C1455 1.427 . S
N1463 C1461 1.384 . S
H1464 C1470 0.930 . S
H1465 C1474 0.930 . S
H1466 C1479 0.929 . S
H1467 C1477 0.929 . S
H1468 C1472 0.929 . S
H1469 C1478 0.929 . S
C1470 H1464 0.930 . S
C1470 C1471 1.367 . S
C1470 C1478 1.378 . S
C1471 C1470 1.367 . S
C1471 C1479 1.433 . S
C1472 H1468 0.929 . S
C1472 C1474 1.378 . S
C1472 C1476 1.350 . S
C1473 C1476 1.463 . S
C1473 C1478 1.350 . S
C1473 N1481 1.427 . S
C1474 H1465 0.930 . S
C1474 C1472 1.378 . S
C1474 C1475 1.367 . S
C1475 C1474 1.367 . S
C1475 C1477 1.433 . S
C1476 C1472 1.350 . S
C1476 C1473 1.463 . S
C1476 N1480 1.427 . S
C1477 H1467 0.929 . S
C1477 C1475 1.433 . S
C1477 N1480 1.384 . S
C1478 H1469 0.929 . S
C1478 C1470 1.378 . S
C1478 C1473 1.350 . S
C1479 H1466 0.929 . S
C1479 C1471 1.433 . S
C1479 N1481 1.384 . S
N1480 C1476 1.427 . S
N1480 C1477 1.384 . S
N1481 C1473 1.427 . S
N1481 C1479 1.384 . S
H1482 C1488 0.930 . S
H1483 C1492 0.930 . S
H1484 C1497 0.929 . S
H1485 C1495 0.929 . S
H1486 C1490 0.929 . S
H1487 C1496 0.929 . S
C1488 H1482 0.930 . S
C1488 C1489 1.367 . S
C1488 C1496 1.378 . S
C1489 C1488 1.367 . S
C1489 C1497 1.433 . S
C1490 H1486 0.929 . S
C1490 C1492 1.378 . S
C1490 C1494 1.350 . S
C1491 C1494 1.463 . S
C1491 C1496 1.350 . S
C1491 N1499 1.427 . S
C1492 H1483 0.930 . S
C1492 C1490 1.378 . S
C1492 C1493 1.367 . S
C1493 C1492 1.367 . S
C1493 C1495 1.433 . S
C1494 C1490 1.350 . S
C1494 C1491 1.463 . S
C1494 N1498 1.427 . S
C1495 H1485 0.929 . S
C1495 C1493 1.433 . S
C1495 N1498 1.384 . S
C1496 H1487 0.929 . S
C1496 C1488 1.378 . S
C1496 C1491 1.350 . S
C1497 H1484 0.929 . S
C1497 C1489 1.433 . S
C1497 N1499 1.384 . S
N1498 C1494 1.427 . S
N1498 C1495 1.384 . S
N1499 C1491 1.427 . S
N1499 C1497 1.384 . S
H1500 C1506 0.930 . S
H1501 C1510 0.930 . S
H1502 C1515 0.929 . S
H1503 C1513 0.929 . S
H1504 C1508 0.929 . S
H1505 C1514 0.929 . S
C1506 H1500 0.930 . S
C1506 C1507 1.367 . S
C1506 C1514 1.378 . S
C1507 C1506 1.367 . S
C1507 C1515 1.433 . S
C1508 H1504 0.929 . S
C1508 C1510 1.378 . S
C1508 C1512 1.350 . S
C1509 C1512 1.463 . S
C1509 C1514 1.350 . S
C1509 N1517 1.427 . S
C1510 H1501 0.930 . S
C1510 C1508 1.378 . S
C1510 C1511 1.367 . S
C1511 C1510 1.367 . S
C1511 C1513 1.433 . S
C1512 C1508 1.350 . S
C1512 C1509 1.463 . S
C1512 N1516 1.427 . S
C1513 H1503 0.929 . S
C1513 C1511 1.433 . S
C1513 N1516 1.384 . S
C1514 H1505 0.929 . S
C1514 C1506 1.378 . S
C1514 C1509 1.350 . S
C1515 H1502 0.929 . S
C1515 C1507 1.433 . S
C1515 N1517 1.384 . S
N1516 C1512 1.427 . S
N1516 C1513 1.384 . S
N1517 C1509 1.427 . S
N1517 C1515 1.384 . S
H1518 C1524 0.930 . S
H1519 C1528 0.930 . S
H1520 C1533 0.929 . S
H1521 C1531 0.929 . S
H1522 C1526 0.929 . S
H1523 C1532 0.929 . S
C1524 H1518 0.930 . S
C1524 C1525 1.367 . S
C1524 C1532 1.378 . S
C1525 C1524 1.367 . S
C1525 C1533 1.433 . S
C1526 H1522 0.929 . S
C1526 C1528 1.378 . S
C1526 C1530 1.350 . S
C1527 C1530 1.463 . S
C1527 C1532 1.350 . S
C1527 N1535 1.427 . S
C1528 H1519 0.930 . S
C1528 C1526 1.378 . S
C1528 C1529 1.367 . S
C1529 C1528 1.367 . S
C1529 C1531 1.433 . S
C1530 C1526 1.350 . S
C1530 C1527 1.463 . S
C1530 N1534 1.427 . S
C1531 H1521 0.929 . S
C1531 C1529 1.433 . S
C1531 N1534 1.384 . S
C1532 H1523 0.929 . S
C1532 C1524 1.378 . S
C1532 C1527 1.350 . S
C1533 H1520 0.929 . S
C1533 C1525 1.433 . S
C1533 N1535 1.384 . S
N1534 C1530 1.427 . S
N1534 C1531 1.384 . S
N1535 C1527 1.427 . S
N1535 C1533 1.384 . S
H1536 C1542 0.930 . S
H1537 C1546 0.930 . S
H1538 C1551 0.929 . S
H1539 C1549 0.929 . S
H1540 C1544 0.929 . S
H1541 C1550 0.929 . S
C1542 H1536 0.930 . S
C1542 C1543 1.367 . S
C1542 C1550 1.378 . S
C1543 C1542 1.367 . S
C1543 C1551 1.433 . S
C1544 H1540 0.929 . S
C1544 C1546 1.378 . S
C1544 C1548 1.350 . S
C1545 C1548 1.463 . S
C1545 C1550 1.350 . S
C1545 N1553 1.427 . S
C1546 H1537 0.930 . S
C1546 C1544 1.378 . S
C1546 C1547 1.367 . S
C1547 C1546 1.367 . S
C1547 C1549 1.433 . S
C1548 C1544 1.350 . S
C1548 C1545 1.463 . S
C1548 N1552 1.427 . S
C1549 H1539 0.929 . S
C1549 C1547 1.433 . S
C1549 N1552 1.384 . S
C1550 H1541 0.929 . S
C1550 C1542 1.378 . S
C1550 C1545 1.350 . S
C1551 H1538 0.929 . S
C1551 C1543 1.433 . S
C1551 N1553 1.384 . S
N1552 C1548 1.427 . S
N1552 C1549 1.384 . S
N1553 C1545 1.427 . S
N1553 C1551 1.384 . S
H1554 C1560 0.930 . S
H1555 C1564 0.930 . S
H1556 C1569 0.929 . S
H1557 C1567 0.929 . S
H1558 C1562 0.929 . S
H1559 C1568 0.929 . S
C1560 H1554 0.930 . S
C1560 C1561 1.367 . S
C1560 C1568 1.378 . S
C1561 C1560 1.367 . S
C1561 C1569 1.433 . S
C1562 H1558 0.929 . S
C1562 C1564 1.378 . S
C1562 C1566 1.350 . S
C1563 C1566 1.463 . S
C1563 C1568 1.350 . S
C1563 N1571 1.427 . S
C1564 H1555 0.930 . S
C1564 C1562 1.378 . S
C1564 C1565 1.367 . S
C1565 C1564 1.367 . S
C1565 C1567 1.433 . S
C1566 C1562 1.350 . S
C1566 C1563 1.463 . S
C1566 N1570 1.427 . S
C1567 H1557 0.929 . S
C1567 C1565 1.433 . S
C1567 N1570 1.384 . S
C1568 H1559 0.929 . S
C1568 C1560 1.378 . S
C1568 C1563 1.350 . S
C1569 H1556 0.929 . S
C1569 C1561 1.433 . S
C1569 N1571 1.384 . S
N1570 C1566 1.427 . S
N1570 C1567 1.384 . S
N1571 C1563 1.427 . S
N1571 C1569 1.384 . S
H1572 C1578 0.930 . S
H1573 C1582 0.930 . S
H1574 C1587 0.929 . S
H1575 C1585 0.929 . S
H1576 C1580 0.929 . S
H1577 C1586 0.929 . S
C1578 H1572 0.930 . S
C1578 C1579 1.367 . S
C1578 C1586 1.378 . S
C1579 C1578 1.367 . S
C1579 C1587 1.433 . S
C1580 H1576 0.929 . S
C1580 C1582 1.378 . S
C1580 C1584 1.350 . S
C1581 C1584 1.463 . S
C1581 C1586 1.350 . S
C1581 N1589 1.427 . S
C1582 H1573 0.930 . S
C1582 C1580 1.378 . S
C1582 C1583 1.367 . S
C1583 C1582 1.367 . S
C1583 C1585 1.433 . S
C1584 C1580 1.350 . S
C1584 C1581 1.463 . S
C1584 N1588 1.427 . S
C1585 H1575 0.929 . S
C1585 C1583 1.433 . S
C1585 N1588 1.384 . S
C1586 H1577 0.929 . S
C1586 C1578 1.378 . S
C1586 C1581 1.350 . S
C1587 H1574 0.929 . S
C1587 C1579 1.433 . S
C1587 N1589 1.384 . S
N1588 C1584 1.427 . S
N1588 C1585 1.384 . S
N1589 C1581 1.427 . S
N1589 C1587 1.384 . S
H1590 C1596 0.930 . S
H1591 C1600 0.930 . S
H1592 C1605 0.929 . S
H1593 C1603 0.929 . S
H1594 C1598 0.929 . S
H1595 C1604 0.929 . S
C1596 H1590 0.930 . S
C1596 C1597 1.367 . S
C1596 C1604 1.378 . S
C1597 C1596 1.367 . S
C1597 C1605 1.433 . S
C1598 H1594 0.929 . S
C1598 C1600 1.378 . S
C1598 C1602 1.350 . S
C1599 C1602 1.463 . S
C1599 C1604 1.350 . S
C1599 N1607 1.427 . S
C1600 H1591 0.930 . S
C1600 C1598 1.378 . S
C1600 C1601 1.367 . S
C1601 C1600 1.367 . S
C1601 C1603 1.433 . S
C1602 C1598 1.350 . S
C1602 C1599 1.463 . S
C1602 N1606 1.427 . S
C1603 H1593 0.929 . S
C1603 C1601 1.433 . S
C1603 N1606 1.384 . S
C1604 H1595 0.929 . S
C1604 C1596 1.378 . S
C1604 C1599 1.350 . S
C1605 H1592 0.929 . S
C1605 C1597 1.433 . S
C1605 N1607 1.384 . S
N1606 C1602 1.427 . S
N1606 C1603 1.384 . S
N1607 C1599 1.427 . S
N1607 C1605 1.384 . S
H1608 C1614 0.930 . S
H1609 C1618 0.930 . S
H1610 C1623 0.929 . S
H1611 C1621 0.929 . S
H1612 C1616 0.929 . S
H1613 C1622 0.929 . S
C1614 H1608 0.930 . S
C1614 C1615 1.367 . S
C1614 C1622 1.378 . S
C1615 C1614 1.367 . S
C1615 C1623 1.433 . S
C1616 H1612 0.929 . S
C1616 C1618 1.378 . S
C1616 C1620 1.350 . S
C1617 C1620 1.463 . S
C1617 C1622 1.350 . S
C1617 N1625 1.427 . S
C1618 H1609 0.930 . S
C1618 C1616 1.378 . S
C1618 C1619 1.367 . S
C1619 C1618 1.367 . S
C1619 C1621 1.433 . S
C1620 C1616 1.350 . S
C1620 C1617 1.463 . S
C1620 N1624 1.427 . S
C1621 H1611 0.929 . S
C1621 C1619 1.433 . S
C1621 N1624 1.384 . S
C1622 H1613 0.929 . S
C1622 C1614 1.378 . S
C1622 C1617 1.350 . S
C1623 H1610 0.929 . S
C1623 C1615 1.433 . S
C1623 N1625 1.384 . S
N1624 C1620 1.427 . S
N1624 C1621 1.384 . S
N1625 C1617 1.427 . S
N1625 C1623 1.384 . S
H1626 C1632 0.930 . S
H1627 C1636 0.930 . S
H1628 C1641 0.929 . S
H1629 C1639 0.929 . S
H1630 C1634 0.929 . S
H1631 C1640 0.929 . S
C1632 H1626 0.930 . S
C1632 C1633 1.367 . S
C1632 C1640 1.378 . S
C1633 C1632 1.367 . S
C1633 C1641 1.433 . S
C1634 H1630 0.929 . S
C1634 C1636 1.378 . S
C1634 C1638 1.350 . S
C1635 C1638 1.463 . S
C1635 C1640 1.350 . S
C1635 N1643 1.427 . S
C1636 H1627 0.930 . S
C1636 C1634 1.378 . S
C1636 C1637 1.367 . S
C1637 C1636 1.367 . S
C1637 C1639 1.433 . S
C1638 C1634 1.350 . S
C1638 C1635 1.463 . S
C1638 N1642 1.427 . S
C1639 H1629 0.929 . S
C1639 C1637 1.433 . S
C1639 N1642 1.384 . S
C1640 H1631 0.929 . S
C1640 C1632 1.378 . S
C1640 C1635 1.350 . S
C1641 H1628 0.929 . S
C1641 C1633 1.433 . S
C1641 N1643 1.384 . S
N1642 C1638 1.427 . S
N1642 C1639 1.384 . S
N1643 C1635 1.427 . S
N1643 C1641 1.384 . S
H1644 C1650 0.930 . S
H1645 C1654 0.930 . S
H1646 C1659 0.929 . S
H1647 C1657 0.929 . S
H1648 C1652 0.929 . S
H1649 C1658 0.929 . S
C1650 H1644 0.930 . S
C1650 C1651 1.367 . S
C1650 C1658 1.378 . S
C1651 C1650 1.367 . S
C1651 C1659 1.433 . S
C1652 H1648 0.929 . S
C1652 C1654 1.378 . S
C1652 C1656 1.350 . S
C1653 C1656 1.463 . S
C1653 C1658 1.350 . S
C1653 N1661 1.427 . S
C1654 H1645 0.930 . S
C1654 C1652 1.378 . S
C1654 C1655 1.367 . S
C1655 C1654 1.367 . S
C1655 C1657 1.433 . S
C1656 C1652 1.350 . S
C1656 C1653 1.463 . S
C1656 N1660 1.427 . S
C1657 H1647 0.929 . S
C1657 C1655 1.433 . S
C1657 N1660 1.384 . S
C1658 H1649 0.929 . S
C1658 C1650 1.378 . S
C1658 C1653 1.350 . S
C1659 H1646 0.929 . S
C1659 C1651 1.433 . S
C1659 N1661 1.384 . S
N1660 C1656 1.427 . S
N1660 C1657 1.384 . S
N1661 C1653 1.427 . S
N1661 C1659 1.384 . S
H1662 C1668 0.930 . S
H1663 C1672 0.930 . S
H1664 C1677 0.929 . S
H1665 C1675 0.929 . S
H1666 C1670 0.929 . S
H1667 C1676 0.929 . S
C1668 H1662 0.930 . S
C1668 C1669 1.367 . S
C1668 C1676 1.378 . S
C1669 C1668 1.367 . S
C1669 C1677 1.433 . S
C1670 H1666 0.929 . S
C1670 C1672 1.378 . S
C1670 C1674 1.350 . S
C1671 C1674 1.463 . S
C1671 C1676 1.350 . S
C1671 N1679 1.427 . S
C1672 H1663 0.930 . S
C1672 C1670 1.378 . S
C1672 C1673 1.367 . S
C1673 C1672 1.367 . S
C1673 C1675 1.433 . S
C1674 C1670 1.350 . S
C1674 C1671 1.463 . S
C1674 N1678 1.427 . S
C1675 H1665 0.929 . S
C1675 C1673 1.433 . S
C1675 N1678 1.384 . S
C1676 H1667 0.929 . S
C1676 C1668 1.378 . S
C1676 C1671 1.350 . S
C1677 H1664 0.929 . S
C1677 C1669 1.433 . S
C1677 N1679 1.384 . S
N1678 C1674 1.427 . S
N1678 C1675 1.384 . S
N1679 C1671 1.427 . S
N1679 C1677 1.384 . S
H1680 C1686 0.930 . S
H1681 C1690 0.930 . S
H1682 C1695 0.929 . S
H1683 C1693 0.929 . S
H1684 C1688 0.929 . S
H1685 C1694 0.929 . S
C1686 H1680 0.930 . S
C1686 C1687 1.367 . S
C1686 C1694 1.378 . S
C1687 C1686 1.367 . S
C1687 C1695 1.433 . S
C1688 H1684 0.929 . S
C1688 C1690 1.378 . S
C1688 C1692 1.350 . S
C1689 C1692 1.463 . S
C1689 C1694 1.350 . S
C1689 N1697 1.427 . S
C1690 H1681 0.930 . S
C1690 C1688 1.378 . S
C1690 C1691 1.367 . S
C1691 C1690 1.367 . S
C1691 C1693 1.433 . S
C1692 C1688 1.350 . S
C1692 C1689 1.463 . S
C1692 N1696 1.427 . S
C1693 H1683 0.929 . S
C1693 C1691 1.433 . S
C1693 N1696 1.384 . S
C1694 H1685 0.929 . S
C1694 C1686 1.378 . S
C1694 C1689 1.350 . S
C1695 H1682 0.929 . S
C1695 C1687 1.433 . S
C1695 N1697 1.384 . S
N1696 C1692 1.427 . S
N1696 C1693 1.384 . S
N1697 C1689 1.427 . S
N1697 C1695 1.384 . S
H1698 C1704 0.930 . S
H1699 C1708 0.930 . S
H1700 C1713 0.929 . S
H1701 C1711 0.929 . S
H1702 C1706 0.929 . S
H1703 C1712 0.929 . S
C1704 H1698 0.930 . S
C1704 C1705 1.367 . S
C1704 C1712 1.378 . S
C1705 C1704 1.367 . S
C1705 C1713 1.433 . S
C1706 H1702 0.929 . S
C1706 C1708 1.378 . S
C1706 C1710 1.350 . S
C1707 C1710 1.463 . S
C1707 C1712 1.350 . S
C1707 N1715 1.427 . S
C1708 H1699 0.930 . S
C1708 C1706 1.378 . S
C1708 C1709 1.367 . S
C1709 C1708 1.367 . S
C1709 C1711 1.433 . S
C1710 C1706 1.350 . S
C1710 C1707 1.463 . S
C1710 N1714 1.427 . S
C1711 H1701 0.929 . S
C1711 C1709 1.433 . S
C1711 N1714 1.384 . S
C1712 H1703 0.929 . S
C1712 C1704 1.378 . S
C1712 C1707 1.350 . S
C1713 H1700 0.929 . S
C1713 C1705 1.433 . S
C1713 N1715 1.384 . S
N1714 C1710 1.427 . S
N1714 C1711 1.384 . S
N1715 C1707 1.427 . S
N1715 C1713 1.384 . S
H1716 C1722 0.930 . S
H1717 C1726 0.930 . S
H1718 C1731 0.929 . S
H1719 C1729 0.929 . S
H1720 C1724 0.929 . S
H1721 C1730 0.929 . S
C1722 H1716 0.930 . S
C1722 C1723 1.367 . S
C1722 C1730 1.378 . S
C1723 C1722 1.367 . S
C1723 C1731 1.433 . S
C1724 H1720 0.929 . S
C1724 C1726 1.378 . S
C1724 C1728 1.350 . S
C1725 C1728 1.463 . S
C1725 C1730 1.350 . S
C1725 N1733 1.427 . S
C1726 H1717 0.930 . S
C1726 C1724 1.378 . S
C1726 C1727 1.367 . S
C1727 C1726 1.367 . S
C1727 C1729 1.433 . S
C1728 C1724 1.350 . S
C1728 C1725 1.463 . S
C1728 N1732 1.427 . S
C1729 H1719 0.929 . S
C1729 C1727 1.433 . S
C1729 N1732 1.384 . S
C1730 H1721 0.929 . S
C1730 C1722 1.378 . S
C1730 C1725 1.350 . S
C1731 H1718 0.929 . S
C1731 C1723 1.433 . S
C1731 N1733 1.384 . S
N1732 C1728 1.427 . S
N1732 C1729 1.384 . S
N1733 C1725 1.427 . S
N1733 C1731 1.384 . S
H1734 C1740 0.930 . S
H1735 C1744 0.930 . S
H1736 C1749 0.929 . S
H1737 C1747 0.929 . S
H1738 C1742 0.929 . S
H1739 C1748 0.929 . S
C1740 H1734 0.930 . S
C1740 C1741 1.367 . S
C1740 C1748 1.378 . S
C1741 C1740 1.367 . S
C1741 C1749 1.433 . S
C1742 H1738 0.929 . S
C1742 C1744 1.378 . S
C1742 C1746 1.350 . S
C1743 C1746 1.463 . S
C1743 C1748 1.350 . S
C1743 N1751 1.427 . S
C1744 H1735 0.930 . S
C1744 C1742 1.378 . S
C1744 C1745 1.367 . S
C1745 C1744 1.367 . S
C1745 C1747 1.433 . S
C1746 C1742 1.350 . S
C1746 C1743 1.463 . S
C1746 N1750 1.427 . S
C1747 H1737 0.929 . S
C1747 C1745 1.433 . S
C1747 N1750 1.384 . S
C1748 H1739 0.929 . S
C1748 C1740 1.378 . S
C1748 C1743 1.350 . S
C1749 H1736 0.929 . S
C1749 C1741 1.433 . S
C1749 N1751 1.384 . S
N1750 C1746 1.427 . S
N1750 C1747 1.384 . S
N1751 C1743 1.427 . S
N1751 C1749 1.384 . S
H1752 C1758 0.930 . S
H1753 C1762 0.930 . S
H1754 C1767 0.929 . S
H1755 C1765 0.929 . S
H1756 C1760 0.929 . S
H1757 C1766 0.929 . S
C1758 H1752 0.930 . S
C1758 C1759 1.367 . S
C1758 C1766 1.378 . S
C1759 C1758 1.367 . S
C1759 C1767 1.433 . S
C1760 H1756 0.929 . S
C1760 C1762 1.378 . S
C1760 C1764 1.350 . S
C1761 C1764 1.463 . S
C1761 C1766 1.350 . S
C1761 N1769 1.427 . S
C1762 H1753 0.930 . S
C1762 C1760 1.378 . S
C1762 C1763 1.367 . S
C1763 C1762 1.367 . S
C1763 C1765 1.433 . S
C1764 C1760 1.350 . S
C1764 C1761 1.463 . S
C1764 N1768 1.427 . S
C1765 H1755 0.929 . S
C1765 C1763 1.433 . S
C1765 N1768 1.384 . S
C1766 H1757 0.929 . S
C1766 C1758 1.378 . S
C1766 C1761 1.350 . S
C1767 H1754 0.929 . S
C1767 C1759 1.433 . S
C1767 N1769 1.384 . S
N1768 C1764 1.427 . S
N1768 C1765 1.384 . S
N1769 C1761 1.427 . S
N1769 C1767 1.384 . S
H1770 C1776 0.930 . S
H1771 C1780 0.930 . S
H1772 C1785 0.929 . S
H1773 C1783 0.929 . S
H1774 C1778 0.929 . S
H1775 C1784 0.929 . S
C1776 H1770 0.930 . S
C1776 C1777 1.367 . S
C1776 C1784 1.378 . S
C1777 C1776 1.367 . S
C1777 C1785 1.433 . S
C1778 H1774 0.929 . S
C1778 C1780 1.378 . S
C1778 C1782 1.350 . S
C1779 C1782 1.463 . S
C1779 C1784 1.350 . S
C1779 N1787 1.427 . S
C1780 H1771 0.930 . S
C1780 C1778 1.378 . S
C1780 C1781 1.367 . S
C1781 C1780 1.367 . S
C1781 C1783 1.433 . S
C1782 C1778 1.350 . S
C1782 C1779 1.463 . S
C1782 N1786 1.427 . S
C1783 H1773 0.929 . S
C1783 C1781 1.433 . S
C1783 N1786 1.384 . S
C1784 H1775 0.929 . S
C1784 C1776 1.378 . S
C1784 C1779 1.350 . S
C1785 H1772 0.929 . S
C1785 C1777 1.433 . S
C1785 N1787 1.384 . S
N1786 C1782 1.427 . S
N1786 C1783 1.384 . S
N1787 C1779 1.427 . S
N1787 C1785 1.384 . S
H1788 C1794 0.930 . S
H1789 C1798 0.930 . S
H1790 C1803 0.929 . S
H1791 C1801 0.929 . S
H1792 C1796 0.929 . S
H1793 C1802 0.929 . S
C1794 H1788 0.930 . S
C1794 C1795 1.367 . S
C1794 C1802 1.378 . S
C1795 C1794 1.367 . S
C1795 C1803 1.433 . S
C1796 H1792 0.929 . S
C1796 C1798 1.378 . S
C1796 C1800 1.350 . S
C1797 C1800 1.463 . S
C1797 C1802 1.350 . S
C1797 N1805 1.427 . S
C1798 H1789 0.930 . S
C1798 C1796 1.378 . S
C1798 C1799 1.367 . S
C1799 C1798 1.367 . S
C1799 C1801 1.433 . S
C1800 C1796 1.350 . S
C1800 C1797 1.463 . S
C1800 N1804 1.427 . S
C1801 H1791 0.929 . S
C1801 C1799 1.433 . S
C1801 N1804 1.384 . S
C1802 H1793 0.929 . S
C1802 C1794 1.378 . S
C1802 C1797 1.350 . S
C1803 H1790 0.929 . S
C1803 C1795 1.433 . S
C1803 N1805 1.384 . S
N1804 C1800 1.427 . S
N1804 C1801 1.384 . S
N1805 C1797 1.427 . S
N1805 C1803 1.384 . S
H1806 C1812 0.930 . S
H1807 C1816 0.930 . S
H1808 C1821 0.929 . S
H1809 C1819 0.929 . S
H1810 C1814 0.929 . S
H1811 C1820 0.929 . S
C1812 H1806 0.930 . S
C1812 C1813 1.367 . S
C1812 C1820 1.378 . S
C1813 C1812 1.367 . S
C1813 C1821 1.433 . S
C1814 H1810 0.929 . S
C1814 C1816 1.378 . S
C1814 C1818 1.350 . S
C1815 C1818 1.463 . S
C1815 C1820 1.350 . S
C1815 N1823 1.427 . S
C1816 H1807 0.930 . S
C1816 C1814 1.378 . S
C1816 C1817 1.367 . S
C1817 C1816 1.367 . S
C1817 C1819 1.433 . S
C1818 C1814 1.350 . S
C1818 C1815 1.463 . S
C1818 N1822 1.427 . S
C1819 H1809 0.929 . S
C1819 C1817 1.433 . S
C1819 N1822 1.384 . S
C1820 H1811 0.929 . S
C1820 C1812 1.378 . S
C1820 C1815 1.350 . S
C1821 H1808 0.929 . S
C1821 C1813 1.433 . S
C1821 N1823 1.384 . S
N1822 C1818 1.427 . S
N1822 C1819 1.384 . S
N1823 C1815 1.427 . S
N1823 C1821 1.384 . S
C535 C15 1.158 . S
C539 C367 1.183 . S
C553 C37 1.154 . S
C557 C527 1.180 . S
C571 C469 1.180 . S
C575 C65 1.148 . S
C589 C81 1.135 . S
C593 C499 1.169 . S
C607 C95 1.141 . S
C611 C395 1.173 . S
C625 C117 1.135 . S
C629 C411 1.172 . S
C643 C139 1.135 . S
C647 C439 1.176 . S
C661 C169 1.117 . S
C665 C450 1.133 . S
C679 C197 1.157 . S
C683 C7 1.183 . S
C697 C205 1.157 . S
C701 C29 1.185 . S
C715 C59 1.178 . S
C719 C241 1.139 . S
C733 C73 1.179 . S
C737 C263 1.151 . S
C751 C279 1.134 . S
C755 C109 1.174 . S
C769 C301 1.138 . S
C773 C131 1.176 . S
C787 C329 1.149 . S
C791 C153 1.190 . S
C805 C345 1.149 . S
C809 C161 1.189 . S
C823 C373 1.132 . S
C827 C191 1.170 . S
C841 C381 1.137 . S
C845 C271 1.170 . S
C859 C293 1.173 . S
C863 C417 1.146 . S
C877 C425 1.139 . S
C881 C323 1.172 . S
C895 C458 1.098 . S
C899 C337 1.126 . S
C913 C477 1.145 . S
C917 C235 1.174 . S
C931 C257 1.185 . S
C935 C505 1.156 . S
C949 C513 1.145 . S
C953 C219 1.173 . S
C967 C480 1.147 . S
C971 C106 1.148 . S
C985 C494 1.146 . S
C989 C128 1.144 . S
C1003 C150 1.138 . S
C1007 C362 1.137 . S
C1021 C164 1.134 . S
C1025 C514 1.142 . S
C1039 C426 1.148 . S
C1043 C10 1.149 . S
C1057 C32 1.171 . S
C1061 C455 1.194 . S
C1075 C382 1.147 . S
C1079 C52 1.148 . S
C1093 C76 1.137 . S
C1097 C406 1.148 . S
C1111 C316 1.150 . S
C1115 C96 1.152 . S
C1129 C340 1.148 . S
C1133 C118 1.146 . S
C1147 C274 1.144 . S
C1151 C140 1.144 . S
C1165 C172 1.141 . S
C1169 C296 1.140 . S
C1183 C228 1.121 . S
C1187 C18 1.131 . S
C1201 C250 1.124 . S
C1205 C40 1.128 . S
C1219 C184 1.150 . S
C1223 C54 1.152 . S
C1237 C216 1.140 . S
C1241 C84 1.151 . S
C1255 C318 1.149 . S
C1259 C472 1.149 . S
C1273 C436 1.144 . S
C1277 C230 1.144 . S
C1291 C252 1.198 . S
C1295 C447 1.175 . S
C1309 C392 1.139 . S
C1313 C186 1.147 . S
C1327 C404 1.138 . S
C1331 C206 1.149 . S
C1345 C360 1.143 . S
C1349 C282 1.145 . S
C1363 C524 1.140 . S
C1367 C304 1.153 . S
C1381 C348 1.136 . S
C1385 C492 1.138 . S
C1399 C448 1.333 . S
C1403 C21 1.328 . S
C1417 C389 1.374 . S
C1421 C43 1.369 . S
C1435 C51 1.369 . S
C1439 C403 1.370 . S
C1453 C87 1.364 . S
C1457 C433 1.366 . S
C1471 C521 1.367 . S
C1475 C103 1.363 . S
C1489 C125 1.372 . S
C1493 C483 1.368 . S
C1507 C491 1.376 . S
C1511 C147 1.378 . S
C1525 C175 1.375 . S
C1529 C359 1.372 . S
C1543 C183 1.381 . S
C1547 C351 1.378 . S
C1561 C285 1.364 . S
C1565 C213 1.368 . S
C1579 C227 1.359 . S
C1583 C307 1.364 . S
C1597 C315 1.376 . S
C1601 C249 1.374 . S
C1615 C414 1.340 . S
C1619 C98 1.340 . S
C1633 C428 1.333 . S
C1637 C120 1.332 . S
C1651 C142 1.371 . S
C1655 C461 1.372 . S
C1669 C162 1.328 . S
C1673 C384 1.328 . S
C1687 C502 1.332 . S
C1691 C8 1.331 . S
C1705 C370 1.333 . S
C1709 C30 1.334 . S
C1723 C516 1.332 . S
C1727 C62 1.333 . S
C1741 C74 1.330 . S
C1745 C470 1.331 . S
C1759 C208 1.340 . S
C1763 C326 1.342 . S
C1777 C338 1.330 . S
C1781 C238 1.328 . S
C1795 C272 1.329 . S
C1799 C260 1.328 . S
C1813 C294 1.334 . S
C1817 C194 1.332 . S
