# Generated by pormake.
# Topology fcu, (12)-cn, num edge types: 1
# Building blocks:
#     Node 0, Type 0, BuildingBlock: ZALLEG_clean_sbu_0, # of connection points: 12
#     Node 1, Type 0, BuildingBlock: ZALLEG_clean_sbu_0, # of connection points: 12
#     Node 2, Type 0, BuildingBlock: ZALLEG_clean_sbu_0, # of connection points: 12
#     Node 3, Type 0, BuildingBlock: ZALLEG_clean_sbu_0, # of connection points: 12
#     Edge 4, Type (0, 0), BuildingBlock: AJUNOK_clean_linker_0, # of connection points: 2
#     Edge 5, Type (0, 0), BuildingBlock: AJUNOK_clean_linker_0, # of connection points: 2
#     Edge 6, Type (0, 0), BuildingBlock: AJUNOK_clean_linker_0, # of connection points: 2
#     Edge 7, Type (0, 0), BuildingBlock: AJUNOK_clean_linker_0, # of connection points: 2
#     Edge 8, Type (0, 0), BuildingBlock: AJUNOK_clean_linker_0, # of connection points: 2
#     Edge 9, Type (0, 0), BuildingBlock: AJUNOK_clean_linker_0, # of connection points: 2
#     Edge 10, Type (0, 0), BuildingBlock: AJUNOK_clean_linker_0, # of connection points: 2
#     Edge 11, Type (0, 0), BuildingBlock: AJUNOK_clean_linker_0, # of connection points: 2
#     Edge 12, Type (0, 0), BuildingBlock: AJUNOK_clean_linker_0, # of connection points: 2
#     Edge 13, Type (0, 0), BuildingBlock: AJUNOK_clean_linker_0, # of connection points: 2
#     Edge 14, Type (0, 0), BuildingBlock: AJUNOK_clean_linker_0, # of connection points: 2
#     Edge 15, Type (0, 0), BuildingBlock: AJUNOK_clean_linker_0, # of connection points: 2
#     Edge 16, Type (0, 0), BuildingBlock: AJUNOK_clean_linker_0, # of connection points: 2
#     Edge 17, Type (0, 0), BuildingBlock: AJUNOK_clean_linker_0, # of connection points: 2
#     Edge 18, Type (0, 0), BuildingBlock: AJUNOK_clean_linker_0, # of connection points: 2
#     Edge 19, Type (0, 0), BuildingBlock: AJUNOK_clean_linker_0, # of connection points: 2
#     Edge 20, Type (0, 0), BuildingBlock: AJUNOK_clean_linker_0, # of connection points: 2
#     Edge 21, Type (0, 0), BuildingBlock: AJUNOK_clean_linker_0, # of connection points: 2
#     Edge 22, Type (0, 0), BuildingBlock: AJUNOK_clean_linker_0, # of connection points: 2
#     Edge 23, Type (0, 0), BuildingBlock: AJUNOK_clean_linker_0, # of connection points: 2
#     Edge 24, Type (0, 0), BuildingBlock: AJUNOK_clean_linker_0, # of connection points: 2
#     Edge 25, Type (0, 0), BuildingBlock: AJUNOK_clean_linker_0, # of connection points: 2
#     Edge 26, Type (0, 0), BuildingBlock: AJUNOK_clean_linker_0, # of connection points: 2
#     Edge 27, Type (0, 0), BuildingBlock: AJUNOK_clean_linker_0, # of connection points: 2
# Relax obj value: 0.000
# Max RMSD: 0.000
# Mean RMSD: 0.000
data_MOF--net-fcu--node1-ZALLEG_clean_sbu_0--edge1-AJUNOK_clean_linker_0
_symmetry_space_group_name_H-M    P1
_symmetry_Int_Tables_number       1
_symmetry_cell_setting            triclinic
loop_
_symmetry_equiv_pos_as_xyz
'x, y, z'
_cell_length_a     20.897278
_cell_length_b     20.891833
_cell_length_c     20.896388
_cell_angle_alpha  90.034342
_cell_angle_beta   89.992383
_cell_angle_gamma 89.999045
loop_
_atom_site_label
_atom_site_type_symbol
_atom_site_fract_x
_atom_site_fract_y
_atom_site_fract_z
_atom_type_partial_charge
H0 H 0.92925 0.93307 0.93216 0.0
O1 O 0.95682 0.96023 0.95931 0.0
Tb2 Tb 0.90135 0.01957 0.01868 0.0
Tb3 Tb 1.016 0.90353 1.01711 0.0
Tb4 Tb 1.01605 0.01843 0.90303 0.0
O5 O 0.95845 0.96047 0.07672 0.0
O6 O 0.95823 0.07783 0.95956 0.0
O7 O 0.95965 0.07769 0.07673 0.0
O8 O 0.07608 0.95893 0.07562 0.0
O9 O 0.07629 0.07663 0.95814 0.0
O10 O 0.07505 0.95881 0.95787 0.0
H11 H 0.93129 0.9333 0.10422 0.0
H12 H 0.93111 0.10533 0.93233 0.0
Tb13 Tb 0.01865 0.01846 0.1328 0.0
Tb14 Tb 0.01867 0.13361 1.01735 0.0
H15 H 0.9328 0.1052 0.10424 0.0
H16 H 0.10333 0.93134 0.10265 0.0
Tb17 Tb 0.1325 1.01688 1.01606 0.0
H18 H 0.10347 0.10368 0.93052 0.0
H19 H 0.10183 0.93133 0.93024 0.0
O20 O 0.07742 0.07654 0.07559 0.0
H21 H 0.10508 0.10369 0.10267 0.0
O22 O 0.84563 0.92975 0.01943 0.0
O23 O 0.18836 0.10564 1.01578 0.0
O24 O 0.18667 0.92638 1.01573 0.0
O25 O 0.84765 0.11041 0.01892 0.0
O26 O 1.01509 0.84809 0.92725 0.0
O27 O 0.01935 0.1886 0.1068 0.0
O28 O 0.01824 0.18887 0.92738 0.0
O29 O 1.01593 0.84862 0.10646 0.0
O30 O 0.92652 0.0193 0.84881 0.0
O31 O 0.10934 0.01798 0.18675 0.0
O32 O 0.92966 0.01897 0.18854 0.0
O33 O 0.10466 0.01788 0.8467 0.0
O34 O 0.92625 0.8494 0.01788 0.0
O35 O 0.10943 0.18757 1.01674 0.0
O36 O 0.92969 0.18939 0.01809 0.0
O37 O 0.10477 0.84749 1.01656 0.0
O38 O 0.84768 0.01977 0.10951 0.0
O39 O 0.18662 1.01685 0.9255 0.0
O40 O 0.18827 1.01668 0.10484 0.0
O41 O 0.84567 0.01977 0.9288 0.0
O42 O 0.01812 0.92825 0.18774 0.0
O43 O 1.01629 0.10757 0.84793 0.0
O44 O 1.01479 0.92928 0.84773 0.0
O45 O 0.01923 0.10862 0.18784 0.0
C46 C 0.86505 0.86843 0.01923 0.0
C47 C 0.1704 0.16719 1.01615 0.0
C48 C 0.16634 0.86542 1.01617 0.0
C49 C 0.86811 0.17136 0.01831 0.0
C50 C 1.015 0.86787 0.86613 0.0
C51 C 0.01885 0.16979 0.1681 0.0
C52 C 1.0172 0.16899 0.86626 0.0
C53 C 1.01695 0.86709 0.16787 0.0
C54 C 0.86525 0.01947 0.86753 0.0
C55 C 0.17031 1.01736 0.16638 0.0
C56 C 0.86811 0.01907 0.17045 0.0
C57 C 0.16625 0.01754 0.86456 0.0
H58 H 0.93187 0.43128 0.43161 0.0
O59 O 0.95907 0.45879 0.45878 0.0
Tb60 Tb 0.90236 0.51675 0.5182 0.0
Tb61 Tb 0.01894 0.40301 0.51699 0.0
Tb62 Tb 1.01698 0.51826 0.40218 0.0
O63 O 0.95965 0.45859 0.57644 0.0
O64 O 0.95773 0.57635 0.45893 0.0
O65 O 0.95836 0.57656 0.57636 0.0
O66 O 0.07696 0.45984 0.57622 0.0
O67 O 0.07534 0.57771 0.45843 0.0
O68 O 0.07673 0.46007 0.45819 0.0
H69 H 0.93257 0.4312 0.60383 0.0
H70 H 0.93008 0.60337 0.43175 0.0
Tb71 Tb 0.01778 0.51827 0.63266 0.0
Tb72 Tb 1.01616 0.63382 0.51711 0.0
H73 H 0.93089 0.6036 0.60374 0.0
H74 H 0.10469 0.43286 0.60337 0.0
Tb75 Tb 0.13212 0.51941 0.51742 0.0
H76 H 0.10235 0.60523 0.4311 0.0
H77 H 0.10417 0.43303 0.43078 0.0
O78 O 0.07551 0.57793 0.57608 0.0
H79 H 0.10272 0.6054 0.60327 0.0
O80 O 0.84831 0.42609 0.51837 0.0
O81 O 0.18606 0.60915 0.51718 0.0
O82 O 0.18825 0.43073 0.51717 0.0
O83 O 0.84653 0.60569 0.51825 0.0
O84 O 0.01875 0.34781 0.42699 0.0
O85 O 1.01574 0.6883 0.60677 0.0
O86 O 1.01545 0.68907 0.42726 0.0
O87 O 0.01946 0.34835 0.60648 0.0
O88 O 0.92671 0.51764 0.34738 0.0
O89 O 0.10744 0.51897 0.68706 0.0
O90 O 0.9287 0.51786 0.68789 0.0
O91 O 0.10699 0.5192 0.34681 0.0
O92 O 0.93016 0.3471 0.51737 0.0
O93 O 0.10589 0.6898 0.51708 0.0
O94 O 0.9254 0.68771 0.51749 0.0
O95 O 0.10938 0.34881 0.51658 0.0
O96 O 0.84743 0.51696 0.60838 0.0
O97 O 0.18675 0.51989 0.42789 0.0
O98 O 0.1881 0.52019 0.60688 0.0
O99 O 0.84731 0.51647 0.42885 0.0
O100 O 0.01835 0.42808 0.68771 0.0
O101 O 1.01589 0.60778 0.34768 0.0
O102 O 0.01736 0.42886 0.34708 0.0
O103 O 1.01731 0.60845 0.68785 0.0
C104 C 0.86863 0.36509 0.518 0.0
C105 C 0.1672 0.6704 0.51712 0.0
C106 C 0.17031 0.36917 0.51657 0.0
C107 C 0.86444 0.6673 0.51797 0.0
C108 C 0.01759 0.36753 0.36585 0.0
C109 C 1.01667 0.66966 0.66811 0.0
C110 C 1.01555 0.6692 0.36615 0.0
C111 C 0.01887 0.36688 0.66788 0.0
C112 C 0.86561 0.51699 0.36737 0.0
C113 C 0.16868 0.52016 0.66812 0.0
C114 C 0.86732 0.51777 0.66949 0.0
C115 C 0.16819 0.51983 0.36652 0.0
H116 H 0.43115 0.93303 0.43049 0.0
O117 O 0.45841 0.96023 0.45791 0.0
Tb118 Tb 0.40195 0.0197 0.51596 0.0
Tb119 Tb 0.51611 0.90395 0.51755 0.0
Tb120 Tb 0.51878 0.01788 0.40213 0.0
O121 O 0.45713 0.96056 0.57572 0.0
O122 O 0.46001 0.07765 0.45788 0.0
O123 O 0.45872 0.07782 0.57551 0.0
O124 O 0.575 0.95903 0.57712 0.0
O125 O 0.57741 0.07641 0.459 0.0
O126 O 0.5763 0.95864 0.45898 0.0
H127 H 0.42942 0.93343 0.60273 0.0
H128 H 0.43322 0.10514 0.43032 0.0
Tb129 Tb 0.51618 0.01832 0.63297 0.0
Tb130 Tb 0.51884 0.13372 0.51727 0.0
H131 H 0.43154 0.10549 0.60254 0.0
H132 H 0.60181 0.9314 0.60453 0.0
Tb133 Tb 0.63221 1.01689 0.51842 0.0
H134 H 0.60524 0.10336 0.43192 0.0
H135 H 0.60352 0.93093 0.43203 0.0
O136 O 0.57608 0.07643 0.57675 0.0
H137 H 0.60355 0.10346 0.60411 0.0
O138 O 0.34584 0.93005 0.51579 0.0
O139 O 0.68819 0.10565 0.51879 0.0
O140 O 0.68656 0.92644 0.51897 0.0
O141 O 0.34798 0.11031 0.51545 0.0
O142 O 0.51599 0.84841 0.42863 0.0
O143 O 0.51905 0.18885 0.60739 0.0
O144 O 0.51975 0.1886 0.42697 0.0
O145 O 0.51483 0.84877 0.60657 0.0
O146 O 0.42998 0.01868 0.34632 0.0
O147 O 0.60603 0.01782 0.68876 0.0
O148 O 0.42545 0.01935 0.68692 0.0
O149 O 0.60922 1.01711 0.34789 0.0
O150 O 0.42647 0.84992 0.51701 0.0
O151 O 0.60943 0.1877 0.51784 0.0
O152 O 0.42984 0.18937 0.51675 0.0
O153 O 0.60467 0.84761 0.51824 0.0
O154 O 0.34643 0.02029 0.60503 0.0
O155 O 0.68826 1.01654 0.4297 0.0
O156 O 0.68621 1.01693 0.60808 0.0
O157 O 0.34805 0.01998 0.42526 0.0
O158 O 0.5149 0.92821 0.68795 0.0
O159 O 0.51985 0.10724 0.34737 0.0
O160 O 0.51813 0.92766 0.34719 0.0
O161 O 0.51679 0.10794 0.6875 0.0
C162 C 0.36524 0.86873 0.51636 0.0
C163 C 0.67034 0.16724 0.51847 0.0
C164 C 0.66625 0.86546 0.51875 0.0
C165 C 0.36831 0.17127 0.5158 0.0
C166 C 0.51698 0.86659 0.36719 0.0
C167 C 0.51853 0.16919 0.66859 0.0
C168 C 0.51994 0.16867 0.36581 0.0
C169 C 0.51456 0.86709 0.66798 0.0
C170 C 0.36843 0.01943 0.36429 0.0
C171 C 0.66734 1.01729 0.66931 0.0
C172 C 0.36447 0.02008 0.66658 0.0
C173 C 0.67018 1.01651 0.36819 0.0
H174 H 0.43233 0.43128 0.93061 0.0
O175 O 0.45927 0.45877 0.95807 0.0
Tb176 Tb 0.40219 0.51677 1.01718 0.0
Tb177 Tb 0.51883 0.40324 1.01689 0.0
Tb178 Tb 0.51761 0.51814 0.90188 0.0
O179 O 0.45893 0.45837 0.07579 0.0
O180 O 0.45822 0.57638 0.9586 0.0
O181 O 0.45787 0.57639 0.07585 0.0
O182 O 0.57672 0.45975 0.0762 0.0
O183 O 0.57547 0.57783 0.95875 0.0
O184 O 0.57705 0.46023 0.95841 0.0
H185 H 0.43184 0.43085 0.10304 0.0
H186 H 0.43071 0.60344 0.93135 0.0
Tb187 Tb 0.51695 0.51773 0.13207 0.0
Tb188 Tb 0.51612 0.63406 0.01741 0.0
H189 H 0.43025 0.60331 0.10319 0.0
H190 H 0.60423 0.43269 0.10348 0.0
Tb191 Tb 0.63215 0.51956 0.01791 0.0
H192 H 0.60265 0.60542 0.93166 0.0
H193 H 0.60474 0.43326 0.93119 0.0
O194 O 0.57511 0.5778 0.07639 0.0
H195 H 0.60215 0.60511 0.10393 0.0
O196 O 0.34816 0.42614 1.0168 0.0
O197 O 0.68604 0.60939 0.01808 0.0
O198 O 0.68827 0.43084 0.01778 0.0
O199 O 0.34658 0.60586 1.01698 0.0
O200 O 0.5195 0.34829 0.92755 0.0
O201 O 0.51539 0.6885 0.10799 0.0
O202 O 0.51565 0.68887 0.92709 0.0
O203 O 0.51917 0.3482 0.1061 0.0
O204 O 0.42766 0.51803 0.84655 0.0
O205 O 0.606 0.51853 0.1874 0.0
O206 O 0.42757 0.51721 0.18673 0.0
O207 O 0.608 0.51939 0.84727 0.0
O208 O 0.4301 0.34725 1.01659 0.0
O209 O 0.60574 0.69 0.01804 0.0
O210 O 0.42546 0.68791 0.01738 0.0
O211 O 0.60928 0.34897 1.01681 0.0
O212 O 0.34657 0.5168 0.107 0.0
O213 O 0.68739 0.52015 0.92876 0.0
O214 O 0.68732 0.51985 0.10799 0.0
O215 O 0.34761 0.5168 0.92749 0.0
O216 O 0.51764 0.42777 0.18734 0.0
O217 O 0.51681 0.60759 0.8474 0.0
O218 O 0.51877 0.42821 0.84658 0.0
O219 O 0.51596 0.60692 0.1873 0.0
C220 C 0.36854 0.36517 1.01656 0.0
C221 C 0.66702 0.6706 0.01857 0.0
C222 C 0.67023 0.36929 1.01701 0.0
C223 C 0.36454 0.66747 1.01725 0.0
C224 C 0.51976 0.36705 0.86626 0.0
C225 C 0.51556 0.66839 0.16907 0.0
C226 C 0.51597 0.66896 0.86592 0.0
C227 C 0.51853 0.36662 0.16751 0.0
C228 C 0.36644 0.51796 0.86617 0.0
C229 C 0.66743 0.51922 0.16912 0.0
C230 C 0.36623 0.51726 0.16819 0.0
C231 C 0.66908 0.5202 0.86731 0.0
C232 C 0.03518 0.20693 0.28127 0.0
C233 C 1.01725 0.22076 0.2178 0.0
C234 C 0.0348 0.25442 0.32881 0.0
C235 C 1.01646 0.31779 0.3149 0.0
H236 H 0.05047 0.15916 0.2944 0.0
H237 H 0.04983 0.24136 0.37666 0.0
S238 S 0.95963 0.37796 0.15738 0.0
N239 N 0.97686 0.30198 0.14455 0.0
N240 N 0.97616 0.39083 0.23348 0.0
C241 C 0.99715 0.33202 0.25186 0.0
C242 C 0.99755 0.28369 0.20349 0.0
C243 C 0.7541 0.02958 0.20696 0.0
C244 C 0.81879 0.01791 0.22188 0.0
C245 C 0.70659 0.0288 0.25435 0.0
C246 C 0.72158 1.0163 0.31886 0.0
H247 H 0.73975 0.03994 0.15825 0.0
H248 H 0.65775 0.03868 0.24008 0.0
S249 S 0.88347 0.97984 0.38337 0.0
N250 N 0.895 0.99152 0.30618 0.0
N251 N 0.80609 0.99011 0.39486 0.0
C252 C 0.78608 1.00402 0.33451 0.0
C253 C 0.83449 1.0048 0.28622 0.0
C254 C 1.01257 0.83165 0.28288 0.0
C255 C 1.01661 0.81575 0.21744 0.0
C256 C 1.01214 0.78423 0.33045 0.0
C257 C 1.01569 0.71871 0.31479 0.0
H258 H 1.00953 0.8812 0.29784 0.0
H259 H 1.00888 0.79937 0.37992 0.0
S260 S 0.02718 0.65089 0.15057 0.0
N261 N 0.02444 0.72898 0.13971 0.0
N262 N 0.0235 0.64052 0.22856 0.0
C263 C 0.01967 0.70207 0.24949 0.0
C264 C 0.02016 0.75029 0.20107 0.0
C265 C 0.2536 0.01921 0.32858 0.0
C266 C 0.31914 0.0192 0.31273 0.0
C267 C 0.20613 0.01857 0.28116 0.0
C268 C 0.22191 0.01786 0.21562 0.0
H269 H 0.23843 0.01964 0.37813 0.0
H270 H 0.15659 0.01861 0.29639 0.0
S271 S 0.38669 0.01761 0.14788 0.0
N272 N 0.39728 0.01854 0.22604 0.0
N273 N 0.30852 1.0173 0.13738 0.0
C274 C 0.28736 0.01792 0.19894 0.0
C275 C 0.33574 0.0186 0.24726 0.0
C276 C 1.00783 0.75309 0.83026 0.0
C277 C 1.01582 0.81827 0.81483 0.0
C278 C 1.00838 0.70551 0.78279 0.0
C279 C 1.01697 0.72095 0.71772 0.0
H280 H 1.00069 0.7384 0.87945 0.0
H281 H 1.00156 0.65626 0.79747 0.0
S282 S 0.04275 0.88438 0.65165 0.0
N283 N 0.0344 0.89543 0.72931 0.0
N284 N 0.0356 0.80658 0.64068 0.0
C285 C 0.02566 0.78597 0.70163 0.0
C286 C 0.02504 0.83438 0.74992 0.0
C287 C 0.28101 1.01411 0.82869 0.0
C288 C 0.21558 0.01842 0.813 0.0
C289 C 0.32853 1.0149 0.78129 0.0
C290 C 0.31291 0.02008 0.71592 0.0
H291 H 0.29606 1.00988 0.87811 0.0
H292 H 0.37797 1.01114 0.79636 0.0
S293 S 0.1486 0.03424 0.64874 0.0
N294 N 0.13777 0.02905 0.7267 0.0
N295 N 0.22665 0.03064 0.63809 0.0
C296 C 0.24759 0.02481 0.69944 0.0
C297 C 0.19915 0.02394 0.74773 0.0
C298 C 0.01916 0.33147 0.78302 0.0
C299 C 0.01835 0.31553 0.71747 0.0
C300 C 0.01863 0.28404 0.83058 0.0
C301 C 1.01724 0.21846 0.81482 0.0
H302 H 0.02029 0.38107 0.79809 0.0
H303 H 0.01937 0.29924 0.88013 0.0
S304 S 1.01347 0.15059 0.6501 0.0
N305 N 1.01534 0.2287 0.63946 0.0
N306 N 1.0142 0.14019 0.72824 0.0
C307 C 1.01606 0.20177 0.74937 0.0
C308 C 1.01666 0.25003 0.70097 0.0
C309 C 0.70279 0.02296 0.7843 0.0
C310 C 0.71857 1.01746 0.71896 0.0
C311 C 0.75027 0.02361 0.83183 0.0
C312 C 0.81569 0.01883 0.81621 0.0
H313 H 0.65331 0.02704 0.79917 0.0
H314 H 0.73527 0.0281 0.88124 0.0
S315 S 0.88312 1.00254 0.65198 0.0
N316 N 0.8051 1.00649 0.64128 0.0
N317 N 0.89364 1.00776 0.72995 0.0
C318 C 0.83222 1.01318 0.75093 0.0
C319 C 0.78395 1.01247 0.70259 0.0
C320 C 0.25373 0.32943 1.01732 0.0
C321 C 0.31926 0.3136 1.01633 0.0
C322 C 0.20626 0.282 1.0172 0.0
C323 C 0.22202 0.21645 1.01608 0.0
H324 H 0.23856 0.37899 0.01826 0.0
H325 H 0.15672 0.29722 0.01806 0.0
S326 S 0.38682 0.14876 1.0127 0.0
N327 N 0.39741 0.22693 1.01387 0.0
N328 N 0.30865 0.13822 1.01367 0.0
C329 C 0.28749 0.19978 1.01499 0.0
C330 C 0.33586 0.24813 1.01511 0.0
C331 C 0.32864 0.78223 1.01275 0.0
C332 C 0.313 0.7168 1.0173 0.0
C333 C 0.28113 0.82966 1.01242 0.0
C334 C 0.2157 0.8139 1.01651 0.0
H335 H 0.37809 0.79735 1.00922 0.0
H336 H 0.29618 0.87913 1.00875 0.0
S337 S 0.14876 0.64948 0.03047 0.0
N338 N 0.2268 0.63886 0.02707 0.0
N339 N 0.1379 0.72747 0.02589 0.0
C340 C 0.19928 0.74856 0.02123 0.0
C341 C 0.24771 0.70027 0.02176 0.0
C342 C 0.70641 0.25511 0.02706 0.0
C343 C 0.72165 0.31994 1.01659 0.0
C344 C 0.75388 0.20768 0.02752 0.0
C345 C 0.8188 0.22285 0.01747 0.0
H346 H 0.65737 0.24058 0.0355 0.0
H347 H 0.73929 0.15871 0.03626 0.0
S348 S 0.88421 0.38521 0.98458 0.0
N349 N 0.80667 0.39652 0.9938 0.0
N350 N 0.89549 0.30775 0.99457 0.0
C351 C 0.83475 0.2875 1.00628 0.0
C352 C 0.78638 0.33584 1.00586 0.0
C353 C 0.75058 0.83258 1.00885 0.0
C354 C 0.81526 0.81741 0.02038 0.0
C355 C 0.70302 0.7851 1.00863 0.0
C356 C 0.71804 0.72035 0.01994 0.0
H357 H 0.73639 0.88149 0.99919 0.0
H358 H 0.65418 0.79942 0.99884 0.0
S359 S 0.87979 0.65523 0.05592 0.0
N360 N 0.89132 0.73261 0.04568 0.0
N361 N 0.80249 0.64399 0.0453 0.0
C362 C 0.78249 0.70458 0.03236 0.0
C363 C 0.83085 0.75285 0.03258 0.0
C364 C 0.70502 0.51289 0.7527 0.0
C365 C 0.72049 0.52068 0.81787 0.0
C366 C 0.75256 0.51214 0.70528 0.0
C367 C 0.81779 0.51912 0.72082 0.0
H368 H 0.65573 0.50685 0.73786 0.0
H369 H 0.73777 0.50563 0.65603 0.0
S370 S 0.88411 0.54422 0.8843 0.0
N371 N 0.80625 0.53775 0.89517 0.0
N372 N 0.8951 0.53627 0.80659 0.0
C373 C 0.83398 0.52773 0.78585 0.0
C374 C 0.78557 0.52852 0.83412 0.0
C375 C 0.28292 0.508 0.70417 0.0
C376 C 0.2185 0.52118 0.71907 0.0
C377 C 0.33035 0.50731 0.75178 0.0
C378 C 0.31543 0.51974 0.81638 0.0
H379 H 0.29698 0.49733 0.65542 0.0
H380 H 0.37899 0.49622 0.7377 0.0
S381 S 0.15448 0.56135 0.8802 0.0
N382 N 0.14294 0.55009 0.80302 0.0
N383 N 0.23145 0.54865 0.89203 0.0
C384 C 0.25128 0.53408 0.83176 0.0
C385 C 0.20309 0.53485 0.78332 0.0
C386 C 0.20368 0.51588 0.25143 0.0
C387 C 0.2195 0.52004 0.31687 0.0
C388 C 0.25115 0.51509 0.20387 0.0
C389 C 0.31665 0.5184 0.21954 0.0
H390 H 0.15414 0.51291 0.23646 0.0
H391 H 0.23607 0.51163 0.1544 0.0
S392 S 0.38417 0.53195 0.38384 0.0
N393 N 0.30611 0.52898 0.3946 0.0
N394 N 0.39468 0.52744 0.30585 0.0
C395 C 0.3332 0.52316 0.28486 0.0
C396 C 0.28491 0.52399 0.33324 0.0
C397 C 0.78249 0.52039 0.2048 0.0
C398 C 0.71693 0.51881 0.22058 0.0
C399 C 0.82998 0.51965 0.25231 0.0
C400 C 0.81416 0.51733 0.31785 0.0
H401 H 0.79764 0.52224 0.15526 0.0
H402 H 0.87954 0.52101 0.23719 0.0
S403 S 0.64933 0.51205 0.38534 0.0
N404 N 0.63881 0.51452 0.30722 0.0
N405 N 0.72747 0.51319 0.39589 0.0
C406 C 0.74869 0.51569 0.33439 0.0
C407 C 0.70035 0.51643 0.28603 0.0
C408 C 0.25004 0.83325 0.51671 0.0
C409 C 0.3156 0.81744 0.51654 0.0
C410 C 0.20255 0.78567 0.51698 0.0
C411 C 0.21845 0.72011 0.51707 0.0
H412 H 0.23494 0.88284 0.51669 0.0
H413 H 0.15295 0.80071 0.51712 0.0
S414 S 0.38342 0.65258 0.51748 0.0
N415 N 0.39381 0.73073 0.51692 0.0
N416 N 0.30529 0.64204 0.51753 0.0
C417 C 0.28397 0.70358 0.51711 0.0
C418 C 0.33224 0.75194 0.51681 0.0
C419 C 0.20638 0.25469 0.52373 0.0
C420 C 0.22181 0.31986 0.51588 0.0
C421 C 0.25384 0.20723 0.52351 0.0
C422 C 0.31895 0.22272 0.51539 0.0
H423 H 0.15718 0.23986 0.53055 0.0
H424 H 0.23907 0.15799 0.53021 0.0
S425 S 0.38522 0.38624 0.49121 0.0
N426 N 0.30744 0.39722 0.49862 0.0
N427 N 0.39619 0.30842 0.4981 0.0
C428 C 0.33514 0.28775 0.50714 0.0
C429 C 0.28679 0.33611 0.50741 0.0
C430 C 0.82859 0.78221 0.51727 0.0
C431 C 0.81283 0.71663 0.51823 0.0
C432 C 0.78111 0.82968 0.51753 0.0
C433 C 0.71557 0.81386 0.51878 0.0
H434 H 0.87812 0.79743 0.51626 0.0
H435 H 0.79629 0.87925 0.51664 0.0
S436 S 0.64808 0.64898 0.52196 0.0
N437 N 0.72622 0.63844 0.52064 0.0
N438 N 0.63746 0.72716 0.52122 0.0
C439 C 0.69899 0.74837 0.51982 0.0
C440 C 0.74737 0.70001 0.51952 0.0
C441 C 0.70628 0.28203 0.51625 0.0
C442 C 0.72196 0.21648 0.5186 0.0
C443 C 0.7538 0.32942 0.5161 0.0
C444 C 0.81929 0.31354 0.51829 0.0
H445 H 0.65678 0.29727 0.51436 0.0
H446 H 0.7387 0.37897 0.51408 0.0
S447 S 0.88651 0.14863 0.52474 0.0
N448 N 0.80837 0.13819 0.52313 0.0
N449 N 0.89726 0.22678 0.52285 0.0
C450 C 0.83579 0.24806 0.52065 0.0
C451 C 0.78735 0.19977 0.52081 0.0
C452 C 0.50602 0.33061 0.75249 0.0
C453 C 0.52092 0.31601 0.81659 0.0
C454 C 0.50567 0.28308 0.70501 0.0
C455 C 0.52019 0.21889 0.71957 0.0
H456 H 0.4937 0.37905 0.73875 0.0
H457 H 0.49312 0.29684 0.65664 0.0
S458 S 0.56688 0.15588 0.87939 0.0
N459 N 0.55354 0.23274 0.89144 0.0
N460 N 0.55296 0.14388 0.80265 0.0
C461 C 0.53621 0.20376 0.78336 0.0
C462 C 0.53655 0.25211 0.83167 0.0
C463 C 0.51476 0.83147 0.78293 0.0
C464 C 0.51441 0.81564 0.71738 0.0
C465 C 0.5152 0.78399 0.83039 0.0
C466 C 0.51532 0.71844 0.81452 0.0
H467 H 0.51482 0.88105 0.7981 0.0
H468 H 0.51554 0.79912 0.87997 0.0
S469 S 0.51408 0.65076 0.64961 0.0
N470 N 0.51389 0.72893 0.63915 0.0
N471 N 0.51471 0.64026 0.72775 0.0
C472 C 0.5148 0.70182 0.74902 0.0
C473 C 0.51434 0.75016 0.70071 0.0
C474 C 0.51267 0.78332 0.20486 0.0
C475 C 0.51572 0.71781 0.22059 0.0
C476 C 0.5131 0.83083 0.25234 0.0
C477 C 0.51662 0.81509 0.31779 0.0
H478 H 0.50983 0.7984 0.15537 0.0
H479 H 0.51049 0.88036 0.23727 0.0
S480 S 0.52581 0.65045 0.38521 0.0
N481 N 0.52257 0.63979 0.30713 0.0
N482 N 0.52342 0.72857 0.3958 0.0
C483 C 0.51967 0.74967 0.33433 0.0
C484 C 0.51922 0.70128 0.286 0.0
C485 C 0.51994 0.28374 0.33014 0.0
C486 C 0.51974 0.21815 0.31436 0.0
C487 C 0.51953 0.33119 0.28261 0.0
C488 C 0.51884 0.31527 0.21706 0.0
H489 H 0.5204 0.29894 0.3797 0.0
H490 H 0.5198 0.3808 0.2977 0.0
S491 S 0.5177 0.15031 0.14951 0.0
N492 N 0.5186 0.13988 0.22767 0.0
N493 N 0.5177 0.22847 0.13897 0.0
C494 C 0.51851 0.24976 0.20051 0.0
C495 C 0.51898 0.20147 0.24887 0.0
loop_
_geom_bond_atom_site_label_1
_geom_bond_atom_site_label_2
_geom_bond_distance
_geom_bond_site_symmetry_2
_ccdc_geom_bond_type
H0 O1 0.850 . S
O1 H0 0.850 . S
O1 Tb2 2.341 1_566 S
O1 Tb3 2.341 1_656 S
O1 Tb4 2.341 1_665 S
Tb2 O1 2.341 1_544 S
Tb2 O5 2.341 1_545 S
Tb2 O6 2.341 1_554 S
Tb2 O7 2.341 . S
Tb2 O22 2.344 1_545 S
Tb2 O25 2.344 . S
Tb2 O38 2.344 . S
Tb2 O41 2.344 1_554 S
Tb3 O1 2.341 1_454 S
Tb3 O5 2.341 1_455 S
Tb3 O8 2.341 . S
Tb3 O10 2.341 1_554 S
Tb3 O26 2.344 1_554 S
Tb3 O29 2.344 . S
Tb3 O34 2.344 1_455 S
Tb3 O37 2.344 . S
Tb4 O1 2.341 1_445 S
Tb4 O6 2.341 1_455 S
Tb4 O9 2.341 . S
Tb4 O10 2.341 1_545 S
Tb4 O30 2.344 1_455 S
Tb4 O33 2.344 . S
Tb4 O43 2.344 . S
Tb4 O44 2.344 1_545 S
O5 Tb2 2.341 1_565 S
O5 Tb3 2.341 1_655 S
O5 H11 0.850 . S
O5 Tb13 2.341 1_665 S
O6 Tb2 2.341 1_556 S
O6 Tb4 2.341 1_655 S
O6 H12 0.850 . S
O6 Tb14 2.341 1_656 S
O7 Tb2 2.341 . S
O7 Tb13 2.341 1_655 S
O7 Tb14 2.341 1_655 S
O7 H15 0.850 . S
O8 Tb3 2.341 . S
O8 Tb13 2.341 1_565 S
O8 H16 0.850 . S
O8 Tb17 2.341 1_565 S
O9 Tb4 2.341 . S
O9 Tb14 2.341 1_556 S
O9 Tb17 2.341 1_556 S
O9 H18 0.850 . S
O10 Tb3 2.341 1_556 S
O10 Tb4 2.341 1_565 S
O10 Tb17 2.341 1_566 S
O10 H19 0.850 . S
H11 O5 0.850 . S
H12 O6 0.850 . S
Tb13 O5 2.341 1_445 S
Tb13 O7 2.341 1_455 S
Tb13 O8 2.341 1_545 S
Tb13 O20 2.341 . S
Tb13 O31 2.344 . S
Tb13 O32 2.344 1_455 S
Tb13 O42 2.344 1_545 S
Tb13 O45 2.344 . S
Tb14 O6 2.341 1_454 S
Tb14 O7 2.341 1_455 S
Tb14 O9 2.341 1_554 S
Tb14 O20 2.341 . S
Tb14 O27 2.344 . S
Tb14 O28 2.344 1_554 S
Tb14 O35 2.344 . S
Tb14 O36 2.344 1_455 S
H15 O7 0.850 . S
H16 O8 0.850 . S
Tb17 O8 2.341 1_545 S
Tb17 O9 2.341 1_554 S
Tb17 O10 2.341 1_544 S
Tb17 O20 2.341 . S
Tb17 O23 2.344 . S
Tb17 O24 2.344 1_545 S
Tb17 O39 2.344 1_554 S
Tb17 O40 2.344 . S
H18 O9 0.850 . S
H19 O10 0.850 . S
O20 Tb13 2.341 . S
O20 Tb14 2.341 . S
O20 Tb17 2.341 . S
O20 H21 0.850 . S
H21 O20 0.850 . S
O22 Tb2 2.344 1_565 S
O22 C46 1.272 . S
O23 Tb17 2.344 . S
O23 C47 1.272 . S
O24 Tb17 2.344 1_565 S
O24 C48 1.272 . S
O25 Tb2 2.344 . S
O25 C49 1.272 . S
O26 Tb3 2.344 1_556 S
O26 C50 1.272 . S
O27 Tb14 2.344 . S
O27 C51 1.272 . S
O28 Tb14 2.344 1_556 S
O28 C52 1.272 . S
O29 Tb3 2.344 . S
O29 C53 1.272 . S
O30 Tb4 2.344 1_655 S
O30 C54 1.272 . S
O31 Tb13 2.344 . S
O31 C55 1.272 . S
O32 Tb13 2.344 1_655 S
O32 C56 1.272 . S
O33 Tb4 2.344 . S
O33 C57 1.272 . S
O34 Tb3 2.344 1_655 S
O34 C46 1.272 . S
O35 Tb14 2.344 . S
O35 C47 1.272 . S
O36 Tb14 2.344 1_655 S
O36 C49 1.272 . S
O37 Tb3 2.344 . S
O37 C48 1.272 . S
O38 Tb2 2.344 . S
O38 C56 1.272 . S
O39 Tb17 2.344 1_556 S
O39 C57 1.272 . S
O40 Tb17 2.344 . S
O40 C55 1.272 . S
O41 Tb2 2.344 1_556 S
O41 C54 1.272 . S
O42 Tb13 2.344 1_565 S
O42 C53 1.272 . S
O43 Tb4 2.344 . S
O43 C52 1.272 . S
O44 Tb4 2.344 1_565 S
O44 C50 1.272 . S
O45 Tb13 2.344 . S
O45 C51 1.272 . S
C46 O22 1.272 . S
C46 O34 1.272 . S
C47 O23 1.272 . S
C47 O35 1.272 . S
C48 O24 1.272 . S
C48 O37 1.272 . S
C49 O25 1.272 . S
C49 O36 1.272 . S
C50 O26 1.272 . S
C50 O44 1.272 . S
C51 O27 1.272 . S
C51 O45 1.272 . S
C52 O28 1.272 . S
C52 O43 1.272 . S
C53 O29 1.272 . S
C53 O42 1.272 . S
C54 O30 1.272 . S
C54 O41 1.272 . S
C55 O31 1.272 . S
C55 O40 1.272 . S
C56 O32 1.272 . S
C56 O38 1.272 . S
C57 O33 1.272 . S
C57 O39 1.272 . S
H58 O59 0.850 . S
O59 H58 0.850 . S
O59 Tb60 2.341 . S
O59 Tb61 2.341 1_655 S
O59 Tb62 2.341 1_655 S
Tb60 O59 2.341 . S
Tb60 O63 2.341 . S
Tb60 O64 2.341 . S
Tb60 O65 2.341 . S
Tb60 O80 2.344 . S
Tb60 O83 2.344 . S
Tb60 O96 2.344 . S
Tb60 O99 2.344 . S
Tb61 O59 2.341 1_455 S
Tb61 O63 2.341 1_455 S
Tb61 O66 2.341 . S
Tb61 O68 2.341 . S
Tb61 O84 2.344 . S
Tb61 O87 2.344 . S
Tb61 O92 2.344 1_455 S
Tb61 O95 2.344 . S
Tb62 O59 2.341 1_455 S
Tb62 O64 2.341 1_455 S
Tb62 O67 2.341 . S
Tb62 O68 2.341 . S
Tb62 O88 2.344 1_455 S
Tb62 O91 2.344 . S
Tb62 O101 2.344 . S
Tb62 O102 2.344 . S
O63 Tb60 2.341 . S
O63 Tb61 2.341 1_655 S
O63 H69 0.850 . S
O63 Tb71 2.341 1_655 S
O64 Tb60 2.341 . S
O64 Tb62 2.341 1_655 S
O64 H70 0.850 . S
O64 Tb72 2.341 1_655 S
O65 Tb60 2.341 . S
O65 Tb71 2.341 1_655 S
O65 Tb72 2.341 1_655 S
O65 H73 0.850 . S
O66 Tb61 2.341 . S
O66 Tb71 2.341 . S
O66 H74 0.850 . S
O66 Tb75 2.341 . S
O67 Tb62 2.341 . S
O67 Tb72 2.341 . S
O67 Tb75 2.341 . S
O67 H76 0.850 . S
O68 Tb61 2.341 . S
O68 Tb62 2.341 . S
O68 Tb75 2.341 . S
O68 H77 0.850 . S
H69 O63 0.850 . S
H70 O64 0.850 . S
Tb71 O63 2.341 1_455 S
Tb71 O65 2.341 1_455 S
Tb71 O66 2.341 . S
Tb71 O78 2.341 . S
Tb71 O89 2.344 . S
Tb71 O90 2.344 1_455 S
Tb71 O100 2.344 . S
Tb71 O103 2.344 . S
Tb72 O64 2.341 1_455 S
Tb72 O65 2.341 1_455 S
Tb72 O67 2.341 . S
Tb72 O78 2.341 . S
Tb72 O85 2.344 . S
Tb72 O86 2.344 . S
Tb72 O93 2.344 . S
Tb72 O94 2.344 1_455 S
H73 O65 0.850 . S
H74 O66 0.850 . S
Tb75 O66 2.341 . S
Tb75 O67 2.341 . S
Tb75 O68 2.341 . S
Tb75 O78 2.341 . S
Tb75 O81 2.344 . S
Tb75 O82 2.344 . S
Tb75 O97 2.344 . S
Tb75 O98 2.344 . S
H76 O67 0.850 . S
H77 O68 0.850 . S
O78 Tb71 2.341 . S
O78 Tb72 2.341 . S
O78 Tb75 2.341 . S
O78 H79 0.850 . S
H79 O78 0.850 . S
O80 Tb60 2.344 . S
O80 C104 1.272 . S
O81 Tb75 2.344 . S
O81 C105 1.272 . S
O82 Tb75 2.344 . S
O82 C106 1.272 . S
O83 Tb60 2.344 . S
O83 C107 1.272 . S
O84 Tb61 2.344 . S
O84 C108 1.272 . S
O85 Tb72 2.344 . S
O85 C109 1.272 . S
O86 Tb72 2.344 . S
O86 C110 1.272 . S
O87 Tb61 2.344 . S
O87 C111 1.272 . S
O88 Tb62 2.344 1_655 S
O88 C112 1.272 . S
O89 Tb71 2.344 . S
O89 C113 1.272 . S
O90 Tb71 2.344 1_655 S
O90 C114 1.272 . S
O91 Tb62 2.344 . S
O91 C115 1.272 . S
O92 Tb61 2.344 1_655 S
O92 C104 1.272 . S
O93 Tb72 2.344 . S
O93 C105 1.272 . S
O94 Tb72 2.344 1_655 S
O94 C107 1.272 . S
O95 Tb61 2.344 . S
O95 C106 1.272 . S
O96 Tb60 2.344 . S
O96 C114 1.272 . S
O97 Tb75 2.344 . S
O97 C115 1.272 . S
O98 Tb75 2.344 . S
O98 C113 1.272 . S
O99 Tb60 2.344 . S
O99 C112 1.272 . S
O100 Tb71 2.344 . S
O100 C111 1.272 . S
O101 Tb62 2.344 . S
O101 C110 1.272 . S
O102 Tb62 2.344 . S
O102 C108 1.272 . S
O103 Tb71 2.344 . S
O103 C109 1.272 . S
C104 O80 1.272 . S
C104 O92 1.272 . S
C105 O81 1.272 . S
C105 O93 1.272 . S
C106 O82 1.272 . S
C106 O95 1.272 . S
C107 O83 1.272 . S
C107 O94 1.272 . S
C108 O84 1.272 . S
C108 O102 1.272 . S
C109 O85 1.272 . S
C109 O103 1.272 . S
C110 O86 1.272 . S
C110 O101 1.272 . S
C111 O87 1.272 . S
C111 O100 1.272 . S
C112 O88 1.272 . S
C112 O99 1.272 . S
C113 O89 1.272 . S
C113 O98 1.272 . S
C114 O90 1.272 . S
C114 O96 1.272 . S
C115 O91 1.272 . S
C115 O97 1.272 . S
H116 O117 0.850 . S
O117 H116 0.850 . S
O117 Tb118 2.341 1_565 S
O117 Tb119 2.341 . S
O117 Tb120 2.341 1_565 S
Tb118 O117 2.341 1_545 S
Tb118 O121 2.341 1_545 S
Tb118 O122 2.341 . S
Tb118 O123 2.341 . S
Tb118 O138 2.344 1_545 S
Tb118 O141 2.344 . S
Tb118 O154 2.344 . S
Tb118 O157 2.344 . S
Tb119 O117 2.341 . S
Tb119 O121 2.341 . S
Tb119 O124 2.341 . S
Tb119 O126 2.341 . S
Tb119 O142 2.344 . S
Tb119 O145 2.344 . S
Tb119 O150 2.344 . S
Tb119 O153 2.344 . S
Tb120 O117 2.341 1_545 S
Tb120 O122 2.341 . S
Tb120 O125 2.341 . S
Tb120 O126 2.341 1_545 S
Tb120 O146 2.344 . S
Tb120 O149 2.344 . S
Tb120 O159 2.344 . S
Tb120 O160 2.344 1_545 S
O121 Tb118 2.341 1_565 S
O121 Tb119 2.341 . S
O121 H127 0.850 . S
O121 Tb129 2.341 1_565 S
O122 Tb118 2.341 . S
O122 Tb120 2.341 . S
O122 H128 0.850 . S
O122 Tb130 2.341 . S
O123 Tb118 2.341 . S
O123 Tb129 2.341 . S
O123 Tb130 2.341 . S
O123 H131 0.850 . S
O124 Tb119 2.341 . S
O124 Tb129 2.341 1_565 S
O124 H132 0.850 . S
O124 Tb133 2.341 1_565 S
O125 Tb120 2.341 . S
O125 Tb130 2.341 . S
O125 Tb133 2.341 . S
O125 H134 0.850 . S
O126 Tb119 2.341 . S
O126 Tb120 2.341 1_565 S
O126 Tb133 2.341 1_565 S
O126 H135 0.850 . S
H127 O121 0.850 . S
H128 O122 0.850 . S
Tb129 O121 2.341 1_545 S
Tb129 O123 2.341 . S
Tb129 O124 2.341 1_545 S
Tb129 O136 2.341 . S
Tb129 O147 2.344 . S
Tb129 O148 2.344 . S
Tb129 O158 2.344 1_545 S
Tb129 O161 2.344 . S
Tb130 O122 2.341 . S
Tb130 O123 2.341 . S
Tb130 O125 2.341 . S
Tb130 O136 2.341 . S
Tb130 O143 2.344 . S
Tb130 O144 2.344 . S
Tb130 O151 2.344 . S
Tb130 O152 2.344 . S
H131 O123 0.850 . S
H132 O124 0.850 . S
Tb133 O124 2.341 1_545 S
Tb133 O125 2.341 . S
Tb133 O126 2.341 1_545 S
Tb133 O136 2.341 . S
Tb133 O139 2.344 . S
Tb133 O140 2.344 1_545 S
Tb133 O155 2.344 . S
Tb133 O156 2.344 . S
H134 O125 0.850 . S
H135 O126 0.850 . S
O136 Tb129 2.341 . S
O136 Tb130 2.341 . S
O136 Tb133 2.341 . S
O136 H137 0.850 . S
H137 O136 0.850 . S
O138 Tb118 2.344 1_565 S
O138 C162 1.272 . S
O139 Tb133 2.344 . S
O139 C163 1.272 . S
O140 Tb133 2.344 1_565 S
O140 C164 1.272 . S
O141 Tb118 2.344 . S
O141 C165 1.272 . S
O142 Tb119 2.344 . S
O142 C166 1.272 . S
O143 Tb130 2.344 . S
O143 C167 1.272 . S
O144 Tb130 2.344 . S
O144 C168 1.272 . S
O145 Tb119 2.344 . S
O145 C169 1.272 . S
O146 Tb120 2.344 . S
O146 C170 1.272 . S
O147 Tb129 2.344 . S
O147 C171 1.272 . S
O148 Tb129 2.344 . S
O148 C172 1.272 . S
O149 Tb120 2.344 . S
O149 C173 1.272 . S
O150 Tb119 2.344 . S
O150 C162 1.272 . S
O151 Tb130 2.344 . S
O151 C163 1.272 . S
O152 Tb130 2.344 . S
O152 C165 1.272 . S
O153 Tb119 2.344 . S
O153 C164 1.272 . S
O154 Tb118 2.344 . S
O154 C172 1.272 . S
O155 Tb133 2.344 . S
O155 C173 1.272 . S
O156 Tb133 2.344 . S
O156 C171 1.272 . S
O157 Tb118 2.344 . S
O157 C170 1.272 . S
O158 Tb129 2.344 1_565 S
O158 C169 1.272 . S
O159 Tb120 2.344 . S
O159 C168 1.272 . S
O160 Tb120 2.344 1_565 S
O160 C166 1.272 . S
O161 Tb129 2.344 . S
O161 C167 1.272 . S
C162 O138 1.272 . S
C162 O150 1.272 . S
C163 O139 1.272 . S
C163 O151 1.272 . S
C164 O140 1.272 . S
C164 O153 1.272 . S
C165 O141 1.272 . S
C165 O152 1.272 . S
C166 O142 1.272 . S
C166 O160 1.272 . S
C167 O143 1.272 . S
C167 O161 1.272 . S
C168 O144 1.272 . S
C168 O159 1.272 . S
C169 O145 1.272 . S
C169 O158 1.272 . S
C170 O146 1.272 . S
C170 O157 1.272 . S
C171 O147 1.272 . S
C171 O156 1.272 . S
C172 O148 1.272 . S
C172 O154 1.272 . S
C173 O149 1.272 . S
C173 O155 1.272 . S
H174 O175 0.850 . S
O175 H174 0.850 . S
O175 Tb176 2.341 1_556 S
O175 Tb177 2.341 1_556 S
O175 Tb178 2.341 . S
Tb176 O175 2.341 1_554 S
Tb176 O179 2.341 . S
Tb176 O180 2.341 1_554 S
Tb176 O181 2.341 . S
Tb176 O196 2.344 . S
Tb176 O199 2.344 . S
Tb176 O212 2.344 . S
Tb176 O215 2.344 1_554 S
Tb177 O175 2.341 1_554 S
Tb177 O179 2.341 . S
Tb177 O182 2.341 . S
Tb177 O184 2.341 1_554 S
Tb177 O200 2.344 1_554 S
Tb177 O203 2.344 . S
Tb177 O208 2.344 . S
Tb177 O211 2.344 . S
Tb178 O175 2.341 . S
Tb178 O180 2.341 . S
Tb178 O183 2.341 . S
Tb178 O184 2.341 . S
Tb178 O204 2.344 . S
Tb178 O207 2.344 . S
Tb178 O217 2.344 . S
Tb178 O218 2.344 . S
O179 Tb176 2.341 . S
O179 Tb177 2.341 . S
O179 H185 0.850 . S
O179 Tb187 2.341 . S
O180 Tb176 2.341 1_556 S
O180 Tb178 2.341 . S
O180 H186 0.850 . S
O180 Tb188 2.341 1_556 S
O181 Tb176 2.341 . S
O181 Tb187 2.341 . S
O181 Tb188 2.341 . S
O181 H189 0.850 . S
O182 Tb177 2.341 . S
O182 Tb187 2.341 . S
O182 H190 0.850 . S
O182 Tb191 2.341 . S
O183 Tb178 2.341 . S
O183 Tb188 2.341 1_556 S
O183 Tb191 2.341 1_556 S
O183 H192 0.850 . S
O184 Tb177 2.341 1_556 S
O184 Tb178 2.341 . S
O184 Tb191 2.341 1_556 S
O184 H193 0.850 . S
H185 O179 0.850 . S
H186 O180 0.850 . S
Tb187 O179 2.341 . S
Tb187 O181 2.341 . S
Tb187 O182 2.341 . S
Tb187 O194 2.341 . S
Tb187 O205 2.344 . S
Tb187 O206 2.344 . S
Tb187 O216 2.344 . S
Tb187 O219 2.344 . S
Tb188 O180 2.341 1_554 S
Tb188 O181 2.341 . S
Tb188 O183 2.341 1_554 S
Tb188 O194 2.341 . S
Tb188 O201 2.344 . S
Tb188 O202 2.344 1_554 S
Tb188 O209 2.344 . S
Tb188 O210 2.344 . S
H189 O181 0.850 . S
H190 O182 0.850 . S
Tb191 O182 2.341 . S
Tb191 O183 2.341 1_554 S
Tb191 O184 2.341 1_554 S
Tb191 O194 2.341 . S
Tb191 O197 2.344 . S
Tb191 O198 2.344 . S
Tb191 O213 2.344 1_554 S
Tb191 O214 2.344 . S
H192 O183 0.850 . S
H193 O184 0.850 . S
O194 Tb187 2.341 . S
O194 Tb188 2.341 . S
O194 Tb191 2.341 . S
O194 H195 0.850 . S
H195 O194 0.850 . S
O196 Tb176 2.344 . S
O196 C220 1.272 . S
O197 Tb191 2.344 . S
O197 C221 1.272 . S
O198 Tb191 2.344 . S
O198 C222 1.272 . S
O199 Tb176 2.344 . S
O199 C223 1.272 . S
O200 Tb177 2.344 1_556 S
O200 C224 1.272 . S
O201 Tb188 2.344 . S
O201 C225 1.272 . S
O202 Tb188 2.344 1_556 S
O202 C226 1.272 . S
O203 Tb177 2.344 . S
O203 C227 1.272 . S
O204 Tb178 2.344 . S
O204 C228 1.272 . S
O205 Tb187 2.344 . S
O205 C229 1.272 . S
O206 Tb187 2.344 . S
O206 C230 1.272 . S
O207 Tb178 2.344 . S
O207 C231 1.272 . S
O208 Tb177 2.344 . S
O208 C220 1.272 . S
O209 Tb188 2.344 . S
O209 C221 1.272 . S
O210 Tb188 2.344 . S
O210 C223 1.272 . S
O211 Tb177 2.344 . S
O211 C222 1.272 . S
O212 Tb176 2.344 . S
O212 C230 1.272 . S
O213 Tb191 2.344 1_556 S
O213 C231 1.272 . S
O214 Tb191 2.344 . S
O214 C229 1.272 . S
O215 Tb176 2.344 1_556 S
O215 C228 1.272 . S
O216 Tb187 2.344 . S
O216 C227 1.272 . S
O217 Tb178 2.344 . S
O217 C226 1.272 . S
O218 Tb178 2.344 . S
O218 C224 1.272 . S
O219 Tb187 2.344 . S
O219 C225 1.272 . S
C220 O196 1.272 . S
C220 O208 1.272 . S
C221 O197 1.272 . S
C221 O209 1.272 . S
C222 O198 1.272 . S
C222 O211 1.272 . S
C223 O199 1.272 . S
C223 O210 1.272 . S
C224 O200 1.272 . S
C224 O218 1.272 . S
C225 O201 1.272 . S
C225 O219 1.272 . S
C226 O202 1.272 . S
C226 O217 1.272 . S
C227 O203 1.272 . S
C227 O216 1.272 . S
C228 O204 1.272 . S
C228 O215 1.272 . S
C229 O205 1.272 . S
C229 O214 1.272 . S
C230 O206 1.272 . S
C230 O212 1.272 . S
C231 O207 1.272 . S
C231 O213 1.272 . S
C232 C233 1.360 1_455 S
C232 C234 1.419 . S
C232 H236 0.930 . S
C233 C232 1.360 1_655 S
C233 C242 1.438 . S
C234 C232 1.419 . S
C234 C235 1.356 1_455 S
C234 H237 0.929 . S
C235 C234 1.356 1_655 S
C235 C241 1.435 . S
H236 C232 0.930 . S
H237 C234 0.929 . S
S238 N239 1.613 . S
S238 N240 1.610 . S
N239 S238 1.613 . S
N239 C242 1.350 . S
N240 S238 1.610 . S
N240 C241 1.351 . S
C241 C235 1.435 . S
C241 N240 1.351 . S
C241 C242 1.434 . S
C242 C233 1.438 . S
C242 N239 1.350 . S
C242 C241 1.434 . S
C243 C244 1.363 1_545 S
C243 C245 1.419 . S
C243 H247 0.930 . S
C244 C243 1.363 1_565 S
C244 C253 1.435 . S
C245 C243 1.419 . S
C245 C246 1.359 1_545 S
C245 H248 0.929 . S
C246 C245 1.359 1_565 S
C246 C252 1.432 . S
H247 C243 0.930 . S
H248 C245 0.929 . S
S249 N250 1.613 . S
S249 N251 1.610 . S
N250 S249 1.613 . S
N250 C253 1.350 . S
N251 S249 1.610 . S
N251 C252 1.351 . S
C252 C246 1.432 . S
C252 N251 1.351 . S
C252 C253 1.434 . S
C253 C244 1.435 . S
C253 N250 1.350 . S
C253 C252 1.434 . S
C254 C255 1.364 1_455 S
C254 C256 1.419 . S
C254 H258 0.930 . S
C255 C254 1.364 1_655 S
C255 C264 1.434 . S
C256 C254 1.419 . S
C256 C257 1.360 1_455 S
C256 H259 0.929 . S
C257 C256 1.360 1_655 S
C257 C263 1.431 . S
H258 C254 0.930 . S
H259 C256 0.929 . S
S260 N261 1.613 . S
S260 N262 1.610 . S
N261 S260 1.613 . S
N261 C264 1.350 . S
N262 S260 1.610 . S
N262 C263 1.351 . S
C263 C257 1.431 . S
C263 N262 1.351 . S
C263 C264 1.434 . S
C264 C255 1.434 . S
C264 N261 1.350 . S
C264 C263 1.434 . S
C265 C266 1.366 1_565 S
C265 C267 1.419 . S
C265 H269 0.930 . S
C266 C265 1.366 1_545 S
C266 C275 1.433 . S
C267 C265 1.419 . S
C267 C268 1.361 1_565 S
C267 H270 0.929 . S
C268 C267 1.361 1_545 S
C268 C274 1.431 . S
H269 C265 0.930 . S
H270 C267 0.929 . S
S271 N272 1.613 . S
S271 N273 1.610 . S
N272 S271 1.613 . S
N272 C275 1.350 . S
N273 S271 1.610 . S
N273 C274 1.351 . S
C274 C268 1.431 . S
C274 N273 1.351 . S
C274 C275 1.434 . S
C275 C266 1.433 . S
C275 N272 1.350 . S
C275 C274 1.434 . S
C276 C277 1.361 1_655 S
C276 C278 1.419 . S
C276 H280 0.930 . S
C277 C276 1.361 1_455 S
C277 C286 1.436 . S
C278 C276 1.419 . S
C278 C279 1.357 1_655 S
C278 H281 0.929 . S
C279 C278 1.357 1_455 S
C279 C285 1.435 . S
H280 C276 0.930 . S
H281 C278 0.929 . S
S282 N283 1.613 . S
S282 N284 1.610 . S
N283 S282 1.613 . S
N283 C286 1.350 . S
N284 S282 1.610 . S
N284 C285 1.351 . S
C285 C279 1.435 . S
C285 N284 1.351 . S
C285 C286 1.434 . S
C286 C277 1.436 . S
C286 N283 1.350 . S
C286 C285 1.434 . S
C287 C288 1.364 1_565 S
C287 C289 1.419 . S
C287 H291 0.930 . S
C288 C287 1.364 1_545 S
C288 C297 1.434 . S
C289 C287 1.419 . S
C289 C290 1.358 1_565 S
C289 H292 0.929 . S
C290 C289 1.358 1_545 S
C290 C296 1.433 . S
H291 C287 0.930 . S
H292 C289 0.929 . S
S293 N294 1.613 . S
S293 N295 1.610 . S
N294 S293 1.613 . S
N294 C297 1.350 . S
N295 S293 1.610 . S
N295 C296 1.351 . S
C296 C290 1.433 . S
C296 N295 1.351 . S
C296 C297 1.434 . S
C297 C288 1.434 . S
C297 N294 1.350 . S
C297 C296 1.434 . S
C298 C299 1.369 . S
C298 C300 1.419 . S
C298 H302 0.930 . S
C299 C298 1.369 . S
C299 C308 1.429 1_655 S
C300 C298 1.419 . S
C300 C301 1.363 1_655 S
C300 H303 0.929 . S
C301 C300 1.363 1_455 S
C301 C307 1.428 . S
H302 C298 0.930 . S
H303 C300 0.929 . S
S304 N305 1.613 . S
S304 N306 1.610 . S
N305 S304 1.613 . S
N305 C308 1.350 . S
N306 S304 1.610 . S
N306 C307 1.351 . S
C307 C301 1.428 . S
C307 N306 1.351 . S
C307 C308 1.434 . S
C308 C299 1.429 1_455 S
C308 N305 1.350 . S
C308 C307 1.434 . S
C309 C310 1.365 1_545 S
C309 C311 1.419 . S
C309 H313 0.930 . S
C310 C309 1.365 1_565 S
C310 C319 1.433 . S
C311 C309 1.419 . S
C311 C312 1.360 1_545 S
C311 H314 0.929 . S
C312 C311 1.360 1_565 S
C312 C318 1.431 . S
H313 C309 0.930 . S
H314 C311 0.929 . S
S315 N316 1.613 . S
S315 N317 1.610 . S
N316 S315 1.613 . S
N316 C319 1.350 . S
N317 S315 1.610 . S
N317 C318 1.351 . S
C318 C312 1.431 . S
C318 N317 1.351 . S
C318 C319 1.434 . S
C319 C310 1.433 . S
C319 N316 1.350 . S
C319 C318 1.434 . S
C320 C321 1.369 . S
C320 C322 1.419 . S
C320 H324 0.930 . S
C321 C320 1.369 . S
C321 C330 1.429 1_556 S
C322 C320 1.419 . S
C322 C323 1.363 1_556 S
C322 H325 0.929 . S
C323 C322 1.363 1_554 S
C323 C329 1.428 . S
H324 C320 0.930 . S
H325 C322 0.929 . S
S326 N327 1.613 . S
S326 N328 1.610 . S
N327 S326 1.613 . S
N327 C330 1.350 . S
N328 S326 1.610 . S
N328 C329 1.351 . S
C329 C323 1.428 . S
C329 N328 1.351 . S
C329 C330 1.434 . S
C330 C321 1.429 1_554 S
C330 N327 1.350 . S
C330 C329 1.434 . S
C331 C332 1.369 1_554 S
C331 C333 1.418 1_554 S
C331 H335 0.930 . S
C332 C331 1.369 1_556 S
C332 C341 1.429 . S
C333 C331 1.418 1_556 S
C333 C334 1.363 . S
C333 H336 0.929 . S
C334 C333 1.363 . S
C334 C340 1.428 . S
H335 C331 0.930 . S
H336 C333 0.929 . S
S337 N338 1.613 . S
S337 N339 1.610 . S
N338 S337 1.613 . S
N338 C341 1.350 . S
N339 S337 1.610 . S
N339 C340 1.352 . S
C340 C334 1.428 . S
C340 N339 1.352 . S
C340 C341 1.434 . S
C341 C332 1.429 . S
C341 N338 1.350 . S
C341 C340 1.434 . S
C342 C343 1.361 1_554 S
C342 C344 1.419 . S
C342 H346 0.930 . S
C343 C342 1.361 1_556 S
C343 C352 1.437 . S
C344 C342 1.419 . S
C344 C345 1.358 1_554 S
C344 H347 0.929 . S
C345 C344 1.358 1_556 S
C345 C351 1.434 . S
H346 C342 0.930 . S
H347 C344 0.929 . S
S348 N349 1.613 . S
S348 N350 1.610 . S
N349 S348 1.613 . S
N349 C352 1.350 . S
N350 S348 1.610 . S
N350 C351 1.351 . S
C351 C345 1.434 . S
C351 N350 1.351 . S
C351 C352 1.434 . S
C352 C343 1.437 . S
C352 N349 1.350 . S
C352 C351 1.434 . S
C353 C354 1.359 1_556 S
C353 C355 1.419 . S
C353 H357 0.930 . S
C354 C353 1.359 1_554 S
C354 C363 1.439 . S
C355 C353 1.419 . S
C355 C356 1.355 1_556 S
C355 H358 0.929 . S
C356 C355 1.355 1_554 S
C356 C362 1.437 . S
H357 C353 0.930 . S
H358 C355 0.929 . S
S359 N360 1.613 . S
S359 N361 1.610 . S
N360 S359 1.613 . S
N360 C363 1.350 . S
N361 S359 1.610 . S
N361 C362 1.351 . S
C362 C356 1.437 . S
C362 N361 1.351 . S
C362 C363 1.434 . S
C363 C354 1.439 . S
C363 N360 1.350 . S
C363 C362 1.434 . S
C364 C365 1.369 . S
C364 C366 1.419 . S
C364 H368 0.930 . S
C365 C364 1.369 . S
C365 C374 1.429 . S
C366 C364 1.419 . S
C366 C367 1.363 . S
C366 H369 0.929 . S
C367 C366 1.363 . S
C367 C373 1.428 . S
H368 C364 0.930 . S
H369 C366 0.929 . S
S370 N371 1.613 . S
S370 N372 1.610 . S
N371 S370 1.613 . S
N371 C374 1.350 . S
N372 S370 1.610 . S
N372 C373 1.351 . S
C373 C367 1.428 . S
C373 N372 1.351 . S
C373 C374 1.434 . S
C374 C365 1.429 . S
C374 N371 1.350 . S
C374 C373 1.434 . S
C375 C376 1.369 . S
C375 C377 1.419 . S
C375 H379 0.930 . S
C376 C375 1.369 . S
C376 C385 1.429 . S
C377 C375 1.419 . S
C377 C378 1.363 . S
C377 H380 0.929 . S
C378 C377 1.363 . S
C378 C384 1.428 . S
H379 C375 0.930 . S
H380 C377 0.929 . S
S381 N382 1.613 . S
S381 N383 1.610 . S
N382 S381 1.613 . S
N382 C385 1.350 . S
N383 S381 1.610 . S
N383 C384 1.351 . S
C384 C378 1.428 . S
C384 N383 1.351 . S
C384 C385 1.434 . S
C385 C376 1.429 . S
C385 N382 1.350 . S
C385 C384 1.434 . S
C386 C387 1.369 . S
C386 C388 1.419 . S
C386 H390 0.930 . S
C387 C386 1.369 . S
C387 C396 1.429 . S
C388 C386 1.419 . S
C388 C389 1.363 . S
C388 H391 0.929 . S
C389 C388 1.363 . S
C389 C395 1.428 . S
H390 C386 0.930 . S
H391 C388 0.929 . S
S392 N393 1.613 . S
S392 N394 1.610 . S
N393 S392 1.613 . S
N393 C396 1.350 . S
N394 S392 1.610 . S
N394 C395 1.351 . S
C395 C389 1.428 . S
C395 N394 1.351 . S
C395 C396 1.434 . S
C396 C387 1.429 . S
C396 N393 1.350 . S
C396 C395 1.434 . S
C397 C398 1.369 . S
C397 C399 1.419 . S
C397 H401 0.930 . S
C398 C397 1.369 . S
C398 C407 1.429 . S
C399 C397 1.419 . S
C399 C400 1.363 . S
C399 H402 0.929 . S
C400 C399 1.363 . S
C400 C406 1.428 . S
H401 C397 0.930 . S
H402 C399 0.929 . S
S403 N404 1.613 . S
S403 N405 1.610 . S
N404 S403 1.613 . S
N404 C407 1.350 . S
N405 S403 1.610 . S
N405 C406 1.351 . S
C406 C400 1.428 . S
C406 N405 1.351 . S
C406 C407 1.434 . S
C407 C398 1.429 . S
C407 N404 1.350 . S
C407 C406 1.434 . S
C408 C409 1.369 . S
C408 C410 1.419 . S
C408 H412 0.930 . S
C409 C408 1.369 . S
C409 C418 1.429 . S
C410 C408 1.419 . S
C410 C411 1.363 . S
C410 H413 0.929 . S
C411 C410 1.363 . S
C411 C417 1.428 . S
H412 C408 0.930 . S
H413 C410 0.929 . S
S414 N415 1.613 . S
S414 N416 1.610 . S
N415 S414 1.613 . S
N415 C418 1.350 . S
N416 S414 1.610 . S
N416 C417 1.351 . S
C417 C411 1.428 . S
C417 N416 1.351 . S
C417 C418 1.434 . S
C418 C409 1.429 . S
C418 N415 1.350 . S
C418 C417 1.434 . S
C419 C420 1.369 . S
C419 C421 1.419 . S
C419 H423 0.930 . S
C420 C419 1.369 . S
C420 C429 1.429 . S
C421 C419 1.419 . S
C421 C422 1.363 . S
C421 H424 0.929 . S
C422 C421 1.363 . S
C422 C428 1.428 . S
H423 C419 0.930 . S
H424 C421 0.929 . S
S425 N426 1.613 . S
S425 N427 1.610 . S
N426 S425 1.613 . S
N426 C429 1.350 . S
N427 S425 1.610 . S
N427 C428 1.351 . S
C428 C422 1.428 . S
C428 N427 1.351 . S
C428 C429 1.434 . S
C429 C420 1.429 . S
C429 N426 1.350 . S
C429 C428 1.434 . S
C430 C431 1.369 . S
C430 C432 1.419 . S
C430 H434 0.930 . S
C431 C430 1.369 . S
C431 C440 1.429 . S
C432 C430 1.419 . S
C432 C433 1.363 . S
C432 H435 0.929 . S
C433 C432 1.363 . S
C433 C439 1.428 . S
H434 C430 0.930 . S
H435 C432 0.929 . S
S436 N437 1.613 . S
S436 N438 1.610 . S
N437 S436 1.613 . S
N437 C440 1.350 . S
N438 S436 1.610 . S
N438 C439 1.351 . S
C439 C433 1.428 . S
C439 N438 1.351 . S
C439 C440 1.434 . S
C440 C431 1.429 . S
C440 N437 1.350 . S
C440 C439 1.434 . S
C441 C442 1.369 . S
C441 C443 1.419 . S
C441 H445 0.930 . S
C442 C441 1.369 . S
C442 C451 1.429 . S
C443 C441 1.419 . S
C443 C444 1.363 . S
C443 H446 0.929 . S
C444 C443 1.363 . S
C444 C450 1.428 . S
H445 C441 0.930 . S
H446 C443 0.929 . S
S447 N448 1.613 . S
S447 N449 1.610 . S
N448 S447 1.613 . S
N448 C451 1.350 . S
N449 S447 1.610 . S
N449 C450 1.351 . S
C450 C444 1.428 . S
C450 N449 1.351 . S
C450 C451 1.434 . S
C451 C442 1.429 . S
C451 N448 1.350 . S
C451 C450 1.434 . S
C452 C453 1.369 . S
C452 C454 1.419 . S
C452 H456 0.930 . S
C453 C452 1.369 . S
C453 C462 1.429 . S
C454 C452 1.419 . S
C454 C455 1.363 . S
C454 H457 0.929 . S
C455 C454 1.363 . S
C455 C461 1.428 . S
H456 C452 0.930 . S
H457 C454 0.929 . S
S458 N459 1.613 . S
S458 N460 1.610 . S
N459 S458 1.613 . S
N459 C462 1.350 . S
N460 S458 1.610 . S
N460 C461 1.351 . S
C461 C455 1.428 . S
C461 N460 1.351 . S
C461 C462 1.434 . S
C462 C453 1.429 . S
C462 N459 1.350 . S
C462 C461 1.434 . S
C463 C464 1.369 . S
C463 C465 1.419 . S
C463 H467 0.930 . S
C464 C463 1.369 . S
C464 C473 1.429 . S
C465 C463 1.419 . S
C465 C466 1.363 . S
C465 H468 0.929 . S
C466 C465 1.363 . S
C466 C472 1.428 . S
H467 C463 0.930 . S
H468 C465 0.929 . S
S469 N470 1.613 . S
S469 N471 1.610 . S
N470 S469 1.613 . S
N470 C473 1.350 . S
N471 S469 1.610 . S
N471 C472 1.351 . S
C472 C466 1.428 . S
C472 N471 1.351 . S
C472 C473 1.434 . S
C473 C464 1.429 . S
C473 N470 1.350 . S
C473 C472 1.434 . S
C474 C475 1.369 . S
C474 C476 1.419 . S
C474 H478 0.930 . S
C475 C474 1.369 . S
C475 C484 1.429 . S
C476 C474 1.419 . S
C476 C477 1.363 . S
C476 H479 0.929 . S
C477 C476 1.363 . S
C477 C483 1.428 . S
H478 C474 0.930 . S
H479 C476 0.929 . S
S480 N481 1.613 . S
S480 N482 1.610 . S
N481 S480 1.613 . S
N481 C484 1.350 . S
N482 S480 1.610 . S
N482 C483 1.351 . S
C483 C477 1.428 . S
C483 N482 1.351 . S
C483 C484 1.434 . S
C484 C475 1.429 . S
C484 N481 1.350 . S
C484 C483 1.434 . S
C485 C486 1.369 . S
C485 C487 1.419 . S
C485 H489 0.930 . S
C486 C485 1.369 . S
C486 C495 1.429 . S
C487 C485 1.419 . S
C487 C488 1.363 . S
C487 H490 0.929 . S
C488 C487 1.363 . S
C488 C494 1.428 . S
H489 C485 0.930 . S
H490 C487 0.929 . S
S491 N492 1.613 . S
S491 N493 1.610 . S
N492 S491 1.613 . S
N492 C495 1.350 . S
N493 S491 1.610 . S
N493 C494 1.351 . S
C494 C488 1.428 . S
C494 N493 1.351 . S
C494 C495 1.434 . S
C495 C486 1.429 . S
C495 N492 1.350 . S
C495 C494 1.434 . S
C233 C51 1.500 1_655 S
C235 C108 1.497 1_655 S
C244 C56 1.500 1_565 S
C246 C173 1.500 1_565 S
C255 C53 1.500 1_655 S
C257 C110 1.500 1_655 S
C266 C170 1.500 . S
C268 C55 1.497 . S
C277 C50 1.500 . S
C279 C109 1.503 . S
C288 C57 1.500 . S
C290 C172 1.500 . S
C299 C111 1.500 1_655 S
C301 C52 1.500 . S
C310 C171 1.500 1_565 S
C312 C54 1.503 1_565 S
C321 C220 1.500 1_556 S
C323 C47 1.497 . S
C332 C223 1.500 1_556 S
C334 C48 1.500 1_556 S
C343 C222 1.500 1_556 S
C345 C49 1.500 1_556 S
C354 C46 1.500 . S
C356 C221 1.503 . S
C365 C231 1.500 . S
C367 C114 1.503 . S
C376 C113 1.500 . S
C378 C228 1.500 . S
C387 C115 1.500 . S
C389 C230 1.497 . S
C398 C229 1.500 . S
C400 C112 1.500 . S
C409 C162 1.500 . S
C411 C105 1.500 . S
C420 C106 1.500 . S
C422 C165 1.497 . S
C431 C107 1.500 . S
C433 C164 1.503 . S
C442 C163 1.500 . S
C444 C104 1.500 . S
C453 C224 1.500 . S
C455 C167 1.500 . S
C464 C169 1.500 . S
C466 C226 1.503 . S
C475 C225 1.500 . S
C477 C166 1.500 . S
C486 C168 1.500 . S
C488 C227 1.497 . S
