# Generated by pormake.
# Topology fnt, (5)-cn, num edge types: 1
# Building blocks:
#     Node 0, Type 0, BuildingBlock: BEQFEK_clean_sbu_0, # of connection points: 5
#     Node 1, Type 0, BuildingBlock: BEQFEK_clean_sbu_0, # of connection points: 5
#     Node 2, Type 0, BuildingBlock: BEQFEK_clean_sbu_0, # of connection points: 5
#     Node 3, Type 0, BuildingBlock: BEQFEK_clean_sbu_0, # of connection points: 5
#     Node 4, Type 0, BuildingBlock: BEQFEK_clean_sbu_0, # of connection points: 5
#     Node 5, Type 0, BuildingBlock: BEQFEK_clean_sbu_0, # of connection points: 5
#     Edge 6, Type (0, 0), BuildingBlock: TEMPAE_clean_linker_10, # of connection points: 2
#     Edge 7, Type (0, 0), BuildingBlock: TEMPAE_clean_linker_10, # of connection points: 2
#     Edge 8, Type (0, 0), BuildingBlock: TEMPAE_clean_linker_10, # of connection points: 2
#     Edge 9, Type (0, 0), BuildingBlock: TEMPAE_clean_linker_10, # of connection points: 2
#     Edge 10, Type (0, 0), BuildingBlock: TEMPAE_clean_linker_10, # of connection points: 2
#     Edge 11, Type (0, 0), BuildingBlock: TEMPAE_clean_linker_10, # of connection points: 2
#     Edge 12, Type (0, 0), BuildingBlock: TEMPAE_clean_linker_10, # of connection points: 2
#     Edge 13, Type (0, 0), BuildingBlock: TEMPAE_clean_linker_10, # of connection points: 2
#     Edge 14, Type (0, 0), BuildingBlock: TEMPAE_clean_linker_10, # of connection points: 2
#     Edge 15, Type (0, 0), BuildingBlock: TEMPAE_clean_linker_10, # of connection points: 2
#     Edge 16, Type (0, 0), BuildingBlock: TEMPAE_clean_linker_10, # of connection points: 2
#     Edge 17, Type (0, 0), BuildingBlock: TEMPAE_clean_linker_10, # of connection points: 2
#     Edge 18, Type (0, 0), BuildingBlock: TEMPAE_clean_linker_10, # of connection points: 2
#     Edge 19, Type (0, 0), BuildingBlock: TEMPAE_clean_linker_10, # of connection points: 2
#     Edge 20, Type (0, 0), BuildingBlock: TEMPAE_clean_linker_10, # of connection points: 2
# Relax obj value: 0.222
# Max RMSD: 0.171
# Mean RMSD: 0.171
data_MOF--net-fnt--node1-BEQFEK_clean_sbu_0--edge1-TEMPAE_clean_linker_10
_symmetry_space_group_name_H-M    P1
_symmetry_Int_Tables_number       1
_symmetry_cell_setting            triclinic
loop_
_symmetry_equiv_pos_as_xyz
'x, y, z'
_cell_length_a     26.133396
_cell_length_b     26.142576
_cell_length_c     53.740124
_cell_angle_alpha  90.11023
_cell_angle_beta   89.757479
_cell_angle_gamma 120.09208
loop_
_atom_site_label
_atom_site_type_symbol
_atom_site_fract_x
_atom_site_fract_y
_atom_site_fract_z
_atom_type_partial_charge
Co0 Co 0.17435 0.35664 0.06402 0.0
Co1 Co 0.20697 0.37484 1.00636 0.0
C2 C 0.29356 0.38887 0.04703 0.0
O3 O 0.25713 0.37416 0.06507 0.0
O4 O 0.27917 0.39183 0.0247 0.0
C5 C 0.14944 0.3184 0.11693 0.0
O6 O 0.19376 0.30821 0.11565 0.0
C7 C 0.24575 0.34059 0.96095 0.0
C8 C 0.2225 0.38382 0.9314 0.0
C9 C 0.24697 0.34806 0.93525 0.0
N10 N 0.22188 0.37053 0.97159 0.0
N11 N 0.20844 0.39657 0.95381 0.0
C12 C 0.26257 0.30224 0.97527 0.0
H13 H 0.2387 0.28925 0.99335 0.0
H14 H 0.25259 0.26215 0.96441 0.0
H15 H 0.31073 0.32744 0.97912 0.0
C16 C 0.08283 0.24115 0.04528 0.0
N17 N 0.13055 0.29461 0.0415 0.0
N18 N 0.14135 0.30308 1.01744 0.0
C19 C 0.09944 0.25584 1.00508 0.0
C20 C 0.06088 0.21515 1.02231 0.0
C21 C 0.06188 0.21432 0.07051 0.0
H22 H 0.03478 0.23174 0.07888 0.0
H23 H 0.10047 0.22669 0.08268 0.0
H24 H 0.03526 0.16541 0.06967 0.0
O25 O 0.16868 0.42553 0.05251 0.0
O26 O 0.18886 0.43836 1.01199 0.0
H27 H 0.10474 0.29495 0.96944 0.0
H28 H 0.049 0.2177 0.97152 0.0
C29 C 0.09422 0.2516 0.97733 0.0
H30 H 0.12628 0.23951 0.96976 0.0
H31 H 0.18889 0.42238 0.95695 0.0
O32 O 0.13583 0.33755 0.09777 0.0
C33 C 0.17357 0.45268 0.03217 0.0
Co34 Co 0.80679 0.17251 0.39824 0.0
Co35 Co 0.82243 0.19595 0.33991 0.0
C36 C 0.90019 0.28666 0.37858 0.0
O37 O 0.87326 0.25466 0.39738 0.0
O38 O 0.8845 0.26881 0.35633 0.0
C39 C 0.80608 0.16304 0.45347 0.0
O40 O 0.84096 0.22067 0.4544 0.0
C41 C 0.89089 0.22283 0.29313 0.0
C42 C 0.82084 0.19215 0.26471 0.0
C43 C 0.88144 0.21687 0.26753 0.0
N44 N 0.83842 0.20259 0.30472 0.0
N45 N 0.79682 0.18473 0.28758 0.0
C46 C 0.94782 0.24286 0.30659 0.0
H47 H 0.93913 0.2233 0.32553 0.0
H48 H 0.97663 0.23042 0.29609 0.0
H49 H 0.97129 0.2917 0.30847 0.0
C50 C 0.82468 0.07492 0.38306 0.0
N51 N 0.82181 0.12341 0.37741 0.0
N52 N 0.82383 0.12988 0.35307 0.0
C53 C 0.82623 0.08449 0.3424 0.0
C54 C 0.82647 0.04803 0.36107 0.0
C55 C 0.83023 0.05769 0.40906 0.0
H56 H 0.85601 0.09779 0.42058 0.0
H57 H 0.85274 0.03128 0.40942 0.0
H58 H 0.78546 0.03111 0.41733 0.0
O59 O 0.73348 0.16767 0.38657 0.0
O60 O 0.74202 0.18385 0.34576 0.0
H61 H 0.81333 0.02849 0.31057 0.0
H62 H 0.86943 0.10522 0.30699 0.0
C63 C 0.82514 0.07463 0.31492 0.0
H64 H 0.79252 0.08406 0.30609 0.0
H65 H 0.75185 0.16645 0.29151 0.0
O66 O 0.78889 0.13777 0.43246 0.0
C67 C 0.7121 0.17154 0.36588 0.0
Co68 Co 0.6173 0.77256 0.72808 0.0
Co69 Co 0.63902 0.81124 0.6711 0.0
C70 C 0.55176 0.82434 0.70407 0.0
O71 O 0.5625 0.80301 0.7234 0.0
O72 O 0.57726 0.82837 0.68322 0.0
C73 C 0.6134 0.76915 0.78381 0.0
O74 O 0.59937 0.81089 0.78369 0.0
C75 C 0.6692 0.88878 0.62617 0.0
C76 C 0.70298 0.84505 0.60122 0.0
C77 C 0.69398 0.89288 0.60271 0.0
N78 N 0.66442 0.841 0.63791 0.0
N79 N 0.68412 0.81487 0.62271 0.0
C80 C 0.65502 0.93194 0.63812 0.0
H81 H 0.65603 0.92897 0.65869 0.0
H82 H 0.6868 0.97768 0.63197 0.0
H83 H 0.60991 0.92125 0.63251 0.0
C84 C 0.74352 0.86479 0.73007 0.0
N85 N 0.69349 0.83107 0.71724 0.0
N86 N 0.70289 0.84635 0.69356 0.0
C87 C 0.75936 0.88969 0.69059 0.0
C88 C 0.78644 0.90283 0.7136 0.0
C89 C 0.75014 0.8604 0.75749 0.0
H90 H 0.73669 0.81414 0.76241 0.0
H91 H 0.72061 0.87263 0.76749 0.0
H92 H 0.79636 0.88993 0.76364 0.0
O93 O 0.59041 0.69924 0.70901 0.0
O94 O 0.60966 0.72563 0.66931 0.0
H95 H 0.78026 0.88714 0.65223 0.0
H96 H 0.83366 0.95322 0.66828 0.0
C97 C 0.78596 0.92028 0.66647 0.0
H98 H 0.76278 0.94354 0.66011 0.0
H99 H 0.68601 0.77706 0.62725 0.0
O100 O 0.62119 0.74973 0.76325 0.0
C101 C 0.59101 0.68645 0.68622 0.0
Co102 Co 0.83523 0.63951 0.06126 0.0
Co103 Co 0.80776 0.62695 1.00341 0.0
C104 C 0.72045 0.54474 0.04199 0.0
O105 O 0.75526 0.57006 0.06022 0.0
O106 O 0.73565 0.56222 1.01958 0.0
C107 C 0.83767 0.64615 0.11653 0.0
O108 O 0.77988 0.61205 0.11658 0.0
C109 C 0.75044 0.63948 0.95791 0.0
C110 C 0.81611 0.65017 0.92934 0.0
C111 C 0.76422 0.65156 0.93273 0.0
N112 N 0.79293 0.63242 0.96877 0.0
N113 N 0.83133 0.63781 0.95144 0.0
C114 C 0.70143 0.64049 0.97196 0.0
H115 H 0.71149 0.64668 0.99216 0.0
H116 H 0.69416 0.67618 0.96486 0.0
H117 H 0.66005 0.59764 0.96929 0.0
C118 C 0.84231 0.75377 0.0526 0.0
N119 N 0.83406 0.70167 0.04436 0.0
N120 N 0.82846 0.69924 1.01997 0.0
C121 C 0.83607 0.75128 1.01179 0.0
C122 C 0.84389 0.78706 0.03223 0.0
C123 C 0.84704 0.77007 0.07954 0.0
H124 H 0.89224 0.78364 0.08619 0.0
H125 H 0.81515 0.73109 0.09056 0.0
H126 H 0.83798 0.80678 0.08262 0.0
O127 O 0.89421 0.62419 0.04546 0.0
O128 O 0.87393 0.611 1.00508 0.0
H129 H 0.86207 0.74575 0.97428 0.0
H130 H 0.8754 0.81776 0.98305 0.0
C131 C 0.84424 0.76959 0.985 0.0
H132 H 0.80115 0.75969 0.97707 0.0
H133 H 0.8695 0.63573 0.95491 0.0
O134 O 0.8654 0.66226 0.09592 0.0
C135 C 0.90527 0.61375 0.0236 0.0
Co136 Co 0.18523 0.83313 0.39778 0.0
Co137 Co 0.16555 0.81933 0.33927 0.0
C138 C 0.155 0.72072 0.37227 0.0
O139 O 0.16923 0.7511 0.39232 0.0
O140 O 0.15282 0.74251 0.35132 0.0
C141 C 0.17805 0.82786 0.45372 0.0
O142 O 0.14802 0.76983 0.45276 0.0
C143 C 0.09615 0.77221 0.2927 0.0
C144 C 0.14714 0.84753 0.26729 0.0
C145 C 0.09646 0.7925 0.26873 0.0
N146 N 0.14407 0.81391 0.30484 0.0
N147 N 0.17473 0.85828 0.28935 0.0
C148 C 0.0485 0.71719 0.30472 0.0
H149 H 0.05036 0.7221 0.32527 0.0
H150 H 0.00435 0.70693 0.29785 0.0
H151 H 0.05517 0.67967 0.29985 0.0
C152 C 0.07732 0.84185 0.3941 0.0
N153 N 0.12241 0.8387 0.38353 0.0
N154 N 0.11743 0.8384 0.35913 0.0
C155 C 0.07016 0.84357 0.35343 0.0
C156 C 0.04245 0.84435 0.37535 0.0
C157 C 0.06608 0.83841 0.42153 0.0
H158 H 0.09965 0.88027 0.43036 0.0
H159 H 0.07065 0.80183 0.4295 0.0
H160 H 0.02122 0.83073 0.42585 0.0
O161 O 0.26067 0.89293 0.38249 0.0
O162 O 0.24921 0.88111 0.34156 0.0
H163 H 0.0951 0.87651 0.31609 0.0
H164 H 0.03244 0.87966 0.32807 0.0
C165 C 0.05472 0.85301 0.32768 0.0
H166 H 0.02407 0.80968 0.31911 0.0
H167 H 0.21337 0.89704 0.29417 0.0
O168 O 0.19462 0.85749 0.4336 0.0
C169 C 0.28046 0.90733 0.36044 0.0
Co170 Co 0.37973 0.19425 0.73457 0.0
Co171 Co 0.34021 0.1461 0.67936 0.0
C172 C 0.38059 0.08686 0.71545 0.0
O173 O 0.39039 0.12399 0.73281 0.0
O174 O 0.36184 0.0911 0.69417 0.0
C175 C 0.36436 0.18824 0.78811 0.0
O176 O 0.33754 0.13093 0.78422 0.0
C177 C 0.29329 0.06915 0.63453 0.0
C178 C 0.2776 0.12647 0.60933 0.0
C179 C 0.27394 0.07182 0.61073 0.0
N180 N 0.30796 0.12003 0.64651 0.0
N181 N 0.29849 0.15401 0.63126 0.0
C182 C 0.29432 0.01794 0.64635 0.0
H183 H 0.27674 0.01191 0.6656 0.0
H184 H 0.2675 0.9765 0.63572 0.0
H185 H 0.3407 0.02749 0.64736 0.0
C186 C 0.25943 0.17963 0.73408 0.0
N187 N 0.30368 0.17575 0.72295 0.0
N188 N 0.28626 0.15276 0.70061 0.0
C189 C 0.22988 0.1392 0.69726 0.0
C190 C 0.21141 0.1565 0.71826 0.0
C191 C 0.26288 0.20614 0.75916 0.0
H192 H 0.30687 0.24605 0.76175 0.0
H193 H 0.25579 0.17324 0.77373 0.0
H194 H 0.22828 0.21862 0.76134 0.0
O195 O 0.43949 0.25869 0.71379 0.0
O196 O 0.40999 0.22591 0.67529 0.0
H197 H 0.19944 0.135 0.66007 0.0
H198 H 0.14493 0.08 0.68052 0.0
C199 C 0.19262 0.10437 0.67563 0.0
H200 H 0.20561 0.07208 0.66933 0.0
H201 H 0.30652 0.19623 0.63582 0.0
O202 O 0.38826 0.22301 0.76973 0.0
C203 C 0.44524 0.26572 0.69028 0.0
C204 C 0.40039 0.45922 0.04394 0.0
C205 C 0.35467 0.40411 0.05168 0.0
C206 C 0.45934 0.47314 0.04557 0.0
C207 C 0.47245 0.42991 0.05435 0.0
C208 C 0.42624 0.37429 0.06258 0.0
C209 C 0.36752 0.36224 0.06142 0.0
C210 C 0.50742 0.53358 0.03719 0.0
C211 C 0.43849 0.3267 0.07138 0.0
C212 C 0.62039 0.467 0.0279 0.0
C213 C 0.65791 0.5011 0.04723 0.0
C214 C 0.55885 0.43741 0.03095 0.0
C215 C 0.53464 0.44326 0.05367 0.0
C216 C 0.57225 0.47245 0.07404 0.0
C217 C 0.63363 0.5006 0.07064 0.0
C218 C 0.52 0.40498 1.00904 0.0
C219 C 0.5482 0.47991 0.09852 0.0
H220 H 0.38983 0.49125 0.03636 0.0
H221 H 0.33156 0.31925 0.067 0.0
H222 H 0.5415 0.55457 0.05187 0.0
H223 H 0.5296 0.52929 1.02032 0.0
H224 H 0.48992 0.56345 0.03278 0.0
H225 H 0.39885 0.28891 0.07998 0.0
H226 H 0.45263 0.30998 0.05531 0.0
H227 H 0.4751 0.3447 0.08505 0.0
H228 H 0.63896 0.46637 1.0099 0.0
H229 H 0.66234 0.52653 0.08575 0.0
H230 H 0.50424 0.43295 1.00027 0.0
H231 H 0.48053 0.36327 1.01513 0.0
H232 H 0.54422 0.39453 0.99474 0.0
H233 H 0.5357 0.51447 0.09647 0.0
H234 H 0.58139 0.49359 0.11365 0.0
H235 H 0.50791 0.43841 0.10412 0.0
C236 C 0.94316 0.38452 0.39923 0.0
C237 C 0.94924 0.34713 0.38236 0.0
C238 C 0.98483 0.44511 0.39977 0.0
C239 C 0.03454 0.46791 0.38365 0.0
C240 C 0.04355 0.42901 0.36833 0.0
C241 C -3e-05 0.36911 0.36744 0.0
C242 C 0.97265 0.48527 0.41585 0.0
C243 C 0.09715 0.45123 0.35165 0.0
C244 C 0.08477 0.61977 0.3575 0.0
C245 C 0.1305 0.65628 0.37374 0.0
C246 C 0.05385 0.55844 0.36044 0.0
C247 C 0.07054 0.53263 0.37956 0.0
C248 C 0.11898 0.56891 0.39516 0.0
C249 C 0.14769 0.63071 0.39242 0.0
C250 C 0.00148 0.52161 0.34377 0.0
C251 C 0.13951 0.54264 0.41502 0.0
H252 H 0.90367 0.3672 0.41069 0.0
H253 H 0.00484 0.33968 0.35464 0.0
H254 H 0.01256 0.51614 0.42654 0.0
H255 H 0.96103 0.51237 0.40381 0.0
H256 H 0.93564 0.46012 0.42912 0.0
H257 H 0.10361 0.41461 0.34496 0.0
H258 H 0.09166 0.47355 0.33519 0.0
H259 H 0.13762 0.48408 0.36155 0.0
H260 H 0.0708 0.63936 0.34323 0.0
H261 H 0.18317 0.65895 0.40496 0.0
H262 H 0.96091 0.49647 0.35523 0.0
H263 H 0.00843 0.48899 0.33331 0.0
H264 H -0.0063 0.54893 0.33017 0.0
H265 H 0.10661 0.52498 0.43036 0.0
H266 H 0.18291 0.57581 0.4229 0.0
H267 H 0.14325 0.50518 0.40736 0.0
C268 C 0.44437 0.04983 0.7325 0.0
C269 C 0.394 0.03917 0.71925 0.0
C270 C 0.4635 0.0084 0.73227 0.0
C271 C 0.43048 0.95477 0.71898 0.0
C272 C 0.3768 0.94182 0.70741 0.0
C273 C 0.35959 0.98462 0.70741 0.0
C274 C 0.52147 0.02413 0.74452 0.0
C275 C 0.33953 0.88445 0.69368 0.0
C276 C 0.51976 0.89378 0.68904 0.0
C277 C 0.51439 0.85167 0.70654 0.0
C278 C 0.49179 0.92686 0.69275 0.0
C279 C 0.45631 0.91654 0.7142 0.0
C280 C 0.44789 0.87181 0.73126 0.0
C281 C 0.4777 0.84029 0.72739 0.0
C282 C 0.50237 0.97465 0.67421 0.0
C283 C 0.40887 0.85847 0.75391 0.0
H284 H 0.47095 0.09213 0.74161 0.0
H285 H 0.31999 0.97604 0.69754 0.0
H286 H 0.51648 0.98722 0.75637 0.0
H287 H 0.55485 0.03175 0.72997 0.0
H288 H 0.53865 0.06462 0.75613 0.0
H289 H 0.29474 0.87706 0.68945 0.0
H290 H 0.36147 0.8852 0.67586 0.0
H291 H 0.33488 0.8465 0.70471 0.0
H292 H 0.54814 0.903 0.67293 0.0
H293 H 0.47308 0.80748 0.7409 0.0
H294 H 0.52376 0.01831 0.68362 0.0
H295 H 0.4597 0.96695 0.6666 0.0
H296 H 0.53098 0.97671 0.65843 0.0
H297 H 0.42945 0.89623 0.76705 0.0
H298 H 0.40168 0.81807 0.76378 0.0
H299 H 0.36528 0.8526 0.74855 0.0
C300 C 0.60566 0.61278 0.66251 0.0
C301 C 0.57306 0.62515 0.67982 0.0
C302 C 0.59397 0.55463 0.65904 0.0
C303 C 0.54781 0.50828 0.67282 0.0
C304 C 0.51276 0.52053 0.68928 0.0
C305 C 0.52646 0.57899 0.69284 0.0
C306 C 0.63312 0.54353 0.64181 0.0
C307 C 0.46201 0.47213 0.70386 0.0
C308 C 0.46905 0.3455 0.65961 0.0
C309 C 0.48552 0.32553 0.68064 0.0
C310 C 0.49397 0.40613 0.655 0.0
C311 C 0.53711 0.44708 0.67152 0.0
C312 C 0.56 0.42682 0.6905 0.0
C313 C 0.53327 0.36603 0.69508 0.0
C314 C 0.46848 0.42592 0.63451 0.0
C315 C 0.60785 0.46929 0.70783 0.0
H316 H 0.64225 0.64885 0.65268 0.0
H317 H 0.50119 0.58882 0.70612 0.0
H318 H 0.66457 0.53649 0.65306 0.0
H319 H 0.60683 0.5031 0.63052 0.0
H320 H 0.65906 0.58147 0.6291 0.0
H321 H 0.43612 0.48859 0.71411 0.0
H322 H 0.4317 0.43608 0.69121 0.0
H323 H 0.47929 0.45284 0.71753 0.0
H324 H 0.43236 0.31428 0.64826 0.0
H325 H 0.54682 0.35055 0.71108 0.0
H326 H 0.50348 0.46599 0.62505 0.0
H327 H 0.43637 0.43729 0.6427 0.0
H328 H 0.44499 0.39063 0.62042 0.0
H329 H 0.64241 0.50794 0.69744 0.0
H330 H 0.62899 0.44768 0.71791 0.0
H331 H 0.58831 0.48594 0.72179 0.0
C332 C 0.00882 0.64068 0.0323 0.0
C333 C 0.95541 0.60407 1.02009 0.0
C334 C 0.05473 0.62777 0.03192 0.0
C335 C 0.04564 0.57565 1.01996 0.0
C336 C -0.00715 0.5403 1.00646 0.0
C337 C 0.94857 0.55564 1.00634 0.0
C338 C 0.11136 0.66785 0.04558 0.0
C339 C 0.98099 0.48366 0.99392 0.0
C340 C 0.1621 0.53137 1.01075 0.0
C341 C 0.15047 0.49384 0.03122 0.0
C342 C 0.13111 0.56191 1.0076 0.0
C343 C 0.08633 0.55287 0.02488 0.0
C344 C 0.07673 0.51755 0.04624 0.0
C345 C 0.10966 0.48933 0.04935 0.0
C346 C 0.14429 0.6014 0.98521 0.0
C347 C 0.02877 0.50606 0.06497 0.0
H348 H 0.01414 0.67874 0.04262 0.0
H349 H 0.90706 0.52751 0.99694 0.0
H350 H 0.11161 0.64746 0.06363 0.0
H351 H 0.15029 0.67409 0.03472 0.0
H352 H 0.11618 0.71184 0.0494 0.0
H353 H 0.93994 0.4638 0.98262 0.0
H354 H 0.01854 0.49168 0.98168 0.0
H355 H 0.97648 0.45113 1.00826 0.0
H356 H 0.194 0.53539 0.99679 0.0
H357 H 0.10029 0.46033 0.06521 0.0
H358 H 0.14498 0.64283 0.99044 0.0
H359 H 0.10908 0.57851 0.97113 0.0
H360 H 0.18735 0.61285 0.97648 0.0
H361 H 0.03517 0.54836 0.07252 0.0
H362 H 0.02784 0.47828 0.08078 0.0
H363 H 0.98497 0.48328 0.05572 0.0
C364 C 0.3586 0.0114 0.36715 0.0
C365 C 0.34111 0.95583 0.35688 0.0
C366 C 0.41777 0.05682 0.3659 0.0
C367 C 0.46036 0.04504 0.35521 0.0
C368 C 0.44218 0.9895 0.3439 0.0
C369 C 0.38228 0.94575 0.34448 0.0
C370 C 0.43508 0.11626 0.37715 0.0
C371 C 0.48643 0.97462 0.33291 0.0
C372 C 0.62183 0.15727 0.34337 0.0
C373 C 0.64794 0.14991 0.3648 0.0
C374 C 0.56002 0.12667 0.34065 0.0
C375 C 0.52419 0.08645 0.35939 0.0
C376 C 0.55023 0.08144 0.38159 0.0
C377 C 0.6116 0.11411 0.3842 0.0
C378 C 0.53345 0.13516 0.31725 0.0
C379 C 0.5138 0.03818 0.40186 0.0
H380 H 0.32608 0.01901 0.37644 0.0
H381 H 0.36817 0.9025 0.33658 0.0
H382 H 0.45637 0.12056 0.39544 0.0
H383 H 0.46755 0.15254 0.36507 0.0
H384 H 0.39612 0.12198 0.38005 0.0
H385 H 0.46469 0.9309 0.32349 0.0
H386 H 0.51542 0.00882 0.31928 0.0
H387 H 0.51518 0.97396 0.3479 0.0
H388 H 0.64964 0.18528 0.3284 0.0
H389 H 0.63124 0.10807 0.40086 0.0
H390 H 0.49282 0.13696 0.32159 0.0
H391 H 0.52081 0.09718 0.30457 0.0
H392 H 0.56515 0.17624 0.30726 0.0
H393 H 0.47845 0.0467 0.40836 0.0
H394 H 0.54093 0.04058 0.41816 0.0
H395 H 0.49197 0.99244 0.39439 0.0
C396 C 0.95907 0.13329 0.03146 0.0
C397 C 0.0116 0.15497 1.01777 0.0
C398 C 0.91845 0.07259 0.03231 0.0
C399 C 0.93051 0.03362 1.0186 0.0
C400 C 0.97955 0.05634 1.00217 0.0
C401 C 0.02016 0.11698 1.00221 0.0
C402 C 0.86655 0.05004 0.04997 0.0
C403 C -0.00726 0.01612 0.98662 0.0
C404 C 0.9067 0.89112 0.04584 0.0
C405 C 0.85913 0.84944 0.03175 0.0
C406 C 0.9272 0.95143 0.04307 0.0
C407 C 0.90056 0.9703 0.02517 0.0
C408 C 0.85043 0.92833 1.01184 0.0
C409 C 0.82982 0.86804 1.01553 0.0
C410 C 0.98002 -0.00501 0.05812 0.0
C411 C 0.82118 0.9468 0.9925 0.0
H412 H 0.95194 0.16329 0.04298 0.0
H413 H 0.06074 0.1338 0.99154 0.0
H414 H 0.8267 0.01167 0.04197 0.0
H415 H 0.87754 0.0351 0.06743 0.0
H416 H 0.8559 0.08505 0.05475 0.0
H417 H 0.02567 0.04079 0.97175 0.0
H418 H 0.01082 -0.00535 0.99873 0.0
H419 H 0.95181 0.98068 0.97791 0.0
H420 H 0.92999 0.87691 0.0581 0.0
H421 H 0.79233 0.8355 1.00492 0.0
H422 H 0.97182 0.02908 0.06648 0.0
H423 H 0.01926 0.01801 0.04576 0.0
H424 H -0.00929 0.97306 0.07328 0.0
H425 H 0.81826 0.98569 0.9988 0.0
H426 H 0.77606 0.9103 0.98792 0.0
H427 H 0.84817 0.95964 0.97521 0.0
C428 C -0.00712 0.8964 0.39239 0.0
C429 C -0.00978 0.85123 0.37758 0.0
C430 C 0.95001 0.91307 0.39015 0.0
C431 C 0.90453 0.8844 0.3723 0.0
C432 C 0.89815 0.83454 0.3593 0.0
C433 C 0.94124 0.81825 0.36223 0.0
C434 C 0.9573 0.96559 0.40488 0.0
C435 C 0.84976 0.80229 0.34044 0.0
C436 C 0.80293 0.94702 0.37362 0.0
C437 C 0.83537 -0.00294 0.35867 0.0
C438 C 0.82141 0.90557 0.37657 0.0
C439 C 0.87279 0.9146 0.36393 0.0
C440 C 0.90096 0.961 0.34637 0.0
C441 C 0.88216 0.00222 0.34414 0.0
C442 C 0.78965 0.85606 0.39509 0.0
C443 C 0.95503 0.97106 0.33197 0.0
H444 H 0.03085 0.92178 0.40427 0.0
H445 H 0.9388 0.78229 0.35121 0.0
H446 H 0.97381 0.00456 0.39241 0.0
H447 H 0.91424 0.95674 0.41266 0.0
H448 H -0.01084 0.97701 0.42041 0.0
H449 H 0.84111 0.75662 0.33728 0.0
H450 H 0.80805 0.80025 0.34634 0.0
H451 H 0.86356 0.82631 0.32245 0.0
H452 H 0.76577 0.94263 0.38441 0.0
H453 H 0.90717 0.04096 0.33257 0.0
H454 H 0.8127 0.86978 0.41325 0.0
H455 H 0.78966 0.81547 0.38904 0.0
H456 H 0.74322 0.8455 0.39796 0.0
H457 H -0.00654 0.98818 0.34472 0.0
H458 H 0.96619 0.00348 0.31664 0.0
H459 H 0.9482 0.92898 0.32394 0.0
C460 C 0.12319 0.10549 0.74536 0.0
C461 C 0.15047 0.14057 0.72443 0.0
C462 C 0.06172 0.07619 0.74802 0.0
C463 C 0.02756 0.08223 0.72915 0.0
C464 C 0.05563 0.12359 0.70969 0.0
C465 C 0.11723 0.15235 0.70752 0.0
C466 C 0.03335 0.03301 0.7692 0.0
C467 C 0.02057 0.13202 0.6895 0.0
C468 C 0.89318 0.94111 0.70875 0.0
C469 C 0.84761 0.9474 0.71905 0.0
C470 C 0.95205 0.98468 0.71226 0.0
C471 C 0.96513 0.03574 0.72631 0.0
C472 C 0.919 0.04179 0.73712 0.0
C473 C 0.86028 -0.00294 0.73337 0.0
C474 C 0.00014 0.97639 0.70056 0.0
C475 C 0.93154 0.09591 0.75195 0.0
H476 H 0.14921 0.09656 0.75845 0.0
H477 H 0.13898 0.1804 0.69156 0.0
H478 H -0.00612 0.0337 0.77641 0.0
H479 H 0.01859 0.98761 0.76237 0.0
H480 H 0.0648 0.04267 0.78475 0.0
H481 H 0.04793 0.17378 0.67905 0.0
H482 H 0.00437 0.09465 0.67616 0.0
H483 H 0.98145 0.13234 0.69738 0.0
H484 H 0.88251 0.90225 0.69771 0.0
H485 H 0.82425 0.00141 0.74111 0.0
H486 H 0.03175 0.97932 0.71498 0.0
H487 H 0.02533 0.01202 0.68681 0.0
H488 H 0.9822 0.93313 0.69093 0.0
H489 H 0.9662 0.10601 0.76606 0.0
H490 H 0.89134 0.09052 0.7615 0.0
H491 H 0.94855 0.13463 0.73933 0.0
C492 C 0.23773 0.30743 0.89235 0.0
C493 C 0.26716 0.32267 0.91528 0.0
C494 C 0.25655 0.28504 0.87277 0.0
C495 C 0.30655 0.27819 0.87603 0.0
C496 C 0.33663 0.29364 0.89911 0.0
C497 C 0.31667 0.31583 0.91844 0.0
C498 C 0.22299 0.26895 0.84852 0.0
C499 C 0.3904 0.28753 0.90326 0.0
C500 C 0.31897 0.17279 0.83067 0.0
C501 C 0.35624 0.21164 0.81218 0.0
C502 C 0.30415 0.19395 0.852 0.0
C503 C 0.32738 0.25552 0.85505 0.0
C504 C 0.36724 0.29512 0.83704 0.0
C505 C 0.38106 0.27274 0.81582 0.0
C506 C 0.26147 0.15019 0.87072 0.0
C507 C 0.39336 0.36109 0.83963 0.0
H508 H 0.19953 0.31272 0.88973 0.0
H509 H 0.34091 0.32926 0.93575 0.0
H510 H 0.2528 0.29584 0.83315 0.0
H511 H 0.20685 0.22185 0.84402 0.0
H512 H 0.18452 0.27608 0.8491 0.0
H513 H 0.40782 0.29979 0.92249 0.0
H514 H 0.37945 0.24133 0.89966 0.0
H515 H 0.42588 0.31618 0.88997 0.0
H516 H 0.29945 0.12552 0.82809 0.0
H517 H 0.40998 0.3032 0.80171 0.0
H518 H 0.21963 0.15141 0.87056 0.0
H519 H 0.27994 0.16224 0.88976 0.0
H520 H 0.25103 0.10425 0.86671 0.0
H521 H 0.35782 0.37231 0.83792 0.0
H522 H 0.42758 0.38612 0.82525 0.0
H523 H 0.41347 0.376 0.85828 0.0
C524 C 0.07188 0.32387 0.14258 0.0
C525 C 0.11355 0.30525 0.14009 0.0
C526 C 0.03656 0.31074 0.16406 0.0
C527 C 0.04238 0.27749 0.1835 0.0
C528 C 0.08464 0.25889 0.18119 0.0
C529 C 0.11991 0.27326 0.1596 0.0
C530 C -0.00749 0.33194 0.16582 0.0
C531 C 0.09182 0.22287 0.20135 0.0
C532 C 0.98042 0.28249 0.24734 0.0
C533 C 0.92456 0.2312 0.24687 0.0
C534 C 0.01968 0.29767 0.22705 0.0
C535 C 0.00275 0.26058 0.20579 0.0
C536 C 0.94674 0.20826 0.20543 0.0
C537 C 0.90824 0.19453 0.22585 0.0
C538 C 0.07861 0.35423 0.22807 0.0
C539 C 0.92706 0.16715 0.18329 0.0
H540 H 0.06675 0.34885 0.1277 0.0
H541 H 0.15181 0.25849 0.15785 0.0
H542 H 0.94697 0.29347 0.16691 0.0
H543 H 0.00012 0.3582 0.18305 0.0
H544 H -0.00479 0.35953 0.14961 0.0
H545 H 0.12762 0.21303 0.19704 0.0
H546 H 0.10185 0.24679 0.21935 0.0
H547 H 0.0498 0.18047 0.20384 0.0
H548 H -0.00722 0.31191 0.26319 0.0
H549 H 0.86511 0.15482 0.22537 0.0
H550 H 0.08079 0.38481 0.21327 0.0
H551 H 0.11502 0.34495 0.2245 0.0
H552 H 0.08628 0.37688 0.24633 0.0
H553 H 0.92395 0.19044 0.16664 0.0
H554 H 0.88341 0.12681 0.18641 0.0
H555 H 0.96015 0.15357 0.17908 0.0
C556 C 0.80882 0.15299 0.49996 0.0
C557 C 0.78764 0.12688 0.47661 0.0
C558 C 0.79309 0.11853 0.52177 0.0
C559 C 0.7552 0.05649 0.52022 0.0
C560 C 0.73276 0.03009 0.49677 0.0
C561 C 0.74925 0.0655 0.47531 0.0
C562 C 0.81806 0.14832 0.5464 0.0
C563 C 0.69225 0.96415 0.49424 0.0
C564 C 0.76211 0.95457 0.56871 0.0
C565 C 0.71141 0.93874 0.58311 0.0
C566 C 0.77782 -0.00571 0.54876 0.0
C567 C 0.74159 0.01849 0.54278 0.0
C568 C 0.69087 0.0036 0.55752 0.0
C569 C 0.67635 0.96386 0.57752 0.0
C570 C 0.83242 0.0091 0.53366 0.0
C571 C 0.65083 0.02804 0.55163 0.0
H572 H 0.83839 0.20034 0.5012 0.0
H573 H 0.73234 0.04478 0.45742 0.0
H574 H 0.78176 0.13667 0.55999 0.0
H575 H 0.84683 0.13233 0.55413 0.0
H576 H 0.84439 0.19722 0.54468 0.0
H577 H 0.67628 0.95086 0.47488 0.0
H578 H 0.71589 0.94078 0.49997 0.0
H579 H 0.6534 0.94904 0.50673 0.0
H580 H 0.78948 0.93542 0.57296 0.0
H581 H 0.63634 0.95079 0.58812 0.0
H582 H 0.86194 0.05772 0.53263 0.0
H583 H 0.81962 0.99272 0.51434 0.0
H584 H 0.85769 0.98925 0.5416 0.0
H585 H 0.67691 0.07694 0.55024 0.0
H586 H 0.61566 0.01569 0.5659 0.0
H587 H 0.62954 0.01105 0.53331 0.0
C588 C 0.63019 0.77738 0.83011 0.0
C589 C 0.62607 0.74845 0.80754 0.0
C590 C 0.64743 0.76117 0.85216 0.0
C591 C 0.66057 0.71476 0.85166 0.0
C592 C 0.65415 0.6839 0.82914 0.0
C593 C 0.63719 0.70118 0.80741 0.0
C594 C 0.65391 0.7953 0.87575 0.0
C595 C 0.66744 0.634 0.82775 0.0
C596 C 0.77248 0.71404 0.89629 0.0
C597 C 0.73631 0.67014 0.91343 0.0
C598 C 0.74825 0.73041 0.87674 0.0
C599 C 0.68608 0.70165 0.87394 0.0
C600 C 0.64913 0.65809 0.89149 0.0
C601 C 0.67472 0.64292 0.91109 0.0
C602 C 0.78938 0.77746 0.85866 0.0
C603 C 0.5827 0.62605 0.88904 0.0
H604 H 0.6217 0.81392 0.83044 0.0
H605 H 0.63378 0.6782 0.79014 0.0
H606 H 0.63 0.76455 0.89131 0.0
H607 H 0.70128 0.82098 0.88099 0.0
H608 H 0.63693 0.82641 0.87367 0.0
H609 H 0.65567 0.61137 0.80941 0.0
H610 H 0.71529 0.65152 0.83099 0.0
H611 H 0.64289 0.60089 0.8425 0.0
H612 H 0.82015 0.73556 0.8981 0.0
H613 H 0.64651 0.60825 0.92398 0.0
H614 H 0.77755 0.81258 0.85706 0.0
H615 H 0.78468 0.75781 0.8399 0.0
H616 H 0.83646 0.79817 0.86434 0.0
H617 H 0.56703 0.6582 0.88713 0.0
H618 H 0.56008 0.59694 0.90525 0.0
H619 H 0.5694 0.59856 0.87194 0.0
C620 C 0.93283 0.68737 0.13989 0.0
C621 C 0.87136 0.66409 0.14021 0.0
C622 C 0.96583 0.70427 0.16195 0.0
C623 C 0.93697 0.69871 0.18498 0.0
C624 C 0.87489 0.67503 0.1855 0.0
C625 C 0.84274 0.65758 0.16311 0.0
C626 C 0.03182 0.72871 0.16055 0.0
C627 C 0.84266 0.66919 0.20964 0.0
C628 C 0.02372 0.70601 0.24306 0.0
C629 C 0.05101 0.76625 0.24899 0.0
C630 C 0.98482 0.68277 0.22274 0.0
C631 C 0.97264 0.72064 0.20821 0.0
C632 C -0.00158 0.78102 0.21479 0.0
C633 C 0.03765 0.80312 0.23492 0.0
C634 C 0.95885 0.61833 0.21615 0.0
C635 C 0.98613 0.82282 0.20006 0.0
H636 H 0.95534 0.69209 0.12233 0.0
H637 H 0.79529 0.63967 0.16353 0.0
H638 H 0.05544 0.77529 0.16699 0.0
H639 H 0.0447 0.70333 0.17303 0.0
H640 H 0.04703 0.72717 0.14137 0.0
H641 H 0.7941 0.64816 0.20702 0.0
H642 H 0.85153 0.64253 0.22313 0.0
H643 H 0.85919 0.71353 0.21803 0.0
H644 H 0.03468 0.67756 0.25361 0.0
H645 H 0.05838 0.84968 0.23955 0.0
H646 H 0.97713 0.61446 0.19802 0.0
H647 H 0.9102 0.59694 0.21401 0.0
H648 H 0.96868 0.59378 0.23041 0.0
H649 H 0.00484 0.82825 0.18104 0.0
H650 H 0.00554 0.86714 0.20886 0.0
H651 H 0.93776 0.80437 0.19811 0.0
C652 C 0.2881 0.0005 0.58428 0.0
C653 C 0.25578 0.02859 0.59001 0.0
C654 C 0.27454 0.96408 0.56316 0.0
C655 C 0.22741 0.95542 0.54745 0.0
C656 C 0.19366 0.98245 0.55359 0.0
C657 C 0.20865 0.01914 0.57463 0.0
C658 C 0.3122 0.93689 0.55711 0.0
C659 C 0.14274 0.97401 0.53752 0.0
C660 C 0.23128 0.92069 0.47891 0.0
C661 C 0.1916 0.85953 0.47797 0.0
C662 C 0.24402 0.952 0.50143 0.0
C663 C 0.21598 0.92172 0.52366 0.0
C664 C 0.17616 0.85992 0.52292 0.0
C665 C 0.16467 0.8295 0.50011 0.0
C666 C 0.2872 0.01774 0.50137 0.0
C667 C 0.14498 0.82614 0.54616 0.0
H668 H 0.32558 0.00892 0.59572 0.0
H669 H 0.18371 0.04097 0.57896 0.0
H670 H 0.28392 0.88861 0.5541 0.0
H671 H 0.33696 0.95619 0.53957 0.0
H672 H 0.34443 0.9444 0.57208 0.0
H673 H 0.11809 -0.00577 0.54587 0.0
H674 H 0.15957 -0.0057 0.51899 0.0
H675 H 0.11154 0.92622 0.5345 0.0
H676 H 0.25262 0.94436 0.46196 0.0
H677 H 0.13386 0.78232 0.49959 0.0
H678 H 0.32339 0.02847 0.51478 0.0
H679 H 0.2645 0.04189 0.50744 0.0
H680 H 0.30697 0.0343 0.4827 0.0
H681 H 0.17785 0.83232 0.56058 0.0
H682 H 0.11624 0.77806 0.54261 0.0
H683 H 0.11735 0.84363 0.55391 0.0
loop_
_geom_bond_atom_site_label_1
_geom_bond_atom_site_label_2
_geom_bond_distance
_geom_bond_site_symmetry_2
_ccdc_geom_bond_type
Co0 O3 1.970 . S
Co0 N17 1.989 . S
Co0 O25 1.967 . S
Co0 O32 1.920 . S
Co1 O4 1.966 . S
Co1 N10 2.022 . S
Co1 N18 1.978 1_556 S
Co1 O26 1.941 . S
C2 O3 1.258 . S
C2 O4 1.263 1_554 S
O3 Co0 1.970 . S
O3 C2 1.258 . S
O4 Co1 1.966 . S
O4 C2 1.263 1_556 S
C5 O6 1.235 . S
C5 O32 1.289 . S
O6 C5 1.235 . S
C7 C9 1.400 . S
C7 N10 1.351 . S
C7 C12 1.501 . S
C8 C9 1.387 . S
C8 N11 1.341 . S
C9 C7 1.400 . S
C9 C8 1.387 . S
N10 Co1 2.022 . S
N10 C7 1.351 . S
N10 N11 1.365 . S
N11 C8 1.341 . S
N11 N10 1.365 . S
N11 H31 0.862 . S
C12 C7 1.501 . S
C12 H13 0.961 . S
C12 H14 0.961 . S
C12 H15 0.960 . S
H13 C12 0.961 . S
H14 C12 0.961 . S
H15 C12 0.960 . S
C16 N17 1.342 . S
C16 C20 1.401 . S
C16 C21 1.499 . S
N17 Co0 1.989 . S
N17 C16 1.342 . S
N17 N18 1.422 . S
N18 Co1 1.978 1_554 S
N18 N17 1.422 . S
N18 C19 1.335 1_554 S
C19 N18 1.335 1_556 S
C19 C20 1.396 1_556 S
C19 C29 1.510 . S
C20 C16 1.401 . S
C20 C19 1.396 1_554 S
C21 C16 1.499 . S
C21 H22 0.959 . S
C21 H23 0.960 . S
C21 H24 0.961 . S
H22 C21 0.959 . S
H23 C21 0.960 . S
H24 C21 0.961 . S
O25 Co0 1.967 . S
O25 C33 1.258 . S
O26 Co1 1.941 . S
O26 C33 1.266 1_556 S
H27 C29 0.959 . S
H28 C29 0.961 . S
C29 C19 1.510 . S
C29 H27 0.959 . S
C29 H28 0.961 . S
C29 H30 0.960 . S
H30 C29 0.960 . S
H31 N11 0.862 . S
O32 Co0 1.920 . S
O32 C5 1.289 . S
C33 O25 1.258 . S
C33 O26 1.266 1_554 S
Co34 O37 1.970 . S
Co34 N51 1.989 . S
Co34 O59 1.967 . S
Co34 O66 1.920 . S
Co35 O38 1.966 . S
Co35 N44 2.022 . S
Co35 N52 1.993 . S
Co35 O60 1.941 . S
C36 O37 1.258 . S
C36 O38 1.263 . S
O37 Co34 1.970 . S
O37 C36 1.258 . S
O38 Co35 1.966 . S
O38 C36 1.263 . S
C39 O40 1.235 . S
C39 O66 1.289 . S
O40 C39 1.235 . S
C41 C43 1.400 . S
C41 N44 1.351 . S
C41 C46 1.501 . S
C42 C43 1.387 . S
C42 N45 1.341 . S
C43 C41 1.400 . S
C43 C42 1.387 . S
N44 Co35 2.022 . S
N44 C41 1.351 . S
N44 N45 1.365 . S
N45 C42 1.341 . S
N45 N44 1.365 . S
N45 H65 0.862 . S
C46 C41 1.501 . S
C46 H47 0.961 . S
C46 H48 0.961 1_655 S
C46 H49 0.960 . S
H47 C46 0.961 . S
H48 C46 0.961 1_455 S
H49 C46 0.960 . S
C50 N51 1.342 . S
C50 C54 1.401 . S
C50 C55 1.499 . S
N51 Co34 1.989 . S
N51 C50 1.342 . S
N51 N52 1.388 . S
N52 Co35 1.993 . S
N52 N51 1.388 . S
N52 C53 1.346 . S
C53 N52 1.346 . S
C53 C54 1.396 . S
C53 C63 1.510 . S
C54 C50 1.401 . S
C54 C53 1.396 . S
C55 C50 1.499 . S
C55 H56 0.959 . S
C55 H57 0.960 . S
C55 H58 0.961 . S
H56 C55 0.959 . S
H57 C55 0.960 . S
H58 C55 0.961 . S
O59 Co34 1.967 . S
O59 C67 1.258 . S
O60 Co35 1.941 . S
O60 C67 1.266 . S
H61 C63 0.959 . S
H62 C63 0.961 . S
C63 C53 1.510 . S
C63 H61 0.959 . S
C63 H62 0.961 . S
C63 H64 0.960 . S
H64 C63 0.960 . S
H65 N45 0.862 . S
O66 Co34 1.920 . S
O66 C39 1.289 . S
C67 O59 1.258 . S
C67 O60 1.266 . S
Co68 O71 1.970 . S
Co68 N85 1.989 . S
Co68 O93 1.967 . S
Co68 O100 1.920 . S
Co69 O72 1.966 . S
Co69 N78 2.022 . S
Co69 N86 1.993 . S
Co69 O94 1.941 . S
C70 O71 1.258 . S
C70 O72 1.263 . S
O71 Co68 1.970 . S
O71 C70 1.258 . S
O72 Co69 1.966 . S
O72 C70 1.263 . S
C73 O74 1.235 . S
C73 O100 1.289 . S
O74 C73 1.235 . S
C75 C77 1.400 . S
C75 N78 1.351 . S
C75 C80 1.501 . S
C76 C77 1.387 . S
C76 N79 1.341 . S
C77 C75 1.400 . S
C77 C76 1.387 . S
N78 Co69 2.022 . S
N78 C75 1.351 . S
N78 N79 1.365 . S
N79 C76 1.341 . S
N79 N78 1.365 . S
N79 H99 0.862 . S
C80 C75 1.501 . S
C80 H81 0.961 . S
C80 H82 0.961 1_565 S
C80 H83 0.960 . S
H81 C80 0.961 . S
H82 C80 0.961 1_545 S
H83 C80 0.960 . S
C84 N85 1.342 . S
C84 C88 1.401 . S
C84 C89 1.499 . S
N85 Co68 1.989 . S
N85 C84 1.342 . S
N85 N86 1.388 . S
N86 Co69 1.993 . S
N86 N85 1.388 . S
N86 C87 1.346 . S
C87 N86 1.346 . S
C87 C88 1.396 . S
C87 C97 1.510 . S
C88 C84 1.401 . S
C88 C87 1.396 . S
C89 C84 1.499 . S
C89 H90 0.959 . S
C89 H91 0.960 . S
C89 H92 0.961 . S
H90 C89 0.959 . S
H91 C89 0.960 . S
H92 C89 0.961 . S
O93 Co68 1.967 . S
O93 C101 1.258 . S
O94 Co69 1.941 . S
O94 C101 1.266 . S
H95 C97 0.959 . S
H96 C97 0.961 . S
C97 C87 1.510 . S
C97 H95 0.959 . S
C97 H96 0.961 . S
C97 H98 0.960 . S
H98 C97 0.960 . S
H99 N79 0.862 . S
O100 Co68 1.920 . S
O100 C73 1.289 . S
C101 O93 1.258 . S
C101 O94 1.266 . S
Co102 O105 1.970 . S
Co102 N119 1.989 . S
Co102 O127 1.967 . S
Co102 O134 1.920 . S
Co103 O106 1.966 . S
Co103 N112 2.022 . S
Co103 N120 1.978 1_556 S
Co103 O128 1.941 . S
C104 O105 1.258 . S
C104 O106 1.263 1_554 S
O105 Co102 1.970 . S
O105 C104 1.258 . S
O106 Co103 1.966 . S
O106 C104 1.263 1_556 S
C107 O108 1.235 . S
C107 O134 1.289 . S
O108 C107 1.235 . S
C109 C111 1.400 . S
C109 N112 1.351 . S
C109 C114 1.501 . S
C110 C111 1.387 . S
C110 N113 1.341 . S
C111 C109 1.400 . S
C111 C110 1.387 . S
N112 Co103 2.022 . S
N112 C109 1.351 . S
N112 N113 1.365 . S
N113 C110 1.341 . S
N113 N112 1.365 . S
N113 H133 0.862 . S
C114 C109 1.501 . S
C114 H115 0.961 . S
C114 H116 0.961 . S
C114 H117 0.960 . S
H115 C114 0.961 . S
H116 C114 0.961 . S
H117 C114 0.960 . S
C118 N119 1.342 . S
C118 C122 1.401 . S
C118 C123 1.499 . S
N119 Co102 1.989 . S
N119 C118 1.342 . S
N119 N120 1.421 . S
N120 Co103 1.978 1_554 S
N120 N119 1.421 . S
N120 C121 1.335 1_554 S
C121 N120 1.335 1_556 S
C121 C122 1.396 1_556 S
C121 C131 1.510 . S
C122 C118 1.401 . S
C122 C121 1.396 1_554 S
C123 C118 1.499 . S
C123 H124 0.959 . S
C123 H125 0.960 . S
C123 H126 0.961 . S
H124 C123 0.959 . S
H125 C123 0.960 . S
H126 C123 0.961 . S
O127 Co102 1.967 . S
O127 C135 1.258 . S
O128 Co103 1.941 . S
O128 C135 1.266 1_556 S
H129 C131 0.959 . S
H130 C131 0.961 . S
C131 C121 1.510 . S
C131 H129 0.959 . S
C131 H130 0.961 . S
C131 H132 0.960 . S
H132 C131 0.960 . S
H133 N113 0.862 . S
O134 Co102 1.920 . S
O134 C107 1.289 . S
C135 O127 1.258 . S
C135 O128 1.266 1_554 S
Co136 O139 1.970 . S
Co136 N153 1.989 . S
Co136 O161 1.967 . S
Co136 O168 1.920 . S
Co137 O140 1.966 . S
Co137 N146 2.022 . S
Co137 N154 1.993 . S
Co137 O162 1.941 . S
C138 O139 1.258 . S
C138 O140 1.263 . S
O139 Co136 1.970 . S
O139 C138 1.258 . S
O140 Co137 1.966 . S
O140 C138 1.263 . S
C141 O142 1.235 . S
C141 O168 1.289 . S
O142 C141 1.235 . S
C143 C145 1.400 . S
C143 N146 1.351 . S
C143 C148 1.501 . S
C144 C145 1.387 . S
C144 N147 1.341 . S
C145 C143 1.400 . S
C145 C144 1.387 . S
N146 Co137 2.022 . S
N146 C143 1.351 . S
N146 N147 1.365 . S
N147 C144 1.341 . S
N147 N146 1.365 . S
N147 H167 0.862 . S
C148 C143 1.501 . S
C148 H149 0.961 . S
C148 H150 0.961 1_455 S
C148 H151 0.960 . S
H149 C148 0.961 . S
H150 C148 0.961 1_655 S
H151 C148 0.960 . S
C152 N153 1.342 . S
C152 C156 1.401 . S
C152 C157 1.499 . S
N153 Co136 1.989 . S
N153 C152 1.342 . S
N153 N154 1.388 . S
N154 Co137 1.993 . S
N154 N153 1.388 . S
N154 C155 1.346 . S
C155 N154 1.346 . S
C155 C156 1.396 . S
C155 C165 1.510 . S
C156 C152 1.401 . S
C156 C155 1.396 . S
C157 C152 1.499 . S
C157 H158 0.959 . S
C157 H159 0.960 . S
C157 H160 0.961 . S
H158 C157 0.959 . S
H159 C157 0.960 . S
H160 C157 0.961 . S
O161 Co136 1.967 . S
O161 C169 1.258 . S
O162 Co137 1.941 . S
O162 C169 1.266 . S
H163 C165 0.959 . S
H164 C165 0.961 . S
C165 C155 1.510 . S
C165 H163 0.959 . S
C165 H164 0.961 . S
C165 H166 0.960 . S
H166 C165 0.960 . S
H167 N147 0.862 . S
O168 Co136 1.920 . S
O168 C141 1.289 . S
C169 O161 1.258 . S
C169 O162 1.266 . S
Co170 O173 1.970 . S
Co170 N187 1.989 . S
Co170 O195 1.967 . S
Co170 O202 1.920 . S
Co171 O174 1.966 . S
Co171 N180 2.022 . S
Co171 N188 1.993 . S
Co171 O196 1.941 . S
C172 O173 1.258 . S
C172 O174 1.263 . S
O173 Co170 1.970 . S
O173 C172 1.258 . S
O174 Co171 1.966 . S
O174 C172 1.263 . S
C175 O176 1.235 . S
C175 O202 1.289 . S
O176 C175 1.235 . S
C177 C179 1.400 . S
C177 N180 1.351 . S
C177 C182 1.501 . S
C178 C179 1.387 . S
C178 N181 1.341 . S
C179 C177 1.400 . S
C179 C178 1.387 . S
N180 Co171 2.022 . S
N180 C177 1.351 . S
N180 N181 1.365 . S
N181 C178 1.341 . S
N181 N180 1.365 . S
N181 H201 0.862 . S
C182 C177 1.501 . S
C182 H183 0.961 . S
C182 H184 0.961 1_545 S
C182 H185 0.960 . S
H183 C182 0.961 . S
H184 C182 0.961 1_565 S
H185 C182 0.960 . S
C186 N187 1.342 . S
C186 C190 1.401 . S
C186 C191 1.499 . S
N187 Co170 1.989 . S
N187 C186 1.342 . S
N187 N188 1.388 . S
N188 Co171 1.993 . S
N188 N187 1.388 . S
N188 C189 1.346 . S
C189 N188 1.346 . S
C189 C190 1.396 . S
C189 C199 1.510 . S
C190 C186 1.401 . S
C190 C189 1.396 . S
C191 C186 1.499 . S
C191 H192 0.959 . S
C191 H193 0.960 . S
C191 H194 0.961 . S
H192 C191 0.959 . S
H193 C191 0.960 . S
H194 C191 0.961 . S
O195 Co170 1.967 . S
O195 C203 1.258 . S
O196 Co171 1.941 . S
O196 C203 1.266 . S
H197 C199 0.959 . S
H198 C199 0.961 . S
C199 C189 1.510 . S
C199 H197 0.959 . S
C199 H198 0.961 . S
C199 H200 0.960 . S
H200 C199 0.960 . S
H201 N181 0.862 . S
O202 Co170 1.920 . S
O202 C175 1.289 . S
C203 O195 1.258 . S
C203 O196 1.266 . S
C204 C205 1.391 . S
C204 C206 1.394 . S
C204 H220 0.931 . S
C205 C204 1.391 . S
C205 C209 1.376 . S
C206 C204 1.394 . S
C206 C207 1.369 . S
C206 C210 1.531 . S
C207 C206 1.369 . S
C207 C208 1.410 . S
C207 C215 1.503 . S
C208 C207 1.410 . S
C208 C209 1.392 . S
C208 C211 1.511 . S
C209 C205 1.376 . S
C209 C208 1.392 . S
C209 H221 0.929 . S
C210 C206 1.531 . S
C210 H222 0.960 . S
C210 H223 0.962 . S
C210 H224 0.960 . S
C211 C208 1.511 . S
C211 H225 0.961 . S
C211 H226 0.961 . S
C211 H227 0.961 . S
C212 C213 1.368 1_556 S
C212 C214 1.363 1_556 S
C212 H228 0.933 . S
C213 C212 1.368 1_554 S
C213 C217 1.408 . S
C214 C212 1.363 1_554 S
C214 C215 1.370 . S
C214 C218 1.524 1_554 S
C215 C207 1.503 . S
C215 C214 1.370 . S
C215 C216 1.403 . S
C216 C215 1.403 . S
C216 C217 1.404 . S
C216 C219 1.539 . S
C217 C213 1.408 . S
C217 C216 1.404 . S
C217 H229 0.930 . S
C218 C214 1.524 1_556 S
C218 H230 0.956 . S
C218 H231 0.961 . S
C218 H232 0.961 . S
C219 C216 1.539 . S
C219 H233 0.958 . S
C219 H234 0.961 . S
C219 H235 0.960 . S
H220 C204 0.931 . S
H221 C209 0.929 . S
H222 C210 0.960 . S
H223 C210 0.962 . S
H224 C210 0.960 . S
H225 C211 0.961 . S
H226 C211 0.961 . S
H227 C211 0.961 . S
H228 C212 0.933 . S
H229 C217 0.930 . S
H230 C218 0.956 . S
H231 C218 0.961 . S
H232 C218 0.961 . S
H233 C219 0.958 . S
H234 C219 0.961 . S
H235 C219 0.960 . S
C236 C237 1.391 . S
C236 C238 1.394 . S
C236 H252 0.931 . S
C237 C236 1.391 . S
C237 C241 1.376 . S
C238 C236 1.394 . S
C238 C239 1.369 . S
C238 C242 1.531 . S
C239 C238 1.369 . S
C239 C240 1.410 1_655 S
C239 C247 1.503 1_655 S
C240 C239 1.410 1_455 S
C240 C241 1.392 1_455 S
C240 C243 1.511 . S
C241 C237 1.376 . S
C241 C240 1.392 1_655 S
C241 H253 0.929 . S
C242 C238 1.531 . S
C242 H254 0.960 . S
C242 H255 0.962 . S
C242 H256 0.960 . S
C243 C240 1.511 . S
C243 H257 0.961 . S
C243 H258 0.961 . S
C243 H259 0.961 . S
C244 C245 1.370 . S
C244 C246 1.363 . S
C244 H260 0.931 . S
C245 C244 1.370 . S
C245 C249 1.408 . S
C246 C244 1.363 . S
C246 C247 1.370 . S
C246 C250 1.524 1_455 S
C247 C239 1.503 1_455 S
C247 C246 1.370 . S
C247 C248 1.403 . S
C248 C247 1.403 . S
C248 C249 1.404 . S
C248 C251 1.539 . S
C249 C245 1.408 . S
C249 C248 1.404 . S
C249 H261 0.930 . S
C250 C246 1.524 1_655 S
C250 H262 0.956 . S
C250 H263 0.961 . S
C250 H264 0.961 . S
C251 C248 1.539 . S
C251 H265 0.958 . S
C251 H266 0.961 . S
C251 H267 0.960 . S
H252 C236 0.931 . S
H253 C241 0.929 . S
H254 C242 0.960 . S
H255 C242 0.962 . S
H256 C242 0.960 . S
H257 C243 0.961 . S
H258 C243 0.961 . S
H259 C243 0.961 . S
H260 C244 0.931 . S
H261 C249 0.930 . S
H262 C250 0.956 . S
H263 C250 0.961 . S
H264 C250 0.961 . S
H265 C251 0.958 . S
H266 C251 0.961 . S
H267 C251 0.960 . S
C268 C269 1.391 . S
C268 C270 1.394 . S
C268 H284 0.931 . S
C269 C268 1.391 . S
C269 C273 1.376 . S
C270 C268 1.394 . S
C270 C271 1.369 . S
C270 C274 1.531 . S
C271 C270 1.369 . S
C271 C272 1.410 1_545 S
C271 C279 1.503 1_545 S
C272 C271 1.410 1_565 S
C272 C273 1.392 1_565 S
C272 C275 1.511 . S
C273 C269 1.376 . S
C273 C272 1.392 1_545 S
C273 H285 0.929 1_545 S
C274 C270 1.531 . S
C274 H286 0.960 . S
C274 H287 0.962 . S
C274 H288 0.960 . S
C275 C272 1.511 . S
C275 H289 0.961 . S
C275 H290 0.961 . S
C275 H291 0.961 . S
C276 C277 1.370 . S
C276 C278 1.363 . S
C276 H292 0.931 . S
C277 C276 1.370 . S
C277 C281 1.408 . S
C278 C276 1.363 . S
C278 C279 1.370 . S
C278 C282 1.524 . S
C279 C271 1.503 1_565 S
C279 C278 1.370 . S
C279 C280 1.403 . S
C280 C279 1.403 . S
C280 C281 1.404 . S
C280 C283 1.539 . S
C281 C277 1.408 . S
C281 C280 1.404 . S
C281 H293 0.930 . S
C282 C278 1.524 . S
C282 H294 0.956 1_565 S
C282 H295 0.961 . S
C282 H296 0.961 . S
C283 C280 1.539 . S
C283 H297 0.958 1_565 S
C283 H298 0.961 . S
C283 H299 0.960 . S
H284 C268 0.931 . S
H285 C273 0.929 1_565 S
H286 C274 0.960 . S
H287 C274 0.962 . S
H288 C274 0.960 . S
H289 C275 0.961 . S
H290 C275 0.961 . S
H291 C275 0.961 . S
H292 C276 0.931 . S
H293 C281 0.930 . S
H294 C282 0.956 1_545 S
H295 C282 0.961 . S
H296 C282 0.961 . S
H297 C283 0.958 1_545 S
H298 C283 0.961 . S
H299 C283 0.960 . S
C300 C301 1.391 . S
C300 C302 1.394 . S
C300 H316 0.931 . S
C301 C300 1.391 . S
C301 C305 1.376 . S
C302 C300 1.394 . S
C302 C303 1.369 . S
C302 C306 1.531 . S
C303 C302 1.369 . S
C303 C304 1.410 . S
C303 C311 1.503 . S
C304 C303 1.410 . S
C304 C305 1.392 . S
C304 C307 1.511 . S
C305 C301 1.376 . S
C305 C304 1.392 . S
C305 H317 0.929 . S
C306 C302 1.531 . S
C306 H318 0.960 . S
C306 H319 0.962 . S
C306 H320 0.960 . S
C307 C304 1.511 . S
C307 H321 0.961 . S
C307 H322 0.961 . S
C307 H323 0.961 . S
C308 C309 1.370 . S
C308 C310 1.363 . S
C308 H324 0.931 . S
C309 C308 1.370 . S
C309 C313 1.408 . S
C310 C308 1.363 . S
C310 C311 1.370 . S
C310 C314 1.524 . S
C311 C303 1.503 . S
C311 C310 1.370 . S
C311 C312 1.403 . S
C312 C311 1.403 . S
C312 C313 1.404 . S
C312 C315 1.539 . S
C313 C309 1.408 . S
C313 C312 1.404 . S
C313 H325 0.930 . S
C314 C310 1.524 . S
C314 H326 0.956 . S
C314 H327 0.961 . S
C314 H328 0.961 . S
C315 C312 1.539 . S
C315 H329 0.958 . S
C315 H330 0.961 . S
C315 H331 0.960 . S
H316 C300 0.931 . S
H317 C305 0.929 . S
H318 C306 0.960 . S
H319 C306 0.962 . S
H320 C306 0.960 . S
H321 C307 0.961 . S
H322 C307 0.961 . S
H323 C307 0.961 . S
H324 C308 0.931 . S
H325 C313 0.930 . S
H326 C314 0.956 . S
H327 C314 0.961 . S
H328 C314 0.961 . S
H329 C315 0.958 . S
H330 C315 0.961 . S
H331 C315 0.960 . S
C332 C333 1.391 . S
C332 C334 1.394 1_655 S
C332 H348 0.931 . S
C333 C332 1.391 . S
C333 C337 1.376 . S
C334 C332 1.394 1_455 S
C334 C335 1.369 1_455 S
C334 C338 1.531 . S
C335 C334 1.369 1_655 S
C335 C336 1.410 . S
C335 C343 1.503 1_655 S
C336 C335 1.410 . S
C336 C337 1.392 . S
C336 C339 1.511 1_554 S
C337 C333 1.376 . S
C337 C336 1.392 . S
C337 H349 0.929 1_554 S
C338 C334 1.531 . S
C338 H350 0.960 . S
C338 H351 0.962 . S
C338 H352 0.960 . S
C339 C336 1.511 1_556 S
C339 H353 0.961 . S
C339 H354 0.961 . S
C339 H355 0.961 1_556 S
C340 C341 1.370 1_556 S
C340 C342 1.363 . S
C340 H356 0.931 . S
C341 C340 1.370 1_554 S
C341 C345 1.408 . S
C342 C340 1.363 . S
C342 C343 1.370 1_556 S
C342 C346 1.524 . S
C343 C335 1.503 1_455 S
C343 C342 1.370 1_554 S
C343 C344 1.403 . S
C344 C343 1.403 . S
C344 C345 1.404 . S
C344 C347 1.539 1_455 S
C345 C341 1.408 . S
C345 C344 1.404 . S
C345 H357 0.930 . S
C346 C342 1.524 . S
C346 H358 0.956 . S
C346 H359 0.961 . S
C346 H360 0.961 . S
C347 C344 1.539 1_655 S
C347 H361 0.958 1_655 S
C347 H362 0.961 . S
C347 H363 0.960 . S
H348 C332 0.931 . S
H349 C337 0.929 1_556 S
H350 C338 0.960 . S
H351 C338 0.962 . S
H352 C338 0.960 . S
H353 C339 0.961 . S
H354 C339 0.961 . S
H355 C339 0.961 1_554 S
H356 C340 0.931 . S
H357 C345 0.930 . S
H358 C346 0.956 . S
H359 C346 0.961 . S
H360 C346 0.961 . S
H361 C347 0.958 1_455 S
H362 C347 0.961 . S
H363 C347 0.960 . S
C364 C365 1.391 . S
C364 C366 1.394 1_565 S
C364 H380 0.931 . S
C365 C364 1.391 . S
C365 C369 1.376 . S
C366 C364 1.394 1_545 S
C366 C367 1.369 1_545 S
C366 C370 1.531 . S
C367 C366 1.369 1_565 S
C367 C368 1.410 . S
C367 C375 1.503 1_565 S
C368 C367 1.410 . S
C368 C369 1.392 . S
C368 C371 1.511 . S
C369 C365 1.376 . S
C369 C368 1.392 . S
C369 H381 0.929 . S
C370 C366 1.531 . S
C370 H382 0.960 . S
C370 H383 0.962 . S
C370 H384 0.960 . S
C371 C368 1.511 . S
C371 H385 0.961 . S
C371 H386 0.961 . S
C371 H387 0.961 . S
C372 C373 1.370 . S
C372 C374 1.363 . S
C372 H388 0.931 . S
C373 C372 1.370 . S
C373 C377 1.408 . S
C374 C372 1.363 . S
C374 C375 1.370 . S
C374 C378 1.524 . S
C375 C367 1.503 1_545 S
C375 C374 1.370 . S
C375 C376 1.403 . S
C376 C375 1.403 . S
C376 C377 1.404 . S
C376 C379 1.539 1_545 S
C377 C373 1.408 . S
C377 C376 1.404 . S
C377 H389 0.930 . S
C378 C374 1.524 . S
C378 H390 0.956 . S
C378 H391 0.961 . S
C378 H392 0.961 . S
C379 C376 1.539 1_565 S
C379 H393 0.958 1_565 S
C379 H394 0.961 . S
C379 H395 0.960 . S
H380 C364 0.931 . S
H381 C369 0.929 . S
H382 C370 0.960 . S
H383 C370 0.962 . S
H384 C370 0.960 . S
H385 C371 0.961 . S
H386 C371 0.961 . S
H387 C371 0.961 . S
H388 C372 0.931 . S
H389 C377 0.930 . S
H390 C378 0.956 . S
H391 C378 0.961 . S
H392 C378 0.961 . S
H393 C379 0.958 1_545 S
H394 C379 0.961 . S
H395 C379 0.960 . S
C396 C397 1.391 . S
C396 C398 1.394 1_455 S
C396 H412 0.931 . S
C397 C396 1.391 . S
C397 C401 1.376 1_554 S
C398 C396 1.394 1_655 S
C398 C399 1.369 1_655 S
C398 C402 1.531 . S
C399 C398 1.369 1_455 S
C399 C400 1.410 1_554 S
C399 C407 1.503 1_445 S
C400 C399 1.410 1_556 S
C400 C401 1.392 . S
C400 C403 1.511 . S
C401 C397 1.376 1_556 S
C401 C400 1.392 . S
C401 H413 0.929 . S
C402 C398 1.531 . S
C402 H414 0.960 1_545 S
C402 H415 0.962 . S
C402 H416 0.960 . S
C403 C400 1.511 . S
C403 H417 0.961 . S
C403 H418 0.961 1_545 S
C403 H419 0.961 . S
C404 C405 1.370 . S
C404 C406 1.363 1_655 S
C404 H420 0.931 . S
C405 C404 1.370 . S
C405 C409 1.408 1_554 S
C406 C404 1.363 1_455 S
C406 C407 1.370 1_455 S
C406 C410 1.524 . S
C407 C399 1.503 1_665 S
C407 C406 1.370 1_655 S
C407 C408 1.403 1_554 S
C408 C407 1.403 1_556 S
C408 C409 1.404 . S
C408 C411 1.539 . S
C409 C405 1.408 1_556 S
C409 C408 1.404 . S
C409 H421 0.930 . S
C410 C406 1.524 . S
C410 H422 0.958 . S
C410 H423 0.961 1_565 S
C410 H424 0.961 . S
C411 C408 1.539 . S
C411 H425 0.958 . S
C411 H426 0.961 . S
C411 H427 0.960 . S
H412 C396 0.931 . S
H413 C401 0.929 . S
H414 C402 0.960 1_565 S
H415 C402 0.962 . S
H416 C402 0.960 . S
H417 C403 0.961 . S
H418 C403 0.961 1_565 S
H419 C403 0.961 . S
H420 C404 0.931 . S
H421 C409 0.930 . S
H422 C410 0.958 . S
H423 C410 0.961 1_545 S
H424 C410 0.961 . S
H425 C411 0.958 . S
H426 C411 0.961 . S
H427 C411 0.960 . S
C428 C429 1.391 . S
C428 C430 1.394 1_565 S
C428 H444 0.931 1_565 S
C429 C428 1.391 . S
C429 C433 1.376 . S
C430 C428 1.394 1_545 S
C430 C431 1.369 1_545 S
C430 C434 1.531 . S
C431 C430 1.369 1_565 S
C431 C432 1.410 1_455 S
C431 C439 1.503 1_465 S
C432 C431 1.410 1_655 S
C432 C433 1.392 1_655 S
C432 C435 1.511 . S
C433 C429 1.376 . S
C433 C432 1.392 1_455 S
C433 H445 0.929 . S
C434 C430 1.531 . S
C434 H446 0.960 . S
C434 H447 0.962 . S
C434 H448 0.960 . S
C435 C432 1.511 . S
C435 H449 0.961 . S
C435 H450 0.961 . S
C435 H451 0.961 . S
C436 C437 1.370 . S
C436 C438 1.363 . S
C436 H452 0.931 . S
C437 C436 1.370 . S
C437 C441 1.408 . S
C438 C436 1.363 . S
C438 C439 1.370 . S
C438 C442 1.524 1_545 S
C439 C431 1.503 1_645 S
C439 C438 1.370 . S
C439 C440 1.403 . S
C440 C439 1.403 . S
C440 C441 1.404 . S
C440 C443 1.539 1_655 S
C441 C437 1.408 . S
C441 C440 1.404 . S
C441 H453 0.930 . S
C442 C438 1.524 1_565 S
C442 H454 0.956 1_665 S
C442 H455 0.961 . S
C442 H456 0.961 . S
C443 C440 1.539 1_455 S
C443 H457 0.958 . S
C443 H458 0.961 1_455 S
C443 H459 0.960 . S
H444 C428 0.931 1_545 S
H445 C433 0.929 . S
H446 C434 0.960 . S
H447 C434 0.962 . S
H448 C434 0.960 . S
H449 C435 0.961 . S
H450 C435 0.961 . S
H451 C435 0.961 . S
H452 C436 0.931 . S
H453 C441 0.930 . S
H454 C442 0.956 1_445 S
H455 C442 0.961 . S
H456 C442 0.961 . S
H457 C443 0.958 . S
H458 C443 0.961 1_655 S
H459 C443 0.960 . S
C460 C461 1.391 . S
C460 C462 1.394 . S
C460 H476 0.931 . S
C461 C460 1.391 . S
C461 C465 1.376 . S
C462 C460 1.394 . S
C462 C463 1.380 . S
C462 C466 1.519 1_545 S
C463 C462 1.380 . S
C463 C464 1.410 . S
C463 C471 1.503 1_445 S
C464 C463 1.410 . S
C464 C465 1.392 . S
C464 C467 1.511 . S
C465 C461 1.376 . S
C465 C464 1.392 . S
C465 H477 0.929 . S
C466 C462 1.519 1_565 S
C466 H478 0.960 1_455 S
C466 H479 0.962 . S
C466 H480 0.960 . S
C467 C464 1.511 . S
C467 H481 0.961 . S
C467 H482 0.961 1_455 S
C467 H483 0.961 . S
C468 C469 1.370 . S
C468 C470 1.363 . S
C468 H484 0.931 . S
C469 C468 1.370 . S
C469 C473 1.408 . S
C470 C468 1.363 . S
C470 C471 1.370 . S
C470 C474 1.524 . S
C471 C463 1.503 1_665 S
C471 C470 1.370 . S
C471 C472 1.403 . S
C472 C471 1.403 . S
C472 C473 1.404 . S
C472 C475 1.539 1_565 S
C473 C469 1.408 . S
C473 C472 1.404 . S
C473 H485 0.930 . S
C474 C470 1.524 . S
C474 H486 0.956 1_655 S
C474 H487 0.961 1_655 S
C474 H488 0.961 . S
C475 C472 1.539 1_545 S
C475 H489 0.958 . S
C475 H490 0.961 . S
C475 H491 0.960 . S
H476 C460 0.931 . S
H477 C465 0.929 . S
H478 C466 0.960 1_655 S
H479 C466 0.962 . S
H480 C466 0.960 . S
H481 C467 0.961 . S
H482 C467 0.961 1_655 S
H483 C467 0.961 . S
H484 C468 0.931 . S
H485 C473 0.930 . S
H486 C474 0.956 1_455 S
H487 C474 0.961 1_455 S
H488 C474 0.961 . S
H489 C475 0.958 . S
H490 C475 0.961 . S
H491 C475 0.960 . S
C492 C493 1.391 . S
C492 C494 1.394 . S
C492 H508 0.931 . S
C493 C492 1.391 . S
C493 C497 1.376 . S
C494 C492 1.394 . S
C494 C495 1.369 . S
C494 C498 1.531 . S
C495 C494 1.369 . S
C495 C496 1.410 . S
C495 C503 1.503 . S
C496 C495 1.410 . S
C496 C497 1.392 . S
C496 C499 1.511 . S
C497 C493 1.376 . S
C497 C496 1.392 . S
C497 H509 0.929 . S
C498 C494 1.531 . S
C498 H510 0.960 . S
C498 H511 0.962 . S
C498 H512 0.960 . S
C499 C496 1.511 . S
C499 H513 0.961 . S
C499 H514 0.961 . S
C499 H515 0.961 . S
C500 C501 1.370 . S
C500 C502 1.363 . S
C500 H516 0.931 . S
C501 C500 1.370 . S
C501 C505 1.408 . S
C502 C500 1.363 . S
C502 C503 1.370 . S
C502 C506 1.524 . S
C503 C495 1.503 . S
C503 C502 1.370 . S
C503 C504 1.403 . S
C504 C503 1.403 . S
C504 C505 1.404 . S
C504 C507 1.539 . S
C505 C501 1.408 . S
C505 C504 1.404 . S
C505 H517 0.930 . S
C506 C502 1.524 . S
C506 H518 0.956 . S
C506 H519 0.961 . S
C506 H520 0.961 . S
C507 C504 1.539 . S
C507 H521 0.958 . S
C507 H522 0.961 . S
C507 H523 0.960 . S
H508 C492 0.931 . S
H509 C497 0.929 . S
H510 C498 0.960 . S
H511 C498 0.962 . S
H512 C498 0.960 . S
H513 C499 0.961 . S
H514 C499 0.961 . S
H515 C499 0.961 . S
H516 C500 0.931 . S
H517 C505 0.930 . S
H518 C506 0.956 . S
H519 C506 0.961 . S
H520 C506 0.961 . S
H521 C507 0.958 . S
H522 C507 0.961 . S
H523 C507 0.960 . S
C524 C525 1.391 . S
C524 C526 1.394 . S
C524 H540 0.931 . S
C525 C524 1.391 . S
C525 C529 1.376 . S
C526 C524 1.394 . S
C526 C527 1.369 . S
C526 C530 1.531 1_455 S
C527 C526 1.369 . S
C527 C528 1.410 . S
C527 C535 1.503 . S
C528 C527 1.410 . S
C528 C529 1.392 . S
C528 C531 1.511 . S
C529 C525 1.376 . S
C529 C528 1.392 . S
C529 H541 0.929 . S
C530 C526 1.531 1_655 S
C530 H542 0.960 . S
C530 H543 0.962 . S
C530 H544 0.960 . S
C531 C528 1.511 . S
C531 H545 0.961 . S
C531 H546 0.961 . S
C531 H547 0.961 . S
C532 C533 1.370 1_455 S
C532 C534 1.363 . S
C532 H548 0.931 . S
C533 C532 1.370 1_655 S
C533 C537 1.408 . S
C534 C532 1.363 . S
C534 C535 1.370 . S
C534 C538 1.524 . S
C535 C527 1.503 . S
C535 C534 1.370 . S
C535 C536 1.403 . S
C536 C535 1.403 . S
C536 C537 1.404 1_455 S
C536 C539 1.539 . S
C537 C533 1.408 . S
C537 C536 1.404 1_655 S
C537 H549 0.930 . S
C538 C534 1.524 . S
C538 H550 0.956 . S
C538 H551 0.961 . S
C538 H552 0.961 . S
C539 C536 1.539 . S
C539 H553 0.958 1_455 S
C539 H554 0.961 1_455 S
C539 H555 0.960 . S
H540 C524 0.931 . S
H541 C529 0.929 . S
H542 C530 0.960 . S
H543 C530 0.962 . S
H544 C530 0.960 . S
H545 C531 0.961 . S
H546 C531 0.961 . S
H547 C531 0.961 . S
H548 C532 0.931 . S
H549 C537 0.930 . S
H550 C538 0.956 . S
H551 C538 0.961 . S
H552 C538 0.961 . S
H553 C539 0.958 1_655 S
H554 C539 0.961 1_655 S
H555 C539 0.960 . S
C556 C557 1.391 . S
C556 C558 1.394 . S
C556 H572 0.931 . S
C557 C556 1.391 . S
C557 C561 1.376 . S
C558 C556 1.394 . S
C558 C559 1.369 . S
C558 C562 1.531 . S
C559 C558 1.369 . S
C559 C560 1.410 . S
C559 C567 1.503 . S
C560 C559 1.410 . S
C560 C561 1.392 . S
C560 C563 1.511 1_545 S
C561 C557 1.376 . S
C561 C560 1.392 . S
C561 H573 0.929 . S
C562 C558 1.531 . S
C562 H574 0.960 . S
C562 H575 0.962 . S
C562 H576 0.960 . S
C563 C560 1.511 1_565 S
C563 H577 0.961 . S
C563 H578 0.961 . S
C563 H579 0.961 . S
C564 C565 1.370 1_545 S
C564 C566 1.363 . S
C564 H580 0.931 . S
C565 C564 1.370 1_565 S
C565 C569 1.408 . S
C566 C564 1.363 . S
C566 C567 1.370 . S
C566 C570 1.524 . S
C567 C559 1.503 . S
C567 C566 1.370 . S
C567 C568 1.403 . S
C568 C567 1.403 . S
C568 C569 1.404 1_545 S
C568 C571 1.539 1_545 S
C569 C565 1.408 . S
C569 C568 1.404 1_565 S
C569 H581 0.930 . S
C570 C566 1.524 . S
C570 H582 0.956 . S
C570 H583 0.961 . S
C570 H584 0.961 . S
C571 C568 1.539 1_565 S
C571 H585 0.958 1_565 S
C571 H586 0.961 . S
C571 H587 0.960 . S
H572 C556 0.931 . S
H573 C561 0.929 . S
H574 C562 0.960 . S
H575 C562 0.962 . S
H576 C562 0.960 . S
H577 C563 0.961 . S
H578 C563 0.961 . S
H579 C563 0.961 . S
H580 C564 0.931 . S
H581 C569 0.930 . S
H582 C570 0.956 . S
H583 C570 0.961 . S
H584 C570 0.961 . S
H585 C571 0.958 1_545 S
H586 C571 0.961 . S
H587 C571 0.960 . S
C588 C589 1.391 . S
C588 C590 1.394 . S
C588 H604 0.931 . S
C589 C588 1.391 . S
C589 C593 1.376 . S
C590 C588 1.394 . S
C590 C591 1.369 . S
C590 C594 1.531 . S
C591 C590 1.369 . S
C591 C592 1.410 . S
C591 C599 1.503 . S
C592 C591 1.410 . S
C592 C593 1.392 . S
C592 C595 1.511 . S
C593 C589 1.376 . S
C593 C592 1.392 . S
C593 H605 0.929 . S
C594 C590 1.531 . S
C594 H606 0.960 . S
C594 H607 0.962 . S
C594 H608 0.960 . S
C595 C592 1.511 . S
C595 H609 0.961 . S
C595 H610 0.961 . S
C595 H611 0.961 . S
C596 C597 1.370 . S
C596 C598 1.363 . S
C596 H612 0.931 . S
C597 C596 1.370 . S
C597 C601 1.408 . S
C598 C596 1.363 . S
C598 C599 1.370 . S
C598 C602 1.524 . S
C599 C591 1.503 . S
C599 C598 1.370 . S
C599 C600 1.403 . S
C600 C599 1.403 . S
C600 C601 1.404 . S
C600 C603 1.539 . S
C601 C597 1.408 . S
C601 C600 1.404 . S
C601 H613 0.930 . S
C602 C598 1.524 . S
C602 H614 0.956 . S
C602 H615 0.961 . S
C602 H616 0.961 . S
C603 C600 1.539 . S
C603 H617 0.958 . S
C603 H618 0.961 . S
C603 H619 0.960 . S
H604 C588 0.931 . S
H605 C593 0.929 . S
H606 C594 0.960 . S
H607 C594 0.962 . S
H608 C594 0.960 . S
H609 C595 0.961 . S
H610 C595 0.961 . S
H611 C595 0.961 . S
H612 C596 0.931 . S
H613 C601 0.930 . S
H614 C602 0.956 . S
H615 C602 0.961 . S
H616 C602 0.961 . S
H617 C603 0.958 . S
H618 C603 0.961 . S
H619 C603 0.960 . S
C620 C621 1.391 . S
C620 C622 1.394 . S
C620 H636 0.931 . S
C621 C620 1.391 . S
C621 C625 1.376 . S
C622 C620 1.394 . S
C622 C623 1.369 . S
C622 C626 1.531 . S
C623 C622 1.369 . S
C623 C624 1.410 . S
C623 C631 1.503 . S
C624 C623 1.410 . S
C624 C625 1.392 . S
C624 C627 1.511 . S
C625 C621 1.376 . S
C625 C624 1.392 . S
C625 H637 0.929 . S
C626 C622 1.531 . S
C626 H638 0.960 . S
C626 H639 0.962 . S
C626 H640 0.960 . S
C627 C624 1.511 . S
C627 H641 0.961 . S
C627 H642 0.961 . S
C627 H643 0.961 1_655 S
C628 C629 1.370 1_655 S
C628 C630 1.363 . S
C628 H644 0.931 . S
C629 C628 1.370 1_455 S
C629 C633 1.408 . S
C630 C628 1.363 . S
C630 C631 1.370 . S
C630 C634 1.524 . S
C631 C623 1.503 . S
C631 C630 1.370 . S
C631 C632 1.403 1_655 S
C632 C631 1.403 1_455 S
C632 C633 1.404 . S
C632 C635 1.539 . S
C633 C629 1.408 . S
C633 C632 1.404 . S
C633 H645 0.930 . S
C634 C630 1.524 . S
C634 H646 0.956 . S
C634 H647 0.961 . S
C634 H648 0.961 . S
C635 C632 1.539 . S
C635 H649 0.958 . S
C635 H650 0.961 . S
C635 H651 0.960 . S
H636 C620 0.931 . S
H637 C625 0.929 . S
H638 C626 0.960 . S
H639 C626 0.962 . S
H640 C626 0.960 . S
H641 C627 0.961 . S
H642 C627 0.961 . S
H643 C627 0.961 1_455 S
H644 C628 0.931 . S
H645 C633 0.930 . S
H646 C634 0.956 . S
H647 C634 0.961 . S
H648 C634 0.961 . S
H649 C635 0.958 . S
H650 C635 0.961 . S
H651 C635 0.960 . S
C652 C653 1.391 . S
C652 C654 1.394 1_545 S
C652 H668 0.931 . S
C653 C652 1.391 . S
C653 C657 1.376 1_545 S
C654 C652 1.394 1_565 S
C654 C655 1.369 . S
C654 C658 1.531 . S
C655 C654 1.369 . S
C655 C656 1.410 . S
C655 C663 1.503 . S
C656 C655 1.410 . S
C656 C657 1.392 . S
C656 C659 1.511 . S
C657 C653 1.376 1_565 S
C657 C656 1.392 . S
C657 H669 0.929 . S
C658 C654 1.531 . S
C658 H670 0.960 . S
C658 H671 0.962 . S
C658 H672 0.960 . S
C659 C656 1.511 . S
C659 H673 0.961 . S
C659 H674 0.961 . S
C659 H675 0.961 . S
C660 C661 1.370 . S
C660 C662 1.363 . S
C660 H676 0.931 . S
C661 C660 1.370 . S
C661 C665 1.408 . S
C662 C660 1.363 . S
C662 C663 1.370 . S
C662 C666 1.524 1_565 S
C663 C655 1.503 . S
C663 C662 1.370 . S
C663 C664 1.403 . S
C664 C663 1.403 . S
C664 C665 1.404 . S
C664 C667 1.539 . S
C665 C661 1.408 . S
C665 C664 1.404 . S
C665 H677 0.930 . S
C666 C662 1.524 1_545 S
C666 H678 0.956 . S
C666 H679 0.961 . S
C666 H680 0.961 . S
C667 C664 1.539 . S
C667 H681 0.958 . S
C667 H682 0.961 . S
C667 H683 0.960 . S
H668 C652 0.931 . S
H669 C657 0.929 . S
H670 C658 0.960 . S
H671 C658 0.962 . S
H672 C658 0.960 . S
H673 C659 0.961 . S
H674 C659 0.961 . S
H675 C659 0.961 . S
H676 C660 0.931 . S
H677 C665 0.930 . S
H678 C666 0.956 . S
H679 C666 0.961 . S
H680 C666 0.961 . S
H681 C667 0.958 . S
H682 C667 0.961 . S
H683 C667 0.960 . S
C205 C2 1.425 . S
C213 C104 1.426 . S
C237 C36 1.412 . S
C245 C138 1.430 . S
C269 C172 1.422 . S
C277 C70 1.426 . S
C301 C101 2.033 . S
C309 C203 2.045 . S
C333 C135 2.038 . S
C341 C33 2.041 . S
C365 C169 2.039 . S
C373 C67 2.041 . S
C397 C20 0.516 . S
C405 C122 0.445 . S
C429 C156 0.499 . S
C437 C54 0.457 . S
C461 C190 0.487 . S
C469 C88 0.437 . S
C493 C9 1.662 . S
C501 C175 1.688 . S
C525 C5 1.669 . S
C533 C43 1.635 . S
C557 C39 1.680 . S
C565 C77 1.644 . S
C589 C73 1.691 . S
C597 C111 1.654 . S
C621 C107 1.671 . S
C629 C145 1.636 . S
C653 C179 1.663 . S
C661 C141 1.689 . S
