# Generated by pormake.
# Topology wgi, (5)-cn, num edge types: 1
# Building blocks:
#     Node 0, Type 0, BuildingBlock: BEQFEK_clean_sbu_0, # of connection points: 5
#     Node 1, Type 0, BuildingBlock: BEQFEK_clean_sbu_0, # of connection points: 5
#     Node 2, Type 0, BuildingBlock: BEQFEK_clean_sbu_0, # of connection points: 5
#     Node 3, Type 0, BuildingBlock: BEQFEK_clean_sbu_0, # of connection points: 5
#     Node 4, Type 0, BuildingBlock: BEQFEK_clean_sbu_0, # of connection points: 5
#     Node 5, Type 0, BuildingBlock: BEQFEK_clean_sbu_0, # of connection points: 5
#     Node 6, Type 0, BuildingBlock: BEQFEK_clean_sbu_0, # of connection points: 5
#     Node 7, Type 0, BuildingBlock: BEQFEK_clean_sbu_0, # of connection points: 5
#     Node 8, Type 0, BuildingBlock: BEQFEK_clean_sbu_0, # of connection points: 5
#     Node 9, Type 0, BuildingBlock: BEQFEK_clean_sbu_0, # of connection points: 5
#     Node 10, Type 0, BuildingBlock: BEQFEK_clean_sbu_0, # of connection points: 5
#     Node 11, Type 0, BuildingBlock: BEQFEK_clean_sbu_0, # of connection points: 5
#     Node 12, Type 0, BuildingBlock: BEQFEK_clean_sbu_0, # of connection points: 5
#     Node 13, Type 0, BuildingBlock: BEQFEK_clean_sbu_0, # of connection points: 5
#     Node 14, Type 0, BuildingBlock: BEQFEK_clean_sbu_0, # of connection points: 5
#     Node 15, Type 0, BuildingBlock: BEQFEK_clean_sbu_0, # of connection points: 5
#     Node 16, Type 0, BuildingBlock: BEQFEK_clean_sbu_0, # of connection points: 5
#     Node 17, Type 0, BuildingBlock: BEQFEK_clean_sbu_0, # of connection points: 5
#     Node 18, Type 0, BuildingBlock: BEQFEK_clean_sbu_0, # of connection points: 5
#     Node 19, Type 0, BuildingBlock: BEQFEK_clean_sbu_0, # of connection points: 5
#     Node 20, Type 0, BuildingBlock: BEQFEK_clean_sbu_0, # of connection points: 5
#     Node 21, Type 0, BuildingBlock: BEQFEK_clean_sbu_0, # of connection points: 5
#     Node 22, Type 0, BuildingBlock: BEQFEK_clean_sbu_0, # of connection points: 5
#     Node 23, Type 0, BuildingBlock: BEQFEK_clean_sbu_0, # of connection points: 5
#     Node 24, Type 0, BuildingBlock: BEQFEK_clean_sbu_0, # of connection points: 5
#     Node 25, Type 0, BuildingBlock: BEQFEK_clean_sbu_0, # of connection points: 5
#     Node 26, Type 0, BuildingBlock: BEQFEK_clean_sbu_0, # of connection points: 5
#     Node 27, Type 0, BuildingBlock: BEQFEK_clean_sbu_0, # of connection points: 5
#     Node 28, Type 0, BuildingBlock: BEQFEK_clean_sbu_0, # of connection points: 5
#     Node 29, Type 0, BuildingBlock: BEQFEK_clean_sbu_0, # of connection points: 5
#     Node 30, Type 0, BuildingBlock: BEQFEK_clean_sbu_0, # of connection points: 5
#     Node 31, Type 0, BuildingBlock: BEQFEK_clean_sbu_0, # of connection points: 5
#     Edge 32, Type (0, 0), BuildingBlock: EZIPEK_clean_linker_0, # of connection points: 2
#     Edge 33, Type (0, 0), BuildingBlock: EZIPEK_clean_linker_0, # of connection points: 2
#     Edge 34, Type (0, 0), BuildingBlock: EZIPEK_clean_linker_0, # of connection points: 2
#     Edge 35, Type (0, 0), BuildingBlock: EZIPEK_clean_linker_0, # of connection points: 2
#     Edge 36, Type (0, 0), BuildingBlock: EZIPEK_clean_linker_0, # of connection points: 2
#     Edge 37, Type (0, 0), BuildingBlock: EZIPEK_clean_linker_0, # of connection points: 2
#     Edge 38, Type (0, 0), BuildingBlock: EZIPEK_clean_linker_0, # of connection points: 2
#     Edge 39, Type (0, 0), BuildingBlock: EZIPEK_clean_linker_0, # of connection points: 2
#     Edge 40, Type (0, 0), BuildingBlock: EZIPEK_clean_linker_0, # of connection points: 2
#     Edge 41, Type (0, 0), BuildingBlock: EZIPEK_clean_linker_0, # of connection points: 2
#     Edge 42, Type (0, 0), BuildingBlock: EZIPEK_clean_linker_0, # of connection points: 2
#     Edge 43, Type (0, 0), BuildingBlock: EZIPEK_clean_linker_0, # of connection points: 2
#     Edge 44, Type (0, 0), BuildingBlock: EZIPEK_clean_linker_0, # of connection points: 2
#     Edge 45, Type (0, 0), BuildingBlock: EZIPEK_clean_linker_0, # of connection points: 2
#     Edge 46, Type (0, 0), BuildingBlock: EZIPEK_clean_linker_0, # of connection points: 2
#     Edge 47, Type (0, 0), BuildingBlock: EZIPEK_clean_linker_0, # of connection points: 2
#     Edge 48, Type (0, 0), BuildingBlock: EZIPEK_clean_linker_0, # of connection points: 2
#     Edge 49, Type (0, 0), BuildingBlock: EZIPEK_clean_linker_0, # of connection points: 2
#     Edge 50, Type (0, 0), BuildingBlock: EZIPEK_clean_linker_0, # of connection points: 2
#     Edge 51, Type (0, 0), BuildingBlock: EZIPEK_clean_linker_0, # of connection points: 2
#     Edge 52, Type (0, 0), BuildingBlock: EZIPEK_clean_linker_0, # of connection points: 2
#     Edge 53, Type (0, 0), BuildingBlock: EZIPEK_clean_linker_0, # of connection points: 2
#     Edge 54, Type (0, 0), BuildingBlock: EZIPEK_clean_linker_0, # of connection points: 2
#     Edge 55, Type (0, 0), BuildingBlock: EZIPEK_clean_linker_0, # of connection points: 2
#     Edge 56, Type (0, 0), BuildingBlock: EZIPEK_clean_linker_0, # of connection points: 2
#     Edge 57, Type (0, 0), BuildingBlock: EZIPEK_clean_linker_0, # of connection points: 2
#     Edge 58, Type (0, 0), BuildingBlock: EZIPEK_clean_linker_0, # of connection points: 2
#     Edge 59, Type (0, 0), BuildingBlock: EZIPEK_clean_linker_0, # of connection points: 2
#     Edge 60, Type (0, 0), BuildingBlock: EZIPEK_clean_linker_0, # of connection points: 2
#     Edge 61, Type (0, 0), BuildingBlock: EZIPEK_clean_linker_0, # of connection points: 2
#     Edge 62, Type (0, 0), BuildingBlock: EZIPEK_clean_linker_0, # of connection points: 2
#     Edge 63, Type (0, 0), BuildingBlock: EZIPEK_clean_linker_0, # of connection points: 2
#     Edge 64, Type (0, 0), BuildingBlock: EZIPEK_clean_linker_0, # of connection points: 2
#     Edge 65, Type (0, 0), BuildingBlock: EZIPEK_clean_linker_0, # of connection points: 2
#     Edge 66, Type (0, 0), BuildingBlock: EZIPEK_clean_linker_0, # of connection points: 2
#     Edge 67, Type (0, 0), BuildingBlock: EZIPEK_clean_linker_0, # of connection points: 2
#     Edge 68, Type (0, 0), BuildingBlock: EZIPEK_clean_linker_0, # of connection points: 2
#     Edge 69, Type (0, 0), BuildingBlock: EZIPEK_clean_linker_0, # of connection points: 2
#     Edge 70, Type (0, 0), BuildingBlock: EZIPEK_clean_linker_0, # of connection points: 2
#     Edge 71, Type (0, 0), BuildingBlock: EZIPEK_clean_linker_0, # of connection points: 2
#     Edge 72, Type (0, 0), BuildingBlock: EZIPEK_clean_linker_0, # of connection points: 2
#     Edge 73, Type (0, 0), BuildingBlock: EZIPEK_clean_linker_0, # of connection points: 2
#     Edge 74, Type (0, 0), BuildingBlock: EZIPEK_clean_linker_0, # of connection points: 2
#     Edge 75, Type (0, 0), BuildingBlock: EZIPEK_clean_linker_0, # of connection points: 2
#     Edge 76, Type (0, 0), BuildingBlock: EZIPEK_clean_linker_0, # of connection points: 2
#     Edge 77, Type (0, 0), BuildingBlock: EZIPEK_clean_linker_0, # of connection points: 2
#     Edge 78, Type (0, 0), BuildingBlock: EZIPEK_clean_linker_0, # of connection points: 2
#     Edge 79, Type (0, 0), BuildingBlock: EZIPEK_clean_linker_0, # of connection points: 2
#     Edge 80, Type (0, 0), BuildingBlock: EZIPEK_clean_linker_0, # of connection points: 2
#     Edge 81, Type (0, 0), BuildingBlock: EZIPEK_clean_linker_0, # of connection points: 2
#     Edge 82, Type (0, 0), BuildingBlock: EZIPEK_clean_linker_0, # of connection points: 2
#     Edge 83, Type (0, 0), BuildingBlock: EZIPEK_clean_linker_0, # of connection points: 2
#     Edge 84, Type (0, 0), BuildingBlock: EZIPEK_clean_linker_0, # of connection points: 2
#     Edge 85, Type (0, 0), BuildingBlock: EZIPEK_clean_linker_0, # of connection points: 2
#     Edge 86, Type (0, 0), BuildingBlock: EZIPEK_clean_linker_0, # of connection points: 2
#     Edge 87, Type (0, 0), BuildingBlock: EZIPEK_clean_linker_0, # of connection points: 2
#     Edge 88, Type (0, 0), BuildingBlock: EZIPEK_clean_linker_0, # of connection points: 2
#     Edge 89, Type (0, 0), BuildingBlock: EZIPEK_clean_linker_0, # of connection points: 2
#     Edge 90, Type (0, 0), BuildingBlock: EZIPEK_clean_linker_0, # of connection points: 2
#     Edge 91, Type (0, 0), BuildingBlock: EZIPEK_clean_linker_0, # of connection points: 2
#     Edge 92, Type (0, 0), BuildingBlock: EZIPEK_clean_linker_0, # of connection points: 2
#     Edge 93, Type (0, 0), BuildingBlock: EZIPEK_clean_linker_0, # of connection points: 2
#     Edge 94, Type (0, 0), BuildingBlock: EZIPEK_clean_linker_0, # of connection points: 2
#     Edge 95, Type (0, 0), BuildingBlock: EZIPEK_clean_linker_0, # of connection points: 2
#     Edge 96, Type (0, 0), BuildingBlock: EZIPEK_clean_linker_0, # of connection points: 2
#     Edge 97, Type (0, 0), BuildingBlock: EZIPEK_clean_linker_0, # of connection points: 2
#     Edge 98, Type (0, 0), BuildingBlock: EZIPEK_clean_linker_0, # of connection points: 2
#     Edge 99, Type (0, 0), BuildingBlock: EZIPEK_clean_linker_0, # of connection points: 2
#     Edge 100, Type (0, 0), BuildingBlock: EZIPEK_clean_linker_0, # of connection points: 2
#     Edge 101, Type (0, 0), BuildingBlock: EZIPEK_clean_linker_0, # of connection points: 2
#     Edge 102, Type (0, 0), BuildingBlock: EZIPEK_clean_linker_0, # of connection points: 2
#     Edge 103, Type (0, 0), BuildingBlock: EZIPEK_clean_linker_0, # of connection points: 2
#     Edge 104, Type (0, 0), BuildingBlock: EZIPEK_clean_linker_0, # of connection points: 2
#     Edge 105, Type (0, 0), BuildingBlock: EZIPEK_clean_linker_0, # of connection points: 2
#     Edge 106, Type (0, 0), BuildingBlock: EZIPEK_clean_linker_0, # of connection points: 2
#     Edge 107, Type (0, 0), BuildingBlock: EZIPEK_clean_linker_0, # of connection points: 2
#     Edge 108, Type (0, 0), BuildingBlock: EZIPEK_clean_linker_0, # of connection points: 2
#     Edge 109, Type (0, 0), BuildingBlock: EZIPEK_clean_linker_0, # of connection points: 2
#     Edge 110, Type (0, 0), BuildingBlock: EZIPEK_clean_linker_0, # of connection points: 2
#     Edge 111, Type (0, 0), BuildingBlock: EZIPEK_clean_linker_0, # of connection points: 2
# Relax obj value: 0.189
# Max RMSD: 0.119
# Mean RMSD: 0.119
data_MOF--net-wgi--node1-BEQFEK_clean_sbu_0--edge1-EZIPEK_clean_linker_0
_symmetry_space_group_name_H-M    P1
_symmetry_Int_Tables_number       1
_symmetry_cell_setting            triclinic
loop_
_symmetry_equiv_pos_as_xyz
'x, y, z'
_cell_length_a     60.401058
_cell_length_b     60.474589
_cell_length_c     21.796205
_cell_angle_alpha  89.956939
_cell_angle_beta   89.993305
_cell_angle_gamma 89.985965
loop_
_atom_site_label
_atom_site_type_symbol
_atom_site_fract_x
_atom_site_fract_y
_atom_site_fract_z
_atom_type_partial_charge
Co0 Co 0.09606 0.17206 0.33926 0.0
Co1 Co 0.14841 0.17383 0.34796 0.0
C2 C 0.12817 0.15591 0.2368 0.0
O3 O 0.1095 0.16019 0.26201 0.0
O4 O 0.14666 0.16022 0.26357 0.0
C5 C 0.05762 0.14385 0.34044 0.0
O6 O 0.07178 0.12819 0.32615 0.0
C7 C 0.19724 0.17449 0.39695 0.0
C8 C 0.18759 0.19113 0.48329 0.0
C9 C 0.20554 0.18199 0.45354 0.0
N10 N 0.17524 0.17883 0.39485 0.0
N11 N 0.17003 0.1891 0.4464 0.0
C12 C 0.20981 0.16359 0.34628 0.0
H13 H 0.2045 0.17056 0.3015 0.0
H14 H 0.20584 0.14568 0.34586 0.0
H15 H 0.22793 0.16575 0.35242 0.0
C16 C 0.10334 0.15051 0.45879 0.0
N17 N 0.11048 0.15884 0.40519 0.0
N18 N 0.13183 0.15531 0.40013 0.0
C19 C 0.13863 0.14284 0.44763 0.0
C20 C 0.12096 0.14002 0.4871 0.0
C21 C 0.08151 0.1559 0.48763 0.0
H22 H 0.07164 0.16715 0.45832 0.0
H23 H 0.07219 0.14048 0.49677 0.0
H24 H 0.08436 0.16396 0.5327 0.0
O25 O 0.09907 0.20412 0.34595 0.0
O26 O 0.13579 0.20476 0.34834 0.0
H27 H 0.17093 0.14504 0.48817 0.0
H28 H 0.1611 0.11747 0.47706 0.0
C29 C 0.16166 0.13423 0.45626 0.0
H30 H 0.17047 0.13354 0.41164 0.0
H31 H 0.15406 0.19442 0.45708 0.0
O32 O 0.06424 0.16377 0.34458 0.0
C33 C 0.11718 0.2147 0.34942 0.0
Co34 Co 0.08794 0.84986 0.57458 0.0
Co35 Co 0.07844 0.90123 0.58559 0.0
C36 C 0.10183 0.88022 0.47558 0.0
O37 O 0.09856 0.8609 0.49668 0.0
O38 O 0.09557 0.89758 0.50475 0.0
C39 C 0.10954 0.80702 0.55469 0.0
O40 O 0.12204 0.81694 0.51378 0.0
C41 C 0.08857 0.94517 0.644 0.0
C42 C 0.055 0.9596 0.64481 0.0
C43 C 0.07616 0.96264 0.6677 0.0
N44 N 0.07509 0.932 0.61055 0.0
N45 N 0.05522 0.94119 0.6101 0.0
C46 C 0.11256 0.94062 0.65585 0.0
H47 H 0.11722 0.9238 0.64034 0.0
H48 H 0.11647 0.9429 0.70518 0.0
H49 H 0.1227 0.95273 0.62994 0.0
C50 C 0.11234 0.85882 0.68685 0.0
N51 N 0.10157 0.86617 0.63706 0.0
N52 N 0.09312 0.88574 0.64875 0.0
C53 C 0.0958 0.89013 0.70869 0.0
C54 C 0.10873 0.87366 0.73402 0.0
C55 C 0.12423 0.83721 0.69028 0.0
H56 H 0.11211 0.82348 0.69304 0.0
H57 H 0.13411 0.83514 0.64791 0.0
H58 H 0.1353 0.83651 0.73089 0.0
O59 O 0.05519 0.85254 0.58452 0.0
O60 O 0.04815 0.88866 0.58372 0.0
H61 H 0.07498 0.89748 0.78597 0.0
H62 H 0.09143 0.92007 0.75974 0.0
C63 C 0.08151 0.90574 0.7442 0.0
H64 H 0.06734 0.91128 0.71585 0.0
H65 H 0.04133 0.93405 0.58966 0.0
O66 O 0.09482 0.81783 0.58358 0.0
C67 C 0.04164 0.86867 0.58756 0.0
Co68 Co 0.40979 0.83387 0.85196 0.0
Co69 Co 0.35718 0.83263 0.83979 0.0
C70 C 0.38293 0.84938 0.73735 0.0
O71 O 0.39991 0.84558 0.77093 0.0
O72 O 0.36318 0.84507 0.75584 0.0
C73 C 0.45061 0.85822 0.87975 0.0
O74 O 0.43766 0.87551 0.88655 0.0
C75 C 0.30658 0.83322 0.87125 0.0
C76 C 0.31163 0.81512 0.95848 0.0
C77 C 0.29562 0.82545 0.92384 0.0
N78 N 0.3283 0.82792 0.87614 0.0
N79 N 0.33077 0.81692 0.92815 0.0
C80 C 0.29677 0.84561 0.81857 0.0
H81 H 0.30394 0.83948 0.77488 0.0
H82 H 0.30112 0.86337 0.82272 0.0
H83 H 0.27847 0.84392 0.81801 0.0
C84 C 0.39609 0.85487 0.96824 0.0
N85 N 0.39215 0.84711 0.91169 0.0
N86 N 0.37137 0.85099 0.89749 0.0
C87 C 0.36202 0.8632 0.94204 0.0
C88 C 0.37713 0.86532 0.98901 0.0
C89 C 0.41628 0.84948 0.00504 0.0
H90 H 0.42365 0.83388 0.98805 0.0
H91 H 0.42849 0.86307 0.00073 0.0
H92 H 0.4121 0.84762 0.05438 0.0
O93 O 0.40571 0.80203 0.85451 0.0
O94 O 0.36919 0.80155 0.84301 0.0
H95 H 0.32764 0.86243 0.9668 0.0
H96 H 0.33919 0.88952 0.96073 0.0
C97 C 0.3392 0.87279 0.93981 0.0
H98 H 0.33331 0.87383 0.89169 0.0
H99 H 0.34597 0.81122 0.94429 0.0
O100 O 0.44223 0.83972 0.86458 0.0
C101 C 0.3876 0.79159 0.84988 0.0
Co102 Co 0.41228 0.16121 0.10542 0.0
Co103 Co 0.42021 0.10899 0.10394 0.0
C104 C 0.40474 0.13234 0.99245 0.0
O105 O 0.40579 0.15032 0.02293 0.0
O106 O 0.40988 0.11346 0.01591 0.0
C107 C 0.40301 0.20684 0.07409 0.0
O108 O 0.40696 0.20085 0.0172 0.0
C109 C 0.42224 0.05854 0.13461 0.0
C110 C 0.44154 0.06334 0.21987 0.0
C111 C 0.43085 0.0474 0.18591 0.0
N112 N 0.42727 0.0803 0.1398 0.0
N113 N 0.43908 0.08262 0.19049 0.0
C114 C 0.40904 0.04887 0.08325 0.0
H115 H 0.41497 0.05569 0.03891 0.0
H116 H 0.39143 0.05373 0.08838 0.0
H117 H 0.41025 0.03055 0.08309 0.0
C118 C 0.38348 0.14885 0.20627 0.0
N119 N 0.39657 0.14341 0.15904 0.0
N120 N 0.39852 0.12178 0.15624 0.0
C121 C 0.38612 0.11286 0.20124 0.0
C122 C 0.3771 0.12966 0.23595 0.0
C123 C 0.38052 0.17199 0.2292 0.0
H124 H 0.39692 0.18003 0.23447 0.0
H125 H 0.3709 0.18144 0.19494 0.0
H126 H 0.37146 0.17246 0.27349 0.0
O127 O 0.44408 0.16028 0.12185 0.0
O128 O 0.44959 0.12419 0.11377 0.0
H129 H 0.39929 0.08393 0.24399 0.0
H130 H 0.36968 0.08513 0.2433 0.0
C131 C 0.38477 0.08882 0.21611 0.0
H132 H 0.38423 0.07919 0.17305 0.0
H133 H 0.44458 0.09778 0.20709 0.0
O134 O 0.40351 0.1925 0.11658 0.0
C135 C 0.4569 0.14369 0.12201 0.0
Co136 Co 0.09832 0.83534 0.15227 0.0
Co137 Co 0.1505 0.83282 0.13603 0.0
C138 C 0.13153 0.85395 0.2457 0.0
O139 O 0.11251 0.84875 0.22464 0.0
O140 O 0.14949 0.84919 0.21696 0.0
C141 C 0.05703 0.85987 0.15207 0.0
O142 O 0.0698 0.87747 0.15206 0.0
C143 C 0.19922 0.8334 0.09029 0.0
C144 C 0.19316 0.81029 0.0134 0.0
C145 C 0.20924 0.82357 0.03905 0.0
N146 N 0.17791 0.82652 0.09305 0.0
N147 N 0.17482 0.81245 0.04737 0.0
C148 C 0.20943 0.84929 0.13446 0.0
H149 H 0.20394 0.84531 0.1818 0.0
H150 H 0.20363 0.86627 0.12379 0.0
H151 H 0.22777 0.84883 0.13146 0.0
C152 C 0.10291 0.85636 0.02964 0.0
N153 N 0.1113 0.84811 0.0821 0.0
N154 N 0.13306 0.84917 0.07955 0.0
C155 C 0.13901 0.85921 0.0269 0.0
C156 C 0.12025 0.86335 0.99307 0.0
C157 C 0.07936 0.85392 0.00963 0.0
H158 H 0.07436 0.83645 0.0155 0.0
H159 H 0.06865 0.86473 0.03748 0.0
H160 H 0.07689 0.8588 0.96108 0.0
O161 O 0.10205 0.80326 0.15004 0.0
O162 O 0.13862 0.80194 0.14399 0.0
H163 H 0.16852 0.84897 0.98087 0.0
H164 H 0.16305 0.87786 0.97519 0.0
C165 C 0.16225 0.86346 0.00658 0.0
H166 H 0.17283 0.86685 0.0469 0.0
H167 H 0.15968 0.80492 0.03767 0.0
O168 O 0.06589 0.84087 0.15468 0.0
C169 C 0.11992 0.79232 0.14667 0.0
Co170 Co 0.41763 0.84644 0.38056 0.0
Co171 Co 0.42274 0.89895 0.38187 0.0
C172 C 0.40795 0.87649 0.49282 0.0
O173 O 0.40983 0.85862 0.46197 0.0
O174 O 0.41254 0.89548 0.46957 0.0
C175 C 0.38997 0.80672 0.38596 0.0
O176 O 0.37366 0.81993 0.40159 0.0
C177 C 0.42291 0.94902 0.34649 0.0
C178 C 0.44239 0.94387 0.2617 0.0
C179 C 0.43121 0.95984 0.29432 0.0
N180 N 0.42863 0.92739 0.3432 0.0
N181 N 0.44052 0.92486 0.29274 0.0
C182 C 0.40975 0.95898 0.39754 0.0
H183 H 0.41314 0.95005 0.44105 0.0
H184 H 0.39185 0.95737 0.38732 0.0
H185 H 0.4137 0.97682 0.40249 0.0
C186 C 0.39413 0.85822 0.26727 0.0
N187 N 0.4034 0.86337 0.3213 0.0
N188 N 0.40188 0.88483 0.33004 0.0
C189 C 0.38978 0.89367 0.2844 0.0
C190 C 0.38549 0.87733 0.24199 0.0
C191 C 0.3967 0.83642 0.2356 0.0
H192 H 0.40686 0.82484 0.26311 0.0
H193 H 0.38013 0.8292 0.22691 0.0
H194 H 0.4047 0.83895 0.19025 0.0
O195 O 0.44936 0.84803 0.36788 0.0
O196 O 0.4528 0.88453 0.37297 0.0
H197 H 0.39551 0.92659 0.2518 0.0
H198 H 0.36698 0.91889 0.25598 0.0
C199 C 0.38321 0.91743 0.27954 0.0
H200 H 0.38212 0.92487 0.32588 0.0
H201 H 0.44684 0.90976 0.27805 0.0
O202 O 0.40914 0.81459 0.37592 0.0
C203 C 0.46117 0.86533 0.3664 0.0
Co204 Co 0.40361 0.15767 0.62811 0.0
Co205 Co 0.35455 0.17618 0.63975 0.0
C206 C 0.37966 0.1564 0.74716 0.0
O207 O 0.39677 0.15414 0.71375 0.0
O208 O 0.36135 0.16424 0.72615 0.0
C209 C 0.44434 0.13157 0.6409 0.0
O210 O 0.43555 0.12361 0.6914 0.0
C211 C 0.30509 0.17417 0.61596 0.0
C212 C 0.30225 0.20577 0.56584 0.0
C213 C 0.29063 0.18656 0.57874 0.0
N214 N 0.32437 0.18543 0.62187 0.0
N215 N 0.32207 0.20454 0.59317 0.0
C216 C 0.30097 0.15225 0.6456 0.0
H217 H 0.30577 0.15312 0.69469 0.0
H218 H 0.31169 0.13958 0.62384 0.0
H219 H 0.28332 0.14734 0.64165 0.0
C220 C 0.38278 0.13003 0.5373 0.0
N221 N 0.38075 0.14391 0.58471 0.0
N222 N 0.36229 0.15521 0.5791 0.0
C223 C 0.35361 0.15113 0.52339 0.0
C224 C 0.3662 0.13482 0.4956 0.0
C225 C 0.40274 0.11603 0.52604 0.0
H226 H 0.41668 0.12652 0.51035 0.0
H227 H 0.40755 0.10784 0.56959 0.0
H228 H 0.39932 0.10334 0.49048 0.0
O229 O 0.40594 0.18987 0.60605 0.0
O230 O 0.37234 0.20302 0.62526 0.0
H231 H 0.34112 0.16615 0.43933 0.0
H232 H 0.32173 0.16407 0.50052 0.0
C233 C 0.3392 0.16732 0.48982 0.0
H234 H 0.34328 0.18439 0.50413 0.0
H235 H 0.33469 0.21616 0.58799 0.0
O236 O 0.43345 0.1452 0.60832 0.0
C237 C 0.39236 0.20595 0.60947 0.0
Co238 Co 0.08367 0.15253 0.89238 0.0
Co239 Co 0.08219 0.0998 0.89696 0.0
C240 C 0.10188 0.12515 0.00019 0.0
O241 O 0.09693 0.14286 0.97134 0.0
O242 O 0.09764 0.10597 0.9778 0.0
C243 C 0.10747 0.19353 0.86912 0.0
O244 O 0.12505 0.18084 0.86449 0.0
C245 C 0.08978 0.05014 0.86999 0.0
C246 C 0.06169 0.04656 0.80571 0.0
C247 C 0.07994 0.03554 0.82814 0.0
N248 N 0.07805 0.06927 0.86993 0.0
N249 N 0.06111 0.06653 0.83227 0.0
C250 C 0.10971 0.046 0.909 0.0
H251 H 0.11894 0.06162 0.9167 0.0
H252 H 0.12058 0.03322 0.88841 0.0
H253 H 0.1041 0.03986 0.9544 0.0
C254 C 0.10137 0.14191 0.77033 0.0
N255 N 0.09542 0.13596 0.82734 0.0
N256 N 0.09806 0.11446 0.83351 0.0
C257 C 0.10767 0.10656 0.78218 0.0
C258 C 0.10948 0.12355 0.74048 0.0
C259 C 0.09517 0.16332 0.74089 0.0
H260 H 0.07881 0.16848 0.75877 0.0
H261 H 0.10781 0.176 0.75161 0.0
H262 H 0.09407 0.16179 0.69024 0.0
O263 O 0.05209 0.14837 0.89269 0.0
O264 O 0.05052 0.11169 0.89755 0.0
H265 H 0.09994 0.07329 0.75882 0.0
H266 H 0.12685 0.08211 0.734 0.0
C267 C 0.11458 0.08324 0.7718 0.0
H268 H 0.12201 0.07659 0.81437 0.0
H269 H 0.04959 0.07878 0.82203 0.0
O270 O 0.0888 0.1849 0.88132 0.0
C271 C 0.04107 0.13057 0.89407 0.0
Co272 Co 0.91093 0.82592 0.66497 0.0
Co273 Co 0.85851 0.82585 0.65209 0.0
C274 C 0.8786 0.84655 0.7595 0.0
O275 O 0.89749 0.84097 0.73778 0.0
O276 O 0.86041 0.84188 0.73201 0.0
C277 C 0.95057 0.85252 0.66086 0.0
O278 O 0.93722 0.86854 0.67774 0.0
C279 C 0.80982 0.82934 0.61015 0.0
C280 C 0.81367 0.80691 0.53063 0.0
C281 C 0.79861 0.82052 0.55957 0.0
N282 N 0.83076 0.82145 0.60984 0.0
N283 N 0.83262 0.80793 0.56243 0.0
C284 C 0.80095 0.84506 0.65692 0.0
H285 H 0.8085 0.84158 0.70234 0.0
H286 H 0.80552 0.86218 0.64369 0.0
H287 H 0.78263 0.84393 0.65965 0.0
C288 C 0.90556 0.84232 0.53952 0.0
N289 N 0.89741 0.83696 0.59479 0.0
N290 N 0.87616 0.84145 0.59615 0.0
C291 C 0.8705 0.8518 0.54391 0.0
C292 C 0.88878 0.85209 0.50598 0.0
C293 C 0.9275 0.8347 0.51552 0.0
H294 H 0.93477 0.82188 0.54582 0.0
H295 H 0.93895 0.84891 0.51212 0.0
H296 H 0.92553 0.82784 0.46861 0.0
O297 O 0.90642 0.79396 0.6665 0.0
O298 O 0.86976 0.79456 0.6582 0.0
H299 H 0.8384 0.8482 0.50334 0.0
H300 H 0.84938 0.87564 0.50013 0.0
C301 C 0.84799 0.86066 0.52937 0.0
H302 H 0.83904 0.86482 0.57227 0.0
H303 H 0.84722 0.79973 0.55072 0.0
O304 O 0.94317 0.83286 0.65692 0.0
C305 C 0.88797 0.784 0.66202 0.0
Co306 Co 0.92341 0.15719 0.40806 0.0
Co307 Co 0.92286 0.10455 0.40054 0.0
C308 C 0.90448 0.12692 0.5088 0.0
O309 O 0.90983 0.14531 0.48408 0.0
O310 O 0.90838 0.10833 0.48274 0.0
C311 C 0.8973 0.1971 0.40567 0.0
O312 O 0.88097 0.18397 0.4217 0.0
C313 C 0.91406 0.05683 0.35798 0.0
C314 C 0.94537 0.05224 0.30705 0.0
C315 C 0.92506 0.04254 0.31762 0.0
N316 N 0.92711 0.07467 0.36817 0.0
N317 N 0.94596 0.07125 0.33867 0.0
C318 C 0.89108 0.05423 0.38251 0.0
H319 H 0.88555 0.06963 0.40553 0.0
H320 H 0.87959 0.0496 0.34491 0.0
H321 H 0.89076 0.04065 0.41668 0.0
C322 C 0.90584 0.15089 0.28526 0.0
N323 N 0.91129 0.14285 0.34054 0.0
N324 N 0.90658 0.12162 0.34286 0.0
C325 C 0.89571 0.11617 0.29114 0.0
C326 C 0.89581 0.1342 0.25252 0.0
C327 C 0.9132 0.17284 0.26094 0.0
H328 H 0.927 0.17956 0.28879 0.0
H329 H 0.89913 0.18455 0.26191 0.0
H330 H 0.91862 0.17126 0.21246 0.0
O331 O 0.95516 0.1529 0.40548 0.0
O332 O 0.95438 0.11624 0.40018 0.0
H333 H 0.89849 0.08203 0.26996 0.0
H334 H 0.87484 0.09508 0.23604 0.0
C335 C 0.88539 0.09433 0.27768 0.0
H336 H 0.87502 0.0893 0.31712 0.0
H337 H 0.95896 0.08256 0.33674 0.0
O338 O 0.91675 0.1893 0.40009 0.0
C339 C 0.96502 0.13446 0.4008 0.0
Co340 Co 0.59534 0.17284 0.1588 0.0
Co341 Co 0.64759 0.17151 0.14195 0.0
C342 C 0.62783 0.15181 0.25166 0.0
O343 O 0.60899 0.1578 0.23064 0.0
O344 O 0.64598 0.15577 0.223 0.0
C345 C 0.55179 0.15224 0.15012 0.0
O346 O 0.56272 0.13387 0.13932 0.0
C347 C 0.69662 0.16871 0.09959 0.0
C348 C 0.69114 0.18792 0.01442 0.0
C349 C 0.70719 0.17665 0.04672 0.0
N350 N 0.67511 0.17488 0.09739 0.0
N351 N 0.67232 0.18647 0.04653 0.0
C352 C 0.70671 0.1558 0.15087 0.0
H353 H 0.69971 0.16138 0.19534 0.0
H354 H 0.70241 0.13808 0.14511 0.0
H355 H 0.72501 0.15753 0.15093 0.0
C356 C 0.59878 0.15442 0.03313 0.0
N357 N 0.60742 0.1605 0.08739 0.0
N358 N 0.62875 0.15613 0.0873 0.0
C359 C 0.63389 0.1452 0.03551 0.0
C360 C 0.61528 0.14447 -0.00109 0.0
C361 C 0.57659 0.16159 0.01022 0.0
H362 H 0.57272 0.17813 0.0291 0.0
H363 H 0.56382 0.14961 0.02518 0.0
H364 H 0.57621 0.16245 0.95937 0.0
O365 O 0.60139 0.20419 0.15969 0.0
O366 O 0.63794 0.20341 0.14983 0.0
H367 H 0.66511 0.14761 0.98907 0.0
H368 H 0.65438 0.1202 0.99494 0.0
C369 C 0.65623 0.13607 0.01996 0.0
H370 H 0.66611 0.13334 0.06218 0.0
H371 H 0.65724 0.19321 0.03314 0.0
O372 O 0.56242 0.16989 0.16133 0.0
C373 C 0.61981 0.21403 0.15502 0.0
Co374 Co 0.59143 0.85223 0.91353 0.0
Co375 Co 0.58204 0.90363 0.91336 0.0
C376 C 0.6066 0.8797 0.01694 0.0
O377 O 0.60315 0.86088 0.9927 0.0
O378 O 0.60024 0.89769 0.99101 0.0
C379 C 0.61394 0.80917 0.90277 0.0
O380 O 0.6319 0.81927 0.92193 0.0
C381 C 0.59159 0.94846 0.86037 0.0
C382 C 0.55858 0.96373 0.87001 0.0
C383 C 0.57904 0.96671 0.84263 0.0
N384 N 0.5788 0.93493 0.89481 0.0
N385 N 0.55931 0.9446 0.90159 0.0
C386 C 0.615 0.94369 0.84221 0.0
H387 H 0.62002 0.92681 0.8564 0.0
H388 H 0.61715 0.94598 0.79207 0.0
H389 H 0.6261 0.95574 0.86507 0.0
C390 C 0.61534 0.8648 0.80073 0.0
N391 N 0.60478 0.87024 0.85285 0.0
N392 N 0.59513 0.88952 0.8452 0.0
C393 C 0.59642 0.89523 0.78572 0.0
C394 C 0.60975 0.88009 0.75616 0.0
C395 C 0.63036 0.84537 0.79278 0.0
H396 H 0.62056 0.8301 0.78861 0.0
H397 H 0.64142 0.84397 0.8331 0.0
H398 H 0.64063 0.84717 0.75081 0.0
O399 O 0.5584 0.85584 0.9103 0.0
O400 O 0.55171 0.89182 0.91977 0.0
H401 H 0.57294 0.90293 0.71506 0.0
H402 H 0.59025 0.92544 0.73731 0.0
C403 C 0.58094 0.91101 0.75505 0.0
H404 H 0.56792 0.9164 0.78752 0.0
H405 H 0.54589 0.93736 0.92408 0.0
O406 O 0.59601 0.82 0.89801 0.0
C407 C 0.54494 0.87202 0.91419 0.0
Co408 Co 0.90799 0.17392 0.84126 0.0
Co409 Co 0.8555 0.17434 0.85121 0.0
C410 C 0.87619 0.15602 0.74163 0.0
O411 O 0.8948 0.16099 0.76589 0.0
O412 O 0.85772 0.16013 0.7684 0.0
C413 C 0.94774 0.14792 0.85736 0.0
O414 O 0.93364 0.13171 0.86657 0.0
C415 C 0.80641 0.1714 0.8914 0.0
C416 C 0.81085 0.19226 0.9739 0.0
C417 C 0.79542 0.17963 0.94318 0.0
N418 N 0.8276 0.17862 0.8929 0.0
N419 N 0.82977 0.19125 0.94204 0.0
C420 C 0.7971 0.15694 0.84222 0.0
H421 H 0.80419 0.16169 0.7971 0.0
H422 H 0.80187 0.13954 0.85139 0.0
H423 H 0.77876 0.15809 0.84105 0.0
C424 C 0.90104 0.15494 0.96456 0.0
N425 N 0.89376 0.1612 0.90905 0.0
N426 N 0.87244 0.15707 0.90532 0.0
C427 C 0.86597 0.1461 0.95591 0.0
C428 C 0.88371 0.14508 0.99547 0.0
C429 C 0.92258 0.16206 0.99181 0.0
H430 H 0.9275 0.17812 0.97156 0.0
H431 H 0.9354 0.14942 0.98219 0.0
H432 H 0.9213 0.16393 0.04235 0.0
O433 O 0.904 0.20585 0.84466 0.0
O434 O 0.86736 0.20548 0.85176 0.0
H435 H 0.83379 0.1498 -0.00405 0.0
H436 H 0.84393 0.12205 0.99467 0.0
C437 C 0.84311 0.13767 0.96799 0.0
H438 H 0.8343 0.13472 0.92416 0.0
H439 H 0.84456 0.19888 0.9548 0.0
O440 O 0.94045 0.16706 0.84392 0.0
C441 C 0.88568 0.21592 0.85066 0.0
Co442 Co 0.57864 0.15338 0.57899 0.0
Co443 Co 0.58128 0.10106 0.59234 0.0
C444 C 0.59982 0.12227 0.48312 0.0
O445 O 0.59344 0.14071 0.50555 0.0
O446 O 0.59651 0.10387 0.5109 0.0
C447 C 0.60139 0.19505 0.59341 0.0
O448 O 0.61852 0.18233 0.60493 0.0
C449 C 0.58978 0.05317 0.63503 0.0
C450 C 0.56388 0.05304 0.70684 0.0
C451 C 0.58094 0.04061 0.68299 0.0
N452 N 0.57857 0.07253 0.63215 0.0
N453 N 0.56302 0.07196 0.6749 0.0
C454 C 0.6088 0.04717 0.59454 0.0
H455 H 0.61422 0.06168 0.56717 0.0
H456 H 0.62276 0.04075 0.62241 0.0
H457 H 0.60356 0.03374 0.56304 0.0
C458 C 0.59544 0.14889 0.70531 0.0
N459 N 0.59105 0.14065 0.64943 0.0
N460 N 0.59616 0.11951 0.64877 0.0
C461 C 0.60595 0.11424 0.70223 0.0
C462 C 0.60504 0.13242 0.7401 0.0
C463 C 0.58689 0.1705 0.72852 0.0
H464 H 0.571 0.17432 0.70547 0.0
H465 H 0.5991 0.1837 0.7186 0.0
H466 H 0.58419 0.17003 0.77888 0.0
O467 O 0.54708 0.1472 0.58022 0.0
O468 O 0.54922 0.11065 0.58836 0.0
H469 H 0.60208 0.08195 0.74031 0.0
H470 H 0.62888 0.09384 0.75195 0.0
C471 C 0.61515 0.09209 0.71846 0.0
H472 H 0.62131 0.08369 0.67665 0.0
H473 H 0.55226 0.08503 0.68418 0.0
O474 O 0.58295 0.18621 0.57954 0.0
C475 C 0.5379 0.12841 0.58538 0.0
Co476 Co 0.59893 0.83472 0.34174 0.0
Co477 Co 0.65073 0.83292 0.36368 0.0
C478 C 0.6333 0.85203 0.24963 0.0
O479 O 0.61398 0.84714 0.26922 0.0
O480 O 0.65086 0.84772 0.28068 0.0
C481 C 0.55582 0.85655 0.332 0.0
O482 O 0.56686 0.87527 0.3308 0.0
C483 C 0.69972 0.83265 0.40481 0.0
C484 C 0.6933 0.81729 0.4953 0.0
C485 C 0.70999 0.82575 0.45912 0.0
N486 N 0.67777 0.82866 0.40976 0.0
N487 N 0.67437 0.81932 0.46383 0.0
C488 C 0.71045 0.84273 0.34978 0.0
H489 H 0.70245 0.83644 0.30739 0.0
H490 H 0.70799 0.86091 0.35115 0.0
H491 H 0.72848 0.83917 0.3491 0.0
C492 C 0.60144 0.85895 0.46026 0.0
N493 N 0.61057 0.84918 0.41086 0.0
N494 N 0.63228 0.85054 0.41511 0.0
C495 C 0.63749 0.86246 0.46524 0.0
C496 C 0.61828 0.86733 0.49648 0.0
C497 C 0.57771 0.85669 0.47896 0.0
H498 H 0.57334 0.83892 0.48013 0.0
H499 H 0.56695 0.86532 0.44587 0.0
H500 H 0.57454 0.86402 0.52477 0.0
O501 O 0.6033 0.80304 0.34931 0.0
O502 O 0.63975 0.80144 0.35851 0.0
H503 H 0.66602 0.85657 0.52125 0.0
H504 H 0.66054 0.88501 0.50681 0.0
C505 C 0.66042 0.86836 0.48555 0.0
H506 H 0.67201 0.86844 0.44618 0.0
H507 H 0.65878 0.81494 0.48032 0.0
O508 O 0.56639 0.83845 0.33386 0.0
C509 C 0.62096 0.79197 0.35537 0.0
Co510 Co 0.92366 0.84777 0.08634 0.0
Co511 Co 0.92131 0.90041 0.10176 0.0
C512 C 0.90362 0.87865 0.99031 0.0
O513 O 0.90976 0.86014 0.0125 0.0
O514 O 0.90668 0.89693 0.01888 0.0
C515 C 0.90393 0.80378 0.09178 0.0
O516 O 0.88508 0.81431 0.09922 0.0
C517 C 0.90984 0.94793 0.14368 0.0
C518 C 0.94023 0.95365 0.1978 0.0
C519 C 0.92005 0.9629 0.18356 0.0
N520 N 0.92341 0.93026 0.13627 0.0
N521 N 0.94162 0.93429 0.16814 0.0
C522 C 0.88735 0.95008 0.11579 0.0
H523 H 0.88226 0.93433 0.09383 0.0
H524 H 0.8752 0.95501 0.15146 0.0
H525 H 0.88767 0.96336 0.08065 0.0
C526 C 0.90514 0.85068 0.20983 0.0
N527 N 0.9102 0.86 0.15572 0.0
N528 N 0.90656 0.88148 0.15877 0.0
C529 C 0.89731 0.88603 0.21351 0.0
C530 C 0.89682 0.86687 0.24773 0.0
C531 C 0.91273 0.82824 0.22936 0.0
H532 H 0.92895 0.82479 0.20788 0.0
H533 H 0.90051 0.81567 0.21464 0.0
H534 H 0.91452 0.82705 0.27993 0.0
O535 O 0.95469 0.85449 0.09101 0.0
O536 O 0.95353 0.89105 0.09976 0.0
H537 H 0.90706 0.91768 0.24541 0.0
H538 H 0.88175 0.90771 0.27917 0.0
C539 C 0.89156 0.90852 0.23616 0.0
H540 H 0.88179 0.91727 0.20083 0.0
H541 H 0.9549 0.9234 0.17179 0.0
O542 O 0.92159 0.81481 0.08418 0.0
C543 C 0.9643 0.87293 0.09783 0.0
Co544 Co 0.59914 0.67335 0.83684 0.0
Co545 Co 0.6518 0.67489 0.84752 0.0
C546 C 0.63134 0.65646 0.73686 0.0
O547 O 0.61258 0.66087 0.76113 0.0
O548 O 0.64969 0.66088 0.76398 0.0
C549 C 0.55795 0.64844 0.84997 0.0
O550 O 0.57095 0.63136 0.85959 0.0
C551 C 0.70121 0.67249 0.88652 0.0
C552 C 0.69717 0.69397 0.9679 0.0
C553 C 0.71252 0.68125 0.93714 0.0
N554 N 0.67995 0.67954 0.88862 0.0
N555 N 0.67803 0.69252 0.93717 0.0
C556 C 0.71034 0.65766 0.83793 0.0
H557 H 0.70205 0.66106 0.79346 0.0
H558 H 0.70694 0.64021 0.85049 0.0
H559 H 0.72853 0.65986 0.8336 0.0
C560 C 0.60609 0.65383 0.9598 0.0
N561 N 0.61343 0.66059 0.90473 0.0
N562 N 0.63495 0.65735 0.90185 0.0
C563 C 0.64155 0.64649 0.95251 0.0
C564 C 0.62366 0.64467 0.99138 0.0
C565 C 0.5841 0.65994 0.98626 0.0
H566 H 0.57912 0.67632 0.96827 0.0
H567 H 0.5716 0.64739 0.97325 0.0
H568 H 0.58471 0.66071 0.03711 0.0
O569 O 0.60287 0.70523 0.84094 0.0
O570 O 0.63955 0.70595 0.84756 0.0
H571 H 0.67361 0.65148 0.99229 0.0
H572 H 0.66431 0.62342 0.99294 0.0
C573 C 0.66465 0.63884 0.96524 0.0
H574 H 0.67356 0.63578 0.92161 0.0
H575 H 0.66329 0.70011 0.95034 0.0
O576 O 0.5665 0.66717 0.8379 0.0
C577 C 0.62089 0.71579 0.84608 0.0
Co578 Co 0.58232 0.34789 0.10823 0.0
Co579 Co 0.58298 0.40041 0.09641 0.0
C580 C 0.59761 0.37358 0.99196 0.0
O581 O 0.59345 0.35685 0.02594 0.0
O582 O 0.59427 0.39343 0.0109 0.0
C583 C 0.60813 0.3085 0.13235 0.0
O584 O 0.62488 0.32228 0.13582 0.0
C585 C 0.58967 0.44985 0.13088 0.0
C586 C 0.55973 0.45256 0.18863 0.0
C587 C 0.57863 0.46377 0.17222 0.0
N588 N 0.57793 0.43083 0.12523 0.0
N589 N 0.55983 0.43318 0.159 0.0
C590 C 0.61136 0.45429 0.1002 0.0
H591 H 0.6169 0.43964 0.07367 0.0
H592 H 0.62394 0.45904 0.13488 0.0
H593 H 0.60955 0.46848 0.06835 0.0
C594 C 0.60383 0.36028 0.22419 0.0
N595 N 0.59623 0.36525 0.16804 0.0
N596 N 0.60137 0.38585 0.15494 0.0
C597 C 0.61455 0.3937 0.19982 0.0
C598 C 0.61575 0.37807 0.24578 0.0
C599 C 0.5971 0.34036 0.26006 0.0
H600 H 0.58076 0.3345 0.24357 0.0
H601 H 0.60972 0.32721 0.25424 0.0
H602 H 0.59595 0.34422 0.30975 0.0
O603 O 0.55047 0.35189 0.11369 0.0
O604 O 0.55178 0.38831 0.10474 0.0
H605 H 0.61611 0.4286 0.21004 0.0
H606 H 0.64114 0.41465 0.23057 0.0
C607 C 0.62714 0.41487 0.19759 0.0
H608 H 0.63359 0.41752 0.15059 0.0
H609 H 0.54795 0.42094 0.16567 0.0
O610 O 0.58885 0.31585 0.12083 0.0
C611 C 0.54081 0.3705 0.11217 0.0
Co612 Co 0.90896 0.33354 0.33852 0.0
Co613 Co 0.85687 0.33046 0.35503 0.0
C614 C 0.87524 0.35002 0.24282 0.0
O615 O 0.89442 0.3454 0.26403 0.0
O616 O 0.8574 0.34536 0.27233 0.0
C617 C 0.95079 0.35767 0.33648 0.0
O618 O 0.93852 0.37559 0.33343 0.0
C619 C 0.80822 0.33001 0.4013 0.0
C620 C 0.81552 0.30961 0.48322 0.0
C621 C 0.79871 0.32102 0.4544 0.0
N622 N 0.82991 0.32444 0.40021 0.0
N623 N 0.83379 0.31202 0.44906 0.0
C624 C 0.79709 0.34391 0.35372 0.0
H625 H 0.80429 0.34039 0.30789 0.0
H626 H 0.80005 0.36162 0.3641 0.0
H627 H 0.77896 0.34087 0.35348 0.0
C628 C 0.90375 0.35811 0.45603 0.0
N629 N 0.89575 0.3479 0.40582 0.0
N630 N 0.87397 0.34859 0.40755 0.0
C631 C 0.86757 0.36035 0.4568 0.0
C632 C 0.88607 0.36599 0.48999 0.0
C633 C 0.92718 0.35654 0.47791 0.0
H634 H 0.93243 0.33902 0.47631 0.0
H635 H 0.93804 0.36664 0.4485 0.0
H636 H 0.92917 0.36281 0.52538 0.0
O637 O 0.90569 0.30156 0.34714 0.0
O638 O 0.86916 0.2997 0.35178 0.0
H639 H 0.83812 0.35126 0.50503 0.0
H640 H 0.84291 0.38035 0.50176 0.0
C641 C 0.84414 0.36479 0.4751 0.0
H642 H 0.83358 0.36627 0.43379 0.0
H643 H 0.84935 0.3057 0.46036 0.0
O644 O 0.94145 0.33889 0.33579 0.0
C645 C 0.88802 0.29039 0.3515 0.0
Co646 Co 0.90567 0.64664 0.60892 0.0
Co647 Co 0.92119 0.59735 0.58618 0.0
C648 C 0.90055 0.62656 0.48687 0.0
O649 O 0.89894 0.64261 0.52407 0.0
O650 O 0.90843 0.60771 0.50327 0.0
C651 C 0.88667 0.69064 0.60298 0.0
O652 O 0.88006 0.68459 0.5481 0.0
C653 C 0.91186 0.55033 0.6153 0.0
C654 C 0.94596 0.53927 0.63446 0.0
C655 C 0.924 0.53356 0.64421 0.0
N656 N 0.9261 0.56573 0.59357 0.0
N657 N 0.94644 0.55848 0.6034 0.0
C658 C 0.8873 0.55156 0.60637 0.0
H659 H 0.8805 0.56597 0.63149 0.0
H660 H 0.87907 0.53615 0.62216 0.0
H661 H 0.8837 0.55427 0.55701 0.0
C662 C 0.88084 0.62634 0.70473 0.0
N663 N 0.89176 0.62379 0.65184 0.0
N664 N 0.9033 0.6054 0.65377 0.0
C665 C 0.9029 0.59757 0.7116 0.0
C666 C 0.8882 0.61028 0.74505 0.0
C667 C 0.868 0.64665 0.721 0.0
H668 H 0.87942 0.65981 0.73674 0.0
H669 H 0.85895 0.65268 0.67998 0.0
H670 H 0.85613 0.64305 0.75862 0.0
O671 O 0.93869 0.64585 0.62149 0.0
O672 O 0.95006 0.61175 0.59951 0.0
H673 H 0.93222 0.57691 0.70584 0.0
H674 H 0.9325 0.59709 0.76525 0.0
C675 C 0.92182 0.58522 0.74022 0.0
H676 H 0.91571 0.57337 0.77504 0.0
H677 H 0.96069 0.56769 0.59452 0.0
O678 O 0.89667 0.67681 0.63706 0.0
C679 C 0.95406 0.63154 0.61571 0.0
Co680 Co 0.59714 0.33301 0.63334 0.0
Co681 Co 0.649 0.32793 0.64196 0.0
C682 C 0.62455 0.34478 0.74875 0.0
O683 O 0.60724 0.34255 0.71565 0.0
O684 O 0.64387 0.33962 0.72841 0.0
C685 C 0.55882 0.36124 0.62832 0.0
O686 O 0.5722 0.377 0.64678 0.0
C687 C 0.69965 0.32784 0.61463 0.0
C688 C 0.69584 0.31006 0.52651 0.0
C689 C 0.71132 0.32034 0.56303 0.0
N690 N 0.67805 0.32247 0.60743 0.0
N691 N 0.67629 0.31168 0.55492 0.0
C692 C 0.70866 0.34032 0.66821 0.0
H693 H 0.70092 0.33419 0.71116 0.0
H694 H 0.70431 0.35806 0.66345 0.0
H695 H 0.72695 0.33871 0.67071 0.0
C696 C 0.61015 0.35519 0.51946 0.0
N697 N 0.61476 0.34615 0.57418 0.0
N698 N 0.63605 0.3479 0.58511 0.0
C699 C 0.64539 0.35987 0.53978 0.0
C700 C 0.62942 0.36416 0.496 0.0
C701 C 0.58864 0.35253 0.48619 0.0
H702 H 0.57782 0.34034 0.50946 0.0
H703 H 0.58016 0.36873 0.48354 0.0
H704 H 0.59175 0.34702 0.43838 0.0
O705 O 0.59859 0.30119 0.62531 0.0
O706 O 0.63499 0.29736 0.63403 0.0
H707 H 0.67891 0.35517 0.51036 0.0
H708 H 0.67041 0.38343 0.51491 0.0
C709 C 0.66906 0.36705 0.53767 0.0
H710 H 0.6759 0.36807 0.58476 0.0
H711 H 0.66132 0.30624 0.53678 0.0
O712 O 0.56604 0.3417 0.62135 0.0
C713 C 0.61571 0.2891 0.62668 0.0
Co714 Co 0.91177 0.3516 0.90303 0.0
Co715 Co 0.92292 0.40284 0.90216 0.0
C716 C 0.89993 0.37952 0.00919 0.0
O717 O 0.90236 0.36075 0.98385 0.0
O718 O 0.90624 0.39748 0.98294 0.0
C719 C 0.88762 0.30933 0.90909 0.0
O720 O 0.87336 0.31925 0.94527 0.0
C721 C 0.9142 0.44758 0.84785 0.0
C722 C 0.94798 0.46142 0.85022 0.0
C723 C 0.92715 0.46483 0.82542 0.0
N724 N 0.92707 0.43401 0.88196 0.0
N725 N 0.94707 0.44287 0.88442 0.0
C726 C 0.89018 0.44381 0.8347 0.0
H727 H 0.88457 0.42766 0.85315 0.0
H728 H 0.88696 0.44493 0.78471 0.0
H729 H 0.88037 0.45712 0.85679 0.0
C730 C 0.8872 0.36428 0.79441 0.0
N731 N 0.89807 0.37012 0.84547 0.0
N732 N 0.90761 0.38937 0.83669 0.0
C733 C 0.90564 0.39487 0.77719 0.0
C734 C 0.89211 0.37953 0.74917 0.0
C735 C 0.87454 0.34325 0.78708 0.0
H736 H 0.88614 0.32915 0.7824 0.0
H737 H 0.86431 0.34072 0.82863 0.0
H738 H 0.86371 0.34387 0.74598 0.0
O739 O 0.94468 0.35371 0.89303 0.0
O740 O 0.95283 0.38942 0.90278 0.0
H741 H 0.92874 0.40122 0.7044 0.0
H742 H 0.91222 0.4244 0.72599 0.0
C743 C 0.92128 0.40989 0.74425 0.0
H744 H 0.93476 0.41517 0.77526 0.0
H745 H 0.96064 0.43532 0.90544 0.0
O746 O 0.90416 0.31991 0.88809 0.0
C747 C 0.95876 0.36941 0.89485 0.0
Co748 Co 0.91467 0.66476 0.139 0.0
Co749 Co 0.86221 0.67115 0.1256 0.0
C750 C 0.88152 0.65556 0.24198 0.0
O751 O 0.90062 0.65739 0.21738 0.0
O752 O 0.86355 0.66043 0.21336 0.0
C753 C 0.95988 0.65536 0.18236 0.0
O754 O 0.95245 0.65884 0.23818 0.0
C755 C 0.81253 0.67205 0.08896 0.0
C756 C 0.81797 0.68917 0.00047 0.0
C757 C 0.80171 0.67955 0.03596 0.0
N758 N 0.83436 0.67678 0.08371 0.0
N759 N 0.83713 0.68721 0.0309 0.0
C760 C 0.8025 0.66025 0.14237 0.0
H761 H 0.81014 0.66621 0.18562 0.0
H762 H 0.80609 0.64232 0.1384 0.0
H763 H 0.78429 0.66269 0.14359 0.0
C764 C 0.90669 0.63563 0.03515 0.0
N765 N 0.89933 0.64895 0.07984 0.0
N766 N 0.8776 0.65019 0.07711 0.0
C767 C 0.8705 0.63705 0.0314 0.0
C768 C 0.88867 0.62813 0.00217 0.0
C769 C 0.93057 0.63281 0.01872 0.0
H770 H 0.93914 0.64903 0.02008 0.0
H771 H 0.9383 0.62178 0.05296 0.0
H772 H 0.9327 0.62517 0.97283 0.0
O773 O 0.91308 0.6966 0.12319 0.0
O774 O 0.87663 0.70095 0.11998 0.0
H775 H 0.84247 0.6478 0.97942 0.0
H776 H 0.84447 0.61844 0.98768 0.0
C777 C 0.84692 0.63439 0.01182 0.0
H778 H 0.83589 0.63484 0.05235 0.0
H779 H 0.85247 0.69228 0.01427 0.0
O780 O 0.94664 0.65642 0.13708 0.0
C781 C 0.89614 0.70886 0.11787 0.0
Co782 Co 0.58227 0.65724 0.40315 0.0
Co783 Co 0.5831 0.60456 0.39869 0.0
C784 C 0.60326 0.62729 0.50301 0.0
O785 O 0.59721 0.64541 0.47785 0.0
O786 O 0.59937 0.60845 0.47817 0.0
C787 C 0.60672 0.69767 0.38283 0.0
O788 O 0.62339 0.68421 0.37268 0.0
C789 C 0.59001 0.5567 0.35308 0.0
C790 C 0.55837 0.5541 0.30258 0.0
C791 C 0.5782 0.54339 0.31197 0.0
N792 N 0.57784 0.57503 0.36498 0.0
N793 N 0.55878 0.57277 0.33565 0.0
C794 C 0.6128 0.55254 0.37727 0.0
H795 H 0.61876 0.56693 0.40422 0.0
H796 H 0.62425 0.54886 0.33877 0.0
H797 H 0.61261 0.5378 0.40751 0.0
C798 C 0.59855 0.6497 0.27744 0.0
N799 N 0.59311 0.64248 0.3337 0.0
N800 N 0.59819 0.6214 0.33825 0.0
C801 C 0.60937 0.61536 0.28751 0.0
C802 C 0.60918 0.6328 0.24689 0.0
C803 C 0.59086 0.67104 0.25033 0.0
H804 H 0.57484 0.67571 0.27139 0.0
H805 H 0.60336 0.68406 0.2591 0.0
H806 H 0.5887 0.66958 0.19991 0.0
O807 O 0.55067 0.65278 0.40771 0.0
O808 O 0.55157 0.61607 0.40669 0.0
H809 H 0.60911 0.58103 0.26701 0.0
H810 H 0.63336 0.5951 0.24056 0.0
C811 C 0.62118 0.59398 0.27859 0.0
H812 H 0.62997 0.58954 0.3214 0.0
H813 H 0.54628 0.58461 0.33519 0.0
O814 O 0.58795 0.68974 0.39737 0.0
C815 C 0.54087 0.63427 0.40823 0.0
Co816 Co 0.40491 0.34507 0.14994 0.0
Co817 Co 0.35322 0.33351 0.14152 0.0
C818 C 0.37302 0.35665 0.25091 0.0
O819 O 0.3922 0.35518 0.22698 0.0
O820 O 0.35563 0.34942 0.2236 0.0
C821 C 0.44662 0.37093 0.16272 0.0
O822 O 0.43561 0.38578 0.19432 0.0
C823 C 0.30352 0.33411 0.11086 0.0
C824 C 0.30362 0.30408 0.05321 0.0
C825 C 0.29037 0.32167 0.07039 0.0
N826 N 0.32379 0.32459 0.11432 0.0
N827 N 0.32322 0.30629 0.08119 0.0
C828 C 0.29734 0.35476 0.14441 0.0
H829 H 0.302 0.35305 0.19344 0.0
H830 H 0.30693 0.36885 0.12553 0.0
H831 H 0.27934 0.35819 0.14045 0.0
C832 C 0.3948 0.36546 0.0321 0.0
N833 N 0.38778 0.35645 0.0849 0.0
N834 N 0.36679 0.35081 0.07929 0.0
C835 C 0.36022 0.35524 0.0215 0.0
C836 C 0.37777 0.36433 0.98984 0.0
C837 C 0.41834 0.37146 0.0192 0.0
H838 H 0.42889 0.35648 0.02215 0.0
H839 H 0.4239 0.38332 0.05447 0.0
H840 H 0.42024 0.37915 0.97324 0.0
O841 O 0.40518 0.31246 0.14562 0.0
O842 O 0.36933 0.30502 0.14144 0.0
H843 H 0.34018 0.32823 0.9923 0.0
H844 H 0.33721 0.35221 0.94506 0.0
C845 C 0.33955 0.34651 0.99287 0.0
H846 H 0.32533 0.35224 0.01991 0.0
H847 H 0.33676 0.29591 0.07412 0.0
O848 O 0.43678 0.35386 0.14232 0.0
C849 C 0.38939 0.2987 0.14068 0.0
Co850 Co 0.41992 0.65576 0.88603 0.0
Co851 Co 0.42311 0.60361 0.89349 0.0
C852 C 0.40739 0.62795 0.00131 0.0
O853 O 0.41023 0.64529 0.96857 0.0
O854 O 0.41179 0.60853 0.98037 0.0
C855 C 0.39449 0.69645 0.86976 0.0
O856 O 0.37689 0.68373 0.86732 0.0
C857 C 0.4237 0.5531 0.85995 0.0
C858 C 0.43902 0.55946 0.76937 0.0
C859 C 0.43054 0.54279 0.80538 0.0
N860 N 0.42777 0.57506 0.85499 0.0
N861 N 0.4371 0.57831 0.80086 0.0
C862 C 0.41325 0.54245 0.91457 0.0
H863 H 0.42043 0.54947 0.95718 0.0
H864 H 0.39527 0.54623 0.9147 0.0
H865 H 0.41556 0.52424 0.91354 0.0
C866 C 0.39645 0.64323 0.77179 0.0
N867 N 0.40562 0.63871 0.82653 0.0
N868 N 0.40305 0.61758 0.83851 0.0
C869 C 0.39033 0.60844 0.7945 0.0
C870 C 0.38644 0.62421 0.74988 0.0
C871 C 0.40058 0.66402 0.73648 0.0
H872 H 0.41764 0.66978 0.74598 0.0
H873 H 0.38858 0.67687 0.75082 0.0
H874 H 0.39873 0.66139 0.68636 0.0
O875 O 0.45174 0.65288 0.87729 0.0
O876 O 0.45425 0.61647 0.88644 0.0
H877 H 0.39241 0.57467 0.76462 0.0
H878 H 0.36489 0.5846 0.77619 0.0
C879 C 0.382 0.58513 0.79471 0.0
H880 H 0.38219 0.57831 0.84197 0.0
H881 H 0.44146 0.59385 0.78422 0.0
O882 O 0.41347 0.68788 0.87772 0.0
C883 C 0.46324 0.63538 0.87897 0.0
Co884 Co 0.09008 0.67225 0.64385 0.0
Co885 Co 0.14281 0.67387 0.62957 0.0
C886 C 0.12322 0.66151 0.74704 0.0
O887 O 0.1043 0.66448 0.72208 0.0
O888 O 0.1415 0.6649 0.71831 0.0
C889 C 0.04702 0.64977 0.65524 0.0
O890 O 0.05845 0.63172 0.66644 0.0
C891 C 0.19194 0.67245 0.58585 0.0
C892 C 0.18511 0.6883 0.49627 0.0
C893 C 0.20184 0.67895 0.53053 0.0
N894 N 0.17011 0.67748 0.58324 0.0
N895 N 0.1665 0.68711 0.5296 0.0
C896 C 0.20291 0.66146 0.63916 0.0
H897 H 0.1936 0.66493 0.68201 0.0
H898 H 0.20302 0.64332 0.63166 0.0
H899 H 0.22033 0.66713 0.64341 0.0
C900 C 0.09621 0.6413 0.53959 0.0
N901 N 0.10385 0.65409 0.5854 0.0
N902 N 0.12563 0.65299 0.58605 0.0
C903 C 0.13235 0.63863 0.543 0.0
C904 C 0.11419 0.6318 0.51003 0.0
C905 C 0.07302 0.64216 0.51549 0.0
H906 H 0.06168 0.63396 0.54808 0.0
H907 H 0.07143 0.63353 0.4708 0.0
H908 H 0.06799 0.65966 0.51001 0.0
O909 O 0.09419 0.70367 0.62471 0.0
O910 O 0.13071 0.70423 0.61939 0.0
H911 H 0.16211 0.64496 0.49263 0.0
H912 H 0.15744 0.61643 0.5094 0.0
C913 C 0.15597 0.63339 0.52823 0.0
H914 H 0.16628 0.63454 0.57011 0.0
H915 H 0.15096 0.69247 0.51487 0.0
O916 O 0.05723 0.6679 0.64737 0.0
C917 C 0.11217 0.71406 0.61648 0.0
Co918 Co 0.08586 0.34912 0.4038 0.0
Co919 Co 0.08433 0.40196 0.39351 0.0
C920 C 0.10281 0.38046 0.50394 0.0
O921 O 0.09837 0.36179 0.47959 0.0
O922 O 0.09848 0.39884 0.47693 0.0
C923 C 0.11177 0.30843 0.4032 0.0
O924 O 0.12854 0.32099 0.41917 0.0
C925 C 0.09134 0.45062 0.35329 0.0
C926 C 0.06388 0.45143 0.28625 0.0
C927 C 0.08153 0.46362 0.30754 0.0
N928 N 0.08016 0.43122 0.35697 0.0
N929 N 0.06362 0.43229 0.31726 0.0
C930 C 0.11104 0.45637 0.3915 0.0
H931 H 0.11808 0.44131 0.41317 0.0
H932 H 0.12375 0.4649 0.36338 0.0
H933 H 0.10579 0.46798 0.42813 0.0
C934 C 0.10286 0.35561 0.28106 0.0
N935 N 0.0979 0.36354 0.33672 0.0
N936 N 0.10115 0.38505 0.3375 0.0
C937 C 0.11035 0.39107 0.28387 0.0
C938 C 0.11082 0.37285 0.24611 0.0
C939 C 0.09627 0.33318 0.25845 0.0
H940 H 0.08259 0.32636 0.28658 0.0
H941 H 0.11069 0.32195 0.26116 0.0
H942 H 0.09095 0.33394 0.20974 0.0
O943 O 0.05419 0.35292 0.39955 0.0
O944 O 0.05309 0.38962 0.39246 0.0
H945 H 0.1029 0.4232 0.24928 0.0
H946 H 0.13007 0.41347 0.23023 0.0
C947 C 0.11734 0.4139 0.26696 0.0
H948 H 0.12418 0.42237 0.30779 0.0
H949 H 0.05252 0.41947 0.30916 0.0
O950 O 0.09261 0.31688 0.39721 0.0
C951 C 0.04347 0.37082 0.39327 0.0
Co952 Co 0.40553 0.66889 0.36284 0.0
Co953 Co 0.35308 0.67058 0.34986 0.0
C954 C 0.37933 0.65443 0.24608 0.0
O955 O 0.3962 0.65806 0.2802 0.0
O956 O 0.35952 0.65838 0.26491 0.0
C957 C 0.44579 0.64327 0.38584 0.0
O958 O 0.43253 0.62608 0.38838 0.0
C959 C 0.3023 0.66991 0.3782 0.0
C960 C 0.30595 0.68928 0.46372 0.0
C961 C 0.29055 0.67813 0.42887 0.0
N962 N 0.32385 0.67572 0.38432 0.0
N963 N 0.32551 0.68746 0.43534 0.0
C964 C 0.29333 0.65652 0.32629 0.0
H965 H 0.30233 0.66061 0.28334 0.0
H966 H 0.29598 0.63871 0.33604 0.0
H967 H 0.2753 0.65948 0.3206 0.0
C968 C 0.39184 0.64704 0.47824 0.0
N969 N 0.38774 0.6552 0.42207 0.0
N970 N 0.36675 0.65205 0.40888 0.0
C971 C 0.35734 0.64005 0.45402 0.0
C972 C 0.37275 0.63713 0.50001 0.0
C973 C 0.41228 0.65187 0.51435 0.0
H974 H 0.42499 0.63914 0.50449 0.0
H975 H 0.40891 0.65169 0.56441 0.0
H976 H 0.4186 0.66841 0.50119 0.0
O977 O 0.40177 0.7009 0.36761 0.0
O978 O 0.36539 0.70162 0.35411 0.0
H979 H 0.32324 0.64294 0.47967 0.0
H980 H 0.33334 0.61518 0.47663 0.0
C981 C 0.3341 0.63156 0.45367 0.0
H982 H 0.32797 0.63009 0.4059 0.0
H983 H 0.34041 0.69373 0.45216 0.0
O984 O 0.43777 0.66237 0.37551 0.0
C985 C 0.38377 0.71155 0.3622 0.0
Co986 Co 0.10016 0.65364 0.11152 0.0
Co987 Co 0.08585 0.60337 0.09476 0.0
C988 C 0.10475 0.63192 0.99162 0.0
O989 O 0.10658 0.64835 0.02733 0.0
O990 O 0.09709 0.61324 0.00993 0.0
C991 C 0.11686 0.69821 0.09649 0.0
O992 O 0.1212 0.69169 0.0403 0.0
C993 C 0.0931 0.55624 0.1323 0.0
C994 C 0.05881 0.54397 0.12529 0.0
C995 C 0.07938 0.53877 0.14939 0.0
N996 N 0.08088 0.57158 0.10229 0.0
N997 N 0.06058 0.56364 0.09662 0.0
C998 C 0.11717 0.55861 0.14744 0.0
H999 H 0.12382 0.57456 0.1304 0.0
H1000 H 0.11983 0.55696 0.19756 0.0
H1001 H 0.12655 0.54501 0.12537 0.0
C1002 C 0.12559 0.63489 0.20987 0.0
N1003 N 0.11478 0.63165 0.15699 0.0
N1004 N 0.10436 0.61261 0.15938 0.0
C1005 C 0.10518 0.60502 0.21725 0.0
C1006 C 0.11909 0.61854 0.25061 0.0
C1007 C 0.13788 0.65564 0.22514 0.0
H1008 H 0.12605 0.66909 0.23592 0.0
H1009 H 0.14789 0.66077 0.18491 0.0
H1010 H 0.14882 0.65304 0.26543 0.0
O1011 O 0.06706 0.65244 0.12417 0.0
O1012 O 0.05721 0.61737 0.11225 0.0
H1013 H 0.07994 0.59929 0.28539 0.0
H1014 H 0.09443 0.57514 0.261 0.0
C1015 C 0.08731 0.59099 0.24482 0.0
H1016 H 0.07389 0.58808 0.21122 0.0
H1017 H 0.04738 0.57255 0.07808 0.0
O1018 O 0.10899 0.68447 0.13497 0.0
C1019 C 0.05225 0.63738 0.12401 0.0
Co1020 Co 0.09396 0.33024 0.83277 0.0
Co1021 Co 0.14658 0.32967 0.84666 0.0
C1022 C 0.12705 0.34955 0.7375 0.0
O1023 O 0.10809 0.3443 0.7595 0.0
O1024 O 0.14521 0.345 0.76545 0.0
C1025 C 0.05213 0.35345 0.85003 0.0
O1026 O 0.06474 0.37053 0.86281 0.0
C1027 C 0.19549 0.33101 0.89386 0.0
C1028 C 0.18753 0.31268 0.97896 0.0
C1029 C 0.20465 0.32323 0.94911 0.0
N1030 N 0.17377 0.32545 0.89261 0.0
N1031 N 0.1696 0.31423 0.94332 0.0
C1032 C 0.20701 0.34326 0.84362 0.0
H1033 H 0.20174 0.3366 0.79848 0.0
H1034 H 0.20202 0.36091 0.84524 0.0
H1035 H 0.22526 0.34205 0.84851 0.0
C1036 C 0.0996 0.34925 0.957 0.0
N1037 N 0.10731 0.34242 0.9024 0.0
N1038 N 0.12865 0.34652 0.89961 0.0
C1039 C 0.13469 0.35816 0.94929 0.0
C1040 C 0.1167 0.35956 0.98793 0.0
C1041 C 0.07782 0.34245 0.98361 0.0
H1042 H 0.0719 0.32728 0.96056 0.0
H1043 H 0.06558 0.35593 0.97744 0.0
H1044 H 0.07935 0.33924 0.03358 0.0
O1045 O 0.09857 0.29856 0.83364 0.0
O1046 O 0.13521 0.29825 0.84174 0.0
H1047 H 0.16661 0.35615 0.99218 0.0
H1048 H 0.15607 0.38356 0.98395 0.0
C1049 C 0.15736 0.36725 0.96092 0.0
H1050 H 0.16658 0.36909 0.91721 0.0
H1051 H 0.1541 0.30794 0.95427 0.0
O1052 O 0.0611 0.33539 0.83348 0.0
C1053 C 0.11671 0.28817 0.83828 0.0
Co1054 Co 0.42254 0.34486 0.57277 0.0
Co1055 Co 0.4252 0.39743 0.59339 0.0
C1056 C 0.40317 0.37866 0.48313 0.0
O1057 O 0.40877 0.35925 0.50073 0.0
O1058 O 0.40794 0.3961 0.51416 0.0
C1059 C 0.40422 0.29897 0.56154 0.0
O1060 O 0.38511 0.30786 0.5465 0.0
C1061 C 0.4233 0.44609 0.63951 0.0
C1062 C 0.4493 0.44172 0.70996 0.0
C1063 C 0.43413 0.45684 0.68802 0.0
N1064 N 0.43142 0.42526 0.635 0.0
N1065 N 0.44724 0.42323 0.67664 0.0
C1066 C 0.4054 0.45518 0.59944 0.0
H1067 H 0.40836 0.45012 0.55118 0.0
H1068 H 0.38925 0.4481 0.61367 0.0
H1069 H 0.40459 0.47347 0.6029 0.0
C1070 C 0.39784 0.34853 0.69017 0.0
N1071 N 0.4088 0.35739 0.64229 0.0
N1072 N 0.41008 0.37899 0.65016 0.0
C1073 C 0.40009 0.38436 0.70323 0.0
C1074 C 0.39264 0.36528 0.73076 0.0
C1075 C 0.39396 0.32441 0.70009 0.0
H1076 H 0.38453 0.31759 0.66104 0.0
H1077 H 0.38443 0.32128 0.74276 0.0
H1078 H 0.4101 0.31592 0.70328 0.0
O1079 O 0.45448 0.35026 0.57724 0.0
O1080 O 0.45584 0.38677 0.58205 0.0
H1081 H 0.41492 0.41203 0.74803 0.0
H1082 H 0.38646 0.40866 0.76658 0.0
C1083 C 0.39864 0.40724 0.72899 0.0
H1084 H 0.39364 0.41876 0.69217 0.0
H1085 H 0.45607 0.40867 0.68444 0.0
O1086 O 0.42066 0.31158 0.57124 0.0
C1087 C 0.46538 0.36813 0.5798 0.0
C1088 C 0.13084 0.1436 0.06483 0.0
C1089 C 0.11325 0.12799 0.06072 0.0
C1090 C 0.11367 0.12485 0.17292 0.0
C1091 C 0.12723 0.144 0.17685 0.0
N1092 N 0.14834 0.17232 0.12537 0.0
N1093 N 0.08675 0.10463 0.11301 0.0
C1094 C 0.1361 0.15336 0.12254 0.0
C1095 C 0.10461 0.11845 0.11528 0.0
N1096 N 0.14256 0.14902 0.01334 0.0
N1097 N 0.1094 0.11282 0.22467 0.0
H1098 H 0.07927 0.09964 0.07231 0.0
H1099 H 0.07822 0.09945 0.15202 0.0
H1100 H 0.11619 0.1169 0.26724 0.0
H1101 H 0.10122 0.09766 0.22407 0.0
H1102 H 0.15667 0.1589 0.01411 0.0
H1103 H 0.13951 0.14163 0.97088 0.0
H1104 H 0.15289 0.18136 0.08666 0.0
H1105 H 0.1527 0.17986 0.16659 0.0
C1106 C 0.10613 0.89062 0.36359 0.0
C1107 C 0.11503 0.8814 0.41797 0.0
C1108 C 0.14144 0.85941 0.35765 0.0
C1109 C 0.13131 0.86724 0.30323 0.0
N1110 N 0.11068 0.89631 0.25403 0.0
N1111 N 0.14631 0.86434 0.46737 0.0
C1112 C 0.11602 0.88509 0.30637 0.0
C1113 C 0.13461 0.86839 0.41493 0.0
N1114 N 0.08737 0.90319 0.36584 0.0
N1115 N 0.15624 0.84235 0.35539 0.0
H1116 H 0.14164 0.87102 0.50961 0.0
H1117 H 0.16161 0.85639 0.46783 0.0
H1118 H 0.16201 0.83566 0.3144 0.0
H1119 H 0.16192 0.83411 0.39428 0.0
H1120 H 0.07857 0.90795 0.32691 0.0
H1121 H 0.0799 0.90792 0.40686 0.0
H1122 H 0.10089 0.9105 0.25364 0.0
H1123 H 0.118 0.8926 0.21186 0.0
C1124 C 0.37718 0.87585 0.64702 0.0
C1125 C 0.38756 0.85694 0.67344 0.0
C1126 C 0.41481 0.85716 0.59069 0.0
C1127 C 0.40262 0.87354 0.55898 0.0
N1128 N 0.37031 0.89692 0.55385 0.0
N1129 N 0.41233 0.82595 0.65865 0.0
C1130 C 0.38327 0.88259 0.5863 0.0
C1131 C 0.40524 0.84654 0.64177 0.0
N1132 N 0.36222 0.8878 0.68024 0.0
N1133 N 0.43572 0.8518 0.57204 0.0
H1134 H 0.40463 0.81676 0.69305 0.0
H1135 H 0.42396 0.81701 0.63347 0.0
H1136 H 0.4436 0.86012 0.53622 0.0
H1137 H 0.44596 0.84111 0.59663 0.0
H1138 H 0.35585 0.90289 0.66541 0.0
H1139 H 0.35759 0.88358 0.72479 0.0
H1140 H 0.35479 0.90214 0.5689 0.0
H1141 H 0.37447 0.90242 0.50999 0.0
C1142 C 0.37202 0.13335 0.84214 0.0
C1143 C 0.38302 0.1513 0.81309 0.0
C1144 C 0.41116 0.15111 0.89359 0.0
C1145 C 0.39895 0.13507 0.92673 0.0
N1146 N 0.36598 0.11287 0.9367 0.0
N1147 N 0.40975 0.18081 0.81964 0.0
C1148 C 0.37887 0.12662 0.90215 0.0
C1149 C 0.40155 0.16128 0.84169 0.0
N1150 N 0.35566 0.12227 0.81182 0.0
N1151 N 0.43222 0.15636 0.91138 0.0
H1152 H 0.40257 0.18915 0.78269 0.0
H1153 H 0.42203 0.18983 0.84199 0.0
H1154 H 0.44007 0.14853 0.94811 0.0
H1155 H 0.44262 0.16656 0.88579 0.0
H1156 H 0.34875 0.10757 0.82782 0.0
H1157 H 0.34995 0.12707 0.76867 0.0
H1158 H 0.35004 0.10816 0.92399 0.0
H1159 H 0.37073 0.10726 0.98 0.0
C1160 C 0.86855 0.85192 0.87117 0.0
C1161 C 0.87874 0.85985 0.81684 0.0
C1162 C 0.90062 0.8864 0.87683 0.0
C1163 C 0.89141 0.87753 0.93126 0.0
N1164 N 0.86135 0.85809 0.9794 0.0
N1165 N 0.89805 0.8895 0.76601 0.0
C1166 C 0.87341 0.8625 0.92781 0.0
C1167 C 0.89258 0.87884 0.81918 0.0
N1168 N 0.85569 0.83334 0.86974 0.0
N1169 N 0.918 0.9008 0.87998 0.0
H1170 H 0.89199 0.88447 0.72338 0.0
H1171 H 0.90662 0.90444 0.76481 0.0
H1172 H 0.92392 0.9071 0.92131 0.0
H1173 H 0.92722 0.90561 0.84187 0.0
H1174 H 0.85017 0.82528 0.90911 0.0
H1175 H 0.85168 0.82506 0.82937 0.0
H1176 H 0.84693 0.84865 0.97923 0.0
H1177 H 0.86464 0.86585 0.02121 0.0
C1178 C 0.86766 0.15214 0.62841 0.0
C1179 C 0.87722 0.1436 0.68285 0.0
C1180 C 0.90114 0.11902 0.62239 0.0
C1181 C 0.89228 0.12826 0.56792 0.0
N1182 N 0.86202 0.14728 0.51903 0.0
N1183 N 0.89674 0.1137 0.73202 0.0
C1184 C 0.87371 0.14265 0.57112 0.0
C1185 C 0.89178 0.12516 0.67974 0.0
N1186 N 0.85414 0.17023 0.63066 0.0
N1187 N 0.91942 0.10574 0.62004 0.0
H1188 H 0.88973 0.11767 0.77441 0.0
H1189 H 0.90582 0.09906 0.73219 0.0
H1190 H 0.92673 0.10071 0.57908 0.0
H1191 H 0.9282 0.10086 0.6589 0.0
H1192 H 0.84896 0.17878 0.59171 0.0
H1193 H 0.84916 0.17759 0.67158 0.0
H1194 H 0.84726 0.1562 0.519 0.0
H1195 H 0.86594 0.14017 0.47675 0.0
C1196 C 0.63677 0.14769 0.36428 0.0
C1197 C 0.62744 0.13896 0.30981 0.0
C1198 C 0.60407 0.1138 0.37016 0.0
C1199 C 0.61246 0.12343 0.42466 0.0
N1200 N 0.64182 0.14355 0.4742 0.0
N1201 N 0.6084 0.10897 0.26022 0.0
C1202 C 0.63065 0.1383 0.42169 0.0
C1203 C 0.61325 0.12027 0.31277 0.0
N1204 N 0.65013 0.1659 0.36176 0.0
N1205 N 0.58633 0.09982 0.37261 0.0
H1206 H 0.61517 0.11335 0.21782 0.0
H1207 H 0.59962 0.09415 0.25963 0.0
H1208 H 0.57932 0.09445 0.41367 0.0
H1209 H 0.57774 0.09454 0.33386 0.0
H1210 H 0.65507 0.1747 0.40046 0.0
H1211 H 0.6553 0.17301 0.32064 0.0
H1212 H 0.6563 0.15288 0.47473 0.0
H1213 H 0.63774 0.1366 0.51662 0.0
C1214 C 0.61952 0.8835 0.18752 0.0
C1215 C 0.63393 0.86501 0.19171 0.0
C1216 C 0.63796 0.86564 0.08021 0.0
C1217 C 0.61909 0.87965 0.07589 0.0
N1218 N 0.59172 0.9023 0.12708 0.0
N1219 N 0.65787 0.83875 0.14165 0.0
C1220 C 0.61015 0.88924 0.12986 0.0
C1221 C 0.64394 0.85648 0.13804 0.0
N1222 N 0.61444 0.89513 0.23934 0.0
N1223 N 0.64991 0.86096 0.02861 0.0
H1224 H 0.66297 0.83196 0.18326 0.0
H1225 H 0.66343 0.83009 0.10332 0.0
H1226 H 0.64603 0.86788 0.98603 0.0
H1227 H 0.66476 0.85221 0.02927 0.0
H1228 H 0.60543 0.90982 0.23884 0.0
H1229 H 0.62132 0.89121 0.28195 0.0
H1230 H 0.58294 0.90727 0.16584 0.0
H1231 H 0.58427 0.9071 0.08614 0.0
C1232 C 0.60772 0.61909 0.61647 0.0
C1233 C 0.61563 0.62922 0.56195 0.0
C1234 C 0.63916 0.65409 0.62293 0.0
C1235 C 0.63066 0.64445 0.67731 0.0
N1236 N 0.61331 0.6131 0.72545 0.0
N1237 N 0.64419 0.6507 0.51287 0.0
C1238 C 0.6172 0.62525 0.67368 0.0
C1239 C 0.63324 0.64479 0.56523 0.0
N1240 N 0.59008 0.60496 0.61461 0.0
N1241 N 0.65158 0.67293 0.62587 0.0
H1242 H 0.64047 0.64374 0.47027 0.0
H1243 H 0.65829 0.66061 0.51268 0.0
H1244 H 0.65652 0.68006 0.66715 0.0
H1245 H 0.65584 0.68223 0.58738 0.0
H1246 H 0.58195 0.59936 0.65381 0.0
H1247 H 0.58247 0.59999 0.57406 0.0
H1248 H 0.60518 0.59791 0.72508 0.0
H1249 H 0.62033 0.61717 0.76775 0.0
C1250 C 0.63085 0.3704 0.84076 0.0
C1251 C 0.62056 0.35158 0.81386 0.0
C1252 C 0.59291 0.35172 0.89599 0.0
C1253 C 0.60461 0.36858 0.92751 0.0
N1254 N 0.6372 0.39159 0.93389 0.0
N1255 N 0.59586 0.32059 0.82753 0.0
C1256 C 0.6243 0.37735 0.90103 0.0
C1257 C 0.60287 0.3411 0.84527 0.0
N1258 N 0.64618 0.38214 0.80827 0.0
N1259 N 0.57184 0.34628 0.9132 0.0
H1260 H 0.6036 0.31167 0.79261 0.0
H1261 H 0.58422 0.31148 0.85223 0.0
H1262 H 0.56334 0.35462 0.94787 0.0
H1263 H 0.56197 0.33538 0.88819 0.0
H1264 H 0.65244 0.39729 0.82293 0.0
H1265 H 0.65141 0.37756 0.76451 0.0
H1266 H 0.65284 0.39666 0.91943 0.0
H1267 H 0.63305 0.39696 0.97784 0.0
C1268 C 0.89839 0.38783 0.12312 0.0
C1269 C 0.88828 0.37938 0.0694 0.0
C1270 C 0.86388 0.35586 0.13184 0.0
C1271 C 0.87496 0.36328 0.18523 0.0
N1272 N 0.89588 0.3924 0.23343 0.0
N1273 N 0.85605 0.36256 0.02422 0.0
C1274 C 0.88982 0.38147 0.18125 0.0
C1275 C 0.86906 0.36593 0.0746 0.0
N1276 N 0.91707 0.40048 0.11928 0.0
N1277 N 0.84973 0.33829 0.13464 0.0
H1278 H 0.85942 0.37011 0.98212 0.0
H1279 H 0.84092 0.35432 0.0259 0.0
H1280 H 0.84537 0.33057 0.17561 0.0
H1281 H 0.84336 0.33053 0.09581 0.0
H1282 H 0.92666 0.40461 0.15731 0.0
H1283 H 0.92377 0.40582 0.07784 0.0
H1284 H 0.9053 0.40683 0.23316 0.0
H1285 H 0.88942 0.38828 0.27639 0.0
C1286 C 0.89537 0.6619 0.34623 0.0
C1287 C 0.88165 0.64917 0.30748 0.0
C1288 C 0.87926 0.62056 0.3875 0.0
C1289 C 0.89561 0.63204 0.42188 0.0
N1290 N 0.9233 0.66092 0.42491 0.0
N1291 N 0.86212 0.61515 0.28772 0.0
C1292 C 0.90484 0.65194 0.3985 0.0
C1293 C 0.87387 0.62815 0.32718 0.0
N1294 N 0.89944 0.68359 0.33264 0.0
N1295 N 0.86845 0.60297 0.41288 0.0
H1296 H 0.8574 0.62049 0.24413 0.0
H1297 H 0.85817 0.59872 0.29697 0.0
H1298 H 0.87212 0.59693 0.45652 0.0
H1299 H 0.85482 0.59542 0.39241 0.0
H1300 H 0.90784 0.6942 0.36225 0.0
H1301 H 0.89229 0.69148 0.29489 0.0
H1302 H 0.9318 0.67432 0.4062 0.0
H1303 H 0.93157 0.65343 0.46141 0.0
C1304 C 0.39535 0.39207 0.37496 0.0
C1305 C 0.38902 0.37971 0.42733 0.0
C1306 C 0.36433 0.35677 0.36449 0.0
C1307 C 0.37211 0.3679 0.31151 0.0
N1308 N 0.38726 0.40131 0.2689 0.0
N1309 N 0.36114 0.35712 0.47546 0.0
C1310 C 0.38482 0.38751 0.31804 0.0
C1311 C 0.37119 0.36444 0.42311 0.0
N1312 N 0.41244 0.4068 0.37807 0.0
N1313 N 0.35189 0.33803 0.35919 0.0
H1314 H 0.36571 0.36289 0.51881 0.0
H1315 H 0.34697 0.34731 0.4754 0.0
H1316 H 0.34594 0.33219 0.31743 0.0
H1317 H 0.34834 0.32768 0.39614 0.0
H1318 H 0.41947 0.41416 0.33947 0.0
H1319 H 0.42053 0.41075 0.41879 0.0
H1320 H 0.39496 0.41669 0.27161 0.0
H1321 H 0.37948 0.39818 0.22699 0.0
C1322 C 0.41166 0.64904 0.09877 0.0
C1323 C 0.40064 0.63188 0.06664 0.0
C1324 C 0.37483 0.62835 0.15403 0.0
C1325 C 0.3842 0.64758 0.18136 0.0
N1326 N 0.40742 0.67976 0.16813 0.0
N1327 N 0.36927 0.60725 0.0603 0.0
C1328 C 0.40137 0.65897 0.15011 0.0
C1329 C 0.38153 0.62199 0.09334 0.0
N1330 N 0.43238 0.65554 0.08121 0.0
N1331 N 0.36021 0.6157 0.18645 0.0
H1332 H 0.37361 0.60222 0.01619 0.0
H1333 H 0.35395 0.60135 0.0749 0.0
H1334 H 0.35501 0.61975 0.23064 0.0
H1335 H 0.35465 0.60034 0.17135 0.0
H1336 H 0.44186 0.66673 0.10639 0.0
H1337 H 0.44106 0.64775 0.04593 0.0
H1338 H 0.41858 0.68944 0.14342 0.0
H1339 H 0.39934 0.68829 0.2032 0.0
C1340 C 0.09892 0.65633 0.9025 0.0
C1341 C 0.1089 0.63688 0.92606 0.0
C1342 C 0.13085 0.63372 0.83162 0.0
C1343 C 0.12259 0.65462 0.8122 0.0
N1344 N 0.1037 0.68844 0.83817 0.0
N1345 N 0.13697 0.60869 0.91729 0.0
C1346 C 0.10827 0.66677 0.85086 0.0
C1347 C 0.12564 0.62594 0.89186 0.0
N1348 N 0.08007 0.66455 0.92871 0.0
N1349 N 0.1428 0.62091 0.79209 0.0
H1350 H 0.1333 0.60241 0.96069 0.0
H1351 H 0.15091 0.60165 0.89704 0.0
H1352 H 0.14721 0.62614 0.74819 0.0
H1353 H 0.14709 0.60457 0.8015 0.0
H1354 H 0.07115 0.67769 0.91002 0.0
H1355 H 0.072 0.65665 0.965 0.0
H1356 H 0.0948 0.69859 0.86793 0.0
H1357 H 0.1109 0.6968 0.80128 0.0
C1358 C 0.11231 0.38108 0.6761 0.0
C1359 C 0.12689 0.36267 0.67971 0.0
C1360 C 0.13299 0.36542 0.56906 0.0
C1361 C 0.11432 0.37958 0.56416 0.0
N1362 N 0.08603 0.40136 0.61376 0.0
N1363 N 0.15136 0.33701 0.6285 0.0
C1364 C 0.10423 0.38804 0.61791 0.0
C1365 C 0.1378 0.35507 0.62612 0.0
N1366 N 0.10613 0.39177 0.72859 0.0
N1367 N 0.1458 0.36163 0.51851 0.0
H1368 H 0.15534 0.32887 0.66914 0.0
H1369 H 0.15752 0.32918 0.58952 0.0
H1370 H 0.14263 0.36928 0.47644 0.0
H1371 H 0.16066 0.35289 0.51994 0.0
H1372 H 0.09696 0.40636 0.72873 0.0
H1373 H 0.11222 0.38726 0.77166 0.0
H1374 H 0.07633 0.40564 0.65145 0.0
H1375 H 0.07984 0.40716 0.57215 0.0
C1376 C 0.10723 0.11479 0.56869 0.0
C1377 C 0.12151 0.1322 0.55103 0.0
C1378 C 0.13367 0.13628 0.65683 0.0
C1379 C 0.11603 0.12258 0.67561 0.0
N1380 N 0.08374 0.1008 0.64936 0.0
N1381 N 0.14497 0.16285 0.58116 0.0
C1382 C 0.10234 0.11197 0.63168 0.0
C1383 C 0.1342 0.14369 0.59557 0.0
N1384 N 0.09807 0.1013 0.52532 0.0
N1385 N 0.14931 0.14291 0.69814 0.0
H1386 H 0.14404 0.1702 0.53811 0.0
H1387 H 0.15268 0.17278 0.61386 0.0
H1388 H 0.14918 0.13766 0.74379 0.0
H1389 H 0.16348 0.15164 0.68541 0.0
H1390 H 0.08894 0.08722 0.53631 0.0
H1391 H 0.10142 0.10305 0.47858 0.0
H1392 H 0.07205 0.09489 0.61828 0.0
H1393 H 0.07888 0.09913 0.69496 0.0
C1394 C 0.12412 0.88751 0.83313 0.0
C1395 C 0.11318 0.87059 0.79977 0.0
C1396 C 0.11251 0.84744 0.89048 0.0
C1397 C 0.11959 0.86568 0.92604 0.0
N1398 N 0.12931 0.9043 0.93282 0.0
N1399 N 0.09063 0.83747 0.80288 0.0
C1400 C 0.12467 0.88614 0.89792 0.0
C1401 C 0.10562 0.85128 0.8299 0.0
N1402 N 0.1343 0.90453 0.80309 0.0
N1403 N 0.11218 0.82655 0.91441 0.0
H1404 H 0.08331 0.84084 0.76058 0.0
H1405 H 0.08347 0.82417 0.82601 0.0
H1406 H 0.11787 0.8229 0.95846 0.0
H1407 H 0.10851 0.81267 0.88795 0.0
H1408 H 0.14407 0.91624 0.82536 0.0
H1409 H 0.13475 0.90572 0.75535 0.0
H1410 H 0.13091 0.92013 0.91442 0.0
H1411 H 0.12986 0.90379 0.98066 0.0
C1412 C 0.35966 0.86237 0.09323 0.0
C1413 C 0.37358 0.87383 0.05134 0.0
C1414 C 0.39321 0.89113 0.1352 0.0
C1415 C 0.37908 0.88006 0.17743 0.0
N1416 N 0.34456 0.86134 0.19604 0.0
N1417 N 0.39953 0.90331 0.03191 0.0
C1418 C 0.36059 0.86806 0.15601 0.0
C1419 C 0.38836 0.89017 0.07241 0.0
N1420 N 0.3475 0.84452 0.07493 0.0
N1421 N 0.41253 0.90098 0.15195 0.0
H1422 H 0.39628 0.90309 0.98486 0.0
H1423 H 0.41102 0.91515 0.04621 0.0
H1424 H 0.41905 0.90074 0.19617 0.0
H1425 H 0.41905 0.90074 0.19617 0.0
H1426 H 0.33899 0.83435 0.10549 0.0
H1427 H 0.3477 0.83846 0.03036 0.0
H1428 H 0.32985 0.85393 0.18178 0.0
H1429 H 0.34509 0.86523 0.24269 0.0
C1430 C 0.39203 0.13592 0.33972 0.0
C1431 C 0.37443 0.1282 0.30266 0.0
C1432 C 0.35219 0.12139 0.39405 0.0
C1433 C 0.36862 0.13239 0.429 0.0
N1434 N 0.40012 0.1573 0.42925 0.0
N1435 N 0.33691 0.1152 0.29245 0.0
C1436 C 0.38742 0.14176 0.40034 0.0
C1437 C 0.35419 0.12127 0.32914 0.0
N1438 N 0.41309 0.13773 0.31732 0.0
N1439 N 0.33489 0.11116 0.42277 0.0
H1440 H 0.33818 0.11461 0.24473 0.0
H1441 H 0.32104 0.11209 0.30903 0.0
H1442 H 0.33286 0.11141 0.47032 0.0
H1443 H 0.32349 0.10122 0.39994 0.0
H1444 H 0.42653 0.14181 0.34516 0.0
H1445 H 0.41756 0.13274 0.27328 0.0
H1446 H 0.41289 0.16573 0.40709 0.0
H1447 H 0.39631 0.16371 0.47235 0.0
C1448 C 0.87653 0.85075 0.33588 0.0
C1449 C 0.89354 0.86479 0.31416 0.0
C1450 C 0.90438 0.87346 0.419 0.0
C1451 C 0.8893 0.85734 0.44031 0.0
N1452 N 0.86527 0.82635 0.41751 0.0
N1453 N 0.92659 0.88654 0.33705 0.0
C1454 C 0.87635 0.84484 0.39852 0.0
C1455 C 0.90822 0.87534 0.35576 0.0
N1456 N 0.8606 0.84308 0.29679 0.0
N1457 N 0.91571 0.88662 0.45909 0.0
H1458 H 0.93195 0.88758 0.29165 0.0
H1459 H 0.93195 0.88758 0.29165 0.0
H1460 H 0.91281 0.88643 0.50628 0.0
H1461 H 0.92711 0.89848 0.44441 0.0
H1462 H 0.84665 0.8345 0.31183 0.0
H1463 H 0.86022 0.84711 0.25024 0.0
H1464 H 0.8574 0.81555 0.38733 0.0
H1465 H 0.86597 0.82038 0.46231 0.0
C1466 C 0.90263 0.12154 0.14477 0.0
C1467 C 0.89038 0.1346 0.18702 0.0
C1468 C 0.87218 0.15377 0.10292 0.0
C1469 C 0.8834 0.1397 0.06102 0.0
N1470 N 0.90709 0.10827 0.04183 0.0
N1471 N 0.85957 0.15893 0.20718 0.0
C1472 C 0.8975 0.1227 0.0821 0.0
C1473 C 0.87378 0.14929 0.16633 0.0
N1474 N 0.92005 0.10862 0.16197 0.0
N1475 N 0.86162 0.17243 0.08296 0.0
H1476 H 0.86028 0.15592 0.2543 0.0
H1477 H 0.84584 0.16816 0.19371 0.0
H1478 H 0.86111 0.17721 0.03713 0.0
H1479 H 0.8553 0.18438 0.11258 0.0
H1480 H 0.92634 0.10763 0.20644 0.0
H1481 H 0.92634 0.10763 0.20644 0.0
H1482 H 0.9178 0.09572 0.05609 0.0
H1483 H 0.90353 0.10828 0.99497 0.0
C1484 C 0.62589 0.14786 0.82793 0.0
C1485 C 0.60936 0.13329 0.80631 0.0
C1486 C 0.59991 0.12305 0.91139 0.0
C1487 C 0.61446 0.13963 0.93284 0.0
N1488 N 0.63676 0.17192 0.91047 0.0
N1489 N 0.57826 0.1089 0.82953 0.0
C1490 C 0.62644 0.15309 0.89099 0.0
C1491 C 0.59584 0.12133 0.84808 0.0
N1492 N 0.64101 0.15673 0.78825 0.0
N1493 N 0.58913 0.10942 0.9515 0.0
H1494 H 0.57286 0.10762 0.78422 0.0
H1495 H 0.57286 0.10762 0.78422 0.0
H1496 H 0.59184 0.10981 -0.00123 0.0
H1497 H 0.57816 0.09717 0.93684 0.0
H1498 H 0.65469 0.16579 0.80286 0.0
H1499 H 0.64107 0.15321 0.74138 0.0
H1500 H 0.64387 0.18336 0.8806 0.0
H1501 H 0.636 0.17748 0.95557 0.0
C1502 C 0.60446 0.8575 0.66192 0.0
C1503 C 0.61198 0.87732 0.68939 0.0
C1504 C 0.62154 0.89195 0.58845 0.0
C1505 C 0.61701 0.87091 0.56305 0.0
N1506 N 0.61076 0.83177 0.57984 0.0
N1507 N 0.63141 0.91209 0.68034 0.0
C1508 C 0.61062 0.85303 0.60111 0.0
C1509 C 0.62161 0.89427 0.65314 0.0
N1510 N 0.59052 0.84348 0.6924 0.0
N1511 N 0.6253 0.90968 0.55105 0.0
H1512 H 0.6323 0.91398 0.72783 0.0
H1513 H 0.64038 0.9239 0.65596 0.0
H1514 H 0.6254 0.90843 0.5033 0.0
H1515 H 0.62655 0.92583 0.56735 0.0
H1516 H 0.5834 0.82969 0.67159 0.0
H1517 H 0.58397 0.84704 0.73554 0.0
H1518 H 0.60785 0.81821 0.6083 0.0
H1519 H 0.61615 0.82752 0.53596 0.0
C1520 C 0.63382 0.65341 0.10016 0.0
C1521 C 0.62381 0.63902 0.05685 0.0
C1522 C 0.60534 0.61896 0.13906 0.0
C1523 C 0.61617 0.63281 0.18231 0.0
N1524 N 0.64379 0.66056 0.20478 0.0
N1525 N 0.60499 0.60479 0.03523 0.0
C1526 C 0.63171 0.64883 0.16299 0.0
C1527 C 0.61131 0.62057 0.0765 0.0
N1528 N 0.6445 0.67233 0.08361 0.0
N1529 N 0.58813 0.60567 0.15652 0.0
H1530 H 0.60911 0.60564 0.98877 0.0
H1531 H 0.59762 0.58991 0.0481 0.0
H1532 H 0.58219 0.60479 0.2013 0.0
H1533 H 0.57827 0.59709 0.12541 0.0
H1534 H 0.64581 0.67814 0.03872 0.0
H1535 H 0.64581 0.67814 0.03872 0.0
H1536 H 0.65514 0.67272 0.19175 0.0
H1537 H 0.64325 0.65733 0.25181 0.0
C1538 C 0.6434 0.35929 0.38838 0.0
C1539 C 0.63231 0.37241 0.43293 0.0
C1540 C 0.61405 0.39348 0.3526 0.0
C1541 C 0.62487 0.38022 0.30805 0.0
N1542 N 0.65511 0.35609 0.28244 0.0
N1543 N 0.61114 0.40505 0.45767 0.0
C1544 C 0.6416 0.36522 0.32581 0.0
C1545 C 0.61956 0.39089 0.41482 0.0
N1546 N 0.65357 0.33995 0.40452 0.0
N1547 N 0.59727 0.40757 0.33818 0.0
H1548 H 0.61501 0.40376 0.50423 0.0
H1549 H 0.60123 0.41855 0.44586 0.0
H1550 H 0.59092 0.40974 0.29411 0.0
H1551 H 0.59092 0.40974 0.29411 0.0
H1552 H 0.65966 0.32869 0.37255 0.0
H1553 H 0.65412 0.33399 0.44925 0.0
H1554 H 0.6688 0.34635 0.29334 0.0
H1555 H 0.65388 0.3602 0.23603 0.0
C1556 C 0.88003 0.3929 0.64587 0.0
C1557 C 0.88999 0.37631 0.68271 0.0
C1558 C 0.89274 0.35197 0.5951 0.0
C1559 C 0.88614 0.36959 0.55649 0.0
N1560 N 0.87642 0.408 0.54338 0.0
N1561 N 0.9131 0.34357 0.68661 0.0
C1562 C 0.88059 0.39048 0.58126 0.0
C1563 C 0.89847 0.35679 0.65588 0.0
N1564 N 0.86969 0.41056 0.67243 0.0
N1565 N 0.8935 0.33069 0.57414 0.0
H1566 H 0.9195 0.34762 0.72958 0.0
H1567 H 0.92087 0.33008 0.66603 0.0
H1568 H 0.88848 0.32619 0.53011 0.0
H1569 H 0.89679 0.3173 0.60294 0.0
H1570 H 0.86049 0.42206 0.64758 0.0
H1571 H 0.8687 0.41263 0.71986 0.0
H1572 H 0.87446 0.42412 0.55929 0.0
H1573 H 0.87659 0.40663 0.49565 0.0
C1574 C 0.90075 0.63229 0.83413 0.0
C1575 C 0.88963 0.61341 0.81159 0.0
C1576 C 0.88139 0.60178 0.91616 0.0
C1577 C 0.88906 0.62261 0.93682 0.0
N1578 N 0.90017 0.66018 0.91208 0.0
N1579 N 0.86796 0.58056 0.82947 0.0
C1580 C 0.89704 0.63865 0.89493 0.0
C1581 C 0.87959 0.59811 0.85212 0.0
N1582 N 0.91521 0.6439 0.79818 0.0
N1583 N 0.87612 0.58563 0.95747 0.0
H1584 H 0.86662 0.57736 0.78258 0.0
H1585 H 0.8585 0.57007 0.85684 0.0
H1586 H 0.87709 0.58806 0.0048 0.0
H1587 H 0.8724 0.56944 0.94484 0.0
H1588 H 0.92506 0.65664 0.81533 0.0
H1589 H 0.9191 0.63935 0.75335 0.0
H1590 H 0.90415 0.67259 0.88071 0.0
H1591 H 0.89634 0.66621 0.95557 0.0
C1592 C 0.36703 0.37692 0.88449 0.0
C1593 C 0.38034 0.36348 0.92282 0.0
C1594 C 0.40194 0.35149 0.83549 0.0
C1595 C 0.38728 0.36303 0.79613 0.0
N1596 N 0.3523 0.38165 0.78212 0.0
N1597 N 0.40406 0.33127 0.93012 0.0
C1598 C 0.36852 0.37403 0.82029 0.0
C1599 C 0.39577 0.34855 0.89697 0.0
N1600 N 0.35343 0.39264 0.90907 0.0
N1601 N 0.42221 0.34437 0.81582 0.0
H1602 H 0.39861 0.32752 0.97429 0.0
H1603 H 0.41425 0.31922 0.91075 0.0
H1604 H 0.42845 0.34766 0.7722 0.0
H1605 H 0.43383 0.33743 0.84554 0.0
H1606 H 0.34493 0.40415 0.88236 0.0
H1607 H 0.35205 0.39522 0.95624 0.0
H1608 H 0.33744 0.38824 0.79817 0.0
H1609 H 0.35299 0.37958 0.73461 0.0
C1610 C 0.38953 0.60897 0.64281 0.0
C1611 C 0.37751 0.62121 0.68739 0.0
C1612 C 0.35751 0.64066 0.60686 0.0
C1613 C 0.36954 0.62838 0.56251 0.0
N1614 N 0.39067 0.5959 0.5379 0.0
N1615 N 0.34528 0.64273 0.71257 0.0
C1616 C 0.38307 0.61053 0.58067 0.0
C1617 C 0.35957 0.63474 0.66942 0.0
N1618 N 0.4084 0.59784 0.65817 0.0
N1619 N 0.34597 0.65917 0.59052 0.0
H1620 H 0.34673 0.63863 0.75896 0.0
H1621 H 0.33093 0.65142 0.70143 0.0
H1622 H 0.34496 0.66492 0.54561 0.0
H1623 H 0.33899 0.66994 0.62242 0.0
H1624 H 0.41888 0.59069 0.62579 0.0
H1625 H 0.41483 0.59757 0.70234 0.0
H1626 H 0.39936 0.58159 0.54942 0.0
H1627 H 0.3862 0.59702 0.49171 0.0
C1628 C 0.11011 0.64516 0.4032 0.0
C1629 C 0.11536 0.62767 0.4439 0.0
C1630 C 0.12564 0.60443 0.35717 0.0
C1631 C 0.11764 0.62117 0.31739 0.0
N1632 N 0.09348 0.65292 0.30605 0.0
N1633 N 0.12487 0.58939 0.46038 0.0
C1634 C 0.10716 0.64019 0.34127 0.0
C1635 C 0.12214 0.60681 0.42118 0.0
N1636 N 0.10858 0.66659 0.42269 0.0
N1637 N 0.13675 0.58663 0.334 0.0
H1638 H 0.12247 0.59082 0.50764 0.0
H1639 H 0.12783 0.57329 0.44555 0.0
H1640 H 0.13942 0.58443 0.2871 0.0
H1641 H 0.14469 0.57497 0.36149 0.0
H1642 H 0.10627 0.67973 0.39228 0.0
H1643 H 0.11219 0.67158 0.4673 0.0
H1644 H 0.08428 0.66599 0.32415 0.0
H1645 H 0.08933 0.64883 0.26109 0.0
C1646 C 0.13103 0.35843 0.15656 0.0
C1647 C 0.11427 0.37236 0.17974 0.0
C1648 C 0.10249 0.38143 0.07584 0.0
C1649 C 0.11707 0.36506 0.05342 0.0
N1650 N 0.14025 0.33333 0.0753 0.0
N1651 N 0.08133 0.39472 0.1596 0.0
C1652 C 0.13025 0.35238 0.0943 0.0
C1653 C 0.09938 0.38334 0.13942 0.0
N1654 N 0.14741 0.35069 0.19413 0.0
N1655 N 0.09068 0.39452 0.03658 0.0
H1656 H 0.07643 0.39578 0.20537 0.0
H1657 H 0.07643 0.39578 0.20537 0.0
H1658 H 0.09269 0.39396 0.98904 0.0
H1659 H 0.07965 0.40657 0.05216 0.0
H1660 H 0.16106 0.34196 0.17774 0.0
H1661 H 0.14844 0.35488 0.2405 0.0
H1662 H 0.14838 0.32255 0.10506 0.0
H1663 H 0.13797 0.32686 0.0316 0.0
C1664 C 0.26179 0.16327 0.51903 0.0
C1665 C 0.26777 0.18251 0.55337 0.0
C1666 C 0.23586 0.20176 0.50901 0.0
C1667 C 0.22824 0.18196 0.48127 0.0
N1668 N 0.23146 0.1422 0.47571 0.0
N1669 N 0.25509 0.21713 0.59593 0.0
C1670 C 0.24045 0.16217 0.49074 0.0
C1671 C 0.25302 0.20078 0.55312 0.0
N1672 N 0.27645 0.14643 0.51054 0.0
N1673 N 0.22719 0.22171 0.49208 0.0
H1674 H 0.26656 0.21626 0.63168 0.0
H1675 H 0.24367 0.22998 0.60013 0.0
H1676 H 0.21565 0.22334 0.45675 0.0
H1677 H 0.23349 0.23671 0.50798 0.0
H1678 H 0.27351 0.13342 0.48025 0.0
H1679 H 0.29215 0.14626 0.52952 0.0
H1680 H 0.23892 0.12721 0.4872 0.0
H1681 H 0.21557 0.14055 0.45773 0.0
C1682 C 0.07158 0.97708 0.77578 0.0
C1683 C 0.08209 0.97869 0.71734 0.0
C1684 C 0.10056 0.01268 0.75158 0.0
C1685 C 0.0866 0.01345 0.80376 0.0
N1686 N 0.06019 0.99578 0.86946 0.0
N1687 N 0.10596 0.99878 0.64833 0.0
C1688 C 0.07289 0.99516 0.8176 0.0
C1689 C 0.0968 0.99647 0.7053 0.0
N1690 N 0.06028 0.95832 0.79117 0.0
N1691 N 0.11735 0.0276 0.74635 0.0
H1692 H 0.10325 0.98753 0.6129 0.0
H1693 H 0.1148 0.01271 0.63463 0.0
H1694 H 0.12086 0.03875 0.78129 0.0
H1695 H 0.12924 0.02712 0.71176 0.0
H1696 H 0.05426 0.95509 0.83499 0.0
H1697 H 0.05823 0.94514 0.76111 0.0
H1698 H 0.04755 0.98461 0.87906 0.0
H1699 H 0.06199 0.00822 0.90231 0.0
C1700 C 0.24028 0.8458 0.98917 0.0
C1701 C 0.23201 0.82545 0.01268 0.0
C1702 C 0.26188 0.80584 0.95956 0.0
C1703 C 0.27203 0.82621 0.94397 0.0
N1704 N 0.27249 0.86599 0.95357 0.0
N1705 N 0.23829 0.78661 0.03137 0.0
C1706 C 0.26167 0.84637 0.96125 0.0
C1707 C 0.24382 0.80561 0.00105 0.0
N1708 N 0.22747 0.86438 0.99086 0.0
N1709 N 0.26939 0.78662 0.93397 0.0
H1710 H 0.22588 0.78603 0.06464 0.0
H1711 H 0.24764 0.77216 0.02862 0.0
H1712 H 0.28213 0.78632 0.90162 0.0
H1713 H 0.26138 0.7715 0.93961 0.0
H1714 H 0.23183 0.87903 0.96871 0.0
H1715 H 0.21161 0.86459 0.0095 0.0
H1716 H 0.26671 0.88085 0.97167 0.0
H1717 H 0.28805 0.86714 0.93326 0.0
C1718 C 0.40946 0.99266 0.25299 0.0
C1719 C 0.42983 0.98326 0.27273 0.0
C1720 C 0.44989 0.01297 0.21988 0.0
C1721 C 0.42965 0.02387 0.2066 0.0
N1722 N 0.39005 0.02577 0.22109 0.0
N1723 N 0.46919 0.98747 0.28664 0.0
C1724 C 0.40935 0.01418 0.22594 0.0
C1725 C 0.44996 0.99437 0.25965 0.0
N1726 N 0.3903 0.98082 0.25755 0.0
N1727 N 0.46908 0.02013 0.19325 0.0
H1728 H 0.46971 0.97442 0.31797 0.0
H1729 H 0.48403 0.99616 0.28322 0.0
H1730 H 0.46949 0.03324 0.16208 0.0
H1731 H 0.48402 0.01162 0.1968 0.0
H1732 H 0.37548 0.98582 0.23738 0.0
H1733 H 0.38959 0.96518 0.27733 0.0
H1734 H 0.37525 0.02058 0.24101 0.0
H1735 H 0.38917 0.04138 0.20129 0.0
C1736 C 0.74302 0.80455 0.49395 0.0
C1737 C 0.73369 0.82527 0.47795 0.0
C1738 C 0.76742 0.84371 0.51498 0.0
C1739 C 0.77532 0.82317 0.53806 0.0
N1740 N 0.76794 0.78488 0.56141 0.0
N1741 N 0.73544 0.8651 0.48303 0.0
C1742 C 0.76229 0.80384 0.53102 0.0
C1743 C 0.74545 0.84506 0.49103 0.0
N1744 N 0.73373 0.78546 0.47241 0.0
N1745 N 0.78107 0.86169 0.51343 0.0
H1746 H 0.71943 0.86677 0.46579 0.0
H1747 H 0.74237 0.87991 0.4981 0.0
H1748 H 0.79727 0.86133 0.5298 0.0
H1749 H 0.77693 0.87637 0.49119 0.0
H1750 H 0.74103 0.76998 0.47798 0.0
H1751 H 0.72005 0.7854 0.44316 0.0
H1752 H 0.75788 0.77088 0.5624 0.0
H1753 H 0.78143 0.78397 0.59119 0.0
C1754 C 0.90735 0.98378 0.27554 0.0
C1755 C 0.91216 0.98391 0.21193 0.0
C1756 C 0.91664 0.02415 0.21652 0.0
C1757 C 0.91677 0.02312 0.28196 0.0
N1758 N 0.91419 1.001 0.3739 0.0
N1759 N 0.92101 0.00423 0.12051 0.0
C1760 C 0.91218 0.00276 0.31167 0.0
C1761 C 0.9162 0.0042 0.18175 0.0
N1762 N 0.89841 0.9653 0.30129 0.0
N1763 N 0.91714 0.04419 0.18762 0.0
H1764 H 0.91997 0.99 0.09363 0.0
H1765 H 0.927 0.018 0.09709 0.0
H1766 H 0.91801 0.0591 0.21127 0.0
H1767 H 0.91483 0.04615 0.14058 0.0
H1768 H 0.89302 0.96452 0.34664 0.0
H1769 H 0.89394 0.95177 0.27453 0.0
H1770 H 0.91335 0.98598 0.39719 0.0
H1771 H 0.9187 0.01424 0.4018 0.0
C1772 C 0.76314 0.15689 0.98387 0.0
C1773 C 0.77204 0.17751 0.9644 0.0
C1774 C 0.74125 0.19666 0.0145 0.0
C1775 C 0.73079 0.17615 0.02678 0.0
N1776 N 0.73012 0.13656 0.01287 0.0
N1777 N 0.76639 0.21659 0.94843 0.0
C1778 C 0.74126 0.15614 0.00871 0.0
C1779 C 0.76009 0.19726 0.97589 0.0
N1780 N 0.77578 0.13821 0.98124 0.0
N1781 N 0.73347 0.2156 0.04104 0.0
H1782 H 0.77953 0.21748 0.91744 0.0
H1783 H 0.75706 0.23107 0.95099 0.0
H1784 H 0.72025 0.21565 0.07188 0.0
H1785 H 0.74167 0.23072 0.0379 0.0
H1786 H 0.77091 0.12324 0.00071 0.0
H1787 H 0.7919 0.13812 0.9643 0.0
H1788 H 0.73611 0.12185 0.99434 0.0
H1789 H 0.71411 0.13537 0.03039 0.0
C1790 C 0.60151 0.0179 0.75993 0.0
C1791 C 0.58711 0.01864 0.70867 0.0
C1792 C 0.5723 0.98223 0.73667 0.0
C1793 C 0.58388 0.98334 0.79361 0.0
N1794 N 0.60915 0.00247 0.86064 0.0
N1795 N 0.56008 1.00128 0.64427 0.0
C1796 C 0.59878 1.00102 0.80505 0.0
C1797 C 0.57326 1.00043 0.69522 0.0
N1798 N 0.61761 0.03359 0.76546 0.0
N1799 N 0.56024 0.96383 0.72244 0.0
H1800 H 0.56159 0.01379 0.61148 0.0
H1801 H 0.54734 0.9902 0.63513 0.0
H1802 H 0.55794 0.95081 0.75288 0.0
H1803 H 0.55354 0.96076 0.67931 0.0
H1804 H 0.62988 0.03328 0.79895 0.0
H1805 H 0.61996 0.04574 0.73221 0.0
H1806 H 0.61829 0.01615 0.87466 0.0
H1807 H 0.60739 0.99056 0.8949 0.0
C1808 C 0.74507 0.6592 0.979 0.0
C1809 C 0.73609 0.67948 0.95721 0.0
C1810 C 0.76762 0.69932 0.00183 0.0
C1811 C 0.77797 0.67897 0.01685 0.0
N1812 N 0.77816 0.63915 0.00873 0.0
N1813 N 0.74166 0.71819 0.93555 0.0
C1814 C 0.76715 0.65874 0.00251 0.0
C1815 C 0.74826 0.69934 0.96496 0.0
N1816 N 0.73231 0.64057 0.97974 0.0
N1817 N 0.77597 0.7187 0.02423 0.0
H1818 H 0.72806 0.71862 0.90605 0.0
H1819 H 0.75105 0.73264 0.93503 0.0
H1820 H 0.78965 0.71926 0.05346 0.0
H1821 H 0.76792 0.73384 0.0194 0.0
H1822 H 0.73721 0.62595 0.00114 0.0
H1823 H 0.71608 0.64026 0.96356 0.0
H1824 H 0.7719 0.62417 0.99276 0.0
H1825 H 0.79433 0.63812 0.02515 0.0
C1826 C 0.58584 0.52477 0.211 0.0
C1827 C 0.58505 0.52346 0.27628 0.0
C1828 C 0.58925 0.48325 0.26929 0.0
C1829 C 0.58591 0.48427 0.20469 0.0
N1830 N 0.57964 0.5061 0.11399 0.0
N1831 N 0.5838 0.50103 0.36765 0.0
C1832 C 0.58431 0.50509 0.17528 0.0
C1833 C 0.58666 0.50262 0.30558 0.0
N1834 N 0.58768 0.54492 0.18311 0.0
N1835 N 0.59441 0.46354 0.29615 0.0
H1836 H 0.58126 0.51472 0.39578 0.0
H1837 H 0.58209 0.48605 0.39073 0.0
H1838 H 0.59564 0.449 0.27106 0.0
H1839 H 0.59934 0.46198 0.34174 0.0
H1840 H 0.59068 0.5469 0.13638 0.0
H1841 H 0.58803 0.55968 0.20757 0.0
H1842 H 0.57548 0.52066 0.09123 0.0
H1843 H 0.57841 0.49206 0.08647 0.0
C1844 C 0.74482 0.34217 0.52711 0.0
C1845 C 0.73507 0.32176 0.54488 0.0
C1846 C 0.76476 0.30178 0.492 0.0
C1847 C 0.77574 0.32202 0.47935 0.0
N1848 N 0.7784 0.36133 0.49734 0.0
N1849 N 0.7389 0.28238 0.55751 0.0
C1850 C 0.7664 0.34223 0.50039 0.0
C1851 C 0.74612 0.30166 0.53156 0.0
N1852 N 0.73323 0.36142 0.53319 0.0
N1853 N 0.77167 0.2827 0.46437 0.0
H1854 H 0.72565 0.28185 0.58823 0.0
H1855 H 0.7475 0.2675 0.55387 0.0
H1856 H 0.78466 0.28229 0.43282 0.0
H1857 H 0.76301 0.26785 0.46751 0.0
H1858 H 0.7385 0.37637 0.5144 0.0
H1859 H 0.7176 0.36216 0.55315 0.0
H1860 H 0.77332 0.37603 0.51791 0.0
H1861 H 0.7943 0.36204 0.47901 0.0
C1862 C 0.90967 0.5004 0.78849 0.0
C1863 C 0.92183 0.48089 0.77513 0.0
C1864 C 0.92653 0.49343 0.66838 0.0
C1865 C 0.91743 0.51423 0.68377 0.0
N1866 N 0.89512 0.53567 0.75373 0.0
N1867 N 0.94384 0.45972 0.70336 0.0
C1868 C 0.90725 0.51712 0.74232 0.0
C1869 C 0.93051 0.47748 0.71508 0.0
N1870 N 0.90192 0.5036 0.84684 0.0
N1871 N 0.93108 0.4889 0.60826 0.0
H1872 H 0.94756 0.44772 0.7359 0.0
H1873 H 0.95278 0.45778 0.66289 0.0
H1874 H 0.92782 0.50024 0.57324 0.0
H1875 H 0.93567 0.47332 0.5924 0.0
H1876 H 0.89509 0.51827 0.86287 0.0
H1877 H 0.90325 0.49168 0.88125 0.0
H1878 H 0.88538 0.53805 0.79244 0.0
H1879 H 0.8935 0.54842 0.72241 0.0
C1880 C 0.23862 0.34432 0.98691 0.0
C1881 C 0.22752 0.32404 0.97528 0.0
C1882 C 0.25386 0.3053 0.04294 0.0
C1883 C 0.26731 0.3245 0.04574 0.0
N1884 N 0.27388 0.36157 0.00727 0.0
N1885 N 0.22885 0.28415 0.97994 0.0
C1886 C 0.26011 0.34391 0.01423 0.0
C1887 C 0.23648 0.3042 -0.00046 0.0
N1888 N 0.22846 0.36399 0.97472 0.0
N1889 N 0.25737 0.28817 0.08264 0.0
H1890 H 0.21712 0.28258 0.94507 0.0
H1891 H 0.23613 0.26924 0.99306 0.0
H1892 H 0.2691 0.28893 0.11775 0.0
H1893 H 0.24687 0.27451 0.08521 0.0
H1894 H 0.23515 0.37916 0.98785 0.0
H1895 H 0.21243 0.36505 0.95734 0.0
H1896 H 0.27002 0.37504 0.97933 0.0
H1897 H 0.28986 0.36191 0.02456 0.0
C1898 C 0.45098 0.51036 0.76421 0.0
C1899 C 0.43055 0.51928 0.78452 0.0
C1900 C 0.41157 0.48652 0.74315 0.0
C1901 C 0.43164 0.47945 0.71503 0.0
N1902 N 0.46937 0.48813 0.68764 0.0
N1903 N 0.39062 0.51753 0.78327 0.0
C1904 C 0.45103 0.49243 0.72236 0.0
C1905 C 0.41057 0.50783 0.77137 0.0
N1906 N 0.47044 0.51888 0.78565 0.0
N1907 N 0.39376 0.47268 0.74555 0.0
H1908 H 0.38917 0.53304 0.80359 0.0
H1909 H 0.37563 0.5109 0.76843 0.0
H1910 H 0.39395 0.45684 0.72701 0.0
H1911 H 0.37956 0.4762 0.77091 0.0
H1912 H 0.4858 0.51176 0.77645 0.0
H1913 H 0.47098 0.53154 0.81817 0.0
H1914 H 0.48328 0.49832 0.68734 0.0
H1915 H 0.46969 0.47587 0.65396 0.0
C1916 C 0.25531 0.69724 0.45563 0.0
C1917 C 0.2667 0.67698 0.4467 0.0
C1918 C 0.23513 0.6572 0.49271 0.0
C1919 C 0.22523 0.67775 0.50859 0.0
N1920 N 0.22837 0.7174 0.51578 0.0
N1921 N 0.26881 0.6377 0.46543 0.0
C1922 C 0.23608 0.69779 0.49306 0.0
C1923 C 0.25696 0.65691 0.46744 0.0
N1924 N 0.2627 0.71598 0.42712 0.0
N1925 N 0.22343 0.63803 0.49941 0.0
H1926 H 0.28461 0.63671 0.44653 0.0
H1927 H 0.26358 0.62313 0.48643 0.0
H1928 H 0.20746 0.63756 0.51751 0.0
H1929 H 0.22885 0.62287 0.48239 0.0
H1930 H 0.25394 0.73083 0.42727 0.0
H1931 H 0.27635 0.716 0.39776 0.0
H1932 H 0.23682 0.73231 0.51086 0.0
H1933 H 0.21477 0.71838 0.54518 0.0
C1934 C 0.07263 0.52232 0.25469 0.0
C1935 C 0.0836 0.52127 0.19673 0.0
C1936 C 0.10113 0.4864 0.22849 0.0
C1937 C 0.08733 0.48563 0.28103 0.0
N1938 N 0.06062 0.50293 0.3467 0.0
N1939 N 0.10709 0.50137 0.12648 0.0
C1940 C 0.0736 0.50387 0.29537 0.0
C1941 C 0.09785 0.50323 0.18349 0.0
N1942 N 0.06131 0.54097 0.27103 0.0
N1943 N 0.11735 0.47091 0.22171 0.0
H1944 H 0.1047 0.51309 0.09197 0.0
H1945 H 0.11563 0.48742 0.11162 0.0
H1946 H 0.12038 0.45904 0.25523 0.0
H1947 H 0.12922 0.47136 0.1871 0.0
H1948 H 0.05527 0.54388 0.31501 0.0
H1949 H 0.05913 0.55438 0.24181 0.0
H1950 H 0.04789 0.51401 0.35615 0.0
H1951 H 0.06218 0.49032 0.37917 0.0
C1952 C 0.12666 0.25423 0.32391 0.0
C1953 C 0.11662 0.23869 0.36392 0.0
C1954 C 0.10407 0.26885 0.43095 0.0
C1955 C 0.11489 0.28436 0.39227 0.0
N1956 N 0.14036 0.29153 0.30905 0.0
N1957 N 0.10065 0.23063 0.46304 0.0
C1958 C 0.12749 0.27695 0.3411 0.0
C1959 C 0.10662 0.24583 0.41952 0.0
N1960 N 0.13452 0.24743 0.26818 0.0
N1961 N 0.09141 0.2761 0.47892 0.0
H1962 H 0.10284 0.21364 0.4575 0.0
H1963 H 0.09553 0.23486 0.5071 0.0
H1964 H 0.09063 0.29263 0.4923 0.0
H1965 H 0.08077 0.26586 0.50357 0.0
H1966 H 0.13973 0.25826 0.23395 0.0
H1967 H 0.13408 0.23097 0.25395 0.0
H1968 H 0.1517 0.28671 0.27565 0.0
H1969 H 0.14111 0.30835 0.319 0.0
C1970 C 0.99155 0.848 0.67765 0.0
C1971 C 0.9739 0.85737 0.64336 0.0
C1972 C 1.00066 0.87236 0.56901 0.0
C1973 C 0.0183 0.86431 0.60558 0.0
N1974 N 0.03058 0.84932 0.70268 0.0
N1975 N 0.96187 0.88216 0.56274 0.0
C1976 C 0.01379 0.85334 0.66199 0.0
C1977 C 0.97852 0.87077 0.59113 0.0
N1978 N 0.98712 0.83421 0.72585 0.0
N1979 N 0.00496 0.8807 0.51192 0.0
H1980 H 0.94531 0.88092 0.57547 0.0
H1981 H 0.96465 0.89412 0.52921 0.0
H1982 H 0.02092 0.88184 0.49392 0.0
H1983 H 0.99265 0.88456 0.48021 0.0
H1984 H 0.99919 0.82464 0.74733 0.0
H1985 H 0.97117 0.83131 0.74233 0.0
H1986 H 0.02799 0.8436 0.74717 0.0
H1987 H 0.04699 0.8538 0.69467 0.0
C1988 C 0.4018 0.7321 0.81337 0.0
C1989 C 0.3923 0.72083 0.86431 0.0
C1990 C 0.38051 0.75639 0.90763 0.0
C1991 C 0.38805 0.7672 0.85376 0.0
N1992 N 0.40195 0.76512 0.75044 0.0
N1993 N 0.37069 0.72195 0.95759 0.0
C1994 C 0.39753 0.75497 0.80516 0.0
C1995 C 0.38085 0.73288 0.91043 0.0
N1996 N 0.41543 0.72122 0.77358 0.0
N1997 N 0.37428 0.76862 0.95746 0.0
H1998 H 0.37206 0.70494 0.96443 0.0
H1999 H 0.35985 0.72957 0.98812 0.0
H2000 H 0.37453 0.78585 0.95768 0.0
H2001 H 0.37083 0.76183 0.00031 0.0
H2002 H 0.42468 0.72915 0.73977 0.0
H2003 H 0.41928 0.70458 0.7779 0.0
H2004 H 0.40656 0.75659 0.71096 0.0
H2005 H 0.39893 0.78188 0.74283 0.0
C2006 C 0.49323 0.16012 0.08988 0.0
C2007 C 0.48093 0.14717 0.13197 0.0
C2008 C 0.51497 0.13847 0.18848 0.0
C2009 C 0.52715 0.15228 0.14792 0.0
N2010 N 0.52623 0.18162 0.07216 0.0
N2011 N 0.47895 0.1296 0.231 0.0
C2012 C 0.5158 0.16484 0.10248 0.0
C2013 C 0.49147 0.13784 0.18405 0.0
N2014 N 0.48365 0.16724 0.03656 0.0
N2015 N 0.52577 0.12622 0.23188 0.0
H2016 H 0.46171 0.13045 0.231 0.0
H2017 H 0.48555 0.12431 0.27263 0.0
H2018 H 0.5427 0.12767 0.24039 0.0
H2019 H 0.51808 0.11385 0.25747 0.0
H2020 H 0.49258 0.1745 0.00095 0.0
H2021 H 0.46717 0.16408 0.02531 0.0
H2022 H 0.51803 0.19249 0.04279 0.0
H2023 H 0.5423 0.18655 0.08178 0.0
C2024 C 0.10706 0.76008 0.08395 0.0
C2025 C 0.11879 0.76812 0.13584 0.0
C2026 C 0.13096 0.73033 0.15946 0.0
C2027 C 0.11736 0.72217 0.11139 0.0
N2028 N 0.08833 0.72901 0.03749 0.0
N2029 N 0.13908 0.76066 0.2288 0.0
C2030 C 0.10419 0.73697 0.07642 0.0
C2031 C 0.12995 0.75316 0.17536 0.0
N2032 N 0.09959 0.77441 0.03996 0.0
N2033 N 0.14556 0.71649 0.18806 0.0
H2034 H 0.13851 0.77724 0.24194 0.0
H2035 H 0.14544 0.75023 0.2625 0.0
H2036 H 0.14715 0.69989 0.17623 0.0
H2037 H 0.15746 0.72188 0.21919 0.0
H2038 H 0.09306 0.76917 -0.00182 0.0
H2039 H 0.10201 0.79146 0.04197 0.0
H2040 H 0.07676 0.73914 0.01583 0.0
H2041 H 0.08517 0.71219 0.03176 0.0
C2042 C 0.49503 0.86995 0.30063 0.0
C2043 C 0.48528 0.8629 0.35651 0.0
C2044 C 0.52051 0.84663 0.38837 0.0
C2045 C 0.53121 0.85677 0.3372 0.0
N2046 N 0.52857 0.87853 0.24441 0.0
N2047 N 0.48933 0.84762 0.45794 0.0
C2048 C 0.51844 0.86872 0.29348 0.0
C2049 C 0.49819 0.8521 0.40154 0.0
N2050 N 0.48182 0.87659 0.25314 0.0
N2051 N 0.53114 0.83128 0.42376 0.0
H2052 H 0.47298 0.85125 0.46929 0.0
H2053 H 0.49875 0.8423 0.49519 0.0
H2054 H 0.54711 0.82572 0.4158 0.0
H2055 H 0.52313 0.82195 0.45726 0.0
H2056 H 0.48772 0.8799 0.20919 0.0
H2057 H 0.46459 0.87664 0.25593 0.0
H2058 H 0.52064 0.88981 0.21571 0.0
H2059 H 0.54521 0.87607 0.2336 0.0
C2060 C 0.41356 0.24095 0.63025 0.0
C2061 C 0.39935 0.22862 0.59154 0.0
C2062 C 0.39537 0.26081 0.52355 0.0
C2063 C 0.40612 0.27428 0.56781 0.0
N2064 N 0.42745 0.27659 0.66213 0.0
N2065 N 0.37722 0.22608 0.49987 0.0
C2066 C 0.41619 0.26414 0.62021 0.0
C2067 C 0.3905 0.23834 0.53757 0.0
N2068 N 0.42463 0.23044 0.67666 0.0
N2069 N 0.39082 0.26931 0.46677 0.0
H2070 H 0.37491 0.20911 0.50555 0.0
H2071 H 0.36777 0.23284 0.46458 0.0
H2072 H 0.39541 0.28529 0.45387 0.0
H2073 H 0.38481 0.25995 0.43036 0.0
H2074 H 0.43733 0.23767 0.70194 0.0
H2075 H 0.42233 0.21379 0.68727 0.0
H2076 H 0.43128 0.27114 0.70617 0.0
H2077 H 0.43295 0.29256 0.65398 0.0
C2078 C 0.98383 0.15418 0.91314 0.0
C2079 C 0.9719 0.14378 0.86486 0.0
C2080 C 0.00585 0.12427 0.83436 0.0
C2081 C 0.0167 0.13245 0.88755 0.0
N2082 N 0.01437 0.15128 0.98459 0.0
N2083 N 0.97111 0.11705 0.78248 0.0
C2084 C 0.0051 0.14613 0.9292 0.0
C2085 C 0.98271 0.12801 0.82689 0.0
N2086 N 0.97544 0.17231 0.94225 0.0
N2087 N 0.01785 0.11446 0.78871 0.0
H2088 H 0.95471 0.12071 0.77153 0.0
H2089 H 0.97749 0.10354 0.75867 0.0
H2090 H 0.03498 0.11253 0.79077 0.0
H2091 H 0.01121 0.11027 0.7462 0.0
H2092 H 0.98441 0.18151 0.9741 0.0
H2093 H 0.96079 0.17992 0.92913 0.0
H2094 H 0.00574 0.15941 0.01932 0.0
H2095 H 0.02984 0.14534 -0.00183 0.0
C2096 C 0.8999 0.7292 0.58363 0.0
C2097 C 0.88699 0.71444 0.61942 0.0
C2098 C 0.87689 0.74496 0.68838 0.0
C2099 C 0.88795 0.75996 0.64885 0.0
N2100 N 0.9056 0.76696 0.5511 0.0
N2101 N 0.86051 0.70858 0.7005 0.0
C2102 C 0.89828 0.75226 0.59433 0.0
C2103 C 0.87478 0.72238 0.67056 0.0
N2104 N 0.91438 0.72119 0.54079 0.0
N2105 N 0.8689 0.75218 0.74349 0.0
H2106 H 0.85822 0.69217 0.68755 0.0
H2107 H 0.84953 0.71385 0.73429 0.0
H2108 H 0.87015 0.76861 0.75767 0.0
H2109 H 0.8627 0.74164 0.77716 0.0
H2110 H 0.92591 0.7311 0.51824 0.0
H2111 H 0.91649 0.70436 0.53208 0.0
H2112 H 0.911 0.76217 0.50769 0.0
H2113 H 0.90422 0.78407 0.55581 0.0
C2114 C 0.00502 0.1253 0.42202 0.0
C2115 C 0.98871 0.13459 0.38309 0.0
C2116 C 0.01754 0.14804 0.31298 0.0
C2117 C 0.03393 0.13862 0.35162 0.0
N2118 N 0.0432 0.1138 0.43479 0.0
N2119 N 0.97884 0.1493 0.28379 0.0
C2120 C 0.02765 0.12572 0.40344 0.0
C2121 C 0.9948 0.14439 0.32627 0.0
N2122 N 0.99901 0.117 0.47795 0.0
N2123 N 0.0237 0.16052 0.26349 0.0
H2124 H 0.96203 0.14629 0.29097 0.0
H2125 H 0.98232 0.15434 0.23914 0.0
H2126 H 0.04008 0.16194 0.24879 0.0
H2127 H 0.01271 0.1703 0.23858 0.0
H2128 H 0.01032 0.11237 0.51163 0.0
H2129 H 0.98258 0.11625 0.49261 0.0
H2130 H 0.03932 0.10236 0.46885 0.0
H2131 H 0.05996 0.11391 0.42365 0.0
C2132 C 0.60986 0.25049 0.20038 0.0
C2133 C 0.61954 0.23847 0.15164 0.0
C2134 C 0.62411 0.27286 0.09321 0.0
C2135 C 0.61191 0.28436 0.13884 0.0
N2136 N 0.58889 0.28272 0.22955 0.0
N2137 N 0.63156 0.23744 0.04603 0.0
C2138 C 0.60355 0.2728 0.1907 0.0
C2139 C 0.62577 0.24944 0.09664 0.0
N2140 N 0.60694 0.24063 0.25626 0.0
N2141 N 0.63358 0.28415 0.04559 0.0
H2142 H 0.63163 0.22023 0.04552 0.0
H2143 H 0.63402 0.2444 0.00285 0.0
H2144 H 0.63133 0.30105 0.03841 0.0
H2145 H 0.6448 0.27694 0.0153 0.0
H2146 H 0.602 0.24925 0.2953 0.0
H2147 H 0.61168 0.22433 0.26504 0.0
H2148 H 0.58074 0.27434 0.2647 0.0
H2149 H 0.5829 0.29859 0.22239 0.0
C2150 C 0.48687 0.87469 0.84606 0.0
C2151 C 0.47503 0.86066 0.8868 0.0
C2152 C 0.5089 0.85497 0.94759 0.0
C2153 C 0.52091 0.86799 0.90502 0.0
N2154 N 0.52259 0.8862 0.8066 0.0
N2155 N 0.4758 0.8338 0.96901 0.0
C2156 C 0.51023 0.87683 0.85236 0.0
C2157 C 0.48637 0.84962 0.93523 0.0
N2158 N 0.47584 0.88583 0.80077 0.0
N2159 N 0.51876 0.84846 0.00112 0.0
H2160 H 0.45939 0.82939 0.96184 0.0
H2161 H 0.48384 0.82357 0.00033 0.0
H2162 H 0.5352 0.8521 0.01172 0.0
H2163 H 0.51019 0.84117 0.03731 0.0
H2164 H 0.48294 0.89853 0.77513 0.0
H2165 H 0.45918 0.88321 0.79061 0.0
H2166 H 0.51616 0.89082 0.76418 0.0
H2167 H 0.53979 0.88745 0.80852 0.0
C2168 C 0.90066 0.27054 0.9271 0.0
C2169 C 0.88588 0.28525 0.89729 0.0
C2170 C 0.87219 0.25487 0.83317 0.0
C2171 C 0.88583 0.23986 0.86592 0.0
N2172 N 0.90815 0.23268 0.95602 0.0
N2173 N 0.85368 0.29039 0.8334 0.0
C2174 C 0.89879 0.24747 0.91617 0.0
C2175 C 0.87039 0.2771 0.85388 0.0
N2176 N 0.91641 0.27853 0.96628 0.0
N2177 N 0.86161 0.24816 0.78098 0.0
H2178 H 0.85135 0.3064 0.84962 0.0
H2179 H 0.84078 0.28475 0.80584 0.0
H2180 H 0.86296 0.23216 0.76356 0.0
H2181 H 0.85327 0.25899 0.75183 0.0
H2182 H 0.92933 0.26888 0.98324 0.0
H2183 H 0.91743 0.29514 0.97887 0.0
H2184 H 0.91586 0.23735 -0.00326 0.0
H2185 H 0.9061 0.21562 0.95238 0.0
C2186 C 0.50673 0.13797 0.65576 0.0
C2187 C 0.51401 0.1277 0.60072 0.0
C2188 C 0.47596 0.11599 0.57914 0.0
C2189 C 0.46839 0.12894 0.62927 0.0
N2190 N 0.47631 0.15479 0.71081 0.0
N2191 N 0.50563 0.10846 0.50686 0.0
C2192 C 0.48371 0.14057 0.66652 0.0
C2193 C 0.49866 0.11701 0.56158 0.0
N2194 N 0.52181 0.14447 0.69899 0.0
N2195 N 0.4616 0.10216 0.54979 0.0
H2196 H 0.52216 0.10878 0.493 0.0
H2197 H 0.49487 0.10258 0.47331 0.0
H2198 H 0.44519 0.10042 0.56355 0.0
H2199 H 0.46642 0.09083 0.51642 0.0
H2200 H 0.51735 0.14992 0.74261 0.0
H2201 H 0.53884 0.1423 0.69388 0.0
H2202 H 0.48668 0.16565 0.73425 0.0
H2203 H 0.45958 0.15712 0.72079 0.0
C2204 C 0.60643 0.75589 0.31684 0.0
C2205 C 0.61908 0.76755 0.36089 0.0
C2206 C 0.62483 0.73294 0.41788 0.0
C2207 C 0.61001 0.72197 0.37752 0.0
N2208 N 0.58203 0.72512 0.29849 0.0
N2209 N 0.63604 0.76801 0.46126 0.0
C2210 C 0.59938 0.73404 0.32995 0.0
C2211 C 0.62734 0.7563 0.41344 0.0
N2212 N 0.60157 0.76549 0.26165 0.0
N2213 N 0.63607 0.72124 0.4616 0.0
H2214 H 0.63681 0.78519 0.46158 0.0
H2215 H 0.64025 0.76091 0.50323 0.0
H2216 H 0.63332 0.70449 0.47012 0.0
H2217 H 0.64902 0.72792 0.48715 0.0
H2218 H 0.59423 0.75689 0.22556 0.0
H2219 H 0.60708 0.78126 0.24957 0.0
H2220 H 0.57259 0.73406 0.26705 0.0
H2221 H 0.57525 0.70985 0.3093 0.0
C2222 C 0.02007 0.87654 0.17943 0.0
C2223 C 0.03279 0.86235 0.14117 0.0
C2224 C 1.00194 0.86053 0.06851 0.0
C2225 C 0.98841 0.87241 0.10971 0.0
N2226 N 0.9832 0.887 0.21198 0.0
N2227 N 0.03202 0.83482 0.05973 0.0
C2228 C 0.99708 0.87937 0.16719 0.0
C2229 C 0.0227 0.85252 0.08876 0.0
N2230 N 0.02964 0.88668 0.22876 0.0
N2231 N 0.99495 0.85684 0.00978 0.0
H2232 H 0.0459 0.82655 0.07578 0.0
H2233 H 0.02414 0.82633 0.02434 0.0
H2234 H 0.97988 0.86283 0.9932 0.0
H2235 H 0.00514 0.85002 0.97611 0.0
H2236 H 0.02185 0.89923 0.25342 0.0
H2237 H 0.04571 0.88326 0.24345 0.0
H2238 H 0.98834 0.89009 0.25679 0.0
H2239 H 0.96611 0.88812 0.20645 0.0
C2240 C 0.60836 0.77702 0.82974 0.0
C2241 C 0.61449 0.78503 0.88892 0.0
C2242 C 0.62308 0.747 0.9211 0.0
C2243 C 0.61975 0.7397 0.85992 0.0
N2244 N 0.6123 0.74788 0.75398 0.0
N2245 N 0.62806 0.7776 0.99129 0.0
C2246 C 0.61326 0.75476 0.81368 0.0
C2247 C 0.62215 0.77 0.93452 0.0
N2248 N 0.59727 0.79027 0.78922 0.0
N2249 N 0.62582 0.73181 0.9671 0.0
H2250 H 0.62499 0.79369 0.00617 0.0
H2251 H 0.63676 0.76813 0.02312 0.0
H2252 H 0.62612 0.71479 0.95947 0.0
H2253 H 0.62585 0.73583 0.01353 0.0
H2254 H 0.59051 0.7845 0.74831 0.0
H2255 H 0.59261 0.80644 0.79857 0.0
H2256 H 0.61023 0.75864 0.71707 0.0
H2257 H 0.61564 0.73163 0.74077 0.0
C2258 C 0.48532 0.35948 0.18985 0.0
C2259 C 0.47093 0.37289 0.1544 0.0
C2260 C 0.50208 0.38412 0.08927 0.0
C2261 C 0.51675 0.37171 0.12685 0.0
N2262 N 0.52291 0.35321 0.22385 0.0
N2263 N 0.46659 0.40264 0.08181 0.0
C2264 C 0.50855 0.36092 0.18028 0.0
C2265 C 0.47963 0.38674 0.10774 0.0
N2266 N 0.47683 0.34534 0.2328 0.0
N2267 N 0.50924 0.39252 0.03454 0.0
H2268 H 0.45041 0.40558 0.09625 0.0
H2269 H 0.47259 0.41447 0.05125 0.0
H2270 H 0.52533 0.39033 0.01828 0.0
H2271 H 0.49866 0.39976 0.00256 0.0
H2272 H 0.48629 0.33325 0.2546 0.0
H2273 H 0.46004 0.34476 0.24394 0.0
H2274 H 0.51778 0.34714 0.26628 0.0
H2275 H 0.54003 0.35515 0.22089 0.0
C2276 C 0.9 0.25979 0.42145 0.0
C2277 C 0.88952 0.26649 0.36609 0.0
C2278 C 0.88026 0.22784 0.34347 0.0
C2279 C 0.8933 0.22098 0.39442 0.0
N2280 N 0.9166 0.23021 0.48067 0.0
N2281 N 0.87167 0.25707 0.27085 0.0
C2282 C 0.90354 0.23692 0.43288 0.0
C2283 C 0.88002 0.25057 0.32631 0.0
N2284 N 0.90548 0.27525 0.46472 0.0
N2285 N 0.86799 0.21271 0.31161 0.0
H2286 H 0.87128 0.27356 0.25675 0.0
H2287 H 0.86681 0.24607 0.2367 0.0
H2288 H 0.86808 0.19585 0.32135 0.0
H2289 H 0.85636 0.21703 0.27846 0.0
H2290 H 0.9109 0.27126 0.5087 0.0
H2291 H 0.90262 0.29213 0.45912 0.0
H2292 H 0.92687 0.24087 0.50507 0.0
H2293 H 0.91808 0.21373 0.49417 0.0
C2294 C 0.9901 0.64745 0.58007 0.0
C2295 C 0.97729 0.63811 0.62784 0.0
C2296 C 0.00963 0.63867 0.6962 0.0
C2297 C 0.02242 0.64846 0.64857 0.0
N2298 N 0.02259 0.6682 0.55146 0.0
N2299 N 0.97318 0.62856 0.73439 0.0
C2300 C 0.01199 0.6548 0.59253 0.0
C2301 C 0.98657 0.63484 0.68692 0.0
N2302 N 0.9816 0.6486 0.522 0.0
N2303 N 0.01953 0.6331 0.75048 0.0
H2304 H 0.95634 0.62545 0.72871 0.0
H2305 H 0.97822 0.628 0.78002 0.0
H2306 H 0.03567 0.63776 0.76158 0.0
H2307 H 0.01206 0.62332 0.78388 0.0
H2308 H 0.99105 0.65259 0.48356 0.0
H2309 H 0.96552 0.6437 0.51127 0.0
H2310 H 0.01482 0.67503 0.51323 0.0
H2311 H 0.03826 0.67473 0.55841 0.0
C2312 C 0.59195 0.23142 0.6439 0.0
C2313 C 0.60374 0.21951 0.5981 0.0
C2314 C 0.6219 0.25402 0.56648 0.0
C2315 C 0.61278 0.26491 0.61834 0.0
N2316 N 0.59222 0.26273 0.71295 0.0
N2317 N 0.63116 0.21929 0.51738 0.0
C2318 C 0.59871 0.25323 0.65897 0.0
C2319 C 0.61928 0.23073 0.56027 0.0
N2320 N 0.57389 0.22238 0.67192 0.0
N2321 N 0.63168 0.26609 0.52094 0.0
H2322 H 0.6283 0.20268 0.50722 0.0
H2323 H 0.64459 0.22606 0.49397 0.0
H2324 H 0.6324 0.28329 0.52189 0.0
H2325 H 0.63678 0.25935 0.47931 0.0
H2326 H 0.56367 0.23121 0.70163 0.0
H2327 H 0.56738 0.20712 0.65983 0.0
H2328 H 0.5839 0.25409 0.7473 0.0
H2329 H 0.59716 0.27855 0.72615 0.0
C2330 C 0.99304 0.37494 0.83099 0.0
C2331 C 0.98243 0.36453 0.88157 0.0
C2332 C 0.01588 0.34251 0.89994 0.0
C2333 C 0.0276 0.35547 0.85606 0.0
N2334 N 0.02742 0.38464 0.78037 0.0
N2335 N 0.98479 0.34074 0.97008 0.0
C2336 C 0.0162 0.37197 0.82201 0.0
C2337 C 0.9941 0.34887 0.91751 0.0
N2338 N 0.98077 0.38663 0.78939 0.0
N2339 N 0.0252 0.32389 0.92424 0.0
H2340 H 0.96904 0.34528 0.98512 0.0
H2341 H 0.99349 0.33124 0.00184 0.0
H2342 H 0.04065 0.31798 0.91131 0.0
H2343 H 0.01654 0.31282 0.95188 0.0
H2344 H 0.98713 0.39273 0.74832 0.0
H2345 H 0.96364 0.38828 0.7926 0.0
H2346 H 0.02078 0.39882 0.7604 0.0
H2347 H 0.04378 0.38156 0.76766 0.0
C2348 C 0.89123 0.76694 0.05121 0.0
C2349 C 0.90438 0.77916 0.09328 0.0
C2350 C 0.9113 0.74537 0.15249 0.0
C2351 C 0.89923 0.73297 0.10876 0.0
N2352 N 0.88313 0.73095 0.00775 0.0
N2353 N 0.93295 0.77809 0.1714 0.0
C2354 C 0.89063 0.74346 0.0556 0.0
C2355 C 0.91635 0.76783 0.13996 0.0
N2356 N 0.87962 0.77768 0.00634 0.0
N2357 N 0.91724 0.73602 0.20723 0.0
H2358 H 0.93852 0.79387 0.16091 0.0
H2359 H 0.94326 0.76985 0.20221 0.0
H2360 H 0.91349 0.71973 0.21894 0.0
H2361 H 0.9239 0.7451 0.24342 0.0
H2362 H 0.86764 0.76997 0.97946 0.0
H2363 H 0.88127 0.79456 -0.00233 0.0
H2364 H 0.87848 0.73754 0.96553 0.0
H2365 H 0.88396 0.71373 0.00786 0.0
C2366 C 0.48144 0.64905 0.44417 0.0
C2367 C 0.47013 0.64026 0.39238 0.0
C2368 C 0.50557 0.62732 0.35041 0.0
C2369 C 0.51638 0.63424 0.40498 0.0
N2370 N 0.51411 0.64764 0.50868 0.0
N2371 N 0.47105 0.61865 0.29918 0.0
C2372 C 0.50413 0.64385 0.45338 0.0
C2373 C 0.48206 0.62843 0.34678 0.0
N2374 N 0.4708 0.66296 0.48366 0.0
N2375 N 0.5178 0.62117 0.30042 0.0
H2376 H 0.45411 0.62055 0.29171 0.0
H2377 H 0.47852 0.60756 0.26907 0.0
H2378 H 0.53506 0.62081 0.30036 0.0
H2379 H 0.511 0.61835 0.25724 0.0
H2380 H 0.47881 0.67162 0.51846 0.0
H2381 H 0.45441 0.66767 0.47792 0.0
H2382 H 0.50549 0.65244 0.54786 0.0
H2383 H 0.53071 0.64386 0.51698 0.0
C2384 C 0.4148 0.24676 0.06988 0.0
C2385 C 0.39959 0.23045 0.0901 0.0
C2386 C 0.38112 0.25823 0.15372 0.0
C2387 C 0.39415 0.27511 0.12642 0.0
N2388 N 0.41949 0.28521 0.04438 0.0
N2389 N 0.36469 0.22222 0.13886 0.0
C2390 C 0.40998 0.26938 0.08061 0.0
C2391 C 0.38172 0.23659 0.12867 0.0
N2392 N 0.43423 0.24081 0.04235 0.0
N2393 N 0.36861 0.26261 0.2045 0.0
H2394 H 0.36372 0.20689 0.11711 0.0
H2395 H 0.35038 0.2266 0.16269 0.0
H2396 H 0.36863 0.27797 0.22623 0.0
H2397 H 0.36029 0.25031 0.22888 0.0
H2398 H 0.44669 0.25218 0.03226 0.0
H2399 H 0.43898 0.22441 0.0358 0.0
H2400 H 0.42941 0.28134 0.00674 0.0
H2401 H 0.41553 0.30193 0.04676 0.0
C2402 C 0.49938 0.65084 0.91478 0.0
C2403 C 0.48765 0.6375 0.87246 0.0
C2404 C 0.5222 0.63076 0.81582 0.0
C2405 C 0.53347 0.64582 0.85502 0.0
N2406 N 0.53082 0.67453 0.93222 0.0
N2407 N 0.48688 0.61884 0.7748 0.0
C2408 C 0.52149 0.6572 0.90155 0.0
C2409 C 0.4988 0.6284 0.82096 0.0
N2410 N 0.48959 0.65697 0.9687 0.0
N2411 N 0.53373 0.6191 0.77264 0.0
H2412 H 0.46968 0.61797 0.77545 0.0
H2413 H 0.49376 0.61389 0.73321 0.0
H2414 H 0.55043 0.62182 0.76317 0.0
H2415 H 0.52694 0.60593 0.74824 0.0
H2416 H 0.49813 0.66465 0.00431 0.0
H2417 H 0.47352 0.65232 0.98049 0.0
H2418 H 0.52199 0.68464 0.96218 0.0
H2419 H 0.54652 0.68055 0.92267 0.0
C2420 C 0.09619 0.76823 0.5383 0.0
C2421 C 0.11158 0.78295 0.56547 0.0
C2422 C 0.12577 0.75306 0.63001 0.0
C2423 C 0.11167 0.73784 0.59946 0.0
N2424 N 0.08783 0.73021 0.51275 0.0
N2425 N 0.14503 0.78806 0.6239 0.0
C2426 C 0.09801 0.74519 0.55031 0.0
C2427 C 0.12767 0.77495 0.60714 0.0
N2428 N 0.07984 0.7762 0.50104 0.0
N2429 N 0.13657 0.74699 0.68249 0.0
H2430 H 0.14752 0.80372 0.60516 0.0
H2431 H 0.15824 0.78241 0.65035 0.0
H2432 H 0.13481 0.73143 0.7026 0.0
H2433 H 0.14535 0.75814 0.70961 0.0
H2434 H 0.06664 0.76656 0.48584 0.0
H2435 H 0.07868 0.79282 0.48851 0.0
H2436 H 0.07948 0.73469 0.4728 0.0
H2437 H 0.0897 0.71316 0.51745 0.0
C2438 C 0.98471 0.35025 0.40179 0.0
C2439 C 0.97505 0.35964 0.34799 0.0
C2440 C 0.01127 0.37539 0.3212 0.0
C2441 C 0.01954 0.36911 0.3797 0.0
N2442 N 0.01265 0.35438 0.48048 0.0
N2443 N 0.97921 0.38233 0.25734 0.0
C2444 C 0.00575 0.35777 0.42149 0.0
C2445 C 0.9883 0.37282 0.30835 0.0
N2446 N 0.97458 0.33347 0.43299 0.0
N2447 N 0.02552 0.38223 0.2763 0.0
H2448 H 0.96316 0.37897 0.24235 0.0
H2449 H 0.98735 0.39431 0.2314 0.0
H2450 H 0.04261 0.38308 0.28258 0.0
H2451 H 0.02073 0.38486 0.23098 0.0
H2452 H 0.98211 0.32509 0.46921 0.0
H2453 H 0.96019 0.32576 0.41847 0.0
H2454 H 0.00229 0.34823 0.51471 0.0
H2455 H 0.02794 0.35992 0.49665 0.0
C2456 C 0.39539 0.76859 0.42887 0.0
C2457 C 0.38649 0.78246 0.3825 0.0
C2458 C 0.37613 0.74988 0.32185 0.0
C2459 C 0.38403 0.73597 0.36959 0.0
N2460 N 0.3963 0.73202 0.47446 0.0
N2461 N 0.36429 0.7866 0.29132 0.0
C2462 C 0.39234 0.74531 0.42481 0.0
C2463 C 0.37548 0.77318 0.3311 0.0
N2464 N 0.40687 0.77765 0.47674 0.0
N2465 N 0.37033 0.74094 0.26653 0.0
H2466 H 0.36353 0.80371 0.2966 0.0
H2467 H 0.35411 0.78068 0.25646 0.0
H2468 H 0.37094 0.72402 0.25754 0.0
H2469 H 0.36679 0.7504 0.2278 0.0
H2470 H 0.41611 0.76833 0.50773 0.0
H2471 H 0.40826 0.79467 0.48356 0.0
H2472 H 0.40016 0.73807 0.51787 0.0
H2473 H 0.39361 0.71498 0.47406 0.0
C2474 C 0.02316 0.6582 0.18622 0.0
C2475 C 0.02868 0.64287 0.13886 0.0
C2476 C 0.98953 0.63269 0.13209 0.0
C2477 C 0.9837 0.65046 0.17107 0.0
N2478 N 0.99539 0.68338 0.22506 0.0
N2479 N 0.01518 0.62033 0.05485 0.0
C2480 C 1.00061 0.66421 0.19529 0.0
C2481 C 0.0113 0.63149 0.10823 0.0
N2482 N 0.03901 0.66617 0.22497 0.0
N2483 N 0.97463 0.61632 0.11998 0.0
H2484 H 0.0304 0.62067 0.0323 0.0
H2485 H 0.00249 0.6132 0.02913 0.0
H2486 H 0.95913 0.61572 0.14104 0.0
H2487 H 0.97877 0.60212 0.09537 0.0
H2488 H 0.03525 0.67572 0.2634 0.0
H2489 H 0.05546 0.66119 0.22347 0.0
H2490 H 0.00731 0.69492 0.23812 0.0
H2491 H 0.97917 0.68887 0.23099 0.0
C2492 C 0.12274 0.25359 0.90031 0.0
C2493 C 0.11581 0.26382 0.84484 0.0
C2494 C 0.09972 0.22885 0.81117 0.0
C2495 C 0.10959 0.21787 0.86202 0.0
N2496 N 0.13254 0.21968 0.95276 0.0
N2497 N 0.10142 0.26021 0.74227 0.0
C2498 C 0.12203 0.23017 0.90545 0.0
C2499 C 0.10549 0.25111 0.79857 0.0
N2500 N 0.12818 0.26626 0.9499 0.0
N2501 N 0.08407 0.21853 0.77639 0.0
H2502 H 0.10568 0.27646 0.73126 0.0
H2503 H 0.09592 0.25098 0.70488 0.0
H2504 H 0.07788 0.20304 0.78729 0.0
H2505 H 0.07514 0.22648 0.74195 0.0
H2506 H 0.13143 0.25974 0.99322 0.0
H2507 H 0.12674 0.28342 0.9497 0.0
H2508 H 0.14386 0.22761 0.98134 0.0
H2509 H 0.13097 0.20279 0.96139 0.0
C2510 C 0.50471 0.37708 0.55205 0.0
C2511 C 0.48934 0.3672 0.59285 0.0
C2512 C 0.51958 0.35504 0.65978 0.0
C2513 C 0.53493 0.36544 0.61985 0.0
N2514 N 0.54209 0.39055 0.53609 0.0
N2515 N 0.48149 0.35201 0.69317 0.0
C2516 C 0.52748 0.37787 0.56857 0.0
C2517 C 0.49657 0.3576 0.64889 0.0
N2518 N 0.49764 0.38492 0.49654 0.0
N2519 N 0.527 0.3427 0.70823 0.0
H2520 H 0.46446 0.35417 0.68803 0.0
H2521 H 0.48588 0.34721 0.73741 0.0
H2522 H 0.54361 0.34202 0.72123 0.0
H2523 H 0.51683 0.33228 0.73379 0.0
H2524 H 0.5083 0.39014 0.46193 0.0
H2525 H 0.48107 0.38453 0.48303 0.0
H2526 H 0.53734 0.40156 0.5018 0.0
H2527 H 0.55882 0.39164 0.54721 0.0
loop_
_geom_bond_atom_site_label_1
_geom_bond_atom_site_label_2
_geom_bond_distance
_geom_bond_site_symmetry_2
_ccdc_geom_bond_type
Co0 O3 1.970 . S
Co0 N17 1.989 . S
Co0 O25 1.967 . S
Co0 O32 1.920 . S
Co1 O4 1.966 . S
Co1 N10 2.022 . S
Co1 N18 1.993 . S
Co1 O26 1.941 . S
C2 O3 1.258 . S
C2 O4 1.263 . S
O3 Co0 1.970 . S
O3 C2 1.258 . S
O4 Co1 1.966 . S
O4 C2 1.263 . S
C5 O6 1.235 . S
C5 O32 1.289 . S
O6 C5 1.235 . S
C7 C9 1.400 . S
C7 N10 1.351 . S
C7 C12 1.501 . S
C8 C9 1.387 . S
C8 N11 1.341 . S
C9 C7 1.400 . S
C9 C8 1.387 . S
N10 Co1 2.022 . S
N10 C7 1.351 . S
N10 N11 1.365 . S
N11 C8 1.341 . S
N11 N10 1.365 . S
N11 H31 0.862 . S
C12 C7 1.501 . S
C12 H13 0.961 . S
C12 H14 0.961 . S
C12 H15 0.960 . S
H13 C12 0.961 . S
H14 C12 0.961 . S
H15 C12 0.960 . S
C16 N17 1.342 . S
C16 C20 1.401 . S
C16 C21 1.499 . S
N17 Co0 1.989 . S
N17 C16 1.342 . S
N17 N18 1.388 . S
N18 Co1 1.993 . S
N18 N17 1.388 . S
N18 C19 1.346 . S
C19 N18 1.346 . S
C19 C20 1.396 . S
C19 C29 1.510 . S
C20 C16 1.401 . S
C20 C19 1.396 . S
C21 C16 1.499 . S
C21 H22 0.959 . S
C21 H23 0.960 . S
C21 H24 0.961 . S
H22 C21 0.959 . S
H23 C21 0.960 . S
H24 C21 0.961 . S
O25 Co0 1.967 . S
O25 C33 1.258 . S
O26 Co1 1.941 . S
O26 C33 1.266 . S
H27 C29 0.959 . S
H28 C29 0.961 . S
C29 C19 1.510 . S
C29 H27 0.959 . S
C29 H28 0.961 . S
C29 H30 0.960 . S
H30 C29 0.960 . S
H31 N11 0.862 . S
O32 Co0 1.920 . S
O32 C5 1.289 . S
C33 O25 1.258 . S
C33 O26 1.266 . S
Co34 O37 1.970 . S
Co34 N51 1.989 . S
Co34 O59 1.967 . S
Co34 O66 1.920 . S
Co35 O38 1.966 . S
Co35 N44 2.022 . S
Co35 N52 1.993 . S
Co35 O60 1.941 . S
C36 O37 1.258 . S
C36 O38 1.263 . S
O37 Co34 1.970 . S
O37 C36 1.258 . S
O38 Co35 1.966 . S
O38 C36 1.263 . S
C39 O40 1.235 . S
C39 O66 1.289 . S
O40 C39 1.235 . S
C41 C43 1.400 . S
C41 N44 1.351 . S
C41 C46 1.501 . S
C42 C43 1.387 . S
C42 N45 1.341 . S
C43 C41 1.400 . S
C43 C42 1.387 . S
N44 Co35 2.022 . S
N44 C41 1.351 . S
N44 N45 1.365 . S
N45 C42 1.341 . S
N45 N44 1.365 . S
N45 H65 0.862 . S
C46 C41 1.501 . S
C46 H47 0.961 . S
C46 H48 0.961 . S
C46 H49 0.960 . S
H47 C46 0.961 . S
H48 C46 0.961 . S
H49 C46 0.960 . S
C50 N51 1.342 . S
C50 C54 1.401 . S
C50 C55 1.499 . S
N51 Co34 1.989 . S
N51 C50 1.342 . S
N51 N52 1.388 . S
N52 Co35 1.993 . S
N52 N51 1.388 . S
N52 C53 1.346 . S
C53 N52 1.346 . S
C53 C54 1.396 . S
C53 C63 1.510 . S
C54 C50 1.401 . S
C54 C53 1.396 . S
C55 C50 1.499 . S
C55 H56 0.959 . S
C55 H57 0.960 . S
C55 H58 0.961 . S
H56 C55 0.959 . S
H57 C55 0.960 . S
H58 C55 0.961 . S
O59 Co34 1.967 . S
O59 C67 1.258 . S
O60 Co35 1.941 . S
O60 C67 1.266 . S
H61 C63 0.959 . S
H62 C63 0.961 . S
C63 C53 1.510 . S
C63 H61 0.959 . S
C63 H62 0.961 . S
C63 H64 0.960 . S
H64 C63 0.960 . S
H65 N45 0.862 . S
O66 Co34 1.920 . S
O66 C39 1.289 . S
C67 O59 1.258 . S
C67 O60 1.266 . S
Co68 O71 1.970 . S
Co68 N85 1.989 . S
Co68 O93 1.967 . S
Co68 O100 1.920 . S
Co69 O72 1.966 . S
Co69 N78 2.022 . S
Co69 N86 1.993 . S
Co69 O94 1.941 . S
C70 O71 1.258 . S
C70 O72 1.263 . S
O71 Co68 1.970 . S
O71 C70 1.258 . S
O72 Co69 1.966 . S
O72 C70 1.263 . S
C73 O74 1.235 . S
C73 O100 1.289 . S
O74 C73 1.235 . S
C75 C77 1.400 . S
C75 N78 1.351 . S
C75 C80 1.501 . S
C76 C77 1.387 . S
C76 N79 1.341 . S
C77 C75 1.400 . S
C77 C76 1.387 . S
N78 Co69 2.022 . S
N78 C75 1.351 . S
N78 N79 1.365 . S
N79 C76 1.341 . S
N79 N78 1.365 . S
N79 H99 0.862 . S
C80 C75 1.501 . S
C80 H81 0.961 . S
C80 H82 0.961 . S
C80 H83 0.960 . S
H81 C80 0.961 . S
H82 C80 0.961 . S
H83 C80 0.960 . S
C84 N85 1.343 . S
C84 C88 1.400 1_556 S
C84 C89 1.499 1_556 S
N85 Co68 1.989 . S
N85 C84 1.343 . S
N85 N86 1.388 . S
N86 Co69 1.993 . S
N86 N85 1.388 . S
N86 C87 1.346 1_556 S
C87 N86 1.346 1_554 S
C87 C88 1.396 . S
C87 C97 1.510 . S
C88 C84 1.400 1_554 S
C88 C87 1.396 . S
C89 C84 1.499 1_554 S
C89 H90 0.959 1_554 S
C89 H91 0.960 . S
C89 H92 0.961 . S
H90 C89 0.959 1_556 S
H91 C89 0.960 . S
H92 C89 0.961 . S
O93 Co68 1.967 . S
O93 C101 1.258 . S
O94 Co69 1.941 . S
O94 C101 1.266 . S
H95 C97 0.959 . S
H96 C97 0.961 . S
C97 C87 1.510 . S
C97 H95 0.959 . S
C97 H96 0.961 . S
C97 H98 0.960 1_554 S
H98 C97 0.960 1_556 S
H99 N79 0.862 . S
O100 Co68 1.920 . S
O100 C73 1.289 . S
C101 O93 1.258 . S
C101 O94 1.266 . S
Co102 O105 1.970 . S
Co102 N119 1.989 . S
Co102 O127 1.967 . S
Co102 O134 1.920 . S
Co103 O106 1.966 . S
Co103 N112 2.022 . S
Co103 N120 1.993 . S
Co103 O128 1.941 . S
C104 O105 1.258 . S
C104 O106 1.263 . S
O105 Co102 1.970 . S
O105 C104 1.258 . S
O106 Co103 1.966 . S
O106 C104 1.263 . S
C107 O108 1.235 . S
C107 O134 1.289 . S
O108 C107 1.235 . S
C109 C111 1.400 . S
C109 N112 1.351 . S
C109 C114 1.501 . S
C110 C111 1.387 . S
C110 N113 1.341 . S
C111 C109 1.400 . S
C111 C110 1.387 . S
N112 Co103 2.022 . S
N112 C109 1.351 . S
N112 N113 1.365 . S
N113 C110 1.341 . S
N113 N112 1.365 . S
N113 H133 0.862 . S
C114 C109 1.501 . S
C114 H115 0.961 . S
C114 H116 0.961 . S
C114 H117 0.960 . S
H115 C114 0.961 . S
H116 C114 0.961 . S
H117 C114 0.960 . S
C118 N119 1.342 . S
C118 C122 1.401 . S
C118 C123 1.499 . S
N119 Co102 1.989 . S
N119 C118 1.342 . S
N119 N120 1.388 . S
N120 Co103 1.993 . S
N120 N119 1.388 . S
N120 C121 1.346 . S
C121 N120 1.346 . S
C121 C122 1.396 . S
C121 C131 1.510 . S
C122 C118 1.401 . S
C122 C121 1.396 . S
C123 C118 1.499 . S
C123 H124 0.959 . S
C123 H125 0.960 . S
C123 H126 0.961 . S
H124 C123 0.959 . S
H125 C123 0.960 . S
H126 C123 0.961 . S
O127 Co102 1.967 . S
O127 C135 1.258 . S
O128 Co103 1.941 . S
O128 C135 1.266 . S
H129 C131 0.959 . S
H130 C131 0.961 . S
C131 C121 1.510 . S
C131 H129 0.959 . S
C131 H130 0.961 . S
C131 H132 0.960 . S
H132 C131 0.960 . S
H133 N113 0.862 . S
O134 Co102 1.920 . S
O134 C107 1.289 . S
C135 O127 1.258 . S
C135 O128 1.266 . S
Co136 O139 1.970 . S
Co136 N153 1.989 . S
Co136 O161 1.967 . S
Co136 O168 1.920 . S
Co137 O140 1.966 . S
Co137 N146 2.022 . S
Co137 N154 1.993 . S
Co137 O162 1.941 . S
C138 O139 1.258 . S
C138 O140 1.263 . S
O139 Co136 1.970 . S
O139 C138 1.258 . S
O140 Co137 1.966 . S
O140 C138 1.263 . S
C141 O142 1.235 . S
C141 O168 1.289 . S
O142 C141 1.235 . S
C143 C145 1.400 . S
C143 N146 1.351 . S
C143 C148 1.501 . S
C144 C145 1.387 . S
C144 N147 1.341 . S
C145 C143 1.400 . S
C145 C144 1.387 . S
N146 Co137 2.022 . S
N146 C143 1.351 . S
N146 N147 1.365 . S
N147 C144 1.341 . S
N147 N146 1.365 . S
N147 H167 0.862 . S
C148 C143 1.501 . S
C148 H149 0.961 . S
C148 H150 0.961 . S
C148 H151 0.960 . S
H149 C148 0.961 . S
H150 C148 0.961 . S
H151 C148 0.960 . S
C152 N153 1.343 . S
C152 C156 1.400 1_554 S
C152 C157 1.499 1_554 S
N153 Co136 1.989 . S
N153 C152 1.343 . S
N153 N154 1.388 . S
N154 Co137 1.993 . S
N154 N153 1.388 . S
N154 C155 1.346 1_554 S
C155 N154 1.346 1_556 S
C155 C156 1.396 . S
C155 C165 1.510 . S
C156 C152 1.400 1_556 S
C156 C155 1.396 . S
C157 C152 1.499 1_556 S
C157 H158 0.959 1_556 S
C157 H159 0.960 . S
C157 H160 0.961 . S
H158 C157 0.959 1_554 S
H159 C157 0.960 . S
H160 C157 0.961 . S
O161 Co136 1.967 . S
O161 C169 1.258 . S
O162 Co137 1.941 . S
O162 C169 1.266 . S
H163 C165 0.959 . S
H164 C165 0.961 . S
C165 C155 1.510 . S
C165 H163 0.959 . S
C165 H164 0.961 . S
C165 H166 0.960 1_556 S
H166 C165 0.960 1_554 S
H167 N147 0.862 . S
O168 Co136 1.920 . S
O168 C141 1.289 . S
C169 O161 1.258 . S
C169 O162 1.266 . S
Co170 O173 1.970 . S
Co170 N187 1.989 . S
Co170 O195 1.967 . S
Co170 O202 1.920 . S
Co171 O174 1.966 . S
Co171 N180 2.022 . S
Co171 N188 1.993 . S
Co171 O196 1.941 . S
C172 O173 1.258 . S
C172 O174 1.263 . S
O173 Co170 1.970 . S
O173 C172 1.258 . S
O174 Co171 1.966 . S
O174 C172 1.263 . S
C175 O176 1.235 . S
C175 O202 1.289 . S
O176 C175 1.235 . S
C177 C179 1.400 . S
C177 N180 1.351 . S
C177 C182 1.501 . S
C178 C179 1.387 . S
C178 N181 1.341 . S
C179 C177 1.400 . S
C179 C178 1.387 . S
N180 Co171 2.022 . S
N180 C177 1.351 . S
N180 N181 1.365 . S
N181 C178 1.341 . S
N181 N180 1.365 . S
N181 H201 0.862 . S
C182 C177 1.501 . S
C182 H183 0.961 . S
C182 H184 0.961 . S
C182 H185 0.960 . S
H183 C182 0.961 . S
H184 C182 0.961 . S
H185 C182 0.960 . S
C186 N187 1.342 . S
C186 C190 1.401 . S
C186 C191 1.499 . S
N187 Co170 1.989 . S
N187 C186 1.342 . S
N187 N188 1.388 . S
N188 Co171 1.993 . S
N188 N187 1.388 . S
N188 C189 1.346 . S
C189 N188 1.346 . S
C189 C190 1.396 . S
C189 C199 1.510 . S
C190 C186 1.401 . S
C190 C189 1.396 . S
C191 C186 1.499 . S
C191 H192 0.959 . S
C191 H193 0.960 . S
C191 H194 0.961 . S
H192 C191 0.959 . S
H193 C191 0.960 . S
H194 C191 0.961 . S
O195 Co170 1.967 . S
O195 C203 1.258 . S
O196 Co171 1.941 . S
O196 C203 1.266 . S
H197 C199 0.959 . S
H198 C199 0.961 . S
C199 C189 1.510 . S
C199 H197 0.959 . S
C199 H198 0.961 . S
C199 H200 0.960 . S
H200 C199 0.960 . S
H201 N181 0.862 . S
O202 Co170 1.920 . S
O202 C175 1.289 . S
C203 O195 1.258 . S
C203 O196 1.266 . S
Co204 O207 1.970 . S
Co204 N221 1.989 . S
Co204 O229 1.967 . S
Co204 O236 1.920 . S
Co205 O208 1.966 . S
Co205 N214 2.022 . S
Co205 N222 1.993 . S
Co205 O230 1.941 . S
C206 O207 1.258 . S
C206 O208 1.263 . S
O207 Co204 1.970 . S
O207 C206 1.258 . S
O208 Co205 1.966 . S
O208 C206 1.263 . S
C209 O210 1.235 . S
C209 O236 1.289 . S
O210 C209 1.235 . S
C211 C213 1.400 . S
C211 N214 1.351 . S
C211 C216 1.501 . S
C212 C213 1.387 . S
C212 N215 1.341 . S
C213 C211 1.400 . S
C213 C212 1.387 . S
N214 Co205 2.022 . S
N214 C211 1.351 . S
N214 N215 1.365 . S
N215 C212 1.341 . S
N215 N214 1.365 . S
N215 H235 0.862 . S
C216 C211 1.501 . S
C216 H217 0.961 . S
C216 H218 0.961 . S
C216 H219 0.960 . S
H217 C216 0.961 . S
H218 C216 0.961 . S
H219 C216 0.960 . S
C220 N221 1.342 . S
C220 C224 1.401 . S
C220 C225 1.499 . S
N221 Co204 1.989 . S
N221 C220 1.342 . S
N221 N222 1.388 . S
N222 Co205 1.993 . S
N222 N221 1.388 . S
N222 C223 1.346 . S
C223 N222 1.346 . S
C223 C224 1.396 . S
C223 C233 1.510 . S
C224 C220 1.401 . S
C224 C223 1.396 . S
C225 C220 1.499 . S
C225 H226 0.959 . S
C225 H227 0.960 . S
C225 H228 0.961 . S
H226 C225 0.959 . S
H227 C225 0.960 . S
H228 C225 0.961 . S
O229 Co204 1.967 . S
O229 C237 1.258 . S
O230 Co205 1.941 . S
O230 C237 1.266 . S
H231 C233 0.959 . S
H232 C233 0.961 . S
C233 C223 1.510 . S
C233 H231 0.959 . S
C233 H232 0.961 . S
C233 H234 0.960 . S
H234 C233 0.960 . S
H235 N215 0.862 . S
O236 Co204 1.920 . S
O236 C209 1.289 . S
C237 O229 1.258 . S
C237 O230 1.266 . S
Co238 O241 1.970 . S
Co238 N255 1.989 . S
Co238 O263 1.967 . S
Co238 O270 1.920 . S
Co239 O242 1.966 . S
Co239 N248 2.022 . S
Co239 N256 1.993 . S
Co239 O264 1.941 . S
C240 O241 1.258 . S
C240 O242 1.263 . S
O241 Co238 1.970 . S
O241 C240 1.258 . S
O242 Co239 1.966 . S
O242 C240 1.263 . S
C243 O244 1.235 . S
C243 O270 1.289 . S
O244 C243 1.235 . S
C245 C247 1.400 . S
C245 N248 1.351 . S
C245 C250 1.501 . S
C246 C247 1.387 . S
C246 N249 1.341 . S
C247 C245 1.400 . S
C247 C246 1.387 . S
N248 Co239 2.022 . S
N248 C245 1.351 . S
N248 N249 1.365 . S
N249 C246 1.341 . S
N249 N248 1.365 . S
N249 H269 0.862 . S
C250 C245 1.501 . S
C250 H251 0.961 . S
C250 H252 0.961 . S
C250 H253 0.960 . S
H251 C250 0.961 . S
H252 C250 0.961 . S
H253 C250 0.960 . S
C254 N255 1.342 . S
C254 C258 1.401 . S
C254 C259 1.499 . S
N255 Co238 1.989 . S
N255 C254 1.342 . S
N255 N256 1.388 . S
N256 Co239 1.993 . S
N256 N255 1.388 . S
N256 C257 1.346 . S
C257 N256 1.346 . S
C257 C258 1.396 . S
C257 C267 1.510 . S
C258 C254 1.401 . S
C258 C257 1.396 . S
C259 C254 1.499 . S
C259 H260 0.959 . S
C259 H261 0.960 . S
C259 H262 0.961 . S
H260 C259 0.959 . S
H261 C259 0.960 . S
H262 C259 0.961 . S
O263 Co238 1.967 . S
O263 C271 1.258 . S
O264 Co239 1.941 . S
O264 C271 1.266 . S
H265 C267 0.959 . S
H266 C267 0.961 . S
C267 C257 1.510 . S
C267 H265 0.959 . S
C267 H266 0.961 . S
C267 H268 0.960 . S
H268 C267 0.960 . S
H269 N249 0.862 . S
O270 Co238 1.920 . S
O270 C243 1.289 . S
C271 O263 1.258 . S
C271 O264 1.266 . S
Co272 O275 1.970 . S
Co272 N289 1.989 . S
Co272 O297 1.967 . S
Co272 O304 1.920 . S
Co273 O276 1.966 . S
Co273 N282 2.022 . S
Co273 N290 1.993 . S
Co273 O298 1.941 . S
C274 O275 1.258 . S
C274 O276 1.263 . S
O275 Co272 1.970 . S
O275 C274 1.258 . S
O276 Co273 1.966 . S
O276 C274 1.263 . S
C277 O278 1.235 . S
C277 O304 1.289 . S
O278 C277 1.235 . S
C279 C281 1.400 . S
C279 N282 1.351 . S
C279 C284 1.501 . S
C280 C281 1.387 . S
C280 N283 1.341 . S
C281 C279 1.400 . S
C281 C280 1.387 . S
N282 Co273 2.022 . S
N282 C279 1.351 . S
N282 N283 1.365 . S
N283 C280 1.341 . S
N283 N282 1.365 . S
N283 H303 0.862 . S
C284 C279 1.501 . S
C284 H285 0.961 . S
C284 H286 0.961 . S
C284 H287 0.960 . S
H285 C284 0.961 . S
H286 C284 0.961 . S
H287 C284 0.960 . S
C288 N289 1.342 . S
C288 C292 1.401 . S
C288 C293 1.499 . S
N289 Co272 1.989 . S
N289 C288 1.342 . S
N289 N290 1.388 . S
N290 Co273 1.993 . S
N290 N289 1.388 . S
N290 C291 1.346 . S
C291 N290 1.346 . S
C291 C292 1.396 . S
C291 C301 1.510 . S
C292 C288 1.401 . S
C292 C291 1.396 . S
C293 C288 1.499 . S
C293 H294 0.959 . S
C293 H295 0.960 . S
C293 H296 0.961 . S
H294 C293 0.959 . S
H295 C293 0.960 . S
H296 C293 0.961 . S
O297 Co272 1.967 . S
O297 C305 1.258 . S
O298 Co273 1.941 . S
O298 C305 1.266 . S
H299 C301 0.959 . S
H300 C301 0.961 . S
C301 C291 1.510 . S
C301 H299 0.959 . S
C301 H300 0.961 . S
C301 H302 0.960 . S
H302 C301 0.960 . S
H303 N283 0.862 . S
O304 Co272 1.920 . S
O304 C277 1.289 . S
C305 O297 1.258 . S
C305 O298 1.266 . S
Co306 O309 1.970 . S
Co306 N323 1.989 . S
Co306 O331 1.967 . S
Co306 O338 1.920 . S
Co307 O310 1.966 . S
Co307 N316 2.022 . S
Co307 N324 1.993 . S
Co307 O332 1.941 . S
C308 O309 1.258 . S
C308 O310 1.263 . S
O309 Co306 1.970 . S
O309 C308 1.258 . S
O310 Co307 1.966 . S
O310 C308 1.263 . S
C311 O312 1.235 . S
C311 O338 1.289 . S
O312 C311 1.235 . S
C313 C315 1.400 . S
C313 N316 1.351 . S
C313 C318 1.501 . S
C314 C315 1.387 . S
C314 N317 1.341 . S
C315 C313 1.400 . S
C315 C314 1.387 . S
N316 Co307 2.022 . S
N316 C313 1.351 . S
N316 N317 1.365 . S
N317 C314 1.341 . S
N317 N316 1.365 . S
N317 H337 0.862 . S
C318 C313 1.501 . S
C318 H319 0.961 . S
C318 H320 0.961 . S
C318 H321 0.960 . S
H319 C318 0.961 . S
H320 C318 0.961 . S
H321 C318 0.960 . S
C322 N323 1.342 . S
C322 C326 1.401 . S
C322 C327 1.499 . S
N323 Co306 1.989 . S
N323 C322 1.342 . S
N323 N324 1.388 . S
N324 Co307 1.993 . S
N324 N323 1.388 . S
N324 C325 1.346 . S
C325 N324 1.346 . S
C325 C326 1.396 . S
C325 C335 1.510 . S
C326 C322 1.401 . S
C326 C325 1.396 . S
C327 C322 1.499 . S
C327 H328 0.959 . S
C327 H329 0.960 . S
C327 H330 0.961 . S
H328 C327 0.959 . S
H329 C327 0.960 . S
H330 C327 0.961 . S
O331 Co306 1.967 . S
O331 C339 1.258 . S
O332 Co307 1.941 . S
O332 C339 1.266 . S
H333 C335 0.959 . S
H334 C335 0.961 . S
C335 C325 1.510 . S
C335 H333 0.959 . S
C335 H334 0.961 . S
C335 H336 0.960 . S
H336 C335 0.960 . S
H337 N317 0.862 . S
O338 Co306 1.920 . S
O338 C311 1.289 . S
C339 O331 1.258 . S
C339 O332 1.266 . S
Co340 O343 1.970 . S
Co340 N357 1.989 . S
Co340 O365 1.967 . S
Co340 O372 1.920 . S
Co341 O344 1.966 . S
Co341 N350 2.022 . S
Co341 N358 1.993 . S
Co341 O366 1.941 . S
C342 O343 1.258 . S
C342 O344 1.263 . S
O343 Co340 1.970 . S
O343 C342 1.258 . S
O344 Co341 1.966 . S
O344 C342 1.263 . S
C345 O346 1.235 . S
C345 O372 1.289 . S
O346 C345 1.235 . S
C347 C349 1.400 . S
C347 N350 1.351 . S
C347 C352 1.501 . S
C348 C349 1.387 . S
C348 N351 1.341 . S
C349 C347 1.400 . S
C349 C348 1.387 . S
N350 Co341 2.022 . S
N350 C347 1.351 . S
N350 N351 1.365 . S
N351 C348 1.341 . S
N351 N350 1.365 . S
N351 H371 0.862 . S
C352 C347 1.501 . S
C352 H353 0.961 . S
C352 H354 0.961 . S
C352 H355 0.960 . S
H353 C352 0.961 . S
H354 C352 0.961 . S
H355 C352 0.960 . S
C356 N357 1.343 . S
C356 C360 1.400 1_554 S
C356 C361 1.499 1_554 S
N357 Co340 1.989 . S
N357 C356 1.343 . S
N357 N358 1.388 . S
N358 Co341 1.993 . S
N358 N357 1.388 . S
N358 C359 1.346 1_554 S
C359 N358 1.346 1_556 S
C359 C360 1.396 . S
C359 C369 1.510 . S
C360 C356 1.400 1_556 S
C360 C359 1.396 . S
C361 C356 1.499 1_556 S
C361 H362 0.959 1_556 S
C361 H363 0.960 . S
C361 H364 0.961 . S
H362 C361 0.959 1_554 S
H363 C361 0.960 . S
H364 C361 0.961 . S
O365 Co340 1.967 . S
O365 C373 1.258 . S
O366 Co341 1.941 . S
O366 C373 1.266 . S
H367 C369 0.959 . S
H368 C369 0.961 . S
C369 C359 1.510 . S
C369 H367 0.959 . S
C369 H368 0.961 . S
C369 H370 0.960 1_556 S
H370 C369 0.960 1_554 S
H371 N351 0.862 . S
O372 Co340 1.920 . S
O372 C345 1.289 . S
C373 O365 1.258 . S
C373 O366 1.266 . S
Co374 O377 1.970 . S
Co374 N391 1.989 . S
Co374 O399 1.967 . S
Co374 O406 1.920 . S
Co375 O378 1.966 . S
Co375 N384 2.022 . S
Co375 N392 1.993 . S
Co375 O400 1.941 . S
C376 O377 1.258 . S
C376 O378 1.263 . S
O377 Co374 1.970 . S
O377 C376 1.258 . S
O378 Co375 1.966 . S
O378 C376 1.263 . S
C379 O380 1.235 . S
C379 O406 1.289 . S
O380 C379 1.235 . S
C381 C383 1.400 . S
C381 N384 1.351 . S
C381 C386 1.501 . S
C382 C383 1.387 . S
C382 N385 1.341 . S
C383 C381 1.400 . S
C383 C382 1.387 . S
N384 Co375 2.022 . S
N384 C381 1.351 . S
N384 N385 1.365 . S
N385 C382 1.341 . S
N385 N384 1.365 . S
N385 H405 0.862 . S
C386 C381 1.501 . S
C386 H387 0.961 . S
C386 H388 0.961 . S
C386 H389 0.960 . S
H387 C386 0.961 . S
H388 C386 0.961 . S
H389 C386 0.960 . S
C390 N391 1.342 . S
C390 C394 1.401 . S
C390 C395 1.499 . S
N391 Co374 1.989 . S
N391 C390 1.342 . S
N391 N392 1.388 . S
N392 Co375 1.993 . S
N392 N391 1.388 . S
N392 C393 1.346 . S
C393 N392 1.346 . S
C393 C394 1.396 . S
C393 C403 1.510 . S
C394 C390 1.401 . S
C394 C393 1.396 . S
C395 C390 1.499 . S
C395 H396 0.959 . S
C395 H397 0.960 . S
C395 H398 0.961 . S
H396 C395 0.959 . S
H397 C395 0.960 . S
H398 C395 0.961 . S
O399 Co374 1.967 . S
O399 C407 1.258 . S
O400 Co375 1.941 . S
O400 C407 1.266 . S
H401 C403 0.959 . S
H402 C403 0.961 . S
C403 C393 1.510 . S
C403 H401 0.959 . S
C403 H402 0.961 . S
C403 H404 0.960 . S
H404 C403 0.960 . S
H405 N385 0.862 . S
O406 Co374 1.920 . S
O406 C379 1.289 . S
C407 O399 1.258 . S
C407 O400 1.266 . S
Co408 O411 1.970 . S
Co408 N425 1.989 . S
Co408 O433 1.967 . S
Co408 O440 1.920 . S
Co409 O412 1.966 . S
Co409 N418 2.022 . S
Co409 N426 1.993 . S
Co409 O434 1.941 . S
C410 O411 1.258 . S
C410 O412 1.263 . S
O411 Co408 1.970 . S
O411 C410 1.258 . S
O412 Co409 1.966 . S
O412 C410 1.263 . S
C413 O414 1.235 . S
C413 O440 1.289 . S
O414 C413 1.235 . S
C415 C417 1.400 . S
C415 N418 1.351 . S
C415 C420 1.501 . S
C416 C417 1.387 . S
C416 N419 1.341 . S
C417 C415 1.400 . S
C417 C416 1.387 . S
N418 Co409 2.022 . S
N418 C415 1.351 . S
N418 N419 1.365 . S
N419 C416 1.341 . S
N419 N418 1.365 . S
N419 H439 0.862 . S
C420 C415 1.501 . S
C420 H421 0.961 . S
C420 H422 0.961 . S
C420 H423 0.960 . S
H421 C420 0.961 . S
H422 C420 0.961 . S
H423 C420 0.960 . S
C424 N425 1.343 . S
C424 C428 1.400 1_556 S
C424 C429 1.499 1_556 S
N425 Co408 1.989 . S
N425 C424 1.343 . S
N425 N426 1.388 . S
N426 Co409 1.993 . S
N426 N425 1.388 . S
N426 C427 1.346 1_556 S
C427 N426 1.346 1_554 S
C427 C428 1.396 . S
C427 C437 1.510 . S
C428 C424 1.400 1_554 S
C428 C427 1.396 . S
C429 C424 1.499 1_554 S
C429 H430 0.959 1_554 S
C429 H431 0.960 . S
C429 H432 0.961 . S
H430 C429 0.959 1_556 S
H431 C429 0.960 . S
H432 C429 0.961 . S
O433 Co408 1.967 . S
O433 C441 1.258 . S
O434 Co409 1.941 . S
O434 C441 1.266 . S
H435 C437 0.959 . S
H436 C437 0.961 . S
C437 C427 1.510 . S
C437 H435 0.959 . S
C437 H436 0.961 . S
C437 H438 0.960 1_554 S
H438 C437 0.960 1_556 S
H439 N419 0.862 . S
O440 Co408 1.920 . S
O440 C413 1.289 . S
C441 O433 1.258 . S
C441 O434 1.266 . S
Co442 O445 1.970 . S
Co442 N459 1.989 . S
Co442 O467 1.967 . S
Co442 O474 1.920 . S
Co443 O446 1.966 . S
Co443 N452 2.022 . S
Co443 N460 1.993 . S
Co443 O468 1.941 . S
C444 O445 1.258 . S
C444 O446 1.263 . S
O445 Co442 1.970 . S
O445 C444 1.258 . S
O446 Co443 1.966 . S
O446 C444 1.263 . S
C447 O448 1.235 . S
C447 O474 1.289 . S
O448 C447 1.235 . S
C449 C451 1.400 . S
C449 N452 1.351 . S
C449 C454 1.501 . S
C450 C451 1.387 . S
C450 N453 1.341 . S
C451 C449 1.400 . S
C451 C450 1.387 . S
N452 Co443 2.022 . S
N452 C449 1.351 . S
N452 N453 1.365 . S
N453 C450 1.341 . S
N453 N452 1.365 . S
N453 H473 0.862 . S
C454 C449 1.501 . S
C454 H455 0.961 . S
C454 H456 0.961 . S
C454 H457 0.960 . S
H455 C454 0.961 . S
H456 C454 0.961 . S
H457 C454 0.960 . S
C458 N459 1.342 . S
C458 C462 1.401 . S
C458 C463 1.499 . S
N459 Co442 1.989 . S
N459 C458 1.342 . S
N459 N460 1.388 . S
N460 Co443 1.993 . S
N460 N459 1.388 . S
N460 C461 1.346 . S
C461 N460 1.346 . S
C461 C462 1.396 . S
C461 C471 1.510 . S
C462 C458 1.401 . S
C462 C461 1.396 . S
C463 C458 1.499 . S
C463 H464 0.959 . S
C463 H465 0.960 . S
C463 H466 0.961 . S
H464 C463 0.959 . S
H465 C463 0.960 . S
H466 C463 0.961 . S
O467 Co442 1.967 . S
O467 C475 1.258 . S
O468 Co443 1.941 . S
O468 C475 1.266 . S
H469 C471 0.959 . S
H470 C471 0.961 . S
C471 C461 1.510 . S
C471 H469 0.959 . S
C471 H470 0.961 . S
C471 H472 0.960 . S
H472 C471 0.960 . S
H473 N453 0.862 . S
O474 Co442 1.920 . S
O474 C447 1.289 . S
C475 O467 1.258 . S
C475 O468 1.266 . S
Co476 O479 1.970 . S
Co476 N493 1.989 . S
Co476 O501 1.967 . S
Co476 O508 1.920 . S
Co477 O480 1.966 . S
Co477 N486 2.022 . S
Co477 N494 1.993 . S
Co477 O502 1.941 . S
C478 O479 1.258 . S
C478 O480 1.263 . S
O479 Co476 1.970 . S
O479 C478 1.258 . S
O480 Co477 1.966 . S
O480 C478 1.263 . S
C481 O482 1.235 . S
C481 O508 1.289 . S
O482 C481 1.235 . S
C483 C485 1.400 . S
C483 N486 1.351 . S
C483 C488 1.501 . S
C484 C485 1.387 . S
C484 N487 1.341 . S
C485 C483 1.400 . S
C485 C484 1.387 . S
N486 Co477 2.022 . S
N486 C483 1.351 . S
N486 N487 1.365 . S
N487 C484 1.341 . S
N487 N486 1.365 . S
N487 H507 0.862 . S
C488 C483 1.501 . S
C488 H489 0.961 . S
C488 H490 0.961 . S
C488 H491 0.960 . S
H489 C488 0.961 . S
H490 C488 0.961 . S
H491 C488 0.960 . S
C492 N493 1.342 . S
C492 C496 1.401 . S
C492 C497 1.499 . S
N493 Co476 1.989 . S
N493 C492 1.342 . S
N493 N494 1.388 . S
N494 Co477 1.993 . S
N494 N493 1.388 . S
N494 C495 1.346 . S
C495 N494 1.346 . S
C495 C496 1.396 . S
C495 C505 1.510 . S
C496 C492 1.401 . S
C496 C495 1.396 . S
C497 C492 1.499 . S
C497 H498 0.959 . S
C497 H499 0.960 . S
C497 H500 0.961 . S
H498 C497 0.959 . S
H499 C497 0.960 . S
H500 C497 0.961 . S
O501 Co476 1.967 . S
O501 C509 1.258 . S
O502 Co477 1.941 . S
O502 C509 1.266 . S
H503 C505 0.959 . S
H504 C505 0.961 . S
C505 C495 1.510 . S
C505 H503 0.959 . S
C505 H504 0.961 . S
C505 H506 0.960 . S
H506 C505 0.960 . S
H507 N487 0.862 . S
O508 Co476 1.920 . S
O508 C481 1.289 . S
C509 O501 1.258 . S
C509 O502 1.266 . S
Co510 O513 1.970 . S
Co510 N527 1.989 . S
Co510 O535 1.967 . S
Co510 O542 1.920 . S
Co511 O514 1.966 . S
Co511 N520 2.022 . S
Co511 N528 1.993 . S
Co511 O536 1.941 . S
C512 O513 1.258 . S
C512 O514 1.263 . S
O513 Co510 1.970 . S
O513 C512 1.258 . S
O514 Co511 1.966 . S
O514 C512 1.263 . S
C515 O516 1.235 . S
C515 O542 1.289 . S
O516 C515 1.235 . S
C517 C519 1.400 . S
C517 N520 1.351 . S
C517 C522 1.501 . S
C518 C519 1.387 . S
C518 N521 1.341 . S
C519 C517 1.400 . S
C519 C518 1.387 . S
N520 Co511 2.022 . S
N520 C517 1.351 . S
N520 N521 1.365 . S
N521 C518 1.341 . S
N521 N520 1.365 . S
N521 H541 0.862 . S
C522 C517 1.501 . S
C522 H523 0.961 . S
C522 H524 0.961 . S
C522 H525 0.960 . S
H523 C522 0.961 . S
H524 C522 0.961 . S
H525 C522 0.960 . S
C526 N527 1.342 . S
C526 C530 1.401 . S
C526 C531 1.499 . S
N527 Co510 1.989 . S
N527 C526 1.342 . S
N527 N528 1.388 . S
N528 Co511 1.993 . S
N528 N527 1.388 . S
N528 C529 1.346 . S
C529 N528 1.346 . S
C529 C530 1.396 . S
C529 C539 1.510 . S
C530 C526 1.401 . S
C530 C529 1.396 . S
C531 C526 1.499 . S
C531 H532 0.959 . S
C531 H533 0.960 . S
C531 H534 0.961 . S
H532 C531 0.959 . S
H533 C531 0.960 . S
H534 C531 0.961 . S
O535 Co510 1.967 . S
O535 C543 1.258 . S
O536 Co511 1.941 . S
O536 C543 1.266 . S
H537 C539 0.959 . S
H538 C539 0.961 . S
C539 C529 1.510 . S
C539 H537 0.959 . S
C539 H538 0.961 . S
C539 H540 0.960 . S
H540 C539 0.960 . S
H541 N521 0.862 . S
O542 Co510 1.920 . S
O542 C515 1.289 . S
C543 O535 1.258 . S
C543 O536 1.266 . S
Co544 O547 1.970 . S
Co544 N561 1.989 . S
Co544 O569 1.967 . S
Co544 O576 1.920 . S
Co545 O548 1.966 . S
Co545 N554 2.022 . S
Co545 N562 1.993 . S
Co545 O570 1.941 . S
C546 O547 1.258 . S
C546 O548 1.263 . S
O547 Co544 1.970 . S
O547 C546 1.258 . S
O548 Co545 1.966 . S
O548 C546 1.263 . S
C549 O550 1.235 . S
C549 O576 1.289 . S
O550 C549 1.235 . S
C551 C553 1.400 . S
C551 N554 1.351 . S
C551 C556 1.501 . S
C552 C553 1.387 . S
C552 N555 1.341 . S
C553 C551 1.400 . S
C553 C552 1.387 . S
N554 Co545 2.022 . S
N554 C551 1.351 . S
N554 N555 1.365 . S
N555 C552 1.341 . S
N555 N554 1.365 . S
N555 H575 0.862 . S
C556 C551 1.501 . S
C556 H557 0.961 . S
C556 H558 0.961 . S
C556 H559 0.960 . S
H557 C556 0.961 . S
H558 C556 0.961 . S
H559 C556 0.960 . S
C560 N561 1.343 . S
C560 C564 1.400 1_556 S
C560 C565 1.499 1_556 S
N561 Co544 1.989 . S
N561 C560 1.343 . S
N561 N562 1.388 . S
N562 Co545 1.993 . S
N562 N561 1.388 . S
N562 C563 1.346 1_556 S
C563 N562 1.346 1_554 S
C563 C564 1.396 . S
C563 C573 1.510 . S
C564 C560 1.400 1_554 S
C564 C563 1.396 . S
C565 C560 1.499 1_554 S
C565 H566 0.959 1_554 S
C565 H567 0.960 . S
C565 H568 0.961 . S
H566 C565 0.959 1_556 S
H567 C565 0.960 . S
H568 C565 0.961 . S
O569 Co544 1.967 . S
O569 C577 1.258 . S
O570 Co545 1.941 . S
O570 C577 1.266 . S
H571 C573 0.959 . S
H572 C573 0.961 . S
C573 C563 1.510 . S
C573 H571 0.959 . S
C573 H572 0.961 . S
C573 H574 0.960 1_554 S
H574 C573 0.960 1_556 S
H575 N555 0.862 . S
O576 Co544 1.920 . S
O576 C549 1.289 . S
C577 O569 1.258 . S
C577 O570 1.266 . S
Co578 O581 1.970 . S
Co578 N595 1.989 . S
Co578 O603 1.967 . S
Co578 O610 1.920 . S
Co579 O582 1.966 . S
Co579 N588 2.022 . S
Co579 N596 1.993 . S
Co579 O604 1.941 . S
C580 O581 1.258 . S
C580 O582 1.263 . S
O581 Co578 1.970 . S
O581 C580 1.258 . S
O582 Co579 1.966 . S
O582 C580 1.263 . S
C583 O584 1.235 . S
C583 O610 1.289 . S
O584 C583 1.235 . S
C585 C587 1.400 . S
C585 N588 1.351 . S
C585 C590 1.501 . S
C586 C587 1.387 . S
C586 N589 1.341 . S
C587 C585 1.400 . S
C587 C586 1.387 . S
N588 Co579 2.022 . S
N588 C585 1.351 . S
N588 N589 1.365 . S
N589 C586 1.341 . S
N589 N588 1.365 . S
N589 H609 0.862 . S
C590 C585 1.501 . S
C590 H591 0.961 . S
C590 H592 0.961 . S
C590 H593 0.960 . S
H591 C590 0.961 . S
H592 C590 0.961 . S
H593 C590 0.960 . S
C594 N595 1.342 . S
C594 C598 1.401 . S
C594 C599 1.499 . S
N595 Co578 1.989 . S
N595 C594 1.342 . S
N595 N596 1.388 . S
N596 Co579 1.993 . S
N596 N595 1.388 . S
N596 C597 1.346 . S
C597 N596 1.346 . S
C597 C598 1.396 . S
C597 C607 1.510 . S
C598 C594 1.401 . S
C598 C597 1.396 . S
C599 C594 1.499 . S
C599 H600 0.959 . S
C599 H601 0.960 . S
C599 H602 0.961 . S
H600 C599 0.959 . S
H601 C599 0.960 . S
H602 C599 0.961 . S
O603 Co578 1.967 . S
O603 C611 1.258 . S
O604 Co579 1.941 . S
O604 C611 1.266 . S
H605 C607 0.959 . S
H606 C607 0.961 . S
C607 C597 1.510 . S
C607 H605 0.959 . S
C607 H606 0.961 . S
C607 H608 0.960 . S
H608 C607 0.960 . S
H609 N589 0.862 . S
O610 Co578 1.920 . S
O610 C583 1.289 . S
C611 O603 1.258 . S
C611 O604 1.266 . S
Co612 O615 1.970 . S
Co612 N629 1.989 . S
Co612 O637 1.967 . S
Co612 O644 1.920 . S
Co613 O616 1.966 . S
Co613 N622 2.022 . S
Co613 N630 1.993 . S
Co613 O638 1.941 . S
C614 O615 1.258 . S
C614 O616 1.263 . S
O615 Co612 1.970 . S
O615 C614 1.258 . S
O616 Co613 1.966 . S
O616 C614 1.263 . S
C617 O618 1.235 . S
C617 O644 1.289 . S
O618 C617 1.235 . S
C619 C621 1.400 . S
C619 N622 1.351 . S
C619 C624 1.501 . S
C620 C621 1.387 . S
C620 N623 1.341 . S
C621 C619 1.400 . S
C621 C620 1.387 . S
N622 Co613 2.022 . S
N622 C619 1.351 . S
N622 N623 1.365 . S
N623 C620 1.341 . S
N623 N622 1.365 . S
N623 H643 0.862 . S
C624 C619 1.501 . S
C624 H625 0.961 . S
C624 H626 0.961 . S
C624 H627 0.960 . S
H625 C624 0.961 . S
H626 C624 0.961 . S
H627 C624 0.960 . S
C628 N629 1.342 . S
C628 C632 1.401 . S
C628 C633 1.499 . S
N629 Co612 1.989 . S
N629 C628 1.342 . S
N629 N630 1.388 . S
N630 Co613 1.993 . S
N630 N629 1.388 . S
N630 C631 1.346 . S
C631 N630 1.346 . S
C631 C632 1.396 . S
C631 C641 1.510 . S
C632 C628 1.401 . S
C632 C631 1.396 . S
C633 C628 1.499 . S
C633 H634 0.959 . S
C633 H635 0.960 . S
C633 H636 0.961 . S
H634 C633 0.959 . S
H635 C633 0.960 . S
H636 C633 0.961 . S
O637 Co612 1.967 . S
O637 C645 1.258 . S
O638 Co613 1.941 . S
O638 C645 1.266 . S
H639 C641 0.959 . S
H640 C641 0.961 . S
C641 C631 1.510 . S
C641 H639 0.959 . S
C641 H640 0.961 . S
C641 H642 0.960 . S
H642 C641 0.960 . S
H643 N623 0.862 . S
O644 Co612 1.920 . S
O644 C617 1.289 . S
C645 O637 1.258 . S
C645 O638 1.266 . S
Co646 O649 1.970 . S
Co646 N663 1.989 . S
Co646 O671 1.967 . S
Co646 O678 1.920 . S
Co647 O650 1.966 . S
Co647 N656 2.022 . S
Co647 N664 1.993 . S
Co647 O672 1.941 . S
C648 O649 1.258 . S
C648 O650 1.263 . S
O649 Co646 1.970 . S
O649 C648 1.258 . S
O650 Co647 1.966 . S
O650 C648 1.263 . S
C651 O652 1.235 . S
C651 O678 1.289 . S
O652 C651 1.235 . S
C653 C655 1.400 . S
C653 N656 1.351 . S
C653 C658 1.501 . S
C654 C655 1.387 . S
C654 N657 1.341 . S
C655 C653 1.400 . S
C655 C654 1.387 . S
N656 Co647 2.022 . S
N656 C653 1.351 . S
N656 N657 1.365 . S
N657 C654 1.341 . S
N657 N656 1.365 . S
N657 H677 0.862 . S
C658 C653 1.501 . S
C658 H659 0.961 . S
C658 H660 0.961 . S
C658 H661 0.960 . S
H659 C658 0.961 . S
H660 C658 0.961 . S
H661 C658 0.960 . S
C662 N663 1.342 . S
C662 C666 1.401 . S
C662 C667 1.499 . S
N663 Co646 1.989 . S
N663 C662 1.342 . S
N663 N664 1.388 . S
N664 Co647 1.993 . S
N664 N663 1.388 . S
N664 C665 1.346 . S
C665 N664 1.346 . S
C665 C666 1.396 . S
C665 C675 1.510 . S
C666 C662 1.401 . S
C666 C665 1.396 . S
C667 C662 1.499 . S
C667 H668 0.959 . S
C667 H669 0.960 . S
C667 H670 0.961 . S
H668 C667 0.959 . S
H669 C667 0.960 . S
H670 C667 0.961 . S
O671 Co646 1.967 . S
O671 C679 1.258 . S
O672 Co647 1.941 . S
O672 C679 1.266 . S
H673 C675 0.959 . S
H674 C675 0.961 . S
C675 C665 1.510 . S
C675 H673 0.959 . S
C675 H674 0.961 . S
C675 H676 0.960 . S
H676 C675 0.960 . S
H677 N657 0.862 . S
O678 Co646 1.920 . S
O678 C651 1.289 . S
C679 O671 1.258 . S
C679 O672 1.266 . S
Co680 O683 1.970 . S
Co680 N697 1.989 . S
Co680 O705 1.967 . S
Co680 O712 1.920 . S
Co681 O684 1.966 . S
Co681 N690 2.022 . S
Co681 N698 1.993 . S
Co681 O706 1.941 . S
C682 O683 1.258 . S
C682 O684 1.263 . S
O683 Co680 1.970 . S
O683 C682 1.258 . S
O684 Co681 1.966 . S
O684 C682 1.263 . S
C685 O686 1.235 . S
C685 O712 1.289 . S
O686 C685 1.235 . S
C687 C689 1.400 . S
C687 N690 1.351 . S
C687 C692 1.501 . S
C688 C689 1.387 . S
C688 N691 1.341 . S
C689 C687 1.400 . S
C689 C688 1.387 . S
N690 Co681 2.022 . S
N690 C687 1.351 . S
N690 N691 1.365 . S
N691 C688 1.341 . S
N691 N690 1.365 . S
N691 H711 0.862 . S
C692 C687 1.501 . S
C692 H693 0.961 . S
C692 H694 0.961 . S
C692 H695 0.960 . S
H693 C692 0.961 . S
H694 C692 0.961 . S
H695 C692 0.960 . S
C696 N697 1.342 . S
C696 C700 1.401 . S
C696 C701 1.499 . S
N697 Co680 1.989 . S
N697 C696 1.342 . S
N697 N698 1.388 . S
N698 Co681 1.993 . S
N698 N697 1.388 . S
N698 C699 1.346 . S
C699 N698 1.346 . S
C699 C700 1.396 . S
C699 C709 1.510 . S
C700 C696 1.401 . S
C700 C699 1.396 . S
C701 C696 1.499 . S
C701 H702 0.959 . S
C701 H703 0.960 . S
C701 H704 0.961 . S
H702 C701 0.959 . S
H703 C701 0.960 . S
H704 C701 0.961 . S
O705 Co680 1.967 . S
O705 C713 1.258 . S
O706 Co681 1.941 . S
O706 C713 1.266 . S
H707 C709 0.959 . S
H708 C709 0.961 . S
C709 C699 1.510 . S
C709 H707 0.959 . S
C709 H708 0.961 . S
C709 H710 0.960 . S
H710 C709 0.960 . S
H711 N691 0.862 . S
O712 Co680 1.920 . S
O712 C685 1.289 . S
C713 O705 1.258 . S
C713 O706 1.266 . S
Co714 O717 1.970 . S
Co714 N731 1.989 . S
Co714 O739 1.967 . S
Co714 O746 1.920 . S
Co715 O718 1.966 . S
Co715 N724 2.022 . S
Co715 N732 1.993 . S
Co715 O740 1.941 . S
C716 O717 1.258 . S
C716 O718 1.263 . S
O717 Co714 1.970 . S
O717 C716 1.258 . S
O718 Co715 1.966 . S
O718 C716 1.263 . S
C719 O720 1.235 . S
C719 O746 1.289 . S
O720 C719 1.235 . S
C721 C723 1.400 . S
C721 N724 1.351 . S
C721 C726 1.501 . S
C722 C723 1.387 . S
C722 N725 1.341 . S
C723 C721 1.400 . S
C723 C722 1.387 . S
N724 Co715 2.022 . S
N724 C721 1.351 . S
N724 N725 1.365 . S
N725 C722 1.341 . S
N725 N724 1.365 . S
N725 H745 0.862 . S
C726 C721 1.501 . S
C726 H727 0.961 . S
C726 H728 0.961 . S
C726 H729 0.960 . S
H727 C726 0.961 . S
H728 C726 0.961 . S
H729 C726 0.960 . S
C730 N731 1.342 . S
C730 C734 1.401 . S
C730 C735 1.499 . S
N731 Co714 1.989 . S
N731 C730 1.342 . S
N731 N732 1.388 . S
N732 Co715 1.993 . S
N732 N731 1.388 . S
N732 C733 1.346 . S
C733 N732 1.346 . S
C733 C734 1.396 . S
C733 C743 1.510 . S
C734 C730 1.401 . S
C734 C733 1.396 . S
C735 C730 1.499 . S
C735 H736 0.959 . S
C735 H737 0.960 . S
C735 H738 0.961 . S
H736 C735 0.959 . S
H737 C735 0.960 . S
H738 C735 0.961 . S
O739 Co714 1.967 . S
O739 C747 1.258 . S
O740 Co715 1.941 . S
O740 C747 1.266 . S
H741 C743 0.959 . S
H742 C743 0.961 . S
C743 C733 1.510 . S
C743 H741 0.959 . S
C743 H742 0.961 . S
C743 H744 0.960 . S
H744 C743 0.960 . S
H745 N725 0.862 . S
O746 Co714 1.920 . S
O746 C719 1.289 . S
C747 O739 1.258 . S
C747 O740 1.266 . S
Co748 O751 1.970 . S
Co748 N765 1.989 . S
Co748 O773 1.967 . S
Co748 O780 1.920 . S
Co749 O752 1.966 . S
Co749 N758 2.022 . S
Co749 N766 1.993 . S
Co749 O774 1.941 . S
C750 O751 1.258 . S
C750 O752 1.263 . S
O751 Co748 1.970 . S
O751 C750 1.258 . S
O752 Co749 1.966 . S
O752 C750 1.263 . S
C753 O754 1.235 . S
C753 O780 1.289 . S
O754 C753 1.235 . S
C755 C757 1.400 . S
C755 N758 1.351 . S
C755 C760 1.501 . S
C756 C757 1.387 . S
C756 N759 1.341 . S
C757 C755 1.400 . S
C757 C756 1.387 . S
N758 Co749 2.022 . S
N758 C755 1.351 . S
N758 N759 1.365 . S
N759 C756 1.341 . S
N759 N758 1.365 . S
N759 H779 0.862 . S
C760 C755 1.501 . S
C760 H761 0.961 . S
C760 H762 0.961 . S
C760 H763 0.960 . S
H761 C760 0.961 . S
H762 C760 0.961 . S
H763 C760 0.960 . S
C764 N765 1.343 . S
C764 C768 1.400 1_554 S
C764 C769 1.499 1_554 S
N765 Co748 1.989 . S
N765 C764 1.343 . S
N765 N766 1.388 . S
N766 Co749 1.993 . S
N766 N765 1.388 . S
N766 C767 1.346 1_554 S
C767 N766 1.346 1_556 S
C767 C768 1.396 . S
C767 C777 1.510 . S
C768 C764 1.400 1_556 S
C768 C767 1.396 . S
C769 C764 1.499 1_556 S
C769 H770 0.959 1_556 S
C769 H771 0.960 . S
C769 H772 0.961 . S
H770 C769 0.959 1_554 S
H771 C769 0.960 . S
H772 C769 0.961 . S
O773 Co748 1.967 . S
O773 C781 1.258 . S
O774 Co749 1.941 . S
O774 C781 1.266 . S
H775 C777 0.959 . S
H776 C777 0.961 . S
C777 C767 1.510 . S
C777 H775 0.959 . S
C777 H776 0.961 . S
C777 H778 0.960 1_556 S
H778 C777 0.960 1_554 S
H779 N759 0.862 . S
O780 Co748 1.920 . S
O780 C753 1.289 . S
C781 O773 1.258 . S
C781 O774 1.266 . S
Co782 O785 1.970 . S
Co782 N799 1.989 . S
Co782 O807 1.967 . S
Co782 O814 1.920 . S
Co783 O786 1.966 . S
Co783 N792 2.022 . S
Co783 N800 1.993 . S
Co783 O808 1.941 . S
C784 O785 1.258 . S
C784 O786 1.263 . S
O785 Co782 1.970 . S
O785 C784 1.258 . S
O786 Co783 1.966 . S
O786 C784 1.263 . S
C787 O788 1.235 . S
C787 O814 1.289 . S
O788 C787 1.235 . S
C789 C791 1.400 . S
C789 N792 1.351 . S
C789 C794 1.501 . S
C790 C791 1.387 . S
C790 N793 1.341 . S
C791 C789 1.400 . S
C791 C790 1.387 . S
N792 Co783 2.022 . S
N792 C789 1.351 . S
N792 N793 1.365 . S
N793 C790 1.341 . S
N793 N792 1.365 . S
N793 H813 0.862 . S
C794 C789 1.501 . S
C794 H795 0.961 . S
C794 H796 0.961 . S
C794 H797 0.960 . S
H795 C794 0.961 . S
H796 C794 0.961 . S
H797 C794 0.960 . S
C798 N799 1.342 . S
C798 C802 1.401 . S
C798 C803 1.499 . S
N799 Co782 1.989 . S
N799 C798 1.342 . S
N799 N800 1.388 . S
N800 Co783 1.993 . S
N800 N799 1.388 . S
N800 C801 1.346 . S
C801 N800 1.346 . S
C801 C802 1.396 . S
C801 C811 1.510 . S
C802 C798 1.401 . S
C802 C801 1.396 . S
C803 C798 1.499 . S
C803 H804 0.959 . S
C803 H805 0.960 . S
C803 H806 0.961 . S
H804 C803 0.959 . S
H805 C803 0.960 . S
H806 C803 0.961 . S
O807 Co782 1.967 . S
O807 C815 1.258 . S
O808 Co783 1.941 . S
O808 C815 1.266 . S
H809 C811 0.959 . S
H810 C811 0.961 . S
C811 C801 1.510 . S
C811 H809 0.959 . S
C811 H810 0.961 . S
C811 H812 0.960 . S
H812 C811 0.960 . S
H813 N793 0.862 . S
O814 Co782 1.920 . S
O814 C787 1.289 . S
C815 O807 1.258 . S
C815 O808 1.266 . S
Co816 O819 1.970 . S
Co816 N833 1.989 . S
Co816 O841 1.967 . S
Co816 O848 1.920 . S
Co817 O820 1.966 . S
Co817 N826 2.022 . S
Co817 N834 1.993 . S
Co817 O842 1.941 . S
C818 O819 1.258 . S
C818 O820 1.263 . S
O819 Co816 1.970 . S
O819 C818 1.258 . S
O820 Co817 1.966 . S
O820 C818 1.263 . S
C821 O822 1.235 . S
C821 O848 1.289 . S
O822 C821 1.235 . S
C823 C825 1.400 . S
C823 N826 1.351 . S
C823 C828 1.501 . S
C824 C825 1.387 . S
C824 N827 1.341 . S
C825 C823 1.400 . S
C825 C824 1.387 . S
N826 Co817 2.022 . S
N826 C823 1.351 . S
N826 N827 1.365 . S
N827 C824 1.341 . S
N827 N826 1.365 . S
N827 H847 0.862 . S
C828 C823 1.501 . S
C828 H829 0.961 . S
C828 H830 0.961 . S
C828 H831 0.960 . S
H829 C828 0.961 . S
H830 C828 0.961 . S
H831 C828 0.960 . S
C832 N833 1.343 . S
C832 C836 1.400 1_554 S
C832 C837 1.499 1_554 S
N833 Co816 1.989 . S
N833 C832 1.343 . S
N833 N834 1.388 . S
N834 Co817 1.993 . S
N834 N833 1.388 . S
N834 C835 1.346 1_554 S
C835 N834 1.346 1_556 S
C835 C836 1.396 . S
C835 C845 1.510 . S
C836 C832 1.400 1_556 S
C836 C835 1.396 . S
C837 C832 1.499 1_556 S
C837 H838 0.959 1_556 S
C837 H839 0.960 . S
C837 H840 0.961 . S
H838 C837 0.959 1_554 S
H839 C837 0.960 . S
H840 C837 0.961 . S
O841 Co816 1.967 . S
O841 C849 1.258 . S
O842 Co817 1.941 . S
O842 C849 1.266 . S
H843 C845 0.959 . S
H844 C845 0.961 . S
C845 C835 1.510 . S
C845 H843 0.959 . S
C845 H844 0.961 . S
C845 H846 0.960 1_556 S
H846 C845 0.960 1_554 S
H847 N827 0.862 . S
O848 Co816 1.920 . S
O848 C821 1.289 . S
C849 O841 1.258 . S
C849 O842 1.266 . S
Co850 O853 1.970 . S
Co850 N867 1.989 . S
Co850 O875 1.967 . S
Co850 O882 1.920 . S
Co851 O854 1.966 . S
Co851 N860 2.022 . S
Co851 N868 1.993 . S
Co851 O876 1.941 . S
C852 O853 1.258 . S
C852 O854 1.263 . S
O853 Co850 1.970 . S
O853 C852 1.258 . S
O854 Co851 1.966 . S
O854 C852 1.263 . S
C855 O856 1.235 . S
C855 O882 1.289 . S
O856 C855 1.235 . S
C857 C859 1.400 . S
C857 N860 1.351 . S
C857 C862 1.501 . S
C858 C859 1.387 . S
C858 N861 1.341 . S
C859 C857 1.400 . S
C859 C858 1.387 . S
N860 Co851 2.022 . S
N860 C857 1.351 . S
N860 N861 1.365 . S
N861 C858 1.341 . S
N861 N860 1.365 . S
N861 H881 0.862 . S
C862 C857 1.501 . S
C862 H863 0.961 . S
C862 H864 0.961 . S
C862 H865 0.960 . S
H863 C862 0.961 . S
H864 C862 0.961 . S
H865 C862 0.960 . S
C866 N867 1.342 . S
C866 C870 1.401 . S
C866 C871 1.499 . S
N867 Co850 1.989 . S
N867 C866 1.342 . S
N867 N868 1.388 . S
N868 Co851 1.993 . S
N868 N867 1.388 . S
N868 C869 1.346 . S
C869 N868 1.346 . S
C869 C870 1.396 . S
C869 C879 1.510 . S
C870 C866 1.401 . S
C870 C869 1.396 . S
C871 C866 1.499 . S
C871 H872 0.959 . S
C871 H873 0.960 . S
C871 H874 0.961 . S
H872 C871 0.959 . S
H873 C871 0.960 . S
H874 C871 0.961 . S
O875 Co850 1.967 . S
O875 C883 1.258 . S
O876 Co851 1.941 . S
O876 C883 1.266 . S
H877 C879 0.959 . S
H878 C879 0.961 . S
C879 C869 1.510 . S
C879 H877 0.959 . S
C879 H878 0.961 . S
C879 H880 0.960 . S
H880 C879 0.960 . S
H881 N861 0.862 . S
O882 Co850 1.920 . S
O882 C855 1.289 . S
C883 O875 1.258 . S
C883 O876 1.266 . S
Co884 O887 1.970 . S
Co884 N901 1.989 . S
Co884 O909 1.967 . S
Co884 O916 1.920 . S
Co885 O888 1.966 . S
Co885 N894 2.022 . S
Co885 N902 1.993 . S
Co885 O910 1.941 . S
C886 O887 1.258 . S
C886 O888 1.263 . S
O887 Co884 1.970 . S
O887 C886 1.258 . S
O888 Co885 1.966 . S
O888 C886 1.263 . S
C889 O890 1.235 . S
C889 O916 1.289 . S
O890 C889 1.235 . S
C891 C893 1.400 . S
C891 N894 1.351 . S
C891 C896 1.501 . S
C892 C893 1.387 . S
C892 N895 1.341 . S
C893 C891 1.400 . S
C893 C892 1.387 . S
N894 Co885 2.022 . S
N894 C891 1.351 . S
N894 N895 1.365 . S
N895 C892 1.341 . S
N895 N894 1.365 . S
N895 H915 0.862 . S
C896 C891 1.501 . S
C896 H897 0.961 . S
C896 H898 0.961 . S
C896 H899 0.960 . S
H897 C896 0.961 . S
H898 C896 0.961 . S
H899 C896 0.960 . S
C900 N901 1.342 . S
C900 C904 1.401 . S
C900 C905 1.499 . S
N901 Co884 1.989 . S
N901 C900 1.342 . S
N901 N902 1.388 . S
N902 Co885 1.993 . S
N902 N901 1.388 . S
N902 C903 1.346 . S
C903 N902 1.346 . S
C903 C904 1.396 . S
C903 C913 1.510 . S
C904 C900 1.401 . S
C904 C903 1.396 . S
C905 C900 1.499 . S
C905 H906 0.959 . S
C905 H907 0.960 . S
C905 H908 0.961 . S
H906 C905 0.959 . S
H907 C905 0.960 . S
H908 C905 0.961 . S
O909 Co884 1.967 . S
O909 C917 1.258 . S
O910 Co885 1.941 . S
O910 C917 1.266 . S
H911 C913 0.959 . S
H912 C913 0.961 . S
C913 C903 1.510 . S
C913 H911 0.959 . S
C913 H912 0.961 . S
C913 H914 0.960 . S
H914 C913 0.960 . S
H915 N895 0.862 . S
O916 Co884 1.920 . S
O916 C889 1.289 . S
C917 O909 1.258 . S
C917 O910 1.266 . S
Co918 O921 1.970 . S
Co918 N935 1.989 . S
Co918 O943 1.967 . S
Co918 O950 1.920 . S
Co919 O922 1.966 . S
Co919 N928 2.022 . S
Co919 N936 1.993 . S
Co919 O944 1.941 . S
C920 O921 1.258 . S
C920 O922 1.263 . S
O921 Co918 1.970 . S
O921 C920 1.258 . S
O922 Co919 1.966 . S
O922 C920 1.263 . S
C923 O924 1.235 . S
C923 O950 1.289 . S
O924 C923 1.235 . S
C925 C927 1.400 . S
C925 N928 1.351 . S
C925 C930 1.501 . S
C926 C927 1.387 . S
C926 N929 1.341 . S
C927 C925 1.400 . S
C927 C926 1.387 . S
N928 Co919 2.022 . S
N928 C925 1.351 . S
N928 N929 1.365 . S
N929 C926 1.341 . S
N929 N928 1.365 . S
N929 H949 0.862 . S
C930 C925 1.501 . S
C930 H931 0.961 . S
C930 H932 0.961 . S
C930 H933 0.960 . S
H931 C930 0.961 . S
H932 C930 0.961 . S
H933 C930 0.960 . S
C934 N935 1.342 . S
C934 C938 1.401 . S
C934 C939 1.499 . S
N935 Co918 1.989 . S
N935 C934 1.342 . S
N935 N936 1.388 . S
N936 Co919 1.993 . S
N936 N935 1.388 . S
N936 C937 1.346 . S
C937 N936 1.346 . S
C937 C938 1.396 . S
C937 C947 1.510 . S
C938 C934 1.401 . S
C938 C937 1.396 . S
C939 C934 1.499 . S
C939 H940 0.959 . S
C939 H941 0.960 . S
C939 H942 0.961 . S
H940 C939 0.959 . S
H941 C939 0.960 . S
H942 C939 0.961 . S
O943 Co918 1.967 . S
O943 C951 1.258 . S
O944 Co919 1.941 . S
O944 C951 1.266 . S
H945 C947 0.959 . S
H946 C947 0.961 . S
C947 C937 1.510 . S
C947 H945 0.959 . S
C947 H946 0.961 . S
C947 H948 0.960 . S
H948 C947 0.960 . S
H949 N929 0.862 . S
O950 Co918 1.920 . S
O950 C923 1.289 . S
C951 O943 1.258 . S
C951 O944 1.266 . S
Co952 O955 1.970 . S
Co952 N969 1.989 . S
Co952 O977 1.967 . S
Co952 O984 1.920 . S
Co953 O956 1.966 . S
Co953 N962 2.022 . S
Co953 N970 1.993 . S
Co953 O978 1.941 . S
C954 O955 1.258 . S
C954 O956 1.263 . S
O955 Co952 1.970 . S
O955 C954 1.258 . S
O956 Co953 1.966 . S
O956 C954 1.263 . S
C957 O958 1.235 . S
C957 O984 1.289 . S
O958 C957 1.235 . S
C959 C961 1.400 . S
C959 N962 1.351 . S
C959 C964 1.501 . S
C960 C961 1.387 . S
C960 N963 1.341 . S
C961 C959 1.400 . S
C961 C960 1.387 . S
N962 Co953 2.022 . S
N962 C959 1.351 . S
N962 N963 1.365 . S
N963 C960 1.341 . S
N963 N962 1.365 . S
N963 H983 0.862 . S
C964 C959 1.501 . S
C964 H965 0.961 . S
C964 H966 0.961 . S
C964 H967 0.960 . S
H965 C964 0.961 . S
H966 C964 0.961 . S
H967 C964 0.960 . S
C968 N969 1.342 . S
C968 C972 1.401 . S
C968 C973 1.499 . S
N969 Co952 1.989 . S
N969 C968 1.342 . S
N969 N970 1.388 . S
N970 Co953 1.993 . S
N970 N969 1.388 . S
N970 C971 1.346 . S
C971 N970 1.346 . S
C971 C972 1.396 . S
C971 C981 1.510 . S
C972 C968 1.401 . S
C972 C971 1.396 . S
C973 C968 1.499 . S
C973 H974 0.959 . S
C973 H975 0.960 . S
C973 H976 0.961 . S
H974 C973 0.959 . S
H975 C973 0.960 . S
H976 C973 0.961 . S
O977 Co952 1.967 . S
O977 C985 1.258 . S
O978 Co953 1.941 . S
O978 C985 1.266 . S
H979 C981 0.959 . S
H980 C981 0.961 . S
C981 C971 1.510 . S
C981 H979 0.959 . S
C981 H980 0.961 . S
C981 H982 0.960 . S
H982 C981 0.960 . S
H983 N963 0.862 . S
O984 Co952 1.920 . S
O984 C957 1.289 . S
C985 O977 1.258 . S
C985 O978 1.266 . S
Co986 O989 1.970 . S
Co986 N1003 1.989 . S
Co986 O1011 1.967 . S
Co986 O1018 1.920 . S
Co987 O990 1.966 . S
Co987 N996 2.022 . S
Co987 N1004 1.993 . S
Co987 O1012 1.941 . S
C988 O989 1.258 . S
C988 O990 1.263 . S
O989 Co986 1.970 . S
O989 C988 1.258 . S
O990 Co987 1.966 . S
O990 C988 1.263 . S
C991 O992 1.235 . S
C991 O1018 1.289 . S
O992 C991 1.235 . S
C993 C995 1.400 . S
C993 N996 1.351 . S
C993 C998 1.501 . S
C994 C995 1.387 . S
C994 N997 1.341 . S
C995 C993 1.400 . S
C995 C994 1.387 . S
N996 Co987 2.022 . S
N996 C993 1.351 . S
N996 N997 1.365 . S
N997 C994 1.341 . S
N997 N996 1.365 . S
N997 H1017 0.862 . S
C998 C993 1.501 . S
C998 H999 0.961 . S
C998 H1000 0.961 . S
C998 H1001 0.960 . S
H999 C998 0.961 . S
H1000 C998 0.961 . S
H1001 C998 0.960 . S
C1002 N1003 1.342 . S
C1002 C1006 1.401 . S
C1002 C1007 1.499 . S
N1003 Co986 1.989 . S
N1003 C1002 1.342 . S
N1003 N1004 1.388 . S
N1004 Co987 1.993 . S
N1004 N1003 1.388 . S
N1004 C1005 1.346 . S
C1005 N1004 1.346 . S
C1005 C1006 1.396 . S
C1005 C1015 1.510 . S
C1006 C1002 1.401 . S
C1006 C1005 1.396 . S
C1007 C1002 1.499 . S
C1007 H1008 0.959 . S
C1007 H1009 0.960 . S
C1007 H1010 0.961 . S
H1008 C1007 0.959 . S
H1009 C1007 0.960 . S
H1010 C1007 0.961 . S
O1011 Co986 1.967 . S
O1011 C1019 1.258 . S
O1012 Co987 1.941 . S
O1012 C1019 1.266 . S
H1013 C1015 0.959 . S
H1014 C1015 0.961 . S
C1015 C1005 1.510 . S
C1015 H1013 0.959 . S
C1015 H1014 0.961 . S
C1015 H1016 0.960 . S
H1016 C1015 0.960 . S
H1017 N997 0.862 . S
O1018 Co986 1.920 . S
O1018 C991 1.289 . S
C1019 O1011 1.258 . S
C1019 O1012 1.266 . S
Co1020 O1023 1.970 . S
Co1020 N1037 1.989 . S
Co1020 O1045 1.967 . S
Co1020 O1052 1.920 . S
Co1021 O1024 1.966 . S
Co1021 N1030 2.022 . S
Co1021 N1038 1.993 . S
Co1021 O1046 1.941 . S
C1022 O1023 1.258 . S
C1022 O1024 1.263 . S
O1023 Co1020 1.970 . S
O1023 C1022 1.258 . S
O1024 Co1021 1.966 . S
O1024 C1022 1.263 . S
C1025 O1026 1.235 . S
C1025 O1052 1.289 . S
O1026 C1025 1.235 . S
C1027 C1029 1.400 . S
C1027 N1030 1.351 . S
C1027 C1032 1.501 . S
C1028 C1029 1.387 . S
C1028 N1031 1.341 . S
C1029 C1027 1.400 . S
C1029 C1028 1.387 . S
N1030 Co1021 2.022 . S
N1030 C1027 1.351 . S
N1030 N1031 1.365 . S
N1031 C1028 1.341 . S
N1031 N1030 1.365 . S
N1031 H1051 0.862 . S
C1032 C1027 1.501 . S
C1032 H1033 0.961 . S
C1032 H1034 0.961 . S
C1032 H1035 0.960 . S
H1033 C1032 0.961 . S
H1034 C1032 0.961 . S
H1035 C1032 0.960 . S
C1036 N1037 1.343 . S
C1036 C1040 1.400 1_556 S
C1036 C1041 1.499 1_556 S
N1037 Co1020 1.989 . S
N1037 C1036 1.343 . S
N1037 N1038 1.388 . S
N1038 Co1021 1.993 . S
N1038 N1037 1.388 . S
N1038 C1039 1.346 1_556 S
C1039 N1038 1.346 1_554 S
C1039 C1040 1.396 . S
C1039 C1049 1.510 . S
C1040 C1036 1.400 1_554 S
C1040 C1039 1.396 . S
C1041 C1036 1.499 1_554 S
C1041 H1042 0.959 1_554 S
C1041 H1043 0.960 . S
C1041 H1044 0.961 . S
H1042 C1041 0.959 1_556 S
H1043 C1041 0.960 . S
H1044 C1041 0.961 . S
O1045 Co1020 1.967 . S
O1045 C1053 1.258 . S
O1046 Co1021 1.941 . S
O1046 C1053 1.266 . S
H1047 C1049 0.959 . S
H1048 C1049 0.961 . S
C1049 C1039 1.510 . S
C1049 H1047 0.959 . S
C1049 H1048 0.961 . S
C1049 H1050 0.960 1_554 S
H1050 C1049 0.960 1_556 S
H1051 N1031 0.862 . S
O1052 Co1020 1.920 . S
O1052 C1025 1.289 . S
C1053 O1045 1.258 . S
C1053 O1046 1.266 . S
Co1054 O1057 1.970 . S
Co1054 N1071 1.989 . S
Co1054 O1079 1.967 . S
Co1054 O1086 1.920 . S
Co1055 O1058 1.966 . S
Co1055 N1064 2.022 . S
Co1055 N1072 1.993 . S
Co1055 O1080 1.941 . S
C1056 O1057 1.258 . S
C1056 O1058 1.263 . S
O1057 Co1054 1.970 . S
O1057 C1056 1.258 . S
O1058 Co1055 1.966 . S
O1058 C1056 1.263 . S
C1059 O1060 1.235 . S
C1059 O1086 1.289 . S
O1060 C1059 1.235 . S
C1061 C1063 1.400 . S
C1061 N1064 1.351 . S
C1061 C1066 1.501 . S
C1062 C1063 1.387 . S
C1062 N1065 1.341 . S
C1063 C1061 1.400 . S
C1063 C1062 1.387 . S
N1064 Co1055 2.022 . S
N1064 C1061 1.351 . S
N1064 N1065 1.365 . S
N1065 C1062 1.341 . S
N1065 N1064 1.365 . S
N1065 H1085 0.862 . S
C1066 C1061 1.501 . S
C1066 H1067 0.961 . S
C1066 H1068 0.961 . S
C1066 H1069 0.960 . S
H1067 C1066 0.961 . S
H1068 C1066 0.961 . S
H1069 C1066 0.960 . S
C1070 N1071 1.342 . S
C1070 C1074 1.401 . S
C1070 C1075 1.499 . S
N1071 Co1054 1.989 . S
N1071 C1070 1.342 . S
N1071 N1072 1.388 . S
N1072 Co1055 1.993 . S
N1072 N1071 1.388 . S
N1072 C1073 1.346 . S
C1073 N1072 1.346 . S
C1073 C1074 1.396 . S
C1073 C1083 1.510 . S
C1074 C1070 1.401 . S
C1074 C1073 1.396 . S
C1075 C1070 1.499 . S
C1075 H1076 0.959 . S
C1075 H1077 0.960 . S
C1075 H1078 0.961 . S
H1076 C1075 0.959 . S
H1077 C1075 0.960 . S
H1078 C1075 0.961 . S
O1079 Co1054 1.967 . S
O1079 C1087 1.258 . S
O1080 Co1055 1.941 . S
O1080 C1087 1.266 . S
H1081 C1083 0.959 . S
H1082 C1083 0.961 . S
C1083 C1073 1.510 . S
C1083 H1081 0.959 . S
C1083 H1082 0.961 . S
C1083 H1084 0.960 . S
H1084 C1083 0.960 . S
H1085 N1065 0.862 . S
O1086 Co1054 1.920 . S
O1086 C1059 1.289 . S
C1087 O1079 1.258 . S
C1087 O1080 1.266 . S
C1088 C1089 1.363 . S
C1088 C1094 1.379 . S
C1088 N1096 1.356 . S
C1089 C1088 1.363 . S
C1089 C1095 1.363 . S
C1090 C1091 1.363 . S
C1090 C1095 1.379 . S
C1090 N1097 1.356 . S
C1091 C1090 1.363 . S
C1091 C1094 1.363 . S
N1092 C1094 1.356 . S
N1092 H1104 0.984 . S
N1092 H1105 0.985 . S
N1093 C1095 1.356 . S
N1093 H1098 0.984 . S
N1093 H1099 0.985 . S
C1094 C1088 1.379 . S
C1094 C1091 1.363 . S
C1094 N1092 1.356 . S
C1095 C1089 1.363 . S
C1095 C1090 1.379 . S
C1095 N1093 1.356 . S
N1096 C1088 1.356 . S
N1096 H1102 0.984 . S
N1096 H1103 0.984 1_554 S
N1097 C1090 1.356 . S
N1097 H1100 0.984 . S
N1097 H1101 0.985 . S
H1098 N1093 0.984 . S
H1099 N1093 0.985 . S
H1100 N1097 0.984 . S
H1101 N1097 0.985 . S
H1102 N1096 0.984 . S
H1103 N1096 0.984 1_556 S
H1104 N1092 0.984 . S
H1105 N1092 0.985 . S
C1106 C1107 1.363 . S
C1106 C1112 1.379 . S
C1106 N1114 1.356 . S
C1107 C1106 1.363 . S
C1107 C1113 1.363 . S
C1108 C1109 1.363 . S
C1108 C1113 1.379 . S
C1108 N1115 1.356 . S
C1109 C1108 1.363 . S
C1109 C1112 1.363 . S
N1110 C1112 1.356 . S
N1110 H1122 0.984 . S
N1110 H1123 0.985 . S
N1111 C1113 1.356 . S
N1111 H1116 0.984 . S
N1111 H1117 0.985 . S
C1112 C1106 1.379 . S
C1112 C1109 1.363 . S
C1112 N1110 1.356 . S
C1113 C1107 1.363 . S
C1113 C1108 1.379 . S
C1113 N1111 1.356 . S
N1114 C1106 1.356 . S
N1114 H1120 0.984 . S
N1114 H1121 0.984 . S
N1115 C1108 1.356 . S
N1115 H1118 0.984 . S
N1115 H1119 0.985 . S
H1116 N1111 0.984 . S
H1117 N1111 0.985 . S
H1118 N1115 0.984 . S
H1119 N1115 0.985 . S
H1120 N1114 0.984 . S
H1121 N1114 0.984 . S
H1122 N1110 0.984 . S
H1123 N1110 0.985 . S
C1124 C1125 1.363 . S
C1124 C1130 1.379 . S
C1124 N1132 1.356 . S
C1125 C1124 1.363 . S
C1125 C1131 1.363 . S
C1126 C1127 1.363 . S
C1126 C1131 1.379 . S
C1126 N1133 1.356 . S
C1127 C1126 1.363 . S
C1127 C1130 1.363 . S
N1128 C1130 1.356 . S
N1128 H1140 0.984 . S
N1128 H1141 0.985 . S
N1129 C1131 1.356 . S
N1129 H1134 0.984 . S
N1129 H1135 0.985 . S
C1130 C1124 1.379 . S
C1130 C1127 1.363 . S
C1130 N1128 1.356 . S
C1131 C1125 1.363 . S
C1131 C1126 1.379 . S
C1131 N1129 1.356 . S
N1132 C1124 1.356 . S
N1132 H1138 0.984 . S
N1132 H1139 0.984 . S
N1133 C1126 1.356 . S
N1133 H1136 0.984 . S
N1133 H1137 0.985 . S
H1134 N1129 0.984 . S
H1135 N1129 0.985 . S
H1136 N1133 0.984 . S
H1137 N1133 0.985 . S
H1138 N1132 0.984 . S
H1139 N1132 0.984 . S
H1140 N1128 0.984 . S
H1141 N1128 0.985 . S
C1142 C1143 1.363 . S
C1142 C1148 1.379 . S
C1142 N1150 1.356 . S
C1143 C1142 1.363 . S
C1143 C1149 1.363 . S
C1144 C1145 1.363 . S
C1144 C1149 1.379 . S
C1144 N1151 1.356 . S
C1145 C1144 1.363 . S
C1145 C1148 1.363 . S
N1146 C1148 1.356 . S
N1146 H1158 0.984 . S
N1146 H1159 0.985 . S
N1147 C1149 1.356 . S
N1147 H1152 0.984 . S
N1147 H1153 0.985 . S
C1148 C1142 1.379 . S
C1148 C1145 1.363 . S
C1148 N1146 1.356 . S
C1149 C1143 1.363 . S
C1149 C1144 1.379 . S
C1149 N1147 1.356 . S
N1150 C1142 1.356 . S
N1150 H1156 0.984 . S
N1150 H1157 0.984 . S
N1151 C1144 1.356 . S
N1151 H1154 0.984 . S
N1151 H1155 0.985 . S
H1152 N1147 0.984 . S
H1153 N1147 0.985 . S
H1154 N1151 0.984 . S
H1155 N1151 0.985 . S
H1156 N1150 0.984 . S
H1157 N1150 0.984 . S
H1158 N1146 0.984 . S
H1159 N1146 0.985 . S
C1160 C1161 1.363 . S
C1160 C1166 1.379 . S
C1160 N1168 1.356 . S
C1161 C1160 1.363 . S
C1161 C1167 1.363 . S
C1162 C1163 1.363 . S
C1162 C1167 1.379 . S
C1162 N1169 1.356 . S
C1163 C1162 1.363 . S
C1163 C1166 1.363 . S
N1164 C1166 1.356 . S
N1164 H1176 0.984 . S
N1164 H1177 0.985 1_556 S
N1165 C1167 1.356 . S
N1165 H1170 0.984 . S
N1165 H1171 0.985 . S
C1166 C1160 1.379 . S
C1166 C1163 1.363 . S
C1166 N1164 1.356 . S
C1167 C1161 1.363 . S
C1167 C1162 1.379 . S
C1167 N1165 1.356 . S
N1168 C1160 1.356 . S
N1168 H1174 0.984 . S
N1168 H1175 0.984 . S
N1169 C1162 1.356 . S
N1169 H1172 0.984 . S
N1169 H1173 0.985 . S
H1170 N1165 0.984 . S
H1171 N1165 0.985 . S
H1172 N1169 0.984 . S
H1173 N1169 0.985 . S
H1174 N1168 0.984 . S
H1175 N1168 0.984 . S
H1176 N1164 0.984 . S
H1177 N1164 0.985 1_554 S
C1178 C1179 1.363 . S
C1178 C1184 1.379 . S
C1178 N1186 1.356 . S
C1179 C1178 1.363 . S
C1179 C1185 1.363 . S
C1180 C1181 1.363 . S
C1180 C1185 1.379 . S
C1180 N1187 1.356 . S
C1181 C1180 1.363 . S
C1181 C1184 1.363 . S
N1182 C1184 1.356 . S
N1182 H1194 0.984 . S
N1182 H1195 0.985 . S
N1183 C1185 1.356 . S
N1183 H1188 0.984 . S
N1183 H1189 0.985 . S
C1184 C1178 1.379 . S
C1184 C1181 1.363 . S
C1184 N1182 1.356 . S
C1185 C1179 1.363 . S
C1185 C1180 1.379 . S
C1185 N1183 1.356 . S
N1186 C1178 1.356 . S
N1186 H1192 0.984 . S
N1186 H1193 0.984 . S
N1187 C1180 1.356 . S
N1187 H1190 0.984 . S
N1187 H1191 0.985 . S
H1188 N1183 0.984 . S
H1189 N1183 0.985 . S
H1190 N1187 0.984 . S
H1191 N1187 0.985 . S
H1192 N1186 0.984 . S
H1193 N1186 0.984 . S
H1194 N1182 0.984 . S
H1195 N1182 0.985 . S
C1196 C1197 1.363 . S
C1196 C1202 1.379 . S
C1196 N1204 1.356 . S
C1197 C1196 1.363 . S
C1197 C1203 1.363 . S
C1198 C1199 1.363 . S
C1198 C1203 1.379 . S
C1198 N1205 1.356 . S
C1199 C1198 1.363 . S
C1199 C1202 1.363 . S
N1200 C1202 1.356 . S
N1200 H1212 0.984 . S
N1200 H1213 0.985 . S
N1201 C1203 1.356 . S
N1201 H1206 0.984 . S
N1201 H1207 0.985 . S
C1202 C1196 1.379 . S
C1202 C1199 1.363 . S
C1202 N1200 1.356 . S
C1203 C1197 1.363 . S
C1203 C1198 1.379 . S
C1203 N1201 1.356 . S
N1204 C1196 1.356 . S
N1204 H1210 0.984 . S
N1204 H1211 0.984 . S
N1205 C1198 1.356 . S
N1205 H1208 0.984 . S
N1205 H1209 0.985 . S
H1206 N1201 0.984 . S
H1207 N1201 0.985 . S
H1208 N1205 0.984 . S
H1209 N1205 0.985 . S
H1210 N1204 0.984 . S
H1211 N1204 0.984 . S
H1212 N1200 0.984 . S
H1213 N1200 0.985 . S
C1214 C1215 1.363 . S
C1214 C1220 1.379 . S
C1214 N1222 1.356 . S
C1215 C1214 1.363 . S
C1215 C1221 1.363 . S
C1216 C1217 1.363 . S
C1216 C1221 1.379 . S
C1216 N1223 1.356 . S
C1217 C1216 1.363 . S
C1217 C1220 1.363 . S
N1218 C1220 1.356 . S
N1218 H1230 0.984 . S
N1218 H1231 0.985 . S
N1219 C1221 1.356 . S
N1219 H1224 0.984 . S
N1219 H1225 0.985 . S
C1220 C1214 1.379 . S
C1220 C1217 1.363 . S
C1220 N1218 1.356 . S
C1221 C1215 1.363 . S
C1221 C1216 1.379 . S
C1221 N1219 1.356 . S
N1222 C1214 1.356 . S
N1222 H1228 0.984 . S
N1222 H1229 0.984 . S
N1223 C1216 1.356 . S
N1223 H1226 0.984 1_554 S
N1223 H1227 0.985 . S
H1224 N1219 0.984 . S
H1225 N1219 0.985 . S
H1226 N1223 0.984 1_556 S
H1227 N1223 0.985 . S
H1228 N1222 0.984 . S
H1229 N1222 0.984 . S
H1230 N1218 0.984 . S
H1231 N1218 0.985 . S
C1232 C1233 1.363 . S
C1232 C1238 1.379 . S
C1232 N1240 1.356 . S
C1233 C1232 1.363 . S
C1233 C1239 1.363 . S
C1234 C1235 1.363 . S
C1234 C1239 1.379 . S
C1234 N1241 1.356 . S
C1235 C1234 1.363 . S
C1235 C1238 1.363 . S
N1236 C1238 1.356 . S
N1236 H1248 0.984 . S
N1236 H1249 0.985 . S
N1237 C1239 1.356 . S
N1237 H1242 0.984 . S
N1237 H1243 0.985 . S
C1238 C1232 1.379 . S
C1238 C1235 1.363 . S
C1238 N1236 1.356 . S
C1239 C1233 1.363 . S
C1239 C1234 1.379 . S
C1239 N1237 1.356 . S
N1240 C1232 1.356 . S
N1240 H1246 0.984 . S
N1240 H1247 0.984 . S
N1241 C1234 1.356 . S
N1241 H1244 0.984 . S
N1241 H1245 0.985 . S
H1242 N1237 0.984 . S
H1243 N1237 0.985 . S
H1244 N1241 0.984 . S
H1245 N1241 0.985 . S
H1246 N1240 0.984 . S
H1247 N1240 0.984 . S
H1248 N1236 0.984 . S
H1249 N1236 0.985 . S
C1250 C1251 1.363 . S
C1250 C1256 1.379 . S
C1250 N1258 1.356 . S
C1251 C1250 1.363 . S
C1251 C1257 1.363 . S
C1252 C1253 1.363 . S
C1252 C1257 1.379 . S
C1252 N1259 1.356 . S
C1253 C1252 1.363 . S
C1253 C1256 1.363 . S
N1254 C1256 1.356 . S
N1254 H1266 0.984 . S
N1254 H1267 0.985 . S
N1255 C1257 1.356 . S
N1255 H1260 0.984 . S
N1255 H1261 0.985 . S
C1256 C1250 1.379 . S
C1256 C1253 1.363 . S
C1256 N1254 1.356 . S
C1257 C1251 1.363 . S
C1257 C1252 1.379 . S
C1257 N1255 1.356 . S
N1258 C1250 1.356 . S
N1258 H1264 0.984 . S
N1258 H1265 0.984 . S
N1259 C1252 1.356 . S
N1259 H1262 0.984 . S
N1259 H1263 0.985 . S
H1260 N1255 0.984 . S
H1261 N1255 0.985 . S
H1262 N1259 0.984 . S
H1263 N1259 0.985 . S
H1264 N1258 0.984 . S
H1265 N1258 0.984 . S
H1266 N1254 0.984 . S
H1267 N1254 0.985 . S
C1268 C1269 1.363 . S
C1268 C1274 1.379 . S
C1268 N1276 1.356 . S
C1269 C1268 1.363 . S
C1269 C1275 1.363 . S
C1270 C1271 1.363 . S
C1270 C1275 1.379 . S
C1270 N1277 1.356 . S
C1271 C1270 1.363 . S
C1271 C1274 1.363 . S
N1272 C1274 1.356 . S
N1272 H1284 0.984 . S
N1272 H1285 0.985 . S
N1273 C1275 1.356 . S
N1273 H1278 0.984 1_554 S
N1273 H1279 0.985 . S
C1274 C1268 1.379 . S
C1274 C1271 1.363 . S
C1274 N1272 1.356 . S
C1275 C1269 1.363 . S
C1275 C1270 1.379 . S
C1275 N1273 1.356 . S
N1276 C1268 1.356 . S
N1276 H1282 0.984 . S
N1276 H1283 0.984 . S
N1277 C1270 1.356 . S
N1277 H1280 0.984 . S
N1277 H1281 0.985 . S
H1278 N1273 0.984 1_556 S
H1279 N1273 0.985 . S
H1280 N1277 0.984 . S
H1281 N1277 0.985 . S
H1282 N1276 0.984 . S
H1283 N1276 0.984 . S
H1284 N1272 0.984 . S
H1285 N1272 0.985 . S
C1286 C1287 1.363 . S
C1286 C1292 1.379 . S
C1286 N1294 1.356 . S
C1287 C1286 1.363 . S
C1287 C1293 1.363 . S
C1288 C1289 1.363 . S
C1288 C1293 1.379 . S
C1288 N1295 1.356 . S
C1289 C1288 1.363 . S
C1289 C1292 1.363 . S
N1290 C1292 1.356 . S
N1290 H1302 0.984 . S
N1290 H1303 0.985 . S
N1291 C1293 1.356 . S
N1291 H1296 0.984 . S
N1291 H1297 0.985 . S
C1292 C1286 1.379 . S
C1292 C1289 1.363 . S
C1292 N1290 1.356 . S
C1293 C1287 1.363 . S
C1293 C1288 1.379 . S
C1293 N1291 1.356 . S
N1294 C1286 1.356 . S
N1294 H1300 0.984 . S
N1294 H1301 0.984 . S
N1295 C1288 1.356 . S
N1295 H1298 0.984 . S
N1295 H1299 0.985 . S
H1296 N1291 0.984 . S
H1297 N1291 0.985 . S
H1298 N1295 0.984 . S
H1299 N1295 0.985 . S
H1300 N1294 0.984 . S
H1301 N1294 0.984 . S
H1302 N1290 0.984 . S
H1303 N1290 0.985 . S
C1304 C1305 1.363 . S
C1304 C1310 1.379 . S
C1304 N1312 1.356 . S
C1305 C1304 1.363 . S
C1305 C1311 1.363 . S
C1306 C1307 1.363 . S
C1306 C1311 1.379 . S
C1306 N1313 1.356 . S
C1307 C1306 1.363 . S
C1307 C1310 1.363 . S
N1308 C1310 1.356 . S
N1308 H1320 0.984 . S
N1308 H1321 0.985 . S
N1309 C1311 1.356 . S
N1309 H1314 0.984 . S
N1309 H1315 0.985 . S
C1310 C1304 1.379 . S
C1310 C1307 1.363 . S
C1310 N1308 1.356 . S
C1311 C1305 1.363 . S
C1311 C1306 1.379 . S
C1311 N1309 1.356 . S
N1312 C1304 1.356 . S
N1312 H1318 0.984 . S
N1312 H1319 0.984 . S
N1313 C1306 1.356 . S
N1313 H1316 0.984 . S
N1313 H1317 0.985 . S
H1314 N1309 0.984 . S
H1315 N1309 0.985 . S
H1316 N1313 0.984 . S
H1317 N1313 0.985 . S
H1318 N1312 0.984 . S
H1319 N1312 0.984 . S
H1320 N1308 0.984 . S
H1321 N1308 0.985 . S
C1322 C1323 1.363 . S
C1322 C1328 1.379 . S
C1322 N1330 1.356 . S
C1323 C1322 1.363 . S
C1323 C1329 1.363 . S
C1324 C1325 1.363 . S
C1324 C1329 1.379 . S
C1324 N1331 1.356 . S
C1325 C1324 1.363 . S
C1325 C1328 1.363 . S
N1326 C1328 1.356 . S
N1326 H1338 0.984 . S
N1326 H1339 0.985 . S
N1327 C1329 1.356 . S
N1327 H1332 0.984 . S
N1327 H1333 0.985 . S
C1328 C1322 1.379 . S
C1328 C1325 1.363 . S
C1328 N1326 1.356 . S
C1329 C1323 1.363 . S
C1329 C1324 1.379 . S
C1329 N1327 1.356 . S
N1330 C1322 1.356 . S
N1330 H1336 0.984 . S
N1330 H1337 0.984 . S
N1331 C1324 1.356 . S
N1331 H1334 0.984 . S
N1331 H1335 0.985 . S
H1332 N1327 0.984 . S
H1333 N1327 0.985 . S
H1334 N1331 0.984 . S
H1335 N1331 0.985 . S
H1336 N1330 0.984 . S
H1337 N1330 0.984 . S
H1338 N1326 0.984 . S
H1339 N1326 0.985 . S
C1340 C1341 1.363 . S
C1340 C1346 1.379 . S
C1340 N1348 1.356 . S
C1341 C1340 1.363 . S
C1341 C1347 1.363 . S
C1342 C1343 1.363 . S
C1342 C1347 1.379 . S
C1342 N1349 1.356 . S
C1343 C1342 1.363 . S
C1343 C1346 1.363 . S
N1344 C1346 1.356 . S
N1344 H1356 0.984 . S
N1344 H1357 0.985 . S
N1345 C1347 1.356 . S
N1345 H1350 0.984 . S
N1345 H1351 0.985 . S
C1346 C1340 1.379 . S
C1346 C1343 1.363 . S
C1346 N1344 1.356 . S
C1347 C1341 1.363 . S
C1347 C1342 1.379 . S
C1347 N1345 1.356 . S
N1348 C1340 1.356 . S
N1348 H1354 0.984 . S
N1348 H1355 0.984 . S
N1349 C1342 1.356 . S
N1349 H1352 0.984 . S
N1349 H1353 0.985 . S
H1350 N1345 0.984 . S
H1351 N1345 0.985 . S
H1352 N1349 0.984 . S
H1353 N1349 0.985 . S
H1354 N1348 0.984 . S
H1355 N1348 0.984 . S
H1356 N1344 0.984 . S
H1357 N1344 0.985 . S
C1358 C1359 1.363 . S
C1358 C1364 1.379 . S
C1358 N1366 1.356 . S
C1359 C1358 1.363 . S
C1359 C1365 1.363 . S
C1360 C1361 1.363 . S
C1360 C1365 1.379 . S
C1360 N1367 1.356 . S
C1361 C1360 1.363 . S
C1361 C1364 1.363 . S
N1362 C1364 1.356 . S
N1362 H1374 0.984 . S
N1362 H1375 0.985 . S
N1363 C1365 1.356 . S
N1363 H1368 0.984 . S
N1363 H1369 0.985 . S
C1364 C1358 1.379 . S
C1364 C1361 1.363 . S
C1364 N1362 1.356 . S
C1365 C1359 1.363 . S
C1365 C1360 1.379 . S
C1365 N1363 1.356 . S
N1366 C1358 1.356 . S
N1366 H1372 0.984 . S
N1366 H1373 0.984 . S
N1367 C1360 1.356 . S
N1367 H1370 0.984 . S
N1367 H1371 0.985 . S
H1368 N1363 0.984 . S
H1369 N1363 0.985 . S
H1370 N1367 0.984 . S
H1371 N1367 0.985 . S
H1372 N1366 0.984 . S
H1373 N1366 0.984 . S
H1374 N1362 0.984 . S
H1375 N1362 0.985 . S
C1376 C1377 1.363 . S
C1376 C1382 1.379 . S
C1376 N1384 1.356 . S
C1377 C1376 1.363 . S
C1377 C1383 1.363 . S
C1378 C1379 1.363 . S
C1378 C1383 1.379 . S
C1378 N1385 1.356 . S
C1379 C1378 1.363 . S
C1379 C1382 1.363 . S
N1380 C1382 1.356 . S
N1380 H1392 0.984 . S
N1380 H1393 0.985 . S
N1381 C1383 1.356 . S
N1381 H1386 0.984 . S
N1381 H1387 0.985 . S
C1382 C1376 1.379 . S
C1382 C1379 1.363 . S
C1382 N1380 1.356 . S
C1383 C1377 1.363 . S
C1383 C1378 1.379 . S
C1383 N1381 1.356 . S
N1384 C1376 1.356 . S
N1384 H1390 0.984 . S
N1384 H1391 0.984 . S
N1385 C1378 1.356 . S
N1385 H1388 0.984 . S
N1385 H1389 0.985 . S
H1386 N1381 0.984 . S
H1387 N1381 0.985 . S
H1388 N1385 0.984 . S
H1389 N1385 0.985 . S
H1390 N1384 0.984 . S
H1391 N1384 0.984 . S
H1392 N1380 0.984 . S
H1393 N1380 0.985 . S
C1394 C1395 1.363 . S
C1394 C1400 1.379 . S
C1394 N1402 1.356 . S
C1395 C1394 1.363 . S
C1395 C1401 1.363 . S
C1396 C1397 1.363 . S
C1396 C1401 1.379 . S
C1396 N1403 1.356 . S
C1397 C1396 1.363 . S
C1397 C1400 1.363 . S
N1398 C1400 1.356 . S
N1398 H1410 0.984 . S
N1398 H1411 0.985 . S
N1399 C1401 1.356 . S
N1399 H1404 0.984 . S
N1399 H1405 0.985 . S
C1400 C1394 1.379 . S
C1400 C1397 1.363 . S
C1400 N1398 1.356 . S
C1401 C1395 1.363 . S
C1401 C1396 1.379 . S
C1401 N1399 1.356 . S
N1402 C1394 1.356 . S
N1402 H1408 0.984 . S
N1402 H1409 0.984 . S
N1403 C1396 1.356 . S
N1403 H1406 0.984 . S
N1403 H1407 0.985 . S
H1404 N1399 0.984 . S
H1405 N1399 0.985 . S
H1406 N1403 0.984 . S
H1407 N1403 0.985 . S
H1408 N1402 0.984 . S
H1409 N1402 0.984 . S
H1410 N1398 0.984 . S
H1411 N1398 0.985 . S
C1412 C1413 1.363 . S
C1412 C1418 1.379 . S
C1412 N1420 1.356 . S
C1413 C1412 1.363 . S
C1413 C1419 1.363 . S
C1414 C1415 1.363 . S
C1414 C1419 1.379 . S
C1414 N1421 1.356 . S
C1415 C1414 1.363 . S
C1415 C1418 1.363 . S
N1416 C1418 1.356 . S
N1416 H1428 0.984 . S
N1416 H1429 0.985 . S
N1417 C1419 1.356 . S
N1417 H1422 0.984 . S
N1417 H1423 0.985 . S
C1418 C1412 1.379 . S
C1418 C1415 1.363 . S
C1418 N1416 1.356 . S
C1419 C1413 1.363 . S
C1419 C1414 1.379 . S
C1419 N1417 1.356 . S
N1420 C1412 1.356 . S
N1420 H1426 0.984 . S
N1420 H1427 0.984 1_554 S
N1421 C1414 1.356 . S
N1421 H1424 0.984 . S
N1421 H1425 0.985 . S
H1422 N1417 0.984 . S
H1423 N1417 0.985 . S
H1424 N1421 0.984 . S
H1425 N1421 0.985 . S
H1426 N1420 0.984 . S
H1427 N1420 0.984 1_556 S
H1428 N1416 0.984 . S
H1429 N1416 0.985 . S
C1430 C1431 1.363 . S
C1430 C1436 1.379 . S
C1430 N1438 1.356 . S
C1431 C1430 1.363 . S
C1431 C1437 1.363 . S
C1432 C1433 1.363 . S
C1432 C1437 1.379 . S
C1432 N1439 1.356 . S
C1433 C1432 1.363 . S
C1433 C1436 1.363 . S
N1434 C1436 1.356 . S
N1434 H1446 0.984 . S
N1434 H1447 0.985 . S
N1435 C1437 1.356 . S
N1435 H1440 0.984 . S
N1435 H1441 0.985 . S
C1436 C1430 1.379 . S
C1436 C1433 1.363 . S
C1436 N1434 1.356 . S
C1437 C1431 1.363 . S
C1437 C1432 1.379 . S
C1437 N1435 1.356 . S
N1438 C1430 1.356 . S
N1438 H1444 0.984 . S
N1438 H1445 0.984 . S
N1439 C1432 1.356 . S
N1439 H1442 0.984 . S
N1439 H1443 0.985 . S
H1440 N1435 0.984 . S
H1441 N1435 0.985 . S
H1442 N1439 0.984 . S
H1443 N1439 0.985 . S
H1444 N1438 0.984 . S
H1445 N1438 0.984 . S
H1446 N1434 0.984 . S
H1447 N1434 0.985 . S
C1448 C1449 1.363 . S
C1448 C1454 1.379 . S
C1448 N1456 1.356 . S
C1449 C1448 1.363 . S
C1449 C1455 1.363 . S
C1450 C1451 1.363 . S
C1450 C1455 1.379 . S
C1450 N1457 1.356 . S
C1451 C1450 1.363 . S
C1451 C1454 1.363 . S
N1452 C1454 1.356 . S
N1452 H1464 0.984 . S
N1452 H1465 0.985 . S
N1453 C1455 1.356 . S
N1453 H1458 0.984 . S
N1453 H1459 0.985 . S
C1454 C1448 1.379 . S
C1454 C1451 1.363 . S
C1454 N1452 1.356 . S
C1455 C1449 1.363 . S
C1455 C1450 1.379 . S
C1455 N1453 1.356 . S
N1456 C1448 1.356 . S
N1456 H1462 0.984 . S
N1456 H1463 0.984 . S
N1457 C1450 1.356 . S
N1457 H1460 0.984 . S
N1457 H1461 0.985 . S
H1458 N1453 0.984 . S
H1459 N1453 0.985 . S
H1460 N1457 0.984 . S
H1461 N1457 0.985 . S
H1462 N1456 0.984 . S
H1463 N1456 0.984 . S
H1464 N1452 0.984 . S
H1465 N1452 0.985 . S
C1466 C1467 1.363 . S
C1466 C1472 1.379 . S
C1466 N1474 1.356 . S
C1467 C1466 1.363 . S
C1467 C1473 1.363 . S
C1468 C1469 1.363 . S
C1468 C1473 1.379 . S
C1468 N1475 1.356 . S
C1469 C1468 1.363 . S
C1469 C1472 1.363 . S
N1470 C1472 1.356 . S
N1470 H1482 0.984 . S
N1470 H1483 0.985 . S
N1471 C1473 1.356 . S
N1471 H1476 0.984 . S
N1471 H1477 0.985 . S
C1472 C1466 1.379 . S
C1472 C1469 1.363 . S
C1472 N1470 1.356 . S
C1473 C1467 1.363 . S
C1473 C1468 1.379 . S
C1473 N1471 1.356 . S
N1474 C1466 1.356 . S
N1474 H1480 0.984 . S
N1474 H1481 0.984 . S
N1475 C1468 1.356 . S
N1475 H1478 0.984 1_554 S
N1475 H1479 0.985 . S
H1476 N1471 0.984 . S
H1477 N1471 0.985 . S
H1478 N1475 0.984 1_556 S
H1479 N1475 0.985 . S
H1480 N1474 0.984 . S
H1481 N1474 0.984 . S
H1482 N1470 0.984 . S
H1483 N1470 0.985 . S
C1484 C1485 1.363 . S
C1484 C1490 1.379 . S
C1484 N1492 1.356 . S
C1485 C1484 1.363 . S
C1485 C1491 1.363 . S
C1486 C1487 1.363 . S
C1486 C1491 1.379 . S
C1486 N1493 1.356 . S
C1487 C1486 1.363 . S
C1487 C1490 1.363 . S
N1488 C1490 1.356 . S
N1488 H1500 0.984 . S
N1488 H1501 0.985 1_556 S
N1489 C1491 1.356 . S
N1489 H1494 0.984 . S
N1489 H1495 0.985 . S
C1490 C1484 1.379 . S
C1490 C1487 1.363 . S
C1490 N1488 1.356 . S
C1491 C1485 1.363 . S
C1491 C1486 1.379 . S
C1491 N1489 1.356 . S
N1492 C1484 1.356 . S
N1492 H1498 0.984 . S
N1492 H1499 0.984 . S
N1493 C1486 1.356 . S
N1493 H1496 0.984 . S
N1493 H1497 0.985 . S
H1494 N1489 0.984 . S
H1495 N1489 0.985 . S
H1496 N1493 0.984 . S
H1497 N1493 0.985 . S
H1498 N1492 0.984 . S
H1499 N1492 0.984 . S
H1500 N1488 0.984 . S
H1501 N1488 0.985 1_554 S
C1502 C1503 1.363 . S
C1502 C1508 1.379 . S
C1502 N1510 1.356 . S
C1503 C1502 1.363 . S
C1503 C1509 1.363 . S
C1504 C1505 1.363 . S
C1504 C1509 1.379 . S
C1504 N1511 1.356 . S
C1505 C1504 1.363 . S
C1505 C1508 1.363 . S
N1506 C1508 1.356 . S
N1506 H1518 0.984 . S
N1506 H1519 0.985 . S
N1507 C1509 1.356 . S
N1507 H1512 0.984 . S
N1507 H1513 0.985 . S
C1508 C1502 1.379 . S
C1508 C1505 1.363 . S
C1508 N1506 1.356 . S
C1509 C1503 1.363 . S
C1509 C1504 1.379 . S
C1509 N1507 1.356 . S
N1510 C1502 1.356 . S
N1510 H1516 0.984 . S
N1510 H1517 0.984 . S
N1511 C1504 1.356 . S
N1511 H1514 0.984 . S
N1511 H1515 0.985 . S
H1512 N1507 0.984 . S
H1513 N1507 0.985 . S
H1514 N1511 0.984 . S
H1515 N1511 0.985 . S
H1516 N1510 0.984 . S
H1517 N1510 0.984 . S
H1518 N1506 0.984 . S
H1519 N1506 0.985 . S
C1520 C1521 1.363 . S
C1520 C1526 1.379 . S
C1520 N1528 1.356 . S
C1521 C1520 1.363 . S
C1521 C1527 1.363 . S
C1522 C1523 1.363 . S
C1522 C1527 1.379 . S
C1522 N1529 1.356 . S
C1523 C1522 1.363 . S
C1523 C1526 1.363 . S
N1524 C1526 1.356 . S
N1524 H1536 0.984 . S
N1524 H1537 0.985 . S
N1525 C1527 1.356 . S
N1525 H1530 0.984 . S
N1525 H1531 0.985 . S
C1526 C1520 1.379 . S
C1526 C1523 1.363 . S
C1526 N1524 1.356 . S
C1527 C1521 1.363 . S
C1527 C1522 1.379 . S
C1527 N1525 1.356 . S
N1528 C1520 1.356 . S
N1528 H1534 0.984 . S
N1528 H1535 0.984 1_554 S
N1529 C1522 1.356 . S
N1529 H1532 0.984 . S
N1529 H1533 0.985 . S
H1530 N1525 0.984 . S
H1531 N1525 0.985 . S
H1532 N1529 0.984 . S
H1533 N1529 0.985 . S
H1534 N1528 0.984 . S
H1535 N1528 0.984 1_556 S
H1536 N1524 0.984 . S
H1537 N1524 0.985 . S
C1538 C1539 1.363 . S
C1538 C1544 1.379 . S
C1538 N1546 1.356 . S
C1539 C1538 1.363 . S
C1539 C1545 1.363 . S
C1540 C1541 1.363 . S
C1540 C1545 1.379 . S
C1540 N1547 1.356 . S
C1541 C1540 1.363 . S
C1541 C1544 1.363 . S
N1542 C1544 1.356 . S
N1542 H1554 0.984 . S
N1542 H1555 0.985 . S
N1543 C1545 1.356 . S
N1543 H1548 0.984 . S
N1543 H1549 0.985 . S
C1544 C1538 1.379 . S
C1544 C1541 1.363 . S
C1544 N1542 1.356 . S
C1545 C1539 1.363 . S
C1545 C1540 1.379 . S
C1545 N1543 1.356 . S
N1546 C1538 1.356 . S
N1546 H1552 0.984 . S
N1546 H1553 0.984 . S
N1547 C1540 1.356 . S
N1547 H1550 0.984 . S
N1547 H1551 0.985 . S
H1548 N1543 0.984 . S
H1549 N1543 0.985 . S
H1550 N1547 0.984 . S
H1551 N1547 0.985 . S
H1552 N1546 0.984 . S
H1553 N1546 0.984 . S
H1554 N1542 0.984 . S
H1555 N1542 0.985 . S
C1556 C1557 1.363 . S
C1556 C1562 1.379 . S
C1556 N1564 1.356 . S
C1557 C1556 1.363 . S
C1557 C1563 1.363 . S
C1558 C1559 1.363 . S
C1558 C1563 1.379 . S
C1558 N1565 1.356 . S
C1559 C1558 1.363 . S
C1559 C1562 1.363 . S
N1560 C1562 1.356 . S
N1560 H1572 0.984 . S
N1560 H1573 0.985 . S
N1561 C1563 1.356 . S
N1561 H1566 0.984 . S
N1561 H1567 0.985 . S
C1562 C1556 1.379 . S
C1562 C1559 1.363 . S
C1562 N1560 1.356 . S
C1563 C1557 1.363 . S
C1563 C1558 1.379 . S
C1563 N1561 1.356 . S
N1564 C1556 1.356 . S
N1564 H1570 0.984 . S
N1564 H1571 0.984 . S
N1565 C1558 1.356 . S
N1565 H1568 0.984 . S
N1565 H1569 0.985 . S
H1566 N1561 0.984 . S
H1567 N1561 0.985 . S
H1568 N1565 0.984 . S
H1569 N1565 0.985 . S
H1570 N1564 0.984 . S
H1571 N1564 0.984 . S
H1572 N1560 0.984 . S
H1573 N1560 0.985 . S
C1574 C1575 1.363 . S
C1574 C1580 1.379 . S
C1574 N1582 1.356 . S
C1575 C1574 1.363 . S
C1575 C1581 1.363 . S
C1576 C1577 1.363 . S
C1576 C1581 1.379 . S
C1576 N1583 1.356 . S
C1577 C1576 1.363 . S
C1577 C1580 1.363 . S
N1578 C1580 1.356 . S
N1578 H1590 0.984 . S
N1578 H1591 0.985 . S
N1579 C1581 1.356 . S
N1579 H1584 0.984 . S
N1579 H1585 0.985 . S
C1580 C1574 1.379 . S
C1580 C1577 1.363 . S
C1580 N1578 1.356 . S
C1581 C1575 1.363 . S
C1581 C1576 1.379 . S
C1581 N1579 1.356 . S
N1582 C1574 1.356 . S
N1582 H1588 0.984 . S
N1582 H1589 0.984 . S
N1583 C1576 1.356 . S
N1583 H1586 0.984 . S
N1583 H1587 0.985 . S
H1584 N1579 0.984 . S
H1585 N1579 0.985 . S
H1586 N1583 0.984 . S
H1587 N1583 0.985 . S
H1588 N1582 0.984 . S
H1589 N1582 0.984 . S
H1590 N1578 0.984 . S
H1591 N1578 0.985 . S
C1592 C1593 1.363 . S
C1592 C1598 1.379 . S
C1592 N1600 1.356 . S
C1593 C1592 1.363 . S
C1593 C1599 1.363 . S
C1594 C1595 1.363 . S
C1594 C1599 1.379 . S
C1594 N1601 1.356 . S
C1595 C1594 1.363 . S
C1595 C1598 1.363 . S
N1596 C1598 1.356 . S
N1596 H1608 0.984 . S
N1596 H1609 0.985 . S
N1597 C1599 1.356 . S
N1597 H1602 0.984 . S
N1597 H1603 0.985 . S
C1598 C1592 1.379 . S
C1598 C1595 1.363 . S
C1598 N1596 1.356 . S
C1599 C1593 1.363 . S
C1599 C1594 1.379 . S
C1599 N1597 1.356 . S
N1600 C1592 1.356 . S
N1600 H1606 0.984 . S
N1600 H1607 0.984 . S
N1601 C1594 1.356 . S
N1601 H1604 0.984 . S
N1601 H1605 0.985 . S
H1602 N1597 0.984 . S
H1603 N1597 0.985 . S
H1604 N1601 0.984 . S
H1605 N1601 0.985 . S
H1606 N1600 0.984 . S
H1607 N1600 0.984 . S
H1608 N1596 0.984 . S
H1609 N1596 0.985 . S
C1610 C1611 1.363 . S
C1610 C1616 1.379 . S
C1610 N1618 1.356 . S
C1611 C1610 1.363 . S
C1611 C1617 1.363 . S
C1612 C1613 1.363 . S
C1612 C1617 1.379 . S
C1612 N1619 1.356 . S
C1613 C1612 1.363 . S
C1613 C1616 1.363 . S
N1614 C1616 1.356 . S
N1614 H1626 0.984 . S
N1614 H1627 0.985 . S
N1615 C1617 1.356 . S
N1615 H1620 0.984 . S
N1615 H1621 0.985 . S
C1616 C1610 1.379 . S
C1616 C1613 1.363 . S
C1616 N1614 1.356 . S
C1617 C1611 1.363 . S
C1617 C1612 1.379 . S
C1617 N1615 1.356 . S
N1618 C1610 1.356 . S
N1618 H1624 0.984 . S
N1618 H1625 0.984 . S
N1619 C1612 1.356 . S
N1619 H1622 0.984 . S
N1619 H1623 0.985 . S
H1620 N1615 0.984 . S
H1621 N1615 0.985 . S
H1622 N1619 0.984 . S
H1623 N1619 0.985 . S
H1624 N1618 0.984 . S
H1625 N1618 0.984 . S
H1626 N1614 0.984 . S
H1627 N1614 0.985 . S
C1628 C1629 1.363 . S
C1628 C1634 1.379 . S
C1628 N1636 1.356 . S
C1629 C1628 1.363 . S
C1629 C1635 1.363 . S
C1630 C1631 1.363 . S
C1630 C1635 1.379 . S
C1630 N1637 1.356 . S
C1631 C1630 1.363 . S
C1631 C1634 1.363 . S
N1632 C1634 1.356 . S
N1632 H1644 0.984 . S
N1632 H1645 0.985 . S
N1633 C1635 1.356 . S
N1633 H1638 0.984 . S
N1633 H1639 0.985 . S
C1634 C1628 1.379 . S
C1634 C1631 1.363 . S
C1634 N1632 1.356 . S
C1635 C1629 1.363 . S
C1635 C1630 1.379 . S
C1635 N1633 1.356 . S
N1636 C1628 1.356 . S
N1636 H1642 0.984 . S
N1636 H1643 0.984 . S
N1637 C1630 1.356 . S
N1637 H1640 0.984 . S
N1637 H1641 0.985 . S
H1638 N1633 0.984 . S
H1639 N1633 0.985 . S
H1640 N1637 0.984 . S
H1641 N1637 0.985 . S
H1642 N1636 0.984 . S
H1643 N1636 0.984 . S
H1644 N1632 0.984 . S
H1645 N1632 0.985 . S
C1646 C1647 1.363 . S
C1646 C1652 1.379 . S
C1646 N1654 1.356 . S
C1647 C1646 1.363 . S
C1647 C1653 1.363 . S
C1648 C1649 1.363 . S
C1648 C1653 1.379 . S
C1648 N1655 1.356 . S
C1649 C1648 1.363 . S
C1649 C1652 1.363 . S
N1650 C1652 1.356 . S
N1650 H1662 0.984 . S
N1650 H1663 0.985 1_554 S
N1651 C1653 1.356 . S
N1651 H1656 0.984 . S
N1651 H1657 0.985 . S
C1652 C1646 1.379 . S
C1652 C1649 1.363 . S
C1652 N1650 1.356 . S
C1653 C1647 1.363 . S
C1653 C1648 1.379 . S
C1653 N1651 1.356 . S
N1654 C1646 1.356 . S
N1654 H1660 0.984 . S
N1654 H1661 0.984 . S
N1655 C1648 1.356 . S
N1655 H1658 0.984 . S
N1655 H1659 0.985 . S
H1656 N1651 0.984 . S
H1657 N1651 0.985 . S
H1658 N1655 0.984 . S
H1659 N1655 0.985 . S
H1660 N1654 0.984 . S
H1661 N1654 0.984 . S
H1662 N1650 0.984 . S
H1663 N1650 0.985 1_556 S
C1664 C1665 1.363 . S
C1664 C1670 1.379 . S
C1664 N1672 1.356 . S
C1665 C1664 1.363 . S
C1665 C1671 1.363 . S
C1666 C1667 1.363 . S
C1666 C1671 1.379 . S
C1666 N1673 1.356 . S
C1667 C1666 1.363 . S
C1667 C1670 1.363 . S
N1668 C1670 1.356 . S
N1668 H1680 0.984 . S
N1668 H1681 0.985 . S
N1669 C1671 1.356 . S
N1669 H1674 0.984 . S
N1669 H1675 0.985 . S
C1670 C1664 1.379 . S
C1670 C1667 1.363 . S
C1670 N1668 1.356 . S
C1671 C1665 1.363 . S
C1671 C1666 1.379 . S
C1671 N1669 1.356 . S
N1672 C1664 1.356 . S
N1672 H1678 0.984 . S
N1672 H1679 0.984 . S
N1673 C1666 1.356 . S
N1673 H1676 0.984 . S
N1673 H1677 0.985 . S
H1674 N1669 0.984 . S
H1675 N1669 0.985 . S
H1676 N1673 0.984 . S
H1677 N1673 0.985 . S
H1678 N1672 0.984 . S
H1679 N1672 0.984 . S
H1680 N1668 0.984 . S
H1681 N1668 0.985 . S
C1682 C1683 1.363 . S
C1682 C1688 1.379 . S
C1682 N1690 1.356 . S
C1683 C1682 1.363 . S
C1683 C1689 1.363 1_565 S
C1684 C1685 1.363 . S
C1684 C1689 1.379 . S
C1684 N1691 1.356 . S
C1685 C1684 1.363 . S
C1685 C1688 1.363 1_545 S
N1686 C1688 1.356 1_545 S
N1686 H1698 0.984 1_545 S
N1686 H1699 0.985 . S
N1687 C1689 1.356 1_565 S
N1687 H1692 0.984 . S
N1687 H1693 0.985 1_565 S
C1688 C1682 1.379 . S
C1688 C1685 1.363 1_565 S
C1688 N1686 1.356 1_565 S
C1689 C1683 1.363 1_545 S
C1689 C1684 1.379 . S
C1689 N1687 1.356 1_545 S
N1690 C1682 1.356 . S
N1690 H1696 0.984 . S
N1690 H1697 0.984 . S
N1691 C1684 1.356 . S
N1691 H1694 0.984 . S
N1691 H1695 0.985 . S
H1692 N1687 0.984 . S
H1693 N1687 0.985 1_545 S
H1694 N1691 0.984 . S
H1695 N1691 0.985 . S
H1696 N1690 0.984 . S
H1697 N1690 0.984 . S
H1698 N1686 0.984 1_565 S
H1699 N1686 0.985 . S
C1700 C1701 1.368 . S
C1700 C1706 1.374 1_554 S
C1700 N1708 1.358 . S
C1701 C1700 1.368 . S
C1701 C1707 1.363 . S
C1702 C1703 1.368 . S
C1702 C1707 1.374 1_556 S
C1702 N1709 1.358 . S
C1703 C1702 1.368 . S
C1703 C1706 1.363 . S
N1704 C1706 1.356 . S
N1704 H1716 0.984 . S
N1704 H1717 0.985 . S
N1705 C1707 1.356 . S
N1705 H1710 0.984 . S
N1705 H1711 0.985 . S
C1706 C1700 1.374 1_556 S
C1706 C1703 1.363 . S
C1706 N1704 1.356 . S
C1707 C1701 1.363 . S
C1707 C1702 1.374 1_554 S
C1707 N1705 1.356 . S
N1708 C1700 1.358 . S
N1708 H1714 0.984 1_554 S
N1708 H1715 0.984 . S
N1709 C1702 1.358 . S
N1709 H1712 0.984 . S
N1709 H1713 0.985 1_556 S
H1710 N1705 0.984 . S
H1711 N1705 0.985 . S
H1712 N1709 0.984 . S
H1713 N1709 0.985 1_554 S
H1714 N1708 0.984 1_556 S
H1715 N1708 0.984 . S
H1716 N1704 0.984 . S
H1717 N1704 0.985 . S
C1718 C1719 1.363 . S
C1718 C1724 1.379 1_565 S
C1718 N1726 1.356 . S
C1719 C1718 1.363 . S
C1719 C1725 1.363 . S
C1720 C1721 1.363 . S
C1720 C1725 1.379 1_545 S
C1720 N1727 1.356 . S
C1721 C1720 1.363 . S
C1721 C1724 1.363 . S
N1722 C1724 1.356 . S
N1722 H1734 0.984 . S
N1722 H1735 0.985 . S
N1723 C1725 1.356 . S
N1723 H1728 0.984 . S
N1723 H1729 0.985 . S
C1724 C1718 1.379 1_545 S
C1724 C1721 1.363 . S
C1724 N1722 1.356 . S
C1725 C1719 1.363 . S
C1725 C1720 1.379 1_565 S
C1725 N1723 1.356 . S
N1726 C1718 1.356 . S
N1726 H1732 0.984 . S
N1726 H1733 0.984 . S
N1727 C1720 1.356 . S
N1727 H1730 0.984 . S
N1727 H1731 0.985 . S
H1728 N1723 0.984 . S
H1729 N1723 0.985 . S
H1730 N1727 0.984 . S
H1731 N1727 0.985 . S
H1732 N1726 0.984 . S
H1733 N1726 0.984 . S
H1734 N1722 0.984 . S
H1735 N1722 0.985 . S
C1736 C1737 1.363 . S
C1736 C1742 1.379 . S
C1736 N1744 1.356 . S
C1737 C1736 1.363 . S
C1737 C1743 1.363 . S
C1738 C1739 1.363 . S
C1738 C1743 1.379 . S
C1738 N1745 1.356 . S
C1739 C1738 1.363 . S
C1739 C1742 1.363 . S
N1740 C1742 1.356 . S
N1740 H1752 0.984 . S
N1740 H1753 0.985 . S
N1741 C1743 1.356 . S
N1741 H1746 0.984 . S
N1741 H1747 0.985 . S
C1742 C1736 1.379 . S
C1742 C1739 1.363 . S
C1742 N1740 1.356 . S
C1743 C1737 1.363 . S
C1743 C1738 1.379 . S
C1743 N1741 1.356 . S
N1744 C1736 1.356 . S
N1744 H1750 0.984 . S
N1744 H1751 0.984 . S
N1745 C1738 1.356 . S
N1745 H1748 0.984 . S
N1745 H1749 0.985 . S
H1746 N1741 0.984 . S
H1747 N1741 0.985 . S
H1748 N1745 0.984 . S
H1749 N1745 0.985 . S
H1750 N1744 0.984 . S
H1751 N1744 0.984 . S
H1752 N1740 0.984 . S
H1753 N1740 0.985 . S
C1754 C1755 1.363 . S
C1754 C1760 1.379 . S
C1754 N1762 1.356 . S
C1755 C1754 1.363 . S
C1755 C1761 1.363 1_565 S
C1756 C1757 1.363 . S
C1756 C1761 1.379 . S
C1756 N1763 1.356 . S
C1757 C1756 1.363 . S
C1757 C1760 1.363 1_545 S
N1758 C1760 1.356 . S
N1758 H1770 0.984 . S
N1758 H1771 0.985 1_565 S
N1759 C1761 1.356 . S
N1759 H1764 0.984 1_545 S
N1759 H1765 0.985 . S
C1760 C1754 1.379 . S
C1760 C1757 1.363 1_565 S
C1760 N1758 1.356 . S
C1761 C1755 1.363 1_545 S
C1761 C1756 1.379 . S
C1761 N1759 1.356 . S
N1762 C1754 1.356 . S
N1762 H1768 0.984 . S
N1762 H1769 0.984 . S
N1763 C1756 1.356 . S
N1763 H1766 0.984 . S
N1763 H1767 0.985 . S
H1764 N1759 0.984 1_565 S
H1765 N1759 0.985 . S
H1766 N1763 0.984 . S
H1767 N1763 0.985 . S
H1768 N1762 0.984 . S
H1769 N1762 0.984 . S
H1770 N1758 0.984 . S
H1771 N1758 0.985 1_545 S
C1772 C1773 1.363 . S
C1772 C1778 1.374 1_556 S
C1772 N1780 1.356 . S
C1773 C1772 1.363 . S
C1773 C1779 1.368 . S
C1774 C1775 1.363 . S
C1774 C1779 1.374 1_554 S
C1774 N1781 1.356 . S
C1775 C1774 1.363 . S
C1775 C1778 1.368 . S
N1776 C1778 1.358 . S
N1776 H1788 0.984 1_554 S
N1776 H1789 0.985 . S
N1777 C1779 1.358 . S
N1777 H1782 0.984 . S
N1777 H1783 0.985 1_556 S
C1778 C1772 1.374 1_554 S
C1778 C1775 1.368 . S
C1778 N1776 1.358 . S
C1779 C1773 1.368 . S
C1779 C1774 1.374 1_556 S
C1779 N1777 1.358 . S
N1780 C1772 1.356 . S
N1780 H1786 0.984 . S
N1780 H1787 0.984 . S
N1781 C1774 1.356 . S
N1781 H1784 0.984 . S
N1781 H1785 0.985 . S
H1782 N1777 0.984 . S
H1783 N1777 0.985 1_554 S
H1784 N1781 0.984 . S
H1785 N1781 0.985 . S
H1786 N1780 0.984 . S
H1787 N1780 0.984 . S
H1788 N1776 0.984 1_556 S
H1789 N1776 0.985 . S
C1790 C1791 1.363 . S
C1790 C1796 1.379 . S
C1790 N1798 1.356 . S
C1791 C1790 1.363 . S
C1791 C1797 1.363 1_545 S
C1792 C1793 1.363 . S
C1792 C1797 1.379 . S
C1792 N1799 1.356 . S
C1793 C1792 1.363 . S
C1793 C1796 1.363 1_565 S
N1794 C1796 1.356 . S
N1794 H1806 0.984 . S
N1794 H1807 0.985 1_545 S
N1795 C1797 1.356 . S
N1795 H1800 0.984 1_565 S
N1795 H1801 0.985 . S
C1796 C1790 1.379 . S
C1796 C1793 1.363 1_545 S
C1796 N1794 1.356 . S
C1797 C1791 1.363 1_565 S
C1797 C1792 1.379 . S
C1797 N1795 1.356 . S
N1798 C1790 1.356 . S
N1798 H1804 0.984 . S
N1798 H1805 0.984 . S
N1799 C1792 1.356 . S
N1799 H1802 0.984 . S
N1799 H1803 0.985 . S
H1800 N1795 0.984 1_545 S
H1801 N1795 0.985 . S
H1802 N1799 0.984 . S
H1803 N1799 0.985 . S
H1804 N1798 0.984 . S
H1805 N1798 0.984 . S
H1806 N1794 0.984 . S
H1807 N1794 0.985 1_565 S
C1808 C1809 1.368 . S
C1808 C1814 1.374 1_556 S
C1808 N1816 1.358 . S
C1809 C1808 1.368 . S
C1809 C1815 1.363 . S
C1810 C1811 1.368 . S
C1810 C1815 1.374 1_554 S
C1810 N1817 1.358 . S
C1811 C1810 1.368 . S
C1811 C1814 1.363 . S
N1812 C1814 1.356 . S
N1812 H1824 0.984 . S
N1812 H1825 0.985 . S
N1813 C1815 1.356 . S
N1813 H1818 0.984 . S
N1813 H1819 0.985 . S
C1814 C1808 1.374 1_554 S
C1814 C1811 1.363 . S
C1814 N1812 1.356 . S
C1815 C1809 1.363 . S
C1815 C1810 1.374 1_556 S
C1815 N1813 1.356 . S
N1816 C1808 1.358 . S
N1816 H1822 0.984 1_556 S
N1816 H1823 0.984 . S
N1817 C1810 1.358 . S
N1817 H1820 0.984 . S
N1817 H1821 0.985 1_554 S
H1818 N1813 0.984 . S
H1819 N1813 0.985 . S
H1820 N1817 0.984 . S
H1821 N1817 0.985 1_556 S
H1822 N1816 0.984 1_554 S
H1823 N1816 0.984 . S
H1824 N1812 0.984 . S
H1825 N1812 0.985 . S
C1826 C1827 1.363 . S
C1826 C1832 1.379 . S
C1826 N1834 1.356 . S
C1827 C1826 1.363 . S
C1827 C1833 1.363 . S
C1828 C1829 1.363 . S
C1828 C1833 1.379 . S
C1828 N1835 1.356 . S
C1829 C1828 1.363 . S
C1829 C1832 1.363 . S
N1830 C1832 1.356 . S
N1830 H1842 0.984 . S
N1830 H1843 0.985 . S
N1831 C1833 1.356 . S
N1831 H1836 0.984 . S
N1831 H1837 0.985 . S
C1832 C1826 1.379 . S
C1832 C1829 1.363 . S
C1832 N1830 1.356 . S
C1833 C1827 1.363 . S
C1833 C1828 1.379 . S
C1833 N1831 1.356 . S
N1834 C1826 1.356 . S
N1834 H1840 0.984 . S
N1834 H1841 0.984 . S
N1835 C1828 1.356 . S
N1835 H1838 0.984 . S
N1835 H1839 0.985 . S
H1836 N1831 0.984 . S
H1837 N1831 0.985 . S
H1838 N1835 0.984 . S
H1839 N1835 0.985 . S
H1840 N1834 0.984 . S
H1841 N1834 0.984 . S
H1842 N1830 0.984 . S
H1843 N1830 0.985 . S
C1844 C1845 1.363 . S
C1844 C1850 1.379 . S
C1844 N1852 1.356 . S
C1845 C1844 1.363 . S
C1845 C1851 1.363 . S
C1846 C1847 1.363 . S
C1846 C1851 1.379 . S
C1846 N1853 1.356 . S
C1847 C1846 1.363 . S
C1847 C1850 1.363 . S
N1848 C1850 1.356 . S
N1848 H1860 0.984 . S
N1848 H1861 0.985 . S
N1849 C1851 1.356 . S
N1849 H1854 0.984 . S
N1849 H1855 0.985 . S
C1850 C1844 1.379 . S
C1850 C1847 1.363 . S
C1850 N1848 1.356 . S
C1851 C1845 1.363 . S
C1851 C1846 1.379 . S
C1851 N1849 1.356 . S
N1852 C1844 1.356 . S
N1852 H1858 0.984 . S
N1852 H1859 0.984 . S
N1853 C1846 1.356 . S
N1853 H1856 0.984 . S
N1853 H1857 0.985 . S
H1854 N1849 0.984 . S
H1855 N1849 0.985 . S
H1856 N1853 0.984 . S
H1857 N1853 0.985 . S
H1858 N1852 0.984 . S
H1859 N1852 0.984 . S
H1860 N1848 0.984 . S
H1861 N1848 0.985 . S
C1862 C1863 1.363 . S
C1862 C1868 1.379 . S
C1862 N1870 1.356 . S
C1863 C1862 1.363 . S
C1863 C1869 1.363 . S
C1864 C1865 1.363 . S
C1864 C1869 1.379 . S
C1864 N1871 1.356 . S
C1865 C1864 1.363 . S
C1865 C1868 1.363 . S
N1866 C1868 1.356 . S
N1866 H1878 0.984 . S
N1866 H1879 0.985 . S
N1867 C1869 1.356 . S
N1867 H1872 0.984 . S
N1867 H1873 0.985 . S
C1868 C1862 1.379 . S
C1868 C1865 1.363 . S
C1868 N1866 1.356 . S
C1869 C1863 1.363 . S
C1869 C1864 1.379 . S
C1869 N1867 1.356 . S
N1870 C1862 1.356 . S
N1870 H1876 0.984 . S
N1870 H1877 0.984 . S
N1871 C1864 1.356 . S
N1871 H1874 0.984 . S
N1871 H1875 0.985 . S
H1872 N1867 0.984 . S
H1873 N1867 0.985 . S
H1874 N1871 0.984 . S
H1875 N1871 0.985 . S
H1876 N1870 0.984 . S
H1877 N1870 0.984 . S
H1878 N1866 0.984 . S
H1879 N1866 0.985 . S
C1880 C1881 1.363 . S
C1880 C1886 1.374 1_556 S
C1880 N1888 1.356 . S
C1881 C1880 1.363 . S
C1881 C1887 1.368 . S
C1882 C1883 1.363 . S
C1882 C1887 1.374 1_554 S
C1882 N1889 1.356 . S
C1883 C1882 1.363 . S
C1883 C1886 1.368 . S
N1884 C1886 1.358 . S
N1884 H1896 0.984 1_554 S
N1884 H1897 0.985 . S
N1885 C1887 1.358 . S
N1885 H1890 0.984 . S
N1885 H1891 0.985 1_556 S
C1886 C1880 1.374 1_554 S
C1886 C1883 1.368 . S
C1886 N1884 1.358 . S
C1887 C1881 1.368 . S
C1887 C1882 1.374 1_556 S
C1887 N1885 1.358 . S
N1888 C1880 1.356 . S
N1888 H1894 0.984 . S
N1888 H1895 0.984 . S
N1889 C1882 1.356 . S
N1889 H1892 0.984 . S
N1889 H1893 0.985 . S
H1890 N1885 0.984 . S
H1891 N1885 0.985 1_554 S
H1892 N1889 0.984 . S
H1893 N1889 0.985 . S
H1894 N1888 0.984 . S
H1895 N1888 0.984 . S
H1896 N1884 0.984 1_556 S
H1897 N1884 0.985 . S
C1898 C1899 1.363 . S
C1898 C1904 1.379 . S
C1898 N1906 1.356 . S
C1899 C1898 1.363 . S
C1899 C1905 1.363 . S
C1900 C1901 1.363 . S
C1900 C1905 1.379 . S
C1900 N1907 1.356 . S
C1901 C1900 1.363 . S
C1901 C1904 1.363 . S
N1902 C1904 1.356 . S
N1902 H1914 0.984 . S
N1902 H1915 0.985 . S
N1903 C1905 1.356 . S
N1903 H1908 0.984 . S
N1903 H1909 0.985 . S
C1904 C1898 1.379 . S
C1904 C1901 1.363 . S
C1904 N1902 1.356 . S
C1905 C1899 1.363 . S
C1905 C1900 1.379 . S
C1905 N1903 1.356 . S
N1906 C1898 1.356 . S
N1906 H1912 0.984 . S
N1906 H1913 0.984 . S
N1907 C1900 1.356 . S
N1907 H1910 0.984 . S
N1907 H1911 0.985 . S
H1908 N1903 0.984 . S
H1909 N1903 0.985 . S
H1910 N1907 0.984 . S
H1911 N1907 0.985 . S
H1912 N1906 0.984 . S
H1913 N1906 0.984 . S
H1914 N1902 0.984 . S
H1915 N1902 0.985 . S
C1916 C1917 1.363 . S
C1916 C1922 1.379 . S
C1916 N1924 1.356 . S
C1917 C1916 1.363 . S
C1917 C1923 1.363 . S
C1918 C1919 1.363 . S
C1918 C1923 1.379 . S
C1918 N1925 1.356 . S
C1919 C1918 1.363 . S
C1919 C1922 1.363 . S
N1920 C1922 1.356 . S
N1920 H1932 0.984 . S
N1920 H1933 0.985 . S
N1921 C1923 1.356 . S
N1921 H1926 0.984 . S
N1921 H1927 0.985 . S
C1922 C1916 1.379 . S
C1922 C1919 1.363 . S
C1922 N1920 1.356 . S
C1923 C1917 1.363 . S
C1923 C1918 1.379 . S
C1923 N1921 1.356 . S
N1924 C1916 1.356 . S
N1924 H1930 0.984 . S
N1924 H1931 0.984 . S
N1925 C1918 1.356 . S
N1925 H1928 0.984 . S
N1925 H1929 0.985 . S
H1926 N1921 0.984 . S
H1927 N1921 0.985 . S
H1928 N1925 0.984 . S
H1929 N1925 0.985 . S
H1930 N1924 0.984 . S
H1931 N1924 0.984 . S
H1932 N1920 0.984 . S
H1933 N1920 0.985 . S
C1934 C1935 1.363 . S
C1934 C1940 1.379 . S
C1934 N1942 1.356 . S
C1935 C1934 1.363 . S
C1935 C1941 1.363 . S
C1936 C1937 1.363 . S
C1936 C1941 1.379 . S
C1936 N1943 1.356 . S
C1937 C1936 1.363 . S
C1937 C1940 1.363 . S
N1938 C1940 1.356 . S
N1938 H1950 0.984 . S
N1938 H1951 0.985 . S
N1939 C1941 1.356 . S
N1939 H1944 0.984 . S
N1939 H1945 0.985 . S
C1940 C1934 1.379 . S
C1940 C1937 1.363 . S
C1940 N1938 1.356 . S
C1941 C1935 1.363 . S
C1941 C1936 1.379 . S
C1941 N1939 1.356 . S
N1942 C1934 1.356 . S
N1942 H1948 0.984 . S
N1942 H1949 0.984 . S
N1943 C1936 1.356 . S
N1943 H1946 0.984 . S
N1943 H1947 0.985 . S
H1944 N1939 0.984 . S
H1945 N1939 0.985 . S
H1946 N1943 0.984 . S
H1947 N1943 0.985 . S
H1948 N1942 0.984 . S
H1949 N1942 0.984 . S
H1950 N1938 0.984 . S
H1951 N1938 0.985 . S
C1952 C1953 1.363 . S
C1952 C1958 1.379 . S
C1952 N1960 1.356 . S
C1953 C1952 1.363 . S
C1953 C1959 1.363 . S
C1954 C1955 1.363 . S
C1954 C1959 1.379 . S
C1954 N1961 1.356 . S
C1955 C1954 1.363 . S
C1955 C1958 1.363 . S
N1956 C1958 1.356 . S
N1956 H1968 0.984 . S
N1956 H1969 0.985 . S
N1957 C1959 1.356 . S
N1957 H1962 0.984 . S
N1957 H1963 0.985 . S
C1958 C1952 1.379 . S
C1958 C1955 1.363 . S
C1958 N1956 1.356 . S
C1959 C1953 1.363 . S
C1959 C1954 1.379 . S
C1959 N1957 1.356 . S
N1960 C1952 1.356 . S
N1960 H1966 0.984 . S
N1960 H1967 0.984 . S
N1961 C1954 1.356 . S
N1961 H1964 0.984 . S
N1961 H1965 0.985 . S
H1962 N1957 0.984 . S
H1963 N1957 0.985 . S
H1964 N1961 0.984 . S
H1965 N1961 0.985 . S
H1966 N1960 0.984 . S
H1967 N1960 0.984 . S
H1968 N1956 0.984 . S
H1969 N1956 0.985 . S
C1970 C1971 1.363 . S
C1970 C1976 1.379 1_655 S
C1970 N1978 1.356 . S
C1971 C1970 1.363 . S
C1971 C1977 1.363 . S
C1972 C1973 1.363 . S
C1972 C1977 1.379 1_455 S
C1972 N1979 1.356 . S
C1973 C1972 1.363 . S
C1973 C1976 1.363 . S
N1974 C1976 1.356 . S
N1974 H1986 0.984 . S
N1974 H1987 0.985 . S
N1975 C1977 1.356 . S
N1975 H1980 0.984 . S
N1975 H1981 0.985 . S
C1976 C1970 1.379 1_455 S
C1976 C1973 1.363 . S
C1976 N1974 1.356 . S
C1977 C1971 1.363 . S
C1977 C1972 1.379 1_655 S
C1977 N1975 1.356 . S
N1978 C1970 1.356 . S
N1978 H1984 0.984 . S
N1978 H1985 0.984 . S
N1979 C1972 1.356 . S
N1979 H1982 0.984 . S
N1979 H1983 0.985 . S
H1980 N1975 0.984 . S
H1981 N1975 0.985 . S
H1982 N1979 0.984 . S
H1983 N1979 0.985 . S
H1984 N1978 0.984 . S
H1985 N1978 0.984 . S
H1986 N1974 0.984 . S
H1987 N1974 0.985 . S
C1988 C1989 1.363 . S
C1988 C1994 1.379 . S
C1988 N1996 1.356 . S
C1989 C1988 1.363 . S
C1989 C1995 1.363 . S
C1990 C1991 1.363 . S
C1990 C1995 1.379 . S
C1990 N1997 1.356 . S
C1991 C1990 1.363 . S
C1991 C1994 1.363 . S
N1992 C1994 1.356 . S
N1992 H2004 0.984 . S
N1992 H2005 0.985 . S
N1993 C1995 1.356 . S
N1993 H1998 0.984 . S
N1993 H1999 0.985 . S
C1994 C1988 1.379 . S
C1994 C1991 1.363 . S
C1994 N1992 1.356 . S
C1995 C1989 1.363 . S
C1995 C1990 1.379 . S
C1995 N1993 1.356 . S
N1996 C1988 1.356 . S
N1996 H2002 0.984 . S
N1996 H2003 0.984 . S
N1997 C1990 1.356 . S
N1997 H2000 0.984 . S
N1997 H2001 0.985 . S
H1998 N1993 0.984 . S
H1999 N1993 0.985 . S
H2000 N1997 0.984 . S
H2001 N1997 0.985 . S
H2002 N1996 0.984 . S
H2003 N1996 0.984 . S
H2004 N1992 0.984 . S
H2005 N1992 0.985 . S
C2006 C2007 1.363 . S
C2006 C2012 1.379 . S
C2006 N2014 1.356 . S
C2007 C2006 1.363 . S
C2007 C2013 1.363 . S
C2008 C2009 1.363 . S
C2008 C2013 1.379 . S
C2008 N2015 1.356 . S
C2009 C2008 1.363 . S
C2009 C2012 1.363 . S
N2010 C2012 1.356 . S
N2010 H2022 0.984 . S
N2010 H2023 0.985 . S
N2011 C2013 1.356 . S
N2011 H2016 0.984 . S
N2011 H2017 0.985 . S
C2012 C2006 1.379 . S
C2012 C2009 1.363 . S
C2012 N2010 1.356 . S
C2013 C2007 1.363 . S
C2013 C2008 1.379 . S
C2013 N2011 1.356 . S
N2014 C2006 1.356 . S
N2014 H2020 0.984 . S
N2014 H2021 0.984 . S
N2015 C2008 1.356 . S
N2015 H2018 0.984 . S
N2015 H2019 0.985 . S
H2016 N2011 0.984 . S
H2017 N2011 0.985 . S
H2018 N2015 0.984 . S
H2019 N2015 0.985 . S
H2020 N2014 0.984 . S
H2021 N2014 0.984 . S
H2022 N2010 0.984 . S
H2023 N2010 0.985 . S
C2024 C2025 1.363 . S
C2024 C2030 1.379 . S
C2024 N2032 1.356 . S
C2025 C2024 1.363 . S
C2025 C2031 1.363 . S
C2026 C2027 1.363 . S
C2026 C2031 1.379 . S
C2026 N2033 1.356 . S
C2027 C2026 1.363 . S
C2027 C2030 1.363 . S
N2028 C2030 1.356 . S
N2028 H2040 0.984 . S
N2028 H2041 0.985 . S
N2029 C2031 1.356 . S
N2029 H2034 0.984 . S
N2029 H2035 0.985 . S
C2030 C2024 1.379 . S
C2030 C2027 1.363 . S
C2030 N2028 1.356 . S
C2031 C2025 1.363 . S
C2031 C2026 1.379 . S
C2031 N2029 1.356 . S
N2032 C2024 1.356 . S
N2032 H2038 0.984 . S
N2032 H2039 0.984 . S
N2033 C2026 1.356 . S
N2033 H2036 0.984 . S
N2033 H2037 0.985 . S
H2034 N2029 0.984 . S
H2035 N2029 0.985 . S
H2036 N2033 0.984 . S
H2037 N2033 0.985 . S
H2038 N2032 0.984 . S
H2039 N2032 0.984 . S
H2040 N2028 0.984 . S
H2041 N2028 0.985 . S
C2042 C2043 1.363 . S
C2042 C2048 1.379 . S
C2042 N2050 1.356 . S
C2043 C2042 1.363 . S
C2043 C2049 1.363 . S
C2044 C2045 1.363 . S
C2044 C2049 1.379 . S
C2044 N2051 1.356 . S
C2045 C2044 1.363 . S
C2045 C2048 1.363 . S
N2046 C2048 1.356 . S
N2046 H2058 0.984 . S
N2046 H2059 0.985 . S
N2047 C2049 1.356 . S
N2047 H2052 0.984 . S
N2047 H2053 0.985 . S
C2048 C2042 1.379 . S
C2048 C2045 1.363 . S
C2048 N2046 1.356 . S
C2049 C2043 1.363 . S
C2049 C2044 1.379 . S
C2049 N2047 1.356 . S
N2050 C2042 1.356 . S
N2050 H2056 0.984 . S
N2050 H2057 0.984 . S
N2051 C2044 1.356 . S
N2051 H2054 0.984 . S
N2051 H2055 0.985 . S
H2052 N2047 0.984 . S
H2053 N2047 0.985 . S
H2054 N2051 0.984 . S
H2055 N2051 0.985 . S
H2056 N2050 0.984 . S
H2057 N2050 0.984 . S
H2058 N2046 0.984 . S
H2059 N2046 0.985 . S
C2060 C2061 1.363 . S
C2060 C2066 1.379 . S
C2060 N2068 1.356 . S
C2061 C2060 1.363 . S
C2061 C2067 1.363 . S
C2062 C2063 1.363 . S
C2062 C2067 1.379 . S
C2062 N2069 1.356 . S
C2063 C2062 1.363 . S
C2063 C2066 1.363 . S
N2064 C2066 1.356 . S
N2064 H2076 0.984 . S
N2064 H2077 0.985 . S
N2065 C2067 1.356 . S
N2065 H2070 0.984 . S
N2065 H2071 0.985 . S
C2066 C2060 1.379 . S
C2066 C2063 1.363 . S
C2066 N2064 1.356 . S
C2067 C2061 1.363 . S
C2067 C2062 1.379 . S
C2067 N2065 1.356 . S
N2068 C2060 1.356 . S
N2068 H2074 0.984 . S
N2068 H2075 0.984 . S
N2069 C2062 1.356 . S
N2069 H2072 0.984 . S
N2069 H2073 0.985 . S
H2070 N2065 0.984 . S
H2071 N2065 0.985 . S
H2072 N2069 0.984 . S
H2073 N2069 0.985 . S
H2074 N2068 0.984 . S
H2075 N2068 0.984 . S
H2076 N2064 0.984 . S
H2077 N2064 0.985 . S
C2078 C2079 1.363 . S
C2078 C2084 1.379 1_655 S
C2078 N2086 1.356 . S
C2079 C2078 1.363 . S
C2079 C2085 1.363 . S
C2080 C2081 1.363 . S
C2080 C2085 1.379 1_455 S
C2080 N2087 1.356 . S
C2081 C2080 1.363 . S
C2081 C2084 1.363 . S
N2082 C2084 1.356 . S
N2082 H2094 0.984 1_556 S
N2082 H2095 0.985 . S
N2083 C2085 1.356 . S
N2083 H2088 0.984 . S
N2083 H2089 0.985 . S
C2084 C2078 1.379 1_455 S
C2084 C2081 1.363 . S
C2084 N2082 1.356 . S
C2085 C2079 1.363 . S
C2085 C2080 1.379 1_655 S
C2085 N2083 1.356 . S
N2086 C2078 1.356 . S
N2086 H2092 0.984 . S
N2086 H2093 0.984 . S
N2087 C2080 1.356 . S
N2087 H2090 0.984 . S
N2087 H2091 0.985 . S
H2088 N2083 0.984 . S
H2089 N2083 0.985 . S
H2090 N2087 0.984 . S
H2091 N2087 0.985 . S
H2092 N2086 0.984 . S
H2093 N2086 0.984 . S
H2094 N2082 0.984 1_554 S
H2095 N2082 0.985 . S
C2096 C2097 1.363 . S
C2096 C2102 1.379 . S
C2096 N2104 1.356 . S
C2097 C2096 1.363 . S
C2097 C2103 1.363 . S
C2098 C2099 1.363 . S
C2098 C2103 1.379 . S
C2098 N2105 1.356 . S
C2099 C2098 1.363 . S
C2099 C2102 1.363 . S
N2100 C2102 1.356 . S
N2100 H2112 0.984 . S
N2100 H2113 0.985 . S
N2101 C2103 1.356 . S
N2101 H2106 0.984 . S
N2101 H2107 0.985 . S
C2102 C2096 1.379 . S
C2102 C2099 1.363 . S
C2102 N2100 1.356 . S
C2103 C2097 1.363 . S
C2103 C2098 1.379 . S
C2103 N2101 1.356 . S
N2104 C2096 1.356 . S
N2104 H2110 0.984 . S
N2104 H2111 0.984 . S
N2105 C2098 1.356 . S
N2105 H2108 0.984 . S
N2105 H2109 0.985 . S
H2106 N2101 0.984 . S
H2107 N2101 0.985 . S
H2108 N2105 0.984 . S
H2109 N2105 0.985 . S
H2110 N2104 0.984 . S
H2111 N2104 0.984 . S
H2112 N2100 0.984 . S
H2113 N2100 0.985 . S
C2114 C2115 1.363 . S
C2114 C2120 1.379 1_655 S
C2114 N2122 1.356 . S
C2115 C2114 1.363 . S
C2115 C2121 1.363 . S
C2116 C2117 1.363 . S
C2116 C2121 1.379 1_455 S
C2116 N2123 1.356 . S
C2117 C2116 1.363 . S
C2117 C2120 1.363 . S
N2118 C2120 1.356 . S
N2118 H2130 0.984 . S
N2118 H2131 0.985 . S
N2119 C2121 1.356 . S
N2119 H2124 0.984 . S
N2119 H2125 0.985 . S
C2120 C2114 1.379 1_455 S
C2120 C2117 1.363 . S
C2120 N2118 1.356 . S
C2121 C2115 1.363 . S
C2121 C2116 1.379 1_655 S
C2121 N2119 1.356 . S
N2122 C2114 1.356 . S
N2122 H2128 0.984 . S
N2122 H2129 0.984 . S
N2123 C2116 1.356 . S
N2123 H2126 0.984 . S
N2123 H2127 0.985 . S
H2124 N2119 0.984 . S
H2125 N2119 0.985 . S
H2126 N2123 0.984 . S
H2127 N2123 0.985 . S
H2128 N2122 0.984 . S
H2129 N2122 0.984 . S
H2130 N2118 0.984 . S
H2131 N2118 0.985 . S
C2132 C2133 1.363 . S
C2132 C2138 1.379 . S
C2132 N2140 1.356 . S
C2133 C2132 1.363 . S
C2133 C2139 1.363 . S
C2134 C2135 1.363 . S
C2134 C2139 1.379 . S
C2134 N2141 1.356 . S
C2135 C2134 1.363 . S
C2135 C2138 1.363 . S
N2136 C2138 1.356 . S
N2136 H2148 0.984 . S
N2136 H2149 0.985 . S
N2137 C2139 1.356 . S
N2137 H2142 0.984 . S
N2137 H2143 0.985 . S
C2138 C2132 1.379 . S
C2138 C2135 1.363 . S
C2138 N2136 1.356 . S
C2139 C2133 1.363 . S
C2139 C2134 1.379 . S
C2139 N2137 1.356 . S
N2140 C2132 1.356 . S
N2140 H2146 0.984 . S
N2140 H2147 0.984 . S
N2141 C2134 1.356 . S
N2141 H2144 0.984 . S
N2141 H2145 0.985 . S
H2142 N2137 0.984 . S
H2143 N2137 0.985 . S
H2144 N2141 0.984 . S
H2145 N2141 0.985 . S
H2146 N2140 0.984 . S
H2147 N2140 0.984 . S
H2148 N2136 0.984 . S
H2149 N2136 0.985 . S
C2150 C2151 1.363 . S
C2150 C2156 1.379 . S
C2150 N2158 1.356 . S
C2151 C2150 1.363 . S
C2151 C2157 1.363 . S
C2152 C2153 1.363 . S
C2152 C2157 1.379 . S
C2152 N2159 1.356 . S
C2153 C2152 1.363 . S
C2153 C2156 1.363 . S
N2154 C2156 1.356 . S
N2154 H2166 0.984 . S
N2154 H2167 0.985 . S
N2155 C2157 1.356 . S
N2155 H2160 0.984 . S
N2155 H2161 0.985 . S
C2156 C2150 1.379 . S
C2156 C2153 1.363 . S
C2156 N2154 1.356 . S
C2157 C2151 1.363 . S
C2157 C2152 1.379 . S
C2157 N2155 1.356 . S
N2158 C2150 1.356 . S
N2158 H2164 0.984 . S
N2158 H2165 0.984 . S
N2159 C2152 1.356 . S
N2159 H2162 0.984 . S
N2159 H2163 0.985 1_556 S
H2160 N2155 0.984 . S
H2161 N2155 0.985 . S
H2162 N2159 0.984 . S
H2163 N2159 0.985 1_554 S
H2164 N2158 0.984 . S
H2165 N2158 0.984 . S
H2166 N2154 0.984 . S
H2167 N2154 0.985 . S
C2168 C2169 1.363 . S
C2168 C2174 1.379 . S
C2168 N2176 1.356 . S
C2169 C2168 1.363 . S
C2169 C2175 1.363 . S
C2170 C2171 1.363 . S
C2170 C2175 1.379 . S
C2170 N2177 1.356 . S
C2171 C2170 1.363 . S
C2171 C2174 1.363 . S
N2172 C2174 1.356 . S
N2172 H2184 0.984 . S
N2172 H2185 0.985 . S
N2173 C2175 1.356 . S
N2173 H2178 0.984 . S
N2173 H2179 0.985 . S
C2174 C2168 1.379 . S
C2174 C2171 1.363 . S
C2174 N2172 1.356 . S
C2175 C2169 1.363 . S
C2175 C2170 1.379 . S
C2175 N2173 1.356 . S
N2176 C2168 1.356 . S
N2176 H2182 0.984 . S
N2176 H2183 0.984 . S
N2177 C2170 1.356 . S
N2177 H2180 0.984 . S
N2177 H2181 0.985 . S
H2178 N2173 0.984 . S
H2179 N2173 0.985 . S
H2180 N2177 0.984 . S
H2181 N2177 0.985 . S
H2182 N2176 0.984 . S
H2183 N2176 0.984 . S
H2184 N2172 0.984 . S
H2185 N2172 0.985 . S
C2186 C2187 1.363 . S
C2186 C2192 1.379 . S
C2186 N2194 1.356 . S
C2187 C2186 1.363 . S
C2187 C2193 1.363 . S
C2188 C2189 1.363 . S
C2188 C2193 1.379 . S
C2188 N2195 1.356 . S
C2189 C2188 1.363 . S
C2189 C2192 1.363 . S
N2190 C2192 1.356 . S
N2190 H2202 0.984 . S
N2190 H2203 0.985 . S
N2191 C2193 1.356 . S
N2191 H2196 0.984 . S
N2191 H2197 0.985 . S
C2192 C2186 1.379 . S
C2192 C2189 1.363 . S
C2192 N2190 1.356 . S
C2193 C2187 1.363 . S
C2193 C2188 1.379 . S
C2193 N2191 1.356 . S
N2194 C2186 1.356 . S
N2194 H2200 0.984 . S
N2194 H2201 0.984 . S
N2195 C2188 1.356 . S
N2195 H2198 0.984 . S
N2195 H2199 0.985 . S
H2196 N2191 0.984 . S
H2197 N2191 0.985 . S
H2198 N2195 0.984 . S
H2199 N2195 0.985 . S
H2200 N2194 0.984 . S
H2201 N2194 0.984 . S
H2202 N2190 0.984 . S
H2203 N2190 0.985 . S
C2204 C2205 1.363 . S
C2204 C2210 1.379 . S
C2204 N2212 1.356 . S
C2205 C2204 1.363 . S
C2205 C2211 1.363 . S
C2206 C2207 1.363 . S
C2206 C2211 1.379 . S
C2206 N2213 1.356 . S
C2207 C2206 1.363 . S
C2207 C2210 1.363 . S
N2208 C2210 1.356 . S
N2208 H2220 0.984 . S
N2208 H2221 0.985 . S
N2209 C2211 1.356 . S
N2209 H2214 0.984 . S
N2209 H2215 0.985 . S
C2210 C2204 1.379 . S
C2210 C2207 1.363 . S
C2210 N2208 1.356 . S
C2211 C2205 1.363 . S
C2211 C2206 1.379 . S
C2211 N2209 1.356 . S
N2212 C2204 1.356 . S
N2212 H2218 0.984 . S
N2212 H2219 0.984 . S
N2213 C2206 1.356 . S
N2213 H2216 0.984 . S
N2213 H2217 0.985 . S
H2214 N2209 0.984 . S
H2215 N2209 0.985 . S
H2216 N2213 0.984 . S
H2217 N2213 0.985 . S
H2218 N2212 0.984 . S
H2219 N2212 0.984 . S
H2220 N2208 0.984 . S
H2221 N2208 0.985 . S
C2222 C2223 1.363 . S
C2222 C2228 1.379 1_455 S
C2222 N2230 1.356 . S
C2223 C2222 1.363 . S
C2223 C2229 1.363 . S
C2224 C2225 1.363 . S
C2224 C2229 1.379 1_655 S
C2224 N2231 1.356 . S
C2225 C2224 1.363 . S
C2225 C2228 1.363 . S
N2226 C2228 1.356 . S
N2226 H2238 0.984 . S
N2226 H2239 0.985 . S
N2227 C2229 1.356 . S
N2227 H2232 0.984 . S
N2227 H2233 0.985 . S
C2228 C2222 1.379 1_655 S
C2228 C2225 1.363 . S
C2228 N2226 1.356 . S
C2229 C2223 1.363 . S
C2229 C2224 1.379 1_455 S
C2229 N2227 1.356 . S
N2230 C2222 1.356 . S
N2230 H2236 0.984 . S
N2230 H2237 0.984 . S
N2231 C2224 1.356 . S
N2231 H2234 0.984 . S
N2231 H2235 0.985 . S
H2232 N2227 0.984 . S
H2233 N2227 0.985 . S
H2234 N2231 0.984 . S
H2235 N2231 0.985 . S
H2236 N2230 0.984 . S
H2237 N2230 0.984 . S
H2238 N2226 0.984 . S
H2239 N2226 0.985 . S
C2240 C2241 1.363 . S
C2240 C2246 1.379 . S
C2240 N2248 1.356 . S
C2241 C2240 1.363 . S
C2241 C2247 1.363 . S
C2242 C2243 1.363 . S
C2242 C2247 1.379 . S
C2242 N2249 1.356 . S
C2243 C2242 1.363 . S
C2243 C2246 1.363 . S
N2244 C2246 1.356 . S
N2244 H2256 0.984 . S
N2244 H2257 0.985 . S
N2245 C2247 1.356 . S
N2245 H2250 0.984 . S
N2245 H2251 0.985 1_556 S
C2246 C2240 1.379 . S
C2246 C2243 1.363 . S
C2246 N2244 1.356 . S
C2247 C2241 1.363 . S
C2247 C2242 1.379 . S
C2247 N2245 1.356 . S
N2248 C2240 1.356 . S
N2248 H2254 0.984 . S
N2248 H2255 0.984 . S
N2249 C2242 1.356 . S
N2249 H2252 0.984 . S
N2249 H2253 0.985 . S
H2250 N2245 0.984 . S
H2251 N2245 0.985 1_554 S
H2252 N2249 0.984 . S
H2253 N2249 0.985 . S
H2254 N2248 0.984 . S
H2255 N2248 0.984 . S
H2256 N2244 0.984 . S
H2257 N2244 0.985 . S
C2258 C2259 1.363 . S
C2258 C2264 1.379 . S
C2258 N2266 1.356 . S
C2259 C2258 1.363 . S
C2259 C2265 1.363 . S
C2260 C2261 1.363 . S
C2260 C2265 1.379 . S
C2260 N2267 1.356 . S
C2261 C2260 1.363 . S
C2261 C2264 1.363 . S
N2262 C2264 1.356 . S
N2262 H2274 0.984 . S
N2262 H2275 0.985 . S
N2263 C2265 1.356 . S
N2263 H2268 0.984 . S
N2263 H2269 0.985 . S
C2264 C2258 1.379 . S
C2264 C2261 1.363 . S
C2264 N2262 1.356 . S
C2265 C2259 1.363 . S
C2265 C2260 1.379 . S
C2265 N2263 1.356 . S
N2266 C2258 1.356 . S
N2266 H2272 0.984 . S
N2266 H2273 0.984 . S
N2267 C2260 1.356 . S
N2267 H2270 0.984 . S
N2267 H2271 0.985 . S
H2268 N2263 0.984 . S
H2269 N2263 0.985 . S
H2270 N2267 0.984 . S
H2271 N2267 0.985 . S
H2272 N2266 0.984 . S
H2273 N2266 0.984 . S
H2274 N2262 0.984 . S
H2275 N2262 0.985 . S
C2276 C2277 1.363 . S
C2276 C2282 1.379 . S
C2276 N2284 1.356 . S
C2277 C2276 1.363 . S
C2277 C2283 1.363 . S
C2278 C2279 1.363 . S
C2278 C2283 1.379 . S
C2278 N2285 1.356 . S
C2279 C2278 1.363 . S
C2279 C2282 1.363 . S
N2280 C2282 1.356 . S
N2280 H2292 0.984 . S
N2280 H2293 0.985 . S
N2281 C2283 1.356 . S
N2281 H2286 0.984 . S
N2281 H2287 0.985 . S
C2282 C2276 1.379 . S
C2282 C2279 1.363 . S
C2282 N2280 1.356 . S
C2283 C2277 1.363 . S
C2283 C2278 1.379 . S
C2283 N2281 1.356 . S
N2284 C2276 1.356 . S
N2284 H2290 0.984 . S
N2284 H2291 0.984 . S
N2285 C2278 1.356 . S
N2285 H2288 0.984 . S
N2285 H2289 0.985 . S
H2286 N2281 0.984 . S
H2287 N2281 0.985 . S
H2288 N2285 0.984 . S
H2289 N2285 0.985 . S
H2290 N2284 0.984 . S
H2291 N2284 0.984 . S
H2292 N2280 0.984 . S
H2293 N2280 0.985 . S
C2294 C2295 1.363 . S
C2294 C2300 1.379 1_655 S
C2294 N2302 1.356 . S
C2295 C2294 1.363 . S
C2295 C2301 1.363 . S
C2296 C2297 1.363 . S
C2296 C2301 1.379 1_455 S
C2296 N2303 1.356 . S
C2297 C2296 1.363 . S
C2297 C2300 1.363 . S
N2298 C2300 1.356 . S
N2298 H2310 0.984 . S
N2298 H2311 0.985 . S
N2299 C2301 1.356 . S
N2299 H2304 0.984 . S
N2299 H2305 0.985 . S
C2300 C2294 1.379 1_455 S
C2300 C2297 1.363 . S
C2300 N2298 1.356 . S
C2301 C2295 1.363 . S
C2301 C2296 1.379 1_655 S
C2301 N2299 1.356 . S
N2302 C2294 1.356 . S
N2302 H2308 0.984 . S
N2302 H2309 0.984 . S
N2303 C2296 1.356 . S
N2303 H2306 0.984 . S
N2303 H2307 0.985 . S
H2304 N2299 0.984 . S
H2305 N2299 0.985 . S
H2306 N2303 0.984 . S
H2307 N2303 0.985 . S
H2308 N2302 0.984 . S
H2309 N2302 0.984 . S
H2310 N2298 0.984 . S
H2311 N2298 0.985 . S
C2312 C2313 1.363 . S
C2312 C2318 1.379 . S
C2312 N2320 1.356 . S
C2313 C2312 1.363 . S
C2313 C2319 1.363 . S
C2314 C2315 1.363 . S
C2314 C2319 1.379 . S
C2314 N2321 1.356 . S
C2315 C2314 1.363 . S
C2315 C2318 1.363 . S
N2316 C2318 1.356 . S
N2316 H2328 0.984 . S
N2316 H2329 0.985 . S
N2317 C2319 1.356 . S
N2317 H2322 0.984 . S
N2317 H2323 0.985 . S
C2318 C2312 1.379 . S
C2318 C2315 1.363 . S
C2318 N2316 1.356 . S
C2319 C2313 1.363 . S
C2319 C2314 1.379 . S
C2319 N2317 1.356 . S
N2320 C2312 1.356 . S
N2320 H2326 0.984 . S
N2320 H2327 0.984 . S
N2321 C2314 1.356 . S
N2321 H2324 0.984 . S
N2321 H2325 0.985 . S
H2322 N2317 0.984 . S
H2323 N2317 0.985 . S
H2324 N2321 0.984 . S
H2325 N2321 0.985 . S
H2326 N2320 0.984 . S
H2327 N2320 0.984 . S
H2328 N2316 0.984 . S
H2329 N2316 0.985 . S
C2330 C2331 1.363 . S
C2330 C2336 1.379 1_655 S
C2330 N2338 1.356 . S
C2331 C2330 1.363 . S
C2331 C2337 1.363 . S
C2332 C2333 1.363 . S
C2332 C2337 1.379 1_455 S
C2332 N2339 1.356 . S
C2333 C2332 1.363 . S
C2333 C2336 1.363 . S
N2334 C2336 1.356 . S
N2334 H2346 0.984 . S
N2334 H2347 0.985 . S
N2335 C2337 1.356 . S
N2335 H2340 0.984 . S
N2335 H2341 0.985 . S
C2336 C2330 1.379 1_455 S
C2336 C2333 1.363 . S
C2336 N2334 1.356 . S
C2337 C2331 1.363 . S
C2337 C2332 1.379 1_655 S
C2337 N2335 1.356 . S
N2338 C2330 1.356 . S
N2338 H2344 0.984 . S
N2338 H2345 0.984 . S
N2339 C2332 1.356 . S
N2339 H2342 0.984 . S
N2339 H2343 0.985 . S
H2340 N2335 0.984 . S
H2341 N2335 0.985 . S
H2342 N2339 0.984 . S
H2343 N2339 0.985 . S
H2344 N2338 0.984 . S
H2345 N2338 0.984 . S
H2346 N2334 0.984 . S
H2347 N2334 0.985 . S
C2348 C2349 1.363 . S
C2348 C2354 1.379 . S
C2348 N2356 1.356 . S
C2349 C2348 1.363 . S
C2349 C2355 1.363 . S
C2350 C2351 1.363 . S
C2350 C2355 1.379 . S
C2350 N2357 1.356 . S
C2351 C2350 1.363 . S
C2351 C2354 1.363 . S
N2352 C2354 1.356 . S
N2352 H2364 0.984 . S
N2352 H2365 0.985 . S
N2353 C2355 1.356 . S
N2353 H2358 0.984 . S
N2353 H2359 0.985 . S
C2354 C2348 1.379 . S
C2354 C2351 1.363 . S
C2354 N2352 1.356 . S
C2355 C2349 1.363 . S
C2355 C2350 1.379 . S
C2355 N2353 1.356 . S
N2356 C2348 1.356 . S
N2356 H2362 0.984 1_554 S
N2356 H2363 0.984 . S
N2357 C2350 1.356 . S
N2357 H2360 0.984 . S
N2357 H2361 0.985 . S
H2358 N2353 0.984 . S
H2359 N2353 0.985 . S
H2360 N2357 0.984 . S
H2361 N2357 0.985 . S
H2362 N2356 0.984 1_556 S
H2363 N2356 0.984 . S
H2364 N2352 0.984 . S
H2365 N2352 0.985 . S
C2366 C2367 1.363 . S
C2366 C2372 1.379 . S
C2366 N2374 1.356 . S
C2367 C2366 1.363 . S
C2367 C2373 1.363 . S
C2368 C2369 1.363 . S
C2368 C2373 1.379 . S
C2368 N2375 1.356 . S
C2369 C2368 1.363 . S
C2369 C2372 1.363 . S
N2370 C2372 1.356 . S
N2370 H2382 0.984 . S
N2370 H2383 0.985 . S
N2371 C2373 1.356 . S
N2371 H2376 0.984 . S
N2371 H2377 0.985 . S
C2372 C2366 1.379 . S
C2372 C2369 1.363 . S
C2372 N2370 1.356 . S
C2373 C2367 1.363 . S
C2373 C2368 1.379 . S
C2373 N2371 1.356 . S
N2374 C2366 1.356 . S
N2374 H2380 0.984 . S
N2374 H2381 0.984 . S
N2375 C2368 1.356 . S
N2375 H2378 0.984 . S
N2375 H2379 0.985 . S
H2376 N2371 0.984 . S
H2377 N2371 0.985 . S
H2378 N2375 0.984 . S
H2379 N2375 0.985 . S
H2380 N2374 0.984 . S
H2381 N2374 0.984 . S
H2382 N2370 0.984 . S
H2383 N2370 0.985 . S
C2384 C2385 1.363 . S
C2384 C2390 1.379 . S
C2384 N2392 1.356 . S
C2385 C2384 1.363 . S
C2385 C2391 1.363 . S
C2386 C2387 1.363 . S
C2386 C2391 1.379 . S
C2386 N2393 1.356 . S
C2387 C2386 1.363 . S
C2387 C2390 1.363 . S
N2388 C2390 1.356 . S
N2388 H2400 0.984 . S
N2388 H2401 0.985 . S
N2389 C2391 1.356 . S
N2389 H2394 0.984 . S
N2389 H2395 0.985 . S
C2390 C2384 1.379 . S
C2390 C2387 1.363 . S
C2390 N2388 1.356 . S
C2391 C2385 1.363 . S
C2391 C2386 1.379 . S
C2391 N2389 1.356 . S
N2392 C2384 1.356 . S
N2392 H2398 0.984 1_554 S
N2392 H2399 0.984 . S
N2393 C2386 1.356 . S
N2393 H2396 0.984 . S
N2393 H2397 0.985 . S
H2394 N2389 0.984 . S
H2395 N2389 0.985 . S
H2396 N2393 0.984 . S
H2397 N2393 0.985 . S
H2398 N2392 0.984 1_556 S
H2399 N2392 0.984 . S
H2400 N2388 0.984 . S
H2401 N2388 0.985 . S
C2402 C2403 1.363 . S
C2402 C2408 1.379 . S
C2402 N2410 1.356 . S
C2403 C2402 1.363 . S
C2403 C2409 1.363 . S
C2404 C2405 1.363 . S
C2404 C2409 1.379 . S
C2404 N2411 1.356 . S
C2405 C2404 1.363 . S
C2405 C2408 1.363 . S
N2406 C2408 1.356 . S
N2406 H2418 0.984 1_556 S
N2406 H2419 0.985 . S
N2407 C2409 1.356 . S
N2407 H2412 0.984 . S
N2407 H2413 0.985 . S
C2408 C2402 1.379 . S
C2408 C2405 1.363 . S
C2408 N2406 1.356 . S
C2409 C2403 1.363 . S
C2409 C2404 1.379 . S
C2409 N2407 1.356 . S
N2410 C2402 1.356 . S
N2410 H2416 0.984 1_556 S
N2410 H2417 0.984 . S
N2411 C2404 1.356 . S
N2411 H2414 0.984 . S
N2411 H2415 0.985 . S
H2412 N2407 0.984 . S
H2413 N2407 0.985 . S
H2414 N2411 0.984 . S
H2415 N2411 0.985 . S
H2416 N2410 0.984 1_554 S
H2417 N2410 0.984 . S
H2418 N2406 0.984 1_554 S
H2419 N2406 0.985 . S
C2420 C2421 1.363 . S
C2420 C2426 1.379 . S
C2420 N2428 1.356 . S
C2421 C2420 1.363 . S
C2421 C2427 1.363 . S
C2422 C2423 1.363 . S
C2422 C2427 1.379 . S
C2422 N2429 1.356 . S
C2423 C2422 1.363 . S
C2423 C2426 1.363 . S
N2424 C2426 1.356 . S
N2424 H2436 0.984 . S
N2424 H2437 0.985 . S
N2425 C2427 1.356 . S
N2425 H2430 0.984 . S
N2425 H2431 0.985 . S
C2426 C2420 1.379 . S
C2426 C2423 1.363 . S
C2426 N2424 1.356 . S
C2427 C2421 1.363 . S
C2427 C2422 1.379 . S
C2427 N2425 1.356 . S
N2428 C2420 1.356 . S
N2428 H2434 0.984 . S
N2428 H2435 0.984 . S
N2429 C2422 1.356 . S
N2429 H2432 0.984 . S
N2429 H2433 0.985 . S
H2430 N2425 0.984 . S
H2431 N2425 0.985 . S
H2432 N2429 0.984 . S
H2433 N2429 0.985 . S
H2434 N2428 0.984 . S
H2435 N2428 0.984 . S
H2436 N2424 0.984 . S
H2437 N2424 0.985 . S
C2438 C2439 1.363 . S
C2438 C2444 1.379 1_655 S
C2438 N2446 1.356 . S
C2439 C2438 1.363 . S
C2439 C2445 1.363 . S
C2440 C2441 1.363 . S
C2440 C2445 1.379 1_455 S
C2440 N2447 1.356 . S
C2441 C2440 1.363 . S
C2441 C2444 1.363 . S
N2442 C2444 1.356 . S
N2442 H2454 0.984 . S
N2442 H2455 0.985 . S
N2443 C2445 1.356 . S
N2443 H2448 0.984 . S
N2443 H2449 0.985 . S
C2444 C2438 1.379 1_455 S
C2444 C2441 1.363 . S
C2444 N2442 1.356 . S
C2445 C2439 1.363 . S
C2445 C2440 1.379 1_655 S
C2445 N2443 1.356 . S
N2446 C2438 1.356 . S
N2446 H2452 0.984 . S
N2446 H2453 0.984 . S
N2447 C2440 1.356 . S
N2447 H2450 0.984 . S
N2447 H2451 0.985 . S
H2448 N2443 0.984 . S
H2449 N2443 0.985 . S
H2450 N2447 0.984 . S
H2451 N2447 0.985 . S
H2452 N2446 0.984 . S
H2453 N2446 0.984 . S
H2454 N2442 0.984 . S
H2455 N2442 0.985 . S
C2456 C2457 1.363 . S
C2456 C2462 1.379 . S
C2456 N2464 1.356 . S
C2457 C2456 1.363 . S
C2457 C2463 1.363 . S
C2458 C2459 1.363 . S
C2458 C2463 1.379 . S
C2458 N2465 1.356 . S
C2459 C2458 1.363 . S
C2459 C2462 1.363 . S
N2460 C2462 1.356 . S
N2460 H2472 0.984 . S
N2460 H2473 0.985 . S
N2461 C2463 1.356 . S
N2461 H2466 0.984 . S
N2461 H2467 0.985 . S
C2462 C2456 1.379 . S
C2462 C2459 1.363 . S
C2462 N2460 1.356 . S
C2463 C2457 1.363 . S
C2463 C2458 1.379 . S
C2463 N2461 1.356 . S
N2464 C2456 1.356 . S
N2464 H2470 0.984 . S
N2464 H2471 0.984 . S
N2465 C2458 1.356 . S
N2465 H2468 0.984 . S
N2465 H2469 0.985 . S
H2466 N2461 0.984 . S
H2467 N2461 0.985 . S
H2468 N2465 0.984 . S
H2469 N2465 0.985 . S
H2470 N2464 0.984 . S
H2471 N2464 0.984 . S
H2472 N2460 0.984 . S
H2473 N2460 0.985 . S
C2474 C2475 1.363 . S
C2474 C2480 1.379 1_455 S
C2474 N2482 1.356 . S
C2475 C2474 1.363 . S
C2475 C2481 1.363 . S
C2476 C2477 1.363 . S
C2476 C2481 1.379 1_655 S
C2476 N2483 1.356 . S
C2477 C2476 1.363 . S
C2477 C2480 1.363 . S
N2478 C2480 1.356 . S
N2478 H2490 0.984 . S
N2478 H2491 0.985 . S
N2479 C2481 1.356 . S
N2479 H2484 0.984 . S
N2479 H2485 0.985 . S
C2480 C2474 1.379 1_655 S
C2480 C2477 1.363 . S
C2480 N2478 1.356 . S
C2481 C2475 1.363 . S
C2481 C2476 1.379 1_455 S
C2481 N2479 1.356 . S
N2482 C2474 1.356 . S
N2482 H2488 0.984 . S
N2482 H2489 0.984 . S
N2483 C2476 1.356 . S
N2483 H2486 0.984 . S
N2483 H2487 0.985 . S
H2484 N2479 0.984 . S
H2485 N2479 0.985 . S
H2486 N2483 0.984 . S
H2487 N2483 0.985 . S
H2488 N2482 0.984 . S
H2489 N2482 0.984 . S
H2490 N2478 0.984 . S
H2491 N2478 0.985 . S
C2492 C2493 1.363 . S
C2492 C2498 1.379 . S
C2492 N2500 1.356 . S
C2493 C2492 1.363 . S
C2493 C2499 1.363 . S
C2494 C2495 1.363 . S
C2494 C2499 1.379 . S
C2494 N2501 1.356 . S
C2495 C2494 1.363 . S
C2495 C2498 1.363 . S
N2496 C2498 1.356 . S
N2496 H2508 0.984 . S
N2496 H2509 0.985 . S
N2497 C2499 1.356 . S
N2497 H2502 0.984 . S
N2497 H2503 0.985 . S
C2498 C2492 1.379 . S
C2498 C2495 1.363 . S
C2498 N2496 1.356 . S
C2499 C2493 1.363 . S
C2499 C2494 1.379 . S
C2499 N2497 1.356 . S
N2500 C2492 1.356 . S
N2500 H2506 0.984 . S
N2500 H2507 0.984 . S
N2501 C2494 1.356 . S
N2501 H2504 0.984 . S
N2501 H2505 0.985 . S
H2502 N2497 0.984 . S
H2503 N2497 0.985 . S
H2504 N2501 0.984 . S
H2505 N2501 0.985 . S
H2506 N2500 0.984 . S
H2507 N2500 0.984 . S
H2508 N2496 0.984 . S
H2509 N2496 0.985 . S
C2510 C2511 1.363 . S
C2510 C2516 1.379 . S
C2510 N2518 1.356 . S
C2511 C2510 1.363 . S
C2511 C2517 1.363 . S
C2512 C2513 1.363 . S
C2512 C2517 1.379 . S
C2512 N2519 1.356 . S
C2513 C2512 1.363 . S
C2513 C2516 1.363 . S
N2514 C2516 1.356 . S
N2514 H2526 0.984 . S
N2514 H2527 0.985 . S
N2515 C2517 1.356 . S
N2515 H2520 0.984 . S
N2515 H2521 0.985 . S
C2516 C2510 1.379 . S
C2516 C2513 1.363 . S
C2516 N2514 1.356 . S
C2517 C2511 1.363 . S
C2517 C2512 1.379 . S
C2517 N2515 1.356 . S
N2518 C2510 1.356 . S
N2518 H2524 0.984 . S
N2518 H2525 0.984 . S
N2519 C2512 1.356 . S
N2519 H2522 0.984 . S
N2519 H2523 0.985 . S
H2520 N2515 0.984 . S
H2521 N2515 0.985 . S
H2522 N2519 0.984 . S
H2523 N2519 0.985 . S
H2524 N2518 0.984 . S
H2525 N2518 0.984 . S
H2526 N2514 0.984 . S
H2527 N2514 0.985 . S
C1089 C240 1.859 1_554 S
C1091 C2 1.859 . S
C1107 C36 1.859 . S
C1109 C138 1.859 . S
C1125 C70 1.859 . S
C1127 C172 1.859 . S
C1143 C206 1.859 . S
C1145 C104 1.859 1_556 S
C1161 C274 1.859 . S
C1163 C512 1.859 1_556 S
C1179 C410 1.859 . S
C1181 C308 1.859 . S
C1197 C342 1.859 . S
C1199 C444 1.859 . S
C1215 C478 1.859 . S
C1217 C376 1.859 1_554 S
C1233 C784 1.859 . S
C1235 C546 1.859 . S
C1251 C682 1.859 . S
C1253 C580 1.859 1_556 S
C1269 C716 1.859 1_554 S
C1271 C614 1.859 . S
C1287 C750 1.859 . S
C1289 C648 1.859 . S
C1305 C1056 1.859 . S
C1307 C818 1.859 . S
C1323 C852 1.859 1_554 S
C1325 C954 1.859 . S
C1341 C988 1.859 1_556 S
C1343 C886 1.859 . S
C1359 C1022 1.859 . S
C1361 C920 1.859 . S
C1377 C20 0.537 . S
C1379 C258 0.537 . S
C1395 C54 0.537 . S
C1397 C156 0.537 . S
C1413 C88 0.537 . S
C1415 C190 0.537 . S
C1431 C122 0.537 . S
C1433 C224 0.537 . S
C1449 C530 0.537 . S
C1451 C292 0.537 . S
C1467 C326 0.537 . S
C1469 C428 0.537 . S
C1485 C462 0.537 . S
C1487 C360 0.537 . S
C1503 C394 0.537 . S
C1505 C496 0.537 . S
C1521 C564 0.537 . S
C1523 C802 0.537 . S
C1539 C700 0.537 . S
C1541 C598 0.537 . S
C1557 C734 0.537 . S
C1559 C632 0.537 . S
C1575 C666 0.537 . S
C1577 C768 0.537 . S
C1593 C836 0.537 . S
C1595 C1074 0.537 . S
C1611 C870 0.537 . S
C1613 C972 0.537 . S
C1629 C904 0.537 . S
C1631 C1006 0.537 . S
C1647 C938 0.537 . S
C1649 C1040 0.537 . S
C1665 C213 1.696 . S
C1667 C9 1.696 . S
C1683 C43 1.696 . S
C1685 C247 1.696 . S
C1701 C145 1.696 . S
C1703 C77 1.696 . S
C1719 C179 1.696 . S
C1721 C111 1.696 . S
C1737 C485 1.696 . S
C1739 C281 1.696 . S
C1755 C519 1.696 . S
C1757 C315 1.696 . S
C1773 C417 1.696 . S
C1775 C349 1.696 . S
C1791 C451 1.696 . S
C1793 C383 1.696 . S
C1809 C553 1.696 . S
C1811 C757 1.696 . S
C1827 C791 1.696 . S
C1829 C587 1.696 . S
C1845 C689 1.696 . S
C1847 C621 1.696 . S
C1863 C723 1.696 . S
C1865 C655 1.696 . S
C1881 C1029 1.696 . S
C1883 C825 1.696 . S
C1899 C859 1.696 . S
C1901 C1063 1.696 . S
C1917 C961 1.696 . S
C1919 C893 1.696 . S
C1935 C995 1.696 . S
C1937 C927 1.696 . S
C1953 C33 1.580 . S
C1955 C923 1.588 . S
C1971 C277 1.588 . S
C1973 C67 1.580 . S
C1989 C855 1.588 . S
C1991 C101 1.580 . S
C2007 C135 1.580 . S
C2009 C345 1.588 . S
C2025 C169 1.580 . S
C2027 C991 1.588 . S
C2043 C203 1.580 . S
C2045 C481 1.588 . S
C2061 C237 1.580 . S
C2063 C1059 1.588 . S
C2079 C413 1.588 . S
C2081 C271 1.580 . S
C2097 C651 1.588 . S
C2099 C305 1.580 . S
C2115 C339 1.580 . S
C2117 C5 1.588 . S
C2133 C373 1.580 . S
C2135 C583 1.588 . S
C2151 C73 1.588 . S
C2153 C407 1.580 . S
C2169 C719 1.588 . S
C2171 C441 1.580 . S
C2187 C475 1.580 . S
C2189 C209 1.588 . S
C2205 C509 1.580 . S
C2207 C787 1.588 . S
C2223 C141 1.588 . S
C2225 C543 1.580 . S
C2241 C379 1.588 . S
C2243 C577 1.580 . S
C2259 C821 1.588 . S
C2261 C611 1.580 . S
C2277 C645 1.580 . S
C2279 C311 1.588 . S
C2295 C679 1.580 . S
C2297 C889 1.588 . S
C2313 C447 1.588 . S
C2315 C713 1.580 . S
C2331 C747 1.580 . S
C2333 C1025 1.588 . S
C2349 C515 1.588 . S
C2351 C781 1.580 . S
C2367 C957 1.588 . S
C2369 C815 1.580 . S
C2385 C107 1.588 . S
C2387 C849 1.580 . S
C2403 C883 1.580 . S
C2405 C549 1.588 . S
C2421 C39 1.588 . S
C2423 C917 1.580 . S
C2439 C617 1.588 . S
C2441 C951 1.580 . S
C2457 C175 1.588 . S
C2459 C985 1.580 . S
C2475 C1019 1.580 . S
C2477 C753 1.588 . S
C2493 C1053 1.580 . S
C2495 C243 1.588 . S
C2511 C1087 1.580 . S
C2513 C685 1.588 . S
