# Generated by pormake.
# Topology ume, (4)-cn, num edge types: 1
# Building blocks:
#     Node 0, Type 0, BuildingBlock: MUDLON_clean_sbu_0, # of connection points: 4
#     Node 1, Type 0, BuildingBlock: MUDLON_clean_sbu_0, # of connection points: 4
#     Node 2, Type 0, BuildingBlock: MUDLON_clean_sbu_0, # of connection points: 4
#     Node 3, Type 0, BuildingBlock: MUDLON_clean_sbu_0, # of connection points: 4
#     Node 4, Type 0, BuildingBlock: MUDLON_clean_sbu_0, # of connection points: 4
#     Node 5, Type 0, BuildingBlock: MUDLON_clean_sbu_0, # of connection points: 4
#     Node 6, Type 0, BuildingBlock: MUDLON_clean_sbu_0, # of connection points: 4
#     Node 7, Type 0, BuildingBlock: MUDLON_clean_sbu_0, # of connection points: 4
#     Node 8, Type 0, BuildingBlock: MUDLON_clean_sbu_0, # of connection points: 4
#     Node 9, Type 0, BuildingBlock: MUDLON_clean_sbu_0, # of connection points: 4
#     Node 10, Type 0, BuildingBlock: MUDLON_clean_sbu_0, # of connection points: 4
#     Node 11, Type 0, BuildingBlock: MUDLON_clean_sbu_0, # of connection points: 4
#     Node 12, Type 0, BuildingBlock: MUDLON_clean_sbu_0, # of connection points: 4
#     Node 13, Type 0, BuildingBlock: MUDLON_clean_sbu_0, # of connection points: 4
#     Node 14, Type 0, BuildingBlock: MUDLON_clean_sbu_0, # of connection points: 4
#     Node 15, Type 0, BuildingBlock: MUDLON_clean_sbu_0, # of connection points: 4
#     Edge 16, Type (0, 0), BuildingBlock: UVAHIK_clean_linker_0, # of connection points: 2
#     Edge 17, Type (0, 0), BuildingBlock: UVAHIK_clean_linker_0, # of connection points: 2
#     Edge 18, Type (0, 0), BuildingBlock: UVAHIK_clean_linker_0, # of connection points: 2
#     Edge 19, Type (0, 0), BuildingBlock: UVAHIK_clean_linker_0, # of connection points: 2
#     Edge 20, Type (0, 0), BuildingBlock: UVAHIK_clean_linker_0, # of connection points: 2
#     Edge 21, Type (0, 0), BuildingBlock: UVAHIK_clean_linker_0, # of connection points: 2
#     Edge 22, Type (0, 0), BuildingBlock: UVAHIK_clean_linker_0, # of connection points: 2
#     Edge 23, Type (0, 0), BuildingBlock: UVAHIK_clean_linker_0, # of connection points: 2
#     Edge 24, Type (0, 0), BuildingBlock: UVAHIK_clean_linker_0, # of connection points: 2
#     Edge 25, Type (0, 0), BuildingBlock: UVAHIK_clean_linker_0, # of connection points: 2
#     Edge 26, Type (0, 0), BuildingBlock: UVAHIK_clean_linker_0, # of connection points: 2
#     Edge 27, Type (0, 0), BuildingBlock: UVAHIK_clean_linker_0, # of connection points: 2
#     Edge 28, Type (0, 0), BuildingBlock: UVAHIK_clean_linker_0, # of connection points: 2
#     Edge 29, Type (0, 0), BuildingBlock: UVAHIK_clean_linker_0, # of connection points: 2
#     Edge 30, Type (0, 0), BuildingBlock: UVAHIK_clean_linker_0, # of connection points: 2
#     Edge 31, Type (0, 0), BuildingBlock: UVAHIK_clean_linker_0, # of connection points: 2
#     Edge 32, Type (0, 0), BuildingBlock: UVAHIK_clean_linker_0, # of connection points: 2
#     Edge 33, Type (0, 0), BuildingBlock: UVAHIK_clean_linker_0, # of connection points: 2
#     Edge 34, Type (0, 0), BuildingBlock: UVAHIK_clean_linker_0, # of connection points: 2
#     Edge 35, Type (0, 0), BuildingBlock: UVAHIK_clean_linker_0, # of connection points: 2
#     Edge 36, Type (0, 0), BuildingBlock: UVAHIK_clean_linker_0, # of connection points: 2
#     Edge 37, Type (0, 0), BuildingBlock: UVAHIK_clean_linker_0, # of connection points: 2
#     Edge 38, Type (0, 0), BuildingBlock: UVAHIK_clean_linker_0, # of connection points: 2
#     Edge 39, Type (0, 0), BuildingBlock: UVAHIK_clean_linker_0, # of connection points: 2
#     Edge 40, Type (0, 0), BuildingBlock: UVAHIK_clean_linker_0, # of connection points: 2
#     Edge 41, Type (0, 0), BuildingBlock: UVAHIK_clean_linker_0, # of connection points: 2
#     Edge 42, Type (0, 0), BuildingBlock: UVAHIK_clean_linker_0, # of connection points: 2
#     Edge 43, Type (0, 0), BuildingBlock: UVAHIK_clean_linker_0, # of connection points: 2
#     Edge 44, Type (0, 0), BuildingBlock: UVAHIK_clean_linker_0, # of connection points: 2
#     Edge 45, Type (0, 0), BuildingBlock: UVAHIK_clean_linker_0, # of connection points: 2
#     Edge 46, Type (0, 0), BuildingBlock: UVAHIK_clean_linker_0, # of connection points: 2
#     Edge 47, Type (0, 0), BuildingBlock: UVAHIK_clean_linker_0, # of connection points: 2
# Relax obj value: 0.086
# Max RMSD: 0.264
# Mean RMSD: 0.264
data_MOF--net-ume--node1-MUDLON_clean_sbu_0--edge1-UVAHIK_clean_linker_0
_symmetry_space_group_name_H-M    P1
_symmetry_Int_Tables_number       1
_symmetry_cell_setting            triclinic
loop_
_symmetry_equiv_pos_as_xyz
'x, y, z'
_cell_length_a     37.089624
_cell_length_b     37.291681
_cell_length_c     150.77442
_cell_angle_alpha  90.12027
_cell_angle_beta   90.060892
_cell_angle_gamma 90.018553
loop_
_atom_site_label
_atom_site_type_symbol
_atom_site_fract_x
_atom_site_fract_y
_atom_site_fract_z
_atom_type_partial_charge
Mg0 Mg 0.25984 0.11298 0.32812 0.0
C1 C 0.33819 0.10223 0.32546 0.0
O2 O 0.33377 0.13677 0.32414 0.0
C3 C 0.19732 0.06372 0.33278 0.0
O4 O 0.21385 0.06394 0.3405 0.0
C5 C 0.25094 0.14014 0.30971 0.0
O6 O 0.23759 0.10758 0.30911 0.0
O7 O 0.26156 0.15139 0.31725 0.0
O8 O 0.3106 0.08326 0.32726 0.0
O9 O 0.25575 0.13773 0.34126 0.0
C10 C 0.28269 0.1385 0.34649 0.0
O11 O 0.31386 0.12623 0.3437 0.0
O12 O 0.21145 0.08044 0.32632 0.0
Mg13 Mg 0.91015 0.7527 0.5769 0.0
C14 C 0.87486 0.78057 0.59366 0.0
O15 O 0.88531 0.8112 0.59023 0.0
C16 C 0.84768 0.7674 0.56375 0.0
O17 O 0.83299 0.7845 0.57047 0.0
C18 C 0.92626 0.67522 0.57884 0.0
O19 O 0.89214 0.67697 0.58114 0.0
O20 O 0.94242 0.70401 0.57669 0.0
O21 O 0.87965 0.75188 0.58924 0.0
O22 O 0.94336 0.80115 0.57694 0.0
C23 C 0.93337 0.82802 0.57236 0.0
O24 O 0.90441 0.82514 0.5674 0.0
O25 O 0.87781 0.75175 0.56483 0.0
Mg26 Mg 0.26034 0.39882 0.82673 0.0
C27 C 0.20255 0.45817 0.8291 0.0
O28 O 0.22672 0.47385 0.83417 0.0
C29 C 0.33861 0.4144 0.82624 0.0
O30 O 0.33759 0.37933 0.82703 0.0
C31 C 0.27456 0.37077 0.8085 0.0
O32 O 0.29152 0.40169 0.80831 0.0
O33 O 0.25978 0.3609 0.81571 0.0
O34 O 0.21033 0.42876 0.82528 0.0
O35 O 0.26087 0.37398 0.83981 0.0
C36 C 0.23208 0.37173 0.84436 0.0
O37 O 0.20147 0.38186 0.84076 0.0
O38 O 0.30896 0.4315 0.82586 0.0
Mg39 Mg 0.61045 0.75777 0.07663 0.0
C40 C 0.61582 0.7452 0.09574 0.0
O41 O 0.58268 0.73597 0.09366 0.0
C42 C 0.67169 0.73866 0.06363 0.0
O43 O 0.68031 0.71485 0.06968 0.0
C44 C 0.59437 0.83538 0.07601 0.0
O45 O 0.6298 0.83461 0.07612 0.0
O46 O 0.57728 0.80581 0.07619 0.0
O47 O 0.63647 0.75655 0.08962 0.0
O48 O 0.57907 0.70846 0.07536 0.0
C49 C 0.5945 0.67951 0.07771 0.0
O50 O 0.62755 0.68115 0.08083 0.0
O51 O 0.64586 0.76023 0.06513 0.0
Mg52 Mg 0.25468 0.40464 0.9568 0.0
C53 C 0.31733 0.4508 0.95065 0.0
O54 O 0.30139 0.44611 0.94295 0.0
C55 C 0.1763 0.41923 0.96003 0.0
O56 O 0.1778 0.38441 0.96131 0.0
C57 C 0.24786 0.38152 0.97553 0.0
O58 O 0.2346 0.41419 0.9757 0.0
O59 O 0.25829 0.36861 0.96814 0.0
O60 O 0.30281 0.43786 0.95757 0.0
O61 O 0.25551 0.37808 0.94383 0.0
C62 C 0.22836 0.38027 0.93869 0.0
O63 O 0.19912 0.39638 0.94154 0.0
O64 O 0.20517 0.43588 0.95807 0.0
Mg65 Mg 0.6164 0.75881 0.20818 0.0
C66 C 0.62127 0.74171 0.18914 0.0
O67 O 0.5896 0.72918 0.1915 0.0
C68 C 0.64466 0.74834 0.22652 0.0
O69 O 0.61428 0.73025 0.22675 0.0
C70 C 0.60187 0.6804 0.20947 0.0
O71 O 0.63708 0.68125 0.20852 0.0
O72 O 0.5847 0.70992 0.20972 0.0
O73 O 0.64091 0.75659 0.19502 0.0
O74 O 0.58373 0.80717 0.20868 0.0
C75 C 0.60116 0.83655 0.20847 0.0
O76 O 0.6365 0.83534 0.20793 0.0
O77 O 0.65416 0.76287 0.21925 0.0
Mg78 Mg 0.25133 0.10694 0.45703 0.0
C79 C 0.18723 0.06477 0.45028 0.0
O80 O 0.19972 0.07705 0.44272 0.0
C81 C 0.31347 0.05027 0.45901 0.0
O82 O 0.2894 0.02926 0.46273 0.0
C83 C 0.26096 0.12194 0.47616 0.0
O84 O 0.27474 0.08973 0.4752 0.0
O85 O 0.24899 0.13795 0.46932 0.0
O86 O 0.20494 0.07095 0.45735 0.0
O87 O 0.2463 0.13856 0.44493 0.0
C88 C 0.27447 0.14649 0.44054 0.0
O89 O 0.30619 0.13928 0.44398 0.0
O90 O 0.30408 0.08109 0.45626 0.0
Mg91 Mg 0.90555 0.75495 0.70553 0.0
C92 C 0.87713 0.78265 0.68784 0.0
O93 O 0.88891 0.81312 0.69112 0.0
C94 C 0.88189 0.75867 0.7243 0.0
O95 O 0.91563 0.76927 0.72476 0.0
C96 C 0.92157 0.83241 0.70937 0.0
O97 O 0.88698 0.83095 0.71122 0.0
O98 O 0.93747 0.80389 0.70686 0.0
O99 O 0.87912 0.75448 0.69257 0.0
O100 O 0.93829 0.70658 0.70614 0.0
C101 C 0.92222 0.67763 0.70404 0.0
O102 O 0.88829 0.6793 0.70155 0.0
O103 O 0.86864 0.75125 0.71672 0.0
Mg104 Mg 0.76199 0.61014 0.82585 0.0
C105 C 0.8403 0.59927 0.82649 0.0
O106 O 0.83589 0.63335 0.82845 0.0
C107 C 0.6837 0.59413 0.8255 0.0
O108 O 0.68447 0.62925 0.82622 0.0
C109 C 0.74737 0.63783 0.80757 0.0
O110 O 0.72928 0.60754 0.80745 0.0
O111 O 0.76294 0.64737 0.81472 0.0
O112 O 0.81246 0.58038 0.82486 0.0
O113 O 0.76235 0.63537 0.83892 0.0
C114 C 0.77519 0.61552 0.84501 0.0
O115 O 0.78632 0.58317 0.84291 0.0
O116 O 0.71347 0.57724 0.82511 0.0
Mg117 Mg 0.40224 0.25727 0.0772 0.0
C118 C 0.39628 0.23799 0.09616 0.0
O119 O 0.42681 0.2231 0.09373 0.0
C120 C 0.37475 0.25014 0.05875 0.0
O121 O 0.40664 0.23498 0.0582 0.0
C122 C 0.4154 0.17902 0.07529 0.0
O123 O 0.38013 0.18057 0.07603 0.0
O124 O 0.43326 0.20815 0.0754 0.0
O125 O 0.37801 0.25501 0.09039 0.0
O126 O 0.4351 0.30559 0.07672 0.0
C127 C 0.41822 0.33454 0.07509 0.0
O128 O 0.38323 0.33303 0.07376 0.0
O129 O 0.36402 0.26147 0.06626 0.0
Mg130 Mg 0.75898 0.90316 0.32873 0.0
C131 C 0.70281 0.96611 0.3285 0.0
O132 O 0.72994 0.98768 0.33023 0.0
C133 C 0.83442 0.92453 0.33304 0.0
O134 O 0.829 0.89709 0.33832 0.0
C135 C 0.77018 0.87806 0.31018 0.0
O136 O 0.78394 0.91052 0.30995 0.0
O137 O 0.75847 0.86616 0.31754 0.0
O138 O 0.70855 0.93273 0.32755 0.0
O139 O 0.75792 0.87665 0.34163 0.0
C140 C 0.72899 0.87438 0.34612 0.0
O141 O 0.69864 0.88552 0.34257 0.0
O142 O 0.80865 0.93489 0.32808 0.0
Mg143 Mg 0.11765 0.25277 0.57869 0.0
C144 C 0.15426 0.28197 0.59536 0.0
O145 O 0.14897 0.31269 0.59132 0.0
C146 C 0.17153 0.22322 0.56538 0.0
O147 O 0.17363 0.19761 0.57132 0.0
C148 C 0.09967 0.32913 0.5745 0.0
O149 O 0.13258 0.3267 0.57134 0.0
O150 O 0.08531 0.30143 0.57792 0.0
O151 O 0.14583 0.25303 0.59139 0.0
O152 O 0.08486 0.2043 0.57829 0.0
C153 C 0.09593 0.17722 0.58264 0.0
O154 O 0.12536 0.18033 0.58743 0.0
O155 O 0.15194 0.25042 0.56699 0.0
Mg156 Mg 0.75428 0.90142 0.45799 0.0
C157 C 0.8174 0.94517 0.45131 0.0
O158 O 0.8036 0.93492 0.44369 0.0
C159 C 0.69034 0.95358 0.45481 0.0
O160 O 0.71131 0.96778 0.44874 0.0
C161 C 0.74608 0.87629 0.47653 0.0
O162 O 0.72799 0.90658 0.47652 0.0
O163 O 0.7603 0.86559 0.46931 0.0
O164 O 0.80097 0.93703 0.45843 0.0
O165 O 0.75528 0.8744 0.44514 0.0
C166 C 0.72652 0.86987 0.44067 0.0
O167 O 0.69546 0.87845 0.44427 0.0
O168 O 0.70211 0.92775 0.45948 0.0
Mg169 Mg 0.11367 0.25503 0.70678 0.0
C170 C 0.15006 0.28205 0.68999 0.0
O171 O 0.14735 0.31275 0.69423 0.0
C172 C 0.13998 0.24636 0.72535 0.0
O173 O 0.10771 0.23191 0.72579 0.0
C174 C 0.09982 0.1766 0.70712 0.0
O175 O 0.13469 0.17815 0.70564 0.0
O176 O 0.08242 0.20581 0.70797 0.0
O177 O 0.13977 0.25351 0.69384 0.0
O178 O 0.0804 0.30325 0.70726 0.0
C179 C 0.09448 0.33146 0.71054 0.0
O180 O 0.12743 0.3297 0.71372 0.0
O181 O 0.15116 0.25778 0.71789 0.0
Mg182 Mg 0.75341 0.61352 0.95694 0.0
C183 C 0.68141 0.58677 0.95036 0.0
O184 O 0.69066 0.60768 0.94375 0.0
C185 C 0.83114 0.59773 0.95863 0.0
O186 O 0.83018 0.63279 0.95781 0.0
C187 C 0.76134 0.6349 0.97569 0.0
O188 O 0.77308 0.60166 0.97554 0.0
O189 O 0.75096 0.64904 0.96844 0.0
O190 O 0.70324 0.58282 0.95681 0.0
O191 O 0.75927 0.64011 0.94411 0.0
C192 C 0.77484 0.62114 0.93822 0.0
O193 O 0.78626 0.58899 0.9404 0.0
O194 O 0.8015 0.58053 0.95861 0.0
Mg195 Mg 0.40839 0.25832 0.20868 0.0
C196 C 0.4012 0.23895 0.18969 0.0
O197 O 0.432 0.22418 0.19195 0.0
C198 C 0.38037 0.27164 0.22695 0.0
O199 O 0.4112 0.28897 0.22716 0.0
C200 C 0.42193 0.33702 0.20915 0.0
O201 O 0.3866 0.3356 0.20858 0.0
O202 O 0.43955 0.30776 0.20937 0.0
O203 O 0.38337 0.25587 0.19557 0.0
O204 O 0.44137 0.21035 0.21011 0.0
C205 C 0.42392 0.18107 0.21071 0.0
O206 O 0.38851 0.18229 0.21066 0.0
O207 O 0.37057 0.2568 0.21973 0.0
C208 C 0.89659 0.93253 0.33911 0.0
C209 C 0.87071 0.94123 0.33265 0.0
C210 C 0.93166 0.94593 0.33857 0.0
C211 C 0.98818 0.016 0.32799 0.0
H212 H 0.06578 0.95237 0.33503 0.0
C213 C 0.13954 0.05368 0.32439 0.0
C214 C 0.16114 0.04704 0.33188 0.0
C215 C 0.10435 0.04015 0.32388 0.0
C216 C 0.04442 0.97054 0.33309 0.0
H217 H 0.86129 0.9715 0.32061 0.0
H218 H 0.92295 0.99459 0.31957 0.0
H219 H 1.00383 0.93083 0.33523 0.0
H220 H 0.1629 0.02023 0.34463 0.0
H221 H 0.10181 0.99636 0.3437 0.0
H222 H 0.02914 0.05563 0.3258 0.0
C223 C 0.91591 0.97767 0.32513 0.0
C224 C 1.00882 0.95826 0.33323 0.0
C225 C 0.88057 0.96438 0.32571 0.0
C226 C 0.14705 0.02584 0.33875 0.0
C227 C 0.11205 0.01203 0.33821 0.0
C228 C 0.02391 0.02822 0.32779 0.0
C229 C 0.94205 0.9682 0.3315 0.0
C230 C 0.98012 0.98097 0.33082 0.0
C231 C 0.09014 0.01932 0.33081 0.0
C232 C 0.05239 1.00577 0.33046 0.0
H233 H 0.88987 0.91508 0.3446 0.0
H234 H 0.95066 0.93877 0.34372 0.0
H235 H 0.96683 0.03436 0.32616 0.0
H236 H 0.14951 0.06998 0.31898 0.0
H237 H 0.08827 0.04594 0.31806 0.0
C238 C 0.98028 0.63698 0.57533 0.0
C239 C 0.94487 0.64005 0.57856 0.0
C240 C 0.99715 0.60343 0.57486 0.0
C241 C 0.99298 0.51151 0.58399 0.0
H242 H 0.04743 0.48611 0.56296 0.0
C243 C 0.04592 0.36759 0.57809 0.0
C244 C 0.08082 0.36419 0.57455 0.0
C245 C 0.02898 0.40111 0.57843 0.0
C246 C 0.03266 0.49289 0.56893 0.0
H247 H 0.89958 0.61026 0.5839 0.0
H248 H 0.92891 0.552 0.58307 0.0
H249 H 0.01957 0.54518 0.56404 0.0
H250 H 0.12511 0.39339 0.56855 0.0
H251 H 0.09584 0.45166 0.56926 0.0
H252 H 1.00619 0.45936 0.58892 0.0
C253 C 0.94378 0.57548 0.58096 0.0
C254 C 0.01671 0.52679 0.56954 0.0
C255 C 0.92689 0.60891 0.58139 0.0
C256 C 0.09817 0.39497 0.57129 0.0
C257 C 0.08128 0.42843 0.57165 0.0
C258 C 1.00901 0.47766 0.58339 0.0
C259 C 0.97905 0.57228 0.57766 0.0
C260 C 0.99663 0.53649 0.57707 0.0
C261 C 0.04654 0.432 0.57527 0.0
C262 C 0.02904 0.46789 0.57585 0.0
H263 H 0.9949 0.66043 0.5731 0.0
H264 H 0.0245 0.60193 0.57237 0.0
H265 H 0.9781 0.51831 0.58994 0.0
H266 H 0.03175 0.34441 0.58064 0.0
H267 H 1.002 0.40277 0.58115 0.0
C268 C 0.64693 0.53739 0.82498 0.0
C269 C 0.64861 0.57504 0.82519 0.0
C270 C 0.61357 0.51976 0.82484 0.0
C271 C 0.51683 0.5338 0.81969 0.0
H272 H 0.50258 0.45057 0.83464 0.0
C273 C 0.37584 0.4708 0.82546 0.0
C274 C 0.37384 0.43319 0.82582 0.0
C275 C 0.40935 0.48813 0.82521 0.0
C276 C 0.50619 0.47351 0.83034 0.0
H277 H 0.61643 0.62365 0.82536 0.0
H278 H 0.55854 0.59298 0.82517 0.0
H279 H 0.56119 0.48009 0.83436 0.0
H280 H 0.4056 0.38432 0.82609 0.0
H281 H 0.4637 0.41439 0.82553 0.0
H282 H 0.46184 0.52721 0.81566 0.0
C283 C 0.58293 0.57703 0.82502 0.0
C284 C 0.53984 0.49043 0.83018 0.0
C285 C 0.6162 0.59461 0.82519 0.0
C286 C 0.40608 0.41335 0.82586 0.0
C287 C 0.43949 0.43062 0.8256 0.0
C288 C 0.48318 0.51683 0.81983 0.0
C289 C 0.58115 0.53939 0.82487 0.0
C290 C 0.54557 0.52084 0.82487 0.0
C291 C 0.44162 0.46823 0.82531 0.0
C292 C 0.4774 0.48648 0.82517 0.0
H293 H 0.67137 0.5215 0.82496 0.0
H294 H 0.61316 0.49073 0.82464 0.0
H295 H 0.52046 0.55688 0.81543 0.0
H296 H 0.35153 0.48689 0.82544 0.0
H297 H 0.40997 0.51716 0.82509 0.0
C298 C 0.47155 0.14135 0.0745 0.0
C299 C 0.43374 0.14376 0.07476 0.0
C300 C 0.48858 0.10785 0.07432 0.0
C301 C 0.47292 0.01238 0.07979 0.0
H302 H 0.55699 0.9962 0.06506 0.0
C303 C 0.53729 0.87182 0.07557 0.0
C304 C 0.57516 0.87022 0.07564 0.0
C305 C 0.51954 0.90494 0.07523 0.0
C306 C 0.53373 1.00037 0.06928 0.0
H307 H 0.3842 0.11277 0.07487 0.0
H308 H 0.41383 0.05458 0.07446 0.0
H309 H 0.52733 0.05456 0.06487 0.0
H310 H 0.62402 0.90226 0.07544 0.0
H311 H 0.59316 0.95974 0.07495 0.0
H312 H 0.4794 0.95826 0.08422 0.0
C313 C 0.43038 0.07851 0.07454 0.0
C314 C 0.51675 0.03385 0.06917 0.0
C315 C 0.41338 0.11194 0.07472 0.0
C316 C 0.59482 0.90245 0.07537 0.0
C317 C 0.57712 0.93547 0.07502 0.0
C318 C 0.4899 0.97891 0.0799 0.0
C319 C 0.46818 0.07601 0.0744 0.0
C320 C 0.48617 0.04031 0.07444 0.0
C321 C 0.53927 0.93718 0.07495 0.0
C322 C 0.5206 0.97251 0.07467 0.0
H323 H 0.48804 0.16533 0.07455 0.0
H324 H 0.51776 0.1069 0.0743 0.0
H325 H 0.44976 0.01658 0.08404 0.0
H326 H 0.52134 0.84751 0.07575 0.0
H327 H 0.49035 0.90527 0.07509 0.0
C328 C 0.1092 0.41872 0.96186 0.0
C329 C 0.14118 0.43814 0.96045 0.0
C330 C 0.07583 0.43609 0.96198 0.0
C331 C 0.03075 0.51928 0.95453 0.0
H332 H 0.95609 0.4897 0.97096 0.0
C333 C 0.89857 0.59867 0.95871 0.0
C334 C 0.8663 0.57899 0.95926 0.0
C335 C 0.93192 0.58137 0.95907 0.0
C336 C 0.97654 0.49802 0.96627 0.0
H337 H 0.16317 0.49123 0.95821 0.0
H338 H 0.10494 0.52168 0.95856 0.0
H339 H 0.0149 0.46042 0.97135 0.0
H340 H 0.84384 0.52563 0.9607 0.0
H341 H 0.90229 0.49533 0.96131 0.0
H342 H 0.99244 0.55699 0.94947 0.0
C343 C 0.10561 0.49286 0.95942 0.0
C344 C 0.01027 0.48124 0.96649 0.0
C345 C 0.13904 0.47545 0.95927 0.0
C346 C 0.86819 0.54157 0.96027 0.0
C347 C 0.90167 0.52424 0.96066 0.0
C348 C 0.9971 0.53613 0.95433 0.0
C349 C 0.07355 0.47336 0.96072 0.0
C350 C 0.03781 0.49164 0.96061 0.0
C351 C 0.93392 0.54395 0.96 0.0
C352 C 0.96958 0.52571 0.96019 0.0
H353 H 0.10982 0.38992 0.96276 0.0
H354 H 0.05172 0.42011 0.96287 0.0
H355 H 0.05103 0.52754 0.94979 0.0
H356 H 0.89816 0.62754 0.95797 0.0
H357 H 0.95622 0.59741 0.95867 0.0
C358 C 0.47836 0.3744 0.20979 0.0
C359 C 0.44053 0.37221 0.20953 0.0
C360 C 0.49561 0.4078 0.21005 0.0
C361 C 0.48036 0.50401 0.20512 0.0
H362 H 0.56487 0.51818 0.21987 0.0
C363 C 0.54495 0.64387 0.21032 0.0
C364 C 0.58279 0.64551 0.21 0.0
C365 C 0.52722 0.61072 0.21054 0.0
C366 C 0.54147 0.51458 0.21566 0.0
H367 H 0.3912 0.40348 0.20945 0.0
H368 H 0.42117 0.46147 0.21002 0.0
H369 H 0.535 0.4599 0.21966 0.0
H370 H 0.63166 0.61352 0.20975 0.0
H371 H 0.6008 0.55594 0.21009 0.0
H372 H 0.48685 0.55869 0.20112 0.0
C373 C 0.4376 0.43747 0.20987 0.0
C374 C 0.52438 0.48114 0.21553 0.0
C375 C 0.42039 0.40414 0.2096 0.0
C376 C 0.60248 0.61329 0.21 0.0
C377 C 0.58479 0.58021 0.21026 0.0
C378 C 0.49741 0.53746 0.20527 0.0
C379 C 0.47543 0.43977 0.21007 0.0
C380 C 0.49364 0.47539 0.21024 0.0
C381 C 0.54694 0.57849 0.21049 0.0
C382 C 0.52824 0.54314 0.21052 0.0
H383 H 0.49469 0.35033 0.20973 0.0
H384 H 0.52479 0.40856 0.21009 0.0
H385 H 0.4571 0.50042 0.20086 0.0
H386 H 0.52898 0.66818 0.21034 0.0
H387 H 0.49805 0.61035 0.21082 0.0
C388 C 0.36434 0.00809 0.46264 0.0
C389 C 0.35188 0.0393 0.45842 0.0
C390 C 0.40095 0.99887 0.46236 0.0
C391 C 0.49158 0.03824 0.45813 0.0
H392 H 0.52079 0.9388 0.45602 0.0
C393 C 0.63892 0.99468 0.45095 0.0
C394 C 0.65224 0.9652 0.45573 0.0
C395 C 0.60248 1.0043 0.4515 0.0
C396 C 0.51307 0.96668 0.4567 0.0
H397 H 0.36813 0.08484 0.45042 0.0
H398 H 0.43149 0.06842 0.44978 0.0
H399 H 0.45683 0.95383 0.45639 0.0
H400 H 0.63764 0.92302 0.46496 0.0
H401 H 0.57426 0.93976 0.46589 0.0
H402 H 0.54792 0.05102 0.45831 0.0
C403 C 0.41326 0.05143 0.45349 0.0
C404 C 0.47637 0.97532 0.45693 0.0
C405 C 0.37678 0.06072 0.4538 0.0
C406 C 0.62836 0.94587 0.46117 0.0
C407 C 0.59193 0.9553 0.46167 0.0
C408 C 0.52827 0.0296 0.45784 0.0
C409 C 0.42595 0.02055 0.45783 0.0
C410 C 0.46509 0.01123 0.45764 0.0
C411 C 0.57848 0.98446 0.45679 0.0
C412 C 0.53946 0.99372 0.45712 0.0
H413 H 0.34595 0.99106 0.46628 0.0
H414 H 0.40974 0.97511 0.46587 0.0
H415 H 0.484 0.06613 0.45886 0.0
H416 H 0.65655 0.01014 0.44669 0.0
H417 H 0.59292 0.02677 0.44761 0.0
C418 C 0.04443 0.13889 0.70959 0.0
C419 C 0.08147 0.14132 0.70771 0.0
C420 C 0.02743 0.10539 0.71006 0.0
C421 C 0.03736 0.01129 0.70268 0.0
H422 H 0.96788 0.9913 0.72121 0.0
C423 C 0.97789 0.86943 0.70777 0.0
C424 C 0.94092 0.8672 0.70974 0.0
C425 C 0.99558 0.90262 0.70783 0.0
C426 C 0.98693 0.99654 0.71593 0.0
H427 H 0.12969 0.11036 0.7049 0.0
H428 H 0.10014 0.05221 0.70575 0.0
H429 H 0.99703 0.0499 0.72062 0.0
H430 H 0.89365 0.89818 0.71337 0.0
H431 H 0.92426 0.95585 0.71334 0.0
H432 H 0.0271 0.95815 0.69793 0.0
C433 C 0.08411 0.07614 0.70677 0.0
C434 C 1.00364 0.03016 0.7156 0.0
C435 C 0.1011 0.10953 0.70634 0.0
C436 C 0.92218 0.89885 0.71185 0.0
C437 C 0.93981 0.93198 0.71189 0.0
C438 C 0.02059 0.97773 0.703 0.0
C439 C 0.04706 0.07362 0.70861 0.0
C440 C 0.02907 0.03795 0.70897 0.0
C441 C 0.9767 0.93436 0.70983 0.0
C442 C 0.99512 0.9699 0.70962 0.0
H443 H 0.02853 0.16284 0.71068 0.0
H444 H 0.99878 0.1044 0.71141 0.0
H445 H 0.05642 0.01657 0.6974 0.0
H446 H 0.99318 0.84557 0.70615 0.0
H447 H 0.02413 0.90336 0.70634 0.0
C448 C 0.65817 0.01698 0.32821 0.0
C449 C 0.66535 0.97998 0.32791 0.0
C450 C 0.62266 0.02966 0.32772 0.0
C451 C 0.52827 1.00219 0.33145 0.0
H452 H 0.50534 0.08323 0.31642 0.0
C453 C 0.38091 0.04965 0.3259 0.0
C454 C 0.37508 0.08682 0.3254 0.0
C455 C 0.41607 0.03578 0.32595 0.0
C456 C 0.51126 0.06084 0.32075 0.0
H457 H 0.64065 0.92733 0.32686 0.0
H458 H 0.57899 0.94947 0.32602 0.0
H459 H 0.56719 0.06148 0.3172 0.0
H460 H 0.40172 0.13856 0.32464 0.0
H461 H 0.46248 0.11465 0.32496 0.0
H462 H 0.47255 1.00186 0.33514 0.0
C463 C 0.60076 0.96867 0.32669 0.0
C464 C 0.54678 0.04836 0.32118 0.0
C465 C 0.63619 0.95601 0.32711 0.0
C466 C 0.40513 0.10974 0.32496 0.0
C467 C 0.44013 0.09597 0.32508 0.0
C468 C 0.49276 0.01485 0.33108 0.0
C469 C 0.59353 1.00562 0.32699 0.0
C470 C 0.55573 0.01893 0.32654 0.0
C471 C 0.44617 0.0588 0.32556 0.0
C472 C 0.48377 0.04445 0.32575 0.0
H473 H 0.67995 0.03617 0.32883 0.0
H474 H 0.61795 0.0583 0.32805 0.0
H475 H 0.53435 0.97968 0.33573 0.0
H476 H 0.35834 0.03126 0.32622 0.0
H477 H 0.41961 0.00698 0.32621 0.0
C478 C 0.9811 0.86791 0.57898 0.0
C479 C 0.95219 0.86301 0.57307 0.0
C480 C 0.9972 0.90166 0.57996 0.0
C481 C 1.00668 0.99015 0.56897 0.0
H482 H 0.03031 0.02344 0.59265 0.0
C483 C 0.04848 0.13691 0.57607 0.0
C484 C 0.07762 0.14198 0.5819 0.0
C485 C 0.03274 0.103 0.57507 0.0
C486 C 0.02418 0.01443 0.58598 0.0
H487 H 0.91794 0.88967 0.56344 0.0
H488 H 0.94572 0.9483 0.5652 0.0
H489 H 1.00518 0.96356 0.59059 0.0
H490 H 0.11267 0.11546 0.59138 0.0
H491 H 0.08541 0.05654 0.58961 0.0
H492 H 0.02561 0.04106 0.56437 0.0
C493 C 0.95628 0.92608 0.56902 0.0
C494 C 0.00986 0.98005 0.5848 0.0
C495 C 0.9402 0.89243 0.56805 0.0
C496 C 0.09023 0.11256 0.58683 0.0
C497 C 0.07447 0.07875 0.58585 0.0
C498 C 0.02097 0.02453 0.57015 0.0
C499 C 0.98479 0.93123 0.57504 0.0
C500 C 1.00089 0.96748 0.57628 0.0
C501 C 0.04573 0.07346 0.57991 0.0
C502 C 0.02989 0.0371 0.57867 0.0
H503 H 0.99101 0.84581 0.58294 0.0
H504 H 0.01942 0.90459 0.58457 0.0
H505 H 1.00058 0.98116 0.5623 0.0
H506 H 0.03808 0.15901 0.57218 0.0
H507 H 0.01033 0.09993 0.57052 0.0
C508 C 0.15712 0.50706 0.83175 0.0
C509 C 0.16568 0.47321 0.82822 0.0
C510 C 0.12196 0.52051 0.83115 0.0
C511 C 0.02756 0.49159 0.8286 0.0
H512 H 0.01068 0.59063 0.82206 0.0
C513 C 0.88343 0.54858 0.82337 0.0
C514 C 0.87708 0.5837 0.82639 0.0
C515 C 0.91851 0.53457 0.82325 0.0
C516 C 0.01487 0.56301 0.82401 0.0
H517 H 0.1439 0.42702 0.82125 0.0
H518 H 0.08271 0.45044 0.82024 0.0
H519 H 0.07216 0.5677 0.82261 0.0
H520 H 0.9026 0.6314 0.83178 0.0
H521 H 0.96315 0.60688 0.83176 0.0
H522 H 0.97038 0.48699 0.83017 0.0
C523 C 0.10314 0.46651 0.82351 0.0
C524 C 0.05015 0.54988 0.8243 0.0
C525 C 0.13831 0.45322 0.82404 0.0
C526 C 0.90648 0.60433 0.82934 0.0
C527 C 0.94138 0.59032 0.82927 0.0
C528 C 0.99225 0.50479 0.82837 0.0
C529 C 0.09451 0.50025 0.82708 0.0
C530 C 0.05693 0.51407 0.82664 0.0
C531 C 0.94797 0.55533 0.82619 0.0
C532 C 0.98543 0.54075 0.82612 0.0
H533 H 0.17753 0.52314 0.83502 0.0
H534 H 0.11608 0.54649 0.83403 0.0
H535 H 0.03193 0.46396 0.83052 0.0
H536 H 0.86137 0.53202 0.82103 0.0
H537 H 0.92258 0.50765 0.82074 0.0
C538 C 0.53987 0.64192 0.07425 0.0
C539 C 0.57594 0.64439 0.07705 0.0
C540 C 0.52269 0.60851 0.07372 0.0
C541 C 0.54149 0.51116 0.07215 0.0
H542 H 0.44393 0.50095 0.08099 0.0
C543 C 0.47378 0.37254 0.07703 0.0
C544 C 0.43701 0.36963 0.07488 0.0
C545 C 0.49087 0.40604 0.07704 0.0
C546 C 0.47102 0.50339 0.07838 0.0
H547 H 0.62223 0.61362 0.08149 0.0
H548 H 0.5923 0.5557 0.08062 0.0
H549 H 0.47299 0.55957 0.08132 0.0
H550 H 0.38957 0.39964 0.07089 0.0
H551 H 0.41939 0.45769 0.07079 0.0
H552 H 0.53954 0.455 0.06921 0.0
C553 C 0.57735 0.57944 0.07873 0.0
C554 C 0.48767 0.53703 0.07858 0.0
C555 C 0.59444 0.61275 0.07929 0.0
C556 C 0.41788 0.40088 0.07264 0.0
C557 C 0.43494 0.43427 0.07263 0.0
C558 C 0.52481 0.47752 0.07194 0.0
C559 C 0.54128 0.57688 0.07595 0.0
C560 C 0.52315 0.54131 0.0755 0.0
C561 C 0.47158 0.43736 0.07489 0.0
C562 C 0.48939 0.47318 0.07507 0.0
H563 H 0.52487 0.66576 0.07247 0.0
H564 H 0.49496 0.60742 0.07148 0.0
H565 H 0.56867 0.51363 0.06961 0.0
H566 H 0.48927 0.34901 0.07881 0.0
H567 H 0.51904 0.40746 0.07891 0.0
C568 C 0.37347 0.46726 0.95906 0.0
C569 C 0.35341 0.46787 0.95113 0.0
C570 C 0.40862 0.48086 0.95932 0.0
C571 C 0.47168 0.54091 0.94757 0.0
H572 H 0.54581 0.48409 0.95903 0.0
C573 C 0.62216 0.57344 0.94313 0.0
C574 C 0.64488 0.57059 0.95056 0.0
C575 C 0.58681 0.56059 0.94342 0.0
C576 C 0.5254 0.50054 0.9559 0.0
H577 H 0.35434 0.48412 0.93733 0.0
H578 H 0.41553 0.50797 0.9378 0.0
H579 H 0.48327 0.46374 0.95931 0.0
H580 H 0.6484 0.55134 0.96409 0.0
H581 H 0.58644 0.52927 0.96465 0.0
H582 H 0.51357 0.57781 0.9442 0.0
C583 C 0.40404 0.49705 0.94382 0.0
C584 C 0.48954 0.48886 0.95606 0.0
C585 C 0.36899 0.48324 0.94354 0.0
C586 C 0.63164 0.55385 0.95824 0.0
C587 C 0.59612 0.5411 0.95855 0.0
C588 C 0.50746 0.55268 0.94745 0.0
C589 C 0.42443 0.49563 0.95168 0.0
C590 C 0.46231 0.50878 0.95183 0.0
C591 C 0.57312 0.5447 0.95117 0.0
C592 C 0.53486 0.5325 0.95154 0.0
H593 H 0.3623 0.45563 0.96503 0.0
H594 H 0.42346 0.47978 0.9655 0.0
H595 H 0.45126 0.55716 0.94438 0.0
H596 H 0.63154 0.58594 0.93708 0.0
H597 H 0.57018 0.56312 0.93754 0.0
C598 C 0.54471 0.87373 0.20954 0.0
C599 C 0.58245 0.87166 0.20888 0.0
C600 C 0.52744 0.90709 0.20995 0.0
C601 C 0.54428 1.003 0.21507 0.0
H602 H 0.45601 0.01829 0.20183 0.0
C603 C 0.48042 0.14371 0.21049 0.0
C604 C 0.44265 0.14597 0.211 0.0
C605 C 0.49761 0.11027 0.21045 0.0
C606 C 0.48043 0.01436 0.20565 0.0
H607 H 0.63159 0.90311 0.20808 0.0
H608 H 0.60154 0.961 0.20869 0.0
H609 H 0.48526 0.9598 0.20138 0.0
H610 H 0.39339 0.11479 0.21201 0.0
H611 H 0.4233 0.05678 0.21201 0.0
H612 H 0.53949 0.05764 0.21932 0.0
C613 C 0.58526 0.93693 0.20903 0.0
C614 C 0.49718 0.98079 0.20539 0.0
C615 C 0.60248 0.90366 0.20862 0.0
C616 C 0.42253 0.11409 0.21157 0.0
C617 C 0.43967 0.08075 0.21151 0.0
C618 C 0.52753 0.03659 0.21532 0.0
C619 C 0.54753 0.93911 0.2097 0.0
C620 C 0.52935 0.97468 0.21009 0.0
C621 C 0.47739 0.07837 0.21089 0.0
C622 C 0.49539 0.04269 0.21062 0.0
H623 H 0.52848 0.8496 0.20978 0.0
H624 H 0.49836 0.90779 0.21056 0.0
H625 H 0.56873 0.99909 0.21888 0.0
H626 H 0.49671 0.16775 0.21002 0.0
H627 H 0.5267 0.10939 0.20988 0.0
C628 C 0.87169 0.9673 0.45972 0.0
C629 C 0.8538 0.96172 0.4516 0.0
C630 C 0.90743 0.97944 0.4599 0.0
C631 C 0.9775 0.02354 0.44614 0.0
H632 H 0.04434 0.97676 0.46217 0.0
C633 C 0.13077 0.04328 0.44283 0.0
C634 C 0.15066 0.04863 0.45066 0.0
C635 C 0.09486 0.03197 0.44317 0.0
C636 C 0.02598 0.99038 0.45772 0.0
H637 H 0.85925 0.96562 0.43731 0.0
H638 H 0.92134 0.98664 0.43762 0.0
H639 H 0.98057 0.9606 0.46248 0.0
H640 H 0.14862 0.04502 0.46501 0.0
H641 H 0.08586 0.02543 0.46561 0.0
H642 H 0.0228 0.05325 0.44135 0.0
C643 C 0.90776 0.98187 0.44387 0.0
C644 C 0.98938 0.98116 0.45791 0.0
C645 C 0.87212 0.96965 0.44369 0.0
C646 C 0.13413 0.0411 0.45884 0.0
C647 C 0.09813 0.02979 0.45918 0.0
C648 C 0.01404 0.03275 0.44595 0.0
C649 C 0.92607 0.98645 0.45196 0.0
C650 C 0.96472 0.99745 0.45207 0.0
C651 C 0.07784 0.02574 0.45135 0.0
C652 C 0.03883 0.0161 0.45169 0.0
H653 H 0.85839 0.96148 0.46595 0.0
H654 H 0.92055 0.98317 0.46626 0.0
H655 H 0.9592 0.03707 0.44165 0.0
H656 H 0.14266 0.04859 0.4364 0.0
H657 H 0.08032 0.02838 0.437 0.0
C658 C 0.09236 0.39746 0.71357 0.0
C659 C 0.07537 0.36638 0.71031 0.0
C660 C 0.07539 0.43082 0.71303 0.0
C661 C 1.004 0.47913 0.70077 0.0
H662 H 0.01346 0.54819 0.7199 0.0
C663 C 0.9227 0.61113 0.70176 0.0
C664 C 0.94062 0.64239 0.70458 0.0
C665 C 0.93931 0.57762 0.70243 0.0
C666 C 0.01091 0.52936 0.71446 0.0
H667 H 0.02682 0.34601 0.70406 0.0
H668 H 0.99689 0.40427 0.70323 0.0
H669 H 0.04089 0.48907 0.72135 0.0
H670 H 0.99025 0.66289 0.71027 0.0
H671 H 0.01938 0.60425 0.7114 0.0
H672 H 0.97387 0.51942 0.6939 0.0
C673 C 0.02366 0.40286 0.70608 0.0
C674 C 0.02661 0.49543 0.71529 0.0
C675 C 0.0407 0.36941 0.70661 0.0
C676 C 0.9757 0.63935 0.70804 0.0
C677 C 0.99229 0.60572 0.70874 0.0
C678 C 0.98822 0.51303 0.69995 0.0
C679 C 0.0409 0.43404 0.70924 0.0
C680 C 0.02342 0.46988 0.70845 0.0
C681 C 0.97425 0.57445 0.70595 0.0
C682 C 0.99151 0.53857 0.70678 0.0
H683 H 0.11911 0.39618 0.71644 0.0
H684 H 0.08971 0.45425 0.71541 0.0
H685 H 1.00153 0.46041 0.6953 0.0
H686 H 0.89564 0.61243 0.69907 0.0
H687 H 0.92447 0.55408 0.70032 0.0
C688 C 0.30907 0.15287 0.36137 0.0
C689 C 0.27856 0.1498 0.35588 0.0
C690 C 0.30538 0.16036 0.3704 0.0
C691 C 0.24148 0.14977 0.38871 0.0
H692 H 0.30946 0.21007 0.40139 0.0
C693 C 0.23801 0.16081 0.42692 0.0
C694 C 0.27172 0.15799 0.43114 0.0
C695 C 0.23586 0.16675 0.41776 0.0
C696 C 0.29033 0.19301 0.39797 0.0
H697 H 0.22019 0.15323 0.35556 0.0
H698 H 0.21376 0.16627 0.37139 0.0
H699 H 0.31119 0.2076 0.38523 0.0
H700 H 0.32954 0.1609 0.4291 0.0
H701 H 0.32583 0.17071 0.41321 0.0
H702 H 0.22144 0.13412 0.40143 0.0
C703 C 0.24054 0.16267 0.36867 0.0
C704 C 0.2913 0.19165 0.3887 0.0
C705 C 0.24426 0.15542 0.3596 0.0
C706 C 0.30311 0.16293 0.42608 0.0
C707 C 0.30097 0.16878 0.41694 0.0
C708 C 0.24061 0.15099 0.39799 0.0
C709 C 0.27107 0.16479 0.3742 0.0
C710 C 0.26737 0.16946 0.38397 0.0
C711 C 0.26735 0.16999 0.41262 0.0
C712 C 0.26552 0.17206 0.40275 0.0
H713 H 0.3359 0.14873 0.35873 0.0
H714 H 0.32942 0.16136 0.37448 0.0
H715 H 0.22292 0.13209 0.38529 0.0
H716 H 0.21327 0.15726 0.43062 0.0
H717 H 0.20951 0.16812 0.41468 0.0
C718 C 0.85625 0.74589 0.60719 0.0
C719 C 0.86287 0.779 0.60304 0.0
C720 C 0.84964 0.74422 0.61632 0.0
C721 C 0.82739 0.79983 0.63616 0.0
H722 H 0.8817 0.72716 0.64878 0.0
C723 C 0.86432 0.8118 0.67322 0.0
C724 C 0.86567 0.78059 0.67842 0.0
C725 C 0.85727 0.80974 0.66412 0.0
C726 C 0.86579 0.74723 0.64537 0.0
H727 H 0.86593 0.83646 0.6052 0.0
H728 H 0.85478 0.83352 0.62107 0.0
H729 H 0.8809 0.72685 0.63264 0.0
H730 H 0.85913 0.72278 0.67818 0.0
H731 H 0.84657 0.71923 0.6623 0.0
H732 H 0.81315 0.82078 0.64893 0.0
C733 C 0.85438 0.80882 0.61728 0.0
C734 C 0.86531 0.74705 0.6361 0.0
C735 C 0.86099 0.81049 0.60816 0.0
C736 C 0.85842 0.74735 0.67437 0.0
C737 C 0.85145 0.74528 0.66525 0.0
C738 C 0.8279 0.80003 0.64544 0.0
C739 C 0.84943 0.77561 0.62152 0.0
C740 C 0.84665 0.77372 0.63137 0.0
C741 C 0.85141 0.7764 0.65999 0.0
C742 C 0.84765 0.77411 0.65016 0.0
H743 H 0.85732 0.72111 0.60344 0.0
H744 H 0.84535 0.71824 0.61934 0.0
H745 H 0.81224 0.82041 0.63274 0.0
H746 H 0.86974 0.83786 0.67611 0.0
H747 H 0.85785 0.83422 0.66027 0.0
C748 C 0.2019 0.36215 0.85903 0.0
C749 C 0.2335 0.36191 0.85389 0.0
C750 C 0.20344 0.35657 0.86819 0.0
C751 C 0.26604 0.36529 0.88707 0.0
H752 H 0.18933 0.31722 0.89983 0.0
C753 C 0.2638 0.35924 0.92543 0.0
C754 C 0.23059 0.36853 0.9293 0.0
C755 C 0.2661 0.35203 0.91632 0.0
C756 C 0.21094 0.3308 0.89636 0.0
H757 H 0.29144 0.35412 0.85433 0.0
H758 H 0.29407 0.34395 0.87031 0.0
H759 H 0.18992 0.31585 0.88365 0.0
H760 H 0.17356 0.37607 0.92668 0.0
H761 H 0.1776 0.36361 0.91089 0.0
H762 H 0.28661 0.38088 0.89978 0.0
C763 C 0.26812 0.34904 0.86727 0.0
C764 C 0.21125 0.33006 0.88709 0.0
C765 C 0.26658 0.35464 0.85809 0.0
C766 C 0.19959 0.36905 0.92393 0.0
C767 C 0.20186 0.36167 0.91486 0.0
C768 C 0.26576 0.36596 0.89635 0.0
C769 C 0.23663 0.35053 0.87245 0.0
C770 C 0.2384 0.34793 0.88231 0.0
C771 C 0.23522 0.35369 0.91091 0.0
C772 C 0.23779 0.34936 0.9011 0.0
H773 H 0.17596 0.36771 0.85603 0.0
H774 H 0.17869 0.35836 0.87196 0.0
H775 H 0.28712 0.37974 0.88362 0.0
H776 H 0.2882 0.3586 0.92938 0.0
H777 H 0.29215 0.3456 0.9135 0.0
C778 C 0.65747 0.76193 0.10833 0.0
C779 C 0.62794 0.74222 0.10507 0.0
C780 C 0.66659 0.76052 0.11737 0.0
C781 C 0.65378 0.70569 0.13757 0.0
H782 H 0.65943 0.79536 0.15056 0.0
C783 C 0.61352 0.71657 0.17394 0.0
C784 C 0.6325 0.73931 0.17973 0.0
C785 C 0.6218 0.71548 0.16493 0.0
C786 C 0.65872 0.77006 0.14702 0.0
H787 H 0.58572 0.70467 0.10864 0.0
H788 H 0.60178 0.70191 0.12423 0.0
H789 H 0.65852 0.79599 0.13433 0.0
H790 H 0.67566 0.77837 0.18061 0.0
H791 H 0.69005 0.7767 0.16471 0.0
H792 H 0.65268 0.67975 0.1502 0.0
C793 C 0.61792 0.71849 0.11988 0.0
C794 C 0.65819 0.77043 0.13773 0.0
C795 C 0.60853 0.7203 0.11094 0.0
C796 C 0.6606 0.76051 0.17631 0.0
C797 C 0.6687 0.75969 0.16722 0.0
C798 C 0.6544 0.7053 0.14682 0.0
C799 C 0.64677 0.73881 0.12323 0.0
C800 C 0.65437 0.7383 0.13292 0.0
C801 C 0.6492 0.73726 0.16142 0.0
C802 C 0.65549 0.73754 0.15167 0.0
H803 H 0.67285 0.77914 0.10397 0.0
H804 H 0.689 0.77644 0.11978 0.0
H805 H 0.65151 0.68045 0.13404 0.0
H806 H 0.59177 0.69981 0.17634 0.0
H807 H 0.60583 0.69833 0.16065 0.0
C808 C 0.80029 0.60928 0.86026 0.0
C809 C 0.77766 0.62773 0.85435 0.0
C810 C 0.80177 0.61887 0.86919 0.0
C811 C 0.74815 0.65787 0.88691 0.0
H812 H 0.83924 0.6552 0.89955 0.0
C813 C 0.75662 0.6608 0.92546 0.0
C814 C 0.77834 0.63326 0.92892 0.0
C815 C 0.75789 0.66914 0.91638 0.0
C816 C 0.81357 0.65614 0.89612 0.0
H817 H 0.73911 0.67113 0.85316 0.0
H818 H 0.74127 0.68764 0.86895 0.0
H819 H 0.83883 0.65353 0.88339 0.0
H820 H 0.8194 0.59397 0.92568 0.0
H821 H 0.82169 0.60846 0.91002 0.0
H822 H 0.72285 0.65882 0.89969 0.0
C823 C 0.75799 0.66582 0.86658 0.0
C824 C 0.81335 0.65522 0.88687 0.0
C825 C 0.75687 0.65649 0.85756 0.0
C826 C 0.80224 0.61527 0.92323 0.0
C827 C 0.80377 0.62379 0.91424 0.0
C828 C 0.74836 0.65871 0.8962 0.0
C829 C 0.78042 0.64697 0.87249 0.0
C830 C 0.78062 0.65478 0.88216 0.0
C831 C 0.78129 0.65044 0.91066 0.0
C832 C 0.78106 0.65652 0.90091 0.0
H833 H 0.81675 0.58708 0.858 0.0
H834 H 0.81893 0.60346 0.87358 0.0
H835 H 0.72251 0.65741 0.88347 0.0
H836 H 0.73785 0.67505 0.92968 0.0
H837 H 0.74035 0.6899 0.91383 0.0
C838 C 0.40531 0.2121 0.17457 0.0
C839 C 0.38895 0.23681 0.18034 0.0
C840 C 0.39619 0.21119 0.1656 0.0
C841 C 0.36314 0.26794 0.14767 0.0
H842 H 0.35957 0.17746 0.13497 0.0
C843 C 0.35896 0.25948 0.1091 0.0
C844 C 0.38492 0.23598 0.10557 0.0
C845 C 0.35101 0.25901 0.1182 0.0
C846 C 0.36042 0.20297 0.13841 0.0
H847 H 0.34954 0.27958 0.18125 0.0
H848 H 0.33373 0.27822 0.16543 0.0
H849 H 0.36049 0.17766 0.15113 0.0
H850 H 0.42183 0.19274 0.10874 0.0
H851 H 0.40796 0.19183 0.12446 0.0
H852 H 0.36445 0.29315 0.1349 0.0
C853 C 0.35366 0.25953 0.16791 0.0
C854 C 0.36094 0.20308 0.14767 0.0
C855 C 0.36256 0.26018 0.17696 0.0
C856 C 0.40178 0.21129 0.11124 0.0
C857 C 0.3936 0.21056 0.12026 0.0
C858 C 0.36262 0.26783 0.13837 0.0
C859 C 0.37059 0.23512 0.16212 0.0
C860 C 0.36356 0.23549 0.15241 0.0
C861 C 0.36847 0.23466 0.12389 0.0
C862 C 0.36251 0.23526 0.13365 0.0
H863 H 0.42568 0.19366 0.17695 0.0
H864 H 0.41016 0.19243 0.16132 0.0
H865 H 0.36535 0.29335 0.15112 0.0
H866 H 0.34557 0.27887 0.1049 0.0
H867 H 0.33141 0.27781 0.1208 0.0
C868 C 0.69828 0.86255 0.36063 0.0
C869 C 0.73011 0.86357 0.35558 0.0
C870 C 0.69957 0.85616 0.36976 0.0
C871 C 0.76093 0.8657 0.38879 0.0
H872 H 0.68716 0.81194 0.4012 0.0
C873 C 0.76171 0.85423 0.42695 0.0
C874 C 0.72832 0.85973 0.43116 0.0
C875 C 0.76349 0.84874 0.41778 0.0
C876 C 0.70787 0.8272 0.39784 0.0
H877 H 0.78822 0.85718 0.35615 0.0
H878 H 0.79041 0.84577 0.37207 0.0
H879 H 0.68742 0.81293 0.38502 0.0
H880 H 0.67052 0.86235 0.42902 0.0
H881 H 0.67366 0.8532 0.41307 0.0
H882 H 0.78086 0.88079 0.40158 0.0
C883 C 0.76446 0.8504 0.36898 0.0
C884 C 0.70803 0.82775 0.38856 0.0
C885 C 0.76317 0.85671 0.35983 0.0
C886 C 0.6967 0.85818 0.42602 0.0
C887 C 0.69849 0.85273 0.41685 0.0
C888 C 0.76074 0.86522 0.39806 0.0
C889 C 0.73273 0.85067 0.37408 0.0
C890 C 0.73427 0.84742 0.38392 0.0
C891 C 0.73194 0.84861 0.41258 0.0
C892 C 0.7339 0.8464 0.40272 0.0
H893 H 0.67234 0.86772 0.35758 0.0
H894 H 0.67464 0.85692 0.37349 0.0
H895 H 0.78121 0.88159 0.38544 0.0
H896 H 0.7866 0.85513 0.43071 0.0
H897 H 0.78967 0.84509 0.41473 0.0
C898 C 0.16999 0.31331 0.67613 0.0
C899 C 0.16074 0.28137 0.68051 0.0
C900 C 0.17618 0.31348 0.66698 0.0
C901 C 0.19358 0.25502 0.64743 0.0
H902 H 0.14649 0.33186 0.63459 0.0
C903 C 0.16389 0.24926 0.60971 0.0
C904 C 0.16484 0.28139 0.60485 0.0
C905 C 0.16924 0.24948 0.61891 0.0
C906 C 0.16041 0.31053 0.63805 0.0
H907 H 0.1523 0.22422 0.67874 0.0
H908 H 0.16279 0.22459 0.66278 0.0
H909 H 0.14547 0.33181 0.65069 0.0
H910 H 0.17427 0.33869 0.60579 0.0
H911 H 0.18422 0.33898 0.62176 0.0
H912 H 0.20795 0.23346 0.63473 0.0
C913 C 0.16553 0.2495 0.66643 0.0
C914 C 0.15979 0.3105 0.64731 0.0
C915 C 0.15934 0.24932 0.67558 0.0
C916 C 0.17304 0.31348 0.60933 0.0
C917 C 0.1785 0.31369 0.61851 0.0
C918 C 0.19425 0.25508 0.63814 0.0
C919 C 0.17327 0.28172 0.66198 0.0
C920 C 0.17609 0.2826 0.65213 0.0
C921 C 0.17579 0.28183 0.62345 0.0
C922 C 0.17738 0.2827 0.63333 0.0
H923 H 0.17157 0.33845 0.67972 0.0
H924 H 0.18273 0.33866 0.6638 0.0
H925 H 0.20677 0.23335 0.65093 0.0
H926 H 0.15762 0.22404 0.60648 0.0
H927 H 0.16666 0.22448 0.62249 0.0
C928 C 0.27781 0.19291 0.30172 0.0
C929 C 0.25701 0.1614 0.30154 0.0
C930 C 0.2867 0.21053 0.29382 0.0
C931 C 0.26378 0.21669 0.26982 0.0
H932 H 0.36437 0.24297 0.26733 0.0
C933 C 0.33225 0.24044 0.23579 0.0
C934 C 0.3599 0.26615 0.23528 0.0
C935 C 0.31611 0.23241 0.24394 0.0
C936 C 0.33603 0.23644 0.26794 0.0
H937 H 0.22789 0.12465 0.29295 0.0
H938 H 0.2435 0.15516 0.27924 0.0
H939 H 0.34237 0.22121 0.28152 0.0
H940 H 0.39077 0.30504 0.24285 0.0
H941 H 0.36221 0.29157 0.25698 0.0
H942 H 0.25766 0.23136 0.25616 0.0
C943 C 0.25281 0.16646 0.28546 0.0
C944 C 0.3234 0.22394 0.27609 0.0
C945 C 0.24405 0.1488 0.29334 0.0
C946 C 0.36982 0.28481 0.24302 0.0
C947 C 0.35358 0.27692 0.25115 0.0
C948 C 0.27641 0.22929 0.26165 0.0
C949 C 0.27484 0.19713 0.28558 0.0
C950 C 0.28724 0.21347 0.27711 0.0
C951 C 0.32714 0.25002 0.25176 0.0
C952 C 0.31281 0.23892 0.26057 0.0
H953 H 0.28815 0.20339 0.30792 0.0
H954 H 0.30333 0.23438 0.29415 0.0
H955 H 0.23565 0.20928 0.27041 0.0
H956 H 0.32403 0.22552 0.22996 0.0
H957 H 0.29604 0.21133 0.24417 0.0
C958 C 0.77651 0.82843 0.48561 0.0
C959 C 0.75188 0.85696 0.485 0.0
C960 C 0.784 0.81262 0.49384 0.0
C961 C 0.75031 0.80475 0.517 0.0
H962 H 0.85119 0.79096 0.52278 0.0
C963 C 0.80252 0.79277 0.55304 0.0
C964 C 0.83203 0.77014 0.55472 0.0
C965 C 0.79031 0.7982 0.54436 0.0
C966 C 0.82283 0.79402 0.52125 0.0
H967 H 0.71483 0.89032 0.49249 0.0
H968 H 0.72798 0.86301 0.50675 0.0
H969 H 0.83421 0.80897 0.50785 0.0
H970 H 0.87072 0.7341 0.54861 0.0
H971 H 0.84911 0.74318 0.53353 0.0
H972 H 0.73901 0.79045 0.53047 0.0
C973 C 0.74137 0.85259 0.5009 0.0
C974 C 0.81309 0.80435 0.51267 0.0
C975 C 0.73402 0.86845 0.49272 0.0
C976 C 0.8481 0.75196 0.54756 0.0
C977 C 0.83585 0.75733 0.53889 0.0
C978 C 0.76004 0.79437 0.52559 0.0
C979 C 0.76684 0.82486 0.5016 0.0
C980 C 0.77677 0.8104 0.51047 0.0
C981 C 0.80726 0.78105 0.53715 0.0
C982 C 0.79648 0.78938 0.52786 0.0
H983 H 0.79068 0.8189 0.47979 0.0
H984 H 0.80349 0.79103 0.49413 0.0
H985 H 0.72202 0.80865 0.5155 0.0
H986 H 0.78956 0.80724 0.55839 0.0
H987 H 0.76845 0.81692 0.54326 0.0
C988 C 0.19277 0.273 0.7335 0.0
C989 C 0.16109 0.2523 0.73358 0.0
C990 C 0.21053 0.2814 0.74144 0.0
C991 C 0.21711 0.25705 0.76532 0.0
H992 H 0.24444 0.35671 0.76822 0.0
C993 C 0.24305 0.32305 0.79959 0.0
C994 C 0.26898 0.35047 0.80014 0.0
C995 C 0.2346 0.30737 0.79139 0.0
C996 C 0.23763 0.32862 0.7675 0.0
H997 H 0.12411 0.22298 0.74203 0.0
H998 H 0.15486 0.23779 0.75582 0.0
H999 H 0.22177 0.33594 0.75398 0.0
H1000 H 0.308 0.38126 0.79263 0.0
H1001 H 0.29385 0.35348 0.77842 0.0
H1002 H 0.23244 0.24997 0.77891 0.0
C1003 C 0.16618 0.24736 0.74964 0.0
C1004 C 0.22459 0.3167 0.75931 0.0
C1005 C 0.14839 0.23906 0.74172 0.0
C1006 C 0.28758 0.3605 0.79242 0.0
C1007 C 0.2793 0.34472 0.78426 0.0
C1008 C 0.23025 0.26898 0.77352 0.0
C1009 C 0.19709 0.26917 0.74962 0.0
C1010 C 0.21376 0.28088 0.75814 0.0
C1011 C 0.25204 0.31863 0.78359 0.0
C1012 C 0.24032 0.30503 0.77474 0.0
H1013 H 0.20335 0.28354 0.72734 0.0
H1014 H 0.23456 0.29788 0.74118 0.0
H1015 H 0.20942 0.22918 0.76461 0.0
H1016 H 0.22818 0.31475 0.80541 0.0
H1017 H 0.21328 0.28755 0.79113 0.0
C1018 C 0.7732 0.63866 0.99197 0.0
C1019 C 0.75836 0.65405 0.98428 0.0
C1020 C 0.7683 0.6547 1.00025 0.0
C1021 C 0.70578 0.71353 1.01221 0.0
H1022 H 0.7796 0.71016 0.03043 0.0
C1023 C 0.67683 0.76068 0.04796 0.0
C1024 C 0.68831 0.73721 0.05469 0.0
C1025 C 0.68916 0.75652 0.03925 0.0
C1026 C 0.75866 0.7112 0.02543 0.0
H1027 H 0.72765 0.69908 0.97925 0.0
H1028 H 0.71906 0.72727 0.99378 0.0
H1029 H 0.79438 0.69258 1.01526 0.0
H1030 H 0.72309 0.69198 0.05759 0.0
H1031 H 0.74436 0.68456 0.04242 0.0
H1032 H 0.6698 0.73119 0.0224 0.0
C1033 C 0.73428 0.70254 0.99337 0.0
C1034 C 0.76713 0.70115 1.01673 0.0
C1035 C 0.73937 0.68652 0.98504 0.0
C1036 C 0.71367 0.71053 0.05258 0.0
C1037 C 0.72602 0.70639 0.04388 0.0
C1038 C 0.69731 0.72357 0.0209 0.0
C1039 C 0.74835 0.68655 1.00109 0.0
C1040 C 0.74059 0.70146 1.01005 0.0
C1041 C 0.71333 0.72884 0.03706 0.0
C1042 C 0.72345 0.72184 0.02766 0.0
H1043 H 0.78808 0.61371 0.99163 0.0
H1044 H 0.7791 0.64135 1.00604 0.0
H1045 H 0.68457 0.71366 1.00727 0.0
H1046 H 0.65747 0.78169 0.04935 0.0
H1047 H 0.67929 0.77465 0.0342 0.0
C1048 C 0.32389 0.28028 0.05062 0.0
C1049 C 0.35382 0.25717 0.05055 0.0
C1050 C 0.30686 0.28988 0.04268 0.0
C1051 C 0.29805 0.26575 0.01883 0.0
H1052 H 0.28086 0.36751 1.01584 0.0
C1053 C 0.27627 0.33208 0.98446 0.0
C1054 C 0.25315 0.36186 0.98396 0.0
C1055 C 0.28409 0.31628 0.99267 0.0
C1056 C 0.28481 0.3389 1.01658 0.0
H1057 H 0.38821 0.22469 0.04211 0.0
H1058 H 0.35865 0.24147 0.02832 0.0
H1059 H 0.30142 0.34506 0.03009 0.0
H1060 H 0.21845 0.39704 0.99161 0.0
H1061 H 0.23131 0.36908 1.00582 0.0
H1062 H 0.28183 0.25971 1.00526 0.0
C1063 C 0.34819 0.2521 0.03449 0.0
C1064 C 0.29664 0.32603 0.02478 0.0
C1065 C 0.36531 0.24267 0.04241 0.0
C1066 C 0.23675 0.37442 0.99177 0.0
C1067 C 0.2443 0.3585 0.99994 0.0
C1068 C 0.28605 0.27862 1.01062 0.0
C1069 C 0.31925 0.2764 0.03451 0.0
C1070 C 0.30379 0.28937 0.02598 0.0
C1071 C 0.26874 0.32979 1.00054 0.0
C1072 C 0.27961 0.31544 1.00937 0.0
H1073 H 0.31431 0.29186 0.05678 0.0
H1074 H 0.28432 0.30831 0.04293 0.0
H1075 H 0.30295 0.23728 0.01957 0.0
H1076 H 0.28939 0.32183 0.97856 0.0
H1077 H 0.30325 0.2944 0.99287 0.0
C1078 C 0.74471 0.82575 0.30168 0.0
C1079 C 0.76476 0.85775 0.30181 0.0
C1080 C 0.73634 0.80894 0.29362 0.0
C1081 C 0.75942 0.8063 0.2696 0.0
H1082 H 0.65972 0.77705 0.26691 0.0
C1083 C 0.69159 0.7814 0.23541 0.0
C1084 C 0.66499 0.75463 0.23485 0.0
C1085 C 0.70747 0.78994 0.24358 0.0
C1086 C 0.68784 0.78445 0.26757 0.0
H1087 H 0.79312 0.89622 0.2936 0.0
H1088 H 0.77835 0.86712 0.2796 0.0
H1089 H 0.68104 0.79837 0.28123 0.0
H1090 H 0.6358 0.7144 0.24234 0.0
H1091 H 0.66389 0.72873 0.25649 0.0
H1092 H 0.76595 0.79287 0.25586 0.0
C1093 C 0.76925 0.85483 0.2857 0.0
C1094 C 0.70008 0.79669 0.2758 0.0
C1095 C 0.77753 0.87166 0.29374 0.0
C1096 C 0.6559 0.73547 0.24255 0.0
C1097 C 0.67186 0.74384 0.25068 0.0
C1098 C 0.74717 0.79396 0.26134 0.0
C1099 C 0.74792 0.82368 0.28552 0.0
C1100 C 0.73592 0.8081 0.27691 0.0
C1101 C 0.69719 0.77177 0.25136 0.0
C1102 C 0.71111 0.78316 0.26021 0.0
H1103 H 0.73457 0.81422 0.30778 0.0
H1104 H 0.72031 0.78467 0.29373 0.0
H1105 H 0.78732 0.8145 0.27025 0.0
H1106 H 0.69914 0.79672 0.2296 0.0
H1107 H 0.72669 0.81178 0.24386 0.0
C1108 C 0.2378 0.16931 0.48668 0.0
C1109 C 0.25711 0.1374 0.48519 0.0
C1110 C 0.23186 0.18169 0.49536 0.0
C1111 C 0.2264 0.14738 0.51821 0.0
H1112 H 0.23196 0.24729 0.52523 0.0
C1113 C 0.20939 0.18812 0.55468 0.0
C1114 C 0.18761 0.21811 0.55646 0.0
C1115 C 0.22105 0.18083 0.54605 0.0
C1116 C 0.23001 0.21931 0.52336 0.0
H1117 H 0.28669 0.09446 0.49162 0.0
H1118 H 0.27658 0.1161 0.50661 0.0
H1119 H 0.24576 0.23013 0.50993 0.0
H1120 H 0.1623 0.26483 0.55058 0.0
H1121 H 0.18216 0.25179 0.5355 0.0
H1122 H 0.2101 0.13638 0.53151 0.0
C1123 C 0.26544 0.13124 0.50113 0.0
C1124 C 0.23791 0.2095 0.51459 0.0
C1125 C 0.27138 0.11893 0.49251 0.0
C1126 C 0.17906 0.24149 0.54945 0.0
C1127 C 0.19058 0.23408 0.5408 0.0
C1128 C 0.21841 0.15714 0.52693 0.0
C1129 C 0.24503 0.16235 0.50268 0.0
C1130 C 0.23638 0.17337 0.51194 0.0
C1131 C 0.21105 0.2032 0.53896 0.0
C1132 C 0.22025 0.19319 0.52965 0.0
H1133 H 0.22647 0.18417 0.48119 0.0
H1134 H 0.21591 0.2057 0.49633 0.0
H1135 H 0.22418 0.1194 0.51635 0.0
H1136 H 0.21676 0.16973 0.55993 0.0
H1137 H 0.23747 0.15726 0.54492 0.0
C1138 C 0.87519 0.76434 0.74075 0.0
C1139 C 0.86099 0.75302 0.73256 0.0
C1140 C 0.85733 0.75654 0.74867 0.0
C1141 C 0.79519 0.6907 0.75817 0.0
H1142 H 0.79242 0.75686 0.77805 0.0
C1143 C 0.73355 0.64848 0.79154 0.0
C1144 C 0.75313 0.65778 0.7992 0.0
C1145 C 0.74177 0.66399 0.78336 0.0
C1146 C 0.79318 0.73798 0.77258 0.0
H1147 H 0.8162 0.72562 0.72625 0.0
H1148 H 0.78494 0.71191 0.74011 0.0
H1149 H 0.81552 0.77701 0.76373 0.0
H1150 H 0.79578 0.69182 0.80431 0.0
H1151 H 0.81059 0.71844 0.79001 0.0
H1152 H 0.77398 0.65135 0.76703 0.0
C1153 C 0.8101 0.72663 0.74039 0.0
C1154 C 0.80634 0.74956 0.76437 0.0
C1155 C 0.82789 0.73466 0.73245 0.0
C1156 C 0.78011 0.68412 0.79855 0.0
C1157 C 0.7885 0.69949 0.79034 0.0
C1158 C 0.78219 0.67908 0.76638 0.0
C1159 C 0.82489 0.73707 0.7486 0.0
C1160 C 0.80792 0.72592 0.7571 0.0
C1161 C 0.76995 0.68903 0.7826 0.0
C1162 C 0.78139 0.70243 0.77372 0.0
H1163 H 0.90059 0.77863 0.74108 0.0
H1164 H 0.86968 0.76465 0.75487 0.0
H1165 H 0.79657 0.67163 0.75276 0.0
H1166 H 0.71235 0.62854 0.79182 0.0
H1167 H 0.72637 0.65587 0.77759 0.0
loop_
_geom_bond_atom_site_label_1
_geom_bond_atom_site_label_2
_geom_bond_distance
_geom_bond_site_symmetry_2
_ccdc_geom_bond_type
Mg0 O7 2.141 . S
Mg0 O8 2.048 . S
Mg0 O9 2.048 . S
Mg0 O12 2.141 . S
C1 O2 1.313 . S
C1 O8 1.195 . S
O2 C1 1.313 . S
C3 O4 1.245 . S
C3 O12 1.289 . S
O4 C3 1.245 . S
C5 O6 1.245 . S
C5 O7 1.289 . S
O6 C5 1.245 . S
O7 Mg0 2.141 . S
O7 C5 1.289 . S
O8 Mg0 2.048 . S
O8 C1 1.195 . S
O9 Mg0 2.048 . S
O9 C10 1.195 . S
C10 O9 1.195 . S
C10 O11 1.313 . S
O11 C10 1.313 . S
O12 Mg0 2.141 . S
O12 C3 1.289 . S
Mg13 O20 2.141 . S
Mg13 O21 2.048 . S
Mg13 O22 2.048 . S
Mg13 O25 2.141 . S
C14 O15 1.313 . S
C14 O21 1.195 . S
O15 C14 1.313 . S
C16 O17 1.245 . S
C16 O25 1.289 . S
O17 C16 1.245 . S
C18 O19 1.245 . S
C18 O20 1.289 . S
O19 C18 1.245 . S
O20 Mg13 2.141 . S
O20 C18 1.289 . S
O21 Mg13 2.048 . S
O21 C14 1.195 . S
O22 Mg13 2.048 . S
O22 C23 1.195 . S
C23 O22 1.195 . S
C23 O24 1.313 . S
O24 C23 1.313 . S
O25 Mg13 2.141 . S
O25 C16 1.289 . S
Mg26 O33 2.141 . S
Mg26 O34 2.048 . S
Mg26 O35 2.048 . S
Mg26 O38 2.141 . S
C27 O28 1.313 . S
C27 O34 1.195 . S
O28 C27 1.313 . S
C29 O30 1.245 . S
C29 O38 1.289 . S
O30 C29 1.245 . S
C31 O32 1.245 . S
C31 O33 1.289 . S
O32 C31 1.245 . S
O33 Mg26 2.141 . S
O33 C31 1.289 . S
O34 Mg26 2.048 . S
O34 C27 1.195 . S
O35 Mg26 2.048 . S
O35 C36 1.195 . S
C36 O35 1.195 . S
C36 O37 1.313 . S
O37 C36 1.313 . S
O38 Mg26 2.141 . S
O38 C29 1.289 . S
Mg39 O46 2.141 . S
Mg39 O47 2.048 . S
Mg39 O48 2.048 . S
Mg39 O51 2.141 . S
C40 O41 1.313 . S
C40 O47 1.195 . S
O41 C40 1.313 . S
C42 O43 1.245 . S
C42 O51 1.289 . S
O43 C42 1.245 . S
C44 O45 1.245 . S
C44 O46 1.289 . S
O45 C44 1.245 . S
O46 Mg39 2.141 . S
O46 C44 1.289 . S
O47 Mg39 2.048 . S
O47 C40 1.195 . S
O48 Mg39 2.048 . S
O48 C49 1.195 . S
C49 O48 1.195 . S
C49 O50 1.313 . S
O50 C49 1.313 . S
O51 Mg39 2.141 . S
O51 C42 1.289 . S
Mg52 O59 2.141 . S
Mg52 O60 2.048 . S
Mg52 O61 2.048 . S
Mg52 O64 2.141 . S
C53 O54 1.313 . S
C53 O60 1.195 . S
O54 C53 1.313 . S
C55 O56 1.245 . S
C55 O64 1.289 . S
O56 C55 1.245 . S
C57 O58 1.245 . S
C57 O59 1.289 . S
O58 C57 1.245 . S
O59 Mg52 2.141 . S
O59 C57 1.289 . S
O60 Mg52 2.048 . S
O60 C53 1.195 . S
O61 Mg52 2.048 . S
O61 C62 1.195 . S
C62 O61 1.195 . S
C62 O63 1.313 . S
O63 C62 1.313 . S
O64 Mg52 2.141 . S
O64 C55 1.289 . S
Mg65 O72 2.141 . S
Mg65 O73 2.048 . S
Mg65 O74 2.048 . S
Mg65 O77 2.141 . S
C66 O67 1.313 . S
C66 O73 1.195 . S
O67 C66 1.313 . S
C68 O69 1.245 . S
C68 O77 1.289 . S
O69 C68 1.245 . S
C70 O71 1.245 . S
C70 O72 1.289 . S
O71 C70 1.245 . S
O72 Mg65 2.141 . S
O72 C70 1.289 . S
O73 Mg65 2.048 . S
O73 C66 1.195 . S
O74 Mg65 2.048 . S
O74 C75 1.195 . S
C75 O74 1.195 . S
C75 O76 1.313 . S
O76 C75 1.313 . S
O77 Mg65 2.141 . S
O77 C68 1.289 . S
Mg78 O85 2.141 . S
Mg78 O86 2.048 . S
Mg78 O87 2.048 . S
Mg78 O90 2.141 . S
C79 O80 1.313 . S
C79 O86 1.195 . S
O80 C79 1.313 . S
C81 O82 1.245 . S
C81 O90 1.289 . S
O82 C81 1.245 . S
C83 O84 1.245 . S
C83 O85 1.289 . S
O84 C83 1.245 . S
O85 Mg78 2.141 . S
O85 C83 1.289 . S
O86 Mg78 2.048 . S
O86 C79 1.195 . S
O87 Mg78 2.048 . S
O87 C88 1.195 . S
C88 O87 1.195 . S
C88 O89 1.313 . S
O89 C88 1.313 . S
O90 Mg78 2.141 . S
O90 C81 1.289 . S
Mg91 O98 2.141 . S
Mg91 O99 2.048 . S
Mg91 O100 2.048 . S
Mg91 O103 2.141 . S
C92 O93 1.313 . S
C92 O99 1.195 . S
O93 C92 1.313 . S
C94 O95 1.245 . S
C94 O103 1.289 . S
O95 C94 1.245 . S
C96 O97 1.245 . S
C96 O98 1.289 . S
O97 C96 1.245 . S
O98 Mg91 2.141 . S
O98 C96 1.289 . S
O99 Mg91 2.048 . S
O99 C92 1.195 . S
O100 Mg91 2.048 . S
O100 C101 1.195 . S
C101 O100 1.195 . S
C101 O102 1.313 . S
O102 C101 1.313 . S
O103 Mg91 2.141 . S
O103 C94 1.289 . S
Mg104 O111 2.141 . S
Mg104 O112 2.048 . S
Mg104 O113 2.048 . S
Mg104 O116 2.141 . S
C105 O106 1.313 . S
C105 O112 1.195 . S
O106 C105 1.313 . S
C107 O108 1.245 . S
C107 O116 1.289 . S
O108 C107 1.245 . S
C109 O110 1.245 . S
C109 O111 1.289 . S
O110 C109 1.245 . S
O111 Mg104 2.141 . S
O111 C109 1.289 . S
O112 Mg104 2.048 . S
O112 C105 1.195 . S
O113 Mg104 2.048 . S
O113 C114 1.195 . S
C114 O113 1.195 . S
C114 O115 1.313 . S
O115 C114 1.313 . S
O116 Mg104 2.141 . S
O116 C107 1.289 . S
Mg117 O124 2.141 . S
Mg117 O125 2.048 . S
Mg117 O126 2.048 . S
Mg117 O129 2.141 . S
C118 O119 1.313 . S
C118 O125 1.195 . S
O119 C118 1.313 . S
C120 O121 1.245 . S
C120 O129 1.289 . S
O121 C120 1.245 . S
C122 O123 1.245 . S
C122 O124 1.289 . S
O123 C122 1.245 . S
O124 Mg117 2.141 . S
O124 C122 1.289 . S
O125 Mg117 2.048 . S
O125 C118 1.195 . S
O126 Mg117 2.048 . S
O126 C127 1.195 . S
C127 O126 1.195 . S
C127 O128 1.313 . S
O128 C127 1.313 . S
O129 Mg117 2.141 . S
O129 C120 1.289 . S
Mg130 O137 2.141 . S
Mg130 O138 2.048 . S
Mg130 O139 2.048 . S
Mg130 O142 2.141 . S
C131 O132 1.313 . S
C131 O138 1.195 . S
O132 C131 1.313 . S
C133 O134 1.245 . S
C133 O142 1.289 . S
O134 C133 1.245 . S
C135 O136 1.245 . S
C135 O137 1.289 . S
O136 C135 1.245 . S
O137 Mg130 2.141 . S
O137 C135 1.289 . S
O138 Mg130 2.048 . S
O138 C131 1.195 . S
O139 Mg130 2.048 . S
O139 C140 1.195 . S
C140 O139 1.195 . S
C140 O141 1.313 . S
O141 C140 1.313 . S
O142 Mg130 2.141 . S
O142 C133 1.289 . S
Mg143 O150 2.141 . S
Mg143 O151 2.048 . S
Mg143 O152 2.048 . S
Mg143 O155 2.141 . S
C144 O145 1.313 . S
C144 O151 1.195 . S
O145 C144 1.313 . S
C146 O147 1.245 . S
C146 O155 1.289 . S
O147 C146 1.245 . S
C148 O149 1.245 . S
C148 O150 1.289 . S
O149 C148 1.245 . S
O150 Mg143 2.141 . S
O150 C148 1.289 . S
O151 Mg143 2.048 . S
O151 C144 1.195 . S
O152 Mg143 2.048 . S
O152 C153 1.195 . S
C153 O152 1.195 . S
C153 O154 1.313 . S
O154 C153 1.313 . S
O155 Mg143 2.141 . S
O155 C146 1.289 . S
Mg156 O163 2.141 . S
Mg156 O164 2.048 . S
Mg156 O165 2.048 . S
Mg156 O168 2.141 . S
C157 O158 1.313 . S
C157 O164 1.195 . S
O158 C157 1.313 . S
C159 O160 1.245 . S
C159 O168 1.289 . S
O160 C159 1.245 . S
C161 O162 1.245 . S
C161 O163 1.289 . S
O162 C161 1.245 . S
O163 Mg156 2.141 . S
O163 C161 1.289 . S
O164 Mg156 2.048 . S
O164 C157 1.195 . S
O165 Mg156 2.048 . S
O165 C166 1.195 . S
C166 O165 1.195 . S
C166 O167 1.313 . S
O167 C166 1.313 . S
O168 Mg156 2.141 . S
O168 C159 1.289 . S
Mg169 O176 2.141 . S
Mg169 O177 2.048 . S
Mg169 O178 2.048 . S
Mg169 O181 2.141 . S
C170 O171 1.313 . S
C170 O177 1.195 . S
O171 C170 1.313 . S
C172 O173 1.245 . S
C172 O181 1.289 . S
O173 C172 1.245 . S
C174 O175 1.245 . S
C174 O176 1.289 . S
O175 C174 1.245 . S
O176 Mg169 2.141 . S
O176 C174 1.289 . S
O177 Mg169 2.048 . S
O177 C170 1.195 . S
O178 Mg169 2.048 . S
O178 C179 1.195 . S
C179 O178 1.195 . S
C179 O180 1.313 . S
O180 C179 1.313 . S
O181 Mg169 2.141 . S
O181 C172 1.289 . S
Mg182 O189 2.141 . S
Mg182 O190 2.048 . S
Mg182 O191 2.048 . S
Mg182 O194 2.141 . S
C183 O184 1.313 . S
C183 O190 1.195 . S
O184 C183 1.313 . S
C185 O186 1.245 . S
C185 O194 1.289 . S
O186 C185 1.245 . S
C187 O188 1.245 . S
C187 O189 1.289 . S
O188 C187 1.245 . S
O189 Mg182 2.141 . S
O189 C187 1.289 . S
O190 Mg182 2.048 . S
O190 C183 1.195 . S
O191 Mg182 2.048 . S
O191 C192 1.195 . S
C192 O191 1.195 . S
C192 O193 1.313 . S
O193 C192 1.313 . S
O194 Mg182 2.141 . S
O194 C185 1.289 . S
Mg195 O202 2.141 . S
Mg195 O203 2.048 . S
Mg195 O204 2.048 . S
Mg195 O207 2.141 . S
C196 O197 1.313 . S
C196 O203 1.195 . S
O197 C196 1.313 . S
C198 O199 1.245 . S
C198 O207 1.289 . S
O199 C198 1.245 . S
C200 O201 1.245 . S
C200 O202 1.289 . S
O201 C200 1.245 . S
O202 Mg195 2.141 . S
O202 C200 1.289 . S
O203 Mg195 2.048 . S
O203 C196 1.195 . S
O204 Mg195 2.048 . S
O204 C205 1.195 . S
C205 O204 1.195 . S
C205 O206 1.313 . S
O206 C205 1.313 . S
O207 Mg195 2.141 . S
O207 C198 1.289 . S
C208 C209 1.349 . S
C208 C210 1.327 . S
C208 H233 0.950 . S
C209 C208 1.349 . S
C209 C225 1.349 . S
C210 C208 1.327 . S
C210 C229 1.429 . S
C210 H234 0.950 . S
C211 C228 1.574 1_655 S
C211 C230 1.368 1_545 S
C211 H235 0.949 . S
H212 C216 0.949 . S
C213 C214 1.349 . S
C213 C215 1.327 . S
C213 H236 0.950 . S
C214 C213 1.349 . S
C214 C226 1.349 . S
C215 C213 1.327 . S
C215 C231 1.429 . S
C215 H237 0.950 . S
C216 H212 0.949 . S
C216 C224 1.574 1_455 S
C216 C232 1.368 1_565 S
H217 C225 0.950 . S
H218 C223 0.950 . S
H219 C224 0.949 . S
H220 C226 0.950 . S
H221 C227 0.950 . S
H222 C228 0.949 . S
C223 H218 0.950 . S
C223 C225 1.327 . S
C223 C229 1.429 . S
C224 C216 1.574 1_655 S
C224 H219 0.949 . S
C224 C230 1.368 . S
C225 C209 1.349 . S
C225 H217 0.950 . S
C225 C223 1.327 . S
C226 C214 1.349 . S
C226 H220 0.950 . S
C226 C227 1.327 . S
C227 H221 0.950 . S
C227 C226 1.327 . S
C227 C231 1.429 . S
C228 C211 1.574 1_455 S
C228 H222 0.949 . S
C228 C232 1.368 . S
C229 C210 1.429 . S
C229 C223 1.429 . S
C229 C230 1.523 . S
C230 C211 1.368 1_565 S
C230 C224 1.368 . S
C230 C229 1.523 . S
C231 C215 1.429 . S
C231 C227 1.429 . S
C231 C232 1.523 . S
C232 C216 1.368 1_545 S
C232 C228 1.368 . S
C232 C231 1.523 . S
H233 C208 0.950 . S
H234 C210 0.950 . S
H235 C211 0.949 . S
H236 C213 0.950 . S
H237 C215 0.950 . S
C238 C239 1.349 . S
C238 C240 1.327 . S
C238 H263 0.950 . S
C239 C238 1.349 . S
C239 C255 1.349 . S
C240 C238 1.327 . S
C240 C259 1.429 . S
C240 H264 0.950 . S
C241 C258 1.574 . S
C241 C260 1.368 . S
C241 H265 0.949 . S
H242 C246 0.949 . S
C243 C244 1.349 . S
C243 C245 1.327 . S
C243 H266 0.950 . S
C244 C243 1.349 . S
C244 C256 1.349 . S
C245 C243 1.327 . S
C245 C261 1.429 . S
C245 H267 0.950 . S
C246 H242 0.949 . S
C246 C254 1.574 . S
C246 C262 1.368 . S
H247 C255 0.950 . S
H248 C253 0.950 . S
H249 C254 0.949 . S
H250 C256 0.950 . S
H251 C257 0.950 . S
H252 C258 0.949 . S
C253 H248 0.950 . S
C253 C255 1.327 . S
C253 C259 1.429 . S
C254 C246 1.574 . S
C254 H249 0.949 . S
C254 C260 1.368 1_455 S
C255 C239 1.349 . S
C255 H247 0.950 . S
C255 C253 1.327 . S
C256 C244 1.349 . S
C256 H250 0.950 . S
C256 C257 1.327 . S
C257 H251 0.950 . S
C257 C256 1.327 . S
C257 C261 1.429 . S
C258 C241 1.574 . S
C258 H252 0.949 . S
C258 C262 1.368 1_655 S
C259 C240 1.429 . S
C259 C253 1.429 . S
C259 C260 1.523 . S
C260 C241 1.368 . S
C260 C254 1.368 1_655 S
C260 C259 1.523 . S
C261 C245 1.429 . S
C261 C257 1.429 . S
C261 C262 1.523 . S
C262 C246 1.368 . S
C262 C258 1.368 1_455 S
C262 C261 1.523 . S
H263 C238 0.950 . S
H264 C240 0.950 . S
H265 C241 0.949 . S
H266 C243 0.950 . S
H267 C245 0.950 . S
C268 C269 1.349 . S
C268 C270 1.327 . S
C268 H293 0.950 . S
C269 C268 1.349 . S
C269 C285 1.349 . S
C270 C268 1.327 . S
C270 C289 1.429 . S
C270 H294 0.950 . S
C271 C288 1.574 . S
C271 C290 1.368 . S
C271 H295 0.949 . S
H272 C276 0.949 . S
C273 C274 1.349 . S
C273 C275 1.327 . S
C273 H296 0.950 . S
C274 C273 1.349 . S
C274 C286 1.349 . S
C275 C273 1.327 . S
C275 C291 1.429 . S
C275 H297 0.950 . S
C276 H272 0.949 . S
C276 C284 1.574 . S
C276 C292 1.368 . S
H277 C285 0.950 . S
H278 C283 0.950 . S
H279 C284 0.949 . S
H280 C286 0.950 . S
H281 C287 0.950 . S
H282 C288 0.949 . S
C283 H278 0.950 . S
C283 C285 1.327 . S
C283 C289 1.429 . S
C284 C276 1.574 . S
C284 H279 0.949 . S
C284 C290 1.368 . S
C285 C269 1.349 . S
C285 H277 0.950 . S
C285 C283 1.327 . S
C286 C274 1.349 . S
C286 H280 0.950 . S
C286 C287 1.327 . S
C287 H281 0.950 . S
C287 C286 1.327 . S
C287 C291 1.429 . S
C288 C271 1.574 . S
C288 H282 0.949 . S
C288 C292 1.368 . S
C289 C270 1.429 . S
C289 C283 1.429 . S
C289 C290 1.523 . S
C290 C271 1.368 . S
C290 C284 1.368 . S
C290 C289 1.523 . S
C291 C275 1.429 . S
C291 C287 1.429 . S
C291 C292 1.523 . S
C292 C276 1.368 . S
C292 C288 1.368 . S
C292 C291 1.523 . S
H293 C268 0.950 . S
H294 C270 0.950 . S
H295 C271 0.949 . S
H296 C273 0.950 . S
H297 C275 0.950 . S
C298 C299 1.349 . S
C298 C300 1.327 . S
C298 H323 0.950 . S
C299 C298 1.349 . S
C299 C315 1.349 . S
C300 C298 1.327 . S
C300 C319 1.429 . S
C300 H324 0.950 . S
C301 C318 1.574 1_545 S
C301 C320 1.368 . S
C301 H325 0.949 . S
H302 C306 0.949 . S
C303 C304 1.349 . S
C303 C305 1.327 . S
C303 H326 0.950 . S
C304 C303 1.349 . S
C304 C316 1.349 . S
C305 C303 1.327 . S
C305 C321 1.429 . S
C305 H327 0.950 . S
C306 H302 0.949 . S
C306 C314 1.574 1_565 S
C306 C322 1.368 . S
H307 C315 0.950 . S
H308 C313 0.950 . S
H309 C314 0.949 . S
H310 C316 0.950 . S
H311 C317 0.950 . S
H312 C318 0.949 . S
C313 H308 0.950 . S
C313 C315 1.327 . S
C313 C319 1.429 . S
C314 C306 1.574 1_545 S
C314 H309 0.949 . S
C314 C320 1.368 . S
C315 C299 1.349 . S
C315 H307 0.950 . S
C315 C313 1.327 . S
C316 C304 1.349 . S
C316 H310 0.950 . S
C316 C317 1.327 . S
C317 H311 0.950 . S
C317 C316 1.327 . S
C317 C321 1.429 . S
C318 C301 1.574 1_565 S
C318 H312 0.949 . S
C318 C322 1.368 . S
C319 C300 1.429 . S
C319 C313 1.429 . S
C319 C320 1.523 . S
C320 C301 1.368 . S
C320 C314 1.368 . S
C320 C319 1.523 . S
C321 C305 1.429 . S
C321 C317 1.429 . S
C321 C322 1.523 . S
C322 C306 1.368 . S
C322 C318 1.368 . S
C322 C321 1.523 . S
H323 C298 0.950 . S
H324 C300 0.950 . S
H325 C301 0.949 . S
H326 C303 0.950 . S
H327 C305 0.950 . S
C328 C329 1.349 . S
C328 C330 1.327 . S
C328 H353 0.950 . S
C329 C328 1.349 . S
C329 C345 1.349 . S
C330 C328 1.327 . S
C330 C349 1.429 . S
C330 H354 0.950 . S
C331 C348 1.574 1_455 S
C331 C350 1.368 . S
C331 H355 0.949 . S
H332 C336 0.949 . S
C333 C334 1.349 . S
C333 C335 1.327 . S
C333 H356 0.950 . S
C334 C333 1.349 . S
C334 C346 1.349 . S
C335 C333 1.327 . S
C335 C351 1.429 . S
C335 H357 0.950 . S
C336 H332 0.949 . S
C336 C344 1.574 1_655 S
C336 C352 1.368 . S
H337 C345 0.950 . S
H338 C343 0.950 . S
H339 C344 0.949 . S
H340 C346 0.950 . S
H341 C347 0.950 . S
H342 C348 0.949 . S
C343 H338 0.950 . S
C343 C345 1.327 . S
C343 C349 1.429 . S
C344 C336 1.574 1_455 S
C344 H339 0.949 . S
C344 C350 1.368 . S
C345 C329 1.349 . S
C345 H337 0.950 . S
C345 C343 1.327 . S
C346 C334 1.349 . S
C346 H340 0.950 . S
C346 C347 1.327 . S
C347 H341 0.950 . S
C347 C346 1.327 . S
C347 C351 1.429 . S
C348 C331 1.574 1_655 S
C348 H342 0.949 . S
C348 C352 1.368 . S
C349 C330 1.429 . S
C349 C343 1.429 . S
C349 C350 1.523 . S
C350 C331 1.368 . S
C350 C344 1.368 . S
C350 C349 1.523 . S
C351 C335 1.429 . S
C351 C347 1.429 . S
C351 C352 1.523 . S
C352 C336 1.368 . S
C352 C348 1.368 . S
C352 C351 1.523 . S
H353 C328 0.950 . S
H354 C330 0.950 . S
H355 C331 0.949 . S
H356 C333 0.950 . S
H357 C335 0.950 . S
C358 C359 1.349 . S
C358 C360 1.327 . S
C358 H383 0.950 . S
C359 C358 1.349 . S
C359 C375 1.349 . S
C360 C358 1.327 . S
C360 C379 1.429 . S
C360 H384 0.950 . S
C361 C378 1.574 . S
C361 C380 1.368 . S
C361 H385 0.949 . S
H362 C366 0.949 . S
C363 C364 1.349 . S
C363 C365 1.327 . S
C363 H386 0.950 . S
C364 C363 1.349 . S
C364 C376 1.349 . S
C365 C363 1.327 . S
C365 C381 1.429 . S
C365 H387 0.950 . S
C366 H362 0.949 . S
C366 C374 1.574 . S
C366 C382 1.368 . S
H367 C375 0.950 . S
H368 C373 0.950 . S
H369 C374 0.949 . S
H370 C376 0.950 . S
H371 C377 0.950 . S
H372 C378 0.949 . S
C373 H368 0.950 . S
C373 C375 1.327 . S
C373 C379 1.429 . S
C374 C366 1.574 . S
C374 H369 0.949 . S
C374 C380 1.368 . S
C375 C359 1.349 . S
C375 H367 0.950 . S
C375 C373 1.327 . S
C376 C364 1.349 . S
C376 H370 0.950 . S
C376 C377 1.327 . S
C377 H371 0.950 . S
C377 C376 1.327 . S
C377 C381 1.429 . S
C378 C361 1.574 . S
C378 H372 0.949 . S
C378 C382 1.368 . S
C379 C360 1.429 . S
C379 C373 1.429 . S
C379 C380 1.523 . S
C380 C361 1.368 . S
C380 C374 1.368 . S
C380 C379 1.523 . S
C381 C365 1.429 . S
C381 C377 1.429 . S
C381 C382 1.523 . S
C382 C366 1.368 . S
C382 C378 1.368 . S
C382 C381 1.523 . S
H383 C358 0.950 . S
H384 C360 0.950 . S
H385 C361 0.949 . S
H386 C363 0.950 . S
H387 C365 0.950 . S
C388 C389 1.349 . S
C388 C390 1.327 . S
C388 H413 0.950 . S
C389 C388 1.349 . S
C389 C405 1.349 . S
C390 C388 1.327 . S
C390 C409 1.429 . S
C390 H414 0.950 . S
C391 C408 1.574 . S
C391 C410 1.368 . S
C391 H415 0.949 . S
H392 C396 0.949 . S
C393 C394 1.349 . S
C393 C395 1.327 . S
C393 H416 0.950 . S
C394 C393 1.349 . S
C394 C406 1.349 . S
C395 C393 1.327 . S
C395 C411 1.429 . S
C395 H417 0.950 . S
C396 H392 0.949 . S
C396 C404 1.574 . S
C396 C412 1.368 . S
H397 C405 0.950 . S
H398 C403 0.950 . S
H399 C404 0.949 . S
H400 C406 0.950 . S
H401 C407 0.950 . S
H402 C408 0.949 . S
C403 H398 0.950 . S
C403 C405 1.327 . S
C403 C409 1.429 . S
C404 C396 1.574 . S
C404 H399 0.949 . S
C404 C410 1.368 1_565 S
C405 C389 1.349 . S
C405 H397 0.950 . S
C405 C403 1.327 . S
C406 C394 1.349 . S
C406 H400 0.950 . S
C406 C407 1.327 . S
C407 H401 0.950 . S
C407 C406 1.327 . S
C407 C411 1.429 . S
C408 C391 1.574 . S
C408 H402 0.949 . S
C408 C412 1.368 1_545 S
C409 C390 1.429 . S
C409 C403 1.429 . S
C409 C410 1.523 . S
C410 C391 1.368 . S
C410 C404 1.368 1_545 S
C410 C409 1.523 . S
C411 C395 1.429 . S
C411 C407 1.429 . S
C411 C412 1.523 . S
C412 C396 1.368 . S
C412 C408 1.368 1_565 S
C412 C411 1.523 . S
H413 C388 0.950 . S
H414 C390 0.950 . S
H415 C391 0.949 . S
H416 C393 0.950 . S
H417 C395 0.950 . S
C418 C419 1.349 . S
C418 C420 1.327 . S
C418 H443 0.950 . S
C419 C418 1.349 . S
C419 C435 1.349 . S
C420 C418 1.327 . S
C420 C439 1.429 . S
C420 H444 0.950 . S
C421 C438 1.574 1_545 S
C421 C440 1.368 . S
C421 H445 0.949 . S
H422 C426 0.949 . S
C423 C424 1.349 . S
C423 C425 1.327 . S
C423 H446 0.950 . S
C424 C423 1.349 . S
C424 C436 1.349 . S
C425 C423 1.327 . S
C425 C441 1.429 . S
C425 H447 0.950 . S
C426 H422 0.949 . S
C426 C434 1.574 1_565 S
C426 C442 1.368 . S
H427 C435 0.950 . S
H428 C433 0.950 . S
H429 C434 0.949 . S
H430 C436 0.950 . S
H431 C437 0.950 . S
H432 C438 0.949 . S
C433 H428 0.950 . S
C433 C435 1.327 . S
C433 C439 1.429 . S
C434 C426 1.574 1_545 S
C434 H429 0.949 . S
C434 C440 1.368 1_655 S
C435 C419 1.349 . S
C435 H427 0.950 . S
C435 C433 1.327 . S
C436 C424 1.349 . S
C436 H430 0.950 . S
C436 C437 1.327 . S
C437 H431 0.950 . S
C437 C436 1.327 . S
C437 C441 1.429 . S
C438 C421 1.574 1_565 S
C438 H432 0.949 . S
C438 C442 1.368 1_455 S
C439 C420 1.429 . S
C439 C433 1.429 . S
C439 C440 1.523 . S
C440 C421 1.368 . S
C440 C434 1.368 1_455 S
C440 C439 1.523 . S
C441 C425 1.429 . S
C441 C437 1.429 . S
C441 C442 1.523 . S
C442 C426 1.368 . S
C442 C438 1.368 1_655 S
C442 C441 1.523 . S
H443 C418 0.950 . S
H444 C420 0.950 . S
H445 C421 0.949 . S
H446 C423 0.950 . S
H447 C425 0.950 . S
C448 C449 1.349 . S
C448 C450 1.327 . S
C448 H473 0.950 . S
C449 C448 1.349 . S
C449 C465 1.349 . S
C450 C448 1.327 . S
C450 C469 1.429 . S
C450 H474 0.950 . S
C451 C468 1.574 . S
C451 C470 1.368 . S
C451 H475 0.949 . S
H452 C456 0.949 . S
C453 C454 1.349 . S
C453 C455 1.327 . S
C453 H476 0.950 . S
C454 C453 1.349 . S
C454 C466 1.349 . S
C455 C453 1.327 . S
C455 C471 1.429 . S
C455 H477 0.950 . S
C456 H452 0.949 . S
C456 C464 1.574 . S
C456 C472 1.368 . S
H457 C465 0.950 . S
H458 C463 0.950 . S
H459 C464 0.949 . S
H460 C466 0.950 . S
H461 C467 0.950 . S
H462 C468 0.949 . S
C463 H458 0.950 . S
C463 C465 1.327 . S
C463 C469 1.429 . S
C464 C456 1.574 . S
C464 H459 0.949 . S
C464 C470 1.368 1_545 S
C465 C449 1.349 . S
C465 H457 0.950 . S
C465 C463 1.327 . S
C466 C454 1.349 . S
C466 H460 0.950 . S
C466 C467 1.327 . S
C467 H461 0.950 . S
C467 C466 1.327 . S
C467 C471 1.429 . S
C468 C451 1.574 . S
C468 H462 0.949 . S
C468 C472 1.368 1_565 S
C469 C450 1.429 . S
C469 C463 1.429 . S
C469 C470 1.523 . S
C470 C451 1.368 . S
C470 C464 1.368 1_565 S
C470 C469 1.523 . S
C471 C455 1.429 . S
C471 C467 1.429 . S
C471 C472 1.523 . S
C472 C456 1.368 . S
C472 C468 1.368 1_545 S
C472 C471 1.523 . S
H473 C448 0.950 . S
H474 C450 0.950 . S
H475 C451 0.949 . S
H476 C453 0.950 . S
H477 C455 0.950 . S
C478 C479 1.349 . S
C478 C480 1.327 . S
C478 H503 0.950 . S
C479 C478 1.349 . S
C479 C495 1.349 . S
C480 C478 1.327 . S
C480 C499 1.429 . S
C480 H504 0.950 . S
C481 C498 1.574 1_565 S
C481 C500 1.368 . S
C481 H505 0.949 . S
H482 C486 0.949 . S
C483 C484 1.349 . S
C483 C485 1.327 . S
C483 H506 0.950 . S
C484 C483 1.349 . S
C484 C496 1.349 . S
C485 C483 1.327 . S
C485 C501 1.429 . S
C485 H507 0.950 . S
C486 H482 0.949 . S
C486 C494 1.574 1_545 S
C486 C502 1.368 . S
H487 C495 0.950 . S
H488 C493 0.950 . S
H489 C494 0.949 . S
H490 C496 0.950 . S
H491 C497 0.950 . S
H492 C498 0.949 . S
C493 H488 0.950 . S
C493 C495 1.327 . S
C493 C499 1.429 . S
C494 C486 1.574 1_565 S
C494 H489 0.949 . S
C494 C500 1.368 1_455 S
C495 C479 1.349 . S
C495 H487 0.950 . S
C495 C493 1.327 . S
C496 C484 1.349 . S
C496 H490 0.950 . S
C496 C497 1.327 . S
C497 H491 0.950 . S
C497 C496 1.327 . S
C497 C501 1.429 . S
C498 C481 1.574 1_545 S
C498 H492 0.949 . S
C498 C502 1.368 1_655 S
C499 C480 1.429 . S
C499 C493 1.429 . S
C499 C500 1.523 . S
C500 C481 1.368 . S
C500 C494 1.368 1_655 S
C500 C499 1.523 . S
C501 C485 1.429 . S
C501 C497 1.429 . S
C501 C502 1.523 . S
C502 C486 1.368 . S
C502 C498 1.368 1_455 S
C502 C501 1.523 . S
H503 C478 0.950 . S
H504 C480 0.950 . S
H505 C481 0.949 . S
H506 C483 0.950 . S
H507 C485 0.950 . S
C508 C509 1.349 . S
C508 C510 1.327 . S
C508 H533 0.950 . S
C509 C508 1.349 . S
C509 C525 1.349 . S
C510 C508 1.327 . S
C510 C529 1.429 . S
C510 H534 0.950 . S
C511 C528 1.574 1_455 S
C511 C530 1.368 . S
C511 H535 0.949 . S
H512 C516 0.949 . S
C513 C514 1.349 . S
C513 C515 1.327 . S
C513 H536 0.950 . S
C514 C513 1.349 . S
C514 C526 1.349 . S
C515 C513 1.327 . S
C515 C531 1.429 . S
C515 H537 0.950 . S
C516 H512 0.949 . S
C516 C524 1.574 1_655 S
C516 C532 1.368 . S
H517 C525 0.950 . S
H518 C523 0.950 . S
H519 C524 0.949 . S
H520 C526 0.950 . S
H521 C527 0.950 . S
H522 C528 0.949 . S
C523 H518 0.950 . S
C523 C525 1.327 . S
C523 C529 1.429 . S
C524 C516 1.574 1_455 S
C524 H519 0.949 . S
C524 C530 1.368 . S
C525 C509 1.349 . S
C525 H517 0.950 . S
C525 C523 1.327 . S
C526 C514 1.349 . S
C526 H520 0.950 . S
C526 C527 1.327 . S
C527 H521 0.950 . S
C527 C526 1.327 . S
C527 C531 1.429 . S
C528 C511 1.574 1_655 S
C528 H522 0.949 . S
C528 C532 1.368 . S
C529 C510 1.429 . S
C529 C523 1.429 . S
C529 C530 1.523 . S
C530 C511 1.368 . S
C530 C524 1.368 . S
C530 C529 1.523 . S
C531 C515 1.429 . S
C531 C527 1.429 . S
C531 C532 1.523 . S
C532 C516 1.368 . S
C532 C528 1.368 . S
C532 C531 1.523 . S
H533 C508 0.950 . S
H534 C510 0.950 . S
H535 C511 0.949 . S
H536 C513 0.950 . S
H537 C515 0.950 . S
C538 C539 1.349 . S
C538 C540 1.327 . S
C538 H563 0.950 . S
C539 C538 1.349 . S
C539 C555 1.349 . S
C540 C538 1.327 . S
C540 C559 1.429 . S
C540 H564 0.950 . S
C541 C558 1.574 . S
C541 C560 1.368 . S
C541 H565 0.949 . S
H542 C546 0.949 . S
C543 C544 1.349 . S
C543 C545 1.327 . S
C543 H566 0.950 . S
C544 C543 1.349 . S
C544 C556 1.349 . S
C545 C543 1.327 . S
C545 C561 1.429 . S
C545 H567 0.950 . S
C546 H542 0.949 . S
C546 C554 1.574 . S
C546 C562 1.368 . S
H547 C555 0.950 . S
H548 C553 0.950 . S
H549 C554 0.949 . S
H550 C556 0.950 . S
H551 C557 0.950 . S
H552 C558 0.949 . S
C553 H548 0.950 . S
C553 C555 1.327 . S
C553 C559 1.429 . S
C554 C546 1.574 . S
C554 H549 0.949 . S
C554 C560 1.368 . S
C555 C539 1.349 . S
C555 H547 0.950 . S
C555 C553 1.327 . S
C556 C544 1.349 . S
C556 H550 0.950 . S
C556 C557 1.327 . S
C557 H551 0.950 . S
C557 C556 1.327 . S
C557 C561 1.429 . S
C558 C541 1.574 . S
C558 H552 0.949 . S
C558 C562 1.368 . S
C559 C540 1.429 . S
C559 C553 1.429 . S
C559 C560 1.523 . S
C560 C541 1.368 . S
C560 C554 1.368 . S
C560 C559 1.523 . S
C561 C545 1.429 . S
C561 C557 1.429 . S
C561 C562 1.523 . S
C562 C546 1.368 . S
C562 C558 1.368 . S
C562 C561 1.523 . S
H563 C538 0.950 . S
H564 C540 0.950 . S
H565 C541 0.949 . S
H566 C543 0.950 . S
H567 C545 0.950 . S
C568 C569 1.349 . S
C568 C570 1.327 . S
C568 H593 0.950 . S
C569 C568 1.349 . S
C569 C585 1.349 . S
C570 C568 1.327 . S
C570 C589 1.429 . S
C570 H594 0.950 . S
C571 C588 1.574 . S
C571 C590 1.368 . S
C571 H595 0.949 . S
H572 C576 0.949 . S
C573 C574 1.349 . S
C573 C575 1.327 . S
C573 H596 0.950 . S
C574 C573 1.349 . S
C574 C586 1.349 . S
C575 C573 1.327 . S
C575 C591 1.429 . S
C575 H597 0.950 . S
C576 H572 0.949 . S
C576 C584 1.574 . S
C576 C592 1.368 . S
H577 C585 0.950 . S
H578 C583 0.950 . S
H579 C584 0.949 . S
H580 C586 0.950 . S
H581 C587 0.950 . S
H582 C588 0.949 . S
C583 H578 0.950 . S
C583 C585 1.327 . S
C583 C589 1.429 . S
C584 C576 1.574 . S
C584 H579 0.949 . S
C584 C590 1.368 . S
C585 C569 1.349 . S
C585 H577 0.950 . S
C585 C583 1.327 . S
C586 C574 1.349 . S
C586 H580 0.950 . S
C586 C587 1.327 . S
C587 H581 0.950 . S
C587 C586 1.327 . S
C587 C591 1.429 . S
C588 C571 1.574 . S
C588 H582 0.949 . S
C588 C592 1.368 . S
C589 C570 1.429 . S
C589 C583 1.429 . S
C589 C590 1.523 . S
C590 C571 1.368 . S
C590 C584 1.368 . S
C590 C589 1.523 . S
C591 C575 1.429 . S
C591 C587 1.429 . S
C591 C592 1.523 . S
C592 C576 1.368 . S
C592 C588 1.368 . S
C592 C591 1.523 . S
H593 C568 0.950 . S
H594 C570 0.950 . S
H595 C571 0.949 . S
H596 C573 0.950 . S
H597 C575 0.950 . S
C598 C599 1.349 . S
C598 C600 1.327 . S
C598 H623 0.950 . S
C599 C598 1.349 . S
C599 C615 1.349 . S
C600 C598 1.327 . S
C600 C619 1.429 . S
C600 H624 0.950 . S
C601 C618 1.574 1_565 S
C601 C620 1.368 . S
C601 H625 0.949 . S
H602 C606 0.949 . S
C603 C604 1.349 . S
C603 C605 1.327 . S
C603 H626 0.950 . S
C604 C603 1.349 . S
C604 C616 1.349 . S
C605 C603 1.327 . S
C605 C621 1.429 . S
C605 H627 0.950 . S
C606 H602 0.949 . S
C606 C614 1.574 1_545 S
C606 C622 1.368 . S
H607 C615 0.950 . S
H608 C613 0.950 . S
H609 C614 0.949 . S
H610 C616 0.950 . S
H611 C617 0.950 . S
H612 C618 0.949 . S
C613 H608 0.950 . S
C613 C615 1.327 . S
C613 C619 1.429 . S
C614 C606 1.574 1_565 S
C614 H609 0.949 . S
C614 C620 1.368 . S
C615 C599 1.349 . S
C615 H607 0.950 . S
C615 C613 1.327 . S
C616 C604 1.349 . S
C616 H610 0.950 . S
C616 C617 1.327 . S
C617 H611 0.950 . S
C617 C616 1.327 . S
C617 C621 1.429 . S
C618 C601 1.574 1_545 S
C618 H612 0.949 . S
C618 C622 1.368 . S
C619 C600 1.429 . S
C619 C613 1.429 . S
C619 C620 1.523 . S
C620 C601 1.368 . S
C620 C614 1.368 . S
C620 C619 1.523 . S
C621 C605 1.429 . S
C621 C617 1.429 . S
C621 C622 1.523 . S
C622 C606 1.368 . S
C622 C618 1.368 . S
C622 C621 1.523 . S
H623 C598 0.950 . S
H624 C600 0.950 . S
H625 C601 0.949 . S
H626 C603 0.950 . S
H627 C605 0.950 . S
C628 C629 1.349 . S
C628 C630 1.327 . S
C628 H653 0.950 . S
C629 C628 1.349 . S
C629 C645 1.349 . S
C630 C628 1.327 . S
C630 C649 1.429 . S
C630 H654 0.950 . S
C631 C648 1.574 1_655 S
C631 C650 1.368 1_545 S
C631 H655 0.949 . S
H632 C636 0.949 . S
C633 C634 1.349 . S
C633 C635 1.327 . S
C633 H656 0.950 . S
C634 C633 1.349 . S
C634 C646 1.349 . S
C635 C633 1.327 . S
C635 C651 1.429 . S
C635 H657 0.950 . S
C636 H632 0.949 . S
C636 C644 1.574 1_455 S
C636 C652 1.368 1_565 S
H637 C645 0.950 . S
H638 C643 0.950 . S
H639 C644 0.949 . S
H640 C646 0.950 . S
H641 C647 0.950 . S
H642 C648 0.949 . S
C643 H638 0.950 . S
C643 C645 1.327 . S
C643 C649 1.429 . S
C644 C636 1.574 1_655 S
C644 H639 0.949 . S
C644 C650 1.368 . S
C645 C629 1.349 . S
C645 H637 0.950 . S
C645 C643 1.327 . S
C646 C634 1.349 . S
C646 H640 0.950 . S
C646 C647 1.327 . S
C647 H641 0.950 . S
C647 C646 1.327 . S
C647 C651 1.429 . S
C648 C631 1.574 1_455 S
C648 H642 0.949 . S
C648 C652 1.368 . S
C649 C630 1.429 . S
C649 C643 1.429 . S
C649 C650 1.523 . S
C650 C631 1.368 1_565 S
C650 C644 1.368 . S
C650 C649 1.523 . S
C651 C635 1.429 . S
C651 C647 1.429 . S
C651 C652 1.523 . S
C652 C636 1.368 1_545 S
C652 C648 1.368 . S
C652 C651 1.523 . S
H653 C628 0.950 . S
H654 C630 0.950 . S
H655 C631 0.949 . S
H656 C633 0.950 . S
H657 C635 0.950 . S
C658 C659 1.349 . S
C658 C660 1.327 . S
C658 H683 0.950 . S
C659 C658 1.349 . S
C659 C675 1.349 . S
C660 C658 1.327 . S
C660 C679 1.429 . S
C660 H684 0.950 . S
C661 C678 1.574 . S
C661 C680 1.368 1_655 S
C661 H685 0.949 . S
H662 C666 0.949 . S
C663 C664 1.349 . S
C663 C665 1.327 . S
C663 H686 0.950 . S
C664 C663 1.349 . S
C664 C676 1.349 . S
C665 C663 1.327 . S
C665 C681 1.429 . S
C665 H687 0.950 . S
C666 H662 0.949 . S
C666 C674 1.574 . S
C666 C682 1.368 1_455 S
H667 C675 0.950 . S
H668 C673 0.950 . S
H669 C674 0.949 . S
H670 C676 0.950 . S
H671 C677 0.950 . S
H672 C678 0.949 . S
C673 H668 0.950 . S
C673 C675 1.327 . S
C673 C679 1.429 . S
C674 C666 1.574 . S
C674 H669 0.949 . S
C674 C680 1.368 . S
C675 C659 1.349 . S
C675 H667 0.950 . S
C675 C673 1.327 . S
C676 C664 1.349 . S
C676 H670 0.950 . S
C676 C677 1.327 . S
C677 H671 0.950 . S
C677 C676 1.327 . S
C677 C681 1.429 . S
C678 C661 1.574 . S
C678 H672 0.949 . S
C678 C682 1.368 . S
C679 C660 1.429 . S
C679 C673 1.429 . S
C679 C680 1.523 . S
C680 C661 1.368 1_455 S
C680 C674 1.368 . S
C680 C679 1.523 . S
C681 C665 1.429 . S
C681 C677 1.429 . S
C681 C682 1.523 . S
C682 C666 1.368 1_655 S
C682 C678 1.368 . S
C682 C681 1.523 . S
H683 C658 0.950 . S
H684 C660 0.950 . S
H685 C661 0.949 . S
H686 C663 0.950 . S
H687 C665 0.950 . S
C688 C689 1.349 . S
C688 C690 1.327 . S
C688 H713 0.950 . S
C689 C688 1.349 . S
C689 C705 1.349 . S
C690 C688 1.327 . S
C690 C709 1.429 . S
C690 H714 0.950 . S
C691 C708 1.574 . S
C691 C710 1.368 . S
C691 H715 0.949 . S
H692 C696 0.949 . S
C693 C694 1.349 . S
C693 C695 1.327 . S
C693 H716 0.950 . S
C694 C693 1.349 . S
C694 C706 1.349 . S
C695 C693 1.327 . S
C695 C711 1.429 . S
C695 H717 0.950 . S
C696 H692 0.949 . S
C696 C704 1.574 . S
C696 C712 1.368 . S
H697 C705 0.950 . S
H698 C703 0.950 . S
H699 C704 0.949 . S
H700 C706 0.950 . S
H701 C707 0.950 . S
H702 C708 0.949 . S
C703 H698 0.950 . S
C703 C705 1.327 . S
C703 C709 1.429 . S
C704 C696 1.574 . S
C704 H699 0.949 . S
C704 C710 1.368 . S
C705 C689 1.349 . S
C705 H697 0.950 . S
C705 C703 1.327 . S
C706 C694 1.349 . S
C706 H700 0.950 . S
C706 C707 1.327 . S
C707 H701 0.950 . S
C707 C706 1.327 . S
C707 C711 1.429 . S
C708 C691 1.574 . S
C708 H702 0.949 . S
C708 C712 1.368 . S
C709 C690 1.429 . S
C709 C703 1.429 . S
C709 C710 1.523 . S
C710 C691 1.368 . S
C710 C704 1.368 . S
C710 C709 1.523 . S
C711 C695 1.429 . S
C711 C707 1.429 . S
C711 C712 1.523 . S
C712 C696 1.368 . S
C712 C708 1.368 . S
C712 C711 1.523 . S
H713 C688 0.950 . S
H714 C690 0.950 . S
H715 C691 0.949 . S
H716 C693 0.950 . S
H717 C695 0.950 . S
C718 C719 1.349 . S
C718 C720 1.327 . S
C718 H743 0.950 . S
C719 C718 1.349 . S
C719 C735 1.349 . S
C720 C718 1.327 . S
C720 C739 1.429 . S
C720 H744 0.950 . S
C721 C738 1.574 . S
C721 C740 1.368 . S
C721 H745 0.949 . S
H722 C726 0.949 . S
C723 C724 1.349 . S
C723 C725 1.327 . S
C723 H746 0.950 . S
C724 C723 1.349 . S
C724 C736 1.349 . S
C725 C723 1.327 . S
C725 C741 1.429 . S
C725 H747 0.950 . S
C726 H722 0.949 . S
C726 C734 1.574 . S
C726 C742 1.368 . S
H727 C735 0.950 . S
H728 C733 0.950 . S
H729 C734 0.949 . S
H730 C736 0.950 . S
H731 C737 0.950 . S
H732 C738 0.949 . S
C733 H728 0.950 . S
C733 C735 1.327 . S
C733 C739 1.429 . S
C734 C726 1.574 . S
C734 H729 0.949 . S
C734 C740 1.368 . S
C735 C719 1.349 . S
C735 H727 0.950 . S
C735 C733 1.327 . S
C736 C724 1.349 . S
C736 H730 0.950 . S
C736 C737 1.327 . S
C737 H731 0.950 . S
C737 C736 1.327 . S
C737 C741 1.429 . S
C738 C721 1.574 . S
C738 H732 0.949 . S
C738 C742 1.368 . S
C739 C720 1.429 . S
C739 C733 1.429 . S
C739 C740 1.523 . S
C740 C721 1.368 . S
C740 C734 1.368 . S
C740 C739 1.523 . S
C741 C725 1.429 . S
C741 C737 1.429 . S
C741 C742 1.523 . S
C742 C726 1.368 . S
C742 C738 1.368 . S
C742 C741 1.523 . S
H743 C718 0.950 . S
H744 C720 0.950 . S
H745 C721 0.949 . S
H746 C723 0.950 . S
H747 C725 0.950 . S
C748 C749 1.349 . S
C748 C750 1.327 . S
C748 H773 0.950 . S
C749 C748 1.349 . S
C749 C765 1.349 . S
C750 C748 1.327 . S
C750 C769 1.429 . S
C750 H774 0.950 . S
C751 C768 1.574 . S
C751 C770 1.368 . S
C751 H775 0.949 . S
H752 C756 0.949 . S
C753 C754 1.349 . S
C753 C755 1.327 . S
C753 H776 0.950 . S
C754 C753 1.349 . S
C754 C766 1.349 . S
C755 C753 1.327 . S
C755 C771 1.429 . S
C755 H777 0.950 . S
C756 H752 0.949 . S
C756 C764 1.574 . S
C756 C772 1.368 . S
H757 C765 0.950 . S
H758 C763 0.950 . S
H759 C764 0.949 . S
H760 C766 0.950 . S
H761 C767 0.950 . S
H762 C768 0.949 . S
C763 H758 0.950 . S
C763 C765 1.327 . S
C763 C769 1.429 . S
C764 C756 1.574 . S
C764 H759 0.949 . S
C764 C770 1.368 . S
C765 C749 1.349 . S
C765 H757 0.950 . S
C765 C763 1.327 . S
C766 C754 1.349 . S
C766 H760 0.950 . S
C766 C767 1.327 . S
C767 H761 0.950 . S
C767 C766 1.327 . S
C767 C771 1.429 . S
C768 C751 1.574 . S
C768 H762 0.949 . S
C768 C772 1.368 . S
C769 C750 1.429 . S
C769 C763 1.429 . S
C769 C770 1.523 . S
C770 C751 1.368 . S
C770 C764 1.368 . S
C770 C769 1.523 . S
C771 C755 1.429 . S
C771 C767 1.429 . S
C771 C772 1.523 . S
C772 C756 1.368 . S
C772 C768 1.368 . S
C772 C771 1.523 . S
H773 C748 0.950 . S
H774 C750 0.950 . S
H775 C751 0.949 . S
H776 C753 0.950 . S
H777 C755 0.950 . S
C778 C779 1.349 . S
C778 C780 1.327 . S
C778 H803 0.950 . S
C779 C778 1.349 . S
C779 C795 1.349 . S
C780 C778 1.327 . S
C780 C799 1.429 . S
C780 H804 0.950 . S
C781 C798 1.574 . S
C781 C800 1.368 . S
C781 H805 0.949 . S
H782 C786 0.949 . S
C783 C784 1.349 . S
C783 C785 1.327 . S
C783 H806 0.950 . S
C784 C783 1.349 . S
C784 C796 1.349 . S
C785 C783 1.327 . S
C785 C801 1.429 . S
C785 H807 0.950 . S
C786 H782 0.949 . S
C786 C794 1.574 . S
C786 C802 1.368 . S
H787 C795 0.950 . S
H788 C793 0.950 . S
H789 C794 0.949 . S
H790 C796 0.950 . S
H791 C797 0.950 . S
H792 C798 0.949 . S
C793 H788 0.950 . S
C793 C795 1.327 . S
C793 C799 1.429 . S
C794 C786 1.574 . S
C794 H789 0.949 . S
C794 C800 1.368 . S
C795 C779 1.349 . S
C795 H787 0.950 . S
C795 C793 1.327 . S
C796 C784 1.349 . S
C796 H790 0.950 . S
C796 C797 1.327 . S
C797 H791 0.950 . S
C797 C796 1.327 . S
C797 C801 1.429 . S
C798 C781 1.574 . S
C798 H792 0.949 . S
C798 C802 1.368 . S
C799 C780 1.429 . S
C799 C793 1.429 . S
C799 C800 1.523 . S
C800 C781 1.368 . S
C800 C794 1.368 . S
C800 C799 1.523 . S
C801 C785 1.429 . S
C801 C797 1.429 . S
C801 C802 1.523 . S
C802 C786 1.368 . S
C802 C798 1.368 . S
C802 C801 1.523 . S
H803 C778 0.950 . S
H804 C780 0.950 . S
H805 C781 0.949 . S
H806 C783 0.950 . S
H807 C785 0.950 . S
C808 C809 1.349 . S
C808 C810 1.327 . S
C808 H833 0.950 . S
C809 C808 1.349 . S
C809 C825 1.349 . S
C810 C808 1.327 . S
C810 C829 1.429 . S
C810 H834 0.950 . S
C811 C828 1.574 . S
C811 C830 1.368 . S
C811 H835 0.949 . S
H812 C816 0.949 . S
C813 C814 1.349 . S
C813 C815 1.327 . S
C813 H836 0.950 . S
C814 C813 1.349 . S
C814 C826 1.349 . S
C815 C813 1.327 . S
C815 C831 1.429 . S
C815 H837 0.950 . S
C816 H812 0.949 . S
C816 C824 1.574 . S
C816 C832 1.368 . S
H817 C825 0.950 . S
H818 C823 0.950 . S
H819 C824 0.949 . S
H820 C826 0.950 . S
H821 C827 0.950 . S
H822 C828 0.949 . S
C823 H818 0.950 . S
C823 C825 1.327 . S
C823 C829 1.429 . S
C824 C816 1.574 . S
C824 H819 0.949 . S
C824 C830 1.368 . S
C825 C809 1.349 . S
C825 H817 0.950 . S
C825 C823 1.327 . S
C826 C814 1.349 . S
C826 H820 0.950 . S
C826 C827 1.327 . S
C827 H821 0.950 . S
C827 C826 1.327 . S
C827 C831 1.429 . S
C828 C811 1.574 . S
C828 H822 0.949 . S
C828 C832 1.368 . S
C829 C810 1.429 . S
C829 C823 1.429 . S
C829 C830 1.523 . S
C830 C811 1.368 . S
C830 C824 1.368 . S
C830 C829 1.523 . S
C831 C815 1.429 . S
C831 C827 1.429 . S
C831 C832 1.523 . S
C832 C816 1.368 . S
C832 C828 1.368 . S
C832 C831 1.523 . S
H833 C808 0.950 . S
H834 C810 0.950 . S
H835 C811 0.949 . S
H836 C813 0.950 . S
H837 C815 0.950 . S
C838 C839 1.349 . S
C838 C840 1.327 . S
C838 H863 0.950 . S
C839 C838 1.349 . S
C839 C855 1.349 . S
C840 C838 1.327 . S
C840 C859 1.429 . S
C840 H864 0.950 . S
C841 C858 1.574 . S
C841 C860 1.368 . S
C841 H865 0.949 . S
H842 C846 0.949 . S
C843 C844 1.349 . S
C843 C845 1.327 . S
C843 H866 0.950 . S
C844 C843 1.349 . S
C844 C856 1.349 . S
C845 C843 1.327 . S
C845 C861 1.429 . S
C845 H867 0.950 . S
C846 H842 0.949 . S
C846 C854 1.574 . S
C846 C862 1.368 . S
H847 C855 0.950 . S
H848 C853 0.950 . S
H849 C854 0.949 . S
H850 C856 0.950 . S
H851 C857 0.950 . S
H852 C858 0.949 . S
C853 H848 0.950 . S
C853 C855 1.327 . S
C853 C859 1.429 . S
C854 C846 1.574 . S
C854 H849 0.949 . S
C854 C860 1.368 . S
C855 C839 1.349 . S
C855 H847 0.950 . S
C855 C853 1.327 . S
C856 C844 1.349 . S
C856 H850 0.950 . S
C856 C857 1.327 . S
C857 H851 0.950 . S
C857 C856 1.327 . S
C857 C861 1.429 . S
C858 C841 1.574 . S
C858 H852 0.949 . S
C858 C862 1.368 . S
C859 C840 1.429 . S
C859 C853 1.429 . S
C859 C860 1.523 . S
C860 C841 1.368 . S
C860 C854 1.368 . S
C860 C859 1.523 . S
C861 C845 1.429 . S
C861 C857 1.429 . S
C861 C862 1.523 . S
C862 C846 1.368 . S
C862 C858 1.368 . S
C862 C861 1.523 . S
H863 C838 0.950 . S
H864 C840 0.950 . S
H865 C841 0.949 . S
H866 C843 0.950 . S
H867 C845 0.950 . S
C868 C869 1.349 . S
C868 C870 1.327 . S
C868 H893 0.950 . S
C869 C868 1.349 . S
C869 C885 1.349 . S
C870 C868 1.327 . S
C870 C889 1.429 . S
C870 H894 0.950 . S
C871 C888 1.574 . S
C871 C890 1.368 . S
C871 H895 0.949 . S
H872 C876 0.949 . S
C873 C874 1.349 . S
C873 C875 1.327 . S
C873 H896 0.950 . S
C874 C873 1.349 . S
C874 C886 1.349 . S
C875 C873 1.327 . S
C875 C891 1.429 . S
C875 H897 0.950 . S
C876 H872 0.949 . S
C876 C884 1.574 . S
C876 C892 1.368 . S
H877 C885 0.950 . S
H878 C883 0.950 . S
H879 C884 0.949 . S
H880 C886 0.950 . S
H881 C887 0.950 . S
H882 C888 0.949 . S
C883 H878 0.950 . S
C883 C885 1.327 . S
C883 C889 1.429 . S
C884 C876 1.574 . S
C884 H879 0.949 . S
C884 C890 1.368 . S
C885 C869 1.349 . S
C885 H877 0.950 . S
C885 C883 1.327 . S
C886 C874 1.349 . S
C886 H880 0.950 . S
C886 C887 1.327 . S
C887 H881 0.950 . S
C887 C886 1.327 . S
C887 C891 1.429 . S
C888 C871 1.574 . S
C888 H882 0.949 . S
C888 C892 1.368 . S
C889 C870 1.429 . S
C889 C883 1.429 . S
C889 C890 1.523 . S
C890 C871 1.368 . S
C890 C884 1.368 . S
C890 C889 1.523 . S
C891 C875 1.429 . S
C891 C887 1.429 . S
C891 C892 1.523 . S
C892 C876 1.368 . S
C892 C888 1.368 . S
C892 C891 1.523 . S
H893 C868 0.950 . S
H894 C870 0.950 . S
H895 C871 0.949 . S
H896 C873 0.950 . S
H897 C875 0.950 . S
C898 C899 1.349 . S
C898 C900 1.327 . S
C898 H923 0.950 . S
C899 C898 1.349 . S
C899 C915 1.349 . S
C900 C898 1.327 . S
C900 C919 1.429 . S
C900 H924 0.950 . S
C901 C918 1.574 . S
C901 C920 1.368 . S
C901 H925 0.949 . S
H902 C906 0.949 . S
C903 C904 1.349 . S
C903 C905 1.327 . S
C903 H926 0.950 . S
C904 C903 1.349 . S
C904 C916 1.349 . S
C905 C903 1.327 . S
C905 C921 1.429 . S
C905 H927 0.950 . S
C906 H902 0.949 . S
C906 C914 1.574 . S
C906 C922 1.368 . S
H907 C915 0.950 . S
H908 C913 0.950 . S
H909 C914 0.949 . S
H910 C916 0.950 . S
H911 C917 0.950 . S
H912 C918 0.949 . S
C913 H908 0.950 . S
C913 C915 1.327 . S
C913 C919 1.429 . S
C914 C906 1.574 . S
C914 H909 0.949 . S
C914 C920 1.368 . S
C915 C899 1.349 . S
C915 H907 0.950 . S
C915 C913 1.327 . S
C916 C904 1.349 . S
C916 H910 0.950 . S
C916 C917 1.327 . S
C917 H911 0.950 . S
C917 C916 1.327 . S
C917 C921 1.429 . S
C918 C901 1.574 . S
C918 H912 0.949 . S
C918 C922 1.368 . S
C919 C900 1.429 . S
C919 C913 1.429 . S
C919 C920 1.523 . S
C920 C901 1.368 . S
C920 C914 1.368 . S
C920 C919 1.523 . S
C921 C905 1.429 . S
C921 C917 1.429 . S
C921 C922 1.523 . S
C922 C906 1.368 . S
C922 C918 1.368 . S
C922 C921 1.523 . S
H923 C898 0.950 . S
H924 C900 0.950 . S
H925 C901 0.949 . S
H926 C903 0.950 . S
H927 C905 0.950 . S
C928 C929 1.349 . S
C928 C930 1.327 . S
C928 H953 0.950 . S
C929 C928 1.349 . S
C929 C945 1.349 . S
C930 C928 1.327 . S
C930 C949 1.429 . S
C930 H954 0.950 . S
C931 C948 1.574 . S
C931 C950 1.368 . S
C931 H955 0.949 . S
H932 C936 0.949 . S
C933 C934 1.349 . S
C933 C935 1.327 . S
C933 H956 0.950 . S
C934 C933 1.349 . S
C934 C946 1.349 . S
C935 C933 1.327 . S
C935 C951 1.429 . S
C935 H957 0.950 . S
C936 H932 0.949 . S
C936 C944 1.574 . S
C936 C952 1.368 . S
H937 C945 0.950 . S
H938 C943 0.950 . S
H939 C944 0.949 . S
H940 C946 0.950 . S
H941 C947 0.950 . S
H942 C948 0.949 . S
C943 H938 0.950 . S
C943 C945 1.327 . S
C943 C949 1.429 . S
C944 C936 1.574 . S
C944 H939 0.949 . S
C944 C950 1.368 . S
C945 C929 1.349 . S
C945 H937 0.950 . S
C945 C943 1.327 . S
C946 C934 1.349 . S
C946 H940 0.950 . S
C946 C947 1.327 . S
C947 H941 0.950 . S
C947 C946 1.327 . S
C947 C951 1.429 . S
C948 C931 1.574 . S
C948 H942 0.949 . S
C948 C952 1.368 . S
C949 C930 1.429 . S
C949 C943 1.429 . S
C949 C950 1.523 . S
C950 C931 1.368 . S
C950 C944 1.368 . S
C950 C949 1.523 . S
C951 C935 1.429 . S
C951 C947 1.429 . S
C951 C952 1.523 . S
C952 C936 1.368 . S
C952 C948 1.368 . S
C952 C951 1.523 . S
H953 C928 0.950 . S
H954 C930 0.950 . S
H955 C931 0.949 . S
H956 C933 0.950 . S
H957 C935 0.950 . S
C958 C959 1.349 . S
C958 C960 1.327 . S
C958 H983 0.950 . S
C959 C958 1.349 . S
C959 C975 1.349 . S
C960 C958 1.327 . S
C960 C979 1.429 . S
C960 H984 0.950 . S
C961 C978 1.574 . S
C961 C980 1.368 . S
C961 H985 0.949 . S
H962 C966 0.949 . S
C963 C964 1.349 . S
C963 C965 1.327 . S
C963 H986 0.950 . S
C964 C963 1.349 . S
C964 C976 1.349 . S
C965 C963 1.327 . S
C965 C981 1.429 . S
C965 H987 0.950 . S
C966 H962 0.949 . S
C966 C974 1.574 . S
C966 C982 1.368 . S
H967 C975 0.950 . S
H968 C973 0.950 . S
H969 C974 0.949 . S
H970 C976 0.950 . S
H971 C977 0.950 . S
H972 C978 0.949 . S
C973 H968 0.950 . S
C973 C975 1.327 . S
C973 C979 1.429 . S
C974 C966 1.574 . S
C974 H969 0.949 . S
C974 C980 1.368 . S
C975 C959 1.349 . S
C975 H967 0.950 . S
C975 C973 1.327 . S
C976 C964 1.349 . S
C976 H970 0.950 . S
C976 C977 1.327 . S
C977 H971 0.950 . S
C977 C976 1.327 . S
C977 C981 1.429 . S
C978 C961 1.574 . S
C978 H972 0.949 . S
C978 C982 1.368 . S
C979 C960 1.429 . S
C979 C973 1.429 . S
C979 C980 1.523 . S
C980 C961 1.368 . S
C980 C974 1.368 . S
C980 C979 1.523 . S
C981 C965 1.429 . S
C981 C977 1.429 . S
C981 C982 1.523 . S
C982 C966 1.368 . S
C982 C978 1.368 . S
C982 C981 1.523 . S
H983 C958 0.950 . S
H984 C960 0.950 . S
H985 C961 0.949 . S
H986 C963 0.950 . S
H987 C965 0.950 . S
C988 C989 1.349 . S
C988 C990 1.327 . S
C988 H1013 0.950 . S
C989 C988 1.349 . S
C989 C1005 1.349 . S
C990 C988 1.327 . S
C990 C1009 1.429 . S
C990 H1014 0.950 . S
C991 C1008 1.574 . S
C991 C1010 1.368 . S
C991 H1015 0.949 . S
H992 C996 0.949 . S
C993 C994 1.349 . S
C993 C995 1.327 . S
C993 H1016 0.950 . S
C994 C993 1.349 . S
C994 C1006 1.349 . S
C995 C993 1.327 . S
C995 C1011 1.429 . S
C995 H1017 0.950 . S
C996 H992 0.949 . S
C996 C1004 1.574 . S
C996 C1012 1.368 . S
H997 C1005 0.950 . S
H998 C1003 0.950 . S
H999 C1004 0.949 . S
H1000 C1006 0.950 . S
H1001 C1007 0.950 . S
H1002 C1008 0.949 . S
C1003 H998 0.950 . S
C1003 C1005 1.327 . S
C1003 C1009 1.429 . S
C1004 C996 1.574 . S
C1004 H999 0.949 . S
C1004 C1010 1.368 . S
C1005 C989 1.349 . S
C1005 H997 0.950 . S
C1005 C1003 1.327 . S
C1006 C994 1.349 . S
C1006 H1000 0.950 . S
C1006 C1007 1.327 . S
C1007 H1001 0.950 . S
C1007 C1006 1.327 . S
C1007 C1011 1.429 . S
C1008 C991 1.574 . S
C1008 H1002 0.949 . S
C1008 C1012 1.368 . S
C1009 C990 1.429 . S
C1009 C1003 1.429 . S
C1009 C1010 1.523 . S
C1010 C991 1.368 . S
C1010 C1004 1.368 . S
C1010 C1009 1.523 . S
C1011 C995 1.429 . S
C1011 C1007 1.429 . S
C1011 C1012 1.523 . S
C1012 C996 1.368 . S
C1012 C1008 1.368 . S
C1012 C1011 1.523 . S
H1013 C988 0.950 . S
H1014 C990 0.950 . S
H1015 C991 0.949 . S
H1016 C993 0.950 . S
H1017 C995 0.950 . S
C1018 C1019 1.349 . S
C1018 C1020 1.327 . S
C1018 H1043 0.950 . S
C1019 C1018 1.349 . S
C1019 C1035 1.349 . S
C1020 C1018 1.327 . S
C1020 C1039 1.429 . S
C1020 H1044 0.950 . S
C1021 C1038 1.527 1_556 S
C1021 C1040 1.368 . S
C1021 H1045 0.949 . S
H1022 C1026 0.949 . S
C1023 C1024 1.349 . S
C1023 C1025 1.327 . S
C1023 H1046 0.950 . S
C1024 C1023 1.349 . S
C1024 C1036 1.349 . S
C1025 C1023 1.327 . S
C1025 C1041 1.429 . S
C1025 H1047 0.950 . S
C1026 H1022 0.949 . S
C1026 C1034 1.527 1_554 S
C1026 C1042 1.368 . S
H1027 C1035 0.950 . S
H1028 C1033 0.950 . S
H1029 C1034 0.946 . S
H1030 C1036 0.950 . S
H1031 C1037 0.950 . S
H1032 C1038 0.946 . S
C1033 H1028 0.950 . S
C1033 C1035 1.327 . S
C1033 C1039 1.429 . S
C1034 C1026 1.527 1_556 S
C1034 H1029 0.946 . S
C1034 C1040 1.411 . S
C1035 C1019 1.349 . S
C1035 H1027 0.950 . S
C1035 C1033 1.327 . S
C1036 C1024 1.349 . S
C1036 H1030 0.950 . S
C1036 C1037 1.327 . S
C1037 H1031 0.950 . S
C1037 C1036 1.327 . S
C1037 C1041 1.429 . S
C1038 C1021 1.527 1_554 S
C1038 H1032 0.946 . S
C1038 C1042 1.411 . S
C1039 C1020 1.429 . S
C1039 C1033 1.429 . S
C1039 C1040 1.523 . S
C1040 C1021 1.368 . S
C1040 C1034 1.411 . S
C1040 C1039 1.523 . S
C1041 C1025 1.429 . S
C1041 C1037 1.429 . S
C1041 C1042 1.523 . S
C1042 C1026 1.368 . S
C1042 C1038 1.411 . S
C1042 C1041 1.523 . S
H1043 C1018 0.950 . S
H1044 C1020 0.950 . S
H1045 C1021 0.949 . S
H1046 C1023 0.950 . S
H1047 C1025 0.950 . S
C1048 C1049 1.349 . S
C1048 C1050 1.327 . S
C1048 H1073 0.950 . S
C1049 C1048 1.349 . S
C1049 C1065 1.349 . S
C1050 C1048 1.327 . S
C1050 C1069 1.429 . S
C1050 H1074 0.950 . S
C1051 C1068 1.574 1_554 S
C1051 C1070 1.368 . S
C1051 H1075 0.949 . S
H1052 C1056 0.949 . S
C1053 C1054 1.349 . S
C1053 C1055 1.327 . S
C1053 H1076 0.950 . S
C1054 C1053 1.349 . S
C1054 C1066 1.349 . S
C1055 C1053 1.327 . S
C1055 C1071 1.429 . S
C1055 H1077 0.950 . S
C1056 H1052 0.949 . S
C1056 C1064 1.574 1_556 S
C1056 C1072 1.368 . S
H1057 C1065 0.950 . S
H1058 C1063 0.950 . S
H1059 C1064 0.949 . S
H1060 C1066 0.950 . S
H1061 C1067 0.950 . S
H1062 C1068 0.949 . S
C1063 H1058 0.950 . S
C1063 C1065 1.327 . S
C1063 C1069 1.429 . S
C1064 C1056 1.574 1_554 S
C1064 H1059 0.949 . S
C1064 C1070 1.368 . S
C1065 C1049 1.349 . S
C1065 H1057 0.950 . S
C1065 C1063 1.327 . S
C1066 C1054 1.349 . S
C1066 H1060 0.950 . S
C1066 C1067 1.327 . S
C1067 H1061 0.950 . S
C1067 C1066 1.327 . S
C1067 C1071 1.429 . S
C1068 C1051 1.574 1_556 S
C1068 H1062 0.949 . S
C1068 C1072 1.368 . S
C1069 C1050 1.429 . S
C1069 C1063 1.429 . S
C1069 C1070 1.523 . S
C1070 C1051 1.368 . S
C1070 C1064 1.368 . S
C1070 C1069 1.523 . S
C1071 C1055 1.429 . S
C1071 C1067 1.429 . S
C1071 C1072 1.523 . S
C1072 C1056 1.368 . S
C1072 C1068 1.368 . S
C1072 C1071 1.523 . S
H1073 C1048 0.950 . S
H1074 C1050 0.950 . S
H1075 C1051 0.949 . S
H1076 C1053 0.950 . S
H1077 C1055 0.950 . S
C1078 C1079 1.349 . S
C1078 C1080 1.327 . S
C1078 H1103 0.950 . S
C1079 C1078 1.349 . S
C1079 C1095 1.349 . S
C1080 C1078 1.327 . S
C1080 C1099 1.429 . S
C1080 H1104 0.950 . S
C1081 C1098 1.574 . S
C1081 C1100 1.368 . S
C1081 H1105 0.949 . S
H1082 C1086 0.949 . S
C1083 C1084 1.349 . S
C1083 C1085 1.327 . S
C1083 H1106 0.950 . S
C1084 C1083 1.349 . S
C1084 C1096 1.349 . S
C1085 C1083 1.327 . S
C1085 C1101 1.429 . S
C1085 H1107 0.950 . S
C1086 H1082 0.949 . S
C1086 C1094 1.574 . S
C1086 C1102 1.368 . S
H1087 C1095 0.950 . S
H1088 C1093 0.950 . S
H1089 C1094 0.949 . S
H1090 C1096 0.950 . S
H1091 C1097 0.950 . S
H1092 C1098 0.949 . S
C1093 H1088 0.950 . S
C1093 C1095 1.327 . S
C1093 C1099 1.429 . S
C1094 C1086 1.574 . S
C1094 H1089 0.949 . S
C1094 C1100 1.368 . S
C1095 C1079 1.349 . S
C1095 H1087 0.950 . S
C1095 C1093 1.327 . S
C1096 C1084 1.349 . S
C1096 H1090 0.950 . S
C1096 C1097 1.327 . S
C1097 H1091 0.950 . S
C1097 C1096 1.327 . S
C1097 C1101 1.429 . S
C1098 C1081 1.574 . S
C1098 H1092 0.949 . S
C1098 C1102 1.368 . S
C1099 C1080 1.429 . S
C1099 C1093 1.429 . S
C1099 C1100 1.523 . S
C1100 C1081 1.368 . S
C1100 C1094 1.368 . S
C1100 C1099 1.523 . S
C1101 C1085 1.429 . S
C1101 C1097 1.429 . S
C1101 C1102 1.523 . S
C1102 C1086 1.368 . S
C1102 C1098 1.368 . S
C1102 C1101 1.523 . S
H1103 C1078 0.950 . S
H1104 C1080 0.950 . S
H1105 C1081 0.949 . S
H1106 C1083 0.950 . S
H1107 C1085 0.950 . S
C1108 C1109 1.349 . S
C1108 C1110 1.327 . S
C1108 H1133 0.950 . S
C1109 C1108 1.349 . S
C1109 C1125 1.349 . S
C1110 C1108 1.327 . S
C1110 C1129 1.429 . S
C1110 H1134 0.950 . S
C1111 C1128 1.574 . S
C1111 C1130 1.368 . S
C1111 H1135 0.949 . S
H1112 C1116 0.949 . S
C1113 C1114 1.349 . S
C1113 C1115 1.327 . S
C1113 H1136 0.950 . S
C1114 C1113 1.349 . S
C1114 C1126 1.349 . S
C1115 C1113 1.327 . S
C1115 C1131 1.429 . S
C1115 H1137 0.950 . S
C1116 H1112 0.949 . S
C1116 C1124 1.574 . S
C1116 C1132 1.368 . S
H1117 C1125 0.950 . S
H1118 C1123 0.950 . S
H1119 C1124 0.949 . S
H1120 C1126 0.950 . S
H1121 C1127 0.950 . S
H1122 C1128 0.949 . S
C1123 H1118 0.950 . S
C1123 C1125 1.327 . S
C1123 C1129 1.429 . S
C1124 C1116 1.574 . S
C1124 H1119 0.949 . S
C1124 C1130 1.368 . S
C1125 C1109 1.349 . S
C1125 H1117 0.950 . S
C1125 C1123 1.327 . S
C1126 C1114 1.349 . S
C1126 H1120 0.950 . S
C1126 C1127 1.327 . S
C1127 H1121 0.950 . S
C1127 C1126 1.327 . S
C1127 C1131 1.429 . S
C1128 C1111 1.574 . S
C1128 H1122 0.949 . S
C1128 C1132 1.368 . S
C1129 C1110 1.429 . S
C1129 C1123 1.429 . S
C1129 C1130 1.523 . S
C1130 C1111 1.368 . S
C1130 C1124 1.368 . S
C1130 C1129 1.523 . S
C1131 C1115 1.429 . S
C1131 C1127 1.429 . S
C1131 C1132 1.523 . S
C1132 C1116 1.368 . S
C1132 C1128 1.368 . S
C1132 C1131 1.523 . S
H1133 C1108 0.950 . S
H1134 C1110 0.950 . S
H1135 C1111 0.949 . S
H1136 C1113 0.950 . S
H1137 C1115 0.950 . S
C1138 C1139 1.349 . S
C1138 C1140 1.327 . S
C1138 H1163 0.950 . S
C1139 C1138 1.349 . S
C1139 C1155 1.349 . S
C1140 C1138 1.327 . S
C1140 C1159 1.429 . S
C1140 H1164 0.950 . S
C1141 C1158 1.574 . S
C1141 C1160 1.368 . S
C1141 H1165 0.949 . S
H1142 C1146 0.949 . S
C1143 C1144 1.349 . S
C1143 C1145 1.327 . S
C1143 H1166 0.950 . S
C1144 C1143 1.349 . S
C1144 C1156 1.349 . S
C1145 C1143 1.327 . S
C1145 C1161 1.429 . S
C1145 H1167 0.950 . S
C1146 H1142 0.949 . S
C1146 C1154 1.574 . S
C1146 C1162 1.368 . S
H1147 C1155 0.950 . S
H1148 C1153 0.950 . S
H1149 C1154 0.949 . S
H1150 C1156 0.950 . S
H1151 C1157 0.950 . S
H1152 C1158 0.949 . S
C1153 H1148 0.950 . S
C1153 C1155 1.327 . S
C1153 C1159 1.429 . S
C1154 C1146 1.574 . S
C1154 H1149 0.949 . S
C1154 C1160 1.368 . S
C1155 C1139 1.349 . S
C1155 H1147 0.950 . S
C1155 C1153 1.327 . S
C1156 C1144 1.349 . S
C1156 H1150 0.950 . S
C1156 C1157 1.327 . S
C1157 H1151 0.950 . S
C1157 C1156 1.327 . S
C1157 C1161 1.429 . S
C1158 C1141 1.574 . S
C1158 H1152 0.949 . S
C1158 C1162 1.368 . S
C1159 C1140 1.429 . S
C1159 C1153 1.429 . S
C1159 C1160 1.523 . S
C1160 C1141 1.368 . S
C1160 C1154 1.368 . S
C1160 C1159 1.523 . S
C1161 C1145 1.429 . S
C1161 C1157 1.429 . S
C1161 C1162 1.523 . S
C1162 C1146 1.368 . S
C1162 C1158 1.368 . S
C1162 C1161 1.523 . S
H1163 C1138 0.950 . S
H1164 C1140 0.950 . S
H1165 C1141 0.949 . S
H1166 C1143 0.950 . S
H1167 C1145 0.950 . S
C209 C133 2.052 . S
C214 C3 2.052 . S
C239 C18 2.183 . S
C244 C148 2.183 . S
C269 C107 2.052 . S
C274 C29 2.052 . S
C299 C122 2.184 . S
C304 C44 2.184 . S
C329 C55 2.053 . S
C334 C185 2.053 . S
C359 C200 2.182 . S
C364 C70 2.182 . S
C389 C81 2.053 . S
C394 C159 2.053 . S
C419 C174 2.183 . S
C424 C96 2.183 . S
C449 C131 1.625 . S
C454 C1 1.625 . S
C479 C23 1.707 . S
C484 C153 1.707 . S
C509 C27 1.626 . S
C514 C105 1.626 . S
C539 C49 1.706 . S
C544 C127 1.706 . S
C569 C53 1.625 . S
C574 C183 1.625 . S
C599 C75 1.707 . S
C604 C205 1.707 . S
C629 C157 1.626 . S
C634 C79 1.626 . S
C659 C179 1.707 . S
C664 C101 1.707 . S
C689 C10 1.644 . S
C694 C88 1.644 . S
C719 C14 1.624 . S
C724 C92 1.624 . S
C749 C36 1.644 . S
C754 C62 1.644 . S
C779 C40 1.624 . S
C784 C66 1.624 . S
C809 C114 1.644 . S
C814 C192 1.644 . S
C839 C196 1.624 . S
C844 C118 1.624 . S
C869 C140 1.644 . S
C874 C166 1.644 . S
C899 C170 1.624 . S
C904 C144 1.624 . S
C929 C5 1.753 . S
C934 C198 1.705 . S
C959 C161 1.753 . S
C964 C16 1.706 . S
C989 C172 1.705 . S
C994 C31 1.753 . S
C1019 C187 1.753 . S
C1024 C42 1.706 . S
C1049 C120 1.706 . S
C1054 C57 1.753 . S
C1079 C135 1.753 . S
C1084 C68 1.705 . S
C1109 C83 1.753 . S
C1114 C146 1.706 . S
C1139 C94 1.705 . S
C1144 C109 1.753 . S
