# Generated by pormake.
# Topology pts-e, (5)-cn, num edge types: 1
# Building blocks:
#     Node 0, Type 0, BuildingBlock: BEQFEK_clean_sbu_0, # of connection points: 5
#     Node 1, Type 0, BuildingBlock: BEQFEK_clean_sbu_0, # of connection points: 5
#     Node 2, Type 0, BuildingBlock: BEQFEK_clean_sbu_0, # of connection points: 5
#     Node 3, Type 0, BuildingBlock: BEQFEK_clean_sbu_0, # of connection points: 5
#     Node 4, Type 0, BuildingBlock: BEQFEK_clean_sbu_0, # of connection points: 5
#     Node 5, Type 0, BuildingBlock: BEQFEK_clean_sbu_0, # of connection points: 5
#     Node 6, Type 0, BuildingBlock: BEQFEK_clean_sbu_0, # of connection points: 5
#     Node 7, Type 0, BuildingBlock: BEQFEK_clean_sbu_0, # of connection points: 5
#     Edge 8, Type (0, 0), BuildingBlock: KIFKEQ_clean_linker_1, # of connection points: 2
#     Edge 9, Type (0, 0), BuildingBlock: KIFKEQ_clean_linker_1, # of connection points: 2
#     Edge 10, Type (0, 0), BuildingBlock: KIFKEQ_clean_linker_1, # of connection points: 2
#     Edge 11, Type (0, 0), BuildingBlock: KIFKEQ_clean_linker_1, # of connection points: 2
#     Edge 12, Type (0, 0), BuildingBlock: KIFKEQ_clean_linker_1, # of connection points: 2
#     Edge 13, Type (0, 0), BuildingBlock: KIFKEQ_clean_linker_1, # of connection points: 2
#     Edge 14, Type (0, 0), BuildingBlock: KIFKEQ_clean_linker_1, # of connection points: 2
#     Edge 15, Type (0, 0), BuildingBlock: KIFKEQ_clean_linker_1, # of connection points: 2
#     Edge 16, Type (0, 0), BuildingBlock: KIFKEQ_clean_linker_1, # of connection points: 2
#     Edge 17, Type (0, 0), BuildingBlock: KIFKEQ_clean_linker_1, # of connection points: 2
#     Edge 18, Type (0, 0), BuildingBlock: KIFKEQ_clean_linker_1, # of connection points: 2
#     Edge 19, Type (0, 0), BuildingBlock: KIFKEQ_clean_linker_1, # of connection points: 2
#     Edge 20, Type (0, 0), BuildingBlock: KIFKEQ_clean_linker_1, # of connection points: 2
#     Edge 21, Type (0, 0), BuildingBlock: KIFKEQ_clean_linker_1, # of connection points: 2
#     Edge 22, Type (0, 0), BuildingBlock: KIFKEQ_clean_linker_1, # of connection points: 2
#     Edge 23, Type (0, 0), BuildingBlock: KIFKEQ_clean_linker_1, # of connection points: 2
#     Edge 24, Type (0, 0), BuildingBlock: KIFKEQ_clean_linker_1, # of connection points: 2
#     Edge 25, Type (0, 0), BuildingBlock: KIFKEQ_clean_linker_1, # of connection points: 2
#     Edge 26, Type (0, 0), BuildingBlock: KIFKEQ_clean_linker_1, # of connection points: 2
#     Edge 27, Type (0, 0), BuildingBlock: KIFKEQ_clean_linker_1, # of connection points: 2
# Relax obj value: 0.378
# Max RMSD: 0.223
# Mean RMSD: 0.223
data_MOF--net-pts-e--node1-BEQFEK_clean_sbu_0--edge1-KIFKEQ_clean_linker_1
_symmetry_space_group_name_H-M    P1
_symmetry_Int_Tables_number       1
_symmetry_cell_setting            triclinic
loop_
_symmetry_equiv_pos_as_xyz
'x, y, z'
_cell_length_a     36.730894
_cell_length_b     36.783257
_cell_length_c     51.218771
_cell_angle_alpha  89.947437
_cell_angle_beta   89.99784
_cell_angle_gamma 89.73687
loop_
_atom_site_label
_atom_site_type_symbol
_atom_site_fract_x
_atom_site_fract_y
_atom_site_fract_z
_atom_type_partial_charge
Co0 Co 0.19261 0.01891 0.16682 0.0
Co1 Co 0.26732 0.01129 0.1947 0.0
C2 C 0.21844 0.07442 0.20634 0.0
O3 O 0.19529 0.062 0.19007 0.0
O4 O 0.24894 0.05828 0.21026 0.0
C5 C 0.1318 0.04911 0.13668 0.0
O6 O 0.14032 0.08163 0.14524 0.0
C7 C 0.34539 0.01587 0.21041 0.0
C8 C 0.35782 0.957 0.21219 0.0
C9 C 0.37337 0.99099 0.21435 0.0
N10 N 0.31461 -0.00279 0.20594 0.0
N11 N 0.32222 0.96211 0.20754 0.0
C12 C 0.34858 0.05626 0.2083 0.0
H13 H 0.32365 0.06817 0.19945 0.0
H14 H 0.37283 0.06348 0.19648 0.0
H15 H 0.35239 0.06781 0.22811 0.0
C16 C 0.23843 0.0158 0.11987 0.0
N17 N 0.2344 0.0148 0.14596 0.0
N18 N 0.26651 0.01204 0.15712 0.0
C19 C 0.29222 0.01115 0.13815 0.0
C20 C 0.27515 0.0139 0.11395 0.0
C21 C 0.20746 0.01752 0.10088 0.0
H22 H 0.18703 -0.00337 0.10603 0.0
H23 H 0.19431 0.04466 0.10208 0.0
H24 H 0.21659 0.0127 0.08053 0.0
O25 O 0.18422 0.97524 0.18832 0.0
O26 O 0.2364 0.97209 0.2096 0.0
H27 H 0.33881 0.98472 0.15463 0.0
H28 H 0.34797 0.00875 0.12451 0.0
C29 C 0.33231 0.00938 0.14303 0.0
H30 H 0.34061 0.03347 0.15451 0.0
H31 H 0.30335 0.94151 0.20421 0.0
O32 O 0.15005 0.02161 0.14402 0.0
C33 C 0.20446 0.96037 0.20538 0.0
Co34 Co 0.98947 0.19437 0.67215 0.0
Co35 Co 0.00285 0.27018 0.69679 0.0
C36 C 0.93698 0.22576 0.71087 0.0
O37 O 0.94642 0.201 0.69481 0.0
O38 O 0.95606 0.25443 0.71415 0.0
C39 C 0.99071 0.12136 0.66657 0.0
O40 O 0.98898 0.12525 0.69205 0.0
C41 C -0.00254 0.34883 0.70931 0.0
C42 C 0.05609 0.36237 0.70976 0.0
C43 C 0.02167 0.37738 0.71191 0.0
N44 N 0.01686 0.31818 0.70566 0.0
N45 N 0.05183 0.32644 0.70641 0.0
C46 C 0.95689 0.3512 0.70764 0.0
H47 H 0.94556 0.32615 0.6988 0.0
H48 H 0.94865 0.37536 0.69601 0.0
H49 H 0.94562 0.3545 0.7276 0.0
C50 C -0.00645 0.23561 0.6233 0.0
N51 N -0.00504 0.23375 0.64948 0.0
N52 N 0.00068 0.26626 0.65923 0.0
C53 C 0.0033 0.29012 0.63915 0.0
C54 C -0.00145 0.27143 0.61574 0.0
C55 C 0.98914 0.20313 0.60599 0.0
H56 H 0.96213 0.19071 0.60962 0.0
H57 H 0.9917 0.21013 0.58502 0.0
H58 H 0.01026 0.1826 0.61095 0.0
O59 O 0.03339 0.18665 0.69386 0.0
O60 O 0.04245 0.23997 0.71231 0.0
H61 H 0.00941 0.3443 0.62317 0.0
H62 H 0.98633 0.34156 0.65421 0.0
C63 C 0.00879 0.33013 0.64229 0.0
H64 H 0.03473 0.33503 0.65276 0.0
H65 H 0.07285 0.3077 0.70348 0.0
O66 O 0.98636 0.14915 0.65227 0.0
C67 C 0.05125 0.20683 0.70924 0.0
Co68 Co 0.82707 0.00135 0.16542 0.0
Co69 Co 0.75172 0.00696 0.1928 0.0
C70 C 0.80204 0.94493 0.20454 0.0
O71 O 0.82514 0.95783 0.1884 0.0
O72 O 0.77126 0.96052 0.20836 0.0
C73 C 0.88849 0.97293 0.13522 0.0
O74 O 0.87986 0.94002 0.14297 0.0
C75 C 0.67449 -0.00015 0.21051 0.0
C76 C 0.65839 0.05775 0.20804 0.0
C77 C 0.64489 0.02349 0.21351 0.0
N78 N 0.70355 0.01952 0.20315 0.0
N79 N 0.69374 0.05406 0.20206 0.0
C80 C 0.67592 0.95972 0.2152 0.0
H81 H 0.70391 0.95115 0.22052 0.0
H82 H 0.66819 0.94527 0.19703 0.0
H83 H 0.65691 0.9519 0.23106 0.0
C84 C 0.78171 0.00328 0.11819 0.0
N85 N 0.78551 0.00465 0.14428 0.0
N86 N 0.75325 0.00602 0.15531 0.0
C87 C 0.72764 0.00523 0.13629 0.0
C88 C 0.74496 0.00317 0.11214 0.0
C89 C 0.81286 0.00297 0.09932 0.0
H90 H 0.8329 0.02397 0.10498 0.0
H91 H 0.82645 0.97599 0.09995 0.0
H92 H 0.80376 0.00856 0.07905 0.0
O93 O 0.8339 0.04476 0.18731 0.0
O94 O 0.78128 0.04696 0.20813 0.0
H95 H 0.67868 0.03044 0.14978 0.0
H96 H 0.67207 -0.00071 0.12293 0.0
C97 C 0.68753 0.00419 0.14119 0.0
H98 H 0.6814 0.98238 0.15546 0.0
H99 H 0.71109 0.0751 0.19655 0.0
O100 O 0.87006 4e-05 0.143 0.0
C101 C 0.81314 0.05917 0.20424 0.0
Co102 Co 0.03197 0.82702 0.66505 0.0
Co103 Co 0.01344 0.75458 0.69327 0.0
C104 C 0.08081 0.79714 0.7068 0.0
O105 O 0.07322 0.82028 0.68909 0.0
O106 O 0.06032 0.76971 0.71093 0.0
C107 C 0.07252 0.88125 0.63613 0.0
O108 O 0.10231 0.86507 0.64444 0.0
C109 C 0.01556 0.67745 0.71019 0.0
C110 C 0.9567 0.6652 0.70972 0.0
C111 C 0.9906 0.64931 0.71335 0.0
N112 N -0.00295 0.708 0.70428 0.0
N113 N 0.96191 0.70056 0.70449 0.0
C114 C 0.05607 0.67605 0.71325 0.0
H115 H 0.06637 0.70255 0.72023 0.0
H116 H 0.06882 0.67035 0.69404 0.0
H117 H 0.06418 0.65457 0.72735 0.0
C118 C 0.02565 0.78131 0.61837 0.0
N119 N 0.02432 0.78577 0.64441 0.0
N120 N 0.01704 0.75456 0.65572 0.0
C121 C 0.01346 0.72897 0.63688 0.0
C122 C 0.01919 0.74512 0.61263 0.0
C123 C 0.03116 0.81167 0.59928 0.0
H124 H 0.05991 0.82067 0.60016 0.0
H125 H 0.02468 0.80334 0.57901 0.0
H126 H 0.01344 0.835 0.60459 0.0
O127 O 0.9889 0.84045 0.6862 0.0
O128 O 0.9751 0.78882 0.70598 0.0
H129 H 0.00565 0.67367 0.62363 0.0
H130 H 0.02678 0.67851 0.65527 0.0
C131 C 0.00576 0.68972 0.64196 0.0
H132 H 0.97892 0.68719 0.65168 0.0
H133 H 0.94149 0.71943 0.70011 0.0
O134 O 0.04163 0.86891 0.64267 0.0
C135 C 0.96914 0.82247 0.70195 0.0
Co136 Co 0.19182 0.00128 0.87183 0.0
Co137 Co 0.26599 0.00692 0.84283 0.0
C138 C 0.21589 0.94318 0.83442 0.0
O139 O 0.19288 0.95643 0.8505 0.0
O140 O 0.24601 0.95928 0.82975 0.0
C141 C 0.12898 0.9761 0.90178 0.0
O142 O 0.13576 0.94308 0.89325 0.0
C143 C 0.34381 -0.00546 0.83017 0.0
C144 C 0.35706 0.04671 0.81096 0.0
C145 C 0.37203 0.0139 0.81876 0.0
N146 N 0.31358 0.01528 0.82935 0.0
N147 N 0.3217 0.04627 0.81767 0.0
C148 C 0.34478 0.95629 0.8401 0.0
H149 H 0.31833 0.94896 0.84913 0.0
H150 H 0.36692 0.9527 0.85457 0.0
H151 H 0.35056 0.93761 0.82359 0.0
C152 C 0.23863 0.00601 0.91805 0.0
N153 N 0.23427 0.00592 0.89199 0.0
N154 N 0.2661 0.00946 0.88051 0.0
C155 C 0.29186 0.01273 0.89933 0.0
C156 C 0.27521 0.01002 0.92367 0.0
C157 C 0.20799 0.00318 0.93723 0.0
H158 H 0.18776 0.02496 0.93325 0.0
H159 H 0.19433 0.97657 0.9348 0.0
H160 H 0.21745 0.0059 0.95769 0.0
O161 O 0.18392 0.04344 0.84861 0.0
O162 O 0.23572 0.04625 0.82678 0.0
H163 H 0.33585 0.03568 0.87734 0.0
H164 H 0.34541 0.02934 0.91171 0.0
C165 C 0.33163 0.01764 0.89439 0.0
H166 H 0.34413 0.99079 0.89029 0.0
H167 H 0.3032 0.06746 0.81463 0.0
O168 O 0.14931 0.00216 0.89489 0.0
C169 C 0.20362 0.05786 0.8311 0.0
Co170 Co 0.0169 0.19029 0.37058 0.0
Co171 Co 0.00914 0.26551 0.34351 0.0
C172 C 0.07284 0.2173 0.33176 0.0
O173 O 0.06037 0.19376 0.34772 0.0
O174 O 0.0565 0.24771 0.32803 0.0
C175 C 0.04723 0.12929 0.4003 0.0
O176 O 0.07982 0.13839 0.39208 0.0
C177 C 0.01413 0.34363 0.32835 0.0
C178 C 0.95528 0.35669 0.32713 0.0
C179 C 0.98945 0.37185 0.32473 0.0
N180 N -0.00481 0.31305 0.33285 0.0
N181 N 0.9601 0.32104 0.33162 0.0
C182 C 0.05463 0.3464 0.33013 0.0
H183 H 0.06641 0.32148 0.33905 0.0
H184 H 0.0623 0.37066 0.34174 0.0
H185 H 0.06597 0.34984 0.3102 0.0
C186 C 0.01246 0.23487 0.41803 0.0
N187 N 0.01218 0.23147 0.39188 0.0
N188 N 0.00931 0.26376 0.38106 0.0
C189 C 0.00763 0.28896 0.40032 0.0
C190 C 0.00993 0.27136 0.42434 0.0
C191 C 0.01392 0.20352 0.43668 0.0
H192 H -0.0068 0.18315 0.43108 0.0
H193 H 0.04118 0.19052 0.4356 0.0
H194 H 0.00865 0.21212 0.45708 0.0
O195 O 0.97358 0.18224 0.34862 0.0
O196 O 0.97018 0.23487 0.32797 0.0
H197 H 0.98026 0.33555 0.38473 0.0
H198 H 0.00506 0.34429 0.41458 0.0
C199 C 0.00535 0.32908 0.39588 0.0
H200 H 0.02904 0.33787 0.3841 0.0
H201 H 0.93934 0.30235 0.33501 0.0
O202 O 0.01958 0.1473 0.39293 0.0
C203 C 0.9587 0.20275 0.33173 0.0
Co204 Co 0.82232 0.02662 0.8695 0.0
Co205 Co 0.74995 0.00796 0.84103 0.0
C206 C 0.79184 0.07824 0.83107 0.0
O207 O 0.81515 0.07109 0.84878 0.0
O208 O 0.76585 0.05635 0.82578 0.0
C209 C 0.88439 0.05746 0.89783 0.0
O210 O 0.87735 0.08906 0.88692 0.0
C211 C 0.67139 0.0127 0.828 0.0
C212 C 0.66182 0.95676 0.81387 0.0
C213 C 0.64443 0.98942 0.819 0.0
N214 N 0.7031 -0.00573 0.82851 0.0
N215 N 0.69717 0.96099 0.81983 0.0
C216 C 0.66764 0.05215 0.83468 0.0
H217 H 0.69429 0.06599 0.83299 0.0
H218 H 0.65798 0.05512 0.85505 0.0
H219 H 0.64739 0.06541 0.82165 0.0
C220 C 0.7768 0.01705 0.91595 0.0
N221 N 0.7811 0.01653 0.88988 0.0
N222 N 0.75022 0.00763 0.87865 0.0
C223 C 0.72532 0.00117 0.89763 0.0
C224 C 0.74131 0.00761 0.92183 0.0
C225 C 0.80675 0.0252 0.93488 0.0
H226 H 0.82916 0.00527 0.93209 0.0
H227 H 0.8176 0.05275 0.9309 0.0
H228 H 0.79756 0.02363 0.95546 0.0
O229 O 0.83544 0.98668 0.8452 0.0
O230 O 0.78372 0.9708 0.82643 0.0
H231 H 0.68606 0.96987 0.8764 0.0
H232 H 0.67533 0.97631 0.91058 0.0
C233 C 0.68702 0.98926 0.89292 0.0
H234 H 0.6701 0.01329 0.88804 0.0
H235 H 0.71717 0.94084 0.81848 0.0
O236 O 0.86461 0.03026 0.89263 0.0
C237 C 0.81786 0.96677 0.82935 0.0
Co238 Co 0.00177 0.82475 0.36961 0.0
Co239 Co 0.00845 0.74985 0.34184 0.0
C240 C 0.9458 0.79997 0.33036 0.0
O241 O 0.95826 0.82292 0.34673 0.0
O242 O 0.96185 0.76951 0.32638 0.0
C243 C 0.973 0.88561 0.40006 0.0
O244 O 0.94013 0.87689 0.39224 0.0
C245 C 0.00035 0.6726 0.32502 0.0
C246 C 0.05846 0.65667 0.32485 0.0
C247 C 0.02375 0.64298 0.32129 0.0
N248 N 0.02061 0.70181 0.33102 0.0
N249 N 0.05526 0.69212 0.33051 0.0
C250 C 0.9598 0.67389 0.32233 0.0
H251 H 0.94709 0.66633 0.34121 0.0
H252 H 0.95055 0.65474 0.307 0.0
H253 H 0.95065 0.70176 0.31729 0.0
C254 C 0.00477 0.77908 0.41663 0.0
N255 N 0.00546 0.78305 0.39052 0.0
N256 N 0.00783 0.75096 0.37939 0.0
C257 C 0.00867 0.7253 0.39839 0.0
C258 C 0.00641 0.7424 0.42258 0.0
C259 C 0.00386 0.81005 0.43558 0.0
H260 H 0.0249 0.83021 0.43017 0.0
H261 H 0.9768 0.8235 0.43467 0.0
H262 H 0.00904 0.80093 0.45589 0.0
O263 O 0.04518 0.83203 0.34767 0.0
O264 O 0.04843 0.77966 0.32669 0.0
H265 H 0.03593 0.67831 0.38346 0.0
H266 H 0.00828 0.66957 0.41199 0.0
C267 C 0.01009 0.68526 0.39352 0.0
H268 H 0.98727 0.6775 0.38055 0.0
H269 H 0.07675 0.70957 0.33481 0.0
O270 O 0.00029 0.86743 0.39224 0.0
C271 C 0.06011 0.81163 0.33075 0.0
H272 H 0.3152 0.96262 0.08799 0.0
H273 H 0.26918 0.07 0.0801 0.0
H274 H 0.32862 0.96166 0.04105 0.0
H275 H 0.28161 0.0691 0.03341 0.0
H276 H 0.30886 0.06529 0.94964 0.0
H277 H 0.3222 0.06755 0.99655 0.0
H278 H 0.28858 0.95555 1.00403 0.0
H279 H 0.27625 0.95345 0.95732 0.0
C280 C 0.309 0.9864 0.07629 0.0
C281 C 0.29113 0.01634 0.08748 0.0
C282 C 0.3163 0.98579 0.04941 0.0
C283 C 0.30586 0.01515 0.03329 0.0
C284 C 0.29046 0.04616 0.04509 0.0
C285 C 0.28316 0.04668 0.07185 0.0
C286 C 0.30567 0.04091 0.96129 0.0
C287 C 0.29163 0.0092 0.95005 0.0
C288 C 0.31291 0.04223 0.98816 0.0
C289 C 0.30611 0.01185 1.00422 0.0
C290 C 0.2946 0.97936 0.99238 0.0
C291 C 0.28739 0.97811 0.96561 0.0
H292 H 0.95616 0.30851 0.44985 0.0
H293 H 0.06507 0.26649 0.45912 0.0
H294 H 0.95288 0.32031 0.49696 0.0
H295 H 0.06197 0.27756 0.50599 0.0
H296 H 0.0535 0.30614 0.59003 0.0
H297 H 0.05715 0.31849 0.54301 0.0
H298 H 0.94753 0.2784 0.53349 0.0
H299 H 0.94399 0.2669 0.58032 0.0
C300 C 0.97975 0.30289 0.46191 0.0
C301 C 0.01084 0.28664 0.45104 0.0
C302 C 0.97782 0.30926 0.48888 0.0
C303 C 0.00703 0.29956 0.50538 0.0
C304 C 0.03909 0.28577 0.49398 0.0
C305 C 0.04091 0.27931 0.46713 0.0
C306 C 0.02994 0.30104 0.57787 0.0
C307 C -0.00145 0.28544 0.58861 0.0
C308 C 0.03206 0.30779 0.55096 0.0
C309 C 0.00274 0.29916 0.53436 0.0
C310 C 0.9705 0.28579 0.54559 0.0
C311 C 0.96848 0.27897 0.57241 0.0
H312 H 0.69886 0.04966 0.08651 0.0
H313 H 0.75698 0.94835 0.07804 0.0
H314 H 0.6844 0.04908 0.03973 0.0
H315 H 0.74376 0.94794 0.03152 0.0
H316 H 0.71596 0.9483 0.94817 0.0
H317 H 0.70351 0.94443 0.99511 0.0
H318 H 0.72136 0.06012 1.00209 0.0
H319 H 0.73249 0.06373 0.95528 0.0
C320 C 0.70766 0.02683 0.07472 0.0
C321 C 0.72921 -0.0008 0.08568 0.0
C322 C 0.69975 0.02659 0.04791 0.0
C323 C 0.71326 -0.00132 0.03166 0.0
C324 C 0.73249 0.9697 0.04327 0.0
C325 C 0.74032 0.96999 0.06995 0.0
C326 C 0.71581 0.97297 0.95971 0.0
C327 C 0.72518 0.00629 0.94829 0.0
C328 C 0.70912 0.97078 0.98662 0.0
C329 C 0.71192 0.00188 1.00258 0.0
C330 C 0.71854 0.03564 0.99056 0.0
C331 C 0.72508 0.03777 0.96372 0.0
H332 H 0.95159 0.74859 0.45751 0.0
H333 H 0.05872 0.70249 0.44758 0.0
H334 H 0.9546 0.73686 0.50427 0.0
H335 H 0.06184 0.68989 0.4946 0.0
H336 H 0.07395 0.74453 0.57731 0.0
H337 H 0.06952 0.73134 0.53082 0.0
H338 H 0.95824 0.69665 0.54158 0.0
H339 H 0.96282 0.71076 0.58828 0.0
C340 C 0.97528 0.73471 0.46534 0.0
C341 C 0.00498 0.72654 0.44912 0.0
C342 C 0.97703 0.72784 0.49215 0.0
C343 C 0.00864 0.71273 0.50335 0.0
C344 C 0.03729 0.702 0.48668 0.0
C345 C 0.03543 0.70883 0.45976 0.0
C346 C 0.04891 0.7331 0.56978 0.0
C347 C 0.01867 0.72883 0.58621 0.0
C348 C 0.04636 0.72534 0.54315 0.0
C349 C 0.01339 0.7132 0.5323 0.0
C350 C 0.9839 0.7064 0.54921 0.0
C351 C 0.98654 0.71412 0.57596 0.0
H352 H 0.09489 0.24672 0.28495 0.0
H353 H 0.12156 0.16246 0.34063 0.0
H354 H 0.13839 0.22031 0.25404 0.0
H355 H 0.16434 0.13598 0.30983 0.0
H356 H 0.24727 0.09641 0.25332 0.0
H357 H 0.22015 0.13935 0.28426 0.0
H358 H 0.13578 0.16469 0.22832 0.0
H359 H 0.16297 0.12246 0.19747 0.0
C360 C 0.11062 0.22313 0.29087 0.0
C361 C 0.10436 0.20649 0.31518 0.0
C362 C 0.13537 0.20781 0.27307 0.0
C363 C 0.15463 0.17572 0.27928 0.0
C364 C 0.1503 0.16079 0.30436 0.0
C365 C 0.12547 0.1759 0.32202 0.0
C366 C 0.22351 0.11188 0.24738 0.0
C367 C 0.20709 0.10561 0.223 0.0
C368 C 0.20779 0.13631 0.2652 0.0
C369 C 0.17549 0.15524 0.25895 0.0
C370 C 0.16074 0.1509 0.23382 0.0
C371 C 0.17627 0.12639 0.21613 0.0
H372 H 0.81626 0.14559 0.84463 0.0
H373 H 0.7867 0.08022 0.77823 0.0
H374 H 0.84184 0.19136 0.81567 0.0
H375 H 0.81503 0.12371 0.74925 0.0
H376 H 0.93586 0.23031 0.76369 0.0
H377 H 0.89283 0.20138 0.79287 0.0
H378 H 0.8244 0.1749 0.72672 0.0
H379 H 0.86974 0.20098 0.69761 0.0
C380 C 0.81479 0.14136 0.82372 0.0
C381 C 0.79945 0.10942 0.81366 0.0
C382 C 0.83007 0.16732 0.80701 0.0
C383 C 0.83176 0.1613 0.77982 0.0
C384 C 0.81422 0.13016 0.76983 0.0
C385 C 0.79786 0.10487 0.78652 0.0
C386 C 0.91112 0.21907 0.75555 0.0
C387 C 0.90614 0.21776 0.72845 0.0
C388 C 0.88611 0.20238 0.77233 0.0
C389 C 0.8549 0.18478 0.76243 0.0
C390 C 0.84851 0.18671 0.73529 0.0
C391 C 0.8742 0.20227 0.7185 0.0
H392 H 0.77268 0.92214 0.25113 0.0
H393 H 0.85842 0.8978 0.19603 0.0
H394 H 0.7996 0.87903 0.2821 0.0
H395 H 0.88531 0.85525 0.2269 0.0
H396 H 0.92415 0.77144 0.28328 0.0
H397 H 0.88143 0.79867 0.25216 0.0
H398 H 0.85558 0.88268 0.3081 0.0
H399 H 0.89773 0.85546 0.33911 0.0
C400 C 0.79673 0.90701 0.24535 0.0
C401 C 0.8136 0.91379 0.22119 0.0
C402 C 0.81231 0.88248 0.26318 0.0
C403 C 0.84485 0.86391 0.25713 0.0
C404 C 0.86013 0.86879 0.23221 0.0
C405 C 0.84479 0.89345 0.21452 0.0
C406 C 0.90863 0.79515 0.28917 0.0
C407 C 0.91473 0.81147 0.3136 0.0
C408 C 0.88433 0.81092 0.27126 0.0
C409 C 0.86532 0.84312 0.27749 0.0
C410 C 0.86947 0.85779 0.30264 0.0
C411 C 0.89391 0.84225 0.32042 0.0
H412 H 0.25029 0.91347 0.79165 0.0
H413 H 0.15623 0.90006 0.84133 0.0
H414 H 0.22586 0.86816 0.7616 0.0
H415 H 0.13158 0.85573 0.81118 0.0
H416 H 0.09262 0.77147 0.7566 0.0
H417 H 0.13321 0.79773 0.78936 0.0
H418 H 0.17633 0.87083 0.73109 0.0
H419 H 0.13669 0.84423 0.69853 0.0
C420 C 0.22478 0.90041 0.79646 0.0
C421 C 0.20502 0.91091 0.81876 0.0
C422 C 0.21064 0.87456 0.77913 0.0
C423 C 0.17645 0.85853 0.78371 0.0
C424 C 0.15807 0.86714 0.80701 0.0
C425 C 0.17215 0.89293 0.82427 0.0
C426 C 0.1116 0.79234 0.75064 0.0
C427 C 0.11101 0.80606 0.725 0.0
C428 C 0.13465 0.80767 0.76948 0.0
C429 C 0.15772 0.83687 0.76304 0.0
C430 C 0.15922 0.84832 0.73686 0.0
C431 C 0.1362 0.83314 0.71814 0.0
H432 H 0.961 0.89584 0.70759 0.0
H433 H 0.91614 0.79357 0.73363 0.0
H434 H 0.92266 0.92806 0.7388 0.0
H435 H 0.87726 0.82629 0.76474 0.0
H436 H 0.79059 0.91335 0.79733 0.0
H437 H 0.82434 0.87663 0.76542 0.0
H438 H 0.9245 0.92714 0.78979 0.0
H439 H 0.89131 0.96329 0.82177 0.0
C440 C 0.94253 0.88021 0.71962 0.0
C441 C 0.94186 0.84203 0.71817 0.0
C442 C 0.92076 0.89872 0.73763 0.0
C443 C 0.89736 0.87961 0.75437 0.0
C444 C 0.89511 0.84164 0.75205 0.0
C445 C 0.91739 0.82297 0.73426 0.0
C446 C 0.81988 0.91625 0.79611 0.0
C447 C 0.8382 0.94138 0.81209 0.0
C448 C 0.83913 0.89523 0.77787 0.0
C449 C 0.87691 0.89944 0.77495 0.0
C450 C 0.8953 0.92373 0.7914 0.0
C451 C 0.87625 0.94424 0.80987 0.0
H452 H 0.14309 0.91995 0.19736 0.0
H453 H 0.23114 0.93589 0.25209 0.0
H454 H 0.1139 0.87846 0.22805 0.0
H455 H 0.20161 0.89461 0.28283 0.0
H456 H 0.1018 0.8718 0.33937 0.0
H457 H 0.14196 0.90218 0.30838 0.0
H458 H 0.12239 0.81744 0.25194 0.0
H459 H 0.08242 0.78668 0.28302 0.0
C460 C 0.1565 0.91419 0.21575 0.0
C461 C 0.18932 0.93143 0.22233 0.0
C462 C 0.13986 0.89027 0.23327 0.0
C463 C 0.15543 0.88347 0.25787 0.0
C464 C 0.18893 0.89958 0.26406 0.0
C465 C 0.20587 0.92307 0.24639 0.0
C466 C 0.10658 0.85925 0.32054 0.0
C467 C 0.08874 0.82693 0.31362 0.0
C468 C 0.12971 0.87658 0.30284 0.0
C469 C 0.13511 0.86225 0.27771 0.0
C470 C 0.11849 0.82918 0.27113 0.0
C471 C 0.0958 0.8115 0.289 0.0
H472 H 0.08745 0.14283 0.7009 0.0
H473 H 0.08035 0.23303 0.75469 0.0
H474 H 0.12961 0.11185 0.7304 0.0
H475 H 0.1222 0.2016 0.78437 0.0
H476 H 0.14479 0.10134 0.84117 0.0
H477 H 0.11337 0.1421 0.8109 0.0
H478 H 0.19349 0.11828 0.75164 0.0
H479 H 0.2254 0.07782 0.78204 0.0
C480 C 0.09531 0.1563 0.71883 0.0
C481 C 0.08044 0.19037 0.72547 0.0
C482 C 0.11958 0.1386 0.73566 0.0
C483 C 0.12908 0.15429 0.7597 0.0
C484 C 0.11519 0.18885 0.766 0.0
C485 C 0.09139 0.20688 0.74894 0.0
C486 C 0.15609 0.10527 0.82184 0.0
C487 C 0.18751 0.08622 0.81399 0.0
C488 C 0.13818 0.12874 0.80456 0.0
C489 C 0.15093 0.13323 0.7789 0.0
C490 C 0.18301 0.11516 0.77128 0.0
C491 C 0.20134 0.09217 0.78873 0.0
H492 H 0.87322 0.10139 0.19634 0.0
H493 H 0.78708 0.08082 0.25183 0.0
H494 H 0.90275 0.1414 0.22779 0.0
H495 H 0.81698 0.12063 0.28336 0.0
H496 H 0.91838 0.1412 0.33899 0.0
H497 H 0.87762 0.11222 0.30773 0.0
H498 H 0.8944 0.20061 0.25364 0.0
H499 H 0.93494 0.22992 0.28496 0.0
C500 C 0.86026 0.10589 0.21506 0.0
C501 C 0.82791 0.08774 0.22161 0.0
C502 C 0.87711 0.12893 0.23303 0.0
C503 C 0.86225 0.13393 0.25806 0.0
C504 C 0.82913 0.11704 0.26425 0.0
C505 C 0.81194 0.09443 0.24613 0.0
C506 C 0.9129 0.1548 0.32063 0.0
C507 C 0.93011 0.18776 0.31443 0.0
C508 C 0.8894 0.13828 0.30279 0.0
C509 C 0.883 0.1541 0.27822 0.0
C510 C 0.89906 0.18772 0.27238 0.0
C511 C 0.92212 0.20455 0.29039 0.0
H512 H 0.11676 -0.00824 0.10521 0.0
H513 H 0.0707 0.09154 0.13526 0.0
H514 H 0.0566 0.9722 0.09124 0.0
H515 H 0.01046 0.07169 0.12198 0.0
H516 H 0.94965 0.93065 0.13332 0.0
H517 H 0.01002 0.95107 0.12077 0.0
H518 H 0.96413 0.05179 0.09182 0.0
H519 H 0.90383 0.03162 0.10507 0.0
C520 C 0.09385 0.00993 0.10821 0.0
C521 C 0.09808 0.04271 0.12195 0.0
C522 C 0.05944 -0.00131 0.10023 0.0
C523 C 0.02868 0.0199 0.10609 0.0
C524 C 0.03358 0.05465 0.11709 0.0
C525 C 0.06812 0.06604 0.12486 0.0
C526 C 0.95233 0.95658 0.12346 0.0
C527 C 0.92239 0.98001 0.12086 0.0
C528 C 0.98693 0.96831 0.1161 0.0
C529 C -0.00808 0.0035 0.10584 0.0
C530 C 0.96122 0.02495 0.10026 0.0
C531 C 0.92673 0.01336 0.10783 0.0
H532 H 0.02451 0.067 0.69288 0.0
H533 H -0.00607 0.10113 0.61505 0.0
H534 H 0.05529 0.01429 0.67494 0.0
H535 H 0.02469 0.04727 0.597 0.0
H536 H 0.02299 0.91307 0.60414 0.0
H537 H 0.00982 0.97798 0.60356 0.0
H538 H 0.11016 -0.00159 0.64478 0.0
H539 H 0.12336 0.93333 0.64544 0.0
C540 C 0.0242 0.06316 0.67191 0.0
C541 C 0.00649 0.08799 0.65539 0.0
C542 C 0.04248 0.03333 0.6616 0.0
C543 C 0.04313 0.02733 0.63454 0.0
C544 C 0.02504 0.05178 0.61789 0.0
C545 C 0.00717 0.0822 0.62824 0.0
C546 C 0.04311 0.93162 0.6119 0.0
C547 C 0.07353 0.91836 0.62562 0.0
C548 C 0.03564 0.96878 0.61145 0.0
C549 C 0.05847 -0.00718 0.62484 0.0
C550 C 0.09191 0.9801 0.6347 0.0
C551 C 0.09952 0.9429 0.63499 0.0
H552 H 0.89984 0.00128 0.93062 0.0
H553 H 0.94623 0.09842 0.89709 0.0
H554 H 0.96017 0.98123 0.9443 0.0
H555 H 0.00658 0.07807 0.91022 0.0
H556 H 0.06699 0.9355 0.90394 0.0
H557 H 0.00659 0.95785 0.91504 0.0
H558 H 0.05288 0.05927 0.94131 0.0
H559 H 0.11334 0.03708 0.92968 0.0
C560 C 0.92285 0.0188 0.92676 0.0
C561 C 0.91857 0.05095 0.91217 0.0
C562 C 0.95737 0.00726 0.93457 0.0
C563 C 0.9882 0.02758 0.92781 0.0
C564 C 0.98338 0.06175 0.91582 0.0
C565 C 0.94877 0.07341 0.90814 0.0
C566 C 0.06441 0.96207 0.91288 0.0
C567 C 0.09463 0.98494 0.91524 0.0
C568 C 0.02976 0.9749 0.9194 0.0
C569 C 0.0249 0.01071 0.92855 0.0
C570 C 0.05571 0.03191 0.93375 0.0
C571 C 0.09029 0.01915 0.92711 0.0
H572 H 0.93018 0.94631 0.40238 0.0
H573 H 0.03169 0.90102 0.43024 0.0
H574 H 0.95009 0.00657 0.41534 0.0
H575 H 0.05134 0.96121 0.44391 0.0
H576 H 0.09028 0.06867 0.40136 0.0
H577 H 0.07092 0.00814 0.4142 0.0
H578 H 0.97074 0.05283 0.44511 0.0
H579 H 0.98979 0.11328 0.43154 0.0
C580 C 0.95612 0.94907 0.41223 0.0
C581 C 0.97984 0.91934 0.41461 0.0
C582 C 0.96755 0.98361 0.41983 0.0
C583 C 0.00274 0.98876 0.43012 0.0
C584 C 0.02449 0.9582 0.43546 0.0
C585 C 0.0132 0.92378 0.42765 0.0
C586 C 0.06473 0.06569 0.4117 0.0
C587 C 0.04106 0.09534 0.41477 0.0
C588 C 0.05362 0.03099 0.41923 0.0
C589 C 0.01883 0.02561 0.43014 0.0
C590 C -0.00274 0.05604 0.43617 0.0
C591 C 0.00822 0.09061 0.42842 0.0
H592 H 0.42398 0.96298 0.18215 0.0
H593 H 0.4109 0.03289 0.24903 0.0
H594 H 0.48957 0.97009 0.18431 0.0
H595 H 0.47713 0.0384 0.25258 0.0
H596 H 0.59464 0.07039 0.23302 0.0
H597 H 0.52909 0.06345 0.23417 0.0
H598 H 0.54072 0.95268 0.20707 0.0
H599 H 0.6056 0.96094 0.20326 0.0
C600 C 0.43543 0.9797 0.19748 0.0
C601 C 0.41274 -0.00252 0.2154 0.0
C602 C 0.47306 0.98344 0.19899 0.0
C603 C 0.48897 0.0043 0.21893 0.0
C604 C 0.46597 0.02239 0.2368 0.0
C605 C 0.42809 0.01928 0.23486 0.0
C606 C 0.58324 0.04442 0.22745 0.0
C607 C 0.60579 0.01612 0.21834 0.0
C608 C 0.54551 0.04033 0.22835 0.0
C609 C 0.52931 0.00759 0.22051 0.0
C610 C 0.55204 0.97862 0.21272 0.0
C611 C 0.58971 0.98302 0.21123 0.0
H612 H 0.04946 0.60803 0.69722 0.0
H613 H 0.94396 0.59998 0.73408 0.0
H614 H 0.05646 0.54299 0.69946 0.0
H615 H 0.94919 0.5341 0.73366 0.0
H616 H 0.98255 0.41552 0.74795 0.0
H617 H 0.97611 0.4817 0.75064 0.0
H618 H 0.03578 0.4923 0.67813 0.0
H619 H 0.04409 0.42676 0.67677 0.0
C620 C 0.02806 0.59266 0.70643 0.0
C621 C -0.00337 0.60964 0.71628 0.0
C622 C 0.03158 0.55491 0.70696 0.0
C623 C 0.00319 0.53295 0.71643 0.0
C624 C 0.97188 0.54995 0.72654 0.0
C625 C 0.96875 0.58781 0.72658 0.0
C626 C -0.00599 0.43231 0.73265 0.0
C627 C 0.01394 0.41651 0.71227 0.0
C628 C 0.99031 0.47014 0.73408 0.0
C629 C 0.00591 0.49261 0.71481 0.0
C630 C 0.02448 0.47619 0.69383 0.0
C631 C 0.02889 0.43862 0.69281 0.0
H632 H 0.41603 -0.00771 0.85872 0.0
H633 H 0.41633 0.0193 0.77674 0.0
H634 H 0.48229 0.98613 0.85793 0.0
H635 H 0.48275 0.01378 0.77594 0.0
H636 H 0.59875 0.96361 0.78189 0.0
H637 H 0.53227 0.96694 0.78125 0.0
H638 H 0.53394 0.02982 0.85241 0.0
H639 H 0.60024 0.02585 0.85331 0.0
C640 C 0.4302 -0.00425 0.84036 0.0
C641 C 0.41114 0.00523 0.8176 0.0
C642 C 0.46815 -0.00703 0.84001 0.0
C643 C 0.48764 -0.00039 0.81689 0.0
C644 C 0.4684 0.00821 0.79398 0.0
C645 C 0.4305 0.01134 0.79441 0.0
C646 C 0.58486 0.97851 0.7972 0.0
C647 C 0.60468 -0.00487 0.81734 0.0
C648 C 0.54688 0.98044 0.79682 0.0
C649 C 0.52797 -0.00146 0.81681 0.0
C650 C 0.54783 0.01545 0.83684 0.0
C651 C 0.58584 0.01379 0.83709 0.0
H652 H 0.9639 0.42299 0.35751 0.0
H653 H 0.02987 0.40846 0.28867 0.0
H654 H 0.97157 0.48841 0.35468 0.0
H655 H 0.03576 0.47446 0.28444 0.0
H656 H 0.0692 0.59199 0.301 0.0
H657 H 0.06207 0.52655 0.30119 0.0
H658 H 0.95326 0.53931 0.33225 0.0
H659 H 0.96194 0.6041 0.33474 0.0
C660 C 0.97989 0.43409 0.34163 0.0
C661 C -0.00359 0.41105 0.32334 0.0
C662 C 0.98393 0.47162 0.33974 0.0
C663 C 0.00376 0.48707 0.31903 0.0
C664 C 0.02061 0.46369 0.30081 0.0
C665 C 0.01726 0.42593 0.30313 0.0
C666 C 0.04362 0.58086 0.30776 0.0
C667 C 0.01601 0.60375 0.31753 0.0
C668 C 0.0394 0.54317 0.30763 0.0
C669 C 0.00717 0.52732 0.31693 0.0
C670 C 0.97885 0.55033 0.32547 0.0
C671 C 0.98343 0.58798 0.32619 0.0
loop_
_geom_bond_atom_site_label_1
_geom_bond_atom_site_label_2
_geom_bond_distance
_geom_bond_site_symmetry_2
_ccdc_geom_bond_type
Co0 O3 1.970 . S
Co0 N17 1.989 . S
Co0 O25 1.967 1_545 S
Co0 O32 1.920 . S
Co1 O4 1.966 . S
Co1 N10 2.022 . S
Co1 N18 1.993 . S
Co1 O26 1.941 1_545 S
C2 O3 1.258 . S
C2 O4 1.263 . S
O3 Co0 1.970 . S
O3 C2 1.258 . S
O4 Co1 1.966 . S
O4 C2 1.263 . S
C5 O6 1.235 . S
C5 O32 1.289 . S
O6 C5 1.235 . S
C7 C9 1.400 . S
C7 N10 1.351 . S
C7 C12 1.501 . S
C8 C9 1.358 1_565 S
C8 N11 1.349 . S
C9 C7 1.400 . S
C9 C8 1.358 1_545 S
N10 Co1 2.022 . S
N10 C7 1.351 . S
N10 N11 1.365 1_545 S
N11 C8 1.349 . S
N11 N10 1.365 1_565 S
N11 H31 0.862 . S
C12 C7 1.501 . S
C12 H13 0.961 . S
C12 H14 0.961 . S
C12 H15 0.960 . S
H13 C12 0.961 . S
H14 C12 0.961 . S
H15 C12 0.960 . S
C16 N17 1.342 . S
C16 C20 1.401 . S
C16 C21 1.499 . S
N17 Co0 1.989 . S
N17 C16 1.342 . S
N17 N18 1.388 . S
N18 Co1 1.993 . S
N18 N17 1.388 . S
N18 C19 1.346 . S
C19 N18 1.346 . S
C19 C20 1.396 . S
C19 C29 1.510 . S
C20 C16 1.401 . S
C20 C19 1.396 . S
C21 C16 1.499 . S
C21 H22 0.959 . S
C21 H23 0.960 . S
C21 H24 0.961 1_545 S
H22 C21 0.959 . S
H23 C21 0.960 . S
H24 C21 0.961 1_565 S
O25 Co0 1.967 1_565 S
O25 C33 1.258 . S
O26 Co1 1.941 1_565 S
O26 C33 1.266 . S
H27 C29 0.959 1_565 S
H28 C29 0.961 . S
C29 C19 1.510 . S
C29 H27 0.959 1_545 S
C29 H28 0.961 . S
C29 H30 0.960 . S
H30 C29 0.960 . S
H31 N11 0.862 . S
O32 Co0 1.920 . S
O32 C5 1.289 . S
C33 O25 1.258 . S
C33 O26 1.266 . S
Co34 O37 1.970 1_455 S
Co34 N51 1.989 . S
Co34 O59 1.967 . S
Co34 O66 1.920 . S
Co35 O38 1.966 1_455 S
Co35 N44 2.022 . S
Co35 N52 1.993 . S
Co35 O60 1.941 . S
C36 O37 1.258 . S
C36 O38 1.263 . S
O37 Co34 1.970 1_655 S
O37 C36 1.258 . S
O38 Co35 1.966 1_655 S
O38 C36 1.263 . S
C39 O40 1.235 . S
C39 O66 1.289 1_655 S
O40 C39 1.235 . S
C41 C43 1.400 1_655 S
C41 N44 1.351 1_655 S
C41 C46 1.501 . S
C42 C43 1.389 . S
C42 N45 1.341 . S
C43 C41 1.400 1_455 S
C43 C42 1.389 . S
N44 Co35 2.022 . S
N44 C41 1.351 1_455 S
N44 N45 1.365 . S
N45 C42 1.341 . S
N45 N44 1.365 . S
N45 H65 0.862 . S
C46 C41 1.501 . S
C46 H47 0.961 . S
C46 H48 0.961 . S
C46 H49 0.960 . S
H47 C46 0.961 . S
H48 C46 0.961 . S
H49 C46 0.960 . S
C50 N51 1.342 . S
C50 C54 1.401 . S
C50 C55 1.499 . S
N51 Co34 1.989 . S
N51 C50 1.342 . S
N51 N52 1.388 . S
N52 Co35 1.993 . S
N52 N51 1.388 . S
N52 C53 1.346 . S
C53 N52 1.346 . S
C53 C54 1.396 . S
C53 C63 1.510 . S
C54 C50 1.401 . S
C54 C53 1.396 . S
C55 C50 1.499 . S
C55 H56 0.959 . S
C55 H57 0.960 . S
C55 H58 0.961 . S
H56 C55 0.959 . S
H57 C55 0.960 . S
H58 C55 0.961 . S
O59 Co34 1.967 . S
O59 C67 1.258 . S
O60 Co35 1.941 . S
O60 C67 1.266 . S
H61 C63 0.959 . S
H62 C63 0.961 1_655 S
C63 C53 1.510 . S
C63 H61 0.959 . S
C63 H62 0.961 1_455 S
C63 H64 0.960 . S
H64 C63 0.960 . S
H65 N45 0.862 . S
O66 Co34 1.920 . S
O66 C39 1.289 1_455 S
C67 O59 1.258 . S
C67 O60 1.266 . S
Co68 O71 1.970 1_545 S
Co68 N85 1.989 . S
Co68 O93 1.967 . S
Co68 O100 1.920 . S
Co69 O72 1.966 1_545 S
Co69 N78 2.022 . S
Co69 N86 1.993 . S
Co69 O94 1.941 . S
C70 O71 1.258 . S
C70 O72 1.263 . S
O71 Co68 1.970 1_565 S
O71 C70 1.258 . S
O72 Co69 1.966 1_565 S
O72 C70 1.263 . S
C73 O74 1.235 . S
C73 O100 1.289 1_565 S
O74 C73 1.235 . S
C75 C77 1.399 1_565 S
C75 N78 1.351 1_565 S
C75 C80 1.501 . S
C76 C77 1.393 . S
C76 N79 1.341 . S
C77 C75 1.399 1_545 S
C77 C76 1.393 . S
N78 Co69 2.022 . S
N78 C75 1.351 1_545 S
N78 N79 1.365 . S
N79 C76 1.341 . S
N79 N78 1.365 . S
N79 H99 0.862 . S
C80 C75 1.501 . S
C80 H81 0.961 . S
C80 H82 0.961 . S
C80 H83 0.960 . S
H81 C80 0.961 . S
H82 C80 0.961 . S
H83 C80 0.960 . S
C84 N85 1.342 . S
C84 C88 1.401 . S
C84 C89 1.499 . S
N85 Co68 1.989 . S
N85 C84 1.342 . S
N85 N86 1.388 . S
N86 Co69 1.993 . S
N86 N85 1.388 . S
N86 C87 1.346 . S
C87 N86 1.346 . S
C87 C88 1.396 . S
C87 C97 1.510 . S
C88 C84 1.401 . S
C88 C87 1.396 . S
C89 C84 1.499 . S
C89 H90 0.959 . S
C89 H91 0.960 . S
C89 H92 0.961 . S
H90 C89 0.959 . S
H91 C89 0.960 . S
H92 C89 0.961 . S
O93 Co68 1.967 . S
O93 C101 1.258 . S
O94 Co69 1.941 . S
O94 C101 1.266 . S
H95 C97 0.959 . S
H96 C97 0.961 1_565 S
C97 C87 1.510 . S
C97 H95 0.959 . S
C97 H96 0.961 1_545 S
C97 H98 0.960 . S
H98 C97 0.960 . S
H99 N79 0.862 . S
O100 Co68 1.920 . S
O100 C73 1.289 1_545 S
C101 O93 1.258 . S
C101 O94 1.266 . S
Co102 O105 1.970 . S
Co102 N119 1.989 . S
Co102 O127 1.967 1_455 S
Co102 O134 1.920 . S
Co103 O106 1.966 . S
Co103 N112 2.022 . S
Co103 N120 1.993 . S
Co103 O128 1.941 1_455 S
C104 O105 1.258 . S
C104 O106 1.263 . S
O105 Co102 1.970 . S
O105 C104 1.258 . S
O106 Co103 1.966 . S
O106 C104 1.263 . S
C107 O108 1.235 . S
C107 O134 1.289 . S
O108 C107 1.235 . S
C109 C111 1.400 . S
C109 N112 1.351 . S
C109 C114 1.501 . S
C110 C111 1.367 1_655 S
C110 N113 1.346 . S
C111 C109 1.400 . S
C111 C110 1.367 1_455 S
N112 Co103 2.022 . S
N112 C109 1.351 . S
N112 N113 1.365 1_455 S
N113 C110 1.346 . S
N113 N112 1.365 1_655 S
N113 H133 0.862 . S
C114 C109 1.501 . S
C114 H115 0.961 . S
C114 H116 0.961 . S
C114 H117 0.960 . S
H115 C114 0.961 . S
H116 C114 0.961 . S
H117 C114 0.960 . S
C118 N119 1.342 . S
C118 C122 1.401 . S
C118 C123 1.499 . S
N119 Co102 1.989 . S
N119 C118 1.342 . S
N119 N120 1.388 . S
N120 Co103 1.993 . S
N120 N119 1.388 . S
N120 C121 1.346 . S
C121 N120 1.346 . S
C121 C122 1.396 . S
C121 C131 1.510 . S
C122 C118 1.401 . S
C122 C121 1.396 . S
C123 C118 1.499 . S
C123 H124 0.959 . S
C123 H125 0.960 . S
C123 H126 0.961 1_455 S
H124 C123 0.959 . S
H125 C123 0.960 . S
H126 C123 0.961 1_655 S
O127 Co102 1.967 1_655 S
O127 C135 1.258 . S
O128 Co103 1.941 1_655 S
O128 C135 1.266 . S
H129 C131 0.959 1_655 S
H130 C131 0.961 . S
C131 C121 1.510 . S
C131 H129 0.959 1_455 S
C131 H130 0.961 . S
C131 H132 0.960 . S
H132 C131 0.960 . S
H133 N113 0.862 . S
O134 Co102 1.920 . S
O134 C107 1.289 . S
C135 O127 1.258 . S
C135 O128 1.266 . S
Co136 O139 1.970 1_545 S
Co136 N153 1.989 . S
Co136 O161 1.967 . S
Co136 O168 1.920 . S
Co137 O140 1.966 1_545 S
Co137 N146 2.022 . S
Co137 N154 1.993 . S
Co137 O162 1.941 . S
C138 O139 1.258 . S
C138 O140 1.263 . S
O139 Co136 1.970 1_565 S
O139 C138 1.258 . S
O140 Co137 1.966 1_565 S
O140 C138 1.263 . S
C141 O142 1.235 . S
C141 O168 1.289 1_565 S
O142 C141 1.235 . S
C143 C145 1.400 1_565 S
C143 N146 1.351 1_565 S
C143 C148 1.501 . S
C144 C145 1.389 . S
C144 N147 1.341 . S
C145 C143 1.400 1_545 S
C145 C144 1.389 . S
N146 Co137 2.022 . S
N146 C143 1.351 1_545 S
N146 N147 1.365 . S
N147 C144 1.341 . S
N147 N146 1.365 . S
N147 H167 0.862 . S
C148 C143 1.501 . S
C148 H149 0.961 . S
C148 H150 0.961 . S
C148 H151 0.960 . S
H149 C148 0.961 . S
H150 C148 0.961 . S
H151 C148 0.960 . S
C152 N153 1.342 . S
C152 C156 1.401 . S
C152 C157 1.499 . S
N153 Co136 1.989 . S
N153 C152 1.342 . S
N153 N154 1.388 . S
N154 Co137 1.993 . S
N154 N153 1.388 . S
N154 C155 1.346 . S
C155 N154 1.346 . S
C155 C156 1.396 . S
C155 C165 1.510 . S
C156 C152 1.401 . S
C156 C155 1.396 . S
C157 C152 1.499 . S
C157 H158 0.959 . S
C157 H159 0.960 . S
C157 H160 0.961 . S
H158 C157 0.959 . S
H159 C157 0.960 . S
H160 C157 0.961 . S
O161 Co136 1.967 . S
O161 C169 1.258 . S
O162 Co137 1.941 . S
O162 C169 1.266 . S
H163 C165 0.959 . S
H164 C165 0.961 1_565 S
C165 C155 1.510 . S
C165 H163 0.959 . S
C165 H164 0.961 1_545 S
C165 H166 0.960 . S
H166 C165 0.960 . S
H167 N147 0.862 . S
O168 Co136 1.920 . S
O168 C141 1.289 1_545 S
C169 O161 1.258 . S
C169 O162 1.266 . S
Co170 O173 1.970 . S
Co170 N187 1.989 . S
Co170 O195 1.967 1_455 S
Co170 O202 1.920 . S
Co171 O174 1.966 . S
Co171 N180 2.022 . S
Co171 N188 1.993 . S
Co171 O196 1.941 1_455 S
C172 O173 1.258 . S
C172 O174 1.263 . S
O173 Co170 1.970 . S
O173 C172 1.258 . S
O174 Co171 1.966 . S
O174 C172 1.263 . S
C175 O176 1.235 . S
C175 O202 1.289 . S
O176 C175 1.235 . S
C177 C179 1.400 . S
C177 N180 1.351 . S
C177 C182 1.501 . S
C178 C179 1.358 1_655 S
C178 N181 1.349 . S
C179 C177 1.400 . S
C179 C178 1.358 1_455 S
N180 Co171 2.022 . S
N180 C177 1.351 . S
N180 N181 1.365 1_455 S
N181 C178 1.349 . S
N181 N180 1.365 1_655 S
N181 H201 0.862 . S
C182 C177 1.501 . S
C182 H183 0.961 . S
C182 H184 0.961 . S
C182 H185 0.960 . S
H183 C182 0.961 . S
H184 C182 0.961 . S
H185 C182 0.960 . S
C186 N187 1.342 . S
C186 C190 1.401 . S
C186 C191 1.499 . S
N187 Co170 1.989 . S
N187 C186 1.342 . S
N187 N188 1.388 . S
N188 Co171 1.993 . S
N188 N187 1.388 . S
N188 C189 1.346 . S
C189 N188 1.346 . S
C189 C190 1.396 . S
C189 C199 1.510 . S
C190 C186 1.401 . S
C190 C189 1.396 . S
C191 C186 1.499 . S
C191 H192 0.959 . S
C191 H193 0.960 . S
C191 H194 0.961 1_455 S
H192 C191 0.959 . S
H193 C191 0.960 . S
H194 C191 0.961 1_655 S
O195 Co170 1.967 1_655 S
O195 C203 1.258 . S
O196 Co171 1.941 1_655 S
O196 C203 1.266 . S
H197 C199 0.959 1_655 S
H198 C199 0.961 . S
C199 C189 1.510 . S
C199 H197 0.959 1_455 S
C199 H198 0.961 . S
C199 H200 0.960 . S
H200 C199 0.960 . S
H201 N181 0.862 . S
O202 Co170 1.920 . S
O202 C175 1.289 . S
C203 O195 1.258 . S
C203 O196 1.266 . S
Co204 O207 1.970 . S
Co204 N221 1.989 . S
Co204 O229 1.967 1_545 S
Co204 O236 1.920 . S
Co205 O208 1.966 . S
Co205 N214 2.022 . S
Co205 N222 1.993 . S
Co205 O230 1.941 1_545 S
C206 O207 1.258 . S
C206 O208 1.263 . S
O207 Co204 1.970 . S
O207 C206 1.258 . S
O208 Co205 1.966 . S
O208 C206 1.263 . S
C209 O210 1.235 . S
C209 O236 1.289 . S
O210 C209 1.235 . S
C211 C213 1.400 . S
C211 N214 1.351 . S
C211 C216 1.501 . S
C212 C213 1.366 1_565 S
C212 N215 1.346 . S
C213 C211 1.400 . S
C213 C212 1.366 1_545 S
N214 Co205 2.022 . S
N214 C211 1.351 . S
N214 N215 1.365 1_545 S
N215 C212 1.346 . S
N215 N214 1.365 1_565 S
N215 H235 0.862 . S
C216 C211 1.501 . S
C216 H217 0.961 . S
C216 H218 0.961 . S
C216 H219 0.960 . S
H217 C216 0.961 . S
H218 C216 0.961 . S
H219 C216 0.960 . S
C220 N221 1.342 . S
C220 C224 1.401 . S
C220 C225 1.499 . S
N221 Co204 1.989 . S
N221 C220 1.342 . S
N221 N222 1.388 . S
N222 Co205 1.993 . S
N222 N221 1.388 . S
N222 C223 1.346 . S
C223 N222 1.346 . S
C223 C224 1.396 . S
C223 C233 1.510 . S
C224 C220 1.401 . S
C224 C223 1.396 . S
C225 C220 1.499 . S
C225 H226 0.959 . S
C225 H227 0.960 . S
C225 H228 0.961 1_545 S
H226 C225 0.959 . S
H227 C225 0.960 . S
H228 C225 0.961 1_565 S
O229 Co204 1.967 1_565 S
O229 C237 1.258 . S
O230 Co205 1.941 1_565 S
O230 C237 1.266 . S
H231 C233 0.959 1_565 S
H232 C233 0.961 . S
C233 C223 1.510 . S
C233 H231 0.959 1_545 S
C233 H232 0.961 . S
C233 H234 0.960 . S
H234 C233 0.960 . S
H235 N215 0.862 . S
O236 Co204 1.920 . S
O236 C209 1.289 . S
C237 O229 1.258 . S
C237 O230 1.266 . S
Co238 O241 1.970 1_455 S
Co238 N255 1.989 . S
Co238 O263 1.967 . S
Co238 O270 1.920 . S
Co239 O242 1.966 1_455 S
Co239 N248 2.022 . S
Co239 N256 1.993 . S
Co239 O264 1.941 . S
C240 O241 1.258 . S
C240 O242 1.263 . S
O241 Co238 1.970 1_655 S
O241 C240 1.258 . S
O242 Co239 1.966 1_655 S
O242 C240 1.263 . S
C243 O244 1.235 . S
C243 O270 1.289 1_655 S
O244 C243 1.235 . S
C245 C247 1.399 1_655 S
C245 N248 1.351 1_655 S
C245 C250 1.501 . S
C246 C247 1.393 . S
C246 N249 1.341 . S
C247 C245 1.399 1_455 S
C247 C246 1.393 . S
N248 Co239 2.022 . S
N248 C245 1.351 1_455 S
N248 N249 1.365 . S
N249 C246 1.341 . S
N249 N248 1.365 . S
N249 H269 0.862 . S
C250 C245 1.501 . S
C250 H251 0.961 . S
C250 H252 0.961 . S
C250 H253 0.960 . S
H251 C250 0.961 . S
H252 C250 0.961 . S
H253 C250 0.960 . S
C254 N255 1.342 . S
C254 C258 1.401 . S
C254 C259 1.499 . S
N255 Co238 1.989 . S
N255 C254 1.342 . S
N255 N256 1.388 . S
N256 Co239 1.993 . S
N256 N255 1.388 . S
N256 C257 1.346 . S
C257 N256 1.346 . S
C257 C258 1.396 . S
C257 C267 1.510 . S
C258 C254 1.401 . S
C258 C257 1.396 . S
C259 C254 1.499 . S
C259 H260 0.959 . S
C259 H261 0.960 . S
C259 H262 0.961 . S
H260 C259 0.959 . S
H261 C259 0.960 . S
H262 C259 0.961 . S
O263 Co238 1.967 . S
O263 C271 1.258 . S
O264 Co239 1.941 . S
O264 C271 1.266 . S
H265 C267 0.959 . S
H266 C267 0.961 1_655 S
C267 C257 1.510 . S
C267 H265 0.959 . S
C267 H266 0.961 1_455 S
C267 H268 0.960 . S
H268 C267 0.960 . S
H269 N249 0.862 . S
O270 Co238 1.920 . S
O270 C243 1.289 1_455 S
C271 O263 1.258 . S
C271 O264 1.266 . S
H272 C280 0.950 . S
H273 C285 0.950 . S
H274 C282 0.950 . S
H275 C284 0.950 . S
H276 C286 0.950 . S
H277 C288 0.950 . S
H278 C290 0.950 . S
H279 C291 0.950 . S
C280 H272 0.950 . S
C280 C281 1.386 1_565 S
C280 C282 1.391 . S
C281 C280 1.386 1_545 S
C281 C285 1.393 . S
C282 H274 0.950 . S
C282 C280 1.391 . S
C282 C283 1.400 1_565 S
C283 C282 1.400 1_545 S
C283 C284 1.398 . S
C283 C289 1.491 1_554 S
C284 H275 0.950 . S
C284 C283 1.398 . S
C284 C285 1.391 . S
C285 H273 0.950 . S
C285 C281 1.393 . S
C285 C284 1.391 . S
C286 H276 0.950 . S
C286 C287 1.386 . S
C286 C288 1.391 . S
C287 C286 1.386 . S
C287 C291 1.393 1_545 S
C288 H277 0.950 . S
C288 C286 1.391 . S
C288 C289 1.400 . S
C289 C283 1.491 1_556 S
C289 C288 1.400 . S
C289 C290 1.398 1_545 S
C290 H278 0.950 . S
C290 C289 1.398 1_565 S
C290 C291 1.391 . S
C291 H279 0.950 . S
C291 C287 1.393 1_565 S
C291 C290 1.391 . S
H292 C300 0.950 . S
H293 C305 0.950 . S
H294 C302 0.950 . S
H295 C304 0.950 . S
H296 C306 0.950 . S
H297 C308 0.950 . S
H298 C310 0.950 1_655 S
H299 C311 0.950 1_655 S
C300 H292 0.950 . S
C300 C301 1.386 1_655 S
C300 C302 1.391 . S
C301 C300 1.386 1_455 S
C301 C305 1.393 . S
C302 H294 0.950 . S
C302 C300 1.391 . S
C302 C303 1.400 1_655 S
C303 C302 1.400 1_455 S
C303 C304 1.398 . S
C303 C309 1.491 . S
C304 H295 0.950 . S
C304 C303 1.398 . S
C304 C305 1.391 . S
C305 H293 0.950 . S
C305 C301 1.393 . S
C305 C304 1.391 . S
C306 H296 0.950 . S
C306 C307 1.386 . S
C306 C308 1.391 . S
C307 C306 1.386 . S
C307 C311 1.393 . S
C308 H297 0.950 . S
C308 C306 1.391 . S
C308 C309 1.400 . S
C309 C303 1.491 . S
C309 C308 1.400 . S
C309 C310 1.398 . S
C310 H298 0.950 1_455 S
C310 C309 1.398 . S
C310 C311 1.391 . S
C311 H299 0.950 1_455 S
C311 C307 1.393 . S
C311 C310 1.391 . S
H312 C320 0.950 . S
H313 C325 0.950 1_565 S
H314 C322 0.950 . S
H315 C324 0.942 1_565 S
H316 C326 0.950 . S
H317 C328 0.950 . S
H318 C330 0.950 . S
H319 C331 0.950 . S
C320 H312 0.950 . S
C320 C321 1.386 . S
C320 C322 1.391 . S
C321 C320 1.386 . S
C321 C325 1.393 . S
C322 H314 0.950 . S
C322 C320 1.391 . S
C322 C323 1.400 . S
C323 C322 1.400 . S
C323 C324 1.405 . S
C323 C329 1.491 1_554 S
C324 H315 0.942 1_545 S
C324 C323 1.405 . S
C324 C325 1.392 . S
C325 H313 0.950 1_545 S
C325 C321 1.393 . S
C325 C324 1.392 . S
C326 H316 0.950 . S
C326 C327 1.386 1_565 S
C326 C328 1.391 . S
C327 C326 1.386 1_545 S
C327 C331 1.393 . S
C328 H317 0.950 . S
C328 C326 1.391 . S
C328 C329 1.400 1_565 S
C329 C323 1.491 1_556 S
C329 C328 1.400 1_545 S
C329 C330 1.398 . S
C330 H318 0.950 . S
C330 C329 1.398 . S
C330 C331 1.391 . S
C331 H319 0.950 . S
C331 C327 1.393 . S
C331 C330 1.391 . S
H332 C340 0.950 . S
H333 C345 0.950 . S
H334 C342 0.950 . S
H335 C344 0.950 . S
H336 C346 0.950 . S
H337 C348 0.950 . S
H338 C350 0.950 . S
H339 C351 0.950 . S
C340 H332 0.950 . S
C340 C341 1.386 . S
C340 C342 1.391 . S
C341 C340 1.386 . S
C341 C345 1.393 . S
C342 H334 0.950 . S
C342 C340 1.391 . S
C342 C343 1.400 . S
C343 C342 1.400 . S
C343 C344 1.398 . S
C343 C349 1.491 . S
C344 H335 0.950 . S
C344 C343 1.398 . S
C344 C345 1.391 . S
C345 H333 0.950 . S
C345 C341 1.393 . S
C345 C344 1.391 . S
C346 H336 0.950 . S
C346 C347 1.386 . S
C346 C348 1.391 . S
C347 C346 1.386 . S
C347 C351 1.393 . S
C348 H337 0.950 . S
C348 C346 1.391 . S
C348 C349 1.400 . S
C349 C343 1.491 . S
C349 C348 1.400 . S
C349 C350 1.398 . S
C350 H338 0.950 . S
C350 C349 1.398 . S
C350 C351 1.391 . S
C351 H339 0.950 . S
C351 C347 1.393 . S
C351 C350 1.391 . S
H352 C360 0.950 . S
H353 C365 0.950 . S
H354 C362 0.950 . S
H355 C364 0.950 . S
H356 C366 0.950 . S
H357 C368 0.950 . S
H358 C370 0.950 . S
H359 C371 0.950 . S
C360 H352 0.950 . S
C360 C361 1.386 . S
C360 C362 1.391 . S
C361 C360 1.386 . S
C361 C365 1.393 . S
C362 H354 0.950 . S
C362 C360 1.391 . S
C362 C363 1.400 . S
C363 C362 1.400 . S
C363 C364 1.398 . S
C363 C369 1.491 . S
C364 H355 0.950 . S
C364 C363 1.398 . S
C364 C365 1.391 . S
C365 H353 0.950 . S
C365 C361 1.393 . S
C365 C364 1.391 . S
C366 H356 0.950 . S
C366 C367 1.386 . S
C366 C368 1.391 . S
C367 C366 1.386 . S
C367 C371 1.393 . S
C368 H357 0.950 . S
C368 C366 1.391 . S
C368 C369 1.400 . S
C369 C363 1.491 . S
C369 C368 1.400 . S
C369 C370 1.398 . S
C370 H358 0.950 . S
C370 C369 1.398 . S
C370 C371 1.391 . S
C371 H359 0.950 . S
C371 C367 1.393 . S
C371 C370 1.391 . S
H372 C380 0.950 . S
H373 C385 0.950 . S
H374 C382 0.950 . S
H375 C384 0.950 . S
H376 C386 0.950 . S
H377 C388 0.950 . S
H378 C390 0.950 . S
H379 C391 0.950 . S
C380 H372 0.950 . S
C380 C381 1.386 . S
C380 C382 1.391 . S
C381 C380 1.386 . S
C381 C385 1.393 . S
C382 H374 0.950 . S
C382 C380 1.391 . S
C382 C383 1.400 . S
C383 C382 1.400 . S
C383 C384 1.398 . S
C383 C389 1.491 . S
C384 H375 0.950 . S
C384 C383 1.398 . S
C384 C385 1.391 . S
C385 H373 0.950 . S
C385 C381 1.393 . S
C385 C384 1.391 . S
C386 H376 0.950 . S
C386 C387 1.386 . S
C386 C388 1.391 . S
C387 C386 1.386 . S
C387 C391 1.393 . S
C388 H377 0.950 . S
C388 C386 1.391 . S
C388 C389 1.400 . S
C389 C383 1.491 . S
C389 C388 1.400 . S
C389 C390 1.398 . S
C390 H378 0.950 . S
C390 C389 1.398 . S
C390 C391 1.391 . S
C391 H379 0.950 . S
C391 C387 1.393 . S
C391 C390 1.391 . S
H392 C400 0.950 . S
H393 C405 0.950 . S
H394 C402 0.950 . S
H395 C404 0.950 . S
H396 C406 0.950 . S
H397 C408 0.950 . S
H398 C410 0.950 . S
H399 C411 0.950 . S
C400 H392 0.950 . S
C400 C401 1.386 . S
C400 C402 1.391 . S
C401 C400 1.386 . S
C401 C405 1.393 . S
C402 H394 0.950 . S
C402 C400 1.391 . S
C402 C403 1.400 . S
C403 C402 1.400 . S
C403 C404 1.398 . S
C403 C409 1.491 . S
C404 H395 0.950 . S
C404 C403 1.398 . S
C404 C405 1.391 . S
C405 H393 0.950 . S
C405 C401 1.393 . S
C405 C404 1.391 . S
C406 H396 0.950 . S
C406 C407 1.386 . S
C406 C408 1.391 . S
C407 C406 1.386 . S
C407 C411 1.393 . S
C408 H397 0.950 . S
C408 C406 1.391 . S
C408 C409 1.400 . S
C409 C403 1.491 . S
C409 C408 1.400 . S
C409 C410 1.398 . S
C410 H398 0.950 . S
C410 C409 1.398 . S
C410 C411 1.391 . S
C411 H399 0.950 . S
C411 C407 1.393 . S
C411 C410 1.391 . S
H412 C420 0.950 . S
H413 C425 0.950 . S
H414 C422 0.950 . S
H415 C424 0.950 . S
H416 C426 0.950 . S
H417 C428 0.950 . S
H418 C430 0.950 . S
H419 C431 0.950 . S
C420 H412 0.950 . S
C420 C421 1.386 . S
C420 C422 1.391 . S
C421 C420 1.386 . S
C421 C425 1.393 . S
C422 H414 0.950 . S
C422 C420 1.391 . S
C422 C423 1.400 . S
C423 C422 1.400 . S
C423 C424 1.398 . S
C423 C429 1.491 . S
C424 H415 0.950 . S
C424 C423 1.398 . S
C424 C425 1.391 . S
C425 H413 0.950 . S
C425 C421 1.393 . S
C425 C424 1.391 . S
C426 H416 0.950 . S
C426 C427 1.386 . S
C426 C428 1.391 . S
C427 C426 1.386 . S
C427 C431 1.393 . S
C428 H417 0.950 . S
C428 C426 1.391 . S
C428 C429 1.400 . S
C429 C423 1.491 . S
C429 C428 1.400 . S
C429 C430 1.398 . S
C430 H418 0.950 . S
C430 C429 1.398 . S
C430 C431 1.391 . S
C431 H419 0.950 . S
C431 C427 1.393 . S
C431 C430 1.391 . S
H432 C440 0.950 . S
H433 C445 0.950 . S
H434 C442 0.950 . S
H435 C444 0.950 . S
H436 C446 0.950 . S
H437 C448 0.950 . S
H438 C450 0.950 . S
H439 C451 0.950 . S
C440 H432 0.950 . S
C440 C441 1.386 . S
C440 C442 1.391 . S
C441 C440 1.386 . S
C441 C445 1.393 . S
C442 H434 0.950 . S
C442 C440 1.391 . S
C442 C443 1.400 . S
C443 C442 1.400 . S
C443 C444 1.398 . S
C443 C449 1.491 . S
C444 H435 0.950 . S
C444 C443 1.398 . S
C444 C445 1.391 . S
C445 H433 0.950 . S
C445 C441 1.393 . S
C445 C444 1.391 . S
C446 H436 0.950 . S
C446 C447 1.386 . S
C446 C448 1.391 . S
C447 C446 1.386 . S
C447 C451 1.393 . S
C448 H437 0.950 . S
C448 C446 1.391 . S
C448 C449 1.400 . S
C449 C443 1.491 . S
C449 C448 1.400 . S
C449 C450 1.398 . S
C450 H438 0.950 . S
C450 C449 1.398 . S
C450 C451 1.391 . S
C451 H439 0.950 . S
C451 C447 1.393 . S
C451 C450 1.391 . S
H452 C460 0.950 . S
H453 C465 0.950 . S
H454 C462 0.950 . S
H455 C464 0.950 . S
H456 C466 0.950 . S
H457 C468 0.950 . S
H458 C470 0.950 . S
H459 C471 0.950 . S
C460 H452 0.950 . S
C460 C461 1.386 . S
C460 C462 1.391 . S
C461 C460 1.386 . S
C461 C465 1.393 . S
C462 H454 0.950 . S
C462 C460 1.391 . S
C462 C463 1.400 . S
C463 C462 1.400 . S
C463 C464 1.398 . S
C463 C469 1.491 . S
C464 H455 0.950 . S
C464 C463 1.398 . S
C464 C465 1.391 . S
C465 H453 0.950 . S
C465 C461 1.393 . S
C465 C464 1.391 . S
C466 H456 0.950 . S
C466 C467 1.386 . S
C466 C468 1.391 . S
C467 C466 1.386 . S
C467 C471 1.393 . S
C468 H457 0.950 . S
C468 C466 1.391 . S
C468 C469 1.400 . S
C469 C463 1.491 . S
C469 C468 1.400 . S
C469 C470 1.398 . S
C470 H458 0.950 . S
C470 C469 1.398 . S
C470 C471 1.391 . S
C471 H459 0.950 . S
C471 C467 1.393 . S
C471 C470 1.391 . S
H472 C480 0.950 . S
H473 C485 0.950 . S
H474 C482 0.950 . S
H475 C484 0.950 . S
H476 C486 0.950 . S
H477 C488 0.950 . S
H478 C490 0.950 . S
H479 C491 0.950 . S
C480 H472 0.950 . S
C480 C481 1.386 . S
C480 C482 1.391 . S
C481 C480 1.386 . S
C481 C485 1.393 . S
C482 H474 0.950 . S
C482 C480 1.391 . S
C482 C483 1.400 . S
C483 C482 1.400 . S
C483 C484 1.398 . S
C483 C489 1.491 . S
C484 H475 0.950 . S
C484 C483 1.398 . S
C484 C485 1.391 . S
C485 H473 0.950 . S
C485 C481 1.393 . S
C485 C484 1.391 . S
C486 H476 0.950 . S
C486 C487 1.386 . S
C486 C488 1.391 . S
C487 C486 1.386 . S
C487 C491 1.393 . S
C488 H477 0.950 . S
C488 C486 1.391 . S
C488 C489 1.400 . S
C489 C483 1.491 . S
C489 C488 1.400 . S
C489 C490 1.398 . S
C490 H478 0.950 . S
C490 C489 1.398 . S
C490 C491 1.391 . S
C491 H479 0.950 . S
C491 C487 1.393 . S
C491 C490 1.391 . S
H492 C500 0.950 . S
H493 C505 0.950 . S
H494 C502 0.950 . S
H495 C504 0.950 . S
H496 C506 0.950 . S
H497 C508 0.950 . S
H498 C510 0.950 . S
H499 C511 0.950 . S
C500 H492 0.950 . S
C500 C501 1.386 . S
C500 C502 1.391 . S
C501 C500 1.386 . S
C501 C505 1.393 . S
C502 H494 0.950 . S
C502 C500 1.391 . S
C502 C503 1.400 . S
C503 C502 1.400 . S
C503 C504 1.398 . S
C503 C509 1.491 . S
C504 H495 0.950 . S
C504 C503 1.398 . S
C504 C505 1.391 . S
C505 H493 0.950 . S
C505 C501 1.393 . S
C505 C504 1.391 . S
C506 H496 0.950 . S
C506 C507 1.386 . S
C506 C508 1.391 . S
C507 C506 1.386 . S
C507 C511 1.393 . S
C508 H497 0.950 . S
C508 C506 1.391 . S
C508 C509 1.400 . S
C509 C503 1.491 . S
C509 C508 1.400 . S
C509 C510 1.398 . S
C510 H498 0.950 . S
C510 C509 1.398 . S
C510 C511 1.391 . S
C511 H499 0.950 . S
C511 C507 1.393 . S
C511 C510 1.391 . S
H512 C520 0.950 . S
H513 C525 0.950 . S
H514 C522 0.950 . S
H515 C524 0.950 . S
H516 C526 0.950 . S
H517 C528 0.950 1_455 S
H518 C530 0.950 . S
H519 C531 0.950 . S
C520 H512 0.950 . S
C520 C521 1.386 . S
C520 C522 1.391 . S
C521 C520 1.386 . S
C521 C525 1.393 . S
C522 H514 0.950 . S
C522 C520 1.391 . S
C522 C523 1.400 . S
C523 C522 1.400 . S
C523 C524 1.398 . S
C523 C529 1.491 1_455 S
C524 H515 0.950 . S
C524 C523 1.398 . S
C524 C525 1.391 . S
C525 H513 0.950 . S
C525 C521 1.393 . S
C525 C524 1.391 . S
C526 H516 0.950 . S
C526 C527 1.386 . S
C526 C528 1.391 . S
C527 C526 1.386 . S
C527 C531 1.393 1_565 S
C528 H517 0.950 1_655 S
C528 C526 1.391 . S
C528 C529 1.400 1_565 S
C529 C523 1.491 1_655 S
C529 C528 1.400 1_545 S
C529 C530 1.398 . S
C530 H518 0.950 . S
C530 C529 1.398 . S
C530 C531 1.391 . S
C531 H519 0.950 . S
C531 C527 1.393 1_545 S
C531 C530 1.391 . S
H532 C540 0.950 . S
H533 C545 0.950 . S
H534 C542 0.950 . S
H535 C544 0.950 . S
H536 C546 0.950 . S
H537 C548 0.950 1_655 S
H538 C550 0.950 1_545 S
H539 C551 0.950 . S
C540 H532 0.950 . S
C540 C541 1.386 1_455 S
C540 C542 1.391 . S
C541 C540 1.386 1_655 S
C541 C545 1.393 . S
C542 H534 0.950 . S
C542 C540 1.391 . S
C542 C543 1.400 . S
C543 C542 1.400 . S
C543 C544 1.398 1_455 S
C543 C549 1.466 1_545 S
C544 H535 0.950 . S
C544 C543 1.398 1_655 S
C544 C545 1.391 . S
C545 H533 0.950 . S
C545 C541 1.393 . S
C545 C544 1.391 . S
C546 H536 0.950 . S
C546 C547 1.386 . S
C546 C548 1.391 . S
C547 C546 1.386 . S
C547 C551 1.393 . S
C548 H537 0.950 1_455 S
C548 C546 1.391 . S
C548 C549 1.420 . S
C549 C543 1.466 1_565 S
C549 C548 1.420 . S
C549 C550 1.404 . S
C550 H538 0.950 1_565 S
C550 C549 1.404 . S
C550 C551 1.391 . S
C551 H539 0.950 . S
C551 C547 1.393 . S
C551 C550 1.391 . S
H552 C560 0.950 . S
H553 C565 0.950 . S
H554 C562 0.950 1_455 S
H555 C564 0.962 . S
H556 C566 0.950 . S
H557 C568 0.950 . S
H558 C570 0.950 . S
H559 C571 0.950 . S
C560 H552 0.950 . S
C560 C561 1.386 . S
C560 C562 1.391 . S
C561 C560 1.386 . S
C561 C565 1.393 . S
C562 H554 0.950 1_655 S
C562 C560 1.391 . S
C562 C563 1.400 . S
C563 C562 1.400 . S
C563 C564 1.398 . S
C563 C569 1.491 1_655 S
C564 H555 0.962 . S
C564 C563 1.398 . S
C564 C565 1.391 . S
C565 H553 0.950 . S
C565 C561 1.393 . S
C565 C564 1.391 . S
C566 H556 0.950 . S
C566 C567 1.386 . S
C566 C568 1.391 . S
C567 C566 1.386 . S
C567 C571 1.393 1_565 S
C568 H557 0.950 . S
C568 C566 1.391 . S
C568 C569 1.400 1_565 S
C569 C563 1.491 1_455 S
C569 C568 1.400 1_545 S
C569 C570 1.398 . S
C570 H558 0.950 . S
C570 C569 1.398 . S
C570 C571 1.391 . S
C571 H559 0.950 . S
C571 C567 1.393 1_545 S
C571 C570 1.391 . S
H572 C580 0.950 . S
H573 C585 0.950 . S
H574 C582 0.950 1_545 S
H575 C584 0.950 . S
H576 C586 0.950 . S
H577 C588 0.950 . S
H578 C590 0.950 1_655 S
H579 C591 0.945 1_655 S
C580 H572 0.950 . S
C580 C581 1.386 . S
C580 C582 1.391 . S
C581 C580 1.386 . S
C581 C585 1.393 1_655 S
C582 H574 0.950 1_565 S
C582 C580 1.391 . S
C582 C583 1.400 1_655 S
C583 C582 1.400 1_455 S
C583 C584 1.398 . S
C583 C589 1.491 1_565 S
C584 H575 0.950 . S
C584 C583 1.398 . S
C584 C585 1.391 . S
C585 H573 0.950 . S
C585 C581 1.393 1_455 S
C585 C584 1.391 . S
C586 H576 0.950 . S
C586 C587 1.386 . S
C586 C588 1.391 . S
C587 C586 1.386 . S
C587 C591 1.393 . S
C588 H577 0.950 . S
C588 C586 1.391 . S
C588 C589 1.400 . S
C589 C583 1.491 1_545 S
C589 C588 1.400 . S
C589 C590 1.398 . S
C590 H578 0.950 1_455 S
C590 C589 1.398 . S
C590 C591 1.391 . S
C591 H579 0.945 1_455 S
C591 C587 1.393 . S
C591 C590 1.391 . S
H592 C600 0.950 1_565 S
H593 C605 0.950 . S
H594 C602 0.950 . S
H595 C604 0.950 . S
H596 C606 0.950 . S
H597 C608 0.950 . S
H598 C610 0.950 . S
H599 C611 0.950 . S
C600 H592 0.950 1_545 S
C600 C601 1.386 . S
C600 C602 1.391 1_545 S
C601 C600 1.386 . S
C601 C605 1.393 . S
C602 H594 0.950 . S
C602 C600 1.391 1_565 S
C602 C603 1.400 1_565 S
C603 C602 1.400 1_545 S
C603 C604 1.398 . S
C603 C609 1.491 . S
C604 H595 0.950 . S
C604 C603 1.398 . S
C604 C605 1.391 . S
C605 H593 0.950 . S
C605 C601 1.393 . S
C605 C604 1.391 . S
C606 H596 0.950 . S
C606 C607 1.386 1_545 S
C606 C608 1.391 . S
C607 C606 1.386 1_565 S
C607 C611 1.393 . S
C608 H597 0.950 . S
C608 C606 1.391 . S
C608 C609 1.400 . S
C609 C603 1.491 . S
C609 C608 1.400 . S
C609 C610 1.398 1_545 S
C610 H598 0.950 . S
C610 C609 1.398 1_565 S
C610 C611 1.391 . S
C611 H599 0.950 . S
C611 C607 1.393 . S
C611 C610 1.391 . S
H612 C620 0.950 . S
H613 C625 0.950 1_655 S
H614 C622 0.950 . S
H615 C624 0.955 . S
H616 C626 0.950 . S
H617 C628 0.950 . S
H618 C630 0.950 . S
H619 C631 0.950 . S
C620 H612 0.950 . S
C620 C621 1.386 . S
C620 C622 1.391 . S
C621 C620 1.386 . S
C621 C625 1.393 . S
C622 H614 0.950 . S
C622 C620 1.391 . S
C622 C623 1.400 . S
C623 C622 1.400 . S
C623 C624 1.395 1_455 S
C623 C629 1.491 . S
C624 H615 0.955 . S
C624 C623 1.395 1_655 S
C624 C625 1.389 1_655 S
C625 H613 0.950 1_455 S
C625 C621 1.393 . S
C625 C624 1.389 1_455 S
C626 H616 0.950 . S
C626 C627 1.386 . S
C626 C628 1.391 . S
C627 C626 1.386 . S
C627 C631 1.393 1_655 S
C628 H617 0.950 . S
C628 C626 1.391 . S
C628 C629 1.400 1_655 S
C629 C623 1.491 . S
C629 C628 1.400 1_455 S
C629 C630 1.398 . S
C630 H618 0.950 . S
C630 C629 1.398 . S
C630 C631 1.391 . S
C631 H619 0.950 . S
C631 C627 1.393 1_455 S
C631 C630 1.391 . S
H632 C640 0.950 . S
H633 C645 0.950 . S
H634 C642 0.950 . S
H635 C644 0.950 . S
H636 C646 0.950 1_565 S
H637 C648 0.950 . S
H638 C650 0.950 . S
H639 C651 0.950 . S
C640 H632 0.950 . S
C640 C641 1.386 1_545 S
C640 C642 1.391 . S
C641 C640 1.386 1_565 S
C641 C645 1.393 . S
C642 H634 0.950 . S
C642 C640 1.391 . S
C642 C643 1.400 . S
C643 C642 1.400 . S
C643 C644 1.398 1_545 S
C643 C649 1.491 . S
C644 H635 0.950 . S
C644 C643 1.398 1_565 S
C644 C645 1.391 . S
C645 H633 0.950 . S
C645 C641 1.393 . S
C645 C644 1.391 . S
C646 H636 0.950 1_545 S
C646 C647 1.386 . S
C646 C648 1.391 1_545 S
C647 C646 1.386 . S
C647 C651 1.393 . S
C648 H637 0.950 . S
C648 C646 1.391 1_565 S
C648 C649 1.400 1_565 S
C649 C643 1.491 . S
C649 C648 1.400 1_545 S
C649 C650 1.398 . S
C650 H638 0.950 . S
C650 C649 1.398 . S
C650 C651 1.391 . S
C651 H639 0.950 . S
C651 C647 1.393 . S
C651 C650 1.391 . S
H652 C660 0.950 . S
H653 C665 0.950 . S
H654 C662 0.950 . S
H655 C664 0.950 . S
H656 C666 0.950 . S
H657 C668 0.950 . S
H658 C670 0.950 . S
H659 C671 0.950 . S
C660 H652 0.950 . S
C660 C661 1.386 . S
C660 C662 1.391 . S
C661 C660 1.386 . S
C661 C665 1.393 . S
C662 H654 0.950 . S
C662 C660 1.391 . S
C662 C663 1.400 . S
C663 C662 1.400 . S
C663 C664 1.398 . S
C663 C669 1.491 . S
C664 H655 0.950 . S
C664 C663 1.398 . S
C664 C665 1.391 . S
C665 H653 0.950 . S
C665 C661 1.393 . S
C665 C664 1.391 . S
C666 H656 0.950 . S
C666 C667 1.386 1_455 S
C666 C668 1.391 . S
C667 C666 1.386 1_655 S
C667 C671 1.393 . S
C668 H657 0.950 . S
C668 C666 1.391 . S
C668 C669 1.400 . S
C669 C663 1.491 . S
C669 C668 1.400 . S
C669 C670 1.398 1_455 S
C670 H658 0.950 . S
C670 C669 1.398 1_655 S
C670 C671 1.391 . S
C671 H659 0.950 . S
C671 C667 1.393 . S
C671 C670 1.391 . S
C281 C20 1.693 . S
C287 C156 1.699 . S
C301 C190 1.702 . S
C307 C54 1.708 . S
C321 C88 1.693 . S
C327 C224 1.697 . S
C341 C258 1.696 . S
C347 C122 1.693 . S
C361 C172 1.167 . S
C367 C2 1.143 . S
C381 C206 1.134 . S
C387 C36 1.148 . S
C401 C70 1.164 . S
C407 C240 1.154 . S
C421 C138 1.146 . S
C427 C104 1.135 . S
C441 C135 1.274 . S
C447 C237 1.280 . S
C461 C33 1.286 . S
C467 C271 1.267 . S
C481 C67 1.282 . S
C487 C169 1.273 . S
C501 C101 1.287 . S
C507 C203 1.266 . S
C521 C5 0.280 . S
C527 C73 0.267 . S
C541 C39 0.311 . S
C547 C107 0.332 . S
C561 C209 0.282 . S
C567 C141 0.269 . S
C581 C243 0.316 . S
C587 C175 0.284 . S
C601 C9 1.319 . S
C607 C77 1.317 1_565 S
C621 C111 1.316 . S
C627 C43 1.316 1_655 S
C641 C145 1.318 1_565 S
C647 C213 1.318 . S
C661 C179 1.330 . S
C667 C247 1.328 1_655 S
