# Generated by pormake.
# Topology uno, (4)-cn, num edge types: 1
# Building blocks:
#     Node 0, Type 0, BuildingBlock: KOZSID_clean_sbu_0, # of connection points: 4
#     Node 1, Type 0, BuildingBlock: KOZSID_clean_sbu_0, # of connection points: 4
#     Node 2, Type 0, BuildingBlock: KOZSID_clean_sbu_0, # of connection points: 4
#     Node 3, Type 0, BuildingBlock: KOZSID_clean_sbu_0, # of connection points: 4
#     Node 4, Type 0, BuildingBlock: KOZSID_clean_sbu_0, # of connection points: 4
#     Node 5, Type 0, BuildingBlock: KOZSID_clean_sbu_0, # of connection points: 4
#     Node 6, Type 0, BuildingBlock: KOZSID_clean_sbu_0, # of connection points: 4
#     Node 7, Type 0, BuildingBlock: KOZSID_clean_sbu_0, # of connection points: 4
#     Node 8, Type 0, BuildingBlock: KOZSID_clean_sbu_0, # of connection points: 4
#     Node 9, Type 0, BuildingBlock: KOZSID_clean_sbu_0, # of connection points: 4
#     Node 10, Type 0, BuildingBlock: KOZSID_clean_sbu_0, # of connection points: 4
#     Node 11, Type 0, BuildingBlock: KOZSID_clean_sbu_0, # of connection points: 4
#     Node 12, Type 0, BuildingBlock: KOZSID_clean_sbu_0, # of connection points: 4
#     Node 13, Type 0, BuildingBlock: KOZSID_clean_sbu_0, # of connection points: 4
#     Node 14, Type 0, BuildingBlock: KOZSID_clean_sbu_0, # of connection points: 4
#     Node 15, Type 0, BuildingBlock: KOZSID_clean_sbu_0, # of connection points: 4
#     Node 16, Type 0, BuildingBlock: KOZSID_clean_sbu_0, # of connection points: 4
#     Node 17, Type 0, BuildingBlock: KOZSID_clean_sbu_0, # of connection points: 4
#     Node 18, Type 0, BuildingBlock: KOZSID_clean_sbu_0, # of connection points: 4
#     Node 19, Type 0, BuildingBlock: KOZSID_clean_sbu_0, # of connection points: 4
#     Node 20, Type 0, BuildingBlock: KOZSID_clean_sbu_0, # of connection points: 4
#     Node 21, Type 0, BuildingBlock: KOZSID_clean_sbu_0, # of connection points: 4
#     Node 22, Type 0, BuildingBlock: KOZSID_clean_sbu_0, # of connection points: 4
#     Node 23, Type 0, BuildingBlock: KOZSID_clean_sbu_0, # of connection points: 4
#     Edge 24, Type (0, 0), BuildingBlock: XIVTED_clean_linker_0, # of connection points: 2
#     Edge 25, Type (0, 0), BuildingBlock: XIVTED_clean_linker_0, # of connection points: 2
#     Edge 26, Type (0, 0), BuildingBlock: XIVTED_clean_linker_0, # of connection points: 2
#     Edge 27, Type (0, 0), BuildingBlock: XIVTED_clean_linker_0, # of connection points: 2
#     Edge 28, Type (0, 0), BuildingBlock: XIVTED_clean_linker_0, # of connection points: 2
#     Edge 29, Type (0, 0), BuildingBlock: XIVTED_clean_linker_0, # of connection points: 2
#     Edge 30, Type (0, 0), BuildingBlock: XIVTED_clean_linker_0, # of connection points: 2
#     Edge 31, Type (0, 0), BuildingBlock: XIVTED_clean_linker_0, # of connection points: 2
#     Edge 32, Type (0, 0), BuildingBlock: XIVTED_clean_linker_0, # of connection points: 2
#     Edge 33, Type (0, 0), BuildingBlock: XIVTED_clean_linker_0, # of connection points: 2
#     Edge 34, Type (0, 0), BuildingBlock: XIVTED_clean_linker_0, # of connection points: 2
#     Edge 35, Type (0, 0), BuildingBlock: XIVTED_clean_linker_0, # of connection points: 2
#     Edge 36, Type (0, 0), BuildingBlock: XIVTED_clean_linker_0, # of connection points: 2
#     Edge 37, Type (0, 0), BuildingBlock: XIVTED_clean_linker_0, # of connection points: 2
#     Edge 38, Type (0, 0), BuildingBlock: XIVTED_clean_linker_0, # of connection points: 2
#     Edge 39, Type (0, 0), BuildingBlock: XIVTED_clean_linker_0, # of connection points: 2
#     Edge 40, Type (0, 0), BuildingBlock: XIVTED_clean_linker_0, # of connection points: 2
#     Edge 41, Type (0, 0), BuildingBlock: XIVTED_clean_linker_0, # of connection points: 2
#     Edge 42, Type (0, 0), BuildingBlock: XIVTED_clean_linker_0, # of connection points: 2
#     Edge 43, Type (0, 0), BuildingBlock: XIVTED_clean_linker_0, # of connection points: 2
#     Edge 44, Type (0, 0), BuildingBlock: XIVTED_clean_linker_0, # of connection points: 2
#     Edge 45, Type (0, 0), BuildingBlock: XIVTED_clean_linker_0, # of connection points: 2
#     Edge 46, Type (0, 0), BuildingBlock: XIVTED_clean_linker_0, # of connection points: 2
#     Edge 47, Type (0, 0), BuildingBlock: XIVTED_clean_linker_0, # of connection points: 2
#     Edge 48, Type (0, 0), BuildingBlock: XIVTED_clean_linker_0, # of connection points: 2
#     Edge 49, Type (0, 0), BuildingBlock: XIVTED_clean_linker_0, # of connection points: 2
#     Edge 50, Type (0, 0), BuildingBlock: XIVTED_clean_linker_0, # of connection points: 2
#     Edge 51, Type (0, 0), BuildingBlock: XIVTED_clean_linker_0, # of connection points: 2
#     Edge 52, Type (0, 0), BuildingBlock: XIVTED_clean_linker_0, # of connection points: 2
#     Edge 53, Type (0, 0), BuildingBlock: XIVTED_clean_linker_0, # of connection points: 2
#     Edge 54, Type (0, 0), BuildingBlock: XIVTED_clean_linker_0, # of connection points: 2
#     Edge 55, Type (0, 0), BuildingBlock: XIVTED_clean_linker_0, # of connection points: 2
#     Edge 56, Type (0, 0), BuildingBlock: XIVTED_clean_linker_0, # of connection points: 2
#     Edge 57, Type (0, 0), BuildingBlock: XIVTED_clean_linker_0, # of connection points: 2
#     Edge 58, Type (0, 0), BuildingBlock: XIVTED_clean_linker_0, # of connection points: 2
#     Edge 59, Type (0, 0), BuildingBlock: XIVTED_clean_linker_0, # of connection points: 2
#     Edge 60, Type (0, 0), BuildingBlock: XIVTED_clean_linker_0, # of connection points: 2
#     Edge 61, Type (0, 0), BuildingBlock: XIVTED_clean_linker_0, # of connection points: 2
#     Edge 62, Type (0, 0), BuildingBlock: XIVTED_clean_linker_0, # of connection points: 2
#     Edge 63, Type (0, 0), BuildingBlock: XIVTED_clean_linker_0, # of connection points: 2
#     Edge 64, Type (0, 0), BuildingBlock: XIVTED_clean_linker_0, # of connection points: 2
#     Edge 65, Type (0, 0), BuildingBlock: XIVTED_clean_linker_0, # of connection points: 2
#     Edge 66, Type (0, 0), BuildingBlock: XIVTED_clean_linker_0, # of connection points: 2
#     Edge 67, Type (0, 0), BuildingBlock: XIVTED_clean_linker_0, # of connection points: 2
#     Edge 68, Type (0, 0), BuildingBlock: XIVTED_clean_linker_0, # of connection points: 2
#     Edge 69, Type (0, 0), BuildingBlock: XIVTED_clean_linker_0, # of connection points: 2
#     Edge 70, Type (0, 0), BuildingBlock: XIVTED_clean_linker_0, # of connection points: 2
#     Edge 71, Type (0, 0), BuildingBlock: XIVTED_clean_linker_0, # of connection points: 2
# Relax obj value: 0.387
# Max RMSD: 0.280
# Mean RMSD: 0.248
data_MOF--net-uno--node1-KOZSID_clean_sbu_0--edge1-XIVTED_clean_linker_0
_symmetry_space_group_name_H-M    P1
_symmetry_Int_Tables_number       1
_symmetry_cell_setting            triclinic
loop_
_symmetry_equiv_pos_as_xyz
'x, y, z'
_cell_length_a     64.988788
_cell_length_b     63.395365
_cell_length_c     63.52894
_cell_angle_alpha  89.802526
_cell_angle_beta   90.011576
_cell_angle_gamma 92.626091
loop_
_atom_site_label
_atom_site_type_symbol
_atom_site_fract_x
_atom_site_fract_y
_atom_site_fract_z
_atom_type_partial_charge
C0 C 0.0821 0.29532 0.23021 0.0
C1 C 0.06709 0.29138 0.21502 0.0
C2 C 0.06879 0.27071 0.20887 0.0
C3 C 0.08477 0.2632 0.2205 0.0
N4 N 0.09304 0.27791 0.23354 0.0
Co5 Co 0.11763 0.27491 0.2516 0.0
N6 N 0.1274 0.2513 0.23459 0.0
C7 C 0.11565 0.23931 0.2214 0.0
C8 C 0.12629 0.2234 0.21246 0.0
C9 C 0.1458 0.22542 0.22077 0.0
C10 C 0.14605 0.24255 0.23436 0.0
N11 N 0.14208 0.27242 0.26992 0.0
C12 C 0.1599 0.26284 0.26622 0.0
C13 C 0.17341 0.26587 0.28304 0.0
C14 C 0.16331 0.27702 0.29798 0.0
C15 C 0.14436 0.28046 0.28945 0.0
N16 N 0.10772 0.29842 0.26851 0.0
C17 C 0.11287 0.30308 0.2885 0.0
C18 C 0.10372 0.32083 0.29565 0.0
C19 C 0.09228 0.32775 0.279 0.0
C20 C 0.09522 0.31381 0.26262 0.0
N21 N 0.10219 0.25404 0.26919 0.0
C22 C 0.07971 0.21732 0.28155 0.0
C23 C 0.10121 0.21814 0.28166 0.0
C24 C 0.11208 0.23652 0.27558 0.0
C25 C 0.06964 0.23606 0.2776 0.0
C26 C 0.08125 0.25441 0.27159 0.0
N27 N 0.1333 0.29467 0.23336 0.0
C28 C 0.16342 0.31749 0.22751 0.0
C29 C 0.16192 0.31387 0.20579 0.0
C30 C 0.14493 0.30202 0.19813 0.0
C31 C 0.13104 0.29241 0.21208 0.0
C32 C 0.14855 0.30813 0.24105 0.0
H33 H 0.11943 0.2818 0.2055 0.0
H34 H 0.15015 0.31065 0.25777 0.0
H35 H 0.12849 0.23567 0.27428 0.0
H36 H 0.07321 0.26836 0.26738 0.0
C37 C 0.0957 0.24514 0.21589 0.0
C38 C 0.08573 0.31524 0.24179 0.0
C39 C 0.16336 0.24846 0.24851 0.0
C40 C 0.12986 0.29389 0.29773 0.0
H41 H 0.05637 0.30228 0.20866 0.0
H42 H 0.06038 0.26269 0.19631 0.0
H43 H 0.12068 0.21193 0.20099 0.0
H44 H 0.15825 0.21514 0.21753 0.0
H45 H 0.18879 0.26022 0.2846 0.0
H46 H 0.16933 0.28253 0.31297 0.0
H47 H 0.10617 0.32867 0.31061 0.0
H48 H 0.0832 0.34164 0.27876 0.0
H49 H 0.10963 0.2042 0.28524 0.0
H50 H 0.05299 0.23618 0.27777 0.0
H51 H 0.17633 0.32674 0.23397 0.0
H52 H 0.1433 0.29863 0.18149 0.0
C53 C 0.95262 0.76874 0.51996 0.0
C54 C 0.9521 0.75378 0.50408 0.0
C55 C 0.97168 0.75399 0.49564 0.0
C56 C 0.98306 0.76904 0.50675 0.0
N57 N 0.97175 0.77797 0.52169 0.0
Co58 Co 0.9805 0.80219 0.53965 0.0
N59 N 0.00252 0.81147 0.51992 0.0
C60 C 0.01069 0.79938 0.50497 0.0
C61 C 0.02626 0.80993 0.49405 0.0
C62 C 0.02805 0.8297 0.50291 0.0
C63 C 0.01344 0.83015 0.51884 0.0
N64 N 0.98871 0.82622 0.55807 0.0
C65 C 1.00016 0.84399 0.55355 0.0
C66 C 0.00223 0.85676 0.57126 0.0
C67 C 0.99195 0.84634 0.58735 0.0
C68 C 0.98414 0.82786 0.57868 0.0
N69 N 0.95856 0.79273 0.55925 0.0
C70 C 0.95731 0.79716 0.57984 0.0
C71 C 0.93945 0.78872 0.58876 0.0
C72 C 0.92891 0.77861 0.57262 0.0
C73 C 0.94101 0.7815 0.55483 0.0
N74 N 1.0005 0.7847 0.55404 0.0
C75 C 0.03421 0.75994 0.56247 0.0
C76 C 0.03614 0.7819 0.56354 0.0
C77 C 0.01932 0.79389 0.55911 0.0
C78 C 0.01458 0.75043 0.55892 0.0
C79 C 0.99774 0.76317 0.55533 0.0
N80 N 0.96157 0.81998 0.52434 0.0
C81 C 0.94751 0.85427 0.52079 0.0
C82 C 0.94804 0.85234 0.49882 0.0
C83 C 0.95274 0.83299 0.49016 0.0
C84 C 0.95995 0.81734 0.50303 0.0
C85 C 0.9536 0.83741 0.53338 0.0
H86 H 0.96627 0.8042 0.49513 0.0
H87 H 0.9537 0.83934 0.55024 0.0
H88 H 0.02232 0.81065 0.55808 0.0
H89 H 0.98285 0.75558 0.55215 0.0
C90 C 0.00149 0.77944 0.49992 0.0
C91 C 0.9354 0.77424 0.53368 0.0
C92 C 0.01163 0.84771 0.53381 0.0
C93 C 0.97004 0.81343 0.58836 0.0
H94 H 0.93907 0.74409 0.49871 0.0
H95 H 0.97648 0.74545 0.48189 0.0
H96 H 0.03495 0.80417 0.48091 0.0
H97 H 0.03905 0.84224 0.49839 0.0
H98 H 0.01072 0.87178 0.57259 0.0
H99 H 0.98999 0.85185 0.6033 0.0
H100 H 0.93396 0.79105 0.60463 0.0
H101 H 0.91382 0.77068 0.57358 0.0
H102 H 0.05102 0.78992 0.56612 0.0
H103 H 0.01243 0.73341 0.55828 0.0
H104 H 0.94378 0.86905 0.52805 0.0
H105 H 0.95356 0.83089 0.47325 0.0
C106 C 0.4414 0.70938 0.70898 0.0
C107 C 0.45262 0.71256 0.69058 0.0
C108 C 0.44806 0.73227 0.68317 0.0
C109 C 0.43426 0.73996 0.69731 0.0
N110 N 0.43012 0.72631 0.71312 0.0
Co111 Co 0.40936 0.72925 0.73554 0.0
N112 N 0.39393 0.74943 0.71861 0.0
C113 C 0.40174 0.76087 0.70231 0.0
C114 C 0.38802 0.77462 0.69431 0.0
C115 C 0.37068 0.77184 0.70652 0.0
C116 C 0.37471 0.75637 0.72137 0.0
N117 N 0.38872 0.7317 0.75818 0.0
C118 C 0.36951 0.73909 0.75733 0.0
C119 C 0.35984 0.73676 0.77678 0.0
C120 C 0.37384 0.72848 0.79031 0.0
C121 C 0.39115 0.72587 0.77842 0.0
N122 N 0.42499 0.70918 0.75219 0.0
C123 C 0.42439 0.70643 0.77315 0.0
C124 C 0.43616 0.69009 0.77961 0.0
C125 C 0.44436 0.68207 0.7615 0.0
C126 C 0.43705 0.69399 0.74505 0.0
N127 N 0.4256 0.75328 0.7474 0.0
C128 C 0.44739 0.7916 0.75545 0.0
C129 C 0.42599 0.78983 0.75752 0.0
C130 C 0.41547 0.77066 0.75361 0.0
C131 C 0.45792 0.77328 0.75098 0.0
C132 C 0.44669 0.75419 0.74701 0.0
N133 N 0.39295 0.70588 0.72328 0.0
C134 C 0.37022 0.67497 0.7265 0.0
C135 C 0.36712 0.67488 0.70467 0.0
C136 C 0.37769 0.69017 0.69239 0.0
C137 C 0.39027 0.70556 0.70196 0.0
C138 C 0.3835 0.69049 0.73549 0.0
H139 H 0.39736 0.71762 0.69206 0.0
H140 H 0.38572 0.69038 0.75232 0.0
H141 H 0.39895 0.7704 0.75443 0.0
H142 H 0.45495 0.74047 0.7426 0.0
C143 C 0.42087 0.75631 0.69341 0.0
C144 C 0.44147 0.69064 0.72273 0.0
C145 C 0.3611 0.75074 0.73935 0.0
C146 C 0.40847 0.71499 0.78478 0.0
H147 H 0.46258 0.70179 0.68293 0.0
H148 H 0.45294 0.73931 0.66834 0.0
H149 H 0.39021 0.7852 0.68101 0.0
H150 H 0.35692 0.78069 0.70498 0.0
H151 H 0.34442 0.74097 0.78093 0.0
H152 H 0.3714 0.72423 0.80666 0.0
H153 H 0.43728 0.68361 0.79534 0.0
H154 H 0.45401 0.66864 0.7604 0.0
H155 H 0.41727 0.80343 0.76151 0.0
H156 H 0.47454 0.77393 0.74955 0.0
H157 H 0.36219 0.66344 0.7365 0.0
H158 H 0.37537 0.69101 0.67553 0.0
C159 C 0.56428 0.24379 0.99843 0.0
C160 C 0.56352 0.25832 0.98217 0.0
C161 C 0.54354 0.25722 0.97477 0.0
C162 C 0.53325 0.24212 0.98694 0.0
N163 N 0.54559 0.23393 0.00154 0.0
Co164 Co 0.53847 0.21012 0.0209 0.0
N165 N 0.51495 0.20023 0.00335 0.0
C166 C 0.50558 0.21183 0.98868 0.0
C167 C 0.48908 0.20102 0.97959 0.0
C168 C 0.48797 0.1816 0.98932 0.0
C169 C 0.50389 0.18161 0.0039 0.0
N170 N 0.53221 0.18623 0.04039 0.0
C171 C 0.52061 0.16828 0.03723 0.0
C172 C 0.52034 0.15567 0.05523 0.0
C173 C 0.53188 0.16638 0.07013 0.0
C174 C 0.5386 0.18482 0.06051 0.0
N175 N 0.56182 0.22033 0.03854 0.0
C176 C 0.56467 0.21606 0.05905 0.0
C177 C 0.58288 0.22488 0.06664 0.0
C178 C 0.59205 0.23513 0.04978 0.0
C179 C 0.57879 0.23206 0.03282 0.0
N180 N 0.51912 0.22776 0.03642 0.0
C181 C 0.48261 0.2496 0.04116 0.0
C182 C 0.48393 0.22878 0.04828 0.0
C183 C 0.50191 0.2181 0.04531 0.0
C184 C 0.5012 0.26031 0.03522 0.0
C185 C 0.51946 0.24924 0.0338 0.0
N186 N 0.55634 0.19217 0.00445 0.0
C187 C 0.57092 0.15812 1.00058 0.0
C188 C 0.56854 0.15943 0.97869 0.0
C189 C 0.56232 0.17826 0.96996 0.0
C190 C 0.5559 0.19412 0.98298 0.0
C191 C 0.56546 0.17516 0.0132 0.0
H192 H 0.54865 0.20687 0.97529 0.0
H193 H 0.56692 0.17372 0.03006 0.0
H194 H 0.50072 0.2015 0.04854 0.0
H195 H 0.5333 0.25779 0.02861 0.0
C196 C 0.51438 0.23148 0.982 0.0
C197 C 0.58246 0.23999 0.01138 0.0
C198 C 0.50724 0.16431 0.01889 0.0
C199 C 0.55305 0.19964 0.06874 0.0
H200 H 0.57613 0.26832 0.97614 0.0
H201 H 0.53767 0.26538 0.96119 0.0
H202 H 0.47935 0.20637 0.967 0.0
H203 H 0.47666 0.16895 0.98617 0.0
H204 H 0.51213 0.14062 0.05761 0.0
H205 H 0.53528 0.16113 0.08593 0.0
H206 H 0.58949 0.22276 0.0821 0.0
H207 H 0.60698 0.24334 0.05002 0.0
H208 H 0.47072 0.22003 0.05479 0.0
H209 H 0.50159 0.2767 0.03039 0.0
H210 H 0.5759 0.14376 0.00788 0.0
H211 H 0.56008 0.17985 0.95312 0.0
C212 C 0.98765 0.98195 0.30566 0.0
C213 C 0.96816 0.98411 0.29738 0.0
C214 C 0.95999 1.00099 0.30769 0.0
C215 C 0.97494 0.00822 0.32164 0.0
N216 N 0.99186 0.99686 0.32039 0.0
Co217 Co 0.01608 0.99924 0.33889 0.0
N218 N 1.00051 0.01283 0.3613 0.0
C219 C 0.98274 0.02259 0.3589 0.0
C220 C 0.97525 0.02928 0.37794 0.0
C221 C 0.98929 0.02328 0.39293 0.0
C222 C 0.00455 0.01323 0.38218 0.0
N223 N 0.0406 0.00163 0.35691 0.0
C224 C 0.04154 0.00396 0.37791 0.0
C225 C 0.06186 0.00539 0.38471 0.0
C226 C 0.07392 0.00391 0.36701 0.0
C227 C 0.06032 0.00167 0.3505 0.0
N228 N 0.03163 0.98552 0.31667 0.0
C229 C 0.05216 0.98686 0.31392 0.0
C230 C 0.05825 0.97471 0.29737 0.0
C231 C 0.04042 0.96519 0.28947 0.0
C232 C 0.02437 0.97217 0.30165 0.0
N233 N 0.02352 0.02718 0.32704 0.0
C234 C 0.03085 0.06853 0.3119 0.0
C235 C 0.03277 0.06383 0.33332 0.0
C236 C 0.02912 0.04323 0.3405 0.0
C237 C 0.02578 0.05185 0.29804 0.0
C238 C 0.02211 0.03128 0.30594 0.0
N239 N 0.00811 0.97185 0.35139 0.0
C240 C 0.01652 0.94066 0.37072 0.0
C241 C 0.9959 0.93776 0.3772 0.0
C242 C 0.98147 0.9513 0.3692 0.0
C243 C 0.98784 0.96814 0.35653 0.0
C244 C 0.02228 0.95776 0.35752 0.0
H245 H 0.97634 0.97895 0.35209 0.0
H246 H 0.0383 0.96032 0.35326 0.0
H247 H 0.03048 0.04041 0.35717 0.0
H248 H 0.01775 0.01875 0.29511 0.0
C249 C 0.97169 0.02062 0.33974 0.0
C250 C 0.00238 0.96627 0.2991 0.0
C251 C 0.02336 0.0051 0.3914 0.0
C252 C 0.06503 0.99529 0.32993 0.0
H253 H 0.96058 0.97428 0.28555 0.0
H254 H 0.94441 0.0062 0.30631 0.0
H255 H 0.96077 0.03654 0.38079 0.0
H256 H 0.98837 0.02586 0.40972 0.0
H257 H 0.06734 0.00712 0.40072 0.0
H258 H 0.09054 0.0034 0.36644 0.0
H259 H 0.07385 0.97194 0.2925 0.0
H260 H 0.03961 0.9542 0.27653 0.0
H261 H 0.03716 0.07601 0.34459 0.0
H262 H 0.02418 0.05473 0.28132 0.0
H263 H 0.02815 0.93042 0.37652 0.0
H264 H 0.96545 0.94992 0.37394 0.0
C265 C 0.19387 0.71737 0.55557 0.0
C266 C 0.19508 0.73887 0.55142 0.0
C267 C 0.21411 0.74617 0.55803 0.0
C268 C 0.22339 0.72875 0.56578 0.0
N269 N 0.21155 0.7108 0.56449 0.0
Co270 Co 0.21899 0.68205 0.57456 0.0
N271 N 0.24583 0.69326 0.58646 0.0
C272 C 0.25392 0.7131 0.58445 0.0
C273 C 0.27319 0.71595 0.59306 0.0
C274 C 0.27769 0.69666 0.60101 0.0
C275 C 0.26084 0.68311 0.59671 0.0
N276 N 0.22565 0.65347 0.58564 0.0
C277 C 0.24152 0.64746 0.59787 0.0
C278 C 0.24014 0.62599 0.6022 0.0
C279 C 0.22289 0.61811 0.59215 0.0
C280 C 0.2148 0.63518 0.58238 0.0
N281 N 0.19271 0.67073 0.5614 0.0
C282 C 0.18653 0.6502 0.55991 0.0
C283 C 0.1683 0.64682 0.54941 0.0
C284 C 0.16236 0.66642 0.54391 0.0
C285 C 0.17745 0.68079 0.55129 0.0
N286 N 0.23412 0.67718 0.54798 0.0
C287 C 0.26745 0.68545 0.52075 0.0
C288 C 0.26756 0.66857 0.5349 0.0
C289 C 0.25075 0.66459 0.54822 0.0
C290 C 0.24904 0.69576 0.51804 0.0
C291 C 0.23222 0.69069 0.53126 0.0
N292 N 0.20502 0.68786 0.60149 0.0
C293 C 0.18366 0.714 0.61604 0.0
C294 C 0.19887 0.719 0.63101 0.0
C295 C 0.2142 0.70459 0.63423 0.0
C296 C 0.21646 0.68852 0.61959 0.0
C297 C 0.1868 0.69778 0.60167 0.0
H298 H 0.2291 0.67861 0.62178 0.0
H299 H 0.17549 0.69481 0.58972 0.0
H300 H 0.25249 0.65252 0.55978 0.0
H301 H 0.21841 0.69909 0.52888 0.0
C302 C 0.24284 0.72874 0.57486 0.0
C303 C 0.17567 0.70382 0.55044 0.0
C304 C 0.25914 0.66115 0.60398 0.0
C305 C 0.19722 0.63464 0.57 0.0
H306 H 0.1834 0.74821 0.54428 0.0
H307 H 0.22036 0.76227 0.55741 0.0
H308 H 0.28274 0.73038 0.59365 0.0
H309 H 0.29167 0.69304 0.60926 0.0
H310 H 0.25085 0.61691 0.61112 0.0
H311 H 0.21709 0.60183 0.59178 0.0
H312 H 0.15995 0.63191 0.5467 0.0
H313 H 0.14817 0.66947 0.53588 0.0
H314 H 0.28127 0.6597 0.5371 0.0
H315 H 0.24797 0.7083 0.50652 0.0
H316 H 0.17047 0.72368 0.61442 0.0
H317 H 0.22572 0.70699 0.64641 0.0
C318 C 0.53705 0.02624 0.78572 0.0
C319 C 0.5567 0.02385 0.77797 0.0
C320 C 0.56413 0.00639 0.78804 0.0
C321 C 0.54859 0.99909 0.80133 0.0
N322 N 0.53202 0.01096 0.79993 0.0
Co323 Co 0.50706 0.00829 0.81741 0.0
N324 N 0.52147 0.99321 0.83976 0.0
C325 C 0.53903 0.98305 0.83756 0.0
C326 C 0.54544 0.97477 0.85641 0.0
C327 C 0.53091 0.98013 0.87109 0.0
C328 C 0.51645 0.99143 0.86036 0.0
N329 N 0.48184 0.00563 0.8344 0.0
C330 C 0.48001 0.00243 0.85525 0.0
C331 C 0.45939 0.00127 0.86114 0.0
C332 C 0.44812 0.00384 0.84307 0.0
C333 C 0.46241 0.0064 0.82723 0.0
N334 N 0.49266 0.02344 0.79519 0.0
C335 C 0.47226 0.02271 0.79163 0.0
C336 C 0.46703 0.03563 0.77525 0.0
C337 C 0.48531 0.04498 0.76827 0.0
C338 C 0.50074 0.03712 0.78079 0.0
N339 N 0.49952 0.98112 0.80414 0.0
C340 C 0.49272 0.94052 0.78729 0.0
C341 C 0.49833 0.95776 0.77421 0.0
C342 C 0.50176 0.97796 0.78298 0.0
C343 C 0.4898 0.94429 0.80872 0.0
C344 C 0.49315 0.96455 0.81676 0.0
N345 N 0.51509 0.03488 0.83141 0.0
C346 C 0.50631 0.06462 0.85255 0.0
C347 C 0.52678 0.0671 0.85951 0.0
C348 C 0.54137 0.05407 0.85105 0.0
C349 C 0.53524 0.03807 0.83727 0.0
C350 C 0.50084 0.04859 0.83811 0.0
H351 H 0.54677 0.02745 0.83252 0.0
H352 H 0.48494 0.04653 0.83327 0.0
H353 H 0.50668 0.99091 0.7728 0.0
H354 H 0.49105 0.96663 0.83343 0.0
C355 C 0.55086 0.9857 0.81896 0.0
C356 C 0.5229 0.04241 0.77901 0.0
C357 C 0.49756 0.99959 0.86936 0.0
C358 C 0.45864 0.01384 0.80678 0.0
H359 H 0.56484 0.03384 0.76658 0.0
H360 H 0.57955 1.00074 0.78692 0.0
H361 H 0.55951 0.96678 0.8594 0.0
H362 H 0.531 0.97631 0.88771 0.0
H363 H 0.45313 0.99893 0.8768 0.0
H364 H 0.43157 0.00481 0.84185 0.0
H365 H 0.4517 0.03893 0.76988 0.0
H366 H 0.48685 0.05641 0.75567 0.0
H367 H 0.50062 0.95556 0.75749 0.0
H368 H 0.48497 0.9316 0.81934 0.0
H369 H 0.49459 0.07457 0.85861 0.0
H370 H 0.5573 0.05523 0.85613 0.0
C371 C 0.32296 0.29304 0.01526 0.0
C372 C 0.32278 0.27732 1.00017 0.0
C373 C 0.30269 0.26935 0.99887 0.0
C374 C 0.29177 0.28066 0.01321 0.0
N375 N 0.30387 0.29521 0.02319 0.0
Co376 Co 0.29558 0.31375 0.04633 0.0
N377 N 0.27142 0.29513 0.0533 0.0
C378 C 0.26251 0.28052 0.04047 0.0
C379 C 0.24571 0.27021 0.04962 0.0
C380 C 0.24398 0.27907 0.06926 0.0
C381 C 0.25983 0.2944 0.07101 0.0
N382 N 0.28783 0.33263 0.06942 0.0
C383 C 0.27534 0.32854 0.08606 0.0
C384 C 0.27383 0.34647 0.09842 0.0
C385 C 0.28572 0.36223 0.08895 0.0
C386 C 0.29378 0.35315 0.0714 0.0
N387 N 0.31971 0.33238 0.03915 0.0
C388 C 0.32234 0.35298 0.04386 0.0
C389 C 0.3412 0.36134 0.03752 0.0
C390 C 0.35097 0.34492 0.02842 0.0
C391 C 0.33741 0.32737 0.0296 0.0
N392 N 0.27791 0.32899 0.02673 0.0
C393 C 0.24483 0.33376 0.99912 0.0
C394 C 0.24276 0.33777 0.02058 0.0
C395 C 0.25929 0.33514 0.03405 0.0
C396 C 0.26455 0.33008 0.99132 0.0
C397 C 0.28113 0.32858 0.00542 0.0
N398 N 0.31192 0.29753 0.06607 0.0
C399 C 0.32498 0.29341 0.1013 0.0
C400 C 0.32276 0.27141 0.09934 0.0
C401 C 0.317 0.26288 0.07994 0.0
C402 C 0.31128 0.27605 0.0638 0.0
C403 C 0.32015 0.30627 0.08407 0.0
H404 H 0.30456 0.26842 0.05026 0.0
H405 H 0.32152 0.32319 0.08592 0.0
H406 H 0.25592 0.33576 0.05056 0.0
H407 H 0.29602 0.325 0.99917 0.0
C408 C 0.27226 0.27479 0.0216 0.0
C409 C 0.34115 0.30613 0.02161 0.0
C410 C 0.26285 0.30885 0.089 0.0
C411 C 0.3094 0.36214 0.05855 0.0
H412 H 0.33582 0.27199 0.9914 0.0
H413 H 0.2971 0.25594 0.98967 0.0
H414 H 0.23627 0.25731 0.04314 0.0
H415 H 0.23235 0.27479 0.08089 0.0
H416 H 0.26476 0.34815 0.11256 0.0
H417 H 0.28859 0.3782 0.09456 0.0
H418 H 0.3477 0.37707 0.0405 0.0
H419 H 0.36639 0.346 0.02214 0.0
H420 H 0.22785 0.3407 0.02734 0.0
H421 H 0.26689 0.32735 0.97469 0.0
H422 H 0.32954 0.30053 0.11616 0.0
H423 H 0.31488 0.24594 0.07787 0.0
C424 C 0.31384 0.06669 0.21402 0.0
C425 C 0.33486 0.06397 0.21341 0.0
C426 C 0.3433 0.07546 0.22976 0.0
C427 C 0.32707 0.0847 0.23939 0.0
N428 N 0.30875 0.07906 0.23046 0.0
Co429 Co 0.28147 0.09103 0.23675 0.0
N430 N 0.2945 0.11476 0.2534 0.0
C431 C 0.31472 0.11785 0.25798 0.0
C432 C 0.31929 0.13705 0.26724 0.0
C433 C 0.30096 0.14693 0.26805 0.0
C434 C 0.28625 0.13309 0.25932 0.0
N435 N 0.25407 0.10223 0.24333 0.0
C436 C 0.24953 0.12089 0.2519 0.0
C437 C 0.22839 0.12278 0.25366 0.0
C438 C 0.21933 0.10475 0.24546 0.0
C439 C 0.23538 0.09293 0.23921 0.0
N440 N 0.26857 0.06826 0.21887 0.0
C441 C 0.24829 0.06343 0.2162 0.0
C442 C 0.24431 0.04839 0.20106 0.0
C443 C 0.26318 0.04403 0.19305 0.0
C444 C 0.27752 0.05673 0.20385 0.0
N445 N 0.27883 0.07299 0.26289 0.0
C446 C 0.27132 0.05549 0.30357 0.0
C447 C 0.25766 0.05131 0.2869 0.0
C448 C 0.2618 0.05991 0.26683 0.0
C449 C 0.28962 0.06689 0.29894 0.0
C450 C 0.29308 0.07517 0.27878 0.0
N451 N 0.28421 0.10954 0.21169 0.0
C452 C 0.26938 0.1334 0.18671 0.0
C453 C 0.28896 0.14247 0.18221 0.0
C454 C 0.306 0.13395 0.1917 0.0
C455 C 0.30333 0.11782 0.20631 0.0
C456 C 0.2674 0.11657 0.20117 0.0
H457 H 0.31703 0.11311 0.21381 0.0
H458 H 0.25218 0.10993 0.20431 0.0
H459 H 0.25072 0.05604 0.25502 0.0
H460 H 0.30731 0.08366 0.27685 0.0
C461 C 0.3291 0.10322 0.25153 0.0
C462 C 0.29915 0.05921 0.19784 0.0
C463 C 0.2647 0.13795 0.25631 0.0
C464 C 0.23347 0.07524 0.22614 0.0
H465 H 0.34344 0.05574 0.20169 0.0
H466 H 0.35956 0.07861 0.23272 0.0
H467 H 0.33429 0.1435 0.27196 0.0
H468 H 0.29871 0.16267 0.27391 0.0
H469 H 0.22031 0.1362 0.25929 0.0
H470 H 0.20304 0.10133 0.24304 0.0
H471 H 0.22942 0.04238 0.19552 0.0
H472 H 0.26603 0.03365 0.17998 0.0
H473 H 0.24341 0.04212 0.28941 0.0
H474 H 0.30125 0.06974 0.31095 0.0
H475 H 0.25578 0.13943 0.17941 0.0
H476 H 0.32143 0.14054 0.18879 0.0
C477 C 0.20732 0.9738 0.53147 0.0
C478 C 0.22084 0.95752 0.53128 0.0
C479 C 0.21927 0.94841 0.51157 0.0
C480 C 0.20494 0.95966 0.50083 0.0
N481 N 0.19763 0.97511 0.51273 0.0
Co482 Co 0.17625 0.99437 0.50434 0.0
N483 N 0.16477 0.9743 0.48342 0.0
C484 C 0.17557 0.95966 0.47365 0.0
C485 C 0.16476 0.9505 0.45725 0.0
C486 C 0.14608 0.96001 0.457 0.0
C487 C 0.14607 0.9739 0.47393 0.0
N488 N 0.15544 0.01419 0.49577 0.0
C489 C 0.13805 0.01036 0.48464 0.0
C490 C 0.13004 0.02927 0.47807 0.0
C491 C 0.14238 0.04528 0.48661 0.0
C492 C 0.15759 0.03531 0.49723 0.0
N493 N 0.1876 0.01423 0.52549 0.0
C494 C 0.18557 0.03522 0.52555 0.0
C495 C 0.1941 0.04454 0.54321 0.0
C496 C 0.2019 0.02831 0.55478 0.0
C497 C 0.1979 0.0099 0.54338 0.0
N498 N 0.19473 0.00668 0.48246 0.0
C499 C 0.22019 0.01724 0.44796 0.0
C500 C 0.1989 0.01497 0.44564 0.0
C501 C 0.18657 0.00984 0.46289 0.0
C502 C 0.22859 0.01546 0.46824 0.0
C503 C 0.21551 0.0101 0.48539 0.0
N504 N 0.1573 0.98143 0.52507 0.0
C505 C 0.12414 0.98193 0.54191 0.0
C506 C 0.12289 0.95978 0.54223 0.0
C507 C 0.14 0.94892 0.53584 0.0
C508 C 0.15683 0.95993 0.5271 0.0
C509 C 0.14188 0.99252 0.53381 0.0
H510 H 0.16845 0.95067 0.5201 0.0
H511 H 0.14235 0.00955 0.53297 0.0
H512 H 0.17038 0.0074 0.45992 0.0
H513 H 0.2222 0.00791 0.50078 0.0
C514 C 0.1946 0.95359 0.48206 0.0
C515 C 0.20456 0.98862 0.54895 0.0
C516 C 0.12994 0.98894 0.4792 0.0
C517 C 0.17215 0.0446 0.51122 0.0
H518 H 0.23064 0.9527 0.54403 0.0
H519 H 0.22681 0.93454 0.50622 0.0
H520 H 0.16983 0.93849 0.44662 0.0
H521 H 0.13465 0.95781 0.44478 0.0
H522 H 0.11672 0.03133 0.46818 0.0
H523 H 0.14021 0.06207 0.48556 0.0
H524 H 0.19367 0.06094 0.54777 0.0
H525 H 0.20939 0.03005 0.56988 0.0
H526 H 0.19177 0.01655 0.43032 0.0
H527 H 0.24507 0.0173 0.47066 0.0
H528 H 0.11124 0.99088 0.54696 0.0
H529 H 0.13963 0.93182 0.5356 0.0
C530 C 0.22371 0.94347 0.71597 0.0
C531 C 0.20389 0.95002 0.7189 0.0
C532 C 0.19659 0.9402 0.73705 0.0
C533 C 0.21237 0.92825 0.74421 0.0
N534 N 0.22897 0.93024 0.73162 0.0
Co535 Co 0.2543 0.91456 0.73411 0.0
N536 N 0.24029 0.89187 0.75075 0.0
C537 C 0.22256 0.89335 0.76141 0.0
C538 C 0.21653 0.87452 0.77094 0.0
C539 C 0.23149 0.86061 0.7659 0.0
C540 C 0.24584 0.87174 0.75353 0.0
N541 N 0.27992 0.89935 0.73655 0.0
C542 C 0.28225 0.87877 0.74076 0.0
C543 C 0.30301 0.87439 0.74127 0.0
C544 C 0.31384 0.89311 0.73722 0.0
C545 C 0.29917 0.90782 0.73451 0.0
N546 N 0.26825 0.93712 0.71736 0.0
C547 C 0.2886 0.94199 0.71695 0.0
C548 C 0.29358 0.95787 0.70282 0.0
C549 C 0.27522 0.96313 0.69387 0.0
C550 C 0.25995 0.95018 0.70318 0.0
N551 N 0.26132 0.92946 0.76044 0.0
C552 C 0.26606 0.94746 0.80061 0.0
C553 C 0.27035 0.92639 0.79705 0.0
C554 C 0.268 0.9178 0.77705 0.0
C555 C 0.2604 0.9598 0.78329 0.0
C556 C 0.25803 0.95044 0.76328 0.0
N557 N 0.24683 0.89876 0.70861 0.0
C558 C 0.25722 0.8738 0.68268 0.0
C559 C 0.23743 0.86406 0.68312 0.0
C560 C 0.22195 0.87363 0.69424 0.0
C561 C 0.22692 0.89098 0.70679 0.0
C562 C 0.26156 0.89152 0.69541 0.0
H563 H 0.21493 0.89645 0.71673 0.0
H564 H 0.27718 0.89805 0.69609 0.0
H565 H 0.2709 0.90131 0.77531 0.0
H566 H 0.25293 0.95992 0.75028 0.0
C567 C 0.21038 0.91104 0.75839 0.0
C568 C 0.23772 0.95041 0.69884 0.0
C569 C 0.26512 0.86358 0.74539 0.0
C570 C 0.30247 0.92814 0.7259 0.0
H571 H 0.19554 0.96044 0.70881 0.0
H572 H 0.18112 0.94054 0.7433 0.0
H573 H 0.20247 0.87098 0.77963 0.0
H574 H 0.23179 0.84422 0.77067 0.0
H575 H 0.30963 0.85931 0.74419 0.0
H576 H 0.33035 0.89543 0.73545 0.0
H577 H 0.30883 0.96392 0.69845 0.0
H578 H 0.27356 0.97483 0.68168 0.0
H579 H 0.27529 0.91638 0.80979 0.0
H580 H 0.25713 0.97626 0.78533 0.0
H581 H 0.26953 0.86683 0.674 0.0
H582 H 0.20643 0.86663 0.6947 0.0
C583 C 0.31709 0.0366 0.02587 0.0
C584 C 0.30465 0.05352 0.02278 0.0
C585 C 0.30751 0.05993 0.00216 0.0
C586 C 0.32156 0.04668 0.9938 0.0
N587 N 0.32744 0.03237 0.00796 0.0
Co588 Co 0.34931 0.01203 0.0041 0.0
N589 N 0.3624 0.02894 0.98126 0.0
C590 C 0.35313 0.04363 0.96975 0.0
C591 C 0.36583 0.05228 0.95441 0.0
C592 C 0.38404 0.0422 0.95636 0.0
C593 C 0.38151 0.02793 0.97292 0.0
N594 N 0.3709 0.99132 1.00076 0.0
C595 C 0.38969 0.99382 0.99174 0.0
C596 C 0.40061 0.97561 0.99425 0.0
C597 C 0.38779 0.96111 0.0044 0.0
C598 C 0.36991 0.97125 0.00788 0.0
N599 N 0.33609 0.99529 0.0269 0.0
C600 C 0.33788 0.97461 0.0307 0.0
C601 C 0.32722 0.96796 0.04842 0.0
C602 C 0.31843 0.98568 0.05618 0.0
C603 C 0.32431 0.0021 0.04272 0.0
N604 N 0.33244 0.99687 0.98274 0.0
C605 C 0.30978 0.98568 0.94647 0.0
C606 C 0.33119 0.9846 0.94691 0.0
C607 C 0.34213 0.99019 0.965 0.0
C608 C 0.29969 0.99051 0.96532 0.0
C609 C 0.31135 0.99595 0.98339 0.0
N610 N 0.36667 0.02791 0.02431 0.0
C611 C 0.39787 0.0301 0.04481 0.0
C612 C 0.39923 0.05205 0.04186 0.0
C613 C 0.38299 0.06173 0.03197 0.0
C614 C 0.36715 0.04946 0.02305 0.0
C615 C 0.38097 0.01833 0.03645 0.0
H616 H 0.35646 0.0576 0.01346 0.0
H617 H 0.38037 0.00139 0.03838 0.0
H618 H 0.35864 0.99051 0.9639 0.0
H619 H 0.30339 1.00063 0.99743 0.0
C620 C 0.33379 0.05085 0.97583 0.0
C621 C 0.31897 0.02411 0.04536 0.0
C622 C 0.39658 0.01219 0.97882 0.0
C623 C 0.35372 0.96392 0.02102 0.0
H624 H 0.29495 0.0609 0.03413 0.0
H625 H 0.30136 0.07371 0.99478 0.0
H626 H 0.36248 0.06476 0.94344 0.0
H627 H 0.39749 0.04481 0.94649 0.0
H628 H 0.41614 0.97292 0.98913 0.0
H629 H 0.39144 0.94539 0.00945 0.0
H630 H 0.32716 0.95253 0.05576 0.0
H631 H 0.30933 0.98662 0.07039 0.0
H632 H 0.33966 0.98023 0.93302 0.0
H633 H 0.28308 0.99116 0.96582 0.0
H634 H 0.41014 0.0221 0.05259 0.0
H635 H 0.38355 0.07863 0.02917 0.0
C636 C 0.74684 0.23017 0.97859 0.0
C637 C 0.74231 0.2106 0.98759 0.0
C638 C 0.75602 0.1971 0.97927 0.0
C639 C 0.76811 0.20917 0.96567 0.0
N640 N 0.76328 0.22971 0.96549 0.0
Co641 Co 0.77401 0.25238 0.94593 0.0
N642 N 0.78739 0.23147 0.92754 0.0
C643 C 0.78876 0.21056 0.93114 0.0
C644 C 0.79684 0.20008 0.91436 0.0
C645 C 0.80049 0.2152 0.89914 0.0
C646 C 0.79449 0.23403 0.90761 0.0
N647 N 0.78476 0.27522 0.92676 0.0
C648 C 0.79519 0.27363 0.90855 0.0
C649 C 0.80143 0.29346 0.90079 0.0
C650 C 0.79407 0.30797 0.91436 0.0
C651 C 0.78394 0.29627 0.92962 0.0
N652 N 0.75982 0.27313 0.96382 0.0
C653 C 0.7611 0.29441 0.9622 0.0
C654 C 0.74748 0.3042 0.97495 0.0
C655 C 0.7363 0.28819 0.98464 0.0
C656 C 0.74388 0.26945 0.97731 0.0
N657 N 0.80026 0.25607 0.96255 0.0
C658 C 0.84332 0.26163 0.96811 0.0
C659 C 0.83074 0.27894 0.96798 0.0
C660 C 0.80932 0.27575 0.966 0.0
C661 C 0.83358 0.24153 0.96876 0.0
C662 C 0.81219 0.23918 0.96641 0.0
N663 N 0.74885 0.2485 0.92867 0.0
C664 C 0.72477 0.26165 0.90335 0.0
C665 C 0.71796 0.24095 0.89833 0.0
C666 C 0.72591 0.22439 0.90978 0.0
C667 C 0.74116 0.22846 0.92468 0.0
C668 C 0.74008 0.26509 0.91875 0.0
H669 H 0.74721 0.21498 0.93207 0.0
H670 H 0.74531 0.28109 0.92189 0.0
H671 H 0.80056 0.28949 0.96651 0.0
H672 H 0.80591 0.22347 0.96682 0.0
C673 C 0.77978 0.20098 0.94916 0.0
C674 C 0.73431 0.24852 0.98149 0.0
C675 C 0.79593 0.25414 0.89646 0.0
C676 C 0.77243 0.30442 0.94603 0.0
H677 H 0.72967 0.20636 0.9981 0.0
H678 H 0.75583 0.18013 0.98133 0.0
H679 H 0.79894 0.1833 0.91297 0.0
H680 H 0.80662 0.21273 0.88355 0.0
H681 H 0.80971 0.29722 0.88643 0.0
H682 H 0.79536 0.32499 0.91288 0.0
H683 H 0.74484 0.32091 0.97581 0.0
H684 H 0.72334 0.29026 0.99494 0.0
H685 H 0.8374 0.29489 0.96895 0.0
H686 H 0.84245 0.22751 0.96985 0.0
H687 H 0.71882 0.275 0.89502 0.0
H688 H 0.72133 0.2081 0.90643 0.0
C689 C 0.04478 0.47796 0.20068 0.0
C690 C 0.06523 0.48306 0.19591 0.0
C691 C 0.06519 0.49951 0.18158 0.0
C692 C 0.04479 0.50359 0.17835 0.0
N693 N 0.0323 0.49075 0.19001 0.0
Co694 Co 0.002 0.48872 0.18873 0.0
N695 N 0.00173 0.5008 0.1602 0.0
C696 C 0.01702 0.51269 0.15127 0.0
C697 C 0.01218 0.5185 0.13102 0.0
C698 C 0.9927 0.5097 0.1273 0.0
C699 C 0.98675 0.49895 0.14551 0.0
N700 N 0.97174 0.48652 0.18794 0.0
C701 C 0.95922 0.48589 0.17103 0.0
C702 C 0.93874 0.48392 0.17726 0.0
C703 C 0.93873 0.48343 0.19893 0.0
C704 C 0.95912 0.48509 0.20472 0.0
N705 N 0.00242 0.4766 0.21715 0.0
C706 C 0.98708 0.47617 0.23131 0.0
C707 C 0.9921 0.46531 0.24928 0.0
C708 C 0.01168 0.4585 0.24589 0.0
C709 C 0.01744 0.46562 0.22603 0.0
N710 N 1.00082 0.51738 0.20026 0.0
C711 C 0.00275 0.56048 0.21069 0.0
C712 C 0.98845 0.55238 0.19601 0.0
C713 C 0.98768 0.53097 0.19111 0.0
C714 C 0.01527 0.54623 0.22108 0.0
C715 C 0.01409 0.5247 0.21559 0.0
N716 N 0.00322 0.46065 0.17637 0.0
C717 C 0.98907 0.42541 0.17027 0.0
C718 C 0.0038 0.42258 0.15453 0.0
C719 C 0.01829 0.43894 0.15025 0.0
C720 C 0.01757 0.45779 0.16106 0.0
C721 C 0.98927 0.44457 0.18132 0.0
H722 H 0.02834 0.47033 0.15643 0.0
H723 H 0.97796 0.44656 0.19351 0.0
H724 H 0.97693 0.52562 0.17915 0.0
H725 H 0.0244 0.51412 0.22314 0.0
C726 C 0.03674 0.51414 0.16074 0.0
C727 C 0.0369 0.46144 0.21545 0.0
C728 C 0.96652 0.48818 0.14922 0.0
C729 C 0.96708 0.48097 0.2249 0.0
H730 H 0.07874 0.47559 0.20164 0.0
H731 H 0.07839 0.50641 0.17327 0.0
H732 H 0.02197 0.52718 0.11991 0.0
H733 H 0.98392 0.511 0.11291 0.0
H734 H 0.92525 0.48283 0.16727 0.0
H735 H 0.92548 0.48104 0.20913 0.0
H736 H 0.98218 0.46138 0.26254 0.0
H737 H 0.02044 0.44888 0.25641 0.0
H738 H 0.97807 0.56261 0.188 0.0
H739 H 0.02643 0.55178 0.2327 0.0
H740 H 0.97757 0.41303 0.1739 0.0
H741 H 0.02962 0.43755 0.13788 0.0
C742 C 0.77193 0.80163 0.49844 0.0
C743 C 0.77602 0.82284 0.50254 0.0
C744 C 0.76332 0.83377 0.48964 0.0
C745 C 0.75229 0.81869 0.47828 0.0
N746 N 0.75671 0.79881 0.48396 0.0
Co747 Co 0.74779 0.77196 0.46948 0.0
N748 N 0.73749 0.78751 0.44453 0.0
C749 C 0.73669 0.80866 0.44223 0.0
C750 C 0.73129 0.81456 0.42221 0.0
C751 C 0.729 0.79608 0.41108 0.0
C752 C 0.73306 0.77998 0.42504 0.0
N753 N 0.73869 0.74498 0.45568 0.0
C754 C 0.73201 0.74167 0.43584 0.0
C755 C 0.72706 0.72041 0.4323 0.0
C756 C 0.73123 0.70997 0.45055 0.0
C757 C 0.73844 0.72536 0.46412 0.0
N758 N 0.75913 0.75646 0.49389 0.0
C759 C 0.7575 0.73553 0.49793 0.0
C760 C 0.76918 0.7296 0.51477 0.0
C761 C 0.77951 0.74773 0.52123 0.0
C762 C 0.77341 0.76362 0.50791 0.0
N763 N 0.71976 0.77255 0.48291 0.0
C764 C 0.67645 0.76916 0.48866 0.0
C765 C 0.68893 0.75269 0.49447 0.0
C766 C 0.71039 0.75489 0.49194 0.0
C767 C 0.68636 0.78817 0.48245 0.0
C768 C 0.70775 0.78958 0.48007 0.0
N769 N 0.77485 0.77152 0.45524 0.0
C770 C 0.79974 0.75317 0.43472 0.0
C771 C 0.80835 0.77247 0.4273 0.0
C772 C 0.80086 0.79105 0.43524 0.0
C773 C 0.78421 0.79024 0.44884 0.0
C774 C 0.78324 0.75306 0.44906 0.0
H775 H 0.77852 0.80514 0.45297 0.0
H776 H 0.77688 0.73802 0.45437 0.0
H777 H 0.71889 0.74185 0.49689 0.0
H778 H 0.71393 0.80448 0.47512 0.0
C779 C 0.74344 0.82243 0.45843 0.0
C780 C 0.78392 0.78437 0.50661 0.0
C781 C 0.73297 0.75772 0.41935 0.0
C782 C 0.74777 0.72168 0.48357 0.0
H783 H 0.78777 0.82982 0.5127 0.0
H784 H 0.76387 0.85068 0.48711 0.0
H785 H 0.73012 0.83043 0.41615 0.0
H786 H 0.72523 0.79458 0.39455 0.0
H787 H 0.72197 0.71304 0.41776 0.0
H788 H 0.73028 0.69308 0.45317 0.0
H789 H 0.77129 0.71374 0.52052 0.0
H790 H 0.79132 0.74894 0.53324 0.0
H791 H 0.68218 0.73797 0.50058 0.0
H792 H 0.67765 0.80174 0.47829 0.0
H793 H 0.80532 0.73838 0.42907 0.0
H794 H 0.8069 0.80634 0.42984 0.0
C795 C 0.98068 0.79449 0.27659 0.0
C796 C 0.99677 0.79325 0.29076 0.0
C797 C 0.99554 0.773 0.29887 0.0
C798 C 0.97882 0.76303 0.28917 0.0
N799 N 0.96974 0.77585 0.27547 0.0
Co800 Co 0.94411 0.76938 0.25959 0.0
N801 N 0.9352 0.74678 0.27943 0.0
C802 C 0.94754 0.7369 0.29293 0.0
C803 C 0.93703 0.72144 0.30435 0.0
C804 C 0.91696 0.72158 0.2974 0.0
C805 C 0.91632 0.73719 0.28208 0.0
N806 N 0.9187 0.76326 0.2432 0.0
C807 C 0.90098 0.75303 0.24917 0.0
C808 C 0.8867 0.75282 0.23283 0.0
C809 C 0.89615 0.76284 0.21603 0.0
C810 C 0.91554 0.76876 0.22299 0.0
N811 N 0.95311 0.79203 0.23985 0.0
C812 C 0.94687 0.79432 0.21985 0.0
C813 C 0.95531 0.81233 0.21059 0.0
C814 C 0.96746 0.82191 0.22582 0.0
C815 C 0.96581 0.80908 0.24354 0.0
N816 N 0.95821 0.74816 0.24303 0.0
C817 C 0.97928 0.71269 0.2306 0.0
C818 C 0.95798 0.71151 0.23308 0.0
C819 C 0.94778 0.72929 0.23918 0.0
C820 C 0.9898 0.7324 0.23267 0.0
C821 C 0.97887 0.75011 0.23867 0.0
N822 N 0.92964 0.78942 0.27708 0.0
C823 C 0.89759 0.80569 0.28408 0.0
C824 C 0.90099 0.80377 0.30579 0.0
C825 C 0.92003 0.79714 0.31264 0.0
C826 C 0.9339 0.78976 0.29818 0.0
C827 C 0.91257 0.7991 0.2699 0.0
H828 H 0.94696 0.78224 0.30461 0.0
H829 H 0.90942 0.80002 0.25325 0.0
H830 H 0.93159 0.7271 0.24237 0.0
H831 H 0.98729 0.765 0.2411 0.0
C832 C 0.96798 0.74464 0.29639 0.0
C833 C 0.97627 0.81301 0.2637 0.0
C834 C 0.89814 0.74125 0.26904 0.0
C835 C 0.92955 0.78261 0.21251 0.0
H836 H 0.00789 0.80575 0.295 0.0
H837 H 0.0048 0.76688 0.31146 0.0
H838 H 0.94305 0.7116 0.31665 0.0
H839 H 0.90433 0.71122 0.30279 0.0
H840 H 0.87117 0.74589 0.23288 0.0
H841 H 0.8894 0.76611 0.20085 0.0
H842 H 0.95187 0.81859 0.19517 0.0
H843 H 0.97606 0.8368 0.22405 0.0
H844 H 0.94933 0.69657 0.23144 0.0
H845 H 0.00635 0.73389 0.23063 0.0
H846 H 0.8831 0.81109 0.27817 0.0
H847 H 0.9233 0.79529 0.32926 0.0
C848 C 0.54639 0.21303 0.754 0.0
C849 C 0.53115 0.21412 0.76912 0.0
C850 C 0.53294 0.23424 0.77737 0.0
C851 C 0.54912 0.24427 0.76678 0.0
N852 N 0.55735 0.23161 0.75243 0.0
Co853 Co 0.58187 0.23834 0.73488 0.0
N854 N 0.59202 0.26065 0.75434 0.0
C855 C 0.58056 0.27033 0.76873 0.0
C856 C 0.59179 0.28558 0.77965 0.0
C857 C 0.61139 0.28548 0.77145 0.0
C858 C 0.61108 0.27009 0.75594 0.0
N859 N 0.60611 0.24494 0.71681 0.0
C860 C 0.62423 0.25502 0.72173 0.0
C861 C 0.63763 0.25496 0.70465 0.0
C862 C 0.62712 0.24522 0.6884 0.0
C863 C 0.60807 0.23955 0.69644 0.0
N864 N 0.57166 0.21593 0.71557 0.0
C865 C 0.5767 0.21387 0.6952 0.0
C866 C 0.56776 0.19594 0.68636 0.0
C867 C 0.55657 0.18617 0.70226 0.0
C868 C 0.55922 0.19882 0.71993 0.0
N869 N 0.56655 0.25961 0.71961 0.0
C870 C 0.54384 0.29496 0.71034 0.0
C871 C 0.56532 0.29656 0.71126 0.0
C872 C 0.57633 0.27881 0.71574 0.0
C873 C 0.53402 0.27481 0.71182 0.0
C874 C 0.54574 0.25722 0.71637 0.0
N875 N 0.59753 0.21809 0.75106 0.0
C876 C 0.62983 0.2015 0.75566 0.0
C877 C 0.62767 0.20277 0.77758 0.0
C878 C 0.60913 0.20932 0.78576 0.0
C879 C 0.59452 0.21724 0.77238 0.0
C880 C 0.61409 0.20856 0.7426 0.0
H881 H 0.58194 0.22468 0.77978 0.0
H882 H 0.61626 0.20807 0.72578 0.0
H883 H 0.59269 0.28119 0.71779 0.0
H884 H 0.53784 0.24203 0.71873 0.0
C885 C 0.56038 0.26256 0.77344 0.0
C886 C 0.54994 0.19469 0.74068 0.0
C887 C 0.62839 0.2663 0.74163 0.0
C888 C 0.5935 0.22571 0.68685 0.0
H889 H 0.52021 0.20162 0.77388 0.0
H890 H 0.52443 0.24023 0.79053 0.0
H891 H 0.58655 0.29523 0.79242 0.0
H892 H 0.62432 0.29578 0.77613 0.0
H893 H 0.65335 0.26128 0.70388 0.0
H894 H 0.63304 0.24176 0.67293 0.0
H895 H 0.57029 0.18986 0.67072 0.0
H896 H 0.54794 0.17127 0.70091 0.0
H897 H 0.57358 0.31171 0.70955 0.0
H898 H 0.51741 0.27286 0.7108 0.0
H899 H 0.64394 0.19626 0.74875 0.0
H900 H 0.60686 0.21072 0.8026 0.0
C901 C 0.45522 0.52269 0.67689 0.0
C902 C 0.43426 0.51866 0.67963 0.0
C903 C 0.42917 0.50055 0.66836 0.0
C904 C 0.44725 0.49451 0.65933 0.0
N905 N 0.46317 0.50775 0.66451 0.0
Co906 Co 0.49136 0.50737 0.65319 0.0
N907 N 0.48212 0.49144 0.62812 0.0
C908 C 0.46446 0.47972 0.62628 0.0
C909 C 0.46233 0.47106 0.60649 0.0
C910 C 0.47978 0.47782 0.59552 0.0
C911 C 0.49157 0.49027 0.60925 0.0
N912 N 0.51968 0.50718 0.64249 0.0
C913 C 0.52604 0.50451 0.62258 0.0
C914 C 0.54744 0.50535 0.6216 0.0
C915 C 0.55444 0.50865 0.64181 0.0
C916 C 0.53703 0.50962 0.65397 0.0
N917 N 0.50056 0.52329 0.67815 0.0
C918 C 0.51957 0.52423 0.68649 0.0
C919 C 0.52093 0.53738 0.7037 0.0
C920 C 0.50157 0.54508 0.70604 0.0
C921 C 0.48957 0.53615 0.6901 0.0
N922 N 0.49563 0.48051 0.66766 0.0
C923 C 0.49821 0.43978 0.68454 0.0
C924 C 0.506 0.4447 0.66457 0.0
C925 C 0.5047 0.46499 0.65654 0.0
C926 C 0.48988 0.45598 0.69645 0.0
C927 C 0.4886 0.4763 0.68762 0.0
N928 N 0.48691 0.53348 0.63768 0.0
C929 C 0.50107 0.56316 0.61787 0.0
C930 C 0.48322 0.56317 0.60535 0.0
C931 C 0.46675 0.54921 0.61068 0.0
C932 C 0.46885 0.53472 0.62682 0.0
C933 C 0.50251 0.54829 0.63419 0.0
H934 H 0.45632 0.52331 0.62914 0.0
H935 H 0.51666 0.54788 0.64307 0.0
H936 H 0.51056 0.46785 0.6409 0.0
H937 H 0.48153 0.48845 0.69663 0.0
C938 C 0.44886 0.48113 0.64168 0.0
C939 C 0.46789 0.54017 0.68622 0.0
C940 C 0.51205 0.50012 0.6048 0.0
C941 C 0.53621 0.51694 0.67484 0.0
H942 H 0.42364 0.52794 0.68833 0.0
H943 H 0.41384 0.4937 0.66572 0.0
H944 H 0.44923 0.46186 0.60038 0.0
H945 H 0.48334 0.47413 0.57934 0.0
H946 H 0.55699 0.50382 0.60779 0.0
H947 H 0.5703 0.51108 0.6468 0.0
H948 H 0.53462 0.54198 0.71257 0.0
H949 H 0.49692 0.5563 0.71772 0.0
H950 H 0.51302 0.43285 0.65504 0.0
H951 H 0.48389 0.45282 0.7121 0.0
H952 H 0.51405 0.57401 0.61465 0.0
H953 H 0.45271 0.5483 0.60149 0.0
C954 C 0.01057 0.28884 0.94655 0.0
C955 C 0.01111 0.29668 0.92619 0.0
C956 C 0.02394 0.31477 0.92662 0.0
C957 C 0.03078 0.31675 0.94713 0.0
N958 N 0.02312 0.3008 0.95911 0.0
Co959 Co 0.02619 0.29758 0.98962 0.0
N960 N 0.0316 0.32799 0.99343 0.0
C961 C 0.0384 0.34169 0.97847 0.0
C962 C 0.04059 0.36195 0.98617 0.0
C963 C 0.03491 0.36057 0.00711 0.0
C964 C 0.02952 0.3395 0.01106 0.0
N965 N 0.0289 0.2936 0.02008 0.0
C966 C 0.02683 0.30786 0.03548 0.0
C967 C 0.02994 0.29867 0.05504 0.0
C968 C 0.03425 0.27791 0.0514 0.0
C969 C 0.03352 0.27555 0.0299 0.0
N970 N 0.02108 0.26729 0.98552 0.0
C971 C 0.02747 0.25169 0.99783 0.0
C972 C 0.02187 0.23212 0.98967 0.0
C973 C 0.01125 0.23607 0.9713 0.0
C974 C 0.01078 0.25784 0.96957 0.0
N975 N 0.05597 0.2945 0.98637 0.0
C976 C 0.09842 0.29835 0.97841 0.0
C977 C 0.08999 0.30728 0.99634 0.0
C978 C 0.06893 0.30512 1.00006 0.0
C979 C 0.08536 0.28601 0.96527 0.0
C980 C 0.06408 0.2843 0.96953 0.0
N981 N 0.99676 0.30183 0.99281 0.0
C982 C 0.96391 0.29604 0.01002 0.0
C983 C 0.95599 0.31254 0.99819 0.0
C984 C 0.96857 0.32311 0.98352 0.0
C985 C 0.98879 0.3178 0.98131 0.0
C986 C 0.98446 0.29067 0.00682 0.0
H987 H 0.99812 0.32717 0.97055 0.0
H988 H 0.99057 0.27795 0.0159 0.0
H989 H 0.06304 0.31315 0.01354 0.0
H990 H 0.05407 0.27558 0.95874 0.0
C991 C 0.03848 0.33552 0.957 0.0
C992 C 0.99887 0.26985 0.95439 0.0
C993 C 0.02355 0.33033 0.03164 0.0
C994 C 0.0336 0.25631 0.01868 0.0
H995 H 0.00268 0.29044 0.91273 0.0
H996 H 0.02652 0.32598 0.9139 0.0
H997 H 0.04487 0.37617 0.97745 0.0
H998 H 0.03474 0.37353 0.01815 0.0
H999 H 0.02934 0.30618 0.07029 0.0
H1000 H 0.03685 0.26585 0.06308 0.0
H1001 H 0.02376 0.21689 0.99698 0.0
H1002 H 0.00358 0.22447 0.9612 0.0
H1003 H 0.09957 0.31649 0.00721 0.0
H1004 H 0.09135 0.27862 0.95135 0.0
H1005 H 0.95447 0.28765 0.02164 0.0
H1006 H 0.96303 0.33616 0.97437 0.0
C1007 C 0.50935 0.74464 0.46003 0.0
C1008 C 0.51353 0.75105 0.43958 0.0
C1009 C 0.49967 0.74003 0.42702 0.0
C1010 C 0.48789 0.72748 0.4405 0.0
N1011 N 0.49307 0.73051 0.46094 0.0
Co1012 Co 0.48337 0.71334 0.48576 0.0
N1013 N 0.47002 0.69123 0.46732 0.0
C1014 C 0.46778 0.69199 0.44618 0.0
C1015 C 0.46004 0.67323 0.43793 0.0
C1016 C 0.45762 0.65974 0.45478 0.0
C1017 C 0.46398 0.67111 0.47236 0.0
N1018 N 0.47386 0.69651 0.51073 0.0
C1019 C 0.46541 0.67673 0.51151 0.0
C1020 C 0.46084 0.6706 0.53209 0.0
C1021 C 0.46715 0.68706 0.54471 0.0
C1022 C 0.47514 0.7022 0.53119 0.0
N1023 N 0.49738 0.73505 0.50413 0.0
C1024 C 0.49641 0.73647 0.52532 0.0
C1025 C 0.50954 0.75194 0.53344 0.0
C1026 C 0.52003 0.76029 0.51649 0.0
C1027 C 0.51259 0.74942 0.49895 0.0
N1028 N 0.45676 0.72828 0.48661 0.0
C1029 C 0.41367 0.73095 0.48967 0.0
C1030 C 0.42624 0.73423 0.50733 0.0
C1031 C 0.4477 0.73336 0.50533 0.0
C1032 C 0.4233 0.73004 0.4701 0.0
C1033 C 0.44473 0.72939 0.46893 0.0
N1034 N 0.50887 0.69762 0.48464 0.0
C1035 C 0.53379 0.67567 0.50108 0.0
C1036 C 0.54032 0.66896 0.48127 0.0
C1037 C 0.5316 0.67761 0.46341 0.0
C1038 C 0.51603 0.69163 0.46541 0.0
C1039 C 0.51824 0.69034 0.50241 0.0
H1040 H 0.50944 0.69675 0.45106 0.0
H1041 H 0.51338 0.69509 0.51779 0.0
H1042 H 0.45644 0.73587 0.51931 0.0
H1043 H 0.45096 0.72885 0.45357 0.0
C1044 C 0.47622 0.70919 0.43443 0.0
C1045 C 0.52199 0.75101 0.47814 0.0
C1046 C 0.46441 0.66243 0.4936 0.0
C1047 C 0.48603 0.72074 0.53722 0.0
H1048 H 0.526 0.76168 0.43431 0.0
H1049 H 0.49957 0.73969 0.40999 0.0
H1050 H 0.45757 0.66943 0.4215 0.0
H1051 H 0.45228 0.64333 0.45424 0.0
H1052 H 0.45455 0.65548 0.53755 0.0
H1053 H 0.46694 0.68747 0.56174 0.0
H1054 H 0.51236 0.75553 0.54986 0.0
H1055 H 0.53252 0.77212 0.5172 0.0
H1056 H 0.4196 0.73615 0.52281 0.0
H1057 H 0.4143 0.729 0.45575 0.0
H1058 H 0.54034 0.66937 0.51533 0.0
H1059 H 0.53608 0.67277 0.44777 0.0
C1060 C 0.71435 0.54124 0.47012 0.0
C1061 C 0.72772 0.55853 0.4736 0.0
C1062 C 0.72449 0.56481 0.49408 0.0
C1063 C 0.70932 0.55108 0.50196 0.0
N1064 N 0.70315 0.5366 0.48763 0.0
Co1065 Co 0.68004 0.51544 0.49062 0.0
N1066 N 0.66697 0.53186 0.51277 0.0
C1067 C 0.67653 0.54694 0.52457 0.0
C1068 C 0.66355 0.5552 0.53916 0.0
C1069 C 0.64485 0.54446 0.53637 0.0
C1070 C 0.64741 0.53022 0.52012 0.0
N1071 N 0.65733 0.49381 0.49328 0.0
C1072 C 0.63835 0.49555 0.50155 0.0
C1073 C 0.62668 0.47677 0.49902 0.0
C1074 C 0.63918 0.46275 0.48955 0.0
C1075 C 0.65764 0.4737 0.48649 0.0
N1076 N 0.69319 0.49923 0.46844 0.0
C1077 C 0.69049 0.47849 0.46462 0.0
C1078 C 0.70132 0.47241 0.4472 0.0
C1079 C 0.71119 0.49059 0.43967 0.0
C1080 C 0.70576 0.50665 0.453 0.0
N1081 N 0.69534 0.50093 0.51265 0.0
C1082 C 0.7162 0.49261 0.55011 0.0
C1083 C 0.69478 0.49025 0.54901 0.0
C1084 C 0.68472 0.49431 0.53025 0.0
C1085 C 0.72722 0.49693 0.53146 0.0
C1086 C 0.71642 0.50094 0.51274 0.0
N1087 N 0.66423 0.53075 0.46967 0.0
C1088 C 0.633 0.53234 0.4494 0.0
C1089 C 0.6334 0.55431 0.45193 0.0
C1090 C 0.6506 0.56431 0.46127 0.0
C1091 C 0.66548 0.55234 0.47039 0.0
C1092 C 0.64912 0.52086 0.45775 0.0
H1093 H 0.67671 0.56082 0.47984 0.0
H1094 H 0.64837 0.50391 0.45612 0.0
H1095 H 0.66817 0.49383 0.53071 0.0
H1096 H 0.72506 0.50552 0.4988 0.0
C1097 C 0.69655 0.55486 0.51935 0.0
C1098 C 0.71217 0.52892 0.45058 0.0
C1099 C 0.63178 0.51397 0.5135 0.0
C1100 C 0.67388 0.46705 0.4739 0.0
H1101 H 0.73828 0.56617 0.46254 0.0
H1102 H 0.73117 0.57878 0.50163 0.0
H1103 H 0.66705 0.56787 0.55015 0.0
H1104 H 0.63103 0.54665 0.54546 0.0
H1105 H 0.61083 0.47342 0.50358 0.0
H1106 H 0.63495 0.44681 0.4846 0.0
H1107 H 0.70082 0.45702 0.43985 0.0
H1108 H 0.72069 0.49205 0.42571 0.0
H1109 H 0.68572 0.48636 0.56293 0.0
H1110 H 0.74388 0.49849 0.53163 0.0
H1111 H 0.61993 0.52408 0.44207 0.0
H1112 H 0.65141 0.58124 0.46377 0.0
C1113 C 0.78646 0.44974 0.784 0.0
C1114 C 0.80691 0.45663 0.78237 0.0
C1115 C 0.81414 0.44839 0.76381 0.0
C1116 C 0.7977 0.43697 0.75513 0.0
N1117 N 0.78077 0.43781 0.76719 0.0
Co1118 Co 0.7543 0.42214 0.76267 0.0
N1119 N 0.76717 0.40096 0.74498 0.0
C1120 C 0.78538 0.40344 0.73504 0.0
C1121 C 0.79026 0.38542 0.72444 0.0
C1122 C 0.77405 0.371 0.72803 0.0
C1123 C 0.76017 0.38104 0.74067 0.0
N1124 N 0.7276 0.407 0.75833 0.0
C1125 C 0.72385 0.38679 0.75265 0.0
C1126 C 0.70276 0.38227 0.751 0.0
C1127 C 0.69323 0.40055 0.75587 0.0
C1128 C 0.70894 0.41514 0.76017 0.0
N1129 N 0.74146 0.44324 0.78038 0.0
C1130 C 0.72153 0.44803 0.78029 0.0
C1131 C 0.71734 0.46299 0.79513 0.0
C1132 C 0.73579 0.46769 0.80506 0.0
C1133 C 0.75026 0.45535 0.79562 0.0
N1134 N 0.74946 0.4389 0.73725 0.0
C1135 C 0.74891 0.45924 0.69802 0.0
C1136 C 0.7422 0.43812 0.70012 0.0
C1137 C 0.74247 0.42837 0.7197 0.0
C1138 C 0.75469 0.47052 0.71625 0.0
C1139 C 0.75494 0.45997 0.73581 0.0
N1140 N 0.75964 0.40443 0.7872 0.0
C1141 C 0.74703 0.37809 0.812 0.0
C1142 C 0.76634 0.36891 0.81214 0.0
C1143 C 0.78251 0.3792 0.80112 0.0
C1144 C 0.7789 0.39684 0.78901 0.0
C1145 C 0.74407 0.3961 0.79958 0.0
H1146 H 0.79149 0.40293 0.77951 0.0
H1147 H 0.7289 0.40234 0.79881 0.0
H1148 H 0.73789 0.41185 0.72032 0.0
H1149 H 0.76027 0.46856 0.74958 0.0
C1150 C 0.79886 0.42096 0.73976 0.0
C1151 C 0.77222 0.45521 0.80092 0.0
C1152 C 0.74002 0.37214 0.74774 0.0
C1153 C 0.70687 0.4348 0.76993 0.0
H1154 H 0.81567 0.46625 0.79355 0.0
H1155 H 0.82988 0.44933 0.75821 0.0
H1156 H 0.80436 0.38267 0.71601 0.0
H1157 H 0.77265 0.35499 0.72217 0.0
H1158 H 0.69506 0.3674 0.74679 0.0
H1159 H 0.67684 0.4026 0.75711 0.0
H1160 H 0.70244 0.46875 0.79922 0.0
H1161 H 0.7381 0.47865 0.81793 0.0
H1162 H 0.73712 0.42897 0.68655 0.0
H1163 H 0.75973 0.48701 0.71526 0.0
H1164 H 0.73416 0.371 0.82071 0.0
H1165 H 0.79766 0.37283 0.80037 0.0
C1166 C 0.78796 0.46985 0.97284 0.0
C1167 C 0.76859 0.4598 0.97226 0.0
C1168 C 0.76427 0.45314 0.99253 0.0
C1169 C 0.78119 0.45955 0.00433 0.0
N1170 N 0.79568 0.46985 0.99264 0.0
Co1171 Co 0.82319 0.4804 0.00238 0.0
N1172 N 0.82239 0.46126 0.02703 0.0
C1173 C 0.80527 0.45159 0.03516 0.0
C1174 C 0.8093 0.43984 0.05276 0.0
C1175 C 0.83016 0.44255 0.05599 0.0
C1176 C 0.83776 0.4559 0.04015 0.0
N1177 N 0.85083 0.49122 0.01158 0.0
C1178 C 0.86418 0.48279 0.02523 0.0
C1179 C 0.88193 0.49584 0.02706 0.0
C1180 C 0.8793 0.51303 0.0144 0.0
C1181 C 0.86022 0.50964 0.00552 0.0
N1182 N 0.8238 0.49958 0.9778 0.0
C1183 C 0.8356 0.5174 0.97552 0.0
C1184 C 0.8331 0.52682 0.95625 0.0
C1185 C 0.81892 0.51403 0.94579 0.0
C1186 C 0.81346 0.49753 0.9594 0.0
N1187 N 0.8104 0.50171 0.01997 0.0
C1188 C 0.78726 0.52034 0.05139 0.0
C1189 C 0.80727 0.5145 0.05537 0.0
C1190 C 0.81852 0.50534 0.03959 0.0
C1191 C 0.77969 0.51886 0.03074 0.0
C1192 C 0.79172 0.50967 0.01507 0.0
N1193 N 0.83587 0.45832 0.98607 0.0
C1194 C 0.86758 0.44407 0.97459 0.0
C1195 C 0.8593 0.42354 0.9781 0.0
C1196 C 0.83841 0.42078 0.98286 0.0
C1197 C 0.82703 0.43832 0.98695 0.0
C1198 C 0.85532 0.46134 0.97806 0.0
H1199 H 0.81176 0.43532 0.99302 0.0
H1200 H 0.86218 0.47706 0.97622 0.0
H1201 H 0.83309 0.49951 0.04416 0.0
H1202 H 0.78533 0.50762 0.99947 0.0
C1203 C 0.78634 0.45186 0.02435 0.0
C1204 C 0.79844 0.48018 0.95484 0.0
C1205 C 0.85914 0.46477 0.03931 0.0
C1206 C 0.85207 0.52166 0.98926 0.0
H1207 H 0.75882 0.45734 0.9586 0.0
H1208 H 0.75099 0.44357 0.99769 0.0
H1209 H 0.79847 0.43013 0.06193 0.0
H1210 H 0.83875 0.4358 0.06876 0.0
H1211 H 0.89514 0.49363 0.03704 0.0
H1212 H 0.89018 0.5262 0.0117 0.0
H1213 H 0.84162 0.54049 0.94995 0.0
H1214 H 0.81367 0.51646 0.92986 0.0
H1215 H 0.81374 0.51571 0.07108 0.0
H1216 H 0.76429 0.52357 0.02706 0.0
H1217 H 0.88366 0.44677 0.97046 0.0
H1218 H 0.83141 0.40518 0.98566 0.0
C1219 C 0.71649 0.57489 0.28188 0.0
C1220 C 0.69525 0.57316 0.27993 0.0
C1221 C 0.69038 0.58464 0.26221 0.0
C1222 C 0.70886 0.59277 0.25431 0.0
N1223 N 0.72479 0.5868 0.26604 0.0
Co1224 Co 0.75378 0.59674 0.26295 0.0
N1225 N 0.7462 0.62232 0.24778 0.0
C1226 C 0.72833 0.6251 0.23774 0.0
C1227 C 0.72761 0.64517 0.22943 0.0
C1228 C 0.74619 0.65531 0.23468 0.0
C1229 C 0.75718 0.64084 0.24595 0.0
N1230 N 0.78285 0.60607 0.26007 0.0
C1231 C 0.79082 0.62576 0.2569 0.0
C1232 C 0.81219 0.62582 0.25603 0.0
C1233 C 0.8175 0.60521 0.25866 0.0
C1234 C 0.79916 0.59377 0.26103 0.0
N1235 N 0.76135 0.57123 0.27808 0.0
C1236 C 0.77949 0.56194 0.27732 0.0
C1237 C 0.77982 0.54461 0.29043 0.0
C1238 C 0.76072 0.54321 0.29992 0.0
C1239 C 0.74989 0.55979 0.29198 0.0
N1240 N 0.75542 0.58206 0.23591 0.0
C1241 C 0.75381 0.56519 0.1951 0.0
C1242 C 0.74492 0.55393 0.21219 0.0
C1243 C 0.74588 0.56268 0.23252 0.0
C1244 C 0.76436 0.58445 0.1992 0.0
C1245 C 0.76497 0.59254 0.2195 0.0
N1246 N 0.75187 0.61242 0.28931 0.0
C1247 C 0.76811 0.63072 0.31855 0.0
C1248 C 0.75092 0.64323 0.32071 0.0
C1249 C 0.73394 0.63903 0.30767 0.0
C1250 C 0.73472 0.62374 0.29227 0.0
C1251 C 0.76816 0.61514 0.30284 0.0
H1252 H 0.7218 0.6223 0.28175 0.0
H1253 H 0.78168 0.60603 0.30095 0.0
H1254 H 0.73843 0.55413 0.24537 0.0
H1255 H 0.77267 0.60778 0.2217 0.0
C1256 C 0.71148 0.61042 0.24068 0.0
C1257 C 0.72907 0.56501 0.29819 0.0
C1258 C 0.77826 0.64422 0.25404 0.0
C1259 C 0.79677 0.57285 0.26851 0.0
H1260 H 0.6844 0.56496 0.29032 0.0
H1261 H 0.67508 0.58805 0.25683 0.0
H1262 H 0.71474 0.65203 0.22155 0.0
H1263 H 0.75101 0.67142 0.23083 0.0
H1264 H 0.82285 0.63927 0.25391 0.0
H1265 H 0.8329 0.5995 0.25985 0.0
H1266 H 0.7928 0.53506 0.29387 0.0
H1267 H 0.75553 0.5318 0.3117 0.0
H1268 H 0.73675 0.53886 0.20978 0.0
H1269 H 0.77203 0.59345 0.18672 0.0
H1270 H 0.78151 0.63329 0.3285 0.0
H1271 H 0.72046 0.64843 0.30834 0.0
H1272 H 0.27094 0.30002 0.13013 0.0
H1273 H 0.15966 0.33396 0.16792 0.0
H1274 H 0.22248 0.31787 0.08838 0.0
H1275 H 0.20239 0.30474 0.20958 0.0
H1276 H 0.18511 0.3333 0.13969 0.0
H1277 H 0.2479 0.30481 0.16032 0.0
C1278 C 0.25526 0.30445 0.1274 0.0
C1279 C 0.24826 0.308 0.10689 0.0
C1280 C 0.18909 0.32731 0.15508 0.0
C1281 C 0.22229 0.31439 0.14104 0.0
C1282 C 0.17466 0.32793 0.17124 0.0
C1283 C 0.17895 0.31935 0.19104 0.0
C1284 C 0.20794 0.31793 0.1587 0.0
C1285 C 0.19857 0.31167 0.19455 0.0
C1286 C 0.24224 0.30744 0.14454 0.0
C1287 C 0.22815 0.31446 0.104 0.0
N1288 N 0.21229 0.31087 0.17842 0.0
N1289 N 0.21587 0.3175 0.12089 0.0
H1290 H 0.97479 0.88624 0.50119 0.0
H1291 H 0.96127 0.91161 0.37874 0.0
H1292 H 0.92566 0.85886 0.46316 0.0
H1293 H 0.01507 0.93079 0.4149 0.0
H1294 H 0.94638 0.89452 0.41007 0.0
H1295 H 0.98667 0.9075 0.471 0.0
C1296 C 0.96595 0.88544 0.48673 0.0
C1297 C 0.94924 0.8708 0.4846 0.0
C1298 C 0.96148 0.9024 0.41115 0.0
C1299 C 0.96321 0.89429 0.4498 0.0
C1300 C 0.97007 0.91199 0.39323 0.0
C1301 C 0.98932 0.92294 0.39427 0.0
C1302 C 0.97218 0.90378 0.43032 0.0
C1303 C 1.00014 0.92271 0.41338 0.0
C1304 C 0.973 0.8972 0.46936 0.0
C1305 C 0.93858 0.87003 0.46539 0.0
N1306 N 0.99133 0.9135 0.43072 0.0
N1307 N 0.94595 0.88134 0.44861 0.0
H1308 H 0.29714 0.64575 0.5982 0.0
H1309 H 0.32705 0.66821 0.71671 0.0
H1310 H 0.25364 0.66082 0.64634 0.0
H1311 H 0.3704 0.65139 0.66895 0.0
H1312 H 0.2988 0.65622 0.69367 0.0
H1313 H 0.32278 0.6393 0.62555 0.0
C1314 C 0.29298 0.64729 0.61462 0.0
C1315 C 0.27355 0.65402 0.62022 0.0
C1316 C 0.3145 0.65462 0.68841 0.0
C1317 C 0.30256 0.64702 0.65147 0.0
C1318 C 0.33063 0.66125 0.70168 0.0
C1319 C 0.35102 0.6612 0.69449 0.0
C1320 C 0.31887 0.64812 0.6678 0.0
C1321 C 0.35482 0.6521 0.67485 0.0
C1322 C 0.30752 0.64361 0.63022 0.0
C1323 C 0.26863 0.65581 0.64156 0.0
N1324 N 0.33888 0.64637 0.66197 0.0
N1325 N 0.28317 0.65265 0.65645 0.0
H1326 H 0.5437 0.12403 0.98215 0.0
H1327 H 0.5606 0.09426 0.8612 0.0
H1328 H 0.59064 0.1538 0.9428 0.0
H1329 H 0.50789 0.07209 0.8976 0.0
H1330 H 0.574 0.11335 0.892 0.0
H1331 H 0.53379 0.1004 0.95306 0.0
C1332 C 0.5525 0.12495 0.96766 0.0
C1333 C 0.56808 0.14075 0.96485 0.0
C1334 C 0.55946 0.10439 0.89327 0.0
C1335 C 0.55634 0.11447 0.9313 0.0
C1336 C 0.55175 0.09361 0.87566 0.0
C1337 C 0.5331 0.08159 0.87685 0.0
C1338 C 0.54853 0.10308 0.91232 0.0
C1339 C 0.52223 0.08132 0.89594 0.0
C1340 C 0.54657 0.11178 0.95093 0.0
C1341 C 0.57864 0.1417 0.94559 0.0
N1342 N 0.53016 0.0918 0.91298 0.0
N1343 N 0.57241 0.12893 0.92946 0.0
H1344 H 0.2612 0.1644 0.22297 0.0
H1345 H 0.16995 0.21917 0.27871 0.0
H1346 H 0.25019 0.15957 0.28964 0.0
H1347 H 0.19618 0.24531 0.22152 0.0
H1348 H 0.19913 0.19642 0.28206 0.0
H1349 H 0.23868 0.19446 0.22127 0.0
C1350 C 0.25467 0.1703 0.23737 0.0
C1351 C 0.2576 0.15979 0.25651 0.0
C1352 C 0.19869 0.20727 0.26887 0.0
C1353 C 0.23122 0.19327 0.25459 0.0
C1354 C 0.18201 0.22014 0.26692 0.0
C1355 C 0.18094 0.23429 0.25 0.0
C1356 C 0.21421 0.20807 0.25348 0.0
C1357 C 0.19665 0.23468 0.23487 0.0
C1358 C 0.24167 0.18725 0.23638 0.0
C1359 C 0.24845 0.16753 0.27468 0.0
N1360 N 0.21264 0.22163 0.23687 0.0
N1361 N 0.23533 0.18356 0.27322 0.0
H1362 H 0.05094 0.84565 0.54701 0.0
H1363 H 0.08541 0.96524 0.52392 0.0
H1364 H 0.00799 0.88912 0.52225 0.0
H1365 H 0.11647 0.92544 0.56769 0.0
H1366 H 0.05677 0.93864 0.52218 0.0
H1367 H 0.07615 0.875 0.55216 0.0
C1368 C 0.04706 0.86143 0.54231 0.0
C1369 C 0.02766 0.86509 0.53388 0.0
C1370 C 0.06965 0.93597 0.53251 0.0
C1371 C 0.05608 0.89881 0.54014 0.0
C1372 C 0.08585 0.95125 0.53373 0.0
C1373 C 0.10332 0.94746 0.54595 0.0
C1374 C 0.07116 0.91677 0.5434 0.0
C1375 C 0.10333 0.92889 0.558 0.0
C1376 C 0.06127 0.8782 0.5455 0.0
C1377 C 0.023 0.88579 0.52846 0.0
N1378 N 0.08768 0.91411 0.55616 0.0
N1379 N 0.0372 0.90196 0.53159 0.0
H1380 H 0.26814 0.8366 0.71269 0.0
H1381 H 0.35524 0.78071 0.7691 0.0
H1382 H 0.27523 0.84077 0.77992 0.0
H1383 H 0.32532 0.74994 0.7162 0.0
H1384 H 0.32586 0.80305 0.77293 0.0
H1385 H 0.28747 0.80427 0.71283 0.0
C1386 C 0.27292 0.83006 0.72759 0.0
C1387 C 0.2698 0.84098 0.74637 0.0
C1388 C 0.32547 0.79112 0.76075 0.0
C1389 C 0.29292 0.80498 0.74654 0.0
C1390 C 0.34222 0.77836 0.75858 0.0
C1391 C 0.34245 0.76317 0.7426 0.0
C1392 C 0.30913 0.78929 0.74634 0.0
C1393 C 0.32554 0.76133 0.72888 0.0
C1394 C 0.28415 0.81179 0.72765 0.0
C1395 C 0.27704 0.83249 0.7652 0.0
N1396 N 0.30965 0.77449 0.73084 0.0
N1397 N 0.28872 0.81524 0.76476 0.0
H1398 H 0.40416 0.08839 0.06433 0.0
H1399 H 0.51148 0.12268 0.00934 0.0
H1400 H 0.43716 0.04583 0.02542 0.0
H1401 H 0.4687 0.16592 0.03454 0.0
H1402 H 0.48739 0.09298 0.0188 0.0
H1403 H 0.43188 0.1153 0.05936 0.0
C1404 C 0.41764 0.08451 0.05535 0.0
C1405 C 0.41845 0.06493 0.04529 0.0
C1406 C 0.48321 0.10898 0.02206 0.0
C1407 C 0.44981 0.09582 0.03883 0.0
C1408 C 0.49678 0.12584 0.01643 0.0
C1409 C 0.49168 0.14661 0.02076 0.0
C1410 C 0.46471 0.11307 0.03243 0.0
C1411 C 0.47285 0.15007 0.03055 0.0
C1412 C 0.43329 0.09995 0.05222 0.0
C1413 C 0.43611 0.06069 0.03361 0.0
N1414 N 0.46008 0.13347 0.03614 0.0
N1415 N 0.45101 0.07617 0.0304 0.0
H1416 H 0.02559 0.96564 0.40618 0.0
H1417 H 0.09799 0.01107 0.49636 0.0
H1418 H 0.02863 0.03039 0.42604 0.0
H1419 H 0.1066 0.95376 0.46213 0.0
H1420 H 0.06322 0.01197 0.48232 0.0
H1421 H 0.04481 0.95589 0.43754 0.0
C1422 C 0.02928 0.97756 0.41786 0.0
C1423 C 0.02549 0.99872 0.41367 0.0
C1424 C 0.07289 0.99932 0.47766 0.0
C1425 C 0.0483 0.98806 0.44902 0.0
C1426 C 0.09304 0.99903 0.4852 0.0
C1427 C 0.10691 0.98461 0.47709 0.0
C1428 C 0.06615 0.98427 0.46286 0.0
C1429 C 0.09808 0.96736 0.4659 0.0
C1430 C 0.04054 0.9721 0.43558 0.0
C1431 C 0.03114 0.01385 0.42886 0.0
N1432 N 0.07849 0.96806 0.45842 0.0
N1433 N 0.04274 0.00831 0.44568 0.0
H1434 H 0.19558 0.75607 0.60996 0.0
H1435 H 0.22919 0.82941 0.70679 0.0
H1436 H 0.20915 0.73108 0.67143 0.0
H1437 H 0.2353 0.84992 0.64228 0.0
H1438 H 0.21859 0.79396 0.69475 0.0
H1439 H 0.20558 0.79148 0.62239 0.0
C1440 C 0.20017 0.7581 0.62625 0.0
C1441 C 0.20133 0.74061 0.63977 0.0
C1442 C 0.2224 0.80612 0.68319 0.0
C1443 C 0.2133 0.78106 0.6539 0.0
C1444 C 0.22852 0.82627 0.69004 0.0
C1445 C 0.23327 0.84239 0.67543 0.0
C1446 C 0.2206 0.80216 0.66156 0.0
C1447 C 0.23194 0.83776 0.65394 0.0
C1448 C 0.2062 0.77828 0.63321 0.0
C1449 C 0.20798 0.74413 0.66052 0.0
N1450 N 0.22554 0.81803 0.6476 0.0
N1451 N 0.21371 0.76397 0.66696 0.0
H1452 H 0.43127 0.03871 0.97859 0.0
H1453 H 0.48785 0.96678 0.89563 0.0
H1454 H 0.40455 0.98255 0.94954 0.0
H1455 H 0.49568 0.03453 0.89351 0.0
H1456 H 0.46638 0.96967 0.92714 0.0
H1457 H 0.46254 0.03514 0.9569 0.0
C1458 C 0.43213 0.02556 0.96783 0.0
C1459 C 0.41559 0.01068 0.96601 0.0
C1460 C 0.47347 0.98386 0.92024 0.0
C1461 C 0.45107 0.00618 0.94198 0.0
C1462 C 0.48598 0.98218 0.90254 0.0
C1463 C 0.49353 1.00046 0.8922 0.0
C1464 C 0.46863 0.00393 0.92754 0.0
C1465 C 0.49021 0.02014 0.90131 0.0
C1466 C 0.44989 0.02347 0.95564 0.0
C1467 C 0.41719 0.99407 0.95169 0.0
N1468 N 0.47765 0.02144 0.91833 0.0
N1469 N 0.43467 0.99216 0.94037 0.0
H1470 H 0.31597 0.14815 0.14986 0.0
H1471 H 0.2968 0.27046 0.1329 0.0
H1472 H 0.27052 0.18043 0.18536 0.0
H1473 H 0.34693 0.23806 0.10529 0.0
H1474 H 0.2879 0.23896 0.15416 0.0
H1475 H 0.32697 0.18148 0.13328 0.0
C1476 C 0.30809 0.16228 0.15388 0.0
C1477 C 0.29231 0.16156 0.16895 0.0
C1478 C 0.30116 0.23892 0.14386 0.0
C1479 C 0.3051 0.2 0.15036 0.0
C1480 C 0.30648 0.25703 0.13205 0.0
C1481 C 0.32269 0.25681 0.11747 0.0
C1482 C 0.31208 0.22054 0.14086 0.0
C1483 C 0.33442 0.23884 0.11648 0.0
C1484 C 0.31451 0.18137 0.1446 0.0
C1485 C 0.28259 0.18031 0.17363 0.0
N1486 N 0.32869 0.22133 0.12775 0.0
N1487 N 0.28922 0.19884 0.16442 0.0
H1488 H 0.80117 0.35582 0.83178 0.0
H1489 H 0.75834 0.25174 0.87806 0.0
H1490 H 0.73944 0.33388 0.81494 0.0
H1491 H 0.82257 0.26231 0.86384 0.0
H1492 H 0.74997 0.2781 0.85156 0.0
H1493 H 0.80851 0.32029 0.84279 0.0
C1494 C 0.78915 0.34353 0.83017 0.0
C1495 C 0.76974 0.34794 0.82192 0.0
C1496 C 0.76581 0.27394 0.85351 0.0
C1497 C 0.77811 0.30695 0.83493 0.0
C1498 C 0.77057 0.25872 0.86845 0.0
C1499 C 0.79118 0.25584 0.87377 0.0
C1500 C 0.78189 0.28589 0.84388 0.0
C1501 C 0.80649 0.26465 0.86051 0.0
C1502 C 0.79345 0.32314 0.83636 0.0
C1503 C 0.75463 0.33134 0.82114 0.0
N1504 N 0.80165 0.2801 0.84674 0.0
N1505 N 0.75908 0.31158 0.8277 0.0
H1506 H 0.9385 0.51508 0.13469 0.0
H1507 H 0.85358 0.48157 0.07782 0.0
H1508 H 0.96064 0.45283 0.12518 0.0
H1509 H 0.89583 0.44518 0.04236 0.0
H1510 H 0.87967 0.48681 0.1053 0.0
H1511 H 0.91083 0.50723 0.10929 0.0
C1512 C 0.93755 0.49983 0.12701 0.0
C1513 C 0.95167 0.48455 0.13185 0.0
C1514 C 0.88322 0.47755 0.0916 0.0
C1515 C 0.91989 0.47515 0.10344 0.0
C1516 C 0.86821 0.4742 0.07618 0.0
C1517 C 0.87263 0.46282 0.058 0.0
C1518 C 0.90285 0.46963 0.08871 0.0
C1519 C 0.8919 0.45387 0.05633 0.0
C1520 C 0.92163 0.4952 0.11283 0.0
C1521 C 0.94993 0.46497 0.12167 0.0
N1522 N 0.90645 0.45757 0.07149 0.0
N1523 N 0.93429 0.46079 0.10781 0.0
H1524 H 0.70472 0.74633 0.38951 0.0
H1525 H 0.78209 0.67307 0.32914 0.0
H1526 H 0.76988 0.7508 0.40161 0.0
H1527 H 0.71881 0.65584 0.34457 0.0
H1528 H 0.77875 0.70645 0.34827 0.0
H1529 H 0.71048 0.7198 0.36243 0.0
C1530 C 0.72035 0.74248 0.38565 0.0
C1531 C 0.73689 0.75054 0.3977 0.0
C1532 C 0.76565 0.69529 0.34732 0.0
C1533 C 0.74353 0.7198 0.36764 0.0
C1534 C 0.76761 0.67615 0.33671 0.0
C1535 C 0.75063 0.6617 0.33504 0.0
C1536 C 0.74653 0.70003 0.35599 0.0
C1537 C 0.73218 0.66666 0.34502 0.0
C1538 C 0.72361 0.72705 0.37057 0.0
C1539 C 0.75683 0.7448 0.39253 0.0
N1540 N 0.73058 0.68544 0.35485 0.0
N1541 N 0.75964 0.72939 0.37812 0.0
H1542 H 0.78378 0.6675 0.28942 0.0
H1543 H 0.89129 0.70415 0.24908 0.0
H1544 H 0.79811 0.66679 0.2233 0.0
H1545 H 0.86267 0.74692 0.29137 0.0
H1546 H 0.8581 0.6847 0.24477 0.0
H1547 H 0.8123 0.69383 0.29495 0.0
C1548 C 0.79236 0.67369 0.27597 0.0
C1549 C 0.78865 0.66527 0.25588 0.0
C1550 C 0.85914 0.69825 0.25514 0.0
C1551 C 0.82161 0.69407 0.26218 0.0
C1552 C 0.87805 0.70905 0.25786 0.0
C1553 C 0.87951 0.72701 0.27061 0.0
C1554 C 0.84172 0.70519 0.2656 0.0
C1555 C 0.86197 0.73305 0.28149 0.0
C1556 C 0.8087 0.68843 0.27915 0.0
C1557 C 0.80042 0.67321 0.23894 0.0
N1558 N 0.84364 0.72206 0.27882 0.0
N1559 N 0.81681 0.68675 0.24256 0.0
H1560 H 0.65941 0.26332 0.77068 0.0
H1561 H 0.72981 0.35153 0.71158 0.0
H1562 H 0.64095 0.2994 0.71686 0.0
H1563 H 0.73319 0.34336 0.77872 0.0
H1564 H 0.70471 0.32154 0.70981 0.0
H1565 H 0.69256 0.28408 0.77124 0.0
C1566 C 0.66245 0.27551 0.75897 0.0
C1567 C 0.64778 0.27947 0.74345 0.0
C1568 C 0.71152 0.32583 0.72485 0.0
C1569 C 0.68536 0.30258 0.7436 0.0
C1570 C 0.72611 0.34263 0.72578 0.0
C1571 C 0.73353 0.34968 0.74532 0.0
C1572 C 0.70446 0.31613 0.74359 0.0
C1573 C 0.72785 0.33809 0.7634 0.0
C1574 C 0.68128 0.28718 0.7592 0.0
C1575 C 0.65211 0.29566 0.72882 0.0
N1576 N 0.7133 0.32204 0.76221 0.0
N1577 N 0.67059 0.30646 0.7291 0.0
H1578 H 0.43519 0.6313 0.50128 0.0
H1579 H 0.51362 0.57323 0.57618 0.0
H1580 H 0.50074 0.64373 0.49819 0.0
H1581 H 0.44953 0.5825 0.58971 0.0
H1582 H 0.50951 0.59125 0.54229 0.0
H1583 H 0.4406 0.60258 0.52627 0.0
C1584 C 0.45078 0.62716 0.50498 0.0
C1585 C 0.46756 0.63993 0.49802 0.0
C1586 C 0.49636 0.58911 0.55268 0.0
C1587 C 0.47386 0.60802 0.52714 0.0
C1588 C 0.49875 0.57912 0.57216 0.0
C1589 C 0.48187 0.57617 0.58587 0.0
C1590 C 0.47694 0.596 0.54682 0.0
C1591 C 0.46291 0.58396 0.57958 0.0
C1592 C 0.45387 0.61114 0.5196 0.0
C1593 C 0.48747 0.63424 0.50348 0.0
N1594 N 0.46096 0.5934 0.56055 0.0
N1595 N 0.49011 0.61902 0.51822 0.0
H1596 H 0.71927 0.25845 0.85878 0.0
H1597 H 0.63014 0.17994 0.81392 0.0
H1598 H 0.68589 0.21144 0.89618 0.0
H1599 H 0.66438 0.22504 0.77516 0.0
H1600 H 0.65319 0.18869 0.84331 0.0
H1601 H 0.70044 0.24577 0.82757 0.0
C1602 C 0.7078 0.24567 0.86048 0.0
C1603 C 0.70428 0.23593 0.8801 0.0
C1604 C 0.65596 0.19642 0.82829 0.0
C1605 C 0.68296 0.22099 0.84441 0.0
C1606 C 0.64298 0.19117 0.81144 0.0
C1607 C 0.64533 0.20187 0.79217 0.0
C1608 C 0.67125 0.21266 0.82591 0.0
C1609 C 0.66209 0.21643 0.78978 0.0
C1610 C 0.69725 0.23823 0.84261 0.0
C1611 C 0.68931 0.21927 0.88133 0.0
N1612 N 0.6742 0.22172 0.80659 0.0
N1613 N 0.67928 0.21231 0.86376 0.0
H1614 H 0.9723 0.4059 0.13039 0.0
H1615 H 0.05205 0.35016 0.05657 0.0
H1616 H 0.0357 0.39752 0.14707 0.0
H1617 H 0.98659 0.34001 0.04835 0.0
H1618 H 0.04584 0.36918 0.08927 0.0
H1619 H 0.97606 0.38165 0.10066 0.0
C1620 C 0.98677 0.39836 0.1282 0.0
C1621 C 0.00375 0.40368 0.14104 0.0
C1622 C 0.03278 0.36286 0.08035 0.0
C1623 C 0.00839 0.37676 0.1069 0.0
C1624 C 0.03636 0.35229 0.06163 0.0
C1625 C 0.01977 0.34395 0.04985 0.0
C1626 C 0.01244 0.36516 0.08725 0.0
C1627 C 0.99969 0.34659 0.05704 0.0
C1628 C 0.989 0.38477 0.11112 0.0
C1629 C 0.0223 0.39385 0.13738 0.0
N1630 N 0.99652 0.35712 0.07531 0.0
N1631 N 0.02422 0.38114 0.12046 0.0
H1632 H 0.80614 0.75347 0.38864 0.0
H1633 H 0.90118 0.82471 0.34328 0.0
H1634 H 0.84422 0.79639 0.42601 0.0
H1635 H 0.86343 0.78285 0.30454 0.0
H1636 H 0.87874 0.81615 0.37323 0.0
H1637 H 0.82678 0.76355 0.35755 0.0
C1638 C 0.81916 0.76461 0.39039 0.0
C1639 C 0.8235 0.77414 0.40989 0.0
C1640 C 0.87513 0.80902 0.35813 0.0
C1641 C 0.84672 0.78621 0.3744 0.0
C1642 C 0.88778 0.81416 0.34098 0.0
C1643 C 0.88418 0.80438 0.32147 0.0
C1644 C 0.85884 0.79385 0.35583 0.0
C1645 C 0.86669 0.79074 0.31932 0.0
C1646 C 0.83072 0.77061 0.3726 0.0
C1647 C 0.84034 0.78872 0.41123 0.0
N1648 N 0.85482 0.7856 0.33639 0.0
N1649 N 0.85123 0.79441 0.39373 0.0
H1650 H 0.51969 0.5348 0.58062 0.0
H1651 H 0.62003 0.48566 0.54375 0.0
H1652 H 0.52703 0.46772 0.58264 0.0
H1653 H 0.59844 0.53868 0.50888 0.0
H1654 H 0.58615 0.48074 0.56015 0.0
H1655 H 0.54719 0.53825 0.55414 0.0
C1656 C 0.52642 0.52071 0.57463 0.0
C1657 C 0.52111 0.50095 0.58353 0.0
C1658 C 0.5887 0.4933 0.54872 0.0
C1659 C 0.55305 0.50483 0.55443 0.0
C1660 C 0.60802 0.4962 0.53953 0.0
C1661 C 0.6117 0.51224 0.52461 0.0
C1662 C 0.57311 0.507 0.54352 0.0
C1663 C 0.59593 0.52592 0.52007 0.0
C1664 C 0.54224 0.52269 0.55977 0.0
C1665 C 0.53059 0.48315 0.57586 0.0
N1666 N 0.57723 0.52309 0.52963 0.0
N1667 N 0.54652 0.48557 0.56212 0.0
H1668 H 0.94447 0.33769 0.03001 0.0
H1669 H 0.85452 0.38431 0.96032 0.0
H1670 H 0.92308 0.30909 0.9723 0.0
H1671 H 0.89308 0.4212 0.00297 0.0
H1672 H 0.8737 0.35301 0.96934 0.0
H1673 H 0.9182 0.36405 0.02646 0.0
C1674 C 0.93344 0.33624 0.01725 0.0
C1675 C 0.93557 0.32098 0.0016 0.0
C1676 C 0.87798 0.36799 0.97664 0.0
C1677 C 0.90625 0.35139 0.99692 0.0
C1678 C 0.86723 0.38583 0.97134 0.0
C1679 C 0.87257 0.40538 0.9806 0.0
C1680 C 0.89387 0.36969 0.9916 0.0
C1681 C 0.88885 0.40651 0.99509 0.0
C1682 C 0.91878 0.35152 0.01496 0.0
C1683 C 0.92142 0.32019 0.98495 0.0
N1684 N 0.89889 0.38888 1.00022 0.0
N1685 N 0.90752 0.33539 0.98283 0.0
H1686 H 0.59621 0.54799 0.471 0.0
H1687 H 0.57468 0.67033 0.45696 0.0
H1688 H 0.62986 0.59022 0.42882 0.0
H1689 H 0.53833 0.62891 0.49776 0.0
H1690 H 0.59432 0.64046 0.44586 0.0
H1691 H 0.57244 0.57595 0.47849 0.0
C1692 C 0.59804 0.56287 0.46264 0.0
C1693 C 0.61501 0.5669 0.44935 0.0
C1694 C 0.58215 0.63782 0.45734 0.0
C1695 C 0.5885 0.59911 0.45837 0.0
C1696 C 0.57112 0.65493 0.46386 0.0
C1697 C 0.55497 0.65205 0.47836 0.0
C1698 C 0.57703 0.61758 0.46534 0.0
C1699 C 0.55086 0.6318 0.48675 0.0
C1700 C 0.58472 0.57895 0.46721 0.0
C1701 C 0.61693 0.58653 0.43914 0.0
N1702 N 0.56177 0.61525 0.48003 0.0
N1703 N 0.60406 0.60201 0.44414 0.0
H1704 H 0.05198 0.08294 0.27678 0.0
H1705 H 0.04736 0.20546 0.30792 0.0
H1706 H 0.01802 0.10486 0.33015 0.0
H1707 H 0.08679 0.1816 0.25983 0.0
H1708 H 0.03237 0.16942 0.31323 0.0
H1709 H 0.06071 0.11968 0.26714 0.0
C1710 C 0.04612 0.09546 0.28632 0.0
C1711 C 0.03447 0.09075 0.30446 0.0
C1712 C 0.04419 0.17214 0.3014 0.0
C1713 C 0.04458 0.13295 0.29364 0.0
C1714 C 0.05264 0.1927 0.29833 0.0
C1715 C 0.06852 0.19642 0.28365 0.0
C1716 C 0.05157 0.15531 0.28956 0.0
C1717 C 0.07483 0.17933 0.27159 0.0
C1718 C 0.05123 0.11647 0.28089 0.0
C1719 C 0.02741 0.10772 0.31627 0.0
N1720 N 0.06645 0.15958 0.27488 0.0
N1721 N 0.03268 0.12801 0.31076 0.0
H1722 H 0.145 0.70197 0.51995 0.0
H1723 H 0.0648 0.76177 0.59186 0.0
H1724 H 0.1592 0.72799 0.58096 0.0
H1725 H 0.04746 0.73193 0.53325 0.0
H1726 H 0.09923 0.74828 0.58841 0.0
H1727 H 0.1094 0.71294 0.52383 0.0
C1728 C 0.14055 0.70969 0.53432 0.0
C1729 C 0.15479 0.71295 0.55075 0.0
C1730 C 0.08789 0.74442 0.57638 0.0
C1731 C 0.11434 0.72613 0.55506 0.0
C1732 C 0.06817 0.75198 0.57847 0.0
C1733 C 0.05325 0.74786 0.56288 0.0
C1734 C 0.09291 0.73283 0.55842 0.0
C1735 C 0.05846 0.73522 0.54575 0.0
C1736 C 0.12027 0.71602 0.53649 0.0
C1737 C 0.14854 0.72423 0.56839 0.0
N1738 N 0.07794 0.72833 0.54384 0.0
N1739 N 0.12882 0.73023 0.57018 0.0
H1740 H 0.47171 0.92691 0.75189 0.0
H1741 H 0.48148 0.8038 0.77903 0.0
H1742 H 0.50688 0.90416 0.80417 0.0
H1743 H 0.43725 0.82773 0.73548 0.0
H1744 H 0.49569 0.84006 0.7842 0.0
H1745 H 0.46373 0.89023 0.74137 0.0
C1746 C 0.478 0.91422 0.76096 0.0
C1747 C 0.48976 0.91861 0.77908 0.0
C1748 C 0.48299 0.83732 0.77337 0.0
C1749 C 0.48063 0.8766 0.76724 0.0
C1750 C 0.47498 0.81663 0.77035 0.0
C1751 C 0.45801 0.81282 0.75704 0.0
C1752 C 0.47409 0.85422 0.76282 0.0
C1753 C 0.45013 0.83004 0.74617 0.0
C1754 C 0.47335 0.89328 0.75505 0.0
C1755 C 0.49744 0.90149 0.79031 0.0
N1756 N 0.45814 0.84994 0.74938 0.0
N1757 N 0.49266 0.88129 0.7843 0.0
H1758 H 0.35169 0.27093 0.04294 0.0
H1759 H 0.47211 0.29193 0.04041 0.0
H1760 H 0.37772 0.32001 0.00261 0.0
H1761 H 0.445 0.22857 0.03439 0.0
H1762 H 0.43791 0.30566 0.03429 0.0
H1763 H 0.38627 0.25756 0.04776 0.0
C1764 C 0.36468 0.27898 0.03521 0.0
C1765 C 0.36191 0.2971 0.023 0.0
C1766 C 0.43966 0.28875 0.03452 0.0
C1767 C 0.40146 0.28224 0.02888 0.0
C1768 C 0.45921 0.28082 0.03795 0.0
C1769 C 0.46184 0.25887 0.03841 0.0
C1770 C 0.42251 0.27471 0.03199 0.0
C1771 C 0.4441 0.24552 0.03519 0.0
C1772 C 0.38437 0.27141 0.03805 0.0
C1773 C 0.37928 0.30676 0.01314 0.0
N1774 N 0.42531 0.25362 0.0324 0.0
N1775 N 0.39839 0.29942 0.01653 0.0
H1776 H 0.28403 0.08062 0.16452 0.0
H1777 H 0.34789 0.02273 0.07607 0.0
H1778 H 0.32584 0.03192 0.17945 0.0
H1779 H 0.28679 0.04392 0.06472 0.0
H1780 H 0.34482 0.03292 0.11311 0.0
H1781 H 0.28967 0.07428 0.12689 0.0
C1782 C 0.29471 0.06887 0.15985 0.0
C1783 C 0.3048 0.05706 0.17516 0.0
C1784 C 0.33223 0.03566 0.10241 0.0
C1785 C 0.31136 0.04979 0.13215 0.0
C1786 C 0.33398 0.02994 0.08128 0.0
C1787 C 0.31777 0.03293 0.06709 0.0
C1788 C 0.31419 0.04468 0.10949 0.0
C1789 C 0.30001 0.04213 0.07476 0.0
C1790 C 0.29784 0.06521 0.13841 0.0
C1791 C 0.3183 0.04187 0.16825 0.0
N1792 N 0.29872 0.04772 0.09542 0.0
N1793 N 0.32124 0.03871 0.14726 0.0
H1794 H 0.2212 0.99134 0.41418 0.0
H1795 H 0.27948 0.07728 0.34019 0.0
H1796 H 0.24687 0.05066 0.43735 0.0
H1797 H 0.25187 0.0184 0.31763 0.0
H1798 H 0.27078 0.06657 0.37619 0.0
H1799 H 0.2359 0.99943 0.37954 0.0
C1800 C 0.23033 0.00592 0.41202 0.0
C1801 C 0.23286 0.02036 0.42863 0.0
C1802 C 0.26673 0.05593 0.36339 0.0
C1803 C 0.24938 0.03002 0.38877 0.0
C1804 C 0.27179 0.06197 0.34277 0.0
C1805 C 0.26645 0.04873 0.32568 0.0
C1806 C 0.2562 0.03646 0.36714 0.0
C1807 C 0.25611 0.02928 0.33015 0.0
C1808 C 0.2386 0.01061 0.39219 0.0
C1809 C 0.24472 0.03905 0.42499 0.0
N1810 N 0.25132 0.02378 0.35038 0.0
N1811 N 0.25236 0.04347 0.40537 0.0
H1812 H 0.21658 0.92544 0.67051 0.0
H1813 H 0.23484 0.00571 0.57493 0.0
H1814 H 0.24101 0.98912 0.67913 0.0
H1815 H 0.18637 0.95711 0.57286 0.0
H1816 H 0.24088 0.99711 0.61201 0.0
H1817 H 0.20782 0.93428 0.63387 0.0
C1818 C 0.21994 0.94132 0.6647 0.0
C1819 C 0.22995 0.95645 0.67766 0.0
C1820 C 0.22881 0.98842 0.60351 0.0
C1821 C 0.22043 0.96653 0.63581 0.0
C1822 C 0.22527 0.99342 0.58239 0.0
C1823 C 0.20956 0.98263 0.57107 0.0
C1824 C 0.21696 0.97206 0.61328 0.0
C1825 C 0.19842 0.96602 0.58119 0.0
C1826 C 0.21504 0.94632 0.64382 0.0
C1827 C 0.23391 0.9768 0.66944 0.0
N1828 N 0.20231 0.96122 0.60172 0.0
N1829 N 0.22943 0.98117 0.64899 0.0
H1830 H 0.2501 0.92921 0.83635 0.0
H1831 H 0.27326 0.96311 0.93816 0.0
H1832 H 0.28539 0.98435 0.81488 0.0
H1833 H 0.32099 0.00187 0.90804 0.0
H1834 H 0.25783 0.95593 0.9036 0.0
H1835 H 0.25666 0.93967 0.87258 0.0
C1836 C 0.25898 0.94378 0.83932 0.0
C1837 C 0.26736 0.95582 0.82251 0.0
C1838 C 0.27181 0.96582 0.90443 0.0
C1839 C 0.27475 0.9683 0.86437 0.0
C1840 C 0.28045 0.97015 0.92429 0.0
C1841 C 0.29873 0.98267 0.92601 0.0
C1842 C 0.28156 0.97407 0.88613 0.0
C1843 C 0.30724 0.99159 0.90745 0.0
C1844 C 0.26258 0.94991 0.86014 0.0
C1845 C 0.27859 0.97462 0.82732 0.0
N1846 N 0.2987 0.987 0.88839 0.0
N1847 N 0.28221 0.98009 0.84778 0.0
H1848 H 0.12855 0.27069 0.96858 0.0
H1849 H 0.23333 0.29939 0.97519 0.0
H1850 H 0.11866 0.33681 0.97748 0.0
H1851 H 0.21251 0.35964 0.99531 0.0
H1852 H 0.19843 0.28961 0.96331 0.0
H1853 H 0.16566 0.2789 0.96656 0.0
C1854 C 0.13421 0.287 0.96962 0.0
C1855 C 0.12056 0.30304 0.97353 0.0
C1856 C 0.20137 0.30504 0.97014 0.0
C1857 C 0.16311 0.3128 0.97111 0.0
C1858 C 0.22149 0.3108 0.97654 0.0
C1859 C 0.22579 0.33031 0.98638 0.0
C1860 C 0.18541 0.3189 0.97375 0.0
C1861 C 0.20983 0.34437 0.98795 0.0
C1862 C 0.1555 0.29177 0.96845 0.0
C1863 C 0.12869 0.32389 0.97485 0.0
N1864 N 0.19038 0.3383 0.98198 0.0
N1865 N 0.14934 0.3281 0.97389 0.0
H1866 H 0.71356 0.26034 0.01683 0.0
H1867 H 0.60202 0.21665 0.98215 0.0
H1868 H 0.70404 0.23066 0.95651 0.0
H1869 H 0.61162 0.27039 0.02282 0.0
H1870 H 0.63914 0.21817 0.974 0.0
H1871 H 0.67612 0.25978 0.02202 0.0
C1872 C 0.70353 0.25369 0.0047 0.0
C1873 C 0.7118 0.24596 0.98604 0.0
C1874 C 0.63307 0.22975 0.98455 0.0
C1875 C 0.66901 0.24483 0.992 0.0
C1876 C 0.61192 0.22898 0.98906 0.0
C1877 C 0.60389 0.24329 0.00333 0.0
C1878 C 0.64623 0.24471 0.99469 0.0
C1879 C 0.61731 0.25889 0.01197 0.0
C1880 C 0.6822 0.25341 0.00763 0.0
C1881 C 0.69819 0.23693 0.97106 0.0
N1882 N 0.63786 0.25899 0.0078 0.0
N1883 N 0.67744 0.2366 0.97434 0.0
H1884 H 0.1098 0.35062 0.23439 0.0
H1885 H 0.01546 0.42409 0.20951 0.0
H1886 H 0.04637 0.32778 0.23364 0.0
H1887 H 0.07623 0.44905 0.2254 0.0
H1888 H 0.02742 0.38833 0.21332 0.0
H1889 H 0.09877 0.38625 0.22613 0.0
C1890 C 0.09356 0.35308 0.23204 0.0
C1891 C 0.07902 0.33613 0.23414 0.0
C1892 C 0.03825 0.4016 0.21571 0.0
C1893 C 0.06621 0.3769 0.22499 0.0
C1894 C 0.03144 0.42208 0.21344 0.0
C1895 C 0.04496 0.43973 0.21654 0.0
C1896 C 0.0588 0.39857 0.22129 0.0
C1897 C 0.06544 0.43605 0.22199 0.0
C1898 C 0.08727 0.37341 0.22745 0.0
C1899 C 0.05815 0.34021 0.23141 0.0
N1900 N 0.07172 0.41591 0.22421 0.0
N1901 N 0.05238 0.36015 0.22697 0.0
H1902 H 0.90847 0.74448 0.51531 0.0
H1903 H 0.80887 0.80948 0.53256 0.0
H1904 H 0.91269 0.80905 0.53655 0.0
H1905 H 0.81113 0.76119 0.48513 0.0
H1906 H 0.84638 0.8085 0.53653 0.0
H1907 H 0.87229 0.7488 0.50613 0.0
C1908 C 0.90204 0.75975 0.51744 0.0
C1909 C 0.91385 0.7766 0.52618 0.0
C1910 C 0.83867 0.79837 0.52501 0.0
C1911 C 0.87206 0.78128 0.51686 0.0
C1912 C 0.81728 0.79913 0.52255 0.0
C1913 C 0.80689 0.78578 0.50812 0.0
C1914 C 0.84965 0.78376 0.51337 0.0
C1915 C 0.81856 0.77186 0.49634 0.0
C1916 C 0.88126 0.76212 0.51249 0.0
C1917 C 0.90418 0.79567 0.52974 0.0
N1918 N 0.83923 0.77106 0.49936 0.0
N1919 N 0.88385 0.79744 0.52527 0.0
H1920 H 0.29598 0.66358 0.49898 0.0
H1921 H 0.38573 0.75146 0.51417 0.0
H1922 H 0.28418 0.72565 0.52224 0.0
H1923 H 0.39006 0.70025 0.47008 0.0
H1924 H 0.34893 0.74185 0.51876 0.0
H1925 H 0.33089 0.67623 0.48914 0.0
C1926 C 0.30065 0.67997 0.50164 0.0
C1927 C 0.28714 0.69364 0.51125 0.0
C1928 C 0.35792 0.7329 0.5079 0.0
C1929 C 0.32724 0.70809 0.50065 0.0
C1930 C 0.37893 0.73831 0.50537 0.0
C1931 C 0.391 0.72671 0.49166 0.0
C1932 C 0.34902 0.71549 0.497 0.0
C1933 C 0.38132 0.70983 0.48061 0.0
C1934 C 0.32057 0.68719 0.49609 0.0
C1935 C 0.29403 0.7147 0.51457 0.0
N1936 N 0.36102 0.7046 0.48368 0.0
N1937 N 0.31369 0.72121 0.50956 0.0
H1938 H 0.9818 0.93684 0.32366 0.0
H1939 H 0.00553 0.84097 0.24739 0.0
H1940 H 0.00775 0.94553 0.26172 0.0
H1941 H 0.95916 0.83484 0.29571 0.0
H1942 H 0.01037 0.87866 0.25562 0.0
H1943 H 0.97575 0.89902 0.31623 0.0
C1944 C 0.98605 0.9308 0.30844 0.0
C1945 C 0.9957 0.94421 0.29345 0.0
C1946 C 0.99916 0.86909 0.26447 0.0
C1947 C 0.98927 0.901 0.28498 0.0
C1948 C 0.99646 0.8476 0.25983 0.0
C1949 C 0.9817 0.83496 0.27067 0.0
C1950 C 0.98725 0.87796 0.28035 0.0
C1951 C 0.97065 0.84416 0.28696 0.0
C1952 C 0.98272 0.90922 0.30425 0.0
C1953 C 1.00087 0.93561 0.27395 0.0
N1954 N 0.9736 0.86514 0.2913 0.0
N1955 N 0.99783 0.91454 0.27037 0.0
H1956 H 0.54244 0.07206 0.80384 0.0
H1957 H 0.52035 0.16657 0.72546 0.0
H1958 H 0.51987 0.06213 0.74074 0.0
H1959 H 0.56791 0.17316 0.7725 0.0
H1960 H 0.51573 0.12898 0.73437 0.0
H1961 H 0.54919 0.10972 0.79554 0.0
C1962 C 0.53917 0.0778 0.78817 0.0
C1963 C 0.53028 0.06414 0.77303 0.0
C1964 C 0.5272 0.13863 0.74275 0.0
C1965 C 0.53736 0.10705 0.76365 0.0
C1966 C 0.5298 0.16004 0.73769 0.0
C1967 C 0.54486 0.17275 0.74793 0.0
C1968 C 0.53942 0.12996 0.75853 0.0
C1969 C 0.55625 0.16375 0.76415 0.0
C1970 C 0.54288 0.09925 0.7835 0.0
C1971 C 0.52626 0.07229 0.75299 0.0
N1972 N 0.55334 0.14285 0.76896 0.0
N1973 N 0.52954 0.09326 0.74896 0.0
H1974 H 0.51222 0.30494 0.68362 0.0
H1975 H 0.51369 0.42566 0.72205 0.0
H1976 H 0.54921 0.32977 0.73497 0.0
H1977 H 0.48547 0.40367 0.66427 0.0
H1978 H 0.5209 0.38901 0.73108 0.0
H1979 H 0.49661 0.33943 0.68018 0.0
C1980 C 0.51682 0.31755 0.69433 0.0
C1981 C 0.53225 0.31463 0.70936 0.0
C1982 C 0.51287 0.39218 0.71655 0.0
C1983 C 0.51454 0.35401 0.7056 0.0
C1984 C 0.50861 0.41307 0.71151 0.0
C1985 C 0.49918 0.41769 0.6923 0.0
C1986 C 0.50756 0.37583 0.70231 0.0
C1987 C 0.49303 0.40078 0.67912 0.0
C1988 C 0.508 0.33724 0.69233 0.0
C1989 C 0.53765 0.3315 0.72289 0.0
N1990 N 0.49749 0.38066 0.68426 0.0
N1991 N 0.52894 0.35044 0.7206 0.0
H1992 H 0.86637 0.2891 0.94303 0.0
H1993 H 0.97361 0.2449 0.9807 0.0
H1994 H 0.87261 0.23995 0.98941 0.0
H1995 H 0.96987 0.29207 0.93161 0.0
H1996 H 0.93683 0.24348 0.9836 0.0
H1997 H 0.90393 0.29114 0.93864 0.0
C1998 C 0.87563 0.27892 0.9525 0.0
C1999 C 0.86624 0.26432 0.96665 0.0
C2000 C 0.94398 0.254 0.97199 0.0
C2001 C 0.9093 0.26648 0.96154 0.0
C2002 C 0.96534 0.25475 0.97005 0.0
C2003 C 0.97558 0.26834 0.9554 0.0
C2004 C 0.93222 0.26693 0.9593 0.0
C2005 C 0.96312 0.28109 0.94295 0.0
C2006 C 0.89707 0.27995 0.94981 0.0
C2007 C 0.87906 0.25131 0.9782 0.0
N2008 N 0.94218 0.28006 0.94517 0.0
N2009 N 0.89984 0.25274 0.97541 0.0
H2010 H 0.99196 0.69494 0.19392 0.0
H2011 H 0.00603 0.58195 0.24839 0.0
H2012 H 0.98893 0.68456 0.26086 0.0
H2013 H 0.00358 0.59209 0.18129 0.0
H2014 H 0.00526 0.6203 0.25361 0.0
H2015 H 0.00199 0.65834 0.18926 0.0
C2016 C 0.99402 0.68509 0.20765 0.0
C2017 C 0.98994 0.69275 0.22779 0.0
C2018 C 0.00507 0.61413 0.23774 0.0
C2019 C 1.00071 0.65073 0.22268 0.0
C2020 C 0.00561 0.59224 0.23476 0.0
C2021 C 0.00455 0.58374 0.21439 0.0
C2022 C 0.00362 0.62764 0.2202 0.0
C2023 C 0.00397 0.59788 0.19731 0.0
C2024 C 0.99953 0.66415 0.20503 0.0
C2025 C 0.99226 0.67923 0.24509 0.0
N2026 N 0.00337 0.61902 0.2006 0.0
N2027 N 0.99732 0.65885 0.24215 0.0
H2028 H 0.54998 0.72146 0.46981 0.0
H2029 H 0.64745 0.79809 0.49842 0.0
H2030 H 0.54565 0.78761 0.4832 0.0
H2031 H 0.65278 0.73404 0.47696 0.0
H2032 H 0.61017 0.79422 0.49384 0.0
H2033 H 0.58759 0.72555 0.47231 0.0
C2034 C 0.55702 0.73692 0.47295 0.0
C2035 C 0.54477 0.75421 0.47637 0.0
C2036 C 0.61948 0.78099 0.49015 0.0
C2037 C 0.58776 0.75903 0.4797 0.0
C2038 C 0.64084 0.78319 0.49274 0.0
C2039 C 0.65346 0.7664 0.488 0.0
C2040 C 0.61048 0.76183 0.48281 0.0
C2041 C 0.64378 0.74736 0.48109 0.0
C2042 C 0.57847 0.73924 0.47454 0.0
C2043 C 0.55461 0.77389 0.48057 0.0
N2044 N 0.62294 0.74562 0.47867 0.0
N2045 N 0.5755 0.77574 0.48228 0.0
H2046 H 0.68165 0.52747 0.4214 0.0
H2047 H 0.75045 0.58305 0.33057 0.0
H2048 H 0.74439 0.55062 0.43043 0.0
H2049 H 0.69618 0.54361 0.31771 0.0
H2050 H 0.74508 0.57735 0.36825 0.0
H2051 H 0.68358 0.539 0.38455 0.0
C2052 C 0.69572 0.53535 0.41569 0.0
C2053 C 0.71278 0.53843 0.4291 0.0
C2054 C 0.73414 0.57018 0.35724 0.0
C2055 C 0.71513 0.55157 0.38691 0.0
C2056 C 0.73712 0.57353 0.33572 0.0
C2057 C 0.72358 0.56404 0.32095 0.0
C2058 C 0.71747 0.55715 0.3642 0.0
C2059 C 0.7067 0.55167 0.32851 0.0
C2060 C 0.69682 0.54185 0.39466 0.0
C2061 C 0.73067 0.54854 0.42089 0.0
N2062 N 0.70417 0.5485 0.34962 0.0
N2063 N 0.7314 0.5547 0.40032 0.0
H2064 H 0.70717 0.51591 0.58433 0.0
H2065 H 0.76793 0.44386 0.66354 0.0
H2066 H 0.74751 0.46799 0.56377 0.0
H2067 H 0.73182 0.49548 0.68358 0.0
H2068 H 0.76427 0.45527 0.62699 0.0
H2069 H 0.71941 0.51157 0.62036 0.0
C2070 C 0.71884 0.50462 0.58743 0.0
C2071 C 0.72619 0.4921 0.57112 0.0
C2072 C 0.75739 0.46434 0.63934 0.0
C2073 C 0.74016 0.48686 0.61247 0.0
C2074 C 0.75949 0.45784 0.66022 0.0
C2075 C 0.74998 0.46864 0.67657 0.0
C2076 C 0.74548 0.48166 0.63467 0.0
C2077 C 0.73939 0.48673 0.67144 0.0
C2078 C 0.72583 0.50216 0.60801 0.0
C2079 C 0.74143 0.4779 0.57591 0.0
N2080 N 0.73715 0.49248 0.6509 0.0
N2081 N 0.7477 0.47544 0.59622 0.0
H2082 H 0.80839 0.44523 0.93281 0.0
H2083 H 0.77386 0.49284 0.82197 0.0
H2084 H 0.77655 0.503 0.9266 0.0
H2085 H 0.78569 0.427 0.82975 0.0
H2086 H 0.77941 0.49814 0.85982 0.0
H2087 H 0.80347 0.43882 0.89486 0.0
C2088 C 0.80014 0.4564 0.92344 0.0
C2089 C 0.79299 0.47473 0.93268 0.0
C2090 C 0.78091 0.48254 0.85328 0.0
C2091 C 0.78775 0.46785 0.88939 0.0
C2092 C 0.77788 0.47956 0.83168 0.0
C2093 C 0.77917 0.45944 0.82287 0.0
C2094 C 0.78553 0.4653 0.86615 0.0
C2095 C 0.78461 0.44277 0.83603 0.0
C2096 C 0.79746 0.45283 0.90183 0.0
C2097 C 0.78246 0.48878 0.91996 0.0
N2098 N 0.78753 0.44603 0.85705 0.0
N2099 N 0.78036 0.48519 0.89895 0.0
H2100 H 0.74661 0.58795 0.15932 0.0
H2101 H 0.77377 0.49384 0.08227 0.0
H2102 H 0.7578 0.52471 0.18034 0.0
H2103 H 0.77305 0.55889 0.06266 0.0
H2104 H 0.76047 0.50359 0.11675 0.0
H2105 H 0.74927 0.57631 0.12287 0.0
C2106 C 0.74953 0.57155 0.15628 0.0
C2107 C 0.75242 0.55737 0.173 0.0
C2108 C 0.76281 0.51571 0.10483 0.0
C2109 C 0.75524 0.54389 0.13111 0.0
C2110 C 0.77021 0.51012 0.08511 0.0
C2111 C 0.77437 0.52561 0.06966 0.0
C2112 C 0.75971 0.53701 0.10925 0.0
C2113 C 0.76982 0.5465 0.07412 0.0
C2114 C 0.75096 0.56492 0.13543 0.0
C2115 C 0.75554 0.53621 0.16802 0.0
N2116 N 0.76295 0.55165 0.09363 0.0
N2117 N 0.75711 0.53017 0.14754 0.0
H2118 H 0.47522 0.67496 0.70274 0.0
H2119 H 0.43621 0.55422 0.71092 0.0
H2120 H 0.41494 0.65637 0.72637 0.0
H2121 H 0.48477 0.57606 0.66894 0.0
H2122 H 0.42838 0.59108 0.7179 0.0
H2123 H 0.4797 0.63854 0.69151 0.0
C2124 C 0.4627 0.66335 0.70503 0.0
C2125 C 0.4444 0.66885 0.71485 0.0
C2126 C 0.44053 0.58778 0.70689 0.0
C2127 C 0.4498 0.62683 0.70301 0.0
C2128 C 0.44481 0.56672 0.70269 0.0
C2129 C 0.46086 0.56205 0.68897 0.0
C2130 C 0.45268 0.60427 0.69763 0.0
C2131 C 0.47217 0.57898 0.67954 0.0
C2132 C 0.46535 0.64247 0.69886 0.0
C2133 C 0.42918 0.65281 0.71859 0.0
N2134 N 0.46799 0.59927 0.68415 0.0
N2135 N 0.43223 0.63253 0.71276 0.0
loop_
_geom_bond_atom_site_label_1
_geom_bond_atom_site_label_2
_geom_bond_distance
_geom_bond_site_symmetry_2
_ccdc_geom_bond_type
C0 C1 1.443 . S
C0 N4 1.376 . S
C0 C38 1.389 . S
C1 C0 1.443 . S
C1 C2 1.340 . S
C1 H41 0.951 . S
C2 C1 1.340 . S
C2 C3 1.439 . S
C2 H42 0.950 . S
C3 C2 1.439 . S
C3 N4 1.374 . S
C3 C37 1.395 . S
N4 C0 1.376 . S
N4 C3 1.374 . S
N4 Co5 2.008 . S
Co5 N4 2.008 . S
Co5 N6 1.995 . S
Co5 N11 2.008 . S
Co5 N16 1.995 . S
Co5 N21 2.282 . S
Co5 N27 2.282 . S
N6 Co5 1.995 . S
N6 C7 1.376 . S
N6 C10 1.383 . S
C7 N6 1.376 . S
C7 C8 1.446 . S
C7 C37 1.391 . S
C8 C7 1.446 . S
C8 C9 1.339 . S
C8 H43 0.949 . S
C9 C8 1.339 . S
C9 C10 1.439 . S
C9 H44 0.950 . S
C10 N6 1.383 . S
C10 C9 1.439 . S
C10 C39 1.392 . S
N11 Co5 2.008 . S
N11 C12 1.376 . S
N11 C15 1.374 . S
C12 N11 1.376 . S
C12 C13 1.443 . S
C12 C39 1.389 . S
C13 C12 1.443 . S
C13 C14 1.340 . S
C13 H45 0.951 . S
C14 C13 1.340 . S
C14 C15 1.439 . S
C14 H46 0.950 . S
C15 N11 1.374 . S
C15 C14 1.439 . S
C15 C40 1.395 . S
N16 Co5 1.995 . S
N16 C17 1.376 . S
N16 C20 1.383 . S
C17 N16 1.376 . S
C17 C18 1.446 . S
C17 C40 1.391 . S
C18 C17 1.446 . S
C18 C19 1.339 . S
C18 H47 0.949 . S
C19 C18 1.339 . S
C19 C20 1.439 . S
C19 H48 0.950 . S
C20 N16 1.383 . S
C20 C19 1.439 . S
C20 C38 1.392 . S
N21 Co5 2.282 . S
N21 C24 1.332 . S
N21 C26 1.332 . S
C22 C23 1.386 . S
C22 C25 1.388 . S
C23 C22 1.386 . S
C23 C24 1.382 . S
C23 H49 0.950 . S
C24 N21 1.332 . S
C24 C23 1.382 . S
C24 H35 0.952 . S
C25 C22 1.388 . S
C25 C26 1.382 . S
C25 H50 0.950 . S
C26 N21 1.332 . S
C26 C25 1.382 . S
C26 H36 0.948 . S
N27 Co5 2.282 . S
N27 C31 1.332 . S
N27 C32 1.332 . S
C28 C29 1.388 . S
C28 C32 1.382 . S
C28 H51 0.950 . S
C29 C28 1.388 . S
C29 C30 1.386 . S
C30 C29 1.386 . S
C30 C31 1.382 . S
C30 H52 0.950 . S
C31 N27 1.332 . S
C31 C30 1.382 . S
C31 H33 0.952 . S
C32 N27 1.332 . S
C32 C28 1.382 . S
C32 H34 0.948 . S
H33 C31 0.952 . S
H34 C32 0.948 . S
H35 C24 0.952 . S
H36 C26 0.948 . S
C37 C3 1.395 . S
C37 C7 1.391 . S
C38 C0 1.389 . S
C38 C20 1.392 . S
C39 C10 1.392 . S
C39 C12 1.389 . S
C40 C15 1.395 . S
C40 C17 1.391 . S
H41 C1 0.951 . S
H42 C2 0.950 . S
H43 C8 0.949 . S
H44 C9 0.950 . S
H45 C13 0.951 . S
H46 C14 0.950 . S
H47 C18 0.949 . S
H48 C19 0.950 . S
H49 C23 0.950 . S
H50 C25 0.950 . S
H51 C28 0.950 . S
H52 C30 0.950 . S
C53 C54 1.443 . S
C53 N57 1.376 . S
C53 C91 1.389 . S
C54 C53 1.443 . S
C54 C55 1.340 . S
C54 H94 0.951 . S
C55 C54 1.340 . S
C55 C56 1.439 . S
C55 H95 0.950 . S
C56 C55 1.439 . S
C56 N57 1.374 . S
C56 C90 1.395 1_655 S
N57 C53 1.376 . S
N57 C56 1.374 . S
N57 Co58 2.008 1_655 S
Co58 N57 2.008 1_455 S
Co58 N59 1.995 . S
Co58 N64 2.008 . S
Co58 N69 1.995 1_455 S
Co58 N74 2.282 . S
Co58 N80 2.282 1_455 S
N59 Co58 1.995 . S
N59 C60 1.376 . S
N59 C63 1.383 . S
C60 N59 1.376 . S
C60 C61 1.446 . S
C60 C90 1.391 . S
C61 C60 1.446 . S
C61 C62 1.339 . S
C61 H96 0.949 . S
C62 C61 1.339 . S
C62 C63 1.439 . S
C62 H97 0.950 . S
C63 N59 1.383 . S
C63 C62 1.439 . S
C63 C92 1.392 . S
N64 Co58 2.008 . S
N64 C65 1.376 . S
N64 C68 1.374 . S
C65 N64 1.376 . S
C65 C66 1.443 . S
C65 C92 1.389 . S
C66 C65 1.443 . S
C66 C67 1.340 . S
C66 H98 0.951 . S
C67 C66 1.340 . S
C67 C68 1.439 . S
C67 H99 0.950 . S
C68 N64 1.374 . S
C68 C67 1.439 . S
C68 C93 1.395 1_455 S
N69 Co58 1.995 1_655 S
N69 C70 1.376 . S
N69 C73 1.383 . S
C70 N69 1.376 . S
C70 C71 1.446 . S
C70 C93 1.391 . S
C71 C70 1.446 . S
C71 C72 1.339 . S
C71 H100 0.949 . S
C72 C71 1.339 . S
C72 C73 1.439 . S
C72 H101 0.950 . S
C73 N69 1.383 . S
C73 C72 1.439 . S
C73 C91 1.392 . S
N74 Co58 2.282 . S
N74 C77 1.332 . S
N74 C79 1.332 . S
C75 C76 1.386 . S
C75 C78 1.388 . S
C76 C75 1.386 . S
C76 C77 1.382 . S
C76 H102 0.950 . S
C77 N74 1.332 . S
C77 C76 1.382 . S
C77 H88 0.952 1_455 S
C78 C75 1.388 . S
C78 C79 1.382 . S
C78 H103 0.950 . S
C79 N74 1.332 . S
C79 C78 1.382 . S
C79 H89 0.948 . S
N80 Co58 2.282 1_655 S
N80 C84 1.332 . S
N80 C85 1.332 . S
C81 C82 1.388 . S
C81 C85 1.382 . S
C81 H104 0.950 . S
C82 C81 1.388 . S
C82 C83 1.386 . S
C83 C82 1.386 . S
C83 C84 1.382 . S
C83 H105 0.950 . S
C84 N80 1.332 . S
C84 C83 1.382 . S
C84 H86 0.952 1_655 S
C85 N80 1.332 . S
C85 C81 1.382 . S
C85 H87 0.948 . S
H86 C84 0.952 1_455 S
H87 C85 0.948 . S
H88 C77 0.952 1_655 S
H89 C79 0.948 . S
C90 C56 1.395 1_455 S
C90 C60 1.391 . S
C91 C53 1.389 . S
C91 C73 1.392 . S
C92 C63 1.392 . S
C92 C65 1.389 . S
C93 C68 1.395 1_655 S
C93 C70 1.391 . S
H94 C54 0.951 . S
H95 C55 0.950 . S
H96 C61 0.949 . S
H97 C62 0.950 . S
H98 C66 0.951 . S
H99 C67 0.950 . S
H100 C71 0.949 . S
H101 C72 0.950 . S
H102 C76 0.950 . S
H103 C78 0.950 . S
H104 C81 0.950 . S
H105 C83 0.950 . S
C106 C107 1.443 . S
C106 N110 1.376 . S
C106 C144 1.389 . S
C107 C106 1.443 . S
C107 C108 1.340 . S
C107 H147 0.951 . S
C108 C107 1.340 . S
C108 C109 1.439 . S
C108 H148 0.950 . S
C109 C108 1.439 . S
C109 N110 1.374 . S
C109 C143 1.395 . S
N110 C106 1.376 . S
N110 C109 1.374 . S
N110 Co111 2.008 . S
Co111 N110 2.008 . S
Co111 N112 1.995 . S
Co111 N117 2.008 . S
Co111 N122 1.995 . S
Co111 N127 2.282 . S
Co111 N133 2.282 . S
N112 Co111 1.995 . S
N112 C113 1.376 . S
N112 C116 1.383 . S
C113 N112 1.376 . S
C113 C114 1.446 . S
C113 C143 1.391 . S
C114 C113 1.446 . S
C114 C115 1.339 . S
C114 H149 0.949 . S
C115 C114 1.339 . S
C115 C116 1.439 . S
C115 H150 0.950 . S
C116 N112 1.383 . S
C116 C115 1.439 . S
C116 C145 1.392 . S
N117 Co111 2.008 . S
N117 C118 1.376 . S
N117 C121 1.374 . S
C118 N117 1.376 . S
C118 C119 1.443 . S
C118 C145 1.389 . S
C119 C118 1.443 . S
C119 C120 1.340 . S
C119 H151 0.951 . S
C120 C119 1.340 . S
C120 C121 1.439 . S
C120 H152 0.950 . S
C121 N117 1.374 . S
C121 C120 1.439 . S
C121 C146 1.395 . S
N122 Co111 1.995 . S
N122 C123 1.376 . S
N122 C126 1.383 . S
C123 N122 1.376 . S
C123 C124 1.446 . S
C123 C146 1.391 . S
C124 C123 1.446 . S
C124 C125 1.339 . S
C124 H153 0.949 . S
C125 C124 1.339 . S
C125 C126 1.439 . S
C125 H154 0.950 . S
C126 N122 1.383 . S
C126 C125 1.439 . S
C126 C144 1.392 . S
N127 Co111 2.282 . S
N127 C130 1.332 . S
N127 C132 1.332 . S
C128 C129 1.386 . S
C128 C131 1.388 . S
C129 C128 1.386 . S
C129 C130 1.382 . S
C129 H155 0.950 . S
C130 N127 1.332 . S
C130 C129 1.382 . S
C130 H141 0.952 . S
C131 C128 1.388 . S
C131 C132 1.382 . S
C131 H156 0.950 . S
C132 N127 1.332 . S
C132 C131 1.382 . S
C132 H142 0.948 . S
N133 Co111 2.282 . S
N133 C137 1.332 . S
N133 C138 1.332 . S
C134 C135 1.388 . S
C134 C138 1.382 . S
C134 H157 0.950 . S
C135 C134 1.388 . S
C135 C136 1.386 . S
C136 C135 1.386 . S
C136 C137 1.382 . S
C136 H158 0.950 . S
C137 N133 1.332 . S
C137 C136 1.382 . S
C137 H139 0.952 . S
C138 N133 1.332 . S
C138 C134 1.382 . S
C138 H140 0.948 . S
H139 C137 0.952 . S
H140 C138 0.948 . S
H141 C130 0.952 . S
H142 C132 0.948 . S
C143 C109 1.395 . S
C143 C113 1.391 . S
C144 C106 1.389 . S
C144 C126 1.392 . S
C145 C116 1.392 . S
C145 C118 1.389 . S
C146 C121 1.395 . S
C146 C123 1.391 . S
H147 C107 0.951 . S
H148 C108 0.950 . S
H149 C114 0.949 . S
H150 C115 0.950 . S
H151 C119 0.951 . S
H152 C120 0.950 . S
H153 C124 0.949 . S
H154 C125 0.950 . S
H155 C129 0.950 . S
H156 C131 0.950 . S
H157 C134 0.950 . S
H158 C136 0.950 . S
C159 C160 1.443 . S
C159 N163 1.376 . S
C159 C197 1.389 . S
C160 C159 1.443 . S
C160 C161 1.340 . S
C160 H200 0.951 . S
C161 C160 1.340 . S
C161 C162 1.439 . S
C161 H201 0.950 . S
C162 C161 1.439 . S
C162 N163 1.374 . S
C162 C196 1.395 . S
N163 C159 1.376 . S
N163 C162 1.374 . S
N163 Co164 2.008 . S
Co164 N163 2.008 . S
Co164 N165 1.995 . S
Co164 N170 2.008 1_556 S
Co164 N175 1.995 1_556 S
Co164 N180 2.282 1_556 S
Co164 N186 2.282 . S
N165 Co164 1.995 . S
N165 C166 1.376 . S
N165 C169 1.383 . S
C166 N165 1.376 . S
C166 C167 1.446 . S
C166 C196 1.391 . S
C167 C166 1.446 . S
C167 C168 1.339 . S
C167 H202 0.949 . S
C168 C167 1.339 . S
C168 C169 1.439 . S
C168 H203 0.950 . S
C169 N165 1.383 . S
C169 C168 1.439 . S
C169 C198 1.392 1_556 S
N170 Co164 2.008 1_554 S
N170 C171 1.376 . S
N170 C174 1.374 . S
C171 N170 1.376 . S
C171 C172 1.443 . S
C171 C198 1.389 . S
C172 C171 1.443 . S
C172 C173 1.340 . S
C172 H204 0.951 . S
C173 C172 1.340 . S
C173 C174 1.439 . S
C173 H205 0.950 . S
C174 N170 1.374 . S
C174 C173 1.439 . S
C174 C199 1.395 . S
N175 Co164 1.995 1_554 S
N175 C176 1.376 . S
N175 C179 1.383 . S
C176 N175 1.376 . S
C176 C177 1.446 . S
C176 C199 1.391 . S
C177 C176 1.446 . S
C177 C178 1.339 . S
C177 H206 0.949 . S
C178 C177 1.339 . S
C178 C179 1.439 . S
C178 H207 0.950 . S
C179 N175 1.383 . S
C179 C178 1.439 . S
C179 C197 1.392 1_554 S
N180 Co164 2.282 1_554 S
N180 C183 1.332 . S
N180 C185 1.332 . S
C181 C182 1.386 . S
C181 C184 1.388 . S
C182 C181 1.386 . S
C182 C183 1.382 . S
C182 H208 0.950 . S
C183 N180 1.332 . S
C183 C182 1.382 . S
C183 H194 0.952 . S
C184 C181 1.388 . S
C184 C185 1.382 . S
C184 H209 0.950 . S
C185 N180 1.332 . S
C185 C184 1.382 . S
C185 H195 0.948 1_554 S
N186 Co164 2.282 . S
N186 C190 1.332 . S
N186 C191 1.332 . S
C187 C188 1.388 . S
C187 C191 1.382 . S
C187 H210 0.950 . S
C188 C187 1.388 . S
C188 C189 1.386 . S
C189 C188 1.386 . S
C189 C190 1.382 . S
C189 H211 0.950 . S
C190 N186 1.332 . S
C190 C189 1.382 . S
C190 H192 0.952 . S
C191 N186 1.332 . S
C191 C187 1.382 . S
C191 H193 0.948 1_556 S
H192 C190 0.952 . S
H193 C191 0.948 1_554 S
H194 C183 0.952 . S
H195 C185 0.948 1_556 S
C196 C162 1.395 . S
C196 C166 1.391 . S
C197 C159 1.389 . S
C197 C179 1.392 1_556 S
C198 C169 1.392 1_554 S
C198 C171 1.389 . S
C199 C174 1.395 . S
C199 C176 1.391 . S
H200 C160 0.951 . S
H201 C161 0.950 . S
H202 C167 0.949 . S
H203 C168 0.950 . S
H204 C172 0.951 . S
H205 C173 0.950 . S
H206 C177 0.949 . S
H207 C178 0.950 . S
H208 C182 0.950 . S
H209 C184 0.950 . S
H210 C187 0.950 . S
H211 C189 0.950 . S
C212 C213 1.443 . S
C212 N216 1.375 1_565 S
C212 C250 1.389 . S
C213 C212 1.443 . S
C213 C214 1.340 1_565 S
C213 H253 0.951 . S
C214 C213 1.340 1_545 S
C214 C215 1.439 . S
C214 H254 0.950 . S
C215 C214 1.439 . S
C215 N216 1.374 . S
C215 C249 1.395 . S
N216 C212 1.375 1_545 S
N216 C215 1.374 . S
N216 Co217 2.008 1_645 S
Co217 N216 2.008 1_465 S
Co217 N218 1.995 1_465 S
Co217 N223 2.007 . S
Co217 N228 1.995 . S
Co217 N233 2.282 1_565 S
Co217 N239 2.282 1_455 S
N218 Co217 1.995 1_645 S
N218 C219 1.376 . S
N218 C222 1.383 1_655 S
C219 N218 1.376 . S
C219 C220 1.446 . S
C219 C249 1.391 . S
C220 C219 1.446 . S
C220 C221 1.339 1_655 S
C220 H255 0.949 . S
C221 C220 1.339 1_455 S
C221 C222 1.439 . S
C221 H256 0.950 . S
C222 N218 1.383 1_455 S
C222 C221 1.439 . S
C222 C251 1.392 . S
N223 Co217 2.007 . S
N223 C224 1.369 1_565 S
N223 C227 1.380 . S
C224 N223 1.369 1_545 S
C224 C225 1.443 . S
C224 C251 1.389 . S
C225 C224 1.443 . S
C225 C226 1.340 1_545 S
C225 H257 0.951 . S
C226 C225 1.340 1_565 S
C226 C227 1.439 . S
C226 H258 0.950 . S
C227 N223 1.380 . S
C227 C226 1.439 . S
C227 C252 1.395 . S
N228 Co217 1.995 . S
N228 C229 1.376 . S
N228 C232 1.383 1_455 S
C229 N228 1.376 . S
C229 C230 1.446 . S
C229 C252 1.391 . S
C230 C229 1.446 . S
C230 C231 1.339 1_455 S
C230 H259 0.949 . S
C231 C230 1.339 1_655 S
C231 C232 1.439 . S
C231 H260 0.950 . S
C232 N228 1.383 1_655 S
C232 C231 1.439 . S
C232 C250 1.392 . S
N233 Co217 2.282 1_545 S
N233 C236 1.332 . S
N233 C238 1.332 . S
C234 C235 1.386 . S
C234 C237 1.388 . S
C235 C234 1.386 . S
C235 C236 1.382 . S
C235 H261 0.950 . S
C236 N233 1.332 . S
C236 C235 1.382 . S
C236 H247 0.952 . S
C237 C234 1.388 . S
C237 C238 1.382 . S
C237 H262 0.950 . S
C238 N233 1.332 . S
C238 C237 1.382 . S
C238 H248 0.948 1_455 S
N239 Co217 2.282 1_655 S
N239 C243 1.332 . S
N239 C244 1.332 . S
C240 C241 1.388 . S
C240 C244 1.382 . S
C240 H263 0.950 . S
C241 C240 1.388 . S
C241 C242 1.386 . S
C242 C241 1.386 . S
C242 C243 1.382 . S
C242 H264 0.950 . S
C243 N239 1.332 . S
C243 C242 1.382 . S
C243 H245 0.952 . S
C244 N239 1.332 . S
C244 C240 1.382 . S
C244 H246 0.948 1_655 S
H245 C243 0.952 . S
H246 C244 0.948 1_455 S
H247 C236 0.952 . S
H248 C238 0.948 1_655 S
C249 C215 1.395 . S
C249 C219 1.391 . S
C250 C212 1.389 . S
C250 C232 1.392 . S
C251 C222 1.392 . S
C251 C224 1.389 . S
C252 C227 1.395 . S
C252 C229 1.391 . S
H253 C213 0.951 . S
H254 C214 0.950 . S
H255 C220 0.949 . S
H256 C221 0.950 . S
H257 C225 0.951 . S
H258 C226 0.950 . S
H259 C230 0.949 . S
H260 C231 0.950 . S
H261 C235 0.950 . S
H262 C237 0.950 . S
H263 C240 0.950 . S
H264 C242 0.950 . S
C265 C266 1.443 . S
C265 N269 1.376 . S
C265 C303 1.389 . S
C266 C265 1.443 . S
C266 C267 1.340 . S
C266 H306 0.951 . S
C267 C266 1.340 . S
C267 C268 1.439 . S
C267 H307 0.950 . S
C268 C267 1.439 . S
C268 N269 1.374 . S
C268 C302 1.395 . S
N269 C265 1.376 . S
N269 C268 1.374 . S
N269 Co270 2.008 . S
Co270 N269 2.008 . S
Co270 N271 1.995 . S
Co270 N276 2.008 . S
Co270 N281 1.995 . S
Co270 N286 2.282 . S
Co270 N292 2.282 . S
N271 Co270 1.995 . S
N271 C272 1.376 . S
N271 C275 1.383 . S
C272 N271 1.376 . S
C272 C273 1.446 . S
C272 C302 1.391 . S
C273 C272 1.446 . S
C273 C274 1.339 . S
C273 H308 0.949 . S
C274 C273 1.339 . S
C274 C275 1.439 . S
C274 H309 0.950 . S
C275 N271 1.383 . S
C275 C274 1.439 . S
C275 C304 1.392 . S
N276 Co270 2.008 . S
N276 C277 1.376 . S
N276 C280 1.374 . S
C277 N276 1.376 . S
C277 C278 1.443 . S
C277 C304 1.389 . S
C278 C277 1.443 . S
C278 C279 1.340 . S
C278 H310 0.951 . S
C279 C278 1.340 . S
C279 C280 1.439 . S
C279 H311 0.950 . S
C280 N276 1.374 . S
C280 C279 1.439 . S
C280 C305 1.395 . S
N281 Co270 1.995 . S
N281 C282 1.376 . S
N281 C285 1.383 . S
C282 N281 1.376 . S
C282 C283 1.446 . S
C282 C305 1.391 . S
C283 C282 1.446 . S
C283 C284 1.339 . S
C283 H312 0.949 . S
C284 C283 1.339 . S
C284 C285 1.439 . S
C284 H313 0.950 . S
C285 N281 1.383 . S
C285 C284 1.439 . S
C285 C303 1.392 . S
N286 Co270 2.282 . S
N286 C289 1.332 . S
N286 C291 1.332 . S
C287 C288 1.386 . S
C287 C290 1.388 . S
C288 C287 1.386 . S
C288 C289 1.382 . S
C288 H314 0.950 . S
C289 N286 1.332 . S
C289 C288 1.382 . S
C289 H300 0.952 . S
C290 C287 1.388 . S
C290 C291 1.382 . S
C290 H315 0.950 . S
C291 N286 1.332 . S
C291 C290 1.382 . S
C291 H301 0.948 . S
N292 Co270 2.282 . S
N292 C296 1.332 . S
N292 C297 1.332 . S
C293 C294 1.388 . S
C293 C297 1.382 . S
C293 H316 0.950 . S
C294 C293 1.388 . S
C294 C295 1.386 . S
C295 C294 1.386 . S
C295 C296 1.382 . S
C295 H317 0.950 . S
C296 N292 1.332 . S
C296 C295 1.382 . S
C296 H298 0.952 . S
C297 N292 1.332 . S
C297 C293 1.382 . S
C297 H299 0.948 . S
H298 C296 0.952 . S
H299 C297 0.948 . S
H300 C289 0.952 . S
H301 C291 0.948 . S
C302 C268 1.395 . S
C302 C272 1.391 . S
C303 C265 1.389 . S
C303 C285 1.392 . S
C304 C275 1.392 . S
C304 C277 1.389 . S
C305 C280 1.395 . S
C305 C282 1.391 . S
H306 C266 0.951 . S
H307 C267 0.950 . S
H308 C273 0.949 . S
H309 C274 0.950 . S
H310 C278 0.951 . S
H311 C279 0.950 . S
H312 C283 0.949 . S
H313 C284 0.950 . S
H314 C288 0.950 . S
H315 C290 0.950 . S
H316 C293 0.950 . S
H317 C295 0.950 . S
C318 C319 1.443 . S
C318 N322 1.401 . S
C318 C356 1.389 . S
C319 C318 1.443 . S
C319 C320 1.340 1_545 S
C319 H359 0.951 . S
C320 C319 1.340 1_565 S
C320 C321 1.439 . S
C320 H360 0.950 . S
C321 C320 1.439 . S
C321 N322 1.356 1_565 S
C321 C355 1.395 . S
N322 C318 1.401 . S
N322 C321 1.356 1_545 S
N322 Co323 2.010 . S
Co323 N322 2.010 . S
Co323 N324 1.995 1_545 S
Co323 N329 2.009 1_545 S
Co323 N334 1.995 . S
Co323 N339 2.282 1_545 S
Co323 N345 2.282 . S
N324 Co323 1.995 1_565 S
N324 C325 1.376 . S
N324 C328 1.383 . S
C325 N324 1.376 . S
C325 C326 1.446 . S
C325 C355 1.391 . S
C326 C325 1.446 . S
C326 C327 1.339 . S
C326 H361 0.949 . S
C327 C326 1.339 . S
C327 C328 1.439 . S
C327 H362 0.950 . S
C328 N324 1.383 . S
C328 C327 1.439 . S
C328 C357 1.392 . S
N329 Co323 2.009 1_565 S
N329 C330 1.394 . S
N329 C333 1.361 1_565 S
C330 N329 1.394 . S
C330 C331 1.443 . S
C330 C357 1.389 . S
C331 C330 1.443 . S
C331 C332 1.333 1_565 S
C331 H363 0.951 . S
C332 C331 1.333 1_545 S
C332 C333 1.442 . S
C332 H364 0.953 . S
C333 N329 1.361 1_545 S
C333 C332 1.442 . S
C333 C358 1.395 . S
N334 Co323 1.995 . S
N334 C335 1.376 . S
N334 C338 1.383 . S
C335 N334 1.376 . S
C335 C336 1.446 . S
C335 C358 1.391 . S
C336 C335 1.446 . S
C336 C337 1.339 . S
C336 H365 0.949 . S
C337 C336 1.339 . S
C337 C338 1.439 . S
C337 H366 0.950 . S
C338 N334 1.383 . S
C338 C337 1.439 . S
C338 C356 1.392 . S
N339 Co323 2.282 1_565 S
N339 C342 1.332 . S
N339 C344 1.332 . S
C340 C341 1.386 . S
C340 C343 1.388 . S
C341 C340 1.386 . S
C341 C342 1.382 . S
C341 H367 0.950 . S
C342 N339 1.332 . S
C342 C341 1.382 . S
C342 H353 0.952 . S
C343 C340 1.388 . S
C343 C344 1.382 . S
C343 H368 0.950 . S
C344 N339 1.332 . S
C344 C343 1.382 . S
C344 H354 0.948 . S
N345 Co323 2.282 . S
N345 C349 1.332 . S
N345 C350 1.332 . S
C346 C347 1.388 . S
C346 C350 1.382 . S
C346 H369 0.950 . S
C347 C346 1.388 . S
C347 C348 1.386 . S
C348 C347 1.386 . S
C348 C349 1.382 . S
C348 H370 0.950 . S
C349 N345 1.332 . S
C349 C348 1.382 . S
C349 H351 0.952 . S
C350 N345 1.332 . S
C350 C346 1.382 . S
C350 H352 0.948 . S
H351 C349 0.952 . S
H352 C350 0.948 . S
H353 C342 0.952 . S
H354 C344 0.948 . S
C355 C321 1.395 . S
C355 C325 1.391 . S
C356 C318 1.389 . S
C356 C338 1.392 . S
C357 C328 1.392 . S
C357 C330 1.389 . S
C358 C333 1.395 . S
C358 C335 1.391 . S
H359 C319 0.951 . S
H360 C320 0.950 . S
H361 C326 0.949 . S
H362 C327 0.950 . S
H363 C331 0.951 . S
H364 C332 0.953 . S
H365 C336 0.949 . S
H366 C337 0.950 . S
H367 C341 0.950 . S
H368 C343 0.950 . S
H369 C346 0.950 . S
H370 C348 0.950 . S
C371 C372 1.443 . S
C371 N375 1.376 . S
C371 C409 1.389 . S
C372 C371 1.443 . S
C372 C373 1.340 . S
C372 H412 0.951 . S
C373 C372 1.340 . S
C373 C374 1.439 . S
C373 H413 0.950 . S
C374 C373 1.439 . S
C374 N375 1.374 . S
C374 C408 1.395 . S
N375 C371 1.376 . S
N375 C374 1.374 . S
N375 Co376 2.008 . S
Co376 N375 2.008 . S
Co376 N377 1.995 . S
Co376 N382 2.008 . S
Co376 N387 1.995 . S
Co376 N392 2.282 . S
Co376 N398 2.282 . S
N377 Co376 1.995 . S
N377 C378 1.376 . S
N377 C381 1.383 . S
C378 N377 1.376 . S
C378 C379 1.446 . S
C378 C408 1.391 . S
C379 C378 1.446 . S
C379 C380 1.339 . S
C379 H414 0.949 . S
C380 C379 1.339 . S
C380 C381 1.439 . S
C380 H415 0.950 . S
C381 N377 1.383 . S
C381 C380 1.439 . S
C381 C410 1.392 . S
N382 Co376 2.008 . S
N382 C383 1.376 . S
N382 C386 1.374 . S
C383 N382 1.376 . S
C383 C384 1.443 . S
C383 C410 1.389 . S
C384 C383 1.443 . S
C384 C385 1.340 . S
C384 H416 0.951 . S
C385 C384 1.340 . S
C385 C386 1.439 . S
C385 H417 0.950 . S
C386 N382 1.374 . S
C386 C385 1.439 . S
C386 C411 1.395 . S
N387 Co376 1.995 . S
N387 C388 1.376 . S
N387 C391 1.383 . S
C388 N387 1.376 . S
C388 C389 1.446 . S
C388 C411 1.391 . S
C389 C388 1.446 . S
C389 C390 1.339 . S
C389 H418 0.949 . S
C390 C389 1.339 . S
C390 C391 1.439 . S
C390 H419 0.950 . S
C391 N387 1.383 . S
C391 C390 1.439 . S
C391 C409 1.392 . S
N392 Co376 2.282 . S
N392 C395 1.332 . S
N392 C397 1.332 . S
C393 C394 1.386 . S
C393 C396 1.388 . S
C394 C393 1.386 . S
C394 C395 1.382 . S
C394 H420 0.950 . S
C395 N392 1.332 . S
C395 C394 1.382 . S
C395 H406 0.952 . S
C396 C393 1.388 . S
C396 C397 1.382 . S
C396 H421 0.950 . S
C397 N392 1.332 . S
C397 C396 1.382 . S
C397 H407 0.948 . S
N398 Co376 2.282 . S
N398 C402 1.332 . S
N398 C403 1.332 . S
C399 C400 1.388 . S
C399 C403 1.382 . S
C399 H422 0.950 . S
C400 C399 1.388 . S
C400 C401 1.386 . S
C401 C400 1.386 . S
C401 C402 1.382 . S
C401 H423 0.950 . S
C402 N398 1.332 . S
C402 C401 1.382 . S
C402 H404 0.952 . S
C403 N398 1.332 . S
C403 C399 1.382 . S
C403 H405 0.948 . S
H404 C402 0.952 . S
H405 C403 0.948 . S
H406 C395 0.952 . S
H407 C397 0.948 . S
C408 C374 1.395 . S
C408 C378 1.391 . S
C409 C371 1.389 . S
C409 C391 1.392 . S
C410 C381 1.392 . S
C410 C383 1.389 . S
C411 C386 1.395 . S
C411 C388 1.391 . S
H412 C372 0.951 . S
H413 C373 0.950 . S
H414 C379 0.949 . S
H415 C380 0.950 . S
H416 C384 0.951 . S
H417 C385 0.950 . S
H418 C389 0.949 . S
H419 C390 0.950 . S
H420 C394 0.950 . S
H421 C396 0.950 . S
H422 C399 0.950 . S
H423 C401 0.950 . S
C424 C425 1.443 . S
C424 N428 1.376 . S
C424 C462 1.389 . S
C425 C424 1.443 . S
C425 C426 1.340 . S
C425 H465 0.951 . S
C426 C425 1.340 . S
C426 C427 1.439 . S
C426 H466 0.950 . S
C427 C426 1.439 . S
C427 N428 1.374 . S
C427 C461 1.395 . S
N428 C424 1.376 . S
N428 C427 1.374 . S
N428 Co429 2.008 . S
Co429 N428 2.008 . S
Co429 N430 1.995 . S
Co429 N435 2.008 . S
Co429 N440 1.995 . S
Co429 N445 2.282 . S
Co429 N451 2.282 . S
N430 Co429 1.995 . S
N430 C431 1.376 . S
N430 C434 1.383 . S
C431 N430 1.376 . S
C431 C432 1.446 . S
C431 C461 1.391 . S
C432 C431 1.446 . S
C432 C433 1.339 . S
C432 H467 0.949 . S
C433 C432 1.339 . S
C433 C434 1.439 . S
C433 H468 0.950 . S
C434 N430 1.383 . S
C434 C433 1.439 . S
C434 C463 1.392 . S
N435 Co429 2.008 . S
N435 C436 1.376 . S
N435 C439 1.374 . S
C436 N435 1.376 . S
C436 C437 1.443 . S
C436 C463 1.389 . S
C437 C436 1.443 . S
C437 C438 1.340 . S
C437 H469 0.951 . S
C438 C437 1.340 . S
C438 C439 1.439 . S
C438 H470 0.950 . S
C439 N435 1.374 . S
C439 C438 1.439 . S
C439 C464 1.395 . S
N440 Co429 1.995 . S
N440 C441 1.376 . S
N440 C444 1.383 . S
C441 N440 1.376 . S
C441 C442 1.446 . S
C441 C464 1.391 . S
C442 C441 1.446 . S
C442 C443 1.339 . S
C442 H471 0.949 . S
C443 C442 1.339 . S
C443 C444 1.439 . S
C443 H472 0.950 . S
C444 N440 1.383 . S
C444 C443 1.439 . S
C444 C462 1.392 . S
N445 Co429 2.282 . S
N445 C448 1.332 . S
N445 C450 1.332 . S
C446 C447 1.386 . S
C446 C449 1.388 . S
C447 C446 1.386 . S
C447 C448 1.382 . S
C447 H473 0.950 . S
C448 N445 1.332 . S
C448 C447 1.382 . S
C448 H459 0.952 . S
C449 C446 1.388 . S
C449 C450 1.382 . S
C449 H474 0.950 . S
C450 N445 1.332 . S
C450 C449 1.382 . S
C450 H460 0.948 . S
N451 Co429 2.282 . S
N451 C455 1.332 . S
N451 C456 1.332 . S
C452 C453 1.388 . S
C452 C456 1.382 . S
C452 H475 0.950 . S
C453 C452 1.388 . S
C453 C454 1.386 . S
C454 C453 1.386 . S
C454 C455 1.382 . S
C454 H476 0.950 . S
C455 N451 1.332 . S
C455 C454 1.382 . S
C455 H457 0.952 . S
C456 N451 1.332 . S
C456 C452 1.382 . S
C456 H458 0.948 . S
H457 C455 0.952 . S
H458 C456 0.948 . S
H459 C448 0.952 . S
H460 C450 0.948 . S
C461 C427 1.395 . S
C461 C431 1.391 . S
C462 C424 1.389 . S
C462 C444 1.392 . S
C463 C434 1.392 . S
C463 C436 1.389 . S
C464 C439 1.395 . S
C464 C441 1.391 . S
H465 C425 0.951 . S
H466 C426 0.950 . S
H467 C432 0.949 . S
H468 C433 0.950 . S
H469 C437 0.951 . S
H470 C438 0.950 . S
H471 C442 0.949 . S
H472 C443 0.950 . S
H473 C447 0.950 . S
H474 C449 0.950 . S
H475 C452 0.950 . S
H476 C454 0.950 . S
C477 C478 1.443 . S
C477 N481 1.376 . S
C477 C515 1.389 . S
C478 C477 1.443 . S
C478 C479 1.340 . S
C478 H518 0.951 . S
C479 C478 1.340 . S
C479 C480 1.439 . S
C479 H519 0.950 . S
C480 C479 1.439 . S
C480 N481 1.374 . S
C480 C514 1.395 . S
N481 C477 1.376 . S
N481 C480 1.374 . S
N481 Co482 2.008 . S
Co482 N481 2.008 . S
Co482 N483 1.995 . S
Co482 N488 2.008 1_565 S
Co482 N493 1.995 1_565 S
Co482 N498 2.282 1_565 S
Co482 N504 2.282 . S
N483 Co482 1.995 . S
N483 C484 1.376 . S
N483 C487 1.383 . S
C484 N483 1.376 . S
C484 C485 1.446 . S
C484 C514 1.391 . S
C485 C484 1.446 . S
C485 C486 1.339 . S
C485 H520 0.949 . S
C486 C485 1.339 . S
C486 C487 1.439 . S
C486 H521 0.950 . S
C487 N483 1.383 . S
C487 C486 1.439 . S
C487 C516 1.392 1_565 S
N488 Co482 2.008 1_545 S
N488 C489 1.376 . S
N488 C492 1.374 . S
C489 N488 1.376 . S
C489 C490 1.443 . S
C489 C516 1.389 . S
C490 C489 1.443 . S
C490 C491 1.340 . S
C490 H522 0.951 . S
C491 C490 1.340 . S
C491 C492 1.439 . S
C491 H523 0.950 . S
C492 N488 1.374 . S
C492 C491 1.439 . S
C492 C517 1.395 . S
N493 Co482 1.995 1_545 S
N493 C494 1.376 . S
N493 C497 1.383 1_545 S
C494 N493 1.376 . S
C494 C495 1.446 . S
C494 C517 1.391 . S
C495 C494 1.446 . S
C495 C496 1.339 . S
C495 H524 0.949 . S
C496 C495 1.339 . S
C496 C497 1.439 1_545 S
C496 H525 0.950 . S
C497 N493 1.383 1_565 S
C497 C496 1.439 1_565 S
C497 C515 1.392 . S
N498 Co482 2.282 1_545 S
N498 C501 1.332 . S
N498 C503 1.332 . S
C499 C500 1.386 . S
C499 C502 1.388 . S
C500 C499 1.386 . S
C500 C501 1.382 . S
C500 H526 0.950 . S
C501 N498 1.332 . S
C501 C500 1.382 . S
C501 H512 0.952 . S
C502 C499 1.388 . S
C502 C503 1.382 . S
C502 H527 0.950 . S
C503 N498 1.332 . S
C503 C502 1.382 . S
C503 H513 0.948 1_545 S
N504 Co482 2.282 . S
N504 C508 1.332 . S
N504 C509 1.332 . S
C505 C506 1.388 . S
C505 C509 1.382 . S
C505 H528 0.950 . S
C506 C505 1.388 . S
C506 C507 1.386 . S
C507 C506 1.386 . S
C507 C508 1.382 . S
C507 H529 0.950 . S
C508 N504 1.332 . S
C508 C507 1.382 . S
C508 H510 0.952 . S
C509 N504 1.332 . S
C509 C505 1.382 . S
C509 H511 0.948 . S
H510 C508 0.952 . S
H511 C509 0.948 . S
H512 C501 0.952 . S
H513 C503 0.948 1_565 S
C514 C480 1.395 . S
C514 C484 1.391 . S
C515 C477 1.389 . S
C515 C497 1.392 . S
C516 C487 1.392 1_545 S
C516 C489 1.389 . S
C517 C492 1.395 . S
C517 C494 1.391 . S
H518 C478 0.951 . S
H519 C479 0.950 . S
H520 C485 0.949 . S
H521 C486 0.950 . S
H522 C490 0.951 . S
H523 C491 0.950 . S
H524 C495 0.949 . S
H525 C496 0.950 . S
H526 C500 0.950 . S
H527 C502 0.950 . S
H528 C505 0.950 . S
H529 C507 0.950 . S
C530 C531 1.443 . S
C530 N534 1.376 . S
C530 C568 1.389 . S
C531 C530 1.443 . S
C531 C532 1.340 . S
C531 H571 0.951 . S
C532 C531 1.340 . S
C532 C533 1.439 . S
C532 H572 0.950 . S
C533 C532 1.439 . S
C533 N534 1.374 . S
C533 C567 1.395 . S
N534 C530 1.376 . S
N534 C533 1.374 . S
N534 Co535 2.008 . S
Co535 N534 2.008 . S
Co535 N536 1.995 . S
Co535 N541 2.008 . S
Co535 N546 1.995 . S
Co535 N551 2.282 . S
Co535 N557 2.282 . S
N536 Co535 1.995 . S
N536 C537 1.376 . S
N536 C540 1.383 . S
C537 N536 1.376 . S
C537 C538 1.446 . S
C537 C567 1.391 . S
C538 C537 1.446 . S
C538 C539 1.339 . S
C538 H573 0.949 . S
C539 C538 1.339 . S
C539 C540 1.439 . S
C539 H574 0.950 . S
C540 N536 1.383 . S
C540 C539 1.439 . S
C540 C569 1.392 . S
N541 Co535 2.008 . S
N541 C542 1.376 . S
N541 C545 1.374 . S
C542 N541 1.376 . S
C542 C543 1.443 . S
C542 C569 1.389 . S
C543 C542 1.443 . S
C543 C544 1.340 . S
C543 H575 0.951 . S
C544 C543 1.340 . S
C544 C545 1.439 . S
C544 H576 0.950 . S
C545 N541 1.374 . S
C545 C544 1.439 . S
C545 C570 1.395 . S
N546 Co535 1.995 . S
N546 C547 1.376 . S
N546 C550 1.383 . S
C547 N546 1.376 . S
C547 C548 1.446 . S
C547 C570 1.391 . S
C548 C547 1.446 . S
C548 C549 1.339 . S
C548 H577 0.949 . S
C549 C548 1.339 . S
C549 C550 1.439 . S
C549 H578 0.950 . S
C550 N546 1.383 . S
C550 C549 1.439 . S
C550 C568 1.392 . S
N551 Co535 2.282 . S
N551 C554 1.332 . S
N551 C556 1.332 . S
C552 C553 1.386 . S
C552 C555 1.388 . S
C553 C552 1.386 . S
C553 C554 1.382 . S
C553 H579 0.950 . S
C554 N551 1.332 . S
C554 C553 1.382 . S
C554 H565 0.952 . S
C555 C552 1.388 . S
C555 C556 1.382 . S
C555 H580 0.950 . S
C556 N551 1.332 . S
C556 C555 1.382 . S
C556 H566 0.948 . S
N557 Co535 2.282 . S
N557 C561 1.332 . S
N557 C562 1.332 . S
C558 C559 1.388 . S
C558 C562 1.382 . S
C558 H581 0.950 . S
C559 C558 1.388 . S
C559 C560 1.386 . S
C560 C559 1.386 . S
C560 C561 1.382 . S
C560 H582 0.950 . S
C561 N557 1.332 . S
C561 C560 1.382 . S
C561 H563 0.952 . S
C562 N557 1.332 . S
C562 C558 1.382 . S
C562 H564 0.948 . S
H563 C561 0.952 . S
H564 C562 0.948 . S
H565 C554 0.952 . S
H566 C556 0.948 . S
C567 C533 1.395 . S
C567 C537 1.391 . S
C568 C530 1.389 . S
C568 C550 1.392 . S
C569 C540 1.392 . S
C569 C542 1.389 . S
C570 C545 1.395 . S
C570 C547 1.391 . S
H571 C531 0.951 . S
H572 C532 0.950 . S
H573 C538 0.949 . S
H574 C539 0.950 . S
H575 C543 0.951 . S
H576 C544 0.950 . S
H577 C548 0.949 . S
H578 C549 0.950 . S
H579 C553 0.950 . S
H580 C555 0.950 . S
H581 C558 0.950 . S
H582 C560 0.950 . S
C583 C584 1.443 . S
C583 N587 1.376 . S
C583 C621 1.389 . S
C584 C583 1.443 . S
C584 C585 1.340 . S
C584 H624 0.951 . S
C585 C584 1.340 . S
C585 C586 1.439 1_554 S
C585 H625 0.950 . S
C586 C585 1.439 1_556 S
C586 N587 1.374 1_556 S
C586 C620 1.395 . S
N587 C583 1.376 . S
N587 C586 1.374 1_554 S
N587 Co588 2.008 1_554 S
Co588 N587 2.008 1_556 S
Co588 N589 1.995 . S
Co588 N594 2.008 1_545 S
Co588 N599 1.995 1_546 S
Co588 N604 2.282 1_545 S
Co588 N610 2.282 1_556 S
N589 Co588 1.995 . S
N589 C590 1.376 . S
N589 C593 1.383 . S
C590 N589 1.376 . S
C590 C591 1.446 . S
C590 C620 1.391 . S
C591 C590 1.446 . S
C591 C592 1.339 . S
C591 H626 0.949 . S
C592 C591 1.339 . S
C592 C593 1.439 . S
C592 H627 0.950 . S
C593 N589 1.383 . S
C593 C592 1.439 . S
C593 C622 1.392 1_545 S
N594 Co588 2.008 1_565 S
N594 C595 1.376 . S
N594 C598 1.374 1_556 S
C595 N594 1.376 . S
C595 C596 1.443 . S
C595 C622 1.389 . S
C596 C595 1.443 . S
C596 C597 1.340 . S
C596 H628 0.951 . S
C597 C596 1.340 . S
C597 C598 1.439 1_556 S
C597 H629 0.950 . S
C598 N594 1.374 1_554 S
C598 C597 1.439 1_554 S
C598 C623 1.395 . S
N599 Co588 1.995 1_564 S
N599 C600 1.376 . S
N599 C603 1.383 1_565 S
C600 N599 1.376 . S
C600 C601 1.446 . S
C600 C623 1.391 . S
C601 C600 1.446 . S
C601 C602 1.339 . S
C601 H630 0.949 . S
C602 C601 1.339 . S
C602 C603 1.439 1_565 S
C602 H631 0.950 . S
C603 N599 1.383 1_545 S
C603 C602 1.439 1_545 S
C603 C621 1.392 . S
N604 Co588 2.282 1_565 S
N604 C607 1.332 . S
N604 C609 1.332 . S
C605 C606 1.386 . S
C605 C608 1.388 . S
C606 C605 1.386 . S
C606 C607 1.382 . S
C606 H632 0.950 . S
C607 N604 1.332 . S
C607 C606 1.382 . S
C607 H618 0.952 1_556 S
C608 C605 1.388 . S
C608 C609 1.382 . S
C608 H633 0.950 . S
C609 N604 1.332 . S
C609 C608 1.382 . S
C609 H619 0.948 1_565 S
N610 Co588 2.282 1_554 S
N610 C614 1.332 . S
N610 C615 1.332 . S
C611 C612 1.388 . S
C611 C615 1.382 . S
C611 H634 0.950 . S
C612 C611 1.388 . S
C612 C613 1.386 . S
C613 C612 1.386 . S
C613 C614 1.382 . S
C613 H635 0.950 . S
C614 N610 1.332 . S
C614 C613 1.382 . S
C614 H616 0.952 1_554 S
C615 N610 1.332 . S
C615 C611 1.382 . S
C615 H617 0.948 . S
H616 C614 0.952 1_556 S
H617 C615 0.948 . S
H618 C607 0.952 1_554 S
H619 C609 0.948 1_545 S
C620 C586 1.395 . S
C620 C590 1.391 . S
C621 C583 1.389 . S
C621 C603 1.392 . S
C622 C593 1.392 1_565 S
C622 C595 1.389 . S
C623 C598 1.395 . S
C623 C600 1.391 . S
H624 C584 0.951 . S
H625 C585 0.950 . S
H626 C591 0.949 . S
H627 C592 0.950 . S
H628 C596 0.951 . S
H629 C597 0.950 . S
H630 C601 0.949 . S
H631 C602 0.950 . S
H632 C606 0.950 . S
H633 C608 0.950 . S
H634 C611 0.950 . S
H635 C613 0.950 . S
C636 C637 1.443 . S
C636 N640 1.376 . S
C636 C674 1.389 . S
C637 C636 1.443 . S
C637 C638 1.340 . S
C637 H677 0.951 . S
C638 C637 1.340 . S
C638 C639 1.439 . S
C638 H678 0.950 . S
C639 C638 1.439 . S
C639 N640 1.374 . S
C639 C673 1.395 . S
N640 C636 1.376 . S
N640 C639 1.374 . S
N640 Co641 2.008 . S
Co641 N640 2.008 . S
Co641 N642 1.995 . S
Co641 N647 2.008 . S
Co641 N652 1.995 . S
Co641 N657 2.282 . S
Co641 N663 2.282 . S
N642 Co641 1.995 . S
N642 C643 1.376 . S
N642 C646 1.383 . S
C643 N642 1.376 . S
C643 C644 1.446 . S
C643 C673 1.391 . S
C644 C643 1.446 . S
C644 C645 1.339 . S
C644 H679 0.949 . S
C645 C644 1.339 . S
C645 C646 1.439 . S
C645 H680 0.950 . S
C646 N642 1.383 . S
C646 C645 1.439 . S
C646 C675 1.392 . S
N647 Co641 2.008 . S
N647 C648 1.376 . S
N647 C651 1.374 . S
C648 N647 1.376 . S
C648 C649 1.443 . S
C648 C675 1.389 . S
C649 C648 1.443 . S
C649 C650 1.340 . S
C649 H681 0.951 . S
C650 C649 1.340 . S
C650 C651 1.439 . S
C650 H682 0.950 . S
C651 N647 1.374 . S
C651 C650 1.439 . S
C651 C676 1.395 . S
N652 Co641 1.995 . S
N652 C653 1.376 . S
N652 C656 1.383 . S
C653 N652 1.376 . S
C653 C654 1.446 . S
C653 C676 1.391 . S
C654 C653 1.446 . S
C654 C655 1.339 . S
C654 H683 0.949 . S
C655 C654 1.339 . S
C655 C656 1.439 . S
C655 H684 0.950 . S
C656 N652 1.383 . S
C656 C655 1.439 . S
C656 C674 1.392 . S
N657 Co641 2.282 . S
N657 C660 1.332 . S
N657 C662 1.332 . S
C658 C659 1.386 . S
C658 C661 1.388 . S
C659 C658 1.386 . S
C659 C660 1.382 . S
C659 H685 0.950 . S
C660 N657 1.332 . S
C660 C659 1.382 . S
C660 H671 0.952 . S
C661 C658 1.388 . S
C661 C662 1.382 . S
C661 H686 0.950 . S
C662 N657 1.332 . S
C662 C661 1.382 . S
C662 H672 0.948 . S
N663 Co641 2.282 . S
N663 C667 1.332 . S
N663 C668 1.332 . S
C664 C665 1.388 . S
C664 C668 1.382 . S
C664 H687 0.950 . S
C665 C664 1.388 . S
C665 C666 1.386 . S
C666 C665 1.386 . S
C666 C667 1.382 . S
C666 H688 0.950 . S
C667 N663 1.332 . S
C667 C666 1.382 . S
C667 H669 0.952 . S
C668 N663 1.332 . S
C668 C664 1.382 . S
C668 H670 0.948 . S
H669 C667 0.952 . S
H670 C668 0.948 . S
H671 C660 0.952 . S
H672 C662 0.948 . S
C673 C639 1.395 . S
C673 C643 1.391 . S
C674 C636 1.389 . S
C674 C656 1.392 . S
C675 C646 1.392 . S
C675 C648 1.389 . S
C676 C651 1.395 . S
C676 C653 1.391 . S
H677 C637 0.951 . S
H678 C638 0.950 . S
H679 C644 0.949 . S
H680 C645 0.950 . S
H681 C649 0.951 . S
H682 C650 0.950 . S
H683 C654 0.949 . S
H684 C655 0.950 . S
H685 C659 0.950 . S
H686 C661 0.950 . S
H687 C664 0.950 . S
H688 C666 0.950 . S
C689 C690 1.443 . S
C689 N693 1.376 . S
C689 C727 1.389 . S
C690 C689 1.443 . S
C690 C691 1.340 . S
C690 H730 0.951 . S
C691 C690 1.340 . S
C691 C692 1.439 . S
C691 H731 0.950 . S
C692 C691 1.439 . S
C692 N693 1.374 . S
C692 C726 1.395 . S
N693 C689 1.376 . S
N693 C692 1.374 . S
N693 Co694 2.008 1_455 S
Co694 N693 2.008 1_655 S
Co694 N695 1.995 1_655 S
Co694 N700 2.008 . S
Co694 N705 1.995 . S
Co694 N710 2.282 . S
Co694 N716 2.282 1_655 S
N695 Co694 1.995 1_455 S
N695 C696 1.376 . S
N695 C699 1.383 1_455 S
C696 N695 1.376 . S
C696 C697 1.446 . S
C696 C726 1.391 . S
C697 C696 1.446 . S
C697 C698 1.339 1_455 S
C697 H732 0.949 . S
C698 C697 1.339 1_655 S
C698 C699 1.439 . S
C698 H733 0.950 . S
C699 N695 1.383 1_655 S
C699 C698 1.439 . S
C699 C728 1.392 . S
N700 Co694 2.008 . S
N700 C701 1.376 . S
N700 C704 1.374 . S
C701 N700 1.376 . S
C701 C702 1.443 . S
C701 C728 1.389 . S
C702 C701 1.443 . S
C702 C703 1.340 . S
C702 H734 0.951 . S
C703 C702 1.340 . S
C703 C704 1.439 . S
C703 H735 0.950 . S
C704 N700 1.374 . S
C704 C703 1.439 . S
C704 C729 1.395 . S
N705 Co694 1.995 . S
N705 C706 1.376 . S
N705 C709 1.383 1_655 S
C706 N705 1.376 . S
C706 C707 1.446 . S
C706 C729 1.391 . S
C707 C706 1.446 . S
C707 C708 1.339 1_655 S
C707 H736 0.949 . S
C708 C707 1.339 1_455 S
C708 C709 1.439 . S
C708 H737 0.950 . S
C709 N705 1.383 1_455 S
C709 C708 1.439 . S
C709 C727 1.392 . S
N710 Co694 2.282 . S
N710 C713 1.332 . S
N710 C715 1.332 1_655 S
C711 C712 1.386 . S
C711 C714 1.388 . S
C712 C711 1.386 . S
C712 C713 1.382 . S
C712 H738 0.950 . S
C713 N710 1.332 . S
C713 C712 1.382 . S
C713 H724 0.952 . S
C714 C711 1.388 . S
C714 C715 1.382 1_655 S
C714 H739 0.950 1_655 S
C715 N710 1.332 1_455 S
C715 C714 1.382 1_455 S
C715 H725 0.948 . S
N716 Co694 2.282 1_455 S
N716 C720 1.332 . S
N716 C721 1.332 1_455 S
C717 C718 1.388 . S
C717 C721 1.382 1_455 S
C717 H740 0.950 1_455 S
C718 C717 1.388 . S
C718 C719 1.386 . S
C719 C718 1.386 . S
C719 C720 1.382 . S
C719 H741 0.950 . S
C720 N716 1.332 . S
C720 C719 1.382 . S
C720 H722 0.952 . S
C721 N716 1.332 1_655 S
C721 C717 1.382 1_655 S
C721 H723 0.948 . S
H722 C720 0.952 . S
H723 C721 0.948 . S
H724 C713 0.952 . S
H725 C715 0.948 . S
C726 C692 1.395 . S
C726 C696 1.391 . S
C727 C689 1.389 . S
C727 C709 1.392 . S
C728 C699 1.392 . S
C728 C701 1.389 . S
C729 C704 1.395 . S
C729 C706 1.391 . S
H730 C690 0.951 . S
H731 C691 0.950 . S
H732 C697 0.949 . S
H733 C698 0.950 . S
H734 C702 0.951 . S
H735 C703 0.950 . S
H736 C707 0.949 . S
H737 C708 0.950 . S
H738 C712 0.950 . S
H739 C714 0.950 1_455 S
H740 C717 0.950 1_655 S
H741 C719 0.950 . S
C742 C743 1.443 . S
C742 N746 1.376 . S
C742 C780 1.389 . S
C743 C742 1.443 . S
C743 C744 1.340 . S
C743 H783 0.951 . S
C744 C743 1.340 . S
C744 C745 1.439 . S
C744 H784 0.950 . S
C745 C744 1.439 . S
C745 N746 1.374 . S
C745 C779 1.395 . S
N746 C742 1.376 . S
N746 C745 1.374 . S
N746 Co747 2.008 . S
Co747 N746 2.008 . S
Co747 N748 1.995 . S
Co747 N753 2.008 . S
Co747 N758 1.995 . S
Co747 N763 2.282 . S
Co747 N769 2.282 . S
N748 Co747 1.995 . S
N748 C749 1.376 . S
N748 C752 1.383 . S
C749 N748 1.376 . S
C749 C750 1.446 . S
C749 C779 1.391 . S
C750 C749 1.446 . S
C750 C751 1.339 . S
C750 H785 0.949 . S
C751 C750 1.339 . S
C751 C752 1.439 . S
C751 H786 0.950 . S
C752 N748 1.383 . S
C752 C751 1.439 . S
C752 C781 1.392 . S
N753 Co747 2.008 . S
N753 C754 1.376 . S
N753 C757 1.374 . S
C754 N753 1.376 . S
C754 C755 1.443 . S
C754 C781 1.389 . S
C755 C754 1.443 . S
C755 C756 1.340 . S
C755 H787 0.951 . S
C756 C755 1.340 . S
C756 C757 1.439 . S
C756 H788 0.950 . S
C757 N753 1.374 . S
C757 C756 1.439 . S
C757 C782 1.395 . S
N758 Co747 1.995 . S
N758 C759 1.376 . S
N758 C762 1.383 . S
C759 N758 1.376 . S
C759 C760 1.446 . S
C759 C782 1.391 . S
C760 C759 1.446 . S
C760 C761 1.339 . S
C760 H789 0.949 . S
C761 C760 1.339 . S
C761 C762 1.439 . S
C761 H790 0.950 . S
C762 N758 1.383 . S
C762 C761 1.439 . S
C762 C780 1.392 . S
N763 Co747 2.282 . S
N763 C766 1.332 . S
N763 C768 1.332 . S
C764 C765 1.386 . S
C764 C767 1.388 . S
C765 C764 1.386 . S
C765 C766 1.382 . S
C765 H791 0.950 . S
C766 N763 1.332 . S
C766 C765 1.382 . S
C766 H777 0.952 . S
C767 C764 1.388 . S
C767 C768 1.382 . S
C767 H792 0.950 . S
C768 N763 1.332 . S
C768 C767 1.382 . S
C768 H778 0.948 . S
N769 Co747 2.282 . S
N769 C773 1.332 . S
N769 C774 1.332 . S
C770 C771 1.388 . S
C770 C774 1.382 . S
C770 H793 0.950 . S
C771 C770 1.388 . S
C771 C772 1.386 . S
C772 C771 1.386 . S
C772 C773 1.382 . S
C772 H794 0.950 . S
C773 N769 1.332 . S
C773 C772 1.382 . S
C773 H775 0.952 . S
C774 N769 1.332 . S
C774 C770 1.382 . S
C774 H776 0.948 . S
H775 C773 0.952 . S
H776 C774 0.948 . S
H777 C766 0.952 . S
H778 C768 0.948 . S
C779 C745 1.395 . S
C779 C749 1.391 . S
C780 C742 1.389 . S
C780 C762 1.392 . S
C781 C752 1.392 . S
C781 C754 1.389 . S
C782 C757 1.395 . S
C782 C759 1.391 . S
H783 C743 0.951 . S
H784 C744 0.950 . S
H785 C750 0.949 . S
H786 C751 0.950 . S
H787 C755 0.951 . S
H788 C756 0.950 . S
H789 C760 0.949 . S
H790 C761 0.950 . S
H791 C765 0.950 . S
H792 C767 0.950 . S
H793 C770 0.950 . S
H794 C772 0.950 . S
C795 C796 1.443 . S
C795 N799 1.376 . S
C795 C833 1.389 . S
C796 C795 1.443 . S
C796 C797 1.340 . S
C796 H836 0.951 . S
C797 C796 1.340 . S
C797 C798 1.439 . S
C797 H837 0.950 . S
C798 C797 1.439 . S
C798 N799 1.374 . S
C798 C832 1.395 . S
N799 C795 1.376 . S
N799 C798 1.374 . S
N799 Co800 2.008 . S
Co800 N799 2.008 . S
Co800 N801 1.995 . S
Co800 N806 2.008 . S
Co800 N811 1.995 . S
Co800 N816 2.282 . S
Co800 N822 2.282 . S
N801 Co800 1.995 . S
N801 C802 1.376 . S
N801 C805 1.383 . S
C802 N801 1.376 . S
C802 C803 1.446 . S
C802 C832 1.391 . S
C803 C802 1.446 . S
C803 C804 1.339 . S
C803 H838 0.949 . S
C804 C803 1.339 . S
C804 C805 1.439 . S
C804 H839 0.950 . S
C805 N801 1.383 . S
C805 C804 1.439 . S
C805 C834 1.392 . S
N806 Co800 2.008 . S
N806 C807 1.376 . S
N806 C810 1.374 . S
C807 N806 1.376 . S
C807 C808 1.443 . S
C807 C834 1.389 . S
C808 C807 1.443 . S
C808 C809 1.340 . S
C808 H840 0.951 . S
C809 C808 1.340 . S
C809 C810 1.439 . S
C809 H841 0.950 . S
C810 N806 1.374 . S
C810 C809 1.439 . S
C810 C835 1.395 . S
N811 Co800 1.995 . S
N811 C812 1.376 . S
N811 C815 1.383 . S
C812 N811 1.376 . S
C812 C813 1.446 . S
C812 C835 1.391 . S
C813 C812 1.446 . S
C813 C814 1.339 . S
C813 H842 0.949 . S
C814 C813 1.339 . S
C814 C815 1.439 . S
C814 H843 0.950 . S
C815 N811 1.383 . S
C815 C814 1.439 . S
C815 C833 1.392 . S
N816 Co800 2.282 . S
N816 C819 1.332 . S
N816 C821 1.332 . S
C817 C818 1.386 . S
C817 C820 1.388 . S
C818 C817 1.386 . S
C818 C819 1.382 . S
C818 H844 0.950 . S
C819 N816 1.332 . S
C819 C818 1.382 . S
C819 H830 0.952 . S
C820 C817 1.388 . S
C820 C821 1.382 . S
C820 H845 0.950 . S
C821 N816 1.332 . S
C821 C820 1.382 . S
C821 H831 0.948 . S
N822 Co800 2.282 . S
N822 C826 1.332 . S
N822 C827 1.332 . S
C823 C824 1.388 . S
C823 C827 1.382 . S
C823 H846 0.950 . S
C824 C823 1.388 . S
C824 C825 1.386 . S
C825 C824 1.386 . S
C825 C826 1.382 . S
C825 H847 0.950 . S
C826 N822 1.332 . S
C826 C825 1.382 . S
C826 H828 0.952 . S
C827 N822 1.332 . S
C827 C823 1.382 . S
C827 H829 0.948 . S
H828 C826 0.952 . S
H829 C827 0.948 . S
H830 C819 0.952 . S
H831 C821 0.948 . S
C832 C798 1.395 . S
C832 C802 1.391 . S
C833 C795 1.389 . S
C833 C815 1.392 . S
C834 C805 1.392 . S
C834 C807 1.389 . S
C835 C810 1.395 . S
C835 C812 1.391 . S
H836 C796 0.951 . S
H837 C797 0.950 . S
H838 C803 0.949 . S
H839 C804 0.950 . S
H840 C808 0.951 . S
H841 C809 0.950 . S
H842 C813 0.949 . S
H843 C814 0.950 . S
H844 C818 0.950 . S
H845 C820 0.950 . S
H846 C823 0.950 . S
H847 C825 0.950 . S
C848 C849 1.443 . S
C848 N852 1.376 . S
C848 C886 1.389 . S
C849 C848 1.443 . S
C849 C850 1.340 . S
C849 H889 0.951 . S
C850 C849 1.340 . S
C850 C851 1.439 . S
C850 H890 0.950 . S
C851 C850 1.439 . S
C851 N852 1.374 . S
C851 C885 1.395 . S
N852 C848 1.376 . S
N852 C851 1.374 . S
N852 Co853 2.008 . S
Co853 N852 2.008 . S
Co853 N854 1.995 . S
Co853 N859 2.008 . S
Co853 N864 1.995 . S
Co853 N869 2.282 . S
Co853 N875 2.282 . S
N854 Co853 1.995 . S
N854 C855 1.376 . S
N854 C858 1.383 . S
C855 N854 1.376 . S
C855 C856 1.446 . S
C855 C885 1.391 . S
C856 C855 1.446 . S
C856 C857 1.339 . S
C856 H891 0.949 . S
C857 C856 1.339 . S
C857 C858 1.439 . S
C857 H892 0.950 . S
C858 N854 1.383 . S
C858 C857 1.439 . S
C858 C887 1.392 . S
N859 Co853 2.008 . S
N859 C860 1.376 . S
N859 C863 1.374 . S
C860 N859 1.376 . S
C860 C861 1.443 . S
C860 C887 1.389 . S
C861 C860 1.443 . S
C861 C862 1.340 . S
C861 H893 0.951 . S
C862 C861 1.340 . S
C862 C863 1.439 . S
C862 H894 0.950 . S
C863 N859 1.374 . S
C863 C862 1.439 . S
C863 C888 1.395 . S
N864 Co853 1.995 . S
N864 C865 1.376 . S
N864 C868 1.383 . S
C865 N864 1.376 . S
C865 C866 1.446 . S
C865 C888 1.391 . S
C866 C865 1.446 . S
C866 C867 1.339 . S
C866 H895 0.949 . S
C867 C866 1.339 . S
C867 C868 1.439 . S
C867 H896 0.950 . S
C868 N864 1.383 . S
C868 C867 1.439 . S
C868 C886 1.392 . S
N869 Co853 2.282 . S
N869 C872 1.332 . S
N869 C874 1.332 . S
C870 C871 1.386 . S
C870 C873 1.388 . S
C871 C870 1.386 . S
C871 C872 1.382 . S
C871 H897 0.950 . S
C872 N869 1.332 . S
C872 C871 1.382 . S
C872 H883 0.952 . S
C873 C870 1.388 . S
C873 C874 1.382 . S
C873 H898 0.950 . S
C874 N869 1.332 . S
C874 C873 1.382 . S
C874 H884 0.948 . S
N875 Co853 2.282 . S
N875 C879 1.332 . S
N875 C880 1.332 . S
C876 C877 1.388 . S
C876 C880 1.382 . S
C876 H899 0.950 . S
C877 C876 1.388 . S
C877 C878 1.386 . S
C878 C877 1.386 . S
C878 C879 1.382 . S
C878 H900 0.950 . S
C879 N875 1.332 . S
C879 C878 1.382 . S
C879 H881 0.952 . S
C880 N875 1.332 . S
C880 C876 1.382 . S
C880 H882 0.948 . S
H881 C879 0.952 . S
H882 C880 0.948 . S
H883 C872 0.952 . S
H884 C874 0.948 . S
C885 C851 1.395 . S
C885 C855 1.391 . S
C886 C848 1.389 . S
C886 C868 1.392 . S
C887 C858 1.392 . S
C887 C860 1.389 . S
C888 C863 1.395 . S
C888 C865 1.391 . S
H889 C849 0.951 . S
H890 C850 0.950 . S
H891 C856 0.949 . S
H892 C857 0.950 . S
H893 C861 0.951 . S
H894 C862 0.950 . S
H895 C866 0.949 . S
H896 C867 0.950 . S
H897 C871 0.950 . S
H898 C873 0.950 . S
H899 C876 0.950 . S
H900 C878 0.950 . S
C901 C902 1.443 . S
C901 N905 1.376 . S
C901 C939 1.389 . S
C902 C901 1.443 . S
C902 C903 1.340 . S
C902 H942 0.951 . S
C903 C902 1.340 . S
C903 C904 1.439 . S
C903 H943 0.950 . S
C904 C903 1.439 . S
C904 N905 1.374 . S
C904 C938 1.395 . S
N905 C901 1.376 . S
N905 C904 1.374 . S
N905 Co906 2.008 . S
Co906 N905 2.008 . S
Co906 N907 1.995 . S
Co906 N912 2.008 . S
Co906 N917 1.995 . S
Co906 N922 2.282 . S
Co906 N928 2.282 . S
N907 Co906 1.995 . S
N907 C908 1.376 . S
N907 C911 1.383 . S
C908 N907 1.376 . S
C908 C909 1.446 . S
C908 C938 1.391 . S
C909 C908 1.446 . S
C909 C910 1.339 . S
C909 H944 0.949 . S
C910 C909 1.339 . S
C910 C911 1.439 . S
C910 H945 0.950 . S
C911 N907 1.383 . S
C911 C910 1.439 . S
C911 C940 1.392 . S
N912 Co906 2.008 . S
N912 C913 1.376 . S
N912 C916 1.374 . S
C913 N912 1.376 . S
C913 C914 1.443 . S
C913 C940 1.389 . S
C914 C913 1.443 . S
C914 C915 1.340 . S
C914 H946 0.951 . S
C915 C914 1.340 . S
C915 C916 1.439 . S
C915 H947 0.950 . S
C916 N912 1.374 . S
C916 C915 1.439 . S
C916 C941 1.395 . S
N917 Co906 1.995 . S
N917 C918 1.376 . S
N917 C921 1.383 . S
C918 N917 1.376 . S
C918 C919 1.446 . S
C918 C941 1.391 . S
C919 C918 1.446 . S
C919 C920 1.339 . S
C919 H948 0.949 . S
C920 C919 1.339 . S
C920 C921 1.439 . S
C920 H949 0.950 . S
C921 N917 1.383 . S
C921 C920 1.439 . S
C921 C939 1.392 . S
N922 Co906 2.282 . S
N922 C925 1.332 . S
N922 C927 1.332 . S
C923 C924 1.386 . S
C923 C926 1.388 . S
C924 C923 1.386 . S
C924 C925 1.382 . S
C924 H950 0.950 . S
C925 N922 1.332 . S
C925 C924 1.382 . S
C925 H936 0.952 . S
C926 C923 1.388 . S
C926 C927 1.382 . S
C926 H951 0.950 . S
C927 N922 1.332 . S
C927 C926 1.382 . S
C927 H937 0.948 . S
N928 Co906 2.282 . S
N928 C932 1.332 . S
N928 C933 1.332 . S
C929 C930 1.388 . S
C929 C933 1.382 . S
C929 H952 0.950 . S
C930 C929 1.388 . S
C930 C931 1.386 . S
C931 C930 1.386 . S
C931 C932 1.382 . S
C931 H953 0.950 . S
C932 N928 1.332 . S
C932 C931 1.382 . S
C932 H934 0.952 . S
C933 N928 1.332 . S
C933 C929 1.382 . S
C933 H935 0.948 . S
H934 C932 0.952 . S
H935 C933 0.948 . S
H936 C925 0.952 . S
H937 C927 0.948 . S
C938 C904 1.395 . S
C938 C908 1.391 . S
C939 C901 1.389 . S
C939 C921 1.392 . S
C940 C911 1.392 . S
C940 C913 1.389 . S
C941 C916 1.395 . S
C941 C918 1.391 . S
H942 C902 0.951 . S
H943 C903 0.950 . S
H944 C909 0.949 . S
H945 C910 0.950 . S
H946 C914 0.951 . S
H947 C915 0.950 . S
H948 C919 0.949 . S
H949 C920 0.950 . S
H950 C924 0.950 . S
H951 C926 0.950 . S
H952 C929 0.950 . S
H953 C931 0.950 . S
C954 C955 1.443 . S
C954 N958 1.376 . S
C954 C992 1.389 . S
C955 C954 1.443 . S
C955 C956 1.340 . S
C955 H995 0.951 . S
C956 C955 1.340 . S
C956 C957 1.439 1_655 S
C956 H996 0.950 1_655 S
C957 C956 1.439 1_455 S
C957 N958 1.374 1_455 S
C957 C991 1.395 . S
N958 C954 1.376 . S
N958 C957 1.374 1_655 S
N958 Co959 2.008 1_556 S
Co959 N958 2.008 1_554 S
Co959 N960 1.995 1_654 S
Co959 N965 2.008 1_655 S
Co959 N970 1.995 . S
Co959 N975 2.282 1_655 S
Co959 N981 2.282 1_554 S
N960 Co959 1.995 1_456 S
N960 C961 1.376 . S
N960 C964 1.383 1_556 S
C961 N960 1.376 . S
C961 C962 1.446 . S
C961 C991 1.391 . S
C962 C961 1.446 . S
C962 C963 1.339 1_556 S
C962 H997 0.949 . S
C963 C962 1.339 1_554 S
C963 C964 1.439 . S
C963 H998 0.950 . S
C964 N960 1.383 1_554 S
C964 C963 1.439 . S
C964 C993 1.392 . S
N965 Co959 2.008 1_455 S
N965 C966 1.376 . S
N965 C969 1.374 1_455 S
C966 N965 1.376 . S
C966 C967 1.443 . S
C966 C993 1.389 . S
C967 C966 1.443 . S
C967 C968 1.340 . S
C967 H999 0.951 . S
C968 C967 1.340 . S
C968 C969 1.439 1_455 S
C968 H1000 0.950 1_455 S
C969 N965 1.374 1_655 S
C969 C968 1.439 1_655 S
C969 C994 1.395 . S
N970 Co959 1.995 . S
N970 C971 1.376 . S
N970 C974 1.383 1_554 S
C971 N970 1.376 . S
C971 C972 1.446 . S
C971 C994 1.391 . S
C972 C971 1.446 . S
C972 C973 1.339 1_554 S
C972 H1001 0.949 . S
C973 C972 1.339 1_556 S
C973 C974 1.439 . S
C973 H1002 0.950 . S
C974 N970 1.383 1_556 S
C974 C973 1.439 . S
C974 C992 1.392 . S
N975 Co959 2.282 1_455 S
N975 C978 1.332 . S
N975 C980 1.332 1_554 S
C976 C977 1.386 . S
C976 C979 1.388 . S
C977 C976 1.386 . S
C977 C978 1.382 . S
C977 H1003 0.950 . S
C978 N975 1.332 . S
C978 C977 1.382 . S
C978 H989 0.952 . S
C979 C976 1.388 . S
C979 C980 1.382 1_554 S
C979 H1004 0.950 1_554 S
C980 N975 1.332 1_556 S
C980 C979 1.382 1_556 S
C980 H990 0.948 . S
N981 Co959 2.282 1_556 S
N981 C985 1.332 . S
N981 C986 1.332 1_556 S
C982 C983 1.388 . S
C982 C986 1.382 1_556 S
C982 H1005 0.950 1_556 S
C983 C982 1.388 . S
C983 C984 1.386 . S
C984 C983 1.386 . S
C984 C985 1.382 . S
C984 H1006 0.950 . S
C985 N981 1.332 . S
C985 C984 1.382 . S
C985 H987 0.952 . S
C986 N981 1.332 1_554 S
C986 C982 1.382 1_554 S
C986 H988 0.948 . S
H987 C985 0.952 . S
H988 C986 0.948 . S
H989 C978 0.952 . S
H990 C980 0.948 . S
C991 C957 1.395 . S
C991 C961 1.391 . S
C992 C954 1.389 . S
C992 C974 1.392 . S
C993 C964 1.392 . S
C993 C966 1.389 . S
C994 C969 1.395 . S
C994 C971 1.391 . S
H995 C955 0.951 . S
H996 C956 0.950 1_455 S
H997 C962 0.949 . S
H998 C963 0.950 . S
H999 C967 0.951 . S
H1000 C968 0.950 1_655 S
H1001 C972 0.949 . S
H1002 C973 0.950 . S
H1003 C977 0.950 . S
H1004 C979 0.950 1_556 S
H1005 C982 0.950 1_554 S
H1006 C984 0.950 . S
C1007 C1008 1.443 . S
C1007 N1011 1.376 . S
C1007 C1045 1.389 . S
C1008 C1007 1.443 . S
C1008 C1009 1.340 . S
C1008 H1048 0.951 . S
C1009 C1008 1.340 . S
C1009 C1010 1.439 . S
C1009 H1049 0.950 . S
C1010 C1009 1.439 . S
C1010 N1011 1.374 . S
C1010 C1044 1.395 . S
N1011 C1007 1.376 . S
N1011 C1010 1.374 . S
N1011 Co1012 2.008 . S
Co1012 N1011 2.008 . S
Co1012 N1013 1.995 . S
Co1012 N1018 2.008 . S
Co1012 N1023 1.995 . S
Co1012 N1028 2.282 . S
Co1012 N1034 2.282 . S
N1013 Co1012 1.995 . S
N1013 C1014 1.376 . S
N1013 C1017 1.383 . S
C1014 N1013 1.376 . S
C1014 C1015 1.446 . S
C1014 C1044 1.391 . S
C1015 C1014 1.446 . S
C1015 C1016 1.339 . S
C1015 H1050 0.949 . S
C1016 C1015 1.339 . S
C1016 C1017 1.439 . S
C1016 H1051 0.950 . S
C1017 N1013 1.383 . S
C1017 C1016 1.439 . S
C1017 C1046 1.392 . S
N1018 Co1012 2.008 . S
N1018 C1019 1.376 . S
N1018 C1022 1.374 . S
C1019 N1018 1.376 . S
C1019 C1020 1.443 . S
C1019 C1046 1.389 . S
C1020 C1019 1.443 . S
C1020 C1021 1.340 . S
C1020 H1052 0.951 . S
C1021 C1020 1.340 . S
C1021 C1022 1.439 . S
C1021 H1053 0.950 . S
C1022 N1018 1.374 . S
C1022 C1021 1.439 . S
C1022 C1047 1.395 . S
N1023 Co1012 1.995 . S
N1023 C1024 1.376 . S
N1023 C1027 1.383 . S
C1024 N1023 1.376 . S
C1024 C1025 1.446 . S
C1024 C1047 1.391 . S
C1025 C1024 1.446 . S
C1025 C1026 1.339 . S
C1025 H1054 0.949 . S
C1026 C1025 1.339 . S
C1026 C1027 1.439 . S
C1026 H1055 0.950 . S
C1027 N1023 1.383 . S
C1027 C1026 1.439 . S
C1027 C1045 1.392 . S
N1028 Co1012 2.282 . S
N1028 C1031 1.332 . S
N1028 C1033 1.332 . S
C1029 C1030 1.386 . S
C1029 C1032 1.388 . S
C1030 C1029 1.386 . S
C1030 C1031 1.382 . S
C1030 H1056 0.950 . S
C1031 N1028 1.332 . S
C1031 C1030 1.382 . S
C1031 H1042 0.952 . S
C1032 C1029 1.388 . S
C1032 C1033 1.382 . S
C1032 H1057 0.950 . S
C1033 N1028 1.332 . S
C1033 C1032 1.382 . S
C1033 H1043 0.948 . S
N1034 Co1012 2.282 . S
N1034 C1038 1.332 . S
N1034 C1039 1.332 . S
C1035 C1036 1.388 . S
C1035 C1039 1.382 . S
C1035 H1058 0.950 . S
C1036 C1035 1.388 . S
C1036 C1037 1.386 . S
C1037 C1036 1.386 . S
C1037 C1038 1.382 . S
C1037 H1059 0.950 . S
C1038 N1034 1.332 . S
C1038 C1037 1.382 . S
C1038 H1040 0.952 . S
C1039 N1034 1.332 . S
C1039 C1035 1.382 . S
C1039 H1041 0.948 . S
H1040 C1038 0.952 . S
H1041 C1039 0.948 . S
H1042 C1031 0.952 . S
H1043 C1033 0.948 . S
C1044 C1010 1.395 . S
C1044 C1014 1.391 . S
C1045 C1007 1.389 . S
C1045 C1027 1.392 . S
C1046 C1017 1.392 . S
C1046 C1019 1.389 . S
C1047 C1022 1.395 . S
C1047 C1024 1.391 . S
H1048 C1008 0.951 . S
H1049 C1009 0.950 . S
H1050 C1015 0.949 . S
H1051 C1016 0.950 . S
H1052 C1020 0.951 . S
H1053 C1021 0.950 . S
H1054 C1025 0.949 . S
H1055 C1026 0.950 . S
H1056 C1030 0.950 . S
H1057 C1032 0.950 . S
H1058 C1035 0.950 . S
H1059 C1037 0.950 . S
C1060 C1061 1.443 . S
C1060 N1064 1.376 . S
C1060 C1098 1.389 . S
C1061 C1060 1.443 . S
C1061 C1062 1.340 . S
C1061 H1101 0.951 . S
C1062 C1061 1.340 . S
C1062 C1063 1.439 . S
C1062 H1102 0.950 . S
C1063 C1062 1.439 . S
C1063 N1064 1.374 . S
C1063 C1097 1.395 . S
N1064 C1060 1.376 . S
N1064 C1063 1.374 . S
N1064 Co1065 2.008 . S
Co1065 N1064 2.008 . S
Co1065 N1066 1.995 . S
Co1065 N1071 2.008 . S
Co1065 N1076 1.995 . S
Co1065 N1081 2.282 . S
Co1065 N1087 2.282 . S
N1066 Co1065 1.995 . S
N1066 C1067 1.376 . S
N1066 C1070 1.383 . S
C1067 N1066 1.376 . S
C1067 C1068 1.446 . S
C1067 C1097 1.391 . S
C1068 C1067 1.446 . S
C1068 C1069 1.339 . S
C1068 H1103 0.949 . S
C1069 C1068 1.339 . S
C1069 C1070 1.439 . S
C1069 H1104 0.950 . S
C1070 N1066 1.383 . S
C1070 C1069 1.439 . S
C1070 C1099 1.392 . S
N1071 Co1065 2.008 . S
N1071 C1072 1.376 . S
N1071 C1075 1.374 . S
C1072 N1071 1.376 . S
C1072 C1073 1.443 . S
C1072 C1099 1.389 . S
C1073 C1072 1.443 . S
C1073 C1074 1.340 . S
C1073 H1105 0.951 . S
C1074 C1073 1.340 . S
C1074 C1075 1.439 . S
C1074 H1106 0.950 . S
C1075 N1071 1.374 . S
C1075 C1074 1.439 . S
C1075 C1100 1.395 . S
N1076 Co1065 1.995 . S
N1076 C1077 1.376 . S
N1076 C1080 1.383 . S
C1077 N1076 1.376 . S
C1077 C1078 1.446 . S
C1077 C1100 1.391 . S
C1078 C1077 1.446 . S
C1078 C1079 1.339 . S
C1078 H1107 0.949 . S
C1079 C1078 1.339 . S
C1079 C1080 1.439 . S
C1079 H1108 0.950 . S
C1080 N1076 1.383 . S
C1080 C1079 1.439 . S
C1080 C1098 1.392 . S
N1081 Co1065 2.282 . S
N1081 C1084 1.332 . S
N1081 C1086 1.332 . S
C1082 C1083 1.386 . S
C1082 C1085 1.388 . S
C1083 C1082 1.386 . S
C1083 C1084 1.382 . S
C1083 H1109 0.950 . S
C1084 N1081 1.332 . S
C1084 C1083 1.382 . S
C1084 H1095 0.952 . S
C1085 C1082 1.388 . S
C1085 C1086 1.382 . S
C1085 H1110 0.950 . S
C1086 N1081 1.332 . S
C1086 C1085 1.382 . S
C1086 H1096 0.948 . S
N1087 Co1065 2.282 . S
N1087 C1091 1.332 . S
N1087 C1092 1.332 . S
C1088 C1089 1.388 . S
C1088 C1092 1.382 . S
C1088 H1111 0.950 . S
C1089 C1088 1.388 . S
C1089 C1090 1.386 . S
C1090 C1089 1.386 . S
C1090 C1091 1.382 . S
C1090 H1112 0.950 . S
C1091 N1087 1.332 . S
C1091 C1090 1.382 . S
C1091 H1093 0.952 . S
C1092 N1087 1.332 . S
C1092 C1088 1.382 . S
C1092 H1094 0.948 . S
H1093 C1091 0.952 . S
H1094 C1092 0.948 . S
H1095 C1084 0.952 . S
H1096 C1086 0.948 . S
C1097 C1063 1.395 . S
C1097 C1067 1.391 . S
C1098 C1060 1.389 . S
C1098 C1080 1.392 . S
C1099 C1070 1.392 . S
C1099 C1072 1.389 . S
C1100 C1075 1.395 . S
C1100 C1077 1.391 . S
H1101 C1061 0.951 . S
H1102 C1062 0.950 . S
H1103 C1068 0.949 . S
H1104 C1069 0.950 . S
H1105 C1073 0.951 . S
H1106 C1074 0.950 . S
H1107 C1078 0.949 . S
H1108 C1079 0.950 . S
H1109 C1083 0.950 . S
H1110 C1085 0.950 . S
H1111 C1088 0.950 . S
H1112 C1090 0.950 . S
C1113 C1114 1.443 . S
C1113 N1117 1.376 . S
C1113 C1151 1.389 . S
C1114 C1113 1.443 . S
C1114 C1115 1.340 . S
C1114 H1154 0.951 . S
C1115 C1114 1.340 . S
C1115 C1116 1.439 . S
C1115 H1155 0.950 . S
C1116 C1115 1.439 . S
C1116 N1117 1.374 . S
C1116 C1150 1.395 . S
N1117 C1113 1.376 . S
N1117 C1116 1.374 . S
N1117 Co1118 2.008 . S
Co1118 N1117 2.008 . S
Co1118 N1119 1.995 . S
Co1118 N1124 2.008 . S
Co1118 N1129 1.995 . S
Co1118 N1134 2.282 . S
Co1118 N1140 2.282 . S
N1119 Co1118 1.995 . S
N1119 C1120 1.376 . S
N1119 C1123 1.383 . S
C1120 N1119 1.376 . S
C1120 C1121 1.446 . S
C1120 C1150 1.391 . S
C1121 C1120 1.446 . S
C1121 C1122 1.339 . S
C1121 H1156 0.949 . S
C1122 C1121 1.339 . S
C1122 C1123 1.439 . S
C1122 H1157 0.950 . S
C1123 N1119 1.383 . S
C1123 C1122 1.439 . S
C1123 C1152 1.392 . S
N1124 Co1118 2.008 . S
N1124 C1125 1.376 . S
N1124 C1128 1.374 . S
C1125 N1124 1.376 . S
C1125 C1126 1.443 . S
C1125 C1152 1.389 . S
C1126 C1125 1.443 . S
C1126 C1127 1.340 . S
C1126 H1158 0.951 . S
C1127 C1126 1.340 . S
C1127 C1128 1.439 . S
C1127 H1159 0.950 . S
C1128 N1124 1.374 . S
C1128 C1127 1.439 . S
C1128 C1153 1.395 . S
N1129 Co1118 1.995 . S
N1129 C1130 1.376 . S
N1129 C1133 1.383 . S
C1130 N1129 1.376 . S
C1130 C1131 1.446 . S
C1130 C1153 1.391 . S
C1131 C1130 1.446 . S
C1131 C1132 1.339 . S
C1131 H1160 0.949 . S
C1132 C1131 1.339 . S
C1132 C1133 1.439 . S
C1132 H1161 0.950 . S
C1133 N1129 1.383 . S
C1133 C1132 1.439 . S
C1133 C1151 1.392 . S
N1134 Co1118 2.282 . S
N1134 C1137 1.332 . S
N1134 C1139 1.332 . S
C1135 C1136 1.386 . S
C1135 C1138 1.388 . S
C1136 C1135 1.386 . S
C1136 C1137 1.382 . S
C1136 H1162 0.950 . S
C1137 N1134 1.332 . S
C1137 C1136 1.382 . S
C1137 H1148 0.952 . S
C1138 C1135 1.388 . S
C1138 C1139 1.382 . S
C1138 H1163 0.950 . S
C1139 N1134 1.332 . S
C1139 C1138 1.382 . S
C1139 H1149 0.948 . S
N1140 Co1118 2.282 . S
N1140 C1144 1.332 . S
N1140 C1145 1.332 . S
C1141 C1142 1.388 . S
C1141 C1145 1.382 . S
C1141 H1164 0.950 . S
C1142 C1141 1.388 . S
C1142 C1143 1.386 . S
C1143 C1142 1.386 . S
C1143 C1144 1.382 . S
C1143 H1165 0.950 . S
C1144 N1140 1.332 . S
C1144 C1143 1.382 . S
C1144 H1146 0.952 . S
C1145 N1140 1.332 . S
C1145 C1141 1.382 . S
C1145 H1147 0.948 . S
H1146 C1144 0.952 . S
H1147 C1145 0.948 . S
H1148 C1137 0.952 . S
H1149 C1139 0.948 . S
C1150 C1116 1.395 . S
C1150 C1120 1.391 . S
C1151 C1113 1.389 . S
C1151 C1133 1.392 . S
C1152 C1123 1.392 . S
C1152 C1125 1.389 . S
C1153 C1128 1.395 . S
C1153 C1130 1.391 . S
H1154 C1114 0.951 . S
H1155 C1115 0.950 . S
H1156 C1121 0.949 . S
H1157 C1122 0.950 . S
H1158 C1126 0.951 . S
H1159 C1127 0.950 . S
H1160 C1131 0.949 . S
H1161 C1132 0.950 . S
H1162 C1136 0.950 . S
H1163 C1138 0.950 . S
H1164 C1141 0.950 . S
H1165 C1143 0.950 . S
C1166 C1167 1.443 . S
C1166 N1170 1.376 . S
C1166 C1204 1.389 . S
C1167 C1166 1.443 . S
C1167 C1168 1.340 . S
C1167 H1207 0.951 . S
C1168 C1167 1.340 . S
C1168 C1169 1.439 1_556 S
C1168 H1208 0.950 . S
C1169 C1168 1.439 1_554 S
C1169 N1170 1.374 1_554 S
C1169 C1203 1.395 . S
N1170 C1166 1.376 . S
N1170 C1169 1.374 1_556 S
N1170 Co1171 2.008 1_556 S
Co1171 N1170 2.008 1_554 S
Co1171 N1172 1.995 . S
Co1171 N1177 2.008 . S
Co1171 N1182 1.995 1_554 S
Co1171 N1187 2.282 . S
Co1171 N1193 2.282 1_554 S
N1172 Co1171 1.995 . S
N1172 C1173 1.376 . S
N1172 C1176 1.383 . S
C1173 N1172 1.376 . S
C1173 C1174 1.446 . S
C1173 C1203 1.391 . S
C1174 C1173 1.446 . S
C1174 C1175 1.339 . S
C1174 H1209 0.949 . S
C1175 C1174 1.339 . S
C1175 C1176 1.439 . S
C1175 H1210 0.950 . S
C1176 N1172 1.383 . S
C1176 C1175 1.439 . S
C1176 C1205 1.392 . S
N1177 Co1171 2.008 . S
N1177 C1178 1.376 . S
N1177 C1181 1.374 1_554 S
C1178 N1177 1.376 . S
C1178 C1179 1.443 . S
C1178 C1205 1.389 . S
C1179 C1178 1.443 . S
C1179 C1180 1.340 . S
C1179 H1211 0.951 . S
C1180 C1179 1.340 . S
C1180 C1181 1.439 1_554 S
C1180 H1212 0.950 . S
C1181 N1177 1.374 1_556 S
C1181 C1180 1.439 1_556 S
C1181 C1206 1.395 . S
N1182 Co1171 1.995 1_556 S
N1182 C1183 1.376 . S
N1182 C1186 1.383 . S
C1183 N1182 1.376 . S
C1183 C1184 1.446 . S
C1183 C1206 1.391 . S
C1184 C1183 1.446 . S
C1184 C1185 1.339 . S
C1184 H1213 0.949 . S
C1185 C1184 1.339 . S
C1185 C1186 1.439 . S
C1185 H1214 0.950 . S
C1186 N1182 1.383 . S
C1186 C1185 1.439 . S
C1186 C1204 1.392 . S
N1187 Co1171 2.282 . S
N1187 C1190 1.332 . S
N1187 C1192 1.332 . S
C1188 C1189 1.386 . S
C1188 C1191 1.388 . S
C1189 C1188 1.386 . S
C1189 C1190 1.382 . S
C1189 H1215 0.950 . S
C1190 N1187 1.332 . S
C1190 C1189 1.382 . S
C1190 H1201 0.952 1_554 S
C1191 C1188 1.388 . S
C1191 C1192 1.382 . S
C1191 H1216 0.950 . S
C1192 N1187 1.332 . S
C1192 C1191 1.382 . S
C1192 H1202 0.948 . S
N1193 Co1171 2.282 1_556 S
N1193 C1197 1.332 . S
N1193 C1198 1.332 . S
C1194 C1195 1.388 . S
C1194 C1198 1.382 . S
C1194 H1217 0.950 . S
C1195 C1194 1.388 . S
C1195 C1196 1.386 . S
C1196 C1195 1.386 . S
C1196 C1197 1.382 . S
C1196 H1218 0.950 . S
C1197 N1193 1.332 . S
C1197 C1196 1.382 . S
C1197 H1199 0.952 1_556 S
C1198 N1193 1.332 . S
C1198 C1194 1.382 . S
C1198 H1200 0.948 . S
H1199 C1197 0.952 1_554 S
H1200 C1198 0.948 . S
H1201 C1190 0.952 1_556 S
H1202 C1192 0.948 . S
C1203 C1169 1.395 . S
C1203 C1173 1.391 . S
C1204 C1166 1.389 . S
C1204 C1186 1.392 . S
C1205 C1176 1.392 . S
C1205 C1178 1.389 . S
C1206 C1181 1.395 . S
C1206 C1183 1.391 . S
H1207 C1167 0.951 . S
H1208 C1168 0.950 . S
H1209 C1174 0.949 . S
H1210 C1175 0.950 . S
H1211 C1179 0.951 . S
H1212 C1180 0.950 . S
H1213 C1184 0.949 . S
H1214 C1185 0.950 . S
H1215 C1189 0.950 . S
H1216 C1191 0.950 . S
H1217 C1194 0.950 . S
H1218 C1196 0.950 . S
C1219 C1220 1.443 . S
C1219 N1223 1.376 . S
C1219 C1257 1.389 . S
C1220 C1219 1.443 . S
C1220 C1221 1.340 . S
C1220 H1260 0.951 . S
C1221 C1220 1.340 . S
C1221 C1222 1.439 . S
C1221 H1261 0.950 . S
C1222 C1221 1.439 . S
C1222 N1223 1.374 . S
C1222 C1256 1.395 . S
N1223 C1219 1.376 . S
N1223 C1222 1.374 . S
N1223 Co1224 2.008 . S
Co1224 N1223 2.008 . S
Co1224 N1225 1.995 . S
Co1224 N1230 2.008 . S
Co1224 N1235 1.995 . S
Co1224 N1240 2.282 . S
Co1224 N1246 2.282 . S
N1225 Co1224 1.995 . S
N1225 C1226 1.376 . S
N1225 C1229 1.383 . S
C1226 N1225 1.376 . S
C1226 C1227 1.446 . S
C1226 C1256 1.391 . S
C1227 C1226 1.446 . S
C1227 C1228 1.339 . S
C1227 H1262 0.949 . S
C1228 C1227 1.339 . S
C1228 C1229 1.439 . S
C1228 H1263 0.950 . S
C1229 N1225 1.383 . S
C1229 C1228 1.439 . S
C1229 C1258 1.392 . S
N1230 Co1224 2.008 . S
N1230 C1231 1.376 . S
N1230 C1234 1.374 . S
C1231 N1230 1.376 . S
C1231 C1232 1.443 . S
C1231 C1258 1.389 . S
C1232 C1231 1.443 . S
C1232 C1233 1.340 . S
C1232 H1264 0.951 . S
C1233 C1232 1.340 . S
C1233 C1234 1.439 . S
C1233 H1265 0.950 . S
C1234 N1230 1.374 . S
C1234 C1233 1.439 . S
C1234 C1259 1.395 . S
N1235 Co1224 1.995 . S
N1235 C1236 1.376 . S
N1235 C1239 1.383 . S
C1236 N1235 1.376 . S
C1236 C1237 1.446 . S
C1236 C1259 1.391 . S
C1237 C1236 1.446 . S
C1237 C1238 1.339 . S
C1237 H1266 0.949 . S
C1238 C1237 1.339 . S
C1238 C1239 1.439 . S
C1238 H1267 0.950 . S
C1239 N1235 1.383 . S
C1239 C1238 1.439 . S
C1239 C1257 1.392 . S
N1240 Co1224 2.282 . S
N1240 C1243 1.332 . S
N1240 C1245 1.332 . S
C1241 C1242 1.386 . S
C1241 C1244 1.388 . S
C1242 C1241 1.386 . S
C1242 C1243 1.382 . S
C1242 H1268 0.950 . S
C1243 N1240 1.332 . S
C1243 C1242 1.382 . S
C1243 H1254 0.952 . S
C1244 C1241 1.388 . S
C1244 C1245 1.382 . S
C1244 H1269 0.950 . S
C1245 N1240 1.332 . S
C1245 C1244 1.382 . S
C1245 H1255 0.948 . S
N1246 Co1224 2.282 . S
N1246 C1250 1.332 . S
N1246 C1251 1.332 . S
C1247 C1248 1.388 . S
C1247 C1251 1.382 . S
C1247 H1270 0.950 . S
C1248 C1247 1.388 . S
C1248 C1249 1.386 . S
C1249 C1248 1.386 . S
C1249 C1250 1.382 . S
C1249 H1271 0.950 . S
C1250 N1246 1.332 . S
C1250 C1249 1.382 . S
C1250 H1252 0.952 . S
C1251 N1246 1.332 . S
C1251 C1247 1.382 . S
C1251 H1253 0.948 . S
H1252 C1250 0.952 . S
H1253 C1251 0.948 . S
H1254 C1243 0.952 . S
H1255 C1245 0.948 . S
C1256 C1222 1.395 . S
C1256 C1226 1.391 . S
C1257 C1219 1.389 . S
C1257 C1239 1.392 . S
C1258 C1229 1.392 . S
C1258 C1231 1.389 . S
C1259 C1234 1.395 . S
C1259 C1236 1.391 . S
H1260 C1220 0.951 . S
H1261 C1221 0.950 . S
H1262 C1227 0.949 . S
H1263 C1228 0.950 . S
H1264 C1232 0.951 . S
H1265 C1233 0.950 . S
H1266 C1237 0.949 . S
H1267 C1238 0.950 . S
H1268 C1242 0.950 . S
H1269 C1244 0.950 . S
H1270 C1247 0.950 . S
H1271 C1249 0.950 . S
H1272 C1278 0.930 . S
H1273 C1282 0.930 . S
H1274 C1287 0.929 . S
H1275 C1285 0.929 . S
H1276 C1280 0.929 . S
H1277 C1286 0.929 . S
C1278 H1272 0.930 . S
C1278 C1279 1.367 . S
C1278 C1286 1.378 . S
C1279 C1278 1.367 . S
C1279 C1287 1.433 . S
C1280 H1276 0.929 . S
C1280 C1282 1.378 . S
C1280 C1284 1.350 . S
C1281 C1284 1.463 . S
C1281 C1286 1.350 . S
C1281 N1289 1.427 . S
C1282 H1273 0.930 . S
C1282 C1280 1.378 . S
C1282 C1283 1.367 . S
C1283 C1282 1.367 . S
C1283 C1285 1.433 . S
C1284 C1280 1.350 . S
C1284 C1281 1.463 . S
C1284 N1288 1.427 . S
C1285 H1275 0.929 . S
C1285 C1283 1.433 . S
C1285 N1288 1.384 . S
C1286 H1277 0.929 . S
C1286 C1278 1.378 . S
C1286 C1281 1.350 . S
C1287 H1274 0.929 . S
C1287 C1279 1.433 . S
C1287 N1289 1.384 . S
N1288 C1284 1.427 . S
N1288 C1285 1.384 . S
N1289 C1281 1.427 . S
N1289 C1287 1.384 . S
H1290 C1296 0.930 . S
H1291 C1300 0.930 . S
H1292 C1305 0.929 . S
H1293 C1303 0.929 . S
H1294 C1298 0.929 . S
H1295 C1304 0.929 . S
C1296 H1290 0.930 . S
C1296 C1297 1.367 . S
C1296 C1304 1.378 . S
C1297 C1296 1.367 . S
C1297 C1305 1.433 . S
C1298 H1294 0.929 . S
C1298 C1300 1.378 . S
C1298 C1302 1.350 . S
C1299 C1302 1.463 . S
C1299 C1304 1.350 . S
C1299 N1307 1.427 . S
C1300 H1291 0.930 . S
C1300 C1298 1.378 . S
C1300 C1301 1.367 . S
C1301 C1300 1.367 . S
C1301 C1303 1.433 . S
C1302 C1298 1.350 . S
C1302 C1299 1.463 . S
C1302 N1306 1.427 . S
C1303 H1293 0.929 . S
C1303 C1301 1.433 . S
C1303 N1306 1.384 . S
C1304 H1295 0.929 . S
C1304 C1296 1.378 . S
C1304 C1299 1.350 . S
C1305 H1292 0.929 . S
C1305 C1297 1.433 . S
C1305 N1307 1.384 . S
N1306 C1302 1.427 . S
N1306 C1303 1.384 . S
N1307 C1299 1.427 . S
N1307 C1305 1.384 . S
H1308 C1314 0.930 . S
H1309 C1318 0.930 . S
H1310 C1323 0.929 . S
H1311 C1321 0.929 . S
H1312 C1316 0.929 . S
H1313 C1322 0.929 . S
C1314 H1308 0.930 . S
C1314 C1315 1.367 . S
C1314 C1322 1.378 . S
C1315 C1314 1.367 . S
C1315 C1323 1.433 . S
C1316 H1312 0.929 . S
C1316 C1318 1.378 . S
C1316 C1320 1.350 . S
C1317 C1320 1.463 . S
C1317 C1322 1.350 . S
C1317 N1325 1.427 . S
C1318 H1309 0.930 . S
C1318 C1316 1.378 . S
C1318 C1319 1.367 . S
C1319 C1318 1.367 . S
C1319 C1321 1.433 . S
C1320 C1316 1.350 . S
C1320 C1317 1.463 . S
C1320 N1324 1.427 . S
C1321 H1311 0.929 . S
C1321 C1319 1.433 . S
C1321 N1324 1.384 . S
C1322 H1313 0.929 . S
C1322 C1314 1.378 . S
C1322 C1317 1.350 . S
C1323 H1310 0.929 . S
C1323 C1315 1.433 . S
C1323 N1325 1.384 . S
N1324 C1320 1.427 . S
N1324 C1321 1.384 . S
N1325 C1317 1.427 . S
N1325 C1323 1.384 . S
H1326 C1332 0.930 . S
H1327 C1336 0.930 . S
H1328 C1341 0.929 . S
H1329 C1339 0.929 . S
H1330 C1334 0.929 . S
H1331 C1340 0.929 . S
C1332 H1326 0.930 . S
C1332 C1333 1.367 . S
C1332 C1340 1.378 . S
C1333 C1332 1.367 . S
C1333 C1341 1.433 . S
C1334 H1330 0.929 . S
C1334 C1336 1.378 . S
C1334 C1338 1.350 . S
C1335 C1338 1.463 . S
C1335 C1340 1.350 . S
C1335 N1343 1.427 . S
C1336 H1327 0.930 . S
C1336 C1334 1.378 . S
C1336 C1337 1.367 . S
C1337 C1336 1.367 . S
C1337 C1339 1.433 . S
C1338 C1334 1.350 . S
C1338 C1335 1.463 . S
C1338 N1342 1.427 . S
C1339 H1329 0.929 . S
C1339 C1337 1.433 . S
C1339 N1342 1.384 . S
C1340 H1331 0.929 . S
C1340 C1332 1.378 . S
C1340 C1335 1.350 . S
C1341 H1328 0.929 . S
C1341 C1333 1.433 . S
C1341 N1343 1.384 . S
N1342 C1338 1.427 . S
N1342 C1339 1.384 . S
N1343 C1335 1.427 . S
N1343 C1341 1.384 . S
H1344 C1350 0.930 . S
H1345 C1354 0.930 . S
H1346 C1359 0.929 . S
H1347 C1357 0.929 . S
H1348 C1352 0.929 . S
H1349 C1358 0.929 . S
C1350 H1344 0.930 . S
C1350 C1351 1.367 . S
C1350 C1358 1.378 . S
C1351 C1350 1.367 . S
C1351 C1359 1.433 . S
C1352 H1348 0.929 . S
C1352 C1354 1.378 . S
C1352 C1356 1.350 . S
C1353 C1356 1.463 . S
C1353 C1358 1.350 . S
C1353 N1361 1.427 . S
C1354 H1345 0.930 . S
C1354 C1352 1.378 . S
C1354 C1355 1.367 . S
C1355 C1354 1.367 . S
C1355 C1357 1.433 . S
C1356 C1352 1.350 . S
C1356 C1353 1.463 . S
C1356 N1360 1.427 . S
C1357 H1347 0.929 . S
C1357 C1355 1.433 . S
C1357 N1360 1.384 . S
C1358 H1349 0.929 . S
C1358 C1350 1.378 . S
C1358 C1353 1.350 . S
C1359 H1346 0.929 . S
C1359 C1351 1.433 . S
C1359 N1361 1.384 . S
N1360 C1356 1.427 . S
N1360 C1357 1.384 . S
N1361 C1353 1.427 . S
N1361 C1359 1.384 . S
H1362 C1368 0.930 . S
H1363 C1372 0.930 . S
H1364 C1377 0.929 . S
H1365 C1375 0.929 . S
H1366 C1370 0.929 . S
H1367 C1376 0.929 . S
C1368 H1362 0.930 . S
C1368 C1369 1.367 . S
C1368 C1376 1.378 . S
C1369 C1368 1.367 . S
C1369 C1377 1.433 . S
C1370 H1366 0.929 . S
C1370 C1372 1.378 . S
C1370 C1374 1.350 . S
C1371 C1374 1.463 . S
C1371 C1376 1.350 . S
C1371 N1379 1.427 . S
C1372 H1363 0.930 . S
C1372 C1370 1.378 . S
C1372 C1373 1.367 . S
C1373 C1372 1.367 . S
C1373 C1375 1.433 . S
C1374 C1370 1.350 . S
C1374 C1371 1.463 . S
C1374 N1378 1.427 . S
C1375 H1365 0.929 . S
C1375 C1373 1.433 . S
C1375 N1378 1.384 . S
C1376 H1367 0.929 . S
C1376 C1368 1.378 . S
C1376 C1371 1.350 . S
C1377 H1364 0.929 . S
C1377 C1369 1.433 . S
C1377 N1379 1.384 . S
N1378 C1374 1.427 . S
N1378 C1375 1.384 . S
N1379 C1371 1.427 . S
N1379 C1377 1.384 . S
H1380 C1386 0.930 . S
H1381 C1390 0.930 . S
H1382 C1395 0.929 . S
H1383 C1393 0.929 . S
H1384 C1388 0.929 . S
H1385 C1394 0.929 . S
C1386 H1380 0.930 . S
C1386 C1387 1.367 . S
C1386 C1394 1.378 . S
C1387 C1386 1.367 . S
C1387 C1395 1.433 . S
C1388 H1384 0.929 . S
C1388 C1390 1.378 . S
C1388 C1392 1.350 . S
C1389 C1392 1.463 . S
C1389 C1394 1.350 . S
C1389 N1397 1.427 . S
C1390 H1381 0.930 . S
C1390 C1388 1.378 . S
C1390 C1391 1.367 . S
C1391 C1390 1.367 . S
C1391 C1393 1.433 . S
C1392 C1388 1.350 . S
C1392 C1389 1.463 . S
C1392 N1396 1.427 . S
C1393 H1383 0.929 . S
C1393 C1391 1.433 . S
C1393 N1396 1.384 . S
C1394 H1385 0.929 . S
C1394 C1386 1.378 . S
C1394 C1389 1.350 . S
C1395 H1382 0.929 . S
C1395 C1387 1.433 . S
C1395 N1397 1.384 . S
N1396 C1392 1.427 . S
N1396 C1393 1.384 . S
N1397 C1389 1.427 . S
N1397 C1395 1.384 . S
H1398 C1404 0.930 . S
H1399 C1408 0.949 . S
H1400 C1413 0.929 . S
H1401 C1411 0.929 . S
H1402 C1406 0.929 1_556 S
H1403 C1412 0.929 . S
C1404 H1398 0.930 . S
C1404 C1405 1.367 . S
C1404 C1412 1.378 . S
C1405 C1404 1.367 . S
C1405 C1413 1.433 . S
C1406 H1402 0.929 1_554 S
C1406 C1408 1.374 1_554 S
C1406 C1410 1.350 . S
C1407 C1410 1.463 . S
C1407 C1412 1.350 . S
C1407 N1415 1.427 . S
C1408 H1399 0.949 . S
C1408 C1406 1.374 1_556 S
C1408 C1409 1.352 1_556 S
C1409 C1408 1.352 1_554 S
C1409 C1411 1.433 . S
C1410 C1406 1.350 . S
C1410 C1407 1.463 . S
C1410 N1414 1.427 . S
C1411 H1401 0.929 . S
C1411 C1409 1.433 . S
C1411 N1414 1.384 . S
C1412 H1403 0.929 . S
C1412 C1404 1.378 . S
C1412 C1407 1.350 . S
C1413 H1400 0.929 . S
C1413 C1405 1.433 . S
C1413 N1415 1.384 . S
N1414 C1410 1.427 . S
N1414 C1411 1.384 . S
N1415 C1407 1.427 . S
N1415 C1413 1.384 . S
H1416 C1422 0.930 . S
H1417 C1426 0.930 . S
H1418 C1431 0.929 . S
H1419 C1429 0.933 1_565 S
H1420 C1424 0.929 . S
H1421 C1430 0.929 1_565 S
C1422 H1416 0.930 . S
C1422 C1423 1.367 . S
C1422 C1430 1.378 . S
C1423 C1422 1.367 . S
C1423 C1431 1.433 . S
C1424 H1420 0.929 . S
C1424 C1426 1.378 . S
C1424 C1428 1.350 . S
C1425 C1428 1.463 . S
C1425 C1430 1.350 . S
C1425 N1433 1.427 . S
C1426 H1417 0.930 . S
C1426 C1424 1.378 . S
C1426 C1427 1.367 . S
C1427 C1426 1.367 . S
C1427 C1429 1.430 . S
C1428 C1424 1.350 . S
C1428 C1425 1.463 . S
C1428 N1432 1.427 . S
C1429 H1419 0.933 1_545 S
C1429 C1427 1.430 . S
C1429 N1432 1.383 . S
C1430 H1421 0.929 1_545 S
C1430 C1422 1.378 . S
C1430 C1425 1.350 . S
C1431 H1418 0.929 . S
C1431 C1423 1.433 . S
C1431 N1433 1.384 . S
N1432 C1428 1.427 . S
N1432 C1429 1.383 . S
N1433 C1425 1.427 . S
N1433 C1431 1.384 . S
H1434 C1440 0.930 . S
H1435 C1444 0.930 . S
H1436 C1449 0.929 . S
H1437 C1447 0.929 . S
H1438 C1442 0.929 . S
H1439 C1448 0.929 . S
C1440 H1434 0.930 . S
C1440 C1441 1.367 . S
C1440 C1448 1.378 . S
C1441 C1440 1.367 . S
C1441 C1449 1.433 . S
C1442 H1438 0.929 . S
C1442 C1444 1.378 . S
C1442 C1446 1.350 . S
C1443 C1446 1.463 . S
C1443 C1448 1.350 . S
C1443 N1451 1.427 . S
C1444 H1435 0.930 . S
C1444 C1442 1.378 . S
C1444 C1445 1.367 . S
C1445 C1444 1.367 . S
C1445 C1447 1.433 . S
C1446 C1442 1.350 . S
C1446 C1443 1.463 . S
C1446 N1450 1.427 . S
C1447 H1437 0.929 . S
C1447 C1445 1.433 . S
C1447 N1450 1.384 . S
C1448 H1439 0.929 . S
C1448 C1440 1.378 . S
C1448 C1443 1.350 . S
C1449 H1436 0.929 . S
C1449 C1441 1.433 . S
C1449 N1451 1.384 . S
N1450 C1446 1.427 . S
N1450 C1447 1.384 . S
N1451 C1443 1.427 . S
N1451 C1449 1.384 . S
H1452 C1458 0.930 . S
H1453 C1462 0.930 . S
H1454 C1467 0.929 . S
H1455 C1465 0.929 1_545 S
H1456 C1460 0.929 . S
H1457 C1466 0.955 . S
C1458 H1452 0.930 . S
C1458 C1459 1.367 1_545 S
C1458 C1466 1.385 . S
C1459 C1458 1.367 1_565 S
C1459 C1467 1.433 . S
C1460 H1456 0.929 . S
C1460 C1462 1.378 . S
C1460 C1464 1.350 . S
C1461 C1464 1.463 . S
C1461 C1466 1.317 1_565 S
C1461 N1469 1.427 . S
C1462 H1453 0.930 . S
C1462 C1460 1.378 . S
C1462 C1463 1.367 . S
C1463 C1462 1.367 . S
C1463 C1465 1.433 . S
C1464 C1460 1.350 . S
C1464 C1461 1.463 . S
C1464 N1468 1.427 . S
C1465 H1455 0.929 1_565 S
C1465 C1463 1.433 . S
C1465 N1468 1.384 . S
C1466 H1457 0.955 . S
C1466 C1458 1.385 . S
C1466 C1461 1.317 1_545 S
C1467 H1454 0.929 . S
C1467 C1459 1.433 . S
C1467 N1469 1.384 . S
N1468 C1464 1.427 . S
N1468 C1465 1.384 . S
N1469 C1461 1.427 . S
N1469 C1467 1.384 . S
H1470 C1476 0.930 . S
H1471 C1480 0.930 . S
H1472 C1485 0.929 . S
H1473 C1483 0.929 . S
H1474 C1478 0.929 . S
H1475 C1484 0.929 . S
C1476 H1470 0.930 . S
C1476 C1477 1.367 . S
C1476 C1484 1.378 . S
C1477 C1476 1.367 . S
C1477 C1485 1.433 . S
C1478 H1474 0.929 . S
C1478 C1480 1.378 . S
C1478 C1482 1.350 . S
C1479 C1482 1.463 . S
C1479 C1484 1.350 . S
C1479 N1487 1.427 . S
C1480 H1471 0.930 . S
C1480 C1478 1.378 . S
C1480 C1481 1.367 . S
C1481 C1480 1.367 . S
C1481 C1483 1.433 . S
C1482 C1478 1.350 . S
C1482 C1479 1.463 . S
C1482 N1486 1.427 . S
C1483 H1473 0.929 . S
C1483 C1481 1.433 . S
C1483 N1486 1.384 . S
C1484 H1475 0.929 . S
C1484 C1476 1.378 . S
C1484 C1479 1.350 . S
C1485 H1472 0.929 . S
C1485 C1477 1.433 . S
C1485 N1487 1.384 . S
N1486 C1482 1.427 . S
N1486 C1483 1.384 . S
N1487 C1479 1.427 . S
N1487 C1485 1.384 . S
H1488 C1494 0.930 . S
H1489 C1498 0.930 . S
H1490 C1503 0.929 . S
H1491 C1501 0.929 . S
H1492 C1496 0.929 . S
H1493 C1502 0.929 . S
C1494 H1488 0.930 . S
C1494 C1495 1.367 . S
C1494 C1502 1.378 . S
C1495 C1494 1.367 . S
C1495 C1503 1.433 . S
C1496 H1492 0.929 . S
C1496 C1498 1.378 . S
C1496 C1500 1.350 . S
C1497 C1500 1.463 . S
C1497 C1502 1.350 . S
C1497 N1505 1.427 . S
C1498 H1489 0.930 . S
C1498 C1496 1.378 . S
C1498 C1499 1.367 . S
C1499 C1498 1.367 . S
C1499 C1501 1.433 . S
C1500 C1496 1.350 . S
C1500 C1497 1.463 . S
C1500 N1504 1.427 . S
C1501 H1491 0.929 . S
C1501 C1499 1.433 . S
C1501 N1504 1.384 . S
C1502 H1493 0.929 . S
C1502 C1494 1.378 . S
C1502 C1497 1.350 . S
C1503 H1490 0.929 . S
C1503 C1495 1.433 . S
C1503 N1505 1.384 . S
N1504 C1500 1.427 . S
N1504 C1501 1.384 . S
N1505 C1497 1.427 . S
N1505 C1503 1.384 . S
H1506 C1512 0.930 . S
H1507 C1516 0.930 . S
H1508 C1521 0.929 . S
H1509 C1519 0.929 . S
H1510 C1514 0.929 . S
H1511 C1520 0.929 . S
C1512 H1506 0.930 . S
C1512 C1513 1.367 . S
C1512 C1520 1.378 . S
C1513 C1512 1.367 . S
C1513 C1521 1.433 . S
C1514 H1510 0.929 . S
C1514 C1516 1.378 . S
C1514 C1518 1.350 . S
C1515 C1518 1.463 . S
C1515 C1520 1.350 . S
C1515 N1523 1.427 . S
C1516 H1507 0.930 . S
C1516 C1514 1.378 . S
C1516 C1517 1.367 . S
C1517 C1516 1.367 . S
C1517 C1519 1.433 . S
C1518 C1514 1.350 . S
C1518 C1515 1.463 . S
C1518 N1522 1.427 . S
C1519 H1509 0.929 . S
C1519 C1517 1.433 . S
C1519 N1522 1.384 . S
C1520 H1511 0.929 . S
C1520 C1512 1.378 . S
C1520 C1515 1.350 . S
C1521 H1508 0.929 . S
C1521 C1513 1.433 . S
C1521 N1523 1.384 . S
N1522 C1518 1.427 . S
N1522 C1519 1.384 . S
N1523 C1515 1.427 . S
N1523 C1521 1.384 . S
H1524 C1530 0.930 . S
H1525 C1534 0.930 . S
H1526 C1539 0.929 . S
H1527 C1537 0.929 . S
H1528 C1532 0.929 . S
H1529 C1538 0.929 . S
C1530 H1524 0.930 . S
C1530 C1531 1.367 . S
C1530 C1538 1.378 . S
C1531 C1530 1.367 . S
C1531 C1539 1.433 . S
C1532 H1528 0.929 . S
C1532 C1534 1.378 . S
C1532 C1536 1.350 . S
C1533 C1536 1.463 . S
C1533 C1538 1.350 . S
C1533 N1541 1.427 . S
C1534 H1525 0.930 . S
C1534 C1532 1.378 . S
C1534 C1535 1.367 . S
C1535 C1534 1.367 . S
C1535 C1537 1.433 . S
C1536 C1532 1.350 . S
C1536 C1533 1.463 . S
C1536 N1540 1.427 . S
C1537 H1527 0.929 . S
C1537 C1535 1.433 . S
C1537 N1540 1.384 . S
C1538 H1529 0.929 . S
C1538 C1530 1.378 . S
C1538 C1533 1.350 . S
C1539 H1526 0.929 . S
C1539 C1531 1.433 . S
C1539 N1541 1.384 . S
N1540 C1536 1.427 . S
N1540 C1537 1.384 . S
N1541 C1533 1.427 . S
N1541 C1539 1.384 . S
H1542 C1548 0.930 . S
H1543 C1552 0.930 . S
H1544 C1557 0.929 . S
H1545 C1555 0.929 . S
H1546 C1550 0.929 . S
H1547 C1556 0.929 . S
C1548 H1542 0.930 . S
C1548 C1549 1.367 . S
C1548 C1556 1.378 . S
C1549 C1548 1.367 . S
C1549 C1557 1.433 . S
C1550 H1546 0.929 . S
C1550 C1552 1.378 . S
C1550 C1554 1.350 . S
C1551 C1554 1.463 . S
C1551 C1556 1.350 . S
C1551 N1559 1.427 . S
C1552 H1543 0.930 . S
C1552 C1550 1.378 . S
C1552 C1553 1.367 . S
C1553 C1552 1.367 . S
C1553 C1555 1.433 . S
C1554 C1550 1.350 . S
C1554 C1551 1.463 . S
C1554 N1558 1.427 . S
C1555 H1545 0.929 . S
C1555 C1553 1.433 . S
C1555 N1558 1.384 . S
C1556 H1547 0.929 . S
C1556 C1548 1.378 . S
C1556 C1551 1.350 . S
C1557 H1544 0.929 . S
C1557 C1549 1.433 . S
C1557 N1559 1.384 . S
N1558 C1554 1.427 . S
N1558 C1555 1.384 . S
N1559 C1551 1.427 . S
N1559 C1557 1.384 . S
H1560 C1566 0.930 . S
H1561 C1570 0.930 . S
H1562 C1575 0.929 . S
H1563 C1573 0.929 . S
H1564 C1568 0.929 . S
H1565 C1574 0.929 . S
C1566 H1560 0.930 . S
C1566 C1567 1.367 . S
C1566 C1574 1.378 . S
C1567 C1566 1.367 . S
C1567 C1575 1.433 . S
C1568 H1564 0.929 . S
C1568 C1570 1.378 . S
C1568 C1572 1.350 . S
C1569 C1572 1.463 . S
C1569 C1574 1.350 . S
C1569 N1577 1.427 . S
C1570 H1561 0.930 . S
C1570 C1568 1.378 . S
C1570 C1571 1.367 . S
C1571 C1570 1.367 . S
C1571 C1573 1.433 . S
C1572 C1568 1.350 . S
C1572 C1569 1.463 . S
C1572 N1576 1.427 . S
C1573 H1563 0.929 . S
C1573 C1571 1.433 . S
C1573 N1576 1.384 . S
C1574 H1565 0.929 . S
C1574 C1566 1.378 . S
C1574 C1569 1.350 . S
C1575 H1562 0.929 . S
C1575 C1567 1.433 . S
C1575 N1577 1.384 . S
N1576 C1572 1.427 . S
N1576 C1573 1.384 . S
N1577 C1569 1.427 . S
N1577 C1575 1.384 . S
H1578 C1584 0.930 . S
H1579 C1588 0.930 . S
H1580 C1593 0.929 . S
H1581 C1591 0.929 . S
H1582 C1586 0.929 . S
H1583 C1592 0.929 . S
C1584 H1578 0.930 . S
C1584 C1585 1.367 . S
C1584 C1592 1.378 . S
C1585 C1584 1.367 . S
C1585 C1593 1.433 . S
C1586 H1582 0.929 . S
C1586 C1588 1.378 . S
C1586 C1590 1.350 . S
C1587 C1590 1.463 . S
C1587 C1592 1.350 . S
C1587 N1595 1.427 . S
C1588 H1579 0.930 . S
C1588 C1586 1.378 . S
C1588 C1589 1.367 . S
C1589 C1588 1.367 . S
C1589 C1591 1.433 . S
C1590 C1586 1.350 . S
C1590 C1587 1.463 . S
C1590 N1594 1.427 . S
C1591 H1581 0.929 . S
C1591 C1589 1.433 . S
C1591 N1594 1.384 . S
C1592 H1583 0.929 . S
C1592 C1584 1.378 . S
C1592 C1587 1.350 . S
C1593 H1580 0.929 . S
C1593 C1585 1.433 . S
C1593 N1595 1.384 . S
N1594 C1590 1.427 . S
N1594 C1591 1.384 . S
N1595 C1587 1.427 . S
N1595 C1593 1.384 . S
H1596 C1602 0.930 . S
H1597 C1606 0.930 . S
H1598 C1611 0.929 . S
H1599 C1609 0.929 . S
H1600 C1604 0.929 . S
H1601 C1610 0.929 . S
C1602 H1596 0.930 . S
C1602 C1603 1.367 . S
C1602 C1610 1.378 . S
C1603 C1602 1.367 . S
C1603 C1611 1.433 . S
C1604 H1600 0.929 . S
C1604 C1606 1.378 . S
C1604 C1608 1.350 . S
C1605 C1608 1.463 . S
C1605 C1610 1.350 . S
C1605 N1613 1.427 . S
C1606 H1597 0.930 . S
C1606 C1604 1.378 . S
C1606 C1607 1.367 . S
C1607 C1606 1.367 . S
C1607 C1609 1.433 . S
C1608 C1604 1.350 . S
C1608 C1605 1.463 . S
C1608 N1612 1.427 . S
C1609 H1599 0.929 . S
C1609 C1607 1.433 . S
C1609 N1612 1.384 . S
C1610 H1601 0.929 . S
C1610 C1602 1.378 . S
C1610 C1605 1.350 . S
C1611 H1598 0.929 . S
C1611 C1603 1.433 . S
C1611 N1613 1.384 . S
N1612 C1608 1.427 . S
N1612 C1609 1.384 . S
N1613 C1605 1.427 . S
N1613 C1611 1.384 . S
H1614 C1620 0.930 1_655 S
H1615 C1624 0.930 . S
H1616 C1629 0.929 . S
H1617 C1627 0.929 1_655 S
H1618 C1622 0.929 . S
H1619 C1628 0.929 1_655 S
C1620 H1614 0.930 1_455 S
C1620 C1621 1.367 . S
C1620 C1628 1.378 . S
C1621 C1620 1.367 . S
C1621 C1629 1.433 . S
C1622 H1618 0.929 . S
C1622 C1624 1.378 . S
C1622 C1626 1.350 . S
C1623 C1626 1.463 . S
C1623 C1628 1.350 . S
C1623 N1631 1.427 . S
C1624 H1615 0.930 . S
C1624 C1622 1.378 . S
C1624 C1625 1.367 . S
C1625 C1624 1.367 . S
C1625 C1627 1.433 . S
C1626 C1622 1.350 . S
C1626 C1623 1.463 . S
C1626 N1630 1.427 . S
C1627 H1617 0.929 1_455 S
C1627 C1625 1.433 . S
C1627 N1630 1.384 . S
C1628 H1619 0.929 1_455 S
C1628 C1620 1.378 . S
C1628 C1623 1.350 . S
C1629 H1616 0.929 . S
C1629 C1621 1.433 . S
C1629 N1631 1.384 . S
N1630 C1626 1.427 . S
N1630 C1627 1.384 . S
N1631 C1623 1.427 . S
N1631 C1629 1.384 . S
H1632 C1638 0.930 . S
H1633 C1642 0.930 . S
H1634 C1647 0.929 . S
H1635 C1645 0.929 . S
H1636 C1640 0.929 . S
H1637 C1646 0.929 . S
C1638 H1632 0.930 . S
C1638 C1639 1.367 . S
C1638 C1646 1.378 . S
C1639 C1638 1.367 . S
C1639 C1647 1.433 . S
C1640 H1636 0.929 . S
C1640 C1642 1.378 . S
C1640 C1644 1.350 . S
C1641 C1644 1.463 . S
C1641 C1646 1.350 . S
C1641 N1649 1.427 . S
C1642 H1633 0.930 . S
C1642 C1640 1.378 . S
C1642 C1643 1.367 . S
C1643 C1642 1.367 . S
C1643 C1645 1.433 . S
C1644 C1640 1.350 . S
C1644 C1641 1.463 . S
C1644 N1648 1.427 . S
C1645 H1635 0.929 . S
C1645 C1643 1.433 . S
C1645 N1648 1.384 . S
C1646 H1637 0.929 . S
C1646 C1638 1.378 . S
C1646 C1641 1.350 . S
C1647 H1634 0.929 . S
C1647 C1639 1.433 . S
C1647 N1649 1.384 . S
N1648 C1644 1.427 . S
N1648 C1645 1.384 . S
N1649 C1641 1.427 . S
N1649 C1647 1.384 . S
H1650 C1656 0.930 . S
H1651 C1660 0.930 . S
H1652 C1665 0.929 . S
H1653 C1663 0.929 . S
H1654 C1658 0.929 . S
H1655 C1664 0.929 . S
C1656 H1650 0.930 . S
C1656 C1657 1.367 . S
C1656 C1664 1.378 . S
C1657 C1656 1.367 . S
C1657 C1665 1.433 . S
C1658 H1654 0.929 . S
C1658 C1660 1.378 . S
C1658 C1662 1.350 . S
C1659 C1662 1.463 . S
C1659 C1664 1.350 . S
C1659 N1667 1.427 . S
C1660 H1651 0.930 . S
C1660 C1658 1.378 . S
C1660 C1661 1.367 . S
C1661 C1660 1.367 . S
C1661 C1663 1.433 . S
C1662 C1658 1.350 . S
C1662 C1659 1.463 . S
C1662 N1666 1.427 . S
C1663 H1653 0.929 . S
C1663 C1661 1.433 . S
C1663 N1666 1.384 . S
C1664 H1655 0.929 . S
C1664 C1656 1.378 . S
C1664 C1659 1.350 . S
C1665 H1652 0.929 . S
C1665 C1657 1.433 . S
C1665 N1667 1.384 . S
N1666 C1662 1.427 . S
N1666 C1663 1.384 . S
N1667 C1659 1.427 . S
N1667 C1665 1.384 . S
H1668 C1674 0.930 1_554 S
H1669 C1678 0.930 . S
H1670 C1683 0.929 . S
H1671 C1681 0.929 . S
H1672 C1676 0.929 . S
H1673 C1682 0.929 1_554 S
C1674 H1668 0.930 1_556 S
C1674 C1675 1.367 . S
C1674 C1682 1.378 . S
C1675 C1674 1.367 . S
C1675 C1683 1.433 . S
C1676 H1672 0.929 . S
C1676 C1678 1.378 . S
C1676 C1680 1.350 . S
C1677 C1680 1.463 . S
C1677 C1682 1.350 . S
C1677 N1685 1.427 . S
C1678 H1669 0.930 . S
C1678 C1676 1.378 . S
C1678 C1679 1.367 . S
C1679 C1678 1.367 . S
C1679 C1681 1.433 . S
C1680 C1676 1.350 . S
C1680 C1677 1.463 . S
C1680 N1684 1.427 . S
C1681 H1671 0.929 . S
C1681 C1679 1.433 . S
C1681 N1684 1.384 . S
C1682 H1673 0.929 1_556 S
C1682 C1674 1.378 . S
C1682 C1677 1.350 . S
C1683 H1670 0.929 . S
C1683 C1675 1.433 . S
C1683 N1685 1.384 . S
N1684 C1680 1.427 . S
N1684 C1681 1.384 . S
N1685 C1677 1.427 . S
N1685 C1683 1.384 . S
H1686 C1692 0.930 . S
H1687 C1696 0.930 . S
H1688 C1701 0.929 . S
H1689 C1699 0.929 . S
H1690 C1694 0.929 . S
H1691 C1700 0.929 . S
C1692 H1686 0.930 . S
C1692 C1693 1.367 . S
C1692 C1700 1.378 . S
C1693 C1692 1.367 . S
C1693 C1701 1.433 . S
C1694 H1690 0.929 . S
C1694 C1696 1.378 . S
C1694 C1698 1.350 . S
C1695 C1698 1.463 . S
C1695 C1700 1.350 . S
C1695 N1703 1.427 . S
C1696 H1687 0.930 . S
C1696 C1694 1.378 . S
C1696 C1697 1.367 . S
C1697 C1696 1.367 . S
C1697 C1699 1.433 . S
C1698 C1694 1.350 . S
C1698 C1695 1.463 . S
C1698 N1702 1.427 . S
C1699 H1689 0.929 . S
C1699 C1697 1.433 . S
C1699 N1702 1.384 . S
C1700 H1691 0.929 . S
C1700 C1692 1.378 . S
C1700 C1695 1.350 . S
C1701 H1688 0.929 . S
C1701 C1693 1.433 . S
C1701 N1703 1.384 . S
N1702 C1698 1.427 . S
N1702 C1699 1.384 . S
N1703 C1695 1.427 . S
N1703 C1701 1.384 . S
H1704 C1710 0.930 . S
H1705 C1714 0.930 . S
H1706 C1719 0.929 . S
H1707 C1717 0.929 . S
H1708 C1712 0.929 . S
H1709 C1718 0.929 . S
C1710 H1704 0.930 . S
C1710 C1711 1.367 . S
C1710 C1718 1.378 . S
C1711 C1710 1.367 . S
C1711 C1719 1.433 . S
C1712 H1708 0.929 . S
C1712 C1714 1.378 . S
C1712 C1716 1.350 . S
C1713 C1716 1.463 . S
C1713 C1718 1.350 . S
C1713 N1721 1.427 . S
C1714 H1705 0.930 . S
C1714 C1712 1.378 . S
C1714 C1715 1.367 . S
C1715 C1714 1.367 . S
C1715 C1717 1.433 . S
C1716 C1712 1.350 . S
C1716 C1713 1.463 . S
C1716 N1720 1.427 . S
C1717 H1707 0.929 . S
C1717 C1715 1.433 . S
C1717 N1720 1.384 . S
C1718 H1709 0.929 . S
C1718 C1710 1.378 . S
C1718 C1713 1.350 . S
C1719 H1706 0.929 . S
C1719 C1711 1.433 . S
C1719 N1721 1.384 . S
N1720 C1716 1.427 . S
N1720 C1717 1.384 . S
N1721 C1713 1.427 . S
N1721 C1719 1.384 . S
H1722 C1728 0.930 . S
H1723 C1732 0.930 . S
H1724 C1737 0.929 . S
H1725 C1735 0.929 . S
H1726 C1730 0.929 . S
H1727 C1736 0.929 . S
C1728 H1722 0.930 . S
C1728 C1729 1.367 . S
C1728 C1736 1.378 . S
C1729 C1728 1.367 . S
C1729 C1737 1.433 . S
C1730 H1726 0.929 . S
C1730 C1732 1.378 . S
C1730 C1734 1.350 . S
C1731 C1734 1.463 . S
C1731 C1736 1.350 . S
C1731 N1739 1.427 . S
C1732 H1723 0.930 . S
C1732 C1730 1.378 . S
C1732 C1733 1.367 . S
C1733 C1732 1.367 . S
C1733 C1735 1.433 . S
C1734 C1730 1.350 . S
C1734 C1731 1.463 . S
C1734 N1738 1.427 . S
C1735 H1725 0.929 . S
C1735 C1733 1.433 . S
C1735 N1738 1.384 . S
C1736 H1727 0.929 . S
C1736 C1728 1.378 . S
C1736 C1731 1.350 . S
C1737 H1724 0.929 . S
C1737 C1729 1.433 . S
C1737 N1739 1.384 . S
N1738 C1734 1.427 . S
N1738 C1735 1.384 . S
N1739 C1731 1.427 . S
N1739 C1737 1.384 . S
H1740 C1746 0.930 . S
H1741 C1750 0.930 . S
H1742 C1755 0.929 . S
H1743 C1753 0.929 . S
H1744 C1748 0.929 . S
H1745 C1754 0.929 . S
C1746 H1740 0.930 . S
C1746 C1747 1.367 . S
C1746 C1754 1.378 . S
C1747 C1746 1.367 . S
C1747 C1755 1.433 . S
C1748 H1744 0.929 . S
C1748 C1750 1.378 . S
C1748 C1752 1.350 . S
C1749 C1752 1.463 . S
C1749 C1754 1.350 . S
C1749 N1757 1.427 . S
C1750 H1741 0.930 . S
C1750 C1748 1.378 . S
C1750 C1751 1.367 . S
C1751 C1750 1.367 . S
C1751 C1753 1.433 . S
C1752 C1748 1.350 . S
C1752 C1749 1.463 . S
C1752 N1756 1.427 . S
C1753 H1743 0.929 . S
C1753 C1751 1.433 . S
C1753 N1756 1.384 . S
C1754 H1745 0.929 . S
C1754 C1746 1.378 . S
C1754 C1749 1.350 . S
C1755 H1742 0.929 . S
C1755 C1747 1.433 . S
C1755 N1757 1.384 . S
N1756 C1752 1.427 . S
N1756 C1753 1.384 . S
N1757 C1749 1.427 . S
N1757 C1755 1.384 . S
H1758 C1764 0.930 . S
H1759 C1768 0.930 . S
H1760 C1773 0.929 . S
H1761 C1771 0.929 . S
H1762 C1766 0.929 . S
H1763 C1772 0.929 . S
C1764 H1758 0.930 . S
C1764 C1765 1.367 . S
C1764 C1772 1.378 . S
C1765 C1764 1.367 . S
C1765 C1773 1.433 . S
C1766 H1762 0.929 . S
C1766 C1768 1.378 . S
C1766 C1770 1.350 . S
C1767 C1770 1.463 . S
C1767 C1772 1.350 . S
C1767 N1775 1.427 . S
C1768 H1759 0.930 . S
C1768 C1766 1.378 . S
C1768 C1769 1.367 . S
C1769 C1768 1.367 . S
C1769 C1771 1.433 . S
C1770 C1766 1.350 . S
C1770 C1767 1.463 . S
C1770 N1774 1.427 . S
C1771 H1761 0.929 . S
C1771 C1769 1.433 . S
C1771 N1774 1.384 . S
C1772 H1763 0.929 . S
C1772 C1764 1.378 . S
C1772 C1767 1.350 . S
C1773 H1760 0.929 . S
C1773 C1765 1.433 . S
C1773 N1775 1.384 . S
N1774 C1770 1.427 . S
N1774 C1771 1.384 . S
N1775 C1767 1.427 . S
N1775 C1773 1.384 . S
H1776 C1782 0.930 . S
H1777 C1786 0.930 . S
H1778 C1791 0.929 . S
H1779 C1789 0.929 . S
H1780 C1784 0.929 . S
H1781 C1790 0.929 . S
C1782 H1776 0.930 . S
C1782 C1783 1.367 . S
C1782 C1790 1.378 . S
C1783 C1782 1.367 . S
C1783 C1791 1.433 . S
C1784 H1780 0.929 . S
C1784 C1786 1.378 . S
C1784 C1788 1.350 . S
C1785 C1788 1.463 . S
C1785 C1790 1.350 . S
C1785 N1793 1.427 . S
C1786 H1777 0.930 . S
C1786 C1784 1.378 . S
C1786 C1787 1.367 . S
C1787 C1786 1.367 . S
C1787 C1789 1.433 . S
C1788 C1784 1.350 . S
C1788 C1785 1.463 . S
C1788 N1792 1.427 . S
C1789 H1779 0.929 . S
C1789 C1787 1.433 . S
C1789 N1792 1.384 . S
C1790 H1781 0.929 . S
C1790 C1782 1.378 . S
C1790 C1785 1.350 . S
C1791 H1778 0.929 . S
C1791 C1783 1.433 . S
C1791 N1793 1.384 . S
N1792 C1788 1.427 . S
N1792 C1789 1.384 . S
N1793 C1785 1.427 . S
N1793 C1791 1.384 . S
H1794 C1800 0.930 . S
H1795 C1804 0.930 . S
H1796 C1809 0.929 . S
H1797 C1807 0.929 . S
H1798 C1802 0.929 . S
H1799 C1808 0.929 . S
C1800 H1794 0.930 . S
C1800 C1801 1.367 . S
C1800 C1808 1.378 . S
C1801 C1800 1.367 . S
C1801 C1809 1.433 . S
C1802 H1798 0.929 . S
C1802 C1804 1.378 . S
C1802 C1806 1.350 . S
C1803 C1806 1.463 . S
C1803 C1808 1.350 . S
C1803 N1811 1.427 . S
C1804 H1795 0.930 . S
C1804 C1802 1.378 . S
C1804 C1805 1.367 . S
C1805 C1804 1.367 . S
C1805 C1807 1.433 . S
C1806 C1802 1.350 . S
C1806 C1803 1.463 . S
C1806 N1810 1.427 . S
C1807 H1797 0.929 . S
C1807 C1805 1.433 . S
C1807 N1810 1.384 . S
C1808 H1799 0.929 . S
C1808 C1800 1.378 . S
C1808 C1803 1.350 . S
C1809 H1796 0.929 . S
C1809 C1801 1.433 . S
C1809 N1811 1.384 . S
N1810 C1806 1.427 . S
N1810 C1807 1.384 . S
N1811 C1803 1.427 . S
N1811 C1809 1.384 . S
H1812 C1818 0.930 . S
H1813 C1822 0.930 . S
H1814 C1827 0.929 . S
H1815 C1825 0.929 . S
H1816 C1820 0.929 . S
H1817 C1826 0.929 . S
C1818 H1812 0.930 . S
C1818 C1819 1.367 . S
C1818 C1826 1.378 . S
C1819 C1818 1.367 . S
C1819 C1827 1.433 . S
C1820 H1816 0.929 . S
C1820 C1822 1.378 . S
C1820 C1824 1.350 . S
C1821 C1824 1.463 . S
C1821 C1826 1.350 . S
C1821 N1829 1.427 . S
C1822 H1813 0.930 . S
C1822 C1820 1.378 . S
C1822 C1823 1.367 . S
C1823 C1822 1.367 . S
C1823 C1825 1.433 . S
C1824 C1820 1.350 . S
C1824 C1821 1.463 . S
C1824 N1828 1.427 . S
C1825 H1815 0.929 . S
C1825 C1823 1.433 . S
C1825 N1828 1.384 . S
C1826 H1817 0.929 . S
C1826 C1818 1.378 . S
C1826 C1821 1.350 . S
C1827 H1814 0.929 . S
C1827 C1819 1.433 . S
C1827 N1829 1.384 . S
N1828 C1824 1.427 . S
N1828 C1825 1.384 . S
N1829 C1821 1.427 . S
N1829 C1827 1.384 . S
H1830 C1836 0.930 . S
H1831 C1840 0.930 . S
H1832 C1845 0.929 . S
H1833 C1843 0.929 . S
H1834 C1838 0.929 . S
H1835 C1844 0.929 . S
C1836 H1830 0.930 . S
C1836 C1837 1.367 . S
C1836 C1844 1.378 . S
C1837 C1836 1.367 . S
C1837 C1845 1.433 . S
C1838 H1834 0.929 . S
C1838 C1840 1.378 . S
C1838 C1842 1.350 . S
C1839 C1842 1.463 . S
C1839 C1844 1.350 . S
C1839 N1847 1.427 . S
C1840 H1831 0.930 . S
C1840 C1838 1.378 . S
C1840 C1841 1.367 . S
C1841 C1840 1.367 . S
C1841 C1843 1.433 . S
C1842 C1838 1.350 . S
C1842 C1839 1.463 . S
C1842 N1846 1.427 . S
C1843 H1833 0.929 . S
C1843 C1841 1.433 . S
C1843 N1846 1.384 . S
C1844 H1835 0.929 . S
C1844 C1836 1.378 . S
C1844 C1839 1.350 . S
C1845 H1832 0.929 . S
C1845 C1837 1.433 . S
C1845 N1847 1.384 . S
N1846 C1842 1.427 . S
N1846 C1843 1.384 . S
N1847 C1839 1.427 . S
N1847 C1845 1.384 . S
H1848 C1854 0.930 1_556 S
H1849 C1858 0.930 . S
H1850 C1863 0.929 . S
H1851 C1861 0.929 . S
H1852 C1856 0.929 . S
H1853 C1862 0.929 1_556 S
C1854 H1848 0.930 1_554 S
C1854 C1855 1.367 . S
C1854 C1862 1.378 . S
C1855 C1854 1.367 . S
C1855 C1863 1.433 . S
C1856 H1852 0.929 . S
C1856 C1858 1.378 . S
C1856 C1860 1.350 . S
C1857 C1860 1.463 . S
C1857 C1862 1.350 . S
C1857 N1865 1.427 . S
C1858 H1849 0.930 . S
C1858 C1856 1.378 . S
C1858 C1859 1.367 . S
C1859 C1858 1.367 . S
C1859 C1861 1.433 . S
C1860 C1856 1.350 . S
C1860 C1857 1.463 . S
C1860 N1864 1.427 . S
C1861 H1851 0.929 . S
C1861 C1859 1.433 . S
C1861 N1864 1.384 . S
C1862 H1853 0.929 1_554 S
C1862 C1854 1.378 . S
C1862 C1857 1.350 . S
C1863 H1850 0.929 . S
C1863 C1855 1.433 . S
C1863 N1865 1.384 . S
N1864 C1860 1.427 . S
N1864 C1861 1.384 . S
N1865 C1857 1.427 . S
N1865 C1863 1.384 . S
H1866 C1872 0.930 . S
H1867 C1876 0.930 . S
H1868 C1881 0.929 . S
H1869 C1879 0.929 1_554 S
H1870 C1874 0.929 . S
H1871 C1880 0.929 . S
C1872 H1866 0.930 . S
C1872 C1873 1.367 . S
C1872 C1880 1.378 . S
C1873 C1872 1.367 . S
C1873 C1881 1.433 . S
C1874 H1870 0.929 . S
C1874 C1876 1.378 . S
C1874 C1878 1.350 . S
C1875 C1878 1.463 . S
C1875 C1880 1.350 . S
C1875 N1883 1.427 . S
C1876 H1867 0.930 . S
C1876 C1874 1.378 . S
C1876 C1877 1.367 . S
C1877 C1876 1.367 . S
C1877 C1879 1.433 . S
C1878 C1874 1.350 . S
C1878 C1875 1.463 . S
C1878 N1882 1.427 . S
C1879 H1869 0.929 1_556 S
C1879 C1877 1.433 . S
C1879 N1882 1.384 . S
C1880 H1871 0.929 . S
C1880 C1872 1.378 . S
C1880 C1875 1.350 . S
C1881 H1868 0.929 . S
C1881 C1873 1.433 . S
C1881 N1883 1.384 . S
N1882 C1878 1.427 . S
N1882 C1879 1.384 . S
N1883 C1875 1.427 . S
N1883 C1881 1.384 . S
H1884 C1890 0.930 . S
H1885 C1894 0.930 . S
H1886 C1899 0.929 . S
H1887 C1897 0.929 . S
H1888 C1892 0.929 . S
H1889 C1898 0.929 . S
C1890 H1884 0.930 . S
C1890 C1891 1.367 . S
C1890 C1898 1.378 . S
C1891 C1890 1.367 . S
C1891 C1899 1.433 . S
C1892 H1888 0.929 . S
C1892 C1894 1.378 . S
C1892 C1896 1.350 . S
C1893 C1896 1.463 . S
C1893 C1898 1.350 . S
C1893 N1901 1.427 . S
C1894 H1885 0.930 . S
C1894 C1892 1.378 . S
C1894 C1895 1.367 . S
C1895 C1894 1.367 . S
C1895 C1897 1.433 . S
C1896 C1892 1.350 . S
C1896 C1893 1.463 . S
C1896 N1900 1.427 . S
C1897 H1887 0.929 . S
C1897 C1895 1.433 . S
C1897 N1900 1.384 . S
C1898 H1889 0.929 . S
C1898 C1890 1.378 . S
C1898 C1893 1.350 . S
C1899 H1886 0.929 . S
C1899 C1891 1.433 . S
C1899 N1901 1.384 . S
N1900 C1896 1.427 . S
N1900 C1897 1.384 . S
N1901 C1893 1.427 . S
N1901 C1899 1.384 . S
H1902 C1908 0.930 . S
H1903 C1912 0.930 . S
H1904 C1917 0.929 . S
H1905 C1915 0.929 . S
H1906 C1910 0.929 . S
H1907 C1916 0.929 . S
C1908 H1902 0.930 . S
C1908 C1909 1.367 . S
C1908 C1916 1.378 . S
C1909 C1908 1.367 . S
C1909 C1917 1.433 . S
C1910 H1906 0.929 . S
C1910 C1912 1.378 . S
C1910 C1914 1.350 . S
C1911 C1914 1.463 . S
C1911 C1916 1.350 . S
C1911 N1919 1.427 . S
C1912 H1903 0.930 . S
C1912 C1910 1.378 . S
C1912 C1913 1.367 . S
C1913 C1912 1.367 . S
C1913 C1915 1.433 . S
C1914 C1910 1.350 . S
C1914 C1911 1.463 . S
C1914 N1918 1.427 . S
C1915 H1905 0.929 . S
C1915 C1913 1.433 . S
C1915 N1918 1.384 . S
C1916 H1907 0.929 . S
C1916 C1908 1.378 . S
C1916 C1911 1.350 . S
C1917 H1904 0.929 . S
C1917 C1909 1.433 . S
C1917 N1919 1.384 . S
N1918 C1914 1.427 . S
N1918 C1915 1.384 . S
N1919 C1911 1.427 . S
N1919 C1917 1.384 . S
H1920 C1926 0.930 . S
H1921 C1930 0.930 . S
H1922 C1935 0.929 . S
H1923 C1933 0.929 . S
H1924 C1928 0.929 . S
H1925 C1934 0.929 . S
C1926 H1920 0.930 . S
C1926 C1927 1.367 . S
C1926 C1934 1.378 . S
C1927 C1926 1.367 . S
C1927 C1935 1.433 . S
C1928 H1924 0.929 . S
C1928 C1930 1.378 . S
C1928 C1932 1.350 . S
C1929 C1932 1.463 . S
C1929 C1934 1.350 . S
C1929 N1937 1.427 . S
C1930 H1921 0.930 . S
C1930 C1928 1.378 . S
C1930 C1931 1.367 . S
C1931 C1930 1.367 . S
C1931 C1933 1.433 . S
C1932 C1928 1.350 . S
C1932 C1929 1.463 . S
C1932 N1936 1.427 . S
C1933 H1923 0.929 . S
C1933 C1931 1.433 . S
C1933 N1936 1.384 . S
C1934 H1925 0.929 . S
C1934 C1926 1.378 . S
C1934 C1929 1.350 . S
C1935 H1922 0.929 . S
C1935 C1927 1.433 . S
C1935 N1937 1.384 . S
N1936 C1932 1.427 . S
N1936 C1933 1.384 . S
N1937 C1929 1.427 . S
N1937 C1935 1.384 . S
H1938 C1944 0.930 . S
H1939 C1948 0.930 . S
H1940 C1953 0.929 . S
H1941 C1951 0.929 . S
H1942 C1946 0.929 . S
H1943 C1952 0.929 . S
C1944 H1938 0.930 . S
C1944 C1945 1.367 . S
C1944 C1952 1.378 . S
C1945 C1944 1.367 . S
C1945 C1953 1.433 . S
C1946 H1942 0.929 . S
C1946 C1948 1.378 . S
C1946 C1950 1.350 . S
C1947 C1950 1.463 . S
C1947 C1952 1.350 . S
C1947 N1955 1.427 . S
C1948 H1939 0.930 . S
C1948 C1946 1.378 . S
C1948 C1949 1.367 . S
C1949 C1948 1.367 . S
C1949 C1951 1.433 . S
C1950 C1946 1.350 . S
C1950 C1947 1.463 . S
C1950 N1954 1.427 . S
C1951 H1941 0.929 . S
C1951 C1949 1.433 . S
C1951 N1954 1.384 . S
C1952 H1943 0.929 . S
C1952 C1944 1.378 . S
C1952 C1947 1.350 . S
C1953 H1940 0.929 . S
C1953 C1945 1.433 . S
C1953 N1955 1.384 . S
N1954 C1950 1.427 . S
N1954 C1951 1.384 . S
N1955 C1947 1.427 . S
N1955 C1953 1.384 . S
H1956 C1962 0.930 . S
H1957 C1966 0.930 . S
H1958 C1971 0.929 . S
H1959 C1969 0.929 . S
H1960 C1964 0.929 . S
H1961 C1970 0.929 . S
C1962 H1956 0.930 . S
C1962 C1963 1.367 . S
C1962 C1970 1.378 . S
C1963 C1962 1.367 . S
C1963 C1971 1.433 . S
C1964 H1960 0.929 . S
C1964 C1966 1.378 . S
C1964 C1968 1.350 . S
C1965 C1968 1.463 . S
C1965 C1970 1.350 . S
C1965 N1973 1.427 . S
C1966 H1957 0.930 . S
C1966 C1964 1.378 . S
C1966 C1967 1.367 . S
C1967 C1966 1.367 . S
C1967 C1969 1.433 . S
C1968 C1964 1.350 . S
C1968 C1965 1.463 . S
C1968 N1972 1.427 . S
C1969 H1959 0.929 . S
C1969 C1967 1.433 . S
C1969 N1972 1.384 . S
C1970 H1961 0.929 . S
C1970 C1962 1.378 . S
C1970 C1965 1.350 . S
C1971 H1958 0.929 . S
C1971 C1963 1.433 . S
C1971 N1973 1.384 . S
N1972 C1968 1.427 . S
N1972 C1969 1.384 . S
N1973 C1965 1.427 . S
N1973 C1971 1.384 . S
H1974 C1980 0.930 . S
H1975 C1984 0.930 . S
H1976 C1989 0.929 . S
H1977 C1987 0.929 . S
H1978 C1982 0.929 . S
H1979 C1988 0.929 . S
C1980 H1974 0.930 . S
C1980 C1981 1.367 . S
C1980 C1988 1.378 . S
C1981 C1980 1.367 . S
C1981 C1989 1.433 . S
C1982 H1978 0.929 . S
C1982 C1984 1.378 . S
C1982 C1986 1.350 . S
C1983 C1986 1.463 . S
C1983 C1988 1.350 . S
C1983 N1991 1.427 . S
C1984 H1975 0.930 . S
C1984 C1982 1.378 . S
C1984 C1985 1.367 . S
C1985 C1984 1.367 . S
C1985 C1987 1.433 . S
C1986 C1982 1.350 . S
C1986 C1983 1.463 . S
C1986 N1990 1.427 . S
C1987 H1977 0.929 . S
C1987 C1985 1.433 . S
C1987 N1990 1.384 . S
C1988 H1979 0.929 . S
C1988 C1980 1.378 . S
C1988 C1983 1.350 . S
C1989 H1976 0.929 . S
C1989 C1981 1.433 . S
C1989 N1991 1.384 . S
N1990 C1986 1.427 . S
N1990 C1987 1.384 . S
N1991 C1983 1.427 . S
N1991 C1989 1.384 . S
H1992 C1998 0.930 . S
H1993 C2002 0.930 . S
H1994 C2007 0.929 . S
H1995 C2005 0.929 . S
H1996 C2000 0.929 . S
H1997 C2006 0.929 . S
C1998 H1992 0.930 . S
C1998 C1999 1.367 . S
C1998 C2006 1.378 . S
C1999 C1998 1.367 . S
C1999 C2007 1.433 . S
C2000 H1996 0.929 . S
C2000 C2002 1.378 . S
C2000 C2004 1.350 . S
C2001 C2004 1.463 . S
C2001 C2006 1.350 . S
C2001 N2009 1.427 . S
C2002 H1993 0.930 . S
C2002 C2000 1.378 . S
C2002 C2003 1.367 . S
C2003 C2002 1.367 . S
C2003 C2005 1.433 . S
C2004 C2000 1.350 . S
C2004 C2001 1.463 . S
C2004 N2008 1.427 . S
C2005 H1995 0.929 . S
C2005 C2003 1.433 . S
C2005 N2008 1.384 . S
C2006 H1997 0.929 . S
C2006 C1998 1.378 . S
C2006 C2001 1.350 . S
C2007 H1994 0.929 . S
C2007 C1999 1.433 . S
C2007 N2009 1.384 . S
N2008 C2004 1.427 . S
N2008 C2005 1.384 . S
N2009 C2001 1.427 . S
N2009 C2007 1.384 . S
H2010 C2016 0.930 . S
H2011 C2020 0.930 . S
H2012 C2025 0.929 . S
H2013 C2023 0.929 . S
H2014 C2018 0.929 . S
H2015 C2024 0.929 . S
C2016 H2010 0.930 . S
C2016 C2017 1.367 . S
C2016 C2024 1.378 . S
C2017 C2016 1.367 . S
C2017 C2025 1.433 . S
C2018 H2014 0.929 . S
C2018 C2020 1.378 . S
C2018 C2022 1.350 . S
C2019 C2022 1.463 . S
C2019 C2024 1.350 . S
C2019 N2027 1.427 . S
C2020 H2011 0.930 . S
C2020 C2018 1.378 . S
C2020 C2021 1.367 . S
C2021 C2020 1.367 . S
C2021 C2023 1.433 . S
C2022 C2018 1.350 . S
C2022 C2019 1.463 . S
C2022 N2026 1.427 . S
C2023 H2013 0.929 . S
C2023 C2021 1.433 . S
C2023 N2026 1.384 . S
C2024 H2015 0.929 . S
C2024 C2016 1.378 . S
C2024 C2019 1.350 . S
C2025 H2012 0.929 . S
C2025 C2017 1.433 . S
C2025 N2027 1.384 . S
N2026 C2022 1.427 . S
N2026 C2023 1.384 . S
N2027 C2019 1.427 . S
N2027 C2025 1.384 . S
H2028 C2034 0.930 . S
H2029 C2038 0.930 . S
H2030 C2043 0.929 . S
H2031 C2041 0.929 . S
H2032 C2036 0.929 . S
H2033 C2042 0.929 . S
C2034 H2028 0.930 . S
C2034 C2035 1.367 . S
C2034 C2042 1.378 . S
C2035 C2034 1.367 . S
C2035 C2043 1.433 . S
C2036 H2032 0.929 . S
C2036 C2038 1.378 . S
C2036 C2040 1.350 . S
C2037 C2040 1.463 . S
C2037 C2042 1.350 . S
C2037 N2045 1.427 . S
C2038 H2029 0.930 . S
C2038 C2036 1.378 . S
C2038 C2039 1.367 . S
C2039 C2038 1.367 . S
C2039 C2041 1.433 . S
C2040 C2036 1.350 . S
C2040 C2037 1.463 . S
C2040 N2044 1.427 . S
C2041 H2031 0.929 . S
C2041 C2039 1.433 . S
C2041 N2044 1.384 . S
C2042 H2033 0.929 . S
C2042 C2034 1.378 . S
C2042 C2037 1.350 . S
C2043 H2030 0.929 . S
C2043 C2035 1.433 . S
C2043 N2045 1.384 . S
N2044 C2040 1.427 . S
N2044 C2041 1.384 . S
N2045 C2037 1.427 . S
N2045 C2043 1.384 . S
H2046 C2052 0.930 . S
H2047 C2056 0.930 . S
H2048 C2061 0.929 . S
H2049 C2059 0.929 . S
H2050 C2054 0.929 . S
H2051 C2060 0.929 . S
C2052 H2046 0.930 . S
C2052 C2053 1.367 . S
C2052 C2060 1.378 . S
C2053 C2052 1.367 . S
C2053 C2061 1.433 . S
C2054 H2050 0.929 . S
C2054 C2056 1.378 . S
C2054 C2058 1.350 . S
C2055 C2058 1.463 . S
C2055 C2060 1.350 . S
C2055 N2063 1.427 . S
C2056 H2047 0.930 . S
C2056 C2054 1.378 . S
C2056 C2057 1.367 . S
C2057 C2056 1.367 . S
C2057 C2059 1.433 . S
C2058 C2054 1.350 . S
C2058 C2055 1.463 . S
C2058 N2062 1.427 . S
C2059 H2049 0.929 . S
C2059 C2057 1.433 . S
C2059 N2062 1.384 . S
C2060 H2051 0.929 . S
C2060 C2052 1.378 . S
C2060 C2055 1.350 . S
C2061 H2048 0.929 . S
C2061 C2053 1.433 . S
C2061 N2063 1.384 . S
N2062 C2058 1.427 . S
N2062 C2059 1.384 . S
N2063 C2055 1.427 . S
N2063 C2061 1.384 . S
H2064 C2070 0.930 . S
H2065 C2074 0.930 . S
H2066 C2079 0.929 . S
H2067 C2077 0.929 . S
H2068 C2072 0.929 . S
H2069 C2078 0.929 . S
C2070 H2064 0.930 . S
C2070 C2071 1.367 . S
C2070 C2078 1.378 . S
C2071 C2070 1.367 . S
C2071 C2079 1.433 . S
C2072 H2068 0.929 . S
C2072 C2074 1.378 . S
C2072 C2076 1.350 . S
C2073 C2076 1.463 . S
C2073 C2078 1.350 . S
C2073 N2081 1.427 . S
C2074 H2065 0.930 . S
C2074 C2072 1.378 . S
C2074 C2075 1.367 . S
C2075 C2074 1.367 . S
C2075 C2077 1.433 . S
C2076 C2072 1.350 . S
C2076 C2073 1.463 . S
C2076 N2080 1.427 . S
C2077 H2067 0.929 . S
C2077 C2075 1.433 . S
C2077 N2080 1.384 . S
C2078 H2069 0.929 . S
C2078 C2070 1.378 . S
C2078 C2073 1.350 . S
C2079 H2066 0.929 . S
C2079 C2071 1.433 . S
C2079 N2081 1.384 . S
N2080 C2076 1.427 . S
N2080 C2077 1.384 . S
N2081 C2073 1.427 . S
N2081 C2079 1.384 . S
H2082 C2088 0.930 . S
H2083 C2092 0.930 . S
H2084 C2097 0.929 . S
H2085 C2095 0.929 . S
H2086 C2090 0.929 . S
H2087 C2096 0.929 . S
C2088 H2082 0.930 . S
C2088 C2089 1.367 . S
C2088 C2096 1.378 . S
C2089 C2088 1.367 . S
C2089 C2097 1.433 . S
C2090 H2086 0.929 . S
C2090 C2092 1.378 . S
C2090 C2094 1.350 . S
C2091 C2094 1.463 . S
C2091 C2096 1.350 . S
C2091 N2099 1.427 . S
C2092 H2083 0.930 . S
C2092 C2090 1.378 . S
C2092 C2093 1.367 . S
C2093 C2092 1.367 . S
C2093 C2095 1.433 . S
C2094 C2090 1.350 . S
C2094 C2091 1.463 . S
C2094 N2098 1.427 . S
C2095 H2085 0.929 . S
C2095 C2093 1.433 . S
C2095 N2098 1.384 . S
C2096 H2087 0.929 . S
C2096 C2088 1.378 . S
C2096 C2091 1.350 . S
C2097 H2084 0.929 . S
C2097 C2089 1.433 . S
C2097 N2099 1.384 . S
N2098 C2094 1.427 . S
N2098 C2095 1.384 . S
N2099 C2091 1.427 . S
N2099 C2097 1.384 . S
H2100 C2106 0.930 . S
H2101 C2110 0.930 . S
H2102 C2115 0.929 . S
H2103 C2113 0.929 . S
H2104 C2108 0.929 . S
H2105 C2114 0.929 . S
C2106 H2100 0.930 . S
C2106 C2107 1.367 . S
C2106 C2114 1.378 . S
C2107 C2106 1.367 . S
C2107 C2115 1.433 . S
C2108 H2104 0.929 . S
C2108 C2110 1.378 . S
C2108 C2112 1.350 . S
C2109 C2112 1.463 . S
C2109 C2114 1.350 . S
C2109 N2117 1.427 . S
C2110 H2101 0.930 . S
C2110 C2108 1.378 . S
C2110 C2111 1.367 . S
C2111 C2110 1.367 . S
C2111 C2113 1.433 . S
C2112 C2108 1.350 . S
C2112 C2109 1.463 . S
C2112 N2116 1.427 . S
C2113 H2103 0.929 . S
C2113 C2111 1.433 . S
C2113 N2116 1.384 . S
C2114 H2105 0.929 . S
C2114 C2106 1.378 . S
C2114 C2109 1.350 . S
C2115 H2102 0.929 . S
C2115 C2107 1.433 . S
C2115 N2117 1.384 . S
N2116 C2112 1.427 . S
N2116 C2113 1.384 . S
N2117 C2109 1.427 . S
N2117 C2115 1.384 . S
H2118 C2124 0.930 . S
H2119 C2128 0.930 . S
H2120 C2133 0.929 . S
H2121 C2131 0.929 . S
H2122 C2126 0.929 . S
H2123 C2132 0.929 . S
C2124 H2118 0.930 . S
C2124 C2125 1.367 . S
C2124 C2132 1.378 . S
C2125 C2124 1.367 . S
C2125 C2133 1.433 . S
C2126 H2122 0.929 . S
C2126 C2128 1.378 . S
C2126 C2130 1.350 . S
C2127 C2130 1.463 . S
C2127 C2132 1.350 . S
C2127 N2135 1.427 . S
C2128 H2119 0.930 . S
C2128 C2126 1.378 . S
C2128 C2129 1.367 . S
C2129 C2128 1.367 . S
C2129 C2131 1.433 . S
C2130 C2126 1.350 . S
C2130 C2127 1.463 . S
C2130 N2134 1.427 . S
C2131 H2121 0.929 . S
C2131 C2129 1.433 . S
C2131 N2134 1.384 . S
C2132 H2123 0.929 . S
C2132 C2124 1.378 . S
C2132 C2127 1.350 . S
C2133 H2120 0.929 . S
C2133 C2125 1.433 . S
C2133 N2135 1.384 . S
N2134 C2130 1.427 . S
N2134 C2131 1.384 . S
N2135 C2127 1.427 . S
N2135 C2133 1.384 . S
C1279 C410 1.522 . S
C1283 C29 1.457 . S
C1297 C82 0.771 . S
C1301 C241 0.777 . S
C1315 C304 1.398 . S
C1319 C135 1.341 . S
C1333 C188 0.898 . S
C1337 C347 0.906 . S
C1351 C463 2.068 . S
C1355 C39 2.161 . S
C1369 C92 1.278 . S
C1373 C506 1.267 . S
C1387 C569 2.021 . S
C1391 C145 2.124 . S
C1405 C612 1.161 . S
C1409 C198 1.148 . S
C1423 C251 1.545 . S
C1427 C516 1.572 . S
C1441 C294 1.148 . S
C1445 C559 1.211 . S
C1459 C622 1.667 . S
C1463 C357 1.632 . S
C1477 C453 1.288 . S
C1481 C400 1.216 . S
C1495 C1142 1.512 . S
C1499 C675 1.439 . S
C1513 C728 1.663 . S
C1517 C1205 1.629 . S
C1531 C781 1.200 . S
C1535 C1248 1.218 . S
C1549 C1258 1.771 . S
C1553 C834 1.825 . S
C1567 C887 1.899 . S
C1571 C1152 1.897 . S
C1585 C1046 1.199 . S
C1589 C930 1.203 . S
C1603 C665 1.141 . S
C1607 C877 1.116 . S
C1621 C718 0.761 . S
C1625 C993 0.776 . S
C1639 C771 1.330 . S
C1643 C824 1.314 . S
C1657 C940 1.772 . S
C1661 C1099 1.788 . S
C1675 C983 0.917 . S
C1679 C1195 0.927 . S
C1693 C1089 0.842 . S
C1697 C1036 0.855 . S
C1711 C234 2.440 . S
C1715 C22 2.368 . S
C1729 C303 1.772 . S
C1733 C75 1.694 . S
C1747 C340 2.595 . S
C1751 C128 2.524 . S
C1765 C409 2.461 . S
C1769 C181 2.400 . S
C1783 C462 2.937 . S
C1787 C621 3.023 . S
C1801 C499 2.371 . S
C1805 C446 2.429 . S
C1819 C568 2.612 . S
C1823 C515 2.688 . S
C1837 C552 1.832 . S
C1841 C605 1.769 . S
C1855 C976 2.835 . S
C1859 C393 2.703 . S
C1873 C674 2.475 . S
C1877 C197 2.579 . S
C1891 C38 2.499 . S
C1895 C727 2.464 . S
C1909 C91 3.237 . S
C1913 C780 3.145 . S
C1927 C287 2.530 . S
C1931 C1029 2.616 . S
C1945 C250 1.926 . S
C1949 C833 1.963 . S
C1963 C356 1.978 . S
C1967 C886 2.028 . S
C1981 C870 2.325 . S
C1985 C923 2.394 . S
C1999 C658 1.587 . S
C2003 C992 1.542 . S
C2017 C817 2.275 . S
C2021 C711 2.386 . S
C2035 C1045 2.897 . S
C2039 C764 2.920 . S
C2053 C1098 2.486 . S
C2057 C1257 2.453 . S
C2071 C1082 2.353 . S
C2075 C1135 2.417 . S
C2089 C1204 2.781 . S
C2093 C1151 2.743 . S
C2107 C1241 1.802 . S
C2111 C1188 1.717 . S
C2125 C144 2.779 . S
C2129 C939 2.723 . S
