# Generated by pormake.
# Topology uov, (4)-cn, num edge types: 1
# Building blocks:
#     Node 0, Type 0, BuildingBlock: KUFVIS_clean_sbu_0, # of connection points: 4
#     Node 1, Type 0, BuildingBlock: KUFVIS_clean_sbu_0, # of connection points: 4
#     Node 2, Type 0, BuildingBlock: KUFVIS_clean_sbu_0, # of connection points: 4
#     Node 3, Type 0, BuildingBlock: KUFVIS_clean_sbu_0, # of connection points: 4
#     Node 4, Type 0, BuildingBlock: KUFVIS_clean_sbu_0, # of connection points: 4
#     Node 5, Type 0, BuildingBlock: KUFVIS_clean_sbu_0, # of connection points: 4
#     Node 6, Type 0, BuildingBlock: KUFVIS_clean_sbu_0, # of connection points: 4
#     Node 7, Type 0, BuildingBlock: KUFVIS_clean_sbu_0, # of connection points: 4
#     Edge 8, Type (0, 0), None
#     Edge 9, Type (0, 0), None
#     Edge 10, Type (0, 0), None
#     Edge 11, Type (0, 0), None
#     Edge 12, Type (0, 0), None
#     Edge 13, Type (0, 0), None
#     Edge 14, Type (0, 0), None
#     Edge 15, Type (0, 0), None
#     Edge 16, Type (0, 0), None
#     Edge 17, Type (0, 0), None
#     Edge 18, Type (0, 0), None
#     Edge 19, Type (0, 0), None
#     Edge 20, Type (0, 0), None
#     Edge 21, Type (0, 0), None
#     Edge 22, Type (0, 0), None
#     Edge 23, Type (0, 0), None
# Relax obj value: 0.170
# Max RMSD: 0.196
# Mean RMSD: 0.182
data_MOF--net-uov--node1-KUFVIS_clean_sbu_0--edge1-none
_symmetry_space_group_name_H-M    P1
_symmetry_Int_Tables_number       1
_symmetry_cell_setting            triclinic
loop_
_symmetry_equiv_pos_as_xyz
'x, y, z'
_cell_length_a     12.986741
_cell_length_b     13.989257
_cell_length_c     18.735992
_cell_angle_alpha  90.716077
_cell_angle_beta   90.279065
_cell_angle_gamma 92.513948
loop_
_atom_site_label
_atom_site_type_symbol
_atom_site_fract_x
_atom_site_fract_y
_atom_site_fract_z
_atom_type_partial_charge
Mn0 Mn 0.06681 0.26569 0.57291 0.0
Mn1 Mn 0.90155 0.263 0.697 0.0
C2 C 0.88595 0.24938 0.52682 0.0
C3 C 0.1689 0.17155 0.50568 0.0
C4 C 0.01236 0.44485 0.65073 0.0
O5 O 0.15405 0.22722 0.66972 0.0
O6 O 0.01539 0.1672 0.71912 0.0
C7 C 0.82549 0.0745 0.64967 0.0
N8 N 0.80687 0.159 0.68265 0.0
C9 C 0.62503 0.12778 0.67781 0.0
C10 C 0.64177 0.04205 0.64106 0.0
C11 C 0.74232 0.01304 0.63041 0.0
C12 C 0.71038 0.18881 0.68894 0.0
H13 H 0.90345 0.05447 0.63887 0.0
C14 C 0.11424 0.17063 0.71769 0.0
O15 O 0.19499 0.2613 0.5146 0.0
O16 O 0.08837 0.13699 0.53776 0.0
N17 N 0.78342 0.3422 0.69784 0.0
C18 C 0.78162 0.43279 0.72681 0.0
C19 C 0.6916 0.46614 0.75787 0.0
C20 C 0.60325 0.40558 0.76157 0.0
C21 C 0.60634 0.31276 0.73402 0.0
C22 C 0.69875 0.28341 0.70391 0.0
H23 H 0.84988 0.47785 0.73324 0.0
O24 O 0.96282 0.28198 0.48962 0.0
O25 O 0.9204 0.24145 0.59281 0.0
O26 O 0.0537 0.40963 0.59542 0.0
O27 O 0.99171 0.38815 0.70363 0.0
C28 C 0.523 0.24572 0.73911 0.0
C29 C 0.53037 0.15511 0.70685 0.0
H30 H 0.57981 -0.00104 0.61797 0.0
H31 H 0.75575 0.94309 0.60884 0.0
H32 H 0.69164 0.53724 0.78135 0.0
H33 H 0.53475 0.4296 0.78771 0.0
H34 H 0.45167 0.26461 0.76437 0.0
H35 H 0.46521 0.10623 0.71101 0.0
Mn36 Mn 0.22545 0.96059 0.40633 0.0
Mn37 Mn 0.34727 0.7641 0.37687 0.0
C38 C 0.16846 0.8289 0.4796 0.0
C39 C 0.21957 0.109 0.45755 0.0
C40 C 0.17508 0.82298 0.28325 0.0
O41 O 0.35851 0.00732 0.35096 0.0
O42 O 0.44812 0.87693 0.35748 0.0
C43 C 0.50823 0.78677 0.4865 0.0
N44 N 0.42708 0.7351 0.45691 0.0
C45 C 0.43856 0.61301 0.5428 0.0
C46 C 0.52526 0.66252 0.57257 0.0
C47 C 0.5592 0.75049 0.54508 0.0
C48 C 0.39115 0.65222 0.48459 0.0
H49 H 0.53357 0.85553 0.46635 0.0
C50 C 0.44538 0.96758 0.34885 0.0
O51 O 0.17341 0.08957 0.39736 0.0
O52 O 0.27524 0.04391 0.48475 0.0
N53 N 0.2661 0.65022 0.39539 0.0
C54 C 0.18819 0.6065 0.35624 0.0
C55 C 0.14281 0.51967 0.37922 0.0
C56 C 0.17842 0.4781 0.44169 0.0
C57 C 0.26265 0.52141 0.47846 0.0
C58 C 0.30525 0.60774 0.45284 0.0
H59 H 0.16198 0.63561 0.30695 0.0
O60 O 0.1159 0.90425 0.47133 0.0
O61 O 0.25732 0.83482 0.44419 0.0
O62 O 0.14867 0.89318 0.32185 0.0
O63 O 0.26291 0.78655 0.2902 0.0
C64 C 0.30784 0.48179 0.5386 0.0
C65 C 0.39577 0.52771 0.56958 0.0
H66 H 0.5639 0.6373 0.61912 0.0
H67 H 0.62277 0.79095 0.57009 0.0
H68 H 0.08205 0.4839 0.34808 0.0
H69 H 0.14212 0.41179 0.45942 0.0
H70 H 0.27631 0.41656 0.56173 0.0
H71 H 0.42916 0.49845 0.61554 0.0
Mn72 Mn 0.93379 0.72883 0.5672 0.0
Mn73 Mn 0.10851 0.74141 0.68662 0.0
C74 C 0.11225 0.7454 0.51882 0.0
C75 C 0.82668 0.82115 0.50212 0.0
C76 C 0.99112 0.5538 0.64916 0.0
O77 O 0.85174 0.77096 0.66398 0.0
O78 O 0.99193 0.83445 0.7125 0.0
C79 C 0.17638 0.93409 0.64408 0.0
N80 N 0.1991 0.84796 0.67123 0.0
C81 C 0.38002 0.88585 0.66819 0.0
C82 C 0.35906 0.97505 0.63974 0.0
C83 C 0.25706 0.00035 0.63006 0.0
C84 C 0.29706 0.8212 0.67556 0.0
H85 H 0.09734 0.95223 0.63495 0.0
C86 C 0.89265 0.83078 0.71043 0.0
O87 O 0.80176 0.73136 0.51099 0.0
O88 O 0.90947 0.8561 0.53204 0.0
N89 N 0.2293 0.66581 0.67864 0.0
C90 C 0.23787 0.57222 0.69743 0.0
C91 C 0.33097 0.53951 0.72388 0.0
C92 C 0.41661 0.60281 0.73089 0.0
C93 C 0.40806 0.69742 0.71062 0.0
C94 C 0.31247 0.72644 0.68569 0.0
H95 H 0.17339 0.52316 0.69939 0.0
O96 O 0.03471 0.70959 0.48256 0.0
O97 O 0.07996 0.75701 0.58455 0.0
O98 O 0.94927 0.58573 0.59307 0.0
O99 O 0.02264 0.6145 0.69787 0.0
C100 C 0.48991 0.76552 0.71739 0.0
C101 C 0.47703 0.85855 0.69319 0.0
H102 H 0.41887 0.024 0.62199 0.0
H103 H 0.24129 0.07124 0.61296 0.0
H104 H 0.33612 0.46577 0.73993 0.0
H105 H 0.48839 0.57859 0.7519 0.0
H106 H 0.56367 0.74651 0.7391 0.0
H107 H 0.54011 0.90866 0.7013 0.0
Mn108 Mn 0.76768 0.03398 0.40929 0.0
Mn109 Mn 0.64697 0.23191 0.38577 0.0
C110 C 0.8268 0.16494 0.48744 0.0
C111 C 0.7732 0.88331 0.45565 0.0
C112 C 0.81536 0.17198 0.28926 0.0
O113 O 0.63444 0.99011 0.35074 0.0
O114 O 0.54457 0.11973 0.36481 0.0
C115 C 0.48879 0.21303 0.49627 0.0
N116 N 0.57225 0.26137 0.46834 0.0
C117 C 0.57681 0.37614 0.56311 0.0
C118 C 0.48905 0.32888 0.59207 0.0
C119 C 0.44517 0.24696 0.55884 0.0
C120 C 0.61608 0.33961 0.50042 0.0
H121 H 0.45556 0.14902 0.47138 0.0
C122 C 0.5474 0.02982 0.35085 0.0
O123 O 0.81847 0.90455 0.3962 0.0
O124 O 0.71797 0.948 0.48474 0.0
N125 N 0.73065 0.34423 0.40566 0.0
C126 C 0.80305 0.38953 0.36407 0.0
C127 C 0.85236 0.47463 0.38854 0.0
C128 C 0.82613 0.51274 0.45501 0.0
C129 C 0.74715 0.46794 0.4949 0.0
C130 C 0.69984 0.38373 0.46733 0.0
H131 H 0.82123 0.36319 0.3117 0.0
O132 O 0.87794 0.08882 0.47742 0.0
O133 O 0.7385 0.15995 0.45056 0.0
O134 O 0.84318 0.10272 0.32713 0.0
O135 O 0.72763 0.20857 0.29716 0.0
C136 C 0.7105 0.50499 0.55936 0.0
C137 C 0.62557 0.45893 0.59291 0.0
H138 H 0.45368 0.35417 0.64028 0.0
H139 H 0.37873 0.20984 0.58188 0.0
H140 H 0.90858 0.51199 0.35555 0.0
H141 H 0.86515 0.57804 0.47311 0.0
H142 H 0.7446 0.5701 0.58273 0.0
H143 H 0.59571 0.49004 0.64053 0.0
Mn144 Mn 0.93334 0.25228 0.0819 0.0
Mn145 Mn 0.11477 0.27774 0.20651 0.0
C146 C 0.10827 0.25287 0.04549 0.0
C147 C 0.8273 0.13715 0.017 0.0
C148 C 1.00165 0.44233 0.14807 0.0
O149 O 0.8514 0.23233 0.17357 0.0
O150 O 0.98458 0.21821 0.24872 0.0
C151 C 0.13605 0.07336 0.1991 0.0
N152 N 0.18167 0.16101 0.21136 0.0
C153 C 0.34997 0.1004 0.19532 0.0
C154 C 0.30519 0.00828 0.18656 0.0
C155 C 0.19764 -0.00285 0.18246 0.0
C156 C 0.28395 0.17594 0.20159 0.0
H157 H 0.05323 0.06469 0.19477 0.0
C158 C 0.8877 0.21151 0.23434 0.0
O159 O 0.80392 0.22652 0.02061 0.0
O160 O 0.90822 0.11557 0.05186 0.0
N161 N 0.24574 0.33266 0.17812 0.0
C162 C 0.27326 0.42653 0.16736 0.0
C163 C 0.3779 0.45486 0.16234 0.0
C164 C 0.45344 0.38644 0.16777 0.0
C165 C 0.42353 0.29052 0.17854 0.0
C166 C 0.31832 0.26752 0.18653 0.0
H167 H 0.2165 0.48037 0.16544 0.0
O168 O 0.03295 0.27365 1.00542 0.0
O169 O 0.07654 0.23498 0.10994 0.0
O170 O 0.94788 0.39589 0.10088 0.0
O171 O 0.05185 0.40335 0.19787 0.0
C172 C 0.49373 0.21673 0.18272 0.0
C173 C 0.4562 0.12124 0.18993 0.0
H174 H 0.35186 0.94751 0.17615 0.0
H175 H 0.16207 0.93237 0.16232 0.0
H176 H 0.39987 0.52965 0.15621 0.0
H177 H 0.53412 0.4081 0.16518 0.0
H178 H 0.57587 0.2321 0.17781 0.0
H179 H 0.50836 0.06385 0.1906 0.0
Mn180 Mn 0.26389 0.08125 0.93084 0.0
Mn181 Mn 0.25006 0.90131 0.82006 0.0
C182 C 0.24316 0.92365 0.9764 0.0
C183 C 0.17541 0.18758 1.00645 0.0
C184 C 0.44676 0.00951 0.84989 0.0
O185 O 0.23057 0.14466 0.82674 0.0
O186 O 0.16511 0.01162 0.77357 0.0
C187 C 0.03494 0.82779 0.84788 0.0
N188 N 0.13488 0.81309 0.83242 0.0
C189 C 0.10408 0.64267 0.84092 0.0
C190 C 0.99922 0.65538 0.84038 0.0
C191 C 0.96518 0.7472 0.84921 0.0
C192 C 0.17004 0.72361 0.83901 0.0
H193 H 0.00881 0.89973 0.85404 0.0
C194 C 0.17795 0.10544 0.77351 0.0
O195 O 0.27076 0.20691 0.98902 0.0
O196 O 0.13104 0.11573 0.9732 0.0
N197 N 0.32648 0.79939 0.86168 0.0
C198 C 0.41208 0.80322 0.90401 0.0
C199 C 0.45921 0.71897 0.92336 0.0
C200 C 0.40893 0.6305 0.90876 0.0
C201 C 0.31005 0.6292 0.87903 0.0
C202 C 0.27173 0.71627 0.85582 0.0
H203 H 0.43639 0.86833 0.93022 0.0
O204 O 0.27906 0.99356 0.01618 0.0
O205 O 0.22128 0.95098 0.91273 0.0
O206 O 0.41374 0.05392 0.90442 0.0
O207 O 0.38273 0.976 0.80362 0.0
C208 C 0.24694 0.54555 0.87226 0.0
C209 C 0.14513 0.55294 0.84838 0.0
H210 H 0.94419 0.59533 0.8392 0.0
H211 H 0.8855 0.75128 0.85978 0.0
H212 H 0.53078 0.72255 0.95308 0.0
H213 H 0.44299 0.5651 0.92561 0.0
H214 H 0.27629 0.47599 0.88355 0.0
H215 H 0.09893 0.49112 0.83338 0.0
Mn216 Mn 0.07215 0.73135 0.07192 0.0
Mn217 Mn 0.88006 0.71307 0.18871 0.0
C218 C 0.90175 0.72909 0.02881 0.0
C219 C 0.18112 0.8455 0.01085 0.0
C220 C 0.00452 0.54646 0.14528 0.0
O221 O 0.14413 0.7611 0.16679 0.0
O222 O 0.00637 0.77442 0.23836 0.0
C223 C 0.85569 0.91726 0.19547 0.0
N224 N 0.81053 0.82862 0.18978 0.0
C225 C 0.65057 0.8915 0.15057 0.0
C226 C 0.69505 0.98384 0.15883 0.0
C227 C 0.79897 0.99528 0.17769 0.0
C228 C 0.71287 0.8148 0.16492 0.0
H229 H 0.9368 0.92738 0.20729 0.0
C230 C 0.10397 0.78396 0.22618 0.0
O231 O 0.20679 0.75696 0.01667 0.0
O232 O 0.09607 0.86624 0.04045 0.0
N233 N 0.75614 0.6575 0.14687 0.0
C234 C 0.73741 0.56686 0.12124 0.0
C235 C 0.64261 0.54239 0.08858 0.0
C236 C 0.56748 0.61087 0.08267 0.0
C237 C 0.58803 0.70358 0.10964 0.0
C238 C 0.68374 0.72359 0.14264 0.0
H239 H 0.79445 0.51363 0.12485 0.0
O240 O 0.97797 0.70385 0.99013 0.0
O241 O 0.92982 0.74933 0.09433 0.0
O242 O 0.05892 0.58853 0.097 0.0
O243 O 0.94448 0.58867 0.18754 0.0
C244 C 0.52018 0.77842 0.10089 0.0
C245 C 0.55253 0.87281 0.11969 0.0
H246 H 0.65582 0.04577 0.14108 0.0
H247 H 0.83846 0.06215 0.17156 0.0
H248 H 0.62812 0.47082 0.06768 0.0
H249 H 0.49528 0.59205 0.05587 0.0
H250 H 0.44547 0.76517 0.07585 0.0
H251 H 0.5038 0.93087 0.10645 0.0
Mn252 Mn 0.74457 0.90621 0.92367 0.0
Mn253 Mn 0.75263 0.09405 0.82369 0.0
C254 C 0.7672 0.05983 0.97814 0.0
C255 C 0.83511 0.79423 0.99032 0.0
C256 C 0.55862 0.98084 0.84848 0.0
O257 O 0.77445 0.85076 0.81713 0.0
O258 O 0.83967 0.98738 0.77202 0.0
C259 C 0.96537 0.16512 0.85254 0.0
N260 N 0.86559 0.18362 0.84056 0.0
C261 C 0.898 0.34918 0.87634 0.0
C262 C 0.00217 0.33413 0.87554 0.0
C263 C 0.03574 0.24264 0.86466 0.0
C264 C 0.83075 0.27169 0.85777 0.0
H265 H 0.99046 0.09248 0.84996 0.0
C266 C 0.82834 0.89343 0.76752 0.0
O267 O 0.73891 0.7765 0.9734 0.0
O268 O 0.8787 0.86887 0.96196 0.0
N269 N 0.67503 0.19093 0.87242 0.0
C270 C 0.59305 0.17882 0.91705 0.0
C271 C 0.54455 0.25777 0.94594 0.0
C272 C 0.59096 0.34875 0.93869 0.0
C273 C 0.68964 0.35657 0.90943 0.0
C274 C 0.72852 0.27544 0.87482 0.0
H275 H 0.57422 0.11051 0.93906 0.0
O276 O 0.73305 0.98689 0.01353 0.0
O277 O 0.7862 0.03811 0.91255 0.0
O278 O 0.59358 0.93414 0.90062 0.0
O279 O 0.62129 0.01762 0.80369 0.0
C280 C 0.75477 0.43771 0.92136 0.0
C281 C 0.85977 0.43294 0.90657 0.0
H282 H 0.05561 0.38513 0.90058 0.0
H283 H 0.11457 0.23399 0.87598 0.0
H284 H 0.47698 0.24765 0.97898 0.0
H285 H 0.55606 0.40959 0.96341 0.0
H286 H 0.727 0.50078 0.9478 0.0
H287 H 0.9118 0.49066 0.92491 0.0
loop_
_geom_bond_atom_site_label_1
_geom_bond_atom_site_label_2
_geom_bond_distance
_geom_bond_site_symmetry_2
_ccdc_geom_bond_type
Mn0 O5 2.095 . S
Mn0 O15 2.162 . S
Mn0 O16 2.297 . S
Mn0 O24 2.385 1_455 S
Mn0 O25 2.209 1_455 S
Mn0 O26 2.094 . S
Mn1 O6 2.121 1_655 S
Mn1 N8 2.257 . S
Mn1 N17 2.282 . S
Mn1 O25 2.215 . S
Mn1 O27 2.117 . S
C2 O24 1.234 . S
C2 O25 1.283 . S
C3 O15 1.281 . S
C3 O16 1.236 . S
C4 O26 1.240 . S
C4 O27 1.264 1_455 S
O5 Mn0 2.095 . S
O5 C14 1.250 . S
O6 Mn1 2.121 1_455 S
O6 C14 1.258 . S
C7 N8 1.326 . S
C7 C11 1.460 . S
C7 H13 0.929 . S
N8 Mn1 2.257 . S
N8 C7 1.326 . S
N8 C12 1.362 . S
C9 C10 1.258 . S
C9 C12 1.431 . S
C9 C29 1.449 . S
C10 C9 1.258 . S
C10 C11 1.477 . S
C10 H30 0.931 . S
C11 C7 1.460 . S
C11 C10 1.477 . S
C11 H31 0.930 . S
C12 N8 1.362 . S
C12 C9 1.431 . S
C12 C22 1.476 . S
H13 C7 0.929 . S
C14 O5 1.250 . S
C14 O6 1.258 . S
O15 Mn0 2.162 . S
O15 C3 1.281 . S
O16 Mn0 2.297 . S
O16 C3 1.236 . S
N17 Mn1 2.282 . S
N17 C18 1.328 . S
N17 C22 1.318 . S
C18 N17 1.328 . S
C18 C19 1.457 . S
C18 H23 0.929 . S
C19 C18 1.457 . S
C19 C20 1.291 . S
C19 H32 0.931 . S
C20 C19 1.291 . S
C20 C21 1.373 . S
C20 H33 0.929 . S
C21 C20 1.373 . S
C21 C22 1.396 . S
C21 C28 1.403 . S
C22 C12 1.476 . S
C22 N17 1.318 . S
C22 C21 1.396 . S
H23 C18 0.929 . S
O24 Mn0 2.385 1_655 S
O24 C2 1.234 . S
O25 Mn0 2.209 1_655 S
O25 Mn1 2.215 . S
O25 C2 1.283 . S
O26 Mn0 2.094 . S
O26 C4 1.240 . S
O27 Mn1 2.117 . S
O27 C4 1.264 1_655 S
C28 C21 1.403 . S
C28 C29 1.399 . S
C28 H34 0.929 . S
C29 C9 1.449 . S
C29 C28 1.399 . S
C29 H35 0.930 . S
H30 C10 0.931 . S
H31 C11 0.930 . S
H32 C19 0.931 . S
H33 C20 0.929 . S
H34 C28 0.929 . S
H35 C29 0.930 . S
Mn36 O41 2.095 . S
Mn36 O51 2.162 1_565 S
Mn36 O52 2.297 1_565 S
Mn36 O60 2.385 . S
Mn36 O61 2.209 . S
Mn36 O62 2.094 . S
Mn37 O42 2.121 . S
Mn37 N44 2.257 . S
Mn37 N53 2.282 . S
Mn37 O61 2.215 . S
Mn37 O63 2.117 . S
C38 O60 1.234 . S
C38 O61 1.283 . S
C39 O51 1.281 . S
C39 O52 1.236 . S
C40 O62 1.240 . S
C40 O63 1.264 . S
O41 Mn36 2.095 . S
O41 C50 1.250 . S
O42 Mn37 2.121 . S
O42 C50 1.258 . S
C43 N44 1.326 . S
C43 C47 1.460 . S
C43 H49 0.929 . S
N44 Mn37 2.257 . S
N44 C43 1.326 . S
N44 C48 1.362 . S
C45 C46 1.258 . S
C45 C48 1.431 . S
C45 C65 1.449 . S
C46 C45 1.258 . S
C46 C47 1.477 . S
C46 H66 0.931 . S
C47 C43 1.460 . S
C47 C46 1.477 . S
C47 H67 0.930 . S
C48 N44 1.362 . S
C48 C45 1.431 . S
C48 C58 1.476 . S
H49 C43 0.929 . S
C50 O41 1.250 . S
C50 O42 1.258 . S
O51 Mn36 2.162 1_545 S
O51 C39 1.281 . S
O52 Mn36 2.297 1_545 S
O52 C39 1.236 . S
N53 Mn37 2.282 . S
N53 C54 1.328 . S
N53 C58 1.318 . S
C54 N53 1.328 . S
C54 C55 1.457 . S
C54 H59 0.929 . S
C55 C54 1.457 . S
C55 C56 1.291 . S
C55 H68 0.931 . S
C56 C55 1.291 . S
C56 C57 1.373 . S
C56 H69 0.929 . S
C57 C56 1.373 . S
C57 C58 1.396 . S
C57 C64 1.403 . S
C58 C48 1.476 . S
C58 N53 1.318 . S
C58 C57 1.396 . S
H59 C54 0.929 . S
O60 Mn36 2.385 . S
O60 C38 1.234 . S
O61 Mn36 2.209 . S
O61 Mn37 2.215 . S
O61 C38 1.283 . S
O62 Mn36 2.094 . S
O62 C40 1.240 . S
O63 Mn37 2.117 . S
O63 C40 1.264 . S
C64 C57 1.403 . S
C64 C65 1.399 . S
C64 H70 0.929 . S
C65 C45 1.449 . S
C65 C64 1.399 . S
C65 H71 0.930 . S
H66 C46 0.931 . S
H67 C47 0.930 . S
H68 C55 0.931 . S
H69 C56 0.929 . S
H70 C64 0.929 . S
H71 C65 0.930 . S
Mn72 O77 2.095 . S
Mn72 O87 2.162 . S
Mn72 O88 2.297 . S
Mn72 O96 2.385 1_655 S
Mn72 O97 2.209 1_655 S
Mn72 O98 2.094 . S
Mn73 O78 2.121 1_455 S
Mn73 N80 2.257 . S
Mn73 N89 2.282 . S
Mn73 O97 2.215 . S
Mn73 O99 2.117 . S
C74 O96 1.234 . S
C74 O97 1.283 . S
C75 O87 1.281 . S
C75 O88 1.236 . S
C76 O98 1.240 . S
C76 O99 1.264 1_655 S
O77 Mn72 2.095 . S
O77 C86 1.250 . S
O78 Mn73 2.121 1_655 S
O78 C86 1.258 . S
C79 N80 1.326 . S
C79 C83 1.460 . S
C79 H85 0.929 . S
N80 Mn73 2.257 . S
N80 C79 1.326 . S
N80 C84 1.362 . S
C81 C82 1.258 . S
C81 C84 1.431 . S
C81 C101 1.449 . S
C82 C81 1.258 . S
C82 C83 1.477 . S
C82 H102 0.931 . S
C83 C79 1.460 . S
C83 C82 1.477 . S
C83 H103 0.930 . S
C84 N80 1.362 . S
C84 C81 1.431 . S
C84 C94 1.476 . S
H85 C79 0.929 . S
C86 O77 1.250 . S
C86 O78 1.258 . S
O87 Mn72 2.162 . S
O87 C75 1.281 . S
O88 Mn72 2.297 . S
O88 C75 1.236 . S
N89 Mn73 2.282 . S
N89 C90 1.328 . S
N89 C94 1.318 . S
C90 N89 1.328 . S
C90 C91 1.457 . S
C90 H95 0.929 . S
C91 C90 1.457 . S
C91 C92 1.291 . S
C91 H104 0.931 . S
C92 C91 1.291 . S
C92 C93 1.373 . S
C92 H105 0.929 . S
C93 C92 1.373 . S
C93 C94 1.396 . S
C93 C100 1.403 . S
C94 C84 1.476 . S
C94 N89 1.318 . S
C94 C93 1.396 . S
H95 C90 0.929 . S
O96 Mn72 2.385 1_455 S
O96 C74 1.234 . S
O97 Mn72 2.209 1_455 S
O97 Mn73 2.215 . S
O97 C74 1.283 . S
O98 Mn72 2.094 . S
O98 C76 1.240 . S
O99 Mn73 2.117 . S
O99 C76 1.264 1_455 S
C100 C93 1.403 . S
C100 C101 1.399 . S
C100 H106 0.929 . S
C101 C81 1.449 . S
C101 C100 1.399 . S
C101 H107 0.930 . S
H102 C82 0.931 . S
H103 C83 0.930 . S
H104 C91 0.931 . S
H105 C92 0.929 . S
H106 C100 0.929 . S
H107 C101 0.930 . S
Mn108 O113 2.095 . S
Mn108 O123 2.162 1_545 S
Mn108 O124 2.297 1_545 S
Mn108 O132 2.385 . S
Mn108 O133 2.209 . S
Mn108 O134 2.094 . S
Mn109 O114 2.121 . S
Mn109 N116 2.257 . S
Mn109 N125 2.282 . S
Mn109 O133 2.215 . S
Mn109 O135 2.117 . S
C110 O132 1.234 . S
C110 O133 1.283 . S
C111 O123 1.281 . S
C111 O124 1.236 . S
C112 O134 1.240 . S
C112 O135 1.264 . S
O113 Mn108 2.095 . S
O113 C122 1.250 . S
O114 Mn109 2.121 . S
O114 C122 1.258 . S
C115 N116 1.326 . S
C115 C119 1.460 . S
C115 H121 0.929 . S
N116 Mn109 2.257 . S
N116 C115 1.326 . S
N116 C120 1.362 . S
C117 C118 1.258 . S
C117 C120 1.431 . S
C117 C137 1.449 . S
C118 C117 1.258 . S
C118 C119 1.477 . S
C118 H138 0.931 . S
C119 C115 1.460 . S
C119 C118 1.477 . S
C119 H139 0.930 . S
C120 N116 1.362 . S
C120 C117 1.431 . S
C120 C130 1.476 . S
H121 C115 0.929 . S
C122 O113 1.250 . S
C122 O114 1.258 . S
O123 Mn108 2.162 1_565 S
O123 C111 1.281 . S
O124 Mn108 2.297 1_565 S
O124 C111 1.236 . S
N125 Mn109 2.282 . S
N125 C126 1.328 . S
N125 C130 1.318 . S
C126 N125 1.328 . S
C126 C127 1.457 . S
C126 H131 0.929 . S
C127 C126 1.457 . S
C127 C128 1.291 . S
C127 H140 0.931 . S
C128 C127 1.291 . S
C128 C129 1.373 . S
C128 H141 0.929 . S
C129 C128 1.373 . S
C129 C130 1.396 . S
C129 C136 1.403 . S
C130 C120 1.476 . S
C130 N125 1.318 . S
C130 C129 1.396 . S
H131 C126 0.929 . S
O132 Mn108 2.385 . S
O132 C110 1.234 . S
O133 Mn108 2.209 . S
O133 Mn109 2.215 . S
O133 C110 1.283 . S
O134 Mn108 2.094 . S
O134 C112 1.240 . S
O135 Mn109 2.117 . S
O135 C112 1.264 . S
C136 C129 1.403 . S
C136 C137 1.399 . S
C136 H142 0.929 . S
C137 C117 1.449 . S
C137 C136 1.399 . S
C137 H143 0.930 . S
H138 C118 0.931 . S
H139 C119 0.930 . S
H140 C127 0.931 . S
H141 C128 0.929 . S
H142 C136 0.929 . S
H143 C137 0.930 . S
Mn144 O149 2.095 . S
Mn144 O159 2.162 1_554 S
Mn144 O160 2.297 . S
Mn144 O168 2.385 1_654 S
Mn144 O169 2.209 1_655 S
Mn144 O170 2.094 . S
Mn145 O150 2.121 1_455 S
Mn145 N152 2.257 . S
Mn145 N161 2.282 . S
Mn145 O169 2.215 . S
Mn145 O171 2.117 . S
C146 O168 1.234 1_554 S
C146 O169 1.283 . S
C147 O159 1.281 1_554 S
C147 O160 1.236 . S
C148 O170 1.240 . S
C148 O171 1.264 1_655 S
O149 Mn144 2.095 . S
O149 C158 1.250 . S
O150 Mn145 2.121 1_655 S
O150 C158 1.258 . S
C151 N152 1.326 . S
C151 C155 1.460 . S
C151 H157 0.929 . S
N152 Mn145 2.257 . S
N152 C151 1.326 . S
N152 C156 1.362 . S
C153 C154 1.258 . S
C153 C156 1.431 . S
C153 C173 1.449 . S
C154 C153 1.258 . S
C154 C155 1.477 . S
C154 H174 0.931 . S
C155 C151 1.460 . S
C155 C154 1.477 . S
C155 H175 0.930 . S
C156 N152 1.362 . S
C156 C153 1.431 . S
C156 C166 1.476 . S
H157 C151 0.929 . S
C158 O149 1.250 . S
C158 O150 1.258 . S
O159 Mn144 2.162 1_556 S
O159 C147 1.281 1_556 S
O160 Mn144 2.297 . S
O160 C147 1.236 . S
N161 Mn145 2.282 . S
N161 C162 1.328 . S
N161 C166 1.318 . S
C162 N161 1.328 . S
C162 C163 1.457 . S
C162 H167 0.929 . S
C163 C162 1.457 . S
C163 C164 1.291 . S
C163 H176 0.931 1_554 S
C164 C163 1.291 . S
C164 C165 1.373 . S
C164 H177 0.929 . S
C165 C164 1.373 . S
C165 C166 1.396 . S
C165 C172 1.403 . S
C166 C156 1.476 . S
C166 N161 1.318 . S
C166 C165 1.396 . S
H167 C162 0.929 . S
O168 Mn144 2.385 1_456 S
O168 C146 1.234 1_556 S
O169 Mn144 2.209 1_455 S
O169 Mn145 2.215 . S
O169 C146 1.283 . S
O170 Mn144 2.094 . S
O170 C148 1.240 . S
O171 Mn145 2.117 . S
O171 C148 1.264 1_455 S
C172 C165 1.403 . S
C172 C173 1.399 . S
C172 H178 0.929 . S
C173 C153 1.449 . S
C173 C172 1.399 . S
C173 H179 0.930 . S
H174 C154 0.931 . S
H175 C155 0.930 . S
H176 C163 0.931 1_556 S
H177 C164 0.929 . S
H178 C172 0.929 . S
H179 C173 0.930 . S
Mn180 O185 2.095 . S
Mn180 O195 2.162 . S
Mn180 O196 2.297 . S
Mn180 O204 2.386 1_556 S
Mn180 O205 2.209 1_545 S
Mn180 O206 2.094 . S
Mn181 O186 2.121 1_565 S
Mn181 N188 2.257 . S
Mn181 N197 2.282 . S
Mn181 O205 2.215 . S
Mn181 O207 2.117 1_565 S
C182 O204 1.233 1_566 S
C182 O205 1.283 . S
C183 O195 1.281 . S
C183 O196 1.236 . S
C184 O206 1.240 . S
C184 O207 1.264 . S
O185 Mn180 2.095 . S
O185 C194 1.250 . S
O186 Mn181 2.121 1_545 S
O186 C194 1.258 . S
C187 N188 1.326 . S
C187 C191 1.460 . S
C187 H193 0.929 . S
N188 Mn181 2.257 . S
N188 C187 1.326 . S
N188 C192 1.362 . S
C189 C190 1.258 . S
C189 C192 1.431 . S
C189 C209 1.449 . S
C190 C189 1.258 . S
C190 C191 1.477 . S
C190 H210 0.931 . S
C191 C187 1.460 . S
C191 C190 1.477 . S
C191 H211 0.930 1_455 S
C192 N188 1.362 . S
C192 C189 1.431 . S
C192 C202 1.476 . S
H193 C187 0.929 . S
C194 O185 1.250 . S
C194 O186 1.258 . S
O195 Mn180 2.162 . S
O195 C183 1.281 . S
O196 Mn180 2.297 . S
O196 C183 1.236 . S
N197 Mn181 2.282 . S
N197 C198 1.328 . S
N197 C202 1.318 . S
C198 N197 1.328 . S
C198 C199 1.457 . S
C198 H203 0.929 . S
C199 C198 1.457 . S
C199 C200 1.291 . S
C199 H212 0.931 . S
C200 C199 1.291 . S
C200 C201 1.373 . S
C200 H213 0.929 . S
C201 C200 1.373 . S
C201 C202 1.396 . S
C201 C208 1.403 . S
C202 C192 1.476 . S
C202 N197 1.318 . S
C202 C201 1.396 . S
H203 C198 0.929 . S
O204 Mn180 2.386 1_554 S
O204 C182 1.233 1_544 S
O205 Mn180 2.209 1_565 S
O205 Mn181 2.215 . S
O205 C182 1.283 . S
O206 Mn180 2.094 . S
O206 C184 1.240 . S
O207 Mn181 2.117 1_545 S
O207 C184 1.264 . S
C208 C201 1.403 . S
C208 C209 1.399 . S
C208 H214 0.929 . S
C209 C189 1.449 . S
C209 C208 1.399 . S
C209 H215 0.930 . S
H210 C190 0.931 . S
H211 C191 0.930 1_655 S
H212 C199 0.931 . S
H213 C200 0.929 . S
H214 C208 0.929 . S
H215 C209 0.930 . S
Mn216 O221 2.095 . S
Mn216 O231 2.162 1_554 S
Mn216 O232 2.297 . S
Mn216 O240 2.385 1_454 S
Mn216 O241 2.209 1_455 S
Mn216 O242 2.094 . S
Mn217 O222 2.121 1_655 S
Mn217 N224 2.257 . S
Mn217 N233 2.282 . S
Mn217 O241 2.215 . S
Mn217 O243 2.117 . S
C218 O240 1.234 1_554 S
C218 O241 1.283 . S
C219 O231 1.281 1_554 S
C219 O232 1.236 . S
C220 O242 1.240 . S
C220 O243 1.264 1_455 S
O221 Mn216 2.095 . S
O221 C230 1.250 . S
O222 Mn217 2.121 1_455 S
O222 C230 1.258 . S
C223 N224 1.326 . S
C223 C227 1.460 . S
C223 H229 0.929 . S
N224 Mn217 2.257 . S
N224 C223 1.326 . S
N224 C228 1.362 . S
C225 C226 1.258 . S
C225 C228 1.431 . S
C225 C245 1.449 . S
C226 C225 1.258 . S
C226 C227 1.477 . S
C226 H246 0.931 . S
C227 C223 1.460 . S
C227 C226 1.477 . S
C227 H247 0.930 . S
C228 N224 1.362 . S
C228 C225 1.431 . S
C228 C238 1.476 . S
H229 C223 0.929 . S
C230 O221 1.250 . S
C230 O222 1.258 . S
O231 Mn216 2.162 1_556 S
O231 C219 1.281 1_556 S
O232 Mn216 2.297 . S
O232 C219 1.236 . S
N233 Mn217 2.282 . S
N233 C234 1.328 . S
N233 C238 1.318 . S
C234 N233 1.328 . S
C234 C235 1.457 . S
C234 H239 0.929 . S
C235 C234 1.457 . S
C235 C236 1.291 . S
C235 H248 0.931 1_554 S
C236 C235 1.291 . S
C236 C237 1.373 . S
C236 H249 0.929 . S
C237 C236 1.373 . S
C237 C238 1.396 . S
C237 C244 1.403 . S
C238 C228 1.476 . S
C238 N233 1.318 . S
C238 C237 1.396 . S
H239 C234 0.929 . S
O240 Mn216 2.385 1_656 S
O240 C218 1.234 1_556 S
O241 Mn216 2.209 1_655 S
O241 Mn217 2.215 . S
O241 C218 1.283 . S
O242 Mn216 2.094 . S
O242 C220 1.240 . S
O243 Mn217 2.117 . S
O243 C220 1.264 1_655 S
C244 C237 1.403 . S
C244 C245 1.399 . S
C244 H250 0.929 . S
C245 C225 1.449 . S
C245 C244 1.399 . S
C245 H251 0.930 . S
H246 C226 0.931 . S
H247 C227 0.930 . S
H248 C235 0.931 1_556 S
H249 C236 0.929 . S
H250 C244 0.929 . S
H251 C245 0.930 . S
Mn252 O257 2.095 . S
Mn252 O267 2.162 . S
Mn252 O268 2.297 . S
Mn252 O276 2.386 1_556 S
Mn252 O277 2.209 1_565 S
Mn252 O278 2.094 . S
Mn253 O258 2.121 1_545 S
Mn253 N260 2.257 . S
Mn253 N269 2.282 . S
Mn253 O277 2.215 . S
Mn253 O279 2.117 1_545 S
C254 O276 1.233 1_546 S
C254 O277 1.283 . S
C255 O267 1.281 . S
C255 O268 1.236 . S
C256 O278 1.240 . S
C256 O279 1.264 . S
O257 Mn252 2.095 . S
O257 C266 1.250 . S
O258 Mn253 2.121 1_565 S
O258 C266 1.258 . S
C259 N260 1.326 . S
C259 C263 1.460 . S
C259 H265 0.929 . S
N260 Mn253 2.257 . S
N260 C259 1.326 . S
N260 C264 1.362 . S
C261 C262 1.258 . S
C261 C264 1.431 . S
C261 C281 1.449 . S
C262 C261 1.258 . S
C262 C263 1.477 . S
C262 H282 0.931 . S
C263 C259 1.460 . S
C263 C262 1.477 . S
C263 H283 0.930 1_655 S
C264 N260 1.362 . S
C264 C261 1.431 . S
C264 C274 1.476 . S
H265 C259 0.929 . S
C266 O257 1.250 . S
C266 O258 1.258 . S
O267 Mn252 2.162 . S
O267 C255 1.281 . S
O268 Mn252 2.297 . S
O268 C255 1.236 . S
N269 Mn253 2.282 . S
N269 C270 1.328 . S
N269 C274 1.318 . S
C270 N269 1.328 . S
C270 C271 1.457 . S
C270 H275 0.929 . S
C271 C270 1.457 . S
C271 C272 1.291 . S
C271 H284 0.931 . S
C272 C271 1.291 . S
C272 C273 1.373 . S
C272 H285 0.929 . S
C273 C272 1.373 . S
C273 C274 1.396 . S
C273 C280 1.403 . S
C274 C264 1.476 . S
C274 N269 1.318 . S
C274 C273 1.396 . S
H275 C270 0.929 . S
O276 Mn252 2.386 1_554 S
O276 C254 1.233 1_564 S
O277 Mn252 2.209 1_545 S
O277 Mn253 2.215 . S
O277 C254 1.283 . S
O278 Mn252 2.094 . S
O278 C256 1.240 . S
O279 Mn253 2.117 1_565 S
O279 C256 1.264 . S
C280 C273 1.403 . S
C280 C281 1.399 . S
C280 H286 0.929 . S
C281 C261 1.449 . S
C281 C280 1.399 . S
C281 H287 0.930 . S
H282 C262 0.931 . S
H283 C263 0.930 1_455 S
H284 C271 0.931 . S
H285 C272 0.929 . S
H286 C280 0.929 . S
H287 C281 0.930 . S
C76 C4 1.569 1_655 S
C122 C50 2.820 1_545 S
C148 C220 1.769 1_655 S
C184 C256 1.969 1_545 S
C39 C3 1.172 . S
C38 C74 1.438 . S
C111 C75 1.171 . S
C110 C2 1.438 . S
C254 C147 1.537 1_556 S
C183 C146 1.285 1_556 S
C219 C182 1.537 1_554 S
C255 C218 1.285 1_556 S
C14 C194 2.287 . S
C230 C40 1.854 . S
C86 C266 2.287 . S
C112 C158 1.855 . S
