# Generated by pormake.
# Topology whh, (6)-cn, num edge types: 1
# Building blocks:
#     Node 0, Type 0, BuildingBlock: OJICUG_clean_sbu_0, # of connection points: 6
#     Node 1, Type 0, BuildingBlock: OJICUG_clean_sbu_0, # of connection points: 6
#     Node 2, Type 0, BuildingBlock: OJICUG_clean_sbu_0, # of connection points: 6
#     Node 3, Type 0, BuildingBlock: OJICUG_clean_sbu_0, # of connection points: 6
#     Node 4, Type 0, BuildingBlock: OJICUG_clean_sbu_0, # of connection points: 6
#     Node 5, Type 0, BuildingBlock: OJICUG_clean_sbu_0, # of connection points: 6
#     Node 6, Type 0, BuildingBlock: OJICUG_clean_sbu_0, # of connection points: 6
#     Node 7, Type 0, BuildingBlock: OJICUG_clean_sbu_0, # of connection points: 6
#     Node 8, Type 0, BuildingBlock: OJICUG_clean_sbu_0, # of connection points: 6
#     Node 9, Type 0, BuildingBlock: OJICUG_clean_sbu_0, # of connection points: 6
#     Node 10, Type 0, BuildingBlock: OJICUG_clean_sbu_0, # of connection points: 6
#     Node 11, Type 0, BuildingBlock: OJICUG_clean_sbu_0, # of connection points: 6
#     Node 12, Type 0, BuildingBlock: OJICUG_clean_sbu_0, # of connection points: 6
#     Node 13, Type 0, BuildingBlock: OJICUG_clean_sbu_0, # of connection points: 6
#     Node 14, Type 0, BuildingBlock: OJICUG_clean_sbu_0, # of connection points: 6
#     Node 15, Type 0, BuildingBlock: OJICUG_clean_sbu_0, # of connection points: 6
#     Edge 16, Type (0, 0), BuildingBlock: AJUNOK_clean_linker_0, # of connection points: 2
#     Edge 17, Type (0, 0), BuildingBlock: AJUNOK_clean_linker_0, # of connection points: 2
#     Edge 18, Type (0, 0), BuildingBlock: AJUNOK_clean_linker_0, # of connection points: 2
#     Edge 19, Type (0, 0), BuildingBlock: AJUNOK_clean_linker_0, # of connection points: 2
#     Edge 20, Type (0, 0), BuildingBlock: AJUNOK_clean_linker_0, # of connection points: 2
#     Edge 21, Type (0, 0), BuildingBlock: AJUNOK_clean_linker_0, # of connection points: 2
#     Edge 22, Type (0, 0), BuildingBlock: AJUNOK_clean_linker_0, # of connection points: 2
#     Edge 23, Type (0, 0), BuildingBlock: AJUNOK_clean_linker_0, # of connection points: 2
#     Edge 24, Type (0, 0), BuildingBlock: AJUNOK_clean_linker_0, # of connection points: 2
#     Edge 25, Type (0, 0), BuildingBlock: AJUNOK_clean_linker_0, # of connection points: 2
#     Edge 26, Type (0, 0), BuildingBlock: AJUNOK_clean_linker_0, # of connection points: 2
#     Edge 27, Type (0, 0), BuildingBlock: AJUNOK_clean_linker_0, # of connection points: 2
#     Edge 28, Type (0, 0), BuildingBlock: AJUNOK_clean_linker_0, # of connection points: 2
#     Edge 29, Type (0, 0), BuildingBlock: AJUNOK_clean_linker_0, # of connection points: 2
#     Edge 30, Type (0, 0), BuildingBlock: AJUNOK_clean_linker_0, # of connection points: 2
#     Edge 31, Type (0, 0), BuildingBlock: AJUNOK_clean_linker_0, # of connection points: 2
#     Edge 32, Type (0, 0), BuildingBlock: AJUNOK_clean_linker_0, # of connection points: 2
#     Edge 33, Type (0, 0), BuildingBlock: AJUNOK_clean_linker_0, # of connection points: 2
#     Edge 34, Type (0, 0), BuildingBlock: AJUNOK_clean_linker_0, # of connection points: 2
#     Edge 35, Type (0, 0), BuildingBlock: AJUNOK_clean_linker_0, # of connection points: 2
#     Edge 36, Type (0, 0), BuildingBlock: AJUNOK_clean_linker_0, # of connection points: 2
#     Edge 37, Type (0, 0), BuildingBlock: AJUNOK_clean_linker_0, # of connection points: 2
#     Edge 38, Type (0, 0), BuildingBlock: AJUNOK_clean_linker_0, # of connection points: 2
#     Edge 39, Type (0, 0), BuildingBlock: AJUNOK_clean_linker_0, # of connection points: 2
#     Edge 40, Type (0, 0), BuildingBlock: AJUNOK_clean_linker_0, # of connection points: 2
#     Edge 41, Type (0, 0), BuildingBlock: AJUNOK_clean_linker_0, # of connection points: 2
#     Edge 42, Type (0, 0), BuildingBlock: AJUNOK_clean_linker_0, # of connection points: 2
#     Edge 43, Type (0, 0), BuildingBlock: AJUNOK_clean_linker_0, # of connection points: 2
#     Edge 44, Type (0, 0), BuildingBlock: AJUNOK_clean_linker_0, # of connection points: 2
#     Edge 45, Type (0, 0), BuildingBlock: AJUNOK_clean_linker_0, # of connection points: 2
#     Edge 46, Type (0, 0), BuildingBlock: AJUNOK_clean_linker_0, # of connection points: 2
#     Edge 47, Type (0, 0), BuildingBlock: AJUNOK_clean_linker_0, # of connection points: 2
#     Edge 48, Type (0, 0), BuildingBlock: AJUNOK_clean_linker_0, # of connection points: 2
#     Edge 49, Type (0, 0), BuildingBlock: AJUNOK_clean_linker_0, # of connection points: 2
#     Edge 50, Type (0, 0), BuildingBlock: AJUNOK_clean_linker_0, # of connection points: 2
#     Edge 51, Type (0, 0), BuildingBlock: AJUNOK_clean_linker_0, # of connection points: 2
#     Edge 52, Type (0, 0), BuildingBlock: AJUNOK_clean_linker_0, # of connection points: 2
#     Edge 53, Type (0, 0), BuildingBlock: AJUNOK_clean_linker_0, # of connection points: 2
#     Edge 54, Type (0, 0), BuildingBlock: AJUNOK_clean_linker_0, # of connection points: 2
#     Edge 55, Type (0, 0), BuildingBlock: AJUNOK_clean_linker_0, # of connection points: 2
#     Edge 56, Type (0, 0), BuildingBlock: AJUNOK_clean_linker_0, # of connection points: 2
#     Edge 57, Type (0, 0), BuildingBlock: AJUNOK_clean_linker_0, # of connection points: 2
#     Edge 58, Type (0, 0), BuildingBlock: AJUNOK_clean_linker_0, # of connection points: 2
#     Edge 59, Type (0, 0), BuildingBlock: AJUNOK_clean_linker_0, # of connection points: 2
#     Edge 60, Type (0, 0), BuildingBlock: AJUNOK_clean_linker_0, # of connection points: 2
#     Edge 61, Type (0, 0), BuildingBlock: AJUNOK_clean_linker_0, # of connection points: 2
#     Edge 62, Type (0, 0), BuildingBlock: AJUNOK_clean_linker_0, # of connection points: 2
#     Edge 63, Type (0, 0), BuildingBlock: AJUNOK_clean_linker_0, # of connection points: 2
# Relax obj value: 0.385
# Max RMSD: 0.252
# Mean RMSD: 0.252
data_MOF--net-whh--node1-OJICUG_clean_sbu_0--edge1-AJUNOK_clean_linker_0
_symmetry_space_group_name_H-M    P1
_symmetry_Int_Tables_number       1
_symmetry_cell_setting            triclinic
loop_
_symmetry_equiv_pos_as_xyz
'x, y, z'
_cell_length_a     26.546099
_cell_length_b     26.549794
_cell_length_c     33.311254
_cell_angle_alpha  89.982546
_cell_angle_beta   90.146078
_cell_angle_gamma 89.965197
loop_
_atom_site_label
_atom_site_type_symbol
_atom_site_fract_x
_atom_site_fract_y
_atom_site_fract_z
_atom_type_partial_charge
Sc0 Sc 0.05946 0.68086 0.05234 0.0
Sc1 Sc 0.13102 0.61892 0.12464 0.0
Sc2 Sc 0.02666 0.69039 0.15212 0.0
O3 O 0.0728 0.6643 0.11054 0.0
C4 C 1.01141 0.77773 0.09251 0.0
C5 C 0.17278 0.70237 0.06229 0.0
C6 C 0.1371 0.7037 0.19038 0.0
C7 C 0.08955 0.57268 0.04683 0.0
C8 C 0.95671 0.64096 0.08437 0.0
C9 C 0.04914 0.58208 0.1892 0.0
O10 O 0.0165 0.74919 0.06232 0.0
O11 O 0.17709 0.65925 0.0797 0.0
O12 O 0.08987 0.71265 0.18865 0.0
O13 O 0.09982 0.61549 0.03269 0.0
O14 O 0.96241 0.66717 0.11636 0.0
O15 O 0.09183 0.577 0.17213 0.0
O16 O 0.99004 0.63836 0.05671 0.0
O17 O 0.10002 0.56388 0.0833 0.0
O18 O 0.02055 0.61952 0.18281 0.0
O19 O 0.12996 0.72115 0.05266 0.0
O20 O 0.02666 0.7648 0.12706 0.0
O21 O 0.1597 0.67137 0.16862 0.0
Sc22 Sc 0.8468 0.05896 0.05321 0.0
Sc23 Sc 0.90915 0.13011 0.12543 0.0
Sc24 Sc 0.83495 0.02752 0.15274 0.0
O25 O 0.86276 0.07274 0.11128 0.0
C26 C 0.74725 0.0155 0.0927 0.0
C27 C 0.82673 0.17306 0.06252 0.0
C28 C 0.82446 0.13811 0.1906 0.0
C29 C 0.95565 0.08761 0.04813 0.0
C30 C 0.88198 0.95473 0.08619 0.0
C31 C 0.94434 0.04682 0.18953 0.0
O32 O 0.77716 0.01846 0.0632 0.0
O33 O 0.86981 0.17692 0.08014 0.0
O34 O 0.8149 0.09109 0.18904 0.0
O35 O 0.91305 0.0976 0.03337 0.0
O36 O 0.85524 0.96238 0.11746 0.0
O37 O 0.95019 0.08987 0.1731 0.0
O38 O 0.88754 0.9881 0.0587 0.0
O39 O 0.96398 0.09794 0.08467 0.0
O40 O 0.90607 0.01938 0.18291 0.0
O41 O 0.80789 0.13043 0.05255 0.0
O42 O 0.76042 0.02978 0.1275 0.0
O43 O 0.85703 0.16024 0.16885 0.0
Sc44 Sc 0.46724 0.84943 0.04756 0.0
Sc45 Sc 0.39612 0.91055 0.12025 0.0
Sc46 Sc 0.49777 0.83479 0.14684 0.0
O47 O 0.45327 0.86421 0.10582 0.0
C48 C 0.51363 0.75031 0.08497 0.0
C49 C 0.35444 0.82665 0.05806 0.0
C50 C 0.38727 0.82312 0.18407 0.0
C51 C 0.43654 0.95709 0.04256 0.0
C52 C 0.56868 0.88886 0.08226 0.0
C53 C 0.47617 0.94117 0.1882 0.0
O54 O 0.51099 0.781 0.05592 0.0
O55 O 0.34972 0.8702 0.0749 0.0
O56 O 0.43372 0.81122 0.1813 0.0
O57 O 0.42546 0.91431 0.02896 0.0
O58 O 0.56283 0.86057 0.11313 0.0
O59 O 0.43567 0.95088 0.16889 0.0
O60 O 0.53602 0.89238 0.05398 0.0
O61 O 0.42823 0.96582 0.07935 0.0
O62 O 0.50281 0.9026 0.1809 0.0
O63 O 0.39726 0.80894 0.04736 0.0
O64 O 0.49714 0.76201 0.11929 0.0
O65 O 0.3664 0.85844 0.16408 0.0
Sc66 Sc 0.6794 0.46833 0.04844 0.0
Sc67 Sc 0.6178 0.39769 0.12164 0.0
Sc68 Sc 0.69018 0.50203 0.14756 0.0
O69 O 0.66315 0.45559 0.10668 0.0
C70 C 0.77756 0.51448 0.08811 0.0
C71 C 0.70204 0.35513 0.06047 0.0
C72 C 0.7026 0.39241 0.1873 0.0
C73 C 0.57128 0.43851 0.04374 0.0
C74 C 0.641 0.57171 0.07955 0.0
C75 C 0.58144 0.48211 0.1845 0.0
O76 O 0.74817 0.51095 0.05817 0.0
O77 O 0.65862 0.35045 0.07735 0.0
O78 O 0.71162 0.43953 0.18507 0.0
O79 O 0.61385 0.42774 0.02944 0.0
O80 O 0.66816 0.5662 0.11112 0.0
O81 O 0.57598 0.4386 0.16865 0.0
O82 O 0.63725 0.53795 0.05228 0.0
O83 O 0.56256 0.42803 0.08015 0.0
O84 O 0.61932 0.50979 0.17741 0.0
O85 O 0.71955 0.39793 0.04958 0.0
O86 O 0.76431 0.4994 0.12256 0.0
O87 O 0.67019 0.36952 0.16579 0.0
Sc88 Sc 0.02783 0.83642 0.35572 0.0
Sc89 Sc 0.13074 0.90982 0.38322 0.0
Sc90 Sc 0.05916 0.84831 0.45588 0.0
O91 O 0.07281 0.86412 0.39746 0.0
C92 C 0.9574 0.88967 0.42176 0.0
C93 C 0.052 0.94237 0.3147 0.0
C94 C 0.08746 0.9565 0.45999 0.0
C95 C 0.13868 0.82094 0.32039 0.0
C96 C 1.01282 0.74974 0.4177 0.0
C97 C 0.17254 0.82624 0.44538 0.0
O98 O 0.96357 0.86519 0.38892 0.0
O99 O 0.09187 0.95135 0.33495 0.0
O100 O 0.09895 0.91426 0.47456 0.0
O101 O 0.09191 0.8102 0.32269 0.0
O102 O 0.01759 0.77886 0.44755 0.0
O103 O 0.17716 0.86978 0.42864 0.0
O104 O 0.02496 0.76363 0.38277 0.0
O105 O 0.15991 0.85657 0.3398 0.0
O106 O 0.12975 0.80859 0.456 0.0
O107 O 0.02533 0.90355 0.32048 0.0
O108 O 0.98935 0.88988 0.45063 0.0
O109 O 0.09862 0.96531 0.4237 0.0
Sc110 Sc 0.67911 0.0599 0.45519 0.0
Sc111 Sc 0.61548 0.12746 0.38126 0.0
Sc112 Sc 0.68704 0.02168 0.35685 0.0
O113 O 0.66121 0.06988 0.3969 0.0
C114 C 0.77628 1.01122 0.41679 0.0
C115 C 0.70187 0.17198 0.4405 0.0
C116 C 0.70168 0.13052 0.31657 0.0
C117 C 0.57157 0.09182 0.46127 0.0
C118 C 0.63738 0.95581 0.4274 0.0
C119 C 0.57861 0.04263 0.31881 0.0
O120 O 0.74779 0.01652 0.44698 0.0
O121 O 0.65815 0.17629 0.42376 0.0
O122 O 0.7115 0.08359 0.31996 0.0
O123 O 0.61505 0.10297 0.47339 0.0
O124 O 0.66101 0.95914 0.39396 0.0
O125 O 0.57186 0.08548 0.33547 0.0
O126 O 0.63614 0.99089 0.45372 0.0
O127 O 0.56107 0.09938 0.42461 0.0
O128 O 0.61745 0.01621 0.32542 0.0
O129 O 0.71969 0.12946 0.45174 0.0
O130 O 0.76107 0.02136 0.38177 0.0
O131 O 0.66743 0.15336 0.33615 0.0
Sc132 Sc 0.50081 0.69393 0.35413 0.0
Sc133 Sc 0.39735 0.6193 0.37802 0.0
Sc134 Sc 0.46648 0.67727 0.4532 0.0
O135 O 0.45467 0.66462 0.39421 0.0
C136 C 0.56774 0.63422 0.41948 0.0
C137 C 0.47623 0.58901 0.31002 0.0
C138 C 0.43457 0.57057 0.4556 0.0
C139 C 0.39108 0.71192 0.31776 0.0
C140 C 0.51819 0.77554 0.42017 0.0
C141 C 0.35421 0.70146 0.44152 0.0
O142 O 0.56318 0.66025 0.38713 0.0
O143 O 0.43759 0.57808 0.33089 0.0
O144 O 0.42257 0.61307 0.46902 0.0
O145 O 0.43736 0.72402 0.32209 0.0
O146 O 0.51167 0.74439 0.44833 0.0
O147 O 0.35001 0.65922 0.42267 0.0
O148 O 0.50692 0.76542 0.38418 0.0
O149 O 0.37044 0.67381 0.33441 0.0
O150 O 0.39689 0.7192 0.45277 0.0
O151 O 0.50136 0.62898 0.31573 0.0
O152 O 0.53504 0.63356 0.44778 0.0
O153 O 0.42723 0.56225 0.41865 0.0
Sc154 Sc 0.8379 0.5012 0.35332 0.0
Sc155 Sc 0.90951 0.39671 0.38073 0.0
Sc156 Sc 0.84715 0.46734 0.45322 0.0
O157 O 0.86392 0.45483 0.39493 0.0
C158 C 0.88815 0.57024 0.42135 0.0
C159 C 0.9452 0.47733 0.31497 0.0
C160 C 0.95586 0.43991 0.45747 0.0
C161 C 0.82243 0.39077 0.31646 0.0
C162 C 0.74882 0.51324 0.41373 0.0
C163 C 0.82658 0.35386 0.44237 0.0
O164 O 0.86381 0.56471 0.38837 0.0
O165 O 0.95111 0.43548 0.33311 0.0
O166 O 0.91363 0.42812 0.47192 0.0
O167 O 0.8135 0.43797 0.3182 0.0
O168 O 0.77732 0.50807 0.44403 0.0
O169 O 0.87023 0.35019 0.42591 0.0
O170 O 0.76391 0.50332 0.37862 0.0
O171 O 0.85598 0.3682 0.33726 0.0
O172 O 0.80764 0.39636 0.45241 0.0
O173 O 0.90737 0.50549 0.32075 0.0
O174 O 0.88847 0.53744 0.44952 0.0
O175 O 0.96501 0.42842 0.42133 0.0
Sc176 Sc 1.00495 0.34478 0.85758 0.0
Sc177 Sc 0.89726 0.41284 0.88232 0.0
Sc178 Sc 0.96616 0.35115 0.95666 0.0
O179 O 0.95603 0.36847 0.898 0.0
C180 C 0.01806 0.25521 0.91909 0.0
C181 C 0.89614 0.32429 0.81886 0.0
C182 C 0.85359 0.32889 0.94315 0.0
C183 C 0.97653 0.44967 0.81633 0.0
C184 C 0.0694 0.39693 0.92813 0.0
C185 C 0.93571 0.45908 0.96032 0.0
O186 O 1.01226 0.27165 0.88375 0.0
O187 O 0.87234 0.35837 0.83818 0.0
O188 O 0.8961 0.31031 0.95368 0.0
O189 O 1.00546 0.41272 0.82312 0.0
O190 O 0.03599 0.39364 0.95569 0.0
O191 O 0.92642 0.46901 0.92384 0.0
O192 O 0.06539 0.37637 0.89345 0.0
O193 O 0.93514 0.45571 0.83492 0.0
O194 O 0.92379 0.41625 0.9734 0.0
O195 O 0.94341 0.31582 0.82222 0.0
O196 O 1.00845 0.28196 0.94957 0.0
O197 O 0.84984 0.37239 0.92636 0.0
Sc198 Sc 0.18009 0.96937 0.95292 0.0
Sc199 Sc 0.11629 0.8985 0.88136 0.0
Sc200 Sc 0.18614 1.00337 0.85267 0.0
O201 O 0.16179 0.95696 0.8948 0.0
C202 C 0.1348 0.07157 0.92114 0.0
C203 C 0.07206 0.93896 0.9596 0.0
C204 C 0.07956 0.97607 0.81362 0.0
C205 C 0.20156 0.85623 0.94193 0.0
C206 C 0.27623 0.01831 0.91309 0.0
C207 C 0.20401 0.89268 0.81758 0.0
O208 O 0.13775 0.03942 0.9498 0.0
O209 O 0.06183 0.92968 0.92316 0.0
O210 O 0.1179 1.00372 0.81839 0.0
O211 O 0.22048 0.8989 0.95151 0.0
O212 O 0.25981 1.01031 0.87803 0.0
O213 O 0.1692 0.87068 0.83731 0.0
O214 O 0.24923 1.0108 0.94377 0.0
O215 O 0.15758 0.85222 0.92589 0.0
O216 O 0.2136 0.9398 0.81945 0.0
O217 O 0.11535 0.92833 0.97257 0.0
O218 O 0.15612 0.06596 0.8869 0.0
O219 O 0.07252 0.93608 0.83399 0.0
Sc220 Sc 0.52778 0.19482 0.85534 0.0
Sc221 Sc 0.63116 0.12052 0.88078 0.0
Sc222 Sc 0.55988 0.17887 0.95504 0.0
O223 O 0.57315 0.16555 0.89624 0.0
C224 C 0.51314 0.27885 0.92006 0.0
C225 C 0.63816 0.21199 0.82 0.0
C226 C 0.67281 0.20274 0.94417 0.0
C227 C 0.55211 0.08979 0.81227 0.0
C228 C 0.45838 0.1379 0.92001 0.0
C229 C 0.59007 0.07107 0.95707 0.0
O230 O 0.52369 0.2665 0.88443 0.0
O231 O 0.6592 0.17497 0.83786 0.0
O232 O 0.62995 0.21942 0.95566 0.0
O233 O 0.52606 0.12907 0.81822 0.0
O234 O 0.49046 0.13673 0.94883 0.0
O235 O 0.60045 0.06344 0.92052 0.0
O236 O 0.46412 0.16387 0.88784 0.0
O237 O 0.59157 0.07977 0.83269 0.0
O238 O 0.60115 0.11311 0.97207 0.0
O239 O 0.59157 0.22319 0.82315 0.0
O240 O 0.5176 0.24812 0.94889 0.0
O241 O 0.67784 0.15996 0.92631 0.0
Sc242 Sc 0.33677 0.5243 0.8588 0.0
Sc243 Sc 0.40952 0.62996 0.88068 0.0
Sc244 Sc 0.35111 0.56268 0.95725 0.0
O245 O 0.36491 0.57242 0.89806 0.0
C246 C 0.25182 0.51293 0.92358 0.0
C247 C 0.31832 0.63255 0.81953 0.0
C248 C 0.32714 0.67475 0.94251 0.0
C249 C 0.44093 0.54849 0.81437 0.0
C250 C 0.39318 0.4593 0.92708 0.0
C251 C 0.459 0.59365 0.95842 0.0
O252 O 0.26482 0.52035 0.88759 0.0
O253 O 0.35473 0.65513 0.83696 0.0
O254 O 0.31029 0.63242 0.95495 0.0
O255 O 0.40245 0.52186 0.82173 0.0
O256 O 0.39339 0.49313 0.95448 0.0
O257 O 0.46678 0.60136 0.92145 0.0
O258 O 0.36894 0.46309 0.89382 0.0
O259 O 0.4504 0.58904 0.83346 0.0
O260 O 0.4167 0.60532 0.9726 0.0
O261 O 0.3077 0.58601 0.82424 0.0
O262 O 0.28188 0.51994 0.95258 0.0
O263 O 0.36995 0.67887 0.9246 0.0
Sc264 Sc 0.96514 0.17685 0.54906 0.0
Sc265 Sc 0.89549 0.11852 0.6233 0.0
Sc266 Sc 1.00104 0.19068 0.64772 0.0
O267 O 0.95342 0.16316 0.60767 0.0
C268 C 0.06832 0.13758 0.58082 0.0
C269 C 0.93289 0.06989 0.54545 0.0
C270 C 0.9788 0.08265 0.68692 0.0
C271 C 0.85265 0.20129 0.56063 0.0
C272 C 0.01437 0.27518 0.58499 0.0
C273 C 0.89221 0.20529 0.68774 0.0
O274 O 0.03398 0.13288 0.55393 0.0
O275 O 0.92514 0.06169 0.58239 0.0
O276 O 1.00746 0.11996 0.67976 0.0
O277 O 0.89542 0.21906 0.54981 0.0
O278 O 1.00093 0.26477 0.62057 0.0
O279 O 0.86871 0.1723 0.66711 0.0
O280 O 1.00992 0.24384 0.55661 0.0
O281 O 0.84836 0.15851 0.57858 0.0
O282 O 0.93928 0.21421 0.68478 0.0
O283 O 0.92176 0.11262 0.53179 0.0
O284 O 0.06389 0.16655 0.61133 0.0
O285 O 0.93568 0.07756 0.67052 0.0
Sc286 Sc 0.34728 0.96744 0.55237 0.0
Sc287 Sc 0.40988 0.89775 0.62555 0.0
Sc288 Sc 0.33451 1.00019 0.65157 0.0
O289 O 0.36301 0.95465 0.61067 0.0
C290 C 0.38192 0.07226 0.58452 0.0
C291 C 0.45594 0.94048 0.54847 0.0
C292 C 0.44383 0.98203 0.68909 0.0
C293 C 0.32768 0.85339 0.56289 0.0
C294 C 0.2478 1.01201 0.59055 0.0
C295 C 0.32439 0.88991 0.69027 0.0
O296 O 0.38746 0.03845 0.55739 0.0
O297 O 0.46486 0.92982 0.58483 0.0
O298 O 0.405 1.00869 0.68247 0.0
O299 O 0.30873 0.89582 0.55238 0.0
O300 O 0.26055 0.99762 0.62542 0.0
O301 O 0.35793 0.86807 0.66925 0.0
O302 O 0.27767 1.00831 0.56112 0.0
O303 O 0.37072 0.8499 0.58071 0.0
O304 O 0.3139 0.93673 0.688 0.0
O305 O 0.41375 0.9285 0.534 0.0
O306 O 0.35567 0.06509 0.61617 0.0
O307 O 0.45056 0.93907 0.67275 0.0
Sc308 Sc 0.5563 0.34669 0.54988 0.0
Sc309 Sc 0.62772 0.40963 0.622 0.0
Sc310 Sc 0.52563 0.33492 0.64966 0.0
O311 O 0.57034 0.36304 0.60797 0.0
C312 C 0.45172 0.3809 0.5822 0.0
C313 C 0.58524 0.45541 0.54394 0.0
C314 C 0.54453 0.44441 0.68625 0.0
C315 C 0.67044 0.32587 0.56012 0.0
C316 C 0.51199 0.248 0.59001 0.0
C317 C 0.63635 0.32534 0.68799 0.0
O318 O 0.48511 0.38674 0.55482 0.0
O319 O 0.59581 0.46394 0.58041 0.0
O320 O 0.51795 0.40548 0.68005 0.0
O321 O 0.62759 0.30805 0.5496 0.0
O322 O 0.52752 0.26065 0.62452 0.0
O323 O 0.65772 0.35869 0.66649 0.0
O324 O 0.51537 0.27736 0.56018 0.0
O325 O 0.67502 0.36899 0.5776 0.0
O326 O 0.5896 0.31447 0.68592 0.0
O327 O 0.59493 0.41268 0.52946 0.0
O328 O 0.46013 0.35603 0.61448 0.0
O329 O 0.58699 0.45135 0.66912 0.0
Sc330 Sc 0.17692 0.55954 0.54843 0.0
Sc331 Sc 0.11607 0.62971 0.62181 0.0
Sc332 Sc 0.18257 0.52075 0.64726 0.0
O333 O 0.1595 0.57021 0.6067 0.0
C334 C 0.13294 0.45601 0.57613 0.0
C335 C 0.0696 0.59423 0.54252 0.0
C336 C 0.07521 0.54722 0.68438 0.0
C337 C 0.20255 0.6715 0.5622 0.0
C338 C 0.27104 0.5046 0.58813 0.0
C339 C 0.20067 0.62924 0.6877 0.0
O340 O 0.13252 0.4911 0.54975 0.0
O341 O 0.06039 0.60272 0.5792 0.0
O342 O 0.11161 0.51767 0.67737 0.0
O343 O 0.21955 0.62846 0.55146 0.0
O344 O 0.25727 0.51623 0.62329 0.0
O345 O 0.16909 0.65392 0.66664 0.0
O346 O 0.24405 0.51415 0.55762 0.0
O347 O 0.15894 0.6767 0.57862 0.0
O348 O 0.20797 0.58176 0.68495 0.0
O349 O 0.11319 0.60334 0.52947 0.0
O350 O 0.1557 0.45918 0.60998 0.0
O351 O 0.07179 0.59071 0.66825 0.0
C352 C 0.84761 0.56177 0.12023 0.0
C353 C 0.82526 0.54349 0.08482 0.0
C354 C 0.88947 0.59332 0.1192 0.0
C355 C 0.91153 0.60816 0.08272 0.0
H356 H 0.83199 0.55274 0.14937 0.0
H357 H 0.9048 0.60593 0.14766 0.0
S358 S 0.86795 0.57134 0.98105 0.0
N359 N 0.82846 0.54265 0.01175 0.0
N360 N 0.90823 0.602 0.00996 0.0
C361 C 0.89042 0.58968 0.04687 0.0
C362 C 0.84703 0.55755 0.04788 0.0
C363 C 0.98081 0.85634 0.05747 0.0
C364 C 0.97773 0.82193 0.0895 0.0
C365 C 0.94825 0.89825 0.05535 0.0
C366 C 0.91111 0.90663 0.08484 0.0
H367 H 1.00925 0.85153 0.03453 0.0
H368 H 0.95295 0.92473 0.03095 0.0
S369 S 0.883 0.82177 0.1711 0.0
N370 N 0.93166 0.79555 0.14867 0.0
N371 N 0.87015 0.87268 0.14465 0.0
C372 C 0.90605 0.8703 0.11562 0.0
C373 C 0.93948 0.82847 0.11798 0.0
C374 C 0.6322 0.93873 0.11996 0.0
C375 C 0.61302 0.92279 0.08263 0.0
C376 C 0.67381 0.97069 0.12261 0.0
C377 C 0.6988 0.98787 0.08804 0.0
H378 H 0.61485 0.92646 0.14771 0.0
H379 H 0.68734 0.9806 0.15228 0.0
S380 S 0.6617 0.95972 0.98269 0.0
N381 N 0.62018 0.92881 0.01012 0.0
N382 N 0.69943 0.98848 0.01485 0.0
C383 C 0.67908 0.97357 0.05029 0.0
C384 C 0.63597 0.94126 0.04764 0.0
C385 C 0.5602 0.67914 0.11638 0.0
C386 C 0.54293 0.70277 0.08113 0.0
C387 C 0.59236 0.6377 0.11496 0.0
C388 C 0.60813 0.61686 0.07827 0.0
H389 H 0.55005 0.69349 0.1457 0.0
H390 H 0.60474 0.62168 0.14321 0.0
S391 S 0.57274 0.66289 0.97698 0.0
N392 N 0.54352 0.70161 0.00802 0.0
N393 N 0.60316 0.62199 0.00554 0.0
C394 C 0.59025 0.6389 0.04259 0.0
C395 C 0.55794 0.6822 0.04398 0.0
C396 C 0.88256 0.92826 0.45665 0.0
C397 C 0.91428 0.92478 0.42306 0.0
C398 C 0.83903 0.95864 0.45555 0.0
C399 C 0.82656 0.98703 0.42107 0.0
H400 H 0.89014 0.90573 0.4831 0.0
H401 H 0.81397 0.95808 0.48115 0.0
S402 S 0.90426 0.9988 0.32888 0.0
N403 N 0.93452 0.95742 0.35693 0.0
N404 N 0.85442 0.01541 0.35519 0.0
C405 C 0.86075 0.98697 0.38882 0.0
C406 C 0.90414 0.95556 0.38971 0.0
C407 C 0.62422 0.86534 0.44486 0.0
C408 C 0.60437 0.91187 0.43256 0.0
C409 C 0.5947 0.82146 0.44326 0.0
C410 C 0.54502 0.82288 0.42842 0.0
H411 H 0.6632 0.86258 0.45434 0.0
H412 H 0.61171 0.78582 0.45155 0.0
S413 S 0.47481 0.93595 0.39528 0.0
N414 N 0.53135 0.95729 0.40744 0.0
N415 N 0.47634 0.87467 0.40378 0.0
C416 C 0.5243 0.86942 0.41752 0.0
C417 C 0.55395 0.91405 0.41975 0.0
C418 C 0.64328 0.59635 0.45389 0.0
C419 C 0.61024 0.59845 0.42095 0.0
C420 C 0.68696 0.56628 0.45251 0.0
C421 C 0.69844 0.53702 0.41832 0.0
H422 H 0.63665 0.61983 0.47994 0.0
H423 H 0.71299 0.56791 0.47756 0.0
S424 S 0.61754 0.52197 0.32799 0.0
N425 N 0.58774 0.56372 0.35592 0.0
N426 N 0.66859 0.5066 0.35353 0.0
C427 C 0.66308 0.53579 0.38678 0.0
C428 C 0.61931 0.5667 0.38804 0.0
C429 C 0.97455 0.6738 0.38652 0.0
C430 C 0.98646 0.70058 0.42173 0.0
C431 C 0.94314 0.63189 0.38734 0.0
C432 C 0.92247 0.61404 0.42344 0.0
H433 H 0.98812 0.68609 0.35748 0.0
H434 H 0.93489 0.6134 0.35908 0.0
S435 S 0.94742 0.66529 0.52503 0.0
N436 N 0.97897 0.70295 0.49463 0.0
N437 N 0.92021 0.62273 0.49602 0.0
C438 C 0.93655 0.63796 0.45938 0.0
C439 C 0.9684 0.68154 0.45856 0.0
C440 C 0.15004 0.42431 0.9613 0.0
C441 C 0.11148 0.4325 0.9331 0.0
C442 C 0.19454 0.45318 0.96017 0.0
C443 C 0.20145 0.49081 0.93077 0.0
H444 H 0.14709 0.39367 0.98264 0.0
H445 H 0.22487 0.4438 0.98067 0.0
S446 S 0.10691 0.53274 0.85572 0.0
N447 N 0.07977 0.48509 0.87902 0.0
N448 N 0.16276 0.53929 0.87699 0.0
C449 C 0.16114 0.50187 0.90483 0.0
C450 C 0.11628 0.47265 0.90596 0.0
C451 C 0.07216 0.19268 0.95675 0.0
C452 C 0.04061 0.2044 0.92386 0.0
C453 C 0.1012 0.14816 0.95718 0.0
C454 C 0.0997 0.11456 0.92458 0.0
H455 H 0.07654 0.21923 0.98119 0.0
H456 H 0.12678 0.14138 0.98198 0.0
S457 S 0.01612 0.12324 0.83544 0.0
N458 N 1.00425 0.17488 0.86115 0.0
N459 N 0.059 0.09235 0.86163 0.0
C460 C 0.06543 0.12408 0.89326 0.0
C461 C 0.03582 0.16871 0.89299 0.0
C462 C 0.34006 0.06835 0.95266 0.0
C463 C 0.32666 0.04206 0.91736 0.0
C464 C 0.38394 0.09807 0.95435 0.0
C465 C 0.41519 0.10292 0.92061 0.0
H466 H 0.31546 0.06779 0.97854 0.0
H467 H 0.39217 0.11907 0.98146 0.0
S468 S 0.40281 0.03407 0.82414 0.0
N469 N 0.35307 0.01686 0.85033 0.0
N470 N 0.43404 0.07352 0.85324 0.0
C471 C 0.40413 0.07411 0.88633 0.0
C472 C 0.36028 0.04343 0.88478 0.0
C473 C 0.45462 0.33614 0.95798 0.0
C474 C 0.4897 0.32883 0.92673 0.0
C475 C 0.42473 0.37992 0.95964 0.0
C476 C 0.42907 0.41724 0.93 0.0
H477 H 0.44815 0.30674 0.97991 0.0
H478 H 0.39639 0.38331 0.98282 0.0
S479 S 0.52158 0.42089 0.84694 0.0
N480 N 0.53194 0.36641 0.86933 0.0
N481 N 0.47529 0.44768 0.87212 0.0
C482 C 0.46652 0.41214 0.90065 0.0
C483 C 0.49705 0.36817 0.89911 0.0
C484 C 0.13537 0.09203 0.61777 0.0
C485 C 0.11334 0.10452 0.58059 0.0
C486 C 0.17748 0.0609 0.62032 0.0
C487 C 0.2 0.0406 0.58584 0.0
H488 H 0.11988 0.10629 0.64561 0.0
H489 H 0.19317 0.05383 0.64984 0.0
S490 S 0.15863 0.06347 0.48072 0.0
N491 N 0.11763 0.09509 0.50818 0.0
N492 N 0.19779 0.03634 0.51276 0.0
C493 C 0.17856 0.05268 0.54819 0.0
C494 C 0.13494 0.08446 0.54563 0.0
C495 C 0.48443 0.167 0.55749 0.0
C496 C 0.47814 0.20416 0.58708 0.0
C497 C 0.45155 0.12548 0.55538 0.0
C498 C 0.41105 0.12016 0.58237 0.0
H499 H 0.51554 0.16939 0.53659 0.0
H500 H 0.45866 0.09677 0.53318 0.0
S501 S 0.37422 0.21293 0.66083 0.0
N502 N 0.42586 0.23648 0.64084 0.0
N503 N 0.36361 0.15982 0.63655 0.0
C504 C 0.40291 0.15919 0.61042 0.0
C505 C 0.43663 0.20075 0.61287 0.0
C506 C 0.35213 0.47891 0.55426 0.0
C507 C 0.31537 0.4712 0.58398 0.0
C508 C 0.39507 0.44771 0.55212 0.0
C509 C 0.4024 0.4077 0.57941 0.0
H510 H 0.34849 0.51006 0.53344 0.0
H511 H 0.42335 0.45591 0.52975 0.0
S512 S 0.31082 0.36579 0.65697 0.0
N513 N 0.28518 0.41671 0.63724 0.0
N514 N 0.36448 0.35785 0.63294 0.0
C515 C 0.36356 0.39756 0.60712 0.0
C516 C 0.32053 0.42946 0.60954 0.0
C517 C 0.05113 0.41299 0.58531 0.0
C518 C 0.10064 0.41168 0.57049 0.0
C519 C 0.02247 0.36882 0.58888 0.0
C520 C 0.04245 0.3221 0.57738 0.0
H521 H 0.03536 0.44808 0.59599 0.0
H522 H 0.98494 0.37105 0.60146 0.0
S523 S 0.16969 0.29901 0.53542 0.0
N524 N 0.16809 0.3604 0.54351 0.0
N525 N 0.11396 0.2773 0.54906 0.0
C526 C 0.09115 0.32067 0.56081 0.0
C527 C 0.12047 0.36554 0.55776 0.0
C528 C 0.16944 0.78325 0.21778 0.0
C529 C 0.16494 0.73075 0.22151 0.0
C530 C 0.17089 0.81395 0.25193 0.0
C531 C 0.16697 0.79265 0.29036 0.0
H532 H 0.16536 0.80093 0.18861 0.0
H533 H 0.16752 0.85435 0.24803 0.0
S534 S 0.16589 0.65702 0.31572 0.0
N535 N 0.16622 0.65851 0.26612 0.0
N536 N 0.16798 0.7164 0.33047 0.0
C537 C 0.17011 0.74017 0.29437 0.0
C538 C 0.16919 0.70897 0.25968 0.0
C539 C 0.78456 0.15897 0.29338 0.0
C540 C 0.73212 0.15849 0.28774 0.0
C541 C 0.81694 0.16313 0.26054 0.0
C542 C 0.79739 0.16597 0.22144 0.0
H543 H 0.80049 0.14999 0.32252 0.0
H544 H 0.85682 0.15642 0.26524 0.0
S545 S 0.66342 0.17853 0.19241 0.0
N546 N 0.66234 0.17148 0.24171 0.0
N547 N 0.72352 0.17833 0.17958 0.0
C548 C 0.74549 0.1735 0.21627 0.0
C549 C 0.71251 0.16973 0.24973 0.0
C550 C 0.35236 0.74696 0.21537 0.0
C551 C 0.36 0.79928 0.21699 0.0
C552 C 0.3533 0.71802 0.25054 0.0
C553 C 0.36304 0.74089 0.28776 0.0
H554 H 0.35221 0.72775 0.18666 0.0
H555 H 0.35375 0.67734 0.24786 0.0
S556 S 0.37441 0.87734 0.30824 0.0
N557 N 0.36775 0.87351 0.259 0.0
N558 N 0.37104 0.81891 0.3251 0.0
C559 C 0.36322 0.7936 0.29017 0.0
C560 C 0.3613 0.82302 0.25455 0.0
C561 C 0.78231 0.35969 0.21422 0.0
C562 C 0.72994 0.36499 0.21847 0.0
C563 C 0.81366 0.35837 0.24806 0.0
C564 C 0.79314 0.36302 0.28666 0.0
H565 H 0.79945 0.36299 0.18483 0.0
H566 H 0.85403 0.36103 0.24375 0.0
S567 S 0.65801 0.3672 0.31334 0.0
N568 N 0.65854 0.36589 0.26374 0.0
N569 N 0.71763 0.3642 0.32752 0.0
C570 C 0.74068 0.36093 0.29122 0.0
C571 C 0.70883 0.36183 0.25686 0.0
C572 C 0.86785 0.21113 0.75825 0.0
C573 C 0.86623 0.23241 0.7197 0.0
C574 C 0.87002 0.24198 0.79226 0.0
C575 C 0.86975 0.29466 0.78839 0.0
H576 H 0.87444 0.17108 0.7619 0.0
H577 H 0.87785 0.22478 0.82113 0.0
S578 S 0.85472 0.36762 0.69453 0.0
N579 N 0.85617 0.3082 0.67982 0.0
N580 N 0.85889 0.36638 0.74403 0.0
C581 C 0.86064 0.31589 0.75054 0.0
C582 C 0.85916 0.28452 0.71592 0.0
C583 C 0.24581 0.85536 0.71702 0.0
C584 C 0.29802 0.86204 0.72153 0.0
C585 C 0.21413 0.85612 0.75055 0.0
C586 C 0.23422 0.86409 0.78901 0.0
H587 H 0.22889 0.85644 0.68738 0.0
H588 H 0.17376 0.85778 0.74575 0.0
S589 S 0.36893 0.87229 0.81684 0.0
N590 N 0.36892 0.86728 0.76739 0.0
N591 N 0.30923 0.86936 0.83054 0.0
C592 C 0.28662 0.86305 0.79422 0.0
C593 C 0.31879 0.86182 0.76021 0.0
C594 C 0.67253 0.21837 0.75211 0.0
C595 C 0.66609 0.24064 0.78996 0.0
C596 C 0.67131 0.24799 0.71734 0.0
C597 C 0.66464 0.30037 0.71994 0.0
H598 H 0.67092 0.17777 0.74894 0.0
H599 H 0.66901 0.22934 0.68845 0.0
S600 S 0.65917 0.37684 0.81259 0.0
N601 N 0.66269 0.31802 0.82857 0.0
N602 N 0.66162 0.37392 0.76308 0.0
C603 C 0.66664 0.32341 0.75774 0.0
C604 C 0.66715 0.29329 0.79303 0.0
C605 C 0.20675 0.65799 0.75735 0.0
C606 C 0.22861 0.6552 0.71914 0.0
C607 C 0.23717 0.65938 0.79165 0.0
C608 C 0.28988 0.65843 0.78823 0.0
H609 H 0.16655 0.65256 0.76095 0.0
H610 H 0.21958 0.65476 0.82075 0.0
S611 S 0.36412 0.66229 0.69446 0.0
N612 N 0.30483 0.66005 0.67934 0.0
N613 N 0.36228 0.66358 0.74404 0.0
C614 C 0.31168 0.6633 0.75015 0.0
C615 C 0.28077 0.66123 0.71529 0.0
C616 C 0.21646 0.7859 0.05387 0.0
C617 C 0.21932 0.73287 0.05532 0.0
C618 C 0.26013 0.81596 0.05321 0.0
C619 C 0.30863 0.79437 0.0532 0.0
H620 H 0.18021 0.80457 0.05499 0.0
H621 H 0.25576 0.85652 0.05357 0.0
S622 S 0.33699 0.65718 0.05291 0.0
N623 N 0.27489 0.66008 0.05395 0.0
N624 N 0.35657 0.71615 0.05212 0.0
C625 C 0.31195 0.74131 0.05246 0.0
C626 C 0.26751 0.71075 0.05372 0.0
C627 C 0.74295 0.21703 0.0556 0.0
C628 C 0.79603 0.21978 0.05621 0.0
C629 C 0.71282 0.26074 0.0556 0.0
C630 C 0.73434 0.30925 0.05544 0.0
H631 H 0.72431 0.18078 0.05688 0.0
H632 H 0.67228 0.25638 0.05649 0.0
S633 S 0.87153 0.33744 0.05337 0.0
N634 N 0.8687 0.27534 0.05419 0.0
N635 N 0.81253 0.35708 0.05351 0.0
C636 C 0.7874 0.31249 0.05402 0.0
C637 C 0.81804 0.26799 0.05463 0.0
C638 C 0.31062 0.78516 0.44977 0.0
C639 C 0.30772 0.73214 0.44837 0.0
C640 C 0.26695 0.81533 0.45026 0.0
C641 C 0.2184 0.79386 0.45021 0.0
H642 H 0.34692 0.80371 0.44867 0.0
H643 H 0.27135 0.85588 0.44986 0.0
S644 S 0.19002 0.65669 0.45053 0.0
N645 N 0.25212 0.65948 0.44962 0.0
N646 N 0.17045 0.7157 0.4512 0.0
C647 C 0.21507 0.74079 0.45094 0.0
C648 C 0.25951 0.71014 0.44982 0.0
C649 C 0.74256 0.31005 0.44687 0.0
C650 C 0.79564 0.30719 0.44741 0.0
C651 C 0.71243 0.2664 0.4457 0.0
C652 C 0.73398 0.21789 0.44576 0.0
H653 H 0.72399 0.34636 0.44564 0.0
H654 H 0.67191 0.2708 0.44411 0.0
S655 S 0.87112 0.18944 0.45038 0.0
N656 N 0.86827 0.25154 0.45029 0.0
N657 N 0.81215 0.16991 0.4487 0.0
C658 C 0.787 0.21454 0.44819 0.0
C659 C 0.81763 0.25896 0.44882 0.0
C660 C 0.76693 0.2144 0.95 0.0
C661 C 0.71824 0.2355 0.94934 0.0
C662 C 0.81031 0.24491 0.95011 0.0
C663 C 0.80701 0.29793 0.94872 0.0
H664 H 0.77168 0.17388 0.94975 0.0
H665 H 0.84677 0.22658 0.94967 0.0
S666 S 0.68849 0.37238 0.94885 0.0
N667 N 0.6695 0.3132 0.94936 0.0
N668 N 0.75064 0.37014 0.94892 0.0
C669 C 0.75855 0.31955 0.94935 0.0
C670 C 0.71438 0.28852 0.94987 0.0
C671 C 0.31614 0.76919 0.94628 0.0
C672 C 0.29485 0.72061 0.94733 0.0
C673 C 0.2858 0.81274 0.94667 0.0
C674 C 0.23274 0.8097 0.94736 0.0
H675 H 0.35662 0.77369 0.94451 0.0
H676 H 0.30419 0.84907 0.94478 0.0
S677 S 0.15794 0.6917 0.95253 0.0
N678 N 0.21701 0.67238 0.95118 0.0
N679 N 0.16043 0.75381 0.95129 0.0
C680 C 0.21101 0.76141 0.94965 0.0
C681 C 0.24188 0.7171 0.94984 0.0
C682 C 0.80886 0.28538 0.55454 0.0
C683 C 0.80613 0.23232 0.55442 0.0
C684 C 0.76505 0.31546 0.55493 0.0
C685 C 0.71651 0.29388 0.5544 0.0
H686 H 0.84513 0.30394 0.5562 0.0
H687 H 0.76934 0.35597 0.55652 0.0
S688 S 0.68863 0.1567 0.55015 0.0
N689 N 0.75071 0.15965 0.5511 0.0
N690 N 0.66887 0.21563 0.55113 0.0
C691 C 0.7134 0.24086 0.55209 0.0
C692 C 0.75795 0.21031 0.55233 0.0
C693 C 0.24391 0.8094 0.55647 0.0
C694 C 0.29699 0.80655 0.55702 0.0
C695 C 0.21373 0.76578 0.55683 0.0
C696 C 0.23514 0.71718 0.55699 0.0
H697 H 0.22532 0.8457 0.55749 0.0
H698 H 0.1732 0.77029 0.55771 0.0
S699 S 0.37225 0.68865 0.55441 0.0
N700 N 0.36955 0.75077 0.55501 0.0
N701 N 0.31323 0.66913 0.55495 0.0
C702 C 0.28818 0.71379 0.55541 0.0
C703 C 0.31891 0.75825 0.55567 0.0
C704 C 1.00327 0.52524 0.96373 0.0
C705 C 0.973 0.48939 0.98331 0.0
C706 C 0.04221 0.5503 0.98411 0.0
C707 C 0.05259 0.54063 0.02494 0.0
H708 H 0.99746 0.53354 0.93222 0.0
H709 H 0.06412 0.57785 0.96771 0.0
S710 S 0.98397 0.45022 0.08999 0.0
N711 N 0.95572 0.44585 0.04601 0.0
N712 N 0.02897 0.4924 0.08413 0.0
C713 C 0.02271 0.50465 0.04481 0.0
C714 C 0.98286 0.47941 0.02412 0.0
C715 C 1.00844 1.00856 0.96316 0.0
C716 C 0.04092 0.9748 0.98299 0.0
C717 C 0.98289 0.04637 0.9843 0.0
C718 C 0.98868 0.05198 0.02612 0.0
H719 H 1.00343 1.00652 0.93091 0.0
H720 H 0.95801 0.07121 0.9677 0.0
S721 S 0.06775 0.97167 0.09242 0.0
N722 N 0.07678 0.94872 0.04697 0.0
N723 N 0.02842 0.01932 0.08673 0.0
C724 C 0.02112 0.01846 0.04633 0.0
C725 C 0.0472 0.98 0.02477 0.0
C726 C 0.54524 0.04546 0.01975 0.0
C727 C 0.55231 0.03938 0.97812 0.0
C728 C 0.50638 0.02054 0.04011 0.0
C729 C 0.47287 0.98843 0.01969 0.0
H730 H 0.56997 0.06984 0.03686 0.0
H731 H 0.50347 0.0256 0.07229 0.0
S732 S 0.47357 0.96081 0.91036 0.0
N733 N 0.52147 0.99956 0.917 0.0
N734 N 0.44846 0.95289 0.95519 0.0
C735 C 0.47917 0.98231 0.97798 0.0
C736 C 0.51891 1.00753 0.95726 0.0
C737 C 0.54385 0.48177 0.98065 0.0
C738 C 0.54031 0.47689 0.02265 0.0
C739 C 0.51941 0.52101 0.96016 0.0
C740 C 0.49039 0.55693 0.98088 0.0
H741 H 0.56575 0.455 0.96341 0.0
H742 H 0.52226 0.52234 0.92775 0.0
S743 S 0.47298 0.56424 0.09125 0.0
N744 N 0.5081 0.51364 0.08449 0.0
N745 N 0.46203 0.58698 0.04593 0.0
C746 C 0.48739 0.55316 0.02293 0.0
C747 C 0.51219 0.51321 0.04381 0.0
C748 C 1.00183 1.00509 0.54281 0.0
C749 C 0.96925 0.0384 0.52255 0.0
C750 C 0.04085 0.98019 0.52252 0.0
C751 C 0.04911 0.98756 0.48114 0.0
H752 H 0.99809 0.99908 0.57482 0.0
H753 H 0.06486 0.95494 0.53951 0.0
S754 S 0.97322 0.06962 0.41385 0.0
N755 N 0.94698 0.07628 0.45839 0.0
N756 N 0.02038 0.02993 0.42045 0.0
C757 C 0.0166 0.02053 0.46045 0.0
C758 C 0.97664 0.04563 0.48105 0.0
C759 C 0.47081 0.99677 0.48936 0.0
C760 C 0.48695 0.97863 0.52704 0.0
C761 C 0.49678 0.03515 0.46927 0.0
C762 C 0.54039 0.05689 0.48577 0.0
H763 H 0.43746 0.98145 0.47513 0.0
H764 H 0.48308 0.04697 0.4401 0.0
S765 S 0.59537 0.02747 0.58593 0.0
N766 N 0.54724 0.98855 0.58159 0.0
N767 N 0.59614 0.06047 0.54396 0.0
C768 C 0.55594 0.04057 0.52421 0.0
C769 C 0.52941 1.00142 0.54469 0.0
C770 C 0.54344 0.4825 0.48005 0.0
C771 C 0.54947 0.48843 0.52184 0.0
C772 C 0.50521 0.50776 0.45896 0.0
C773 C 0.4714 0.54005 0.47881 0.0
H774 H 0.5682 0.45765 0.46347 0.0
H775 H 0.50278 0.50251 0.42676 0.0
S776 S 0.46932 0.56708 0.58823 0.0
N777 N 0.51726 0.52818 0.58242 0.0
N778 N 0.44585 0.57584 0.54285 0.0
C779 C 0.47714 0.54654 0.52056 0.0
C780 C 0.51605 0.52082 0.54203 0.0
C781 C 1.00374 0.52682 0.53971 0.0
C782 C 0.03705 0.55915 0.51943 0.0
C783 C 0.97896 0.48762 0.51957 0.0
C784 C 0.98614 0.47921 0.47824 0.0
H785 H 0.99797 0.53063 0.57174 0.0
H786 H 0.95412 0.46345 0.53669 0.0
S787 S 0.06376 0.55818 0.41013 0.0
N788 N 0.0722 0.58332 0.45495 0.0
N789 N 0.02537 0.51005 0.41693 0.0
C790 C 0.0178 0.51263 0.45722 0.0
C791 C 0.04308 0.55255 0.4778 0.0
C792 C 0.02481 0.51761 0.28917 0.0
C793 C 0.97919 0.49217 0.28172 0.0
C794 C 0.05038 0.54309 0.25801 0.0
C795 C 0.03084 0.54424 0.21861 0.0
H796 H 0.03904 0.52053 0.31957 0.0
H797 H 0.08359 0.56496 0.26539 0.0
S798 S 0.91471 0.48038 0.1835 0.0
N799 N 0.91766 0.46688 0.23182 0.0
N800 N 0.9647 0.51539 0.17386 0.0
C801 C 0.98666 0.51689 0.2107 0.0
C802 C 0.96112 0.49069 0.24211 0.0
C803 C 0.0229 0.0251 0.28423 0.0
C804 C 0.03695 0.97419 0.27984 0.0
C805 C 0.99631 0.0506 0.25336 0.0
C806 C 0.98299 0.02584 0.21737 0.0
H807 H 0.0291 0.04405 0.3126 0.0
H808 H 0.98297 0.08853 0.25889 0.0
S809 S 0.0178 0.89534 0.18911 0.0
N810 N 0.04078 0.90232 0.23487 0.0
N811 N 0.99078 0.94956 0.17777 0.0
C812 C 1.00018 0.97631 0.21178 0.0
C813 C 0.0272 0.95072 0.24275 0.0
C814 C 0.52073 0.04787 0.25771 0.0
C815 C 0.54144 0.0203 0.29009 0.0
C816 C 0.4961 0.02313 0.22534 0.0
C817 C 0.4912 0.97021 0.22471 0.0
H818 H 0.52671 0.08816 0.25595 0.0
H819 H 0.48378 0.04509 0.19973 0.0
S820 S 0.53281 0.88172 0.30453 0.0
N821 N 0.55164 0.93754 0.32022 0.0
N822 N 0.50338 0.89228 0.26172 0.0
C823 C 0.50803 0.94319 0.25853 0.0
C824 C 0.53368 0.96785 0.29054 0.0
C825 C 0.5066 0.58093 0.23978 0.0
C826 C 0.49232 0.55687 0.27563 0.0
C827 C 0.53133 0.55485 0.20905 0.0
C828 C 0.54347 0.50347 0.21269 0.0
H829 H 0.50051 0.62105 0.23609 0.0
H830 H 0.54338 0.57585 0.18293 0.0
S831 S 0.51155 0.42174 0.29928 0.0
N832 N 0.48892 0.47757 0.31191 0.0
N833 N 0.53655 0.42851 0.25418 0.0
C834 C 0.52662 0.47792 0.24722 0.0
C835 C 0.50078 0.50463 0.27867 0.0
C836 C 0.02741 0.55507 0.74976 0.0
C837 C 0.03722 0.52877 0.71377 0.0
C838 C 1.00352 0.53105 0.7826 0.0
C839 C 0.98878 0.48015 0.78024 0.0
H840 H 0.04174 0.59294 0.75368 0.0
H841 H 0.99987 0.55119 0.81071 0.0
S842 S 1.00013 0.39702 0.69141 0.0
N843 N 0.02578 0.45069 0.67703 0.0
N844 N 0.98098 0.40633 0.73789 0.0
C845 C 0.99496 0.45511 0.74346 0.0
C846 C 0.01916 0.47918 0.71048 0.0
C847 C 0.97516 0.04053 0.75471 0.0
C848 C 0.99709 0.04455 0.71631 0.0
C849 C 0.99925 0.01339 0.78588 0.0
C850 C 0.04602 0.98973 0.77954 0.0
H851 H 0.94109 0.06131 0.76147 0.0
H852 H 0.98317 0.0142 0.81572 0.0
S853 S 0.11351 0.98041 0.68264 0.0
N854 N 0.06414 0.01619 0.67246 0.0
N855 N 0.1093 0.96599 0.73073 0.0
C856 C 0.06575 0.98993 0.74045 0.0
C857 C 0.0414 0.01726 0.70893 0.0
C858 C 0.49678 0.98009 0.75245 0.0
C859 C 0.48233 1.00416 0.71643 0.0
C860 C 0.5234 1.0065 0.78277 0.0
C861 C 0.53614 0.05768 0.77787 0.0
H862 H 0.48441 0.94195 0.7584 0.0
H863 H 0.5307 0.98793 0.81115 0.0
S864 S 0.51377 0.13499 0.6867 0.0
N865 N 0.48793 0.08003 0.67606 0.0
N866 N 0.53745 0.12914 0.73235 0.0
C867 C 0.52509 0.08058 0.74078 0.0
C868 C 0.49829 0.05398 0.71027 0.0
C869 C 0.44583 0.51541 0.74478 0.0
C870 C 0.47164 0.53252 0.77914 0.0
C871 C 0.47088 0.49077 0.71349 0.0
C872 C 0.5231 0.48184 0.71492 0.0
H873 H 0.40523 0.51918 0.74278 0.0
H874 H 0.44859 0.47627 0.68875 0.0
S875 S 0.60927 0.52254 0.79654 0.0
N876 N 0.55322 0.54228 0.81138 0.0
N877 N 0.60057 0.49508 0.7525 0.0
C878 C 0.55018 0.50162 0.74778 0.0
C879 C 0.52441 0.52721 0.77988 0.0
loop_
_geom_bond_atom_site_label_1
_geom_bond_atom_site_label_2
_geom_bond_distance
_geom_bond_site_symmetry_2
_ccdc_geom_bond_type
Sc0 O3 2.025 . S
Sc0 O10 2.105 . S
Sc0 O13 2.105 . S
Sc0 O16 2.105 1_455 S
Sc0 O19 2.105 . S
Sc1 O3 2.025 . S
Sc1 O11 2.105 . S
Sc1 O15 2.105 . S
Sc1 O17 2.105 . S
Sc1 O21 2.105 . S
Sc2 O3 2.025 1_655 S
Sc2 O12 2.105 1_655 S
Sc2 O14 2.105 . S
Sc2 O18 2.105 . S
Sc2 O20 2.105 . S
O3 Sc0 2.025 . S
O3 Sc1 2.025 . S
O3 Sc2 2.025 1_455 S
C4 O10 1.268 1_655 S
C4 O20 1.268 . S
C5 O11 1.268 . S
C5 O19 1.268 . S
C6 O12 1.268 . S
C6 O21 1.268 . S
C7 O13 1.268 . S
C7 O17 1.268 . S
C8 O14 1.268 . S
C8 O16 1.268 . S
C9 O15 1.268 . S
C9 O18 1.268 1_455 S
O10 Sc0 2.105 . S
O10 C4 1.268 1_455 S
O11 Sc1 2.105 . S
O11 C5 1.268 . S
O12 Sc2 2.105 1_455 S
O12 C6 1.268 . S
O13 Sc0 2.105 . S
O13 C7 1.268 . S
O14 Sc2 2.105 . S
O14 C8 1.268 . S
O15 Sc1 2.105 . S
O15 C9 1.268 . S
O16 Sc0 2.105 1_655 S
O16 C8 1.268 . S
O17 Sc1 2.105 . S
O17 C7 1.268 . S
O18 Sc2 2.105 . S
O18 C9 1.268 1_655 S
O19 Sc0 2.105 . S
O19 C5 1.268 . S
O20 Sc2 2.105 . S
O20 C4 1.268 . S
O21 Sc1 2.105 . S
O21 C6 1.268 . S
Sc22 O25 2.025 . S
Sc22 O32 2.105 . S
Sc22 O35 2.105 . S
Sc22 O38 2.105 1_545 S
Sc22 O41 2.105 . S
Sc23 O25 2.025 . S
Sc23 O33 2.105 . S
Sc23 O37 2.105 . S
Sc23 O39 2.105 . S
Sc23 O43 2.105 . S
Sc24 O25 2.025 1_565 S
Sc24 O34 2.105 1_565 S
Sc24 O36 2.105 . S
Sc24 O40 2.105 . S
Sc24 O42 2.105 . S
O25 Sc22 2.025 . S
O25 Sc23 2.025 . S
O25 Sc24 2.025 1_545 S
C26 O32 1.268 1_565 S
C26 O42 1.268 . S
C27 O33 1.268 . S
C27 O41 1.268 . S
C28 O34 1.268 . S
C28 O43 1.268 . S
C29 O35 1.268 . S
C29 O39 1.268 . S
C30 O36 1.268 . S
C30 O38 1.268 . S
C31 O37 1.268 . S
C31 O40 1.268 1_545 S
O32 Sc22 2.105 . S
O32 C26 1.268 1_545 S
O33 Sc23 2.105 . S
O33 C27 1.268 . S
O34 Sc24 2.105 1_545 S
O34 C28 1.268 . S
O35 Sc22 2.105 . S
O35 C29 1.268 . S
O36 Sc24 2.105 . S
O36 C30 1.268 . S
O37 Sc23 2.105 . S
O37 C31 1.268 . S
O38 Sc22 2.105 1_565 S
O38 C30 1.268 . S
O39 Sc23 2.105 . S
O39 C29 1.268 . S
O40 Sc24 2.105 . S
O40 C31 1.268 1_565 S
O41 Sc22 2.105 . S
O41 C27 1.268 . S
O42 Sc24 2.105 . S
O42 C26 1.268 . S
O43 Sc23 2.105 . S
O43 C28 1.268 . S
Sc44 O47 2.025 . S
Sc44 O54 2.105 . S
Sc44 O57 2.105 . S
Sc44 O60 2.105 . S
Sc44 O63 2.105 . S
Sc45 O47 2.025 . S
Sc45 O55 2.105 . S
Sc45 O59 2.105 . S
Sc45 O61 2.105 . S
Sc45 O65 2.105 . S
Sc46 O47 2.025 . S
Sc46 O56 2.105 . S
Sc46 O58 2.105 . S
Sc46 O62 2.105 . S
Sc46 O64 2.105 . S
O47 Sc44 2.025 . S
O47 Sc45 2.025 . S
O47 Sc46 2.025 . S
C48 O54 1.268 . S
C48 O64 1.268 . S
C49 O55 1.268 . S
C49 O63 1.268 . S
C50 O56 1.268 . S
C50 O65 1.268 . S
C51 O57 1.268 . S
C51 O61 1.268 . S
C52 O58 1.268 . S
C52 O60 1.268 . S
C53 O59 1.268 . S
C53 O62 1.268 . S
O54 Sc44 2.105 . S
O54 C48 1.268 . S
O55 Sc45 2.105 . S
O55 C49 1.268 . S
O56 Sc46 2.105 . S
O56 C50 1.268 . S
O57 Sc44 2.105 . S
O57 C51 1.268 . S
O58 Sc46 2.105 . S
O58 C52 1.268 . S
O59 Sc45 2.105 . S
O59 C53 1.268 . S
O60 Sc44 2.105 . S
O60 C52 1.268 . S
O61 Sc45 2.105 . S
O61 C51 1.268 . S
O62 Sc46 2.105 . S
O62 C53 1.268 . S
O63 Sc44 2.105 . S
O63 C49 1.268 . S
O64 Sc46 2.105 . S
O64 C48 1.268 . S
O65 Sc45 2.105 . S
O65 C50 1.268 . S
Sc66 O69 2.025 . S
Sc66 O76 2.105 . S
Sc66 O79 2.105 . S
Sc66 O82 2.105 . S
Sc66 O85 2.105 . S
Sc67 O69 2.025 . S
Sc67 O77 2.105 . S
Sc67 O81 2.105 . S
Sc67 O83 2.105 . S
Sc67 O87 2.105 . S
Sc68 O69 2.025 . S
Sc68 O78 2.105 . S
Sc68 O80 2.105 . S
Sc68 O84 2.105 . S
Sc68 O86 2.105 . S
O69 Sc66 2.025 . S
O69 Sc67 2.025 . S
O69 Sc68 2.025 . S
C70 O76 1.268 . S
C70 O86 1.268 . S
C71 O77 1.268 . S
C71 O85 1.268 . S
C72 O78 1.268 . S
C72 O87 1.268 . S
C73 O79 1.268 . S
C73 O83 1.268 . S
C74 O80 1.268 . S
C74 O82 1.268 . S
C75 O81 1.268 . S
C75 O84 1.268 . S
O76 Sc66 2.105 . S
O76 C70 1.268 . S
O77 Sc67 2.105 . S
O77 C71 1.268 . S
O78 Sc68 2.105 . S
O78 C72 1.268 . S
O79 Sc66 2.105 . S
O79 C73 1.268 . S
O80 Sc68 2.105 . S
O80 C74 1.268 . S
O81 Sc67 2.105 . S
O81 C75 1.268 . S
O82 Sc66 2.105 . S
O82 C74 1.268 . S
O83 Sc67 2.105 . S
O83 C73 1.268 . S
O84 Sc68 2.105 . S
O84 C75 1.268 . S
O85 Sc66 2.105 . S
O85 C71 1.268 . S
O86 Sc68 2.105 . S
O86 C70 1.268 . S
O87 Sc67 2.105 . S
O87 C72 1.268 . S
Sc88 O91 2.025 1_655 S
Sc88 O98 2.105 . S
Sc88 O101 2.105 1_655 S
Sc88 O104 2.105 . S
Sc88 O107 2.105 . S
Sc89 O91 2.025 . S
Sc89 O99 2.105 . S
Sc89 O103 2.105 . S
Sc89 O105 2.105 . S
Sc89 O109 2.105 . S
Sc90 O91 2.025 . S
Sc90 O100 2.105 . S
Sc90 O102 2.105 . S
Sc90 O106 2.105 . S
Sc90 O108 2.105 1_455 S
O91 Sc88 2.025 1_455 S
O91 Sc89 2.025 . S
O91 Sc90 2.025 . S
C92 O98 1.268 . S
C92 O108 1.268 . S
C93 O99 1.268 . S
C93 O107 1.268 1_455 S
C94 O100 1.268 . S
C94 O109 1.268 . S
C95 O101 1.268 . S
C95 O105 1.268 . S
C96 O102 1.268 1_655 S
C96 O104 1.268 . S
C97 O103 1.268 . S
C97 O106 1.268 . S
O98 Sc88 2.105 . S
O98 C92 1.268 . S
O99 Sc89 2.105 . S
O99 C93 1.268 . S
O100 Sc90 2.105 . S
O100 C94 1.268 . S
O101 Sc88 2.105 1_455 S
O101 C95 1.268 . S
O102 Sc90 2.105 . S
O102 C96 1.268 1_455 S
O103 Sc89 2.105 . S
O103 C97 1.268 . S
O104 Sc88 2.105 . S
O104 C96 1.268 . S
O105 Sc89 2.105 . S
O105 C95 1.268 . S
O106 Sc90 2.105 . S
O106 C97 1.268 . S
O107 Sc88 2.105 . S
O107 C93 1.268 1_655 S
O108 Sc90 2.105 1_655 S
O108 C92 1.268 . S
O109 Sc89 2.105 . S
O109 C94 1.268 . S
Sc110 O113 2.025 . S
Sc110 O120 2.105 . S
Sc110 O123 2.105 . S
Sc110 O126 2.105 1_545 S
Sc110 O129 2.105 . S
Sc111 O113 2.025 . S
Sc111 O121 2.105 . S
Sc111 O125 2.105 . S
Sc111 O127 2.105 . S
Sc111 O131 2.105 . S
Sc112 O113 2.025 1_565 S
Sc112 O122 2.105 1_565 S
Sc112 O124 2.105 . S
Sc112 O128 2.105 . S
Sc112 O130 2.105 . S
O113 Sc110 2.025 . S
O113 Sc111 2.025 . S
O113 Sc112 2.025 1_545 S
C114 O120 1.268 1_565 S
C114 O130 1.268 . S
C115 O121 1.268 . S
C115 O129 1.268 . S
C116 O122 1.268 . S
C116 O131 1.268 . S
C117 O123 1.268 . S
C117 O127 1.268 . S
C118 O124 1.268 . S
C118 O126 1.268 . S
C119 O125 1.268 . S
C119 O128 1.268 1_545 S
O120 Sc110 2.105 . S
O120 C114 1.268 1_545 S
O121 Sc111 2.105 . S
O121 C115 1.268 . S
O122 Sc112 2.105 1_545 S
O122 C116 1.268 . S
O123 Sc110 2.105 . S
O123 C117 1.268 . S
O124 Sc112 2.105 . S
O124 C118 1.268 . S
O125 Sc111 2.105 . S
O125 C119 1.268 . S
O126 Sc110 2.105 1_565 S
O126 C118 1.268 . S
O127 Sc111 2.105 . S
O127 C117 1.268 . S
O128 Sc112 2.105 . S
O128 C119 1.268 1_565 S
O129 Sc110 2.105 . S
O129 C115 1.268 . S
O130 Sc112 2.105 . S
O130 C114 1.268 . S
O131 Sc111 2.105 . S
O131 C116 1.268 . S
Sc132 O135 2.025 . S
Sc132 O142 2.105 . S
Sc132 O145 2.105 . S
Sc132 O148 2.105 . S
Sc132 O151 2.105 . S
Sc133 O135 2.025 . S
Sc133 O143 2.105 . S
Sc133 O147 2.105 . S
Sc133 O149 2.105 . S
Sc133 O153 2.105 . S
Sc134 O135 2.025 . S
Sc134 O144 2.105 . S
Sc134 O146 2.105 . S
Sc134 O150 2.105 . S
Sc134 O152 2.105 . S
O135 Sc132 2.025 . S
O135 Sc133 2.025 . S
O135 Sc134 2.025 . S
C136 O142 1.268 . S
C136 O152 1.268 . S
C137 O143 1.268 . S
C137 O151 1.268 . S
C138 O144 1.268 . S
C138 O153 1.268 . S
C139 O145 1.268 . S
C139 O149 1.268 . S
C140 O146 1.268 . S
C140 O148 1.268 . S
C141 O147 1.268 . S
C141 O150 1.268 . S
O142 Sc132 2.105 . S
O142 C136 1.268 . S
O143 Sc133 2.105 . S
O143 C137 1.268 . S
O144 Sc134 2.105 . S
O144 C138 1.268 . S
O145 Sc132 2.105 . S
O145 C139 1.268 . S
O146 Sc134 2.105 . S
O146 C140 1.268 . S
O147 Sc133 2.105 . S
O147 C141 1.268 . S
O148 Sc132 2.105 . S
O148 C140 1.268 . S
O149 Sc133 2.105 . S
O149 C139 1.268 . S
O150 Sc134 2.105 . S
O150 C141 1.268 . S
O151 Sc132 2.105 . S
O151 C137 1.268 . S
O152 Sc134 2.105 . S
O152 C136 1.268 . S
O153 Sc133 2.105 . S
O153 C138 1.268 . S
Sc154 O157 2.025 . S
Sc154 O164 2.105 . S
Sc154 O167 2.105 . S
Sc154 O170 2.105 . S
Sc154 O173 2.105 . S
Sc155 O157 2.025 . S
Sc155 O165 2.105 . S
Sc155 O169 2.105 . S
Sc155 O171 2.105 . S
Sc155 O175 2.105 . S
Sc156 O157 2.025 . S
Sc156 O166 2.105 . S
Sc156 O168 2.105 . S
Sc156 O172 2.105 . S
Sc156 O174 2.105 . S
O157 Sc154 2.025 . S
O157 Sc155 2.025 . S
O157 Sc156 2.025 . S
C158 O164 1.268 . S
C158 O174 1.268 . S
C159 O165 1.268 . S
C159 O173 1.268 . S
C160 O166 1.268 . S
C160 O175 1.268 . S
C161 O167 1.268 . S
C161 O171 1.268 . S
C162 O168 1.268 . S
C162 O170 1.268 . S
C163 O169 1.268 . S
C163 O172 1.268 . S
O164 Sc154 2.105 . S
O164 C158 1.268 . S
O165 Sc155 2.105 . S
O165 C159 1.268 . S
O166 Sc156 2.105 . S
O166 C160 1.268 . S
O167 Sc154 2.105 . S
O167 C161 1.268 . S
O168 Sc156 2.105 . S
O168 C162 1.268 . S
O169 Sc155 2.105 . S
O169 C163 1.268 . S
O170 Sc154 2.105 . S
O170 C162 1.268 . S
O171 Sc155 2.105 . S
O171 C161 1.268 . S
O172 Sc156 2.105 . S
O172 C163 1.268 . S
O173 Sc154 2.105 . S
O173 C159 1.268 . S
O174 Sc156 2.105 . S
O174 C158 1.268 . S
O175 Sc155 2.105 . S
O175 C160 1.268 . S
Sc176 O179 2.025 1_455 S
Sc176 O186 2.105 . S
Sc176 O189 2.105 . S
Sc176 O192 2.105 . S
Sc176 O195 2.105 1_455 S
Sc177 O179 2.025 . S
Sc177 O187 2.105 . S
Sc177 O191 2.105 . S
Sc177 O193 2.105 . S
Sc177 O197 2.105 . S
Sc178 O179 2.025 . S
Sc178 O188 2.105 . S
Sc178 O190 2.105 1_655 S
Sc178 O194 2.105 . S
Sc178 O196 2.105 . S
O179 Sc176 2.025 1_655 S
O179 Sc177 2.025 . S
O179 Sc178 2.025 . S
C180 O186 1.268 . S
C180 O196 1.268 1_455 S
C181 O187 1.268 . S
C181 O195 1.268 . S
C182 O188 1.268 . S
C182 O197 1.268 . S
C183 O189 1.268 1_655 S
C183 O193 1.268 . S
C184 O190 1.268 . S
C184 O192 1.268 . S
C185 O191 1.268 . S
C185 O194 1.268 . S
O186 Sc176 2.105 . S
O186 C180 1.268 . S
O187 Sc177 2.105 . S
O187 C181 1.268 . S
O188 Sc178 2.105 . S
O188 C182 1.268 . S
O189 Sc176 2.105 . S
O189 C183 1.268 1_455 S
O190 Sc178 2.105 1_455 S
O190 C184 1.268 . S
O191 Sc177 2.105 . S
O191 C185 1.268 . S
O192 Sc176 2.105 . S
O192 C184 1.268 . S
O193 Sc177 2.105 . S
O193 C183 1.268 . S
O194 Sc178 2.105 . S
O194 C185 1.268 . S
O195 Sc176 2.105 1_655 S
O195 C181 1.268 . S
O196 Sc178 2.105 . S
O196 C180 1.268 1_655 S
O197 Sc177 2.105 . S
O197 C182 1.268 . S
Sc198 O201 2.025 . S
Sc198 O208 2.105 1_565 S
Sc198 O211 2.105 . S
Sc198 O214 2.105 . S
Sc198 O217 2.105 . S
Sc199 O201 2.025 . S
Sc199 O209 2.105 . S
Sc199 O213 2.105 . S
Sc199 O215 2.105 . S
Sc199 O219 2.105 . S
Sc200 O201 2.025 1_545 S
Sc200 O210 2.105 . S
Sc200 O212 2.105 . S
Sc200 O216 2.105 1_545 S
Sc200 O218 2.105 . S
O201 Sc198 2.025 . S
O201 Sc199 2.025 . S
O201 Sc200 2.025 1_565 S
C202 O208 1.268 . S
C202 O218 1.268 . S
C203 O209 1.268 . S
C203 O217 1.268 . S
C204 O210 1.268 1_565 S
C204 O219 1.268 . S
C205 O211 1.268 . S
C205 O215 1.268 . S
C206 O212 1.268 . S
C206 O214 1.268 1_545 S
C207 O213 1.268 . S
C207 O216 1.268 . S
O208 Sc198 2.105 1_545 S
O208 C202 1.268 . S
O209 Sc199 2.105 . S
O209 C203 1.268 . S
O210 Sc200 2.105 . S
O210 C204 1.268 1_545 S
O211 Sc198 2.105 . S
O211 C205 1.268 . S
O212 Sc200 2.105 . S
O212 C206 1.268 . S
O213 Sc199 2.105 . S
O213 C207 1.268 . S
O214 Sc198 2.105 . S
O214 C206 1.268 1_565 S
O215 Sc199 2.105 . S
O215 C205 1.268 . S
O216 Sc200 2.105 1_565 S
O216 C207 1.268 . S
O217 Sc198 2.105 . S
O217 C203 1.268 . S
O218 Sc200 2.105 . S
O218 C202 1.268 . S
O219 Sc199 2.105 . S
O219 C204 1.268 . S
Sc220 O223 2.025 . S
Sc220 O230 2.105 . S
Sc220 O233 2.105 . S
Sc220 O236 2.105 . S
Sc220 O239 2.105 . S
Sc221 O223 2.025 . S
Sc221 O231 2.105 . S
Sc221 O235 2.105 . S
Sc221 O237 2.105 . S
Sc221 O241 2.105 . S
Sc222 O223 2.025 . S
Sc222 O232 2.105 . S
Sc222 O234 2.105 . S
Sc222 O238 2.105 . S
Sc222 O240 2.105 . S
O223 Sc220 2.025 . S
O223 Sc221 2.025 . S
O223 Sc222 2.025 . S
C224 O230 1.268 . S
C224 O240 1.268 . S
C225 O231 1.268 . S
C225 O239 1.268 . S
C226 O232 1.268 . S
C226 O241 1.268 . S
C227 O233 1.268 . S
C227 O237 1.268 . S
C228 O234 1.268 . S
C228 O236 1.268 . S
C229 O235 1.268 . S
C229 O238 1.268 . S
O230 Sc220 2.105 . S
O230 C224 1.268 . S
O231 Sc221 2.105 . S
O231 C225 1.268 . S
O232 Sc222 2.105 . S
O232 C226 1.268 . S
O233 Sc220 2.105 . S
O233 C227 1.268 . S
O234 Sc222 2.105 . S
O234 C228 1.268 . S
O235 Sc221 2.105 . S
O235 C229 1.268 . S
O236 Sc220 2.105 . S
O236 C228 1.268 . S
O237 Sc221 2.105 . S
O237 C227 1.268 . S
O238 Sc222 2.105 . S
O238 C229 1.268 . S
O239 Sc220 2.105 . S
O239 C225 1.268 . S
O240 Sc222 2.105 . S
O240 C224 1.268 . S
O241 Sc221 2.105 . S
O241 C226 1.268 . S
Sc242 O245 2.025 . S
Sc242 O252 2.105 . S
Sc242 O255 2.105 . S
Sc242 O258 2.105 . S
Sc242 O261 2.105 . S
Sc243 O245 2.025 . S
Sc243 O253 2.105 . S
Sc243 O257 2.105 . S
Sc243 O259 2.105 . S
Sc243 O263 2.105 . S
Sc244 O245 2.025 . S
Sc244 O254 2.105 . S
Sc244 O256 2.105 . S
Sc244 O260 2.105 . S
Sc244 O262 2.105 . S
O245 Sc242 2.025 . S
O245 Sc243 2.025 . S
O245 Sc244 2.025 . S
C246 O252 1.268 . S
C246 O262 1.268 . S
C247 O253 1.268 . S
C247 O261 1.268 . S
C248 O254 1.268 . S
C248 O263 1.268 . S
C249 O255 1.268 . S
C249 O259 1.268 . S
C250 O256 1.268 . S
C250 O258 1.268 . S
C251 O257 1.268 . S
C251 O260 1.268 . S
O252 Sc242 2.105 . S
O252 C246 1.268 . S
O253 Sc243 2.105 . S
O253 C247 1.268 . S
O254 Sc244 2.105 . S
O254 C248 1.268 . S
O255 Sc242 2.105 . S
O255 C249 1.268 . S
O256 Sc244 2.105 . S
O256 C250 1.268 . S
O257 Sc243 2.105 . S
O257 C251 1.268 . S
O258 Sc242 2.105 . S
O258 C250 1.268 . S
O259 Sc243 2.105 . S
O259 C249 1.268 . S
O260 Sc244 2.105 . S
O260 C251 1.268 . S
O261 Sc242 2.105 . S
O261 C247 1.268 . S
O262 Sc244 2.105 . S
O262 C246 1.268 . S
O263 Sc243 2.105 . S
O263 C248 1.268 . S
Sc264 O267 2.025 . S
Sc264 O274 2.105 1_655 S
Sc264 O277 2.105 . S
Sc264 O280 2.105 . S
Sc264 O283 2.105 . S
Sc265 O267 2.025 . S
Sc265 O275 2.105 . S
Sc265 O279 2.105 . S
Sc265 O281 2.105 . S
Sc265 O285 2.105 . S
Sc266 O267 2.025 1_455 S
Sc266 O276 2.105 . S
Sc266 O278 2.105 . S
Sc266 O282 2.105 1_455 S
Sc266 O284 2.105 . S
O267 Sc264 2.025 . S
O267 Sc265 2.025 . S
O267 Sc266 2.025 1_655 S
C268 O274 1.268 . S
C268 O284 1.268 . S
C269 O275 1.268 . S
C269 O283 1.268 . S
C270 O276 1.268 1_655 S
C270 O285 1.268 . S
C271 O277 1.268 . S
C271 O281 1.268 . S
C272 O278 1.268 . S
C272 O280 1.268 1_455 S
C273 O279 1.268 . S
C273 O282 1.268 . S
O274 Sc264 2.105 1_455 S
O274 C268 1.268 . S
O275 Sc265 2.105 . S
O275 C269 1.268 . S
O276 Sc266 2.105 . S
O276 C270 1.268 1_455 S
O277 Sc264 2.105 . S
O277 C271 1.268 . S
O278 Sc266 2.105 . S
O278 C272 1.268 . S
O279 Sc265 2.105 . S
O279 C273 1.268 . S
O280 Sc264 2.105 . S
O280 C272 1.268 1_655 S
O281 Sc265 2.105 . S
O281 C271 1.268 . S
O282 Sc266 2.105 1_655 S
O282 C273 1.268 . S
O283 Sc264 2.105 . S
O283 C269 1.268 . S
O284 Sc266 2.105 . S
O284 C268 1.268 . S
O285 Sc265 2.105 . S
O285 C270 1.268 . S
Sc286 O289 2.025 . S
Sc286 O296 2.105 1_565 S
Sc286 O299 2.105 . S
Sc286 O302 2.105 . S
Sc286 O305 2.105 . S
Sc287 O289 2.025 . S
Sc287 O297 2.105 . S
Sc287 O301 2.105 . S
Sc287 O303 2.105 . S
Sc287 O307 2.105 . S
Sc288 O289 2.025 1_545 S
Sc288 O298 2.105 . S
Sc288 O300 2.105 . S
Sc288 O304 2.105 1_545 S
Sc288 O306 2.105 . S
O289 Sc286 2.025 . S
O289 Sc287 2.025 . S
O289 Sc288 2.025 1_565 S
C290 O296 1.268 . S
C290 O306 1.268 . S
C291 O297 1.268 . S
C291 O305 1.268 . S
C292 O298 1.268 1_565 S
C292 O307 1.268 . S
C293 O299 1.268 . S
C293 O303 1.268 . S
C294 O300 1.268 . S
C294 O302 1.268 1_545 S
C295 O301 1.268 . S
C295 O304 1.268 . S
O296 Sc286 2.105 1_545 S
O296 C290 1.268 . S
O297 Sc287 2.105 . S
O297 C291 1.268 . S
O298 Sc288 2.105 . S
O298 C292 1.268 1_545 S
O299 Sc286 2.105 . S
O299 C293 1.268 . S
O300 Sc288 2.105 . S
O300 C294 1.268 . S
O301 Sc287 2.105 . S
O301 C295 1.268 . S
O302 Sc286 2.105 . S
O302 C294 1.268 1_565 S
O303 Sc287 2.105 . S
O303 C293 1.268 . S
O304 Sc288 2.105 1_565 S
O304 C295 1.268 . S
O305 Sc286 2.105 . S
O305 C291 1.268 . S
O306 Sc288 2.105 . S
O306 C290 1.268 . S
O307 Sc287 2.105 . S
O307 C292 1.268 . S
Sc308 O311 2.025 . S
Sc308 O318 2.105 . S
Sc308 O321 2.105 . S
Sc308 O324 2.105 . S
Sc308 O327 2.105 . S
Sc309 O311 2.025 . S
Sc309 O319 2.105 . S
Sc309 O323 2.105 . S
Sc309 O325 2.105 . S
Sc309 O329 2.105 . S
Sc310 O311 2.025 . S
Sc310 O320 2.105 . S
Sc310 O322 2.105 . S
Sc310 O326 2.105 . S
Sc310 O328 2.105 . S
O311 Sc308 2.025 . S
O311 Sc309 2.025 . S
O311 Sc310 2.025 . S
C312 O318 1.268 . S
C312 O328 1.268 . S
C313 O319 1.268 . S
C313 O327 1.268 . S
C314 O320 1.268 . S
C314 O329 1.268 . S
C315 O321 1.268 . S
C315 O325 1.268 . S
C316 O322 1.268 . S
C316 O324 1.268 . S
C317 O323 1.268 . S
C317 O326 1.268 . S
O318 Sc308 2.105 . S
O318 C312 1.268 . S
O319 Sc309 2.105 . S
O319 C313 1.268 . S
O320 Sc310 2.105 . S
O320 C314 1.268 . S
O321 Sc308 2.105 . S
O321 C315 1.268 . S
O322 Sc310 2.105 . S
O322 C316 1.268 . S
O323 Sc309 2.105 . S
O323 C317 1.268 . S
O324 Sc308 2.105 . S
O324 C316 1.268 . S
O325 Sc309 2.105 . S
O325 C315 1.268 . S
O326 Sc310 2.105 . S
O326 C317 1.268 . S
O327 Sc308 2.105 . S
O327 C313 1.268 . S
O328 Sc310 2.105 . S
O328 C312 1.268 . S
O329 Sc309 2.105 . S
O329 C314 1.268 . S
Sc330 O333 2.025 . S
Sc330 O340 2.105 . S
Sc330 O343 2.105 . S
Sc330 O346 2.105 . S
Sc330 O349 2.105 . S
Sc331 O333 2.025 . S
Sc331 O341 2.105 . S
Sc331 O345 2.105 . S
Sc331 O347 2.105 . S
Sc331 O351 2.105 . S
Sc332 O333 2.025 . S
Sc332 O342 2.105 . S
Sc332 O344 2.105 . S
Sc332 O348 2.105 . S
Sc332 O350 2.105 . S
O333 Sc330 2.025 . S
O333 Sc331 2.025 . S
O333 Sc332 2.025 . S
C334 O340 1.268 . S
C334 O350 1.268 . S
C335 O341 1.268 . S
C335 O349 1.268 . S
C336 O342 1.268 . S
C336 O351 1.268 . S
C337 O343 1.268 . S
C337 O347 1.268 . S
C338 O344 1.268 . S
C338 O346 1.268 . S
C339 O345 1.268 . S
C339 O348 1.268 . S
O340 Sc330 2.105 . S
O340 C334 1.268 . S
O341 Sc331 2.105 . S
O341 C335 1.268 . S
O342 Sc332 2.105 . S
O342 C336 1.268 . S
O343 Sc330 2.105 . S
O343 C337 1.268 . S
O344 Sc332 2.105 . S
O344 C338 1.268 . S
O345 Sc331 2.105 . S
O345 C339 1.268 . S
O346 Sc330 2.105 . S
O346 C338 1.268 . S
O347 Sc331 2.105 . S
O347 C337 1.268 . S
O348 Sc332 2.105 . S
O348 C339 1.268 . S
O349 Sc330 2.105 . S
O349 C335 1.268 . S
O350 Sc332 2.105 . S
O350 C334 1.268 . S
O351 Sc331 2.105 . S
O351 C336 1.268 . S
C352 C353 1.369 . S
C352 C354 1.419 . S
C352 H356 0.930 . S
C353 C352 1.369 . S
C353 C362 1.429 . S
C354 C352 1.419 . S
C354 C355 1.363 . S
C354 H357 0.929 . S
C355 C354 1.363 . S
C355 C361 1.428 . S
H356 C352 0.930 . S
H357 C354 0.929 . S
S358 N359 1.613 1_556 S
S358 N360 1.610 1_556 S
N359 S358 1.613 1_554 S
N359 C362 1.350 . S
N360 S358 1.610 1_554 S
N360 C361 1.351 . S
C361 C355 1.428 . S
C361 N360 1.351 . S
C361 C362 1.434 . S
C362 C353 1.429 . S
C362 N359 1.350 . S
C362 C361 1.434 . S
C363 C364 1.369 . S
C363 C365 1.419 . S
C363 H367 0.930 . S
C364 C363 1.369 . S
C364 C373 1.429 . S
C365 C363 1.419 . S
C365 C366 1.363 . S
C365 H368 0.929 . S
C366 C365 1.363 . S
C366 C372 1.428 . S
H367 C363 0.930 . S
H368 C365 0.929 . S
S369 N370 1.613 . S
S369 N371 1.610 . S
N370 S369 1.613 . S
N370 C373 1.350 . S
N371 S369 1.610 . S
N371 C372 1.351 . S
C372 C366 1.428 . S
C372 N371 1.351 . S
C372 C373 1.434 . S
C373 C364 1.429 . S
C373 N370 1.350 . S
C373 C372 1.434 . S
C374 C375 1.369 . S
C374 C376 1.419 . S
C374 H378 0.930 . S
C375 C374 1.369 . S
C375 C384 1.429 . S
C376 C374 1.419 . S
C376 C377 1.363 . S
C376 H379 0.929 . S
C377 C376 1.363 . S
C377 C383 1.428 . S
H378 C374 0.930 . S
H379 C376 0.929 . S
S380 N381 1.613 1_546 S
S380 N382 1.610 1_556 S
N381 S380 1.613 1_564 S
N381 C384 1.350 . S
N382 S380 1.610 1_554 S
N382 C383 1.351 1_545 S
C383 C377 1.428 . S
C383 N382 1.351 1_565 S
C383 C384 1.434 . S
C384 C375 1.429 . S
C384 N381 1.350 . S
C384 C383 1.434 . S
C385 C386 1.369 . S
C385 C387 1.419 . S
C385 H389 0.930 . S
C386 C385 1.369 . S
C386 C395 1.429 . S
C387 C385 1.419 . S
C387 C388 1.363 . S
C387 H390 0.929 . S
C388 C387 1.363 . S
C388 C394 1.428 . S
H389 C385 0.930 . S
H390 C387 0.929 . S
S391 N392 1.613 . S
S391 N393 1.610 . S
N392 S391 1.613 . S
N392 C395 1.350 . S
N393 S391 1.610 . S
N393 C394 1.351 . S
C394 C388 1.428 . S
C394 N393 1.351 . S
C394 C395 1.434 . S
C395 C386 1.429 . S
C395 N392 1.350 . S
C395 C394 1.434 . S
C396 C397 1.369 . S
C396 C398 1.419 . S
C396 H400 0.930 . S
C397 C396 1.369 . S
C397 C406 1.429 . S
C398 C396 1.419 . S
C398 C399 1.363 . S
C398 H401 0.929 . S
C399 C398 1.363 . S
C399 C405 1.428 . S
H400 C396 0.930 . S
H401 C398 0.929 . S
S402 N403 1.613 1_545 S
S402 N404 1.610 . S
N403 S402 1.613 1_565 S
N403 C406 1.350 . S
N404 S402 1.610 . S
N404 C405 1.351 1_545 S
C405 C399 1.428 . S
C405 N404 1.351 1_565 S
C405 C406 1.434 . S
C406 C397 1.429 . S
C406 N403 1.350 . S
C406 C405 1.434 . S
C407 C408 1.369 . S
C407 C409 1.419 . S
C407 H411 0.930 . S
C408 C407 1.369 . S
C408 C417 1.429 . S
C409 C407 1.419 . S
C409 C410 1.363 . S
C409 H412 0.929 . S
C410 C409 1.363 . S
C410 C416 1.428 . S
H411 C407 0.930 . S
H412 C409 0.929 . S
S413 N414 1.613 . S
S413 N415 1.610 . S
N414 S413 1.613 . S
N414 C417 1.350 . S
N415 S413 1.610 . S
N415 C416 1.351 . S
C416 C410 1.428 . S
C416 N415 1.351 . S
C416 C417 1.434 . S
C417 C408 1.429 . S
C417 N414 1.350 . S
C417 C416 1.434 . S
C418 C419 1.369 . S
C418 C420 1.419 . S
C418 H422 0.930 . S
C419 C418 1.369 . S
C419 C428 1.429 . S
C420 C418 1.419 . S
C420 C421 1.363 . S
C420 H423 0.929 . S
C421 C420 1.363 . S
C421 C427 1.428 . S
H422 C418 0.930 . S
H423 C420 0.929 . S
S424 N425 1.613 . S
S424 N426 1.610 . S
N425 S424 1.613 . S
N425 C428 1.350 . S
N426 S424 1.610 . S
N426 C427 1.351 . S
C427 C421 1.428 . S
C427 N426 1.351 . S
C427 C428 1.434 . S
C428 C419 1.429 . S
C428 N425 1.350 . S
C428 C427 1.434 . S
C429 C430 1.369 . S
C429 C431 1.419 . S
C429 H433 0.930 . S
C430 C429 1.369 . S
C430 C439 1.429 . S
C431 C429 1.419 . S
C431 C432 1.363 . S
C431 H434 0.929 . S
C432 C431 1.363 . S
C432 C438 1.428 . S
H433 C429 0.930 . S
H434 C431 0.929 . S
S435 N436 1.613 . S
S435 N437 1.610 . S
N436 S435 1.613 . S
N436 C439 1.350 . S
N437 S435 1.610 . S
N437 C438 1.351 . S
C438 C432 1.428 . S
C438 N437 1.351 . S
C438 C439 1.434 . S
C439 C430 1.429 . S
C439 N436 1.350 . S
C439 C438 1.434 . S
C440 C441 1.369 . S
C440 C442 1.419 . S
C440 H444 0.930 . S
C441 C440 1.369 . S
C441 C450 1.429 . S
C442 C440 1.419 . S
C442 C443 1.363 . S
C442 H445 0.929 . S
C443 C442 1.363 . S
C443 C449 1.428 . S
H444 C440 0.930 . S
H445 C442 0.929 . S
S446 N447 1.613 . S
S446 N448 1.610 . S
N447 S446 1.613 . S
N447 C450 1.350 . S
N448 S446 1.610 . S
N448 C449 1.351 . S
C449 C443 1.428 . S
C449 N448 1.351 . S
C449 C450 1.434 . S
C450 C441 1.429 . S
C450 N447 1.350 . S
C450 C449 1.434 . S
C451 C452 1.369 . S
C451 C453 1.419 . S
C451 H455 0.930 . S
C452 C451 1.369 . S
C452 C461 1.429 . S
C453 C451 1.419 . S
C453 C454 1.363 . S
C453 H456 0.929 . S
C454 C453 1.363 . S
C454 C460 1.428 . S
H455 C451 0.930 . S
H456 C453 0.929 . S
S457 N458 1.613 . S
S457 N459 1.610 1_655 S
N458 S457 1.613 . S
N458 C461 1.350 1_655 S
N459 S457 1.610 1_455 S
N459 C460 1.351 . S
C460 C454 1.428 . S
C460 N459 1.351 . S
C460 C461 1.434 . S
C461 C452 1.429 . S
C461 N458 1.350 1_455 S
C461 C460 1.434 . S
C462 C463 1.369 . S
C462 C464 1.419 . S
C462 H466 0.930 . S
C463 C462 1.369 . S
C463 C472 1.429 . S
C464 C462 1.419 . S
C464 C465 1.363 . S
C464 H467 0.929 . S
C465 C464 1.363 . S
C465 C471 1.428 . S
H466 C462 0.930 . S
H467 C464 0.929 . S
S468 N469 1.613 . S
S468 N470 1.610 1_565 S
N469 S468 1.613 . S
N469 C472 1.350 1_565 S
N470 S468 1.610 1_545 S
N470 C471 1.351 . S
C471 C465 1.428 . S
C471 N470 1.351 . S
C471 C472 1.434 . S
C472 C463 1.429 . S
C472 N469 1.350 1_545 S
C472 C471 1.434 . S
C473 C474 1.369 . S
C473 C475 1.419 . S
C473 H477 0.930 . S
C474 C473 1.369 . S
C474 C483 1.429 . S
C475 C473 1.419 . S
C475 C476 1.363 . S
C475 H478 0.929 . S
C476 C475 1.363 . S
C476 C482 1.428 . S
H477 C473 0.930 . S
H478 C475 0.929 . S
S479 N480 1.613 . S
S479 N481 1.610 . S
N480 S479 1.613 . S
N480 C483 1.350 . S
N481 S479 1.610 . S
N481 C482 1.351 . S
C482 C476 1.428 . S
C482 N481 1.351 . S
C482 C483 1.434 . S
C483 C474 1.429 . S
C483 N480 1.350 . S
C483 C482 1.434 . S
C484 C485 1.369 . S
C484 C486 1.419 . S
C484 H488 0.930 . S
C485 C484 1.369 . S
C485 C494 1.429 . S
C486 C484 1.419 . S
C486 C487 1.363 . S
C486 H489 0.929 . S
C487 C486 1.363 . S
C487 C493 1.428 . S
H488 C484 0.930 . S
H489 C486 0.929 . S
S490 N491 1.613 1_565 S
S490 N492 1.610 . S
N491 S490 1.613 1_545 S
N491 C494 1.350 . S
N492 S490 1.610 . S
N492 C493 1.351 1_565 S
C493 C487 1.428 . S
C493 N492 1.351 1_545 S
C493 C494 1.434 . S
C494 C485 1.429 . S
C494 N491 1.350 . S
C494 C493 1.434 . S
C495 C496 1.369 . S
C495 C497 1.419 . S
C495 H499 0.930 . S
C496 C495 1.369 . S
C496 C505 1.429 . S
C497 C495 1.419 . S
C497 C498 1.363 . S
C497 H500 0.929 . S
C498 C497 1.363 . S
C498 C504 1.428 . S
H499 C495 0.930 . S
H500 C497 0.929 . S
S501 N502 1.613 . S
S501 N503 1.610 . S
N502 S501 1.613 . S
N502 C505 1.350 . S
N503 S501 1.610 . S
N503 C504 1.351 . S
C504 C498 1.428 . S
C504 N503 1.351 . S
C504 C505 1.434 . S
C505 C496 1.429 . S
C505 N502 1.350 . S
C505 C504 1.434 . S
C506 C507 1.369 . S
C506 C508 1.419 . S
C506 H510 0.930 . S
C507 C506 1.369 . S
C507 C516 1.429 . S
C508 C506 1.419 . S
C508 C509 1.363 . S
C508 H511 0.929 . S
C509 C508 1.363 . S
C509 C515 1.428 . S
H510 C506 0.930 . S
H511 C508 0.929 . S
S512 N513 1.613 . S
S512 N514 1.610 . S
N513 S512 1.613 . S
N513 C516 1.350 . S
N514 S512 1.610 . S
N514 C515 1.351 . S
C515 C509 1.428 . S
C515 N514 1.351 . S
C515 C516 1.434 . S
C516 C507 1.429 . S
C516 N513 1.350 . S
C516 C515 1.434 . S
C517 C518 1.369 . S
C517 C519 1.419 . S
C517 H521 0.930 . S
C518 C517 1.369 . S
C518 C527 1.429 . S
C519 C517 1.419 . S
C519 C520 1.363 . S
C519 H522 0.929 1_455 S
C520 C519 1.363 . S
C520 C526 1.428 . S
H521 C517 0.930 . S
H522 C519 0.929 1_655 S
S523 N524 1.613 . S
S523 N525 1.610 . S
N524 S523 1.613 . S
N524 C527 1.350 . S
N525 S523 1.610 . S
N525 C526 1.351 . S
C526 C520 1.428 . S
C526 N525 1.351 . S
C526 C527 1.434 . S
C527 C518 1.429 . S
C527 N524 1.350 . S
C527 C526 1.434 . S
C528 C529 1.369 . S
C528 C530 1.419 . S
C528 H532 0.930 . S
C529 C528 1.369 . S
C529 C538 1.429 . S
C530 C528 1.419 . S
C530 C531 1.363 . S
C530 H533 0.929 . S
C531 C530 1.363 . S
C531 C537 1.428 . S
H532 C528 0.930 . S
H533 C530 0.929 . S
S534 N535 1.613 1_655 S
S534 N536 1.610 1_655 S
N535 S534 1.613 1_455 S
N535 C538 1.350 . S
N536 S534 1.610 1_455 S
N536 C537 1.351 . S
C537 C531 1.428 . S
C537 N536 1.351 . S
C537 C538 1.434 . S
C538 C529 1.429 . S
C538 N535 1.350 . S
C538 C537 1.434 . S
C539 C540 1.369 . S
C539 C541 1.419 . S
C539 H543 0.930 . S
C540 C539 1.369 . S
C540 C549 1.429 . S
C541 C539 1.419 . S
C541 C542 1.363 . S
C541 H544 0.929 . S
C542 C541 1.363 . S
C542 C548 1.428 . S
H543 C539 0.930 . S
H544 C541 0.929 . S
S545 N546 1.613 . S
S545 N547 1.610 . S
N546 S545 1.613 . S
N546 C549 1.350 . S
N547 S545 1.610 . S
N547 C548 1.351 . S
C548 C542 1.428 . S
C548 N547 1.351 . S
C548 C549 1.434 . S
C549 C540 1.429 . S
C549 N546 1.350 . S
C549 C548 1.434 . S
C550 C551 1.369 . S
C550 C552 1.419 . S
C550 H554 0.930 . S
C551 C550 1.369 . S
C551 C560 1.429 . S
C552 C550 1.419 . S
C552 C553 1.363 . S
C552 H555 0.929 . S
C553 C552 1.363 . S
C553 C559 1.428 . S
H554 C550 0.930 . S
H555 C552 0.929 . S
S556 N557 1.613 . S
S556 N558 1.610 . S
N557 S556 1.613 . S
N557 C560 1.350 . S
N558 S556 1.610 . S
N558 C559 1.351 . S
C559 C553 1.428 . S
C559 N558 1.351 . S
C559 C560 1.434 . S
C560 C551 1.429 . S
C560 N557 1.350 . S
C560 C559 1.434 . S
C561 C562 1.369 . S
C561 C563 1.419 . S
C561 H565 0.930 . S
C562 C561 1.369 . S
C562 C571 1.429 . S
C563 C561 1.419 . S
C563 C564 1.363 . S
C563 H566 0.929 . S
C564 C563 1.363 . S
C564 C570 1.428 . S
H565 C561 0.930 . S
H566 C563 0.929 . S
S567 N568 1.613 . S
S567 N569 1.610 . S
N568 S567 1.613 . S
N568 C571 1.350 . S
N569 S567 1.610 . S
N569 C570 1.351 . S
C570 C564 1.428 . S
C570 N569 1.351 . S
C570 C571 1.434 . S
C571 C562 1.429 . S
C571 N568 1.350 . S
C571 C570 1.434 . S
C572 C573 1.369 . S
C572 C574 1.419 . S
C572 H576 0.930 . S
C573 C572 1.369 . S
C573 C582 1.429 . S
C574 C572 1.419 . S
C574 C575 1.363 . S
C574 H577 0.929 . S
C575 C574 1.363 . S
C575 C581 1.428 . S
H576 C572 0.930 . S
H577 C574 0.929 . S
S578 N579 1.613 . S
S578 N580 1.610 . S
N579 S578 1.613 . S
N579 C582 1.350 . S
N580 S578 1.610 . S
N580 C581 1.351 . S
C581 C575 1.428 . S
C581 N580 1.351 . S
C581 C582 1.434 . S
C582 C573 1.429 . S
C582 N579 1.350 . S
C582 C581 1.434 . S
C583 C584 1.369 . S
C583 C585 1.419 . S
C583 H587 0.930 . S
C584 C583 1.369 . S
C584 C593 1.429 . S
C585 C583 1.419 . S
C585 C586 1.363 . S
C585 H588 0.929 . S
C586 C585 1.363 . S
C586 C592 1.428 . S
H587 C583 0.930 . S
H588 C585 0.929 . S
S589 N590 1.613 . S
S589 N591 1.610 . S
N590 S589 1.613 . S
N590 C593 1.350 . S
N591 S589 1.610 . S
N591 C592 1.351 . S
C592 C586 1.428 . S
C592 N591 1.351 . S
C592 C593 1.434 . S
C593 C584 1.429 . S
C593 N590 1.350 . S
C593 C592 1.434 . S
C594 C595 1.369 . S
C594 C596 1.419 . S
C594 H598 0.930 . S
C595 C594 1.369 . S
C595 C604 1.429 . S
C596 C594 1.419 . S
C596 C597 1.363 . S
C596 H599 0.929 . S
C597 C596 1.363 . S
C597 C603 1.428 . S
H598 C594 0.930 . S
H599 C596 0.929 . S
S600 N601 1.613 . S
S600 N602 1.610 . S
N601 S600 1.613 . S
N601 C604 1.350 . S
N602 S600 1.610 . S
N602 C603 1.351 . S
C603 C597 1.428 . S
C603 N602 1.351 . S
C603 C604 1.434 . S
C604 C595 1.429 . S
C604 N601 1.350 . S
C604 C603 1.434 . S
C605 C606 1.369 . S
C605 C607 1.419 . S
C605 H609 0.930 . S
C606 C605 1.369 . S
C606 C615 1.429 . S
C607 C605 1.419 . S
C607 C608 1.363 . S
C607 H610 0.929 . S
C608 C607 1.363 . S
C608 C614 1.428 . S
H609 C605 0.930 . S
H610 C607 0.929 . S
S611 N612 1.613 . S
S611 N613 1.610 . S
N612 S611 1.613 . S
N612 C615 1.350 . S
N613 S611 1.610 . S
N613 C614 1.351 . S
C614 C608 1.428 . S
C614 N613 1.351 . S
C614 C615 1.434 . S
C615 C606 1.429 . S
C615 N612 1.350 . S
C615 C614 1.434 . S
C616 C617 1.369 . S
C616 C618 1.419 . S
C616 H620 0.930 . S
C617 C616 1.369 . S
C617 C626 1.429 . S
C618 C616 1.419 . S
C618 C619 1.363 . S
C618 H621 0.929 . S
C619 C618 1.363 . S
C619 C625 1.428 . S
H620 C616 0.930 . S
H621 C618 0.929 . S
S622 N623 1.613 . S
S622 N624 1.610 . S
N623 S622 1.613 . S
N623 C626 1.350 . S
N624 S622 1.610 . S
N624 C625 1.351 . S
C625 C619 1.428 . S
C625 N624 1.351 . S
C625 C626 1.434 . S
C626 C617 1.429 . S
C626 N623 1.350 . S
C626 C625 1.434 . S
C627 C628 1.369 . S
C627 C629 1.419 . S
C627 H631 0.930 . S
C628 C627 1.369 . S
C628 C637 1.429 . S
C629 C627 1.419 . S
C629 C630 1.363 . S
C629 H632 0.929 . S
C630 C629 1.363 . S
C630 C636 1.428 . S
H631 C627 0.930 . S
H632 C629 0.929 . S
S633 N634 1.613 . S
S633 N635 1.610 . S
N634 S633 1.613 . S
N634 C637 1.350 . S
N635 S633 1.610 . S
N635 C636 1.351 . S
C636 C630 1.428 . S
C636 N635 1.351 . S
C636 C637 1.434 . S
C637 C628 1.429 . S
C637 N634 1.350 . S
C637 C636 1.434 . S
C638 C639 1.369 . S
C638 C640 1.419 . S
C638 H642 0.930 . S
C639 C638 1.369 . S
C639 C648 1.429 . S
C640 C638 1.419 . S
C640 C641 1.363 . S
C640 H643 0.929 . S
C641 C640 1.363 . S
C641 C647 1.428 . S
H642 C638 0.930 . S
H643 C640 0.929 . S
S644 N645 1.613 . S
S644 N646 1.610 . S
N645 S644 1.613 . S
N645 C648 1.350 . S
N646 S644 1.610 . S
N646 C647 1.351 . S
C647 C641 1.428 . S
C647 N646 1.351 . S
C647 C648 1.434 . S
C648 C639 1.429 . S
C648 N645 1.350 . S
C648 C647 1.434 . S
C649 C650 1.369 . S
C649 C651 1.419 . S
C649 H653 0.930 . S
C650 C649 1.369 . S
C650 C659 1.429 . S
C651 C649 1.419 . S
C651 C652 1.363 . S
C651 H654 0.929 . S
C652 C651 1.363 . S
C652 C658 1.428 . S
H653 C649 0.930 . S
H654 C651 0.929 . S
S655 N656 1.613 . S
S655 N657 1.610 . S
N656 S655 1.613 . S
N656 C659 1.350 . S
N657 S655 1.610 . S
N657 C658 1.351 . S
C658 C652 1.428 . S
C658 N657 1.351 . S
C658 C659 1.434 . S
C659 C650 1.429 . S
C659 N656 1.350 . S
C659 C658 1.434 . S
C660 C661 1.369 . S
C660 C662 1.419 . S
C660 H664 0.930 . S
C661 C660 1.369 . S
C661 C670 1.429 . S
C662 C660 1.419 . S
C662 C663 1.363 . S
C662 H665 0.929 . S
C663 C662 1.363 . S
C663 C669 1.428 . S
H664 C660 0.930 . S
H665 C662 0.929 . S
S666 N667 1.613 . S
S666 N668 1.610 . S
N667 S666 1.613 . S
N667 C670 1.350 . S
N668 S666 1.610 . S
N668 C669 1.351 . S
C669 C663 1.428 . S
C669 N668 1.351 . S
C669 C670 1.434 . S
C670 C661 1.429 . S
C670 N667 1.350 . S
C670 C669 1.434 . S
C671 C672 1.369 . S
C671 C673 1.419 . S
C671 H675 0.930 . S
C672 C671 1.369 . S
C672 C681 1.429 . S
C673 C671 1.419 . S
C673 C674 1.363 . S
C673 H676 0.929 . S
C674 C673 1.363 . S
C674 C680 1.428 . S
H675 C671 0.930 . S
H676 C673 0.929 . S
S677 N678 1.613 . S
S677 N679 1.610 . S
N678 S677 1.613 . S
N678 C681 1.350 . S
N679 S677 1.610 . S
N679 C680 1.351 . S
C680 C674 1.428 . S
C680 N679 1.351 . S
C680 C681 1.434 . S
C681 C672 1.429 . S
C681 N678 1.350 . S
C681 C680 1.434 . S
C682 C683 1.369 . S
C682 C684 1.419 . S
C682 H686 0.930 . S
C683 C682 1.369 . S
C683 C692 1.429 . S
C684 C682 1.419 . S
C684 C685 1.363 . S
C684 H687 0.929 . S
C685 C684 1.363 . S
C685 C691 1.428 . S
H686 C682 0.930 . S
H687 C684 0.929 . S
S688 N689 1.613 . S
S688 N690 1.610 . S
N689 S688 1.613 . S
N689 C692 1.350 . S
N690 S688 1.610 . S
N690 C691 1.351 . S
C691 C685 1.428 . S
C691 N690 1.351 . S
C691 C692 1.434 . S
C692 C683 1.429 . S
C692 N689 1.350 . S
C692 C691 1.434 . S
C693 C694 1.369 . S
C693 C695 1.419 . S
C693 H697 0.930 . S
C694 C693 1.369 . S
C694 C703 1.429 . S
C695 C693 1.419 . S
C695 C696 1.363 . S
C695 H698 0.929 . S
C696 C695 1.363 . S
C696 C702 1.428 . S
H697 C693 0.930 . S
H698 C695 0.929 . S
S699 N700 1.613 . S
S699 N701 1.610 . S
N700 S699 1.613 . S
N700 C703 1.350 . S
N701 S699 1.610 . S
N701 C702 1.351 . S
C702 C696 1.428 . S
C702 N701 1.351 . S
C702 C703 1.434 . S
C703 C694 1.429 . S
C703 N700 1.350 . S
C703 C702 1.434 . S
C704 C705 1.369 . S
C704 C706 1.419 1_656 S
C704 H708 0.930 . S
C705 C704 1.369 . S
C705 C714 1.429 . S
C706 C704 1.419 1_454 S
C706 C707 1.363 . S
C706 H709 0.929 . S
C707 C706 1.363 . S
C707 C713 1.428 . S
H708 C704 0.930 . S
H709 C706 0.929 . S
S710 N711 1.613 1_454 S
S710 N712 1.610 . S
N711 S710 1.613 1_656 S
N711 C714 1.350 . S
N712 S710 1.610 . S
N712 C713 1.351 . S
C713 C707 1.428 . S
C713 N712 1.351 . S
C713 C714 1.434 1_454 S
C714 C705 1.429 . S
C714 N711 1.350 . S
C714 C713 1.434 1_656 S
C715 C716 1.369 1_545 S
C715 C717 1.419 . S
C715 H719 0.930 . S
C716 C715 1.369 1_565 S
C716 C725 1.429 1_456 S
C717 C715 1.419 . S
C717 C718 1.363 1_456 S
C717 H720 0.929 . S
C718 C717 1.363 1_654 S
C718 C724 1.428 1_545 S
H719 C715 0.930 . S
H720 C717 0.929 . S
S721 N722 1.613 . S
S721 N723 1.610 . S
N722 S721 1.613 . S
N722 C725 1.350 . S
N723 S721 1.610 . S
N723 C724 1.351 . S
C724 C718 1.428 1_565 S
C724 N723 1.351 . S
C724 C725 1.434 . S
C725 C716 1.429 1_654 S
C725 N722 1.350 . S
C725 C724 1.434 . S
C726 C727 1.369 1_554 S
C726 C728 1.419 1_545 S
C726 H730 0.930 . S
C727 C726 1.369 1_556 S
C727 C736 1.429 . S
C728 C726 1.419 1_565 S
C728 C729 1.363 . S
C728 H731 0.929 . S
C729 C728 1.363 . S
C729 C735 1.428 1_554 S
H730 C726 0.930 . S
H731 C728 0.929 . S
S732 N733 1.613 1_565 S
S732 N734 1.610 . S
N733 S732 1.613 1_545 S
N733 C736 1.350 . S
N734 S732 1.610 . S
N734 C735 1.351 . S
C735 C729 1.428 1_556 S
C735 N734 1.351 . S
C735 C736 1.434 1_565 S
C736 C727 1.429 . S
C736 N733 1.350 . S
C736 C735 1.434 1_545 S
C737 C738 1.369 . S
C737 C739 1.419 1_554 S
C737 H741 0.930 . S
C738 C737 1.369 . S
C738 C747 1.429 . S
C739 C737 1.419 1_556 S
C739 C740 1.363 . S
C739 H742 0.929 . S
C740 C739 1.363 . S
C740 C746 1.428 . S
H741 C737 0.930 . S
H742 C739 0.929 . S
S743 N744 1.613 1_556 S
S743 N745 1.611 . S
N744 S743 1.613 1_554 S
N744 C747 1.350 . S
N745 S743 1.611 . S
N745 C746 1.351 . S
C746 C740 1.428 . S
C746 N745 1.351 . S
C746 C747 1.434 1_556 S
C747 C738 1.429 . S
C747 N744 1.350 . S
C747 C746 1.434 1_554 S
C748 C749 1.369 1_455 S
C748 C750 1.419 1_545 S
C748 H752 0.930 . S
C749 C748 1.369 1_655 S
C749 C758 1.429 . S
C750 C748 1.419 1_565 S
C750 C751 1.363 . S
C750 H753 0.929 . S
C751 C750 1.363 . S
C751 C757 1.428 1_455 S
H752 C748 0.930 . S
H753 C750 0.929 . S
S754 N755 1.613 . S
S754 N756 1.610 1_545 S
N755 S754 1.613 . S
N755 C758 1.350 . S
N756 S754 1.610 1_565 S
N756 C757 1.351 . S
C757 C751 1.428 1_655 S
C757 N756 1.351 . S
C757 C758 1.434 1_565 S
C758 C749 1.429 . S
C758 N755 1.350 . S
C758 C757 1.434 1_545 S
C759 C760 1.369 . S
C759 C761 1.419 . S
C759 H763 0.930 . S
C760 C759 1.369 . S
C760 C769 1.429 1_565 S
C761 C759 1.419 . S
C761 C762 1.363 1_565 S
C761 H764 0.929 . S
C762 C761 1.363 1_545 S
C762 C768 1.428 . S
H763 C759 0.930 . S
H764 C761 0.929 . S
S765 N766 1.613 . S
S765 N767 1.610 . S
N766 S765 1.613 . S
N766 C769 1.350 . S
N767 S765 1.610 . S
N767 C768 1.351 . S
C768 C762 1.428 . S
C768 N767 1.351 . S
C768 C769 1.434 . S
C769 C760 1.429 1_545 S
C769 N766 1.350 . S
C769 C768 1.434 . S
C770 C771 1.369 . S
C770 C772 1.419 . S
C770 H774 0.930 . S
C771 C770 1.369 . S
C771 C780 1.429 . S
C772 C770 1.419 . S
C772 C773 1.363 . S
C772 H775 0.929 . S
C773 C772 1.363 . S
C773 C779 1.428 . S
H774 C770 0.930 . S
H775 C772 0.929 . S
S776 N777 1.613 . S
S776 N778 1.610 . S
N777 S776 1.613 . S
N777 C780 1.350 . S
N778 S776 1.610 . S
N778 C779 1.351 . S
C779 C773 1.428 . S
C779 N778 1.351 . S
C779 C780 1.434 . S
C780 C771 1.429 . S
C780 N777 1.350 . S
C780 C779 1.434 . S
C781 C782 1.369 1_655 S
C781 C783 1.419 . S
C781 H785 0.930 . S
C782 C781 1.369 1_455 S
C782 C791 1.429 . S
C783 C781 1.419 . S
C783 C784 1.363 . S
C783 H786 0.929 . S
C784 C783 1.363 . S
C784 C790 1.428 1_655 S
H785 C781 0.930 . S
H786 C783 0.929 . S
S787 N788 1.613 . S
S787 N789 1.610 . S
N788 S787 1.613 . S
N788 C791 1.350 . S
N789 S787 1.610 . S
N789 C790 1.351 . S
C790 C784 1.428 1_455 S
C790 N789 1.351 . S
C790 C791 1.434 . S
C791 C782 1.429 . S
C791 N788 1.350 . S
C791 C790 1.434 . S
C792 C793 1.369 . S
C792 C794 1.419 . S
C792 H796 0.930 . S
C793 C792 1.369 . S
C793 C802 1.429 . S
C794 C792 1.419 . S
C794 C795 1.363 . S
C794 H797 0.929 1_655 S
C795 C794 1.363 . S
C795 C801 1.428 . S
H796 C792 0.930 . S
H797 C794 0.929 1_455 S
S798 N799 1.613 . S
S798 N800 1.610 . S
N799 S798 1.613 . S
N799 C802 1.350 . S
N800 S798 1.610 . S
N800 C801 1.351 . S
C801 C795 1.428 . S
C801 N800 1.351 . S
C801 C802 1.434 . S
C802 C793 1.429 . S
C802 N799 1.350 . S
C802 C801 1.434 . S
C803 C804 1.369 . S
C803 C805 1.419 1_565 S
C803 H807 0.930 1_565 S
C804 C803 1.369 . S
C804 C813 1.429 1_655 S
C805 C803 1.419 1_545 S
C805 C806 1.363 1_545 S
C805 H808 0.929 . S
C806 C805 1.363 1_565 S
C806 C812 1.428 . S
H807 C803 0.930 1_545 S
H808 C805 0.929 . S
S809 N810 1.613 . S
S809 N811 1.610 . S
N810 S809 1.613 . S
N810 C813 1.350 . S
N811 S809 1.610 . S
N811 C812 1.351 1_455 S
C812 C806 1.428 . S
C812 N811 1.351 1_655 S
C812 C813 1.434 1_655 S
C813 C804 1.429 1_455 S
C813 N810 1.350 . S
C813 C812 1.434 1_455 S
C814 C815 1.369 1_545 S
C814 C816 1.419 . S
C814 H818 0.930 . S
C815 C814 1.369 1_565 S
C815 C824 1.429 . S
C816 C814 1.419 . S
C816 C817 1.363 1_545 S
C816 H819 0.929 . S
C817 C816 1.363 1_565 S
C817 C823 1.428 . S
H818 C814 0.930 . S
H819 C816 0.929 . S
S820 N821 1.613 . S
S820 N822 1.610 . S
N821 S820 1.613 . S
N821 C824 1.350 . S
N822 S820 1.610 . S
N822 C823 1.351 . S
C823 C817 1.428 . S
C823 N822 1.351 . S
C823 C824 1.434 . S
C824 C815 1.429 . S
C824 N821 1.350 . S
C824 C823 1.434 . S
C825 C826 1.369 . S
C825 C827 1.419 . S
C825 H829 0.930 . S
C826 C825 1.369 . S
C826 C835 1.429 . S
C827 C825 1.419 . S
C827 C828 1.363 . S
C827 H830 0.929 . S
C828 C827 1.363 . S
C828 C834 1.428 . S
H829 C825 0.930 . S
H830 C827 0.929 . S
S831 N832 1.613 . S
S831 N833 1.610 . S
N832 S831 1.613 . S
N832 C835 1.350 . S
N833 S831 1.610 . S
N833 C834 1.351 . S
C834 C828 1.428 . S
C834 N833 1.351 . S
C834 C835 1.434 . S
C835 C826 1.429 . S
C835 N832 1.350 . S
C835 C834 1.434 . S
C836 C837 1.369 . S
C836 C838 1.419 . S
C836 H840 0.930 . S
C837 C836 1.369 . S
C837 C846 1.429 . S
C838 C836 1.419 . S
C838 C839 1.363 . S
C838 H841 0.929 1_455 S
C839 C838 1.363 . S
C839 C845 1.428 . S
H840 C836 0.930 . S
H841 C838 0.929 1_655 S
S842 N843 1.613 . S
S842 N844 1.610 . S
N843 S842 1.613 . S
N843 C846 1.350 . S
N844 S842 1.610 . S
N844 C845 1.351 . S
C845 C839 1.428 . S
C845 N844 1.351 . S
C845 C846 1.434 . S
C846 C837 1.429 . S
C846 N843 1.350 . S
C846 C845 1.434 . S
C847 C848 1.369 1_655 S
C847 C849 1.419 . S
C847 H851 0.930 . S
C848 C847 1.369 1_455 S
C848 C857 1.429 . S
C849 C847 1.419 . S
C849 C850 1.363 1_655 S
C849 H852 0.929 . S
C850 C849 1.363 1_455 S
C850 C856 1.428 1_545 S
H851 C847 0.930 . S
H852 C849 0.929 . S
S853 N854 1.613 . S
S853 N855 1.610 . S
N854 S853 1.613 . S
N854 C857 1.350 1_565 S
N855 S853 1.610 . S
N855 C856 1.351 . S
C856 C850 1.428 1_565 S
C856 N855 1.351 . S
C856 C857 1.434 1_565 S
C857 C848 1.429 . S
C857 N854 1.350 1_545 S
C857 C856 1.434 1_545 S
C858 C859 1.369 1_565 S
C858 C860 1.419 . S
C858 H862 0.930 . S
C859 C858 1.369 1_545 S
C859 C868 1.429 . S
C860 C858 1.419 . S
C860 C861 1.363 1_565 S
C860 H863 0.929 . S
C861 C860 1.363 1_545 S
C861 C867 1.428 . S
H862 C858 0.930 . S
H863 C860 0.929 . S
S864 N865 1.613 . S
S864 N866 1.610 . S
N865 S864 1.613 . S
N865 C868 1.350 . S
N866 S864 1.610 . S
N866 C867 1.351 . S
C867 C861 1.428 . S
C867 N866 1.351 . S
C867 C868 1.434 . S
C868 C859 1.429 . S
C868 N865 1.350 . S
C868 C867 1.434 . S
C869 C870 1.369 . S
C869 C871 1.419 . S
C869 H873 0.930 . S
C870 C869 1.369 . S
C870 C879 1.429 . S
C871 C869 1.419 . S
C871 C872 1.363 . S
C871 H874 0.929 . S
C872 C871 1.363 . S
C872 C878 1.428 . S
H873 C869 0.930 . S
H874 C871 0.929 . S
S875 N876 1.613 . S
S875 N877 1.610 . S
N876 S875 1.613 . S
N876 C879 1.350 . S
N877 S875 1.610 . S
N877 C878 1.351 . S
C878 C872 1.428 . S
C878 N877 1.351 . S
C878 C879 1.434 . S
C879 C870 1.429 . S
C879 N876 1.350 . S
C879 C878 1.434 . S
C353 C70 1.349 . S
C355 C8 1.407 . S
C364 C4 1.351 . S
C366 C30 1.401 . S
C375 C52 1.407 . S
C377 C26 1.352 . S
C386 C48 1.348 . S
C388 C74 1.407 . S
C397 C92 1.402 . S
C399 C114 1.355 . S
C408 C118 1.406 . S
C410 C140 1.354 . S
C419 C136 1.400 . S
C421 C162 1.351 . S
C430 C96 1.352 . S
C432 C158 1.407 . S
C441 C184 1.401 . S
C443 C246 1.355 . S
C452 C180 1.356 . S
C454 C202 1.404 . S
C463 C206 1.357 . S
C465 C228 1.402 . S
C474 C224 1.354 . S
C476 C250 1.401 . S
C485 C268 1.404 . S
C487 C294 1.355 . S
C496 C316 1.347 . S
C498 C290 1.402 . S
C507 C338 1.350 . S
C509 C312 1.401 . S
C518 C334 1.407 . S
C520 C272 1.346 . S
C529 C6 0.829 . S
C531 C95 0.834 . S
C540 C116 0.833 . S
C542 C28 0.842 . S
C551 C50 0.834 . S
C553 C139 0.842 . S
C562 C72 0.832 . S
C564 C161 0.831 . S
C573 C273 0.845 . S
C575 C181 0.840 . S
C584 C295 0.835 . S
C586 C207 0.842 . S
C595 C225 0.842 . S
C597 C317 0.834 . S
C606 C339 0.845 . S
C608 C247 0.840 . S
C617 C5 1.951 . S
C619 C49 1.954 . S
C628 C27 1.951 . S
C630 C71 1.953 . S
C639 C141 1.952 . S
C641 C97 1.954 . S
C650 C163 1.950 . S
C652 C115 1.953 . S
C661 C226 1.953 . S
C663 C182 1.951 . S
C672 C248 1.952 . S
C674 C205 1.951 . S
C683 C271 1.951 . S
C685 C315 1.954 . S
C694 C293 1.954 . S
C696 C337 1.953 . S
C705 C185 1.838 . S
C707 C7 1.847 . S
C716 C203 1.849 . S
C718 C29 1.838 . S
C727 C229 1.839 . S
C729 C51 1.845 . S
C738 C73 1.849 . S
C740 C251 1.838 . S
C749 C269 1.847 . S
C751 C94 1.840 . S
C760 C291 1.838 . S
C762 C117 1.846 . S
C771 C313 1.845 . S
C773 C138 1.841 . S
C782 C335 1.845 . S
C784 C160 1.842 . S
C793 C159 1.348 . S
C795 C9 1.355 1_655 S
C804 C93 1.346 1_655 S
C806 C31 1.355 1_565 S
C815 C119 1.352 1_565 S
C817 C53 1.345 . S
C826 C137 1.357 . S
C828 C75 1.348 . S
C837 C336 1.353 . S
C839 C183 1.345 1_455 S
C848 C270 1.356 1_455 S
C850 C204 1.346 1_545 S
C859 C292 1.356 1_545 S
C861 C227 1.345 . S
C870 C249 1.350 . S
C872 C314 1.354 . S
