# Generated by pormake.
# Topology ukj, (4)-cn, num edge types: 1
# Building blocks:
#     Node 0, Type 0, BuildingBlock: CEKHIL_clean_sbu_0, # of connection points: 4
#     Node 1, Type 0, BuildingBlock: CEKHIL_clean_sbu_0, # of connection points: 4
#     Node 2, Type 0, BuildingBlock: CEKHIL_clean_sbu_0, # of connection points: 4
#     Node 3, Type 0, BuildingBlock: CEKHIL_clean_sbu_0, # of connection points: 4
#     Node 4, Type 0, BuildingBlock: CEKHIL_clean_sbu_0, # of connection points: 4
#     Node 5, Type 0, BuildingBlock: CEKHIL_clean_sbu_0, # of connection points: 4
#     Node 6, Type 0, BuildingBlock: CEKHIL_clean_sbu_0, # of connection points: 4
#     Node 7, Type 0, BuildingBlock: CEKHIL_clean_sbu_0, # of connection points: 4
#     Node 8, Type 0, BuildingBlock: CEKHIL_clean_sbu_0, # of connection points: 4
#     Node 9, Type 0, BuildingBlock: CEKHIL_clean_sbu_0, # of connection points: 4
#     Node 10, Type 0, BuildingBlock: CEKHIL_clean_sbu_0, # of connection points: 4
#     Node 11, Type 0, BuildingBlock: CEKHIL_clean_sbu_0, # of connection points: 4
#     Node 12, Type 0, BuildingBlock: CEKHIL_clean_sbu_0, # of connection points: 4
#     Node 13, Type 0, BuildingBlock: CEKHIL_clean_sbu_0, # of connection points: 4
#     Node 14, Type 0, BuildingBlock: CEKHIL_clean_sbu_0, # of connection points: 4
#     Node 15, Type 0, BuildingBlock: CEKHIL_clean_sbu_0, # of connection points: 4
#     Node 16, Type 0, BuildingBlock: CEKHIL_clean_sbu_0, # of connection points: 4
#     Node 17, Type 0, BuildingBlock: CEKHIL_clean_sbu_0, # of connection points: 4
#     Node 18, Type 0, BuildingBlock: CEKHIL_clean_sbu_0, # of connection points: 4
#     Node 19, Type 0, BuildingBlock: CEKHIL_clean_sbu_0, # of connection points: 4
#     Node 20, Type 0, BuildingBlock: CEKHIL_clean_sbu_0, # of connection points: 4
#     Node 21, Type 0, BuildingBlock: CEKHIL_clean_sbu_0, # of connection points: 4
#     Node 22, Type 0, BuildingBlock: CEKHIL_clean_sbu_0, # of connection points: 4
#     Node 23, Type 0, BuildingBlock: CEKHIL_clean_sbu_0, # of connection points: 4
#     Node 24, Type 0, BuildingBlock: CEKHIL_clean_sbu_0, # of connection points: 4
#     Node 25, Type 0, BuildingBlock: CEKHIL_clean_sbu_0, # of connection points: 4
#     Node 26, Type 0, BuildingBlock: CEKHIL_clean_sbu_0, # of connection points: 4
#     Node 27, Type 0, BuildingBlock: CEKHIL_clean_sbu_0, # of connection points: 4
#     Node 28, Type 0, BuildingBlock: CEKHIL_clean_sbu_0, # of connection points: 4
#     Node 29, Type 0, BuildingBlock: CEKHIL_clean_sbu_0, # of connection points: 4
#     Node 30, Type 0, BuildingBlock: CEKHIL_clean_sbu_0, # of connection points: 4
#     Node 31, Type 0, BuildingBlock: CEKHIL_clean_sbu_0, # of connection points: 4
#     Edge 32, Type (0, 0), BuildingBlock: TEMPAE_clean_linker_10, # of connection points: 2
#     Edge 33, Type (0, 0), BuildingBlock: TEMPAE_clean_linker_10, # of connection points: 2
#     Edge 34, Type (0, 0), BuildingBlock: TEMPAE_clean_linker_10, # of connection points: 2
#     Edge 35, Type (0, 0), BuildingBlock: TEMPAE_clean_linker_10, # of connection points: 2
#     Edge 36, Type (0, 0), BuildingBlock: TEMPAE_clean_linker_10, # of connection points: 2
#     Edge 37, Type (0, 0), BuildingBlock: TEMPAE_clean_linker_10, # of connection points: 2
#     Edge 38, Type (0, 0), BuildingBlock: TEMPAE_clean_linker_10, # of connection points: 2
#     Edge 39, Type (0, 0), BuildingBlock: TEMPAE_clean_linker_10, # of connection points: 2
#     Edge 40, Type (0, 0), BuildingBlock: TEMPAE_clean_linker_10, # of connection points: 2
#     Edge 41, Type (0, 0), BuildingBlock: TEMPAE_clean_linker_10, # of connection points: 2
#     Edge 42, Type (0, 0), BuildingBlock: TEMPAE_clean_linker_10, # of connection points: 2
#     Edge 43, Type (0, 0), BuildingBlock: TEMPAE_clean_linker_10, # of connection points: 2
#     Edge 44, Type (0, 0), BuildingBlock: TEMPAE_clean_linker_10, # of connection points: 2
#     Edge 45, Type (0, 0), BuildingBlock: TEMPAE_clean_linker_10, # of connection points: 2
#     Edge 46, Type (0, 0), BuildingBlock: TEMPAE_clean_linker_10, # of connection points: 2
#     Edge 47, Type (0, 0), BuildingBlock: TEMPAE_clean_linker_10, # of connection points: 2
#     Edge 48, Type (0, 0), BuildingBlock: TEMPAE_clean_linker_10, # of connection points: 2
#     Edge 49, Type (0, 0), BuildingBlock: TEMPAE_clean_linker_10, # of connection points: 2
#     Edge 50, Type (0, 0), BuildingBlock: TEMPAE_clean_linker_10, # of connection points: 2
#     Edge 51, Type (0, 0), BuildingBlock: TEMPAE_clean_linker_10, # of connection points: 2
#     Edge 52, Type (0, 0), BuildingBlock: TEMPAE_clean_linker_10, # of connection points: 2
#     Edge 53, Type (0, 0), BuildingBlock: TEMPAE_clean_linker_10, # of connection points: 2
#     Edge 54, Type (0, 0), BuildingBlock: TEMPAE_clean_linker_10, # of connection points: 2
#     Edge 55, Type (0, 0), BuildingBlock: TEMPAE_clean_linker_10, # of connection points: 2
#     Edge 56, Type (0, 0), BuildingBlock: TEMPAE_clean_linker_10, # of connection points: 2
#     Edge 57, Type (0, 0), BuildingBlock: TEMPAE_clean_linker_10, # of connection points: 2
#     Edge 58, Type (0, 0), BuildingBlock: TEMPAE_clean_linker_10, # of connection points: 2
#     Edge 59, Type (0, 0), BuildingBlock: TEMPAE_clean_linker_10, # of connection points: 2
#     Edge 60, Type (0, 0), BuildingBlock: TEMPAE_clean_linker_10, # of connection points: 2
#     Edge 61, Type (0, 0), BuildingBlock: TEMPAE_clean_linker_10, # of connection points: 2
#     Edge 62, Type (0, 0), BuildingBlock: TEMPAE_clean_linker_10, # of connection points: 2
#     Edge 63, Type (0, 0), BuildingBlock: TEMPAE_clean_linker_10, # of connection points: 2
#     Edge 64, Type (0, 0), BuildingBlock: TEMPAE_clean_linker_10, # of connection points: 2
#     Edge 65, Type (0, 0), BuildingBlock: TEMPAE_clean_linker_10, # of connection points: 2
#     Edge 66, Type (0, 0), BuildingBlock: TEMPAE_clean_linker_10, # of connection points: 2
#     Edge 67, Type (0, 0), BuildingBlock: TEMPAE_clean_linker_10, # of connection points: 2
#     Edge 68, Type (0, 0), BuildingBlock: TEMPAE_clean_linker_10, # of connection points: 2
#     Edge 69, Type (0, 0), BuildingBlock: TEMPAE_clean_linker_10, # of connection points: 2
#     Edge 70, Type (0, 0), BuildingBlock: TEMPAE_clean_linker_10, # of connection points: 2
#     Edge 71, Type (0, 0), BuildingBlock: TEMPAE_clean_linker_10, # of connection points: 2
#     Edge 72, Type (0, 0), BuildingBlock: TEMPAE_clean_linker_10, # of connection points: 2
#     Edge 73, Type (0, 0), BuildingBlock: TEMPAE_clean_linker_10, # of connection points: 2
#     Edge 74, Type (0, 0), BuildingBlock: TEMPAE_clean_linker_10, # of connection points: 2
#     Edge 75, Type (0, 0), BuildingBlock: TEMPAE_clean_linker_10, # of connection points: 2
#     Edge 76, Type (0, 0), BuildingBlock: TEMPAE_clean_linker_10, # of connection points: 2
#     Edge 77, Type (0, 0), BuildingBlock: TEMPAE_clean_linker_10, # of connection points: 2
#     Edge 78, Type (0, 0), BuildingBlock: TEMPAE_clean_linker_10, # of connection points: 2
#     Edge 79, Type (0, 0), BuildingBlock: TEMPAE_clean_linker_10, # of connection points: 2
#     Edge 80, Type (0, 0), BuildingBlock: TEMPAE_clean_linker_10, # of connection points: 2
#     Edge 81, Type (0, 0), BuildingBlock: TEMPAE_clean_linker_10, # of connection points: 2
#     Edge 82, Type (0, 0), BuildingBlock: TEMPAE_clean_linker_10, # of connection points: 2
#     Edge 83, Type (0, 0), BuildingBlock: TEMPAE_clean_linker_10, # of connection points: 2
#     Edge 84, Type (0, 0), BuildingBlock: TEMPAE_clean_linker_10, # of connection points: 2
#     Edge 85, Type (0, 0), BuildingBlock: TEMPAE_clean_linker_10, # of connection points: 2
#     Edge 86, Type (0, 0), BuildingBlock: TEMPAE_clean_linker_10, # of connection points: 2
#     Edge 87, Type (0, 0), BuildingBlock: TEMPAE_clean_linker_10, # of connection points: 2
#     Edge 88, Type (0, 0), BuildingBlock: TEMPAE_clean_linker_10, # of connection points: 2
#     Edge 89, Type (0, 0), BuildingBlock: TEMPAE_clean_linker_10, # of connection points: 2
#     Edge 90, Type (0, 0), BuildingBlock: TEMPAE_clean_linker_10, # of connection points: 2
#     Edge 91, Type (0, 0), BuildingBlock: TEMPAE_clean_linker_10, # of connection points: 2
#     Edge 92, Type (0, 0), BuildingBlock: TEMPAE_clean_linker_10, # of connection points: 2
#     Edge 93, Type (0, 0), BuildingBlock: TEMPAE_clean_linker_10, # of connection points: 2
#     Edge 94, Type (0, 0), BuildingBlock: TEMPAE_clean_linker_10, # of connection points: 2
#     Edge 95, Type (0, 0), BuildingBlock: TEMPAE_clean_linker_10, # of connection points: 2
# Relax obj value: 0.080
# Max RMSD: 0.174
# Mean RMSD: 0.173
data_MOF--net-ukj--node1-CEKHIL_clean_sbu_0--edge1-TEMPAE_clean_linker_10
_symmetry_space_group_name_H-M    P1
_symmetry_Int_Tables_number       1
_symmetry_cell_setting            triclinic
loop_
_symmetry_equiv_pos_as_xyz
'x, y, z'
_cell_length_a     31.399012
_cell_length_b     64.383056
_cell_length_c     56.497613
_cell_angle_alpha  89.988364
_cell_angle_beta   90.002626
_cell_angle_gamma 90.027514
loop_
_atom_site_label
_atom_site_type_symbol
_atom_site_fract_x
_atom_site_fract_y
_atom_site_fract_z
_atom_type_partial_charge
Co0 Co 0.12037 0.33741 0.24265 0.0
O1 O 0.06767 0.32255 0.23975 0.0
O2 O 0.13006 0.31051 0.22778 0.0
C3 C 0.11171 0.34575 0.28089 0.0
O4 O 0.1814 0.34911 0.24386 0.0
Co5 Co 0.11563 0.38464 0.25372 0.0
O6 O 0.17704 0.38099 0.26013 0.0
C7 C 0.10599 0.37028 0.20443 0.0
C8 C 0.08939 0.3074 0.23087 0.0
C9 C 0.19882 0.36572 0.25245 0.0
O10 O 0.11061 0.35132 0.21118 0.0
O11 O 0.10551 0.38575 0.21867 0.0
O12 O 0.1267 0.32778 0.27489 0.0
O13 O 0.09806 0.35725 0.26368 0.0
Co14 Co 0.10883 0.91677 0.24978 0.0
O15 O 0.16184 0.93138 0.24925 0.0
O16 O 0.10026 0.94526 0.23875 0.0
C17 C 0.11738 0.90423 0.2865 0.0
O18 O 0.04795 0.90497 0.24888 0.0
Co19 Co 0.11647 0.86881 0.25283 0.0
O20 O 0.05364 0.87038 0.2549 0.0
C21 C 0.12892 0.8893 0.20703 0.0
C22 C 0.14113 0.94751 0.24215 0.0
C23 C 0.03143 0.88668 0.25144 0.0
O24 O 0.11871 0.90669 0.21661 0.0
O25 O 0.13369 0.87246 0.2188 0.0
O26 O 0.10204 0.92265 0.2831 0.0
O27 O 0.13127 0.89483 0.26778 0.0
Co28 Co 0.14498 0.91421 0.98528 0.0
O29 O 0.09426 0.93055 0.9879 0.0
O30 O 0.15908 0.94234 -0.00454 0.0
C31 C 0.13025 0.90157 0.94924 0.0
O32 O 0.20422 0.90071 0.98365 0.0
Co33 Co 0.13251 0.86641 0.98293 0.0
O34 O 0.19395 0.86689 0.97494 0.0
C35 C 0.12772 0.88745 0.02893 0.0
C36 C 0.11833 0.94598 -0.00626 0.0
C37 C 0.21845 0.88242 0.97833 0.0
O38 O 0.13849 0.90458 0.01888 0.0
O39 O 0.11999 0.87069 0.01751 0.0
O40 O 0.14774 0.91967 0.95169 0.0
O41 O 0.1178 0.89271 0.96862 0.0
Co42 Co 0.13973 0.34419 0.99005 0.0
O43 O 0.19538 0.33247 -0.00639 0.0
O44 O 0.13596 0.31684 0.0048 0.0
C45 C 0.14793 0.3532 0.95206 0.0
O46 O 0.07644 0.35261 0.98795 0.0
Co47 Co 0.13458 0.39144 0.98001 0.0
O48 O 0.0757 0.38425 0.97086 0.0
C49 C 0.14421 0.37699 0.0291 0.0
C50 C 0.17726 0.31619 0.00239 0.0
C51 C 0.05653 0.36806 0.97828 0.0
O52 O 0.1449 0.35813 0.02173 0.0
O53 O 0.14115 0.39274 0.01538 0.0
O54 O 0.137 0.33447 0.9578 0.0
O55 O 0.15836 0.3653 0.96945 0.0
Co56 Co 0.87284 0.64587 0.73814 0.0
O57 O 0.92998 0.65524 0.73312 0.0
O58 O 0.88025 0.6738 0.75095 0.0
C59 C 0.86277 0.63445 0.70116 0.0
O60 O 0.80954 0.64065 0.74491 0.0
Co61 Co 0.85595 0.59856 0.73343 0.0
O62 O 0.79573 0.60717 0.73559 0.0
C63 C 0.88893 0.61497 0.77835 0.0
C64 C 0.91911 0.67259 0.74289 0.0
C65 C 0.78378 0.62521 0.742 0.0
O66 O 0.88902 0.63336 0.76951 0.0
O67 O 0.87841 0.59876 0.76664 0.0
O68 O 0.85752 0.65389 0.70631 0.0
O69 O 0.87862 0.62293 0.71775 0.0
Co70 Co 0.86861 0.09882 0.73997 0.0
O71 O 0.81078 0.08964 0.74047 0.0
O72 O 0.86442 0.07156 0.75512 0.0
C73 C 0.86797 0.10759 0.70167 0.0
O74 O 0.93317 0.10426 0.74081 0.0
Co75 Co 0.8848 0.14545 0.72917 0.0
O76 O 0.94221 0.1347 0.72169 0.0
C77 C 0.86549 0.13245 0.77806 0.0
C78 C 0.82403 0.0725 0.74975 0.0
C79 C 0.95701 0.11804 0.73065 0.0
O80 O 0.86145 0.11352 0.77114 0.0
O81 O 0.87347 0.14759 0.76404 0.0
O82 O 0.8747 0.08855 0.70802 0.0
O83 O 0.85733 0.12033 0.71838 0.0
Co84 Co 0.88904 0.09958 0.99148 0.0
O85 O 0.94723 0.09097 -0.00651 0.0
O86 O 0.89671 0.0726 0.97614 0.0
C87 C 0.88295 0.10805 0.02968 0.0
O88 O 0.82465 0.10435 0.9877 0.0
Co89 Co 0.86912 0.14602 0.00199 0.0
O90 O 0.81142 0.13443 0.00688 0.0
C91 C 0.89591 0.13363 0.95399 0.0
C92 C 0.93624 0.0739 0.98315 0.0
C93 C 0.79887 0.1177 -0.00296 0.0
O94 O 0.90004 0.1147 0.96091 0.0
O95 O 0.88523 0.14855 0.96775 0.0
O96 O 0.87852 0.08895 0.02296 0.0
O97 O 0.89579 0.12102 0.01369 0.0
Co98 Co 0.89226 0.65542 -0.00452 0.0
O99 O 0.83699 0.66783 -0.00722 0.0
O100 O 0.89706 0.68331 0.98232 0.0
C101 C 0.88399 0.64496 0.03293 0.0
O102 O 0.9552 0.64663 -0.0031 0.0
Co103 Co 0.89726 0.60783 0.00386 0.0
O104 O 0.95619 0.61472 0.0133 0.0
C105 C 0.88601 0.62386 0.95533 0.0
C106 C 0.85587 0.68433 0.98507 0.0
C107 C 0.97519 0.63107 0.00622 0.0
O108 O 0.88621 0.64262 0.96315 0.0
O109 O 0.88873 0.60783 0.96866 0.0
O110 O 0.89576 0.66379 0.02824 0.0
O111 O 0.87315 0.63365 0.01496 0.0
Co112 Co 0.13823 0.82844 0.75043 0.0
O113 O 0.08625 0.81354 0.74548 0.0
O114 O 0.15049 0.80061 0.73875 0.0
C115 C 0.1222 0.83978 0.78677 0.0
O116 O 0.19851 0.84021 0.75438 0.0
Co117 Co 0.13144 0.87634 0.75569 0.0
O118 O 0.19119 0.87337 0.76658 0.0
C119 C 0.12849 0.85776 0.70823 0.0
C120 C 0.10934 0.79789 0.73919 0.0
C121 C 0.21412 0.85747 0.76224 0.0
O122 O 0.13574 0.83984 0.71739 0.0
O123 O 0.12216 0.87418 0.72051 0.0
O124 O 0.13766 0.82133 0.78367 0.0
O125 O 0.11216 0.84984 0.76772 0.0
Co126 Co 0.10783 0.41452 0.74852 0.0
O127 O 0.16059 0.42899 0.74465 0.0
O128 O 0.0973 0.44292 0.73786 0.0
C129 C 0.12241 0.4019 0.78444 0.0
O130 O 0.04703 0.40301 0.75159 0.0
Co131 Co 0.11386 0.36653 0.75129 0.0
O132 O 0.05416 0.36942 0.76223 0.0
C133 C 0.11909 0.38688 0.70496 0.0
C134 C 0.1386 0.44508 0.73867 0.0
C135 C 0.03132 0.38551 0.75873 0.0
O136 O 0.11106 0.40433 0.71501 0.0
O137 O 0.12513 0.36998 0.71643 0.0
O138 O 0.1075 0.42053 0.78198 0.0
O139 O 0.13296 0.39241 0.76511 0.0
Co140 Co 0.14399 0.41288 0.48291 0.0
O141 O 0.09286 0.4291 0.48241 0.0
O142 O 0.15615 0.44138 0.49259 0.0
C143 C 0.13501 0.39883 0.447 0.0
O144 O 0.2034 0.39966 0.48468 0.0
Co145 Co 0.13202 0.36501 0.48238 0.0
O146 O 0.19493 0.36508 0.47985 0.0
C147 C 0.11966 0.38772 0.52681 0.0
C148 C 0.11572 0.44475 0.48895 0.0
C149 C 0.21847 0.38105 0.48266 0.0
O150 O 0.1324 0.40442 0.51655 0.0
O151 O 0.11344 0.37061 0.5158 0.0
O152 O 0.15199 0.41707 0.4493 0.0
O153 O 0.11956 0.39071 0.4661 0.0
Co154 Co 0.13036 0.83417 0.48691 0.0
O155 O 0.18282 0.81916 0.48881 0.0
O156 O 0.11961 0.80582 0.4974 0.0
C157 C 0.1409 0.84709 0.45074 0.0
O158 O 0.0698 0.84611 0.48599 0.0
Co159 Co 0.13748 0.88222 0.4845 0.0
O160 O 0.07663 0.87977 0.47554 0.0
C161 C 0.14541 0.86144 0.53049 0.0
C162 C 0.16057 0.80318 0.49502 0.0
C163 C 0.05382 0.86376 0.47963 0.0
O164 O 0.1372 0.84402 0.52039 0.0
O165 O 0.15039 0.87848 0.51914 0.0
O166 O 0.12627 0.82844 0.45351 0.0
O167 O 0.15409 0.85634 0.46975 0.0
Co168 Co 0.86675 0.15047 0.23862 0.0
O169 O 0.92323 0.16085 0.23375 0.0
O170 O 0.8728 0.1782 0.25244 0.0
C171 C 0.85815 0.14042 0.20098 0.0
O172 O 0.80377 0.14397 0.2454 0.0
Co173 Co 0.85062 0.10343 0.23086 0.0
O174 O 0.79093 0.11295 0.22826 0.0
C175 C 0.88397 0.11801 0.27676 0.0
C176 C 0.91136 0.17789 0.24383 0.0
C177 C 0.77812 0.12965 0.238 0.0
O178 O 0.88408 0.13684 0.26917 0.0
O179 O 0.87303 0.10241 0.26409 0.0
O180 O 0.85089 0.15947 0.20715 0.0
O181 O 0.87395 0.12847 0.21717 0.0
Co182 Co 0.8733 0.59478 0.24172 0.0
O183 O 0.81635 0.58411 0.24342 0.0
O184 O 0.87299 0.56762 0.2571 0.0
C185 C 0.87011 0.60317 0.20333 0.0
O186 O 0.93727 0.60182 0.24195 0.0
Co187 Co 0.88483 0.64159 0.22987 0.0
O188 O 0.94397 0.63269 0.22343 0.0
C189 C 0.86756 0.62884 0.27915 0.0
C190 C 0.83211 0.56758 0.25297 0.0
C191 C 0.9601 0.61635 0.23247 0.0
O192 O 0.86579 0.60968 0.27274 0.0
O193 O 0.87338 0.64392 0.26472 0.0
O194 O 0.8791 0.58438 0.20978 0.0
O195 O 0.85899 0.61578 0.22006 0.0
Co196 Co 0.88275 0.59731 0.49041 0.0
O197 O 0.94062 0.5884 0.49346 0.0
O198 O 0.89144 0.57094 0.47389 0.0
C199 C 0.87401 0.60439 0.52889 0.0
O200 O 0.81886 0.60246 0.48502 0.0
Co201 Co 0.86222 0.64328 0.5025 0.0
O202 O 0.80365 0.6321 0.50461 0.0
C203 C 0.89282 0.63255 0.4547 0.0
C204 C 0.93046 0.57188 0.48179 0.0
C205 C 0.79219 0.61573 0.49367 0.0
O206 O 0.89657 0.61344 0.46096 0.0
O207 O 0.88074 0.647 0.46874 0.0
O208 O 0.86947 0.5856 0.52109 0.0
O209 O 0.88805 0.61789 0.5138 0.0
Co210 Co 0.89599 0.15415 0.49231 0.0
O211 O 0.84165 0.16742 0.48941 0.0
O212 O 0.90254 0.18145 0.47778 0.0
C213 C 0.88799 0.14503 0.5302 0.0
O214 O 0.95823 0.14415 0.49369 0.0
Co215 Co 0.89634 0.10674 0.50215 0.0
O216 O 0.95667 0.11216 0.50984 0.0
C217 C 0.88494 0.12167 0.45337 0.0
C218 C 0.86145 0.18319 0.48056 0.0
C219 C 0.97707 0.12805 0.50258 0.0
O220 O 0.88794 0.14053 0.46063 0.0
O221 O 0.88617 0.10587 0.4671 0.0
O222 O 0.90106 0.16348 0.52465 0.0
O223 O 0.87559 0.13342 0.5128 0.0
Co224 Co 0.63104 0.33808 0.74951 0.0
O225 O 0.57466 0.32741 0.74568 0.0
O226 O 0.63302 0.30925 0.73868 0.0
C227 C 0.62065 0.35139 0.78545 0.0
O228 O 0.69448 0.34547 0.75263 0.0
Co229 Co 0.63809 0.38623 0.75269 0.0
O230 O 0.69571 0.37898 0.76447 0.0
C231 C 0.62932 0.36653 0.70616 0.0
C232 C 0.5915 0.30989 0.73974 0.0
C233 C 0.71427 0.3617 0.76052 0.0
O234 O 0.63124 0.34861 0.71608 0.0
O235 O 0.62797 0.38366 0.71764 0.0
O236 O 0.62967 0.3319 0.78294 0.0
O237 O 0.61273 0.36159 0.76621 0.0
Co238 Co 0.60692 0.91465 0.74874 0.0
O239 O 0.66002 0.92905 0.74597 0.0
O240 O 0.59708 0.94323 0.73876 0.0
C241 C 0.61933 0.90127 0.78443 0.0
O242 O 0.54583 0.90345 0.75085 0.0
Co243 Co 0.61129 0.86644 0.75087 0.0
O244 O 0.55188 0.86995 0.76214 0.0
C245 C 0.62018 0.8875 0.70506 0.0
C246 C 0.6383 0.94536 0.74039 0.0
C247 C 0.52962 0.88619 0.75836 0.0
O248 O 0.61151 0.90491 0.71507 0.0
O249 O 0.62527 0.87048 0.71644 0.0
O250 O 0.60525 0.92008 0.78231 0.0
O251 O 0.63058 0.89209 0.76504 0.0
Co252 Co 0.65572 0.9152 0.48391 0.0
O253 O 0.60148 0.92842 0.48161 0.0
O254 O 0.66004 0.94427 0.49378 0.0
C255 C 0.65275 0.90089 0.44797 0.0
O256 O 0.71762 0.9052 0.48672 0.0
Co257 Co 0.65525 0.86695 0.48308 0.0
O258 O 0.71598 0.87167 0.47509 0.0
C259 C 0.63482 0.88866 0.52728 0.0
C260 C 0.6198 0.94541 0.48814 0.0
C261 C 0.73631 0.88826 0.4801 0.0
O262 O 0.64351 0.90607 0.51724 0.0
O263 O 0.63422 0.87127 0.51629 0.0
O264 O 0.66534 0.91992 0.45057 0.0
O265 O 0.63787 0.89191 0.46672 0.0
Co266 Co 0.62102 0.33396 0.48606 0.0
O267 O 0.67774 0.32378 0.48197 0.0
O268 O 0.62474 0.30494 0.49619 0.0
C269 C 0.61571 0.34829 0.45024 0.0
O270 O 0.55767 0.3404 0.49104 0.0
Co271 Co 0.61102 0.38212 0.48554 0.0
O272 O 0.54974 0.37484 0.48416 0.0
C273 C 0.64006 0.36163 0.52889 0.0
C274 C 0.6644 0.30595 0.48934 0.0
C275 C 0.53453 0.35684 0.48832 0.0
O276 O 0.63432 0.34386 0.51899 0.0
O277 O 0.63634 0.37893 0.51795 0.0
O278 O 0.60871 0.32861 0.45309 0.0
O279 O 0.63095 0.35805 0.46836 0.0
Co280 Co 0.36292 0.65461 0.24527 0.0
O281 O 0.41736 0.66787 0.24543 0.0
O282 O 0.35913 0.68195 0.26035 0.0
C283 C 0.36628 0.64639 0.20681 0.0
O284 O 0.30067 0.64444 0.24639 0.0
Co285 Co 0.36215 0.6074 0.23371 0.0
O286 O 0.3008 0.61282 0.22928 0.0
C287 C 0.37867 0.6212 0.28261 0.0
C288 C 0.39922 0.6839 0.25466 0.0
C289 C 0.28105 0.62837 0.23791 0.0
O290 O 0.37538 0.64033 0.27623 0.0
O291 O 0.37601 0.60587 0.26827 0.0
O292 O 0.35318 0.66453 0.21342 0.0
O293 O 0.38071 0.63447 0.22341 0.0
Co294 Co 0.37301 0.10141 0.24585 0.0
O295 O 0.31701 0.09056 0.24154 0.0
O296 O 0.36741 0.07427 0.26142 0.0
C297 C 0.38249 0.10947 0.20764 0.0
O298 O 0.43571 0.10923 0.25209 0.0
Co299 Co 0.3821 0.14858 0.23524 0.0
O300 O 0.44315 0.14141 0.23674 0.0
C301 C 0.35252 0.13532 0.28219 0.0
C302 C 0.3289 0.07408 0.25267 0.0
C303 C 0.4588 0.12512 0.24619 0.0
O304 O 0.35501 0.11625 0.27556 0.0
O305 O 0.36031 0.1507 0.2685 0.0
O306 O 0.38974 0.09083 0.2152 0.0
O307 O 0.36499 0.12196 0.22273 0.0
Co308 Co 0.38375 0.09456 0.4933 0.0
O309 O 0.44045 0.08424 0.48913 0.0
O310 O 0.38243 0.06808 0.47663 0.0
C311 C 0.39073 0.10148 0.5319 0.0
O312 O 0.31984 0.10132 0.49562 0.0
Co313 Co 0.37329 0.14087 0.50736 0.0
O314 O 0.31509 0.1316 0.51546 0.0
C315 C 0.38423 0.12978 0.4571 0.0
C316 C 0.4237 0.06806 0.47932 0.0
C317 C 0.29801 0.1155 0.5064 0.0
O318 O 0.38765 0.11052 0.46279 0.0
O319 O 0.37935 0.14442 0.47219 0.0
O320 O 0.38162 0.0829 0.52475 0.0
O321 O 0.40009 0.11481 0.51551 0.0
Co322 Co 0.38919 0.64869 0.49314 0.0
O323 O 0.33328 0.65944 0.49787 0.0
O324 O 0.38246 0.67534 0.47669 0.0
C325 C 0.39999 0.64164 0.53156 0.0
O326 O 0.45151 0.64094 0.48599 0.0
Co327 Co 0.39975 0.60191 0.50512 0.0
O328 O 0.46051 0.60861 0.50069 0.0
C329 C 0.36792 0.61391 0.45822 0.0
C330 C 0.34421 0.67556 0.48578 0.0
C331 C 0.47499 0.62495 0.4908 0.0
O332 O 0.3698 0.63311 0.46431 0.0
O333 O 0.37728 0.59887 0.47207 0.0
O334 O 0.40724 0.66004 0.52321 0.0
O335 O 0.38228 0.62871 0.51704 0.0
Co336 Co 0.62888 0.83761 0.2448 0.0
O337 O 0.57211 0.82673 0.24586 0.0
O338 O 0.62739 0.80963 0.23151 0.0
C339 C 0.6301 0.84829 0.28238 0.0
O340 O 0.69258 0.84483 0.24211 0.0
Co341 Co 0.63954 0.88526 0.25228 0.0
O342 O 0.70034 0.87781 0.25526 0.0
C343 C 0.61652 0.8693 0.20508 0.0
C344 C 0.58702 0.80974 0.23698 0.0
C345 C 0.71571 0.86057 0.24827 0.0
O346 O 0.61752 0.85057 0.213 0.0
O347 O 0.62267 0.88533 0.21803 0.0
O348 O 0.63842 0.82913 0.27716 0.0
O349 O 0.61659 0.85981 0.26518 0.0
Co350 Co 0.59961 0.41406 0.24805 0.0
O351 O 0.65424 0.42699 0.2504 0.0
O352 O 0.59735 0.4425 0.23567 0.0
C353 C 0.59969 0.40222 0.28526 0.0
O354 O 0.53755 0.40423 0.24473 0.0
Co355 Co 0.59888 0.36595 0.25328 0.0
O356 O 0.53751 0.37137 0.25871 0.0
C357 C 0.62252 0.3844 0.20768 0.0
C358 C 0.6372 0.4437 0.24212 0.0
C359 C 0.51797 0.38768 0.25191 0.0
O360 O 0.6137 0.40253 0.21591 0.0
O361 O 0.62214 0.36786 0.22025 0.0
O362 O 0.58791 0.42108 0.28073 0.0
O363 O 0.61539 0.39195 0.26763 0.0
Co364 Co 0.65437 0.41084 0.99014 0.0
O365 O 0.59867 0.42233 -0.00631 0.0
O366 O 0.65775 0.43885 0.00353 0.0
C367 C 0.6447 0.40043 0.95272 0.0
O368 O 0.71735 0.40224 0.98778 0.0
Co369 Co 0.65652 0.36308 0.98311 0.0
O370 O 0.71646 0.36914 0.9746 0.0
C371 C 0.64512 0.37981 0.03084 0.0
C372 C 0.61631 0.43905 0.00156 0.0
C373 C 0.73638 0.38577 0.97995 0.0
O374 O 0.65071 0.39814 0.02247 0.0
O375 O 0.64252 0.36354 0.0179 0.0
O376 O 0.65591 0.41934 0.95741 0.0
O377 O 0.63491 0.38908 0.97087 0.0
Co378 Co 0.62211 0.83693 0.98789 0.0
O379 O 0.67923 0.82676 0.98845 0.0
O380 O 0.62379 0.80888 0.00128 0.0
C381 C 0.62563 0.84746 0.9502 0.0
O382 O 0.55783 0.84349 0.9882 0.0
Co383 Co 0.60953 0.8842 0.97978 0.0
O384 O 0.55216 0.87468 0.97031 0.0
C385 C 0.62708 0.86872 0.02792 0.0
C386 C 0.66441 0.80942 -0.00361 0.0
C387 C 0.53563 0.85798 0.97818 0.0
O388 O 0.62933 0.85002 0.01999 0.0
O389 O 0.62054 0.8846 0.01478 0.0
O390 O 0.61685 0.82833 0.95527 0.0
O391 O 0.63601 0.85921 0.96789 0.0
Co392 Co 0.35712 0.15739 0.73764 0.0
O393 O 0.41112 0.17105 0.7371 0.0
O394 O 0.35113 0.18623 0.74813 0.0
C395 C 0.36346 0.14381 0.7014 0.0
O396 O 0.29547 0.14683 0.73889 0.0
Co397 Co 0.36017 0.10927 0.73601 0.0
O398 O 0.29864 0.11283 0.7294 0.0
C399 C 0.37295 0.1304 0.78132 0.0
C400 C 0.39183 0.18774 0.74374 0.0
C401 C 0.27747 0.12931 0.73367 0.0
O402 O 0.36621 0.14788 0.77106 0.0
O403 O 0.37539 0.11309 0.77029 0.0
O404 O 0.35002 0.16266 0.70425 0.0
O405 O 0.37736 0.13458 0.72024 0.0
Co406 Co 0.37948 0.596 0.73859 0.0
O407 O 0.32273 0.58595 0.73427 0.0
O408 O 0.37505 0.56716 0.74928 0.0
C409 C 0.38659 0.60991 0.70271 0.0
O410 O 0.4426 0.60245 0.74425 0.0
Co411 Co 0.3886 0.64416 0.73793 0.0
O412 O 0.44996 0.63716 0.73933 0.0
C413 C 0.36303 0.62366 0.78181 0.0
C414 C 0.33545 0.56824 0.74233 0.0
C415 C 0.46541 0.61916 0.74325 0.0
O416 O 0.36605 0.60605 0.77131 0.0
O417 O 0.36733 0.64112 0.77127 0.0
O418 O 0.39282 0.59022 0.70594 0.0
O419 O 0.37027 0.61997 0.72035 0.0
Co420 Co 0.37751 0.58976 0.00124 0.0
O421 O 0.43287 0.57751 0.0018 0.0
O422 O 0.3749 0.56103 0.9899 0.0
C423 C 0.38082 0.60256 0.03783 0.0
O424 O 0.31482 0.5989 -1e-05 0.0
Co425 Co 0.3759 0.63805 0.00473 0.0
O426 O 0.31523 0.63238 0.0119 0.0
C427 C 0.39063 0.61843 0.95864 0.0
C428 C 0.41553 0.56043 -0.00522 0.0
C429 C 0.29547 0.61568 0.00662 0.0
O430 O 0.38623 0.60046 0.96824 0.0
O431 O 0.39097 0.63546 0.97033 0.0
O432 O 0.37019 0.58337 0.03435 0.0
O433 O 0.39452 0.61259 0.0195 0.0
Co434 Co 0.40231 0.16007 0.00068 0.0
O435 O 0.34998 0.17432 0.0063 0.0
O436 O 0.4062 0.18884 0.98953 0.0
C437 C 0.40662 0.14644 0.03701 0.0
O438 O 0.46218 0.14874 -0.00629 0.0
Co439 Co 0.39656 0.11205 0.00249 0.0
O440 O 0.45936 0.11463 0.00266 0.0
C441 C 0.37207 0.13346 0.95892 0.0
C442 C 0.36749 0.19078 -0.00233 0.0
C443 C 0.48016 0.13084 -0.00325 0.0
O444 O 0.3824 0.15077 0.96865 0.0
O445 O 0.37222 0.11611 0.96996 0.0
O446 O 0.41994 0.16515 0.0329 0.0
O447 O 0.38651 0.13749 0.0198 0.0
C448 C 0.08769 0.36059 0.16288 0.0
C449 C 0.10631 0.37456 0.1788 0.0
C450 C 0.0925 0.36324 0.13837 0.0
C451 C 0.11789 0.37978 0.1297 0.0
C452 C 0.13593 0.3942 0.14572 0.0
C453 C 0.12934 0.39159 0.1701 0.0
C454 C 0.07155 0.34794 0.12179 0.0
C455 C 0.16421 0.41167 0.13724 0.0
C456 C 0.16781 0.36853 0.06999 0.0
C457 C 0.14203 0.38025 0.05484 0.0
C458 C 0.16169 0.36914 0.09457 0.0
C459 C 0.12784 0.38109 0.10403 0.0
C460 C 0.10232 0.39332 0.08878 0.0
C461 C 0.11021 0.39301 0.06433 0.0
C462 C 0.19055 0.35646 0.11032 0.0
C463 C 0.06515 0.40575 0.0981 0.0
H464 H 0.06981 0.34745 0.16963 0.0
H465 H 0.14431 0.40224 0.18243 0.0
H466 H 0.05391 0.35629 0.10769 0.0
H467 H 0.09624 0.33832 0.11303 0.0
H468 H 0.04912 0.33743 0.13117 0.0
H469 H 0.17344 0.42234 0.15181 0.0
H470 H 0.1936 0.40508 0.12932 0.0
H471 H 0.14803 0.42079 0.12324 0.0
H472 H 0.19232 0.35862 0.06255 0.0
H473 H 0.08979 0.40176 0.05249 0.0
H474 H 0.17231 0.34347 0.11829 0.0
H475 H 0.20286 0.36616 0.12505 0.0
H476 H 0.21801 0.34986 0.10046 0.0
H477 H 0.04067 0.395 0.10524 0.0
H478 H 0.05025 0.41551 0.08416 0.0
H479 H 0.07541 0.41593 0.11287 0.0
C480 C 0.15618 0.89956 0.06758 0.0
C481 C 0.12781 0.88684 0.05504 0.0
C482 C 0.15827 0.89887 0.09231 0.0
C483 C 0.13049 0.88553 0.10486 0.0
C484 C 0.10169 0.87263 0.09232 0.0
C485 C 0.10112 0.87323 0.06747 0.0
C486 C 0.19005 0.91251 0.10502 0.0
C487 C 0.07087 0.85859 0.10517 0.0
C488 C 0.15535 0.8734 0.16927 0.0
C489 C 0.1309 0.88845 0.18094 0.0
C490 C 0.15566 0.87223 0.14443 0.0
C491 C 0.13001 0.88607 0.13113 0.0
C492 C 0.10481 0.90106 0.14288 0.0
C493 C 0.10599 0.90224 0.1676 0.0
C494 C 0.18374 0.8564 0.13242 0.0
C495 C 0.07637 0.91581 0.12934 0.0
H496 H 0.17743 0.90984 0.05799 0.0
H497 H 0.07922 0.86337 0.05778 0.0
H498 H 0.17302 0.92416 0.11595 0.0
H499 H 0.20983 0.90302 0.11719 0.0
H500 H 0.21145 0.92086 0.09258 0.0
H501 H 0.05122 0.8492 0.09281 0.0
H502 H 0.08839 0.84792 0.11711 0.0
H503 H 0.04932 0.86807 0.11638 0.0
H504 H 0.17458 0.86271 0.17954 0.0
H505 H 0.08643 0.91368 0.17655 0.0
H506 H 0.20674 0.86438 0.12059 0.0
H507 H 0.1642 0.84596 0.12119 0.0
H508 H 0.2018 0.84679 0.14531 0.0
H509 H 0.09592 0.92594 0.11777 0.0
H510 H 0.0571 0.92582 0.14124 0.0
H511 H 0.05444 0.90693 0.11773 0.0
C512 C 0.92237 0.62671 0.81613 0.0
C513 C 0.89525 0.61303 0.8041 0.0
C514 C 0.92328 0.62719 0.84096 0.0
C515 C 0.89525 0.61423 0.85392 0.0
C516 C 0.86866 0.6 0.84184 0.0
C517 C 0.86949 0.59935 0.81704 0.0
C518 C 0.95312 0.64208 0.85327 0.0
C519 C 0.83751 0.58634 0.855 0.0
C520 C 0.91248 0.60539 0.91962 0.0
C521 C 0.88623 0.6207 0.92952 0.0
C522 C 0.91622 0.60328 0.89501 0.0
C523 C 0.89201 0.61634 0.88003 0.0
C524 C 0.86457 0.63147 0.88999 0.0
C525 C 0.86262 0.63373 0.91467 0.0
C526 C 0.94684 0.58746 0.88503 0.0
C527 C 0.83731 0.64529 0.87459 0.0
H528 H 0.94225 0.63731 0.8061 0.0
H529 H 0.84792 0.58902 0.80776 0.0
H530 H 0.9345 0.65462 0.86187 0.0
H531 H 0.97114 0.63392 0.86738 0.0
H532 H 0.97613 0.6493 0.8408 0.0
H533 H 0.82036 0.5755 0.84303 0.0
H534 H 0.85422 0.57713 0.86873 0.0
H535 H 0.81371 0.59619 0.8642 0.0
H536 H 0.93134 0.59555 0.93114 0.0
H537 H 0.84237 0.64557 0.92238 0.0
H538 H 0.97081 0.59535 0.87373 0.0
H539 H 0.92957 0.57623 0.87365 0.0
H540 H 0.96377 0.5787 0.89912 0.0
H541 H 0.85785 0.65523 0.86333 0.0
H542 H 0.81602 0.65547 0.88515 0.0
H543 H 0.81747 0.63567 0.86258 0.0
C544 C 0.86987 0.15247 0.91838 0.0
C545 C 0.89745 0.1377 0.92829 0.0
C546 C 0.86419 0.15377 0.89381 0.0
C547 C 0.88751 0.14034 0.87883 0.0
C548 C 0.91751 0.12637 0.88867 0.0
C549 C 0.92167 0.12499 0.91335 0.0
C550 C 0.83125 0.16854 0.88402 0.0
C551 C 0.9439 0.11223 0.8732 0.0
C552 C 0.84357 0.12357 0.81931 0.0
C553 C 0.86627 0.13642 0.80378 0.0
C554 C 0.84886 0.12533 0.84388 0.0
C555 C 0.87851 0.13986 0.85303 0.0
C556 C 0.90072 0.15322 0.83745 0.0
C557 C 0.8939 0.15152 0.81299 0.0
C558 C 0.8237 0.1112 0.86 0.0
C559 C 0.93328 0.16856 0.8465 0.0
H560 H 0.8506 0.16213 0.92988 0.0
H561 H 0.94305 0.11359 0.92098 0.0
H562 H 0.84502 0.17811 0.8696 0.0
H563 H 0.80451 0.15952 0.8763 0.0
H564 H 0.81826 0.17906 0.89783 0.0
H565 H 0.96898 0.10398 0.8834 0.0
H566 H 0.923 0.10047 0.86476 0.0
H567 H 0.95928 0.12125 0.85881 0.0
H568 H 0.82219 0.1119 0.81221 0.0
H569 H 0.91204 0.16127 0.80101 0.0
H570 H 0.80752 0.12042 0.87395 0.0
H571 H 0.84554 0.10021 0.86901 0.0
H572 H 0.79934 0.10208 0.85023 0.0
H573 H 0.9192 0.17855 0.86044 0.0
H574 H 0.946 0.17865 0.8322 0.0
H575 H 0.96023 0.16002 0.85468 0.0
C576 C 0.15966 0.84688 0.66978 0.0
C577 C 0.1312 0.8596 0.68224 0.0
C578 C 0.16399 0.84853 0.6452 0.0
C579 C 0.13833 0.86285 0.63267 0.0
C580 C 0.10956 0.87581 0.64514 0.0
C581 C 0.1068 0.87423 0.6699 0.0
C582 C 0.19572 0.83479 0.63261 0.0
C583 C 0.08091 0.89086 0.63227 0.0
C584 C 0.16907 0.87633 0.56936 0.0
C585 C 0.1447 0.86194 0.55661 0.0
C586 C 0.16738 0.87688 0.59422 0.0
C587 C 0.1397 0.86315 0.60639 0.0
C588 C 0.11438 0.84894 0.5935 0.0
C589 C 0.11764 0.84831 0.56881 0.0
C590 C 0.19567 0.89186 0.60747 0.0
C591 C 0.08379 0.83436 0.60578 0.0
H592 H 0.17917 0.8358 0.67935 0.0
H593 H 0.08484 0.88409 0.67954 0.0
H594 H 0.17868 0.82373 0.6209 0.0
H595 H 0.21692 0.84431 0.62123 0.0
H596 H 0.21569 0.82574 0.64514 0.0
H597 H 0.0613 0.90029 0.64462 0.0
H598 H 0.10012 0.9015 0.62112 0.0
H599 H 0.05929 0.8822 0.62027 0.0
H600 H 0.18996 0.88689 0.55993 0.0
H601 H 0.09815 0.83741 0.55898 0.0
H602 H 0.21744 0.88311 0.61931 0.0
H603 H 0.17615 0.90217 0.61884 0.0
H604 H 0.2151 0.90163 0.59537 0.0
H605 H 0.10167 0.82341 0.61723 0.0
H606 H 0.06445 0.82518 0.59305 0.0
H607 H 0.06191 0.84327 0.61738 0.0
C608 C 0.08977 0.3737 0.5647 0.0
C609 C 0.1163 0.38782 0.55288 0.0
C610 C 0.08872 0.37297 0.58954 0.0
C611 C 0.11572 0.38626 0.60274 0.0
C612 C 0.14262 0.40048 0.59087 0.0
C613 C 0.14216 0.40127 0.5661 0.0
C614 C 0.05874 0.35803 0.60166 0.0
C615 C 0.17245 0.41463 0.60431 0.0
C616 C 0.0914 0.39988 0.6665 0.0
C617 C 0.11831 0.38629 0.67885 0.0
C618 C 0.08924 0.39954 0.64175 0.0
C619 C 0.1155 0.38564 0.62901 0.0
C620 C 0.1428 0.37186 0.64136 0.0
C621 C 0.14343 0.37214 0.66622 0.0
C622 C 0.059 0.41412 0.62925 0.0
C623 C 0.17201 0.35719 0.6283 0.0
H624 H 0.06971 0.3633 0.55452 0.0
H625 H 0.1632 0.41201 0.55704 0.0
H626 H 0.0771 0.34683 0.61254 0.0
H627 H 0.03735 0.36663 0.61384 0.0
H628 H 0.03893 0.34919 0.58885 0.0
H629 H 0.19228 0.42434 0.59235 0.0
H630 H 0.15398 0.42506 0.61608 0.0
H631 H 0.19386 0.40527 0.61573 0.0
H632 H 0.07141 0.41062 0.67625 0.0
H633 H 0.16427 0.36165 0.67577 0.0
H634 H 0.03801 0.40526 0.61709 0.0
H635 H 0.07725 0.42534 0.61833 0.0
H636 H 0.03876 0.42297 0.64183 0.0
H637 H 0.15323 0.34694 0.61646 0.0
H638 H 0.19097 0.34733 0.64053 0.0
H639 H 0.19423 0.36618 0.61697 0.0
C640 C 0.86558 0.10023 0.31437 0.0
C641 C 0.89099 0.11464 0.30225 0.0
C642 C 0.86537 0.09949 0.33915 0.0
C643 C 0.89221 0.11306 0.35201 0.0
C644 C 0.92015 0.12662 0.33979 0.0
C645 C 0.91862 0.12753 0.315 0.0
C646 C 0.83429 0.08525 0.35153 0.0
C647 C 0.95027 0.14082 0.35292 0.0
C648 C 0.85973 0.13136 0.41314 0.0
C649 C 0.88358 0.11816 0.42767 0.0
C650 C 0.86122 0.12937 0.38845 0.0
C651 C 0.88849 0.11434 0.37815 0.0
C652 C 0.91252 0.10092 0.3928 0.0
C653 C 0.90922 0.10277 0.41747 0.0
C654 C 0.83406 0.14353 0.37341 0.0
C655 C 0.94291 0.08518 0.38245 0.0
H656 H 0.84371 0.09045 0.30453 0.0
H657 H 0.93832 0.13864 0.3056 0.0
H658 H 0.85076 0.07584 0.36518 0.0
H659 H 0.8098 0.09469 0.36073 0.0
H660 H 0.81796 0.07458 0.33902 0.0
H661 H 0.97362 0.14833 0.34087 0.0
H662 H 0.9319 0.15316 0.36203 0.0
H663 H 0.9679 0.13203 0.36669 0.0
H664 H 0.83996 0.14326 0.42112 0.0
H665 H 0.92823 0.09282 0.42879 0.0
H666 H 0.81472 0.13423 0.36083 0.0
H667 H 0.85472 0.15393 0.36277 0.0
H668 H 0.8123 0.15327 0.38422 0.0
H669 H 0.92589 0.07474 0.37003 0.0
H670 H 0.95851 0.07558 0.39629 0.0
H671 H 0.96796 0.09332 0.37214 0.0
C672 C 0.84634 0.62042 0.32062 0.0
C673 C 0.8679 0.63339 0.30474 0.0
C674 C 0.85109 0.62297 0.34513 0.0
C675 C 0.87908 0.63844 0.35388 0.0
C676 C 0.90007 0.65193 0.33792 0.0
C677 C 0.89379 0.64941 0.31351 0.0
C678 C 0.82721 0.60865 0.36164 0.0
C679 C 0.93088 0.66828 0.34655 0.0
C680 C 0.86771 0.65147 0.41897 0.0
C681 C 0.89608 0.63724 0.42921 0.0
C682 C 0.8629 0.65264 0.39433 0.0
C683 C 0.88789 0.63967 0.37966 0.0
C684 C 0.91899 0.62649 0.38987 0.0
C685 C 0.92227 0.6252 0.41458 0.0
C686 C 0.82886 0.66659 0.38415 0.0
C687 C 0.94716 0.61288 0.37475 0.0
H688 H 0.82627 0.60806 0.31385 0.0
H689 H 0.91102 0.65927 0.30125 0.0
H690 H 0.85004 0.59841 0.37103 0.0
H691 H 0.81001 0.61781 0.37526 0.0
H692 H 0.80387 0.59874 0.35211 0.0
H693 H 0.94227 0.67847 0.332 0.0
H694 H 0.91583 0.67808 0.36034 0.0
H695 H 0.95886 0.66062 0.35479 0.0
H696 H 0.84696 0.6606 0.43024 0.0
H697 H 0.94427 0.61422 0.42248 0.0
H698 H 0.80264 0.65691 0.37695 0.0
H699 H 0.8417 0.67595 0.3693 0.0
H700 H 0.81538 0.67728 0.39764 0.0
H701 H 0.92778 0.60038 0.36658 0.0
H702 H 0.97313 0.60557 0.38519 0.0
H703 H 0.96152 0.62207 0.36017 0.0
C704 C 0.62259 0.34753 0.56854 0.0
C705 C 0.64475 0.36212 0.55484 0.0
C706 C 0.62123 0.34917 0.59322 0.0
C707 C 0.64378 0.36539 0.60455 0.0
C708 C 0.66771 0.37969 0.59089 0.0
C709 C 0.66724 0.37813 0.56608 0.0
C710 C 0.59453 0.3339 0.60712 0.0
C711 C 0.69343 0.39671 0.60245 0.0
C712 C 0.60722 0.37987 0.66648 0.0
C713 C 0.63354 0.36722 0.68027 0.0
C714 C 0.6106 0.37972 0.64168 0.0
C715 C 0.64209 0.3672 0.63072 0.0
C716 C 0.67001 0.35517 0.64477 0.0
C717 C 0.66486 0.35503 0.66937 0.0
C718 C 0.57948 0.39228 0.6272 0.0
C719 C 0.70485 0.34216 0.63381 0.0
H720 H 0.60453 0.33535 0.55987 0.0
H721 H 0.68433 0.38942 0.55547 0.0
H722 H 0.61484 0.32519 0.61974 0.0
H723 H 0.5703 0.34237 0.61767 0.0
H724 H 0.57794 0.32255 0.59552 0.0
H725 H 0.71251 0.40567 0.58941 0.0
H726 H 0.67192 0.40758 0.61186 0.0
H727 H 0.71529 0.38998 0.61584 0.0
H728 H 0.5831 0.38929 0.67503 0.0
H729 H 0.68572 0.34553 0.68019 0.0
H730 H 0.56008 0.38172 0.61602 0.0
H731 H 0.59681 0.4029 0.61512 0.0
H732 H 0.55768 0.40162 0.63844 0.0
H733 H 0.6906 0.32921 0.62358 0.0
H734 H 0.72661 0.3355 0.64733 0.0
H735 H 0.72386 0.35165 0.62127 0.0
C736 C 0.59393 0.89982 0.66603 0.0
C737 C 0.62147 0.88701 0.679 0.0
C738 C 0.59367 0.89939 0.64126 0.0
C739 C 0.62258 0.8863 0.62918 0.0
C740 C 0.65058 0.87335 0.64218 0.0
C741 C 0.6492 0.87362 0.66702 0.0
C742 C 0.56258 0.91301 0.62801 0.0
C743 C 0.68263 0.85962 0.62988 0.0
C744 C 0.60405 0.87354 0.56434 0.0
C745 C 0.62946 0.88853 0.55321 0.0
C746 C 0.60092 0.8728 0.58913 0.0
C747 C 0.62485 0.88696 0.60296 0.0
C748 C 0.65075 0.90202 0.59176 0.0
C749 C 0.65224 0.90282 0.56701 0.0
C750 C 0.572 0.85693 0.60049 0.0
C751 C 0.67751 0.91707 0.60592 0.0
H752 H 0.57197 0.90995 0.67531 0.0
H753 H 0.67051 0.86374 0.67708 0.0
H754 H 0.58014 0.92482 0.61757 0.0
H755 H 0.54384 0.90353 0.61533 0.0
H756 H 0.54019 0.92116 0.64007 0.0
H757 H 0.70186 0.85035 0.64257 0.0
H758 H 0.66618 0.84882 0.61761 0.0
H759 H 0.70451 0.86929 0.61907 0.0
H760 H 0.5864 0.86251 0.55367 0.0
H761 H 0.67245 0.91423 0.55845 0.0
H762 H 0.54854 0.86484 0.6121 0.0
H763 H 0.59087 0.84631 0.61184 0.0
H764 H 0.55447 0.84752 0.5872 0.0
H765 H 0.65674 0.92692 0.61714 0.0
H766 H 0.69706 0.92735 0.59446 0.0
H767 H 0.69907 0.90839 0.61794 0.0
C768 C 0.40138 0.6299 0.32376 0.0
C769 C 0.38018 0.61659 0.30812 0.0
C770 C 0.39873 0.62683 0.34829 0.0
C771 C 0.37297 0.61056 0.3573 0.0
C772 C 0.35207 0.59688 0.34154 0.0
C773 C 0.35648 0.59987 0.3171 0.0
C774 C 0.4226 0.64134 0.36458 0.0
C775 C 0.32335 0.57976 0.35047 0.0
C776 C 0.39047 0.59604 0.42153 0.0
C777 C 0.36208 0.60954 0.4329 0.0
C778 C 0.39346 0.59564 0.39678 0.0
C779 C 0.36643 0.60858 0.38321 0.0
C780 C 0.33528 0.62094 0.39462 0.0
C781 C 0.33405 0.62159 0.41941 0.0
C782 C 0.42781 0.58267 0.38532 0.0
C783 C 0.30483 0.63436 0.38069 0.0
H784 H 0.41969 0.6428 0.31678 0.0
H785 H 0.33947 0.58977 0.305 0.0
H786 H 0.39966 0.65095 0.37473 0.0
H787 H 0.44156 0.63231 0.37758 0.0
H788 H 0.44433 0.65189 0.35476 0.0
H789 H 0.31137 0.56973 0.33592 0.0
H790 H 0.3404 0.5699 0.36347 0.0
H791 H 0.29564 0.58669 0.35976 0.0
H792 H 0.41273 0.58702 0.43201 0.0
H793 H 0.31224 0.63208 0.42827 0.0
H794 H 0.45257 0.59308 0.37782 0.0
H795 H 0.41462 0.57342 0.37049 0.0
H796 H 0.44328 0.57195 0.39811 0.0
H797 H 0.32243 0.64751 0.37262 0.0
H798 H 0.27903 0.64077 0.39199 0.0
H799 H 0.29023 0.62531 0.36607 0.0
C800 C 0.35007 0.14899 0.42395 0.0
C801 C 0.38096 0.13482 0.43174 0.0
C802 C 0.34155 0.1515 0.39974 0.0
C803 C 0.3654 0.14003 0.383 0.0
C804 C 0.39812 0.12649 0.39079 0.0
C805 C 0.40498 0.12377 0.41512 0.0
C806 C 0.30562 0.16559 0.39215 0.0
C807 C 0.42512 0.11443 0.37346 0.0
C808 C 0.32546 0.12522 0.32209 0.0
C809 C 0.34755 0.13933 0.30775 0.0
C810 C 0.32846 0.12626 0.34683 0.0
C811 C 0.35528 0.14136 0.35736 0.0
C812 C 0.37571 0.15637 0.34301 0.0
C813 C 0.3711 0.15534 0.31835 0.0
C814 C 0.30498 0.11042 0.36161 0.0
C815 C 0.40525 0.17243 0.3535 0.0
H816 H 0.33093 0.15725 0.43685 0.0
H817 H 0.42879 0.1128 0.42119 0.0
H818 H 0.31672 0.17673 0.37851 0.0
H819 H 0.27988 0.15615 0.38404 0.0
H820 H 0.29202 0.17446 0.40723 0.0
H821 H 0.45159 0.10603 0.38232 0.0
H822 H 0.40507 0.10293 0.364 0.0
H823 H 0.43877 0.12505 0.35997 0.0
H824 H 0.30715 0.11286 0.31392 0.0
H825 H 0.3887 0.16613 0.30732 0.0
H826 H 0.28879 0.11806 0.37674 0.0
H827 H 0.32801 0.09908 0.369 0.0
H828 H 0.28089 0.10177 0.3511 0.0
H829 H 0.39007 0.18032 0.36876 0.0
H830 H 0.41486 0.18436 0.34032 0.0
H831 H 0.4344 0.16464 0.36018 0.0
C832 C 0.63753 0.88762 0.16815 0.0
C833 C 0.61303 0.87225 0.17929 0.0
C834 C 0.64012 0.88868 0.1434 0.0
C835 C 0.61664 0.87441 0.12954 0.0
C836 C 0.58998 0.85959 0.14071 0.0
C837 C 0.58909 0.85845 0.16551 0.0
C838 C 0.66974 0.90433 0.13216 0.0
C839 C 0.5634 0.84455 0.12649 0.0
C840 C 0.59971 0.88582 0.06432 0.0
C841 C 0.62789 0.8717 0.05376 0.0
C842 C 0.59581 0.88698 0.08901 0.0
C843 C 0.62169 0.87417 0.10341 0.0
C844 C 0.65159 0.86057 0.0928 0.0
C845 C 0.65377 0.85922 0.06805 0.0
C846 C 0.56273 0.90122 0.09965 0.0
C847 C 0.68069 0.84714 0.1076 0.0
H848 H 0.65659 0.89811 0.1788 0.0
H849 H 0.57009 0.8466 0.17414 0.0
H850 H 0.69582 0.89605 0.12285 0.0
H851 H 0.65254 0.91368 0.11875 0.0
H852 H 0.68405 0.91502 0.14539 0.0
H853 H 0.54122 0.83547 0.1378 0.0
H854 H 0.54459 0.85302 0.11295 0.0
H855 H 0.5845 0.83354 0.11699 0.0
H856 H 0.57918 0.89524 0.05324 0.0
H857 H 0.67557 0.84833 0.05985 0.0
H858 H 0.57765 0.91184 0.11269 0.0
H859 H 0.53865 0.89186 0.1093 0.0
H860 H 0.54617 0.91068 0.08602 0.0
H861 H 0.69785 0.85681 0.12078 0.0
H862 H 0.70449 0.83873 0.09666 0.0
H863 H 0.66162 0.83556 0.11755 0.0
C864 C 0.67108 0.39053 0.07038 0.0
C865 C 0.6447 0.37764 0.05679 0.0
C866 C 0.67039 0.3897 0.09511 0.0
C867 C 0.64174 0.37603 0.10654 0.0
C868 C 0.61581 0.36254 0.09292 0.0
C869 C 0.61804 0.3633 0.06808 0.0
C870 C 0.69934 0.40396 0.10899 0.0
C871 C 0.58427 0.34806 0.10452 0.0
C872 C 0.65576 0.36704 0.17259 0.0
C873 C 0.62885 0.38234 0.18194 0.0
C874 C 0.66028 0.36467 0.148 0.0
C875 C 0.63625 0.37746 0.13258 0.0
C876 C 0.60836 0.3926 0.14202 0.0
C877 C 0.60551 0.39506 0.16657 0.0
C878 C 0.69127 0.3488 0.13852 0.0
C879 C 0.58149 0.40624 0.12618 0.0
H880 H 0.69233 0.40137 0.06162 0.0
H881 H 0.59772 0.35333 0.05751 0.0
H882 H 0.68006 0.416 0.11807 0.0
H883 H 0.71661 0.39511 0.12284 0.0
H884 H 0.72303 0.41188 0.0975 0.0
H885 H 0.56905 0.33739 0.09158 0.0
H886 H 0.6001 0.33867 0.11842 0.0
H887 H 0.55898 0.35731 0.11331 0.0
H888 H 0.67371 0.35717 0.18451 0.0
H889 H 0.58405 0.40664 0.17379 0.0
H890 H 0.71629 0.35671 0.12796 0.0
H891 H 0.67468 0.33784 0.1265 0.0
H892 H 0.70685 0.33978 0.15286 0.0
H893 H 0.60234 0.41642 0.11537 0.0
H894 H 0.5592 0.4162 0.13638 0.0
H895 H 0.56271 0.39652 0.11375 0.0
C896 C 0.34026 0.14171 0.81895 0.0
C897 C 0.3717 0.13013 0.80732 0.0
C898 C 0.3366 0.14129 0.84362 0.0
C899 C 0.36609 0.12958 0.857 0.0
C900 C 0.39797 0.11781 0.84533 0.0
C901 C 0.39988 0.11791 0.82049 0.0
C902 C 0.30139 0.15352 0.85536 0.0
C903 C 0.43074 0.10564 0.8591 0.0
C904 C 0.3868 0.14849 0.9193 0.0
C905 C 0.36613 0.13334 0.93299 0.0
C906 C 0.38723 0.1473 0.89459 0.0
C907 C 0.36537 0.1309 0.88321 0.0
C908 C 0.34291 0.11602 0.89683 0.0
C909 C 0.34412 0.11722 0.92165 0.0
C910 C 0.41221 0.16326 0.8807 0.0
C911 C 0.31804 0.09874 0.88519 0.0
H912 H 0.31786 0.15082 0.80865 0.0
H913 H 0.42399 0.10889 0.81138 0.0
H914 H 0.28336 0.14344 0.86775 0.0
H915 H 0.3152 0.1664 0.86591 0.0
H916 H 0.27878 0.16023 0.8423 0.0
H917 H 0.45296 0.09704 0.84736 0.0
H918 H 0.44953 0.11635 0.87041 0.0
H919 H 0.4148 0.09437 0.87102 0.0
H920 H 0.40444 0.16083 0.92793 0.0
H921 H 0.32812 0.1055 0.93218 0.0
H922 H 0.39078 0.17176 0.86847 0.0
H923 H 0.43668 0.1554 0.86972 0.0
H924 H 0.42832 0.17474 0.89233 0.0
H925 H 0.29516 0.10529 0.87221 0.0
H926 H 0.30016 0.08922 0.89824 0.0
H927 H 0.33999 0.08843 0.87528 0.0
C928 C 0.39252 0.6098 0.81896 0.0
C929 C 0.36397 0.62336 0.8078 0.0
C930 C 0.39804 0.61011 0.84348 0.0
C931 C 0.37323 0.62383 0.8573 0.0
C932 C 0.34377 0.63738 0.84619 0.0
C933 C 0.34014 0.63732 0.82138 0.0
C934 C 0.43072 0.59587 0.85455 0.0
C935 C 0.31579 0.65169 0.86052 0.0
C936 C 0.3603 0.60628 0.9207 0.0
C937 C 0.38835 0.61957 0.93267 0.0
C938 C 0.35385 0.60811 0.8963 0.0
C939 C 0.37713 0.62314 0.88343 0.0
C940 C 0.40601 0.63645 0.89535 0.0
C941 C 0.41068 0.63476 0.92001 0.0
C942 C 0.32202 0.59398 0.88432 0.0
C943 C 0.43247 0.65215 0.88202 0.0
H944 H 0.41178 0.59936 0.80834 0.0
H945 H 0.31838 0.6479 0.81263 0.0
H946 H 0.45301 0.60497 0.86573 0.0
H947 H 0.4147 0.58444 0.86623 0.0
H948 H 0.44948 0.58724 0.8411 0.0
H949 H 0.29419 0.66108 0.8492 0.0
H950 H 0.29622 0.64246 0.87306 0.0
H951 H 0.33569 0.66237 0.87123 0.0
H952 H 0.34225 0.59482 0.93058 0.0
H953 H 0.43214 0.6451 0.92934 0.0
H954 H 0.33868 0.58348 0.87181 0.0
H955 H 0.299 0.6033 0.87386 0.0
H956 H 0.30403 0.58432 0.89719 0.0
H957 H 0.45274 0.64407 0.86882 0.0
H958 H 0.45332 0.66137 0.89394 0.0
H959 H 0.4115 0.66294 0.87212 0.0
C960 C 0.9363 0.21296 0.25835 0.0
C961 C 0.9393 0.19642 0.24234 0.0
C962 C 0.96313 0.23045 0.25614 0.0
C963 C 0.99248 0.23165 0.23704 0.0
C964 C 0.99517 0.21504 0.22077 0.0
C965 C 0.96908 0.19758 0.22382 0.0
C966 C 0.96007 0.24764 0.27419 0.0
C967 C 0.02485 0.21591 0.19974 0.0
C968 C 0.02768 0.28586 0.21865 0.0
C969 C 0.06877 0.28696 0.22822 0.0
C970 C 1.00311 0.26771 0.22071 0.0
C971 C 0.0194 0.25053 0.23349 0.0
C972 C 0.06139 0.25142 0.24272 0.0
C973 C 0.08584 0.26956 0.23966 0.0
C974 C 0.95925 0.26717 0.20977 0.0
C975 C 0.07963 0.23364 0.25686 0.0
H976 H 0.91344 0.21211 0.27269 0.0
H977 H 0.97123 0.18497 0.21116 0.0
H978 H 0.99198 0.25085 0.28183 0.0
H979 H 0.94905 0.26214 0.26553 0.0
H980 H 0.93775 0.24378 0.2888 0.0
H981 H 0.023 0.20169 0.18864 0.0
H982 H 0.0169 0.22953 0.18854 0.0
H983 H 0.05821 0.21791 0.20576 0.0
H984 H 0.01431 0.29945 0.21009 0.0
H985 H 0.11718 0.27064 0.24763 0.0
H986 H 0.93479 0.26621 0.22389 0.0
H987 H 0.9557 0.25316 0.1985 0.0
H988 H 0.9527 0.28114 0.19882 0.0
H989 H 0.05998 0.23108 0.27293 0.0
H990 H 0.11306 0.23656 0.2624 0.0
H991 H 0.07863 0.21908 0.24639 0.0
C992 C 0.14821 0.98532 0.25137 0.0
C993 C 0.16402 0.96745 0.24036 0.0
C994 C 0.17443 0.00287 0.25458 0.0
C995 C 0.21697 0.00259 0.24609 0.0
C996 C 0.23223 0.98484 0.234 0.0
C997 C 0.20577 0.96742 0.23159 0.0
C998 C 0.15717 0.02142 0.26779 0.0
C999 C 0.27678 0.98409 0.22393 0.0
C1000 C 0.27163 0.05384 0.23328 0.0
C1001 C 0.30078 0.05559 0.25206 0.0
C1002 C 0.24425 0.03679 0.23127 0.0
C1003 C 0.24508 0.02114 0.24878 0.0
C1004 C 0.27404 0.02284 0.26803 0.0
C1005 C 0.30211 0.03996 0.26927 0.0
C1006 C 0.21508 0.03532 0.21004 0.0
C1007 C 0.27531 0.00659 0.28724 0.0
H1008 H 0.1163 0.98514 0.25869 0.0
H1009 H 0.21811 0.95347 0.22329 0.0
H1010 H 0.17694 0.02439 0.28372 0.0
H1011 H 0.15899 0.03549 0.25652 0.0
H1012 H 0.12359 0.01916 0.27342 0.0
H1013 H 0.28315 0.9694 0.21425 0.0
H1014 H 0.28181 0.9973 0.21164 0.0
H1015 H 0.30046 0.98562 0.23839 0.0
H1016 H 0.27079 0.06571 0.21967 0.0
H1017 H 0.32446 0.04128 0.28381 0.0
H1018 H 0.18144 0.03425 0.21589 0.0
H1019 H 0.22228 0.021 0.19988 0.0
H1020 H 0.2183 0.04887 0.198 0.0
H1021 H 0.24304 0.00448 0.29489 0.0
H1022 H 0.29776 0.01075 0.30169 0.0
H1023 H 0.28512 0.99144 0.27966 0.0
C1024 C 0.11318 0.98277 0.98051 0.0
C1025 C 0.09924 0.96681 -0.00455 0.0
C1026 C 0.08845 0.0008 0.97727 0.0
C1027 C 0.04952 0.00303 0.98976 0.0
C1028 C 0.03667 0.98736 0.00586 0.0
C1029 C 0.06129 0.96928 0.00815 0.0
C1030 C 0.10283 0.01693 0.95962 0.0
C1031 C 0.99627 0.98939 0.02017 0.0
C1032 C 1.00178 0.05665 -0.0019 0.0
C1033 C 0.96654 0.0562 0.98276 0.0
C1034 C 0.02926 0.03962 0.00026 0.0
C1035 C 0.02222 0.02176 0.98627 0.0
C1036 C 0.98767 0.02144 0.97004 0.0
C1037 C 0.95978 0.03858 0.96872 0.0
C1038 C 0.06477 0.04043 0.0183 0.0
C1039 C 0.97973 0.00285 0.9544 0.0
H1040 H 0.14191 0.98055 0.97016 0.0
H1041 H 0.05025 0.95674 0.01941 0.0
H1042 H 0.07916 0.01806 0.94508 0.0
H1043 H 0.10463 0.03243 0.96812 0.0
H1044 H 0.13442 0.0132 0.95186 0.0
H1045 H 0.99245 0.97654 0.03313 0.0
H1046 H 0.9961 0.00436 0.0299 0.0
H1047 H 0.96829 0.98939 0.00819 0.0
H1048 H 0.00712 0.0701 0.00924 0.0
H1049 H 0.9327 0.03815 0.95684 0.0
H1050 H 0.09583 0.0372 0.00972 0.0
H1051 H 0.05967 0.02823 0.03189 0.0
H1052 H 0.06673 0.05572 0.02733 0.0
H1053 H 0.00934 0.99856 0.94485 0.0
H1054 H 0.95413 0.00575 0.94124 0.0
H1055 H 0.97043 0.98932 0.96542 0.0
C1056 C 0.321 0.21446 0.02031 0.0
C1057 C 0.3444 0.21068 -0.0004 0.0
C1058 C 0.29417 0.23173 0.02233 0.0
C1059 C 0.28971 0.24539 0.0029 0.0
C1060 C 0.31394 0.24191 0.98203 0.0
C1061 C 0.34151 0.22465 0.98071 0.0
C1062 C 0.27004 0.23513 0.04514 0.0
C1063 C 0.30962 0.25602 0.96084 0.0
C1064 C 0.18812 0.27779 -0.00019 0.0
C1065 C 0.20319 0.2974 0.00646 0.0
C1066 C 0.21596 0.26067 -0.00146 0.0
C1067 C 0.25954 0.26323 0.00456 0.0
C1068 C 0.2742 0.2828 0.01251 0.0
C1069 C 0.24599 0.29968 0.01307 0.0
C1070 C 0.19916 0.24008 0.98982 0.0
C1071 C 0.31997 0.28607 0.01986 0.0
H1072 H 0.32339 0.20366 0.03499 0.0
H1073 H 0.3592 0.22156 0.96461 0.0
H1074 H 0.27623 0.251 0.052 0.0
H1075 H 0.23531 0.23389 0.04185 0.0
H1076 H 0.27891 0.2237 0.05902 0.0
H1077 H 0.33081 0.25132 0.94604 0.0
H1078 H 0.27617 0.25587 0.95449 0.0
H1079 H 0.31727 0.27225 0.9659 0.0
H1080 H 0.15525 0.2761 -0.00575 0.0
H1081 H 0.2577 0.3149 0.01813 0.0
H1082 H 0.20519 0.2278 0.00317 0.0
H1083 H 0.21622 0.23552 0.97342 0.0
H1084 H 0.16446 0.24059 0.98603 0.0
H1085 H 0.32905 0.27459 0.03361 0.0
H1086 H 0.32566 0.30193 0.02691 0.0
H1087 H 0.34129 0.28358 0.00446 0.0
C1088 C 0.98309 0.69014 0.7264 0.0
C1089 C 0.94931 0.69027 0.74271 0.0
C1090 C 0.0117 0.70678 0.72482 0.0
C1091 C 0.00717 0.72387 0.7403 0.0
C1092 C 0.9737 0.72394 0.75721 0.0
C1093 C 0.94474 0.70723 0.758 0.0
C1094 C 0.04608 0.70632 0.70611 0.0
C1095 C 0.96837 0.74173 0.77433 0.0
C1096 C 0.10169 0.76033 0.7487 0.0
C1097 C 0.08859 0.77764 0.7356 0.0
C1098 C 0.07565 0.74258 0.7503 0.0
C1099 C 0.03628 0.74206 0.73801 0.0
C1100 C 0.02436 0.75909 0.7236 0.0
C1101 C 0.05032 0.77681 0.72292 0.0
C1102 C 0.08912 0.7249 0.76616 0.0
C1103 C 0.98345 0.75891 0.70954 0.0
H1104 H 0.98662 0.67716 0.71433 0.0
H1105 H 0.91881 0.70735 0.77067 0.0
H1106 H 0.04191 0.71962 0.69383 0.0
H1107 H 0.0779 0.70799 0.71441 0.0
H1108 H 0.04564 0.69172 0.69563 0.0
H1109 H 0.94259 0.73882 0.78739 0.0
H1110 H 0.99859 0.74447 0.78403 0.0
H1111 H 0.96082 0.75618 0.76448 0.0
H1112 H 0.13079 0.76122 0.75899 0.0
H1113 H 0.04006 0.79034 0.71302 0.0
H1114 H 0.0889 0.71004 0.75624 0.0
H1115 H 0.06605 0.72329 0.78093 0.0
H1116 H 0.12141 0.72731 0.77373 0.0
H1117 H 0.9815 0.74463 0.6986 0.0
H1118 H 0.98063 0.77264 0.69772 0.0
H1119 H 0.95582 0.75879 0.72177 0.0
C1120 C 0.64591 0.98251 0.75204 0.0
C1121 C 0.66041 0.96549 0.7389 0.0
C1122 C 0.67187 1.00012 0.75524 0.0
C1123 C 0.71265 0.00086 0.74447 0.0
C1124 C 0.72645 0.98403 0.73029 0.0
C1125 C 0.70047 0.96641 0.72805 0.0
C1126 C 0.65639 0.01757 0.77085 0.0
C1127 C 0.76894 0.98447 0.71776 0.0
C1128 C 0.76234 0.05354 0.73307 0.0
C1129 C 0.79516 0.05431 0.74994 0.0
C1130 C 0.73537 0.03632 0.7312 0.0
C1131 C 0.74028 0.01957 0.74711 0.0
C1132 C 0.77266 0.02039 0.76466 0.0
C1133 C 0.80034 0.03765 0.7656 0.0
C1134 C 0.70247 0.0358 0.71167 0.0
C1135 C 0.77816 0.00301 0.7823 0.0
H1136 H 0.61541 0.98153 0.76097 0.0
H1137 H 0.71183 0.95309 0.71814 0.0
H1138 H 0.67892 0.01985 0.78576 0.0
H1139 H 0.65543 0.03232 0.76073 0.0
H1140 H 0.62416 0.01451 0.77818 0.0
H1141 H 0.77396 0.97055 0.70648 0.0
H1142 H 0.77128 0.99853 0.70647 0.0
H1143 H 0.79508 0.98529 0.73092 0.0
H1144 H 0.75853 0.06623 0.72061 0.0
H1145 H 0.82563 0.0382 0.77865 0.0
H1146 H 0.67015 0.03384 0.71926 0.0
H1147 H 0.70844 0.02229 0.69993 0.0
H1148 H 0.7028 0.05014 0.70074 0.0
H1149 H 0.74742 0.99975 0.79127 0.0
H1150 H 0.80252 0.0067 0.79593 0.0
H1151 H 0.78784 0.9886 0.773 0.0
C1152 C 0.72089 0.78935 0.97636 0.0
C1153 C 0.6918 0.79077 -0.00484 0.0
C1154 C 0.74804 0.77226 0.97391 0.0
C1155 C 0.74716 0.75633 0.9911 0.0
C1156 C 0.71806 0.75768 0.01032 0.0
C1157 C 0.69005 0.77478 0.01191 0.0
C1158 C 0.7773 0.77116 0.9527 0.0
C1159 C 0.71693 0.74121 0.0293 0.0
C1160 C 0.7896 0.70303 0.97425 0.0
C1161 C 0.83127 0.70376 0.98308 0.0
C1162 C 0.76216 0.72014 0.9764 0.0
C1163 C 0.77624 0.73815 0.98848 0.0
C1164 C 0.81859 0.73905 -0.00283 0.0
C1165 C 0.84586 0.72191 -0.00595 0.0
C1166 C 0.71791 0.7188 0.96604 0.0
C1167 C 0.83456 0.7578 0.01053 0.0
H1168 H 0.72189 0.80156 0.96313 0.0
H1169 H 0.66769 0.7759 0.02646 0.0
H1170 H 0.81098 0.77075 0.95859 0.0
H1171 H 0.77122 0.75665 0.94265 0.0
H1172 H 0.77313 0.78458 0.94056 0.0
H1173 H 0.69379 0.74493 0.04355 0.0
H1174 H 0.70822 0.72601 0.02143 0.0
H1175 H 0.74904 0.73945 0.03727 0.0
H1176 H 0.77821 0.68886 0.96602 0.0
H1177 H 0.87771 0.72225 0.00145 0.0
H1178 H 0.71233 0.73204 0.95384 0.0
H1179 H 0.69386 0.71987 0.98036 0.0
H1180 H 0.71265 0.7041 0.95618 0.0
H1181 H 0.83255 0.77184 -0.00079 0.0
H1182 H 0.86803 0.75592 0.01654 0.0
H1183 H 0.81411 0.76059 0.02623 0.0
C1184 C 0.31057 0.53317 0.75672 0.0
C1185 C 0.30597 0.55028 0.74164 0.0
C1186 C 0.28107 0.51665 0.75604 0.0
C1187 C 0.24703 0.51709 0.73948 0.0
C1188 C 0.24283 0.53422 0.72402 0.0
C1189 C 0.27197 0.55065 0.72549 0.0
C1190 C 0.28617 0.49878 0.77307 0.0
C1191 C 0.20791 0.53508 0.70564 0.0
C1192 C 0.19897 0.4651 0.72225 0.0
C1193 C 0.16096 0.46496 0.73523 0.0
C1194 C 0.22659 0.48221 0.72294 0.0
C1195 C 0.21663 0.49935 0.73761 0.0
C1196 C 0.1776 0.49953 0.75028 0.0
C1197 C 0.1499 0.48238 0.74871 0.0
C1198 C 0.26708 0.48164 0.70852 0.0
C1199 C 0.16613 0.51738 0.76637 0.0
H1200 H 0.33665 0.53289 0.76928 0.0
H1201 H 0.26846 0.56374 0.71357 0.0
H1202 H 0.2564 0.49661 0.78338 0.0
H1203 H 0.29191 0.48419 0.76313 0.0
H1204 H 0.31299 0.50122 0.7856 0.0
H1205 H 0.20918 0.5495 0.69486 0.0
H1206 H 0.21053 0.52153 0.69359 0.0
H1207 H 0.17628 0.53416 0.71431 0.0
H1208 H 0.2077 0.45146 0.71207 0.0
H1209 H 0.12105 0.482 0.75925 0.0
H1210 H 0.29507 0.4814 0.72049 0.0
H1211 H 0.26966 0.49582 0.69745 0.0
H1212 H 0.26864 0.46782 0.69678 0.0
H1213 H 0.19023 0.51873 0.78065 0.0
H1214 H 0.13423 0.51539 0.77457 0.0
H1215 H 0.16648 0.53221 0.75638 0.0
C1216 C 0.95429 0.53708 0.46592 0.0
C1217 C 0.96119 0.55439 0.48044 0.0
C1218 C 0.9825 0.52003 0.46641 0.0
C1219 C 0.01766 0.52013 0.48223 0.0
C1220 C 0.02502 0.53774 0.49659 0.0
C1221 C 0.99711 0.55467 0.49531 0.0
C1222 C 0.97417 0.50172 0.4504 0.0
C1223 C 0.06132 0.53834 0.51414 0.0
C1224 C 0.05786 0.46759 0.50323 0.0
C1225 C 0.09566 0.46538 0.49035 0.0
C1226 C 0.03281 0.48554 0.50116 0.0
C1227 C 0.04506 0.50135 0.48511 0.0
C1228 C 0.08367 0.49931 0.47228 0.0
C1229 C 0.10885 0.48139 0.47528 0.0
C1230 C 0.99272 0.48734 0.51579 0.0
C1231 C 0.09737 0.51559 0.45463 0.0
H1232 H 0.92674 0.53678 0.45436 0.0
H1233 H 1.00269 0.5679 0.50675 0.0
H1234 H 0.00353 0.4976 0.44052 0.0
H1235 H 0.96515 0.48801 0.46118 0.0
H1236 H 0.94824 0.50487 0.43751 0.0
H1237 H 0.06365 0.55352 0.5234 0.0
H1238 H 0.05684 0.52597 0.5276 0.0
H1239 H 0.09201 0.53525 0.50509 0.0
H1240 H 0.04739 0.45498 0.51457 0.0
H1241 H 0.13746 0.47935 0.46479 0.0
H1242 H 0.96448 0.48766 0.504 0.0
H1243 H 0.99292 0.50211 0.52592 0.0
H1244 H 0.98905 0.47424 0.52843 0.0
H1245 H 0.07309 0.51691 0.44043 0.0
H1246 H 0.1286 0.5119 0.4464 0.0
H1247 H 0.09964 0.531 0.46332 0.0
C1248 C 0.32069 0.71038 0.46964 0.0
C1249 C 0.31502 0.69366 0.48518 0.0
C1250 C 0.29305 0.72765 0.47041 0.0
C1251 C 0.25989 0.72834 0.4875 0.0
C1252 C 0.25402 0.7114 0.50304 0.0
C1253 C 0.28123 0.69427 0.5015 0.0
C1254 C 0.29963 0.74527 0.45319 0.0
C1255 C 0.21993 0.71167 0.52194 0.0
C1256 C 0.22116 0.78132 0.50769 0.0
C1257 C 0.18166 0.78282 0.49635 0.0
C1258 C 0.24659 0.76355 0.50523 0.0
C1259 C 0.23282 0.74719 0.49032 0.0
C1260 C 0.19256 0.74853 0.47904 0.0
C1261 C 0.16712 0.76627 0.48246 0.0
C1262 C 0.28849 0.76244 0.5183 0.0
C1263 C 0.17714 0.7316 0.46266 0.0
H1264 H 0.34658 0.70997 0.45696 0.0
H1265 H 0.27664 0.68151 0.51377 0.0
H1266 H 0.2693 0.74891 0.444 0.0
H1267 H 0.3095 0.75944 0.46291 0.0
H1268 H 0.3243 0.74162 0.43973 0.0
H1269 H 0.21897 0.69702 0.53231 0.0
H1270 H 0.22574 0.72476 0.5343 0.0
H1271 H 0.18817 0.71418 0.51384 0.0
H1272 H 0.23257 0.79431 0.51814 0.0
H1273 H 0.13709 0.76775 0.47313 0.0
H1274 H 0.31515 0.76158 0.50546 0.0
H1275 H 0.2897 0.74816 0.52928 0.0
H1276 H 0.29365 0.7761 0.52997 0.0
H1277 H 0.2 0.72967 0.44785 0.0
H1278 H 0.14516 0.73501 0.4552 0.0
H1279 H 0.17566 0.71656 0.47221 0.0
C1280 C 0.76124 0.55171 0.26048 0.0
C1281 C 0.80469 0.54905 0.25562 0.0
C1282 C 0.73246 0.53509 0.25866 0.0
C1283 C 0.74726 0.51541 0.25112 0.0
C1284 C 0.79134 0.51252 0.24664 0.0
C1285 C 0.81967 0.52935 0.24923 0.0
C1286 C 0.68609 0.5387 0.26441 0.0
C1287 C 0.80834 0.49186 0.2383 0.0
C1288 C 0.68307 0.46708 0.26548 0.0
C1289 C 0.66123 0.46334 0.24424 0.0
C1290 C 0.71027 0.48417 0.26807 0.0
C1291 C 0.71679 0.4977 0.2487 0.0
C1292 C 0.6943 0.49421 0.22721 0.0
C1293 C 0.66626 0.47713 0.22531 0.0
C1294 C 0.73249 0.48755 0.29148 0.0
C1295 C 0.70093 0.50813 0.20605 0.0
H1296 H 0.74957 0.567 0.26525 0.0
H1297 H 0.85308 0.52738 0.24494 0.0
H1298 H 0.66636 0.53612 0.2484 0.0
H1299 H 0.67529 0.52743 0.27802 0.0
H1300 H 0.68007 0.55467 0.27104 0.0
H1301 H 0.84331 0.4922 0.23533 0.0
H1302 H 0.80103 0.47961 0.25149 0.0
H1303 H 0.79244 0.48737 0.22151 0.0
H1304 H 0.67905 0.4564 0.28018 0.0
H1305 H 0.64978 0.47408 0.20881 0.0
H1306 H 0.72604 0.50347 0.29809 0.0
H1307 H 0.76744 0.48614 0.28913 0.0
H1308 H 0.7222 0.47621 0.30516 0.0
H1309 H 0.69331 0.52444 0.21073 0.0
H1310 H 0.68097 0.50344 0.19072 0.0
H1311 H 0.7349 0.50772 0.20065 0.0
C1312 C 0.72419 0.28773 0.46961 0.0
C1313 C 0.69287 0.28771 0.48736 0.0
C1314 C 0.75261 0.27113 0.46696 0.0
C1315 C 0.75059 0.25422 0.48287 0.0
C1316 C 0.71908 0.25408 0.50092 0.0
C1317 C 0.69007 0.27073 0.50274 0.0
C1318 C 0.78463 0.27165 0.447 0.0
C1319 C 0.71647 0.23648 0.5185 0.0
C1320 C 0.7981 0.20203 0.46571 0.0
C1321 C 0.83778 0.20267 0.47701 0.0
C1322 C 0.77003 0.21897 0.4668 0.0
C1323 C 0.78125 0.23666 0.48034 0.0
C1324 C 0.82184 0.23756 0.49133 0.0
C1325 C 0.84992 0.22062 0.48925 0.0
C1326 C 0.72785 0.21766 0.45405 0.0
C1327 C 0.83473 0.25595 0.50627 0.0
H1328 H 0.72615 0.30072 0.45744 0.0
H1329 H 0.66601 0.27071 0.5165 0.0
H1330 H 0.81745 0.27141 0.45424 0.0
H1331 H 0.78095 0.25764 0.43574 0.0
H1332 H 0.78107 0.28565 0.43567 0.0
H1333 H 0.6911 0.23897 0.53191 0.0
H1334 H 0.71005 0.22167 0.50914 0.0
H1335 H 0.74744 0.23473 0.52776 0.0
H1336 H 0.78854 0.18798 0.45655 0.0
H1337 H 0.88013 0.22084 0.49855 0.0
H1338 H 0.72317 0.23159 0.44277 0.0
H1339 H 0.70149 0.21735 0.46711 0.0
H1340 H 0.72547 0.20358 0.44276 0.0
H1341 H 0.83285 0.27046 0.49574 0.0
H1342 H 0.86756 0.25439 0.51338 0.0
H1343 H 0.81231 0.25762 0.52134 0.0
C1344 C 0.43725 0.21197 0.72145 0.0
C1345 C 0.41523 0.20753 0.74243 0.0
C1346 C 0.46571 0.22868 0.72002 0.0
C1347 C 0.47312 0.24105 0.74028 0.0
C1348 C 0.45025 0.2369 0.76147 0.0
C1349 C 0.42119 0.22019 0.76225 0.0
C1350 C 0.48851 0.23279 0.69694 0.0
C1351 C 0.45756 0.24968 0.78348 0.0
C1352 C 0.57742 0.27154 0.74247 0.0
C1353 C 0.56347 0.29158 0.7368 0.0
C1354 C 0.54832 0.2549 0.74379 0.0
C1355 C 0.50451 0.25842 0.73903 0.0
C1356 C 0.49075 0.27849 0.73238 0.0
C1357 C 0.5203 0.29479 0.73147 0.0
C1358 C 0.5642 0.23368 0.75093 0.0
C1359 C 0.44462 0.28286 0.72663 0.0
H1360 H 0.43274 0.20201 0.70616 0.0
H1361 H 0.40475 0.21646 0.77858 0.0
H1362 H 0.48309 0.24906 0.69121 0.0
H1363 H 0.52332 0.2308 0.69938 0.0
H1364 H 0.4778 0.22223 0.68257 0.0
H1365 H 0.43693 0.24468 0.7984 0.0
H1366 H 0.49136 0.24837 0.78903 0.0
H1367 H 0.45133 0.26632 0.77974 0.0
H1368 H 0.61061 0.26906 0.74693 0.0
H1369 H 0.50933 0.31028 0.72704 0.0
H1370 H 0.55635 0.22215 0.73702 0.0
H1371 H 0.54796 0.22863 0.76741 0.0
H1372 H 0.59916 0.23347 0.75396 0.0
H1373 H 0.4337 0.27251 0.71214 0.0
H1374 H 0.43931 0.29923 0.72118 0.0
H1375 H 0.42445 0.27954 0.7423 0.0
C1376 C 0.49328 0.0525 0.46847 0.0
C1377 C 0.45069 0.04967 0.47519 0.0
C1378 C 0.52258 0.03607 0.46947 0.0
C1379 C 0.50924 0.01648 0.47809 0.0
C1380 C 0.46588 0.01338 0.48423 0.0
C1381 C 0.43694 0.02998 0.48242 0.0
C1382 C 0.56807 0.03985 0.46194 0.0
C1383 C 0.4505 0.99278 0.49375 0.0
C1384 C 0.57291 0.96795 0.46443 0.0
C1385 C 0.59626 0.96506 0.48533 0.0
C1386 C 0.54557 0.98493 0.4616 0.0
C1387 C 0.54052 0.99918 0.48042 0.0
C1388 C 0.56476 0.99661 0.50147 0.0
C1389 C 0.59287 0.97962 0.50359 0.0
C1390 C 0.52138 0.98735 0.43865 0.0
C1391 C 0.55977 0.01135 0.52203 0.0
H1392 H 0.50397 0.0678 0.46307 0.0
H1393 H 0.40425 0.02792 0.48813 0.0
H1394 H 0.58955 0.03828 0.47742 0.0
H1395 H 0.57798 0.02806 0.44873 0.0
H1396 H 0.57258 0.05554 0.45415 0.0
H1397 H 0.41579 0.99285 0.49758 0.0
H1398 H 0.45729 0.98022 0.48086 0.0
H1399 H 0.46791 0.98897 0.51028 0.0
H1400 H 0.57571 0.95665 0.45027 0.0
H1401 H 0.61055 0.97719 0.51984 0.0
H1402 H 0.52648 0.00312 0.43125 0.0
H1403 H 0.48674 0.98559 0.44193 0.0
H1404 H 0.53114 0.97571 0.42518 0.0
H1405 H 0.56635 0.0275 0.51627 0.0
H1406 H 0.58139 0.00745 0.53696 0.0
H1407 H 0.52641 0.0109 0.52851 0.0
C1408 C 0.57601 0.77127 0.24034 0.0
C1409 C 0.55939 0.79112 0.2362 0.0
C1410 C 0.54875 0.75419 0.24408 0.0
C1411 C 0.50394 0.75702 0.24321 0.0
C1412 C 0.4872 0.77691 0.23811 0.0
C1413 C 0.51508 0.79372 0.23489 0.0
C1414 C 0.56785 0.73322 0.24956 0.0
C1415 C 0.43978 0.78053 0.23634 0.0
C1416 C 0.43691 0.70941 0.23 0.0
C1417 C 0.42108 0.70407 0.2524 0.0
C1418 C 0.46313 0.72677 0.22676 0.0
C1419 C 0.47454 0.73901 0.24653 0.0
C1420 C 0.45787 0.73398 0.26923 0.0
C1421 C 0.43098 0.71654 0.2719 0.0
C1422 C 0.47933 0.73171 0.20221 0.0
C1423 C 0.46956 0.74663 0.29074 0.0
H1424 H 0.61019 0.76928 0.24179 0.0
H1425 H 0.50209 0.80908 0.23175 0.0
H1426 H 0.55616 0.72768 0.26699 0.0
H1427 H 0.55759 0.72171 0.23612 0.0
H1428 H 0.60321 0.73365 0.24995 0.0
H1429 H 0.43194 0.79687 0.23179 0.0
H1430 H 0.42586 0.7702 0.22265 0.0
H1431 H 0.42426 0.7766 0.2534 0.0
H1432 H 0.42926 0.69966 0.21492 0.0
H1433 H 0.41924 0.71219 0.28925 0.0
H1434 H 0.51454 0.73042 0.20179 0.0
H1435 H 0.47112 0.74794 0.19741 0.0
H1436 H 0.4659 0.72115 0.18857 0.0
H1437 H 0.5045 0.74596 0.29358 0.0
H1438 H 0.45333 0.741 0.30699 0.0
H1439 H 0.46106 0.76316 0.28791 0.0
C1440 C 0.54642 0.45455 0.01159 0.0
C1441 C 0.58926 0.45753 0.00535 0.0
C1442 C 0.51692 0.47086 0.01048 0.0
C1443 C 0.53037 0.49065 0.00262 0.0
C1444 C 0.57399 0.49399 -0.00284 0.0
C1445 C 0.60308 0.47738 -0.00125 0.0
C1446 C 0.47107 0.46671 0.01709 0.0
C1447 C 0.58955 0.5149 0.98873 0.0
C1448 C 0.44586 0.52746 0.97777 0.0
C1449 C 0.44048 0.54112 -0.00322 0.0
C1450 C 0.47522 0.51092 0.97935 0.0
C1451 C 0.49882 0.50789 0.00055 0.0
C1452 C 0.49196 0.52125 0.02002 0.0
C1453 C 0.46331 0.53779 0.01777 0.0
C1454 C 0.48191 0.49705 0.95815 0.0
C1455 C 0.51536 0.51829 0.04314 0.0
H1456 H 0.53563 0.43918 0.01666 0.0
H1457 H 0.63598 0.47963 -0.00647 0.0
H1458 H 0.4604 0.47794 0.03075 0.0
H1459 H 0.45036 0.4689 0.00138 0.0
H1460 H 0.46624 0.45072 0.02397 0.0
H1461 H 0.62448 0.51509 0.9856 0.0
H1462 H 0.57312 0.51911 0.97202 0.0
H1463 H 0.58167 0.52705 0.00195 0.0
H1464 H 0.42861 0.53023 0.96146 0.0
H1465 H 0.45902 0.54841 0.03249 0.0
H1466 H 0.47546 0.48065 0.96299 0.0
H1467 H 0.51562 0.49795 0.95234 0.0
H1468 H 0.46108 0.50138 0.94305 0.0
H1469 H 0.51004 0.50234 0.04995 0.0
H1470 H 0.50504 0.52956 0.05688 0.0
H1471 H 0.55011 0.52014 0.04031 0.0
C1472 C 0.15927 0.39551 0.40554 0.0
C1473 C 0.13197 0.38894 0.42366 0.0
C1474 C 0.15509 0.38774 0.38257 0.0
C1475 C 0.12232 0.37333 0.37758 0.0
C1476 C 0.09503 0.36635 0.39589 0.0
C1477 C 0.10048 0.37413 0.4189 0.0
C1478 C 0.18546 0.39514 0.3636 0.0
C1479 C 0.05957 0.35109 0.39105 0.0
C1480 C 0.09067 0.37037 0.31296 0.0
C1481 C 0.11288 0.35266 0.30567 0.0
C1482 C 0.09217 0.37689 0.33663 0.0
C1483 C 0.11703 0.36558 0.35311 0.0
C1484 C 0.13923 0.3476 0.34583 0.0
C1485 C 0.13664 0.34128 0.3222 0.0
C1486 C 0.06778 0.39605 0.34395 0.0
C1487 C 0.16674 0.33539 0.3628 0.0
H1488 H 0.18388 0.40686 0.40931 0.0
H1489 H 0.07924 0.36918 0.43294 0.0
H1490 H 0.20164 0.38168 0.35528 0.0
H1491 H 0.16756 0.40331 0.34945 0.0
H1492 H 0.21012 0.40586 0.37065 0.0
H1493 H 0.04146 0.34707 0.40731 0.0
H1494 H 0.03719 0.35775 0.37788 0.0
H1495 H 0.0727 0.33662 0.38331 0.0
H1496 H 0.0721 0.37909 0.30019 0.0
H1497 H 0.154 0.32759 0.31659 0.0
H1498 H 0.09036 0.40838 0.34948 0.0
H1499 H 0.04717 0.39252 0.35939 0.0
H1500 H 0.04758 0.4022 0.3294 0.0
H1501 H 0.19327 0.3453 0.3692 0.0
H1502 H 0.18045 0.32125 0.35451 0.0
H1503 H 0.14793 0.33066 0.37852 0.0
C1504 C 0.14621 0.87806 0.31495 0.0
C1505 C 0.12201 0.8959 0.31058 0.0
C1506 C 0.15205 0.87086 0.33816 0.0
C1507 C 0.13284 0.8817 0.35718 0.0
C1508 C 0.10847 0.89973 0.35281 0.0
C1509 C 0.10343 0.90663 0.32954 0.0
C1510 C 0.17828 0.85156 0.34232 0.0
C1511 C 0.08694 0.91147 0.37264 0.0
C1512 C 0.10627 0.85083 0.41189 0.0
C1513 C 0.13834 0.85714 0.42754 0.0
C1514 C 0.10403 0.85888 0.389 0.0
C1515 C 0.13517 0.87329 0.38149 0.0
C1516 C 0.16749 0.8799 0.39729 0.0
C1517 C 0.1684 0.87188 0.4204 0.0
C1518 C 0.06838 0.8519 0.37286 0.0
C1519 C 0.20136 0.89514 0.38965 0.0
H1520 H 0.16083 0.86986 0.3003 0.0
H1521 H 0.08466 0.92046 0.32621 0.0
H1522 H 0.20362 0.85475 0.35552 0.0
H1523 H 0.15781 0.83909 0.3497 0.0
H1524 H 0.19333 0.84574 0.32581 0.0
H1525 H 0.07059 0.92572 0.36628 0.0
H1526 H 0.06307 0.90133 0.38138 0.0
H1527 H 0.11061 0.91597 0.38628 0.0
H1528 H 0.08271 0.83957 0.4176 0.0
H1529 H 0.19328 0.87659 0.43258 0.0
H1530 H 0.08174 0.8443 0.35689 0.0
H1531 H 0.04974 0.86554 0.36679 0.0
H1532 H 0.04633 0.84084 0.38168 0.0
H1533 H 0.219 0.88883 0.37423 0.0
H1534 H 0.22445 0.89856 0.40403 0.0
H1535 H 0.18641 0.90991 0.3839 0.0
C1536 C 0.09005 0.86421 0.816 0.0
C1537 C 0.11997 0.84887 0.81052 0.0
C1538 C 0.08754 0.87235 0.839 0.0
C1539 C 0.11651 0.86532 0.85648 0.0
C1540 C 0.1469 0.84988 0.85089 0.0
C1541 C 0.14788 0.84166 0.82802 0.0
C1542 C 0.05428 0.88854 0.84457 0.0
C1543 C 0.17918 0.84247 0.86885 0.0
C1544 C 0.1469 0.90119 0.90644 0.0
C1545 C 0.12563 0.89216 0.92568 0.0
C1546 C 0.14339 0.89282 0.88373 0.0
C1547 C 0.11754 0.87513 0.88013 0.0
C1548 C 0.09531 0.86612 0.89939 0.0
C1549 C 0.09991 0.87468 0.9221 0.0
C1550 C 0.16828 0.9026 0.86371 0.0
C1551 C 0.06714 0.84735 0.89602 0.0
H1552 H 0.06828 0.8696 0.80243 0.0
H1553 H 0.17127 0.82987 0.82367 0.0
H1554 H 0.03557 0.88379 0.86033 0.0
H1555 H 0.06998 0.9035 0.84892 0.0
H1556 H 0.03209 0.89112 0.82954 0.0
H1557 H 0.20002 0.83 0.86174 0.0
H1558 H 0.19957 0.85566 0.87448 0.0
H1559 H 0.1628 0.83652 0.88486 0.0
H1560 H 0.16693 0.9147 0.90917 0.0
H1561 H 0.08324 0.8678 0.93696 0.0
H1562 H 0.14652 0.90702 0.84909 0.0
H1563 H 0.19137 0.89121 0.85646 0.0
H1564 H 0.18607 0.91665 0.86943 0.0
H1565 H 0.04373 0.85029 0.88169 0.0
H1566 H 0.04964 0.84316 0.91243 0.0
H1567 H 0.08672 0.83385 0.89052 0.0
C1568 C 0.09806 0.39903 0.82577 0.0
C1569 C 0.12629 0.39268 0.80803 0.0
C1570 C 0.10281 0.39211 0.84904 0.0
C1571 C 0.13726 0.37889 0.85472 0.0
C1572 C 0.16566 0.37219 0.83679 0.0
C1573 C 0.15947 0.379 0.81344 0.0
C1574 C 0.0711 0.39905 0.86755 0.0
C1575 C 0.20298 0.35827 0.8424 0.0
C1576 C 0.16652 0.37818 0.9198 0.0
C1577 C 0.1464 0.35992 0.92722 0.0
C1578 C 0.16524 0.38419 0.89593 0.0
C1579 C 0.14264 0.37179 0.87943 0.0
C1580 C 0.12241 0.35333 0.8869 0.0
C1581 C 0.1248 0.34754 0.91069 0.0
C1582 C 0.18752 0.40389 0.8884 0.0
C1583 C 0.09717 0.33999 0.86993 0.0
H1584 H 0.07218 0.40951 0.82143 0.0
H1585 H 0.18143 0.3743 0.79964 0.0
H1586 H 0.05634 0.38532 0.87616 0.0
H1587 H 0.0876 0.40803 0.88157 0.0
H1588 H 0.04539 0.40886 0.85998 0.0
H1589 H 0.22218 0.35455 0.82643 0.0
H1590 H 0.22391 0.36591 0.85562 0.0
H1591 H 0.19161 0.34353 0.85038 0.0
H1592 H 0.18344 0.38765 0.93257 0.0
H1593 H 0.10901 0.33343 0.91642 0.0
H1594 H 0.16369 0.41542 0.88228 0.0
H1595 H 0.20912 0.40069 0.87329 0.0
H1596 H 0.20634 0.41091 0.90301 0.0
H1597 H 0.06986 0.34898 0.86285 0.0
H1598 H 0.08471 0.32567 0.87846 0.0
H1599 H 0.11725 0.33544 0.85464 0.0
C1600 C 0.88109 0.61133 0.66748 0.0
C1601 C 0.85545 0.62698 0.67701 0.0
C1602 C 0.87988 0.60697 0.64319 0.0
C1603 C 0.85161 0.61823 0.62844 0.0
C1604 C 0.82334 0.63291 0.63838 0.0
C1605 C 0.826 0.63731 0.66259 0.0
C1606 C 0.91074 0.59132 0.6331 0.0
C1607 C 0.79184 0.64471 0.62332 0.0
C1608 C 0.88632 0.62576 0.56487 0.0
C1609 C 0.86485 0.60948 0.55367 0.0
C1610 C 0.88174 0.62898 0.58926 0.0
C1611 C 0.85421 0.6159 0.60243 0.0
C1612 C 0.83067 0.60017 0.59089 0.0
C1613 C 0.83671 0.59697 0.56662 0.0
C1614 C 0.90762 0.64581 0.60108 0.0
C1615 C 0.80004 0.58639 0.60425 0.0
H1616 H 0.90395 0.60344 0.67871 0.0
H1617 H 0.80585 0.64928 0.67013 0.0
H1618 H 0.8936 0.57973 0.62213 0.0
H1619 H 0.93386 0.59936 0.62139 0.0
H1620 H 0.9287 0.58299 0.64713 0.0
H1621 H 0.76833 0.65336 0.63421 0.0
H1622 H 0.80911 0.656 0.612 0.0
H1623 H 0.77443 0.63397 0.61139 0.0
H1624 H 0.90814 0.63535 0.55478 0.0
H1625 H 0.81973 0.58451 0.55779 0.0
H1626 H 0.92925 0.6388 0.61441 0.0
H1627 H 0.88633 0.65672 0.6106 0.0
H1628 H 0.92707 0.6548 0.58823 0.0
H1629 H 0.81792 0.57636 0.61673 0.0
H1630 H 0.78118 0.57629 0.59224 0.0
H1631 H 0.77777 0.59596 0.61491 0.0
C1632 C 0.9 0.10218 0.66221 0.0
C1633 C 0.87343 0.11391 0.67696 0.0
C1634 C 0.90387 0.10691 0.63818 0.0
C1635 C 0.87983 0.12348 0.62869 0.0
C1636 C 0.85325 0.13554 0.64357 0.0
C1637 C 0.85076 0.13074 0.66773 0.0
C1638 C 0.93346 0.09412 0.62294 0.0
C1639 C 0.82686 0.1532 0.63387 0.0
C1640 C 0.91467 0.148 0.5712 0.0
C1641 C 0.88759 0.13823 0.55494 0.0
C1642 C 0.91299 0.14304 0.59526 0.0
C1643 C 0.88287 0.12829 0.60318 0.0
C1644 C 0.85581 0.11814 0.58678 0.0
C1645 C 0.85887 0.12309 0.56267 0.0
C1646 C 0.94314 0.15372 0.61219 0.0
C1647 C 0.82305 0.10247 0.59478 0.0
H1648 H 0.91788 0.08927 0.6695 0.0
H1649 H 0.83007 0.13969 0.67922 0.0
H1650 H 0.91507 0.08615 0.60885 0.0
H1651 H 0.95697 0.10436 0.61406 0.0
H1652 H 0.95099 0.08221 0.63332 0.0
H1653 H 0.80743 0.16087 0.64778 0.0
H1654 H 0.84787 0.16501 0.62561 0.0
H1655 H 0.80523 0.14733 0.61984 0.0
H1656 H 0.93719 0.1596 0.5651 0.0
H1657 H 0.83783 0.11566 0.55002 0.0
H1658 H 0.96159 0.142 0.62229 0.0
H1659 H 0.92482 0.16301 0.62521 0.0
H1660 H 0.96584 0.16419 0.60294 0.0
H1661 H 0.83887 0.08943 0.60412 0.0
H1662 H 0.80434 0.09606 0.57977 0.0
H1663 H 0.80079 0.10982 0.60752 0.0
C1664 C 0.87836 0.11777 0.16729 0.0
C1665 C 0.85314 0.1338 0.17633 0.0
C1666 C 0.87902 0.11364 0.14297 0.0
C1667 C 0.85303 0.12554 0.12761 0.0
C1668 C 0.82535 0.1408 0.13691 0.0
C1669 C 0.82612 0.14493 0.16122 0.0
C1670 C 0.90916 0.09732 0.13358 0.0
C1671 C 0.79622 0.15329 0.12111 0.0
C1672 C 0.89356 0.1306 0.06485 0.0
C1673 C 0.87186 0.11433 0.0538 0.0
C1674 C 0.88683 0.13483 0.08888 0.0
C1675 C 0.85691 0.1228 0.10173 0.0
C1676 C 0.83293 0.10725 0.09016 0.0
C1677 C 0.84115 0.103 0.06633 0.0
C1678 C 0.91324 0.15142 0.10079 0.0
C1679 C 0.79978 0.09461 0.10313 0.0
H1680 H 0.89931 0.10922 0.17903 0.0
H1681 H 0.80626 0.15721 0.16835 0.0
H1682 H 0.89156 0.08581 0.12274 0.0
H1683 H 0.9332 0.10474 0.12191 0.0
H1684 H 0.92608 0.08896 0.14799 0.0
H1685 H 0.77307 0.16269 0.13143 0.0
H1686 H 0.81543 0.16396 0.10998 0.0
H1687 H 0.77835 0.1429 0.10899 0.0
H1688 H 0.91726 0.13931 0.05503 0.0
H1689 H 0.8239 0.09061 0.05754 0.0
H1690 H 0.93377 0.14423 0.11452 0.0
H1691 H 0.89229 0.16279 0.10984 0.0
H1692 H 0.93387 0.15991 0.08807 0.0
H1693 H 0.81563 0.08414 0.11599 0.0
H1694 H 0.78033 0.085 0.09088 0.0
H1695 H 0.77822 0.10493 0.11331 0.0
C1696 C 0.85651 0.6215 0.06444 0.0
C1697 C 0.88442 0.63721 0.0573 0.0
C1698 C 0.85416 0.61561 0.0883 0.0
C1699 C 0.88116 0.62538 0.10502 0.0
C1700 C 0.91061 0.64066 0.09763 0.0
C1701 C 0.91153 0.64657 0.07384 0.0
C1702 C 0.82206 0.5994 0.09573 0.0
C1703 C 0.94072 0.65097 0.11488 0.0
C1704 C 0.85024 0.62624 0.16978 0.0
C1705 C 0.87385 0.6095 0.17851 0.0
C1706 C 0.8518 0.63141 0.1457 0.0
C1707 C 0.87841 0.61983 0.13035 0.0
C1708 C 0.90311 0.60324 0.13927 0.0
C1709 C 0.90015 0.59813 0.16326 0.0
C1710 C 0.82467 0.64906 0.13662 0.0
C1711 C 0.93276 0.59098 0.12352 0.0
H1712 H 0.83547 0.61438 0.05156 0.0
H1713 H 0.93347 0.6586 0.06817 0.0
H1714 H 0.83837 0.58629 0.10467 0.0
H1715 H 0.79945 0.60621 0.10867 0.0
H1716 H 0.80366 0.59321 0.08049 0.0
H1717 H 0.96322 0.66176 0.10597 0.0
H1718 H 0.92234 0.65985 0.12824 0.0
H1719 H 0.9594 0.63905 0.12454 0.0
H1720 H 0.82976 0.63492 0.18164 0.0
H1721 H 0.91872 0.58527 0.17013 0.0
H1722 H 0.80347 0.64341 0.12228 0.0
H1723 H 0.84522 0.66135 0.12895 0.0
H1724 H 0.80474 0.65607 0.15076 0.0
H1725 H 0.91446 0.58346 0.10908 0.0
H1726 H 0.95035 0.57877 0.1334 0.0
H1727 H 0.95622 0.60155 0.1151 0.0
C1728 C 0.65499 0.40659 0.90987 0.0
C1729 C 0.64141 0.39333 0.92808 0.0
C1730 C 0.65105 0.40085 0.88615 0.0
C1731 C 0.63297 0.38139 0.88052 0.0
C1732 C 0.61918 0.36787 0.89878 0.0
C1733 C 0.62373 0.374 0.92248 0.0
C1734 C 0.66664 0.41552 0.86713 0.0
C1735 C 0.59976 0.34697 0.89325 0.0
C1736 C 0.5923 0.3732 0.81804 0.0
C1737 C 0.62517 0.36121 0.80856 0.0
C1738 C 0.59424 0.37988 0.84165 0.0
C1739 C 0.63042 0.37483 0.85551 0.0
C1740 C 0.66453 0.36354 0.84546 0.0
C1741 C 0.66116 0.35659 0.82214 0.0
C1742 C 0.55717 0.39173 0.85199 0.0
C1743 C 0.70421 0.35847 0.85945 0.0
H1744 H 0.6688 0.42156 0.91414 0.0
H1745 H 0.61312 0.36379 0.93655 0.0
H1746 H 0.69217 0.40796 0.85663 0.0
H1747 H 0.64035 0.41927 0.85474 0.0
H1748 H 0.67931 0.43025 0.87455 0.0
H1749 H 0.58915 0.33867 0.90945 0.0
H1750 H 0.57204 0.34893 0.88128 0.0
H1751 H 0.62332 0.33713 0.88387 0.0
H1752 H 0.56437 0.37647 0.80739 0.0
H1753 H 0.68656 0.34733 0.81451 0.0
H1754 H 0.56816 0.40686 0.85912 0.0
H1755 H 0.54335 0.38286 0.86698 0.0
H1756 H 0.53172 0.39463 0.83873 0.0
H1757 H 0.71835 0.37289 0.8668 0.0
H1758 H 0.72867 0.35049 0.84854 0.0
H1759 H 0.69593 0.34831 0.87464 0.0
C1760 C 0.60413 0.84257 0.90841 0.0
C1761 C 0.62383 0.8549 0.92569 0.0
C1762 C 0.60307 0.84885 0.88474 0.0
C1763 C 0.62267 0.86777 0.87828 0.0
C1764 C 0.64273 0.88027 0.89563 0.0
C1765 C 0.64277 0.87373 0.91928 0.0
C1766 C 0.58059 0.83539 0.86675 0.0
C1767 C 0.66408 0.90052 0.8892 0.0
C1768 C 0.65078 0.8771 0.81396 0.0
C1769 C 0.61855 0.89091 0.80743 0.0
C1770 C 0.65246 0.86922 0.83708 0.0
C1771 C 0.62047 0.87497 0.85351 0.0
C1772 C 0.58667 0.88807 0.84648 0.0
C1773 C 0.58644 0.89611 0.82354 0.0
C1774 C 0.68914 0.85542 0.84419 0.0
C1775 C 0.5513 0.894 0.86332 0.0
H1776 H 0.58923 0.82802 0.9134 0.0
H1777 H 0.65817 0.88319 0.93266 0.0
H1778 H 0.55418 0.84422 0.85844 0.0
H1779 H 0.60294 0.83096 0.85241 0.0
H1780 H 0.56731 0.821 0.87472 0.0
H1781 H 0.67982 0.90795 0.90464 0.0
H1782 H 0.6883 0.89786 0.87522 0.0
H1783 H 0.64022 0.9115 0.8819 0.0
H1784 H 0.67559 0.87323 0.80136 0.0
H1785 H 0.5612 0.90662 0.81821 0.0
H1786 H 0.67705 0.84058 0.85157 0.0
H1787 H 0.70799 0.8631 0.85832 0.0
H1788 H 0.71062 0.8519 0.82909 0.0
H1789 H 0.53672 0.87986 0.87111 0.0
H1790 H 0.52592 0.90319 0.8545 0.0
H1791 H 0.56445 0.90331 0.87813 0.0
C1792 C 0.68171 0.89869 0.40742 0.0
C1793 C 0.65415 0.89087 0.42474 0.0
C1794 C 0.68045 0.89112 0.38427 0.0
C1795 C 0.65037 0.87564 0.37837 0.0
C1796 C 0.62349 0.86713 0.39601 0.0
C1797 C 0.62601 0.87476 0.4192 0.0
C1798 C 0.71032 0.90016 0.36599 0.0
C1799 C 0.59091 0.85065 0.39019 0.0
C1800 C 0.61446 0.8735 0.31453 0.0
C1801 C 0.63669 0.8561 0.30643 0.0
C1802 C 0.61841 0.87997 0.33809 0.0
C1803 C 0.64593 0.86898 0.35351 0.0
C1804 C 0.66942 0.85178 0.34516 0.0
C1805 C 0.66418 0.84541 0.3217 0.0
C1806 C 0.59266 0.89832 0.3466 0.0
C1807 C 0.69988 0.84007 0.36099 0.0
H1808 H 0.70386 0.91102 0.41188 0.0
H1809 H 0.60468 0.8688 0.43268 0.0
H1810 H 0.72755 0.88755 0.35663 0.0
H1811 H 0.69179 0.90884 0.35252 0.0
H1812 H 0.73408 0.91087 0.37395 0.0
H1813 H 0.57371 0.84507 0.40615 0.0
H1814 H 0.5673 0.85698 0.37748 0.0
H1815 H 0.6065 0.83719 0.38152 0.0
H1816 H 0.59311 0.88166 0.30266 0.0
H1817 H 0.68172 0.83204 0.31527 0.0
H1818 H 0.61421 0.91068 0.35321 0.0
H1819 H 0.57202 0.89355 0.36159 0.0
H1820 H 0.57227 0.90495 0.33242 0.0
H1821 H 0.72395 0.85088 0.36842 0.0
H1822 H 0.71671 0.82741 0.35145 0.0
H1823 H 0.68233 0.83321 0.37613 0.0
C1824 C 0.6313 0.37542 0.4202 0.0
C1825 C 0.60717 0.35834 0.42751 0.0
C1826 C 0.62728 0.38313 0.39712 0.0
C1827 C 0.59777 0.37374 0.38146 0.0
C1828 C 0.57143 0.35734 0.38935 0.0
C1829 C 0.57682 0.34966 0.41228 0.0
C1830 C 0.65603 0.40059 0.38914 0.0
C1831 C 0.53878 0.34738 0.37331 0.0
C1832 C 0.57036 0.40347 0.32591 0.0
C1833 C 0.59667 0.39372 0.30925 0.0
C1834 C 0.56954 0.39679 0.34945 0.0
C1835 C 0.59625 0.38023 0.35642 0.0
C1836 C 0.62217 0.37001 0.33953 0.0
C1837 C 0.62175 0.37679 0.31598 0.0
C1838 C 0.54075 0.40767 0.36692 0.0
C1839 C 0.6512 0.35233 0.34648 0.0
H1840 H 0.65478 0.38204 0.43208 0.0
H1841 H 0.55775 0.3366 0.41818 0.0
H1842 H 0.67765 0.3949 0.37502 0.0
H1843 H 0.63692 0.41343 0.3815 0.0
H1844 H 0.67566 0.40687 0.40386 0.0
H1845 H 0.51784 0.33636 0.38299 0.0
H1846 H 0.51862 0.35943 0.36485 0.0
H1847 H 0.55518 0.3388 0.35893 0.0
H1848 H 0.55062 0.41647 0.32058 0.0
H1849 H 0.64214 0.36932 0.30305 0.0
H1850 H 0.5602 0.41553 0.38064 0.0
H1851 H 0.52023 0.39619 0.37612 0.0
H1852 H 0.52006 0.41943 0.35827 0.0
H1853 H 0.67433 0.35773 0.36 0.0
H1854 H 0.66915 0.34601 0.33115 0.0
H1855 H 0.63239 0.33958 0.35454 0.0
C1856 C 0.39117 0.62387 0.17386 0.0
C1857 C 0.3665 0.64055 0.18176 0.0
C1858 C 0.3935 0.61916 0.14971 0.0
C1859 C 0.37002 0.63126 0.13335 0.0
C1860 C 0.34466 0.64797 0.1413 0.0
C1861 C 0.3434 0.6525 0.16547 0.0
C1862 C 0.42101 0.60125 0.14169 0.0
C1863 C 0.31853 0.66088 0.12433 0.0
C1864 C 0.4026 0.6277 0.06899 0.0
C1865 C 0.37533 0.61199 0.06114 0.0
C1866 C 0.40072 0.63456 0.09252 0.0
C1867 C 0.37029 0.62569 0.10804 0.0
C1868 C 0.34111 0.61069 0.09968 0.0
C1869 C 0.34427 0.60388 0.07632 0.0
C1870 C 0.43241 0.65053 0.10105 0.0
C1871 C 0.30756 0.60129 0.1156 0.0
H1872 H 0.40923 0.61475 0.18649 0.0
H1873 H 0.32416 0.66539 0.17163 0.0
H1874 H 0.40092 0.58918 0.13322 0.0
H1875 H 0.44423 0.60666 0.12823 0.0
H1876 H 0.43875 0.59402 0.15657 0.0
H1877 H 0.30108 0.6736 0.13342 0.0
H1878 H 0.33941 0.6678 0.11059 0.0
H1879 H 0.29508 0.65086 0.11509 0.0
H1880 H 0.42661 0.63387 0.05712 0.0
H1881 H 0.32279 0.5919 0.07 0.0
H1882 H 0.45371 0.64342 0.11446 0.0
H1883 H 0.41568 0.66363 0.10976 0.0
H1884 H 0.45227 0.65677 0.0864 0.0
H1885 H 0.32309 0.59199 0.1297 0.0
H1886 H 0.28524 0.59105 0.10577 0.0
H1887 H 0.2889 0.61369 0.12443 0.0
C1888 C 0.41774 0.10223 0.16933 0.0
C1889 C 0.39147 0.11513 0.18298 0.0
C1890 C 0.42386 0.10603 0.1452 0.0
C1891 C 0.40276 0.12299 0.13455 0.0
C1892 C 0.37703 0.13639 0.14838 0.0
C1893 C 0.37192 0.13237 0.17259 0.0
C1894 C 0.45222 0.09171 0.13106 0.0
C1895 C 0.35408 0.15465 0.13747 0.0
C1896 C 0.43983 0.14578 0.07663 0.0
C1897 C 0.40973 0.13762 0.06086 0.0
C1898 C 0.43917 0.14037 0.10058 0.0
C1899 C 0.40727 0.12671 0.10887 0.0
C1900 C 0.37821 0.11754 0.09278 0.0
C1901 C 0.38 0.12302 0.06878 0.0
C1902 C 0.47128 0.15006 0.11716 0.0
C1903 C 0.34382 0.10286 0.10111 0.0
H1904 H 0.4332 0.08897 0.17745 0.0
H1905 H 0.35155 0.14228 0.18318 0.0
H1906 H 0.43318 0.08363 0.11733 0.0
H1907 H 0.47715 0.1008 0.12176 0.0
H1908 H 0.46797 0.07984 0.14233 0.0
H1909 H 0.33555 0.16363 0.15073 0.0
H1910 H 0.37729 0.16523 0.12889 0.0
H1911 H 0.33198 0.1491 0.1235 0.0
H1912 H 0.46316 0.15693 0.07037 0.0
H1913 H 0.3567 0.11678 0.05653 0.0
H1914 H 0.48654 0.13797 0.12828 0.0
H1915 H 0.45489 0.16102 0.12926 0.0
H1916 H 0.49654 0.15869 0.1075 0.0
H1917 H 0.35788 0.09006 0.11166 0.0
H1918 H 0.32557 0.09605 0.08616 0.0
H1919 H 0.32133 0.1113 0.11281 0.0
C1920 C 0.33793 0.14231 0.66017 0.0
C1921 C 0.36529 0.13468 0.67768 0.0
C1922 C 0.3421 0.13601 0.63664 0.0
C1923 C 0.37494 0.122 0.63051 0.0
C1924 C 0.40195 0.11374 0.64826 0.0
C1925 C 0.3965 0.12006 0.67183 0.0
C1926 C 0.31201 0.14473 0.61827 0.0
C1927 C 0.43745 0.09886 0.6422 0.0
C1928 C 0.36315 0.09425 0.57207 0.0
C1929 C 0.38743 0.1069 0.55705 0.0
C1930 C 0.3593 0.09882 0.59615 0.0
C1931 C 0.38096 0.11624 0.60542 0.0
C1932 C 0.40615 0.1289 0.59041 0.0
C1933 C 0.40869 0.1242 0.56622 0.0
C1934 C 0.33125 0.08532 0.61151 0.0
C1935 C 0.43005 0.14748 0.59988 0.0
H1936 H 0.31355 0.15352 0.66482 0.0
H1937 H 0.41781 0.11432 0.68544 0.0
H1938 H 0.33004 0.15421 0.6053 0.0
H1939 H 0.29655 0.13192 0.60832 0.0
H1940 H 0.28678 0.1546 0.62624 0.0
H1941 H 0.45482 0.09341 0.65816 0.0
H1942 H 0.42458 0.08516 0.63269 0.0
H1943 H 0.46045 0.10658 0.63014 0.0
H1944 H 0.34642 0.08092 0.56492 0.0
H1945 H 0.42768 0.13386 0.55457 0.0
H1946 H 0.30463 0.0947 0.61875 0.0
H1947 H 0.34962 0.07928 0.6268 0.0
H1948 H 0.31766 0.07195 0.60163 0.0
H1949 H 0.40716 0.15922 0.60656 0.0
H1950 H 0.45044 0.15488 0.58619 0.0
H1951 H 0.4504 0.14278 0.61502 0.0
C1952 C 0.36902 0.6337 0.66955 0.0
C1953 C 0.39674 0.61939 0.67991 0.0
C1954 C 0.37348 0.639 0.64559 0.0
C1955 C 0.40692 0.63001 0.63221 0.0
C1956 C 0.43718 0.61703 0.64333 0.0
C1957 C 0.43139 0.61167 0.66706 0.0
C1958 C 0.34059 0.65288 0.63421 0.0
C1959 C 0.47391 0.60763 0.6298 0.0
C1960 C 0.38545 0.62022 0.56731 0.0
C1961 C 0.40559 0.63729 0.55687 0.0
C1962 C 0.38597 0.61761 0.59191 0.0
C1963 C 0.40762 0.6323 0.6062 0.0
C1964 C 0.42954 0.64907 0.59564 0.0
C1965 C 0.4281 0.65142 0.57104 0.0
C1966 C 0.36233 0.59948 0.60266 0.0
C1967 C 0.45362 0.66476 0.61035 0.0
H1968 H 0.34217 0.63953 0.67962 0.0
H1969 H 0.45306 0.60075 0.67535 0.0
H1970 H 0.35622 0.66523 0.62364 0.0
H1971 H 0.32072 0.64356 0.6219 0.0
H1972 H 0.31936 0.66027 0.64749 0.0
H1973 H 0.49781 0.60044 0.64176 0.0
H1974 H 0.46174 0.59547 0.61764 0.0
H1975 H 0.49001 0.61958 0.61882 0.0
H1976 H 0.36797 0.60934 0.55635 0.0
H1977 H 0.44395 0.66459 0.56293 0.0
H1978 H 0.33719 0.60525 0.6148 0.0
H1979 H 0.38446 0.58984 0.61332 0.0
H1980 H 0.34721 0.58944 0.58904 0.0
H1981 H 0.4311 0.67338 0.62185 0.0
H1982 H 0.47121 0.67614 0.59925 0.0
H1983 H 0.47664 0.65677 0.62213 0.0
C1984 C 0.27273 0.35529 0.23925 0.0
C1985 C 0.24597 0.36837 0.2524 0.0
C1986 C 0.31695 0.35902 0.23805 0.0
C1987 C 0.33479 0.37617 0.25034 0.0
C1988 C 0.30796 0.3893 0.26372 0.0
C1989 C 0.26414 0.38524 0.26462 0.0
C1990 C 0.34463 0.34462 0.22367 0.0
C1991 C 0.32558 0.4076 0.27732 0.0
C1992 C 0.45081 0.37367 0.26889 0.0
C1993 C 0.47079 0.38658 0.25219 0.0
C1994 C 0.40679 0.37019 0.2684 0.0
C1995 C 0.38179 0.3797 0.25062 0.0
C1996 C 0.40153 0.39307 0.23391 0.0
C1997 C 0.44587 0.39648 0.23499 0.0
C1998 C 0.38708 0.3562 0.28688 0.0
C1999 C 0.37588 0.40347 0.21469 0.0
H2000 H 0.25911 0.34234 0.22962 0.0
H2001 H 0.24401 0.39547 0.27495 0.0
H2002 H 0.36278 0.35363 0.2103 0.0
H2003 H 0.3682 0.33691 0.23536 0.0
H2004 H 0.32579 0.33246 0.21443 0.0
H2005 H 0.30023 0.41673 0.28625 0.0
H2006 H 0.34841 0.40209 0.29093 0.0
H2007 H 0.34332 0.41806 0.26522 0.0
H2008 H 0.46985 0.36609 0.28237 0.0
H2009 H 0.4612 0.40629 0.22192 0.0
H2010 H 0.37088 0.34291 0.2782 0.0
H2011 H 0.36256 0.36484 0.29702 0.0
H2012 H 0.41102 0.35001 0.29953 0.0
H2013 H 0.35974 0.39153 0.20371 0.0
H2014 H 0.39592 0.41332 0.20299 0.0
H2015 H 0.35065 0.41329 0.22267 0.0
C2016 C 0.78755 0.85374 0.26495 0.0
C2017 C 0.76231 0.86 0.24584 0.0
C2018 C 0.83147 0.85809 0.26537 0.0
C2019 C 0.85034 0.8691 0.2463 0.0
C2020 C 0.82497 0.87487 0.22664 0.0
C2021 C 0.78119 0.87035 0.22673 0.0
C2022 C 0.85737 0.8516 0.28663 0.0
C2023 C 0.84375 0.88646 0.20587 0.0
C2024 C 0.95509 0.89792 0.25721 0.0
C2025 C 0.98484 0.88342 0.24897 0.0
C2026 C 0.91107 0.89351 0.25646 0.0
C2027 C 0.89666 0.87438 0.24681 0.0
C2028 C 0.92664 0.86009 0.23774 0.0
C2029 C 0.97019 0.8647 0.2391 0.0
C2030 C 0.88004 0.90909 0.26647 0.0
C2031 C 0.91278 0.83975 0.22683 0.0
H2032 H 0.77253 0.84633 0.28004 0.0
H2033 H 0.76125 0.87572 0.21229 0.0
H2034 H 0.8847 0.84188 0.28097 0.0
H2035 H 0.87063 0.86556 0.29549 0.0
H2036 H 0.8382 0.84271 0.2997 0.0
H2037 H 0.82016 0.88895 0.1915 0.0
H2038 H 0.85574 0.90181 0.21181 0.0
H2039 H 0.8713 0.87778 0.19856 0.0
H2040 H 0.96625 0.91234 0.26493 0.0
H2041 H 0.99301 0.85353 0.23237 0.0
H2042 H 0.86198 0.90195 0.28127 0.0
H2043 H 0.85657 0.91363 0.25274 0.0
H2044 H 0.89619 0.9233 0.27309 0.0
H2045 H 0.89589 0.8302 0.24021 0.0
H2046 H 0.94006 0.83064 0.21983 0.0
H2047 H 0.8901 0.84267 0.21214 0.0
C2048 C 0.27996 0.85911 0.96882 0.0
C2049 C 0.26513 0.87836 0.9773 0.0
C2050 C 0.32339 0.85404 0.96909 0.0
C2051 C 0.35316 0.86852 0.97801 0.0
C2052 C 0.33868 0.88805 0.98642 0.0
C2053 C 0.29485 0.89276 0.98593 0.0
C2054 C 0.33742 0.83315 0.95973 0.0
C2055 C 0.36952 0.90396 -0.00404 0.0
C2056 C 0.46426 0.8503 -0.00374 0.0
C2057 C 0.48861 0.85683 0.97687 0.0
C2058 C 0.41989 0.85369 -0.00321 0.0
C2059 C 0.39963 0.86362 0.97737 0.0
C2060 C 0.42394 0.86915 0.95726 0.0
C2061 C 0.46802 0.86577 0.95731 0.0
C2062 C 0.395 0.84749 0.01851 0.0
C2063 C 0.40369 0.87941 0.936 0.0
H2064 H 0.2575 0.84782 0.96199 0.0
H2065 H 0.28385 0.90758 -0.00735 0.0
H2066 H 0.35931 0.83532 0.94451 0.0
H2067 H 0.35527 0.82459 0.97358 0.0
H2068 H 0.31015 0.82342 0.95388 0.0
H2069 H 0.35319 0.91818 0.00239 0.0
H2070 H 0.38813 0.89719 0.01077 0.0
H2071 H 0.39253 0.90845 0.98196 0.0
H2072 H 0.48015 0.84368 0.01153 0.0
H2073 H 0.48682 0.87081 0.94225 0.0
H2074 H 0.36748 0.83762 0.01348 0.0
H2075 H 0.38205 0.86158 0.02723 0.0
H2076 H 0.41487 0.83891 0.03151 0.0
H2077 H 0.37679 0.86986 0.92938 0.0
H2078 H 0.4267 0.88177 0.92131 0.0
H2079 H 0.39051 0.89474 0.94116 0.0
C2080 C 0.98378 0.35745 -0.007 0.0
C2081 C 0.00923 0.36859 0.97703 0.0
C2082 C 0.93931 0.36052 -0.00625 0.0
C2083 C 0.91995 0.37498 0.97812 0.0
C2084 C 0.94541 0.38576 0.96154 0.0
C2085 C 0.9895 0.38241 0.96117 0.0
C2086 C 0.91311 0.34859 0.01154 0.0
C2087 C 0.92617 0.4011 0.94435 0.0
C2088 C 0.80235 0.36954 0.96374 0.0
C2089 C 0.7836 0.38482 0.97815 0.0
C2090 C 0.84644 0.36617 0.96369 0.0
C2091 C 0.87289 0.37839 0.97838 0.0
C2092 C 0.85449 0.39424 -0.00747 0.0
C2093 C 0.81 0.39732 0.99221 0.0
C2094 C 0.86464 0.34931 0.94807 0.0
C2095 C 0.88175 0.40771 0.00829 0.0
H2096 H 0.99873 0.3469 0.00543 0.0
H2097 H 0.00878 0.391 0.94861 0.0
H2098 H 0.89662 0.35957 0.02357 0.0
H2099 H 0.88816 0.33945 0.00231 0.0
H2100 H 0.93281 0.33783 0.02234 0.0
H2101 H 0.95043 0.40823 0.93256 0.0
H2102 H 0.9019 0.39329 0.93321 0.0
H2103 H 0.90976 0.41367 0.9542 0.0
H2104 H 0.78234 0.35988 0.95263 0.0
H2105 H 0.79583 0.40903 0.00352 0.0
H2106 H 0.88182 0.33773 0.95903 0.0
H2107 H 0.88807 0.35606 0.93554 0.0
H2108 H 0.83967 0.34113 0.93771 0.0
H2109 H 0.8991 0.39787 0.02121 0.0
H2110 H 0.86269 0.41938 0.01816 0.0
H2111 H 0.90601 0.41596 -0.00246 0.0
C2112 C 0.71857 0.61512 0.76363 0.0
C2113 C 0.73798 0.62765 0.74647 0.0
C2114 C 0.6741 0.61361 0.76514 0.0
C2115 C 0.64852 0.62445 0.74863 0.0
C2116 C 0.66806 0.63762 0.73166 0.0
C2117 C 0.71273 0.63919 0.7309 0.0
C2118 C 0.65457 0.59983 0.78386 0.0
C2119 C 0.6419 0.64929 0.71361 0.0
C2120 C 0.53726 0.60388 0.73506 0.0
C2121 C 0.51185 0.6183 0.74703 0.0
C2122 C 0.58197 0.60554 0.73561 0.0
C2123 C 0.60139 0.62173 0.74884 0.0
C2124 C 0.57569 0.63565 0.76189 0.0
C2125 C 0.53128 0.63389 0.76061 0.0
C2126 C 0.60835 0.59053 0.72127 0.0
C2127 C 0.59504 0.65277 0.77667 0.0
H2128 H 0.73838 0.60598 0.77542 0.0
H2129 H 0.72796 0.64846 0.71728 0.0
H2130 H 0.63002 0.60851 0.79395 0.0
H2131 H 0.63846 0.58645 0.77534 0.0
H2132 H 0.67871 0.5938 0.79648 0.0
H2133 H 0.66184 0.65929 0.70203 0.0
H2134 H 0.62425 0.63809 0.70235 0.0
H2135 H 0.61793 0.65917 0.72261 0.0
H2136 H 0.52218 0.59202 0.72431 0.0
H2137 H 0.51152 0.64502 0.76994 0.0
H2138 H 0.63195 0.58266 0.73279 0.0
H2139 H 0.62643 0.59916 0.70754 0.0
H2140 H 0.58851 0.57853 0.71243 0.0
H2141 H 0.619 0.64626 0.78906 0.0
H2142 H 0.57072 0.66134 0.78708 0.0
H2143 H 0.61184 0.66397 0.76504 0.0
C2144 C 0.02615 0.10792 0.74984 0.0
C2145 C 0.00394 0.11596 0.73039 0.0
C2146 C 0.07084 0.10963 0.75119 0.0
C2147 C 0.09358 0.1194 0.73255 0.0
C2148 C 0.07129 0.12666 0.71243 0.0
C2149 C 0.02686 0.1249 0.71165 0.0
C2150 C 0.09358 0.10164 0.77288 0.0
C2151 C 0.09425 0.13679 0.69195 0.0
C2152 C 0.20373 0.14288 0.74255 0.0
C2153 C 0.23024 0.12741 0.73321 0.0
C2154 C 0.15916 0.1403 0.74297 0.0
C2155 C 0.14075 0.12188 0.73371 0.0
C2156 C 0.16734 0.10628 0.72422 0.0
C2157 C 0.21155 0.10922 0.72407 0.0
C2158 C 0.13173 0.15732 0.7532 0.0
C2159 C 0.14907 0.08653 0.71391 0.0
H2160 H 0.0085 0.10124 0.76447 0.0
H2161 H 0.00978 0.13105 0.6965 0.0
H2162 H 0.11883 0.09048 0.7677 0.0
H2163 H 0.10943 0.11473 0.78215 0.0
H2164 H 0.07157 0.09384 0.78546 0.0
H2165 H 0.0723 0.14105 0.67731 0.0
H2166 H 0.11069 0.15105 0.6981 0.0
H2167 H 0.11899 0.12618 0.68487 0.0
H2168 H 0.21776 0.1569 0.74977 0.0
H2169 H 0.23152 0.09714 0.71666 0.0
H2170 H 0.11122 0.15095 0.76746 0.0
H2171 H 0.11033 0.16358 0.7393 0.0
H2172 H 0.15093 0.1703 0.76054 0.0
H2173 H 0.12888 0.07857 0.72722 0.0
H2174 H 0.17422 0.07559 0.70794 0.0
H2175 H 0.12841 0.0903 0.69857 0.0
C2176 C 0.54485 0.10824 -0.00489 0.0
C2177 C 0.52694 0.12824 -0.00651 0.0
C2178 C 0.58889 0.10508 -0.0063 0.0
C2179 C 0.61616 0.12228 0.99045 0.0
C2180 C 0.59846 0.14244 0.98783 0.0
C2181 C 0.55401 0.1452 0.98943 0.0
C2182 C 0.60631 0.08336 -0.00329 0.0
C2183 C 0.62661 0.16116 0.98413 0.0
C2184 C 0.72783 0.11897 0.01577 0.0
C2185 C 0.75237 0.11494 -0.00442 0.0
C2186 C 0.68348 0.12098 0.01434 0.0
C2187 C 0.66316 0.11932 0.99205 0.0
C2188 C 0.68768 0.11458 0.97166 0.0
C2189 C 0.73216 0.1123 0.9737 0.0
C2190 C 0.65855 0.1255 0.03662 0.0
C2191 C 0.66719 0.11282 0.94759 0.0
H2192 H 0.52448 0.09489 -0.00202 0.0
H2193 H 0.54064 0.16067 0.98799 0.0
H2194 H 0.62831 0.0795 0.982 0.0
H2195 H 0.62488 0.08244 0.01339 0.0
H2196 H 0.58073 0.07144 -0.00268 0.0
H2197 H 0.60794 0.17541 0.98023 0.0
H2198 H 0.64592 0.16395 0.00027 0.0
H2199 H 0.64911 0.15833 0.96934 0.0
H2200 H 0.74365 0.12118 0.03266 0.0
H2201 H 0.75132 0.10965 0.95802 0.0
H2202 H 0.6331 0.11373 0.03903 0.0
H2203 H 0.64283 0.14087 0.03512 0.0
H2204 H 0.67903 0.12554 0.05266 0.0
H2205 H 0.64084 0.10134 0.94805 0.0
H2206 H 0.6903 0.1081 0.9337 0.0
H2207 H 0.65312 0.12799 0.94254 0.0
C2208 C 0.2225 0.60326 -0.00571 0.0
C2209 C 0.24823 0.6167 0.00758 0.0
C2210 C 0.17794 0.60592 -0.00637 0.0
C2211 C 0.15882 0.62228 0.00669 0.0
C2212 C 0.18463 0.63555 0.02052 0.0
C2213 C 0.2288 0.63259 0.02081 0.0
C2214 C 0.15133 0.59141 0.97876 0.0
C2215 C 0.16561 0.65299 0.03497 0.0
C2216 C 0.04737 0.64148 0.99091 0.0
C2217 C 0.02236 0.6308 0.00747 0.0
C2218 C 0.09188 0.63874 0.99027 0.0
C2219 C 0.1117 0.62518 0.00672 0.0
C2220 C 0.08666 0.61491 0.02392 0.0
C2221 C 0.04243 0.61781 0.02404 0.0
C2222 C 0.11762 0.65003 0.97173 0.0
C2223 C 0.1065 0.60066 0.04208 0.0
H2224 H 0.23722 0.59106 0.98392 0.0
H2225 H 0.24828 0.64295 0.03137 0.0
H2226 H 0.12767 0.58332 0.99006 0.0
H2227 H 0.13329 0.60042 0.96535 0.0
H2228 H 0.17097 0.57957 0.96952 0.0
H2229 H 0.19018 0.662 0.04472 0.0
H2230 H 0.14785 0.66377 0.02326 0.0
H2231 H 0.14253 0.64663 0.04796 0.0
H2232 H 0.03205 0.65137 0.97792 0.0
H2233 H 0.02335 0.6096 0.03702 0.0
H2234 H 0.1347 0.63863 0.96047 0.0
H2235 H 0.14207 0.6599 0.98035 0.0
H2236 H 0.09749 0.65998 0.96021 0.0
H2237 H 0.12346 0.58778 0.03307 0.0
H2238 H 0.08253 0.5939 0.05432 0.0
H2239 H 0.13043 0.60927 0.05268 0.0
C2240 C 0.45421 0.89486 0.7473 0.0
C2241 C 0.48302 0.88409 0.7617 0.0
C2242 C 0.4103 0.89046 0.74824 0.0
C2243 C 0.39495 0.87518 0.76421 0.0
C2244 C 0.42378 0.86498 0.77952 0.0
C2245 C 0.46739 0.86946 0.77798 0.0
C2246 C 0.38052 0.90166 0.7316 0.0
C2247 C 0.40872 0.84893 0.79715 0.0
C2248 C 0.27705 0.87585 0.77933 0.0
C2249 C 0.26087 0.86012 0.76463 0.0
C2250 C 0.32062 0.88067 0.77965 0.0
C2251 C 0.34883 0.86964 0.76474 0.0
C2252 C 0.33297 0.85331 0.75037 0.0
C2253 C 0.28917 0.84865 0.75059 0.0
C2254 C 0.3363 0.89789 0.79559 0.0
C2255 C 0.36209 0.84118 0.73423 0.0
H2256 H 0.46615 0.90605 0.73458 0.0
H2257 H 0.48951 0.86121 0.78934 0.0
H2258 H 0.36506 0.89028 0.7196 0.0
H2259 H 0.35485 0.90944 0.74176 0.0
H2260 H 0.39724 0.91348 0.7207 0.0
H2261 H 0.43492 0.84325 0.80867 0.0
H2262 H 0.3833 0.85552 0.80852 0.0
H2263 H 0.39481 0.83547 0.78763 0.0
H2264 H 0.25543 0.8847 0.79038 0.0
H2265 H 0.27687 0.83661 0.73905 0.0
H2266 H 0.34982 0.91065 0.78474 0.0
H2267 H 0.36217 0.89209 0.80722 0.0
H2268 H 0.31054 0.90435 0.80688 0.0
H2269 H 0.3771 0.85184 0.72122 0.0
H2270 H 0.34495 0.82877 0.72443 0.0
H2271 H 0.38813 0.83397 0.74464 0.0
C2272 C 0.77941 0.37467 0.78072 0.0
C2273 C 0.76111 0.36165 0.76357 0.0
C2274 C 0.82342 0.37835 0.78129 0.0
C2275 C 0.84994 0.36891 0.76416 0.0
C2276 C 0.83195 0.35496 0.74747 0.0
C2277 C 0.78767 0.35139 0.74745 0.0
C2278 C 0.84126 0.39298 0.79969 0.0
C2279 C 0.85923 0.34451 0.72899 0.0
C2280 C 0.95551 0.39535 0.74942 0.0
C2281 C 0.98461 0.38288 0.76175 0.0
C2282 C 0.91154 0.39101 0.75007 0.0
C2283 C 0.89634 0.37393 0.76354 0.0
C2284 C 0.92546 0.36177 0.77665 0.0
C2285 C 0.96909 0.36635 0.77555 0.0
C2286 C 0.88141 0.40439 0.73591 0.0
C2287 C 0.91063 0.34368 0.79156 0.0
H2288 H 0.75898 0.38255 0.79333 0.0
H2289 H 0.77361 0.34151 0.73401 0.0
H2290 H 0.86782 0.38547 0.80941 0.0
H2291 H 0.85439 0.407 0.79089 0.0
H2292 H 0.81678 0.39798 0.8127 0.0
H2293 H 0.84078 0.3334 0.71797 0.0
H2294 H 0.87348 0.35644 0.71721 0.0
H2295 H 0.88587 0.33606 0.73755 0.0
H2296 H 0.9672 0.40804 0.73861 0.0
H2297 H 0.99127 0.35671 0.78533 0.0
H2298 H 0.85697 0.41125 0.74774 0.0
H2299 H 0.86444 0.39472 0.72267 0.0
H2300 H 0.89814 0.41717 0.72652 0.0
H2301 H 0.88661 0.34897 0.80463 0.0
H2302 H 0.93724 0.33611 0.80123 0.0
H2303 H 0.895 0.3319 0.78015 0.0
C2304 C 0.27928 0.35804 0.49344 0.0
C2305 C 0.26495 0.37724 0.48469 0.0
C2306 C 0.32281 0.35341 0.49499 0.0
C2307 C 0.35304 0.36818 0.48721 0.0
C2308 C 0.33892 0.38766 0.47843 0.0
C2309 C 0.29497 0.39207 0.47751 0.0
C2310 C 0.33643 0.33269 0.50499 0.0
C2311 C 0.37022 0.40372 0.4697 0.0
C2312 C 0.46741 0.36513 0.50914 0.0
C2313 C 0.4879 0.35563 0.48999 0.0
C2314 C 0.42333 0.36878 0.50876 0.0
C2315 C 0.39942 0.36323 0.48845 0.0
C2316 C 0.41995 0.35309 0.4693 0.0
C2317 C 0.46406 0.34936 0.47034 0.0
C2318 C 0.40265 0.37927 0.52971 0.0
C2319 C 0.3957 0.34705 0.44729 0.0
H2320 H 0.2563 0.34658 0.49932 0.0
H2321 H 0.2841 0.40686 0.47065 0.0
H2322 H 0.35467 0.32388 0.4915 0.0
H2323 H 0.35785 0.33509 0.52037 0.0
H2324 H 0.30892 0.32309 0.51076 0.0
H2325 H 0.35417 0.41796 0.46308 0.0
H2326 H 0.39229 0.40814 0.48417 0.0
H2327 H 0.38982 0.3971 0.4552 0.0
H2328 H 0.48624 0.37041 0.52407 0.0
H2329 H 0.48032 0.34259 0.45526 0.0
H2330 H 0.37493 0.37005 0.53591 0.0
H2331 H 0.39056 0.39476 0.52439 0.0
H2332 H 0.42512 0.38131 0.54472 0.0
H2333 H 0.36831 0.33696 0.45197 0.0
H2334 H 0.41603 0.33872 0.4343 0.0
H2335 H 0.38262 0.36117 0.4387 0.0
C2336 C 0.97904 0.85413 0.4913 0.0
C2337 C 0.00698 0.86658 0.47813 0.0
C2338 C 0.93507 0.85841 0.49178 0.0
C2339 C 0.91869 0.87535 0.47855 0.0
C2340 C 0.94665 0.8876 0.46476 0.0
C2341 C 0.99034 0.88312 0.46479 0.0
C2342 C 0.90618 0.84499 0.50669 0.0
C2343 C 0.93047 0.90553 0.45003 0.0
C2344 C 0.80171 0.87355 0.46191 0.0
C2345 C 0.78331 0.88706 0.47851 0.0
C2346 C 0.84567 0.8699 0.46152 0.0
C2347 C 0.87209 0.87981 0.47835 0.0
C2348 C 0.85395 0.89394 0.49478 0.0
C2349 C 0.80968 0.89754 0.49455 0.0
C2350 C 0.86372 0.85511 0.44335 0.0
C2351 C 0.88115 0.90478 0.51301 0.0
H2352 H 0.99167 0.84146 0.5018 0.0
H2353 H 0.01164 0.89274 0.45439 0.0
H2354 H 0.88916 0.85474 0.51984 0.0
H2355 H 0.88169 0.83756 0.49535 0.0
H2356 H 0.92391 0.83264 0.51626 0.0
H2357 H 0.95641 0.91348 0.4402 0.0
H2358 H 0.90649 0.8999 0.43711 0.0
H2359 H 0.91441 0.91706 0.46156 0.0
H2360 H 0.78147 0.86555 0.4493 0.0
H2361 H 0.79554 0.90787 0.50751 0.0
H2362 H 0.87855 0.84162 0.45236 0.0
H2363 H 0.88905 0.86291 0.43293 0.0
H2364 H 0.83902 0.84927 0.43093 0.0
H2365 H 0.89664 0.89309 0.5246 0.0
H2366 H 0.86239 0.91558 0.52424 0.0
H2367 H 0.9069 0.91367 0.50417 0.0
C2368 C 0.52747 0.14449 0.24821 0.0
C2369 C 0.50572 0.12543 0.25014 0.0
C2370 C 0.57194 0.14559 0.24887 0.0
C2371 C 0.59583 0.12722 0.25192 0.0
C2372 C 0.5743 0.10805 0.25539 0.0
C2373 C 0.52938 0.10735 0.25439 0.0
C2374 C 0.59334 0.16635 0.24488 0.0
C2375 C 0.59878 0.08817 0.25916 0.0
C2376 C 0.70458 0.12676 0.2226 0.0
C2377 C 0.73174 0.13151 0.2415 0.0
C2378 C 0.66044 0.12525 0.22584 0.0
C2379 C 0.64299 0.128 0.24875 0.0
C2380 C 0.67034 0.13286 0.26797 0.0
C2381 C 0.7145 0.1348 0.26405 0.0
C2382 C 0.63247 0.12071 0.2047 0.0
C2383 C 0.65304 0.13555 0.29269 0.0
H2384 H 0.50974 0.15872 0.24541 0.0
H2385 H 0.513 0.0926 0.2561 0.0
H2386 H 0.61716 0.16943 0.25893 0.0
H2387 H 0.61059 0.16609 0.22774 0.0
H2388 H 0.57021 0.1794 0.24454 0.0
H2389 H 0.57774 0.07518 0.26471 0.0
H2390 H 0.61497 0.0837 0.24247 0.0
H2391 H 0.62383 0.09043 0.27278 0.0
H2392 H 0.71809 0.12402 0.2052 0.0
H2393 H 0.7357 0.13795 0.27876 0.0
H2394 H 0.60893 0.13339 0.20233 0.0
H2395 H 0.61434 0.10615 0.20767 0.0
H2396 H 0.65108 0.11909 0.18808 0.0
H2397 H 0.62946 0.14837 0.29308 0.0
H2398 H 0.67853 0.13898 0.30576 0.0
H2399 H 0.63616 0.12121 0.29823 0.0
C2400 C 0.03083 0.62556 0.21565 0.0
C2401 C 0.00723 0.61559 0.23343 0.0
C2402 C 0.07509 0.62791 0.21747 0.0
C2403 C 0.09651 0.62031 0.23774 0.0
C2404 C 0.07301 0.60991 0.25563 0.0
C2405 C 0.0286 0.60753 0.25318 0.0
C2406 C 0.09891 0.63865 0.19771 0.0
C2407 C 0.09472 0.60164 0.27752 0.0
C2408 C 0.21387 0.60895 0.22917 0.0
C2409 C 0.23365 0.62679 0.23853 0.0
C2410 C 0.16959 0.60648 0.22944 0.0
C2411 C 0.14381 0.62223 0.23929 0.0
C2412 C 0.16324 0.6402 0.24906 0.0
C2413 C 0.20799 0.64229 0.24857 0.0
C2414 C 0.15035 0.58713 0.21868 0.0
C2415 C 0.13668 0.65733 0.25974 0.0
H2416 H 0.01445 0.6318 0.20032 0.0
H2417 H 0.01041 0.60012 0.26715 0.0
H2418 H 0.11606 0.65241 0.20471 0.0
H2419 H 0.12314 0.62801 0.19017 0.0
H2420 H 0.07745 0.6438 0.18322 0.0
H2421 H 0.07194 0.59421 0.28996 0.0
H2422 H 0.11928 0.59007 0.2725 0.0
H2423 H 0.11129 0.61447 0.28686 0.0
H2424 H 0.23301 0.59673 0.22138 0.0
H2425 H 0.22277 0.65606 0.25595 0.0
H2426 H 0.13024 0.5914 0.20329 0.0
H2427 H 0.12945 0.57926 0.23172 0.0
H2428 H 0.17493 0.57591 0.21265 0.0
H2429 H 0.11628 0.6644 0.24587 0.0
H2430 H 0.15656 0.66972 0.26781 0.0
H2431 H 0.11518 0.65088 0.27349 0.0
C2432 C 0.72883 0.61478 0.46713 0.0
C2433 C 0.74609 0.61335 0.48993 0.0
C2434 C 0.6847 0.61748 0.46383 0.0
C2435 C 0.65746 0.61844 0.48383 0.0
C2436 C 0.67487 0.6162 0.50683 0.0
C2437 C 0.71901 0.61397 0.50958 0.0
C2438 C 0.66747 0.62011 0.43908 0.0
C2439 C 0.64698 0.61656 0.52861 0.0
C2440 C 0.54635 0.64234 0.48472 0.0
C2441 C 0.52097 0.62444 0.48471 0.0
C2442 C 0.59107 0.64079 0.48288 0.0
C2443 C 0.6105 0.62093 0.48102 0.0
C2444 C 0.58466 0.60304 0.47931 0.0
C2445 C 0.5404 0.60503 0.48106 0.0
C2446 C 0.61762 0.66028 0.4843 0.0
C2447 C 0.60378 0.58157 0.47735 0.0
H2448 H 0.75006 0.61494 0.45199 0.0
H2449 H 0.73264 0.61324 0.52721 0.0
H2450 H 0.64175 0.60868 0.43567 0.0
H2451 H 0.65328 0.6358 0.43721 0.0
H2452 H 0.69256 0.61819 0.42539 0.0
H2453 H 0.66545 0.6141 0.54515 0.0
H2454 H 0.63029 0.63171 0.52987 0.0
H2455 H 0.62224 0.6043 0.52734 0.0
H2456 H 0.53158 0.65737 0.4874 0.0
H2457 H 0.52096 0.59112 0.4805 0.0
H2458 H 0.64259 0.66022 0.47041 0.0
H2459 H 0.63399 0.6609 0.5017 0.0
H2460 H 0.59799 0.67453 0.48232 0.0
H2461 H 0.62793 0.58106 0.46304 0.0
H2462 H 0.57932 0.5695 0.47377 0.0
H2463 H 0.6202 0.5776 0.49414 0.0
C2464 C 0.05049 0.14094 0.49152 0.0
C2465 C 0.02439 0.12677 0.50358 0.0
C2466 C 0.09513 0.13854 0.49137 0.0
C2467 C 0.11401 0.12162 0.50358 0.0
C2468 C 0.08784 0.10744 0.51594 0.0
C2469 C 0.04361 0.11021 0.51584 0.0
C2470 C 0.12213 0.15408 0.47813 0.0
C2471 C 0.10657 0.08931 0.52936 0.0
C2472 C 0.22759 0.10479 0.48893 0.0
C2473 C 0.25078 0.11474 0.50685 0.0
C2474 C 0.18299 0.10694 0.48753 0.0
C2475 C 0.16122 0.1192 0.50453 0.0
C2476 C 0.18441 0.12867 0.52307 0.0
C2477 C 0.22874 0.12632 0.524 0.0
C2478 C 0.15925 0.09648 0.4676 0.0
C2479 C 0.16249 0.14158 0.54179 0.0
H2480 H 0.03607 0.1537 0.48192 0.0
H2481 H 0.024 0.09917 0.52539 0.0
H2482 H 0.14436 0.16187 0.49055 0.0
H2483 H 0.14176 0.14598 0.46467 0.0
H2484 H 0.10263 0.16612 0.46915 0.0
H2485 H 0.08172 0.07937 0.5376 0.0
H2486 H 0.12601 0.07957 0.5173 0.0
H2487 H 0.12807 0.09505 0.54351 0.0
H2488 H 0.2444 0.09601 0.4755 0.0
H2489 H 0.24637 0.13395 0.53802 0.0
H2490 H 0.14273 0.10834 0.4567 0.0
H2491 H 0.13445 0.08599 0.47486 0.0
H2492 H 0.18069 0.08732 0.45596 0.0
H2493 H 0.1456 0.15479 0.53337 0.0
H2494 H 0.18517 0.14784 0.55509 0.0
H2495 H 0.13823 0.13211 0.55112 0.0
loop_
_geom_bond_atom_site_label_1
_geom_bond_atom_site_label_2
_geom_bond_distance
_geom_bond_site_symmetry_2
_ccdc_geom_bond_type
Co0 O1 2.216 . S
Co0 O2 2.091 . S
Co0 O4 2.004 . S
Co0 O10 2.021 . S
Co0 O12 2.137 . S
Co0 O13 2.244 . S
O1 Co0 2.216 . S
O1 C8 1.247 . S
O2 Co0 2.091 . S
O2 C8 1.261 . S
C3 O12 1.247 . S
C3 O13 1.272 . S
O4 Co0 2.004 . S
O4 C9 1.259 . S
Co5 O6 2.061 . S
Co5 O11 2.052 . S
Co5 O13 2.135 . S
O6 Co5 2.061 . S
O6 C9 1.235 . S
C7 O10 1.238 . S
C7 O11 1.241 . S
C8 O1 1.247 . S
C8 O2 1.261 . S
C9 O4 1.259 . S
C9 O6 1.235 . S
O10 Co0 2.021 . S
O10 C7 1.238 . S
O11 Co5 2.052 . S
O11 C7 1.241 . S
O12 Co0 2.137 . S
O12 C3 1.247 . S
O13 Co0 2.244 . S
O13 C3 1.272 . S
O13 Co5 2.135 . S
Co14 O15 2.216 . S
Co14 O16 2.091 . S
Co14 O18 2.004 . S
Co14 O24 2.021 . S
Co14 O26 2.137 . S
Co14 O27 2.244 . S
O15 Co14 2.216 . S
O15 C22 1.247 . S
O16 Co14 2.091 . S
O16 C22 1.261 . S
C17 O26 1.247 . S
C17 O27 1.272 . S
O18 Co14 2.004 . S
O18 C23 1.259 . S
Co19 O20 2.061 . S
Co19 O25 2.052 . S
Co19 O27 2.135 . S
O20 Co19 2.061 . S
O20 C23 1.235 . S
C21 O24 1.238 . S
C21 O25 1.241 . S
C22 O15 1.247 . S
C22 O16 1.261 . S
C23 O18 1.259 . S
C23 O20 1.235 . S
O24 Co14 2.021 . S
O24 C21 1.238 . S
O25 Co19 2.052 . S
O25 C21 1.241 . S
O26 Co14 2.137 . S
O26 C17 1.247 . S
O27 Co14 2.244 . S
O27 C17 1.272 . S
O27 Co19 2.135 . S
Co28 O29 2.216 . S
Co28 O30 2.091 . S
Co28 O32 2.004 . S
Co28 O38 2.021 1_556 S
Co28 O40 2.137 . S
Co28 O41 2.244 . S
O29 Co28 2.216 . S
O29 C36 1.247 . S
O30 Co28 2.091 . S
O30 C36 1.261 . S
C31 O40 1.247 . S
C31 O41 1.272 . S
O32 Co28 2.004 . S
O32 C37 1.263 . S
Co33 O34 2.061 . S
Co33 O39 2.052 . S
Co33 O41 2.135 1_554 S
O34 Co33 2.061 . S
O34 C37 1.232 1_554 S
C35 O38 1.238 . S
C35 O39 1.241 . S
C36 O29 1.247 . S
C36 O30 1.261 . S
C37 O32 1.263 . S
C37 O34 1.232 1_556 S
O38 Co28 2.021 1_554 S
O38 C35 1.238 . S
O39 Co33 2.052 . S
O39 C35 1.241 . S
O40 Co28 2.137 . S
O40 C31 1.247 . S
O41 Co28 2.244 . S
O41 C31 1.272 . S
O41 Co33 2.135 1_556 S
Co42 O43 2.216 . S
Co42 O44 2.091 . S
Co42 O46 2.004 . S
Co42 O52 2.021 1_556 S
Co42 O54 2.137 . S
Co42 O55 2.244 . S
O43 Co42 2.216 . S
O43 C50 1.247 . S
O44 Co42 2.091 . S
O44 C50 1.261 . S
C45 O54 1.247 . S
C45 O55 1.272 . S
O46 Co42 2.004 . S
O46 C51 1.263 . S
Co47 O48 2.061 . S
Co47 O53 2.052 . S
Co47 O55 2.135 1_554 S
O48 Co47 2.061 . S
O48 C51 1.232 1_554 S
C49 O52 1.238 . S
C49 O53 1.241 . S
C50 O43 1.247 . S
C50 O44 1.261 . S
C51 O46 1.263 . S
C51 O48 1.232 1_556 S
O52 Co42 2.021 1_554 S
O52 C49 1.238 . S
O53 Co47 2.052 . S
O53 C49 1.241 . S
O54 Co42 2.137 . S
O54 C45 1.247 . S
O55 Co42 2.244 . S
O55 C45 1.272 . S
O55 Co47 2.135 1_556 S
Co56 O57 2.216 . S
Co56 O58 2.091 . S
Co56 O60 2.004 . S
Co56 O66 2.021 . S
Co56 O68 2.137 . S
Co56 O69 2.244 . S
O57 Co56 2.216 . S
O57 C64 1.247 . S
O58 Co56 2.091 . S
O58 C64 1.261 . S
C59 O68 1.247 . S
C59 O69 1.272 . S
O60 Co56 2.004 . S
O60 C65 1.259 . S
Co61 O62 2.061 . S
Co61 O67 2.052 . S
Co61 O69 2.135 . S
O62 Co61 2.061 . S
O62 C65 1.235 . S
C63 O66 1.238 . S
C63 O67 1.241 . S
C64 O57 1.247 . S
C64 O58 1.261 . S
C65 O60 1.259 . S
C65 O62 1.235 . S
O66 Co56 2.021 . S
O66 C63 1.238 . S
O67 Co61 2.052 . S
O67 C63 1.241 . S
O68 Co56 2.137 . S
O68 C59 1.247 . S
O69 Co56 2.244 . S
O69 C59 1.272 . S
O69 Co61 2.135 . S
Co70 O71 2.216 . S
Co70 O72 2.091 . S
Co70 O74 2.004 . S
Co70 O80 2.021 . S
Co70 O82 2.137 . S
Co70 O83 2.244 . S
O71 Co70 2.216 . S
O71 C78 1.247 . S
O72 Co70 2.091 . S
O72 C78 1.261 . S
C73 O82 1.247 . S
C73 O83 1.272 . S
O74 Co70 2.004 . S
O74 C79 1.259 . S
Co75 O76 2.061 . S
Co75 O81 2.052 . S
Co75 O83 2.135 . S
O76 Co75 2.061 . S
O76 C79 1.235 . S
C77 O80 1.238 . S
C77 O81 1.241 . S
C78 O71 1.247 . S
C78 O72 1.261 . S
C79 O74 1.259 . S
C79 O76 1.235 . S
O80 Co70 2.021 . S
O80 C77 1.238 . S
O81 Co75 2.052 . S
O81 C77 1.241 . S
O82 Co70 2.137 . S
O82 C73 1.247 . S
O83 Co70 2.244 . S
O83 C73 1.272 . S
O83 Co75 2.135 . S
Co84 O85 2.216 . S
Co84 O86 2.091 . S
Co84 O88 2.004 . S
Co84 O94 2.021 1_554 S
Co84 O96 2.137 . S
Co84 O97 2.244 . S
O85 Co84 2.216 . S
O85 C92 1.247 . S
O86 Co84 2.091 . S
O86 C92 1.261 . S
C87 O96 1.247 . S
C87 O97 1.272 . S
O88 Co84 2.004 . S
O88 C93 1.263 . S
Co89 O90 2.061 . S
Co89 O95 2.052 . S
Co89 O97 2.135 1_556 S
O90 Co89 2.061 . S
O90 C93 1.232 1_556 S
C91 O94 1.238 . S
C91 O95 1.241 . S
C92 O85 1.247 . S
C92 O86 1.261 . S
C93 O88 1.263 . S
C93 O90 1.232 1_554 S
O94 Co84 2.021 1_556 S
O94 C91 1.238 . S
O95 Co89 2.052 . S
O95 C91 1.241 . S
O96 Co84 2.137 . S
O96 C87 1.247 . S
O97 Co84 2.244 . S
O97 C87 1.272 . S
O97 Co89 2.135 1_554 S
Co98 O99 2.216 . S
Co98 O100 2.091 . S
Co98 O102 2.004 . S
Co98 O108 2.021 1_554 S
Co98 O110 2.137 . S
Co98 O111 2.244 . S
O99 Co98 2.216 . S
O99 C106 1.247 . S
O100 Co98 2.091 . S
O100 C106 1.261 . S
C101 O110 1.247 . S
C101 O111 1.272 . S
O102 Co98 2.004 . S
O102 C107 1.263 . S
Co103 O104 2.061 . S
Co103 O109 2.052 . S
Co103 O111 2.135 1_556 S
O104 Co103 2.061 . S
O104 C107 1.232 1_556 S
C105 O108 1.238 . S
C105 O109 1.241 . S
C106 O99 1.247 . S
C106 O100 1.261 . S
C107 O102 1.263 . S
C107 O104 1.232 1_554 S
O108 Co98 2.021 1_556 S
O108 C105 1.238 . S
O109 Co103 2.052 . S
O109 C105 1.241 . S
O110 Co98 2.137 . S
O110 C101 1.247 . S
O111 Co98 2.244 . S
O111 C101 1.272 . S
O111 Co103 2.135 1_554 S
Co112 O113 2.216 . S
Co112 O114 2.091 . S
Co112 O116 2.004 . S
Co112 O122 2.021 . S
Co112 O124 2.137 . S
Co112 O125 2.244 . S
O113 Co112 2.216 . S
O113 C120 1.247 . S
O114 Co112 2.091 . S
O114 C120 1.261 . S
C115 O124 1.247 . S
C115 O125 1.272 . S
O116 Co112 2.004 . S
O116 C121 1.259 . S
Co117 O118 2.061 . S
Co117 O123 2.052 . S
Co117 O125 2.135 . S
O118 Co117 2.061 . S
O118 C121 1.235 . S
C119 O122 1.238 . S
C119 O123 1.241 . S
C120 O113 1.247 . S
C120 O114 1.261 . S
C121 O116 1.259 . S
C121 O118 1.235 . S
O122 Co112 2.021 . S
O122 C119 1.238 . S
O123 Co117 2.052 . S
O123 C119 1.241 . S
O124 Co112 2.137 . S
O124 C115 1.247 . S
O125 Co112 2.244 . S
O125 C115 1.272 . S
O125 Co117 2.135 . S
Co126 O127 2.216 . S
Co126 O128 2.091 . S
Co126 O130 2.004 . S
Co126 O136 2.021 . S
Co126 O138 2.137 . S
Co126 O139 2.244 . S
O127 Co126 2.216 . S
O127 C134 1.247 . S
O128 Co126 2.091 . S
O128 C134 1.261 . S
C129 O138 1.247 . S
C129 O139 1.272 . S
O130 Co126 2.004 . S
O130 C135 1.259 . S
Co131 O132 2.061 . S
Co131 O137 2.052 . S
Co131 O139 2.135 . S
O132 Co131 2.061 . S
O132 C135 1.235 . S
C133 O136 1.238 . S
C133 O137 1.241 . S
C134 O127 1.247 . S
C134 O128 1.261 . S
C135 O130 1.259 . S
C135 O132 1.235 . S
O136 Co126 2.021 . S
O136 C133 1.238 . S
O137 Co131 2.052 . S
O137 C133 1.241 . S
O138 Co126 2.137 . S
O138 C129 1.247 . S
O139 Co126 2.244 . S
O139 C129 1.272 . S
O139 Co131 2.135 . S
Co140 O141 2.216 . S
Co140 O142 2.091 . S
Co140 O144 2.004 . S
Co140 O150 2.021 . S
Co140 O152 2.137 . S
Co140 O153 2.244 . S
O141 Co140 2.216 . S
O141 C148 1.247 . S
O142 Co140 2.091 . S
O142 C148 1.261 . S
C143 O152 1.247 . S
C143 O153 1.272 . S
O144 Co140 2.004 . S
O144 C149 1.259 . S
Co145 O146 2.061 . S
Co145 O151 2.052 . S
Co145 O153 2.135 . S
O146 Co145 2.061 . S
O146 C149 1.235 . S
C147 O150 1.238 . S
C147 O151 1.241 . S
C148 O141 1.247 . S
C148 O142 1.261 . S
C149 O144 1.259 . S
C149 O146 1.235 . S
O150 Co140 2.021 . S
O150 C147 1.238 . S
O151 Co145 2.052 . S
O151 C147 1.241 . S
O152 Co140 2.137 . S
O152 C143 1.247 . S
O153 Co140 2.244 . S
O153 C143 1.272 . S
O153 Co145 2.135 . S
Co154 O155 2.216 . S
Co154 O156 2.091 . S
Co154 O158 2.004 . S
Co154 O164 2.021 . S
Co154 O166 2.137 . S
Co154 O167 2.244 . S
O155 Co154 2.216 . S
O155 C162 1.247 . S
O156 Co154 2.091 . S
O156 C162 1.261 . S
C157 O166 1.247 . S
C157 O167 1.272 . S
O158 Co154 2.004 . S
O158 C163 1.259 . S
Co159 O160 2.061 . S
Co159 O165 2.052 . S
Co159 O167 2.135 . S
O160 Co159 2.061 . S
O160 C163 1.235 . S
C161 O164 1.238 . S
C161 O165 1.241 . S
C162 O155 1.247 . S
C162 O156 1.261 . S
C163 O158 1.259 . S
C163 O160 1.235 . S
O164 Co154 2.021 . S
O164 C161 1.238 . S
O165 Co159 2.052 . S
O165 C161 1.241 . S
O166 Co154 2.137 . S
O166 C157 1.247 . S
O167 Co154 2.244 . S
O167 C157 1.272 . S
O167 Co159 2.135 . S
Co168 O169 2.216 . S
Co168 O170 2.091 . S
Co168 O172 2.004 . S
Co168 O178 2.021 . S
Co168 O180 2.137 . S
Co168 O181 2.244 . S
O169 Co168 2.216 . S
O169 C176 1.247 . S
O170 Co168 2.091 . S
O170 C176 1.261 . S
C171 O180 1.247 . S
C171 O181 1.272 . S
O172 Co168 2.004 . S
O172 C177 1.259 . S
Co173 O174 2.061 . S
Co173 O179 2.052 . S
Co173 O181 2.135 . S
O174 Co173 2.061 . S
O174 C177 1.235 . S
C175 O178 1.238 . S
C175 O179 1.241 . S
C176 O169 1.247 . S
C176 O170 1.261 . S
C177 O172 1.259 . S
C177 O174 1.235 . S
O178 Co168 2.021 . S
O178 C175 1.238 . S
O179 Co173 2.052 . S
O179 C175 1.241 . S
O180 Co168 2.137 . S
O180 C171 1.247 . S
O181 Co168 2.244 . S
O181 C171 1.272 . S
O181 Co173 2.135 . S
Co182 O183 2.216 . S
Co182 O184 2.091 . S
Co182 O186 2.004 . S
Co182 O192 2.021 . S
Co182 O194 2.137 . S
Co182 O195 2.244 . S
O183 Co182 2.216 . S
O183 C190 1.247 . S
O184 Co182 2.091 . S
O184 C190 1.261 . S
C185 O194 1.247 . S
C185 O195 1.272 . S
O186 Co182 2.004 . S
O186 C191 1.259 . S
Co187 O188 2.061 . S
Co187 O193 2.052 . S
Co187 O195 2.135 . S
O188 Co187 2.061 . S
O188 C191 1.235 . S
C189 O192 1.238 . S
C189 O193 1.241 . S
C190 O183 1.247 . S
C190 O184 1.261 . S
C191 O186 1.259 . S
C191 O188 1.235 . S
O192 Co182 2.021 . S
O192 C189 1.238 . S
O193 Co187 2.052 . S
O193 C189 1.241 . S
O194 Co182 2.137 . S
O194 C185 1.247 . S
O195 Co182 2.244 . S
O195 C185 1.272 . S
O195 Co187 2.135 . S
Co196 O197 2.216 . S
Co196 O198 2.091 . S
Co196 O200 2.004 . S
Co196 O206 2.021 . S
Co196 O208 2.137 . S
Co196 O209 2.244 . S
O197 Co196 2.216 . S
O197 C204 1.247 . S
O198 Co196 2.091 . S
O198 C204 1.261 . S
C199 O208 1.247 . S
C199 O209 1.272 . S
O200 Co196 2.004 . S
O200 C205 1.259 . S
Co201 O202 2.061 . S
Co201 O207 2.052 . S
Co201 O209 2.135 . S
O202 Co201 2.061 . S
O202 C205 1.235 . S
C203 O206 1.238 . S
C203 O207 1.241 . S
C204 O197 1.247 . S
C204 O198 1.261 . S
C205 O200 1.259 . S
C205 O202 1.235 . S
O206 Co196 2.021 . S
O206 C203 1.238 . S
O207 Co201 2.052 . S
O207 C203 1.241 . S
O208 Co196 2.137 . S
O208 C199 1.247 . S
O209 Co196 2.244 . S
O209 C199 1.272 . S
O209 Co201 2.135 . S
Co210 O211 2.216 . S
Co210 O212 2.091 . S
Co210 O214 2.004 . S
Co210 O220 2.021 . S
Co210 O222 2.137 . S
Co210 O223 2.244 . S
O211 Co210 2.216 . S
O211 C218 1.247 . S
O212 Co210 2.091 . S
O212 C218 1.261 . S
C213 O222 1.247 . S
C213 O223 1.272 . S
O214 Co210 2.004 . S
O214 C219 1.259 . S
Co215 O216 2.061 . S
Co215 O221 2.052 . S
Co215 O223 2.135 . S
O216 Co215 2.061 . S
O216 C219 1.235 . S
C217 O220 1.238 . S
C217 O221 1.241 . S
C218 O211 1.247 . S
C218 O212 1.261 . S
C219 O214 1.259 . S
C219 O216 1.235 . S
O220 Co210 2.021 . S
O220 C217 1.238 . S
O221 Co215 2.052 . S
O221 C217 1.241 . S
O222 Co210 2.137 . S
O222 C213 1.247 . S
O223 Co210 2.244 . S
O223 C213 1.272 . S
O223 Co215 2.135 . S
Co224 O225 2.216 . S
Co224 O226 2.091 . S
Co224 O228 2.004 . S
Co224 O234 2.021 . S
Co224 O236 2.137 . S
Co224 O237 2.244 . S
O225 Co224 2.216 . S
O225 C232 1.247 . S
O226 Co224 2.091 . S
O226 C232 1.261 . S
C227 O236 1.247 . S
C227 O237 1.272 . S
O228 Co224 2.004 . S
O228 C233 1.259 . S
Co229 O230 2.061 . S
Co229 O235 2.052 . S
Co229 O237 2.135 . S
O230 Co229 2.061 . S
O230 C233 1.235 . S
C231 O234 1.238 . S
C231 O235 1.241 . S
C232 O225 1.247 . S
C232 O226 1.261 . S
C233 O228 1.259 . S
C233 O230 1.235 . S
O234 Co224 2.021 . S
O234 C231 1.238 . S
O235 Co229 2.052 . S
O235 C231 1.241 . S
O236 Co224 2.137 . S
O236 C227 1.247 . S
O237 Co224 2.244 . S
O237 C227 1.272 . S
O237 Co229 2.135 . S
Co238 O239 2.216 . S
Co238 O240 2.091 . S
Co238 O242 2.004 . S
Co238 O248 2.021 . S
Co238 O250 2.137 . S
Co238 O251 2.244 . S
O239 Co238 2.216 . S
O239 C246 1.247 . S
O240 Co238 2.091 . S
O240 C246 1.261 . S
C241 O250 1.247 . S
C241 O251 1.272 . S
O242 Co238 2.004 . S
O242 C247 1.259 . S
Co243 O244 2.061 . S
Co243 O249 2.052 . S
Co243 O251 2.135 . S
O244 Co243 2.061 . S
O244 C247 1.235 . S
C245 O248 1.238 . S
C245 O249 1.241 . S
C246 O239 1.247 . S
C246 O240 1.261 . S
C247 O242 1.259 . S
C247 O244 1.235 . S
O248 Co238 2.021 . S
O248 C245 1.238 . S
O249 Co243 2.052 . S
O249 C245 1.241 . S
O250 Co238 2.137 . S
O250 C241 1.247 . S
O251 Co238 2.244 . S
O251 C241 1.272 . S
O251 Co243 2.135 . S
Co252 O253 2.216 . S
Co252 O254 2.091 . S
Co252 O256 2.004 . S
Co252 O262 2.021 . S
Co252 O264 2.137 . S
Co252 O265 2.244 . S
O253 Co252 2.216 . S
O253 C260 1.247 . S
O254 Co252 2.091 . S
O254 C260 1.261 . S
C255 O264 1.247 . S
C255 O265 1.272 . S
O256 Co252 2.004 . S
O256 C261 1.259 . S
Co257 O258 2.061 . S
Co257 O263 2.052 . S
Co257 O265 2.135 . S
O258 Co257 2.061 . S
O258 C261 1.235 . S
C259 O262 1.238 . S
C259 O263 1.241 . S
C260 O253 1.247 . S
C260 O254 1.261 . S
C261 O256 1.259 . S
C261 O258 1.235 . S
O262 Co252 2.021 . S
O262 C259 1.238 . S
O263 Co257 2.052 . S
O263 C259 1.241 . S
O264 Co252 2.137 . S
O264 C255 1.247 . S
O265 Co252 2.244 . S
O265 C255 1.272 . S
O265 Co257 2.135 . S
Co266 O267 2.216 . S
Co266 O268 2.091 . S
Co266 O270 2.004 . S
Co266 O276 2.021 . S
Co266 O278 2.137 . S
Co266 O279 2.244 . S
O267 Co266 2.216 . S
O267 C274 1.247 . S
O268 Co266 2.091 . S
O268 C274 1.261 . S
C269 O278 1.247 . S
C269 O279 1.272 . S
O270 Co266 2.004 . S
O270 C275 1.259 . S
Co271 O272 2.061 . S
Co271 O277 2.052 . S
Co271 O279 2.135 . S
O272 Co271 2.061 . S
O272 C275 1.235 . S
C273 O276 1.238 . S
C273 O277 1.241 . S
C274 O267 1.247 . S
C274 O268 1.261 . S
C275 O270 1.259 . S
C275 O272 1.235 . S
O276 Co266 2.021 . S
O276 C273 1.238 . S
O277 Co271 2.052 . S
O277 C273 1.241 . S
O278 Co266 2.137 . S
O278 C269 1.247 . S
O279 Co266 2.244 . S
O279 C269 1.272 . S
O279 Co271 2.135 . S
Co280 O281 2.216 . S
Co280 O282 2.091 . S
Co280 O284 2.004 . S
Co280 O290 2.021 . S
Co280 O292 2.137 . S
Co280 O293 2.244 . S
O281 Co280 2.216 . S
O281 C288 1.247 . S
O282 Co280 2.091 . S
O282 C288 1.261 . S
C283 O292 1.247 . S
C283 O293 1.272 . S
O284 Co280 2.004 . S
O284 C289 1.259 . S
Co285 O286 2.061 . S
Co285 O291 2.052 . S
Co285 O293 2.135 . S
O286 Co285 2.061 . S
O286 C289 1.235 . S
C287 O290 1.238 . S
C287 O291 1.241 . S
C288 O281 1.247 . S
C288 O282 1.261 . S
C289 O284 1.259 . S
C289 O286 1.235 . S
O290 Co280 2.021 . S
O290 C287 1.238 . S
O291 Co285 2.052 . S
O291 C287 1.241 . S
O292 Co280 2.137 . S
O292 C283 1.247 . S
O293 Co280 2.244 . S
O293 C283 1.272 . S
O293 Co285 2.135 . S
Co294 O295 2.216 . S
Co294 O296 2.091 . S
Co294 O298 2.004 . S
Co294 O304 2.021 . S
Co294 O306 2.137 . S
Co294 O307 2.244 . S
O295 Co294 2.216 . S
O295 C302 1.247 . S
O296 Co294 2.091 . S
O296 C302 1.261 . S
C297 O306 1.247 . S
C297 O307 1.272 . S
O298 Co294 2.004 . S
O298 C303 1.259 . S
Co299 O300 2.061 . S
Co299 O305 2.052 . S
Co299 O307 2.135 . S
O300 Co299 2.061 . S
O300 C303 1.235 . S
C301 O304 1.238 . S
C301 O305 1.241 . S
C302 O295 1.247 . S
C302 O296 1.261 . S
C303 O298 1.259 . S
C303 O300 1.235 . S
O304 Co294 2.021 . S
O304 C301 1.238 . S
O305 Co299 2.052 . S
O305 C301 1.241 . S
O306 Co294 2.137 . S
O306 C297 1.247 . S
O307 Co294 2.244 . S
O307 C297 1.272 . S
O307 Co299 2.135 . S
Co308 O309 2.216 . S
Co308 O310 2.091 . S
Co308 O312 2.004 . S
Co308 O318 2.021 . S
Co308 O320 2.137 . S
Co308 O321 2.244 . S
O309 Co308 2.216 . S
O309 C316 1.247 . S
O310 Co308 2.091 . S
O310 C316 1.261 . S
C311 O320 1.247 . S
C311 O321 1.272 . S
O312 Co308 2.004 . S
O312 C317 1.259 . S
Co313 O314 2.061 . S
Co313 O319 2.052 . S
Co313 O321 2.135 . S
O314 Co313 2.061 . S
O314 C317 1.235 . S
C315 O318 1.238 . S
C315 O319 1.241 . S
C316 O309 1.247 . S
C316 O310 1.261 . S
C317 O312 1.259 . S
C317 O314 1.235 . S
O318 Co308 2.021 . S
O318 C315 1.238 . S
O319 Co313 2.052 . S
O319 C315 1.241 . S
O320 Co308 2.137 . S
O320 C311 1.247 . S
O321 Co308 2.244 . S
O321 C311 1.272 . S
O321 Co313 2.135 . S
Co322 O323 2.216 . S
Co322 O324 2.091 . S
Co322 O326 2.004 . S
Co322 O332 2.021 . S
Co322 O334 2.137 . S
Co322 O335 2.244 . S
O323 Co322 2.216 . S
O323 C330 1.247 . S
O324 Co322 2.091 . S
O324 C330 1.261 . S
C325 O334 1.247 . S
C325 O335 1.272 . S
O326 Co322 2.004 . S
O326 C331 1.259 . S
Co327 O328 2.061 . S
Co327 O333 2.052 . S
Co327 O335 2.135 . S
O328 Co327 2.061 . S
O328 C331 1.235 . S
C329 O332 1.238 . S
C329 O333 1.241 . S
C330 O323 1.247 . S
C330 O324 1.261 . S
C331 O326 1.259 . S
C331 O328 1.235 . S
O332 Co322 2.021 . S
O332 C329 1.238 . S
O333 Co327 2.052 . S
O333 C329 1.241 . S
O334 Co322 2.137 . S
O334 C325 1.247 . S
O335 Co322 2.244 . S
O335 C325 1.272 . S
O335 Co327 2.135 . S
Co336 O337 2.216 . S
Co336 O338 2.091 . S
Co336 O340 2.004 . S
Co336 O346 2.021 . S
Co336 O348 2.137 . S
Co336 O349 2.244 . S
O337 Co336 2.216 . S
O337 C344 1.247 . S
O338 Co336 2.091 . S
O338 C344 1.261 . S
C339 O348 1.247 . S
C339 O349 1.272 . S
O340 Co336 2.004 . S
O340 C345 1.259 . S
Co341 O342 2.061 . S
Co341 O347 2.052 . S
Co341 O349 2.135 . S
O342 Co341 2.061 . S
O342 C345 1.235 . S
C343 O346 1.238 . S
C343 O347 1.241 . S
C344 O337 1.247 . S
C344 O338 1.261 . S
C345 O340 1.259 . S
C345 O342 1.235 . S
O346 Co336 2.021 . S
O346 C343 1.238 . S
O347 Co341 2.052 . S
O347 C343 1.241 . S
O348 Co336 2.137 . S
O348 C339 1.247 . S
O349 Co336 2.244 . S
O349 C339 1.272 . S
O349 Co341 2.135 . S
Co350 O351 2.216 . S
Co350 O352 2.091 . S
Co350 O354 2.004 . S
Co350 O360 2.021 . S
Co350 O362 2.137 . S
Co350 O363 2.244 . S
O351 Co350 2.216 . S
O351 C358 1.247 . S
O352 Co350 2.091 . S
O352 C358 1.261 . S
C353 O362 1.247 . S
C353 O363 1.272 . S
O354 Co350 2.004 . S
O354 C359 1.259 . S
Co355 O356 2.061 . S
Co355 O361 2.052 . S
Co355 O363 2.135 . S
O356 Co355 2.061 . S
O356 C359 1.235 . S
C357 O360 1.238 . S
C357 O361 1.241 . S
C358 O351 1.247 . S
C358 O352 1.261 . S
C359 O354 1.259 . S
C359 O356 1.235 . S
O360 Co350 2.021 . S
O360 C357 1.238 . S
O361 Co355 2.052 . S
O361 C357 1.241 . S
O362 Co350 2.137 . S
O362 C353 1.247 . S
O363 Co350 2.244 . S
O363 C353 1.272 . S
O363 Co355 2.135 . S
Co364 O365 2.216 . S
Co364 O366 2.091 . S
Co364 O368 2.004 . S
Co364 O374 2.021 1_556 S
Co364 O376 2.137 . S
Co364 O377 2.244 . S
O365 Co364 2.216 . S
O365 C372 1.247 . S
O366 Co364 2.091 . S
O366 C372 1.261 . S
C367 O376 1.247 . S
C367 O377 1.272 . S
O368 Co364 2.004 . S
O368 C373 1.263 . S
Co369 O370 2.061 . S
Co369 O375 2.052 . S
Co369 O377 2.135 1_554 S
O370 Co369 2.061 . S
O370 C373 1.231 1_554 S
C371 O374 1.238 . S
C371 O375 1.241 . S
C372 O365 1.247 . S
C372 O366 1.261 . S
C373 O368 1.263 . S
C373 O370 1.231 1_556 S
O374 Co364 2.021 1_554 S
O374 C371 1.238 . S
O375 Co369 2.052 . S
O375 C371 1.241 . S
O376 Co364 2.137 . S
O376 C367 1.247 . S
O377 Co364 2.244 . S
O377 C367 1.272 . S
O377 Co369 2.135 1_556 S
Co378 O379 2.216 . S
Co378 O380 2.091 . S
Co378 O382 2.004 . S
Co378 O388 2.021 1_556 S
Co378 O390 2.137 . S
Co378 O391 2.244 . S
O379 Co378 2.216 . S
O379 C386 1.247 . S
O380 Co378 2.091 . S
O380 C386 1.261 . S
C381 O390 1.247 . S
C381 O391 1.272 . S
O382 Co378 2.004 . S
O382 C387 1.263 . S
Co383 O384 2.061 . S
Co383 O389 2.052 . S
Co383 O391 2.135 1_554 S
O384 Co383 2.061 . S
O384 C387 1.232 1_554 S
C385 O388 1.238 . S
C385 O389 1.241 . S
C386 O379 1.247 . S
C386 O380 1.261 . S
C387 O382 1.263 . S
C387 O384 1.232 1_556 S
O388 Co378 2.021 1_554 S
O388 C385 1.238 . S
O389 Co383 2.052 . S
O389 C385 1.241 . S
O390 Co378 2.137 . S
O390 C381 1.247 . S
O391 Co378 2.244 . S
O391 C381 1.272 . S
O391 Co383 2.135 1_556 S
Co392 O393 2.216 . S
Co392 O394 2.091 . S
Co392 O396 2.004 . S
Co392 O402 2.021 . S
Co392 O404 2.137 . S
Co392 O405 2.244 . S
O393 Co392 2.216 . S
O393 C400 1.247 . S
O394 Co392 2.091 . S
O394 C400 1.261 . S
C395 O404 1.247 . S
C395 O405 1.272 . S
O396 Co392 2.004 . S
O396 C401 1.259 . S
Co397 O398 2.061 . S
Co397 O403 2.052 . S
Co397 O405 2.135 . S
O398 Co397 2.061 . S
O398 C401 1.235 . S
C399 O402 1.238 . S
C399 O403 1.241 . S
C400 O393 1.247 . S
C400 O394 1.261 . S
C401 O396 1.259 . S
C401 O398 1.235 . S
O402 Co392 2.021 . S
O402 C399 1.238 . S
O403 Co397 2.052 . S
O403 C399 1.241 . S
O404 Co392 2.137 . S
O404 C395 1.247 . S
O405 Co392 2.244 . S
O405 C395 1.272 . S
O405 Co397 2.135 . S
Co406 O407 2.216 . S
Co406 O408 2.091 . S
Co406 O410 2.004 . S
Co406 O416 2.021 . S
Co406 O418 2.137 . S
Co406 O419 2.244 . S
O407 Co406 2.216 . S
O407 C414 1.247 . S
O408 Co406 2.091 . S
O408 C414 1.261 . S
C409 O418 1.247 . S
C409 O419 1.272 . S
O410 Co406 2.004 . S
O410 C415 1.259 . S
Co411 O412 2.061 . S
Co411 O417 2.052 . S
Co411 O419 2.135 . S
O412 Co411 2.061 . S
O412 C415 1.235 . S
C413 O416 1.238 . S
C413 O417 1.241 . S
C414 O407 1.247 . S
C414 O408 1.261 . S
C415 O410 1.259 . S
C415 O412 1.235 . S
O416 Co406 2.021 . S
O416 C413 1.238 . S
O417 Co411 2.052 . S
O417 C413 1.241 . S
O418 Co406 2.137 . S
O418 C409 1.247 . S
O419 Co406 2.244 . S
O419 C409 1.272 . S
O419 Co411 2.135 . S
Co420 O421 2.216 . S
Co420 O422 2.091 . S
Co420 O424 2.004 . S
Co420 O430 2.021 1_554 S
Co420 O432 2.137 . S
Co420 O433 2.244 . S
O421 Co420 2.216 . S
O421 C428 1.247 . S
O422 Co420 2.091 . S
O422 C428 1.261 . S
C423 O432 1.247 . S
C423 O433 1.272 . S
O424 Co420 2.004 . S
O424 C429 1.263 . S
Co425 O426 2.061 . S
Co425 O431 2.052 . S
Co425 O433 2.135 1_556 S
O426 Co425 2.061 . S
O426 C429 1.231 1_556 S
C427 O430 1.238 . S
C427 O431 1.241 . S
C428 O421 1.247 . S
C428 O422 1.261 . S
C429 O424 1.263 . S
C429 O426 1.231 1_554 S
O430 Co420 2.021 1_556 S
O430 C427 1.238 . S
O431 Co425 2.052 . S
O431 C427 1.241 . S
O432 Co420 2.137 . S
O432 C423 1.247 . S
O433 Co420 2.244 . S
O433 C423 1.272 . S
O433 Co425 2.135 1_554 S
Co434 O435 2.216 . S
Co434 O436 2.091 . S
Co434 O438 2.004 . S
Co434 O444 2.021 1_554 S
Co434 O446 2.137 . S
Co434 O447 2.244 . S
O435 Co434 2.216 . S
O435 C442 1.247 . S
O436 Co434 2.091 . S
O436 C442 1.261 . S
C437 O446 1.247 . S
C437 O447 1.272 . S
O438 Co434 2.004 . S
O438 C443 1.263 . S
Co439 O440 2.061 . S
Co439 O445 2.052 . S
Co439 O447 2.135 1_556 S
O440 Co439 2.061 . S
O440 C443 1.232 1_556 S
C441 O444 1.238 . S
C441 O445 1.241 . S
C442 O435 1.247 . S
C442 O436 1.261 . S
C443 O438 1.263 . S
C443 O440 1.232 1_554 S
O444 Co434 2.021 1_556 S
O444 C441 1.238 . S
O445 Co439 2.052 . S
O445 C441 1.241 . S
O446 Co434 2.137 . S
O446 C437 1.247 . S
O447 Co434 2.244 . S
O447 C437 1.272 . S
O447 Co439 2.135 1_554 S
C448 C449 1.391 . S
C448 C450 1.394 . S
C448 H464 0.931 . S
C449 C448 1.391 . S
C449 C453 1.376 . S
C450 C448 1.394 . S
C450 C451 1.369 . S
C450 C454 1.531 . S
C451 C450 1.369 . S
C451 C452 1.410 . S
C451 C459 1.503 . S
C452 C451 1.410 . S
C452 C453 1.392 . S
C452 C455 1.511 . S
C453 C449 1.376 . S
C453 C452 1.392 . S
C453 H465 0.929 . S
C454 C450 1.531 . S
C454 H466 0.960 . S
C454 H467 0.962 . S
C454 H468 0.960 . S
C455 C452 1.511 . S
C455 H469 0.961 . S
C455 H470 0.961 . S
C455 H471 0.961 . S
C456 C457 1.370 . S
C456 C458 1.363 . S
C456 H472 0.931 . S
C457 C456 1.370 . S
C457 C461 1.408 . S
C458 C456 1.363 . S
C458 C459 1.370 . S
C458 C462 1.524 . S
C459 C451 1.503 . S
C459 C458 1.370 . S
C459 C460 1.403 . S
C460 C459 1.403 . S
C460 C461 1.404 . S
C460 C463 1.539 . S
C461 C457 1.408 . S
C461 C460 1.404 . S
C461 H473 0.930 . S
C462 C458 1.524 . S
C462 H474 0.956 . S
C462 H475 0.961 . S
C462 H476 0.961 . S
C463 C460 1.539 . S
C463 H477 0.958 . S
C463 H478 0.961 . S
C463 H479 0.960 . S
H464 C448 0.931 . S
H465 C453 0.929 . S
H466 C454 0.960 . S
H467 C454 0.962 . S
H468 C454 0.960 . S
H469 C455 0.961 . S
H470 C455 0.961 . S
H471 C455 0.961 . S
H472 C456 0.931 . S
H473 C461 0.930 . S
H474 C462 0.956 . S
H475 C462 0.961 . S
H476 C462 0.961 . S
H477 C463 0.958 . S
H478 C463 0.961 . S
H479 C463 0.960 . S
C480 C481 1.391 . S
C480 C482 1.394 . S
C480 H496 0.931 . S
C481 C480 1.391 . S
C481 C485 1.376 . S
C482 C480 1.394 . S
C482 C483 1.369 . S
C482 C486 1.531 . S
C483 C482 1.369 . S
C483 C484 1.410 . S
C483 C491 1.503 . S
C484 C483 1.410 . S
C484 C485 1.392 . S
C484 C487 1.511 . S
C485 C481 1.376 . S
C485 C484 1.392 . S
C485 H497 0.929 . S
C486 C482 1.531 . S
C486 H498 0.960 . S
C486 H499 0.962 . S
C486 H500 0.960 . S
C487 C484 1.511 . S
C487 H501 0.961 . S
C487 H502 0.961 . S
C487 H503 0.961 . S
C488 C489 1.370 . S
C488 C490 1.363 . S
C488 H504 0.931 . S
C489 C488 1.370 . S
C489 C493 1.408 . S
C490 C488 1.363 . S
C490 C491 1.370 . S
C490 C494 1.524 . S
C491 C483 1.503 . S
C491 C490 1.370 . S
C491 C492 1.403 . S
C492 C491 1.403 . S
C492 C493 1.404 . S
C492 C495 1.539 . S
C493 C489 1.408 . S
C493 C492 1.404 . S
C493 H505 0.930 . S
C494 C490 1.524 . S
C494 H506 0.956 . S
C494 H507 0.961 . S
C494 H508 0.961 . S
C495 C492 1.539 . S
C495 H509 0.958 . S
C495 H510 0.961 . S
C495 H511 0.960 . S
H496 C480 0.931 . S
H497 C485 0.929 . S
H498 C486 0.960 . S
H499 C486 0.962 . S
H500 C486 0.960 . S
H501 C487 0.961 . S
H502 C487 0.961 . S
H503 C487 0.961 . S
H504 C488 0.931 . S
H505 C493 0.930 . S
H506 C494 0.956 . S
H507 C494 0.961 . S
H508 C494 0.961 . S
H509 C495 0.958 . S
H510 C495 0.961 . S
H511 C495 0.960 . S
C512 C513 1.391 . S
C512 C514 1.394 . S
C512 H528 0.931 . S
C513 C512 1.391 . S
C513 C517 1.376 . S
C514 C512 1.394 . S
C514 C515 1.369 . S
C514 C518 1.531 . S
C515 C514 1.369 . S
C515 C516 1.410 . S
C515 C523 1.503 . S
C516 C515 1.410 . S
C516 C517 1.392 . S
C516 C519 1.511 . S
C517 C513 1.376 . S
C517 C516 1.392 . S
C517 H529 0.929 . S
C518 C514 1.531 . S
C518 H530 0.960 . S
C518 H531 0.962 . S
C518 H532 0.960 . S
C519 C516 1.511 . S
C519 H533 0.961 . S
C519 H534 0.961 . S
C519 H535 0.961 . S
C520 C521 1.370 . S
C520 C522 1.363 . S
C520 H536 0.931 . S
C521 C520 1.370 . S
C521 C525 1.408 . S
C522 C520 1.363 . S
C522 C523 1.370 . S
C522 C526 1.524 . S
C523 C515 1.503 . S
C523 C522 1.370 . S
C523 C524 1.403 . S
C524 C523 1.403 . S
C524 C525 1.404 . S
C524 C527 1.539 . S
C525 C521 1.408 . S
C525 C524 1.404 . S
C525 H537 0.930 . S
C526 C522 1.524 . S
C526 H538 0.956 . S
C526 H539 0.961 . S
C526 H540 0.961 . S
C527 C524 1.539 . S
C527 H541 0.958 . S
C527 H542 0.961 . S
C527 H543 0.960 . S
H528 C512 0.931 . S
H529 C517 0.929 . S
H530 C518 0.960 . S
H531 C518 0.962 . S
H532 C518 0.960 . S
H533 C519 0.961 . S
H534 C519 0.961 . S
H535 C519 0.961 . S
H536 C520 0.931 . S
H537 C525 0.930 . S
H538 C526 0.956 . S
H539 C526 0.961 . S
H540 C526 0.961 . S
H541 C527 0.958 . S
H542 C527 0.961 . S
H543 C527 0.960 . S
C544 C545 1.391 . S
C544 C546 1.394 . S
C544 H560 0.931 . S
C545 C544 1.391 . S
C545 C549 1.376 . S
C546 C544 1.394 . S
C546 C547 1.369 . S
C546 C550 1.531 . S
C547 C546 1.369 . S
C547 C548 1.410 . S
C547 C555 1.503 . S
C548 C547 1.410 . S
C548 C549 1.392 . S
C548 C551 1.511 . S
C549 C545 1.376 . S
C549 C548 1.392 . S
C549 H561 0.929 . S
C550 C546 1.531 . S
C550 H562 0.960 . S
C550 H563 0.962 . S
C550 H564 0.960 . S
C551 C548 1.511 . S
C551 H565 0.961 . S
C551 H566 0.961 . S
C551 H567 0.961 . S
C552 C553 1.370 . S
C552 C554 1.363 . S
C552 H568 0.931 . S
C553 C552 1.370 . S
C553 C557 1.408 . S
C554 C552 1.363 . S
C554 C555 1.370 . S
C554 C558 1.524 . S
C555 C547 1.503 . S
C555 C554 1.370 . S
C555 C556 1.403 . S
C556 C555 1.403 . S
C556 C557 1.404 . S
C556 C559 1.539 . S
C557 C553 1.408 . S
C557 C556 1.404 . S
C557 H569 0.930 . S
C558 C554 1.524 . S
C558 H570 0.956 . S
C558 H571 0.961 . S
C558 H572 0.961 . S
C559 C556 1.539 . S
C559 H573 0.958 . S
C559 H574 0.961 . S
C559 H575 0.960 . S
H560 C544 0.931 . S
H561 C549 0.929 . S
H562 C550 0.960 . S
H563 C550 0.962 . S
H564 C550 0.960 . S
H565 C551 0.961 . S
H566 C551 0.961 . S
H567 C551 0.961 . S
H568 C552 0.931 . S
H569 C557 0.930 . S
H570 C558 0.956 . S
H571 C558 0.961 . S
H572 C558 0.961 . S
H573 C559 0.958 . S
H574 C559 0.961 . S
H575 C559 0.960 . S
C576 C577 1.391 . S
C576 C578 1.394 . S
C576 H592 0.931 . S
C577 C576 1.391 . S
C577 C581 1.376 . S
C578 C576 1.394 . S
C578 C579 1.369 . S
C578 C582 1.531 . S
C579 C578 1.369 . S
C579 C580 1.410 . S
C579 C587 1.503 . S
C580 C579 1.410 . S
C580 C581 1.392 . S
C580 C583 1.511 . S
C581 C577 1.376 . S
C581 C580 1.392 . S
C581 H593 0.929 . S
C582 C578 1.531 . S
C582 H594 0.960 . S
C582 H595 0.962 . S
C582 H596 0.960 . S
C583 C580 1.511 . S
C583 H597 0.961 . S
C583 H598 0.961 . S
C583 H599 0.961 . S
C584 C585 1.370 . S
C584 C586 1.363 . S
C584 H600 0.931 . S
C585 C584 1.370 . S
C585 C589 1.408 . S
C586 C584 1.363 . S
C586 C587 1.370 . S
C586 C590 1.524 . S
C587 C579 1.503 . S
C587 C586 1.370 . S
C587 C588 1.403 . S
C588 C587 1.403 . S
C588 C589 1.404 . S
C588 C591 1.539 . S
C589 C585 1.408 . S
C589 C588 1.404 . S
C589 H601 0.930 . S
C590 C586 1.524 . S
C590 H602 0.956 . S
C590 H603 0.961 . S
C590 H604 0.961 . S
C591 C588 1.539 . S
C591 H605 0.958 . S
C591 H606 0.961 . S
C591 H607 0.960 . S
H592 C576 0.931 . S
H593 C581 0.929 . S
H594 C582 0.960 . S
H595 C582 0.962 . S
H596 C582 0.960 . S
H597 C583 0.961 . S
H598 C583 0.961 . S
H599 C583 0.961 . S
H600 C584 0.931 . S
H601 C589 0.930 . S
H602 C590 0.956 . S
H603 C590 0.961 . S
H604 C590 0.961 . S
H605 C591 0.958 . S
H606 C591 0.961 . S
H607 C591 0.960 . S
C608 C609 1.391 . S
C608 C610 1.394 . S
C608 H624 0.931 . S
C609 C608 1.391 . S
C609 C613 1.376 . S
C610 C608 1.394 . S
C610 C611 1.369 . S
C610 C614 1.531 . S
C611 C610 1.369 . S
C611 C612 1.410 . S
C611 C619 1.503 . S
C612 C611 1.410 . S
C612 C613 1.392 . S
C612 C615 1.511 . S
C613 C609 1.376 . S
C613 C612 1.392 . S
C613 H625 0.929 . S
C614 C610 1.531 . S
C614 H626 0.960 . S
C614 H627 0.962 . S
C614 H628 0.960 . S
C615 C612 1.511 . S
C615 H629 0.961 . S
C615 H630 0.961 . S
C615 H631 0.961 . S
C616 C617 1.370 . S
C616 C618 1.363 . S
C616 H632 0.931 . S
C617 C616 1.370 . S
C617 C621 1.408 . S
C618 C616 1.363 . S
C618 C619 1.370 . S
C618 C622 1.524 . S
C619 C611 1.503 . S
C619 C618 1.370 . S
C619 C620 1.403 . S
C620 C619 1.403 . S
C620 C621 1.404 . S
C620 C623 1.539 . S
C621 C617 1.408 . S
C621 C620 1.404 . S
C621 H633 0.930 . S
C622 C618 1.524 . S
C622 H634 0.956 . S
C622 H635 0.961 . S
C622 H636 0.961 . S
C623 C620 1.539 . S
C623 H637 0.958 . S
C623 H638 0.961 . S
C623 H639 0.960 . S
H624 C608 0.931 . S
H625 C613 0.929 . S
H626 C614 0.960 . S
H627 C614 0.962 . S
H628 C614 0.960 . S
H629 C615 0.961 . S
H630 C615 0.961 . S
H631 C615 0.961 . S
H632 C616 0.931 . S
H633 C621 0.930 . S
H634 C622 0.956 . S
H635 C622 0.961 . S
H636 C622 0.961 . S
H637 C623 0.958 . S
H638 C623 0.961 . S
H639 C623 0.960 . S
C640 C641 1.391 . S
C640 C642 1.394 . S
C640 H656 0.931 . S
C641 C640 1.391 . S
C641 C645 1.376 . S
C642 C640 1.394 . S
C642 C643 1.369 . S
C642 C646 1.531 . S
C643 C642 1.369 . S
C643 C644 1.410 . S
C643 C651 1.503 . S
C644 C643 1.410 . S
C644 C645 1.392 . S
C644 C647 1.511 . S
C645 C641 1.376 . S
C645 C644 1.392 . S
C645 H657 0.929 . S
C646 C642 1.531 . S
C646 H658 0.960 . S
C646 H659 0.962 . S
C646 H660 0.960 . S
C647 C644 1.511 . S
C647 H661 0.961 . S
C647 H662 0.961 . S
C647 H663 0.961 . S
C648 C649 1.370 . S
C648 C650 1.363 . S
C648 H664 0.931 . S
C649 C648 1.370 . S
C649 C653 1.408 . S
C650 C648 1.363 . S
C650 C651 1.370 . S
C650 C654 1.524 . S
C651 C643 1.503 . S
C651 C650 1.370 . S
C651 C652 1.403 . S
C652 C651 1.403 . S
C652 C653 1.404 . S
C652 C655 1.539 . S
C653 C649 1.408 . S
C653 C652 1.404 . S
C653 H665 0.930 . S
C654 C650 1.524 . S
C654 H666 0.956 . S
C654 H667 0.961 . S
C654 H668 0.961 . S
C655 C652 1.539 . S
C655 H669 0.958 . S
C655 H670 0.961 . S
C655 H671 0.960 . S
H656 C640 0.931 . S
H657 C645 0.929 . S
H658 C646 0.960 . S
H659 C646 0.962 . S
H660 C646 0.960 . S
H661 C647 0.961 . S
H662 C647 0.961 . S
H663 C647 0.961 . S
H664 C648 0.931 . S
H665 C653 0.930 . S
H666 C654 0.956 . S
H667 C654 0.961 . S
H668 C654 0.961 . S
H669 C655 0.958 . S
H670 C655 0.961 . S
H671 C655 0.960 . S
C672 C673 1.391 . S
C672 C674 1.394 . S
C672 H688 0.931 . S
C673 C672 1.391 . S
C673 C677 1.376 . S
C674 C672 1.394 . S
C674 C675 1.369 . S
C674 C678 1.531 . S
C675 C674 1.369 . S
C675 C676 1.410 . S
C675 C683 1.503 . S
C676 C675 1.410 . S
C676 C677 1.392 . S
C676 C679 1.511 . S
C677 C673 1.376 . S
C677 C676 1.392 . S
C677 H689 0.929 . S
C678 C674 1.531 . S
C678 H690 0.960 . S
C678 H691 0.962 . S
C678 H692 0.960 . S
C679 C676 1.511 . S
C679 H693 0.961 . S
C679 H694 0.961 . S
C679 H695 0.961 . S
C680 C681 1.370 . S
C680 C682 1.363 . S
C680 H696 0.931 . S
C681 C680 1.370 . S
C681 C685 1.408 . S
C682 C680 1.363 . S
C682 C683 1.370 . S
C682 C686 1.524 . S
C683 C675 1.503 . S
C683 C682 1.370 . S
C683 C684 1.403 . S
C684 C683 1.403 . S
C684 C685 1.404 . S
C684 C687 1.539 . S
C685 C681 1.408 . S
C685 C684 1.404 . S
C685 H697 0.930 . S
C686 C682 1.524 . S
C686 H698 0.956 . S
C686 H699 0.961 . S
C686 H700 0.961 . S
C687 C684 1.539 . S
C687 H701 0.958 . S
C687 H702 0.961 . S
C687 H703 0.960 . S
H688 C672 0.931 . S
H689 C677 0.929 . S
H690 C678 0.960 . S
H691 C678 0.962 . S
H692 C678 0.960 . S
H693 C679 0.961 . S
H694 C679 0.961 . S
H695 C679 0.961 . S
H696 C680 0.931 . S
H697 C685 0.930 . S
H698 C686 0.956 . S
H699 C686 0.961 . S
H700 C686 0.961 . S
H701 C687 0.958 . S
H702 C687 0.961 . S
H703 C687 0.960 . S
C704 C705 1.391 . S
C704 C706 1.394 . S
C704 H720 0.931 . S
C705 C704 1.391 . S
C705 C709 1.376 . S
C706 C704 1.394 . S
C706 C707 1.369 . S
C706 C710 1.531 . S
C707 C706 1.369 . S
C707 C708 1.410 . S
C707 C715 1.503 . S
C708 C707 1.410 . S
C708 C709 1.392 . S
C708 C711 1.511 . S
C709 C705 1.376 . S
C709 C708 1.392 . S
C709 H721 0.929 . S
C710 C706 1.531 . S
C710 H722 0.960 . S
C710 H723 0.962 . S
C710 H724 0.960 . S
C711 C708 1.511 . S
C711 H725 0.961 . S
C711 H726 0.961 . S
C711 H727 0.961 . S
C712 C713 1.370 . S
C712 C714 1.363 . S
C712 H728 0.931 . S
C713 C712 1.370 . S
C713 C717 1.408 . S
C714 C712 1.363 . S
C714 C715 1.370 . S
C714 C718 1.524 . S
C715 C707 1.503 . S
C715 C714 1.370 . S
C715 C716 1.403 . S
C716 C715 1.403 . S
C716 C717 1.404 . S
C716 C719 1.539 . S
C717 C713 1.408 . S
C717 C716 1.404 . S
C717 H729 0.930 . S
C718 C714 1.524 . S
C718 H730 0.956 . S
C718 H731 0.961 . S
C718 H732 0.961 . S
C719 C716 1.539 . S
C719 H733 0.958 . S
C719 H734 0.961 . S
C719 H735 0.960 . S
H720 C704 0.931 . S
H721 C709 0.929 . S
H722 C710 0.960 . S
H723 C710 0.962 . S
H724 C710 0.960 . S
H725 C711 0.961 . S
H726 C711 0.961 . S
H727 C711 0.961 . S
H728 C712 0.931 . S
H729 C717 0.930 . S
H730 C718 0.956 . S
H731 C718 0.961 . S
H732 C718 0.961 . S
H733 C719 0.958 . S
H734 C719 0.961 . S
H735 C719 0.960 . S
C736 C737 1.391 . S
C736 C738 1.394 . S
C736 H752 0.931 . S
C737 C736 1.391 . S
C737 C741 1.376 . S
C738 C736 1.394 . S
C738 C739 1.369 . S
C738 C742 1.531 . S
C739 C738 1.369 . S
C739 C740 1.410 . S
C739 C747 1.503 . S
C740 C739 1.410 . S
C740 C741 1.392 . S
C740 C743 1.511 . S
C741 C737 1.376 . S
C741 C740 1.392 . S
C741 H753 0.929 . S
C742 C738 1.531 . S
C742 H754 0.960 . S
C742 H755 0.962 . S
C742 H756 0.960 . S
C743 C740 1.511 . S
C743 H757 0.961 . S
C743 H758 0.961 . S
C743 H759 0.961 . S
C744 C745 1.370 . S
C744 C746 1.363 . S
C744 H760 0.931 . S
C745 C744 1.370 . S
C745 C749 1.408 . S
C746 C744 1.363 . S
C746 C747 1.370 . S
C746 C750 1.524 . S
C747 C739 1.503 . S
C747 C746 1.370 . S
C747 C748 1.403 . S
C748 C747 1.403 . S
C748 C749 1.404 . S
C748 C751 1.539 . S
C749 C745 1.408 . S
C749 C748 1.404 . S
C749 H761 0.930 . S
C750 C746 1.524 . S
C750 H762 0.956 . S
C750 H763 0.961 . S
C750 H764 0.961 . S
C751 C748 1.539 . S
C751 H765 0.958 . S
C751 H766 0.961 . S
C751 H767 0.960 . S
H752 C736 0.931 . S
H753 C741 0.929 . S
H754 C742 0.960 . S
H755 C742 0.962 . S
H756 C742 0.960 . S
H757 C743 0.961 . S
H758 C743 0.961 . S
H759 C743 0.961 . S
H760 C744 0.931 . S
H761 C749 0.930 . S
H762 C750 0.956 . S
H763 C750 0.961 . S
H764 C750 0.961 . S
H765 C751 0.958 . S
H766 C751 0.961 . S
H767 C751 0.960 . S
C768 C769 1.391 . S
C768 C770 1.394 . S
C768 H784 0.931 . S
C769 C768 1.391 . S
C769 C773 1.376 . S
C770 C768 1.394 . S
C770 C771 1.369 . S
C770 C774 1.531 . S
C771 C770 1.369 . S
C771 C772 1.410 . S
C771 C779 1.503 . S
C772 C771 1.410 . S
C772 C773 1.392 . S
C772 C775 1.511 . S
C773 C769 1.376 . S
C773 C772 1.392 . S
C773 H785 0.929 . S
C774 C770 1.531 . S
C774 H786 0.960 . S
C774 H787 0.962 . S
C774 H788 0.960 . S
C775 C772 1.511 . S
C775 H789 0.961 . S
C775 H790 0.961 . S
C775 H791 0.961 . S
C776 C777 1.370 . S
C776 C778 1.363 . S
C776 H792 0.931 . S
C777 C776 1.370 . S
C777 C781 1.408 . S
C778 C776 1.363 . S
C778 C779 1.370 . S
C778 C782 1.524 . S
C779 C771 1.503 . S
C779 C778 1.370 . S
C779 C780 1.403 . S
C780 C779 1.403 . S
C780 C781 1.404 . S
C780 C783 1.539 . S
C781 C777 1.408 . S
C781 C780 1.404 . S
C781 H793 0.930 . S
C782 C778 1.524 . S
C782 H794 0.956 . S
C782 H795 0.961 . S
C782 H796 0.961 . S
C783 C780 1.539 . S
C783 H797 0.958 . S
C783 H798 0.961 . S
C783 H799 0.960 . S
H784 C768 0.931 . S
H785 C773 0.929 . S
H786 C774 0.960 . S
H787 C774 0.962 . S
H788 C774 0.960 . S
H789 C775 0.961 . S
H790 C775 0.961 . S
H791 C775 0.961 . S
H792 C776 0.931 . S
H793 C781 0.930 . S
H794 C782 0.956 . S
H795 C782 0.961 . S
H796 C782 0.961 . S
H797 C783 0.958 . S
H798 C783 0.961 . S
H799 C783 0.960 . S
C800 C801 1.391 . S
C800 C802 1.394 . S
C800 H816 0.931 . S
C801 C800 1.391 . S
C801 C805 1.376 . S
C802 C800 1.394 . S
C802 C803 1.369 . S
C802 C806 1.531 . S
C803 C802 1.369 . S
C803 C804 1.410 . S
C803 C811 1.503 . S
C804 C803 1.410 . S
C804 C805 1.392 . S
C804 C807 1.511 . S
C805 C801 1.376 . S
C805 C804 1.392 . S
C805 H817 0.929 . S
C806 C802 1.531 . S
C806 H818 0.960 . S
C806 H819 0.962 . S
C806 H820 0.960 . S
C807 C804 1.511 . S
C807 H821 0.961 . S
C807 H822 0.961 . S
C807 H823 0.961 . S
C808 C809 1.370 . S
C808 C810 1.363 . S
C808 H824 0.931 . S
C809 C808 1.370 . S
C809 C813 1.408 . S
C810 C808 1.363 . S
C810 C811 1.370 . S
C810 C814 1.524 . S
C811 C803 1.503 . S
C811 C810 1.370 . S
C811 C812 1.403 . S
C812 C811 1.403 . S
C812 C813 1.404 . S
C812 C815 1.539 . S
C813 C809 1.408 . S
C813 C812 1.404 . S
C813 H825 0.930 . S
C814 C810 1.524 . S
C814 H826 0.956 . S
C814 H827 0.961 . S
C814 H828 0.961 . S
C815 C812 1.539 . S
C815 H829 0.958 . S
C815 H830 0.961 . S
C815 H831 0.960 . S
H816 C800 0.931 . S
H817 C805 0.929 . S
H818 C806 0.960 . S
H819 C806 0.962 . S
H820 C806 0.960 . S
H821 C807 0.961 . S
H822 C807 0.961 . S
H823 C807 0.961 . S
H824 C808 0.931 . S
H825 C813 0.930 . S
H826 C814 0.956 . S
H827 C814 0.961 . S
H828 C814 0.961 . S
H829 C815 0.958 . S
H830 C815 0.961 . S
H831 C815 0.960 . S
C832 C833 1.391 . S
C832 C834 1.394 . S
C832 H848 0.931 . S
C833 C832 1.391 . S
C833 C837 1.376 . S
C834 C832 1.394 . S
C834 C835 1.369 . S
C834 C838 1.531 . S
C835 C834 1.369 . S
C835 C836 1.410 . S
C835 C843 1.503 . S
C836 C835 1.410 . S
C836 C837 1.392 . S
C836 C839 1.511 . S
C837 C833 1.376 . S
C837 C836 1.392 . S
C837 H849 0.929 . S
C838 C834 1.531 . S
C838 H850 0.960 . S
C838 H851 0.962 . S
C838 H852 0.960 . S
C839 C836 1.511 . S
C839 H853 0.961 . S
C839 H854 0.961 . S
C839 H855 0.961 . S
C840 C841 1.370 . S
C840 C842 1.363 . S
C840 H856 0.931 . S
C841 C840 1.370 . S
C841 C845 1.408 . S
C842 C840 1.363 . S
C842 C843 1.370 . S
C842 C846 1.524 . S
C843 C835 1.503 . S
C843 C842 1.370 . S
C843 C844 1.403 . S
C844 C843 1.403 . S
C844 C845 1.404 . S
C844 C847 1.539 . S
C845 C841 1.408 . S
C845 C844 1.404 . S
C845 H857 0.930 . S
C846 C842 1.524 . S
C846 H858 0.956 . S
C846 H859 0.961 . S
C846 H860 0.961 . S
C847 C844 1.539 . S
C847 H861 0.958 . S
C847 H862 0.961 . S
C847 H863 0.960 . S
H848 C832 0.931 . S
H849 C837 0.929 . S
H850 C838 0.960 . S
H851 C838 0.962 . S
H852 C838 0.960 . S
H853 C839 0.961 . S
H854 C839 0.961 . S
H855 C839 0.961 . S
H856 C840 0.931 . S
H857 C845 0.930 . S
H858 C846 0.956 . S
H859 C846 0.961 . S
H860 C846 0.961 . S
H861 C847 0.958 . S
H862 C847 0.961 . S
H863 C847 0.960 . S
C864 C865 1.391 . S
C864 C866 1.394 . S
C864 H880 0.931 . S
C865 C864 1.391 . S
C865 C869 1.376 . S
C866 C864 1.394 . S
C866 C867 1.369 . S
C866 C870 1.531 . S
C867 C866 1.369 . S
C867 C868 1.410 . S
C867 C875 1.503 . S
C868 C867 1.410 . S
C868 C869 1.392 . S
C868 C871 1.511 . S
C869 C865 1.376 . S
C869 C868 1.392 . S
C869 H881 0.929 . S
C870 C866 1.531 . S
C870 H882 0.960 . S
C870 H883 0.962 . S
C870 H884 0.960 . S
C871 C868 1.511 . S
C871 H885 0.961 . S
C871 H886 0.961 . S
C871 H887 0.961 . S
C872 C873 1.370 . S
C872 C874 1.363 . S
C872 H888 0.931 . S
C873 C872 1.370 . S
C873 C877 1.408 . S
C874 C872 1.363 . S
C874 C875 1.370 . S
C874 C878 1.524 . S
C875 C867 1.503 . S
C875 C874 1.370 . S
C875 C876 1.403 . S
C876 C875 1.403 . S
C876 C877 1.404 . S
C876 C879 1.539 . S
C877 C873 1.408 . S
C877 C876 1.404 . S
C877 H889 0.930 . S
C878 C874 1.524 . S
C878 H890 0.956 . S
C878 H891 0.961 . S
C878 H892 0.961 . S
C879 C876 1.539 . S
C879 H893 0.958 . S
C879 H894 0.961 . S
C879 H895 0.960 . S
H880 C864 0.931 . S
H881 C869 0.929 . S
H882 C870 0.960 . S
H883 C870 0.962 . S
H884 C870 0.960 . S
H885 C871 0.961 . S
H886 C871 0.961 . S
H887 C871 0.961 . S
H888 C872 0.931 . S
H889 C877 0.930 . S
H890 C878 0.956 . S
H891 C878 0.961 . S
H892 C878 0.961 . S
H893 C879 0.958 . S
H894 C879 0.961 . S
H895 C879 0.960 . S
C896 C897 1.391 . S
C896 C898 1.394 . S
C896 H912 0.931 . S
C897 C896 1.391 . S
C897 C901 1.376 . S
C898 C896 1.394 . S
C898 C899 1.369 . S
C898 C902 1.531 . S
C899 C898 1.369 . S
C899 C900 1.410 . S
C899 C907 1.503 . S
C900 C899 1.410 . S
C900 C901 1.392 . S
C900 C903 1.511 . S
C901 C897 1.376 . S
C901 C900 1.392 . S
C901 H913 0.929 . S
C902 C898 1.531 . S
C902 H914 0.960 . S
C902 H915 0.962 . S
C902 H916 0.960 . S
C903 C900 1.511 . S
C903 H917 0.961 . S
C903 H918 0.961 . S
C903 H919 0.961 . S
C904 C905 1.370 . S
C904 C906 1.363 . S
C904 H920 0.931 . S
C905 C904 1.370 . S
C905 C909 1.408 . S
C906 C904 1.363 . S
C906 C907 1.370 . S
C906 C910 1.524 . S
C907 C899 1.503 . S
C907 C906 1.370 . S
C907 C908 1.403 . S
C908 C907 1.403 . S
C908 C909 1.404 . S
C908 C911 1.539 . S
C909 C905 1.408 . S
C909 C908 1.404 . S
C909 H921 0.930 . S
C910 C906 1.524 . S
C910 H922 0.956 . S
C910 H923 0.961 . S
C910 H924 0.961 . S
C911 C908 1.539 . S
C911 H925 0.958 . S
C911 H926 0.961 . S
C911 H927 0.960 . S
H912 C896 0.931 . S
H913 C901 0.929 . S
H914 C902 0.960 . S
H915 C902 0.962 . S
H916 C902 0.960 . S
H917 C903 0.961 . S
H918 C903 0.961 . S
H919 C903 0.961 . S
H920 C904 0.931 . S
H921 C909 0.930 . S
H922 C910 0.956 . S
H923 C910 0.961 . S
H924 C910 0.961 . S
H925 C911 0.958 . S
H926 C911 0.961 . S
H927 C911 0.960 . S
C928 C929 1.391 . S
C928 C930 1.394 . S
C928 H944 0.931 . S
C929 C928 1.391 . S
C929 C933 1.376 . S
C930 C928 1.394 . S
C930 C931 1.369 . S
C930 C934 1.531 . S
C931 C930 1.369 . S
C931 C932 1.410 . S
C931 C939 1.503 . S
C932 C931 1.410 . S
C932 C933 1.392 . S
C932 C935 1.511 . S
C933 C929 1.376 . S
C933 C932 1.392 . S
C933 H945 0.929 . S
C934 C930 1.531 . S
C934 H946 0.960 . S
C934 H947 0.962 . S
C934 H948 0.960 . S
C935 C932 1.511 . S
C935 H949 0.961 . S
C935 H950 0.961 . S
C935 H951 0.961 . S
C936 C937 1.370 . S
C936 C938 1.363 . S
C936 H952 0.931 . S
C937 C936 1.370 . S
C937 C941 1.408 . S
C938 C936 1.363 . S
C938 C939 1.370 . S
C938 C942 1.524 . S
C939 C931 1.503 . S
C939 C938 1.370 . S
C939 C940 1.403 . S
C940 C939 1.403 . S
C940 C941 1.404 . S
C940 C943 1.539 . S
C941 C937 1.408 . S
C941 C940 1.404 . S
C941 H953 0.930 . S
C942 C938 1.524 . S
C942 H954 0.956 . S
C942 H955 0.961 . S
C942 H956 0.961 . S
C943 C940 1.539 . S
C943 H957 0.958 . S
C943 H958 0.961 . S
C943 H959 0.960 . S
H944 C928 0.931 . S
H945 C933 0.929 . S
H946 C934 0.960 . S
H947 C934 0.962 . S
H948 C934 0.960 . S
H949 C935 0.961 . S
H950 C935 0.961 . S
H951 C935 0.961 . S
H952 C936 0.931 . S
H953 C941 0.930 . S
H954 C942 0.956 . S
H955 C942 0.961 . S
H956 C942 0.961 . S
H957 C943 0.958 . S
H958 C943 0.961 . S
H959 C943 0.960 . S
C960 C961 1.391 . S
C960 C962 1.394 . S
C960 H976 0.931 . S
C961 C960 1.391 . S
C961 C965 1.376 . S
C962 C960 1.394 . S
C962 C963 1.369 . S
C962 C966 1.531 . S
C963 C962 1.369 . S
C963 C964 1.410 . S
C963 C971 1.503 1_655 S
C964 C963 1.410 . S
C964 C965 1.392 . S
C964 C967 1.511 1_655 S
C965 C961 1.376 . S
C965 C964 1.392 . S
C965 H977 0.929 . S
C966 C962 1.531 . S
C966 H978 0.962 1_655 S
C966 H979 0.962 . S
C966 H980 0.960 . S
C967 C964 1.511 1_455 S
C967 H981 0.961 . S
C967 H982 0.961 . S
C967 H983 0.961 . S
C968 C969 1.370 . S
C968 C970 1.363 1_455 S
C968 H984 0.931 . S
C969 C968 1.370 . S
C969 C973 1.408 . S
C970 C968 1.363 1_655 S
C970 C971 1.370 1_655 S
C970 C974 1.524 . S
C971 C963 1.503 1_455 S
C971 C970 1.370 1_455 S
C971 C972 1.403 . S
C972 C971 1.403 . S
C972 C973 1.404 . S
C972 C975 1.539 . S
C973 C969 1.408 . S
C973 C972 1.404 . S
C973 H985 0.930 . S
C974 C970 1.524 . S
C974 H986 0.956 . S
C974 H987 0.961 . S
C974 H988 0.961 . S
C975 C972 1.539 . S
C975 H989 0.958 . S
C975 H990 0.961 . S
C975 H991 0.960 . S
H976 C960 0.931 . S
H977 C965 0.929 . S
H978 C966 0.962 1_455 S
H979 C966 0.962 . S
H980 C966 0.960 . S
H981 C967 0.961 . S
H982 C967 0.961 . S
H983 C967 0.961 . S
H984 C968 0.931 . S
H985 C973 0.930 . S
H986 C974 0.956 . S
H987 C974 0.961 . S
H988 C974 0.961 . S
H989 C975 0.958 . S
H990 C975 0.961 . S
H991 C975 0.960 . S
C992 C993 1.391 . S
C992 C994 1.394 . S
C992 H1008 0.931 . S
C993 C992 1.391 . S
C993 C997 1.376 . S
C994 C992 1.394 . S
C994 C995 1.369 . S
C994 C998 1.531 1_565 S
C995 C994 1.369 . S
C995 C996 1.410 . S
C995 C1003 1.503 1_565 S
C996 C995 1.410 . S
C996 C997 1.392 . S
C996 C999 1.511 . S
C997 C993 1.376 . S
C997 C996 1.392 . S
C997 H1009 0.929 . S
C998 C994 1.531 1_545 S
C998 H1010 0.960 . S
C998 H1011 0.962 . S
C998 H1012 0.960 . S
C999 C996 1.511 . S
C999 H1013 0.961 . S
C999 H1014 0.961 . S
C999 H1015 0.961 . S
C1000 C1001 1.370 . S
C1000 C1002 1.363 . S
C1000 H1016 0.931 . S
C1001 C1000 1.370 . S
C1001 C1005 1.408 . S
C1002 C1000 1.363 . S
C1002 C1003 1.370 . S
C1002 C1006 1.524 . S
C1003 C995 1.503 1_545 S
C1003 C1002 1.370 . S
C1003 C1004 1.403 . S
C1004 C1003 1.403 . S
C1004 C1005 1.404 . S
C1004 C1007 1.539 . S
C1005 C1001 1.408 . S
C1005 C1004 1.404 . S
C1005 H1017 0.930 . S
C1006 C1002 1.524 . S
C1006 H1018 0.956 . S
C1006 H1019 0.961 1_545 S
C1006 H1020 0.961 . S
C1007 C1004 1.539 . S
C1007 H1021 0.958 . S
C1007 H1022 0.961 . S
C1007 H1023 0.960 1_545 S
H1008 C992 0.931 . S
H1009 C997 0.929 . S
H1010 C998 0.960 . S
H1011 C998 0.962 . S
H1012 C998 0.960 . S
H1013 C999 0.961 . S
H1014 C999 0.961 . S
H1015 C999 0.961 . S
H1016 C1000 0.931 . S
H1017 C1005 0.930 . S
H1018 C1006 0.956 . S
H1019 C1006 0.961 1_565 S
H1020 C1006 0.961 . S
H1021 C1007 0.958 . S
H1022 C1007 0.961 . S
H1023 C1007 0.960 1_565 S
C1024 C1025 1.391 . S
C1024 C1026 1.394 . S
C1024 H1040 0.931 . S
C1025 C1024 1.391 . S
C1025 C1029 1.373 1_556 S
C1026 C1024 1.394 . S
C1026 C1027 1.369 . S
C1026 C1030 1.531 1_565 S
C1027 C1026 1.369 . S
C1027 C1028 1.414 1_455 S
C1027 C1035 1.503 1_465 S
C1028 C1027 1.414 1_655 S
C1028 C1029 1.392 1_656 S
C1028 C1031 1.508 1_556 S
C1029 C1025 1.373 1_554 S
C1029 C1028 1.392 1_454 S
C1029 H1041 0.933 . S
C1030 C1026 1.531 1_545 S
C1030 H1042 0.960 . S
C1030 H1043 0.962 . S
C1030 H1044 0.960 . S
C1031 C1028 1.508 1_554 S
C1031 H1045 0.961 . S
C1031 H1046 0.961 . S
C1031 H1047 0.961 1_554 S
C1032 C1033 1.370 . S
C1032 C1034 1.363 . S
C1032 H1048 0.931 . S
C1033 C1032 1.370 . S
C1033 C1037 1.408 1_554 S
C1034 C1032 1.363 . S
C1034 C1035 1.370 1_554 S
C1034 C1038 1.524 1_655 S
C1035 C1027 1.503 1_645 S
C1035 C1034 1.370 1_556 S
C1035 C1036 1.403 . S
C1036 C1035 1.403 . S
C1036 C1037 1.404 . S
C1036 C1039 1.539 . S
C1037 C1033 1.408 1_556 S
C1037 C1036 1.404 . S
C1037 H1049 0.930 . S
C1038 C1034 1.524 1_455 S
C1038 H1050 0.956 . S
C1038 H1051 0.960 1_445 S
C1038 H1052 0.965 . S
C1039 C1036 1.539 . S
C1039 H1053 0.958 . S
C1039 H1054 0.961 . S
C1039 H1055 0.960 1_545 S
H1040 C1024 0.931 . S
H1041 C1029 0.933 . S
H1042 C1030 0.960 . S
H1043 C1030 0.962 . S
H1044 C1030 0.960 . S
H1045 C1031 0.961 . S
H1046 C1031 0.961 . S
H1047 C1031 0.961 1_556 S
H1048 C1032 0.931 . S
H1049 C1037 0.930 . S
H1050 C1038 0.956 . S
H1051 C1038 0.960 1_665 S
H1052 C1038 0.965 . S
H1053 C1039 0.958 . S
H1054 C1039 0.961 . S
H1055 C1039 0.960 1_565 S
C1056 C1057 1.391 . S
C1056 C1058 1.394 . S
C1056 H1072 0.931 . S
C1057 C1056 1.391 . S
C1057 C1061 1.376 1_554 S
C1058 C1056 1.394 . S
C1058 C1059 1.369 . S
C1058 C1062 1.531 . S
C1059 C1058 1.369 . S
C1059 C1060 1.410 1_554 S
C1059 C1067 1.503 . S
C1060 C1059 1.410 1_556 S
C1060 C1061 1.392 . S
C1060 C1063 1.511 . S
C1061 C1057 1.376 1_556 S
C1061 C1060 1.392 . S
C1061 H1073 0.929 . S
C1062 C1058 1.531 . S
C1062 H1074 0.960 . S
C1062 H1075 0.962 . S
C1062 H1076 0.960 . S
C1063 C1060 1.511 . S
C1063 H1077 0.961 . S
C1063 H1078 0.961 . S
C1063 H1079 0.961 . S
C1064 C1065 1.370 . S
C1064 C1066 1.363 . S
C1064 H1080 0.931 . S
C1065 C1064 1.370 . S
C1065 C1069 1.409 . S
C1066 C1064 1.363 . S
C1066 C1067 1.371 1_556 S
C1066 C1070 1.524 . S
C1067 C1059 1.503 . S
C1067 C1066 1.371 1_554 S
C1067 C1068 1.402 . S
C1068 C1067 1.402 . S
C1068 C1069 1.403 1_554 S
C1068 C1071 1.539 . S
C1069 C1065 1.409 . S
C1069 C1068 1.403 1_556 S
C1069 H1081 0.930 1_556 S
C1070 C1066 1.524 . S
C1070 H1082 0.956 1_556 S
C1070 H1083 0.961 . S
C1070 H1084 0.961 . S
C1071 C1068 1.539 . S
C1071 H1085 0.958 . S
C1071 H1086 0.961 1_554 S
C1071 H1087 0.960 1_554 S
H1072 C1056 0.931 . S
H1073 C1061 0.929 . S
H1074 C1062 0.960 . S
H1075 C1062 0.962 . S
H1076 C1062 0.960 . S
H1077 C1063 0.961 . S
H1078 C1063 0.961 . S
H1079 C1063 0.961 . S
H1080 C1064 0.931 . S
H1081 C1069 0.930 1_554 S
H1082 C1070 0.956 1_554 S
H1083 C1070 0.961 . S
H1084 C1070 0.961 . S
H1085 C1071 0.958 . S
H1086 C1071 0.961 1_556 S
H1087 C1071 0.960 1_556 S
C1088 C1089 1.391 . S
C1088 C1090 1.385 1_655 S
C1088 H1104 0.931 . S
C1089 C1088 1.391 . S
C1089 C1093 1.376 . S
C1090 C1088 1.385 1_455 S
C1090 C1091 1.363 1_455 S
C1090 C1094 1.545 . S
C1091 C1090 1.363 1_655 S
C1091 C1092 1.410 . S
C1091 C1099 1.503 1_655 S
C1092 C1091 1.410 . S
C1092 C1093 1.392 . S
C1092 C1095 1.511 . S
C1093 C1089 1.376 . S
C1093 C1092 1.392 . S
C1093 H1105 0.929 . S
C1094 C1090 1.545 . S
C1094 H1106 0.960 . S
C1094 H1107 0.962 . S
C1094 H1108 0.960 . S
C1095 C1092 1.511 . S
C1095 H1109 0.961 . S
C1095 H1110 0.961 . S
C1095 H1111 0.961 . S
C1096 C1097 1.370 . S
C1096 C1098 1.363 . S
C1096 H1112 0.931 . S
C1097 C1096 1.370 . S
C1097 C1101 1.408 . S
C1098 C1096 1.363 . S
C1098 C1099 1.370 . S
C1098 C1102 1.524 . S
C1099 C1091 1.503 1_455 S
C1099 C1098 1.370 . S
C1099 C1100 1.403 . S
C1100 C1099 1.403 . S
C1100 C1101 1.404 . S
C1100 C1103 1.539 1_455 S
C1101 C1097 1.408 . S
C1101 C1100 1.404 . S
C1101 H1113 0.930 . S
C1102 C1098 1.524 . S
C1102 H1114 0.956 . S
C1102 H1115 0.961 . S
C1102 H1116 0.961 . S
C1103 C1100 1.539 1_655 S
C1103 H1117 0.958 . S
C1103 H1118 0.961 . S
C1103 H1119 0.960 . S
H1104 C1088 0.931 . S
H1105 C1093 0.929 . S
H1106 C1094 0.960 . S
H1107 C1094 0.962 . S
H1108 C1094 0.960 . S
H1109 C1095 0.961 . S
H1110 C1095 0.961 . S
H1111 C1095 0.961 . S
H1112 C1096 0.931 . S
H1113 C1101 0.930 . S
H1114 C1102 0.956 . S
H1115 C1102 0.961 . S
H1116 C1102 0.961 . S
H1117 C1103 0.958 . S
H1118 C1103 0.961 . S
H1119 C1103 0.960 . S
C1120 C1121 1.391 . S
C1120 C1122 1.394 . S
C1120 H1136 0.931 . S
C1121 C1120 1.391 . S
C1121 C1125 1.376 . S
C1122 C1120 1.394 . S
C1122 C1123 1.369 . S
C1122 C1126 1.531 1_565 S
C1123 C1122 1.369 . S
C1123 C1124 1.410 . S
C1123 C1131 1.503 1_565 S
C1124 C1123 1.410 . S
C1124 C1125 1.392 . S
C1124 C1127 1.511 . S
C1125 C1121 1.376 . S
C1125 C1124 1.392 . S
C1125 H1137 0.929 . S
C1126 C1122 1.531 1_545 S
C1126 H1138 0.960 . S
C1126 H1139 0.962 . S
C1126 H1140 0.960 . S
C1127 C1124 1.511 . S
C1127 H1141 0.961 . S
C1127 H1142 0.961 . S
C1127 H1143 0.961 . S
C1128 C1129 1.370 . S
C1128 C1130 1.363 . S
C1128 H1144 0.931 . S
C1129 C1128 1.370 . S
C1129 C1133 1.408 . S
C1130 C1128 1.363 . S
C1130 C1131 1.370 . S
C1130 C1134 1.524 . S
C1131 C1123 1.503 1_545 S
C1131 C1130 1.370 . S
C1131 C1132 1.403 . S
C1132 C1131 1.403 . S
C1132 C1133 1.404 . S
C1132 C1135 1.539 . S
C1133 C1129 1.408 . S
C1133 C1132 1.404 . S
C1133 H1145 0.930 . S
C1134 C1130 1.524 . S
C1134 H1146 0.956 . S
C1134 H1147 0.961 1_545 S
C1134 H1148 0.961 . S
C1135 C1132 1.539 . S
C1135 H1149 0.958 . S
C1135 H1150 0.961 . S
C1135 H1151 0.960 1_545 S
H1136 C1120 0.931 . S
H1137 C1125 0.929 . S
H1138 C1126 0.960 . S
H1139 C1126 0.962 . S
H1140 C1126 0.960 . S
H1141 C1127 0.961 . S
H1142 C1127 0.961 . S
H1143 C1127 0.961 . S
H1144 C1128 0.931 . S
H1145 C1133 0.930 . S
H1146 C1134 0.956 . S
H1147 C1134 0.961 1_565 S
H1148 C1134 0.961 . S
H1149 C1135 0.958 . S
H1150 C1135 0.961 . S
H1151 C1135 0.960 1_565 S
C1152 C1153 1.391 . S
C1152 C1154 1.394 . S
C1152 H1168 0.931 . S
C1153 C1152 1.391 . S
C1153 C1157 1.376 1_556 S
C1154 C1152 1.394 . S
C1154 C1155 1.369 1_556 S
C1154 C1158 1.531 . S
C1155 C1154 1.369 1_554 S
C1155 C1156 1.410 . S
C1155 C1163 1.503 . S
C1156 C1155 1.410 . S
C1156 C1157 1.392 . S
C1156 C1159 1.511 . S
C1157 C1153 1.376 1_554 S
C1157 C1156 1.392 . S
C1157 H1169 0.929 . S
C1158 C1154 1.531 . S
C1158 H1170 0.960 . S
C1158 H1171 0.962 . S
C1158 H1172 0.960 . S
C1159 C1156 1.511 . S
C1159 H1173 0.961 . S
C1159 H1174 0.961 . S
C1159 H1175 0.961 . S
C1160 C1161 1.370 1_556 S
C1160 C1162 1.363 . S
C1160 H1176 0.931 . S
C1161 C1160 1.370 1_554 S
C1161 C1165 1.408 . S
C1162 C1160 1.363 . S
C1162 C1163 1.370 1_556 S
C1162 C1166 1.524 . S
C1163 C1155 1.503 . S
C1163 C1162 1.370 1_554 S
C1163 C1164 1.403 . S
C1164 C1163 1.403 . S
C1164 C1165 1.404 . S
C1164 C1167 1.539 . S
C1165 C1161 1.408 . S
C1165 C1164 1.404 . S
C1165 H1177 0.930 . S
C1166 C1162 1.524 . S
C1166 H1178 0.956 . S
C1166 H1179 0.961 . S
C1166 H1180 0.961 . S
C1167 C1164 1.539 . S
C1167 H1181 0.958 . S
C1167 H1182 0.961 . S
C1167 H1183 0.960 . S
H1168 C1152 0.931 . S
H1169 C1157 0.929 . S
H1170 C1158 0.960 . S
H1171 C1158 0.962 . S
H1172 C1158 0.960 . S
H1173 C1159 0.961 . S
H1174 C1159 0.961 . S
H1175 C1159 0.961 . S
H1176 C1160 0.931 . S
H1177 C1165 0.930 . S
H1178 C1166 0.956 . S
H1179 C1166 0.961 . S
H1180 C1166 0.961 . S
H1181 C1167 0.958 . S
H1182 C1167 0.961 . S
H1183 C1167 0.960 . S
C1184 C1185 1.391 . S
C1184 C1186 1.394 . S
C1184 H1200 0.931 . S
C1185 C1184 1.391 . S
C1185 C1189 1.376 . S
C1186 C1184 1.394 . S
C1186 C1187 1.369 . S
C1186 C1190 1.531 . S
C1187 C1186 1.369 . S
C1187 C1188 1.410 . S
C1187 C1195 1.503 . S
C1188 C1187 1.410 . S
C1188 C1189 1.392 . S
C1188 C1191 1.511 . S
C1189 C1185 1.376 . S
C1189 C1188 1.392 . S
C1189 H1201 0.929 . S
C1190 C1186 1.531 . S
C1190 H1202 0.960 . S
C1190 H1203 0.962 . S
C1190 H1204 0.960 . S
C1191 C1188 1.511 . S
C1191 H1205 0.961 . S
C1191 H1206 0.961 . S
C1191 H1207 0.961 . S
C1192 C1193 1.370 . S
C1192 C1194 1.363 . S
C1192 H1208 0.931 . S
C1193 C1192 1.370 . S
C1193 C1197 1.408 . S
C1194 C1192 1.363 . S
C1194 C1195 1.370 . S
C1194 C1198 1.524 . S
C1195 C1187 1.503 . S
C1195 C1194 1.370 . S
C1195 C1196 1.403 . S
C1196 C1195 1.403 . S
C1196 C1197 1.404 . S
C1196 C1199 1.539 . S
C1197 C1193 1.408 . S
C1197 C1196 1.404 . S
C1197 H1209 0.930 . S
C1198 C1194 1.524 . S
C1198 H1210 0.956 . S
C1198 H1211 0.961 . S
C1198 H1212 0.961 . S
C1199 C1196 1.539 . S
C1199 H1213 0.958 . S
C1199 H1214 0.961 . S
C1199 H1215 0.960 . S
H1200 C1184 0.931 . S
H1201 C1189 0.929 . S
H1202 C1190 0.960 . S
H1203 C1190 0.962 . S
H1204 C1190 0.960 . S
H1205 C1191 0.961 . S
H1206 C1191 0.961 . S
H1207 C1191 0.961 . S
H1208 C1192 0.931 . S
H1209 C1197 0.930 . S
H1210 C1198 0.956 . S
H1211 C1198 0.961 . S
H1212 C1198 0.961 . S
H1213 C1199 0.958 . S
H1214 C1199 0.961 . S
H1215 C1199 0.960 . S
C1216 C1217 1.391 . S
C1216 C1218 1.394 . S
C1216 H1232 0.931 . S
C1217 C1216 1.391 . S
C1217 C1221 1.376 . S
C1218 C1216 1.394 . S
C1218 C1219 1.369 . S
C1218 C1222 1.531 . S
C1219 C1218 1.369 . S
C1219 C1220 1.410 1_655 S
C1219 C1227 1.503 1_655 S
C1220 C1219 1.410 1_455 S
C1220 C1221 1.392 1_455 S
C1220 C1223 1.511 . S
C1221 C1217 1.376 . S
C1221 C1220 1.392 1_655 S
C1221 H1233 0.929 . S
C1222 C1218 1.531 . S
C1222 H1234 0.960 . S
C1222 H1235 0.962 . S
C1222 H1236 0.960 . S
C1223 C1220 1.511 . S
C1223 H1237 0.961 . S
C1223 H1238 0.961 . S
C1223 H1239 0.961 . S
C1224 C1225 1.370 . S
C1224 C1226 1.363 . S
C1224 H1240 0.931 . S
C1225 C1224 1.370 . S
C1225 C1229 1.408 . S
C1226 C1224 1.363 . S
C1226 C1227 1.370 . S
C1226 C1230 1.524 1_455 S
C1227 C1219 1.503 1_455 S
C1227 C1226 1.370 . S
C1227 C1228 1.403 . S
C1228 C1227 1.403 . S
C1228 C1229 1.404 . S
C1228 C1231 1.539 . S
C1229 C1225 1.408 . S
C1229 C1228 1.404 . S
C1229 H1241 0.930 . S
C1230 C1226 1.524 1_655 S
C1230 H1242 0.956 . S
C1230 H1243 0.961 . S
C1230 H1244 0.961 . S
C1231 C1228 1.539 . S
C1231 H1245 0.958 . S
C1231 H1246 0.961 . S
C1231 H1247 0.960 . S
H1232 C1216 0.931 . S
H1233 C1221 0.929 . S
H1234 C1222 0.960 . S
H1235 C1222 0.962 . S
H1236 C1222 0.960 . S
H1237 C1223 0.961 . S
H1238 C1223 0.961 . S
H1239 C1223 0.961 . S
H1240 C1224 0.931 . S
H1241 C1229 0.930 . S
H1242 C1230 0.956 . S
H1243 C1230 0.961 . S
H1244 C1230 0.961 . S
H1245 C1231 0.958 . S
H1246 C1231 0.961 . S
H1247 C1231 0.960 . S
C1248 C1249 1.391 . S
C1248 C1250 1.394 . S
C1248 H1264 0.931 . S
C1249 C1248 1.391 . S
C1249 C1253 1.376 . S
C1250 C1248 1.394 . S
C1250 C1251 1.369 . S
C1250 C1254 1.531 . S
C1251 C1250 1.369 . S
C1251 C1252 1.410 . S
C1251 C1259 1.503 . S
C1252 C1251 1.410 . S
C1252 C1253 1.392 . S
C1252 C1255 1.511 . S
C1253 C1249 1.376 . S
C1253 C1252 1.392 . S
C1253 H1265 0.929 . S
C1254 C1250 1.531 . S
C1254 H1266 0.960 . S
C1254 H1267 0.962 . S
C1254 H1268 0.960 . S
C1255 C1252 1.511 . S
C1255 H1269 0.961 . S
C1255 H1270 0.961 . S
C1255 H1271 0.961 . S
C1256 C1257 1.370 . S
C1256 C1258 1.363 . S
C1256 H1272 0.931 . S
C1257 C1256 1.370 . S
C1257 C1261 1.408 . S
C1258 C1256 1.363 . S
C1258 C1259 1.370 . S
C1258 C1262 1.524 . S
C1259 C1251 1.503 . S
C1259 C1258 1.370 . S
C1259 C1260 1.403 . S
C1260 C1259 1.403 . S
C1260 C1261 1.404 . S
C1260 C1263 1.539 . S
C1261 C1257 1.408 . S
C1261 C1260 1.404 . S
C1261 H1273 0.930 . S
C1262 C1258 1.524 . S
C1262 H1274 0.956 . S
C1262 H1275 0.961 . S
C1262 H1276 0.961 . S
C1263 C1260 1.539 . S
C1263 H1277 0.958 . S
C1263 H1278 0.961 . S
C1263 H1279 0.960 . S
H1264 C1248 0.931 . S
H1265 C1253 0.929 . S
H1266 C1254 0.960 . S
H1267 C1254 0.962 . S
H1268 C1254 0.960 . S
H1269 C1255 0.961 . S
H1270 C1255 0.961 . S
H1271 C1255 0.961 . S
H1272 C1256 0.931 . S
H1273 C1261 0.930 . S
H1274 C1262 0.956 . S
H1275 C1262 0.961 . S
H1276 C1262 0.961 . S
H1277 C1263 0.958 . S
H1278 C1263 0.961 . S
H1279 C1263 0.960 . S
C1280 C1281 1.391 . S
C1280 C1282 1.394 . S
C1280 H1296 0.931 . S
C1281 C1280 1.391 . S
C1281 C1285 1.376 . S
C1282 C1280 1.394 . S
C1282 C1283 1.369 . S
C1282 C1286 1.531 . S
C1283 C1282 1.369 . S
C1283 C1284 1.410 . S
C1283 C1291 1.503 . S
C1284 C1283 1.410 . S
C1284 C1285 1.392 . S
C1284 C1287 1.511 . S
C1285 C1281 1.376 . S
C1285 C1284 1.392 . S
C1285 H1297 0.929 . S
C1286 C1282 1.531 . S
C1286 H1298 0.960 . S
C1286 H1299 0.962 . S
C1286 H1300 0.960 . S
C1287 C1284 1.511 . S
C1287 H1301 0.961 . S
C1287 H1302 0.961 . S
C1287 H1303 0.961 . S
C1288 C1289 1.370 . S
C1288 C1290 1.363 . S
C1288 H1304 0.931 . S
C1289 C1288 1.370 . S
C1289 C1293 1.408 . S
C1290 C1288 1.363 . S
C1290 C1291 1.370 . S
C1290 C1294 1.524 . S
C1291 C1283 1.503 . S
C1291 C1290 1.370 . S
C1291 C1292 1.403 . S
C1292 C1291 1.403 . S
C1292 C1293 1.404 . S
C1292 C1295 1.539 . S
C1293 C1289 1.408 . S
C1293 C1292 1.404 . S
C1293 H1305 0.930 . S
C1294 C1290 1.524 . S
C1294 H1306 0.956 . S
C1294 H1307 0.961 . S
C1294 H1308 0.961 . S
C1295 C1292 1.539 . S
C1295 H1309 0.958 . S
C1295 H1310 0.961 . S
C1295 H1311 0.960 . S
H1296 C1280 0.931 . S
H1297 C1285 0.929 . S
H1298 C1286 0.960 . S
H1299 C1286 0.962 . S
H1300 C1286 0.960 . S
H1301 C1287 0.961 . S
H1302 C1287 0.961 . S
H1303 C1287 0.961 . S
H1304 C1288 0.931 . S
H1305 C1293 0.930 . S
H1306 C1294 0.956 . S
H1307 C1294 0.961 . S
H1308 C1294 0.961 . S
H1309 C1295 0.958 . S
H1310 C1295 0.961 . S
H1311 C1295 0.960 . S
C1312 C1313 1.391 . S
C1312 C1314 1.394 . S
C1312 H1328 0.931 . S
C1313 C1312 1.391 . S
C1313 C1317 1.376 . S
C1314 C1312 1.394 . S
C1314 C1315 1.369 . S
C1314 C1318 1.531 . S
C1315 C1314 1.369 . S
C1315 C1316 1.410 . S
C1315 C1323 1.503 . S
C1316 C1315 1.410 . S
C1316 C1317 1.392 . S
C1316 C1319 1.511 . S
C1317 C1313 1.376 . S
C1317 C1316 1.392 . S
C1317 H1329 0.929 . S
C1318 C1314 1.531 . S
C1318 H1330 0.960 . S
C1318 H1331 0.962 . S
C1318 H1332 0.960 . S
C1319 C1316 1.511 . S
C1319 H1333 0.961 . S
C1319 H1334 0.961 . S
C1319 H1335 0.961 . S
C1320 C1321 1.370 . S
C1320 C1322 1.363 . S
C1320 H1336 0.931 . S
C1321 C1320 1.370 . S
C1321 C1325 1.408 . S
C1322 C1320 1.363 . S
C1322 C1323 1.370 . S
C1322 C1326 1.524 . S
C1323 C1315 1.503 . S
C1323 C1322 1.370 . S
C1323 C1324 1.403 . S
C1324 C1323 1.403 . S
C1324 C1325 1.404 . S
C1324 C1327 1.539 . S
C1325 C1321 1.408 . S
C1325 C1324 1.404 . S
C1325 H1337 0.930 . S
C1326 C1322 1.524 . S
C1326 H1338 0.956 . S
C1326 H1339 0.961 . S
C1326 H1340 0.961 . S
C1327 C1324 1.539 . S
C1327 H1341 0.958 . S
C1327 H1342 0.961 . S
C1327 H1343 0.960 . S
H1328 C1312 0.931 . S
H1329 C1317 0.929 . S
H1330 C1318 0.960 . S
H1331 C1318 0.962 . S
H1332 C1318 0.960 . S
H1333 C1319 0.961 . S
H1334 C1319 0.961 . S
H1335 C1319 0.961 . S
H1336 C1320 0.931 . S
H1337 C1325 0.930 . S
H1338 C1326 0.956 . S
H1339 C1326 0.961 . S
H1340 C1326 0.961 . S
H1341 C1327 0.958 . S
H1342 C1327 0.961 . S
H1343 C1327 0.960 . S
C1344 C1345 1.391 . S
C1344 C1346 1.394 . S
C1344 H1360 0.931 . S
C1345 C1344 1.391 . S
C1345 C1349 1.376 . S
C1346 C1344 1.394 . S
C1346 C1347 1.369 . S
C1346 C1350 1.531 . S
C1347 C1346 1.369 . S
C1347 C1348 1.410 . S
C1347 C1355 1.503 . S
C1348 C1347 1.410 . S
C1348 C1349 1.392 . S
C1348 C1351 1.511 . S
C1349 C1345 1.376 . S
C1349 C1348 1.392 . S
C1349 H1361 0.929 . S
C1350 C1346 1.531 . S
C1350 H1362 0.960 . S
C1350 H1363 0.962 . S
C1350 H1364 0.960 . S
C1351 C1348 1.511 . S
C1351 H1365 0.961 . S
C1351 H1366 0.961 . S
C1351 H1367 0.961 . S
C1352 C1353 1.370 . S
C1352 C1354 1.363 . S
C1352 H1368 0.931 . S
C1353 C1352 1.370 . S
C1353 C1357 1.408 . S
C1354 C1352 1.363 . S
C1354 C1355 1.370 . S
C1354 C1358 1.524 . S
C1355 C1347 1.503 . S
C1355 C1354 1.370 . S
C1355 C1356 1.403 . S
C1356 C1355 1.403 . S
C1356 C1357 1.404 . S
C1356 C1359 1.539 . S
C1357 C1353 1.408 . S
C1357 C1356 1.404 . S
C1357 H1369 0.930 . S
C1358 C1354 1.524 . S
C1358 H1370 0.956 . S
C1358 H1371 0.961 . S
C1358 H1372 0.961 . S
C1359 C1356 1.539 . S
C1359 H1373 0.958 . S
C1359 H1374 0.961 . S
C1359 H1375 0.960 . S
H1360 C1344 0.931 . S
H1361 C1349 0.929 . S
H1362 C1350 0.960 . S
H1363 C1350 0.962 . S
H1364 C1350 0.960 . S
H1365 C1351 0.961 . S
H1366 C1351 0.961 . S
H1367 C1351 0.961 . S
H1368 C1352 0.931 . S
H1369 C1357 0.930 . S
H1370 C1358 0.956 . S
H1371 C1358 0.961 . S
H1372 C1358 0.961 . S
H1373 C1359 0.958 . S
H1374 C1359 0.961 . S
H1375 C1359 0.960 . S
C1376 C1377 1.391 . S
C1376 C1378 1.394 . S
C1376 H1392 0.931 . S
C1377 C1376 1.391 . S
C1377 C1381 1.376 . S
C1378 C1376 1.394 . S
C1378 C1379 1.369 . S
C1378 C1382 1.531 . S
C1379 C1378 1.369 . S
C1379 C1380 1.410 . S
C1379 C1387 1.503 1_545 S
C1380 C1379 1.410 . S
C1380 C1381 1.392 . S
C1380 C1383 1.511 1_545 S
C1381 C1377 1.376 . S
C1381 C1380 1.392 . S
C1381 H1393 0.929 . S
C1382 C1378 1.531 . S
C1382 H1394 0.960 . S
C1382 H1395 0.962 . S
C1382 H1396 0.960 . S
C1383 C1380 1.511 1_565 S
C1383 H1397 0.961 . S
C1383 H1398 0.961 . S
C1383 H1399 0.961 1_565 S
C1384 C1385 1.370 . S
C1384 C1386 1.363 . S
C1384 H1400 0.931 . S
C1385 C1384 1.370 . S
C1385 C1389 1.408 . S
C1386 C1384 1.363 . S
C1386 C1387 1.370 . S
C1386 C1390 1.524 . S
C1387 C1379 1.503 1_565 S
C1387 C1386 1.370 . S
C1387 C1388 1.403 . S
C1388 C1387 1.403 . S
C1388 C1389 1.404 . S
C1388 C1391 1.539 1_565 S
C1389 C1385 1.408 . S
C1389 C1388 1.404 . S
C1389 H1401 0.930 . S
C1390 C1386 1.524 . S
C1390 H1402 0.956 . S
C1390 H1403 0.961 . S
C1390 H1404 0.961 . S
C1391 C1388 1.539 1_545 S
C1391 H1405 0.958 . S
C1391 H1406 0.961 . S
C1391 H1407 0.960 . S
H1392 C1376 0.931 . S
H1393 C1381 0.929 . S
H1394 C1382 0.960 . S
H1395 C1382 0.962 . S
H1396 C1382 0.960 . S
H1397 C1383 0.961 . S
H1398 C1383 0.961 . S
H1399 C1383 0.961 1_545 S
H1400 C1384 0.931 . S
H1401 C1389 0.930 . S
H1402 C1390 0.956 . S
H1403 C1390 0.961 . S
H1404 C1390 0.961 . S
H1405 C1391 0.958 . S
H1406 C1391 0.961 . S
H1407 C1391 0.960 . S
C1408 C1409 1.391 . S
C1408 C1410 1.394 . S
C1408 H1424 0.931 . S
C1409 C1408 1.391 . S
C1409 C1413 1.376 . S
C1410 C1408 1.394 . S
C1410 C1411 1.369 . S
C1410 C1414 1.531 . S
C1411 C1410 1.369 . S
C1411 C1412 1.410 . S
C1411 C1419 1.503 . S
C1412 C1411 1.410 . S
C1412 C1413 1.392 . S
C1412 C1415 1.511 . S
C1413 C1409 1.376 . S
C1413 C1412 1.392 . S
C1413 H1425 0.929 . S
C1414 C1410 1.531 . S
C1414 H1426 0.960 . S
C1414 H1427 0.962 . S
C1414 H1428 0.960 . S
C1415 C1412 1.511 . S
C1415 H1429 0.961 . S
C1415 H1430 0.961 . S
C1415 H1431 0.961 . S
C1416 C1417 1.370 . S
C1416 C1418 1.363 . S
C1416 H1432 0.931 . S
C1417 C1416 1.370 . S
C1417 C1421 1.408 . S
C1418 C1416 1.363 . S
C1418 C1419 1.370 . S
C1418 C1422 1.524 . S
C1419 C1411 1.503 . S
C1419 C1418 1.370 . S
C1419 C1420 1.403 . S
C1420 C1419 1.403 . S
C1420 C1421 1.404 . S
C1420 C1423 1.539 . S
C1421 C1417 1.408 . S
C1421 C1420 1.404 . S
C1421 H1433 0.930 . S
C1422 C1418 1.524 . S
C1422 H1434 0.956 . S
C1422 H1435 0.961 . S
C1422 H1436 0.961 . S
C1423 C1420 1.539 . S
C1423 H1437 0.958 . S
C1423 H1438 0.961 . S
C1423 H1439 0.960 . S
H1424 C1408 0.931 . S
H1425 C1413 0.929 . S
H1426 C1414 0.960 . S
H1427 C1414 0.962 . S
H1428 C1414 0.960 . S
H1429 C1415 0.961 . S
H1430 C1415 0.961 . S
H1431 C1415 0.961 . S
H1432 C1416 0.931 . S
H1433 C1421 0.930 . S
H1434 C1422 0.956 . S
H1435 C1422 0.961 . S
H1436 C1422 0.961 . S
H1437 C1423 0.958 . S
H1438 C1423 0.961 . S
H1439 C1423 0.960 . S
C1440 C1441 1.396 . S
C1440 C1442 1.394 . S
C1440 H1456 0.931 . S
C1441 C1440 1.396 . S
C1441 C1445 1.368 1_556 S
C1442 C1440 1.394 . S
C1442 C1443 1.369 1_556 S
C1442 C1446 1.531 . S
C1443 C1442 1.369 1_554 S
C1443 C1444 1.410 . S
C1443 C1451 1.503 . S
C1444 C1443 1.410 . S
C1444 C1445 1.392 . S
C1444 C1447 1.511 . S
C1445 C1441 1.368 1_554 S
C1445 C1444 1.392 . S
C1445 H1457 0.929 . S
C1446 C1442 1.531 . S
C1446 H1458 0.976 . S
C1446 H1459 0.962 . S
C1446 H1460 0.960 . S
C1447 C1444 1.511 . S
C1447 H1461 0.961 . S
C1447 H1462 0.961 . S
C1447 H1463 0.961 . S
C1448 C1449 1.370 1_556 S
C1448 C1450 1.363 . S
C1448 H1464 0.931 . S
C1449 C1448 1.370 1_554 S
C1449 C1453 1.408 . S
C1450 C1448 1.363 . S
C1450 C1451 1.370 1_556 S
C1450 C1454 1.524 . S
C1451 C1443 1.503 . S
C1451 C1450 1.370 1_554 S
C1451 C1452 1.403 . S
C1452 C1451 1.403 . S
C1452 C1453 1.404 . S
C1452 C1455 1.539 . S
C1453 C1449 1.408 . S
C1453 C1452 1.404 . S
C1453 H1465 0.930 . S
C1454 C1450 1.524 . S
C1454 H1466 0.956 . S
C1454 H1467 0.961 . S
C1454 H1468 0.961 . S
C1455 C1452 1.539 . S
C1455 H1469 0.958 . S
C1455 H1470 0.961 . S
C1455 H1471 0.960 . S
H1456 C1440 0.931 . S
H1457 C1445 0.929 . S
H1458 C1446 0.976 . S
H1459 C1446 0.962 . S
H1460 C1446 0.960 . S
H1461 C1447 0.961 . S
H1462 C1447 0.961 . S
H1463 C1447 0.961 . S
H1464 C1448 0.931 . S
H1465 C1453 0.930 . S
H1466 C1454 0.956 . S
H1467 C1454 0.961 . S
H1468 C1454 0.961 . S
H1469 C1455 0.958 . S
H1470 C1455 0.961 . S
H1471 C1455 0.960 . S
C1472 C1473 1.391 . S
C1472 C1474 1.394 . S
C1472 H1488 0.931 . S
C1473 C1472 1.391 . S
C1473 C1477 1.376 . S
C1474 C1472 1.394 . S
C1474 C1475 1.369 . S
C1474 C1478 1.531 . S
C1475 C1474 1.369 . S
C1475 C1476 1.410 . S
C1475 C1483 1.503 . S
C1476 C1475 1.410 . S
C1476 C1477 1.392 . S
C1476 C1479 1.511 . S
C1477 C1473 1.376 . S
C1477 C1476 1.392 . S
C1477 H1489 0.929 . S
C1478 C1474 1.531 . S
C1478 H1490 0.960 . S
C1478 H1491 0.962 . S
C1478 H1492 0.960 . S
C1479 C1476 1.511 . S
C1479 H1493 0.961 . S
C1479 H1494 0.961 . S
C1479 H1495 0.961 . S
C1480 C1481 1.370 . S
C1480 C1482 1.363 . S
C1480 H1496 0.931 . S
C1481 C1480 1.370 . S
C1481 C1485 1.408 . S
C1482 C1480 1.363 . S
C1482 C1483 1.370 . S
C1482 C1486 1.524 . S
C1483 C1475 1.503 . S
C1483 C1482 1.370 . S
C1483 C1484 1.403 . S
C1484 C1483 1.403 . S
C1484 C1485 1.404 . S
C1484 C1487 1.539 . S
C1485 C1481 1.408 . S
C1485 C1484 1.404 . S
C1485 H1497 0.930 . S
C1486 C1482 1.524 . S
C1486 H1498 0.956 . S
C1486 H1499 0.961 . S
C1486 H1500 0.961 . S
C1487 C1484 1.539 . S
C1487 H1501 0.958 . S
C1487 H1502 0.961 . S
C1487 H1503 0.960 . S
H1488 C1472 0.931 . S
H1489 C1477 0.929 . S
H1490 C1478 0.960 . S
H1491 C1478 0.962 . S
H1492 C1478 0.960 . S
H1493 C1479 0.961 . S
H1494 C1479 0.961 . S
H1495 C1479 0.961 . S
H1496 C1480 0.931 . S
H1497 C1485 0.930 . S
H1498 C1486 0.956 . S
H1499 C1486 0.961 . S
H1500 C1486 0.961 . S
H1501 C1487 0.958 . S
H1502 C1487 0.961 . S
H1503 C1487 0.960 . S
C1504 C1505 1.391 . S
C1504 C1506 1.394 . S
C1504 H1520 0.931 . S
C1505 C1504 1.391 . S
C1505 C1509 1.376 . S
C1506 C1504 1.394 . S
C1506 C1507 1.369 . S
C1506 C1510 1.531 . S
C1507 C1506 1.369 . S
C1507 C1508 1.410 . S
C1507 C1515 1.503 . S
C1508 C1507 1.410 . S
C1508 C1509 1.392 . S
C1508 C1511 1.511 . S
C1509 C1505 1.376 . S
C1509 C1508 1.392 . S
C1509 H1521 0.929 . S
C1510 C1506 1.531 . S
C1510 H1522 0.960 . S
C1510 H1523 0.962 . S
C1510 H1524 0.960 . S
C1511 C1508 1.511 . S
C1511 H1525 0.961 . S
C1511 H1526 0.961 . S
C1511 H1527 0.961 . S
C1512 C1513 1.370 . S
C1512 C1514 1.363 . S
C1512 H1528 0.931 . S
C1513 C1512 1.370 . S
C1513 C1517 1.408 . S
C1514 C1512 1.363 . S
C1514 C1515 1.370 . S
C1514 C1518 1.524 . S
C1515 C1507 1.503 . S
C1515 C1514 1.370 . S
C1515 C1516 1.403 . S
C1516 C1515 1.403 . S
C1516 C1517 1.404 . S
C1516 C1519 1.539 . S
C1517 C1513 1.408 . S
C1517 C1516 1.404 . S
C1517 H1529 0.930 . S
C1518 C1514 1.524 . S
C1518 H1530 0.956 . S
C1518 H1531 0.961 . S
C1518 H1532 0.961 . S
C1519 C1516 1.539 . S
C1519 H1533 0.958 . S
C1519 H1534 0.961 . S
C1519 H1535 0.960 . S
H1520 C1504 0.931 . S
H1521 C1509 0.929 . S
H1522 C1510 0.960 . S
H1523 C1510 0.962 . S
H1524 C1510 0.960 . S
H1525 C1511 0.961 . S
H1526 C1511 0.961 . S
H1527 C1511 0.961 . S
H1528 C1512 0.931 . S
H1529 C1517 0.930 . S
H1530 C1518 0.956 . S
H1531 C1518 0.961 . S
H1532 C1518 0.961 . S
H1533 C1519 0.958 . S
H1534 C1519 0.961 . S
H1535 C1519 0.960 . S
C1536 C1537 1.391 . S
C1536 C1538 1.394 . S
C1536 H1552 0.931 . S
C1537 C1536 1.391 . S
C1537 C1541 1.376 . S
C1538 C1536 1.394 . S
C1538 C1539 1.369 . S
C1538 C1542 1.531 . S
C1539 C1538 1.369 . S
C1539 C1540 1.410 . S
C1539 C1547 1.503 . S
C1540 C1539 1.410 . S
C1540 C1541 1.392 . S
C1540 C1543 1.511 . S
C1541 C1537 1.376 . S
C1541 C1540 1.392 . S
C1541 H1553 0.929 . S
C1542 C1538 1.531 . S
C1542 H1554 0.960 . S
C1542 H1555 0.962 . S
C1542 H1556 0.960 . S
C1543 C1540 1.511 . S
C1543 H1557 0.961 . S
C1543 H1558 0.961 . S
C1543 H1559 0.961 . S
C1544 C1545 1.370 . S
C1544 C1546 1.363 . S
C1544 H1560 0.931 . S
C1545 C1544 1.370 . S
C1545 C1549 1.408 . S
C1546 C1544 1.363 . S
C1546 C1547 1.370 . S
C1546 C1550 1.524 . S
C1547 C1539 1.503 . S
C1547 C1546 1.370 . S
C1547 C1548 1.403 . S
C1548 C1547 1.403 . S
C1548 C1549 1.404 . S
C1548 C1551 1.539 . S
C1549 C1545 1.408 . S
C1549 C1548 1.404 . S
C1549 H1561 0.930 . S
C1550 C1546 1.524 . S
C1550 H1562 0.956 . S
C1550 H1563 0.961 . S
C1550 H1564 0.961 . S
C1551 C1548 1.539 . S
C1551 H1565 0.958 . S
C1551 H1566 0.961 . S
C1551 H1567 0.960 . S
H1552 C1536 0.931 . S
H1553 C1541 0.929 . S
H1554 C1542 0.960 . S
H1555 C1542 0.962 . S
H1556 C1542 0.960 . S
H1557 C1543 0.961 . S
H1558 C1543 0.961 . S
H1559 C1543 0.961 . S
H1560 C1544 0.931 . S
H1561 C1549 0.930 . S
H1562 C1550 0.956 . S
H1563 C1550 0.961 . S
H1564 C1550 0.961 . S
H1565 C1551 0.958 . S
H1566 C1551 0.961 . S
H1567 C1551 0.960 . S
C1568 C1569 1.391 . S
C1568 C1570 1.394 . S
C1568 H1584 0.931 . S
C1569 C1568 1.391 . S
C1569 C1573 1.376 . S
C1570 C1568 1.394 . S
C1570 C1571 1.369 . S
C1570 C1574 1.531 . S
C1571 C1570 1.369 . S
C1571 C1572 1.410 . S
C1571 C1579 1.503 . S
C1572 C1571 1.410 . S
C1572 C1573 1.392 . S
C1572 C1575 1.511 . S
C1573 C1569 1.376 . S
C1573 C1572 1.392 . S
C1573 H1585 0.929 . S
C1574 C1570 1.531 . S
C1574 H1586 0.960 . S
C1574 H1587 0.962 . S
C1574 H1588 0.960 . S
C1575 C1572 1.511 . S
C1575 H1589 0.961 . S
C1575 H1590 0.961 . S
C1575 H1591 0.961 . S
C1576 C1577 1.370 . S
C1576 C1578 1.363 . S
C1576 H1592 0.931 . S
C1577 C1576 1.370 . S
C1577 C1581 1.408 . S
C1578 C1576 1.363 . S
C1578 C1579 1.370 . S
C1578 C1582 1.524 . S
C1579 C1571 1.503 . S
C1579 C1578 1.370 . S
C1579 C1580 1.403 . S
C1580 C1579 1.403 . S
C1580 C1581 1.404 . S
C1580 C1583 1.539 . S
C1581 C1577 1.408 . S
C1581 C1580 1.404 . S
C1581 H1593 0.930 . S
C1582 C1578 1.524 . S
C1582 H1594 0.956 . S
C1582 H1595 0.961 . S
C1582 H1596 0.961 . S
C1583 C1580 1.539 . S
C1583 H1597 0.958 . S
C1583 H1598 0.961 . S
C1583 H1599 0.960 . S
H1584 C1568 0.931 . S
H1585 C1573 0.929 . S
H1586 C1574 0.960 . S
H1587 C1574 0.962 . S
H1588 C1574 0.960 . S
H1589 C1575 0.961 . S
H1590 C1575 0.961 . S
H1591 C1575 0.961 . S
H1592 C1576 0.931 . S
H1593 C1581 0.930 . S
H1594 C1582 0.956 . S
H1595 C1582 0.961 . S
H1596 C1582 0.961 . S
H1597 C1583 0.958 . S
H1598 C1583 0.961 . S
H1599 C1583 0.960 . S
C1600 C1601 1.391 . S
C1600 C1602 1.394 . S
C1600 H1616 0.931 . S
C1601 C1600 1.391 . S
C1601 C1605 1.376 . S
C1602 C1600 1.394 . S
C1602 C1603 1.369 . S
C1602 C1606 1.531 . S
C1603 C1602 1.369 . S
C1603 C1604 1.410 . S
C1603 C1611 1.503 . S
C1604 C1603 1.410 . S
C1604 C1605 1.392 . S
C1604 C1607 1.511 . S
C1605 C1601 1.376 . S
C1605 C1604 1.392 . S
C1605 H1617 0.929 . S
C1606 C1602 1.531 . S
C1606 H1618 0.960 . S
C1606 H1619 0.962 . S
C1606 H1620 0.960 . S
C1607 C1604 1.511 . S
C1607 H1621 0.961 . S
C1607 H1622 0.961 . S
C1607 H1623 0.961 . S
C1608 C1609 1.370 . S
C1608 C1610 1.363 . S
C1608 H1624 0.931 . S
C1609 C1608 1.370 . S
C1609 C1613 1.408 . S
C1610 C1608 1.363 . S
C1610 C1611 1.370 . S
C1610 C1614 1.524 . S
C1611 C1603 1.503 . S
C1611 C1610 1.370 . S
C1611 C1612 1.403 . S
C1612 C1611 1.403 . S
C1612 C1613 1.404 . S
C1612 C1615 1.539 . S
C1613 C1609 1.408 . S
C1613 C1612 1.404 . S
C1613 H1625 0.930 . S
C1614 C1610 1.524 . S
C1614 H1626 0.956 . S
C1614 H1627 0.961 . S
C1614 H1628 0.961 . S
C1615 C1612 1.539 . S
C1615 H1629 0.958 . S
C1615 H1630 0.961 . S
C1615 H1631 0.960 . S
H1616 C1600 0.931 . S
H1617 C1605 0.929 . S
H1618 C1606 0.960 . S
H1619 C1606 0.962 . S
H1620 C1606 0.960 . S
H1621 C1607 0.961 . S
H1622 C1607 0.961 . S
H1623 C1607 0.961 . S
H1624 C1608 0.931 . S
H1625 C1613 0.930 . S
H1626 C1614 0.956 . S
H1627 C1614 0.961 . S
H1628 C1614 0.961 . S
H1629 C1615 0.958 . S
H1630 C1615 0.961 . S
H1631 C1615 0.960 . S
C1632 C1633 1.391 . S
C1632 C1634 1.394 . S
C1632 H1648 0.931 . S
C1633 C1632 1.391 . S
C1633 C1637 1.376 . S
C1634 C1632 1.394 . S
C1634 C1635 1.369 . S
C1634 C1638 1.531 . S
C1635 C1634 1.369 . S
C1635 C1636 1.410 . S
C1635 C1643 1.503 . S
C1636 C1635 1.410 . S
C1636 C1637 1.392 . S
C1636 C1639 1.511 . S
C1637 C1633 1.376 . S
C1637 C1636 1.392 . S
C1637 H1649 0.929 . S
C1638 C1634 1.531 . S
C1638 H1650 0.960 . S
C1638 H1651 0.962 . S
C1638 H1652 0.960 . S
C1639 C1636 1.511 . S
C1639 H1653 0.961 . S
C1639 H1654 0.961 . S
C1639 H1655 0.961 . S
C1640 C1641 1.370 . S
C1640 C1642 1.363 . S
C1640 H1656 0.931 . S
C1641 C1640 1.370 . S
C1641 C1645 1.408 . S
C1642 C1640 1.363 . S
C1642 C1643 1.370 . S
C1642 C1646 1.524 . S
C1643 C1635 1.503 . S
C1643 C1642 1.370 . S
C1643 C1644 1.403 . S
C1644 C1643 1.403 . S
C1644 C1645 1.404 . S
C1644 C1647 1.539 . S
C1645 C1641 1.408 . S
C1645 C1644 1.404 . S
C1645 H1657 0.930 . S
C1646 C1642 1.524 . S
C1646 H1658 0.956 . S
C1646 H1659 0.961 . S
C1646 H1660 0.961 . S
C1647 C1644 1.539 . S
C1647 H1661 0.958 . S
C1647 H1662 0.961 . S
C1647 H1663 0.960 . S
H1648 C1632 0.931 . S
H1649 C1637 0.929 . S
H1650 C1638 0.960 . S
H1651 C1638 0.962 . S
H1652 C1638 0.960 . S
H1653 C1639 0.961 . S
H1654 C1639 0.961 . S
H1655 C1639 0.961 . S
H1656 C1640 0.931 . S
H1657 C1645 0.930 . S
H1658 C1646 0.956 . S
H1659 C1646 0.961 . S
H1660 C1646 0.961 . S
H1661 C1647 0.958 . S
H1662 C1647 0.961 . S
H1663 C1647 0.960 . S
C1664 C1665 1.391 . S
C1664 C1666 1.394 . S
C1664 H1680 0.931 . S
C1665 C1664 1.391 . S
C1665 C1669 1.376 . S
C1666 C1664 1.394 . S
C1666 C1667 1.369 . S
C1666 C1670 1.531 . S
C1667 C1666 1.369 . S
C1667 C1668 1.410 . S
C1667 C1675 1.503 . S
C1668 C1667 1.410 . S
C1668 C1669 1.392 . S
C1668 C1671 1.511 . S
C1669 C1665 1.376 . S
C1669 C1668 1.392 . S
C1669 H1681 0.929 . S
C1670 C1666 1.531 . S
C1670 H1682 0.960 . S
C1670 H1683 0.962 . S
C1670 H1684 0.960 . S
C1671 C1668 1.511 . S
C1671 H1685 0.961 . S
C1671 H1686 0.961 . S
C1671 H1687 0.961 . S
C1672 C1673 1.370 . S
C1672 C1674 1.363 . S
C1672 H1688 0.931 . S
C1673 C1672 1.370 . S
C1673 C1677 1.408 . S
C1674 C1672 1.363 . S
C1674 C1675 1.370 . S
C1674 C1678 1.524 . S
C1675 C1667 1.503 . S
C1675 C1674 1.370 . S
C1675 C1676 1.403 . S
C1676 C1675 1.403 . S
C1676 C1677 1.404 . S
C1676 C1679 1.539 . S
C1677 C1673 1.408 . S
C1677 C1676 1.404 . S
C1677 H1689 0.930 . S
C1678 C1674 1.524 . S
C1678 H1690 0.956 . S
C1678 H1691 0.961 . S
C1678 H1692 0.961 . S
C1679 C1676 1.539 . S
C1679 H1693 0.958 . S
C1679 H1694 0.961 . S
C1679 H1695 0.960 . S
H1680 C1664 0.931 . S
H1681 C1669 0.929 . S
H1682 C1670 0.960 . S
H1683 C1670 0.962 . S
H1684 C1670 0.960 . S
H1685 C1671 0.961 . S
H1686 C1671 0.961 . S
H1687 C1671 0.961 . S
H1688 C1672 0.931 . S
H1689 C1677 0.930 . S
H1690 C1678 0.956 . S
H1691 C1678 0.961 . S
H1692 C1678 0.961 . S
H1693 C1679 0.958 . S
H1694 C1679 0.961 . S
H1695 C1679 0.960 . S
C1696 C1697 1.391 . S
C1696 C1698 1.394 . S
C1696 H1712 0.931 . S
C1697 C1696 1.391 . S
C1697 C1701 1.376 . S
C1698 C1696 1.394 . S
C1698 C1699 1.369 . S
C1698 C1702 1.531 . S
C1699 C1698 1.369 . S
C1699 C1700 1.410 . S
C1699 C1707 1.503 . S
C1700 C1699 1.410 . S
C1700 C1701 1.392 . S
C1700 C1703 1.511 . S
C1701 C1697 1.376 . S
C1701 C1700 1.392 . S
C1701 H1713 0.929 . S
C1702 C1698 1.531 . S
C1702 H1714 0.960 . S
C1702 H1715 0.962 . S
C1702 H1716 0.960 . S
C1703 C1700 1.511 . S
C1703 H1717 0.961 . S
C1703 H1718 0.961 . S
C1703 H1719 0.961 . S
C1704 C1705 1.370 . S
C1704 C1706 1.363 . S
C1704 H1720 0.931 . S
C1705 C1704 1.370 . S
C1705 C1709 1.408 . S
C1706 C1704 1.363 . S
C1706 C1707 1.370 . S
C1706 C1710 1.524 . S
C1707 C1699 1.503 . S
C1707 C1706 1.370 . S
C1707 C1708 1.403 . S
C1708 C1707 1.403 . S
C1708 C1709 1.404 . S
C1708 C1711 1.539 . S
C1709 C1705 1.408 . S
C1709 C1708 1.404 . S
C1709 H1721 0.930 . S
C1710 C1706 1.524 . S
C1710 H1722 0.956 . S
C1710 H1723 0.961 . S
C1710 H1724 0.961 . S
C1711 C1708 1.539 . S
C1711 H1725 0.958 . S
C1711 H1726 0.961 . S
C1711 H1727 0.960 . S
H1712 C1696 0.931 . S
H1713 C1701 0.929 . S
H1714 C1702 0.960 . S
H1715 C1702 0.962 . S
H1716 C1702 0.960 . S
H1717 C1703 0.961 . S
H1718 C1703 0.961 . S
H1719 C1703 0.961 . S
H1720 C1704 0.931 . S
H1721 C1709 0.930 . S
H1722 C1710 0.956 . S
H1723 C1710 0.961 . S
H1724 C1710 0.961 . S
H1725 C1711 0.958 . S
H1726 C1711 0.961 . S
H1727 C1711 0.960 . S
C1728 C1729 1.391 . S
C1728 C1730 1.394 . S
C1728 H1744 0.931 . S
C1729 C1728 1.391 . S
C1729 C1733 1.376 . S
C1730 C1728 1.394 . S
C1730 C1731 1.369 . S
C1730 C1734 1.531 . S
C1731 C1730 1.369 . S
C1731 C1732 1.410 . S
C1731 C1739 1.503 . S
C1732 C1731 1.410 . S
C1732 C1733 1.392 . S
C1732 C1735 1.511 . S
C1733 C1729 1.376 . S
C1733 C1732 1.392 . S
C1733 H1745 0.929 . S
C1734 C1730 1.531 . S
C1734 H1746 0.960 . S
C1734 H1747 0.962 . S
C1734 H1748 0.960 . S
C1735 C1732 1.511 . S
C1735 H1749 0.961 . S
C1735 H1750 0.961 . S
C1735 H1751 0.961 . S
C1736 C1737 1.370 . S
C1736 C1738 1.363 . S
C1736 H1752 0.931 . S
C1737 C1736 1.370 . S
C1737 C1741 1.408 . S
C1738 C1736 1.363 . S
C1738 C1739 1.370 . S
C1738 C1742 1.524 . S
C1739 C1731 1.503 . S
C1739 C1738 1.370 . S
C1739 C1740 1.403 . S
C1740 C1739 1.403 . S
C1740 C1741 1.404 . S
C1740 C1743 1.539 . S
C1741 C1737 1.408 . S
C1741 C1740 1.404 . S
C1741 H1753 0.930 . S
C1742 C1738 1.524 . S
C1742 H1754 0.956 . S
C1742 H1755 0.961 . S
C1742 H1756 0.961 . S
C1743 C1740 1.539 . S
C1743 H1757 0.958 . S
C1743 H1758 0.961 . S
C1743 H1759 0.960 . S
H1744 C1728 0.931 . S
H1745 C1733 0.929 . S
H1746 C1734 0.960 . S
H1747 C1734 0.962 . S
H1748 C1734 0.960 . S
H1749 C1735 0.961 . S
H1750 C1735 0.961 . S
H1751 C1735 0.961 . S
H1752 C1736 0.931 . S
H1753 C1741 0.930 . S
H1754 C1742 0.956 . S
H1755 C1742 0.961 . S
H1756 C1742 0.961 . S
H1757 C1743 0.958 . S
H1758 C1743 0.961 . S
H1759 C1743 0.960 . S
C1760 C1761 1.391 . S
C1760 C1762 1.394 . S
C1760 H1776 0.931 . S
C1761 C1760 1.391 . S
C1761 C1765 1.376 . S
C1762 C1760 1.394 . S
C1762 C1763 1.369 . S
C1762 C1766 1.531 . S
C1763 C1762 1.369 . S
C1763 C1764 1.410 . S
C1763 C1771 1.503 . S
C1764 C1763 1.410 . S
C1764 C1765 1.392 . S
C1764 C1767 1.511 . S
C1765 C1761 1.376 . S
C1765 C1764 1.392 . S
C1765 H1777 0.929 . S
C1766 C1762 1.531 . S
C1766 H1778 0.960 . S
C1766 H1779 0.962 . S
C1766 H1780 0.960 . S
C1767 C1764 1.511 . S
C1767 H1781 0.961 . S
C1767 H1782 0.961 . S
C1767 H1783 0.961 . S
C1768 C1769 1.370 . S
C1768 C1770 1.363 . S
C1768 H1784 0.931 . S
C1769 C1768 1.370 . S
C1769 C1773 1.408 . S
C1770 C1768 1.363 . S
C1770 C1771 1.370 . S
C1770 C1774 1.524 . S
C1771 C1763 1.503 . S
C1771 C1770 1.370 . S
C1771 C1772 1.403 . S
C1772 C1771 1.403 . S
C1772 C1773 1.404 . S
C1772 C1775 1.539 . S
C1773 C1769 1.408 . S
C1773 C1772 1.404 . S
C1773 H1785 0.930 . S
C1774 C1770 1.524 . S
C1774 H1786 0.956 . S
C1774 H1787 0.961 . S
C1774 H1788 0.961 . S
C1775 C1772 1.539 . S
C1775 H1789 0.958 . S
C1775 H1790 0.961 . S
C1775 H1791 0.960 . S
H1776 C1760 0.931 . S
H1777 C1765 0.929 . S
H1778 C1766 0.960 . S
H1779 C1766 0.962 . S
H1780 C1766 0.960 . S
H1781 C1767 0.961 . S
H1782 C1767 0.961 . S
H1783 C1767 0.961 . S
H1784 C1768 0.931 . S
H1785 C1773 0.930 . S
H1786 C1774 0.956 . S
H1787 C1774 0.961 . S
H1788 C1774 0.961 . S
H1789 C1775 0.958 . S
H1790 C1775 0.961 . S
H1791 C1775 0.960 . S
C1792 C1793 1.391 . S
C1792 C1794 1.394 . S
C1792 H1808 0.931 . S
C1793 C1792 1.391 . S
C1793 C1797 1.376 . S
C1794 C1792 1.394 . S
C1794 C1795 1.369 . S
C1794 C1798 1.531 . S
C1795 C1794 1.369 . S
C1795 C1796 1.410 . S
C1795 C1803 1.503 . S
C1796 C1795 1.410 . S
C1796 C1797 1.392 . S
C1796 C1799 1.511 . S
C1797 C1793 1.376 . S
C1797 C1796 1.392 . S
C1797 H1809 0.929 . S
C1798 C1794 1.531 . S
C1798 H1810 0.960 . S
C1798 H1811 0.962 . S
C1798 H1812 0.960 . S
C1799 C1796 1.511 . S
C1799 H1813 0.961 . S
C1799 H1814 0.961 . S
C1799 H1815 0.961 . S
C1800 C1801 1.370 . S
C1800 C1802 1.363 . S
C1800 H1816 0.931 . S
C1801 C1800 1.370 . S
C1801 C1805 1.408 . S
C1802 C1800 1.363 . S
C1802 C1803 1.370 . S
C1802 C1806 1.524 . S
C1803 C1795 1.503 . S
C1803 C1802 1.370 . S
C1803 C1804 1.403 . S
C1804 C1803 1.403 . S
C1804 C1805 1.404 . S
C1804 C1807 1.539 . S
C1805 C1801 1.408 . S
C1805 C1804 1.404 . S
C1805 H1817 0.930 . S
C1806 C1802 1.524 . S
C1806 H1818 0.956 . S
C1806 H1819 0.961 . S
C1806 H1820 0.961 . S
C1807 C1804 1.539 . S
C1807 H1821 0.958 . S
C1807 H1822 0.961 . S
C1807 H1823 0.960 . S
H1808 C1792 0.931 . S
H1809 C1797 0.929 . S
H1810 C1798 0.960 . S
H1811 C1798 0.962 . S
H1812 C1798 0.960 . S
H1813 C1799 0.961 . S
H1814 C1799 0.961 . S
H1815 C1799 0.961 . S
H1816 C1800 0.931 . S
H1817 C1805 0.930 . S
H1818 C1806 0.956 . S
H1819 C1806 0.961 . S
H1820 C1806 0.961 . S
H1821 C1807 0.958 . S
H1822 C1807 0.961 . S
H1823 C1807 0.960 . S
C1824 C1825 1.391 . S
C1824 C1826 1.394 . S
C1824 H1840 0.931 . S
C1825 C1824 1.391 . S
C1825 C1829 1.376 . S
C1826 C1824 1.394 . S
C1826 C1827 1.369 . S
C1826 C1830 1.531 . S
C1827 C1826 1.369 . S
C1827 C1828 1.410 . S
C1827 C1835 1.503 . S
C1828 C1827 1.410 . S
C1828 C1829 1.392 . S
C1828 C1831 1.511 . S
C1829 C1825 1.376 . S
C1829 C1828 1.392 . S
C1829 H1841 0.929 . S
C1830 C1826 1.531 . S
C1830 H1842 0.960 . S
C1830 H1843 0.962 . S
C1830 H1844 0.960 . S
C1831 C1828 1.511 . S
C1831 H1845 0.961 . S
C1831 H1846 0.961 . S
C1831 H1847 0.961 . S
C1832 C1833 1.370 . S
C1832 C1834 1.363 . S
C1832 H1848 0.931 . S
C1833 C1832 1.370 . S
C1833 C1837 1.408 . S
C1834 C1832 1.363 . S
C1834 C1835 1.370 . S
C1834 C1838 1.524 . S
C1835 C1827 1.503 . S
C1835 C1834 1.370 . S
C1835 C1836 1.403 . S
C1836 C1835 1.403 . S
C1836 C1837 1.404 . S
C1836 C1839 1.539 . S
C1837 C1833 1.408 . S
C1837 C1836 1.404 . S
C1837 H1849 0.930 . S
C1838 C1834 1.524 . S
C1838 H1850 0.956 . S
C1838 H1851 0.961 . S
C1838 H1852 0.961 . S
C1839 C1836 1.539 . S
C1839 H1853 0.958 . S
C1839 H1854 0.961 . S
C1839 H1855 0.960 . S
H1840 C1824 0.931 . S
H1841 C1829 0.929 . S
H1842 C1830 0.960 . S
H1843 C1830 0.962 . S
H1844 C1830 0.960 . S
H1845 C1831 0.961 . S
H1846 C1831 0.961 . S
H1847 C1831 0.961 . S
H1848 C1832 0.931 . S
H1849 C1837 0.930 . S
H1850 C1838 0.956 . S
H1851 C1838 0.961 . S
H1852 C1838 0.961 . S
H1853 C1839 0.958 . S
H1854 C1839 0.961 . S
H1855 C1839 0.960 . S
C1856 C1857 1.391 . S
C1856 C1858 1.394 . S
C1856 H1872 0.931 . S
C1857 C1856 1.391 . S
C1857 C1861 1.376 . S
C1858 C1856 1.394 . S
C1858 C1859 1.369 . S
C1858 C1862 1.531 . S
C1859 C1858 1.369 . S
C1859 C1860 1.410 . S
C1859 C1867 1.503 . S
C1860 C1859 1.410 . S
C1860 C1861 1.392 . S
C1860 C1863 1.511 . S
C1861 C1857 1.376 . S
C1861 C1860 1.392 . S
C1861 H1873 0.929 . S
C1862 C1858 1.531 . S
C1862 H1874 0.960 . S
C1862 H1875 0.962 . S
C1862 H1876 0.960 . S
C1863 C1860 1.511 . S
C1863 H1877 0.961 . S
C1863 H1878 0.961 . S
C1863 H1879 0.961 . S
C1864 C1865 1.370 . S
C1864 C1866 1.363 . S
C1864 H1880 0.931 . S
C1865 C1864 1.370 . S
C1865 C1869 1.408 . S
C1866 C1864 1.363 . S
C1866 C1867 1.370 . S
C1866 C1870 1.524 . S
C1867 C1859 1.503 . S
C1867 C1866 1.370 . S
C1867 C1868 1.403 . S
C1868 C1867 1.403 . S
C1868 C1869 1.404 . S
C1868 C1871 1.539 . S
C1869 C1865 1.408 . S
C1869 C1868 1.404 . S
C1869 H1881 0.930 . S
C1870 C1866 1.524 . S
C1870 H1882 0.956 . S
C1870 H1883 0.961 . S
C1870 H1884 0.961 . S
C1871 C1868 1.539 . S
C1871 H1885 0.958 . S
C1871 H1886 0.961 . S
C1871 H1887 0.960 . S
H1872 C1856 0.931 . S
H1873 C1861 0.929 . S
H1874 C1862 0.960 . S
H1875 C1862 0.962 . S
H1876 C1862 0.960 . S
H1877 C1863 0.961 . S
H1878 C1863 0.961 . S
H1879 C1863 0.961 . S
H1880 C1864 0.931 . S
H1881 C1869 0.930 . S
H1882 C1870 0.956 . S
H1883 C1870 0.961 . S
H1884 C1870 0.961 . S
H1885 C1871 0.958 . S
H1886 C1871 0.961 . S
H1887 C1871 0.960 . S
C1888 C1889 1.391 . S
C1888 C1890 1.394 . S
C1888 H1904 0.931 . S
C1889 C1888 1.391 . S
C1889 C1893 1.376 . S
C1890 C1888 1.394 . S
C1890 C1891 1.369 . S
C1890 C1894 1.531 . S
C1891 C1890 1.369 . S
C1891 C1892 1.410 . S
C1891 C1899 1.503 . S
C1892 C1891 1.410 . S
C1892 C1893 1.392 . S
C1892 C1895 1.511 . S
C1893 C1889 1.376 . S
C1893 C1892 1.392 . S
C1893 H1905 0.929 . S
C1894 C1890 1.531 . S
C1894 H1906 0.960 . S
C1894 H1907 0.962 . S
C1894 H1908 0.960 . S
C1895 C1892 1.511 . S
C1895 H1909 0.961 . S
C1895 H1910 0.961 . S
C1895 H1911 0.961 . S
C1896 C1897 1.370 . S
C1896 C1898 1.363 . S
C1896 H1912 0.931 . S
C1897 C1896 1.370 . S
C1897 C1901 1.408 . S
C1898 C1896 1.363 . S
C1898 C1899 1.370 . S
C1898 C1902 1.524 . S
C1899 C1891 1.503 . S
C1899 C1898 1.370 . S
C1899 C1900 1.403 . S
C1900 C1899 1.403 . S
C1900 C1901 1.404 . S
C1900 C1903 1.539 . S
C1901 C1897 1.408 . S
C1901 C1900 1.404 . S
C1901 H1913 0.930 . S
C1902 C1898 1.524 . S
C1902 H1914 0.956 . S
C1902 H1915 0.961 . S
C1902 H1916 0.961 . S
C1903 C1900 1.539 . S
C1903 H1917 0.958 . S
C1903 H1918 0.961 . S
C1903 H1919 0.960 . S
H1904 C1888 0.931 . S
H1905 C1893 0.929 . S
H1906 C1894 0.960 . S
H1907 C1894 0.962 . S
H1908 C1894 0.960 . S
H1909 C1895 0.961 . S
H1910 C1895 0.961 . S
H1911 C1895 0.961 . S
H1912 C1896 0.931 . S
H1913 C1901 0.930 . S
H1914 C1902 0.956 . S
H1915 C1902 0.961 . S
H1916 C1902 0.961 . S
H1917 C1903 0.958 . S
H1918 C1903 0.961 . S
H1919 C1903 0.960 . S
C1920 C1921 1.391 . S
C1920 C1922 1.394 . S
C1920 H1936 0.931 . S
C1921 C1920 1.391 . S
C1921 C1925 1.376 . S
C1922 C1920 1.394 . S
C1922 C1923 1.369 . S
C1922 C1926 1.531 . S
C1923 C1922 1.369 . S
C1923 C1924 1.410 . S
C1923 C1931 1.503 . S
C1924 C1923 1.410 . S
C1924 C1925 1.392 . S
C1924 C1927 1.511 . S
C1925 C1921 1.376 . S
C1925 C1924 1.392 . S
C1925 H1937 0.929 . S
C1926 C1922 1.531 . S
C1926 H1938 0.960 . S
C1926 H1939 0.962 . S
C1926 H1940 0.960 . S
C1927 C1924 1.511 . S
C1927 H1941 0.961 . S
C1927 H1942 0.961 . S
C1927 H1943 0.961 . S
C1928 C1929 1.370 . S
C1928 C1930 1.363 . S
C1928 H1944 0.931 . S
C1929 C1928 1.370 . S
C1929 C1933 1.408 . S
C1930 C1928 1.363 . S
C1930 C1931 1.370 . S
C1930 C1934 1.524 . S
C1931 C1923 1.503 . S
C1931 C1930 1.370 . S
C1931 C1932 1.403 . S
C1932 C1931 1.403 . S
C1932 C1933 1.404 . S
C1932 C1935 1.539 . S
C1933 C1929 1.408 . S
C1933 C1932 1.404 . S
C1933 H1945 0.930 . S
C1934 C1930 1.524 . S
C1934 H1946 0.956 . S
C1934 H1947 0.961 . S
C1934 H1948 0.961 . S
C1935 C1932 1.539 . S
C1935 H1949 0.958 . S
C1935 H1950 0.961 . S
C1935 H1951 0.960 . S
H1936 C1920 0.931 . S
H1937 C1925 0.929 . S
H1938 C1926 0.960 . S
H1939 C1926 0.962 . S
H1940 C1926 0.960 . S
H1941 C1927 0.961 . S
H1942 C1927 0.961 . S
H1943 C1927 0.961 . S
H1944 C1928 0.931 . S
H1945 C1933 0.930 . S
H1946 C1934 0.956 . S
H1947 C1934 0.961 . S
H1948 C1934 0.961 . S
H1949 C1935 0.958 . S
H1950 C1935 0.961 . S
H1951 C1935 0.960 . S
C1952 C1953 1.391 . S
C1952 C1954 1.394 . S
C1952 H1968 0.931 . S
C1953 C1952 1.391 . S
C1953 C1957 1.376 . S
C1954 C1952 1.394 . S
C1954 C1955 1.369 . S
C1954 C1958 1.531 . S
C1955 C1954 1.369 . S
C1955 C1956 1.410 . S
C1955 C1963 1.503 . S
C1956 C1955 1.410 . S
C1956 C1957 1.392 . S
C1956 C1959 1.511 . S
C1957 C1953 1.376 . S
C1957 C1956 1.392 . S
C1957 H1969 0.929 . S
C1958 C1954 1.531 . S
C1958 H1970 0.960 . S
C1958 H1971 0.962 . S
C1958 H1972 0.960 . S
C1959 C1956 1.511 . S
C1959 H1973 0.961 . S
C1959 H1974 0.961 . S
C1959 H1975 0.961 . S
C1960 C1961 1.370 . S
C1960 C1962 1.363 . S
C1960 H1976 0.931 . S
C1961 C1960 1.370 . S
C1961 C1965 1.408 . S
C1962 C1960 1.363 . S
C1962 C1963 1.370 . S
C1962 C1966 1.524 . S
C1963 C1955 1.503 . S
C1963 C1962 1.370 . S
C1963 C1964 1.403 . S
C1964 C1963 1.403 . S
C1964 C1965 1.404 . S
C1964 C1967 1.539 . S
C1965 C1961 1.408 . S
C1965 C1964 1.404 . S
C1965 H1977 0.930 . S
C1966 C1962 1.524 . S
C1966 H1978 0.956 . S
C1966 H1979 0.961 . S
C1966 H1980 0.961 . S
C1967 C1964 1.539 . S
C1967 H1981 0.958 . S
C1967 H1982 0.961 . S
C1967 H1983 0.960 . S
H1968 C1952 0.931 . S
H1969 C1957 0.929 . S
H1970 C1958 0.960 . S
H1971 C1958 0.962 . S
H1972 C1958 0.960 . S
H1973 C1959 0.961 . S
H1974 C1959 0.961 . S
H1975 C1959 0.961 . S
H1976 C1960 0.931 . S
H1977 C1965 0.930 . S
H1978 C1966 0.956 . S
H1979 C1966 0.961 . S
H1980 C1966 0.961 . S
H1981 C1967 0.958 . S
H1982 C1967 0.961 . S
H1983 C1967 0.960 . S
C1984 C1985 1.391 . S
C1984 C1986 1.394 . S
C1984 H2000 0.931 . S
C1985 C1984 1.391 . S
C1985 C1989 1.376 . S
C1986 C1984 1.394 . S
C1986 C1987 1.369 . S
C1986 C1990 1.531 . S
C1987 C1986 1.369 . S
C1987 C1988 1.410 . S
C1987 C1995 1.503 . S
C1988 C1987 1.410 . S
C1988 C1989 1.392 . S
C1988 C1991 1.511 . S
C1989 C1985 1.376 . S
C1989 C1988 1.392 . S
C1989 H2001 0.929 . S
C1990 C1986 1.531 . S
C1990 H2002 0.960 . S
C1990 H2003 0.962 . S
C1990 H2004 0.960 . S
C1991 C1988 1.511 . S
C1991 H2005 0.961 . S
C1991 H2006 0.961 . S
C1991 H2007 0.961 . S
C1992 C1993 1.370 . S
C1992 C1994 1.363 . S
C1992 H2008 0.931 . S
C1993 C1992 1.370 . S
C1993 C1997 1.408 . S
C1994 C1992 1.363 . S
C1994 C1995 1.370 . S
C1994 C1998 1.524 . S
C1995 C1987 1.503 . S
C1995 C1994 1.370 . S
C1995 C1996 1.403 . S
C1996 C1995 1.403 . S
C1996 C1997 1.404 . S
C1996 C1999 1.539 . S
C1997 C1993 1.408 . S
C1997 C1996 1.404 . S
C1997 H2009 0.930 . S
C1998 C1994 1.524 . S
C1998 H2010 0.956 . S
C1998 H2011 0.961 . S
C1998 H2012 0.961 . S
C1999 C1996 1.539 . S
C1999 H2013 0.958 . S
C1999 H2014 0.961 . S
C1999 H2015 0.960 . S
H2000 C1984 0.931 . S
H2001 C1989 0.929 . S
H2002 C1990 0.960 . S
H2003 C1990 0.962 . S
H2004 C1990 0.960 . S
H2005 C1991 0.961 . S
H2006 C1991 0.961 . S
H2007 C1991 0.961 . S
H2008 C1992 0.931 . S
H2009 C1997 0.930 . S
H2010 C1998 0.956 . S
H2011 C1998 0.961 . S
H2012 C1998 0.961 . S
H2013 C1999 0.958 . S
H2014 C1999 0.961 . S
H2015 C1999 0.960 . S
C2016 C2017 1.391 . S
C2016 C2018 1.394 . S
C2016 H2032 0.931 . S
C2017 C2016 1.391 . S
C2017 C2021 1.376 . S
C2018 C2016 1.394 . S
C2018 C2019 1.369 . S
C2018 C2022 1.531 . S
C2019 C2018 1.369 . S
C2019 C2020 1.410 . S
C2019 C2027 1.503 . S
C2020 C2019 1.410 . S
C2020 C2021 1.392 . S
C2020 C2023 1.511 . S
C2021 C2017 1.376 . S
C2021 C2020 1.392 . S
C2021 H2033 0.929 . S
C2022 C2018 1.531 . S
C2022 H2034 0.960 . S
C2022 H2035 0.962 . S
C2022 H2036 0.960 . S
C2023 C2020 1.511 . S
C2023 H2037 0.961 . S
C2023 H2038 0.961 . S
C2023 H2039 0.961 . S
C2024 C2025 1.370 . S
C2024 C2026 1.363 . S
C2024 H2040 0.931 . S
C2025 C2024 1.370 . S
C2025 C2029 1.408 . S
C2026 C2024 1.363 . S
C2026 C2027 1.370 . S
C2026 C2030 1.524 . S
C2027 C2019 1.503 . S
C2027 C2026 1.370 . S
C2027 C2028 1.403 . S
C2028 C2027 1.403 . S
C2028 C2029 1.404 . S
C2028 C2031 1.539 . S
C2029 C2025 1.408 . S
C2029 C2028 1.404 . S
C2029 H2041 0.930 . S
C2030 C2026 1.524 . S
C2030 H2042 0.956 . S
C2030 H2043 0.961 . S
C2030 H2044 0.961 . S
C2031 C2028 1.539 . S
C2031 H2045 0.958 . S
C2031 H2046 0.961 . S
C2031 H2047 0.960 . S
H2032 C2016 0.931 . S
H2033 C2021 0.929 . S
H2034 C2022 0.960 . S
H2035 C2022 0.962 . S
H2036 C2022 0.960 . S
H2037 C2023 0.961 . S
H2038 C2023 0.961 . S
H2039 C2023 0.961 . S
H2040 C2024 0.931 . S
H2041 C2029 0.930 . S
H2042 C2030 0.956 . S
H2043 C2030 0.961 . S
H2044 C2030 0.961 . S
H2045 C2031 0.958 . S
H2046 C2031 0.961 . S
H2047 C2031 0.960 . S
C2048 C2049 1.391 1_554 S
C2048 C2050 1.394 . S
C2048 H2064 0.931 . S
C2049 C2048 1.391 1_556 S
C2049 C2053 1.376 . S
C2050 C2048 1.394 . S
C2050 C2051 1.369 1_554 S
C2050 C2054 1.531 . S
C2051 C2050 1.369 1_556 S
C2051 C2052 1.410 . S
C2051 C2059 1.503 . S
C2052 C2051 1.410 . S
C2052 C2053 1.392 . S
C2052 C2055 1.511 . S
C2053 C2049 1.376 . S
C2053 C2052 1.392 . S
C2053 H2065 0.929 . S
C2054 C2050 1.531 . S
C2054 H2066 0.960 . S
C2054 H2067 0.962 . S
C2054 H2068 0.960 . S
C2055 C2052 1.511 . S
C2055 H2069 0.961 . S
C2055 H2070 0.961 . S
C2055 H2071 0.961 . S
C2056 C2057 1.337 1_554 S
C2056 C2058 1.363 . S
C2056 H2072 0.931 . S
C2057 C2056 1.337 1_556 S
C2057 C2061 1.445 . S
C2058 C2056 1.363 . S
C2058 C2059 1.370 1_554 S
C2058 C2062 1.524 . S
C2059 C2051 1.503 . S
C2059 C2058 1.370 1_556 S
C2059 C2060 1.403 . S
C2060 C2059 1.403 . S
C2060 C2061 1.404 . S
C2060 C2063 1.539 . S
C2061 C2057 1.445 . S
C2061 C2060 1.404 . S
C2061 H2073 0.930 . S
C2062 C2058 1.524 . S
C2062 H2074 0.956 . S
C2062 H2075 0.961 . S
C2062 H2076 0.961 . S
C2063 C2060 1.539 . S
C2063 H2077 0.958 . S
C2063 H2078 0.961 . S
C2063 H2079 0.960 . S
H2064 C2048 0.931 . S
H2065 C2053 0.929 . S
H2066 C2054 0.960 . S
H2067 C2054 0.962 . S
H2068 C2054 0.960 . S
H2069 C2055 0.961 . S
H2070 C2055 0.961 . S
H2071 C2055 0.961 . S
H2072 C2056 0.931 . S
H2073 C2061 0.930 . S
H2074 C2062 0.956 . S
H2075 C2062 0.961 . S
H2076 C2062 0.961 . S
H2077 C2063 0.958 . S
H2078 C2063 0.961 . S
H2079 C2063 0.960 . S
C2080 C2081 1.391 . S
C2080 C2082 1.394 . S
C2080 H2096 0.931 . S
C2081 C2080 1.391 . S
C2081 C2085 1.376 1_554 S
C2082 C2080 1.394 . S
C2082 C2083 1.369 . S
C2082 C2086 1.531 . S
C2083 C2082 1.369 . S
C2083 C2084 1.410 1_554 S
C2083 C2091 1.503 . S
C2084 C2083 1.410 1_556 S
C2084 C2085 1.392 . S
C2084 C2087 1.511 . S
C2085 C2081 1.376 1_556 S
C2085 C2084 1.392 . S
C2085 H2097 0.929 . S
C2086 C2082 1.531 . S
C2086 H2098 0.960 . S
C2086 H2099 0.962 . S
C2086 H2100 0.960 . S
C2087 C2084 1.511 . S
C2087 H2101 0.961 . S
C2087 H2102 0.961 . S
C2087 H2103 0.961 . S
C2088 C2089 1.365 1_556 S
C2088 C2090 1.363 . S
C2088 H2104 0.931 . S
C2089 C2088 1.365 1_554 S
C2089 C2093 1.414 . S
C2090 C2088 1.363 . S
C2090 C2091 1.370 1_556 S
C2090 C2094 1.524 . S
C2091 C2083 1.503 . S
C2091 C2090 1.370 1_554 S
C2091 C2092 1.403 . S
C2092 C2091 1.403 . S
C2092 C2093 1.404 . S
C2092 C2095 1.539 . S
C2093 C2089 1.414 . S
C2093 C2092 1.404 . S
C2093 H2105 0.930 . S
C2094 C2090 1.524 . S
C2094 H2106 0.956 . S
C2094 H2107 0.961 . S
C2094 H2108 0.961 . S
C2095 C2092 1.539 . S
C2095 H2109 0.958 . S
C2095 H2110 0.961 . S
C2095 H2111 0.960 . S
H2096 C2080 0.931 . S
H2097 C2085 0.929 . S
H2098 C2086 0.960 . S
H2099 C2086 0.962 . S
H2100 C2086 0.960 . S
H2101 C2087 0.961 . S
H2102 C2087 0.961 . S
H2103 C2087 0.961 . S
H2104 C2088 0.931 . S
H2105 C2093 0.930 . S
H2106 C2094 0.956 . S
H2107 C2094 0.961 . S
H2108 C2094 0.961 . S
H2109 C2095 0.958 . S
H2110 C2095 0.961 . S
H2111 C2095 0.960 . S
C2112 C2113 1.391 . S
C2112 C2114 1.394 . S
C2112 H2128 0.931 . S
C2113 C2112 1.391 . S
C2113 C2117 1.376 . S
C2114 C2112 1.394 . S
C2114 C2115 1.369 . S
C2114 C2118 1.531 . S
C2115 C2114 1.369 . S
C2115 C2116 1.410 . S
C2115 C2123 1.503 . S
C2116 C2115 1.410 . S
C2116 C2117 1.392 . S
C2116 C2119 1.511 . S
C2117 C2113 1.376 . S
C2117 C2116 1.392 . S
C2117 H2129 0.929 . S
C2118 C2114 1.531 . S
C2118 H2130 0.960 . S
C2118 H2131 0.962 . S
C2118 H2132 0.960 . S
C2119 C2116 1.511 . S
C2119 H2133 0.961 . S
C2119 H2134 0.961 . S
C2119 H2135 0.961 . S
C2120 C2121 1.370 . S
C2120 C2122 1.363 . S
C2120 H2136 0.931 . S
C2121 C2120 1.370 . S
C2121 C2125 1.408 . S
C2122 C2120 1.363 . S
C2122 C2123 1.370 . S
C2122 C2126 1.524 . S
C2123 C2115 1.503 . S
C2123 C2122 1.370 . S
C2123 C2124 1.403 . S
C2124 C2123 1.403 . S
C2124 C2125 1.404 . S
C2124 C2127 1.539 . S
C2125 C2121 1.408 . S
C2125 C2124 1.404 . S
C2125 H2137 0.930 . S
C2126 C2122 1.524 . S
C2126 H2138 0.956 . S
C2126 H2139 0.961 . S
C2126 H2140 0.961 . S
C2127 C2124 1.539 . S
C2127 H2141 0.958 . S
C2127 H2142 0.961 . S
C2127 H2143 0.960 . S
H2128 C2112 0.931 . S
H2129 C2117 0.929 . S
H2130 C2118 0.960 . S
H2131 C2118 0.962 . S
H2132 C2118 0.960 . S
H2133 C2119 0.961 . S
H2134 C2119 0.961 . S
H2135 C2119 0.961 . S
H2136 C2120 0.931 . S
H2137 C2125 0.930 . S
H2138 C2126 0.956 . S
H2139 C2126 0.961 . S
H2140 C2126 0.961 . S
H2141 C2127 0.958 . S
H2142 C2127 0.961 . S
H2143 C2127 0.960 . S
C2144 C2145 1.391 . S
C2144 C2146 1.394 . S
C2144 H2160 0.931 . S
C2145 C2144 1.391 . S
C2145 C2149 1.376 . S
C2146 C2144 1.394 . S
C2146 C2147 1.369 . S
C2146 C2150 1.531 . S
C2147 C2146 1.369 . S
C2147 C2148 1.410 . S
C2147 C2155 1.503 . S
C2148 C2147 1.410 . S
C2148 C2149 1.392 . S
C2148 C2151 1.511 . S
C2149 C2145 1.376 . S
C2149 C2148 1.392 . S
C2149 H2161 0.929 . S
C2150 C2146 1.531 . S
C2150 H2162 0.960 . S
C2150 H2163 0.962 . S
C2150 H2164 0.960 . S
C2151 C2148 1.511 . S
C2151 H2165 0.961 . S
C2151 H2166 0.961 . S
C2151 H2167 0.961 . S
C2152 C2153 1.370 . S
C2152 C2154 1.363 . S
C2152 H2168 0.931 . S
C2153 C2152 1.370 . S
C2153 C2157 1.408 . S
C2154 C2152 1.363 . S
C2154 C2155 1.370 . S
C2154 C2158 1.524 . S
C2155 C2147 1.503 . S
C2155 C2154 1.370 . S
C2155 C2156 1.403 . S
C2156 C2155 1.403 . S
C2156 C2157 1.404 . S
C2156 C2159 1.539 . S
C2157 C2153 1.408 . S
C2157 C2156 1.404 . S
C2157 H2169 0.930 . S
C2158 C2154 1.524 . S
C2158 H2170 0.956 . S
C2158 H2171 0.961 . S
C2158 H2172 0.961 . S
C2159 C2156 1.539 . S
C2159 H2173 0.958 . S
C2159 H2174 0.961 . S
C2159 H2175 0.960 . S
H2160 C2144 0.931 . S
H2161 C2149 0.929 . S
H2162 C2150 0.960 . S
H2163 C2150 0.962 . S
H2164 C2150 0.960 . S
H2165 C2151 0.961 . S
H2166 C2151 0.961 . S
H2167 C2151 0.961 . S
H2168 C2152 0.931 . S
H2169 C2157 0.930 . S
H2170 C2158 0.956 . S
H2171 C2158 0.961 . S
H2172 C2158 0.961 . S
H2173 C2159 0.958 . S
H2174 C2159 0.961 . S
H2175 C2159 0.960 . S
C2176 C2177 1.391 . S
C2176 C2178 1.394 . S
C2176 H2192 0.931 . S
C2177 C2176 1.391 . S
C2177 C2181 1.376 1_556 S
C2178 C2176 1.394 . S
C2178 C2179 1.369 . S
C2178 C2182 1.531 . S
C2179 C2178 1.369 . S
C2179 C2180 1.399 1_556 S
C2179 C2187 1.503 . S
C2180 C2179 1.399 1_554 S
C2180 C2181 1.396 . S
C2180 C2183 1.520 . S
C2181 C2177 1.376 1_554 S
C2181 C2180 1.396 . S
C2181 H2193 0.929 . S
C2182 C2178 1.531 . S
C2182 H2194 0.960 . S
C2182 H2195 0.962 . S
C2182 H2196 0.960 . S
C2183 C2180 1.520 . S
C2183 H2197 0.961 . S
C2183 H2198 0.961 . S
C2183 H2199 0.961 1_554 S
C2184 C2185 1.342 1_554 S
C2184 C2186 1.363 . S
C2184 H2200 0.931 . S
C2185 C2184 1.342 1_556 S
C2185 C2189 1.440 . S
C2186 C2184 1.363 . S
C2186 C2187 1.370 1_554 S
C2186 C2190 1.524 . S
C2187 C2179 1.503 . S
C2187 C2186 1.370 1_556 S
C2187 C2188 1.403 . S
C2188 C2187 1.403 . S
C2188 C2189 1.404 . S
C2188 C2191 1.539 . S
C2189 C2185 1.440 . S
C2189 C2188 1.404 . S
C2189 H2201 0.930 . S
C2190 C2186 1.524 . S
C2190 H2202 0.956 . S
C2190 H2203 0.961 . S
C2190 H2204 0.961 . S
C2191 C2188 1.539 . S
C2191 H2205 0.958 . S
C2191 H2206 0.961 . S
C2191 H2207 0.960 . S
H2192 C2176 0.931 . S
H2193 C2181 0.929 . S
H2194 C2182 0.960 . S
H2195 C2182 0.962 . S
H2196 C2182 0.960 . S
H2197 C2183 0.961 . S
H2198 C2183 0.961 . S
H2199 C2183 0.961 1_556 S
H2200 C2184 0.931 . S
H2201 C2189 0.930 . S
H2202 C2190 0.956 . S
H2203 C2190 0.961 . S
H2204 C2190 0.961 . S
H2205 C2191 0.958 . S
H2206 C2191 0.961 . S
H2207 C2191 0.960 . S
C2208 C2209 1.391 . S
C2208 C2210 1.394 . S
C2208 H2224 0.931 . S
C2209 C2208 1.391 . S
C2209 C2213 1.376 . S
C2210 C2208 1.394 . S
C2210 C2211 1.369 . S
C2210 C2214 1.531 . S
C2211 C2210 1.369 . S
C2211 C2212 1.410 . S
C2211 C2219 1.503 . S
C2212 C2211 1.410 . S
C2212 C2213 1.392 . S
C2212 C2215 1.510 1_554 S
C2213 C2209 1.376 . S
C2213 C2212 1.392 . S
C2213 H2225 0.929 1_554 S
C2214 C2210 1.531 . S
C2214 H2226 0.960 . S
C2214 H2227 0.962 1_554 S
C2214 H2228 0.960 . S
C2215 C2212 1.510 1_556 S
C2215 H2229 0.968 . S
C2215 H2230 0.967 . S
C2215 H2231 0.948 1_556 S
C2216 C2217 1.335 1_556 S
C2216 C2218 1.363 . S
C2216 H2232 0.931 . S
C2217 C2216 1.335 1_554 S
C2217 C2221 1.448 . S
C2218 C2216 1.363 . S
C2218 C2219 1.370 1_556 S
C2218 C2222 1.524 . S
C2219 C2211 1.503 . S
C2219 C2218 1.370 1_554 S
C2219 C2220 1.403 . S
C2220 C2219 1.403 . S
C2220 C2221 1.404 . S
C2220 C2223 1.539 . S
C2221 C2217 1.448 . S
C2221 C2220 1.404 . S
C2221 H2233 0.930 . S
C2222 C2218 1.524 . S
C2222 H2234 0.956 . S
C2222 H2235 0.961 . S
C2222 H2236 0.961 . S
C2223 C2220 1.539 . S
C2223 H2237 0.958 . S
C2223 H2238 0.961 . S
C2223 H2239 0.960 . S
H2224 C2208 0.931 . S
H2225 C2213 0.929 1_556 S
H2226 C2214 0.960 . S
H2227 C2214 0.962 1_556 S
H2228 C2214 0.960 . S
H2229 C2215 0.968 . S
H2230 C2215 0.967 . S
H2231 C2215 0.948 1_554 S
H2232 C2216 0.931 . S
H2233 C2221 0.930 . S
H2234 C2222 0.956 . S
H2235 C2222 0.961 . S
H2236 C2222 0.961 . S
H2237 C2223 0.958 . S
H2238 C2223 0.961 . S
H2239 C2223 0.960 . S
C2240 C2241 1.391 . S
C2240 C2242 1.394 . S
C2240 H2256 0.931 . S
C2241 C2240 1.391 . S
C2241 C2245 1.376 . S
C2242 C2240 1.394 . S
C2242 C2243 1.369 . S
C2242 C2246 1.531 . S
C2243 C2242 1.369 . S
C2243 C2244 1.410 . S
C2243 C2251 1.503 . S
C2244 C2243 1.410 . S
C2244 C2245 1.392 . S
C2244 C2247 1.511 . S
C2245 C2241 1.376 . S
C2245 C2244 1.392 . S
C2245 H2257 0.929 . S
C2246 C2242 1.531 . S
C2246 H2258 0.960 . S
C2246 H2259 0.962 . S
C2246 H2260 0.960 . S
C2247 C2244 1.511 . S
C2247 H2261 0.961 . S
C2247 H2262 0.961 . S
C2247 H2263 0.961 . S
C2248 C2249 1.370 . S
C2248 C2250 1.363 . S
C2248 H2264 0.931 . S
C2249 C2248 1.370 . S
C2249 C2253 1.408 . S
C2250 C2248 1.363 . S
C2250 C2251 1.370 . S
C2250 C2254 1.524 . S
C2251 C2243 1.503 . S
C2251 C2250 1.370 . S
C2251 C2252 1.403 . S
C2252 C2251 1.403 . S
C2252 C2253 1.404 . S
C2252 C2255 1.539 . S
C2253 C2249 1.408 . S
C2253 C2252 1.404 . S
C2253 H2265 0.930 . S
C2254 C2250 1.524 . S
C2254 H2266 0.956 . S
C2254 H2267 0.961 . S
C2254 H2268 0.961 . S
C2255 C2252 1.539 . S
C2255 H2269 0.958 . S
C2255 H2270 0.961 . S
C2255 H2271 0.960 . S
H2256 C2240 0.931 . S
H2257 C2245 0.929 . S
H2258 C2246 0.960 . S
H2259 C2246 0.962 . S
H2260 C2246 0.960 . S
H2261 C2247 0.961 . S
H2262 C2247 0.961 . S
H2263 C2247 0.961 . S
H2264 C2248 0.931 . S
H2265 C2253 0.930 . S
H2266 C2254 0.956 . S
H2267 C2254 0.961 . S
H2268 C2254 0.961 . S
H2269 C2255 0.958 . S
H2270 C2255 0.961 . S
H2271 C2255 0.960 . S
C2272 C2273 1.391 . S
C2272 C2274 1.394 . S
C2272 H2288 0.931 . S
C2273 C2272 1.391 . S
C2273 C2277 1.376 . S
C2274 C2272 1.394 . S
C2274 C2275 1.369 . S
C2274 C2278 1.531 . S
C2275 C2274 1.369 . S
C2275 C2276 1.410 . S
C2275 C2283 1.503 . S
C2276 C2275 1.410 . S
C2276 C2277 1.392 . S
C2276 C2279 1.511 . S
C2277 C2273 1.376 . S
C2277 C2276 1.392 . S
C2277 H2289 0.929 . S
C2278 C2274 1.531 . S
C2278 H2290 0.960 . S
C2278 H2291 0.962 . S
C2278 H2292 0.960 . S
C2279 C2276 1.511 . S
C2279 H2293 0.961 . S
C2279 H2294 0.961 . S
C2279 H2295 0.961 . S
C2280 C2281 1.370 . S
C2280 C2282 1.363 . S
C2280 H2296 0.931 . S
C2281 C2280 1.370 . S
C2281 C2285 1.408 . S
C2282 C2280 1.363 . S
C2282 C2283 1.370 . S
C2282 C2286 1.524 . S
C2283 C2275 1.503 . S
C2283 C2282 1.370 . S
C2283 C2284 1.403 . S
C2284 C2283 1.403 . S
C2284 C2285 1.404 . S
C2284 C2287 1.539 . S
C2285 C2281 1.408 . S
C2285 C2284 1.404 . S
C2285 H2297 0.930 . S
C2286 C2282 1.524 . S
C2286 H2298 0.956 . S
C2286 H2299 0.961 . S
C2286 H2300 0.961 . S
C2287 C2284 1.539 . S
C2287 H2301 0.958 . S
C2287 H2302 0.961 . S
C2287 H2303 0.960 . S
H2288 C2272 0.931 . S
H2289 C2277 0.929 . S
H2290 C2278 0.960 . S
H2291 C2278 0.962 . S
H2292 C2278 0.960 . S
H2293 C2279 0.961 . S
H2294 C2279 0.961 . S
H2295 C2279 0.961 . S
H2296 C2280 0.931 . S
H2297 C2285 0.930 . S
H2298 C2286 0.956 . S
H2299 C2286 0.961 . S
H2300 C2286 0.961 . S
H2301 C2287 0.958 . S
H2302 C2287 0.961 . S
H2303 C2287 0.960 . S
C2304 C2305 1.391 . S
C2304 C2306 1.394 . S
C2304 H2320 0.931 . S
C2305 C2304 1.391 . S
C2305 C2309 1.376 . S
C2306 C2304 1.394 . S
C2306 C2307 1.369 . S
C2306 C2310 1.531 . S
C2307 C2306 1.369 . S
C2307 C2308 1.410 . S
C2307 C2315 1.503 . S
C2308 C2307 1.410 . S
C2308 C2309 1.392 . S
C2308 C2311 1.511 . S
C2309 C2305 1.376 . S
C2309 C2308 1.392 . S
C2309 H2321 0.929 . S
C2310 C2306 1.531 . S
C2310 H2322 0.960 . S
C2310 H2323 0.962 . S
C2310 H2324 0.960 . S
C2311 C2308 1.511 . S
C2311 H2325 0.961 . S
C2311 H2326 0.961 . S
C2311 H2327 0.961 . S
C2312 C2313 1.370 . S
C2312 C2314 1.363 . S
C2312 H2328 0.931 . S
C2313 C2312 1.370 . S
C2313 C2317 1.408 . S
C2314 C2312 1.363 . S
C2314 C2315 1.370 . S
C2314 C2318 1.524 . S
C2315 C2307 1.503 . S
C2315 C2314 1.370 . S
C2315 C2316 1.403 . S
C2316 C2315 1.403 . S
C2316 C2317 1.404 . S
C2316 C2319 1.539 . S
C2317 C2313 1.408 . S
C2317 C2316 1.404 . S
C2317 H2329 0.930 . S
C2318 C2314 1.524 . S
C2318 H2330 0.956 . S
C2318 H2331 0.961 . S
C2318 H2332 0.961 . S
C2319 C2316 1.539 . S
C2319 H2333 0.958 . S
C2319 H2334 0.961 . S
C2319 H2335 0.960 . S
H2320 C2304 0.931 . S
H2321 C2309 0.929 . S
H2322 C2310 0.960 . S
H2323 C2310 0.962 . S
H2324 C2310 0.960 . S
H2325 C2311 0.961 . S
H2326 C2311 0.961 . S
H2327 C2311 0.961 . S
H2328 C2312 0.931 . S
H2329 C2317 0.930 . S
H2330 C2318 0.956 . S
H2331 C2318 0.961 . S
H2332 C2318 0.961 . S
H2333 C2319 0.958 . S
H2334 C2319 0.961 . S
H2335 C2319 0.960 . S
C2336 C2337 1.391 . S
C2336 C2338 1.394 . S
C2336 H2352 0.931 . S
C2337 C2336 1.391 . S
C2337 C2341 1.376 . S
C2338 C2336 1.394 . S
C2338 C2339 1.369 . S
C2338 C2342 1.531 . S
C2339 C2338 1.369 . S
C2339 C2340 1.410 . S
C2339 C2347 1.503 . S
C2340 C2339 1.410 . S
C2340 C2341 1.392 . S
C2340 C2343 1.511 . S
C2341 C2337 1.376 . S
C2341 C2340 1.392 . S
C2341 H2353 0.929 . S
C2342 C2338 1.531 . S
C2342 H2354 0.960 . S
C2342 H2355 0.962 . S
C2342 H2356 0.960 . S
C2343 C2340 1.511 . S
C2343 H2357 0.961 . S
C2343 H2358 0.961 . S
C2343 H2359 0.961 . S
C2344 C2345 1.370 . S
C2344 C2346 1.363 . S
C2344 H2360 0.931 . S
C2345 C2344 1.370 . S
C2345 C2349 1.408 . S
C2346 C2344 1.363 . S
C2346 C2347 1.370 . S
C2346 C2350 1.524 . S
C2347 C2339 1.503 . S
C2347 C2346 1.370 . S
C2347 C2348 1.403 . S
C2348 C2347 1.403 . S
C2348 C2349 1.404 . S
C2348 C2351 1.539 . S
C2349 C2345 1.408 . S
C2349 C2348 1.404 . S
C2349 H2361 0.930 . S
C2350 C2346 1.524 . S
C2350 H2362 0.956 . S
C2350 H2363 0.961 . S
C2350 H2364 0.961 . S
C2351 C2348 1.539 . S
C2351 H2365 0.958 . S
C2351 H2366 0.961 . S
C2351 H2367 0.960 . S
H2352 C2336 0.931 . S
H2353 C2341 0.929 . S
H2354 C2342 0.960 . S
H2355 C2342 0.962 . S
H2356 C2342 0.960 . S
H2357 C2343 0.961 . S
H2358 C2343 0.961 . S
H2359 C2343 0.961 . S
H2360 C2344 0.931 . S
H2361 C2349 0.930 . S
H2362 C2350 0.956 . S
H2363 C2350 0.961 . S
H2364 C2350 0.961 . S
H2365 C2351 0.958 . S
H2366 C2351 0.961 . S
H2367 C2351 0.960 . S
C2368 C2369 1.391 . S
C2368 C2370 1.394 . S
C2368 H2384 0.931 . S
C2369 C2368 1.391 . S
C2369 C2373 1.376 . S
C2370 C2368 1.394 . S
C2370 C2371 1.369 . S
C2370 C2374 1.531 . S
C2371 C2370 1.369 . S
C2371 C2372 1.410 . S
C2371 C2379 1.503 . S
C2372 C2371 1.410 . S
C2372 C2373 1.392 . S
C2372 C2375 1.511 . S
C2373 C2369 1.376 . S
C2373 C2372 1.392 . S
C2373 H2385 0.929 . S
C2374 C2370 1.531 . S
C2374 H2386 0.960 . S
C2374 H2387 0.962 . S
C2374 H2388 0.960 . S
C2375 C2372 1.511 . S
C2375 H2389 0.961 . S
C2375 H2390 0.961 . S
C2375 H2391 0.961 . S
C2376 C2377 1.370 . S
C2376 C2378 1.363 . S
C2376 H2392 0.931 . S
C2377 C2376 1.370 . S
C2377 C2381 1.408 . S
C2378 C2376 1.363 . S
C2378 C2379 1.370 . S
C2378 C2382 1.524 . S
C2379 C2371 1.503 . S
C2379 C2378 1.370 . S
C2379 C2380 1.403 . S
C2380 C2379 1.403 . S
C2380 C2381 1.404 . S
C2380 C2383 1.539 . S
C2381 C2377 1.408 . S
C2381 C2380 1.404 . S
C2381 H2393 0.930 . S
C2382 C2378 1.524 . S
C2382 H2394 0.956 . S
C2382 H2395 0.961 . S
C2382 H2396 0.961 . S
C2383 C2380 1.539 . S
C2383 H2397 0.958 . S
C2383 H2398 0.961 . S
C2383 H2399 0.960 . S
H2384 C2368 0.931 . S
H2385 C2373 0.929 . S
H2386 C2374 0.960 . S
H2387 C2374 0.962 . S
H2388 C2374 0.960 . S
H2389 C2375 0.961 . S
H2390 C2375 0.961 . S
H2391 C2375 0.961 . S
H2392 C2376 0.931 . S
H2393 C2381 0.930 . S
H2394 C2382 0.956 . S
H2395 C2382 0.961 . S
H2396 C2382 0.961 . S
H2397 C2383 0.958 . S
H2398 C2383 0.961 . S
H2399 C2383 0.960 . S
C2400 C2401 1.391 . S
C2400 C2402 1.394 . S
C2400 H2416 0.931 . S
C2401 C2400 1.391 . S
C2401 C2405 1.376 . S
C2402 C2400 1.394 . S
C2402 C2403 1.369 . S
C2402 C2406 1.531 . S
C2403 C2402 1.369 . S
C2403 C2404 1.410 . S
C2403 C2411 1.503 . S
C2404 C2403 1.410 . S
C2404 C2405 1.392 . S
C2404 C2407 1.511 . S
C2405 C2401 1.376 . S
C2405 C2404 1.392 . S
C2405 H2417 0.929 . S
C2406 C2402 1.531 . S
C2406 H2418 0.960 . S
C2406 H2419 0.962 . S
C2406 H2420 0.960 . S
C2407 C2404 1.511 . S
C2407 H2421 0.961 . S
C2407 H2422 0.961 . S
C2407 H2423 0.961 . S
C2408 C2409 1.370 . S
C2408 C2410 1.363 . S
C2408 H2424 0.931 . S
C2409 C2408 1.370 . S
C2409 C2413 1.408 . S
C2410 C2408 1.363 . S
C2410 C2411 1.370 . S
C2410 C2414 1.524 . S
C2411 C2403 1.503 . S
C2411 C2410 1.370 . S
C2411 C2412 1.403 . S
C2412 C2411 1.403 . S
C2412 C2413 1.404 . S
C2412 C2415 1.539 . S
C2413 C2409 1.408 . S
C2413 C2412 1.404 . S
C2413 H2425 0.930 . S
C2414 C2410 1.524 . S
C2414 H2426 0.956 . S
C2414 H2427 0.961 . S
C2414 H2428 0.961 . S
C2415 C2412 1.539 . S
C2415 H2429 0.958 . S
C2415 H2430 0.961 . S
C2415 H2431 0.960 . S
H2416 C2400 0.931 . S
H2417 C2405 0.929 . S
H2418 C2406 0.960 . S
H2419 C2406 0.962 . S
H2420 C2406 0.960 . S
H2421 C2407 0.961 . S
H2422 C2407 0.961 . S
H2423 C2407 0.961 . S
H2424 C2408 0.931 . S
H2425 C2413 0.930 . S
H2426 C2414 0.956 . S
H2427 C2414 0.961 . S
H2428 C2414 0.961 . S
H2429 C2415 0.958 . S
H2430 C2415 0.961 . S
H2431 C2415 0.960 . S
C2432 C2433 1.391 . S
C2432 C2434 1.394 . S
C2432 H2448 0.931 . S
C2433 C2432 1.391 . S
C2433 C2437 1.376 . S
C2434 C2432 1.394 . S
C2434 C2435 1.369 . S
C2434 C2438 1.531 . S
C2435 C2434 1.369 . S
C2435 C2436 1.410 . S
C2435 C2443 1.503 . S
C2436 C2435 1.410 . S
C2436 C2437 1.392 . S
C2436 C2439 1.511 . S
C2437 C2433 1.376 . S
C2437 C2436 1.392 . S
C2437 H2449 0.929 . S
C2438 C2434 1.531 . S
C2438 H2450 0.960 . S
C2438 H2451 0.962 . S
C2438 H2452 0.960 . S
C2439 C2436 1.511 . S
C2439 H2453 0.961 . S
C2439 H2454 0.961 . S
C2439 H2455 0.961 . S
C2440 C2441 1.370 . S
C2440 C2442 1.363 . S
C2440 H2456 0.931 . S
C2441 C2440 1.370 . S
C2441 C2445 1.408 . S
C2442 C2440 1.363 . S
C2442 C2443 1.370 . S
C2442 C2446 1.524 . S
C2443 C2435 1.503 . S
C2443 C2442 1.370 . S
C2443 C2444 1.403 . S
C2444 C2443 1.403 . S
C2444 C2445 1.404 . S
C2444 C2447 1.539 . S
C2445 C2441 1.408 . S
C2445 C2444 1.404 . S
C2445 H2457 0.930 . S
C2446 C2442 1.524 . S
C2446 H2458 0.956 . S
C2446 H2459 0.961 . S
C2446 H2460 0.961 . S
C2447 C2444 1.539 . S
C2447 H2461 0.958 . S
C2447 H2462 0.961 . S
C2447 H2463 0.960 . S
H2448 C2432 0.931 . S
H2449 C2437 0.929 . S
H2450 C2438 0.960 . S
H2451 C2438 0.962 . S
H2452 C2438 0.960 . S
H2453 C2439 0.961 . S
H2454 C2439 0.961 . S
H2455 C2439 0.961 . S
H2456 C2440 0.931 . S
H2457 C2445 0.930 . S
H2458 C2446 0.956 . S
H2459 C2446 0.961 . S
H2460 C2446 0.961 . S
H2461 C2447 0.958 . S
H2462 C2447 0.961 . S
H2463 C2447 0.960 . S
C2464 C2465 1.391 . S
C2464 C2466 1.394 . S
C2464 H2480 0.931 . S
C2465 C2464 1.391 . S
C2465 C2469 1.376 . S
C2466 C2464 1.394 . S
C2466 C2467 1.369 . S
C2466 C2470 1.531 . S
C2467 C2466 1.369 . S
C2467 C2468 1.410 . S
C2467 C2475 1.503 . S
C2468 C2467 1.410 . S
C2468 C2469 1.392 . S
C2468 C2471 1.511 . S
C2469 C2465 1.376 . S
C2469 C2468 1.392 . S
C2469 H2481 0.929 . S
C2470 C2466 1.531 . S
C2470 H2482 0.960 . S
C2470 H2483 0.962 . S
C2470 H2484 0.960 . S
C2471 C2468 1.511 . S
C2471 H2485 0.961 . S
C2471 H2486 0.961 . S
C2471 H2487 0.961 . S
C2472 C2473 1.370 . S
C2472 C2474 1.363 . S
C2472 H2488 0.931 . S
C2473 C2472 1.370 . S
C2473 C2477 1.408 . S
C2474 C2472 1.363 . S
C2474 C2475 1.370 . S
C2474 C2478 1.524 . S
C2475 C2467 1.503 . S
C2475 C2474 1.370 . S
C2475 C2476 1.403 . S
C2476 C2475 1.403 . S
C2476 C2477 1.404 . S
C2476 C2479 1.539 . S
C2477 C2473 1.408 . S
C2477 C2476 1.404 . S
C2477 H2489 0.930 . S
C2478 C2474 1.524 . S
C2478 H2490 0.956 . S
C2478 H2491 0.961 . S
C2478 H2492 0.961 . S
C2479 C2476 1.539 . S
C2479 H2493 0.958 . S
C2479 H2494 0.961 . S
C2479 H2495 0.960 . S
H2480 C2464 0.931 . S
H2481 C2469 0.929 . S
H2482 C2470 0.960 . S
H2483 C2470 0.962 . S
H2484 C2470 0.960 . S
H2485 C2471 0.961 . S
H2486 C2471 0.961 . S
H2487 C2471 0.961 . S
H2488 C2472 0.931 . S
H2489 C2477 0.930 . S
H2490 C2478 0.956 . S
H2491 C2478 0.961 . S
H2492 C2478 0.961 . S
H2493 C2479 0.958 . S
H2494 C2479 0.961 . S
H2495 C2479 0.960 . S
C449 C7 1.171 . S
C457 C49 1.138 . S
C481 C35 1.167 . S
C489 C21 1.142 . S
C513 C63 1.129 . S
C521 C105 1.162 . S
C545 C91 1.155 . S
C553 C77 1.140 . S
C577 C119 1.148 . S
C585 C161 1.118 . S
C609 C147 1.103 . S
C617 C133 1.133 . S
C641 C175 1.137 . S
C649 C217 1.115 . S
C673 C189 1.105 . S
C681 C203 1.139 . S
C705 C273 1.147 . S
C713 C231 1.118 . S
C737 C245 1.149 . S
C745 C259 1.118 . S
C769 C287 1.102 . S
C777 C329 1.140 . S
C801 C315 1.142 . S
C809 C301 1.114 . S
C833 C343 1.124 . S
C841 C385 1.160 . S
C865 C371 1.177 . S
C873 C357 1.137 . S
C897 C399 1.116 . S
C905 C441 1.157 . S
C929 C413 1.119 . S
C937 C427 1.155 . S
C961 C176 1.524 . S
C969 C8 1.524 . S
C993 C22 1.523 . S
C1001 C302 1.525 . S
C1025 C36 1.512 . S
C1033 C92 1.514 . S
C1057 C442 1.508 . S
C1065 C50 1.515 . S
C1089 C64 1.521 . S
C1097 C120 1.526 . S
C1121 C246 1.522 . S
C1129 C78 1.525 . S
C1153 C386 1.512 . S
C1161 C106 1.514 . S
C1185 C414 1.523 . S
C1193 C134 1.525 . S
C1217 C204 1.512 . S
C1225 C148 1.515 . S
C1249 C330 1.513 . S
C1257 C162 1.515 . S
C1281 C190 1.523 . S
C1289 C358 1.525 . S
C1313 C274 1.512 . S
C1321 C218 1.515 . S
C1345 C400 1.519 . S
C1353 C232 1.527 . S
C1377 C316 1.514 . S
C1385 C260 1.514 . S
C1409 C344 1.523 . S
C1417 C288 1.525 . S
C1441 C372 1.512 . S
C1449 C428 1.514 . S
C1473 C143 1.412 . S
C1481 C3 1.368 . S
C1505 C17 1.404 . S
C1513 C157 1.379 . S
C1537 C115 1.318 . S
C1545 C31 1.359 . S
C1569 C129 1.392 . S
C1577 C45 1.347 . S
C1601 C59 1.407 . S
C1609 C199 1.363 . S
C1633 C73 1.353 . S
C1641 C213 1.393 . S
C1665 C171 1.380 . S
C1673 C87 1.338 . S
C1697 C101 1.363 . S
C1705 C185 1.340 . S
C1729 C367 1.323 . S
C1737 C227 1.354 . S
C1761 C381 1.322 . S
C1769 C241 1.354 . S
C1793 C255 1.352 . S
C1801 C339 1.372 . S
C1825 C269 1.339 . S
C1833 C353 1.389 . S
C1857 C283 1.368 . S
C1865 C423 1.340 . S
C1889 C297 1.344 . S
C1897 C437 1.367 . S
C1921 C395 1.402 . S
C1929 C311 1.376 . S
C1953 C409 1.410 . S
C1961 C325 1.368 . S
C1985 C9 1.461 . S
C1993 C359 1.457 . S
C2017 C345 1.467 . S
C2025 C23 1.454 1_655 S
C2049 C37 1.434 . S
C2057 C387 1.447 . S
C2081 C51 1.426 1_654 S
C2089 C373 1.453 1_554 S
C2113 C65 1.468 . S
C2121 C415 1.451 . S
C2145 C79 1.471 1_455 S
C2153 C401 1.450 . S
C2177 C443 1.448 1_556 S
C2185 C93 1.442 1_556 S
C2209 C429 1.439 . S
C2217 C107 1.448 1_455 S
C2241 C247 1.437 . S
C2249 C121 1.464 . S
C2273 C233 1.449 . S
C2281 C135 1.455 1_655 S
C2305 C149 1.427 . S
C2313 C275 1.451 . S
C2337 C163 1.441 1_655 S
C2345 C261 1.450 . S
C2369 C303 1.458 . S
C2377 C177 1.454 . S
C2401 C191 1.434 1_455 S
C2409 C289 1.464 . S
C2433 C205 1.462 . S
C2441 C331 1.439 . S
C2465 C219 1.433 1_455 S
C2473 C317 1.450 . S
