# Generated by pormake.
# Topology yfk, (5)-cn, num edge types: 1
# Building blocks:
#     Node 0, Type 0, BuildingBlock: BEQFEK_clean_sbu_0, # of connection points: 5
#     Node 1, Type 0, BuildingBlock: BEQFEK_clean_sbu_0, # of connection points: 5
#     Node 2, Type 0, BuildingBlock: BEQFEK_clean_sbu_0, # of connection points: 5
#     Node 3, Type 0, BuildingBlock: BEQFEK_clean_sbu_0, # of connection points: 5
#     Node 4, Type 0, BuildingBlock: BEQFEK_clean_sbu_0, # of connection points: 5
#     Node 5, Type 0, BuildingBlock: BEQFEK_clean_sbu_0, # of connection points: 5
#     Node 6, Type 0, BuildingBlock: BEQFEK_clean_sbu_0, # of connection points: 5
#     Node 7, Type 0, BuildingBlock: BEQFEK_clean_sbu_0, # of connection points: 5
#     Node 8, Type 0, BuildingBlock: BEQFEK_clean_sbu_0, # of connection points: 5
#     Node 9, Type 0, BuildingBlock: BEQFEK_clean_sbu_0, # of connection points: 5
#     Node 10, Type 0, BuildingBlock: BEQFEK_clean_sbu_0, # of connection points: 5
#     Node 11, Type 0, BuildingBlock: BEQFEK_clean_sbu_0, # of connection points: 5
#     Node 12, Type 0, BuildingBlock: BEQFEK_clean_sbu_0, # of connection points: 5
#     Node 13, Type 0, BuildingBlock: BEQFEK_clean_sbu_0, # of connection points: 5
#     Node 14, Type 0, BuildingBlock: BEQFEK_clean_sbu_0, # of connection points: 5
#     Node 15, Type 0, BuildingBlock: BEQFEK_clean_sbu_0, # of connection points: 5
#     Edge 16, Type (0, 0), BuildingBlock: MIFKUJ_clean_linker_0, # of connection points: 2
#     Edge 17, Type (0, 0), BuildingBlock: MIFKUJ_clean_linker_0, # of connection points: 2
#     Edge 18, Type (0, 0), BuildingBlock: MIFKUJ_clean_linker_0, # of connection points: 2
#     Edge 19, Type (0, 0), BuildingBlock: MIFKUJ_clean_linker_0, # of connection points: 2
#     Edge 20, Type (0, 0), BuildingBlock: MIFKUJ_clean_linker_0, # of connection points: 2
#     Edge 21, Type (0, 0), BuildingBlock: MIFKUJ_clean_linker_0, # of connection points: 2
#     Edge 22, Type (0, 0), BuildingBlock: MIFKUJ_clean_linker_0, # of connection points: 2
#     Edge 23, Type (0, 0), BuildingBlock: MIFKUJ_clean_linker_0, # of connection points: 2
#     Edge 24, Type (0, 0), BuildingBlock: MIFKUJ_clean_linker_0, # of connection points: 2
#     Edge 25, Type (0, 0), BuildingBlock: MIFKUJ_clean_linker_0, # of connection points: 2
#     Edge 26, Type (0, 0), BuildingBlock: MIFKUJ_clean_linker_0, # of connection points: 2
#     Edge 27, Type (0, 0), BuildingBlock: MIFKUJ_clean_linker_0, # of connection points: 2
#     Edge 28, Type (0, 0), BuildingBlock: MIFKUJ_clean_linker_0, # of connection points: 2
#     Edge 29, Type (0, 0), BuildingBlock: MIFKUJ_clean_linker_0, # of connection points: 2
#     Edge 30, Type (0, 0), BuildingBlock: MIFKUJ_clean_linker_0, # of connection points: 2
#     Edge 31, Type (0, 0), BuildingBlock: MIFKUJ_clean_linker_0, # of connection points: 2
#     Edge 32, Type (0, 0), BuildingBlock: MIFKUJ_clean_linker_0, # of connection points: 2
#     Edge 33, Type (0, 0), BuildingBlock: MIFKUJ_clean_linker_0, # of connection points: 2
#     Edge 34, Type (0, 0), BuildingBlock: MIFKUJ_clean_linker_0, # of connection points: 2
#     Edge 35, Type (0, 0), BuildingBlock: MIFKUJ_clean_linker_0, # of connection points: 2
#     Edge 36, Type (0, 0), BuildingBlock: MIFKUJ_clean_linker_0, # of connection points: 2
#     Edge 37, Type (0, 0), BuildingBlock: MIFKUJ_clean_linker_0, # of connection points: 2
#     Edge 38, Type (0, 0), BuildingBlock: MIFKUJ_clean_linker_0, # of connection points: 2
#     Edge 39, Type (0, 0), BuildingBlock: MIFKUJ_clean_linker_0, # of connection points: 2
#     Edge 40, Type (0, 0), BuildingBlock: MIFKUJ_clean_linker_0, # of connection points: 2
#     Edge 41, Type (0, 0), BuildingBlock: MIFKUJ_clean_linker_0, # of connection points: 2
#     Edge 42, Type (0, 0), BuildingBlock: MIFKUJ_clean_linker_0, # of connection points: 2
#     Edge 43, Type (0, 0), BuildingBlock: MIFKUJ_clean_linker_0, # of connection points: 2
#     Edge 44, Type (0, 0), BuildingBlock: MIFKUJ_clean_linker_0, # of connection points: 2
#     Edge 45, Type (0, 0), BuildingBlock: MIFKUJ_clean_linker_0, # of connection points: 2
#     Edge 46, Type (0, 0), BuildingBlock: MIFKUJ_clean_linker_0, # of connection points: 2
#     Edge 47, Type (0, 0), BuildingBlock: MIFKUJ_clean_linker_0, # of connection points: 2
#     Edge 48, Type (0, 0), BuildingBlock: MIFKUJ_clean_linker_0, # of connection points: 2
#     Edge 49, Type (0, 0), BuildingBlock: MIFKUJ_clean_linker_0, # of connection points: 2
#     Edge 50, Type (0, 0), BuildingBlock: MIFKUJ_clean_linker_0, # of connection points: 2
#     Edge 51, Type (0, 0), BuildingBlock: MIFKUJ_clean_linker_0, # of connection points: 2
#     Edge 52, Type (0, 0), BuildingBlock: MIFKUJ_clean_linker_0, # of connection points: 2
#     Edge 53, Type (0, 0), BuildingBlock: MIFKUJ_clean_linker_0, # of connection points: 2
#     Edge 54, Type (0, 0), BuildingBlock: MIFKUJ_clean_linker_0, # of connection points: 2
#     Edge 55, Type (0, 0), BuildingBlock: MIFKUJ_clean_linker_0, # of connection points: 2
# Relax obj value: 0.369
# Max RMSD: 0.206
# Mean RMSD: 0.206
data_MOF--net-yfk--node1-BEQFEK_clean_sbu_0--edge1-MIFKUJ_clean_linker_0
_symmetry_space_group_name_H-M    P1
_symmetry_Int_Tables_number       1
_symmetry_cell_setting            triclinic
loop_
_symmetry_equiv_pos_as_xyz
'x, y, z'
_cell_length_a     67.001975
_cell_length_b     66.974453
_cell_length_c     35.730531
_cell_angle_alpha  90.009298
_cell_angle_beta   90.009583
_cell_angle_gamma 90.011303
loop_
_atom_site_label
_atom_site_type_symbol
_atom_site_fract_x
_atom_site_fract_y
_atom_site_fract_z
_atom_type_partial_charge
Co0 Co 0.10034 0.06163 0.30625 0.0
Co1 Co 0.09205 0.10403 0.27247 0.0
C2 C 0.0727 0.06741 0.24072 0.0
O3 O 0.08207 0.05692 0.26456 0.0
O4 O 0.07464 0.08639 0.23979 0.0
C5 C 0.11665 0.0203 0.31484 0.0
O6 O 0.12561 0.02088 0.2822 0.0
C7 C 0.09095 0.14098 0.22445 0.0
C8 C 0.08885 0.16362 0.26932 0.0
C9 C 0.08952 0.16148 0.23085 0.0
N10 N 0.09111 0.13159 0.25784 0.0
N11 N 0.0899 0.1453 0.28435 0.0
C12 C 0.09146 0.13044 0.1876 0.0
H13 H 0.08631 0.11479 0.19073 0.0
H14 H 0.10705 0.13019 0.17714 0.0
H15 H 0.08206 0.13838 0.16679 0.0
C16 C 0.14191 0.07555 0.3007 0.0
N17 N 0.12248 0.07723 0.29174 0.0
N18 N 0.11922 0.09494 0.27682 0.0
C19 C 0.1367 0.105 0.27566 0.0
C20 C 0.15161 0.093 0.29054 0.0
C21 C 0.15038 0.05901 0.32406 0.0
H22 H 0.13954 0.05461 0.34602 0.0
H23 H 0.15327 0.04591 0.30591 0.0
H24 H 0.16468 0.06336 0.33744 0.0
O25 O 0.08654 0.07508 0.34771 0.0
O26 O 0.0807 0.10494 0.32371 0.0
H27 H 0.13085 0.13571 0.28733 0.0
H28 H 0.15451 0.13126 0.26454 0.0
C29 C 0.13862 0.12661 0.26587 0.0
H30 H 0.13144 0.12942 0.23843 0.0
H31 H 0.08984 0.14219 0.31294 0.0
O32 O 0.10706 0.03528 0.32708 0.0
C33 C 0.07971 0.09268 0.35077 0.0
Co34 Co 0.05879 0.8928 0.69706 0.0
Co35 Co 0.1016 0.90348 0.72656 0.0
C36 C 0.06462 0.91993 0.76293 0.0
O37 O 0.05395 0.90999 0.7402 0.0
O38 O 0.08368 0.91941 0.7614 0.0
C39 C 0.0185 0.89552 0.67677 0.0
O40 O 0.02048 0.91269 0.69417 0.0
C41 C 0.1392 0.90637 0.77194 0.0
C42 C 0.16095 0.90934 0.72577 0.0
C43 C 0.15953 0.90856 0.76439 0.0
N44 N 0.12929 0.90585 0.73912 0.0
N45 N 0.14246 0.90763 0.7118 0.0
C46 C 0.12917 0.90552 0.80928 0.0
H47 H 0.11324 0.90979 0.80679 0.0
H48 H 0.12988 0.88999 0.82005 0.0
H49 H 0.13681 0.91551 0.8295 0.0
C50 C 0.07485 0.85245 0.7 0.0
N51 N 0.07606 0.87179 0.70954 0.0
N52 N 0.09421 0.87583 0.72145 0.0
C53 C 0.10525 0.85896 0.71928 0.0
C54 C 0.09336 0.84364 0.70525 0.0
C55 C 0.05703 0.84333 0.68134 0.0
H56 H 0.04336 0.84718 0.6973 0.0
H57 H 0.05838 0.82684 0.67956 0.0
H58 H 0.05549 0.84958 0.65272 0.0
O59 O 0.07029 0.90822 0.65518 0.0
O60 O 0.10041 0.9157 0.67627 0.0
H61 H 0.13453 0.86708 0.7013 0.0
H62 H 0.13316 0.84282 0.72317 0.0
C63 C 0.12741 0.85835 0.72405 0.0
H64 H 0.13152 0.86527 0.75117 0.0
H65 H 0.13883 0.90761 0.68341 0.0
O66 O 0.03302 0.88332 0.67705 0.0
C67 C 0.08727 0.91632 0.65068 0.0
Co68 Co 0.88536 0.94159 0.28919 0.0
Co69 Co 0.90117 0.89993 0.26203 0.0
C70 C 0.91521 0.93824 0.22677 0.0
O71 O 0.90365 0.94803 0.2482 0.0
O72 O 0.91614 0.91917 0.22822 0.0
C73 C 0.88337 0.98177 0.31029 0.0
O74 O 0.90066 0.98198 0.29293 0.0
C75 C 0.90511 0.86189 0.2186 0.0
C76 C 0.91178 0.84123 0.26522 0.0
C77 C 0.90822 0.84185 0.22713 0.0
N78 N 0.90655 0.87252 0.2505 0.0
N79 N 0.91084 0.86004 0.27802 0.0
C80 C 0.89893 0.87053 0.18182 0.0
H81 H 0.89213 0.8855 0.18585 0.0
H82 H 0.88826 0.86042 0.16749 0.0
H83 H 0.9123 0.87213 0.16373 0.0
C84 C 0.84684 0.92188 0.28095 0.0
N85 N 0.8666 0.92233 0.2747 0.0
N86 N 0.8728 0.90448 0.26451 0.0
C87 C 0.85696 0.89195 0.26493 0.0
C88 C 0.84001 0.90263 0.27507 0.0
C89 C 0.83544 0.93872 0.2983 0.0
H90 H 0.84075 0.94103 0.3274 0.0
H91 H 0.83826 0.95265 0.28237 0.0
H92 H 0.81917 0.93562 0.29874 0.0
O93 O 0.90054 0.93184 0.33283 0.0
O94 O 0.91219 0.90285 0.31295 0.0
H95 H 0.86918 0.86393 0.28223 0.0
H96 H 0.84372 0.86245 0.26558 0.0
C97 C 0.85842 0.86975 0.26133 0.0
H98 H 0.86399 0.86593 0.23303 0.0
H99 H 0.91237 0.86424 0.30599 0.0
O100 O 0.87275 0.96609 0.30863 0.0
C101 C 0.91059 0.91604 0.33829 0.0
Co102 Co 0.94074 0.10462 0.69944 0.0
Co103 Co 0.89885 0.09251 0.7314 0.0
C104 C 0.93629 0.07682 0.76549 0.0
O105 O 0.94627 0.08681 0.74172 0.0
O106 O 0.91723 0.07739 0.76589 0.0
C107 C 0.98059 0.12555 0.68774 0.0
O108 O 0.97888 0.13757 0.71659 0.0
C109 C 0.86118 0.08931 0.77654 0.0
C110 C 0.84002 0.08252 0.73078 0.0
C111 C 0.84115 0.08537 0.76903 0.0
N112 N 0.87129 0.08886 0.74396 0.0
N113 N 0.85848 0.08478 0.71688 0.0
C114 C 0.87068 0.09269 0.81388 0.0
H115 H 0.88685 0.08921 0.81268 0.0
H116 H 0.86897 0.10861 0.82182 0.0
H117 H 0.86328 0.08343 0.83558 0.0
C118 C 0.92276 0.14474 0.70278 0.0
N119 N 0.9228 0.12528 0.71217 0.0
N120 N 0.90524 0.12043 0.72614 0.0
C121 C 0.89356 0.13688 0.72634 0.0
C122 C 0.90434 0.15284 0.71183 0.0
C123 C 0.93825 0.15428 0.67844 0.0
H124 H 0.94537 0.14302 0.66013 0.0
H125 H 0.94974 0.1614 0.69635 0.0
H126 H 0.93159 0.16601 0.66055 0.0
O127 O 0.92937 0.08933 0.65767 0.0
O128 O 0.90041 0.07989 0.6814 0.0
H129 H 0.86349 0.12788 0.71579 0.0
H130 H 0.86574 0.15227 0.73714 0.0
C131 C 0.87191 0.1369 0.73649 0.0
H132 H 0.86997 0.13 0.7644 0.0
H133 H 0.86228 0.08361 0.68866 0.0
O134 O 0.9668 0.11329 0.67959 0.0
C135 C 0.91292 0.08007 0.65472 0.0
Co136 Co 0.10632 0.44281 0.94506 0.0
Co137 Co 0.09966 0.39973 0.97657 0.0
C138 C 0.08057 0.43462 0.01304 0.0
O139 O 0.08907 0.44573 0.98901 0.0
O140 O 0.08282 0.41568 0.01256 0.0
C141 C 0.12311 0.48423 0.93642 0.0
O142 O 0.13611 0.4819 0.96357 0.0
C143 C 0.09929 0.36156 0.0205 0.0
C144 C 0.10289 0.34019 0.97381 0.0
C145 C 0.10097 0.34126 0.01232 0.0
N146 N 0.10025 0.37184 0.98814 0.0
N147 N 0.10228 0.35891 0.96047 0.0
C148 C 0.09825 0.37122 0.05817 0.0
H149 H 0.10391 0.38678 0.05667 0.0
H150 H 0.10702 0.36257 0.07895 0.0
H151 H 0.08246 0.37168 0.06748 0.0
C152 C 0.14814 0.42926 0.94428 0.0
N153 N 0.12906 0.42735 0.95545 0.0
N154 N 0.12653 0.40976 0.97124 0.0
C155 C 0.14433 0.40029 0.97217 0.0
C156 C 0.15861 0.41227 0.95491 0.0
C157 C 0.15506 0.44482 0.91705 0.0
H158 H 0.14225 0.45117 0.90149 0.0
H159 H 0.16279 0.45693 0.93248 0.0
H160 H 0.16574 0.4384 0.89657 0.0
O161 O 0.09195 0.4302 0.90389 0.0
O162 O 0.08651 0.39991 0.92642 0.0
H163 H 0.14244 0.36859 0.96662 0.0
H164 H 0.16338 0.37708 0.9941 0.0
C165 C 0.1474 0.37976 0.98756 0.0
H166 H 0.13845 0.37781 0.01337 0.0
H167 H 0.10354 0.3629 0.93234 0.0
O168 O 0.11162 0.47004 0.92691 0.0
C169 C 0.08492 0.41272 0.90029 0.0
Co170 Co 0.4395 0.88914 0.04305 0.0
Co171 Co 0.39725 0.90488 0.01906 0.0
C172 C 0.43509 0.92085 0.98454 0.0
O173 O 0.44532 0.90866 0.00388 0.0
O174 O 0.41606 0.92143 0.98713 0.0
C175 C 0.4809 0.88556 0.05779 0.0
O176 O 0.48141 0.90282 0.04034 0.0
C177 C 0.35955 0.90889 0.97535 0.0
C178 C 0.33863 0.91608 0.02126 0.0
C179 C 0.33948 0.91224 0.98325 0.0
N180 N 0.36993 0.91043 0.0075 0.0
N181 N 0.35732 0.91503 0.03461 0.0
C182 C 0.36851 0.90242 0.939 0.0
H183 H 0.38333 0.89544 0.94372 0.0
H184 H 0.35843 0.89179 0.92446 0.0
H185 H 0.37051 0.91568 0.92078 0.0
C186 C 0.41998 0.8506 0.03301 0.0
N187 N 0.42028 0.87044 0.02736 0.0
N188 N 0.40229 0.87665 0.01814 0.0
C189 C 0.38982 0.86079 0.01864 0.0
C190 C 0.40064 0.84376 0.02781 0.0
C191 C 0.43687 0.83936 0.05061 0.0
H192 H 0.43948 0.84522 0.07926 0.0
H193 H 0.45067 0.84181 0.03408 0.0
H194 H 0.43381 0.82312 0.05231 0.0
O195 O 0.42998 0.90315 0.08846 0.0
O196 O 0.3999 0.91355 0.0715 0.0
H197 H 0.36212 0.87294 0.0379 0.0
H198 H 0.36029 0.84759 0.02068 0.0
C199 C 0.36757 0.8623 0.01643 0.0
H200 H 0.36327 0.86802 0.9885 0.0
H201 H 0.36135 0.91676 0.06262 0.0
O202 O 0.46448 0.87611 0.05943 0.0
C203 C 0.41362 0.91192 0.09583 0.0
Co204 Co 0.89511 0.55769 0.95269 0.0
Co205 Co 0.90759 0.60008 0.98265 0.0
C206 C 0.92398 0.56244 0.01646 0.0
O207 O 0.91355 0.55221 0.99375 0.0
O208 O 0.92359 0.58154 0.01613 0.0
C209 C 0.89213 0.51547 0.93896 0.0
O210 O 0.90625 0.51407 0.96434 0.0
C211 C 0.91059 0.63788 0.02772 0.0
C212 C 0.91629 0.65914 0.98162 0.0
C213 C 0.91382 0.65808 0.02001 0.0
N214 N 0.91107 0.62772 0.99516 0.0
N215 N 0.91452 0.64059 0.9679 0.0
C216 C 0.90766 0.62821 0.06501 0.0
H217 H 0.91161 0.61214 0.06359 0.0
H218 H 0.89171 0.6294 0.07308 0.0
H219 H 0.91683 0.63578 0.08666 0.0
C220 C 0.85538 0.57463 0.95987 0.0
N221 N 0.87494 0.57535 0.96785 0.0
N222 N 0.87971 0.59343 0.97928 0.0
C223 C 0.86314 0.60494 0.97808 0.0
C224 C 0.84721 0.59342 0.96539 0.0
C225 C 0.8454 0.55697 0.94226 0.0
H226 H 0.85077 0.5553 0.91303 0.0
H227 H 0.84946 0.54324 0.95786 0.0
H228 H 0.82892 0.55864 0.94218 0.0
O229 O 0.90947 0.5693 0.90971 0.0
O230 O 0.91883 0.5987 0.93168 0.0
H231 H 0.87317 0.63368 0.96014 0.0
H232 H 0.84822 0.63366 0.9793 0.0
C233 C 0.86339 0.62718 0.98202 0.0
H234 H 0.86961 0.63123 0.00974 0.0
H235 H 0.91546 0.63679 0.93966 0.0
O236 O 0.88436 0.53242 0.93233 0.0
C237 C 0.91821 0.58597 0.90538 0.0
Co238 Co 0.55967 0.10974 0.05361 0.0
Co239 Co 0.60135 0.10053 0.01797 0.0
C240 C 0.5636 0.0814 0.98913 0.0
O241 O 0.55335 0.09138 0.01258 0.0
O242 O 0.58265 0.08294 0.98761 0.0
C243 C 0.51731 0.11442 0.07279 0.0
O244 O 0.51275 0.10295 0.04422 0.0
C245 C 0.63801 0.09781 0.96941 0.0
C246 C 0.66066 0.10266 0.01355 0.0
C247 C 0.65846 0.0998 0.97547 0.0
N248 N 0.62866 0.09963 0.00263 0.0
N249 N 0.64238 0.10229 0.02875 0.0
C250 C 0.62746 0.0958 0.93276 0.0
H251 H 0.61182 0.10112 0.93523 0.0
H252 H 0.63544 0.1043 0.91067 0.0
H253 H 0.62723 0.07982 0.92454 0.0
C254 C 0.5737 0.15083 0.04516 0.0
N255 N 0.57541 0.13126 0.03737 0.0
N256 N 0.59273 0.12778 0.02135 0.0
C257 C 0.60259 0.14529 0.01809 0.0
C258 C 0.59093 0.16047 0.03329 0.0
C259 C 0.55752 0.15913 0.06958 0.0
H260 H 0.55699 0.15057 0.09614 0.0
H261 H 0.54293 0.15724 0.05533 0.0
H262 H 0.55975 0.17511 0.07632 0.0
O263 O 0.57335 0.09526 0.09398 0.0
O264 O 0.60315 0.08976 0.06943 0.0
H265 H 0.63408 0.14223 0.02529 0.0
H266 H 0.62684 0.16314 0.99656 0.0
C267 C 0.62342 0.14736 0.00358 0.0
H268 H 0.62534 0.13802 0.97825 0.0
H269 H 0.63921 0.10445 0.05705 0.0
O270 O 0.53536 0.11931 0.07842 0.0
C271 C 0.591 0.08854 0.09657 0.0
Co272 Co 0.61351 0.5603 0.79498 0.0
Co273 Co 0.60185 0.60359 0.7695 0.0
C274 C 0.5839 0.56731 0.73333 0.0
O275 O 0.59483 0.55625 0.7537 0.0
O276 O 0.58455 0.58633 0.73608 0.0
C277 C 0.63358 0.51907 0.80687 0.0
O278 O 0.64714 0.51962 0.7804 0.0
C279 C 0.59728 0.64228 0.72776 0.0
C280 C 0.59611 0.66289 0.77603 0.0
C281 C 0.59561 0.66244 0.73732 0.0
N282 N 0.59886 0.63156 0.75954 0.0
N283 N 0.59808 0.64405 0.78814 0.0
C284 C 0.59681 0.63318 0.68956 0.0
H285 H 0.59227 0.61728 0.69116 0.0
H286 H 0.61199 0.63384 0.67723 0.0
H287 H 0.58641 0.64151 0.6711 0.0
C288 C 0.65396 0.57781 0.7906 0.0
N289 N 0.63433 0.57821 0.78246 0.0
N290 N 0.62953 0.59616 0.77021 0.0
C291 C 0.64613 0.60759 0.76978 0.0
C292 C 0.66213 0.59633 0.78251 0.0
C293 C 0.66379 0.56162 0.81289 0.0
H294 H 0.65286 0.55446 0.83189 0.0
H295 H 0.66986 0.55027 0.79341 0.0
H296 H 0.67637 0.56751 0.82977 0.0
O297 O 0.59894 0.57053 0.83875 0.0
O298 O 0.59189 0.60148 0.82137 0.0
H299 H 0.6389 0.63745 0.78574 0.0
H300 H 0.66179 0.63526 0.75946 0.0
C301 C 0.64631 0.62955 0.76228 0.0
H302 H 0.63799 0.63273 0.73615 0.0
H303 H 0.59906 0.63973 0.81613 0.0
O304 O 0.62187 0.53369 0.81228 0.0
C305 C 0.59154 0.58758 0.84548 0.0
Co306 Co 0.56156 0.39901 0.19221 0.0
Co307 Co 0.60396 0.40836 0.22579 0.0
C308 C 0.56688 0.42669 0.25792 0.0
O309 O 0.5564 0.41705 0.23436 0.0
O310 O 0.58591 0.42522 0.25844 0.0
C311 C 0.51941 0.39823 0.17729 0.0
O312 O 0.51869 0.41282 0.20182 0.0
C313 C 0.6411 0.41116 0.27294 0.0
C314 C 0.66351 0.4108 0.22754 0.0
C315 C 0.6616 0.41186 0.26604 0.0
N316 N 0.63154 0.4097 0.23984 0.0
N317 N 0.64511 0.40949 0.213 0.0
C318 C 0.63069 0.41254 0.30985 0.0
H319 H 0.61517 0.41789 0.30608 0.0
H320 H 0.63011 0.39747 0.32271 0.0
H321 H 0.63889 0.42268 0.32902 0.0
C322 C 0.57618 0.35805 0.19856 0.0
N323 N 0.57787 0.37756 0.20679 0.0
N324 N 0.59555 0.38109 0.22143 0.0
C325 C 0.60571 0.3637 0.223 0.0
C326 C 0.59381 0.34852 0.20847 0.0
C327 C 0.55943 0.34975 0.1755 0.0
H328 H 0.55784 0.35873 0.14956 0.0
H329 H 0.54528 0.35108 0.19144 0.0
H330 H 0.5618 0.33393 0.16765 0.0
O331 O 0.57442 0.41377 0.15096 0.0
O332 O 0.60424 0.42004 0.17495 0.0
H333 H 0.63678 0.36835 0.21289 0.0
H334 H 0.63127 0.34607 0.23942 0.0
C335 C 0.62704 0.36191 0.23489 0.0
H336 H 0.62943 0.37039 0.26115 0.0
H337 H 0.6418 0.40837 0.18455 0.0
O338 O 0.53596 0.38959 0.17104 0.0
C339 C 0.59184 0.42112 0.14812 0.0
Co340 Co 0.39014 0.4436 0.78816 0.0
Co341 Co 0.40648 0.40207 0.76119 0.0
C342 C 0.42186 0.44101 0.72958 0.0
O343 O 0.40968 0.45068 0.74988 0.0
O344 O 0.42254 0.42195 0.73062 0.0
C345 C 0.38624 0.48484 0.80534 0.0
O346 O 0.40186 0.48632 0.78332 0.0
C347 C 0.40813 0.36496 0.71481 0.0
C348 C 0.42564 0.3455 0.75247 0.0
C349 C 0.41586 0.34581 0.71842 0.0
N350 N 0.41297 0.37543 0.7457 0.0
N351 N 0.42358 0.36369 0.76784 0.0
C352 C 0.3976 0.37352 0.68159 0.0
H353 H 0.39155 0.38855 0.68814 0.0
H354 H 0.38542 0.36344 0.67237 0.0
H355 H 0.40833 0.37478 0.65805 0.0
C356 C 0.35189 0.42457 0.77563 0.0
N357 N 0.37173 0.42473 0.77049 0.0
N358 N 0.37798 0.40674 0.76127 0.0
C359 C 0.36205 0.3943 0.7615 0.0
C360 C 0.34496 0.40527 0.77011 0.0
C361 C 0.34085 0.44154 0.79351 0.0
H362 H 0.34644 0.44362 0.82249 0.0
H363 H 0.34387 0.45548 0.77772 0.0
H364 H 0.32454 0.43901 0.79466 0.0
O365 O 0.4036 0.43259 0.83256 0.0
O366 O 0.41564 0.40347 0.81389 0.0
H367 H 0.37667 0.36662 0.77452 0.0
H368 H 0.34986 0.36454 0.76929 0.0
C369 C 0.36349 0.37203 0.75875 0.0
H370 H 0.36524 0.36779 0.72902 0.0
H371 H 0.42923 0.368 0.79382 0.0
O372 O 0.37744 0.4681 0.80814 0.0
C373 C 0.41306 0.41654 0.83923 0.0
Co374 Co 0.44058 0.61012 0.19703 0.0
Co375 Co 0.39851 0.59709 0.22655 0.0
C376 C 0.43658 0.58213 0.2618 0.0
O377 O 0.44682 0.59261 0.23915 0.0
O378 O 0.41749 0.58206 0.26073 0.0
C379 C 0.48273 0.61534 0.18192 0.0
O380 O 0.48586 0.60336 0.21044 0.0
C381 C 0.36142 0.59572 0.27288 0.0
C382 C 0.33947 0.58853 0.22866 0.0
C383 C 0.34111 0.59289 0.26637 0.0
N384 N 0.37118 0.5933 0.24025 0.0
N385 N 0.35794 0.58879 0.21415 0.0
C386 C 0.37124 0.60235 0.30833 0.0
H387 H 0.38596 0.60924 0.30224 0.0
H388 H 0.36156 0.6131 0.32349 0.0
H389 H 0.37365 0.58917 0.32659 0.0
C390 C 0.42296 0.6497 0.20253 0.0
N391 N 0.42248 0.63015 0.21072 0.0
N392 N 0.40443 0.62514 0.22185 0.0
C393 C 0.39269 0.64156 0.2203 0.0
C394 C 0.40408 0.65764 0.20784 0.0
C395 C 0.44053 0.65993 0.18517 0.0
H396 H 0.4423 0.65466 0.1559 0.0
H397 H 0.45427 0.65599 0.20083 0.0
H398 H 0.43866 0.6764 0.18521 0.0
O399 O 0.42941 0.59454 0.1552 0.0
O400 O 0.39994 0.5849 0.17625 0.0
H401 H 0.36417 0.63004 0.20432 0.0
H402 H 0.36373 0.65595 0.21851 0.0
C403 C 0.37046 0.64112 0.22413 0.0
H404 H 0.3665 0.63644 0.25293 0.0
H405 H 0.36141 0.58647 0.18603 0.0
O406 O 0.46509 0.62115 0.17481 0.0
C407 C 0.41303 0.58533 0.15058 0.0
Co408 Co 0.60613 0.93913 0.43953 0.0
Co409 Co 0.59272 0.89854 0.47482 0.0
C410 C 0.57762 0.93811 0.504 0.0
O411 O 0.588 0.94738 0.47974 0.0
O412 O 0.57795 0.91903 0.50614 0.0
C413 C 0.61811 0.98073 0.4249 0.0
O414 O 0.61086 0.98575 0.45774 0.0
C415 C 0.59225 0.86293 0.52533 0.0
C416 C 0.58245 0.84001 0.48474 0.0
C417 C 0.58873 0.84256 0.52128 0.0
N418 N 0.58842 0.87188 0.49233 0.0
N419 N 0.5823 0.85807 0.4685 0.0
C420 C 0.60087 0.87343 0.55851 0.0
H421 H 0.60719 0.8881 0.55013 0.0
H422 H 0.61257 0.86408 0.57182 0.0
H423 H 0.58889 0.87601 0.57937 0.0
C424 C 0.64552 0.92146 0.44817 0.0
N425 N 0.62599 0.92153 0.45666 0.0
N426 N 0.62077 0.90386 0.46952 0.0
C427 C 0.63694 0.89178 0.46841 0.0
C428 C 0.65316 0.90259 0.45493 0.0
C429 C 0.65581 0.93805 0.42778 0.0
H430 H 0.64994 0.93893 0.39879 0.0
H431 H 0.65267 0.95243 0.442 0.0
H432 H 0.6722 0.93568 0.42672 0.0
O433 O 0.59109 0.92628 0.39855 0.0
O434 O 0.5809 0.89805 0.42423 0.0
H435 H 0.62399 0.86336 0.45561 0.0
H436 H 0.65046 0.86242 0.46563 0.0
C437 C 0.6361 0.8696 0.47324 0.0
H438 H 0.63272 0.8661 0.50286 0.0
H439 H 0.5787 0.8608 0.44058 0.0
O440 O 0.61785 0.96257 0.41474 0.0
C441 C 0.58176 0.90981 0.39641 0.0
Co442 Co 0.93918 0.38366 0.55154 0.0
Co443 Co 0.8977 0.4005 0.52546 0.0
C444 C 0.936 0.41567 0.49266 0.0
O445 O 0.9456 0.40366 0.51349 0.0
O446 O 0.91693 0.4164 0.49336 0.0
C447 C 0.98099 0.37817 0.56287 0.0
O448 O 0.98248 0.39268 0.53832 0.0
C449 C 0.86033 0.40533 0.48085 0.0
C450 C 0.83918 0.41239 0.52645 0.0
C451 C 0.84025 0.40899 0.4883 0.0
N452 N 0.87049 0.40635 0.51333 0.0
N453 N 0.85774 0.41083 0.54027 0.0
C454 C 0.86949 0.39916 0.44449 0.0
H455 H 0.88407 0.39171 0.44938 0.0
H456 H 0.85929 0.38901 0.42904 0.0
H457 H 0.87206 0.41262 0.42706 0.0
C458 C 0.91986 0.34555 0.53697 0.0
N459 N 0.92018 0.36551 0.53367 0.0
N460 N 0.90229 0.37206 0.52462 0.0
C461 C 0.8898 0.35621 0.52308 0.0
C462 C 0.90058 0.3389 0.53051 0.0
C463 C 0.93679 0.3337 0.55296 0.0
H464 H 0.95072 0.33734 0.53764 0.0
H465 H 0.93401 0.3174 0.55128 0.0
H466 H 0.93894 0.33795 0.58272 0.0
O467 O 0.92878 0.39672 0.59704 0.0
O468 O 0.90032 0.40993 0.57769 0.0
H469 H 0.86024 0.34307 0.52353 0.0
H470 H 0.86371 0.36365 0.49178 0.0
C471 C 0.86759 0.35779 0.51983 0.0
H472 H 0.86187 0.36838 0.54114 0.0
H473 H 0.86158 0.4122 0.56845 0.0
O474 O 0.96393 0.37064 0.56941 0.0
C475 C 0.91313 0.40689 0.60327 0.0
Co476 Co 0.39412 0.05715 0.46099 0.0
Co477 Co 0.40037 0.10077 0.49079 0.0
C478 C 0.41979 0.06471 0.52711 0.0
O479 O 0.41068 0.05296 0.50505 0.0
O480 O 0.41785 0.08367 0.52464 0.0
C481 C 0.38174 0.01398 0.44094 0.0
O482 O 0.37226 0.0092 0.47182 0.0
C483 C 0.3983 0.13755 0.53871 0.0
C484 C 0.40718 0.16009 0.49667 0.0
C485 C 0.4022 0.15776 0.5339 0.0
N486 N 0.40094 0.12832 0.50556 0.0
N487 N 0.40605 0.142 0.48063 0.0
C488 C 0.39322 0.12713 0.5744 0.0
H489 H 0.39235 0.11074 0.57001 0.0
H490 H 0.37866 0.13271 0.58485 0.0
H491 H 0.40465 0.13064 0.59592 0.0
C492 C 0.35228 0.0701 0.46055 0.0
N493 N 0.37125 0.07262 0.47176 0.0
N494 N 0.37361 0.09098 0.48433 0.0
C495 C 0.35607 0.10078 0.48099 0.0
C496 C 0.34199 0.08788 0.46558 0.0
C497 C 0.34488 0.05172 0.4412 0.0
H498 H 0.35325 0.04958 0.4147 0.0
H499 H 0.3477 0.03862 0.45933 0.0
H500 H 0.32865 0.05252 0.4352 0.0
O501 O 0.40971 0.07038 0.42144 0.0
O502 O 0.41255 0.10163 0.44066 0.0
H503 H 0.36427 0.13061 0.46631 0.0
H504 H 0.33845 0.12795 0.4802 0.0
C505 C 0.35393 0.12287 0.48575 0.0
H506 H 0.35817 0.12703 0.51472 0.0
H507 H 0.40915 0.139 0.45259 0.0
O508 O 0.38923 0.03124 0.4367 0.0
C509 C 0.41546 0.0882 0.41625 0.0
Co510 Co 0.06033 0.60532 0.54962 0.0
Co511 Co 0.10337 0.59381 0.5223 0.0
C512 C 0.06691 0.5741 0.49035 0.0
O513 O 0.05603 0.58509 0.51093 0.0
O514 O 0.08594 0.57539 0.49124 0.0
C515 C 0.01934 0.60383 0.56678 0.0
O516 O 0.02142 0.58585 0.55261 0.0
C517 C 0.14109 0.59023 0.47766 0.0
C518 C 0.16284 0.58906 0.52414 0.0
C519 C 0.16147 0.58885 0.48549 0.0
N520 N 0.13112 0.5913 0.51034 0.0
N521 N 0.14427 0.59054 0.53786 0.0
C522 C 0.13111 0.59003 0.44025 0.0
H523 H 0.11536 0.58514 0.44299 0.0
H524 H 0.13118 0.60537 0.42854 0.0
H525 H 0.13918 0.58002 0.42066 0.0
C526 C 0.07549 0.6456 0.53693 0.0
N527 N 0.07714 0.62576 0.53221 0.0
N528 N 0.09537 0.62133 0.52125 0.0
C529 C 0.10604 0.63842 0.51935 0.0
C530 C 0.09378 0.65436 0.52912 0.0
C531 C 0.05793 0.65529 0.55543 0.0
H532 H 0.05627 0.64924 0.58418 0.0
H533 H 0.04418 0.65155 0.53963 0.0
H534 H 0.05953 0.67175 0.55696 0.0
O535 O 0.07211 0.59303 0.59497 0.0
O536 O 0.10229 0.58489 0.57489 0.0
H537 H 0.13573 0.63177 0.53721 0.0
H538 H 0.13349 0.65493 0.51154 0.0
C539 C 0.12812 0.63928 0.51351 0.0
H540 H 0.13204 0.63127 0.4874 0.0
H541 H 0.14061 0.59126 0.56619 0.0
O542 O 0.03415 0.61568 0.56615 0.0
C543 C 0.0893 0.58561 0.60075 0.0
H544 H 0.07983 0.33517 0.07764 0.0
H545 H 0.07824 0.30446 0.11461 0.0
H546 H 0.11988 0.27632 0.03915 0.0
H547 H 0.12161 0.30693 0.0023 0.0
H548 H 0.08866 0.2526 0.05162 0.0
H549 H 0.13412 0.2908 0.12676 0.0
H550 H 0.14552 0.32003 0.16288 0.0
H551 H 0.09603 0.3133 0.23815 0.0
H552 H 0.08416 0.28418 0.20215 0.0
H553 H 0.10989 0.16631 0.16432 0.0
H554 H 0.11139 0.19656 0.12588 0.0
H555 H 0.07 0.22569 0.20053 0.0
H556 H 0.06844 0.19561 0.23887 0.0
H557 H 0.10149 0.24879 0.18812 0.0
H558 H 0.05596 0.21062 0.11266 0.0
H559 H 0.04467 0.18137 0.07648 0.0
H560 H 0.09445 0.18798 0.00184 0.0
H561 H 0.10621 0.21712 0.0379 0.0
C562 C 0.08906 0.32266 0.06951 0.0
C563 C 0.10109 0.32361 0.03735 0.0
C564 C 0.08802 0.30503 0.09051 0.0
C565 C 0.09903 0.2881 0.07975 0.0
C566 C 0.11121 0.28915 0.04793 0.0
C567 C 0.11222 0.30669 0.02697 0.0
C568 C 0.09742 0.26905 0.10082 0.0
C569 C 0.09172 0.25171 0.0814 0.0
C570 C 0.10101 0.26795 0.13977 0.0
C571 C 0.10814 0.28543 0.16152 0.0
C572 C 0.12557 0.29565 0.15083 0.0
C573 C 0.13214 0.31218 0.17131 0.0
C574 C 0.12147 0.31855 0.20273 0.0
C575 C 0.10425 0.30837 0.21378 0.0
C576 C 0.09761 0.29184 0.19336 0.0
C577 C 0.10067 0.17894 0.17191 0.0
C578 C 0.08885 0.17848 0.20438 0.0
C579 C 0.10165 0.19629 0.15007 0.0
C580 C 0.09075 0.2134 0.16029 0.0
C581 C 0.0786 0.21273 0.19218 0.0
C582 C 0.07768 0.1955 0.21398 0.0
C583 C 0.09264 0.23235 0.13897 0.0
C584 C 0.09843 0.24967 0.15835 0.0
C585 C 0.08914 0.23342 0.09998 0.0
C586 C 0.08208 0.21593 0.07822 0.0
C587 C 0.0646 0.20574 0.08872 0.0
C588 C 0.05809 0.18919 0.0682 0.0
C589 C 0.06886 0.18279 0.03694 0.0
C590 C 0.08614 0.19294 0.02609 0.0
C591 C 0.09272 0.20948 0.04654 0.0
H592 H 0.0638 0.16998 0.02108 0.0
H593 H 0.12658 0.33135 0.21855 0.0
H594 H 0.19404 0.92844 0.75159 0.0
H595 H 0.22438 0.92845 0.78922 0.0
H596 H 0.19543 0.89165 0.87198 0.0
H597 H 0.16509 0.89101 0.8339 0.0
H598 H 0.21828 0.92417 0.90196 0.0
H599 H 0.22559 0.8698 0.81512 0.0
H600 H 0.22552 0.85412 0.75269 0.0
H601 H 0.27201 0.89387 0.71675 0.0
H602 H 0.27215 0.91 0.77884 0.0
H603 H 0.3039 0.896 0.00175 0.0
H604 H 0.27342 0.89494 0.96454 0.0
H605 H 0.30405 0.9238 0.87311 0.0
H606 H 0.33485 0.92455 0.91025 0.0
H607 H 0.28001 0.89527 0.84744 0.0
H608 H 0.27298 0.95008 0.93212 0.0
H609 H 0.27307 0.96708 0.99334 0.0
H610 H 0.22627 0.92844 0.03198 0.0
H611 H 0.22608 0.91101 0.97114 0.0
C612 C 0.19401 0.92042 0.77791 0.0
C613 C 0.17696 0.90993 0.78987 0.0
C614 C 0.2114 0.92044 0.79934 0.0
C615 C 0.21217 0.90994 0.83319 0.0
C616 C 0.19506 0.89992 0.84594 0.0
C617 C 0.17763 0.89976 0.82429 0.0
C618 C 0.23108 0.90906 0.85458 0.0
C619 C 0.23172 0.91759 0.89036 0.0
C620 C 0.24871 0.901 0.83881 0.0
C621 C 0.24875 0.89124 0.80153 0.0
C622 C 0.23569 0.87531 0.79382 0.0
C623 C 0.23565 0.86632 0.7585 0.0
C624 C 0.24872 0.87303 0.73074 0.0
C625 C 0.26188 0.88871 0.73827 0.0
C626 C 0.26196 0.89777 0.77353 0.0
C627 C 0.30418 0.90202 0.97361 0.0
C628 C 0.32176 0.91033 0.95885 0.0
C629 C 0.28672 0.90147 0.95243 0.0
C630 C 0.28631 0.90966 0.91631 0.0
C631 C 0.30401 0.91744 0.90098 0.0
C632 C 0.32163 0.91777 0.92211 0.0
C633 C 0.26728 0.91037 0.89502 0.0
C634 C 0.2666 0.90184 0.85918 0.0
C635 C 0.24965 0.91861 0.9106 0.0
C636 C 0.24965 0.92912 0.94718 0.0
C637 C 0.26281 0.94511 0.95376 0.0
C638 C 0.26286 0.95484 0.98838 0.0
C639 C 0.24972 0.94881 0.01656 0.0
C640 C 0.23646 0.93307 0.01014 0.0
C641 C 0.23636 0.92328 0.97558 0.0
H642 H 0.24979 0.95636 0.04335 0.0
H643 H 0.24867 0.86605 0.70342 0.0
H644 H 0.92313 0.83592 0.15642 0.0
H645 H 0.92325 0.80456 0.121 0.0
H646 H 0.88941 0.77617 0.209 0.0
H647 H 0.88991 0.80718 0.24477 0.0
H648 H 0.91817 0.75309 0.191 0.0
H649 H 0.86901 0.789 0.12071 0.0
H650 H 0.85529 0.81715 0.08444 0.0
H651 H 0.90116 0.80963 0.00173 0.0
H652 H 0.91533 0.7816 0.03778 0.0
H653 H 0.89272 0.66494 0.0855 0.0
H654 H 0.89156 0.69598 0.12156 0.0
H655 H 0.93337 0.723 0.04508 0.0
H656 H 0.93505 0.69198 0.00955 0.0
H657 H 0.89988 0.74631 0.05713 0.0
H658 H 0.94874 0.71015 0.12959 0.0
H659 H 0.96126 0.68158 0.16623 0.0
H660 H 0.91368 0.6892 0.24545 0.0
H661 H 0.90071 0.71767 0.20897 0.0
C662 C 0.9154 0.82308 0.16774 0.0
C663 C 0.90642 0.82397 0.20317 0.0
C664 C 0.91548 0.80514 0.14755 0.0
C665 C 0.90621 0.78795 0.16218 0.0
C666 C 0.89676 0.78912 0.19715 0.0
C667 C 0.89698 0.80687 0.21751 0.0
C668 C 0.90711 0.76849 0.14216 0.0
C669 C 0.91385 0.75161 0.16187 0.0
C670 C 0.90186 0.7665 0.10395 0.0
C671 C 0.89334 0.78332 0.08214 0.0
C672 C 0.87626 0.79344 0.09493 0.0
C673 C 0.86839 0.80936 0.07439 0.0
C674 C 0.87738 0.81521 0.04085 0.0
C675 C 0.89423 0.80511 0.02773 0.0
C676 C 0.90218 0.78919 0.04819 0.0
C677 C 0.90217 0.6772 0.07701 0.0
C678 C 0.91425 0.6758 0.04493 0.0
C679 C 0.90131 0.69505 0.09743 0.0
C680 C 0.91239 0.71178 0.08595 0.0
C681 C 0.92463 0.7103 0.05432 0.0
C682 C 0.9256 0.69252 0.03413 0.0
C683 C 0.91086 0.73109 0.10605 0.0
C684 C 0.90405 0.74789 0.08632 0.0
C685 C 0.91581 0.73296 0.14432 0.0
C686 C 0.92364 0.7159 0.16634 0.0
C687 C 0.94085 0.70563 0.15465 0.0
C688 C 0.94805 0.68947 0.17542 0.0
C689 C 0.93824 0.68354 0.20809 0.0
C690 C 0.92124 0.69379 0.22011 0.0
C691 C 0.91398 0.70995 0.19942 0.0
H692 H 0.94383 0.67103 0.22414 0.0
H693 H 0.87127 0.82754 0.02499 0.0
H694 H 0.8326 0.11016 0.82822 0.0
H695 H 0.80127 0.11181 0.86327 0.0
H696 H 0.77849 0.06178 0.80024 0.0
H697 H 0.80966 0.06023 0.76497 0.0
H698 H 0.75205 0.09085 0.80127 0.0
H699 H 0.79215 0.05745 0.89345 0.0
H700 H 0.82132 0.05274 0.93461 0.0
H701 H 0.80839 0.10809 0.99021 0.0
H702 H 0.77928 0.11327 0.94904 0.0
H703 H 0.66489 0.07496 0.91537 0.0
H704 H 0.69571 0.07219 0.87862 0.0
H705 H 0.72093 0.12167 0.93992 0.0
H706 H 0.69046 0.12421 0.97688 0.0
H707 H 0.74601 0.09174 0.93954 0.0
H708 H 0.70636 0.12553 0.84677 0.0
H709 H 0.67728 0.13046 0.80548 0.0
H710 H 0.68937 0.0746 0.75101 0.0
H711 H 0.71838 0.06921 0.79233 0.0
C712 C 0.82117 0.09915 0.82265 0.0
C713 C 0.82368 0.08488 0.79425 0.0
C714 C 0.80319 0.10018 0.84251 0.0
C715 C 0.78754 0.08684 0.83452 0.0
C716 C 0.7903 0.07226 0.80683 0.0
C717 C 0.80815 0.07134 0.78683 0.0
C718 C 0.76793 0.08863 0.85359 0.0
C719 C 0.75069 0.09076 0.83153 0.0
C720 C 0.76619 0.08896 0.89302 0.0
C721 C 0.78364 0.08583 0.91793 0.0
C722 C 0.79561 0.06869 0.91427 0.0
C723 C 0.81212 0.06593 0.93763 0.0
C724 C 0.81673 0.08013 0.96495 0.0
C725 C 0.80481 0.09711 0.96902 0.0
C726 C 0.78829 0.09995 0.9457 0.0
C727 C 0.67682 0.08555 0.92022 0.0
C728 C 0.67529 0.09985 0.94881 0.0
C729 C 0.69446 0.08391 0.89936 0.0
C730 C 0.71067 0.09673 0.90654 0.0
C731 C 0.70872 0.11153 0.93406 0.0
C732 C 0.69127 0.11302 0.95504 0.0
C733 C 0.73013 0.09412 0.88724 0.0
C734 C 0.74735 0.0918 0.90928 0.0
C735 C 0.73184 0.09364 0.8478 0.0
C736 C 0.71442 0.09687 0.82291 0.0
C737 C 0.70272 0.11422 0.82619 0.0
C738 C 0.68627 0.11712 0.80274 0.0
C739 C 0.68144 0.10283 0.77571 0.0
C740 C 0.6931 0.08564 0.772 0.0
C741 C 0.70956 0.08267 0.79541 0.0
H742 H 0.6687 0.1051 0.75758 0.0
H743 H 0.82952 0.07796 0.983 0.0
H744 H 0.5772 0.6971 0.75535 0.0
H745 H 0.57701 0.72836 0.72073 0.0
H746 H 0.61015 0.70055 0.63129 0.0
H747 H 0.61139 0.66943 0.66685 0.0
H748 H 0.62546 0.73573 0.64673 0.0
H749 H 0.55931 0.71173 0.62353 0.0
H750 H 0.52608 0.69849 0.63974 0.0
H751 H 0.51368 0.75119 0.70411 0.0
H752 H 0.54696 0.76464 0.68869 0.0
H753 H 0.60519 0.80684 0.50492 0.0
H754 H 0.60777 0.77754 0.54516 0.0
H755 H 0.58236 0.81092 0.63674 0.0
H756 H 0.57971 0.84051 0.59625 0.0
H757 H 0.56344 0.77412 0.62273 0.0
H758 H 0.62975 0.79862 0.64169 0.0
H759 H 0.66263 0.81154 0.62239 0.0
H760 H 0.67428 0.75726 0.56229 0.0
H761 H 0.64133 0.74412 0.58077 0.0
C762 C 0.58434 0.69753 0.72816 0.0
C763 C 0.59395 0.68054 0.71361 0.0
C764 C 0.5841 0.71544 0.70826 0.0
C765 C 0.59326 0.71676 0.67307 0.0
C766 C 0.60281 0.69983 0.65827 0.0
C767 C 0.60321 0.68189 0.67839 0.0
C768 C 0.59344 0.73605 0.65252 0.0
C769 C 0.61186 0.74397 0.64104 0.0
C770 C 0.57576 0.74713 0.64599 0.0
C771 C 0.55571 0.7391 0.65524 0.0
C772 C 0.54956 0.72043 0.64138 0.0
C773 C 0.5307 0.7129 0.65038 0.0
C774 C 0.51779 0.72397 0.67302 0.0
C775 C 0.5237 0.74262 0.68662 0.0
C776 C 0.54255 0.75021 0.67772 0.0
C777 C 0.60041 0.80804 0.5338 0.0
C778 C 0.59237 0.82596 0.54759 0.0
C779 C 0.60197 0.79131 0.55678 0.0
C780 C 0.59537 0.7921 0.59396 0.0
C781 C 0.58764 0.81009 0.60813 0.0
C782 C 0.5863 0.82699 0.58515 0.0
C783 C 0.5954 0.77366 0.61686 0.0
C784 C 0.57702 0.7659 0.6287 0.0
C785 C 0.61308 0.76265 0.62334 0.0
C786 C 0.63298 0.77045 0.61239 0.0
C787 C 0.63925 0.7895 0.62412 0.0
C788 C 0.65792 0.79685 0.61337 0.0
C789 C 0.67052 0.78525 0.59107 0.0
C790 C 0.6645 0.76624 0.57955 0.0
C791 C 0.64583 0.75882 0.5902 0.0
H792 H 0.68496 0.79097 0.58276 0.0
H793 H 0.5032 0.71812 0.67996 0.0
H794 H 0.80375 0.39436 0.50541 0.0
H795 H 0.77363 0.39474 0.46707 0.0
H796 H 0.80645 0.42215 0.37684 0.0
H797 H 0.83678 0.42201 0.41545 0.0
H798 H 0.77038 0.44124 0.39289 0.0
H799 H 0.79338 0.37463 0.3692 0.0
H800 H 0.80543 0.34107 0.3863 0.0
H801 H 0.7509 0.32972 0.44573 0.0
H802 H 0.73864 0.36335 0.42944 0.0
H803 H 0.69695 0.43005 0.25274 0.0
H804 H 0.7269 0.42976 0.29124 0.0
H805 H 0.69562 0.39656 0.37646 0.0
H806 H 0.66571 0.39601 0.33713 0.0
H807 H 0.73103 0.38046 0.36339 0.0
H808 H 0.70779 0.44653 0.38824 0.0
H809 H 0.69547 0.48026 0.37305 0.0
H810 H 0.74981 0.49293 0.31396 0.0
H811 H 0.76236 0.45916 0.32835 0.0
C812 C 0.80463 0.40032 0.47727 0.0
C813 C 0.82269 0.40795 0.46326 0.0
C814 C 0.78741 0.40045 0.45536 0.0
C815 C 0.78784 0.4083 0.41902 0.0
C816 C 0.80586 0.4159 0.40479 0.0
C817 C 0.82321 0.41562 0.42668 0.0
C818 C 0.76922 0.40919 0.39667 0.0
C819 C 0.76191 0.42794 0.38585 0.0
C820 C 0.75788 0.39187 0.38872 0.0
C821 C 0.76517 0.37159 0.39837 0.0
C822 C 0.78402 0.36505 0.38617 0.0
C823 C 0.79088 0.346 0.39567 0.0
C824 C 0.77896 0.33329 0.41717 0.0
C825 C 0.76013 0.33959 0.42912 0.0
C826 C 0.75321 0.35864 0.41972 0.0
C827 C 0.69633 0.42284 0.27985 0.0
C828 C 0.67877 0.41335 0.29209 0.0
C829 C 0.71347 0.42281 0.30196 0.0
C830 C 0.71346 0.41341 0.33704 0.0
C831 C 0.69591 0.40406 0.34961 0.0
C832 C 0.6787 0.40402 0.32732 0.0
C833 C 0.73212 0.41255 0.35948 0.0
C834 C 0.73945 0.39379 0.37037 0.0
C835 C 0.74341 0.42989 0.36775 0.0
C836 C 0.73594 0.45024 0.35911 0.0
C837 C 0.71705 0.45645 0.37176 0.0
C838 C 0.71004 0.47559 0.36333 0.0
C839 C 0.72183 0.48871 0.34248 0.0
C840 C 0.74069 0.48274 0.33008 0.0
C841 C 0.74777 0.46361 0.3384 0.0
H842 H 0.71638 0.50352 0.33598 0.0
H843 H 0.7843 0.31855 0.4245 0.0
H844 H 0.37158 0.1716 0.57726 0.0
H845 H 0.37124 0.203 0.61326 0.0
H846 H 0.4334 0.21217 0.58695 0.0
H847 H 0.43361 0.18123 0.55052 0.0
H848 H 0.42235 0.22146 0.66325 0.0
H849 H 0.40162 0.23372 0.53428 0.0
H850 H 0.37972 0.22834 0.47971 0.0
H851 H 0.32885 0.24643 0.54446 0.0
H852 H 0.35044 0.25164 0.5996 0.0
H853 H 0.44439 0.32184 0.68939 0.0
H854 H 0.4397 0.28915 0.66013 0.0
H855 H 0.37581 0.29609 0.6688 0.0
H856 H 0.38057 0.32924 0.69666 0.0
H857 H 0.38381 0.27722 0.60712 0.0
H858 H 0.40342 0.26846 0.73396 0.0
H859 H 0.42389 0.27318 0.79062 0.0
H860 H 0.47445 0.24746 0.73472 0.0
H861 H 0.45436 0.24284 0.67751 0.0
C862 C 0.38524 0.18011 0.58014 0.0
C863 C 0.40267 0.17406 0.56153 0.0
C864 C 0.38501 0.19805 0.60038 0.0
C865 C 0.40229 0.20991 0.60254 0.0
C866 C 0.41995 0.20321 0.58569 0.0
C867 C 0.42007 0.18556 0.56497 0.0
C868 C 0.40188 0.23002 0.6198 0.0
C869 C 0.41399 0.23369 0.65101 0.0
C870 C 0.3905 0.2458 0.60437 0.0
C871 C 0.37759 0.24283 0.57115 0.0
C872 C 0.38574 0.23638 0.53696 0.0
C873 C 0.37339 0.23339 0.50592 0.0
C874 C 0.3529 0.23698 0.50865 0.0
C875 C 0.34472 0.24362 0.5424 0.0
C876 C 0.357 0.2466 0.57355 0.0
C877 C 0.42937 0.31655 0.6841 0.0
C878 C 0.41284 0.32807 0.69472 0.0
C879 C 0.42667 0.29778 0.66784 0.0
C880 C 0.4074 0.28986 0.66319 0.0
C881 C 0.39082 0.30181 0.67221 0.0
C882 C 0.39353 0.3208 0.68784 0.0
C883 C 0.40469 0.26889 0.65031 0.0
C884 C 0.39199 0.26501 0.61988 0.0
C885 C 0.41528 0.25282 0.6669 0.0
C886 C 0.42741 0.25544 0.70134 0.0
C887 C 0.41894 0.26392 0.73367 0.0
C888 C 0.43047 0.26657 0.76589 0.0
C889 C 0.45047 0.26066 0.76625 0.0
C890 C 0.45896 0.25204 0.73439 0.0
C891 C 0.4475 0.24938 0.70207 0.0
H892 H 0.45937 0.26273 0.79122 0.0
H893 H 0.34336 0.23466 0.48458 0.0
H894 H 0.33801 0.58112 0.33997 0.0
H895 H 0.30779 0.58143 0.37877 0.0
H896 H 0.27497 0.60868 0.28834 0.0
H897 H 0.30504 0.60863 0.24979 0.0
H898 H 0.26537 0.62506 0.35674 0.0
H899 H 0.27223 0.55964 0.30085 0.0
H900 H 0.28982 0.52815 0.28703 0.0
H901 H 0.29338 0.5151 0.40451 0.0
H902 H 0.27604 0.54667 0.41904 0.0
H903 H 0.16647 0.60564 0.41522 0.0
H904 H 0.19695 0.60613 0.37781 0.0
H905 H 0.22743 0.57234 0.46327 0.0
H906 H 0.19678 0.5708 0.49971 0.0
H907 H 0.23875 0.55956 0.39818 0.0
H908 H 0.23181 0.62413 0.45518 0.0
H909 H 0.21478 0.65574 0.47046 0.0
H910 H 0.2122 0.67078 0.35374 0.0
H911 H 0.22898 0.63912 0.33772 0.0
C912 C 0.32449 0.58763 0.32876 0.0
C913 C 0.32389 0.59495 0.29194 0.0
C914 C 0.30719 0.58761 0.35078 0.0
C915 C 0.28911 0.59493 0.33626 0.0
C916 C 0.28875 0.60297 0.30008 0.0
C917 C 0.30592 0.60285 0.27806 0.0
C918 C 0.27025 0.5933 0.35773 0.0
C919 C 0.25945 0.61074 0.36558 0.0
C920 C 0.26272 0.57464 0.36976 0.0
C921 C 0.27303 0.55561 0.36104 0.0
C922 C 0.2769 0.55013 0.32374 0.0
C923 C 0.2868 0.53226 0.31578 0.0
C924 C 0.29277 0.51966 0.34488 0.0
C925 C 0.28879 0.52489 0.382 0.0
C926 C 0.27891 0.54276 0.39011 0.0
C927 C 0.1794 0.59773 0.42553 0.0
C928 C 0.17904 0.58792 0.4603 0.0
C929 C 0.19699 0.59836 0.40439 0.0
C930 C 0.21461 0.58954 0.41799 0.0
C931 C 0.21408 0.57928 0.45216 0.0
C932 C 0.19653 0.5785 0.47305 0.0
C933 C 0.23378 0.59136 0.39736 0.0
C934 C 0.24466 0.57392 0.38955 0.0
C935 C 0.24145 0.61006 0.38567 0.0
C936 C 0.23147 0.62916 0.39524 0.0
C937 C 0.22749 0.63411 0.43276 0.0
C938 C 0.2179 0.65205 0.44155 0.0
C939 C 0.21237 0.66524 0.41308 0.0
C940 C 0.21647 0.66054 0.37576 0.0
C941 C 0.22603 0.64261 0.36681 0.0
H942 H 0.20494 0.67911 0.41995 0.0
H943 H 0.30043 0.50583 0.33866 0.0
H944 H 0.18726 0.08968 0.25504 0.0
H945 H 0.22046 0.09405 0.28301 0.0
H946 H 0.19314 0.1132 0.38638 0.0
H947 H 0.16004 0.10939 0.35787 0.0
H948 H 0.2274 0.13305 0.37533 0.0
H949 H 0.20599 0.06484 0.37336 0.0
H950 H 0.19333 0.03391 0.3444 0.0
H951 H 0.24515 0.03107 0.2739 0.0
H952 H 0.25799 0.06218 0.30206 0.0
H953 H 0.30759 0.1016 0.49778 0.0
H954 H 0.2753 0.10729 0.46654 0.0
H955 H 0.3019 0.09192 0.36039 0.0
H956 H 0.33395 0.08633 0.39145 0.0
H957 H 0.26784 0.07099 0.37374 0.0
H958 H 0.28957 0.13958 0.38003 0.0
H959 H 0.30147 0.16991 0.41215 0.0
H960 H 0.24828 0.17102 0.47913 0.0
H961 H 0.23618 0.1405 0.44777 0.0
C962 C 0.18849 0.09538 0.28332 0.0
C963 C 0.17133 0.09929 0.30442 0.0
C964 C 0.20737 0.09774 0.29939 0.0
C965 C 0.20928 0.10359 0.33706 0.0
C966 C 0.19206 0.10867 0.35734 0.0
C967 C 0.1732 0.1065 0.34112 0.0
C968 C 0.22892 0.10256 0.35628 0.0
C969 C 0.23619 0.11945 0.37523 0.0
C970 C 0.24041 0.08481 0.35619 0.0
C971 C 0.23286 0.06594 0.33957 0.0
C972 C 0.21463 0.05769 0.35152 0.0
C973 C 0.20742 0.04012 0.33527 0.0
C974 C 0.2184 0.03056 0.30727 0.0
C975 C 0.23665 0.03852 0.29556 0.0
C976 C 0.2439 0.05611 0.31167 0.0
C977 C 0.30648 0.09974 0.46773 0.0
C978 C 0.32305 0.09334 0.44696 0.0
C979 C 0.28812 0.103 0.44992 0.0
C980 C 0.2862 0.09998 0.41111 0.0
C981 C 0.303 0.09423 0.39033 0.0
C982 C 0.32127 0.09104 0.40806 0.0
C983 C 0.26652 0.10157 0.39224 0.0
C984 C 0.25915 0.08467 0.37361 0.0
C985 C 0.25488 0.1192 0.39316 0.0
C986 C 0.26206 0.13764 0.4118 0.0
C987 C 0.28048 0.14619 0.40181 0.0
C988 C 0.28725 0.16344 0.41985 0.0
C989 C 0.27566 0.17236 0.44773 0.0
C990 C 0.25725 0.16408 0.45756 0.0
C991 C 0.25042 0.14682 0.43964 0.0
H992 H 0.28093 0.18571 0.46166 0.0
H993 H 0.21279 0.01697 0.2947 0.0
H994 H 0.09295 0.83587 0.63115 0.0
H995 H 0.09868 0.80376 0.60038 0.0
H996 H 0.11462 0.77753 0.70648 0.0
H997 H 0.10863 0.80987 0.73762 0.0
H998 H 0.1385 0.76467 0.63768 0.0
H999 H 0.07112 0.76988 0.68604 0.0
H1000 H 0.03924 0.78759 0.69546 0.0
H1001 H 0.03043 0.79039 0.57654 0.0
H1002 H 0.06242 0.77292 0.56642 0.0
H1003 H 0.11709 0.66317 0.58884 0.0
H1004 H 0.12223 0.69606 0.61724 0.0
H1005 H 0.08904 0.72326 0.52703 0.0
H1006 H 0.08334 0.69018 0.49951 0.0
H1007 H 0.07521 0.73581 0.58981 0.0
H1008 H 0.14111 0.7296 0.5398 0.0
H1009 H 0.17358 0.71347 0.52812 0.0
H1010 H 0.18611 0.71364 0.64598 0.0
H1011 H 0.15356 0.72952 0.65844 0.0
C1012 C 0.09799 0.82332 0.64778 0.0
C1013 C 0.10011 0.82512 0.68671 0.0
C1014 C 0.10133 0.80505 0.6302 0.0
C1015 C 0.10691 0.78829 0.65123 0.0
C1016 C 0.11037 0.79036 0.68983 0.0
C1017 C 0.10691 0.80872 0.70755 0.0
C1018 C 0.1067 0.76837 0.63333 0.0
C1019 C 0.12469 0.75813 0.62762 0.0
C1020 C 0.08871 0.76022 0.61944 0.0
C1021 C 0.06923 0.77025 0.62548 0.0
C1022 C 0.06243 0.77437 0.6619 0.0
C1023 C 0.04434 0.78434 0.66737 0.0
C1024 C 0.03284 0.79015 0.63662 0.0
C1025 C 0.03937 0.7859 0.60033 0.0
C1026 C 0.05746 0.77594 0.59471 0.0
C1027 C 0.11139 0.67629 0.5747 0.0
C1028 C 0.10001 0.67434 0.54193 0.0
C1029 C 0.11432 0.69507 0.59086 0.0
C1030 C 0.10616 0.71224 0.57418 0.0
C1031 C 0.09549 0.71028 0.54046 0.0
C1032 C 0.09235 0.69146 0.52458 0.0
C1033 C 0.10711 0.7319 0.59352 0.0
C1034 C 0.08914 0.74217 0.5997 0.0
C1035 C 0.12518 0.74006 0.60748 0.0
C1036 C 0.1448 0.73058 0.60008 0.0
C1037 C 0.15071 0.72606 0.56326 0.0
C1038 C 0.16915 0.71698 0.5565 0.0
C1039 C 0.18188 0.71248 0.58629 0.0
C1040 C 0.17622 0.71711 0.62292 0.0
C1041 C 0.15779 0.72616 0.62985 0.0
H1042 H 0.19615 0.70546 0.581 0.0
H1043 H 0.01886 0.79792 0.64091 0.0
H1044 H 0.80449 0.89954 0.2389 0.0
H1045 H 0.77183 0.89276 0.26746 0.0
H1046 H 0.80049 0.88301 0.37414 0.0
H1047 H 0.83309 0.88918 0.34517 0.0
H1048 H 0.7693 0.85872 0.36771 0.0
H1049 H 0.78142 0.92871 0.35081 0.0
H1050 H 0.78943 0.9596 0.31637 0.0
H1051 H 0.73816 0.95098 0.24607 0.0
H1052 H 0.72994 0.91992 0.2799 0.0
H1053 H 0.68868 0.8926 0.4874 0.0
H1054 H 0.72028 0.88565 0.45467 0.0
H1055 H 0.68961 0.88878 0.34862 0.0
H1056 H 0.65821 0.89564 0.38127 0.0
H1057 H 0.72131 0.91462 0.35365 0.0
H1058 H 0.708 0.8453 0.37761 0.0
H1059 H 0.70019 0.81611 0.41701 0.0
H1060 H 0.75418 0.82522 0.47948 0.0
H1061 H 0.76218 0.85466 0.4408 0.0
C1062 C 0.80374 0.89533 0.26814 0.0
C1063 C 0.8211 0.8947 0.28994 0.0
C1064 C 0.78515 0.89163 0.28454 0.0
C1065 C 0.78367 0.88774 0.32314 0.0
C1066 C 0.80122 0.88597 0.34437 0.0
C1067 C 0.81981 0.88947 0.32787 0.0
C1068 C 0.7639 0.88733 0.34203 0.0
C1069 C 0.75884 0.87098 0.36481 0.0
C1070 C 0.75019 0.9033 0.33821 0.0
C1071 C 0.7552 0.92187 0.31759 0.0
C1072 C 0.77195 0.93331 0.3278 0.0
C1073 C 0.77651 0.95087 0.30844 0.0
C1074 C 0.76436 0.9572 0.27894 0.0
C1075 C 0.74759 0.94602 0.26885 0.0
C1076 C 0.74296 0.92846 0.28813 0.0
C1077 C 0.68871 0.8912 0.4572 0.0
C1078 C 0.6712 0.89457 0.43667 0.0
C1079 C 0.70668 0.88726 0.43853 0.0
C1080 C 0.70727 0.88672 0.39919 0.0
C1081 C 0.68949 0.88913 0.37894 0.0
C1082 C 0.6716 0.89295 0.39754 0.0
C1083 C 0.72658 0.88591 0.37893 0.0
C1084 C 0.73163 0.9022 0.35615 0.0
C1085 C 0.74032 0.87007 0.38334 0.0
C1086 C 0.7356 0.85231 0.40651 0.0
C1087 C 0.71813 0.84119 0.39995 0.0
C1088 C 0.71368 0.82457 0.42212 0.0
C1089 C 0.72665 0.81884 0.45079 0.0
C1090 C 0.74413 0.82969 0.45728 0.0
C1091 C 0.74864 0.84633 0.43522 0.0
H1092 H 0.72318 0.80598 0.46792 0.0
H1093 H 0.76792 0.97079 0.26399 0.0
H1094 H 0.90534 0.30313 0.49601 0.0
H1095 H 0.89896 0.27007 0.52305 0.0
H1096 H 0.87406 0.29797 0.62149 0.0
H1097 H 0.87985 0.33089 0.59375 0.0
H1098 H 0.91661 0.25632 0.58082 0.0
H1099 H 0.8442 0.26627 0.66934 0.0
H1100 H 0.81163 0.28322 0.66432 0.0
H1101 H 0.81596 0.28223 0.54445 0.0
H1102 H 0.8484 0.26501 0.5487 0.0
H1103 H 0.91978 0.18917 0.72795 0.0
H1104 H 0.91294 0.22061 0.69537 0.0
H1105 H 0.86643 0.19178 0.63169 0.0
H1106 H 0.87321 0.16029 0.66452 0.0
H1107 H 0.85698 0.23119 0.6484 0.0
H1108 H 0.91061 0.19461 0.59304 0.0
H1109 H 0.94221 0.17581 0.59229 0.0
H1110 H 0.9734 0.22707 0.63458 0.0
H1111 H 0.94188 0.24615 0.63598 0.0
C1112 C 0.89783 0.30206 0.52278 0.0
C1113 C 0.89282 0.31936 0.54272 0.0
C1114 C 0.89433 0.28324 0.53837 0.0
C1115 C 0.88597 0.28146 0.57433 0.0
C1116 C 0.88014 0.29885 0.59346 0.0
C1117 C 0.88344 0.31765 0.57766 0.0
C1118 C 0.88562 0.26176 0.59358 0.0
C1119 C 0.90348 0.25084 0.59532 0.0
C1120 C 0.86848 0.25436 0.61224 0.0
C1121 C 0.84883 0.26449 0.60939 0.0
C1122 C 0.83816 0.26957 0.6419 0.0
C1123 C 0.81973 0.27925 0.63919 0.0
C1124 C 0.81176 0.28385 0.60409 0.0
C1125 C 0.82218 0.27872 0.57162 0.0
C1126 C 0.84061 0.26903 0.57417 0.0
C1127 C 0.90769 0.18976 0.70784 0.0
C1128 C 0.89694 0.17244 0.6988 0.0
C1129 C 0.90387 0.20764 0.68909 0.0
C1130 C 0.8894 0.20843 0.66069 0.0
C1131 C 0.87765 0.19149 0.65352 0.0
C1132 C 0.88145 0.17356 0.67239 0.0
C1133 C 0.88804 0.22626 0.63617 0.0
C1134 C 0.86997 0.23675 0.63357 0.0
C1135 C 0.90483 0.23309 0.61585 0.0
C1136 C 0.92386 0.22174 0.61491 0.0
C1137 C 0.92419 0.20185 0.60236 0.0
C1138 C 0.9421 0.19117 0.60169 0.0
C1139 C 0.95981 0.20022 0.61341 0.0
C1140 C 0.95966 0.22005 0.62558 0.0
C1141 C 0.94178 0.23083 0.62624 0.0
H1142 H 0.97365 0.19188 0.613 0.0
H1143 H 0.7975 0.29135 0.60206 0.0
H1144 H 0.30851 0.41533 0.74322 0.0
H1145 H 0.27653 0.41091 0.77525 0.0
H1146 H 0.30537 0.37407 0.85836 0.0
H1147 H 0.33754 0.3797 0.82773 0.0
H1148 H 0.25116 0.38495 0.7971 0.0
H1149 H 0.2882 0.38494 0.94405 0.0
H1150 H 0.31955 0.39623 0.97356 0.0
H1151 H 0.32655 0.44105 0.88863 0.0
H1152 H 0.29513 0.43022 0.85896 0.0
H1153 H 0.1709 0.37732 0.9223 0.0
H1154 H 0.20328 0.37048 0.89365 0.0
H1155 H 0.22393 0.42892 0.92688 0.0
H1156 H 0.19204 0.43518 0.95788 0.0
H1157 H 0.25348 0.40528 0.93062 0.0
H1158 H 0.20429 0.41907 0.83801 0.0
H1159 H 0.17242 0.4151 0.80431 0.0
H1160 H 0.18866 0.35524 0.77383 0.0
H1161 H 0.22055 0.35878 0.80782 0.0
C1162 C 0.30784 0.40586 0.76778 0.0
C1163 C 0.32538 0.39787 0.78308 0.0
C1164 C 0.28959 0.40332 0.78608 0.0
C1165 C 0.2886 0.39255 0.81977 0.0
C1166 C 0.30583 0.38283 0.8329 0.0
C1167 C 0.32416 0.38577 0.81507 0.0
C1168 C 0.2702 0.39341 0.84303 0.0
C1169 C 0.2517 0.38919 0.82639 0.0
C1170 C 0.27075 0.39967 0.88094 0.0
C1171 C 0.28944 0.40659 0.89909 0.0
C1172 C 0.2964 0.39725 0.9318 0.0
C1173 C 0.31418 0.40357 0.94852 0.0
C1174 C 0.32507 0.4193 0.93289 0.0
C1175 C 0.31814 0.42883 0.90063 0.0
C1176 C 0.30035 0.4226 0.88386 0.0
C1177 C 0.18258 0.38841 0.92471 0.0
C1178 C 0.17897 0.4068 0.94237 0.0
C1179 C 0.201 0.38462 0.90775 0.0
C1180 C 0.21594 0.39936 0.9073 0.0
C1181 C 0.21267 0.41731 0.92667 0.0
C1182 C 0.1944 0.42095 0.94418 0.0
C1183 C 0.23442 0.39669 0.88478 0.0
C1184 C 0.25295 0.40066 0.90153 0.0
C1185 C 0.23379 0.39128 0.84642 0.0
C1186 C 0.21469 0.38911 0.82581 0.0
C1187 C 0.201 0.40501 0.82434 0.0
C1188 C 0.18295 0.40285 0.80517 0.0
C1189 C 0.17849 0.38491 0.78703 0.0
C1190 C 0.19212 0.36912 0.78796 0.0
C1191 C 0.21019 0.37119 0.80716 0.0
H1192 H 0.1645 0.38326 0.77219 0.0
H1193 H 0.33886 0.42413 0.94583 0.0
H1194 H 0.37918 0.83894 0.0914 0.0
H1195 H 0.37206 0.8074 0.12372 0.0
H1196 H 0.39846 0.77477 0.03213 0.0
H1197 H 0.40566 0.80638 -8e-05 0.0
H1198 H 0.36381 0.75601 0.0638 0.0
H1199 H 0.42676 0.78564 0.10155 0.0
H1200 H 0.44756 0.81314 0.12577 0.0
H1201 H 0.41369 0.81365 0.22776 0.0
H1202 H 0.39248 0.78631 0.20389 0.0
H1203 H 0.40467 0.66747 0.13461 0.0
H1204 H 0.39653 0.69963 0.10637 0.0
H1205 H 0.37888 0.72229 0.21454 0.0
H1206 H 0.38751 0.6899 0.24307 0.0
H1207 H 0.40356 0.7477 0.18001 0.0
H1208 H 0.34402 0.71393 0.14586 0.0
H1209 H 0.32336 0.68647 0.12112 0.0
H1210 H 0.35015 0.69361 0.01279 0.0
H1211 H 0.3712 0.72092 0.037 0.0
C1212 C 0.38287 0.82497 0.07778 0.0
C1213 C 0.39281 0.8249 0.04321 0.0
C1214 C 0.37891 0.80702 0.09627 0.0
C1215 C 0.38486 0.7888 0.08039 0.0
C1216 C 0.39367 0.78869 0.04473 0.0
C1217 C 0.39778 0.80666 0.02638 0.0
C1218 C 0.38395 0.77011 0.1025 0.0
C1219 C 0.3725 0.75411 0.08916 0.0
C1220 C 0.39492 0.76791 0.13611 0.0
C1221 C 0.40789 0.78409 0.15077 0.0
C1222 C 0.42365 0.79171 0.12903 0.0
C1223 C 0.43552 0.80726 0.1427 0.0
C1224 C 0.4319 0.81519 0.17821 0.0
C1225 C 0.41645 0.80752 0.20021 0.0
C1226 C 0.4045 0.79199 0.18665 0.0
C1227 C 0.39882 0.67927 0.15224 0.0
C1228 C 0.39677 0.67639 0.19093 0.0
C1229 C 0.39404 0.69759 0.13608 0.0
C1230 C 0.38688 0.71335 0.15824 0.0
C1231 C 0.38431 0.71031 0.1969 0.0
C1232 C 0.38914 0.69187 0.21314 0.0
C1233 C 0.38364 0.7333 0.14105 0.0
C1234 C 0.39444 0.74961 0.15518 0.0
C1235 C 0.37204 0.73575 0.10819 0.0
C1236 C 0.35928 0.71943 0.09334 0.0
C1237 C 0.34561 0.70957 0.11682 0.0
C1238 C 0.33381 0.69404 0.10288 0.0
C1239 C 0.33546 0.68828 0.06542 0.0
C1240 C 0.34889 0.69809 0.0418 0.0
C1241 C 0.36073 0.71362 0.05561 0.0
H1242 H 0.32632 0.67625 0.05468 0.0
H1243 H 0.44109 0.82724 0.18872 0.0
H1244 H 0.83763 0.59158 0.89211 0.0
H1245 H 0.80585 0.59976 0.86283 0.0
H1246 H 0.7832 0.62041 0.96916 0.0
H1247 H 0.81513 0.61136 0.99894 0.0
H1248 H 0.75702 0.59688 0.9375 0.0
H1249 H 0.79293 0.6534 0.89547 0.0
H1250 H 0.82111 0.67223 0.86863 0.0
H1251 H 0.8138 0.64146 0.7641 0.0
H1252 H 0.78574 0.62223 0.79043 0.0
H1253 H 0.66784 0.62246 0.83947 0.0
H1254 H 0.69942 0.62961 0.87175 0.0
H1255 H 0.73091 0.59325 0.79151 0.0
H1256 H 0.69925 0.58573 0.75974 0.0
H1257 H 0.75082 0.63133 0.81504 0.0
H1258 H 0.7193 0.57082 0.86394 0.0
H1259 H 0.69104 0.55233 0.89149 0.0
H1260 H 0.6899 0.59293 0.98448 0.0
H1261 H 0.71809 0.61175 0.95729 0.0
C1262 C 0.8259 0.59799 0.90916 0.0
C1263 C 0.82864 0.60069 0.94776 0.0
C1264 C 0.8078 0.60288 0.89235 0.0
C1265 C 0.79216 0.61098 0.91362 0.0
C1266 C 0.79509 0.61426 0.95215 0.0
C1267 C 0.81327 0.60919 0.96911 0.0
C1268 C 0.7724 0.61438 0.8958 0.0
C1269 C 0.75561 0.6049 0.91125 0.0
C1270 C 0.7705 0.62461 0.86123 0.0
C1271 C 0.78725 0.63629 0.84503 0.0
C1272 C 0.79739 0.65056 0.86682 0.0
C1273 C 0.81334 0.66132 0.85168 0.0
C1274 C 0.81925 0.65803 0.8147 0.0
C1275 C 0.80919 0.644 0.79274 0.0
C1276 C 0.79323 0.63319 0.80774 0.0
C1277 C 0.68162 0.61651 0.8282 0.0
C1278 C 0.68133 0.60375 0.79703 0.0
C1279 C 0.69956 0.62052 0.84667 0.0
C1280 C 0.71742 0.61194 0.83394 0.0
C1281 C 0.71728 0.60011 0.80151 0.0
C1282 C 0.69928 0.59584 0.78342 0.0
C1283 C 0.73587 0.6135 0.85647 0.0
C1284 C 0.75228 0.62381 0.84179 0.0
C1285 C 0.73742 0.60423 0.89189 0.0
C1286 C 0.72062 0.59282 0.90839 0.0
C1287 C 0.71292 0.57589 0.89011 0.0
C1288 C 0.69694 0.56533 0.90569 0.0
C1289 C 0.68861 0.57151 0.93961 0.0
C1290 C 0.69633 0.58819 0.95815 0.0
C1291 C 0.71232 0.59879 0.94271 0.0
H1292 H 0.67623 0.56333 0.95159 0.0
H1293 H 0.83162 0.66637 0.80304 0.0
H1294 H 0.57225 0.19583 0.02019 0.0
H1295 H 0.57978 0.22814 0.04896 0.0
H1296 H 0.63191 0.20269 0.10156 0.0
H1297 H 0.62385 0.17019 0.07406 0.0
H1298 H 0.61154 0.22178 0.15119 0.0
H1299 H 0.63558 0.23818 0.03024 0.0
H1300 H 0.6351 0.24086 0.96143 0.0
H1301 H 0.5844 0.27993 0.96738 0.0
H1302 H 0.58439 0.27726 0.03621 0.0
H1303 H 0.62514 0.33922 0.16325 0.0
H1304 H 0.63229 0.30684 0.13426 0.0
H1305 H 0.58274 0.28078 0.19406 0.0
H1306 H 0.57604 0.313 0.2239 0.0
H1307 H 0.60958 0.28756 0.08758 0.0
H1308 H 0.58901 0.23174 0.20683 0.0
H1309 H 0.59261 0.22906 0.27534 0.0
H1310 H 0.64285 0.26883 0.2722 0.0
H1311 H 0.63974 0.27153 0.20364 0.0
C1312 C 0.58551 0.19731 0.03734 0.0
C1313 C 0.59749 0.18063 0.04491 0.0
C1314 C 0.58987 0.21577 0.05364 0.0
C1315 C 0.60651 0.21793 0.0773 0.0
C1316 C 0.61901 0.20141 0.08344 0.0
C1317 C 0.61453 0.18291 0.0674 0.0
C1318 C 0.6098 0.2369 0.09802 0.0
C1319 C 0.61129 0.23616 0.13723 0.0
C1320 C 0.60994 0.25567 0.07985 0.0
C1321 C 0.60992 0.25742 0.03842 0.0
C1322 C 0.62425 0.24724 0.01688 0.0
C1323 C 0.62407 0.24877 0.97786 0.0
C1324 C 0.60971 0.26053 0.96004 0.0
C1325 C 0.59552 0.27083 0.98122 0.0
C1326 C 0.59561 0.26933 0.02025 0.0
C1327 C 0.61622 0.32639 0.17106 0.0
C1328 C 0.60012 0.32847 0.1959 0.0
C1329 C 0.62018 0.30797 0.15422 0.0
C1330 C 0.60811 0.29133 0.16202 0.0
C1331 C 0.59248 0.29328 0.18802 0.0
C1332 C 0.58861 0.31167 0.20497 0.0
C1333 C 0.61067 0.27242 0.14077 0.0
C1334 C 0.61019 0.27318 0.10149 0.0
C1335 C 0.61193 0.25366 0.15883 0.0
C1336 C 0.61404 0.25195 0.20007 0.0
C1337 C 0.60089 0.23983 0.22072 0.0
C1338 C 0.60284 0.23833 0.25958 0.0
C1339 C 0.61792 0.24881 0.27812 0.0
C1340 C 0.63113 0.26078 0.25782 0.0
C1341 C 0.62927 0.26232 0.21896 0.0
H1342 H 0.61939 0.24763 0.3082 0.0
H1343 H 0.6096 0.2617 0.92983 0.0
H1344 H 0.03759 0.08194 0.21129 0.0
H1345 H 0.00961 0.06175 0.18797 0.0
H1346 H 0.04591 0.00873 0.19588 0.0
H1347 H 0.07378 0.02872 0.21836 0.0
H1348 H 0.02 0.00486 0.13923 0.0
H1349 H 0.0178 0.02416 0.26965 0.0
H1350 H 0.01728 0.04814 0.32206 0.0
H1351 H 0.9636 0.07443 0.27866 0.0
H1352 H 0.96398 0.05076 0.22565 0.0
H1353 H 0.95376 0.92855 0.20793 0.0
H1354 H 0.97987 0.95229 0.18964 0.0
H1355 H 0.93565 0.99874 0.1791 0.0
H1356 H 0.90968 0.97524 0.19766 0.0
H1357 H 0.96349 0.00868 0.22854 0.0
H1358 H 0.96316 0.98365 0.10353 0.0
H1359 H 0.96436 0.95815 0.05382 0.0
H1360 H 0.02305 0.94072 0.08936 0.0
H1361 H 0.02209 0.96593 0.13966 0.0
C1362 C 0.0398 0.06611 0.20672 0.0
C1363 C 0.05778 0.05689 0.21721 0.0
C1364 C 0.02376 0.05454 0.19365 0.0
C1365 C 0.02551 0.03362 0.19098 0.0
C1366 C 0.04411 0.02478 0.19785 0.0
C1367 C 0.06004 0.03626 0.2109 0.0
C1368 C 0.00764 0.02059 0.18642 0.0
C1369 C 0.0076 0.00569 0.15867 0.0
C1370 C 0.99136 0.02171 0.21159 0.0
C1371 C 0.99107 0.0359 0.24346 0.0
C1372 C 0.00598 0.03516 0.27114 0.0
C1373 C 0.0057 0.04867 0.30096 0.0
C1374 C 0.99045 0.06284 0.30361 0.0
C1375 C 0.97543 0.06348 0.2765 0.0
C1376 C 0.97567 0.05003 0.24656 0.0
C1377 C 0.94952 0.9436 0.20018 0.0
C1378 C 0.92969 0.95006 0.20453 0.0
C1379 C 0.96448 0.95721 0.18983 0.0
C1380 C 0.95977 0.9774 0.18331 0.0
C1381 C 0.93969 0.98332 0.18424 0.0
C1382 C 0.92484 0.96982 0.19472 0.0
C1383 C 0.97575 0.99285 0.18131 0.0
C1384 C 0.97556 0.0081 0.20831 0.0
C1385 C 0.99185 0.99182 0.15574 0.0
C1386 C 0.99248 0.97659 0.12558 0.0
C1387 C 0.97625 0.97426 0.10097 0.0
C1388 C 0.97691 0.95988 0.07264 0.0
C1389 C 0.99375 0.94779 0.06848 0.0
C1390 C 0.01 0.95009 0.09263 0.0
C1391 C 0.00942 0.96444 0.12103 0.0
H1392 H 0.99423 0.93668 0.04652 0.0
H1393 H 0.99025 0.07328 0.32673 0.0
H1394 H 0.07563 0.95794 0.78279 0.0
H1395 H 0.05281 0.98412 0.80466 0.0
H1396 H 0.00623 0.94026 0.81836 0.0
H1397 H 0.02879 0.91427 0.79618 0.0
H1398 H 0.99569 0.96862 0.76986 0.0
H1399 H 0.02335 0.96694 0.89316 0.0
H1400 H 0.05004 0.96758 0.94066 0.0
H1401 H 0.06706 0.02642 0.90525 0.0
H1402 H 0.04065 0.02605 0.85718 0.0
H1403 H 0.92281 0.04164 0.796 0.0
H1404 H 0.94378 0.01381 0.81706 0.0
H1405 H 0.99615 0.05081 0.80591 0.0
H1406 H 0.97537 0.07861 0.78568 0.0
H1407 H 0.0016 0.0241 0.86111 0.0
H1408 H 0.97938 0.02375 0.73259 0.0
H1409 H 0.95457 0.02382 0.68156 0.0
H1410 H 0.92958 0.96912 0.72322 0.0
H1411 H 0.95406 0.96892 0.77489 0.0
C1412 C 0.06081 0.95379 0.79207 0.0
C1413 C 0.05393 0.93411 0.78753 0.0
C1414 C 0.04772 0.96877 0.80444 0.0
C1415 C 0.0277 0.96419 0.81281 0.0
C1416 C 0.02153 0.94419 0.81182 0.0
C1417 C 0.03448 0.92932 0.7993 0.0
C1418 C 0.01249 0.98028 0.81644 0.0
C1419 C 0.99673 0.98045 0.79051 0.0
C1420 C 0.01418 0.99611 0.84248 0.0
C1421 C 0.0301 0.9964 0.87135 0.0
C1422 C 0.03289 0.97996 0.89528 0.0
C1423 C 0.04795 0.98028 0.92236 0.0
C1424 C 0.06027 0.99701 0.92592 0.0
C1425 C 0.05752 0.01347 0.90245 0.0
C1426 C 0.04248 0.01322 0.87531 0.0
C1427 C 0.93869 0.04406 0.79946 0.0
C1428 C 0.94746 0.06221 0.78855 0.0
C1429 C 0.95069 0.0281 0.81124 0.0
C1430 C 0.97161 0.03008 0.81215 0.0
C1431 C 0.9801 0.04884 0.80521 0.0
C1432 C 0.96816 0.06473 0.79347 0.0
C1433 C 0.98483 0.01227 0.81468 0.0
C1434 C 1.00032 0.01192 0.84125 0.0
C1435 C 0.98314 0.99633 0.78884 0.0
C1436 C 0.96835 0.99647 0.7579 0.0
C1437 C 0.96847 0.01184 0.73107 0.0
C1438 C 0.95449 0.01189 0.702 0.0
C1439 C 0.94046 0.99652 0.69922 0.0
C1440 C 0.94041 0.98105 0.72548 0.0
C1441 C 0.95433 0.98097 0.75467 0.0
H1442 H 0.92967 0.99657 0.67668 0.0
H1443 H 0.07191 0.99724 0.94691 0.0
H1444 H 0.08286 0.47175 0.04288 0.0
H1445 H 0.055 0.49182 0.06533 0.0
H1446 H 0.01654 0.44025 0.05969 0.0
H1447 H 0.04457 0.42001 0.03696 0.0
H1448 H 0.00387 0.47007 0.01547 0.0
H1449 H 0.02407 0.46493 0.14286 0.0
H1450 H 0.04714 0.46604 0.19655 0.0
H1451 H 0.05787 0.52835 0.17673 0.0
H1452 H 0.03509 0.52757 0.12255 0.0
H1453 H 0.91895 0.52557 0.04597 0.0
H1454 H 0.9453 0.50282 0.0658 0.0
H1455 H 0.98837 0.55044 0.05752 0.0
H1456 H 0.96185 0.57348 0.0376 0.0
H1457 H 0.99711 0.52099 0.11558 0.0
H1458 H 0.98173 0.52537 0.98484 0.0
H1459 H 0.9605 0.52506 0.92851 0.0
H1460 H 0.94326 0.46458 0.95176 0.0
H1461 H 0.96392 0.46474 0.00894 0.0
C1462 C 0.06865 0.46448 0.04785 0.0
C1463 C 0.06584 0.44435 0.03791 0.0
C1464 C 0.05272 0.47598 0.06085 0.0
C1465 C 0.03361 0.4676 0.0641 0.0
C1466 C 0.03117 0.44703 0.05743 0.0
C1467 C 0.04722 0.43542 0.04471 0.0
C1468 C 0.01595 0.48097 0.06747 0.0
C1469 C 0.00211 0.48079 0.038 0.0
C1470 C 0.01414 0.49562 0.09593 0.0
C1471 C 0.02795 0.49615 0.12842 0.0
C1472 C 0.03147 0.47884 0.14972 0.0
C1473 C 0.04448 0.47941 0.1803 0.0
C1474 C 0.05399 0.49724 0.19001 0.0
C1475 C 0.05049 0.51455 0.16918 0.0
C1476 C 0.03751 0.51405 0.13855 0.0
C1477 C 0.9339 0.53142 0.04966 0.0
C1478 C 0.9384 0.55124 0.03977 0.0
C1479 C 0.94895 0.51837 0.06098 0.0
C1480 C 0.96883 0.52484 0.06239 0.0
C1481 C 0.9731 0.54516 0.05652 0.0
C1482 C 0.95794 0.55833 0.04525 0.0
C1483 C 0.98513 0.50982 0.0638 0.0
C1484 C 0.99872 0.50989 0.09368 0.0
C1485 C 0.98698 0.49516 0.03544 0.0
C1486 C 0.97414 0.49518 0.00152 0.0
C1487 C 0.97316 0.51211 0.9783 0.0
C1488 C 0.96126 0.51196 0.94616 0.0
C1489 C 0.9505 0.49483 0.93661 0.0
C1490 C 0.95155 0.47786 0.95927 0.0
C1491 C 0.96331 0.478 0.99161 0.0
H1492 H 0.94142 0.4947 0.91156 0.0
H1493 H 0.06404 0.49766 0.21371 0.0
H1494 H 0.47259 0.91771 0.95644 0.0
H1495 H 0.49478 0.94512 0.93974 0.0
H1496 H 0.44598 0.98669 0.9499 0.0
H1497 H 0.4235 0.95915 0.9669 0.0
H1498 H 0.4758 0.99681 0.89206 0.0
H1499 H 0.47057 0.981 0.02253 0.0
H1500 H 0.47034 0.95898 0.0778 0.0
H1501 H 0.53081 0.94158 0.05503 0.0
H1502 H 0.53123 0.96318 0.99905 0.0
H1503 H 0.5254 0.08308 0.96399 0.0
H1504 H 0.50463 0.05501 0.94466 0.0
H1505 H 0.55598 0.01623 0.94806 0.0
H1506 H 0.57696 0.04447 0.96742 0.0
H1507 H 0.52586 0.00366 0.9937 0.0
H1508 H 0.53159 0.02401 0.86616 0.0
H1509 H 0.53069 0.04736 0.81287 0.0
H1510 H 0.46843 0.0583 0.83254 0.0
H1511 H 0.469 0.03522 0.88631 0.0
C1512 C 0.46637 0.93258 0.95398 0.0
C1513 C 0.44633 0.93629 0.96352 0.0
C1514 C 0.47911 0.94824 0.94442 0.0
C1515 C 0.47212 0.96796 0.94425 0.0
C1516 C 0.45167 0.97155 0.94993 0.0
C1517 C 0.43882 0.95579 0.95955 0.0
C1518 C 0.48669 0.98469 0.94392 0.0
C1519 C 0.48667 0.99846 0.91434 0.0
C1520 C 0.50105 0.98662 0.97279 0.0
C1521 C 0.50084 0.97351 0.00632 0.0
C1522 C 0.48374 0.97229 0.02903 0.0
C1523 C 0.48358 0.95992 0.06053 0.0
C1524 C 0.50053 0.94886 0.06988 0.0
C1525 C 0.51767 0.95013 0.0477 0.0
C1526 C 0.51787 0.96242 0.01606 0.0
C1527 C 0.53243 0.06872 0.95936 0.0
C1528 C 0.55282 0.06596 0.96736 0.0
C1529 C 0.52052 0.05266 0.9482 0.0
C1530 C 0.5287 0.03346 0.94496 0.0
C1531 C 0.54935 0.03093 0.95032 0.0
C1532 C 0.56137 0.0471 0.9611 0.0
C1533 C 0.51522 0.01588 0.94161 0.0
C1534 C 0.51528 0.00193 0.97093 0.0
C1535 C 0.50079 0.01405 0.91277 0.0
C1536 C 0.50038 0.02798 0.88048 0.0
C1537 C 0.51774 0.03152 0.85934 0.0
C1538 C 0.51728 0.04468 0.82899 0.0
C1539 C 0.49952 0.05434 0.81937 0.0
C1540 C 0.48218 0.05082 0.84004 0.0
C1541 C 0.48255 0.03767 0.87042 0.0
H1542 H 0.4992 0.06452 0.79585 0.0
H1543 H 0.5004 0.93936 0.09438 0.0
H1544 H 0.41809 0.47903 0.70429 0.0
H1545 H 0.44492 0.50161 0.68623 0.0
H1546 H 0.48701 0.453 0.69146 0.0
H1547 H 0.46003 0.43014 0.70961 0.0
H1548 H 0.47484 0.50872 0.73539 0.0
H1549 H 0.52834 0.46641 0.63636 0.0
H1550 H 0.5269 0.44208 0.58459 0.0
H1551 H 0.46777 0.46186 0.55684 0.0
H1552 H 0.46894 0.48647 0.60812 0.0
H1553 H 0.58458 0.52929 0.70675 0.0
H1554 H 0.55588 0.50936 0.68805 0.0
H1555 H 0.51875 0.56194 0.691 0.0
H1556 H 0.54751 0.58201 0.71073 0.0
H1557 H 0.52706 0.50588 0.63717 0.0
H1558 H 0.47578 0.55017 0.73732 0.0
H1559 H 0.47847 0.57242 0.79219 0.0
H1560 H 0.53432 0.54531 0.82201 0.0
H1561 H 0.53179 0.5227 0.76771 0.0
C1562 C 0.43295 0.47297 0.70057 0.0
C1563 C 0.43696 0.45281 0.70879 0.0
C1564 C 0.44829 0.48594 0.69029 0.0
C1565 C 0.46801 0.47908 0.6878 0.0
C1566 C 0.47187 0.45861 0.69294 0.0
C1567 C 0.45643 0.44553 0.70323 0.0
C1568 C 0.4846 0.4938 0.68519 0.0
C1569 C 0.48599 0.50836 0.71336 0.0
C1570 C 0.49956 0.49291 0.65729 0.0
C1571 C 0.49868 0.47816 0.62634 0.0
C1572 C 0.51505 0.46561 0.61915 0.0
C1573 C 0.51428 0.45176 0.58989 0.0
C1574 C 0.49723 0.45039 0.5675 0.0
C1575 C 0.48093 0.46288 0.5743 0.0
C1576 C 0.48163 0.47675 0.60352 0.0
C1577 C 0.57043 0.53677 0.70241 0.0
C1578 C 0.56824 0.55719 0.71093 0.0
C1579 C 0.55401 0.52532 0.69155 0.0
C1580 C 0.53503 0.53401 0.68903 0.0
C1581 C 0.53321 0.55483 0.69346 0.0
C1582 C 0.5497 0.56635 0.70443 0.0
C1583 C 0.51711 0.52089 0.68714 0.0
C1584 C 0.51561 0.50649 0.65861 0.0
C1585 C 0.50216 0.5216 0.71514 0.0
C1586 C 0.50372 0.53497 0.74814 0.0
C1587 C 0.4886 0.54895 0.75564 0.0
C1588 C 0.4901 0.56161 0.78665 0.0
C1589 C 0.5066 0.56034 0.81047 0.0
C1590 C 0.52159 0.54633 0.80346 0.0
C1591 C 0.52013 0.5336 0.77256 0.0
H1592 H 0.50774 0.57018 0.83441 0.0
H1593 H 0.49668 0.43968 0.54483 0.0
H1594 H 0.47305 0.58777 0.29283 0.0
H1595 H 0.49604 0.56169 0.31307 0.0
H1596 H 0.44924 0.51787 0.30241 0.0
H1597 H 0.42596 0.54411 0.2824 0.0
H1598 H 0.47883 0.50882 0.36033 0.0
H1599 H 0.47432 0.52542 0.22961 0.0
H1600 H 0.47348 0.54898 0.17661 0.0
H1601 H 0.53282 0.56859 0.20312 0.0
H1602 H 0.53383 0.54546 0.25695 0.0
H1603 H 0.52902 0.42435 0.28452 0.0
H1604 H 0.50837 0.45196 0.30625 0.0
H1605 H 0.55956 0.49099 0.30349 0.0
H1606 H 0.58041 0.4632 0.28161 0.0
H1607 H 0.52951 0.50413 0.25938 0.0
H1608 H 0.53524 0.48223 0.38564 0.0
H1609 H 0.53457 0.4586 0.43851 0.0
H1610 H 0.47237 0.44728 0.41885 0.0
H1611 H 0.47271 0.47062 0.36549 0.0
C1612 C 0.46741 0.57272 0.29623 0.0
C1613 C 0.44777 0.56793 0.28559 0.0
C1614 C 0.48059 0.55782 0.30779 0.0
C1615 C 0.47446 0.5378 0.30851 0.0
C1616 C 0.45427 0.53324 0.302 0.0
C1617 C 0.44096 0.54825 0.29063 0.0
C1618 C 0.48973 0.52172 0.30915 0.0
C1619 C 0.48987 0.50766 0.33825 0.0
C1620 C 0.50431 0.52043 0.28056 0.0
C1621 C 0.50403 0.53394 0.24762 0.0
C1622 C 0.48712 0.53488 0.22435 0.0
C1623 C 0.48661 0.54815 0.1942 0.0
C1624 C 0.50302 0.56036 0.18674 0.0
C1625 C 0.52006 0.55921 0.20917 0.0
C1626 C 0.52062 0.54603 0.2395 0.0
C1627 C 0.53605 0.43864 0.2898 0.0
C1628 C 0.55632 0.44164 0.28115 0.0
C1629 C 0.52421 0.45443 0.30238 0.0
C1630 C 0.53236 0.4736 0.30647 0.0
C1631 C 0.55296 0.47631 0.3006 0.0
C1632 C 0.5649 0.46039 0.28835 0.0
C1633 C 0.51883 0.49107 0.31074 0.0
C1634 C 0.51882 0.50539 0.28206 0.0
C1635 C 0.50429 0.49234 0.33949 0.0
C1636 C 0.50405 0.4781 0.37134 0.0
C1637 C 0.52146 0.47456 0.39234 0.0
C1638 C 0.52113 0.46125 0.42247 0.0
C1639 C 0.50345 0.45142 0.43201 0.0
C1640 C 0.48606 0.4549 0.41143 0.0
C1641 C 0.48631 0.46819 0.38127 0.0
H1642 H 0.50322 0.44115 0.45539 0.0
H1643 H 0.50253 0.57065 0.16344 0.0
H1644 H 0.57832 0.97826 0.516 0.0
H1645 H 0.55177 0.99898 0.54118 0.0
H1646 H 0.51779 0.94625 0.56858 0.0
H1647 H 0.54437 0.92525 0.54246 0.0
H1648 H 0.49626 0.9708 0.52817 0.0
H1649 H 0.5354 0.97895 0.63776 0.0
H1650 H 0.56556 0.98562 0.67524 0.0
H1651 H 0.56863 0.04506 0.63061 0.0
H1652 H 0.53865 0.03867 0.59243 0.0
H1653 H 0.41633 0.03154 0.5701 0.0
H1654 H 0.44383 0.00972 0.58874 0.0
H1655 H 0.4861 0.05418 0.55209 0.0
H1656 H 0.45852 0.07638 0.53481 0.0
H1657 H 0.50188 0.03109 0.60822 0.0
H1658 H 0.46683 0.02041 0.49113 0.0
H1659 H 0.43698 0.01399 0.45264 0.0
H1660 H 0.42714 0.95871 0.51067 0.0
H1661 H 0.45672 0.96505 0.55014 0.0
C1662 C 0.56542 0.97097 0.52812 0.0
C1663 C 0.56341 0.95005 0.52682 0.0
C1664 C 0.55025 0.9829 0.54286 0.0
C1665 C 0.53273 0.97425 0.55702 0.0
C1666 C 0.53118 0.9533 0.55788 0.0
C1667 C 0.54643 0.94128 0.5431 0.0
C1668 C 0.51523 0.98717 0.56595 0.0
C1669 C 0.49737 0.98364 0.54656 0.0
C1670 C 0.51675 0.00432 0.5891 0.0
C1671 C 0.5348 0.00827 0.61205 0.0
C1672 C 0.54258 0.9934 0.63571 0.0
C1673 C 0.55964 0.99714 0.65713 0.0
C1674 C 0.56902 0.01575 0.65527 0.0
C1675 C 0.56134 0.03066 0.63203 0.0
C1676 C 0.54429 0.02699 0.61054 0.0
C1677 C 0.43149 0.03704 0.5678 0.0
C1678 C 0.43533 0.0556 0.55091 0.0
C1679 C 0.44721 0.02449 0.57814 0.0
C1680 C 0.46703 0.03004 0.57069 0.0
C1681 C 0.47093 0.04951 0.55787 0.0
C1682 C 0.45515 0.06226 0.54818 0.0
C1683 C 0.48313 0.0147 0.57019 0.0
C1684 C 0.50071 0.01791 0.59073 0.0
C1685 C 0.48146 0.99723 0.54794 0.0
C1686 C 0.46384 0.99332 0.52388 0.0
C1687 C 0.45822 0.00695 0.49585 0.0
C1688 C 0.44135 0.00333 0.47385 0.0
C1689 C 0.43015 0.98596 0.47924 0.0
C1690 C 0.43581 0.97218 0.5066 0.0
C1691 C 0.45261 0.97579 0.52882 0.0
H1692 H 0.41711 0.98313 0.46219 0.0
H1693 H 0.58223 0.01861 0.67187 0.0
H1694 H 0.97341 0.41064 0.46536 0.0
H1695 H 0.99676 0.43687 0.44748 0.0
H1696 H 0.94971 0.48055 0.45522 0.0
H1697 H 0.92607 0.45419 0.47339 0.0
H1698 H 0.97965 0.48837 0.39679 0.0
H1699 H 0.97463 0.47396 0.52862 0.0
H1700 H 0.97444 0.4522 0.58427 0.0
H1701 H 0.03436 0.43353 0.56008 0.0
H1702 H 0.03475 0.45488 0.50376 0.0
H1703 H 0.02942 0.57506 0.46179 0.0
H1704 H 0.00902 0.54655 0.44388 0.0
H1705 H 0.0601 0.50781 0.45518 0.0
H1706 H 0.08069 0.53652 0.47359 0.0
H1707 H 0.02992 0.49557 0.49795 0.0
H1708 H 0.03635 0.51375 0.36999 0.0
H1709 H 0.03623 0.53591 0.31492 0.0
H1710 H 0.97405 0.54834 0.33211 0.0
H1711 H 0.97383 0.52646 0.38762 0.0
C1712 C 0.96784 0.42574 0.4622 0.0
C1713 C 0.94795 0.43041 0.47134 0.0
C1714 C 0.98124 0.44071 0.45196 0.0
C1715 C 0.97506 0.46069 0.45072 0.0
C1716 C 0.95477 0.4652 0.4561 0.0
C1717 C 0.94126 0.45013 0.46638 0.0
C1718 C 0.99027 0.47681 0.44928 0.0
C1719 C 0.99058 0.4901 0.41896 0.0
C1720 C 0.00482 0.4787 0.47784 0.0
C1721 C 0.00463 0.46583 0.51169 0.0
C1722 C 0.98769 0.46504 0.53491 0.0
C1723 C 0.98755 0.45281 0.56661 0.0
C1724 C 0.00436 0.44145 0.57566 0.0
C1725 C 0.02134 0.44231 0.55299 0.0
C1726 C 0.02152 0.45446 0.52116 0.0
C1727 C 0.03651 0.56057 0.45926 0.0
C1728 C 0.05666 0.55802 0.46931 0.0
C1729 C 0.0248 0.54425 0.44885 0.0
C1730 C 0.03296 0.52497 0.44817 0.0
C1731 C 0.05347 0.52256 0.45548 0.0
C1732 C 0.06528 0.53899 0.4657 0.0
C1733 C 0.01945 0.50735 0.44537 0.0
C1734 C 0.01931 0.49375 0.47527 0.0
C1735 C 0.00507 0.5053 0.41648 0.0
C1736 C 0.00512 0.51855 0.38317 0.0
C1737 C 0.02268 0.52133 0.36224 0.0
C1738 C 0.02267 0.53382 0.33089 0.0
C1739 C 0.00515 0.54355 0.32006 0.0
C1740 C 0.9876 0.54079 0.34054 0.0
C1741 C 0.98753 0.52832 0.37191 0.0
H1742 H 0.00517 0.55321 0.29578 0.0
H1743 H 0.00425 0.43205 0.60029 0.0
H1744 H 0.12389 0.92884 0.6264 0.0
H1745 H 0.13257 0.942 0.56487 0.0
H1746 H 0.07089 0.93792 0.53093 0.0
H1747 H 0.06215 0.92419 0.59211 0.0
H1748 H 0.09386 0.92453 0.47718 0.0
H1749 H 0.09301 0.98312 0.55441 0.0
H1750 H 0.10201 0.00468 0.60778 0.0
H1751 H 0.1636 0.00278 0.57476 0.0
H1752 H 0.15498 0.98103 0.52137 0.0
H1753 H 0.08491 1.00004 0.34035 0.0
H1754 H 0.0845 0.97603 0.39174 0.0
H1755 H 0.14884 0.97761 0.39628 0.0
H1756 H 0.14924 0.00157 0.344 0.0
H1757 H 0.12978 0.98881 0.46263 0.0
H1758 H 0.12693 0.93454 0.37639 0.0
H1759 H 0.11482 0.91567 0.32168 0.0
H1760 H 0.05642 0.91207 0.37061 0.0
H1761 H 0.06805 0.93123 0.42533 0.0
C1762 C 0.11212 0.93085 0.60596 0.0
C1763 C 0.0923 0.92552 0.61423 0.0
C1764 C 0.11713 0.93841 0.57077 0.0
C1765 C 0.10237 0.94109 0.54335 0.0
C1766 C 0.08254 0.9359 0.55161 0.0
C1767 C 0.07755 0.92816 0.58667 0.0
C1768 C 0.10753 0.94927 0.506 0.0
C1769 C 0.10161 0.93865 0.47397 0.0
C1770 C 0.11811 0.96742 0.50182 0.0
C1771 C 0.12339 0.98023 0.53422 0.0
C1772 C 0.1085 0.98714 0.55876 0.0
C1773 C 0.11352 0.99943 0.58895 0.0
C1774 C 0.13338 0.00503 0.59474 0.0
C1775 C 0.14824 0.99839 0.5703 0.0
C1776 C 0.14329 0.98609 0.54006 0.0
C1777 C 0.09897 0.99462 0.3514 0.0
C1778 C 0.11711 0.00239 0.33831 0.0
C1779 C 0.09874 0.98091 0.38067 0.0
C1780 C 0.11664 0.97498 0.39768 0.0
C1781 C 0.1349 0.9819 0.38323 0.0
C1782 C 0.13514 0.99543 0.35335 0.0
C1783 C 0.11579 0.96427 0.43384 0.0
C1784 C 0.12245 0.97446 0.46579 0.0
C1785 C 0.10546 0.94598 0.43788 0.0
C1786 C 0.09837 0.93444 0.40494 0.0
C1787 C 0.11146 0.92988 0.37537 0.0
C1788 C 0.10468 0.91911 0.34435 0.0
C1789 C 0.08485 0.91271 0.34264 0.0
C1790 C 0.07176 0.91705 0.37196 0.0
C1791 C 0.07846 0.92784 0.40302 0.0
H1792 H 0.07964 0.90436 0.31861 0.0
H1793 H 0.13723 0.01457 0.6181 0.0
H1794 H 0.98665 0.92014 0.66499 0.0
H1795 H 0.96438 0.91987 0.61104 0.0
H1796 H 0.99068 0.86462 0.57338 0.0
H1797 H 0.01324 0.86487 0.6271 0.0
H1798 H 0.9933 0.89378 0.52152 0.0
H1799 H 0.94159 0.86666 0.59951 0.0
H1800 H 0.91987 0.86503 0.65512 0.0
H1801 H 0.89614 0.92298 0.62932 0.0
H1802 H 0.91789 0.92507 0.57379 0.0
H1803 H 0.93413 0.88462 0.35911 0.0
H1804 H 0.94943 0.87867 0.42003 0.0
H1805 H 0.92407 0.93352 0.46178 0.0
H1806 H 0.90849 0.93956 0.40091 0.0
H1807 H 0.92004 0.90318 0.51199 0.0
H1808 H 0.97193 0.93221 0.43875 0.0
H1809 H 0.99433 0.93639 0.38458 0.0
H1810 H 0.01869 0.87796 0.40332 0.0
H1811 H 0.99619 0.87328 0.4573 0.0
C1812 C 0.98736 0.90763 0.64581 0.0
C1813 C 0.00195 0.8927 0.64997 0.0
C1814 C 0.97453 0.90746 0.61503 0.0
C1815 C 0.97596 0.89228 0.58812 0.0
C1816 C 0.98942 0.87652 0.59379 0.0
C1817 C 0.00226 0.87666 0.62457 0.0
C1818 C 0.9655 0.89433 0.55183 0.0
C1819 C 0.97722 0.89536 0.51934 0.0
C1820 C 0.94465 0.89732 0.5493 0.0
C1821 C 0.93148 0.89607 0.58261 0.0
C1822 C 0.93184 0.87912 0.60583 0.0
C1823 C 0.9195 0.8781 0.63732 0.0
C1824 C 0.90666 0.8939 0.64579 0.0
C1825 C 0.9061 0.91074 0.62274 0.0
C1826 C 0.91841 0.91184 0.59121 0.0
C1827 C 0.93179 0.89546 0.38117 0.0
C1828 C 0.92016 0.91263 0.37505 0.0
C1829 C 0.94058 0.89203 0.41597 0.0
C1830 C 0.93799 0.90572 0.44528 0.0
C1831 C 0.92621 0.92276 0.43948 0.0
C1832 C 0.91743 0.92624 0.40462 0.0
C1833 C 0.94786 0.90236 0.48178 0.0
C1834 C 0.93608 0.90129 0.51421 0.0
C1835 C 0.96874 0.89964 0.48445 0.0
C1836 C 0.98218 0.90229 0.45178 0.0
C1837 C 0.98191 0.92016 0.43108 0.0
C1838 C 0.99465 0.92264 0.40046 0.0
C1839 C 0.00787 0.90742 0.39043 0.0
C1840 C 0.00841 0.88971 0.41107 0.0
C1841 C 0.99566 0.88714 0.44169 0.0
H1842 H 0.01771 0.90937 0.3667 0.0
H1843 H 0.89712 0.89308 0.67018 0.0
H1844 H 0.8816 0.05496 0.64066 0.0
H1845 H 0.87215 0.04018 0.58062 0.0
H1846 H 0.92266 0.0685 0.52787 0.0
H1847 H 0.93229 0.08331 0.58771 0.0
H1848 H 0.88723 0.07323 0.4879 0.0
H1849 H 0.92509 0.02113 0.54702 0.0
H1850 H 0.93384 0.99738 0.59713 0.0
H1851 H 0.8764 0.96949 0.58678 0.0
H1852 H 0.86715 0.99335 0.53707 0.0
H1853 H 0.90394 0.01615 0.32401 0.0
H1854 H 0.90307 0.03574 0.38144 0.0
H1855 H 0.85323 0.00085 0.42106 0.0
H1856 H 0.85409 0.981 0.36371 0.0
H1857 H 0.88415 0.99991 0.46918 0.0
H1858 H 0.84774 0.05043 0.40486 0.0
H1859 H 0.84001 0.07387 0.35369 0.0
H1860 H 0.89549 0.10436 0.37243 0.0
H1861 H 0.9037 0.08093 0.42339 0.0
C1862 C 0.89076 0.05798 0.61633 0.0
C1863 C 0.90774 0.07027 0.61897 0.0
C1864 C 0.88533 0.04952 0.5821 0.0
C1865 C 0.89672 0.05328 0.54993 0.0
C1866 C 0.91366 0.06551 0.55243 0.0
C1867 C 0.9192 0.07383 0.58669 0.0
C1868 C 0.89106 0.0444 0.5136 0.0
C1869 C 0.88667 0.0572 0.48362 0.0
C1870 C 0.88984 0.0235 0.50856 0.0
C1871 C 0.89532 0.00922 0.53866 0.0
C1872 C 0.91423 0.01009 0.55572 0.0
C1873 C 0.9193 0.99658 0.584 0.0
C1874 C 0.90566 0.98198 0.59522 0.0
C1875 C 0.88693 0.98085 0.57813 0.0
C1876 C 0.88176 0.99437 0.54992 0.0
C1877 C 0.8924 0.013 0.34441 0.0
C1878 C 0.87929 0.99682 0.33956 0.0
C1879 C 0.89189 0.02427 0.37723 0.0
C1880 C 0.87816 0.01966 0.40561 0.0
C1881 C 0.864 0.00457 0.39954 0.0
C1882 C 0.86446 0.99331 0.36664 0.0
C1883 C 0.88045 0.02872 0.44316 0.0
C1884 C 0.88432 0.01595 0.47348 0.0
C1885 C 0.88128 0.04963 0.44842 0.0
C1886 C 0.87639 0.06381 0.41782 0.0
C1887 C 0.85837 0.06203 0.3979 0.0
C1888 C 0.85389 0.07534 0.36896 0.0
C1889 C 0.86727 0.09057 0.35977 0.0
C1890 C 0.88514 0.09255 0.37957 0.0
C1891 C 0.88971 0.07928 0.40853 0.0
H1892 H 0.86377 0.10086 0.33736 0.0
H1893 H 0.90962 0.9715 0.61706 0.0
H1894 H 0.00067 0.15861 0.66227 0.0
H1895 H 0.02462 0.1593 0.60994 0.0
H1896 H 0.02243 0.09496 0.60385 0.0
H1897 H 0.99881 0.09427 0.6555 0.0
H1898 H 0.05966 0.10857 0.58988 0.0
H1899 H 0.99077 0.12442 0.5527 0.0
H1900 H 0.96023 0.145 0.55092 0.0
H1901 H 0.99439 0.19538 0.51325 0.0
H1902 H 0.02517 0.17515 0.51526 0.0
H1903 H 0.06829 0.06963 0.41002 0.0
H1904 H 0.0575 0.08085 0.4717 0.0
H1905 H 0.06369 0.14222 0.43671 0.0
H1906 H 0.0738 0.13107 0.37441 0.0
H1907 H 0.03112 0.13828 0.47454 0.0
H1908 H 0.09842 0.1193 0.49672 0.0
H1909 H 0.12815 0.09765 0.49427 0.0
H1910 H 0.09767 0.05303 0.55888 0.0
H1911 H 0.06764 0.07428 0.56129 0.0
C1912 C 0.00586 0.14466 0.65039 0.0
C1913 C 0.99791 0.12639 0.66258 0.0
C1914 C 0.01939 0.14506 0.62044 0.0
C1915 C 0.02512 0.12718 0.60279 0.0
C1916 C 0.01826 0.10893 0.61703 0.0
C1917 C 0.0047 0.10855 0.64645 0.0
C1918 C 0.03633 0.12701 0.5671 0.0
C1919 C 0.05356 0.11517 0.56463 0.0
C1920 C 0.02865 0.13609 0.53437 0.0
C1921 C 0.01027 0.14837 0.53459 0.0
C1922 C 0.99179 0.13995 0.54447 0.0
C1923 C 0.97443 0.15153 0.5433 0.0
C1924 C 0.97538 0.17147 0.5319 0.0
C1925 C 0.99369 0.17993 0.52203 0.0
C1926 C 0.01109 0.16843 0.52322 0.0
C1927 C 0.06729 0.08552 0.41539 0.0
C1928 C 0.07195 0.09945 0.38734 0.0
C1929 C 0.06132 0.09193 0.45081 0.0
C1930 C 0.06032 0.1124 0.4592 0.0
C1931 C 0.06455 0.12636 0.431 0.0
C1932 C 0.07025 0.11995 0.39536 0.0
C1933 C 0.05401 0.1191 0.49698 0.0
C1934 C 0.03773 0.13218 0.4998 0.0
C1935 C 0.06259 0.11115 0.53001 0.0
C1936 C 0.08073 0.09839 0.52907 0.0
C1937 C 0.09801 0.10484 0.51027 0.0
C1938 C 0.11493 0.09263 0.50889 0.0
C1939 C 0.11479 0.07398 0.52638 0.0
C1940 C 0.09775 0.0675 0.54537 0.0
C1941 C 0.08079 0.07964 0.54681 0.0
H1942 H 0.12789 0.06454 0.52525 0.0
H1943 H 0.96192 0.18035 0.53054 0.0
H1944 H 0.06439 0.57709 0.65921 0.0
H1945 H 0.07368 0.56615 0.72218 0.0
H1946 H 0.13584 0.56701 0.69056 0.0
H1947 H 0.12664 0.57789 0.62772 0.0
H1948 H 0.12726 0.53363 0.72559 0.0
H1949 H 0.11645 0.60291 0.7501 0.0
H1950 H 0.09883 0.63523 0.75116 0.0
H1951 H 0.05125 0.60911 0.81499 0.0
H1952 H 0.06849 0.57657 0.81407 0.0
H1953 H 0.15457 0.50545 0.90836 0.0
H1954 H 0.15274 0.52986 0.85701 0.0
H1955 H 0.08842 0.52756 0.86134 0.0
H1956 H 0.09022 0.5032 0.91198 0.0
H1957 H 0.10296 0.56555 0.84237 0.0
H1958 H 0.1109 0.49568 0.80781 0.0
H1959 H 0.12847 0.46334 0.80974 0.0
H1960 H 0.18114 0.49088 0.76471 0.0
H1961 H 0.16394 0.52349 0.76312 0.0
C1962 C 0.08003 0.57519 0.66587 0.0
C1963 C 0.09475 0.57851 0.6386 0.0
C1964 C 0.08534 0.56899 0.70186 0.0
C1965 C 0.1055 0.56609 0.71127 0.0
C1966 C 0.12021 0.56925 0.68399 0.0
C1967 C 0.1149 0.57541 0.64802 0.0
C1968 C 0.11115 0.5586 0.74886 0.0
C1969 C 0.12233 0.54091 0.75109 0.0
C1970 C 0.10445 0.56788 0.7822 0.0
C1971 C 0.09374 0.58727 0.78189 0.0
C1972 C 0.10215 0.60401 0.76411 0.0
C1973 C 0.09227 0.62239 0.76482 0.0
C1974 C 0.07401 0.62424 0.78336 0.0
C1975 C 0.06547 0.60767 0.80087 0.0
C1976 C 0.0753 0.58926 0.8003 0.0
C1977 C 0.14012 0.5108 0.89921 0.0
C1978 C 0.12253 0.50246 0.9137 0.0
C1979 C 0.13907 0.52462 0.86987 0.0
C1980 C 0.12043 0.53029 0.8552 0.0
C1981 C 0.10292 0.5234 0.87229 0.0
C1982 C 0.10397 0.50945 0.90108 0.0
C1983 C 0.11885 0.54064 0.81879 0.0
C1984 C 0.1083 0.55868 0.81676 0.0
C1985 C 0.12603 0.53168 0.78557 0.0
C1986 C 0.13624 0.51204 0.78578 0.0
C1987 C 0.12628 0.49486 0.79856 0.0
C1988 C 0.13616 0.47648 0.79958 0.0
C1989 C 0.15594 0.47506 0.78747 0.0
C1990 C 0.16584 0.49201 0.77417 0.0
C1991 C 0.15603 0.51044 0.77321 0.0
H1992 H 0.16357 0.46083 0.7883 0.0
H1993 H 0.06643 0.63851 0.78401 0.0
H1994 H 0.48358 0.85255 0.10291 0.0
H1995 H 0.50551 0.84882 0.1571 0.0
H1996 H 0.53637 0.90295 0.12638 0.0
H1997 H 0.51528 0.90616 0.07124 0.0
H1998 H 0.56111 0.87884 0.16197 0.0
H1999 H 0.49327 0.90306 0.18235 0.0
H2000 H 0.45664 0.89987 0.17949 0.0
H2001 H 0.45931 0.84705 0.24731 0.0
H2002 H 0.49604 0.84973 0.25007 0.0
H2003 H 0.58319 0.92953 0.32941 0.0
H2004 H 0.56965 0.91855 0.26942 0.0
H2005 H 0.54684 0.86508 0.32135 0.0
H2006 H 0.56013 0.87601 0.38166 0.0
H2007 H 0.51949 0.88229 0.27671 0.0
H2008 H 0.58748 0.86245 0.26588 0.0
H2009 H 0.62401 0.86657 0.26886 0.0
H2010 H 0.62122 0.91187 0.18401 0.0
H2011 H 0.58463 0.90825 0.18091 0.0
C2012 C 0.49547 0.8633 0.107 0.0
C2013 C 0.49727 0.88007 0.08355 0.0
C2014 C 0.50794 0.86119 0.1381 0.0
C2015 C 0.52205 0.87603 0.14655 0.0
C2016 C 0.52538 0.89147 0.12075 0.0
C2017 C 0.51319 0.89337 0.08932 0.0
C2018 C 0.53128 0.87726 0.18421 0.0
C2019 C 0.55204 0.87959 0.18708 0.0
C2020 C 0.51946 0.87784 0.21711 0.0
C2021 C 0.49738 0.87647 0.21608 0.0
C2022 C 0.48604 0.89073 0.19653 0.0
C2023 C 0.46527 0.88901 0.19492 0.0
C2024 C 0.45564 0.87327 0.21314 0.0
C2025 C 0.46678 0.85923 0.23315 0.0
C2026 C 0.48758 0.86082 0.23474 0.0
C2027 C 0.57525 0.91545 0.32817 0.0
C2028 C 0.57277 0.90365 0.36038 0.0
C2029 C 0.56767 0.90912 0.29377 0.0
C2030 C 0.55756 0.89083 0.29083 0.0
C2031 C 0.55474 0.87917 0.32299 0.0
C2032 C 0.56233 0.88547 0.35743 0.0
C2033 C 0.54927 0.88434 0.25439 0.0
C2034 C 0.52866 0.88109 0.25178 0.0
C2035 C 0.56122 0.88303 0.22181 0.0
C2036 C 0.58327 0.88516 0.22335 0.0
C2037 C 0.59463 0.87339 0.24803 0.0
C2038 C 0.61536 0.87562 0.24972 0.0
C2039 C 0.62493 0.88949 0.22669 0.0
C2040 C 0.61379 0.90113 0.20185 0.0
C2041 C 0.59305 0.89898 0.20008 0.0
H2042 H 0.64097 0.8912 0.22804 0.0
H2043 H 0.43955 0.87196 0.21179 0.0
H2044 H 0.86958 0.51599 0.8753 0.0
H2045 H 0.87023 0.49168 0.82475 0.0
H2046 H 0.90785 0.45313 0.89098 0.0
H2047 H 0.90731 0.47756 0.94194 0.0
H2048 H 0.92419 0.4604 0.82442 0.0
H2049 H 0.86046 0.43874 0.86648 0.0
H2050 H 0.82567 0.44218 0.88798 0.0
H2051 H 0.8095 0.46893 0.78307 0.0
H2052 H 0.84426 0.46592 0.76111 0.0
H2053 H 0.92985 0.39457 0.66905 0.0
H2054 H 0.92334 0.40748 0.73181 0.0
H2055 H 0.88211 0.4505 0.68584 0.0
H2056 H 0.88786 0.43703 0.62322 0.0
H2057 H 0.86749 0.43578 0.74796 0.0
H2058 H 0.93228 0.46291 0.7116 0.0
H2059 H 0.96695 0.45927 0.68923 0.0
H2060 H 0.98056 0.42183 0.7834 0.0
H2061 H 0.94604 0.42535 0.80635 0.0
C2062 C 0.87758 0.50213 0.87961 0.0
C2063 C 0.88873 0.49888 0.9124 0.0
C2064 C 0.87788 0.48818 0.85064 0.0
C2065 C 0.88912 0.47059 0.85401 0.0
C2066 C 0.89915 0.46666 0.88772 0.0
C2067 C 0.89883 0.48063 0.9168 0.0
C2068 C 0.89217 0.45763 0.82084 0.0
C2069 C 0.91178 0.45462 0.80817 0.0
C2070 C 0.876 0.45044 0.79922 0.0
C2071 C 0.85502 0.45219 0.81223 0.0
C2072 C 0.84952 0.44548 0.84807 0.0
C2073 C 0.8298 0.44733 0.86033 0.0
C2074 C 0.81539 0.45579 0.83693 0.0
C2075 C 0.82068 0.46238 0.80117 0.0
C2076 C 0.84039 0.46057 0.78878 0.0
C2077 C 0.91941 0.4068 0.67232 0.0
C2078 C 0.90949 0.41492 0.64117 0.0
C2079 C 0.91573 0.41419 0.70822 0.0
C2080 C 0.90248 0.4302 0.71352 0.0
C2081 C 0.89239 0.43814 0.68247 0.0
C2082 C 0.89577 0.43051 0.64666 0.0
C2083 C 0.89943 0.43906 0.75117 0.0
C2084 C 0.87986 0.4413 0.7646 0.0
C2085 C 0.91561 0.44564 0.77347 0.0
C2086 C 0.93658 0.44427 0.76052 0.0
C2087 C 0.94271 0.45395 0.72754 0.0
C2088 C 0.96234 0.45193 0.71479 0.0
C2089 C 0.97597 0.44033 0.73487 0.0
C2090 C 0.97005 0.43088 0.76793 0.0
C2091 C 0.95047 0.43293 0.78089 0.0
H2092 H 0.9911 0.43865 0.72478 0.0
H2093 H 0.80013 0.45722 0.84647 0.0
H2094 H 0.52524 0.12821 0.14268 0.0
H2095 H 0.50346 0.12755 0.19652 0.0
H2096 H 0.45426 0.10913 0.12641 0.0
H2097 H 0.47666 0.10837 0.07214 0.0
H2098 H 0.47344 0.14355 0.22274 0.0
H2099 H 0.42334 0.07893 0.17457 0.0
H2100 H 0.42358 0.05062 0.13033 0.0
H2101 H 0.48748 0.04749 0.13775 0.0
H2102 H 0.48757 0.07571 0.18218 0.0
H2103 H 0.41067 0.12291 0.37794 0.0
H2104 H 0.42317 0.13087 0.31543 0.0
H2105 H 0.45334 0.0739 0.31132 0.0
H2106 H 0.43961 0.06539 0.37264 0.0
H2107 H 0.43863 0.07964 0.24823 0.0
H2108 H 0.4775 0.12136 0.32995 0.0
H2109 H 0.48323 0.14672 0.37886 0.0
H2110 H 0.45253 0.1905 0.31257 0.0
H2111 H 0.44642 0.16531 0.26344 0.0
C2112 C 0.50973 0.12423 0.13838 0.0
C2113 C 0.50277 0.11795 0.10317 0.0
C2114 C 0.4972 0.12397 0.16937 0.0
C2115 C 0.47726 0.11787 0.16586 0.0
C2116 C 0.46974 0.11332 0.13007 0.0
C2117 C 0.4825 0.11305 0.09901 0.0
C2118 C 0.46525 0.11479 0.20034 0.0
C2119 C 0.4657 0.12961 0.22817 0.0
C2120 C 0.45533 0.09654 0.20783 0.0
C2121 C 0.45546 0.07957 0.18123 0.0
C2122 C 0.43742 0.07218 0.16673 0.0
C2123 C 0.43751 0.05616 0.14164 0.0
C2124 C 0.45554 0.04731 0.13111 0.0
C2125 C 0.47353 0.05441 0.14578 0.0
C2126 C 0.47353 0.07043 0.17088 0.0
C2127 C 0.42009 0.11218 0.36368 0.0
C2128 C 0.42436 0.09361 0.38006 0.0
C2129 C 0.42726 0.11674 0.328 0.0
C2130 C 0.43947 0.10313 0.30873 0.0
C2131 C 0.44387 0.08463 0.32543 0.0
C2132 C 0.43619 0.07982 0.36057 0.0
C2133 C 0.44772 0.108 0.27124 0.0
C2134 C 0.44623 0.09365 0.24271 0.0
C2135 C 0.45765 0.12624 0.26381 0.0
C2136 C 0.46129 0.14141 0.29327 0.0
C2137 C 0.47185 0.13636 0.32595 0.0
C2138 C 0.47518 0.15071 0.35368 0.0
C2139 C 0.46819 0.1702 0.34889 0.0
C2140 C 0.4579 0.17539 0.31628 0.0
C2141 C 0.4545 0.16109 0.28848 0.0
H2142 H 0.47078 0.18128 0.37039 0.0
H2143 H 0.45558 0.0349 0.1117 0.0
H2144 H 0.60012 0.50265 0.83435 0.0
H2145 H 0.5972 0.48272 0.89111 0.0
H2146 H 0.66135 0.47926 0.89896 0.0
H2147 H 0.66437 0.49933 0.8414 0.0
H2148 H 0.63897 0.44336 0.92412 0.0
H2149 H 0.64382 0.51312 0.94547 0.0
H2150 H 0.63683 0.54886 0.93576 0.0
H2151 H 0.57541 0.53946 0.96509 0.0
H2152 H 0.58193 0.50351 0.97416 0.0
H2153 H 0.62989 0.42767 0.12372 0.0
H2154 H 0.64037 0.44174 0.06364 0.0
H2155 H 0.57876 0.44957 0.03204 0.0
H2156 H 0.56808 0.43519 0.0918 0.0
H2157 H 0.60487 0.48398 0.0213 0.0
H2158 H 0.60122 0.41285 0.99566 0.0
H2159 H 0.60988 0.37757 0.00684 0.0
H2160 H 0.67183 0.3908 0.98861 0.0
H2161 H 0.66356 0.42624 0.97786 0.0
C2162 C 0.61361 0.49708 0.84747 0.0
C2163 C 0.63247 0.50257 0.83384 0.0
C2164 C 0.61192 0.48576 0.87989 0.0
C2165 C 0.62905 0.47992 0.89948 0.0
C2166 C 0.64798 0.48374 0.88413 0.0
C2167 C 0.64969 0.49508 0.85128 0.0
C2168 C 0.62677 0.47217 0.93792 0.0
C2169 C 0.63189 0.45231 0.94566 0.0
C2170 C 0.61746 0.48393 0.96584 0.0
C2171 C 0.61334 0.50554 0.96016 0.0
C2172 C 0.62877 0.5186 0.94942 0.0
C2173 C 0.6249 0.53892 0.94409 0.0
C2174 C 0.60569 0.54642 0.94977 0.0
C2175 C 0.59028 0.53361 0.96067 0.0
C2176 C 0.59406 0.51326 0.96592 0.0
C2177 C 0.61856 0.43245 0.10406 0.0
C2178 C 0.59815 0.43034 0.11248 0.0
C2179 C 0.62459 0.44038 0.06973 0.0
C2180 C 0.61032 0.44656 0.04351 0.0
C2181 C 0.58996 0.44482 0.05203 0.0
C2182 C 0.5839 0.43659 0.08609 0.0
C2183 C 0.61656 0.45501 0.0072 0.0
C2184 C 0.6122 0.47509 -6e-05 0.0
C2185 C 0.62685 0.44354 0.9801 0.0
C2186 C 0.6318 0.42224 0.98642 0.0
C2187 C 0.61671 0.40827 0.99441 0.0
C2188 C 0.62154 0.38824 0.00059 0.0
C2189 C 0.6414 0.38195 0.99857 0.0
C2190 C 0.65646 0.39569 0.99025 0.0
C2191 C 0.65171 0.41575 0.98409 0.0
H2192 H 0.64511 0.36644 0.00335 0.0
H2193 H 0.60279 0.56218 0.9459 0.0
H2194 H 0.43845 0.38701 0.86259 0.0
H2195 H 0.4511 0.3814 0.92586 0.0
H2196 H 0.41699 0.43173 0.96582 0.0
H2197 H 0.40456 0.43765 0.90263 0.0
H2198 H 0.45347 0.4336 0.9912 0.0
H2199 H 0.40344 0.38305 0.98664 0.0
H2200 H 0.38515 0.35427 0.96064 0.0
H2201 H 0.43794 0.31819 0.9686 0.0
H2202 H 0.45665 0.34684 0.99416 0.0
H2203 H 0.48345 0.41759 0.176 0.0
H2204 H 0.45927 0.41754 0.12478 0.0
H2205 H 0.49322 0.37189 0.06822 0.0
H2206 H 0.51727 0.37159 0.11947 0.0
H2207 H 0.45277 0.36795 0.05562 0.0
H2208 H 0.50331 0.41997 0.0516 0.0
H2209 H 0.52175 0.44878 0.07718 0.0
H2210 H 0.46719 0.48217 0.08488 0.0
H2211 H 0.44839 0.45342 0.05981 0.0
C2212 C 0.43358 0.39684 0.88487 0.0
C2213 C 0.42061 0.41286 0.87751 0.0
C2214 C 0.4407 0.39352 0.92109 0.0
C2215 C 0.43477 0.40598 0.9507 0.0
C2216 C 0.42172 0.4219 0.94344 0.0
C2217 C 0.41469 0.42529 0.90724 0.0
C2218 C 0.44312 0.40315 0.98877 0.0
C2219 C 0.45292 0.41934 0.00559 0.0
C2220 C 0.44271 0.38446 0.0073 0.0
C2221 C 0.43149 0.36715 0.99206 0.0
C2222 C 0.4112 0.36902 0.98259 0.0
C2223 C 0.40074 0.35272 0.96798 0.0
C2224 C 0.41039 0.33443 0.9629 0.0
C2225 C 0.4305 0.33238 0.97253 0.0
C2226 C 0.44103 0.34864 0.98713 0.0
C2227 C 0.4855 0.40715 0.15317 0.0
C2228 C 0.50252 0.39492 0.15138 0.0
C2229 C 0.47167 0.40717 0.1239 0.0
C2230 C 0.47475 0.39505 0.09237 0.0
C2231 C 0.49065 0.38145 0.09222 0.0
C2232 C 0.50445 0.38137 0.12149 0.0
C2233 C 0.46316 0.39834 0.05764 0.0
C2234 C 0.45291 0.38226 0.0414 0.0
C2235 C 0.4631 0.41714 0.03954 0.0
C2236 C 0.47442 0.43448 0.05426 0.0
C2237 C 0.49523 0.43341 0.059 0.0
C2238 C 0.50575 0.44973 0.07337 0.0
C2239 C 0.49564 0.46728 0.08276 0.0
C2240 C 0.475 0.46856 0.07767 0.0
C2241 C 0.4644 0.45226 0.06338 0.0
H2242 H 0.50381 0.4799 0.09389 0.0
H2243 H 0.40227 0.32183 0.95158 0.0
H2244 H 0.40632 0.51995 0.81458 0.0
H2245 H 0.40706 0.54031 0.87116 0.0
H2246 H 0.35949 0.50508 0.91849 0.0
H2247 H 0.35862 0.48449 0.86196 0.0
H2248 H 0.35907 0.54755 0.93856 0.0
H2249 H 0.40258 0.48976 0.93816 0.0
H2250 H 0.42843 0.46783 0.91123 0.0
H2251 H 0.46997 0.51663 0.91014 0.0
H2252 H 0.44427 0.53894 0.93665 0.0
H2253 H 0.38082 0.56226 0.13155 0.0
H2254 H 0.37328 0.54772 0.07044 0.0
H2255 H 0.42754 0.57291 0.02565 0.0
H2256 H 0.43545 0.58707 0.08677 0.0
H2257 H 0.42353 0.53584 0.00353 0.0
H2258 H 0.38099 0.59344 0.00726 0.0
H2259 H 0.35532 0.61572 0.03374 0.0
H2260 H 0.31217 0.56839 0.02819 0.0
H2261 H 0.33767 0.54573 0.00214 0.0
C2262 C 0.39558 0.51686 0.83648 0.0
C2263 C 0.38272 0.50032 0.83411 0.0
C2264 C 0.39605 0.52852 0.86881 0.0
C2265 C 0.38361 0.52389 0.89914 0.0
C2266 C 0.36927 0.50878 0.89536 0.0
C2267 C 0.36884 0.49702 0.86305 0.0
C2268 C 0.38757 0.53281 0.93622 0.0
C2269 C 0.37305 0.5449 0.95304 0.0
C2270 C 0.40595 0.52948 0.95467 0.0
C2271 C 0.42145 0.51606 0.93902 0.0
C2272 C 0.41718 0.49585 0.93191 0.0
C2273 C 0.43181 0.48334 0.91678 0.0
C2274 C 0.45081 0.49084 0.9089 0.0
C2275 C 0.45524 0.51085 0.91622 0.0
C2276 C 0.44066 0.52343 0.93133 0.0
C2277 C 0.39119 0.56466 0.10873 0.0
C2278 C 0.40874 0.57585 0.11405 0.0
C2279 C 0.38677 0.55646 0.07374 0.0
C2280 C 0.39968 0.55951 0.04333 0.0
C2281 C 0.41733 0.57043 0.04871 0.0
C2282 C 0.42183 0.57851 0.0837 0.0
C2283 C 0.39513 0.5509 0.00606 0.0
C2284 C 0.40954 0.53868 0.98918 0.0
C2285 C 0.37668 0.55421 0.98763 0.0
C2286 C 0.36129 0.56783 0.00308 0.0
C2287 C 0.36606 0.58773 0.01194 0.0
C2288 C 0.35154 0.60044 0.02683 0.0
C2289 C 0.33214 0.59346 0.03273 0.0
C2290 C 0.32721 0.57377 0.02365 0.0
C2291 C 0.34169 0.561 0.00878 0.0
H2292 H 0.32092 0.60332 0.04427 0.0
H2293 H 0.4621 0.48113 0.89718 0.0
H2294 H 0.47769 0.63017 0.1117 0.0
H2295 H 0.5006 0.62757 0.05953 0.0
H2296 H 0.54598 0.60397 0.13305 0.0
H2297 H 0.52257 0.60577 0.18565 0.0
H2298 H 0.53306 0.64134 0.03767 0.0
H2299 H 0.57398 0.57177 0.09045 0.0
H2300 H 0.56845 0.54186 0.12957 0.0
H2301 H 0.50583 0.54365 0.10421 0.0
H2302 H 0.51096 0.57379 0.06562 0.0
H2303 H 0.59933 0.61939 0.88975 0.0
H2304 H 0.58606 0.62607 0.9523 0.0
H2305 H 0.5509 0.57206 0.94601 0.0
H2306 H 0.56548 0.56465 0.88471 0.0
H2307 H 0.56292 0.57499 0.01185 0.0
H2308 H 0.53194 0.62178 0.92826 0.0
H2309 H 0.5308 0.6485 0.88081 0.0
H2310 H 0.56199 0.68796 0.95536 0.0
H2311 H 0.56353 0.66136 0.0031 0.0
C2312 C 0.49264 0.62471 0.1171 0.0
C2313 C 0.49819 0.61783 0.15278 0.0
C2314 C 0.50578 0.62324 0.08708 0.0
C2315 C 0.52492 0.61515 0.09205 0.0
C2316 C 0.53111 0.60975 0.12827 0.0
C2317 C 0.51779 0.61096 0.15839 0.0
C2318 C 0.53766 0.61153 0.05871 0.0
C2319 C 0.53972 0.62686 0.03219 0.0
C2320 C 0.54612 0.59259 0.05108 0.0
C2321 C 0.54282 0.5751 0.0756 0.0
C2322 C 0.55902 0.56583 0.0935 0.0
C2323 C 0.55595 0.54887 0.1156 0.0
C2324 C 0.53679 0.54089 0.11946 0.0
C2325 C 0.52065 0.54989 0.10131 0.0
C2326 C 0.52359 0.567 0.07961 0.0
C2327 C 0.58879 0.60898 0.90195 0.0
C2328 C 0.5832 0.59164 0.88261 0.0
C2329 C 0.58116 0.61282 0.93756 0.0
C2330 C 0.56712 0.59981 0.95367 0.0
C2331 C 0.5617 0.58234 0.93429 0.0
C2332 C 0.56988 0.57817 0.89921 0.0
C2333 C 0.55764 0.60458 0.99018 0.0
C2334 C 0.55647 0.58955 0.01748 0.0
C2335 C 0.54902 0.62348 0.99763 0.0
C2336 C 0.54806 0.63952 0.96905 0.0
C2337 C 0.53867 0.63611 0.93442 0.0
C2338 C 0.53794 0.65124 0.9075 0.0
C2339 C 0.54638 0.66989 0.91502 0.0
C2340 C 0.55551 0.67348 0.94954 0.0
C2341 C 0.55631 0.6584 0.97655 0.0
H2342 H 0.54579 0.68158 0.89414 0.0
H2343 H 0.53444 0.52774 0.1365 0.0
H2344 H 0.56913 0.06746 0.14697 0.0
H2345 H 0.58008 0.05462 0.20749 0.0
H2346 H 0.63875 0.07949 0.1889 0.0
H2347 H 0.62814 0.09108 0.12706 0.0
H2348 H 0.64388 0.04688 0.21964 0.0
H2349 H 0.60285 0.10114 0.25195 0.0
H2350 H 0.5733 0.12307 0.2506 0.0
H2351 H 0.53698 0.07542 0.29331 0.0
H2352 H 0.56624 0.0531 0.29441 0.0
H2353 H 0.61869 0.02159 0.43322 0.0
H2354 H 0.62235 0.04643 0.3833 0.0
H2355 H 0.63161 0.99902 0.30325 0.0
H2356 H 0.62913 0.97454 0.35266 0.0
H2357 H 0.59919 0.05252 0.32977 0.0
H2358 H 0.65418 0.01121 0.22712 0.0
H2359 H 0.68604 0.99294 0.23104 0.0
H2360 H 0.69954 0.02209 0.33504 0.0
H2361 H 0.66791 0.04078 0.33152 0.0
C2362 C 0.58438 0.07008 0.15581 0.0
C2363 C 0.5978 0.08023 0.13249 0.0
C2364 C 0.59059 0.06296 0.19059 0.0
C2365 C 0.61011 0.06659 0.20342 0.0
C2366 C 0.6236 0.07656 0.17983 0.0
C2367 C 0.61755 0.08316 0.1445 0.0
C2368 C 0.61647 0.05933 0.2409 0.0
C2369 C 0.63422 0.04829 0.24384 0.0
C2370 C 0.60442 0.06197 0.27311 0.0
C2371 C 0.58677 0.07542 0.27314 0.0
C2372 C 0.58855 0.09531 0.26093 0.0
C2373 C 0.57185 0.10781 0.2602 0.0
C2374 C 0.55327 0.10064 0.27183 0.0
C2375 C 0.55138 0.08096 0.28433 0.0
C2376 C 0.56804 0.06839 0.28509 0.0
C2377 C 0.62208 0.01656 0.40512 0.0
C2378 C 0.62344 0.99608 0.39689 0.0
C2379 C 0.62411 0.03076 0.37659 0.0
C2380 C 0.62742 0.02469 0.33941 0.0
C2381 C 0.62963 0.00426 0.33168 0.0
C2382 C 0.62796 0.99017 0.3601 0.0
C2383 C 0.62598 0.03906 0.30783 0.0
C2384 C 0.60916 0.05152 0.30594 0.0
C2385 C 0.63934 0.03841 0.27712 0.0
C2386 C 0.65859 0.02739 0.27908 0.0
C2387 C 0.664 0.01387 0.25068 0.0
C2388 C 0.68202 0.00339 0.25288 0.0
C2389 C 0.69479 0.00633 0.28329 0.0
C2390 C 0.68961 0.01979 0.31154 0.0
C2391 C 0.67162 0.03031 0.30948 0.0
H2392 H 0.70872 0.99819 0.28495 0.0
H2393 H 0.54035 0.11033 0.27118 0.0
H2394 H 0.01697 0.39722 0.56603 0.0
H2395 H 0.03883 0.39928 0.62056 0.0
H2396 H 0.00384 0.35414 0.67625 0.0
H2397 H 0.98165 0.35223 0.62212 0.0
H2398 H 0.02098 0.41144 0.68848 0.0
H2399 H 0.036 0.33149 0.74177 0.0
H2400 H 0.04209 0.2978 0.71629 0.0
H2401 H 0.06617 0.32342 0.61582 0.0
H2402 H 0.0605 0.35724 0.64089 0.0
H2403 H 0.06149 0.3801 0.88515 0.0
H2404 H 0.04639 0.37106 0.82501 0.0
H2405 H 0.07356 0.42269 0.77376 0.0
H2406 H 0.08801 0.43217 0.83367 0.0
H2407 H 0.06066 0.36138 0.7587 0.0
H2408 H 0.04333 0.44216 0.70679 0.0
H2409 H 0.0345 0.47508 0.73291 0.0
H2410 H 0.01163 0.44696 0.83199 0.0
H2411 H 0.01998 0.41387 0.80624 0.0
C2412 C 0.01421 0.38734 0.58944 0.0
C2413 C 0.99728 0.37495 0.59014 0.0
C2414 C 0.02672 0.38855 0.62057 0.0
C2415 C 0.02278 0.37702 0.65249 0.0
C2416 C 0.00713 0.36313 0.65181 0.0
C2417 C 0.99445 0.36208 0.62083 0.0
C2418 C 0.03301 0.38163 0.6881 0.0
C2419 C 0.03003 0.40065 0.70352 0.0
C2420 C 0.04393 0.36718 0.70833 0.0
C2421 C 0.04762 0.34691 0.6931 0.0
C2422 C 0.04266 0.32994 0.7143 0.0
C2423 C 0.04603 0.31081 0.69991 0.0
C2424 C 0.05445 0.30848 0.66441 0.0
C2425 C 0.05957 0.32526 0.64325 0.0
C2426 C 0.05624 0.34441 0.65751 0.0
C2427 C 0.06413 0.38957 0.86107 0.0
C2428 C 0.07568 0.40701 0.86429 0.0
C2429 C 0.05559 0.38432 0.82671 0.0
C2430 C 0.05859 0.39636 0.79502 0.0
C2431 C 0.07063 0.41343 0.79801 0.0
C2432 C 0.0789 0.41883 0.83233 0.0
C2433 C 0.04893 0.39136 0.75888 0.0
C2434 C 0.0518 0.37225 0.74353 0.0
C2435 C 0.03757 0.40564 0.73885 0.0
C2436 C 0.03253 0.42552 0.75472 0.0
C2437 C 0.03639 0.44299 0.73413 0.0
C2438 C 0.03146 0.46169 0.74887 0.0
C2439 C 0.02259 0.46312 0.78416 0.0
C2440 C 0.01861 0.44585 0.80476 0.0
C2441 C 0.02348 0.42711 0.79012 0.0
H2442 H 0.01876 0.47761 0.79549 0.0
H2443 H 0.05705 0.29366 0.65332 0.0
H2444 H 0.35692 0.98395 0.41649 0.0
H2445 H 0.36167 0.96327 0.36024 0.0
H2446 H 0.41948 0.99026 0.3429 0.0
H2447 H 0.41431 0.01142 0.39718 0.0
H2448 H 0.40041 0.99191 0.28192 0.0
H2449 H 0.41231 0.94035 0.37242 0.0
H2450 H 0.40475 0.91891 0.42669 0.0
H2451 H 0.35304 0.89592 0.37023 0.0
H2452 H 0.36014 0.91744 0.31579 0.0
H2453 H 0.4411 0.9276 0.14374 0.0
H2454 H 0.43496 0.94168 0.20611 0.0
H2455 H 0.37228 0.92819 0.19538 0.0
H2456 H 0.37828 0.91428 0.13291 0.0
H2457 H 0.39192 0.91863 0.2694 0.0
H2458 H 0.38189 0.97147 0.1783 0.0
H2459 H 0.39219 0.99183 0.12416 0.0
H2460 H 0.44403 0.01168 0.18427 0.0
H2461 H 0.43422 0.99112 0.23856 0.0
C2462 C 0.37071 0.98516 0.40083 0.0
C2463 C 0.38517 0.99933 0.41089 0.0
C2464 C 0.37346 0.97335 0.36881 0.0
C2465 C 0.39094 0.97525 0.34721 0.0
C2466 C 0.40578 0.98867 0.35872 0.0
C2467 C 0.40283 1.00071 0.38989 0.0
C2468 C 0.39348 0.96454 0.31114 0.0
C2469 C 0.39877 0.97584 0.2795 0.0
C2470 C 0.39094 0.94363 0.30753 0.0
C2471 C 0.38663 0.93067 0.3402 0.0
C2472 C 0.39923 0.93085 0.3717 0.0
C2473 C 0.39505 0.91866 0.40247 0.0
C2474 C 0.37839 0.90611 0.40196 0.0
C2475 C 0.36591 0.90568 0.37062 0.0
C2476 C 0.37002 0.91786 0.33979 0.0
C2477 C 0.42607 0.92745 0.15493 0.0
C2478 C 0.41016 0.91992 0.13365 0.0
C2479 C 0.4226 0.93546 0.19042 0.0
C2480 C 0.40319 0.93586 0.20519 0.0
C2481 C 0.38736 0.92786 0.18443 0.0
C2482 C 0.39078 0.92013 0.14871 0.0
C2483 C 0.39922 0.94603 0.24106 0.0
C2484 C 0.39354 0.93467 0.27228 0.0
C2485 C 0.40175 0.96686 0.24462 0.0
C2486 C 0.40744 0.97956 0.21231 0.0
C2487 C 0.39558 0.98004 0.17986 0.0
C2488 C 0.40131 0.99163 0.14917 0.0
C2489 C 0.4188 0.00296 0.15071 0.0
C2490 C 0.43052 0.00284 0.18307 0.0
C2491 C 0.42487 0.99122 0.21381 0.0
H2492 H 0.42325 0.01184 0.12683 0.0
H2493 H 0.37517 0.89668 0.4258 0.0
H2494 H 0.01075 0.63889 0.60292 0.0
H2495 H 0.98741 0.64303 0.65495 0.0
H2496 H 0.96619 0.58285 0.63848 0.0
H2497 H 0.9889 0.5788 0.58586 0.0
H2498 H 0.93687 0.60652 0.66644 0.0
H2499 H 0.0071 0.5918 0.69503 0.0
H2500 H 0.04287 0.6 0.6895 0.0
H2501 H 0.0324 0.65727 0.73962 0.0
H2502 H 0.99648 0.64945 0.74527 0.0
H2503 H 0.91907 0.56304 0.84199 0.0
H2504 H 0.93162 0.57246 0.78036 0.0
H2505 H 0.94855 0.63029 0.82304 0.0
H2506 H 0.93636 0.62092 0.88499 0.0
H2507 H 0.9775 0.61483 0.78162 0.0
H2508 H 0.90792 0.62564 0.76653 0.0
H2509 H 0.87203 0.6177 0.76992 0.0
H2510 H 0.88048 0.56863 0.69419 0.0
H2511 H 0.91649 0.5761 0.69076 0.0
C2512 C 0.00066 0.62676 0.60962 0.0
C2513 C 0.00204 0.60832 0.59096 0.0
C2514 C 0.98735 0.62915 0.63938 0.0
C2515 C 0.97553 0.61303 0.65123 0.0
C2516 C 0.97531 0.59542 0.63001 0.0
C2517 C 0.98841 0.5931 0.6 0.0
C2518 C 0.96601 0.61308 0.68863 0.0
C2519 C 0.94568 0.60837 0.69168 0.0
C2520 C 0.97746 0.61591 0.72153 0.0
C2521 C 0.99914 0.62014 0.72018 0.0
C2522 C 0.01245 0.60612 0.7049 0.0
C2523 C 0.03273 0.61071 0.70166 0.0
C2524 C 0.03987 0.6292 0.71382 0.0
C2525 C 0.02681 0.643 0.72997 0.0
C2526 C 0.00651 0.6385 0.73328 0.0
C2527 C 0.92551 0.57775 0.83836 0.0
C2528 C 0.92668 0.59123 0.86845 0.0
C2529 C 0.93251 0.58318 0.803 0.0
C2530 C 0.94066 0.60222 0.79698 0.0
C2531 C 0.94217 0.61558 0.82706 0.0
C2532 C 0.93522 0.61016 0.86246 0.0
C2533 C 0.94838 0.60779 0.75958 0.0
C2534 C 0.96845 0.61346 0.75655 0.0
C2535 C 0.93663 0.60586 0.72681 0.0
C2536 C 0.91495 0.60136 0.72858 0.0
C2537 C 0.90216 0.61307 0.75079 0.0
C2538 C 0.88179 0.60866 0.7527 0.0
C2539 C 0.87399 0.59265 0.73233 0.0
C2540 C 0.88655 0.58103 0.70996 0.0
C2541 C 0.90694 0.58536 0.70798 0.0
H2542 H 0.85821 0.58926 0.73385 0.0
H2543 H 0.05552 0.63281 0.71076 0.0
loop_
_geom_bond_atom_site_label_1
_geom_bond_atom_site_label_2
_geom_bond_distance
_geom_bond_site_symmetry_2
_ccdc_geom_bond_type
Co0 O3 1.970 . S
Co0 N17 1.989 . S
Co0 O25 1.967 . S
Co0 O32 1.920 . S
Co1 O4 1.966 . S
Co1 N10 2.022 . S
Co1 N18 1.993 . S
Co1 O26 1.941 . S
C2 O3 1.258 . S
C2 O4 1.263 . S
O3 Co0 1.970 . S
O3 C2 1.258 . S
O4 Co1 1.966 . S
O4 C2 1.263 . S
C5 O6 1.235 . S
C5 O32 1.289 . S
O6 C5 1.235 . S
C7 C9 1.400 . S
C7 N10 1.351 . S
C7 C12 1.501 . S
C8 C9 1.387 . S
C8 N11 1.341 . S
C9 C7 1.400 . S
C9 C8 1.387 . S
N10 Co1 2.022 . S
N10 C7 1.351 . S
N10 N11 1.365 . S
N11 C8 1.341 . S
N11 N10 1.365 . S
N11 H31 0.862 . S
C12 C7 1.501 . S
C12 H13 0.961 . S
C12 H14 0.961 . S
C12 H15 0.960 . S
H13 C12 0.961 . S
H14 C12 0.961 . S
H15 C12 0.960 . S
C16 N17 1.342 . S
C16 C20 1.401 . S
C16 C21 1.499 . S
N17 Co0 1.989 . S
N17 C16 1.342 . S
N17 N18 1.388 . S
N18 Co1 1.993 . S
N18 N17 1.388 . S
N18 C19 1.346 . S
C19 N18 1.346 . S
C19 C20 1.396 . S
C19 C29 1.510 . S
C20 C16 1.401 . S
C20 C19 1.396 . S
C21 C16 1.499 . S
C21 H22 0.959 . S
C21 H23 0.960 . S
C21 H24 0.961 . S
H22 C21 0.959 . S
H23 C21 0.960 . S
H24 C21 0.961 . S
O25 Co0 1.967 . S
O25 C33 1.258 . S
O26 Co1 1.941 . S
O26 C33 1.266 . S
H27 C29 0.959 . S
H28 C29 0.961 . S
C29 C19 1.510 . S
C29 H27 0.959 . S
C29 H28 0.961 . S
C29 H30 0.960 . S
H30 C29 0.960 . S
H31 N11 0.862 . S
O32 Co0 1.920 . S
O32 C5 1.289 . S
C33 O25 1.258 . S
C33 O26 1.266 . S
Co34 O37 1.970 . S
Co34 N51 1.989 . S
Co34 O59 1.967 . S
Co34 O66 1.920 . S
Co35 O38 1.966 . S
Co35 N44 2.022 . S
Co35 N52 1.993 . S
Co35 O60 1.941 . S
C36 O37 1.258 . S
C36 O38 1.263 . S
O37 Co34 1.970 . S
O37 C36 1.258 . S
O38 Co35 1.966 . S
O38 C36 1.263 . S
C39 O40 1.235 . S
C39 O66 1.289 . S
O40 C39 1.235 . S
C41 C43 1.400 . S
C41 N44 1.351 . S
C41 C46 1.501 . S
C42 C43 1.387 . S
C42 N45 1.341 . S
C43 C41 1.400 . S
C43 C42 1.387 . S
N44 Co35 2.022 . S
N44 C41 1.351 . S
N44 N45 1.365 . S
N45 C42 1.341 . S
N45 N44 1.365 . S
N45 H65 0.862 . S
C46 C41 1.501 . S
C46 H47 0.961 . S
C46 H48 0.961 . S
C46 H49 0.960 . S
H47 C46 0.961 . S
H48 C46 0.961 . S
H49 C46 0.960 . S
C50 N51 1.342 . S
C50 C54 1.401 . S
C50 C55 1.499 . S
N51 Co34 1.989 . S
N51 C50 1.342 . S
N51 N52 1.388 . S
N52 Co35 1.993 . S
N52 N51 1.388 . S
N52 C53 1.346 . S
C53 N52 1.346 . S
C53 C54 1.396 . S
C53 C63 1.510 . S
C54 C50 1.401 . S
C54 C53 1.396 . S
C55 C50 1.499 . S
C55 H56 0.959 . S
C55 H57 0.960 . S
C55 H58 0.961 . S
H56 C55 0.959 . S
H57 C55 0.960 . S
H58 C55 0.961 . S
O59 Co34 1.967 . S
O59 C67 1.258 . S
O60 Co35 1.941 . S
O60 C67 1.266 . S
H61 C63 0.959 . S
H62 C63 0.961 . S
C63 C53 1.510 . S
C63 H61 0.959 . S
C63 H62 0.961 . S
C63 H64 0.960 . S
H64 C63 0.960 . S
H65 N45 0.862 . S
O66 Co34 1.920 . S
O66 C39 1.289 . S
C67 O59 1.258 . S
C67 O60 1.266 . S
Co68 O71 1.970 . S
Co68 N85 1.989 . S
Co68 O93 1.967 . S
Co68 O100 1.920 . S
Co69 O72 1.966 . S
Co69 N78 2.022 . S
Co69 N86 1.993 . S
Co69 O94 1.941 . S
C70 O71 1.258 . S
C70 O72 1.263 . S
O71 Co68 1.970 . S
O71 C70 1.258 . S
O72 Co69 1.966 . S
O72 C70 1.263 . S
C73 O74 1.235 . S
C73 O100 1.289 . S
O74 C73 1.235 . S
C75 C77 1.400 . S
C75 N78 1.351 . S
C75 C80 1.501 . S
C76 C77 1.387 . S
C76 N79 1.341 . S
C77 C75 1.400 . S
C77 C76 1.387 . S
N78 Co69 2.022 . S
N78 C75 1.351 . S
N78 N79 1.365 . S
N79 C76 1.341 . S
N79 N78 1.365 . S
N79 H99 0.862 . S
C80 C75 1.501 . S
C80 H81 0.961 . S
C80 H82 0.961 . S
C80 H83 0.960 . S
H81 C80 0.961 . S
H82 C80 0.961 . S
H83 C80 0.960 . S
C84 N85 1.342 . S
C84 C88 1.401 . S
C84 C89 1.499 . S
N85 Co68 1.989 . S
N85 C84 1.342 . S
N85 N86 1.388 . S
N86 Co69 1.993 . S
N86 N85 1.388 . S
N86 C87 1.346 . S
C87 N86 1.346 . S
C87 C88 1.396 . S
C87 C97 1.510 . S
C88 C84 1.401 . S
C88 C87 1.396 . S
C89 C84 1.499 . S
C89 H90 0.959 . S
C89 H91 0.960 . S
C89 H92 0.961 . S
H90 C89 0.959 . S
H91 C89 0.960 . S
H92 C89 0.961 . S
O93 Co68 1.967 . S
O93 C101 1.258 . S
O94 Co69 1.941 . S
O94 C101 1.266 . S
H95 C97 0.959 . S
H96 C97 0.961 . S
C97 C87 1.510 . S
C97 H95 0.959 . S
C97 H96 0.961 . S
C97 H98 0.960 . S
H98 C97 0.960 . S
H99 N79 0.862 . S
O100 Co68 1.920 . S
O100 C73 1.289 . S
C101 O93 1.258 . S
C101 O94 1.266 . S
Co102 O105 1.970 . S
Co102 N119 1.989 . S
Co102 O127 1.967 . S
Co102 O134 1.920 . S
Co103 O106 1.966 . S
Co103 N112 2.022 . S
Co103 N120 1.993 . S
Co103 O128 1.941 . S
C104 O105 1.258 . S
C104 O106 1.263 . S
O105 Co102 1.970 . S
O105 C104 1.258 . S
O106 Co103 1.966 . S
O106 C104 1.263 . S
C107 O108 1.235 . S
C107 O134 1.289 . S
O108 C107 1.235 . S
C109 C111 1.400 . S
C109 N112 1.351 . S
C109 C114 1.501 . S
C110 C111 1.387 . S
C110 N113 1.341 . S
C111 C109 1.400 . S
C111 C110 1.387 . S
N112 Co103 2.022 . S
N112 C109 1.351 . S
N112 N113 1.365 . S
N113 C110 1.341 . S
N113 N112 1.365 . S
N113 H133 0.862 . S
C114 C109 1.501 . S
C114 H115 0.961 . S
C114 H116 0.961 . S
C114 H117 0.960 . S
H115 C114 0.961 . S
H116 C114 0.961 . S
H117 C114 0.960 . S
C118 N119 1.342 . S
C118 C122 1.401 . S
C118 C123 1.499 . S
N119 Co102 1.989 . S
N119 C118 1.342 . S
N119 N120 1.388 . S
N120 Co103 1.993 . S
N120 N119 1.388 . S
N120 C121 1.346 . S
C121 N120 1.346 . S
C121 C122 1.396 . S
C121 C131 1.510 . S
C122 C118 1.401 . S
C122 C121 1.396 . S
C123 C118 1.499 . S
C123 H124 0.959 . S
C123 H125 0.960 . S
C123 H126 0.961 . S
H124 C123 0.959 . S
H125 C123 0.960 . S
H126 C123 0.961 . S
O127 Co102 1.967 . S
O127 C135 1.258 . S
O128 Co103 1.941 . S
O128 C135 1.266 . S
H129 C131 0.959 . S
H130 C131 0.961 . S
C131 C121 1.510 . S
C131 H129 0.959 . S
C131 H130 0.961 . S
C131 H132 0.960 . S
H132 C131 0.960 . S
H133 N113 0.862 . S
O134 Co102 1.920 . S
O134 C107 1.289 . S
C135 O127 1.258 . S
C135 O128 1.266 . S
Co136 O139 1.970 . S
Co136 N153 1.989 . S
Co136 O161 1.967 . S
Co136 O168 1.920 . S
Co137 O140 1.966 . S
Co137 N146 2.022 . S
Co137 N154 1.993 . S
Co137 O162 1.941 . S
C138 O139 1.258 . S
C138 O140 1.263 . S
O139 Co136 1.970 . S
O139 C138 1.258 . S
O140 Co137 1.966 . S
O140 C138 1.263 . S
C141 O142 1.235 . S
C141 O168 1.289 . S
O142 C141 1.235 . S
C143 C145 1.400 . S
C143 N146 1.351 1_554 S
C143 C148 1.501 . S
C144 C145 1.387 . S
C144 N147 1.341 1_554 S
C145 C143 1.400 . S
C145 C144 1.387 . S
N146 Co137 2.022 . S
N146 C143 1.351 1_556 S
N146 N147 1.365 . S
N147 C144 1.341 1_556 S
N147 N146 1.365 . S
N147 H167 0.862 . S
C148 C143 1.501 . S
C148 H149 0.961 . S
C148 H150 0.961 . S
C148 H151 0.960 . S
H149 C148 0.961 . S
H150 C148 0.961 . S
H151 C148 0.960 . S
C152 N153 1.342 . S
C152 C156 1.401 . S
C152 C157 1.499 . S
N153 Co136 1.989 . S
N153 C152 1.342 . S
N153 N154 1.388 . S
N154 Co137 1.993 . S
N154 N153 1.388 . S
N154 C155 1.346 . S
C155 N154 1.346 . S
C155 C156 1.396 . S
C155 C165 1.510 . S
C156 C152 1.401 . S
C156 C155 1.396 . S
C157 C152 1.499 . S
C157 H158 0.959 . S
C157 H159 0.960 . S
C157 H160 0.961 . S
H158 C157 0.959 . S
H159 C157 0.960 . S
H160 C157 0.961 . S
O161 Co136 1.967 . S
O161 C169 1.258 . S
O162 Co137 1.941 . S
O162 C169 1.266 . S
H163 C165 0.959 . S
H164 C165 0.961 1_554 S
C165 C155 1.510 . S
C165 H163 0.959 . S
C165 H164 0.961 1_556 S
C165 H166 0.960 . S
H166 C165 0.960 . S
H167 N147 0.862 . S
O168 Co136 1.920 . S
O168 C141 1.289 . S
C169 O161 1.258 . S
C169 O162 1.266 . S
Co170 O173 1.970 . S
Co170 N187 1.989 . S
Co170 O195 1.967 . S
Co170 O202 1.920 . S
Co171 O174 1.966 . S
Co171 N180 2.022 . S
Co171 N188 1.993 . S
Co171 O196 1.941 . S
C172 O173 1.258 . S
C172 O174 1.263 . S
O173 Co170 1.970 . S
O173 C172 1.258 . S
O174 Co171 1.966 . S
O174 C172 1.263 . S
C175 O176 1.235 . S
C175 O202 1.289 . S
O176 C175 1.235 . S
C177 C179 1.400 . S
C177 N180 1.351 1_556 S
C177 C182 1.501 . S
C178 C179 1.387 . S
C178 N181 1.341 1_556 S
C179 C177 1.400 . S
C179 C178 1.387 . S
N180 Co171 2.022 . S
N180 C177 1.351 1_554 S
N180 N181 1.365 . S
N181 C178 1.341 1_554 S
N181 N180 1.365 . S
N181 H201 0.862 . S
C182 C177 1.501 . S
C182 H183 0.961 . S
C182 H184 0.961 . S
C182 H185 0.960 . S
H183 C182 0.961 . S
H184 C182 0.961 . S
H185 C182 0.960 . S
C186 N187 1.342 . S
C186 C190 1.401 . S
C186 C191 1.499 . S
N187 Co170 1.989 . S
N187 C186 1.342 . S
N187 N188 1.388 . S
N188 Co171 1.993 . S
N188 N187 1.388 . S
N188 C189 1.346 . S
C189 N188 1.346 . S
C189 C190 1.396 . S
C189 C199 1.510 . S
C190 C186 1.401 . S
C190 C189 1.396 . S
C191 C186 1.499 . S
C191 H192 0.959 . S
C191 H193 0.960 . S
C191 H194 0.961 . S
H192 C191 0.959 . S
H193 C191 0.960 . S
H194 C191 0.961 . S
O195 Co170 1.967 . S
O195 C203 1.258 . S
O196 Co171 1.941 . S
O196 C203 1.266 . S
H197 C199 0.959 . S
H198 C199 0.961 1_556 S
C199 C189 1.510 . S
C199 H197 0.959 . S
C199 H198 0.961 1_554 S
C199 H200 0.960 . S
H200 C199 0.960 . S
H201 N181 0.862 . S
O202 Co170 1.920 . S
O202 C175 1.289 . S
C203 O195 1.258 . S
C203 O196 1.266 . S
Co204 O207 1.970 . S
Co204 N221 1.989 . S
Co204 O229 1.967 . S
Co204 O236 1.920 . S
Co205 O208 1.966 . S
Co205 N214 2.022 . S
Co205 N222 1.993 . S
Co205 O230 1.941 . S
C206 O207 1.258 . S
C206 O208 1.263 . S
O207 Co204 1.970 . S
O207 C206 1.258 . S
O208 Co205 1.966 . S
O208 C206 1.263 . S
C209 O210 1.235 . S
C209 O236 1.289 . S
O210 C209 1.235 . S
C211 C213 1.400 . S
C211 N214 1.351 1_554 S
C211 C216 1.501 . S
C212 C213 1.387 . S
C212 N215 1.341 1_554 S
C213 C211 1.400 . S
C213 C212 1.387 . S
N214 Co205 2.022 . S
N214 C211 1.351 1_556 S
N214 N215 1.365 . S
N215 C212 1.341 1_556 S
N215 N214 1.365 . S
N215 H235 0.862 . S
C216 C211 1.501 . S
C216 H217 0.961 . S
C216 H218 0.961 . S
C216 H219 0.960 . S
H217 C216 0.961 . S
H218 C216 0.961 . S
H219 C216 0.960 . S
C220 N221 1.342 . S
C220 C224 1.401 . S
C220 C225 1.499 . S
N221 Co204 1.989 . S
N221 C220 1.342 . S
N221 N222 1.388 . S
N222 Co205 1.993 . S
N222 N221 1.388 . S
N222 C223 1.346 . S
C223 N222 1.346 . S
C223 C224 1.396 . S
C223 C233 1.510 . S
C224 C220 1.401 . S
C224 C223 1.396 . S
C225 C220 1.499 . S
C225 H226 0.959 . S
C225 H227 0.960 . S
C225 H228 0.961 . S
H226 C225 0.959 . S
H227 C225 0.960 . S
H228 C225 0.961 . S
O229 Co204 1.967 . S
O229 C237 1.258 . S
O230 Co205 1.941 . S
O230 C237 1.266 . S
H231 C233 0.959 . S
H232 C233 0.961 1_554 S
C233 C223 1.510 . S
C233 H231 0.959 . S
C233 H232 0.961 1_556 S
C233 H234 0.960 . S
H234 C233 0.960 . S
H235 N215 0.862 . S
O236 Co204 1.920 . S
O236 C209 1.289 . S
C237 O229 1.258 . S
C237 O230 1.266 . S
Co238 O241 1.970 . S
Co238 N255 1.989 . S
Co238 O263 1.967 . S
Co238 O270 1.920 . S
Co239 O242 1.966 . S
Co239 N248 2.022 . S
Co239 N256 1.993 . S
Co239 O264 1.941 . S
C240 O241 1.258 . S
C240 O242 1.263 . S
O241 Co238 1.970 . S
O241 C240 1.258 . S
O242 Co239 1.966 . S
O242 C240 1.263 . S
C243 O244 1.235 . S
C243 O270 1.289 . S
O244 C243 1.235 . S
C245 C247 1.400 . S
C245 N248 1.351 1_556 S
C245 C250 1.501 . S
C246 C247 1.387 . S
C246 N249 1.341 1_556 S
C247 C245 1.400 . S
C247 C246 1.387 . S
N248 Co239 2.022 . S
N248 C245 1.351 1_554 S
N248 N249 1.365 . S
N249 C246 1.341 1_554 S
N249 N248 1.365 . S
N249 H269 0.862 . S
C250 C245 1.501 . S
C250 H251 0.961 . S
C250 H252 0.961 . S
C250 H253 0.960 . S
H251 C250 0.961 . S
H252 C250 0.961 . S
H253 C250 0.960 . S
C254 N255 1.342 . S
C254 C258 1.401 . S
C254 C259 1.499 . S
N255 Co238 1.989 . S
N255 C254 1.342 . S
N255 N256 1.388 . S
N256 Co239 1.993 . S
N256 N255 1.388 . S
N256 C257 1.346 . S
C257 N256 1.346 . S
C257 C258 1.396 . S
C257 C267 1.510 . S
C258 C254 1.401 . S
C258 C257 1.396 . S
C259 C254 1.499 . S
C259 H260 0.959 . S
C259 H261 0.960 . S
C259 H262 0.961 . S
H260 C259 0.959 . S
H261 C259 0.960 . S
H262 C259 0.961 . S
O263 Co238 1.967 . S
O263 C271 1.258 . S
O264 Co239 1.941 . S
O264 C271 1.266 . S
H265 C267 0.959 . S
H266 C267 0.961 1_556 S
C267 C257 1.510 . S
C267 H265 0.959 . S
C267 H266 0.961 1_554 S
C267 H268 0.960 . S
H268 C267 0.960 . S
H269 N249 0.862 . S
O270 Co238 1.920 . S
O270 C243 1.289 . S
C271 O263 1.258 . S
C271 O264 1.266 . S
Co272 O275 1.970 . S
Co272 N289 1.989 . S
Co272 O297 1.967 . S
Co272 O304 1.920 . S
Co273 O276 1.966 . S
Co273 N282 2.022 . S
Co273 N290 1.993 . S
Co273 O298 1.941 . S
C274 O275 1.258 . S
C274 O276 1.263 . S
O275 Co272 1.970 . S
O275 C274 1.258 . S
O276 Co273 1.966 . S
O276 C274 1.263 . S
C277 O278 1.235 . S
C277 O304 1.289 . S
O278 C277 1.235 . S
C279 C281 1.400 . S
C279 N282 1.351 . S
C279 C284 1.501 . S
C280 C281 1.387 . S
C280 N283 1.341 . S
C281 C279 1.400 . S
C281 C280 1.387 . S
N282 Co273 2.022 . S
N282 C279 1.351 . S
N282 N283 1.365 . S
N283 C280 1.341 . S
N283 N282 1.365 . S
N283 H303 0.862 . S
C284 C279 1.501 . S
C284 H285 0.961 . S
C284 H286 0.961 . S
C284 H287 0.960 . S
H285 C284 0.961 . S
H286 C284 0.961 . S
H287 C284 0.960 . S
C288 N289 1.342 . S
C288 C292 1.401 . S
C288 C293 1.499 . S
N289 Co272 1.989 . S
N289 C288 1.342 . S
N289 N290 1.388 . S
N290 Co273 1.993 . S
N290 N289 1.388 . S
N290 C291 1.346 . S
C291 N290 1.346 . S
C291 C292 1.396 . S
C291 C301 1.510 . S
C292 C288 1.401 . S
C292 C291 1.396 . S
C293 C288 1.499 . S
C293 H294 0.959 . S
C293 H295 0.960 . S
C293 H296 0.961 . S
H294 C293 0.959 . S
H295 C293 0.960 . S
H296 C293 0.961 . S
O297 Co272 1.967 . S
O297 C305 1.258 . S
O298 Co273 1.941 . S
O298 C305 1.266 . S
H299 C301 0.959 . S
H300 C301 0.961 . S
C301 C291 1.510 . S
C301 H299 0.959 . S
C301 H300 0.961 . S
C301 H302 0.960 . S
H302 C301 0.960 . S
H303 N283 0.862 . S
O304 Co272 1.920 . S
O304 C277 1.289 . S
C305 O297 1.258 . S
C305 O298 1.266 . S
Co306 O309 1.970 . S
Co306 N323 1.989 . S
Co306 O331 1.967 . S
Co306 O338 1.920 . S
Co307 O310 1.966 . S
Co307 N316 2.022 . S
Co307 N324 1.993 . S
Co307 O332 1.941 . S
C308 O309 1.258 . S
C308 O310 1.263 . S
O309 Co306 1.970 . S
O309 C308 1.258 . S
O310 Co307 1.966 . S
O310 C308 1.263 . S
C311 O312 1.235 . S
C311 O338 1.289 . S
O312 C311 1.235 . S
C313 C315 1.400 . S
C313 N316 1.351 . S
C313 C318 1.501 . S
C314 C315 1.387 . S
C314 N317 1.341 . S
C315 C313 1.400 . S
C315 C314 1.387 . S
N316 Co307 2.022 . S
N316 C313 1.351 . S
N316 N317 1.365 . S
N317 C314 1.341 . S
N317 N316 1.365 . S
N317 H337 0.862 . S
C318 C313 1.501 . S
C318 H319 0.961 . S
C318 H320 0.961 . S
C318 H321 0.960 . S
H319 C318 0.961 . S
H320 C318 0.961 . S
H321 C318 0.960 . S
C322 N323 1.342 . S
C322 C326 1.401 . S
C322 C327 1.499 . S
N323 Co306 1.989 . S
N323 C322 1.342 . S
N323 N324 1.388 . S
N324 Co307 1.993 . S
N324 N323 1.388 . S
N324 C325 1.346 . S
C325 N324 1.346 . S
C325 C326 1.396 . S
C325 C335 1.510 . S
C326 C322 1.401 . S
C326 C325 1.396 . S
C327 C322 1.499 . S
C327 H328 0.959 . S
C327 H329 0.960 . S
C327 H330 0.961 . S
H328 C327 0.959 . S
H329 C327 0.960 . S
H330 C327 0.961 . S
O331 Co306 1.967 . S
O331 C339 1.258 . S
O332 Co307 1.941 . S
O332 C339 1.266 . S
H333 C335 0.959 . S
H334 C335 0.961 . S
C335 C325 1.510 . S
C335 H333 0.959 . S
C335 H334 0.961 . S
C335 H336 0.960 . S
H336 C335 0.960 . S
H337 N317 0.862 . S
O338 Co306 1.920 . S
O338 C311 1.289 . S
C339 O331 1.258 . S
C339 O332 1.266 . S
Co340 O343 1.970 . S
Co340 N357 1.989 . S
Co340 O365 1.967 . S
Co340 O372 1.920 . S
Co341 O344 1.966 . S
Co341 N350 2.022 . S
Co341 N358 1.993 . S
Co341 O366 1.941 . S
C342 O343 1.258 . S
C342 O344 1.263 . S
O343 Co340 1.970 . S
O343 C342 1.258 . S
O344 Co341 1.966 . S
O344 C342 1.263 . S
C345 O346 1.235 . S
C345 O372 1.289 . S
O346 C345 1.235 . S
C347 C349 1.400 . S
C347 N350 1.351 . S
C347 C352 1.501 . S
C348 C349 1.387 . S
C348 N351 1.341 . S
C349 C347 1.400 . S
C349 C348 1.387 . S
N350 Co341 2.022 . S
N350 C347 1.351 . S
N350 N351 1.365 . S
N351 C348 1.341 . S
N351 N350 1.365 . S
N351 H371 0.862 . S
C352 C347 1.501 . S
C352 H353 0.961 . S
C352 H354 0.961 . S
C352 H355 0.960 . S
H353 C352 0.961 . S
H354 C352 0.961 . S
H355 C352 0.960 . S
C356 N357 1.342 . S
C356 C360 1.401 . S
C356 C361 1.499 . S
N357 Co340 1.989 . S
N357 C356 1.342 . S
N357 N358 1.388 . S
N358 Co341 1.993 . S
N358 N357 1.388 . S
N358 C359 1.346 . S
C359 N358 1.346 . S
C359 C360 1.396 . S
C359 C369 1.510 . S
C360 C356 1.401 . S
C360 C359 1.396 . S
C361 C356 1.499 . S
C361 H362 0.959 . S
C361 H363 0.960 . S
C361 H364 0.961 . S
H362 C361 0.959 . S
H363 C361 0.960 . S
H364 C361 0.961 . S
O365 Co340 1.967 . S
O365 C373 1.258 . S
O366 Co341 1.941 . S
O366 C373 1.266 . S
H367 C369 0.959 . S
H368 C369 0.961 . S
C369 C359 1.510 . S
C369 H367 0.959 . S
C369 H368 0.961 . S
C369 H370 0.960 . S
H370 C369 0.960 . S
H371 N351 0.862 . S
O372 Co340 1.920 . S
O372 C345 1.289 . S
C373 O365 1.258 . S
C373 O366 1.266 . S
Co374 O377 1.970 . S
Co374 N391 1.989 . S
Co374 O399 1.967 . S
Co374 O406 1.920 . S
Co375 O378 1.966 . S
Co375 N384 2.022 . S
Co375 N392 1.993 . S
Co375 O400 1.941 . S
C376 O377 1.258 . S
C376 O378 1.263 . S
O377 Co374 1.970 . S
O377 C376 1.258 . S
O378 Co375 1.966 . S
O378 C376 1.263 . S
C379 O380 1.235 . S
C379 O406 1.289 . S
O380 C379 1.235 . S
C381 C383 1.400 . S
C381 N384 1.351 . S
C381 C386 1.501 . S
C382 C383 1.387 . S
C382 N385 1.341 . S
C383 C381 1.400 . S
C383 C382 1.387 . S
N384 Co375 2.022 . S
N384 C381 1.351 . S
N384 N385 1.365 . S
N385 C382 1.341 . S
N385 N384 1.365 . S
N385 H405 0.862 . S
C386 C381 1.501 . S
C386 H387 0.961 . S
C386 H388 0.961 . S
C386 H389 0.960 . S
H387 C386 0.961 . S
H388 C386 0.961 . S
H389 C386 0.960 . S
C390 N391 1.342 . S
C390 C394 1.401 . S
C390 C395 1.499 . S
N391 Co374 1.989 . S
N391 C390 1.342 . S
N391 N392 1.388 . S
N392 Co375 1.993 . S
N392 N391 1.388 . S
N392 C393 1.346 . S
C393 N392 1.346 . S
C393 C394 1.396 . S
C393 C403 1.510 . S
C394 C390 1.401 . S
C394 C393 1.396 . S
C395 C390 1.499 . S
C395 H396 0.959 . S
C395 H397 0.960 . S
C395 H398 0.961 . S
H396 C395 0.959 . S
H397 C395 0.960 . S
H398 C395 0.961 . S
O399 Co374 1.967 . S
O399 C407 1.258 . S
O400 Co375 1.941 . S
O400 C407 1.266 . S
H401 C403 0.959 . S
H402 C403 0.961 . S
C403 C393 1.510 . S
C403 H401 0.959 . S
C403 H402 0.961 . S
C403 H404 0.960 . S
H404 C403 0.960 . S
H405 N385 0.862 . S
O406 Co374 1.920 . S
O406 C379 1.289 . S
C407 O399 1.258 . S
C407 O400 1.266 . S
Co408 O411 1.970 . S
Co408 N425 1.989 . S
Co408 O433 1.967 . S
Co408 O440 1.920 . S
Co409 O412 1.966 . S
Co409 N418 2.022 . S
Co409 N426 1.993 . S
Co409 O434 1.941 . S
C410 O411 1.258 . S
C410 O412 1.263 . S
O411 Co408 1.970 . S
O411 C410 1.258 . S
O412 Co409 1.966 . S
O412 C410 1.263 . S
C413 O414 1.235 . S
C413 O440 1.289 . S
O414 C413 1.235 . S
C415 C417 1.400 . S
C415 N418 1.351 . S
C415 C420 1.501 . S
C416 C417 1.387 . S
C416 N419 1.341 . S
C417 C415 1.400 . S
C417 C416 1.387 . S
N418 Co409 2.022 . S
N418 C415 1.351 . S
N418 N419 1.365 . S
N419 C416 1.341 . S
N419 N418 1.365 . S
N419 H439 0.862 . S
C420 C415 1.501 . S
C420 H421 0.961 . S
C420 H422 0.961 . S
C420 H423 0.960 . S
H421 C420 0.961 . S
H422 C420 0.961 . S
H423 C420 0.960 . S
C424 N425 1.342 . S
C424 C428 1.401 . S
C424 C429 1.499 . S
N425 Co408 1.989 . S
N425 C424 1.342 . S
N425 N426 1.388 . S
N426 Co409 1.993 . S
N426 N425 1.388 . S
N426 C427 1.346 . S
C427 N426 1.346 . S
C427 C428 1.396 . S
C427 C437 1.510 . S
C428 C424 1.401 . S
C428 C427 1.396 . S
C429 C424 1.499 . S
C429 H430 0.959 . S
C429 H431 0.960 . S
C429 H432 0.961 . S
H430 C429 0.959 . S
H431 C429 0.960 . S
H432 C429 0.961 . S
O433 Co408 1.967 . S
O433 C441 1.258 . S
O434 Co409 1.941 . S
O434 C441 1.266 . S
H435 C437 0.959 . S
H436 C437 0.961 . S
C437 C427 1.510 . S
C437 H435 0.959 . S
C437 H436 0.961 . S
C437 H438 0.960 . S
H438 C437 0.960 . S
H439 N419 0.862 . S
O440 Co408 1.920 . S
O440 C413 1.289 . S
C441 O433 1.258 . S
C441 O434 1.266 . S
Co442 O445 1.970 . S
Co442 N459 1.989 . S
Co442 O467 1.967 . S
Co442 O474 1.920 . S
Co443 O446 1.966 . S
Co443 N452 2.022 . S
Co443 N460 1.993 . S
Co443 O468 1.941 . S
C444 O445 1.258 . S
C444 O446 1.263 . S
O445 Co442 1.970 . S
O445 C444 1.258 . S
O446 Co443 1.966 . S
O446 C444 1.263 . S
C447 O448 1.235 . S
C447 O474 1.289 . S
O448 C447 1.235 . S
C449 C451 1.400 . S
C449 N452 1.351 . S
C449 C454 1.501 . S
C450 C451 1.387 . S
C450 N453 1.341 . S
C451 C449 1.400 . S
C451 C450 1.387 . S
N452 Co443 2.022 . S
N452 C449 1.351 . S
N452 N453 1.365 . S
N453 C450 1.341 . S
N453 N452 1.365 . S
N453 H473 0.862 . S
C454 C449 1.501 . S
C454 H455 0.961 . S
C454 H456 0.961 . S
C454 H457 0.960 . S
H455 C454 0.961 . S
H456 C454 0.961 . S
H457 C454 0.960 . S
C458 N459 1.342 . S
C458 C462 1.401 . S
C458 C463 1.499 . S
N459 Co442 1.989 . S
N459 C458 1.342 . S
N459 N460 1.388 . S
N460 Co443 1.993 . S
N460 N459 1.388 . S
N460 C461 1.346 . S
C461 N460 1.346 . S
C461 C462 1.396 . S
C461 C471 1.510 . S
C462 C458 1.401 . S
C462 C461 1.396 . S
C463 C458 1.499 . S
C463 H464 0.959 . S
C463 H465 0.960 . S
C463 H466 0.961 . S
H464 C463 0.959 . S
H465 C463 0.960 . S
H466 C463 0.961 . S
O467 Co442 1.967 . S
O467 C475 1.258 . S
O468 Co443 1.941 . S
O468 C475 1.266 . S
H469 C471 0.959 . S
H470 C471 0.961 . S
C471 C461 1.510 . S
C471 H469 0.959 . S
C471 H470 0.961 . S
C471 H472 0.960 . S
H472 C471 0.960 . S
H473 N453 0.862 . S
O474 Co442 1.920 . S
O474 C447 1.289 . S
C475 O467 1.258 . S
C475 O468 1.266 . S
Co476 O479 1.970 . S
Co476 N493 1.989 . S
Co476 O501 1.967 . S
Co476 O508 1.920 . S
Co477 O480 1.966 . S
Co477 N486 2.022 . S
Co477 N494 1.993 . S
Co477 O502 1.941 . S
C478 O479 1.258 . S
C478 O480 1.263 . S
O479 Co476 1.970 . S
O479 C478 1.258 . S
O480 Co477 1.966 . S
O480 C478 1.263 . S
C481 O482 1.235 . S
C481 O508 1.289 . S
O482 C481 1.235 . S
C483 C485 1.400 . S
C483 N486 1.351 . S
C483 C488 1.501 . S
C484 C485 1.387 . S
C484 N487 1.341 . S
C485 C483 1.400 . S
C485 C484 1.387 . S
N486 Co477 2.022 . S
N486 C483 1.351 . S
N486 N487 1.365 . S
N487 C484 1.341 . S
N487 N486 1.365 . S
N487 H507 0.862 . S
C488 C483 1.501 . S
C488 H489 0.961 . S
C488 H490 0.961 . S
C488 H491 0.960 . S
H489 C488 0.961 . S
H490 C488 0.961 . S
H491 C488 0.960 . S
C492 N493 1.342 . S
C492 C496 1.401 . S
C492 C497 1.499 . S
N493 Co476 1.989 . S
N493 C492 1.342 . S
N493 N494 1.388 . S
N494 Co477 1.993 . S
N494 N493 1.388 . S
N494 C495 1.346 . S
C495 N494 1.346 . S
C495 C496 1.396 . S
C495 C505 1.510 . S
C496 C492 1.401 . S
C496 C495 1.396 . S
C497 C492 1.499 . S
C497 H498 0.959 . S
C497 H499 0.960 . S
C497 H500 0.961 . S
H498 C497 0.959 . S
H499 C497 0.960 . S
H500 C497 0.961 . S
O501 Co476 1.967 . S
O501 C509 1.258 . S
O502 Co477 1.941 . S
O502 C509 1.266 . S
H503 C505 0.959 . S
H504 C505 0.961 . S
C505 C495 1.510 . S
C505 H503 0.959 . S
C505 H504 0.961 . S
C505 H506 0.960 . S
H506 C505 0.960 . S
H507 N487 0.862 . S
O508 Co476 1.920 . S
O508 C481 1.289 . S
C509 O501 1.258 . S
C509 O502 1.266 . S
Co510 O513 1.970 . S
Co510 N527 1.989 . S
Co510 O535 1.967 . S
Co510 O542 1.920 . S
Co511 O514 1.966 . S
Co511 N520 2.022 . S
Co511 N528 1.993 . S
Co511 O536 1.941 . S
C512 O513 1.258 . S
C512 O514 1.263 . S
O513 Co510 1.970 . S
O513 C512 1.258 . S
O514 Co511 1.966 . S
O514 C512 1.263 . S
C515 O516 1.235 . S
C515 O542 1.289 . S
O516 C515 1.235 . S
C517 C519 1.400 . S
C517 N520 1.351 . S
C517 C522 1.501 . S
C518 C519 1.387 . S
C518 N521 1.341 . S
C519 C517 1.400 . S
C519 C518 1.387 . S
N520 Co511 2.022 . S
N520 C517 1.351 . S
N520 N521 1.365 . S
N521 C518 1.341 . S
N521 N520 1.365 . S
N521 H541 0.862 . S
C522 C517 1.501 . S
C522 H523 0.961 . S
C522 H524 0.961 . S
C522 H525 0.960 . S
H523 C522 0.961 . S
H524 C522 0.961 . S
H525 C522 0.960 . S
C526 N527 1.342 . S
C526 C530 1.401 . S
C526 C531 1.499 . S
N527 Co510 1.989 . S
N527 C526 1.342 . S
N527 N528 1.388 . S
N528 Co511 1.993 . S
N528 N527 1.388 . S
N528 C529 1.346 . S
C529 N528 1.346 . S
C529 C530 1.396 . S
C529 C539 1.510 . S
C530 C526 1.401 . S
C530 C529 1.396 . S
C531 C526 1.499 . S
C531 H532 0.959 . S
C531 H533 0.960 . S
C531 H534 0.961 . S
H532 C531 0.959 . S
H533 C531 0.960 . S
H534 C531 0.961 . S
O535 Co510 1.967 . S
O535 C543 1.258 . S
O536 Co511 1.941 . S
O536 C543 1.266 . S
H537 C539 0.959 . S
H538 C539 0.961 . S
C539 C529 1.510 . S
C539 H537 0.959 . S
C539 H538 0.961 . S
C539 H540 0.960 . S
H540 C539 0.960 . S
H541 N521 0.862 . S
O542 Co510 1.920 . S
O542 C515 1.289 . S
C543 O535 1.258 . S
C543 O536 1.266 . S
H544 C562 0.951 . S
H545 C564 0.951 . S
H546 C566 0.950 . S
H547 C567 0.950 . S
H548 C569 0.950 . S
H549 C572 0.950 . S
H550 C573 0.950 . S
H551 C575 0.950 . S
H552 C576 0.950 . S
H553 C577 0.951 . S
H554 C579 0.951 . S
H555 C581 0.950 . S
H556 C582 0.950 . S
H557 C584 0.950 . S
H558 C587 0.950 . S
H559 C588 0.950 . S
H560 C590 0.950 1_556 S
H561 C591 0.950 . S
C562 H544 0.951 . S
C562 C563 1.366 . S
C562 C564 1.388 . S
C563 C562 1.366 . S
C563 C567 1.385 . S
C564 H545 0.951 . S
C564 C562 1.388 . S
C564 C565 1.366 . S
C565 C564 1.366 . S
C565 C566 1.414 . S
C565 C568 1.499 . S
C566 H546 0.950 . S
C566 C565 1.414 . S
C566 C567 1.374 . S
C567 H547 0.950 . S
C567 C563 1.385 . S
C567 C566 1.374 . S
C568 C565 1.499 . S
C568 C569 1.373 . S
C568 C570 1.389 . S
C569 H548 0.950 . S
C569 C568 1.373 . S
C569 C585 1.377 . S
C570 C568 1.389 . S
C570 C571 1.524 . S
C570 C584 1.377 . S
C571 C570 1.524 . S
C571 C572 1.397 . S
C571 C576 1.363 . S
C572 H549 0.950 . S
C572 C571 1.397 . S
C572 C573 1.334 . S
C573 H550 0.950 . S
C573 C572 1.334 . S
C573 C574 1.287 . S
C574 C573 1.287 . S
C574 C575 1.524 . S
C574 H593 0.913 . S
C575 H551 0.950 . S
C575 C574 1.524 . S
C575 C576 1.415 . S
C576 H552 0.950 . S
C576 C571 1.363 . S
C576 C575 1.415 . S
C577 H553 0.951 . S
C577 C578 1.366 . S
C577 C579 1.388 . S
C578 C577 1.366 . S
C578 C582 1.385 . S
C579 H554 0.951 . S
C579 C577 1.388 . S
C579 C580 1.366 . S
C580 C579 1.366 . S
C580 C581 1.414 . S
C580 C583 1.499 . S
C581 H555 0.950 . S
C581 C580 1.414 . S
C581 C582 1.374 . S
C582 H556 0.950 . S
C582 C578 1.385 . S
C582 C581 1.374 . S
C583 C580 1.499 . S
C583 C584 1.373 . S
C583 C585 1.389 . S
C584 H557 0.950 . S
C584 C570 1.377 . S
C584 C583 1.373 . S
C585 C569 1.377 . S
C585 C583 1.389 . S
C585 C586 1.524 . S
C586 C585 1.524 . S
C586 C587 1.397 . S
C586 C591 1.363 . S
C587 H558 0.950 . S
C587 C586 1.397 . S
C587 C588 1.334 . S
C588 H559 0.950 . S
C588 C587 1.334 . S
C588 C589 1.287 . S
C589 C588 1.287 . S
C589 C590 1.524 . S
C589 H592 0.999 . S
C590 H560 0.950 1_554 S
C590 C589 1.524 . S
C590 C591 1.415 . S
C591 H561 0.950 . S
C591 C586 1.363 . S
C591 C590 1.415 . S
H592 C589 0.999 . S
H593 C574 0.913 . S
H594 C612 0.951 . S
H595 C614 0.951 . S
H596 C616 0.950 . S
H597 C617 0.950 . S
H598 C619 0.950 . S
H599 C622 0.950 . S
H600 C623 0.950 . S
H601 C625 0.950 . S
H602 C626 0.950 . S
H603 C627 0.951 . S
H604 C629 0.951 . S
H605 C631 0.950 . S
H606 C632 0.950 . S
H607 C634 0.950 . S
H608 C637 0.950 . S
H609 C638 0.950 . S
H610 C640 0.950 . S
H611 C641 0.950 . S
C612 H594 0.951 . S
C612 C613 1.366 . S
C612 C614 1.388 . S
C613 C612 1.366 . S
C613 C617 1.385 . S
C614 H595 0.951 . S
C614 C612 1.388 . S
C614 C615 1.366 . S
C615 C614 1.366 . S
C615 C616 1.414 . S
C615 C618 1.499 . S
C616 H596 0.950 . S
C616 C615 1.414 . S
C616 C617 1.374 . S
C617 H597 0.950 . S
C617 C613 1.385 . S
C617 C616 1.374 . S
C618 C615 1.499 . S
C618 C619 1.373 . S
C618 C620 1.389 . S
C619 H598 0.950 . S
C619 C618 1.373 . S
C619 C635 1.377 . S
C620 C618 1.389 . S
C620 C621 1.524 . S
C620 C634 1.377 . S
C621 C620 1.524 . S
C621 C622 1.397 . S
C621 C626 1.363 . S
C622 H599 0.950 . S
C622 C621 1.397 . S
C622 C623 1.334 . S
C623 H600 0.950 . S
C623 C622 1.334 . S
C623 C624 1.287 . S
C624 C623 1.287 . S
C624 C625 1.524 . S
C624 H643 0.913 . S
C625 H601 0.950 . S
C625 C624 1.524 . S
C625 C626 1.415 . S
C626 H602 0.950 . S
C626 C621 1.363 . S
C626 C625 1.415 . S
C627 H603 0.951 . S
C627 C628 1.366 . S
C627 C629 1.388 . S
C628 C627 1.366 . S
C628 C632 1.385 . S
C629 H604 0.951 . S
C629 C627 1.388 . S
C629 C630 1.366 . S
C630 C629 1.366 . S
C630 C631 1.414 . S
C630 C633 1.499 . S
C631 H605 0.950 . S
C631 C630 1.414 . S
C631 C632 1.374 . S
C632 H606 0.950 . S
C632 C628 1.385 . S
C632 C631 1.374 . S
C633 C630 1.499 . S
C633 C634 1.373 . S
C633 C635 1.389 . S
C634 H607 0.950 . S
C634 C620 1.377 . S
C634 C633 1.373 . S
C635 C619 1.377 . S
C635 C633 1.389 . S
C635 C636 1.524 . S
C636 C635 1.524 . S
C636 C637 1.397 . S
C636 C641 1.363 . S
C637 H608 0.950 . S
C637 C636 1.397 . S
C637 C638 1.334 . S
C638 H609 0.950 . S
C638 C637 1.334 . S
C638 C639 1.287 . S
C639 C638 1.287 . S
C639 C640 1.524 1_556 S
C639 H642 0.999 1_556 S
C640 H610 0.950 . S
C640 C639 1.524 1_554 S
C640 C641 1.415 1_554 S
C641 H611 0.950 . S
C641 C636 1.363 . S
C641 C640 1.415 1_556 S
H642 C639 0.999 1_554 S
H643 C624 0.913 . S
H644 C662 0.951 . S
H645 C664 0.951 . S
H646 C666 0.950 . S
H647 C667 0.950 . S
H648 C669 0.950 . S
H649 C672 0.950 . S
H650 C673 0.950 . S
H651 C675 0.950 1_556 S
H652 C676 0.950 . S
H653 C677 0.951 . S
H654 C679 0.951 . S
H655 C681 0.950 . S
H656 C682 0.950 . S
H657 C684 0.950 . S
H658 C687 0.950 . S
H659 C688 0.950 . S
H660 C690 0.950 . S
H661 C691 0.950 . S
C662 H644 0.951 . S
C662 C663 1.366 . S
C662 C664 1.388 . S
C663 C662 1.366 . S
C663 C667 1.385 . S
C664 H645 0.951 . S
C664 C662 1.388 . S
C664 C665 1.366 . S
C665 C664 1.366 . S
C665 C666 1.414 . S
C665 C668 1.499 . S
C666 H646 0.950 . S
C666 C665 1.414 . S
C666 C667 1.374 . S
C667 H647 0.950 . S
C667 C663 1.385 . S
C667 C666 1.374 . S
C668 C665 1.499 . S
C668 C669 1.373 . S
C668 C670 1.389 . S
C669 H648 0.950 . S
C669 C668 1.373 . S
C669 C685 1.377 . S
C670 C668 1.389 . S
C670 C671 1.524 . S
C670 C684 1.377 . S
C671 C670 1.524 . S
C671 C672 1.397 . S
C671 C676 1.363 . S
C672 H649 0.950 . S
C672 C671 1.397 . S
C672 C673 1.334 . S
C673 H650 0.950 . S
C673 C672 1.334 . S
C673 C674 1.287 . S
C674 C673 1.287 . S
C674 C675 1.524 . S
C674 H693 0.913 . S
C675 H651 0.950 1_554 S
C675 C674 1.524 . S
C675 C676 1.415 . S
C676 H652 0.950 . S
C676 C671 1.363 . S
C676 C675 1.415 . S
C677 H653 0.951 . S
C677 C678 1.366 . S
C677 C679 1.388 . S
C678 C677 1.366 . S
C678 C682 1.385 . S
C679 H654 0.951 . S
C679 C677 1.388 . S
C679 C680 1.366 . S
C680 C679 1.366 . S
C680 C681 1.414 . S
C680 C683 1.499 . S
C681 H655 0.950 . S
C681 C680 1.414 . S
C681 C682 1.374 . S
C682 H656 0.950 . S
C682 C678 1.385 . S
C682 C681 1.374 . S
C683 C680 1.499 . S
C683 C684 1.373 . S
C683 C685 1.389 . S
C684 H657 0.950 . S
C684 C670 1.377 . S
C684 C683 1.373 . S
C685 C669 1.377 . S
C685 C683 1.389 . S
C685 C686 1.524 . S
C686 C685 1.524 . S
C686 C687 1.397 . S
C686 C691 1.363 . S
C687 H658 0.950 . S
C687 C686 1.397 . S
C687 C688 1.334 . S
C688 H659 0.950 . S
C688 C687 1.334 . S
C688 C689 1.287 . S
C689 C688 1.287 . S
C689 C690 1.524 . S
C689 H692 0.999 . S
C690 H660 0.950 . S
C690 C689 1.524 . S
C690 C691 1.415 . S
C691 H661 0.950 . S
C691 C686 1.363 . S
C691 C690 1.415 . S
H692 C689 0.999 . S
H693 C674 0.913 . S
H694 C712 0.951 . S
H695 C714 0.951 . S
H696 C716 0.950 . S
H697 C717 0.950 . S
H698 C719 0.950 . S
H699 C722 0.950 . S
H700 C723 0.950 . S
H701 C725 0.956 . S
H702 C726 0.950 . S
H703 C727 0.951 . S
H704 C729 0.951 . S
H705 C731 0.950 . S
H706 C732 0.950 . S
H707 C734 0.950 . S
H708 C737 0.950 . S
H709 C738 0.950 . S
H710 C740 0.950 . S
H711 C741 0.950 . S
C712 H694 0.951 . S
C712 C713 1.366 . S
C712 C714 1.388 . S
C713 C712 1.366 . S
C713 C717 1.385 . S
C714 H695 0.951 . S
C714 C712 1.388 . S
C714 C715 1.366 . S
C715 C714 1.366 . S
C715 C716 1.414 . S
C715 C718 1.499 . S
C716 H696 0.950 . S
C716 C715 1.414 . S
C716 C717 1.374 . S
C717 H697 0.950 . S
C717 C713 1.385 . S
C717 C716 1.374 . S
C718 C715 1.499 . S
C718 C719 1.373 . S
C718 C720 1.389 . S
C719 H698 0.950 . S
C719 C718 1.373 . S
C719 C735 1.377 . S
C720 C718 1.389 . S
C720 C721 1.524 . S
C720 C734 1.377 . S
C721 C720 1.524 . S
C721 C722 1.397 . S
C721 C726 1.363 . S
C722 H699 0.950 . S
C722 C721 1.397 . S
C722 C723 1.334 . S
C723 H700 0.950 . S
C723 C722 1.334 . S
C723 C724 1.287 . S
C724 C723 1.287 . S
C724 C725 1.524 . S
C724 H743 0.913 1_556 S
C725 H701 0.956 . S
C725 C724 1.524 . S
C725 C726 1.415 . S
C726 H702 0.950 . S
C726 C721 1.363 . S
C726 C725 1.415 . S
C727 H703 0.951 . S
C727 C728 1.366 . S
C727 C729 1.388 . S
C728 C727 1.366 . S
C728 C732 1.385 . S
C729 H704 0.951 . S
C729 C727 1.388 . S
C729 C730 1.366 . S
C730 C729 1.366 . S
C730 C731 1.414 . S
C730 C733 1.499 . S
C731 H705 0.950 . S
C731 C730 1.414 . S
C731 C732 1.374 . S
C732 H706 0.950 . S
C732 C728 1.385 . S
C732 C731 1.374 . S
C733 C730 1.499 . S
C733 C734 1.373 . S
C733 C735 1.389 . S
C734 H707 0.950 . S
C734 C720 1.377 . S
C734 C733 1.373 . S
C735 C719 1.377 . S
C735 C733 1.389 . S
C735 C736 1.524 . S
C736 C735 1.524 . S
C736 C737 1.397 . S
C736 C741 1.363 . S
C737 H708 0.950 . S
C737 C736 1.397 . S
C737 C738 1.334 . S
C738 H709 0.950 . S
C738 C737 1.334 . S
C738 C739 1.287 . S
C739 C738 1.287 . S
C739 C740 1.524 . S
C739 H742 0.999 . S
C740 H710 0.950 . S
C740 C739 1.524 . S
C740 C741 1.415 . S
C741 H711 0.950 . S
C741 C736 1.363 . S
C741 C740 1.415 . S
H742 C739 0.999 . S
H743 C724 0.913 1_554 S
H744 C762 0.951 . S
H745 C764 0.951 . S
H746 C766 0.950 . S
H747 C767 0.950 . S
H748 C769 0.950 . S
H749 C772 0.950 . S
H750 C773 0.950 . S
H751 C775 0.950 . S
H752 C776 0.950 . S
H753 C777 0.951 . S
H754 C779 0.951 . S
H755 C781 0.950 . S
H756 C782 0.950 . S
H757 C784 0.950 . S
H758 C787 0.950 . S
H759 C788 0.950 . S
H760 C790 0.950 . S
H761 C791 0.950 . S
C762 H744 0.951 . S
C762 C763 1.366 . S
C762 C764 1.388 . S
C763 C762 1.366 . S
C763 C767 1.385 . S
C764 H745 0.951 . S
C764 C762 1.388 . S
C764 C765 1.366 . S
C765 C764 1.366 . S
C765 C766 1.414 . S
C765 C768 1.499 . S
C766 H746 0.950 . S
C766 C765 1.414 . S
C766 C767 1.374 . S
C767 H747 0.950 . S
C767 C763 1.385 . S
C767 C766 1.374 . S
C768 C765 1.499 . S
C768 C769 1.373 . S
C768 C770 1.389 . S
C769 H748 0.950 . S
C769 C768 1.373 . S
C769 C785 1.377 . S
C770 C768 1.389 . S
C770 C771 1.524 . S
C770 C784 1.377 . S
C771 C770 1.524 . S
C771 C772 1.397 . S
C771 C776 1.363 . S
C772 H749 0.950 . S
C772 C771 1.397 . S
C772 C773 1.334 . S
C773 H750 0.950 . S
C773 C772 1.334 . S
C773 C774 1.287 . S
C774 C773 1.287 . S
C774 C775 1.524 . S
C774 H793 0.913 . S
C775 H751 0.950 . S
C775 C774 1.524 . S
C775 C776 1.415 . S
C776 H752 0.950 . S
C776 C771 1.363 . S
C776 C775 1.415 . S
C777 H753 0.951 . S
C777 C778 1.366 . S
C777 C779 1.388 . S
C778 C777 1.366 . S
C778 C782 1.385 . S
C779 H754 0.951 . S
C779 C777 1.388 . S
C779 C780 1.366 . S
C780 C779 1.366 . S
C780 C781 1.414 . S
C780 C783 1.499 . S
C781 H755 0.950 . S
C781 C780 1.414 . S
C781 C782 1.374 . S
C782 H756 0.950 . S
C782 C778 1.385 . S
C782 C781 1.374 . S
C783 C780 1.499 . S
C783 C784 1.373 . S
C783 C785 1.389 . S
C784 H757 0.950 . S
C784 C770 1.377 . S
C784 C783 1.373 . S
C785 C769 1.377 . S
C785 C783 1.389 . S
C785 C786 1.524 . S
C786 C785 1.524 . S
C786 C787 1.397 . S
C786 C791 1.363 . S
C787 H758 0.950 . S
C787 C786 1.397 . S
C787 C788 1.334 . S
C788 H759 0.950 . S
C788 C787 1.334 . S
C788 C789 1.287 . S
C789 C788 1.287 . S
C789 C790 1.524 . S
C789 H792 0.999 . S
C790 H760 0.950 . S
C790 C789 1.524 . S
C790 C791 1.415 . S
C791 H761 0.950 . S
C791 C786 1.363 . S
C791 C790 1.415 . S
H792 C789 0.999 . S
H793 C774 0.913 . S
H794 C812 0.951 . S
H795 C814 0.951 . S
H796 C816 0.950 . S
H797 C817 0.950 . S
H798 C819 0.950 . S
H799 C822 0.950 . S
H800 C823 0.950 . S
H801 C825 0.950 . S
H802 C826 0.950 . S
H803 C827 0.951 . S
H804 C829 0.951 . S
H805 C831 0.950 . S
H806 C832 0.950 . S
H807 C834 0.950 . S
H808 C837 0.950 . S
H809 C838 0.950 . S
H810 C840 0.950 . S
H811 C841 0.950 . S
C812 H794 0.951 . S
C812 C813 1.366 . S
C812 C814 1.388 . S
C813 C812 1.366 . S
C813 C817 1.385 . S
C814 H795 0.951 . S
C814 C812 1.388 . S
C814 C815 1.366 . S
C815 C814 1.366 . S
C815 C816 1.414 . S
C815 C818 1.499 . S
C816 H796 0.950 . S
C816 C815 1.414 . S
C816 C817 1.374 . S
C817 H797 0.950 . S
C817 C813 1.385 . S
C817 C816 1.374 . S
C818 C815 1.499 . S
C818 C819 1.373 . S
C818 C820 1.389 . S
C819 H798 0.950 . S
C819 C818 1.373 . S
C819 C835 1.377 . S
C820 C818 1.389 . S
C820 C821 1.524 . S
C820 C834 1.377 . S
C821 C820 1.524 . S
C821 C822 1.397 . S
C821 C826 1.363 . S
C822 H799 0.950 . S
C822 C821 1.397 . S
C822 C823 1.334 . S
C823 H800 0.950 . S
C823 C822 1.334 . S
C823 C824 1.287 . S
C824 C823 1.287 . S
C824 C825 1.524 . S
C824 H843 0.913 . S
C825 H801 0.950 . S
C825 C824 1.524 . S
C825 C826 1.415 . S
C826 H802 0.950 . S
C826 C821 1.363 . S
C826 C825 1.415 . S
C827 H803 0.951 . S
C827 C828 1.366 . S
C827 C829 1.388 . S
C828 C827 1.366 . S
C828 C832 1.385 . S
C829 H804 0.951 . S
C829 C827 1.388 . S
C829 C830 1.366 . S
C830 C829 1.366 . S
C830 C831 1.414 . S
C830 C833 1.499 . S
C831 H805 0.950 . S
C831 C830 1.414 . S
C831 C832 1.374 . S
C832 H806 0.950 . S
C832 C828 1.385 . S
C832 C831 1.374 . S
C833 C830 1.499 . S
C833 C834 1.373 . S
C833 C835 1.389 . S
C834 H807 0.950 . S
C834 C820 1.377 . S
C834 C833 1.373 . S
C835 C819 1.377 . S
C835 C833 1.389 . S
C835 C836 1.524 . S
C836 C835 1.524 . S
C836 C837 1.397 . S
C836 C841 1.363 . S
C837 H808 0.950 . S
C837 C836 1.397 . S
C837 C838 1.334 . S
C838 H809 0.950 . S
C838 C837 1.334 . S
C838 C839 1.287 . S
C839 C838 1.287 . S
C839 C840 1.524 . S
C839 H842 0.999 . S
C840 H810 0.950 . S
C840 C839 1.524 . S
C840 C841 1.415 . S
C841 H811 0.950 . S
C841 C836 1.363 . S
C841 C840 1.415 . S
H842 C839 0.999 . S
H843 C824 0.913 . S
H844 C862 0.951 . S
H845 C864 0.951 . S
H846 C866 0.950 . S
H847 C867 0.950 . S
H848 C869 0.950 . S
H849 C872 0.950 . S
H850 C873 0.950 . S
H851 C875 0.950 . S
H852 C876 0.950 . S
H853 C877 0.951 . S
H854 C879 0.951 . S
H855 C881 0.950 . S
H856 C882 0.950 . S
H857 C884 0.950 . S
H858 C887 0.950 . S
H859 C888 0.950 . S
H860 C890 0.950 . S
H861 C891 0.950 . S
C862 H844 0.951 . S
C862 C863 1.366 . S
C862 C864 1.388 . S
C863 C862 1.366 . S
C863 C867 1.385 . S
C864 H845 0.951 . S
C864 C862 1.388 . S
C864 C865 1.366 . S
C865 C864 1.366 . S
C865 C866 1.414 . S
C865 C868 1.499 . S
C866 H846 0.950 . S
C866 C865 1.414 . S
C866 C867 1.374 . S
C867 H847 0.950 . S
C867 C863 1.385 . S
C867 C866 1.374 . S
C868 C865 1.499 . S
C868 C869 1.373 . S
C868 C870 1.389 . S
C869 H848 0.950 . S
C869 C868 1.373 . S
C869 C885 1.377 . S
C870 C868 1.389 . S
C870 C871 1.524 . S
C870 C884 1.377 . S
C871 C870 1.524 . S
C871 C872 1.397 . S
C871 C876 1.363 . S
C872 H849 0.950 . S
C872 C871 1.397 . S
C872 C873 1.334 . S
C873 H850 0.950 . S
C873 C872 1.334 . S
C873 C874 1.287 . S
C874 C873 1.287 . S
C874 C875 1.524 . S
C874 H893 0.913 . S
C875 H851 0.950 . S
C875 C874 1.524 . S
C875 C876 1.415 . S
C876 H852 0.950 . S
C876 C871 1.363 . S
C876 C875 1.415 . S
C877 H853 0.951 . S
C877 C878 1.366 . S
C877 C879 1.388 . S
C878 C877 1.366 . S
C878 C882 1.385 . S
C879 H854 0.951 . S
C879 C877 1.388 . S
C879 C880 1.366 . S
C880 C879 1.366 . S
C880 C881 1.414 . S
C880 C883 1.499 . S
C881 H855 0.950 . S
C881 C880 1.414 . S
C881 C882 1.374 . S
C882 H856 0.950 . S
C882 C878 1.385 . S
C882 C881 1.374 . S
C883 C880 1.499 . S
C883 C884 1.373 . S
C883 C885 1.389 . S
C884 H857 0.950 . S
C884 C870 1.377 . S
C884 C883 1.373 . S
C885 C869 1.377 . S
C885 C883 1.389 . S
C885 C886 1.524 . S
C886 C885 1.524 . S
C886 C887 1.397 . S
C886 C891 1.363 . S
C887 H858 0.950 . S
C887 C886 1.397 . S
C887 C888 1.334 . S
C888 H859 0.950 . S
C888 C887 1.334 . S
C888 C889 1.287 . S
C889 C888 1.287 . S
C889 C890 1.524 . S
C889 H892 0.999 . S
C890 H860 0.950 . S
C890 C889 1.524 . S
C890 C891 1.415 . S
C891 H861 0.950 . S
C891 C886 1.363 . S
C891 C890 1.415 . S
H892 C889 0.999 . S
H893 C874 0.913 . S
H894 C912 0.951 . S
H895 C914 0.951 . S
H896 C916 0.950 . S
H897 C917 0.950 . S
H898 C919 0.950 . S
H899 C922 0.950 . S
H900 C923 0.950 . S
H901 C925 0.950 . S
H902 C926 0.950 . S
H903 C927 0.951 . S
H904 C929 0.951 . S
H905 C931 0.950 . S
H906 C932 0.950 . S
H907 C934 0.950 . S
H908 C937 0.950 . S
H909 C938 0.950 . S
H910 C940 0.950 . S
H911 C941 0.950 . S
C912 H894 0.951 . S
C912 C913 1.366 . S
C912 C914 1.388 . S
C913 C912 1.366 . S
C913 C917 1.385 . S
C914 H895 0.951 . S
C914 C912 1.388 . S
C914 C915 1.366 . S
C915 C914 1.366 . S
C915 C916 1.414 . S
C915 C918 1.499 . S
C916 H896 0.950 . S
C916 C915 1.414 . S
C916 C917 1.374 . S
C917 H897 0.950 . S
C917 C913 1.385 . S
C917 C916 1.374 . S
C918 C915 1.499 . S
C918 C919 1.373 . S
C918 C920 1.389 . S
C919 H898 0.950 . S
C919 C918 1.373 . S
C919 C935 1.377 . S
C920 C918 1.389 . S
C920 C921 1.524 . S
C920 C934 1.377 . S
C921 C920 1.524 . S
C921 C922 1.397 . S
C921 C926 1.363 . S
C922 H899 0.950 . S
C922 C921 1.397 . S
C922 C923 1.334 . S
C923 H900 0.950 . S
C923 C922 1.334 . S
C923 C924 1.287 . S
C924 C923 1.287 . S
C924 C925 1.524 . S
C924 H943 0.913 . S
C925 H901 0.950 . S
C925 C924 1.524 . S
C925 C926 1.415 . S
C926 H902 0.950 . S
C926 C921 1.363 . S
C926 C925 1.415 . S
C927 H903 0.951 . S
C927 C928 1.366 . S
C927 C929 1.388 . S
C928 C927 1.366 . S
C928 C932 1.385 . S
C929 H904 0.951 . S
C929 C927 1.388 . S
C929 C930 1.366 . S
C930 C929 1.366 . S
C930 C931 1.414 . S
C930 C933 1.499 . S
C931 H905 0.950 . S
C931 C930 1.414 . S
C931 C932 1.374 . S
C932 H906 0.950 . S
C932 C928 1.385 . S
C932 C931 1.374 . S
C933 C930 1.499 . S
C933 C934 1.373 . S
C933 C935 1.389 . S
C934 H907 0.950 . S
C934 C920 1.377 . S
C934 C933 1.373 . S
C935 C919 1.377 . S
C935 C933 1.389 . S
C935 C936 1.524 . S
C936 C935 1.524 . S
C936 C937 1.397 . S
C936 C941 1.363 . S
C937 H908 0.950 . S
C937 C936 1.397 . S
C937 C938 1.334 . S
C938 H909 0.950 . S
C938 C937 1.334 . S
C938 C939 1.287 . S
C939 C938 1.287 . S
C939 C940 1.524 . S
C939 H942 0.999 . S
C940 H910 0.950 . S
C940 C939 1.524 . S
C940 C941 1.415 . S
C941 H911 0.950 . S
C941 C936 1.363 . S
C941 C940 1.415 . S
H942 C939 0.999 . S
H943 C924 0.913 . S
H944 C962 0.951 . S
H945 C964 0.951 . S
H946 C966 0.950 . S
H947 C967 0.950 . S
H948 C969 0.950 . S
H949 C972 0.950 . S
H950 C973 0.950 . S
H951 C975 0.950 . S
H952 C976 0.950 . S
H953 C977 0.951 . S
H954 C979 0.951 . S
H955 C981 0.950 . S
H956 C982 0.950 . S
H957 C984 0.950 . S
H958 C987 0.950 . S
H959 C988 0.950 . S
H960 C990 0.950 . S
H961 C991 0.950 . S
C962 H944 0.951 . S
C962 C963 1.366 . S
C962 C964 1.388 . S
C963 C962 1.366 . S
C963 C967 1.385 . S
C964 H945 0.951 . S
C964 C962 1.388 . S
C964 C965 1.366 . S
C965 C964 1.366 . S
C965 C966 1.414 . S
C965 C968 1.499 . S
C966 H946 0.950 . S
C966 C965 1.414 . S
C966 C967 1.374 . S
C967 H947 0.950 . S
C967 C963 1.385 . S
C967 C966 1.374 . S
C968 C965 1.499 . S
C968 C969 1.373 . S
C968 C970 1.389 . S
C969 H948 0.950 . S
C969 C968 1.373 . S
C969 C985 1.377 . S
C970 C968 1.389 . S
C970 C971 1.524 . S
C970 C984 1.377 . S
C971 C970 1.524 . S
C971 C972 1.397 . S
C971 C976 1.363 . S
C972 H949 0.950 . S
C972 C971 1.397 . S
C972 C973 1.334 . S
C973 H950 0.950 . S
C973 C972 1.334 . S
C973 C974 1.287 . S
C974 C973 1.287 . S
C974 C975 1.524 . S
C974 H993 0.913 . S
C975 H951 0.950 . S
C975 C974 1.524 . S
C975 C976 1.415 . S
C976 H952 0.950 . S
C976 C971 1.363 . S
C976 C975 1.415 . S
C977 H953 0.951 . S
C977 C978 1.366 . S
C977 C979 1.388 . S
C978 C977 1.366 . S
C978 C982 1.385 . S
C979 H954 0.951 . S
C979 C977 1.388 . S
C979 C980 1.366 . S
C980 C979 1.366 . S
C980 C981 1.414 . S
C980 C983 1.499 . S
C981 H955 0.950 . S
C981 C980 1.414 . S
C981 C982 1.374 . S
C982 H956 0.950 . S
C982 C978 1.385 . S
C982 C981 1.374 . S
C983 C980 1.499 . S
C983 C984 1.373 . S
C983 C985 1.389 . S
C984 H957 0.950 . S
C984 C970 1.377 . S
C984 C983 1.373 . S
C985 C969 1.377 . S
C985 C983 1.389 . S
C985 C986 1.524 . S
C986 C985 1.524 . S
C986 C987 1.397 . S
C986 C991 1.363 . S
C987 H958 0.950 . S
C987 C986 1.397 . S
C987 C988 1.334 . S
C988 H959 0.950 . S
C988 C987 1.334 . S
C988 C989 1.287 . S
C989 C988 1.287 . S
C989 C990 1.524 . S
C989 H992 0.999 . S
C990 H960 0.950 . S
C990 C989 1.524 . S
C990 C991 1.415 . S
C991 H961 0.950 . S
C991 C986 1.363 . S
C991 C990 1.415 . S
H992 C989 0.999 . S
H993 C974 0.913 . S
H994 C1012 0.951 . S
H995 C1014 0.951 . S
H996 C1016 0.950 . S
H997 C1017 0.950 . S
H998 C1019 0.950 . S
H999 C1022 0.950 . S
H1000 C1023 0.950 . S
H1001 C1025 0.950 . S
H1002 C1026 0.950 . S
H1003 C1027 0.951 . S
H1004 C1029 0.951 . S
H1005 C1031 0.950 . S
H1006 C1032 0.950 . S
H1007 C1034 0.950 . S
H1008 C1037 0.950 . S
H1009 C1038 0.950 . S
H1010 C1040 0.950 . S
H1011 C1041 0.950 . S
C1012 H994 0.951 . S
C1012 C1013 1.366 . S
C1012 C1014 1.388 . S
C1013 C1012 1.366 . S
C1013 C1017 1.385 . S
C1014 H995 0.951 . S
C1014 C1012 1.388 . S
C1014 C1015 1.366 . S
C1015 C1014 1.366 . S
C1015 C1016 1.414 . S
C1015 C1018 1.499 . S
C1016 H996 0.950 . S
C1016 C1015 1.414 . S
C1016 C1017 1.374 . S
C1017 H997 0.950 . S
C1017 C1013 1.385 . S
C1017 C1016 1.374 . S
C1018 C1015 1.499 . S
C1018 C1019 1.373 . S
C1018 C1020 1.389 . S
C1019 H998 0.950 . S
C1019 C1018 1.373 . S
C1019 C1035 1.377 . S
C1020 C1018 1.389 . S
C1020 C1021 1.524 . S
C1020 C1034 1.377 . S
C1021 C1020 1.524 . S
C1021 C1022 1.397 . S
C1021 C1026 1.363 . S
C1022 H999 0.950 . S
C1022 C1021 1.397 . S
C1022 C1023 1.334 . S
C1023 H1000 0.950 . S
C1023 C1022 1.334 . S
C1023 C1024 1.287 . S
C1024 C1023 1.287 . S
C1024 C1025 1.524 . S
C1024 H1043 0.913 . S
C1025 H1001 0.950 . S
C1025 C1024 1.524 . S
C1025 C1026 1.415 . S
C1026 H1002 0.950 . S
C1026 C1021 1.363 . S
C1026 C1025 1.415 . S
C1027 H1003 0.951 . S
C1027 C1028 1.366 . S
C1027 C1029 1.388 . S
C1028 C1027 1.366 . S
C1028 C1032 1.385 . S
C1029 H1004 0.951 . S
C1029 C1027 1.388 . S
C1029 C1030 1.366 . S
C1030 C1029 1.366 . S
C1030 C1031 1.414 . S
C1030 C1033 1.499 . S
C1031 H1005 0.950 . S
C1031 C1030 1.414 . S
C1031 C1032 1.374 . S
C1032 H1006 0.950 . S
C1032 C1028 1.385 . S
C1032 C1031 1.374 . S
C1033 C1030 1.499 . S
C1033 C1034 1.373 . S
C1033 C1035 1.389 . S
C1034 H1007 0.950 . S
C1034 C1020 1.377 . S
C1034 C1033 1.373 . S
C1035 C1019 1.377 . S
C1035 C1033 1.389 . S
C1035 C1036 1.524 . S
C1036 C1035 1.524 . S
C1036 C1037 1.397 . S
C1036 C1041 1.363 . S
C1037 H1008 0.950 . S
C1037 C1036 1.397 . S
C1037 C1038 1.334 . S
C1038 H1009 0.950 . S
C1038 C1037 1.334 . S
C1038 C1039 1.287 . S
C1039 C1038 1.287 . S
C1039 C1040 1.524 . S
C1039 H1042 0.999 . S
C1040 H1010 0.950 . S
C1040 C1039 1.524 . S
C1040 C1041 1.415 . S
C1041 H1011 0.950 . S
C1041 C1036 1.363 . S
C1041 C1040 1.415 . S
H1042 C1039 0.999 . S
H1043 C1024 0.913 . S
H1044 C1062 0.951 . S
H1045 C1064 0.951 . S
H1046 C1066 0.950 . S
H1047 C1067 0.950 . S
H1048 C1069 0.950 . S
H1049 C1072 0.950 . S
H1050 C1073 0.950 . S
H1051 C1075 0.950 . S
H1052 C1076 0.950 . S
H1053 C1077 0.951 . S
H1054 C1079 0.951 . S
H1055 C1081 0.950 . S
H1056 C1082 0.950 . S
H1057 C1084 0.950 . S
H1058 C1087 0.950 . S
H1059 C1088 0.950 . S
H1060 C1090 0.950 . S
H1061 C1091 0.950 . S
C1062 H1044 0.951 . S
C1062 C1063 1.366 . S
C1062 C1064 1.388 . S
C1063 C1062 1.366 . S
C1063 C1067 1.385 . S
C1064 H1045 0.951 . S
C1064 C1062 1.388 . S
C1064 C1065 1.366 . S
C1065 C1064 1.366 . S
C1065 C1066 1.414 . S
C1065 C1068 1.499 . S
C1066 H1046 0.950 . S
C1066 C1065 1.414 . S
C1066 C1067 1.374 . S
C1067 H1047 0.950 . S
C1067 C1063 1.385 . S
C1067 C1066 1.374 . S
C1068 C1065 1.499 . S
C1068 C1069 1.373 . S
C1068 C1070 1.389 . S
C1069 H1048 0.950 . S
C1069 C1068 1.373 . S
C1069 C1085 1.377 . S
C1070 C1068 1.389 . S
C1070 C1071 1.524 . S
C1070 C1084 1.377 . S
C1071 C1070 1.524 . S
C1071 C1072 1.397 . S
C1071 C1076 1.363 . S
C1072 H1049 0.950 . S
C1072 C1071 1.397 . S
C1072 C1073 1.334 . S
C1073 H1050 0.950 . S
C1073 C1072 1.334 . S
C1073 C1074 1.287 . S
C1074 C1073 1.287 . S
C1074 C1075 1.524 . S
C1074 H1093 0.913 . S
C1075 H1051 0.950 . S
C1075 C1074 1.524 . S
C1075 C1076 1.415 . S
C1076 H1052 0.950 . S
C1076 C1071 1.363 . S
C1076 C1075 1.415 . S
C1077 H1053 0.951 . S
C1077 C1078 1.366 . S
C1077 C1079 1.388 . S
C1078 C1077 1.366 . S
C1078 C1082 1.385 . S
C1079 H1054 0.951 . S
C1079 C1077 1.388 . S
C1079 C1080 1.366 . S
C1080 C1079 1.366 . S
C1080 C1081 1.414 . S
C1080 C1083 1.499 . S
C1081 H1055 0.950 . S
C1081 C1080 1.414 . S
C1081 C1082 1.374 . S
C1082 H1056 0.950 . S
C1082 C1078 1.385 . S
C1082 C1081 1.374 . S
C1083 C1080 1.499 . S
C1083 C1084 1.373 . S
C1083 C1085 1.389 . S
C1084 H1057 0.950 . S
C1084 C1070 1.377 . S
C1084 C1083 1.373 . S
C1085 C1069 1.377 . S
C1085 C1083 1.389 . S
C1085 C1086 1.524 . S
C1086 C1085 1.524 . S
C1086 C1087 1.397 . S
C1086 C1091 1.363 . S
C1087 H1058 0.950 . S
C1087 C1086 1.397 . S
C1087 C1088 1.334 . S
C1088 H1059 0.950 . S
C1088 C1087 1.334 . S
C1088 C1089 1.287 . S
C1089 C1088 1.287 . S
C1089 C1090 1.524 . S
C1089 H1092 0.999 . S
C1090 H1060 0.950 . S
C1090 C1089 1.524 . S
C1090 C1091 1.415 . S
C1091 H1061 0.950 . S
C1091 C1086 1.363 . S
C1091 C1090 1.415 . S
H1092 C1089 0.999 . S
H1093 C1074 0.913 . S
H1094 C1112 0.951 . S
H1095 C1114 0.951 . S
H1096 C1116 0.950 . S
H1097 C1117 0.950 . S
H1098 C1119 0.950 . S
H1099 C1122 0.950 . S
H1100 C1123 0.950 . S
H1101 C1125 0.950 . S
H1102 C1126 0.950 . S
H1103 C1127 0.951 . S
H1104 C1129 0.951 . S
H1105 C1131 0.950 . S
H1106 C1132 0.950 . S
H1107 C1134 0.950 . S
H1108 C1137 0.950 . S
H1109 C1138 0.950 . S
H1110 C1140 0.950 . S
H1111 C1141 0.950 . S
C1112 H1094 0.951 . S
C1112 C1113 1.366 . S
C1112 C1114 1.388 . S
C1113 C1112 1.366 . S
C1113 C1117 1.385 . S
C1114 H1095 0.951 . S
C1114 C1112 1.388 . S
C1114 C1115 1.366 . S
C1115 C1114 1.366 . S
C1115 C1116 1.414 . S
C1115 C1118 1.499 . S
C1116 H1096 0.950 . S
C1116 C1115 1.414 . S
C1116 C1117 1.374 . S
C1117 H1097 0.950 . S
C1117 C1113 1.385 . S
C1117 C1116 1.374 . S
C1118 C1115 1.499 . S
C1118 C1119 1.373 . S
C1118 C1120 1.389 . S
C1119 H1098 0.950 . S
C1119 C1118 1.373 . S
C1119 C1135 1.377 . S
C1120 C1118 1.389 . S
C1120 C1121 1.524 . S
C1120 C1134 1.377 . S
C1121 C1120 1.524 . S
C1121 C1122 1.397 . S
C1121 C1126 1.363 . S
C1122 H1099 0.950 . S
C1122 C1121 1.397 . S
C1122 C1123 1.334 . S
C1123 H1100 0.950 . S
C1123 C1122 1.334 . S
C1123 C1124 1.287 . S
C1124 C1123 1.287 . S
C1124 C1125 1.524 . S
C1124 H1143 0.913 . S
C1125 H1101 0.950 . S
C1125 C1124 1.524 . S
C1125 C1126 1.415 . S
C1126 H1102 0.950 . S
C1126 C1121 1.363 . S
C1126 C1125 1.415 . S
C1127 H1103 0.951 . S
C1127 C1128 1.366 . S
C1127 C1129 1.388 . S
C1128 C1127 1.366 . S
C1128 C1132 1.385 . S
C1129 H1104 0.951 . S
C1129 C1127 1.388 . S
C1129 C1130 1.366 . S
C1130 C1129 1.366 . S
C1130 C1131 1.414 . S
C1130 C1133 1.499 . S
C1131 H1105 0.950 . S
C1131 C1130 1.414 . S
C1131 C1132 1.374 . S
C1132 H1106 0.950 . S
C1132 C1128 1.385 . S
C1132 C1131 1.374 . S
C1133 C1130 1.499 . S
C1133 C1134 1.373 . S
C1133 C1135 1.389 . S
C1134 H1107 0.950 . S
C1134 C1120 1.377 . S
C1134 C1133 1.373 . S
C1135 C1119 1.377 . S
C1135 C1133 1.389 . S
C1135 C1136 1.524 . S
C1136 C1135 1.524 . S
C1136 C1137 1.397 . S
C1136 C1141 1.363 . S
C1137 H1108 0.950 . S
C1137 C1136 1.397 . S
C1137 C1138 1.334 . S
C1138 H1109 0.950 . S
C1138 C1137 1.334 . S
C1138 C1139 1.287 . S
C1139 C1138 1.287 . S
C1139 C1140 1.524 . S
C1139 H1142 0.999 . S
C1140 H1110 0.950 . S
C1140 C1139 1.524 . S
C1140 C1141 1.415 . S
C1141 H1111 0.950 . S
C1141 C1136 1.363 . S
C1141 C1140 1.415 . S
H1142 C1139 0.999 . S
H1143 C1124 0.913 . S
H1144 C1162 0.951 . S
H1145 C1164 0.951 . S
H1146 C1166 0.950 . S
H1147 C1167 0.950 . S
H1148 C1169 0.950 . S
H1149 C1172 0.950 . S
H1150 C1173 0.950 . S
H1151 C1175 0.950 . S
H1152 C1176 0.950 . S
H1153 C1177 0.951 . S
H1154 C1179 0.951 . S
H1155 C1181 0.950 . S
H1156 C1182 0.950 . S
H1157 C1184 0.950 . S
H1158 C1187 0.950 . S
H1159 C1188 0.950 . S
H1160 C1190 0.950 . S
H1161 C1191 0.950 . S
C1162 H1144 0.951 . S
C1162 C1163 1.366 . S
C1162 C1164 1.388 . S
C1163 C1162 1.366 . S
C1163 C1167 1.385 . S
C1164 H1145 0.951 . S
C1164 C1162 1.388 . S
C1164 C1165 1.366 . S
C1165 C1164 1.366 . S
C1165 C1166 1.414 . S
C1165 C1168 1.499 . S
C1166 H1146 0.950 . S
C1166 C1165 1.414 . S
C1166 C1167 1.374 . S
C1167 H1147 0.950 . S
C1167 C1163 1.385 . S
C1167 C1166 1.374 . S
C1168 C1165 1.499 . S
C1168 C1169 1.373 . S
C1168 C1170 1.389 . S
C1169 H1148 0.950 . S
C1169 C1168 1.373 . S
C1169 C1185 1.377 . S
C1170 C1168 1.389 . S
C1170 C1171 1.524 . S
C1170 C1184 1.377 . S
C1171 C1170 1.524 . S
C1171 C1172 1.397 . S
C1171 C1176 1.363 . S
C1172 H1149 0.950 . S
C1172 C1171 1.397 . S
C1172 C1173 1.334 . S
C1173 H1150 0.950 . S
C1173 C1172 1.334 . S
C1173 C1174 1.287 . S
C1174 C1173 1.287 . S
C1174 C1175 1.524 . S
C1174 H1193 0.913 . S
C1175 H1151 0.950 . S
C1175 C1174 1.524 . S
C1175 C1176 1.415 . S
C1176 H1152 0.950 . S
C1176 C1171 1.363 . S
C1176 C1175 1.415 . S
C1177 H1153 0.951 . S
C1177 C1178 1.366 . S
C1177 C1179 1.388 . S
C1178 C1177 1.366 . S
C1178 C1182 1.385 . S
C1179 H1154 0.951 . S
C1179 C1177 1.388 . S
C1179 C1180 1.366 . S
C1180 C1179 1.366 . S
C1180 C1181 1.414 . S
C1180 C1183 1.499 . S
C1181 H1155 0.950 . S
C1181 C1180 1.414 . S
C1181 C1182 1.374 . S
C1182 H1156 0.950 . S
C1182 C1178 1.385 . S
C1182 C1181 1.374 . S
C1183 C1180 1.499 . S
C1183 C1184 1.373 . S
C1183 C1185 1.389 . S
C1184 H1157 0.950 . S
C1184 C1170 1.377 . S
C1184 C1183 1.373 . S
C1185 C1169 1.377 . S
C1185 C1183 1.389 . S
C1185 C1186 1.524 . S
C1186 C1185 1.524 . S
C1186 C1187 1.397 . S
C1186 C1191 1.363 . S
C1187 H1158 0.950 . S
C1187 C1186 1.397 . S
C1187 C1188 1.334 . S
C1188 H1159 0.950 . S
C1188 C1187 1.334 . S
C1188 C1189 1.287 . S
C1189 C1188 1.287 . S
C1189 C1190 1.524 . S
C1189 H1192 0.999 . S
C1190 H1160 0.950 . S
C1190 C1189 1.524 . S
C1190 C1191 1.415 . S
C1191 H1161 0.950 . S
C1191 C1186 1.363 . S
C1191 C1190 1.415 . S
H1192 C1189 0.999 . S
H1193 C1174 0.913 . S
H1194 C1212 0.951 . S
H1195 C1214 0.951 . S
H1196 C1216 0.950 . S
H1197 C1217 0.950 . S
H1198 C1219 0.950 . S
H1199 C1222 0.950 . S
H1200 C1223 0.950 . S
H1201 C1225 0.950 . S
H1202 C1226 0.950 . S
H1203 C1227 0.951 . S
H1204 C1229 0.951 . S
H1205 C1231 0.950 . S
H1206 C1232 0.950 . S
H1207 C1234 0.950 . S
H1208 C1237 0.950 . S
H1209 C1238 0.950 . S
H1210 C1240 0.950 . S
H1211 C1241 0.950 . S
C1212 H1194 0.951 . S
C1212 C1213 1.366 . S
C1212 C1214 1.388 . S
C1213 C1212 1.366 . S
C1213 C1217 1.385 . S
C1214 H1195 0.951 . S
C1214 C1212 1.388 . S
C1214 C1215 1.366 . S
C1215 C1214 1.366 . S
C1215 C1216 1.414 . S
C1215 C1218 1.499 . S
C1216 H1196 0.950 . S
C1216 C1215 1.414 . S
C1216 C1217 1.374 . S
C1217 H1197 0.950 . S
C1217 C1213 1.385 . S
C1217 C1216 1.374 . S
C1218 C1215 1.499 . S
C1218 C1219 1.373 . S
C1218 C1220 1.389 . S
C1219 H1198 0.950 . S
C1219 C1218 1.373 . S
C1219 C1235 1.377 . S
C1220 C1218 1.389 . S
C1220 C1221 1.524 . S
C1220 C1234 1.377 . S
C1221 C1220 1.524 . S
C1221 C1222 1.397 . S
C1221 C1226 1.363 . S
C1222 H1199 0.950 . S
C1222 C1221 1.397 . S
C1222 C1223 1.334 . S
C1223 H1200 0.950 . S
C1223 C1222 1.334 . S
C1223 C1224 1.287 . S
C1224 C1223 1.287 . S
C1224 C1225 1.524 . S
C1224 H1243 0.913 . S
C1225 H1201 0.950 . S
C1225 C1224 1.524 . S
C1225 C1226 1.415 . S
C1226 H1202 0.950 . S
C1226 C1221 1.363 . S
C1226 C1225 1.415 . S
C1227 H1203 0.951 . S
C1227 C1228 1.366 . S
C1227 C1229 1.388 . S
C1228 C1227 1.366 . S
C1228 C1232 1.385 . S
C1229 H1204 0.951 . S
C1229 C1227 1.388 . S
C1229 C1230 1.366 . S
C1230 C1229 1.366 . S
C1230 C1231 1.414 . S
C1230 C1233 1.499 . S
C1231 H1205 0.950 . S
C1231 C1230 1.414 . S
C1231 C1232 1.374 . S
C1232 H1206 0.950 . S
C1232 C1228 1.385 . S
C1232 C1231 1.374 . S
C1233 C1230 1.499 . S
C1233 C1234 1.373 . S
C1233 C1235 1.389 . S
C1234 H1207 0.950 . S
C1234 C1220 1.377 . S
C1234 C1233 1.373 . S
C1235 C1219 1.377 . S
C1235 C1233 1.389 . S
C1235 C1236 1.524 . S
C1236 C1235 1.524 . S
C1236 C1237 1.397 . S
C1236 C1241 1.363 . S
C1237 H1208 0.950 . S
C1237 C1236 1.397 . S
C1237 C1238 1.334 . S
C1238 H1209 0.950 . S
C1238 C1237 1.334 . S
C1238 C1239 1.287 . S
C1239 C1238 1.287 . S
C1239 C1240 1.524 . S
C1239 H1242 0.999 . S
C1240 H1210 0.950 . S
C1240 C1239 1.524 . S
C1240 C1241 1.415 . S
C1241 H1211 0.950 . S
C1241 C1236 1.363 . S
C1241 C1240 1.415 . S
H1242 C1239 0.999 . S
H1243 C1224 0.913 . S
H1244 C1262 0.951 . S
H1245 C1264 0.951 . S
H1246 C1266 0.950 . S
H1247 C1267 0.950 . S
H1248 C1269 0.950 . S
H1249 C1272 0.950 . S
H1250 C1273 0.950 . S
H1251 C1275 0.950 . S
H1252 C1276 0.950 . S
H1253 C1277 0.951 . S
H1254 C1279 0.951 . S
H1255 C1281 0.950 . S
H1256 C1282 0.950 . S
H1257 C1284 0.950 . S
H1258 C1287 0.950 . S
H1259 C1288 0.950 . S
H1260 C1290 0.950 . S
H1261 C1291 0.950 . S
C1262 H1244 0.951 . S
C1262 C1263 1.366 . S
C1262 C1264 1.388 . S
C1263 C1262 1.366 . S
C1263 C1267 1.385 . S
C1264 H1245 0.951 . S
C1264 C1262 1.388 . S
C1264 C1265 1.366 . S
C1265 C1264 1.366 . S
C1265 C1266 1.414 . S
C1265 C1268 1.499 . S
C1266 H1246 0.950 . S
C1266 C1265 1.414 . S
C1266 C1267 1.374 . S
C1267 H1247 0.950 . S
C1267 C1263 1.385 . S
C1267 C1266 1.374 . S
C1268 C1265 1.499 . S
C1268 C1269 1.373 . S
C1268 C1270 1.389 . S
C1269 H1248 0.950 . S
C1269 C1268 1.373 . S
C1269 C1285 1.377 . S
C1270 C1268 1.389 . S
C1270 C1271 1.524 . S
C1270 C1284 1.377 . S
C1271 C1270 1.524 . S
C1271 C1272 1.397 . S
C1271 C1276 1.363 . S
C1272 H1249 0.950 . S
C1272 C1271 1.397 . S
C1272 C1273 1.334 . S
C1273 H1250 0.950 . S
C1273 C1272 1.334 . S
C1273 C1274 1.287 . S
C1274 C1273 1.287 . S
C1274 C1275 1.524 . S
C1274 H1293 0.913 . S
C1275 H1251 0.950 . S
C1275 C1274 1.524 . S
C1275 C1276 1.415 . S
C1276 H1252 0.950 . S
C1276 C1271 1.363 . S
C1276 C1275 1.415 . S
C1277 H1253 0.951 . S
C1277 C1278 1.366 . S
C1277 C1279 1.388 . S
C1278 C1277 1.366 . S
C1278 C1282 1.385 . S
C1279 H1254 0.951 . S
C1279 C1277 1.388 . S
C1279 C1280 1.366 . S
C1280 C1279 1.366 . S
C1280 C1281 1.414 . S
C1280 C1283 1.499 . S
C1281 H1255 0.950 . S
C1281 C1280 1.414 . S
C1281 C1282 1.374 . S
C1282 H1256 0.950 . S
C1282 C1278 1.385 . S
C1282 C1281 1.374 . S
C1283 C1280 1.499 . S
C1283 C1284 1.373 . S
C1283 C1285 1.389 . S
C1284 H1257 0.950 . S
C1284 C1270 1.377 . S
C1284 C1283 1.373 . S
C1285 C1269 1.377 . S
C1285 C1283 1.389 . S
C1285 C1286 1.524 . S
C1286 C1285 1.524 . S
C1286 C1287 1.397 . S
C1286 C1291 1.363 . S
C1287 H1258 0.950 . S
C1287 C1286 1.397 . S
C1287 C1288 1.334 . S
C1288 H1259 0.950 . S
C1288 C1287 1.334 . S
C1288 C1289 1.287 . S
C1289 C1288 1.287 . S
C1289 C1290 1.524 . S
C1289 H1292 0.999 . S
C1290 H1260 0.950 . S
C1290 C1289 1.524 . S
C1290 C1291 1.415 . S
C1291 H1261 0.950 . S
C1291 C1286 1.363 . S
C1291 C1290 1.415 . S
H1292 C1289 0.999 . S
H1293 C1274 0.913 . S
H1294 C1312 0.951 . S
H1295 C1314 0.951 . S
H1296 C1316 0.950 . S
H1297 C1317 0.950 . S
H1298 C1319 0.950 . S
H1299 C1322 0.950 . S
H1300 C1323 0.950 . S
H1301 C1325 0.950 . S
H1302 C1326 0.950 . S
H1303 C1327 0.951 . S
H1304 C1329 0.951 . S
H1305 C1331 0.950 . S
H1306 C1332 0.950 . S
H1307 C1334 0.950 . S
H1308 C1337 0.950 . S
H1309 C1338 0.950 . S
H1310 C1340 0.950 . S
H1311 C1341 0.950 . S
C1312 H1294 0.951 . S
C1312 C1313 1.366 . S
C1312 C1314 1.388 . S
C1313 C1312 1.366 . S
C1313 C1317 1.385 . S
C1314 H1295 0.951 . S
C1314 C1312 1.388 . S
C1314 C1315 1.366 . S
C1315 C1314 1.366 . S
C1315 C1316 1.414 . S
C1315 C1318 1.499 . S
C1316 H1296 0.950 . S
C1316 C1315 1.414 . S
C1316 C1317 1.374 . S
C1317 H1297 0.950 . S
C1317 C1313 1.385 . S
C1317 C1316 1.374 . S
C1318 C1315 1.499 . S
C1318 C1319 1.373 . S
C1318 C1320 1.389 . S
C1319 H1298 0.950 . S
C1319 C1318 1.373 . S
C1319 C1335 1.377 . S
C1320 C1318 1.389 . S
C1320 C1321 1.524 . S
C1320 C1334 1.377 . S
C1321 C1320 1.524 . S
C1321 C1322 1.397 . S
C1321 C1326 1.363 . S
C1322 H1299 0.950 . S
C1322 C1321 1.397 . S
C1322 C1323 1.334 1_554 S
C1323 H1300 0.950 . S
C1323 C1322 1.334 1_556 S
C1323 C1324 1.287 . S
C1324 C1323 1.287 . S
C1324 C1325 1.524 . S
C1324 H1343 0.913 . S
C1325 H1301 0.950 . S
C1325 C1324 1.524 . S
C1325 C1326 1.415 1_556 S
C1326 H1302 0.950 . S
C1326 C1321 1.363 . S
C1326 C1325 1.415 1_554 S
C1327 H1303 0.951 . S
C1327 C1328 1.366 . S
C1327 C1329 1.388 . S
C1328 C1327 1.366 . S
C1328 C1332 1.385 . S
C1329 H1304 0.951 . S
C1329 C1327 1.388 . S
C1329 C1330 1.366 . S
C1330 C1329 1.366 . S
C1330 C1331 1.414 . S
C1330 C1333 1.499 . S
C1331 H1305 0.950 . S
C1331 C1330 1.414 . S
C1331 C1332 1.374 . S
C1332 H1306 0.950 . S
C1332 C1328 1.385 . S
C1332 C1331 1.374 . S
C1333 C1330 1.499 . S
C1333 C1334 1.373 . S
C1333 C1335 1.389 . S
C1334 H1307 0.950 . S
C1334 C1320 1.377 . S
C1334 C1333 1.373 . S
C1335 C1319 1.377 . S
C1335 C1333 1.389 . S
C1335 C1336 1.524 . S
C1336 C1335 1.524 . S
C1336 C1337 1.397 . S
C1336 C1341 1.363 . S
C1337 H1308 0.950 . S
C1337 C1336 1.397 . S
C1337 C1338 1.334 . S
C1338 H1309 0.950 . S
C1338 C1337 1.334 . S
C1338 C1339 1.287 . S
C1339 C1338 1.287 . S
C1339 C1340 1.524 . S
C1339 H1342 0.999 . S
C1340 H1310 0.950 . S
C1340 C1339 1.524 . S
C1340 C1341 1.415 . S
C1341 H1311 0.950 . S
C1341 C1336 1.363 . S
C1341 C1340 1.415 . S
H1342 C1339 0.999 . S
H1343 C1324 0.913 . S
H1344 C1362 0.951 . S
H1345 C1364 0.951 . S
H1346 C1366 0.950 . S
H1347 C1367 0.950 . S
H1348 C1369 0.952 . S
H1349 C1372 0.950 . S
H1350 C1373 0.950 . S
H1351 C1375 0.950 . S
H1352 C1376 0.950 . S
H1353 C1377 0.951 . S
H1354 C1379 0.951 . S
H1355 C1381 0.950 . S
H1356 C1382 0.950 . S
H1357 C1384 0.952 . S
H1358 C1387 0.950 . S
H1359 C1388 0.950 . S
H1360 C1390 0.950 . S
H1361 C1391 0.950 . S
C1362 H1344 0.951 . S
C1362 C1363 1.366 . S
C1362 C1364 1.388 . S
C1363 C1362 1.366 . S
C1363 C1367 1.385 . S
C1364 H1345 0.951 . S
C1364 C1362 1.388 . S
C1364 C1365 1.366 . S
C1365 C1364 1.366 . S
C1365 C1366 1.414 . S
C1365 C1368 1.499 . S
C1366 H1346 0.950 . S
C1366 C1365 1.414 . S
C1366 C1367 1.374 . S
C1367 H1347 0.950 . S
C1367 C1363 1.385 . S
C1367 C1366 1.374 . S
C1368 C1365 1.499 . S
C1368 C1369 1.355 1_545 S
C1368 C1370 1.389 . S
C1369 H1348 0.952 . S
C1369 C1368 1.355 1_565 S
C1369 C1385 1.394 1_455 S
C1370 C1368 1.389 . S
C1370 C1371 1.524 . S
C1370 C1384 1.394 1_455 S
C1371 C1370 1.524 . S
C1371 C1372 1.397 . S
C1371 C1376 1.363 1_455 S
C1372 H1349 0.950 . S
C1372 C1371 1.397 . S
C1372 C1373 1.334 . S
C1373 H1350 0.950 . S
C1373 C1372 1.334 . S
C1373 C1374 1.287 . S
C1374 C1373 1.287 . S
C1374 C1375 1.524 1_455 S
C1374 H1393 0.913 . S
C1375 H1351 0.950 . S
C1375 C1374 1.524 1_655 S
C1375 C1376 1.415 . S
C1376 H1352 0.950 . S
C1376 C1371 1.363 1_655 S
C1376 C1375 1.415 . S
C1377 H1353 0.951 . S
C1377 C1378 1.366 . S
C1377 C1379 1.388 . S
C1378 C1377 1.366 . S
C1378 C1382 1.385 . S
C1379 H1354 0.951 . S
C1379 C1377 1.388 . S
C1379 C1380 1.366 . S
C1380 C1379 1.366 . S
C1380 C1381 1.414 . S
C1380 C1383 1.499 . S
C1381 H1355 0.950 . S
C1381 C1380 1.414 . S
C1381 C1382 1.374 . S
C1382 H1356 0.950 . S
C1382 C1378 1.385 . S
C1382 C1381 1.374 . S
C1383 C1380 1.499 . S
C1383 C1384 1.355 1_565 S
C1383 C1385 1.389 . S
C1384 H1357 0.952 . S
C1384 C1370 1.394 1_655 S
C1384 C1383 1.355 1_545 S
C1385 C1369 1.394 1_655 S
C1385 C1383 1.389 . S
C1385 C1386 1.524 . S
C1386 C1385 1.524 . S
C1386 C1387 1.397 . S
C1386 C1391 1.363 1_655 S
C1387 H1358 0.950 . S
C1387 C1386 1.397 . S
C1387 C1388 1.334 . S
C1388 H1359 0.950 . S
C1388 C1387 1.334 . S
C1388 C1389 1.287 . S
C1389 C1388 1.287 . S
C1389 C1390 1.524 1_655 S
C1389 H1392 0.999 . S
C1390 H1360 0.950 . S
C1390 C1389 1.524 1_455 S
C1390 C1391 1.415 . S
C1391 H1361 0.950 . S
C1391 C1386 1.363 1_455 S
C1391 C1390 1.415 . S
H1392 C1389 0.999 . S
H1393 C1374 0.913 . S
H1394 C1412 0.951 . S
H1395 C1414 0.951 . S
H1396 C1416 0.950 . S
H1397 C1417 0.950 . S
H1398 C1419 0.950 . S
H1399 C1422 0.950 . S
H1400 C1423 0.950 . S
H1401 C1425 0.950 . S
H1402 C1426 0.950 . S
H1403 C1427 0.951 . S
H1404 C1429 0.951 . S
H1405 C1431 0.950 . S
H1406 C1432 0.950 . S
H1407 C1434 0.950 . S
H1408 C1437 0.950 . S
H1409 C1438 0.950 . S
H1410 C1440 0.950 . S
H1411 C1441 0.950 . S
C1412 H1394 0.951 . S
C1412 C1413 1.366 . S
C1412 C1414 1.388 . S
C1413 C1412 1.366 . S
C1413 C1417 1.385 . S
C1414 H1395 0.951 . S
C1414 C1412 1.388 . S
C1414 C1415 1.366 . S
C1415 C1414 1.366 . S
C1415 C1416 1.414 . S
C1415 C1418 1.499 . S
C1416 H1396 0.950 . S
C1416 C1415 1.414 . S
C1416 C1417 1.374 . S
C1417 H1397 0.950 . S
C1417 C1413 1.385 . S
C1417 C1416 1.374 . S
C1418 C1415 1.499 . S
C1418 C1419 1.373 1_455 S
C1418 C1420 1.389 1_565 S
C1419 H1398 0.950 . S
C1419 C1418 1.373 1_655 S
C1419 C1435 1.377 . S
C1420 C1418 1.389 1_545 S
C1420 C1421 1.524 . S
C1420 C1434 1.377 . S
C1421 C1420 1.524 . S
C1421 C1422 1.397 1_545 S
C1421 C1426 1.363 . S
C1422 H1399 0.950 . S
C1422 C1421 1.397 1_565 S
C1422 C1423 1.334 . S
C1423 H1400 0.950 . S
C1423 C1422 1.334 . S
C1423 C1424 1.287 1_565 S
C1424 C1423 1.287 1_545 S
C1424 C1425 1.524 . S
C1424 H1443 0.913 . S
C1425 H1401 0.950 . S
C1425 C1424 1.524 . S
C1425 C1426 1.415 . S
C1426 H1402 0.950 . S
C1426 C1421 1.363 . S
C1426 C1425 1.415 . S
C1427 H1403 0.951 . S
C1427 C1428 1.366 . S
C1427 C1429 1.388 . S
C1428 C1427 1.366 . S
C1428 C1432 1.385 . S
C1429 H1404 0.951 . S
C1429 C1427 1.388 . S
C1429 C1430 1.366 . S
C1430 C1429 1.366 . S
C1430 C1431 1.414 . S
C1430 C1433 1.499 . S
C1431 H1405 0.950 . S
C1431 C1430 1.414 . S
C1431 C1432 1.374 . S
C1432 H1406 0.950 . S
C1432 C1428 1.385 . S
C1432 C1431 1.374 . S
C1433 C1430 1.499 . S
C1433 C1434 1.373 1_655 S
C1433 C1435 1.389 1_545 S
C1434 H1407 0.950 . S
C1434 C1420 1.377 . S
C1434 C1433 1.373 1_455 S
C1435 C1419 1.377 . S
C1435 C1433 1.389 1_565 S
C1435 C1436 1.524 . S
C1436 C1435 1.524 . S
C1436 C1437 1.397 1_565 S
C1436 C1441 1.363 . S
C1437 H1408 0.950 . S
C1437 C1436 1.397 1_545 S
C1437 C1438 1.334 . S
C1438 H1409 0.950 . S
C1438 C1437 1.334 . S
C1438 C1439 1.287 1_545 S
C1439 C1438 1.287 1_565 S
C1439 C1440 1.524 . S
C1439 H1442 0.999 . S
C1440 H1410 0.950 . S
C1440 C1439 1.524 . S
C1440 C1441 1.415 . S
C1441 H1411 0.950 . S
C1441 C1436 1.363 . S
C1441 C1440 1.415 . S
H1442 C1439 0.999 . S
H1443 C1424 0.913 . S
H1444 C1462 0.951 . S
H1445 C1464 0.951 . S
H1446 C1466 0.950 . S
H1447 C1467 0.950 . S
H1448 C1469 0.950 . S
H1449 C1472 0.950 . S
H1450 C1473 0.950 . S
H1451 C1475 0.950 . S
H1452 C1476 0.950 . S
H1453 C1477 0.951 . S
H1454 C1479 0.951 . S
H1455 C1481 0.950 . S
H1456 C1482 0.950 . S
H1457 C1484 0.950 . S
H1458 C1487 0.950 . S
H1459 C1488 0.950 . S
H1460 C1490 0.950 1_554 S
H1461 C1491 0.950 . S
C1462 H1444 0.951 . S
C1462 C1463 1.366 . S
C1462 C1464 1.388 . S
C1463 C1462 1.366 . S
C1463 C1467 1.385 1_556 S
C1464 H1445 0.951 . S
C1464 C1462 1.388 . S
C1464 C1465 1.366 . S
C1465 C1464 1.366 . S
C1465 C1466 1.414 1_556 S
C1465 C1468 1.499 . S
C1466 H1446 0.950 . S
C1466 C1465 1.414 1_554 S
C1466 C1467 1.374 . S
C1467 H1447 0.950 . S
C1467 C1463 1.385 1_554 S
C1467 C1466 1.374 . S
C1468 C1465 1.499 . S
C1468 C1469 1.373 1_455 S
C1468 C1470 1.389 . S
C1469 H1448 0.950 . S
C1469 C1468 1.373 1_655 S
C1469 C1485 1.377 . S
C1470 C1468 1.389 . S
C1470 C1471 1.524 1_556 S
C1470 C1484 1.377 . S
C1471 C1470 1.524 1_554 S
C1471 C1472 1.397 . S
C1471 C1476 1.363 1_554 S
C1472 H1449 0.950 . S
C1472 C1471 1.397 . S
C1472 C1473 1.334 . S
C1473 H1450 0.950 . S
C1473 C1472 1.334 . S
C1473 C1474 1.287 . S
C1474 C1473 1.287 . S
C1474 C1475 1.524 1_554 S
C1474 H1493 0.913 . S
C1475 H1451 0.950 . S
C1475 C1474 1.524 1_556 S
C1475 C1476 1.415 . S
C1476 H1452 0.950 . S
C1476 C1471 1.363 1_556 S
C1476 C1475 1.415 . S
C1477 H1453 0.951 . S
C1477 C1478 1.366 1_554 S
C1477 C1479 1.388 . S
C1478 C1477 1.366 1_556 S
C1478 C1482 1.385 . S
C1479 H1454 0.951 . S
C1479 C1477 1.388 . S
C1479 C1480 1.366 1_554 S
C1480 C1479 1.366 1_556 S
C1480 C1481 1.414 . S
C1480 C1483 1.499 . S
C1481 H1455 0.950 . S
C1481 C1480 1.414 . S
C1481 C1482 1.374 . S
C1482 H1456 0.950 . S
C1482 C1478 1.385 . S
C1482 C1481 1.374 . S
C1483 C1480 1.499 . S
C1483 C1484 1.373 1_655 S
C1483 C1485 1.389 . S
C1484 H1457 0.950 . S
C1484 C1470 1.377 . S
C1484 C1483 1.373 1_455 S
C1485 C1469 1.377 . S
C1485 C1483 1.389 . S
C1485 C1486 1.524 . S
C1486 C1485 1.524 . S
C1486 C1487 1.397 . S
C1486 C1491 1.363 1_556 S
C1487 H1458 0.950 . S
C1487 C1486 1.397 . S
C1487 C1488 1.334 . S
C1488 H1459 0.950 . S
C1488 C1487 1.334 . S
C1488 C1489 1.287 . S
C1489 C1488 1.287 . S
C1489 C1490 1.524 . S
C1489 H1492 0.999 . S
C1490 H1460 0.950 1_556 S
C1490 C1489 1.524 . S
C1490 C1491 1.415 1_556 S
C1491 H1461 0.950 . S
C1491 C1486 1.363 1_554 S
C1491 C1490 1.415 1_554 S
H1492 C1489 0.999 . S
H1493 C1474 0.913 . S
H1494 C1512 0.951 . S
H1495 C1514 0.951 . S
H1496 C1516 0.950 . S
H1497 C1517 0.950 . S
H1498 C1519 0.950 . S
H1499 C1522 0.950 . S
H1500 C1523 0.950 . S
H1501 C1525 0.950 . S
H1502 C1526 0.950 . S
H1503 C1527 0.951 . S
H1504 C1529 0.951 . S
H1505 C1531 0.950 . S
H1506 C1532 0.950 . S
H1507 C1534 0.950 . S
H1508 C1537 0.950 . S
H1509 C1538 0.950 . S
H1510 C1540 0.950 . S
H1511 C1541 0.950 . S
C1512 H1494 0.951 . S
C1512 C1513 1.366 1_556 S
C1512 C1514 1.388 . S
C1513 C1512 1.366 1_554 S
C1513 C1517 1.385 . S
C1514 H1495 0.951 . S
C1514 C1512 1.388 . S
C1514 C1515 1.366 1_556 S
C1515 C1514 1.366 1_554 S
C1515 C1516 1.414 . S
C1515 C1518 1.499 . S
C1516 H1496 0.950 . S
C1516 C1515 1.414 . S
C1516 C1517 1.374 . S
C1517 H1497 0.950 . S
C1517 C1513 1.385 . S
C1517 C1516 1.374 . S
C1518 C1515 1.499 . S
C1518 C1519 1.373 1_564 S
C1518 C1520 1.389 . S
C1519 H1498 0.950 . S
C1519 C1518 1.373 1_546 S
C1519 C1535 1.377 . S
C1520 C1518 1.389 . S
C1520 C1521 1.524 . S
C1520 C1534 1.377 . S
C1521 C1520 1.524 . S
C1521 C1522 1.397 . S
C1521 C1526 1.363 . S
C1522 H1499 0.950 . S
C1522 C1521 1.397 . S
C1522 C1523 1.334 . S
C1523 H1500 0.950 . S
C1523 C1522 1.334 . S
C1523 C1524 1.287 . S
C1524 C1523 1.287 . S
C1524 C1525 1.524 . S
C1524 H1543 0.913 . S
C1525 H1501 0.950 . S
C1525 C1524 1.524 . S
C1525 C1526 1.415 . S
C1526 H1502 0.950 . S
C1526 C1521 1.363 . S
C1526 C1525 1.415 . S
C1527 H1503 0.951 . S
C1527 C1528 1.366 . S
C1527 C1529 1.388 . S
C1528 C1527 1.366 . S
C1528 C1532 1.385 1_554 S
C1529 H1504 0.951 . S
C1529 C1527 1.388 . S
C1529 C1530 1.366 . S
C1530 C1529 1.366 . S
C1530 C1531 1.414 1_554 S
C1530 C1533 1.499 . S
C1531 H1505 0.950 . S
C1531 C1530 1.414 1_556 S
C1531 C1532 1.374 . S
C1532 H1506 0.950 . S
C1532 C1528 1.385 1_556 S
C1532 C1531 1.374 . S
C1533 C1530 1.499 . S
C1533 C1534 1.373 1_545 S
C1533 C1535 1.389 1_554 S
C1534 H1507 0.950 . S
C1534 C1520 1.377 . S
C1534 C1533 1.373 1_565 S
C1535 C1519 1.377 . S
C1535 C1533 1.389 1_556 S
C1535 C1536 1.524 . S
C1536 C1535 1.524 . S
C1536 C1537 1.397 . S
C1536 C1541 1.363 . S
C1537 H1508 0.950 . S
C1537 C1536 1.397 . S
C1537 C1538 1.334 . S
C1538 H1509 0.950 . S
C1538 C1537 1.334 . S
C1538 C1539 1.287 . S
C1539 C1538 1.287 . S
C1539 C1540 1.524 . S
C1539 H1542 0.999 . S
C1540 H1510 0.950 . S
C1540 C1539 1.524 . S
C1540 C1541 1.415 . S
C1541 H1511 0.950 . S
C1541 C1536 1.363 . S
C1541 C1540 1.415 . S
H1542 C1539 0.999 . S
H1543 C1524 0.913 . S
H1544 C1562 0.951 . S
H1545 C1564 0.951 . S
H1546 C1566 0.950 . S
H1547 C1567 0.950 . S
H1548 C1569 0.950 . S
H1549 C1572 0.950 . S
H1550 C1573 0.950 . S
H1551 C1575 0.950 . S
H1552 C1576 0.950 . S
H1553 C1577 0.951 . S
H1554 C1579 0.951 . S
H1555 C1581 0.950 . S
H1556 C1582 0.950 . S
H1557 C1584 0.950 . S
H1558 C1587 0.950 . S
H1559 C1588 0.950 . S
H1560 C1590 0.950 . S
H1561 C1591 0.950 . S
C1562 H1544 0.951 . S
C1562 C1563 1.366 . S
C1562 C1564 1.388 . S
C1563 C1562 1.366 . S
C1563 C1567 1.385 . S
C1564 H1545 0.951 . S
C1564 C1562 1.388 . S
C1564 C1565 1.366 . S
C1565 C1564 1.366 . S
C1565 C1566 1.414 . S
C1565 C1568 1.499 . S
C1566 H1546 0.950 . S
C1566 C1565 1.414 . S
C1566 C1567 1.374 . S
C1567 H1547 0.950 . S
C1567 C1563 1.385 . S
C1567 C1566 1.374 . S
C1568 C1565 1.499 . S
C1568 C1569 1.373 . S
C1568 C1570 1.389 . S
C1569 H1548 0.950 . S
C1569 C1568 1.373 . S
C1569 C1585 1.377 . S
C1570 C1568 1.389 . S
C1570 C1571 1.524 . S
C1570 C1584 1.377 . S
C1571 C1570 1.524 . S
C1571 C1572 1.397 . S
C1571 C1576 1.363 . S
C1572 H1549 0.950 . S
C1572 C1571 1.397 . S
C1572 C1573 1.334 . S
C1573 H1550 0.950 . S
C1573 C1572 1.334 . S
C1573 C1574 1.287 . S
C1574 C1573 1.287 . S
C1574 C1575 1.524 . S
C1574 H1593 0.913 . S
C1575 H1551 0.950 . S
C1575 C1574 1.524 . S
C1575 C1576 1.415 . S
C1576 H1552 0.950 . S
C1576 C1571 1.363 . S
C1576 C1575 1.415 . S
C1577 H1553 0.951 . S
C1577 C1578 1.366 . S
C1577 C1579 1.388 . S
C1578 C1577 1.366 . S
C1578 C1582 1.385 . S
C1579 H1554 0.951 . S
C1579 C1577 1.388 . S
C1579 C1580 1.366 . S
C1580 C1579 1.366 . S
C1580 C1581 1.414 . S
C1580 C1583 1.499 . S
C1581 H1555 0.950 . S
C1581 C1580 1.414 . S
C1581 C1582 1.374 . S
C1582 H1556 0.950 . S
C1582 C1578 1.385 . S
C1582 C1581 1.374 . S
C1583 C1580 1.499 . S
C1583 C1584 1.373 . S
C1583 C1585 1.389 . S
C1584 H1557 0.950 . S
C1584 C1570 1.377 . S
C1584 C1583 1.373 . S
C1585 C1569 1.377 . S
C1585 C1583 1.389 . S
C1585 C1586 1.524 . S
C1586 C1585 1.524 . S
C1586 C1587 1.397 . S
C1586 C1591 1.363 . S
C1587 H1558 0.950 . S
C1587 C1586 1.397 . S
C1587 C1588 1.334 . S
C1588 H1559 0.950 . S
C1588 C1587 1.334 . S
C1588 C1589 1.287 . S
C1589 C1588 1.287 . S
C1589 C1590 1.524 . S
C1589 H1592 0.999 . S
C1590 H1560 0.950 . S
C1590 C1589 1.524 . S
C1590 C1591 1.415 . S
C1591 H1561 0.950 . S
C1591 C1586 1.363 . S
C1591 C1590 1.415 . S
H1592 C1589 0.999 . S
H1593 C1574 0.913 . S
H1594 C1612 0.951 . S
H1595 C1614 0.951 . S
H1596 C1616 0.950 . S
H1597 C1617 0.950 . S
H1598 C1619 0.950 . S
H1599 C1622 0.950 . S
H1600 C1623 0.950 . S
H1601 C1625 0.950 . S
H1602 C1626 0.950 . S
H1603 C1627 0.951 . S
H1604 C1629 0.951 . S
H1605 C1631 0.950 . S
H1606 C1632 0.950 . S
H1607 C1634 0.950 . S
H1608 C1637 0.950 . S
H1609 C1638 0.950 . S
H1610 C1640 0.950 . S
H1611 C1641 0.950 . S
C1612 H1594 0.951 . S
C1612 C1613 1.366 . S
C1612 C1614 1.388 . S
C1613 C1612 1.366 . S
C1613 C1617 1.385 . S
C1614 H1595 0.951 . S
C1614 C1612 1.388 . S
C1614 C1615 1.366 . S
C1615 C1614 1.366 . S
C1615 C1616 1.414 . S
C1615 C1618 1.499 . S
C1616 H1596 0.950 . S
C1616 C1615 1.414 . S
C1616 C1617 1.374 . S
C1617 H1597 0.950 . S
C1617 C1613 1.385 . S
C1617 C1616 1.374 . S
C1618 C1615 1.499 . S
C1618 C1619 1.373 . S
C1618 C1620 1.389 . S
C1619 H1598 0.950 . S
C1619 C1618 1.373 . S
C1619 C1635 1.377 . S
C1620 C1618 1.389 . S
C1620 C1621 1.524 . S
C1620 C1634 1.377 . S
C1621 C1620 1.524 . S
C1621 C1622 1.397 . S
C1621 C1626 1.363 . S
C1622 H1599 0.950 . S
C1622 C1621 1.397 . S
C1622 C1623 1.334 . S
C1623 H1600 0.950 . S
C1623 C1622 1.334 . S
C1623 C1624 1.287 . S
C1624 C1623 1.287 . S
C1624 C1625 1.524 . S
C1624 H1643 0.913 . S
C1625 H1601 0.950 . S
C1625 C1624 1.524 . S
C1625 C1626 1.415 . S
C1626 H1602 0.950 . S
C1626 C1621 1.363 . S
C1626 C1625 1.415 . S
C1627 H1603 0.951 . S
C1627 C1628 1.366 . S
C1627 C1629 1.388 . S
C1628 C1627 1.366 . S
C1628 C1632 1.385 . S
C1629 H1604 0.951 . S
C1629 C1627 1.388 . S
C1629 C1630 1.366 . S
C1630 C1629 1.366 . S
C1630 C1631 1.414 . S
C1630 C1633 1.499 . S
C1631 H1605 0.950 . S
C1631 C1630 1.414 . S
C1631 C1632 1.374 . S
C1632 H1606 0.950 . S
C1632 C1628 1.385 . S
C1632 C1631 1.374 . S
C1633 C1630 1.499 . S
C1633 C1634 1.373 . S
C1633 C1635 1.389 . S
C1634 H1607 0.950 . S
C1634 C1620 1.377 . S
C1634 C1633 1.373 . S
C1635 C1619 1.377 . S
C1635 C1633 1.389 . S
C1635 C1636 1.524 . S
C1636 C1635 1.524 . S
C1636 C1637 1.397 . S
C1636 C1641 1.363 . S
C1637 H1608 0.950 . S
C1637 C1636 1.397 . S
C1637 C1638 1.334 . S
C1638 H1609 0.950 . S
C1638 C1637 1.334 . S
C1638 C1639 1.287 . S
C1639 C1638 1.287 . S
C1639 C1640 1.524 . S
C1639 H1642 0.999 . S
C1640 H1610 0.950 . S
C1640 C1639 1.524 . S
C1640 C1641 1.415 . S
C1641 H1611 0.950 . S
C1641 C1636 1.363 . S
C1641 C1640 1.415 . S
H1642 C1639 0.999 . S
H1643 C1624 0.913 . S
H1644 C1662 0.951 . S
H1645 C1664 0.951 . S
H1646 C1666 0.950 . S
H1647 C1667 0.950 . S
H1648 C1669 0.950 . S
H1649 C1672 0.950 . S
H1650 C1673 0.950 . S
H1651 C1675 0.950 . S
H1652 C1676 0.950 . S
H1653 C1677 0.951 . S
H1654 C1679 0.951 . S
H1655 C1681 0.950 . S
H1656 C1682 0.950 . S
H1657 C1684 0.950 . S
H1658 C1687 0.950 . S
H1659 C1688 0.950 . S
H1660 C1690 0.950 . S
H1661 C1691 0.950 . S
C1662 H1644 0.951 . S
C1662 C1663 1.366 . S
C1662 C1664 1.388 . S
C1663 C1662 1.366 . S
C1663 C1667 1.385 . S
C1664 H1645 0.951 . S
C1664 C1662 1.388 . S
C1664 C1665 1.366 . S
C1665 C1664 1.366 . S
C1665 C1666 1.414 . S
C1665 C1668 1.499 . S
C1666 H1646 0.950 . S
C1666 C1665 1.414 . S
C1666 C1667 1.374 . S
C1667 H1647 0.950 . S
C1667 C1663 1.385 . S
C1667 C1666 1.374 . S
C1668 C1665 1.499 . S
C1668 C1669 1.373 . S
C1668 C1670 1.389 1_565 S
C1669 H1648 0.950 . S
C1669 C1668 1.373 . S
C1669 C1685 1.377 . S
C1670 C1668 1.389 1_545 S
C1670 C1671 1.524 . S
C1670 C1684 1.377 . S
C1671 C1670 1.524 . S
C1671 C1672 1.397 . S
C1671 C1676 1.363 . S
C1672 H1649 0.950 . S
C1672 C1671 1.397 . S
C1672 C1673 1.334 . S
C1673 H1650 0.950 . S
C1673 C1672 1.334 . S
C1673 C1674 1.287 . S
C1674 C1673 1.287 . S
C1674 C1675 1.524 . S
C1674 H1693 0.913 . S
C1675 H1651 0.950 . S
C1675 C1674 1.524 . S
C1675 C1676 1.415 . S
C1676 H1652 0.950 . S
C1676 C1671 1.363 . S
C1676 C1675 1.415 . S
C1677 H1653 0.951 . S
C1677 C1678 1.366 . S
C1677 C1679 1.388 . S
C1678 C1677 1.366 . S
C1678 C1682 1.385 . S
C1679 H1654 0.951 . S
C1679 C1677 1.388 . S
C1679 C1680 1.366 . S
C1680 C1679 1.366 . S
C1680 C1681 1.414 . S
C1680 C1683 1.499 . S
C1681 H1655 0.950 . S
C1681 C1680 1.414 . S
C1681 C1682 1.374 . S
C1682 H1656 0.950 . S
C1682 C1678 1.385 . S
C1682 C1681 1.374 . S
C1683 C1680 1.499 . S
C1683 C1684 1.373 . S
C1683 C1685 1.389 1_545 S
C1684 H1657 0.950 . S
C1684 C1670 1.377 . S
C1684 C1683 1.373 . S
C1685 C1669 1.377 . S
C1685 C1683 1.389 1_565 S
C1685 C1686 1.524 . S
C1686 C1685 1.524 . S
C1686 C1687 1.397 . S
C1686 C1691 1.363 . S
C1687 H1658 0.950 . S
C1687 C1686 1.397 . S
C1687 C1688 1.334 . S
C1688 H1659 0.950 . S
C1688 C1687 1.334 . S
C1688 C1689 1.287 . S
C1689 C1688 1.287 . S
C1689 C1690 1.524 . S
C1689 H1692 0.999 . S
C1690 H1660 0.950 . S
C1690 C1689 1.524 . S
C1690 C1691 1.415 . S
C1691 H1661 0.950 . S
C1691 C1686 1.363 . S
C1691 C1690 1.415 . S
H1692 C1689 0.999 . S
H1693 C1674 0.913 . S
H1694 C1712 0.951 . S
H1695 C1714 0.951 . S
H1696 C1716 0.950 . S
H1697 C1717 0.950 . S
H1698 C1719 0.950 . S
H1699 C1722 0.950 . S
H1700 C1723 0.950 . S
H1701 C1725 0.950 . S
H1702 C1726 0.950 . S
H1703 C1727 0.951 . S
H1704 C1729 0.951 . S
H1705 C1731 0.950 . S
H1706 C1732 0.950 . S
H1707 C1734 0.950 . S
H1708 C1737 0.950 . S
H1709 C1738 0.950 . S
H1710 C1740 0.950 . S
H1711 C1741 0.950 . S
C1712 H1694 0.951 . S
C1712 C1713 1.366 . S
C1712 C1714 1.388 . S
C1713 C1712 1.366 . S
C1713 C1717 1.385 . S
C1714 H1695 0.951 . S
C1714 C1712 1.388 . S
C1714 C1715 1.366 . S
C1715 C1714 1.366 . S
C1715 C1716 1.414 . S
C1715 C1718 1.499 . S
C1716 H1696 0.950 . S
C1716 C1715 1.414 . S
C1716 C1717 1.374 . S
C1717 H1697 0.950 . S
C1717 C1713 1.385 . S
C1717 C1716 1.374 . S
C1718 C1715 1.499 . S
C1718 C1719 1.373 . S
C1718 C1720 1.389 1_655 S
C1719 H1698 0.950 . S
C1719 C1718 1.373 . S
C1719 C1735 1.377 . S
C1720 C1718 1.389 1_455 S
C1720 C1721 1.524 . S
C1720 C1734 1.377 . S
C1721 C1720 1.524 . S
C1721 C1722 1.397 1_455 S
C1721 C1726 1.363 . S
C1722 H1699 0.950 . S
C1722 C1721 1.397 1_655 S
C1722 C1723 1.334 . S
C1723 H1700 0.950 . S
C1723 C1722 1.334 . S
C1723 C1724 1.287 1_655 S
C1724 C1723 1.287 1_455 S
C1724 C1725 1.524 . S
C1724 H1743 0.913 . S
C1725 H1701 0.950 . S
C1725 C1724 1.524 . S
C1725 C1726 1.415 . S
C1726 H1702 0.950 . S
C1726 C1721 1.363 . S
C1726 C1725 1.415 . S
C1727 H1703 0.951 . S
C1727 C1728 1.366 . S
C1727 C1729 1.388 . S
C1728 C1727 1.366 . S
C1728 C1732 1.385 . S
C1729 H1704 0.951 . S
C1729 C1727 1.388 . S
C1729 C1730 1.366 . S
C1730 C1729 1.366 . S
C1730 C1731 1.414 . S
C1730 C1733 1.499 . S
C1731 H1705 0.950 . S
C1731 C1730 1.414 . S
C1731 C1732 1.374 . S
C1732 H1706 0.950 . S
C1732 C1728 1.385 . S
C1732 C1731 1.374 . S
C1733 C1730 1.499 . S
C1733 C1734 1.373 . S
C1733 C1735 1.389 1_455 S
C1734 H1707 0.950 . S
C1734 C1720 1.377 . S
C1734 C1733 1.373 . S
C1735 C1719 1.377 . S
C1735 C1733 1.389 1_655 S
C1735 C1736 1.524 . S
C1736 C1735 1.524 . S
C1736 C1737 1.397 1_655 S
C1736 C1741 1.363 . S
C1737 H1708 0.950 . S
C1737 C1736 1.397 1_455 S
C1737 C1738 1.334 . S
C1738 H1709 0.950 . S
C1738 C1737 1.334 . S
C1738 C1739 1.287 1_455 S
C1739 C1738 1.287 1_655 S
C1739 C1740 1.524 . S
C1739 H1742 0.999 . S
C1740 H1710 0.950 . S
C1740 C1739 1.524 . S
C1740 C1741 1.415 . S
C1741 H1711 0.950 . S
C1741 C1736 1.363 . S
C1741 C1740 1.415 . S
H1742 C1739 0.999 . S
H1743 C1724 0.913 . S
H1744 C1762 0.951 . S
H1745 C1764 0.951 . S
H1746 C1766 0.950 . S
H1747 C1767 0.950 . S
H1748 C1769 0.950 . S
H1749 C1772 0.950 . S
H1750 C1773 0.957 . S
H1751 C1775 0.963 . S
H1752 C1776 0.950 . S
H1753 C1777 0.951 . S
H1754 C1779 0.951 1_565 S
H1755 C1781 0.948 1_565 S
H1756 C1782 0.950 . S
H1757 C1784 0.978 . S
H1758 C1787 0.950 . S
H1759 C1788 0.950 . S
H1760 C1790 0.950 . S
H1761 C1791 0.950 . S
C1762 H1744 0.951 . S
C1762 C1763 1.366 . S
C1762 C1764 1.388 . S
C1763 C1762 1.366 . S
C1763 C1767 1.385 . S
C1764 H1745 0.951 . S
C1764 C1762 1.388 . S
C1764 C1765 1.366 . S
C1765 C1764 1.366 . S
C1765 C1766 1.414 . S
C1765 C1768 1.499 . S
C1766 H1746 0.950 . S
C1766 C1765 1.414 . S
C1766 C1767 1.374 . S
C1767 H1747 0.950 . S
C1767 C1763 1.385 . S
C1767 C1766 1.374 . S
C1768 C1765 1.499 . S
C1768 C1769 1.373 . S
C1768 C1770 1.389 . S
C1769 H1748 0.950 . S
C1769 C1768 1.373 . S
C1769 C1785 1.377 . S
C1770 C1768 1.389 . S
C1770 C1771 1.524 . S
C1770 C1784 1.377 . S
C1771 C1770 1.524 . S
C1771 C1772 1.397 . S
C1771 C1776 1.363 . S
C1772 H1749 0.950 . S
C1772 C1771 1.397 . S
C1772 C1773 1.320 1_565 S
C1773 H1750 0.957 . S
C1773 C1772 1.320 1_545 S
C1773 C1774 1.295 . S
C1774 C1773 1.295 . S
C1774 C1775 1.536 . S
C1774 H1793 0.913 . S
C1775 H1751 0.963 . S
C1775 C1774 1.536 . S
C1775 C1776 1.392 1_545 S
C1776 H1752 0.950 . S
C1776 C1771 1.363 . S
C1776 C1775 1.392 1_565 S
C1777 H1753 0.951 . S
C1777 C1778 1.366 . S
C1777 C1779 1.388 . S
C1778 C1777 1.366 . S
C1778 C1782 1.385 . S
C1779 H1754 0.951 1_545 S
C1779 C1777 1.388 . S
C1779 C1780 1.366 1_545 S
C1780 C1779 1.366 1_565 S
C1780 C1781 1.412 1_565 S
C1780 C1783 1.499 . S
C1781 H1755 0.948 1_545 S
C1781 C1780 1.412 1_545 S
C1781 C1782 1.379 . S
C1782 H1756 0.950 . S
C1782 C1778 1.385 . S
C1782 C1781 1.379 . S
C1783 C1780 1.499 . S
C1783 C1784 1.373 . S
C1783 C1785 1.389 . S
C1784 H1757 0.978 . S
C1784 C1770 1.377 . S
C1784 C1783 1.373 . S
C1785 C1769 1.377 . S
C1785 C1783 1.389 . S
C1785 C1786 1.524 . S
C1786 C1785 1.524 . S
C1786 C1787 1.397 . S
C1786 C1791 1.363 . S
C1787 H1758 0.950 . S
C1787 C1786 1.397 . S
C1787 C1788 1.334 . S
C1788 H1759 0.950 . S
C1788 C1787 1.334 . S
C1788 C1789 1.287 . S
C1789 C1788 1.287 . S
C1789 C1790 1.524 . S
C1789 H1792 0.999 . S
C1790 H1760 0.950 . S
C1790 C1789 1.524 . S
C1790 C1791 1.415 . S
C1791 H1761 0.950 . S
C1791 C1786 1.363 . S
C1791 C1790 1.415 . S
H1792 C1789 0.999 . S
H1793 C1774 0.913 . S
H1794 C1812 0.951 . S
H1795 C1814 0.951 . S
H1796 C1816 0.950 . S
H1797 C1817 0.950 . S
H1798 C1819 0.950 1_455 S
H1799 C1822 0.950 . S
H1800 C1823 0.950 . S
H1801 C1825 0.950 . S
H1802 C1826 0.950 . S
H1803 C1827 0.951 . S
H1804 C1829 0.951 . S
H1805 C1831 0.950 . S
H1806 C1832 0.950 . S
H1807 C1834 0.950 . S
H1808 C1837 0.950 . S
H1809 C1838 0.950 . S
H1810 C1840 0.950 . S
H1811 C1841 0.950 . S
C1812 H1794 0.951 . S
C1812 C1813 1.366 1_655 S
C1812 C1814 1.388 . S
C1813 C1812 1.366 1_455 S
C1813 C1817 1.385 . S
C1814 H1795 0.951 . S
C1814 C1812 1.388 . S
C1814 C1815 1.366 . S
C1815 C1814 1.366 . S
C1815 C1816 1.414 1_655 S
C1815 C1818 1.499 . S
C1816 H1796 0.950 . S
C1816 C1815 1.414 1_455 S
C1816 C1817 1.374 . S
C1817 H1797 0.950 . S
C1817 C1813 1.385 . S
C1817 C1816 1.374 . S
C1818 C1815 1.499 . S
C1818 C1819 1.373 . S
C1818 C1820 1.389 . S
C1819 H1798 0.950 1_655 S
C1819 C1818 1.373 . S
C1819 C1835 1.377 . S
C1820 C1818 1.389 . S
C1820 C1821 1.524 . S
C1820 C1834 1.377 . S
C1821 C1820 1.524 . S
C1821 C1822 1.397 . S
C1821 C1826 1.363 . S
C1822 H1799 0.950 . S
C1822 C1821 1.397 . S
C1822 C1823 1.334 . S
C1823 H1800 0.950 . S
C1823 C1822 1.334 . S
C1823 C1824 1.287 . S
C1824 C1823 1.287 . S
C1824 C1825 1.524 . S
C1824 H1843 0.913 . S
C1825 H1801 0.950 . S
C1825 C1824 1.524 . S
C1825 C1826 1.415 . S
C1826 H1802 0.950 . S
C1826 C1821 1.363 . S
C1826 C1825 1.415 . S
C1827 H1803 0.951 . S
C1827 C1828 1.366 . S
C1827 C1829 1.388 . S
C1828 C1827 1.366 . S
C1828 C1832 1.385 . S
C1829 H1804 0.951 . S
C1829 C1827 1.388 . S
C1829 C1830 1.366 . S
C1830 C1829 1.366 . S
C1830 C1831 1.414 . S
C1830 C1833 1.499 . S
C1831 H1805 0.950 . S
C1831 C1830 1.414 . S
C1831 C1832 1.374 . S
C1832 H1806 0.950 . S
C1832 C1828 1.385 . S
C1832 C1831 1.374 . S
C1833 C1830 1.499 . S
C1833 C1834 1.373 . S
C1833 C1835 1.389 . S
C1834 H1807 0.950 . S
C1834 C1820 1.377 . S
C1834 C1833 1.373 . S
C1835 C1819 1.377 . S
C1835 C1833 1.389 . S
C1835 C1836 1.524 . S
C1836 C1835 1.524 . S
C1836 C1837 1.397 . S
C1836 C1841 1.363 1_655 S
C1837 H1808 0.950 . S
C1837 C1836 1.397 . S
C1837 C1838 1.334 . S
C1838 H1809 0.950 . S
C1838 C1837 1.334 . S
C1838 C1839 1.287 . S
C1839 C1838 1.287 . S
C1839 C1840 1.524 1_655 S
C1839 H1842 0.999 1_655 S
C1840 H1810 0.950 . S
C1840 C1839 1.524 1_455 S
C1840 C1841 1.415 . S
C1841 H1811 0.950 . S
C1841 C1836 1.363 1_455 S
C1841 C1840 1.415 . S
H1842 C1839 0.999 1_455 S
H1843 C1824 0.913 . S
H1844 C1862 0.951 . S
H1845 C1864 0.951 . S
H1846 C1866 0.950 . S
H1847 C1867 0.950 . S
H1848 C1869 0.950 . S
H1849 C1872 0.950 . S
H1850 C1873 0.950 . S
H1851 C1875 0.950 . S
H1852 C1876 0.950 . S
H1853 C1877 0.951 . S
H1854 C1879 0.951 . S
H1855 C1881 0.950 . S
H1856 C1882 0.950 . S
H1857 C1884 0.912 1_565 S
H1858 C1887 0.950 . S
H1859 C1888 0.950 . S
H1860 C1890 0.950 . S
H1861 C1891 0.950 . S
C1862 H1844 0.951 . S
C1862 C1863 1.366 . S
C1862 C1864 1.388 . S
C1863 C1862 1.366 . S
C1863 C1867 1.385 . S
C1864 H1845 0.951 . S
C1864 C1862 1.388 . S
C1864 C1865 1.366 . S
C1865 C1864 1.366 . S
C1865 C1866 1.414 . S
C1865 C1868 1.499 . S
C1866 H1846 0.950 . S
C1866 C1865 1.414 . S
C1866 C1867 1.374 . S
C1867 H1847 0.950 . S
C1867 C1863 1.385 . S
C1867 C1866 1.374 . S
C1868 C1865 1.499 . S
C1868 C1869 1.373 . S
C1868 C1870 1.389 . S
C1869 H1848 0.950 . S
C1869 C1868 1.373 . S
C1869 C1885 1.377 . S
C1870 C1868 1.389 . S
C1870 C1871 1.524 . S
C1870 C1884 1.377 . S
C1871 C1870 1.524 . S
C1871 C1872 1.397 . S
C1871 C1876 1.363 1_545 S
C1872 H1849 0.950 . S
C1872 C1871 1.397 . S
C1872 C1873 1.334 . S
C1873 H1850 0.950 . S
C1873 C1872 1.334 . S
C1873 C1874 1.287 . S
C1874 C1873 1.287 . S
C1874 C1875 1.524 1_545 S
C1874 H1893 0.913 . S
C1875 H1851 0.950 . S
C1875 C1874 1.524 1_565 S
C1875 C1876 1.415 . S
C1876 H1852 0.950 . S
C1876 C1871 1.363 1_565 S
C1876 C1875 1.415 . S
C1877 H1853 0.951 . S
C1877 C1878 1.366 1_545 S
C1877 C1879 1.388 . S
C1878 C1877 1.366 1_565 S
C1878 C1882 1.385 . S
C1879 H1854 0.951 . S
C1879 C1877 1.388 . S
C1879 C1880 1.366 . S
C1880 C1879 1.366 . S
C1880 C1881 1.414 1_545 S
C1880 C1883 1.499 . S
C1881 H1855 0.950 . S
C1881 C1880 1.414 1_565 S
C1881 C1882 1.374 . S
C1882 H1856 0.950 . S
C1882 C1878 1.385 . S
C1882 C1881 1.374 . S
C1883 C1880 1.499 . S
C1883 C1884 1.373 . S
C1883 C1885 1.389 . S
C1884 H1857 0.912 1_545 S
C1884 C1870 1.377 . S
C1884 C1883 1.373 . S
C1885 C1869 1.377 . S
C1885 C1883 1.389 . S
C1885 C1886 1.524 . S
C1886 C1885 1.524 . S
C1886 C1887 1.397 . S
C1886 C1891 1.363 . S
C1887 H1858 0.950 . S
C1887 C1886 1.397 . S
C1887 C1888 1.334 . S
C1888 H1859 0.950 . S
C1888 C1887 1.334 . S
C1888 C1889 1.287 . S
C1889 C1888 1.287 . S
C1889 C1890 1.524 . S
C1889 H1892 0.999 . S
C1890 H1860 0.950 . S
C1890 C1889 1.524 . S
C1890 C1891 1.415 . S
C1891 H1861 0.950 . S
C1891 C1886 1.363 . S
C1891 C1890 1.415 . S
H1892 C1889 0.999 . S
H1893 C1874 0.913 . S
H1894 C1912 0.935 1_455 S
H1895 C1914 0.951 . S
H1896 C1916 0.950 . S
H1897 C1917 0.950 . S
H1898 C1919 0.950 . S
H1899 C1922 0.950 . S
H1900 C1923 0.950 . S
H1901 C1925 0.950 . S
H1902 C1926 0.950 . S
H1903 C1927 0.951 . S
H1904 C1929 0.951 . S
H1905 C1931 0.950 . S
H1906 C1932 0.950 . S
H1907 C1934 0.950 . S
H1908 C1937 0.950 . S
H1909 C1938 0.950 . S
H1910 C1940 0.950 . S
H1911 C1941 0.950 . S
C1912 H1894 0.935 1_655 S
C1912 C1913 1.412 . S
C1912 C1914 1.360 1_655 S
C1913 C1912 1.412 . S
C1913 C1917 1.385 . S
C1914 H1895 0.951 . S
C1914 C1912 1.360 1_455 S
C1914 C1915 1.366 . S
C1915 C1914 1.366 . S
C1915 C1916 1.414 1_455 S
C1915 C1918 1.499 . S
C1916 H1896 0.950 . S
C1916 C1915 1.414 1_655 S
C1916 C1917 1.374 . S
C1917 H1897 0.950 . S
C1917 C1913 1.385 . S
C1917 C1916 1.374 . S
C1918 C1915 1.499 . S
C1918 C1919 1.373 . S
C1918 C1920 1.389 . S
C1919 H1898 0.950 . S
C1919 C1918 1.373 . S
C1919 C1935 1.377 . S
C1920 C1918 1.389 . S
C1920 C1921 1.524 . S
C1920 C1934 1.377 . S
C1921 C1920 1.524 . S
C1921 C1922 1.397 1_455 S
C1921 C1926 1.363 . S
C1922 H1899 0.950 . S
C1922 C1921 1.397 1_655 S
C1922 C1923 1.334 . S
C1923 H1900 0.950 . S
C1923 C1922 1.334 . S
C1923 C1924 1.249 1_655 S
C1924 C1923 1.249 1_455 S
C1924 C1925 1.582 . S
C1924 H1943 0.894 1_455 S
C1925 H1901 0.950 . S
C1925 C1924 1.582 . S
C1925 C1926 1.415 . S
C1926 H1902 0.950 . S
C1926 C1921 1.363 . S
C1926 C1925 1.415 . S
C1927 H1903 0.951 . S
C1927 C1928 1.366 . S
C1927 C1929 1.388 . S
C1928 C1927 1.366 . S
C1928 C1932 1.385 . S
C1929 H1904 0.951 . S
C1929 C1927 1.388 . S
C1929 C1930 1.366 . S
C1930 C1929 1.366 . S
C1930 C1931 1.414 . S
C1930 C1933 1.499 . S
C1931 H1905 0.950 . S
C1931 C1930 1.414 . S
C1931 C1932 1.374 . S
C1932 H1906 0.950 . S
C1932 C1928 1.385 . S
C1932 C1931 1.374 . S
C1933 C1930 1.499 . S
C1933 C1934 1.373 . S
C1933 C1935 1.389 . S
C1934 H1907 0.950 . S
C1934 C1920 1.377 . S
C1934 C1933 1.373 . S
C1935 C1919 1.377 . S
C1935 C1933 1.389 . S
C1935 C1936 1.524 . S
C1936 C1935 1.524 . S
C1936 C1937 1.397 . S
C1936 C1941 1.363 . S
C1937 H1908 0.950 . S
C1937 C1936 1.397 . S
C1937 C1938 1.334 . S
C1938 H1909 0.950 . S
C1938 C1937 1.334 . S
C1938 C1939 1.287 . S
C1939 C1938 1.287 . S
C1939 C1940 1.524 . S
C1939 H1942 0.999 . S
C1940 H1910 0.950 . S
C1940 C1939 1.524 . S
C1940 C1941 1.415 . S
C1941 H1911 0.950 . S
C1941 C1936 1.363 . S
C1941 C1940 1.415 . S
H1942 C1939 0.999 . S
H1943 C1924 0.894 1_655 S
H1944 C1962 0.951 . S
H1945 C1964 0.951 . S
H1946 C1966 0.950 . S
H1947 C1967 0.950 . S
H1948 C1969 0.950 . S
H1949 C1972 0.950 . S
H1950 C1973 0.950 . S
H1951 C1975 0.950 . S
H1952 C1976 0.950 . S
H1953 C1977 0.951 . S
H1954 C1979 0.951 . S
H1955 C1981 0.950 . S
H1956 C1982 0.950 . S
H1957 C1984 0.950 . S
H1958 C1987 0.950 . S
H1959 C1988 0.950 . S
H1960 C1990 0.950 . S
H1961 C1991 0.950 . S
C1962 H1944 0.951 . S
C1962 C1963 1.366 . S
C1962 C1964 1.388 . S
C1963 C1962 1.366 . S
C1963 C1967 1.385 . S
C1964 H1945 0.951 . S
C1964 C1962 1.388 . S
C1964 C1965 1.366 . S
C1965 C1964 1.366 . S
C1965 C1966 1.414 . S
C1965 C1968 1.499 . S
C1966 H1946 0.950 . S
C1966 C1965 1.414 . S
C1966 C1967 1.374 . S
C1967 H1947 0.950 . S
C1967 C1963 1.385 . S
C1967 C1966 1.374 . S
C1968 C1965 1.499 . S
C1968 C1969 1.373 . S
C1968 C1970 1.389 . S
C1969 H1948 0.950 . S
C1969 C1968 1.373 . S
C1969 C1985 1.377 . S
C1970 C1968 1.389 . S
C1970 C1971 1.524 . S
C1970 C1984 1.377 . S
C1971 C1970 1.524 . S
C1971 C1972 1.397 . S
C1971 C1976 1.363 . S
C1972 H1949 0.950 . S
C1972 C1971 1.397 . S
C1972 C1973 1.334 . S
C1973 H1950 0.950 . S
C1973 C1972 1.334 . S
C1973 C1974 1.287 . S
C1974 C1973 1.287 . S
C1974 C1975 1.524 . S
C1974 H1993 0.913 . S
C1975 H1951 0.950 . S
C1975 C1974 1.524 . S
C1975 C1976 1.415 . S
C1976 H1952 0.950 . S
C1976 C1971 1.363 . S
C1976 C1975 1.415 . S
C1977 H1953 0.951 . S
C1977 C1978 1.366 . S
C1977 C1979 1.388 . S
C1978 C1977 1.366 . S
C1978 C1982 1.385 . S
C1979 H1954 0.951 . S
C1979 C1977 1.388 . S
C1979 C1980 1.366 . S
C1980 C1979 1.366 . S
C1980 C1981 1.414 . S
C1980 C1983 1.499 . S
C1981 H1955 0.950 . S
C1981 C1980 1.414 . S
C1981 C1982 1.374 . S
C1982 H1956 0.950 . S
C1982 C1978 1.385 . S
C1982 C1981 1.374 . S
C1983 C1980 1.499 . S
C1983 C1984 1.373 . S
C1983 C1985 1.389 . S
C1984 H1957 0.950 . S
C1984 C1970 1.377 . S
C1984 C1983 1.373 . S
C1985 C1969 1.377 . S
C1985 C1983 1.389 . S
C1985 C1986 1.524 . S
C1986 C1985 1.524 . S
C1986 C1987 1.397 . S
C1986 C1991 1.363 . S
C1987 H1958 0.950 . S
C1987 C1986 1.397 . S
C1987 C1988 1.334 . S
C1988 H1959 0.950 . S
C1988 C1987 1.334 . S
C1988 C1989 1.287 . S
C1989 C1988 1.287 . S
C1989 C1990 1.524 . S
C1989 H1992 0.999 . S
C1990 H1960 0.950 . S
C1990 C1989 1.524 . S
C1990 C1991 1.415 . S
C1991 H1961 0.950 . S
C1991 C1986 1.363 . S
C1991 C1990 1.415 . S
H1992 C1989 0.999 . S
H1993 C1974 0.913 . S
H1994 C2012 0.951 . S
H1995 C2014 0.951 . S
H1996 C2016 0.950 . S
H1997 C2017 0.950 . S
H1998 C2019 0.950 . S
H1999 C2022 0.950 . S
H2000 C2023 0.950 . S
H2001 C2025 0.950 . S
H2002 C2026 0.950 . S
H2003 C2027 0.951 . S
H2004 C2029 0.951 . S
H2005 C2031 0.950 . S
H2006 C2032 0.950 . S
H2007 C2034 0.950 . S
H2008 C2037 0.950 . S
H2009 C2038 0.950 . S
H2010 C2040 0.950 . S
H2011 C2041 0.950 . S
C2012 H1994 0.951 . S
C2012 C2013 1.366 . S
C2012 C2014 1.388 . S
C2013 C2012 1.366 . S
C2013 C2017 1.385 . S
C2014 H1995 0.951 . S
C2014 C2012 1.388 . S
C2014 C2015 1.366 . S
C2015 C2014 1.366 . S
C2015 C2016 1.414 . S
C2015 C2018 1.499 . S
C2016 H1996 0.950 . S
C2016 C2015 1.414 . S
C2016 C2017 1.374 . S
C2017 H1997 0.950 . S
C2017 C2013 1.385 . S
C2017 C2016 1.374 . S
C2018 C2015 1.499 . S
C2018 C2019 1.373 . S
C2018 C2020 1.389 . S
C2019 H1998 0.950 . S
C2019 C2018 1.373 . S
C2019 C2035 1.377 . S
C2020 C2018 1.389 . S
C2020 C2021 1.524 . S
C2020 C2034 1.377 . S
C2021 C2020 1.524 . S
C2021 C2022 1.397 . S
C2021 C2026 1.363 . S
C2022 H1999 0.950 . S
C2022 C2021 1.397 . S
C2022 C2023 1.334 . S
C2023 H2000 0.950 . S
C2023 C2022 1.334 . S
C2023 C2024 1.287 . S
C2024 C2023 1.287 . S
C2024 C2025 1.524 . S
C2024 H2043 0.913 . S
C2025 H2001 0.950 . S
C2025 C2024 1.524 . S
C2025 C2026 1.415 . S
C2026 H2002 0.950 . S
C2026 C2021 1.363 . S
C2026 C2025 1.415 . S
C2027 H2003 0.951 . S
C2027 C2028 1.366 . S
C2027 C2029 1.388 . S
C2028 C2027 1.366 . S
C2028 C2032 1.385 . S
C2029 H2004 0.951 . S
C2029 C2027 1.388 . S
C2029 C2030 1.366 . S
C2030 C2029 1.366 . S
C2030 C2031 1.414 . S
C2030 C2033 1.499 . S
C2031 H2005 0.950 . S
C2031 C2030 1.414 . S
C2031 C2032 1.374 . S
C2032 H2006 0.950 . S
C2032 C2028 1.385 . S
C2032 C2031 1.374 . S
C2033 C2030 1.499 . S
C2033 C2034 1.373 . S
C2033 C2035 1.389 . S
C2034 H2007 0.950 . S
C2034 C2020 1.377 . S
C2034 C2033 1.373 . S
C2035 C2019 1.377 . S
C2035 C2033 1.389 . S
C2035 C2036 1.524 . S
C2036 C2035 1.524 . S
C2036 C2037 1.397 . S
C2036 C2041 1.363 . S
C2037 H2008 0.950 . S
C2037 C2036 1.397 . S
C2037 C2038 1.334 . S
C2038 H2009 0.950 . S
C2038 C2037 1.334 . S
C2038 C2039 1.287 . S
C2039 C2038 1.287 . S
C2039 C2040 1.524 . S
C2039 H2042 0.999 . S
C2040 H2010 0.950 . S
C2040 C2039 1.524 . S
C2040 C2041 1.415 . S
C2041 H2011 0.950 . S
C2041 C2036 1.363 . S
C2041 C2040 1.415 . S
H2042 C2039 0.999 . S
H2043 C2024 0.913 . S
H2044 C2062 0.951 . S
H2045 C2064 0.951 . S
H2046 C2066 0.950 . S
H2047 C2067 0.950 . S
H2048 C2069 0.950 . S
H2049 C2072 0.950 . S
H2050 C2073 0.950 . S
H2051 C2075 0.950 . S
H2052 C2076 0.950 . S
H2053 C2077 0.951 . S
H2054 C2079 0.951 . S
H2055 C2081 0.950 . S
H2056 C2082 0.950 . S
H2057 C2084 0.950 . S
H2058 C2087 0.950 . S
H2059 C2088 0.950 . S
H2060 C2090 0.950 . S
H2061 C2091 0.950 . S
C2062 H2044 0.951 . S
C2062 C2063 1.366 . S
C2062 C2064 1.388 . S
C2063 C2062 1.366 . S
C2063 C2067 1.385 . S
C2064 H2045 0.951 . S
C2064 C2062 1.388 . S
C2064 C2065 1.366 . S
C2065 C2064 1.366 . S
C2065 C2066 1.414 . S
C2065 C2068 1.499 . S
C2066 H2046 0.950 . S
C2066 C2065 1.414 . S
C2066 C2067 1.374 . S
C2067 H2047 0.950 . S
C2067 C2063 1.385 . S
C2067 C2066 1.374 . S
C2068 C2065 1.499 . S
C2068 C2069 1.373 . S
C2068 C2070 1.389 . S
C2069 H2048 0.950 . S
C2069 C2068 1.373 . S
C2069 C2085 1.377 . S
C2070 C2068 1.389 . S
C2070 C2071 1.524 . S
C2070 C2084 1.377 . S
C2071 C2070 1.524 . S
C2071 C2072 1.397 . S
C2071 C2076 1.363 . S
C2072 H2049 0.950 . S
C2072 C2071 1.397 . S
C2072 C2073 1.334 . S
C2073 H2050 0.950 . S
C2073 C2072 1.334 . S
C2073 C2074 1.287 . S
C2074 C2073 1.287 . S
C2074 C2075 1.524 . S
C2074 H2093 0.913 . S
C2075 H2051 0.950 . S
C2075 C2074 1.524 . S
C2075 C2076 1.415 . S
C2076 H2052 0.950 . S
C2076 C2071 1.363 . S
C2076 C2075 1.415 . S
C2077 H2053 0.951 . S
C2077 C2078 1.366 . S
C2077 C2079 1.388 . S
C2078 C2077 1.366 . S
C2078 C2082 1.385 . S
C2079 H2054 0.951 . S
C2079 C2077 1.388 . S
C2079 C2080 1.366 . S
C2080 C2079 1.366 . S
C2080 C2081 1.414 . S
C2080 C2083 1.499 . S
C2081 H2055 0.950 . S
C2081 C2080 1.414 . S
C2081 C2082 1.374 . S
C2082 H2056 0.950 . S
C2082 C2078 1.385 . S
C2082 C2081 1.374 . S
C2083 C2080 1.499 . S
C2083 C2084 1.373 . S
C2083 C2085 1.389 . S
C2084 H2057 0.950 . S
C2084 C2070 1.377 . S
C2084 C2083 1.373 . S
C2085 C2069 1.377 . S
C2085 C2083 1.389 . S
C2085 C2086 1.524 . S
C2086 C2085 1.524 . S
C2086 C2087 1.397 . S
C2086 C2091 1.363 . S
C2087 H2058 0.950 . S
C2087 C2086 1.397 . S
C2087 C2088 1.334 . S
C2088 H2059 0.950 . S
C2088 C2087 1.334 . S
C2088 C2089 1.287 . S
C2089 C2088 1.287 . S
C2089 C2090 1.524 . S
C2089 H2092 0.999 . S
C2090 H2060 0.950 . S
C2090 C2089 1.524 . S
C2090 C2091 1.415 . S
C2091 H2061 0.950 . S
C2091 C2086 1.363 . S
C2091 C2090 1.415 . S
H2092 C2089 0.999 . S
H2093 C2074 0.913 . S
H2094 C2112 0.951 . S
H2095 C2114 0.951 . S
H2096 C2116 0.950 . S
H2097 C2117 0.950 . S
H2098 C2119 0.950 . S
H2099 C2122 0.950 . S
H2100 C2123 0.950 . S
H2101 C2125 0.950 . S
H2102 C2126 0.950 . S
H2103 C2127 0.951 . S
H2104 C2129 0.951 . S
H2105 C2131 0.950 . S
H2106 C2132 0.950 . S
H2107 C2134 0.950 . S
H2108 C2137 0.950 . S
H2109 C2138 0.950 . S
H2110 C2140 0.950 . S
H2111 C2141 0.950 . S
C2112 H2094 0.951 . S
C2112 C2113 1.366 . S
C2112 C2114 1.388 . S
C2113 C2112 1.366 . S
C2113 C2117 1.385 . S
C2114 H2095 0.951 . S
C2114 C2112 1.388 . S
C2114 C2115 1.366 . S
C2115 C2114 1.366 . S
C2115 C2116 1.414 . S
C2115 C2118 1.499 . S
C2116 H2096 0.950 . S
C2116 C2115 1.414 . S
C2116 C2117 1.374 . S
C2117 H2097 0.950 . S
C2117 C2113 1.385 . S
C2117 C2116 1.374 . S
C2118 C2115 1.499 . S
C2118 C2119 1.373 . S
C2118 C2120 1.389 . S
C2119 H2098 0.950 . S
C2119 C2118 1.373 . S
C2119 C2135 1.377 . S
C2120 C2118 1.389 . S
C2120 C2121 1.524 . S
C2120 C2134 1.377 . S
C2121 C2120 1.524 . S
C2121 C2122 1.397 . S
C2121 C2126 1.363 . S
C2122 H2099 0.950 . S
C2122 C2121 1.397 . S
C2122 C2123 1.334 . S
C2123 H2100 0.950 . S
C2123 C2122 1.334 . S
C2123 C2124 1.287 . S
C2124 C2123 1.287 . S
C2124 C2125 1.524 . S
C2124 H2143 0.913 . S
C2125 H2101 0.950 . S
C2125 C2124 1.524 . S
C2125 C2126 1.415 . S
C2126 H2102 0.950 . S
C2126 C2121 1.363 . S
C2126 C2125 1.415 . S
C2127 H2103 0.951 . S
C2127 C2128 1.366 . S
C2127 C2129 1.388 . S
C2128 C2127 1.366 . S
C2128 C2132 1.385 . S
C2129 H2104 0.951 . S
C2129 C2127 1.388 . S
C2129 C2130 1.366 . S
C2130 C2129 1.366 . S
C2130 C2131 1.414 . S
C2130 C2133 1.499 . S
C2131 H2105 0.950 . S
C2131 C2130 1.414 . S
C2131 C2132 1.374 . S
C2132 H2106 0.950 . S
C2132 C2128 1.385 . S
C2132 C2131 1.374 . S
C2133 C2130 1.499 . S
C2133 C2134 1.373 . S
C2133 C2135 1.389 . S
C2134 H2107 0.950 . S
C2134 C2120 1.377 . S
C2134 C2133 1.373 . S
C2135 C2119 1.377 . S
C2135 C2133 1.389 . S
C2135 C2136 1.524 . S
C2136 C2135 1.524 . S
C2136 C2137 1.397 . S
C2136 C2141 1.363 . S
C2137 H2108 0.950 . S
C2137 C2136 1.397 . S
C2137 C2138 1.334 . S
C2138 H2109 0.950 . S
C2138 C2137 1.334 . S
C2138 C2139 1.287 . S
C2139 C2138 1.287 . S
C2139 C2140 1.524 . S
C2139 H2142 0.999 . S
C2140 H2110 0.950 . S
C2140 C2139 1.524 . S
C2140 C2141 1.415 . S
C2141 H2111 0.950 . S
C2141 C2136 1.363 . S
C2141 C2140 1.415 . S
H2142 C2139 0.999 . S
H2143 C2124 0.913 . S
H2144 C2162 0.951 . S
H2145 C2164 0.951 . S
H2146 C2166 0.950 . S
H2147 C2167 0.950 . S
H2148 C2169 0.950 . S
H2149 C2172 0.950 . S
H2150 C2173 0.950 . S
H2151 C2175 0.950 . S
H2152 C2176 0.950 . S
H2153 C2177 0.951 . S
H2154 C2179 0.951 . S
H2155 C2181 0.950 . S
H2156 C2182 0.950 . S
H2157 C2184 0.950 . S
H2158 C2187 0.950 . S
H2159 C2188 0.950 . S
H2160 C2190 0.951 . S
H2161 C2191 0.949 1_556 S
C2162 H2144 0.951 . S
C2162 C2163 1.366 . S
C2162 C2164 1.388 . S
C2163 C2162 1.366 . S
C2163 C2167 1.385 . S
C2164 H2145 0.951 . S
C2164 C2162 1.388 . S
C2164 C2165 1.366 . S
C2165 C2164 1.366 . S
C2165 C2166 1.414 . S
C2165 C2168 1.499 . S
C2166 H2146 0.950 . S
C2166 C2165 1.414 . S
C2166 C2167 1.374 . S
C2167 H2147 0.950 . S
C2167 C2163 1.385 . S
C2167 C2166 1.374 . S
C2168 C2165 1.499 . S
C2168 C2169 1.373 . S
C2168 C2170 1.389 . S
C2169 H2148 0.950 . S
C2169 C2168 1.373 . S
C2169 C2185 1.377 1_556 S
C2170 C2168 1.389 . S
C2170 C2171 1.524 . S
C2170 C2184 1.377 1_556 S
C2171 C2170 1.524 . S
C2171 C2172 1.397 . S
C2171 C2176 1.363 1_556 S
C2172 H2149 0.950 . S
C2172 C2171 1.397 . S
C2172 C2173 1.334 . S
C2173 H2150 0.950 . S
C2173 C2172 1.334 . S
C2173 C2174 1.291 . S
C2174 C2173 1.291 . S
C2174 C2175 1.522 1_556 S
C2174 H2193 0.915 . S
C2175 H2151 0.950 . S
C2175 C2174 1.522 1_554 S
C2175 C2176 1.415 . S
C2176 H2152 0.950 . S
C2176 C2171 1.363 1_554 S
C2176 C2175 1.415 . S
C2177 H2153 0.951 . S
C2177 C2178 1.366 . S
C2177 C2179 1.388 . S
C2178 C2177 1.366 . S
C2178 C2182 1.385 . S
C2179 H2154 0.951 . S
C2179 C2177 1.388 . S
C2179 C2180 1.366 . S
C2180 C2179 1.366 . S
C2180 C2181 1.414 . S
C2180 C2183 1.499 . S
C2181 H2155 0.950 . S
C2181 C2180 1.414 . S
C2181 C2182 1.374 . S
C2182 H2156 0.950 . S
C2182 C2178 1.385 . S
C2182 C2181 1.374 . S
C2183 C2180 1.499 . S
C2183 C2184 1.373 . S
C2183 C2185 1.389 . S
C2184 H2157 0.950 . S
C2184 C2170 1.377 1_554 S
C2184 C2183 1.373 . S
C2185 C2169 1.377 1_554 S
C2185 C2183 1.389 . S
C2185 C2186 1.524 . S
C2186 C2185 1.524 . S
C2186 C2187 1.397 . S
C2186 C2191 1.365 . S
C2187 H2158 0.950 . S
C2187 C2186 1.397 . S
C2187 C2188 1.334 . S
C2188 H2159 0.950 . S
C2188 C2187 1.334 . S
C2188 C2189 1.287 . S
C2189 C2188 1.287 . S
C2189 C2190 1.523 1_554 S
C2189 H2192 0.999 . S
C2190 H2160 0.951 . S
C2190 C2189 1.523 1_556 S
C2190 C2191 1.414 1_556 S
C2191 H2161 0.949 1_554 S
C2191 C2186 1.365 . S
C2191 C2190 1.414 1_554 S
H2192 C2189 0.999 . S
H2193 C2174 0.915 . S
H2194 C2212 0.951 . S
H2195 C2214 0.951 . S
H2196 C2216 0.950 . S
H2197 C2217 0.950 . S
H2198 C2219 0.950 . S
H2199 C2222 0.950 . S
H2200 C2223 0.950 . S
H2201 C2225 0.950 . S
H2202 C2226 0.950 . S
H2203 C2227 0.951 . S
H2204 C2229 0.951 . S
H2205 C2231 0.950 . S
H2206 C2232 0.950 . S
H2207 C2234 0.950 . S
H2208 C2237 0.950 . S
H2209 C2238 0.950 . S
H2210 C2240 0.950 . S
H2211 C2241 0.950 . S
C2212 H2194 0.951 . S
C2212 C2213 1.366 . S
C2212 C2214 1.388 . S
C2213 C2212 1.366 . S
C2213 C2217 1.385 . S
C2214 H2195 0.951 . S
C2214 C2212 1.388 . S
C2214 C2215 1.366 . S
C2215 C2214 1.366 . S
C2215 C2216 1.414 . S
C2215 C2218 1.499 . S
C2216 H2196 0.950 . S
C2216 C2215 1.414 . S
C2216 C2217 1.374 . S
C2217 H2197 0.950 . S
C2217 C2213 1.385 . S
C2217 C2216 1.374 . S
C2218 C2215 1.499 . S
C2218 C2219 1.373 . S
C2218 C2220 1.389 . S
C2219 H2198 0.950 . S
C2219 C2218 1.373 . S
C2219 C2235 1.377 1_556 S
C2220 C2218 1.389 . S
C2220 C2221 1.524 . S
C2220 C2234 1.377 1_556 S
C2221 C2220 1.524 . S
C2221 C2222 1.397 . S
C2221 C2226 1.363 . S
C2222 H2199 0.950 . S
C2222 C2221 1.397 . S
C2222 C2223 1.334 . S
C2223 H2200 0.950 . S
C2223 C2222 1.334 . S
C2223 C2224 1.287 . S
C2224 C2223 1.287 . S
C2224 C2225 1.524 . S
C2224 H2243 0.913 . S
C2225 H2201 0.950 . S
C2225 C2224 1.524 . S
C2225 C2226 1.415 . S
C2226 H2202 0.950 . S
C2226 C2221 1.363 . S
C2226 C2225 1.415 . S
C2227 H2203 0.951 . S
C2227 C2228 1.366 . S
C2227 C2229 1.388 . S
C2228 C2227 1.366 . S
C2228 C2232 1.385 . S
C2229 H2204 0.951 . S
C2229 C2227 1.388 . S
C2229 C2230 1.366 . S
C2230 C2229 1.366 . S
C2230 C2231 1.414 . S
C2230 C2233 1.499 . S
C2231 H2205 0.950 . S
C2231 C2230 1.414 . S
C2231 C2232 1.374 . S
C2232 H2206 0.950 . S
C2232 C2228 1.385 . S
C2232 C2231 1.374 . S
C2233 C2230 1.499 . S
C2233 C2234 1.373 . S
C2233 C2235 1.389 . S
C2234 H2207 0.950 . S
C2234 C2220 1.377 1_554 S
C2234 C2233 1.373 . S
C2235 C2219 1.377 1_554 S
C2235 C2233 1.389 . S
C2235 C2236 1.524 . S
C2236 C2235 1.524 . S
C2236 C2237 1.397 . S
C2236 C2241 1.363 . S
C2237 H2208 0.950 . S
C2237 C2236 1.397 . S
C2237 C2238 1.334 . S
C2238 H2209 0.950 . S
C2238 C2237 1.334 . S
C2238 C2239 1.287 . S
C2239 C2238 1.287 . S
C2239 C2240 1.524 . S
C2239 H2242 0.999 . S
C2240 H2210 0.950 . S
C2240 C2239 1.524 . S
C2240 C2241 1.415 . S
C2241 H2211 0.950 . S
C2241 C2236 1.363 . S
C2241 C2240 1.415 . S
H2242 C2239 0.999 . S
H2243 C2224 0.913 . S
H2244 C2262 0.951 . S
H2245 C2264 0.951 . S
H2246 C2266 0.950 . S
H2247 C2267 0.950 . S
H2248 C2269 0.950 . S
H2249 C2272 0.950 . S
H2250 C2273 0.950 . S
H2251 C2275 0.950 . S
H2252 C2276 0.950 . S
H2253 C2277 0.951 . S
H2254 C2279 0.951 . S
H2255 C2281 0.950 . S
H2256 C2282 0.950 . S
H2257 C2284 0.950 . S
H2258 C2287 0.950 . S
H2259 C2288 0.950 . S
H2260 C2290 0.950 . S
H2261 C2291 0.950 . S
C2262 H2244 0.951 . S
C2262 C2263 1.366 . S
C2262 C2264 1.388 . S
C2263 C2262 1.366 . S
C2263 C2267 1.385 . S
C2264 H2245 0.951 . S
C2264 C2262 1.388 . S
C2264 C2265 1.366 . S
C2265 C2264 1.366 . S
C2265 C2266 1.414 . S
C2265 C2268 1.499 . S
C2266 H2246 0.950 . S
C2266 C2265 1.414 . S
C2266 C2267 1.374 . S
C2267 H2247 0.950 . S
C2267 C2263 1.385 . S
C2267 C2266 1.374 . S
C2268 C2265 1.499 . S
C2268 C2269 1.373 . S
C2268 C2270 1.389 . S
C2269 H2248 0.950 . S
C2269 C2268 1.373 . S
C2269 C2285 1.377 1_556 S
C2270 C2268 1.389 . S
C2270 C2271 1.524 . S
C2270 C2284 1.377 1_556 S
C2271 C2270 1.524 . S
C2271 C2272 1.397 . S
C2271 C2276 1.363 . S
C2272 H2249 0.950 . S
C2272 C2271 1.397 . S
C2272 C2273 1.334 . S
C2273 H2250 0.950 . S
C2273 C2272 1.334 . S
C2273 C2274 1.287 . S
C2274 C2273 1.287 . S
C2274 C2275 1.524 . S
C2274 H2293 0.913 . S
C2275 H2251 0.950 . S
C2275 C2274 1.524 . S
C2275 C2276 1.415 . S
C2276 H2252 0.950 . S
C2276 C2271 1.363 . S
C2276 C2275 1.415 . S
C2277 H2253 0.951 . S
C2277 C2278 1.366 . S
C2277 C2279 1.388 . S
C2278 C2277 1.366 . S
C2278 C2282 1.385 . S
C2279 H2254 0.951 . S
C2279 C2277 1.388 . S
C2279 C2280 1.366 . S
C2280 C2279 1.366 . S
C2280 C2281 1.414 . S
C2280 C2283 1.499 . S
C2281 H2255 0.950 . S
C2281 C2280 1.414 . S
C2281 C2282 1.374 . S
C2282 H2256 0.950 . S
C2282 C2278 1.385 . S
C2282 C2281 1.374 . S
C2283 C2280 1.499 . S
C2283 C2284 1.373 . S
C2283 C2285 1.389 . S
C2284 H2257 0.950 . S
C2284 C2270 1.377 1_554 S
C2284 C2283 1.373 . S
C2285 C2269 1.377 1_554 S
C2285 C2283 1.389 . S
C2285 C2286 1.524 . S
C2286 C2285 1.524 . S
C2286 C2287 1.397 . S
C2286 C2291 1.363 . S
C2287 H2258 0.950 . S
C2287 C2286 1.397 . S
C2287 C2288 1.334 . S
C2288 H2259 0.950 . S
C2288 C2287 1.334 . S
C2288 C2289 1.287 . S
C2289 C2288 1.287 . S
C2289 C2290 1.524 . S
C2289 H2292 0.999 . S
C2290 H2260 0.950 . S
C2290 C2289 1.524 . S
C2290 C2291 1.415 . S
C2291 H2261 0.950 . S
C2291 C2286 1.363 . S
C2291 C2290 1.415 . S
H2292 C2289 0.999 . S
H2293 C2274 0.913 . S
H2294 C2312 0.951 . S
H2295 C2314 0.951 . S
H2296 C2316 0.950 . S
H2297 C2317 0.950 . S
H2298 C2319 0.950 . S
H2299 C2322 0.950 . S
H2300 C2323 0.950 . S
H2301 C2325 0.950 . S
H2302 C2326 0.950 1_556 S
H2303 C2327 0.951 . S
H2304 C2329 0.951 . S
H2305 C2331 0.950 . S
H2306 C2332 0.950 . S
H2307 C2334 0.950 . S
H2308 C2337 0.950 . S
H2309 C2338 0.950 . S
H2310 C2340 0.950 . S
H2311 C2341 0.950 1_554 S
C2312 H2294 0.951 . S
C2312 C2313 1.366 . S
C2312 C2314 1.388 . S
C2313 C2312 1.366 . S
C2313 C2317 1.385 . S
C2314 H2295 0.951 . S
C2314 C2312 1.388 . S
C2314 C2315 1.366 . S
C2315 C2314 1.366 . S
C2315 C2316 1.414 . S
C2315 C2318 1.499 . S
C2316 H2296 0.950 . S
C2316 C2315 1.414 . S
C2316 C2317 1.374 . S
C2317 H2297 0.950 . S
C2317 C2313 1.385 . S
C2317 C2316 1.374 . S
C2318 C2315 1.499 . S
C2318 C2319 1.373 . S
C2318 C2320 1.389 . S
C2319 H2298 0.950 . S
C2319 C2318 1.373 . S
C2319 C2335 1.377 1_554 S
C2320 C2318 1.389 . S
C2320 C2321 1.524 . S
C2320 C2334 1.377 1_554 S
C2321 C2320 1.524 . S
C2321 C2322 1.397 . S
C2321 C2326 1.363 . S
C2322 H2299 0.950 . S
C2322 C2321 1.397 . S
C2322 C2323 1.334 . S
C2323 H2300 0.950 . S
C2323 C2322 1.334 . S
C2323 C2324 1.287 . S
C2324 C2323 1.287 . S
C2324 C2325 1.524 . S
C2324 H2343 0.913 . S
C2325 H2301 0.950 . S
C2325 C2324 1.524 . S
C2325 C2326 1.415 . S
C2326 H2302 0.950 1_554 S
C2326 C2321 1.363 . S
C2326 C2325 1.415 . S
C2327 H2303 0.951 . S
C2327 C2328 1.366 . S
C2327 C2329 1.388 . S
C2328 C2327 1.366 . S
C2328 C2332 1.385 . S
C2329 H2304 0.951 . S
C2329 C2327 1.388 . S
C2329 C2330 1.366 . S
C2330 C2329 1.366 . S
C2330 C2331 1.414 . S
C2330 C2333 1.499 . S
C2331 H2305 0.950 . S
C2331 C2330 1.414 . S
C2331 C2332 1.374 . S
C2332 H2306 0.950 . S
C2332 C2328 1.385 . S
C2332 C2331 1.374 . S
C2333 C2330 1.499 . S
C2333 C2334 1.373 . S
C2333 C2335 1.389 . S
C2334 H2307 0.950 . S
C2334 C2320 1.377 1_556 S
C2334 C2333 1.373 . S
C2335 C2319 1.377 1_556 S
C2335 C2333 1.389 . S
C2335 C2336 1.524 . S
C2336 C2335 1.524 . S
C2336 C2337 1.397 . S
C2336 C2341 1.363 . S
C2337 H2308 0.950 . S
C2337 C2336 1.397 . S
C2337 C2338 1.334 . S
C2338 H2309 0.950 . S
C2338 C2337 1.334 . S
C2338 C2339 1.287 . S
C2339 C2338 1.287 . S
C2339 C2340 1.524 . S
C2339 H2342 0.999 . S
C2340 H2310 0.950 . S
C2340 C2339 1.524 . S
C2340 C2341 1.415 . S
C2341 H2311 0.950 1_556 S
C2341 C2336 1.363 . S
C2341 C2340 1.415 . S
H2342 C2339 0.999 . S
H2343 C2324 0.913 . S
H2344 C2362 0.951 . S
H2345 C2364 0.951 . S
H2346 C2366 0.950 . S
H2347 C2367 0.950 . S
H2348 C2369 0.950 . S
H2349 C2372 0.950 . S
H2350 C2373 0.950 . S
H2351 C2375 0.950 . S
H2352 C2376 0.950 . S
H2353 C2377 0.946 1_545 S
H2354 C2379 0.951 . S
H2355 C2381 0.950 . S
H2356 C2382 0.950 . S
H2357 C2384 0.950 . S
H2358 C2387 0.950 . S
H2359 C2388 0.950 . S
H2360 C2390 0.950 . S
H2361 C2391 0.950 . S
C2362 H2344 0.951 . S
C2362 C2363 1.366 . S
C2362 C2364 1.388 . S
C2363 C2362 1.366 . S
C2363 C2367 1.385 . S
C2364 H2345 0.951 . S
C2364 C2362 1.388 . S
C2364 C2365 1.366 . S
C2365 C2364 1.366 . S
C2365 C2366 1.414 . S
C2365 C2368 1.499 . S
C2366 H2346 0.950 . S
C2366 C2365 1.414 . S
C2366 C2367 1.374 . S
C2367 H2347 0.950 . S
C2367 C2363 1.385 . S
C2367 C2366 1.374 . S
C2368 C2365 1.499 . S
C2368 C2369 1.373 . S
C2368 C2370 1.389 . S
C2369 H2348 0.950 . S
C2369 C2368 1.373 . S
C2369 C2385 1.377 . S
C2370 C2368 1.389 . S
C2370 C2371 1.524 . S
C2370 C2384 1.377 . S
C2371 C2370 1.524 . S
C2371 C2372 1.397 . S
C2371 C2376 1.363 . S
C2372 H2349 0.950 . S
C2372 C2371 1.397 . S
C2372 C2373 1.334 . S
C2373 H2350 0.950 . S
C2373 C2372 1.334 . S
C2373 C2374 1.287 . S
C2374 C2373 1.287 . S
C2374 C2375 1.524 . S
C2374 H2393 0.913 . S
C2375 H2351 0.950 . S
C2375 C2374 1.524 . S
C2375 C2376 1.415 . S
C2376 H2352 0.950 . S
C2376 C2371 1.363 . S
C2376 C2375 1.415 . S
C2377 H2353 0.946 1_565 S
C2377 C2378 1.379 . S
C2377 C2379 1.380 1_565 S
C2378 C2377 1.379 . S
C2378 C2382 1.385 . S
C2379 H2354 0.951 . S
C2379 C2377 1.380 1_545 S
C2379 C2380 1.366 . S
C2380 C2379 1.366 . S
C2380 C2381 1.414 1_545 S
C2380 C2383 1.499 . S
C2381 H2355 0.950 . S
C2381 C2380 1.414 1_565 S
C2381 C2382 1.374 . S
C2382 H2356 0.950 . S
C2382 C2378 1.385 . S
C2382 C2381 1.374 . S
C2383 C2380 1.499 . S
C2383 C2384 1.373 . S
C2383 C2385 1.389 . S
C2384 H2357 0.950 . S
C2384 C2370 1.377 . S
C2384 C2383 1.373 . S
C2385 C2369 1.377 . S
C2385 C2383 1.389 . S
C2385 C2386 1.524 . S
C2386 C2385 1.524 . S
C2386 C2387 1.397 1_545 S
C2386 C2391 1.363 . S
C2387 H2358 0.950 . S
C2387 C2386 1.397 1_565 S
C2387 C2388 1.334 . S
C2388 H2359 0.950 . S
C2388 C2387 1.334 . S
C2388 C2389 1.287 1_565 S
C2389 C2388 1.287 1_545 S
C2389 C2390 1.524 . S
C2389 H2392 0.999 . S
C2390 H2360 0.950 . S
C2390 C2389 1.524 . S
C2390 C2391 1.415 . S
C2391 H2361 0.950 . S
C2391 C2386 1.363 . S
C2391 C2390 1.415 . S
H2392 C2389 0.999 . S
H2393 C2374 0.913 . S
H2394 C2412 0.951 . S
H2395 C2414 0.951 . S
H2396 C2416 0.950 . S
H2397 C2417 0.950 . S
H2398 C2419 0.979 . S
H2399 C2422 0.950 . S
H2400 C2423 0.950 . S
H2401 C2425 0.950 . S
H2402 C2426 0.950 . S
H2403 C2427 0.951 . S
H2404 C2429 0.951 . S
H2405 C2431 0.950 . S
H2406 C2432 0.950 . S
H2407 C2434 0.950 . S
H2408 C2437 0.950 . S
H2409 C2438 0.950 . S
H2410 C2440 0.950 . S
H2411 C2441 0.986 . S
C2412 H2394 0.951 . S
C2412 C2413 1.366 1_455 S
C2412 C2414 1.388 . S
C2413 C2412 1.366 1_655 S
C2413 C2417 1.385 . S
C2414 H2395 0.951 . S
C2414 C2412 1.388 . S
C2414 C2415 1.366 . S
C2415 C2414 1.366 . S
C2415 C2416 1.414 1_455 S
C2415 C2418 1.499 . S
C2416 H2396 0.950 . S
C2416 C2415 1.414 1_655 S
C2416 C2417 1.374 . S
C2417 H2397 0.950 . S
C2417 C2413 1.385 . S
C2417 C2416 1.374 . S
C2418 C2415 1.499 . S
C2418 C2419 1.373 . S
C2418 C2420 1.389 . S
C2419 H2398 0.979 . S
C2419 C2418 1.373 . S
C2419 C2435 1.377 . S
C2420 C2418 1.389 . S
C2420 C2421 1.524 . S
C2420 C2434 1.377 . S
C2421 C2420 1.524 . S
C2421 C2422 1.397 . S
C2421 C2426 1.363 . S
C2422 H2399 0.950 . S
C2422 C2421 1.397 . S
C2422 C2423 1.334 . S
C2423 H2400 0.950 . S
C2423 C2422 1.334 . S
C2423 C2424 1.287 . S
C2424 C2423 1.287 . S
C2424 C2425 1.524 . S
C2424 H2443 0.913 . S
C2425 H2401 0.950 . S
C2425 C2424 1.524 . S
C2425 C2426 1.415 . S
C2426 H2402 0.950 . S
C2426 C2421 1.363 . S
C2426 C2425 1.415 . S
C2427 H2403 0.951 . S
C2427 C2428 1.366 . S
C2427 C2429 1.388 . S
C2428 C2427 1.366 . S
C2428 C2432 1.385 . S
C2429 H2404 0.951 . S
C2429 C2427 1.388 . S
C2429 C2430 1.366 . S
C2430 C2429 1.366 . S
C2430 C2431 1.414 . S
C2430 C2433 1.499 . S
C2431 H2405 0.950 . S
C2431 C2430 1.414 . S
C2431 C2432 1.374 . S
C2432 H2406 0.950 . S
C2432 C2428 1.385 . S
C2432 C2431 1.374 . S
C2433 C2430 1.499 . S
C2433 C2434 1.373 . S
C2433 C2435 1.389 . S
C2434 H2407 0.950 . S
C2434 C2420 1.377 . S
C2434 C2433 1.373 . S
C2435 C2419 1.377 . S
C2435 C2433 1.389 . S
C2435 C2436 1.524 . S
C2436 C2435 1.524 . S
C2436 C2437 1.397 . S
C2436 C2441 1.317 1_455 S
C2437 H2408 0.950 . S
C2437 C2436 1.397 . S
C2437 C2438 1.334 . S
C2438 H2409 0.950 . S
C2438 C2437 1.334 . S
C2438 C2439 1.287 . S
C2439 C2438 1.287 . S
C2439 C2440 1.524 1_455 S
C2439 H2442 0.999 . S
C2440 H2410 0.950 . S
C2440 C2439 1.524 1_655 S
C2440 C2441 1.427 . S
C2441 H2411 0.986 . S
C2441 C2436 1.317 1_655 S
C2441 C2440 1.427 . S
H2442 C2439 0.999 . S
H2443 C2424 0.913 . S
H2444 C2462 0.951 . S
H2445 C2464 0.951 . S
H2446 C2466 0.950 . S
H2447 C2467 0.950 . S
H2448 C2469 0.950 1_545 S
H2449 C2472 0.950 . S
H2450 C2473 0.950 . S
H2451 C2475 0.950 . S
H2452 C2476 0.950 . S
H2453 C2477 0.951 . S
H2454 C2479 0.951 . S
H2455 C2481 0.950 . S
H2456 C2482 0.950 . S
H2457 C2484 0.950 . S
H2458 C2487 0.950 . S
H2459 C2488 0.950 . S
H2460 C2490 0.950 . S
H2461 C2491 0.950 . S
C2462 H2444 0.951 . S
C2462 C2463 1.366 . S
C2462 C2464 1.388 1_545 S
C2463 C2462 1.366 . S
C2463 C2467 1.385 . S
C2464 H2445 0.951 . S
C2464 C2462 1.388 1_565 S
C2464 C2465 1.366 . S
C2465 C2464 1.366 . S
C2465 C2466 1.414 1_565 S
C2465 C2468 1.499 . S
C2466 H2446 0.950 . S
C2466 C2465 1.414 1_545 S
C2466 C2467 1.374 . S
C2467 H2447 0.950 . S
C2467 C2463 1.385 . S
C2467 C2466 1.374 . S
C2468 C2465 1.499 . S
C2468 C2469 1.373 . S
C2468 C2470 1.389 . S
C2469 H2448 0.950 1_565 S
C2469 C2468 1.373 . S
C2469 C2485 1.377 . S
C2470 C2468 1.389 . S
C2470 C2471 1.524 . S
C2470 C2484 1.377 . S
C2471 C2470 1.524 . S
C2471 C2472 1.397 . S
C2471 C2476 1.363 . S
C2472 H2449 0.950 . S
C2472 C2471 1.397 . S
C2472 C2473 1.334 . S
C2473 H2450 0.950 . S
C2473 C2472 1.334 . S
C2473 C2474 1.287 . S
C2474 C2473 1.287 . S
C2474 C2475 1.524 . S
C2474 H2493 0.913 . S
C2475 H2451 0.950 . S
C2475 C2474 1.524 . S
C2475 C2476 1.415 . S
C2476 H2452 0.950 . S
C2476 C2471 1.363 . S
C2476 C2475 1.415 . S
C2477 H2453 0.951 . S
C2477 C2478 1.366 . S
C2477 C2479 1.388 . S
C2478 C2477 1.366 . S
C2478 C2482 1.385 . S
C2479 H2454 0.951 . S
C2479 C2477 1.388 . S
C2479 C2480 1.366 . S
C2480 C2479 1.366 . S
C2480 C2481 1.414 . S
C2480 C2483 1.499 . S
C2481 H2455 0.950 . S
C2481 C2480 1.414 . S
C2481 C2482 1.374 . S
C2482 H2456 0.950 . S
C2482 C2478 1.385 . S
C2482 C2481 1.374 . S
C2483 C2480 1.499 . S
C2483 C2484 1.373 . S
C2483 C2485 1.389 . S
C2484 H2457 0.950 . S
C2484 C2470 1.377 . S
C2484 C2483 1.373 . S
C2485 C2469 1.377 . S
C2485 C2483 1.389 . S
C2485 C2486 1.524 . S
C2486 C2485 1.524 . S
C2486 C2487 1.397 . S
C2486 C2491 1.363 1_565 S
C2487 H2458 0.950 . S
C2487 C2486 1.397 . S
C2487 C2488 1.334 1_565 S
C2488 H2459 0.950 . S
C2488 C2487 1.334 1_545 S
C2488 C2489 1.287 . S
C2489 C2488 1.287 . S
C2489 C2490 1.524 . S
C2489 H2492 0.999 . S
C2490 H2460 0.950 . S
C2490 C2489 1.524 . S
C2490 C2491 1.415 . S
C2491 H2461 0.950 . S
C2491 C2486 1.363 1_545 S
C2491 C2490 1.415 . S
H2492 C2489 0.999 . S
H2493 C2474 0.913 . S
H2494 C2512 0.951 . S
H2495 C2514 0.935 1_655 S
H2496 C2516 0.950 1_655 S
H2497 C2517 0.950 . S
H2498 C2519 0.950 . S
H2499 C2522 0.950 . S
H2500 C2523 0.950 . S
H2501 C2525 0.950 . S
H2502 C2526 0.950 1_655 S
H2503 C2527 0.951 . S
H2504 C2529 0.951 . S
H2505 C2531 0.950 . S
H2506 C2532 0.950 . S
H2507 C2534 0.950 . S
H2508 C2537 0.950 . S
H2509 C2538 0.950 . S
H2510 C2540 0.950 . S
H2511 C2541 0.950 . S
C2512 H2494 0.951 . S
C2512 C2513 1.366 . S
C2512 C2514 1.420 . S
C2513 C2512 1.366 . S
C2513 C2517 1.385 . S
C2514 H2495 0.935 1_455 S
C2514 C2512 1.420 . S
C2514 C2515 1.353 1_455 S
C2515 C2514 1.353 1_655 S
C2515 C2516 1.414 1_655 S
C2515 C2518 1.499 . S
C2516 H2496 0.950 1_455 S
C2516 C2515 1.414 1_455 S
C2516 C2517 1.374 . S
C2517 H2497 0.950 . S
C2517 C2513 1.385 . S
C2517 C2516 1.374 . S
C2518 C2515 1.499 . S
C2518 C2519 1.373 . S
C2518 C2520 1.389 . S
C2519 H2498 0.950 . S
C2519 C2518 1.373 . S
C2519 C2535 1.377 . S
C2520 C2518 1.389 . S
C2520 C2521 1.524 1_655 S
C2520 C2534 1.377 . S
C2521 C2520 1.524 1_455 S
C2521 C2522 1.397 . S
C2521 C2526 1.363 . S
C2522 H2499 0.950 . S
C2522 C2521 1.397 . S
C2522 C2523 1.334 . S
C2523 H2500 0.950 . S
C2523 C2522 1.334 . S
C2523 C2524 1.287 . S
C2524 C2523 1.287 . S
C2524 C2525 1.524 . S
C2524 H2543 0.913 . S
C2525 H2501 0.950 . S
C2525 C2524 1.524 . S
C2525 C2526 1.415 . S
C2526 H2502 0.950 1_455 S
C2526 C2521 1.363 . S
C2526 C2525 1.415 . S
C2527 H2503 0.951 . S
C2527 C2528 1.366 . S
C2527 C2529 1.388 . S
C2528 C2527 1.366 . S
C2528 C2532 1.385 . S
C2529 H2504 0.951 . S
C2529 C2527 1.388 . S
C2529 C2530 1.366 . S
C2530 C2529 1.366 . S
C2530 C2531 1.414 . S
C2530 C2533 1.499 . S
C2531 H2505 0.950 . S
C2531 C2530 1.414 . S
C2531 C2532 1.374 . S
C2532 H2506 0.950 . S
C2532 C2528 1.385 . S
C2532 C2531 1.374 . S
C2533 C2530 1.499 . S
C2533 C2534 1.373 . S
C2533 C2535 1.389 . S
C2534 H2507 0.950 . S
C2534 C2520 1.377 . S
C2534 C2533 1.373 . S
C2535 C2519 1.377 . S
C2535 C2533 1.389 . S
C2535 C2536 1.524 . S
C2536 C2535 1.524 . S
C2536 C2537 1.397 . S
C2536 C2541 1.363 . S
C2537 H2508 0.950 . S
C2537 C2536 1.397 . S
C2537 C2538 1.334 . S
C2538 H2509 0.950 . S
C2538 C2537 1.334 . S
C2538 C2539 1.287 . S
C2539 C2538 1.287 . S
C2539 C2540 1.524 . S
C2539 H2542 0.999 . S
C2540 H2510 0.950 . S
C2540 C2539 1.524 . S
C2540 C2541 1.415 . S
C2541 H2511 0.950 . S
C2541 C2536 1.363 . S
C2541 C2540 1.415 . S
H2542 C2539 0.999 . S
H2543 C2524 0.913 . S
C563 C145 2.073 . S
C578 C9 2.073 . S
C613 C43 2.074 . S
C628 C179 2.074 . S
C663 C77 2.073 . S
C678 C213 2.073 . S
C713 C111 2.073 . S
C728 C247 2.073 . S
C763 C281 2.073 . S
C778 C417 2.073 . S
C813 C451 2.073 . S
C828 C315 2.073 . S
C863 C485 2.074 . S
C878 C349 2.074 . S
C913 C383 2.073 . S
C928 C519 2.073 . S
C963 C20 1.039 . S
C978 C496 1.038 . S
C1013 C54 1.039 . S
C1028 C530 1.038 . S
C1063 C88 1.039 . S
C1078 C428 1.039 . S
C1113 C462 1.039 . S
C1128 C122 1.040 . S
C1163 C360 1.040 . S
C1178 C156 1.039 . S
C1213 C190 1.039 . S
C1228 C394 1.039 . S
C1263 C224 1.039 . S
C1278 C292 1.039 . S
C1313 C258 1.038 . S
C1328 C326 1.039 . S
C1363 C2 1.025 . S
C1378 C70 1.023 . S
C1413 C36 1.023 . S
C1428 C104 1.025 . S
C1463 C138 1.024 . S
C1478 C206 1.025 . S
C1513 C172 1.025 . S
C1528 C240 1.024 . S
C1563 C342 1.024 . S
C1578 C274 1.025 . S
C1613 C376 1.025 . S
C1628 C308 1.023 . S
C1663 C410 1.024 . S
C1678 C478 1.025 . S
C1713 C444 1.025 . S
C1728 C512 1.023 . S
C1763 C67 0.444 . S
C1778 C5 0.442 . S
C1813 C39 0.441 . S
C1828 C101 0.445 . S
C1863 C135 0.445 . S
C1878 C73 0.441 . S
C1913 C107 0.442 . S
C1928 C33 0.446 . S
C1963 C543 0.445 . S
C1978 C141 0.442 . S
C2013 C175 0.443 . S
C2028 C441 0.444 . S
C2063 C209 0.442 . S
C2078 C475 0.446 . S
C2113 C243 0.442 . S
C2128 C509 0.444 . S
C2163 C277 0.443 . S
C2178 C339 0.444 . S
C2213 C373 0.444 . S
C2228 C311 0.442 . S
C2263 C345 0.443 . S
C2278 C407 0.444 . S
C2313 C379 0.442 . S
C2328 C305 0.444 . S
C2363 C271 0.446 . S
C2378 C413 0.442 . S
C2413 C447 0.441 . S
C2428 C169 0.445 . S
C2463 C481 0.442 . S
C2478 C203 0.444 . S
C2513 C515 0.443 . S
C2528 C237 0.445 . S
