# Generated by pormake.
# Topology twt, (3)-cn, num edge types: 1
# Building blocks:
#     Node 0, Type 0, BuildingBlock: WUSLED_clean_sbu_0, # of connection points: 3
#     Node 1, Type 0, BuildingBlock: WUSLED_clean_sbu_0, # of connection points: 3
#     Node 2, Type 0, BuildingBlock: WUSLED_clean_sbu_0, # of connection points: 3
#     Node 3, Type 0, BuildingBlock: WUSLED_clean_sbu_0, # of connection points: 3
#     Node 4, Type 0, BuildingBlock: WUSLED_clean_sbu_0, # of connection points: 3
#     Node 5, Type 0, BuildingBlock: WUSLED_clean_sbu_0, # of connection points: 3
#     Edge 6, Type (0, 0), BuildingBlock: FUNLAD_clean_linker_0, # of connection points: 2
#     Edge 7, Type (0, 0), BuildingBlock: FUNLAD_clean_linker_0, # of connection points: 2
#     Edge 8, Type (0, 0), BuildingBlock: FUNLAD_clean_linker_0, # of connection points: 2
#     Edge 9, Type (0, 0), BuildingBlock: FUNLAD_clean_linker_0, # of connection points: 2
#     Edge 10, Type (0, 0), BuildingBlock: FUNLAD_clean_linker_0, # of connection points: 2
#     Edge 11, Type (0, 0), BuildingBlock: FUNLAD_clean_linker_0, # of connection points: 2
#     Edge 12, Type (0, 0), BuildingBlock: FUNLAD_clean_linker_0, # of connection points: 2
#     Edge 13, Type (0, 0), BuildingBlock: FUNLAD_clean_linker_0, # of connection points: 2
#     Edge 14, Type (0, 0), BuildingBlock: FUNLAD_clean_linker_0, # of connection points: 2
# Relax obj value: 0.000
# Max RMSD: 0.005
# Mean RMSD: 0.004
data_MOF--net-twt--node1-WUSLED_clean_sbu_0--edge1-FUNLAD_clean_linker_0
_symmetry_space_group_name_H-M    P1
_symmetry_Int_Tables_number       1
_symmetry_cell_setting            triclinic
loop_
_symmetry_equiv_pos_as_xyz
'x, y, z'
_cell_length_a     74.406443
_cell_length_b     74.248271
_cell_length_c     19.584455
_cell_angle_alpha  89.718579
_cell_angle_beta   90.11441
_cell_angle_gamma 119.82202
loop_
_atom_site_label
_atom_site_type_symbol
_atom_site_fract_x
_atom_site_fract_y
_atom_site_fract_z
_atom_type_partial_charge
C0 C 0.66164 0.28433 0.3246 0.0
C1 C 0.68197 0.30104 0.32888 0.0
C2 C 0.66906 0.32404 0.3643 0.0
C3 C 0.68565 0.32072 0.34844 0.0
C4 C 0.64872 0.30714 0.36018 0.0
C5 C 0.64507 0.28751 0.3405 0.0
U6 U 0.67911 0.24469 0.28827 0.0
O7 O 0.66382 0.21138 0.31333 0.0
O8 O 0.66968 0.22153 0.20635 0.0
C9 C 0.66089 0.20574 0.24892 0.0
C10 C 0.6574 0.26353 0.30385 0.0
C11 C 0.63978 0.18942 0.23091 0.0
C12 C 0.60302 0.17722 0.21631 0.0
C13 C 0.62299 0.19304 0.23338 0.0
C14 C 0.61646 0.15406 0.19407 0.0
C15 C 0.59949 0.1575 0.19639 0.0
C16 C 0.63637 0.16986 0.21115 0.0
C17 C 0.73668 0.26109 0.31238 0.0
C18 C 0.75236 0.24038 0.28003 0.0
C19 C 0.77216 0.27196 0.34485 0.0
C20 C 0.75518 0.27519 0.34468 0.0
C21 C 0.77099 0.25451 0.31263 0.0
C22 C 0.73532 0.24362 0.28007 0.0
C23 C 0.71913 0.26502 0.31324 0.0
O24 O 0.66544 0.26258 0.24519 0.0
O25 O 0.65947 0.25232 0.35203 0.0
O26 O 0.70508 0.2551 0.36057 0.0
O27 O 0.71111 0.26521 0.25354 0.0
H28 H 0.69498 0.29887 0.31682 0.0
H29 H 0.70149 0.33338 0.35021 0.0
H30 H 0.63559 0.309 0.37301 0.0
H31 H 0.62927 0.27476 0.33784 0.0
H32 H 0.5904 0.18052 0.21792 0.0
H33 H 0.62535 0.20809 0.24841 0.0
H34 H 0.61432 0.13903 0.18 0.0
H35 H 0.64914 0.16677 0.20919 0.0
H36 H 0.75084 0.22667 0.25535 0.0
H37 H 0.78631 0.28332 0.36955 0.0
H38 H 0.75654 0.2888 0.36973 0.0
H39 H 0.7211 0.2325 0.25507 0.0
C40 C 0.62323 0.55766 0.66325 0.0
C41 C 0.62515 0.57733 0.65491 0.0
C42 C 0.59089 0.56475 0.70508 0.0
C43 C 0.60912 0.58083 0.67545 0.0
C44 C 0.58924 0.54515 0.714 0.0
C45 C 0.60522 0.54166 0.69319 0.0
U46 U 0.67992 0.57481 0.62105 0.0
O47 O 0.69786 0.55924 0.64357 0.0
O48 O 0.69283 0.56507 0.53729 0.0
C49 C 0.70011 0.55626 0.57879 0.0
C50 C 0.63966 0.5534 0.64072 0.0
C51 C 0.69529 0.5351 0.56055 0.0
C52 C 0.67081 0.49832 0.54578 0.0
C53 C 0.67495 0.51832 0.56316 0.0
C54 C 0.70729 0.51172 0.52311 0.0
C55 C 0.68696 0.49476 0.52565 0.0
C56 C 0.71138 0.53166 0.54038 0.0
C57 C 0.7218 0.63217 0.64137 0.0
C58 C 0.7561 0.64942 0.58969 0.0
C59 C 0.74867 0.66536 0.68494 0.0
C60 C 0.72842 0.64861 0.68757 0.0
C61 C 0.76279 0.66609 0.63569 0.0
C62 C 0.73583 0.6326 0.59263 0.0
C63 C 0.7002 0.61494 0.64479 0.0
O64 O 0.64818 0.56126 0.5812 0.0
O65 O 0.65322 0.55545 0.68755 0.0
O66 O 0.69625 0.60091 0.69236 0.0
O67 O 0.6912 0.60687 0.58616 0.0
H68 H 0.63897 0.58993 0.63206 0.0
H69 H 0.61088 0.59605 0.66708 0.0
H70 H 0.57566 0.5325 0.73773 0.0
H71 H 0.60351 0.5264 0.70044 0.0
H72 H 0.65502 0.48561 0.54902 0.0
H73 H 0.66232 0.5207 0.57882 0.0
H74 H 0.72004 0.50965 0.50689 0.0
H75 H 0.72717 0.54445 0.53787 0.0
H76 H 0.76643 0.6495 0.55065 0.0
H77 H 0.75331 0.67765 0.72206 0.0
H78 H 0.71787 0.64852 0.72584 0.0
H79 H 0.73108 0.62002 0.55653 0.0
C80 C 0.31134 0.51803 0.9838 0.0
C81 C 0.29889 0.52048 0.03247 0.0
C82 C 0.27269 0.48383 0.02246 0.0
C83 C 0.27977 0.50354 0.05171 0.0
C84 C 0.2851 0.48166 0.97263 0.0
C85 C 0.3042 0.49855 0.95371 0.0
U86 U 0.35068 0.57582 0.95127 0.0
O87 O 0.38379 0.59354 0.97822 0.0
O88 O 0.37429 0.59004 0.87078 0.0
C89 C 0.38979 0.5966 0.91409 0.0
C90 C 0.33202 0.53525 0.96488 0.0
C91 C 0.40618 0.59177 0.8965 0.0
C92 C 0.41728 0.56752 0.86024 0.0
C93 C 0.40144 0.57161 0.87836 0.0
C94 C 0.44275 0.6036 0.87937 0.0
C95 C 0.43814 0.58349 0.86033 0.0
C96 C 0.42692 0.60768 0.89716 0.0
C97 C 0.33451 0.6172 0.97231 0.0
C98 C 0.35815 0.65416 0.95634 0.0
C99 C 0.32204 0.64174 0.9824 0.0
C100 C 0.31837 0.62135 0.98436 0.0
C101 C 0.34197 0.65843 0.96834 0.0
C102 C 0.35444 0.63371 0.9582 0.0
C103 C 0.33018 0.59557 0.97439 0.0
O104 O 0.3332 0.54456 0.90645 0.0
O105 O 0.34279 0.54822 0.0139 0.0
O106 O 0.33974 0.59116 0.02251 0.0
O107 O 0.33027 0.58744 0.91504 0.0
H108 H 0.30405 0.5354 0.05628 0.0
H109 H 0.27076 0.50579 0.09063 0.0
H110 H 0.28003 0.46688 0.94796 0.0
H111 H 0.31352 0.49635 0.9158 0.0
H112 H 0.41319 0.55182 0.84669 0.0
H113 H 0.38551 0.55907 0.87796 0.0
H114 H 0.45859 0.61631 0.87925 0.0
H115 H 0.43087 0.62334 0.91095 0.0
H116 H 0.37363 0.66659 0.94461 0.0
H117 H 0.30929 0.64445 0.99285 0.0
H118 H 0.30289 0.60879 -0.00452 0.0
H119 H 0.36708 0.63077 0.94849 0.0
C120 C 0.04004 0.2083 0.3163 0.0
C121 C 1.02097 0.19286 0.34255 0.0
C122 C 0.03529 0.16992 0.36135 0.0
C123 C 1.01861 0.17383 0.36487 0.0
C124 C 0.05427 0.18544 0.3343 0.0
C125 C 0.0566 0.20441 0.31207 0.0
U126 U 1.02028 0.246 0.27188 0.0
O127 O 0.03431 0.27933 0.2937 0.0
O128 O 1.02974 0.26867 0.18744 0.0
C129 C 0.03783 0.28466 0.22887 0.0
C130 C 0.04311 0.22857 0.2935 0.0
C131 C 0.05875 0.30175 0.21073 0.0
C132 C 0.09511 0.32512 0.23757 0.0
C133 C 0.07582 0.30805 0.25457 0.0
C134 C 0.08072 0.3295 0.13201 0.0
C135 C 0.09777 0.33621 0.17631 0.0
C136 C 0.06145 0.31254 0.14918 0.0
C137 C 0.96224 0.22843 0.28589 0.0
C138 C 0.94643 0.25006 0.30022 0.0
C139 C 0.9259 0.21496 0.2581 0.0
C140 C 0.9432 0.21229 0.26255 0.0
C141 C 0.92724 0.23384 0.27726 0.0
C142 C 0.96378 0.24742 0.30423 0.0
C143 C 0.98004 0.22486 0.29184 0.0
O144 O 0.03522 0.2288 0.23363 0.0
O145 O 0.03996 0.23946 0.33981 0.0
O146 O 0.99347 0.23499 0.34055 0.0
O147 O 0.98882 0.2245 0.2341 0.0
H148 H 1.008 0.1956 0.34619 0.0
H149 H 1.00385 0.16232 0.38598 0.0
H150 H 0.06733 0.18288 0.3297 0.0
H151 H 0.07139 0.21611 0.2916 0.0
H152 H 0.10779 0.32992 0.2733 0.0
H153 H 0.07422 0.30002 0.30243 0.0
H154 H 0.08222 0.33736 0.08385 0.0
H155 H 0.04854 0.30796 0.11449 0.0
H156 H 0.94806 0.26488 0.31454 0.0
H157 H 0.91134 0.20208 0.2409 0.0
H158 H 0.94166 0.19751 0.24826 0.0
H159 H 0.97836 0.26018 0.32194 0.0
C160 C 0.07682 0.93522 0.66252 0.0
C161 C 0.07261 0.91497 0.67727 0.0
C162 C 0.1091 0.9279 0.70368 0.0
C163 C 0.0886 0.91134 0.69767 0.0
C164 C 0.11314 0.94815 0.68878 0.0
C165 C 0.09716 0.95174 0.66842 0.0
U166 U 1.01992 0.91741 0.62364 0.0
O167 O 1.00155 0.93241 0.64805 0.0
O168 O 1.00621 0.92689 0.54124 0.0
C169 C 0.99878 0.93529 0.58349 0.0
C170 C 0.06024 0.93939 0.64114 0.0
C171 C 1.00242 0.95611 0.56502 0.0
C172 C 1.02444 0.99126 0.52235 0.0
C173 C 1.02182 0.97193 0.54234 0.0
C174 C 0.98845 0.97927 0.54884 0.0
C175 C 1.00771 0.9951 0.5247 0.0
C176 C 0.98585 0.96 0.56867 0.0
C177 C 0.97876 0.8599 0.64379 0.0
C178 C 0.94416 0.84323 0.59448 0.0
C179 C 0.95226 0.82602 0.6848 0.0
C180 C 0.9725 0.84281 0.6875 0.0
C181 C 0.93782 0.82592 0.63798 0.0
C182 C 0.96441 0.86007 0.59751 0.0
C183 C 1.00031 0.87721 0.64707 0.0
O184 O 0.05154 0.93153 0.58203 0.0
O185 O 0.04677 0.93696 0.68872 0.0
O186 O 1.00422 0.89101 0.69497 0.0
O187 O 1.0091 0.88558 0.58833 0.0
H188 H 0.05698 0.902 0.67287 0.0
H189 H 0.08494 0.89553 0.70789 0.0
H190 H 0.12864 0.9613 0.69377 0.0
H191 H 0.10068 0.96749 0.65747 0.0
H192 H 0.03944 1.00302 0.50356 0.0
H193 H 0.03483 0.96923 0.53925 0.0
H194 H 0.97533 0.98176 0.55259 0.0
H195 H 0.97079 0.94803 0.5864 0.0
H196 H 0.93359 0.84365 0.5573 0.0
H197 H 0.94789 0.81321 0.72 0.0
H198 H 0.98331 0.84243 0.72387 0.0
H199 H 0.96889 0.87316 0.56338 0.0
C200 C 0.38955 0.97407 0.99062 0.0
C201 C 0.40615 0.97019 -0.00482 0.0
C202 C 0.42945 1.00622 0.02768 0.0
C203 C 0.42593 0.98613 0.01343 0.0
C204 C 0.41266 1.0099 0.02333 0.0
C205 C 0.39293 0.99398 0.00494 0.0
U206 U 0.34976 0.91722 0.95286 0.0
O207 O 0.31664 0.89934 0.97972 0.0
O208 O 0.32613 0.90405 0.87217 0.0
C209 C 0.31063 0.89693 0.91565 0.0
C210 C 0.36867 0.95762 0.97083 0.0
C211 C 0.29415 0.90179 0.89952 0.0
C212 C 0.28255 0.92649 0.87419 0.0
C213 C 0.29845 0.92234 0.89115 0.0
C214 C 0.25788 0.88962 0.87461 0.0
C215 C 0.26205 0.91016 0.86553 0.0
C216 C 0.27378 0.8855 0.89139 0.0
C217 C 0.36569 0.8754 0.96797 0.0
C218 C 0.34162 0.8382 0.96648 0.0
C219 C 0.37857 0.85112 0.96124 0.0
C220 C 0.38224 0.8715 0.96381 0.0
C221 C 0.35822 0.83416 0.96292 0.0
C222 C 0.34533 0.85863 0.96888 0.0
C223 C 0.37006 0.89703 0.97202 0.0
O224 O 0.36728 0.94894 0.91127 0.0
O225 O 0.35793 0.94413 0.01893 0.0
O226 O 0.36063 0.90106 0.02132 0.0
O227 O 0.36999 0.9058 0.91364 0.0
H228 H 0.4038 0.95485 0.98461 0.0
H229 H 0.43842 0.98266 0.01709 0.0
H230 H 0.41483 0.02521 0.03305 0.0
H231 H 0.38031 0.99727 0.00157 0.0
H232 H 0.28628 0.9425 0.86841 0.0
H233 H 0.3141 0.93513 0.89749 0.0
H234 H 0.24238 0.87665 0.86748 0.0
H235 H 0.27017 0.86953 0.89746 0.0
H236 H 0.32577 0.82557 0.96861 0.0
H237 H 0.39171 0.84867 0.95733 0.0
H238 H 0.39806 0.88426 0.96269 0.0
H239 H 0.33232 0.86134 0.972 0.0
C240 C 0.6598 0.35243 0.36265 0.0
C241 C 0.6729 0.34499 0.38515 0.0
C242 C 0.66331 0.37203 0.38243 0.0
C243 C 0.68002 0.38469 0.42561 0.0
C244 C 0.69322 0.37733 0.44736 0.0
C245 C 0.68968 0.35773 0.42771 0.0
C246 C 0.68469 0.40584 0.44725 0.0
C247 C 0.67062 0.41232 0.44783 0.0
C248 C 0.67528 0.43352 0.46915 0.0
C249 C 0.6615 0.44044 0.44993 0.0
C250 C 0.66517 0.46017 0.46848 0.0
C251 C 0.68272 0.47352 0.50713 0.0
H252 H 0.70335 0.44195 0.5272 0.0
C253 C 0.69634 0.4665 0.52744 0.0
C254 C 0.69266 0.44675 0.50898 0.0
H255 H 0.70976 0.47617 0.55855 0.0
H256 H 0.64699 0.34327 0.3286 0.0
H257 H 0.65314 0.37727 0.36239 0.0
H258 H 0.70628 0.38673 0.48027 0.0
H259 H 0.69998 0.35247 0.44668 0.0
H260 H 0.70041 0.41629 0.46394 0.0
H261 H 0.65489 0.40178 0.43132 0.0
H262 H 0.6479 0.43061 0.4197 0.0
H263 H 0.65442 0.4651 0.45145 0.0
C264 C 0.55285 0.55283 0.71782 0.0
C265 C 0.57367 0.56834 0.72655 0.0
C266 C 0.53667 0.55605 0.73868 0.0
C267 C 0.54089 0.57502 0.76828 0.0
C268 C 0.56169 0.59046 0.77718 0.0
C269 C 0.57785 0.58721 0.75657 0.0
C270 C 0.52427 0.57924 0.79237 0.0
C271 C 0.50407 0.56786 0.7748 0.0
C272 C 0.48753 0.57223 0.79852 0.0
C273 C 0.46854 0.56306 0.76341 0.0
C274 C 0.45252 0.56657 0.78364 0.0
C275 C 0.45503 0.57934 0.83979 0.0
H276 H 0.50391 0.59156 0.88583 0.0
C277 C 0.4739 0.5883 0.87565 0.0
C278 C 0.48991 0.58472 0.8556 0.0
H279 H 0.47621 0.59788 0.91998 0.0
H280 H 0.54898 0.53816 0.69438 0.0
H281 H 0.521 0.54345 0.73213 0.0
H282 H 0.56551 0.60516 0.80039 0.0
H283 H 0.59365 0.59939 0.76525 0.0
H284 H 0.52923 0.59285 0.82402 0.0
H285 H 0.49932 0.55518 0.73911 0.0
H286 H 0.46612 0.55325 0.7196 0.0
H287 H 0.43827 0.55956 0.75445 0.0
C288 C 0.23524 0.46749 0.05902 0.0
C289 C 0.25269 0.46551 0.04436 0.0
C290 C 0.21649 0.45022 0.07913 0.0
C291 C 0.21464 0.43041 0.08458 0.0
C292 C 0.23217 0.42856 0.07082 0.0
C293 C 0.2509 0.44581 0.05099 0.0
C294 C 0.19505 0.41134 0.10547 0.0
C295 C 0.17618 0.40983 0.10651 0.0
C296 C 0.15648 0.39059 0.12546 0.0
C297 C 0.13761 0.38981 0.11092 0.0
C298 C 0.11869 0.37228 0.12743 0.0
C299 C 0.11805 0.35493 0.15912 0.0
H300 H 0.1699 0.37325 0.17213 0.0
C301 C 0.13692 0.35573 0.1745 0.0
C302 C 0.15589 0.37333 0.15819 0.0
H303 H 0.13707 0.34265 0.19861 0.0
H304 H 0.23598 0.48238 0.05427 0.0
H305 H 0.20368 0.45266 0.09081 0.0
H306 H 0.23141 0.41364 0.07525 0.0
H307 H 0.26408 0.44371 0.04163 0.0
H308 H 0.19635 0.39779 0.11767 0.0
H309 H 0.17471 0.423 0.09009 0.0
H310 H 0.13745 0.40286 0.08649 0.0
H311 H 0.10454 0.37248 0.11607 0.0
C312 C 1.02804 0.03422 0.51584 0.0
C313 C 1.01007 1.01531 0.50097 0.0
C314 C 1.03002 0.05314 0.49397 0.0
C315 C 1.014 0.05359 0.45674 0.0
C316 C 0.99624 0.03465 0.44108 0.0
C317 C 0.99425 1.01579 0.46301 0.0
C318 C 1.01528 0.07322 0.43144 0.0
C319 C 1.02823 0.09223 0.45697 0.0
C320 C 1.0294 0.11179 0.43145 0.0
C321 C 0.04737 0.13078 0.44499 0.0
C322 C 0.04924 0.14954 0.42246 0.0
C323 C 0.03307 0.14986 0.38612 0.0
H324 H 0.99866 0.09797 0.3861 0.0
C325 C 1.0149 0.13091 0.37354 0.0
C326 C 1.01305 0.1121 0.39597 0.0
H327 H 1.00216 0.13056 0.3456 0.0
H328 H 0.04052 0.03444 0.54505 0.0
H329 H 0.04425 0.06723 0.50566 0.0
H330 H 0.98373 0.03441 0.41188 0.0
H331 H 0.98036 1.00154 0.44941 0.0
H332 H 1.00482 0.07168 0.39035 0.0
H333 H 0.03876 0.09383 0.49788 0.0
H334 H 0.06013 0.13111 0.47287 0.0
H335 H 0.06331 0.16384 0.43425 0.0
C336 C 0.14593 0.93514 0.6953 0.0
C337 C 0.1262 0.92413 0.72559 0.0
C338 C 0.16204 0.93176 0.71618 0.0
C339 C 0.15885 0.91733 0.76832 0.0
C340 C 0.13906 0.90616 0.79789 0.0
C341 C 0.12297 0.90955 0.77707 0.0
C342 C 0.17539 0.9129 0.7918 0.0
C343 C 0.1959 0.92609 0.78343 0.0
C344 C 0.21249 0.92165 0.8063 0.0
C345 C 0.23243 0.9334 0.7782 0.0
C346 C 0.24851 0.92982 0.79767 0.0
C347 C 0.2451 0.91442 0.84618 0.0
H348 H 0.19435 0.8975 0.88086 0.0
C349 C 0.22525 0.90288 0.8753 0.0
C350 C 0.20917 0.90647 0.85588 0.0
H351 H 0.22218 0.8912 0.9139 0.0
H352 H 0.14888 0.94615 0.65445 0.0
H353 H 0.17676 0.94021 0.69014 0.0
H354 H 0.13605 0.89485 0.83782 0.0
H355 H 0.10807 0.90093 0.80208 0.0
H356 H 0.17022 0.89817 0.81756 0.0
H357 H 0.201 0.94084 0.75786 0.0
H358 H 0.23556 0.94528 0.74027 0.0
H359 H 0.26352 0.93888 0.77367 0.0
C360 C 0.45311 0.03764 0.09764 0.0
C361 C 0.45052 0.02332 0.04642 0.0
C362 C 0.47285 0.05389 0.11455 0.0
C363 C 0.49056 0.05634 0.08021 0.0
C364 C 0.48795 0.04184 0.0297 0.0
C365 C 0.46823 0.02559 0.01289 0.0
C366 C 0.51202 0.07333 0.09619 0.0
C367 C 0.51648 0.09083 0.13044 0.0
C368 C 0.53799 0.10772 0.14596 0.0
C369 C 0.54103 0.12143 0.1997 0.0
C370 C 0.56088 0.13757 0.21594 0.0
C371 C 0.57826 0.14053 0.17844 0.0
H372 H 0.55373 0.10124 0.06427 0.0
C373 C 0.57519 0.12703 0.12387 0.0
C374 C 0.55534 0.11088 0.10766 0.0
H375 H 0.58813 0.12913 0.09285 0.0
H376 H 0.43986 0.03611 0.12552 0.0
H377 H 0.47401 0.06417 0.15532 0.0
H378 H 0.50124 0.04319 0.00253 0.0
H379 H 0.46684 1.01499 0.97274 0.0
H380 H 0.52461 0.0712 0.07813 0.0
H381 H 0.50399 0.093 0.14911 0.0
H382 H 0.528 0.11952 0.22986 0.0
H383 H 0.56264 0.14751 0.25868 0.0
C384 C 0.90415 0.24628 0.32698 0.0
C385 C 0.90863 0.23642 0.2739 0.0
C386 C 0.88639 0.24825 0.32456 0.0
C387 C 0.87263 0.24037 0.26887 0.0
C388 C 0.87737 0.23092 0.21526 0.0
C389 C 0.89505 0.22884 0.21788 0.0
C390 C 0.85361 0.24227 0.26364 0.0
C391 C 0.84358 0.24408 0.31828 0.0
C392 C 0.82467 0.24624 0.31449 0.0
C393 C 0.81874 0.25283 0.37314 0.0
C394 C 0.80131 0.25532 0.37262 0.0
C395 C 0.78919 0.25118 0.3134 0.0
H396 H 0.81584 0.2361 0.20943 0.0
C397 C 0.7948 0.24418 0.25497 0.0
C398 C 0.8123 0.24171 0.25541 0.0
H399 H 0.78586 0.24091 0.2084 0.0
H400 H 0.91425 0.25225 0.37096 0.0
H401 H 0.88374 0.25623 0.36598 0.0
H402 H 0.86725 0.22495 0.17129 0.0
H403 H 0.89819 0.22146 0.1756 0.0
H404 H 0.84768 0.24178 0.21269 0.0
H405 H 0.84954 0.24419 0.369 0.0
H406 H 0.82773 0.25622 0.41968 0.0
H407 H 0.79725 0.26037 0.41898 0.0
C408 C 0.78824 0.70442 0.64509 0.0
C409 C 0.78434 0.68414 0.63258 0.0
C410 C 0.80846 0.72132 0.64371 0.0
C411 C 0.82539 0.71844 0.62899 0.0
C412 C 0.82144 0.69816 0.61631 0.0
C413 C 0.80123 0.68125 0.61802 0.0
C414 C 0.8474 0.73579 0.62836 0.0
C415 C 0.85325 0.75619 0.62966 0.0
C416 C 0.87524 0.77356 0.63056 0.0
C417 C 0.87909 0.79399 0.62168 0.0
C418 C 0.89928 0.8109 0.62372 0.0
C419 C 0.91628 0.80788 0.63477 0.0
H420 H 0.89031 0.75527 0.65027 0.0
C421 C 0.91248 0.78745 0.64354 0.0
C422 C 0.89228 0.77054 0.64183 0.0
H423 H 0.92518 0.78446 0.65142 0.0
H424 H 0.77563 0.70732 0.65574 0.0
H425 H 0.81052 0.73645 0.65522 0.0
H426 H 0.83408 0.6953 0.60539 0.0
H427 H 0.79893 0.66586 0.60917 0.0
H428 H 0.85915 0.73126 0.62532 0.0
H429 H 0.84148 0.76073 0.62871 0.0
H430 H 0.86638 0.79695 0.61349 0.0
H431 H 0.9015 0.82638 0.61785 0.0
C432 C 0.33131 0.68472 0.93681 0.0
C433 C 0.34581 0.68016 0.96664 0.0
C434 C 0.33467 0.70503 0.93627 0.0
C435 C 0.35262 0.72135 0.96611 0.0
C436 C 0.36722 0.71678 -0.00504 0.0
C437 C 0.36387 0.69648 -0.00464 0.0
C438 C 0.35702 0.74332 0.96741 0.0
C439 C 0.34278 0.7492 0.95545 0.0
C440 C 0.34736 0.77119 0.9577 0.0
C441 C 0.33422 0.7766 0.92262 0.0
C442 C 0.33772 0.79694 0.92409 0.0
C443 C 0.3544 0.81243 0.96131 0.0
H444 H 0.37402 0.78306 0.02546 0.0
C445 C 0.36741 0.80696 -0.00278 0.0
C446 C 0.36394 0.78662 -0.00439 0.0
H447 H 0.38011 0.81833 0.02776 0.0
H448 H 0.31742 0.67261 0.91293 0.0
H449 H 0.32324 0.70773 0.91146 0.0
H450 H 0.38125 0.72896 0.01802 0.0
H451 H 0.3753 0.69354 0.01931 0.0
H452 H 0.3728 0.75508 0.97941 0.0
H453 H 0.32702 0.73763 0.9426 0.0
H454 H 0.32125 0.76505 0.89337 0.0
H455 H 0.32749 0.80058 0.89528 0.0
loop_
_geom_bond_atom_site_label_1
_geom_bond_atom_site_label_2
_geom_bond_distance
_geom_bond_site_symmetry_2
_ccdc_geom_bond_type
C0 C1 1.264 . S
C0 C5 1.479 . S
C0 C10 1.465 . S
C1 C0 1.264 . S
C1 C3 1.339 . S
C1 H28 0.931 . S
C2 C3 1.395 . S
C2 C4 1.320 . S
C3 C1 1.339 . S
C3 C2 1.395 . S
C3 H29 0.929 . S
C4 C2 1.320 . S
C4 C5 1.405 . S
C4 H30 0.930 . S
C5 C0 1.479 . S
C5 C4 1.405 . S
C5 H31 0.931 . S
U6 O7 2.454 . S
U6 O8 2.458 . S
U6 C9 2.984 . S
U6 C10 2.847 . S
U6 C23 2.882 . S
U6 O24 2.441 . S
U6 O25 2.420 . S
U6 O26 2.455 . S
U6 O27 2.449 . S
O7 U6 2.454 . S
O7 C9 1.353 . S
O8 U6 2.458 . S
O8 C9 1.286 . S
C9 U6 2.984 . S
C9 O7 1.353 . S
C9 O8 1.286 . S
C9 C11 1.363 . S
C10 C0 1.465 . S
C10 U6 2.847 . S
C10 O24 1.249 . S
C10 O25 1.202 . S
C11 C9 1.363 . S
C11 C13 1.408 . S
C11 C16 1.342 . S
C12 C13 1.310 . S
C12 C15 1.461 . S
C12 H32 0.932 . S
C13 C11 1.408 . S
C13 C12 1.310 . S
C13 H33 0.930 . S
C14 C15 1.474 . S
C14 C16 1.285 . S
C14 H34 0.929 . S
C15 C12 1.461 . S
C15 C14 1.474 . S
C16 C11 1.342 . S
C16 C14 1.285 . S
C16 H35 0.930 . S
C17 C20 1.424 . S
C17 C22 1.245 . S
C17 C23 1.428 . S
C18 C21 1.260 . S
C18 C22 1.477 . S
C18 H36 0.932 . S
C19 C20 1.384 . S
C19 C21 1.479 . S
C19 H37 0.929 . S
C20 C17 1.424 . S
C20 C19 1.384 . S
C20 H38 0.928 . S
C21 C18 1.260 . S
C21 C19 1.479 . S
C22 C17 1.245 . S
C22 C18 1.477 . S
C22 H39 0.932 . S
C23 U6 2.882 . S
C23 C17 1.428 . S
C23 O26 1.301 . S
C23 O27 1.282 . S
O24 U6 2.441 . S
O24 C10 1.249 . S
O25 U6 2.420 . S
O25 C10 1.202 . S
O26 U6 2.455 . S
O26 C23 1.301 . S
O27 U6 2.449 . S
O27 C23 1.282 . S
H28 C1 0.931 . S
H29 C3 0.929 . S
H30 C4 0.930 . S
H31 C5 0.931 . S
H32 C12 0.932 . S
H33 C13 0.930 . S
H34 C14 0.929 . S
H35 C16 0.930 . S
H36 C18 0.932 . S
H37 C19 0.929 . S
H38 C20 0.928 . S
H39 C22 0.932 . S
C40 C41 1.264 . S
C40 C45 1.479 . S
C40 C50 1.465 . S
C41 C40 1.264 . S
C41 C43 1.339 . S
C41 H68 0.931 . S
C42 C43 1.395 . S
C42 C44 1.320 . S
C43 C41 1.339 . S
C43 C42 1.395 . S
C43 H69 0.929 . S
C44 C42 1.320 . S
C44 C45 1.405 . S
C44 H70 0.930 . S
C45 C40 1.479 . S
C45 C44 1.405 . S
C45 H71 0.931 . S
U46 O47 2.454 . S
U46 O48 2.458 . S
U46 C49 2.984 . S
U46 C50 2.847 . S
U46 C63 2.882 . S
U46 O64 2.441 . S
U46 O65 2.420 . S
U46 O66 2.455 . S
U46 O67 2.449 . S
O47 U46 2.454 . S
O47 C49 1.353 . S
O48 U46 2.458 . S
O48 C49 1.286 . S
C49 U46 2.984 . S
C49 O47 1.353 . S
C49 O48 1.286 . S
C49 C51 1.363 . S
C50 C40 1.465 . S
C50 U46 2.847 . S
C50 O64 1.249 . S
C50 O65 1.202 . S
C51 C49 1.363 . S
C51 C53 1.408 . S
C51 C56 1.342 . S
C52 C53 1.310 . S
C52 C55 1.461 . S
C52 H72 0.932 . S
C53 C51 1.408 . S
C53 C52 1.310 . S
C53 H73 0.930 . S
C54 C55 1.474 . S
C54 C56 1.285 . S
C54 H74 0.929 . S
C55 C52 1.461 . S
C55 C54 1.474 . S
C56 C51 1.342 . S
C56 C54 1.285 . S
C56 H75 0.930 . S
C57 C60 1.424 . S
C57 C62 1.245 . S
C57 C63 1.428 . S
C58 C61 1.260 . S
C58 C62 1.477 . S
C58 H76 0.932 . S
C59 C60 1.384 . S
C59 C61 1.479 . S
C59 H77 0.929 . S
C60 C57 1.424 . S
C60 C59 1.384 . S
C60 H78 0.928 . S
C61 C58 1.260 . S
C61 C59 1.479 . S
C62 C57 1.245 . S
C62 C58 1.477 . S
C62 H79 0.932 . S
C63 U46 2.882 . S
C63 C57 1.428 . S
C63 O66 1.301 . S
C63 O67 1.282 . S
O64 U46 2.441 . S
O64 C50 1.249 . S
O65 U46 2.420 . S
O65 C50 1.202 . S
O66 U46 2.455 . S
O66 C63 1.301 . S
O67 U46 2.449 . S
O67 C63 1.282 . S
H68 C41 0.931 . S
H69 C43 0.929 . S
H70 C44 0.930 . S
H71 C45 0.931 . S
H72 C52 0.932 . S
H73 C53 0.930 . S
H74 C54 0.929 . S
H75 C56 0.930 . S
H76 C58 0.932 . S
H77 C59 0.929 . S
H78 C60 0.928 . S
H79 C62 0.932 . S
C80 C81 1.264 . S
C80 C85 1.479 . S
C80 C90 1.465 . S
C81 C80 1.264 . S
C81 C83 1.339 . S
C81 H108 0.931 . S
C82 C83 1.395 . S
C82 C84 1.320 . S
C83 C81 1.339 . S
C83 C82 1.395 . S
C83 H109 0.929 . S
C84 C82 1.320 . S
C84 C85 1.405 . S
C84 H110 0.930 . S
C85 C80 1.479 . S
C85 C84 1.405 . S
C85 H111 0.931 . S
U86 O87 2.454 . S
U86 O88 2.458 . S
U86 C89 2.984 . S
U86 C90 2.847 1_556 S
U86 C103 2.883 . S
U86 O104 2.441 1_556 S
U86 O105 2.420 1_556 S
U86 O106 2.455 . S
U86 O107 2.449 1_556 S
O87 U86 2.454 . S
O87 C89 1.353 . S
O88 U86 2.458 . S
O88 C89 1.286 . S
C89 U86 2.984 . S
C89 O87 1.353 . S
C89 O88 1.286 . S
C89 C91 1.363 . S
C90 C80 1.465 . S
C90 U86 2.847 1_554 S
C90 O104 1.249 . S
C90 O105 1.202 . S
C91 C89 1.363 . S
C91 C93 1.408 . S
C91 C96 1.342 . S
C92 C93 1.310 . S
C92 C95 1.461 . S
C92 H112 0.932 . S
C93 C91 1.408 . S
C93 C92 1.310 . S
C93 H113 0.930 . S
C94 C95 1.474 . S
C94 C96 1.285 . S
C94 H114 0.929 . S
C95 C92 1.461 . S
C95 C94 1.474 . S
C96 C91 1.342 . S
C96 C94 1.285 . S
C96 H115 0.930 . S
C97 C100 1.424 . S
C97 C102 1.245 . S
C97 C103 1.429 . S
C98 C101 1.260 . S
C98 C102 1.477 . S
C98 H116 0.932 . S
C99 C100 1.384 . S
C99 C101 1.479 . S
C99 H117 0.929 1_556 S
C100 C97 1.424 . S
C100 C99 1.384 . S
C100 H118 0.928 1_556 S
C101 C98 1.260 . S
C101 C99 1.479 . S
C102 C97 1.245 . S
C102 C98 1.477 . S
C102 H119 0.932 . S
C103 U86 2.883 . S
C103 C97 1.429 . S
C103 O106 1.304 . S
C103 O107 1.278 1_556 S
O104 U86 2.441 1_554 S
O104 C90 1.249 . S
O105 U86 2.420 1_554 S
O105 C90 1.202 . S
O106 U86 2.455 . S
O106 C103 1.304 . S
O107 U86 2.449 1_554 S
O107 C103 1.278 1_554 S
H108 C81 0.931 . S
H109 C83 0.929 . S
H110 C84 0.930 . S
H111 C85 0.931 . S
H112 C92 0.932 . S
H113 C93 0.930 . S
H114 C94 0.929 . S
H115 C96 0.930 . S
H116 C98 0.932 . S
H117 C99 0.929 1_554 S
H118 C100 0.928 1_554 S
H119 C102 0.932 . S
C120 C121 1.264 . S
C120 C125 1.479 1_655 S
C120 C130 1.465 . S
C121 C120 1.264 . S
C121 C123 1.339 . S
C121 H148 0.931 . S
C122 C123 1.395 . S
C122 C124 1.320 1_655 S
C123 C121 1.339 . S
C123 C122 1.395 . S
C123 H149 0.929 . S
C124 C122 1.320 1_455 S
C124 C125 1.405 . S
C124 H150 0.930 . S
C125 C120 1.479 1_455 S
C125 C124 1.405 . S
C125 H151 0.931 . S
U126 O127 2.454 1_655 S
U126 O128 2.458 1_655 S
U126 C129 2.984 1_655 S
U126 C130 2.847 . S
U126 C143 2.882 . S
U126 O144 2.441 1_655 S
U126 O145 2.420 . S
U126 O146 2.455 . S
U126 O147 2.449 . S
O127 U126 2.454 1_455 S
O127 C129 1.353 . S
O128 U126 2.458 1_455 S
O128 C129 1.286 . S
C129 U126 2.984 1_455 S
C129 O127 1.353 . S
C129 O128 1.286 . S
C129 C131 1.363 . S
C130 C120 1.465 . S
C130 U126 2.847 . S
C130 O144 1.249 1_655 S
C130 O145 1.202 . S
C131 C129 1.363 . S
C131 C133 1.408 . S
C131 C136 1.342 . S
C132 C133 1.310 . S
C132 C135 1.461 . S
C132 H152 0.932 . S
C133 C131 1.408 . S
C133 C132 1.310 . S
C133 H153 0.930 . S
C134 C135 1.474 . S
C134 C136 1.285 . S
C134 H154 0.929 . S
C135 C132 1.461 . S
C135 C134 1.474 . S
C136 C131 1.342 . S
C136 C134 1.285 . S
C136 H155 0.930 . S
C137 C140 1.424 . S
C137 C142 1.245 . S
C137 C143 1.428 . S
C138 C141 1.260 . S
C138 C142 1.477 . S
C138 H156 0.932 . S
C139 C140 1.384 . S
C139 C141 1.479 . S
C139 H157 0.929 . S
C140 C137 1.424 . S
C140 C139 1.384 . S
C140 H158 0.928 . S
C141 C138 1.260 . S
C141 C139 1.479 . S
C142 C137 1.245 . S
C142 C138 1.477 . S
C142 H159 0.932 . S
C143 U126 2.882 . S
C143 C137 1.428 . S
C143 O146 1.301 . S
C143 O147 1.282 . S
O144 U126 2.441 1_455 S
O144 C130 1.249 1_455 S
O145 U126 2.420 . S
O145 C130 1.202 . S
O146 U126 2.455 . S
O146 C143 1.301 . S
O147 U126 2.449 . S
O147 C143 1.282 . S
H148 C121 0.931 . S
H149 C123 0.929 . S
H150 C124 0.930 . S
H151 C125 0.931 . S
H152 C132 0.932 . S
H153 C133 0.930 . S
H154 C134 0.929 . S
H155 C136 0.930 . S
H156 C138 0.932 . S
H157 C139 0.929 . S
H158 C140 0.928 . S
H159 C142 0.932 . S
C160 C161 1.264 . S
C160 C165 1.479 . S
C160 C170 1.465 . S
C161 C160 1.264 . S
C161 C163 1.339 . S
C161 H188 0.931 . S
C162 C163 1.395 . S
C162 C164 1.320 . S
C163 C161 1.339 . S
C163 C162 1.395 . S
C163 H189 0.929 . S
C164 C162 1.320 . S
C164 C165 1.405 . S
C164 H190 0.930 . S
C165 C160 1.479 . S
C165 C164 1.405 . S
C165 H191 0.931 . S
U166 O167 2.454 1_655 S
U166 O168 2.458 . S
U166 C169 2.984 . S
U166 C170 2.847 1_655 S
U166 C183 2.882 . S
U166 O184 2.441 1_655 S
U166 O185 2.420 1_655 S
U166 O186 2.455 . S
U166 O187 2.449 . S
O167 U166 2.454 1_455 S
O167 C169 1.353 1_455 S
O168 U166 2.458 . S
O168 C169 1.286 . S
C169 U166 2.984 . S
C169 O167 1.353 1_655 S
C169 O168 1.286 . S
C169 C171 1.363 . S
C170 C160 1.465 . S
C170 U166 2.847 1_455 S
C170 O184 1.249 . S
C170 O185 1.202 . S
C171 C169 1.363 . S
C171 C173 1.408 1_655 S
C171 C176 1.342 . S
C172 C173 1.310 . S
C172 C175 1.461 1_455 S
C172 H192 0.932 . S
C173 C171 1.408 1_455 S
C173 C172 1.310 . S
C173 H193 0.930 . S
C174 C175 1.474 . S
C174 C176 1.285 . S
C174 H194 0.929 . S
C175 C172 1.461 1_655 S
C175 C174 1.474 . S
C176 C171 1.342 . S
C176 C174 1.285 . S
C176 H195 0.930 . S
C177 C180 1.424 . S
C177 C182 1.245 . S
C177 C183 1.428 . S
C178 C181 1.260 . S
C178 C182 1.477 . S
C178 H196 0.932 . S
C179 C180 1.384 . S
C179 C181 1.479 . S
C179 H197 0.929 . S
C180 C177 1.424 . S
C180 C179 1.384 . S
C180 H198 0.928 . S
C181 C178 1.260 . S
C181 C179 1.479 . S
C182 C177 1.245 . S
C182 C178 1.477 . S
C182 H199 0.932 . S
C183 U166 2.882 . S
C183 C177 1.428 . S
C183 O186 1.301 . S
C183 O187 1.282 . S
O184 U166 2.441 1_455 S
O184 C170 1.249 . S
O185 U166 2.420 1_455 S
O185 C170 1.202 . S
O186 U166 2.455 . S
O186 C183 1.301 . S
O187 U166 2.449 . S
O187 C183 1.282 . S
H188 C161 0.931 . S
H189 C163 0.929 . S
H190 C164 0.930 . S
H191 C165 0.931 . S
H192 C172 0.932 . S
H193 C173 0.930 . S
H194 C174 0.929 . S
H195 C176 0.930 . S
H196 C178 0.932 . S
H197 C179 0.929 . S
H198 C180 0.928 . S
H199 C182 0.932 . S
C200 C201 1.264 . S
C200 C205 1.479 . S
C200 C210 1.465 . S
C201 C200 1.264 . S
C201 C203 1.339 . S
C201 H228 0.931 . S
C202 C203 1.395 . S
C202 C204 1.320 . S
C203 C201 1.339 . S
C203 C202 1.395 . S
C203 H229 0.929 . S
C204 C202 1.320 . S
C204 C205 1.405 . S
C204 H230 0.930 . S
C205 C200 1.479 . S
C205 C204 1.405 . S
C205 H231 0.931 . S
U206 O207 2.454 . S
U206 O208 2.458 . S
U206 C209 2.984 . S
U206 C210 2.847 1_556 S
U206 C223 2.883 . S
U206 O224 2.441 1_556 S
U206 O225 2.420 1_556 S
U206 O226 2.455 . S
U206 O227 2.449 1_556 S
O207 U206 2.454 . S
O207 C209 1.353 . S
O208 U206 2.458 . S
O208 C209 1.286 . S
C209 U206 2.984 . S
C209 O207 1.353 . S
C209 O208 1.286 . S
C209 C211 1.363 . S
C210 C200 1.465 . S
C210 U206 2.847 1_554 S
C210 O224 1.249 . S
C210 O225 1.202 . S
C211 C209 1.363 . S
C211 C213 1.408 . S
C211 C216 1.342 . S
C212 C213 1.310 . S
C212 C215 1.461 . S
C212 H232 0.932 . S
C213 C211 1.408 . S
C213 C212 1.310 . S
C213 H233 0.930 . S
C214 C215 1.474 . S
C214 C216 1.285 . S
C214 H234 0.929 . S
C215 C212 1.461 . S
C215 C214 1.474 . S
C216 C211 1.342 . S
C216 C214 1.285 . S
C216 H235 0.930 . S
C217 C220 1.424 . S
C217 C222 1.245 . S
C217 C223 1.429 . S
C218 C221 1.260 . S
C218 C222 1.477 . S
C218 H236 0.932 . S
C219 C220 1.384 . S
C219 C221 1.479 . S
C219 H237 0.929 1_556 S
C220 C217 1.424 . S
C220 C219 1.384 . S
C220 H238 0.928 1_556 S
C221 C218 1.260 . S
C221 C219 1.479 . S
C222 C217 1.245 . S
C222 C218 1.477 . S
C222 H239 0.932 . S
C223 U206 2.883 . S
C223 C217 1.429 . S
C223 O226 1.305 . S
C223 O227 1.277 1_556 S
O224 U206 2.441 1_554 S
O224 C210 1.249 . S
O225 U206 2.420 1_554 S
O225 C210 1.202 . S
O226 U206 2.455 . S
O226 C223 1.305 . S
O227 U206 2.449 1_554 S
O227 C223 1.277 1_554 S
H228 C201 0.931 . S
H229 C203 0.929 . S
H230 C204 0.930 . S
H231 C205 0.931 . S
H232 C212 0.932 . S
H233 C213 0.930 . S
H234 C214 0.929 . S
H235 C216 0.930 . S
H236 C218 0.932 . S
H237 C219 0.929 1_554 S
H238 C220 0.928 1_554 S
H239 C222 0.932 . S
C240 C241 1.386 . S
C240 C242 1.383 . S
C240 H256 0.951 . S
C241 C240 1.386 . S
C241 C245 1.383 . S
C242 C240 1.383 . S
C242 C243 1.402 . S
C242 H257 0.951 . S
C243 C242 1.402 . S
C243 C244 1.375 . S
C243 C246 1.481 . S
C244 C243 1.375 . S
C244 C245 1.367 . S
C244 H258 0.951 . S
C245 C241 1.383 . S
C245 C244 1.367 . S
C245 H259 0.950 . S
C246 C243 1.481 . S
C246 C247 1.297 . S
C246 H260 0.950 . S
C247 C246 1.297 . S
C247 C248 1.479 . S
C247 H261 0.950 . S
C248 C247 1.479 . S
C248 C249 1.375 . S
C248 C254 1.404 . S
C249 C248 1.375 . S
C249 C250 1.369 . S
C249 H262 0.950 . S
C250 C249 1.369 . S
C250 C251 1.392 . S
C250 H263 0.951 . S
C251 C250 1.392 . S
C251 C253 1.384 . S
H252 C254 0.949 . S
C253 C251 1.384 . S
C253 C254 1.385 . S
C253 H255 0.950 . S
C254 C248 1.404 . S
C254 H252 0.949 . S
C254 C253 1.385 . S
H255 C253 0.950 . S
H256 C240 0.951 . S
H257 C242 0.951 . S
H258 C244 0.951 . S
H259 C245 0.950 . S
H260 C246 0.950 . S
H261 C247 0.950 . S
H262 C249 0.950 . S
H263 C250 0.951 . S
C264 C265 1.386 . S
C264 C266 1.383 . S
C264 H280 0.951 . S
C265 C264 1.386 . S
C265 C269 1.383 . S
C266 C264 1.383 . S
C266 C267 1.402 . S
C266 H281 0.951 . S
C267 C266 1.402 . S
C267 C268 1.375 . S
C267 C270 1.481 . S
C268 C267 1.375 . S
C268 C269 1.367 . S
C268 H282 0.951 . S
C269 C265 1.383 . S
C269 C268 1.367 . S
C269 H283 0.950 . S
C270 C267 1.481 . S
C270 C271 1.297 . S
C270 H284 0.950 . S
C271 C270 1.297 . S
C271 C272 1.479 . S
C271 H285 0.950 . S
C272 C271 1.479 . S
C272 C273 1.375 . S
C272 C278 1.404 . S
C273 C272 1.375 . S
C273 C274 1.369 . S
C273 H286 0.950 . S
C274 C273 1.369 . S
C274 C275 1.392 . S
C274 H287 0.951 . S
C275 C274 1.392 . S
C275 C277 1.384 . S
H276 C278 0.949 . S
C277 C275 1.384 . S
C277 C278 1.385 . S
C277 H279 0.950 . S
C278 C272 1.404 . S
C278 H276 0.949 . S
C278 C277 1.385 . S
H279 C277 0.950 . S
H280 C264 0.951 . S
H281 C266 0.951 . S
H282 C268 0.951 . S
H283 C269 0.950 . S
H284 C270 0.950 . S
H285 C271 0.950 . S
H286 C273 0.950 . S
H287 C274 0.951 . S
C288 C289 1.386 . S
C288 C290 1.383 . S
C288 H304 0.951 . S
C289 C288 1.386 . S
C289 C293 1.383 . S
C290 C288 1.383 . S
C290 C291 1.402 . S
C290 H305 0.951 . S
C291 C290 1.402 . S
C291 C292 1.375 . S
C291 C294 1.481 . S
C292 C291 1.375 . S
C292 C293 1.367 . S
C292 H306 0.951 . S
C293 C289 1.383 . S
C293 C292 1.367 . S
C293 H307 0.950 . S
C294 C291 1.481 . S
C294 C295 1.297 . S
C294 H308 0.950 . S
C295 C294 1.297 . S
C295 C296 1.479 . S
C295 H309 0.950 . S
C296 C295 1.479 . S
C296 C297 1.375 . S
C296 C302 1.404 . S
C297 C296 1.375 . S
C297 C298 1.369 . S
C297 H310 0.950 . S
C298 C297 1.369 . S
C298 C299 1.392 . S
C298 H311 0.951 . S
C299 C298 1.392 . S
C299 C301 1.384 . S
H300 C302 0.949 . S
C301 C299 1.384 . S
C301 C302 1.385 . S
C301 H303 0.950 . S
C302 C296 1.404 . S
C302 H300 0.949 . S
C302 C301 1.385 . S
H303 C301 0.950 . S
H304 C288 0.951 . S
H305 C290 0.951 . S
H306 C292 0.951 . S
H307 C293 0.950 . S
H308 C294 0.950 . S
H309 C295 0.950 . S
H310 C297 0.950 . S
H311 C298 0.951 . S
C312 C313 1.386 1_455 S
C312 C314 1.399 . S
C312 H328 0.951 . S
C313 C312 1.386 1_655 S
C313 C317 1.402 1_545 S
C314 C312 1.399 . S
C314 C315 1.375 1_455 S
C314 H329 0.962 . S
C315 C314 1.375 1_655 S
C315 C316 1.375 . S
C315 C318 1.481 . S
C316 C315 1.375 . S
C316 C317 1.312 1_545 S
C316 H330 0.951 . S
C317 C313 1.402 1_565 S
C317 C316 1.312 1_565 S
C317 H331 0.989 . S
C318 C315 1.481 . S
C318 C319 1.297 . S
C318 H332 0.950 . S
C319 C318 1.297 . S
C319 C320 1.479 . S
C319 H333 0.950 1_655 S
C320 C319 1.479 . S
C320 C321 1.375 1_655 S
C320 C326 1.404 . S
C321 C320 1.375 1_455 S
C321 C322 1.369 . S
C321 H334 0.950 . S
C322 C321 1.369 . S
C322 C323 1.392 1_455 S
C322 H335 0.951 . S
C323 C322 1.392 1_655 S
C323 C325 1.384 . S
H324 C326 0.949 . S
C325 C323 1.384 . S
C325 C326 1.385 . S
C325 H327 0.950 . S
C326 C320 1.404 . S
C326 H324 0.949 . S
C326 C325 1.385 . S
H327 C325 0.950 . S
H328 C312 0.951 . S
H329 C314 0.962 . S
H330 C316 0.951 . S
H331 C317 0.989 . S
H332 C318 0.950 . S
H333 C319 0.950 1_455 S
H334 C321 0.950 . S
H335 C322 0.951 . S
C336 C337 1.386 . S
C336 C338 1.383 . S
C336 H352 0.951 . S
C337 C336 1.386 . S
C337 C341 1.383 . S
C338 C336 1.383 . S
C338 C339 1.402 . S
C338 H353 0.951 . S
C339 C338 1.402 . S
C339 C340 1.375 . S
C339 C342 1.481 . S
C340 C339 1.375 . S
C340 C341 1.367 . S
C340 H354 0.951 . S
C341 C337 1.383 . S
C341 C340 1.367 . S
C341 H355 0.950 . S
C342 C339 1.481 . S
C342 C343 1.297 . S
C342 H356 0.950 . S
C343 C342 1.297 . S
C343 C344 1.479 . S
C343 H357 0.950 . S
C344 C343 1.479 . S
C344 C345 1.375 . S
C344 C350 1.404 . S
C345 C344 1.375 . S
C345 C346 1.369 . S
C345 H358 0.950 . S
C346 C345 1.369 . S
C346 C347 1.392 . S
C346 H359 0.951 . S
C347 C346 1.392 . S
C347 C349 1.384 . S
H348 C350 0.949 . S
C349 C347 1.384 . S
C349 C350 1.385 . S
C349 H351 0.950 . S
C350 C344 1.404 . S
C350 H348 0.949 . S
C350 C349 1.385 . S
H351 C349 0.950 . S
H352 C336 0.951 . S
H353 C338 0.951 . S
H354 C340 0.951 . S
H355 C341 0.950 . S
H356 C342 0.950 . S
H357 C343 0.950 . S
H358 C345 0.950 . S
H359 C346 0.951 . S
C360 C361 1.386 1_545 S
C360 C362 1.383 . S
C360 H376 0.951 . S
C361 C360 1.386 1_565 S
C361 C365 1.383 1_565 S
C362 C360 1.383 . S
C362 C363 1.402 . S
C362 H377 0.951 . S
C363 C362 1.402 . S
C363 C364 1.375 . S
C363 C366 1.481 . S
C364 C363 1.375 . S
C364 C365 1.367 . S
C364 H378 0.951 1_554 S
C365 C361 1.383 1_545 S
C365 C364 1.367 . S
C365 H379 0.950 1_544 S
C366 C363 1.481 . S
C366 C367 1.297 . S
C366 H380 0.950 . S
C367 C366 1.297 . S
C367 C368 1.479 . S
C367 H381 0.950 . S
C368 C367 1.479 . S
C368 C369 1.375 . S
C368 C374 1.404 . S
C369 C368 1.375 . S
C369 C370 1.369 . S
C369 H382 0.950 . S
C370 C369 1.369 . S
C370 C371 1.392 . S
C370 H383 0.951 . S
C371 C370 1.392 . S
C371 C373 1.384 . S
H372 C374 0.949 . S
C373 C371 1.384 . S
C373 C374 1.385 . S
C373 H375 0.950 . S
C374 C368 1.404 . S
C374 H372 0.949 . S
C374 C373 1.385 . S
H375 C373 0.950 . S
H376 C360 0.951 . S
H377 C362 0.951 . S
H378 C364 0.951 1_556 S
H379 C365 0.950 1_566 S
H380 C366 0.950 . S
H381 C367 0.950 . S
H382 C369 0.950 . S
H383 C370 0.951 . S
C384 C385 1.386 . S
C384 C386 1.383 . S
C384 H400 0.951 . S
C385 C384 1.386 . S
C385 C389 1.383 . S
C386 C384 1.383 . S
C386 C387 1.402 . S
C386 H401 0.951 . S
C387 C386 1.402 . S
C387 C388 1.375 . S
C387 C390 1.481 . S
C388 C387 1.375 . S
C388 C389 1.367 . S
C388 H402 0.951 . S
C389 C385 1.383 . S
C389 C388 1.367 . S
C389 H403 0.950 . S
C390 C387 1.481 . S
C390 C391 1.297 . S
C390 H404 0.950 . S
C391 C390 1.297 . S
C391 C392 1.479 . S
C391 H405 0.950 . S
C392 C391 1.479 . S
C392 C393 1.375 . S
C392 C398 1.404 . S
C393 C392 1.375 . S
C393 C394 1.369 . S
C393 H406 0.950 . S
C394 C393 1.369 . S
C394 C395 1.392 . S
C394 H407 0.951 . S
C395 C394 1.392 . S
C395 C397 1.384 . S
H396 C398 0.949 . S
C397 C395 1.384 . S
C397 C398 1.385 . S
C397 H399 0.950 . S
C398 C392 1.404 . S
C398 H396 0.949 . S
C398 C397 1.385 . S
H399 C397 0.950 . S
H400 C384 0.951 . S
H401 C386 0.951 . S
H402 C388 0.951 . S
H403 C389 0.950 . S
H404 C390 0.950 . S
H405 C391 0.950 . S
H406 C393 0.950 . S
H407 C394 0.951 . S
C408 C409 1.386 . S
C408 C410 1.383 . S
C408 H424 0.951 . S
C409 C408 1.386 . S
C409 C413 1.383 . S
C410 C408 1.383 . S
C410 C411 1.402 . S
C410 H425 0.951 . S
C411 C410 1.402 . S
C411 C412 1.375 . S
C411 C414 1.481 . S
C412 C411 1.375 . S
C412 C413 1.367 . S
C412 H426 0.951 . S
C413 C409 1.383 . S
C413 C412 1.367 . S
C413 H427 0.950 . S
C414 C411 1.481 . S
C414 C415 1.297 . S
C414 H428 0.950 . S
C415 C414 1.297 . S
C415 C416 1.479 . S
C415 H429 0.950 . S
C416 C415 1.479 . S
C416 C417 1.375 . S
C416 C422 1.404 . S
C417 C416 1.375 . S
C417 C418 1.369 . S
C417 H430 0.950 . S
C418 C417 1.369 . S
C418 C419 1.392 . S
C418 H431 0.951 . S
C419 C418 1.392 . S
C419 C421 1.384 . S
H420 C422 0.949 . S
C421 C419 1.384 . S
C421 C422 1.385 . S
C421 H423 0.950 . S
C422 C416 1.404 . S
C422 H420 0.949 . S
C422 C421 1.385 . S
H423 C421 0.950 . S
H424 C408 0.951 . S
H425 C410 0.951 . S
H426 C412 0.951 . S
H427 C413 0.950 . S
H428 C414 0.950 . S
H429 C415 0.950 . S
H430 C417 0.950 . S
H431 C418 0.951 . S
C432 C433 1.386 . S
C432 C434 1.383 . S
C432 H448 0.951 . S
C433 C432 1.386 . S
C433 C437 1.383 . S
C434 C432 1.383 . S
C434 C435 1.402 . S
C434 H449 0.951 . S
C435 C434 1.402 . S
C435 C436 1.375 . S
C435 C438 1.481 . S
C436 C435 1.375 . S
C436 C437 1.367 . S
C436 H450 0.951 1_556 S
C437 C433 1.383 . S
C437 C436 1.367 . S
C437 H451 0.950 . S
C438 C435 1.481 . S
C438 C439 1.297 . S
C438 H452 0.950 . S
C439 C438 1.297 . S
C439 C440 1.479 . S
C439 H453 0.950 . S
C440 C439 1.479 . S
C440 C441 1.375 . S
C440 C446 1.404 1_556 S
C441 C440 1.375 . S
C441 C442 1.369 . S
C441 H454 0.950 . S
C442 C441 1.369 . S
C442 C443 1.392 . S
C442 H455 0.951 . S
C443 C442 1.392 . S
C443 C445 1.384 . S
H444 C446 0.949 . S
C445 C443 1.384 . S
C445 C446 1.385 1_556 S
C445 H447 0.950 1_556 S
C446 C440 1.404 1_554 S
C446 H444 0.949 . S
C446 C445 1.385 1_554 S
H447 C445 0.950 1_554 S
H448 C432 0.951 . S
H449 C434 0.951 . S
H450 C436 0.951 1_554 S
H451 C437 0.950 . S
H452 C438 0.950 . S
H453 C439 0.950 . S
H454 C441 0.950 . S
H455 C442 0.951 . S
C241 C2 1.476 . S
C251 C55 1.488 . S
C265 C42 1.476 . S
C275 C95 1.489 . S
C289 C82 1.485 . S
C299 C135 1.493 . S
C313 C175 1.497 1_545 S
C323 C122 1.488 . S
C337 C162 1.473 . S
C347 C215 1.487 . S
C361 C202 1.498 . S
C371 C15 1.487 . S
C385 C141 1.498 . S
C395 C21 1.490 . S
C409 C61 1.475 . S
C419 C181 1.455 . S
C433 C101 1.475 . S
C443 C221 1.457 . S
