# Generated by pormake.
# Topology fcp, (5)-cn, num edge types: 1
# Building blocks:
#     Node 0, Type 0, BuildingBlock: XOMCOT_clean_sbu_0, # of connection points: 5
#     Node 1, Type 0, BuildingBlock: XOMCOT_clean_sbu_0, # of connection points: 5
#     Node 2, Type 0, BuildingBlock: XOMCOT_clean_sbu_0, # of connection points: 5
#     Node 3, Type 0, BuildingBlock: XOMCOT_clean_sbu_0, # of connection points: 5
#     Node 4, Type 0, BuildingBlock: XOMCOT_clean_sbu_0, # of connection points: 5
#     Node 5, Type 0, BuildingBlock: XOMCOT_clean_sbu_0, # of connection points: 5
#     Node 6, Type 0, BuildingBlock: XOMCOT_clean_sbu_0, # of connection points: 5
#     Node 7, Type 0, BuildingBlock: XOMCOT_clean_sbu_0, # of connection points: 5
#     Node 8, Type 0, BuildingBlock: XOMCOT_clean_sbu_0, # of connection points: 5
#     Node 9, Type 0, BuildingBlock: XOMCOT_clean_sbu_0, # of connection points: 5
#     Node 10, Type 0, BuildingBlock: XOMCOT_clean_sbu_0, # of connection points: 5
#     Node 11, Type 0, BuildingBlock: XOMCOT_clean_sbu_0, # of connection points: 5
#     Node 12, Type 0, BuildingBlock: XOMCOT_clean_sbu_0, # of connection points: 5
#     Node 13, Type 0, BuildingBlock: XOMCOT_clean_sbu_0, # of connection points: 5
#     Node 14, Type 0, BuildingBlock: XOMCOT_clean_sbu_0, # of connection points: 5
#     Node 15, Type 0, BuildingBlock: XOMCOT_clean_sbu_0, # of connection points: 5
#     Node 16, Type 0, BuildingBlock: XOMCOT_clean_sbu_0, # of connection points: 5
#     Node 17, Type 0, BuildingBlock: XOMCOT_clean_sbu_0, # of connection points: 5
#     Node 18, Type 0, BuildingBlock: XOMCOT_clean_sbu_0, # of connection points: 5
#     Node 19, Type 0, BuildingBlock: XOMCOT_clean_sbu_0, # of connection points: 5
#     Node 20, Type 0, BuildingBlock: XOMCOT_clean_sbu_0, # of connection points: 5
#     Node 21, Type 0, BuildingBlock: XOMCOT_clean_sbu_0, # of connection points: 5
#     Node 22, Type 0, BuildingBlock: XOMCOT_clean_sbu_0, # of connection points: 5
#     Node 23, Type 0, BuildingBlock: XOMCOT_clean_sbu_0, # of connection points: 5
#     Edge 24, Type (0, 0), BuildingBlock: UVAHIK_clean_linker_0, # of connection points: 2
#     Edge 25, Type (0, 0), BuildingBlock: UVAHIK_clean_linker_0, # of connection points: 2
#     Edge 26, Type (0, 0), BuildingBlock: UVAHIK_clean_linker_0, # of connection points: 2
#     Edge 27, Type (0, 0), BuildingBlock: UVAHIK_clean_linker_0, # of connection points: 2
#     Edge 28, Type (0, 0), BuildingBlock: UVAHIK_clean_linker_0, # of connection points: 2
#     Edge 29, Type (0, 0), BuildingBlock: UVAHIK_clean_linker_0, # of connection points: 2
#     Edge 30, Type (0, 0), BuildingBlock: UVAHIK_clean_linker_0, # of connection points: 2
#     Edge 31, Type (0, 0), BuildingBlock: UVAHIK_clean_linker_0, # of connection points: 2
#     Edge 32, Type (0, 0), BuildingBlock: UVAHIK_clean_linker_0, # of connection points: 2
#     Edge 33, Type (0, 0), BuildingBlock: UVAHIK_clean_linker_0, # of connection points: 2
#     Edge 34, Type (0, 0), BuildingBlock: UVAHIK_clean_linker_0, # of connection points: 2
#     Edge 35, Type (0, 0), BuildingBlock: UVAHIK_clean_linker_0, # of connection points: 2
#     Edge 36, Type (0, 0), BuildingBlock: UVAHIK_clean_linker_0, # of connection points: 2
#     Edge 37, Type (0, 0), BuildingBlock: UVAHIK_clean_linker_0, # of connection points: 2
#     Edge 38, Type (0, 0), BuildingBlock: UVAHIK_clean_linker_0, # of connection points: 2
#     Edge 39, Type (0, 0), BuildingBlock: UVAHIK_clean_linker_0, # of connection points: 2
#     Edge 40, Type (0, 0), BuildingBlock: UVAHIK_clean_linker_0, # of connection points: 2
#     Edge 41, Type (0, 0), BuildingBlock: UVAHIK_clean_linker_0, # of connection points: 2
#     Edge 42, Type (0, 0), BuildingBlock: UVAHIK_clean_linker_0, # of connection points: 2
#     Edge 43, Type (0, 0), BuildingBlock: UVAHIK_clean_linker_0, # of connection points: 2
#     Edge 44, Type (0, 0), BuildingBlock: UVAHIK_clean_linker_0, # of connection points: 2
#     Edge 45, Type (0, 0), BuildingBlock: UVAHIK_clean_linker_0, # of connection points: 2
#     Edge 46, Type (0, 0), BuildingBlock: UVAHIK_clean_linker_0, # of connection points: 2
#     Edge 47, Type (0, 0), BuildingBlock: UVAHIK_clean_linker_0, # of connection points: 2
#     Edge 48, Type (0, 0), BuildingBlock: UVAHIK_clean_linker_0, # of connection points: 2
#     Edge 49, Type (0, 0), BuildingBlock: UVAHIK_clean_linker_0, # of connection points: 2
#     Edge 50, Type (0, 0), BuildingBlock: UVAHIK_clean_linker_0, # of connection points: 2
#     Edge 51, Type (0, 0), BuildingBlock: UVAHIK_clean_linker_0, # of connection points: 2
#     Edge 52, Type (0, 0), BuildingBlock: UVAHIK_clean_linker_0, # of connection points: 2
#     Edge 53, Type (0, 0), BuildingBlock: UVAHIK_clean_linker_0, # of connection points: 2
#     Edge 54, Type (0, 0), BuildingBlock: UVAHIK_clean_linker_0, # of connection points: 2
#     Edge 55, Type (0, 0), BuildingBlock: UVAHIK_clean_linker_0, # of connection points: 2
#     Edge 56, Type (0, 0), BuildingBlock: UVAHIK_clean_linker_0, # of connection points: 2
#     Edge 57, Type (0, 0), BuildingBlock: UVAHIK_clean_linker_0, # of connection points: 2
#     Edge 58, Type (0, 0), BuildingBlock: UVAHIK_clean_linker_0, # of connection points: 2
#     Edge 59, Type (0, 0), BuildingBlock: UVAHIK_clean_linker_0, # of connection points: 2
#     Edge 60, Type (0, 0), BuildingBlock: UVAHIK_clean_linker_0, # of connection points: 2
#     Edge 61, Type (0, 0), BuildingBlock: UVAHIK_clean_linker_0, # of connection points: 2
#     Edge 62, Type (0, 0), BuildingBlock: UVAHIK_clean_linker_0, # of connection points: 2
#     Edge 63, Type (0, 0), BuildingBlock: UVAHIK_clean_linker_0, # of connection points: 2
#     Edge 64, Type (0, 0), BuildingBlock: UVAHIK_clean_linker_0, # of connection points: 2
#     Edge 65, Type (0, 0), BuildingBlock: UVAHIK_clean_linker_0, # of connection points: 2
#     Edge 66, Type (0, 0), BuildingBlock: UVAHIK_clean_linker_0, # of connection points: 2
#     Edge 67, Type (0, 0), BuildingBlock: UVAHIK_clean_linker_0, # of connection points: 2
#     Edge 68, Type (0, 0), BuildingBlock: UVAHIK_clean_linker_0, # of connection points: 2
#     Edge 69, Type (0, 0), BuildingBlock: UVAHIK_clean_linker_0, # of connection points: 2
#     Edge 70, Type (0, 0), BuildingBlock: UVAHIK_clean_linker_0, # of connection points: 2
#     Edge 71, Type (0, 0), BuildingBlock: UVAHIK_clean_linker_0, # of connection points: 2
#     Edge 72, Type (0, 0), BuildingBlock: UVAHIK_clean_linker_0, # of connection points: 2
#     Edge 73, Type (0, 0), BuildingBlock: UVAHIK_clean_linker_0, # of connection points: 2
#     Edge 74, Type (0, 0), BuildingBlock: UVAHIK_clean_linker_0, # of connection points: 2
#     Edge 75, Type (0, 0), BuildingBlock: UVAHIK_clean_linker_0, # of connection points: 2
#     Edge 76, Type (0, 0), BuildingBlock: UVAHIK_clean_linker_0, # of connection points: 2
#     Edge 77, Type (0, 0), BuildingBlock: UVAHIK_clean_linker_0, # of connection points: 2
#     Edge 78, Type (0, 0), BuildingBlock: UVAHIK_clean_linker_0, # of connection points: 2
#     Edge 79, Type (0, 0), BuildingBlock: UVAHIK_clean_linker_0, # of connection points: 2
#     Edge 80, Type (0, 0), BuildingBlock: UVAHIK_clean_linker_0, # of connection points: 2
#     Edge 81, Type (0, 0), BuildingBlock: UVAHIK_clean_linker_0, # of connection points: 2
#     Edge 82, Type (0, 0), BuildingBlock: UVAHIK_clean_linker_0, # of connection points: 2
#     Edge 83, Type (0, 0), BuildingBlock: UVAHIK_clean_linker_0, # of connection points: 2
# Relax obj value: 0.057
# Max RMSD: 0.111
# Mean RMSD: 0.111
data_MOF--net-fcp--node1-XOMCOT_clean_sbu_0--edge1-UVAHIK_clean_linker_0
_symmetry_space_group_name_H-M    P1
_symmetry_Int_Tables_number       1
_symmetry_cell_setting            triclinic
loop_
_symmetry_equiv_pos_as_xyz
'x, y, z'
_cell_length_a     65.266001
_cell_length_b     65.264904
_cell_length_c     65.260385
_cell_angle_alpha  89.997017
_cell_angle_beta   89.993991
_cell_angle_gamma 89.99408
loop_
_atom_site_label
_atom_site_type_symbol
_atom_site_fract_x
_atom_site_fract_y
_atom_site_fract_z
_atom_type_partial_charge
Co0 Co 0.07239 0.32499 0.17132 0.0
C1 C 0.11006 0.31129 0.14923 0.0
C2 C 0.11661 0.33186 0.17395 0.0
C3 C 0.13486 0.32522 0.16581 0.0
N4 N 0.101 0.32351 0.16329 0.0
N5 N 0.13072 0.31221 0.15031 0.0
H6 H 0.10193 0.30125 0.13899 0.0
H7 H 0.11485 0.34141 0.18738 0.0
C8 C 0.08625 0.36896 0.16948 0.0
O9 O 0.09517 0.36559 0.15174 0.0
N10 N 0.04424 0.32635 0.17995 0.0
C11 C 0.02837 0.31552 0.17252 0.0
C12 C 0.01104 0.32073 0.1834 0.0
C13 C 0.03653 0.33787 0.19524 0.0
N14 N 0.01619 0.33481 0.1977 0.0
C15 C 0.06345 0.3142 0.12974 0.0
C16 C 0.04694 0.35131 0.11787 0.0
C17 C 0.0477 0.33529 0.10352 0.0
C18 C 0.0559 0.31647 0.10987 0.0
C19 C 0.05446 0.34828 0.13774 0.0
N20 N 0.06346 0.33017 0.14323 0.0
H21 H 0.06856 0.29923 0.13444 0.0
H22 H 0.05238 0.36039 0.14878 0.0
H23 H 0.02937 0.30447 0.16021 0.0
H24 H 0.04567 0.34832 0.20428 0.0
O25 O 0.07112 0.29528 0.17167 0.0
O26 O 0.07995 0.31487 0.19795 0.0
O27 O 0.07563 0.35493 0.17802 0.0
C28 C 0.0771 0.29656 0.19066 0.0
H29 H 0.14998 0.32877 0.17163 0.0
H30 H 0.99593 0.3143 0.18115 0.0
H31 H 0.04043 0.36605 0.11393 0.0
H32 H 0.05591 0.30326 0.09983 0.0
Co33 Co 0.82494 0.4338 0.33383 0.0
C34 C 0.81044 0.39588 0.35553 0.0
C35 C 0.8289 0.38955 0.32913 0.0
C36 C 0.82228 0.37126 0.33712 0.0
N37 N 0.82187 0.40504 0.34087 0.0
N38 N 0.81064 0.37524 0.3537 0.0
H39 H 0.80168 0.40393 0.36696 0.0
H40 H 0.83779 0.39149 0.31527 0.0
C41 C 0.86772 0.41725 0.33594 0.0
O42 O 0.86295 0.40763 0.35298 0.0
N43 N 0.82802 0.46206 0.32593 0.0
C44 C 0.82108 0.47886 0.33573 0.0
C45 C 0.82743 0.49594 0.32504 0.0
C46 C 0.83814 0.46902 0.30934 0.0
N47 N 0.83807 0.48967 0.30846 0.0
C48 C 0.81431 0.44223 0.3756 0.0
C49 C 0.85201 0.45708 0.38787 0.0
C50 C 0.83566 0.45747 0.40176 0.0
C51 C 0.81663 0.44994 0.39541 0.0
C52 C 0.84893 0.44954 0.36803 0.0
N53 N 0.83041 0.44157 0.36224 0.0
H54 H 0.7992 0.43761 0.37078 0.0
H55 H 0.86125 0.45115 0.35715 0.0
H56 H 0.81217 0.47873 0.34969 0.0
H57 H 0.84574 0.45917 0.29837 0.0
O58 O 0.79539 0.43678 0.33347 0.0
O59 O 0.81444 0.42758 0.30692 0.0
O60 O 0.85477 0.42915 0.32735 0.0
C61 C 0.79631 0.4312 0.31435 0.0
H62 H 0.82505 0.35624 0.33066 0.0
H63 H 0.82433 0.51174 0.32902 0.0
H64 H 0.86677 0.46346 0.39198 0.0
H65 H 0.80351 0.45035 0.40557 0.0
Co66 Co 0.93419 0.68189 0.17202 0.0
C67 C 0.89637 0.69645 0.15044 0.0
C68 C 0.88992 0.67625 0.1755 0.0
C69 C 0.87165 0.68303 0.16757 0.0
N70 N 0.90548 0.68426 0.16451 0.0
N71 N 0.87571 0.69578 0.15185 0.0
H72 H 0.90447 0.70621 0.1399 0.0
H73 H 0.89175 0.66677 0.18897 0.0
C74 C 0.91909 0.63833 0.17051 0.0
O75 O 0.9101 0.64192 0.15285 0.0
N76 N 0.9624 0.67948 0.18031 0.0
C77 C 0.97917 0.68666 0.17066 0.0
C78 C 0.99626 0.68053 0.18148 0.0
C79 C 0.96935 0.66945 0.19695 0.0
N80 N 0.98999 0.66978 0.198 0.0
C81 C 0.94253 0.69212 0.13016 0.0
C82 C 0.95826 0.65469 0.11827 0.0
C83 C 0.95777 0.6707 0.10388 0.0
C84 C 0.9499 0.68967 0.11025 0.0
C85 C 0.95093 0.6579 0.1382 0.0
N86 N 0.94241 0.67623 0.14376 0.0
H87 H 0.93777 0.70721 0.13486 0.0
H88 H 0.95288 0.64579 0.14926 0.0
H89 H 0.97903 0.6955 0.15665 0.0
H90 H 0.95952 0.66165 0.2078 0.0
O91 O 0.93656 0.71152 0.17208 0.0
O92 O 0.92738 0.69258 0.1987 0.0
O93 O 0.93008 0.65211 0.17898 0.0
C94 C 0.93078 0.71069 0.19115 0.0
H95 H 0.85657 0.67969 0.17362 0.0
H96 H 0.01205 0.68378 0.17758 0.0
H97 H 0.96447 0.63983 0.11433 0.0
H98 H 0.9501 0.70287 0.1002 0.0
Co99 Co 0.18039 0.57075 0.33539 0.0
C100 C 0.19502 0.60869 0.35671 0.0
C101 C 0.17523 0.61501 0.33129 0.0
C102 C 0.18207 0.63332 0.33908 0.0
N103 N 0.18294 0.59952 0.34259 0.0
N104 N 0.19456 0.62934 0.35503 0.0
H105 H 0.20455 0.60065 0.3675 0.0
H106 H 0.16591 0.6131 0.31773 0.0
C107 C 0.13701 0.58632 0.33641 0.0
O108 O 0.14058 0.59536 0.35404 0.0
N109 N 0.17779 0.54248 0.32738 0.0
C110 C 0.18454 0.52568 0.3373 0.0
C111 C 0.1785 0.5086 0.32641 0.0
C112 C 0.1681 0.53554 0.31053 0.0
N113 N 0.16825 0.5149 0.30959 0.0
C114 C 0.19012 0.56281 0.37745 0.0
C115 C 0.15244 0.54746 0.38904 0.0
C116 C 0.16828 0.54799 0.4036 0.0
C117 C 0.18737 0.55567 0.39741 0.0
C118 C 0.15594 0.55456 0.36909 0.0
N119 N 0.17438 0.5629 0.36367 0.0
H120 H 0.20529 0.56741 0.37288 0.0
H121 H 0.14395 0.55257 0.3579 0.0
H122 H 0.19306 0.52581 0.35151 0.0
H123 H 0.1607 0.5454 0.29943 0.0
O124 O 0.21 0.56812 0.33566 0.0
O125 O 0.19133 0.57711 0.30876 0.0
O126 O 0.15071 0.57508 0.32812 0.0
C127 C 0.20935 0.57364 0.3165 0.0
H128 H 0.17894 0.64835 0.33281 0.0
H129 H 0.1815 0.4928 0.33046 0.0
H130 H 0.13748 0.54139 0.39286 0.0
H131 H 0.20043 0.5555 0.40763 0.0
Co132 Co 0.07207 0.68218 0.83413 0.0
C133 C 0.11114 0.69707 0.85318 0.0
C134 C 0.11588 0.67623 0.82825 0.0
C135 C 0.13459 0.68362 0.83433 0.0
N136 N 0.10112 0.68435 0.84023 0.0
N137 N 0.13159 0.69679 0.84993 0.0
H138 H 0.10379 0.70749 0.86366 0.0
H139 H 0.11314 0.66639 0.8152 0.0
C140 C 0.08688 0.63861 0.83545 0.0
O141 O 0.0963 0.64237 0.85285 0.0
N142 N 0.04352 0.67994 0.8271 0.0
C143 C 0.02723 0.6874 0.83735 0.0
C144 C 0.00967 0.68152 0.82717 0.0
C145 C 0.03581 0.66998 0.81076 0.0
N146 N 0.01516 0.67064 0.81046 0.0
C147 C 0.06582 0.69246 0.87633 0.0
C148 C 0.04856 0.65571 0.88836 0.0
C149 C 0.0494 0.67189 0.90243 0.0
C150 C 0.05825 0.6904 0.89622 0.0
C151 C 0.05603 0.65853 0.86843 0.0
N152 N 0.06506 0.67659 0.86272 0.0
H153 H 0.0712 0.70732 0.87161 0.0
H154 H 0.05346 0.64651 0.85739 0.0
H155 H 0.02803 0.69631 0.85129 0.0
H156 H 0.04513 0.66207 0.79954 0.0
O157 O 0.06985 0.7118 0.83419 0.0
O158 O 0.07771 0.69283 0.80716 0.0
O159 O 0.07572 0.65235 0.8271 0.0
C160 C 0.07475 0.71096 0.81487 0.0
H161 H 0.14921 0.6801 0.82734 0.0
H162 H 0.99409 0.68507 0.83161 0.0
H163 H 0.0412 0.64138 0.89238 0.0
H164 H 0.05883 0.70341 0.90652 0.0
Co165 Co 0.18098 0.43362 0.67289 0.0
C166 C 0.19529 0.39554 0.65138 0.0
C167 C 0.17658 0.38942 0.67766 0.0
C168 C 0.18314 0.37106 0.66978 0.0
N169 N 0.1838 0.40482 0.66592 0.0
N170 N 0.19495 0.3749 0.65329 0.0
H171 H 0.20421 0.40349 0.64002 0.0
H172 H 0.16762 0.39147 0.69146 0.0
C173 C 0.138 0.41753 0.67078 0.0
O174 O 0.14268 0.4077 0.65384 0.0
N175 N 0.17813 0.46193 0.68071 0.0
C176 C 0.18525 0.47865 0.67092 0.0
C177 C 0.17895 0.49581 0.68152 0.0
C178 C 0.16796 0.469 0.69722 0.0
N179 N 0.16817 0.48965 0.69805 0.0
C180 C 0.19169 0.44187 0.63109 0.0
C181 C 0.15415 0.45718 0.61887 0.0
C182 C 0.17049 0.45742 0.60496 0.0
C183 C 0.18944 0.44964 0.61129 0.0
C184 C 0.15715 0.44957 0.63869 0.0
N185 N 0.17559 0.44139 0.64446 0.0
H186 H 0.20674 0.4371 0.63591 0.0
H187 H 0.14487 0.45132 0.64958 0.0
H188 H 0.19423 0.47841 0.65699 0.0
H189 H 0.16022 0.45923 0.70817 0.0
O190 O 0.21055 0.43634 0.67328 0.0
O191 O 0.19139 0.42738 0.69983 0.0
O192 O 0.1511 0.42928 0.67934 0.0
C193 C 0.20955 0.43085 0.69243 0.0
H194 H 0.18024 0.35608 0.67629 0.0
H195 H 0.18219 0.51157 0.67751 0.0
H196 H 0.13947 0.46376 0.61479 0.0
H197 H 0.20256 0.44992 0.60112 0.0
Co198 Co 0.93221 0.32545 0.83422 0.0
C199 C 0.89439 0.31078 0.85591 0.0
C200 C 0.88793 0.32955 0.82976 0.0
C201 C 0.86967 0.32284 0.83777 0.0
N202 N 0.90347 0.32237 0.84133 0.0
N203 N 0.87375 0.311 0.85418 0.0
H204 H 0.90248 0.3019 0.86721 0.0
H205 H 0.8898 0.33861 0.816 0.0
C206 C 0.91562 0.36796 0.83768 0.0
O207 O 0.90654 0.36253 0.85482 0.0
N208 N 0.96046 0.3284 0.82637 0.0
C209 C 0.97661 0.31815 0.83402 0.0
C210 C 0.9939 0.3241 0.82351 0.0
C211 C 0.96799 0.34033 0.8113 0.0
N212 N 0.98847 0.33807 0.8092 0.0
C213 C 0.94093 0.3139 0.87564 0.0
C214 C 0.95645 0.35114 0.88847 0.0
C215 C 0.95682 0.3345 0.902 0.0
C216 C 0.94893 0.3157 0.89537 0.0
C217 C 0.94859 0.34857 0.86868 0.0
N218 N 0.94026 0.33029 0.86264 0.0
H219 H 0.93609 0.29895 0.87057 0.0
H220 H 0.95017 0.36109 0.85802 0.0
H221 H 0.97581 0.30689 0.84616 0.0
H222 H 0.95858 0.3504 0.8021 0.0
O223 O 0.935 0.29593 0.83332 0.0
O224 O 0.92582 0.31545 0.80712 0.0
O225 O 0.92754 0.35547 0.82845 0.0
C226 C 0.9294 0.29718 0.81424 0.0
H227 H 0.85462 0.32569 0.83142 0.0
H228 H 0.00918 0.31816 0.82594 0.0
H229 H 0.9631 0.36572 0.8928 0.0
H230 H 0.94931 0.30236 0.90524 0.0
Co231 Co 0.82584 0.57152 0.67128 0.0
C232 C 0.81293 0.60958 0.64928 0.0
C233 C 0.83329 0.61559 0.67431 0.0
C234 C 0.82696 0.634 0.66632 0.0
N235 N 0.82488 0.6002 0.66337 0.0
N236 N 0.81408 0.63022 0.65063 0.0
H237 H 0.80286 0.60167 0.63888 0.0
H238 H 0.84259 0.61357 0.68787 0.0
C239 C 0.86995 0.58491 0.67033 0.0
O240 O 0.86703 0.59365 0.65242 0.0
N241 N 0.82667 0.54331 0.67984 0.0
C242 C 0.81429 0.52805 0.67352 0.0
C243 C 0.81857 0.51078 0.6849 0.0
C244 C 0.83836 0.53521 0.69481 0.0
N245 N 0.83372 0.51536 0.69818 0.0
C246 C 0.81592 0.56296 0.6294 0.0
C247 C 0.85297 0.54575 0.6184 0.0
C248 C 0.83733 0.54686 0.60365 0.0
C249 C 0.81852 0.55541 0.60957 0.0
C250 C 0.84959 0.55326 0.63822 0.0
N251 N 0.83154 0.56261 0.64329 0.0
H252 H 0.80094 0.56838 0.63374 0.0
H253 H 0.86138 0.55093 0.64955 0.0
H254 H 0.80265 0.52954 0.66182 0.0
H255 H 0.84944 0.54383 0.70363 0.0
O256 O 0.79614 0.57058 0.67089 0.0
O257 O 0.81511 0.57909 0.69771 0.0
O258 O 0.85566 0.57444 0.67864 0.0
C259 C 0.79697 0.57641 0.68994 0.0
H260 H 0.83058 0.64899 0.67242 0.0
H261 H 0.81106 0.49604 0.68364 0.0
H262 H 0.86768 0.53899 0.61481 0.0
H263 H 0.80557 0.55571 0.59921 0.0
Co264 Co 0.17237 0.07102 0.32479 0.0
C265 C 0.15185 0.10947 0.30999 0.0
C266 C 0.17739 0.1151 0.32984 0.0
C267 C 0.16995 0.13361 0.32323 0.0
N268 N 0.16578 0.09991 0.32198 0.0
N269 N 0.15393 0.13007 0.31072 0.0
H270 H 0.14085 0.10178 0.3004 0.0
H271 H 0.19083 0.11281 0.33927 0.0
C272 C 0.16912 0.08701 0.36753 0.0
O273 O 0.15198 0.09615 0.36223 0.0
N274 N 0.17981 0.04264 0.32755 0.0
C275 C 0.17059 0.02631 0.31903 0.0
C276 C 0.18118 0.00897 0.32471 0.0
C277 C 0.1959 0.03519 0.33809 0.0
N278 N 0.19715 0.01455 0.33668 0.0
C279 C 0.1305 0.06377 0.31367 0.0
C280 C 0.11773 0.04791 0.35077 0.0
C281 C 0.10362 0.04882 0.33455 0.0
C282 C 0.11041 0.05676 0.31575 0.0
C283 C 0.13782 0.05487 0.34793 0.0
N284 N 0.14381 0.0635 0.32979 0.0
H285 H 0.13555 0.06856 0.2987 0.0
H286 H 0.14866 0.05258 0.36019 0.0
H287 H 0.15715 0.02696 0.30937 0.0
H288 H 0.20663 0.04481 0.34626 0.0
O289 O 0.17302 0.06839 0.29524 0.0
O290 O 0.19949 0.07704 0.31464 0.0
O291 O 0.17838 0.07532 0.35484 0.0
C292 C 0.19219 0.07375 0.29639 0.0
H293 H 0.17647 0.14849 0.32657 0.0
H294 H 0.17722 0.99345 0.32046 0.0
H295 H 0.11345 0.04164 0.36552 0.0
H296 H 0.10055 0.05688 0.30242 0.0
Co297 Co 0.57132 0.33426 0.1821 0.0
C298 C 0.60942 0.3557 0.19634 0.0
C299 C 0.61557 0.33002 0.17686 0.0
C300 C 0.63394 0.33783 0.18352 0.0
N301 N 0.60014 0.34148 0.18446 0.0
N302 N 0.63005 0.35394 0.19583 0.0
H303 H 0.6015 0.36661 0.20581 0.0
H304 H 0.61357 0.31637 0.16768 0.0
C305 C 0.58682 0.33605 0.1391 0.0
O306 O 0.59562 0.35359 0.14362 0.0
N307 N 0.54305 0.32625 0.17987 0.0
C308 C 0.5267 0.33543 0.18842 0.0
C309 C 0.50941 0.32458 0.18306 0.0
C310 C 0.53566 0.30993 0.16964 0.0
N311 N 0.51505 0.3085 0.17126 0.0
C312 C 0.56364 0.37658 0.19121 0.0
C313 C 0.54607 0.3869 0.15411 0.0
C314 C 0.54725 0.40185 0.16951 0.0
C315 C 0.55614 0.39638 0.18828 0.0
C316 C 0.55384 0.36722 0.15769 0.0
N317 N 0.56322 0.36242 0.17582 0.0
H318 H 0.56881 0.37241 0.20632 0.0
H319 H 0.55148 0.35567 0.1461 0.0
H320 H 0.52729 0.34906 0.19781 0.0
H321 H 0.5453 0.29921 0.16148 0.0
O322 O 0.56889 0.33497 0.21165 0.0
O323 O 0.5778 0.30772 0.19343 0.0
O324 O 0.57554 0.32701 0.15231 0.0
C325 C 0.57449 0.31583 0.21134 0.0
H326 H 0.64894 0.33148 0.1804 0.0
H327 H 0.49389 0.32849 0.18736 0.0
H328 H 0.53893 0.39024 0.13951 0.0
H329 H 0.55651 0.40705 0.20099 0.0
Co330 Co 0.8335 0.93428 0.32568 0.0
C331 C 0.8556 0.89676 0.31102 0.0
C332 C 0.83039 0.88995 0.33092 0.0
C333 C 0.83853 0.87179 0.32406 0.0
N334 N 0.84133 0.90566 0.32313 0.0
N335 N 0.85434 0.87608 0.3115 0.0
H336 H 0.86625 0.905 0.3015 0.0
H337 H 0.81689 0.89162 0.34039 0.0
C338 C 0.83765 0.91875 0.36855 0.0
O339 O 0.85499 0.91 0.36322 0.0
N340 N 0.82498 0.96242 0.32802 0.0
C341 C 0.83106 0.9781 0.31605 0.0
C342 C 0.81964 0.99514 0.321 0.0
C343 C 0.81011 0.97005 0.34016 0.0
N344 N 0.80656 0.99002 0.33615 0.0
C345 C 0.87464 0.94371 0.3136 0.0
C346 C 0.88753 0.95993 0.35052 0.0
C347 C 0.90101 0.96007 0.33383 0.0
C348 C 0.89432 0.95189 0.31518 0.0
C349 C 0.86778 0.95189 0.34817 0.0
N350 N 0.86176 0.94314 0.33009 0.0
H351 H 0.86954 0.93858 0.29876 0.0
H352 H 0.85718 0.95356 0.36072 0.0
H353 H 0.84253 0.97703 0.30413 0.0
H354 H 0.80143 0.96099 0.35101 0.0
O355 O 0.83229 0.93634 0.2961 0.0
O356 O 0.80649 0.92701 0.31608 0.0
O357 O 0.82807 0.93016 0.35586 0.0
C358 C 0.81335 0.93034 0.29767 0.0
H359 H 0.83258 0.85664 0.32725 0.0
H360 H 0.82065 0.01008 0.31385 0.0
H361 H 0.89189 0.96681 0.36498 0.0
H362 H 0.90413 0.9521 0.30178 0.0
Co363 Co 0.43293 0.67127 0.18192 0.0
C364 C 0.39653 0.64944 0.1982 0.0
C365 C 0.3887 0.67234 0.17587 0.0
C366 C 0.37096 0.66333 0.18269 0.0
N367 N 0.40469 0.66349 0.18541 0.0
N368 N 0.37587 0.64895 0.19671 0.0
H369 H 0.40546 0.63994 0.20845 0.0
H370 H 0.38981 0.68492 0.16517 0.0
C371 C 0.43762 0.67729 0.13581 0.0
O372 O 0.45682 0.67127 0.13591 0.0
N373 N 0.46124 0.67967 0.17836 0.0
C374 C 0.47849 0.66937 0.18326 0.0
C375 C 0.49516 0.68061 0.17703 0.0
C376 C 0.46776 0.69742 0.16987 0.0
N377 N 0.48839 0.69815 0.16853 0.0
C378 C 0.44781 0.63179 0.19371 0.0
C379 C 0.44388 0.61239 0.15632 0.0
C380 C 0.4538 0.60209 0.17238 0.0
C381 C 0.45503 0.61184 0.19144 0.0
C382 C 0.43685 0.6325 0.15926 0.0
N383 N 0.44004 0.64244 0.17745 0.0
H384 H 0.44947 0.63896 0.20848 0.0
H385 H 0.42891 0.63982 0.14681 0.0
H386 H 0.4793 0.65468 0.1907 0.0
H387 H 0.45759 0.70905 0.16384 0.0
O388 O 0.43621 0.67268 0.2114 0.0
O389 O 0.42634 0.69843 0.19168 0.0
O390 O 0.42685 0.67672 0.15214 0.0
C391 C 0.43029 0.69165 0.20999 0.0
H392 H 0.35556 0.66759 0.17824 0.0
H393 H 0.51108 0.67617 0.17849 0.0
H394 H 0.44204 0.6052 0.14148 0.0
H395 H 0.46183 0.6042 0.20452 0.0
Co396 Co 0.17187 0.93442 0.68187 0.0
C397 C 0.14861 0.89722 0.69487 0.0
C398 C 0.17306 0.8903 0.6741 0.0
C399 C 0.16442 0.87219 0.68046 0.0
N400 N 0.16289 0.90607 0.68276 0.0
N401 N 0.1491 0.87655 0.6936 0.0
H402 H 0.13868 0.90549 0.70513 0.0
H403 H 0.18654 0.89182 0.66459 0.0
C404 C 0.16987 0.92139 0.63759 0.0
O405 O 0.15181 0.91303 0.64064 0.0
N406 N 0.18144 0.96233 0.68112 0.0
C407 C 0.17607 0.97761 0.69391 0.0
C408 C 0.18776 0.99461 0.68937 0.0
C409 C 0.19615 0.97016 0.6689 0.0
N410 N 0.20027 0.98985 0.67362 0.0
C411 C 0.13071 0.94478 0.69294 0.0
C412 C 0.11931 0.96234 0.65614 0.0
C413 C 0.10531 0.96227 0.67241 0.0
C414 C 0.11126 0.95343 0.691 0.0
C415 C 0.13883 0.95382 0.65885 0.0
N416 N 0.1441 0.94442 0.67685 0.0
H417 H 0.1352 0.93905 0.70775 0.0
H418 H 0.14985 0.95557 0.64668 0.0
H419 H 0.16477 0.97634 0.70597 0.0
H420 H 0.20422 0.96146 0.65731 0.0
O421 O 0.17212 0.93508 0.7116 0.0
O422 O 0.19823 0.92577 0.69204 0.0
O423 O 0.17858 0.93153 0.65188 0.0
C424 C 0.19093 0.92857 0.71036 0.0
H425 H 0.16983 0.85698 0.67668 0.0
H426 H 0.18718 0.00929 0.69706 0.0
H427 H 0.11552 0.96969 0.64175 0.0
H428 H 0.10104 0.95341 0.70408 0.0
Co429 Co 0.43376 0.33426 0.8249 0.0
C430 C 0.39613 0.3569 0.81195 0.0
C431 C 0.38966 0.33212 0.83248 0.0
C432 C 0.37139 0.34045 0.82615 0.0
N433 N 0.40524 0.34268 0.82396 0.0
N434 N 0.37547 0.35598 0.81317 0.0
H435 H 0.40422 0.36711 0.80184 0.0
H436 H 0.39143 0.3186 0.8419 0.0
C437 C 0.42061 0.33603 0.86909 0.0
O438 O 0.412 0.35396 0.86594 0.0
N439 N 0.46183 0.32522 0.82571 0.0
C440 C 0.4771 0.33108 0.81312 0.0
C441 C 0.49428 0.31966 0.81763 0.0
C442 C 0.46984 0.31049 0.83777 0.0
N443 N 0.48964 0.30682 0.83314 0.0
C444 C 0.44333 0.3757 0.81416 0.0
C445 C 0.46093 0.38701 0.85097 0.0
C446 C 0.46061 0.40113 0.83482 0.0
C447 C 0.45174 0.39523 0.81622 0.0
C448 C 0.45264 0.36741 0.84813 0.0
N449 N 0.44322 0.36217 0.83013 0.0
H450 H 0.43764 0.37124 0.79932 0.0
H451 H 0.45463 0.3563 0.86018 0.0
H452 H 0.4757 0.34253 0.80122 0.0
H453 H 0.4612 0.30208 0.84916 0.0
O454 O 0.43457 0.33421 0.79519 0.0
O455 O 0.42567 0.3078 0.81454 0.0
O456 O 0.43085 0.32736 0.85485 0.0
C457 C 0.42843 0.31527 0.79628 0.0
H458 H 0.35628 0.3347 0.82986 0.0
H459 H 0.50901 0.32062 0.81006 0.0
H460 H 0.46832 0.39076 0.86534 0.0
H461 H 0.45158 0.40556 0.80322 0.0
Co462 Co 0.8333 0.07221 0.68123 0.0
C463 C 0.85484 0.11016 0.69588 0.0
C464 C 0.82869 0.11646 0.67704 0.0
C465 C 0.83663 0.13477 0.68368 0.0
N466 N 0.84031 0.10098 0.6843 0.0
N467 N 0.85304 0.1308 0.69556 0.0
H468 H 0.86614 0.10214 0.70482 0.0
H469 H 0.81496 0.1145 0.66796 0.0
C470 C 0.83677 0.08875 0.63866 0.0
O471 O 0.85384 0.09795 0.6441 0.0
N472 N 0.8255 0.04394 0.67823 0.0
C473 C 0.8331 0.02774 0.68845 0.0
C474 C 0.82255 0.01049 0.6824 0.0
C475 C 0.81045 0.03649 0.66624 0.0
N476 N 0.80828 0.01599 0.66842 0.0
C477 C 0.87487 0.06394 0.69273 0.0
C478 C 0.88807 0.04914 0.65535 0.0
C479 C 0.90199 0.04957 0.67175 0.0
C480 C 0.89497 0.05692 0.6907 0.0
C481 C 0.86796 0.0561 0.65814 0.0
N482 N 0.86179 0.06427 0.67643 0.0
H483 H 0.86969 0.06846 0.70775 0.0
H484 H 0.85729 0.05426 0.64566 0.0
H485 H 0.84522 0.02848 0.69972 0.0
H486 H 0.8013 0.04596 0.65619 0.0
O487 O 0.83234 0.06946 0.71078 0.0
O488 O 0.80617 0.07854 0.69118 0.0
O489 O 0.82758 0.07684 0.65118 0.0
C490 C 0.81325 0.07506 0.70948 0.0
H491 H 0.83024 0.14979 0.68075 0.0
H492 H 0.82495 0.99518 0.68828 0.0
H493 H 0.89252 0.04331 0.64047 0.0
H494 H 0.90467 0.05665 0.70415 0.0
Co495 Co 0.57252 0.67184 0.82427 0.0
C496 C 0.6103 0.65034 0.80963 0.0
C497 C 0.61679 0.67545 0.82974 0.0
C498 C 0.63505 0.66755 0.82289 0.0
N499 N 0.60122 0.6644 0.82184 0.0
N500 N 0.63095 0.6518 0.81019 0.0
H501 H 0.60219 0.63977 0.79991 0.0
H502 H 0.61497 0.68894 0.8392 0.0
C503 C 0.58783 0.67055 0.86778 0.0
O504 O 0.59684 0.65288 0.86427 0.0
N505 N 0.54432 0.68007 0.82676 0.0
C506 C 0.52746 0.67029 0.81995 0.0
C507 C 0.51045 0.68126 0.82603 0.0
C508 C 0.53748 0.69691 0.83651 0.0
N509 N 0.51686 0.69799 0.83636 0.0
C510 C 0.56428 0.62997 0.8141 0.0
C511 C 0.54904 0.61794 0.8517 0.0
C512 C 0.5496 0.60354 0.83571 0.0
C513 C 0.55719 0.60998 0.81665 0.0
C514 C 0.55611 0.63794 0.8484 0.0
N515 N 0.56442 0.64356 0.82999 0.0
H516 H 0.56887 0.63469 0.79897 0.0
H517 H 0.55416 0.649 0.86052 0.0
H518 H 0.5275 0.6561 0.81139 0.0
H519 H 0.54741 0.7079 0.844 0.0
O520 O 0.57005 0.67187 0.79465 0.0
O521 O 0.57921 0.69852 0.81355 0.0
O522 O 0.57669 0.67886 0.85402 0.0
C523 C 0.57578 0.69096 0.79545 0.0
H524 H 0.65013 0.67364 0.82614 0.0
H525 H 0.49462 0.67732 0.82303 0.0
H526 H 0.54301 0.61393 0.86662 0.0
H527 H 0.55701 0.5999 0.80348 0.0
Co528 Co 0.32453 0.17173 0.07159 0.0
C529 C 0.31006 0.15007 0.10949 0.0
C530 C 0.32925 0.17593 0.11585 0.0
C531 C 0.3226 0.16795 0.13415 0.0
N532 N 0.32179 0.1645 0.10034 0.0
N533 N 0.31049 0.15171 0.13014 0.0
H534 H 0.30086 0.13901 0.10143 0.0
H535 H 0.33837 0.18963 0.11395 0.0
C536 C 0.36771 0.17009 0.08748 0.0
O537 O 0.3636 0.15274 0.09685 0.0
N538 N 0.32733 0.17979 0.04334 0.0
C539 C 0.32041 0.17004 0.02652 0.0
C540 C 0.32672 0.18081 0.00946 0.0
C541 C 0.3374 0.19643 0.03643 0.0
N542 N 0.33732 0.1974 0.01579 0.0
C543 C 0.31429 0.12981 0.06337 0.0
C544 C 0.35203 0.11778 0.04849 0.0
C545 C 0.33603 0.1034 0.04882 0.0
C546 C 0.3169 0.10982 0.05625 0.0
C547 C 0.34867 0.13776 0.05553 0.0
N548 N 0.3302 0.14339 0.06367 0.0
H549 H 0.29913 0.13456 0.06788 0.0
H550 H 0.36082 0.1488 0.05368 0.0
H551 H 0.3116 0.15601 0.02661 0.0
H552 H 0.34501 0.20736 0.04632 0.0
O553 O 0.29494 0.1719 0.06887 0.0
O554 O 0.31392 0.19851 0.07802 0.0
O555 O 0.3543 0.17852 0.07599 0.0
C556 C 0.29581 0.19102 0.07449 0.0
H557 H 0.32565 0.17423 0.14919 0.0
H558 H 0.32366 0.17684 0.99365 0.0
H559 H 0.36703 0.11379 0.04265 0.0
H560 H 0.30374 0.09973 0.05593 0.0
Co561 Co 0.32685 0.8337 0.93462 0.0
C562 C 0.3122 0.85545 0.89689 0.0
C563 C 0.33298 0.83087 0.89043 0.0
C564 C 0.32611 0.83871 0.87217 0.0
N565 N 0.32466 0.84161 0.906 0.0
N566 N 0.31299 0.85413 0.87622 0.0
H567 H 0.30213 0.8657 0.905 0.0
H568 H 0.34269 0.81756 0.89225 0.0
C569 C 0.37052 0.83619 0.91995 0.0
O570 O 0.36675 0.85395 0.91124 0.0
N571 N 0.32913 0.82498 0.96271 0.0
C572 C 0.31865 0.83193 0.97906 0.0
C573 C 0.3248 0.82098 0.99608 0.0
C574 C 0.3414 0.81001 0.96985 0.0
N575 N 0.33915 0.80727 0.99021 0.0
C576 C 0.31598 0.87526 0.94366 0.0
C577 C 0.35304 0.88699 0.96044 0.0
C578 C 0.33681 0.90102 0.96026 0.0
C579 C 0.31808 0.89492 0.9518 0.0
C580 C 0.35017 0.86729 0.95243 0.0
N581 N 0.33203 0.86182 0.94345 0.0
H582 H 0.30107 0.87062 0.93834 0.0
H583 H 0.36232 0.85627 0.95434 0.0
H584 H 0.30732 0.84402 0.97862 0.0
H585 H 0.35145 0.80098 0.96023 0.0
O586 O 0.29721 0.83327 0.93664 0.0
O587 O 0.3166 0.80698 0.92736 0.0
O588 O 0.35675 0.8273 0.93062 0.0
C589 C 0.29836 0.81428 0.93065 0.0
H590 H 0.32962 0.83273 0.8571 0.0
H591 H 0.31929 0.82309 0.01158 0.0
H592 H 0.36753 0.89089 0.96753 0.0
H593 H 0.30502 0.90517 0.95176 0.0
Co594 Co 0.33325 0.18015 0.57194 0.0
C595 C 0.35487 0.19482 0.60974 0.0
C596 C 0.32967 0.17481 0.61621 0.0
C597 C 0.33755 0.18164 0.63447 0.0
N598 N 0.34077 0.18267 0.60064 0.0
N599 N 0.35336 0.19428 0.6304 0.0
H600 H 0.36554 0.20444 0.60165 0.0
H601 H 0.31621 0.16531 0.61436 0.0
C602 C 0.33715 0.13729 0.58748 0.0
O603 O 0.35452 0.14259 0.59618 0.0
N604 N 0.325 0.17783 0.54372 0.0
C605 C 0.3312 0.18979 0.52809 0.0
C606 C 0.31994 0.18481 0.51095 0.0
C607 C 0.31022 0.16566 0.53598 0.0
N608 N 0.30684 0.16964 0.51598 0.0
C609 C 0.3747 0.19177 0.56325 0.0
C610 C 0.38745 0.15477 0.54715 0.0
C611 C 0.40145 0.17111 0.54778 0.0
C612 C 0.39465 0.18986 0.55579 0.0
C613 C 0.36749 0.15744 0.55456 0.0
N614 N 0.36156 0.1755 0.56339 0.0
H615 H 0.36964 0.20668 0.5682 0.0
H616 H 0.35673 0.14507 0.55257 0.0
H617 H 0.34265 0.20172 0.52925 0.0
H618 H 0.30148 0.1548 0.54497 0.0
O619 O 0.3323 0.20974 0.56982 0.0
O620 O 0.30624 0.19001 0.57893 0.0
O621 O 0.32758 0.15001 0.57608 0.0
C622 C 0.31329 0.20836 0.57567 0.0
H623 H 0.33142 0.1784 0.64954 0.0
H624 H 0.32107 0.19194 0.49601 0.0
H625 H 0.39173 0.14006 0.54081 0.0
H626 H 0.40439 0.20329 0.55569 0.0
Co627 Co 0.67953 0.17203 0.93401 0.0
C628 C 0.69404 0.15033 0.8961 0.0
C629 C 0.67487 0.17621 0.88973 0.0
C630 C 0.68157 0.16826 0.87144 0.0
N631 N 0.68229 0.16475 0.90525 0.0
N632 N 0.69367 0.15202 0.87544 0.0
H633 H 0.70321 0.13924 0.90416 0.0
H634 H 0.66571 0.18989 0.89163 0.0
C635 C 0.63685 0.16876 0.91791 0.0
O636 O 0.64209 0.15146 0.90903 0.0
N637 N 0.677 0.18002 0.9623 0.0
C638 C 0.68873 0.1735 0.97797 0.0
C639 C 0.68368 0.18458 0.99521 0.0
C640 C 0.66488 0.19481 0.97012 0.0
N641 N 0.66868 0.19789 0.99021 0.0
C642 C 0.69058 0.13036 0.94253 0.0
C643 C 0.65322 0.11805 0.95813 0.0
C644 C 0.66939 0.10386 0.95772 0.0
C645 C 0.68833 0.11042 0.94994 0.0
C646 C 0.65624 0.13798 0.95082 0.0
N647 N 0.67448 0.1437 0.94225 0.0
H648 H 0.70561 0.13524 0.93773 0.0
H649 H 0.64398 0.14889 0.95272 0.0
H650 H 0.70055 0.16194 0.97679 0.0
H651 H 0.65418 0.20376 0.96114 0.0
O652 O 0.70911 0.17267 0.93644 0.0
O653 O 0.68968 0.19899 0.92741 0.0
O654 O 0.64951 0.17805 0.9296 0.0
C655 C 0.70793 0.19176 0.9308 0.0
H656 H 0.67857 0.17458 0.8564 0.0
H657 H 0.69063 0.18316 0.01021 0.0
H658 H 0.63836 0.11396 0.96424 0.0
H659 H 0.70163 0.1005 0.95019 0.0
Co660 Co 0.6727 0.82449 0.57156 0.0
C661 C 0.65039 0.81069 0.60917 0.0
C662 C 0.67554 0.83071 0.61582 0.0
C663 C 0.66733 0.82407 0.63403 0.0
N664 N 0.66467 0.8227 0.60017 0.0
N665 N 0.65157 0.81141 0.62984 0.0
H666 H 0.63987 0.80097 0.60098 0.0
H667 H 0.68908 0.8401 0.61408 0.0
C668 C 0.6697 0.86805 0.58598 0.0
O669 O 0.65242 0.86364 0.59534 0.0
N670 N 0.68137 0.82609 0.54342 0.0
C671 C 0.67542 0.81382 0.52793 0.0
C672 C 0.68679 0.81863 0.5108 0.0
C673 C 0.69612 0.83825 0.5356 0.0
N674 N 0.69971 0.83399 0.51569 0.0
C675 C 0.63146 0.81281 0.56211 0.0
C676 C 0.61895 0.84977 0.54567 0.0
C677 C 0.60527 0.83325 0.54568 0.0
C678 C 0.61177 0.81457 0.55396 0.0
C679 C 0.6387 0.84725 0.55367 0.0
N680 N 0.64454 0.82915 0.56252 0.0
H681 H 0.63638 0.79796 0.56738 0.0
H682 H 0.64943 0.85967 0.55188 0.0
H683 H 0.66401 0.80187 0.52917 0.0
H684 H 0.70466 0.84936 0.54446 0.0
O685 O 0.67351 0.79483 0.57018 0.0
O686 O 0.69954 0.81466 0.57915 0.0
O687 O 0.67867 0.85461 0.57494 0.0
C688 C 0.69246 0.79627 0.57618 0.0
H689 H 0.67324 0.82742 0.64916 0.0
H690 H 0.6858 0.8113 0.49595 0.0
H691 H 0.61473 0.86424 0.53871 0.0
H692 H 0.6018 0.8013 0.55389 0.0
Co693 Co 0.68053 0.83468 0.07261 0.0
C694 C 0.69405 0.85608 0.11089 0.0
C695 C 0.67418 0.83062 0.11672 0.0
C696 C 0.68055 0.83842 0.13519 0.0
N697 N 0.68226 0.84193 0.10143 0.0
N698 N 0.69311 0.8544 0.13152 0.0
H699 H 0.70374 0.86689 0.10307 0.0
H700 H 0.66492 0.81705 0.11456 0.0
C701 C 0.63681 0.83634 0.08694 0.0
O702 O 0.64053 0.85391 0.09604 0.0
N703 N 0.6788 0.82669 0.04427 0.0
C704 C 0.6869 0.83638 0.02795 0.0
C705 C 0.68132 0.8259 0.01049 0.0
C706 C 0.66875 0.81033 0.03668 0.0
N707 N 0.66998 0.80954 0.01606 0.0
C708 C 0.69084 0.87659 0.06457 0.0
C709 C 0.65384 0.88806 0.0475 0.0
C710 C 0.66993 0.90224 0.04791 0.0
C711 C 0.68862 0.89629 0.05656 0.0
C712 C 0.65683 0.86834 0.05538 0.0
N713 N 0.67496 0.86296 0.06445 0.0
H714 H 0.70578 0.87204 0.06991 0.0
H715 H 0.64484 0.85721 0.05316 0.0
H716 H 0.69606 0.85016 0.02866 0.0
H717 H 0.66038 0.79948 0.04603 0.0
O718 O 0.71018 0.83475 0.07084 0.0
O719 O 0.69117 0.80797 0.07939 0.0
O720 O 0.65065 0.82772 0.0761 0.0
C721 C 0.70932 0.81562 0.0764 0.0
H722 H 0.67709 0.8321 0.15013 0.0
H723 H 0.68541 0.8299 0.99491 0.0
H724 H 0.6394 0.89186 0.04024 0.0
H725 H 0.70157 0.90666 0.05677 0.0
Co726 Co 0.33383 0.82374 0.43514 0.0
C727 C 0.35528 0.80997 0.3969 0.0
C728 C 0.32942 0.82929 0.39096 0.0
C729 C 0.3373 0.8229 0.37252 0.0
N730 N 0.34091 0.82156 0.4063 0.0
N731 N 0.35354 0.8107 0.37627 0.0
H732 H 0.36636 0.80064 0.40477 0.0
H733 H 0.31573 0.8384 0.39307 0.0
C734 C 0.3356 0.86718 0.42008 0.0
O735 O 0.35289 0.86314 0.41057 0.0
N736 N 0.32598 0.82596 0.46349 0.0
C737 C 0.33571 0.81823 0.47997 0.0
C738 C 0.32525 0.82421 0.49732 0.0
C739 C 0.30964 0.83618 0.47089 0.0
N740 N 0.30888 0.83543 0.49153 0.0
C741 C 0.37569 0.8131 0.44295 0.0
C742 C 0.38811 0.85045 0.45848 0.0
C743 C 0.40236 0.83433 0.45772 0.0
C744 C 0.39574 0.81541 0.44998 0.0
C745 C 0.36805 0.84738 0.45149 0.0
N746 N 0.36224 0.82912 0.44302 0.0
H747 H 0.37081 0.79806 0.43821 0.0
H748 H 0.35712 0.85958 0.45363 0.0
H749 H 0.34951 0.80908 0.47943 0.0
H750 H 0.29879 0.84437 0.46137 0.0
O751 O 0.3336 0.79412 0.43725 0.0
O752 O 0.30697 0.81332 0.42864 0.0
O753 O 0.32715 0.85362 0.43137 0.0
C754 C 0.31446 0.79513 0.43174 0.0
H755 H 0.33093 0.82616 0.35756 0.0
H756 H 0.32929 0.82049 0.51298 0.0
H757 H 0.39226 0.86527 0.46464 0.0
H758 H 0.40571 0.80216 0.44998 0.0
Co759 Co 0.67204 0.18103 0.43453 0.0
C760 C 0.65156 0.19649 0.39641 0.0
C761 C 0.67714 0.17679 0.39039 0.0
C762 C 0.67045 0.18472 0.37209 0.0
N763 N 0.6652 0.18393 0.40569 0.0
N764 N 0.65442 0.19713 0.37592 0.0
H765 H 0.6408 0.20618 0.40433 0.0
H766 H 0.69052 0.16724 0.39254 0.0
C767 C 0.66846 0.13842 0.4183 0.0
O768 O 0.65145 0.14394 0.40904 0.0
N769 N 0.67967 0.17834 0.46289 0.0
C770 C 0.67304 0.18999 0.47857 0.0
C771 C 0.68415 0.18499 0.49581 0.0
C772 C 0.69455 0.16633 0.47069 0.0
N773 N 0.69758 0.17011 0.49078 0.0
C774 C 0.63054 0.19281 0.44263 0.0
C775 C 0.61748 0.15583 0.45861 0.0
C776 C 0.60395 0.17248 0.45854 0.0
C777 C 0.6107 0.19114 0.45043 0.0
C778 C 0.63738 0.15826 0.45095 0.0
N779 N 0.64353 0.1764 0.4424 0.0
H780 H 0.63568 0.20768 0.43766 0.0
H781 H 0.64801 0.14575 0.45283 0.0
H782 H 0.66146 0.20179 0.47738 0.0
H783 H 0.70366 0.1558 0.46167 0.0
O784 O 0.67305 0.21059 0.43702 0.0
O785 O 0.69924 0.19087 0.42827 0.0
O786 O 0.6777 0.15094 0.43018 0.0
C787 C 0.69217 0.20921 0.43156 0.0
H788 H 0.67731 0.18215 0.35721 0.0
H789 H 0.68272 0.19195 0.5108 0.0
H790 H 0.61306 0.14136 0.46543 0.0
H791 H 0.60084 0.20449 0.45046 0.0
C792 C 0.15894 0.50839 0.2735 0.0
C793 C 0.15886 0.50228 0.29415 0.0
C794 C 0.1498 0.4961 0.2585 0.0
C795 C 0.11008 0.45778 0.2508 0.0
H796 H 0.14202 0.43923 0.20427 0.0
C797 C 0.08501 0.38913 0.20198 0.0
C798 C 0.0909 0.38779 0.1813 0.0
C799 C 0.09161 0.40538 0.21419 0.0
C800 C 0.13266 0.4446 0.21687 0.0
H801 H 0.1489 0.47883 0.31539 0.0
H802 H 0.13249 0.45753 0.28921 0.0
H803 H 0.157 0.46332 0.22862 0.0
H804 H 0.10744 0.40315 0.15695 0.0
H805 H 0.11836 0.43204 0.17808 0.0
H806 H 0.0856 0.43949 0.2391 0.0
C807 C 0.13981 0.47171 0.28463 0.0
C808 C 0.14134 0.4583 0.23088 0.0
C809 C 0.1493 0.48378 0.29956 0.0
C810 C 0.10273 0.40366 0.17285 0.0
C811 C 0.10915 0.42013 0.18505 0.0
C812 C 0.10125 0.44439 0.23662 0.0
C813 C 0.14003 0.47773 0.26397 0.0
C814 C 0.13028 0.46465 0.2482 0.0
C815 C 0.10405 0.42097 0.20602 0.0
C816 C 0.11258 0.43719 0.21971 0.0
H817 H 0.16633 0.52252 0.26895 0.0
H818 H 0.15014 0.50106 0.24266 0.0
H819 H 0.10114 0.46271 0.2639 0.0
H820 H 0.07598 0.37715 0.20909 0.0
H821 H 0.08762 0.40516 0.23028 0.0
C822 C 0.98151 0.34503 0.20926 0.0
C823 C 1.00281 0.34448 0.21247 0.0
C824 C 0.96854 0.35437 0.2235 0.0
C825 C 0.96591 0.37148 0.27758 0.0
H826 H 0.91863 0.40151 0.25784 0.0
C827 C 0.89778 0.39424 0.32957 0.0
C828 C 0.88689 0.41222 0.32494 0.0
C829 C 0.91392 0.38777 0.31703 0.0
C830 C 0.93191 0.39347 0.26368 0.0
H831 H 0.02703 0.35329 0.23352 0.0
H832 H 0.00449 0.37008 0.25798 0.0
H833 H 0.94267 0.38703 0.23343 0.0
H834 H 0.88533 0.43831 0.30441 0.0
H835 H 0.91382 0.42739 0.28294 0.0
H836 H 0.95528 0.37827 0.30787 0.0
C837 C 0.99779 0.36301 0.24454 0.0
C838 C 0.94555 0.38486 0.24963 0.0
C839 C 0.01077 0.35357 0.23034 0.0
C840 C 0.89327 0.42425 0.30826 0.0
C841 C 0.90951 0.4179 0.29585 0.0
C842 C 0.9523 0.3802 0.29166 0.0
C843 C 0.97651 0.36354 0.24129 0.0
C844 C 0.96259 0.37353 0.25637 0.0
C845 C 0.91963 0.39926 0.29969 0.0
C846 C 0.935 0.39114 0.28489 0.0
H847 H 0.97477 0.33842 0.19565 0.0
H848 H 0.9522 0.35421 0.22062 0.0
H849 H 0.97878 0.36273 0.28333 0.0
H850 H 0.89318 0.38458 0.34226 0.0
H851 H 0.92122 0.37326 0.32039 0.0
C852 C 0.85705 0.5209 0.29885 0.0
C853 C 0.8477 0.50236 0.29322 0.0
C854 C 0.86654 0.5332 0.28411 0.0
C855 C 0.86493 0.54723 0.23056 0.0
H856 H 0.92024 0.56706 0.23925 0.0
C857 C 0.90274 0.60353 0.17349 0.0
C858 C 0.91436 0.61943 0.18219 0.0
C859 C 0.89648 0.58682 0.18545 0.0
C860 C 0.9047 0.56188 0.23664 0.0
H861 H 0.84067 0.48225 0.2678 0.0
H862 H 0.85684 0.50412 0.2418 0.0
H863 H 0.90513 0.54311 0.26361 0.0
H864 H 0.92897 0.62993 0.21017 0.0
H865 H 0.91758 0.60149 0.23097 0.0
H866 H 0.86393 0.56674 0.20427 0.0
C867 C 0.85702 0.50893 0.25769 0.0
C868 C 0.89613 0.54806 0.25057 0.0
C869 C 0.8479 0.49641 0.27252 0.0
C870 C 0.92011 0.61793 0.20289 0.0
C871 C 0.91366 0.60144 0.21486 0.0
C872 C 0.87336 0.56135 0.21681 0.0
C873 C 0.86651 0.52738 0.26339 0.0
C874 C 0.87608 0.54082 0.2478 0.0
C875 C 0.90151 0.58576 0.20642 0.0
C876 C 0.89327 0.56914 0.21983 0.0
H877 H 0.85724 0.52574 0.31472 0.0
H878 H 0.87363 0.54743 0.28886 0.0
H879 H 0.84938 0.54194 0.22817 0.0
H880 H 0.89813 0.60416 0.15756 0.0
H881 H 0.88748 0.57487 0.17828 0.0
C882 C 0.10235 0.6029 0.33316 0.0
C883 C 0.1183 0.5913 0.32453 0.0
C884 C 0.08585 0.60943 0.32107 0.0
C885 C 0.06163 0.60215 0.26939 0.0
H886 H 0.04173 0.65738 0.27857 0.0
C887 C 0.02129 0.6509 0.20758 0.0
C888 C 1.00267 0.66009 0.21321 0.0
C889 C 0.03349 0.64121 0.22227 0.0
C890 C 0.04701 0.64185 0.27598 0.0
H891 H 0.12913 0.57702 0.2965 0.0
H892 H 0.10106 0.58889 0.27545 0.0
H893 H 0.06619 0.64235 0.30251 0.0
H894 H 0.98232 0.66666 0.23857 0.0
H895 H 0.00402 0.65015 0.26448 0.0
H896 H 0.04319 0.60224 0.24219 0.0
C897 C 0.10079 0.59257 0.29162 0.0
C898 C 0.06095 0.63314 0.28975 0.0
C899 C 0.11707 0.58584 0.30373 0.0
C900 C 0.99656 0.65957 0.23385 0.0
C901 C 0.00897 0.65024 0.24864 0.0
C902 C 0.04801 0.61101 0.25544 0.0
C903 C 0.08507 0.60471 0.30001 0.0
C904 C 0.0687 0.61326 0.28649 0.0
C905 C 0.02749 0.64088 0.24294 0.0
C906 C 0.04078 0.63102 0.25848 0.0
H907 H 0.10279 0.60727 0.34917 0.0
H908 H 0.07386 0.6184 0.3282 0.0
H909 H 0.06679 0.58663 0.26658 0.0
H910 H 0.02625 0.65095 0.19175 0.0
H911 H 0.04778 0.63422 0.21752 0.0
C912 C 0.14929 0.52101 0.70744 0.0
C913 C 0.1585 0.50244 0.71318 0.0
C914 C 0.13973 0.53337 0.72208 0.0
C915 C 0.14095 0.54745 0.77561 0.0
H916 H 0.08574 0.56741 0.76656 0.0
C917 C 0.10301 0.60373 0.83251 0.0
C918 C 0.09147 0.61967 0.82379 0.0
C919 C 0.10925 0.58701 0.82056 0.0
C920 C 0.10126 0.5622 0.76926 0.0
H921 H 0.16522 0.48232 0.7387 0.0
H922 H 0.14893 0.5043 0.76451 0.0
H923 H 0.10098 0.54345 0.74228 0.0
H924 H 0.07694 0.63025 0.79579 0.0
H925 H 0.0883 0.60178 0.77499 0.0
H926 H 0.14183 0.56693 0.80191 0.0
C927 C 0.1489 0.50909 0.74862 0.0
C928 C 0.1099 0.54837 0.75539 0.0
C929 C 0.1581 0.49651 0.73389 0.0
C930 C 0.08573 0.6182 0.80308 0.0
C931 C 0.09217 0.6017 0.79112 0.0
C932 C 0.13246 0.56158 0.78931 0.0
C933 C 0.13955 0.52758 0.74281 0.0
C934 C 0.12991 0.54107 0.7583 0.0
C935 C 0.10428 0.58599 0.79957 0.0
C936 C 0.11259 0.56941 0.78617 0.0
H937 H 0.14925 0.52582 0.69156 0.0
H938 H 0.13274 0.54763 0.71725 0.0
H939 H 0.15647 0.54211 0.77811 0.0
H940 H 0.10759 0.60434 0.84845 0.0
H941 H 0.1182 0.57503 0.82775 0.0
C942 C 0.99377 0.35671 0.77646 0.0
C943 C 1.00174 0.34805 0.79454 0.0
C944 C 0.00671 0.36615 0.7622 0.0
C945 C 0.05879 0.38849 0.75699 0.0
H946 H 0.0498 0.38 0.69888 0.0
C947 C 0.11216 0.4256 0.69788 0.0
C948 C 0.11864 0.41301 0.68167 0.0
C949 C 0.09567 0.4198 0.71023 0.0
C950 C 0.05258 0.38247 0.71505 0.0
H951 H 0.02972 0.34294 0.81178 0.0
H952 H 0.05221 0.35869 0.78676 0.0
H953 H 0.02604 0.36519 0.72362 0.0
H954 H 0.11233 0.38492 0.6651 0.0
H955 H 0.08388 0.37453 0.68692 0.0
H956 H 0.0858 0.40488 0.74859 0.0
C957 C 0.0359 0.3585 0.78371 0.0
C958 C 0.0388 0.37417 0.72925 0.0
C959 C 0.02298 0.34917 0.79798 0.0
C960 C 0.10764 0.395 0.67743 0.0
C961 C 0.09127 0.38908 0.68993 0.0
C962 C 0.0726 0.39665 0.74284 0.0
C963 C 0.02795 0.36713 0.76564 0.0
C964 C 0.04189 0.37688 0.75041 0.0
C965 C 0.08542 0.40115 0.70683 0.0
C966 C 0.06979 0.39361 0.72168 0.0
H967 H 0.97756 0.356 0.7731 0.0
H968 H 1.00003 0.3728 0.74855 0.0
H969 H 0.06148 0.39117 0.77314 0.0
H970 H 0.12019 0.43969 0.70141 0.0
H971 H 0.09127 0.42974 0.72277 0.0
C972 C 0.88983 0.39536 0.83072 0.0
C973 C 0.90932 0.38695 0.82706 0.0
C974 C 0.88232 0.4111 0.8183 0.0
C975 C 0.89467 0.45291 0.78418 0.0
H976 H 0.84626 0.43708 0.75362 0.0
C977 C 0.86354 0.50235 0.7174 0.0
C978 C 0.84241 0.50214 0.7135 0.0
C979 C 0.87203 0.48916 0.73202 0.0
C980 C 0.8595 0.44205 0.76227 0.0
H981 H 0.9367 0.38923 0.80838 0.0
H982 H 0.92375 0.41736 0.7871 0.0
H983 H 0.86054 0.41378 0.77894 0.0
H984 H 0.81343 0.4887 0.72224 0.0
H985 H 0.82787 0.46646 0.74847 0.0
H986 H 0.89336 0.48146 0.76819 0.0
C987 C 0.91427 0.41151 0.79941 0.0
C988 C 0.86774 0.42858 0.77669 0.0
C989 C 0.92163 0.39543 0.81154 0.0
C990 C 0.82983 0.48887 0.72477 0.0
C991 C 0.8382 0.47604 0.73972 0.0
C992 C 0.88616 0.46665 0.77007 0.0
C993 C 0.89434 0.41904 0.80233 0.0
C994 C 0.88542 0.43384 0.78769 0.0
C995 C 0.85948 0.47577 0.74341 0.0
C996 C 0.86848 0.46138 0.75881 0.0
H997 H 0.87992 0.38904 0.84244 0.0
H998 H 0.86691 0.41674 0.82082 0.0
H999 H 0.90832 0.45727 0.79256 0.0
H1000 H 0.87354 0.51239 0.70876 0.0
H1001 H 0.88849 0.48923 0.73404 0.0
C1002 C 0.98309 0.65266 0.80184 0.0
C1003 C 1.00179 0.66126 0.79566 0.0
C1004 C 0.97013 0.64341 0.78754 0.0
C1005 C 0.96863 0.62299 0.73399 0.0
H1006 H 0.91001 0.62711 0.74272 0.0
C1007 C 0.90401 0.60245 0.67486 0.0
C1008 C 0.88822 0.5901 0.68279 0.0
C1009 C 0.91954 0.60984 0.68773 0.0
C1010 C 0.92636 0.62577 0.74016 0.0
H1011 H 0.02155 0.66716 0.7697 0.0
H1012 H 0.99861 0.65177 0.74449 0.0
H1013 H 0.93332 0.64344 0.76674 0.0
H1014 H 0.87706 0.57495 0.71028 0.0
H1015 H 0.90384 0.58814 0.73257 0.0
H1016 H 0.96126 0.60587 0.70683 0.0
C1017 C 0.99415 0.65154 0.76046 0.0
C1018 C 0.93978 0.635 0.754 0.0
C1019 C 0.00728 0.66047 0.77487 0.0
C1020 C 0.88888 0.58449 0.7036 0.0
C1021 C 0.90417 0.5921 0.71645 0.0
C1022 C 0.95512 0.61405 0.71991 0.0
C1023 C 0.97535 0.64289 0.76659 0.0
C1024 C 0.96113 0.63353 0.7513 0.0
C1025 C 0.91934 0.60522 0.70875 0.0
C1026 C 0.93388 0.61515 0.72304 0.0
H1027 H 0.97867 0.65277 0.81783 0.0
H1028 H 0.95609 0.63648 0.79302 0.0
H1029 H 0.98493 0.62127 0.73149 0.0
H1030 H 0.90397 0.60702 0.6589 0.0
H1031 H 0.93112 0.61995 0.68146 0.0
C1032 C 0.17559 0.11217 0.39562 0.0
C1033 C 0.17967 0.09302 0.38665 0.0
C1034 C 0.18784 0.1195 0.41156 0.0
C1035 C 0.22211 0.10717 0.4531 0.0
H1036 H 0.25198 0.1562 0.43788 0.0
C1037 C 0.28795 0.13946 0.5033 0.0
C1038 C 0.29149 0.16065 0.50302 0.0
C1039 C 0.27352 0.13068 0.49008 0.0
C1040 C 0.24351 0.14279 0.44269 0.0
H1041 H 0.19897 0.06601 0.38816 0.0
H1042 H 0.22 0.07866 0.41663 0.0
H1043 H 0.22709 0.14171 0.41429 0.0
H1044 H 0.28218 0.18945 0.4896 0.0
H1045 H 0.25625 0.17453 0.46738 0.0
H1046 H 0.23785 0.10854 0.48181 0.0
C1047 C 0.20746 0.088 0.41105 0.0
C1048 C 0.22935 0.13442 0.42904 0.0
C1049 C 0.19548 0.08082 0.39478 0.0
C1050 C 0.27995 0.17302 0.48979 0.0
C1051 C 0.26518 0.16437 0.47696 0.0
C1052 C 0.23596 0.11582 0.46704 0.0
C1053 C 0.2041 0.10764 0.41914 0.0
C1054 C 0.21859 0.11654 0.43409 0.0
C1055 C 0.26195 0.14301 0.47662 0.0
C1056 C 0.24693 0.13376 0.46201 0.0
H1057 H 0.16363 0.12199 0.38961 0.0
H1058 H 0.18499 0.13469 0.41763 0.0
H1059 H 0.21391 0.09336 0.45729 0.0
H1060 H 0.29679 0.12965 0.51335 0.0
H1061 H 0.27181 0.11419 0.49014 0.0
C1062 C 0.58056 0.30887 0.11268 0.0
C1063 C 0.59272 0.32499 0.12023 0.0
C1064 C 0.58757 0.29662 0.09652 0.0
C1065 C 0.63339 0.27436 0.07811 0.0
H1066 H 0.60787 0.26688 0.02501 0.0
C1067 C 0.67202 0.22429 0.01691 0.0
C1068 C 0.6597 0.21313 0.00332 0.0
C1069 C 0.66338 0.23889 0.02994 0.0
C1070 C 0.61504 0.26847 0.03987 0.0
H1071 H 0.62147 0.34122 0.11644 0.0
H1072 H 0.63392 0.31938 0.08866 0.0
H1073 H 0.59281 0.29073 0.04971 0.0
H1074 H 0.62875 0.20834 0.99258 0.0
H1075 H 0.61329 0.23304 0.0161 0.0
H1076 H 0.65495 0.25154 0.06917 0.0
C1077 C 0.61887 0.31652 0.09505 0.0
C1078 C 0.60646 0.28227 0.05391 0.0
C1079 C 0.61168 0.32904 0.11087 0.0
C1080 C 0.63854 0.21688 1.00289 0.0
C1081 C 0.62976 0.23116 0.0163 0.0
C1082 C 0.64169 0.26025 0.06435 0.0
C1083 C 0.60701 0.30004 0.08799 0.0
C1084 C 0.61572 0.28544 0.07304 0.0
C1085 C 0.64205 0.24233 0.03012 0.0
C1086 C 0.6328 0.25721 0.0449 0.0
H1087 H 0.56588 0.3054 0.11962 0.0
H1088 H 0.57825 0.28391 0.09134 0.0
H1089 H 0.6406 0.27637 0.09294 0.0
H1090 H 0.68843 0.22188 0.01724 0.0
H1091 H 0.67353 0.24753 0.0398 0.0
C1092 C 0.72654 0.83088 0.48935 0.0
C1093 C 0.71497 0.84311 0.50269 0.0
C1094 C 0.74132 0.83966 0.47661 0.0
C1095 C 0.77058 0.88833 0.4674 0.0
H1096 H 0.77993 0.86306 0.41444 0.0
C1097 C 0.81135 0.92447 0.39594 0.0
C1098 C 0.8272 0.91245 0.38764 0.0
C1099 C 0.79935 0.91698 0.41206 0.0
C1100 C 0.77754 0.87017 0.42925 0.0
H1101 H 0.70957 0.87405 0.5132 0.0
H1102 H 0.73456 0.88972 0.49018 0.0
H1103 H 0.7549 0.84823 0.43769 0.0
H1104 H 0.8433 0.88348 0.39011 0.0
H1105 H 0.82191 0.87023 0.41787 0.0
H1106 H 0.79264 0.91096 0.45807 0.0
C1107 C 0.73289 0.87322 0.48998 0.0
C1108 C 0.7633 0.86161 0.44271 0.0
C1109 C 0.71844 0.86432 0.5031 0.0
C1110 C 0.83132 0.89316 0.39628 0.0
C1111 C 0.81904 0.88552 0.41207 0.0
C1112 C 0.78452 0.89717 0.45367 0.0
C1113 C 0.74453 0.86102 0.47648 0.0
C1114 C 0.75968 0.87044 0.46208 0.0
C1115 C 0.80273 0.8972 0.41981 0.0
C1116 C 0.78821 0.88803 0.43457 0.0
H1117 H 0.72436 0.81444 0.48905 0.0
H1118 H 0.75029 0.82959 0.46697 0.0
H1119 H 0.76856 0.89545 0.48224 0.0
H1120 H 0.80783 0.93938 0.38955 0.0
H1121 H 0.78678 0.9262 0.41777 0.0
C1122 C 0.34023 0.78421 0.02026 0.0
C1123 C 0.34977 0.79261 1.00289 0.0
C1124 C 0.35043 0.76978 0.03237 0.0
C1125 C 0.40166 0.75199 0.04693 0.0
H1126 H 0.37271 0.70369 0.06586 0.0
C1127 C 0.44041 0.69281 0.10057 0.0
C1128 C 0.42829 0.68619 0.1171 0.0
C1129 C 0.43155 0.70359 0.08422 0.0
C1130 C 0.381 0.71716 0.06084 0.0
H1131 H 0.37765 0.79274 0.98483 0.0
H1132 H 0.39554 0.76761 0.00609 0.0
H1133 H 0.35575 0.72748 0.04259 0.0
H1134 H 0.3972 0.68473 0.12879 0.0
H1135 H 0.38199 0.7037 0.10084 0.0
H1136 H 0.42665 0.74212 0.06573 0.0
C1137 C 0.38012 0.77213 0.01025 0.0
C1138 C 0.37126 0.73077 0.04749 0.0
C1139 C 0.36982 0.78639 0.998 0.0
C1140 C 0.40706 0.68975 0.11645 0.0
C1141 C 0.39826 0.7005 0.10022 0.0
C1142 C 0.41135 0.73846 0.06046 0.0
C1143 C 0.37049 0.7636 0.02752 0.0
C1144 C 0.38136 0.74849 0.04063 0.0
C1145 C 0.4104 0.7079 0.08405 0.0
C1146 C 0.40102 0.72104 0.06787 0.0
H1147 H 0.32475 0.78857 0.02432 0.0
H1148 H 0.3427 0.76363 0.04571 0.0
H1149 H 0.40978 0.76559 0.042 0.0
H1150 H 0.45681 0.69031 0.10059 0.0
H1151 H 0.44133 0.70881 0.07187 0.0
C1152 C 0.30008 0.85336 0.52357 0.0
C1153 C 0.29404 0.84505 0.5047 0.0
C1154 C 0.28575 0.86261 0.53648 0.0
C1155 C 0.23239 0.88352 0.53796 0.0
H1156 H 0.24078 0.87824 0.59654 0.0
C1157 C 0.17372 0.90398 0.60335 0.0
C1158 C 0.18199 0.91619 0.61908 0.0
C1159 C 0.1863 0.89655 0.58759 0.0
C1160 C 0.2383 0.87989 0.5802 0.0
H1161 H 0.26828 0.83981 0.4845 0.0
H1162 H 0.24296 0.85524 0.50737 0.0
H1163 H 0.26464 0.86195 0.57304 0.0
H1164 H 0.20976 0.93109 0.62987 0.0
H1165 H 0.23154 0.91781 0.60272 0.0
H1166 H 0.20544 0.90093 0.54554 0.0
C1167 C 0.25888 0.85519 0.51202 0.0
C1168 C 0.25206 0.87069 0.56668 0.0
C1169 C 0.27334 0.84625 0.49893 0.0
C1170 C 0.20283 0.92165 0.61811 0.0
C1171 C 0.21538 0.914 0.6026 0.0
C1172 C 0.21836 0.89243 0.55158 0.0
C1173 C 0.26487 0.86343 0.53105 0.0
C1174 C 0.24953 0.87262 0.54534 0.0
C1175 C 0.20736 0.901 0.5875 0.0
C1176 C 0.22141 0.89093 0.5728 0.0
H1177 H 0.31601 0.85297 0.52821 0.0
H1178 H 0.29114 0.86927 0.55068 0.0
H1179 H 0.22999 0.88556 0.52167 0.0
H1180 H 0.15774 0.89953 0.60362 0.0
H1181 H 0.1798 0.88652 0.57606 0.0
C1182 C 0.40466 0.33287 0.90406 0.0
C1183 C 0.41601 0.32421 0.88794 0.0
C1184 C 0.39824 0.32077 0.9206 0.0
C1185 C 0.40529 0.26893 0.94456 0.0
H1186 H 0.3501 0.27825 0.9645 0.0
C1187 C 0.3564 0.20705 0.98461 0.0
C1188 C 0.34706 0.21263 0.00317 0.0
C1189 C 0.36615 0.22177 0.97249 0.0
C1190 C 0.36561 0.27561 0.95921 0.0
H1191 H 0.43007 0.29613 0.87694 0.0
H1192 H 0.41842 0.2751 0.9051 0.0
H1193 H 0.36525 0.30228 0.94022 0.0
H1194 H 0.34031 0.23797 0.0235 0.0
H1195 H 0.35695 0.26392 1.00196 0.0
H1196 H 0.40506 0.24161 0.96282 0.0
C1197 C 0.41481 0.29128 0.90544 0.0
C1198 C 0.37439 0.28944 0.94538 0.0
C1199 C 0.42142 0.30339 0.88911 0.0
C1200 C 0.34751 0.23327 0.00931 0.0
C1201 C 0.35691 0.24808 0.99698 0.0
C1202 C 0.39635 0.25494 0.95809 0.0
C1203 C 0.40284 0.29968 0.92127 0.0
C1204 C 0.39426 0.28613 0.9376 0.0
C1205 C 0.36642 0.24243 0.97852 0.0
C1206 C 0.37635 0.25801 0.96533 0.0
H1207 H 0.40033 0.34889 0.90369 0.0
H1208 H 0.3894 0.32791 0.93269 0.0
H1209 H 0.42078 0.26608 0.93937 0.0
H1210 H 0.35641 0.19122 0.97963 0.0
H1211 H 0.37324 0.21705 0.95824 0.0
C1212 C 0.82987 0.11427 0.61099 0.0
C1213 C 0.82621 0.09486 0.61958 0.0
C1214 C 0.81751 0.1216 0.59511 0.0
C1215 C 0.78368 0.10906 0.55321 0.0
H1216 H 0.75262 0.15717 0.56899 0.0
C1217 C 0.71712 0.14026 0.50329 0.0
C1218 C 0.71304 0.16135 0.50378 0.0
C1219 C 0.73173 0.1317 0.51646 0.0
C1220 C 0.76142 0.14402 0.56402 0.0
H1221 H 0.80759 0.06742 0.61747 0.0
H1222 H 0.78641 0.08007 0.58911 0.0
H1223 H 0.77784 0.143 0.59242 0.0
H1224 H 0.72156 0.19022 0.51757 0.0
H1225 H 0.74778 0.17571 0.53973 0.0
H1226 H 0.76792 0.11037 0.52451 0.0
C1227 C 0.79868 0.08962 0.59493 0.0
C1228 C 0.77578 0.13584 0.57758 0.0
C1229 C 0.81075 0.08244 0.61114 0.0
C1230 C 0.7242 0.17385 0.51721 0.0
C1231 C 0.73915 0.16543 0.53 0.0
C1232 C 0.76962 0.11753 0.53937 0.0
C1233 C 0.8016 0.10949 0.58722 0.0
C1234 C 0.78696 0.11827 0.57234 0.0
C1235 C 0.74294 0.14417 0.53009 0.0
C1236 C 0.75821 0.13513 0.5446 0.0
H1237 H 0.84154 0.12426 0.61726 0.0
H1238 H 0.82001 0.13697 0.58935 0.0
H1239 H 0.7922 0.09549 0.54887 0.0
H1240 H 0.70858 0.13035 0.49308 0.0
H1241 H 0.73387 0.11526 0.51621 0.0
C1242 C 0.65271 0.80075 0.98369 0.0
C1243 C 0.66072 0.79468 1.00267 0.0
C1244 C 0.64394 0.78638 0.9705 0.0
C1245 C 0.62392 0.73273 0.96819 0.0
H1246 H 0.63029 0.7417 0.9098 0.0
C1247 C 0.60544 0.67444 0.90191 0.0
C1248 C 0.59309 0.68266 0.88626 0.0
C1249 C 0.61261 0.68697 0.91782 0.0
C1250 C 0.62836 0.73905 0.92608 0.0
H1251 H 0.66592 0.76888 0.02282 0.0
H1252 H 0.65135 0.74349 0.99948 0.0
H1253 H 0.64575 0.76558 0.93382 0.0
H1254 H 0.5778 0.7103 0.87567 0.0
H1255 H 0.59067 0.73203 0.90307 0.0
H1256 H 0.60707 0.70562 0.96002 0.0
C1257 C 0.65125 0.75944 0.99493 0.0
C1258 C 0.63707 0.75283 0.9399 0.0
C1259 C 0.6597 0.77394 0.0083 0.0
C1260 C 0.58734 0.70341 0.88738 0.0
C1261 C 0.59475 0.71593 0.90303 0.0
C1262 C 0.61551 0.7187 0.95427 0.0
C1263 C 0.64333 0.76545 0.97577 0.0
C1264 C 0.63471 0.75009 0.96117 0.0
C1265 C 0.60779 0.70794 0.91812 0.0
C1266 C 0.61741 0.72196 0.93311 0.0
H1267 H 0.65299 0.81671 0.97916 0.0
H1268 H 0.6375 0.79178 0.9562 0.0
H1269 H 0.62156 0.73017 0.9844 0.0
H1270 H 0.61011 0.65852 0.90151 0.0
H1271 H 0.62268 0.68051 0.92933 0.0
C1272 C 0.50857 0.28104 0.1457 0.0
C1273 C 0.50183 0.29317 0.16226 0.0
C1274 C 0.49557 0.26652 0.13677 0.0
C1275 C 0.4412 0.25538 0.12927 0.0
H1276 H 0.45892 0.20001 0.11681 0.0
C1277 C 0.40015 0.17474 0.10773 0.0
C1278 C 0.3866 0.18166 0.09247 0.0
C1279 C 0.41613 0.18731 0.11458 0.0
C1280 C 0.4538 0.21542 0.12021 0.0
H1281 H 0.47615 0.29882 0.18267 0.0
H1282 H 0.45349 0.27392 0.1668 0.0
H1283 H 0.4829 0.22412 0.13283 0.0
H1284 H 0.3801 0.20667 0.07148 0.0
H1285 H 0.40786 0.22845 0.08345 0.0
H1286 H 0.41214 0.24681 0.11683 0.0
C1287 C 0.46881 0.27581 0.16068 0.0
C1288 C 0.46753 0.22923 0.12924 0.0
C1289 C 0.48183 0.29017 0.16973 0.0
C1290 C 0.3901 0.2009 0.0834 0.0
C1291 C 0.40596 0.21345 0.09032 0.0
C1292 C 0.4276 0.2417 0.12005 0.0
C1293 C 0.47549 0.26392 0.14404 0.0
C1294 C 0.46128 0.24929 0.13401 0.0
C1295 C 0.41877 0.20705 0.10636 0.0
C1296 C 0.43371 0.22156 0.11549 0.0
H1297 H 0.52372 0.283 0.1393 0.0
H1298 H 0.50106 0.25769 0.12383 0.0
H1299 H 0.43601 0.27079 0.13259 0.0
H1300 H 0.3979 0.16 0.11501 0.0
H1301 H 0.42576 0.18199 0.12701 0.0
C1302 C 0.40512 0.83357 0.90311 0.0
C1303 C 0.38956 0.82479 0.91513 0.0
C1304 C 0.42181 0.82173 0.89659 0.0
C1305 C 0.44727 0.77073 0.90443 0.0
H1306 H 0.46508 0.77868 0.84829 0.0
C1307 C 0.48595 0.70799 0.85563 0.0
C1308 C 0.50435 0.71341 0.8459 0.0
C1309 C 0.47402 0.72289 0.86534 0.0
C1310 C 0.46038 0.77644 0.86406 0.0
H1311 H 0.37975 0.79685 0.93032 0.0
H1312 H 0.40814 0.77628 0.91852 0.0
H1313 H 0.4409 0.80276 0.86358 0.0
H1314 H 0.52458 0.73859 0.83834 0.0
H1315 H 0.50332 0.76487 0.85486 0.0
H1316 H 0.46594 0.7437 0.90434 0.0
C1317 C 0.40793 0.79235 0.91443 0.0
C1318 C 0.44663 0.7903 0.87291 0.0
C1319 C 0.39146 0.80419 0.92113 0.0
C1320 C 0.5105 0.73405 0.84585 0.0
C1321 C 0.49835 0.74903 0.85519 0.0
C1322 C 0.46069 0.75669 0.89544 0.0
C1323 C 0.42319 0.80082 0.90179 0.0
C1324 C 0.43959 0.78744 0.89312 0.0
C1325 C 0.48008 0.74354 0.86514 0.0
C1326 C 0.46713 0.75927 0.87509 0.0
H1327 H 0.40417 0.84943 0.89832 0.0
H1328 H 0.43345 0.82892 0.88721 0.0
H1329 H 0.44267 0.76826 0.92017 0.0
H1330 H 0.48098 0.69217 0.85602 0.0
H1331 H 0.45991 0.71832 0.8728 0.0
C1332 C 0.22758 0.01571 0.67655 0.0
C1333 C 0.21546 1.00284 0.66436 0.0
C1334 C 0.24226 0.02847 0.66762 0.0
C1335 C 0.27007 0.03855 0.61824 0.0
H1336 H 0.28084 0.09077 0.64444 0.0
C1337 C 0.31055 0.1101 0.58212 0.0
C1338 C 0.32668 0.11824 0.59387 0.0
C1339 C 0.29863 0.09397 0.58973 0.0
C1340 C 0.27806 0.07616 0.63706 0.0
H1341 H 0.20896 0.99319 0.63336 0.0
H1342 H 0.23378 0.01624 0.61748 0.0
H1343 H 0.2561 0.06742 0.65958 0.0
H1344 H 0.34336 0.11544 0.62249 0.0
H1345 H 0.32215 0.08766 0.63594 0.0
H1346 H 0.29143 0.0482 0.59508 0.0
C1347 C 0.23262 0.01605 0.63402 0.0
C1348 C 0.26398 0.06264 0.64579 0.0
C1349 C 0.21827 1.00291 0.64305 0.0
C1350 C 0.33114 0.10942 0.613 0.0
C1351 C 0.31896 0.09361 0.62077 0.0
C1352 C 0.28384 0.05235 0.60925 0.0
C1353 C 0.24483 0.02909 0.64618 0.0
C1354 C 0.25985 0.04353 0.63663 0.0
C1355 C 0.30239 0.08603 0.60937 0.0
C1356 C 0.28804 0.07119 0.6187 0.0
H1357 H 0.2259 0.01564 0.69306 0.0
H1358 H 0.25168 0.03774 0.67764 0.0
H1359 H 0.26765 0.02391 0.61084 0.0
H1360 H 0.30675 0.11662 0.56733 0.0
H1361 H 0.28585 0.08839 0.58072 0.0
C1362 C 0.51608 0.28009 0.82997 0.0
C1363 C 0.50283 0.2917 0.84224 0.0
C1364 C 0.52894 0.2654 0.83874 0.0
C1365 C 0.53844 0.23639 0.8875 0.0
H1366 H 0.59124 0.22685 0.86198 0.0
C1367 C 0.6097 0.19531 0.92356 0.0
C1368 C 0.61794 0.17945 0.91153 0.0
C1369 C 0.59368 0.20744 0.91605 0.0
C1370 C 0.57648 0.2293 0.86916 0.0
H1371 H 0.49261 0.29732 0.87324 0.0
H1372 H 0.51581 0.27248 0.88887 0.0
H1373 H 0.56795 0.25185 0.84715 0.0
H1374 H 0.61548 0.16346 0.88248 0.0
H1375 H 0.5879 0.18506 0.86921 0.0
H1376 H 0.54784 0.21442 0.91017 0.0
C1377 C 0.51585 0.27404 0.87237 0.0
C1378 C 0.56299 0.24352 0.8606 0.0
C1379 C 0.50264 0.2884 0.86348 0.0
C1380 C 0.60935 0.17546 0.89218 0.0
C1381 C 0.59367 0.18786 0.88452 0.0
C1382 C 0.55219 0.22247 0.89632 0.0
C1383 C 0.52924 0.26231 0.86012 0.0
C1384 C 0.54368 0.2472 0.86952 0.0
C1385 C 0.58598 0.20416 0.89624 0.0
C1386 C 0.57123 0.21872 0.88711 0.0
H1387 H 0.51623 0.28215 0.8135 0.0
H1388 H 0.53851 0.25637 0.82865 0.0
H1389 H 0.52364 0.23846 0.89468 0.0
H1390 H 0.61603 0.19873 0.93852 0.0
H1391 H 0.588 0.22 0.9253 0.0
C1392 C 0.79685 0.98153 0.6573 0.0
C1393 C 0.79362 1.00282 0.6583 0.0
C1394 C 0.78261 0.96872 0.64775 0.0
C1395 C 0.7284 0.96644 0.63087 0.0
H1396 H 0.74783 0.91914 0.60067 0.0
C1397 C 0.67601 0.89849 0.60849 0.0
C1398 C 0.68062 0.88736 0.59065 0.0
C1399 C 0.68861 0.91467 0.61476 0.0
C1400 C 0.74206 0.93243 0.60875 0.0
H1401 H 0.77253 0.02717 0.64992 0.0
H1402 H 0.74808 0.00493 0.63276 0.0
H1403 H 0.77238 0.94308 0.61503 0.0
H1404 H 0.70113 0.88543 0.56457 0.0
H1405 H 0.72266 0.91401 0.57512 0.0
H1406 H 0.69804 0.95593 0.62421 0.0
C1407 C 0.76153 0.99811 0.63967 0.0
C1408 C 0.75621 0.94602 0.6173 0.0
C1409 C 0.77575 0.01093 0.64933 0.0
C1410 C 0.6973 0.89357 0.57853 0.0
C1411 C 0.70975 0.90986 0.58468 0.0
C1412 C 0.71422 0.95289 0.62219 0.0
C1413 C 0.76477 0.97683 0.63878 0.0
C1414 C 0.74959 0.96304 0.62872 0.0
C1415 C 0.70598 0.9202 0.60322 0.0
C1416 C 0.72087 0.93557 0.6112 0.0
H1417 H 0.81047 0.97466 0.66377 0.0
H1418 H 0.7855 0.95239 0.64765 0.0
H1419 H 0.72273 0.97929 0.63969 0.0
H1420 H 0.66333 0.89402 0.61822 0.0
H1421 H 0.68528 0.92213 0.6292 0.0
C1422 C 0.49637 0.73431 0.16037 0.0
C1423 C 0.50077 0.71334 0.15846 0.0
C1424 C 0.50937 0.74897 0.15154 0.0
C1425 C 0.56268 0.75378 0.13185 0.0
H1426 H 0.54346 0.80515 0.10896 0.0
C1427 C 0.61551 0.80463 0.0844 0.0
C1428 C 0.61782 0.8248 0.09161 0.0
C1429 C 0.59941 0.79239 0.0913 0.0
C1430 C 0.54897 0.79088 0.11539 0.0
H1431 H 0.52123 0.69115 0.14478 0.0
H1432 H 0.54339 0.7164 0.12878 0.0
H1433 H 0.51874 0.78084 0.12347 0.0
H1434 H 0.60413 0.84837 0.11066 0.0
H1435 H 0.57568 0.82688 0.1225 0.0
H1436 H 0.59276 0.76355 0.12335 0.0
C1437 C 0.53054 0.72177 0.1378 0.0
C1438 C 0.53488 0.77699 0.12378 0.0
C1439 C 0.51781 0.70724 0.14688 0.0
C1440 C 0.60284 0.83288 0.10487 0.0
C1441 C 0.58654 0.82063 0.11162 0.0
C1442 C 0.57663 0.76745 0.12323 0.0
C1443 C 0.52683 0.74286 0.14039 0.0
C1444 C 0.54156 0.75815 0.13194 0.0
C1445 C 0.5851 0.80008 0.10538 0.0
C1446 C 0.56993 0.78604 0.11477 0.0
H1447 H 0.48329 0.73933 0.16926 0.0
H1448 H 0.50606 0.76504 0.15397 0.0
H1449 H 0.56855 0.73979 0.13855 0.0
H1450 H 0.62664 0.79791 0.07407 0.0
H1451 H 0.59848 0.77666 0.08607 0.0
C1452 C 0.22446 0.00812 0.3624 0.0
C1453 C 0.21234 1.00131 0.34589 0.0
C1454 C 0.23895 0.99516 0.37144 0.0
C1455 C 0.25011 0.94083 0.3793 0.0
H1456 H 0.30556 0.9586 0.39131 0.0
C1457 C 0.30494 0.88969 0.42467 0.0
C1458 C 0.32408 0.88617 0.41539 0.0
C1459 C 0.29235 0.9056 0.41795 0.0
C1460 C 0.29012 0.95347 0.38805 0.0
H1461 H 0.20661 0.97547 0.3257 0.0
H1462 H 0.23144 0.95287 0.34176 0.0
H1463 H 0.28135 0.98251 0.37532 0.0
H1464 H 0.34555 0.89755 0.3927 0.0
H1465 H 0.32349 0.9255 0.38104 0.0
H1466 H 0.25877 0.91182 0.3918 0.0
C1467 C 0.22958 0.96823 0.34776 0.0
C1468 C 0.27626 0.96716 0.37903 0.0
C1469 C 0.21526 0.98122 0.3386 0.0
C1470 C 0.33089 0.8998 0.40014 0.0
C1471 C 0.31828 0.91584 0.39348 0.0
C1472 C 0.26385 0.92727 0.38849 0.0
C1473 C 0.2415 0.97502 0.36433 0.0
C1474 C 0.25617 0.96088 0.37441 0.0
C1475 C 0.29862 0.91847 0.40188 0.0
C1476 C 0.28402 0.93339 0.39288 0.0
H1477 H 0.22256 0.02334 0.36868 0.0
H1478 H 0.24781 1.00073 0.38433 0.0
H1479 H 0.23468 0.93563 0.37608 0.0
H1480 H 0.29927 0.87963 0.4366 0.0
H1481 H 0.27742 0.9075 0.42496 0.0
C1482 C 0.78744 1.0026 0.36625 0.0
C1483 C 0.79106 1.00287 0.34507 0.0
C1484 C 0.77292 0.01578 0.37496 0.0
C1485 C 0.74288 0.06311 0.36267 0.0
H1486 H 0.71309 0.04857 0.41201 0.0
C1487 C 0.67504 0.11051 0.39296 0.0
C1488 C 0.67891 0.11925 0.41226 0.0
C1489 C 0.68729 0.09454 0.38564 0.0
C1490 C 0.72134 0.05274 0.39822 0.0
H1491 H 0.78181 0.01622 0.31621 0.0
H1492 H 0.75575 0.03838 0.33101 0.0
H1493 H 0.73712 0.02405 0.39697 0.0
H1494 H 0.69779 0.11731 0.43954 0.0
H1495 H 0.71879 0.08881 0.4269 0.0
H1496 H 0.72645 0.09151 0.36365 0.0
C1497 C 0.76467 0.02884 0.34123 0.0
C1498 C 0.73524 0.03881 0.38965 0.0
C1499 C 0.77951 0.01604 0.33265 0.0
C1500 C 0.69447 0.11087 0.4246 0.0
C1501 C 0.70644 0.09458 0.41743 0.0
C1502 C 0.72867 0.07677 0.37097 0.0
C1503 C 0.76137 0.0292 0.36257 0.0
C1504 C 0.74628 0.04381 0.37175 0.0
C1505 C 0.70331 0.08672 0.39765 0.0
C1506 C 0.71784 0.07175 0.38881 0.0
H1507 H 0.79628 0.9926 0.37611 0.0
H1508 H 0.77114 0.01574 0.39144 0.0
H1509 H 0.7514 0.06791 0.34928 0.0
H1510 H 0.66328 0.11672 0.38303 0.0
H1511 H 0.68461 0.08866 0.37035 0.0
C1512 C 0.98137 0.32181 0.92851 0.0
C1513 C 0.9666 0.33621 0.92244 0.0
C1514 C 0.9904 0.32298 0.94786 0.0
C1515 C 0.99767 0.35767 0.99285 0.0
H1516 H 0.01158 0.30657 0.01981 0.0
C1517 C 0.02167 0.34972 0.07871 0.0
C1518 C 0.03921 0.33768 0.0824 0.0
C1519 C 0.01311 0.35086 0.05906 0.0
C1520 C 0.00789 0.32096 0.0124 0.0
H1521 H 0.94974 0.3632 0.93173 0.0
H1522 H 0.96491 0.36488 0.96596 0.0
H1523 H 0.99554 0.30585 0.98619 0.0
H1524 H 0.06197 0.31823 0.06783 0.0
H1525 H 0.04656 0.31967 0.03388 0.0
H1526 H 0.00951 0.37262 0.01968 0.0
C1527 C 0.96996 0.35294 0.95561 0.0
C1528 C 0.99879 0.3206 0.99305 0.0
C1529 C 0.96116 0.35196 0.93605 0.0
C1530 C 0.04819 0.32723 0.06579 0.0
C1531 C 0.03945 0.32812 0.04627 0.0
C1532 C 0.00649 0.358 0.01242 0.0
C1533 C 0.98463 0.33837 0.96185 0.0
C1534 C 0.99376 0.33894 0.98284 0.0
C1535 C 0.02172 0.33977 0.04275 0.0
C1536 C 0.01188 0.33964 0.02227 0.0
H1537 H 0.9861 0.30972 0.91816 0.0
H1538 H 1.00203 0.31181 0.95177 0.0
H1539 H 0.99429 0.37212 0.98545 0.0
H1540 H 0.01411 0.35777 0.09108 0.0
H1541 H 0.99935 0.35985 0.05676 0.0
C1542 C 0.85406 0.46104 0.4354 0.0
C1543 C 0.83801 0.46691 0.4223 0.0
C1544 C 0.85591 0.4698 0.45491 0.0
C1545 C 0.84324 0.51559 0.48449 0.0
H1546 H 0.84552 0.48052 0.53237 0.0
C1547 C 0.83027 0.54765 0.5657 0.0
C1548 C 0.84013 0.53845 0.58253 0.0
C1549 C 0.8318 0.53919 0.54609 0.0
C1550 C 0.84532 0.49061 0.51921 0.0
H1551 H 0.81168 0.48686 0.41905 0.0
H1552 H 0.81517 0.50247 0.45294 0.0
H1553 H 0.84537 0.46528 0.49824 0.0
H1554 H 0.85974 0.51312 0.59153 0.0
H1555 H 0.86331 0.49906 0.55724 0.0
H1556 H 0.84363 0.54095 0.50517 0.0
C1557 C 0.82617 0.49096 0.44822 0.0
C1558 C 0.84513 0.48182 0.49965 0.0
C1559 C 0.82409 0.48194 0.42891 0.0
C1560 C 0.85208 0.52084 0.57901 0.0
C1561 C 0.85385 0.51253 0.5593 0.0
C1562 C 0.84379 0.5244 0.504 0.0
C1563 C 0.84202 0.4849 0.46146 0.0
C1564 C 0.84375 0.49422 0.48212 0.0
C1565 C 0.84353 0.52144 0.54258 0.0
C1566 C 0.84447 0.51205 0.5217 0.0
H1567 H 0.86496 0.44946 0.43066 0.0
H1568 H 0.8683 0.46492 0.46482 0.0
H1569 H 0.84243 0.5255 0.47119 0.0
H1570 H 0.82123 0.56143 0.56763 0.0
H1571 H 0.82335 0.54641 0.53378 0.0
C1572 C 0.04439 0.65382 0.93613 0.0
C1573 C 0.03971 0.67016 0.92293 0.0
C1574 C 0.03561 0.65278 0.95571 0.0
C1575 C 0.00804 0.68548 0.99398 0.0
H1576 H 0.99535 0.63334 0.0195 0.0
C1577 C 0.95769 0.67903 0.06616 0.0
C1578 C 0.96628 0.6682 0.08274 0.0
C1579 C 0.96657 0.67815 0.04669 0.0
C1580 C 0.99892 0.64799 0.01255 0.0
H1581 H 0.02151 0.69766 0.91941 0.0
H1582 H 0.00555 0.69548 0.95299 0.0
H1583 H 0.01075 0.634 0.98534 0.0
H1584 H 0.99082 0.64741 0.09135 0.0
H1585 H 0.00578 0.64532 0.0571 0.0
H1586 H 0.99554 0.69939 0.02095 0.0
C1587 C 0.01663 0.68388 0.94879 0.0
C1588 C 0.00785 0.64841 0.99302 0.0
C1589 C 0.02568 0.6851 0.92944 0.0
C1590 C 0.98355 0.65576 0.07902 0.0
C1591 C 0.99223 0.65463 0.0594 0.0
C1592 C 0.9988 0.68503 0.01328 0.0
C1593 C 0.02165 0.66788 0.96238 0.0
C1594 C 0.01247 0.66719 0.98339 0.0
C1595 C 0.98405 0.66613 0.04316 0.0
C1596 C 0.99409 0.66631 0.02275 0.0
H1597 H 0.05522 0.64214 0.93147 0.0
H1598 H 0.0401 0.64035 0.96573 0.0
H1599 H 0.01184 0.70025 0.98746 0.0
H1600 H 0.94411 0.68834 0.06818 0.0
H1601 H 0.95978 0.68693 0.03435 0.0
C1602 C 0.15192 0.46154 0.57148 0.0
C1603 C 0.16822 0.46697 0.58446 0.0
C1604 C 0.15005 0.47049 0.55205 0.0
C1605 C 0.16346 0.51626 0.52271 0.0
H1606 H 0.15927 0.4817 0.4746 0.0
C1607 C 0.17585 0.54853 0.44145 0.0
C1608 C 0.16543 0.53972 0.42476 0.0
C1609 C 0.17439 0.54003 0.46105 0.0
C1610 C 0.16 0.49167 0.48783 0.0
H1611 H 0.19501 0.48633 0.58758 0.0
H1612 H 0.19151 0.50224 0.55383 0.0
H1613 H 0.15966 0.46616 0.50858 0.0
H1614 H 0.14484 0.5151 0.416 0.0
H1615 H 0.14142 0.50098 0.45029 0.0
H1616 H 0.16339 0.54181 0.50225 0.0
C1617 C 0.18032 0.49094 0.55858 0.0
C1618 C 0.16033 0.4827 0.50731 0.0
C1619 C 0.1824 0.48174 0.5778 0.0
C1620 C 0.15295 0.52251 0.42842 0.0
C1621 C 0.15126 0.51416 0.44812 0.0
C1622 C 0.16279 0.52526 0.50328 0.0
C1623 C 0.16419 0.48535 0.54547 0.0
C1624 C 0.16239 0.49489 0.52491 0.0
C1625 C 0.16218 0.52263 0.46468 0.0
C1626 C 0.1614 0.51309 0.48551 0.0
H1627 H 0.14081 0.45017 0.57625 0.0
H1628 H 0.13744 0.46597 0.54226 0.0
H1629 H 0.1648 0.52603 0.53607 0.0
H1630 H 0.18532 0.562 0.43941 0.0
H1631 H 0.18329 0.5469 0.47325 0.0
C1632 C 0.92773 0.98421 0.32073 0.0
C1633 C 0.92152 0.96975 0.33538 0.0
C1634 C 0.94716 0.99313 0.32177 0.0
C1635 C 0.9921 1.0006 0.35652 0.0
H1636 H 0.01939 0.01359 0.30535 0.0
C1637 C 0.07824 0.02331 0.34891 0.0
C1638 C 0.08234 0.04065 0.3367 0.0
C1639 C 0.05846 0.01506 0.34993 0.0
C1640 C 0.01189 0.01017 0.31976 0.0
H1641 H 0.93066 0.95329 0.36267 0.0
H1642 H 0.96497 0.96822 0.36414 0.0
H1643 H 0.98559 0.99791 0.30471 0.0
H1644 H 0.06836 0.0633 0.31671 0.0
H1645 H 0.03416 0.04841 0.31795 0.0
H1646 H 0.019 0.01232 0.37142 0.0
C1647 C 0.95469 0.97315 0.35211 0.0
C1648 C 0.99243 1.00127 0.31944 0.0
C1649 C 0.93506 0.96449 0.35124 0.0
C1650 C 0.066 0.04968 0.32588 0.0
C1651 C 0.04634 0.04123 0.32666 0.0
C1652 C 0.01177 0.00921 0.35681 0.0
C1653 C 0.96106 0.98754 0.3373 0.0
C1654 C 0.98212 0.99654 0.33781 0.0
C1655 C 0.04241 0.02375 0.33854 0.0
C1656 C 0.02175 0.01425 0.33843 0.0
H1657 H 0.91744 0.9888 0.30853 0.0
H1658 H 0.95117 0.00453 0.31041 0.0
H1659 H 0.98463 0.99748 0.37099 0.0
H1660 H 0.09039 0.01568 0.35722 0.0
H1661 H 0.05585 1.00147 0.3591 0.0
C1662 C 0.54819 0.43996 0.17482 0.0
C1663 C 0.53827 0.42265 0.16669 0.0
C1664 C 0.53906 0.45929 0.17376 0.0
C1665 C 0.499 0.48976 0.14754 0.0
H1666 H 0.50147 0.52238 0.19712 0.0
C1667 C 0.45336 0.56585 0.15877 0.0
C1668 C 0.46341 0.58162 0.16946 0.0
C1669 C 0.46228 0.54634 0.15719 0.0
C1670 C 0.50083 0.51362 0.18305 0.0
H1671 H 0.51109 0.41229 0.15059 0.0
H1672 H 0.4952 0.44613 0.14864 0.0
H1673 H 0.51766 0.48887 0.19633 0.0
H1674 H 0.49121 0.58961 0.18582 0.0
H1675 H 0.50673 0.5559 0.18295 0.0
H1676 H 0.48214 0.51468 0.13428 0.0
C1677 C 0.51014 0.44471 0.15573 0.0
C1678 C 0.51013 0.49436 0.1826 0.0
C1679 C 0.51928 0.42531 0.15682 0.0
C1680 C 0.48282 0.57766 0.17791 0.0
C1681 C 0.49172 0.5583 0.17629 0.0
C1682 C 0.4897 0.50913 0.14797 0.0
C1683 C 0.51977 0.46187 0.16452 0.0
C1684 C 0.5095 0.48225 0.16481 0.0
C1685 C 0.48146 0.54227 0.16622 0.0
C1686 C 0.49067 0.52137 0.16569 0.0
H1687 H 0.563 0.43855 0.18217 0.0
H1688 H 0.5471 0.47225 0.1803 0.0
H1689 H 0.49833 0.48085 0.13356 0.0
H1690 H 0.43836 0.5684 0.15214 0.0
H1691 H 0.4539 0.53432 0.14942 0.0
C1692 C 0.07852 0.9864 0.68538 0.0
C1693 C 0.08497 0.97225 0.67053 0.0
C1694 C 0.05909 0.99531 0.68426 0.0
C1695 C 0.01431 0.0032 0.64932 0.0
H1696 H 0.98651 0.01455 0.7006 0.0
C1697 C 0.9278 0.02477 0.65683 0.0
C1698 C 0.92338 0.04164 0.66957 0.0
C1699 C 0.9477 0.01677 0.65572 0.0
C1700 C 0.99414 0.01159 0.68616 0.0
H1701 H 0.07627 0.95643 0.64273 0.0
H1702 H 0.04194 0.97135 0.64108 0.0
H1703 H 0.0205 0.99931 0.70109 0.0
H1704 H 0.93694 0.06379 0.6904 0.0
H1705 H 0.97131 0.04934 0.68899 0.0
H1706 H 0.98734 0.01493 0.63453 0.0
C1707 C 0.05205 0.97604 0.65337 0.0
C1708 C 0.01373 1.00295 0.6864 0.0
C1709 C 0.07169 0.96738 0.65432 0.0
C1710 C 0.93953 0.0505 0.68082 0.0
C1711 C 0.9593 0.0423 0.67995 0.0
C1712 C 0.99452 0.01155 0.6491 0.0
C1713 C 0.0454 0.99002 0.66844 0.0
C1714 C 0.02423 0.99881 0.66799 0.0
C1715 C 0.96355 0.02526 0.66754 0.0
C1716 C 0.98434 0.01601 0.66754 0.0
H1717 H 0.0886 0.99068 0.69787 0.0
H1718 H 0.05487 0.00641 0.69584 0.0
H1719 H 0.02192 1.00053 0.63483 0.0
H1720 H 0.91581 0.01729 0.64815 0.0
H1721 H 0.95054 0.00352 0.64614 0.0
C1722 C 0.5504 0.56581 0.82757 0.0
C1723 C 0.54151 0.58227 0.83833 0.0
C1724 C 0.5419 0.5462 0.82855 0.0
C1725 C 0.51011 0.51164 0.85886 0.0
H1726 H 0.49792 0.48603 0.80667 0.0
C1727 C 0.46557 0.4347 0.85303 0.0
C1728 C 0.47051 0.4215 0.83678 0.0
C1729 C 0.47424 0.45433 0.85411 0.0
C1730 C 0.50153 0.49269 0.82142 0.0
H1731 H 0.51685 0.59053 0.85913 0.0
H1732 H 0.50252 0.55602 0.86137 0.0
H1733 H 0.51358 0.51981 0.80741 0.0
H1734 H 0.48903 0.41797 0.80949 0.0
H1735 H 0.50481 0.45164 0.81176 0.0
H1736 H 0.49869 0.48431 0.87294 0.0
C1737 C 0.51603 0.55853 0.85205 0.0
C1738 C 0.5104 0.51216 0.8218 0.0
C1739 C 0.52434 0.57829 0.85082 0.0
C1740 C 0.48471 0.428 0.822 0.0
C1741 C 0.49364 0.4474 0.82326 0.0
C1742 C 0.50153 0.49195 0.8585 0.0
C1743 C 0.5245 0.5424 0.84061 0.0
C1744 C 0.51485 0.52181 0.84049 0.0
C1745 C 0.4883 0.46102 0.83914 0.0
C1746 C 0.49719 0.48214 0.83975 0.0
H1747 H 0.56392 0.56806 0.81822 0.0
H1748 H 0.54892 0.53395 0.81982 0.0
H1749 H 0.51348 0.51873 0.87348 0.0
H1750 H 0.45458 0.43006 0.86456 0.0
H1751 H 0.46953 0.46437 0.86643 0.0
C1752 C 0.35172 0.0783 0.02381 0.0
C1753 C 0.33883 0.08216 0.04068 0.0
C1754 C 0.3536 0.05852 0.01573 0.0
C1755 C 0.34194 0.00349 0.02732 0.0
H1756 H 0.34711 0.99728 0.96844 0.0
C1757 C 0.32427 0.92822 0.98423 0.0
C1758 C 0.3389 0.92149 0.96994 0.0
C1759 C 0.326 0.94753 0.99331 0.0
C1760 C 0.34587 0.99881 0.98493 0.0
H1761 H 0.3183 0.06779 0.06256 0.0
H1762 H 0.32067 0.03379 0.04788 0.0
H1763 H 0.34672 0.03151 0.98344 0.0
H1764 H 0.36677 0.92964 0.95389 0.0
H1765 H 0.36954 0.96379 0.96947 0.0
H1766 H 0.34016 0.97071 0.02854 0.0
C1767 C 0.32975 0.0459 0.04111 0.0
C1768 C 0.34574 0.01843 0.99359 0.0
C1769 C 0.3281 0.06559 0.04936 0.0
C1770 C 0.35533 0.93446 0.9649 0.0
C1771 C 0.35685 0.95398 0.97372 0.0
C1772 C 0.34172 0.98392 0.01861 0.0
C1773 C 0.34246 0.04205 0.02411 0.0
C1774 C 0.34361 0.02109 0.01492 0.0
C1775 C 0.34222 0.96066 0.98805 0.0
C1776 C 0.34355 0.98138 0.99733 0.0
H1777 H 0.36006 0.09062 0.01648 0.0
H1778 H 0.3638 0.05619 1.00286 0.0
H1779 H 0.34077 0.00478 0.04381 0.0
H1780 H 0.31154 0.91845 0.98849 0.0
H1781 H 0.31443 0.95235 0.0042 0.0
C1782 C 0.42669 0.15681 0.52205 0.0
C1783 C 0.42266 0.16908 0.53936 0.0
C1784 C 0.44641 0.15587 0.51363 0.0
C1785 C 0.49281 0.18626 0.50825 0.0
H1786 H 0.52033 0.13512 0.49579 0.0
C1787 C 0.57701 0.18561 0.48242 0.0
C1788 C 0.58336 0.17091 0.46806 0.0
C1789 C 0.55755 0.18452 0.49126 0.0
C1790 C 0.51278 0.14957 0.49884 0.0
H1791 H 0.43673 0.18926 0.56179 0.0
H1792 H 0.47079 0.18816 0.5466 0.0
H1793 H 0.48598 0.13458 0.5107 0.0
H1794 H 0.57443 0.14348 0.45172 0.0
H1795 H 0.54005 0.14192 0.46653 0.0
H1796 H 0.51901 0.2014 0.49587 0.0
C1797 C 0.4586 0.17935 0.53957 0.0
C1798 C 0.49313 0.14921 0.50749 0.0
C1799 C 0.43901 0.18005 0.54819 0.0
C1800 C 0.56991 0.15496 0.46283 0.0
C1801 C 0.55025 0.15404 0.47143 0.0
C1802 C 0.51225 0.18664 0.49931 0.0
C1803 C 0.46246 0.1674 0.52211 0.0
C1804 C 0.48306 0.16757 0.51247 0.0
C1805 C 0.54374 0.16889 0.48571 0.0
C1806 C 0.52266 0.16831 0.49468 0.0
H1807 H 0.41452 0.14837 0.51458 0.0
H1808 H 0.44895 0.14664 0.50007 0.0
H1809 H 0.48524 0.20065 0.51163 0.0
H1810 H 0.58721 0.19787 0.487 0.0
H1811 H 0.55343 0.19591 0.50259 0.0
C1812 C 0.67773 0.06614 0.95751 0.0
C1813 C 0.66693 0.0827 0.96613 0.0
C1814 C 0.67629 0.04651 0.96595 0.0
C1815 C 0.66074 0.01932 0.01378 0.0
H1816 H 0.66625 0.97135 0.97915 0.0
C1817 C 0.6513 0.93556 0.04303 0.0
C1818 C 0.6678 0.92263 0.03814 0.0
C1819 C 0.64972 0.955 0.03406 0.0
C1820 C 0.6647 0.98464 0.98899 0.0
H1821 H 0.64585 0.0912 0.99045 0.0
H1822 H 0.64246 0.05688 0.00437 0.0
H1823 H 0.66548 0.00531 0.96362 0.0
H1824 H 0.69523 0.91957 0.01969 0.0
H1825 H 0.69223 0.95333 0.00371 0.0
H1826 H 0.65952 0.99836 0.03908 0.0
C1827 C 0.65255 0.05917 0.99141 0.0
C1828 C 0.6644 0.00414 0.98013 0.0
C1829 C 0.65423 0.07889 0.98315 0.0
C1830 C 0.68245 0.92931 0.02384 0.0
C1831 C 0.68066 0.94854 0.01461 0.0
C1832 C 0.66068 0.99977 0.02258 0.0
C1833 C 0.66374 0.04271 0.98307 0.0
C1834 C 0.66274 0.02182 0.99242 0.0
C1835 C 0.66436 0.96163 0.01972 0.0
C1836 C 0.66297 0.98227 0.01029 0.0
H1837 H 0.6874 0.06829 0.94421 0.0
H1838 H 0.68541 0.0344 0.95921 0.0
H1839 H 0.65978 0.03247 0.02384 0.0
H1840 H 0.63984 0.93076 0.05403 0.0
H1841 H 0.63697 0.9648 0.0382 0.0
C1842 C 0.44003 0.82595 0.45676 0.0
C1843 C 0.42365 0.83672 0.4658 0.0
C1844 C 0.45969 0.82679 0.46519 0.0
C1845 C 0.49435 0.8569 0.4971 0.0
H1846 H 0.52027 0.80469 0.50855 0.0
C1847 C 0.57137 0.85099 0.54135 0.0
C1848 C 0.58474 0.83498 0.53608 0.0
C1849 C 0.55169 0.85199 0.53281 0.0
C1850 C 0.51351 0.81945 0.50515 0.0
H1851 H 0.41557 0.85733 0.49067 0.0
H1852 H 0.45013 0.85933 0.50487 0.0
H1853 H 0.48642 0.80547 0.49301 0.0
H1854 H 0.58845 0.80801 0.51714 0.0
H1855 H 0.55464 0.81013 0.50162 0.0
H1856 H 0.52163 0.87097 0.50863 0.0
C1857 C 0.44754 0.85012 0.4913 0.0
C1858 C 0.49401 0.81985 0.49634 0.0
C1859 C 0.42774 0.84903 0.48307 0.0
C1860 C 0.57831 0.82033 0.52172 0.0
C1861 C 0.55883 0.8215 0.51294 0.0
C1862 C 0.51405 0.85653 0.50562 0.0
C1863 C 0.4636 0.83871 0.48266 0.0
C1864 C 0.48425 0.83855 0.49218 0.0
C1865 C 0.54509 0.83717 0.51855 0.0
C1866 C 0.52396 0.83778 0.50971 0.0
H1867 H 0.43769 0.81672 0.44318 0.0
H1868 H 0.47188 0.81809 0.45804 0.0
H1869 H 0.48718 0.87153 0.49395 0.0
H1870 H 0.57595 0.86243 0.55247 0.0
H1871 H 0.54154 0.86414 0.53775 0.0
C1872 C 0.08143 0.25853 0.19452 0.0
C1873 C 0.08156 0.27825 0.20318 0.0
C1874 C 0.08734 0.24152 0.20619 0.0
C1875 C 0.11877 0.22887 0.25125 0.0
H1876 H 0.09132 0.17621 0.24941 0.0
C1877 C 0.14038 0.16512 0.30727 0.0
C1878 C 0.14278 0.14529 0.29927 0.0
C1879 C 0.13123 0.18051 0.29561 0.0
C1880 C 0.09924 0.19078 0.24993 0.0
H1881 H 0.08713 0.29551 0.23104 0.0
H1882 H 0.09715 0.26594 0.25136 0.0
H1883 H 0.07832 0.2047 0.2287 0.0
H1884 H 0.13691 0.12589 0.27296 0.0
H1885 H 0.12097 0.15291 0.25245 0.0
H1886 H 0.13974 0.21513 0.27225 0.0
C1887 C 0.09289 0.2636 0.23548 0.0
C1888 C 0.0918 0.20707 0.23808 0.0
C1889 C 0.08704 0.28054 0.22386 0.0
C1890 C 0.13512 0.14098 0.2796 0.0
C1891 C 0.12601 0.15646 0.26786 0.0
C1892 C 0.12617 0.21267 0.26302 0.0
C1893 C 0.0935 0.24395 0.2267 0.0
C1894 C 0.1014 0.22635 0.23879 0.0
C1895 C 0.12435 0.1765 0.2756 0.0
C1896 C 0.11641 0.19348 0.26267 0.0
H1897 H 0.0773 0.25632 0.1786 0.0
H1898 H 0.08775 0.22658 0.19897 0.0
H1899 H 0.12682 0.24338 0.25176 0.0
H1900 H 0.14574 0.16877 0.32253 0.0
H1901 H 0.12975 0.19566 0.30222 0.0
C1902 C 0.7794 0.42192 0.2813 0.0
C1903 C 0.77768 0.42783 0.30192 0.0
C1904 C 0.76196 0.41717 0.26986 0.0
C1905 C 0.70895 0.39928 0.27608 0.0
H1906 H 0.70492 0.41291 0.21838 0.0
C1907 C 0.63993 0.37405 0.22648 0.0
C1908 C 0.64493 0.36555 0.20732 0.0
C1909 C 0.6548 0.38425 0.23808 0.0
C1910 C 0.70587 0.40891 0.23446 0.0
H1911 H 0.75629 0.43392 0.32661 0.0
H1912 H 0.72574 0.42573 0.30654 0.0
H1913 H 0.73329 0.4264 0.23863 0.0
H1914 H 0.66924 0.36175 0.18504 0.0
H1915 H 0.69521 0.37926 0.20532 0.0
H1916 H 0.68175 0.38146 0.27181 0.0
C1917 C 0.74062 0.42458 0.29929 0.0
C1918 C 0.72212 0.41664 0.24606 0.0
C1919 C 0.7581 0.42939 0.31074 0.0
C1920 C 0.66497 0.36793 0.19982 0.0
C1921 C 0.67979 0.37818 0.21136 0.0
C1922 C 0.69268 0.39156 0.26447 0.0
C1923 C 0.74237 0.41819 0.27878 0.0
C1924 C 0.72405 0.41162 0.26692 0.0
C1925 C 0.67495 0.38628 0.23072 0.0
C1926 C 0.69115 0.396 0.24344 0.0
H1927 H 0.79427 0.42053 0.27407 0.0
H1928 H 0.7639 0.41204 0.2542 0.0
H1929 H 0.71011 0.3949 0.29204 0.0
H1930 H 0.6247 0.37234 0.2328 0.0
H1931 H 0.65054 0.39047 0.25287 0.0
C1932 C 0.86889 0.84145 0.30708 0.0
C1933 C 0.86603 0.86148 0.29973 0.0
C1934 C 0.87906 0.82682 0.29523 0.0
C1935 C 0.89122 0.81427 0.24172 0.0
H1936 H 0.92689 0.77378 0.26659 0.0
C1937 C 0.9284 0.74892 0.19457 0.0
C1938 C 0.92719 0.72935 0.20348 0.0
C1939 C 0.92363 0.7664 0.20605 0.0
C1940 C 0.91689 0.78492 0.25943 0.0
H1941 H 0.87194 0.88192 0.2742 0.0
H1942 H 0.88993 0.8564 0.25356 0.0
H1943 H 0.9138 0.80205 0.28723 0.0
H1944 H 0.92046 0.7128 0.2315 0.0
H1945 H 0.91206 0.74315 0.25142 0.0
H1946 H 0.89395 0.79689 0.21404 0.0
C1947 C 0.88414 0.852 0.26848 0.0
C1948 C 0.90939 0.80112 0.27125 0.0
C1949 C 0.87402 0.86669 0.2804 0.0
C1950 C 0.92158 0.72765 0.22419 0.0
C1951 C 0.91689 0.74509 0.23566 0.0
C1952 C 0.89872 0.79806 0.22989 0.0
C1953 C 0.8866 0.83184 0.27569 0.0
C1954 C 0.89616 0.81578 0.26264 0.0
C1955 C 0.91765 0.76466 0.22669 0.0
C1956 C 0.91134 0.78298 0.2387 0.0
H1957 H 0.86313 0.83702 0.32198 0.0
H1958 H 0.88048 0.81139 0.30118 0.0
H1959 H 0.88088 0.82517 0.23467 0.0
H1960 H 0.93268 0.75071 0.17863 0.0
H1961 H 0.92455 0.78128 0.19875 0.0
C1962 C 0.34262 0.63146 0.19975 0.0
C1963 C 0.36155 0.63691 0.20839 0.0
C1964 C 0.32757 0.62201 0.21159 0.0
C1965 C 0.317 0.59455 0.25993 0.0
H1966 H 0.26311 0.61859 0.25291 0.0
C1967 C 0.24743 0.57824 0.31366 0.0
C1968 C 0.22808 0.5771 0.30428 0.0
C1969 C 0.26475 0.58362 0.30217 0.0
C1970 C 0.27797 0.61147 0.25488 0.0
H1971 H 0.37995 0.63579 0.23599 0.0
H1972 H 0.35347 0.61925 0.25688 0.0
H1973 H 0.29157 0.63106 0.2325 0.0
H1974 H 0.21184 0.57956 0.2754 0.0
H1975 H 0.24196 0.58849 0.25538 0.0
H1976 H 0.30319 0.57496 0.28247 0.0
C1977 C 0.35037 0.62224 0.24085 0.0
C1978 C 0.29432 0.61864 0.24318 0.0
C1979 C 0.36553 0.6317 0.22891 0.0
C1980 C 0.22651 0.58055 0.28311 0.0
C1981 C 0.24376 0.58578 0.27166 0.0
C1982 C 0.30054 0.58729 0.27167 0.0
C1983 C 0.33103 0.61783 0.23242 0.0
C1984 C 0.31397 0.61015 0.24538 0.0
C1985 C 0.26301 0.58788 0.28111 0.0
C1986 C 0.28079 0.59556 0.26911 0.0
H1987 H 0.3393 0.63486 0.18386 0.0
H1988 H 0.31302 0.61834 0.2045 0.0
H1989 H 0.33198 0.58768 0.26193 0.0
H1990 H 0.24908 0.57569 0.32998 0.0
H1991 H 0.27933 0.5852 0.30993 0.0
C1992 C 0.08273 0.72798 0.78153 0.0
C1993 C 0.07797 0.72963 0.80246 0.0
C1994 C 0.08718 0.74542 0.76998 0.0
C1995 C 0.10642 0.79801 0.77548 0.0
H1996 H 0.08926 0.80291 0.7188 0.0
C1997 C 0.13032 0.86691 0.72519 0.0
C1998 C 0.13747 0.86196 0.70546 0.0
C1999 C 0.12037 0.85219 0.73719 0.0
C2000 C 0.09425 0.80172 0.73458 0.0
H2001 H 0.07369 0.75091 0.82761 0.0
H2002 H 0.08141 0.78148 0.80735 0.0
H2003 H 0.07652 0.77459 0.73961 0.0
H2004 H 0.13901 0.83792 0.68262 0.0
H2005 H 0.12197 0.8122 0.70359 0.0
H2006 H 0.1245 0.82487 0.77035 0.0
C2007 C 0.08185 0.76664 0.79994 0.0
C2008 C 0.08695 0.7855 0.7465 0.0
C2009 C 0.07732 0.74915 0.8115 0.0
C2010 C 0.13391 0.84215 0.69782 0.0
C2011 C 0.12392 0.82748 0.70977 0.0
C2012 C 0.11373 0.81424 0.76356 0.0
C2013 C 0.08704 0.76494 0.77908 0.0
C2014 C 0.09323 0.78324 0.76699 0.0
C2015 C 0.11726 0.83223 0.7297 0.0
C2016 C 0.108 0.81609 0.74286 0.0
H2017 H 0.08339 0.71314 0.77412 0.0
H2018 H 0.09138 0.74352 0.75403 0.0
H2019 H 0.11176 0.79659 0.79113 0.0
H2020 H 0.13297 0.88195 0.73163 0.0
H2021 H 0.11526 0.8564 0.7524 0.0
C2022 C 0.36558 0.37516 0.78191 0.0
C2023 C 0.36068 0.36749 0.80144 0.0
C2024 C 0.35072 0.38509 0.77005 0.0
C2025 C 0.29977 0.41021 0.77304 0.0
H2026 H 0.2954 0.3943 0.71596 0.0
C2027 C 0.22631 0.42209 0.7257 0.0
C2028 C 0.22812 0.42753 0.70496 0.0
C2029 C 0.24369 0.41751 0.7373 0.0
C2030 C 0.2966 0.3992 0.73177 0.0
H2031 H 0.33654 0.36496 0.82411 0.0
H2032 H 0.31059 0.38192 0.80338 0.0
H2033 H 0.32371 0.3814 0.73661 0.0
H2034 H 0.24962 0.43292 0.6802 0.0
H2035 H 0.28007 0.42499 0.70054 0.0
H2036 H 0.27239 0.42765 0.7683 0.0
C2037 C 0.32594 0.38042 0.79724 0.0
C2038 C 0.31284 0.3918 0.74362 0.0
C2039 C 0.34075 0.37047 0.80905 0.0
C2040 C 0.24774 0.42875 0.69616 0.0
C2041 C 0.26516 0.4241 0.70777 0.0
C2042 C 0.28353 0.4176 0.7612 0.0
C2043 C 0.33067 0.38764 0.7775 0.0
C2044 C 0.31443 0.39695 0.76449 0.0
C2045 C 0.26331 0.41822 0.72843 0.0
C2046 C 0.28156 0.41191 0.74051 0.0
H2047 H 0.3807 0.37298 0.77548 0.0
H2048 H 0.35492 0.39064 0.75499 0.0
H2049 H 0.30075 0.41477 0.78897 0.0
H2050 H 0.21141 0.42097 0.73292 0.0
H2051 H 0.24168 0.41278 0.75308 0.0
C2052 C 0.91974 0.2806 0.78109 0.0
C2053 C 0.92607 0.27871 0.80157 0.0
C2054 C 0.91516 0.26321 0.76948 0.0
C2055 C 0.89863 0.20971 0.77534 0.0
H2056 H 0.91154 0.2065 0.71742 0.0
C2057 C 0.87396 0.14062 0.72569 0.0
C2058 C 0.86496 0.14565 0.70677 0.0
C2059 C 0.88423 0.15554 0.73716 0.0
C2060 C 0.90775 0.20721 0.73357 0.0
H2061 H 0.93309 0.2571 0.82581 0.0
H2062 H 0.92521 0.22668 0.80547 0.0
H2063 H 0.92455 0.23508 0.73772 0.0
H2064 H 0.86046 0.17004 0.68469 0.0
H2065 H 0.87805 0.19608 0.70476 0.0
H2066 H 0.88147 0.18209 0.77111 0.0
C2067 C 0.92358 0.24163 0.79846 0.0
C2068 C 0.9152 0.22358 0.74519 0.0
C2069 C 0.9282 0.25905 0.81007 0.0
C2070 C 0.867 0.16574 0.69932 0.0
C2071 C 0.87731 0.18061 0.71072 0.0
C2072 C 0.89119 0.19333 0.76371 0.0
C2073 C 0.91678 0.24353 0.7781 0.0
C2074 C 0.91044 0.22521 0.76614 0.0
C2075 C 0.88582 0.17577 0.7299 0.0
C2076 C 0.89537 0.19208 0.74262 0.0
H2077 H 0.91791 0.29555 0.77411 0.0
H2078 H 0.90972 0.26525 0.75394 0.0
H2079 H 0.89446 0.21063 0.79138 0.0
H2080 H 0.87254 0.12533 0.73194 0.0
H2081 H 0.89078 0.15128 0.7518 0.0
C2082 C 0.64059 0.63255 0.77892 0.0
C2083 C 0.64567 0.64036 0.79835 0.0
C2084 C 0.65537 0.62265 0.76696 0.0
C2085 C 0.7063 0.59762 0.76966 0.0
H2086 H 0.71078 0.61386 0.71268 0.0
C2087 C 0.77996 0.58605 0.72281 0.0
C2088 C 0.77831 0.58045 0.7021 0.0
C2089 C 0.7625 0.59077 0.73422 0.0
C2090 C 0.70954 0.60888 0.72846 0.0
H2091 H 0.67001 0.64319 0.82074 0.0
H2092 H 0.69583 0.6262 0.79985 0.0
H2093 H 0.68235 0.62656 0.73334 0.0
H2094 H 0.75704 0.57511 0.67715 0.0
H2095 H 0.72643 0.58333 0.69716 0.0
H2096 H 0.73372 0.58028 0.7649 0.0
C2097 C 0.68042 0.6276 0.79386 0.0
C2098 C 0.69325 0.61616 0.74031 0.0
C2099 C 0.66569 0.63755 0.80576 0.0
C2100 C 0.75879 0.57939 0.69309 0.0
C2101 C 0.74128 0.58419 0.70451 0.0
C2102 C 0.72258 0.59034 0.75783 0.0
C2103 C 0.67551 0.62023 0.77423 0.0
C2104 C 0.69165 0.61091 0.76115 0.0
C2105 C 0.74296 0.59005 0.72519 0.0
C2106 C 0.72461 0.59619 0.73719 0.0
H2107 H 0.62537 0.63462 0.77268 0.0
H2108 H 0.65107 0.61699 0.75196 0.0
H2109 H 0.7053 0.59299 0.78557 0.0
H2110 H 0.79479 0.58705 0.7302 0.0
H2111 H 0.76438 0.59552 0.75001 0.0
C2112 C 0.22529 0.08339 0.2797 0.0
C2113 C 0.20474 0.07728 0.27786 0.0
C2114 C 0.23679 0.08826 0.26232 0.0
C2115 C 0.23067 0.10595 0.20915 0.0
H2116 H 0.28848 0.09273 0.20533 0.0
C2117 C 0.28012 0.13115 0.13999 0.0
C2118 C 0.29918 0.13987 0.14498 0.0
C2119 C 0.26861 0.12088 0.1549 0.0
C2120 C 0.27236 0.09662 0.20622 0.0
H2121 H 0.18025 0.07099 0.25631 0.0
H2122 H 0.20041 0.07936 0.22589 0.0
H2123 H 0.26828 0.07934 0.2338 0.0
H2124 H 0.32144 0.14389 0.16928 0.0
H2125 H 0.30133 0.12628 0.19529 0.0
H2126 H 0.23484 0.12355 0.18179 0.0
C2127 C 0.20756 0.08059 0.24081 0.0
C2128 C 0.2608 0.08895 0.22253 0.0
C2129 C 0.19606 0.07567 0.25822 0.0
C2130 C 0.30671 0.13757 0.16502 0.0
C2131 C 0.29528 0.12726 0.17987 0.0
C2132 C 0.24224 0.11361 0.19283 0.0
C2133 C 0.228 0.08717 0.24267 0.0
C2134 C 0.23989 0.0938 0.22438 0.0
C2135 C 0.27598 0.119 0.17507 0.0
C2136 C 0.2633 0.10931 0.19135 0.0
H2137 H 0.23242 0.08483 0.29462 0.0
H2138 H 0.25239 0.09353 0.26435 0.0
H2139 H 0.21467 0.1102 0.21025 0.0
H2140 H 0.2738 0.13278 0.12476 0.0
H2141 H 0.25388 0.11453 0.15067 0.0
C2142 C 0.6554 0.21932 0.34538 0.0
C2143 C 0.64426 0.21025 0.3614 0.0
C2144 C 0.64565 0.23193 0.33113 0.0
C2145 C 0.59681 0.24113 0.30634 0.0
H2146 H 0.6211 0.29316 0.29091 0.0
C2147 C 0.58096 0.28287 0.22977 0.0
C2148 C 0.57831 0.30423 0.23039 0.0
C2149 C 0.58628 0.27207 0.24748 0.0
C2150 C 0.61401 0.27878 0.2952 0.0
H2151 H 0.61423 0.2072 0.37513 0.0
H2152 H 0.59692 0.22904 0.34977 0.0
H2153 H 0.63596 0.27334 0.319 0.0
H2154 H 0.57869 0.33097 0.25009 0.0
H2155 H 0.58833 0.31208 0.28101 0.0
H2156 H 0.57526 0.24628 0.28205 0.0
C2157 C 0.61326 0.22645 0.34842 0.0
C2158 C 0.62259 0.26739 0.31116 0.0
C2159 C 0.62313 0.21408 0.36294 0.0
C2160 C 0.58059 0.31451 0.24917 0.0
C2161 C 0.58619 0.30373 0.26683 0.0
C2162 C 0.5884 0.2524 0.29016 0.0
C2163 C 0.62447 0.23552 0.33242 0.0
C2164 C 0.61424 0.24834 0.31672 0.0
C2165 C 0.58932 0.28244 0.2661 0.0
C2166 C 0.59705 0.27123 0.28429 0.0
H2167 H 0.67174 0.21682 0.34398 0.0
H2168 H 0.65462 0.23859 0.31886 0.0
H2169 H 0.59016 0.22644 0.31026 0.0
H2170 H 0.57928 0.27454 0.21551 0.0
H2171 H 0.58877 0.25569 0.24643 0.0
C2172 C 0.78014 0.92 0.28162 0.0
C2173 C 0.80054 0.92646 0.2794 0.0
C2174 C 0.76836 0.91511 0.26442 0.0
C2175 C 0.7736 0.89805 0.21102 0.0
H2176 H 0.7158 0.91148 0.20802 0.0
C2177 C 0.72374 0.87434 0.14181 0.0
C2178 C 0.70454 0.86581 0.1466 0.0
C2179 C 0.73534 0.88421 0.15689 0.0
C2180 C 0.7319 0.90752 0.20868 0.0
H2181 H 0.8245 0.93331 0.25741 0.0
H2182 H 0.80388 0.92485 0.22734 0.0
H2183 H 0.73633 0.92435 0.2365 0.0
H2184 H 0.68217 0.86171 0.1708 0.0
H2185 H 0.70249 0.87854 0.19714 0.0
H2186 H 0.76912 0.88087 0.18346 0.0
C2187 C 0.79705 0.92338 0.2424 0.0
C2188 C 0.74366 0.91489 0.225 0.0
C2189 C 0.80882 0.92834 0.25961 0.0
C2190 C 0.697 0.86788 0.16667 0.0
C2191 C 0.70856 0.87776 0.18172 0.0
C2192 C 0.76184 0.89066 0.19472 0.0
C2193 C 0.77675 0.91652 0.24462 0.0
C2194 C 0.76458 0.91001 0.2265 0.0
C2195 C 0.72798 0.88583 0.17708 0.0
C2196 C 0.74079 0.89506 0.19351 0.0
H2197 H 0.77333 0.91837 0.29667 0.0
H2198 H 0.75287 0.90962 0.2667 0.0
H2199 H 0.78962 0.89377 0.21186 0.0
H2200 H 0.73011 0.87289 0.12657 0.0
H2201 H 0.75016 0.89044 0.15277 0.0
C2202 C 0.42916 0.69622 0.24808 0.0
C2203 C 0.42694 0.7045 0.22833 0.0
C2204 C 0.4244 0.70794 0.26538 0.0
C2205 C 0.41533 0.76124 0.28301 0.0
H2206 H 0.38182 0.7352 0.3246 0.0
C2207 C 0.36723 0.80702 0.34117 0.0
C2208 C 0.36527 0.79949 0.36125 0.0
C2209 C 0.37743 0.79565 0.32619 0.0
C2210 C 0.39147 0.74264 0.31333 0.0
H2211 H 0.41853 0.73172 0.21123 0.0
H2212 H 0.41011 0.7521 0.24134 0.0
H2213 H 0.39504 0.71493 0.29618 0.0
H2214 H 0.37288 0.77417 0.38138 0.0
H2215 H 0.39098 0.75443 0.35529 0.0
H2216 H 0.41142 0.78905 0.29998 0.0
C2217 C 0.41571 0.73663 0.24353 0.0
C2218 C 0.39905 0.73101 0.29702 0.0
C2219 C 0.42042 0.72491 0.22625 0.0
C2220 C 0.37423 0.78051 0.36613 0.0
C2221 C 0.38442 0.76909 0.35111 0.0
C2222 C 0.40776 0.77287 0.29933 0.0
C2223 C 0.41737 0.72821 0.26329 0.0
C2224 C 0.41081 0.74024 0.2815 0.0
C2225 C 0.38594 0.77644 0.3309 0.0
C2226 C 0.39547 0.76378 0.31452 0.0
H2227 H 0.43419 0.68054 0.25019 0.0
H2228 H 0.42607 0.70108 0.2804 0.0
H2229 H 0.42463 0.76874 0.27149 0.0
H2230 H 0.36072 0.82169 0.33697 0.0
H2231 H 0.37812 0.80169 0.31074 0.0
C2232 C 0.30833 0.8679 0.84129 0.0
C2233 C 0.30099 0.86529 0.86137 0.0
C2234 C 0.29627 0.87742 0.82641 0.0
C2235 C 0.24245 0.88844 0.81366 0.0
H2236 H 0.26681 0.92322 0.77209 0.0
C2237 C 0.19471 0.92537 0.74847 0.0
C2238 C 0.2033 0.92403 0.72878 0.0
C2239 C 0.20633 0.92031 0.76578 0.0
C2240 C 0.2598 0.91345 0.78353 0.0
H2241 H 0.27526 0.87103 0.88161 0.0
H2242 H 0.25431 0.888 0.85567 0.0
H2243 H 0.28772 0.911 0.80054 0.0
H2244 H 0.23086 0.91656 0.71177 0.0
H2245 H 0.25105 0.90767 0.74185 0.0
H2246 H 0.2146 0.89067 0.79645 0.0
C2247 C 0.26936 0.88244 0.85142 0.0
C2248 C 0.27178 0.90644 0.79983 0.0
C2249 C 0.28146 0.87292 0.86635 0.0
C2250 C 0.2238 0.9178 0.72674 0.0
C2251 C 0.23543 0.91283 0.744 0.0
C2252 C 0.23045 0.89549 0.79735 0.0
C2253 C 0.27655 0.88462 0.83121 0.0
C2254 C 0.26335 0.89357 0.81491 0.0
C2255 C 0.22681 0.91391 0.76372 0.0
C2256 C 0.23908 0.9078 0.78192 0.0
H2257 H 0.32338 0.86242 0.83701 0.0
H2258 H 0.30223 0.87861 0.81097 0.0
H2259 H 0.23552 0.87834 0.82486 0.0
H2260 H 0.17894 0.93013 0.75053 0.0
H2261 H 0.19931 0.92147 0.78077 0.0
C2262 C 0.42551 0.3117 0.75813 0.0
C2263 C 0.4242 0.30295 0.77776 0.0
C2264 C 0.42064 0.30013 0.74074 0.0
C2265 C 0.41402 0.24671 0.7226 0.0
H2266 H 0.37865 0.27121 0.68163 0.0
C2267 C 0.36738 0.19873 0.66524 0.0
C2268 C 0.36479 0.20608 0.64517 0.0
C2269 C 0.37723 0.21062 0.68004 0.0
C2270 C 0.38881 0.26423 0.69273 0.0
H2271 H 0.41708 0.27516 0.79455 0.0
H2272 H 0.40851 0.25509 0.76432 0.0
H2273 H 0.39115 0.29199 0.71006 0.0
H2274 H 0.37088 0.23165 0.62484 0.0
H2275 H 0.38834 0.25237 0.65065 0.0
H2276 H 0.41137 0.21885 0.7055 0.0
C2277 C 0.41349 0.27079 0.76228 0.0
C2278 C 0.39598 0.27614 0.70904 0.0
C2279 C 0.41827 0.28235 0.77964 0.0
C2280 C 0.37276 0.22545 0.6401 0.0
C2281 C 0.38257 0.23741 0.65495 0.0
C2282 C 0.40687 0.23481 0.7063 0.0
C2283 C 0.41448 0.27957 0.74263 0.0
C2284 C 0.40837 0.26742 0.72435 0.0
C2285 C 0.38472 0.23021 0.67515 0.0
C2286 C 0.39389 0.24333 0.69137 0.0
H2287 H 0.43006 0.32754 0.75621 0.0
H2288 H 0.42173 0.30728 0.7258 0.0
H2289 H 0.42385 0.23963 0.73394 0.0
H2290 H 0.36164 0.18378 0.66957 0.0
H2291 H 0.37842 0.20468 0.69549 0.0
C2292 C 0.80904 0.07677 0.74763 0.0
C2293 C 0.80055 0.07858 0.72792 0.0
C2294 C 0.7974 0.08163 0.76498 0.0
C2295 C 0.74404 0.09003 0.78285 0.0
H2296 H 0.76972 0.12413 0.82417 0.0
C2297 C 0.69767 0.13807 0.8405 0.0
C2298 C 0.70507 0.14024 0.86061 0.0
C2299 C 0.70922 0.12788 0.82565 0.0
C2300 C 0.76239 0.11432 0.81297 0.0
H2301 H 0.77308 0.08645 0.71097 0.0
H2302 H 0.75287 0.09502 0.74114 0.0
H2303 H 0.79011 0.11101 0.79576 0.0
H2304 H 0.73034 0.13303 0.88094 0.0
H2305 H 0.75045 0.11499 0.85503 0.0
H2306 H 0.71623 0.09368 0.79985 0.0
C2307 C 0.76842 0.08965 0.74326 0.0
C2308 C 0.77409 0.1068 0.79666 0.0
C2309 C 0.78006 0.08484 0.72594 0.0
C2310 C 0.72411 0.1315 0.86565 0.0
C2311 C 0.73573 0.12135 0.85074 0.0
C2312 C 0.73235 0.09755 0.79915 0.0
C2313 C 0.77702 0.08833 0.76298 0.0
C2314 C 0.76498 0.09483 0.78123 0.0
C2315 C 0.7285 0.11961 0.83051 0.0
C2316 C 0.7413 0.11007 0.81422 0.0
H2317 H 0.8248 0.07196 0.74966 0.0
H2318 H 0.80441 0.08023 0.77996 0.0
H2319 H 0.73663 0.08056 0.77141 0.0
H2320 H 0.68297 0.14441 0.83619 0.0
H2321 H 0.70327 0.12702 0.81018 0.0
C2322 C 0.58478 0.72403 0.77848 0.0
C2323 C 0.57928 0.7033 0.77678 0.0
C2324 C 0.58941 0.73552 0.76104 0.0
C2325 C 0.60765 0.72981 0.70811 0.0
H2326 H 0.59231 0.78708 0.70405 0.0
C2327 C 0.63207 0.78025 0.63939 0.0
C2328 C 0.63995 0.79965 0.6445 0.0
C2329 C 0.62203 0.76834 0.65412 0.0
C2330 C 0.59679 0.77113 0.705 0.0
H2331 H 0.5739 0.67842 0.75543 0.0
H2332 H 0.58192 0.69859 0.72486 0.0
H2333 H 0.57929 0.76641 0.73233 0.0
H2334 H 0.64276 0.82202 0.66887 0.0
H2335 H 0.62553 0.80121 0.6946 0.0
H2336 H 0.6255 0.73465 0.68102 0.0
C2337 C 0.58281 0.70589 0.73973 0.0
C2338 C 0.58933 0.75929 0.7212 0.0
C2339 C 0.5781 0.69438 0.75722 0.0
C2340 C 0.63707 0.80706 0.66451 0.0
C2341 C 0.62698 0.79522 0.67919 0.0
C2342 C 0.61511 0.74167 0.69189 0.0
C2343 C 0.58869 0.72656 0.74147 0.0
C2344 C 0.59497 0.73858 0.72316 0.0
C2345 C 0.61954 0.77561 0.67425 0.0
C2346 C 0.61007 0.76256 0.69036 0.0
H2347 H 0.58587 0.73135 0.79334 0.0
H2348 H 0.59417 0.7513 0.76298 0.0
H2349 H 0.61249 0.71399 0.7093 0.0
H2350 H 0.63418 0.77399 0.62418 0.0
H2351 H 0.61632 0.75338 0.64978 0.0
C2352 C 0.27896 0.22423 0.08321 0.0
C2353 C 0.27719 0.20345 0.07787 0.0
C2354 C 0.26158 0.23579 0.08785 0.0
C2355 C 0.20885 0.23026 0.10661 0.0
H2356 H 0.20467 0.28745 0.09099 0.0
C2357 C 0.14032 0.2808 0.13124 0.0
C2358 C 0.14541 0.30031 0.13887 0.0
C2359 C 0.15502 0.26883 0.12123 0.0
C2360 C 0.20566 0.27152 0.09556 0.0
H2361 H 0.25575 0.1786 0.07276 0.0
H2362 H 0.22527 0.19889 0.08082 0.0
H2363 H 0.2328 0.26668 0.0778 0.0
H2364 H 0.16974 0.32276 0.14131 0.0
H2365 H 0.19543 0.30183 0.12416 0.0
H2366 H 0.18195 0.23521 0.12471 0.0
C2367 C 0.24017 0.20617 0.08156 0.0
C2368 C 0.22177 0.25962 0.08799 0.0
C2369 C 0.2576 0.19458 0.07683 0.0
C2370 C 0.16539 0.30773 0.13582 0.0
C2371 C 0.18005 0.29581 0.12577 0.0
C2372 C 0.19273 0.24217 0.11418 0.0
C2373 C 0.24199 0.22686 0.08732 0.0
C2374 C 0.22376 0.23895 0.09371 0.0
C2375 C 0.17511 0.27613 0.11854 0.0
C2376 C 0.19115 0.26303 0.10903 0.0
H2377 H 0.29384 0.23151 0.08418 0.0
H2378 H 0.26358 0.2516 0.0925 0.0
H2379 H 0.21007 0.21446 0.11152 0.0
H2380 H 0.12515 0.27452 0.13349 0.0
H2381 H 0.15067 0.2538 0.11569 0.0
C2382 C 0.28162 0.78059 0.92399 0.0
C2383 C 0.27992 0.80187 0.92649 0.0
C2384 C 0.26465 0.76895 0.91818 0.0
C2385 C 0.20784 0.77024 0.91187 0.0
H2386 H 0.21925 0.72785 0.87187 0.0
C2387 C 0.14538 0.7149 0.88028 0.0
C2388 C 0.14694 0.70942 0.85952 0.0
C2389 C 0.16091 0.72634 0.8897 0.0
C2390 C 0.21572 0.73974 0.88289 0.0
H2391 H 0.25901 0.82765 0.92547 0.0
H2392 H 0.22943 0.80742 0.91473 0.0
H2393 H 0.24729 0.7474 0.88629 0.0
H2394 H 0.16534 0.71262 0.83207 0.0
H2395 H 0.19211 0.73278 0.84824 0.0
H2396 H 0.17607 0.76301 0.9077 0.0
C2397 C 0.24377 0.7996 0.91766 0.0
C2398 C 0.23189 0.75076 0.89145 0.0
C2399 C 0.26074 0.81123 0.92373 0.0
C2400 C 0.16396 0.71616 0.84822 0.0
C2401 C 0.17933 0.7277 0.85752 0.0
C2402 C 0.19159 0.75925 0.90317 0.0
C2403 C 0.24561 0.77835 0.91443 0.0
C2404 C 0.22821 0.76621 0.90601 0.0
C2405 C 0.17822 0.73266 0.87846 0.0
C2406 C 0.19534 0.74398 0.88842 0.0
H2407 H 0.29617 0.77292 0.92624 0.0
H2408 H 0.26655 0.75256 0.91636 0.0
H2409 H 0.20444 0.78189 0.92319 0.0
H2410 H 0.13244 0.70983 0.88934 0.0
H2411 H 0.15961 0.72977 0.90588 0.0
C2412 C 0.30907 0.24647 0.57749 0.0
C2413 C 0.30065 0.22676 0.57952 0.0
C2414 C 0.29748 0.26381 0.58246 0.0
C2415 C 0.24424 0.28162 0.59151 0.0
H2416 H 0.27039 0.32328 0.62484 0.0
C2417 C 0.19863 0.33984 0.63959 0.0
C2418 C 0.2061 0.35995 0.64144 0.0
C2419 C 0.20999 0.32487 0.62938 0.0
C2420 C 0.26293 0.31199 0.61524 0.0
H2421 H 0.27337 0.20977 0.58792 0.0
H2422 H 0.25323 0.23994 0.59672 0.0
H2423 H 0.29059 0.29473 0.61176 0.0
H2424 H 0.23127 0.38017 0.63361 0.0
H2425 H 0.25105 0.35405 0.61551 0.0
H2426 H 0.21649 0.29868 0.59535 0.0
C2427 C 0.26869 0.24207 0.59108 0.0
C2428 C 0.27451 0.2956 0.60775 0.0
C2429 C 0.28028 0.22475 0.58615 0.0
C2430 C 0.225 0.36488 0.63234 0.0
C2431 C 0.23643 0.34985 0.62216 0.0
C2432 C 0.23266 0.29801 0.59901 0.0
C2433 C 0.27722 0.2618 0.58951 0.0
C2434 C 0.26524 0.28005 0.59606 0.0
C2435 C 0.22915 0.32961 0.62076 0.0
C2436 C 0.2418 0.31321 0.61124 0.0
H2437 H 0.32473 0.24852 0.57238 0.0
H2438 H 0.30443 0.2788 0.58086 0.0
H2439 H 0.23671 0.2701 0.58225 0.0
H2440 H 0.18403 0.33561 0.64621 0.0
H2441 H 0.20401 0.3094 0.62878 0.0
C2442 C 0.86417 0.28075 0.87503 0.0
C2443 C 0.85901 0.29968 0.86612 0.0
C2444 C 0.84935 0.26917 0.88532 0.0
C2445 C 0.79783 0.27244 0.90917 0.0
H2446 H 0.79444 0.21472 0.89549 0.0
C2447 C 0.72454 0.22487 0.92116 0.0
C2448 C 0.72643 0.20435 0.92735 0.0
C2449 C 0.74193 0.23647 0.91656 0.0
C2450 C 0.79536 0.23073 0.89978 0.0
H2451 H 0.83449 0.32166 0.86181 0.0
H2452 H 0.80863 0.30141 0.87947 0.0
H2453 H 0.82287 0.23514 0.88249 0.0
H2454 H 0.74802 0.18001 0.93408 0.0
H2455 H 0.77845 0.20035 0.92617 0.0
H2456 H 0.77007 0.26812 0.9261 0.0
C2457 C 0.82412 0.29552 0.87862 0.0
C2458 C 0.81167 0.24244 0.89232 0.0
C2459 C 0.83889 0.30703 0.86828 0.0
C2460 C 0.74608 0.19579 0.92931 0.0
C2461 C 0.7635 0.20739 0.92466 0.0
C2462 C 0.78153 0.26073 0.91664 0.0
C2463 C 0.8291 0.27633 0.88704 0.0
C2464 C 0.8129 0.26351 0.89663 0.0
C2465 C 0.7616 0.22781 0.91803 0.0
C2466 C 0.77991 0.23982 0.91173 0.0
H2467 H 0.87948 0.27458 0.87351 0.0
H2468 H 0.85371 0.25452 0.8918 0.0
H2469 H 0.79852 0.28856 0.91306 0.0
H2470 H 0.70961 0.2319 0.91946 0.0
H2471 H 0.73989 0.25206 0.91123 0.0
C2472 C 0.72569 0.78012 0.58628 0.0
C2473 C 0.70514 0.77795 0.58025 0.0
C2474 C 0.73746 0.76291 0.59114 0.0
C2475 C 0.73251 0.70965 0.60876 0.0
H2476 H 0.78989 0.70637 0.59367 0.0
C2477 C 0.78289 0.64045 0.63151 0.0
C2478 C 0.80237 0.64523 0.6394 0.0
C2479 C 0.77103 0.6555 0.6219 0.0
C2480 C 0.77391 0.70711 0.59811 0.0
H2481 H 0.6809 0.75605 0.57423 0.0
H2482 H 0.70152 0.72595 0.58266 0.0
H2483 H 0.76908 0.73481 0.5812 0.0
H2484 H 0.82492 0.66938 0.64263 0.0
H2485 H 0.80416 0.69567 0.62624 0.0
H2486 H 0.73742 0.6822 0.626 0.0
C2487 C 0.70846 0.74098 0.58379 0.0
C2488 C 0.76199 0.72341 0.59096 0.0
C2489 C 0.6967 0.7582 0.57885 0.0
C2490 C 0.8099 0.66525 0.63695 0.0
C2491 C 0.79808 0.68027 0.62732 0.0
C2492 C 0.74444 0.69337 0.61593 0.0
C2493 C 0.72894 0.74315 0.59014 0.0
C2494 C 0.74122 0.72503 0.59644 0.0
C2495 C 0.7784 0.67565 0.6199 0.0
C2496 C 0.76536 0.69206 0.61093 0.0
H2497 H 0.73263 0.79514 0.58754 0.0
H2498 H 0.75309 0.76516 0.59624 0.0
H2499 H 0.71663 0.71058 0.61348 0.0
H2500 H 0.77652 0.62525 0.63329 0.0
H2501 H 0.75601 0.65138 0.61616 0.0
C2502 C 0.86591 0.72697 0.13251 0.0
C2503 C 0.86093 0.70753 0.14036 0.0
C2504 C 0.85106 0.73883 0.12257 0.0
C2505 C 0.80008 0.73581 0.09758 0.0
H2506 H 0.7955 0.79289 0.11343 0.0
C2507 C 0.72634 0.78261 0.08565 0.0
C2508 C 0.72798 0.80334 0.08012 0.0
C2509 C 0.7438 0.77118 0.09034 0.0
C2510 C 0.79676 0.77708 0.10855 0.0
H2511 H 0.83669 0.68503 0.14323 0.0
H2512 H 0.81078 0.70575 0.1262 0.0
H2513 H 0.82397 0.77237 0.12626 0.0
H2514 H 0.74928 0.82827 0.07478 0.0
H2515 H 0.77988 0.80823 0.08291 0.0
H2516 H 0.77264 0.7404 0.08022 0.0
C2517 C 0.82616 0.71182 0.12758 0.0
C2518 C 0.81308 0.76531 0.11591 0.0
C2519 C 0.84095 0.70002 0.13757 0.0
C2520 C 0.74752 0.81232 0.07901 0.0
C2521 C 0.76503 0.80088 0.08378 0.0
C2522 C 0.78376 0.74757 0.09023 0.0
C2523 C 0.83096 0.73146 0.12017 0.0
C2524 C 0.81473 0.74444 0.1108 0.0
C2525 C 0.76335 0.78021 0.08966 0.0
C2526 C 0.78171 0.76825 0.09592 0.0
H2527 H 0.8811 0.73329 0.13455 0.0
H2528 H 0.85529 0.75384 0.11688 0.0
H2529 H 0.80111 0.71988 0.09306 0.0
H2530 H 0.7115 0.77524 0.08668 0.0
H2531 H 0.74191 0.75539 0.0951 0.0
C2532 C 0.22549 0.63909 0.37479 0.0
C2533 C 0.20624 0.64416 0.36653 0.0
C2534 C 0.23729 0.65394 0.3848 0.0
C2535 C 0.23417 0.70508 0.40939 0.0
H2536 H 0.2916 0.70909 0.39471 0.0
C2537 C 0.2814 0.77839 0.42219 0.0
C2538 C 0.30203 0.77656 0.42803 0.0
C2539 C 0.26989 0.76103 0.41732 0.0
C2540 C 0.27568 0.70799 0.39926 0.0
H2541 H 0.18401 0.66856 0.36299 0.0
H2542 H 0.20462 0.69447 0.38016 0.0
H2543 H 0.2711 0.68076 0.38155 0.0
H2544 H 0.32668 0.75505 0.43379 0.0
H2545 H 0.30649 0.72462 0.42541 0.0
H2546 H 0.23864 0.73252 0.42678 0.0
C2547 C 0.21059 0.67902 0.37903 0.0
C2548 C 0.26392 0.69175 0.39171 0.0
C2549 C 0.19886 0.66423 0.36897 0.0
C2550 C 0.31081 0.75694 0.42933 0.0
C2551 C 0.29929 0.73954 0.42441 0.0
C2552 C 0.24592 0.72131 0.41694 0.0
C2553 C 0.23004 0.67412 0.38688 0.0
C2554 C 0.24294 0.6903 0.3964 0.0
C2555 C 0.27874 0.7414 0.41817 0.0
C2556 C 0.26673 0.72315 0.41169 0.0
H2557 H 0.23171 0.62383 0.37302 0.0
H2558 H 0.25214 0.64963 0.39083 0.0
H2559 H 0.21813 0.70421 0.41358 0.0
H2560 H 0.2742 0.7933 0.42099 0.0
H2561 H 0.25421 0.76306 0.4123 0.0
C2562 C 0.69647 0.24732 0.43006 0.0
C2563 C 0.70489 0.22761 0.42801 0.0
C2564 C 0.70809 0.26466 0.4252 0.0
C2565 C 0.76136 0.28248 0.41623 0.0
H2566 H 0.73523 0.32402 0.38273 0.0
C2567 C 0.80693 0.34029 0.36764 0.0
C2568 C 0.79951 0.36041 0.36571 0.0
C2569 C 0.79558 0.32542 0.37802 0.0
C2570 C 0.74269 0.31276 0.39237 0.0
H2571 H 0.73222 0.21062 0.41976 0.0
H2572 H 0.75242 0.2408 0.41115 0.0
H2573 H 0.71502 0.29555 0.39593 0.0
H2574 H 0.77446 0.38077 0.37355 0.0
H2575 H 0.75469 0.35481 0.39191 0.0
H2576 H 0.78913 0.29949 0.41229 0.0
C2577 C 0.73693 0.24293 0.41672 0.0
C2578 C 0.7311 0.29642 0.39995 0.0
C2579 C 0.72531 0.22561 0.42154 0.0
C2580 C 0.78068 0.36546 0.37489 0.0
C2581 C 0.76926 0.35053 0.38522 0.0
C2582 C 0.77295 0.29882 0.40865 0.0
C2583 C 0.72839 0.26266 0.41825 0.0
C2584 C 0.74036 0.28091 0.41169 0.0
C2585 C 0.77649 0.33028 0.38671 0.0
C2586 C 0.76383 0.31397 0.39636 0.0
H2587 H 0.68077 0.24936 0.43505 0.0
H2588 H 0.70114 0.27965 0.42678 0.0
H2589 H 0.76889 0.27098 0.42553 0.0
H2590 H 0.82148 0.33597 0.36096 0.0
H2591 H 0.80152 0.30993 0.37868 0.0
loop_
_geom_bond_atom_site_label_1
_geom_bond_atom_site_label_2
_geom_bond_distance
_geom_bond_site_symmetry_2
_ccdc_geom_bond_type
Co0 N4 2.148 . S
Co0 N10 2.128 . S
Co0 N20 2.194 . S
Co0 O25 2.351 . S
Co0 O26 2.155 . S
Co0 O27 2.096 . S
C1 N4 1.301 . S
C1 N5 1.328 . S
C1 H6 0.930 . S
C2 C3 1.333 . S
C2 N4 1.317 . S
C2 H7 0.930 . S
C3 C2 1.333 . S
C3 N5 1.350 . S
C3 H29 0.931 . S
N4 Co0 2.148 . S
N4 C1 1.301 . S
N4 C2 1.317 . S
N5 C1 1.328 . S
N5 C3 1.350 . S
H6 C1 0.930 . S
H7 C2 0.930 . S
C8 O9 1.224 . S
C8 O27 1.247 . S
O9 C8 1.224 . S
N10 Co0 2.128 . S
N10 C11 1.355 . S
N10 C13 1.311 . S
C11 N10 1.355 . S
C11 C12 1.363 . S
C11 H23 0.929 . S
C12 C11 1.363 . S
C12 N14 1.375 . S
C12 H30 0.931 1_455 S
C13 N10 1.311 . S
C13 N14 1.347 . S
C13 H24 0.929 . S
N14 C12 1.375 . S
N14 C13 1.347 . S
C15 C18 1.365 . S
C15 N20 1.328 . S
C15 H21 0.929 . S
C16 C17 1.362 . S
C16 C19 1.378 . S
C16 H31 0.929 . S
C17 C16 1.362 . S
C17 C18 1.366 . S
C18 C15 1.365 . S
C18 C17 1.366 . S
C18 H32 0.930 . S
C19 C16 1.378 . S
C19 N20 1.315 . S
C19 H22 0.930 . S
N20 Co0 2.194 . S
N20 C15 1.328 . S
N20 C19 1.315 . S
H21 C15 0.929 . S
H22 C19 0.930 . S
H23 C11 0.929 . S
H24 C13 0.929 . S
O25 Co0 2.351 . S
O25 C28 1.244 . S
O26 Co0 2.155 . S
O26 C28 1.240 . S
O27 Co0 2.096 . S
O27 C8 1.247 . S
C28 O25 1.244 . S
C28 O26 1.240 . S
H29 C3 0.931 . S
H30 C12 0.931 1_655 S
H31 C16 0.929 . S
H32 C18 0.930 . S
Co33 N37 2.148 . S
Co33 N43 2.128 . S
Co33 N53 2.194 . S
Co33 O58 2.351 . S
Co33 O59 2.155 . S
Co33 O60 2.096 . S
C34 N37 1.301 . S
C34 N38 1.328 . S
C34 H39 0.930 . S
C35 C36 1.333 . S
C35 N37 1.317 . S
C35 H40 0.930 . S
C36 C35 1.333 . S
C36 N38 1.350 . S
C36 H62 0.931 . S
N37 Co33 2.148 . S
N37 C34 1.301 . S
N37 C35 1.317 . S
N38 C34 1.328 . S
N38 C36 1.350 . S
H39 C34 0.930 . S
H40 C35 0.930 . S
C41 O42 1.224 . S
C41 O60 1.247 . S
O42 C41 1.224 . S
N43 Co33 2.128 . S
N43 C44 1.355 . S
N43 C46 1.311 . S
C44 N43 1.355 . S
C44 C45 1.363 . S
C44 H56 0.929 . S
C45 C44 1.363 . S
C45 N47 1.375 . S
C45 H63 0.931 . S
C46 N43 1.311 . S
C46 N47 1.347 . S
C46 H57 0.929 . S
N47 C45 1.375 . S
N47 C46 1.347 . S
C48 C51 1.365 . S
C48 N53 1.328 . S
C48 H54 0.929 . S
C49 C50 1.362 . S
C49 C52 1.378 . S
C49 H64 0.929 . S
C50 C49 1.362 . S
C50 C51 1.366 . S
C51 C48 1.365 . S
C51 C50 1.366 . S
C51 H65 0.930 . S
C52 C49 1.378 . S
C52 N53 1.315 . S
C52 H55 0.930 . S
N53 Co33 2.194 . S
N53 C48 1.328 . S
N53 C52 1.315 . S
H54 C48 0.929 . S
H55 C52 0.930 . S
H56 C44 0.929 . S
H57 C46 0.929 . S
O58 Co33 2.351 . S
O58 C61 1.244 . S
O59 Co33 2.155 . S
O59 C61 1.240 . S
O60 Co33 2.096 . S
O60 C41 1.247 . S
C61 O58 1.244 . S
C61 O59 1.240 . S
H62 C36 0.931 . S
H63 C45 0.931 . S
H64 C49 0.929 . S
H65 C51 0.930 . S
Co66 N70 2.148 . S
Co66 N76 2.128 . S
Co66 N86 2.194 . S
Co66 O91 2.351 . S
Co66 O92 2.155 . S
Co66 O93 2.096 . S
C67 N70 1.301 . S
C67 N71 1.328 . S
C67 H72 0.930 . S
C68 C69 1.333 . S
C68 N70 1.317 . S
C68 H73 0.930 . S
C69 C68 1.333 . S
C69 N71 1.350 . S
C69 H95 0.931 . S
N70 Co66 2.148 . S
N70 C67 1.301 . S
N70 C68 1.317 . S
N71 C67 1.328 . S
N71 C69 1.350 . S
H72 C67 0.930 . S
H73 C68 0.930 . S
C74 O75 1.224 . S
C74 O93 1.247 . S
O75 C74 1.224 . S
N76 Co66 2.128 . S
N76 C77 1.355 . S
N76 C79 1.311 . S
C77 N76 1.355 . S
C77 C78 1.363 . S
C77 H89 0.929 . S
C78 C77 1.363 . S
C78 N80 1.375 . S
C78 H96 0.931 1_655 S
C79 N76 1.311 . S
C79 N80 1.347 . S
C79 H90 0.929 . S
N80 C78 1.375 . S
N80 C79 1.347 . S
C81 C84 1.365 . S
C81 N86 1.328 . S
C81 H87 0.929 . S
C82 C83 1.362 . S
C82 C85 1.378 . S
C82 H97 0.929 . S
C83 C82 1.362 . S
C83 C84 1.366 . S
C84 C81 1.365 . S
C84 C83 1.366 . S
C84 H98 0.930 . S
C85 C82 1.378 . S
C85 N86 1.315 . S
C85 H88 0.930 . S
N86 Co66 2.194 . S
N86 C81 1.328 . S
N86 C85 1.315 . S
H87 C81 0.929 . S
H88 C85 0.930 . S
H89 C77 0.929 . S
H90 C79 0.929 . S
O91 Co66 2.351 . S
O91 C94 1.244 . S
O92 Co66 2.155 . S
O92 C94 1.240 . S
O93 Co66 2.096 . S
O93 C74 1.247 . S
C94 O91 1.244 . S
C94 O92 1.240 . S
H95 C69 0.931 . S
H96 C78 0.931 1_455 S
H97 C82 0.929 . S
H98 C84 0.930 . S
Co99 N103 2.148 . S
Co99 N109 2.128 . S
Co99 N119 2.194 . S
Co99 O124 2.351 . S
Co99 O125 2.155 . S
Co99 O126 2.096 . S
C100 N103 1.301 . S
C100 N104 1.328 . S
C100 H105 0.930 . S
C101 C102 1.333 . S
C101 N103 1.317 . S
C101 H106 0.930 . S
C102 C101 1.333 . S
C102 N104 1.350 . S
C102 H128 0.931 . S
N103 Co99 2.148 . S
N103 C100 1.301 . S
N103 C101 1.317 . S
N104 C100 1.328 . S
N104 C102 1.350 . S
H105 C100 0.930 . S
H106 C101 0.930 . S
C107 O108 1.224 . S
C107 O126 1.247 . S
O108 C107 1.224 . S
N109 Co99 2.128 . S
N109 C110 1.355 . S
N109 C112 1.311 . S
C110 N109 1.355 . S
C110 C111 1.363 . S
C110 H122 0.929 . S
C111 C110 1.363 . S
C111 N113 1.375 . S
C111 H129 0.931 . S
C112 N109 1.311 . S
C112 N113 1.347 . S
C112 H123 0.929 . S
N113 C111 1.375 . S
N113 C112 1.347 . S
C114 C117 1.365 . S
C114 N119 1.328 . S
C114 H120 0.929 . S
C115 C116 1.362 . S
C115 C118 1.378 . S
C115 H130 0.929 . S
C116 C115 1.362 . S
C116 C117 1.366 . S
C117 C114 1.365 . S
C117 C116 1.366 . S
C117 H131 0.930 . S
C118 C115 1.378 . S
C118 N119 1.315 . S
C118 H121 0.930 . S
N119 Co99 2.194 . S
N119 C114 1.328 . S
N119 C118 1.315 . S
H120 C114 0.929 . S
H121 C118 0.930 . S
H122 C110 0.929 . S
H123 C112 0.929 . S
O124 Co99 2.351 . S
O124 C127 1.244 . S
O125 Co99 2.155 . S
O125 C127 1.240 . S
O126 Co99 2.096 . S
O126 C107 1.247 . S
C127 O124 1.244 . S
C127 O125 1.240 . S
H128 C102 0.931 . S
H129 C111 0.931 . S
H130 C115 0.929 . S
H131 C117 0.930 . S
Co132 N136 2.148 . S
Co132 N142 2.128 . S
Co132 N152 2.194 . S
Co132 O157 2.351 . S
Co132 O158 2.155 . S
Co132 O159 2.096 . S
C133 N136 1.301 . S
C133 N137 1.328 . S
C133 H138 0.930 . S
C134 C135 1.333 . S
C134 N136 1.317 . S
C134 H139 0.930 . S
C135 C134 1.333 . S
C135 N137 1.350 . S
C135 H161 0.931 . S
N136 Co132 2.148 . S
N136 C133 1.301 . S
N136 C134 1.317 . S
N137 C133 1.328 . S
N137 C135 1.350 . S
H138 C133 0.930 . S
H139 C134 0.930 . S
C140 O141 1.224 . S
C140 O159 1.247 . S
O141 C140 1.224 . S
N142 Co132 2.128 . S
N142 C143 1.355 . S
N142 C145 1.311 . S
C143 N142 1.355 . S
C143 C144 1.363 . S
C143 H155 0.929 . S
C144 C143 1.363 . S
C144 N146 1.375 . S
C144 H162 0.931 1_455 S
C145 N142 1.311 . S
C145 N146 1.347 . S
C145 H156 0.929 . S
N146 C144 1.375 . S
N146 C145 1.347 . S
C147 C150 1.365 . S
C147 N152 1.328 . S
C147 H153 0.929 . S
C148 C149 1.362 . S
C148 C151 1.378 . S
C148 H163 0.929 . S
C149 C148 1.362 . S
C149 C150 1.366 . S
C150 C147 1.365 . S
C150 C149 1.366 . S
C150 H164 0.930 . S
C151 C148 1.378 . S
C151 N152 1.315 . S
C151 H154 0.930 . S
N152 Co132 2.194 . S
N152 C147 1.328 . S
N152 C151 1.315 . S
H153 C147 0.929 . S
H154 C151 0.930 . S
H155 C143 0.929 . S
H156 C145 0.929 . S
O157 Co132 2.351 . S
O157 C160 1.244 . S
O158 Co132 2.155 . S
O158 C160 1.240 . S
O159 Co132 2.096 . S
O159 C140 1.247 . S
C160 O157 1.244 . S
C160 O158 1.240 . S
H161 C135 0.931 . S
H162 C144 0.931 1_655 S
H163 C148 0.929 . S
H164 C150 0.930 . S
Co165 N169 2.148 . S
Co165 N175 2.128 . S
Co165 N185 2.194 . S
Co165 O190 2.351 . S
Co165 O191 2.155 . S
Co165 O192 2.096 . S
C166 N169 1.301 . S
C166 N170 1.328 . S
C166 H171 0.930 . S
C167 C168 1.333 . S
C167 N169 1.317 . S
C167 H172 0.930 . S
C168 C167 1.333 . S
C168 N170 1.350 . S
C168 H194 0.931 . S
N169 Co165 2.148 . S
N169 C166 1.301 . S
N169 C167 1.317 . S
N170 C166 1.328 . S
N170 C168 1.350 . S
H171 C166 0.930 . S
H172 C167 0.930 . S
C173 O174 1.224 . S
C173 O192 1.247 . S
O174 C173 1.224 . S
N175 Co165 2.128 . S
N175 C176 1.355 . S
N175 C178 1.311 . S
C176 N175 1.355 . S
C176 C177 1.363 . S
C176 H188 0.929 . S
C177 C176 1.363 . S
C177 N179 1.375 . S
C177 H195 0.931 . S
C178 N175 1.311 . S
C178 N179 1.347 . S
C178 H189 0.929 . S
N179 C177 1.375 . S
N179 C178 1.347 . S
C180 C183 1.365 . S
C180 N185 1.328 . S
C180 H186 0.929 . S
C181 C182 1.362 . S
C181 C184 1.378 . S
C181 H196 0.929 . S
C182 C181 1.362 . S
C182 C183 1.366 . S
C183 C180 1.365 . S
C183 C182 1.366 . S
C183 H197 0.930 . S
C184 C181 1.378 . S
C184 N185 1.315 . S
C184 H187 0.930 . S
N185 Co165 2.194 . S
N185 C180 1.328 . S
N185 C184 1.315 . S
H186 C180 0.929 . S
H187 C184 0.930 . S
H188 C176 0.929 . S
H189 C178 0.929 . S
O190 Co165 2.351 . S
O190 C193 1.244 . S
O191 Co165 2.155 . S
O191 C193 1.240 . S
O192 Co165 2.096 . S
O192 C173 1.247 . S
C193 O190 1.244 . S
C193 O191 1.240 . S
H194 C168 0.931 . S
H195 C177 0.931 . S
H196 C181 0.929 . S
H197 C183 0.930 . S
Co198 N202 2.148 . S
Co198 N208 2.128 . S
Co198 N218 2.194 . S
Co198 O223 2.351 . S
Co198 O224 2.155 . S
Co198 O225 2.096 . S
C199 N202 1.301 . S
C199 N203 1.328 . S
C199 H204 0.930 . S
C200 C201 1.333 . S
C200 N202 1.317 . S
C200 H205 0.930 . S
C201 C200 1.333 . S
C201 N203 1.350 . S
C201 H227 0.931 . S
N202 Co198 2.148 . S
N202 C199 1.301 . S
N202 C200 1.317 . S
N203 C199 1.328 . S
N203 C201 1.350 . S
H204 C199 0.930 . S
H205 C200 0.930 . S
C206 O207 1.224 . S
C206 O225 1.247 . S
O207 C206 1.224 . S
N208 Co198 2.128 . S
N208 C209 1.355 . S
N208 C211 1.311 . S
C209 N208 1.355 . S
C209 C210 1.363 . S
C209 H221 0.929 . S
C210 C209 1.363 . S
C210 N212 1.375 . S
C210 H228 0.931 1_655 S
C211 N208 1.311 . S
C211 N212 1.347 . S
C211 H222 0.929 . S
N212 C210 1.375 . S
N212 C211 1.347 . S
C213 C216 1.365 . S
C213 N218 1.328 . S
C213 H219 0.929 . S
C214 C215 1.362 . S
C214 C217 1.378 . S
C214 H229 0.929 . S
C215 C214 1.362 . S
C215 C216 1.366 . S
C216 C213 1.365 . S
C216 C215 1.366 . S
C216 H230 0.930 . S
C217 C214 1.378 . S
C217 N218 1.315 . S
C217 H220 0.930 . S
N218 Co198 2.194 . S
N218 C213 1.328 . S
N218 C217 1.315 . S
H219 C213 0.929 . S
H220 C217 0.930 . S
H221 C209 0.929 . S
H222 C211 0.929 . S
O223 Co198 2.351 . S
O223 C226 1.244 . S
O224 Co198 2.155 . S
O224 C226 1.240 . S
O225 Co198 2.096 . S
O225 C206 1.247 . S
C226 O223 1.244 . S
C226 O224 1.240 . S
H227 C201 0.931 . S
H228 C210 0.931 1_455 S
H229 C214 0.929 . S
H230 C216 0.930 . S
Co231 N235 2.148 . S
Co231 N241 2.128 . S
Co231 N251 2.194 . S
Co231 O256 2.351 . S
Co231 O257 2.155 . S
Co231 O258 2.096 . S
C232 N235 1.301 . S
C232 N236 1.328 . S
C232 H237 0.930 . S
C233 C234 1.333 . S
C233 N235 1.317 . S
C233 H238 0.930 . S
C234 C233 1.333 . S
C234 N236 1.350 . S
C234 H260 0.931 . S
N235 Co231 2.148 . S
N235 C232 1.301 . S
N235 C233 1.317 . S
N236 C232 1.328 . S
N236 C234 1.350 . S
H237 C232 0.930 . S
H238 C233 0.930 . S
C239 O240 1.224 . S
C239 O258 1.247 . S
O240 C239 1.224 . S
N241 Co231 2.128 . S
N241 C242 1.355 . S
N241 C244 1.311 . S
C242 N241 1.355 . S
C242 C243 1.363 . S
C242 H254 0.929 . S
C243 C242 1.363 . S
C243 N245 1.375 . S
C243 H261 0.931 . S
C244 N241 1.311 . S
C244 N245 1.347 . S
C244 H255 0.929 . S
N245 C243 1.375 . S
N245 C244 1.347 . S
C246 C249 1.365 . S
C246 N251 1.328 . S
C246 H252 0.929 . S
C247 C248 1.362 . S
C247 C250 1.378 . S
C247 H262 0.929 . S
C248 C247 1.362 . S
C248 C249 1.366 . S
C249 C246 1.365 . S
C249 C248 1.366 . S
C249 H263 0.930 . S
C250 C247 1.378 . S
C250 N251 1.315 . S
C250 H253 0.930 . S
N251 Co231 2.194 . S
N251 C246 1.328 . S
N251 C250 1.315 . S
H252 C246 0.929 . S
H253 C250 0.930 . S
H254 C242 0.929 . S
H255 C244 0.929 . S
O256 Co231 2.351 . S
O256 C259 1.244 . S
O257 Co231 2.155 . S
O257 C259 1.240 . S
O258 Co231 2.096 . S
O258 C239 1.247 . S
C259 O256 1.244 . S
C259 O257 1.240 . S
H260 C234 0.931 . S
H261 C243 0.931 . S
H262 C247 0.929 . S
H263 C249 0.930 . S
Co264 N268 2.148 . S
Co264 N274 2.128 . S
Co264 N284 2.194 . S
Co264 O289 2.351 . S
Co264 O290 2.155 . S
Co264 O291 2.096 . S
C265 N268 1.301 . S
C265 N269 1.328 . S
C265 H270 0.930 . S
C266 C267 1.333 . S
C266 N268 1.317 . S
C266 H271 0.930 . S
C267 C266 1.333 . S
C267 N269 1.350 . S
C267 H293 0.931 . S
N268 Co264 2.148 . S
N268 C265 1.301 . S
N268 C266 1.317 . S
N269 C265 1.328 . S
N269 C267 1.350 . S
H270 C265 0.930 . S
H271 C266 0.930 . S
C272 O273 1.224 . S
C272 O291 1.247 . S
O273 C272 1.224 . S
N274 Co264 2.128 . S
N274 C275 1.355 . S
N274 C277 1.311 . S
C275 N274 1.355 . S
C275 C276 1.363 . S
C275 H287 0.929 . S
C276 C275 1.363 . S
C276 N278 1.375 . S
C276 H294 0.931 1_545 S
C277 N274 1.311 . S
C277 N278 1.347 . S
C277 H288 0.929 . S
N278 C276 1.375 . S
N278 C277 1.347 . S
C279 C282 1.365 . S
C279 N284 1.328 . S
C279 H285 0.929 . S
C280 C281 1.362 . S
C280 C283 1.378 . S
C280 H295 0.929 . S
C281 C280 1.362 . S
C281 C282 1.366 . S
C282 C279 1.365 . S
C282 C281 1.366 . S
C282 H296 0.930 . S
C283 C280 1.378 . S
C283 N284 1.315 . S
C283 H286 0.930 . S
N284 Co264 2.194 . S
N284 C279 1.328 . S
N284 C283 1.315 . S
H285 C279 0.929 . S
H286 C283 0.930 . S
H287 C275 0.929 . S
H288 C277 0.929 . S
O289 Co264 2.351 . S
O289 C292 1.244 . S
O290 Co264 2.155 . S
O290 C292 1.240 . S
O291 Co264 2.096 . S
O291 C272 1.247 . S
C292 O289 1.244 . S
C292 O290 1.240 . S
H293 C267 0.931 . S
H294 C276 0.931 1_565 S
H295 C280 0.929 . S
H296 C282 0.930 . S
Co297 N301 2.148 . S
Co297 N307 2.128 . S
Co297 N317 2.194 . S
Co297 O322 2.351 . S
Co297 O323 2.155 . S
Co297 O324 2.096 . S
C298 N301 1.301 . S
C298 N302 1.328 . S
C298 H303 0.930 . S
C299 C300 1.333 . S
C299 N301 1.317 . S
C299 H304 0.930 . S
C300 C299 1.333 . S
C300 N302 1.350 . S
C300 H326 0.931 . S
N301 Co297 2.148 . S
N301 C298 1.301 . S
N301 C299 1.317 . S
N302 C298 1.328 . S
N302 C300 1.350 . S
H303 C298 0.930 . S
H304 C299 0.930 . S
C305 O306 1.224 . S
C305 O324 1.247 . S
O306 C305 1.224 . S
N307 Co297 2.128 . S
N307 C308 1.355 . S
N307 C310 1.311 . S
C308 N307 1.355 . S
C308 C309 1.363 . S
C308 H320 0.929 . S
C309 C308 1.363 . S
C309 N311 1.375 . S
C309 H327 0.931 . S
C310 N307 1.311 . S
C310 N311 1.347 . S
C310 H321 0.929 . S
N311 C309 1.375 . S
N311 C310 1.347 . S
C312 C315 1.365 . S
C312 N317 1.328 . S
C312 H318 0.929 . S
C313 C314 1.362 . S
C313 C316 1.378 . S
C313 H328 0.929 . S
C314 C313 1.362 . S
C314 C315 1.366 . S
C315 C312 1.365 . S
C315 C314 1.366 . S
C315 H329 0.930 . S
C316 C313 1.378 . S
C316 N317 1.315 . S
C316 H319 0.930 . S
N317 Co297 2.194 . S
N317 C312 1.328 . S
N317 C316 1.315 . S
H318 C312 0.929 . S
H319 C316 0.930 . S
H320 C308 0.929 . S
H321 C310 0.929 . S
O322 Co297 2.351 . S
O322 C325 1.244 . S
O323 Co297 2.155 . S
O323 C325 1.240 . S
O324 Co297 2.096 . S
O324 C305 1.247 . S
C325 O322 1.244 . S
C325 O323 1.240 . S
H326 C300 0.931 . S
H327 C309 0.931 . S
H328 C313 0.929 . S
H329 C315 0.930 . S
Co330 N334 2.148 . S
Co330 N340 2.128 . S
Co330 N350 2.194 . S
Co330 O355 2.351 . S
Co330 O356 2.155 . S
Co330 O357 2.096 . S
C331 N334 1.301 . S
C331 N335 1.328 . S
C331 H336 0.930 . S
C332 C333 1.333 . S
C332 N334 1.317 . S
C332 H337 0.930 . S
C333 C332 1.333 . S
C333 N335 1.350 . S
C333 H359 0.931 . S
N334 Co330 2.148 . S
N334 C331 1.301 . S
N334 C332 1.317 . S
N335 C331 1.328 . S
N335 C333 1.350 . S
H336 C331 0.930 . S
H337 C332 0.930 . S
C338 O339 1.224 . S
C338 O357 1.247 . S
O339 C338 1.224 . S
N340 Co330 2.128 . S
N340 C341 1.355 . S
N340 C343 1.311 . S
C341 N340 1.355 . S
C341 C342 1.363 . S
C341 H353 0.929 . S
C342 C341 1.363 . S
C342 N344 1.375 . S
C342 H360 0.931 1_565 S
C343 N340 1.311 . S
C343 N344 1.347 . S
C343 H354 0.929 . S
N344 C342 1.375 . S
N344 C343 1.347 . S
C345 C348 1.365 . S
C345 N350 1.328 . S
C345 H351 0.929 . S
C346 C347 1.362 . S
C346 C349 1.378 . S
C346 H361 0.929 . S
C347 C346 1.362 . S
C347 C348 1.366 . S
C348 C345 1.365 . S
C348 C347 1.366 . S
C348 H362 0.930 . S
C349 C346 1.378 . S
C349 N350 1.315 . S
C349 H352 0.930 . S
N350 Co330 2.194 . S
N350 C345 1.328 . S
N350 C349 1.315 . S
H351 C345 0.929 . S
H352 C349 0.930 . S
H353 C341 0.929 . S
H354 C343 0.929 . S
O355 Co330 2.351 . S
O355 C358 1.244 . S
O356 Co330 2.155 . S
O356 C358 1.240 . S
O357 Co330 2.096 . S
O357 C338 1.247 . S
C358 O355 1.244 . S
C358 O356 1.240 . S
H359 C333 0.931 . S
H360 C342 0.931 1_545 S
H361 C346 0.929 . S
H362 C348 0.930 . S
Co363 N367 2.148 . S
Co363 N373 2.128 . S
Co363 N383 2.194 . S
Co363 O388 2.351 . S
Co363 O389 2.155 . S
Co363 O390 2.096 . S
C364 N367 1.301 . S
C364 N368 1.328 . S
C364 H369 0.930 . S
C365 C366 1.333 . S
C365 N367 1.317 . S
C365 H370 0.930 . S
C366 C365 1.333 . S
C366 N368 1.350 . S
C366 H392 0.931 . S
N367 Co363 2.148 . S
N367 C364 1.301 . S
N367 C365 1.317 . S
N368 C364 1.328 . S
N368 C366 1.350 . S
H369 C364 0.930 . S
H370 C365 0.930 . S
C371 O372 1.224 . S
C371 O390 1.247 . S
O372 C371 1.224 . S
N373 Co363 2.128 . S
N373 C374 1.355 . S
N373 C376 1.311 . S
C374 N373 1.355 . S
C374 C375 1.363 . S
C374 H386 0.929 . S
C375 C374 1.363 . S
C375 N377 1.375 . S
C375 H393 0.931 . S
C376 N373 1.311 . S
C376 N377 1.347 . S
C376 H387 0.929 . S
N377 C375 1.375 . S
N377 C376 1.347 . S
C378 C381 1.365 . S
C378 N383 1.328 . S
C378 H384 0.929 . S
C379 C380 1.362 . S
C379 C382 1.378 . S
C379 H394 0.929 . S
C380 C379 1.362 . S
C380 C381 1.366 . S
C381 C378 1.365 . S
C381 C380 1.366 . S
C381 H395 0.930 . S
C382 C379 1.378 . S
C382 N383 1.315 . S
C382 H385 0.930 . S
N383 Co363 2.194 . S
N383 C378 1.328 . S
N383 C382 1.315 . S
H384 C378 0.929 . S
H385 C382 0.930 . S
H386 C374 0.929 . S
H387 C376 0.929 . S
O388 Co363 2.351 . S
O388 C391 1.244 . S
O389 Co363 2.155 . S
O389 C391 1.240 . S
O390 Co363 2.096 . S
O390 C371 1.247 . S
C391 O388 1.244 . S
C391 O389 1.240 . S
H392 C366 0.931 . S
H393 C375 0.931 . S
H394 C379 0.929 . S
H395 C381 0.930 . S
Co396 N400 2.148 . S
Co396 N406 2.128 . S
Co396 N416 2.194 . S
Co396 O421 2.351 . S
Co396 O422 2.155 . S
Co396 O423 2.096 . S
C397 N400 1.301 . S
C397 N401 1.328 . S
C397 H402 0.930 . S
C398 C399 1.333 . S
C398 N400 1.317 . S
C398 H403 0.930 . S
C399 C398 1.333 . S
C399 N401 1.350 . S
C399 H425 0.931 . S
N400 Co396 2.148 . S
N400 C397 1.301 . S
N400 C398 1.317 . S
N401 C397 1.328 . S
N401 C399 1.350 . S
H402 C397 0.930 . S
H403 C398 0.930 . S
C404 O405 1.224 . S
C404 O423 1.247 . S
O405 C404 1.224 . S
N406 Co396 2.128 . S
N406 C407 1.355 . S
N406 C409 1.311 . S
C407 N406 1.355 . S
C407 C408 1.363 . S
C407 H419 0.929 . S
C408 C407 1.363 . S
C408 N410 1.375 . S
C408 H426 0.931 1_565 S
C409 N406 1.311 . S
C409 N410 1.347 . S
C409 H420 0.929 . S
N410 C408 1.375 . S
N410 C409 1.347 . S
C411 C414 1.365 . S
C411 N416 1.328 . S
C411 H417 0.929 . S
C412 C413 1.362 . S
C412 C415 1.378 . S
C412 H427 0.929 . S
C413 C412 1.362 . S
C413 C414 1.366 . S
C414 C411 1.365 . S
C414 C413 1.366 . S
C414 H428 0.930 . S
C415 C412 1.378 . S
C415 N416 1.315 . S
C415 H418 0.930 . S
N416 Co396 2.194 . S
N416 C411 1.328 . S
N416 C415 1.315 . S
H417 C411 0.929 . S
H418 C415 0.930 . S
H419 C407 0.929 . S
H420 C409 0.929 . S
O421 Co396 2.351 . S
O421 C424 1.244 . S
O422 Co396 2.155 . S
O422 C424 1.240 . S
O423 Co396 2.096 . S
O423 C404 1.247 . S
C424 O421 1.244 . S
C424 O422 1.240 . S
H425 C399 0.931 . S
H426 C408 0.931 1_545 S
H427 C412 0.929 . S
H428 C414 0.930 . S
Co429 N433 2.148 . S
Co429 N439 2.128 . S
Co429 N449 2.194 . S
Co429 O454 2.351 . S
Co429 O455 2.155 . S
Co429 O456 2.096 . S
C430 N433 1.301 . S
C430 N434 1.328 . S
C430 H435 0.930 . S
C431 C432 1.333 . S
C431 N433 1.317 . S
C431 H436 0.930 . S
C432 C431 1.333 . S
C432 N434 1.350 . S
C432 H458 0.931 . S
N433 Co429 2.148 . S
N433 C430 1.301 . S
N433 C431 1.317 . S
N434 C430 1.328 . S
N434 C432 1.350 . S
H435 C430 0.930 . S
H436 C431 0.930 . S
C437 O438 1.224 . S
C437 O456 1.247 . S
O438 C437 1.224 . S
N439 Co429 2.128 . S
N439 C440 1.355 . S
N439 C442 1.311 . S
C440 N439 1.355 . S
C440 C441 1.363 . S
C440 H452 0.929 . S
C441 C440 1.363 . S
C441 N443 1.375 . S
C441 H459 0.931 . S
C442 N439 1.311 . S
C442 N443 1.347 . S
C442 H453 0.929 . S
N443 C441 1.375 . S
N443 C442 1.347 . S
C444 C447 1.365 . S
C444 N449 1.328 . S
C444 H450 0.929 . S
C445 C446 1.362 . S
C445 C448 1.378 . S
C445 H460 0.929 . S
C446 C445 1.362 . S
C446 C447 1.366 . S
C447 C444 1.365 . S
C447 C446 1.366 . S
C447 H461 0.930 . S
C448 C445 1.378 . S
C448 N449 1.315 . S
C448 H451 0.930 . S
N449 Co429 2.194 . S
N449 C444 1.328 . S
N449 C448 1.315 . S
H450 C444 0.929 . S
H451 C448 0.930 . S
H452 C440 0.929 . S
H453 C442 0.929 . S
O454 Co429 2.351 . S
O454 C457 1.244 . S
O455 Co429 2.155 . S
O455 C457 1.240 . S
O456 Co429 2.096 . S
O456 C437 1.247 . S
C457 O454 1.244 . S
C457 O455 1.240 . S
H458 C432 0.931 . S
H459 C441 0.931 . S
H460 C445 0.929 . S
H461 C447 0.930 . S
Co462 N466 2.148 . S
Co462 N472 2.128 . S
Co462 N482 2.194 . S
Co462 O487 2.351 . S
Co462 O488 2.155 . S
Co462 O489 2.096 . S
C463 N466 1.301 . S
C463 N467 1.328 . S
C463 H468 0.930 . S
C464 C465 1.333 . S
C464 N466 1.317 . S
C464 H469 0.930 . S
C465 C464 1.333 . S
C465 N467 1.350 . S
C465 H491 0.931 . S
N466 Co462 2.148 . S
N466 C463 1.301 . S
N466 C464 1.317 . S
N467 C463 1.328 . S
N467 C465 1.350 . S
H468 C463 0.930 . S
H469 C464 0.930 . S
C470 O471 1.224 . S
C470 O489 1.247 . S
O471 C470 1.224 . S
N472 Co462 2.128 . S
N472 C473 1.355 . S
N472 C475 1.311 . S
C473 N472 1.355 . S
C473 C474 1.363 . S
C473 H485 0.929 . S
C474 C473 1.363 . S
C474 N476 1.375 . S
C474 H492 0.931 1_545 S
C475 N472 1.311 . S
C475 N476 1.347 . S
C475 H486 0.929 . S
N476 C474 1.375 . S
N476 C475 1.347 . S
C477 C480 1.365 . S
C477 N482 1.328 . S
C477 H483 0.929 . S
C478 C479 1.362 . S
C478 C481 1.378 . S
C478 H493 0.929 . S
C479 C478 1.362 . S
C479 C480 1.366 . S
C480 C477 1.365 . S
C480 C479 1.366 . S
C480 H494 0.930 . S
C481 C478 1.378 . S
C481 N482 1.315 . S
C481 H484 0.930 . S
N482 Co462 2.194 . S
N482 C477 1.328 . S
N482 C481 1.315 . S
H483 C477 0.929 . S
H484 C481 0.930 . S
H485 C473 0.929 . S
H486 C475 0.929 . S
O487 Co462 2.351 . S
O487 C490 1.244 . S
O488 Co462 2.155 . S
O488 C490 1.240 . S
O489 Co462 2.096 . S
O489 C470 1.247 . S
C490 O487 1.244 . S
C490 O488 1.240 . S
H491 C465 0.931 . S
H492 C474 0.931 1_565 S
H493 C478 0.929 . S
H494 C480 0.930 . S
Co495 N499 2.148 . S
Co495 N505 2.128 . S
Co495 N515 2.194 . S
Co495 O520 2.351 . S
Co495 O521 2.155 . S
Co495 O522 2.096 . S
C496 N499 1.301 . S
C496 N500 1.328 . S
C496 H501 0.930 . S
C497 C498 1.333 . S
C497 N499 1.317 . S
C497 H502 0.930 . S
C498 C497 1.333 . S
C498 N500 1.350 . S
C498 H524 0.931 . S
N499 Co495 2.148 . S
N499 C496 1.301 . S
N499 C497 1.317 . S
N500 C496 1.328 . S
N500 C498 1.350 . S
H501 C496 0.930 . S
H502 C497 0.930 . S
C503 O504 1.224 . S
C503 O522 1.247 . S
O504 C503 1.224 . S
N505 Co495 2.128 . S
N505 C506 1.355 . S
N505 C508 1.311 . S
C506 N505 1.355 . S
C506 C507 1.363 . S
C506 H518 0.929 . S
C507 C506 1.363 . S
C507 N509 1.375 . S
C507 H525 0.931 . S
C508 N505 1.311 . S
C508 N509 1.347 . S
C508 H519 0.929 . S
N509 C507 1.375 . S
N509 C508 1.347 . S
C510 C513 1.365 . S
C510 N515 1.328 . S
C510 H516 0.929 . S
C511 C512 1.362 . S
C511 C514 1.378 . S
C511 H526 0.929 . S
C512 C511 1.362 . S
C512 C513 1.366 . S
C513 C510 1.365 . S
C513 C512 1.366 . S
C513 H527 0.930 . S
C514 C511 1.378 . S
C514 N515 1.315 . S
C514 H517 0.930 . S
N515 Co495 2.194 . S
N515 C510 1.328 . S
N515 C514 1.315 . S
H516 C510 0.929 . S
H517 C514 0.930 . S
H518 C506 0.929 . S
H519 C508 0.929 . S
O520 Co495 2.351 . S
O520 C523 1.244 . S
O521 Co495 2.155 . S
O521 C523 1.240 . S
O522 Co495 2.096 . S
O522 C503 1.247 . S
C523 O520 1.244 . S
C523 O521 1.240 . S
H524 C498 0.931 . S
H525 C507 0.931 . S
H526 C511 0.929 . S
H527 C513 0.930 . S
Co528 N532 2.148 . S
Co528 N538 2.128 . S
Co528 N548 2.194 . S
Co528 O553 2.351 . S
Co528 O554 2.155 . S
Co528 O555 2.096 . S
C529 N532 1.301 . S
C529 N533 1.328 . S
C529 H534 0.930 . S
C530 C531 1.333 . S
C530 N532 1.317 . S
C530 H535 0.930 . S
C531 C530 1.333 . S
C531 N533 1.350 . S
C531 H557 0.931 . S
N532 Co528 2.148 . S
N532 C529 1.301 . S
N532 C530 1.317 . S
N533 C529 1.328 . S
N533 C531 1.350 . S
H534 C529 0.930 . S
H535 C530 0.930 . S
C536 O537 1.224 . S
C536 O555 1.247 . S
O537 C536 1.224 . S
N538 Co528 2.128 . S
N538 C539 1.355 . S
N538 C541 1.311 . S
C539 N538 1.355 . S
C539 C540 1.363 . S
C539 H551 0.929 . S
C540 C539 1.363 . S
C540 N542 1.375 . S
C540 H558 0.931 1_554 S
C541 N538 1.311 . S
C541 N542 1.347 . S
C541 H552 0.929 . S
N542 C540 1.375 . S
N542 C541 1.347 . S
C543 C546 1.365 . S
C543 N548 1.328 . S
C543 H549 0.929 . S
C544 C545 1.362 . S
C544 C547 1.378 . S
C544 H559 0.929 . S
C545 C544 1.362 . S
C545 C546 1.366 . S
C546 C543 1.365 . S
C546 C545 1.366 . S
C546 H560 0.930 . S
C547 C544 1.378 . S
C547 N548 1.315 . S
C547 H550 0.930 . S
N548 Co528 2.194 . S
N548 C543 1.328 . S
N548 C547 1.315 . S
H549 C543 0.929 . S
H550 C547 0.930 . S
H551 C539 0.929 . S
H552 C541 0.929 . S
O553 Co528 2.351 . S
O553 C556 1.244 . S
O554 Co528 2.155 . S
O554 C556 1.240 . S
O555 Co528 2.096 . S
O555 C536 1.247 . S
C556 O553 1.244 . S
C556 O554 1.240 . S
H557 C531 0.931 . S
H558 C540 0.931 1_556 S
H559 C544 0.929 . S
H560 C546 0.930 . S
Co561 N565 2.148 . S
Co561 N571 2.128 . S
Co561 N581 2.194 . S
Co561 O586 2.351 . S
Co561 O587 2.155 . S
Co561 O588 2.096 . S
C562 N565 1.301 . S
C562 N566 1.328 . S
C562 H567 0.930 . S
C563 C564 1.333 . S
C563 N565 1.317 . S
C563 H568 0.930 . S
C564 C563 1.333 . S
C564 N566 1.350 . S
C564 H590 0.931 . S
N565 Co561 2.148 . S
N565 C562 1.301 . S
N565 C563 1.317 . S
N566 C562 1.328 . S
N566 C564 1.350 . S
H567 C562 0.930 . S
H568 C563 0.930 . S
C569 O570 1.224 . S
C569 O588 1.247 . S
O570 C569 1.224 . S
N571 Co561 2.128 . S
N571 C572 1.355 . S
N571 C574 1.311 . S
C572 N571 1.355 . S
C572 C573 1.363 . S
C572 H584 0.929 . S
C573 C572 1.363 . S
C573 N575 1.375 . S
C573 H591 0.931 1_556 S
C574 N571 1.311 . S
C574 N575 1.347 . S
C574 H585 0.929 . S
N575 C573 1.375 . S
N575 C574 1.347 . S
C576 C579 1.365 . S
C576 N581 1.328 . S
C576 H582 0.929 . S
C577 C578 1.362 . S
C577 C580 1.378 . S
C577 H592 0.929 . S
C578 C577 1.362 . S
C578 C579 1.366 . S
C579 C576 1.365 . S
C579 C578 1.366 . S
C579 H593 0.930 . S
C580 C577 1.378 . S
C580 N581 1.315 . S
C580 H583 0.930 . S
N581 Co561 2.194 . S
N581 C576 1.328 . S
N581 C580 1.315 . S
H582 C576 0.929 . S
H583 C580 0.930 . S
H584 C572 0.929 . S
H585 C574 0.929 . S
O586 Co561 2.351 . S
O586 C589 1.244 . S
O587 Co561 2.155 . S
O587 C589 1.240 . S
O588 Co561 2.096 . S
O588 C569 1.247 . S
C589 O586 1.244 . S
C589 O587 1.240 . S
H590 C564 0.931 . S
H591 C573 0.931 1_554 S
H592 C577 0.929 . S
H593 C579 0.930 . S
Co594 N598 2.148 . S
Co594 N604 2.128 . S
Co594 N614 2.194 . S
Co594 O619 2.351 . S
Co594 O620 2.155 . S
Co594 O621 2.096 . S
C595 N598 1.301 . S
C595 N599 1.328 . S
C595 H600 0.930 . S
C596 C597 1.333 . S
C596 N598 1.317 . S
C596 H601 0.930 . S
C597 C596 1.333 . S
C597 N599 1.350 . S
C597 H623 0.931 . S
N598 Co594 2.148 . S
N598 C595 1.301 . S
N598 C596 1.317 . S
N599 C595 1.328 . S
N599 C597 1.350 . S
H600 C595 0.930 . S
H601 C596 0.930 . S
C602 O603 1.224 . S
C602 O621 1.247 . S
O603 C602 1.224 . S
N604 Co594 2.128 . S
N604 C605 1.355 . S
N604 C607 1.311 . S
C605 N604 1.355 . S
C605 C606 1.363 . S
C605 H617 0.929 . S
C606 C605 1.363 . S
C606 N608 1.375 . S
C606 H624 0.931 . S
C607 N604 1.311 . S
C607 N608 1.347 . S
C607 H618 0.929 . S
N608 C606 1.375 . S
N608 C607 1.347 . S
C609 C612 1.365 . S
C609 N614 1.328 . S
C609 H615 0.929 . S
C610 C611 1.362 . S
C610 C613 1.378 . S
C610 H625 0.929 . S
C611 C610 1.362 . S
C611 C612 1.366 . S
C612 C609 1.365 . S
C612 C611 1.366 . S
C612 H626 0.930 . S
C613 C610 1.378 . S
C613 N614 1.315 . S
C613 H616 0.930 . S
N614 Co594 2.194 . S
N614 C609 1.328 . S
N614 C613 1.315 . S
H615 C609 0.929 . S
H616 C613 0.930 . S
H617 C605 0.929 . S
H618 C607 0.929 . S
O619 Co594 2.351 . S
O619 C622 1.244 . S
O620 Co594 2.155 . S
O620 C622 1.240 . S
O621 Co594 2.096 . S
O621 C602 1.247 . S
C622 O619 1.244 . S
C622 O620 1.240 . S
H623 C597 0.931 . S
H624 C606 0.931 . S
H625 C610 0.929 . S
H626 C612 0.930 . S
Co627 N631 2.148 . S
Co627 N637 2.128 . S
Co627 N647 2.194 . S
Co627 O652 2.351 . S
Co627 O653 2.155 . S
Co627 O654 2.096 . S
C628 N631 1.301 . S
C628 N632 1.328 . S
C628 H633 0.930 . S
C629 C630 1.333 . S
C629 N631 1.317 . S
C629 H634 0.930 . S
C630 C629 1.333 . S
C630 N632 1.350 . S
C630 H656 0.931 . S
N631 Co627 2.148 . S
N631 C628 1.301 . S
N631 C629 1.317 . S
N632 C628 1.328 . S
N632 C630 1.350 . S
H633 C628 0.930 . S
H634 C629 0.930 . S
C635 O636 1.224 . S
C635 O654 1.247 . S
O636 C635 1.224 . S
N637 Co627 2.128 . S
N637 C638 1.355 . S
N637 C640 1.311 . S
C638 N637 1.355 . S
C638 C639 1.363 . S
C638 H650 0.929 . S
C639 C638 1.363 . S
C639 N641 1.375 . S
C639 H657 0.931 1_556 S
C640 N637 1.311 . S
C640 N641 1.347 . S
C640 H651 0.929 . S
N641 C639 1.375 . S
N641 C640 1.347 . S
C642 C645 1.365 . S
C642 N647 1.328 . S
C642 H648 0.929 . S
C643 C644 1.362 . S
C643 C646 1.378 . S
C643 H658 0.929 . S
C644 C643 1.362 . S
C644 C645 1.366 . S
C645 C642 1.365 . S
C645 C644 1.366 . S
C645 H659 0.930 . S
C646 C643 1.378 . S
C646 N647 1.315 . S
C646 H649 0.930 . S
N647 Co627 2.194 . S
N647 C642 1.328 . S
N647 C646 1.315 . S
H648 C642 0.929 . S
H649 C646 0.930 . S
H650 C638 0.929 . S
H651 C640 0.929 . S
O652 Co627 2.351 . S
O652 C655 1.244 . S
O653 Co627 2.155 . S
O653 C655 1.240 . S
O654 Co627 2.096 . S
O654 C635 1.247 . S
C655 O652 1.244 . S
C655 O653 1.240 . S
H656 C630 0.931 . S
H657 C639 0.931 1_554 S
H658 C643 0.929 . S
H659 C645 0.930 . S
Co660 N664 2.148 . S
Co660 N670 2.128 . S
Co660 N680 2.194 . S
Co660 O685 2.351 . S
Co660 O686 2.155 . S
Co660 O687 2.096 . S
C661 N664 1.301 . S
C661 N665 1.328 . S
C661 H666 0.930 . S
C662 C663 1.333 . S
C662 N664 1.317 . S
C662 H667 0.930 . S
C663 C662 1.333 . S
C663 N665 1.350 . S
C663 H689 0.931 . S
N664 Co660 2.148 . S
N664 C661 1.301 . S
N664 C662 1.317 . S
N665 C661 1.328 . S
N665 C663 1.350 . S
H666 C661 0.930 . S
H667 C662 0.930 . S
C668 O669 1.224 . S
C668 O687 1.247 . S
O669 C668 1.224 . S
N670 Co660 2.128 . S
N670 C671 1.355 . S
N670 C673 1.311 . S
C671 N670 1.355 . S
C671 C672 1.363 . S
C671 H683 0.929 . S
C672 C671 1.363 . S
C672 N674 1.375 . S
C672 H690 0.931 . S
C673 N670 1.311 . S
C673 N674 1.347 . S
C673 H684 0.929 . S
N674 C672 1.375 . S
N674 C673 1.347 . S
C675 C678 1.365 . S
C675 N680 1.328 . S
C675 H681 0.929 . S
C676 C677 1.362 . S
C676 C679 1.378 . S
C676 H691 0.929 . S
C677 C676 1.362 . S
C677 C678 1.366 . S
C678 C675 1.365 . S
C678 C677 1.366 . S
C678 H692 0.930 . S
C679 C676 1.378 . S
C679 N680 1.315 . S
C679 H682 0.930 . S
N680 Co660 2.194 . S
N680 C675 1.328 . S
N680 C679 1.315 . S
H681 C675 0.929 . S
H682 C679 0.930 . S
H683 C671 0.929 . S
H684 C673 0.929 . S
O685 Co660 2.351 . S
O685 C688 1.244 . S
O686 Co660 2.155 . S
O686 C688 1.240 . S
O687 Co660 2.096 . S
O687 C668 1.247 . S
C688 O685 1.244 . S
C688 O686 1.240 . S
H689 C663 0.931 . S
H690 C672 0.931 . S
H691 C676 0.929 . S
H692 C678 0.930 . S
Co693 N697 2.148 . S
Co693 N703 2.128 . S
Co693 N713 2.194 . S
Co693 O718 2.351 . S
Co693 O719 2.155 . S
Co693 O720 2.096 . S
C694 N697 1.301 . S
C694 N698 1.328 . S
C694 H699 0.930 . S
C695 C696 1.333 . S
C695 N697 1.317 . S
C695 H700 0.930 . S
C696 C695 1.333 . S
C696 N698 1.350 . S
C696 H722 0.931 . S
N697 Co693 2.148 . S
N697 C694 1.301 . S
N697 C695 1.317 . S
N698 C694 1.328 . S
N698 C696 1.350 . S
H699 C694 0.930 . S
H700 C695 0.930 . S
C701 O702 1.224 . S
C701 O720 1.247 . S
O702 C701 1.224 . S
N703 Co693 2.128 . S
N703 C704 1.355 . S
N703 C706 1.311 . S
C704 N703 1.355 . S
C704 C705 1.363 . S
C704 H716 0.929 . S
C705 C704 1.363 . S
C705 N707 1.375 . S
C705 H723 0.931 1_554 S
C706 N703 1.311 . S
C706 N707 1.347 . S
C706 H717 0.929 . S
N707 C705 1.375 . S
N707 C706 1.347 . S
C708 C711 1.365 . S
C708 N713 1.328 . S
C708 H714 0.929 . S
C709 C710 1.362 . S
C709 C712 1.378 . S
C709 H724 0.929 . S
C710 C709 1.362 . S
C710 C711 1.366 . S
C711 C708 1.365 . S
C711 C710 1.366 . S
C711 H725 0.930 . S
C712 C709 1.378 . S
C712 N713 1.315 . S
C712 H715 0.930 . S
N713 Co693 2.194 . S
N713 C708 1.328 . S
N713 C712 1.315 . S
H714 C708 0.929 . S
H715 C712 0.930 . S
H716 C704 0.929 . S
H717 C706 0.929 . S
O718 Co693 2.351 . S
O718 C721 1.244 . S
O719 Co693 2.155 . S
O719 C721 1.240 . S
O720 Co693 2.096 . S
O720 C701 1.247 . S
C721 O718 1.244 . S
C721 O719 1.240 . S
H722 C696 0.931 . S
H723 C705 0.931 1_556 S
H724 C709 0.929 . S
H725 C711 0.930 . S
Co726 N730 2.148 . S
Co726 N736 2.128 . S
Co726 N746 2.194 . S
Co726 O751 2.351 . S
Co726 O752 2.155 . S
Co726 O753 2.096 . S
C727 N730 1.301 . S
C727 N731 1.328 . S
C727 H732 0.930 . S
C728 C729 1.333 . S
C728 N730 1.317 . S
C728 H733 0.930 . S
C729 C728 1.333 . S
C729 N731 1.350 . S
C729 H755 0.931 . S
N730 Co726 2.148 . S
N730 C727 1.301 . S
N730 C728 1.317 . S
N731 C727 1.328 . S
N731 C729 1.350 . S
H732 C727 0.930 . S
H733 C728 0.930 . S
C734 O735 1.224 . S
C734 O753 1.247 . S
O735 C734 1.224 . S
N736 Co726 2.128 . S
N736 C737 1.355 . S
N736 C739 1.311 . S
C737 N736 1.355 . S
C737 C738 1.363 . S
C737 H749 0.929 . S
C738 C737 1.363 . S
C738 N740 1.375 . S
C738 H756 0.931 . S
C739 N736 1.311 . S
C739 N740 1.347 . S
C739 H750 0.929 . S
N740 C738 1.375 . S
N740 C739 1.347 . S
C741 C744 1.365 . S
C741 N746 1.328 . S
C741 H747 0.929 . S
C742 C743 1.362 . S
C742 C745 1.378 . S
C742 H757 0.929 . S
C743 C742 1.362 . S
C743 C744 1.366 . S
C744 C741 1.365 . S
C744 C743 1.366 . S
C744 H758 0.930 . S
C745 C742 1.378 . S
C745 N746 1.315 . S
C745 H748 0.930 . S
N746 Co726 2.194 . S
N746 C741 1.328 . S
N746 C745 1.315 . S
H747 C741 0.929 . S
H748 C745 0.930 . S
H749 C737 0.929 . S
H750 C739 0.929 . S
O751 Co726 2.351 . S
O751 C754 1.244 . S
O752 Co726 2.155 . S
O752 C754 1.240 . S
O753 Co726 2.096 . S
O753 C734 1.247 . S
C754 O751 1.244 . S
C754 O752 1.240 . S
H755 C729 0.931 . S
H756 C738 0.931 . S
H757 C742 0.929 . S
H758 C744 0.930 . S
Co759 N763 2.148 . S
Co759 N769 2.128 . S
Co759 N779 2.194 . S
Co759 O784 2.351 . S
Co759 O785 2.155 . S
Co759 O786 2.096 . S
C760 N763 1.301 . S
C760 N764 1.328 . S
C760 H765 0.930 . S
C761 C762 1.333 . S
C761 N763 1.317 . S
C761 H766 0.930 . S
C762 C761 1.333 . S
C762 N764 1.350 . S
C762 H788 0.931 . S
N763 Co759 2.148 . S
N763 C760 1.301 . S
N763 C761 1.317 . S
N764 C760 1.328 . S
N764 C762 1.350 . S
H765 C760 0.930 . S
H766 C761 0.930 . S
C767 O768 1.224 . S
C767 O786 1.247 . S
O768 C767 1.224 . S
N769 Co759 2.128 . S
N769 C770 1.355 . S
N769 C772 1.311 . S
C770 N769 1.355 . S
C770 C771 1.363 . S
C770 H782 0.929 . S
C771 C770 1.363 . S
C771 N773 1.375 . S
C771 H789 0.931 . S
C772 N769 1.311 . S
C772 N773 1.347 . S
C772 H783 0.929 . S
N773 C771 1.375 . S
N773 C772 1.347 . S
C774 C777 1.365 . S
C774 N779 1.328 . S
C774 H780 0.929 . S
C775 C776 1.362 . S
C775 C778 1.378 . S
C775 H790 0.929 . S
C776 C775 1.362 . S
C776 C777 1.366 . S
C777 C774 1.365 . S
C777 C776 1.366 . S
C777 H791 0.930 . S
C778 C775 1.378 . S
C778 N779 1.315 . S
C778 H781 0.930 . S
N779 Co759 2.194 . S
N779 C774 1.328 . S
N779 C778 1.315 . S
H780 C774 0.929 . S
H781 C778 0.930 . S
H782 C770 0.929 . S
H783 C772 0.929 . S
O784 Co759 2.351 . S
O784 C787 1.244 . S
O785 Co759 2.155 . S
O785 C787 1.240 . S
O786 Co759 2.096 . S
O786 C767 1.247 . S
C787 O784 1.244 . S
C787 O785 1.240 . S
H788 C762 0.931 . S
H789 C771 0.931 . S
H790 C775 0.929 . S
H791 C777 0.930 . S
C792 C793 1.349 . S
C792 C794 1.327 . S
C792 H817 0.950 . S
C793 C792 1.349 . S
C793 C809 1.349 . S
C794 C792 1.327 . S
C794 C813 1.429 . S
C794 H818 0.950 . S
C795 C812 1.574 . S
C795 C814 1.368 . S
C795 H819 0.949 . S
H796 C800 0.949 . S
C797 C798 1.349 . S
C797 C799 1.327 . S
C797 H820 0.950 . S
C798 C797 1.349 . S
C798 C810 1.349 . S
C799 C797 1.327 . S
C799 C815 1.429 . S
C799 H821 0.950 . S
C800 H796 0.949 . S
C800 C808 1.574 . S
C800 C816 1.368 . S
H801 C809 0.950 . S
H802 C807 0.950 . S
H803 C808 0.949 . S
H804 C810 0.950 . S
H805 C811 0.950 . S
H806 C812 0.949 . S
C807 H802 0.950 . S
C807 C809 1.327 . S
C807 C813 1.429 . S
C808 C800 1.574 . S
C808 H803 0.949 . S
C808 C814 1.368 . S
C809 C793 1.349 . S
C809 H801 0.950 . S
C809 C807 1.327 . S
C810 C798 1.349 . S
C810 H804 0.950 . S
C810 C811 1.327 . S
C811 H805 0.950 . S
C811 C810 1.327 . S
C811 C815 1.429 . S
C812 C795 1.574 . S
C812 H806 0.949 . S
C812 C816 1.368 . S
C813 C794 1.429 . S
C813 C807 1.429 . S
C813 C814 1.523 . S
C814 C795 1.368 . S
C814 C808 1.368 . S
C814 C813 1.523 . S
C815 C799 1.429 . S
C815 C811 1.429 . S
C815 C816 1.523 . S
C816 C800 1.368 . S
C816 C812 1.368 . S
C816 C815 1.523 . S
H817 C792 0.950 . S
H818 C794 0.950 . S
H819 C795 0.949 . S
H820 C797 0.950 . S
H821 C799 0.950 . S
C822 C823 1.349 1_655 S
C822 C824 1.327 . S
C822 H847 0.950 . S
C823 C822 1.349 1_455 S
C823 C839 1.349 . S
C824 C822 1.327 . S
C824 C843 1.429 . S
C824 H848 0.950 . S
C825 C842 1.574 . S
C825 C844 1.368 . S
C825 H849 0.949 . S
H826 C830 0.949 . S
C827 C828 1.349 . S
C827 C829 1.327 . S
C827 H850 0.950 . S
C828 C827 1.349 . S
C828 C840 1.349 . S
C829 C827 1.327 . S
C829 C845 1.429 . S
C829 H851 0.950 . S
C830 H826 0.949 . S
C830 C838 1.574 . S
C830 C846 1.368 . S
H831 C839 0.950 . S
H832 C837 0.950 . S
H833 C838 0.949 . S
H834 C840 0.950 . S
H835 C841 0.950 . S
H836 C842 0.949 . S
C837 H832 0.950 . S
C837 C839 1.327 1_655 S
C837 C843 1.429 . S
C838 C830 1.574 . S
C838 H833 0.949 . S
C838 C844 1.368 . S
C839 C823 1.349 . S
C839 H831 0.950 . S
C839 C837 1.327 1_455 S
C840 C828 1.349 . S
C840 H834 0.950 . S
C840 C841 1.327 . S
C841 H835 0.950 . S
C841 C840 1.327 . S
C841 C845 1.429 . S
C842 C825 1.574 . S
C842 H836 0.949 . S
C842 C846 1.368 . S
C843 C824 1.429 . S
C843 C837 1.429 . S
C843 C844 1.523 . S
C844 C825 1.368 . S
C844 C838 1.368 . S
C844 C843 1.523 . S
C845 C829 1.429 . S
C845 C841 1.429 . S
C845 C846 1.523 . S
C846 C830 1.368 . S
C846 C842 1.368 . S
C846 C845 1.523 . S
H847 C822 0.950 . S
H848 C824 0.950 . S
H849 C825 0.949 . S
H850 C827 0.950 . S
H851 C829 0.950 . S
C852 C853 1.349 . S
C852 C854 1.327 . S
C852 H877 0.950 . S
C853 C852 1.349 . S
C853 C869 1.349 . S
C854 C852 1.327 . S
C854 C873 1.429 . S
C854 H878 0.950 . S
C855 C872 1.574 . S
C855 C874 1.368 . S
C855 H879 0.949 . S
H856 C860 0.949 . S
C857 C858 1.349 . S
C857 C859 1.327 . S
C857 H880 0.950 . S
C858 C857 1.349 . S
C858 C870 1.349 . S
C859 C857 1.327 . S
C859 C875 1.429 . S
C859 H881 0.950 . S
C860 H856 0.949 . S
C860 C868 1.574 . S
C860 C876 1.368 . S
H861 C869 0.950 . S
H862 C867 0.950 . S
H863 C868 0.949 . S
H864 C870 0.950 . S
H865 C871 0.950 . S
H866 C872 0.949 . S
C867 H862 0.950 . S
C867 C869 1.327 . S
C867 C873 1.429 . S
C868 C860 1.574 . S
C868 H863 0.949 . S
C868 C874 1.368 . S
C869 C853 1.349 . S
C869 H861 0.950 . S
C869 C867 1.327 . S
C870 C858 1.349 . S
C870 H864 0.950 . S
C870 C871 1.327 . S
C871 H865 0.950 . S
C871 C870 1.327 . S
C871 C875 1.429 . S
C872 C855 1.574 . S
C872 H866 0.949 . S
C872 C876 1.368 . S
C873 C854 1.429 . S
C873 C867 1.429 . S
C873 C874 1.523 . S
C874 C855 1.368 . S
C874 C868 1.368 . S
C874 C873 1.523 . S
C875 C859 1.429 . S
C875 C871 1.429 . S
C875 C876 1.523 . S
C876 C860 1.368 . S
C876 C872 1.368 . S
C876 C875 1.523 . S
H877 C852 0.950 . S
H878 C854 0.950 . S
H879 C855 0.949 . S
H880 C857 0.950 . S
H881 C859 0.950 . S
C882 C883 1.349 . S
C882 C884 1.327 . S
C882 H907 0.950 . S
C883 C882 1.349 . S
C883 C899 1.349 . S
C884 C882 1.327 . S
C884 C903 1.429 . S
C884 H908 0.950 . S
C885 C902 1.574 . S
C885 C904 1.368 . S
C885 H909 0.949 . S
H886 C890 0.949 . S
C887 C888 1.349 1_455 S
C887 C889 1.327 . S
C887 H910 0.939 1_455 S
C888 C887 1.349 1_655 S
C888 C900 1.349 . S
C889 C887 1.327 . S
C889 C905 1.429 . S
C889 H911 0.950 . S
C890 H886 0.949 . S
C890 C898 1.574 . S
C890 C906 1.368 . S
H891 C899 0.950 . S
H892 C897 0.950 . S
H893 C898 0.949 . S
H894 C900 0.950 . S
H895 C901 0.950 . S
H896 C902 0.949 . S
C897 H892 0.950 . S
C897 C899 1.327 . S
C897 C903 1.429 . S
C898 C890 1.574 . S
C898 H893 0.949 . S
C898 C904 1.368 . S
C899 C883 1.349 . S
C899 H891 0.950 . S
C899 C897 1.327 . S
C900 C888 1.349 . S
C900 H894 0.950 . S
C900 C901 1.327 1_655 S
C901 H895 0.950 . S
C901 C900 1.327 1_455 S
C901 C905 1.429 . S
C902 C885 1.574 . S
C902 H896 0.949 . S
C902 C906 1.368 . S
C903 C884 1.429 . S
C903 C897 1.429 . S
C903 C904 1.523 . S
C904 C885 1.368 . S
C904 C898 1.368 . S
C904 C903 1.523 . S
C905 C889 1.429 . S
C905 C901 1.429 . S
C905 C906 1.523 . S
C906 C890 1.368 . S
C906 C902 1.368 . S
C906 C905 1.523 . S
H907 C882 0.950 . S
H908 C884 0.950 . S
H909 C885 0.949 . S
H910 C887 0.939 1_655 S
H911 C889 0.950 . S
C912 C913 1.349 . S
C912 C914 1.327 . S
C912 H937 0.950 . S
C913 C912 1.349 . S
C913 C929 1.349 . S
C914 C912 1.327 . S
C914 C933 1.429 . S
C914 H938 0.950 . S
C915 C932 1.574 . S
C915 C934 1.368 . S
C915 H939 0.949 . S
H916 C920 0.949 . S
C917 C918 1.349 . S
C917 C919 1.327 . S
C917 H940 0.950 . S
C918 C917 1.349 . S
C918 C930 1.349 . S
C919 C917 1.327 . S
C919 C935 1.429 . S
C919 H941 0.950 . S
C920 H916 0.949 . S
C920 C928 1.574 . S
C920 C936 1.368 . S
H921 C929 0.950 . S
H922 C927 0.950 . S
H923 C928 0.949 . S
H924 C930 0.950 . S
H925 C931 0.950 . S
H926 C932 0.949 . S
C927 H922 0.950 . S
C927 C929 1.327 . S
C927 C933 1.429 . S
C928 C920 1.574 . S
C928 H923 0.949 . S
C928 C934 1.368 . S
C929 C913 1.349 . S
C929 H921 0.950 . S
C929 C927 1.327 . S
C930 C918 1.349 . S
C930 H924 0.950 . S
C930 C931 1.327 . S
C931 H925 0.950 . S
C931 C930 1.327 . S
C931 C935 1.429 . S
C932 C915 1.574 . S
C932 H926 0.949 . S
C932 C936 1.368 . S
C933 C914 1.429 . S
C933 C927 1.429 . S
C933 C934 1.523 . S
C934 C915 1.368 . S
C934 C928 1.368 . S
C934 C933 1.523 . S
C935 C919 1.429 . S
C935 C931 1.429 . S
C935 C936 1.523 . S
C936 C920 1.368 . S
C936 C932 1.368 . S
C936 C935 1.523 . S
H937 C912 0.950 . S
H938 C914 0.950 . S
H939 C915 0.949 . S
H940 C917 0.950 . S
H941 C919 0.950 . S
C942 C943 1.349 . S
C942 C944 1.327 1_655 S
C942 H967 0.950 . S
C943 C942 1.349 . S
C943 C959 1.349 1_655 S
C944 C942 1.327 1_455 S
C944 C963 1.429 . S
C944 H968 0.950 . S
C945 C962 1.574 . S
C945 C964 1.368 . S
C945 H969 0.949 . S
H946 C950 0.949 . S
C947 C948 1.349 . S
C947 C949 1.327 . S
C947 H970 0.950 . S
C948 C947 1.349 . S
C948 C960 1.349 . S
C949 C947 1.327 . S
C949 C965 1.429 . S
C949 H971 0.950 . S
C950 H946 0.949 . S
C950 C958 1.574 . S
C950 C966 1.368 . S
H951 C959 0.950 . S
H952 C957 0.950 . S
H953 C958 0.949 . S
H954 C960 0.950 . S
H955 C961 0.950 . S
H956 C962 0.949 . S
C957 H952 0.950 . S
C957 C959 1.327 . S
C957 C963 1.429 . S
C958 C950 1.574 . S
C958 H953 0.949 . S
C958 C964 1.368 . S
C959 C943 1.349 1_455 S
C959 H951 0.950 . S
C959 C957 1.327 . S
C960 C948 1.349 . S
C960 H954 0.950 . S
C960 C961 1.327 . S
C961 H955 0.950 . S
C961 C960 1.327 . S
C961 C965 1.429 . S
C962 C945 1.574 . S
C962 H956 0.949 . S
C962 C966 1.368 . S
C963 C944 1.429 . S
C963 C957 1.429 . S
C963 C964 1.523 . S
C964 C945 1.368 . S
C964 C958 1.368 . S
C964 C963 1.523 . S
C965 C949 1.429 . S
C965 C961 1.429 . S
C965 C966 1.523 . S
C966 C950 1.368 . S
C966 C962 1.368 . S
C966 C965 1.523 . S
H967 C942 0.950 . S
H968 C944 0.950 . S
H969 C945 0.949 . S
H970 C947 0.950 . S
H971 C949 0.950 . S
C972 C973 1.349 . S
C972 C974 1.327 . S
C972 H997 0.950 . S
C973 C972 1.349 . S
C973 C989 1.349 . S
C974 C972 1.327 . S
C974 C993 1.429 . S
C974 H998 0.950 . S
C975 C992 1.574 . S
C975 C994 1.368 . S
C975 H999 0.949 . S
H976 C980 0.949 . S
C977 C978 1.349 . S
C977 C979 1.327 . S
C977 H1000 0.950 . S
C978 C977 1.349 . S
C978 C990 1.349 . S
C979 C977 1.327 . S
C979 C995 1.429 . S
C979 H1001 0.950 . S
C980 H976 0.949 . S
C980 C988 1.574 . S
C980 C996 1.368 . S
H981 C989 0.950 . S
H982 C987 0.950 . S
H983 C988 0.949 . S
H984 C990 0.950 . S
H985 C991 0.950 . S
H986 C992 0.949 . S
C987 H982 0.950 . S
C987 C989 1.327 . S
C987 C993 1.429 . S
C988 C980 1.574 . S
C988 H983 0.949 . S
C988 C994 1.368 . S
C989 C973 1.349 . S
C989 H981 0.950 . S
C989 C987 1.327 . S
C990 C978 1.349 . S
C990 H984 0.950 . S
C990 C991 1.327 . S
C991 H985 0.950 . S
C991 C990 1.327 . S
C991 C995 1.429 . S
C992 C975 1.574 . S
C992 H986 0.949 . S
C992 C996 1.368 . S
C993 C974 1.429 . S
C993 C987 1.429 . S
C993 C994 1.523 . S
C994 C975 1.368 . S
C994 C988 1.368 . S
C994 C993 1.523 . S
C995 C979 1.429 . S
C995 C991 1.429 . S
C995 C996 1.523 . S
C996 C980 1.368 . S
C996 C992 1.368 . S
C996 C995 1.523 . S
H997 C972 0.950 . S
H998 C974 0.950 . S
H999 C975 0.949 . S
H1000 C977 0.950 . S
H1001 C979 0.950 . S
C1002 C1003 1.349 1_655 S
C1002 C1004 1.327 . S
C1002 H1027 0.950 . S
C1003 C1002 1.349 1_455 S
C1003 C1019 1.349 . S
C1004 C1002 1.327 . S
C1004 C1023 1.429 . S
C1004 H1028 0.950 . S
C1005 C1022 1.574 . S
C1005 C1024 1.368 . S
C1005 H1029 0.949 . S
H1006 C1010 0.949 . S
C1007 C1008 1.349 . S
C1007 C1009 1.327 . S
C1007 H1030 0.950 . S
C1008 C1007 1.349 . S
C1008 C1020 1.349 . S
C1009 C1007 1.327 . S
C1009 C1025 1.429 . S
C1009 H1031 0.950 . S
C1010 H1006 0.949 . S
C1010 C1018 1.574 . S
C1010 C1026 1.368 . S
H1011 C1019 0.950 . S
H1012 C1017 0.950 . S
H1013 C1018 0.949 . S
H1014 C1020 0.950 . S
H1015 C1021 0.950 . S
H1016 C1022 0.949 . S
C1017 H1012 0.950 . S
C1017 C1019 1.327 1_655 S
C1017 C1023 1.429 . S
C1018 C1010 1.574 . S
C1018 H1013 0.949 . S
C1018 C1024 1.368 . S
C1019 C1003 1.349 . S
C1019 H1011 0.950 . S
C1019 C1017 1.327 1_455 S
C1020 C1008 1.349 . S
C1020 H1014 0.950 . S
C1020 C1021 1.327 . S
C1021 H1015 0.950 . S
C1021 C1020 1.327 . S
C1021 C1025 1.429 . S
C1022 C1005 1.574 . S
C1022 H1016 0.949 . S
C1022 C1026 1.368 . S
C1023 C1004 1.429 . S
C1023 C1017 1.429 . S
C1023 C1024 1.523 . S
C1024 C1005 1.368 . S
C1024 C1018 1.368 . S
C1024 C1023 1.523 . S
C1025 C1009 1.429 . S
C1025 C1021 1.429 . S
C1025 C1026 1.523 . S
C1026 C1010 1.368 . S
C1026 C1022 1.368 . S
C1026 C1025 1.523 . S
H1027 C1002 0.950 . S
H1028 C1004 0.950 . S
H1029 C1005 0.949 . S
H1030 C1007 0.950 . S
H1031 C1009 0.950 . S
C1032 C1033 1.349 . S
C1032 C1034 1.327 . S
C1032 H1057 0.950 . S
C1033 C1032 1.349 . S
C1033 C1049 1.349 . S
C1034 C1032 1.327 . S
C1034 C1053 1.429 . S
C1034 H1058 0.950 . S
C1035 C1052 1.574 . S
C1035 C1054 1.368 . S
C1035 H1059 0.949 . S
H1036 C1040 0.949 . S
C1037 C1038 1.349 . S
C1037 C1039 1.327 . S
C1037 H1060 0.950 . S
C1038 C1037 1.349 . S
C1038 C1050 1.349 . S
C1039 C1037 1.327 . S
C1039 C1055 1.429 . S
C1039 H1061 0.950 . S
C1040 H1036 0.949 . S
C1040 C1048 1.574 . S
C1040 C1056 1.368 . S
H1041 C1049 0.950 . S
H1042 C1047 0.950 . S
H1043 C1048 0.949 . S
H1044 C1050 0.950 . S
H1045 C1051 0.950 . S
H1046 C1052 0.949 . S
C1047 H1042 0.950 . S
C1047 C1049 1.327 . S
C1047 C1053 1.429 . S
C1048 C1040 1.574 . S
C1048 H1043 0.949 . S
C1048 C1054 1.368 . S
C1049 C1033 1.349 . S
C1049 H1041 0.950 . S
C1049 C1047 1.327 . S
C1050 C1038 1.349 . S
C1050 H1044 0.950 . S
C1050 C1051 1.327 . S
C1051 H1045 0.950 . S
C1051 C1050 1.327 . S
C1051 C1055 1.429 . S
C1052 C1035 1.574 . S
C1052 H1046 0.949 . S
C1052 C1056 1.368 . S
C1053 C1034 1.429 . S
C1053 C1047 1.429 . S
C1053 C1054 1.523 . S
C1054 C1035 1.368 . S
C1054 C1048 1.368 . S
C1054 C1053 1.523 . S
C1055 C1039 1.429 . S
C1055 C1051 1.429 . S
C1055 C1056 1.523 . S
C1056 C1040 1.368 . S
C1056 C1052 1.368 . S
C1056 C1055 1.523 . S
H1057 C1032 0.950 . S
H1058 C1034 0.950 . S
H1059 C1035 0.949 . S
H1060 C1037 0.950 . S
H1061 C1039 0.950 . S
C1062 C1063 1.349 . S
C1062 C1064 1.327 . S
C1062 H1087 0.950 . S
C1063 C1062 1.349 . S
C1063 C1079 1.349 . S
C1064 C1062 1.327 . S
C1064 C1083 1.429 . S
C1064 H1088 0.950 . S
C1065 C1082 1.574 . S
C1065 C1084 1.368 . S
C1065 H1089 0.949 . S
H1066 C1070 0.949 . S
C1067 C1068 1.349 1_554 S
C1067 C1069 1.327 . S
C1067 H1090 0.950 . S
C1068 C1067 1.349 1_556 S
C1068 C1080 1.349 . S
C1069 C1067 1.327 . S
C1069 C1085 1.429 . S
C1069 H1091 0.950 . S
C1070 H1066 0.949 . S
C1070 C1078 1.574 . S
C1070 C1086 1.368 . S
H1071 C1079 0.950 . S
H1072 C1077 0.950 . S
H1073 C1078 0.949 . S
H1074 C1080 0.950 . S
H1075 C1081 0.950 . S
H1076 C1082 0.949 . S
C1077 H1072 0.950 . S
C1077 C1079 1.327 . S
C1077 C1083 1.429 . S
C1078 C1070 1.574 . S
C1078 H1073 0.949 . S
C1078 C1084 1.368 . S
C1079 C1063 1.349 . S
C1079 H1071 0.950 . S
C1079 C1077 1.327 . S
C1080 C1068 1.349 . S
C1080 H1074 0.950 . S
C1080 C1081 1.327 1_556 S
C1081 H1075 0.950 . S
C1081 C1080 1.327 1_554 S
C1081 C1085 1.429 . S
C1082 C1065 1.574 . S
C1082 H1076 0.949 . S
C1082 C1086 1.368 . S
C1083 C1064 1.429 . S
C1083 C1077 1.429 . S
C1083 C1084 1.523 . S
C1084 C1065 1.368 . S
C1084 C1078 1.368 . S
C1084 C1083 1.523 . S
C1085 C1069 1.429 . S
C1085 C1081 1.429 . S
C1085 C1086 1.523 . S
C1086 C1070 1.368 . S
C1086 C1082 1.368 . S
C1086 C1085 1.523 . S
H1087 C1062 0.950 . S
H1088 C1064 0.950 . S
H1089 C1065 0.949 . S
H1090 C1067 0.950 . S
H1091 C1069 0.950 . S
C1092 C1093 1.349 . S
C1092 C1094 1.327 . S
C1092 H1117 0.950 . S
C1093 C1092 1.349 . S
C1093 C1109 1.349 . S
C1094 C1092 1.327 . S
C1094 C1113 1.429 . S
C1094 H1118 0.950 . S
C1095 C1112 1.574 . S
C1095 C1114 1.368 . S
C1095 H1119 0.949 . S
H1096 C1100 0.949 . S
C1097 C1098 1.349 . S
C1097 C1099 1.327 . S
C1097 H1120 0.950 . S
C1098 C1097 1.349 . S
C1098 C1110 1.349 . S
C1099 C1097 1.327 . S
C1099 C1115 1.429 . S
C1099 H1121 0.950 . S
C1100 H1096 0.949 . S
C1100 C1108 1.574 . S
C1100 C1116 1.368 . S
H1101 C1109 0.950 . S
H1102 C1107 0.950 . S
H1103 C1108 0.949 . S
H1104 C1110 0.950 . S
H1105 C1111 0.950 . S
H1106 C1112 0.949 . S
C1107 H1102 0.950 . S
C1107 C1109 1.327 . S
C1107 C1113 1.429 . S
C1108 C1100 1.574 . S
C1108 H1103 0.949 . S
C1108 C1114 1.368 . S
C1109 C1093 1.349 . S
C1109 H1101 0.950 . S
C1109 C1107 1.327 . S
C1110 C1098 1.349 . S
C1110 H1104 0.950 . S
C1110 C1111 1.327 . S
C1111 H1105 0.950 . S
C1111 C1110 1.327 . S
C1111 C1115 1.429 . S
C1112 C1095 1.574 . S
C1112 H1106 0.949 . S
C1112 C1116 1.368 . S
C1113 C1094 1.429 . S
C1113 C1107 1.429 . S
C1113 C1114 1.523 . S
C1114 C1095 1.368 . S
C1114 C1108 1.368 . S
C1114 C1113 1.523 . S
C1115 C1099 1.429 . S
C1115 C1111 1.429 . S
C1115 C1116 1.523 . S
C1116 C1100 1.368 . S
C1116 C1112 1.368 . S
C1116 C1115 1.523 . S
H1117 C1092 0.950 . S
H1118 C1094 0.950 . S
H1119 C1095 0.949 . S
H1120 C1097 0.950 . S
H1121 C1099 0.950 . S
C1122 C1123 1.349 1_554 S
C1122 C1124 1.327 . S
C1122 H1147 0.950 . S
C1123 C1122 1.349 1_556 S
C1123 C1139 1.349 . S
C1124 C1122 1.327 . S
C1124 C1143 1.429 . S
C1124 H1148 0.950 . S
C1125 C1142 1.574 . S
C1125 C1144 1.368 . S
C1125 H1149 0.949 . S
H1126 C1130 0.949 . S
C1127 C1128 1.349 . S
C1127 C1129 1.327 . S
C1127 H1150 0.950 . S
C1128 C1127 1.349 . S
C1128 C1140 1.349 . S
C1129 C1127 1.327 . S
C1129 C1145 1.429 . S
C1129 H1151 0.950 . S
C1130 H1126 0.949 . S
C1130 C1138 1.574 . S
C1130 C1146 1.368 . S
H1131 C1139 0.950 . S
H1132 C1137 0.950 . S
H1133 C1138 0.949 . S
H1134 C1140 0.950 . S
H1135 C1141 0.950 . S
H1136 C1142 0.949 . S
C1137 H1132 0.950 . S
C1137 C1139 1.327 1_554 S
C1137 C1143 1.429 . S
C1138 C1130 1.574 . S
C1138 H1133 0.949 . S
C1138 C1144 1.368 . S
C1139 C1123 1.349 . S
C1139 H1131 0.950 . S
C1139 C1137 1.327 1_556 S
C1140 C1128 1.349 . S
C1140 H1134 0.950 . S
C1140 C1141 1.327 . S
C1141 H1135 0.950 . S
C1141 C1140 1.327 . S
C1141 C1145 1.429 . S
C1142 C1125 1.574 . S
C1142 H1136 0.949 . S
C1142 C1146 1.368 . S
C1143 C1124 1.429 . S
C1143 C1137 1.429 . S
C1143 C1144 1.523 . S
C1144 C1125 1.368 . S
C1144 C1138 1.368 . S
C1144 C1143 1.523 . S
C1145 C1129 1.429 . S
C1145 C1141 1.429 . S
C1145 C1146 1.523 . S
C1146 C1130 1.368 . S
C1146 C1142 1.368 . S
C1146 C1145 1.523 . S
H1147 C1122 0.950 . S
H1148 C1124 0.950 . S
H1149 C1125 0.949 . S
H1150 C1127 0.950 . S
H1151 C1129 0.950 . S
C1152 C1153 1.349 . S
C1152 C1154 1.327 . S
C1152 H1177 0.950 . S
C1153 C1152 1.349 . S
C1153 C1169 1.349 . S
C1154 C1152 1.327 . S
C1154 C1173 1.429 . S
C1154 H1178 0.950 . S
C1155 C1172 1.574 . S
C1155 C1174 1.368 . S
C1155 H1179 0.949 . S
H1156 C1160 0.949 . S
C1157 C1158 1.349 . S
C1157 C1159 1.327 . S
C1157 H1180 0.950 . S
C1158 C1157 1.349 . S
C1158 C1170 1.349 . S
C1159 C1157 1.327 . S
C1159 C1175 1.429 . S
C1159 H1181 0.950 . S
C1160 H1156 0.949 . S
C1160 C1168 1.574 . S
C1160 C1176 1.368 . S
H1161 C1169 0.950 . S
H1162 C1167 0.950 . S
H1163 C1168 0.949 . S
H1164 C1170 0.950 . S
H1165 C1171 0.950 . S
H1166 C1172 0.949 . S
C1167 H1162 0.950 . S
C1167 C1169 1.327 . S
C1167 C1173 1.429 . S
C1168 C1160 1.574 . S
C1168 H1163 0.949 . S
C1168 C1174 1.368 . S
C1169 C1153 1.349 . S
C1169 H1161 0.950 . S
C1169 C1167 1.327 . S
C1170 C1158 1.349 . S
C1170 H1164 0.950 . S
C1170 C1171 1.327 . S
C1171 H1165 0.950 . S
C1171 C1170 1.327 . S
C1171 C1175 1.429 . S
C1172 C1155 1.574 . S
C1172 H1166 0.949 . S
C1172 C1176 1.368 . S
C1173 C1154 1.429 . S
C1173 C1167 1.429 . S
C1173 C1174 1.523 . S
C1174 C1155 1.368 . S
C1174 C1168 1.368 . S
C1174 C1173 1.523 . S
C1175 C1159 1.429 . S
C1175 C1171 1.429 . S
C1175 C1176 1.523 . S
C1176 C1160 1.368 . S
C1176 C1172 1.368 . S
C1176 C1175 1.523 . S
H1177 C1152 0.950 . S
H1178 C1154 0.950 . S
H1179 C1155 0.949 . S
H1180 C1157 0.950 . S
H1181 C1159 0.950 . S
C1182 C1183 1.349 . S
C1182 C1184 1.327 . S
C1182 H1207 0.950 . S
C1183 C1182 1.349 . S
C1183 C1199 1.349 . S
C1184 C1182 1.327 . S
C1184 C1203 1.429 . S
C1184 H1208 0.950 . S
C1185 C1202 1.574 . S
C1185 C1204 1.368 . S
C1185 H1209 0.949 . S
H1186 C1190 0.949 . S
C1187 C1188 1.349 1_556 S
C1187 C1189 1.327 . S
C1187 H1210 0.950 . S
C1188 C1187 1.349 1_554 S
C1188 C1200 1.349 . S
C1189 C1187 1.327 . S
C1189 C1205 1.429 . S
C1189 H1211 0.950 . S
C1190 H1186 0.949 . S
C1190 C1198 1.574 . S
C1190 C1206 1.368 . S
H1191 C1199 0.950 . S
H1192 C1197 0.950 . S
H1193 C1198 0.949 . S
H1194 C1200 0.950 . S
H1195 C1201 0.950 . S
H1196 C1202 0.949 . S
C1197 H1192 0.950 . S
C1197 C1199 1.327 . S
C1197 C1203 1.429 . S
C1198 C1190 1.574 . S
C1198 H1193 0.949 . S
C1198 C1204 1.368 . S
C1199 C1183 1.349 . S
C1199 H1191 0.950 . S
C1199 C1197 1.327 . S
C1200 C1188 1.349 . S
C1200 H1194 0.950 . S
C1200 C1201 1.327 1_554 S
C1201 H1195 0.950 . S
C1201 C1200 1.327 1_556 S
C1201 C1205 1.429 . S
C1202 C1185 1.574 . S
C1202 H1196 0.949 . S
C1202 C1206 1.368 . S
C1203 C1184 1.429 . S
C1203 C1197 1.429 . S
C1203 C1204 1.523 . S
C1204 C1185 1.368 . S
C1204 C1198 1.368 . S
C1204 C1203 1.523 . S
C1205 C1189 1.429 . S
C1205 C1201 1.429 . S
C1205 C1206 1.523 . S
C1206 C1190 1.368 . S
C1206 C1202 1.368 . S
C1206 C1205 1.523 . S
H1207 C1182 0.950 . S
H1208 C1184 0.950 . S
H1209 C1185 0.949 . S
H1210 C1187 0.950 . S
H1211 C1189 0.950 . S
C1212 C1213 1.349 . S
C1212 C1214 1.327 . S
C1212 H1237 0.950 . S
C1213 C1212 1.349 . S
C1213 C1229 1.349 . S
C1214 C1212 1.327 . S
C1214 C1233 1.429 . S
C1214 H1238 0.950 . S
C1215 C1232 1.574 . S
C1215 C1234 1.368 . S
C1215 H1239 0.949 . S
H1216 C1220 0.949 . S
C1217 C1218 1.349 . S
C1217 C1219 1.327 . S
C1217 H1240 0.950 . S
C1218 C1217 1.349 . S
C1218 C1230 1.349 . S
C1219 C1217 1.327 . S
C1219 C1235 1.429 . S
C1219 H1241 0.950 . S
C1220 H1216 0.949 . S
C1220 C1228 1.574 . S
C1220 C1236 1.368 . S
H1221 C1229 0.950 . S
H1222 C1227 0.950 . S
H1223 C1228 0.949 . S
H1224 C1230 0.950 . S
H1225 C1231 0.950 . S
H1226 C1232 0.949 . S
C1227 H1222 0.950 . S
C1227 C1229 1.327 . S
C1227 C1233 1.429 . S
C1228 C1220 1.574 . S
C1228 H1223 0.949 . S
C1228 C1234 1.368 . S
C1229 C1213 1.349 . S
C1229 H1221 0.950 . S
C1229 C1227 1.327 . S
C1230 C1218 1.349 . S
C1230 H1224 0.950 . S
C1230 C1231 1.327 . S
C1231 H1225 0.950 . S
C1231 C1230 1.327 . S
C1231 C1235 1.429 . S
C1232 C1215 1.574 . S
C1232 H1226 0.949 . S
C1232 C1236 1.368 . S
C1233 C1214 1.429 . S
C1233 C1227 1.429 . S
C1233 C1234 1.523 . S
C1234 C1215 1.368 . S
C1234 C1228 1.368 . S
C1234 C1233 1.523 . S
C1235 C1219 1.429 . S
C1235 C1231 1.429 . S
C1235 C1236 1.523 . S
C1236 C1220 1.368 . S
C1236 C1232 1.368 . S
C1236 C1235 1.523 . S
H1237 C1212 0.950 . S
H1238 C1214 0.950 . S
H1239 C1215 0.949 . S
H1240 C1217 0.950 . S
H1241 C1219 0.950 . S
C1242 C1243 1.349 1_556 S
C1242 C1244 1.327 . S
C1242 H1267 0.950 . S
C1243 C1242 1.349 1_554 S
C1243 C1259 1.349 . S
C1244 C1242 1.327 . S
C1244 C1263 1.429 . S
C1244 H1268 0.950 . S
C1245 C1262 1.574 . S
C1245 C1264 1.368 . S
C1245 H1269 0.949 . S
H1246 C1250 0.949 . S
C1247 C1248 1.349 . S
C1247 C1249 1.327 . S
C1247 H1270 0.950 . S
C1248 C1247 1.349 . S
C1248 C1260 1.349 . S
C1249 C1247 1.327 . S
C1249 C1265 1.429 . S
C1249 H1271 0.950 . S
C1250 H1246 0.949 . S
C1250 C1258 1.574 . S
C1250 C1266 1.368 . S
H1251 C1259 0.950 . S
H1252 C1257 0.950 . S
H1253 C1258 0.949 . S
H1254 C1260 0.950 . S
H1255 C1261 0.950 . S
H1256 C1262 0.949 . S
C1257 H1252 0.950 . S
C1257 C1259 1.327 1_556 S
C1257 C1263 1.429 . S
C1258 C1250 1.574 . S
C1258 H1253 0.949 . S
C1258 C1264 1.368 . S
C1259 C1243 1.349 . S
C1259 H1251 0.950 . S
C1259 C1257 1.327 1_554 S
C1260 C1248 1.349 . S
C1260 H1254 0.950 . S
C1260 C1261 1.327 . S
C1261 H1255 0.950 . S
C1261 C1260 1.327 . S
C1261 C1265 1.429 . S
C1262 C1245 1.574 . S
C1262 H1256 0.949 . S
C1262 C1266 1.368 . S
C1263 C1244 1.429 . S
C1263 C1257 1.429 . S
C1263 C1264 1.523 . S
C1264 C1245 1.368 . S
C1264 C1258 1.368 . S
C1264 C1263 1.523 . S
C1265 C1249 1.429 . S
C1265 C1261 1.429 . S
C1265 C1266 1.523 . S
C1266 C1250 1.368 . S
C1266 C1262 1.368 . S
C1266 C1265 1.523 . S
H1267 C1242 0.950 . S
H1268 C1244 0.950 . S
H1269 C1245 0.949 . S
H1270 C1247 0.950 . S
H1271 C1249 0.950 . S
C1272 C1273 1.349 . S
C1272 C1274 1.327 . S
C1272 H1297 0.950 . S
C1273 C1272 1.349 . S
C1273 C1289 1.349 . S
C1274 C1272 1.327 . S
C1274 C1293 1.429 . S
C1274 H1298 0.950 . S
C1275 C1292 1.574 . S
C1275 C1294 1.368 . S
C1275 H1299 0.949 . S
H1276 C1280 0.949 . S
C1277 C1278 1.349 . S
C1277 C1279 1.327 . S
C1277 H1300 0.950 . S
C1278 C1277 1.349 . S
C1278 C1290 1.349 . S
C1279 C1277 1.327 . S
C1279 C1295 1.429 . S
C1279 H1301 0.950 . S
C1280 H1276 0.949 . S
C1280 C1288 1.574 . S
C1280 C1296 1.368 . S
H1281 C1289 0.950 . S
H1282 C1287 0.950 . S
H1283 C1288 0.949 . S
H1284 C1290 0.950 . S
H1285 C1291 0.950 . S
H1286 C1292 0.949 . S
C1287 H1282 0.950 . S
C1287 C1289 1.327 . S
C1287 C1293 1.429 . S
C1288 C1280 1.574 . S
C1288 H1283 0.949 . S
C1288 C1294 1.368 . S
C1289 C1273 1.349 . S
C1289 H1281 0.950 . S
C1289 C1287 1.327 . S
C1290 C1278 1.349 . S
C1290 H1284 0.950 . S
C1290 C1291 1.327 . S
C1291 H1285 0.950 . S
C1291 C1290 1.327 . S
C1291 C1295 1.429 . S
C1292 C1275 1.574 . S
C1292 H1286 0.949 . S
C1292 C1296 1.368 . S
C1293 C1274 1.429 . S
C1293 C1287 1.429 . S
C1293 C1294 1.523 . S
C1294 C1275 1.368 . S
C1294 C1288 1.368 . S
C1294 C1293 1.523 . S
C1295 C1279 1.429 . S
C1295 C1291 1.429 . S
C1295 C1296 1.523 . S
C1296 C1280 1.368 . S
C1296 C1292 1.368 . S
C1296 C1295 1.523 . S
H1297 C1272 0.950 . S
H1298 C1274 0.950 . S
H1299 C1275 0.949 . S
H1300 C1277 0.950 . S
H1301 C1279 0.950 . S
C1302 C1303 1.349 . S
C1302 C1304 1.327 . S
C1302 H1327 0.950 . S
C1303 C1302 1.349 . S
C1303 C1319 1.349 . S
C1304 C1302 1.327 . S
C1304 C1323 1.429 . S
C1304 H1328 0.950 . S
C1305 C1322 1.574 . S
C1305 C1324 1.368 . S
C1305 H1329 0.949 . S
H1306 C1310 0.949 . S
C1307 C1308 1.349 . S
C1307 C1309 1.327 . S
C1307 H1330 0.950 . S
C1308 C1307 1.349 . S
C1308 C1320 1.349 . S
C1309 C1307 1.327 . S
C1309 C1325 1.429 . S
C1309 H1331 0.950 . S
C1310 H1306 0.949 . S
C1310 C1318 1.574 . S
C1310 C1326 1.368 . S
H1311 C1319 0.950 . S
H1312 C1317 0.950 . S
H1313 C1318 0.949 . S
H1314 C1320 0.950 . S
H1315 C1321 0.950 . S
H1316 C1322 0.949 . S
C1317 H1312 0.950 . S
C1317 C1319 1.327 . S
C1317 C1323 1.429 . S
C1318 C1310 1.574 . S
C1318 H1313 0.949 . S
C1318 C1324 1.368 . S
C1319 C1303 1.349 . S
C1319 H1311 0.950 . S
C1319 C1317 1.327 . S
C1320 C1308 1.349 . S
C1320 H1314 0.950 . S
C1320 C1321 1.327 . S
C1321 H1315 0.950 . S
C1321 C1320 1.327 . S
C1321 C1325 1.429 . S
C1322 C1305 1.574 . S
C1322 H1316 0.949 . S
C1322 C1326 1.368 . S
C1323 C1304 1.429 . S
C1323 C1317 1.429 . S
C1323 C1324 1.523 . S
C1324 C1305 1.368 . S
C1324 C1318 1.368 . S
C1324 C1323 1.523 . S
C1325 C1309 1.429 . S
C1325 C1321 1.429 . S
C1325 C1326 1.523 . S
C1326 C1310 1.368 . S
C1326 C1322 1.368 . S
C1326 C1325 1.523 . S
H1327 C1302 0.950 . S
H1328 C1304 0.950 . S
H1329 C1305 0.949 . S
H1330 C1307 0.950 . S
H1331 C1309 0.950 . S
C1332 C1333 1.349 1_545 S
C1332 C1334 1.327 . S
C1332 H1357 0.958 . S
C1333 C1332 1.349 1_565 S
C1333 C1349 1.349 . S
C1334 C1332 1.327 . S
C1334 C1353 1.429 . S
C1334 H1358 0.950 . S
C1335 C1352 1.574 . S
C1335 C1354 1.368 . S
C1335 H1359 0.949 . S
H1336 C1340 0.949 . S
C1337 C1338 1.349 . S
C1337 C1339 1.327 . S
C1337 H1360 0.950 . S
C1338 C1337 1.349 . S
C1338 C1350 1.349 . S
C1339 C1337 1.327 . S
C1339 C1355 1.429 . S
C1339 H1361 0.950 . S
C1340 H1336 0.949 . S
C1340 C1348 1.574 . S
C1340 C1356 1.368 . S
H1341 C1349 0.950 . S
H1342 C1347 0.950 . S
H1343 C1348 0.949 . S
H1344 C1350 0.950 . S
H1345 C1351 0.950 . S
H1346 C1352 0.949 . S
C1347 H1342 0.950 . S
C1347 C1349 1.327 1_545 S
C1347 C1353 1.429 . S
C1348 C1340 1.574 . S
C1348 H1343 0.949 . S
C1348 C1354 1.368 . S
C1349 C1333 1.349 . S
C1349 H1341 0.950 . S
C1349 C1347 1.327 1_565 S
C1350 C1338 1.349 . S
C1350 H1344 0.950 . S
C1350 C1351 1.327 . S
C1351 H1345 0.950 . S
C1351 C1350 1.327 . S
C1351 C1355 1.429 . S
C1352 C1335 1.574 . S
C1352 H1346 0.949 . S
C1352 C1356 1.368 . S
C1353 C1334 1.429 . S
C1353 C1347 1.429 . S
C1353 C1354 1.523 . S
C1354 C1335 1.368 . S
C1354 C1348 1.368 . S
C1354 C1353 1.523 . S
C1355 C1339 1.429 . S
C1355 C1351 1.429 . S
C1355 C1356 1.523 . S
C1356 C1340 1.368 . S
C1356 C1352 1.368 . S
C1356 C1355 1.523 . S
H1357 C1332 0.958 . S
H1358 C1334 0.950 . S
H1359 C1335 0.949 . S
H1360 C1337 0.950 . S
H1361 C1339 0.950 . S
C1362 C1363 1.349 . S
C1362 C1364 1.327 . S
C1362 H1387 0.950 . S
C1363 C1362 1.349 . S
C1363 C1379 1.349 . S
C1364 C1362 1.327 . S
C1364 C1383 1.429 . S
C1364 H1388 0.950 . S
C1365 C1382 1.574 . S
C1365 C1384 1.368 . S
C1365 H1389 0.949 . S
H1366 C1370 0.949 . S
C1367 C1368 1.349 . S
C1367 C1369 1.327 . S
C1367 H1390 0.950 . S
C1368 C1367 1.349 . S
C1368 C1380 1.349 . S
C1369 C1367 1.327 . S
C1369 C1385 1.429 . S
C1369 H1391 0.950 . S
C1370 H1366 0.949 . S
C1370 C1378 1.574 . S
C1370 C1386 1.368 . S
H1371 C1379 0.950 . S
H1372 C1377 0.950 . S
H1373 C1378 0.949 . S
H1374 C1380 0.950 . S
H1375 C1381 0.950 . S
H1376 C1382 0.949 . S
C1377 H1372 0.950 . S
C1377 C1379 1.327 . S
C1377 C1383 1.429 . S
C1378 C1370 1.574 . S
C1378 H1373 0.949 . S
C1378 C1384 1.368 . S
C1379 C1363 1.349 . S
C1379 H1371 0.950 . S
C1379 C1377 1.327 . S
C1380 C1368 1.349 . S
C1380 H1374 0.950 . S
C1380 C1381 1.327 . S
C1381 H1375 0.950 . S
C1381 C1380 1.327 . S
C1381 C1385 1.429 . S
C1382 C1365 1.574 . S
C1382 H1376 0.949 . S
C1382 C1386 1.368 . S
C1383 C1364 1.429 . S
C1383 C1377 1.429 . S
C1383 C1384 1.523 . S
C1384 C1365 1.368 . S
C1384 C1378 1.368 . S
C1384 C1383 1.523 . S
C1385 C1369 1.429 . S
C1385 C1381 1.429 . S
C1385 C1386 1.523 . S
C1386 C1370 1.368 . S
C1386 C1382 1.368 . S
C1386 C1385 1.523 . S
H1387 C1362 0.950 . S
H1388 C1364 0.950 . S
H1389 C1365 0.949 . S
H1390 C1367 0.950 . S
H1391 C1369 0.950 . S
C1392 C1393 1.349 1_565 S
C1392 C1394 1.327 . S
C1392 H1417 0.950 . S
C1393 C1392 1.349 1_545 S
C1393 C1409 1.349 . S
C1394 C1392 1.327 . S
C1394 C1413 1.429 . S
C1394 H1418 0.950 . S
C1395 C1412 1.574 . S
C1395 C1414 1.368 . S
C1395 H1419 0.949 . S
H1396 C1400 0.949 . S
C1397 C1398 1.349 . S
C1397 C1399 1.327 . S
C1397 H1420 0.950 . S
C1398 C1397 1.349 . S
C1398 C1410 1.349 . S
C1399 C1397 1.327 . S
C1399 C1415 1.429 . S
C1399 H1421 0.950 . S
C1400 H1396 0.949 . S
C1400 C1408 1.574 . S
C1400 C1416 1.368 . S
H1401 C1409 0.950 . S
H1402 C1407 0.950 . S
H1403 C1408 0.949 . S
H1404 C1410 0.950 . S
H1405 C1411 0.950 . S
H1406 C1412 0.949 . S
C1407 H1402 0.950 . S
C1407 C1409 1.327 1_565 S
C1407 C1413 1.429 . S
C1408 C1400 1.574 . S
C1408 H1403 0.949 . S
C1408 C1414 1.368 . S
C1409 C1393 1.349 . S
C1409 H1401 0.950 . S
C1409 C1407 1.327 1_545 S
C1410 C1398 1.349 . S
C1410 H1404 0.950 . S
C1410 C1411 1.327 . S
C1411 H1405 0.950 . S
C1411 C1410 1.327 . S
C1411 C1415 1.429 . S
C1412 C1395 1.574 . S
C1412 H1406 0.949 . S
C1412 C1416 1.368 . S
C1413 C1394 1.429 . S
C1413 C1407 1.429 . S
C1413 C1414 1.523 . S
C1414 C1395 1.368 . S
C1414 C1408 1.368 . S
C1414 C1413 1.523 . S
C1415 C1399 1.429 . S
C1415 C1411 1.429 . S
C1415 C1416 1.523 . S
C1416 C1400 1.368 . S
C1416 C1412 1.368 . S
C1416 C1415 1.523 . S
H1417 C1392 0.950 . S
H1418 C1394 0.950 . S
H1419 C1395 0.949 . S
H1420 C1397 0.950 . S
H1421 C1399 0.950 . S
C1422 C1423 1.349 . S
C1422 C1424 1.327 . S
C1422 H1447 0.950 . S
C1423 C1422 1.349 . S
C1423 C1439 1.349 . S
C1424 C1422 1.327 . S
C1424 C1443 1.429 . S
C1424 H1448 0.950 . S
C1425 C1442 1.574 . S
C1425 C1444 1.368 . S
C1425 H1449 0.949 . S
H1426 C1430 0.949 . S
C1427 C1428 1.349 . S
C1427 C1429 1.327 . S
C1427 H1450 0.950 . S
C1428 C1427 1.349 . S
C1428 C1440 1.349 . S
C1429 C1427 1.327 . S
C1429 C1445 1.429 . S
C1429 H1451 0.950 . S
C1430 H1426 0.949 . S
C1430 C1438 1.574 . S
C1430 C1446 1.368 . S
H1431 C1439 0.950 . S
H1432 C1437 0.950 . S
H1433 C1438 0.949 . S
H1434 C1440 0.950 . S
H1435 C1441 0.950 . S
H1436 C1442 0.949 . S
C1437 H1432 0.950 . S
C1437 C1439 1.327 . S
C1437 C1443 1.429 . S
C1438 C1430 1.574 . S
C1438 H1433 0.949 . S
C1438 C1444 1.368 . S
C1439 C1423 1.349 . S
C1439 H1431 0.950 . S
C1439 C1437 1.327 . S
C1440 C1428 1.349 . S
C1440 H1434 0.950 . S
C1440 C1441 1.327 . S
C1441 H1435 0.950 . S
C1441 C1440 1.327 . S
C1441 C1445 1.429 . S
C1442 C1425 1.574 . S
C1442 H1436 0.949 . S
C1442 C1446 1.368 . S
C1443 C1424 1.429 . S
C1443 C1437 1.429 . S
C1443 C1444 1.523 . S
C1444 C1425 1.368 . S
C1444 C1438 1.368 . S
C1444 C1443 1.523 . S
C1445 C1429 1.429 . S
C1445 C1441 1.429 . S
C1445 C1446 1.523 . S
C1446 C1430 1.368 . S
C1446 C1442 1.368 . S
C1446 C1445 1.523 . S
H1447 C1422 0.950 . S
H1448 C1424 0.950 . S
H1449 C1425 0.949 . S
H1450 C1427 0.950 . S
H1451 C1429 0.950 . S
C1452 C1453 1.349 . S
C1452 C1454 1.327 1_545 S
C1452 H1477 0.950 . S
C1453 C1452 1.349 . S
C1453 C1469 1.349 1_545 S
C1454 C1452 1.327 1_565 S
C1454 C1473 1.429 . S
C1454 H1478 0.950 . S
C1455 C1472 1.574 . S
C1455 C1474 1.368 . S
C1455 H1479 0.949 . S
H1456 C1460 0.949 . S
C1457 C1458 1.349 . S
C1457 C1459 1.327 . S
C1457 H1480 0.950 . S
C1458 C1457 1.349 . S
C1458 C1470 1.349 . S
C1459 C1457 1.327 . S
C1459 C1475 1.429 . S
C1459 H1481 0.950 . S
C1460 H1456 0.949 . S
C1460 C1468 1.574 . S
C1460 C1476 1.368 . S
H1461 C1469 0.950 . S
H1462 C1467 0.950 . S
H1463 C1468 0.949 . S
H1464 C1470 0.950 . S
H1465 C1471 0.950 . S
H1466 C1472 0.949 . S
C1467 H1462 0.950 . S
C1467 C1469 1.327 . S
C1467 C1473 1.429 . S
C1468 C1460 1.574 . S
C1468 H1463 0.949 . S
C1468 C1474 1.368 . S
C1469 C1453 1.349 1_565 S
C1469 H1461 0.950 . S
C1469 C1467 1.327 . S
C1470 C1458 1.349 . S
C1470 H1464 0.950 . S
C1470 C1471 1.327 . S
C1471 H1465 0.950 . S
C1471 C1470 1.327 . S
C1471 C1475 1.429 . S
C1472 C1455 1.574 . S
C1472 H1466 0.949 . S
C1472 C1476 1.368 . S
C1473 C1454 1.429 . S
C1473 C1467 1.429 . S
C1473 C1474 1.523 . S
C1474 C1455 1.368 . S
C1474 C1468 1.368 . S
C1474 C1473 1.523 . S
C1475 C1459 1.429 . S
C1475 C1471 1.429 . S
C1475 C1476 1.523 . S
C1476 C1460 1.368 . S
C1476 C1472 1.368 . S
C1476 C1475 1.523 . S
H1477 C1452 0.950 . S
H1478 C1454 0.950 . S
H1479 C1455 0.949 . S
H1480 C1457 0.950 . S
H1481 C1459 0.950 . S
C1482 C1483 1.349 . S
C1482 C1484 1.327 1_565 S
C1482 H1507 0.950 . S
C1483 C1482 1.349 . S
C1483 C1499 1.349 1_565 S
C1484 C1482 1.327 1_545 S
C1484 C1503 1.429 . S
C1484 H1508 0.950 . S
C1485 C1502 1.574 . S
C1485 C1504 1.368 . S
C1485 H1509 0.949 . S
H1486 C1490 0.949 . S
C1487 C1488 1.349 . S
C1487 C1489 1.327 . S
C1487 H1510 0.950 . S
C1488 C1487 1.349 . S
C1488 C1500 1.349 . S
C1489 C1487 1.327 . S
C1489 C1505 1.429 . S
C1489 H1511 0.950 . S
C1490 H1486 0.949 . S
C1490 C1498 1.574 . S
C1490 C1506 1.368 . S
H1491 C1499 0.950 . S
H1492 C1497 0.950 . S
H1493 C1498 0.949 . S
H1494 C1500 0.950 . S
H1495 C1501 0.950 . S
H1496 C1502 0.949 . S
C1497 H1492 0.950 . S
C1497 C1499 1.327 . S
C1497 C1503 1.429 . S
C1498 C1490 1.574 . S
C1498 H1493 0.949 . S
C1498 C1504 1.368 . S
C1499 C1483 1.349 1_545 S
C1499 H1491 0.950 . S
C1499 C1497 1.327 . S
C1500 C1488 1.349 . S
C1500 H1494 0.950 . S
C1500 C1501 1.327 . S
C1501 H1495 0.950 . S
C1501 C1500 1.327 . S
C1501 C1505 1.429 . S
C1502 C1485 1.574 . S
C1502 H1496 0.949 . S
C1502 C1506 1.368 . S
C1503 C1484 1.429 . S
C1503 C1497 1.429 . S
C1503 C1504 1.523 . S
C1504 C1485 1.368 . S
C1504 C1498 1.368 . S
C1504 C1503 1.523 . S
C1505 C1489 1.429 . S
C1505 C1501 1.429 . S
C1505 C1506 1.523 . S
C1506 C1490 1.368 . S
C1506 C1502 1.368 . S
C1506 C1505 1.523 . S
H1507 C1482 0.950 . S
H1508 C1484 0.950 . S
H1509 C1485 0.949 . S
H1510 C1487 0.950 . S
H1511 C1489 0.950 . S
C1512 C1513 1.349 . S
C1512 C1514 1.327 . S
C1512 H1537 0.950 . S
C1513 C1512 1.349 . S
C1513 C1529 1.349 . S
C1514 C1512 1.327 . S
C1514 C1533 1.429 . S
C1514 H1538 0.950 . S
C1515 C1532 1.574 1_556 S
C1515 C1534 1.368 . S
C1515 H1539 0.949 . S
H1516 C1520 0.949 . S
C1517 C1518 1.349 . S
C1517 C1519 1.327 . S
C1517 H1540 0.950 . S
C1518 C1517 1.349 . S
C1518 C1530 1.349 . S
C1519 C1517 1.327 . S
C1519 C1535 1.429 . S
C1519 H1541 0.950 . S
C1520 H1516 0.949 . S
C1520 C1528 1.574 1_554 S
C1520 C1536 1.368 . S
H1521 C1529 0.950 . S
H1522 C1527 0.950 . S
H1523 C1528 0.949 . S
H1524 C1530 0.950 . S
H1525 C1531 0.950 . S
H1526 C1532 0.949 . S
C1527 H1522 0.950 . S
C1527 C1529 1.327 . S
C1527 C1533 1.429 . S
C1528 C1520 1.574 1_556 S
C1528 H1523 0.949 . S
C1528 C1534 1.368 1_455 S
C1529 C1513 1.349 . S
C1529 H1521 0.950 . S
C1529 C1527 1.327 . S
C1530 C1518 1.349 . S
C1530 H1524 0.950 . S
C1530 C1531 1.327 . S
C1531 H1525 0.950 . S
C1531 C1530 1.327 . S
C1531 C1535 1.429 . S
C1532 C1515 1.574 1_554 S
C1532 H1526 0.949 . S
C1532 C1536 1.368 1_655 S
C1533 C1514 1.429 . S
C1533 C1527 1.429 . S
C1533 C1534 1.523 . S
C1534 C1515 1.368 . S
C1534 C1528 1.368 1_655 S
C1534 C1533 1.523 . S
C1535 C1519 1.429 . S
C1535 C1531 1.429 . S
C1535 C1536 1.523 . S
C1536 C1520 1.368 . S
C1536 C1532 1.368 1_455 S
C1536 C1535 1.523 . S
H1537 C1512 0.950 . S
H1538 C1514 0.950 . S
H1539 C1515 0.949 . S
H1540 C1517 0.950 . S
H1541 C1519 0.950 . S
C1542 C1543 1.349 . S
C1542 C1544 1.327 . S
C1542 H1567 0.950 . S
C1543 C1542 1.349 . S
C1543 C1559 1.349 . S
C1544 C1542 1.327 . S
C1544 C1563 1.429 . S
C1544 H1568 0.950 . S
C1545 C1562 1.574 . S
C1545 C1564 1.368 . S
C1545 H1569 0.949 . S
H1546 C1550 0.949 . S
C1547 C1548 1.349 . S
C1547 C1549 1.327 . S
C1547 H1570 0.950 . S
C1548 C1547 1.349 . S
C1548 C1560 1.349 . S
C1549 C1547 1.327 . S
C1549 C1565 1.429 . S
C1549 H1571 0.950 . S
C1550 H1546 0.949 . S
C1550 C1558 1.574 . S
C1550 C1566 1.368 . S
H1551 C1559 0.950 . S
H1552 C1557 0.950 . S
H1553 C1558 0.949 . S
H1554 C1560 0.950 . S
H1555 C1561 0.950 . S
H1556 C1562 0.949 . S
C1557 H1552 0.950 . S
C1557 C1559 1.327 . S
C1557 C1563 1.429 . S
C1558 C1550 1.574 . S
C1558 H1553 0.949 . S
C1558 C1564 1.368 . S
C1559 C1543 1.349 . S
C1559 H1551 0.950 . S
C1559 C1557 1.327 . S
C1560 C1548 1.349 . S
C1560 H1554 0.950 . S
C1560 C1561 1.327 . S
C1561 H1555 0.950 . S
C1561 C1560 1.327 . S
C1561 C1565 1.429 . S
C1562 C1545 1.574 . S
C1562 H1556 0.949 . S
C1562 C1566 1.368 . S
C1563 C1544 1.429 . S
C1563 C1557 1.429 . S
C1563 C1564 1.523 . S
C1564 C1545 1.368 . S
C1564 C1558 1.368 . S
C1564 C1563 1.523 . S
C1565 C1549 1.429 . S
C1565 C1561 1.429 . S
C1565 C1566 1.523 . S
C1566 C1550 1.368 . S
C1566 C1562 1.368 . S
C1566 C1565 1.523 . S
H1567 C1542 0.950 . S
H1568 C1544 0.950 . S
H1569 C1545 0.949 . S
H1570 C1547 0.950 . S
H1571 C1549 0.950 . S
C1572 C1573 1.349 . S
C1572 C1574 1.327 . S
C1572 H1597 0.950 . S
C1573 C1572 1.349 . S
C1573 C1589 1.349 . S
C1574 C1572 1.327 . S
C1574 C1593 1.429 . S
C1574 H1598 0.950 . S
C1575 C1592 1.574 1_556 S
C1575 C1594 1.368 1_655 S
C1575 H1599 0.949 . S
H1576 C1580 0.949 . S
C1577 C1578 1.349 . S
C1577 C1579 1.327 . S
C1577 H1600 0.950 . S
C1578 C1577 1.349 . S
C1578 C1590 1.349 . S
C1579 C1577 1.327 . S
C1579 C1595 1.429 . S
C1579 H1601 0.950 . S
C1580 H1576 0.949 . S
C1580 C1588 1.574 1_554 S
C1580 C1596 1.368 1_455 S
H1581 C1589 0.950 . S
H1582 C1587 0.950 . S
H1583 C1588 0.949 . S
H1584 C1590 0.950 . S
H1585 C1591 0.950 . S
H1586 C1592 0.949 . S
C1587 H1582 0.950 . S
C1587 C1589 1.327 . S
C1587 C1593 1.429 . S
C1588 C1580 1.574 1_556 S
C1588 H1583 0.949 . S
C1588 C1594 1.368 . S
C1589 C1573 1.349 . S
C1589 H1581 0.950 . S
C1589 C1587 1.327 . S
C1590 C1578 1.349 . S
C1590 H1584 0.950 . S
C1590 C1591 1.327 . S
C1591 H1585 0.950 . S
C1591 C1590 1.327 . S
C1591 C1595 1.429 . S
C1592 C1575 1.574 1_554 S
C1592 H1586 0.949 . S
C1592 C1596 1.368 . S
C1593 C1574 1.429 . S
C1593 C1587 1.429 . S
C1593 C1594 1.523 . S
C1594 C1575 1.368 1_455 S
C1594 C1588 1.368 . S
C1594 C1593 1.523 . S
C1595 C1579 1.429 . S
C1595 C1591 1.429 . S
C1595 C1596 1.523 . S
C1596 C1580 1.368 1_655 S
C1596 C1592 1.368 . S
C1596 C1595 1.523 . S
H1597 C1572 0.950 . S
H1598 C1574 0.950 . S
H1599 C1575 0.949 . S
H1600 C1577 0.950 . S
H1601 C1579 0.950 . S
C1602 C1603 1.349 . S
C1602 C1604 1.327 . S
C1602 H1627 0.950 . S
C1603 C1602 1.349 . S
C1603 C1619 1.349 . S
C1604 C1602 1.327 . S
C1604 C1623 1.429 . S
C1604 H1628 0.950 . S
C1605 C1622 1.574 . S
C1605 C1624 1.368 . S
C1605 H1629 0.949 . S
H1606 C1610 0.949 . S
C1607 C1608 1.349 . S
C1607 C1609 1.327 . S
C1607 H1630 0.950 . S
C1608 C1607 1.349 . S
C1608 C1620 1.349 . S
C1609 C1607 1.327 . S
C1609 C1625 1.429 . S
C1609 H1631 0.950 . S
C1610 H1606 0.949 . S
C1610 C1618 1.574 . S
C1610 C1626 1.368 . S
H1611 C1619 0.950 . S
H1612 C1617 0.950 . S
H1613 C1618 0.949 . S
H1614 C1620 0.950 . S
H1615 C1621 0.950 . S
H1616 C1622 0.949 . S
C1617 H1612 0.950 . S
C1617 C1619 1.327 . S
C1617 C1623 1.429 . S
C1618 C1610 1.574 . S
C1618 H1613 0.949 . S
C1618 C1624 1.368 . S
C1619 C1603 1.349 . S
C1619 H1611 0.950 . S
C1619 C1617 1.327 . S
C1620 C1608 1.349 . S
C1620 H1614 0.950 . S
C1620 C1621 1.327 . S
C1621 H1615 0.950 . S
C1621 C1620 1.327 . S
C1621 C1625 1.429 . S
C1622 C1605 1.574 . S
C1622 H1616 0.949 . S
C1622 C1626 1.368 . S
C1623 C1604 1.429 . S
C1623 C1617 1.429 . S
C1623 C1624 1.523 . S
C1624 C1605 1.368 . S
C1624 C1618 1.368 . S
C1624 C1623 1.523 . S
C1625 C1609 1.429 . S
C1625 C1621 1.429 . S
C1625 C1626 1.523 . S
C1626 C1610 1.368 . S
C1626 C1622 1.368 . S
C1626 C1625 1.523 . S
H1627 C1602 0.950 . S
H1628 C1604 0.950 . S
H1629 C1605 0.949 . S
H1630 C1607 0.950 . S
H1631 C1609 0.950 . S
C1632 C1633 1.349 . S
C1632 C1634 1.327 . S
C1632 H1657 0.950 . S
C1633 C1632 1.349 . S
C1633 C1649 1.349 . S
C1634 C1632 1.327 . S
C1634 C1653 1.429 . S
C1634 H1658 0.950 . S
C1635 C1652 1.574 1_655 S
C1635 C1654 1.368 . S
C1635 H1659 0.949 . S
H1636 C1640 0.949 . S
C1637 C1638 1.349 . S
C1637 C1639 1.327 . S
C1637 H1660 0.950 . S
C1638 C1637 1.349 . S
C1638 C1650 1.349 . S
C1639 C1637 1.327 . S
C1639 C1655 1.429 . S
C1639 H1661 0.950 . S
C1640 H1636 0.949 . S
C1640 C1648 1.574 1_455 S
C1640 C1656 1.368 . S
H1641 C1649 0.950 . S
H1642 C1647 0.950 . S
H1643 C1648 0.949 . S
H1644 C1650 0.950 . S
H1645 C1651 0.950 . S
H1646 C1652 0.949 . S
C1647 H1642 0.950 . S
C1647 C1649 1.327 . S
C1647 C1653 1.429 . S
C1648 C1640 1.574 1_655 S
C1648 H1643 0.949 . S
C1648 C1654 1.368 1_545 S
C1649 C1633 1.349 . S
C1649 H1641 0.950 . S
C1649 C1647 1.327 . S
C1650 C1638 1.349 . S
C1650 H1644 0.950 . S
C1650 C1651 1.327 . S
C1651 H1645 0.950 . S
C1651 C1650 1.327 . S
C1651 C1655 1.429 . S
C1652 C1635 1.574 1_455 S
C1652 H1646 0.949 . S
C1652 C1656 1.368 1_565 S
C1653 C1634 1.429 . S
C1653 C1647 1.429 . S
C1653 C1654 1.523 . S
C1654 C1635 1.368 . S
C1654 C1648 1.368 1_565 S
C1654 C1653 1.523 . S
C1655 C1639 1.429 . S
C1655 C1651 1.429 . S
C1655 C1656 1.523 . S
C1656 C1640 1.368 . S
C1656 C1652 1.368 1_545 S
C1656 C1655 1.523 . S
H1657 C1632 0.950 . S
H1658 C1634 0.950 . S
H1659 C1635 0.949 . S
H1660 C1637 0.950 . S
H1661 C1639 0.950 . S
C1662 C1663 1.349 . S
C1662 C1664 1.327 . S
C1662 H1687 0.950 . S
C1663 C1662 1.349 . S
C1663 C1679 1.349 . S
C1664 C1662 1.327 . S
C1664 C1683 1.429 . S
C1664 H1688 0.950 . S
C1665 C1682 1.574 . S
C1665 C1684 1.368 . S
C1665 H1689 0.949 . S
H1666 C1670 0.949 . S
C1667 C1668 1.349 . S
C1667 C1669 1.327 . S
C1667 H1690 0.950 . S
C1668 C1667 1.349 . S
C1668 C1680 1.349 . S
C1669 C1667 1.327 . S
C1669 C1685 1.429 . S
C1669 H1691 0.950 . S
C1670 H1666 0.949 . S
C1670 C1678 1.574 . S
C1670 C1686 1.368 . S
H1671 C1679 0.950 . S
H1672 C1677 0.950 . S
H1673 C1678 0.949 . S
H1674 C1680 0.950 . S
H1675 C1681 0.950 . S
H1676 C1682 0.949 . S
C1677 H1672 0.950 . S
C1677 C1679 1.327 . S
C1677 C1683 1.429 . S
C1678 C1670 1.574 . S
C1678 H1673 0.949 . S
C1678 C1684 1.368 . S
C1679 C1663 1.349 . S
C1679 H1671 0.950 . S
C1679 C1677 1.327 . S
C1680 C1668 1.349 . S
C1680 H1674 0.950 . S
C1680 C1681 1.327 . S
C1681 H1675 0.950 . S
C1681 C1680 1.327 . S
C1681 C1685 1.429 . S
C1682 C1665 1.574 . S
C1682 H1676 0.949 . S
C1682 C1686 1.368 . S
C1683 C1664 1.429 . S
C1683 C1677 1.429 . S
C1683 C1684 1.523 . S
C1684 C1665 1.368 . S
C1684 C1678 1.368 . S
C1684 C1683 1.523 . S
C1685 C1669 1.429 . S
C1685 C1681 1.429 . S
C1685 C1686 1.523 . S
C1686 C1670 1.368 . S
C1686 C1682 1.368 . S
C1686 C1685 1.523 . S
H1687 C1662 0.950 . S
H1688 C1664 0.950 . S
H1689 C1665 0.949 . S
H1690 C1667 0.950 . S
H1691 C1669 0.950 . S
C1692 C1693 1.349 . S
C1692 C1694 1.327 . S
C1692 H1717 0.950 . S
C1693 C1692 1.349 . S
C1693 C1709 1.349 . S
C1694 C1692 1.327 . S
C1694 C1713 1.429 . S
C1694 H1718 0.950 . S
C1695 C1712 1.574 1_455 S
C1695 C1714 1.368 . S
C1695 H1719 0.949 . S
H1696 C1700 0.949 . S
C1697 C1698 1.349 . S
C1697 C1699 1.327 . S
C1697 H1720 0.950 . S
C1698 C1697 1.349 . S
C1698 C1710 1.349 . S
C1699 C1697 1.327 . S
C1699 C1715 1.429 . S
C1699 H1721 0.950 . S
C1700 H1696 0.949 . S
C1700 C1708 1.574 1_655 S
C1700 C1716 1.368 . S
H1701 C1709 0.950 . S
H1702 C1707 0.950 . S
H1703 C1708 0.949 . S
H1704 C1710 0.950 . S
H1705 C1711 0.950 . S
H1706 C1712 0.949 . S
C1707 H1702 0.950 . S
C1707 C1709 1.327 . S
C1707 C1713 1.429 . S
C1708 C1700 1.574 1_455 S
C1708 H1703 0.949 . S
C1708 C1714 1.368 1_545 S
C1709 C1693 1.349 . S
C1709 H1701 0.950 . S
C1709 C1707 1.327 . S
C1710 C1698 1.349 . S
C1710 H1704 0.950 . S
C1710 C1711 1.327 . S
C1711 H1705 0.950 . S
C1711 C1710 1.327 . S
C1711 C1715 1.429 . S
C1712 C1695 1.574 1_655 S
C1712 H1706 0.949 . S
C1712 C1716 1.368 1_565 S
C1713 C1694 1.429 . S
C1713 C1707 1.429 . S
C1713 C1714 1.523 . S
C1714 C1695 1.368 . S
C1714 C1708 1.368 1_565 S
C1714 C1713 1.523 . S
C1715 C1699 1.429 . S
C1715 C1711 1.429 . S
C1715 C1716 1.523 . S
C1716 C1700 1.368 . S
C1716 C1712 1.368 1_545 S
C1716 C1715 1.523 . S
H1717 C1692 0.950 . S
H1718 C1694 0.950 . S
H1719 C1695 0.949 . S
H1720 C1697 0.950 . S
H1721 C1699 0.950 . S
C1722 C1723 1.349 . S
C1722 C1724 1.327 . S
C1722 H1747 0.950 . S
C1723 C1722 1.349 . S
C1723 C1739 1.349 . S
C1724 C1722 1.327 . S
C1724 C1743 1.429 . S
C1724 H1748 0.950 . S
C1725 C1742 1.574 . S
C1725 C1744 1.368 . S
C1725 H1749 0.949 . S
H1726 C1730 0.949 . S
C1727 C1728 1.349 . S
C1727 C1729 1.327 . S
C1727 H1750 0.950 . S
C1728 C1727 1.349 . S
C1728 C1740 1.349 . S
C1729 C1727 1.327 . S
C1729 C1745 1.429 . S
C1729 H1751 0.950 . S
C1730 H1726 0.949 . S
C1730 C1738 1.574 . S
C1730 C1746 1.368 . S
H1731 C1739 0.950 . S
H1732 C1737 0.950 . S
H1733 C1738 0.949 . S
H1734 C1740 0.950 . S
H1735 C1741 0.950 . S
H1736 C1742 0.949 . S
C1737 H1732 0.950 . S
C1737 C1739 1.327 . S
C1737 C1743 1.429 . S
C1738 C1730 1.574 . S
C1738 H1733 0.949 . S
C1738 C1744 1.368 . S
C1739 C1723 1.349 . S
C1739 H1731 0.950 . S
C1739 C1737 1.327 . S
C1740 C1728 1.349 . S
C1740 H1734 0.950 . S
C1740 C1741 1.327 . S
C1741 H1735 0.950 . S
C1741 C1740 1.327 . S
C1741 C1745 1.429 . S
C1742 C1725 1.574 . S
C1742 H1736 0.949 . S
C1742 C1746 1.368 . S
C1743 C1724 1.429 . S
C1743 C1737 1.429 . S
C1743 C1744 1.523 . S
C1744 C1725 1.368 . S
C1744 C1738 1.368 . S
C1744 C1743 1.523 . S
C1745 C1729 1.429 . S
C1745 C1741 1.429 . S
C1745 C1746 1.523 . S
C1746 C1730 1.368 . S
C1746 C1742 1.368 . S
C1746 C1745 1.523 . S
H1747 C1722 0.950 . S
H1748 C1724 0.950 . S
H1749 C1725 0.949 . S
H1750 C1727 0.950 . S
H1751 C1729 0.950 . S
C1752 C1753 1.349 . S
C1752 C1754 1.327 . S
C1752 H1777 0.950 . S
C1753 C1752 1.349 . S
C1753 C1769 1.349 . S
C1754 C1752 1.327 . S
C1754 C1773 1.429 . S
C1754 H1778 0.950 1_554 S
C1755 C1772 1.574 1_545 S
C1755 C1774 1.368 . S
C1755 H1779 0.949 . S
H1756 C1760 0.949 . S
C1757 C1758 1.349 . S
C1757 C1759 1.327 . S
C1757 H1780 0.950 . S
C1758 C1757 1.349 . S
C1758 C1770 1.349 . S
C1759 C1757 1.327 . S
C1759 C1775 1.429 . S
C1759 H1781 0.950 1_556 S
C1760 H1756 0.949 . S
C1760 C1768 1.574 1_565 S
C1760 C1776 1.368 . S
H1761 C1769 0.950 . S
H1762 C1767 0.950 . S
H1763 C1768 0.949 . S
H1764 C1770 0.950 . S
H1765 C1771 0.950 . S
H1766 C1772 0.949 . S
C1767 H1762 0.950 . S
C1767 C1769 1.327 . S
C1767 C1773 1.429 . S
C1768 C1760 1.574 1_545 S
C1768 H1763 0.949 . S
C1768 C1774 1.368 1_556 S
C1769 C1753 1.349 . S
C1769 H1761 0.950 . S
C1769 C1767 1.327 . S
C1770 C1758 1.349 . S
C1770 H1764 0.950 . S
C1770 C1771 1.327 . S
C1771 H1765 0.950 . S
C1771 C1770 1.327 . S
C1771 C1775 1.429 . S
C1772 C1755 1.574 1_565 S
C1772 H1766 0.949 . S
C1772 C1776 1.368 1_554 S
C1773 C1754 1.429 . S
C1773 C1767 1.429 . S
C1773 C1774 1.523 . S
C1774 C1755 1.368 . S
C1774 C1768 1.368 1_554 S
C1774 C1773 1.523 . S
C1775 C1759 1.429 . S
C1775 C1771 1.429 . S
C1775 C1776 1.523 . S
C1776 C1760 1.368 . S
C1776 C1772 1.368 1_556 S
C1776 C1775 1.523 . S
H1777 C1752 0.950 . S
H1778 C1754 0.950 1_556 S
H1779 C1755 0.949 . S
H1780 C1757 0.950 . S
H1781 C1759 0.950 1_554 S
C1782 C1783 1.349 . S
C1782 C1784 1.327 . S
C1782 H1807 0.950 . S
C1783 C1782 1.349 . S
C1783 C1799 1.349 . S
C1784 C1782 1.327 . S
C1784 C1803 1.429 . S
C1784 H1808 0.950 . S
C1785 C1802 1.574 . S
C1785 C1804 1.368 . S
C1785 H1809 0.949 . S
H1786 C1790 0.949 . S
C1787 C1788 1.349 . S
C1787 C1789 1.327 . S
C1787 H1810 0.950 . S
C1788 C1787 1.349 . S
C1788 C1800 1.349 . S
C1789 C1787 1.327 . S
C1789 C1805 1.429 . S
C1789 H1811 0.950 . S
C1790 H1786 0.949 . S
C1790 C1798 1.574 . S
C1790 C1806 1.368 . S
H1791 C1799 0.950 . S
H1792 C1797 0.950 . S
H1793 C1798 0.949 . S
H1794 C1800 0.950 . S
H1795 C1801 0.950 . S
H1796 C1802 0.949 . S
C1797 H1792 0.950 . S
C1797 C1799 1.327 . S
C1797 C1803 1.429 . S
C1798 C1790 1.574 . S
C1798 H1793 0.949 . S
C1798 C1804 1.368 . S
C1799 C1783 1.349 . S
C1799 H1791 0.950 . S
C1799 C1797 1.327 . S
C1800 C1788 1.349 . S
C1800 H1794 0.950 . S
C1800 C1801 1.327 . S
C1801 H1795 0.950 . S
C1801 C1800 1.327 . S
C1801 C1805 1.429 . S
C1802 C1785 1.574 . S
C1802 H1796 0.949 . S
C1802 C1806 1.368 . S
C1803 C1784 1.429 . S
C1803 C1797 1.429 . S
C1803 C1804 1.523 . S
C1804 C1785 1.368 . S
C1804 C1798 1.368 . S
C1804 C1803 1.523 . S
C1805 C1789 1.429 . S
C1805 C1801 1.429 . S
C1805 C1806 1.523 . S
C1806 C1790 1.368 . S
C1806 C1802 1.368 . S
C1806 C1805 1.523 . S
H1807 C1782 0.950 . S
H1808 C1784 0.950 . S
H1809 C1785 0.949 . S
H1810 C1787 0.950 . S
H1811 C1789 0.950 . S
C1812 C1813 1.349 . S
C1812 C1814 1.327 . S
C1812 H1837 0.950 . S
C1813 C1812 1.349 . S
C1813 C1829 1.349 . S
C1814 C1812 1.327 . S
C1814 C1833 1.429 . S
C1814 H1838 0.950 . S
C1815 C1832 1.574 1_545 S
C1815 C1834 1.368 1_554 S
C1815 H1839 0.949 . S
H1816 C1820 0.949 . S
C1817 C1818 1.349 . S
C1817 C1819 1.327 . S
C1817 H1840 0.950 . S
C1818 C1817 1.349 . S
C1818 C1830 1.349 . S
C1819 C1817 1.327 . S
C1819 C1835 1.429 . S
C1819 H1841 0.950 . S
C1820 H1816 0.949 . S
C1820 C1828 1.574 1_565 S
C1820 C1836 1.368 1_556 S
H1821 C1829 0.950 . S
H1822 C1827 0.950 1_554 S
H1823 C1828 0.949 . S
H1824 C1830 0.950 . S
H1825 C1831 0.950 1_556 S
H1826 C1832 0.949 . S
C1827 H1822 0.950 1_556 S
C1827 C1829 1.327 . S
C1827 C1833 1.429 . S
C1828 C1820 1.574 1_545 S
C1828 H1823 0.949 . S
C1828 C1834 1.368 . S
C1829 C1813 1.349 . S
C1829 H1821 0.950 . S
C1829 C1827 1.327 . S
C1830 C1818 1.349 . S
C1830 H1824 0.950 . S
C1830 C1831 1.327 . S
C1831 H1825 0.950 1_554 S
C1831 C1830 1.327 . S
C1831 C1835 1.429 . S
C1832 C1815 1.574 1_565 S
C1832 H1826 0.949 . S
C1832 C1836 1.368 . S
C1833 C1814 1.429 . S
C1833 C1827 1.429 . S
C1833 C1834 1.523 . S
C1834 C1815 1.368 1_556 S
C1834 C1828 1.368 . S
C1834 C1833 1.523 . S
C1835 C1819 1.429 . S
C1835 C1831 1.429 . S
C1835 C1836 1.523 . S
C1836 C1820 1.368 1_554 S
C1836 C1832 1.368 . S
C1836 C1835 1.523 . S
H1837 C1812 0.950 . S
H1838 C1814 0.950 . S
H1839 C1815 0.949 . S
H1840 C1817 0.950 . S
H1841 C1819 0.950 . S
C1842 C1843 1.349 . S
C1842 C1844 1.327 . S
C1842 H1867 0.950 . S
C1843 C1842 1.349 . S
C1843 C1859 1.349 . S
C1844 C1842 1.327 . S
C1844 C1863 1.429 . S
C1844 H1868 0.950 . S
C1845 C1862 1.574 . S
C1845 C1864 1.368 . S
C1845 H1869 0.949 . S
H1846 C1850 0.949 . S
C1847 C1848 1.349 . S
C1847 C1849 1.327 . S
C1847 H1870 0.950 . S
C1848 C1847 1.349 . S
C1848 C1860 1.349 . S
C1849 C1847 1.327 . S
C1849 C1865 1.429 . S
C1849 H1871 0.950 . S
C1850 H1846 0.949 . S
C1850 C1858 1.574 . S
C1850 C1866 1.368 . S
H1851 C1859 0.950 . S
H1852 C1857 0.950 . S
H1853 C1858 0.949 . S
H1854 C1860 0.950 . S
H1855 C1861 0.950 . S
H1856 C1862 0.949 . S
C1857 H1852 0.950 . S
C1857 C1859 1.327 . S
C1857 C1863 1.429 . S
C1858 C1850 1.574 . S
C1858 H1853 0.949 . S
C1858 C1864 1.368 . S
C1859 C1843 1.349 . S
C1859 H1851 0.950 . S
C1859 C1857 1.327 . S
C1860 C1848 1.349 . S
C1860 H1854 0.950 . S
C1860 C1861 1.327 . S
C1861 H1855 0.950 . S
C1861 C1860 1.327 . S
C1861 C1865 1.429 . S
C1862 C1845 1.574 . S
C1862 H1856 0.949 . S
C1862 C1866 1.368 . S
C1863 C1844 1.429 . S
C1863 C1857 1.429 . S
C1863 C1864 1.523 . S
C1864 C1845 1.368 . S
C1864 C1858 1.368 . S
C1864 C1863 1.523 . S
C1865 C1849 1.429 . S
C1865 C1861 1.429 . S
C1865 C1866 1.523 . S
C1866 C1850 1.368 . S
C1866 C1862 1.368 . S
C1866 C1865 1.523 . S
H1867 C1842 0.950 . S
H1868 C1844 0.950 . S
H1869 C1845 0.949 . S
H1870 C1847 0.950 . S
H1871 C1849 0.950 . S
C1872 C1873 1.349 . S
C1872 C1874 1.327 . S
C1872 H1897 0.950 . S
C1873 C1872 1.349 . S
C1873 C1889 1.349 . S
C1874 C1872 1.327 . S
C1874 C1893 1.429 . S
C1874 H1898 0.950 . S
C1875 C1892 1.574 . S
C1875 C1894 1.368 . S
C1875 H1899 0.949 . S
H1876 C1880 0.949 . S
C1877 C1878 1.349 . S
C1877 C1879 1.327 . S
C1877 H1900 0.950 . S
C1878 C1877 1.349 . S
C1878 C1890 1.349 . S
C1879 C1877 1.327 . S
C1879 C1895 1.429 . S
C1879 H1901 0.950 . S
C1880 H1876 0.949 . S
C1880 C1888 1.574 . S
C1880 C1896 1.368 . S
H1881 C1889 0.950 . S
H1882 C1887 0.950 . S
H1883 C1888 0.949 . S
H1884 C1890 0.950 . S
H1885 C1891 0.950 . S
H1886 C1892 0.949 . S
C1887 H1882 0.950 . S
C1887 C1889 1.327 . S
C1887 C1893 1.429 . S
C1888 C1880 1.574 . S
C1888 H1883 0.949 . S
C1888 C1894 1.368 . S
C1889 C1873 1.349 . S
C1889 H1881 0.950 . S
C1889 C1887 1.327 . S
C1890 C1878 1.349 . S
C1890 H1884 0.950 . S
C1890 C1891 1.327 . S
C1891 H1885 0.950 . S
C1891 C1890 1.327 . S
C1891 C1895 1.429 . S
C1892 C1875 1.574 . S
C1892 H1886 0.949 . S
C1892 C1896 1.368 . S
C1893 C1874 1.429 . S
C1893 C1887 1.429 . S
C1893 C1894 1.523 . S
C1894 C1875 1.368 . S
C1894 C1888 1.368 . S
C1894 C1893 1.523 . S
C1895 C1879 1.429 . S
C1895 C1891 1.429 . S
C1895 C1896 1.523 . S
C1896 C1880 1.368 . S
C1896 C1892 1.368 . S
C1896 C1895 1.523 . S
H1897 C1872 0.950 . S
H1898 C1874 0.950 . S
H1899 C1875 0.949 . S
H1900 C1877 0.950 . S
H1901 C1879 0.950 . S
C1902 C1903 1.349 . S
C1902 C1904 1.327 . S
C1902 H1927 0.950 . S
C1903 C1902 1.349 . S
C1903 C1919 1.349 . S
C1904 C1902 1.327 . S
C1904 C1923 1.429 . S
C1904 H1928 0.950 . S
C1905 C1922 1.574 . S
C1905 C1924 1.368 . S
C1905 H1929 0.949 . S
H1906 C1910 0.949 . S
C1907 C1908 1.349 . S
C1907 C1909 1.327 . S
C1907 H1930 0.950 . S
C1908 C1907 1.349 . S
C1908 C1920 1.349 . S
C1909 C1907 1.327 . S
C1909 C1925 1.429 . S
C1909 H1931 0.950 . S
C1910 H1906 0.949 . S
C1910 C1918 1.574 . S
C1910 C1926 1.368 . S
H1911 C1919 0.950 . S
H1912 C1917 0.950 . S
H1913 C1918 0.949 . S
H1914 C1920 0.950 . S
H1915 C1921 0.950 . S
H1916 C1922 0.949 . S
C1917 H1912 0.950 . S
C1917 C1919 1.327 . S
C1917 C1923 1.429 . S
C1918 C1910 1.574 . S
C1918 H1913 0.949 . S
C1918 C1924 1.368 . S
C1919 C1903 1.349 . S
C1919 H1911 0.950 . S
C1919 C1917 1.327 . S
C1920 C1908 1.349 . S
C1920 H1914 0.950 . S
C1920 C1921 1.327 . S
C1921 H1915 0.950 . S
C1921 C1920 1.327 . S
C1921 C1925 1.429 . S
C1922 C1905 1.574 . S
C1922 H1916 0.949 . S
C1922 C1926 1.368 . S
C1923 C1904 1.429 . S
C1923 C1917 1.429 . S
C1923 C1924 1.523 . S
C1924 C1905 1.368 . S
C1924 C1918 1.368 . S
C1924 C1923 1.523 . S
C1925 C1909 1.429 . S
C1925 C1921 1.429 . S
C1925 C1926 1.523 . S
C1926 C1910 1.368 . S
C1926 C1922 1.368 . S
C1926 C1925 1.523 . S
H1927 C1902 0.950 . S
H1928 C1904 0.950 . S
H1929 C1905 0.949 . S
H1930 C1907 0.950 . S
H1931 C1909 0.950 . S
C1932 C1933 1.349 . S
C1932 C1934 1.327 . S
C1932 H1957 0.950 . S
C1933 C1932 1.349 . S
C1933 C1949 1.349 . S
C1934 C1932 1.327 . S
C1934 C1953 1.429 . S
C1934 H1958 0.950 . S
C1935 C1952 1.574 . S
C1935 C1954 1.368 . S
C1935 H1959 0.949 . S
H1936 C1940 0.949 . S
C1937 C1938 1.349 . S
C1937 C1939 1.327 . S
C1937 H1960 0.950 . S
C1938 C1937 1.349 . S
C1938 C1950 1.349 . S
C1939 C1937 1.327 . S
C1939 C1955 1.429 . S
C1939 H1961 0.950 . S
C1940 H1936 0.949 . S
C1940 C1948 1.574 . S
C1940 C1956 1.368 . S
H1941 C1949 0.950 . S
H1942 C1947 0.950 . S
H1943 C1948 0.949 . S
H1944 C1950 0.950 . S
H1945 C1951 0.950 . S
H1946 C1952 0.949 . S
C1947 H1942 0.950 . S
C1947 C1949 1.327 . S
C1947 C1953 1.429 . S
C1948 C1940 1.574 . S
C1948 H1943 0.949 . S
C1948 C1954 1.368 . S
C1949 C1933 1.349 . S
C1949 H1941 0.950 . S
C1949 C1947 1.327 . S
C1950 C1938 1.349 . S
C1950 H1944 0.950 . S
C1950 C1951 1.327 . S
C1951 H1945 0.950 . S
C1951 C1950 1.327 . S
C1951 C1955 1.429 . S
C1952 C1935 1.574 . S
C1952 H1946 0.949 . S
C1952 C1956 1.368 . S
C1953 C1934 1.429 . S
C1953 C1947 1.429 . S
C1953 C1954 1.523 . S
C1954 C1935 1.368 . S
C1954 C1948 1.368 . S
C1954 C1953 1.523 . S
C1955 C1939 1.429 . S
C1955 C1951 1.429 . S
C1955 C1956 1.523 . S
C1956 C1940 1.368 . S
C1956 C1952 1.368 . S
C1956 C1955 1.523 . S
H1957 C1932 0.950 . S
H1958 C1934 0.950 . S
H1959 C1935 0.949 . S
H1960 C1937 0.950 . S
H1961 C1939 0.950 . S
C1962 C1963 1.349 . S
C1962 C1964 1.327 . S
C1962 H1987 0.950 . S
C1963 C1962 1.349 . S
C1963 C1979 1.349 . S
C1964 C1962 1.327 . S
C1964 C1983 1.429 . S
C1964 H1988 0.950 . S
C1965 C1982 1.574 . S
C1965 C1984 1.368 . S
C1965 H1989 0.949 . S
H1966 C1970 0.949 . S
C1967 C1968 1.349 . S
C1967 C1969 1.327 . S
C1967 H1990 0.950 . S
C1968 C1967 1.349 . S
C1968 C1980 1.349 . S
C1969 C1967 1.327 . S
C1969 C1985 1.429 . S
C1969 H1991 0.950 . S
C1970 H1966 0.949 . S
C1970 C1978 1.574 . S
C1970 C1986 1.368 . S
H1971 C1979 0.950 . S
H1972 C1977 0.950 . S
H1973 C1978 0.949 . S
H1974 C1980 0.950 . S
H1975 C1981 0.950 . S
H1976 C1982 0.949 . S
C1977 H1972 0.950 . S
C1977 C1979 1.327 . S
C1977 C1983 1.429 . S
C1978 C1970 1.574 . S
C1978 H1973 0.949 . S
C1978 C1984 1.368 . S
C1979 C1963 1.349 . S
C1979 H1971 0.950 . S
C1979 C1977 1.327 . S
C1980 C1968 1.349 . S
C1980 H1974 0.950 . S
C1980 C1981 1.327 . S
C1981 H1975 0.950 . S
C1981 C1980 1.327 . S
C1981 C1985 1.429 . S
C1982 C1965 1.574 . S
C1982 H1976 0.949 . S
C1982 C1986 1.368 . S
C1983 C1964 1.429 . S
C1983 C1977 1.429 . S
C1983 C1984 1.523 . S
C1984 C1965 1.368 . S
C1984 C1978 1.368 . S
C1984 C1983 1.523 . S
C1985 C1969 1.429 . S
C1985 C1981 1.429 . S
C1985 C1986 1.523 . S
C1986 C1970 1.368 . S
C1986 C1982 1.368 . S
C1986 C1985 1.523 . S
H1987 C1962 0.950 . S
H1988 C1964 0.950 . S
H1989 C1965 0.949 . S
H1990 C1967 0.950 . S
H1991 C1969 0.950 . S
C1992 C1993 1.349 . S
C1992 C1994 1.327 . S
C1992 H2017 0.950 . S
C1993 C1992 1.349 . S
C1993 C2009 1.349 . S
C1994 C1992 1.327 . S
C1994 C2013 1.429 . S
C1994 H2018 0.950 . S
C1995 C2012 1.574 . S
C1995 C2014 1.368 . S
C1995 H2019 0.949 . S
H1996 C2000 0.949 . S
C1997 C1998 1.349 . S
C1997 C1999 1.327 . S
C1997 H2020 0.950 . S
C1998 C1997 1.349 . S
C1998 C2010 1.349 . S
C1999 C1997 1.327 . S
C1999 C2015 1.429 . S
C1999 H2021 0.950 . S
C2000 H1996 0.949 . S
C2000 C2008 1.574 . S
C2000 C2016 1.368 . S
H2001 C2009 0.950 . S
H2002 C2007 0.950 . S
H2003 C2008 0.949 . S
H2004 C2010 0.950 . S
H2005 C2011 0.950 . S
H2006 C2012 0.949 . S
C2007 H2002 0.950 . S
C2007 C2009 1.327 . S
C2007 C2013 1.429 . S
C2008 C2000 1.574 . S
C2008 H2003 0.949 . S
C2008 C2014 1.368 . S
C2009 C1993 1.349 . S
C2009 H2001 0.950 . S
C2009 C2007 1.327 . S
C2010 C1998 1.349 . S
C2010 H2004 0.950 . S
C2010 C2011 1.327 . S
C2011 H2005 0.950 . S
C2011 C2010 1.327 . S
C2011 C2015 1.429 . S
C2012 C1995 1.574 . S
C2012 H2006 0.949 . S
C2012 C2016 1.368 . S
C2013 C1994 1.429 . S
C2013 C2007 1.429 . S
C2013 C2014 1.523 . S
C2014 C1995 1.368 . S
C2014 C2008 1.368 . S
C2014 C2013 1.523 . S
C2015 C1999 1.429 . S
C2015 C2011 1.429 . S
C2015 C2016 1.523 . S
C2016 C2000 1.368 . S
C2016 C2012 1.368 . S
C2016 C2015 1.523 . S
H2017 C1992 0.950 . S
H2018 C1994 0.950 . S
H2019 C1995 0.949 . S
H2020 C1997 0.950 . S
H2021 C1999 0.950 . S
C2022 C2023 1.349 . S
C2022 C2024 1.327 . S
C2022 H2047 0.950 . S
C2023 C2022 1.349 . S
C2023 C2039 1.349 . S
C2024 C2022 1.327 . S
C2024 C2043 1.429 . S
C2024 H2048 0.950 . S
C2025 C2042 1.574 . S
C2025 C2044 1.368 . S
C2025 H2049 0.949 . S
H2026 C2030 0.949 . S
C2027 C2028 1.349 . S
C2027 C2029 1.327 . S
C2027 H2050 0.950 . S
C2028 C2027 1.349 . S
C2028 C2040 1.349 . S
C2029 C2027 1.327 . S
C2029 C2045 1.429 . S
C2029 H2051 0.950 . S
C2030 H2026 0.949 . S
C2030 C2038 1.574 . S
C2030 C2046 1.368 . S
H2031 C2039 0.950 . S
H2032 C2037 0.950 . S
H2033 C2038 0.949 . S
H2034 C2040 0.950 . S
H2035 C2041 0.950 . S
H2036 C2042 0.949 . S
C2037 H2032 0.950 . S
C2037 C2039 1.327 . S
C2037 C2043 1.429 . S
C2038 C2030 1.574 . S
C2038 H2033 0.949 . S
C2038 C2044 1.368 . S
C2039 C2023 1.349 . S
C2039 H2031 0.950 . S
C2039 C2037 1.327 . S
C2040 C2028 1.349 . S
C2040 H2034 0.950 . S
C2040 C2041 1.327 . S
C2041 H2035 0.950 . S
C2041 C2040 1.327 . S
C2041 C2045 1.429 . S
C2042 C2025 1.574 . S
C2042 H2036 0.949 . S
C2042 C2046 1.368 . S
C2043 C2024 1.429 . S
C2043 C2037 1.429 . S
C2043 C2044 1.523 . S
C2044 C2025 1.368 . S
C2044 C2038 1.368 . S
C2044 C2043 1.523 . S
C2045 C2029 1.429 . S
C2045 C2041 1.429 . S
C2045 C2046 1.523 . S
C2046 C2030 1.368 . S
C2046 C2042 1.368 . S
C2046 C2045 1.523 . S
H2047 C2022 0.950 . S
H2048 C2024 0.950 . S
H2049 C2025 0.949 . S
H2050 C2027 0.950 . S
H2051 C2029 0.950 . S
C2052 C2053 1.349 . S
C2052 C2054 1.327 . S
C2052 H2077 0.950 . S
C2053 C2052 1.349 . S
C2053 C2069 1.349 . S
C2054 C2052 1.327 . S
C2054 C2073 1.429 . S
C2054 H2078 0.950 . S
C2055 C2072 1.574 . S
C2055 C2074 1.368 . S
C2055 H2079 0.949 . S
H2056 C2060 0.949 . S
C2057 C2058 1.349 . S
C2057 C2059 1.327 . S
C2057 H2080 0.950 . S
C2058 C2057 1.349 . S
C2058 C2070 1.349 . S
C2059 C2057 1.327 . S
C2059 C2075 1.429 . S
C2059 H2081 0.950 . S
C2060 H2056 0.949 . S
C2060 C2068 1.574 . S
C2060 C2076 1.368 . S
H2061 C2069 0.950 . S
H2062 C2067 0.950 . S
H2063 C2068 0.949 . S
H2064 C2070 0.950 . S
H2065 C2071 0.950 . S
H2066 C2072 0.949 . S
C2067 H2062 0.950 . S
C2067 C2069 1.327 . S
C2067 C2073 1.429 . S
C2068 C2060 1.574 . S
C2068 H2063 0.949 . S
C2068 C2074 1.368 . S
C2069 C2053 1.349 . S
C2069 H2061 0.950 . S
C2069 C2067 1.327 . S
C2070 C2058 1.349 . S
C2070 H2064 0.950 . S
C2070 C2071 1.327 . S
C2071 H2065 0.950 . S
C2071 C2070 1.327 . S
C2071 C2075 1.429 . S
C2072 C2055 1.574 . S
C2072 H2066 0.949 . S
C2072 C2076 1.368 . S
C2073 C2054 1.429 . S
C2073 C2067 1.429 . S
C2073 C2074 1.523 . S
C2074 C2055 1.368 . S
C2074 C2068 1.368 . S
C2074 C2073 1.523 . S
C2075 C2059 1.429 . S
C2075 C2071 1.429 . S
C2075 C2076 1.523 . S
C2076 C2060 1.368 . S
C2076 C2072 1.368 . S
C2076 C2075 1.523 . S
H2077 C2052 0.950 . S
H2078 C2054 0.950 . S
H2079 C2055 0.949 . S
H2080 C2057 0.950 . S
H2081 C2059 0.950 . S
C2082 C2083 1.349 . S
C2082 C2084 1.327 . S
C2082 H2107 0.950 . S
C2083 C2082 1.349 . S
C2083 C2099 1.349 . S
C2084 C2082 1.327 . S
C2084 C2103 1.429 . S
C2084 H2108 0.950 . S
C2085 C2102 1.574 . S
C2085 C2104 1.368 . S
C2085 H2109 0.949 . S
H2086 C2090 0.949 . S
C2087 C2088 1.349 . S
C2087 C2089 1.327 . S
C2087 H2110 0.950 . S
C2088 C2087 1.349 . S
C2088 C2100 1.349 . S
C2089 C2087 1.327 . S
C2089 C2105 1.429 . S
C2089 H2111 0.950 . S
C2090 H2086 0.949 . S
C2090 C2098 1.574 . S
C2090 C2106 1.368 . S
H2091 C2099 0.950 . S
H2092 C2097 0.950 . S
H2093 C2098 0.949 . S
H2094 C2100 0.950 . S
H2095 C2101 0.950 . S
H2096 C2102 0.949 . S
C2097 H2092 0.950 . S
C2097 C2099 1.327 . S
C2097 C2103 1.429 . S
C2098 C2090 1.574 . S
C2098 H2093 0.949 . S
C2098 C2104 1.368 . S
C2099 C2083 1.349 . S
C2099 H2091 0.950 . S
C2099 C2097 1.327 . S
C2100 C2088 1.349 . S
C2100 H2094 0.950 . S
C2100 C2101 1.327 . S
C2101 H2095 0.950 . S
C2101 C2100 1.327 . S
C2101 C2105 1.429 . S
C2102 C2085 1.574 . S
C2102 H2096 0.949 . S
C2102 C2106 1.368 . S
C2103 C2084 1.429 . S
C2103 C2097 1.429 . S
C2103 C2104 1.523 . S
C2104 C2085 1.368 . S
C2104 C2098 1.368 . S
C2104 C2103 1.523 . S
C2105 C2089 1.429 . S
C2105 C2101 1.429 . S
C2105 C2106 1.523 . S
C2106 C2090 1.368 . S
C2106 C2102 1.368 . S
C2106 C2105 1.523 . S
H2107 C2082 0.950 . S
H2108 C2084 0.950 . S
H2109 C2085 0.949 . S
H2110 C2087 0.950 . S
H2111 C2089 0.950 . S
C2112 C2113 1.349 . S
C2112 C2114 1.327 . S
C2112 H2137 0.950 . S
C2113 C2112 1.349 . S
C2113 C2129 1.349 . S
C2114 C2112 1.327 . S
C2114 C2133 1.429 . S
C2114 H2138 0.950 . S
C2115 C2132 1.574 . S
C2115 C2134 1.368 . S
C2115 H2139 0.949 . S
H2116 C2120 0.949 . S
C2117 C2118 1.349 . S
C2117 C2119 1.327 . S
C2117 H2140 0.950 . S
C2118 C2117 1.349 . S
C2118 C2130 1.349 . S
C2119 C2117 1.327 . S
C2119 C2135 1.429 . S
C2119 H2141 0.950 . S
C2120 H2116 0.949 . S
C2120 C2128 1.574 . S
C2120 C2136 1.368 . S
H2121 C2129 0.950 . S
H2122 C2127 0.950 . S
H2123 C2128 0.949 . S
H2124 C2130 0.950 . S
H2125 C2131 0.950 . S
H2126 C2132 0.949 . S
C2127 H2122 0.950 . S
C2127 C2129 1.327 . S
C2127 C2133 1.429 . S
C2128 C2120 1.574 . S
C2128 H2123 0.949 . S
C2128 C2134 1.368 . S
C2129 C2113 1.349 . S
C2129 H2121 0.950 . S
C2129 C2127 1.327 . S
C2130 C2118 1.349 . S
C2130 H2124 0.950 . S
C2130 C2131 1.327 . S
C2131 H2125 0.950 . S
C2131 C2130 1.327 . S
C2131 C2135 1.429 . S
C2132 C2115 1.574 . S
C2132 H2126 0.949 . S
C2132 C2136 1.368 . S
C2133 C2114 1.429 . S
C2133 C2127 1.429 . S
C2133 C2134 1.523 . S
C2134 C2115 1.368 . S
C2134 C2128 1.368 . S
C2134 C2133 1.523 . S
C2135 C2119 1.429 . S
C2135 C2131 1.429 . S
C2135 C2136 1.523 . S
C2136 C2120 1.368 . S
C2136 C2132 1.368 . S
C2136 C2135 1.523 . S
H2137 C2112 0.950 . S
H2138 C2114 0.950 . S
H2139 C2115 0.949 . S
H2140 C2117 0.950 . S
H2141 C2119 0.950 . S
C2142 C2143 1.349 . S
C2142 C2144 1.327 . S
C2142 H2167 0.950 . S
C2143 C2142 1.349 . S
C2143 C2159 1.349 . S
C2144 C2142 1.327 . S
C2144 C2163 1.429 . S
C2144 H2168 0.950 . S
C2145 C2162 1.574 . S
C2145 C2164 1.368 . S
C2145 H2169 0.949 . S
H2146 C2150 0.949 . S
C2147 C2148 1.349 . S
C2147 C2149 1.327 . S
C2147 H2170 0.950 . S
C2148 C2147 1.349 . S
C2148 C2160 1.349 . S
C2149 C2147 1.327 . S
C2149 C2165 1.429 . S
C2149 H2171 0.950 . S
C2150 H2146 0.949 . S
C2150 C2158 1.574 . S
C2150 C2166 1.368 . S
H2151 C2159 0.950 . S
H2152 C2157 0.950 . S
H2153 C2158 0.949 . S
H2154 C2160 0.950 . S
H2155 C2161 0.950 . S
H2156 C2162 0.949 . S
C2157 H2152 0.950 . S
C2157 C2159 1.327 . S
C2157 C2163 1.429 . S
C2158 C2150 1.574 . S
C2158 H2153 0.949 . S
C2158 C2164 1.368 . S
C2159 C2143 1.349 . S
C2159 H2151 0.950 . S
C2159 C2157 1.327 . S
C2160 C2148 1.349 . S
C2160 H2154 0.950 . S
C2160 C2161 1.327 . S
C2161 H2155 0.950 . S
C2161 C2160 1.327 . S
C2161 C2165 1.429 . S
C2162 C2145 1.574 . S
C2162 H2156 0.949 . S
C2162 C2166 1.368 . S
C2163 C2144 1.429 . S
C2163 C2157 1.429 . S
C2163 C2164 1.523 . S
C2164 C2145 1.368 . S
C2164 C2158 1.368 . S
C2164 C2163 1.523 . S
C2165 C2149 1.429 . S
C2165 C2161 1.429 . S
C2165 C2166 1.523 . S
C2166 C2150 1.368 . S
C2166 C2162 1.368 . S
C2166 C2165 1.523 . S
H2167 C2142 0.950 . S
H2168 C2144 0.950 . S
H2169 C2145 0.949 . S
H2170 C2147 0.950 . S
H2171 C2149 0.950 . S
C2172 C2173 1.349 . S
C2172 C2174 1.327 . S
C2172 H2197 0.950 . S
C2173 C2172 1.349 . S
C2173 C2189 1.349 . S
C2174 C2172 1.327 . S
C2174 C2193 1.429 . S
C2174 H2198 0.950 . S
C2175 C2192 1.574 . S
C2175 C2194 1.368 . S
C2175 H2199 0.949 . S
H2176 C2180 0.949 . S
C2177 C2178 1.349 . S
C2177 C2179 1.327 . S
C2177 H2200 0.950 . S
C2178 C2177 1.349 . S
C2178 C2190 1.349 . S
C2179 C2177 1.327 . S
C2179 C2195 1.429 . S
C2179 H2201 0.950 . S
C2180 H2176 0.949 . S
C2180 C2188 1.574 . S
C2180 C2196 1.368 . S
H2181 C2189 0.950 . S
H2182 C2187 0.950 . S
H2183 C2188 0.949 . S
H2184 C2190 0.950 . S
H2185 C2191 0.950 . S
H2186 C2192 0.949 . S
C2187 H2182 0.950 . S
C2187 C2189 1.327 . S
C2187 C2193 1.429 . S
C2188 C2180 1.574 . S
C2188 H2183 0.949 . S
C2188 C2194 1.368 . S
C2189 C2173 1.349 . S
C2189 H2181 0.950 . S
C2189 C2187 1.327 . S
C2190 C2178 1.349 . S
C2190 H2184 0.950 . S
C2190 C2191 1.327 . S
C2191 H2185 0.950 . S
C2191 C2190 1.327 . S
C2191 C2195 1.429 . S
C2192 C2175 1.574 . S
C2192 H2186 0.949 . S
C2192 C2196 1.368 . S
C2193 C2174 1.429 . S
C2193 C2187 1.429 . S
C2193 C2194 1.523 . S
C2194 C2175 1.368 . S
C2194 C2188 1.368 . S
C2194 C2193 1.523 . S
C2195 C2179 1.429 . S
C2195 C2191 1.429 . S
C2195 C2196 1.523 . S
C2196 C2180 1.368 . S
C2196 C2192 1.368 . S
C2196 C2195 1.523 . S
H2197 C2172 0.950 . S
H2198 C2174 0.950 . S
H2199 C2175 0.949 . S
H2200 C2177 0.950 . S
H2201 C2179 0.950 . S
C2202 C2203 1.349 . S
C2202 C2204 1.327 . S
C2202 H2227 0.950 . S
C2203 C2202 1.349 . S
C2203 C2219 1.349 . S
C2204 C2202 1.327 . S
C2204 C2223 1.429 . S
C2204 H2228 0.950 . S
C2205 C2222 1.574 . S
C2205 C2224 1.368 . S
C2205 H2229 0.949 . S
H2206 C2210 0.949 . S
C2207 C2208 1.349 . S
C2207 C2209 1.327 . S
C2207 H2230 0.950 . S
C2208 C2207 1.349 . S
C2208 C2220 1.349 . S
C2209 C2207 1.327 . S
C2209 C2225 1.429 . S
C2209 H2231 0.950 . S
C2210 H2206 0.949 . S
C2210 C2218 1.574 . S
C2210 C2226 1.368 . S
H2211 C2219 0.950 . S
H2212 C2217 0.950 . S
H2213 C2218 0.949 . S
H2214 C2220 0.950 . S
H2215 C2221 0.950 . S
H2216 C2222 0.949 . S
C2217 H2212 0.950 . S
C2217 C2219 1.327 . S
C2217 C2223 1.429 . S
C2218 C2210 1.574 . S
C2218 H2213 0.949 . S
C2218 C2224 1.368 . S
C2219 C2203 1.349 . S
C2219 H2211 0.950 . S
C2219 C2217 1.327 . S
C2220 C2208 1.349 . S
C2220 H2214 0.950 . S
C2220 C2221 1.327 . S
C2221 H2215 0.950 . S
C2221 C2220 1.327 . S
C2221 C2225 1.429 . S
C2222 C2205 1.574 . S
C2222 H2216 0.949 . S
C2222 C2226 1.368 . S
C2223 C2204 1.429 . S
C2223 C2217 1.429 . S
C2223 C2224 1.523 . S
C2224 C2205 1.368 . S
C2224 C2218 1.368 . S
C2224 C2223 1.523 . S
C2225 C2209 1.429 . S
C2225 C2221 1.429 . S
C2225 C2226 1.523 . S
C2226 C2210 1.368 . S
C2226 C2222 1.368 . S
C2226 C2225 1.523 . S
H2227 C2202 0.950 . S
H2228 C2204 0.950 . S
H2229 C2205 0.949 . S
H2230 C2207 0.950 . S
H2231 C2209 0.950 . S
C2232 C2233 1.349 . S
C2232 C2234 1.327 . S
C2232 H2257 0.950 . S
C2233 C2232 1.349 . S
C2233 C2249 1.349 . S
C2234 C2232 1.327 . S
C2234 C2253 1.429 . S
C2234 H2258 0.950 . S
C2235 C2252 1.574 . S
C2235 C2254 1.368 . S
C2235 H2259 0.949 . S
H2236 C2240 0.949 . S
C2237 C2238 1.349 . S
C2237 C2239 1.327 . S
C2237 H2260 0.950 . S
C2238 C2237 1.349 . S
C2238 C2250 1.349 . S
C2239 C2237 1.327 . S
C2239 C2255 1.429 . S
C2239 H2261 0.950 . S
C2240 H2236 0.949 . S
C2240 C2248 1.574 . S
C2240 C2256 1.368 . S
H2241 C2249 0.950 . S
H2242 C2247 0.950 . S
H2243 C2248 0.949 . S
H2244 C2250 0.950 . S
H2245 C2251 0.950 . S
H2246 C2252 0.949 . S
C2247 H2242 0.950 . S
C2247 C2249 1.327 . S
C2247 C2253 1.429 . S
C2248 C2240 1.574 . S
C2248 H2243 0.949 . S
C2248 C2254 1.368 . S
C2249 C2233 1.349 . S
C2249 H2241 0.950 . S
C2249 C2247 1.327 . S
C2250 C2238 1.349 . S
C2250 H2244 0.950 . S
C2250 C2251 1.327 . S
C2251 H2245 0.950 . S
C2251 C2250 1.327 . S
C2251 C2255 1.429 . S
C2252 C2235 1.574 . S
C2252 H2246 0.949 . S
C2252 C2256 1.368 . S
C2253 C2234 1.429 . S
C2253 C2247 1.429 . S
C2253 C2254 1.523 . S
C2254 C2235 1.368 . S
C2254 C2248 1.368 . S
C2254 C2253 1.523 . S
C2255 C2239 1.429 . S
C2255 C2251 1.429 . S
C2255 C2256 1.523 . S
C2256 C2240 1.368 . S
C2256 C2252 1.368 . S
C2256 C2255 1.523 . S
H2257 C2232 0.950 . S
H2258 C2234 0.950 . S
H2259 C2235 0.949 . S
H2260 C2237 0.950 . S
H2261 C2239 0.950 . S
C2262 C2263 1.349 . S
C2262 C2264 1.327 . S
C2262 H2287 0.950 . S
C2263 C2262 1.349 . S
C2263 C2279 1.349 . S
C2264 C2262 1.327 . S
C2264 C2283 1.429 . S
C2264 H2288 0.950 . S
C2265 C2282 1.574 . S
C2265 C2284 1.368 . S
C2265 H2289 0.949 . S
H2266 C2270 0.949 . S
C2267 C2268 1.349 . S
C2267 C2269 1.327 . S
C2267 H2290 0.950 . S
C2268 C2267 1.349 . S
C2268 C2280 1.349 . S
C2269 C2267 1.327 . S
C2269 C2285 1.429 . S
C2269 H2291 0.950 . S
C2270 H2266 0.949 . S
C2270 C2278 1.574 . S
C2270 C2286 1.368 . S
H2271 C2279 0.950 . S
H2272 C2277 0.950 . S
H2273 C2278 0.949 . S
H2274 C2280 0.950 . S
H2275 C2281 0.950 . S
H2276 C2282 0.949 . S
C2277 H2272 0.950 . S
C2277 C2279 1.327 . S
C2277 C2283 1.429 . S
C2278 C2270 1.574 . S
C2278 H2273 0.949 . S
C2278 C2284 1.368 . S
C2279 C2263 1.349 . S
C2279 H2271 0.950 . S
C2279 C2277 1.327 . S
C2280 C2268 1.349 . S
C2280 H2274 0.950 . S
C2280 C2281 1.327 . S
C2281 H2275 0.950 . S
C2281 C2280 1.327 . S
C2281 C2285 1.429 . S
C2282 C2265 1.574 . S
C2282 H2276 0.949 . S
C2282 C2286 1.368 . S
C2283 C2264 1.429 . S
C2283 C2277 1.429 . S
C2283 C2284 1.523 . S
C2284 C2265 1.368 . S
C2284 C2278 1.368 . S
C2284 C2283 1.523 . S
C2285 C2269 1.429 . S
C2285 C2281 1.429 . S
C2285 C2286 1.523 . S
C2286 C2270 1.368 . S
C2286 C2282 1.368 . S
C2286 C2285 1.523 . S
H2287 C2262 0.950 . S
H2288 C2264 0.950 . S
H2289 C2265 0.949 . S
H2290 C2267 0.950 . S
H2291 C2269 0.950 . S
C2292 C2293 1.349 . S
C2292 C2294 1.327 . S
C2292 H2317 0.950 . S
C2293 C2292 1.349 . S
C2293 C2309 1.349 . S
C2294 C2292 1.327 . S
C2294 C2313 1.429 . S
C2294 H2318 0.950 . S
C2295 C2312 1.574 . S
C2295 C2314 1.368 . S
C2295 H2319 0.949 . S
H2296 C2300 0.949 . S
C2297 C2298 1.349 . S
C2297 C2299 1.327 . S
C2297 H2320 0.950 . S
C2298 C2297 1.349 . S
C2298 C2310 1.349 . S
C2299 C2297 1.327 . S
C2299 C2315 1.429 . S
C2299 H2321 0.950 . S
C2300 H2296 0.949 . S
C2300 C2308 1.574 . S
C2300 C2316 1.368 . S
H2301 C2309 0.950 . S
H2302 C2307 0.950 . S
H2303 C2308 0.949 . S
H2304 C2310 0.950 . S
H2305 C2311 0.950 . S
H2306 C2312 0.949 . S
C2307 H2302 0.950 . S
C2307 C2309 1.327 . S
C2307 C2313 1.429 . S
C2308 C2300 1.574 . S
C2308 H2303 0.949 . S
C2308 C2314 1.368 . S
C2309 C2293 1.349 . S
C2309 H2301 0.950 . S
C2309 C2307 1.327 . S
C2310 C2298 1.349 . S
C2310 H2304 0.950 . S
C2310 C2311 1.327 . S
C2311 H2305 0.950 . S
C2311 C2310 1.327 . S
C2311 C2315 1.429 . S
C2312 C2295 1.574 . S
C2312 H2306 0.949 . S
C2312 C2316 1.368 . S
C2313 C2294 1.429 . S
C2313 C2307 1.429 . S
C2313 C2314 1.523 . S
C2314 C2295 1.368 . S
C2314 C2308 1.368 . S
C2314 C2313 1.523 . S
C2315 C2299 1.429 . S
C2315 C2311 1.429 . S
C2315 C2316 1.523 . S
C2316 C2300 1.368 . S
C2316 C2312 1.368 . S
C2316 C2315 1.523 . S
H2317 C2292 0.950 . S
H2318 C2294 0.950 . S
H2319 C2295 0.949 . S
H2320 C2297 0.950 . S
H2321 C2299 0.950 . S
C2322 C2323 1.349 . S
C2322 C2324 1.327 . S
C2322 H2347 0.950 . S
C2323 C2322 1.349 . S
C2323 C2339 1.349 . S
C2324 C2322 1.327 . S
C2324 C2343 1.429 . S
C2324 H2348 0.950 . S
C2325 C2342 1.574 . S
C2325 C2344 1.368 . S
C2325 H2349 0.949 . S
H2326 C2330 0.949 . S
C2327 C2328 1.349 . S
C2327 C2329 1.327 . S
C2327 H2350 0.950 . S
C2328 C2327 1.349 . S
C2328 C2340 1.349 . S
C2329 C2327 1.327 . S
C2329 C2345 1.429 . S
C2329 H2351 0.950 . S
C2330 H2326 0.949 . S
C2330 C2338 1.574 . S
C2330 C2346 1.368 . S
H2331 C2339 0.950 . S
H2332 C2337 0.950 . S
H2333 C2338 0.949 . S
H2334 C2340 0.950 . S
H2335 C2341 0.950 . S
H2336 C2342 0.949 . S
C2337 H2332 0.950 . S
C2337 C2339 1.327 . S
C2337 C2343 1.429 . S
C2338 C2330 1.574 . S
C2338 H2333 0.949 . S
C2338 C2344 1.368 . S
C2339 C2323 1.349 . S
C2339 H2331 0.950 . S
C2339 C2337 1.327 . S
C2340 C2328 1.349 . S
C2340 H2334 0.950 . S
C2340 C2341 1.327 . S
C2341 H2335 0.950 . S
C2341 C2340 1.327 . S
C2341 C2345 1.429 . S
C2342 C2325 1.574 . S
C2342 H2336 0.949 . S
C2342 C2346 1.368 . S
C2343 C2324 1.429 . S
C2343 C2337 1.429 . S
C2343 C2344 1.523 . S
C2344 C2325 1.368 . S
C2344 C2338 1.368 . S
C2344 C2343 1.523 . S
C2345 C2329 1.429 . S
C2345 C2341 1.429 . S
C2345 C2346 1.523 . S
C2346 C2330 1.368 . S
C2346 C2342 1.368 . S
C2346 C2345 1.523 . S
H2347 C2322 0.950 . S
H2348 C2324 0.950 . S
H2349 C2325 0.949 . S
H2350 C2327 0.950 . S
H2351 C2329 0.950 . S
C2352 C2353 1.349 . S
C2352 C2354 1.327 . S
C2352 H2377 0.950 . S
C2353 C2352 1.349 . S
C2353 C2369 1.349 . S
C2354 C2352 1.327 . S
C2354 C2373 1.429 . S
C2354 H2378 0.950 . S
C2355 C2372 1.574 . S
C2355 C2374 1.368 . S
C2355 H2379 0.949 . S
H2356 C2360 0.949 . S
C2357 C2358 1.349 . S
C2357 C2359 1.327 . S
C2357 H2380 0.950 . S
C2358 C2357 1.349 . S
C2358 C2370 1.349 . S
C2359 C2357 1.327 . S
C2359 C2375 1.429 . S
C2359 H2381 0.950 . S
C2360 H2356 0.949 . S
C2360 C2368 1.574 . S
C2360 C2376 1.368 . S
H2361 C2369 0.950 . S
H2362 C2367 0.950 . S
H2363 C2368 0.949 . S
H2364 C2370 0.950 . S
H2365 C2371 0.950 . S
H2366 C2372 0.949 . S
C2367 H2362 0.950 . S
C2367 C2369 1.327 . S
C2367 C2373 1.429 . S
C2368 C2360 1.574 . S
C2368 H2363 0.949 . S
C2368 C2374 1.368 . S
C2369 C2353 1.349 . S
C2369 H2361 0.950 . S
C2369 C2367 1.327 . S
C2370 C2358 1.349 . S
C2370 H2364 0.950 . S
C2370 C2371 1.327 . S
C2371 H2365 0.950 . S
C2371 C2370 1.327 . S
C2371 C2375 1.429 . S
C2372 C2355 1.574 . S
C2372 H2366 0.949 . S
C2372 C2376 1.368 . S
C2373 C2354 1.429 . S
C2373 C2367 1.429 . S
C2373 C2374 1.523 . S
C2374 C2355 1.368 . S
C2374 C2368 1.368 . S
C2374 C2373 1.523 . S
C2375 C2359 1.429 . S
C2375 C2371 1.429 . S
C2375 C2376 1.523 . S
C2376 C2360 1.368 . S
C2376 C2372 1.368 . S
C2376 C2375 1.523 . S
H2377 C2352 0.950 . S
H2378 C2354 0.950 . S
H2379 C2355 0.949 . S
H2380 C2357 0.950 . S
H2381 C2359 0.950 . S
C2382 C2383 1.349 . S
C2382 C2384 1.327 . S
C2382 H2407 0.950 . S
C2383 C2382 1.349 . S
C2383 C2399 1.349 . S
C2384 C2382 1.327 . S
C2384 C2403 1.429 . S
C2384 H2408 0.950 . S
C2385 C2402 1.574 . S
C2385 C2404 1.368 . S
C2385 H2409 0.949 . S
H2386 C2390 0.949 . S
C2387 C2388 1.349 . S
C2387 C2389 1.327 . S
C2387 H2410 0.950 . S
C2388 C2387 1.349 . S
C2388 C2400 1.349 . S
C2389 C2387 1.327 . S
C2389 C2405 1.429 . S
C2389 H2411 0.950 . S
C2390 H2386 0.949 . S
C2390 C2398 1.574 . S
C2390 C2406 1.368 . S
H2391 C2399 0.950 . S
H2392 C2397 0.950 . S
H2393 C2398 0.949 . S
H2394 C2400 0.950 . S
H2395 C2401 0.950 . S
H2396 C2402 0.949 . S
C2397 H2392 0.950 . S
C2397 C2399 1.327 . S
C2397 C2403 1.429 . S
C2398 C2390 1.574 . S
C2398 H2393 0.949 . S
C2398 C2404 1.368 . S
C2399 C2383 1.349 . S
C2399 H2391 0.950 . S
C2399 C2397 1.327 . S
C2400 C2388 1.349 . S
C2400 H2394 0.950 . S
C2400 C2401 1.327 . S
C2401 H2395 0.950 . S
C2401 C2400 1.327 . S
C2401 C2405 1.429 . S
C2402 C2385 1.574 . S
C2402 H2396 0.949 . S
C2402 C2406 1.368 . S
C2403 C2384 1.429 . S
C2403 C2397 1.429 . S
C2403 C2404 1.523 . S
C2404 C2385 1.368 . S
C2404 C2398 1.368 . S
C2404 C2403 1.523 . S
C2405 C2389 1.429 . S
C2405 C2401 1.429 . S
C2405 C2406 1.523 . S
C2406 C2390 1.368 . S
C2406 C2402 1.368 . S
C2406 C2405 1.523 . S
H2407 C2382 0.950 . S
H2408 C2384 0.950 . S
H2409 C2385 0.949 . S
H2410 C2387 0.950 . S
H2411 C2389 0.950 . S
C2412 C2413 1.349 . S
C2412 C2414 1.327 . S
C2412 H2437 0.950 . S
C2413 C2412 1.349 . S
C2413 C2429 1.349 . S
C2414 C2412 1.327 . S
C2414 C2433 1.429 . S
C2414 H2438 0.950 . S
C2415 C2432 1.574 . S
C2415 C2434 1.368 . S
C2415 H2439 0.949 . S
H2416 C2420 0.949 . S
C2417 C2418 1.349 . S
C2417 C2419 1.327 . S
C2417 H2440 0.950 . S
C2418 C2417 1.349 . S
C2418 C2430 1.349 . S
C2419 C2417 1.327 . S
C2419 C2435 1.429 . S
C2419 H2441 0.950 . S
C2420 H2416 0.949 . S
C2420 C2428 1.574 . S
C2420 C2436 1.368 . S
H2421 C2429 0.950 . S
H2422 C2427 0.950 . S
H2423 C2428 0.949 . S
H2424 C2430 0.950 . S
H2425 C2431 0.950 . S
H2426 C2432 0.949 . S
C2427 H2422 0.950 . S
C2427 C2429 1.327 . S
C2427 C2433 1.429 . S
C2428 C2420 1.574 . S
C2428 H2423 0.949 . S
C2428 C2434 1.368 . S
C2429 C2413 1.349 . S
C2429 H2421 0.950 . S
C2429 C2427 1.327 . S
C2430 C2418 1.349 . S
C2430 H2424 0.950 . S
C2430 C2431 1.327 . S
C2431 H2425 0.950 . S
C2431 C2430 1.327 . S
C2431 C2435 1.429 . S
C2432 C2415 1.574 . S
C2432 H2426 0.949 . S
C2432 C2436 1.368 . S
C2433 C2414 1.429 . S
C2433 C2427 1.429 . S
C2433 C2434 1.523 . S
C2434 C2415 1.368 . S
C2434 C2428 1.368 . S
C2434 C2433 1.523 . S
C2435 C2419 1.429 . S
C2435 C2431 1.429 . S
C2435 C2436 1.523 . S
C2436 C2420 1.368 . S
C2436 C2432 1.368 . S
C2436 C2435 1.523 . S
H2437 C2412 0.950 . S
H2438 C2414 0.950 . S
H2439 C2415 0.949 . S
H2440 C2417 0.950 . S
H2441 C2419 0.950 . S
C2442 C2443 1.349 . S
C2442 C2444 1.327 . S
C2442 H2467 0.950 . S
C2443 C2442 1.349 . S
C2443 C2459 1.349 . S
C2444 C2442 1.327 . S
C2444 C2463 1.429 . S
C2444 H2468 0.950 . S
C2445 C2462 1.574 . S
C2445 C2464 1.368 . S
C2445 H2469 0.949 . S
H2446 C2450 0.949 . S
C2447 C2448 1.349 . S
C2447 C2449 1.327 . S
C2447 H2470 0.950 . S
C2448 C2447 1.349 . S
C2448 C2460 1.349 . S
C2449 C2447 1.327 . S
C2449 C2465 1.429 . S
C2449 H2471 0.950 . S
C2450 H2446 0.949 . S
C2450 C2458 1.574 . S
C2450 C2466 1.368 . S
H2451 C2459 0.950 . S
H2452 C2457 0.950 . S
H2453 C2458 0.949 . S
H2454 C2460 0.950 . S
H2455 C2461 0.950 . S
H2456 C2462 0.949 . S
C2457 H2452 0.950 . S
C2457 C2459 1.327 . S
C2457 C2463 1.429 . S
C2458 C2450 1.574 . S
C2458 H2453 0.949 . S
C2458 C2464 1.368 . S
C2459 C2443 1.349 . S
C2459 H2451 0.950 . S
C2459 C2457 1.327 . S
C2460 C2448 1.349 . S
C2460 H2454 0.950 . S
C2460 C2461 1.327 . S
C2461 H2455 0.950 . S
C2461 C2460 1.327 . S
C2461 C2465 1.429 . S
C2462 C2445 1.574 . S
C2462 H2456 0.949 . S
C2462 C2466 1.368 . S
C2463 C2444 1.429 . S
C2463 C2457 1.429 . S
C2463 C2464 1.523 . S
C2464 C2445 1.368 . S
C2464 C2458 1.368 . S
C2464 C2463 1.523 . S
C2465 C2449 1.429 . S
C2465 C2461 1.429 . S
C2465 C2466 1.523 . S
C2466 C2450 1.368 . S
C2466 C2462 1.368 . S
C2466 C2465 1.523 . S
H2467 C2442 0.950 . S
H2468 C2444 0.950 . S
H2469 C2445 0.949 . S
H2470 C2447 0.950 . S
H2471 C2449 0.950 . S
C2472 C2473 1.349 . S
C2472 C2474 1.327 . S
C2472 H2497 0.950 . S
C2473 C2472 1.349 . S
C2473 C2489 1.349 . S
C2474 C2472 1.327 . S
C2474 C2493 1.429 . S
C2474 H2498 0.950 . S
C2475 C2492 1.574 . S
C2475 C2494 1.368 . S
C2475 H2499 0.949 . S
H2476 C2480 0.949 . S
C2477 C2478 1.349 . S
C2477 C2479 1.327 . S
C2477 H2500 0.950 . S
C2478 C2477 1.349 . S
C2478 C2490 1.349 . S
C2479 C2477 1.327 . S
C2479 C2495 1.429 . S
C2479 H2501 0.950 . S
C2480 H2476 0.949 . S
C2480 C2488 1.574 . S
C2480 C2496 1.368 . S
H2481 C2489 0.950 . S
H2482 C2487 0.950 . S
H2483 C2488 0.949 . S
H2484 C2490 0.950 . S
H2485 C2491 0.950 . S
H2486 C2492 0.949 . S
C2487 H2482 0.950 . S
C2487 C2489 1.327 . S
C2487 C2493 1.429 . S
C2488 C2480 1.574 . S
C2488 H2483 0.949 . S
C2488 C2494 1.368 . S
C2489 C2473 1.349 . S
C2489 H2481 0.950 . S
C2489 C2487 1.327 . S
C2490 C2478 1.349 . S
C2490 H2484 0.950 . S
C2490 C2491 1.327 . S
C2491 H2485 0.950 . S
C2491 C2490 1.327 . S
C2491 C2495 1.429 . S
C2492 C2475 1.574 . S
C2492 H2486 0.949 . S
C2492 C2496 1.368 . S
C2493 C2474 1.429 . S
C2493 C2487 1.429 . S
C2493 C2494 1.523 . S
C2494 C2475 1.368 . S
C2494 C2488 1.368 . S
C2494 C2493 1.523 . S
C2495 C2479 1.429 . S
C2495 C2491 1.429 . S
C2495 C2496 1.523 . S
C2496 C2480 1.368 . S
C2496 C2492 1.368 . S
C2496 C2495 1.523 . S
H2497 C2472 0.950 . S
H2498 C2474 0.950 . S
H2499 C2475 0.949 . S
H2500 C2477 0.950 . S
H2501 C2479 0.950 . S
C2502 C2503 1.349 . S
C2502 C2504 1.327 . S
C2502 H2527 0.950 . S
C2503 C2502 1.349 . S
C2503 C2519 1.349 . S
C2504 C2502 1.327 . S
C2504 C2523 1.429 . S
C2504 H2528 0.950 . S
C2505 C2522 1.574 . S
C2505 C2524 1.368 . S
C2505 H2529 0.949 . S
H2506 C2510 0.949 . S
C2507 C2508 1.349 . S
C2507 C2509 1.327 . S
C2507 H2530 0.950 . S
C2508 C2507 1.349 . S
C2508 C2520 1.349 . S
C2509 C2507 1.327 . S
C2509 C2525 1.429 . S
C2509 H2531 0.950 . S
C2510 H2506 0.949 . S
C2510 C2518 1.574 . S
C2510 C2526 1.368 . S
H2511 C2519 0.950 . S
H2512 C2517 0.950 . S
H2513 C2518 0.949 . S
H2514 C2520 0.950 . S
H2515 C2521 0.950 . S
H2516 C2522 0.949 . S
C2517 H2512 0.950 . S
C2517 C2519 1.327 . S
C2517 C2523 1.429 . S
C2518 C2510 1.574 . S
C2518 H2513 0.949 . S
C2518 C2524 1.368 . S
C2519 C2503 1.349 . S
C2519 H2511 0.950 . S
C2519 C2517 1.327 . S
C2520 C2508 1.349 . S
C2520 H2514 0.950 . S
C2520 C2521 1.327 . S
C2521 H2515 0.950 . S
C2521 C2520 1.327 . S
C2521 C2525 1.429 . S
C2522 C2505 1.574 . S
C2522 H2516 0.949 . S
C2522 C2526 1.368 . S
C2523 C2504 1.429 . S
C2523 C2517 1.429 . S
C2523 C2524 1.523 . S
C2524 C2505 1.368 . S
C2524 C2518 1.368 . S
C2524 C2523 1.523 . S
C2525 C2509 1.429 . S
C2525 C2521 1.429 . S
C2525 C2526 1.523 . S
C2526 C2510 1.368 . S
C2526 C2522 1.368 . S
C2526 C2525 1.523 . S
H2527 C2502 0.950 . S
H2528 C2504 0.950 . S
H2529 C2505 0.949 . S
H2530 C2507 0.950 . S
H2531 C2509 0.950 . S
C2532 C2533 1.349 . S
C2532 C2534 1.327 . S
C2532 H2557 0.950 . S
C2533 C2532 1.349 . S
C2533 C2549 1.349 . S
C2534 C2532 1.327 . S
C2534 C2553 1.429 . S
C2534 H2558 0.950 . S
C2535 C2552 1.574 . S
C2535 C2554 1.368 . S
C2535 H2559 0.949 . S
H2536 C2540 0.949 . S
C2537 C2538 1.349 . S
C2537 C2539 1.327 . S
C2537 H2560 0.950 . S
C2538 C2537 1.349 . S
C2538 C2550 1.349 . S
C2539 C2537 1.327 . S
C2539 C2555 1.429 . S
C2539 H2561 0.950 . S
C2540 H2536 0.949 . S
C2540 C2548 1.574 . S
C2540 C2556 1.368 . S
H2541 C2549 0.950 . S
H2542 C2547 0.950 . S
H2543 C2548 0.949 . S
H2544 C2550 0.950 . S
H2545 C2551 0.950 . S
H2546 C2552 0.949 . S
C2547 H2542 0.950 . S
C2547 C2549 1.327 . S
C2547 C2553 1.429 . S
C2548 C2540 1.574 . S
C2548 H2543 0.949 . S
C2548 C2554 1.368 . S
C2549 C2533 1.349 . S
C2549 H2541 0.950 . S
C2549 C2547 1.327 . S
C2550 C2538 1.349 . S
C2550 H2544 0.950 . S
C2550 C2551 1.327 . S
C2551 H2545 0.950 . S
C2551 C2550 1.327 . S
C2551 C2555 1.429 . S
C2552 C2535 1.574 . S
C2552 H2546 0.949 . S
C2552 C2556 1.368 . S
C2553 C2534 1.429 . S
C2553 C2547 1.429 . S
C2553 C2554 1.523 . S
C2554 C2535 1.368 . S
C2554 C2548 1.368 . S
C2554 C2553 1.523 . S
C2555 C2539 1.429 . S
C2555 C2551 1.429 . S
C2555 C2556 1.523 . S
C2556 C2540 1.368 . S
C2556 C2552 1.368 . S
C2556 C2555 1.523 . S
H2557 C2532 0.950 . S
H2558 C2534 0.950 . S
H2559 C2535 0.949 . S
H2560 C2537 0.950 . S
H2561 C2539 0.950 . S
C2562 C2563 1.349 . S
C2562 C2564 1.327 . S
C2562 H2587 0.950 . S
C2563 C2562 1.349 . S
C2563 C2579 1.349 . S
C2564 C2562 1.327 . S
C2564 C2583 1.429 . S
C2564 H2588 0.950 . S
C2565 C2582 1.574 . S
C2565 C2584 1.368 . S
C2565 H2589 0.949 . S
H2566 C2570 0.949 . S
C2567 C2568 1.349 . S
C2567 C2569 1.327 . S
C2567 H2590 0.950 . S
C2568 C2567 1.349 . S
C2568 C2580 1.349 . S
C2569 C2567 1.327 . S
C2569 C2585 1.429 . S
C2569 H2591 0.950 . S
C2570 H2566 0.949 . S
C2570 C2578 1.574 . S
C2570 C2586 1.368 . S
H2571 C2579 0.950 . S
H2572 C2577 0.950 . S
H2573 C2578 0.949 . S
H2574 C2580 0.950 . S
H2575 C2581 0.950 . S
H2576 C2582 0.949 . S
C2577 H2572 0.950 . S
C2577 C2579 1.327 . S
C2577 C2583 1.429 . S
C2578 C2570 1.574 . S
C2578 H2573 0.949 . S
C2578 C2584 1.368 . S
C2579 C2563 1.349 . S
C2579 H2571 0.950 . S
C2579 C2577 1.327 . S
C2580 C2568 1.349 . S
C2580 H2574 0.950 . S
C2580 C2581 1.327 . S
C2581 H2575 0.950 . S
C2581 C2580 1.327 . S
C2581 C2585 1.429 . S
C2582 C2565 1.574 . S
C2582 H2576 0.949 . S
C2582 C2586 1.368 . S
C2583 C2564 1.429 . S
C2583 C2577 1.429 . S
C2583 C2584 1.523 . S
C2584 C2565 1.368 . S
C2584 C2578 1.368 . S
C2584 C2583 1.523 . S
C2585 C2569 1.429 . S
C2585 C2581 1.429 . S
C2585 C2586 1.523 . S
C2586 C2570 1.368 . S
C2586 C2582 1.368 . S
C2586 C2585 1.523 . S
H2587 C2562 0.950 . S
H2588 C2564 0.950 . S
H2589 C2565 0.949 . S
H2590 C2567 0.950 . S
H2591 C2569 0.950 . S
C793 N113 1.368 . S
C798 C8 1.390 . S
C823 N14 1.368 . S
C828 C41 1.390 . S
C853 N47 1.368 . S
C858 C74 1.390 . S
C883 C107 1.390 . S
C888 N80 1.368 . S
C913 N179 1.368 . S
C918 C140 1.390 . S
C943 N212 1.368 . S
C948 C173 1.390 . S
C973 C206 1.390 . S
C978 N245 1.368 . S
C1003 N146 1.368 . S
C1008 C239 1.390 . S
C1033 C272 1.390 . S
C1038 N608 1.368 . S
C1063 C305 1.390 . S
C1068 N641 1.368 . S
C1093 N674 1.368 . S
C1098 C338 1.390 . S
C1123 N575 1.368 . S
C1128 C371 1.390 . S
C1153 N740 1.368 . S
C1158 C404 1.390 . S
C1183 C437 1.390 . S
C1188 N542 1.368 . S
C1213 C470 1.390 . S
C1218 N773 1.368 . S
C1243 N707 1.368 . S
C1248 C503 1.390 . S
C1273 N311 1.368 . S
C1278 C536 1.390 . S
C1303 C569 1.390 . S
C1308 N509 1.368 . S
C1333 N410 1.368 . S
C1338 C602 1.390 . S
C1363 N443 1.368 . S
C1368 C635 1.390 . S
C1393 N476 1.368 . S
C1398 C668 1.390 . S
C1423 N377 1.368 . S
C1428 C701 1.390 . S
C1453 N278 1.368 . S
C1458 C734 1.390 . S
C1483 N344 1.368 . S
C1488 C767 1.390 . S
C1513 C215 1.716 . S
C1518 C17 1.716 . S
C1543 C50 1.716 . S
C1548 C248 1.716 . S
C1573 C149 1.716 . S
C1578 C83 1.716 . S
C1603 C182 1.716 . S
C1608 C116 1.716 . S
C1633 C347 1.716 . S
C1638 C281 1.716 . S
C1663 C314 1.716 . S
C1668 C380 1.716 . S
C1693 C413 1.716 . S
C1698 C479 1.716 . S
C1723 C512 1.716 . S
C1728 C446 1.716 . S
C1753 C545 1.716 . S
C1758 C578 1.716 . S
C1783 C611 1.716 . S
C1788 C776 1.716 . S
C1813 C644 1.716 . S
C1818 C710 1.716 . S
C1843 C743 1.716 . S
C1848 C677 1.716 . S
C1873 C28 1.097 . S
C1878 N269 1.099 . S
C1903 C61 1.097 . S
C1908 N302 1.099 . S
C1933 N335 1.099 . S
C1938 C94 1.097 . S
C1963 N368 1.099 . S
C1968 C127 1.097 . S
C1993 C160 1.097 . S
C1998 N401 1.099 . S
C2023 N434 1.099 . S
C2028 C193 1.097 . S
C2053 C226 1.097 . S
C2058 N467 1.099 . S
C2083 N500 1.099 . S
C2088 C259 1.097 . S
C2113 C292 1.097 . S
C2118 N533 1.099 . S
C2143 N764 1.099 . S
C2148 C325 1.097 . S
C2173 C358 1.097 . S
C2178 N698 1.099 . S
C2203 C391 1.097 . S
C2208 N731 1.099 . S
C2233 N566 1.099 . S
C2238 C424 1.097 . S
C2263 C457 1.097 . S
C2268 N599 1.099 . S
C2293 C490 1.097 . S
C2298 N632 1.099 . S
C2323 C523 1.097 . S
C2328 N665 1.099 . S
C2353 C556 1.097 . S
C2358 N5 1.099 . S
C2383 C589 1.097 . S
C2388 N137 1.099 . S
C2413 C622 1.097 . S
C2418 N170 1.099 . S
C2443 N203 1.099 . S
C2448 C655 1.097 . S
C2473 C688 1.097 . S
C2478 N236 1.099 . S
C2503 N71 1.099 . S
C2508 C721 1.097 . S
C2533 N104 1.099 . S
C2538 C754 1.097 . S
C2563 C787 1.097 . S
C2568 N38 1.099 . S
