# Generated by pormake.
# Topology smk, (6)-cn, num edge types: 1
# Building blocks:
#     Node 0, Type 0, BuildingBlock: VOLQOD_clean_sbu_1, # of connection points: 6
#     Node 1, Type 0, BuildingBlock: VOLQOD_clean_sbu_1, # of connection points: 6
#     Node 2, Type 0, BuildingBlock: VOLQOD_clean_sbu_1, # of connection points: 6
#     Node 3, Type 0, BuildingBlock: VOLQOD_clean_sbu_1, # of connection points: 6
#     Node 4, Type 0, BuildingBlock: VOLQOD_clean_sbu_1, # of connection points: 6
#     Node 5, Type 0, BuildingBlock: VOLQOD_clean_sbu_1, # of connection points: 6
#     Edge 6, Type (0, 0), BuildingBlock: KIFKEQ_clean_linker_1, # of connection points: 2
#     Edge 7, Type (0, 0), BuildingBlock: KIFKEQ_clean_linker_1, # of connection points: 2
#     Edge 8, Type (0, 0), BuildingBlock: KIFKEQ_clean_linker_1, # of connection points: 2
#     Edge 9, Type (0, 0), BuildingBlock: KIFKEQ_clean_linker_1, # of connection points: 2
#     Edge 10, Type (0, 0), BuildingBlock: KIFKEQ_clean_linker_1, # of connection points: 2
#     Edge 11, Type (0, 0), BuildingBlock: KIFKEQ_clean_linker_1, # of connection points: 2
#     Edge 12, Type (0, 0), BuildingBlock: KIFKEQ_clean_linker_1, # of connection points: 2
#     Edge 13, Type (0, 0), BuildingBlock: KIFKEQ_clean_linker_1, # of connection points: 2
#     Edge 14, Type (0, 0), BuildingBlock: KIFKEQ_clean_linker_1, # of connection points: 2
#     Edge 15, Type (0, 0), BuildingBlock: KIFKEQ_clean_linker_1, # of connection points: 2
#     Edge 16, Type (0, 0), BuildingBlock: KIFKEQ_clean_linker_1, # of connection points: 2
#     Edge 17, Type (0, 0), BuildingBlock: KIFKEQ_clean_linker_1, # of connection points: 2
#     Edge 18, Type (0, 0), BuildingBlock: KIFKEQ_clean_linker_1, # of connection points: 2
#     Edge 19, Type (0, 0), BuildingBlock: KIFKEQ_clean_linker_1, # of connection points: 2
#     Edge 20, Type (0, 0), BuildingBlock: KIFKEQ_clean_linker_1, # of connection points: 2
#     Edge 21, Type (0, 0), BuildingBlock: KIFKEQ_clean_linker_1, # of connection points: 2
#     Edge 22, Type (0, 0), BuildingBlock: KIFKEQ_clean_linker_1, # of connection points: 2
#     Edge 23, Type (0, 0), BuildingBlock: KIFKEQ_clean_linker_1, # of connection points: 2
# Relax obj value: 0.161
# Max RMSD: 0.170
# Mean RMSD: 0.170
data_MOF--net-smk--node1-VOLQOD_clean_sbu_1--edge1-KIFKEQ_clean_linker_1
_symmetry_space_group_name_H-M    P1
_symmetry_Int_Tables_number       1
_symmetry_cell_setting            triclinic
loop_
_symmetry_equiv_pos_as_xyz
'x, y, z'
_cell_length_a     45.001156
_cell_length_b     45.009604
_cell_length_c     17.357082
_cell_angle_alpha  89.988014
_cell_angle_beta   90.070593
_cell_angle_gamma 119.91264
loop_
_atom_site_label
_atom_site_type_symbol
_atom_site_fract_x
_atom_site_fract_y
_atom_site_fract_z
_atom_type_partial_charge
O0 O 0.445 0.23338 0.74029 0.0
Zn1 Zn 0.43867 0.24133 0.62751 0.0
O2 O 0.42779 0.20116 0.56649 0.0
Zn3 Zn 0.46487 0.21059 0.49816 0.0
Zn4 Zn 0.42227 0.16541 0.63436 0.0
Zn5 Zn 0.38684 0.18648 0.50481 0.0
O6 O 0.44755 0.19239 0.39199 0.0
O7 O 0.40055 0.19701 0.39299 0.0
O8 O 0.4784 0.28474 0.57962 0.0
O9 O 0.49155 0.26093 0.48296 0.0
O10 O 0.49688 0.1955 0.54327 0.0
O11 O 0.46546 0.16305 0.64024 0.0
O12 O 0.38335 0.12042 0.5994 0.0
O13 O 0.3972 0.24667 0.62731 0.0
O14 O 0.35666 0.1347 0.51159 0.0
O15 O 0.36065 0.21007 0.54085 0.0
C16 C 0.4302 0.20497 0.77697 0.0
C17 C 0.42374 0.19436 0.35651 0.0
C18 C 0.49317 0.17676 0.60169 0.0
C19 C 0.49521 0.28729 0.51831 0.0
C20 C 0.35926 0.11207 0.55063 0.0
C21 C 0.36862 0.2333 0.59183 0.0
O22 O 0.41565 0.1763 0.74182 0.0
O23 O 0.20878 0.44596 0.90992 0.0
Zn24 Zn 0.19585 0.44135 0.79612 0.0
O25 O 0.22505 0.42995 0.73595 0.0
Zn26 Zn 0.25191 0.46657 0.66623 0.0
Zn27 Zn 0.25613 0.42531 0.80328 0.0
Zn28 Zn 0.19885 0.38843 0.67592 0.0
O29 O 0.25311 0.44869 0.56107 0.0
O30 O 0.20191 0.40133 0.56326 0.0
O31 O 0.19307 0.48183 0.74946 0.0
O32 O 0.2277 0.49262 0.64925 0.0
O33 O 0.29865 0.4994 0.71071 0.0
O34 O 0.3016 0.46873 0.80726 0.0
O35 O 0.2624 0.38629 0.76947 0.0
O36 O 0.14853 0.40116 0.79123 0.0
O37 O 0.2205 0.35828 0.68448 0.0
O38 O 0.14905 0.36273 0.71157 0.0
C39 C 0.2235 0.43213 0.94636 0.0
C40 C 0.22751 0.42447 0.52618 0.0
C41 C 0.31456 0.4963 0.76823 0.0
C42 C 0.20602 0.49734 0.6861 0.0
C43 C 0.24624 0.36153 0.72252 0.0
C44 C 0.13323 0.3721 0.75788 0.0
O45 O 0.23908 0.4191 0.91101 0.0
O46 O 0.76157 0.21029 0.06986 0.0
Zn47 Zn 0.75444 0.19656 0.95693 0.0
O48 O 0.79502 0.22634 0.89779 0.0
Zn49 Zn 0.78668 0.2561 0.83284 0.0
Zn50 Zn 0.83138 0.25423 0.96785 0.0
Zn51 Zn 0.80821 0.1997 0.83323 0.0
O52 O 0.80091 0.25494 0.72343 0.0
O53 O 0.79684 0.20356 0.72285 0.0
O54 O 0.71178 0.19443 0.90928 0.0
O55 O 0.73629 0.23723 0.82532 0.0
O56 O 0.80684 0.30382 0.87757 0.0
O57 O 0.83769 0.30159 0.97468 0.0
O58 O 0.87536 0.25673 0.93551 0.0
O59 O 0.74861 0.14959 0.95598 0.0
O60 O 0.85969 0.21974 0.8382 0.0
O61 O 0.78455 0.14986 0.8676 0.0
C62 C 0.78955 0.22324 0.10817 0.0
C63 C 0.79857 0.22917 0.68723 0.0
C64 C 0.82607 0.31761 0.93602 0.0
C65 C 0.70961 0.21303 0.85647 0.0
C66 C 0.88273 0.24194 0.88237 0.0
C67 C 0.76169 0.13448 0.91907 0.0
O68 O 0.81857 0.23662 0.07479 0.0
O69 O 0.55018 0.76335 0.24167 0.0
Zn70 Zn 0.55629 0.75555 0.12849 0.0
O71 O 0.56796 0.79618 0.06838 0.0
Zn72 Zn 0.53119 0.788 -7e-05 0.0
Zn73 Zn 0.57424 0.83188 0.13716 0.0
Zn74 Zn 0.60881 0.81038 0.00687 0.0
O75 O 0.54871 0.80583 0.89369 0.0
O76 O 0.59494 0.79988 0.89506 0.0
O77 O 0.516 0.71283 0.07943 0.0
O78 O 0.50326 0.73779 -0.01552 0.0
O79 O 0.50024 0.80439 0.04488 0.0
O80 O 0.53171 0.83538 0.14353 0.0
O81 O 0.61352 0.87658 0.10278 0.0
O82 O 0.59716 0.74914 0.12777 0.0
O83 O 0.63952 0.86214 0.01375 0.0
O84 O 0.63429 0.78602 0.04273 0.0
C85 C 0.5655 0.79163 0.27883 0.0
C86 C 0.57208 0.80306 0.85838 0.0
C87 C 0.50424 0.8228 0.10412 0.0
C88 C 0.49909 0.711 0.01865 0.0
C89 C 0.63736 0.88483 0.05356 0.0
C90 C 0.62581 0.76234 0.09276 0.0
O91 O 0.58064 0.82038 0.24415 0.0
O92 O 0.78738 0.54906 0.40424 0.0
Zn93 Zn 0.80128 0.55577 0.29134 0.0
O94 O 0.77063 0.56522 0.23112 0.0
Zn95 Zn 0.74267 0.52669 0.16569 0.0
Zn96 Zn 0.7412 0.57113 0.30141 0.0
Zn97 Zn 0.79566 0.60648 0.16949 0.0
O98 O 0.74402 0.54183 0.05593 0.0
O99 O 0.79153 0.59303 0.05777 0.0
O100 O 0.80576 0.51621 0.24532 0.0
O101 O 0.7637 0.49713 0.15929 0.0
O102 O 0.69511 0.49702 0.20971 0.0
O103 O 0.69578 0.52783 0.31011 0.0
O104 O 0.73354 0.60923 0.2669 0.0
O105 O 0.84746 0.59792 0.28999 0.0
O106 O 0.77365 0.63626 0.17804 0.0
O107 O 0.8457 0.63344 0.20302 0.0
C108 C 0.77526 0.56509 0.44162 0.0
C109 C 0.7679 0.56767 0.021 0.0
C110 C 0.68088 0.50065 0.26972 0.0
C111 C 0.78815 0.49541 0.19164 0.0
C112 C 0.74853 0.63329 0.21794 0.0
C113 C 0.86176 0.62626 0.25362 0.0
O114 O 0.76113 0.57985 0.40721 0.0
O115 O 0.23423 0.78727 0.56992 0.0
Zn116 Zn 0.24173 0.80087 0.45686 0.0
O117 O 0.20149 0.77055 0.3969 0.0
Zn118 Zn 0.21116 0.74218 0.33077 0.0
Zn119 Zn 0.16564 0.74085 0.46576 0.0
Zn120 Zn 0.18651 0.7964 0.33407 0.0
O121 O 0.1961 0.74296 0.22206 0.0
O122 O 0.19735 0.79307 0.22279 0.0
O123 O 0.28521 0.80415 0.41051 0.0
O124 O 0.26159 0.76274 0.323 0.0
O125 O 0.19342 0.69464 0.37422 0.0
O126 O 0.16194 0.69464 0.47221 0.0
O127 O 0.12069 0.73529 0.43156 0.0
O128 O 0.24662 0.84742 0.45528 0.0
O129 O 0.1347 0.77479 0.34046 0.0
O130 O 0.2095 0.84628 0.36872 0.0
C131 C 0.20601 0.77327 0.60729 0.0
C132 C 0.19674 0.7681 0.18653 0.0
C133 C 0.17468 0.67995 0.43269 0.0
C134 C 0.28794 0.78661 0.35594 0.0
C135 C 0.1122 0.75035 0.3813 0.0
C136 C 0.23279 0.86206 0.41928 0.0
O137 O 0.17714 0.75857 0.57294 0.0
H138 H 0.38979 0.21607 0.26177 0.0
H139 H 0.45934 0.17595 0.25893 0.0
H140 H 0.39267 0.22028 0.12127 0.0
H141 H 0.46193 0.18002 0.11863 0.0
H142 H 0.41979 0.15213 0.87004 0.0
H143 H 0.41852 0.15023 0.01011 0.0
H144 H 0.4391 0.25468 0.01744 0.0
H145 H 0.44061 0.25682 0.87616 0.0
C146 C 0.40551 0.20796 0.23121 0.0
C147 C 0.42422 0.19552 0.27141 0.0
C148 C 0.40738 0.21069 0.15096 0.0
C149 C 0.42758 0.20056 0.10942 0.0
C150 C 0.44604 0.18786 0.14943 0.0
C151 C 0.44457 0.18557 0.22966 0.0
C152 C 0.42407 0.17476 0.9013 0.0
C153 C 0.43024 0.20464 0.86206 0.0
C154 C 0.42353 0.17368 0.98151 0.0
C155 C 0.42872 0.20229 0.02435 0.0
C156 C 0.43482 0.23222 -0.01453 0.0
C157 C 0.43588 0.2335 0.90487 0.0
H158 H 0.17194 0.38941 0.4317 0.0
H159 H 0.2811 0.46046 0.42815 0.0
H160 H 0.17035 0.39217 0.29113 0.0
H161 H 0.27936 0.46298 0.28796 0.0
H162 H 0.26652 0.42243 0.03935 0.0
H163 H 0.26683 0.42035 0.17927 0.0
H164 H 0.18107 0.43814 0.18718 0.0
H165 H 0.18072 0.44042 0.04593 0.0
C166 C 0.1956 0.4054 0.40098 0.0
C167 C 0.22669 0.4246 0.44102 0.0
C168 C 0.19459 0.40721 0.32069 0.0
C169 C 0.2247 0.42785 0.27896 0.0
C170 C 0.2558 0.44673 0.31884 0.0
C171 C 0.25676 0.4453 0.39905 0.0
C172 C 0.24766 0.42591 0.07066 0.0
C173 C 0.22353 0.43156 0.03152 0.0
C174 C 0.24801 0.42489 0.15084 0.0
C175 C 0.22402 0.42911 0.19385 0.0
C176 C 0.19972 0.43461 0.1551 0.0
C177 C 0.19965 0.43612 0.0745 0.0
H178 H 0.84131 0.2663 0.20265 0.0
H179 H 0.73676 0.1823 0.2055 0.0
H180 H 0.84186 0.26768 0.34276 0.0
H181 H 0.73757 0.18362 0.3469 0.0
H182 H 0.77657 0.17354 0.59284 0.0
H183 H 0.77201 0.17203 0.45248 0.0
H184 H 0.81071 0.28116 0.44926 0.0
H185 H 0.81511 0.28283 0.58963 0.0
C186 C 0.81842 0.24809 0.23324 0.0
C187 C 0.789 0.22407 0.19313 0.0
C188 C 0.81872 0.24908 0.31342 0.0
C189 C 0.78977 0.2258 0.35534 0.0
C190 C 0.76026 0.20174 0.31559 0.0
C191 C 0.75975 0.20109 0.23496 0.0
C192 C 0.78417 0.19724 0.56223 0.0
C193 C 0.79642 0.22836 0.60226 0.0
C194 C 0.78123 0.19626 0.48205 0.0
C195 C 0.79094 0.22645 0.4404 0.0
C196 C 0.80318 0.25755 0.48024 0.0
C197 C 0.80567 0.25848 0.56046 0.0
H198 H 0.57658 0.84463 0.37195 0.0
H199 H 0.55399 0.73936 0.37802 0.0
H200 H 0.57765 0.84647 0.51195 0.0
H201 H 0.5553 0.74144 0.5194 0.0
H202 H 0.60502 0.78005 0.76428 0.0
H203 H 0.60185 0.77535 0.62384 0.0
H204 H 0.53405 0.81733 0.61995 0.0
H205 H 0.53695 0.82191 0.76016 0.0
C206 C 0.57187 0.82185 0.4032 0.0
C207 C 0.56527 0.79183 0.36394 0.0
C208 C 0.57229 0.8229 0.48339 0.0
C209 C 0.56653 0.79412 0.52626 0.0
C210 C 0.55999 0.76403 0.48739 0.0
C211 C 0.55906 0.76279 0.40675 0.0
C212 C 0.58956 0.78842 0.73346 0.0
C213 C 0.57138 0.80154 0.77329 0.0
C214 C 0.5875 0.7854 0.65324 0.0
C215 C 0.56764 0.79589 0.61135 0.0
C216 C 0.54966 0.8092 0.65101 0.0
C217 C 0.55133 0.81179 0.7312 0.0
H218 H 0.78475 0.52289 0.5402 0.0
H219 H 0.76866 0.60988 0.53518 0.0
H220 H 0.78372 0.52356 0.68135 0.0
H221 H 0.76779 0.61051 0.67535 0.0
H222 H 0.80549 0.62204 0.92582 0.0
H223 H 0.80927 0.62155 0.78564 0.0
H224 H 0.73776 0.5127 0.78355 0.0
H225 H 0.73379 0.51302 0.92389 0.0
C226 C 0.78127 0.54226 0.56913 0.0
C227 C 0.77667 0.56625 0.52665 0.0
C228 C 0.78047 0.54249 0.6497 0.0
C229 C 0.77562 0.56706 0.68897 0.0
C230 C 0.7718 0.59146 0.64648 0.0
C231 C 0.77213 0.59095 0.56623 0.0
C232 C 0.7905 0.598 0.89554 0.0
C233 C 0.7692 0.5676 0.93593 0.0
C234 C 0.79265 0.59776 0.81536 0.0
C235 C 0.77389 0.56707 0.77403 0.0
C236 C 0.75274 0.53663 0.81424 0.0
C237 C 0.75024 0.53692 0.89442 0.0
H238 H 0.21611 0.82342 0.09233 0.0
H239 H 0.18163 0.71494 0.08862 0.0
H240 H 0.22036 0.82509 0.95184 0.0
H241 H 0.1857 0.71675 0.9483 0.0
H242 H 0.15448 0.72947 0.70115 0.0
H243 H 0.15339 0.7286 0.84128 0.0
H244 H 0.2563 0.81514 0.84683 0.0
H245 H 0.25766 0.81598 0.70546 0.0
C246 C 0.20929 0.79993 0.06159 0.0
C247 C 0.19835 0.76899 0.10151 0.0
C248 C 0.21205 0.801 0.98136 0.0
C249 C 0.20343 0.77108 0.9396 0.0
C250 C 0.19236 0.74014 0.97934 0.0
C251 C 0.19007 0.73914 0.05956 0.0
C252 C 0.17694 0.74836 0.73204 0.0
C253 C 0.20616 0.77288 0.69232 0.0
C254 C 0.17634 0.74767 0.81225 0.0
C255 C 0.20475 0.77176 0.85456 0.0
C256 C 0.23401 0.7964 0.81521 0.0
C257 C 0.23484 0.79676 0.73459 0.0
H258 H 0.36234 0.05794 0.61134 0.0
H259 H 0.30286 0.08252 0.45492 0.0
H260 H 0.32739 0.99797 0.57982 0.0
H261 H 0.26658 0.02156 0.42526 0.0
H262 H 0.24178 0.91462 0.32398 0.0
H263 H 0.26829 0.97545 0.35835 0.0
H264 H 0.27309 0.94985 0.5965 0.0
H265 H 0.24861 0.88996 0.56122 0.0
C266 C 0.34136 0.05051 0.57113 0.0
C267 C 0.33547 0.07517 0.53572 0.0
C268 C 0.32104 0.01589 0.55336 0.0
C269 C 0.29388 0.00473 0.50035 0.0
C270 C 0.28747 0.02927 0.46581 0.0
C271 C 0.3081 0.06417 0.48324 0.0
C272 C 0.24824 0.92219 0.38365 0.0
C273 C 0.24384 0.89786 0.43974 0.0
C274 C 0.26326 0.95694 0.40352 0.0
C275 C 0.27352 0.9677 0.48004 0.0
C276 C 0.26662 0.94274 0.53665 0.0
C277 C 0.25239 0.90836 0.51658 0.0
H278 H 0.3236 0.24102 0.49844 0.0
H279 H 0.3591 0.25186 0.73337 0.0
H280 H 0.28986 0.26816 0.53303 0.0
H281 H 0.32434 0.27707 0.76896 0.0
H282 H 0.30464 0.36602 0.77991 0.0
H283 H 0.32966 0.33092 0.74897 0.0
H284 H 0.24307 0.26727 0.60258 0.0
H285 H 0.21838 0.30365 0.63156 0.0
C286 C 0.32354 0.24853 0.5577 0.0
C287 C 0.34439 0.24501 0.61293 0.0
C288 C 0.30413 0.26392 0.57772 0.0
C289 C 0.30489 0.27547 0.65357 0.0
C290 C 0.32397 0.26957 0.70953 0.0
C291 C 0.34377 0.25494 0.68927 0.0
C292 C 0.29063 0.34439 0.74166 0.0
C293 C 0.25945 0.33772 0.70829 0.0
C294 C 0.30494 0.324 0.72422 0.0
C295 C 0.28831 0.29599 0.67362 0.0
C296 C 0.25673 0.28881 0.6412 0.0
C297 C 0.24247 0.30952 0.65826 0.0
H298 H 0.93601 0.27406 0.98267 0.0
H299 H 0.91195 0.23549 0.74961 0.0
H300 H 0.99687 0.30059 0.95415 0.0
H301 H 0.97313 0.26311 0.72021 0.0
H302 H 0.09043 0.30555 0.7093 0.0
H303 H 0.02987 0.26835 0.74284 0.0
H304 H 0.03274 0.35037 0.87789 0.0
H305 H 0.09246 0.3868 0.84627 0.0
C306 C 0.94374 0.27099 0.92549 0.0
C307 C 0.91921 0.25316 0.86807 0.0
C308 C 0.97862 0.28632 0.909 0.0
C309 C 0.98984 0.28462 0.83439 0.0
C310 C 0.96533 0.26485 0.77826 0.0
C311 C 0.93029 0.24913 0.79506 0.0
C312 C 0.07805 0.31549 0.74626 0.0
C313 C 0.09642 0.34912 0.77533 0.0
C314 C 0.0434 0.29423 0.76535 0.0
C315 C 0.02663 0.30622 0.814 0.0
C316 C 0.04502 0.33993 0.84202 0.0
C317 C 0.07935 0.36101 0.82318 0.0
H318 H 0.635 0.93894 0.11642 0.0
H319 H 0.69293 0.91438 0.95569 0.0
H320 H 0.66929 -0.00118 0.08408 0.0
H321 H 0.72867 0.97532 0.92527 0.0
H322 H 0.75175 0.08154 0.82398 0.0
H323 H 0.72596 0.02091 0.85929 0.0
H324 H 0.7232 0.04737 0.0977 0.0
H325 H 0.74685 0.10704 0.0615 0.0
C326 C 0.65554 0.94637 0.07512 0.0
C327 C 0.66112 0.92172 0.03865 0.0
C328 C 0.6755 0.98096 0.05687 0.0
C329 C 0.70203 0.99212 0.00234 0.0
C330 C 0.70824 0.96761 0.96696 0.0
C331 C 0.68794 0.93272 -0.01516 0.0
C332 C 0.74582 0.0742 0.88387 0.0
C333 C 0.75056 0.09869 0.93983 0.0
C334 C 0.73125 0.03956 0.9043 0.0
C335 C 0.72182 0.02908 0.98124 0.0
C336 C 0.72901 0.05423 0.03758 0.0
C337 C 0.74274 0.08849 0.01697 0.0
H338 H 0.68926 0.62719 0.27368 0.0
H339 H 0.77595 0.69167 0.12891 0.0
H340 H 0.66365 0.66192 0.24383 0.0
H341 H 0.75072 0.7277 0.10123 0.0
H342 H 0.67128 0.75557 -0.0008 0.0
H343 H 0.70454 0.72769 0.03192 0.0
H344 H 0.66799 0.71501 0.26662 0.0
H345 H 0.6337 0.74096 0.23271 0.0
C346 C 0.70322 0.64921 0.23647 0.0
C347 C 0.73473 0.65662 0.20384 0.0
C348 C 0.68858 0.66937 0.21965 0.0
C349 C 0.70519 0.69791 0.17053 0.0
C350 C 0.73703 0.70574 0.13868 0.0
C351 C 0.75161 0.68524 0.15499 0.0
C352 C 0.67074 0.74703 0.0578 0.0
C353 C 0.6495 0.7498 0.11308 0.0
C354 C 0.68987 0.73121 0.07677 0.0
C355 C 0.68847 0.71845 0.15166 0.0
C356 C 0.66887 0.72343 0.2078 0.0
C357 C 0.64934 0.73851 0.18852 0.0
H358 H 0.89003 0.63951 0.39534 0.0
H359 H 0.91398 0.66907 0.15707 0.0
H360 H 0.95003 0.67517 0.42966 0.0
H361 H 0.9749 0.70359 0.19046 0.0
H362 H 0.08234 0.77639 0.28399 0.0
H363 H 0.02127 0.7517 0.25521 0.0
H364 H -0.00185 0.66894 0.41402 0.0
H365 H 0.05824 0.69403 0.44468 0.0
C366 C 0.9083 0.65377 0.35027 0.0
C367 C 0.89758 0.65122 0.27345 0.0
C368 C 0.94274 0.67406 0.36978 0.0
C369 C 0.96754 0.69162 0.31263 0.0
C370 C 0.95653 0.69052 0.23606 0.0
C371 C 0.92172 0.67067 0.21674 0.0
C372 C 0.06408 0.75317 0.31342 0.0
C373 C 0.07524 0.73728 0.36684 0.0
C374 C 0.0291 0.73889 0.29652 0.0
C375 C 0.00465 0.70838 0.33248 0.0
C376 C 0.01598 0.69287 0.38643 0.0
C377 C 0.05068 0.70721 0.40372 0.0
H378 H 0.50358 0.30098 0.36636 0.0
H379 H 0.53756 0.3493 0.58862 0.0
H380 H 0.54366 0.35402 0.30292 0.0
H381 H 0.57949 0.40256 0.52501 0.0
H382 H 0.63975 0.50031 0.38661 0.0
H383 H 0.59137 0.45057 0.44581 0.0
H384 H 0.60257 0.38459 0.28161 0.0
H385 H 0.64972 0.43415 0.221 0.0
C386 C 0.51984 0.32309 0.40171 0.0
C387 C 0.51786 0.32094 0.48246 0.0
C388 C 0.54301 0.3535 0.36529 0.0
C389 C 0.56545 0.38252 0.40858 0.0
C390 C 0.5625 0.38082 0.48965 0.0
C391 C 0.53865 0.35032 0.52628 0.0
C392 C 0.63142 0.4752 0.36233 0.0
C393 C 0.64863 0.47125 0.2989 0.0
C394 C 0.60388 0.44663 0.39683 0.0
C395 C 0.59303 0.41342 0.36903 0.0
C396 C 0.60966 0.40971 0.30407 0.0
C397 C 0.6369 0.43823 0.26919 0.0
H398 H 0.19849 0.50361 0.53408 0.0
H399 H 0.18709 0.54054 0.75531 0.0
H400 H 0.1842 0.54258 0.46942 0.0
H401 H 0.17434 0.58132 0.69024 0.0
H402 H 0.13454 0.63944 0.55102 0.0
H403 H 0.13662 0.5916 0.61162 0.0
H404 H 0.21223 0.60137 0.44473 0.0
H405 H 0.20918 0.64801 0.38287 0.0
C406 C 0.19303 0.5203 0.56894 0.0
C407 C 0.19444 0.51949 0.64973 0.0
C408 C 0.18498 0.54279 0.53179 0.0
C409 C 0.1788 0.5657 0.57431 0.0
C410 C 0.17877 0.56392 0.65552 0.0
C411 C 0.18625 0.54076 0.69295 0.0
C412 C 0.15109 0.63088 0.52638 0.0
C413 C 0.17171 0.64762 0.46199 0.0
C414 C 0.15254 0.60366 0.5617 0.0
C415 C 0.17475 0.59266 0.53364 0.0
C416 C 0.19437 0.60864 0.46748 0.0
C417 C 0.19271 0.63558 0.43188 0.0
H418 H 0.64735 0.15345 0.86838 0.0
H419 H 0.69581 0.25548 0.77189 0.0
H420 H 0.594 0.13978 0.80164 0.0
H421 H 0.64285 0.24223 0.70728 0.0
H422 H 0.55737 0.20333 0.53896 0.0
H423 H 0.60843 0.20871 0.60095 0.0
H424 H 0.54787 0.15279 0.79824 0.0
H425 H 0.4967 0.14644 0.73546 0.0
C426 C 0.64648 0.17308 0.83402 0.0
C427 C 0.67588 0.20547 0.82516 0.0
C428 C 0.61597 0.16525 0.79556 0.0
C429 C 0.61432 0.18969 0.74777 0.0
C430 C 0.64343 0.22241 0.74154 0.0
C431 C 0.67377 0.23014 0.77943 0.0
C432 C 0.5548 0.19159 0.59486 0.0
C433 C 0.52295 0.1748 0.63242 0.0
C434 C 0.58415 0.19495 0.63082 0.0
C435 C 0.5824 0.18183 0.7054 0.0
C436 C 0.5502 0.16317 0.74085 0.0
C437 C 0.52081 0.15963 0.70473 0.0
H438 H 0.48691 0.69912 0.86648 0.0
H439 H 0.45926 0.64778 0.08669 0.0
H440 H 0.4468 0.64637 0.80221 0.0
H441 H 0.41732 0.59467 0.02234 0.0
H442 H 0.35903 0.49799 0.87857 0.0
H443 H 0.40658 0.54847 0.9379 0.0
H444 H 0.38763 0.61339 0.78597 0.0
H445 H 0.34127 0.56315 0.72503 0.0
C446 C 0.47196 0.67646 0.90131 0.0
C447 C 0.47581 0.67768 0.98182 0.0
C448 C 0.44878 0.64617 0.86437 0.0
C449 C 0.4282 0.61628 0.90693 0.0
C450 C 0.43287 0.61713 -0.01248 0.0
C451 C 0.45671 0.64754 0.0246 0.0
C452 C 0.36546 0.52307 0.85694 0.0
C453 C 0.34634 0.52649 0.79683 0.0
C454 C 0.39251 0.55205 0.89159 0.0
C455 C 0.40095 0.58514 0.8673 0.0
C456 C 0.38239 0.58841 0.80561 0.0
C457 C 0.35564 0.5595 0.77053 0.0
H458 H 0.74831 0.44051 0.10138 0.0
H459 H 0.84795 0.49308 0.21036 0.0
H460 H 0.7637 0.40247 0.03686 0.0
H461 H 0.86364 0.45463 0.14414 0.0
H462 H 0.85449 0.34834 0.07405 0.0
H463 H 0.84907 0.39368 0.13757 0.0
H464 H 0.80158 0.40607 0.93305 0.0
H465 H 0.80618 0.36021 0.87003 0.0
C466 C 0.77359 0.44395 0.11177 0.0
C467 C 0.79699 0.47007 0.16075 0.0
C468 C 0.78253 0.42228 0.07397 0.0
C469 C 0.8152 0.42603 0.08375 0.0
C470 C 0.83832 0.45124 0.1351 0.0
C471 C 0.8293 0.47313 0.17326 0.0
C472 C 0.84357 0.36122 0.04186 0.0
C473 C 0.83021 0.35017 0.96724 0.0
C474 C 0.84053 0.38729 0.07844 0.0
C475 C 0.82417 0.40291 0.04107 0.0
C476 C 0.81348 0.39386 0.96418 0.0
C477 C 0.81637 0.36774 0.92776 0.0
H478 H 0.44078 0.79895 0.03909 0.0
H479 H 0.50098 0.8523 0.23944 0.0
H480 H 0.38996 0.79423 0.10051 0.0
H481 H 0.44996 0.84664 0.30154 0.0
H482 H 0.30226 0.74518 0.26952 0.0
H483 H 0.35541 0.75911 0.20561 0.0
H484 H 0.40391 0.86056 0.30538 0.0
H485 H 0.35017 0.84624 0.3713 0.0
C486 C 0.44332 0.8101 0.0957 0.0
C487 C 0.47491 0.82558 0.13458 0.0
C488 C 0.41411 0.80714 0.13128 0.0
C489 C 0.41574 0.81937 0.20674 0.0
C490 C 0.44777 0.83695 0.24348 0.0
C491 C 0.47704 0.84009 0.20775 0.0
C492 C 0.32423 0.77047 0.27836 0.0
C493 C 0.32188 0.79469 0.32526 0.0
C494 C 0.35468 0.77859 0.24089 0.0
C495 C 0.38374 0.81123 0.24878 0.0
C496 C 0.38192 0.8352 0.29791 0.0
C497 C 0.35123 0.82698 0.3359 0.0
loop_
_geom_bond_atom_site_label_1
_geom_bond_atom_site_label_2
_geom_bond_distance
_geom_bond_site_symmetry_2
_ccdc_geom_bond_type
O0 Zn1 1.953 . S
O0 C16 1.225 . S
Zn1 O0 1.953 . S
Zn1 O2 1.949 . S
Zn1 O8 1.919 . S
Zn1 O13 1.924 . S
O2 Zn1 1.949 . S
O2 Zn3 1.923 . S
O2 Zn4 1.950 . S
O2 Zn5 1.945 . S
Zn3 O2 1.923 . S
Zn3 O6 1.933 . S
Zn3 O9 1.941 . S
Zn3 O10 1.965 . S
Zn4 O2 1.950 . S
Zn4 O11 1.938 . S
Zn4 O12 1.906 . S
Zn4 O22 1.953 . S
Zn5 O2 1.945 . S
Zn5 O7 1.932 . S
Zn5 O14 1.977 . S
Zn5 O15 1.910 . S
O6 Zn3 1.933 . S
O6 C17 1.226 . S
O7 Zn5 1.932 . S
O7 C17 1.307 . S
O8 Zn1 1.919 . S
O8 C19 1.253 . S
O9 Zn3 1.941 . S
O9 C19 1.283 . S
O10 Zn3 1.965 . S
O10 C18 1.303 . S
O11 Zn4 1.938 . S
O11 C18 1.247 . S
O12 Zn4 1.906 . S
O12 C20 1.304 . S
O13 Zn1 1.924 . S
O13 C21 1.311 . S
O14 Zn5 1.977 . S
O14 C20 1.272 . S
O15 Zn5 1.910 . S
O15 C21 1.231 . S
C16 O0 1.225 . S
C16 O22 1.298 . S
C17 O6 1.226 . S
C17 O7 1.307 . S
C18 O10 1.303 . S
C18 O11 1.247 . S
C19 O8 1.253 . S
C19 O9 1.283 . S
C20 O12 1.304 . S
C20 O14 1.272 . S
C21 O13 1.311 . S
C21 O15 1.231 . S
O22 Zn4 1.953 . S
O22 C16 1.298 . S
O23 Zn24 1.953 . S
O23 C39 1.225 . S
Zn24 O23 1.953 . S
Zn24 O25 1.949 . S
Zn24 O31 1.919 . S
Zn24 O36 1.924 . S
O25 Zn24 1.949 . S
O25 Zn26 1.923 . S
O25 Zn27 1.950 . S
O25 Zn28 1.945 . S
Zn26 O25 1.923 . S
Zn26 O29 1.933 . S
Zn26 O32 1.941 . S
Zn26 O33 1.965 . S
Zn27 O25 1.950 . S
Zn27 O34 1.938 . S
Zn27 O35 1.906 . S
Zn27 O45 1.953 . S
Zn28 O25 1.945 . S
Zn28 O30 1.932 . S
Zn28 O37 1.977 . S
Zn28 O38 1.910 . S
O29 Zn26 1.933 . S
O29 C40 1.226 . S
O30 Zn28 1.932 . S
O30 C40 1.307 . S
O31 Zn24 1.919 . S
O31 C42 1.253 . S
O32 Zn26 1.941 . S
O32 C42 1.283 . S
O33 Zn26 1.965 . S
O33 C41 1.303 . S
O34 Zn27 1.938 . S
O34 C41 1.247 . S
O35 Zn27 1.906 . S
O35 C43 1.304 . S
O36 Zn24 1.924 . S
O36 C44 1.311 . S
O37 Zn28 1.977 . S
O37 C43 1.272 . S
O38 Zn28 1.910 . S
O38 C44 1.231 . S
C39 O23 1.225 . S
C39 O45 1.298 . S
C40 O29 1.226 . S
C40 O30 1.307 . S
C41 O33 1.303 . S
C41 O34 1.247 . S
C42 O31 1.253 . S
C42 O32 1.283 . S
C43 O35 1.304 . S
C43 O37 1.272 . S
C44 O36 1.311 . S
C44 O38 1.231 . S
O45 Zn27 1.953 . S
O45 C39 1.298 . S
O46 Zn47 1.953 1_554 S
O46 C62 1.225 . S
Zn47 O46 1.953 1_556 S
Zn47 O48 1.949 . S
Zn47 O54 1.919 . S
Zn47 O59 1.924 . S
O48 Zn47 1.949 . S
O48 Zn49 1.923 . S
O48 Zn50 1.950 . S
O48 Zn51 1.945 . S
Zn49 O48 1.923 . S
Zn49 O52 1.933 . S
Zn49 O55 1.941 . S
Zn49 O56 1.965 . S
Zn50 O48 1.950 . S
Zn50 O57 1.938 . S
Zn50 O58 1.906 . S
Zn50 O68 1.953 1_556 S
Zn51 O48 1.945 . S
Zn51 O53 1.932 . S
Zn51 O60 1.977 . S
Zn51 O61 1.910 . S
O52 Zn49 1.933 . S
O52 C63 1.226 . S
O53 Zn51 1.932 . S
O53 C63 1.307 . S
O54 Zn47 1.919 . S
O54 C65 1.253 . S
O55 Zn49 1.941 . S
O55 C65 1.283 . S
O56 Zn49 1.965 . S
O56 C64 1.303 . S
O57 Zn50 1.938 . S
O57 C64 1.247 . S
O58 Zn50 1.906 . S
O58 C66 1.304 . S
O59 Zn47 1.924 . S
O59 C67 1.311 . S
O60 Zn51 1.977 . S
O60 C66 1.272 . S
O61 Zn51 1.910 . S
O61 C67 1.231 . S
C62 O46 1.225 . S
C62 O68 1.298 . S
C63 O52 1.226 . S
C63 O53 1.307 . S
C64 O56 1.303 . S
C64 O57 1.247 . S
C65 O54 1.253 . S
C65 O55 1.283 . S
C66 O58 1.304 . S
C66 O60 1.272 . S
C67 O59 1.311 . S
C67 O61 1.231 . S
O68 Zn50 1.953 1_554 S
O68 C62 1.298 . S
O69 Zn70 1.953 . S
O69 C85 1.225 . S
Zn70 O69 1.953 . S
Zn70 O71 1.949 . S
Zn70 O77 1.919 . S
Zn70 O82 1.924 . S
O71 Zn70 1.949 . S
O71 Zn72 1.923 . S
O71 Zn73 1.950 . S
O71 Zn74 1.945 . S
Zn72 O71 1.923 . S
Zn72 O75 1.933 1_554 S
Zn72 O78 1.941 . S
Zn72 O79 1.965 . S
Zn73 O71 1.950 . S
Zn73 O80 1.938 . S
Zn73 O81 1.906 . S
Zn73 O91 1.953 . S
Zn74 O71 1.945 . S
Zn74 O76 1.932 1_554 S
Zn74 O83 1.977 . S
Zn74 O84 1.910 . S
O75 Zn72 1.933 1_556 S
O75 C86 1.226 . S
O76 Zn74 1.932 1_556 S
O76 C86 1.307 . S
O77 Zn70 1.919 . S
O77 C88 1.253 . S
O78 Zn72 1.941 . S
O78 C88 1.283 . S
O79 Zn72 1.965 . S
O79 C87 1.303 . S
O80 Zn73 1.938 . S
O80 C87 1.247 . S
O81 Zn73 1.906 . S
O81 C89 1.304 . S
O82 Zn70 1.924 . S
O82 C90 1.311 . S
O83 Zn74 1.977 . S
O83 C89 1.272 . S
O84 Zn74 1.910 . S
O84 C90 1.231 . S
C85 O69 1.225 . S
C85 O91 1.298 . S
C86 O75 1.226 . S
C86 O76 1.307 . S
C87 O79 1.303 . S
C87 O80 1.247 . S
C88 O77 1.253 . S
C88 O78 1.283 . S
C89 O81 1.304 . S
C89 O83 1.272 . S
C90 O82 1.311 . S
C90 O84 1.231 . S
O91 Zn73 1.953 . S
O91 C85 1.298 . S
O92 Zn93 1.953 . S
O92 C108 1.225 . S
Zn93 O92 1.953 . S
Zn93 O94 1.949 . S
Zn93 O100 1.919 . S
Zn93 O105 1.924 . S
O94 Zn93 1.949 . S
O94 Zn95 1.923 . S
O94 Zn96 1.950 . S
O94 Zn97 1.945 . S
Zn95 O94 1.923 . S
Zn95 O98 1.933 . S
Zn95 O101 1.941 . S
Zn95 O102 1.965 . S
Zn96 O94 1.950 . S
Zn96 O103 1.938 . S
Zn96 O104 1.906 . S
Zn96 O114 1.953 . S
Zn97 O94 1.945 . S
Zn97 O99 1.932 . S
Zn97 O106 1.977 . S
Zn97 O107 1.910 . S
O98 Zn95 1.933 . S
O98 C109 1.226 . S
O99 Zn97 1.932 . S
O99 C109 1.307 . S
O100 Zn93 1.919 . S
O100 C111 1.253 . S
O101 Zn95 1.941 . S
O101 C111 1.283 . S
O102 Zn95 1.965 . S
O102 C110 1.303 . S
O103 Zn96 1.938 . S
O103 C110 1.247 . S
O104 Zn96 1.906 . S
O104 C112 1.304 . S
O105 Zn93 1.924 . S
O105 C113 1.311 . S
O106 Zn97 1.977 . S
O106 C112 1.272 . S
O107 Zn97 1.910 . S
O107 C113 1.231 . S
C108 O92 1.225 . S
C108 O114 1.298 . S
C109 O98 1.226 . S
C109 O99 1.307 . S
C110 O102 1.303 . S
C110 O103 1.247 . S
C111 O100 1.253 . S
C111 O101 1.283 . S
C112 O104 1.304 . S
C112 O106 1.272 . S
C113 O105 1.311 . S
C113 O107 1.231 . S
O114 Zn96 1.953 . S
O114 C108 1.298 . S
O115 Zn116 1.953 . S
O115 C131 1.225 . S
Zn116 O115 1.953 . S
Zn116 O117 1.949 . S
Zn116 O123 1.919 . S
Zn116 O128 1.924 . S
O117 Zn116 1.949 . S
O117 Zn118 1.923 . S
O117 Zn119 1.950 . S
O117 Zn120 1.945 . S
Zn118 O117 1.923 . S
Zn118 O121 1.933 . S
Zn118 O124 1.941 . S
Zn118 O125 1.965 . S
Zn119 O117 1.950 . S
Zn119 O126 1.938 . S
Zn119 O127 1.906 . S
Zn119 O137 1.953 . S
Zn120 O117 1.945 . S
Zn120 O122 1.932 . S
Zn120 O129 1.977 . S
Zn120 O130 1.910 . S
O121 Zn118 1.933 . S
O121 C132 1.226 . S
O122 Zn120 1.932 . S
O122 C132 1.307 . S
O123 Zn116 1.919 . S
O123 C134 1.253 . S
O124 Zn118 1.941 . S
O124 C134 1.283 . S
O125 Zn118 1.965 . S
O125 C133 1.303 . S
O126 Zn119 1.938 . S
O126 C133 1.247 . S
O127 Zn119 1.906 . S
O127 C135 1.304 . S
O128 Zn116 1.924 . S
O128 C136 1.311 . S
O129 Zn120 1.977 . S
O129 C135 1.272 . S
O130 Zn120 1.910 . S
O130 C136 1.231 . S
C131 O115 1.225 . S
C131 O137 1.298 . S
C132 O121 1.226 . S
C132 O122 1.307 . S
C133 O125 1.303 . S
C133 O126 1.247 . S
C134 O123 1.253 . S
C134 O124 1.283 . S
C135 O127 1.304 . S
C135 O129 1.272 . S
C136 O128 1.311 . S
C136 O130 1.231 . S
O137 Zn119 1.953 . S
O137 C131 1.298 . S
H138 C146 0.950 . S
H139 C151 0.950 . S
H140 C148 0.950 . S
H141 C150 0.950 . S
H142 C152 0.950 . S
H143 C154 0.950 1_554 S
H144 C156 0.956 . S
H145 C157 0.950 . S
C146 H138 0.950 . S
C146 C147 1.386 . S
C146 C148 1.391 . S
C147 C146 1.386 . S
C147 C151 1.393 . S
C148 H140 0.950 . S
C148 C146 1.391 . S
C148 C149 1.400 . S
C149 C148 1.400 . S
C149 C150 1.398 . S
C149 C155 1.491 . S
C150 H141 0.950 . S
C150 C149 1.398 . S
C150 C151 1.391 . S
C151 H139 0.950 . S
C151 C147 1.393 . S
C151 C150 1.391 . S
C152 H142 0.950 . S
C152 C153 1.386 . S
C152 C154 1.391 . S
C153 C152 1.386 . S
C153 C157 1.393 . S
C154 H143 0.950 1_556 S
C154 C152 1.391 . S
C154 C155 1.400 1_556 S
C155 C149 1.491 . S
C155 C154 1.400 1_554 S
C155 C156 1.403 . S
C156 H144 0.956 . S
C156 C155 1.403 . S
C156 C157 1.380 1_554 S
C157 H145 0.950 . S
C157 C153 1.393 . S
C157 C156 1.380 1_556 S
H158 C166 0.950 . S
H159 C171 0.950 . S
H160 C168 0.950 . S
H161 C170 0.950 . S
H162 C172 0.950 . S
H163 C174 0.950 . S
H164 C176 0.950 . S
H165 C177 0.950 . S
C166 H158 0.950 . S
C166 C167 1.386 . S
C166 C168 1.391 . S
C167 C166 1.386 . S
C167 C171 1.393 . S
C168 H160 0.950 . S
C168 C166 1.391 . S
C168 C169 1.400 . S
C169 C168 1.400 . S
C169 C170 1.398 . S
C169 C175 1.491 . S
C170 H161 0.950 . S
C170 C169 1.398 . S
C170 C171 1.391 . S
C171 H159 0.950 . S
C171 C167 1.393 . S
C171 C170 1.391 . S
C172 H162 0.950 . S
C172 C173 1.386 . S
C172 C174 1.391 . S
C173 C172 1.386 . S
C173 C177 1.393 . S
C174 H163 0.950 . S
C174 C172 1.391 . S
C174 C175 1.400 . S
C175 C169 1.491 . S
C175 C174 1.400 . S
C175 C176 1.398 . S
C176 H164 0.950 . S
C176 C175 1.398 . S
C176 C177 1.391 . S
C177 H165 0.950 . S
C177 C173 1.393 . S
C177 C176 1.391 . S
H178 C186 0.950 . S
H179 C191 0.950 . S
H180 C188 0.950 . S
H181 C190 0.950 . S
H182 C192 0.950 . S
H183 C194 0.950 . S
H184 C196 0.950 . S
H185 C197 0.950 . S
C186 H178 0.950 . S
C186 C187 1.386 . S
C186 C188 1.391 . S
C187 C186 1.386 . S
C187 C191 1.393 . S
C188 H180 0.950 . S
C188 C186 1.391 . S
C188 C189 1.400 . S
C189 C188 1.400 . S
C189 C190 1.398 . S
C189 C195 1.491 . S
C190 H181 0.950 . S
C190 C189 1.398 . S
C190 C191 1.391 . S
C191 H179 0.950 . S
C191 C187 1.393 . S
C191 C190 1.391 . S
C192 H182 0.950 . S
C192 C193 1.386 . S
C192 C194 1.391 . S
C193 C192 1.386 . S
C193 C197 1.393 . S
C194 H183 0.950 . S
C194 C192 1.391 . S
C194 C195 1.400 . S
C195 C189 1.491 . S
C195 C194 1.400 . S
C195 C196 1.398 . S
C196 H184 0.950 . S
C196 C195 1.398 . S
C196 C197 1.391 . S
C197 H185 0.950 . S
C197 C193 1.393 . S
C197 C196 1.391 . S
H198 C206 0.950 . S
H199 C211 0.950 . S
H200 C208 0.950 . S
H201 C210 0.950 . S
H202 C212 0.950 . S
H203 C214 0.950 . S
H204 C216 0.950 . S
H205 C217 0.950 . S
C206 H198 0.950 . S
C206 C207 1.386 . S
C206 C208 1.391 . S
C207 C206 1.386 . S
C207 C211 1.393 . S
C208 H200 0.950 . S
C208 C206 1.391 . S
C208 C209 1.400 . S
C209 C208 1.400 . S
C209 C210 1.398 . S
C209 C215 1.491 . S
C210 H201 0.950 . S
C210 C209 1.398 . S
C210 C211 1.391 . S
C211 H199 0.950 . S
C211 C207 1.393 . S
C211 C210 1.391 . S
C212 H202 0.950 . S
C212 C213 1.386 . S
C212 C214 1.391 . S
C213 C212 1.386 . S
C213 C217 1.393 . S
C214 H203 0.950 . S
C214 C212 1.391 . S
C214 C215 1.400 . S
C215 C209 1.491 . S
C215 C214 1.400 . S
C215 C216 1.398 . S
C216 H204 0.950 . S
C216 C215 1.398 . S
C216 C217 1.391 . S
C217 H205 0.950 . S
C217 C213 1.393 . S
C217 C216 1.391 . S
H218 C226 0.950 . S
H219 C231 0.950 . S
H220 C228 0.950 . S
H221 C230 0.950 . S
H222 C232 0.950 . S
H223 C234 0.950 . S
H224 C236 0.950 . S
H225 C237 0.950 . S
C226 H218 0.950 . S
C226 C227 1.386 . S
C226 C228 1.391 . S
C227 C226 1.386 . S
C227 C231 1.393 . S
C228 H220 0.950 . S
C228 C226 1.391 . S
C228 C229 1.400 . S
C229 C228 1.400 . S
C229 C230 1.398 . S
C229 C235 1.491 . S
C230 H221 0.950 . S
C230 C229 1.398 . S
C230 C231 1.391 . S
C231 H219 0.950 . S
C231 C227 1.393 . S
C231 C230 1.391 . S
C232 H222 0.950 . S
C232 C233 1.386 . S
C232 C234 1.391 . S
C233 C232 1.386 . S
C233 C237 1.393 . S
C234 H223 0.950 . S
C234 C232 1.391 . S
C234 C235 1.400 . S
C235 C229 1.491 . S
C235 C234 1.400 . S
C235 C236 1.398 . S
C236 H224 0.950 . S
C236 C235 1.398 . S
C236 C237 1.391 . S
C237 H225 0.950 . S
C237 C233 1.393 . S
C237 C236 1.391 . S
H238 C246 0.950 . S
H239 C251 0.950 . S
H240 C248 0.950 1_556 S
H241 C250 0.950 . S
H242 C252 0.950 . S
H243 C254 0.950 . S
H244 C256 0.950 . S
H245 C257 0.950 . S
C246 H238 0.950 . S
C246 C247 1.386 . S
C246 C248 1.391 . S
C247 C246 1.386 . S
C247 C251 1.393 . S
C248 H240 0.950 1_554 S
C248 C246 1.391 . S
C248 C249 1.400 1_554 S
C249 C248 1.400 1_556 S
C249 C250 1.398 . S
C249 C255 1.491 . S
C250 H241 0.950 . S
C250 C249 1.398 . S
C250 C251 1.391 1_556 S
C251 H239 0.950 . S
C251 C247 1.393 . S
C251 C250 1.391 1_554 S
C252 H242 0.950 . S
C252 C253 1.386 . S
C252 C254 1.391 . S
C253 C252 1.386 . S
C253 C257 1.393 . S
C254 H243 0.950 . S
C254 C252 1.391 . S
C254 C255 1.400 . S
C255 C249 1.491 . S
C255 C254 1.400 . S
C255 C256 1.398 . S
C256 H244 0.950 . S
C256 C255 1.398 . S
C256 C257 1.391 . S
C257 H245 0.950 . S
C257 C253 1.393 . S
C257 C256 1.391 . S
H258 C266 0.950 . S
H259 C271 0.950 . S
H260 C268 0.950 . S
H261 C270 0.950 . S
H262 C272 0.950 . S
H263 C274 0.950 . S
H264 C276 0.950 . S
H265 C277 0.950 . S
C266 H258 0.950 . S
C266 C267 1.386 . S
C266 C268 1.391 . S
C267 C266 1.386 . S
C267 C271 1.393 . S
C268 H260 0.950 . S
C268 C266 1.391 . S
C268 C269 1.400 . S
C269 C268 1.400 . S
C269 C270 1.398 . S
C269 C275 1.491 1_545 S
C270 H261 0.950 . S
C270 C269 1.398 . S
C270 C271 1.391 . S
C271 H259 0.950 . S
C271 C267 1.393 . S
C271 C270 1.391 . S
C272 H262 0.950 . S
C272 C273 1.386 . S
C272 C274 1.391 . S
C273 C272 1.386 . S
C273 C277 1.393 . S
C274 H263 0.950 . S
C274 C272 1.391 . S
C274 C275 1.400 . S
C275 C269 1.491 1_565 S
C275 C274 1.400 . S
C275 C276 1.398 . S
C276 H264 0.950 . S
C276 C275 1.398 . S
C276 C277 1.391 . S
C277 H265 0.950 . S
C277 C273 1.393 . S
C277 C276 1.391 . S
H278 C286 0.950 . S
H279 C291 0.950 . S
H280 C288 0.950 . S
H281 C290 0.950 . S
H282 C292 0.950 . S
H283 C294 0.950 . S
H284 C296 0.950 . S
H285 C297 0.950 . S
C286 H278 0.950 . S
C286 C287 1.386 . S
C286 C288 1.391 . S
C287 C286 1.386 . S
C287 C291 1.393 . S
C288 H280 0.950 . S
C288 C286 1.391 . S
C288 C289 1.400 . S
C289 C288 1.400 . S
C289 C290 1.398 . S
C289 C295 1.491 . S
C290 H281 0.950 . S
C290 C289 1.398 . S
C290 C291 1.391 . S
C291 H279 0.950 . S
C291 C287 1.393 . S
C291 C290 1.391 . S
C292 H282 0.950 . S
C292 C293 1.386 . S
C292 C294 1.391 . S
C293 C292 1.386 . S
C293 C297 1.393 . S
C294 H283 0.950 . S
C294 C292 1.391 . S
C294 C295 1.400 . S
C295 C289 1.491 . S
C295 C294 1.400 . S
C295 C296 1.398 . S
C296 H284 0.950 . S
C296 C295 1.398 . S
C296 C297 1.391 . S
C297 H285 0.950 . S
C297 C293 1.393 . S
C297 C296 1.391 . S
H298 C306 0.950 . S
H299 C311 0.950 . S
H300 C308 0.950 . S
H301 C310 0.950 . S
H302 C312 0.950 . S
H303 C314 0.950 . S
H304 C316 0.950 . S
H305 C317 0.950 . S
C306 H298 0.950 . S
C306 C307 1.386 . S
C306 C308 1.391 . S
C307 C306 1.386 . S
C307 C311 1.393 . S
C308 H300 0.950 . S
C308 C306 1.391 . S
C308 C309 1.400 . S
C309 C308 1.400 . S
C309 C310 1.398 . S
C309 C315 1.491 1_655 S
C310 H301 0.950 . S
C310 C309 1.398 . S
C310 C311 1.391 . S
C311 H299 0.950 . S
C311 C307 1.393 . S
C311 C310 1.391 . S
C312 H302 0.950 . S
C312 C313 1.386 . S
C312 C314 1.391 . S
C313 C312 1.386 . S
C313 C317 1.393 . S
C314 H303 0.950 . S
C314 C312 1.391 . S
C314 C315 1.400 . S
C315 C309 1.491 1_455 S
C315 C314 1.400 . S
C315 C316 1.398 . S
C316 H304 0.950 . S
C316 C315 1.398 . S
C316 C317 1.391 . S
C317 H305 0.950 . S
C317 C313 1.393 . S
C317 C316 1.391 . S
H318 C326 0.950 . S
H319 C331 0.950 . S
H320 C328 0.950 . S
H321 C330 0.950 . S
H322 C332 0.950 . S
H323 C334 0.950 . S
H324 C336 0.950 . S
H325 C337 0.950 . S
C326 H318 0.950 . S
C326 C327 1.386 . S
C326 C328 1.391 . S
C327 C326 1.386 . S
C327 C331 1.393 1_554 S
C328 H320 0.950 . S
C328 C326 1.391 . S
C328 C329 1.400 . S
C329 C328 1.400 . S
C329 C330 1.398 1_554 S
C329 C335 1.491 1_564 S
C330 H321 0.950 . S
C330 C329 1.398 1_556 S
C330 C331 1.391 . S
C331 H319 0.950 . S
C331 C327 1.393 1_556 S
C331 C330 1.391 . S
C332 H322 0.950 . S
C332 C333 1.386 . S
C332 C334 1.391 . S
C333 C332 1.386 . S
C333 C337 1.393 1_556 S
C334 H323 0.950 . S
C334 C332 1.391 . S
C334 C335 1.400 . S
C335 C329 1.491 1_546 S
C335 C334 1.400 . S
C335 C336 1.398 1_556 S
C336 H324 0.950 . S
C336 C335 1.398 1_554 S
C336 C337 1.391 . S
C337 H325 0.950 . S
C337 C333 1.393 1_554 S
C337 C336 1.391 . S
H338 C346 0.950 . S
H339 C351 0.950 . S
H340 C348 0.950 . S
H341 C350 0.950 . S
H342 C352 0.950 . S
H343 C354 0.950 . S
H344 C356 0.950 . S
H345 C357 0.950 . S
C346 H338 0.950 . S
C346 C347 1.386 . S
C346 C348 1.391 . S
C347 C346 1.386 . S
C347 C351 1.393 . S
C348 H340 0.950 . S
C348 C346 1.391 . S
C348 C349 1.400 . S
C349 C348 1.400 . S
C349 C350 1.398 . S
C349 C355 1.491 . S
C350 H341 0.950 . S
C350 C349 1.398 . S
C350 C351 1.391 . S
C351 H339 0.950 . S
C351 C347 1.393 . S
C351 C350 1.391 . S
C352 H342 0.950 . S
C352 C353 1.386 . S
C352 C354 1.391 . S
C353 C352 1.386 . S
C353 C357 1.393 . S
C354 H343 0.950 . S
C354 C352 1.391 . S
C354 C355 1.400 . S
C355 C349 1.491 . S
C355 C354 1.400 . S
C355 C356 1.398 . S
C356 H344 0.950 . S
C356 C355 1.398 . S
C356 C357 1.391 . S
C357 H345 0.950 . S
C357 C353 1.393 . S
C357 C356 1.391 . S
H358 C366 0.950 . S
H359 C371 0.950 . S
H360 C368 0.950 . S
H361 C370 0.950 . S
H362 C372 0.950 . S
H363 C374 0.950 . S
H364 C376 0.950 . S
H365 C377 0.950 . S
C366 H358 0.950 . S
C366 C367 1.386 . S
C366 C368 1.391 . S
C367 C366 1.386 . S
C367 C371 1.393 . S
C368 H360 0.950 . S
C368 C366 1.391 . S
C368 C369 1.400 . S
C369 C368 1.400 . S
C369 C370 1.398 . S
C369 C375 1.491 1_655 S
C370 H361 0.950 . S
C370 C369 1.398 . S
C370 C371 1.391 . S
C371 H359 0.950 . S
C371 C367 1.393 . S
C371 C370 1.391 . S
C372 H362 0.950 . S
C372 C373 1.386 . S
C372 C374 1.391 . S
C373 C372 1.386 . S
C373 C377 1.393 . S
C374 H363 0.950 . S
C374 C372 1.391 . S
C374 C375 1.400 . S
C375 C369 1.491 1_455 S
C375 C374 1.400 . S
C375 C376 1.398 . S
C376 H364 0.950 . S
C376 C375 1.398 . S
C376 C377 1.391 . S
C377 H365 0.950 . S
C377 C373 1.393 . S
C377 C376 1.391 . S
H378 C386 0.950 . S
H379 C391 0.950 . S
H380 C388 0.950 . S
H381 C390 0.950 . S
H382 C392 0.950 . S
H383 C394 0.950 . S
H384 C396 0.950 . S
H385 C397 0.950 . S
C386 H378 0.950 . S
C386 C387 1.386 . S
C386 C388 1.391 . S
C387 C386 1.386 . S
C387 C391 1.393 . S
C388 H380 0.950 . S
C388 C386 1.391 . S
C388 C389 1.400 . S
C389 C388 1.400 . S
C389 C390 1.398 . S
C389 C395 1.491 . S
C390 H381 0.950 . S
C390 C389 1.398 . S
C390 C391 1.391 . S
C391 H379 0.950 . S
C391 C387 1.393 . S
C391 C390 1.391 . S
C392 H382 0.950 . S
C392 C393 1.386 . S
C392 C394 1.391 . S
C393 C392 1.386 . S
C393 C397 1.393 . S
C394 H383 0.950 . S
C394 C392 1.391 . S
C394 C395 1.400 . S
C395 C389 1.491 . S
C395 C394 1.400 . S
C395 C396 1.398 . S
C396 H384 0.950 . S
C396 C395 1.398 . S
C396 C397 1.391 . S
C397 H385 0.950 . S
C397 C393 1.393 . S
C397 C396 1.391 . S
H398 C406 0.950 . S
H399 C411 0.950 . S
H400 C408 0.950 . S
H401 C410 0.950 . S
H402 C412 0.950 . S
H403 C414 0.950 . S
H404 C416 0.950 . S
H405 C417 0.950 . S
C406 H398 0.950 . S
C406 C407 1.386 . S
C406 C408 1.391 . S
C407 C406 1.386 . S
C407 C411 1.393 . S
C408 H400 0.950 . S
C408 C406 1.391 . S
C408 C409 1.400 . S
C409 C408 1.400 . S
C409 C410 1.398 . S
C409 C415 1.491 . S
C410 H401 0.950 . S
C410 C409 1.398 . S
C410 C411 1.391 . S
C411 H399 0.950 . S
C411 C407 1.393 . S
C411 C410 1.391 . S
C412 H402 0.950 . S
C412 C413 1.386 . S
C412 C414 1.391 . S
C413 C412 1.386 . S
C413 C417 1.393 . S
C414 H403 0.950 . S
C414 C412 1.391 . S
C414 C415 1.400 . S
C415 C409 1.491 . S
C415 C414 1.400 . S
C415 C416 1.398 . S
C416 H404 0.950 . S
C416 C415 1.398 . S
C416 C417 1.391 . S
C417 H405 0.950 . S
C417 C413 1.393 . S
C417 C416 1.391 . S
H418 C426 0.950 . S
H419 C431 0.950 . S
H420 C428 0.950 . S
H421 C430 0.950 . S
H422 C432 0.950 . S
H423 C434 0.950 . S
H424 C436 0.950 . S
H425 C437 0.950 . S
C426 H418 0.950 . S
C426 C427 1.386 . S
C426 C428 1.391 . S
C427 C426 1.386 . S
C427 C431 1.393 . S
C428 H420 0.950 . S
C428 C426 1.391 . S
C428 C429 1.400 . S
C429 C428 1.400 . S
C429 C430 1.398 . S
C429 C435 1.491 . S
C430 H421 0.950 . S
C430 C429 1.398 . S
C430 C431 1.391 . S
C431 H419 0.950 . S
C431 C427 1.393 . S
C431 C430 1.391 . S
C432 H422 0.950 . S
C432 C433 1.386 . S
C432 C434 1.391 . S
C433 C432 1.386 . S
C433 C437 1.393 . S
C434 H423 0.950 . S
C434 C432 1.391 . S
C434 C435 1.400 . S
C435 C429 1.491 . S
C435 C434 1.400 . S
C435 C436 1.398 . S
C436 H424 0.950 . S
C436 C435 1.398 . S
C436 C437 1.391 . S
C437 H425 0.950 . S
C437 C433 1.393 . S
C437 C436 1.391 . S
H438 C446 0.950 . S
H439 C451 0.950 . S
H440 C448 0.950 . S
H441 C450 0.950 . S
H442 C452 0.950 . S
H443 C454 0.950 . S
H444 C456 0.950 . S
H445 C457 0.950 . S
C446 H438 0.950 . S
C446 C447 1.386 1_556 S
C446 C448 1.391 . S
C447 C446 1.386 1_554 S
C447 C451 1.393 . S
C448 H440 0.950 . S
C448 C446 1.391 . S
C448 C449 1.400 . S
C449 C448 1.400 . S
C449 C450 1.398 1_556 S
C449 C455 1.491 . S
C450 H441 0.950 . S
C450 C449 1.398 1_554 S
C450 C451 1.391 . S
C451 H439 0.950 . S
C451 C447 1.393 . S
C451 C450 1.391 . S
C452 H442 0.950 . S
C452 C453 1.386 . S
C452 C454 1.391 . S
C453 C452 1.386 . S
C453 C457 1.393 . S
C454 H443 0.950 . S
C454 C452 1.391 . S
C454 C455 1.400 . S
C455 C449 1.491 . S
C455 C454 1.400 . S
C455 C456 1.398 . S
C456 H444 0.950 . S
C456 C455 1.398 . S
C456 C457 1.391 . S
C457 H445 0.950 . S
C457 C453 1.393 . S
C457 C456 1.391 . S
H458 C466 0.950 . S
H459 C471 0.950 . S
H460 C468 0.943 1_556 S
H461 C470 0.950 . S
H462 C472 0.950 . S
H463 C474 0.950 . S
H464 C476 0.950 . S
H465 C477 0.950 . S
C466 H458 0.950 . S
C466 C467 1.386 . S
C466 C468 1.391 . S
C467 C466 1.386 . S
C467 C471 1.393 . S
C468 H460 0.943 1_554 S
C468 C466 1.391 . S
C468 C469 1.400 . S
C469 C468 1.400 . S
C469 C470 1.398 . S
C469 C475 1.491 . S
C470 H461 0.950 . S
C470 C469 1.398 . S
C470 C471 1.391 . S
C471 H459 0.950 . S
C471 C467 1.393 . S
C471 C470 1.391 . S
C472 H462 0.950 . S
C472 C473 1.382 1_554 S
C472 C474 1.391 . S
C473 C472 1.382 1_556 S
C473 C477 1.395 . S
C474 H463 0.950 . S
C474 C472 1.391 . S
C474 C475 1.400 . S
C475 C469 1.491 . S
C475 C474 1.400 . S
C475 C476 1.398 1_554 S
C476 H464 0.950 . S
C476 C475 1.398 1_556 S
C476 C477 1.391 . S
C477 H465 0.950 . S
C477 C473 1.395 . S
C477 C476 1.391 . S
H478 C486 0.950 . S
H479 C491 0.950 . S
H480 C488 0.950 . S
H481 C490 0.950 . S
H482 C492 0.950 . S
H483 C494 0.950 . S
H484 C496 0.950 . S
H485 C497 0.950 . S
C486 H478 0.950 . S
C486 C487 1.386 . S
C486 C488 1.391 . S
C487 C486 1.386 . S
C487 C491 1.393 . S
C488 H480 0.950 . S
C488 C486 1.391 . S
C488 C489 1.400 . S
C489 C488 1.400 . S
C489 C490 1.398 . S
C489 C495 1.491 . S
C490 H481 0.950 . S
C490 C489 1.398 . S
C490 C491 1.391 . S
C491 H479 0.950 . S
C491 C487 1.393 . S
C491 C490 1.391 . S
C492 H482 0.950 . S
C492 C493 1.386 . S
C492 C494 1.391 . S
C493 C492 1.386 . S
C493 C497 1.393 . S
C494 H483 0.950 . S
C494 C492 1.391 . S
C494 C495 1.400 . S
C495 C489 1.491 . S
C495 C494 1.400 . S
C495 C496 1.398 . S
C496 H484 0.950 . S
C496 C495 1.398 . S
C496 C497 1.391 . S
C497 H485 0.950 . S
C497 C493 1.393 . S
C497 C496 1.391 . S
C147 C17 1.275 . S
C153 C16 1.275 . S
C167 C40 1.276 . S
C173 C39 1.276 1_554 S
C187 C62 1.274 . S
C193 C63 1.276 . S
C207 C85 1.274 . S
C213 C86 1.276 . S
C227 C108 1.277 . S
C233 C109 1.277 1_556 S
C247 C132 1.276 . S
C253 C131 1.276 . S
C267 C20 1.493 . S
C273 C136 1.457 . S
C287 C21 1.472 . S
C293 C43 1.492 . S
C307 C66 1.491 . S
C313 C44 1.456 . S
C327 C89 1.492 . S
C333 C67 1.454 . S
C347 C112 1.492 . S
C353 C90 1.454 . S
C367 C113 1.455 . S
C373 C135 1.493 . S
C387 C19 1.640 . S
C393 C110 1.661 . S
C407 C42 1.642 . S
C413 C133 1.661 . S
C427 C65 1.627 . S
C433 C18 1.657 . S
C447 C88 1.643 . S
C453 C41 1.662 . S
C467 C111 1.642 . S
C473 C64 1.663 . S
C487 C87 1.661 . S
C493 C134 1.637 . S
