# Generated by pormake.
# Topology soi, (5)-cn, num edge types: 1
# Building blocks:
#     Node 0, Type 0, BuildingBlock: XOMCOT_clean_sbu_0, # of connection points: 5
#     Node 1, Type 0, BuildingBlock: XOMCOT_clean_sbu_0, # of connection points: 5
#     Node 2, Type 0, BuildingBlock: XOMCOT_clean_sbu_0, # of connection points: 5
#     Node 3, Type 0, BuildingBlock: XOMCOT_clean_sbu_0, # of connection points: 5
#     Node 4, Type 0, BuildingBlock: XOMCOT_clean_sbu_0, # of connection points: 5
#     Node 5, Type 0, BuildingBlock: XOMCOT_clean_sbu_0, # of connection points: 5
#     Node 6, Type 0, BuildingBlock: XOMCOT_clean_sbu_0, # of connection points: 5
#     Node 7, Type 0, BuildingBlock: XOMCOT_clean_sbu_0, # of connection points: 5
#     Node 8, Type 0, BuildingBlock: XOMCOT_clean_sbu_0, # of connection points: 5
#     Node 9, Type 0, BuildingBlock: XOMCOT_clean_sbu_0, # of connection points: 5
#     Node 10, Type 0, BuildingBlock: XOMCOT_clean_sbu_0, # of connection points: 5
#     Node 11, Type 0, BuildingBlock: XOMCOT_clean_sbu_0, # of connection points: 5
#     Node 12, Type 0, BuildingBlock: XOMCOT_clean_sbu_0, # of connection points: 5
#     Node 13, Type 0, BuildingBlock: XOMCOT_clean_sbu_0, # of connection points: 5
#     Node 14, Type 0, BuildingBlock: XOMCOT_clean_sbu_0, # of connection points: 5
#     Node 15, Type 0, BuildingBlock: XOMCOT_clean_sbu_0, # of connection points: 5
#     Edge 16, Type (0, 0), BuildingBlock: OJICUG_clean_linker_0, # of connection points: 2
#     Edge 17, Type (0, 0), BuildingBlock: OJICUG_clean_linker_0, # of connection points: 2
#     Edge 18, Type (0, 0), BuildingBlock: OJICUG_clean_linker_0, # of connection points: 2
#     Edge 19, Type (0, 0), BuildingBlock: OJICUG_clean_linker_0, # of connection points: 2
#     Edge 20, Type (0, 0), BuildingBlock: OJICUG_clean_linker_0, # of connection points: 2
#     Edge 21, Type (0, 0), BuildingBlock: OJICUG_clean_linker_0, # of connection points: 2
#     Edge 22, Type (0, 0), BuildingBlock: OJICUG_clean_linker_0, # of connection points: 2
#     Edge 23, Type (0, 0), BuildingBlock: OJICUG_clean_linker_0, # of connection points: 2
#     Edge 24, Type (0, 0), BuildingBlock: OJICUG_clean_linker_0, # of connection points: 2
#     Edge 25, Type (0, 0), BuildingBlock: OJICUG_clean_linker_0, # of connection points: 2
#     Edge 26, Type (0, 0), BuildingBlock: OJICUG_clean_linker_0, # of connection points: 2
#     Edge 27, Type (0, 0), BuildingBlock: OJICUG_clean_linker_0, # of connection points: 2
#     Edge 28, Type (0, 0), BuildingBlock: OJICUG_clean_linker_0, # of connection points: 2
#     Edge 29, Type (0, 0), BuildingBlock: OJICUG_clean_linker_0, # of connection points: 2
#     Edge 30, Type (0, 0), BuildingBlock: OJICUG_clean_linker_0, # of connection points: 2
#     Edge 31, Type (0, 0), BuildingBlock: OJICUG_clean_linker_0, # of connection points: 2
#     Edge 32, Type (0, 0), BuildingBlock: OJICUG_clean_linker_0, # of connection points: 2
#     Edge 33, Type (0, 0), BuildingBlock: OJICUG_clean_linker_0, # of connection points: 2
#     Edge 34, Type (0, 0), BuildingBlock: OJICUG_clean_linker_0, # of connection points: 2
#     Edge 35, Type (0, 0), BuildingBlock: OJICUG_clean_linker_0, # of connection points: 2
#     Edge 36, Type (0, 0), BuildingBlock: OJICUG_clean_linker_0, # of connection points: 2
#     Edge 37, Type (0, 0), BuildingBlock: OJICUG_clean_linker_0, # of connection points: 2
#     Edge 38, Type (0, 0), BuildingBlock: OJICUG_clean_linker_0, # of connection points: 2
#     Edge 39, Type (0, 0), BuildingBlock: OJICUG_clean_linker_0, # of connection points: 2
#     Edge 40, Type (0, 0), BuildingBlock: OJICUG_clean_linker_0, # of connection points: 2
#     Edge 41, Type (0, 0), BuildingBlock: OJICUG_clean_linker_0, # of connection points: 2
#     Edge 42, Type (0, 0), BuildingBlock: OJICUG_clean_linker_0, # of connection points: 2
#     Edge 43, Type (0, 0), BuildingBlock: OJICUG_clean_linker_0, # of connection points: 2
#     Edge 44, Type (0, 0), BuildingBlock: OJICUG_clean_linker_0, # of connection points: 2
#     Edge 45, Type (0, 0), BuildingBlock: OJICUG_clean_linker_0, # of connection points: 2
#     Edge 46, Type (0, 0), BuildingBlock: OJICUG_clean_linker_0, # of connection points: 2
#     Edge 47, Type (0, 0), BuildingBlock: OJICUG_clean_linker_0, # of connection points: 2
#     Edge 48, Type (0, 0), BuildingBlock: OJICUG_clean_linker_0, # of connection points: 2
#     Edge 49, Type (0, 0), BuildingBlock: OJICUG_clean_linker_0, # of connection points: 2
#     Edge 50, Type (0, 0), BuildingBlock: OJICUG_clean_linker_0, # of connection points: 2
#     Edge 51, Type (0, 0), BuildingBlock: OJICUG_clean_linker_0, # of connection points: 2
#     Edge 52, Type (0, 0), BuildingBlock: OJICUG_clean_linker_0, # of connection points: 2
#     Edge 53, Type (0, 0), BuildingBlock: OJICUG_clean_linker_0, # of connection points: 2
#     Edge 54, Type (0, 0), BuildingBlock: OJICUG_clean_linker_0, # of connection points: 2
#     Edge 55, Type (0, 0), BuildingBlock: OJICUG_clean_linker_0, # of connection points: 2
# Relax obj value: 0.105
# Max RMSD: 0.162
# Mean RMSD: 0.162
data_MOF--net-soi--node1-XOMCOT_clean_sbu_0--edge1-OJICUG_clean_linker_0
_symmetry_space_group_name_H-M    P1
_symmetry_Int_Tables_number       1
_symmetry_cell_setting            triclinic
loop_
_symmetry_equiv_pos_as_xyz
'x, y, z'
_cell_length_a     37.513224
_cell_length_b     19.475686
_cell_length_c     51.226861
_cell_angle_alpha  89.875018
_cell_angle_beta   89.978539
_cell_angle_gamma 89.959929
loop_
_atom_site_label
_atom_site_type_symbol
_atom_site_fract_x
_atom_site_fract_y
_atom_site_fract_z
_atom_type_partial_charge
Co0 Co 0.31726 0.09968 0.15177 0.0
C1 C 0.32139 0.0474 0.20621 0.0
C2 C 0.29505 0.1451 0.20441 0.0
C3 C 0.29522 0.12297 0.22995 0.0
N4 N 0.31147 0.09773 0.18947 0.0
N5 N 0.31162 0.06138 0.23108 0.0
H6 H 0.33517 0.00116 0.20032 0.0
H7 H 0.28293 0.19194 0.19737 0.0
C8 C 0.30647 0.24521 0.13556 0.0
O9 O 0.33324 0.23995 0.11913 0.0
N10 N 0.32195 0.1008 0.11384 0.0
C11 C 0.34894 0.07831 0.0987 0.0
C12 C 0.33828 0.08006 0.07298 0.0
C13 C 0.29514 0.11486 0.09699 0.0
N14 N 0.30434 0.10288 0.07184 0.0
C15 C 0.39365 0.08428 0.15318 0.0
C16 C 0.40886 0.2165 0.16904 0.0
C17 C 0.43735 0.17272 0.16283 0.0
C18 C 0.4292 0.10483 0.15571 0.0
C19 C 0.3738 0.19326 0.16681 0.0
N20 N 0.36643 0.12967 0.15697 0.0
H21 H 0.38805 0.03179 0.14783 0.0
H22 H 0.35276 0.22704 0.17312 0.0
H23 H 0.3741 0.05862 0.10546 0.0
H24 H 0.26912 0.13222 0.10325 0.0
O25 O 0.32372 0.00116 0.15136 0.0
O26 O 0.27196 0.05598 0.14771 0.0
O27 O 0.2984 0.19561 0.15067 0.0
C28 C 0.28927 -0.00168 0.14814 0.0
H29 H 0.28289 0.14905 0.24627 0.0
H30 H 0.35392 0.06239 0.05657 0.0
H31 H 0.41325 0.26892 0.1752 0.0
H32 H 0.45002 0.06752 0.15211 0.0
Co33 Co 0.70201 0.34913 0.15087 0.0
C34 C 0.69653 0.39939 0.20538 0.0
C35 C 0.72672 0.30597 0.20316 0.0
C36 C 0.72632 0.32775 0.2287 0.0
N37 N 0.70799 0.35084 0.18851 0.0
N38 N 0.70749 0.38668 0.23009 0.0
H39 H 0.68092 0.44363 0.19963 0.0
H40 H 0.74071 0.26147 0.19585 0.0
C41 C 0.71232 0.2037 0.1348 0.0
O42 O 0.68534 0.20935 0.11858 0.0
N43 N 0.69729 0.34824 0.11295 0.0
C44 C 0.67057 0.37154 0.0977 0.0
C45 C 0.6815 0.37013 0.07203 0.0
C46 C 0.72419 0.33401 0.09621 0.0
N47 N 0.71535 0.34674 0.07105 0.0
C48 C 0.62545 0.36383 0.15205 0.0
C49 C 0.61091 0.23175 0.16882 0.0
C50 C 0.58259 0.27499 0.16221 0.0
C51 C 0.58997 0.3426 0.15463 0.0
C52 C 0.64583 0.25559 0.16655 0.0
N53 N 0.65289 0.31899 0.15623 0.0
H54 H 0.63082 0.41618 0.14631 0.0
H55 H 0.66703 0.22261 0.17324 0.0
H56 H 0.64546 0.3917 0.10436 0.0
H57 H 0.75007 0.31617 0.1026 0.0
O58 O 0.69552 0.44764 0.15046 0.0
O59 O 0.74727 0.39284 0.14668 0.0
O60 O 0.72077 0.25314 0.14979 0.0
C61 C 0.72996 0.4505 0.14712 0.0
H62 H 0.74022 0.30359 0.2448 0.0
H63 H 0.66617 0.38854 0.05556 0.0
H64 H 0.60604 0.18011 0.17587 0.0
H65 H 0.56857 0.37809 0.15015 0.0
Co66 Co 0.31585 0.85035 0.4006 0.0
C67 C 0.32094 0.90127 0.34607 0.0
C68 C 0.29203 0.80641 0.34822 0.0
C69 C 0.2924 0.82833 0.32265 0.0
N70 N 0.30996 0.85211 0.36294 0.0
N71 N 0.31041 0.88816 0.32131 0.0
H72 H 0.33593 0.94617 0.35183 0.0
H73 H 0.27866 0.76109 0.35546 0.0
C74 C 0.30456 0.70521 0.41705 0.0
O75 O 0.3313 0.71036 0.4335 0.0
N76 N 0.32059 0.84953 0.43854 0.0
C77 C 0.34766 0.87165 0.45365 0.0
C78 C 0.3368 0.87126 0.47934 0.0
C79 C 0.29357 0.83692 0.45538 0.0
N80 N 0.30266 0.84967 0.48048 0.0
C81 C 0.39245 0.86407 0.39914 0.0
C82 C 0.40662 0.73131 0.38317 0.0
C83 C 0.43509 0.77448 0.38936 0.0
C84 C 0.42788 0.8424 0.39655 0.0
C85 C 0.37176 0.75556 0.38543 0.0
N86 N 0.36488 0.8194 0.39533 0.0
H87 H 0.38722 0.9166 0.40465 0.0
H88 H 0.35048 0.72256 0.37901 0.0
H89 H 0.37301 0.89035 0.44688 0.0
H90 H 0.26745 0.82032 0.44911 0.0
O91 O 0.32261 0.94885 0.40087 0.0
O92 O 0.27073 0.89465 0.40467 0.0
O93 O 0.29666 0.75472 0.40185 0.0
C94 C 0.28816 0.95211 0.40415 0.0
H95 H 0.27905 0.80354 0.30649 0.0
H96 H 0.35244 0.88919 0.49571 0.0
H97 H 0.41132 0.6794 0.37641 0.0
H98 H 0.44937 0.87782 0.40072 0.0
Co99 Co 0.70042 0.59772 0.39946 0.0
C100 C 0.69635 0.54493 0.34513 0.0
C101 C 0.72071 0.64447 0.34647 0.0
C102 C 0.72043 0.62235 0.32097 0.0
N103 N 0.70563 0.59592 0.36169 0.0
N104 N 0.70527 0.55962 0.32013 0.0
H105 H 0.68358 0.49778 0.35122 0.0
H106 H 0.73192 0.69227 0.35327 0.0
C107 C 0.71254 0.74274 0.41575 0.0
O108 O 0.68642 0.73765 0.43273 0.0
N109 N 0.69617 0.59888 0.43751 0.0
C110 C 0.6671 0.59312 0.45295 0.0
C111 C 0.67773 0.59309 0.47871 0.0
C112 C 0.72398 0.60194 0.4543 0.0
N113 N 0.71353 0.59822 0.47951 0.0
C114 C 0.62408 0.58268 0.39819 0.0
C115 C 0.60879 0.71546 0.38272 0.0
C116 C 0.58031 0.67136 0.38863 0.0
C117 C 0.5885 0.60325 0.3956 0.0
C118 C 0.64386 0.69225 0.385 0.0
N119 N 0.65126 0.62823 0.39454 0.0
H120 H 0.62973 0.53046 0.404 0.0
H121 H 0.66488 0.7264 0.37894 0.0
H122 H 0.63992 0.5886 0.4465 0.0
H123 H 0.75145 0.60691 0.44815 0.0
O124 O 0.69375 0.49913 0.40006 0.0
O125 O 0.74567 0.55335 0.40304 0.0
O126 O 0.7197 0.69338 0.40035 0.0
C127 C 0.72826 0.49586 0.40286 0.0
H128 H 0.73181 0.64937 0.30447 0.0
H129 H 0.66047 0.58762 0.49552 0.0
H130 H 0.60438 0.76811 0.37678 0.0
H131 H 0.56772 0.56588 0.39916 0.0
Co132 Co 0.70416 0.84888 0.89867 0.0
C133 C 0.70002 0.89898 0.844 0.0
C134 C 0.72854 0.80367 0.84654 0.0
C135 C 0.72836 0.8249 0.82088 0.0
N136 N 0.71069 0.85005 0.86106 0.0
N137 N 0.71061 0.885 0.81933 0.0
H138 H 0.685 0.94411 0.84952 0.0
H139 H 0.74157 0.75816 0.85397 0.0
C140 C 0.71409 0.70357 0.9153 0.0
O141 O 0.68697 0.70937 0.9314 0.0
N142 N 0.69886 0.84847 0.93655 0.0
C143 C 0.67196 0.87219 0.95151 0.0
C144 C 0.68244 0.87091 0.97727 0.0
C145 C 0.72545 0.83415 0.95356 0.0
N146 N 0.71621 0.84719 0.97861 0.0
C147 C 0.62769 0.86428 0.89693 0.0
C148 C 0.61291 0.73167 0.88115 0.0
C149 C 0.58467 0.77531 0.88752 0.0
C150 C 0.59217 0.84318 0.89455 0.0
C151 C 0.64788 0.75539 0.8832 0.0
N152 N 0.65504 0.81908 0.8931 0.0
H153 H 0.63315 0.91677 0.90235 0.0
H154 H 0.66902 0.72201 0.87675 0.0
H155 H 0.64703 0.89257 0.94458 0.0
H156 H 0.75138 0.816 0.94745 0.0
O157 O 0.69785 0.9474 0.89875 0.0
O158 O 0.74945 0.89232 0.90305 0.0
O159 O 0.72271 0.75285 0.90021 0.0
C160 C 0.73223 0.95008 0.90235 0.0
H161 H 0.74141 0.79927 0.80476 0.0
H162 H 0.66689 0.88963 0.99356 0.0
H163 H 0.60795 0.67977 0.8745 0.0
H164 H 0.57085 0.87896 0.89883 0.0
Co165 Co 0.31883 0.60308 0.90088 0.0
C166 C 0.32271 0.55219 0.84629 0.0
C167 C 0.2975 0.65094 0.84829 0.0
C168 C 0.29767 0.62969 0.82268 0.0
N169 N 0.31321 0.60235 0.86316 0.0
N170 N 0.31336 0.56746 0.82143 0.0
H171 H 0.33591 0.50518 0.85208 0.0
H172 H 0.2859 0.69811 0.85541 0.0
C173 C 0.30807 0.74822 0.91743 0.0
O174 O 0.33474 0.74259 0.93392 0.0
N175 N 0.32334 0.60308 0.93882 0.0
C176 C 0.35022 0.58014 0.95399 0.0
C177 C 0.33935 0.58098 0.97968 0.0
C178 C 0.2964 0.61657 0.95562 0.0
N179 N 0.30537 0.60369 0.98076 0.0
C180 C 0.39518 0.58719 0.89943 0.0
C181 C 0.41062 0.71944 0.88348 0.0
C182 C 0.43906 0.67506 0.88927 0.0
C183 C 0.43077 0.60725 0.89654 0.0
C184 C 0.37553 0.69669 0.88606 0.0
N185 N 0.36806 0.63295 0.89583 0.0
H186 H 0.38948 0.53469 0.90479 0.0
H187 H 0.35454 0.73089 0.87996 0.0
H188 H 0.37546 0.56077 0.94724 0.0
H189 H 0.27043 0.63411 0.9493 0.0
O190 O 0.32516 0.50452 0.90106 0.0
O191 O 0.27345 0.55948 0.90475 0.0
O192 O 0.30008 0.69899 0.90221 0.0
C193 C 0.29069 0.50174 0.90422 0.0
H194 H 0.28581 0.65686 0.8064 0.0
H195 H 0.35485 0.56276 0.99609 0.0
H196 H 0.41511 0.77187 0.87731 0.0
H197 H 0.45149 0.56957 0.89988 0.0
Co198 Co 0.69569 0.08903 0.64785 0.0
C199 C 0.70248 0.03488 0.70251 0.0
C200 C 0.68719 0.14089 0.70119 0.0
C201 C 0.68792 0.12005 0.72684 0.0
N202 N 0.69637 0.08765 0.68585 0.0
N203 N 0.69753 0.05323 0.72778 0.0
H204 H 0.71005 -0.01602 0.69632 0.0
H205 H 0.67942 0.1911 0.69413 0.0
C206 C 0.74523 0.20096 0.6571 0.0
O207 O 0.76541 0.15351 0.66779 0.0
N208 N 0.69472 0.0911 0.61013 0.0
C209 C 0.66842 0.06743 0.59476 0.0
C210 C 0.67967 0.07017 0.5692 0.0
C211 C 0.7217 0.10752 0.59384 0.0
N212 N 0.71327 0.09518 0.56856 0.0
C213 C 0.62159 0.08583 0.66151 0.0
C214 C 0.60425 0.21093 0.63912 0.0
C215 C 0.57757 0.17425 0.6524 0.0
C216 C 0.58665 0.11049 0.66351 0.0
C217 C 0.63869 0.18422 0.6374 0.0
N218 N 0.64711 0.12304 0.64888 0.0
H219 H 0.62842 0.03709 0.67034 0.0
H220 H 0.65862 0.21295 0.62679 0.0
H221 H 0.64335 0.04704 0.60175 0.0
H222 H 0.74723 0.12628 0.60055 0.0
O223 O 0.68721 -0.00945 0.64672 0.0
O224 O 0.74026 0.0408 0.64616 0.0
O225 O 0.71467 0.18499 0.64814 0.0
C226 C 0.72177 -0.01534 0.64495 0.0
H227 H 0.68076 0.15155 0.74339 0.0
H228 H 0.66473 0.0519 0.55255 0.0
H229 H 0.59884 0.26054 0.63041 0.0
H230 H 0.56693 0.07956 0.67352 0.0
Co231 Co 0.31419 0.35979 0.65144 0.0
C232 C 0.32043 0.41014 0.70595 0.0
C233 C 0.28962 0.31753 0.70381 0.0
C234 C 0.29051 0.33894 0.72938 0.0
N235 N 0.30846 0.36204 0.68909 0.0
N236 N 0.30974 0.39733 0.73073 0.0
H237 H 0.33625 0.45404 0.70016 0.0
H238 H 0.27527 0.27346 0.69655 0.0
C239 C 0.30475 0.21317 0.63638 0.0
O240 O 0.3319 0.21823 0.62027 0.0
N241 N 0.31863 0.35812 0.61344 0.0
C242 C 0.34465 0.38349 0.598 0.0
C243 C 0.33381 0.3802 0.57239 0.0
C244 C 0.29206 0.34106 0.59679 0.0
N245 N 0.30063 0.35368 0.57155 0.0
C246 C 0.39071 0.37417 0.65086 0.0
C247 C 0.40607 0.24405 0.66928 0.0
C248 C 0.43406 0.28519 0.66014 0.0
C249 C 0.42615 0.35203 0.65172 0.0
C250 C 0.37102 0.2681 0.66778 0.0
N251 N 0.36347 0.33025 0.65659 0.0
H252 H 0.38515 0.4264 0.64506 0.0
H253 H 0.35003 0.23605 0.67544 0.0
H254 H 0.3691 0.40672 0.60436 0.0
H255 H 0.26657 0.32142 0.60326 0.0
O256 O 0.32037 0.45838 0.65079 0.0
O257 O 0.26875 0.40318 0.6473 0.0
O258 O 0.29583 0.26349 0.65079 0.0
C259 C 0.2859 0.46101 0.64763 0.0
H260 H 0.27671 0.31491 0.74555 0.0
H261 H 0.34861 0.39971 0.55583 0.0
H262 H 0.41103 0.19291 0.67681 0.0
H263 H 0.44716 0.38683 0.64576 0.0
Co264 Co 0.81678 0.58898 0.65065 0.0
C265 C 0.82255 0.5418 0.7057 0.0
C266 C 0.79752 0.64058 0.70325 0.0
C267 C 0.79819 0.62032 0.72904 0.0
N268 N 0.81268 0.59116 0.68853 0.0
N269 N 0.81373 0.55796 0.73054 0.0
H270 H 0.83557 0.49448 0.70019 0.0
H271 H 0.78593 0.68761 0.69593 0.0
C272 C 0.79728 0.72925 0.63202 0.0
O273 O 0.82372 0.72543 0.61525 0.0
N274 N 0.81996 0.58586 0.61265 0.0
C275 C 0.84852 0.57559 0.59714 0.0
C276 C 0.83756 0.57585 0.5715 0.0
C277 C 0.792 0.5911 0.59608 0.0
N278 N 0.80195 0.58557 0.57075 0.0
C279 C 0.89337 0.59017 0.65114 0.0
C280 C 0.90212 0.72629 0.66481 0.0
C281 C 0.93232 0.68612 0.66004 0.0
C282 C 0.92775 0.61684 0.65378 0.0
C283 C 0.8682 0.69703 0.66261 0.0
N284 N 0.86397 0.63094 0.6541 0.0
H285 H 0.89053 0.53658 0.64628 0.0
H286 H 0.84561 0.72774 0.66827 0.0
H287 H 0.87556 0.56802 0.60348 0.0
H288 H 0.76484 0.59832 0.60263 0.0
O289 O 0.83033 0.49344 0.65206 0.0
O290 O 0.77483 0.53171 0.64884 0.0
O291 O 0.79165 0.68028 0.64811 0.0
C292 C 0.79648 0.47969 0.65051 0.0
H293 H 0.78673 0.64818 0.74526 0.0
H294 H 0.85483 0.5699 0.55474 0.0
H295 H 0.90474 0.7794 0.67076 0.0
H296 H 0.95057 0.58381 0.65054 0.0
Co297 Co 0.19817 0.85982 0.65101 0.0
C298 C 0.1956 0.913 0.70543 0.0
C299 C 0.2154 0.80974 0.70415 0.0
C300 C 0.21547 0.83146 0.72969 0.0
N301 N 0.20298 0.86087 0.68884 0.0
N302 N 0.20316 0.89648 0.73051 0.0
H303 H 0.18503 0.96215 0.69934 0.0
H304 H 0.22441 0.76014 0.69743 0.0
C305 C 0.20887 0.71402 0.63486 0.0
O306 O 0.18254 0.71958 0.61807 0.0
N307 N 0.1944 0.85938 0.61304 0.0
C308 C 0.16785 0.88255 0.59761 0.0
C309 C 0.17895 0.88048 0.572 0.0
C310 C 0.22142 0.8446 0.59646 0.0
N311 N 0.21275 0.85673 0.57121 0.0
C312 C 0.12184 0.8775 0.65173 0.0
C313 C 0.10519 0.74555 0.66731 0.0
C314 C 0.07714 0.79076 0.6614 0.0
C315 C 0.08603 0.85834 0.65425 0.0
C316 C 0.1405 0.76734 0.66505 0.0
N317 N 0.14861 0.83103 0.65553 0.0
H318 H 0.12798 0.92988 0.64647 0.0
H319 H 0.16112 0.7324 0.67122 0.0
H320 H 0.14267 0.90276 0.60413 0.0
H321 H 0.24717 0.82646 0.603 0.0
O322 O 0.19237 0.95857 0.65054 0.0
O323 O 0.24386 0.90269 0.64756 0.0
O324 O 0.21663 0.76347 0.65005 0.0
C325 C 0.22692 0.96076 0.6478 0.0
H326 H 0.22506 0.80228 0.74627 0.0
H327 H 0.16371 0.8984 0.55541 0.0
H328 H 0.10025 0.69314 0.67333 0.0
H329 H 0.06561 0.89653 0.65073 0.0
Co330 Co 0.81863 0.34881 0.90056 0.0
C331 C 0.82344 0.39985 0.84601 0.0
C332 C 0.7944 0.30515 0.84834 0.0
C333 C 0.79447 0.32707 0.82279 0.0
N334 N 0.81262 0.3507 0.86294 0.0
N335 N 0.81257 0.38678 0.82133 0.0
H336 H 0.83854 0.44472 0.85168 0.0
H337 H 0.78097 0.25999 0.85566 0.0
C338 C 0.80817 0.20299 0.91659 0.0
O339 O 0.83486 0.20799 0.93308 0.0
N340 N 0.82338 0.34762 0.93847 0.0
C341 C 0.8502 0.37045 0.95366 0.0
C342 C 0.8393 0.36907 0.97934 0.0
C343 C 0.79647 0.33362 0.95523 0.0
N344 N 0.80538 0.34614 0.98038 0.0
C345 C 0.89491 0.36485 0.89904 0.0
C346 C 0.91053 0.23312 0.88276 0.0
C347 C 0.9389 0.27724 0.88887 0.0
C348 C 0.93052 0.34486 0.89623 0.0
C349 C 0.8754 0.25583 0.88526 0.0
N350 N 0.86785 0.3192 0.89526 0.0
H351 H 0.88916 0.41717 0.90455 0.0
H352 H 0.85443 0.22189 0.87899 0.0
H353 H 0.87536 0.39023 0.94694 0.0
H354 H 0.77054 0.31613 0.94888 0.0
O355 O 0.82495 0.44725 0.9009 0.0
O356 O 0.77326 0.39234 0.9047 0.0
O357 O 0.80004 0.25284 0.90163 0.0
C358 C 0.7905 0.45004 0.90414 0.0
H359 H 0.78086 0.30237 0.80673 0.0
H360 H 0.85472 0.38718 0.99579 0.0
H361 H 0.9151 0.18088 0.87645 0.0
H362 H 0.9512 0.38242 0.89978 0.0
Co363 Co 0.2039 0.103 0.90045 0.0
C364 C 0.1977 0.05486 0.84576 0.0
C365 C 0.23121 0.14377 0.84867 0.0
C366 C 0.2306 0.12269 0.82304 0.0
N367 N 0.21052 0.10134 0.86291 0.0
N368 N 0.20968 0.06658 0.82121 0.0
H369 H 0.18043 0.01274 0.85121 0.0
H370 H 0.2467 0.1859 0.85636 0.0
C371 C 0.21416 0.24856 0.9165 0.0
O372 O 0.18711 0.24323 0.93269 0.0
N373 N 0.19852 0.10387 0.93833 0.0
C374 C 0.1715 0.08068 0.95331 0.0
C375 C 0.18196 0.08183 0.97908 0.0
C376 C 0.22513 0.11782 0.95534 0.0
N377 N 0.21582 0.10496 0.98041 0.0
C378 C 0.12745 0.08802 0.89857 0.0
C379 C 0.11284 0.22038 0.88213 0.0
C380 C 0.08454 0.17685 0.88847 0.0
C381 C 0.09197 0.10912 0.89586 0.0
C382 C 0.14779 0.19665 0.88452 0.0
N383 N 0.15485 0.13309 0.89471 0.0
H384 H 0.13285 0.03561 0.90423 0.0
H385 H 0.169 0.22986 0.87805 0.0
H386 H 0.1465 0.06071 0.94641 0.0
H387 H 0.25115 0.13547 0.9492 0.0
O388 O 0.19744 0.00452 0.90073 0.0
O389 O 0.24912 0.05919 0.90501 0.0
O390 O 0.22262 0.19893 0.9016 0.0
C391 C 0.23182 0.00157 0.90434 0.0
H392 H 0.24577 0.14517 0.80721 0.0
H393 H 0.1663 0.06337 0.99538 0.0
H394 H 0.10794 0.27216 0.87524 0.0
H395 H 0.0706 0.07346 0.90015 0.0
Co396 Co 0.20053 0.35058 0.40032 0.0
C397 C 0.19629 0.40187 0.3458 0.0
C398 C 0.22563 0.30745 0.34816 0.0
C399 C 0.2256 0.32943 0.3226 0.0
N400 N 0.2072 0.35282 0.36274 0.0
N401 N 0.20731 0.38897 0.32113 0.0
H402 H 0.18097 0.44651 0.35144 0.0
H403 H 0.23908 0.26231 0.3555 0.0
C404 C 0.21142 0.20508 0.4165 0.0
O405 O 0.1843 0.20999 0.43264 0.0
N406 N 0.195 0.34917 0.43818 0.0
C407 C 0.16774 0.37141 0.45313 0.0
C408 C 0.17808 0.36994 0.47892 0.0
C409 C 0.22161 0.33544 0.45523 0.0
N410 N 0.21209 0.34755 0.4803 0.0
C411 C 0.124 0.36448 0.39825 0.0
C412 C 0.11013 0.23201 0.38186 0.0
C413 C 0.08158 0.27502 0.38807 0.0
C414 C 0.08863 0.34282 0.39545 0.0
C415 C 0.14494 0.25626 0.38434 0.0
N416 N 0.15163 0.31987 0.39449 0.0
H417 H 0.12912 0.41691 0.40392 0.0
H418 H 0.16634 0.2234 0.37796 0.0
H419 H 0.14263 0.3909 0.44618 0.0
H420 H 0.24776 0.31846 0.44913 0.0
O421 O 0.19374 0.44908 0.40069 0.0
O422 O 0.24556 0.39477 0.40495 0.0
O423 O 0.21969 0.25488 0.40155 0.0
C424 C 0.22811 0.45226 0.40432 0.0
H425 H 0.23933 0.30489 0.30654 0.0
H426 H 0.16224 0.38771 0.49522 0.0
H427 H 0.10554 0.1802 0.37496 0.0
H428 H 0.06705 0.37812 0.39963 0.0
Co429 Co 0.81662 0.09758 0.39822 0.0
C430 C 0.82097 0.04567 0.34388 0.0
C431 C 0.79458 0.14333 0.34551 0.0
C432 C 0.79492 0.12131 0.31999 0.0
N433 N 0.81092 0.09588 0.36054 0.0
N434 N 0.81134 0.05975 0.31899 0.0
H435 H 0.83476 -0.00055 0.34985 0.0
H436 H 0.78243 0.19015 0.35248 0.0
C437 C 0.80551 0.24291 0.41441 0.0
O438 O 0.83228 0.23755 0.43084 0.0
N439 N 0.82128 0.09841 0.43612 0.0
C440 C 0.8482 0.07581 0.45133 0.0
C441 C 0.83737 0.07703 0.47702 0.0
C442 C 0.79435 0.11208 0.4529 0.0
N443 N 0.80338 0.09963 0.47805 0.0
C444 C 0.89302 0.08265 0.39685 0.0
C445 C 0.90804 0.21513 0.38095 0.0
C446 C 0.9366 0.17144 0.38718 0.0
C447 C 0.92855 0.10343 0.39432 0.0
C448 C 0.87303 0.19165 0.38318 0.0
N449 N 0.86574 0.12792 0.39303 0.0
H450 H 0.8875 0.03009 0.40222 0.0
H451 H 0.85194 0.22538 0.37688 0.0
H452 H 0.87342 0.05628 0.44461 0.0
H453 H 0.76836 0.12933 0.44654 0.0
O454 O 0.82322 -0.00101 0.39869 0.0
O455 O 0.77139 0.05347 0.4023 0.0
O456 O 0.79755 0.19346 0.39928 0.0
C457 C 0.78878 -0.0041 0.40192 0.0
H458 H 0.7827 0.14744 0.3036 0.0
H459 H 0.85287 0.05902 0.49346 0.0
H460 H 0.91236 0.26763 0.3748 0.0
H461 H 0.94941 0.06621 0.39793 0.0
Co462 Co 0.20198 0.59986 0.1515 0.0
C463 C 0.19735 0.54782 0.20594 0.0
C464 C 0.22389 0.64525 0.20419 0.0
C465 C 0.22344 0.62326 0.22975 0.0
N466 N 0.20751 0.59796 0.18922 0.0
N467 N 0.20691 0.56184 0.23084 0.0
H468 H 0.18353 0.50168 0.20003 0.0
H469 H 0.23615 0.69195 0.19718 0.0
C470 C 0.2129 0.74533 0.13533 0.0
O471 O 0.18618 0.74017 0.11886 0.0
N472 N 0.19759 0.60094 0.11355 0.0
C473 C 0.17075 0.57847 0.09828 0.0
C474 C 0.18169 0.57998 0.07262 0.0
C475 C 0.22458 0.61479 0.09682 0.0
N476 N 0.21567 0.60264 0.07164 0.0
C477 C 0.12546 0.58531 0.15255 0.0
C478 C 0.1107 0.71774 0.16862 0.0
C479 C 0.08246 0.67428 0.16219 0.0
C480 C 0.08994 0.60653 0.15496 0.0
C481 C 0.14566 0.69391 0.16654 0.0
N482 N 0.15284 0.63027 0.15656 0.0
H483 H 0.1309 0.53288 0.14702 0.0
H484 H 0.16677 0.7271 0.17311 0.0
H485 H 0.14551 0.55891 0.10492 0.0
H486 H 0.25054 0.63204 0.10321 0.0
O487 O 0.19541 0.50136 0.1511 0.0
O488 O 0.24724 0.55587 0.1476 0.0
O489 O 0.22095 0.69566 0.15041 0.0
C490 C 0.22988 0.49831 0.14799 0.0
H491 H 0.23565 0.64929 0.24611 0.0
H492 H 0.16624 0.56223 0.05614 0.0
H493 H 0.10576 0.76953 0.17541 0.0
H494 H 0.0686 0.57092 0.1506 0.0
Co495 Co 0.81702 0.84887 0.14994 0.0
C496 C 0.82178 0.89946 0.2044 0.0
C497 C 0.79248 0.80507 0.20222 0.0
C498 C 0.7926 0.82698 0.22775 0.0
N499 N 0.81082 0.85048 0.18756 0.0
N500 N 0.81085 0.88651 0.22911 0.0
H501 H 0.83701 0.94416 0.19866 0.0
H502 H 0.77895 0.76006 0.19494 0.0
C503 C 0.80643 0.70337 0.13384 0.0
O504 O 0.83327 0.70855 0.11746 0.0
N505 N 0.82208 0.84807 0.11206 0.0
C506 C 0.84912 0.87084 0.09701 0.0
C507 C 0.83858 0.86955 0.07126 0.0
C508 C 0.79537 0.83425 0.09513 0.0
N509 N 0.80466 0.84674 0.07003 0.0
C510 C 0.89335 0.86437 0.15173 0.0
C511 C 0.90856 0.73216 0.16787 0.0
C512 C 0.93706 0.77606 0.1618 0.0
C513 C 0.9289 0.84394 0.15453 0.0
C514 C 0.8735 0.7553 0.16538 0.0
N515 N 0.86616 0.8189 0.15541 0.0
H516 H 0.88774 0.91686 0.14628 0.0
H517 H 0.85243 0.72146 0.1716 0.0
H518 H 0.87422 0.89048 0.10386 0.0
H519 H 0.76934 0.81681 0.10132 0.0
O520 O 0.82341 0.94737 0.14959 0.0
O521 O 0.77173 0.89261 0.14565 0.0
O522 O 0.79828 0.75297 0.14884 0.0
C523 C 0.78899 0.95027 0.14625 0.0
H524 H 0.77889 0.80246 0.24386 0.0
H525 H 0.85425 0.88759 0.0549 0.0
H526 H 0.91296 0.67975 0.17412 0.0
H527 H 0.9497 0.88133 0.15102 0.0
C528 C 0.28542 0.87124 0.1527 0.0
C529 C 0.27037 0.93328 0.14432 0.0
H530 H 0.27865 0.76276 0.15658 0.0
C531 C 0.23669 0.93317 0.13231 0.0
H532 H 0.31134 0.87018 0.16202 0.0
C533 C 0.21819 0.87183 0.12885 0.0
C534 C 0.23284 0.80988 0.13777 0.0
H535 H 0.22468 -0.01949 0.12547 0.0
H536 H 0.19218 0.87312 0.11967 0.0
C537 C 0.26665 0.81002 0.14965 0.0
C538 C 0.78259 0.51555 0.13118 0.0
C539 C 0.74887 0.51552 0.14314 0.0
H540 H 0.82718 0.57549 0.11847 0.0
C541 C 0.73377 0.57763 0.1513 0.0
H542 H 0.79464 0.46816 0.12449 0.0
C543 C 0.75255 0.63882 0.14811 0.0
C544 C 0.78644 0.63885 0.13632 0.0
H545 H 0.7078 0.57878 0.16055 0.0
H546 H 0.74051 0.68613 0.15487 0.0
C547 C 0.80113 0.57685 0.12759 0.0
C548 C 0.23559 0.01745 0.41992 0.0
C549 C 0.26932 0.01728 0.40796 0.0
H550 H 0.19091 0.07742 0.43235 0.0
C551 C 0.28435 0.07928 0.39955 0.0
H552 H 0.22359 0.97015 0.42679 0.0
C553 C 0.26546 0.14049 0.40248 0.0
C554 C 0.23155 0.14063 0.41425 0.0
H555 H 0.31031 0.0803 0.39029 0.0
H556 H 0.27743 0.18772 0.39552 0.0
C557 C 0.21697 0.07874 0.42324 0.0
C558 C 0.75151 0.30776 0.40029 0.0
C559 C 0.78529 0.30736 0.41223 0.0
H560 H 0.7066 0.36813 0.38823 0.0
C561 C 0.79961 0.36899 0.42162 0.0
H562 H 0.73974 0.26075 0.39303 0.0
C563 C 0.78085 0.43027 0.41854 0.0
C564 C 0.74722 0.43067 0.40645 0.0
H565 H 0.82556 0.37012 0.43088 0.0
H566 H 0.79263 0.47735 0.42573 0.0
C567 C 0.73246 0.36893 0.39763 0.0
C568 C 0.73597 0.07728 0.89842 0.0
C569 C 0.75111 0.01502 0.90647 0.0
H570 H 0.7425 0.18592 0.89523 0.0
C571 C 0.78472 0.01489 0.91858 0.0
H572 H 0.71008 0.07856 0.88907 0.0
C573 C 0.8031 0.07622 0.92245 0.0
C574 C 0.78835 0.13839 0.91386 0.0
H575 H 0.7968 0.96738 0.92519 0.0
H576 H 0.82907 0.07476 0.93168 0.0
C577 C 0.75459 0.13848 0.9019 0.0
C578 C 0.2378 0.43645 0.91957 0.0
C579 C 0.2717 0.43668 0.90787 0.0
H580 H 0.19309 0.37626 0.93185 0.0
C581 C 0.28692 0.3747 0.89968 0.0
H582 H 0.22565 0.48372 0.92627 0.0
C583 C 0.26812 0.31344 0.90262 0.0
C584 C 0.23409 0.31318 0.91419 0.0
H585 H 0.31301 0.37371 0.89061 0.0
H586 H 0.28029 0.26624 0.89586 0.0
C587 C 0.21925 0.37506 0.92291 0.0
C588 C 0.72479 0.85664 0.64993 0.0
C589 C 0.7398 0.91835 0.64102 0.0
H590 H 0.73167 0.74785 0.65441 0.0
C591 C 0.77307 0.91707 0.62846 0.0
H592 H 0.69919 0.85648 0.65971 0.0
C593 C 0.79124 0.85533 0.62498 0.0
C594 C 0.77685 0.79369 0.63448 0.0
H595 H 0.78509 0.96397 0.62121 0.0
H596 H 0.81697 0.85623 0.61538 0.0
C597 C 0.74341 0.79477 0.64696 0.0
C598 C 0.26266 0.64922 0.64935 0.0
C599 C 0.2289 0.64941 0.63738 0.0
H600 H 0.3075 0.58914 0.6617 0.0
C601 C 0.21446 0.5875 0.62837 0.0
H602 H 0.27452 0.69643 0.65635 0.0
C603 C 0.23313 0.52618 0.6318 0.0
C604 C 0.26678 0.52604 0.64385 0.0
H605 H 0.1885 0.58621 0.61912 0.0
H606 H 0.22126 0.47888 0.62489 0.0
C607 C 0.28161 0.58806 0.65234 0.0
C608 C 0.74753 0.39333 0.64611 0.0
C609 C 0.7833 0.40849 0.65175 0.0
H610 H 0.70738 0.31556 0.64324 0.0
C611 C 0.80636 0.3551 0.65915 0.0
H612 H 0.72917 0.43356 0.64036 0.0
C613 C 0.79386 0.28782 0.66105 0.0
C614 C 0.75813 0.27243 0.65533 0.0
H615 H 0.83403 0.36535 0.66376 0.0
H616 H 0.81233 0.24783 0.66686 0.0
C617 C 0.73508 0.32581 0.64775 0.0
C618 C 0.25037 0.14878 0.64987 0.0
C619 C 0.28464 0.14863 0.63869 0.0
H620 H 0.20494 0.08916 0.66127 0.0
C621 C 0.29943 0.0865 0.63015 0.0
H622 H 0.23822 0.19614 0.65649 0.0
C623 C 0.28054 0.02535 0.63323 0.0
C624 C 0.24634 0.02558 0.64447 0.0
H625 H 0.32577 0.08494 0.62151 0.0
H626 H 0.29265 -0.0221 0.62667 0.0
C627 C 0.23124 0.08778 0.65253 0.0
C628 C 0.78685 0.57693 0.89924 0.0
C629 C 0.77155 0.51516 0.90762 0.0
H630 H 0.7803 0.68532 0.89497 0.0
C631 C 0.73761 0.51567 0.91924 0.0
H632 H 0.81297 0.57769 0.89022 0.0
C633 C 0.71907 0.57719 0.92229 0.0
C634 C 0.73399 0.63884 0.91335 0.0
H635 H 0.7254 0.46853 0.92607 0.0
H636 H 0.69285 0.57625 0.93115 0.0
C637 C 0.76808 0.63829 0.90189 0.0
C638 C 0.28424 0.93608 0.92048 0.0
C639 C 0.25066 0.93643 0.90832 0.0
H640 H 0.32867 0.87574 0.93328 0.0
C641 C 0.23564 0.87452 0.89993 0.0
H642 H 0.29623 -0.01669 0.92734 0.0
C643 C 0.25437 0.81322 0.90306 0.0
C644 C 0.28812 0.81285 0.91504 0.0
H645 H 0.20978 0.87362 0.89051 0.0
H646 H 0.24239 0.76608 0.8961 0.0
C647 C 0.30272 0.87463 0.92402 0.0
C648 C 0.28035 0.51765 0.42056 0.0
C649 C 0.24685 0.51743 0.40828 0.0
H650 H 0.32479 0.57768 0.43332 0.0
C651 C 0.23197 0.57938 0.39966 0.0
H652 H 0.29224 0.47039 0.4276 0.0
C653 C 0.25078 0.64058 0.40266 0.0
C654 C 0.28448 0.64078 0.41474 0.0
H655 H 0.20618 0.58036 0.39014 0.0
H656 H 0.23894 0.68776 0.39552 0.0
C657 C 0.2989 0.57895 0.42397 0.0
C658 C 0.78467 0.86881 0.39719 0.0
C659 C 0.76996 0.93075 0.40592 0.0
H660 H 0.77762 0.76039 0.39325 0.0
C661 C 0.73666 0.93047 0.4185 0.0
H662 H 0.81029 0.86789 0.38743 0.0
C663 C 0.7182 0.86912 0.42219 0.0
C664 C 0.73249 0.80728 0.41294 0.0
H665 H 0.72491 -0.02229 0.42562 0.0
H666 H 0.69251 0.87035 0.43184 0.0
C667 C 0.76591 0.80756 0.40046 0.0
C668 C 0.30107 0.37163 0.12891 0.0
C669 C 0.28646 0.30977 0.13791 0.0
H670 H 0.2945 0.48026 0.12537 0.0
C671 C 0.25261 0.30999 0.14975 0.0
H672 H 0.3271 0.37286 0.11975 0.0
C673 C 0.23376 0.37123 0.15269 0.0
C674 C 0.24879 0.4332 0.14424 0.0
H675 H 0.24062 0.26279 0.15673 0.0
H676 H 0.20782 0.37026 0.16198 0.0
C677 C 0.2825 0.43298 0.13226 0.0
C678 C 0.71759 0.07743 0.12785 0.0
C679 C 0.7323 0.13904 0.13691 0.0
H680 H 0.72413 0.9689 0.12399 0.0
C681 C 0.76627 0.13848 0.14855 0.0
H682 H 0.69148 0.07648 0.11883 0.0
C683 C 0.78513 0.07717 0.15123 0.0
C684 C 0.77002 0.01544 0.14271 0.0
H685 H 0.77834 0.18547 0.15556 0.0
H686 H 0.81116 0.0779 0.16038 0.0
C687 C 0.7362 0.01598 0.13092 0.0
C688 C 0.24453 0.1079 0.05095 0.0
C689 C 0.28194 0.10737 0.04883 0.0
H690 H 0.19439 0.10895 0.03119 0.0
C691 C 0.29709 0.10915 1.02369 0.0
H692 H 0.23165 0.10617 0.06982 0.0
C693 C 0.27557 0.10946 1.00137 0.0
C694 C 0.23816 0.10845 1.00347 0.0
H695 H 0.3257 0.10992 1.02112 0.0
H696 H 0.28849 0.10891 0.9825 0.0
C697 C 0.223 0.10863 0.02862 0.0
C698 C 0.79737 0.34137 0.0285 0.0
C699 C 0.78263 0.34241 1.00323 0.0
H700 H 0.78806 0.3428 0.06961 0.0
C701 C 0.74526 0.34194 1.0008 0.0
H702 H 0.82594 0.34066 0.0313 0.0
C703 C 0.72336 0.34188 1.02294 0.0
C704 C 0.7381 0.34272 0.04821 0.0
H705 H 0.73267 0.34318 0.98183 0.0
H706 H 0.69479 0.34155 1.02014 0.0
C707 C 0.77547 0.34173 0.05064 0.0
C708 C 0.24254 0.84821 0.50098 0.0
C709 C 0.27992 0.84752 0.50337 0.0
H710 H 0.19211 0.85024 0.52032 0.0
C711 C 0.29467 0.84697 0.52865 0.0
H712 H 0.22993 0.84911 0.48201 0.0
C713 C 0.27281 0.84896 0.5508 0.0
C714 C 0.23545 0.85114 0.54839 0.0
H715 H 0.32323 0.84538 0.53145 0.0
H716 H 0.28542 0.8503 0.56977 0.0
C717 C 0.22068 0.84976 0.52313 0.0
C718 C 0.79174 0.56388 0.52353 0.0
C719 C 0.77954 0.58905 0.54771 0.0
H720 H 0.78043 0.54679 0.48309 0.0
C721 C 0.74512 0.61786 0.54885 0.0
H722 H 0.8177 0.54022 0.52175 0.0
C723 C 0.72358 0.62103 0.52653 0.0
C724 C 0.73595 0.59607 0.50243 0.0
H725 H 0.73481 0.63878 0.56687 0.0
H726 H 0.69736 0.64391 0.52807 0.0
C727 C 0.77032 0.56763 0.50121 0.0
C728 C 0.72336 0.84255 0.02679 0.0
C729 C 0.73854 0.84316 1.00165 0.0
H730 H 0.73198 0.84407 0.06798 0.0
C731 C 0.77595 0.84196 0.99954 0.0
H732 H 0.69475 0.84238 0.02934 0.0
C733 C 0.79747 0.84163 1.02187 0.0
C734 C 0.78229 0.84293 0.04701 0.0
H735 H 0.78886 0.84284 0.98068 0.0
H736 H 0.82608 0.84075 1.01931 0.0
C737 C 0.74488 0.84264 0.04911 0.0
C738 C 0.27573 0.60722 0.05111 0.0
C739 C 0.23835 0.60674 0.04876 0.0
H740 H 0.32613 0.60802 0.03168 0.0
C741 C 0.22352 0.60819 1.02351 0.0
H742 H 0.28838 0.60571 0.07006 0.0
C743 C 0.24534 0.60822 1.00133 0.0
C744 C 0.28272 0.60724 1.00367 0.0
H745 H 0.19495 0.60896 1.02076 0.0
H746 H 0.23267 0.60748 0.98238 0.0
C747 C 0.29755 0.60767 0.02892 0.0
C748 C 0.77342 0.10241 0.54832 0.0
C749 C 0.73607 0.10092 0.54582 0.0
H750 H 0.82392 0.10451 0.52902 0.0
C751 C 0.72137 0.10247 0.52055 0.0
H752 H 0.78592 0.10095 0.56732 0.0
C753 C 0.74328 0.10322 0.49844 0.0
C754 C 0.78064 0.10294 0.5009 0.0
H755 H 0.69281 0.10258 0.51771 0.0
H756 H 0.7307 0.10232 0.47947 0.0
C757 C 0.79535 0.10359 0.52619 0.0
C758 C 0.24085 0.3451 0.55085 0.0
C759 C 0.27822 0.34724 0.54866 0.0
H760 H 0.19068 0.34221 0.5311 0.0
C761 C 0.29335 0.34579 0.52352 0.0
H762 H 0.22804 0.34643 0.56975 0.0
C763 C 0.27183 0.34464 0.50123 0.0
C764 C 0.23443 0.34441 0.50336 0.0
H765 H 0.32197 0.34614 0.52093 0.0
H766 H 0.28474 0.34569 0.48236 0.0
C767 C 0.21929 0.34354 0.52853 0.0
C768 C 0.31588 0.04584 0.279 0.0
C769 C 0.31466 0.0175 0.25376 0.0
H770 H 0.31558 0.02719 0.32021 0.0
C771 C 0.3144 0.94564 0.25121 0.0
H772 H 0.31652 0.10093 0.28166 0.0
C773 C 0.31399 0.90331 0.27334 0.0
C774 C 0.31408 0.93171 0.29858 0.0
H775 H 0.31321 0.92203 0.23213 0.0
H776 H 0.31314 0.84823 0.27068 0.0
C777 C 0.31572 0.0035 0.30112 0.0
C778 C 0.70453 0.40156 0.27808 0.0
C779 C 0.70355 0.42999 0.2528 0.0
H780 H 0.70582 0.42022 0.31925 0.0
C781 C 0.70076 0.50167 0.25019 0.0
H782 H 0.70626 0.34654 0.2808 0.0
C783 C 0.70035 0.54393 0.27226 0.0
C784 C 0.7025 0.51563 0.29752 0.0
H785 H 0.70018 0.52539 0.23107 0.0
H786 H 0.69881 0.59897 0.26953 0.0
C787 C 0.7039 0.44381 0.30016 0.0
C788 C 0.70527 -0.00087 0.79833 0.0
C789 C 0.70629 0.92727 0.79634 0.0
H790 H 0.70282 0.09526 0.77842 0.0
C791 C 0.70425 0.89738 0.77143 0.0
H792 H 0.70742 0.02381 0.81718 0.0
C793 C 0.70126 0.93834 0.74903 0.0
C794 C 0.70056 0.01049 0.75091 0.0
H795 H 0.7046 0.84211 0.76926 0.0
H796 H 0.69918 0.91305 0.73033 0.0
C797 C 0.70265 0.04016 0.77595 0.0
C798 C 0.31698 0.51169 0.7512 0.0
C799 C 0.31431 0.43995 0.75355 0.0
H800 H 0.31905 0.60842 0.77096 0.0
C801 C 0.31391 0.41076 0.7787 0.0
H802 H 0.31714 0.53593 0.73217 0.0
C803 C 0.31488 0.45232 0.80095 0.0
C804 C 0.31604 0.52421 0.79861 0.0
H805 H 0.3123 0.35565 0.7812 0.0
H806 H 0.31335 0.42815 0.81996 0.0
C807 C 0.3177 0.55329 0.77346 0.0
C808 C 0.81797 0.50181 0.80084 0.0
C809 C 0.81614 0.42997 0.79851 0.0
H810 H 0.81888 0.59885 0.78104 0.0
C811 C 0.81572 0.40105 0.77338 0.0
H812 H 0.81808 0.52585 0.81986 0.0
C813 C 0.81599 0.44284 0.75114 0.0
C814 C 0.81654 0.51477 0.75344 0.0
H815 H 0.81473 0.34592 0.77088 0.0
H816 H 0.81452 0.41864 0.73218 0.0
C817 C 0.81805 0.54371 0.77857 0.0
C818 C 0.19894 0.95342 0.80058 0.0
C819 C 0.20467 0.0245 0.79829 0.0
H820 H 0.19364 0.85715 0.78086 0.0
C821 C 0.20752 0.05324 0.77314 0.0
H822 H 0.19686 0.92941 0.81959 0.0
C823 C 0.20587 0.01171 0.75089 0.0
C824 C 0.20152 0.94026 0.75324 0.0
H825 H 0.21151 0.10789 0.77064 0.0
H826 H 0.20927 0.03536 0.73192 0.0
C827 C 0.19749 0.91183 0.77835 0.0
C828 C 0.20202 0.50423 0.30088 0.0
C829 C 0.20379 0.43244 0.29837 0.0
H830 H 0.20136 0.6016 0.28136 0.0
C831 C 0.2042 0.40395 0.27315 0.0
H832 H 0.20191 0.52795 0.31997 0.0
C833 C 0.20398 0.44619 0.251 0.0
C834 C 0.20362 0.51806 0.25353 0.0
H835 H 0.20516 0.34885 0.27053 0.0
H836 H 0.20542 0.42253 0.23194 0.0
C837 C 0.20207 0.54649 0.27874 0.0
C838 C 0.81413 0.94402 0.29909 0.0
C839 C 0.81453 0.01587 0.29639 0.0
H840 H 0.81293 0.8466 0.27979 0.0
C841 C 0.81606 0.04421 0.27113 0.0
H842 H 0.81268 0.92045 0.31821 0.0
C843 C 0.8161 0.00184 0.24908 0.0
C844 C 0.81433 0.93006 0.25176 0.0
H845 H 0.8168 0.0993 0.26838 0.0
H846 H 0.81621 0.02549 0.22995 0.0
C847 C 0.8139 0.90168 0.27704 0.0
C848 C 0.53556 0.19571 0.14594 0.0
C849 C 0.54566 0.24884 0.16278 0.0
H850 H 0.49355 0.13185 0.13199 0.0
C851 C 0.52051 0.27618 0.18011 0.0
H852 H 0.55462 0.17418 0.13231 0.0
C853 C 0.48569 0.25043 0.18067 0.0
C854 C 0.47504 0.19788 0.16341 0.0
H855 H 0.52796 0.31679 0.19346 0.0
H856 H 0.46731 0.27161 0.1948 0.0
C857 C 0.50059 0.17104 0.14601 0.0
C858 C 0.49725 0.77584 0.37156 0.0
C859 C 0.47199 0.74798 0.38871 0.0
H860 H 0.5505 0.77152 0.35696 0.0
C861 C 0.48198 0.69403 0.40533 0.0
H862 H 0.48991 0.81705 0.35837 0.0
C863 C 0.51693 0.66915 0.40523 0.0
C864 C 0.54259 0.69658 0.38802 0.0
H865 H 0.46285 0.67207 0.41883 0.0
H866 H 0.52387 0.62935 0.4191 0.0
C867 C 0.53205 0.74987 0.37096 0.0
C868 C 0.52214 0.77717 0.8705 0.0
C869 C 0.5477 0.74929 0.88741 0.0
H870 H 0.46849 0.77358 0.85672 0.0
C871 C 0.53789 0.69613 0.90444 0.0
H872 H 0.52933 0.81783 0.85703 0.0
C873 C 0.50281 0.67204 0.90498 0.0
C874 C 0.47684 0.69952 0.88803 0.0
H875 H 0.55725 0.67423 0.91777 0.0
H876 H 0.49603 0.63285 0.91913 0.0
C877 C 0.4872 0.75198 0.87055 0.0
C878 C 0.49143 0.26823 0.63598 0.0
C879 C 0.47102 0.25794 0.65865 0.0
H880 H 0.54017 0.24825 0.61584 0.0
C881 C 0.48575 0.21961 0.67927 0.0
H882 H 0.48056 0.29644 0.61956 0.0
C883 C 0.52024 0.19254 0.67731 0.0
C884 C 0.54068 0.20254 0.65455 0.0
H885 H 0.47075 0.21125 0.69707 0.0
H886 H 0.53102 0.16459 0.69381 0.0
C887 C 0.52569 0.24059 0.63389 0.0
C888 C 0.99367 0.6888 0.67909 0.0
C889 C 0.96851 0.71594 0.66166 0.0
H890 H 0.04681 0.69316 0.69379 0.0
C891 C 0.97849 0.76992 0.64505 0.0
H892 H 0.98639 0.64753 0.69226 0.0
C893 C 0.01349 0.79478 0.64519 0.0
C894 C 0.03916 0.76716 0.66238 0.0
H895 H 0.9595 0.79127 0.63132 0.0
H896 H 0.02055 0.83424 0.63122 0.0
C897 C 0.02842 0.7147 0.67971 0.0
C898 C 0.02236 0.17542 0.87077 0.0
C899 C 0.04757 0.20288 0.888 0.0
H900 H 0.96897 0.17938 0.85645 0.0
C901 C 0.03741 0.25562 0.90502 0.0
H902 H 0.02984 0.13507 0.85731 0.0
C903 C 1.00232 0.27973 0.90523 0.0
C904 C 0.9767 0.25272 0.88795 0.0
H905 H 0.0565 0.27717 0.91859 0.0
H906 H 0.99525 0.31856 0.9194 0.0
C907 C 0.98741 0.20064 0.8705 0.0
C908 C 0.01959 0.27575 0.37001 0.0
C909 C 0.04474 0.24841 0.38736 0.0
H910 H 0.96646 0.27092 0.35524 0.0
C911 C 0.03471 0.19493 0.40417 0.0
H912 H 0.02698 0.31663 0.35669 0.0
C913 C 0.99979 0.16997 0.40404 0.0
C914 C 0.97424 0.19685 0.38662 0.0
H915 H 0.05376 0.17341 0.41783 0.0
H916 H 0.9928 0.13055 0.41805 0.0
C917 C 0.98483 0.2497 0.36939 0.0
C918 C 0.98532 0.69852 0.18006 0.0
C919 C 0.97478 0.75104 0.16266 0.0
H920 H 0.02755 0.63229 0.1932 0.0
C921 C 1.00049 0.77803 0.14539 0.0
H922 H 0.96681 0.67724 0.1941 0.0
C923 C 0.0355 0.75352 0.14557 0.0
C924 C 0.0455 0.70038 0.16255 0.0
H925 H 0.99355 0.81721 0.13127 0.0
H926 H 0.05467 0.77513 0.13203 0.0
C927 C 0.02019 0.6729 0.17975 0.0
loop_
_geom_bond_atom_site_label_1
_geom_bond_atom_site_label_2
_geom_bond_distance
_geom_bond_site_symmetry_2
_ccdc_geom_bond_type
Co0 N4 2.148 . S
Co0 N10 2.128 . S
Co0 N20 2.194 . S
Co0 O25 2.351 . S
Co0 O26 2.155 . S
Co0 O27 2.096 . S
C1 N4 1.301 . S
C1 N5 1.328 . S
C1 H6 0.930 . S
C2 C3 1.333 . S
C2 N4 1.317 . S
C2 H7 0.930 . S
C3 C2 1.333 . S
C3 N5 1.350 . S
C3 H29 0.931 . S
N4 Co0 2.148 . S
N4 C1 1.301 . S
N4 C2 1.317 . S
N5 C1 1.328 . S
N5 C3 1.350 . S
H6 C1 0.930 . S
H7 C2 0.930 . S
C8 O9 1.224 . S
C8 O27 1.247 . S
O9 C8 1.224 . S
N10 Co0 2.128 . S
N10 C11 1.355 . S
N10 C13 1.311 . S
C11 N10 1.355 . S
C11 C12 1.363 . S
C11 H23 0.929 . S
C12 C11 1.363 . S
C12 N14 1.375 . S
C12 H30 0.931 . S
C13 N10 1.311 . S
C13 N14 1.347 . S
C13 H24 0.929 . S
N14 C12 1.375 . S
N14 C13 1.347 . S
C15 C18 1.365 . S
C15 N20 1.328 . S
C15 H21 0.929 . S
C16 C17 1.362 . S
C16 C19 1.378 . S
C16 H31 0.929 . S
C17 C16 1.362 . S
C17 C18 1.366 . S
C18 C15 1.365 . S
C18 C17 1.366 . S
C18 H32 0.930 . S
C19 C16 1.378 . S
C19 N20 1.315 . S
C19 H22 0.930 . S
N20 Co0 2.194 . S
N20 C15 1.328 . S
N20 C19 1.315 . S
H21 C15 0.929 . S
H22 C19 0.930 . S
H23 C11 0.929 . S
H24 C13 0.929 . S
O25 Co0 2.351 . S
O25 C28 1.244 . S
O26 Co0 2.155 . S
O26 C28 1.240 . S
O27 Co0 2.096 . S
O27 C8 1.247 . S
C28 O25 1.244 . S
C28 O26 1.240 . S
H29 C3 0.931 . S
H30 C12 0.931 . S
H31 C16 0.929 . S
H32 C18 0.930 . S
Co33 N37 2.148 . S
Co33 N43 2.128 . S
Co33 N53 2.194 . S
Co33 O58 2.351 . S
Co33 O59 2.155 . S
Co33 O60 2.096 . S
C34 N37 1.301 . S
C34 N38 1.328 . S
C34 H39 0.930 . S
C35 C36 1.333 . S
C35 N37 1.317 . S
C35 H40 0.930 . S
C36 C35 1.333 . S
C36 N38 1.350 . S
C36 H62 0.931 . S
N37 Co33 2.148 . S
N37 C34 1.301 . S
N37 C35 1.317 . S
N38 C34 1.328 . S
N38 C36 1.350 . S
H39 C34 0.930 . S
H40 C35 0.930 . S
C41 O42 1.224 . S
C41 O60 1.247 . S
O42 C41 1.224 . S
N43 Co33 2.128 . S
N43 C44 1.355 . S
N43 C46 1.311 . S
C44 N43 1.355 . S
C44 C45 1.363 . S
C44 H56 0.929 . S
C45 C44 1.363 . S
C45 N47 1.375 . S
C45 H63 0.931 . S
C46 N43 1.311 . S
C46 N47 1.347 . S
C46 H57 0.929 . S
N47 C45 1.375 . S
N47 C46 1.347 . S
C48 C51 1.365 . S
C48 N53 1.328 . S
C48 H54 0.929 . S
C49 C50 1.362 . S
C49 C52 1.378 . S
C49 H64 0.929 . S
C50 C49 1.362 . S
C50 C51 1.366 . S
C51 C48 1.365 . S
C51 C50 1.366 . S
C51 H65 0.930 . S
C52 C49 1.378 . S
C52 N53 1.315 . S
C52 H55 0.930 . S
N53 Co33 2.194 . S
N53 C48 1.328 . S
N53 C52 1.315 . S
H54 C48 0.929 . S
H55 C52 0.930 . S
H56 C44 0.929 . S
H57 C46 0.929 . S
O58 Co33 2.351 . S
O58 C61 1.244 . S
O59 Co33 2.155 . S
O59 C61 1.240 . S
O60 Co33 2.096 . S
O60 C41 1.247 . S
C61 O58 1.244 . S
C61 O59 1.240 . S
H62 C36 0.931 . S
H63 C45 0.931 . S
H64 C49 0.929 . S
H65 C51 0.930 . S
Co66 N70 2.148 . S
Co66 N76 2.128 . S
Co66 N86 2.194 . S
Co66 O91 2.351 . S
Co66 O92 2.155 . S
Co66 O93 2.096 . S
C67 N70 1.301 . S
C67 N71 1.328 . S
C67 H72 0.930 . S
C68 C69 1.333 . S
C68 N70 1.317 . S
C68 H73 0.930 . S
C69 C68 1.333 . S
C69 N71 1.350 . S
C69 H95 0.931 . S
N70 Co66 2.148 . S
N70 C67 1.301 . S
N70 C68 1.317 . S
N71 C67 1.328 . S
N71 C69 1.350 . S
H72 C67 0.930 . S
H73 C68 0.930 . S
C74 O75 1.224 . S
C74 O93 1.247 . S
O75 C74 1.224 . S
N76 Co66 2.128 . S
N76 C77 1.355 . S
N76 C79 1.311 . S
C77 N76 1.355 . S
C77 C78 1.363 . S
C77 H89 0.929 . S
C78 C77 1.363 . S
C78 N80 1.375 . S
C78 H96 0.931 . S
C79 N76 1.311 . S
C79 N80 1.347 . S
C79 H90 0.929 . S
N80 C78 1.375 . S
N80 C79 1.347 . S
C81 C84 1.365 . S
C81 N86 1.328 . S
C81 H87 0.929 . S
C82 C83 1.362 . S
C82 C85 1.378 . S
C82 H97 0.929 . S
C83 C82 1.362 . S
C83 C84 1.366 . S
C84 C81 1.365 . S
C84 C83 1.366 . S
C84 H98 0.930 . S
C85 C82 1.378 . S
C85 N86 1.315 . S
C85 H88 0.930 . S
N86 Co66 2.194 . S
N86 C81 1.328 . S
N86 C85 1.315 . S
H87 C81 0.929 . S
H88 C85 0.930 . S
H89 C77 0.929 . S
H90 C79 0.929 . S
O91 Co66 2.351 . S
O91 C94 1.244 . S
O92 Co66 2.155 . S
O92 C94 1.240 . S
O93 Co66 2.096 . S
O93 C74 1.247 . S
C94 O91 1.244 . S
C94 O92 1.240 . S
H95 C69 0.931 . S
H96 C78 0.931 . S
H97 C82 0.929 . S
H98 C84 0.930 . S
Co99 N103 2.148 . S
Co99 N109 2.128 . S
Co99 N119 2.194 . S
Co99 O124 2.351 . S
Co99 O125 2.155 . S
Co99 O126 2.096 . S
C100 N103 1.301 . S
C100 N104 1.328 . S
C100 H105 0.930 . S
C101 C102 1.333 . S
C101 N103 1.317 . S
C101 H106 0.930 . S
C102 C101 1.333 . S
C102 N104 1.350 . S
C102 H128 0.931 . S
N103 Co99 2.148 . S
N103 C100 1.301 . S
N103 C101 1.317 . S
N104 C100 1.328 . S
N104 C102 1.350 . S
H105 C100 0.930 . S
H106 C101 0.930 . S
C107 O108 1.224 . S
C107 O126 1.247 . S
O108 C107 1.224 . S
N109 Co99 2.128 . S
N109 C110 1.355 . S
N109 C112 1.311 . S
C110 N109 1.355 . S
C110 C111 1.363 . S
C110 H122 0.929 . S
C111 C110 1.363 . S
C111 N113 1.375 . S
C111 H129 0.931 . S
C112 N109 1.311 . S
C112 N113 1.347 . S
C112 H123 0.929 . S
N113 C111 1.375 . S
N113 C112 1.347 . S
C114 C117 1.365 . S
C114 N119 1.328 . S
C114 H120 0.929 . S
C115 C116 1.362 . S
C115 C118 1.378 . S
C115 H130 0.929 . S
C116 C115 1.362 . S
C116 C117 1.366 . S
C117 C114 1.365 . S
C117 C116 1.366 . S
C117 H131 0.930 . S
C118 C115 1.378 . S
C118 N119 1.315 . S
C118 H121 0.930 . S
N119 Co99 2.194 . S
N119 C114 1.328 . S
N119 C118 1.315 . S
H120 C114 0.929 . S
H121 C118 0.930 . S
H122 C110 0.929 . S
H123 C112 0.929 . S
O124 Co99 2.351 . S
O124 C127 1.244 . S
O125 Co99 2.155 . S
O125 C127 1.240 . S
O126 Co99 2.096 . S
O126 C107 1.247 . S
C127 O124 1.244 . S
C127 O125 1.240 . S
H128 C102 0.931 . S
H129 C111 0.931 . S
H130 C115 0.929 . S
H131 C117 0.930 . S
Co132 N136 2.148 . S
Co132 N142 2.128 . S
Co132 N152 2.194 . S
Co132 O157 2.351 . S
Co132 O158 2.155 . S
Co132 O159 2.096 . S
C133 N136 1.301 . S
C133 N137 1.328 . S
C133 H138 0.930 . S
C134 C135 1.333 . S
C134 N136 1.317 . S
C134 H139 0.930 . S
C135 C134 1.333 . S
C135 N137 1.350 . S
C135 H161 0.931 . S
N136 Co132 2.148 . S
N136 C133 1.301 . S
N136 C134 1.317 . S
N137 C133 1.328 . S
N137 C135 1.350 . S
H138 C133 0.930 . S
H139 C134 0.930 . S
C140 O141 1.224 . S
C140 O159 1.247 . S
O141 C140 1.224 . S
N142 Co132 2.128 . S
N142 C143 1.355 . S
N142 C145 1.311 . S
C143 N142 1.355 . S
C143 C144 1.363 . S
C143 H155 0.929 . S
C144 C143 1.363 . S
C144 N146 1.375 . S
C144 H162 0.931 . S
C145 N142 1.311 . S
C145 N146 1.347 . S
C145 H156 0.929 . S
N146 C144 1.375 . S
N146 C145 1.347 . S
C147 C150 1.365 . S
C147 N152 1.328 . S
C147 H153 0.929 . S
C148 C149 1.362 . S
C148 C151 1.378 . S
C148 H163 0.929 . S
C149 C148 1.362 . S
C149 C150 1.366 . S
C150 C147 1.365 . S
C150 C149 1.366 . S
C150 H164 0.930 . S
C151 C148 1.378 . S
C151 N152 1.315 . S
C151 H154 0.930 . S
N152 Co132 2.194 . S
N152 C147 1.328 . S
N152 C151 1.315 . S
H153 C147 0.929 . S
H154 C151 0.930 . S
H155 C143 0.929 . S
H156 C145 0.929 . S
O157 Co132 2.351 . S
O157 C160 1.244 . S
O158 Co132 2.155 . S
O158 C160 1.240 . S
O159 Co132 2.096 . S
O159 C140 1.247 . S
C160 O157 1.244 . S
C160 O158 1.240 . S
H161 C135 0.931 . S
H162 C144 0.931 . S
H163 C148 0.929 . S
H164 C150 0.930 . S
Co165 N169 2.148 . S
Co165 N175 2.128 . S
Co165 N185 2.194 . S
Co165 O190 2.351 . S
Co165 O191 2.155 . S
Co165 O192 2.096 . S
C166 N169 1.301 . S
C166 N170 1.328 . S
C166 H171 0.930 . S
C167 C168 1.333 . S
C167 N169 1.317 . S
C167 H172 0.930 . S
C168 C167 1.333 . S
C168 N170 1.350 . S
C168 H194 0.931 . S
N169 Co165 2.148 . S
N169 C166 1.301 . S
N169 C167 1.317 . S
N170 C166 1.328 . S
N170 C168 1.350 . S
H171 C166 0.930 . S
H172 C167 0.930 . S
C173 O174 1.224 . S
C173 O192 1.247 . S
O174 C173 1.224 . S
N175 Co165 2.128 . S
N175 C176 1.355 . S
N175 C178 1.311 . S
C176 N175 1.355 . S
C176 C177 1.363 . S
C176 H188 0.929 . S
C177 C176 1.363 . S
C177 N179 1.375 . S
C177 H195 0.931 . S
C178 N175 1.311 . S
C178 N179 1.347 . S
C178 H189 0.929 . S
N179 C177 1.375 . S
N179 C178 1.347 . S
C180 C183 1.365 . S
C180 N185 1.328 . S
C180 H186 0.929 . S
C181 C182 1.362 . S
C181 C184 1.378 . S
C181 H196 0.929 . S
C182 C181 1.362 . S
C182 C183 1.366 . S
C183 C180 1.365 . S
C183 C182 1.366 . S
C183 H197 0.930 . S
C184 C181 1.378 . S
C184 N185 1.315 . S
C184 H187 0.930 . S
N185 Co165 2.194 . S
N185 C180 1.328 . S
N185 C184 1.315 . S
H186 C180 0.929 . S
H187 C184 0.930 . S
H188 C176 0.929 . S
H189 C178 0.929 . S
O190 Co165 2.351 . S
O190 C193 1.244 . S
O191 Co165 2.155 . S
O191 C193 1.240 . S
O192 Co165 2.096 . S
O192 C173 1.247 . S
C193 O190 1.244 . S
C193 O191 1.240 . S
H194 C168 0.931 . S
H195 C177 0.931 . S
H196 C181 0.929 . S
H197 C183 0.930 . S
Co198 N202 2.148 . S
Co198 N208 2.128 . S
Co198 N218 2.194 . S
Co198 O223 2.351 . S
Co198 O224 2.155 . S
Co198 O225 2.096 . S
C199 N202 1.301 . S
C199 N203 1.328 . S
C199 H204 0.930 . S
C200 C201 1.333 . S
C200 N202 1.317 . S
C200 H205 0.930 . S
C201 C200 1.333 . S
C201 N203 1.350 . S
C201 H227 0.931 . S
N202 Co198 2.148 . S
N202 C199 1.301 . S
N202 C200 1.317 . S
N203 C199 1.328 . S
N203 C201 1.350 . S
H204 C199 0.930 . S
H205 C200 0.930 . S
C206 O207 1.224 . S
C206 O225 1.247 . S
O207 C206 1.224 . S
N208 Co198 2.128 . S
N208 C209 1.355 . S
N208 C211 1.311 . S
C209 N208 1.355 . S
C209 C210 1.363 . S
C209 H221 0.929 . S
C210 C209 1.363 . S
C210 N212 1.375 . S
C210 H228 0.931 . S
C211 N208 1.311 . S
C211 N212 1.347 . S
C211 H222 0.929 . S
N212 C210 1.375 . S
N212 C211 1.347 . S
C213 C216 1.365 . S
C213 N218 1.328 . S
C213 H219 0.929 . S
C214 C215 1.362 . S
C214 C217 1.378 . S
C214 H229 0.929 . S
C215 C214 1.362 . S
C215 C216 1.366 . S
C216 C213 1.365 . S
C216 C215 1.366 . S
C216 H230 0.930 . S
C217 C214 1.378 . S
C217 N218 1.315 . S
C217 H220 0.930 . S
N218 Co198 2.194 . S
N218 C213 1.328 . S
N218 C217 1.315 . S
H219 C213 0.929 . S
H220 C217 0.930 . S
H221 C209 0.929 . S
H222 C211 0.929 . S
O223 Co198 2.351 . S
O223 C226 1.244 . S
O224 Co198 2.155 . S
O224 C226 1.240 . S
O225 Co198 2.096 . S
O225 C206 1.247 . S
C226 O223 1.244 . S
C226 O224 1.240 . S
H227 C201 0.931 . S
H228 C210 0.931 . S
H229 C214 0.929 . S
H230 C216 0.930 . S
Co231 N235 2.148 . S
Co231 N241 2.128 . S
Co231 N251 2.194 . S
Co231 O256 2.351 . S
Co231 O257 2.155 . S
Co231 O258 2.096 . S
C232 N235 1.301 . S
C232 N236 1.328 . S
C232 H237 0.930 . S
C233 C234 1.333 . S
C233 N235 1.317 . S
C233 H238 0.930 . S
C234 C233 1.333 . S
C234 N236 1.350 . S
C234 H260 0.931 . S
N235 Co231 2.148 . S
N235 C232 1.301 . S
N235 C233 1.317 . S
N236 C232 1.328 . S
N236 C234 1.350 . S
H237 C232 0.930 . S
H238 C233 0.930 . S
C239 O240 1.224 . S
C239 O258 1.247 . S
O240 C239 1.224 . S
N241 Co231 2.128 . S
N241 C242 1.355 . S
N241 C244 1.311 . S
C242 N241 1.355 . S
C242 C243 1.363 . S
C242 H254 0.929 . S
C243 C242 1.363 . S
C243 N245 1.375 . S
C243 H261 0.931 . S
C244 N241 1.311 . S
C244 N245 1.347 . S
C244 H255 0.929 . S
N245 C243 1.375 . S
N245 C244 1.347 . S
C246 C249 1.365 . S
C246 N251 1.328 . S
C246 H252 0.929 . S
C247 C248 1.362 . S
C247 C250 1.378 . S
C247 H262 0.929 . S
C248 C247 1.362 . S
C248 C249 1.366 . S
C249 C246 1.365 . S
C249 C248 1.366 . S
C249 H263 0.930 . S
C250 C247 1.378 . S
C250 N251 1.315 . S
C250 H253 0.930 . S
N251 Co231 2.194 . S
N251 C246 1.328 . S
N251 C250 1.315 . S
H252 C246 0.929 . S
H253 C250 0.930 . S
H254 C242 0.929 . S
H255 C244 0.929 . S
O256 Co231 2.351 . S
O256 C259 1.244 . S
O257 Co231 2.155 . S
O257 C259 1.240 . S
O258 Co231 2.096 . S
O258 C239 1.247 . S
C259 O256 1.244 . S
C259 O257 1.240 . S
H260 C234 0.931 . S
H261 C243 0.931 . S
H262 C247 0.929 . S
H263 C249 0.930 . S
Co264 N268 2.148 . S
Co264 N274 2.128 . S
Co264 N284 2.194 . S
Co264 O289 2.351 . S
Co264 O290 2.155 . S
Co264 O291 2.096 . S
C265 N268 1.301 . S
C265 N269 1.328 . S
C265 H270 0.930 . S
C266 C267 1.333 . S
C266 N268 1.317 . S
C266 H271 0.930 . S
C267 C266 1.333 . S
C267 N269 1.350 . S
C267 H293 0.931 . S
N268 Co264 2.148 . S
N268 C265 1.301 . S
N268 C266 1.317 . S
N269 C265 1.328 . S
N269 C267 1.350 . S
H270 C265 0.930 . S
H271 C266 0.930 . S
C272 O273 1.224 . S
C272 O291 1.247 . S
O273 C272 1.224 . S
N274 Co264 2.128 . S
N274 C275 1.355 . S
N274 C277 1.311 . S
C275 N274 1.355 . S
C275 C276 1.363 . S
C275 H287 0.929 . S
C276 C275 1.363 . S
C276 N278 1.375 . S
C276 H294 0.931 . S
C277 N274 1.311 . S
C277 N278 1.347 . S
C277 H288 0.929 . S
N278 C276 1.375 . S
N278 C277 1.347 . S
C279 C282 1.365 . S
C279 N284 1.328 . S
C279 H285 0.929 . S
C280 C281 1.362 . S
C280 C283 1.378 . S
C280 H295 0.929 . S
C281 C280 1.362 . S
C281 C282 1.366 . S
C282 C279 1.365 . S
C282 C281 1.366 . S
C282 H296 0.930 . S
C283 C280 1.378 . S
C283 N284 1.315 . S
C283 H286 0.930 . S
N284 Co264 2.194 . S
N284 C279 1.328 . S
N284 C283 1.315 . S
H285 C279 0.929 . S
H286 C283 0.930 . S
H287 C275 0.929 . S
H288 C277 0.929 . S
O289 Co264 2.351 . S
O289 C292 1.244 . S
O290 Co264 2.155 . S
O290 C292 1.240 . S
O291 Co264 2.096 . S
O291 C272 1.247 . S
C292 O289 1.244 . S
C292 O290 1.240 . S
H293 C267 0.931 . S
H294 C276 0.931 . S
H295 C280 0.929 . S
H296 C282 0.930 . S
Co297 N301 2.148 . S
Co297 N307 2.128 . S
Co297 N317 2.194 . S
Co297 O322 2.351 . S
Co297 O323 2.155 . S
Co297 O324 2.096 . S
C298 N301 1.301 . S
C298 N302 1.328 . S
C298 H303 0.930 . S
C299 C300 1.333 . S
C299 N301 1.317 . S
C299 H304 0.930 . S
C300 C299 1.333 . S
C300 N302 1.350 . S
C300 H326 0.931 . S
N301 Co297 2.148 . S
N301 C298 1.301 . S
N301 C299 1.317 . S
N302 C298 1.328 . S
N302 C300 1.350 . S
H303 C298 0.930 . S
H304 C299 0.930 . S
C305 O306 1.224 . S
C305 O324 1.247 . S
O306 C305 1.224 . S
N307 Co297 2.128 . S
N307 C308 1.355 . S
N307 C310 1.311 . S
C308 N307 1.355 . S
C308 C309 1.363 . S
C308 H320 0.929 . S
C309 C308 1.363 . S
C309 N311 1.375 . S
C309 H327 0.931 . S
C310 N307 1.311 . S
C310 N311 1.347 . S
C310 H321 0.929 . S
N311 C309 1.375 . S
N311 C310 1.347 . S
C312 C315 1.365 . S
C312 N317 1.328 . S
C312 H318 0.929 . S
C313 C314 1.362 . S
C313 C316 1.378 . S
C313 H328 0.929 . S
C314 C313 1.362 . S
C314 C315 1.366 . S
C315 C312 1.365 . S
C315 C314 1.366 . S
C315 H329 0.930 . S
C316 C313 1.378 . S
C316 N317 1.315 . S
C316 H319 0.930 . S
N317 Co297 2.194 . S
N317 C312 1.328 . S
N317 C316 1.315 . S
H318 C312 0.929 . S
H319 C316 0.930 . S
H320 C308 0.929 . S
H321 C310 0.929 . S
O322 Co297 2.351 . S
O322 C325 1.244 . S
O323 Co297 2.155 . S
O323 C325 1.240 . S
O324 Co297 2.096 . S
O324 C305 1.247 . S
C325 O322 1.244 . S
C325 O323 1.240 . S
H326 C300 0.931 . S
H327 C309 0.931 . S
H328 C313 0.929 . S
H329 C315 0.930 . S
Co330 N334 2.148 . S
Co330 N340 2.128 . S
Co330 N350 2.194 . S
Co330 O355 2.351 . S
Co330 O356 2.155 . S
Co330 O357 2.096 . S
C331 N334 1.301 . S
C331 N335 1.328 . S
C331 H336 0.930 . S
C332 C333 1.333 . S
C332 N334 1.317 . S
C332 H337 0.930 . S
C333 C332 1.333 . S
C333 N335 1.350 . S
C333 H359 0.931 . S
N334 Co330 2.148 . S
N334 C331 1.301 . S
N334 C332 1.317 . S
N335 C331 1.328 . S
N335 C333 1.350 . S
H336 C331 0.930 . S
H337 C332 0.930 . S
C338 O339 1.224 . S
C338 O357 1.247 . S
O339 C338 1.224 . S
N340 Co330 2.128 . S
N340 C341 1.355 . S
N340 C343 1.311 . S
C341 N340 1.355 . S
C341 C342 1.363 . S
C341 H353 0.929 . S
C342 C341 1.363 . S
C342 N344 1.375 . S
C342 H360 0.931 . S
C343 N340 1.311 . S
C343 N344 1.347 . S
C343 H354 0.929 . S
N344 C342 1.375 . S
N344 C343 1.347 . S
C345 C348 1.365 . S
C345 N350 1.328 . S
C345 H351 0.929 . S
C346 C347 1.362 . S
C346 C349 1.378 . S
C346 H361 0.929 . S
C347 C346 1.362 . S
C347 C348 1.366 . S
C348 C345 1.365 . S
C348 C347 1.366 . S
C348 H362 0.930 . S
C349 C346 1.378 . S
C349 N350 1.315 . S
C349 H352 0.930 . S
N350 Co330 2.194 . S
N350 C345 1.328 . S
N350 C349 1.315 . S
H351 C345 0.929 . S
H352 C349 0.930 . S
H353 C341 0.929 . S
H354 C343 0.929 . S
O355 Co330 2.351 . S
O355 C358 1.244 . S
O356 Co330 2.155 . S
O356 C358 1.240 . S
O357 Co330 2.096 . S
O357 C338 1.247 . S
C358 O355 1.244 . S
C358 O356 1.240 . S
H359 C333 0.931 . S
H360 C342 0.931 . S
H361 C346 0.929 . S
H362 C348 0.930 . S
Co363 N367 2.148 . S
Co363 N373 2.128 . S
Co363 N383 2.194 . S
Co363 O388 2.351 . S
Co363 O389 2.155 . S
Co363 O390 2.096 . S
C364 N367 1.301 . S
C364 N368 1.328 . S
C364 H369 0.930 . S
C365 C366 1.333 . S
C365 N367 1.317 . S
C365 H370 0.930 . S
C366 C365 1.333 . S
C366 N368 1.350 . S
C366 H392 0.931 . S
N367 Co363 2.148 . S
N367 C364 1.301 . S
N367 C365 1.317 . S
N368 C364 1.328 . S
N368 C366 1.350 . S
H369 C364 0.930 . S
H370 C365 0.930 . S
C371 O372 1.224 . S
C371 O390 1.247 . S
O372 C371 1.224 . S
N373 Co363 2.128 . S
N373 C374 1.355 . S
N373 C376 1.311 . S
C374 N373 1.355 . S
C374 C375 1.363 . S
C374 H386 0.929 . S
C375 C374 1.363 . S
C375 N377 1.375 . S
C375 H393 0.931 . S
C376 N373 1.311 . S
C376 N377 1.347 . S
C376 H387 0.929 . S
N377 C375 1.375 . S
N377 C376 1.347 . S
C378 C381 1.365 . S
C378 N383 1.328 . S
C378 H384 0.929 . S
C379 C380 1.362 . S
C379 C382 1.378 . S
C379 H394 0.929 . S
C380 C379 1.362 . S
C380 C381 1.366 . S
C381 C378 1.365 . S
C381 C380 1.366 . S
C381 H395 0.930 . S
C382 C379 1.378 . S
C382 N383 1.315 . S
C382 H385 0.930 . S
N383 Co363 2.194 . S
N383 C378 1.328 . S
N383 C382 1.315 . S
H384 C378 0.929 . S
H385 C382 0.930 . S
H386 C374 0.929 . S
H387 C376 0.929 . S
O388 Co363 2.351 . S
O388 C391 1.244 . S
O389 Co363 2.155 . S
O389 C391 1.240 . S
O390 Co363 2.096 . S
O390 C371 1.247 . S
C391 O388 1.244 . S
C391 O389 1.240 . S
H392 C366 0.931 . S
H393 C375 0.931 . S
H394 C379 0.929 . S
H395 C381 0.930 . S
Co396 N400 2.148 . S
Co396 N406 2.128 . S
Co396 N416 2.194 . S
Co396 O421 2.351 . S
Co396 O422 2.155 . S
Co396 O423 2.096 . S
C397 N400 1.301 . S
C397 N401 1.328 . S
C397 H402 0.930 . S
C398 C399 1.333 . S
C398 N400 1.317 . S
C398 H403 0.930 . S
C399 C398 1.333 . S
C399 N401 1.350 . S
C399 H425 0.931 . S
N400 Co396 2.148 . S
N400 C397 1.301 . S
N400 C398 1.317 . S
N401 C397 1.328 . S
N401 C399 1.350 . S
H402 C397 0.930 . S
H403 C398 0.930 . S
C404 O405 1.224 . S
C404 O423 1.247 . S
O405 C404 1.224 . S
N406 Co396 2.128 . S
N406 C407 1.355 . S
N406 C409 1.311 . S
C407 N406 1.355 . S
C407 C408 1.363 . S
C407 H419 0.929 . S
C408 C407 1.363 . S
C408 N410 1.375 . S
C408 H426 0.931 . S
C409 N406 1.311 . S
C409 N410 1.347 . S
C409 H420 0.929 . S
N410 C408 1.375 . S
N410 C409 1.347 . S
C411 C414 1.365 . S
C411 N416 1.328 . S
C411 H417 0.929 . S
C412 C413 1.362 . S
C412 C415 1.378 . S
C412 H427 0.929 . S
C413 C412 1.362 . S
C413 C414 1.366 . S
C414 C411 1.365 . S
C414 C413 1.366 . S
C414 H428 0.930 . S
C415 C412 1.378 . S
C415 N416 1.315 . S
C415 H418 0.930 . S
N416 Co396 2.194 . S
N416 C411 1.328 . S
N416 C415 1.315 . S
H417 C411 0.929 . S
H418 C415 0.930 . S
H419 C407 0.929 . S
H420 C409 0.929 . S
O421 Co396 2.351 . S
O421 C424 1.244 . S
O422 Co396 2.155 . S
O422 C424 1.240 . S
O423 Co396 2.096 . S
O423 C404 1.247 . S
C424 O421 1.244 . S
C424 O422 1.240 . S
H425 C399 0.931 . S
H426 C408 0.931 . S
H427 C412 0.929 . S
H428 C414 0.930 . S
Co429 N433 2.148 . S
Co429 N439 2.128 . S
Co429 N449 2.194 . S
Co429 O454 2.351 . S
Co429 O455 2.155 . S
Co429 O456 2.096 . S
C430 N433 1.301 . S
C430 N434 1.328 . S
C430 H435 0.930 . S
C431 C432 1.333 . S
C431 N433 1.317 . S
C431 H436 0.930 . S
C432 C431 1.333 . S
C432 N434 1.350 . S
C432 H458 0.931 . S
N433 Co429 2.148 . S
N433 C430 1.301 . S
N433 C431 1.317 . S
N434 C430 1.328 . S
N434 C432 1.350 . S
H435 C430 0.930 . S
H436 C431 0.930 . S
C437 O438 1.224 . S
C437 O456 1.247 . S
O438 C437 1.224 . S
N439 Co429 2.128 . S
N439 C440 1.355 . S
N439 C442 1.311 . S
C440 N439 1.355 . S
C440 C441 1.363 . S
C440 H452 0.929 . S
C441 C440 1.363 . S
C441 N443 1.375 . S
C441 H459 0.931 . S
C442 N439 1.311 . S
C442 N443 1.347 . S
C442 H453 0.929 . S
N443 C441 1.375 . S
N443 C442 1.347 . S
C444 C447 1.365 . S
C444 N449 1.328 . S
C444 H450 0.929 . S
C445 C446 1.362 . S
C445 C448 1.378 . S
C445 H460 0.929 . S
C446 C445 1.362 . S
C446 C447 1.366 . S
C447 C444 1.365 . S
C447 C446 1.366 . S
C447 H461 0.930 . S
C448 C445 1.378 . S
C448 N449 1.315 . S
C448 H451 0.930 . S
N449 Co429 2.194 . S
N449 C444 1.328 . S
N449 C448 1.315 . S
H450 C444 0.929 . S
H451 C448 0.930 . S
H452 C440 0.929 . S
H453 C442 0.929 . S
O454 Co429 2.351 . S
O454 C457 1.244 . S
O455 Co429 2.155 . S
O455 C457 1.240 . S
O456 Co429 2.096 . S
O456 C437 1.247 . S
C457 O454 1.244 . S
C457 O455 1.240 . S
H458 C432 0.931 . S
H459 C441 0.931 . S
H460 C445 0.929 . S
H461 C447 0.930 . S
Co462 N466 2.148 . S
Co462 N472 2.128 . S
Co462 N482 2.194 . S
Co462 O487 2.351 . S
Co462 O488 2.155 . S
Co462 O489 2.096 . S
C463 N466 1.301 . S
C463 N467 1.328 . S
C463 H468 0.930 . S
C464 C465 1.333 . S
C464 N466 1.317 . S
C464 H469 0.930 . S
C465 C464 1.333 . S
C465 N467 1.350 . S
C465 H491 0.931 . S
N466 Co462 2.148 . S
N466 C463 1.301 . S
N466 C464 1.317 . S
N467 C463 1.328 . S
N467 C465 1.350 . S
H468 C463 0.930 . S
H469 C464 0.930 . S
C470 O471 1.224 . S
C470 O489 1.247 . S
O471 C470 1.224 . S
N472 Co462 2.128 . S
N472 C473 1.355 . S
N472 C475 1.311 . S
C473 N472 1.355 . S
C473 C474 1.363 . S
C473 H485 0.929 . S
C474 C473 1.363 . S
C474 N476 1.375 . S
C474 H492 0.931 . S
C475 N472 1.311 . S
C475 N476 1.347 . S
C475 H486 0.929 . S
N476 C474 1.375 . S
N476 C475 1.347 . S
C477 C480 1.365 . S
C477 N482 1.328 . S
C477 H483 0.929 . S
C478 C479 1.362 . S
C478 C481 1.378 . S
C478 H493 0.929 . S
C479 C478 1.362 . S
C479 C480 1.366 . S
C480 C477 1.365 . S
C480 C479 1.366 . S
C480 H494 0.930 . S
C481 C478 1.378 . S
C481 N482 1.315 . S
C481 H484 0.930 . S
N482 Co462 2.194 . S
N482 C477 1.328 . S
N482 C481 1.315 . S
H483 C477 0.929 . S
H484 C481 0.930 . S
H485 C473 0.929 . S
H486 C475 0.929 . S
O487 Co462 2.351 . S
O487 C490 1.244 . S
O488 Co462 2.155 . S
O488 C490 1.240 . S
O489 Co462 2.096 . S
O489 C470 1.247 . S
C490 O487 1.244 . S
C490 O488 1.240 . S
H491 C465 0.931 . S
H492 C474 0.931 . S
H493 C478 0.929 . S
H494 C480 0.930 . S
Co495 N499 2.148 . S
Co495 N505 2.128 . S
Co495 N515 2.194 . S
Co495 O520 2.351 . S
Co495 O521 2.155 . S
Co495 O522 2.096 . S
C496 N499 1.301 . S
C496 N500 1.328 . S
C496 H501 0.930 . S
C497 C498 1.333 . S
C497 N499 1.317 . S
C497 H502 0.930 . S
C498 C497 1.333 . S
C498 N500 1.350 . S
C498 H524 0.931 . S
N499 Co495 2.148 . S
N499 C496 1.301 . S
N499 C497 1.317 . S
N500 C496 1.328 . S
N500 C498 1.350 . S
H501 C496 0.930 . S
H502 C497 0.930 . S
C503 O504 1.224 . S
C503 O522 1.247 . S
O504 C503 1.224 . S
N505 Co495 2.128 . S
N505 C506 1.355 . S
N505 C508 1.311 . S
C506 N505 1.355 . S
C506 C507 1.363 . S
C506 H518 0.929 . S
C507 C506 1.363 . S
C507 N509 1.375 . S
C507 H525 0.931 . S
C508 N505 1.311 . S
C508 N509 1.347 . S
C508 H519 0.929 . S
N509 C507 1.375 . S
N509 C508 1.347 . S
C510 C513 1.365 . S
C510 N515 1.328 . S
C510 H516 0.929 . S
C511 C512 1.362 . S
C511 C514 1.378 . S
C511 H526 0.929 . S
C512 C511 1.362 . S
C512 C513 1.366 . S
C513 C510 1.365 . S
C513 C512 1.366 . S
C513 H527 0.930 . S
C514 C511 1.378 . S
C514 N515 1.315 . S
C514 H517 0.930 . S
N515 Co495 2.194 . S
N515 C510 1.328 . S
N515 C514 1.315 . S
H516 C510 0.929 . S
H517 C514 0.930 . S
H518 C506 0.929 . S
H519 C508 0.929 . S
O520 Co495 2.351 . S
O520 C523 1.244 . S
O521 Co495 2.155 . S
O521 C523 1.240 . S
O522 Co495 2.096 . S
O522 C503 1.247 . S
C523 O520 1.244 . S
C523 O521 1.240 . S
H524 C498 0.931 . S
H525 C507 0.931 . S
H526 C511 0.929 . S
H527 C513 0.930 . S
C528 C529 1.387 . S
C528 H532 0.950 . S
C528 C537 1.390 . S
C529 C528 1.387 . S
C529 C531 1.387 . S
H530 C537 0.950 . S
C531 C529 1.387 . S
C531 C533 1.390 . S
C531 H535 0.950 . S
H532 C528 0.950 . S
C533 C531 1.390 . S
C533 C534 1.387 . S
C533 H536 0.950 . S
C534 C533 1.387 . S
C534 C537 1.387 . S
H535 C531 0.950 . S
H536 C533 0.950 . S
C537 C528 1.390 . S
C537 H530 0.950 . S
C537 C534 1.387 . S
C538 C539 1.387 . S
C538 H542 0.950 . S
C538 C547 1.390 . S
C539 C538 1.387 . S
C539 C541 1.387 . S
H540 C547 0.950 . S
C541 C539 1.387 . S
C541 C543 1.390 . S
C541 H545 0.950 . S
H542 C538 0.950 . S
C543 C541 1.390 . S
C543 C544 1.387 . S
C543 H546 0.950 . S
C544 C543 1.387 . S
C544 C547 1.387 . S
H545 C541 0.950 . S
H546 C543 0.950 . S
C547 C538 1.390 . S
C547 H540 0.950 . S
C547 C544 1.387 . S
C548 C549 1.387 . S
C548 H552 0.950 . S
C548 C557 1.390 . S
C549 C548 1.387 . S
C549 C551 1.387 . S
H550 C557 0.950 . S
C551 C549 1.387 . S
C551 C553 1.390 . S
C551 H555 0.950 . S
H552 C548 0.950 . S
C553 C551 1.390 . S
C553 C554 1.387 . S
C553 H556 0.950 . S
C554 C553 1.387 . S
C554 C557 1.387 . S
H555 C551 0.950 . S
H556 C553 0.950 . S
C557 C548 1.390 . S
C557 H550 0.950 . S
C557 C554 1.387 . S
C558 C559 1.387 . S
C558 H562 0.950 . S
C558 C567 1.390 . S
C559 C558 1.387 . S
C559 C561 1.387 . S
H560 C567 0.950 . S
C561 C559 1.387 . S
C561 C563 1.390 . S
C561 H565 0.950 . S
H562 C558 0.950 . S
C563 C561 1.390 . S
C563 C564 1.387 . S
C563 H566 0.950 . S
C564 C563 1.387 . S
C564 C567 1.387 . S
H565 C561 0.950 . S
H566 C563 0.950 . S
C567 C558 1.390 . S
C567 H560 0.950 . S
C567 C564 1.387 . S
C568 C569 1.387 . S
C568 H572 0.950 . S
C568 C577 1.390 . S
C569 C568 1.387 . S
C569 C571 1.387 . S
H570 C577 0.950 . S
C571 C569 1.387 . S
C571 C573 1.390 . S
C571 H575 0.950 . S
H572 C568 0.950 . S
C573 C571 1.390 . S
C573 C574 1.387 . S
C573 H576 0.950 . S
C574 C573 1.387 . S
C574 C577 1.387 . S
H575 C571 0.950 . S
H576 C573 0.950 . S
C577 C568 1.390 . S
C577 H570 0.950 . S
C577 C574 1.387 . S
C578 C579 1.387 . S
C578 H582 0.950 . S
C578 C587 1.390 . S
C579 C578 1.387 . S
C579 C581 1.387 . S
H580 C587 0.950 . S
C581 C579 1.387 . S
C581 C583 1.390 . S
C581 H585 0.950 . S
H582 C578 0.950 . S
C583 C581 1.390 . S
C583 C584 1.387 . S
C583 H586 0.950 . S
C584 C583 1.387 . S
C584 C587 1.387 . S
H585 C581 0.950 . S
H586 C583 0.950 . S
C587 C578 1.390 . S
C587 H580 0.950 . S
C587 C584 1.387 . S
C588 C589 1.387 . S
C588 H592 0.950 . S
C588 C597 1.390 . S
C589 C588 1.387 . S
C589 C591 1.387 . S
H590 C597 0.950 . S
C591 C589 1.387 . S
C591 C593 1.390 . S
C591 H595 0.950 . S
H592 C588 0.950 . S
C593 C591 1.390 . S
C593 C594 1.387 . S
C593 H596 0.950 . S
C594 C593 1.387 . S
C594 C597 1.387 . S
H595 C591 0.950 . S
H596 C593 0.950 . S
C597 C588 1.390 . S
C597 H590 0.950 . S
C597 C594 1.387 . S
C598 C599 1.387 . S
C598 H602 0.950 . S
C598 C607 1.390 . S
C599 C598 1.387 . S
C599 C601 1.387 . S
H600 C607 0.950 . S
C601 C599 1.387 . S
C601 C603 1.390 . S
C601 H605 0.950 . S
H602 C598 0.950 . S
C603 C601 1.390 . S
C603 C604 1.387 . S
C603 H606 0.950 . S
C604 C603 1.387 . S
C604 C607 1.387 . S
H605 C601 0.950 . S
H606 C603 0.950 . S
C607 C598 1.390 . S
C607 H600 0.950 . S
C607 C604 1.387 . S
C608 C609 1.387 . S
C608 H612 0.950 . S
C608 C617 1.390 . S
C609 C608 1.387 . S
C609 C611 1.387 . S
H610 C617 0.950 . S
C611 C609 1.387 . S
C611 C613 1.390 . S
C611 H615 0.950 . S
H612 C608 0.950 . S
C613 C611 1.390 . S
C613 C614 1.387 . S
C613 H616 0.950 . S
C614 C613 1.387 . S
C614 C617 1.387 . S
H615 C611 0.950 . S
H616 C613 0.950 . S
C617 C608 1.390 . S
C617 H610 0.950 . S
C617 C614 1.387 . S
C618 C619 1.387 . S
C618 H622 0.950 . S
C618 C627 1.390 . S
C619 C618 1.387 . S
C619 C621 1.387 . S
H620 C627 0.950 . S
C621 C619 1.387 . S
C621 C623 1.390 . S
C621 H625 0.950 . S
H622 C618 0.950 . S
C623 C621 1.390 . S
C623 C624 1.387 . S
C623 H626 0.950 . S
C624 C623 1.387 . S
C624 C627 1.387 . S
H625 C621 0.950 . S
H626 C623 0.950 . S
C627 C618 1.390 . S
C627 H620 0.950 . S
C627 C624 1.387 . S
C628 C629 1.387 . S
C628 H632 0.950 . S
C628 C637 1.390 . S
C629 C628 1.387 . S
C629 C631 1.387 . S
H630 C637 0.950 . S
C631 C629 1.387 . S
C631 C633 1.390 . S
C631 H635 0.950 . S
H632 C628 0.950 . S
C633 C631 1.390 . S
C633 C634 1.387 . S
C633 H636 0.950 . S
C634 C633 1.387 . S
C634 C637 1.387 . S
H635 C631 0.950 . S
H636 C633 0.950 . S
C637 C628 1.390 . S
C637 H630 0.950 . S
C637 C634 1.387 . S
C638 C639 1.387 . S
C638 H642 0.950 . S
C638 C647 1.390 . S
C639 C638 1.387 . S
C639 C641 1.387 . S
H640 C647 0.950 . S
C641 C639 1.387 . S
C641 C643 1.390 . S
C641 H645 0.950 . S
H642 C638 0.950 . S
C643 C641 1.390 . S
C643 C644 1.387 . S
C643 H646 0.950 . S
C644 C643 1.387 . S
C644 C647 1.387 . S
H645 C641 0.950 . S
H646 C643 0.950 . S
C647 C638 1.390 . S
C647 H640 0.950 . S
C647 C644 1.387 . S
C648 C649 1.387 . S
C648 H652 0.950 . S
C648 C657 1.390 . S
C649 C648 1.387 . S
C649 C651 1.387 . S
H650 C657 0.950 . S
C651 C649 1.387 . S
C651 C653 1.390 . S
C651 H655 0.950 . S
H652 C648 0.950 . S
C653 C651 1.390 . S
C653 C654 1.387 . S
C653 H656 0.950 . S
C654 C653 1.387 . S
C654 C657 1.387 . S
H655 C651 0.950 . S
H656 C653 0.950 . S
C657 C648 1.390 . S
C657 H650 0.950 . S
C657 C654 1.387 . S
C658 C659 1.387 . S
C658 H662 0.950 . S
C658 C667 1.390 . S
C659 C658 1.387 . S
C659 C661 1.387 . S
H660 C667 0.950 . S
C661 C659 1.387 . S
C661 C663 1.390 . S
C661 H665 0.950 . S
H662 C658 0.950 . S
C663 C661 1.390 . S
C663 C664 1.387 . S
C663 H666 0.950 . S
C664 C663 1.387 . S
C664 C667 1.387 . S
H665 C661 0.950 . S
H666 C663 0.950 . S
C667 C658 1.390 . S
C667 H660 0.950 . S
C667 C664 1.387 . S
C668 C669 1.387 . S
C668 H672 0.950 . S
C668 C677 1.390 . S
C669 C668 1.387 . S
C669 C671 1.387 . S
H670 C677 0.950 . S
C671 C669 1.387 . S
C671 C673 1.390 . S
C671 H675 0.950 . S
H672 C668 0.950 . S
C673 C671 1.390 . S
C673 C674 1.387 . S
C673 H676 0.950 . S
C674 C673 1.387 . S
C674 C677 1.387 . S
H675 C671 0.950 . S
H676 C673 0.950 . S
C677 C668 1.390 . S
C677 H670 0.950 . S
C677 C674 1.387 . S
C678 C679 1.387 . S
C678 H682 0.950 . S
C678 C687 1.390 . S
C679 C678 1.387 . S
C679 C681 1.387 . S
H680 C687 0.950 . S
C681 C679 1.387 . S
C681 C683 1.390 . S
C681 H685 0.950 . S
H682 C678 0.950 . S
C683 C681 1.390 . S
C683 C684 1.387 . S
C683 H686 0.950 . S
C684 C683 1.387 . S
C684 C687 1.387 . S
H685 C681 0.950 . S
H686 C683 0.950 . S
C687 C678 1.390 . S
C687 H680 0.950 . S
C687 C684 1.387 . S
C688 C689 1.387 . S
C688 H692 0.950 . S
C688 C697 1.390 1_554 S
C689 C688 1.387 . S
C689 C691 1.387 . S
H690 C697 0.950 . S
C691 C689 1.387 . S
C691 C693 1.390 1_554 S
C691 H695 0.950 . S
H692 C688 0.950 . S
C693 C691 1.390 1_556 S
C693 C694 1.387 . S
C693 H696 0.950 . S
C694 C693 1.387 . S
C694 C697 1.387 . S
H695 C691 0.950 . S
H696 C693 0.950 . S
C697 C688 1.390 1_556 S
C697 H690 0.950 . S
C697 C694 1.387 . S
C698 C699 1.387 . S
C698 H702 0.950 . S
C698 C707 1.390 1_556 S
C699 C698 1.387 . S
C699 C701 1.387 . S
H700 C707 0.950 . S
C701 C699 1.387 . S
C701 C703 1.390 1_556 S
C701 H705 0.950 . S
H702 C698 0.950 . S
C703 C701 1.390 1_554 S
C703 C704 1.387 . S
C703 H706 0.950 . S
C704 C703 1.387 . S
C704 C707 1.387 . S
H705 C701 0.950 . S
H706 C703 0.950 . S
C707 C698 1.390 1_554 S
C707 H700 0.950 . S
C707 C704 1.387 . S
C708 C709 1.387 . S
C708 H712 0.950 . S
C708 C717 1.390 . S
C709 C708 1.387 . S
C709 C711 1.387 . S
H710 C717 0.950 . S
C711 C709 1.387 . S
C711 C713 1.390 . S
C711 H715 0.950 . S
H712 C708 0.950 . S
C713 C711 1.390 . S
C713 C714 1.387 . S
C713 H716 0.950 . S
C714 C713 1.387 . S
C714 C717 1.387 . S
H715 C711 0.950 . S
H716 C713 0.950 . S
C717 C708 1.390 . S
C717 H710 0.950 . S
C717 C714 1.387 . S
C718 C719 1.387 . S
C718 H722 0.950 . S
C718 C727 1.390 . S
C719 C718 1.387 . S
C719 C721 1.387 . S
H720 C727 0.950 . S
C721 C719 1.387 . S
C721 C723 1.390 . S
C721 H725 0.950 . S
H722 C718 0.950 . S
C723 C721 1.390 . S
C723 C724 1.387 . S
C723 H726 0.950 . S
C724 C723 1.387 . S
C724 C727 1.387 . S
H725 C721 0.950 . S
H726 C723 0.950 . S
C727 C718 1.390 . S
C727 H720 0.950 . S
C727 C724 1.387 . S
C728 C729 1.387 . S
C728 H732 0.950 . S
C728 C737 1.390 1_556 S
C729 C728 1.387 . S
C729 C731 1.387 . S
H730 C737 0.950 . S
C731 C729 1.387 . S
C731 C733 1.390 1_556 S
C731 H735 0.950 . S
H732 C728 0.950 . S
C733 C731 1.390 1_554 S
C733 C734 1.387 . S
C733 H736 0.950 . S
C734 C733 1.387 . S
C734 C737 1.387 . S
H735 C731 0.950 . S
H736 C733 0.950 . S
C737 C728 1.390 1_554 S
C737 H730 0.950 . S
C737 C734 1.387 . S
C738 C739 1.387 . S
C738 H742 0.950 . S
C738 C747 1.390 1_554 S
C739 C738 1.387 . S
C739 C741 1.387 . S
H740 C747 0.950 . S
C741 C739 1.387 . S
C741 C743 1.390 1_554 S
C741 H745 0.950 . S
H742 C738 0.950 . S
C743 C741 1.390 1_556 S
C743 C744 1.387 . S
C743 H746 0.950 . S
C744 C743 1.387 . S
C744 C747 1.387 . S
H745 C741 0.950 . S
H746 C743 0.950 . S
C747 C738 1.390 1_556 S
C747 H740 0.950 . S
C747 C744 1.387 . S
C748 C749 1.387 . S
C748 H752 0.950 . S
C748 C757 1.390 . S
C749 C748 1.387 . S
C749 C751 1.387 . S
H750 C757 0.950 . S
C751 C749 1.387 . S
C751 C753 1.390 . S
C751 H755 0.950 . S
H752 C748 0.950 . S
C753 C751 1.390 . S
C753 C754 1.387 . S
C753 H756 0.950 . S
C754 C753 1.387 . S
C754 C757 1.387 . S
H755 C751 0.950 . S
H756 C753 0.950 . S
C757 C748 1.390 . S
C757 H750 0.950 . S
C757 C754 1.387 . S
C758 C759 1.387 . S
C758 H762 0.950 . S
C758 C767 1.390 . S
C759 C758 1.387 . S
C759 C761 1.387 . S
H760 C767 0.950 . S
C761 C759 1.387 . S
C761 C763 1.390 . S
C761 H765 0.950 . S
H762 C758 0.950 . S
C763 C761 1.390 . S
C763 C764 1.387 . S
C763 H766 0.950 . S
C764 C763 1.387 . S
C764 C767 1.387 . S
H765 C761 0.950 . S
H766 C763 0.950 . S
C767 C758 1.390 . S
C767 H760 0.950 . S
C767 C764 1.387 . S
C768 C769 1.387 . S
C768 H772 0.950 . S
C768 C777 1.390 1_545 S
C769 C768 1.387 . S
C769 C771 1.387 . S
H770 C777 0.950 . S
C771 C769 1.387 . S
C771 C773 1.390 1_545 S
C771 H775 0.950 . S
H772 C768 0.950 . S
C773 C771 1.390 1_565 S
C773 C774 1.387 . S
C773 H776 0.950 . S
C774 C773 1.387 . S
C774 C777 1.387 . S
H775 C771 0.950 . S
H776 C773 0.950 . S
C777 C768 1.390 1_565 S
C777 H770 0.950 . S
C777 C774 1.387 . S
C778 C779 1.387 . S
C778 H782 0.950 . S
C778 C787 1.390 . S
C779 C778 1.387 . S
C779 C781 1.387 . S
H780 C787 0.950 . S
C781 C779 1.387 . S
C781 C783 1.390 . S
C781 H785 0.950 . S
H782 C778 0.950 . S
C783 C781 1.390 . S
C783 C784 1.387 . S
C783 H786 0.950 . S
C784 C783 1.387 . S
C784 C787 1.387 . S
H785 C781 0.950 . S
H786 C783 0.950 . S
C787 C778 1.390 . S
C787 H780 0.950 . S
C787 C784 1.387 . S
C788 C789 1.387 . S
C788 H792 0.950 . S
C788 C797 1.390 1_565 S
C789 C788 1.387 . S
C789 C791 1.387 . S
H790 C797 0.950 . S
C791 C789 1.387 . S
C791 C793 1.390 1_565 S
C791 H795 0.950 . S
H792 C788 0.950 . S
C793 C791 1.390 1_545 S
C793 C794 1.387 . S
C793 H796 0.950 . S
C794 C793 1.387 . S
C794 C797 1.387 . S
H795 C791 0.950 . S
H796 C793 0.950 . S
C797 C788 1.390 1_545 S
C797 H790 0.950 . S
C797 C794 1.387 . S
C798 C799 1.387 . S
C798 H802 0.950 . S
C798 C807 1.390 . S
C799 C798 1.387 . S
C799 C801 1.387 . S
H800 C807 0.950 . S
C801 C799 1.387 . S
C801 C803 1.390 . S
C801 H805 0.950 . S
H802 C798 0.950 . S
C803 C801 1.390 . S
C803 C804 1.387 . S
C803 H806 0.950 . S
C804 C803 1.387 . S
C804 C807 1.387 . S
H805 C801 0.950 . S
H806 C803 0.950 . S
C807 C798 1.390 . S
C807 H800 0.950 . S
C807 C804 1.387 . S
C808 C809 1.387 . S
C808 H812 0.950 . S
C808 C817 1.390 . S
C809 C808 1.387 . S
C809 C811 1.387 . S
H810 C817 0.950 . S
C811 C809 1.387 . S
C811 C813 1.390 . S
C811 H815 0.950 . S
H812 C808 0.950 . S
C813 C811 1.390 . S
C813 C814 1.387 . S
C813 H816 0.950 . S
C814 C813 1.387 . S
C814 C817 1.387 . S
H815 C811 0.950 . S
H816 C813 0.950 . S
C817 C808 1.390 . S
C817 H810 0.950 . S
C817 C814 1.387 . S
C818 C819 1.387 . S
C818 H822 0.950 . S
C818 C827 1.390 1_545 S
C819 C818 1.387 . S
C819 C821 1.387 . S
H820 C827 0.950 . S
C821 C819 1.387 . S
C821 C823 1.390 1_545 S
C821 H825 0.950 . S
H822 C818 0.950 . S
C823 C821 1.390 1_565 S
C823 C824 1.387 . S
C823 H826 0.950 . S
C824 C823 1.387 . S
C824 C827 1.387 . S
H825 C821 0.950 . S
H826 C823 0.950 . S
C827 C818 1.390 1_565 S
C827 H820 0.950 . S
C827 C824 1.387 . S
C828 C829 1.387 . S
C828 H832 0.950 . S
C828 C837 1.390 . S
C829 C828 1.387 . S
C829 C831 1.387 . S
H830 C837 0.950 . S
C831 C829 1.387 . S
C831 C833 1.390 . S
C831 H835 0.950 . S
H832 C828 0.950 . S
C833 C831 1.390 . S
C833 C834 1.387 . S
C833 H836 0.950 . S
C834 C833 1.387 . S
C834 C837 1.387 . S
H835 C831 0.950 . S
H836 C833 0.950 . S
C837 C828 1.390 . S
C837 H830 0.950 . S
C837 C834 1.387 . S
C838 C839 1.387 . S
C838 H842 0.950 . S
C838 C847 1.390 1_545 S
C839 C838 1.387 . S
C839 C841 1.387 . S
H840 C847 0.950 . S
C841 C839 1.387 . S
C841 C843 1.390 1_545 S
C841 H845 0.950 . S
H842 C838 0.950 . S
C843 C841 1.390 1_565 S
C843 C844 1.387 . S
C843 H846 0.950 . S
C844 C843 1.387 . S
C844 C847 1.387 . S
H845 C841 0.950 . S
H846 C843 0.950 . S
C847 C838 1.390 1_565 S
C847 H840 0.950 . S
C847 C844 1.387 . S
C848 C849 1.387 . S
C848 H852 0.950 . S
C848 C857 1.390 . S
C849 C848 1.387 . S
C849 C851 1.387 . S
H850 C857 0.950 . S
C851 C849 1.387 . S
C851 C853 1.390 . S
C851 H855 0.950 . S
H852 C848 0.950 . S
C853 C851 1.390 . S
C853 C854 1.387 . S
C853 H856 0.950 . S
C854 C853 1.387 . S
C854 C857 1.387 . S
H855 C851 0.950 . S
H856 C853 0.950 . S
C857 C848 1.390 . S
C857 H850 0.950 . S
C857 C854 1.387 . S
C858 C859 1.387 . S
C858 H862 0.950 . S
C858 C867 1.390 . S
C859 C858 1.387 . S
C859 C861 1.387 . S
H860 C867 0.950 . S
C861 C859 1.387 . S
C861 C863 1.390 . S
C861 H865 0.950 . S
H862 C858 0.950 . S
C863 C861 1.390 . S
C863 C864 1.387 . S
C863 H866 0.950 . S
C864 C863 1.387 . S
C864 C867 1.387 . S
H865 C861 0.950 . S
H866 C863 0.950 . S
C867 C858 1.390 . S
C867 H860 0.950 . S
C867 C864 1.387 . S
C868 C869 1.387 . S
C868 H872 0.950 . S
C868 C877 1.390 . S
C869 C868 1.387 . S
C869 C871 1.387 . S
H870 C877 0.950 . S
C871 C869 1.387 . S
C871 C873 1.390 . S
C871 H875 0.950 . S
H872 C868 0.950 . S
C873 C871 1.390 . S
C873 C874 1.387 . S
C873 H876 0.950 . S
C874 C873 1.387 . S
C874 C877 1.387 . S
H875 C871 0.950 . S
H876 C873 0.950 . S
C877 C868 1.390 . S
C877 H870 0.950 . S
C877 C874 1.387 . S
C878 C879 1.387 . S
C878 H882 0.950 . S
C878 C887 1.390 . S
C879 C878 1.387 . S
C879 C881 1.387 . S
H880 C887 0.950 . S
C881 C879 1.387 . S
C881 C883 1.390 . S
C881 H885 0.950 . S
H882 C878 0.950 . S
C883 C881 1.390 . S
C883 C884 1.387 . S
C883 H886 0.950 . S
C884 C883 1.387 . S
C884 C887 1.387 . S
H885 C881 0.950 . S
H886 C883 0.950 . S
C887 C878 1.390 . S
C887 H880 0.950 . S
C887 C884 1.387 . S
C888 C889 1.387 . S
C888 H892 0.950 . S
C888 C897 1.390 1_655 S
C889 C888 1.387 . S
C889 C891 1.387 . S
H890 C897 0.950 . S
C891 C889 1.387 . S
C891 C893 1.390 1_655 S
C891 H895 0.950 . S
H892 C888 0.950 . S
C893 C891 1.390 1_455 S
C893 C894 1.387 . S
C893 H896 0.950 . S
C894 C893 1.387 . S
C894 C897 1.387 . S
H895 C891 0.950 . S
H896 C893 0.950 . S
C897 C888 1.390 1_455 S
C897 H890 0.950 . S
C897 C894 1.387 . S
C898 C899 1.387 . S
C898 H902 0.950 . S
C898 C907 1.390 1_455 S
C899 C898 1.387 . S
C899 C901 1.387 . S
H900 C907 0.950 . S
C901 C899 1.387 . S
C901 C903 1.390 1_455 S
C901 H905 0.950 . S
H902 C898 0.950 . S
C903 C901 1.390 1_655 S
C903 C904 1.387 . S
C903 H906 0.950 . S
C904 C903 1.387 . S
C904 C907 1.387 . S
H905 C901 0.950 . S
H906 C903 0.950 . S
C907 C898 1.390 1_655 S
C907 H900 0.950 . S
C907 C904 1.387 . S
C908 C909 1.387 . S
C908 H912 0.950 . S
C908 C917 1.390 1_455 S
C909 C908 1.387 . S
C909 C911 1.387 . S
H910 C917 0.950 . S
C911 C909 1.387 . S
C911 C913 1.390 1_455 S
C911 H915 0.950 . S
H912 C908 0.950 . S
C913 C911 1.390 1_655 S
C913 C914 1.387 . S
C913 H916 0.950 . S
C914 C913 1.387 . S
C914 C917 1.387 . S
H915 C911 0.950 . S
H916 C913 0.950 . S
C917 C908 1.390 1_655 S
C917 H910 0.950 . S
C917 C914 1.387 . S
C918 C919 1.387 . S
C918 H922 0.950 . S
C918 C927 1.390 1_655 S
C919 C918 1.387 . S
C919 C921 1.387 . S
H920 C927 0.950 . S
C921 C919 1.387 . S
C921 C923 1.390 1_655 S
C921 H925 0.950 . S
H922 C918 0.950 . S
C923 C921 1.390 1_455 S
C923 C924 1.387 . S
C923 H926 0.950 . S
C924 C923 1.387 . S
C924 C927 1.387 . S
H925 C921 0.950 . S
H926 C923 0.950 . S
C927 C918 1.390 1_455 S
C927 H920 0.950 . S
C927 C924 1.387 . S
C529 C28 0.958 1_565 S
C534 C470 0.952 . S
C539 C61 0.958 . S
C544 C503 0.955 . S
C549 C94 0.958 1_545 S
C554 C404 0.955 . S
C559 C437 0.952 . S
C564 C127 0.958 . S
C569 C160 0.958 1_545 S
C574 C338 0.955 . S
C579 C193 0.958 . S
C584 C371 0.952 . S
C589 C226 0.958 1_565 S
C594 C272 0.955 . S
C599 C305 0.955 . S
C604 C259 0.958 . S
C609 C292 0.958 . S
C614 C206 0.952 . S
C619 C239 0.952 . S
C624 C325 0.958 1_545 S
C629 C358 0.958 . S
C634 C140 0.952 . S
C639 C391 0.958 1_565 S
C644 C173 0.955 . S
C649 C424 0.958 . S
C654 C74 0.952 . S
C659 C457 0.958 1_565 S
C664 C107 0.955 . S
C669 C8 0.952 . S
C674 C490 0.958 . S
C679 C41 0.952 . S
C684 C523 0.958 1_545 S
C689 N14 1.791 . S
C694 N377 1.791 . S
C699 N344 1.790 . S
C704 N47 1.790 . S
C709 N80 1.790 . S
C714 N311 1.790 . S
C719 N278 1.791 . S
C724 N113 1.791 . S
C729 N146 1.790 . S
C734 N509 1.790 . S
C739 N476 1.790 . S
C744 N179 1.790 . S
C749 N212 1.791 . S
C754 N443 1.791 . S
C759 N245 1.790 . S
C764 N410 1.790 . S
C769 N5 1.881 . S
C774 N71 1.881 . S
C779 N38 1.882 . S
C784 N104 1.882 . S
C789 N137 1.881 . S
C794 N203 1.881 . S
C799 N236 1.881 . S
C804 N170 1.881 . S
C809 N335 1.881 . S
C814 N269 1.881 . S
C819 N368 1.881 . S
C824 N302 1.881 . S
C829 N401 1.882 . S
C834 N467 1.882 . S
C839 N434 1.881 . S
C844 N500 1.881 . S
C849 C50 1.588 . S
C854 C17 1.588 . S
C859 C83 1.585 . S
C864 C116 1.585 . S
C869 C149 1.588 . S
C874 C182 1.588 . S
C879 C248 1.585 . S
C884 C215 1.585 . S
C889 C281 1.585 . S
C894 C314 1.585 . S
C899 C380 1.585 . S
C904 C347 1.585 . S
C909 C413 1.588 . S
C914 C446 1.588 . S
C919 C512 1.588 . S
C924 C479 1.588 . S
