# Generated by pormake.
# Topology yft, (5)-cn, num edge types: 1
# Building blocks:
#     Node 0, Type 0, BuildingBlock: XOMCOT_clean_sbu_0, # of connection points: 5
#     Node 1, Type 0, BuildingBlock: XOMCOT_clean_sbu_0, # of connection points: 5
#     Node 2, Type 0, BuildingBlock: XOMCOT_clean_sbu_0, # of connection points: 5
#     Node 3, Type 0, BuildingBlock: XOMCOT_clean_sbu_0, # of connection points: 5
#     Node 4, Type 0, BuildingBlock: XOMCOT_clean_sbu_0, # of connection points: 5
#     Node 5, Type 0, BuildingBlock: XOMCOT_clean_sbu_0, # of connection points: 5
#     Node 6, Type 0, BuildingBlock: XOMCOT_clean_sbu_0, # of connection points: 5
#     Node 7, Type 0, BuildingBlock: XOMCOT_clean_sbu_0, # of connection points: 5
#     Node 8, Type 0, BuildingBlock: XOMCOT_clean_sbu_0, # of connection points: 5
#     Node 9, Type 0, BuildingBlock: XOMCOT_clean_sbu_0, # of connection points: 5
#     Node 10, Type 0, BuildingBlock: XOMCOT_clean_sbu_0, # of connection points: 5
#     Node 11, Type 0, BuildingBlock: XOMCOT_clean_sbu_0, # of connection points: 5
#     Node 12, Type 0, BuildingBlock: XOMCOT_clean_sbu_0, # of connection points: 5
#     Node 13, Type 0, BuildingBlock: XOMCOT_clean_sbu_0, # of connection points: 5
#     Node 14, Type 0, BuildingBlock: XOMCOT_clean_sbu_0, # of connection points: 5
#     Node 15, Type 0, BuildingBlock: XOMCOT_clean_sbu_0, # of connection points: 5
#     Node 16, Type 0, BuildingBlock: XOMCOT_clean_sbu_0, # of connection points: 5
#     Node 17, Type 0, BuildingBlock: XOMCOT_clean_sbu_0, # of connection points: 5
#     Node 18, Type 0, BuildingBlock: XOMCOT_clean_sbu_0, # of connection points: 5
#     Node 19, Type 0, BuildingBlock: XOMCOT_clean_sbu_0, # of connection points: 5
#     Node 20, Type 0, BuildingBlock: XOMCOT_clean_sbu_0, # of connection points: 5
#     Node 21, Type 0, BuildingBlock: XOMCOT_clean_sbu_0, # of connection points: 5
#     Node 22, Type 0, BuildingBlock: XOMCOT_clean_sbu_0, # of connection points: 5
#     Node 23, Type 0, BuildingBlock: XOMCOT_clean_sbu_0, # of connection points: 5
#     Node 24, Type 0, BuildingBlock: XOMCOT_clean_sbu_0, # of connection points: 5
#     Node 25, Type 0, BuildingBlock: XOMCOT_clean_sbu_0, # of connection points: 5
#     Node 26, Type 0, BuildingBlock: XOMCOT_clean_sbu_0, # of connection points: 5
#     Node 27, Type 0, BuildingBlock: XOMCOT_clean_sbu_0, # of connection points: 5
#     Node 28, Type 0, BuildingBlock: XOMCOT_clean_sbu_0, # of connection points: 5
#     Node 29, Type 0, BuildingBlock: XOMCOT_clean_sbu_0, # of connection points: 5
#     Node 30, Type 0, BuildingBlock: XOMCOT_clean_sbu_0, # of connection points: 5
#     Node 31, Type 0, BuildingBlock: XOMCOT_clean_sbu_0, # of connection points: 5
#     Edge 32, Type (0, 0), BuildingBlock: OJICUG_clean_linker_0, # of connection points: 2
#     Edge 33, Type (0, 0), BuildingBlock: OJICUG_clean_linker_0, # of connection points: 2
#     Edge 34, Type (0, 0), BuildingBlock: OJICUG_clean_linker_0, # of connection points: 2
#     Edge 35, Type (0, 0), BuildingBlock: OJICUG_clean_linker_0, # of connection points: 2
#     Edge 36, Type (0, 0), BuildingBlock: OJICUG_clean_linker_0, # of connection points: 2
#     Edge 37, Type (0, 0), BuildingBlock: OJICUG_clean_linker_0, # of connection points: 2
#     Edge 38, Type (0, 0), BuildingBlock: OJICUG_clean_linker_0, # of connection points: 2
#     Edge 39, Type (0, 0), BuildingBlock: OJICUG_clean_linker_0, # of connection points: 2
#     Edge 40, Type (0, 0), BuildingBlock: OJICUG_clean_linker_0, # of connection points: 2
#     Edge 41, Type (0, 0), BuildingBlock: OJICUG_clean_linker_0, # of connection points: 2
#     Edge 42, Type (0, 0), BuildingBlock: OJICUG_clean_linker_0, # of connection points: 2
#     Edge 43, Type (0, 0), BuildingBlock: OJICUG_clean_linker_0, # of connection points: 2
#     Edge 44, Type (0, 0), BuildingBlock: OJICUG_clean_linker_0, # of connection points: 2
#     Edge 45, Type (0, 0), BuildingBlock: OJICUG_clean_linker_0, # of connection points: 2
#     Edge 46, Type (0, 0), BuildingBlock: OJICUG_clean_linker_0, # of connection points: 2
#     Edge 47, Type (0, 0), BuildingBlock: OJICUG_clean_linker_0, # of connection points: 2
#     Edge 48, Type (0, 0), BuildingBlock: OJICUG_clean_linker_0, # of connection points: 2
#     Edge 49, Type (0, 0), BuildingBlock: OJICUG_clean_linker_0, # of connection points: 2
#     Edge 50, Type (0, 0), BuildingBlock: OJICUG_clean_linker_0, # of connection points: 2
#     Edge 51, Type (0, 0), BuildingBlock: OJICUG_clean_linker_0, # of connection points: 2
#     Edge 52, Type (0, 0), BuildingBlock: OJICUG_clean_linker_0, # of connection points: 2
#     Edge 53, Type (0, 0), BuildingBlock: OJICUG_clean_linker_0, # of connection points: 2
#     Edge 54, Type (0, 0), BuildingBlock: OJICUG_clean_linker_0, # of connection points: 2
#     Edge 55, Type (0, 0), BuildingBlock: OJICUG_clean_linker_0, # of connection points: 2
#     Edge 56, Type (0, 0), BuildingBlock: OJICUG_clean_linker_0, # of connection points: 2
#     Edge 57, Type (0, 0), BuildingBlock: OJICUG_clean_linker_0, # of connection points: 2
#     Edge 58, Type (0, 0), BuildingBlock: OJICUG_clean_linker_0, # of connection points: 2
#     Edge 59, Type (0, 0), BuildingBlock: OJICUG_clean_linker_0, # of connection points: 2
#     Edge 60, Type (0, 0), BuildingBlock: OJICUG_clean_linker_0, # of connection points: 2
#     Edge 61, Type (0, 0), BuildingBlock: OJICUG_clean_linker_0, # of connection points: 2
#     Edge 62, Type (0, 0), BuildingBlock: OJICUG_clean_linker_0, # of connection points: 2
#     Edge 63, Type (0, 0), BuildingBlock: OJICUG_clean_linker_0, # of connection points: 2
#     Edge 64, Type (0, 0), BuildingBlock: OJICUG_clean_linker_0, # of connection points: 2
#     Edge 65, Type (0, 0), BuildingBlock: OJICUG_clean_linker_0, # of connection points: 2
#     Edge 66, Type (0, 0), BuildingBlock: OJICUG_clean_linker_0, # of connection points: 2
#     Edge 67, Type (0, 0), BuildingBlock: OJICUG_clean_linker_0, # of connection points: 2
#     Edge 68, Type (0, 0), BuildingBlock: OJICUG_clean_linker_0, # of connection points: 2
#     Edge 69, Type (0, 0), BuildingBlock: OJICUG_clean_linker_0, # of connection points: 2
#     Edge 70, Type (0, 0), BuildingBlock: OJICUG_clean_linker_0, # of connection points: 2
#     Edge 71, Type (0, 0), BuildingBlock: OJICUG_clean_linker_0, # of connection points: 2
#     Edge 72, Type (0, 0), BuildingBlock: OJICUG_clean_linker_0, # of connection points: 2
#     Edge 73, Type (0, 0), BuildingBlock: OJICUG_clean_linker_0, # of connection points: 2
#     Edge 74, Type (0, 0), BuildingBlock: OJICUG_clean_linker_0, # of connection points: 2
#     Edge 75, Type (0, 0), BuildingBlock: OJICUG_clean_linker_0, # of connection points: 2
#     Edge 76, Type (0, 0), BuildingBlock: OJICUG_clean_linker_0, # of connection points: 2
#     Edge 77, Type (0, 0), BuildingBlock: OJICUG_clean_linker_0, # of connection points: 2
#     Edge 78, Type (0, 0), BuildingBlock: OJICUG_clean_linker_0, # of connection points: 2
#     Edge 79, Type (0, 0), BuildingBlock: OJICUG_clean_linker_0, # of connection points: 2
#     Edge 80, Type (0, 0), BuildingBlock: OJICUG_clean_linker_0, # of connection points: 2
#     Edge 81, Type (0, 0), BuildingBlock: OJICUG_clean_linker_0, # of connection points: 2
#     Edge 82, Type (0, 0), BuildingBlock: OJICUG_clean_linker_0, # of connection points: 2
#     Edge 83, Type (0, 0), BuildingBlock: OJICUG_clean_linker_0, # of connection points: 2
#     Edge 84, Type (0, 0), BuildingBlock: OJICUG_clean_linker_0, # of connection points: 2
#     Edge 85, Type (0, 0), BuildingBlock: OJICUG_clean_linker_0, # of connection points: 2
#     Edge 86, Type (0, 0), BuildingBlock: OJICUG_clean_linker_0, # of connection points: 2
#     Edge 87, Type (0, 0), BuildingBlock: OJICUG_clean_linker_0, # of connection points: 2
#     Edge 88, Type (0, 0), BuildingBlock: OJICUG_clean_linker_0, # of connection points: 2
#     Edge 89, Type (0, 0), BuildingBlock: OJICUG_clean_linker_0, # of connection points: 2
#     Edge 90, Type (0, 0), BuildingBlock: OJICUG_clean_linker_0, # of connection points: 2
#     Edge 91, Type (0, 0), BuildingBlock: OJICUG_clean_linker_0, # of connection points: 2
#     Edge 92, Type (0, 0), BuildingBlock: OJICUG_clean_linker_0, # of connection points: 2
#     Edge 93, Type (0, 0), BuildingBlock: OJICUG_clean_linker_0, # of connection points: 2
#     Edge 94, Type (0, 0), BuildingBlock: OJICUG_clean_linker_0, # of connection points: 2
#     Edge 95, Type (0, 0), BuildingBlock: OJICUG_clean_linker_0, # of connection points: 2
#     Edge 96, Type (0, 0), BuildingBlock: OJICUG_clean_linker_0, # of connection points: 2
#     Edge 97, Type (0, 0), BuildingBlock: OJICUG_clean_linker_0, # of connection points: 2
#     Edge 98, Type (0, 0), BuildingBlock: OJICUG_clean_linker_0, # of connection points: 2
#     Edge 99, Type (0, 0), BuildingBlock: OJICUG_clean_linker_0, # of connection points: 2
#     Edge 100, Type (0, 0), BuildingBlock: OJICUG_clean_linker_0, # of connection points: 2
#     Edge 101, Type (0, 0), BuildingBlock: OJICUG_clean_linker_0, # of connection points: 2
#     Edge 102, Type (0, 0), BuildingBlock: OJICUG_clean_linker_0, # of connection points: 2
#     Edge 103, Type (0, 0), BuildingBlock: OJICUG_clean_linker_0, # of connection points: 2
#     Edge 104, Type (0, 0), BuildingBlock: OJICUG_clean_linker_0, # of connection points: 2
#     Edge 105, Type (0, 0), BuildingBlock: OJICUG_clean_linker_0, # of connection points: 2
#     Edge 106, Type (0, 0), BuildingBlock: OJICUG_clean_linker_0, # of connection points: 2
#     Edge 107, Type (0, 0), BuildingBlock: OJICUG_clean_linker_0, # of connection points: 2
#     Edge 108, Type (0, 0), BuildingBlock: OJICUG_clean_linker_0, # of connection points: 2
#     Edge 109, Type (0, 0), BuildingBlock: OJICUG_clean_linker_0, # of connection points: 2
#     Edge 110, Type (0, 0), BuildingBlock: OJICUG_clean_linker_0, # of connection points: 2
#     Edge 111, Type (0, 0), BuildingBlock: OJICUG_clean_linker_0, # of connection points: 2
# Relax obj value: 0.369
# Max RMSD: 0.264
# Mean RMSD: 0.264
data_MOF--net-yft--node1-XOMCOT_clean_sbu_0--edge1-OJICUG_clean_linker_0
_symmetry_space_group_name_H-M    P1
_symmetry_Int_Tables_number       1
_symmetry_cell_setting            triclinic
loop_
_symmetry_equiv_pos_as_xyz
'x, y, z'
_cell_length_a     33.125228
_cell_length_b     33.126401
_cell_length_c     72.565821
_cell_angle_alpha  90.032207
_cell_angle_beta   90.054773
_cell_angle_gamma 90.011395
loop_
_atom_site_label
_atom_site_type_symbol
_atom_site_fract_x
_atom_site_fract_y
_atom_site_fract_z
_atom_type_partial_charge
Co0 Co 0.30534 0.21003 0.16472 0.0
C1 C 0.22266 0.18367 0.15608 0.0
C2 C 0.25209 0.20828 0.1324 0.0
C3 C 0.21697 0.18978 0.12679 0.0
N4 N 0.25552 0.20492 0.15084 0.0
N5 N 0.19849 0.17376 0.14168 0.0
H6 H 0.21833 0.17295 0.16994 0.0
H7 H 0.27513 0.2205 0.12344 0.0
C8 C 0.29318 0.29634 0.14953 0.0
O9 O 0.25689 0.28969 0.14296 0.0
N10 N 0.35481 0.21316 0.17851 0.0
C11 C 0.36381 0.1919 0.1938 0.0
C12 C 0.40298 0.19989 0.19869 0.0
C13 C 0.38879 0.23318 0.17404 0.0
N14 N 0.41859 0.22571 0.18625 0.0
C15 C 0.26582 0.19076 0.19898 0.0
C16 C 0.26425 0.26867 0.21258 0.0
C17 C 0.25689 0.23679 0.22479 0.0
C18 C 0.25627 0.19743 0.21757 0.0
C19 C 0.27375 0.26075 0.19418 0.0
N20 N 0.27616 0.22204 0.18764 0.0
H21 H 0.26777 0.16004 0.19408 0.0
H22 H 0.2816 0.28628 0.18583 0.0
H23 H 0.34397 0.17074 0.20056 0.0
H24 H 0.39176 0.25231 0.16203 0.0
O25 O 0.30962 0.15105 0.16569 0.0
O26 O 0.33507 0.19014 0.14394 0.0
O27 O 0.31237 0.26908 0.15842 0.0
C28 C 0.33119 0.15416 0.1507 0.0
H29 H 0.20785 0.18565 0.1126 0.0
H30 H 0.41923 0.18657 0.21012 0.0
H31 H 0.26528 0.2996 0.2174 0.0
H32 H 0.24993 0.17177 0.22633 0.0
Co33 Co 0.04474 0.05764 0.41461 0.0
C34 C 0.07244 0.97566 0.40554 0.0
C35 C 0.03954 0.00192 0.38317 0.0
C36 C 0.05666 0.96638 0.37719 0.0
N37 N 0.04871 0.00736 0.40108 0.0
N38 N 0.07786 0.94996 0.39122 0.0
H39 H 0.08857 0.97355 0.41841 0.0
H40 H 0.02371 0.02361 0.37469 0.0
C41 C 0.95684 0.04521 0.40112 0.0
O42 O 0.96063 0.00665 0.39738 0.0
N43 N 0.04263 0.1075 0.42807 0.0
C44 C 0.06378 0.11618 0.44344 0.0
C45 C 0.05621 0.15544 0.44831 0.0
C46 C 0.02304 0.14167 0.42354 0.0
N47 N 0.03072 0.17135 0.43579 0.0
C48 C 0.06308 0.01683 0.44878 0.0
C49 C 0.98591 0.02076 0.46309 0.0
C50 C 0.01761 0.01055 0.47495 0.0
C51 C 0.05652 0.0072 0.46739 0.0
C52 C 0.99371 0.03036 0.44472 0.0
N53 N 0.03211 0.02953 0.43774 0.0
H54 H 0.0937 0.01717 0.4437 0.0
H55 H 0.96855 0.04097 0.43681 0.0
H56 H 0.0843 0.09586 0.45035 0.0
H57 H 0.00387 0.14479 0.41154 0.0
O58 O 0.10383 0.06103 0.41559 0.0
O59 O 0.06511 0.0861 0.39359 0.0
O60 O 0.98593 0.06555 0.40807 0.0
C61 C 0.10102 0.08209 0.40043 0.0
H62 H 0.05523 0.95494 0.36325 0.0
H63 H 0.06942 0.17145 0.45985 0.0
H64 H 0.9552 0.02288 0.46812 0.0
H65 H 0.08213 0.99963 0.476 0.0
Co66 Co 0.1968 0.79362 0.66495 0.0
C67 C 0.27882 0.82058 0.65506 0.0
C68 C 0.25004 0.78931 0.6328 0.0
C69 C 0.28492 0.80677 0.62628 0.0
N70 N 0.24641 0.79746 0.65093 0.0
N71 N 0.30285 0.82675 0.64027 0.0
H72 H 0.28267 0.83607 0.66803 0.0
H73 H 0.22737 0.77419 0.62457 0.0
C74 C 0.20932 0.70603 0.65149 0.0
O75 O 0.24774 0.71037 0.6476 0.0
N76 N 0.14747 0.79147 0.67879 0.0
C77 C 0.13947 0.81205 0.69438 0.0
C78 C 0.10011 0.80502 0.69928 0.0
C79 C 0.11284 0.77276 0.67418 0.0
N80 N 0.08347 0.78045 0.68656 0.0
C81 C 0.23967 0.81186 0.6986 0.0
C82 C 0.23466 0.7351 0.71335 0.0
C83 C 0.24647 0.7668 0.72491 0.0
C84 C 0.25004 0.80549 0.71715 0.0
C85 C 0.22424 0.74274 0.69505 0.0
N86 N 0.22582 0.78091 0.68784 0.0
H87 H 0.23981 0.84235 0.69336 0.0
H88 H 0.21204 0.7178 0.68745 0.0
H89 H 0.16029 0.83189 0.70141 0.0
H90 H 0.10918 0.75428 0.66198 0.0
O91 O 0.1936 0.85269 0.666 0.0
O92 O 0.16746 0.8141 0.64419 0.0
O93 O 0.18872 0.73486 0.65847 0.0
C94 C 0.17198 0.84998 0.65099 0.0
H95 H 0.29497 0.80674 0.61209 0.0
H96 H 0.08454 0.81804 0.71097 0.0
H97 H 0.23071 0.70483 0.71869 0.0
H98 H 0.25932 0.83097 0.72549 0.0
Co99 Co 0.46038 0.94574 0.91478 0.0
C100 C 0.43273 0.02772 0.90574 0.0
C101 C 0.46559 1.00147 0.88337 0.0
C102 C 0.44843 0.037 0.8774 0.0
N103 N 0.45645 0.99603 0.90128 0.0
N104 N 0.42727 0.05342 0.89144 0.0
H105 H 0.41661 0.02984 0.9186 0.0
H106 H 0.4814 0.97978 0.87489 0.0
C107 C 0.54829 0.95806 0.90138 0.0
O108 O 0.54456 0.99664 0.89768 0.0
N109 N 0.46247 0.89586 0.92821 0.0
C110 C 0.4414 0.88721 0.94358 0.0
C111 C 0.44884 0.84789 0.9484 0.0
C112 C 0.48188 0.86163 0.92363 0.0
N113 N 0.47419 0.83193 0.93584 0.0
C114 C 0.44216 0.98662 0.94894 0.0
C115 C 0.51935 0.98264 0.9633 0.0
C116 C 0.48767 0.993 0.97513 0.0
C117 C 0.44876 0.99635 0.96755 0.0
C118 C 0.5115 0.97293 0.94494 0.0
N119 N 0.4731 0.97382 0.93793 0.0
H120 H 0.41153 0.9863 0.94384 0.0
H121 H 0.53663 0.9622 0.93705 0.0
H122 H 0.421 0.90757 0.95053 0.0
H123 H 0.50095 0.85849 0.91161 0.0
O124 O 0.4013 0.94243 0.91575 0.0
O125 O 0.43993 0.91732 0.89374 0.0
O126 O 0.51916 0.93774 0.90827 0.0
C127 C 0.40405 0.92138 0.90057 0.0
H128 H 0.44981 0.04845 0.86346 0.0
H129 H 0.43565 0.83189 0.95992 0.0
H130 H 0.55006 0.9805 0.96835 0.0
H131 H 0.42316 0.00401 0.97613 0.0
Co132 Co 0.30769 0.79446 0.36418 0.0
C133 C 0.22579 0.82235 0.37335 0.0
C134 C 0.25193 0.7889 0.39557 0.0
C135 C 0.21644 0.80603 0.40161 0.0
N136 N 0.25743 0.79845 0.3777 0.0
N137 N 0.2001 0.82752 0.38766 0.0
H138 H 0.22367 0.83878 0.36057 0.0
H139 H 0.27356 0.7728 0.40398 0.0
C140 C 0.29494 0.70652 0.37738 0.0
O141 O 0.25617 0.71019 0.38067 0.0
N142 N 0.35754 0.79228 0.35074 0.0
C143 C 0.36602 0.81298 0.33525 0.0
C144 C 0.40536 0.80558 0.33045 0.0
C145 C 0.39186 0.77311 0.35541 0.0
N146 N 0.42149 0.78063 0.34314 0.0
C147 C 0.26594 0.81249 0.33021 0.0
C148 C 0.27122 0.73566 0.31553 0.0
C149 C 0.25929 0.76724 0.30395 0.0
C150 C 0.25567 0.80598 0.31167 0.0
C151 C 0.2815 0.74344 0.33385 0.0
N152 N 0.27961 0.78162 0.34105 0.0
H153 H 0.26578 0.84303 0.3354 0.0
H154 H 0.2938 0.71861 0.34148 0.0
H155 H 0.3455 0.83304 0.32819 0.0
H156 H 0.3951 0.75432 0.36752 0.0
O157 O 0.31099 0.85349 0.36309 0.0
O158 O 0.33613 0.81507 0.38518 0.0
O159 O 0.31559 0.73573 0.37078 0.0
C160 C 0.33207 0.85089 0.37826 0.0
H161 H 0.20494 0.80438 0.41553 0.0
H162 H 0.42124 0.81851 0.31884 0.0
H163 H 0.27528 0.70538 0.31021 0.0
H164 H 0.24637 0.83139 0.3033 0.0
Co165 Co 0.45939 0.05714 0.614 0.0
C166 C 0.43308 0.97452 0.62266 0.0
C167 C 0.45909 0.00357 0.64616 0.0
C168 C 0.44082 0.96843 0.65185 0.0
N169 N 0.45473 0.00723 0.62778 0.0
N170 N 0.42392 0.95016 0.63708 0.0
H171 H 0.42151 0.97053 0.6089 0.0
H172 H 0.47186 0.02648 0.65506 0.0
C173 C 0.54604 0.04514 0.62886 0.0
O174 O 0.54004 0.00828 0.63485 0.0
N175 N 0.46208 0.10673 0.60032 0.0
C176 C 0.44068 0.11566 0.58505 0.0
C177 C 0.44828 0.15495 0.58026 0.0
C178 C 0.4818 0.14085 0.60487 0.0
N179 N 0.474 0.1707 0.59274 0.0
C180 C 0.44049 0.01758 0.57963 0.0
C181 C 0.51849 0.0166 0.56618 0.0
C182 C 0.48675 0.00908 0.55392 0.0
C183 C 0.44735 0.00801 0.56105 0.0
C184 C 0.5104 0.02605 0.58456 0.0
N185 N 0.47163 0.02818 0.59103 0.0
H186 H 0.40972 0.01947 0.58445 0.0
H187 H 0.53587 0.03383 0.59297 0.0
H188 H 0.41969 0.09567 0.57824 0.0
H189 H 0.50096 0.14389 0.61688 0.0
O190 O 0.40036 0.06098 0.61303 0.0
O191 O 0.43935 0.08652 0.63484 0.0
O192 O 0.51836 0.06459 0.62036 0.0
C193 C 0.40337 0.08242 0.62808 0.0
H194 H 0.43755 0.95914 0.66605 0.0
H195 H 0.43476 0.17116 0.56887 0.0
H196 H 0.54952 0.01661 0.56148 0.0
H197 H 0.42174 0.00229 0.55213 0.0
Co198 Co 0.19743 0.20927 0.86464 0.0
C199 C 0.27936 0.18146 0.87373 0.0
C200 C 0.25309 0.21425 0.89612 0.0
C201 C 0.28858 0.19702 0.90211 0.0
N202 N 0.24768 0.20521 0.87819 0.0
N203 N 0.305 0.1759 0.88806 0.0
H204 H 0.28149 0.16541 0.86085 0.0
H205 H 0.2314 0.23005 0.90461 0.0
C206 C 0.2099 0.29708 0.8782 0.0
O207 O 0.24847 0.29325 0.88193 0.0
N208 N 0.14758 0.21146 0.85115 0.0
C209 C 0.13897 0.19039 0.83575 0.0
C210 C 0.09971 0.19794 0.83086 0.0
C211 C 0.11338 0.231 0.85567 0.0
N212 N 0.08374 0.22336 0.84339 0.0
C213 C 0.23834 0.1912 0.83048 0.0
C214 C 0.23407 0.2684 0.81621 0.0
C215 C 0.24438 0.23678 0.80433 0.0
C216 C 0.24791 0.19787 0.81187 0.0
C217 C 0.22454 0.2605 0.83457 0.0
N218 N 0.22554 0.22209 0.84154 0.0
H219 H 0.2381 0.16056 0.83554 0.0
H220 H 0.21381 0.28559 0.8425 0.0
H221 H 0.15932 0.16992 0.82884 0.0
H222 H 0.11021 0.2501 0.86769 0.0
O223 O 0.19406 0.15021 0.86356 0.0
O224 O 0.16894 0.18874 0.88561 0.0
O225 O 0.1895 0.26803 0.87125 0.0
C226 C 0.17297 0.15289 0.87872 0.0
H227 H 0.29998 0.19831 0.91606 0.0
H228 H 0.08375 0.18477 0.8193 0.0
H229 H 0.23179 0.29911 0.81119 0.0
H230 H 0.25556 0.17231 0.80325 0.0
Co231 Co 0.04176 0.94644 0.11458 0.0
C232 C 0.06846 0.02858 0.12434 0.0
C233 C 0.03823 0.99962 0.14681 0.0
C234 C 0.05579 0.03456 0.15323 0.0
N235 N 0.04566 0.99606 0.12861 0.0
N236 N 0.07512 0.05261 0.13911 0.0
H237 H 0.08342 0.03248 0.11125 0.0
H238 H 0.0236 0.97685 0.15514 0.0
C239 C 0.9543 0.95843 0.12837 0.0
O240 O 0.95883 0.9965 0.13291 0.0
N241 N 0.03961 0.89711 0.1007 0.0
C242 C 0.06059 0.88889 0.08524 0.0
C243 C 0.05339 0.84958 0.08029 0.0
C244 C 0.02051 0.86264 0.10517 0.0
N245 N 0.02831 0.83319 0.09284 0.0
C246 C 0.06037 0.98829 0.08076 0.0
C247 C 0.98323 0.98499 0.0663 0.0
C248 C 0.0151 0.9949 0.0545 0.0
C249 C 0.05397 0.99805 0.06215 0.0
C250 C 0.99087 0.97526 0.08468 0.0
N251 N 0.02927 0.97556 0.0917 0.0
H252 H 0.09095 0.98779 0.08592 0.0
H253 H 0.96556 0.96496 0.09257 0.0
H254 H 0.08089 0.90946 0.07838 0.0
H255 H 1.00169 0.85912 0.11725 0.0
O256 O 0.10085 0.94315 0.11366 0.0
O257 O 0.06206 0.91701 0.13535 0.0
O258 O 0.98293 0.93833 0.12092 0.0
C259 C 0.098 0.92148 0.12864 0.0
H260 H 0.05632 0.04457 0.16743 0.0
H261 H 0.06667 0.83386 0.0687 0.0
H262 H 0.95254 0.98314 0.06121 0.0
H263 H 0.07969 0.00548 0.0536 0.0
Co264 Co 0.69762 0.79324 0.86454 0.0
C265 C 0.77953 0.8211 0.87371 0.0
C266 C 0.75322 0.78818 0.89603 0.0
C267 C 0.78869 0.8054 0.90207 0.0
N268 N 0.74784 0.79733 0.87811 0.0
N269 N 0.80514 0.8266 0.88805 0.0
H270 H 0.78169 0.83723 0.86085 0.0
H271 H 0.73152 0.77232 0.90448 0.0
C272 C 0.71018 0.70541 0.87799 0.0
O273 O 0.74878 0.70926 0.88166 0.0
N274 N 0.6478 0.79099 0.85103 0.0
C275 C 0.63919 0.81197 0.83562 0.0
C276 C 0.59993 0.80438 0.83073 0.0
C277 C 0.61359 0.77148 0.85557 0.0
N278 N 0.58395 0.77904 0.84329 0.0
C279 C 0.73864 0.81146 0.83045 0.0
C280 C 0.73423 0.73438 0.81601 0.0
C281 C 0.74458 0.7661 0.8042 0.0
C282 C 0.74819 0.80494 0.81183 0.0
C283 C 0.72471 0.74215 0.83439 0.0
N284 N 0.72579 0.7805 0.84144 0.0
H285 H 0.73844 0.84206 0.83557 0.0
H286 H 0.71391 0.71702 0.84227 0.0
H287 H 0.65954 0.83239 0.82869 0.0
H288 H 0.61042 0.75245 0.8676 0.0
O289 O 0.69425 0.85228 0.86347 0.0
O290 O 0.66908 0.81378 0.88551 0.0
O291 O 0.68973 0.73446 0.8711 0.0
C292 C 0.67313 0.84962 0.87862 0.0
H293 H 0.80009 0.80404 0.91602 0.0
H294 H 0.58396 0.81748 0.81917 0.0
H295 H 0.7319 0.70372 0.81092 0.0
H296 H 0.75584 0.83057 0.80326 0.0
Co297 Co 0.96019 0.94651 0.61414 0.0
C298 C 0.93227 0.02847 0.62314 0.0
C299 C 0.96536 0.00242 0.6455 0.0
C300 C 0.94815 0.03793 0.65147 0.0
N301 N 0.95612 0.99686 0.6276 0.0
N302 N 0.92684 0.05421 0.63744 0.0
H303 H 0.91607 0.03047 0.61029 0.0
H304 H 0.98128 0.98081 0.654 0.0
C305 C 0.04801 0.95891 0.62775 0.0
O306 O 0.04438 0.99757 0.63132 0.0
N307 N 0.96243 0.89655 0.60076 0.0
C308 C 0.94161 0.88783 0.5853 0.0
C309 C 0.94917 0.8485 0.58053 0.0
C310 C 0.9818 0.86236 0.60543 0.0
N311 N 0.97432 0.8326 0.59319 0.0
C312 C 0.94235 0.98737 0.57993 0.0
C313 C 0.01959 0.98292 0.56572 0.0
C314 C 0.98804 0.99343 0.55383 0.0
C315 C 0.94911 0.99701 0.56134 0.0
C316 C 0.01159 0.97329 0.58407 0.0
N317 N 0.97317 0.97445 0.59101 0.0
H318 H 0.9117 0.98721 0.58497 0.0
H319 H 0.0366 0.96239 0.59201 0.0
H320 H 0.92134 0.90817 0.57825 0.0
H321 H 1.0007 0.85928 0.61752 0.0
O322 O 0.90112 0.9432 0.61298 0.0
O323 O 0.93949 0.91822 0.63514 0.0
O324 O 0.01888 0.93856 0.62085 0.0
C325 C 0.90368 0.92225 0.62818 0.0
H326 H 0.9496 0.04943 0.6654 0.0
H327 H 0.93619 0.83246 0.56895 0.0
H328 H 0.05031 0.98058 0.56073 0.0
H329 H 0.92359 0.00478 0.55271 0.0
Co330 Co 0.80769 0.21039 0.36449 0.0
C331 C 0.72585 0.18247 0.37368 0.0
C332 C 0.75221 0.21551 0.39599 0.0
C333 C 0.71677 0.19829 0.40203 0.0
N334 N 0.75754 0.20628 0.37807 0.0
N335 N 0.70028 0.17704 0.38802 0.0
H336 H 0.72363 0.16627 0.36083 0.0
H337 H 0.77393 0.23145 0.40443 0.0
C338 C 0.79508 0.29813 0.378 0.0
O339 O 0.75636 0.29435 0.38138 0.0
N340 N 0.85743 0.21267 0.35097 0.0
C341 C 0.86577 0.19195 0.33545 0.0
C342 C 0.905 0.19948 0.33053 0.0
C343 C 0.89176 0.23198 0.35553 0.0
N344 N 0.92122 0.22455 0.34316 0.0
C345 C 0.76591 0.19283 0.33044 0.0
C346 C 0.77132 0.26989 0.31608 0.0
C347 C 0.75997 0.23844 0.3043 0.0
C348 C 0.75594 0.19962 0.31188 0.0
C349 C 0.78121 0.26187 0.33441 0.0
N350 N 0.77948 0.22354 0.34144 0.0
H351 H 0.76583 0.1622 0.33551 0.0
H352 H 0.79288 0.28673 0.34222 0.0
H353 H 0.84522 0.17177 0.32846 0.0
H354 H 0.89513 0.25082 0.36763 0.0
O355 O 0.81093 0.15134 0.36325 0.0
O356 O 0.83626 0.18956 0.38539 0.0
O357 O 0.81569 0.26904 0.37124 0.0
C358 C 0.8321 0.1538 0.37841 0.0
H359 H 0.7054 0.1997 0.41598 0.0
H360 H 0.92076 0.18657 0.31887 0.0
H361 H 0.77414 0.30052 0.31102 0.0
H362 H 0.74758 0.17419 0.30331 0.0
Co363 Co 0.54381 0.0577 0.11442 0.0
C364 C 0.57111 0.97561 0.12351 0.0
C365 C 0.53824 0.00203 0.14583 0.0
C366 C 0.55516 0.96642 0.15183 0.0
N367 N 0.54753 0.00743 0.12794 0.0
N368 N 0.57633 0.94989 0.13782 0.0
H369 H 0.58727 0.97341 0.11066 0.0
H370 H 0.52245 0.02379 0.15429 0.0
C371 C 0.45582 0.0456 0.1277 0.0
O372 O 0.4594 0.00701 0.1314 0.0
N373 N 0.54193 0.10757 0.10097 0.0
C374 C 0.56326 0.11622 0.08567 0.0
C375 C 0.55583 0.15552 0.08082 0.0
C376 C 0.52237 0.14177 0.10547 0.0
N377 N 0.53023 0.17147 0.09327 0.0
C378 C 0.56225 0.01686 0.08027 0.0
C379 C 0.48512 0.02073 0.06584 0.0
C380 C 0.51687 0.01046 0.05404 0.0
C381 C 0.55575 0.00715 0.06166 0.0
C382 C 0.49287 0.03042 0.08421 0.0
N383 N 0.53124 0.02961 0.09126 0.0
H384 H 0.59285 0.01718 0.08541 0.0
H385 H 0.46768 0.04107 0.09209 0.0
H386 H 0.5838 0.09587 0.07881 0.0
H387 H 0.50307 0.1449 0.11741 0.0
O388 O 0.6029 0.06092 0.11356 0.0
O389 O 0.56409 0.0861 0.13548 0.0
O390 O 0.48503 0.06582 0.12083 0.0
C391 C 0.60003 0.08201 0.12872 0.0
H392 H 0.55362 0.95496 0.16576 0.0
H393 H 0.56919 0.17151 0.06933 0.0
H394 H 0.45443 0.02283 0.06077 0.0
H395 H 0.58139 0.99954 0.05309 0.0
Co396 Co 0.69674 0.20942 0.66452 0.0
C397 C 0.77865 0.18162 0.65532 0.0
C398 C 0.75224 0.21469 0.63304 0.0
C399 C 0.78772 0.19757 0.62699 0.0
N400 N 0.74691 0.20538 0.65094 0.0
N401 N 0.80423 0.17631 0.64097 0.0
H402 H 0.78089 0.1654 0.66814 0.0
H403 H 0.73051 0.23062 0.62462 0.0
C404 C 0.70919 0.2972 0.65106 0.0
O405 O 0.74793 0.29356 0.6477 0.0
N406 N 0.64698 0.21164 0.67803 0.0
C407 C 0.63862 0.19084 0.69352 0.0
C408 C 0.59935 0.19826 0.69841 0.0
C409 C 0.61264 0.23088 0.67347 0.0
N410 N 0.58312 0.22332 0.68579 0.0
C411 C 0.73851 0.19196 0.69854 0.0
C412 C 0.73275 0.26893 0.71301 0.0
C413 C 0.74407 0.23745 0.72477 0.0
C414 C 0.74829 0.19869 0.71713 0.0
C415 C 0.72303 0.26096 0.69465 0.0
N416 N 0.72491 0.22266 0.68758 0.0
H417 H 0.73872 0.16134 0.69345 0.0
H418 H 0.71134 0.2858 0.68684 0.0
H419 H 0.65918 0.17069 0.7005 0.0
H420 H 0.60928 0.24975 0.66139 0.0
O421 O 0.69363 0.15043 0.66582 0.0
O422 O 0.6682 0.18839 0.64363 0.0
O423 O 0.68864 0.26804 0.65777 0.0
C424 C 0.67241 0.15272 0.65068 0.0
H425 H 0.7991 0.19907 0.61305 0.0
H426 H 0.58357 0.18525 0.71004 0.0
H427 H 0.72979 0.29952 0.71811 0.0
H428 H 0.75663 0.17323 0.72567 0.0
Co429 Co 0.54485 0.94688 0.41476 0.0
C430 C 0.57251 0.02882 0.40572 0.0
C431 C 0.54009 0.00231 0.38325 0.0
C432 C 0.55724 0.03783 0.37729 0.0
N433 N 0.54893 0.99704 0.4012 0.0
N434 N 0.57816 0.05442 0.39139 0.0
H435 H 0.58835 0.03104 0.41867 0.0
H436 H 0.52446 0.98051 0.37473 0.0
C437 C 0.4571 0.95916 0.40108 0.0
O438 O 0.46105 0.99762 0.39716 0.0
N439 N 0.54262 0.89708 0.42827 0.0
C440 C 0.56385 0.88833 0.44361 0.0
C441 C 0.55628 0.84906 0.44844 0.0
C442 C 0.523 0.86291 0.42372 0.0
N443 N 0.53072 0.83319 0.43592 0.0
C444 C 0.56326 0.98719 0.44904 0.0
C445 C 0.48573 0.98492 0.46301 0.0
C446 C 0.51746 0.99395 0.47507 0.0
C447 C 0.55658 0.99655 0.46767 0.0
C448 C 0.49367 0.97542 0.44463 0.0
N449 N 0.53224 0.97523 0.43785 0.0
H450 H 0.59395 0.98637 0.44406 0.0
H451 H 0.46838 0.96579 0.43654 0.0
H452 H 0.5845 0.90856 0.4505 0.0
H453 H 0.50383 0.85981 0.41172 0.0
O454 O 0.6039 0.94349 0.4158 0.0
O455 O 0.56526 0.91823 0.3938 0.0
O456 O 0.48603 0.93894 0.40821 0.0
C457 C 0.60115 0.92231 0.40066 0.0
H458 H 0.55605 0.04914 0.36333 0.0
H459 H 0.56956 0.83299 0.45993 0.0
H460 H 0.45485 0.9836 0.46787 0.0
H461 H 0.58223 0.0033 0.4764 0.0
Co462 Co 0.80536 0.79324 0.1648 0.0
C463 C 0.72346 0.8212 0.1557 0.0
C464 C 0.74958 0.78809 0.13338 0.0
C465 C 0.71416 0.8054 0.12736 0.0
N466 N 0.75505 0.7973 0.15129 0.0
N467 N 0.69783 0.82671 0.14137 0.0
H468 H 0.72142 0.83742 0.16855 0.0
H469 H 0.77122 0.77216 0.12491 0.0
C470 C 0.79292 0.70549 0.15118 0.0
O471 O 0.75421 0.70915 0.14773 0.0
N472 N 0.85527 0.79101 0.17824 0.0
C473 C 0.86385 0.81184 0.19371 0.0
C474 C 0.90314 0.8043 0.19857 0.0
C475 C 0.88951 0.77164 0.17365 0.0
N476 N 0.91916 0.77913 0.18594 0.0
C477 C 0.76423 0.81081 0.19894 0.0
C478 C 0.76956 0.73371 0.21325 0.0
C479 C 0.75881 0.76523 0.22511 0.0
C480 C 0.75477 0.80407 0.21754 0.0
C481 C 0.77899 0.7417 0.19488 0.0
N482 N 0.7774 0.78006 0.18789 0.0
H483 H 0.76413 0.84145 0.19388 0.0
H484 H 0.79018 0.71677 0.18697 0.0
H485 H 0.84343 0.83209 0.20071 0.0
H486 H 0.8927 0.75272 0.16157 0.0
O487 O 0.8085 0.85226 0.16607 0.0
O488 O 0.83368 0.81417 0.14386 0.0
O489 O 0.8134 0.7346 0.15802 0.0
C490 C 0.82951 0.8499 0.15088 0.0
H491 H 0.70273 0.80403 0.11341 0.0
H492 H 0.91907 0.81729 0.21017 0.0
H493 H 0.77229 0.70306 0.21829 0.0
H494 H 0.74683 0.82956 0.22615 0.0
Co495 Co 0.96018 0.05701 0.91493 0.0
C496 C 0.93265 0.97492 0.9059 0.0
C497 C 0.96566 1.00111 0.88358 0.0
C498 C 0.94859 0.96553 0.87759 0.0
N499 N 0.95637 0.00663 0.90147 0.0
N500 N 0.92734 0.94916 0.8916 0.0
H501 H 0.91644 0.97285 0.91874 0.0
H502 H 0.98152 0.02278 0.87511 0.0
C503 C 0.04816 0.0446 0.90167 0.0
O504 O 0.04443 0.00597 0.89805 0.0
N505 N 0.96212 0.10698 0.92832 0.0
C506 C 0.94088 0.11573 0.94364 0.0
C507 C 0.94824 0.15508 0.94842 0.0
C508 C 0.98157 0.14119 0.92375 0.0
N509 N 0.97371 0.17098 0.93591 0.0
C510 C 0.94168 0.01641 0.9491 0.0
C511 C 0.01868 0.02084 0.96365 0.0
C512 C 0.98687 0.01066 0.97544 0.0
C513 C 0.94807 0.00706 0.96776 0.0
C514 C 0.01104 0.03018 0.94523 0.0
N515 N 0.97273 0.02911 0.93813 0.0
H516 H 0.91112 0.01658 0.94393 0.0
H517 H 0.03624 0.04082 0.93736 0.0
H518 H 0.92041 0.0954 0.95055 0.0
H519 H 1.00076 0.14427 0.91176 0.0
O520 O 0.9011 0.06025 0.91582 0.0
O521 O 0.93983 0.08527 0.89384 0.0
O522 O 0.01901 0.065 0.90849 0.0
C523 C 0.90391 0.08122 0.90064 0.0
H524 H 0.95009 0.95401 0.86367 0.0
H525 H 0.93491 0.17116 0.9599 0.0
H526 H 0.04932 0.02313 0.96877 0.0
H527 H 0.92237 0.99953 0.9763 0.0
Co528 Co 0.80777 0.71005 0.66493 0.0
C529 C 0.72591 0.68194 0.65576 0.0
C530 C 0.75217 0.71483 0.63342 0.0
C531 C 0.71676 0.69747 0.62739 0.0
N532 N 0.75754 0.7058 0.65135 0.0
N533 N 0.70034 0.67629 0.64141 0.0
H534 H 0.72377 0.66589 0.66864 0.0
H535 H 0.77385 0.73069 0.62495 0.0
C536 C 0.79522 0.79779 0.65133 0.0
O537 O 0.75666 0.7939 0.6476 0.0
N538 N 0.8576 0.71243 0.67845 0.0
C539 C 0.86619 0.6915 0.69388 0.0
C540 C 0.90539 0.69923 0.69882 0.0
C541 C 0.89178 0.73206 0.67396 0.0
N542 N 0.92137 0.72463 0.68629 0.0
C543 C 0.76675 0.69191 0.69902 0.0
C544 C 0.77103 0.76905 0.71339 0.0
C545 C 0.76072 0.73736 0.72522 0.0
C546 C 0.75718 0.69849 0.71763 0.0
C547 C 0.78056 0.76123 0.69501 0.0
N548 N 0.77957 0.72284 0.688 0.0
H549 H 0.76702 0.66128 0.69393 0.0
H550 H 0.79131 0.78634 0.68711 0.0
H551 H 0.84586 0.67101 0.70078 0.0
H552 H 0.89497 0.75109 0.66193 0.0
O553 O 0.81121 0.65101 0.66603 0.0
O554 O 0.83634 0.68949 0.64398 0.0
O555 O 0.81562 0.7688 0.65831 0.0
C556 C 0.8323 0.65366 0.65088 0.0
H557 H 0.7054 0.69873 0.61343 0.0
H558 H 0.92132 0.68617 0.7104 0.0
H559 H 0.77331 0.79974 0.71845 0.0
H560 H 0.74956 0.67288 0.72622 0.0
Co561 Co 0.54508 0.55656 0.91465 0.0
C562 C 0.57293 0.4746 0.90554 0.0
C563 C 0.53942 0.50063 0.88331 0.0
C564 C 0.55653 0.46512 0.87728 0.0
N565 N 0.549 0.5062 0.90117 0.0
N566 N 0.57809 0.44885 0.89123 0.0
H567 H 0.58939 0.47258 0.91833 0.0
H568 H 0.52332 0.52222 0.87488 0.0
C569 C 0.4572 0.54402 0.90125 0.0
O570 O 0.46072 0.50519 0.89808 0.0
N571 N 0.543 0.60648 0.92806 0.0
C572 C 0.56382 0.61499 0.94354 0.0
C573 C 0.5564 0.65429 0.94839 0.0
C574 C 0.52374 0.64078 0.92345 0.0
N575 N 0.5313 0.67039 0.93575 0.0
C576 C 0.5625 0.51513 0.94878 0.0
C577 C 0.48555 0.52138 0.96318 0.0
C578 C 0.51697 0.51005 0.97498 0.0
C579 C 0.55572 0.50557 0.96738 0.0
C580 C 0.49356 0.53086 0.94482 0.0
N581 N 0.53185 0.52872 0.93777 0.0
H582 H 0.59311 0.51474 0.9437 0.0
H583 H 0.46877 0.5426 0.93699 0.0
H584 H 0.58397 0.59448 0.95056 0.0
H585 H 0.50482 0.64401 0.91137 0.0
O586 O 0.60415 0.55964 0.9159 0.0
O587 O 0.56601 0.58476 0.89369 0.0
O588 O 0.48645 0.56465 0.90787 0.0
C589 C 0.60175 0.58063 0.9007 0.0
H590 H 0.55484 0.45357 0.86336 0.0
H591 H 0.56939 0.67017 0.96001 0.0
H592 H 0.45497 0.52453 0.96826 0.0
H593 H 0.58113 0.4972 0.97597 0.0
Co594 Co 0.69439 0.29535 0.16513 0.0
C595 C 0.77631 0.32324 0.15595 0.0
C596 C 0.75025 0.28939 0.13382 0.0
C597 C 0.78573 0.30646 0.12774 0.0
N598 N 0.74471 0.29921 0.15165 0.0
N599 N 0.80202 0.32822 0.14163 0.0
H600 H 0.77838 0.33986 0.16869 0.0
H601 H 0.72866 0.27313 0.12544 0.0
C602 C 0.70724 0.20742 0.15201 0.0
O603 O 0.74613 0.21106 0.14904 0.0
N604 N 0.64446 0.29336 0.17854 0.0
C605 C 0.63609 0.31425 0.194 0.0
C606 C 0.59672 0.30713 0.19881 0.0
C607 C 0.61001 0.27435 0.1739 0.0
N608 N 0.58042 0.28216 0.18616 0.0
C609 C 0.73606 0.31311 0.1992 0.0
C610 C 0.7299 0.23631 0.21378 0.0
C611 C 0.7415 0.26781 0.22549 0.0
C612 C 0.74588 0.3065 0.2178 0.0
C613 C 0.72012 0.24417 0.19544 0.0
N614 N 0.72229 0.28237 0.18829 0.0
H615 H 0.73643 0.34367 0.19405 0.0
H616 H 0.70814 0.21933 0.1877 0.0
H617 H 0.65672 0.33428 0.20103 0.0
H618 H 0.60663 0.25549 0.16181 0.0
O619 O 0.69125 0.35442 0.16624 0.0
O620 O 0.66614 0.316 0.14412 0.0
O621 O 0.68637 0.23664 0.15846 0.0
C622 C 0.67029 0.35182 0.15103 0.0
H623 H 0.79726 0.30457 0.11383 0.0
H624 H 0.58092 0.32028 0.21041 0.0
H625 H 0.7268 0.20577 0.21892 0.0
H626 H 0.75442 0.33198 0.2263 0.0
Co627 Co 0.96001 0.44678 0.41498 0.0
C628 C 0.93232 0.52877 0.40591 0.0
C629 C 0.96584 0.50275 0.38369 0.0
C630 C 0.94874 0.53826 0.37766 0.0
N631 N 0.95623 0.49716 0.40154 0.0
N632 N 0.92718 0.55453 0.39161 0.0
H633 H 0.91583 0.53078 0.41867 0.0
H634 H 0.98192 0.48114 0.37526 0.0
C635 C 0.04795 0.45909 0.40171 0.0
O636 O 0.04455 0.49793 0.39855 0.0
N637 N 0.96196 0.39682 0.42835 0.0
C638 C 0.94115 0.38831 0.44381 0.0
C639 C 0.94847 0.34896 0.4486 0.0
C640 C 0.98111 0.36249 0.4237 0.0
N641 N 0.97348 0.33284 0.43594 0.0
C642 C 0.9425 0.48819 0.44909 0.0
C643 C 0.01941 0.48206 0.46361 0.0
C644 C 0.98794 0.49344 0.47535 0.0
C645 C 0.94921 0.49784 0.4677 0.0
C646 C 0.01146 0.47248 0.44524 0.0
N647 N 0.9732 0.47458 0.43813 0.0
H648 H 0.9119 0.48855 0.44396 0.0
H649 H 0.03628 0.46073 0.43745 0.0
H650 H 0.92109 0.40885 0.45086 0.0
H651 H 0.99998 0.35926 0.41162 0.0
O652 O 0.90095 0.44382 0.41614 0.0
O653 O 0.9391 0.41865 0.39397 0.0
O654 O 0.01863 0.43855 0.40829 0.0
C655 C 0.90335 0.42286 0.40093 0.0
H656 H 0.95042 0.54982 0.36375 0.0
H657 H 0.93547 0.33306 0.4602 0.0
H658 H 0.04998 0.47897 0.46873 0.0
H659 H 0.92376 0.50622 0.47623 0.0
Co660 Co 0.8082 0.29378 0.86407 0.0
C661 C 0.72622 0.32149 0.87317 0.0
C662 C 0.7523 0.28798 0.89538 0.0
C663 C 0.71678 0.30504 0.90141 0.0
N664 N 0.75786 0.2976 0.87753 0.0
N665 N 0.70047 0.3266 0.88747 0.0
H666 H 0.72416 0.33797 0.8604 0.0
H667 H 0.77392 0.27188 0.90381 0.0
C668 C 0.79575 0.20581 0.87731 0.0
O669 O 0.75694 0.20932 0.88052 0.0
N670 N 0.85813 0.29178 0.8507 0.0
C671 C 0.86666 0.31262 0.83524 0.0
C672 C 0.90602 0.30533 0.83047 0.0
C673 C 0.89247 0.27265 0.85536 0.0
N674 N 0.92214 0.28031 0.84313 0.0
C675 C 0.76679 0.31155 0.82999 0.0
C676 C 0.77268 0.2347 0.8154 0.0
C677 C 0.7614 0.26626 0.80368 0.0
C678 C 0.75712 0.30496 0.81137 0.0
C679 C 0.78229 0.24253 0.83378 0.0
N680 N 0.78032 0.28077 0.84092 0.0
H681 H 0.76652 0.34213 0.83514 0.0
H682 H 0.79394 0.21763 0.84156 0.0
H683 H 0.84613 0.3327 0.82819 0.0
H684 H 0.89571 0.25379 0.86745 0.0
O685 O 0.81128 0.35284 0.86296 0.0
O686 O 0.83643 0.31454 0.8851 0.0
O687 O 0.81633 0.23509 0.87072 0.0
C688 C 0.83228 0.35033 0.87817 0.0
H689 H 0.70524 0.30331 0.91532 0.0
H690 H 0.92193 0.31838 0.81889 0.0
H691 H 0.77566 0.20415 0.81026 0.0
H692 H 0.74881 0.33048 0.80286 0.0
Co693 Co 0.9584 0.55739 0.11401 0.0
C694 C 0.93016 0.47563 0.12323 0.0
C695 C 0.96389 0.50168 0.1454 0.0
C696 C 0.94657 0.46634 0.1515 0.0
N697 N 0.9543 0.50714 0.12753 0.0
N698 N 0.92487 0.45006 0.13758 0.0
H699 H 0.91365 0.47359 0.11045 0.0
H700 H 0.98012 0.52327 0.1538 0.0
C701 C 0.04619 0.54471 0.12745 0.0
O702 O 0.04258 0.50588 0.1306 0.0
N703 N 0.96066 0.60724 0.10056 0.0
C704 C 0.93999 0.61566 0.08503 0.0
C705 C 0.94752 0.65491 0.08015 0.0
C706 C 0.97994 0.64156 0.10516 0.0
N707 N 0.97253 0.6711 0.09281 0.0
C708 C 0.94097 0.51578 0.07991 0.0
C709 C 0.01799 0.52166 0.06557 0.0
C710 C 0.98657 0.51039 0.05375 0.0
C711 C 0.94777 0.50609 0.06132 0.0
C712 C 0.00994 0.53131 0.08391 0.0
N713 N 0.97162 0.52936 0.09093 0.0
H714 H 0.91033 0.51551 0.08497 0.0
H715 H 0.03475 0.54302 0.09174 0.0
H716 H 0.91986 0.59513 0.07799 0.0
H717 H 0.99873 0.64488 0.11728 0.0
O718 O 0.89934 0.56057 0.11274 0.0
O719 O 0.93751 0.58576 0.13494 0.0
O720 O 0.01702 0.5654 0.12082 0.0
C721 C 0.90176 0.58157 0.12794 0.0
H722 H 0.94822 0.45493 0.16543 0.0
H723 H 0.9346 0.67073 0.0685 0.0
H724 H 0.04861 0.52465 0.06052 0.0
H725 H 0.92236 0.49777 0.05273 0.0
Co726 Co 0.69678 0.70939 0.3645 0.0
C727 C 0.7788 0.68175 0.37359 0.0
C728 C 0.75267 0.71501 0.39587 0.0
C729 C 0.78823 0.69797 0.40188 0.0
N730 N 0.74712 0.70554 0.37799 0.0
N731 N 0.80457 0.67656 0.3879 0.0
H732 H 0.78087 0.66542 0.36078 0.0
H733 H 0.73103 0.73099 0.40432 0.0
C734 C 0.7093 0.79737 0.3778 0.0
O735 O 0.74801 0.79373 0.38126 0.0
N736 N 0.64684 0.71142 0.35108 0.0
C737 C 0.63816 0.69028 0.33571 0.0
C738 C 0.59889 0.69782 0.33084 0.0
C739 C 0.61266 0.73098 0.35561 0.0
N740 N 0.58296 0.7233 0.34336 0.0
C741 C 0.73767 0.69116 0.33037 0.0
C742 C 0.73265 0.76811 0.31586 0.0
C743 C 0.74315 0.73639 0.30407 0.0
C744 C 0.74706 0.69763 0.31172 0.0
C745 C 0.72329 0.7604 0.33426 0.0
N746 N 0.7247 0.72211 0.34135 0.0
H747 H 0.73768 0.66059 0.33551 0.0
H748 H 0.71231 0.7855 0.34212 0.0
H749 H 0.65851 0.66983 0.32879 0.0
H750 H 0.60955 0.75016 0.3676 0.0
O751 O 0.69353 0.65033 0.36348 0.0
O752 O 0.66848 0.68892 0.38553 0.0
O753 O 0.6888 0.76816 0.37106 0.0
C754 C 0.67253 0.65304 0.37866 0.0
H755 H 0.79977 0.69961 0.41581 0.0
H756 H 0.58288 0.68463 0.3193 0.0
H757 H 0.73006 0.79872 0.31076 0.0
H758 H 0.75484 0.67201 0.30317 0.0
Co759 Co 0.54424 0.44637 0.61436 0.0
C760 C 0.57234 0.52824 0.62351 0.0
C761 C 0.5393 0.50206 0.64582 0.0
C762 C 0.55663 0.53748 0.65186 0.0
N763 N 0.54845 0.49663 0.62791 0.0
N764 N 0.5779 0.55385 0.63785 0.0
H765 H 0.5885 0.53036 0.61066 0.0
H766 H 0.52337 0.48041 0.65428 0.0
C767 C 0.45654 0.45895 0.62793 0.0
O768 O 0.46034 0.49764 0.63138 0.0
N769 N 0.54192 0.39652 0.60086 0.0
C770 C 0.56267 0.38811 0.58537 0.0
C771 C 0.55527 0.34883 0.58048 0.0
C772 C 0.52273 0.36215 0.60544 0.0
N773 N 0.53026 0.3326 0.59311 0.0
C774 C 0.56181 0.4878 0.58028 0.0
C775 C 0.48468 0.48263 0.56593 0.0
C776 C 0.51616 0.49364 0.55412 0.0
C777 C 0.55502 0.49756 0.5617 0.0
C778 C 0.49271 0.47292 0.58427 0.0
N779 N 0.53109 0.47447 0.59128 0.0
H780 H 0.59247 0.48782 0.58534 0.0
H781 H 0.46781 0.46155 0.59213 0.0
H782 H 0.58281 0.40864 0.57838 0.0
H783 H 0.50393 0.35879 0.61754 0.0
O784 O 0.60328 0.44309 0.61313 0.0
O785 O 0.56509 0.41792 0.63528 0.0
O786 O 0.48558 0.4384 0.6211 0.0
C787 C 0.60083 0.42202 0.6283 0.0
H788 H 0.55528 0.54888 0.6658 0.0
H789 H 0.56825 0.33302 0.56885 0.0
H790 H 0.45401 0.47995 0.56088 0.0
H791 H 0.58048 0.50567 0.55312 0.0
Co792 Co 0.19682 0.29475 0.36396 0.0
C793 C 0.27876 0.32236 0.37318 0.0
C794 C 0.25238 0.28931 0.39545 0.0
C795 C 0.28787 0.30643 0.40151 0.0
N796 N 0.24704 0.2986 0.37754 0.0
N797 N 0.30436 0.32771 0.38754 0.0
H798 H 0.28095 0.33858 0.36034 0.0
H799 H 0.23065 0.27341 0.40387 0.0
C800 C 0.20927 0.20674 0.3772 0.0
O801 O 0.24782 0.21059 0.38096 0.0
N802 N 0.14698 0.29274 0.35046 0.0
C803 C 0.13825 0.31397 0.33513 0.0
C804 C 0.09888 0.30666 0.33034 0.0
C805 C 0.11273 0.27336 0.35504 0.0
N806 N 0.08294 0.28125 0.34287 0.0
C807 C 0.23745 0.31378 0.32988 0.0
C808 C 0.23469 0.23668 0.31536 0.0
C809 C 0.24475 0.26865 0.30364 0.0
C810 C 0.24718 0.30755 0.31127 0.0
C811 C 0.22471 0.2442 0.33373 0.0
N812 N 0.22507 0.28253 0.34082 0.0
H813 H 0.2369 0.34432 0.33508 0.0
H814 H 0.21403 0.2189 0.34153 0.0
H815 H 0.15857 0.33446 0.32822 0.0
H816 H 0.10961 0.25425 0.36704 0.0
O817 O 0.19344 0.35381 0.36315 0.0
O818 O 0.16827 0.31485 0.38501 0.0
O819 O 0.18891 0.23583 0.37029 0.0
C820 C 0.17234 0.35083 0.37828 0.0
H821 H 0.29925 0.30494 0.41547 0.0
H822 H 0.0828 0.32004 0.31887 0.0
H823 H 0.23184 0.20619 0.31012 0.0
H824 H 0.25515 0.33322 0.30278 0.0
Co825 Co 0.45798 0.44662 0.11404 0.0
C826 C 0.42962 0.52848 0.12315 0.0
C827 C 0.46336 0.50263 0.14536 0.0
C828 C 0.44622 0.53812 0.15138 0.0
N829 N 0.45367 0.49696 0.12751 0.0
N830 N 0.42451 0.55429 0.13745 0.0
H831 H 0.4131 0.53043 0.11038 0.0
H832 H 0.47962 0.48114 0.15378 0.0
C833 C 0.54565 0.45962 0.12762 0.0
O834 O 0.5421 0.49857 0.13048 0.0
N835 N 0.46051 0.39669 0.10065 0.0
C836 C 0.44017 0.38817 0.08504 0.0
C837 C 0.44781 0.34888 0.08024 0.0
C838 C 0.47971 0.36244 0.10538 0.0
N839 N 0.47257 0.33282 0.09303 0.0
C840 C 0.44124 0.48835 0.07993 0.0
C841 C 0.51825 0.48147 0.06566 0.0
C842 C 0.48704 0.4932 0.05382 0.0
C843 C 0.44826 0.49796 0.06135 0.0
C844 C 0.50998 0.47191 0.08398 0.0
N845 N 0.47167 0.47445 0.09098 0.0
H846 H 0.41057 0.48892 0.08494 0.0
H847 H 0.53455 0.45974 0.09183 0.0
H848 H 0.42023 0.40867 0.07789 0.0
H849 H 0.49829 0.35925 0.11757 0.0
O850 O 0.399 0.4434 0.11248 0.0
O851 O 0.43657 0.41836 0.13491 0.0
O852 O 0.51647 0.43872 0.12111 0.0
C853 C 0.40102 0.42241 0.12769 0.0
H854 H 0.44803 0.54975 0.16528 0.0
H855 H 0.43521 0.33298 0.06853 0.0
H856 H 0.54884 0.47804 0.06063 0.0
H857 H 0.42299 0.50658 0.05274 0.0
Co858 Co 0.30839 0.70869 0.86408 0.0
C859 C 0.2264 0.68098 0.87319 0.0
C860 C 0.25249 0.71459 0.89539 0.0
C861 C 0.21696 0.69755 0.90142 0.0
N862 N 0.25804 0.7049 0.87754 0.0
N863 N 0.20065 0.67594 0.88749 0.0
H864 H 0.22433 0.66445 0.86043 0.0
H865 H 0.2741 0.73074 0.9038 0.0
C866 C 0.29587 0.7967 0.87726 0.0
O867 O 0.25704 0.79318 0.88044 0.0
N868 N 0.35832 0.71065 0.8507 0.0
C869 C 0.36681 0.68975 0.83524 0.0
C870 C 0.40618 0.697 0.83046 0.0
C871 C 0.39268 0.72979 0.85535 0.0
N872 N 0.42233 0.72207 0.84311 0.0
C873 C 0.26687 0.6908 0.83002 0.0
C874 C 0.27269 0.76761 0.81539 0.0
C875 C 0.2609 0.73607 0.80375 0.0
C876 C 0.25699 0.69734 0.81143 0.0
C877 C 0.28263 0.7598 0.83374 0.0
N878 N 0.28052 0.72162 0.84091 0.0
H879 H 0.2665 0.66026 0.8352 0.0
H880 H 0.29488 0.78459 0.84142 0.0
H881 H 0.34626 0.66964 0.82821 0.0
H882 H 0.39593 0.74871 0.86743 0.0
O883 O 0.31149 0.64962 0.86299 0.0
O884 O 0.33662 0.68803 0.88511 0.0
O885 O 0.31649 0.7674 0.87071 0.0
C886 C 0.33248 0.65221 0.87819 0.0
H887 H 0.2054 0.69933 0.91533 0.0
H888 H 0.42207 0.6839 0.81888 0.0
H889 H 0.27695 0.79788 0.8101 0.0
H890 H 0.24777 0.67196 0.80301 0.0
Co891 Co 0.0447 0.5572 0.61464 0.0
C892 C 0.07212 0.47516 0.62376 0.0
C893 C 0.0388 0.5014 0.64599 0.0
C894 C 0.05583 0.46587 0.65203 0.0
N895 N 0.04832 0.50687 0.62812 0.0
N896 N 0.07726 0.44947 0.63808 0.0
H897 H 0.08854 0.47304 0.61098 0.0
H898 H 0.02284 0.52309 0.65441 0.0
C899 C 0.95674 0.54508 0.62789 0.0
O900 O 0.96014 0.50628 0.63115 0.0
N901 N 0.04293 0.60713 0.60124 0.0
C902 C 0.06399 0.61557 0.58584 0.0
C903 C 0.05673 0.65489 0.58098 0.0
C904 C 0.02368 0.64148 0.60579 0.0
N905 N 0.0315 0.67107 0.59353 0.0
C906 C 0.0623 0.51578 0.58055 0.0
C907 C 0.98542 0.52184 0.566 0.0
C908 C 0.01692 0.51052 0.55427 0.0
C909 C 0.05564 0.50615 0.56194 0.0
C910 C 0.99331 0.5314 0.58437 0.0
N911 N 0.03157 0.52936 0.5915 0.0
H912 H 0.09288 0.51542 0.5857 0.0
H913 H 0.96845 0.54308 0.59216 0.0
H914 H 0.08418 0.59501 0.57888 0.0
H915 H 0.00461 0.64478 0.61779 0.0
O916 O 0.10376 0.56001 0.61353 0.0
O917 O 0.06559 0.58536 0.63566 0.0
O918 O 0.98607 0.56555 0.62128 0.0
C919 C 0.10136 0.58102 0.62873 0.0
H920 H 0.0542 0.45439 0.66596 0.0
H921 H 0.06992 0.67073 0.56941 0.0
H922 H 0.95485 0.52489 0.56087 0.0
H923 H 0.08112 0.49779 0.55342 0.0
Co924 Co 0.19475 0.70931 0.16494 0.0
C925 C 0.2767 0.68176 0.1557 0.0
C926 C 0.25048 0.71541 0.13357 0.0
C927 C 0.28596 0.69836 0.12746 0.0
N928 N 0.24504 0.70568 0.15141 0.0
N929 N 0.30235 0.67673 0.14136 0.0
H930 H 0.27885 0.66517 0.16843 0.0
H931 H 0.2288 0.73154 0.12519 0.0
C932 C 0.20693 0.79742 0.15184 0.0
O933 O 0.24571 0.79404 0.14852 0.0
N934 N 0.14489 0.71112 0.17837 0.0
C935 C 0.13649 0.69022 0.19382 0.0
C936 C 0.09712 0.69738 0.19863 0.0
C937 C 0.11047 0.73018 0.17375 0.0
N938 N 0.08087 0.7224 0.186 0.0
C939 C 0.23656 0.69126 0.19889 0.0
C940 C 0.23112 0.76803 0.21363 0.0
C941 C 0.24317 0.73645 0.22518 0.0
C942 C 0.24685 0.69773 0.21744 0.0
C943 C 0.2208 0.76028 0.19531 0.0
N944 N 0.22277 0.72213 0.18808 0.0
H945 H 0.23681 0.66074 0.19367 0.0
H946 H 0.20844 0.7851 0.1877 0.0
H947 H 0.15711 0.67018 0.20084 0.0
H948 H 0.10715 0.74908 0.16168 0.0
O949 O 0.19176 0.65023 0.16593 0.0
O950 O 0.16645 0.68873 0.1439 0.0
O951 O 0.18652 0.76803 0.15842 0.0
C952 C 0.17071 0.65287 0.15075 0.0
H953 H 0.29741 0.70013 0.11354 0.0
H954 H 0.0813 0.68425 0.21022 0.0
H955 H 0.22701 0.79829 0.21897 0.0
H956 H 0.25624 0.67233 0.22579 0.0
Co957 Co 0.04479 0.44626 0.91467 0.0
C958 C 0.07279 0.52813 0.90554 0.0
C959 C 0.03941 0.502 0.88327 0.0
C960 C 0.05661 0.53746 0.87725 0.0
N961 N 0.04885 0.49652 0.90116 0.0
N962 N 0.07809 0.55379 0.89122 0.0
H963 H 0.08915 0.5302 0.91836 0.0
H964 H 0.02335 0.48037 0.87483 0.0
C965 C 0.95699 0.45871 0.90114 0.0
O966 O 0.96057 0.49749 0.89786 0.0
N967 N 0.04258 0.39641 0.92811 0.0
C968 C 0.06332 0.38797 0.94362 0.0
C969 C 0.05583 0.34869 0.94848 0.0
C970 C 0.02331 0.3621 0.9235 0.0
N971 N 0.03079 0.33254 0.93582 0.0
C972 C 0.06217 0.48776 0.94879 0.0
C973 C 0.98508 0.48203 0.96308 0.0
C974 C 0.01648 0.49322 0.97492 0.0
C975 C 0.05532 0.49744 0.96738 0.0
C976 C 0.99317 0.47241 0.94474 0.0
N977 N 0.03152 0.47427 0.93775 0.0
H978 H 0.09282 0.48798 0.94375 0.0
H979 H 0.96835 0.46082 0.93687 0.0
H980 H 0.08347 0.40849 0.95065 0.0
H981 H 0.00446 0.35881 0.91139 0.0
O982 O 0.10385 0.4431 0.91595 0.0
O983 O 0.06574 0.41789 0.89374 0.0
O984 O 0.98618 0.43817 0.90785 0.0
C985 C 0.10147 0.42203 0.90077 0.0
H986 H 0.05503 0.54892 0.86332 0.0
H987 H 0.06876 0.33285 0.96011 0.0
H988 H 0.95444 0.47911 0.9681 0.0
H989 H 0.08072 0.5057 0.97599 0.0
Co990 Co 0.30759 0.29435 0.66511 0.0
C991 C 0.22558 0.32215 0.65607 0.0
C992 C 0.25164 0.28889 0.63377 0.0
C993 C 0.21607 0.30594 0.62778 0.0
N994 N 0.25723 0.29834 0.65164 0.0
N995 N 0.19977 0.32735 0.64177 0.0
H996 H 0.22355 0.33846 0.66889 0.0
H997 H 0.27325 0.27291 0.62531 0.0
C998 C 0.29502 0.20653 0.65164 0.0
O999 O 0.25625 0.21011 0.6483 0.0
N1000 N 0.35756 0.29216 0.67849 0.0
C1001 C 0.36626 0.31301 0.69395 0.0
C1002 C 0.4056 0.30552 0.69872 0.0
C1003 C 0.39178 0.27283 0.67383 0.0
N1004 N 0.42153 0.28036 0.68607 0.0
C1005 C 0.26663 0.31209 0.6993 0.0
C1006 C 0.27163 0.23495 0.71358 0.0
C1007 C 0.26095 0.26646 0.72545 0.0
C1008 C 0.25709 0.30534 0.71791 0.0
C1009 C 0.28116 0.24294 0.69523 0.0
N1010 N 0.27971 0.28132 0.68824 0.0
H1011 H 0.26661 0.34274 0.69424 0.0
H1012 H 0.2923 0.21798 0.68733 0.0
H1013 H 0.34588 0.33325 0.70098 0.0
H1014 H 0.39487 0.25391 0.66175 0.0
O1015 O 0.31086 0.35342 0.66626 0.0
O1016 O 0.33582 0.31506 0.64411 0.0
O1017 O 0.31555 0.2357 0.65839 0.0
C1018 C 0.3318 0.35086 0.65106 0.0
H1019 H 0.2045 0.3043 0.61386 0.0
H1020 H 0.42163 0.31854 0.7103 0.0
H1021 H 0.2742 0.20426 0.7186 0.0
H1022 H 0.2492 0.33084 0.72652 0.0
Co1023 Co 0.4596 0.55783 0.41483 0.0
C1024 C 0.43182 0.47585 0.40569 0.0
C1025 C 0.46525 0.50195 0.38347 0.0
C1026 C 0.44817 0.46642 0.37743 0.0
N1027 N 0.4557 0.5075 0.40133 0.0
N1028 N 0.42666 0.4501 0.39137 0.0
H1029 H 0.4154 0.4738 0.41847 0.0
H1030 H 0.48132 0.52357 0.37506 0.0
C1031 C 0.54754 0.54514 0.40162 0.0
O1032 O 0.54386 0.50637 0.39832 0.0
N1033 N 0.46168 0.60776 0.42824 0.0
C1034 C 0.44076 0.61635 0.44367 0.0
C1035 C 0.44821 0.65567 0.4485 0.0
C1036 C 0.48101 0.64202 0.42365 0.0
N1037 N 0.4734 0.6717 0.4359 0.0
C1038 C 0.44157 0.51663 0.44893 0.0
C1039 C 0.51851 0.52193 0.46348 0.0
C1040 C 0.48689 0.51099 0.47522 0.0
C1041 C 0.44813 0.50699 0.46755 0.0
C1042 C 0.51071 0.53154 0.44511 0.0
N1043 N 0.47243 0.5299 0.43799 0.0
H1044 H 0.41098 0.51654 0.44377 0.0
H1045 H 0.53571 0.54289 0.43731 0.0
H1046 H 0.42051 0.59591 0.45066 0.0
H1047 H 0.49999 0.6452 0.4116 0.0
O1048 O 0.40052 0.56106 0.41586 0.0
O1049 O 0.43903 0.58611 0.3938 0.0
O1050 O 0.51834 0.56579 0.40826 0.0
C1051 C 0.40318 0.58203 0.40066 0.0
H1052 H 0.44986 0.45488 0.36351 0.0
H1053 H 0.43515 0.67162 0.46007 0.0
H1054 H 0.54912 0.52464 0.4686 0.0
H1055 H 0.42256 0.49892 0.47607 0.0
C1056 C 0.51933 0.26087 0.16922 0.0
C1057 C 0.53964 0.26765 0.18594 0.0
H1058 H 0.46418 0.24239 0.15621 0.0
C1059 C 0.51939 0.26085 0.20262 0.0
H1060 H 0.53423 0.26627 0.15618 0.0
C1061 C 0.47963 0.24741 0.20264 0.0
C1062 C 0.45919 0.2407 0.18599 0.0
H1063 H 0.53448 0.26551 0.21568 0.0
H1064 H 0.46472 0.24252 0.21572 0.0
C1065 C 0.47924 0.24773 0.16924 0.0
C1066 C 0.00897 0.2322 0.45229 0.0
C1067 C 0.01573 0.21194 0.4356 0.0
H1068 H 0.99053 0.28682 0.46542 0.0
C1069 C 0.00852 0.23207 0.41889 0.0
H1070 H 0.01396 0.21722 0.46535 0.0
C1071 C 0.99511 0.27205 0.41892 0.0
C1072 C 0.98824 0.29217 0.43568 0.0
H1073 H 0.01387 0.21715 0.40584 0.0
H1074 H 0.98955 0.28701 0.40591 0.0
C1075 C 0.99526 0.27186 0.45233 0.0
C1076 C 0.0221 0.75958 0.70291 0.0
C1077 C 0.04255 0.76632 0.68627 0.0
H1078 H 0.96725 0.7414 0.71588 0.0
C1079 C 0.02235 0.75967 0.6695 0.0
H1080 H 0.03708 0.76416 0.716 0.0
C1081 C 0.98224 0.7466 0.66944 0.0
C1082 C 0.96201 0.73956 0.68614 0.0
H1083 H 0.03736 0.76504 0.65649 0.0
H1084 H 0.96732 0.74133 0.65638 0.0
C1085 C 0.9823 0.74624 0.70284 0.0
C1086 C 0.50957 0.73124 0.91882 0.0
C1087 C 0.51646 0.71103 0.93554 0.0
H1088 H 0.49084 0.78624 0.90581 0.0
C1089 C 0.50946 0.73125 0.95222 0.0
H1090 H 0.51511 0.71636 0.90578 0.0
C1091 C 0.49578 0.77092 0.95224 0.0
C1092 C 0.48904 0.79129 0.93559 0.0
H1093 H 0.51419 0.7162 0.96528 0.0
H1094 H 0.49083 0.78583 0.96532 0.0
C1095 C 0.49619 0.77124 0.91884 0.0
C1096 C 0.48228 0.75903 0.36018 0.0
C1097 C 0.46215 0.76586 0.34342 0.0
H1098 H 0.53718 0.74026 0.37329 0.0
C1099 C 0.48247 0.75878 0.32678 0.0
H1100 H 0.46733 0.76464 0.3732 0.0
C1101 C 0.52212 0.74504 0.32684 0.0
C1102 C 0.54239 0.73831 0.34353 0.0
H1103 H 0.4675 0.76347 0.31369 0.0
H1104 H 0.5371 0.74001 0.31378 0.0
C1105 C 0.52226 0.74558 0.36024 0.0
C1106 C 0.50853 0.27178 0.57655 0.0
C1107 C 0.51557 0.29189 0.59326 0.0
H1108 H 0.49013 0.2172 0.56335 0.0
C1109 C 0.50899 0.27145 0.60995 0.0
H1110 H 0.51303 0.28699 0.56351 0.0
C1111 C 0.4959 0.23133 0.60986 0.0
C1112 C 0.48872 0.21139 0.59307 0.0
H1113 H 0.51457 0.28624 0.62301 0.0
H1114 H 0.49078 0.21616 0.62286 0.0
C1115 C 0.49514 0.23201 0.57646 0.0
C1116 C 0.0229 0.24507 0.82685 0.0
C1117 C 0.04313 0.2383 0.84355 0.0
H1118 H 0.96828 0.26343 0.81369 0.0
C1119 C 0.02293 0.24541 0.86026 0.0
H1120 H 0.03794 0.24015 0.81381 0.0
C1121 C 0.98292 0.25875 0.86019 0.0
C1122 C 0.96283 0.26562 0.84342 0.0
H1123 H 0.03782 0.24005 0.87331 0.0
H1124 H 0.96792 0.26424 0.8732 0.0
C1125 C 0.98322 0.2587 0.82679 0.0
C1126 C 0.00752 0.77187 0.07638 0.0
C1127 C 0.01399 0.79234 0.09305 0.0
H1128 H 0.98961 0.71699 0.06331 0.0
C1129 C 0.007 0.77219 0.10978 0.0
H1130 H 0.01236 0.78683 0.06331 0.0
C1131 C 0.99395 0.73207 0.10978 0.0
C1132 C 0.98725 0.7118 0.09305 0.0
H1133 H 0.01216 0.78722 0.12282 0.0
H1134 H 0.98847 0.71717 0.12281 0.0
C1135 C 0.99419 0.73207 0.07638 0.0
C1136 C 0.52315 0.75709 0.86019 0.0
C1137 C 0.54333 0.76411 0.84347 0.0
H1138 H 0.46815 0.73832 0.87316 0.0
C1139 C 0.52308 0.75723 0.82678 0.0
H1140 H 0.53807 0.76253 0.87323 0.0
C1141 C 0.48339 0.7436 0.82674 0.0
C1142 C 0.46303 0.73677 0.84339 0.0
H1143 H 0.53809 0.76208 0.81373 0.0
H1144 H 0.46843 0.73879 0.81365 0.0
C1145 C 0.48314 0.74374 0.86014 0.0
C1146 C 0.00996 0.73191 0.57696 0.0
C1147 C 0.01669 0.71173 0.59367 0.0
H1148 H 0.99152 0.78645 0.56378 0.0
C1149 C 0.00953 0.73199 0.61037 0.0
H1150 H 0.01491 0.71684 0.56392 0.0
C1151 C 0.99613 0.77198 0.61029 0.0
C1152 C 0.98923 0.79198 0.59351 0.0
H1153 H 0.01486 0.71714 0.62343 0.0
H1154 H 0.99056 0.78701 0.62329 0.0
C1155 C 0.99627 0.77157 0.57688 0.0
C1156 C 0.98231 0.24608 0.36002 0.0
C1157 C 0.96187 0.23939 0.34332 0.0
H1158 H 0.03752 0.26452 0.37295 0.0
C1159 C 0.9819 0.24651 0.32661 0.0
H1160 H 0.96757 0.24044 0.37308 0.0
C1161 C 0.02162 0.26008 0.32654 0.0
C1162 C 0.04223 0.26658 0.34317 0.0
H1163 H 0.96668 0.24193 0.31357 0.0
H1164 H 0.03639 0.2651 0.31344 0.0
C1165 C 0.02235 0.25935 0.35994 0.0
C1166 C 0.50762 0.23211 0.11014 0.0
C1167 C 0.51525 0.21206 0.09343 0.0
H1168 H 0.48816 0.28692 0.12309 0.0
C1169 C 0.50884 0.23239 0.07674 0.0
H1170 H 0.5127 0.21714 0.1232 0.0
C1171 C 0.49501 0.27201 0.07668 0.0
C1172 C 0.48753 0.29222 0.09332 0.0
H1173 H 0.51415 0.21749 0.06369 0.0
H1174 H 0.49055 0.28702 0.06359 0.0
C1175 C 0.49408 0.27205 0.11008 0.0
C1176 C 0.52215 0.24512 0.66893 0.0
C1177 C 0.54246 0.23813 0.68563 0.0
H1178 H 0.46708 0.26392 0.65599 0.0
C1179 C 0.52232 0.245 0.70233 0.0
H1180 H 0.53696 0.23967 0.65587 0.0
C1181 C 0.48264 0.25865 0.7024 0.0
C1182 C 0.46217 0.26551 0.68577 0.0
H1183 H 0.53743 0.24019 0.71538 0.0
H1184 H 0.4678 0.26349 0.7155 0.0
C1185 C 0.48215 0.25849 0.669 0.0
C1186 C 0.49528 0.7326 0.45235 0.0
C1187 C 0.48827 0.71233 0.43568 0.0
H1188 H 0.51399 0.78722 0.46543 0.0
C1189 C 0.49517 0.73249 0.41894 0.0
H1190 H 0.49053 0.7176 0.46542 0.0
C1191 C 0.50858 0.77248 0.41895 0.0
C1192 C 0.51576 0.79258 0.43569 0.0
H1193 H 0.48962 0.71757 0.40591 0.0
H1194 H 0.51395 0.78744 0.40592 0.0
C1195 C 0.50901 0.77227 0.45235 0.0
C1196 C 0.01977 0.74372 0.20242 0.0
C1197 C 0.04014 0.73701 0.18576 0.0
H1198 H 0.96505 0.76204 0.21547 0.0
C1199 C 0.02 0.74405 0.16902 0.0
H1200 H 0.03473 0.73886 0.2155 0.0
C1201 C 0.97997 0.75734 0.169 0.0
C1202 C 0.95979 0.76425 0.18573 0.0
H1203 H 0.03498 0.73873 0.15599 0.0
H1204 H 0.96506 0.76284 0.15596 0.0
C1205 C 0.98007 0.7573 0.2024 0.0
C1206 C 0.00918 0.2716 0.91888 0.0
C1207 C 0.01593 0.29191 0.93561 0.0
H1208 H 0.99059 0.21651 0.90588 0.0
C1209 C 0.00879 0.27178 0.95229 0.0
H1210 H 0.01483 0.28641 0.90584 0.0
C1211 C 0.99513 0.2321 0.95231 0.0
C1212 C 0.98854 0.21163 0.93566 0.0
H1213 H 0.01342 0.2869 0.96535 0.0
H1214 H 0.99008 0.21725 0.96539 0.0
C1215 C 0.99582 0.23159 0.91891 0.0
C1216 C 0.40769 0.10125 0.12103 0.0
C1217 C 0.41794 0.0676 0.1318 0.0
H1218 H 0.37128 0.15393 0.11824 0.0
C1219 C 0.3947 0.0589 0.14753 0.0
H1220 H 0.42474 0.10851 0.10872 0.0
C1221 C 0.36396 0.08548 0.15319 0.0
C1222 C 0.35588 0.12077 0.14305 0.0
H1223 H 0.40208 0.0332 0.15611 0.0
H1224 H 0.3484 0.07973 0.16604 0.0
C1225 C 0.37691 0.12728 0.1265 0.0
C1226 C 0.15408 0.15801 0.37051 0.0
C1227 C 0.18748 0.16876 0.38137 0.0
H1228 H 0.10171 0.12114 0.36769 0.0
C1229 C 0.1961 0.1459 0.39724 0.0
H1230 H 0.14689 0.17477 0.35811 0.0
C1231 C 0.16964 0.11509 0.40295 0.0
C1232 C 0.13455 0.10652 0.39272 0.0
H1233 H 0.22161 0.15366 0.40589 0.0
H1234 H 0.17525 0.09991 0.41592 0.0
C1235 C 0.1282 0.12713 0.37603 0.0
C1236 C 0.13928 0.9187 0.65363 0.0
C1237 C 0.14777 0.88372 0.64332 0.0
H1238 H 0.10087 0.97076 0.65661 0.0
C1239 C 0.12732 0.87768 0.62656 0.0
H1240 H 0.15436 0.92405 0.66665 0.0
C1241 C 0.09663 0.90377 0.62103 0.0
C1242 C 0.08591 0.93703 0.63195 0.0
H1243 H 0.1333 0.85129 0.61816 0.0
H1244 H 0.07997 0.89682 0.60856 0.0
C1245 C 0.10864 0.94536 0.64791 0.0
C1246 C 0.35093 0.84545 0.87062 0.0
C1247 C 0.31758 0.83471 0.88145 0.0
H1248 H 0.40326 0.88236 0.86782 0.0
C1249 C 0.30896 0.85756 0.89733 0.0
H1250 H 0.35812 0.82867 0.85822 0.0
C1251 C 0.33542 0.88839 0.90307 0.0
C1252 C 0.37048 0.89697 0.89285 0.0
H1253 H 0.28347 0.84977 0.90597 0.0
H1254 H 0.32984 0.90356 0.91604 0.0
C1255 C 0.3768 0.87636 0.87615 0.0
C1256 C 0.40817 0.90435 0.408 0.0
C1257 C 0.41903 0.93742 0.397 0.0
H1258 H 0.37108 0.8522 0.41103 0.0
C1259 C 0.39617 0.94577 0.38109 0.0
H1260 H 0.42491 0.89739 0.42044 0.0
C1261 C 0.36524 0.91932 0.37549 0.0
C1262 C 0.35656 0.88452 0.38587 0.0
H1263 H 0.40402 0.97104 0.37233 0.0
H1264 H 0.35006 0.92468 0.36249 0.0
C1265 C 0.37716 0.87847 0.40259 0.0
C1266 C 0.37625 0.12724 0.65257 0.0
C1267 C 0.36987 0.10676 0.63584 0.0
H1268 H 0.35748 0.17463 0.67061 0.0
C1269 C 0.33469 0.11524 0.62566 0.0
H1270 H 0.4028 0.12127 0.66086 0.0
C1271 C 0.30815 0.14589 0.63147 0.0
C1272 C 0.3168 0.16863 0.64738 0.0
H1273 H 0.32906 0.10012 0.61268 0.0
H1274 H 0.28258 0.15364 0.62286 0.0
C1275 C 0.35028 0.15795 0.65818 0.0
C1276 C 0.10906 0.05786 0.8817 0.0
C1277 C 0.08617 0.06637 0.89756 0.0
H1278 H 0.15512 0.07882 0.86309 0.0
C1279 C 0.09693 0.09964 0.90848 0.0
H1280 H 0.10127 0.03244 0.87299 0.0
C1281 C 0.12787 0.12552 0.90305 0.0
C1282 C 0.14851 0.1193 0.88636 0.0
H1283 H 0.08015 0.10674 0.92089 0.0
H1284 H 0.13388 0.15192 0.91143 0.0
C1285 C 0.13992 0.08433 0.87605 0.0
C1286 C 0.19353 0.85834 0.13187 0.0
C1287 C 0.18497 0.8353 0.14769 0.0
H1288 H 0.17243 0.90432 0.11323 0.0
C1289 C 0.15144 0.84568 0.15849 0.0
H1290 H 0.21913 0.85082 0.12326 0.0
C1291 C 0.12536 0.87638 0.15298 0.0
C1292 C 0.13165 0.89717 0.13634 0.0
H1293 H 0.1443 0.82877 0.17085 0.0
H1294 H 0.09878 0.88211 0.16127 0.0
C1295 C 0.16686 0.88898 0.12616 0.0
C1296 C 0.59696 0.90301 0.90827 0.0
C1297 C 0.5863 0.93625 0.89732 0.0
H1298 H 0.63382 0.8507 0.91128 0.0
C1299 C 0.60929 0.94468 0.88148 0.0
H1300 H 0.5801 0.89597 0.92066 0.0
C1301 C 0.64016 0.91817 0.87589 0.0
C1302 C 0.64864 0.88323 0.88622 0.0
H1303 H 0.60159 0.97007 0.87276 0.0
H1304 H 0.65545 0.92362 0.86295 0.0
C1305 C 0.62789 0.87708 0.90288 0.0
C1306 C 0.87603 0.87761 0.65262 0.0
C1307 C 0.87 0.89794 0.63583 0.0
H1308 H 0.85706 0.83022 0.6706 0.0
C1309 C 0.83515 0.88914 0.62547 0.0
H1310 H 0.90233 0.8838 0.66105 0.0
C1311 C 0.80863 0.85837 0.63117 0.0
C1312 C 0.81697 0.83578 0.64715 0.0
H1313 H 0.8298 0.9041 0.61243 0.0
H1314 H 0.78333 0.85041 0.62242 0.0
C1315 C 0.85009 0.84677 0.65812 0.0
C1316 C 0.86515 0.08531 0.37552 0.0
C1317 C 0.8565 0.12007 0.38596 0.0
H1318 H 0.90384 0.03353 0.37231 0.0
C1319 C 0.87704 0.12597 0.40271 0.0
H1320 H 0.85001 0.08006 0.36251 0.0
C1321 C 0.90796 0.1 0.4081 0.0
C1322 C 0.9188 0.06698 0.39706 0.0
H1323 H 0.87097 0.1522 0.4112 0.0
H1324 H 0.92468 0.10687 0.42056 0.0
C1325 C 0.89599 0.05875 0.38111 0.0
C1326 C 0.69467 0.14641 0.13197 0.0
C1327 C 0.68584 0.16924 0.14783 0.0
H1328 H 0.67415 0.10023 0.11328 0.0
C1329 C 0.65259 0.15824 0.15868 0.0
H1330 H 0.72009 0.15441 0.12334 0.0
C1331 C 0.627 0.1271 0.15317 0.0
C1332 C 0.63348 0.10653 0.13647 0.0
H1333 H 0.64527 0.175 0.17107 0.0
H1334 H 0.60058 0.1209 0.1615 0.0
C1335 C 0.66846 0.11537 0.12625 0.0
C1336 C 0.62763 0.12421 0.62645 0.0
C1337 C 0.64775 0.11895 0.64334 0.0
H1338 H 0.57996 0.1049 0.60865 0.0
C1339 C 0.63824 0.08505 0.65417 0.0
H1340 H 0.63438 0.14979 0.61768 0.0
C1341 C 0.6069 0.05884 0.64884 0.0
C1342 C 0.58447 0.06649 0.63272 0.0
H1343 H 0.65304 0.08033 0.66731 0.0
H1344 H 0.59843 0.0344 0.65795 0.0
C1345 C 0.59627 0.0985 0.62127 0.0
C1346 C 0.69615 0.8584 0.39772 0.0
C1347 C 0.6876 0.83542 0.38187 0.0
H1348 H 0.67522 0.90458 0.4163 0.0
C1349 C 0.65433 0.84611 0.37094 0.0
H1350 H 0.72156 0.85066 0.40643 0.0
C1351 C 0.62846 0.87708 0.37636 0.0
C1352 C 0.63471 0.89781 0.39304 0.0
H1353 H 0.64721 0.82925 0.35855 0.0
H1354 H 0.60205 0.88304 0.36797 0.0
C1355 C 0.66969 0.88929 0.40334 0.0
C1356 C 0.86274 0.91822 0.15393 0.0
C1357 C 0.85381 0.88371 0.14337 0.0
H1358 H 0.90171 0.96973 0.15731 0.0
C1359 C 0.87405 0.87808 0.12654 0.0
H1360 H 0.84783 0.92325 0.16701 0.0
C1361 C 0.90499 0.90405 0.1212 0.0
C1362 C 0.91618 0.93676 0.13238 0.0
H1363 H 0.86774 0.85204 0.11797 0.0
H1364 H 0.92149 0.89738 0.10867 0.0
C1365 C 0.89362 0.94475 0.1484 0.0
C1366 C 0.83526 0.11413 0.90307 0.0
C1367 C 0.87037 0.1056 0.89289 0.0
H1368 H 0.78327 0.15268 0.90596 0.0
C1369 C 0.87677 0.12625 0.87621 0.0
H1370 H 0.82961 0.09891 0.91602 0.0
C1371 C 0.85091 0.15714 0.87069 0.0
C1372 C 0.81749 0.16783 0.8815 0.0
H1373 H 0.90328 0.12029 0.86791 0.0
H1374 H 0.85814 0.17394 0.85831 0.0
C1375 C 0.8088 0.14493 0.89734 0.0
C1376 C 0.90819 0.60023 0.62111 0.0
C1377 C 0.9188 0.56692 0.63201 0.0
H1378 H 0.87145 0.65264 0.61819 0.0
C1379 C 0.89587 0.55844 0.64786 0.0
H1380 H 0.92503 0.6073 0.60872 0.0
C1381 C 0.86512 0.58501 0.65352 0.0
C1382 C 0.85668 0.62003 0.64324 0.0
H1383 H 0.90356 0.53298 0.65654 0.0
H1384 H 0.84987 0.57953 0.66647 0.0
C1385 C 0.87735 0.62621 0.62656 0.0
C1386 C 0.67021 0.61377 0.90361 0.0
C1387 C 0.63551 0.60496 0.89314 0.0
H1388 H 0.72188 0.65264 0.90685 0.0
C1389 C 0.62965 0.62535 0.87636 0.0
H1390 H 0.67542 0.59876 0.91665 0.0
C1391 C 0.65557 0.65631 0.87098 0.0
C1392 C 0.68851 0.66732 0.88206 0.0
H1393 H 0.60348 0.61916 0.86785 0.0
H1394 H 0.64872 0.67293 0.8585 0.0
C1395 C 0.69672 0.64465 0.89802 0.0
C1396 C 0.6259 0.37939 0.12648 0.0
C1397 C 0.64604 0.38548 0.14332 0.0
H1398 H 0.57849 0.39809 0.10842 0.0
C1399 C 0.63702 0.42027 0.15366 0.0
H1400 H 0.63226 0.35313 0.11805 0.0
C1401 C 0.60617 0.44665 0.1479 0.0
C1402 C 0.58374 0.43818 0.13188 0.0
H1403 H 0.65184 0.42566 0.16675 0.0
H1404 H 0.59799 0.47189 0.15663 0.0
C1405 C 0.59495 0.40514 0.12093 0.0
C1406 C 0.80842 0.35883 0.39811 0.0
C1407 C 0.81664 0.33624 0.38211 0.0
H1408 H 0.8297 0.40465 0.41681 0.0
C1409 C 0.84953 0.34734 0.37106 0.0
H1410 H 0.78329 0.35075 0.40691 0.0
C1411 C 0.87541 0.37831 0.3765 0.0
C1412 C 0.86956 0.39861 0.39331 0.0
H1413 H 0.85638 0.33077 0.35857 0.0
H1414 H 0.90157 0.38457 0.36801 0.0
C1415 C 0.8349 0.38971 0.40375 0.0
C1416 C 0.86533 0.41886 0.87542 0.0
C1417 C 0.85662 0.38405 0.8858 0.0
H1418 H 0.90409 0.47063 0.87232 0.0
C1419 C 0.8771 0.37805 0.90256 0.0
H1420 H 0.85024 0.42418 0.8624 0.0
C1421 C 0.90804 0.40395 0.908 0.0
C1422 C 0.91894 0.43703 0.89701 0.0
H1423 H 0.87099 0.35178 0.91099 0.0
H1424 H 0.92474 0.397 0.92045 0.0
C1425 C 0.89619 0.44537 0.88107 0.0
C1426 C 0.83315 0.61446 0.12519 0.0
C1427 C 0.86794 0.60568 0.13559 0.0
H1428 H 0.78128 0.6531 0.12215 0.0
C1429 C 0.87378 0.62584 0.15244 0.0
H1430 H 0.82795 0.59962 0.1121 0.0
C1431 C 0.84774 0.65657 0.15797 0.0
C1432 C 0.81469 0.66756 0.14697 0.0
H1433 H 0.90002 0.61965 0.16091 0.0
H1434 H 0.85456 0.67303 0.1705 0.0
C1435 C 0.80651 0.6451 0.13092 0.0
C1436 C 0.59651 0.59994 0.40846 0.0
C1437 C 0.58564 0.56673 0.39753 0.0
H1438 H 0.63361 0.65211 0.41141 0.0
C1439 C 0.60848 0.55814 0.38166 0.0
H1440 H 0.57974 0.60708 0.42086 0.0
C1441 C 0.63941 0.58453 0.37602 0.0
C1442 C 0.6481 0.61947 0.38632 0.0
H1443 H 0.6006 0.53276 0.37296 0.0
H1444 H 0.65457 0.579 0.36304 0.0
C1445 C 0.62752 0.62573 0.40303 0.0
C1446 C 0.65454 0.34618 0.65801 0.0
C1447 C 0.68753 0.33527 0.64698 0.0
H1448 H 0.60242 0.38327 0.66109 0.0
C1449 C 0.6958 0.35802 0.63104 0.0
H1450 H 0.64765 0.32949 0.67046 0.0
C1451 C 0.66929 0.3889 0.62545 0.0
C1452 C 0.63456 0.39763 0.63587 0.0
H1453 H 0.721 0.35009 0.62226 0.0
H1454 H 0.67456 0.40399 0.61243 0.0
C1455 C 0.62863 0.37715 0.65262 0.0
C1456 C 0.0964 0.40369 0.40826 0.0
C1457 C 0.08587 0.43727 0.39751 0.0
H1458 H 0.13305 0.35115 0.41095 0.0
C1459 C 0.10885 0.44606 0.38171 0.0
H1460 H 0.07953 0.39637 0.4206 0.0
C1461 C 0.13959 0.41957 0.37595 0.0
C1462 C 0.14796 0.38431 0.38607 0.0
H1463 H 0.10123 0.47172 0.37314 0.0
H1464 H 0.15489 0.42532 0.36303 0.0
C1465 C 0.12722 0.37778 0.4027 0.0
C1466 C 0.33352 0.38796 0.12398 0.0
C1467 C 0.36713 0.39787 0.13496 0.0
H1468 H 0.28308 0.34791 0.1201 0.0
C1469 C 0.372 0.37825 0.15199 0.0
H1470 H 0.32911 0.40235 0.11074 0.0
C1471 C 0.34622 0.34699 0.1572 0.0
C1472 C 0.31452 0.33477 0.14561 0.0
H1473 H 0.39735 0.38532 0.16087 0.0
H1474 H 0.35233 0.33107 0.16994 0.0
C1475 C 0.30726 0.35671 0.12933 0.0
C1476 C 0.36553 0.58367 0.87551 0.0
C1477 C 0.35682 0.61855 0.88585 0.0
H1478 H 0.40428 0.53188 0.87245 0.0
C1479 C 0.37732 0.62467 0.9026 0.0
H1480 H 0.35043 0.57825 0.86249 0.0
C1481 C 0.40827 0.59882 0.90806 0.0
C1482 C 0.41915 0.56567 0.8971 0.0
H1483 H 0.37122 0.651 0.91101 0.0
H1484 H 0.42498 0.60586 0.9205 0.0
C1485 C 0.39638 0.55721 0.88118 0.0
C1486 C 0.15526 0.65646 0.65858 0.0
C1487 C 0.18795 0.66777 0.64744 0.0
H1488 H 0.1034 0.61901 0.66172 0.0
C1489 C 0.19609 0.64526 0.63142 0.0
H1490 H 0.14848 0.67295 0.6711 0.0
C1491 C 0.16968 0.61429 0.62582 0.0
C1492 C 0.13516 0.60524 0.63633 0.0
H1493 H 0.22106 0.65348 0.62255 0.0
H1494 H 0.17478 0.59944 0.61273 0.0
C1495 C 0.12944 0.62541 0.65318 0.0
C1496 C 0.13771 0.58431 0.15333 0.0
C1497 C 0.14649 0.61919 0.14302 0.0
H1498 H 0.09891 0.53253 0.15631 0.0
C1499 C 0.12614 0.62529 0.12624 0.0
H1500 H 0.1527 0.57891 0.16637 0.0
C1501 C 0.09524 0.59942 0.12072 0.0
C1502 C 0.08426 0.56629 0.13164 0.0
H1503 H 0.13232 0.65162 0.11785 0.0
H1504 H 0.07863 0.60646 0.10825 0.0
C1505 C 0.1069 0.55784 0.1476 0.0
C1506 C 0.16988 0.38884 0.90375 0.0
C1507 C 0.13522 0.39761 0.89326 0.0
H1508 H 0.22152 0.34999 0.90704 0.0
C1509 C 0.12939 0.37712 0.87649 0.0
H1510 H 0.17507 0.40394 0.91678 0.0
C1511 C 0.1553 0.34612 0.87114 0.0
C1512 C 0.18821 0.33517 0.88224 0.0
H1513 H 0.10324 0.38327 0.86796 0.0
H1514 H 0.14847 0.32944 0.85867 0.0
C1515 C 0.19638 0.35793 0.8982 0.0
C1516 C 0.4074 0.40426 0.62114 0.0
C1517 C 0.41849 0.43733 0.63211 0.0
H1518 H 0.37019 0.35217 0.61819 0.0
C1519 C 0.39593 0.44573 0.64809 0.0
H1520 H 0.42394 0.39725 0.60866 0.0
C1521 C 0.36507 0.41931 0.65378 0.0
C1522 C 0.35616 0.3845 0.64341 0.0
H1523 H 0.40399 0.47099 0.65683 0.0
H1524 H 0.35014 0.42468 0.66682 0.0
C1525 C 0.37645 0.37843 0.62662 0.0
C1526 C 0.34982 0.65761 0.37068 0.0
C1527 C 0.31658 0.66849 0.38156 0.0
H1528 H 0.4021 0.62066 0.36784 0.0
C1529 C 0.30808 0.64578 0.39749 0.0
H1530 H 0.35691 0.67428 0.35824 0.0
C1531 C 0.33458 0.61501 0.40322 0.0
C1532 C 0.36954 0.60632 0.39295 0.0
H1533 H 0.2827 0.65368 0.40616 0.0
H1534 H 0.32911 0.59996 0.41622 0.0
C1535 C 0.37571 0.62675 0.3762 0.0
C1536 C 0.11101 0.11039 0.12498 0.0
C1537 C 0.10363 0.08552 0.14027 0.0
H1538 H 0.14553 0.15865 0.11355 0.0
C1539 C 0.1261 0.09199 0.15644 0.0
H1540 H 0.09379 0.10652 0.11241 0.0
C1541 C 0.15623 0.12153 0.1571 0.0
C1542 C 0.16474 0.14573 0.14161 0.0
H1543 H 0.12159 0.07312 0.16843 0.0
H1544 H 0.17352 0.12415 0.16966 0.0
C1545 C 0.14091 0.14028 0.12567 0.0
C1546 C 0.15193 0.86956 0.40568 0.0
C1547 C 0.16656 0.8556 0.38861 0.0
H1548 H 0.11194 0.90928 0.41995 0.0
C1549 C 0.14906 0.87119 0.37243 0.0
H1550 H 0.16428 0.85854 0.41851 0.0
C1551 C 0.11937 0.90119 0.37327 0.0
C1552 C 0.10591 0.91637 0.39033 0.0
H1553 H 0.15863 0.86073 0.35901 0.0
H1554 H 0.108 0.91311 0.36042 0.0
C1555 C 0.12197 0.89931 0.40652 0.0
C1556 C 0.34242 0.87699 0.62262 0.0
C1557 C 0.33576 0.85522 0.63895 0.0
H1558 H 0.37477 0.92377 0.60909 0.0
C1559 C 0.36045 0.86327 0.65426 0.0
H1560 H 0.32372 0.87191 0.61061 0.0
C1561 C 0.3903 0.89317 0.65342 0.0
C1562 C 0.39591 0.91637 0.63732 0.0
H1563 H 0.35647 0.84657 0.66695 0.0
H1564 H 0.40847 0.89827 0.66557 0.0
C1565 C 0.37194 0.90713 0.62181 0.0
C1566 C 0.35574 0.13201 0.87273 0.0
C1567 C 0.33854 0.14777 0.88894 0.0
H1568 H 0.39656 0.08992 0.86066 0.0
C1569 C 0.35351 0.13396 0.90598 0.0
H1570 H 0.34592 0.14232 0.85932 0.0
C1571 C 0.38347 0.10422 0.90677 0.0
C1572 C 0.39921 0.087 0.89056 0.0
H1573 H 0.34145 0.14511 0.91884 0.0
H1574 H 0.39376 0.09438 0.92018 0.0
C1575 C 0.38543 0.102 0.87352 0.0
C1576 C 0.88344 0.89837 0.90688 0.0
C1577 C 0.89931 0.91554 0.8907 0.0
H1578 H 0.84133 0.85749 0.91889 0.0
C1579 C 0.88568 0.90047 0.87363 0.0
H1580 H 0.89363 0.90827 0.92031 0.0
C1581 C 0.856 0.87044 0.8728 0.0
C1582 C 0.83868 0.85472 0.88898 0.0
H1583 H 0.8969 0.91251 0.86079 0.0
H1584 H 0.84629 0.86006 0.85937 0.0
C1585 C 0.8535 0.8686 0.90605 0.0
C1586 C 0.88518 0.10288 0.65539 0.0
C1587 C 0.89867 0.08771 0.63833 0.0
H1588 H 0.84582 0.14325 0.66963 0.0
C1589 C 0.88255 0.10469 0.62213 0.0
H1590 H 0.89661 0.09101 0.66824 0.0
C1591 C 0.8525 0.13434 0.62296 0.0
C1592 C 0.83784 0.1483 0.64003 0.0
H1593 H 0.8926 0.09472 0.60871 0.0
H1594 H 0.84012 0.1453 0.61013 0.0
C1595 C 0.85541 0.13279 0.65621 0.0
C1596 C 0.62221 0.10507 0.40677 0.0
C1597 C 0.60617 0.08806 0.39056 0.0
H1598 H 0.66448 0.14583 0.41883 0.0
C1599 C 0.6196 0.10336 0.37352 0.0
H1600 H 0.61221 0.09502 0.42018 0.0
C1601 C 0.64925 0.13341 0.37273 0.0
C1602 C 0.66676 0.14893 0.38893 0.0
H1603 H 0.60823 0.09152 0.36064 0.0
H1604 H 0.65879 0.14396 0.35932 0.0
C1605 C 0.65214 0.13486 0.40598 0.0
C1606 C 0.64724 0.87086 0.15663 0.0
C1607 C 0.66445 0.855 0.14044 0.0
H1608 H 0.60659 0.9132 0.16864 0.0
C1609 C 0.64969 0.8689 0.12338 0.0
H1610 H 0.6569 0.86048 0.17005 0.0
C1611 C 0.61992 0.89883 0.12254 0.0
C1612 C 0.60417 0.91614 0.13873 0.0
H1613 H 0.66178 0.85768 0.11053 0.0
H1614 H 0.60978 0.90873 0.10912 0.0
C1615 C 0.61773 0.90105 0.15579 0.0
C1616 C 0.62187 0.60463 0.62259 0.0
C1617 C 0.60608 0.58736 0.63877 0.0
H1618 H 0.66392 0.64556 0.61059 0.0
C1619 C 0.61989 0.60226 0.65584 0.0
H1620 H 0.61157 0.59486 0.60917 0.0
C1621 C 0.64962 0.63225 0.65668 0.0
C1622 C 0.66683 0.6481 0.6405 0.0
H1623 H 0.60874 0.59013 0.66868 0.0
H1624 H 0.65944 0.6425 0.67011 0.0
C1625 C 0.65186 0.63435 0.62343 0.0
C1626 C 0.64956 0.37052 0.87229 0.0
C1627 C 0.66693 0.35467 0.88844 0.0
H1628 H 0.60855 0.41265 0.86035 0.0
C1629 C 0.65213 0.36835 0.90554 0.0
H1630 H 0.65927 0.36031 0.85885 0.0
C1631 C 0.62215 0.39805 0.90642 0.0
C1632 C 0.6062 0.41534 0.89027 0.0
H1633 H 0.66437 0.35713 0.91836 0.0
H1634 H 0.61198 0.40781 0.91986 0.0
C1635 C 0.61983 0.40048 0.87317 0.0
C1636 C 0.88287 0.40213 0.15575 0.0
C1637 C 0.89655 0.41672 0.13863 0.0
H1638 H 0.84329 0.36226 0.17017 0.0
C1639 C 0.88049 0.39932 0.12251 0.0
H1640 H 0.89422 0.41441 0.16855 0.0
C1641 C 0.85039 0.36972 0.12347 0.0
C1642 C 0.83559 0.35627 0.14059 0.0
H1643 H 0.89067 0.40888 0.10905 0.0
H1644 H 0.83809 0.35839 0.11067 0.0
C1645 C 0.85302 0.37229 0.15671 0.0
C1646 C 0.85321 0.63502 0.40593 0.0
C1647 C 0.83818 0.64855 0.38885 0.0
H1648 H 0.8936 0.59574 0.42023 0.0
C1649 C 0.85541 0.63261 0.37268 0.0
H1650 H 0.84111 0.64631 0.41876 0.0
C1651 C 0.8852 0.60271 0.37355 0.0
C1652 C 0.89904 0.58801 0.39064 0.0
H1653 H 0.84553 0.64271 0.35924 0.0
H1654 H 0.89636 0.59046 0.36073 0.0
C1655 C 0.88325 0.60539 0.4068 0.0
C1656 C 0.3527 0.36953 0.40563 0.0
C1657 C 0.33791 0.3558 0.38853 0.0
H1658 H 0.39282 0.40905 0.41998 0.0
C1659 C 0.35529 0.37164 0.37238 0.0
H1660 H 0.34048 0.35833 0.41845 0.0
C1661 C 0.385 0.40163 0.37329 0.0
C1662 C 0.39859 0.41654 0.39039 0.0
H1663 H 0.3456 0.36138 0.35894 0.0
H1664 H 0.39628 0.41378 0.36047 0.0
C1665 C 0.38266 0.39926 0.40653 0.0
C1666 C 0.38316 0.60295 0.15553 0.0
C1667 C 0.39643 0.58783 0.13842 0.0
H1668 H 0.34406 0.64339 0.16989 0.0
C1669 C 0.38018 0.60491 0.12228 0.0
H1670 H 0.39467 0.59096 0.16834 0.0
C1671 C 0.35026 0.63468 0.1232 0.0
C1672 C 0.33584 0.64862 0.14032 0.0
H1673 H 0.39006 0.59496 0.10883 0.0
H1674 H 0.33776 0.64574 0.11041 0.0
C1675 C 0.3535 0.63296 0.15645 0.0
C1676 C 0.1523 0.63421 0.90555 0.0
C1677 C 0.16707 0.64789 0.88846 0.0
H1678 H 0.11212 0.59478 0.91987 0.0
C1679 C 0.14964 0.63207 0.8723 0.0
H1680 H 0.16459 0.6454 0.91837 0.0
C1681 C 0.11987 0.60214 0.87318 0.0
C1682 C 0.10626 0.58728 0.89027 0.0
H1683 H 0.15934 0.6423 0.85887 0.0
H1684 H 0.10855 0.59002 0.86035 0.0
C1685 C 0.12227 0.60453 0.90643 0.0
C1686 C 0.14906 0.37141 0.65701 0.0
C1687 C 0.16616 0.35536 0.64084 0.0
H1688 H 0.10822 0.41368 0.66897 0.0
C1689 C 0.15103 0.36879 0.62376 0.0
H1690 H 0.15901 0.36139 0.67045 0.0
C1691 C 0.121 0.39845 0.6229 0.0
C1692 C 0.10535 0.41594 0.63906 0.0
H1693 H 0.16301 0.35743 0.61093 0.0
H1694 H 0.11057 0.40801 0.60947 0.0
C1695 C 0.11928 0.40133 0.65614 0.0
C1696 C 0.271 0.21847 0.25792 0.0
C1697 C 0.25296 0.2446 0.24503 0.0
H1698 H 0.28353 0.20599 0.28633 0.0
C1699 C 0.23319 0.27936 0.25164 0.0
H1700 H 0.28731 0.19193 0.2534 0.0
C1701 C 0.23147 0.28768 0.27056 0.0
C1702 C 0.24932 0.26141 0.28343 0.0
H1703 H 0.21856 0.3 0.24219 0.0
H1704 H 0.21522 0.31421 0.27514 0.0
C1705 C 0.26915 0.22672 0.27684 0.0
C1706 C 0.97575 0.0279 0.52328 0.0
C1707 C 0.99565 0.99807 0.53362 0.0
H1708 H 0.96764 0.05575 0.49695 0.0
C1709 C 0.02285 0.97221 0.52444 0.0
H1710 H 0.95503 0.04865 0.52987 0.0
C1711 C 0.03008 0.97619 0.50551 0.0
C1712 C 0.01014 0.00599 0.49517 0.0
H1713 H 0.03816 0.9483 0.53183 0.0
H1714 H 0.0508 0.95545 0.49891 0.0
C1715 C 0.98297 0.03187 0.50435 0.0
C1716 C 0.2384 0.77928 0.77698 0.0
C1717 C 0.25609 0.74339 0.78354 0.0
H1718 H 0.2215 0.81478 0.75354 0.0
C1719 C 0.27152 0.71576 0.77061 0.0
H1720 H 0.22588 0.80112 0.7865 0.0
C1721 C 0.26931 0.72378 0.75168 0.0
C1722 C 0.25156 0.75963 0.74512 0.0
H1723 H 0.28616 0.68826 0.77512 0.0
H1724 H 0.28183 0.70193 0.74216 0.0
C1725 C 0.23618 0.78729 0.75805 0.0
C1726 C 0.52235 0.97193 1.00458 0.0
C1727 C 0.49515 0.99771 0.99535 0.0
H1728 H 0.55022 0.9553 0.03016 0.0
C1729 C 0.47515 0.02754 1.00564 0.0
H1730 H 0.53775 0.94803 0.99722 0.0
C1731 C 0.48228 0.0316 0.02458 0.0
C1732 C 0.50947 0.0058 0.03381 0.0
H1733 H 0.45442 0.04822 0.999 0.0
H1734 H 0.46688 0.05549 0.03194 0.0
C1735 C 0.52949 0.97599 0.02352 0.0
C1736 C 0.23611 0.72405 0.27727 0.0
C1737 C 0.25399 0.75993 0.28376 0.0
H1738 H 0.21868 0.68855 0.2539 0.0
C1739 C 0.26908 0.78759 0.27078 0.0
H1740 H 0.22381 0.7022 0.28684 0.0
C1741 C 0.2664 0.77959 0.25185 0.0
C1742 C 0.24852 0.74372 0.24537 0.0
H1743 H 0.28384 0.81509 0.27523 0.0
H1744 H 0.27869 0.80144 0.24229 0.0
C1745 C 0.23344 0.71605 0.25835 0.0
C1746 C 0.52345 0.02974 0.52498 0.0
C1747 C 0.49479 0.00483 0.53375 0.0
H1748 H 0.55266 0.04642 0.49975 0.0
C1749 C 0.47372 0.97647 0.52304 0.0
H1750 H 0.53975 0.05248 0.53272 0.0
C1751 C 0.4812 0.97299 0.50411 0.0
C1752 C 0.50974 0.99801 0.4953 0.0
H1753 H 0.45185 0.95648 0.52933 0.0
H1754 H 0.46496 0.95013 0.49643 0.0
C1755 C 0.53085 0.02635 0.50603 0.0
C1756 C 0.22656 0.27858 0.75602 0.0
C1757 C 0.25647 0.25888 0.74567 0.0
H1758 H 0.19876 0.28649 0.78237 0.0
C1759 C 0.28257 0.23187 0.75483 0.0
H1760 H 0.20564 0.29915 0.74944 0.0
C1761 C 0.27871 0.2246 0.77377 0.0
C1762 C 0.24882 0.24431 0.78412 0.0
H1763 H 0.30656 0.21672 0.74743 0.0
H1764 H 0.29962 0.20401 0.78035 0.0
C1765 C 0.22272 0.27132 0.77496 0.0
C1766 C 0.98069 0.97331 0.02506 0.0
C1767 C 0.00786 0.99923 0.03425 0.0
H1768 H 0.95312 0.95612 0.99949 0.0
C1769 C 0.02812 0.02872 0.02388 0.0
H1770 H 0.96512 0.94964 0.03249 0.0
C1771 C 0.02124 0.03235 1.0049 0.0
C1772 C 0.99408 0.00642 0.9957 0.0
H1773 H 0.04885 0.04949 0.03048 0.0
H1774 H 0.03681 0.05603 0.99747 0.0
C1775 C 0.97383 0.97692 1.00608 0.0
C1776 C 0.78239 0.77176 0.75465 0.0
C1777 C 0.75632 0.74475 0.74545 0.0
H1778 H 0.79957 0.79934 0.78023 0.0
C1779 C 0.72658 0.72479 0.75579 0.0
H1780 H 0.80624 0.78711 0.74725 0.0
C1781 C 0.72286 0.73178 0.77476 0.0
C1782 C 0.74894 0.75877 0.78396 0.0
H1783 H 0.70569 0.7042 0.74919 0.0
H1784 H 0.69901 0.71643 0.78216 0.0
C1785 C 0.77868 0.77875 0.77362 0.0
C1786 C 0.77703 0.2796 0.25584 0.0
C1787 C 0.74637 0.26044 0.2457 0.0
H1788 H 0.80587 0.2871 0.28201 0.0
C1789 C 0.71997 0.23409 0.25507 0.0
H1790 H 0.79818 0.29966 0.24909 0.0
C1791 C 0.7243 0.22688 0.27399 0.0
C1792 C 0.75499 0.246 0.28412 0.0
H1793 H 0.69542 0.2194 0.24783 0.0
H1794 H 0.70318 0.20679 0.28073 0.0
C1795 C 0.78134 0.2724 0.27476 0.0
C1796 C 0.72229 0.2712 0.75431 0.0
C1797 C 0.74877 0.24487 0.74498 0.0
H1798 H 0.70509 0.29827 0.77998 0.0
C1799 C 0.77925 0.22562 0.75517 0.0
H1800 H 0.69788 0.28598 0.74702 0.0
C1801 C 0.78327 0.23265 0.77412 0.0
C1802 C 0.75677 0.25895 0.78346 0.0
H1803 H 0.80047 0.20557 0.74846 0.0
H1804 H 0.80767 0.21786 0.78141 0.0
C1805 C 0.7263 0.27823 0.77326 0.0
C1806 C 0.72453 0.77736 0.25569 0.0
C1807 C 0.7545 0.75775 0.24533 0.0
H1808 H 0.69692 0.78542 0.28207 0.0
C1809 C 0.78087 0.73103 0.25451 0.0
H1810 H 0.70341 0.79771 0.24909 0.0
C1811 C 0.77726 0.724 0.27347 0.0
C1812 C 0.74733 0.74366 0.28383 0.0
H1813 H 0.80489 0.71597 0.24709 0.0
H1814 H 0.79838 0.70366 0.28007 0.0
C1815 C 0.72093 0.77033 0.27465 0.0
C1816 C 0.52097 0.47104 0.02437 0.0
C1817 C 0.49475 0.49777 0.03362 0.0
H1818 H 0.54824 0.45357 0.99878 0.0
C1819 C 0.47593 0.52842 0.02337 0.0
H1820 H 0.53542 0.4465 0.0317 0.0
C1821 C 0.48325 0.53234 1.00444 0.0
C1822 C 0.50944 0.50559 0.99519 0.0
H1823 H 0.45599 0.54984 0.03002 0.0
H1824 H 0.46878 0.55685 0.99711 0.0
C1825 C 0.52831 0.47497 1.00544 0.0
C1826 C 0.0287 0.47542 0.52384 0.0
C1827 C 0.00955 0.50595 0.53404 0.0
H1828 H 0.03629 0.44702 0.4976 0.0
C1829 C 0.98331 0.53254 0.52472 0.0
H1830 H 0.04869 0.45413 0.53055 0.0
C1831 C 0.97622 0.52857 0.50577 0.0
C1832 C 0.99536 0.49804 0.49557 0.0
H1833 H 0.96862 0.55698 0.53202 0.0
H1834 H 0.95623 0.54987 0.49907 0.0
C1835 C 0.02161 0.47146 0.50489 0.0
C1836 C 0.02798 0.52828 1.00539 0.0
C1837 C 0.00885 0.49783 0.99512 0.0
H1838 H 0.03533 0.55668 0.03166 0.0
C1839 C 0.98235 0.47135 1.00435 0.0
H1840 H 0.04815 0.54949 0.99875 0.0
C1841 C 0.97502 0.47535 0.02327 0.0
C1842 C 0.99416 0.5058 0.03354 0.0
H1843 H 0.96765 0.44697 0.99699 0.0
H1844 H 0.95485 0.45414 0.02991 0.0
C1845 C 0.02064 0.53229 0.02431 0.0
C1846 C 0.47473 0.47617 0.50568 0.0
C1847 C 0.49425 0.50639 0.49545 0.0
H1848 H 0.46691 0.44791 0.53194 0.0
C1849 C 0.52092 0.53265 0.50474 0.0
H1850 H 0.45441 0.45513 0.49899 0.0
C1851 C 0.52807 0.52862 0.52369 0.0
C1852 C 0.50859 0.49836 0.53391 0.0
H1853 H 0.5359 0.55687 0.49743 0.0
H1854 H 0.54841 0.54964 0.53037 0.0
C1855 C 0.48188 0.47214 0.52462 0.0
loop_
_geom_bond_atom_site_label_1
_geom_bond_atom_site_label_2
_geom_bond_distance
_geom_bond_site_symmetry_2
_ccdc_geom_bond_type
Co0 N4 2.148 . S
Co0 N10 2.128 . S
Co0 N20 2.194 . S
Co0 O25 2.351 . S
Co0 O26 2.155 . S
Co0 O27 2.096 . S
C1 N4 1.301 . S
C1 N5 1.328 . S
C1 H6 0.930 . S
C2 C3 1.333 . S
C2 N4 1.317 . S
C2 H7 0.930 . S
C3 C2 1.333 . S
C3 N5 1.350 . S
C3 H29 0.931 . S
N4 Co0 2.148 . S
N4 C1 1.301 . S
N4 C2 1.317 . S
N5 C1 1.328 . S
N5 C3 1.350 . S
H6 C1 0.930 . S
H7 C2 0.930 . S
C8 O9 1.224 . S
C8 O27 1.247 . S
O9 C8 1.224 . S
N10 Co0 2.128 . S
N10 C11 1.355 . S
N10 C13 1.311 . S
C11 N10 1.355 . S
C11 C12 1.363 . S
C11 H23 0.929 . S
C12 C11 1.363 . S
C12 N14 1.375 . S
C12 H30 0.931 . S
C13 N10 1.311 . S
C13 N14 1.347 . S
C13 H24 0.929 . S
N14 C12 1.375 . S
N14 C13 1.347 . S
C15 C18 1.365 . S
C15 N20 1.328 . S
C15 H21 0.929 . S
C16 C17 1.362 . S
C16 C19 1.378 . S
C16 H31 0.929 . S
C17 C16 1.362 . S
C17 C18 1.366 . S
C18 C15 1.365 . S
C18 C17 1.366 . S
C18 H32 0.930 . S
C19 C16 1.378 . S
C19 N20 1.315 . S
C19 H22 0.930 . S
N20 Co0 2.194 . S
N20 C15 1.328 . S
N20 C19 1.315 . S
H21 C15 0.929 . S
H22 C19 0.930 . S
H23 C11 0.929 . S
H24 C13 0.929 . S
O25 Co0 2.351 . S
O25 C28 1.244 . S
O26 Co0 2.155 . S
O26 C28 1.240 . S
O27 Co0 2.096 . S
O27 C8 1.247 . S
C28 O25 1.244 . S
C28 O26 1.240 . S
H29 C3 0.931 . S
H30 C12 0.931 . S
H31 C16 0.929 . S
H32 C18 0.930 . S
Co33 N37 2.148 . S
Co33 N43 2.128 . S
Co33 N53 2.194 . S
Co33 O58 2.351 . S
Co33 O59 2.155 . S
Co33 O60 2.096 1_455 S
C34 N37 1.301 1_565 S
C34 N38 1.328 . S
C34 H39 0.930 . S
C35 C36 1.333 . S
C35 N37 1.317 1_565 S
C35 H40 0.931 1_465 S
C36 C35 1.333 . S
C36 N38 1.350 . S
C36 H62 0.931 . S
N37 Co33 2.148 . S
N37 C34 1.301 1_545 S
N37 C35 1.317 1_545 S
N38 C34 1.328 . S
N38 C36 1.350 . S
H39 C34 0.930 . S
H40 C35 0.931 1_645 S
C41 O42 1.224 . S
C41 O60 1.247 . S
O42 C41 1.224 . S
N43 Co33 2.128 . S
N43 C44 1.355 . S
N43 C46 1.311 1_455 S
C44 N43 1.355 . S
C44 C45 1.363 . S
C44 H56 0.929 . S
C45 C44 1.363 . S
C45 N47 1.375 1_455 S
C45 H63 0.931 . S
C46 N43 1.311 1_655 S
C46 N47 1.347 . S
C46 H57 0.929 . S
N47 C45 1.375 1_655 S
N47 C46 1.347 . S
C48 C51 1.365 . S
C48 N53 1.328 . S
C48 H54 0.929 . S
C49 C50 1.362 1_655 S
C49 C52 1.378 . S
C49 H64 0.929 . S
C50 C49 1.362 1_455 S
C50 C51 1.366 . S
C51 C48 1.365 . S
C51 C50 1.366 . S
C51 H65 0.930 . S
C52 C49 1.378 . S
C52 N53 1.315 1_655 S
C52 H55 0.930 . S
N53 Co33 2.194 . S
N53 C48 1.328 . S
N53 C52 1.315 1_455 S
H54 C48 0.929 . S
H55 C52 0.930 . S
H56 C44 0.929 . S
H57 C46 0.929 . S
O58 Co33 2.351 . S
O58 C61 1.244 . S
O59 Co33 2.155 . S
O59 C61 1.240 . S
O60 Co33 2.096 1_655 S
O60 C41 1.247 . S
C61 O58 1.244 . S
C61 O59 1.240 . S
H62 C36 0.931 . S
H63 C45 0.931 . S
H64 C49 0.929 . S
H65 C51 0.930 . S
Co66 N70 2.148 . S
Co66 N76 2.128 . S
Co66 N86 2.194 . S
Co66 O91 2.351 . S
Co66 O92 2.155 . S
Co66 O93 2.096 . S
C67 N70 1.301 . S
C67 N71 1.328 . S
C67 H72 0.930 . S
C68 C69 1.333 . S
C68 N70 1.317 . S
C68 H73 0.930 . S
C69 C68 1.333 . S
C69 N71 1.350 . S
C69 H95 0.931 . S
N70 Co66 2.148 . S
N70 C67 1.301 . S
N70 C68 1.317 . S
N71 C67 1.328 . S
N71 C69 1.350 . S
H72 C67 0.930 . S
H73 C68 0.930 . S
C74 O75 1.224 . S
C74 O93 1.247 . S
O75 C74 1.224 . S
N76 Co66 2.128 . S
N76 C77 1.355 . S
N76 C79 1.311 . S
C77 N76 1.355 . S
C77 C78 1.363 . S
C77 H89 0.929 . S
C78 C77 1.363 . S
C78 N80 1.375 . S
C78 H96 0.931 . S
C79 N76 1.311 . S
C79 N80 1.347 . S
C79 H90 0.929 . S
N80 C78 1.375 . S
N80 C79 1.347 . S
C81 C84 1.365 . S
C81 N86 1.328 . S
C81 H87 0.929 . S
C82 C83 1.362 . S
C82 C85 1.378 . S
C82 H97 0.929 . S
C83 C82 1.362 . S
C83 C84 1.366 . S
C84 C81 1.365 . S
C84 C83 1.366 . S
C84 H98 0.930 . S
C85 C82 1.378 . S
C85 N86 1.315 . S
C85 H88 0.930 . S
N86 Co66 2.194 . S
N86 C81 1.328 . S
N86 C85 1.315 . S
H87 C81 0.929 . S
H88 C85 0.930 . S
H89 C77 0.929 . S
H90 C79 0.929 . S
O91 Co66 2.351 . S
O91 C94 1.244 . S
O92 Co66 2.155 . S
O92 C94 1.240 . S
O93 Co66 2.096 . S
O93 C74 1.247 . S
C94 O91 1.244 . S
C94 O92 1.240 . S
H95 C69 0.931 . S
H96 C78 0.931 . S
H97 C82 0.929 . S
H98 C84 0.930 . S
Co99 N103 2.148 . S
Co99 N109 2.128 . S
Co99 N119 2.194 . S
Co99 O124 2.351 . S
Co99 O125 2.155 . S
Co99 O126 2.096 . S
C100 N103 1.301 1_545 S
C100 N104 1.328 . S
C100 H105 0.930 . S
C101 C102 1.333 . S
C101 N103 1.317 1_545 S
C101 H106 0.931 1_545 S
C102 C101 1.333 . S
C102 N104 1.350 . S
C102 H128 0.931 . S
N103 Co99 2.148 . S
N103 C100 1.301 1_565 S
N103 C101 1.317 1_565 S
N104 C100 1.328 . S
N104 C102 1.350 . S
H105 C100 0.930 . S
H106 C101 0.931 1_565 S
C107 O108 1.224 . S
C107 O126 1.247 . S
O108 C107 1.224 . S
N109 Co99 2.128 . S
N109 C110 1.355 . S
N109 C112 1.311 . S
C110 N109 1.355 . S
C110 C111 1.363 . S
C110 H122 0.929 . S
C111 C110 1.363 . S
C111 N113 1.375 . S
C111 H129 0.931 . S
C112 N109 1.311 . S
C112 N113 1.347 . S
C112 H123 0.929 . S
N113 C111 1.375 . S
N113 C112 1.347 . S
C114 C117 1.365 . S
C114 N119 1.328 . S
C114 H120 0.929 . S
C115 C116 1.362 . S
C115 C118 1.378 . S
C115 H130 0.929 . S
C116 C115 1.362 . S
C116 C117 1.366 . S
C117 C114 1.365 . S
C117 C116 1.366 . S
C117 H131 0.930 . S
C118 C115 1.378 . S
C118 N119 1.315 . S
C118 H121 0.930 . S
N119 Co99 2.194 . S
N119 C114 1.328 . S
N119 C118 1.315 . S
H120 C114 0.929 . S
H121 C118 0.930 . S
H122 C110 0.929 . S
H123 C112 0.929 . S
O124 Co99 2.351 . S
O124 C127 1.244 . S
O125 Co99 2.155 . S
O125 C127 1.240 . S
O126 Co99 2.096 . S
O126 C107 1.247 . S
C127 O124 1.244 . S
C127 O125 1.240 . S
H128 C102 0.931 . S
H129 C111 0.931 . S
H130 C115 0.929 . S
H131 C117 0.930 . S
Co132 N136 2.148 . S
Co132 N142 2.128 . S
Co132 N152 2.194 . S
Co132 O157 2.351 . S
Co132 O158 2.155 . S
Co132 O159 2.096 . S
C133 N136 1.301 . S
C133 N137 1.328 . S
C133 H138 0.930 . S
C134 C135 1.333 . S
C134 N136 1.317 . S
C134 H139 0.930 . S
C135 C134 1.333 . S
C135 N137 1.350 . S
C135 H161 0.931 . S
N136 Co132 2.148 . S
N136 C133 1.301 . S
N136 C134 1.317 . S
N137 C133 1.328 . S
N137 C135 1.350 . S
H138 C133 0.930 . S
H139 C134 0.930 . S
C140 O141 1.224 . S
C140 O159 1.247 . S
O141 C140 1.224 . S
N142 Co132 2.128 . S
N142 C143 1.355 . S
N142 C145 1.311 . S
C143 N142 1.355 . S
C143 C144 1.363 . S
C143 H155 0.929 . S
C144 C143 1.363 . S
C144 N146 1.375 . S
C144 H162 0.931 . S
C145 N142 1.311 . S
C145 N146 1.347 . S
C145 H156 0.929 . S
N146 C144 1.375 . S
N146 C145 1.347 . S
C147 C150 1.365 . S
C147 N152 1.328 . S
C147 H153 0.929 . S
C148 C149 1.362 . S
C148 C151 1.378 . S
C148 H163 0.929 . S
C149 C148 1.362 . S
C149 C150 1.366 . S
C150 C147 1.365 . S
C150 C149 1.366 . S
C150 H164 0.930 . S
C151 C148 1.378 . S
C151 N152 1.315 . S
C151 H154 0.930 . S
N152 Co132 2.194 . S
N152 C147 1.328 . S
N152 C151 1.315 . S
H153 C147 0.929 . S
H154 C151 0.930 . S
H155 C143 0.929 . S
H156 C145 0.929 . S
O157 Co132 2.351 . S
O157 C160 1.244 . S
O158 Co132 2.155 . S
O158 C160 1.240 . S
O159 Co132 2.096 . S
O159 C140 1.247 . S
C160 O157 1.244 . S
C160 O158 1.240 . S
H161 C135 0.931 . S
H162 C144 0.931 . S
H163 C148 0.929 . S
H164 C150 0.930 . S
Co165 N169 2.148 . S
Co165 N175 2.128 . S
Co165 N185 2.194 . S
Co165 O190 2.351 . S
Co165 O191 2.155 . S
Co165 O192 2.096 . S
C166 N169 1.301 1_565 S
C166 N170 1.328 . S
C166 H171 0.930 . S
C167 C168 1.333 . S
C167 N169 1.317 1_565 S
C167 H172 0.931 1_565 S
C168 C167 1.333 . S
C168 N170 1.350 . S
C168 H194 0.931 . S
N169 Co165 2.148 . S
N169 C166 1.301 1_545 S
N169 C167 1.317 1_545 S
N170 C166 1.328 . S
N170 C168 1.350 . S
H171 C166 0.930 . S
H172 C167 0.931 1_545 S
C173 O174 1.224 . S
C173 O192 1.247 . S
O174 C173 1.224 . S
N175 Co165 2.128 . S
N175 C176 1.355 . S
N175 C178 1.311 . S
C176 N175 1.355 . S
C176 C177 1.363 . S
C176 H188 0.929 . S
C177 C176 1.363 . S
C177 N179 1.375 . S
C177 H195 0.931 . S
C178 N175 1.311 . S
C178 N179 1.347 . S
C178 H189 0.929 . S
N179 C177 1.375 . S
N179 C178 1.347 . S
C180 C183 1.365 . S
C180 N185 1.328 . S
C180 H186 0.929 . S
C181 C182 1.362 . S
C181 C184 1.378 . S
C181 H196 0.929 . S
C182 C181 1.362 . S
C182 C183 1.366 . S
C183 C180 1.365 . S
C183 C182 1.366 . S
C183 H197 0.930 . S
C184 C181 1.378 . S
C184 N185 1.315 . S
C184 H187 0.930 . S
N185 Co165 2.194 . S
N185 C180 1.328 . S
N185 C184 1.315 . S
H186 C180 0.929 . S
H187 C184 0.930 . S
H188 C176 0.929 . S
H189 C178 0.929 . S
O190 Co165 2.351 . S
O190 C193 1.244 . S
O191 Co165 2.155 . S
O191 C193 1.240 . S
O192 Co165 2.096 . S
O192 C173 1.247 . S
C193 O190 1.244 . S
C193 O191 1.240 . S
H194 C168 0.931 . S
H195 C177 0.931 . S
H196 C181 0.929 . S
H197 C183 0.930 . S
Co198 N202 2.148 . S
Co198 N208 2.128 . S
Co198 N218 2.194 . S
Co198 O223 2.351 . S
Co198 O224 2.155 . S
Co198 O225 2.096 . S
C199 N202 1.301 . S
C199 N203 1.328 . S
C199 H204 0.930 . S
C200 C201 1.333 . S
C200 N202 1.317 . S
C200 H205 0.930 . S
C201 C200 1.333 . S
C201 N203 1.350 . S
C201 H227 0.931 . S
N202 Co198 2.148 . S
N202 C199 1.301 . S
N202 C200 1.317 . S
N203 C199 1.328 . S
N203 C201 1.350 . S
H204 C199 0.930 . S
H205 C200 0.930 . S
C206 O207 1.224 . S
C206 O225 1.247 . S
O207 C206 1.224 . S
N208 Co198 2.128 . S
N208 C209 1.355 . S
N208 C211 1.311 . S
C209 N208 1.355 . S
C209 C210 1.363 . S
C209 H221 0.929 . S
C210 C209 1.363 . S
C210 N212 1.375 . S
C210 H228 0.931 . S
C211 N208 1.311 . S
C211 N212 1.347 . S
C211 H222 0.929 . S
N212 C210 1.375 . S
N212 C211 1.347 . S
C213 C216 1.365 . S
C213 N218 1.328 . S
C213 H219 0.929 . S
C214 C215 1.362 . S
C214 C217 1.378 . S
C214 H229 0.929 . S
C215 C214 1.362 . S
C215 C216 1.366 . S
C216 C213 1.365 . S
C216 C215 1.366 . S
C216 H230 0.930 . S
C217 C214 1.378 . S
C217 N218 1.315 . S
C217 H220 0.930 . S
N218 Co198 2.194 . S
N218 C213 1.328 . S
N218 C217 1.315 . S
H219 C213 0.929 . S
H220 C217 0.930 . S
H221 C209 0.929 . S
H222 C211 0.929 . S
O223 Co198 2.351 . S
O223 C226 1.244 . S
O224 Co198 2.155 . S
O224 C226 1.240 . S
O225 Co198 2.096 . S
O225 C206 1.247 . S
C226 O223 1.244 . S
C226 O224 1.240 . S
H227 C201 0.931 . S
H228 C210 0.931 . S
H229 C214 0.929 . S
H230 C216 0.930 . S
Co231 N235 2.148 . S
Co231 N241 2.128 . S
Co231 N251 2.194 . S
Co231 O256 2.351 . S
Co231 O257 2.155 . S
Co231 O258 2.096 1_455 S
C232 N235 1.301 1_545 S
C232 N236 1.328 . S
C232 H237 0.930 . S
C233 C234 1.333 . S
C233 N235 1.317 1_545 S
C233 H238 0.931 1_445 S
C234 C233 1.333 . S
C234 N236 1.350 . S
C234 H260 0.931 . S
N235 Co231 2.148 . S
N235 C232 1.301 1_565 S
N235 C233 1.317 1_565 S
N236 C232 1.328 . S
N236 C234 1.350 . S
H237 C232 0.930 . S
H238 C233 0.931 1_665 S
C239 O240 1.224 . S
C239 O258 1.247 . S
O240 C239 1.224 . S
N241 Co231 2.128 . S
N241 C242 1.355 . S
N241 C244 1.311 1_455 S
C242 N241 1.355 . S
C242 C243 1.363 . S
C242 H254 0.929 . S
C243 C242 1.363 . S
C243 N245 1.375 1_455 S
C243 H261 0.931 . S
C244 N241 1.311 1_655 S
C244 N245 1.347 . S
C244 H255 0.929 . S
N245 C243 1.375 1_655 S
N245 C244 1.347 . S
C246 C249 1.365 . S
C246 N251 1.328 . S
C246 H252 0.929 . S
C247 C248 1.362 1_655 S
C247 C250 1.378 . S
C247 H262 0.929 . S
C248 C247 1.362 1_455 S
C248 C249 1.366 . S
C249 C246 1.365 . S
C249 C248 1.366 . S
C249 H263 0.930 . S
C250 C247 1.378 . S
C250 N251 1.315 1_655 S
C250 H253 0.930 . S
N251 Co231 2.194 . S
N251 C246 1.328 . S
N251 C250 1.315 1_455 S
H252 C246 0.929 . S
H253 C250 0.930 . S
H254 C242 0.929 . S
H255 C244 0.929 . S
O256 Co231 2.351 . S
O256 C259 1.244 . S
O257 Co231 2.155 . S
O257 C259 1.240 . S
O258 Co231 2.096 1_655 S
O258 C239 1.247 . S
C259 O256 1.244 . S
C259 O257 1.240 . S
H260 C234 0.931 . S
H261 C243 0.931 . S
H262 C247 0.929 . S
H263 C249 0.930 . S
Co264 N268 2.148 . S
Co264 N274 2.128 . S
Co264 N284 2.194 . S
Co264 O289 2.351 . S
Co264 O290 2.155 . S
Co264 O291 2.096 . S
C265 N268 1.301 . S
C265 N269 1.328 . S
C265 H270 0.930 . S
C266 C267 1.333 . S
C266 N268 1.317 . S
C266 H271 0.930 . S
C267 C266 1.333 . S
C267 N269 1.350 . S
C267 H293 0.931 . S
N268 Co264 2.148 . S
N268 C265 1.301 . S
N268 C266 1.317 . S
N269 C265 1.328 . S
N269 C267 1.350 . S
H270 C265 0.930 . S
H271 C266 0.930 . S
C272 O273 1.224 . S
C272 O291 1.247 . S
O273 C272 1.224 . S
N274 Co264 2.128 . S
N274 C275 1.355 . S
N274 C277 1.311 . S
C275 N274 1.355 . S
C275 C276 1.363 . S
C275 H287 0.929 . S
C276 C275 1.363 . S
C276 N278 1.375 . S
C276 H294 0.931 . S
C277 N274 1.311 . S
C277 N278 1.347 . S
C277 H288 0.929 . S
N278 C276 1.375 . S
N278 C277 1.347 . S
C279 C282 1.365 . S
C279 N284 1.328 . S
C279 H285 0.929 . S
C280 C281 1.362 . S
C280 C283 1.378 . S
C280 H295 0.929 . S
C281 C280 1.362 . S
C281 C282 1.366 . S
C282 C279 1.365 . S
C282 C281 1.366 . S
C282 H296 0.930 . S
C283 C280 1.378 . S
C283 N284 1.315 . S
C283 H286 0.930 . S
N284 Co264 2.194 . S
N284 C279 1.328 . S
N284 C283 1.315 . S
H285 C279 0.929 . S
H286 C283 0.930 . S
H287 C275 0.929 . S
H288 C277 0.929 . S
O289 Co264 2.351 . S
O289 C292 1.244 . S
O290 Co264 2.155 . S
O290 C292 1.240 . S
O291 Co264 2.096 . S
O291 C272 1.247 . S
C292 O289 1.244 . S
C292 O290 1.240 . S
H293 C267 0.931 . S
H294 C276 0.931 . S
H295 C280 0.929 . S
H296 C282 0.930 . S
Co297 N301 2.148 . S
Co297 N307 2.128 . S
Co297 N317 2.194 . S
Co297 O322 2.351 . S
Co297 O323 2.155 . S
Co297 O324 2.096 1_655 S
C298 N301 1.301 1_545 S
C298 N302 1.328 . S
C298 H303 0.930 . S
C299 C300 1.333 . S
C299 N301 1.317 1_545 S
C299 H304 0.931 1_645 S
C300 C299 1.333 . S
C300 N302 1.350 . S
C300 H326 0.931 . S
N301 Co297 2.148 . S
N301 C298 1.301 1_565 S
N301 C299 1.317 1_565 S
N302 C298 1.328 . S
N302 C300 1.350 . S
H303 C298 0.930 . S
H304 C299 0.931 1_465 S
C305 O306 1.224 . S
C305 O324 1.247 . S
O306 C305 1.224 . S
N307 Co297 2.128 . S
N307 C308 1.355 . S
N307 C310 1.311 1_655 S
C308 N307 1.355 . S
C308 C309 1.363 . S
C308 H320 0.929 . S
C309 C308 1.363 . S
C309 N311 1.375 1_655 S
C309 H327 0.931 . S
C310 N307 1.311 1_455 S
C310 N311 1.347 . S
C310 H321 0.929 . S
N311 C309 1.375 1_455 S
N311 C310 1.347 . S
C312 C315 1.365 . S
C312 N317 1.328 . S
C312 H318 0.929 . S
C313 C314 1.362 1_455 S
C313 C316 1.378 . S
C313 H328 0.929 . S
C314 C313 1.362 1_655 S
C314 C315 1.366 . S
C315 C312 1.365 . S
C315 C314 1.366 . S
C315 H329 0.930 . S
C316 C313 1.378 . S
C316 N317 1.315 1_455 S
C316 H319 0.930 . S
N317 Co297 2.194 . S
N317 C312 1.328 . S
N317 C316 1.315 1_655 S
H318 C312 0.929 . S
H319 C316 0.930 . S
H320 C308 0.929 . S
H321 C310 0.929 . S
O322 Co297 2.351 . S
O322 C325 1.244 . S
O323 Co297 2.155 . S
O323 C325 1.240 . S
O324 Co297 2.096 1_455 S
O324 C305 1.247 . S
C325 O322 1.244 . S
C325 O323 1.240 . S
H326 C300 0.931 . S
H327 C309 0.931 . S
H328 C313 0.929 . S
H329 C315 0.930 . S
Co330 N334 2.148 . S
Co330 N340 2.128 . S
Co330 N350 2.194 . S
Co330 O355 2.351 . S
Co330 O356 2.155 . S
Co330 O357 2.096 . S
C331 N334 1.301 . S
C331 N335 1.328 . S
C331 H336 0.930 . S
C332 C333 1.333 . S
C332 N334 1.317 . S
C332 H337 0.930 . S
C333 C332 1.333 . S
C333 N335 1.350 . S
C333 H359 0.931 . S
N334 Co330 2.148 . S
N334 C331 1.301 . S
N334 C332 1.317 . S
N335 C331 1.328 . S
N335 C333 1.350 . S
H336 C331 0.930 . S
H337 C332 0.930 . S
C338 O339 1.224 . S
C338 O357 1.247 . S
O339 C338 1.224 . S
N340 Co330 2.128 . S
N340 C341 1.355 . S
N340 C343 1.311 . S
C341 N340 1.355 . S
C341 C342 1.363 . S
C341 H353 0.929 . S
C342 C341 1.363 . S
C342 N344 1.375 . S
C342 H360 0.931 . S
C343 N340 1.311 . S
C343 N344 1.347 . S
C343 H354 0.929 . S
N344 C342 1.375 . S
N344 C343 1.347 . S
C345 C348 1.365 . S
C345 N350 1.328 . S
C345 H351 0.929 . S
C346 C347 1.362 . S
C346 C349 1.378 . S
C346 H361 0.929 . S
C347 C346 1.362 . S
C347 C348 1.366 . S
C348 C345 1.365 . S
C348 C347 1.366 . S
C348 H362 0.930 . S
C349 C346 1.378 . S
C349 N350 1.315 . S
C349 H352 0.930 . S
N350 Co330 2.194 . S
N350 C345 1.328 . S
N350 C349 1.315 . S
H351 C345 0.929 . S
H352 C349 0.930 . S
H353 C341 0.929 . S
H354 C343 0.929 . S
O355 Co330 2.351 . S
O355 C358 1.244 . S
O356 Co330 2.155 . S
O356 C358 1.240 . S
O357 Co330 2.096 . S
O357 C338 1.247 . S
C358 O355 1.244 . S
C358 O356 1.240 . S
H359 C333 0.931 . S
H360 C342 0.931 . S
H361 C346 0.929 . S
H362 C348 0.930 . S
Co363 N367 2.148 . S
Co363 N373 2.128 . S
Co363 N383 2.194 . S
Co363 O388 2.351 . S
Co363 O389 2.155 . S
Co363 O390 2.096 . S
C364 N367 1.301 1_565 S
C364 N368 1.328 . S
C364 H369 0.930 . S
C365 C366 1.333 . S
C365 N367 1.317 1_565 S
C365 H370 0.931 1_565 S
C366 C365 1.333 . S
C366 N368 1.350 . S
C366 H392 0.931 . S
N367 Co363 2.148 . S
N367 C364 1.301 1_545 S
N367 C365 1.317 1_545 S
N368 C364 1.328 . S
N368 C366 1.350 . S
H369 C364 0.930 . S
H370 C365 0.931 1_545 S
C371 O372 1.224 . S
C371 O390 1.247 . S
O372 C371 1.224 . S
N373 Co363 2.128 . S
N373 C374 1.355 . S
N373 C376 1.311 . S
C374 N373 1.355 . S
C374 C375 1.363 . S
C374 H386 0.929 . S
C375 C374 1.363 . S
C375 N377 1.375 . S
C375 H393 0.931 . S
C376 N373 1.311 . S
C376 N377 1.347 . S
C376 H387 0.929 . S
N377 C375 1.375 . S
N377 C376 1.347 . S
C378 C381 1.365 . S
C378 N383 1.328 . S
C378 H384 0.929 . S
C379 C380 1.362 . S
C379 C382 1.378 . S
C379 H394 0.929 . S
C380 C379 1.362 . S
C380 C381 1.366 . S
C381 C378 1.365 . S
C381 C380 1.366 . S
C381 H395 0.930 . S
C382 C379 1.378 . S
C382 N383 1.315 . S
C382 H385 0.930 . S
N383 Co363 2.194 . S
N383 C378 1.328 . S
N383 C382 1.315 . S
H384 C378 0.929 . S
H385 C382 0.930 . S
H386 C374 0.929 . S
H387 C376 0.929 . S
O388 Co363 2.351 . S
O388 C391 1.244 . S
O389 Co363 2.155 . S
O389 C391 1.240 . S
O390 Co363 2.096 . S
O390 C371 1.247 . S
C391 O388 1.244 . S
C391 O389 1.240 . S
H392 C366 0.931 . S
H393 C375 0.931 . S
H394 C379 0.929 . S
H395 C381 0.930 . S
Co396 N400 2.148 . S
Co396 N406 2.128 . S
Co396 N416 2.194 . S
Co396 O421 2.351 . S
Co396 O422 2.155 . S
Co396 O423 2.096 . S
C397 N400 1.301 . S
C397 N401 1.328 . S
C397 H402 0.930 . S
C398 C399 1.333 . S
C398 N400 1.317 . S
C398 H403 0.930 . S
C399 C398 1.333 . S
C399 N401 1.350 . S
C399 H425 0.931 . S
N400 Co396 2.148 . S
N400 C397 1.301 . S
N400 C398 1.317 . S
N401 C397 1.328 . S
N401 C399 1.350 . S
H402 C397 0.930 . S
H403 C398 0.930 . S
C404 O405 1.224 . S
C404 O423 1.247 . S
O405 C404 1.224 . S
N406 Co396 2.128 . S
N406 C407 1.355 . S
N406 C409 1.311 . S
C407 N406 1.355 . S
C407 C408 1.363 . S
C407 H419 0.929 . S
C408 C407 1.363 . S
C408 N410 1.375 . S
C408 H426 0.931 . S
C409 N406 1.311 . S
C409 N410 1.347 . S
C409 H420 0.929 . S
N410 C408 1.375 . S
N410 C409 1.347 . S
C411 C414 1.365 . S
C411 N416 1.328 . S
C411 H417 0.929 . S
C412 C413 1.362 . S
C412 C415 1.378 . S
C412 H427 0.929 . S
C413 C412 1.362 . S
C413 C414 1.366 . S
C414 C411 1.365 . S
C414 C413 1.366 . S
C414 H428 0.930 . S
C415 C412 1.378 . S
C415 N416 1.315 . S
C415 H418 0.930 . S
N416 Co396 2.194 . S
N416 C411 1.328 . S
N416 C415 1.315 . S
H417 C411 0.929 . S
H418 C415 0.930 . S
H419 C407 0.929 . S
H420 C409 0.929 . S
O421 Co396 2.351 . S
O421 C424 1.244 . S
O422 Co396 2.155 . S
O422 C424 1.240 . S
O423 Co396 2.096 . S
O423 C404 1.247 . S
C424 O421 1.244 . S
C424 O422 1.240 . S
H425 C399 0.931 . S
H426 C408 0.931 . S
H427 C412 0.929 . S
H428 C414 0.930 . S
Co429 N433 2.148 . S
Co429 N439 2.128 . S
Co429 N449 2.194 . S
Co429 O454 2.351 . S
Co429 O455 2.155 . S
Co429 O456 2.096 . S
C430 N433 1.301 1_545 S
C430 N434 1.328 . S
C430 H435 0.930 . S
C431 C432 1.333 . S
C431 N433 1.317 1_545 S
C431 H436 0.931 1_545 S
C432 C431 1.333 . S
C432 N434 1.350 . S
C432 H458 0.931 . S
N433 Co429 2.148 . S
N433 C430 1.301 1_565 S
N433 C431 1.317 1_565 S
N434 C430 1.328 . S
N434 C432 1.350 . S
H435 C430 0.930 . S
H436 C431 0.931 1_565 S
C437 O438 1.224 . S
C437 O456 1.247 . S
O438 C437 1.224 . S
N439 Co429 2.128 . S
N439 C440 1.355 . S
N439 C442 1.311 . S
C440 N439 1.355 . S
C440 C441 1.363 . S
C440 H452 0.929 . S
C441 C440 1.363 . S
C441 N443 1.375 . S
C441 H459 0.931 . S
C442 N439 1.311 . S
C442 N443 1.347 . S
C442 H453 0.929 . S
N443 C441 1.375 . S
N443 C442 1.347 . S
C444 C447 1.365 . S
C444 N449 1.328 . S
C444 H450 0.929 . S
C445 C446 1.362 . S
C445 C448 1.378 . S
C445 H460 0.929 . S
C446 C445 1.362 . S
C446 C447 1.366 . S
C447 C444 1.365 . S
C447 C446 1.366 . S
C447 H461 0.930 . S
C448 C445 1.378 . S
C448 N449 1.315 . S
C448 H451 0.930 . S
N449 Co429 2.194 . S
N449 C444 1.328 . S
N449 C448 1.315 . S
H450 C444 0.929 . S
H451 C448 0.930 . S
H452 C440 0.929 . S
H453 C442 0.929 . S
O454 Co429 2.351 . S
O454 C457 1.244 . S
O455 Co429 2.155 . S
O455 C457 1.240 . S
O456 Co429 2.096 . S
O456 C437 1.247 . S
C457 O454 1.244 . S
C457 O455 1.240 . S
H458 C432 0.931 . S
H459 C441 0.931 . S
H460 C445 0.929 . S
H461 C447 0.930 . S
Co462 N466 2.148 . S
Co462 N472 2.128 . S
Co462 N482 2.194 . S
Co462 O487 2.351 . S
Co462 O488 2.155 . S
Co462 O489 2.096 . S
C463 N466 1.301 . S
C463 N467 1.328 . S
C463 H468 0.930 . S
C464 C465 1.333 . S
C464 N466 1.317 . S
C464 H469 0.930 . S
C465 C464 1.333 . S
C465 N467 1.350 . S
C465 H491 0.931 . S
N466 Co462 2.148 . S
N466 C463 1.301 . S
N466 C464 1.317 . S
N467 C463 1.328 . S
N467 C465 1.350 . S
H468 C463 0.930 . S
H469 C464 0.930 . S
C470 O471 1.224 . S
C470 O489 1.247 . S
O471 C470 1.224 . S
N472 Co462 2.128 . S
N472 C473 1.355 . S
N472 C475 1.311 . S
C473 N472 1.355 . S
C473 C474 1.363 . S
C473 H485 0.929 . S
C474 C473 1.363 . S
C474 N476 1.375 . S
C474 H492 0.931 . S
C475 N472 1.311 . S
C475 N476 1.347 . S
C475 H486 0.929 . S
N476 C474 1.375 . S
N476 C475 1.347 . S
C477 C480 1.365 . S
C477 N482 1.328 . S
C477 H483 0.929 . S
C478 C479 1.362 . S
C478 C481 1.378 . S
C478 H493 0.929 . S
C479 C478 1.362 . S
C479 C480 1.366 . S
C480 C477 1.365 . S
C480 C479 1.366 . S
C480 H494 0.930 . S
C481 C478 1.378 . S
C481 N482 1.315 . S
C481 H484 0.930 . S
N482 Co462 2.194 . S
N482 C477 1.328 . S
N482 C481 1.315 . S
H483 C477 0.929 . S
H484 C481 0.930 . S
H485 C473 0.929 . S
H486 C475 0.929 . S
O487 Co462 2.351 . S
O487 C490 1.244 . S
O488 Co462 2.155 . S
O488 C490 1.240 . S
O489 Co462 2.096 . S
O489 C470 1.247 . S
C490 O487 1.244 . S
C490 O488 1.240 . S
H491 C465 0.931 . S
H492 C474 0.931 . S
H493 C478 0.929 . S
H494 C480 0.930 . S
Co495 N499 2.148 . S
Co495 N505 2.128 . S
Co495 N515 2.194 . S
Co495 O520 2.351 . S
Co495 O521 2.155 . S
Co495 O522 2.096 1_655 S
C496 N499 1.301 1_565 S
C496 N500 1.328 . S
C496 H501 0.930 . S
C497 C498 1.333 . S
C497 N499 1.317 1_565 S
C497 H502 0.931 1_665 S
C498 C497 1.333 . S
C498 N500 1.350 . S
C498 H524 0.931 . S
N499 Co495 2.148 . S
N499 C496 1.301 1_545 S
N499 C497 1.317 1_545 S
N500 C496 1.328 . S
N500 C498 1.350 . S
H501 C496 0.930 . S
H502 C497 0.931 1_445 S
C503 O504 1.224 . S
C503 O522 1.247 . S
O504 C503 1.224 . S
N505 Co495 2.128 . S
N505 C506 1.355 . S
N505 C508 1.311 1_655 S
C506 N505 1.355 . S
C506 C507 1.363 . S
C506 H518 0.929 . S
C507 C506 1.363 . S
C507 N509 1.375 1_655 S
C507 H525 0.931 . S
C508 N505 1.311 1_455 S
C508 N509 1.347 . S
C508 H519 0.929 . S
N509 C507 1.375 1_455 S
N509 C508 1.347 . S
C510 C513 1.365 . S
C510 N515 1.328 . S
C510 H516 0.929 . S
C511 C512 1.362 1_455 S
C511 C514 1.378 . S
C511 H526 0.929 . S
C512 C511 1.362 1_655 S
C512 C513 1.366 . S
C513 C510 1.365 . S
C513 C512 1.366 . S
C513 H527 0.930 . S
C514 C511 1.378 . S
C514 N515 1.315 1_455 S
C514 H517 0.930 . S
N515 Co495 2.194 . S
N515 C510 1.328 . S
N515 C514 1.315 1_655 S
H516 C510 0.929 . S
H517 C514 0.930 . S
H518 C506 0.929 . S
H519 C508 0.929 . S
O520 Co495 2.351 . S
O520 C523 1.244 . S
O521 Co495 2.155 . S
O521 C523 1.240 . S
O522 Co495 2.096 1_455 S
O522 C503 1.247 . S
C523 O520 1.244 . S
C523 O521 1.240 . S
H524 C498 0.931 . S
H525 C507 0.931 . S
H526 C511 0.929 . S
H527 C513 0.930 . S
Co528 N532 2.148 . S
Co528 N538 2.128 . S
Co528 N548 2.194 . S
Co528 O553 2.351 . S
Co528 O554 2.155 . S
Co528 O555 2.096 . S
C529 N532 1.301 . S
C529 N533 1.328 . S
C529 H534 0.930 . S
C530 C531 1.333 . S
C530 N532 1.317 . S
C530 H535 0.930 . S
C531 C530 1.333 . S
C531 N533 1.350 . S
C531 H557 0.931 . S
N532 Co528 2.148 . S
N532 C529 1.301 . S
N532 C530 1.317 . S
N533 C529 1.328 . S
N533 C531 1.350 . S
H534 C529 0.930 . S
H535 C530 0.930 . S
C536 O537 1.224 . S
C536 O555 1.247 . S
O537 C536 1.224 . S
N538 Co528 2.128 . S
N538 C539 1.355 . S
N538 C541 1.311 . S
C539 N538 1.355 . S
C539 C540 1.363 . S
C539 H551 0.929 . S
C540 C539 1.363 . S
C540 N542 1.375 . S
C540 H558 0.931 . S
C541 N538 1.311 . S
C541 N542 1.347 . S
C541 H552 0.929 . S
N542 C540 1.375 . S
N542 C541 1.347 . S
C543 C546 1.365 . S
C543 N548 1.328 . S
C543 H549 0.929 . S
C544 C545 1.362 . S
C544 C547 1.378 . S
C544 H559 0.929 . S
C545 C544 1.362 . S
C545 C546 1.366 . S
C546 C543 1.365 . S
C546 C545 1.366 . S
C546 H560 0.930 . S
C547 C544 1.378 . S
C547 N548 1.315 . S
C547 H550 0.930 . S
N548 Co528 2.194 . S
N548 C543 1.328 . S
N548 C547 1.315 . S
H549 C543 0.929 . S
H550 C547 0.930 . S
H551 C539 0.929 . S
H552 C541 0.929 . S
O553 Co528 2.351 . S
O553 C556 1.244 . S
O554 Co528 2.155 . S
O554 C556 1.240 . S
O555 Co528 2.096 . S
O555 C536 1.247 . S
C556 O553 1.244 . S
C556 O554 1.240 . S
H557 C531 0.931 . S
H558 C540 0.931 . S
H559 C544 0.929 . S
H560 C546 0.930 . S
Co561 N565 2.148 . S
Co561 N571 2.128 . S
Co561 N581 2.194 . S
Co561 O586 2.351 . S
Co561 O587 2.155 . S
Co561 O588 2.096 . S
C562 N565 1.301 . S
C562 N566 1.328 . S
C562 H567 0.930 . S
C563 C564 1.333 . S
C563 N565 1.317 . S
C563 H568 0.930 . S
C564 C563 1.333 . S
C564 N566 1.350 . S
C564 H590 0.931 . S
N565 Co561 2.148 . S
N565 C562 1.301 . S
N565 C563 1.317 . S
N566 C562 1.328 . S
N566 C564 1.350 . S
H567 C562 0.930 . S
H568 C563 0.930 . S
C569 O570 1.224 . S
C569 O588 1.247 . S
O570 C569 1.224 . S
N571 Co561 2.128 . S
N571 C572 1.355 . S
N571 C574 1.311 . S
C572 N571 1.355 . S
C572 C573 1.363 . S
C572 H584 0.929 . S
C573 C572 1.363 . S
C573 N575 1.375 . S
C573 H591 0.931 . S
C574 N571 1.311 . S
C574 N575 1.347 . S
C574 H585 0.929 . S
N575 C573 1.375 . S
N575 C574 1.347 . S
C576 C579 1.365 . S
C576 N581 1.328 . S
C576 H582 0.929 . S
C577 C578 1.362 . S
C577 C580 1.378 . S
C577 H592 0.929 . S
C578 C577 1.362 . S
C578 C579 1.366 . S
C579 C576 1.365 . S
C579 C578 1.366 . S
C579 H593 0.930 . S
C580 C577 1.378 . S
C580 N581 1.315 . S
C580 H583 0.930 . S
N581 Co561 2.194 . S
N581 C576 1.328 . S
N581 C580 1.315 . S
H582 C576 0.929 . S
H583 C580 0.930 . S
H584 C572 0.929 . S
H585 C574 0.929 . S
O586 Co561 2.351 . S
O586 C589 1.244 . S
O587 Co561 2.155 . S
O587 C589 1.240 . S
O588 Co561 2.096 . S
O588 C569 1.247 . S
C589 O586 1.244 . S
C589 O587 1.240 . S
H590 C564 0.931 . S
H591 C573 0.931 . S
H592 C577 0.929 . S
H593 C579 0.930 . S
Co594 N598 2.148 . S
Co594 N604 2.128 . S
Co594 N614 2.194 . S
Co594 O619 2.351 . S
Co594 O620 2.155 . S
Co594 O621 2.096 . S
C595 N598 1.301 . S
C595 N599 1.328 . S
C595 H600 0.930 . S
C596 C597 1.333 . S
C596 N598 1.317 . S
C596 H601 0.930 . S
C597 C596 1.333 . S
C597 N599 1.350 . S
C597 H623 0.931 . S
N598 Co594 2.148 . S
N598 C595 1.301 . S
N598 C596 1.317 . S
N599 C595 1.328 . S
N599 C597 1.350 . S
H600 C595 0.930 . S
H601 C596 0.930 . S
C602 O603 1.224 . S
C602 O621 1.247 . S
O603 C602 1.224 . S
N604 Co594 2.128 . S
N604 C605 1.355 . S
N604 C607 1.311 . S
C605 N604 1.355 . S
C605 C606 1.363 . S
C605 H617 0.929 . S
C606 C605 1.363 . S
C606 N608 1.375 . S
C606 H624 0.931 . S
C607 N604 1.311 . S
C607 N608 1.347 . S
C607 H618 0.929 . S
N608 C606 1.375 . S
N608 C607 1.347 . S
C609 C612 1.365 . S
C609 N614 1.328 . S
C609 H615 0.929 . S
C610 C611 1.362 . S
C610 C613 1.378 . S
C610 H625 0.929 . S
C611 C610 1.362 . S
C611 C612 1.366 . S
C612 C609 1.365 . S
C612 C611 1.366 . S
C612 H626 0.930 . S
C613 C610 1.378 . S
C613 N614 1.315 . S
C613 H616 0.930 . S
N614 Co594 2.194 . S
N614 C609 1.328 . S
N614 C613 1.315 . S
H615 C609 0.929 . S
H616 C613 0.930 . S
H617 C605 0.929 . S
H618 C607 0.929 . S
O619 Co594 2.351 . S
O619 C622 1.244 . S
O620 Co594 2.155 . S
O620 C622 1.240 . S
O621 Co594 2.096 . S
O621 C602 1.247 . S
C622 O619 1.244 . S
C622 O620 1.240 . S
H623 C597 0.931 . S
H624 C606 0.931 . S
H625 C610 0.929 . S
H626 C612 0.930 . S
Co627 N631 2.148 . S
Co627 N637 2.128 . S
Co627 N647 2.194 . S
Co627 O652 2.351 . S
Co627 O653 2.155 . S
Co627 O654 2.096 1_655 S
C628 N631 1.301 . S
C628 N632 1.328 . S
C628 H633 0.930 . S
C629 C630 1.333 . S
C629 N631 1.317 . S
C629 H634 0.930 1_655 S
C630 C629 1.333 . S
C630 N632 1.350 . S
C630 H656 0.931 . S
N631 Co627 2.148 . S
N631 C628 1.301 . S
N631 C629 1.317 . S
N632 C628 1.328 . S
N632 C630 1.350 . S
H633 C628 0.930 . S
H634 C629 0.930 1_455 S
C635 O636 1.224 . S
C635 O654 1.247 . S
O636 C635 1.224 . S
N637 Co627 2.128 . S
N637 C638 1.355 . S
N637 C640 1.311 1_655 S
C638 N637 1.355 . S
C638 C639 1.363 . S
C638 H650 0.929 . S
C639 C638 1.363 . S
C639 N641 1.375 1_655 S
C639 H657 0.931 . S
C640 N637 1.311 1_455 S
C640 N641 1.347 . S
C640 H651 0.929 . S
N641 C639 1.375 1_455 S
N641 C640 1.347 . S
C642 C645 1.365 . S
C642 N647 1.328 . S
C642 H648 0.929 . S
C643 C644 1.362 1_455 S
C643 C646 1.378 . S
C643 H658 0.929 . S
C644 C643 1.362 1_655 S
C644 C645 1.366 . S
C645 C642 1.365 . S
C645 C644 1.366 . S
C645 H659 0.930 . S
C646 C643 1.378 . S
C646 N647 1.315 1_455 S
C646 H649 0.930 . S
N647 Co627 2.194 . S
N647 C642 1.328 . S
N647 C646 1.315 1_655 S
H648 C642 0.929 . S
H649 C646 0.930 . S
H650 C638 0.929 . S
H651 C640 0.929 . S
O652 Co627 2.351 . S
O652 C655 1.244 . S
O653 Co627 2.155 . S
O653 C655 1.240 . S
O654 Co627 2.096 1_455 S
O654 C635 1.247 . S
C655 O652 1.244 . S
C655 O653 1.240 . S
H656 C630 0.931 . S
H657 C639 0.931 . S
H658 C643 0.929 . S
H659 C645 0.930 . S
Co660 N664 2.148 . S
Co660 N670 2.128 . S
Co660 N680 2.194 . S
Co660 O685 2.351 . S
Co660 O686 2.155 . S
Co660 O687 2.096 . S
C661 N664 1.301 . S
C661 N665 1.328 . S
C661 H666 0.930 . S
C662 C663 1.333 . S
C662 N664 1.317 . S
C662 H667 0.930 . S
C663 C662 1.333 . S
C663 N665 1.350 . S
C663 H689 0.931 . S
N664 Co660 2.148 . S
N664 C661 1.301 . S
N664 C662 1.317 . S
N665 C661 1.328 . S
N665 C663 1.350 . S
H666 C661 0.930 . S
H667 C662 0.930 . S
C668 O669 1.224 . S
C668 O687 1.247 . S
O669 C668 1.224 . S
N670 Co660 2.128 . S
N670 C671 1.355 . S
N670 C673 1.311 . S
C671 N670 1.355 . S
C671 C672 1.363 . S
C671 H683 0.929 . S
C672 C671 1.363 . S
C672 N674 1.375 . S
C672 H690 0.931 . S
C673 N670 1.311 . S
C673 N674 1.347 . S
C673 H684 0.929 . S
N674 C672 1.375 . S
N674 C673 1.347 . S
C675 C678 1.365 . S
C675 N680 1.328 . S
C675 H681 0.929 . S
C676 C677 1.362 . S
C676 C679 1.378 . S
C676 H691 0.929 . S
C677 C676 1.362 . S
C677 C678 1.366 . S
C678 C675 1.365 . S
C678 C677 1.366 . S
C678 H692 0.930 . S
C679 C676 1.378 . S
C679 N680 1.315 . S
C679 H682 0.930 . S
N680 Co660 2.194 . S
N680 C675 1.328 . S
N680 C679 1.315 . S
H681 C675 0.929 . S
H682 C679 0.930 . S
H683 C671 0.929 . S
H684 C673 0.929 . S
O685 Co660 2.351 . S
O685 C688 1.244 . S
O686 Co660 2.155 . S
O686 C688 1.240 . S
O687 Co660 2.096 . S
O687 C668 1.247 . S
C688 O685 1.244 . S
C688 O686 1.240 . S
H689 C663 0.931 . S
H690 C672 0.931 . S
H691 C676 0.929 . S
H692 C678 0.930 . S
Co693 N697 2.148 . S
Co693 N703 2.128 . S
Co693 N713 2.194 . S
Co693 O718 2.351 . S
Co693 O719 2.155 . S
Co693 O720 2.096 1_655 S
C694 N697 1.301 . S
C694 N698 1.328 . S
C694 H699 0.930 . S
C695 C696 1.333 . S
C695 N697 1.317 . S
C695 H700 0.930 1_655 S
C696 C695 1.333 . S
C696 N698 1.350 . S
C696 H722 0.931 . S
N697 Co693 2.148 . S
N697 C694 1.301 . S
N697 C695 1.317 . S
N698 C694 1.328 . S
N698 C696 1.350 . S
H699 C694 0.930 . S
H700 C695 0.930 1_455 S
C701 O702 1.224 . S
C701 O720 1.247 . S
O702 C701 1.224 . S
N703 Co693 2.128 . S
N703 C704 1.355 . S
N703 C706 1.311 1_655 S
C704 N703 1.355 . S
C704 C705 1.363 . S
C704 H716 0.929 . S
C705 C704 1.363 . S
C705 N707 1.375 1_655 S
C705 H723 0.931 . S
C706 N703 1.311 1_455 S
C706 N707 1.347 . S
C706 H717 0.929 . S
N707 C705 1.375 1_455 S
N707 C706 1.347 . S
C708 C711 1.365 . S
C708 N713 1.328 . S
C708 H714 0.929 . S
C709 C710 1.362 1_455 S
C709 C712 1.378 . S
C709 H724 0.929 . S
C710 C709 1.362 1_655 S
C710 C711 1.366 . S
C711 C708 1.365 . S
C711 C710 1.366 . S
C711 H725 0.930 . S
C712 C709 1.378 . S
C712 N713 1.315 1_455 S
C712 H715 0.930 . S
N713 Co693 2.194 . S
N713 C708 1.328 . S
N713 C712 1.315 1_655 S
H714 C708 0.929 . S
H715 C712 0.930 . S
H716 C704 0.929 . S
H717 C706 0.929 . S
O718 Co693 2.351 . S
O718 C721 1.244 . S
O719 Co693 2.155 . S
O719 C721 1.240 . S
O720 Co693 2.096 1_455 S
O720 C701 1.247 . S
C721 O718 1.244 . S
C721 O719 1.240 . S
H722 C696 0.931 . S
H723 C705 0.931 . S
H724 C709 0.929 . S
H725 C711 0.930 . S
Co726 N730 2.148 . S
Co726 N736 2.128 . S
Co726 N746 2.194 . S
Co726 O751 2.351 . S
Co726 O752 2.155 . S
Co726 O753 2.096 . S
C727 N730 1.301 . S
C727 N731 1.328 . S
C727 H732 0.930 . S
C728 C729 1.333 . S
C728 N730 1.317 . S
C728 H733 0.930 . S
C729 C728 1.333 . S
C729 N731 1.350 . S
C729 H755 0.931 . S
N730 Co726 2.148 . S
N730 C727 1.301 . S
N730 C728 1.317 . S
N731 C727 1.328 . S
N731 C729 1.350 . S
H732 C727 0.930 . S
H733 C728 0.930 . S
C734 O735 1.224 . S
C734 O753 1.247 . S
O735 C734 1.224 . S
N736 Co726 2.128 . S
N736 C737 1.355 . S
N736 C739 1.311 . S
C737 N736 1.355 . S
C737 C738 1.363 . S
C737 H749 0.929 . S
C738 C737 1.363 . S
C738 N740 1.375 . S
C738 H756 0.931 . S
C739 N736 1.311 . S
C739 N740 1.347 . S
C739 H750 0.929 . S
N740 C738 1.375 . S
N740 C739 1.347 . S
C741 C744 1.365 . S
C741 N746 1.328 . S
C741 H747 0.929 . S
C742 C743 1.362 . S
C742 C745 1.378 . S
C742 H757 0.929 . S
C743 C742 1.362 . S
C743 C744 1.366 . S
C744 C741 1.365 . S
C744 C743 1.366 . S
C744 H758 0.930 . S
C745 C742 1.378 . S
C745 N746 1.315 . S
C745 H748 0.930 . S
N746 Co726 2.194 . S
N746 C741 1.328 . S
N746 C745 1.315 . S
H747 C741 0.929 . S
H748 C745 0.930 . S
H749 C737 0.929 . S
H750 C739 0.929 . S
O751 Co726 2.351 . S
O751 C754 1.244 . S
O752 Co726 2.155 . S
O752 C754 1.240 . S
O753 Co726 2.096 . S
O753 C734 1.247 . S
C754 O751 1.244 . S
C754 O752 1.240 . S
H755 C729 0.931 . S
H756 C738 0.931 . S
H757 C742 0.929 . S
H758 C744 0.930 . S
Co759 N763 2.148 . S
Co759 N769 2.128 . S
Co759 N779 2.194 . S
Co759 O784 2.351 . S
Co759 O785 2.155 . S
Co759 O786 2.096 . S
C760 N763 1.301 . S
C760 N764 1.328 . S
C760 H765 0.930 . S
C761 C762 1.333 . S
C761 N763 1.317 . S
C761 H766 0.930 . S
C762 C761 1.333 . S
C762 N764 1.350 . S
C762 H788 0.931 . S
N763 Co759 2.148 . S
N763 C760 1.301 . S
N763 C761 1.317 . S
N764 C760 1.328 . S
N764 C762 1.350 . S
H765 C760 0.930 . S
H766 C761 0.930 . S
C767 O768 1.224 . S
C767 O786 1.247 . S
O768 C767 1.224 . S
N769 Co759 2.128 . S
N769 C770 1.355 . S
N769 C772 1.311 . S
C770 N769 1.355 . S
C770 C771 1.363 . S
C770 H782 0.929 . S
C771 C770 1.363 . S
C771 N773 1.375 . S
C771 H789 0.931 . S
C772 N769 1.311 . S
C772 N773 1.347 . S
C772 H783 0.929 . S
N773 C771 1.375 . S
N773 C772 1.347 . S
C774 C777 1.365 . S
C774 N779 1.328 . S
C774 H780 0.929 . S
C775 C776 1.362 . S
C775 C778 1.378 . S
C775 H790 0.929 . S
C776 C775 1.362 . S
C776 C777 1.366 . S
C777 C774 1.365 . S
C777 C776 1.366 . S
C777 H791 0.930 . S
C778 C775 1.378 . S
C778 N779 1.315 . S
C778 H781 0.930 . S
N779 Co759 2.194 . S
N779 C774 1.328 . S
N779 C778 1.315 . S
H780 C774 0.929 . S
H781 C778 0.930 . S
H782 C770 0.929 . S
H783 C772 0.929 . S
O784 Co759 2.351 . S
O784 C787 1.244 . S
O785 Co759 2.155 . S
O785 C787 1.240 . S
O786 Co759 2.096 . S
O786 C767 1.247 . S
C787 O784 1.244 . S
C787 O785 1.240 . S
H788 C762 0.931 . S
H789 C771 0.931 . S
H790 C775 0.929 . S
H791 C777 0.930 . S
Co792 N796 2.148 . S
Co792 N802 2.128 . S
Co792 N812 2.194 . S
Co792 O817 2.351 . S
Co792 O818 2.155 . S
Co792 O819 2.096 . S
C793 N796 1.301 . S
C793 N797 1.328 . S
C793 H798 0.930 . S
C794 C795 1.333 . S
C794 N796 1.317 . S
C794 H799 0.930 . S
C795 C794 1.333 . S
C795 N797 1.350 . S
C795 H821 0.931 . S
N796 Co792 2.148 . S
N796 C793 1.301 . S
N796 C794 1.317 . S
N797 C793 1.328 . S
N797 C795 1.350 . S
H798 C793 0.930 . S
H799 C794 0.930 . S
C800 O801 1.224 . S
C800 O819 1.247 . S
O801 C800 1.224 . S
N802 Co792 2.128 . S
N802 C803 1.355 . S
N802 C805 1.311 . S
C803 N802 1.355 . S
C803 C804 1.363 . S
C803 H815 0.929 . S
C804 C803 1.363 . S
C804 N806 1.375 . S
C804 H822 0.931 . S
C805 N802 1.311 . S
C805 N806 1.347 . S
C805 H816 0.929 . S
N806 C804 1.375 . S
N806 C805 1.347 . S
C807 C810 1.365 . S
C807 N812 1.328 . S
C807 H813 0.929 . S
C808 C809 1.362 . S
C808 C811 1.378 . S
C808 H823 0.929 . S
C809 C808 1.362 . S
C809 C810 1.366 . S
C810 C807 1.365 . S
C810 C809 1.366 . S
C810 H824 0.930 . S
C811 C808 1.378 . S
C811 N812 1.315 . S
C811 H814 0.930 . S
N812 Co792 2.194 . S
N812 C807 1.328 . S
N812 C811 1.315 . S
H813 C807 0.929 . S
H814 C811 0.930 . S
H815 C803 0.929 . S
H816 C805 0.929 . S
O817 Co792 2.351 . S
O817 C820 1.244 . S
O818 Co792 2.155 . S
O818 C820 1.240 . S
O819 Co792 2.096 . S
O819 C800 1.247 . S
C820 O817 1.244 . S
C820 O818 1.240 . S
H821 C795 0.931 . S
H822 C804 0.931 . S
H823 C808 0.929 . S
H824 C810 0.930 . S
Co825 N829 2.148 . S
Co825 N835 2.128 . S
Co825 N845 2.194 . S
Co825 O850 2.351 . S
Co825 O851 2.155 . S
Co825 O852 2.096 . S
C826 N829 1.301 . S
C826 N830 1.328 . S
C826 H831 0.930 . S
C827 C828 1.333 . S
C827 N829 1.317 . S
C827 H832 0.930 . S
C828 C827 1.333 . S
C828 N830 1.350 . S
C828 H854 0.931 . S
N829 Co825 2.148 . S
N829 C826 1.301 . S
N829 C827 1.317 . S
N830 C826 1.328 . S
N830 C828 1.350 . S
H831 C826 0.930 . S
H832 C827 0.930 . S
C833 O834 1.224 . S
C833 O852 1.247 . S
O834 C833 1.224 . S
N835 Co825 2.128 . S
N835 C836 1.355 . S
N835 C838 1.311 . S
C836 N835 1.355 . S
C836 C837 1.363 . S
C836 H848 0.929 . S
C837 C836 1.363 . S
C837 N839 1.375 . S
C837 H855 0.931 . S
C838 N835 1.311 . S
C838 N839 1.347 . S
C838 H849 0.929 . S
N839 C837 1.375 . S
N839 C838 1.347 . S
C840 C843 1.365 . S
C840 N845 1.328 . S
C840 H846 0.929 . S
C841 C842 1.362 . S
C841 C844 1.378 . S
C841 H856 0.929 . S
C842 C841 1.362 . S
C842 C843 1.366 . S
C843 C840 1.365 . S
C843 C842 1.366 . S
C843 H857 0.930 . S
C844 C841 1.378 . S
C844 N845 1.315 . S
C844 H847 0.930 . S
N845 Co825 2.194 . S
N845 C840 1.328 . S
N845 C844 1.315 . S
H846 C840 0.929 . S
H847 C844 0.930 . S
H848 C836 0.929 . S
H849 C838 0.929 . S
O850 Co825 2.351 . S
O850 C853 1.244 . S
O851 Co825 2.155 . S
O851 C853 1.240 . S
O852 Co825 2.096 . S
O852 C833 1.247 . S
C853 O850 1.244 . S
C853 O851 1.240 . S
H854 C828 0.931 . S
H855 C837 0.931 . S
H856 C841 0.929 . S
H857 C843 0.930 . S
Co858 N862 2.148 . S
Co858 N868 2.128 . S
Co858 N878 2.194 . S
Co858 O883 2.351 . S
Co858 O884 2.155 . S
Co858 O885 2.096 . S
C859 N862 1.301 . S
C859 N863 1.328 . S
C859 H864 0.930 . S
C860 C861 1.333 . S
C860 N862 1.317 . S
C860 H865 0.930 . S
C861 C860 1.333 . S
C861 N863 1.350 . S
C861 H887 0.931 . S
N862 Co858 2.148 . S
N862 C859 1.301 . S
N862 C860 1.317 . S
N863 C859 1.328 . S
N863 C861 1.350 . S
H864 C859 0.930 . S
H865 C860 0.930 . S
C866 O867 1.224 . S
C866 O885 1.247 . S
O867 C866 1.224 . S
N868 Co858 2.128 . S
N868 C869 1.355 . S
N868 C871 1.311 . S
C869 N868 1.355 . S
C869 C870 1.363 . S
C869 H881 0.929 . S
C870 C869 1.363 . S
C870 N872 1.375 . S
C870 H888 0.931 . S
C871 N868 1.311 . S
C871 N872 1.347 . S
C871 H882 0.929 . S
N872 C870 1.375 . S
N872 C871 1.347 . S
C873 C876 1.365 . S
C873 N878 1.328 . S
C873 H879 0.929 . S
C874 C875 1.362 . S
C874 C877 1.378 . S
C874 H889 0.929 . S
C875 C874 1.362 . S
C875 C876 1.366 . S
C876 C873 1.365 . S
C876 C875 1.366 . S
C876 H890 0.930 . S
C877 C874 1.378 . S
C877 N878 1.315 . S
C877 H880 0.930 . S
N878 Co858 2.194 . S
N878 C873 1.328 . S
N878 C877 1.315 . S
H879 C873 0.929 . S
H880 C877 0.930 . S
H881 C869 0.929 . S
H882 C871 0.929 . S
O883 Co858 2.351 . S
O883 C886 1.244 . S
O884 Co858 2.155 . S
O884 C886 1.240 . S
O885 Co858 2.096 . S
O885 C866 1.247 . S
C886 O883 1.244 . S
C886 O884 1.240 . S
H887 C861 0.931 . S
H888 C870 0.931 . S
H889 C874 0.929 . S
H890 C876 0.930 . S
Co891 N895 2.148 . S
Co891 N901 2.128 . S
Co891 N911 2.194 . S
Co891 O916 2.351 . S
Co891 O917 2.155 . S
Co891 O918 2.096 1_455 S
C892 N895 1.301 . S
C892 N896 1.328 . S
C892 H897 0.930 . S
C893 C894 1.333 . S
C893 N895 1.317 . S
C893 H898 0.930 1_455 S
C894 C893 1.333 . S
C894 N896 1.350 . S
C894 H920 0.931 . S
N895 Co891 2.148 . S
N895 C892 1.301 . S
N895 C893 1.317 . S
N896 C892 1.328 . S
N896 C894 1.350 . S
H897 C892 0.930 . S
H898 C893 0.930 1_655 S
C899 O900 1.224 . S
C899 O918 1.247 . S
O900 C899 1.224 . S
N901 Co891 2.128 . S
N901 C902 1.355 . S
N901 C904 1.311 1_455 S
C902 N901 1.355 . S
C902 C903 1.363 . S
C902 H914 0.929 . S
C903 C902 1.363 . S
C903 N905 1.375 1_455 S
C903 H921 0.931 . S
C904 N901 1.311 1_655 S
C904 N905 1.347 . S
C904 H915 0.929 . S
N905 C903 1.375 1_655 S
N905 C904 1.347 . S
C906 C909 1.365 . S
C906 N911 1.328 . S
C906 H912 0.929 . S
C907 C908 1.362 1_655 S
C907 C910 1.378 . S
C907 H922 0.929 . S
C908 C907 1.362 1_455 S
C908 C909 1.366 . S
C909 C906 1.365 . S
C909 C908 1.366 . S
C909 H923 0.930 . S
C910 C907 1.378 . S
C910 N911 1.315 1_655 S
C910 H913 0.930 . S
N911 Co891 2.194 . S
N911 C906 1.328 . S
N911 C910 1.315 1_455 S
H912 C906 0.929 . S
H913 C910 0.930 . S
H914 C902 0.929 . S
H915 C904 0.929 . S
O916 Co891 2.351 . S
O916 C919 1.244 . S
O917 Co891 2.155 . S
O917 C919 1.240 . S
O918 Co891 2.096 1_655 S
O918 C899 1.247 . S
C919 O916 1.244 . S
C919 O917 1.240 . S
H920 C894 0.931 . S
H921 C903 0.931 . S
H922 C907 0.929 . S
H923 C909 0.930 . S
Co924 N928 2.148 . S
Co924 N934 2.128 . S
Co924 N944 2.194 . S
Co924 O949 2.351 . S
Co924 O950 2.155 . S
Co924 O951 2.096 . S
C925 N928 1.301 . S
C925 N929 1.328 . S
C925 H930 0.930 . S
C926 C927 1.333 . S
C926 N928 1.317 . S
C926 H931 0.930 . S
C927 C926 1.333 . S
C927 N929 1.350 . S
C927 H953 0.931 . S
N928 Co924 2.148 . S
N928 C925 1.301 . S
N928 C926 1.317 . S
N929 C925 1.328 . S
N929 C927 1.350 . S
H930 C925 0.930 . S
H931 C926 0.930 . S
C932 O933 1.224 . S
C932 O951 1.247 . S
O933 C932 1.224 . S
N934 Co924 2.128 . S
N934 C935 1.355 . S
N934 C937 1.311 . S
C935 N934 1.355 . S
C935 C936 1.363 . S
C935 H947 0.929 . S
C936 C935 1.363 . S
C936 N938 1.375 . S
C936 H954 0.931 . S
C937 N934 1.311 . S
C937 N938 1.347 . S
C937 H948 0.929 . S
N938 C936 1.375 . S
N938 C937 1.347 . S
C939 C942 1.365 . S
C939 N944 1.328 . S
C939 H945 0.929 . S
C940 C941 1.362 . S
C940 C943 1.378 . S
C940 H955 0.929 . S
C941 C940 1.362 . S
C941 C942 1.366 . S
C942 C939 1.365 . S
C942 C941 1.366 . S
C942 H956 0.930 . S
C943 C940 1.378 . S
C943 N944 1.315 . S
C943 H946 0.930 . S
N944 Co924 2.194 . S
N944 C939 1.328 . S
N944 C943 1.315 . S
H945 C939 0.929 . S
H946 C943 0.930 . S
H947 C935 0.929 . S
H948 C937 0.929 . S
O949 Co924 2.351 . S
O949 C952 1.244 . S
O950 Co924 2.155 . S
O950 C952 1.240 . S
O951 Co924 2.096 . S
O951 C932 1.247 . S
C952 O949 1.244 . S
C952 O950 1.240 . S
H953 C927 0.931 . S
H954 C936 0.931 . S
H955 C940 0.929 . S
H956 C942 0.930 . S
Co957 N961 2.148 . S
Co957 N967 2.128 . S
Co957 N977 2.194 . S
Co957 O982 2.351 . S
Co957 O983 2.155 . S
Co957 O984 2.096 1_455 S
C958 N961 1.301 . S
C958 N962 1.328 . S
C958 H963 0.930 . S
C959 C960 1.333 . S
C959 N961 1.317 . S
C959 H964 0.930 1_455 S
C960 C959 1.333 . S
C960 N962 1.350 . S
C960 H986 0.931 . S
N961 Co957 2.148 . S
N961 C958 1.301 . S
N961 C959 1.317 . S
N962 C958 1.328 . S
N962 C960 1.350 . S
H963 C958 0.930 . S
H964 C959 0.930 1_655 S
C965 O966 1.224 . S
C965 O984 1.247 . S
O966 C965 1.224 . S
N967 Co957 2.128 . S
N967 C968 1.355 . S
N967 C970 1.311 1_455 S
C968 N967 1.355 . S
C968 C969 1.363 . S
C968 H980 0.929 . S
C969 C968 1.363 . S
C969 N971 1.375 1_455 S
C969 H987 0.931 . S
C970 N967 1.311 1_655 S
C970 N971 1.347 . S
C970 H981 0.929 . S
N971 C969 1.375 1_655 S
N971 C970 1.347 . S
C972 C975 1.365 . S
C972 N977 1.328 . S
C972 H978 0.929 . S
C973 C974 1.362 1_655 S
C973 C976 1.378 . S
C973 H988 0.929 . S
C974 C973 1.362 1_455 S
C974 C975 1.366 . S
C975 C972 1.365 . S
C975 C974 1.366 . S
C975 H989 0.930 . S
C976 C973 1.378 . S
C976 N977 1.315 1_655 S
C976 H979 0.930 . S
N977 Co957 2.194 . S
N977 C972 1.328 . S
N977 C976 1.315 1_455 S
H978 C972 0.929 . S
H979 C976 0.930 . S
H980 C968 0.929 . S
H981 C970 0.929 . S
O982 Co957 2.351 . S
O982 C985 1.244 . S
O983 Co957 2.155 . S
O983 C985 1.240 . S
O984 Co957 2.096 1_655 S
O984 C965 1.247 . S
C985 O982 1.244 . S
C985 O983 1.240 . S
H986 C960 0.931 . S
H987 C969 0.931 . S
H988 C973 0.929 . S
H989 C975 0.930 . S
Co990 N994 2.148 . S
Co990 N1000 2.128 . S
Co990 N1010 2.194 . S
Co990 O1015 2.351 . S
Co990 O1016 2.155 . S
Co990 O1017 2.096 . S
C991 N994 1.301 . S
C991 N995 1.328 . S
C991 H996 0.930 . S
C992 C993 1.333 . S
C992 N994 1.317 . S
C992 H997 0.930 . S
C993 C992 1.333 . S
C993 N995 1.350 . S
C993 H1019 0.931 . S
N994 Co990 2.148 . S
N994 C991 1.301 . S
N994 C992 1.317 . S
N995 C991 1.328 . S
N995 C993 1.350 . S
H996 C991 0.930 . S
H997 C992 0.930 . S
C998 O999 1.224 . S
C998 O1017 1.247 . S
O999 C998 1.224 . S
N1000 Co990 2.128 . S
N1000 C1001 1.355 . S
N1000 C1003 1.311 . S
C1001 N1000 1.355 . S
C1001 C1002 1.363 . S
C1001 H1013 0.929 . S
C1002 C1001 1.363 . S
C1002 N1004 1.375 . S
C1002 H1020 0.931 . S
C1003 N1000 1.311 . S
C1003 N1004 1.347 . S
C1003 H1014 0.929 . S
N1004 C1002 1.375 . S
N1004 C1003 1.347 . S
C1005 C1008 1.365 . S
C1005 N1010 1.328 . S
C1005 H1011 0.929 . S
C1006 C1007 1.362 . S
C1006 C1009 1.378 . S
C1006 H1021 0.929 . S
C1007 C1006 1.362 . S
C1007 C1008 1.366 . S
C1008 C1005 1.365 . S
C1008 C1007 1.366 . S
C1008 H1022 0.930 . S
C1009 C1006 1.378 . S
C1009 N1010 1.315 . S
C1009 H1012 0.930 . S
N1010 Co990 2.194 . S
N1010 C1005 1.328 . S
N1010 C1009 1.315 . S
H1011 C1005 0.929 . S
H1012 C1009 0.930 . S
H1013 C1001 0.929 . S
H1014 C1003 0.929 . S
O1015 Co990 2.351 . S
O1015 C1018 1.244 . S
O1016 Co990 2.155 . S
O1016 C1018 1.240 . S
O1017 Co990 2.096 . S
O1017 C998 1.247 . S
C1018 O1015 1.244 . S
C1018 O1016 1.240 . S
H1019 C993 0.931 . S
H1020 C1002 0.931 . S
H1021 C1006 0.929 . S
H1022 C1008 0.930 . S
Co1023 N1027 2.148 . S
Co1023 N1033 2.128 . S
Co1023 N1043 2.194 . S
Co1023 O1048 2.351 . S
Co1023 O1049 2.155 . S
Co1023 O1050 2.096 . S
C1024 N1027 1.301 . S
C1024 N1028 1.328 . S
C1024 H1029 0.930 . S
C1025 C1026 1.333 . S
C1025 N1027 1.317 . S
C1025 H1030 0.930 . S
C1026 C1025 1.333 . S
C1026 N1028 1.350 . S
C1026 H1052 0.931 . S
N1027 Co1023 2.148 . S
N1027 C1024 1.301 . S
N1027 C1025 1.317 . S
N1028 C1024 1.328 . S
N1028 C1026 1.350 . S
H1029 C1024 0.930 . S
H1030 C1025 0.930 . S
C1031 O1032 1.224 . S
C1031 O1050 1.247 . S
O1032 C1031 1.224 . S
N1033 Co1023 2.128 . S
N1033 C1034 1.355 . S
N1033 C1036 1.311 . S
C1034 N1033 1.355 . S
C1034 C1035 1.363 . S
C1034 H1046 0.929 . S
C1035 C1034 1.363 . S
C1035 N1037 1.375 . S
C1035 H1053 0.931 . S
C1036 N1033 1.311 . S
C1036 N1037 1.347 . S
C1036 H1047 0.929 . S
N1037 C1035 1.375 . S
N1037 C1036 1.347 . S
C1038 C1041 1.365 . S
C1038 N1043 1.328 . S
C1038 H1044 0.929 . S
C1039 C1040 1.362 . S
C1039 C1042 1.378 . S
C1039 H1054 0.929 . S
C1040 C1039 1.362 . S
C1040 C1041 1.366 . S
C1041 C1038 1.365 . S
C1041 C1040 1.366 . S
C1041 H1055 0.930 . S
C1042 C1039 1.378 . S
C1042 N1043 1.315 . S
C1042 H1045 0.930 . S
N1043 Co1023 2.194 . S
N1043 C1038 1.328 . S
N1043 C1042 1.315 . S
H1044 C1038 0.929 . S
H1045 C1042 0.930 . S
H1046 C1034 0.929 . S
H1047 C1036 0.929 . S
O1048 Co1023 2.351 . S
O1048 C1051 1.244 . S
O1049 Co1023 2.155 . S
O1049 C1051 1.240 . S
O1050 Co1023 2.096 . S
O1050 C1031 1.247 . S
C1051 O1048 1.244 . S
C1051 O1049 1.240 . S
H1052 C1026 0.931 . S
H1053 C1035 0.931 . S
H1054 C1039 0.929 . S
H1055 C1041 0.930 . S
C1056 C1057 1.387 . S
C1056 H1060 0.950 . S
C1056 C1065 1.390 . S
C1057 C1056 1.387 . S
C1057 C1059 1.387 . S
H1058 C1065 0.950 . S
C1059 C1057 1.387 . S
C1059 C1061 1.390 . S
C1059 H1063 0.950 . S
H1060 C1056 0.950 . S
C1061 C1059 1.390 . S
C1061 C1062 1.387 . S
C1061 H1064 0.950 . S
C1062 C1061 1.387 . S
C1062 C1065 1.387 . S
H1063 C1059 0.950 . S
H1064 C1061 0.950 . S
C1065 C1056 1.390 . S
C1065 H1058 0.950 . S
C1065 C1062 1.387 . S
C1066 C1067 1.387 . S
C1066 H1070 0.950 . S
C1066 C1075 1.390 1_655 S
C1067 C1066 1.387 . S
C1067 C1069 1.387 . S
H1068 C1075 0.950 . S
C1069 C1067 1.387 . S
C1069 C1071 1.390 1_655 S
C1069 H1073 0.950 . S
H1070 C1066 0.950 . S
C1071 C1069 1.390 1_455 S
C1071 C1072 1.387 . S
C1071 H1074 0.950 . S
C1072 C1071 1.387 . S
C1072 C1075 1.387 . S
H1073 C1069 0.950 . S
H1074 C1071 0.950 . S
C1075 C1066 1.390 1_455 S
C1075 H1068 0.950 . S
C1075 C1072 1.387 . S
C1076 C1077 1.387 . S
C1076 H1080 0.950 . S
C1076 C1085 1.390 1_455 S
C1077 C1076 1.387 . S
C1077 C1079 1.387 . S
H1078 C1085 0.950 . S
C1079 C1077 1.387 . S
C1079 C1081 1.390 1_455 S
C1079 H1083 0.950 . S
H1080 C1076 0.950 . S
C1081 C1079 1.390 1_655 S
C1081 C1082 1.387 . S
C1081 H1084 0.950 . S
C1082 C1081 1.387 . S
C1082 C1085 1.387 . S
H1083 C1079 0.950 . S
H1084 C1081 0.950 . S
C1085 C1076 1.390 1_655 S
C1085 H1078 0.950 . S
C1085 C1082 1.387 . S
C1086 C1087 1.387 . S
C1086 H1090 0.950 . S
C1086 C1095 1.390 . S
C1087 C1086 1.387 . S
C1087 C1089 1.387 . S
H1088 C1095 0.950 . S
C1089 C1087 1.387 . S
C1089 C1091 1.390 . S
C1089 H1093 0.950 . S
H1090 C1086 0.950 . S
C1091 C1089 1.390 . S
C1091 C1092 1.387 . S
C1091 H1094 0.950 . S
C1092 C1091 1.387 . S
C1092 C1095 1.387 . S
H1093 C1089 0.950 . S
H1094 C1091 0.950 . S
C1095 C1086 1.390 . S
C1095 H1088 0.950 . S
C1095 C1092 1.387 . S
C1096 C1097 1.387 . S
C1096 H1100 0.950 . S
C1096 C1105 1.390 . S
C1097 C1096 1.387 . S
C1097 C1099 1.387 . S
H1098 C1105 0.950 . S
C1099 C1097 1.387 . S
C1099 C1101 1.390 . S
C1099 H1103 0.950 . S
H1100 C1096 0.950 . S
C1101 C1099 1.390 . S
C1101 C1102 1.387 . S
C1101 H1104 0.950 . S
C1102 C1101 1.387 . S
C1102 C1105 1.387 . S
H1103 C1099 0.950 . S
H1104 C1101 0.950 . S
C1105 C1096 1.390 . S
C1105 H1098 0.950 . S
C1105 C1102 1.387 . S
C1106 C1107 1.387 . S
C1106 H1110 0.950 . S
C1106 C1115 1.390 . S
C1107 C1106 1.387 . S
C1107 C1109 1.387 . S
H1108 C1115 0.950 . S
C1109 C1107 1.387 . S
C1109 C1111 1.390 . S
C1109 H1113 0.950 . S
H1110 C1106 0.950 . S
C1111 C1109 1.390 . S
C1111 C1112 1.387 . S
C1111 H1114 0.950 . S
C1112 C1111 1.387 . S
C1112 C1115 1.387 . S
H1113 C1109 0.950 . S
H1114 C1111 0.950 . S
C1115 C1106 1.390 . S
C1115 H1108 0.950 . S
C1115 C1112 1.387 . S
C1116 C1117 1.387 . S
C1116 H1120 0.950 . S
C1116 C1125 1.390 1_455 S
C1117 C1116 1.387 . S
C1117 C1119 1.387 . S
H1118 C1125 0.950 . S
C1119 C1117 1.387 . S
C1119 C1121 1.390 1_455 S
C1119 H1123 0.950 . S
H1120 C1116 0.950 . S
C1121 C1119 1.390 1_655 S
C1121 C1122 1.387 . S
C1121 H1124 0.950 . S
C1122 C1121 1.387 . S
C1122 C1125 1.387 . S
H1123 C1119 0.950 . S
H1124 C1121 0.950 . S
C1125 C1116 1.390 1_655 S
C1125 H1118 0.950 . S
C1125 C1122 1.387 . S
C1126 C1127 1.387 . S
C1126 H1130 0.950 . S
C1126 C1135 1.390 1_655 S
C1127 C1126 1.387 . S
C1127 C1129 1.387 . S
H1128 C1135 0.950 . S
C1129 C1127 1.387 . S
C1129 C1131 1.390 1_655 S
C1129 H1133 0.950 . S
H1130 C1126 0.950 . S
C1131 C1129 1.390 1_455 S
C1131 C1132 1.387 . S
C1131 H1134 0.950 . S
C1132 C1131 1.387 . S
C1132 C1135 1.387 . S
H1133 C1129 0.950 . S
H1134 C1131 0.950 . S
C1135 C1126 1.390 1_455 S
C1135 H1128 0.950 . S
C1135 C1132 1.387 . S
C1136 C1137 1.387 . S
C1136 H1140 0.950 . S
C1136 C1145 1.390 . S
C1137 C1136 1.387 . S
C1137 C1139 1.387 . S
H1138 C1145 0.950 . S
C1139 C1137 1.387 . S
C1139 C1141 1.390 . S
C1139 H1143 0.950 . S
H1140 C1136 0.950 . S
C1141 C1139 1.390 . S
C1141 C1142 1.387 . S
C1141 H1144 0.950 . S
C1142 C1141 1.387 . S
C1142 C1145 1.387 . S
H1143 C1139 0.950 . S
H1144 C1141 0.950 . S
C1145 C1136 1.390 . S
C1145 H1138 0.950 . S
C1145 C1142 1.387 . S
C1146 C1147 1.387 . S
C1146 H1150 0.950 . S
C1146 C1155 1.390 1_655 S
C1147 C1146 1.387 . S
C1147 C1149 1.387 . S
H1148 C1155 0.950 . S
C1149 C1147 1.387 . S
C1149 C1151 1.390 1_655 S
C1149 H1153 0.950 . S
H1150 C1146 0.950 . S
C1151 C1149 1.390 1_455 S
C1151 C1152 1.387 . S
C1151 H1154 0.950 . S
C1152 C1151 1.387 . S
C1152 C1155 1.387 . S
H1153 C1149 0.950 . S
H1154 C1151 0.950 . S
C1155 C1146 1.390 1_455 S
C1155 H1148 0.950 . S
C1155 C1152 1.387 . S
C1156 C1157 1.387 . S
C1156 H1160 0.950 . S
C1156 C1165 1.390 1_655 S
C1157 C1156 1.387 . S
C1157 C1159 1.387 . S
H1158 C1165 0.950 . S
C1159 C1157 1.387 . S
C1159 C1161 1.390 1_655 S
C1159 H1163 0.950 . S
H1160 C1156 0.950 . S
C1161 C1159 1.390 1_455 S
C1161 C1162 1.387 . S
C1161 H1164 0.950 . S
C1162 C1161 1.387 . S
C1162 C1165 1.387 . S
H1163 C1159 0.950 . S
H1164 C1161 0.950 . S
C1165 C1156 1.390 1_455 S
C1165 H1158 0.950 . S
C1165 C1162 1.387 . S
C1166 C1167 1.387 . S
C1166 H1170 0.950 . S
C1166 C1175 1.390 . S
C1167 C1166 1.387 . S
C1167 C1169 1.387 . S
H1168 C1175 0.950 . S
C1169 C1167 1.387 . S
C1169 C1171 1.390 . S
C1169 H1173 0.950 . S
H1170 C1166 0.950 . S
C1171 C1169 1.390 . S
C1171 C1172 1.387 . S
C1171 H1174 0.950 . S
C1172 C1171 1.387 . S
C1172 C1175 1.387 . S
H1173 C1169 0.950 . S
H1174 C1171 0.950 . S
C1175 C1166 1.390 . S
C1175 H1168 0.950 . S
C1175 C1172 1.387 . S
C1176 C1177 1.387 . S
C1176 H1180 0.950 . S
C1176 C1185 1.390 . S
C1177 C1176 1.387 . S
C1177 C1179 1.387 . S
H1178 C1185 0.950 . S
C1179 C1177 1.387 . S
C1179 C1181 1.390 . S
C1179 H1183 0.950 . S
H1180 C1176 0.950 . S
C1181 C1179 1.390 . S
C1181 C1182 1.387 . S
C1181 H1184 0.950 . S
C1182 C1181 1.387 . S
C1182 C1185 1.387 . S
H1183 C1179 0.950 . S
H1184 C1181 0.950 . S
C1185 C1176 1.390 . S
C1185 H1178 0.950 . S
C1185 C1182 1.387 . S
C1186 C1187 1.387 . S
C1186 H1190 0.950 . S
C1186 C1195 1.390 . S
C1187 C1186 1.387 . S
C1187 C1189 1.387 . S
H1188 C1195 0.950 . S
C1189 C1187 1.387 . S
C1189 C1191 1.390 . S
C1189 H1193 0.950 . S
H1190 C1186 0.950 . S
C1191 C1189 1.390 . S
C1191 C1192 1.387 . S
C1191 H1194 0.950 . S
C1192 C1191 1.387 . S
C1192 C1195 1.387 . S
H1193 C1189 0.950 . S
H1194 C1191 0.950 . S
C1195 C1186 1.390 . S
C1195 H1188 0.950 . S
C1195 C1192 1.387 . S
C1196 C1197 1.387 . S
C1196 H1200 0.950 . S
C1196 C1205 1.390 1_455 S
C1197 C1196 1.387 . S
C1197 C1199 1.387 . S
H1198 C1205 0.950 . S
C1199 C1197 1.387 . S
C1199 C1201 1.390 1_455 S
C1199 H1203 0.950 . S
H1200 C1196 0.950 . S
C1201 C1199 1.390 1_655 S
C1201 C1202 1.387 . S
C1201 H1204 0.950 . S
C1202 C1201 1.387 . S
C1202 C1205 1.387 . S
H1203 C1199 0.950 . S
H1204 C1201 0.950 . S
C1205 C1196 1.390 1_655 S
C1205 H1198 0.950 . S
C1205 C1202 1.387 . S
C1206 C1207 1.387 . S
C1206 H1210 0.950 . S
C1206 C1215 1.390 1_655 S
C1207 C1206 1.387 . S
C1207 C1209 1.387 . S
H1208 C1215 0.950 . S
C1209 C1207 1.387 . S
C1209 C1211 1.390 1_655 S
C1209 H1213 0.950 . S
H1210 C1206 0.950 . S
C1211 C1209 1.390 1_455 S
C1211 C1212 1.387 . S
C1211 H1214 0.950 . S
C1212 C1211 1.387 . S
C1212 C1215 1.387 . S
H1213 C1209 0.950 . S
H1214 C1211 0.950 . S
C1215 C1206 1.390 1_455 S
C1215 H1208 0.950 . S
C1215 C1212 1.387 . S
C1216 C1217 1.387 . S
C1216 H1220 0.950 . S
C1216 C1225 1.390 . S
C1217 C1216 1.387 . S
C1217 C1219 1.387 . S
H1218 C1225 0.950 . S
C1219 C1217 1.387 . S
C1219 C1221 1.390 . S
C1219 H1223 0.950 . S
H1220 C1216 0.950 . S
C1221 C1219 1.390 . S
C1221 C1222 1.387 . S
C1221 H1224 0.950 . S
C1222 C1221 1.387 . S
C1222 C1225 1.387 . S
H1223 C1219 0.950 . S
H1224 C1221 0.950 . S
C1225 C1216 1.390 . S
C1225 H1218 0.950 . S
C1225 C1222 1.387 . S
C1226 C1227 1.387 . S
C1226 H1230 0.950 . S
C1226 C1235 1.390 . S
C1227 C1226 1.387 . S
C1227 C1229 1.387 . S
H1228 C1235 0.950 . S
C1229 C1227 1.387 . S
C1229 C1231 1.390 . S
C1229 H1233 0.950 . S
H1230 C1226 0.950 . S
C1231 C1229 1.390 . S
C1231 C1232 1.387 . S
C1231 H1234 0.950 . S
C1232 C1231 1.387 . S
C1232 C1235 1.387 . S
H1233 C1229 0.950 . S
H1234 C1231 0.950 . S
C1235 C1226 1.390 . S
C1235 H1228 0.950 . S
C1235 C1232 1.387 . S
C1236 C1237 1.387 . S
C1236 H1240 0.950 . S
C1236 C1245 1.390 . S
C1237 C1236 1.387 . S
C1237 C1239 1.387 . S
H1238 C1245 0.950 . S
C1239 C1237 1.387 . S
C1239 C1241 1.390 . S
C1239 H1243 0.950 . S
H1240 C1236 0.950 . S
C1241 C1239 1.390 . S
C1241 C1242 1.387 . S
C1241 H1244 0.950 . S
C1242 C1241 1.387 . S
C1242 C1245 1.387 . S
H1243 C1239 0.950 . S
H1244 C1241 0.950 . S
C1245 C1236 1.390 . S
C1245 H1238 0.950 . S
C1245 C1242 1.387 . S
C1246 C1247 1.387 . S
C1246 H1250 0.950 . S
C1246 C1255 1.390 . S
C1247 C1246 1.387 . S
C1247 C1249 1.387 . S
H1248 C1255 0.950 . S
C1249 C1247 1.387 . S
C1249 C1251 1.390 . S
C1249 H1253 0.950 . S
H1250 C1246 0.950 . S
C1251 C1249 1.390 . S
C1251 C1252 1.387 . S
C1251 H1254 0.950 . S
C1252 C1251 1.387 . S
C1252 C1255 1.387 . S
H1253 C1249 0.950 . S
H1254 C1251 0.950 . S
C1255 C1246 1.390 . S
C1255 H1248 0.950 . S
C1255 C1252 1.387 . S
C1256 C1257 1.387 . S
C1256 H1260 0.950 . S
C1256 C1265 1.390 . S
C1257 C1256 1.387 . S
C1257 C1259 1.387 . S
H1258 C1265 0.950 . S
C1259 C1257 1.387 . S
C1259 C1261 1.390 . S
C1259 H1263 0.950 . S
H1260 C1256 0.950 . S
C1261 C1259 1.390 . S
C1261 C1262 1.387 . S
C1261 H1264 0.950 . S
C1262 C1261 1.387 . S
C1262 C1265 1.387 . S
H1263 C1259 0.950 . S
H1264 C1261 0.950 . S
C1265 C1256 1.390 . S
C1265 H1258 0.950 . S
C1265 C1262 1.387 . S
C1266 C1267 1.387 . S
C1266 H1270 0.950 . S
C1266 C1275 1.390 . S
C1267 C1266 1.387 . S
C1267 C1269 1.387 . S
H1268 C1275 0.950 . S
C1269 C1267 1.387 . S
C1269 C1271 1.390 . S
C1269 H1273 0.950 . S
H1270 C1266 0.950 . S
C1271 C1269 1.390 . S
C1271 C1272 1.387 . S
C1271 H1274 0.950 . S
C1272 C1271 1.387 . S
C1272 C1275 1.387 . S
H1273 C1269 0.950 . S
H1274 C1271 0.950 . S
C1275 C1266 1.390 . S
C1275 H1268 0.950 . S
C1275 C1272 1.387 . S
C1276 C1277 1.387 . S
C1276 H1280 0.950 . S
C1276 C1285 1.390 . S
C1277 C1276 1.387 . S
C1277 C1279 1.387 . S
H1278 C1285 0.950 . S
C1279 C1277 1.387 . S
C1279 C1281 1.390 . S
C1279 H1283 0.950 . S
H1280 C1276 0.950 . S
C1281 C1279 1.390 . S
C1281 C1282 1.387 . S
C1281 H1284 0.950 . S
C1282 C1281 1.387 . S
C1282 C1285 1.387 . S
H1283 C1279 0.950 . S
H1284 C1281 0.950 . S
C1285 C1276 1.390 . S
C1285 H1278 0.950 . S
C1285 C1282 1.387 . S
C1286 C1287 1.387 . S
C1286 H1290 0.950 . S
C1286 C1295 1.390 . S
C1287 C1286 1.387 . S
C1287 C1289 1.387 . S
H1288 C1295 0.950 . S
C1289 C1287 1.387 . S
C1289 C1291 1.390 . S
C1289 H1293 0.950 . S
H1290 C1286 0.950 . S
C1291 C1289 1.390 . S
C1291 C1292 1.387 . S
C1291 H1294 0.950 . S
C1292 C1291 1.387 . S
C1292 C1295 1.387 . S
H1293 C1289 0.950 . S
H1294 C1291 0.950 . S
C1295 C1286 1.390 . S
C1295 H1288 0.950 . S
C1295 C1292 1.387 . S
C1296 C1297 1.387 . S
C1296 H1300 0.950 . S
C1296 C1305 1.390 . S
C1297 C1296 1.387 . S
C1297 C1299 1.387 . S
H1298 C1305 0.950 . S
C1299 C1297 1.387 . S
C1299 C1301 1.390 . S
C1299 H1303 0.950 . S
H1300 C1296 0.950 . S
C1301 C1299 1.390 . S
C1301 C1302 1.387 . S
C1301 H1304 0.950 . S
C1302 C1301 1.387 . S
C1302 C1305 1.387 . S
H1303 C1299 0.950 . S
H1304 C1301 0.950 . S
C1305 C1296 1.390 . S
C1305 H1298 0.950 . S
C1305 C1302 1.387 . S
C1306 C1307 1.387 . S
C1306 H1310 0.950 . S
C1306 C1315 1.390 . S
C1307 C1306 1.387 . S
C1307 C1309 1.387 . S
H1308 C1315 0.950 . S
C1309 C1307 1.387 . S
C1309 C1311 1.390 . S
C1309 H1313 0.950 . S
H1310 C1306 0.950 . S
C1311 C1309 1.390 . S
C1311 C1312 1.387 . S
C1311 H1314 0.950 . S
C1312 C1311 1.387 . S
C1312 C1315 1.387 . S
H1313 C1309 0.950 . S
H1314 C1311 0.950 . S
C1315 C1306 1.390 . S
C1315 H1308 0.950 . S
C1315 C1312 1.387 . S
C1316 C1317 1.387 . S
C1316 H1320 0.950 . S
C1316 C1325 1.390 . S
C1317 C1316 1.387 . S
C1317 C1319 1.387 . S
H1318 C1325 0.950 . S
C1319 C1317 1.387 . S
C1319 C1321 1.390 . S
C1319 H1323 0.950 . S
H1320 C1316 0.950 . S
C1321 C1319 1.390 . S
C1321 C1322 1.387 . S
C1321 H1324 0.950 . S
C1322 C1321 1.387 . S
C1322 C1325 1.387 . S
H1323 C1319 0.950 . S
H1324 C1321 0.950 . S
C1325 C1316 1.390 . S
C1325 H1318 0.950 . S
C1325 C1322 1.387 . S
C1326 C1327 1.387 . S
C1326 H1330 0.950 . S
C1326 C1335 1.390 . S
C1327 C1326 1.387 . S
C1327 C1329 1.387 . S
H1328 C1335 0.950 . S
C1329 C1327 1.387 . S
C1329 C1331 1.390 . S
C1329 H1333 0.950 . S
H1330 C1326 0.950 . S
C1331 C1329 1.390 . S
C1331 C1332 1.387 . S
C1331 H1334 0.950 . S
C1332 C1331 1.387 . S
C1332 C1335 1.387 . S
H1333 C1329 0.950 . S
H1334 C1331 0.950 . S
C1335 C1326 1.390 . S
C1335 H1328 0.950 . S
C1335 C1332 1.387 . S
C1336 C1337 1.387 . S
C1336 H1340 0.950 . S
C1336 C1345 1.390 . S
C1337 C1336 1.387 . S
C1337 C1339 1.387 . S
H1338 C1345 0.950 . S
C1339 C1337 1.387 . S
C1339 C1341 1.390 . S
C1339 H1343 0.950 . S
H1340 C1336 0.950 . S
C1341 C1339 1.390 . S
C1341 C1342 1.387 . S
C1341 H1344 0.950 . S
C1342 C1341 1.387 . S
C1342 C1345 1.387 . S
H1343 C1339 0.950 . S
H1344 C1341 0.950 . S
C1345 C1336 1.390 . S
C1345 H1338 0.950 . S
C1345 C1342 1.387 . S
C1346 C1347 1.387 . S
C1346 H1350 0.950 . S
C1346 C1355 1.390 . S
C1347 C1346 1.387 . S
C1347 C1349 1.387 . S
H1348 C1355 0.950 . S
C1349 C1347 1.387 . S
C1349 C1351 1.390 . S
C1349 H1353 0.950 . S
H1350 C1346 0.950 . S
C1351 C1349 1.390 . S
C1351 C1352 1.387 . S
C1351 H1354 0.950 . S
C1352 C1351 1.387 . S
C1352 C1355 1.387 . S
H1353 C1349 0.950 . S
H1354 C1351 0.950 . S
C1355 C1346 1.390 . S
C1355 H1348 0.950 . S
C1355 C1352 1.387 . S
C1356 C1357 1.387 . S
C1356 H1360 0.950 . S
C1356 C1365 1.390 . S
C1357 C1356 1.387 . S
C1357 C1359 1.387 . S
H1358 C1365 0.950 . S
C1359 C1357 1.387 . S
C1359 C1361 1.390 . S
C1359 H1363 0.950 . S
H1360 C1356 0.950 . S
C1361 C1359 1.390 . S
C1361 C1362 1.387 . S
C1361 H1364 0.950 . S
C1362 C1361 1.387 . S
C1362 C1365 1.387 . S
H1363 C1359 0.950 . S
H1364 C1361 0.950 . S
C1365 C1356 1.390 . S
C1365 H1358 0.950 . S
C1365 C1362 1.387 . S
C1366 C1367 1.387 . S
C1366 H1370 0.950 . S
C1366 C1375 1.390 . S
C1367 C1366 1.387 . S
C1367 C1369 1.387 . S
H1368 C1375 0.950 . S
C1369 C1367 1.387 . S
C1369 C1371 1.390 . S
C1369 H1373 0.950 . S
H1370 C1366 0.950 . S
C1371 C1369 1.390 . S
C1371 C1372 1.387 . S
C1371 H1374 0.950 . S
C1372 C1371 1.387 . S
C1372 C1375 1.387 . S
H1373 C1369 0.950 . S
H1374 C1371 0.950 . S
C1375 C1366 1.390 . S
C1375 H1368 0.950 . S
C1375 C1372 1.387 . S
C1376 C1377 1.387 . S
C1376 H1380 0.950 . S
C1376 C1385 1.390 . S
C1377 C1376 1.387 . S
C1377 C1379 1.387 . S
H1378 C1385 0.950 . S
C1379 C1377 1.387 . S
C1379 C1381 1.390 . S
C1379 H1383 0.950 . S
H1380 C1376 0.950 . S
C1381 C1379 1.390 . S
C1381 C1382 1.387 . S
C1381 H1384 0.950 . S
C1382 C1381 1.387 . S
C1382 C1385 1.387 . S
H1383 C1379 0.950 . S
H1384 C1381 0.950 . S
C1385 C1376 1.390 . S
C1385 H1378 0.950 . S
C1385 C1382 1.387 . S
C1386 C1387 1.387 . S
C1386 H1390 0.950 . S
C1386 C1395 1.390 . S
C1387 C1386 1.387 . S
C1387 C1389 1.387 . S
H1388 C1395 0.950 . S
C1389 C1387 1.387 . S
C1389 C1391 1.390 . S
C1389 H1393 0.950 . S
H1390 C1386 0.950 . S
C1391 C1389 1.390 . S
C1391 C1392 1.387 . S
C1391 H1394 0.950 . S
C1392 C1391 1.387 . S
C1392 C1395 1.387 . S
H1393 C1389 0.950 . S
H1394 C1391 0.950 . S
C1395 C1386 1.390 . S
C1395 H1388 0.950 . S
C1395 C1392 1.387 . S
C1396 C1397 1.387 . S
C1396 H1400 0.950 . S
C1396 C1405 1.390 . S
C1397 C1396 1.387 . S
C1397 C1399 1.387 . S
H1398 C1405 0.950 . S
C1399 C1397 1.387 . S
C1399 C1401 1.390 . S
C1399 H1403 0.950 . S
H1400 C1396 0.950 . S
C1401 C1399 1.390 . S
C1401 C1402 1.387 . S
C1401 H1404 0.950 . S
C1402 C1401 1.387 . S
C1402 C1405 1.387 . S
H1403 C1399 0.950 . S
H1404 C1401 0.950 . S
C1405 C1396 1.390 . S
C1405 H1398 0.950 . S
C1405 C1402 1.387 . S
C1406 C1407 1.387 . S
C1406 H1410 0.950 . S
C1406 C1415 1.390 . S
C1407 C1406 1.387 . S
C1407 C1409 1.387 . S
H1408 C1415 0.950 . S
C1409 C1407 1.387 . S
C1409 C1411 1.390 . S
C1409 H1413 0.950 . S
H1410 C1406 0.950 . S
C1411 C1409 1.390 . S
C1411 C1412 1.387 . S
C1411 H1414 0.950 . S
C1412 C1411 1.387 . S
C1412 C1415 1.387 . S
H1413 C1409 0.950 . S
H1414 C1411 0.950 . S
C1415 C1406 1.390 . S
C1415 H1408 0.950 . S
C1415 C1412 1.387 . S
C1416 C1417 1.387 . S
C1416 H1420 0.950 . S
C1416 C1425 1.390 . S
C1417 C1416 1.387 . S
C1417 C1419 1.387 . S
H1418 C1425 0.950 . S
C1419 C1417 1.387 . S
C1419 C1421 1.390 . S
C1419 H1423 0.950 . S
H1420 C1416 0.950 . S
C1421 C1419 1.390 . S
C1421 C1422 1.387 . S
C1421 H1424 0.950 . S
C1422 C1421 1.387 . S
C1422 C1425 1.387 . S
H1423 C1419 0.950 . S
H1424 C1421 0.950 . S
C1425 C1416 1.390 . S
C1425 H1418 0.950 . S
C1425 C1422 1.387 . S
C1426 C1427 1.387 . S
C1426 H1430 0.950 . S
C1426 C1435 1.390 . S
C1427 C1426 1.387 . S
C1427 C1429 1.387 . S
H1428 C1435 0.950 . S
C1429 C1427 1.387 . S
C1429 C1431 1.390 . S
C1429 H1433 0.950 . S
H1430 C1426 0.950 . S
C1431 C1429 1.390 . S
C1431 C1432 1.387 . S
C1431 H1434 0.950 . S
C1432 C1431 1.387 . S
C1432 C1435 1.387 . S
H1433 C1429 0.950 . S
H1434 C1431 0.950 . S
C1435 C1426 1.390 . S
C1435 H1428 0.950 . S
C1435 C1432 1.387 . S
C1436 C1437 1.387 . S
C1436 H1440 0.950 . S
C1436 C1445 1.390 . S
C1437 C1436 1.387 . S
C1437 C1439 1.387 . S
H1438 C1445 0.950 . S
C1439 C1437 1.387 . S
C1439 C1441 1.390 . S
C1439 H1443 0.950 . S
H1440 C1436 0.950 . S
C1441 C1439 1.390 . S
C1441 C1442 1.387 . S
C1441 H1444 0.950 . S
C1442 C1441 1.387 . S
C1442 C1445 1.387 . S
H1443 C1439 0.950 . S
H1444 C1441 0.950 . S
C1445 C1436 1.390 . S
C1445 H1438 0.950 . S
C1445 C1442 1.387 . S
C1446 C1447 1.387 . S
C1446 H1450 0.950 . S
C1446 C1455 1.390 . S
C1447 C1446 1.387 . S
C1447 C1449 1.387 . S
H1448 C1455 0.950 . S
C1449 C1447 1.387 . S
C1449 C1451 1.390 . S
C1449 H1453 0.950 . S
H1450 C1446 0.950 . S
C1451 C1449 1.390 . S
C1451 C1452 1.387 . S
C1451 H1454 0.950 . S
C1452 C1451 1.387 . S
C1452 C1455 1.387 . S
H1453 C1449 0.950 . S
H1454 C1451 0.950 . S
C1455 C1446 1.390 . S
C1455 H1448 0.950 . S
C1455 C1452 1.387 . S
C1456 C1457 1.387 . S
C1456 H1460 0.950 . S
C1456 C1465 1.390 . S
C1457 C1456 1.387 . S
C1457 C1459 1.387 . S
H1458 C1465 0.950 . S
C1459 C1457 1.387 . S
C1459 C1461 1.390 . S
C1459 H1463 0.950 . S
H1460 C1456 0.950 . S
C1461 C1459 1.390 . S
C1461 C1462 1.387 . S
C1461 H1464 0.950 . S
C1462 C1461 1.387 . S
C1462 C1465 1.387 . S
H1463 C1459 0.950 . S
H1464 C1461 0.950 . S
C1465 C1456 1.390 . S
C1465 H1458 0.950 . S
C1465 C1462 1.387 . S
C1466 C1467 1.387 . S
C1466 H1470 0.950 . S
C1466 C1475 1.390 . S
C1467 C1466 1.387 . S
C1467 C1469 1.387 . S
H1468 C1475 0.950 . S
C1469 C1467 1.387 . S
C1469 C1471 1.390 . S
C1469 H1473 0.950 . S
H1470 C1466 0.950 . S
C1471 C1469 1.390 . S
C1471 C1472 1.387 . S
C1471 H1474 0.950 . S
C1472 C1471 1.387 . S
C1472 C1475 1.387 . S
H1473 C1469 0.950 . S
H1474 C1471 0.950 . S
C1475 C1466 1.390 . S
C1475 H1468 0.950 . S
C1475 C1472 1.387 . S
C1476 C1477 1.387 . S
C1476 H1480 0.950 . S
C1476 C1485 1.390 . S
C1477 C1476 1.387 . S
C1477 C1479 1.387 . S
H1478 C1485 0.950 . S
C1479 C1477 1.387 . S
C1479 C1481 1.390 . S
C1479 H1483 0.950 . S
H1480 C1476 0.950 . S
C1481 C1479 1.390 . S
C1481 C1482 1.387 . S
C1481 H1484 0.950 . S
C1482 C1481 1.387 . S
C1482 C1485 1.387 . S
H1483 C1479 0.950 . S
H1484 C1481 0.950 . S
C1485 C1476 1.390 . S
C1485 H1478 0.950 . S
C1485 C1482 1.387 . S
C1486 C1487 1.387 . S
C1486 H1490 0.950 . S
C1486 C1495 1.390 . S
C1487 C1486 1.387 . S
C1487 C1489 1.387 . S
H1488 C1495 0.950 . S
C1489 C1487 1.387 . S
C1489 C1491 1.390 . S
C1489 H1493 0.950 . S
H1490 C1486 0.950 . S
C1491 C1489 1.390 . S
C1491 C1492 1.387 . S
C1491 H1494 0.950 . S
C1492 C1491 1.387 . S
C1492 C1495 1.387 . S
H1493 C1489 0.950 . S
H1494 C1491 0.950 . S
C1495 C1486 1.390 . S
C1495 H1488 0.950 . S
C1495 C1492 1.387 . S
C1496 C1497 1.387 . S
C1496 H1500 0.950 . S
C1496 C1505 1.390 . S
C1497 C1496 1.387 . S
C1497 C1499 1.387 . S
H1498 C1505 0.950 . S
C1499 C1497 1.387 . S
C1499 C1501 1.390 . S
C1499 H1503 0.950 . S
H1500 C1496 0.950 . S
C1501 C1499 1.390 . S
C1501 C1502 1.387 . S
C1501 H1504 0.950 . S
C1502 C1501 1.387 . S
C1502 C1505 1.387 . S
H1503 C1499 0.950 . S
H1504 C1501 0.950 . S
C1505 C1496 1.390 . S
C1505 H1498 0.950 . S
C1505 C1502 1.387 . S
C1506 C1507 1.387 . S
C1506 H1510 0.950 . S
C1506 C1515 1.390 . S
C1507 C1506 1.387 . S
C1507 C1509 1.387 . S
H1508 C1515 0.950 . S
C1509 C1507 1.387 . S
C1509 C1511 1.390 . S
C1509 H1513 0.950 . S
H1510 C1506 0.950 . S
C1511 C1509 1.390 . S
C1511 C1512 1.387 . S
C1511 H1514 0.950 . S
C1512 C1511 1.387 . S
C1512 C1515 1.387 . S
H1513 C1509 0.950 . S
H1514 C1511 0.950 . S
C1515 C1506 1.390 . S
C1515 H1508 0.950 . S
C1515 C1512 1.387 . S
C1516 C1517 1.387 . S
C1516 H1520 0.950 . S
C1516 C1525 1.390 . S
C1517 C1516 1.387 . S
C1517 C1519 1.387 . S
H1518 C1525 0.950 . S
C1519 C1517 1.387 . S
C1519 C1521 1.390 . S
C1519 H1523 0.950 . S
H1520 C1516 0.950 . S
C1521 C1519 1.390 . S
C1521 C1522 1.387 . S
C1521 H1524 0.950 . S
C1522 C1521 1.387 . S
C1522 C1525 1.387 . S
H1523 C1519 0.950 . S
H1524 C1521 0.950 . S
C1525 C1516 1.390 . S
C1525 H1518 0.950 . S
C1525 C1522 1.387 . S
C1526 C1527 1.387 . S
C1526 H1530 0.950 . S
C1526 C1535 1.390 . S
C1527 C1526 1.387 . S
C1527 C1529 1.387 . S
H1528 C1535 0.950 . S
C1529 C1527 1.387 . S
C1529 C1531 1.390 . S
C1529 H1533 0.950 . S
H1530 C1526 0.950 . S
C1531 C1529 1.390 . S
C1531 C1532 1.387 . S
C1531 H1534 0.950 . S
C1532 C1531 1.387 . S
C1532 C1535 1.387 . S
H1533 C1529 0.950 . S
H1534 C1531 0.950 . S
C1535 C1526 1.390 . S
C1535 H1528 0.950 . S
C1535 C1532 1.387 . S
C1536 C1537 1.387 . S
C1536 H1540 0.950 . S
C1536 C1545 1.390 . S
C1537 C1536 1.387 . S
C1537 C1539 1.387 . S
H1538 C1545 0.950 . S
C1539 C1537 1.387 . S
C1539 C1541 1.390 . S
C1539 H1543 0.950 . S
H1540 C1536 0.950 . S
C1541 C1539 1.390 . S
C1541 C1542 1.387 . S
C1541 H1544 0.950 . S
C1542 C1541 1.387 . S
C1542 C1545 1.387 . S
H1543 C1539 0.950 . S
H1544 C1541 0.950 . S
C1545 C1536 1.390 . S
C1545 H1538 0.950 . S
C1545 C1542 1.387 . S
C1546 C1547 1.387 . S
C1546 H1550 0.950 . S
C1546 C1555 1.390 . S
C1547 C1546 1.387 . S
C1547 C1549 1.387 . S
H1548 C1555 0.950 . S
C1549 C1547 1.387 . S
C1549 C1551 1.390 . S
C1549 H1553 0.950 . S
H1550 C1546 0.950 . S
C1551 C1549 1.390 . S
C1551 C1552 1.387 . S
C1551 H1554 0.950 . S
C1552 C1551 1.387 . S
C1552 C1555 1.387 . S
H1553 C1549 0.950 . S
H1554 C1551 0.950 . S
C1555 C1546 1.390 . S
C1555 H1548 0.950 . S
C1555 C1552 1.387 . S
C1556 C1557 1.387 . S
C1556 H1560 0.950 . S
C1556 C1565 1.390 . S
C1557 C1556 1.387 . S
C1557 C1559 1.387 . S
H1558 C1565 0.950 . S
C1559 C1557 1.387 . S
C1559 C1561 1.390 . S
C1559 H1563 0.950 . S
H1560 C1556 0.950 . S
C1561 C1559 1.390 . S
C1561 C1562 1.387 . S
C1561 H1564 0.950 . S
C1562 C1561 1.387 . S
C1562 C1565 1.387 . S
H1563 C1559 0.950 . S
H1564 C1561 0.950 . S
C1565 C1556 1.390 . S
C1565 H1558 0.950 . S
C1565 C1562 1.387 . S
C1566 C1567 1.387 . S
C1566 H1570 0.950 . S
C1566 C1575 1.390 . S
C1567 C1566 1.387 . S
C1567 C1569 1.387 . S
H1568 C1575 0.950 . S
C1569 C1567 1.387 . S
C1569 C1571 1.390 . S
C1569 H1573 0.950 . S
H1570 C1566 0.950 . S
C1571 C1569 1.390 . S
C1571 C1572 1.387 . S
C1571 H1574 0.950 . S
C1572 C1571 1.387 . S
C1572 C1575 1.387 . S
H1573 C1569 0.950 . S
H1574 C1571 0.950 . S
C1575 C1566 1.390 . S
C1575 H1568 0.950 . S
C1575 C1572 1.387 . S
C1576 C1577 1.387 . S
C1576 H1580 0.950 . S
C1576 C1585 1.390 . S
C1577 C1576 1.387 . S
C1577 C1579 1.387 . S
H1578 C1585 0.950 . S
C1579 C1577 1.387 . S
C1579 C1581 1.390 . S
C1579 H1583 0.950 . S
H1580 C1576 0.950 . S
C1581 C1579 1.390 . S
C1581 C1582 1.387 . S
C1581 H1584 0.950 . S
C1582 C1581 1.387 . S
C1582 C1585 1.387 . S
H1583 C1579 0.950 . S
H1584 C1581 0.950 . S
C1585 C1576 1.390 . S
C1585 H1578 0.950 . S
C1585 C1582 1.387 . S
C1586 C1587 1.387 . S
C1586 H1590 0.950 . S
C1586 C1595 1.390 . S
C1587 C1586 1.387 . S
C1587 C1589 1.387 . S
H1588 C1595 0.950 . S
C1589 C1587 1.387 . S
C1589 C1591 1.390 . S
C1589 H1593 0.950 . S
H1590 C1586 0.950 . S
C1591 C1589 1.390 . S
C1591 C1592 1.387 . S
C1591 H1594 0.950 . S
C1592 C1591 1.387 . S
C1592 C1595 1.387 . S
H1593 C1589 0.950 . S
H1594 C1591 0.950 . S
C1595 C1586 1.390 . S
C1595 H1588 0.950 . S
C1595 C1592 1.387 . S
C1596 C1597 1.387 . S
C1596 H1600 0.950 . S
C1596 C1605 1.390 . S
C1597 C1596 1.387 . S
C1597 C1599 1.387 . S
H1598 C1605 0.950 . S
C1599 C1597 1.387 . S
C1599 C1601 1.390 . S
C1599 H1603 0.950 . S
H1600 C1596 0.950 . S
C1601 C1599 1.390 . S
C1601 C1602 1.387 . S
C1601 H1604 0.950 . S
C1602 C1601 1.387 . S
C1602 C1605 1.387 . S
H1603 C1599 0.950 . S
H1604 C1601 0.950 . S
C1605 C1596 1.390 . S
C1605 H1598 0.950 . S
C1605 C1602 1.387 . S
C1606 C1607 1.387 . S
C1606 H1610 0.950 . S
C1606 C1615 1.390 . S
C1607 C1606 1.387 . S
C1607 C1609 1.387 . S
H1608 C1615 0.950 . S
C1609 C1607 1.387 . S
C1609 C1611 1.390 . S
C1609 H1613 0.950 . S
H1610 C1606 0.950 . S
C1611 C1609 1.390 . S
C1611 C1612 1.387 . S
C1611 H1614 0.950 . S
C1612 C1611 1.387 . S
C1612 C1615 1.387 . S
H1613 C1609 0.950 . S
H1614 C1611 0.950 . S
C1615 C1606 1.390 . S
C1615 H1608 0.950 . S
C1615 C1612 1.387 . S
C1616 C1617 1.387 . S
C1616 H1620 0.950 . S
C1616 C1625 1.390 . S
C1617 C1616 1.387 . S
C1617 C1619 1.387 . S
H1618 C1625 0.950 . S
C1619 C1617 1.387 . S
C1619 C1621 1.390 . S
C1619 H1623 0.950 . S
H1620 C1616 0.950 . S
C1621 C1619 1.390 . S
C1621 C1622 1.387 . S
C1621 H1624 0.950 . S
C1622 C1621 1.387 . S
C1622 C1625 1.387 . S
H1623 C1619 0.950 . S
H1624 C1621 0.950 . S
C1625 C1616 1.390 . S
C1625 H1618 0.950 . S
C1625 C1622 1.387 . S
C1626 C1627 1.387 . S
C1626 H1630 0.950 . S
C1626 C1635 1.390 . S
C1627 C1626 1.387 . S
C1627 C1629 1.387 . S
H1628 C1635 0.950 . S
C1629 C1627 1.387 . S
C1629 C1631 1.390 . S
C1629 H1633 0.950 . S
H1630 C1626 0.950 . S
C1631 C1629 1.390 . S
C1631 C1632 1.387 . S
C1631 H1634 0.950 . S
C1632 C1631 1.387 . S
C1632 C1635 1.387 . S
H1633 C1629 0.950 . S
H1634 C1631 0.950 . S
C1635 C1626 1.390 . S
C1635 H1628 0.950 . S
C1635 C1632 1.387 . S
C1636 C1637 1.387 . S
C1636 H1640 0.950 . S
C1636 C1645 1.390 . S
C1637 C1636 1.387 . S
C1637 C1639 1.387 . S
H1638 C1645 0.950 . S
C1639 C1637 1.387 . S
C1639 C1641 1.390 . S
C1639 H1643 0.950 . S
H1640 C1636 0.950 . S
C1641 C1639 1.390 . S
C1641 C1642 1.387 . S
C1641 H1644 0.950 . S
C1642 C1641 1.387 . S
C1642 C1645 1.387 . S
H1643 C1639 0.950 . S
H1644 C1641 0.950 . S
C1645 C1636 1.390 . S
C1645 H1638 0.950 . S
C1645 C1642 1.387 . S
C1646 C1647 1.387 . S
C1646 H1650 0.950 . S
C1646 C1655 1.390 . S
C1647 C1646 1.387 . S
C1647 C1649 1.387 . S
H1648 C1655 0.950 . S
C1649 C1647 1.387 . S
C1649 C1651 1.390 . S
C1649 H1653 0.950 . S
H1650 C1646 0.950 . S
C1651 C1649 1.390 . S
C1651 C1652 1.387 . S
C1651 H1654 0.950 . S
C1652 C1651 1.387 . S
C1652 C1655 1.387 . S
H1653 C1649 0.950 . S
H1654 C1651 0.950 . S
C1655 C1646 1.390 . S
C1655 H1648 0.950 . S
C1655 C1652 1.387 . S
C1656 C1657 1.387 . S
C1656 H1660 0.950 . S
C1656 C1665 1.390 . S
C1657 C1656 1.387 . S
C1657 C1659 1.387 . S
H1658 C1665 0.950 . S
C1659 C1657 1.387 . S
C1659 C1661 1.390 . S
C1659 H1663 0.950 . S
H1660 C1656 0.950 . S
C1661 C1659 1.390 . S
C1661 C1662 1.387 . S
C1661 H1664 0.950 . S
C1662 C1661 1.387 . S
C1662 C1665 1.387 . S
H1663 C1659 0.950 . S
H1664 C1661 0.950 . S
C1665 C1656 1.390 . S
C1665 H1658 0.950 . S
C1665 C1662 1.387 . S
C1666 C1667 1.387 . S
C1666 H1670 0.950 . S
C1666 C1675 1.390 . S
C1667 C1666 1.387 . S
C1667 C1669 1.387 . S
H1668 C1675 0.950 . S
C1669 C1667 1.387 . S
C1669 C1671 1.390 . S
C1669 H1673 0.950 . S
H1670 C1666 0.950 . S
C1671 C1669 1.390 . S
C1671 C1672 1.387 . S
C1671 H1674 0.950 . S
C1672 C1671 1.387 . S
C1672 C1675 1.387 . S
H1673 C1669 0.950 . S
H1674 C1671 0.950 . S
C1675 C1666 1.390 . S
C1675 H1668 0.950 . S
C1675 C1672 1.387 . S
C1676 C1677 1.387 . S
C1676 H1680 0.950 . S
C1676 C1685 1.390 . S
C1677 C1676 1.387 . S
C1677 C1679 1.387 . S
H1678 C1685 0.950 . S
C1679 C1677 1.387 . S
C1679 C1681 1.390 . S
C1679 H1683 0.950 . S
H1680 C1676 0.950 . S
C1681 C1679 1.390 . S
C1681 C1682 1.387 . S
C1681 H1684 0.950 . S
C1682 C1681 1.387 . S
C1682 C1685 1.387 . S
H1683 C1679 0.950 . S
H1684 C1681 0.950 . S
C1685 C1676 1.390 . S
C1685 H1678 0.950 . S
C1685 C1682 1.387 . S
C1686 C1687 1.387 . S
C1686 H1690 0.950 . S
C1686 C1695 1.390 . S
C1687 C1686 1.387 . S
C1687 C1689 1.387 . S
H1688 C1695 0.950 . S
C1689 C1687 1.387 . S
C1689 C1691 1.390 . S
C1689 H1693 0.950 . S
H1690 C1686 0.950 . S
C1691 C1689 1.390 . S
C1691 C1692 1.387 . S
C1691 H1694 0.950 . S
C1692 C1691 1.387 . S
C1692 C1695 1.387 . S
H1693 C1689 0.950 . S
H1694 C1691 0.950 . S
C1695 C1686 1.390 . S
C1695 H1688 0.950 . S
C1695 C1692 1.387 . S
C1696 C1697 1.387 . S
C1696 H1700 0.950 . S
C1696 C1705 1.390 . S
C1697 C1696 1.387 . S
C1697 C1699 1.387 . S
H1698 C1705 0.950 . S
C1699 C1697 1.387 . S
C1699 C1701 1.390 . S
C1699 H1703 0.950 . S
H1700 C1696 0.950 . S
C1701 C1699 1.390 . S
C1701 C1702 1.387 . S
C1701 H1704 0.950 . S
C1702 C1701 1.387 . S
C1702 C1705 1.387 . S
H1703 C1699 0.950 . S
H1704 C1701 0.950 . S
C1705 C1696 1.390 . S
C1705 H1698 0.950 . S
C1705 C1702 1.387 . S
C1706 C1707 1.387 1_545 S
C1706 H1710 0.950 . S
C1706 C1715 1.390 1_655 S
C1707 C1706 1.387 1_565 S
C1707 C1709 1.387 . S
H1708 C1715 0.950 . S
C1709 C1707 1.387 . S
C1709 C1711 1.390 1_655 S
C1709 H1713 0.950 . S
H1710 C1706 0.950 . S
C1711 C1709 1.390 1_455 S
C1711 C1712 1.387 1_565 S
C1711 H1714 0.950 . S
C1712 C1711 1.387 1_545 S
C1712 C1715 1.387 . S
H1713 C1709 0.950 . S
H1714 C1711 0.950 . S
C1715 C1706 1.390 1_455 S
C1715 H1708 0.950 . S
C1715 C1712 1.387 . S
C1716 C1717 1.387 . S
C1716 H1720 0.950 . S
C1716 C1725 1.390 . S
C1717 C1716 1.387 . S
C1717 C1719 1.387 . S
H1718 C1725 0.950 . S
C1719 C1717 1.387 . S
C1719 C1721 1.390 . S
C1719 H1723 0.950 . S
H1720 C1716 0.950 . S
C1721 C1719 1.390 . S
C1721 C1722 1.387 . S
C1721 H1724 0.950 . S
C1722 C1721 1.387 . S
C1722 C1725 1.387 . S
H1723 C1719 0.950 . S
H1724 C1721 0.950 . S
C1725 C1716 1.390 . S
C1725 H1718 0.950 . S
C1725 C1722 1.387 . S
C1726 C1727 1.387 . S
C1726 H1730 0.950 . S
C1726 C1735 1.390 1_556 S
C1727 C1726 1.387 . S
C1727 C1729 1.387 1_565 S
H1728 C1735 0.950 . S
C1729 C1727 1.387 1_545 S
C1729 C1731 1.390 1_556 S
C1729 H1733 0.950 . S
H1730 C1726 0.950 . S
C1731 C1729 1.390 1_554 S
C1731 C1732 1.387 . S
C1731 H1734 0.950 . S
C1732 C1731 1.387 . S
C1732 C1735 1.387 1_545 S
H1733 C1729 0.950 . S
H1734 C1731 0.950 . S
C1735 C1726 1.390 1_554 S
C1735 H1728 0.950 . S
C1735 C1732 1.387 1_565 S
C1736 C1737 1.387 . S
C1736 H1740 0.950 . S
C1736 C1745 1.390 . S
C1737 C1736 1.387 . S
C1737 C1739 1.387 . S
H1738 C1745 0.950 . S
C1739 C1737 1.387 . S
C1739 C1741 1.390 . S
C1739 H1743 0.950 . S
H1740 C1736 0.950 . S
C1741 C1739 1.390 . S
C1741 C1742 1.387 . S
C1741 H1744 0.950 . S
C1742 C1741 1.387 . S
C1742 C1745 1.387 . S
H1743 C1739 0.950 . S
H1744 C1741 0.950 . S
C1745 C1736 1.390 . S
C1745 H1738 0.950 . S
C1745 C1742 1.387 . S
C1746 C1747 1.387 . S
C1746 H1750 0.950 . S
C1746 C1755 1.390 . S
C1747 C1746 1.387 . S
C1747 C1749 1.387 1_545 S
H1748 C1755 0.950 . S
C1749 C1747 1.387 1_565 S
C1749 C1751 1.390 . S
C1749 H1753 0.950 . S
H1750 C1746 0.950 . S
C1751 C1749 1.390 . S
C1751 C1752 1.387 . S
C1751 H1754 0.950 . S
C1752 C1751 1.387 . S
C1752 C1755 1.387 1_565 S
H1753 C1749 0.950 . S
H1754 C1751 0.950 . S
C1755 C1746 1.390 . S
C1755 H1748 0.950 . S
C1755 C1752 1.387 1_545 S
C1756 C1757 1.387 . S
C1756 H1760 0.950 . S
C1756 C1765 1.390 . S
C1757 C1756 1.387 . S
C1757 C1759 1.387 . S
H1758 C1765 0.950 . S
C1759 C1757 1.387 . S
C1759 C1761 1.390 . S
C1759 H1763 0.950 . S
H1760 C1756 0.950 . S
C1761 C1759 1.390 . S
C1761 C1762 1.387 . S
C1761 H1764 0.950 . S
C1762 C1761 1.387 . S
C1762 C1765 1.387 . S
H1763 C1759 0.950 . S
H1764 C1761 0.950 . S
C1765 C1756 1.390 . S
C1765 H1758 0.950 . S
C1765 C1762 1.387 . S
C1766 C1767 1.387 . S
C1766 H1770 0.950 . S
C1766 C1775 1.390 1_454 S
C1767 C1766 1.387 . S
C1767 C1769 1.387 1_565 S
H1768 C1775 0.950 . S
C1769 C1767 1.387 1_545 S
C1769 C1771 1.390 1_454 S
C1769 H1773 0.950 . S
H1770 C1766 0.950 . S
C1771 C1769 1.390 1_656 S
C1771 C1772 1.387 . S
C1771 H1774 0.950 . S
C1772 C1771 1.387 . S
C1772 C1775 1.387 1_545 S
H1773 C1769 0.950 . S
H1774 C1771 0.950 . S
C1775 C1766 1.390 1_656 S
C1775 H1768 0.950 . S
C1775 C1772 1.387 1_565 S
C1776 C1777 1.387 . S
C1776 H1780 0.950 . S
C1776 C1785 1.390 . S
C1777 C1776 1.387 . S
C1777 C1779 1.387 . S
H1778 C1785 0.950 . S
C1779 C1777 1.387 . S
C1779 C1781 1.390 . S
C1779 H1783 0.950 . S
H1780 C1776 0.950 . S
C1781 C1779 1.390 . S
C1781 C1782 1.387 . S
C1781 H1784 0.950 . S
C1782 C1781 1.387 . S
C1782 C1785 1.387 . S
H1783 C1779 0.950 . S
H1784 C1781 0.950 . S
C1785 C1776 1.390 . S
C1785 H1778 0.950 . S
C1785 C1782 1.387 . S
C1786 C1787 1.387 . S
C1786 H1790 0.950 . S
C1786 C1795 1.390 . S
C1787 C1786 1.387 . S
C1787 C1789 1.387 . S
H1788 C1795 0.950 . S
C1789 C1787 1.387 . S
C1789 C1791 1.390 . S
C1789 H1793 0.950 . S
H1790 C1786 0.950 . S
C1791 C1789 1.390 . S
C1791 C1792 1.387 . S
C1791 H1794 0.950 . S
C1792 C1791 1.387 . S
C1792 C1795 1.387 . S
H1793 C1789 0.950 . S
H1794 C1791 0.950 . S
C1795 C1786 1.390 . S
C1795 H1788 0.950 . S
C1795 C1792 1.387 . S
C1796 C1797 1.387 . S
C1796 H1800 0.950 . S
C1796 C1805 1.390 . S
C1797 C1796 1.387 . S
C1797 C1799 1.387 . S
H1798 C1805 0.950 . S
C1799 C1797 1.387 . S
C1799 C1801 1.390 . S
C1799 H1803 0.950 . S
H1800 C1796 0.950 . S
C1801 C1799 1.390 . S
C1801 C1802 1.387 . S
C1801 H1804 0.950 . S
C1802 C1801 1.387 . S
C1802 C1805 1.387 . S
H1803 C1799 0.950 . S
H1804 C1801 0.950 . S
C1805 C1796 1.390 . S
C1805 H1798 0.950 . S
C1805 C1802 1.387 . S
C1806 C1807 1.387 . S
C1806 H1810 0.950 . S
C1806 C1815 1.390 . S
C1807 C1806 1.387 . S
C1807 C1809 1.387 . S
H1808 C1815 0.950 . S
C1809 C1807 1.387 . S
C1809 C1811 1.390 . S
C1809 H1813 0.950 . S
H1810 C1806 0.950 . S
C1811 C1809 1.390 . S
C1811 C1812 1.387 . S
C1811 H1814 0.950 . S
C1812 C1811 1.387 . S
C1812 C1815 1.387 . S
H1813 C1809 0.950 . S
H1814 C1811 0.950 . S
C1815 C1806 1.390 . S
C1815 H1808 0.950 . S
C1815 C1812 1.387 . S
C1816 C1817 1.387 . S
C1816 H1820 0.950 . S
C1816 C1825 1.390 1_554 S
C1817 C1816 1.387 . S
C1817 C1819 1.387 . S
H1818 C1825 0.950 . S
C1819 C1817 1.387 . S
C1819 C1821 1.390 1_554 S
C1819 H1823 0.950 . S
H1820 C1816 0.950 . S
C1821 C1819 1.390 1_556 S
C1821 C1822 1.387 . S
C1821 H1824 0.950 . S
C1822 C1821 1.387 . S
C1822 C1825 1.387 . S
H1823 C1819 0.950 . S
H1824 C1821 0.950 . S
C1825 C1816 1.390 1_556 S
C1825 H1818 0.950 . S
C1825 C1822 1.387 . S
C1826 C1827 1.387 . S
C1826 H1830 0.950 . S
C1826 C1835 1.390 1_455 S
C1827 C1826 1.387 . S
C1827 C1829 1.387 . S
H1828 C1835 0.950 . S
C1829 C1827 1.387 . S
C1829 C1831 1.390 1_455 S
C1829 H1833 0.950 . S
H1830 C1826 0.950 . S
C1831 C1829 1.390 1_655 S
C1831 C1832 1.387 . S
C1831 H1834 0.950 . S
C1832 C1831 1.387 . S
C1832 C1835 1.387 . S
H1833 C1829 0.950 . S
H1834 C1831 0.950 . S
C1835 C1826 1.390 1_655 S
C1835 H1828 0.950 . S
C1835 C1832 1.387 . S
C1836 C1837 1.387 . S
C1836 H1840 0.950 . S
C1836 C1845 1.390 1_456 S
C1837 C1836 1.387 . S
C1837 C1839 1.387 . S
H1838 C1845 0.950 . S
C1839 C1837 1.387 . S
C1839 C1841 1.390 1_456 S
C1839 H1843 0.950 . S
H1840 C1836 0.950 . S
C1841 C1839 1.390 1_654 S
C1841 C1842 1.387 . S
C1841 H1844 0.950 . S
C1842 C1841 1.387 . S
C1842 C1845 1.387 . S
H1843 C1839 0.950 . S
H1844 C1841 0.950 . S
C1845 C1836 1.390 1_654 S
C1845 H1838 0.950 . S
C1845 C1842 1.387 . S
C1846 C1847 1.387 . S
C1846 H1850 0.950 . S
C1846 C1855 1.390 . S
C1847 C1846 1.387 . S
C1847 C1849 1.387 . S
H1848 C1855 0.950 . S
C1849 C1847 1.387 . S
C1849 C1851 1.390 . S
C1849 H1853 0.950 . S
H1850 C1846 0.950 . S
C1851 C1849 1.390 . S
C1851 C1852 1.387 . S
C1851 H1854 0.950 . S
C1852 C1851 1.387 . S
C1852 C1855 1.387 . S
H1853 C1849 0.950 . S
H1854 C1851 0.950 . S
C1855 C1846 1.390 . S
C1855 H1848 0.950 . S
C1855 C1852 1.387 . S
C1057 N608 1.197 . S
C1062 N14 1.197 . S
C1067 N47 1.204 . S
C1072 N641 1.204 . S
C1077 N80 1.204 . S
C1082 N542 1.204 . S
C1087 N575 1.197 . S
C1092 N113 1.197 . S
C1097 N146 1.197 . S
C1102 N740 1.197 . S
C1107 N773 1.204 . S
C1112 N179 1.204 . S
C1117 N212 1.204 . S
C1122 N674 1.204 . S
C1127 N245 1.204 . S
C1132 N707 1.204 . S
C1137 N278 1.204 . S
C1142 N872 1.204 . S
C1147 N905 1.197 . S
C1152 N311 1.197 . S
C1157 N344 1.204 . S
C1162 N806 1.204 . S
C1167 N377 1.204 . S
C1172 N839 1.204 . S
C1177 N410 1.204 . S
C1182 N1004 1.204 . S
C1187 N1037 1.197 . S
C1192 N443 1.197 . S
C1197 N938 1.197 . S
C1202 N476 1.197 . S
C1207 N971 1.204 . S
C1212 N509 1.204 . S
C1217 C371 1.214 . S
C1222 C28 1.209 . S
C1227 C800 1.212 . S
C1232 C61 1.210 . S
C1237 C94 1.207 . S
C1242 C305 1.215 . S
C1247 C866 1.216 . S
C1252 C127 1.207 . S
C1257 C437 1.213 . S
C1262 C160 1.210 . S
C1267 C193 1.210 . S
C1272 C998 1.213 . S
C1277 C503 1.215 . S
C1282 C226 1.207 . S
C1287 C932 1.213 . S
C1292 C259 1.210 . S
C1297 C107 1.216 . S
C1302 C292 1.207 . S
C1307 C325 1.206 . S
C1312 C536 1.216 . S
C1317 C358 1.210 . S
C1322 C41 1.214 . S
C1327 C602 1.213 . S
C1332 C391 1.210 . S
C1337 C424 1.207 . S
C1342 C173 1.216 . S
C1347 C734 1.215 . S
C1352 C457 1.209 . S
C1357 C490 1.210 . S
C1362 C239 1.213 . S
C1367 C523 1.207 . S
C1372 C668 1.216 . S
C1377 C899 1.213 . S
C1382 C556 1.210 . S
C1387 C589 1.206 . S
C1392 C272 1.216 . S
C1397 C622 1.208 . S
C1402 C833 1.214 . S
C1407 C338 1.213 . S
C1412 C655 1.209 . S
C1417 C688 1.207 . S
C1422 C965 1.216 . S
C1427 C721 1.207 . S
C1432 C470 1.216 . S
C1437 C1031 1.213 . S
C1442 C754 1.210 . S
C1447 C404 1.216 . S
C1452 C787 1.207 . S
C1457 C635 1.215 . S
C1462 C820 1.207 . S
C1467 C853 1.210 . S
C1472 C8 1.213 . S
C1477 C886 1.210 . S
C1482 C569 1.212 . S
C1487 C74 1.216 . S
C1492 C919 1.207 . S
C1497 C952 1.210 . S
C1502 C701 1.214 . S
C1507 C985 1.210 . S
C1512 C206 1.213 . S
C1517 C767 1.216 . S
C1522 C1018 1.206 . S
C1527 C140 1.216 . S
C1532 C1051 1.207 . S
C1537 N236 1.819 . S
C1542 N5 1.819 . S
C1547 N137 1.818 . S
C1552 N38 1.818 . S
C1557 N71 1.818 . S
C1562 N170 1.818 . S
C1567 N203 1.818 . S
C1572 N104 1.818 . S
C1577 N500 1.818 . S
C1582 N269 1.818 . S
C1587 N302 1.819 . S
C1592 N401 1.819 . S
C1597 N434 1.818 . S
C1602 N335 1.818 . S
C1607 N467 1.819 . S
C1612 N368 1.818 . S
C1617 N764 1.818 . S
C1622 N533 1.818 . S
C1627 N665 1.818 . S
C1632 N566 1.818 . S
C1637 N698 1.819 . S
C1642 N599 1.818 . S
C1647 N731 1.818 . S
C1652 N632 1.818 . S
C1657 N797 1.818 . S
C1662 N1028 1.818 . S
C1667 N830 1.818 . S
C1672 N929 1.818 . S
C1677 N863 1.818 . S
C1682 N962 1.818 . S
C1687 N995 1.818 . S
C1692 N896 1.818 . S
C1697 C17 1.494 . S
C1702 C809 1.494 . S
C1707 C314 1.494 . S
C1712 C50 1.494 . S
C1717 C875 1.494 . S
C1722 C83 1.495 . S
C1727 C116 1.494 . S
C1732 C380 1.494 . S
C1737 C149 1.492 . S
C1742 C941 1.492 . S
C1747 C182 1.494 . S
C1752 C446 1.494 . S
C1757 C1007 1.494 . S
C1762 C215 1.494 . S
C1767 C248 1.494 . S
C1772 C512 1.494 . S
C1777 C545 1.494 . S
C1782 C281 1.494 . S
C1787 C611 1.493 . S
C1792 C347 1.493 . S
C1797 C413 1.493 . S
C1802 C677 1.493 . S
C1807 C479 1.494 . S
C1812 C743 1.494 . S
C1817 C842 1.493 . S
C1822 C578 1.493 . S
C1827 C908 1.494 . S
C1832 C644 1.494 . S
C1837 C974 1.494 . S
C1842 C710 1.494 . S
C1847 C1040 1.494 . S
C1852 C776 1.494 . S
