# Generated by pormake.
# Topology smi, (6)-cn, num edge types: 1
# Building blocks:
#     Node 0, Type 0, BuildingBlock: IZENUY_clean_sbu_0, # of connection points: 6
#     Node 1, Type 0, BuildingBlock: IZENUY_clean_sbu_0, # of connection points: 6
#     Node 2, Type 0, BuildingBlock: IZENUY_clean_sbu_0, # of connection points: 6
#     Node 3, Type 0, BuildingBlock: IZENUY_clean_sbu_0, # of connection points: 6
#     Node 4, Type 0, BuildingBlock: IZENUY_clean_sbu_0, # of connection points: 6
#     Node 5, Type 0, BuildingBlock: IZENUY_clean_sbu_0, # of connection points: 6
#     Edge 6, Type (0, 0), BuildingBlock: TEMPAE_clean_linker_10, # of connection points: 2
#     Edge 7, Type (0, 0), BuildingBlock: TEMPAE_clean_linker_10, # of connection points: 2
#     Edge 8, Type (0, 0), BuildingBlock: TEMPAE_clean_linker_10, # of connection points: 2
#     Edge 9, Type (0, 0), BuildingBlock: TEMPAE_clean_linker_10, # of connection points: 2
#     Edge 10, Type (0, 0), BuildingBlock: TEMPAE_clean_linker_10, # of connection points: 2
#     Edge 11, Type (0, 0), BuildingBlock: TEMPAE_clean_linker_10, # of connection points: 2
#     Edge 12, Type (0, 0), BuildingBlock: TEMPAE_clean_linker_10, # of connection points: 2
#     Edge 13, Type (0, 0), BuildingBlock: TEMPAE_clean_linker_10, # of connection points: 2
#     Edge 14, Type (0, 0), BuildingBlock: TEMPAE_clean_linker_10, # of connection points: 2
#     Edge 15, Type (0, 0), BuildingBlock: TEMPAE_clean_linker_10, # of connection points: 2
#     Edge 16, Type (0, 0), BuildingBlock: TEMPAE_clean_linker_10, # of connection points: 2
#     Edge 17, Type (0, 0), BuildingBlock: TEMPAE_clean_linker_10, # of connection points: 2
#     Edge 18, Type (0, 0), BuildingBlock: TEMPAE_clean_linker_10, # of connection points: 2
#     Edge 19, Type (0, 0), BuildingBlock: TEMPAE_clean_linker_10, # of connection points: 2
#     Edge 20, Type (0, 0), BuildingBlock: TEMPAE_clean_linker_10, # of connection points: 2
#     Edge 21, Type (0, 0), BuildingBlock: TEMPAE_clean_linker_10, # of connection points: 2
#     Edge 22, Type (0, 0), BuildingBlock: TEMPAE_clean_linker_10, # of connection points: 2
#     Edge 23, Type (0, 0), BuildingBlock: TEMPAE_clean_linker_10, # of connection points: 2
# Relax obj value: 0.337
# Max RMSD: 0.277
# Mean RMSD: 0.276
data_MOF--net-smi--node1-IZENUY_clean_sbu_0--edge1-TEMPAE_clean_linker_10
_symmetry_space_group_name_H-M    P1
_symmetry_Int_Tables_number       1
_symmetry_cell_setting            triclinic
loop_
_symmetry_equiv_pos_as_xyz
'x, y, z'
_cell_length_a     27.297661
_cell_length_b     27.178284
_cell_length_c     40.596712
_cell_angle_alpha  90.002716
_cell_angle_beta   89.861846
_cell_angle_gamma 120.3679
loop_
_atom_site_label
_atom_site_type_symbol
_atom_site_fract_x
_atom_site_fract_y
_atom_site_fract_z
_atom_type_partial_charge
Fe0 Fe 0.09878 0.55629 0.11695 0.0
Fe1 Fe 0.20816 0.58931 0.07897 0.0
O2 O 0.1332 0.55418 0.08027 0.0
Fe3 Fe 0.09309 0.51748 0.04496 0.0
O4 O 0.06093 0.56133 0.04342 0.0
O5 O 0.03858 0.55598 0.09581 0.0
O6 O 0.13522 0.63406 0.11675 0.0
C7 C 0.18866 0.665 0.11711 0.0
C8 C 0.02862 0.44541 0.09861 0.0
O9 O 0.21944 0.64494 0.10822 0.0
C10 C 0.17642 0.4912 0.03961 0.0
O11 O 0.15207 0.55599 0.14458 0.0
O12 O 0.2096 0.54452 0.11155 0.0
O13 O 0.03272 0.46074 0.06867 0.0
O14 O 0.06092 0.47957 0.1202 0.0
C15 C 0.1865 0.61899 0.019 0.0
O16 O 0.21142 0.54101 0.0492 0.0
O17 O 0.12367 0.47119 0.04295 0.0
C18 C 0.18904 0.54147 0.13988 0.0
O19 O 0.21143 0.63618 0.04632 0.0
O20 O 0.14556 0.56835 0.01538 0.0
C21 C 0.03356 0.56784 0.06624 0.0
Fe22 Fe 0.56459 0.09263 0.21663 0.0
Fe23 Fe 0.58938 0.20479 0.24841 0.0
O24 O 0.55678 0.12992 0.25016 0.0
Fe25 Fe 0.51625 0.09254 0.2853 0.0
O26 O 0.56177 0.06334 0.29294 0.0
O27 O 0.56215 0.03534 0.24222 0.0
O28 O 0.64192 0.13112 0.21997 0.0
C29 C 0.67154 0.18485 0.21756 0.0
C30 C 0.45227 0.02289 0.23176 0.0
O31 O 0.64958 0.21537 0.22317 0.0
C32 C 0.48439 0.17229 0.27984 0.0
O33 O 0.56742 0.14244 0.18523 0.0
O34 O 0.54834 0.2007 0.21247 0.0
O35 O 0.4647 0.02877 0.26213 0.0
O36 O 0.48868 0.05301 0.21036 0.0
C37 C 0.61121 0.1905 0.31191 0.0
O38 O 0.53545 0.20865 0.27321 0.0
O39 O 0.46794 0.11978 0.28068 0.0
C40 C 0.54952 0.17725 0.18592 0.0
O41 O 0.63203 0.2127 0.28433 0.0
O42 O 0.56059 0.14946 0.31444 0.0
C43 C 0.57029 0.03325 0.27279 0.0
Fe44 Fe 0.39893 0.59868 0.41566 0.0
Fe45 Fe 0.42832 0.51551 0.44878 0.0
O46 O 0.43655 0.56159 0.41571 0.0
Fe47 Fe 0.48279 0.57023 0.38271 0.0
O48 O 0.50256 0.64413 0.37305 0.0
O49 O 0.46358 0.66719 0.4128 0.0
O50 O 0.40284 0.60908 0.46052 0.0
C51 C 0.43509 0.60629 0.48195 0.0
C52 C 0.39243 0.56267 0.3493 0.0
O53 O 0.45565 0.57419 0.47797 0.0
C54 C 0.4291 0.4524 0.39713 0.0
O55 O 0.33109 0.53326 0.41856 0.0
O56 O 0.35463 0.4953 0.45856 0.0
O57 O 0.42468 0.54244 0.35339 0.0
O58 O 0.38881 0.59458 0.37078 0.0
C59 C 0.54566 0.57005 0.43436 0.0
O60 O 0.40067 0.45421 0.42122 0.0
O61 O 0.47097 0.49761 0.3858 0.0
C62 C 0.31708 0.49905 0.44238 0.0
O63 O 0.50079 0.52782 0.44568 0.0
O64 O 0.54362 0.59845 0.41033 0.0
C65 C 0.49839 0.68156 0.38932 0.0
Fe66 Fe 0.79852 0.41537 0.57983 0.0
Fe67 Fe 0.9119 0.49174 0.5451 0.0
O68 O 0.87344 0.45073 0.57995 0.0
Fe69 Fe 0.90974 0.44511 0.61463 0.0
O70 O 0.87289 0.36723 0.61261 0.0
O71 O 0.78809 0.3559 0.60569 0.0
O72 O 0.79502 0.37328 0.54433 0.0
C73 C 0.81771 0.39509 0.51704 0.0
C74 C 0.82118 0.45744 0.64225 0.0
O75 O 0.85723 0.44659 0.51515 0.0
C76 C 0.97882 0.55781 0.59888 0.0
O77 O 0.79466 0.46878 0.5543 0.0
O78 O 0.88286 0.53876 0.54877 0.0
O79 O 0.85858 0.44317 0.64469 0.0
O80 O 0.79748 0.45493 0.61521 0.0
C81 C 0.97141 0.43866 0.55974 0.0
O82 O 0.9741 0.54461 0.56867 0.0
O83 O 0.94801 0.52158 0.62015 0.0
C84 C 0.83021 0.52072 0.54868 0.0
O85 O 0.94262 0.44719 0.53874 0.0
O86 O 0.96803 0.44726 0.59019 0.0
C87 C 0.81941 0.33601 0.61364 0.0
Fe88 Fe 0.44659 0.90937 0.71281 0.0
Fe89 Fe 0.41058 0.79836 0.75011 0.0
O90 O 0.44709 0.87367 0.74933 0.0
Fe91 Fe 0.4836 0.91269 0.78501 0.0
O92 O 0.44157 0.94691 0.7867 0.0
O93 O 0.44798 0.97017 0.73436 0.0
O94 O 0.36904 0.87411 0.71244 0.0
C95 C 0.33746 0.82049 0.71165 0.0
C96 C 0.55701 0.97778 0.73193 0.0
O97 O 0.35642 0.78881 0.72059 0.0
C98 C 0.5069 0.82676 0.78978 0.0
O99 O 0.44622 0.85566 0.68485 0.0
O100 O 0.45526 0.79637 0.71776 0.0
O101 O 0.54135 0.97309 0.76184 0.0
O102 O 0.5231 0.9462 0.71003 0.0
C103 C 0.38088 0.81963 0.81017 0.0
O104 O 0.45715 0.79296 0.77991 0.0
O105 O 0.52816 0.88006 0.78689 0.0
C106 C 0.45927 0.81745 0.68949 0.0
O107 O 0.36377 0.7957 0.78255 0.0
O108 O 0.43163 0.85998 0.81412 0.0
C109 C 0.43653 0.97552 0.764 0.0
Fe110 Fe 0.60978 0.39765 0.91744 0.0
Fe111 Fe 0.5836 0.48341 0.94982 0.0
O112 O 0.57535 0.43813 0.916 0.0
Fe113 Fe 0.53344 0.43235 0.8811 0.0
O114 O 0.48981 0.35448 0.8836 0.0
O115 O 0.56095 0.34053 0.89062 0.0
O116 O 0.56634 0.35739 0.95219 0.0
C117 C 0.56521 0.38062 0.97893 0.0
C118 C 0.63481 0.44165 0.85546 0.0
O119 O 0.58371 0.43383 0.98057 0.0
C120 C 0.58534 0.54838 0.89425 0.0
O121 O 0.6673 0.44589 0.94443 0.0
O122 O 0.66109 0.52272 0.94681 0.0
O123 O 0.58357 0.42943 0.85203 0.0
O124 O 0.6539 0.43622 0.88271 0.0
C125 C 0.46907 0.43616 0.93569 0.0
O126 O 0.58369 0.54 0.92499 0.0
O127 O 0.57217 0.5084 0.87414 0.0
C128 C 0.69007 0.49864 0.94954 0.0
O129 O 0.50802 0.4486 0.95633 0.0
O130 O 0.47765 0.43566 0.90498 0.0
C131 C 0.51012 0.32191 0.88273 0.0
C132 C 0.27307 0.54586 0.16734 0.0
C133 C 0.21617 0.53211 0.16882 0.0
C134 C 0.30203 0.54599 0.19591 0.0
C135 C 0.27302 0.53084 0.2265 0.0
C136 C 0.21458 0.51329 0.22772 0.0
C137 C 0.18701 0.51475 0.19892 0.0
C138 C 0.36456 0.56588 0.19365 0.0
C139 C 0.18181 0.49559 0.25973 0.0
C140 C 0.3422 0.5032 0.30004 0.0
C141 C 0.36308 0.55438 0.31753 0.0
C142 C 0.31242 0.49459 0.27039 0.0
C143 C 0.30493 0.53887 0.25761 0.0
C144 C 0.32735 0.59117 0.27484 0.0
C145 C 0.35542 0.59794 0.30482 0.0
C146 C 0.28806 0.43787 0.25308 0.0
C147 C 0.32165 0.64004 0.26167 0.0
H148 H 0.29596 0.55963 0.14418 0.0
H149 H 0.14287 0.50359 0.20011 0.0
H150 H 0.38926 0.60753 0.20635 0.0
H151 H 0.37391 0.53535 0.20622 0.0
H152 H 0.37956 0.57104 0.16773 0.0
H153 H 0.13541 0.47642 0.25585 0.0
H154 H 0.18945 0.46435 0.27293 0.0
H155 H 0.19664 0.53336 0.27593 0.0
H156 H 0.34789 0.4694 0.31 0.0
H157 H 0.37216 0.63782 0.31814 0.0
H158 H 0.30486 0.44409 0.22758 0.0
H159 H 0.24125 0.41782 0.25127 0.0
H160 H 0.29801 0.40803 0.2661 0.0
H161 H 0.33888 0.65083 0.23623 0.0
H162 H 0.34425 0.67892 0.27715 0.0
H163 H 0.27616 0.62736 0.2605 0.0
C164 C 0.70184 0.24143 0.34318 0.0
C165 C 0.64296 0.21815 0.34202 0.0
C166 C 0.73234 0.26838 0.3718 0.0
C167 C 0.70327 0.27358 0.3993 0.0
C168 C 0.64378 0.25049 0.39805 0.0
C169 C 0.61419 0.22223 0.36954 0.0
C170 C 0.79558 0.29147 0.37258 0.0
C171 C 0.61158 0.25683 0.42648 0.0
C172 C 0.76787 0.30495 0.48476 0.0
C173 C 0.79094 0.36403 0.48657 0.0
C174 C 0.74075 0.27505 0.45599 0.0
C175 C 0.73517 0.30492 0.42903 0.0
C176 C 0.75827 0.36463 0.43089 0.0
C177 C 0.78668 0.39362 0.45951 0.0
C178 C 0.71765 0.21155 0.45454 0.0
C179 C 0.75157 0.39767 0.40306 0.0
H180 H 0.72385 0.2379 0.32184 0.0
H181 H 0.56865 0.20477 0.36839 0.0
H182 H 0.81841 0.33849 0.37546 0.0
H183 H 0.8066 0.27382 0.39411 0.0
H184 H 0.81116 0.28101 0.34984 0.0
H185 H 0.56544 0.23688 0.42134 0.0
H186 H 0.61713 0.23705 0.44898 0.0
H187 H 0.6288 0.30271 0.43188 0.0
H188 H 0.77145 0.28229 0.50574 0.0
H189 H 0.8039 0.43929 0.46115 0.0
H190 H 0.73447 0.20086 0.43246 0.0
H191 H 0.67075 0.18874 0.45223 0.0
H192 H 0.72874 0.19542 0.47677 0.0
H193 H 0.77048 0.39224 0.38013 0.0
H194 H 0.77195 0.44396 0.40854 0.0
H195 H 0.70581 0.38084 0.39822 0.0
C196 C 0.45394 0.73221 0.66248 0.0
C197 C 0.46783 0.7894 0.66059 0.0
C198 C 0.45339 0.70232 0.63415 0.0
C199 C 0.46827 0.73066 0.60334 0.0
C200 C 0.48584 0.78936 0.60166 0.0
C201 C 0.48479 0.81788 0.63026 0.0
C202 C 0.43342 0.63953 0.63692 0.0
C203 C 0.50326 0.82141 0.56939 0.0
C204 C 0.49484 0.65836 0.53072 0.0
C205 C 0.44367 0.63673 0.51343 0.0
C206 C 0.50384 0.68952 0.55997 0.0
C207 C 0.45999 0.6977 0.57253 0.0
C208 C 0.40772 0.67456 0.55551 0.0
C209 C 0.40053 0.64507 0.52595 0.0
C210 C 0.56049 0.71454 0.57707 0.0
C211 C 0.35929 0.68095 0.56849 0.0
H212 H 0.44048 0.7098 0.68581 0.0
H213 H 0.49605 0.86222 0.62873 0.0
H214 H 0.39198 0.61449 0.62425 0.0
H215 H 0.4638 0.62976 0.62459 0.0
H216 H 0.42819 0.62506 0.66295 0.0
H217 H 0.52241 0.86812 0.57289 0.0
H218 H 0.53425 0.81334 0.55631 0.0
H219 H 0.46555 0.8061 0.55328 0.0
H220 H 0.52833 0.6522 0.52091 0.0
H221 H 0.36067 0.6278 0.51278 0.0
H222 H 0.55455 0.69843 0.60272 0.0
H223 H 0.58046 0.7616 0.57845 0.0
H224 H 0.59008 0.70415 0.56418 0.0
H225 H 0.34867 0.66447 0.59408 0.0
H226 H 0.32046 0.65788 0.55317 0.0
H227 H 0.3721 0.72672 0.56918 0.0
C228 C 0.67253 0.49353 0.80289 0.0
C229 C 0.66985 0.45401 0.82595 0.0
C230 C 0.70215 0.50235 0.77323 0.0
C231 C 0.7273 0.469 0.76621 0.0
C232 C 0.72544 0.42972 0.78982 0.0
C233 C 0.69748 0.42346 0.81979 0.0
C234 C 0.70499 0.54592 0.74904 0.0
C235 C 0.75015 0.39205 0.78271 0.0
C236 C 0.73846 0.43445 0.67745 0.0
C237 C 0.79717 0.46591 0.67244 0.0
C238 C 0.715 0.43589 0.70783 0.0
C239 C 0.75121 0.47131 0.73317 0.0
C240 C 0.81032 0.50562 0.72751 0.0
C241 C 0.83287 0.50154 0.69728 0.0
C242 C 0.65197 0.39727 0.71333 0.0
C243 C 0.84978 0.54529 0.75364 0.0
H244 H 0.6512 0.51724 0.80804 0.0
H245 H 0.69462 0.39252 0.83772 0.0
H246 H 0.74925 0.57371 0.74029 0.0
H247 H 0.67863 0.52398 0.72718 0.0
H248 H 0.68955 0.57311 0.75997 0.0
H249 H 0.74664 0.36506 0.80416 0.0
H250 H 0.7276 0.36376 0.76155 0.0
H251 H 0.79553 0.41832 0.77572 0.0
H252 H 0.71123 0.40637 0.65817 0.0
H253 H 0.87835 0.52587 0.69307 0.0
H254 H 0.63247 0.4225 0.72139 0.0
H255 H 0.64471 0.3663 0.73325 0.0
H256 H 0.62976 0.37312 0.69081 0.0
H257 H 0.83299 0.57173 0.76389 0.0
H258 H 0.89327 0.57395 0.74392 0.0
H259 H 0.85257 0.52006 0.77426 0.0
C260 C 0.271 0.6787 0.9842 0.0
C261 C 0.21256 0.65415 0.98952 0.0
C262 C 0.29602 0.70731 0.9547 0.0
C263 C 0.26198 0.71314 0.9305 0.0
C264 C 0.2032 0.69026 0.93639 0.0
C265 C 0.1789 0.65991 0.96564 0.0
C266 C 0.3584 0.72923 0.9489 0.0
C267 C 0.16589 0.69699 0.91158 0.0
C268 C 0.34521 0.8261 0.86569 0.0
C269 C 0.34544 0.79269 0.8395 0.0
C270 C 0.31563 0.8006 0.89495 0.0
C271 C 0.28763 0.74052 0.8984 0.0
C272 C 0.28729 0.70666 0.87179 0.0
C273 C 0.31545 0.73317 0.84243 0.0
C274 C 0.31556 0.83795 0.92244 0.0
C275 C 0.25961 0.64266 0.87485 0.0
H276 H 0.2967 0.67325 0.00254 0.0
H277 H 0.13364 0.64075 0.96992 0.0
H278 H 0.36379 0.70784 0.92705 0.0
H279 H 0.38098 0.77562 0.94361 0.0
H280 H 0.37893 0.72166 0.97036 0.0
H281 H 0.12235 0.68144 0.92123 0.0
H282 H 0.18489 0.74247 0.90447 0.0
H283 H 0.16274 0.67281 0.88891 0.0
H284 H 0.36843 0.87217 0.8633 0.0
H285 H 0.31642 0.70742 0.82232 0.0
H286 H 0.3406 0.83652 0.94351 0.0
H287 H 0.2716 0.82193 0.9314 0.0
H288 H 0.33397 0.88307 0.91457 0.0
H289 H 0.28082 0.63198 0.89456 0.0
H290 H 0.2619 0.62243 0.85156 0.0
H291 H 0.21438 0.62372 0.88201 0.0
C292 C 0.50389 0.22027 0.1528 0.0
C293 C 0.54111 0.19913 0.15469 0.0
C294 C 0.49933 0.24534 0.12366 0.0
C295 C 0.5342 0.25077 0.09643 0.0
C296 C 0.57081 0.22817 0.09803 0.0
C297 C 0.5732 0.20185 0.12706 0.0
C298 C 0.45878 0.26771 0.12239 0.0
C299 C 0.60982 0.23458 0.0698 0.0
C300 C 0.51351 0.28932 0.01011 0.0
C301 C 0.55282 0.34791 0.00963 0.0
C302 C 0.50439 0.2574 0.03894 0.0
C303 C 0.53676 0.28469 0.06734 0.0
C304 C 0.57566 0.34412 0.06709 0.0
C305 C 0.5826 0.37519 0.0383 0.0
C306 C 0.46152 0.19434 0.03873 0.0
C307 C 0.61211 0.37442 0.09664 0.0
H308 H 0.47877 0.21765 0.17418 0.0
H309 H 0.60238 0.18589 0.12863 0.0
H310 H 0.48309 0.315 0.1218 0.0
H311 H 0.43297 0.25306 0.09958 0.0
H312 H 0.42977 0.2538 0.14401 0.0
H313 H 0.63409 0.21259 0.07461 0.0
H314 H 0.58513 0.21714 0.04682 0.0
H315 H 0.6405 0.28048 0.06545 0.0
H316 H 0.49018 0.2685 0.98792 0.0
H317 H 0.61335 0.4205 0.0378 0.0
H318 H 0.43318 0.18266 0.06054 0.0
H319 H 0.48379 0.16977 0.04024 0.0
H320 H 0.43512 0.18117 0.0161 0.0
H321 H 0.58515 0.36684 0.11869 0.0
H322 H 0.63888 0.42116 0.09268 0.0
H323 H 0.64039 0.35715 0.10207 0.0
C324 C 0.36571 0.40575 0.92806 0.0
C325 C 0.41398 0.42742 0.9482 0.0
C326 C 0.31523 0.40212 0.9396 0.0
C327 C 0.31366 0.42212 0.97162 0.0
C328 C 0.36146 0.44159 0.99245 0.0
C329 C 0.41054 0.44339 0.98064 0.0
C330 C 0.26461 0.37928 0.91701 0.0
C331 C 0.36232 0.46429 0.02658 0.0
C332 C 0.23752 0.50094 0.9925 0.0
C333 C 0.19882 0.46536 0.01654 0.0
C334 C 0.27165 0.48493 0.9753 0.0
C335 C 0.26659 0.43147 0.98204 0.0
C336 C 0.22313 0.39269 0.00365 0.0
C337 C 0.18973 0.4103 0.02096 0.0
C338 C 0.31718 0.52796 0.95262 0.0
C339 C 0.21497 0.33448 0.01047 0.0
H340 H 0.3676 0.39249 0.90314 0.0
H341 H 0.44732 0.45994 0.99656 0.0
H342 H 0.22445 0.35347 0.93091 0.0
H343 H 0.26295 0.41538 0.90545 0.0
H344 H 0.26714 0.35269 0.89704 0.0
H345 H 0.40166 0.47497 0.04028 0.0
H346 H 0.35922 0.50338 0.02475 0.0
H347 H 0.32534 0.43254 0.04113 0.0
H348 H 0.2438 0.54329 0.9887 0.0
H349 H 0.15955 0.38266 0.03941 0.0
H350 H 0.31728 0.50791 0.92887 0.0
H351 H 0.35945 0.54406 0.96411 0.0
H352 H 0.31156 0.56499 0.94748 0.0
H353 H 0.22038 0.3153 0.98761 0.0
H354 H 0.17234 0.30524 0.0211 0.0
H355 H 0.24742 0.33841 0.02835 0.0
C356 C 0.92547 0.3707 0.09616 0.0
C357 C 0.97908 0.39153 0.11044 0.0
C358 C 0.87614 0.32849 0.11213 0.0
C359 C 0.88076 0.30613 0.14281 0.0
C360 C 0.93526 0.32336 0.15566 0.0
C361 C 0.98366 0.36616 0.13949 0.0
C362 C 0.81893 0.31167 0.09762 0.0
C363 C 0.94239 0.30019 0.18796 0.0
C364 C 0.76314 0.27263 0.20438 0.0
C365 C 0.72868 0.21316 0.2019 0.0
C366 C 0.8129 0.30284 0.1857 0.0
C367 C 0.82939 0.27301 0.16399 0.0
C368 C 0.7964 0.21266 0.16242 0.0
C369 C 0.74628 0.18334 0.1814 0.0
C370 C 0.8468 0.36711 0.18843 0.0
C371 C 0.81295 0.17932 0.13987 0.0
H372 H 0.9216 0.39043 0.07386 0.0
H373 H 0.0251 0.38188 0.15052 0.0
H374 H 0.79039 0.26475 0.09855 0.0
H375 H 0.79875 0.33109 0.11236 0.0
H376 H 0.82242 0.32618 0.07168 0.0
H377 H 0.9868 0.31015 0.19167 0.0
H378 H 0.93091 0.31934 0.20855 0.0
H379 H 0.91371 0.25331 0.18927 0.0
H380 H 0.75022 0.29607 0.22034 0.0
H381 H 0.71978 0.13747 0.17913 0.0
H382 H 0.84821 0.38663 0.16417 0.0
H383 H 0.89121 0.38128 0.19553 0.0
H384 H 0.82863 0.38373 0.20685 0.0
H385 H 0.80844 0.18889 0.11386 0.0
H386 H 0.78622 0.13259 0.14384 0.0
H387 H 0.85812 0.19219 0.14363 0.0
C388 C 0.49778 0.77241 0.38231 0.0
C389 C 0.5234 0.7399 0.37559 0.0
C390 C 0.51339 0.82278 0.36491 0.0
C391 C 0.55681 0.84208 0.34078 0.0
C392 C 0.58547 0.81155 0.33541 0.0
C393 C 0.56791 0.76034 0.35258 0.0
C394 C 0.48105 0.85352 0.37105 0.0
C395 C 0.63312 0.83175 0.31062 0.0
C396 C 0.54309 0.93107 0.2735 0.0
C397 C 0.57623 0.98618 0.28624 0.0
C398 C 0.53843 0.88371 0.29026 0.0
C399 C 0.56905 0.89205 0.3199 0.0
C400 C 0.60609 0.9481 0.33137 0.0
C401 C 0.60842 0.99451 0.31471 0.0
C402 C 0.49735 0.82462 0.27761 0.0
C403 C 0.6407 0.95888 0.36227 0.0
H404 H 0.46308 0.75681 0.39986 0.0
H405 H 0.58804 0.73553 0.34737 0.0
H406 H 0.51078 0.89877 0.37741 0.0
H407 H 0.4584 0.85312 0.34829 0.0
H408 H 0.44945 0.83376 0.39127 0.0
H409 H 0.65582 0.80756 0.31244 0.0
H410 H 0.61579 0.82653 0.28536 0.0
H411 H 0.6641 0.87778 0.31416 0.0
H412 H 0.51753 0.92457 0.25175 0.0
H413 H 0.63408 0.03724 0.32451 0.0
H414 H 0.46143 0.80254 0.29519 0.0
H415 H 0.51837 0.79889 0.27581 0.0
H416 H 0.47991 0.82554 0.25306 0.0
H417 H 0.61242 0.9464 0.38412 0.0
H418 H 0.67393 0.00451 0.36482 0.0
H419 H 0.66136 0.93267 0.36238 0.0
C420 C 0.82549 0.57925 0.50301 0.0
C421 C 0.80801 0.5553 0.53443 0.0
C422 C 0.79231 0.59548 0.48463 0.0
C423 C 0.74118 0.58802 0.49833 0.0
C424 C 0.72718 0.56993 0.53149 0.0
C425 C 0.76043 0.55307 0.54899 0.0
C426 C 0.80881 0.61456 0.44943 0.0
C427 C 0.67371 0.56236 0.54736 0.0
C428 C 0.6434 0.63132 0.45711 0.0
C429 C 0.60047 0.57831 0.44566 0.0
C430 C 0.69157 0.63631 0.47297 0.0
C431 C 0.69681 0.58731 0.47676 0.0
C432 C 0.65524 0.5347 0.46297 0.0
C433 C 0.60726 0.53075 0.44803 0.0
C434 C 0.73477 0.69298 0.48743 0.0
C435 C 0.6596 0.48156 0.46566 0.0
H436 H 0.86196 0.58027 0.49161 0.0
H437 H 0.74702 0.53442 0.57332 0.0
H438 H 0.78379 0.57787 0.43277 0.0
H439 H 0.79937 0.64852 0.44284 0.0
H440 H 0.8546 0.63051 0.44495 0.0
H441 H 0.6739 0.5573 0.57451 0.0
H442 H 0.66829 0.59932 0.5419 0.0
H443 H 0.63639 0.52371 0.53717 0.0
H444 H 0.63778 0.66797 0.45537 0.0
H445 H 0.57407 0.48987 0.4389 0.0
H446 H 0.77856 0.702 0.48255 0.0
H447 H 0.72904 0.69162 0.51455 0.0
H448 H 0.73023 0.72854 0.47746 0.0
H449 H 0.70213 0.49044 0.45751 0.0
H450 H 0.62691 0.44583 0.45069 0.0
H451 H 0.65414 0.46755 0.49176 0.0
C452 C 0.26057 0.82329 0.67826 0.0
C453 C 0.281 0.79247 0.6954 0.0
C454 C 0.20924 0.79472 0.66046 0.0
C455 C 0.17838 0.73425 0.65958 0.0
C456 C 0.19832 0.70325 0.67747 0.0
C457 C 0.24872 0.7326 0.69531 0.0
C458 C 0.18863 0.82905 0.64212 0.0
C459 C 0.16708 0.63873 0.67725 0.0
C460 C 0.02372 0.63422 0.64128 0.0
C461 C 0.02709 0.61237 0.6106 0.0
C462 C 0.07212 0.67912 0.65604 0.0
C463 C 0.12535 0.70188 0.64002 0.0
C464 C 0.12802 0.68337 0.60775 0.0
C465 C 0.07864 0.639 0.59329 0.0
C466 C 0.06707 0.69819 0.69017 0.0
C467 C 0.1839 0.70605 0.58986 0.0
H468 H 0.28512 0.86948 0.67819 0.0
H469 H 0.26352 0.70809 0.70868 0.0
H470 H 0.19045 0.82295 0.61522 0.0
H471 H 0.14366 0.81396 0.64849 0.0
H472 H 0.21453 0.87533 0.64766 0.0
H473 H 0.1888 0.62119 0.69219 0.0
H474 H 0.12346 0.62146 0.68708 0.0
H475 H 0.16327 0.62299 0.65162 0.0
H476 H 0.98366 0.61432 0.65453 0.0
H477 H 0.08145 0.62234 0.56953 0.0
H478 H 0.09385 0.74516 0.69259 0.0
H479 H 0.08221 0.67862 0.70851 0.0
H480 H 0.02245 0.68522 0.69634 0.0
H481 H 0.21035 0.75297 0.59263 0.0
H482 H 0.17779 0.69544 0.5632 0.0
H483 H 0.20777 0.68694 0.60072 0.0
C484 C 0.43935 0.25124 0.84211 0.0
C485 C 0.48 0.26484 0.86688 0.0
C486 C 0.42079 0.20193 0.82255 0.0
C487 C 0.44402 0.16616 0.82773 0.0
C488 C 0.48257 0.17826 0.85394 0.0
C489 C 0.49945 0.22685 0.87327 0.0
C490 C 0.37844 0.18964 0.79546 0.0
C491 C 0.50859 0.14159 0.86057 0.0
C492 C 0.38961 0.01469 0.79935 0.0
C493 C 0.42801 0.02301 0.77397 0.0
C494 C 0.38993 0.06118 0.81472 0.0
C495 C 0.43106 0.11742 0.80531 0.0
C496 C 0.46718 0.12581 0.77804 0.0
C497 C 0.46473 0.07837 0.76242 0.0
C498 C 0.3495 0.05004 0.84293 0.0
C499 C 0.51235 0.18489 0.76747 0.0
H500 H 0.42427 0.28043 0.83688 0.0
H501 H 0.53038 0.23665 0.89262 0.0
H502 H 0.40046 0.19972 0.77128 0.0
H503 H 0.34542 0.14374 0.79525 0.0
H504 H 0.35746 0.21539 0.79809 0.0
H505 H 0.53751 0.15664 0.88215 0.0
H506 H 0.47482 0.09683 0.86514 0.0
H507 H 0.53306 0.14166 0.83868 0.0
H508 H 0.36105 0.97181 0.80824 0.0
H509 H 0.4949 0.08491 0.74307 0.0
H510 H 0.33279 0.07971 0.84198 0.0
H511 H 0.37235 0.05727 0.86661 0.0
H512 H 0.31321 0.0055 0.84273 0.0
H513 H 0.49442 0.21338 0.76545 0.0
H514 H 0.53187 0.18455 0.74348 0.0
H515 H 0.54632 0.20329 0.78635 0.0
C516 C 0.49702 0.75168 0.82814 0.0
C517 C 0.53331 0.80165 0.81056 0.0
C518 C 0.51754 0.72059 0.84446 0.0
C519 C 0.57637 0.74009 0.84371 0.0
C520 C 0.61408 0.79292 0.82822 0.0
C521 C 0.59201 0.82323 0.81163 0.0
C522 C 0.47541 0.66483 0.86074 0.0
C523 C 0.67724 0.81603 0.82772 0.0
C524 C 0.6038 0.6484 0.90227 0.0
C525 C 0.59621 0.60418 0.88113 0.0
C526 C 0.60417 0.69701 0.88992 0.0
C527 C 0.59573 0.70091 0.85581 0.0
C528 C 0.59342 0.65898 0.83414 0.0
C529 C 0.59409 0.61147 0.84701 0.0
C530 C 0.60899 0.74186 0.91372 0.0
C531 C 0.58443 0.66117 0.79759 0.0
H532 H 0.45165 0.73554 0.82827 0.0
H533 H 0.62027 0.86212 0.7984 0.0
H534 H 0.47567 0.62891 0.84789 0.0
H535 H 0.48743 0.66423 0.88674 0.0
H536 H 0.4314 0.65719 0.86033 0.0
H537 H 0.70117 0.86263 0.82276 0.0
H538 H 0.69187 0.80761 0.85141 0.0
H539 H 0.6876 0.79457 0.80795 0.0
H540 H 0.60667 0.6439 0.92861 0.0
H541 H 0.58951 0.57832 0.83028 0.0
H542 H 0.56604 0.73475 0.91917 0.0
H543 H 0.63452 0.78516 0.90292 0.0
H544 H 0.62863 0.74023 0.93733 0.0
H545 H 0.54042 0.65183 0.79317 0.0
H546 H 0.59089 0.62969 0.78366 0.0
H547 H 0.61376 0.70433 0.78765 0.0
C548 C 0.99647 0.61478 0.02958 0.0
C549 C 0.98784 0.57883 0.05645 0.0
C550 C 0.95067 0.61527 0.01427 0.0
C551 C 0.89475 0.57768 0.02555 0.0
C552 C 0.88638 0.54495 0.05447 0.0
C553 C 0.93323 0.54632 0.0698 0.0
C554 C 0.96182 0.65193 0.98409 0.0
C555 C 0.82751 0.50392 0.06722 0.0
C556 C 0.76398 0.57224 0.98752 0.0
C557 C 0.74702 0.5273 0.96504 0.0
C558 C 0.81326 0.59091 0.00678 0.0
C559 C 0.84566 0.5636 0.00354 0.0
C560 C 0.8301 0.52035 0.97961 0.0
C561 C 0.78145 0.50319 0.9606 0.0
C562 C 0.82915 0.63795 0.03153 0.0
C563 C 0.86333 0.49008 0.97504 0.0
H564 H 0.03883 0.64028 0.01936 0.0
H565 H 0.92642 0.51818 0.09043 0.0
H566 H 0.95178 0.62515 0.96169 0.0
H567 H 0.93433 0.67112 0.98401 0.0
H568 H 0.00693 0.6866 0.98255 0.0
H569 H 0.82841 0.48832 0.09238 0.0
H570 H 0.8011 0.52428 0.06763 0.0
H571 H 0.80661 0.46658 0.0505 0.0
H572 H 0.73743 0.59088 0.99121 0.0
H573 H 0.76894 0.46884 0.94302 0.0
H574 H 0.87537 0.66921 0.03044 0.0
H575 H 0.81945 0.61958 0.05672 0.0
H576 H 0.80548 0.66075 0.02745 0.0
H577 H 0.90829 0.52134 0.96912 0.0
H578 H 0.84586 0.45781 0.95505 0.0
H579 H 0.86287 0.4683 0.99826 0.0
C580 C 0.37417 0.97861 0.19078 0.0
C581 C 0.39843 0.97401 0.22016 0.0
C582 C 0.32969 0.93025 0.17572 0.0
C583 C 0.31018 0.8759 0.18996 0.0
C584 C 0.33159 0.87163 0.22096 0.0
C585 C 0.37522 0.92099 0.2359 0.0
C586 C 0.30728 0.93689 0.14307 0.0
C587 C 0.31257 0.81447 0.23679 0.0
C588 C 0.18756 0.7406 0.1528 0.0
C589 C 0.21723 0.72184 0.13309 0.0
C590 C 0.21689 0.79157 0.171 0.0
C591 C 0.277 0.82387 0.16957 0.0
C592 C 0.30674 0.806 0.14881 0.0
C593 C 0.27654 0.75571 0.13071 0.0
C594 C 0.18383 0.80999 0.19244 0.0
C595 C 0.37085 0.83906 0.14641 0.0
H596 H 0.39172 0.01981 0.1788 0.0
H597 H 0.3941 0.91736 0.25857 0.0
H598 H 0.32599 0.92408 0.12289 0.0
H599 H 0.26048 0.90888 0.14184 0.0
H600 H 0.31826 0.98168 0.13865 0.0
H601 H 0.3264 0.81882 0.26288 0.0
H602 H 0.26572 0.78706 0.23579 0.0
H603 H 0.33101 0.79233 0.22302 0.0
H604 H 0.14176 0.71473 0.15477 0.0
H605 H 0.29993 0.74208 0.11525 0.0
H606 H 0.19767 0.85543 0.18781 0.0
H607 H 0.19234 0.80618 0.21874 0.0
H608 H 0.13736 0.78375 0.18817 0.0
H609 H 0.38578 0.88324 0.13798 0.0
H610 H 0.38738 0.81917 0.12911 0.0
H611 H 0.38961 0.84183 0.17105 0.0
C612 C 0.4521 0.24245 0.28046 0.0
C613 C 0.44936 0.19394 0.29427 0.0
C614 C 0.43454 0.27493 0.29836 0.0
C615 C 0.415 0.25911 0.33116 0.0
C616 C 0.40702 0.20707 0.34403 0.0
C617 C 0.42408 0.17476 0.32527 0.0
C618 C 0.44275 0.32945 0.28336 0.0
C619 C 0.38626 0.18857 0.3788 0.0
C620 C 0.46886 0.39088 0.38384 0.0
C621 C 0.42136 0.39755 0.38567 0.0
C622 C 0.46588 0.3435 0.3683 0.0
C623 C 0.41435 0.30241 0.35337 0.0
C624 C 0.36529 0.30738 0.35668 0.0
C625 C 0.36929 0.35496 0.3731 0.0
C626 C 0.51903 0.33945 0.36611 0.0
C627 C 0.30973 0.26466 0.34107 0.0
H628 H 0.47163 0.25716 0.25644 0.0
H629 H 0.42253 0.13753 0.33612 0.0
H630 H 0.40557 0.33444 0.28851 0.0
H631 H 0.48056 0.36638 0.29449 0.0
H632 H 0.4493 0.33084 0.25627 0.0
H633 H 0.37047 0.14242 0.38251 0.0
H634 H 0.42184 0.21301 0.39615 0.0
H635 H 0.3519 0.1974 0.38516 0.0
H636 H 0.50902 0.42386 0.39376 0.0
H637 H 0.33271 0.36054 0.37437 0.0
H638 H 0.53439 0.34639 0.34024 0.0
H639 H 0.5099 0.29635 0.37358 0.0
H640 H 0.5537 0.37151 0.3819 0.0
H641 H 0.31241 0.27197 0.31408 0.0
H642 H 0.27371 0.26845 0.35082 0.0
H643 H 0.30073 0.22049 0.34518 0.0
C644 C 0.0088 0.39609 0.51987 0.0
C645 C 0.01787 0.43102 0.54726 0.0
C646 C 0.0545 0.39686 0.50347 0.0
C647 C 0.11063 0.43504 0.51405 0.0
C648 C 0.11974 0.46834 0.54275 0.0
C649 C 0.07304 0.46528 0.55932 0.0
C650 C 0.04286 0.35944 0.47362 0.0
C651 C 0.17892 0.51055 0.55445 0.0
C652 C 0.24011 0.43272 0.48114 0.0
C653 C 0.25952 0.47526 0.45681 0.0
C654 C 0.19011 0.41705 0.49901 0.0
C655 C 0.1597 0.4456 0.49293 0.0
C656 C 0.17789 0.48692 0.46753 0.0
C657 C 0.22707 0.50066 0.44951 0.0
C658 C 0.17106 0.37155 0.5252 0.0
C659 C 0.14718 0.519 0.46051 0.0
H660 H 0.96601 0.36959 0.51059 0.0
H661 H 0.08006 0.49293 0.58022 0.0
H662 H 0.05452 0.38591 0.45098 0.0
H663 H 0.06903 0.33879 0.47423 0.0
H664 H 0.99738 0.32582 0.47191 0.0
H665 H 0.1787 0.5298 0.57855 0.0
H666 H 0.2047 0.48969 0.55676 0.0
H667 H 0.20026 0.54533 0.53604 0.0
H668 H 0.26487 0.41278 0.48685 0.0
H669 H 0.24184 0.53386 0.43095 0.0
H670 H 0.1251 0.34016 0.52259 0.0
H671 H 0.17732 0.39126 0.5499 0.0
H672 H 0.19507 0.34858 0.52408 0.0
H673 H 0.1019 0.4887 0.45492 0.0
H674 H 0.16617 0.54906 0.4395 0.0
H675 H 0.14841 0.54358 0.48265 0.0
C676 C 0.63811 0.02293 0.69236 0.0
C677 C 0.61106 0.0276 0.72062 0.0
C678 C 0.68145 0.07157 0.67655 0.0
C679 C 0.69725 0.12639 0.68882 0.0
C680 C 0.6729 0.13113 0.71873 0.0
C681 C 0.63041 0.08158 0.73445 0.0
C682 C 0.70686 0.06428 0.64517 0.0
C683 C 0.68785 0.18862 0.73253 0.0
C684 C 0.82037 0.26236 0.65138 0.0
C685 C 0.79133 0.27881 0.6296 0.0
C686 C 0.79077 0.21207 0.67037 0.0
C687 C 0.7309 0.17779 0.66758 0.0
C688 C 0.70197 0.19314 0.64462 0.0
C689 C 0.73245 0.24297 0.62589 0.0
C690 C 0.82322 0.1967 0.69421 0.0
C691 C 0.63825 0.15798 0.64059 0.0
H692 H 0.62343 0.98121 0.68166 0.0
H693 H 0.60926 0.08549 0.75609 0.0
H694 H 0.68866 0.07483 0.62375 0.0
H695 H 0.75349 0.09373 0.64466 0.0
H696 H 0.69796 0.01987 0.64217 0.0
H697 H 0.67155 0.18534 0.75802 0.0
H698 H 0.7345 0.2178 0.73253 0.0
H699 H 0.66909 0.20815 0.71672 0.0
H700 H 0.86575 0.28983 0.65458 0.0
H701 H 0.70956 0.25489 0.60893 0.0
H702 H 0.81139 0.15147 0.69099 0.0
H703 H 0.81197 0.20145 0.71982 0.0
H704 H 0.86989 0.22415 0.69106 0.0
H705 H 0.62545 0.11353 0.63384 0.0
H706 H 0.6223 0.17548 0.62139 0.0
H707 H 0.61706 0.15631 0.66427 0.0
loop_
_geom_bond_atom_site_label_1
_geom_bond_atom_site_label_2
_geom_bond_distance
_geom_bond_site_symmetry_2
_ccdc_geom_bond_type
Fe0 O2 1.918 . S
Fe0 O5 1.997 . S
Fe0 O6 2.002 . S
Fe0 O11 1.976 . S
Fe0 O14 1.996 . S
Fe1 O2 1.918 . S
Fe1 O9 1.997 . S
Fe1 O12 1.996 . S
Fe1 O16 1.976 . S
Fe1 O19 2.002 . S
O2 Fe0 1.918 . S
O2 Fe1 1.918 . S
O2 Fe3 1.918 . S
Fe3 O2 1.918 . S
Fe3 O4 2.002 . S
Fe3 O13 1.976 . S
Fe3 O17 1.996 . S
Fe3 O20 1.997 . S
O4 Fe3 2.002 . S
O4 C21 1.295 . S
O5 Fe0 1.997 . S
O5 C21 1.235 . S
O6 Fe0 2.002 . S
O6 C7 1.295 . S
C7 O6 1.295 . S
C7 O9 1.235 . S
C8 O13 1.287 . S
C8 O14 1.255 . S
O9 Fe1 1.997 . S
O9 C7 1.235 . S
C10 O16 1.287 . S
C10 O17 1.255 . S
O11 Fe0 1.976 . S
O11 C18 1.287 . S
O12 Fe1 1.996 . S
O12 C18 1.255 . S
O13 Fe3 1.976 . S
O13 C8 1.287 . S
O14 Fe0 1.996 . S
O14 C8 1.255 . S
C15 O19 1.295 . S
C15 O20 1.235 . S
O16 Fe1 1.976 . S
O16 C10 1.287 . S
O17 Fe3 1.996 . S
O17 C10 1.255 . S
C18 O11 1.287 . S
C18 O12 1.255 . S
O19 Fe1 2.002 . S
O19 C15 1.295 . S
O20 Fe3 1.997 . S
O20 C15 1.235 . S
C21 O4 1.295 . S
C21 O5 1.235 . S
Fe22 O24 1.918 . S
Fe22 O27 1.997 . S
Fe22 O28 2.002 . S
Fe22 O33 1.976 . S
Fe22 O36 1.996 . S
Fe23 O24 1.918 . S
Fe23 O31 1.997 . S
Fe23 O34 1.996 . S
Fe23 O38 1.976 . S
Fe23 O41 2.002 . S
O24 Fe22 1.918 . S
O24 Fe23 1.918 . S
O24 Fe25 1.918 . S
Fe25 O24 1.918 . S
Fe25 O26 2.002 . S
Fe25 O35 1.976 . S
Fe25 O39 1.996 . S
Fe25 O42 1.997 . S
O26 Fe25 2.002 . S
O26 C43 1.295 . S
O27 Fe22 1.997 . S
O27 C43 1.235 . S
O28 Fe22 2.002 . S
O28 C29 1.295 . S
C29 O28 1.295 . S
C29 O31 1.235 . S
C30 O35 1.287 . S
C30 O36 1.255 . S
O31 Fe23 1.997 . S
O31 C29 1.235 . S
C32 O38 1.287 . S
C32 O39 1.255 . S
O33 Fe22 1.976 . S
O33 C40 1.287 . S
O34 Fe23 1.996 . S
O34 C40 1.255 . S
O35 Fe25 1.976 . S
O35 C30 1.287 . S
O36 Fe22 1.996 . S
O36 C30 1.255 . S
C37 O41 1.295 . S
C37 O42 1.235 . S
O38 Fe23 1.976 . S
O38 C32 1.287 . S
O39 Fe25 1.996 . S
O39 C32 1.255 . S
C40 O33 1.287 . S
C40 O34 1.255 . S
O41 Fe23 2.002 . S
O41 C37 1.295 . S
O42 Fe25 1.997 . S
O42 C37 1.235 . S
C43 O26 1.295 . S
C43 O27 1.235 . S
Fe44 O46 1.918 . S
Fe44 O49 1.997 . S
Fe44 O50 2.002 . S
Fe44 O55 1.976 . S
Fe44 O58 1.996 . S
Fe45 O46 1.918 . S
Fe45 O53 1.997 . S
Fe45 O56 1.996 . S
Fe45 O60 1.976 . S
Fe45 O63 2.002 . S
O46 Fe44 1.918 . S
O46 Fe45 1.918 . S
O46 Fe47 1.918 . S
Fe47 O46 1.918 . S
Fe47 O48 2.002 . S
Fe47 O57 1.976 . S
Fe47 O61 1.996 . S
Fe47 O64 1.997 . S
O48 Fe47 2.002 . S
O48 C65 1.295 . S
O49 Fe44 1.997 . S
O49 C65 1.235 . S
O50 Fe44 2.002 . S
O50 C51 1.295 . S
C51 O50 1.295 . S
C51 O53 1.235 . S
C52 O57 1.287 . S
C52 O58 1.255 . S
O53 Fe45 1.997 . S
O53 C51 1.235 . S
C54 O60 1.287 . S
C54 O61 1.255 . S
O55 Fe44 1.976 . S
O55 C62 1.287 . S
O56 Fe45 1.996 . S
O56 C62 1.255 . S
O57 Fe47 1.976 . S
O57 C52 1.287 . S
O58 Fe44 1.996 . S
O58 C52 1.255 . S
C59 O63 1.295 . S
C59 O64 1.235 . S
O60 Fe45 1.976 . S
O60 C54 1.287 . S
O61 Fe47 1.996 . S
O61 C54 1.255 . S
C62 O55 1.287 . S
C62 O56 1.255 . S
O63 Fe45 2.002 . S
O63 C59 1.295 . S
O64 Fe47 1.997 . S
O64 C59 1.235 . S
C65 O48 1.295 . S
C65 O49 1.235 . S
Fe66 O68 1.918 . S
Fe66 O71 1.997 . S
Fe66 O72 2.002 . S
Fe66 O77 1.976 . S
Fe66 O80 1.996 . S
Fe67 O68 1.918 . S
Fe67 O75 1.997 . S
Fe67 O78 1.996 . S
Fe67 O82 1.976 . S
Fe67 O85 2.002 . S
O68 Fe66 1.918 . S
O68 Fe67 1.918 . S
O68 Fe69 1.918 . S
Fe69 O68 1.918 . S
Fe69 O70 2.002 . S
Fe69 O79 1.976 . S
Fe69 O83 1.996 . S
Fe69 O86 1.997 . S
O70 Fe69 2.002 . S
O70 C87 1.295 . S
O71 Fe66 1.997 . S
O71 C87 1.235 . S
O72 Fe66 2.002 . S
O72 C73 1.295 . S
C73 O72 1.295 . S
C73 O75 1.235 . S
C74 O79 1.287 . S
C74 O80 1.255 . S
O75 Fe67 1.997 . S
O75 C73 1.235 . S
C76 O82 1.287 . S
C76 O83 1.255 . S
O77 Fe66 1.976 . S
O77 C84 1.287 . S
O78 Fe67 1.996 . S
O78 C84 1.255 . S
O79 Fe69 1.976 . S
O79 C74 1.287 . S
O80 Fe66 1.996 . S
O80 C74 1.255 . S
C81 O85 1.295 . S
C81 O86 1.235 . S
O82 Fe67 1.976 . S
O82 C76 1.287 . S
O83 Fe69 1.996 . S
O83 C76 1.255 . S
C84 O77 1.287 . S
C84 O78 1.255 . S
O85 Fe67 2.002 . S
O85 C81 1.295 . S
O86 Fe69 1.997 . S
O86 C81 1.235 . S
C87 O70 1.295 . S
C87 O71 1.235 . S
Fe88 O90 1.918 . S
Fe88 O93 1.997 . S
Fe88 O94 2.002 . S
Fe88 O99 1.976 . S
Fe88 O102 1.996 . S
Fe89 O90 1.918 . S
Fe89 O97 1.997 . S
Fe89 O100 1.996 . S
Fe89 O104 1.976 . S
Fe89 O107 2.002 . S
O90 Fe88 1.918 . S
O90 Fe89 1.918 . S
O90 Fe91 1.918 . S
Fe91 O90 1.918 . S
Fe91 O92 2.002 . S
Fe91 O101 1.976 . S
Fe91 O105 1.996 . S
Fe91 O108 1.997 . S
O92 Fe91 2.002 . S
O92 C109 1.295 . S
O93 Fe88 1.997 . S
O93 C109 1.235 . S
O94 Fe88 2.002 . S
O94 C95 1.295 . S
C95 O94 1.295 . S
C95 O97 1.235 . S
C96 O101 1.287 . S
C96 O102 1.255 . S
O97 Fe89 1.997 . S
O97 C95 1.235 . S
C98 O104 1.287 . S
C98 O105 1.255 . S
O99 Fe88 1.976 . S
O99 C106 1.287 . S
O100 Fe89 1.996 . S
O100 C106 1.255 . S
O101 Fe91 1.976 . S
O101 C96 1.287 . S
O102 Fe88 1.996 . S
O102 C96 1.255 . S
C103 O107 1.295 . S
C103 O108 1.235 . S
O104 Fe89 1.976 . S
O104 C98 1.287 . S
O105 Fe91 1.996 . S
O105 C98 1.255 . S
C106 O99 1.287 . S
C106 O100 1.255 . S
O107 Fe89 2.002 . S
O107 C103 1.295 . S
O108 Fe91 1.997 . S
O108 C103 1.235 . S
C109 O92 1.295 . S
C109 O93 1.235 . S
Fe110 O112 1.918 . S
Fe110 O115 1.997 . S
Fe110 O116 2.002 . S
Fe110 O121 1.976 . S
Fe110 O124 1.996 . S
Fe111 O112 1.918 . S
Fe111 O119 1.997 . S
Fe111 O122 1.996 . S
Fe111 O126 1.976 . S
Fe111 O129 2.002 . S
O112 Fe110 1.918 . S
O112 Fe111 1.918 . S
O112 Fe113 1.918 . S
Fe113 O112 1.918 . S
Fe113 O114 2.002 . S
Fe113 O123 1.976 . S
Fe113 O127 1.996 . S
Fe113 O130 1.997 . S
O114 Fe113 2.002 . S
O114 C131 1.295 . S
O115 Fe110 1.997 . S
O115 C131 1.235 . S
O116 Fe110 2.002 . S
O116 C117 1.295 . S
C117 O116 1.295 . S
C117 O119 1.235 . S
C118 O123 1.287 . S
C118 O124 1.255 . S
O119 Fe111 1.997 . S
O119 C117 1.235 . S
C120 O126 1.287 . S
C120 O127 1.255 . S
O121 Fe110 1.976 . S
O121 C128 1.287 . S
O122 Fe111 1.996 . S
O122 C128 1.255 . S
O123 Fe113 1.976 . S
O123 C118 1.287 . S
O124 Fe110 1.996 . S
O124 C118 1.255 . S
C125 O129 1.295 . S
C125 O130 1.235 . S
O126 Fe111 1.976 . S
O126 C120 1.287 . S
O127 Fe113 1.996 . S
O127 C120 1.255 . S
C128 O121 1.287 . S
C128 O122 1.255 . S
O129 Fe111 2.002 . S
O129 C125 1.295 . S
O130 Fe113 1.997 . S
O130 C125 1.235 . S
C131 O114 1.295 . S
C131 O115 1.235 . S
C132 C133 1.391 . S
C132 C134 1.394 . S
C132 H148 0.931 . S
C133 C132 1.391 . S
C133 C137 1.376 . S
C134 C132 1.394 . S
C134 C135 1.369 . S
C134 C138 1.531 . S
C135 C134 1.369 . S
C135 C136 1.410 . S
C135 C143 1.503 . S
C136 C135 1.410 . S
C136 C137 1.392 . S
C136 C139 1.511 . S
C137 C133 1.376 . S
C137 C136 1.392 . S
C137 H149 0.929 . S
C138 C134 1.531 . S
C138 H150 0.960 . S
C138 H151 0.962 . S
C138 H152 0.960 . S
C139 C136 1.511 . S
C139 H153 0.961 . S
C139 H154 0.961 . S
C139 H155 0.961 . S
C140 C141 1.370 . S
C140 C142 1.363 . S
C140 H156 0.931 . S
C141 C140 1.370 . S
C141 C145 1.408 . S
C142 C140 1.363 . S
C142 C143 1.370 . S
C142 C146 1.524 . S
C143 C135 1.503 . S
C143 C142 1.370 . S
C143 C144 1.403 . S
C144 C143 1.403 . S
C144 C145 1.404 . S
C144 C147 1.539 . S
C145 C141 1.408 . S
C145 C144 1.404 . S
C145 H157 0.930 . S
C146 C142 1.524 . S
C146 H158 0.956 . S
C146 H159 0.961 . S
C146 H160 0.961 . S
C147 C144 1.539 . S
C147 H161 0.958 . S
C147 H162 0.961 . S
C147 H163 0.960 . S
H148 C132 0.931 . S
H149 C137 0.929 . S
H150 C138 0.960 . S
H151 C138 0.962 . S
H152 C138 0.960 . S
H153 C139 0.961 . S
H154 C139 0.961 . S
H155 C139 0.961 . S
H156 C140 0.931 . S
H157 C145 0.930 . S
H158 C146 0.956 . S
H159 C146 0.961 . S
H160 C146 0.961 . S
H161 C147 0.958 . S
H162 C147 0.961 . S
H163 C147 0.960 . S
C164 C165 1.391 . S
C164 C166 1.394 . S
C164 H180 0.931 . S
C165 C164 1.391 . S
C165 C169 1.376 . S
C166 C164 1.394 . S
C166 C167 1.369 . S
C166 C170 1.531 . S
C167 C166 1.369 . S
C167 C168 1.410 . S
C167 C175 1.503 . S
C168 C167 1.410 . S
C168 C169 1.392 . S
C168 C171 1.511 . S
C169 C165 1.376 . S
C169 C168 1.392 . S
C169 H181 0.929 . S
C170 C166 1.531 . S
C170 H182 0.960 . S
C170 H183 0.962 . S
C170 H184 0.960 . S
C171 C168 1.511 . S
C171 H185 0.961 . S
C171 H186 0.961 . S
C171 H187 0.961 . S
C172 C173 1.370 . S
C172 C174 1.363 . S
C172 H188 0.931 . S
C173 C172 1.370 . S
C173 C177 1.408 . S
C174 C172 1.363 . S
C174 C175 1.370 . S
C174 C178 1.524 . S
C175 C167 1.503 . S
C175 C174 1.370 . S
C175 C176 1.403 . S
C176 C175 1.403 . S
C176 C177 1.404 . S
C176 C179 1.539 . S
C177 C173 1.408 . S
C177 C176 1.404 . S
C177 H189 0.930 . S
C178 C174 1.524 . S
C178 H190 0.956 . S
C178 H191 0.961 . S
C178 H192 0.961 . S
C179 C176 1.539 . S
C179 H193 0.958 . S
C179 H194 0.961 . S
C179 H195 0.960 . S
H180 C164 0.931 . S
H181 C169 0.929 . S
H182 C170 0.960 . S
H183 C170 0.962 . S
H184 C170 0.960 . S
H185 C171 0.961 . S
H186 C171 0.961 . S
H187 C171 0.961 . S
H188 C172 0.931 . S
H189 C177 0.930 . S
H190 C178 0.956 . S
H191 C178 0.961 . S
H192 C178 0.961 . S
H193 C179 0.958 . S
H194 C179 0.961 . S
H195 C179 0.960 . S
C196 C197 1.391 . S
C196 C198 1.394 . S
C196 H212 0.931 . S
C197 C196 1.391 . S
C197 C201 1.376 . S
C198 C196 1.394 . S
C198 C199 1.369 . S
C198 C202 1.531 . S
C199 C198 1.369 . S
C199 C200 1.410 . S
C199 C207 1.503 . S
C200 C199 1.410 . S
C200 C201 1.392 . S
C200 C203 1.511 . S
C201 C197 1.376 . S
C201 C200 1.392 . S
C201 H213 0.929 . S
C202 C198 1.531 . S
C202 H214 0.960 . S
C202 H215 0.962 . S
C202 H216 0.960 . S
C203 C200 1.511 . S
C203 H217 0.961 . S
C203 H218 0.961 . S
C203 H219 0.961 . S
C204 C205 1.370 . S
C204 C206 1.363 . S
C204 H220 0.931 . S
C205 C204 1.370 . S
C205 C209 1.408 . S
C206 C204 1.363 . S
C206 C207 1.370 . S
C206 C210 1.524 . S
C207 C199 1.503 . S
C207 C206 1.370 . S
C207 C208 1.403 . S
C208 C207 1.403 . S
C208 C209 1.404 . S
C208 C211 1.539 . S
C209 C205 1.408 . S
C209 C208 1.404 . S
C209 H221 0.930 . S
C210 C206 1.524 . S
C210 H222 0.956 . S
C210 H223 0.961 . S
C210 H224 0.961 . S
C211 C208 1.539 . S
C211 H225 0.958 . S
C211 H226 0.961 . S
C211 H227 0.960 . S
H212 C196 0.931 . S
H213 C201 0.929 . S
H214 C202 0.960 . S
H215 C202 0.962 . S
H216 C202 0.960 . S
H217 C203 0.961 . S
H218 C203 0.961 . S
H219 C203 0.961 . S
H220 C204 0.931 . S
H221 C209 0.930 . S
H222 C210 0.956 . S
H223 C210 0.961 . S
H224 C210 0.961 . S
H225 C211 0.958 . S
H226 C211 0.961 . S
H227 C211 0.960 . S
C228 C229 1.391 . S
C228 C230 1.394 . S
C228 H244 0.931 . S
C229 C228 1.391 . S
C229 C233 1.376 . S
C230 C228 1.394 . S
C230 C231 1.369 . S
C230 C234 1.531 . S
C231 C230 1.369 . S
C231 C232 1.410 . S
C231 C239 1.503 . S
C232 C231 1.410 . S
C232 C233 1.392 . S
C232 C235 1.511 . S
C233 C229 1.376 . S
C233 C232 1.392 . S
C233 H245 0.929 . S
C234 C230 1.531 . S
C234 H246 0.960 . S
C234 H247 0.962 . S
C234 H248 0.960 . S
C235 C232 1.511 . S
C235 H249 0.961 . S
C235 H250 0.961 . S
C235 H251 0.961 . S
C236 C237 1.370 . S
C236 C238 1.363 . S
C236 H252 0.931 . S
C237 C236 1.370 . S
C237 C241 1.408 . S
C238 C236 1.363 . S
C238 C239 1.370 . S
C238 C242 1.524 . S
C239 C231 1.503 . S
C239 C238 1.370 . S
C239 C240 1.403 . S
C240 C239 1.403 . S
C240 C241 1.404 . S
C240 C243 1.539 . S
C241 C237 1.408 . S
C241 C240 1.404 . S
C241 H253 0.930 . S
C242 C238 1.524 . S
C242 H254 0.956 . S
C242 H255 0.961 . S
C242 H256 0.961 . S
C243 C240 1.539 . S
C243 H257 0.958 . S
C243 H258 0.961 . S
C243 H259 0.960 . S
H244 C228 0.931 . S
H245 C233 0.929 . S
H246 C234 0.960 . S
H247 C234 0.962 . S
H248 C234 0.960 . S
H249 C235 0.961 . S
H250 C235 0.961 . S
H251 C235 0.961 . S
H252 C236 0.931 . S
H253 C241 0.930 . S
H254 C242 0.956 . S
H255 C242 0.961 . S
H256 C242 0.961 . S
H257 C243 0.958 . S
H258 C243 0.961 . S
H259 C243 0.960 . S
C260 C261 1.391 . S
C260 C262 1.394 . S
C260 H276 0.931 1_556 S
C261 C260 1.391 . S
C261 C265 1.376 . S
C262 C260 1.394 . S
C262 C263 1.369 . S
C262 C266 1.531 . S
C263 C262 1.369 . S
C263 C264 1.410 . S
C263 C271 1.503 . S
C264 C263 1.410 . S
C264 C265 1.392 . S
C264 C267 1.511 . S
C265 C261 1.376 . S
C265 C264 1.392 . S
C265 H277 0.929 . S
C266 C262 1.531 . S
C266 H278 0.960 . S
C266 H279 0.962 . S
C266 H280 0.960 . S
C267 C264 1.511 . S
C267 H281 0.961 . S
C267 H282 0.961 . S
C267 H283 0.961 . S
C268 C269 1.370 . S
C268 C270 1.363 . S
C268 H284 0.931 . S
C269 C268 1.370 . S
C269 C273 1.408 . S
C270 C268 1.363 . S
C270 C271 1.370 . S
C270 C274 1.524 . S
C271 C263 1.503 . S
C271 C270 1.370 . S
C271 C272 1.403 . S
C272 C271 1.403 . S
C272 C273 1.404 . S
C272 C275 1.539 . S
C273 C269 1.408 . S
C273 C272 1.404 . S
C273 H285 0.930 . S
C274 C270 1.524 . S
C274 H286 0.956 . S
C274 H287 0.961 . S
C274 H288 0.961 . S
C275 C272 1.539 . S
C275 H289 0.958 . S
C275 H290 0.961 . S
C275 H291 0.960 . S
H276 C260 0.931 1_554 S
H277 C265 0.929 . S
H278 C266 0.960 . S
H279 C266 0.962 . S
H280 C266 0.960 . S
H281 C267 0.961 . S
H282 C267 0.961 . S
H283 C267 0.961 . S
H284 C268 0.931 . S
H285 C273 0.930 . S
H286 C274 0.956 . S
H287 C274 0.961 . S
H288 C274 0.961 . S
H289 C275 0.958 . S
H290 C275 0.961 . S
H291 C275 0.960 . S
C292 C293 1.391 . S
C292 C294 1.394 . S
C292 H308 0.931 . S
C293 C292 1.391 . S
C293 C297 1.376 . S
C294 C292 1.394 . S
C294 C295 1.369 . S
C294 C298 1.531 . S
C295 C294 1.369 . S
C295 C296 1.410 . S
C295 C303 1.503 . S
C296 C295 1.410 . S
C296 C297 1.392 . S
C296 C299 1.511 . S
C297 C293 1.376 . S
C297 C296 1.392 . S
C297 H309 0.929 . S
C298 C294 1.531 . S
C298 H310 0.960 . S
C298 H311 0.962 . S
C298 H312 0.960 . S
C299 C296 1.511 . S
C299 H313 0.961 . S
C299 H314 0.961 . S
C299 H315 0.961 . S
C300 C301 1.370 . S
C300 C302 1.363 . S
C300 H316 0.933 . S
C301 C300 1.370 . S
C301 C305 1.408 . S
C302 C300 1.363 . S
C302 C303 1.370 . S
C302 C306 1.524 . S
C303 C295 1.503 . S
C303 C302 1.370 . S
C303 C304 1.403 . S
C304 C303 1.403 . S
C304 C305 1.404 . S
C304 C307 1.539 . S
C305 C301 1.408 . S
C305 C304 1.404 . S
C305 H317 0.930 . S
C306 C302 1.524 . S
C306 H318 0.956 . S
C306 H319 0.961 . S
C306 H320 0.961 . S
C307 C304 1.539 . S
C307 H321 0.958 . S
C307 H322 0.961 . S
C307 H323 0.960 . S
H308 C292 0.931 . S
H309 C297 0.929 . S
H310 C298 0.960 . S
H311 C298 0.962 . S
H312 C298 0.960 . S
H313 C299 0.961 . S
H314 C299 0.961 . S
H315 C299 0.961 . S
H316 C300 0.933 . S
H317 C305 0.930 . S
H318 C306 0.956 . S
H319 C306 0.961 . S
H320 C306 0.961 . S
H321 C307 0.958 . S
H322 C307 0.961 . S
H323 C307 0.960 . S
C324 C325 1.391 . S
C324 C326 1.394 . S
C324 H340 0.931 . S
C325 C324 1.391 . S
C325 C329 1.376 . S
C326 C324 1.394 . S
C326 C327 1.369 . S
C326 C330 1.531 . S
C327 C326 1.369 . S
C327 C328 1.410 . S
C327 C335 1.503 1_556 S
C328 C327 1.410 . S
C328 C329 1.395 . S
C328 C331 1.508 1_556 S
C329 C325 1.376 . S
C329 C328 1.395 . S
C329 H341 0.929 . S
C330 C326 1.531 . S
C330 H342 0.960 . S
C330 H343 0.962 . S
C330 H344 0.960 . S
C331 C328 1.508 1_554 S
C331 H345 0.961 . S
C331 H346 0.961 . S
C331 H347 0.961 . S
C332 C333 1.370 . S
C332 C334 1.363 1_554 S
C332 H348 0.931 . S
C333 C332 1.370 . S
C333 C337 1.408 . S
C334 C332 1.363 1_556 S
C334 C335 1.370 1_556 S
C334 C338 1.524 . S
C335 C327 1.503 1_554 S
C335 C334 1.370 1_554 S
C335 C336 1.403 . S
C336 C335 1.403 . S
C336 C337 1.404 . S
C336 C339 1.539 . S
C337 C333 1.408 . S
C337 C336 1.404 . S
C337 H349 0.930 . S
C338 C334 1.524 . S
C338 H350 0.956 . S
C338 H351 0.961 . S
C338 H352 0.961 . S
C339 C336 1.539 . S
C339 H353 0.958 . S
C339 H354 0.961 . S
C339 H355 0.960 . S
H340 C324 0.931 . S
H341 C329 0.929 . S
H342 C330 0.960 . S
H343 C330 0.962 . S
H344 C330 0.960 . S
H345 C331 0.961 . S
H346 C331 0.961 . S
H347 C331 0.961 . S
H348 C332 0.931 . S
H349 C337 0.930 . S
H350 C338 0.956 . S
H351 C338 0.961 . S
H352 C338 0.961 . S
H353 C339 0.958 . S
H354 C339 0.961 . S
H355 C339 0.960 . S
C356 C357 1.391 1_655 S
C356 C358 1.394 . S
C356 H372 0.931 . S
C357 C356 1.391 1_455 S
C357 C361 1.376 . S
C358 C356 1.394 . S
C358 C359 1.369 . S
C358 C362 1.531 . S
C359 C358 1.369 . S
C359 C360 1.410 . S
C359 C367 1.503 . S
C360 C359 1.410 . S
C360 C361 1.392 1_655 S
C360 C363 1.511 . S
C361 C357 1.376 . S
C361 C360 1.392 1_455 S
C361 H373 0.929 . S
C362 C358 1.531 . S
C362 H374 0.960 . S
C362 H375 0.962 . S
C362 H376 0.960 . S
C363 C360 1.511 . S
C363 H377 0.961 . S
C363 H378 0.961 . S
C363 H379 0.961 . S
C364 C365 1.370 . S
C364 C366 1.363 . S
C364 H380 0.931 . S
C365 C364 1.370 . S
C365 C369 1.408 . S
C366 C364 1.363 . S
C366 C367 1.370 . S
C366 C370 1.524 . S
C367 C359 1.503 . S
C367 C366 1.370 . S
C367 C368 1.403 . S
C368 C367 1.403 . S
C368 C369 1.404 . S
C368 C371 1.539 . S
C369 C365 1.408 . S
C369 C368 1.404 . S
C369 H381 0.930 . S
C370 C366 1.524 . S
C370 H382 0.956 . S
C370 H383 0.961 . S
C370 H384 0.961 . S
C371 C368 1.539 . S
C371 H385 0.958 . S
C371 H386 0.961 . S
C371 H387 0.960 . S
H372 C356 0.931 . S
H373 C361 0.929 . S
H374 C362 0.960 . S
H375 C362 0.962 . S
H376 C362 0.960 . S
H377 C363 0.961 . S
H378 C363 0.961 . S
H379 C363 0.961 . S
H380 C364 0.931 . S
H381 C369 0.930 . S
H382 C370 0.956 . S
H383 C370 0.961 . S
H384 C370 0.961 . S
H385 C371 0.958 . S
H386 C371 0.961 . S
H387 C371 0.960 . S
C388 C389 1.391 . S
C388 C390 1.394 . S
C388 H404 0.931 . S
C389 C388 1.391 . S
C389 C393 1.376 . S
C390 C388 1.394 . S
C390 C391 1.369 . S
C390 C394 1.531 . S
C391 C390 1.369 . S
C391 C392 1.410 . S
C391 C399 1.503 . S
C392 C391 1.410 . S
C392 C393 1.392 . S
C392 C395 1.511 . S
C393 C389 1.376 . S
C393 C392 1.392 . S
C393 H405 0.929 . S
C394 C390 1.531 . S
C394 H406 0.960 . S
C394 H407 0.962 . S
C394 H408 0.960 . S
C395 C392 1.511 . S
C395 H409 0.961 . S
C395 H410 0.961 . S
C395 H411 0.961 . S
C396 C397 1.370 1_565 S
C396 C398 1.363 . S
C396 H412 0.931 . S
C397 C396 1.370 1_545 S
C397 C401 1.408 . S
C398 C396 1.363 . S
C398 C399 1.370 . S
C398 C402 1.524 . S
C399 C391 1.503 . S
C399 C398 1.370 . S
C399 C400 1.403 . S
C400 C399 1.403 . S
C400 C401 1.404 1_565 S
C400 C403 1.539 . S
C401 C397 1.408 . S
C401 C400 1.404 1_545 S
C401 H413 0.930 . S
C402 C398 1.524 . S
C402 H414 0.956 . S
C402 H415 0.961 . S
C402 H416 0.961 . S
C403 C400 1.539 . S
C403 H417 0.958 . S
C403 H418 0.961 1_565 S
C403 H419 0.960 . S
H404 C388 0.931 . S
H405 C393 0.929 . S
H406 C394 0.960 . S
H407 C394 0.962 . S
H408 C394 0.960 . S
H409 C395 0.961 . S
H410 C395 0.961 . S
H411 C395 0.961 . S
H412 C396 0.931 . S
H413 C401 0.930 . S
H414 C402 0.956 . S
H415 C402 0.961 . S
H416 C402 0.961 . S
H417 C403 0.958 . S
H418 C403 0.961 1_545 S
H419 C403 0.960 . S
C420 C421 1.391 . S
C420 C422 1.394 . S
C420 H436 0.931 . S
C421 C420 1.391 . S
C421 C425 1.376 . S
C422 C420 1.394 . S
C422 C423 1.369 . S
C422 C426 1.531 . S
C423 C422 1.369 . S
C423 C424 1.410 . S
C423 C431 1.503 . S
C424 C423 1.410 . S
C424 C425 1.392 . S
C424 C427 1.511 . S
C425 C421 1.376 . S
C425 C424 1.392 . S
C425 H437 0.929 . S
C426 C422 1.531 . S
C426 H438 0.960 . S
C426 H439 0.962 . S
C426 H440 0.960 . S
C427 C424 1.511 . S
C427 H441 0.961 . S
C427 H442 0.961 . S
C427 H443 0.961 . S
C428 C429 1.370 . S
C428 C430 1.363 . S
C428 H444 0.931 . S
C429 C428 1.370 . S
C429 C433 1.408 . S
C430 C428 1.363 . S
C430 C431 1.370 . S
C430 C434 1.524 . S
C431 C423 1.503 . S
C431 C430 1.370 . S
C431 C432 1.403 . S
C432 C431 1.403 . S
C432 C433 1.404 . S
C432 C435 1.539 . S
C433 C429 1.408 . S
C433 C432 1.404 . S
C433 H445 0.930 . S
C434 C430 1.524 . S
C434 H446 0.956 . S
C434 H447 0.961 . S
C434 H448 0.961 . S
C435 C432 1.539 . S
C435 H449 0.958 . S
C435 H450 0.961 . S
C435 H451 0.960 . S
H436 C420 0.931 . S
H437 C425 0.929 . S
H438 C426 0.960 . S
H439 C426 0.962 . S
H440 C426 0.960 . S
H441 C427 0.961 . S
H442 C427 0.961 . S
H443 C427 0.961 . S
H444 C428 0.931 . S
H445 C433 0.930 . S
H446 C434 0.956 . S
H447 C434 0.961 . S
H448 C434 0.961 . S
H449 C435 0.958 . S
H450 C435 0.961 . S
H451 C435 0.960 . S
C452 C453 1.391 . S
C452 C454 1.394 . S
C452 H468 0.931 . S
C453 C452 1.391 . S
C453 C457 1.376 . S
C454 C452 1.394 . S
C454 C455 1.369 . S
C454 C458 1.531 . S
C455 C454 1.369 . S
C455 C456 1.410 . S
C455 C463 1.503 . S
C456 C455 1.410 . S
C456 C457 1.392 . S
C456 C459 1.511 . S
C457 C453 1.376 . S
C457 C456 1.392 . S
C457 H469 0.929 . S
C458 C454 1.531 . S
C458 H470 0.960 . S
C458 H471 0.962 . S
C458 H472 0.960 . S
C459 C456 1.511 . S
C459 H473 0.961 . S
C459 H474 0.961 . S
C459 H475 0.961 . S
C460 C461 1.370 1_455 S
C460 C462 1.363 . S
C460 H476 0.931 1_455 S
C461 C460 1.370 1_655 S
C461 C465 1.408 1_655 S
C462 C460 1.363 . S
C462 C463 1.370 . S
C462 C466 1.524 . S
C463 C455 1.503 . S
C463 C462 1.370 . S
C463 C464 1.403 . S
C464 C463 1.403 . S
C464 C465 1.404 . S
C464 C467 1.539 . S
C465 C461 1.408 1_455 S
C465 C464 1.404 . S
C465 H477 0.930 . S
C466 C462 1.524 . S
C466 H478 0.956 . S
C466 H479 0.961 . S
C466 H480 0.961 . S
C467 C464 1.539 . S
C467 H481 0.958 . S
C467 H482 0.961 . S
C467 H483 0.960 . S
H468 C452 0.931 . S
H469 C457 0.929 . S
H470 C458 0.960 . S
H471 C458 0.962 . S
H472 C458 0.960 . S
H473 C459 0.961 . S
H474 C459 0.961 . S
H475 C459 0.961 . S
H476 C460 0.931 1_655 S
H477 C465 0.930 . S
H478 C466 0.956 . S
H479 C466 0.961 . S
H480 C466 0.961 . S
H481 C467 0.958 . S
H482 C467 0.961 . S
H483 C467 0.960 . S
C484 C485 1.391 . S
C484 C486 1.394 . S
C484 H500 0.931 . S
C485 C484 1.391 . S
C485 C489 1.376 . S
C486 C484 1.394 . S
C486 C487 1.369 . S
C486 C490 1.531 . S
C487 C486 1.369 . S
C487 C488 1.410 . S
C487 C495 1.503 . S
C488 C487 1.410 . S
C488 C489 1.392 . S
C488 C491 1.511 . S
C489 C485 1.376 . S
C489 C488 1.392 . S
C489 H501 0.929 . S
C490 C486 1.531 . S
C490 H502 0.960 . S
C490 H503 0.962 . S
C490 H504 0.960 . S
C491 C488 1.511 . S
C491 H505 0.961 . S
C491 H506 0.961 . S
C491 H507 0.961 . S
C492 C493 1.370 1_545 S
C492 C494 1.363 . S
C492 H508 0.931 1_545 S
C493 C492 1.370 1_565 S
C493 C497 1.408 1_565 S
C494 C492 1.363 . S
C494 C495 1.370 . S
C494 C498 1.524 . S
C495 C487 1.503 . S
C495 C494 1.370 . S
C495 C496 1.403 . S
C496 C495 1.403 . S
C496 C497 1.404 . S
C496 C499 1.539 . S
C497 C493 1.408 1_545 S
C497 C496 1.404 . S
C497 H509 0.930 . S
C498 C494 1.524 . S
C498 H510 0.956 . S
C498 H511 0.961 . S
C498 H512 0.961 . S
C499 C496 1.539 . S
C499 H513 0.958 . S
C499 H514 0.961 . S
C499 H515 0.960 . S
H500 C484 0.931 . S
H501 C489 0.929 . S
H502 C490 0.960 . S
H503 C490 0.962 . S
H504 C490 0.960 . S
H505 C491 0.961 . S
H506 C491 0.961 . S
H507 C491 0.961 . S
H508 C492 0.931 1_565 S
H509 C497 0.930 . S
H510 C498 0.956 . S
H511 C498 0.961 . S
H512 C498 0.961 . S
H513 C499 0.958 . S
H514 C499 0.961 . S
H515 C499 0.960 . S
C516 C517 1.391 . S
C516 C518 1.394 . S
C516 H532 0.931 . S
C517 C516 1.391 . S
C517 C521 1.376 . S
C518 C516 1.394 . S
C518 C519 1.369 . S
C518 C522 1.531 . S
C519 C518 1.369 . S
C519 C520 1.410 . S
C519 C527 1.503 . S
C520 C519 1.410 . S
C520 C521 1.392 . S
C520 C523 1.511 . S
C521 C517 1.376 . S
C521 C520 1.392 . S
C521 H533 0.929 . S
C522 C518 1.531 . S
C522 H534 0.960 . S
C522 H535 0.962 . S
C522 H536 0.960 . S
C523 C520 1.511 . S
C523 H537 0.961 . S
C523 H538 0.961 . S
C523 H539 0.961 . S
C524 C525 1.370 . S
C524 C526 1.363 . S
C524 H540 0.931 . S
C525 C524 1.370 . S
C525 C529 1.408 . S
C526 C524 1.363 . S
C526 C527 1.370 . S
C526 C530 1.524 . S
C527 C519 1.503 . S
C527 C526 1.370 . S
C527 C528 1.403 . S
C528 C527 1.403 . S
C528 C529 1.404 . S
C528 C531 1.539 . S
C529 C525 1.408 . S
C529 C528 1.404 . S
C529 H541 0.930 . S
C530 C526 1.524 . S
C530 H542 0.956 . S
C530 H543 0.961 . S
C530 H544 0.961 . S
C531 C528 1.539 . S
C531 H545 0.958 . S
C531 H546 0.961 . S
C531 H547 0.960 . S
H532 C516 0.931 . S
H533 C521 0.929 . S
H534 C522 0.960 . S
H535 C522 0.962 . S
H536 C522 0.960 . S
H537 C523 0.961 . S
H538 C523 0.961 . S
H539 C523 0.961 . S
H540 C524 0.931 . S
H541 C529 0.930 . S
H542 C530 0.956 . S
H543 C530 0.961 . S
H544 C530 0.961 . S
H545 C531 0.958 . S
H546 C531 0.961 . S
H547 C531 0.960 . S
C548 C549 1.391 . S
C548 C550 1.394 1_455 S
C548 H564 0.931 . S
C549 C548 1.391 . S
C549 C553 1.376 1_455 S
C550 C548 1.394 1_655 S
C550 C551 1.369 . S
C550 C554 1.531 . S
C551 C550 1.369 . S
C551 C552 1.410 . S
C551 C559 1.503 1_554 S
C552 C551 1.410 . S
C552 C553 1.392 . S
C552 C555 1.511 . S
C553 C549 1.376 1_655 S
C553 C552 1.392 . S
C553 H565 0.929 . S
C554 C550 1.531 . S
C554 H566 0.960 1_554 S
C554 H567 0.962 . S
C554 H568 0.960 . S
C555 C552 1.511 . S
C555 H569 0.961 . S
C555 H570 0.961 1_554 S
C555 H571 0.961 1_554 S
C556 C557 1.370 . S
C556 C558 1.363 1_556 S
C556 H572 0.931 1_556 S
C557 C556 1.370 . S
C557 C561 1.408 . S
C558 C556 1.363 1_554 S
C558 C559 1.370 1_554 S
C558 C562 1.524 . S
C559 C551 1.503 1_556 S
C559 C558 1.370 1_556 S
C559 C560 1.403 . S
C560 C559 1.403 . S
C560 C561 1.404 . S
C560 C563 1.539 . S
C561 C557 1.408 . S
C561 C560 1.404 . S
C561 H573 0.930 . S
C562 C558 1.524 . S
C562 H574 0.956 . S
C562 H575 0.961 . S
C562 H576 0.961 . S
C563 C560 1.539 . S
C563 H577 0.958 . S
C563 H578 0.961 . S
C563 H579 0.960 . S
H564 C548 0.931 . S
H565 C553 0.929 . S
H566 C554 0.960 1_556 S
H567 C554 0.962 . S
H568 C554 0.960 . S
H569 C555 0.961 . S
H570 C555 0.961 1_556 S
H571 C555 0.961 1_556 S
H572 C556 0.931 1_554 S
H573 C561 0.930 . S
H574 C562 0.956 . S
H575 C562 0.961 . S
H576 C562 0.961 . S
H577 C563 0.958 . S
H578 C563 0.961 . S
H579 C563 0.960 . S
C580 C581 1.391 . S
C580 C582 1.394 1_545 S
C580 H596 0.931 . S
C581 C580 1.391 . S
C581 C585 1.376 1_545 S
C582 C580 1.394 1_565 S
C582 C583 1.369 . S
C582 C586 1.531 . S
C583 C582 1.369 . S
C583 C584 1.410 . S
C583 C591 1.503 . S
C584 C583 1.410 . S
C584 C585 1.392 . S
C584 C587 1.511 . S
C585 C581 1.376 1_565 S
C585 C584 1.392 . S
C585 H597 0.929 . S
C586 C582 1.531 . S
C586 H598 0.960 . S
C586 H599 0.962 . S
C586 H600 0.960 1_565 S
C587 C584 1.511 . S
C587 H601 0.961 . S
C587 H602 0.961 . S
C587 H603 0.961 . S
C588 C589 1.370 . S
C588 C590 1.363 . S
C588 H604 0.931 . S
C589 C588 1.370 . S
C589 C593 1.408 . S
C590 C588 1.363 . S
C590 C591 1.370 . S
C590 C594 1.524 . S
C591 C583 1.503 . S
C591 C590 1.370 . S
C591 C592 1.403 . S
C592 C591 1.403 . S
C592 C593 1.404 . S
C592 C595 1.539 . S
C593 C589 1.408 . S
C593 C592 1.404 . S
C593 H605 0.930 . S
C594 C590 1.524 . S
C594 H606 0.956 . S
C594 H607 0.961 . S
C594 H608 0.961 . S
C595 C592 1.539 . S
C595 H609 0.958 . S
C595 H610 0.961 . S
C595 H611 0.960 . S
H596 C580 0.931 . S
H597 C585 0.929 . S
H598 C586 0.960 . S
H599 C586 0.962 . S
H600 C586 0.960 1_545 S
H601 C587 0.961 . S
H602 C587 0.961 . S
H603 C587 0.961 . S
H604 C588 0.931 . S
H605 C593 0.930 . S
H606 C594 0.956 . S
H607 C594 0.961 . S
H608 C594 0.961 . S
H609 C595 0.958 . S
H610 C595 0.961 . S
H611 C595 0.960 . S
C612 C613 1.391 . S
C612 C614 1.394 . S
C612 H628 0.931 . S
C613 C612 1.391 . S
C613 C617 1.376 . S
C614 C612 1.394 . S
C614 C615 1.369 . S
C614 C618 1.531 . S
C615 C614 1.369 . S
C615 C616 1.410 . S
C615 C623 1.503 . S
C616 C615 1.410 . S
C616 C617 1.392 . S
C616 C619 1.511 . S
C617 C613 1.376 . S
C617 C616 1.392 . S
C617 H629 0.929 . S
C618 C614 1.531 . S
C618 H630 0.960 . S
C618 H631 0.962 . S
C618 H632 0.960 . S
C619 C616 1.511 . S
C619 H633 0.961 . S
C619 H634 0.961 . S
C619 H635 0.961 . S
C620 C621 1.370 . S
C620 C622 1.363 . S
C620 H636 0.931 . S
C621 C620 1.370 . S
C621 C625 1.408 . S
C622 C620 1.363 . S
C622 C623 1.370 . S
C622 C626 1.524 . S
C623 C615 1.503 . S
C623 C622 1.370 . S
C623 C624 1.403 . S
C624 C623 1.403 . S
C624 C625 1.404 . S
C624 C627 1.539 . S
C625 C621 1.408 . S
C625 C624 1.404 . S
C625 H637 0.930 . S
C626 C622 1.524 . S
C626 H638 0.956 . S
C626 H639 0.961 . S
C626 H640 0.961 . S
C627 C624 1.539 . S
C627 H641 0.958 . S
C627 H642 0.961 . S
C627 H643 0.960 . S
H628 C612 0.931 . S
H629 C617 0.929 . S
H630 C618 0.960 . S
H631 C618 0.962 . S
H632 C618 0.960 . S
H633 C619 0.961 . S
H634 C619 0.961 . S
H635 C619 0.961 . S
H636 C620 0.931 . S
H637 C625 0.930 . S
H638 C626 0.956 . S
H639 C626 0.961 . S
H640 C626 0.961 . S
H641 C627 0.958 . S
H642 C627 0.961 . S
H643 C627 0.960 . S
C644 C645 1.391 . S
C644 C646 1.394 1_655 S
C644 H660 0.931 . S
C645 C644 1.391 . S
C645 C649 1.376 1_655 S
C646 C644 1.394 1_455 S
C646 C647 1.369 . S
C646 C650 1.531 . S
C647 C646 1.369 . S
C647 C648 1.410 . S
C647 C655 1.503 . S
C648 C647 1.410 . S
C648 C649 1.392 . S
C648 C651 1.511 . S
C649 C645 1.376 1_455 S
C649 C648 1.392 . S
C649 H661 0.929 . S
C650 C646 1.531 . S
C650 H662 0.960 . S
C650 H663 0.962 . S
C650 H664 0.960 1_455 S
C651 C648 1.511 . S
C651 H665 0.961 . S
C651 H666 0.961 . S
C651 H667 0.961 . S
C652 C653 1.370 . S
C652 C654 1.363 . S
C652 H668 0.931 . S
C653 C652 1.370 . S
C653 C657 1.408 . S
C654 C652 1.363 . S
C654 C655 1.370 . S
C654 C658 1.524 . S
C655 C647 1.503 . S
C655 C654 1.370 . S
C655 C656 1.403 . S
C656 C655 1.403 . S
C656 C657 1.404 . S
C656 C659 1.539 . S
C657 C653 1.408 . S
C657 C656 1.404 . S
C657 H669 0.930 . S
C658 C654 1.524 . S
C658 H670 0.956 . S
C658 H671 0.961 . S
C658 H672 0.961 . S
C659 C656 1.539 . S
C659 H673 0.958 . S
C659 H674 0.961 . S
C659 H675 0.960 . S
H660 C644 0.931 . S
H661 C649 0.929 . S
H662 C650 0.960 . S
H663 C650 0.962 . S
H664 C650 0.960 1_655 S
H665 C651 0.961 . S
H666 C651 0.961 . S
H667 C651 0.961 . S
H668 C652 0.931 . S
H669 C657 0.930 . S
H670 C658 0.956 . S
H671 C658 0.961 . S
H672 C658 0.961 . S
H673 C659 0.958 . S
H674 C659 0.961 . S
H675 C659 0.960 . S
C676 C677 1.391 . S
C676 C678 1.394 1_565 S
C676 H692 0.931 . S
C677 C676 1.391 . S
C677 C681 1.376 1_565 S
C678 C676 1.394 1_545 S
C678 C679 1.369 . S
C678 C682 1.531 . S
C679 C678 1.369 . S
C679 C680 1.410 . S
C679 C687 1.503 . S
C680 C679 1.410 . S
C680 C681 1.392 . S
C680 C683 1.511 . S
C681 C677 1.376 1_545 S
C681 C680 1.392 . S
C681 H693 0.929 . S
C682 C678 1.531 . S
C682 H694 0.960 . S
C682 H695 0.962 . S
C682 H696 0.960 . S
C683 C680 1.511 . S
C683 H697 0.961 . S
C683 H698 0.961 . S
C683 H699 0.961 . S
C684 C685 1.370 . S
C684 C686 1.363 . S
C684 H700 0.931 . S
C685 C684 1.370 . S
C685 C689 1.408 . S
C686 C684 1.363 . S
C686 C687 1.370 . S
C686 C690 1.524 . S
C687 C679 1.503 . S
C687 C686 1.370 . S
C687 C688 1.403 . S
C688 C687 1.403 . S
C688 C689 1.404 . S
C688 C691 1.539 . S
C689 C685 1.408 . S
C689 C688 1.404 . S
C689 H701 0.930 . S
C690 C686 1.524 . S
C690 H702 0.956 . S
C690 H703 0.961 . S
C690 H704 0.961 . S
C691 C688 1.539 . S
C691 H705 0.958 . S
C691 H706 0.961 . S
C691 H707 0.960 . S
H692 C676 0.931 . S
H693 C681 0.929 . S
H694 C682 0.960 . S
H695 C682 0.962 . S
H696 C682 0.960 . S
H697 C683 0.961 . S
H698 C683 0.961 . S
H699 C683 0.961 . S
H700 C684 0.931 . S
H701 C689 0.930 . S
H702 C690 0.956 . S
H703 C690 0.961 . S
H704 C690 0.961 . S
H705 C691 0.958 . S
H706 C691 0.961 . S
H707 C691 0.960 . S
C133 C18 0.814 . S
C141 C52 0.821 . S
C165 C37 0.946 . S
C173 C73 0.956 . S
C197 C106 0.886 . S
C205 C51 0.882 . S
C229 C118 0.831 . S
C237 C74 0.828 . S
C261 C15 0.945 1_556 S
C269 C103 0.958 . S
C293 C40 0.887 . S
C301 C117 0.883 1_554 S
C325 C125 1.353 . S
C333 C10 1.375 . S
C357 C8 1.375 . S
C365 C29 1.349 . S
C389 C65 1.378 . S
C397 C43 1.360 . S
C421 C84 1.332 . S
C429 C59 1.326 . S
C453 C95 1.309 . S
C461 C76 1.358 . S
C485 C131 1.330 . S
C493 C109 1.348 . S
C517 C98 1.339 . S
C525 C120 1.315 . S
C549 C21 1.324 . S
C557 C128 1.361 . S
C581 C30 1.312 . S
C589 C7 1.324 . S
C613 C32 1.347 . S
C621 C54 1.320 . S
C645 C81 1.305 . S
C653 C62 1.354 . S
C677 C96 1.322 . S
C685 C87 1.333 . S
