# Generated by pormake.
# Topology unh, (4)-cn, num edge types: 1
# Building blocks:
#     Node 0, Type 0, BuildingBlock: NAWXER_clean_sbu_0, # of connection points: 4
#     Node 1, Type 0, BuildingBlock: NAWXER_clean_sbu_0, # of connection points: 4
#     Node 2, Type 0, BuildingBlock: NAWXER_clean_sbu_0, # of connection points: 4
#     Node 3, Type 0, BuildingBlock: NAWXER_clean_sbu_0, # of connection points: 4
#     Node 4, Type 0, BuildingBlock: NAWXER_clean_sbu_0, # of connection points: 4
#     Node 5, Type 0, BuildingBlock: NAWXER_clean_sbu_0, # of connection points: 4
#     Edge 6, Type (0, 0), BuildingBlock: FUNLAD_clean_linker_0, # of connection points: 2
#     Edge 7, Type (0, 0), BuildingBlock: FUNLAD_clean_linker_0, # of connection points: 2
#     Edge 8, Type (0, 0), BuildingBlock: FUNLAD_clean_linker_0, # of connection points: 2
#     Edge 9, Type (0, 0), BuildingBlock: FUNLAD_clean_linker_0, # of connection points: 2
#     Edge 10, Type (0, 0), BuildingBlock: FUNLAD_clean_linker_0, # of connection points: 2
#     Edge 11, Type (0, 0), BuildingBlock: FUNLAD_clean_linker_0, # of connection points: 2
#     Edge 12, Type (0, 0), BuildingBlock: FUNLAD_clean_linker_0, # of connection points: 2
#     Edge 13, Type (0, 0), BuildingBlock: FUNLAD_clean_linker_0, # of connection points: 2
#     Edge 14, Type (0, 0), BuildingBlock: FUNLAD_clean_linker_0, # of connection points: 2
#     Edge 15, Type (0, 0), BuildingBlock: FUNLAD_clean_linker_0, # of connection points: 2
#     Edge 16, Type (0, 0), BuildingBlock: FUNLAD_clean_linker_0, # of connection points: 2
#     Edge 17, Type (0, 0), BuildingBlock: FUNLAD_clean_linker_0, # of connection points: 2
# Relax obj value: 0.020
# Max RMSD: 0.247
# Mean RMSD: 0.247
data_MOF--net-unh--node1-NAWXER_clean_sbu_0--edge1-FUNLAD_clean_linker_0
_symmetry_space_group_name_H-M    P1
_symmetry_Int_Tables_number       1
_symmetry_cell_setting            triclinic
loop_
_symmetry_equiv_pos_as_xyz
'x, y, z'
_cell_length_a     52.391135
_cell_length_b     52.443712
_cell_length_c     24.984951
_cell_angle_alpha  90.000139
_cell_angle_beta   89.986129
_cell_angle_gamma 119.99788
loop_
_atom_site_label
_atom_site_type_symbol
_atom_site_fract_x
_atom_site_fract_y
_atom_site_fract_z
_atom_type_partial_charge
C0 C 0.10764 0.56544 0.1775 0.0
C1 C 0.17775 0.62619 0.04187 0.0
O2 O 0.11897 0.59264 0.16735 0.0
Zn3 Zn 0.14258 0.59447 0.1083 0.0
O4 O 0.11503 0.54975 0.14896 0.0
Zn5 Zn 0.14479 0.55852 0.08117 0.0
O6 O 0.17263 0.54829 0.10716 0.0
O7 O 0.17687 0.58814 0.14526 0.0
O8 O 0.1729 0.59966 0.03862 0.0
O9 O 0.16413 0.63241 0.07668 0.0
O10 O 0.11023 0.56858 0.04686 0.0
O11 O 0.11924 0.53289 0.02729 0.0
C12 C 0.18566 0.56935 0.14 0.0
C13 C 0.10413 0.54534 0.01989 0.0
C14 C 0.5636 0.18118 0.20887 0.0
C15 C 0.54402 0.10254 0.33331 0.0
O16 O 0.54249 0.16767 0.24155 0.0
Zn17 Zn 0.55416 0.14104 0.26864 0.0
O18 O 0.58293 0.17308 0.20382 0.0
Zn19 Zn 0.59046 0.13952 0.23986 0.0
O20 O 0.58761 0.11549 0.18006 0.0
O21 O 0.54471 0.11057 0.20276 0.0
O22 O 0.56661 0.10841 0.30437 0.0
O23 O 0.53053 0.11663 0.32546 0.0
O24 O 0.59587 0.1708 0.30747 0.0
O25 O 0.62909 0.16279 0.269 0.0
C26 C 0.56008 0.10357 0.17252 0.0
C27 C 0.62271 0.1767 0.30302 0.0
C28 C 0.47342 0.56926 0.32917 0.0
C29 C 0.46309 0.63445 0.45332 0.0
O30 O 0.4886 0.59694 0.33492 0.0
Zn31 Zn 0.4669 0.60093 0.39178 0.0
O32 O 0.45065 0.5544 0.35892 0.0
Zn33 Zn 0.42972 0.56526 0.42384 0.0
O34 O 0.39096 0.55299 0.39812 0.0
O35 O 0.42542 0.59157 0.35501 0.0
O36 O 0.44228 0.60775 0.46011 0.0
O37 O 0.48239 0.64011 0.41758 0.0
O38 O 0.47531 0.57924 0.45798 0.0
O39 O 0.43179 0.54314 0.48284 0.0
C40 C 0.39808 0.57256 0.36237 0.0
C41 C 0.45954 0.55736 0.48895 0.0
C42 C 0.82847 0.43741 0.63509 0.0
C43 C 0.90741 0.45233 0.51424 0.0
O44 O 0.84184 0.45719 0.59999 0.0
Zn45 Zn 0.86871 0.44483 0.577 0.0
O46 O 0.83673 0.41848 0.64398 0.0
Zn47 Zn 0.87028 0.40972 0.61174 0.0
O48 O 0.89517 0.41501 0.67128 0.0
O49 O 0.89919 0.45676 0.64382 0.0
O50 O 0.90115 0.43088 0.54639 0.0
O51 O 0.89358 0.46635 0.51825 0.0
O52 O 0.83919 0.40171 0.54232 0.0
O53 O 0.8473 0.37018 0.587 0.0
C54 C 0.90692 0.44269 0.67593 0.0
C55 C 0.83353 0.37519 0.55054 0.0
C56 C 0.38773 0.82825 0.79982 0.0
C57 C 0.45319 0.90664 0.67959 0.0
O58 O 0.38177 0.84259 0.76604 0.0
Zn59 Zn 0.42127 0.86839 0.74224 0.0
O60 O 0.41472 0.83532 0.80749 0.0
Zn61 Zn 0.45736 0.86769 0.7754 0.0
O62 O 0.47738 0.89101 0.83679 0.0
O63 O 0.44137 0.89803 0.80932 0.0
O64 O 0.468 0.89938 0.71085 0.0
O65 O 0.42541 0.89392 0.68453 0.0
O66 O 0.43251 0.83769 0.70567 0.0
O67 O 0.47171 0.84303 0.74844 0.0
C68 C 0.46256 0.90396 0.84193 0.0
C69 C 0.45228 0.83033 0.71244 0.0
C70 C 0.54502 0.44247 0.82496 0.0
C71 C 0.55768 0.38078 0.95379 0.0
O72 O 0.53114 0.41479 0.83114 0.0
Zn73 Zn 0.55267 0.41287 0.89076 0.0
O74 O 0.56675 0.45844 0.85613 0.0
Zn75 Zn 0.58809 0.4497 0.92293 0.0
O76 O 0.6274 0.46477 0.89859 0.0
O77 O 0.59559 0.42419 0.85678 0.0
O78 O 0.57762 0.40785 0.96075 0.0
O79 O 0.53857 0.37427 0.91739 0.0
O80 O 0.54166 0.43398 0.95522 0.0
O81 O 0.58427 0.47164 0.97961 0.0
C82 C 0.62226 0.44502 0.86419 0.0
C83 C 0.55656 0.45659 0.98523 0.0
C84 C 0.06568 0.5481 0.9635 0.0
C85 C 0.07913 0.53227 0.98181 0.0
C86 C 0.0419 0.53512 0.92768 0.0
C87 C 0.03099 0.50595 0.91017 0.0
C88 C 0.04427 0.49019 0.92907 0.0
C89 C 0.06819 0.50323 0.96396 0.0
C90 C 0.00534 0.49059 0.87367 0.0
C91 C 0.99831 0.50411 0.83528 0.0
C92 C 0.97429 0.48778 0.79545 0.0
C93 C 0.96306 0.50299 0.76643 0.0
C94 C 0.94107 0.48848 0.72772 0.0
C95 C 0.92985 0.4584 0.71722 0.0
H96 H 0.97191 0.44521 0.80342 0.0
C97 C 0.94121 0.44326 0.74594 0.0
C98 C 0.96326 0.45774 0.78412 0.0
H99 H 0.93343 0.42019 0.73832 0.0
H100 H 0.07356 0.57048 0.97674 0.0
H101 H 0.03176 0.54769 0.91479 0.0
H102 H 0.03622 0.46766 0.91646 0.0
H103 H 0.07785 0.4903 0.97754 0.0
H104 H 0.99272 0.46684 0.87756 0.0
H105 H 0.0109 0.52794 0.83201 0.0
H106 H 0.97133 0.52619 0.7737 0.0
H107 H 0.93288 0.50083 0.70609 0.0
C108 C 0.46446 0.94918 0.87952 0.0
C109 C 0.46963 0.9255 0.88552 0.0
C110 C 0.47225 0.97009 0.92031 0.0
C111 C 0.48466 0.96723 0.96824 0.0
C112 C 0.4889 0.94305 0.97484 0.0
C113 C 0.4819 0.92263 0.93356 0.0
C114 C 0.49353 0.98919 0.01185 0.0
C115 C 0.50812 0.01831 1.00213 0.0
C116 C 0.52057 0.04029 0.04582 0.0
C117 C 0.5492 0.0643 0.04041 0.0
C118 C 0.56203 0.08474 0.08183 0.0
C119 C 0.54609 0.08208 0.12873 0.0
H120 H 0.48217 0.01949 0.09735 0.0
C121 C 0.51703 0.0586 0.13346 0.0
C122 C 0.50448 0.03762 0.09259 0.0
H123 H 0.50427 0.05609 0.16922 0.0
H124 H 0.45498 0.95186 0.84291 0.0
H125 H 0.46835 0.98834 0.91456 0.0
H126 H 0.4983 0.94033 0.01155 0.0
H127 H 0.48587 0.90443 0.93942 0.0
H128 H 0.49078 0.98136 0.05291 0.0
H129 H 0.51382 0.02615 0.96118 0.0
H130 H 0.56193 0.06686 0.00459 0.0
H131 H 0.58439 0.10278 0.07698 0.0
C132 C 0.46454 0.52533 0.27374 0.0
C133 C 0.48321 0.55456 0.29037 0.0
C134 C 0.4747 0.51185 0.2376 0.0
C135 C 0.50383 0.52735 0.21828 0.0
C136 C 0.52238 0.55636 0.23541 0.0
C137 C 0.51216 0.5699 0.27049 0.0
C138 C 0.51644 0.51423 0.18164 0.0
C139 C 0.50095 0.49372 0.1442 0.0
C140 C 0.5154 0.48418 0.10366 0.0
C141 C 0.499 0.45679 0.07802 0.0
C142 C 0.51214 0.44761 0.03935 0.0
C143 C 0.54196 0.46573 0.02555 0.0
H144 H 0.55823 0.52439 0.10497 0.0
C145 C 0.55813 0.4933 0.05051 0.0
C146 C 0.54503 0.50253 0.08855 0.0
H147 H 0.58099 0.5081 0.04017 0.0
H148 H 0.44216 0.51292 0.28858 0.0
H149 H 0.46 0.48924 0.22595 0.0
H150 H 0.54494 0.56876 0.22134 0.0
H151 H 0.52724 0.59234 0.28274 0.0
H152 H 0.54011 0.52337 0.18418 0.0
H153 H 0.47718 0.48407 0.14223 0.0
H154 H 0.47604 0.44239 0.08816 0.0
H155 H 0.49903 0.42631 0.02057 0.0
C156 C 0.9365 0.4837 0.43682 0.0
C157 C 0.93073 0.46098 0.47315 0.0
C158 C 0.9589 0.49256 0.39882 0.0
C159 C 0.97637 0.47913 0.39653 0.0
C160 C 0.97006 0.45584 0.43176 0.0
C161 C 0.94756 0.44691 0.46987 0.0
C162 C 1.00095 0.48877 0.35739 0.0
C163 C 0.01621 0.51671 0.33933 0.0
C164 C 0.0407 0.52791 0.29969 0.0
C165 C 0.05801 0.55851 0.29315 0.0
C166 C 0.08007 0.5705 0.25437 0.0
C167 C 0.08545 0.55221 0.22081 0.0
H168 H 0.03324 0.48575 0.26963 0.0
C169 C 0.06861 0.52154 0.22781 0.0
C170 C 0.04635 0.50945 0.26674 0.0
H171 H 0.07212 0.50684 0.20236 0.0
H172 H 0.9237 0.49474 0.43763 0.0
H173 H 0.9622 0.50977 0.37101 0.0
H174 H 0.9829 0.44484 0.43043 0.0
H175 H 0.94355 0.42919 0.49701 0.0
H176 H 0.00731 0.47282 0.34554 0.0
H177 H 0.01106 0.53283 0.35553 0.0
H178 H 0.05423 0.57333 0.31775 0.0
H179 H 0.09265 0.59423 0.25031 0.0
C180 C 0.54668 0.06235 0.38408 0.0
C181 C 0.53341 0.07962 0.37556 0.0
C182 C 0.53587 0.04041 0.42364 0.0
C183 C 0.51164 0.03548 0.45564 0.0
C184 C 0.49863 0.0529 0.44704 0.0
C185 C 0.50935 0.07467 0.40772 0.0
C186 C 0.49811 0.01178 0.49669 0.0
C187 C 0.51079 0.99705 0.51742 0.0
C188 C 0.49575 0.97341 0.55827 0.0
C189 C 0.51266 0.96752 0.59454 0.0
C190 C 0.49899 0.94581 0.634 0.0
C191 C 0.46808 0.92943 0.63771 0.0
H192 H 0.45091 0.95923 0.53266 0.0
C193 C 0.45121 0.93484 0.60055 0.0
C194 C 0.46482 0.95636 0.56115 0.0
H195 H 0.42736 0.92231 0.6016 0.0
H196 H 0.56518 0.06554 0.35981 0.0
H197 H 0.54621 0.02712 0.42805 0.0
H198 H 0.47989 0.0496 0.47076 0.0
H199 H 0.49855 0.08752 0.40244 0.0
H200 H 0.47675 0.007 0.5119 0.0
H201 H 0.53318 0.00321 0.50642 0.0
H202 H 0.53651 0.98004 0.59285 0.0
H203 H 0.51263 0.94204 0.66177 0.0
C204 C 0.54816 0.48658 0.7785 0.0
C205 C 0.53543 0.45587 0.78304 0.0
C206 C 0.53776 0.49879 0.74031 0.0
C207 C 0.5145 0.48043 0.70567 0.0
C208 C 0.50215 0.44982 0.71004 0.0
C209 C 0.51247 0.43769 0.74805 0.0
C210 C 0.5013 0.49178 0.66623 0.0
C211 C 0.51411 0.51984 0.64882 0.0
C212 C 0.49972 0.52975 0.60905 0.0
C213 C 0.51726 0.55353 0.57512 0.0
C214 C 0.50431 0.56273 0.53631 0.0
C215 C 0.47348 0.54844 0.53098 0.0
H216 H 0.45449 0.49848 0.6315 0.0
C217 C 0.45593 0.52523 0.56602 0.0
C218 C 0.46885 0.51609 0.60475 0.0
H219 H 0.4321 0.51401 0.5636 0.0
H220 H 0.56578 0.50118 0.8051 0.0
H221 H 0.54753 0.52246 0.7392 0.0
H222 H 0.48417 0.4351 0.68414 0.0
H223 H 0.50213 0.41394 0.75029 0.0
H224 H 0.48022 0.47567 0.64926 0.0
H225 H 0.5363 0.53571 0.66151 0.0
H226 H 0.54108 0.5647 0.57799 0.0
H227 H 0.51847 0.58082 0.51019 0.0
C228 C 0.2259 0.5576 0.15348 0.0
C229 C 0.21115 0.57232 0.17075 0.0
C230 C 0.2499 0.56002 0.18212 0.0
C231 C 0.25953 0.57702 0.22905 0.0
C232 C 0.24462 0.5915 0.2467 0.0
C233 C 0.22088 0.58951 0.21744 0.0
C234 C 0.28388 0.57846 0.26169 0.0
C235 C 0.30707 0.5778 0.23985 0.0
C236 C 0.33038 0.5771 0.27247 0.0
C237 C 0.35939 0.59062 0.253 0.0
C238 C 0.38154 0.58944 0.28232 0.0
C239 C 0.37487 0.57399 0.33099 0.0
H240 H 0.30143 0.55039 0.33669 0.0
C241 C 0.34571 0.56005 0.35001 0.0
C242 C 0.32373 0.56172 0.32125 0.0
H243 H 0.33987 0.54798 0.38741 0.0
H244 H 0.21895 0.54416 0.11766 0.0
H245 H 0.26037 0.54794 0.16815 0.0
H246 H 0.25144 0.60448 0.28308 0.0
H247 H 0.20985 0.60098 0.23187 0.0
H248 H 0.28297 0.58079 0.30476 0.0
H249 H 0.30954 0.57856 0.19659 0.0
H250 H 0.36497 0.60231 0.21519 0.0
H251 H 0.40378 0.60029 0.26655 0.0
C252 C 0.67565 0.2069 0.33028 0.0
C253 C 0.64632 0.20058 0.3351 0.0
C254 C 0.69827 0.2305 0.35802 0.0
C255 C 0.69205 0.24829 0.39154 0.0
C256 C 0.66274 0.24194 0.39641 0.0
C257 C 0.64008 0.21826 0.36875 0.0
C258 C 0.71565 0.27427 0.4201 0.0
C259 C 0.74162 0.27667 0.43389 0.0
C260 C 0.76512 0.30248 0.46283 0.0
C261 C 0.78474 0.29852 0.49519 0.0
C262 C 0.80705 0.32216 0.52335 0.0
C263 C 0.81053 0.35046 0.51909 0.0
H264 H 0.75474 0.33497 0.43186 0.0
C265 C 0.79137 0.35463 0.4856 0.0
C266 C 0.76886 0.33089 0.45776 0.0
H267 H 0.79357 0.37619 0.48124 0.0
H268 H 0.68127 0.1939 0.30431 0.0
H269 H 0.72063 0.23515 0.35182 0.0
H270 H 0.65735 0.2554 0.42162 0.0
H271 H 0.61776 0.21413 0.37311 0.0
H272 H 0.71083 0.29131 0.43221 0.0
H273 H 0.74534 0.25837 0.42655 0.0
H274 H 0.78256 0.27695 0.49932 0.0
H275 H 0.82154 0.31821 0.54855 0.0
C276 C 0.47367 0.79875 0.68626 0.0
C277 C 0.45159 0.80631 0.68021 0.0
C278 C 0.47233 0.77522 0.65762 0.0
C279 C 0.44889 0.75877 0.62208 0.0
C280 C 0.4268 0.76626 0.61624 0.0
C281 C 0.4282 0.78988 0.64469 0.0
C282 C 0.44627 0.73314 0.59199 0.0
C283 C 0.46972 0.73055 0.57816 0.0
C284 C 0.46728 0.70537 0.54683 0.0
C285 C 0.49108 0.70984 0.51457 0.0
C286 C 0.48967 0.68681 0.48428 0.0
C287 C 0.46456 0.65859 0.48627 0.0
H288 H 0.42382 0.67256 0.57513 0.0
C289 C 0.44095 0.65388 0.5195 0.0
C290 C 0.44225 0.67705 0.54946 0.0
H291 H 0.42136 0.63235 0.52214 0.0
H292 H 0.49185 0.81077 0.71366 0.0
H293 H 0.48932 0.76962 0.66449 0.0
H294 H 0.40839 0.75383 0.58946 0.0
H295 H 0.41071 0.79497 0.63936 0.0
H296 H 0.42445 0.71673 0.57837 0.0
H297 H 0.49179 0.74837 0.58711 0.0
H298 H 0.51072 0.73136 0.51224 0.0
H299 H 0.50835 0.69115 0.45939 0.0
C300 C 0.64357 0.42173 0.80439 0.0
C301 C 0.64709 0.4461 0.83395 0.0
C302 C 0.66763 0.4228 0.77773 0.0
C303 C 0.69562 0.44836 0.77996 0.0
C304 C 0.69886 0.47283 0.80848 0.0
C305 C 0.67499 0.47166 0.8355 0.0
C306 C 0.72177 0.45086 0.75184 0.0
C307 C 0.72552 0.42775 0.74118 0.0
C308 C 0.75238 0.431 0.71445 0.0
C309 C 0.76092 0.40992 0.72391 0.0
C310 C 0.78593 0.41222 0.69901 0.0
C311 C 0.80277 0.43553 0.6636 0.0
H312 H 0.76285 0.47041 0.66898 0.0
C313 C 0.79409 0.4565 0.65384 0.0
C314 C 0.76917 0.45424 0.67878 0.0
H315 H 0.80634 0.47457 0.62635 0.0
H316 H 0.62232 0.40176 0.80228 0.0
H317 H 0.66411 0.40377 0.75489 0.0
H318 H 0.72006 0.49288 0.81043 0.0
H319 H 0.67847 0.49092 0.85758 0.0
H320 H 0.73943 0.47297 0.74269 0.0
H321 H 0.70922 0.40595 0.755 0.0
H322 H 0.74827 0.39166 0.75083 0.0
H323 H 0.79186 0.39555 0.7071 0.0
C324 C 0.33407 0.79422 0.8181 0.0
C325 C 0.36367 0.80274 0.82818 0.0
C326 C 0.31128 0.76944 0.8431 0.0
C327 C 0.31758 0.7527 0.87918 0.0
C328 C 0.34715 0.7611 0.88891 0.0
C329 C 0.36997 0.7859 0.86391 0.0
C330 C 0.29396 0.72611 0.90647 0.0
C331 C 0.26687 0.72208 0.91603 0.0
C332 C 0.24378 0.69658 0.9463 0.0
C333 C 0.22261 0.70018 0.97434 0.0
C334 C 0.20099 0.67717 0.00466 0.0
C335 C 0.19972 0.64978 0.00699 0.0
H336 H 0.25757 0.66509 0.92499 0.0
C337 C 0.22026 0.64574 0.97743 0.0
C338 C 0.24215 0.66895 0.94742 0.0
H339 H 0.21976 0.62484 0.97821 0.0
H340 H 0.32842 0.80647 0.7903 0.0
H341 H 0.28882 0.76323 0.83307 0.0
H342 H 0.35266 0.7485 0.91618 0.0
H343 H 0.39252 0.79171 0.87229 0.0
H344 H 0.29978 0.71037 0.92216 0.0
H345 H 0.26196 0.73919 0.90496 0.0
H346 H 0.22313 0.7211 0.97371 0.0
H347 H 0.18535 0.68096 0.02661 0.0
C348 C 0.58076 0.36191 0.01952 0.0
C349 C 0.55679 0.35701 0.98714 0.0
C350 C 0.57981 0.33881 0.04937 0.0
C351 C 0.55474 0.31047 0.04752 0.0
C352 C 0.53066 0.30588 0.01605 0.0
C353 C 0.53173 0.32875 0.9859 0.0
C354 C 0.55226 0.2853 0.07898 0.0
C355 C 0.57548 0.28251 0.09369 0.0
C356 C 0.57201 0.25637 0.12333 0.0
C357 C 0.59337 0.24786 0.11745 0.0
C358 C 0.59053 0.2232 0.14456 0.0
C359 C 0.56638 0.20673 0.17859 0.0
H360 H 0.53165 0.24647 0.16507 0.0
C361 C 0.54523 0.21552 0.18501 0.0
C362 C 0.54805 0.24008 0.15794 0.0
H363 H 0.52654 0.20359 0.21143 0.0
H364 H 0.60034 0.38347 0.02143 0.0
H365 H 0.5985 0.34335 0.07433 0.0
H366 H 0.51098 0.28436 0.01429 0.0
H367 H 0.51277 0.32424 0.96169 0.0
H368 H 0.5301 0.26744 0.08721 0.0
H369 H 0.59751 0.29889 0.08096 0.0
H370 H 0.61219 0.26017 0.09144 0.0
H371 H 0.60736 0.21718 0.13908 0.0
loop_
_geom_bond_atom_site_label_1
_geom_bond_atom_site_label_2
_geom_bond_distance
_geom_bond_site_symmetry_2
_ccdc_geom_bond_type
C0 O2 1.247 . S
C0 O4 1.258 . S
C1 O8 1.247 . S
C1 O9 1.258 . S
O2 C0 1.247 . S
O2 Zn3 2.028 . S
Zn3 O2 2.028 . S
Zn3 O7 2.035 . S
Zn3 O9 2.035 . S
Zn3 O10 2.028 . S
O4 C0 1.258 . S
O4 Zn5 2.035 . S
Zn5 O4 2.035 . S
Zn5 O6 2.028 . S
Zn5 O8 2.028 . S
Zn5 O11 2.035 . S
O6 Zn5 2.028 . S
O6 C12 1.247 . S
O7 Zn3 2.035 . S
O7 C12 1.258 . S
O8 C1 1.247 . S
O8 Zn5 2.028 . S
O9 C1 1.258 . S
O9 Zn3 2.035 . S
O10 Zn3 2.028 . S
O10 C13 1.247 . S
O11 Zn5 2.035 . S
O11 C13 1.258 . S
C12 O6 1.247 . S
C12 O7 1.258 . S
C13 O10 1.247 . S
C13 O11 1.258 . S
C14 O16 1.247 . S
C14 O18 1.258 . S
C15 O22 1.247 . S
C15 O23 1.258 . S
O16 C14 1.247 . S
O16 Zn17 2.028 . S
Zn17 O16 2.028 . S
Zn17 O21 2.035 . S
Zn17 O23 2.035 . S
Zn17 O24 2.028 . S
O18 C14 1.258 . S
O18 Zn19 2.035 . S
Zn19 O18 2.035 . S
Zn19 O20 2.028 . S
Zn19 O22 2.028 . S
Zn19 O25 2.035 . S
O20 Zn19 2.028 . S
O20 C26 1.247 . S
O21 Zn17 2.035 . S
O21 C26 1.258 . S
O22 C15 1.247 . S
O22 Zn19 2.028 . S
O23 C15 1.258 . S
O23 Zn17 2.035 . S
O24 Zn17 2.028 . S
O24 C27 1.247 . S
O25 Zn19 2.035 . S
O25 C27 1.258 . S
C26 O20 1.247 . S
C26 O21 1.258 . S
C27 O24 1.247 . S
C27 O25 1.258 . S
C28 O30 1.247 . S
C28 O32 1.258 . S
C29 O36 1.247 . S
C29 O37 1.258 . S
O30 C28 1.247 . S
O30 Zn31 2.028 . S
Zn31 O30 2.028 . S
Zn31 O35 2.035 . S
Zn31 O37 2.035 . S
Zn31 O38 2.028 . S
O32 C28 1.258 . S
O32 Zn33 2.035 . S
Zn33 O32 2.035 . S
Zn33 O34 2.028 . S
Zn33 O36 2.028 . S
Zn33 O39 2.035 . S
O34 Zn33 2.028 . S
O34 C40 1.247 . S
O35 Zn31 2.035 . S
O35 C40 1.258 . S
O36 C29 1.247 . S
O36 Zn33 2.028 . S
O37 C29 1.258 . S
O37 Zn31 2.035 . S
O38 Zn31 2.028 . S
O38 C41 1.247 . S
O39 Zn33 2.035 . S
O39 C41 1.258 . S
C40 O34 1.247 . S
C40 O35 1.258 . S
C41 O38 1.247 . S
C41 O39 1.258 . S
C42 O44 1.247 . S
C42 O46 1.258 . S
C43 O50 1.247 . S
C43 O51 1.258 . S
O44 C42 1.247 . S
O44 Zn45 2.028 . S
Zn45 O44 2.028 . S
Zn45 O49 2.035 . S
Zn45 O51 2.035 . S
Zn45 O52 2.028 . S
O46 C42 1.258 . S
O46 Zn47 2.035 . S
Zn47 O46 2.035 . S
Zn47 O48 2.028 . S
Zn47 O50 2.028 . S
Zn47 O53 2.035 . S
O48 Zn47 2.028 . S
O48 C54 1.247 . S
O49 Zn45 2.035 . S
O49 C54 1.258 . S
O50 C43 1.247 . S
O50 Zn47 2.028 . S
O51 C43 1.258 . S
O51 Zn45 2.035 . S
O52 Zn45 2.028 . S
O52 C55 1.247 . S
O53 Zn47 2.035 . S
O53 C55 1.258 . S
C54 O48 1.247 . S
C54 O49 1.258 . S
C55 O52 1.247 . S
C55 O53 1.258 . S
C56 O58 1.247 . S
C56 O60 1.258 . S
C57 O64 1.247 . S
C57 O65 1.258 . S
O58 C56 1.247 . S
O58 Zn59 2.028 . S
Zn59 O58 2.028 . S
Zn59 O63 2.035 . S
Zn59 O65 2.035 . S
Zn59 O66 2.028 . S
O60 C56 1.258 . S
O60 Zn61 2.035 . S
Zn61 O60 2.035 . S
Zn61 O62 2.028 . S
Zn61 O64 2.028 . S
Zn61 O67 2.035 . S
O62 Zn61 2.028 . S
O62 C68 1.247 . S
O63 Zn59 2.035 . S
O63 C68 1.258 . S
O64 C57 1.247 . S
O64 Zn61 2.028 . S
O65 C57 1.258 . S
O65 Zn59 2.035 . S
O66 Zn59 2.028 . S
O66 C69 1.247 . S
O67 Zn61 2.035 . S
O67 C69 1.258 . S
C68 O62 1.247 . S
C68 O63 1.258 . S
C69 O66 1.247 . S
C69 O67 1.258 . S
C70 O72 1.247 . S
C70 O74 1.258 . S
C71 O78 1.247 . S
C71 O79 1.258 . S
O72 C70 1.247 . S
O72 Zn73 2.028 . S
Zn73 O72 2.028 . S
Zn73 O77 2.035 . S
Zn73 O79 2.035 . S
Zn73 O80 2.028 . S
O74 C70 1.258 . S
O74 Zn75 2.035 . S
Zn75 O74 2.035 . S
Zn75 O76 2.028 . S
Zn75 O78 2.028 . S
Zn75 O81 2.035 . S
O76 Zn75 2.028 . S
O76 C82 1.247 . S
O77 Zn73 2.035 . S
O77 C82 1.258 . S
O78 C71 1.247 . S
O78 Zn75 2.028 . S
O79 C71 1.258 . S
O79 Zn73 2.035 . S
O80 Zn73 2.028 . S
O80 C83 1.247 . S
O81 Zn75 2.035 . S
O81 C83 1.258 . S
C82 O76 1.247 . S
C82 O77 1.258 . S
C83 O80 1.247 . S
C83 O81 1.258 . S
C84 C85 1.386 . S
C84 C86 1.383 . S
C84 H100 0.951 . S
C85 C84 1.386 . S
C85 C89 1.383 . S
C86 C84 1.383 . S
C86 C87 1.402 . S
C86 H101 0.951 . S
C87 C86 1.402 . S
C87 C88 1.375 . S
C87 C90 1.481 . S
C88 C87 1.375 . S
C88 C89 1.367 . S
C88 H102 0.951 . S
C89 C85 1.383 . S
C89 C88 1.367 . S
C89 H103 0.950 1_556 S
C90 C87 1.481 . S
C90 C91 1.297 . S
C90 H104 0.950 1_455 S
C91 C90 1.297 . S
C91 C92 1.479 1_455 S
C91 H105 0.950 . S
C92 C91 1.479 1_655 S
C92 C93 1.375 . S
C92 C98 1.404 . S
C93 C92 1.375 . S
C93 C94 1.369 . S
C93 H106 0.929 1_655 S
C94 C93 1.369 . S
C94 C95 1.392 . S
C94 H107 0.951 . S
C95 C94 1.392 . S
C95 C97 1.384 . S
H96 C98 0.949 . S
C97 C95 1.384 . S
C97 C98 1.385 . S
C97 H99 0.950 . S
C98 C92 1.404 . S
C98 H96 0.949 . S
C98 C97 1.385 . S
H99 C97 0.950 . S
H100 C84 0.951 . S
H101 C86 0.951 . S
H102 C88 0.951 . S
H103 C89 0.950 1_554 S
H104 C90 0.950 1_655 S
H105 C91 0.950 . S
H106 C93 0.929 1_455 S
H107 C94 0.951 . S
C108 C109 1.386 . S
C108 C110 1.383 . S
C108 H124 0.951 . S
C109 C108 1.386 . S
C109 C113 1.383 . S
C110 C108 1.383 . S
C110 C111 1.402 . S
C110 H125 0.951 . S
C111 C110 1.402 . S
C111 C112 1.375 . S
C111 C114 1.481 1_556 S
C112 C111 1.375 . S
C112 C113 1.367 . S
C112 H126 0.951 . S
C113 C109 1.383 . S
C113 C112 1.367 . S
C113 H127 0.950 . S
C114 C111 1.481 1_554 S
C114 C115 1.297 1_565 S
C114 H128 0.950 . S
C115 C114 1.297 1_545 S
C115 C116 1.479 . S
C115 H129 0.950 1_554 S
C116 C115 1.479 . S
C116 C117 1.375 . S
C116 C122 1.404 . S
C117 C116 1.375 . S
C117 C118 1.369 . S
C117 H130 0.950 . S
C118 C117 1.369 . S
C118 C119 1.392 . S
C118 H131 0.951 . S
C119 C118 1.392 . S
C119 C121 1.384 . S
H120 C122 0.949 . S
C121 C119 1.384 . S
C121 C122 1.385 . S
C121 H123 0.950 . S
C122 C116 1.404 . S
C122 H120 0.949 . S
C122 C121 1.385 . S
H123 C121 0.950 . S
H124 C108 0.951 . S
H125 C110 0.951 . S
H126 C112 0.951 . S
H127 C113 0.950 . S
H128 C114 0.950 . S
H129 C115 0.950 1_556 S
H130 C117 0.950 . S
H131 C118 0.951 . S
C132 C133 1.386 . S
C132 C134 1.383 . S
C132 H148 0.951 . S
C133 C132 1.386 . S
C133 C137 1.383 . S
C134 C132 1.383 . S
C134 C135 1.402 . S
C134 H149 0.951 . S
C135 C134 1.402 . S
C135 C136 1.375 . S
C135 C138 1.481 . S
C136 C135 1.375 . S
C136 C137 1.367 . S
C136 H150 0.951 . S
C137 C133 1.383 . S
C137 C136 1.367 . S
C137 H151 0.950 . S
C138 C135 1.481 . S
C138 C139 1.297 . S
C138 H152 0.950 . S
C139 C138 1.297 . S
C139 C140 1.479 . S
C139 H153 0.950 . S
C140 C139 1.479 . S
C140 C141 1.375 . S
C140 C146 1.404 . S
C141 C140 1.375 . S
C141 C142 1.369 . S
C141 H154 0.950 . S
C142 C141 1.369 . S
C142 C143 1.392 . S
C142 H155 0.951 . S
C143 C142 1.392 . S
C143 C145 1.384 . S
H144 C146 0.949 . S
C145 C143 1.384 . S
C145 C146 1.385 . S
C145 H147 0.950 . S
C146 C140 1.404 . S
C146 H144 0.949 . S
C146 C145 1.385 . S
H147 C145 0.950 . S
H148 C132 0.951 . S
H149 C134 0.951 . S
H150 C136 0.951 . S
H151 C137 0.950 . S
H152 C138 0.950 . S
H153 C139 0.950 . S
H154 C141 0.950 . S
H155 C142 0.951 . S
C156 C157 1.386 . S
C156 C158 1.383 . S
C156 H172 0.951 . S
C157 C156 1.386 . S
C157 C161 1.383 . S
C158 C156 1.383 . S
C158 C159 1.402 . S
C158 H173 0.951 . S
C159 C158 1.402 . S
C159 C160 1.375 . S
C159 C162 1.481 1_655 S
C160 C159 1.375 . S
C160 C161 1.367 . S
C160 H174 0.951 . S
C161 C157 1.383 . S
C161 C160 1.367 . S
C161 H175 0.950 . S
C162 C159 1.481 1_455 S
C162 C163 1.297 . S
C162 H176 0.950 . S
C163 C162 1.297 . S
C163 C164 1.479 . S
C163 H177 0.950 . S
C164 C163 1.479 . S
C164 C165 1.375 . S
C164 C170 1.404 . S
C165 C164 1.375 . S
C165 C166 1.369 . S
C165 H178 0.950 . S
C166 C165 1.369 . S
C166 C167 1.392 . S
C166 H179 0.951 . S
C167 C166 1.392 . S
C167 C169 1.384 . S
H168 C170 0.949 . S
C169 C167 1.384 . S
C169 C170 1.385 . S
C169 H171 0.950 . S
C170 C164 1.404 . S
C170 H168 0.949 . S
C170 C169 1.385 . S
H171 C169 0.950 . S
H172 C156 0.951 . S
H173 C158 0.951 . S
H174 C160 0.951 . S
H175 C161 0.950 . S
H176 C162 0.950 . S
H177 C163 0.950 . S
H178 C165 0.950 . S
H179 C166 0.951 . S
C180 C181 1.386 . S
C180 C182 1.383 . S
C180 H196 0.951 . S
C181 C180 1.386 . S
C181 C185 1.383 . S
C182 C180 1.383 . S
C182 C183 1.402 . S
C182 H197 0.951 . S
C183 C182 1.402 . S
C183 C184 1.375 . S
C183 C186 1.481 . S
C184 C183 1.375 . S
C184 C185 1.367 . S
C184 H198 0.951 . S
C185 C181 1.383 . S
C185 C184 1.367 . S
C185 H199 0.950 . S
C186 C183 1.481 . S
C186 C187 1.297 1_545 S
C186 H200 0.950 . S
C187 C186 1.297 1_565 S
C187 C188 1.479 . S
C187 H201 0.950 . S
C188 C187 1.479 . S
C188 C189 1.375 . S
C188 C194 1.404 . S
C189 C188 1.375 . S
C189 C190 1.369 . S
C189 H202 0.950 . S
C190 C189 1.369 . S
C190 C191 1.392 . S
C190 H203 0.951 . S
C191 C190 1.392 . S
C191 C193 1.384 . S
H192 C194 0.976 . S
C193 C191 1.384 . S
C193 C194 1.385 . S
C193 H195 0.950 . S
C194 C188 1.404 . S
C194 H192 0.976 . S
C194 C193 1.385 . S
H195 C193 0.950 . S
H196 C180 0.951 . S
H197 C182 0.951 . S
H198 C184 0.951 . S
H199 C185 0.950 . S
H200 C186 0.950 . S
H201 C187 0.950 . S
H202 C189 0.950 . S
H203 C190 0.951 . S
C204 C205 1.386 . S
C204 C206 1.383 . S
C204 H220 0.951 . S
C205 C204 1.386 . S
C205 C209 1.383 . S
C206 C204 1.383 . S
C206 C207 1.402 . S
C206 H221 0.951 . S
C207 C206 1.402 . S
C207 C208 1.375 . S
C207 C210 1.481 . S
C208 C207 1.375 . S
C208 C209 1.367 . S
C208 H222 0.951 . S
C209 C205 1.383 . S
C209 C208 1.367 . S
C209 H223 0.950 . S
C210 C207 1.481 . S
C210 C211 1.297 . S
C210 H224 0.950 . S
C211 C210 1.297 . S
C211 C212 1.479 . S
C211 H225 0.950 . S
C212 C211 1.479 . S
C212 C213 1.375 . S
C212 C218 1.404 . S
C213 C212 1.375 . S
C213 C214 1.369 . S
C213 H226 0.950 . S
C214 C213 1.369 . S
C214 C215 1.392 . S
C214 H227 0.951 . S
C215 C214 1.392 . S
C215 C217 1.384 . S
H216 C218 0.949 . S
C217 C215 1.384 . S
C217 C218 1.385 . S
C217 H219 0.950 . S
C218 C212 1.404 . S
C218 H216 0.949 . S
C218 C217 1.385 . S
H219 C217 0.950 . S
H220 C204 0.951 . S
H221 C206 0.951 . S
H222 C208 0.951 . S
H223 C209 0.950 . S
H224 C210 0.950 . S
H225 C211 0.950 . S
H226 C213 0.950 . S
H227 C214 0.951 . S
C228 C229 1.386 . S
C228 C230 1.383 . S
C228 H244 0.951 . S
C229 C228 1.386 . S
C229 C233 1.383 . S
C230 C228 1.383 . S
C230 C231 1.402 . S
C230 H245 0.951 . S
C231 C230 1.402 . S
C231 C232 1.375 . S
C231 C234 1.481 . S
C232 C231 1.375 . S
C232 C233 1.367 . S
C232 H246 0.951 . S
C233 C229 1.383 . S
C233 C232 1.367 . S
C233 H247 0.950 . S
C234 C231 1.481 . S
C234 C235 1.297 . S
C234 H248 0.950 . S
C235 C234 1.297 . S
C235 C236 1.479 . S
C235 H249 0.950 . S
C236 C235 1.479 . S
C236 C237 1.375 . S
C236 C242 1.404 . S
C237 C236 1.375 . S
C237 C238 1.369 . S
C237 H250 0.950 . S
C238 C237 1.369 . S
C238 C239 1.392 . S
C238 H251 0.951 . S
C239 C238 1.392 . S
C239 C241 1.384 . S
H240 C242 0.949 . S
C241 C239 1.384 . S
C241 C242 1.385 . S
C241 H243 0.950 . S
C242 C236 1.404 . S
C242 H240 0.949 . S
C242 C241 1.385 . S
H243 C241 0.950 . S
H244 C228 0.951 . S
H245 C230 0.951 . S
H246 C232 0.951 . S
H247 C233 0.950 . S
H248 C234 0.950 . S
H249 C235 0.950 . S
H250 C237 0.950 . S
H251 C238 0.951 . S
C252 C253 1.386 . S
C252 C254 1.383 . S
C252 H268 0.951 . S
C253 C252 1.386 . S
C253 C257 1.383 . S
C254 C252 1.383 . S
C254 C255 1.402 . S
C254 H269 0.951 . S
C255 C254 1.402 . S
C255 C256 1.375 . S
C255 C258 1.481 . S
C256 C255 1.375 . S
C256 C257 1.367 . S
C256 H270 0.951 . S
C257 C253 1.383 . S
C257 C256 1.367 . S
C257 H271 0.950 . S
C258 C255 1.481 . S
C258 C259 1.297 . S
C258 H272 0.950 . S
C259 C258 1.297 . S
C259 C260 1.479 . S
C259 H273 0.950 . S
C260 C259 1.479 . S
C260 C261 1.375 . S
C260 C266 1.404 . S
C261 C260 1.375 . S
C261 C262 1.369 . S
C261 H274 0.950 . S
C262 C261 1.369 . S
C262 C263 1.392 . S
C262 H275 0.951 . S
C263 C262 1.392 . S
C263 C265 1.384 . S
H264 C266 0.949 . S
C265 C263 1.384 . S
C265 C266 1.385 . S
C265 H267 0.950 . S
C266 C260 1.404 . S
C266 H264 0.949 . S
C266 C265 1.385 . S
H267 C265 0.950 . S
H268 C252 0.951 . S
H269 C254 0.951 . S
H270 C256 0.951 . S
H271 C257 0.950 . S
H272 C258 0.950 . S
H273 C259 0.950 . S
H274 C261 0.950 . S
H275 C262 0.951 . S
C276 C277 1.386 . S
C276 C278 1.383 . S
C276 H292 0.951 . S
C277 C276 1.386 . S
C277 C281 1.383 . S
C278 C276 1.383 . S
C278 C279 1.402 . S
C278 H293 0.951 . S
C279 C278 1.402 . S
C279 C280 1.375 . S
C279 C282 1.481 . S
C280 C279 1.375 . S
C280 C281 1.367 . S
C280 H294 0.951 . S
C281 C277 1.383 . S
C281 C280 1.367 . S
C281 H295 0.950 . S
C282 C279 1.481 . S
C282 C283 1.297 . S
C282 H296 0.950 . S
C283 C282 1.297 . S
C283 C284 1.479 . S
C283 H297 0.950 . S
C284 C283 1.479 . S
C284 C285 1.375 . S
C284 C290 1.404 . S
C285 C284 1.375 . S
C285 C286 1.369 . S
C285 H298 0.950 . S
C286 C285 1.369 . S
C286 C287 1.392 . S
C286 H299 0.951 . S
C287 C286 1.392 . S
C287 C289 1.384 . S
H288 C290 0.949 . S
C289 C287 1.384 . S
C289 C290 1.385 . S
C289 H291 0.950 . S
C290 C284 1.404 . S
C290 H288 0.949 . S
C290 C289 1.385 . S
H291 C289 0.950 . S
H292 C276 0.951 . S
H293 C278 0.951 . S
H294 C280 0.951 . S
H295 C281 0.950 . S
H296 C282 0.950 . S
H297 C283 0.950 . S
H298 C285 0.950 . S
H299 C286 0.951 . S
C300 C301 1.386 . S
C300 C302 1.383 . S
C300 H316 0.951 . S
C301 C300 1.386 . S
C301 C305 1.383 . S
C302 C300 1.383 . S
C302 C303 1.402 . S
C302 H317 0.951 . S
C303 C302 1.402 . S
C303 C304 1.375 . S
C303 C306 1.481 . S
C304 C303 1.375 . S
C304 C305 1.367 . S
C304 H318 0.951 . S
C305 C301 1.383 . S
C305 C304 1.367 . S
C305 H319 0.950 . S
C306 C303 1.481 . S
C306 C307 1.297 . S
C306 H320 0.950 . S
C307 C306 1.297 . S
C307 C308 1.479 . S
C307 H321 0.950 . S
C308 C307 1.479 . S
C308 C309 1.375 . S
C308 C314 1.404 . S
C309 C308 1.375 . S
C309 C310 1.369 . S
C309 H322 0.950 . S
C310 C309 1.369 . S
C310 C311 1.392 . S
C310 H323 0.951 . S
C311 C310 1.392 . S
C311 C313 1.384 . S
H312 C314 0.949 . S
C313 C311 1.384 . S
C313 C314 1.385 . S
C313 H315 0.950 . S
C314 C308 1.404 . S
C314 H312 0.949 . S
C314 C313 1.385 . S
H315 C313 0.950 . S
H316 C300 0.951 . S
H317 C302 0.951 . S
H318 C304 0.951 . S
H319 C305 0.950 . S
H320 C306 0.950 . S
H321 C307 0.950 . S
H322 C309 0.950 . S
H323 C310 0.951 . S
C324 C325 1.386 . S
C324 C326 1.383 . S
C324 H340 0.951 . S
C325 C324 1.386 . S
C325 C329 1.383 . S
C326 C324 1.383 . S
C326 C327 1.402 . S
C326 H341 0.951 . S
C327 C326 1.402 . S
C327 C328 1.375 . S
C327 C330 1.481 . S
C328 C327 1.375 . S
C328 C329 1.367 . S
C328 H342 0.951 . S
C329 C325 1.383 . S
C329 C328 1.367 . S
C329 H343 0.950 . S
C330 C327 1.481 . S
C330 C331 1.297 . S
C330 H344 0.950 . S
C331 C330 1.297 . S
C331 C332 1.479 . S
C331 H345 0.950 . S
C332 C331 1.479 . S
C332 C333 1.375 . S
C332 C338 1.404 . S
C333 C332 1.375 . S
C333 C334 1.369 . S
C333 H346 0.950 . S
C334 C333 1.369 . S
C334 C335 1.392 . S
C334 H347 0.951 . S
C335 C334 1.392 . S
C335 C337 1.384 . S
H336 C338 0.949 . S
C337 C335 1.384 . S
C337 C338 1.385 . S
C337 H339 0.955 . S
C338 C332 1.404 . S
C338 H336 0.949 . S
C338 C337 1.385 . S
H339 C337 0.955 . S
H340 C324 0.951 . S
H341 C326 0.951 . S
H342 C328 0.951 . S
H343 C329 0.950 . S
H344 C330 0.950 . S
H345 C331 0.950 . S
H346 C333 0.950 . S
H347 C334 0.951 . S
C348 C349 1.390 . S
C348 C350 1.391 . S
C348 H364 0.938 1_554 S
C349 C348 1.390 . S
C349 C353 1.383 . S
C350 C348 1.391 . S
C350 C351 1.402 . S
C350 H365 0.951 . S
C351 C350 1.402 . S
C351 C352 1.375 . S
C351 C354 1.481 . S
C352 C351 1.375 . S
C352 C353 1.367 . S
C352 H366 0.951 . S
C353 C349 1.383 . S
C353 C352 1.367 . S
C353 H367 0.950 . S
C354 C351 1.481 . S
C354 C355 1.297 . S
C354 H368 0.950 . S
C355 C354 1.297 . S
C355 C356 1.479 . S
C355 H369 0.950 . S
C356 C355 1.479 . S
C356 C357 1.375 . S
C356 C362 1.404 . S
C357 C356 1.375 . S
C357 C358 1.369 . S
C357 H370 0.950 . S
C358 C357 1.369 . S
C358 C359 1.392 . S
C358 H371 0.951 . S
C359 C358 1.392 . S
C359 C361 1.384 . S
H360 C362 0.949 . S
C361 C359 1.384 . S
C361 C362 1.385 . S
C361 H363 0.950 . S
C362 C356 1.404 . S
C362 H360 0.949 . S
C362 C361 1.385 . S
H363 C361 0.950 . S
H364 C348 0.938 1_556 S
H365 C350 0.951 . S
H366 C352 0.951 . S
H367 C353 0.950 . S
H368 C354 0.950 . S
H369 C355 0.950 . S
H370 C357 0.950 . S
H371 C358 0.951 . S
C85 C13 1.851 1_556 S
C95 C54 1.842 . S
C109 C68 1.854 . S
C119 C26 1.858 . S
C133 C28 1.844 . S
C143 C83 1.855 1_554 S
C157 C43 1.869 . S
C167 C0 1.826 . S
C181 C15 1.846 . S
C191 C57 1.869 . S
C205 C70 1.841 . S
C215 C41 1.868 . S
C229 C12 1.623 . S
C239 C40 1.618 . S
C253 C27 1.605 . S
C263 C55 1.604 . S
C277 C69 1.601 . S
C287 C29 1.596 . S
C301 C82 1.596 . S
C311 C42 1.574 . S
C325 C56 1.618 . S
C335 C1 1.624 1_556 S
C349 C71 1.619 1_554 S
C359 C14 1.606 . S
