# Generated by pormake.
# Topology une, (4)-cn, num edge types: 1
# Building blocks:
#     Node 0, Type 0, BuildingBlock: GALJAG_clean_sbu_0, # of connection points: 4
#     Node 1, Type 0, BuildingBlock: GALJAG_clean_sbu_0, # of connection points: 4
#     Node 2, Type 0, BuildingBlock: GALJAG_clean_sbu_0, # of connection points: 4
#     Node 3, Type 0, BuildingBlock: GALJAG_clean_sbu_0, # of connection points: 4
#     Node 4, Type 0, BuildingBlock: GALJAG_clean_sbu_0, # of connection points: 4
#     Node 5, Type 0, BuildingBlock: GALJAG_clean_sbu_0, # of connection points: 4
#     Node 6, Type 0, BuildingBlock: GALJAG_clean_sbu_0, # of connection points: 4
#     Node 7, Type 0, BuildingBlock: GALJAG_clean_sbu_0, # of connection points: 4
#     Node 8, Type 0, BuildingBlock: GALJAG_clean_sbu_0, # of connection points: 4
#     Node 9, Type 0, BuildingBlock: GALJAG_clean_sbu_0, # of connection points: 4
#     Node 10, Type 0, BuildingBlock: GALJAG_clean_sbu_0, # of connection points: 4
#     Node 11, Type 0, BuildingBlock: GALJAG_clean_sbu_0, # of connection points: 4
#     Node 12, Type 0, BuildingBlock: GALJAG_clean_sbu_0, # of connection points: 4
#     Node 13, Type 0, BuildingBlock: GALJAG_clean_sbu_0, # of connection points: 4
#     Node 14, Type 0, BuildingBlock: GALJAG_clean_sbu_0, # of connection points: 4
#     Node 15, Type 0, BuildingBlock: GALJAG_clean_sbu_0, # of connection points: 4
#     Node 16, Type 0, BuildingBlock: GALJAG_clean_sbu_0, # of connection points: 4
#     Node 17, Type 0, BuildingBlock: GALJAG_clean_sbu_0, # of connection points: 4
#     Edge 18, Type (0, 0), BuildingBlock: MIFKUJ_clean_linker_0, # of connection points: 2
#     Edge 19, Type (0, 0), BuildingBlock: MIFKUJ_clean_linker_0, # of connection points: 2
#     Edge 20, Type (0, 0), BuildingBlock: MIFKUJ_clean_linker_0, # of connection points: 2
#     Edge 21, Type (0, 0), BuildingBlock: MIFKUJ_clean_linker_0, # of connection points: 2
#     Edge 22, Type (0, 0), BuildingBlock: MIFKUJ_clean_linker_0, # of connection points: 2
#     Edge 23, Type (0, 0), BuildingBlock: MIFKUJ_clean_linker_0, # of connection points: 2
#     Edge 24, Type (0, 0), BuildingBlock: MIFKUJ_clean_linker_0, # of connection points: 2
#     Edge 25, Type (0, 0), BuildingBlock: MIFKUJ_clean_linker_0, # of connection points: 2
#     Edge 26, Type (0, 0), BuildingBlock: MIFKUJ_clean_linker_0, # of connection points: 2
#     Edge 27, Type (0, 0), BuildingBlock: MIFKUJ_clean_linker_0, # of connection points: 2
#     Edge 28, Type (0, 0), BuildingBlock: MIFKUJ_clean_linker_0, # of connection points: 2
#     Edge 29, Type (0, 0), BuildingBlock: MIFKUJ_clean_linker_0, # of connection points: 2
#     Edge 30, Type (0, 0), BuildingBlock: MIFKUJ_clean_linker_0, # of connection points: 2
#     Edge 31, Type (0, 0), BuildingBlock: MIFKUJ_clean_linker_0, # of connection points: 2
#     Edge 32, Type (0, 0), BuildingBlock: MIFKUJ_clean_linker_0, # of connection points: 2
#     Edge 33, Type (0, 0), BuildingBlock: MIFKUJ_clean_linker_0, # of connection points: 2
#     Edge 34, Type (0, 0), BuildingBlock: MIFKUJ_clean_linker_0, # of connection points: 2
#     Edge 35, Type (0, 0), BuildingBlock: MIFKUJ_clean_linker_0, # of connection points: 2
#     Edge 36, Type (0, 0), BuildingBlock: MIFKUJ_clean_linker_0, # of connection points: 2
#     Edge 37, Type (0, 0), BuildingBlock: MIFKUJ_clean_linker_0, # of connection points: 2
#     Edge 38, Type (0, 0), BuildingBlock: MIFKUJ_clean_linker_0, # of connection points: 2
#     Edge 39, Type (0, 0), BuildingBlock: MIFKUJ_clean_linker_0, # of connection points: 2
#     Edge 40, Type (0, 0), BuildingBlock: MIFKUJ_clean_linker_0, # of connection points: 2
#     Edge 41, Type (0, 0), BuildingBlock: MIFKUJ_clean_linker_0, # of connection points: 2
#     Edge 42, Type (0, 0), BuildingBlock: MIFKUJ_clean_linker_0, # of connection points: 2
#     Edge 43, Type (0, 0), BuildingBlock: MIFKUJ_clean_linker_0, # of connection points: 2
#     Edge 44, Type (0, 0), BuildingBlock: MIFKUJ_clean_linker_0, # of connection points: 2
#     Edge 45, Type (0, 0), BuildingBlock: MIFKUJ_clean_linker_0, # of connection points: 2
#     Edge 46, Type (0, 0), BuildingBlock: MIFKUJ_clean_linker_0, # of connection points: 2
#     Edge 47, Type (0, 0), BuildingBlock: MIFKUJ_clean_linker_0, # of connection points: 2
#     Edge 48, Type (0, 0), BuildingBlock: MIFKUJ_clean_linker_0, # of connection points: 2
#     Edge 49, Type (0, 0), BuildingBlock: MIFKUJ_clean_linker_0, # of connection points: 2
#     Edge 50, Type (0, 0), BuildingBlock: MIFKUJ_clean_linker_0, # of connection points: 2
#     Edge 51, Type (0, 0), BuildingBlock: MIFKUJ_clean_linker_0, # of connection points: 2
#     Edge 52, Type (0, 0), BuildingBlock: MIFKUJ_clean_linker_0, # of connection points: 2
#     Edge 53, Type (0, 0), BuildingBlock: MIFKUJ_clean_linker_0, # of connection points: 2
# Relax obj value: 0.162
# Max RMSD: 0.139
# Mean RMSD: 0.139
data_MOF--net-une--node1-GALJAG_clean_sbu_0--edge1-MIFKUJ_clean_linker_0
_symmetry_space_group_name_H-M    P1
_symmetry_Int_Tables_number       1
_symmetry_cell_setting            triclinic
loop_
_symmetry_equiv_pos_as_xyz
'x, y, z'
_cell_length_a     51.606846
_cell_length_b     51.631917
_cell_length_c     67.147271
_cell_angle_alpha  89.952066
_cell_angle_beta   90.030002
_cell_angle_gamma 119.99677
loop_
_atom_site_label
_atom_site_type_symbol
_atom_site_fract_x
_atom_site_fract_y
_atom_site_fract_z
_atom_type_partial_charge
In0 In 0.36806 0.07596 0.04986 0.0
O1 O 0.33992 0.07484 0.07606 0.0
O2 O 0.38705 0.10114 0.07928 0.0
C3 C 0.32464 0.01861 0.0461 0.0
C4 C 0.36645 0.11898 0.02827 0.0
C5 C 0.41411 0.07133 0.03496 0.0
O6 O 0.32186 0.04009 0.0397 0.0
O7 O 0.34912 0.02609 0.05472 0.0
O8 O 0.39804 0.07801 0.02448 0.0
O9 O 0.4079 0.0683 0.05332 0.0
C10 C 0.36159 0.09253 0.08681 0.0
O11 O 0.38511 0.12476 0.04212 0.0
O12 O 0.34899 0.09149 0.02508 0.0
In13 In 0.92218 0.29814 0.05375 0.0
O14 O 0.92069 0.26525 0.07665 0.0
O15 O 0.89968 0.29029 0.08438 0.0
C16 C 0.97701 0.31051 0.04221 0.0
C17 C 0.87957 0.25518 0.03079 0.0
C18 C 0.92984 0.35346 0.04902 0.0
O19 O 0.96794 0.30308 0.05988 0.0
O20 O 0.95837 0.31136 0.03046 0.0
O21 O 0.91061 0.33101 0.03951 0.0
O22 O 0.94369 0.34762 0.06216 0.0
C23 C 0.90556 0.27012 0.08926 0.0
O24 O 0.87358 0.26808 0.04446 0.0
O25 O 0.90703 0.26426 0.0285 0.0
In26 In 0.69624 0.62267 0.05467 0.0
O27 O 0.72255 0.60119 0.0432 0.0
O28 O 0.73646 0.6459 0.03432 0.0
C29 C 0.64402 0.57793 0.04072 0.0
C30 C 0.71992 0.62855 0.09147 0.0
C31 C 0.68376 0.66638 0.04734 0.0
O32 O 0.6675 0.59069 0.03037 0.0
O33 O 0.64718 0.58659 0.05861 0.0
O34 O 0.66837 0.64517 0.0592 0.0
O35 O 0.70575 0.66585 0.03957 0.0
C36 C 0.74105 0.62408 0.0336 0.0
O37 O 0.72093 0.64998 0.08189 0.0
O38 O 0.70525 0.60347 0.08304 0.0
In39 In 0.61065 0.92082 0.9421 0.0
O40 O 0.62936 0.92478 0.91093 0.0
O41 O 0.59075 0.88377 0.91859 0.0
C42 C 0.65515 0.97518 0.95288 0.0
C43 C 0.61952 0.88244 0.96432 0.0
C44 C 0.5647 0.93082 0.94843 0.0
O45 O 0.65302 0.965 0.93552 0.0
O46 O 0.63513 0.95778 0.96484 0.0
O47 O 0.57131 0.9159 0.9601 0.0
O48 O 0.58005 0.93915 0.93266 0.0
C49 C 0.61081 0.89837 0.90584 0.0
O50 O 0.59375 0.87817 0.96046 0.0
O51 O 0.64073 0.90615 0.95714 0.0
In52 In 0.07543 0.68902 0.94321 0.0
O53 O 0.11884 0.71592 0.96055 0.0
O54 O 0.0887 0.73269 0.95916 0.0
C55 C 0.06821 0.63402 0.94903 0.0
C56 C 0.09515 0.71405 0.90697 0.0
C57 C 0.02115 0.67566 0.95665 0.0
O58 O 0.08608 0.65655 0.95906 0.0
O59 O 0.05559 0.63963 0.93492 0.0
O60 O 0.02757 0.67877 0.93833 0.0
O61 O 0.04221 0.67963 0.96811 0.0
C62 C 0.11332 0.73628 0.96543 0.0
O63 O 0.07015 0.70814 0.91396 0.0
O64 O 0.1096 0.7056 0.91773 0.0
In65 In 0.30698 0.39182 0.93778 0.0
O66 O 0.29429 0.37338 0.90605 0.0
O67 O 0.28441 0.40685 0.91498 0.0
C68 C 0.31774 0.34799 0.9487 0.0
C69 C 0.26156 0.38325 0.96185 0.0
C70 C 0.36215 0.43984 0.94265 0.0
O71 O 0.30319 0.34629 0.93313 0.0
O72 O 0.3264 0.37153 0.95877 0.0
O73 O 0.3405 0.43398 0.95402 0.0
O74 O 0.35555 0.42253 0.9279 0.0
C75 C 0.28225 0.38871 0.90167 0.0
O76 O 0.27802 0.40768 0.95308 0.0
O77 O 0.26823 0.36324 0.95875 0.0
In78 In 0.04537 0.40469 0.39215 0.0
O79 O 0.01679 0.40223 0.41841 0.0
O80 O 0.06342 0.4326 0.42073 0.0
C81 C 0.0051 0.34948 0.3798 0.0
C82 C 0.0386 0.4454 0.37123 0.0
C83 C 0.09378 0.39914 0.38509 0.0
O84 O 0.00988 0.3562 0.39802 0.0
O85 O 0.02046 0.37061 0.3679 0.0
O86 O 0.08706 0.41522 0.37465 0.0
O87 O 0.07709 0.38723 0.40003 0.0
C88 C 0.03781 0.42233 0.42845 0.0
O89 O 0.06375 0.45053 0.37757 0.0
O90 O 0.01715 0.41967 0.37512 0.0
In91 In 0.59439 0.63859 0.39591 0.0
O92 O 0.56026 0.61377 0.37145 0.0
O93 O 0.58009 0.59125 0.38583 0.0
C94 C 0.59999 0.69277 0.38939 0.0
C95 C 0.56874 0.61587 0.43156 0.0
C96 C 0.64985 0.65154 0.38519 0.0
O97 O 0.58081 0.66937 0.38068 0.0
O98 O 0.61481 0.68849 0.40263 0.0
O99 O 0.64043 0.64464 0.40283 0.0
O100 O 0.63122 0.65152 0.37304 0.0
C101 C 0.5619 0.59028 0.3729 0.0
O102 O 0.59616 0.62603 0.42817 0.0
O103 O 0.5546 0.61921 0.4174 0.0
In104 In 0.35722 0.94545 0.39076 0.0
O105 O 0.38809 0.92836 0.38075 0.0
O106 O 0.39119 0.96602 0.36564 0.0
C107 C 0.30257 0.89673 0.38601 0.0
C108 C 0.38719 0.95754 0.42555 0.0
C109 C 0.34165 0.98615 0.38064 0.0
O110 O 0.3246 0.90211 0.37517 0.0
O111 O 0.30865 0.9147 0.40031 0.0
O112 O 0.34596 0.98166 0.39852 0.0
O113 O 0.34583 0.97059 0.36795 0.0
C114 C 0.40081 0.94799 0.36744 0.0
O115 O 0.38948 0.97759 0.41375 0.0
O116 O 0.36866 0.93112 0.42024 0.0
In117 In 0.29565 0.25884 0.28194 0.0
O118 O 0.32598 0.25755 0.25811 0.0
O119 O 0.27949 0.23583 0.25157 0.0
C120 C 0.34417 0.31225 0.28953 0.0
C121 C 0.289 0.212 0.3034 0.0
C122 C 0.25105 0.26928 0.2924 0.0
O123 O 0.32511 0.30884 0.27648 0.0
O124 O 0.33884 0.28869 0.2986 0.0
O125 O 0.25972 0.25517 0.30321 0.0
O126 O 0.26381 0.27695 0.27568 0.0
C127 C 0.30538 0.24215 0.24593 0.0
O128 O 0.27532 0.20883 0.28718 0.0
O129 O 0.30553 0.23874 0.30893 0.0
In130 In 0.73839 0.02507 0.2785 0.0
O131 O 0.73979 0.05813 0.25581 0.0
O132 O 0.76025 0.0327 0.24767 0.0
C133 C 0.68333 0.01346 0.28884 0.0
C134 C 0.78268 0.06892 0.29982 0.0
C135 C 0.73129 0.9703 0.28543 0.0
O136 O 0.69136 0.01542 0.27089 0.0
O137 O 0.70318 0.01783 0.3015 0.0
O138 O 0.74925 0.99326 0.29505 0.0
O139 O 0.71842 0.97527 0.27118 0.0
C140 C 0.75453 0.05306 0.24299 0.0
O141 O 0.78755 0.05566 0.2858 0.0
O142 O 0.75542 0.05967 0.30336 0.0
In143 In 0.96848 0.70895 0.27727 0.0
O144 O 0.93504 0.72401 0.28475 0.0
O145 O 0.93952 0.69486 0.3051 0.0
C146 C 0.02133 0.75686 0.28753 0.0
C147 C 0.94331 0.69943 0.24069 0.0
C148 C 0.97968 0.66449 0.28541 0.0
O149 O 0.99828 0.74679 0.29826 0.0
O150 O 0.01733 0.74389 0.27095 0.0
O151 O 0.95529 0.66316 0.28988 0.0
O152 O 0.99817 0.68795 0.27635 0.0
C153 C 0.9265 0.7093 0.30078 0.0
O154 O 0.94228 0.67887 0.25135 0.0
O155 O 0.95837 0.72529 0.24804 0.0
In156 In 0.71302 0.7413 0.72709 0.0
O157 O 0.72901 0.78852 0.71588 0.0
O158 O 0.69036 0.75289 0.70234 0.0
C159 C 0.76015 0.73649 0.71472 0.0
C160 C 0.70731 0.7594 0.76388 0.0
C161 C 0.66857 0.68486 0.7216 0.0
O162 O 0.74617 0.74493 0.70353 0.0
O163 O 0.75125 0.73173 0.73257 0.0
O164 O 0.66551 0.70727 0.71832 0.0
O165 O 0.694 0.69088 0.72797 0.0
C166 C 0.70829 0.78068 0.70326 0.0
O167 O 0.68775 0.73535 0.7561 0.0
O168 O 0.73078 0.7736 0.75365 0.0
In169 In 0.25258 0.9707 0.72625 0.0
O170 O 0.25717 0.95564 0.75728 0.0
O171 O 0.2159 0.95288 0.75016 0.0
C172 C 0.30618 0.97961 0.71436 0.0
C173 C 0.21381 0.92576 0.70264 0.0
C174 C 0.26395 0.0273 0.72101 0.0
O175 O 0.29555 0.96954 0.73138 0.0
O176 O 0.28944 0.98449 0.70316 0.0
O177 O 0.24521 0.00554 0.71078 0.0
O178 O 0.27545 0.02024 0.73507 0.0
C179 C 0.23085 0.94751 0.76267 0.0
O180 O 0.21014 0.94725 0.70758 0.0
O181 O 0.23706 0.92691 0.70959 0.0
In182 In 0.03004 0.28807 0.71383 0.0
O183 O 0.04559 0.30772 0.74505 0.0
O184 O 0.05566 0.27472 0.73541 0.0
C185 C 0.02019 0.33183 0.7012 0.0
C186 C 0.07333 0.29436 0.68874 0.0
C187 C 0.97384 0.2408 0.7108 0.0
O188 O 0.02998 0.33179 0.71843 0.0
O189 O 0.01581 0.31007 0.69035 0.0
O190 O 0.99513 0.24437 0.69984 0.0
O191 O 0.98128 0.25998 0.72446 0.0
C192 C 0.0588 0.29327 0.74869 0.0
O193 O 0.05419 0.26937 0.69581 0.0
O194 O 0.07049 0.31618 0.69421 0.0
In195 In 0.95304 0.5959 0.60645 0.0
O196 O 0.9372 0.54672 0.61144 0.0
O197 O 0.96716 0.57801 0.63269 0.0
C198 C 0.90415 0.59845 0.61744 0.0
C199 C 0.96607 0.58255 0.57033 0.0
C200 C 0.99578 0.65219 0.61486 0.0
O201 O 0.91673 0.58837 0.62857 0.0
O202 O 0.91523 0.60577 0.60019 0.0
O203 O 0.99647 0.62958 0.62129 0.0
O204 O 0.97375 0.64646 0.60383 0.0
C205 C 0.9525 0.55111 0.62705 0.0
O206 O 0.98568 0.59998 0.58244 0.0
O207 O 0.93943 0.57315 0.57587 0.0
In208 In 0.41443 0.36212 0.61335 0.0
O209 O 0.40756 0.37034 0.58074 0.0
O210 O 0.45163 0.38373 0.59008 0.0
C211 C 0.35939 0.35211 0.62271 0.0
C212 C 0.45033 0.40662 0.63835 0.0
C213 C 0.40844 0.30811 0.62111 0.0
O214 O 0.37721 0.37383 0.61196 0.0
O215 O 0.36943 0.33574 0.62881 0.0
O216 O 0.42325 0.33071 0.632 0.0
O217 O 0.39797 0.31311 0.60548 0.0
C218 C 0.43491 0.38336 0.57628 0.0
O219 O 0.4576 0.38863 0.63112 0.0
O220 O 0.42489 0.40195 0.63316 0.0
In221 In 0.63076 0.04383 0.6177 0.0
O222 O 0.60947 0.06191 0.63903 0.0
O223 O 0.59157 0.01481 0.63806 0.0
C224 C 0.68527 0.09311 0.62137 0.0
C225 C 0.60304 0.0416 0.58285 0.0
C226 C 0.64231 -0.00011 0.62734 0.0
O227 O 0.66347 0.08771 0.63247 0.0
O228 O 0.67904 0.07471 0.60729 0.0
O229 O 0.62255 0.99606 0.61474 0.0
O230 O 0.65567 0.02549 0.63515 0.0
C231 C 0.59006 0.03652 0.6454 0.0
O232 O 0.62231 0.03347 0.58417 0.0
O233 O 0.59938 0.05251 0.59861 0.0
H234 H 0.44163 0.04387 0.05269 0.0
H235 H 0.4694 0.02311 0.03618 0.0
H236 H 0.46189 0.05986 0.98014 0.0
H237 H 0.43344 0.07999 0.99651 0.0
H238 H 0.44563 0.00374 0.97538 0.0
H239 H 0.52994 0.08718 0.00465 0.0
H240 H 0.56048 0.1223 0.03112 0.0
H241 H 0.56101 0.05065 0.06327 0.0
H242 H 0.53012 0.01498 0.03711 0.0
H243 H 0.54919 0.96659 0.92738 0.0
H244 H 0.52363 0.99232 0.94044 0.0
H245 H 0.51101 0.94745 0.9968 0.0
H246 H 0.53599 0.92144 0.98387 0.0
H247 H 0.53999 0.01098 0.99923 0.0
H248 H 0.4528 0.92759 0.96966 0.0
H249 H 0.42355 0.89394 0.94219 0.0
H250 H 0.43091 0.96859 0.90918 0.0
H251 H 0.46059 0.00277 0.93636 0.0
C252 C 0.44647 0.04807 0.03694 0.0
C253 C 0.43533 0.06349 0.02588 0.0
C254 C 0.46239 0.03623 0.0275 0.0
C255 C 0.46783 0.03998 0.00689 0.0
C256 C 0.45786 0.05656 0.99602 0.0
C257 C 0.44175 0.06819 0.00542 0.0
C258 C 0.48189 0.02473 0.99649 0.0
C259 C 0.46657 0.00581 0.98038 0.0
C260 C 0.50897 0.027 0.00316 0.0
C261 C 0.52747 0.04835 0.01899 0.0
C262 C 0.53635 0.07885 0.01744 0.0
C263 C 0.55377 0.09887 0.03238 0.0
C264 C 0.56262 0.0887 0.04889 0.0
C265 C 0.55412 0.05849 0.05048 0.0
C266 C 0.53667 0.03837 0.03559 0.0
C267 C 0.54031 0.96169 0.94238 0.0
C268 C 0.54465 0.94207 0.95461 0.0
C269 C 0.52584 0.97647 0.94983 0.0
C270 C 0.51572 0.97193 0.96962 0.0
C271 C 0.51886 0.95136 0.98153 0.0
C272 C 0.53297 0.93639 0.97406 0.0
C273 C 0.50349 0.98984 0.97843 0.0
C274 C 0.5192 0.00924 0.99418 0.0
C275 C 0.47701 0.98829 0.97129 0.0
C276 C 0.45922 0.96778 0.95494 0.0
C277 C 0.44844 0.93688 0.95646 0.0
C278 C 0.43172 0.9177 0.94096 0.0
C279 C 0.42545 0.92914 0.92392 0.0
C280 C 0.43583 0.95977 0.92237 0.0
C281 C 0.45258 0.97905 0.93782 0.0
H282 H 0.41249 0.91425 0.91194 0.0
H283 H 0.57612 0.10424 0.06043 0.0
H284 H 0.97818 0.40538 0.06187 0.0
H285 H 0.001 0.45386 0.04505 0.0
H286 H 0.92744 0.41938 0.00348 0.0
H287 H 0.90467 0.37078 0.02008 0.0
H288 H 0.98009 0.44356 0.98447 0.0
H289 H 0.93791 0.47307 0.03721 0.0
H290 H 0.92722 0.47979 0.07201 0.0
H291 H 0.02115 0.5365 0.08314 0.0
H292 H 0.03244 0.5298 0.04846 0.0
H293 H 0.02032 0.58199 0.93596 0.0
H294 H 0.99713 0.53364 0.95294 0.0
H295 H 0.06965 0.56853 0.99537 0.0
H296 H 0.09264 0.61707 0.97866 0.0
H297 H 0.01729 0.54407 0.01394 0.0
H298 H 0.05956 0.51442 0.96127 0.0
H299 H 0.07029 0.5077 0.92648 0.0
H300 H 0.97636 0.45124 0.91523 0.0
H301 H 0.96502 0.45793 0.9499 0.0
C302 C 0.96643 0.40838 0.04951 0.0
C303 C 0.93971 0.38424 0.04224 0.0
C304 C 0.97953 0.4361 0.03988 0.0
C305 C 0.966 0.44018 0.02293 0.0
C306 C 0.93835 0.41665 0.01645 0.0
C307 C 0.92527 0.38895 0.02604 0.0
C308 C 0.98189 0.46798 0.01095 0.0
C309 C 0.98782 0.46554 0.99083 0.0
C310 C 0.99275 0.49665 0.0194 0.0
C311 C 0.98603 0.50069 0.04028 0.0
C312 C 0.95631 0.48676 0.04712 0.0
C313 C 0.95014 0.49061 0.06682 0.0
C314 C 0.9735 0.50849 0.0798 0.0
C315 C 0.00308 0.52263 0.07308 0.0
C316 C 0.00937 0.51883 0.0534 0.0
C317 C 0.03176 0.5791 0.94856 0.0
C318 C 0.05823 0.60333 0.95603 0.0
C319 C 0.01846 0.55145 0.95829 0.0
C320 C 0.03159 0.54749 0.97549 0.0
C321 C 0.05902 0.57115 0.9822 0.0
C322 C 0.07224 0.5988 0.97255 0.0
C323 C 0.01555 0.51967 0.98745 0.0
C324 C 0.00958 0.5221 0.00757 0.0
C325 C 0.00467 0.49099 0.979 0.0
C326 C 0.01143 0.48692 0.95814 0.0
C327 C 0.04117 0.50077 0.95133 0.0
C328 C 0.04737 0.49693 0.93164 0.0
C329 C 0.02402 0.47912 0.91864 0.0
C330 C 0.99442 0.46505 0.92531 0.0
C331 C 0.9881 0.46884 0.94499 0.0
H332 H 0.02886 0.47617 0.9034 0.0
H333 H 0.96867 0.51145 0.09504 0.0
H334 H 0.41356 0.44722 0.9257 0.0
H335 H 0.46362 0.47302 0.94048 0.0
H336 H 0.43091 0.50471 0.98829 0.0
H337 H 0.38097 0.47927 0.97352 0.0
H338 H 0.48783 0.5462 0.97825 0.0
H339 H 0.43326 0.44205 0.99518 0.0
H340 H 0.40375 0.38791 0.9887 0.0
H341 H 0.47612 0.39246 0.95442 0.0
H342 H 0.50611 0.44679 0.96069 0.0
H343 H 0.58941 0.56474 0.05511 0.0
H344 H 0.54212 0.54171 0.03665 0.0
H345 H 0.58492 0.52524 0.98703 0.0
H346 H 0.63242 0.54872 0.00525 0.0
H347 H 0.52449 0.47695 0.99683 0.0
H348 H 0.58055 0.58309 0.98373 0.0
H349 H 0.60864 0.63616 0.99361 0.0
H350 H 0.53099 0.62687 0.0236 0.0
H351 H 0.50258 0.57353 0.01425 0.0
C352 C 0.41724 0.46042 0.93903 0.0
C353 C 0.3933 0.461 0.94857 0.0
C354 C 0.44579 0.47496 0.94754 0.0
C355 C 0.45078 0.49023 0.96571 0.0
C356 C 0.4275 0.49293 0.97433 0.0
C357 C 0.39896 0.47836 0.96586 0.0
C358 C 0.47926 0.5009 0.9767 0.0
C359 C 0.49577 0.53105 0.98239 0.0
C360 C 0.48965 0.48112 0.98206 0.0
C361 C 0.47177 0.44851 0.9782 0.0
C362 C 0.44279 0.43155 0.98613 0.0
C363 C 0.42598 0.40082 0.98251 0.0
C364 C 0.43795 0.38675 0.97104 0.0
C365 C 0.46684 0.4034 0.96325 0.0
C366 C 0.48378 0.43415 0.96686 0.0
C367 C 0.58856 0.55553 0.04047 0.0
C368 C 0.61455 0.55857 0.03155 0.0
C369 C 0.56162 0.54259 0.02992 0.0
C370 C 0.56026 0.5322 0.01043 0.0
C371 C 0.58564 0.53326 0.00204 0.0
C372 C 0.61269 0.54663 0.01246 0.0
C373 C 0.53299 0.52218 0.9983 0.0
C374 C 0.51669 0.49214 0.99247 0.0
C375 C 0.52261 0.54199 0.99308 0.0
C376 C 0.53952 0.5742 0.99846 0.0
C377 C 0.56953 0.59227 0.99259 0.0
C378 C 0.58551 0.62242 0.99807 0.0
C379 C 0.57163 0.63486 0.00927 0.0
C380 C 0.54172 0.61719 0.01496 0.0
C381 C 0.52567 0.58699 0.00956 0.0
H382 H 0.58403 0.65821 0.01348 0.0
H383 H 0.42487 0.36294 0.96825 0.0
H384 H 0.10521 0.35701 0.40085 0.0
H385 H 0.13409 0.3366 0.38535 0.0
H386 H 0.1603 0.40146 0.33799 0.0
H387 H 0.13124 0.42172 0.35327 0.0
H388 H 0.13669 0.34579 0.32354 0.0
H389 H 0.21121 0.4053 0.37196 0.0
H390 H 0.23088 0.42406 0.40557 0.0
H391 H 0.20744 0.33539 0.42415 0.0
H392 H 0.18725 0.31601 0.39071 0.0
H393 H 0.24037 0.31181 0.2765 0.0
H394 H 0.21403 0.33466 0.2924 0.0
H395 H 0.19047 0.27323 0.3417 0.0
H396 H 0.21739 0.25086 0.32611 0.0
H397 H 0.21347 0.32819 0.35503 0.0
H398 H 0.138 0.26829 0.30713 0.0
H399 H 0.11763 0.24901 0.27373 0.0
H400 H 0.14198 0.33762 0.25441 0.0
H401 H 0.16286 0.35751 0.28763 0.0
C402 C 0.11774 0.3674 0.38741 0.0
C403 C 0.11589 0.39089 0.37824 0.0
C404 C 0.13422 0.3557 0.37855 0.0
C405 C 0.14928 0.36747 0.36047 0.0
C406 C 0.14871 0.39195 0.35188 0.0
C407 C 0.13224 0.40361 0.3607 0.0
C408 C 0.1636 0.35281 0.34972 0.0
C409 C 0.15384 0.34236 0.3303 0.0
C410 C 0.1853 0.34757 0.35876 0.0
C411 C 0.19746 0.35917 0.37888 0.0
C412 C 0.21002 0.38976 0.38326 0.0
C413 C 0.22131 0.40051 0.40227 0.0
C414 C 0.22034 0.38092 0.417 0.0
C415 C 0.20815 0.35053 0.41273 0.0
C416 C 0.19681 0.33966 0.39375 0.0
C417 C 0.22903 0.30279 0.29052 0.0
C418 C 0.23093 0.27958 0.30008 0.0
C419 C 0.21399 0.31587 0.29961 0.0
C420 C 0.20022 0.30564 0.31826 0.0
C421 C 0.20106 0.2816 0.32738 0.0
C422 C 0.21629 0.26872 0.31839 0.0
C423 C 0.1865 0.32105 0.32885 0.0
C424 C 0.19636 0.33165 0.34824 0.0
C425 C 0.1648 0.32634 0.31981 0.0
C426 C 0.15227 0.31443 0.29981 0.0
C427 C 0.13924 0.2837 0.29571 0.0
C428 C 0.12755 0.27266 0.27682 0.0
C429 C 0.12859 0.29209 0.26194 0.0
C430 C 0.14124 0.3226 0.26594 0.0
C431 C 0.15297 0.33377 0.2848 0.0
H432 H 0.11952 0.28349 0.24732 0.0
H433 H 0.2291 0.38929 0.43171 0.0
H434 H 0.64649 0.74644 0.4016 0.0
H435 H 0.66753 0.79405 0.38382 0.0
H436 H 0.59505 0.75455 0.34146 0.0
H437 H 0.57405 0.7068 0.35906 0.0
H438 H 0.64839 0.78094 0.32305 0.0
H439 H 0.60123 0.8081 0.37369 0.0
H440 H 0.5884 0.81473 0.40796 0.0
H441 H 0.68109 0.87583 0.42036 0.0
H442 H 0.69453 0.86925 0.38623 0.0
H443 H 0.68453 0.91729 0.27243 0.0
H444 H 0.66212 0.86926 0.28985 0.0
H445 H 0.73328 0.90688 0.33325 0.0
H446 H 0.75557 0.95499 0.31606 0.0
H447 H 0.67962 0.88124 0.35091 0.0
H448 H 0.72685 0.85355 0.30042 0.0
H449 H 0.73969 0.84688 0.26617 0.0
H450 H 0.64687 0.78677 0.25349 0.0
H451 H 0.63342 0.7934 0.28761 0.0
C452 C 0.63458 0.74812 0.38883 0.0
C453 C 0.60868 0.72286 0.38169 0.0
C454 C 0.64666 0.77534 0.37865 0.0
C455 C 0.63293 0.77782 0.36125 0.0
C456 C 0.6061 0.75308 0.35478 0.0
C457 C 0.59401 0.72587 0.36495 0.0
C458 C 0.64783 0.80534 0.34892 0.0
C459 C 0.65479 0.80284 0.32904 0.0
C460 C 0.65692 0.83396 0.35691 0.0
C461 C 0.64891 0.83796 0.37745 0.0
C462 C 0.61891 0.82275 0.38377 0.0
C463 C 0.61152 0.82654 0.40316 0.0
C464 C 0.63392 0.84563 0.41634 0.0
C465 C 0.66376 0.86103 0.41014 0.0
C466 C 0.67128 0.8573 0.39077 0.0
C467 C 0.69585 0.91508 0.28536 0.0
C468 C 0.72174 0.93993 0.29293 0.0
C469 C 0.68298 0.88763 0.29534 0.0
C470 C 0.69594 0.88453 0.31293 0.0
C471 C 0.72279 0.90884 0.31979 0.0
C472 C 0.73561 0.93626 0.30986 0.0
C473 C 0.68031 0.85686 0.32507 0.0
C474 C 0.67319 0.85933 0.34491 0.0
C475 C 0.67108 0.82823 0.31705 0.0
C476 C 0.6791 0.82422 0.29651 0.0
C477 C 0.70914 0.83912 0.29028 0.0
C478 C 0.71654 0.8353 0.2709 0.0
C479 C 0.6941 0.81648 0.25764 0.0
C480 C 0.66422 0.80138 0.26376 0.0
C481 C 0.6567 0.80513 0.28313 0.0
H482 H 0.69987 0.81354 0.24265 0.0
H483 H 0.62816 0.84854 0.43135 0.0
H484 H 0.07521 0.76801 0.27291 0.0
H485 H 0.12317 0.79281 0.2905 0.0
H486 H 0.08303 0.81665 0.33811 0.0
H487 H 0.03488 0.7916 0.32073 0.0
H488 H 0.1436 0.86198 0.32803 0.0
H489 H 0.085 0.75722 0.34453 0.0
H490 H 0.05525 0.70343 0.33669 0.0
H491 H 0.13088 0.70758 0.30697 0.0
H492 H 0.16095 0.76154 0.31434 0.0
H493 H 0.25093 0.89032 0.40179 0.0
H494 H 0.20153 0.86531 0.38609 0.0
H495 H 0.23499 0.83191 0.33982 0.0
H496 H 0.28436 0.85668 0.35548 0.0
H497 H 0.17689 0.7913 0.34985 0.0
H498 H 0.23523 0.89517 0.33226 0.0
H499 H 0.26563 0.94923 0.33889 0.0
H500 H 0.19161 0.94734 0.3694 0.0
H501 H 0.16083 0.89309 0.36316 0.0
C502 C 0.0768 0.77928 0.28684 0.0
C503 C 0.0513 0.77771 0.29553 0.0
C504 C 0.10414 0.79326 0.29691 0.0
C505 C 0.10642 0.80611 0.31571 0.0
C506 C 0.08163 0.80675 0.32365 0.0
C507 C 0.05418 0.79245 0.3137 0.0
C508 C 0.13369 0.81623 0.32788 0.0
C509 C 0.15072 0.84652 0.33303 0.0
C510 C 0.14309 0.79602 0.3341 0.0
C511 C 0.12514 0.7635 0.32982 0.0
C512 C 0.09522 0.74673 0.33617 0.0
C513 C 0.0783 0.7162 0.33183 0.0
C514 C 0.09115 0.70213 0.3213 0.0
C515 C 0.12095 0.71854 0.31511 0.0
C516 C 0.13795 0.74909 0.31937 0.0
C517 C 0.24754 0.8769 0.38862 0.0
C518 C 0.27157 0.87569 0.37974 0.0
C519 C 0.21937 0.86282 0.37958 0.0
C520 C 0.21484 0.84735 0.36156 0.0
C521 C 0.23809 0.84392 0.35365 0.0
C522 C 0.26628 0.85806 0.36263 0.0
C523 C 0.18691 0.83711 0.35002 0.0
C524 C 0.16974 0.80677 0.34496 0.0
C525 C 0.17748 0.85733 0.34379 0.0
C526 C 0.19583 0.89 0.34745 0.0
C527 C 0.2255 0.90623 0.34053 0.0
C528 C 0.2428 0.93692 0.3442 0.0
C529 C 0.23062 0.95172 0.35463 0.0
C530 C 0.20105 0.93584 0.36136 0.0
C531 C 0.18365 0.90512 0.35775 0.0
H532 H 0.24405 0.97549 0.35746 0.0
H533 H 0.07806 0.67849 0.31802 0.0
H534 H 0.88459 0.63334 0.59997 0.0
H535 H 0.8585 0.65598 0.61652 0.0
H536 H 0.84945 0.60504 0.66961 0.0
H537 H 0.87544 0.58229 0.65318 0.0
H538 H 0.79994 0.61199 0.66273 0.0
H539 H 0.90692 0.67075 0.66476 0.0
H540 H 0.95723 0.69644 0.64979 0.0
H541 H 0.93619 0.75659 0.61911 0.0
H542 H 0.88517 0.73031 0.63312 0.0
H543 H 0.78038 0.70239 0.73252 0.0
H544 H 0.80631 0.67935 0.7162 0.0
H545 H 0.81283 0.72739 0.66213 0.0
H546 H 0.78682 0.75037 0.67828 0.0
H547 H 0.86412 0.72202 0.67004 0.0
H548 H 0.75648 0.6612 0.66637 0.0
H549 H 0.70573 0.63484 0.68079 0.0
H550 H 0.72915 0.57955 0.71536 0.0
H551 H 0.78024 0.60599 0.70143 0.0
C552 C 0.87625 0.6263 0.61495 0.0
C553 C 0.88233 0.60633 0.62538 0.0
C554 C 0.8615 0.63936 0.62442 0.0
C555 C 0.85262 0.63259 0.6444 0.0
C556 C 0.85629 0.61067 0.65422 0.0
C557 C 0.87117 0.59773 0.64482 0.0
C558 C 0.84251 0.65053 0.6557 0.0
C559 C 0.81406 0.63598 0.66449 0.0
C560 C 0.86099 0.68191 0.65786 0.0
C561 C 0.89198 0.69824 0.64979 0.0
C562 C 0.91283 0.68919 0.65462 0.0
C563 C 0.94148 0.70382 0.64626 0.0
C564 C 0.9499 0.72812 0.63351 0.0
C565 C 0.92961 0.73772 0.62898 0.0
C566 C 0.90076 0.72286 0.63704 0.0
C567 C 0.78808 0.70867 0.71733 0.0
C568 C 0.78138 0.72795 0.70659 0.0
C569 C 0.80274 0.6954 0.70802 0.0
C570 C 0.81104 0.70138 0.6879 0.0
C571 C 0.80652 0.72246 0.67765 0.0
C572 C 0.79162 0.73551 0.68689 0.0
C573 C 0.82152 0.68348 0.67694 0.0
C574 C 0.85005 0.69802 0.66827 0.0
C575 C 0.80318 0.65211 0.67491 0.0
C576 C 0.77229 0.63579 0.68302 0.0
C577 C 0.75088 0.64358 0.67716 0.0
C578 C 0.72205 0.62861 0.68523 0.0
C579 C 0.71425 0.60559 0.69902 0.0
C580 C 0.73524 0.59742 0.70471 0.0
C581 C 0.76414 0.61239 0.69673 0.0
H582 H 0.69192 0.59403 0.70525 0.0
H583 H 0.97218 0.73958 0.62719 0.0
H584 H 0.36359 0.2551 0.60664 0.0
H585 H 0.34047 0.20666 0.62365 0.0
H586 H 0.40794 0.24414 0.66947 0.0
H587 H 0.43116 0.29259 0.65258 0.0
H588 H 0.39106 0.18464 0.65992 0.0
H589 H 0.34484 0.24333 0.67719 0.0
H590 H 0.31954 0.27219 0.67026 0.0
H591 H 0.24798 0.196 0.64104 0.0
H592 H 0.27301 0.16677 0.64766 0.0
H593 H 0.31321 0.07769 0.73486 0.0
H594 H 0.3391 0.1265 0.71832 0.0
H595 H 0.26866 0.09534 0.67448 0.0
H596 H 0.2425 0.04685 0.69109 0.0
H597 H 0.28803 0.15216 0.68337 0.0
H598 H 0.33266 0.09344 0.66475 0.0
H599 H 0.35629 0.06286 0.6709 0.0
H600 H 0.42913 0.13656 0.70113 0.0
H601 H 0.40584 0.16761 0.69518 0.0
C602 C 0.37402 0.25279 0.62001 0.0
C603 C 0.39903 0.27767 0.62838 0.0
C604 C 0.36067 0.22518 0.62978 0.0
C605 C 0.37221 0.22203 0.648 0.0
C606 C 0.39863 0.24616 0.65549 0.0
C607 C 0.41185 0.27382 0.64581 0.0
C608 C 0.35526 0.19466 0.66019 0.0
C609 C 0.36867 0.17768 0.66523 0.0
C610 C 0.32586 0.18535 0.66684 0.0
C611 C 0.31093 0.20298 0.66274 0.0
C612 C 0.32384 0.23283 0.66914 0.0
C613 C 0.30952 0.24923 0.6653 0.0
C614 C 0.28221 0.23595 0.65516 0.0
C615 C 0.26915 0.20625 0.64887 0.0
C616 C 0.28337 0.18976 0.65268 0.0
C617 C 0.30285 0.08154 0.72203 0.0
C618 C 0.27594 0.05841 0.71418 0.0
C619 C 0.31782 0.10931 0.71247 0.0
C620 C 0.30616 0.11427 0.69488 0.0
C621 C 0.27819 0.09193 0.68793 0.0
C622 C 0.26323 0.06424 0.69747 0.0
C623 C 0.32369 0.14196 0.68304 0.0
C624 C 0.31043 0.15908 0.6781 0.0
C625 C 0.35307 0.15115 0.6763 0.0
C626 C 0.36736 0.13273 0.6797 0.0
C627 C 0.35363 0.10307 0.67281 0.0
C628 C 0.36697 0.08565 0.67625 0.0
C629 C 0.39411 0.09768 0.68651 0.0
C630 C 0.40807 0.12724 0.69323 0.0
C631 C 0.39485 0.14479 0.68978 0.0
H632 H 0.40436 0.08413 0.68918 0.0
H633 H 0.27109 0.2486 0.65224 0.0
H634 H 0.70329 0.1352 0.65054 0.0
H635 H 0.75297 0.16245 0.6656 0.0
H636 H 0.78662 0.12578 0.62163 0.0
H637 H 0.73707 0.09887 0.6063 0.0
H638 H 0.78022 0.13652 0.68307 0.0
H639 H 0.86164 0.17112 0.61596 0.0
H640 H 0.86522 0.18854 0.58132 0.0
H641 H 0.80763 0.22376 0.59535 0.0
H642 H 0.80404 0.20693 0.63013 0.0
H643 H 0.95358 0.19792 0.68212 0.0
H644 H 0.90356 0.17209 0.66752 0.0
H645 H 0.8733 0.21216 0.71132 0.0
H646 H 0.92334 0.2379 0.72614 0.0
H647 H 0.87797 0.20072 0.65023 0.0
H648 H 0.79719 0.16715 0.71735 0.0
H649 H 0.79353 0.14992 0.75206 0.0
H650 H 0.84979 0.11315 0.73806 0.0
H651 H 0.85346 0.12979 0.70323 0.0
C652 C 0.72148 0.13363 0.64372 0.0
C653 C 0.71629 0.11485 0.62726 0.0
C654 C 0.74981 0.14904 0.65244 0.0
C655 C 0.77349 0.14604 0.64484 0.0
C656 C 0.76878 0.12871 0.62765 0.0
C657 C 0.74045 0.11338 0.61886 0.0
C658 C 0.80225 0.15886 0.65586 0.0
C659 C 0.80159 0.15099 0.67597 0.0
C660 C 0.83014 0.17703 0.64647 0.0
C661 C 0.83234 0.18747 0.62561 0.0
C662 C 0.84983 0.18267 0.61167 0.0
C663 C 0.85184 0.19243 0.59201 0.0
C664 C 0.83658 0.20715 0.58612 0.0
C665 C 0.81934 0.21224 0.59991 0.0
C666 C 0.81727 0.20254 0.61959 0.0
C667 C 0.93608 0.2006 0.68899 0.0
C668 C 0.9424 0.22003 0.70523 0.0
C669 C 0.90756 0.18599 0.68053 0.0
C670 C 0.88476 0.19037 0.68821 0.0
C671 C 0.89049 0.20827 0.70522 0.0
C672 C 0.91908 0.22291 0.71372 0.0
C673 C 0.85593 0.17829 0.6774 0.0
C674 C 0.85659 0.18631 0.65733 0.0
C675 C 0.82805 0.16032 0.68684 0.0
C676 C 0.82586 0.15004 0.70773 0.0
C677 C 0.80871 0.15532 0.72167 0.0
C678 C 0.80664 0.14566 0.74137 0.0
C679 C 0.82151 0.13055 0.74728 0.0
C680 C 0.8384 0.12498 0.73349 0.0
C681 C 0.84053 0.13457 0.71377 0.0
H682 H 0.81988 0.1231 0.76253 0.0
H683 H 0.83817 0.21468 0.57089 0.0
H684 H 0.30856 0.07781 0.10438 0.0
H685 H 0.30001 0.10341 0.13193 0.0
H686 H 0.39522 0.16127 0.1387 0.0
H687 H 0.40405 0.13566 0.11098 0.0
H688 H 0.36351 0.14212 0.17534 0.0
H689 H 0.35941 0.18673 0.11346 0.0
H690 H 0.34225 0.18612 0.07909 0.0
H691 H 0.25172 0.14812 0.09976 0.0
H692 H 0.26829 0.14804 0.13423 0.0
H693 H 0.35943 0.25527 0.2308 0.0
H694 H 0.36927 0.2301 0.20357 0.0
H695 H 0.27445 0.17534 0.193 0.0
H696 H 0.26439 0.20078 0.22021 0.0
H697 H 0.30648 0.19314 0.1582 0.0
H698 H 0.30987 0.14803 0.21982 0.0
H699 H 0.32625 0.14761 0.25426 0.0
H700 H 0.41711 0.18537 0.23432 0.0
H701 H 0.40132 0.18647 0.19979 0.0
C702 C 0.32774 0.09566 0.11191 0.0
C703 C 0.35699 0.10492 0.10542 0.0
C704 C 0.32278 0.11032 0.12761 0.0
C705 C 0.34696 0.13452 0.13709 0.0
C706 C 0.37628 0.1427 0.13147 0.0
C707 C 0.38128 0.12807 0.11567 0.0
C708 C 0.3414 0.15229 0.15199 0.0
C709 C 0.35142 0.15363 0.17157 0.0
C710 C 0.32503 0.16671 0.14708 0.0
C711 C 0.31506 0.16712 0.1264 0.0
C712 C 0.33581 0.17804 0.11066 0.0
C713 C 0.3262 0.17784 0.09116 0.0
C714 C 0.29591 0.16703 0.08724 0.0
C715 C 0.27518 0.15646 0.10282 0.0
C716 C 0.28467 0.15655 0.12234 0.0
C717 C 0.34065 0.23816 0.22251 0.0
C718 C 0.31111 0.2298 0.22772 0.0
C719 C 0.34633 0.22371 0.20701 0.0
C720 C 0.32258 0.20046 0.19655 0.0
C721 C 0.29309 0.19313 0.20099 0.0
C722 C 0.28737 0.20767 0.2165 0.0
C723 C 0.32858 0.183 0.1816 0.0
C724 C 0.31862 0.18168 0.162 0.0
C725 C 0.34491 0.16851 0.18651 0.0
C726 C 0.35445 0.1676 0.20724 0.0
C727 C 0.33338 0.15645 0.2228 0.0
C728 C 0.34255 0.15606 0.24233 0.0
C729 C 0.37272 0.16652 0.24648 0.0
C730 C 0.39376 0.17732 0.23109 0.0
C731 C 0.38471 0.17781 0.21153 0.0
H732 H 0.37978 0.1662 0.26162 0.0
H733 H 0.28851 0.16689 0.07213 0.0
H734 H 0.86319 0.26769 0.11494 0.0
H735 H 0.83765 0.23096 0.14146 0.0
H736 H 0.89387 0.19273 0.13014 0.0
H737 H 0.91901 0.22892 0.10346 0.0
H738 H 0.83692 0.1503 0.13136 0.0
H739 H 0.902 0.23416 0.17237 0.0
H740 H 0.92495 0.28585 0.18495 0.0
H741 H 0.83858 0.27064 0.20287 0.0
H742 H 0.81505 0.21895 0.19016 0.0
H743 H 0.79667 0.05558 0.21707 0.0
H744 H 0.82196 0.09239 0.19055 0.0
H745 H 0.76574 0.13047 0.20233 0.0
H746 H 0.74087 0.09421 0.22902 0.0
H747 H 0.82248 0.173 0.20084 0.0
H748 H 0.75736 0.08921 0.15994 0.0
H749 H 0.73427 0.0375 0.14738 0.0
H750 H 0.8205 0.05258 0.12921 0.0
H751 H 0.84417 0.10428 0.14191 0.0
C752 C 0.87043 0.25179 0.11837 0.0
C753 C 0.89305 0.25114 0.10712 0.0
C754 C 0.85584 0.23081 0.13352 0.0
C755 C 0.86387 0.20908 0.1378 0.0
C756 C 0.88719 0.20916 0.12703 0.0
C757 C 0.90164 0.22997 0.11185 0.0
C758 C 0.84698 0.18523 0.15272 0.0
C759 C 0.83412 0.15527 0.14664 0.0
C760 C 0.84263 0.19169 0.17249 0.0
C761 C 0.85673 0.22278 0.18013 0.0
C762 C 0.88787 0.24191 0.17884 0.0
C763 C 0.90099 0.2712 0.18603 0.0
C764 C 0.88323 0.28155 0.19466 0.0
C765 C 0.85231 0.2626 0.19616 0.0
C766 C 0.83907 0.23331 0.18898 0.0
C767 C 0.78937 0.07146 0.21374 0.0
C768 C 0.76684 0.07206 0.22512 0.0
C769 C 0.80382 0.09249 0.19859 0.0
C770 C 0.79572 0.1142 0.19443 0.0
C771 C 0.77247 0.11406 0.20534 0.0
C772 C 0.75818 0.09321 0.22052 0.0
C773 C 0.81245 0.13807 0.1795 0.0
C774 C 0.82527 0.16803 0.18556 0.0
C775 C 0.81675 0.13161 0.15971 0.0
C776 C 0.80256 0.10053 0.15206 0.0
C777 C 0.77143 0.08143 0.15342 0.0
C778 C 0.75823 0.05213 0.14624 0.0
C779 C 0.77592 0.04174 0.13755 0.0
C780 C 0.80683 0.06065 0.13597 0.0
C781 C 0.82015 0.08996 0.14314 0.0
H782 H 0.76566 0.01906 0.132 0.0
H783 H 0.89343 0.30422 0.20022 0.0
H784 H 0.91193 0.64606 0.22156 0.0
H785 H 0.87505 0.63328 0.19504 0.0
H786 H 0.89453 0.72484 0.19324 0.0
H787 H 0.93193 0.73788 0.21949 0.0
H788 H 0.8252 0.63516 0.19733 0.0
H789 H 0.87822 0.74129 0.14742 0.0
H790 H 0.92798 0.77963 0.13537 0.0
H791 H 0.96079 0.71852 0.14315 0.0
H792 H 0.91114 0.67967 0.15497 0.0
H793 H 0.75171 0.68041 0.11212 0.0
H794 H 0.78934 0.69131 0.13779 0.0
H795 H 0.76931 0.59959 0.13612 0.0
H796 H 0.73126 0.58842 0.11057 0.0
H797 H 0.83919 0.68805 0.13311 0.0
H798 H 0.78642 0.58141 0.18159 0.0
H799 H 0.73665 0.54235 0.19315 0.0
H800 H 0.7037 0.60369 0.18775 0.0
H801 H 0.75336 0.64322 0.17641 0.0
C802 C 0.90881 0.66361 0.21521 0.0
C803 C 0.92479 0.69297 0.2226 0.0
C804 C 0.88761 0.65623 0.20013 0.0
C805 C 0.88197 0.67806 0.19214 0.0
C806 C 0.89876 0.70768 0.19897 0.0
C807 C 0.92012 0.71512 0.21399 0.0
C808 C 0.8571 0.66938 0.17775 0.0
C809 C 0.82838 0.64642 0.18314 0.0
C810 C 0.86105 0.6845 0.15945 0.0
C811 C 0.89101 0.70768 0.15229 0.0
C812 C 0.89603 0.736 0.1465 0.0
C813 C 0.92422 0.75783 0.13972 0.0
C814 C 0.94756 0.75155 0.13856 0.0
C815 C 0.94273 0.7234 0.14413 0.0
C816 C 0.91457 0.70148 0.15091 0.0
C817 C 0.75485 0.66239 0.11752 0.0
C818 C 0.73855 0.63355 0.10934 0.0
C819 C 0.7765 0.66871 0.1321 0.0
C820 C 0.78222 0.64632 0.13883 0.0
C821 C 0.76508 0.61716 0.13129 0.0
C822 C 0.74331 0.61078 0.11672 0.0
C823 C 0.80734 0.65404 0.15279 0.0
C824 C 0.83609 0.67678 0.1473 0.0
C825 C 0.80344 0.63865 0.17096 0.0
C826 C 0.77353 0.61516 0.17794 0.0
C827 C 0.76858 0.58658 0.18293 0.0
C828 C 0.74038 0.56436 0.18943 0.0
C829 C 0.717 0.5705 0.19111 0.0
C830 C 0.72179 0.59892 0.18636 0.0
C831 C 0.74995 0.62123 0.17986 0.0
H832 H 0.69519 0.55327 0.19614 0.0
H833 H 0.96936 0.76848 0.1333 0.0
H834 H 0.65448 0.92505 0.87782 0.0
H835 H 0.66909 0.90032 0.853 0.0
H836 H 0.5935 0.81507 0.86933 0.0
H837 H 0.57906 0.83971 0.89454 0.0
H838 H 0.64342 0.81246 0.8699 0.0
H839 H 0.59769 0.84754 0.82364 0.0
H840 H 0.5873 0.88394 0.80697 0.0
H841 H 0.67905 0.93495 0.78843 0.0
H842 H 0.69012 0.8991 0.80526 0.0
H843 H 0.6601 0.73129 0.78928 0.0
H844 H 0.64376 0.75472 0.81408 0.0
H845 H 0.72245 0.84005 0.80255 0.0
H846 H 0.73898 0.8167 0.77769 0.0
H847 H 0.67008 0.84179 0.79927 0.0
H848 H 0.71536 0.80629 0.8461 0.0
H849 H 0.72488 0.76905 0.8624 0.0
H850 H 0.63244 0.71774 0.87934 0.0
H851 H 0.62225 0.75447 0.86288 0.0
C852 C 0.64053 0.90113 0.87581 0.0
C853 C 0.61566 0.8843 0.88817 0.0
C854 C 0.6489 0.887 0.86157 0.0
C855 C 0.63239 0.85582 0.85928 0.0
C856 C 0.60662 0.83915 0.87089 0.0
C857 C 0.59826 0.85328 0.88519 0.0
C858 C 0.64356 0.8405 0.84604 0.0
C859 C 0.64873 0.8185 0.85435 0.0
C860 C 0.65133 0.849 0.82592 0.0
C861 C 0.6448 0.87076 0.81589 0.0
C862 C 0.61573 0.86667 0.81618 0.0
C863 C 0.6097 0.88718 0.80667 0.0
C864 C 0.63252 0.91178 0.79669 0.0
C865 C 0.6614 0.9159 0.79619 0.0
C866 C 0.66757 0.89548 0.8057 0.0
C867 C 0.6743 0.7549 0.79238 0.0
C868 C 0.70079 0.77219 0.78153 0.0
C869 C 0.66492 0.76826 0.80655 0.0
C870 C 0.68185 0.79913 0.8101 0.0
C871 C 0.70904 0.81619 0.79997 0.0
C872 C 0.71856 0.80279 0.7859 0.0
C873 C 0.66998 0.8139 0.82317 0.0
C874 C 0.66468 0.83576 0.81482 0.0
C875 C 0.66194 0.80517 0.84321 0.0
C876 C 0.66799 0.78299 0.85307 0.0
C877 C 0.697 0.78692 0.85313 0.0
C878 C 0.70253 0.76593 0.86244 0.0
C879 C 0.67926 0.741 0.87185 0.0
C880 C 0.65043 0.73704 0.87202 0.0
C881 C 0.64477 0.75795 0.86271 0.0
H882 H 0.6836 0.72478 0.87906 0.0
H883 H 0.62779 0.92762 0.78932 0.0
H884 H 0.06698 0.73202 0.88076 0.0
H885 H 0.09031 0.77155 0.85578 0.0
H886 H 0.17641 0.78101 0.86912 0.0
H887 H 0.15317 0.74144 0.89423 0.0
H888 H 0.17729 0.83435 0.87067 0.0
H889 H 0.1434 0.75231 0.82522 0.0
H890 H 0.10696 0.70467 0.80952 0.0
H891 H 0.05387 0.74322 0.79114 0.0
H892 H 0.08979 0.79101 0.807 0.0
H893 H 0.25865 0.93157 0.79055 0.0
H894 H 0.23494 0.89263 0.8158 0.0
H895 H 0.14867 0.88088 0.79996 0.0
H896 H 0.17229 0.91963 0.77438 0.0
H897 H 0.14757 0.8287 0.79985 0.0
H898 H 0.18148 0.91088 0.84494 0.0
H899 H 0.21759 0.95851 0.86082 0.0
H900 H 0.2702 0.91988 0.88014 0.0
H901 H 0.23463 0.87213 0.86411 0.0
C902 C 0.09078 0.74204 0.87806 0.0
C903 C 0.10826 0.73365 0.88945 0.0
C904 C 0.10408 0.76464 0.86378 0.0
C905 C 0.1351 0.77924 0.86061 0.0
C906 C 0.15243 0.77005 0.87137 0.0
C907 C 0.1391 0.74729 0.88559 0.0
C908 C 0.1496 0.80546 0.84712 0.0
C909 C 0.17117 0.83305 0.85509 0.0
C910 C 0.14084 0.8039 0.82699 0.0
C911 C 0.11915 0.77516 0.81748 0.0
C912 C 0.12382 0.75056 0.818 0.0
C913 C 0.10328 0.72354 0.80903 0.0
C914 C 0.07807 0.72089 0.79938 0.0
C915 C 0.07339 0.74529 0.79864 0.0
C916 C 0.09384 0.77236 0.8076 0.0
C917 C 0.23471 0.9212 0.79275 0.0
C918 C 0.21731 0.9286 0.78045 0.0
C919 C 0.22118 0.89894 0.80722 0.0
C920 C 0.19001 0.88381 0.80979 0.0
C921 C 0.17275 0.89221 0.79819 0.0
C922 C 0.18629 0.91449 0.78368 0.0
C923 C 0.17533 0.85768 0.82338 0.0
C924 C 0.1537 0.83006 0.81543 0.0
C925 C 0.184 0.85924 0.84355 0.0
C926 C 0.20552 0.88799 0.85314 0.0
C927 C 0.20089 0.91261 0.85241 0.0
C928 C 0.22124 0.93962 0.86147 0.0
C929 C 0.24622 0.94225 0.87143 0.0
C930 C 0.25087 0.91783 0.87239 0.0
C931 C 0.2306 0.89078 0.86333 0.0
H932 H 0.26194 0.96317 0.87845 0.0
H933 H 0.06221 0.69996 0.79244 0.0
H934 H 0.24585 0.41136 0.89312 0.0
H935 H 0.20849 0.39545 0.8666 0.0
H936 H 0.23748 0.33605 0.84377 0.0
H937 H 0.27486 0.3517 0.87041 0.0
H938 H 0.22605 0.36826 0.81396 0.0
H939 H 0.17858 0.3077 0.87194 0.0
H940 H 0.16406 0.29939 0.90735 0.0
H941 H 0.11582 0.3466 0.90016 0.0
H942 H 0.1305 0.35565 0.86475 0.0
H943 H 0.1001 0.27566 0.75405 0.0
H944 H 0.13921 0.29307 0.77948 0.0
H945 H 0.10498 0.3458 0.80636 0.0
H946 H 0.06583 0.32855 0.78087 0.0
H947 H 0.11932 0.31729 0.83428 0.0
H948 H 0.16562 0.37907 0.77793 0.0
H949 H 0.18363 0.39419 0.74356 0.0
H950 H 0.23541 0.35025 0.7479 0.0
H951 H 0.21729 0.33439 0.78221 0.0
C952 C 0.24466 0.3953 0.88225 0.0
C953 C 0.26323 0.38269 0.88386 0.0
C954 C 0.22317 0.3861 0.8672 0.0
C955 C 0.21996 0.36427 0.85343 0.0
C956 C 0.23955 0.35283 0.85433 0.0
C957 C 0.26089 0.36182 0.86952 0.0
C958 C 0.1954 0.35251 0.83862 0.0
C959 C 0.20268 0.35666 0.81833 0.0
C960 C 0.16499 0.3383 0.84447 0.0
C961 C 0.15591 0.33262 0.86573 0.0
C962 C 0.16509 0.31654 0.87794 0.0
C963 C 0.1568 0.31166 0.89801 0.0
C964 C 0.1391 0.32254 0.90602 0.0
C965 C 0.12958 0.33824 0.89394 0.0
C966 C 0.13787 0.34323 0.87387 0.0
C967 C 0.1006 0.29059 0.76556 0.0
C968 C 0.07982 0.30067 0.76553 0.0
C969 C 0.12315 0.30074 0.77997 0.0
C970 C 0.12524 0.32103 0.79467 0.0
C971 C 0.10382 0.33022 0.79512 0.0
C972 C 0.08144 0.32031 0.78058 0.0
C973 C 0.14991 0.33283 0.80948 0.0
C974 C 0.14265 0.32871 0.82982 0.0
C975 C 0.18038 0.34744 0.80366 0.0
C976 C 0.18984 0.35528 0.7826 0.0
C977 C 0.18048 0.37223 0.77147 0.0
C978 C 0.19087 0.3811 0.75203 0.0
C979 C 0.21083 0.37338 0.74361 0.0
C980 C 0.22013 0.35641 0.75451 0.0
C981 C 0.20974 0.3474 0.77393 0.0
H982 H 0.21889 0.38033 0.72858 0.0
H983 H 0.13271 0.31874 0.92156 0.0
H984 H 0.9836 0.40813 0.44375 0.0
H985 H 0.97287 0.43619 0.46839 0.0
H986 H 0.06737 0.49538 0.47738 0.0
H987 H 0.07845 0.46761 0.45232 0.0
H988 H 0.02789 0.47581 0.51375 0.0
H989 H 0.03934 0.52035 0.44875 0.0
H990 H 0.02934 0.51907 0.41275 0.0
H991 H 0.93609 0.48504 0.42466 0.0
H992 H 0.94545 0.48555 0.46075 0.0
H993 H 0.02169 0.59541 0.55868 0.0
H994 H 0.03431 0.56827 0.53444 0.0
H995 H 0.94112 0.51401 0.51891 0.0
H996 H 0.92816 0.54098 0.54338 0.0
H997 H 0.98039 0.53115 0.48583 0.0
H998 H 0.96721 0.48612 0.54986 0.0
H999 H 0.97467 0.48412 0.58598 0.0
H1000 H 0.06804 0.51577 0.57636 0.0
H1001 H 0.06126 0.51855 0.54018 0.0
C1002 C 0.00217 0.42675 0.45122 0.0
C1003 C 0.0319 0.43583 0.446 0.0
C1004 C 0.99596 0.44278 0.46526 0.0
C1005 C 0.01933 0.46798 0.47446 0.0
C1006 C 0.04907 0.47597 0.47034 0.0
C1007 C 0.05535 0.46011 0.45607 0.0
C1008 C 0.01246 0.48715 0.48716 0.0
C1009 C 0.01798 0.48833 0.50766 0.0
C1010 C -0.00131 0.50267 0.47915 0.0
C1011 C 0.99305 0.50268 0.45746 0.0
C1012 C 0.01666 0.51232 0.4437 0.0
C1013 C 0.01111 0.51177 0.42327 0.0
C1014 C 0.98209 0.50191 0.41641 0.0
C1015 C 0.95856 0.49263 0.42999 0.0
C1016 C 0.96397 0.49305 0.45043 0.0
C1017 C 0.00389 0.57811 0.54984 0.0
C1018 C 0.97388 0.57017 0.55302 0.0
C1019 C 0.01116 0.56253 0.53608 0.0
C1020 C 0.98859 0.53885 0.52517 0.0
C1021 C 0.95881 0.53216 0.5273 0.0
C1022 C 0.95146 0.54761 0.54123 0.0
C1023 C 0.99604 0.52007 0.51247 0.0
C1024 C 0.9905 0.51883 0.49195 0.0
C1025 C 0.00953 0.50427 0.52051 0.0
C1026 C 0.01379 0.5029 0.5423 0.0
C1027 C 0.98941 0.49301 0.55545 0.0
C1028 C 0.9935 0.49166 0.57594 0.0
C1029 C 0.02182 0.49988 0.58346 0.0
C1030 C 0.04612 0.50946 0.57051 0.0
C1031 C 0.04217 0.51093 0.55001 0.0
H1032 H 0.02492 0.49874 0.59932 0.0
H1033 H 0.97785 0.50152 0.40059 0.0
H1034 H 0.59447 0.60231 0.46222 0.0
H1035 H 0.56916 0.56195 0.48642 0.0
H1036 H 0.48351 0.54407 0.46387 0.0
H1037 H 0.50872 0.5846 0.43958 0.0
H1038 H 0.48396 0.53759 0.50532 0.0
H1039 H 0.51076 0.50382 0.44666 0.0
H1040 H 0.54491 0.50592 0.42024 0.0
H1041 H 0.60037 0.49652 0.464 0.0
H1042 H 0.5668 0.49488 0.49074 0.0
H1043 H 0.40372 0.39296 0.54713 0.0
H1044 H 0.4244 0.43118 0.52105 0.0
H1045 H 0.51378 0.45421 0.53869 0.0
H1046 H 0.49328 0.41591 0.56467 0.0
H1047 H 0.50869 0.45664 0.49815 0.0
H1048 H 0.48285 0.49292 0.55684 0.0
H1049 H 0.44879 0.49132 0.58317 0.0
H1050 H 0.39103 0.49583 0.53895 0.0
H1051 H 0.42456 0.497 0.51232 0.0
C1052 C 0.57025 0.5903 0.46271 0.0
C1053 C 0.55358 0.59644 0.44888 0.0
C1054 C 0.55582 0.56712 0.47648 0.0
C1055 C 0.52449 0.54964 0.47663 0.0
C1056 C 0.50772 0.5572 0.46389 0.0
C1057 C 0.52216 0.58039 0.45006 0.0
C1058 C 0.50953 0.52218 0.48897 0.0
C1059 C 0.48901 0.51969 0.50358 0.0
C1060 C 0.51639 0.49897 0.48679 0.0
C1061 C 0.5364 0.4995 0.47073 0.0
C1062 C 0.53036 0.50242 0.45067 0.0
C1063 C 0.5496 0.5035 0.43563 0.0
C1064 C 0.57483 0.50141 0.44044 0.0
C1065 C 0.58083 0.49816 0.4603 0.0
C1066 C 0.56169 0.49713 0.47541 0.0
C1067 C 0.42776 0.40565 0.54514 0.0
C1068 C 0.4469 0.4016 0.55805 0.0
C1069 C 0.43954 0.42762 0.53032 0.0
C1070 C 0.47063 0.44593 0.52822 0.0
C1071 C 0.48972 0.44044 0.54013 0.0
C1072 C 0.47797 0.41852 0.55497 0.0
C1073 C 0.48336 0.47217 0.51468 0.0
C1074 C 0.50347 0.47444 0.49982 0.0
C1075 C 0.47605 0.49512 0.5166 0.0
C1076 C 0.45604 0.49472 0.53259 0.0
C1077 C 0.46277 0.49334 0.55273 0.0
C1078 C 0.44358 0.49255 0.56771 0.0
C1079 C 0.41772 0.49339 0.56273 0.0
C1080 C 0.41105 0.49512 0.54277 0.0
C1081 C 0.43014 0.49587 0.52774 0.0
H1082 H 0.40288 0.49277 0.57435 0.0
H1083 H 0.58971 0.50226 0.42878 0.0
H1084 H 0.55184 0.04431 0.58086 0.0
H1085 H 0.51567 0.02776 0.55362 0.0
H1086 H 0.57265 0.00696 0.51828 0.0
H1087 H 0.60892 0.02311 0.54573 0.0
H1088 H 0.54907 0.03595 0.4966 0.0
H1089 H 0.51636 0.95339 0.53964 0.0
H1090 H 0.50044 0.92302 0.57023 0.0
H1091 H 0.42459 0.93572 0.57507 0.0
H1092 H 0.44072 0.96727 0.54498 0.0
H1093 H 0.39696 0.91896 0.44788 0.0
H1094 H 0.43485 0.9319 0.47382 0.0
H1095 H 0.46001 0.02489 0.46851 0.0
H1096 H 0.42291 0.01219 0.44218 0.0
H1097 H 0.44468 0.95521 0.5089 0.0
H1098 H 0.53398 0.06956 0.47547 0.0
H1099 H 0.55 0.0933 0.44245 0.0
H1100 H 0.51426 0.00693 0.41513 0.0
H1101 H 0.49843 0.98271 0.448 0.0
C1102 C 0.55691 0.03659 0.5672 0.0
C1103 C 0.58326 0.03506 0.56539 0.0
C1104 C 0.5361 0.02694 0.55171 0.0
C1105 C 0.54134 0.01584 0.53403 0.0
C1106 C 0.56818 0.01538 0.53184 0.0
C1107 C 0.58886 0.02464 0.54749 0.0
C1108 C 0.51852 0.00441 0.518 0.0
C1109 C 0.52623 0.01833 0.49929 0.0
C1110 C 0.48895 0.98076 0.52136 0.0
C1111 C 0.48003 0.96312 0.54013 0.0
C1112 C 0.49663 0.95028 0.54743 0.0
C1113 C 0.48752 0.93276 0.56468 0.0
C1114 C 0.46155 0.92748 0.57461 0.0
C1115 C 0.44472 0.93984 0.56737 0.0
C1116 C 0.45395 0.95771 0.55028 0.0
C1117 C 0.41038 0.94211 0.45241 0.0
C1118 C 0.40711 0.96459 0.44295 0.0
C1119 C 0.43207 0.9495 0.4672 0.0
C1120 C 0.45075 0.97946 0.47284 0.0
C1121 C 0.44644 0.00172 0.46406 0.0
C1122 C 0.42504 0.9944 0.44913 0.0
C1123 C 0.47488 0.98753 0.48776 0.0
C1124 C 0.46747 0.97292 0.50625 0.0
C1125 C 0.50491 0.00992 0.48402 0.0
C1126 C 0.51478 0.02433 0.4642 0.0
C1127 C 0.52967 0.05565 0.46243 0.0
C1128 C 0.5387 0.06919 0.44373 0.0
C1129 C 0.53308 0.05163 0.4267 0.0
C1130 C 0.51852 0.0205 0.42833 0.0
C1131 C 0.50949 0.00686 0.44699 0.0
H1132 H 0.54005 0.06216 0.41224 0.0
H1133 H 0.45445 0.91377 0.5879 0.0
H1134 H 0.26691 0.99682 0.03435 0.0
H1135 H 0.23055 0.94514 0.02547 0.0
H1136 H 0.29486 0.91805 0.04033 0.0
H1137 H 0.33124 0.96966 0.04954 0.0
H1138 H 0.26933 0.90141 0.00149 0.0
H1139 H 0.2386 0.89498 0.06939 0.0
H1140 H 0.22296 0.91078 0.09953 0.0
H1141 H 0.14537 0.90058 0.06886 0.0
H1142 H 0.16079 0.88514 0.03842 0.0
H1143 H 0.16756 0.74898 0.98049 0.0
H1144 H 0.20335 0.79413 0.99842 0.0
H1145 H 0.14245 0.82835 0.99427 0.0
H1146 H 0.10642 0.78312 0.97665 0.0
H1147 H 0.16807 0.83909 0.03044 0.0
H1148 H 0.20017 0.85172 0.96225 0.0
H1149 H 0.21531 0.8383 0.93085 0.0
H1150 H 0.28961 0.83952 0.96057 0.0
H1151 H 0.27465 0.85256 0.99223 0.0
C1152 C 0.27313 0.97976 0.03599 0.0
C1153 C 0.30185 0.98717 0.04258 0.0
C1154 C 0.25235 0.95029 0.031 0.0
C1155 C 0.26009 0.9279 0.03233 0.0
C1156 C 0.28854 0.9351 0.03929 0.0
C1157 C 0.3092 0.9645 0.04457 0.0
C1158 C 0.2392 0.8975 0.02499 0.0
C1159 C 0.24741 0.88744 0.00805 0.0
C1160 C 0.21038 0.87988 0.03328 0.0
C1161 C 0.201 0.88914 0.05156 0.0
C1162 C 0.21835 0.89636 0.06901 0.0
C1163 C 0.20949 0.9052 0.08617 0.0
C1164 C 0.18322 0.90675 0.0861 0.0
C1165 C 0.16573 0.89939 0.06888 0.0
C1166 C 0.1745 0.89056 0.05168 0.0
C1167 C 0.16175 0.76606 0.98354 0.0
C1168 C 0.13433 0.76269 0.97708 0.0
C1169 C 0.18221 0.79182 0.99373 0.0
C1170 C 0.17565 0.81468 0.99747 0.0
C1171 C 0.14792 0.81094 0.99154 0.0
C1172 C 0.12743 0.78518 0.9814 0.0
C1173 C 0.1981 0.84306 0.00682 0.0
C1174 C 0.19015 0.85282 0.02406 0.0
C1175 C 0.22707 0.86067 0.99865 0.0
C1176 C 0.23607 0.85274 0.97966 0.0
C1177 C 0.21957 0.84885 0.96213 0.0
C1178 C 0.22815 0.84137 0.94428 0.0
C1179 C 0.25335 0.83795 0.94373 0.0
C1180 C 0.27006 0.8421 0.96103 0.0
C1181 C 0.26155 0.84955 0.97893 0.0
H1182 H 0.25997 0.83218 0.9299 0.0
H1183 H 0.17639 0.91359 0.0994 0.0
H1184 H 0.00749 0.34412 0.01031 0.0
H1185 H 0.05729 0.35645 0.99907 0.0
H1186 H 0.06379 0.305 0.04758 0.0
H1187 H 0.01442 0.294 0.05952 0.0
H1188 H 0.11466 0.35214 0.04341 0.0
H1189 H 0.04772 0.27859 0.99804 0.0
H1190 H 0.00609 0.25407 0.97412 0.0
H1191 H 0.0508 0.32873 0.93427 0.0
H1192 H 0.09248 0.35395 0.9581 0.0
H1193 H 0.23005 0.33808 0.98828 0.0
H1194 H 0.18317 0.32636 0.00508 0.0
H1195 H 0.18605 0.40329 0.97765 0.0
H1196 H 0.23322 0.41563 0.96125 0.0
H1197 H 0.13099 0.33991 0.97203 0.0
H1198 H 0.19768 0.41295 0.02069 0.0
H1199 H 0.23928 0.43272 0.0448 0.0
H1200 H 0.19398 0.35123 0.07849 0.0
H1201 H 0.1523 0.3308 0.05438 0.0
C1202 C 0.01958 0.33546 0.01857 0.0
C1203 C 0.00713 0.31793 0.03566 0.0
C1204 C 0.04796 0.34237 0.01208 0.0
C1205 C 0.06403 0.33104 0.02217 0.0
C1206 C 0.05177 0.31388 0.03948 0.0
C1207 C 0.02359 0.30754 0.04626 0.0
C1208 C 0.09365 0.33735 0.01465 0.0
C1209 C 0.11805 0.34902 0.02785 0.0
C1210 C 0.09823 0.33334 0.99433 0.0
C1211 C 0.07311 0.3183 0.97997 0.0
C1212 C 0.04857 0.28991 0.98426 0.0
C1213 C 0.02497 0.27586 0.9707 0.0
C1214 C 0.02576 0.28987 0.95271 0.0
C1215 C 0.05019 0.31793 0.94823 0.0
C1216 C 0.07381 0.3321 0.96175 0.0
C1217 C 0.22089 0.35273 0.98612 0.0
C1218 C 0.23513 0.37772 0.97348 0.0
C1219 C 0.19425 0.34605 0.99572 0.0
C1220 C 0.1814 0.36404 0.99254 0.0
C1221 C 0.19586 0.3893 0.98027 0.0
C1222 C 0.22276 0.39632 0.97099 0.0
C1223 C 0.15165 0.35521 0.00069 0.0
C1224 C 0.1273 0.34286 0.98758 0.0
C1225 C 0.14703 0.35789 0.02111 0.0
C1226 C 0.17206 0.37021 0.03559 0.0
C1227 C 0.19675 0.39911 0.03311 0.0
C1228 C 0.2203 0.41047 0.04681 0.0
C1229 C 0.21933 0.3932 0.06313 0.0
C1230 C 0.19474 0.36456 0.06582 0.0
C1231 C 0.17114 0.35309 0.05215 0.0
H1232 H 0.23758 0.40204 0.07372 0.0
H1233 H 0.00748 0.27895 0.94223 0.0
H1234 H 0.71882 0.71941 0.02867 0.0
H1235 H 0.70498 0.75634 0.01841 0.0
H1236 H 0.61698 0.7017 0.0435 0.0
H1237 H 0.63078 0.66467 0.05398 0.0
H1238 H 0.61718 0.72108 0.00417 0.0
H1239 H 0.66255 0.76268 0.06712 0.0
H1240 H 0.70204 0.78034 0.09271 0.0
H1241 H 0.76418 0.84714 0.05241 0.0
H1242 H 0.72517 0.8296 0.02646 0.0
H1243 H 0.57792 0.83225 0.98372 0.0
H1244 H 0.58624 0.79555 0.0014 0.0
H1245 H 0.68046 0.84697 0.98769 0.0
H1246 H 0.67241 0.88406 0.97052 0.0
H1247 H 0.67308 0.82768 0.0246 0.0
H1248 H 0.63158 0.7842 0.96089 0.0
H1249 H 0.5944 0.76612 0.93376 0.0
H1250 H 0.52765 0.70269 0.97354 0.0
H1251 H 0.56436 0.72071 0.00099 0.0
C1252 C 0.69662 0.71541 0.03216 0.0
C1253 C 0.67591 0.68932 0.04219 0.0
C1254 C 0.68879 0.73653 0.02635 0.0
C1255 C 0.66007 0.73179 0.03037 0.0
C1256 C 0.6393 0.70576 0.04039 0.0
C1257 C 0.64725 0.68476 0.04642 0.0
C1258 C 0.65154 0.75358 0.02329 0.0
C1259 C 0.62893 0.74429 0.00891 0.0
C1260 C 0.6675 0.78391 0.02916 0.0
C1261 C 0.69097 0.79467 0.04479 0.0
C1262 C 0.68469 0.78099 0.06366 0.0
C1263 C 0.70698 0.79101 0.07824 0.0
C1264 C 0.73561 0.81481 0.07418 0.0
C1265 C 0.74199 0.8287 0.05554 0.0
C1266 C 0.71979 0.81875 0.04089 0.0
C1267 C 0.60042 0.83577 0.9846 0.0
C1268 C 0.62451 0.8609 0.97569 0.0
C1269 C 0.60512 0.81475 0.99462 0.0
C1270 C 0.63391 0.81832 0.99563 0.0
C1271 C 0.65807 0.84377 0.98711 0.0
C1272 C 0.65342 0.8649 0.97725 0.0
C1273 C 0.63899 0.79536 0.00518 0.0
C1274 C 0.66099 0.80442 0.02003 0.0
C1275 C 0.62274 0.76486 0.99953 0.0
C1276 C 0.60061 0.75409 0.98306 0.0
C1277 C 0.6089 0.7666 0.9639 0.0
C1278 C 0.58793 0.75632 0.94845 0.0
C1279 C 0.55865 0.73335 0.95194 0.0
C1280 C 0.55032 0.72054 0.97087 0.0
C1281 C 0.57119 0.73078 0.98638 0.0
H1282 H 0.54245 0.72541 0.93996 0.0
H1283 H 0.75284 0.82253 0.08549 0.0
H1284 H 0.65673 0.00623 0.98597 0.0
H1285 H 0.69556 0.05666 0.99547 0.0
H1286 H 0.74579 0.06242 0.94269 0.0
H1287 H 0.70672 0.01204 0.93288 0.0
H1288 H 0.77902 0.07918 0.98006 0.0
H1289 H 0.71301 0.09997 0.9414 0.0
H1290 H 0.66399 0.0936 0.93193 0.0
H1291 H 0.65396 0.12101 0.99041 0.0
H1292 H 0.70275 0.12713 0.00033 0.0
H1293 H 0.88678 0.22998 0.99716 0.0
H1294 H 0.84883 0.18511 0.9801 0.0
H1295 H 0.7823 0.17792 0.02216 0.0
H1296 H 0.81991 0.22341 0.03878 0.0
H1297 H 0.75825 0.16283 0.98684 0.0
H1298 H 0.81894 0.13723 0.0273 0.0
H1299 H 0.86588 0.1411 0.03939 0.0
H1300 H 0.88371 0.12004 0.98095 0.0
H1301 H 0.83703 0.11643 0.96845 0.0
C1302 C 0.67605 0.01824 0.97639 0.0
C1303 C 0.67879 0.00532 0.9587 0.0
C1304 C 0.69808 0.04703 0.98179 0.0
C1305 C 0.72331 0.06318 0.96968 0.0
C1306 C 0.72635 0.05022 0.95215 0.0
C1307 C 0.70407 0.02156 0.94658 0.0
C1308 C 0.74673 0.09342 0.97567 0.0
C1309 C 0.77478 0.0977 0.98118 0.0
C1310 C 0.74065 0.11711 0.97765 0.0
C1311 C 0.71144 0.11377 0.97165 0.0
C1312 C 0.70025 0.10442 0.95229 0.0
C1313 C 0.67252 0.10089 0.94684 0.0
C1314 C 0.65584 0.10684 0.96058 0.0
C1315 C 0.6669 0.1164 0.97979 0.0
C1316 C 0.69461 0.11994 0.98533 0.0
C1317 C 0.86396 0.21901 0.00259 0.0
C1318 C 0.85627 0.22995 0.01937 0.0
C1319 C 0.84235 0.19333 0.9929 0.0
C1320 C 0.81287 0.17782 0.00012 0.0
C1321 C 0.80492 0.18949 0.01637 0.0
C1322 C 0.82643 0.21542 0.02588 0.0
C1323 C 0.79066 0.14867 0.99144 0.0
C1324 C 0.76275 0.14451 0.98547 0.0
C1325 C 0.79666 0.12485 0.9894 0.0
C1326 C 0.82468 0.1269 0.99689 0.0
C1327 C 0.83299 0.13364 0.017 0.0
C1328 C 0.85953 0.13576 0.02393 0.0
C1329 C 0.87781 0.13091 0.01093 0.0
C1330 C 0.86955 0.12385 0.99099 0.0
C1331 C 0.84305 0.12175 0.98397 0.0
H1332 H 0.89835 0.13255 0.01632 0.0
H1333 H 0.63437 0.10408 0.95633 0.0
H1334 H 0.755 0.57991 0.02897 0.0
H1335 H 0.8013 0.58504 0.01513 0.0
H1336 H 0.83258 0.67784 0.00195 0.0
H1337 H 0.7865 0.67293 0.01567 0.0
H1338 H 0.82953 0.60299 0.97804 0.0
H1339 H 0.90597 0.71698 0.01662 0.0
H1340 H 0.90614 0.74411 0.04691 0.0
H1341 H 0.8478 0.66082 0.07606 0.0
H1342 H 0.84766 0.6332 0.04609 0.0
H1343 H 0.97486 0.67379 0.9358 0.0
H1344 H 0.92559 0.66138 0.94858 0.0
H1345 H 0.95067 0.64652 0.00701 0.0
H1346 H 0.00022 0.6598 0.99445 0.0
H1347 H 0.92436 0.67782 0.01022 0.0
H1348 H 0.90261 0.58781 0.97644 0.0
H1349 H 0.90226 0.55695 0.94831 0.0
H1350 H 0.85085 0.58502 0.91348 0.0
H1351 H 0.85126 0.61638 0.94131 0.0
C1352 C 0.77162 0.60129 0.02289 0.0
C1353 C 0.76731 0.62609 0.0235 0.0
C1354 C 0.79794 0.60414 0.01497 0.0
C1355 C 0.82037 0.63188 0.00777 0.0
C1356 C 0.81559 0.65633 0.00765 0.0
C1357 C 0.78926 0.65347 0.01544 0.0
C1358 C 0.84946 0.63584 0.0013 0.0
C1359 C 0.85032 0.61931 0.98503 0.0
C1360 C 0.87637 0.65661 0.01082 0.0
C1361 C 0.87656 0.67305 0.02901 0.0
C1362 C 0.89326 0.70446 0.02952 0.0
C1363 C 0.89335 0.71992 0.04663 0.0
C1364 C 0.87692 0.7042 0.06338 0.0
C1365 C 0.86043 0.67298 0.06306 0.0
C1366 C 0.8603 0.65741 0.046 0.0
C1367 C 0.9698 0.66782 0.95135 0.0
C1368 C 0.9913 0.66777 0.96416 0.0
C1369 C 0.94161 0.66057 0.95861 0.0
C1370 C 0.93434 0.65266 0.9787 0.0
C1371 C 0.95582 0.65256 0.99146 0.0
C1372 C 0.98408 0.66011 0.98427 0.0
C1373 C 0.90467 0.64544 0.98658 0.0
C1374 C 0.90366 0.66142 0.00318 0.0
C1375 C 0.87762 0.62362 0.97764 0.0
C1376 C 0.87718 0.60464 0.96091 0.0
C1377 C 0.89141 0.58756 0.96273 0.0
C1378 C 0.89117 0.56996 0.94685 0.0
C1379 C 0.8766 0.56907 0.92911 0.0
C1380 C 0.86216 0.58574 0.92723 0.0
C1381 C 0.86235 0.60341 0.94306 0.0
H1382 H 0.87644 0.55544 0.91682 0.0
H1383 H 0.87701 0.71621 0.07661 0.0
H1384 H 0.29633 0.29264 0.93215 0.0
H1385 H 0.30628 0.25312 0.9431 0.0
H1386 H 0.36356 0.31061 0.98979 0.0
H1387 H 0.35338 0.34994 0.97912 0.0
H1388 H 0.38794 0.28062 0.96913 0.0
H1389 H 0.29583 0.25917 0.00147 0.0
H1390 H 0.24392 0.24935 0.00264 0.0
H1391 H 0.2154 0.17216 0.96544 0.0
H1392 H 0.26726 0.18179 0.96381 0.0
H1393 H 0.39627 0.17884 0.03585 0.0
H1394 H 0.38968 0.2173 0.01929 0.0
H1395 H 0.32508 0.15084 0.9794 0.0
H1396 H 0.33106 0.11211 0.99625 0.0
H1397 H 0.30446 0.18433 0.99392 0.0
H1398 H 0.39586 0.20325 0.96347 0.0
H1399 H 0.44771 0.21295 0.96219 0.0
H1400 H 0.47781 0.29436 0.99506 0.0
H1401 H 0.42606 0.28494 0.9968 0.0
C1402 C 0.31108 0.29683 0.94471 0.0
C1403 C 0.32407 0.3243 0.95484 0.0
C1404 C 0.31672 0.27429 0.95094 0.0
C1405 C 0.33554 0.27899 0.96729 0.0
C1406 C 0.34902 0.30662 0.97712 0.0
C1407 C 0.34314 0.32901 0.97105 0.0
C1408 C 0.34054 0.25483 0.97457 0.0
C1409 C 0.36978 0.25961 0.9747 0.0
C1410 C 0.31666 0.22725 0.98134 0.0
C1411 C 0.28548 0.22141 0.98232 0.0
C1412 C 0.27854 0.24027 0.99339 0.0
C1413 C 0.24912 0.2347 0.99416 0.0
C1414 C 0.22639 0.2102 0.98407 0.0
C1415 C 0.23304 0.19116 0.97322 0.0
C1416 C 0.26244 0.19666 0.97237 0.0
C1417 C 0.38091 0.17249 0.02341 0.0
C1418 C 0.36418 0.14252 0.01731 0.0
C1419 C 0.37726 0.1945 0.0139 0.0
C1420 C 0.35713 0.18699 0.99796 0.0
C1421 C 0.34076 0.15712 0.99165 0.0
C1422 C 0.34424 0.13505 0.00125 0.0
C1423 C 0.35199 0.21004 0.98861 0.0
C1424 C 0.32267 0.20512 0.98814 0.0
C1425 C 0.37582 0.23745 0.98146 0.0
C1426 C 0.40701 0.24324 0.98041 0.0
C1427 C 0.41349 0.2231 0.97057 0.0
C1428 C 0.44287 0.22857 0.96973 0.0
C1429 C 0.46603 0.25422 0.97858 0.0
C1430 C 0.45985 0.27449 0.98824 0.0
C1431 C 0.43049 0.26911 0.98913 0.0
H1432 H 0.48876 0.25841 0.97791 0.0
H1433 H 0.20363 0.20592 0.9847 0.0
H1434 H 0.00202 0.32585 0.34318 0.0
H1435 H 0.96514 0.27623 0.33122 0.0
H1436 H 0.92111 0.2559 0.38845 0.0
H1437 H 0.95897 0.30515 0.40077 0.0
H1438 H 0.92137 0.209 0.37562 0.0
H1439 H 0.89393 0.27632 0.34691 0.0
H1440 H 0.90086 0.32059 0.32838 0.0
H1441 H 0.92316 0.28894 0.27563 0.0
H1442 H 0.91679 0.24467 0.29392 0.0
H1443 H 0.77948 0.09358 0.33498 0.0
H1444 H 0.81902 0.1394 0.35052 0.0
H1445 H 0.87951 0.14893 0.30311 0.0
H1446 H 0.84043 0.10283 0.28776 0.0
H1447 H 0.86937 0.20028 0.31167 0.0
H1448 H 0.8953 0.13153 0.34264 0.0
H1449 H 0.88456 0.0869 0.3623 0.0
H1450 H 0.85957 0.12137 0.41236 0.0
H1451 H 0.86974 0.16603 0.39288 0.0
C1452 C 0.9845 0.31075 0.35321 0.0
C1453 C 0.98312 0.31933 0.37282 0.0
C1454 C 0.96335 0.28246 0.34635 0.0
C1455 C 0.93993 0.26256 0.35879 0.0
C1456 C 0.93891 0.27091 0.37855 0.0
C1457 C 0.96045 0.29904 0.38555 0.0
C1458 C 0.91643 0.23321 0.35108 0.0
C1459 C 0.90975 0.20718 0.36177 0.0
C1460 C 0.90133 0.23072 0.33293 0.0
C1461 C 0.90516 0.25731 0.32185 0.0
C1462 C 0.90054 0.27891 0.3314 0.0
C1463 C 0.90433 0.30399 0.32093 0.0
C1464 C 0.91252 0.30762 0.30085 0.0
C1465 C 0.91686 0.28612 0.29119 0.0
C1466 C 0.91314 0.26102 0.3016 0.0
C1467 C 0.80136 0.10524 0.32806 0.0
C1468 C 0.80697 0.09477 0.31019 0.0
C1469 C 0.82385 0.13129 0.33694 0.0
C1470 C 0.85202 0.14735 0.32789 0.0
C1471 C 0.85784 0.13667 0.31026 0.0
C1472 C 0.83557 0.11036 0.30158 0.0
C1473 C 0.87479 0.1764 0.33608 0.0
C1474 C 0.88112 0.20229 0.32551 0.0
C1475 C 0.889 0.17876 0.3545 0.0
C1476 C 0.88295 0.15196 0.36623 0.0
C1477 C 0.88721 0.12945 0.35777 0.0
C1478 C 0.8813 0.10418 0.3689 0.0
C1479 C 0.8713 0.10125 0.38855 0.0
C1480 C 0.86727 0.12364 0.39713 0.0
C1481 C 0.87313 0.14895 0.38606 0.0
H1482 H 0.86674 0.08168 0.39714 0.0
H1483 H 0.91544 0.32704 0.29277 0.0
H1484 H 0.89001 0.7316 0.29167 0.0
H1485 H 0.84652 0.72494 0.31032 0.0
H1486 H 0.86423 0.67701 0.35606 0.0
H1487 H 0.90735 0.68288 0.33711 0.0
H1488 H 0.80788 0.64742 0.34622 0.0
H1489 H 0.87525 0.74828 0.3642 0.0
H1490 H 0.9128 0.80139 0.35913 0.0
H1491 H 0.85008 0.81333 0.32391 0.0
H1492 H 0.81225 0.76017 0.32852 0.0
H1493 H 0.69037 0.64303 0.40617 0.0
H1494 H 0.74088 0.65569 0.39559 0.0
H1495 H 0.72862 0.69098 0.34037 0.0
H1496 H 0.67813 0.67808 0.35068 0.0
H1497 H 0.78482 0.72822 0.35974 0.0
H1498 H 0.72019 0.62529 0.33917 0.0
H1499 H 0.68295 0.57223 0.34493 0.0
H1500 H 0.74206 0.56512 0.38677 0.0
H1501 H 0.77949 0.6183 0.38145 0.0
C1502 C 0.88485 0.71997 0.30582 0.0
C1503 C 0.902 0.70772 0.31295 0.0
C1504 C 0.86009 0.71632 0.31653 0.0
C1505 C 0.85231 0.70078 0.33472 0.0
C1506 C 0.86985 0.68912 0.34208 0.0
C1507 C 0.89449 0.69254 0.33127 0.0
C1508 C 0.82468 0.69497 0.34525 0.0
C1509 C 0.80317 0.66521 0.34958 0.0
C1510 C 0.81831 0.7181 0.34939 0.0
C1511 C 0.84097 0.75015 0.3466 0.0
C1512 C 0.86952 0.76217 0.35525 0.0
C1513 C 0.89085 0.7923 0.35248 0.0
C1514 C 0.88385 0.81071 0.34118 0.0
C1515 C 0.85547 0.79904 0.33265 0.0
C1516 C 0.83406 0.76891 0.33537 0.0
C1517 C 0.69852 0.65355 0.3918 0.0
C1518 C 0.68037 0.65946 0.37918 0.0
C1519 C 0.72729 0.66074 0.38581 0.0
C1520 C 0.73832 0.67422 0.36722 0.0
C1521 C 0.72045 0.68067 0.3548 0.0
C1522 C 0.6916 0.67313 0.36065 0.0
C1523 C 0.76815 0.68081 0.36031 0.0
C1524 C 0.78994 0.71064 0.35667 0.0
C1525 C 0.77491 0.65782 0.35696 0.0
C1526 C 0.75247 0.62585 0.36011 0.0
C1527 C 0.72512 0.61248 0.34974 0.0
C1528 C 0.70401 0.58238 0.35289 0.0
C1529 C 0.71009 0.56534 0.36626 0.0
C1530 C 0.73735 0.57836 0.37645 0.0
C1531 C 0.75853 0.60847 0.37337 0.0
H1532 H 0.69373 0.54203 0.36868 0.0
H1533 H 0.9004 0.83403 0.33905 0.0
H1534 H 0.2673 0.15501 0.2901 0.0
H1535 H 0.27064 0.11469 0.30673 0.0
H1536 H 0.31042 0.1712 0.3581 0.0
H1537 H 0.30816 0.21197 0.34117 0.0
H1538 H 0.34217 0.14778 0.34809 0.0
H1539 H 0.2379 0.10839 0.35858 0.0
H1540 H 0.18557 0.09217 0.34983 0.0
H1541 H 0.18323 0.02541 0.31059 0.0
H1542 H 0.2357 0.04152 0.31887 0.0
H1543 H 0.34152 0.0296 0.40367 0.0
H1544 H 0.32713 0.06633 0.39353 0.0
H1545 H 0.30521 0.02729 0.33484 0.0
H1546 H 0.3201 0.99095 0.34471 0.0
H1547 H 0.26216 0.04136 0.35193 0.0
H1548 H 0.36853 0.08565 0.33946 0.0
H1549 H 0.42061 0.1019 0.34898 0.0
H1550 H 0.41757 0.15978 0.39366 0.0
H1551 H 0.36527 0.14351 0.38458 0.0
C1552 C 0.27631 0.15864 0.30507 0.0
C1553 C 0.28757 0.18659 0.31435 0.0
C1554 C 0.27805 0.13553 0.31461 0.0
C1555 C 0.29052 0.13979 0.33377 0.0
C1556 C 0.30074 0.1674 0.34332 0.0
C1557 C 0.2994 0.19065 0.33367 0.0
C1558 C 0.29537 0.11647 0.34303 0.0
C1559 C 0.32444 0.12465 0.34931 0.0
C1560 C 0.27245 0.08612 0.34428 0.0
C1561 C 0.24086 0.07636 0.33923 0.0
C1562 C 0.22632 0.09042 0.34796 0.0
C1563 C 0.19661 0.08121 0.3431 0.0
C1564 C 0.18111 0.05782 0.32963 0.0
C1565 C 0.19527 0.04354 0.32101 0.0
C1566 C 0.22499 0.05269 0.3258 0.0
C1567 C 0.33352 0.02881 0.38864 0.0
C1568 C 0.33211 0.00764 0.37491 0.0
C1569 C 0.32528 0.04971 0.38291 0.0
C1570 C 0.31521 0.04945 0.36345 0.0
C1571 C 0.31288 0.02773 0.34993 0.0
C1572 C 0.32155 0.00715 0.35555 0.0
C1573 C 0.30878 0.07289 0.35679 0.0
C1574 C 0.27958 0.06465 0.35095 0.0
C1575 C 0.33145 0.10325 0.35609 0.0
C1576 C 0.36289 0.11309 0.36152 0.0
C1577 C 0.37887 0.10162 0.35145 0.0
C1578 C 0.40845 0.11088 0.35673 0.0
C1579 C 0.42236 0.13178 0.37196 0.0
C1580 C 0.40674 0.14354 0.3819 0.0
C1581 C 0.37714 0.13432 0.37668 0.0
H1582 H 0.44526 0.13893 0.37603 0.0
H1583 H 0.1581 0.05072 0.32589 0.0
H1584 H 0.55284 0.53422 0.37887 0.0
H1585 H 0.51922 0.48888 0.36048 0.0
H1586 H 0.49552 0.54026 0.32142 0.0
H1587 H 0.5284 0.58558 0.34027 0.0
H1588 H 0.44746 0.49249 0.33307 0.0
H1589 H 0.54066 0.51112 0.3058 0.0
H1590 H 0.59297 0.52211 0.30656 0.0
H1591 H 0.56601 0.44008 0.33803 0.0
H1592 H 0.51358 0.42878 0.33771 0.0
H1593 H 0.35997 0.36601 0.27225 0.0
H1594 H 0.40086 0.41526 0.2821 0.0
H1595 H 0.42711 0.37415 0.32781 0.0
H1596 H 0.38662 0.32487 0.31786 0.0
H1597 H 0.47546 0.41902 0.30883 0.0
H1598 H 0.38355 0.40382 0.33901 0.0
H1599 H 0.33128 0.393 0.33842 0.0
H1600 H 0.35661 0.46944 0.30096 0.0
H1601 H 0.40899 0.48047 0.30111 0.0
C1602 C 0.54068 0.53588 0.36624 0.0
C1603 C 0.54318 0.56336 0.36096 0.0
C1604 C 0.52161 0.50999 0.35566 0.0
C1605 C 0.50518 0.51123 0.33937 0.0
C1606 C 0.50804 0.5388 0.3339 0.0
C1607 C 0.52682 0.56465 0.34465 0.0
C1608 C 0.48362 0.48346 0.32888 0.0
C1609 C 0.45377 0.47674 0.32739 0.0
C1610 C 0.4917 0.46263 0.3218 0.0
C1611 C 0.52319 0.46921 0.32184 0.0
C1612 C 0.5459 0.49551 0.31299 0.0
C1613 C 0.57558 0.50178 0.31333 0.0
C1614 C 0.58282 0.48184 0.32237 0.0
C1615 C 0.56037 0.45552 0.33104 0.0
C1616 C 0.53066 0.44915 0.33076 0.0
C1617 C 0.37465 0.36748 0.28427 0.0
C1618 C 0.37001 0.34169 0.29441 0.0
C1619 C 0.39794 0.39559 0.28989 0.0
C1620 C 0.41674 0.39832 0.30584 0.0
C1621 C 0.41283 0.37249 0.31547 0.0
C1622 C 0.38962 0.34439 0.30983 0.0
C1623 C 0.43945 0.42809 0.31329 0.0
C1624 C 0.46941 0.43509 0.31424 0.0
C1625 C 0.43154 0.44925 0.31983 0.0
C1626 C 0.4001 0.44277 0.31989 0.0
C1627 C 0.37793 0.41819 0.33053 0.0
C1628 C 0.34829 0.41204 0.33029 0.0
C1629 C 0.34061 0.43047 0.31961 0.0
C1630 C 0.36258 0.45515 0.3092 0.0
C1631 C 0.39224 0.46137 0.30936 0.0
H1632 H 0.31765 0.42566 0.31944 0.0
H1633 H 0.60581 0.48675 0.32263 0.0
H1634 H 0.64158 0.01747 0.26616 0.0
H1635 H 0.59064 0.00434 0.27608 0.0
H1636 H 0.60523 0.97806 0.3341 0.0
H1637 H 0.65631 0.99182 0.32452 0.0
H1638 H 0.54846 0.93555 0.31212 0.0
H1639 H 0.60994 0.03921 0.33388 0.0
H1640 H 0.64627 0.09251 0.32808 0.0
H1641 H 0.58806 0.09684 0.28414 0.0
H1642 H 0.55157 0.04339 0.28949 0.0
H1643 H 0.43629 0.92461 0.37632 0.0
H1644 H 0.48151 0.93345 0.35903 0.0
H1645 H 0.46774 0.98618 0.31479 0.0
H1646 H 0.4232 0.97861 0.33275 0.0
H1647 H 0.52223 0.0143 0.32497 0.0
H1648 H 0.45787 0.91402 0.30487 0.0
H1649 H 0.4208 0.86043 0.30839 0.0
H1650 H 0.48189 0.84815 0.34519 0.0
H1651 H 0.51919 0.90177 0.34213 0.0
C1652 C 0.63388 0.00893 0.28103 0.0
C1653 C 0.65281 0.00575 0.29463 0.0
C1654 C 0.60489 0.00144 0.28664 0.0
C1655 C 0.59437 0.99022 0.30577 0.0
C1656 C 0.61307 0.98662 0.31925 0.0
C1657 C 0.64221 0.99465 0.3138 0.0
C1658 C 0.56404 0.98274 0.312 0.0
C1659 C 0.5426 0.95265 0.31507 0.0
C1660 C 0.55637 0.00512 0.31502 0.0
C1661 C 0.57823 0.03724 0.31189 0.0
C1662 C 0.60504 0.05145 0.32284 0.0
C1663 C 0.62562 0.08171 0.31966 0.0
C1664 C 0.61953 0.09803 0.3057 0.0
C1665 C 0.59279 0.08416 0.29492 0.0
C1666 C 0.57214 0.05389 0.29802 0.0
C1667 C 0.44271 0.93777 0.36277 0.0
C1668 C 0.42631 0.95091 0.35583 0.0
C1669 C 0.46848 0.94266 0.3528 0.0
C1670 C 0.47784 0.96008 0.33538 0.0
C1671 C 0.46097 0.97263 0.32818 0.0
C1672 C 0.43552 0.96824 0.33839 0.0
C1673 C 0.50632 0.96686 0.32557 0.0
C1674 C 0.5276 0.99692 0.32178 0.0
C1675 C 0.51361 0.94432 0.32151 0.0
C1676 C 0.49127 0.912 0.32337 0.0
C1677 C 0.46333 0.89994 0.31383 0.0
C1678 C 0.44228 0.86955 0.31572 0.0
C1679 C 0.44896 0.85091 0.32703 0.0
C1680 C 0.47674 0.86262 0.33644 0.0
C1681 C 0.49787 0.89301 0.3346 0.0
H1682 H 0.43263 0.82739 0.32849 0.0
H1683 H 0.63549 0.12146 0.30327 0.0
H1684 H 0.94169 0.60999 0.30142 0.0
H1685 H 0.95427 0.57346 0.31442 0.0
H1686 H 0.04631 0.63049 0.29694 0.0
H1687 H 0.03373 0.66698 0.28355 0.0
H1688 H 0.02911 0.57328 0.28985 0.0
H1689 H 0.02531 0.62944 0.34467 0.0
H1690 H 0.00406 0.65259 0.36638 0.0
H1691 H 0.9304 0.56585 0.38097 0.0
H1692 H 0.95096 0.54216 0.35907 0.0
H1693 H 0.08147 0.49911 0.3562 0.0
H1694 H 0.0737 0.5373 0.33998 0.0
H1695 H 0.9783 0.4812 0.34717 0.0
H1696 H 0.98581 0.44291 0.36316 0.0
H1697 H 0.00143 0.54092 0.36002 0.0
H1698 H 0.00677 0.48602 0.30311 0.0
H1699 H 0.0308 0.46499 0.28198 0.0
H1700 H 0.10603 0.55292 0.27277 0.0
H1701 H 0.08261 0.57443 0.29409 0.0
C1702 C 0.96455 0.61462 0.30018 0.0
C1703 C 0.98678 0.64136 0.2916 0.0
C1704 C 0.97174 0.59381 0.30769 0.0
C1705 C 0.00135 0.59958 0.30702 0.0
C1706 C 0.02336 0.62572 0.29771 0.0
C1707 C 0.01615 0.6465 0.29007 0.0
C1708 C 0.00936 0.57873 0.31665 0.0
C1709 C 0.02345 0.56652 0.30527 0.0
C1710 C 0.00191 0.5699 0.33677 0.0
C1711 C 0.98954 0.58404 0.35007 0.0
C1712 C 0.00446 0.6153 0.35239 0.0
C1713 C 0.99255 0.62852 0.36474 0.0
C1714 C 0.96585 0.61071 0.37501 0.0
C1715 C 0.95105 0.57962 0.37298 0.0
C1716 C 0.96284 0.56628 0.36061 0.0
C1717 C 0.05886 0.4949 0.3542 0.0
C1718 C 0.03422 0.46806 0.36085 0.0
C1719 C 0.05447 0.51665 0.34492 0.0
C1720 C 0.02544 0.51191 0.34235 0.0
C1721 C 0.00086 0.48517 0.34903 0.0
C1722 C 0.00519 0.46332 0.35807 0.0
C1723 C 0.0205 0.53503 0.33309 0.0
C1724 C 0.00716 0.5478 0.34462 0.0
C1725 C 0.02909 0.5447 0.31325 0.0
C1726 C 0.04309 0.53178 0.30037 0.0
C1727 C 0.02856 0.50084 0.29673 0.0
C1728 C 0.04204 0.48884 0.28468 0.0
C1729 C 0.06997 0.50759 0.27608 0.0
C1730 C 0.08442 0.53841 0.27946 0.0
C1731 C 0.07105 0.55051 0.29151 0.0
H1732 H 0.08037 0.49826 0.26676 0.0
H1733 H 0.95666 0.62099 0.38458 0.0
H1734 H 0.50527 0.42019 0.65257 0.0
H1735 H 0.54074 0.46532 0.67069 0.0
H1736 H 0.47691 0.49609 0.67012 0.0
H1737 H 0.44138 0.45111 0.65203 0.0
H1738 H 0.53232 0.5377 0.65579 0.0
H1739 H 0.49147 0.47311 0.71267 0.0
H1740 H 0.47706 0.42777 0.73259 0.0
H1741 H 0.56858 0.44825 0.73399 0.0
H1742 H 0.58349 0.49353 0.71383 0.0
H1743 H 0.61007 0.66595 0.71399 0.0
H1744 H 0.57146 0.61606 0.70358 0.0
H1745 H 0.63478 0.58487 0.70817 0.0
H1746 H 0.6734 0.63468 0.71915 0.0
H1747 H 0.57984 0.54275 0.72105 0.0
H1748 H 0.62098 0.60532 0.66367 0.0
H1749 H 0.63671 0.65033 0.64309 0.0
H1750 H 0.54616 0.63283 0.64143 0.0
H1751 H 0.52996 0.58792 0.66227 0.0
C1752 C 0.49869 0.43641 0.65654 0.0
C1753 C 0.47066 0.43226 0.65084 0.0
C1754 C 0.51889 0.46207 0.66695 0.0
C1755 C 0.51134 0.48391 0.67177 0.0
C1756 C 0.48309 0.47943 0.66653 0.0
C1757 C 0.46283 0.45374 0.65624 0.0
C1758 C 0.53368 0.51247 0.68093 0.0
C1759 C 0.54235 0.53886 0.67021 0.0
C1760 C 0.54745 0.51373 0.69939 0.0
C1761 C 0.53855 0.48656 0.71157 0.0
C1762 C 0.50849 0.46782 0.71707 0.0
C1763 C 0.50024 0.44215 0.72844 0.0
C1764 C 0.52188 0.43509 0.73451 0.0
C1765 C 0.55183 0.45373 0.72926 0.0
C1766 C 0.5602 0.47941 0.71788 0.0
C1767 C 0.61566 0.64837 0.71301 0.0
C1768 C 0.64473 0.65416 0.71719 0.0
C1769 C 0.59363 0.61992 0.70703 0.0
C1770 C 0.60045 0.59696 0.70477 0.0
C1771 C 0.62912 0.60233 0.7098 0.0
C1772 C 0.65113 0.63076 0.716 0.0
C1773 C 0.57814 0.56799 0.69601 0.0
C1774 C 0.56965 0.54155 0.70669 0.0
C1775 C 0.56469 0.56656 0.67737 0.0
C1776 C 0.57431 0.59342 0.66469 0.0
C1777 C 0.60446 0.61119 0.65903 0.0
C1778 C 0.61345 0.63667 0.64731 0.0
C1779 C 0.59246 0.64448 0.641 0.0
C1780 C 0.56241 0.62677 0.64635 0.0
C1781 C 0.5533 0.60129 0.65811 0.0
H1782 H 0.59947 0.66422 0.63192 0.0
H1783 H 0.51544 0.41521 0.74331 0.0
H1784 H 0.54158 0.9839 0.65657 0.0
H1785 H 0.49596 0.97735 0.67223 0.0
H1786 H 0.53645 0.0729 0.67883 0.0
H1787 H 0.58226 0.07972 0.66308 0.0
H1788 H 0.49689 0.03835 0.71117 0.0
H1789 H 0.49903 0.0501 0.64078 0.0
H1790 H 0.50946 0.04055 0.60657 0.0
H1791 H 0.44298 0.94777 0.61258 0.0
H1792 H 0.43249 0.95674 0.64694 0.0
H1793 H 0.33742 0.01043 0.6816 0.0
H1794 H 0.3887 0.02434 0.67266 0.0
H1795 H 0.39378 0.97707 0.72424 0.0
H1796 H 0.34302 0.96429 0.73368 0.0
H1797 H 0.41337 0.99386 0.66239 0.0
H1798 H 0.46366 0.00948 0.74233 0.0
H1799 H 0.45742 0.02652 0.77537 0.0
H1800 H 0.42285 0.07819 0.74794 0.0
H1801 H 0.42927 0.06181 0.71475 0.0
C1802 C 0.54107 0.00348 0.6618 0.0
C1803 C 0.56524 0.03234 0.65835 0.0
C1804 C 0.51505 -0.0003 0.67077 0.0
C1805 C 0.51288 0.02469 0.67644 0.0
C1806 C 0.53783 0.0534 0.67455 0.0
C1807 C 0.56386 0.05723 0.66546 0.0
C1808 C 0.4834 0.02092 0.68155 0.0
C1809 C 0.47852 0.02856 0.70062 0.0
C1810 C 0.46 0.00941 0.6674 0.0
C1811 C 0.46516 0.00403 0.64646 0.0
C1812 C 0.48671 0.02764 0.63481 0.0
C1813 C 0.49265 0.02235 0.6154 0.0
C1814 C 0.47699 0.99357 0.60741 0.0
C1815 C 0.45515 0.97006 0.61876 0.0
C1816 C 0.44916 0.97524 0.63821 0.0
C1817 C 0.34956 0.00311 0.69104 0.0
C1818 C 0.33639 0.98647 0.70838 0.0
C1819 C 0.3788 0.011 0.6859 0.0
C1820 C 0.39524 0.0021 0.69793 0.0
C1821 C 0.38179 0.98479 0.71499 0.0
C1822 C 0.35272 0.9773 0.72029 0.0
C1823 C 0.42623 0.01034 0.6924 0.0
C1824 C 0.43154 0.00364 0.6731 0.0
C1825 C 0.45026 0.02388 0.70615 0.0
C1826 C 0.4467 0.03417 0.72606 0.0
C1827 C 0.45486 0.02458 0.74334 0.0
C1828 C 0.45126 0.03411 0.7621 0.0
C1829 C 0.43966 0.05335 0.76376 0.0
C1830 C 0.43173 0.0632 0.74665 0.0
C1831 C 0.43531 0.05377 0.72786 0.0
H1832 H 0.43688 0.06067 0.77829 0.0
H1833 H 0.48183 0.98959 0.59242 0.0
H1834 H 0.99501 0.33363 0.66601 0.0
H1835 H 0.98349 0.37168 0.65468 0.0
H1836 H 0.01995 0.42106 0.70915 0.0
H1837 H 0.03096 0.3826 0.72079 0.0
H1838 H 0.96855 0.4182 0.70039 0.0
H1839 H 0.05832 0.44367 0.66529 0.0
H1840 H 0.09273 0.43613 0.64383 0.0
H1841 H 0.03162 0.413 0.5948 0.0
H1842 H 0.99657 0.41986 0.61606 0.0
H1843 H 0.97855 0.55336 0.66284 0.0
H1844 H 0.98866 0.51553 0.67694 0.0
H1845 H 0.94441 0.45769 0.6269 0.0
H1846 H 0.93408 0.49527 0.61278 0.0
H1847 H 0.00137 0.46675 0.63426 0.0
H1848 H 0.9111 0.44038 0.67074 0.0
H1849 H 0.8785 0.45014 0.69254 0.0
H1850 H 0.94367 0.47822 0.73941 0.0
H1851 H 0.97686 0.46902 0.71778 0.0
C1852 C 0.00069 0.35265 0.67555 0.0
C1853 C 0.01397 0.35525 0.69425 0.0
C1854 C 0.9942 0.37444 0.66902 0.0
C1855 C 0.00124 0.3994 0.68096 0.0
C1856 C 0.01441 0.40199 0.69969 0.0
C1857 C 0.02075 0.38009 0.70629 0.0
C1858 C 0.99418 0.4224 0.67402 0.0
C1859 C 0.97611 0.42915 0.68606 0.0
C1860 C 0.00368 0.43633 0.65517 0.0
C1861 C 0.02462 0.43193 0.64236 0.0
C1862 C 0.05205 0.43665 0.64999 0.0
C1863 C 0.07171 0.43256 0.63785 0.0
C1864 C 0.06432 0.42399 0.61798 0.0
C1865 C 0.03728 0.41956 0.61021 0.0
C1866 C 0.01751 0.42355 0.6223 0.0
C1867 C 0.97057 0.53237 0.65503 0.0
C1868 C 0.95549 0.52717 0.63676 0.0
C1869 C 0.97631 0.51081 0.6631 0.0
C1870 C 0.96719 0.48387 0.65296 0.0
C1871 C 0.95155 0.47837 0.63494 0.0
C1872 C 0.94555 0.49977 0.62696 0.0
C1873 C 0.97548 0.46213 0.66051 0.0
C1874 C 0.99388 0.45575 0.64859 0.0
C1875 C 0.96656 0.44882 0.67952 0.0
C1876 C 0.9466 0.45431 0.69256 0.0
C1877 C 0.9186 0.44889 0.68563 0.0
C1878 C 0.89999 0.45427 0.69797 0.0
C1879 C 0.90904 0.46487 0.71733 0.0
C1880 C 0.9367 0.47005 0.7244 0.0
C1881 C 0.95541 0.46473 0.71211 0.0
H1882 H 0.8946 0.46901 0.72686 0.0
H1883 H 0.07959 0.42087 0.6086 0.0
H1884 H 0.21456 0.87494 0.69296 0.0
H1885 H 0.17738 0.83251 0.67367 0.0
H1886 H 0.1273 0.87799 0.66453 0.0
H1887 H 0.16415 0.92029 0.68428 0.0
H1888 H 0.09135 0.82249 0.67559 0.0
H1889 H 0.16636 0.86914 0.62608 0.0
H1890 H 0.21705 0.89303 0.61165 0.0
H1891 H 0.22021 0.81231 0.62057 0.0
H1892 H 0.1697 0.78804 0.63533 0.0
H1893 H 0.99271 0.70318 0.61054 0.0
H1894 H 0.02964 0.7537 0.62163 0.0
H1895 H 0.08659 0.72059 0.6429 0.0
H1896 H 0.04982 0.67018 0.63201 0.0
H1897 H 0.11733 0.77416 0.62143 0.0
H1898 H 0.04496 0.73113 0.67522 0.0
H1899 H 0.99484 0.70841 0.69049 0.0
H1900 H 0.98682 0.7839 0.67245 0.0
H1901 H 0.03682 0.80695 0.6569 0.0
C1902 C 0.19575 0.87599 0.68671 0.0
C1903 C 0.1922 0.90086 0.69012 0.0
C1904 C 0.17462 0.85183 0.67558 0.0
C1905 C 0.14977 0.85227 0.66742 0.0
C1906 C 0.14636 0.87725 0.67064 0.0
C1907 C 0.16741 0.90137 0.68189 0.0
C1908 C 0.12656 0.82583 0.65658 0.0
C1909 C 0.09692 0.81232 0.66343 0.0
C1910 C 0.1339 0.81237 0.64087 0.0
C1911 C 0.16429 0.82683 0.63194 0.0
C1912 C 0.17794 0.85654 0.6251 0.0
C1913 C 0.20663 0.87014 0.61684 0.0
C1914 C 0.22186 0.85422 0.61522 0.0
C1915 C 0.20839 0.82462 0.62183 0.0
C1916 C 0.17971 0.81091 0.63013 0.0
C1917 C 0.01324 0.70679 0.61743 0.0
C1918 C 0.01848 0.68285 0.62045 0.0
C1919 C 0.03419 0.73555 0.62381 0.0
C1920 C 0.06071 0.74073 0.63312 0.0
C1921 C 0.06626 0.71698 0.63569 0.0
C1922 C 0.04522 0.68823 0.62953 0.0
C1923 C 0.08249 0.77065 0.6408 0.0
C1924 C 0.11177 0.78476 0.63332 0.0
C1925 C 0.07481 0.78479 0.65581 0.0
C1926 C 0.04448 0.77061 0.66473 0.0
C1927 C 0.03239 0.74275 0.67435 0.0
C1928 C 0.00407 0.72989 0.68314 0.0
C1929 C 0.98773 0.74477 0.68252 0.0
C1930 C -0.00042 0.77247 0.673 0.0
C1931 C 0.02789 0.78544 0.66419 0.0
H1932 H 0.9658 0.73476 0.68932 0.0
H1933 H 0.24407 0.86479 0.60882 0.0
H1934 H 0.08954 0.25271 0.68083 0.0
H1935 H 0.13632 0.2615 0.66563 0.0
H1936 H 0.16134 0.35334 0.6543 0.0
H1937 H 0.11465 0.3448 0.6696 0.0
H1938 H 0.1776 0.32407 0.62327 0.0
H1939 H 0.18015 0.33815 0.69469 0.0
H1940 H 0.16008 0.31984 0.72825 0.0
H1941 H 0.18431 0.25178 0.72343 0.0
H1942 H 0.20247 0.26819 0.68921 0.0
H1943 H 0.33506 0.38763 0.61561 0.0
H1944 H 0.28476 0.37736 0.62444 0.0
H1945 H 0.26515 0.29261 0.64973 0.0
H1946 H 0.31557 0.3031 0.64139 0.0
H1947 H 0.24535 0.31829 0.67334 0.0
H1948 H 0.2381 0.29798 0.60354 0.0
H1949 H 0.2519 0.30814 0.56808 0.0
H1950 H 0.23515 0.38164 0.56925 0.0
H1951 H 0.22163 0.37217 0.60482 0.0
C1952 C 0.1047 0.27459 0.67471 0.0
C1953 C 0.09878 0.29823 0.67665 0.0
C1954 C 0.13132 0.27954 0.66602 0.0
C1955 C 0.15227 0.30813 0.65912 0.0
C1956 C 0.14536 0.33115 0.65959 0.0
C1957 C 0.11883 0.32628 0.66843 0.0
C1958 C 0.18277 0.31499 0.65384 0.0
C1959 C 0.19262 0.32315 0.6342 0.0
C1960 C 0.20185 0.31302 0.66815 0.0
C1961 C 0.19231 0.30417 0.68917 0.0
C1962 C 0.18084 0.31901 0.70062 0.0
C1963 C 0.16971 0.30891 0.71977 0.0
C1964 C 0.17108 0.28479 0.72801 0.0
C1965 C 0.18328 0.27049 0.71703 0.0
C1966 C 0.19375 0.28001 0.69767 0.0
C1967 C 0.31998 0.36682 0.62304 0.0
C1968 C 0.32913 0.34612 0.62782 0.0
C1969 C 0.29123 0.36091 0.628 0.0
C1970 C 0.27108 0.33401 0.63752 0.0
C1971 C 0.28033 0.31346 0.64239 0.0
C1972 C 0.3091 0.31946 0.63759 0.0
C1973 C 0.24038 0.32724 0.64261 0.0
C1974 C 0.23046 0.31925 0.66233 0.0
C1975 C 0.22102 0.32875 0.62828 0.0
C1976 C 0.22918 0.33457 0.6069 0.0
C1977 C 0.23761 0.31647 0.59628 0.0
C1978 C 0.24533 0.32207 0.57615 0.0
C1979 C 0.24449 0.34558 0.56643 0.0
C1980 C 0.23584 0.36348 0.57681 0.0
C1981 C 0.22813 0.35799 0.59695 0.0
H1982 H 0.25047 0.34987 0.55084 0.0
H1983 H 0.16269 0.27721 0.74291 0.0
H1984 H 0.66283 0.76922 0.67753 0.0
H1985 H 0.65253 0.80573 0.66156 0.0
H1986 H 0.73342 0.87765 0.68693 0.0
H1987 H 0.74362 0.8413 0.70316 0.0
H1988 H 0.68553 0.88358 0.69461 0.0
H1989 H 0.72755 0.86239 0.63699 0.0
H1990 H 0.73175 0.82982 0.61191 0.0
H1991 H 0.64146 0.79902 0.59301 0.0
H1992 H 0.63658 0.83112 0.61817 0.0
H1993 H 0.69038 0.00697 0.64828 0.0
H1994 H 0.70188 0.96845 0.65832 0.0
H1995 H 0.62168 0.90135 0.62916 0.0
H1996 H 0.61052 0.9402 0.61846 0.0
H1997 H 0.66678 0.891 0.62292 0.0
H1998 H 0.62384 0.91094 0.67976 0.0
H1999 H 0.61765 0.94179 0.70524 0.0
H2000 H 0.70696 0.97253 0.72627 0.0
H2001 H 0.71385 0.9422 0.70071 0.0
C2002 C 0.67865 0.79283 0.67944 0.0
C2003 C 0.70395 0.80247 0.69166 0.0
C2004 C 0.67279 0.81364 0.67025 0.0
C2005 C 0.69226 0.84438 0.67302 0.0
C2006 C 0.71809 0.85401 0.68464 0.0
C2007 C 0.72392 0.83324 0.69386 0.0
C2008 C 0.68459 0.86651 0.6652 0.0
C2009 C 0.6819 0.88553 0.67889 0.0
C2010 C 0.67864 0.86814 0.64481 0.0
C2011 C 0.68162 0.84895 0.6296 0.0
C2012 C 0.70851 0.84849 0.6276 0.0
C2013 C 0.71103 0.83015 0.61334 0.0
C2014 C 0.68686 0.81231 0.60091 0.0
C2015 C 0.66015 0.81283 0.60267 0.0
C2016 C 0.65751 0.83112 0.61691 0.0
C2017 C 0.67521 0.98403 0.64396 0.0
C2018 C 0.64939 0.97648 0.63277 0.0
C2019 C 0.68177 0.96202 0.64975 0.0
C2020 C 0.66232 0.93195 0.64484 0.0
C2021 C 0.63691 0.92442 0.63318 0.0
C2022 C 0.63051 0.94656 0.62715 0.0
C2023 C 0.66836 0.90848 0.65231 0.0
C2024 C 0.67049 0.88908 0.63863 0.0
C2025 C 0.67352 0.90623 0.67278 0.0
C2026 C 0.66944 0.92449 0.6882 0.0
C2027 C 0.64224 0.92446 0.68971 0.0
C2028 C 0.6386 0.94183 0.70419 0.0
C2029 C 0.66192 0.95916 0.71734 0.0
C2030 C 0.68892 0.95912 0.71606 0.0
C2031 C 0.6927 0.94182 0.7016 0.0
H2032 H 0.65905 0.97258 0.72854 0.0
H2033 H 0.68886 0.79812 0.58988 0.0
loop_
_geom_bond_atom_site_label_1
_geom_bond_atom_site_label_2
_geom_bond_distance
_geom_bond_site_symmetry_2
_ccdc_geom_bond_type
In0 O1 2.294 . S
In0 O2 2.326 . S
In0 O6 2.266 . S
In0 O7 2.326 . S
In0 O8 2.266 . S
In0 O9 2.326 . S
In0 O11 2.294 . S
In0 O12 2.326 . S
O1 In0 2.294 . S
O1 C10 1.240 . S
O2 In0 2.326 . S
O2 C10 1.252 . S
C3 O6 1.252 . S
C3 O7 1.260 . S
C4 O11 1.240 . S
C4 O12 1.252 . S
C5 O8 1.252 . S
C5 O9 1.260 . S
O6 In0 2.266 . S
O6 C3 1.252 . S
O7 In0 2.326 . S
O7 C3 1.260 . S
O8 In0 2.266 . S
O8 C5 1.252 . S
O9 In0 2.326 . S
O9 C5 1.260 . S
C10 O1 1.240 . S
C10 O2 1.252 . S
O11 In0 2.294 . S
O11 C4 1.240 . S
O12 In0 2.326 . S
O12 C4 1.252 . S
In13 O14 2.294 . S
In13 O15 2.326 . S
In13 O19 2.266 . S
In13 O20 2.326 . S
In13 O21 2.266 . S
In13 O22 2.326 . S
In13 O24 2.294 . S
In13 O25 2.326 . S
O14 In13 2.294 . S
O14 C23 1.240 . S
O15 In13 2.326 . S
O15 C23 1.252 . S
C16 O19 1.252 . S
C16 O20 1.260 . S
C17 O24 1.240 . S
C17 O25 1.252 . S
C18 O21 1.252 . S
C18 O22 1.260 . S
O19 In13 2.266 . S
O19 C16 1.252 . S
O20 In13 2.326 . S
O20 C16 1.260 . S
O21 In13 2.266 . S
O21 C18 1.252 . S
O22 In13 2.326 . S
O22 C18 1.260 . S
C23 O14 1.240 . S
C23 O15 1.252 . S
O24 In13 2.294 . S
O24 C17 1.240 . S
O25 In13 2.326 . S
O25 C17 1.252 . S
In26 O27 2.294 . S
In26 O28 2.326 . S
In26 O32 2.266 . S
In26 O33 2.326 . S
In26 O34 2.266 . S
In26 O35 2.326 . S
In26 O37 2.294 . S
In26 O38 2.326 . S
O27 In26 2.294 . S
O27 C36 1.240 . S
O28 In26 2.326 . S
O28 C36 1.252 . S
C29 O32 1.252 . S
C29 O33 1.260 . S
C30 O37 1.240 . S
C30 O38 1.252 . S
C31 O34 1.252 . S
C31 O35 1.260 . S
O32 In26 2.266 . S
O32 C29 1.252 . S
O33 In26 2.326 . S
O33 C29 1.260 . S
O34 In26 2.266 . S
O34 C31 1.252 . S
O35 In26 2.326 . S
O35 C31 1.260 . S
C36 O27 1.240 . S
C36 O28 1.252 . S
O37 In26 2.294 . S
O37 C30 1.240 . S
O38 In26 2.326 . S
O38 C30 1.252 . S
In39 O40 2.294 . S
In39 O41 2.326 . S
In39 O45 2.266 . S
In39 O46 2.326 . S
In39 O47 2.266 . S
In39 O48 2.326 . S
In39 O50 2.294 . S
In39 O51 2.326 . S
O40 In39 2.294 . S
O40 C49 1.240 . S
O41 In39 2.326 . S
O41 C49 1.252 . S
C42 O45 1.252 . S
C42 O46 1.260 . S
C43 O50 1.240 . S
C43 O51 1.252 . S
C44 O47 1.252 . S
C44 O48 1.260 . S
O45 In39 2.266 . S
O45 C42 1.252 . S
O46 In39 2.326 . S
O46 C42 1.260 . S
O47 In39 2.266 . S
O47 C44 1.252 . S
O48 In39 2.326 . S
O48 C44 1.260 . S
C49 O40 1.240 . S
C49 O41 1.252 . S
O50 In39 2.294 . S
O50 C43 1.240 . S
O51 In39 2.326 . S
O51 C43 1.252 . S
In52 O53 2.294 . S
In52 O54 2.326 . S
In52 O58 2.266 . S
In52 O59 2.326 . S
In52 O60 2.266 . S
In52 O61 2.326 . S
In52 O63 2.294 . S
In52 O64 2.326 . S
O53 In52 2.294 . S
O53 C62 1.240 . S
O54 In52 2.326 . S
O54 C62 1.252 . S
C55 O58 1.252 . S
C55 O59 1.260 . S
C56 O63 1.240 . S
C56 O64 1.252 . S
C57 O60 1.252 . S
C57 O61 1.260 . S
O58 In52 2.266 . S
O58 C55 1.252 . S
O59 In52 2.326 . S
O59 C55 1.260 . S
O60 In52 2.266 . S
O60 C57 1.252 . S
O61 In52 2.326 . S
O61 C57 1.260 . S
C62 O53 1.240 . S
C62 O54 1.252 . S
O63 In52 2.294 . S
O63 C56 1.240 . S
O64 In52 2.326 . S
O64 C56 1.252 . S
In65 O66 2.294 . S
In65 O67 2.326 . S
In65 O71 2.266 . S
In65 O72 2.326 . S
In65 O73 2.266 . S
In65 O74 2.326 . S
In65 O76 2.294 . S
In65 O77 2.326 . S
O66 In65 2.294 . S
O66 C75 1.240 . S
O67 In65 2.326 . S
O67 C75 1.252 . S
C68 O71 1.252 . S
C68 O72 1.260 . S
C69 O76 1.240 . S
C69 O77 1.252 . S
C70 O73 1.252 . S
C70 O74 1.260 . S
O71 In65 2.266 . S
O71 C68 1.252 . S
O72 In65 2.326 . S
O72 C68 1.260 . S
O73 In65 2.266 . S
O73 C70 1.252 . S
O74 In65 2.326 . S
O74 C70 1.260 . S
C75 O66 1.240 . S
C75 O67 1.252 . S
O76 In65 2.294 . S
O76 C69 1.240 . S
O77 In65 2.326 . S
O77 C69 1.252 . S
In78 O79 2.294 . S
In78 O80 2.326 . S
In78 O84 2.266 1_455 S
In78 O85 2.326 . S
In78 O86 2.266 . S
In78 O87 2.326 . S
In78 O89 2.294 . S
In78 O90 2.326 1_455 S
O79 In78 2.294 . S
O79 C88 1.240 . S
O80 In78 2.326 . S
O80 C88 1.252 . S
C81 O84 1.252 . S
C81 O85 1.260 1_655 S
C82 O89 1.240 . S
C82 O90 1.252 1_455 S
C83 O86 1.252 . S
C83 O87 1.260 . S
O84 In78 2.266 1_655 S
O84 C81 1.252 . S
O85 In78 2.326 . S
O85 C81 1.260 1_455 S
O86 In78 2.266 . S
O86 C83 1.252 . S
O87 In78 2.326 . S
O87 C83 1.260 . S
C88 O79 1.240 . S
C88 O80 1.252 . S
O89 In78 2.294 . S
O89 C82 1.240 . S
O90 In78 2.326 1_655 S
O90 C82 1.252 1_655 S
In91 O92 2.294 . S
In91 O93 2.326 . S
In91 O97 2.266 . S
In91 O98 2.326 . S
In91 O99 2.266 . S
In91 O100 2.326 . S
In91 O102 2.294 . S
In91 O103 2.326 . S
O92 In91 2.294 . S
O92 C101 1.240 . S
O93 In91 2.326 . S
O93 C101 1.252 . S
C94 O97 1.252 . S
C94 O98 1.260 . S
C95 O102 1.240 . S
C95 O103 1.252 . S
C96 O99 1.252 . S
C96 O100 1.260 . S
O97 In91 2.266 . S
O97 C94 1.252 . S
O98 In91 2.326 . S
O98 C94 1.260 . S
O99 In91 2.266 . S
O99 C96 1.252 . S
O100 In91 2.326 . S
O100 C96 1.260 . S
C101 O92 1.240 . S
C101 O93 1.252 . S
O102 In91 2.294 . S
O102 C95 1.240 . S
O103 In91 2.326 . S
O103 C95 1.252 . S
In104 O105 2.294 . S
In104 O106 2.326 1_565 S
In104 O110 2.266 . S
In104 O111 2.326 . S
In104 O112 2.266 1_565 S
In104 O113 2.326 . S
In104 O115 2.294 . S
In104 O116 2.326 . S
O105 In104 2.294 . S
O105 C114 1.240 . S
O106 In104 2.326 1_545 S
O106 C114 1.252 1_545 S
C107 O110 1.252 . S
C107 O111 1.260 . S
C108 O115 1.240 . S
C108 O116 1.252 . S
C109 O112 1.252 . S
C109 O113 1.260 1_545 S
O110 In104 2.266 . S
O110 C107 1.252 . S
O111 In104 2.326 . S
O111 C107 1.260 . S
O112 In104 2.266 1_545 S
O112 C109 1.252 . S
O113 In104 2.326 . S
O113 C109 1.260 1_565 S
C114 O105 1.240 . S
C114 O106 1.252 1_565 S
O115 In104 2.294 . S
O115 C108 1.240 . S
O116 In104 2.326 . S
O116 C108 1.252 . S
In117 O118 2.294 . S
In117 O119 2.326 . S
In117 O123 2.266 . S
In117 O124 2.326 . S
In117 O125 2.266 . S
In117 O126 2.326 . S
In117 O128 2.294 . S
In117 O129 2.326 . S
O118 In117 2.294 . S
O118 C127 1.240 . S
O119 In117 2.326 . S
O119 C127 1.252 . S
C120 O123 1.252 . S
C120 O124 1.260 . S
C121 O128 1.240 . S
C121 O129 1.252 . S
C122 O125 1.252 . S
C122 O126 1.260 . S
O123 In117 2.266 . S
O123 C120 1.252 . S
O124 In117 2.326 . S
O124 C120 1.260 . S
O125 In117 2.266 . S
O125 C122 1.252 . S
O126 In117 2.326 . S
O126 C122 1.260 . S
C127 O118 1.240 . S
C127 O119 1.252 . S
O128 In117 2.294 . S
O128 C121 1.240 . S
O129 In117 2.326 . S
O129 C121 1.252 . S
In130 O131 2.294 . S
In130 O132 2.326 . S
In130 O136 2.266 . S
In130 O137 2.326 . S
In130 O138 2.266 . S
In130 O139 2.326 1_545 S
In130 O141 2.294 . S
In130 O142 2.326 . S
O131 In130 2.294 . S
O131 C140 1.240 . S
O132 In130 2.326 . S
O132 C140 1.252 . S
C133 O136 1.252 . S
C133 O137 1.260 . S
C134 O141 1.240 . S
C134 O142 1.252 . S
C135 O138 1.252 1_565 S
C135 O139 1.260 . S
O136 In130 2.266 . S
O136 C133 1.252 . S
O137 In130 2.326 . S
O137 C133 1.260 . S
O138 In130 2.266 . S
O138 C135 1.252 1_545 S
O139 In130 2.326 1_565 S
O139 C135 1.260 . S
C140 O131 1.240 . S
C140 O132 1.252 . S
O141 In130 2.294 . S
O141 C134 1.240 . S
O142 In130 2.326 . S
O142 C134 1.252 . S
In143 O144 2.294 . S
In143 O145 2.326 . S
In143 O149 2.266 . S
In143 O150 2.326 1_655 S
In143 O151 2.266 . S
In143 O152 2.326 . S
In143 O154 2.294 . S
In143 O155 2.326 . S
O144 In143 2.294 . S
O144 C153 1.240 . S
O145 In143 2.326 . S
O145 C153 1.252 . S
C146 O149 1.252 1_455 S
C146 O150 1.260 . S
C147 O154 1.240 . S
C147 O155 1.252 . S
C148 O151 1.252 . S
C148 O152 1.260 . S
O149 In143 2.266 . S
O149 C146 1.252 1_655 S
O150 In143 2.326 1_455 S
O150 C146 1.260 . S
O151 In143 2.266 . S
O151 C148 1.252 . S
O152 In143 2.326 . S
O152 C148 1.260 . S
C153 O144 1.240 . S
C153 O145 1.252 . S
O154 In143 2.294 . S
O154 C147 1.240 . S
O155 In143 2.326 . S
O155 C147 1.252 . S
In156 O157 2.294 . S
In156 O158 2.326 . S
In156 O162 2.266 . S
In156 O163 2.326 . S
In156 O164 2.266 . S
In156 O165 2.326 . S
In156 O167 2.294 . S
In156 O168 2.326 . S
O157 In156 2.294 . S
O157 C166 1.240 . S
O158 In156 2.326 . S
O158 C166 1.252 . S
C159 O162 1.252 . S
C159 O163 1.260 . S
C160 O167 1.240 . S
C160 O168 1.252 . S
C161 O164 1.252 . S
C161 O165 1.260 . S
O162 In156 2.266 . S
O162 C159 1.252 . S
O163 In156 2.326 . S
O163 C159 1.260 . S
O164 In156 2.266 . S
O164 C161 1.252 . S
O165 In156 2.326 . S
O165 C161 1.260 . S
C166 O157 1.240 . S
C166 O158 1.252 . S
O167 In156 2.294 . S
O167 C160 1.240 . S
O168 In156 2.326 . S
O168 C160 1.252 . S
In169 O170 2.294 . S
In169 O171 2.326 . S
In169 O175 2.266 . S
In169 O176 2.326 . S
In169 O177 2.266 . S
In169 O178 2.326 1_565 S
In169 O180 2.294 . S
In169 O181 2.326 . S
O170 In169 2.294 . S
O170 C179 1.240 . S
O171 In169 2.326 . S
O171 C179 1.252 . S
C172 O175 1.252 . S
C172 O176 1.260 . S
C173 O180 1.240 . S
C173 O181 1.252 . S
C174 O177 1.252 1_545 S
C174 O178 1.260 . S
O175 In169 2.266 . S
O175 C172 1.252 . S
O176 In169 2.326 . S
O176 C172 1.260 . S
O177 In169 2.266 . S
O177 C174 1.252 1_565 S
O178 In169 2.326 1_545 S
O178 C174 1.260 . S
C179 O170 1.240 . S
C179 O171 1.252 . S
O180 In169 2.294 . S
O180 C173 1.240 . S
O181 In169 2.326 . S
O181 C173 1.252 . S
In182 O183 2.294 . S
In182 O184 2.326 . S
In182 O188 2.266 . S
In182 O189 2.326 . S
In182 O190 2.266 . S
In182 O191 2.326 1_455 S
In182 O193 2.294 . S
In182 O194 2.326 . S
O183 In182 2.294 . S
O183 C192 1.240 . S
O184 In182 2.326 . S
O184 C192 1.252 . S
C185 O188 1.252 . S
C185 O189 1.260 . S
C186 O193 1.240 . S
C186 O194 1.252 . S
C187 O190 1.252 1_655 S
C187 O191 1.260 . S
O188 In182 2.266 . S
O188 C185 1.252 . S
O189 In182 2.326 . S
O189 C185 1.260 . S
O190 In182 2.266 . S
O190 C187 1.252 1_455 S
O191 In182 2.326 1_655 S
O191 C187 1.260 . S
C192 O183 1.240 . S
C192 O184 1.252 . S
O193 In182 2.294 . S
O193 C186 1.240 . S
O194 In182 2.326 . S
O194 C186 1.252 . S
In195 O196 2.294 . S
In195 O197 2.326 1_655 S
In195 O201 2.266 . S
In195 O202 2.326 . S
In195 O203 2.266 1_655 S
In195 O204 2.326 . S
In195 O206 2.294 . S
In195 O207 2.326 . S
O196 In195 2.294 . S
O196 C205 1.240 . S
O197 In195 2.326 1_455 S
O197 C205 1.252 1_455 S
C198 O201 1.252 . S
C198 O202 1.260 . S
C199 O206 1.240 . S
C199 O207 1.252 . S
C200 O203 1.252 . S
C200 O204 1.260 1_455 S
O201 In195 2.266 . S
O201 C198 1.252 . S
O202 In195 2.326 . S
O202 C198 1.260 . S
O203 In195 2.266 1_455 S
O203 C200 1.252 . S
O204 In195 2.326 . S
O204 C200 1.260 1_655 S
C205 O196 1.240 . S
C205 O197 1.252 1_655 S
O206 In195 2.294 . S
O206 C199 1.240 . S
O207 In195 2.326 . S
O207 C199 1.252 . S
In208 O209 2.294 . S
In208 O210 2.326 . S
In208 O214 2.266 . S
In208 O215 2.326 . S
In208 O216 2.266 . S
In208 O217 2.326 . S
In208 O219 2.294 . S
In208 O220 2.326 . S
O209 In208 2.294 . S
O209 C218 1.240 . S
O210 In208 2.326 . S
O210 C218 1.252 . S
C211 O214 1.252 . S
C211 O215 1.260 . S
C212 O219 1.240 . S
C212 O220 1.252 . S
C213 O216 1.252 . S
C213 O217 1.260 . S
O214 In208 2.266 . S
O214 C211 1.252 . S
O215 In208 2.326 . S
O215 C211 1.260 . S
O216 In208 2.266 . S
O216 C213 1.252 . S
O217 In208 2.326 . S
O217 C213 1.260 . S
C218 O209 1.240 . S
C218 O210 1.252 . S
O219 In208 2.294 . S
O219 C212 1.240 . S
O220 In208 2.326 . S
O220 C212 1.252 . S
In221 O222 2.294 . S
In221 O223 2.326 1_545 S
In221 O227 2.266 . S
In221 O228 2.326 . S
In221 O229 2.266 1_545 S
In221 O230 2.326 . S
In221 O232 2.294 . S
In221 O233 2.326 . S
O222 In221 2.294 . S
O222 C231 1.240 . S
O223 In221 2.326 1_565 S
O223 C231 1.252 1_565 S
C224 O227 1.252 . S
C224 O228 1.260 . S
C225 O232 1.240 . S
C225 O233 1.252 . S
C226 O229 1.252 . S
C226 O230 1.260 1_565 S
O227 In221 2.266 . S
O227 C224 1.252 . S
O228 In221 2.326 . S
O228 C224 1.260 . S
O229 In221 2.266 1_565 S
O229 C226 1.252 . S
O230 In221 2.326 . S
O230 C226 1.260 1_545 S
C231 O222 1.240 . S
C231 O223 1.252 1_545 S
O232 In221 2.294 . S
O232 C225 1.240 . S
O233 In221 2.326 . S
O233 C225 1.252 . S
H234 C252 0.951 . S
H235 C254 0.951 . S
H236 C256 0.950 1_556 S
H237 C257 0.950 . S
H238 C259 0.950 . S
H239 C262 0.950 1_556 S
H240 C263 0.950 . S
H241 C265 0.950 . S
H242 C266 0.950 . S
H243 C267 0.951 . S
H244 C269 0.951 . S
H245 C271 0.950 1_554 S
H246 C272 0.950 . S
H247 C274 0.950 . S
H248 C277 0.950 1_554 S
H249 C278 0.950 . S
H250 C280 0.950 . S
H251 C281 0.950 . S
C252 H234 0.951 . S
C252 C253 1.366 . S
C252 C254 1.388 . S
C253 C252 1.366 . S
C253 C257 1.385 . S
C254 H235 0.951 . S
C254 C252 1.388 . S
C254 C255 1.366 . S
C255 C254 1.366 . S
C255 C256 1.414 . S
C255 C258 1.499 . S
C256 H236 0.950 1_554 S
C256 C255 1.414 . S
C256 C257 1.374 . S
C257 H237 0.950 . S
C257 C253 1.385 . S
C257 C256 1.374 . S
C258 C255 1.499 . S
C258 C259 1.373 1_544 S
C258 C260 1.389 . S
C259 H238 0.950 . S
C259 C258 1.373 1_566 S
C259 C275 1.377 . S
C260 C258 1.389 . S
C260 C261 1.524 . S
C260 C274 1.377 . S
C261 C260 1.524 . S
C261 C262 1.397 . S
C261 C266 1.363 . S
C262 H239 0.950 1_554 S
C262 C261 1.397 . S
C262 C263 1.334 . S
C263 H240 0.950 . S
C263 C262 1.334 . S
C263 C264 1.287 . S
C264 C263 1.287 . S
C264 C265 1.524 . S
C264 H283 0.913 . S
C265 H241 0.950 . S
C265 C264 1.524 . S
C265 C266 1.415 . S
C266 H242 0.950 . S
C266 C261 1.363 . S
C266 C265 1.415 . S
C267 H243 0.951 . S
C267 C268 1.366 . S
C267 C269 1.388 . S
C268 C267 1.366 . S
C268 C272 1.385 . S
C269 H244 0.951 . S
C269 C267 1.388 . S
C269 C270 1.366 . S
C270 C269 1.366 . S
C270 C271 1.414 . S
C270 C273 1.499 . S
C271 H245 0.950 1_556 S
C271 C270 1.414 . S
C271 C272 1.374 . S
C272 H246 0.950 . S
C272 C268 1.385 . S
C272 C271 1.374 . S
C273 C270 1.499 . S
C273 C274 1.373 1_566 S
C273 C275 1.389 . S
C274 H247 0.950 . S
C274 C260 1.377 . S
C274 C273 1.373 1_544 S
C275 C259 1.377 . S
C275 C273 1.389 . S
C275 C276 1.524 . S
C276 C275 1.524 . S
C276 C277 1.397 . S
C276 C281 1.363 . S
C277 H248 0.950 1_556 S
C277 C276 1.397 . S
C277 C278 1.334 . S
C278 H249 0.950 . S
C278 C277 1.334 . S
C278 C279 1.287 . S
C279 C278 1.287 . S
C279 C280 1.524 . S
C279 H282 0.999 . S
C280 H250 0.950 . S
C280 C279 1.524 . S
C280 C281 1.415 . S
C281 H251 0.950 . S
C281 C276 1.363 . S
C281 C280 1.415 . S
H282 C279 0.999 . S
H283 C264 0.913 . S
H284 C302 0.951 . S
H285 C304 0.951 1_455 S
H286 C306 0.950 1_556 S
H287 C307 0.950 . S
H288 C309 0.950 . S
H289 C312 0.950 . S
H290 C313 0.950 . S
H291 C315 0.950 . S
H292 C316 0.950 . S
H293 C317 0.951 . S
H294 C319 0.951 1_655 S
H295 C321 0.950 1_554 S
H296 C322 0.950 . S
H297 C324 0.950 . S
H298 C327 0.950 . S
H299 C328 0.950 . S
H300 C330 0.950 . S
H301 C331 0.950 . S
C302 H284 0.951 . S
C302 C303 1.366 . S
C302 C304 1.388 . S
C303 C302 1.366 . S
C303 C307 1.385 . S
C304 H285 0.951 1_655 S
C304 C302 1.388 . S
C304 C305 1.366 . S
C305 C304 1.366 . S
C305 C306 1.414 . S
C305 C308 1.499 . S
C306 H286 0.950 1_554 S
C306 C305 1.414 . S
C306 C307 1.374 . S
C307 H287 0.950 . S
C307 C303 1.385 . S
C307 C306 1.374 . S
C308 C305 1.499 . S
C308 C309 1.373 1_554 S
C308 C310 1.389 . S
C309 H288 0.950 . S
C309 C308 1.373 1_556 S
C309 C325 1.377 1_655 S
C310 C308 1.389 . S
C310 C311 1.524 . S
C310 C324 1.377 1_655 S
C311 C310 1.524 . S
C311 C312 1.397 . S
C311 C316 1.363 1_655 S
C312 H289 0.950 . S
C312 C311 1.397 . S
C312 C313 1.334 . S
C313 H290 0.950 . S
C313 C312 1.334 . S
C313 C314 1.287 . S
C314 C313 1.287 . S
C314 C315 1.524 1_655 S
C314 H333 0.913 . S
C315 H291 0.950 . S
C315 C314 1.524 1_455 S
C315 C316 1.415 . S
C316 H292 0.950 . S
C316 C311 1.363 1_455 S
C316 C315 1.415 . S
C317 H293 0.951 . S
C317 C318 1.366 . S
C317 C319 1.388 . S
C318 C317 1.366 . S
C318 C322 1.385 . S
C319 H294 0.951 1_455 S
C319 C317 1.388 . S
C319 C320 1.366 . S
C320 C319 1.366 . S
C320 C321 1.414 . S
C320 C323 1.499 . S
C321 H295 0.950 1_556 S
C321 C320 1.414 . S
C321 C322 1.374 . S
C322 H296 0.950 . S
C322 C318 1.385 . S
C322 C321 1.374 . S
C323 C320 1.499 . S
C323 C324 1.373 1_556 S
C323 C325 1.389 . S
C324 H297 0.950 . S
C324 C310 1.377 1_455 S
C324 C323 1.373 1_554 S
C325 C309 1.377 1_455 S
C325 C323 1.389 . S
C325 C326 1.524 . S
C326 C325 1.524 . S
C326 C327 1.397 . S
C326 C331 1.363 1_455 S
C327 H298 0.950 . S
C327 C326 1.397 . S
C327 C328 1.334 . S
C328 H299 0.950 . S
C328 C327 1.334 . S
C328 C329 1.287 . S
C329 C328 1.287 . S
C329 C330 1.524 1_455 S
C329 H332 0.999 . S
C330 H300 0.950 . S
C330 C329 1.524 1_655 S
C330 C331 1.415 . S
C331 H301 0.950 . S
C331 C326 1.363 1_655 S
C331 C330 1.415 . S
H332 C329 0.999 . S
H333 C314 0.913 . S
H334 C352 0.951 . S
H335 C354 0.951 . S
H336 C356 0.950 . S
H337 C357 0.950 . S
H338 C359 0.950 . S
H339 C362 0.950 . S
H340 C363 0.950 . S
H341 C365 0.950 . S
H342 C366 0.950 . S
H343 C367 0.951 . S
H344 C369 0.951 . S
H345 C371 0.950 . S
H346 C372 0.950 . S
H347 C374 0.950 . S
H348 C377 0.950 . S
H349 C378 0.950 . S
H350 C380 0.950 . S
H351 C381 0.950 . S
C352 H334 0.951 . S
C352 C353 1.366 . S
C352 C354 1.388 . S
C353 C352 1.366 . S
C353 C357 1.385 . S
C354 H335 0.951 . S
C354 C352 1.388 . S
C354 C355 1.366 . S
C355 C354 1.366 . S
C355 C356 1.414 . S
C355 C358 1.499 . S
C356 H336 0.950 . S
C356 C355 1.414 . S
C356 C357 1.374 . S
C357 H337 0.950 . S
C357 C353 1.385 . S
C357 C356 1.374 . S
C358 C355 1.499 . S
C358 C359 1.373 . S
C358 C360 1.389 1_556 S
C359 H338 0.950 . S
C359 C358 1.373 . S
C359 C375 1.377 . S
C360 C358 1.389 1_554 S
C360 C361 1.524 . S
C360 C374 1.377 . S
C361 C360 1.524 . S
C361 C362 1.397 . S
C361 C366 1.363 . S
C362 H339 0.950 . S
C362 C361 1.397 . S
C362 C363 1.334 . S
C363 H340 0.950 . S
C363 C362 1.334 . S
C363 C364 1.287 . S
C364 C363 1.287 . S
C364 C365 1.524 . S
C364 H383 0.913 . S
C365 H341 0.950 . S
C365 C364 1.524 . S
C365 C366 1.415 . S
C366 H342 0.950 . S
C366 C361 1.363 . S
C366 C365 1.415 . S
C367 H343 0.951 . S
C367 C368 1.366 . S
C367 C369 1.388 . S
C368 C367 1.366 . S
C368 C372 1.385 . S
C369 H344 0.951 . S
C369 C367 1.388 . S
C369 C370 1.366 . S
C370 C369 1.366 . S
C370 C371 1.414 . S
C370 C373 1.499 . S
C371 H345 0.950 . S
C371 C370 1.414 . S
C371 C372 1.374 . S
C372 H346 0.950 . S
C372 C368 1.385 . S
C372 C371 1.374 . S
C373 C370 1.499 . S
C373 C374 1.373 . S
C373 C375 1.389 1_554 S
C374 H347 0.950 . S
C374 C360 1.377 . S
C374 C373 1.373 . S
C375 C359 1.377 . S
C375 C373 1.389 1_556 S
C375 C376 1.524 . S
C376 C375 1.524 . S
C376 C377 1.397 . S
C376 C381 1.363 . S
C377 H348 0.950 . S
C377 C376 1.397 . S
C377 C378 1.334 . S
C378 H349 0.950 . S
C378 C377 1.334 . S
C378 C379 1.287 . S
C379 C378 1.287 . S
C379 C380 1.524 . S
C379 H382 0.999 . S
C380 H350 0.950 . S
C380 C379 1.524 . S
C380 C381 1.415 . S
C381 H351 0.950 . S
C381 C376 1.363 . S
C381 C380 1.415 . S
H382 C379 0.999 . S
H383 C364 0.913 . S
H384 C402 0.951 . S
H385 C404 0.951 . S
H386 C406 0.950 . S
H387 C407 0.950 . S
H388 C409 0.950 . S
H389 C412 0.950 . S
H390 C413 0.950 . S
H391 C415 0.950 . S
H392 C416 0.950 . S
H393 C417 0.951 . S
H394 C419 0.951 . S
H395 C421 0.950 . S
H396 C422 0.950 . S
H397 C424 0.950 . S
H398 C427 0.950 . S
H399 C428 0.950 . S
H400 C430 0.950 . S
H401 C431 0.950 . S
C402 H384 0.951 . S
C402 C403 1.366 . S
C402 C404 1.388 . S
C403 C402 1.366 . S
C403 C407 1.385 . S
C404 H385 0.951 . S
C404 C402 1.388 . S
C404 C405 1.366 . S
C405 C404 1.366 . S
C405 C406 1.414 . S
C405 C408 1.499 . S
C406 H386 0.950 . S
C406 C405 1.414 . S
C406 C407 1.374 . S
C407 H387 0.950 . S
C407 C403 1.385 . S
C407 C406 1.374 . S
C408 C405 1.499 . S
C408 C409 1.373 . S
C408 C410 1.389 . S
C409 H388 0.950 . S
C409 C408 1.373 . S
C409 C425 1.377 . S
C410 C408 1.389 . S
C410 C411 1.524 . S
C410 C424 1.377 . S
C411 C410 1.524 . S
C411 C412 1.397 . S
C411 C416 1.363 . S
C412 H389 0.950 . S
C412 C411 1.397 . S
C412 C413 1.334 . S
C413 H390 0.950 . S
C413 C412 1.334 . S
C413 C414 1.287 . S
C414 C413 1.287 . S
C414 C415 1.524 . S
C414 H433 0.913 . S
C415 H391 0.950 . S
C415 C414 1.524 . S
C415 C416 1.415 . S
C416 H392 0.950 . S
C416 C411 1.363 . S
C416 C415 1.415 . S
C417 H393 0.951 . S
C417 C418 1.366 . S
C417 C419 1.388 . S
C418 C417 1.366 . S
C418 C422 1.385 . S
C419 H394 0.951 . S
C419 C417 1.388 . S
C419 C420 1.366 . S
C420 C419 1.366 . S
C420 C421 1.414 . S
C420 C423 1.499 . S
C421 H395 0.950 . S
C421 C420 1.414 . S
C421 C422 1.374 . S
C422 H396 0.950 . S
C422 C418 1.385 . S
C422 C421 1.374 . S
C423 C420 1.499 . S
C423 C424 1.373 . S
C423 C425 1.389 . S
C424 H397 0.950 . S
C424 C410 1.377 . S
C424 C423 1.373 . S
C425 C409 1.377 . S
C425 C423 1.389 . S
C425 C426 1.524 . S
C426 C425 1.524 . S
C426 C427 1.397 . S
C426 C431 1.363 . S
C427 H398 0.950 . S
C427 C426 1.397 . S
C427 C428 1.334 . S
C428 H399 0.950 . S
C428 C427 1.334 . S
C428 C429 1.287 . S
C429 C428 1.287 . S
C429 C430 1.524 . S
C429 H432 0.999 . S
C430 H400 0.950 . S
C430 C429 1.524 . S
C430 C431 1.415 . S
C431 H401 0.950 . S
C431 C426 1.363 . S
C431 C430 1.415 . S
H432 C429 0.999 . S
H433 C414 0.913 . S
H434 C452 0.951 . S
H435 C454 0.951 . S
H436 C456 0.950 . S
H437 C457 0.950 . S
H438 C459 0.950 . S
H439 C462 0.950 . S
H440 C463 0.950 . S
H441 C465 0.950 . S
H442 C466 0.950 . S
H443 C467 0.951 . S
H444 C469 0.951 . S
H445 C471 0.950 . S
H446 C472 0.950 . S
H447 C474 0.950 . S
H448 C477 0.950 . S
H449 C478 0.950 . S
H450 C480 0.950 . S
H451 C481 0.950 . S
C452 H434 0.951 . S
C452 C453 1.366 . S
C452 C454 1.388 . S
C453 C452 1.366 . S
C453 C457 1.385 . S
C454 H435 0.951 . S
C454 C452 1.388 . S
C454 C455 1.366 . S
C455 C454 1.366 . S
C455 C456 1.414 . S
C455 C458 1.499 . S
C456 H436 0.950 . S
C456 C455 1.414 . S
C456 C457 1.374 . S
C457 H437 0.950 . S
C457 C453 1.385 . S
C457 C456 1.374 . S
C458 C455 1.499 . S
C458 C459 1.373 . S
C458 C460 1.389 . S
C459 H438 0.950 . S
C459 C458 1.373 . S
C459 C475 1.377 . S
C460 C458 1.389 . S
C460 C461 1.524 . S
C460 C474 1.377 . S
C461 C460 1.524 . S
C461 C462 1.397 . S
C461 C466 1.363 . S
C462 H439 0.950 . S
C462 C461 1.397 . S
C462 C463 1.334 . S
C463 H440 0.950 . S
C463 C462 1.334 . S
C463 C464 1.287 . S
C464 C463 1.287 . S
C464 C465 1.524 . S
C464 H483 0.913 . S
C465 H441 0.950 . S
C465 C464 1.524 . S
C465 C466 1.415 . S
C466 H442 0.950 . S
C466 C461 1.363 . S
C466 C465 1.415 . S
C467 H443 0.951 . S
C467 C468 1.366 . S
C467 C469 1.388 . S
C468 C467 1.366 . S
C468 C472 1.385 . S
C469 H444 0.951 . S
C469 C467 1.388 . S
C469 C470 1.366 . S
C470 C469 1.366 . S
C470 C471 1.414 . S
C470 C473 1.499 . S
C471 H445 0.950 . S
C471 C470 1.414 . S
C471 C472 1.374 . S
C472 H446 0.950 . S
C472 C468 1.385 . S
C472 C471 1.374 . S
C473 C470 1.499 . S
C473 C474 1.373 . S
C473 C475 1.389 . S
C474 H447 0.950 . S
C474 C460 1.377 . S
C474 C473 1.373 . S
C475 C459 1.377 . S
C475 C473 1.389 . S
C475 C476 1.524 . S
C476 C475 1.524 . S
C476 C477 1.397 . S
C476 C481 1.363 . S
C477 H448 0.950 . S
C477 C476 1.397 . S
C477 C478 1.334 . S
C478 H449 0.950 . S
C478 C477 1.334 . S
C478 C479 1.287 . S
C479 C478 1.287 . S
C479 C480 1.524 . S
C479 H482 0.999 . S
C480 H450 0.950 . S
C480 C479 1.524 . S
C480 C481 1.415 . S
C481 H451 0.950 . S
C481 C476 1.363 . S
C481 C480 1.415 . S
H482 C479 0.999 . S
H483 C464 0.913 . S
H484 C502 0.951 . S
H485 C504 0.951 . S
H486 C506 0.950 . S
H487 C507 0.950 . S
H488 C509 0.950 . S
H489 C512 0.950 . S
H490 C513 0.950 . S
H491 C515 0.950 . S
H492 C516 0.950 . S
H493 C517 0.951 . S
H494 C519 0.951 . S
H495 C521 0.950 . S
H496 C522 0.950 . S
H497 C524 0.950 . S
H498 C527 0.950 . S
H499 C528 0.950 . S
H500 C530 0.950 . S
H501 C531 0.950 . S
C502 H484 0.951 . S
C502 C503 1.366 . S
C502 C504 1.388 . S
C503 C502 1.366 . S
C503 C507 1.385 . S
C504 H485 0.951 . S
C504 C502 1.388 . S
C504 C505 1.366 . S
C505 C504 1.366 . S
C505 C506 1.414 . S
C505 C508 1.499 . S
C506 H486 0.950 . S
C506 C505 1.414 . S
C506 C507 1.374 . S
C507 H487 0.950 . S
C507 C503 1.385 . S
C507 C506 1.374 . S
C508 C505 1.499 . S
C508 C509 1.373 . S
C508 C510 1.389 . S
C509 H488 0.950 . S
C509 C508 1.373 . S
C509 C525 1.377 . S
C510 C508 1.389 . S
C510 C511 1.524 . S
C510 C524 1.377 . S
C511 C510 1.524 . S
C511 C512 1.397 . S
C511 C516 1.363 . S
C512 H489 0.950 . S
C512 C511 1.397 . S
C512 C513 1.334 . S
C513 H490 0.950 . S
C513 C512 1.334 . S
C513 C514 1.287 . S
C514 C513 1.287 . S
C514 C515 1.524 . S
C514 H533 0.913 . S
C515 H491 0.950 . S
C515 C514 1.524 . S
C515 C516 1.415 . S
C516 H492 0.950 . S
C516 C511 1.363 . S
C516 C515 1.415 . S
C517 H493 0.951 . S
C517 C518 1.366 . S
C517 C519 1.388 . S
C518 C517 1.366 . S
C518 C522 1.385 . S
C519 H494 0.951 . S
C519 C517 1.388 . S
C519 C520 1.366 . S
C520 C519 1.366 . S
C520 C521 1.414 . S
C520 C523 1.499 . S
C521 H495 0.950 . S
C521 C520 1.414 . S
C521 C522 1.374 . S
C522 H496 0.950 . S
C522 C518 1.385 . S
C522 C521 1.374 . S
C523 C520 1.499 . S
C523 C524 1.373 . S
C523 C525 1.389 . S
C524 H497 0.950 . S
C524 C510 1.377 . S
C524 C523 1.373 . S
C525 C509 1.377 . S
C525 C523 1.389 . S
C525 C526 1.524 . S
C526 C525 1.524 . S
C526 C527 1.397 . S
C526 C531 1.363 . S
C527 H498 0.950 . S
C527 C526 1.397 . S
C527 C528 1.334 . S
C528 H499 0.950 . S
C528 C527 1.334 . S
C528 C529 1.287 . S
C529 C528 1.287 . S
C529 C530 1.524 . S
C529 H532 0.999 . S
C530 H500 0.950 . S
C530 C529 1.524 . S
C530 C531 1.415 . S
C531 H501 0.950 . S
C531 C526 1.363 . S
C531 C530 1.415 . S
H532 C529 0.999 . S
H533 C514 0.913 . S
H534 C552 0.951 . S
H535 C554 0.951 . S
H536 C556 0.950 . S
H537 C557 0.950 . S
H538 C559 0.950 . S
H539 C562 0.950 . S
H540 C563 0.950 . S
H541 C565 0.950 . S
H542 C566 0.950 . S
H543 C567 0.951 . S
H544 C569 0.951 . S
H545 C571 0.950 . S
H546 C572 0.950 . S
H547 C574 0.950 . S
H548 C577 0.950 . S
H549 C578 0.950 . S
H550 C580 0.950 . S
H551 C581 0.950 . S
C552 H534 0.951 . S
C552 C553 1.366 . S
C552 C554 1.388 . S
C553 C552 1.366 . S
C553 C557 1.385 . S
C554 H535 0.951 . S
C554 C552 1.388 . S
C554 C555 1.366 . S
C555 C554 1.366 . S
C555 C556 1.414 . S
C555 C558 1.499 . S
C556 H536 0.950 . S
C556 C555 1.414 . S
C556 C557 1.374 . S
C557 H537 0.950 . S
C557 C553 1.385 . S
C557 C556 1.374 . S
C558 C555 1.499 . S
C558 C559 1.373 . S
C558 C560 1.389 . S
C559 H538 0.950 . S
C559 C558 1.373 . S
C559 C575 1.377 . S
C560 C558 1.389 . S
C560 C561 1.524 . S
C560 C574 1.377 . S
C561 C560 1.524 . S
C561 C562 1.397 . S
C561 C566 1.363 . S
C562 H539 0.950 . S
C562 C561 1.397 . S
C562 C563 1.334 . S
C563 H540 0.950 . S
C563 C562 1.334 . S
C563 C564 1.287 . S
C564 C563 1.287 . S
C564 C565 1.524 . S
C564 H583 0.913 . S
C565 H541 0.950 . S
C565 C564 1.524 . S
C565 C566 1.415 . S
C566 H542 0.950 . S
C566 C561 1.363 . S
C566 C565 1.415 . S
C567 H543 0.951 . S
C567 C568 1.366 . S
C567 C569 1.388 . S
C568 C567 1.366 . S
C568 C572 1.385 . S
C569 H544 0.951 . S
C569 C567 1.388 . S
C569 C570 1.366 . S
C570 C569 1.366 . S
C570 C571 1.414 . S
C570 C573 1.499 . S
C571 H545 0.950 . S
C571 C570 1.414 . S
C571 C572 1.374 . S
C572 H546 0.950 . S
C572 C568 1.385 . S
C572 C571 1.374 . S
C573 C570 1.499 . S
C573 C574 1.373 . S
C573 C575 1.389 . S
C574 H547 0.950 . S
C574 C560 1.377 . S
C574 C573 1.373 . S
C575 C559 1.377 . S
C575 C573 1.389 . S
C575 C576 1.524 . S
C576 C575 1.524 . S
C576 C577 1.397 . S
C576 C581 1.363 . S
C577 H548 0.950 . S
C577 C576 1.397 . S
C577 C578 1.334 . S
C578 H549 0.950 . S
C578 C577 1.334 . S
C578 C579 1.287 . S
C579 C578 1.287 . S
C579 C580 1.524 . S
C579 H582 0.999 . S
C580 H550 0.950 . S
C580 C579 1.524 . S
C580 C581 1.415 . S
C581 H551 0.950 . S
C581 C576 1.363 . S
C581 C580 1.415 . S
H582 C579 0.999 . S
H583 C564 0.913 . S
H584 C602 0.951 . S
H585 C604 0.951 . S
H586 C606 0.950 . S
H587 C607 0.950 . S
H588 C609 0.950 . S
H589 C612 0.950 . S
H590 C613 0.950 . S
H591 C615 0.950 . S
H592 C616 0.950 . S
H593 C617 0.951 . S
H594 C619 0.951 . S
H595 C621 0.950 . S
H596 C622 0.950 . S
H597 C624 0.950 . S
H598 C627 0.950 . S
H599 C628 0.950 . S
H600 C630 0.950 . S
H601 C631 0.950 . S
C602 H584 0.951 . S
C602 C603 1.366 . S
C602 C604 1.388 . S
C603 C602 1.366 . S
C603 C607 1.385 . S
C604 H585 0.951 . S
C604 C602 1.388 . S
C604 C605 1.366 . S
C605 C604 1.366 . S
C605 C606 1.414 . S
C605 C608 1.499 . S
C606 H586 0.950 . S
C606 C605 1.414 . S
C606 C607 1.374 . S
C607 H587 0.950 . S
C607 C603 1.385 . S
C607 C606 1.374 . S
C608 C605 1.499 . S
C608 C609 1.373 . S
C608 C610 1.389 . S
C609 H588 0.950 . S
C609 C608 1.373 . S
C609 C625 1.377 . S
C610 C608 1.389 . S
C610 C611 1.524 . S
C610 C624 1.377 . S
C611 C610 1.524 . S
C611 C612 1.397 . S
C611 C616 1.363 . S
C612 H589 0.950 . S
C612 C611 1.397 . S
C612 C613 1.334 . S
C613 H590 0.950 . S
C613 C612 1.334 . S
C613 C614 1.287 . S
C614 C613 1.287 . S
C614 C615 1.524 . S
C614 H633 0.913 . S
C615 H591 0.950 . S
C615 C614 1.524 . S
C615 C616 1.415 . S
C616 H592 0.950 . S
C616 C611 1.363 . S
C616 C615 1.415 . S
C617 H593 0.951 . S
C617 C618 1.366 . S
C617 C619 1.388 . S
C618 C617 1.366 . S
C618 C622 1.385 . S
C619 H594 0.951 . S
C619 C617 1.388 . S
C619 C620 1.366 . S
C620 C619 1.366 . S
C620 C621 1.414 . S
C620 C623 1.499 . S
C621 H595 0.950 . S
C621 C620 1.414 . S
C621 C622 1.374 . S
C622 H596 0.950 . S
C622 C618 1.385 . S
C622 C621 1.374 . S
C623 C620 1.499 . S
C623 C624 1.373 . S
C623 C625 1.389 . S
C624 H597 0.950 . S
C624 C610 1.377 . S
C624 C623 1.373 . S
C625 C609 1.377 . S
C625 C623 1.389 . S
C625 C626 1.524 . S
C626 C625 1.524 . S
C626 C627 1.397 . S
C626 C631 1.363 . S
C627 H598 0.950 . S
C627 C626 1.397 . S
C627 C628 1.334 . S
C628 H599 0.950 . S
C628 C627 1.334 . S
C628 C629 1.287 . S
C629 C628 1.287 . S
C629 C630 1.524 . S
C629 H632 0.999 . S
C630 H600 0.950 . S
C630 C629 1.524 . S
C630 C631 1.415 . S
C631 H601 0.950 . S
C631 C626 1.363 . S
C631 C630 1.415 . S
H632 C629 0.999 . S
H633 C614 0.913 . S
H634 C652 0.951 . S
H635 C654 0.951 . S
H636 C656 0.950 . S
H637 C657 0.950 . S
H638 C659 0.950 . S
H639 C662 0.950 . S
H640 C663 0.950 . S
H641 C665 0.950 . S
H642 C666 0.950 . S
H643 C667 0.951 . S
H644 C669 0.951 . S
H645 C671 0.950 . S
H646 C672 0.950 . S
H647 C674 0.950 . S
H648 C677 0.950 . S
H649 C678 0.950 . S
H650 C680 0.950 . S
H651 C681 0.950 . S
C652 H634 0.951 . S
C652 C653 1.366 . S
C652 C654 1.388 . S
C653 C652 1.366 . S
C653 C657 1.385 . S
C654 H635 0.951 . S
C654 C652 1.388 . S
C654 C655 1.366 . S
C655 C654 1.366 . S
C655 C656 1.414 . S
C655 C658 1.499 . S
C656 H636 0.950 . S
C656 C655 1.414 . S
C656 C657 1.374 . S
C657 H637 0.950 . S
C657 C653 1.385 . S
C657 C656 1.374 . S
C658 C655 1.499 . S
C658 C659 1.373 . S
C658 C660 1.389 . S
C659 H638 0.950 . S
C659 C658 1.373 . S
C659 C675 1.377 . S
C660 C658 1.389 . S
C660 C661 1.524 . S
C660 C674 1.377 . S
C661 C660 1.524 . S
C661 C662 1.397 . S
C661 C666 1.363 . S
C662 H639 0.950 . S
C662 C661 1.397 . S
C662 C663 1.334 . S
C663 H640 0.950 . S
C663 C662 1.334 . S
C663 C664 1.287 . S
C664 C663 1.287 . S
C664 C665 1.524 . S
C664 H683 0.913 . S
C665 H641 0.950 . S
C665 C664 1.524 . S
C665 C666 1.415 . S
C666 H642 0.950 . S
C666 C661 1.363 . S
C666 C665 1.415 . S
C667 H643 0.951 . S
C667 C668 1.366 . S
C667 C669 1.388 . S
C668 C667 1.366 . S
C668 C672 1.385 . S
C669 H644 0.951 . S
C669 C667 1.388 . S
C669 C670 1.366 . S
C670 C669 1.366 . S
C670 C671 1.414 . S
C670 C673 1.499 . S
C671 H645 0.950 . S
C671 C670 1.414 . S
C671 C672 1.374 . S
C672 H646 0.950 . S
C672 C668 1.385 . S
C672 C671 1.374 . S
C673 C670 1.499 . S
C673 C674 1.373 . S
C673 C675 1.389 . S
C674 H647 0.950 . S
C674 C660 1.377 . S
C674 C673 1.373 . S
C675 C659 1.377 . S
C675 C673 1.389 . S
C675 C676 1.524 . S
C676 C675 1.524 . S
C676 C677 1.397 . S
C676 C681 1.363 . S
C677 H648 0.950 . S
C677 C676 1.397 . S
C677 C678 1.334 . S
C678 H649 0.950 . S
C678 C677 1.334 . S
C678 C679 1.287 . S
C679 C678 1.287 . S
C679 C680 1.524 . S
C679 H682 0.999 . S
C680 H650 0.950 . S
C680 C679 1.524 . S
C680 C681 1.415 . S
C681 H651 0.950 . S
C681 C676 1.363 . S
C681 C680 1.415 . S
H682 C679 0.999 . S
H683 C664 0.913 . S
H684 C702 0.951 . S
H685 C704 0.951 . S
H686 C706 0.950 . S
H687 C707 0.950 . S
H688 C709 0.950 . S
H689 C712 0.950 . S
H690 C713 0.950 . S
H691 C715 0.950 . S
H692 C716 0.950 . S
H693 C717 0.951 . S
H694 C719 0.951 . S
H695 C721 0.950 . S
H696 C722 0.950 . S
H697 C724 0.950 . S
H698 C727 0.950 . S
H699 C728 0.950 . S
H700 C730 0.950 . S
H701 C731 0.950 . S
C702 H684 0.951 . S
C702 C703 1.366 . S
C702 C704 1.388 . S
C703 C702 1.366 . S
C703 C707 1.385 . S
C704 H685 0.951 . S
C704 C702 1.388 . S
C704 C705 1.366 . S
C705 C704 1.366 . S
C705 C706 1.414 . S
C705 C708 1.499 . S
C706 H686 0.950 . S
C706 C705 1.414 . S
C706 C707 1.374 . S
C707 H687 0.950 . S
C707 C703 1.385 . S
C707 C706 1.374 . S
C708 C705 1.499 . S
C708 C709 1.373 . S
C708 C710 1.389 . S
C709 H688 0.950 . S
C709 C708 1.373 . S
C709 C725 1.377 . S
C710 C708 1.389 . S
C710 C711 1.524 . S
C710 C724 1.377 . S
C711 C710 1.524 . S
C711 C712 1.397 . S
C711 C716 1.363 . S
C712 H689 0.950 . S
C712 C711 1.397 . S
C712 C713 1.334 . S
C713 H690 0.950 . S
C713 C712 1.334 . S
C713 C714 1.287 . S
C714 C713 1.287 . S
C714 C715 1.524 . S
C714 H733 0.913 . S
C715 H691 0.950 . S
C715 C714 1.524 . S
C715 C716 1.415 . S
C716 H692 0.950 . S
C716 C711 1.363 . S
C716 C715 1.415 . S
C717 H693 0.951 . S
C717 C718 1.366 . S
C717 C719 1.388 . S
C718 C717 1.366 . S
C718 C722 1.385 . S
C719 H694 0.951 . S
C719 C717 1.388 . S
C719 C720 1.366 . S
C720 C719 1.366 . S
C720 C721 1.414 . S
C720 C723 1.499 . S
C721 H695 0.950 . S
C721 C720 1.414 . S
C721 C722 1.374 . S
C722 H696 0.950 . S
C722 C718 1.385 . S
C722 C721 1.374 . S
C723 C720 1.499 . S
C723 C724 1.373 . S
C723 C725 1.389 . S
C724 H697 0.950 . S
C724 C710 1.377 . S
C724 C723 1.373 . S
C725 C709 1.377 . S
C725 C723 1.389 . S
C725 C726 1.524 . S
C726 C725 1.524 . S
C726 C727 1.397 . S
C726 C731 1.363 . S
C727 H698 0.950 . S
C727 C726 1.397 . S
C727 C728 1.334 . S
C728 H699 0.950 . S
C728 C727 1.334 . S
C728 C729 1.287 . S
C729 C728 1.287 . S
C729 C730 1.524 . S
C729 H732 0.999 . S
C730 H700 0.950 . S
C730 C729 1.524 . S
C730 C731 1.415 . S
C731 H701 0.950 . S
C731 C726 1.363 . S
C731 C730 1.415 . S
H732 C729 0.999 . S
H733 C714 0.913 . S
H734 C752 0.951 . S
H735 C754 0.951 . S
H736 C756 0.950 . S
H737 C757 0.950 . S
H738 C759 0.950 . S
H739 C762 0.950 . S
H740 C763 0.950 . S
H741 C765 0.950 . S
H742 C766 0.950 . S
H743 C767 0.951 . S
H744 C769 0.951 . S
H745 C771 0.950 . S
H746 C772 0.950 . S
H747 C774 0.950 . S
H748 C777 0.950 . S
H749 C778 0.950 . S
H750 C780 0.950 . S
H751 C781 0.950 . S
C752 H734 0.951 . S
C752 C753 1.366 . S
C752 C754 1.388 . S
C753 C752 1.366 . S
C753 C757 1.385 . S
C754 H735 0.951 . S
C754 C752 1.388 . S
C754 C755 1.366 . S
C755 C754 1.366 . S
C755 C756 1.414 . S
C755 C758 1.499 . S
C756 H736 0.950 . S
C756 C755 1.414 . S
C756 C757 1.374 . S
C757 H737 0.950 . S
C757 C753 1.385 . S
C757 C756 1.374 . S
C758 C755 1.499 . S
C758 C759 1.373 . S
C758 C760 1.389 . S
C759 H738 0.950 . S
C759 C758 1.373 . S
C759 C775 1.377 . S
C760 C758 1.389 . S
C760 C761 1.524 . S
C760 C774 1.377 . S
C761 C760 1.524 . S
C761 C762 1.397 . S
C761 C766 1.363 . S
C762 H739 0.950 . S
C762 C761 1.397 . S
C762 C763 1.334 . S
C763 H740 0.950 . S
C763 C762 1.334 . S
C763 C764 1.287 . S
C764 C763 1.287 . S
C764 C765 1.524 . S
C764 H783 0.913 . S
C765 H741 0.950 . S
C765 C764 1.524 . S
C765 C766 1.415 . S
C766 H742 0.950 . S
C766 C761 1.363 . S
C766 C765 1.415 . S
C767 H743 0.951 . S
C767 C768 1.366 . S
C767 C769 1.388 . S
C768 C767 1.366 . S
C768 C772 1.385 . S
C769 H744 0.951 . S
C769 C767 1.388 . S
C769 C770 1.366 . S
C770 C769 1.366 . S
C770 C771 1.414 . S
C770 C773 1.499 . S
C771 H745 0.950 . S
C771 C770 1.414 . S
C771 C772 1.374 . S
C772 H746 0.950 . S
C772 C768 1.385 . S
C772 C771 1.374 . S
C773 C770 1.499 . S
C773 C774 1.373 . S
C773 C775 1.389 . S
C774 H747 0.950 . S
C774 C760 1.377 . S
C774 C773 1.373 . S
C775 C759 1.377 . S
C775 C773 1.389 . S
C775 C776 1.524 . S
C776 C775 1.524 . S
C776 C777 1.397 . S
C776 C781 1.363 . S
C777 H748 0.950 . S
C777 C776 1.397 . S
C777 C778 1.334 . S
C778 H749 0.950 . S
C778 C777 1.334 . S
C778 C779 1.287 . S
C779 C778 1.287 . S
C779 C780 1.524 . S
C779 H782 0.999 . S
C780 H750 0.950 . S
C780 C779 1.524 . S
C780 C781 1.415 . S
C781 H751 0.950 . S
C781 C776 1.363 . S
C781 C780 1.415 . S
H782 C779 0.999 . S
H783 C764 0.913 . S
H784 C802 0.951 . S
H785 C804 0.951 . S
H786 C806 0.950 . S
H787 C807 0.950 . S
H788 C809 0.950 . S
H789 C812 0.950 . S
H790 C813 0.950 . S
H791 C815 0.950 . S
H792 C816 0.950 . S
H793 C817 0.951 . S
H794 C819 0.951 . S
H795 C821 0.950 . S
H796 C822 0.950 . S
H797 C824 0.950 . S
H798 C827 0.950 . S
H799 C828 0.950 . S
H800 C830 0.950 . S
H801 C831 0.950 . S
C802 H784 0.951 . S
C802 C803 1.366 . S
C802 C804 1.388 . S
C803 C802 1.366 . S
C803 C807 1.385 . S
C804 H785 0.951 . S
C804 C802 1.388 . S
C804 C805 1.366 . S
C805 C804 1.366 . S
C805 C806 1.414 . S
C805 C808 1.499 . S
C806 H786 0.950 . S
C806 C805 1.414 . S
C806 C807 1.374 . S
C807 H787 0.950 . S
C807 C803 1.385 . S
C807 C806 1.374 . S
C808 C805 1.499 . S
C808 C809 1.373 . S
C808 C810 1.389 . S
C809 H788 0.950 . S
C809 C808 1.373 . S
C809 C825 1.377 . S
C810 C808 1.389 . S
C810 C811 1.524 . S
C810 C824 1.377 . S
C811 C810 1.524 . S
C811 C812 1.397 . S
C811 C816 1.363 . S
C812 H789 0.950 . S
C812 C811 1.397 . S
C812 C813 1.334 . S
C813 H790 0.950 . S
C813 C812 1.334 . S
C813 C814 1.287 . S
C814 C813 1.287 . S
C814 C815 1.524 . S
C814 H833 0.913 . S
C815 H791 0.950 . S
C815 C814 1.524 . S
C815 C816 1.415 . S
C816 H792 0.950 . S
C816 C811 1.363 . S
C816 C815 1.415 . S
C817 H793 0.951 . S
C817 C818 1.366 . S
C817 C819 1.388 . S
C818 C817 1.366 . S
C818 C822 1.385 . S
C819 H794 0.951 . S
C819 C817 1.388 . S
C819 C820 1.366 . S
C820 C819 1.366 . S
C820 C821 1.414 . S
C820 C823 1.499 . S
C821 H795 0.950 . S
C821 C820 1.414 . S
C821 C822 1.374 . S
C822 H796 0.950 . S
C822 C818 1.385 . S
C822 C821 1.374 . S
C823 C820 1.499 . S
C823 C824 1.373 . S
C823 C825 1.389 . S
C824 H797 0.950 . S
C824 C810 1.377 . S
C824 C823 1.373 . S
C825 C809 1.377 . S
C825 C823 1.389 . S
C825 C826 1.524 . S
C826 C825 1.524 . S
C826 C827 1.397 . S
C826 C831 1.363 . S
C827 H798 0.950 . S
C827 C826 1.397 . S
C827 C828 1.334 . S
C828 H799 0.950 . S
C828 C827 1.334 . S
C828 C829 1.287 . S
C829 C828 1.287 . S
C829 C830 1.524 . S
C829 H832 0.999 . S
C830 H800 0.950 . S
C830 C829 1.524 . S
C830 C831 1.415 . S
C831 H801 0.950 . S
C831 C826 1.363 . S
C831 C830 1.415 . S
H832 C829 0.999 . S
H833 C814 0.913 . S
H834 C852 0.951 . S
H835 C854 0.951 . S
H836 C856 0.950 . S
H837 C857 0.950 . S
H838 C859 0.950 . S
H839 C862 0.950 . S
H840 C863 0.950 . S
H841 C865 0.950 . S
H842 C866 0.950 . S
H843 C867 0.951 . S
H844 C869 0.951 . S
H845 C871 0.950 . S
H846 C872 0.950 . S
H847 C874 0.950 . S
H848 C877 0.950 . S
H849 C878 0.950 . S
H850 C880 0.950 . S
H851 C881 0.950 . S
C852 H834 0.951 . S
C852 C853 1.366 . S
C852 C854 1.388 . S
C853 C852 1.366 . S
C853 C857 1.385 . S
C854 H835 0.951 . S
C854 C852 1.388 . S
C854 C855 1.366 . S
C855 C854 1.366 . S
C855 C856 1.414 . S
C855 C858 1.499 . S
C856 H836 0.950 . S
C856 C855 1.414 . S
C856 C857 1.374 . S
C857 H837 0.950 . S
C857 C853 1.385 . S
C857 C856 1.374 . S
C858 C855 1.499 . S
C858 C859 1.373 . S
C858 C860 1.389 . S
C859 H838 0.950 . S
C859 C858 1.373 . S
C859 C875 1.377 . S
C860 C858 1.389 . S
C860 C861 1.524 . S
C860 C874 1.377 . S
C861 C860 1.524 . S
C861 C862 1.397 . S
C861 C866 1.363 . S
C862 H839 0.950 . S
C862 C861 1.397 . S
C862 C863 1.334 . S
C863 H840 0.950 . S
C863 C862 1.334 . S
C863 C864 1.287 . S
C864 C863 1.287 . S
C864 C865 1.524 . S
C864 H883 0.913 . S
C865 H841 0.950 . S
C865 C864 1.524 . S
C865 C866 1.415 . S
C866 H842 0.950 . S
C866 C861 1.363 . S
C866 C865 1.415 . S
C867 H843 0.951 . S
C867 C868 1.366 . S
C867 C869 1.388 . S
C868 C867 1.366 . S
C868 C872 1.385 . S
C869 H844 0.951 . S
C869 C867 1.388 . S
C869 C870 1.366 . S
C870 C869 1.366 . S
C870 C871 1.414 . S
C870 C873 1.499 . S
C871 H845 0.950 . S
C871 C870 1.414 . S
C871 C872 1.374 . S
C872 H846 0.950 . S
C872 C868 1.385 . S
C872 C871 1.374 . S
C873 C870 1.499 . S
C873 C874 1.373 . S
C873 C875 1.389 . S
C874 H847 0.950 . S
C874 C860 1.377 . S
C874 C873 1.373 . S
C875 C859 1.377 . S
C875 C873 1.389 . S
C875 C876 1.524 . S
C876 C875 1.524 . S
C876 C877 1.397 . S
C876 C881 1.363 . S
C877 H848 0.950 . S
C877 C876 1.397 . S
C877 C878 1.334 . S
C878 H849 0.950 . S
C878 C877 1.334 . S
C878 C879 1.287 . S
C879 C878 1.287 . S
C879 C880 1.524 . S
C879 H882 0.999 . S
C880 H850 0.950 . S
C880 C879 1.524 . S
C880 C881 1.415 . S
C881 H851 0.950 . S
C881 C876 1.363 . S
C881 C880 1.415 . S
H882 C879 0.999 . S
H883 C864 0.913 . S
H884 C902 0.951 . S
H885 C904 0.951 . S
H886 C906 0.950 . S
H887 C907 0.950 . S
H888 C909 0.950 . S
H889 C912 0.950 . S
H890 C913 0.950 . S
H891 C915 0.950 . S
H892 C916 0.950 . S
H893 C917 0.951 . S
H894 C919 0.951 . S
H895 C921 0.950 . S
H896 C922 0.950 . S
H897 C924 0.950 . S
H898 C927 0.950 . S
H899 C928 0.950 . S
H900 C930 0.950 . S
H901 C931 0.950 . S
C902 H884 0.951 . S
C902 C903 1.366 . S
C902 C904 1.388 . S
C903 C902 1.366 . S
C903 C907 1.385 . S
C904 H885 0.951 . S
C904 C902 1.388 . S
C904 C905 1.366 . S
C905 C904 1.366 . S
C905 C906 1.414 . S
C905 C908 1.499 . S
C906 H886 0.950 . S
C906 C905 1.414 . S
C906 C907 1.374 . S
C907 H887 0.950 . S
C907 C903 1.385 . S
C907 C906 1.374 . S
C908 C905 1.499 . S
C908 C909 1.373 . S
C908 C910 1.389 . S
C909 H888 0.950 . S
C909 C908 1.373 . S
C909 C925 1.377 . S
C910 C908 1.389 . S
C910 C911 1.524 . S
C910 C924 1.377 . S
C911 C910 1.524 . S
C911 C912 1.397 . S
C911 C916 1.363 . S
C912 H889 0.950 . S
C912 C911 1.397 . S
C912 C913 1.334 . S
C913 H890 0.950 . S
C913 C912 1.334 . S
C913 C914 1.287 . S
C914 C913 1.287 . S
C914 C915 1.524 . S
C914 H933 0.913 . S
C915 H891 0.950 . S
C915 C914 1.524 . S
C915 C916 1.415 . S
C916 H892 0.950 . S
C916 C911 1.363 . S
C916 C915 1.415 . S
C917 H893 0.951 . S
C917 C918 1.366 . S
C917 C919 1.388 . S
C918 C917 1.366 . S
C918 C922 1.385 . S
C919 H894 0.951 . S
C919 C917 1.388 . S
C919 C920 1.366 . S
C920 C919 1.366 . S
C920 C921 1.414 . S
C920 C923 1.499 . S
C921 H895 0.950 . S
C921 C920 1.414 . S
C921 C922 1.374 . S
C922 H896 0.950 . S
C922 C918 1.385 . S
C922 C921 1.374 . S
C923 C920 1.499 . S
C923 C924 1.373 . S
C923 C925 1.389 . S
C924 H897 0.950 . S
C924 C910 1.377 . S
C924 C923 1.373 . S
C925 C909 1.377 . S
C925 C923 1.389 . S
C925 C926 1.524 . S
C926 C925 1.524 . S
C926 C927 1.397 . S
C926 C931 1.363 . S
C927 H898 0.950 . S
C927 C926 1.397 . S
C927 C928 1.334 . S
C928 H899 0.950 . S
C928 C927 1.334 . S
C928 C929 1.287 . S
C929 C928 1.287 . S
C929 C930 1.524 . S
C929 H932 0.999 . S
C930 H900 0.950 . S
C930 C929 1.524 . S
C930 C931 1.415 . S
C931 H901 0.950 . S
C931 C926 1.363 . S
C931 C930 1.415 . S
H932 C929 0.999 . S
H933 C914 0.913 . S
H934 C952 0.951 . S
H935 C954 0.951 . S
H936 C956 0.950 . S
H937 C957 0.950 . S
H938 C959 0.950 . S
H939 C962 0.950 . S
H940 C963 0.950 . S
H941 C965 0.950 . S
H942 C966 0.950 . S
H943 C967 0.951 . S
H944 C969 0.951 . S
H945 C971 0.950 . S
H946 C972 0.950 . S
H947 C974 0.950 . S
H948 C977 0.950 . S
H949 C978 0.950 . S
H950 C980 0.950 . S
H951 C981 0.950 . S
C952 H934 0.951 . S
C952 C953 1.366 . S
C952 C954 1.388 . S
C953 C952 1.366 . S
C953 C957 1.385 . S
C954 H935 0.951 . S
C954 C952 1.388 . S
C954 C955 1.366 . S
C955 C954 1.366 . S
C955 C956 1.414 . S
C955 C958 1.499 . S
C956 H936 0.950 . S
C956 C955 1.414 . S
C956 C957 1.374 . S
C957 H937 0.950 . S
C957 C953 1.385 . S
C957 C956 1.374 . S
C958 C955 1.499 . S
C958 C959 1.373 . S
C958 C960 1.389 . S
C959 H938 0.950 . S
C959 C958 1.373 . S
C959 C975 1.377 . S
C960 C958 1.389 . S
C960 C961 1.524 . S
C960 C974 1.377 . S
C961 C960 1.524 . S
C961 C962 1.397 . S
C961 C966 1.363 . S
C962 H939 0.950 . S
C962 C961 1.397 . S
C962 C963 1.334 . S
C963 H940 0.950 . S
C963 C962 1.334 . S
C963 C964 1.287 . S
C964 C963 1.287 . S
C964 C965 1.524 . S
C964 H983 0.913 . S
C965 H941 0.950 . S
C965 C964 1.524 . S
C965 C966 1.415 . S
C966 H942 0.950 . S
C966 C961 1.363 . S
C966 C965 1.415 . S
C967 H943 0.951 . S
C967 C968 1.366 . S
C967 C969 1.388 . S
C968 C967 1.366 . S
C968 C972 1.385 . S
C969 H944 0.951 . S
C969 C967 1.388 . S
C969 C970 1.366 . S
C970 C969 1.366 . S
C970 C971 1.414 . S
C970 C973 1.499 . S
C971 H945 0.950 . S
C971 C970 1.414 . S
C971 C972 1.374 . S
C972 H946 0.950 . S
C972 C968 1.385 . S
C972 C971 1.374 . S
C973 C970 1.499 . S
C973 C974 1.373 . S
C973 C975 1.389 . S
C974 H947 0.950 . S
C974 C960 1.377 . S
C974 C973 1.373 . S
C975 C959 1.377 . S
C975 C973 1.389 . S
C975 C976 1.524 . S
C976 C975 1.524 . S
C976 C977 1.397 . S
C976 C981 1.363 . S
C977 H948 0.950 . S
C977 C976 1.397 . S
C977 C978 1.334 . S
C978 H949 0.950 . S
C978 C977 1.334 . S
C978 C979 1.287 . S
C979 C978 1.287 . S
C979 C980 1.524 . S
C979 H982 0.999 . S
C980 H950 0.950 . S
C980 C979 1.524 . S
C980 C981 1.415 . S
C981 H951 0.950 . S
C981 C976 1.363 . S
C981 C980 1.415 . S
H982 C979 0.999 . S
H983 C964 0.913 . S
H984 C1002 0.951 1_655 S
H985 C1004 0.951 . S
H986 C1006 0.950 . S
H987 C1007 0.950 . S
H988 C1009 0.950 . S
H989 C1012 0.950 . S
H990 C1013 0.950 . S
H991 C1015 0.950 . S
H992 C1016 0.950 . S
H993 C1017 0.951 1_455 S
H994 C1019 0.951 . S
H995 C1021 0.950 . S
H996 C1022 0.950 . S
H997 C1024 0.950 . S
H998 C1027 0.950 . S
H999 C1028 0.950 . S
H1000 C1030 0.950 . S
H1001 C1031 0.950 . S
C1002 H984 0.951 1_455 S
C1002 C1003 1.365 . S
C1002 C1004 1.388 1_455 S
C1003 C1002 1.365 . S
C1003 C1007 1.385 . S
C1004 H985 0.951 . S
C1004 C1002 1.388 1_655 S
C1004 C1005 1.366 1_655 S
C1005 C1004 1.366 1_455 S
C1005 C1006 1.414 . S
C1005 C1008 1.499 . S
C1006 H986 0.950 . S
C1006 C1005 1.414 . S
C1006 C1007 1.374 . S
C1007 H987 0.950 . S
C1007 C1003 1.385 . S
C1007 C1006 1.374 . S
C1008 C1005 1.499 . S
C1008 C1009 1.373 . S
C1008 C1010 1.389 1_455 S
C1009 H988 0.950 . S
C1009 C1008 1.373 . S
C1009 C1025 1.377 . S
C1010 C1008 1.389 1_655 S
C1010 C1011 1.524 . S
C1010 C1024 1.377 . S
C1011 C1010 1.524 . S
C1011 C1012 1.397 1_655 S
C1011 C1016 1.363 . S
C1012 H989 0.950 . S
C1012 C1011 1.397 1_455 S
C1012 C1013 1.334 . S
C1013 H990 0.950 . S
C1013 C1012 1.334 . S
C1013 C1014 1.287 1_455 S
C1014 C1013 1.287 1_655 S
C1014 C1015 1.524 . S
C1014 H1033 0.913 . S
C1015 H991 0.950 . S
C1015 C1014 1.524 . S
C1015 C1016 1.415 . S
C1016 H992 0.950 . S
C1016 C1011 1.363 . S
C1016 C1015 1.415 . S
C1017 H993 0.951 1_655 S
C1017 C1018 1.365 . S
C1017 C1019 1.388 1_655 S
C1018 C1017 1.365 . S
C1018 C1022 1.385 . S
C1019 H994 0.951 . S
C1019 C1017 1.388 1_455 S
C1019 C1020 1.366 1_455 S
C1020 C1019 1.366 1_655 S
C1020 C1021 1.414 . S
C1020 C1023 1.499 . S
C1021 H995 0.950 . S
C1021 C1020 1.414 . S
C1021 C1022 1.374 . S
C1022 H996 0.950 . S
C1022 C1018 1.385 . S
C1022 C1021 1.374 . S
C1023 C1020 1.499 . S
C1023 C1024 1.373 . S
C1023 C1025 1.389 1_655 S
C1024 H997 0.950 . S
C1024 C1010 1.377 . S
C1024 C1023 1.373 . S
C1025 C1009 1.377 . S
C1025 C1023 1.389 1_455 S
C1025 C1026 1.524 . S
C1026 C1025 1.524 . S
C1026 C1027 1.397 1_455 S
C1026 C1031 1.363 . S
C1027 H998 0.950 . S
C1027 C1026 1.397 1_655 S
C1027 C1028 1.334 . S
C1028 H999 0.950 . S
C1028 C1027 1.334 . S
C1028 C1029 1.287 1_655 S
C1029 C1028 1.287 1_455 S
C1029 C1030 1.524 . S
C1029 H1032 0.999 . S
C1030 H1000 0.950 . S
C1030 C1029 1.524 . S
C1030 C1031 1.415 . S
C1031 H1001 0.950 . S
C1031 C1026 1.363 . S
C1031 C1030 1.415 . S
H1032 C1029 0.999 . S
H1033 C1014 0.913 . S
H1034 C1052 0.951 . S
H1035 C1054 0.951 . S
H1036 C1056 0.950 . S
H1037 C1057 0.950 . S
H1038 C1059 0.950 . S
H1039 C1062 0.950 . S
H1040 C1063 0.950 . S
H1041 C1065 0.950 . S
H1042 C1066 0.950 . S
H1043 C1067 0.951 . S
H1044 C1069 0.951 . S
H1045 C1071 0.950 . S
H1046 C1072 0.950 . S
H1047 C1074 0.950 . S
H1048 C1077 0.950 . S
H1049 C1078 0.950 . S
H1050 C1080 0.950 . S
H1051 C1081 0.950 . S
C1052 H1034 0.951 . S
C1052 C1053 1.366 . S
C1052 C1054 1.388 . S
C1053 C1052 1.366 . S
C1053 C1057 1.385 . S
C1054 H1035 0.951 . S
C1054 C1052 1.388 . S
C1054 C1055 1.366 . S
C1055 C1054 1.366 . S
C1055 C1056 1.414 . S
C1055 C1058 1.499 . S
C1056 H1036 0.950 . S
C1056 C1055 1.414 . S
C1056 C1057 1.374 . S
C1057 H1037 0.950 . S
C1057 C1053 1.385 . S
C1057 C1056 1.374 . S
C1058 C1055 1.499 . S
C1058 C1059 1.373 . S
C1058 C1060 1.389 . S
C1059 H1038 0.950 . S
C1059 C1058 1.373 . S
C1059 C1075 1.377 . S
C1060 C1058 1.389 . S
C1060 C1061 1.524 . S
C1060 C1074 1.377 . S
C1061 C1060 1.524 . S
C1061 C1062 1.397 . S
C1061 C1066 1.363 . S
C1062 H1039 0.950 . S
C1062 C1061 1.397 . S
C1062 C1063 1.334 . S
C1063 H1040 0.950 . S
C1063 C1062 1.334 . S
C1063 C1064 1.287 . S
C1064 C1063 1.287 . S
C1064 C1065 1.524 . S
C1064 H1083 0.913 . S
C1065 H1041 0.950 . S
C1065 C1064 1.524 . S
C1065 C1066 1.415 . S
C1066 H1042 0.950 . S
C1066 C1061 1.363 . S
C1066 C1065 1.415 . S
C1067 H1043 0.951 . S
C1067 C1068 1.366 . S
C1067 C1069 1.388 . S
C1068 C1067 1.366 . S
C1068 C1072 1.385 . S
C1069 H1044 0.951 . S
C1069 C1067 1.388 . S
C1069 C1070 1.366 . S
C1070 C1069 1.366 . S
C1070 C1071 1.414 . S
C1070 C1073 1.499 . S
C1071 H1045 0.950 . S
C1071 C1070 1.414 . S
C1071 C1072 1.374 . S
C1072 H1046 0.950 . S
C1072 C1068 1.385 . S
C1072 C1071 1.374 . S
C1073 C1070 1.499 . S
C1073 C1074 1.373 . S
C1073 C1075 1.389 . S
C1074 H1047 0.950 . S
C1074 C1060 1.377 . S
C1074 C1073 1.373 . S
C1075 C1059 1.377 . S
C1075 C1073 1.389 . S
C1075 C1076 1.524 . S
C1076 C1075 1.524 . S
C1076 C1077 1.397 . S
C1076 C1081 1.363 . S
C1077 H1048 0.950 . S
C1077 C1076 1.397 . S
C1077 C1078 1.334 . S
C1078 H1049 0.950 . S
C1078 C1077 1.334 . S
C1078 C1079 1.287 . S
C1079 C1078 1.287 . S
C1079 C1080 1.524 . S
C1079 H1082 0.999 . S
C1080 H1050 0.950 . S
C1080 C1079 1.524 . S
C1080 C1081 1.415 . S
C1081 H1051 0.950 . S
C1081 C1076 1.363 . S
C1081 C1080 1.415 . S
H1082 C1079 0.999 . S
H1083 C1064 0.913 . S
H1084 C1102 0.951 . S
H1085 C1104 0.951 . S
H1086 C1106 0.950 . S
H1087 C1107 0.950 . S
H1088 C1109 0.950 . S
H1089 C1112 0.950 . S
H1090 C1113 0.950 . S
H1091 C1115 0.950 . S
H1092 C1116 0.950 . S
H1093 C1117 0.951 . S
H1094 C1119 0.951 . S
H1095 C1121 0.950 . S
H1096 C1122 0.950 . S
H1097 C1124 0.950 . S
H1098 C1127 0.950 . S
H1099 C1128 0.950 . S
H1100 C1130 0.950 . S
H1101 C1131 0.950 . S
C1102 H1084 0.951 . S
C1102 C1103 1.366 . S
C1102 C1104 1.388 . S
C1103 C1102 1.366 . S
C1103 C1107 1.385 . S
C1104 H1085 0.951 . S
C1104 C1102 1.388 . S
C1104 C1105 1.366 . S
C1105 C1104 1.366 . S
C1105 C1106 1.414 . S
C1105 C1108 1.499 . S
C1106 H1086 0.950 . S
C1106 C1105 1.414 . S
C1106 C1107 1.374 . S
C1107 H1087 0.950 . S
C1107 C1103 1.385 . S
C1107 C1106 1.374 . S
C1108 C1105 1.499 . S
C1108 C1109 1.373 . S
C1108 C1110 1.389 1_545 S
C1109 H1088 0.950 . S
C1109 C1108 1.373 . S
C1109 C1125 1.377 . S
C1110 C1108 1.389 1_565 S
C1110 C1111 1.524 . S
C1110 C1124 1.377 . S
C1111 C1110 1.524 . S
C1111 C1112 1.397 . S
C1111 C1116 1.363 . S
C1112 H1089 0.950 . S
C1112 C1111 1.397 . S
C1112 C1113 1.334 . S
C1113 H1090 0.950 . S
C1113 C1112 1.334 . S
C1113 C1114 1.287 . S
C1114 C1113 1.287 . S
C1114 C1115 1.524 . S
C1114 H1133 0.913 . S
C1115 H1091 0.950 . S
C1115 C1114 1.524 . S
C1115 C1116 1.415 . S
C1116 H1092 0.950 . S
C1116 C1111 1.363 . S
C1116 C1115 1.415 . S
C1117 H1093 0.951 . S
C1117 C1118 1.366 . S
C1117 C1119 1.388 . S
C1118 C1117 1.366 . S
C1118 C1122 1.385 . S
C1119 H1094 0.951 . S
C1119 C1117 1.388 . S
C1119 C1120 1.366 . S
C1120 C1119 1.366 . S
C1120 C1121 1.414 . S
C1120 C1123 1.499 . S
C1121 H1095 0.950 . S
C1121 C1120 1.414 . S
C1121 C1122 1.374 . S
C1122 H1096 0.950 . S
C1122 C1118 1.385 . S
C1122 C1121 1.374 . S
C1123 C1120 1.499 . S
C1123 C1124 1.373 . S
C1123 C1125 1.389 1_565 S
C1124 H1097 0.950 . S
C1124 C1110 1.377 . S
C1124 C1123 1.373 . S
C1125 C1109 1.377 . S
C1125 C1123 1.389 1_545 S
C1125 C1126 1.524 . S
C1126 C1125 1.524 . S
C1126 C1127 1.397 . S
C1126 C1131 1.363 . S
C1127 H1098 0.950 . S
C1127 C1126 1.397 . S
C1127 C1128 1.334 . S
C1128 H1099 0.950 . S
C1128 C1127 1.334 . S
C1128 C1129 1.287 . S
C1129 C1128 1.287 . S
C1129 C1130 1.524 . S
C1129 H1132 0.999 . S
C1130 H1100 0.950 . S
C1130 C1129 1.524 . S
C1130 C1131 1.415 . S
C1131 H1101 0.950 . S
C1131 C1126 1.363 . S
C1131 C1130 1.415 . S
H1132 C1129 0.999 . S
H1133 C1114 0.913 . S
H1134 C1152 0.951 1_545 S
H1135 C1154 0.951 . S
H1136 C1156 0.950 . S
H1137 C1157 0.950 . S
H1138 C1159 0.950 . S
H1139 C1162 0.950 . S
H1140 C1163 0.950 . S
H1141 C1165 0.950 . S
H1142 C1166 0.950 . S
H1143 C1167 0.951 . S
H1144 C1169 0.951 . S
H1145 C1171 0.950 . S
H1146 C1172 0.950 . S
H1147 C1174 0.950 . S
H1148 C1177 0.950 . S
H1149 C1178 0.950 . S
H1150 C1180 0.950 . S
H1151 C1181 0.950 . S
C1152 H1134 0.951 1_565 S
C1152 C1153 1.366 1_565 S
C1152 C1154 1.388 . S
C1153 C1152 1.366 1_545 S
C1153 C1157 1.385 1_545 S
C1154 H1135 0.951 . S
C1154 C1152 1.388 . S
C1154 C1155 1.366 . S
C1155 C1154 1.366 . S
C1155 C1156 1.414 . S
C1155 C1158 1.499 . S
C1156 H1136 0.950 . S
C1156 C1155 1.414 . S
C1156 C1157 1.374 . S
C1157 H1137 0.950 . S
C1157 C1153 1.385 1_565 S
C1157 C1156 1.374 . S
C1158 C1155 1.499 . S
C1158 C1159 1.373 1_554 S
C1158 C1160 1.389 . S
C1159 H1138 0.950 . S
C1159 C1158 1.373 1_556 S
C1159 C1175 1.377 . S
C1160 C1158 1.389 . S
C1160 C1161 1.524 . S
C1160 C1174 1.377 . S
C1161 C1160 1.524 . S
C1161 C1162 1.397 . S
C1161 C1166 1.363 . S
C1162 H1139 0.950 . S
C1162 C1161 1.397 . S
C1162 C1163 1.334 . S
C1163 H1140 0.950 . S
C1163 C1162 1.334 . S
C1163 C1164 1.287 . S
C1164 C1163 1.287 . S
C1164 C1165 1.524 . S
C1164 H1183 0.913 . S
C1165 H1141 0.950 . S
C1165 C1164 1.524 . S
C1165 C1166 1.415 . S
C1166 H1142 0.950 . S
C1166 C1161 1.363 . S
C1166 C1165 1.415 . S
C1167 H1143 0.951 . S
C1167 C1168 1.366 . S
C1167 C1169 1.388 . S
C1168 C1167 1.366 . S
C1168 C1172 1.385 . S
C1169 H1144 0.951 . S
C1169 C1167 1.388 . S
C1169 C1170 1.366 . S
C1170 C1169 1.366 . S
C1170 C1171 1.414 . S
C1170 C1173 1.499 . S
C1171 H1145 0.950 . S
C1171 C1170 1.414 . S
C1171 C1172 1.374 . S
C1172 H1146 0.950 . S
C1172 C1168 1.385 . S
C1172 C1171 1.374 . S
C1173 C1170 1.499 . S
C1173 C1174 1.373 1_556 S
C1173 C1175 1.389 . S
C1174 H1147 0.950 . S
C1174 C1160 1.377 . S
C1174 C1173 1.373 1_554 S
C1175 C1159 1.377 . S
C1175 C1173 1.389 . S
C1175 C1176 1.524 . S
C1176 C1175 1.524 . S
C1176 C1177 1.397 . S
C1176 C1181 1.363 . S
C1177 H1148 0.950 . S
C1177 C1176 1.397 . S
C1177 C1178 1.334 . S
C1178 H1149 0.950 . S
C1178 C1177 1.334 . S
C1178 C1179 1.287 . S
C1179 C1178 1.287 . S
C1179 C1180 1.524 . S
C1179 H1182 0.999 . S
C1180 H1150 0.950 . S
C1180 C1179 1.524 . S
C1180 C1181 1.415 . S
C1181 H1151 0.950 . S
C1181 C1176 1.363 . S
C1181 C1180 1.415 . S
H1182 C1179 0.999 . S
H1183 C1164 0.913 . S
H1184 C1202 0.951 . S
H1185 C1204 0.951 1_556 S
H1186 C1206 0.950 . S
H1187 C1207 0.951 . S
H1188 C1209 0.950 . S
H1189 C1212 0.950 . S
H1190 C1213 0.950 1_655 S
H1191 C1215 0.950 . S
H1192 C1216 0.950 . S
H1193 C1217 0.951 . S
H1194 C1219 0.951 1_554 S
H1195 C1221 0.950 . S
H1196 C1222 0.950 . S
H1197 C1224 0.950 . S
H1198 C1227 0.950 . S
H1199 C1228 0.950 . S
H1200 C1230 0.950 . S
H1201 C1231 0.950 . S
C1202 H1184 0.951 . S
C1202 C1203 1.366 1_455 S
C1202 C1204 1.388 . S
C1203 C1202 1.366 1_655 S
C1203 C1207 1.385 1_655 S
C1204 H1185 0.951 1_554 S
C1204 C1202 1.388 . S
C1204 C1205 1.366 . S
C1205 C1204 1.366 . S
C1205 C1206 1.414 . S
C1205 C1208 1.499 . S
C1206 H1186 0.950 . S
C1206 C1205 1.414 . S
C1206 C1207 1.374 . S
C1207 H1187 0.951 . S
C1207 C1203 1.385 1_455 S
C1207 C1206 1.374 . S
C1208 C1205 1.499 . S
C1208 C1209 1.373 . S
C1208 C1210 1.389 1_554 S
C1209 H1188 0.950 . S
C1209 C1208 1.373 . S
C1209 C1225 1.377 . S
C1210 C1208 1.389 1_556 S
C1210 C1211 1.524 . S
C1210 C1224 1.377 . S
C1211 C1210 1.524 . S
C1211 C1212 1.397 . S
C1211 C1216 1.363 . S
C1212 H1189 0.950 . S
C1212 C1211 1.397 . S
C1212 C1213 1.334 . S
C1213 H1190 0.950 1_455 S
C1213 C1212 1.334 . S
C1213 C1214 1.287 . S
C1214 C1213 1.287 . S
C1214 C1215 1.524 . S
C1214 H1233 0.913 . S
C1215 H1191 0.950 . S
C1215 C1214 1.524 . S
C1215 C1216 1.415 . S
C1216 H1192 0.950 . S
C1216 C1211 1.363 . S
C1216 C1215 1.415 . S
C1217 H1193 0.951 . S
C1217 C1218 1.366 . S
C1217 C1219 1.388 . S
C1218 C1217 1.366 . S
C1218 C1222 1.385 . S
C1219 H1194 0.951 1_556 S
C1219 C1217 1.388 . S
C1219 C1220 1.366 . S
C1220 C1219 1.366 . S
C1220 C1221 1.414 . S
C1220 C1223 1.499 . S
C1221 H1195 0.950 . S
C1221 C1220 1.414 . S
C1221 C1222 1.374 . S
C1222 H1196 0.950 . S
C1222 C1218 1.385 . S
C1222 C1221 1.374 . S
C1223 C1220 1.499 . S
C1223 C1224 1.373 . S
C1223 C1225 1.389 1_556 S
C1224 H1197 0.950 . S
C1224 C1210 1.377 . S
C1224 C1223 1.373 . S
C1225 C1209 1.377 . S
C1225 C1223 1.389 1_554 S
C1225 C1226 1.524 . S
C1226 C1225 1.524 . S
C1226 C1227 1.397 . S
C1226 C1231 1.363 . S
C1227 H1198 0.950 . S
C1227 C1226 1.397 . S
C1227 C1228 1.334 . S
C1228 H1199 0.950 . S
C1228 C1227 1.334 . S
C1228 C1229 1.287 . S
C1229 C1228 1.287 . S
C1229 C1230 1.524 . S
C1229 H1232 0.999 . S
C1230 H1200 0.950 . S
C1230 C1229 1.524 . S
C1230 C1231 1.415 . S
C1231 H1201 0.950 . S
C1231 C1226 1.363 . S
C1231 C1230 1.415 . S
H1232 C1229 0.999 . S
H1233 C1214 0.913 . S
H1234 C1252 0.951 . S
H1235 C1254 0.951 . S
H1236 C1256 0.950 . S
H1237 C1257 0.950 . S
H1238 C1259 0.950 . S
H1239 C1262 0.950 . S
H1240 C1263 0.950 . S
H1241 C1265 0.950 . S
H1242 C1266 0.950 . S
H1243 C1267 0.951 . S
H1244 C1269 0.951 . S
H1245 C1271 0.950 . S
H1246 C1272 0.950 . S
H1247 C1274 0.950 . S
H1248 C1277 0.950 . S
H1249 C1278 0.950 . S
H1250 C1280 0.950 . S
H1251 C1281 0.950 . S
C1252 H1234 0.951 . S
C1252 C1253 1.366 . S
C1252 C1254 1.388 . S
C1253 C1252 1.366 . S
C1253 C1257 1.385 . S
C1254 H1235 0.951 . S
C1254 C1252 1.388 . S
C1254 C1255 1.366 . S
C1255 C1254 1.366 . S
C1255 C1256 1.414 . S
C1255 C1258 1.499 . S
C1256 H1236 0.950 . S
C1256 C1255 1.414 . S
C1256 C1257 1.374 . S
C1257 H1237 0.950 . S
C1257 C1253 1.385 . S
C1257 C1256 1.374 . S
C1258 C1255 1.499 . S
C1258 C1259 1.373 1_554 S
C1258 C1260 1.389 . S
C1259 H1238 0.950 . S
C1259 C1258 1.373 1_556 S
C1259 C1275 1.377 . S
C1260 C1258 1.389 . S
C1260 C1261 1.524 . S
C1260 C1274 1.377 . S
C1261 C1260 1.524 . S
C1261 C1262 1.397 . S
C1261 C1266 1.363 . S
C1262 H1239 0.950 . S
C1262 C1261 1.397 . S
C1262 C1263 1.334 . S
C1263 H1240 0.950 . S
C1263 C1262 1.334 . S
C1263 C1264 1.287 . S
C1264 C1263 1.287 . S
C1264 C1265 1.524 . S
C1264 H1283 0.913 . S
C1265 H1241 0.950 . S
C1265 C1264 1.524 . S
C1265 C1266 1.415 . S
C1266 H1242 0.950 . S
C1266 C1261 1.363 . S
C1266 C1265 1.415 . S
C1267 H1243 0.951 . S
C1267 C1268 1.366 . S
C1267 C1269 1.388 . S
C1268 C1267 1.366 . S
C1268 C1272 1.385 . S
C1269 H1244 0.951 . S
C1269 C1267 1.388 . S
C1269 C1270 1.366 . S
C1270 C1269 1.366 . S
C1270 C1271 1.414 . S
C1270 C1273 1.499 . S
C1271 H1245 0.950 . S
C1271 C1270 1.414 . S
C1271 C1272 1.374 . S
C1272 H1246 0.950 . S
C1272 C1268 1.385 . S
C1272 C1271 1.374 . S
C1273 C1270 1.499 . S
C1273 C1274 1.373 1_556 S
C1273 C1275 1.389 . S
C1274 H1247 0.950 . S
C1274 C1260 1.377 . S
C1274 C1273 1.373 1_554 S
C1275 C1259 1.377 . S
C1275 C1273 1.389 . S
C1275 C1276 1.524 . S
C1276 C1275 1.524 . S
C1276 C1277 1.397 . S
C1276 C1281 1.363 . S
C1277 H1248 0.950 . S
C1277 C1276 1.397 . S
C1277 C1278 1.334 . S
C1278 H1249 0.950 . S
C1278 C1277 1.334 . S
C1278 C1279 1.287 . S
C1279 C1278 1.287 . S
C1279 C1280 1.524 . S
C1279 H1282 0.999 . S
C1280 H1250 0.950 . S
C1280 C1279 1.524 . S
C1280 C1281 1.415 . S
C1281 H1251 0.950 . S
C1281 C1276 1.363 . S
C1281 C1280 1.415 . S
H1282 C1279 0.999 . S
H1283 C1264 0.913 . S
H1284 C1302 0.951 . S
H1285 C1304 0.977 . S
H1286 C1306 0.950 . S
H1287 C1307 0.950 1_565 S
H1288 C1309 0.950 . S
H1289 C1312 0.950 . S
H1290 C1313 0.950 . S
H1291 C1315 0.950 . S
H1292 C1316 0.950 1_554 S
H1293 C1317 0.951 . S
H1294 C1319 0.951 . S
H1295 C1321 0.950 . S
H1296 C1322 0.950 . S
H1297 C1324 0.950 . S
H1298 C1327 0.950 . S
H1299 C1328 0.950 . S
H1300 C1330 0.950 . S
H1301 C1331 0.950 1_556 S
C1302 H1284 0.951 . S
C1302 C1303 1.366 1_545 S
C1302 C1304 1.388 . S
C1303 C1302 1.366 1_565 S
C1303 C1307 1.385 1_565 S
C1304 H1285 0.977 . S
C1304 C1302 1.388 . S
C1304 C1305 1.366 . S
C1305 C1304 1.366 . S
C1305 C1306 1.414 . S
C1305 C1308 1.499 . S
C1306 H1286 0.950 . S
C1306 C1305 1.414 . S
C1306 C1307 1.374 . S
C1307 H1287 0.950 1_545 S
C1307 C1303 1.385 1_545 S
C1307 C1306 1.374 . S
C1308 C1305 1.499 . S
C1308 C1309 1.360 1_556 S
C1308 C1310 1.389 . S
C1309 H1288 0.950 . S
C1309 C1308 1.360 1_554 S
C1309 C1325 1.390 . S
C1310 C1308 1.389 . S
C1310 C1311 1.524 . S
C1310 C1324 1.375 . S
C1311 C1310 1.524 . S
C1311 C1312 1.397 . S
C1311 C1316 1.363 . S
C1312 H1289 0.950 . S
C1312 C1311 1.397 . S
C1312 C1313 1.334 . S
C1313 H1290 0.950 . S
C1313 C1312 1.334 . S
C1313 C1314 1.287 . S
C1314 C1313 1.287 . S
C1314 C1315 1.524 . S
C1314 H1333 0.913 . S
C1315 H1291 0.950 . S
C1315 C1314 1.524 . S
C1315 C1316 1.415 . S
C1316 H1292 0.950 1_556 S
C1316 C1311 1.363 . S
C1316 C1315 1.415 . S
C1317 H1293 0.951 . S
C1317 C1318 1.366 . S
C1317 C1319 1.388 . S
C1318 C1317 1.366 . S
C1318 C1322 1.385 . S
C1319 H1294 0.951 . S
C1319 C1317 1.388 . S
C1319 C1320 1.366 . S
C1320 C1319 1.366 . S
C1320 C1321 1.414 . S
C1320 C1323 1.499 . S
C1321 H1295 0.950 . S
C1321 C1320 1.414 . S
C1321 C1322 1.374 . S
C1322 H1296 0.950 . S
C1322 C1318 1.385 . S
C1322 C1321 1.374 . S
C1323 C1320 1.499 . S
C1323 C1324 1.375 1_554 S
C1323 C1325 1.389 . S
C1324 H1297 0.950 . S
C1324 C1310 1.375 . S
C1324 C1323 1.375 1_556 S
C1325 C1309 1.390 . S
C1325 C1323 1.389 . S
C1325 C1326 1.524 . S
C1326 C1325 1.524 . S
C1326 C1327 1.397 . S
C1326 C1331 1.363 . S
C1327 H1298 0.950 . S
C1327 C1326 1.397 . S
C1327 C1328 1.334 . S
C1328 H1299 0.950 . S
C1328 C1327 1.334 . S
C1328 C1329 1.287 . S
C1329 C1328 1.287 . S
C1329 C1330 1.524 . S
C1329 H1332 0.999 . S
C1330 H1300 0.950 . S
C1330 C1329 1.524 . S
C1330 C1331 1.415 . S
C1331 H1301 0.950 1_554 S
C1331 C1326 1.363 . S
C1331 C1330 1.415 . S
H1332 C1329 0.999 . S
H1333 C1314 0.913 . S
H1334 C1352 0.951 . S
H1335 C1354 0.951 . S
H1336 C1356 0.950 1_556 S
H1337 C1357 0.950 . S
H1338 C1359 0.950 . S
H1339 C1362 0.950 . S
H1340 C1363 0.950 . S
H1341 C1365 0.950 . S
H1342 C1366 0.950 . S
H1343 C1367 0.951 . S
H1344 C1369 0.951 . S
H1345 C1371 0.950 1_554 S
H1346 C1372 0.950 1_455 S
H1347 C1374 0.950 . S
H1348 C1377 0.950 . S
H1349 C1378 0.950 . S
H1350 C1380 0.950 . S
H1351 C1381 0.950 . S
C1352 H1334 0.951 . S
C1352 C1353 1.366 . S
C1352 C1354 1.388 . S
C1353 C1352 1.366 . S
C1353 C1357 1.385 . S
C1354 H1335 0.951 . S
C1354 C1352 1.388 . S
C1354 C1355 1.366 . S
C1355 C1354 1.366 . S
C1355 C1356 1.414 . S
C1355 C1358 1.499 . S
C1356 H1336 0.950 1_554 S
C1356 C1355 1.414 . S
C1356 C1357 1.374 . S
C1357 H1337 0.950 . S
C1357 C1353 1.385 . S
C1357 C1356 1.374 . S
C1358 C1355 1.499 . S
C1358 C1359 1.373 1_554 S
C1358 C1360 1.389 . S
C1359 H1338 0.950 . S
C1359 C1358 1.373 1_556 S
C1359 C1375 1.377 . S
C1360 C1358 1.389 . S
C1360 C1361 1.524 . S
C1360 C1374 1.377 . S
C1361 C1360 1.524 . S
C1361 C1362 1.397 . S
C1361 C1366 1.363 . S
C1362 H1339 0.950 . S
C1362 C1361 1.397 . S
C1362 C1363 1.334 . S
C1363 H1340 0.950 . S
C1363 C1362 1.334 . S
C1363 C1364 1.287 . S
C1364 C1363 1.287 . S
C1364 C1365 1.524 . S
C1364 H1383 0.913 . S
C1365 H1341 0.950 . S
C1365 C1364 1.524 . S
C1365 C1366 1.415 . S
C1366 H1342 0.950 . S
C1366 C1361 1.363 . S
C1366 C1365 1.415 . S
C1367 H1343 0.951 . S
C1367 C1368 1.366 1_655 S
C1367 C1369 1.388 . S
C1368 C1367 1.366 1_455 S
C1368 C1372 1.385 1_455 S
C1369 H1344 0.951 . S
C1369 C1367 1.388 . S
C1369 C1370 1.366 . S
C1370 C1369 1.366 . S
C1370 C1371 1.414 . S
C1370 C1373 1.499 . S
C1371 H1345 0.950 1_556 S
C1371 C1370 1.414 . S
C1371 C1372 1.374 . S
C1372 H1346 0.950 1_655 S
C1372 C1368 1.385 1_655 S
C1372 C1371 1.374 . S
C1373 C1370 1.499 . S
C1373 C1374 1.373 1_556 S
C1373 C1375 1.389 . S
C1374 H1347 0.950 . S
C1374 C1360 1.377 . S
C1374 C1373 1.373 1_554 S
C1375 C1359 1.377 . S
C1375 C1373 1.389 . S
C1375 C1376 1.524 . S
C1376 C1375 1.524 . S
C1376 C1377 1.397 . S
C1376 C1381 1.363 . S
C1377 H1348 0.950 . S
C1377 C1376 1.397 . S
C1377 C1378 1.334 . S
C1378 H1349 0.950 . S
C1378 C1377 1.334 . S
C1378 C1379 1.287 . S
C1379 C1378 1.287 . S
C1379 C1380 1.524 . S
C1379 H1382 0.999 . S
C1380 H1350 0.950 . S
C1380 C1379 1.524 . S
C1380 C1381 1.415 . S
C1381 H1351 0.950 . S
C1381 C1376 1.363 . S
C1381 C1380 1.415 . S
H1382 C1379 0.999 . S
H1383 C1364 0.913 . S
H1384 C1402 0.951 . S
H1385 C1404 0.951 . S
H1386 C1406 0.950 . S
H1387 C1407 0.950 . S
H1388 C1409 0.950 . S
H1389 C1412 0.950 . S
H1390 C1413 0.950 . S
H1391 C1415 0.950 . S
H1392 C1416 0.937 1_556 S
H1393 C1417 0.951 . S
H1394 C1419 0.951 . S
H1395 C1421 0.950 . S
H1396 C1422 0.950 . S
H1397 C1424 0.950 . S
H1398 C1427 0.950 . S
H1399 C1428 0.950 . S
H1400 C1430 0.950 . S
H1401 C1431 0.950 1_554 S
C1402 H1384 0.951 . S
C1402 C1403 1.366 . S
C1402 C1404 1.388 . S
C1403 C1402 1.366 . S
C1403 C1407 1.385 . S
C1404 H1385 0.951 . S
C1404 C1402 1.388 . S
C1404 C1405 1.366 . S
C1405 C1404 1.366 . S
C1405 C1406 1.414 . S
C1405 C1408 1.499 . S
C1406 H1386 0.950 . S
C1406 C1405 1.414 . S
C1406 C1407 1.374 . S
C1407 H1387 0.950 . S
C1407 C1403 1.385 . S
C1407 C1406 1.374 . S
C1408 C1405 1.499 . S
C1408 C1409 1.373 . S
C1408 C1410 1.389 1_556 S
C1409 H1388 0.950 . S
C1409 C1408 1.373 . S
C1409 C1425 1.377 . S
C1410 C1408 1.389 1_554 S
C1410 C1411 1.524 . S
C1410 C1424 1.377 . S
C1411 C1410 1.524 . S
C1411 C1412 1.397 . S
C1411 C1416 1.363 . S
C1412 H1389 0.950 . S
C1412 C1411 1.397 . S
C1412 C1413 1.334 . S
C1413 H1390 0.950 . S
C1413 C1412 1.334 . S
C1413 C1414 1.287 . S
C1414 C1413 1.287 . S
C1414 C1415 1.524 . S
C1414 H1433 0.913 . S
C1415 H1391 0.950 . S
C1415 C1414 1.524 . S
C1415 C1416 1.415 . S
C1416 H1392 0.937 1_554 S
C1416 C1411 1.363 . S
C1416 C1415 1.415 . S
C1417 H1393 0.951 . S
C1417 C1418 1.366 . S
C1417 C1419 1.388 . S
C1418 C1417 1.366 . S
C1418 C1422 1.385 . S
C1419 H1394 0.951 . S
C1419 C1417 1.388 . S
C1419 C1420 1.366 . S
C1420 C1419 1.366 . S
C1420 C1421 1.414 . S
C1420 C1423 1.499 . S
C1421 H1395 0.950 . S
C1421 C1420 1.414 . S
C1421 C1422 1.374 . S
C1422 H1396 0.950 . S
C1422 C1418 1.385 . S
C1422 C1421 1.374 . S
C1423 C1420 1.499 . S
C1423 C1424 1.373 . S
C1423 C1425 1.389 1_554 S
C1424 H1397 0.950 . S
C1424 C1410 1.377 . S
C1424 C1423 1.373 . S
C1425 C1409 1.377 . S
C1425 C1423 1.389 1_556 S
C1425 C1426 1.524 . S
C1426 C1425 1.524 . S
C1426 C1427 1.397 . S
C1426 C1431 1.363 . S
C1427 H1398 0.950 . S
C1427 C1426 1.397 . S
C1427 C1428 1.334 . S
C1428 H1399 0.950 . S
C1428 C1427 1.334 . S
C1428 C1429 1.287 . S
C1429 C1428 1.287 . S
C1429 C1430 1.524 . S
C1429 H1432 0.999 . S
C1430 H1400 0.950 . S
C1430 C1429 1.524 . S
C1430 C1431 1.415 . S
C1431 H1401 0.950 1_556 S
C1431 C1426 1.363 . S
C1431 C1430 1.415 . S
H1432 C1429 0.999 . S
H1433 C1414 0.913 . S
H1434 C1452 0.951 . S
H1435 C1454 0.951 . S
H1436 C1456 0.950 . S
H1437 C1457 0.950 . S
H1438 C1459 0.950 . S
H1439 C1462 0.950 . S
H1440 C1463 0.950 . S
H1441 C1465 0.950 . S
H1442 C1466 0.950 . S
H1443 C1467 0.951 . S
H1444 C1469 0.951 . S
H1445 C1471 0.950 . S
H1446 C1472 0.950 . S
H1447 C1474 0.950 . S
H1448 C1477 0.950 . S
H1449 C1478 0.950 . S
H1450 C1480 0.950 . S
H1451 C1481 0.950 . S
C1452 H1434 0.951 . S
C1452 C1453 1.366 . S
C1452 C1454 1.388 . S
C1453 C1452 1.366 . S
C1453 C1457 1.385 . S
C1454 H1435 0.951 . S
C1454 C1452 1.388 . S
C1454 C1455 1.366 . S
C1455 C1454 1.366 . S
C1455 C1456 1.414 . S
C1455 C1458 1.499 . S
C1456 H1436 0.950 . S
C1456 C1455 1.414 . S
C1456 C1457 1.374 . S
C1457 H1437 0.950 . S
C1457 C1453 1.385 . S
C1457 C1456 1.374 . S
C1458 C1455 1.499 . S
C1458 C1459 1.373 . S
C1458 C1460 1.389 . S
C1459 H1438 0.950 . S
C1459 C1458 1.373 . S
C1459 C1475 1.377 . S
C1460 C1458 1.389 . S
C1460 C1461 1.524 . S
C1460 C1474 1.377 . S
C1461 C1460 1.524 . S
C1461 C1462 1.397 . S
C1461 C1466 1.363 . S
C1462 H1439 0.950 . S
C1462 C1461 1.397 . S
C1462 C1463 1.334 . S
C1463 H1440 0.950 . S
C1463 C1462 1.334 . S
C1463 C1464 1.287 . S
C1464 C1463 1.287 . S
C1464 C1465 1.524 . S
C1464 H1483 0.913 . S
C1465 H1441 0.950 . S
C1465 C1464 1.524 . S
C1465 C1466 1.415 . S
C1466 H1442 0.950 . S
C1466 C1461 1.363 . S
C1466 C1465 1.415 . S
C1467 H1443 0.951 . S
C1467 C1468 1.366 . S
C1467 C1469 1.388 . S
C1468 C1467 1.366 . S
C1468 C1472 1.385 . S
C1469 H1444 0.951 . S
C1469 C1467 1.388 . S
C1469 C1470 1.366 . S
C1470 C1469 1.366 . S
C1470 C1471 1.414 . S
C1470 C1473 1.499 . S
C1471 H1445 0.950 . S
C1471 C1470 1.414 . S
C1471 C1472 1.374 . S
C1472 H1446 0.950 . S
C1472 C1468 1.385 . S
C1472 C1471 1.374 . S
C1473 C1470 1.499 . S
C1473 C1474 1.373 . S
C1473 C1475 1.389 . S
C1474 H1447 0.950 . S
C1474 C1460 1.377 . S
C1474 C1473 1.373 . S
C1475 C1459 1.377 . S
C1475 C1473 1.389 . S
C1475 C1476 1.524 . S
C1476 C1475 1.524 . S
C1476 C1477 1.397 . S
C1476 C1481 1.363 . S
C1477 H1448 0.950 . S
C1477 C1476 1.397 . S
C1477 C1478 1.334 . S
C1478 H1449 0.950 . S
C1478 C1477 1.334 . S
C1478 C1479 1.287 . S
C1479 C1478 1.287 . S
C1479 C1480 1.524 . S
C1479 H1482 0.999 . S
C1480 H1450 0.950 . S
C1480 C1479 1.524 . S
C1480 C1481 1.415 . S
C1481 H1451 0.950 . S
C1481 C1476 1.363 . S
C1481 C1480 1.415 . S
H1482 C1479 0.999 . S
H1483 C1464 0.913 . S
H1484 C1502 0.951 . S
H1485 C1504 0.951 . S
H1486 C1506 0.950 . S
H1487 C1507 0.950 . S
H1488 C1509 0.950 . S
H1489 C1512 0.950 . S
H1490 C1513 0.950 . S
H1491 C1515 0.950 . S
H1492 C1516 0.950 . S
H1493 C1517 0.951 . S
H1494 C1519 0.951 . S
H1495 C1521 0.950 . S
H1496 C1522 0.950 . S
H1497 C1524 0.950 . S
H1498 C1527 0.950 . S
H1499 C1528 0.950 . S
H1500 C1530 0.950 . S
H1501 C1531 0.950 . S
C1502 H1484 0.951 . S
C1502 C1503 1.366 . S
C1502 C1504 1.388 . S
C1503 C1502 1.366 . S
C1503 C1507 1.385 . S
C1504 H1485 0.951 . S
C1504 C1502 1.388 . S
C1504 C1505 1.366 . S
C1505 C1504 1.366 . S
C1505 C1506 1.414 . S
C1505 C1508 1.499 . S
C1506 H1486 0.950 . S
C1506 C1505 1.414 . S
C1506 C1507 1.374 . S
C1507 H1487 0.950 . S
C1507 C1503 1.385 . S
C1507 C1506 1.374 . S
C1508 C1505 1.499 . S
C1508 C1509 1.373 . S
C1508 C1510 1.389 . S
C1509 H1488 0.950 . S
C1509 C1508 1.373 . S
C1509 C1525 1.377 . S
C1510 C1508 1.389 . S
C1510 C1511 1.524 . S
C1510 C1524 1.377 . S
C1511 C1510 1.524 . S
C1511 C1512 1.397 . S
C1511 C1516 1.363 . S
C1512 H1489 0.950 . S
C1512 C1511 1.397 . S
C1512 C1513 1.334 . S
C1513 H1490 0.950 . S
C1513 C1512 1.334 . S
C1513 C1514 1.287 . S
C1514 C1513 1.287 . S
C1514 C1515 1.524 . S
C1514 H1533 0.913 . S
C1515 H1491 0.950 . S
C1515 C1514 1.524 . S
C1515 C1516 1.415 . S
C1516 H1492 0.950 . S
C1516 C1511 1.363 . S
C1516 C1515 1.415 . S
C1517 H1493 0.951 . S
C1517 C1518 1.366 . S
C1517 C1519 1.388 . S
C1518 C1517 1.366 . S
C1518 C1522 1.385 . S
C1519 H1494 0.951 . S
C1519 C1517 1.388 . S
C1519 C1520 1.366 . S
C1520 C1519 1.366 . S
C1520 C1521 1.414 . S
C1520 C1523 1.499 . S
C1521 H1495 0.950 . S
C1521 C1520 1.414 . S
C1521 C1522 1.374 . S
C1522 H1496 0.950 . S
C1522 C1518 1.385 . S
C1522 C1521 1.374 . S
C1523 C1520 1.499 . S
C1523 C1524 1.373 . S
C1523 C1525 1.389 . S
C1524 H1497 0.950 . S
C1524 C1510 1.377 . S
C1524 C1523 1.373 . S
C1525 C1509 1.377 . S
C1525 C1523 1.389 . S
C1525 C1526 1.524 . S
C1526 C1525 1.524 . S
C1526 C1527 1.397 . S
C1526 C1531 1.363 . S
C1527 H1498 0.950 . S
C1527 C1526 1.397 . S
C1527 C1528 1.334 . S
C1528 H1499 0.950 . S
C1528 C1527 1.334 . S
C1528 C1529 1.287 . S
C1529 C1528 1.287 . S
C1529 C1530 1.524 . S
C1529 H1532 0.999 . S
C1530 H1500 0.950 . S
C1530 C1529 1.524 . S
C1530 C1531 1.415 . S
C1531 H1501 0.950 . S
C1531 C1526 1.363 . S
C1531 C1530 1.415 . S
H1532 C1529 0.999 . S
H1533 C1514 0.913 . S
H1534 C1552 0.951 . S
H1535 C1554 0.951 . S
H1536 C1556 0.950 . S
H1537 C1557 0.950 . S
H1538 C1559 0.950 . S
H1539 C1562 0.950 . S
H1540 C1563 0.950 . S
H1541 C1565 0.950 . S
H1542 C1566 0.950 . S
H1543 C1567 0.951 . S
H1544 C1569 0.951 . S
H1545 C1571 0.950 . S
H1546 C1572 0.950 . S
H1547 C1574 0.950 . S
H1548 C1577 0.950 . S
H1549 C1578 0.950 . S
H1550 C1580 0.950 . S
H1551 C1581 0.950 . S
C1552 H1534 0.951 . S
C1552 C1553 1.366 . S
C1552 C1554 1.388 . S
C1553 C1552 1.366 . S
C1553 C1557 1.385 . S
C1554 H1535 0.951 . S
C1554 C1552 1.388 . S
C1554 C1555 1.366 . S
C1555 C1554 1.366 . S
C1555 C1556 1.414 . S
C1555 C1558 1.499 . S
C1556 H1536 0.950 . S
C1556 C1555 1.414 . S
C1556 C1557 1.374 . S
C1557 H1537 0.950 . S
C1557 C1553 1.385 . S
C1557 C1556 1.374 . S
C1558 C1555 1.499 . S
C1558 C1559 1.373 . S
C1558 C1560 1.389 . S
C1559 H1538 0.950 . S
C1559 C1558 1.373 . S
C1559 C1575 1.377 . S
C1560 C1558 1.389 . S
C1560 C1561 1.524 . S
C1560 C1574 1.377 . S
C1561 C1560 1.524 . S
C1561 C1562 1.397 . S
C1561 C1566 1.363 . S
C1562 H1539 0.950 . S
C1562 C1561 1.397 . S
C1562 C1563 1.334 . S
C1563 H1540 0.950 . S
C1563 C1562 1.334 . S
C1563 C1564 1.287 . S
C1564 C1563 1.287 . S
C1564 C1565 1.524 . S
C1564 H1583 0.913 . S
C1565 H1541 0.950 . S
C1565 C1564 1.524 . S
C1565 C1566 1.415 . S
C1566 H1542 0.950 . S
C1566 C1561 1.363 . S
C1566 C1565 1.415 . S
C1567 H1543 0.951 . S
C1567 C1568 1.366 . S
C1567 C1569 1.388 . S
C1568 C1567 1.366 . S
C1568 C1572 1.385 . S
C1569 H1544 0.951 . S
C1569 C1567 1.388 . S
C1569 C1570 1.366 . S
C1570 C1569 1.366 . S
C1570 C1571 1.414 . S
C1570 C1573 1.499 . S
C1571 H1545 0.950 . S
C1571 C1570 1.414 . S
C1571 C1572 1.374 . S
C1572 H1546 0.950 . S
C1572 C1568 1.385 . S
C1572 C1571 1.374 . S
C1573 C1570 1.499 . S
C1573 C1574 1.373 . S
C1573 C1575 1.389 . S
C1574 H1547 0.950 . S
C1574 C1560 1.377 . S
C1574 C1573 1.373 . S
C1575 C1559 1.377 . S
C1575 C1573 1.389 . S
C1575 C1576 1.524 . S
C1576 C1575 1.524 . S
C1576 C1577 1.397 . S
C1576 C1581 1.363 . S
C1577 H1548 0.950 . S
C1577 C1576 1.397 . S
C1577 C1578 1.334 . S
C1578 H1549 0.950 . S
C1578 C1577 1.334 . S
C1578 C1579 1.287 . S
C1579 C1578 1.287 . S
C1579 C1580 1.524 . S
C1579 H1582 0.999 . S
C1580 H1550 0.950 . S
C1580 C1579 1.524 . S
C1580 C1581 1.415 . S
C1581 H1551 0.950 . S
C1581 C1576 1.363 . S
C1581 C1580 1.415 . S
H1582 C1579 0.999 . S
H1583 C1564 0.913 . S
H1584 C1602 0.951 . S
H1585 C1604 0.951 . S
H1586 C1606 0.950 . S
H1587 C1607 0.950 . S
H1588 C1609 0.950 . S
H1589 C1612 0.950 . S
H1590 C1613 0.950 . S
H1591 C1615 0.950 . S
H1592 C1616 0.950 . S
H1593 C1617 0.951 . S
H1594 C1619 0.951 . S
H1595 C1621 0.950 . S
H1596 C1622 0.950 . S
H1597 C1624 0.950 . S
H1598 C1627 0.950 . S
H1599 C1628 0.950 . S
H1600 C1630 0.950 . S
H1601 C1631 0.950 . S
C1602 H1584 0.951 . S
C1602 C1603 1.366 . S
C1602 C1604 1.388 . S
C1603 C1602 1.366 . S
C1603 C1607 1.385 . S
C1604 H1585 0.951 . S
C1604 C1602 1.388 . S
C1604 C1605 1.366 . S
C1605 C1604 1.366 . S
C1605 C1606 1.414 . S
C1605 C1608 1.499 . S
C1606 H1586 0.950 . S
C1606 C1605 1.414 . S
C1606 C1607 1.374 . S
C1607 H1587 0.950 . S
C1607 C1603 1.385 . S
C1607 C1606 1.374 . S
C1608 C1605 1.499 . S
C1608 C1609 1.373 . S
C1608 C1610 1.389 . S
C1609 H1588 0.950 . S
C1609 C1608 1.373 . S
C1609 C1625 1.377 . S
C1610 C1608 1.389 . S
C1610 C1611 1.524 . S
C1610 C1624 1.377 . S
C1611 C1610 1.524 . S
C1611 C1612 1.397 . S
C1611 C1616 1.363 . S
C1612 H1589 0.950 . S
C1612 C1611 1.397 . S
C1612 C1613 1.334 . S
C1613 H1590 0.950 . S
C1613 C1612 1.334 . S
C1613 C1614 1.287 . S
C1614 C1613 1.287 . S
C1614 C1615 1.524 . S
C1614 H1633 0.913 . S
C1615 H1591 0.950 . S
C1615 C1614 1.524 . S
C1615 C1616 1.415 . S
C1616 H1592 0.950 . S
C1616 C1611 1.363 . S
C1616 C1615 1.415 . S
C1617 H1593 0.951 . S
C1617 C1618 1.366 . S
C1617 C1619 1.388 . S
C1618 C1617 1.366 . S
C1618 C1622 1.385 . S
C1619 H1594 0.951 . S
C1619 C1617 1.388 . S
C1619 C1620 1.366 . S
C1620 C1619 1.366 . S
C1620 C1621 1.414 . S
C1620 C1623 1.499 . S
C1621 H1595 0.950 . S
C1621 C1620 1.414 . S
C1621 C1622 1.374 . S
C1622 H1596 0.950 . S
C1622 C1618 1.385 . S
C1622 C1621 1.374 . S
C1623 C1620 1.499 . S
C1623 C1624 1.373 . S
C1623 C1625 1.389 . S
C1624 H1597 0.950 . S
C1624 C1610 1.377 . S
C1624 C1623 1.373 . S
C1625 C1609 1.377 . S
C1625 C1623 1.389 . S
C1625 C1626 1.524 . S
C1626 C1625 1.524 . S
C1626 C1627 1.397 . S
C1626 C1631 1.363 . S
C1627 H1598 0.950 . S
C1627 C1626 1.397 . S
C1627 C1628 1.334 . S
C1628 H1599 0.950 . S
C1628 C1627 1.334 . S
C1628 C1629 1.287 . S
C1629 C1628 1.287 . S
C1629 C1630 1.524 . S
C1629 H1632 0.999 . S
C1630 H1600 0.950 . S
C1630 C1629 1.524 . S
C1630 C1631 1.415 . S
C1631 H1601 0.950 . S
C1631 C1626 1.363 . S
C1631 C1630 1.415 . S
H1632 C1629 0.999 . S
H1633 C1614 0.913 . S
H1634 C1652 0.951 . S
H1635 C1654 0.951 . S
H1636 C1656 0.950 . S
H1637 C1657 0.950 . S
H1638 C1659 0.950 . S
H1639 C1662 0.950 . S
H1640 C1663 0.950 . S
H1641 C1665 0.950 . S
H1642 C1666 0.950 . S
H1643 C1667 0.951 . S
H1644 C1669 0.951 . S
H1645 C1671 0.950 . S
H1646 C1672 0.950 . S
H1647 C1674 0.950 . S
H1648 C1677 0.950 . S
H1649 C1678 0.950 . S
H1650 C1680 0.950 . S
H1651 C1681 0.950 . S
C1652 H1634 0.951 . S
C1652 C1653 1.366 . S
C1652 C1654 1.388 . S
C1653 C1652 1.366 . S
C1653 C1657 1.385 . S
C1654 H1635 0.951 . S
C1654 C1652 1.388 . S
C1654 C1655 1.366 . S
C1655 C1654 1.366 . S
C1655 C1656 1.414 . S
C1655 C1658 1.499 . S
C1656 H1636 0.950 . S
C1656 C1655 1.414 . S
C1656 C1657 1.374 . S
C1657 H1637 0.950 . S
C1657 C1653 1.385 . S
C1657 C1656 1.374 . S
C1658 C1655 1.499 . S
C1658 C1659 1.373 1_545 S
C1658 C1660 1.389 . S
C1659 H1638 0.950 . S
C1659 C1658 1.373 1_565 S
C1659 C1675 1.377 . S
C1660 C1658 1.389 . S
C1660 C1661 1.524 . S
C1660 C1674 1.377 . S
C1661 C1660 1.524 . S
C1661 C1662 1.397 . S
C1661 C1666 1.363 . S
C1662 H1639 0.950 . S
C1662 C1661 1.397 . S
C1662 C1663 1.334 . S
C1663 H1640 0.950 . S
C1663 C1662 1.334 . S
C1663 C1664 1.287 . S
C1664 C1663 1.287 . S
C1664 C1665 1.524 . S
C1664 H1683 0.913 . S
C1665 H1641 0.950 . S
C1665 C1664 1.524 . S
C1665 C1666 1.415 . S
C1666 H1642 0.950 . S
C1666 C1661 1.363 . S
C1666 C1665 1.415 . S
C1667 H1643 0.951 . S
C1667 C1668 1.366 . S
C1667 C1669 1.388 . S
C1668 C1667 1.366 . S
C1668 C1672 1.385 1_565 S
C1669 H1644 0.951 . S
C1669 C1667 1.388 . S
C1669 C1670 1.363 1_565 S
C1670 C1669 1.363 1_545 S
C1670 C1671 1.422 . S
C1670 C1673 1.494 . S
C1671 H1645 0.950 . S
C1671 C1670 1.422 . S
C1671 C1672 1.374 . S
C1672 H1646 0.950 . S
C1672 C1668 1.385 1_545 S
C1672 C1671 1.374 . S
C1673 C1670 1.494 . S
C1673 C1674 1.373 . S
C1673 C1675 1.389 1_545 S
C1674 H1647 0.950 . S
C1674 C1660 1.377 . S
C1674 C1673 1.373 . S
C1675 C1659 1.377 . S
C1675 C1673 1.389 1_565 S
C1675 C1676 1.524 . S
C1676 C1675 1.524 . S
C1676 C1677 1.397 . S
C1676 C1681 1.363 . S
C1677 H1648 0.950 . S
C1677 C1676 1.397 . S
C1677 C1678 1.334 . S
C1678 H1649 0.950 . S
C1678 C1677 1.334 . S
C1678 C1679 1.287 . S
C1679 C1678 1.287 . S
C1679 C1680 1.524 . S
C1679 H1682 0.999 . S
C1680 H1650 0.950 . S
C1680 C1679 1.524 . S
C1680 C1681 1.415 . S
C1681 H1651 0.950 . S
C1681 C1676 1.363 . S
C1681 C1680 1.415 . S
H1682 C1679 0.999 . S
H1683 C1664 0.913 . S
H1684 C1702 0.951 . S
H1685 C1704 0.951 . S
H1686 C1706 0.950 . S
H1687 C1707 0.950 1_455 S
H1688 C1709 0.950 . S
H1689 C1712 0.950 . S
H1690 C1713 0.950 . S
H1691 C1715 0.950 . S
H1692 C1716 0.950 . S
H1693 C1717 0.951 . S
H1694 C1719 0.951 . S
H1695 C1721 0.950 . S
H1696 C1722 0.950 . S
H1697 C1724 0.950 . S
H1698 C1727 0.950 1_655 S
H1699 C1728 0.950 . S
H1700 C1730 0.950 . S
H1701 C1731 0.950 . S
C1702 H1684 0.951 . S
C1702 C1703 1.366 . S
C1702 C1704 1.388 . S
C1703 C1702 1.366 . S
C1703 C1707 1.385 . S
C1704 H1685 0.951 . S
C1704 C1702 1.388 . S
C1704 C1705 1.366 . S
C1705 C1704 1.366 . S
C1705 C1706 1.414 1_655 S
C1705 C1708 1.499 . S
C1706 H1686 0.950 . S
C1706 C1705 1.414 1_455 S
C1706 C1707 1.374 1_455 S
C1707 H1687 0.950 1_655 S
C1707 C1703 1.385 . S
C1707 C1706 1.374 1_655 S
C1708 C1705 1.499 . S
C1708 C1709 1.373 1_655 S
C1708 C1710 1.389 . S
C1709 H1688 0.950 . S
C1709 C1708 1.373 1_455 S
C1709 C1725 1.377 . S
C1710 C1708 1.389 . S
C1710 C1711 1.524 . S
C1710 C1724 1.377 . S
C1711 C1710 1.524 . S
C1711 C1712 1.397 . S
C1711 C1716 1.363 . S
C1712 H1689 0.950 . S
C1712 C1711 1.397 . S
C1712 C1713 1.334 . S
C1713 H1690 0.950 . S
C1713 C1712 1.334 . S
C1713 C1714 1.287 . S
C1714 C1713 1.287 . S
C1714 C1715 1.524 . S
C1714 H1733 0.913 . S
C1715 H1691 0.950 . S
C1715 C1714 1.524 . S
C1715 C1716 1.415 . S
C1716 H1692 0.950 . S
C1716 C1711 1.363 . S
C1716 C1715 1.415 . S
C1717 H1693 0.951 . S
C1717 C1718 1.366 . S
C1717 C1719 1.388 . S
C1718 C1717 1.366 . S
C1718 C1722 1.385 1_455 S
C1719 H1694 0.951 . S
C1719 C1717 1.388 . S
C1719 C1720 1.366 1_455 S
C1720 C1719 1.366 1_655 S
C1720 C1721 1.414 . S
C1720 C1723 1.499 . S
C1721 H1695 0.950 . S
C1721 C1720 1.414 . S
C1721 C1722 1.374 . S
C1722 H1696 0.950 . S
C1722 C1718 1.385 1_655 S
C1722 C1721 1.374 . S
C1723 C1720 1.499 . S
C1723 C1724 1.373 . S
C1723 C1725 1.389 1_655 S
C1724 H1697 0.950 . S
C1724 C1710 1.377 . S
C1724 C1723 1.373 . S
C1725 C1709 1.377 . S
C1725 C1723 1.389 1_455 S
C1725 C1726 1.524 . S
C1726 C1725 1.524 . S
C1726 C1727 1.397 . S
C1726 C1731 1.363 . S
C1727 H1698 0.950 1_455 S
C1727 C1726 1.397 . S
C1727 C1728 1.334 . S
C1728 H1699 0.950 . S
C1728 C1727 1.334 . S
C1728 C1729 1.287 . S
C1729 C1728 1.287 . S
C1729 C1730 1.524 . S
C1729 H1732 0.999 . S
C1730 H1700 0.950 . S
C1730 C1729 1.524 . S
C1730 C1731 1.415 . S
C1731 H1701 0.950 . S
C1731 C1726 1.363 . S
C1731 C1730 1.415 . S
H1732 C1729 0.999 . S
H1733 C1714 0.913 . S
H1734 C1752 0.951 . S
H1735 C1754 0.951 . S
H1736 C1756 0.950 . S
H1737 C1757 0.950 . S
H1738 C1759 0.950 . S
H1739 C1762 0.950 . S
H1740 C1763 0.950 . S
H1741 C1765 0.950 . S
H1742 C1766 0.950 . S
H1743 C1767 0.951 . S
H1744 C1769 0.951 . S
H1745 C1771 0.950 . S
H1746 C1772 0.950 . S
H1747 C1774 0.950 . S
H1748 C1777 0.950 . S
H1749 C1778 0.950 . S
H1750 C1780 0.950 . S
H1751 C1781 0.950 . S
C1752 H1734 0.951 . S
C1752 C1753 1.366 . S
C1752 C1754 1.388 . S
C1753 C1752 1.366 . S
C1753 C1757 1.385 . S
C1754 H1735 0.951 . S
C1754 C1752 1.388 . S
C1754 C1755 1.366 . S
C1755 C1754 1.366 . S
C1755 C1756 1.414 . S
C1755 C1758 1.499 . S
C1756 H1736 0.950 . S
C1756 C1755 1.414 . S
C1756 C1757 1.374 . S
C1757 H1737 0.950 . S
C1757 C1753 1.385 . S
C1757 C1756 1.374 . S
C1758 C1755 1.499 . S
C1758 C1759 1.373 . S
C1758 C1760 1.389 . S
C1759 H1738 0.950 . S
C1759 C1758 1.373 . S
C1759 C1775 1.377 . S
C1760 C1758 1.389 . S
C1760 C1761 1.524 . S
C1760 C1774 1.377 . S
C1761 C1760 1.524 . S
C1761 C1762 1.397 . S
C1761 C1766 1.363 . S
C1762 H1739 0.950 . S
C1762 C1761 1.397 . S
C1762 C1763 1.334 . S
C1763 H1740 0.950 . S
C1763 C1762 1.334 . S
C1763 C1764 1.287 . S
C1764 C1763 1.287 . S
C1764 C1765 1.524 . S
C1764 H1783 0.913 . S
C1765 H1741 0.950 . S
C1765 C1764 1.524 . S
C1765 C1766 1.415 . S
C1766 H1742 0.950 . S
C1766 C1761 1.363 . S
C1766 C1765 1.415 . S
C1767 H1743 0.951 . S
C1767 C1768 1.366 . S
C1767 C1769 1.388 . S
C1768 C1767 1.366 . S
C1768 C1772 1.385 . S
C1769 H1744 0.951 . S
C1769 C1767 1.388 . S
C1769 C1770 1.366 . S
C1770 C1769 1.366 . S
C1770 C1771 1.414 . S
C1770 C1773 1.499 . S
C1771 H1745 0.950 . S
C1771 C1770 1.414 . S
C1771 C1772 1.374 . S
C1772 H1746 0.950 . S
C1772 C1768 1.385 . S
C1772 C1771 1.374 . S
C1773 C1770 1.499 . S
C1773 C1774 1.373 . S
C1773 C1775 1.389 . S
C1774 H1747 0.950 . S
C1774 C1760 1.377 . S
C1774 C1773 1.373 . S
C1775 C1759 1.377 . S
C1775 C1773 1.389 . S
C1775 C1776 1.524 . S
C1776 C1775 1.524 . S
C1776 C1777 1.397 . S
C1776 C1781 1.363 . S
C1777 H1748 0.950 . S
C1777 C1776 1.397 . S
C1777 C1778 1.334 . S
C1778 H1749 0.950 . S
C1778 C1777 1.334 . S
C1778 C1779 1.287 . S
C1779 C1778 1.287 . S
C1779 C1780 1.524 . S
C1779 H1782 0.999 . S
C1780 H1750 0.950 . S
C1780 C1779 1.524 . S
C1780 C1781 1.415 . S
C1781 H1751 0.950 . S
C1781 C1776 1.363 . S
C1781 C1780 1.415 . S
H1782 C1779 0.999 . S
H1783 C1764 0.913 . S
H1784 C1802 0.951 . S
H1785 C1804 0.951 . S
H1786 C1806 0.950 . S
H1787 C1807 0.950 . S
H1788 C1809 0.950 . S
H1789 C1812 0.950 1_545 S
H1790 C1813 0.950 . S
H1791 C1815 0.950 . S
H1792 C1816 0.950 . S
H1793 C1817 0.951 1_545 S
H1794 C1819 0.951 . S
H1795 C1821 0.950 . S
H1796 C1822 0.950 . S
H1797 C1824 0.950 . S
H1798 C1827 0.950 . S
H1799 C1828 0.950 1_565 S
H1800 C1830 0.950 . S
H1801 C1831 0.950 . S
C1802 H1784 0.951 . S
C1802 C1803 1.366 1_565 S
C1802 C1804 1.388 . S
C1803 C1802 1.366 1_545 S
C1803 C1807 1.385 . S
C1804 H1785 0.951 . S
C1804 C1802 1.388 . S
C1804 C1805 1.366 . S
C1805 C1804 1.366 . S
C1805 C1806 1.414 1_565 S
C1805 C1808 1.499 . S
C1806 H1786 0.950 . S
C1806 C1805 1.414 1_545 S
C1806 C1807 1.374 . S
C1807 H1787 0.950 . S
C1807 C1803 1.385 . S
C1807 C1806 1.374 . S
C1808 C1805 1.499 . S
C1808 C1809 1.373 1_565 S
C1808 C1810 1.389 . S
C1809 H1788 0.950 . S
C1809 C1808 1.373 1_545 S
C1809 C1825 1.377 . S
C1810 C1808 1.389 . S
C1810 C1811 1.524 . S
C1810 C1824 1.377 . S
C1811 C1810 1.524 . S
C1811 C1812 1.397 . S
C1811 C1816 1.363 . S
C1812 H1789 0.950 1_565 S
C1812 C1811 1.397 . S
C1812 C1813 1.334 . S
C1813 H1790 0.950 . S
C1813 C1812 1.334 . S
C1813 C1814 1.287 . S
C1814 C1813 1.287 . S
C1814 C1815 1.524 . S
C1814 H1833 0.913 . S
C1815 H1791 0.950 . S
C1815 C1814 1.524 . S
C1815 C1816 1.415 . S
C1816 H1792 0.950 . S
C1816 C1811 1.363 . S
C1816 C1815 1.415 . S
C1817 H1793 0.951 1_565 S
C1817 C1818 1.366 . S
C1817 C1819 1.388 1_565 S
C1818 C1817 1.366 . S
C1818 C1822 1.385 . S
C1819 H1794 0.951 . S
C1819 C1817 1.388 1_545 S
C1819 C1820 1.366 1_545 S
C1820 C1819 1.366 1_565 S
C1820 C1821 1.414 . S
C1820 C1823 1.499 . S
C1821 H1795 0.950 . S
C1821 C1820 1.414 . S
C1821 C1822 1.374 . S
C1822 H1796 0.950 . S
C1822 C1818 1.385 . S
C1822 C1821 1.374 . S
C1823 C1820 1.499 . S
C1823 C1824 1.373 . S
C1823 C1825 1.389 1_565 S
C1824 H1797 0.950 . S
C1824 C1810 1.377 . S
C1824 C1823 1.373 . S
C1825 C1809 1.377 . S
C1825 C1823 1.389 1_545 S
C1825 C1826 1.524 . S
C1826 C1825 1.524 . S
C1826 C1827 1.397 1_545 S
C1826 C1831 1.363 . S
C1827 H1798 0.950 . S
C1827 C1826 1.397 1_565 S
C1827 C1828 1.334 1_565 S
C1828 H1799 0.950 1_545 S
C1828 C1827 1.334 1_545 S
C1828 C1829 1.287 . S
C1829 C1828 1.287 . S
C1829 C1830 1.524 . S
C1829 H1832 0.999 . S
C1830 H1800 0.950 . S
C1830 C1829 1.524 . S
C1830 C1831 1.415 . S
C1831 H1801 0.950 . S
C1831 C1826 1.363 . S
C1831 C1830 1.415 . S
H1832 C1829 0.999 . S
H1833 C1814 0.913 . S
H1834 C1852 0.951 . S
H1835 C1854 0.951 . S
H1836 C1856 0.950 . S
H1837 C1857 0.950 . S
H1838 C1859 0.950 . S
H1839 C1862 0.950 . S
H1840 C1863 0.950 . S
H1841 C1865 0.950 . S
H1842 C1866 0.950 . S
H1843 C1867 0.951 . S
H1844 C1869 0.948 1_455 S
H1845 C1871 0.950 . S
H1846 C1872 0.950 . S
H1847 C1874 0.950 . S
H1848 C1877 0.950 . S
H1849 C1878 0.950 . S
H1850 C1880 0.950 . S
H1851 C1881 0.950 . S
C1852 H1834 0.951 . S
C1852 C1853 1.366 . S
C1852 C1854 1.388 . S
C1853 C1852 1.366 . S
C1853 C1857 1.385 . S
C1854 H1835 0.951 . S
C1854 C1852 1.388 . S
C1854 C1855 1.366 . S
C1855 C1854 1.366 . S
C1855 C1856 1.414 . S
C1855 C1858 1.499 . S
C1856 H1836 0.950 . S
C1856 C1855 1.414 . S
C1856 C1857 1.374 . S
C1857 H1837 0.950 . S
C1857 C1853 1.385 . S
C1857 C1856 1.374 . S
C1858 C1855 1.499 . S
C1858 C1859 1.373 1_455 S
C1858 C1860 1.389 . S
C1859 H1838 0.950 . S
C1859 C1858 1.373 1_655 S
C1859 C1875 1.377 . S
C1860 C1858 1.389 . S
C1860 C1861 1.524 . S
C1860 C1874 1.377 . S
C1861 C1860 1.524 . S
C1861 C1862 1.397 . S
C1861 C1866 1.363 . S
C1862 H1839 0.950 . S
C1862 C1861 1.397 . S
C1862 C1863 1.334 . S
C1863 H1840 0.950 . S
C1863 C1862 1.334 . S
C1863 C1864 1.287 . S
C1864 C1863 1.287 . S
C1864 C1865 1.524 . S
C1864 H1883 0.913 . S
C1865 H1841 0.950 . S
C1865 C1864 1.524 . S
C1865 C1866 1.415 . S
C1866 H1842 0.950 . S
C1866 C1861 1.363 . S
C1866 C1865 1.415 . S
C1867 H1843 0.951 . S
C1867 C1868 1.366 . S
C1867 C1869 1.399 . S
C1868 C1867 1.366 . S
C1868 C1872 1.385 . S
C1869 H1844 0.948 1_655 S
C1869 C1867 1.399 . S
C1869 C1870 1.355 1_655 S
C1870 C1869 1.355 1_455 S
C1870 C1871 1.413 1_455 S
C1870 C1873 1.502 . S
C1871 H1845 0.950 . S
C1871 C1870 1.413 1_655 S
C1871 C1872 1.374 . S
C1872 H1846 0.950 . S
C1872 C1868 1.385 . S
C1872 C1871 1.374 . S
C1873 C1870 1.502 . S
C1873 C1874 1.373 . S
C1873 C1875 1.389 1_455 S
C1874 H1847 0.950 . S
C1874 C1860 1.377 . S
C1874 C1873 1.373 . S
C1875 C1859 1.377 . S
C1875 C1873 1.389 1_655 S
C1875 C1876 1.524 . S
C1876 C1875 1.524 . S
C1876 C1877 1.397 . S
C1876 C1881 1.363 . S
C1877 H1848 0.950 . S
C1877 C1876 1.397 . S
C1877 C1878 1.334 . S
C1878 H1849 0.950 . S
C1878 C1877 1.334 . S
C1878 C1879 1.287 . S
C1879 C1878 1.287 . S
C1879 C1880 1.524 . S
C1879 H1882 0.999 . S
C1880 H1850 0.950 . S
C1880 C1879 1.524 . S
C1880 C1881 1.415 . S
C1881 H1851 0.950 . S
C1881 C1876 1.363 . S
C1881 C1880 1.415 . S
H1882 C1879 0.999 . S
H1883 C1864 0.913 . S
H1884 C1902 0.951 . S
H1885 C1904 0.951 . S
H1886 C1906 0.950 . S
H1887 C1907 0.950 . S
H1888 C1909 0.950 . S
H1889 C1912 0.950 . S
H1890 C1913 0.950 . S
H1891 C1915 0.950 . S
H1892 C1916 0.950 . S
H1893 C1917 0.994 . S
H1894 C1919 0.951 . S
H1895 C1921 0.950 . S
H1896 C1922 0.950 . S
H1897 C1924 0.950 . S
H1898 C1927 0.950 . S
H1899 C1928 0.950 . S
H1900 C1930 0.950 . S
H1901 C1931 0.950 . S
C1902 H1884 0.951 . S
C1902 C1903 1.366 . S
C1902 C1904 1.388 . S
C1903 C1902 1.366 . S
C1903 C1907 1.385 . S
C1904 H1885 0.951 . S
C1904 C1902 1.388 . S
C1904 C1905 1.366 . S
C1905 C1904 1.366 . S
C1905 C1906 1.414 . S
C1905 C1908 1.499 . S
C1906 H1886 0.950 . S
C1906 C1905 1.414 . S
C1906 C1907 1.374 . S
C1907 H1887 0.950 . S
C1907 C1903 1.385 . S
C1907 C1906 1.374 . S
C1908 C1905 1.499 . S
C1908 C1909 1.373 . S
C1908 C1910 1.389 . S
C1909 H1888 0.950 . S
C1909 C1908 1.373 . S
C1909 C1925 1.377 . S
C1910 C1908 1.389 . S
C1910 C1911 1.524 . S
C1910 C1924 1.377 . S
C1911 C1910 1.524 . S
C1911 C1912 1.397 . S
C1911 C1916 1.363 . S
C1912 H1889 0.950 . S
C1912 C1911 1.397 . S
C1912 C1913 1.334 . S
C1913 H1890 0.950 . S
C1913 C1912 1.334 . S
C1913 C1914 1.287 . S
C1914 C1913 1.287 . S
C1914 C1915 1.524 . S
C1914 H1933 0.913 . S
C1915 H1891 0.950 . S
C1915 C1914 1.524 . S
C1915 C1916 1.415 . S
C1916 H1892 0.950 . S
C1916 C1911 1.363 . S
C1916 C1915 1.415 . S
C1917 H1893 0.994 . S
C1917 C1918 1.366 . S
C1917 C1919 1.388 . S
C1918 C1917 1.366 . S
C1918 C1922 1.385 . S
C1919 H1894 0.951 . S
C1919 C1917 1.388 . S
C1919 C1920 1.366 . S
C1920 C1919 1.366 . S
C1920 C1921 1.414 . S
C1920 C1923 1.499 . S
C1921 H1895 0.950 . S
C1921 C1920 1.414 . S
C1921 C1922 1.374 . S
C1922 H1896 0.950 . S
C1922 C1918 1.385 . S
C1922 C1921 1.374 . S
C1923 C1920 1.499 . S
C1923 C1924 1.373 . S
C1923 C1925 1.389 . S
C1924 H1897 0.950 . S
C1924 C1910 1.377 . S
C1924 C1923 1.373 . S
C1925 C1909 1.377 . S
C1925 C1923 1.389 . S
C1925 C1926 1.524 . S
C1926 C1925 1.524 . S
C1926 C1927 1.397 . S
C1926 C1931 1.363 . S
C1927 H1898 0.950 . S
C1927 C1926 1.397 . S
C1927 C1928 1.334 . S
C1928 H1899 0.950 . S
C1928 C1927 1.334 . S
C1928 C1929 1.287 . S
C1929 C1928 1.287 . S
C1929 C1930 1.524 . S
C1929 H1932 0.999 . S
C1930 H1900 0.950 . S
C1930 C1929 1.524 . S
C1930 C1931 1.415 . S
C1931 H1901 0.950 . S
C1931 C1926 1.363 . S
C1931 C1930 1.415 . S
H1932 C1929 0.999 . S
H1933 C1914 0.913 . S
H1934 C1952 0.951 . S
H1935 C1954 0.951 . S
H1936 C1956 0.950 . S
H1937 C1957 0.950 . S
H1938 C1959 0.950 . S
H1939 C1962 0.950 . S
H1940 C1963 0.950 . S
H1941 C1965 0.950 . S
H1942 C1966 0.950 . S
H1943 C1967 0.951 . S
H1944 C1969 0.951 . S
H1945 C1971 0.950 . S
H1946 C1972 0.950 . S
H1947 C1974 0.950 . S
H1948 C1977 0.950 . S
H1949 C1978 0.950 . S
H1950 C1980 0.950 . S
H1951 C1981 0.950 . S
C1952 H1934 0.951 . S
C1952 C1953 1.366 . S
C1952 C1954 1.388 . S
C1953 C1952 1.366 . S
C1953 C1957 1.385 . S
C1954 H1935 0.951 . S
C1954 C1952 1.388 . S
C1954 C1955 1.366 . S
C1955 C1954 1.366 . S
C1955 C1956 1.414 . S
C1955 C1958 1.499 . S
C1956 H1936 0.950 . S
C1956 C1955 1.414 . S
C1956 C1957 1.374 . S
C1957 H1937 0.950 . S
C1957 C1953 1.385 . S
C1957 C1956 1.374 . S
C1958 C1955 1.499 . S
C1958 C1959 1.373 . S
C1958 C1960 1.389 . S
C1959 H1938 0.950 . S
C1959 C1958 1.373 . S
C1959 C1975 1.377 . S
C1960 C1958 1.389 . S
C1960 C1961 1.524 . S
C1960 C1974 1.377 . S
C1961 C1960 1.524 . S
C1961 C1962 1.397 . S
C1961 C1966 1.363 . S
C1962 H1939 0.950 . S
C1962 C1961 1.397 . S
C1962 C1963 1.334 . S
C1963 H1940 0.950 . S
C1963 C1962 1.334 . S
C1963 C1964 1.287 . S
C1964 C1963 1.287 . S
C1964 C1965 1.524 . S
C1964 H1983 0.913 . S
C1965 H1941 0.950 . S
C1965 C1964 1.524 . S
C1965 C1966 1.415 . S
C1966 H1942 0.950 . S
C1966 C1961 1.363 . S
C1966 C1965 1.415 . S
C1967 H1943 0.951 . S
C1967 C1968 1.366 . S
C1967 C1969 1.388 . S
C1968 C1967 1.366 . S
C1968 C1972 1.385 . S
C1969 H1944 0.951 . S
C1969 C1967 1.388 . S
C1969 C1970 1.366 . S
C1970 C1969 1.366 . S
C1970 C1971 1.414 . S
C1970 C1973 1.499 . S
C1971 H1945 0.950 . S
C1971 C1970 1.414 . S
C1971 C1972 1.374 . S
C1972 H1946 0.950 . S
C1972 C1968 1.385 . S
C1972 C1971 1.374 . S
C1973 C1970 1.499 . S
C1973 C1974 1.373 . S
C1973 C1975 1.389 . S
C1974 H1947 0.950 . S
C1974 C1960 1.377 . S
C1974 C1973 1.373 . S
C1975 C1959 1.377 . S
C1975 C1973 1.389 . S
C1975 C1976 1.524 . S
C1976 C1975 1.524 . S
C1976 C1977 1.397 . S
C1976 C1981 1.363 . S
C1977 H1948 0.950 . S
C1977 C1976 1.397 . S
C1977 C1978 1.334 . S
C1978 H1949 0.950 . S
C1978 C1977 1.334 . S
C1978 C1979 1.287 . S
C1979 C1978 1.287 . S
C1979 C1980 1.524 . S
C1979 H1982 0.999 . S
C1980 H1950 0.950 . S
C1980 C1979 1.524 . S
C1980 C1981 1.415 . S
C1981 H1951 0.950 . S
C1981 C1976 1.363 . S
C1981 C1980 1.415 . S
H1982 C1979 0.999 . S
H1983 C1964 0.913 . S
H1984 C2002 0.951 . S
H1985 C2004 0.951 . S
H1986 C2006 0.950 . S
H1987 C2007 0.950 . S
H1988 C2009 0.950 . S
H1989 C2012 0.950 . S
H1990 C2013 0.950 . S
H1991 C2015 0.950 . S
H1992 C2016 0.950 . S
H1993 C2017 0.951 . S
H1994 C2019 0.951 . S
H1995 C2021 0.950 . S
H1996 C2022 0.950 . S
H1997 C2024 0.950 . S
H1998 C2027 0.950 . S
H1999 C2028 0.950 . S
H2000 C2030 0.950 . S
H2001 C2031 0.950 . S
C2002 H1984 0.951 . S
C2002 C2003 1.366 . S
C2002 C2004 1.388 . S
C2003 C2002 1.366 . S
C2003 C2007 1.385 . S
C2004 H1985 0.951 . S
C2004 C2002 1.388 . S
C2004 C2005 1.366 . S
C2005 C2004 1.366 . S
C2005 C2006 1.414 . S
C2005 C2008 1.499 . S
C2006 H1986 0.950 . S
C2006 C2005 1.414 . S
C2006 C2007 1.374 . S
C2007 H1987 0.950 . S
C2007 C2003 1.385 . S
C2007 C2006 1.374 . S
C2008 C2005 1.499 . S
C2008 C2009 1.373 . S
C2008 C2010 1.389 . S
C2009 H1988 0.950 . S
C2009 C2008 1.373 . S
C2009 C2025 1.377 . S
C2010 C2008 1.389 . S
C2010 C2011 1.524 . S
C2010 C2024 1.377 . S
C2011 C2010 1.524 . S
C2011 C2012 1.397 . S
C2011 C2016 1.363 . S
C2012 H1989 0.950 . S
C2012 C2011 1.397 . S
C2012 C2013 1.334 . S
C2013 H1990 0.950 . S
C2013 C2012 1.334 . S
C2013 C2014 1.287 . S
C2014 C2013 1.287 . S
C2014 C2015 1.524 . S
C2014 H2033 0.913 . S
C2015 H1991 0.950 . S
C2015 C2014 1.524 . S
C2015 C2016 1.415 . S
C2016 H1992 0.950 . S
C2016 C2011 1.363 . S
C2016 C2015 1.415 . S
C2017 H1993 0.951 . S
C2017 C2018 1.366 . S
C2017 C2019 1.388 . S
C2018 C2017 1.366 . S
C2018 C2022 1.385 . S
C2019 H1994 0.951 . S
C2019 C2017 1.388 . S
C2019 C2020 1.366 . S
C2020 C2019 1.366 . S
C2020 C2021 1.414 . S
C2020 C2023 1.499 . S
C2021 H1995 0.950 . S
C2021 C2020 1.414 . S
C2021 C2022 1.374 . S
C2022 H1996 0.950 . S
C2022 C2018 1.385 . S
C2022 C2021 1.374 . S
C2023 C2020 1.499 . S
C2023 C2024 1.373 . S
C2023 C2025 1.389 . S
C2024 H1997 0.950 . S
C2024 C2010 1.377 . S
C2024 C2023 1.373 . S
C2025 C2009 1.377 . S
C2025 C2023 1.389 . S
C2025 C2026 1.524 . S
C2026 C2025 1.524 . S
C2026 C2027 1.397 . S
C2026 C2031 1.363 . S
C2027 H1998 0.950 . S
C2027 C2026 1.397 . S
C2027 C2028 1.334 . S
C2028 H1999 0.950 . S
C2028 C2027 1.334 . S
C2028 C2029 1.287 . S
C2029 C2028 1.287 . S
C2029 C2030 1.524 . S
C2029 H2032 0.999 . S
C2030 H2000 0.950 . S
C2030 C2029 1.524 . S
C2030 C2031 1.415 . S
C2031 H2001 0.950 . S
C2031 C2026 1.363 . S
C2031 C2030 1.415 . S
H2032 C2029 0.999 . S
H2033 C2014 0.913 . S
C253 C5 2.020 . S
C268 C44 2.020 . S
C303 C18 2.020 . S
C318 C55 2.020 . S
C353 C70 2.021 . S
C368 C29 2.021 . S
C403 C83 2.021 . S
C418 C122 2.021 . S
C453 C94 2.020 . S
C468 C135 2.020 . S
C503 C146 2.021 . S
C518 C107 2.021 . S
C553 C198 2.021 . S
C568 C159 2.021 . S
C603 C213 2.021 . S
C618 C174 2.021 . S
C653 C224 2.020 . S
C668 C187 2.020 . S
C703 C10 1.623 . S
C718 C127 1.623 . S
C753 C23 1.622 . S
C768 C140 1.622 . S
C803 C147 1.622 . S
C818 C30 1.622 . S
C853 C49 1.622 . S
C868 C160 1.622 . S
C903 C56 1.622 . S
C918 C179 1.622 . S
C953 C75 1.623 . S
C968 C192 1.623 . S
C1003 C88 1.623 . S
C1018 C199 1.623 . S
C1053 C95 1.623 . S
C1068 C218 1.623 . S
C1103 C225 1.623 . S
C1118 C108 1.623 . S
C1153 C3 0.647 . S
C1168 C62 0.648 . S
C1203 C16 0.647 . S
C1218 C69 0.647 . S
C1253 C31 0.647 . S
C1268 C43 0.647 . S
C1303 C42 0.647 . S
C1318 C17 0.647 . S
C1353 C36 0.647 . S
C1368 C57 0.647 . S
C1403 C68 0.647 . S
C1418 C4 0.647 . S
C1453 C81 0.647 . S
C1468 C134 0.647 . S
C1503 C153 0.647 . S
C1518 C96 0.647 . S
C1553 C121 0.647 . S
C1568 C109 0.647 . S
C1603 C101 0.647 . S
C1618 C120 0.646 . S
C1653 C133 0.647 . S
C1668 C114 0.647 . S
C1703 C148 0.646 . S
C1718 C82 0.647 . S
C1753 C212 0.647 . S
C1768 C161 0.647 . S
C1803 C231 0.648 . S
C1818 C172 0.647 . S
C1853 C185 0.646 . S
C1868 C205 0.647 . S
C1903 C173 0.647 . S
C1918 C200 0.646 . S
C1953 C186 0.647 . S
C1968 C211 0.647 . S
C2003 C166 0.647 . S
C2018 C226 0.646 . S
