# Generated by pormake.
# Topology cds-f, (5)-cn, num edge types: 1
# Building blocks:
#     Node 0, Type 0, BuildingBlock: XOMCOT_clean_sbu_1, # of connection points: 5
#     Node 1, Type 0, BuildingBlock: XOMCOT_clean_sbu_1, # of connection points: 5
#     Node 2, Type 0, BuildingBlock: XOMCOT_clean_sbu_1, # of connection points: 5
#     Node 3, Type 0, BuildingBlock: XOMCOT_clean_sbu_1, # of connection points: 5
#     Node 4, Type 0, BuildingBlock: XOMCOT_clean_sbu_1, # of connection points: 5
#     Node 5, Type 0, BuildingBlock: XOMCOT_clean_sbu_1, # of connection points: 5
#     Node 6, Type 0, BuildingBlock: XOMCOT_clean_sbu_1, # of connection points: 5
#     Node 7, Type 0, BuildingBlock: XOMCOT_clean_sbu_1, # of connection points: 5
#     Node 8, Type 0, BuildingBlock: XOMCOT_clean_sbu_1, # of connection points: 5
#     Node 9, Type 0, BuildingBlock: XOMCOT_clean_sbu_1, # of connection points: 5
#     Node 10, Type 0, BuildingBlock: XOMCOT_clean_sbu_1, # of connection points: 5
#     Node 11, Type 0, BuildingBlock: XOMCOT_clean_sbu_1, # of connection points: 5
#     Node 12, Type 0, BuildingBlock: XOMCOT_clean_sbu_1, # of connection points: 5
#     Node 13, Type 0, BuildingBlock: XOMCOT_clean_sbu_1, # of connection points: 5
#     Node 14, Type 0, BuildingBlock: XOMCOT_clean_sbu_1, # of connection points: 5
#     Node 15, Type 0, BuildingBlock: XOMCOT_clean_sbu_1, # of connection points: 5
#     Edge 16, Type (0, 0), BuildingBlock: UVAHIK_clean_linker_0, # of connection points: 2
#     Edge 17, Type (0, 0), BuildingBlock: UVAHIK_clean_linker_0, # of connection points: 2
#     Edge 18, Type (0, 0), BuildingBlock: UVAHIK_clean_linker_0, # of connection points: 2
#     Edge 19, Type (0, 0), BuildingBlock: UVAHIK_clean_linker_0, # of connection points: 2
#     Edge 20, Type (0, 0), BuildingBlock: UVAHIK_clean_linker_0, # of connection points: 2
#     Edge 21, Type (0, 0), BuildingBlock: UVAHIK_clean_linker_0, # of connection points: 2
#     Edge 22, Type (0, 0), BuildingBlock: UVAHIK_clean_linker_0, # of connection points: 2
#     Edge 23, Type (0, 0), BuildingBlock: UVAHIK_clean_linker_0, # of connection points: 2
#     Edge 24, Type (0, 0), BuildingBlock: UVAHIK_clean_linker_0, # of connection points: 2
#     Edge 25, Type (0, 0), BuildingBlock: UVAHIK_clean_linker_0, # of connection points: 2
#     Edge 26, Type (0, 0), BuildingBlock: UVAHIK_clean_linker_0, # of connection points: 2
#     Edge 27, Type (0, 0), BuildingBlock: UVAHIK_clean_linker_0, # of connection points: 2
#     Edge 28, Type (0, 0), BuildingBlock: UVAHIK_clean_linker_0, # of connection points: 2
#     Edge 29, Type (0, 0), BuildingBlock: UVAHIK_clean_linker_0, # of connection points: 2
#     Edge 30, Type (0, 0), BuildingBlock: UVAHIK_clean_linker_0, # of connection points: 2
#     Edge 31, Type (0, 0), BuildingBlock: UVAHIK_clean_linker_0, # of connection points: 2
#     Edge 32, Type (0, 0), BuildingBlock: UVAHIK_clean_linker_0, # of connection points: 2
#     Edge 33, Type (0, 0), BuildingBlock: UVAHIK_clean_linker_0, # of connection points: 2
#     Edge 34, Type (0, 0), BuildingBlock: UVAHIK_clean_linker_0, # of connection points: 2
#     Edge 35, Type (0, 0), BuildingBlock: UVAHIK_clean_linker_0, # of connection points: 2
#     Edge 36, Type (0, 0), BuildingBlock: UVAHIK_clean_linker_0, # of connection points: 2
#     Edge 37, Type (0, 0), BuildingBlock: UVAHIK_clean_linker_0, # of connection points: 2
#     Edge 38, Type (0, 0), BuildingBlock: UVAHIK_clean_linker_0, # of connection points: 2
#     Edge 39, Type (0, 0), BuildingBlock: UVAHIK_clean_linker_0, # of connection points: 2
#     Edge 40, Type (0, 0), BuildingBlock: UVAHIK_clean_linker_0, # of connection points: 2
#     Edge 41, Type (0, 0), BuildingBlock: UVAHIK_clean_linker_0, # of connection points: 2
#     Edge 42, Type (0, 0), BuildingBlock: UVAHIK_clean_linker_0, # of connection points: 2
#     Edge 43, Type (0, 0), BuildingBlock: UVAHIK_clean_linker_0, # of connection points: 2
#     Edge 44, Type (0, 0), BuildingBlock: UVAHIK_clean_linker_0, # of connection points: 2
#     Edge 45, Type (0, 0), BuildingBlock: UVAHIK_clean_linker_0, # of connection points: 2
#     Edge 46, Type (0, 0), BuildingBlock: UVAHIK_clean_linker_0, # of connection points: 2
#     Edge 47, Type (0, 0), BuildingBlock: UVAHIK_clean_linker_0, # of connection points: 2
#     Edge 48, Type (0, 0), BuildingBlock: UVAHIK_clean_linker_0, # of connection points: 2
#     Edge 49, Type (0, 0), BuildingBlock: UVAHIK_clean_linker_0, # of connection points: 2
#     Edge 50, Type (0, 0), BuildingBlock: UVAHIK_clean_linker_0, # of connection points: 2
#     Edge 51, Type (0, 0), BuildingBlock: UVAHIK_clean_linker_0, # of connection points: 2
#     Edge 52, Type (0, 0), BuildingBlock: UVAHIK_clean_linker_0, # of connection points: 2
#     Edge 53, Type (0, 0), BuildingBlock: UVAHIK_clean_linker_0, # of connection points: 2
#     Edge 54, Type (0, 0), BuildingBlock: UVAHIK_clean_linker_0, # of connection points: 2
#     Edge 55, Type (0, 0), BuildingBlock: UVAHIK_clean_linker_0, # of connection points: 2
# Relax obj value: 0.242
# Max RMSD: 0.190
# Mean RMSD: 0.181
data_MOF--net-cds-f--node1-XOMCOT_clean_sbu_1--edge1-UVAHIK_clean_linker_0
_symmetry_space_group_name_H-M    P1
_symmetry_Int_Tables_number       1
_symmetry_cell_setting            triclinic
loop_
_symmetry_equiv_pos_as_xyz
'x, y, z'
_cell_length_a     44.343182
_cell_length_b     44.327011
_cell_length_c     72.629209
_cell_angle_alpha  92.256249
_cell_angle_beta   90.099776
_cell_angle_gamma 91.13334
loop_
_atom_site_label
_atom_site_type_symbol
_atom_site_fract_x
_atom_site_fract_y
_atom_site_fract_z
_atom_type_partial_charge
C0 C 0.27743 0.27039 0.16526 0.0
C1 C 0.30819 0.27364 0.16668 0.0
N2 N 0.32104 0.25222 0.15575 0.0
N3 N 0.27056 0.24721 0.15337 0.0
C4 C 0.2976 0.23647 0.14776 0.0
H5 H 0.26098 0.28386 0.17264 0.0
Co6 Co 0.23074 0.23444 0.14888 0.0
C7 C 0.22729 0.21048 0.11078 0.0
O8 O 0.2019 0.22513 0.10983 0.0
N9 N 0.18975 0.22087 0.14513 0.0
C10 C 0.15123 0.18805 0.14136 0.0
C11 C 0.18205 0.19138 0.14231 0.0
C12 C 0.1628 0.23494 0.14601 0.0
N13 N 0.13904 0.21549 0.14374 0.0
O14 O 0.23746 0.20063 0.16397 0.0
H15 H 0.19799 0.17326 0.14108 0.0
H16 H 0.16022 0.25878 0.14879 0.0
O17 O 0.24274 0.21204 0.12579 0.0
C18 C 0.2251 0.20697 0.17948 0.0
O19 O 0.2098 0.23198 0.18138 0.0
N20 N 0.22479 0.27011 0.13651 0.0
C21 C 0.22747 0.33111 0.12855 0.0
C22 C 0.24196 0.30966 0.11714 0.0
C23 C 0.24085 0.27921 0.12158 0.0
C24 C 0.2103 0.29075 0.14748 0.0
C25 C 0.21064 0.32114 0.1435 0.0
H26 H 0.25513 0.26373 0.11399 0.0
H27 H 0.20061 0.284 0.16037 0.0
H28 H 0.30003 0.21699 0.13847 0.0
H29 H 0.32013 0.29061 0.17514 0.0
H30 H 0.13881 0.16697 0.13907 0.0
H31 H 0.25604 0.31661 0.10584 0.0
H32 H 0.1994 0.33697 0.15279 0.0
C33 C 0.72593 0.2972 0.64959 0.0
C34 C 0.72306 0.32793 0.64955 0.0
N35 N 0.74952 0.34038 0.64428 0.0
N36 N 0.75394 0.28987 0.64411 0.0
C37 C 0.7679 0.31664 0.64101 0.0
H38 H 0.70868 0.28117 0.65357 0.0
Co39 Co 0.7682 0.25028 0.64312 0.0
C40 C 0.79908 0.24198 0.60771 0.0
O41 O 0.786 0.21511 0.60679 0.0
N42 N 0.7833 0.21016 0.64286 0.0
C43 C 0.81808 0.17441 0.64311 0.0
C44 C 0.81323 0.20492 0.64366 0.0
C45 C 0.77048 0.18203 0.64211 0.0
N46 N 0.79115 0.15999 0.64211 0.0
O47 O 0.79881 0.26195 0.66103 0.0
H48 H 0.83069 0.22231 0.64428 0.0
H49 H 0.74663 0.17727 0.64108 0.0
O50 O 0.79443 0.25978 0.62177 0.0
C51 C 0.78634 0.2623 0.67687 0.0
O52 O 0.75721 0.25662 0.67786 0.0
N53 N 0.73556 0.2392 0.62745 0.0
C54 C 0.67716 0.2352 0.61274 0.0
C55 C 0.70022 0.25099 0.60372 0.0
C56 C 0.72923 0.25294 0.61138 0.0
C57 C 0.7135 0.22354 0.63619 0.0
C58 C 0.68465 0.22019 0.62873 0.0
H59 H 0.74551 0.268 0.60533 0.0
H60 H 0.71757 0.21565 0.64985 0.0
H61 H 0.79127 0.31863 0.63692 0.0
H62 H 0.70281 0.34001 0.65312 0.0
H63 H 0.83978 0.1637 0.64354 0.0
H64 H 0.69546 0.2638 0.59171 0.0
H65 H 0.66786 0.20756 0.63621 0.0
C66 C 0.80616 0.7357 0.10796 0.0
C67 C 0.8367 0.73147 0.10658 0.0
N68 N 0.85099 0.75262 0.11741 0.0
N69 N 0.80096 0.75914 0.11983 0.0
C70 C 0.82877 0.76929 0.12521 0.0
H71 H 0.78884 0.72281 0.10048 0.0
Co72 Co 0.76272 0.77425 0.12511 0.0
C73 C 0.76074 0.78598 0.16527 0.0
O74 O 0.7333 0.77423 0.16444 0.0
N75 N 0.72355 0.7906 0.1299 0.0
C76 C 0.68917 0.82492 0.13776 0.0
C77 C 0.71948 0.81905 0.13673 0.0
C78 C 0.69501 0.77996 0.12653 0.0
N79 N 0.67373 0.8003 0.13128 0.0
O80 O 0.7754 0.81152 0.11468 0.0
H81 H 0.73758 0.83475 0.14062 0.0
H82 H 0.68949 0.75787 0.12066 0.0
O83 O 0.77625 0.78767 0.1504 0.0
C84 C 0.7636 0.81257 0.09868 0.0
O85 O 0.74378 0.79151 0.09347 0.0
N86 N 0.75077 0.73582 0.13281 0.0
C87 C 0.74037 0.67366 0.13518 0.0
C88 C 0.7584 0.68964 0.14833 0.0
C89 C 0.7638 0.72064 0.1467 0.0
C90 C 0.7338 0.72043 0.11978 0.0
C91 C 0.72757 0.68969 0.12097 0.0
H92 H 0.78017 0.73173 0.15581 0.0
H93 H 0.72665 0.73173 0.10765 0.0
H94 H 0.83264 0.78862 0.13456 0.0
H95 H 0.84759 0.71466 0.09782 0.0
H96 H 0.67933 0.846 0.14244 0.0
H97 H 0.76979 0.67801 0.15909 0.0
H98 H 0.71379 0.67841 0.11037 0.0
C99 C 0.32237 0.76747 0.64634 0.0
C100 C 0.32618 0.73703 0.64798 0.0
N101 N 0.30386 0.72202 0.63863 0.0
N102 N 0.29782 0.77192 0.63595 0.0
C103 C 0.28681 0.74383 0.63152 0.0
H104 H 0.33652 0.78537 0.65241 0.0
Co105 Co 0.28505 0.81048 0.63067 0.0
C106 C 0.25319 0.80566 0.59544 0.0
O107 O 0.26797 0.83056 0.59149 0.0
N108 N 0.27146 0.85029 0.62619 0.0
C109 C 0.23814 0.88714 0.62457 0.0
C110 C 0.24177 0.85664 0.62574 0.0
C111 C 0.28537 0.87779 0.62546 0.0
N112 N 0.26561 0.90061 0.62444 0.0
O113 O 0.25497 0.80766 0.64953 0.0
H114 H 0.22369 0.84005 0.62675 0.0
H115 H 0.30942 0.88142 0.62605 0.0
O116 O 0.25759 0.79367 0.61101 0.0
C117 C 0.26626 0.82281 0.66328 0.0
O118 O 0.29321 0.83523 0.66158 0.0
N119 N 0.31746 0.81345 0.61419 0.0
C120 C 0.37552 0.80922 0.59947 0.0
C121 C 0.35164 0.79135 0.59202 0.0
C122 C 0.32278 0.79354 0.59973 0.0
C123 C 0.34039 0.83103 0.62139 0.0
C124 C 0.36914 0.8302 0.61382 0.0
H125 H 0.30568 0.77726 0.59515 0.0
H126 H 0.33714 0.84383 0.63416 0.0
H127 H 0.26689 0.73945 0.62315 0.0
H128 H 0.34379 0.72681 0.65582 0.0
H129 H 0.21678 0.89851 0.62467 0.0
H130 H 0.35562 0.77414 0.58135 0.0
H131 H 0.3867 0.8445 0.6201 0.0
C132 C 0.29022 0.75939 0.86506 0.0
C133 C 0.32098 0.75796 0.86317 0.0
N134 N 0.33393 0.77991 0.87408 0.0
N135 N 0.28351 0.78194 0.87723 0.0
C136 C 0.31059 0.79413 0.88251 0.0
H137 H 0.27367 0.74501 0.8579 0.0
Co138 Co 0.24386 0.79244 0.88282 0.0
C139 C 0.24312 0.81469 0.92122 0.0
O140 O 0.21834 0.79821 0.92268 0.0
N141 N 0.2031 0.80394 0.88777 0.0
C142 C 0.16533 0.83562 0.89298 0.0
C143 C 0.196 0.83306 0.89154 0.0
C144 C 0.17588 0.78932 0.88675 0.0
N145 N 0.15254 0.80809 0.88994 0.0
O146 O 0.24867 0.827 0.868 0.0
H147 H 0.21224 0.85155 0.89285 0.0
H148 H 0.17284 0.76552 0.88355 0.0
O149 O 0.2573 0.81475 0.90581 0.0
C150 C 0.23572 0.81875 0.85285 0.0
O151 O 0.22288 0.79179 0.85141 0.0
N152 N 0.23935 0.75605 0.89485 0.0
C153 C 0.24451 0.6947 0.90101 0.0
C154 C 0.25969 0.71631 0.91242 0.0
C155 C 0.25725 0.747 0.90889 0.0
C156 C 0.22392 0.73522 0.88405 0.0
C157 C 0.22553 0.70459 0.88716 0.0
H158 H 0.272 0.76293 0.91628 0.0
H159 H 0.21268 0.74209 0.87175 0.0
H160 H 0.31308 0.8135 0.89196 0.0
H161 H 0.33282 0.74179 0.85446 0.0
H162 H 0.15337 0.85644 0.89541 0.0
H163 H 0.27526 0.70949 0.92291 0.0
H164 H 0.21367 0.68864 0.87792 0.0
C165 C 0.31249 0.20989 0.41934 0.0
C166 C 0.31522 0.17955 0.42209 0.0
N167 N 0.28941 0.16525 0.41679 0.0
N168 N 0.28524 0.2151 0.41187 0.0
C169 C 0.27125 0.18743 0.41127 0.0
H170 H 0.32979 0.22669 0.42253 0.0
Co171 Co 0.26941 0.25229 0.40382 0.0
C172 C 0.26362 0.20982 0.37095 0.0
O173 O 0.28915 0.19746 0.37545 0.0
N174 N 0.25319 0.28916 0.3964 0.0
C175 C 0.22286 0.32277 0.38454 0.0
C176 C 0.22746 0.29251 0.38686 0.0
C177 C 0.26369 0.31783 0.39985 0.0
N178 N 0.24568 0.33888 0.3927 0.0
O179 O 0.23358 0.24351 0.41755 0.0
H180 H 0.21265 0.27413 0.38213 0.0
H181 H 0.28419 0.32311 0.40749 0.0
O182 O 0.2532 0.23166 0.38102 0.0
C183 C 0.23397 0.25969 0.43247 0.0
O184 O 0.25535 0.28042 0.43484 0.0
N185 N 0.30576 0.26273 0.39216 0.0
C186 C 0.36383 0.27822 0.3807 0.0
C187 C 0.34165 0.26869 0.36779 0.0
C188 C 0.31239 0.26198 0.37377 0.0
C189 C 0.32591 0.27531 0.40448 0.0
C190 C 0.35506 0.28305 0.39913 0.0
H191 H 0.29545 0.25622 0.36353 0.0
H192 H 0.31945 0.27854 0.41877 0.0
H193 H 0.24881 0.18334 0.40571 0.0
H194 H 0.33499 0.16877 0.42733 0.0
H195 H 0.20366 0.33209 0.37771 0.0
H196 H 0.34688 0.26566 0.3533 0.0
H197 H 0.3707 0.29218 0.40947 0.0
C198 C 0.80816 0.3045 0.92091 0.0
C199 C 0.83893 0.30854 0.92216 0.0
N200 N 0.85199 0.28659 0.91181 0.0
N201 N 0.80176 0.28044 0.90953 0.0
C202 C 0.82898 0.26972 0.90439 0.0
H203 H 0.79153 0.31812 0.928 0.0
Co204 Co 0.76325 0.26522 0.90369 0.0
C205 C 0.76333 0.25082 0.86359 0.0
O206 O 0.73537 0.26001 0.86311 0.0
N207 N 0.7238 0.2488 0.89827 0.0
C208 C 0.68807 0.21417 0.89101 0.0
C209 C 0.71859 0.2197 0.89271 0.0
C210 C 0.69574 0.26031 0.90006 0.0
N211 N 0.67363 0.23976 0.89569 0.0
O212 O 0.77384 0.22827 0.91474 0.0
H213 H 0.73601 0.20333 0.89015 0.0
H214 H 0.69121 0.28323 0.90448 0.0
O215 O 0.7777 0.25141 0.87896 0.0
C216 C 0.76193 0.22915 0.93073 0.0
O217 O 0.74435 0.25173 0.93531 0.0
N218 N 0.75326 0.30326 0.89536 0.0
C219 C 0.74846 0.36574 0.8935 0.0
C220 C 0.76441 0.34917 0.87998 0.0
C221 C 0.76703 0.31791 0.88134 0.0
C222 C 0.73741 0.31912 0.9084 0.0
C223 C 0.73413 0.35014 0.90752 0.0
H224 H 0.78226 0.3063 0.87207 0.0
H225 H 0.72912 0.3079 0.9204 0.0
H226 H 0.83188 0.25002 0.89534 0.0
H227 H 0.85082 0.32591 0.93036 0.0
H228 H 0.67738 0.1927 0.88711 0.0
H229 H 0.77664 0.3605 0.86926 0.0
H230 H 0.72176 0.36202 0.91832 0.0
C231 C 0.75099 0.79882 0.402 0.0
C232 C 0.74757 0.82951 0.40386 0.0
N233 N 0.77125 0.84324 0.39582 0.0
N234 N 0.77652 0.79292 0.39262 0.0
C235 C 0.78847 0.82044 0.38905 0.0
H236 H 0.73619 0.78185 0.40761 0.0
Co237 Co 0.79216 0.7543 0.38916 0.0
C238 C 0.81584 0.75016 0.35121 0.0
O239 O 0.80595 0.722 0.35066 0.0
N240 N 0.80871 0.71474 0.38662 0.0
C241 C 0.84388 0.67946 0.38443 0.0
C242 C 0.83845 0.70987 0.38417 0.0
C243 C 0.79671 0.68661 0.38867 0.0
N244 N 0.81758 0.6647 0.38732 0.0
O245 O 0.82577 0.76706 0.40445 0.0
H246 H 0.8553 0.72749 0.3824 0.0
H247 H 0.77339 0.68204 0.39177 0.0
O248 O 0.81262 0.76651 0.36606 0.0
C249 C 0.82106 0.75718 0.42048 0.0
O250 O 0.79746 0.73946 0.42301 0.0
N251 N 0.75685 0.74252 0.37612 0.0
C252 C 0.69656 0.73613 0.36527 0.0
C253 C 0.71729 0.75184 0.3545 0.0
C254 C 0.7472 0.7554 0.36038 0.0
C255 C 0.73694 0.72684 0.38655 0.0
C256 C 0.70693 0.72276 0.38119 0.0
H257 H 0.76148 0.77091 0.35316 0.0
H258 H 0.74367 0.71982 0.4 0.0
H259 H 0.81003 0.82365 0.38237 0.0
H260 H 0.72912 0.84078 0.41079 0.0
H261 H 0.86564 0.66915 0.38262 0.0
H262 H 0.7099 0.7636 0.34254 0.0
H263 H 0.69152 0.711 0.39011 0.0
C264 C 0.78547 0.75878 0.85849 0.0
C265 C 0.81588 0.75512 0.85559 0.0
N266 N 0.83123 0.77149 0.86871 0.0
N267 N 0.78148 0.77739 0.87334 0.0
C268 C 0.80973 0.78486 0.87923 0.0
H269 H 0.76734 0.74843 0.85034 0.0
Co270 Co 0.74396 0.7885 0.88283 0.0
C271 C 0.76114 0.83437 0.9115 0.0
O272 O 0.74432 0.85391 0.90329 0.0
N273 N 0.70562 0.79924 0.89255 0.0
C274 C 0.66846 0.80409 0.913 0.0
C275 C 0.69867 0.79919 0.91066 0.0
C276 C 0.67877 0.80366 0.88414 0.0
N277 N 0.65576 0.80679 0.89631 0.0
O278 O 0.74713 0.82443 0.86912 0.0
H279 H 0.71428 0.79423 0.92154 0.0
H280 H 0.67581 0.80356 0.86938 0.0
O281 O 0.76346 0.80767 0.90448 0.0
C282 C 0.73601 0.81849 0.85315 0.0
O283 O 0.72131 0.79271 0.8503 0.0
N284 N 0.74087 0.75177 0.8941 0.0
C285 C 0.74086 0.69029 0.90021 0.0
C286 C 0.76177 0.70993 0.90931 0.0
C287 C 0.76148 0.74083 0.90599 0.0
C288 C 0.71928 0.73332 0.88614 0.0
C289 C 0.71863 0.70257 0.88918 0.0
H290 H 0.77915 0.75542 0.91181 0.0
H291 H 0.70369 0.74223 0.87636 0.0
H292 H 0.81446 0.79932 0.89125 0.0
H293 H 0.82579 0.74157 0.84456 0.0
H294 H 0.65649 0.80384 0.92597 0.0
H295 H 0.77945 0.70127 0.91782 0.0
H296 H 0.70181 0.68828 0.88213 0.0
C297 C 0.31498 0.70534 0.40187 0.0
C298 C 0.31445 0.67529 0.40579 0.0
N299 N 0.28703 0.66352 0.40144 0.0
N300 N 0.28824 0.7129 0.39462 0.0
C301 C 0.27128 0.68702 0.39516 0.0
H302 H 0.33393 0.72076 0.40413 0.0
Co303 Co 0.27986 0.75313 0.388 0.0
C304 C 0.25534 0.71801 0.35296 0.0
O305 O 0.26059 0.6904 0.35777 0.0
N306 N 0.27207 0.79378 0.38188 0.0
C307 C 0.27189 0.83435 0.36476 0.0
C308 C 0.27617 0.80386 0.36475 0.0
C309 C 0.26574 0.81918 0.39222 0.0
N310 N 0.26531 0.84428 0.38203 0.0
O311 O 0.24219 0.75022 0.4006 0.0
H312 H 0.28384 0.79021 0.3531 0.0
H313 H 0.26238 0.81945 0.40696 0.0
O314 O 0.26175 0.74037 0.36405 0.0
C315 C 0.24769 0.7578 0.4174 0.0
O316 O 0.27515 0.7669 0.42201 0.0
N317 N 0.31802 0.75649 0.37709 0.0
C318 C 0.37817 0.76136 0.36628 0.0
C319 C 0.35879 0.73942 0.35793 0.0
C320 C 0.32873 0.73731 0.36356 0.0
C321 C 0.33636 0.77824 0.38512 0.0
C322 C 0.36632 0.7814 0.37972 0.0
H323 H 0.31473 0.71919 0.35779 0.0
H324 H 0.32786 0.79279 0.39615 0.0
H325 H 0.24776 0.68546 0.39118 0.0
H326 H 0.33321 0.66291 0.41104 0.0
H327 H 0.27518 0.84839 0.35305 0.0
H328 H 0.36706 0.72304 0.3478 0.0
H329 H 0.38025 0.79897 0.38639 0.0
C330 C 0.31017 0.28134 0.93253 0.0
C331 C 0.34095 0.28106 0.93471 0.0
N332 N 0.35336 0.27077 0.91879 0.0
N333 N 0.30296 0.2712 0.91533 0.0
C334 C 0.32973 0.26477 0.90728 0.0
H335 H 0.29401 0.28896 0.94274 0.0
Co336 Co 0.26351 0.27007 0.90626 0.0
C337 C 0.26835 0.23612 0.87081 0.0
O338 O 0.25038 0.2151 0.87722 0.0
N339 N 0.22337 0.26964 0.89697 0.0
C340 C 0.18563 0.282 0.87862 0.0
C341 C 0.2163 0.28138 0.88064 0.0
C342 C 0.19618 0.26313 0.90462 0.0
N343 N 0.17295 0.27063 0.8937 0.0
O344 O 0.25964 0.22933 0.91396 0.0
H345 H 0.23247 0.29047 0.8711 0.0
H346 H 0.19323 0.25482 0.9183 0.0
O347 O 0.2773 0.258 0.88157 0.0
C348 C 0.24955 0.23072 0.93041 0.0
O349 O 0.24105 0.25701 0.93735 0.0
N350 N 0.26737 0.31065 0.90117 0.0
C351 C 0.27299 0.37315 0.90015 0.0
C352 C 0.29076 0.3545 0.88867 0.0
C353 C 0.2878 0.3231 0.88951 0.0
C354 C 0.24986 0.32838 0.91229 0.0
C355 C 0.25209 0.35967 0.91189 0.0
H356 H 0.30262 0.30893 0.88136 0.0
H357 H 0.23441 0.31806 0.9218 0.0
H358 H 0.33198 0.25686 0.89308 0.0
H359 H 0.35321 0.28799 0.94711 0.0
H360 H 0.17348 0.29114 0.86722 0.0
H361 H 0.30748 0.36406 0.87961 0.0
H362 H 0.23766 0.37317 0.92081 0.0
C363 C 0.73824 0.30195 0.40544 0.0
C364 C 0.73721 0.3326 0.40873 0.0
N365 N 0.76409 0.34491 0.40421 0.0
N366 N 0.76541 0.29462 0.39847 0.0
C367 C 0.78117 0.32118 0.39872 0.0
H368 H 0.7199 0.286 0.40752 0.0
Co369 Co 0.77467 0.25478 0.39062 0.0
C370 C 0.80619 0.28777 0.35805 0.0
O371 O 0.79891 0.31604 0.36125 0.0
N372 N 0.78337 0.21448 0.38293 0.0
C373 C 0.78819 0.17453 0.36369 0.0
C374 C 0.78276 0.20481 0.36506 0.0
C375 C 0.78852 0.1891 0.39226 0.0
N376 N 0.79179 0.16449 0.38077 0.0
O377 O 0.8098 0.25742 0.40602 0.0
H378 H 0.77733 0.21867 0.35364 0.0
H379 H 0.78935 0.18845 0.40711 0.0
O380 O 0.7972 0.26749 0.36893 0.0
C381 C 0.80194 0.24958 0.42206 0.0
O382 O 0.77422 0.23955 0.42451 0.0
N383 N 0.73869 0.25207 0.37702 0.0
C384 C 0.67886 0.25347 0.36552 0.0
C385 C 0.70052 0.27311 0.35822 0.0
C386 C 0.73042 0.27213 0.36423 0.0
C387 C 0.71836 0.23147 0.38328 0.0
C388 C 0.68838 0.23155 0.37755 0.0
H389 H 0.74606 0.28922 0.3598 0.0
H390 H 0.72501 0.21617 0.39372 0.0
H391 H 0.80448 0.32319 0.39454 0.0
H392 H 0.71786 0.3449 0.41377 0.0
H393 H 0.78806 0.16064 0.35109 0.0
H394 H 0.69403 0.29068 0.34913 0.0
H395 H 0.67243 0.21576 0.38337 0.0
C396 C 0.77767 0.29298 0.16557 0.0
C397 C 0.8085 0.29703 0.16644 0.0
N398 N 0.82138 0.2748 0.15617 0.0
N399 N 0.77099 0.26846 0.15468 0.0
C400 C 0.79805 0.25781 0.14918 0.0
H401 H 0.76119 0.30658 0.17283 0.0
Co402 Co 0.73269 0.25111 0.15106 0.0
C403 C 0.72998 0.22969 0.11226 0.0
O404 O 0.70249 0.24017 0.11176 0.0
N405 N 0.69347 0.23244 0.14782 0.0
C406 C 0.65904 0.19547 0.14323 0.0
C407 C 0.68933 0.20241 0.14459 0.0
C408 C 0.66493 0.24315 0.14844 0.0
N409 N 0.64358 0.22115 0.14566 0.0
O410 O 0.74627 0.21729 0.16414 0.0
H411 H 0.70737 0.18642 0.14312 0.0
H412 H 0.65951 0.26648 0.15108 0.0
O413 O 0.74553 0.23285 0.12712 0.0
C414 C 0.73597 0.21774 0.18053 0.0
O415 O 0.71308 0.2352 0.1845 0.0
N416 N 0.72056 0.28679 0.1405 0.0
C417 C 0.71496 0.34861 0.13549 0.0
C418 C 0.73094 0.33042 0.12275 0.0
C419 C 0.73383 0.29955 0.12562 0.0
C420 C 0.7046 0.30411 0.15276 0.0
C421 C 0.7007 0.33471 0.15023 0.0
H422 H 0.74909 0.28684 0.11691 0.0
H423 H 0.69682 0.29458 0.16543 0.0
H424 H 0.8006 0.23714 0.14095 0.0
H425 H 0.82045 0.31483 0.17423 0.0
H426 H 0.64926 0.17321 0.1404 0.0
H427 H 0.74314 0.3403 0.11149 0.0
H428 H 0.68812 0.3477 0.16044 0.0
C429 C 0.72117 0.79319 0.6425 0.0
C430 C 0.71659 0.82375 0.64317 0.0
N431 N 0.74269 0.838 0.63894 0.0
N432 N 0.74991 0.7879 0.63758 0.0
C433 C 0.76255 0.8156 0.63559 0.0
H434 H 0.7047 0.77595 0.6458 0.0
Co435 Co 0.76757 0.75009 0.63661 0.0
C436 C 0.80443 0.74688 0.60301 0.0
O437 O 0.795 0.71867 0.60093 0.0
N438 N 0.78595 0.7114 0.63648 0.0
C439 C 0.82225 0.67744 0.63832 0.0
C440 C 0.81598 0.70771 0.63844 0.0
C441 C 0.7745 0.68273 0.63556 0.0
N442 N 0.79609 0.66172 0.63655 0.0
O443 O 0.79463 0.76443 0.6559 0.0
H444 H 0.83242 0.72602 0.6398 0.0
H445 H 0.75092 0.67692 0.63402 0.0
O446 O 0.7954 0.7631 0.61689 0.0
C447 C 0.78509 0.75445 0.67111 0.0
O448 O 0.76258 0.73469 0.67063 0.0
N449 N 0.73793 0.7369 0.61931 0.0
C450 C 0.68099 0.73301 0.60282 0.0
C451 C 0.70494 0.74798 0.59423 0.0
C452 C 0.73316 0.75014 0.60287 0.0
C453 C 0.71519 0.72094 0.62727 0.0
C454 C 0.68682 0.71808 0.61906 0.0
H455 H 0.74969 0.76543 0.59731 0.0
H456 H 0.71798 0.71327 0.6411 0.0
H457 H 0.78616 0.81921 0.63247 0.0
H458 H 0.69557 0.83451 0.64668 0.0
H459 H 0.84432 0.66779 0.63979 0.0
H460 H 0.70112 0.76066 0.58202 0.0
H461 H 0.66884 0.70666 0.62628 0.0
C462 C 0.31205 0.72731 0.10552 0.0
C463 C 0.34233 0.72974 0.10186 0.0
N464 N 0.35308 0.75585 0.10968 0.0
N465 N 0.30343 0.7514 0.11602 0.0
C466 C 0.32878 0.76895 0.11773 0.0
H467 H 0.29731 0.70877 0.10096 0.0
Co468 Co 0.26345 0.75743 0.1243 0.0
C469 C 0.29856 0.76968 0.16097 0.0
O470 O 0.32545 0.7621 0.15512 0.0
N471 N 0.22309 0.76306 0.13226 0.0
C472 C 0.18203 0.75602 0.14933 0.0
C473 C 0.21276 0.75358 0.1486 0.0
C474 C 0.19782 0.77118 0.12323 0.0
N475 N 0.17262 0.76714 0.13343 0.0
O476 O 0.26674 0.79827 0.11685 0.0
H477 H 0.2264 0.74314 0.15882 0.0
H478 H 0.1975 0.77781 0.10906 0.0
O479 O 0.27614 0.76848 0.14982 0.0
C480 C 0.25913 0.7972 0.09988 0.0
O481 O 0.24925 0.77136 0.09246 0.0
N482 N 0.25964 0.71655 0.12955 0.0
C483 C 0.25525 0.65377 0.12947 0.0
C484 C 0.27531 0.66967 0.14147 0.0
C485 C 0.27726 0.70116 0.14125 0.0
C486 C 0.23943 0.70151 0.11821 0.0
C487 C 0.23665 0.67019 0.11807 0.0
H488 H 0.2941 0.71274 0.14969 0.0
H489 H 0.22617 0.71391 0.10867 0.0
H490 H 0.32945 0.79078 0.12495 0.0
H491 H 0.35555 0.71294 0.0945 0.0
H492 H 0.16744 0.74852 0.16025 0.0
H493 H 0.29043 0.65787 0.15029 0.0
H494 H 0.22055 0.65892 0.10877 0.0
C495 C 0.33016 0.26668 0.65602 0.0
C496 C 0.33526 0.23618 0.65522 0.0
N497 N 0.3122 0.22203 0.64603 0.0
N498 N 0.30407 0.27198 0.64737 0.0
C499 C 0.29353 0.24442 0.64149 0.0
H500 H 0.34435 0.28395 0.66273 0.0
Co501 Co 0.28776 0.31017 0.64599 0.0
C502 C 0.24831 0.3085 0.61322 0.0
O503 O 0.25763 0.33626 0.61046 0.0
N504 N 0.27095 0.34951 0.64542 0.0
C505 C 0.23625 0.38515 0.64807 0.0
C506 C 0.2416 0.35484 0.64903 0.0
C507 C 0.28295 0.37733 0.64242 0.0
N508 N 0.26228 0.39941 0.64388 0.0
O509 O 0.26164 0.30051 0.66616 0.0
H510 H 0.22493 0.33764 0.65211 0.0
H511 H 0.30621 0.38155 0.63893 0.0
O512 O 0.25816 0.29476 0.62717 0.0
C513 C 0.27401 0.31165 0.68087 0.0
O514 O 0.29831 0.32879 0.67924 0.0
N515 N 0.31665 0.31882 0.62799 0.0
C516 C 0.37335 0.31504 0.61158 0.0
C517 C 0.34818 0.30059 0.60321 0.0
C518 C 0.32001 0.30237 0.61179 0.0
C519 C 0.34059 0.33457 0.63557 0.0
C520 C 0.36894 0.33355 0.6274 0.0
H521 H 0.30224 0.28748 0.60653 0.0
H522 H 0.33849 0.34534 0.64911 0.0
H523 H 0.27251 0.2409 0.63412 0.0
H524 H 0.35423 0.22537 0.66139 0.0
H525 H 0.21484 0.39583 0.65059 0.0
H526 H 0.35082 0.28539 0.5913 0.0
H527 H 0.38785 0.34485 0.63439 0.0
C528 C 0.8644 0.25325 0.13856 0.0
C529 C 0.8533 0.26937 0.1541 0.0
C530 C 0.89535 0.24807 0.13663 0.0
C531 C 0.97058 0.27536 0.15397 0.0
H532 H 0.99718 0.19766 0.13458 0.0
C533 C 0.08589 0.20019 0.14946 0.0
C534 C 0.10723 0.22225 0.14438 0.0
C535 C 0.05511 0.20647 0.14996 0.0
C536 C 0.99018 0.21944 0.14013 0.0
H537 H 0.86631 0.29205 0.18 0.0
H538 H 0.91995 0.28298 0.17669 0.0
H539 H 0.94341 0.20737 0.13697 0.0
H540 H 0.11257 0.26828 0.1357 0.0
H541 H 0.05884 0.27925 0.13654 0.0
H542 H 0.01736 0.28713 0.15761 0.0
C543 C 0.90486 0.27487 0.16576 0.0
C544 C 0.95928 0.22515 0.14129 0.0
C545 C 0.87399 0.28007 0.16768 0.0
C546 C 0.09689 0.25086 0.1399 0.0
C547 C 0.06601 0.25714 0.14038 0.0
C548 C 1.0015 0.26965 0.15281 0.0
C549 C 0.91602 0.25884 0.15021 0.0
C550 C 0.94902 0.25311 0.14835 0.0
C551 C 0.04468 0.23499 0.14538 0.0
C552 C 1.01174 0.24153 0.14601 0.0
H553 H 0.84922 0.24498 0.12773 0.0
H554 H 0.90311 0.23598 0.12434 0.0
H555 H 0.96359 0.29731 0.15925 0.0
H556 H 0.09297 0.17811 0.15334 0.0
H557 H 0.03949 0.18903 0.15425 0.0
C558 C 0.75962 0.11488 0.64861 0.0
C559 C 0.78583 0.12772 0.64106 0.0
C560 C 0.75506 0.0835 0.64811 0.0
C561 C 0.77822 1.01296 0.62376 0.0
H562 H 0.75046 0.97498 0.66798 0.0
C563 C 0.77292 0.88267 0.62954 0.0
C564 C 0.74826 0.87031 0.63904 0.0
C565 C 0.77803 0.914 0.62967 0.0
C566 C 0.75784 0.98518 0.65541 0.0
H567 H 0.82736 0.11763 0.62659 0.0
H568 H 0.81946 0.06297 0.62573 0.0
H569 H 0.75733 0.02964 0.66807 0.0
H570 H 0.70995 0.88175 0.6564 0.0
H571 H 0.7182 0.93582 0.65606 0.0
H572 H 0.77836 0.96858 0.61099 0.0
C573 C 0.80244 0.07714 0.63206 0.0
C574 C 0.76181 1.01657 0.65549 0.0
C575 C 0.80711 0.10847 0.63272 0.0
C576 C 0.72894 0.89018 0.64868 0.0
C577 C 0.73395 0.92139 0.64873 0.0
C578 C 0.77404 0.98155 0.62362 0.0
C579 C 0.77648 0.06425 0.63987 0.0
C580 C 0.77201 0.03085 0.63967 0.0
C581 C 0.75858 0.93379 0.63927 0.0
C582 C 0.76372 0.96722 0.63945 0.0
H583 H 0.7429 0.12905 0.65524 0.0
H584 H 0.73469 0.07429 0.6541 0.0
H585 H 0.78582 0.0233 0.61128 0.0
H586 H 0.78817 0.86822 0.62185 0.0
H587 H 0.79742 0.92266 0.62237 0.0
C588 C 0.89681 0.78548 0.12157 0.0
C589 C 0.8833 0.75659 0.11933 0.0
C590 C 0.92839 0.78907 0.12183 0.0
C591 C 0.9981 0.74746 0.10831 0.0
H592 H 0.03906 0.8077 0.13996 0.0
C593 C 0.12395 0.74138 0.12726 0.0
C594 C 0.1416 0.76801 0.12769 0.0
C595 C 0.09285 0.74221 0.12426 0.0
C596 C 0.02792 0.79104 0.13085 0.0
H597 H 0.89234 0.70881 0.11664 0.0
H598 H 0.94689 0.71481 0.1176 0.0
H599 H 0.98391 0.80483 0.13953 0.0
H600 H 0.14091 0.81638 0.12528 0.0
H601 H 0.08595 0.81812 0.12019 0.0
H602 H 0.04208 0.73304 0.10012 0.0
C603 C 0.93341 0.73492 0.11845 0.0
C604 C 0.99626 0.78937 0.13059 0.0
C605 C 0.90202 0.7314 0.11801 0.0
C606 C 0.12769 0.79557 0.12473 0.0
C607 C 0.09632 0.79652 0.12202 0.0
C608 C 0.02964 0.74894 0.10872 0.0
C609 C 0.94716 0.76381 0.12 0.0
C610 C 0.98087 0.76718 0.11954 0.0
C611 C 0.0785 0.76982 0.12192 0.0
C612 C 0.04498 0.77043 0.12018 0.0
H613 H 0.88299 0.80534 0.12247 0.0
H614 H 0.93803 0.81169 0.12295 0.0
H615 H 0.98723 0.73063 0.0992 0.0
H616 H 0.13427 0.71996 0.12973 0.0
H617 H 0.07983 0.72129 0.12447 0.0
C618 C 0.25003 0.95298 0.61901 0.0
C619 C 0.27199 0.93281 0.62475 0.0
C620 C 0.25527 0.98419 0.62036 0.0
C621 C 0.30397 0.04241 0.64458 0.0
H622 H 0.27059 0.09489 0.60858 0.0
C623 C 0.33252 0.17016 0.64434 0.0
C624 C 0.30819 0.18979 0.64242 0.0
C625 C 0.32856 0.13895 0.64154 0.0
C626 C 0.27987 0.08053 0.61881 0.0
H627 H 0.31719 0.93027 0.63606 0.0
H628 H 0.32672 0.98447 0.63771 0.0
H629 H 0.26383 0.04029 0.60444 0.0
H630 H 0.26046 0.19123 0.63571 0.0
H631 H 0.25385 0.13691 0.6305 0.0
H632 H 0.32037 0.08275 0.65877 0.0
C633 C 0.30506 0.97612 0.63258 0.0
C634 C 0.27595 0.04919 0.61648 0.0
C635 C 0.29973 0.94485 0.63138 0.0
C636 C 0.27989 0.17717 0.63719 0.0
C637 C 0.27602 0.14591 0.63421 0.0
C638 C 0.30814 0.07371 0.64679 0.0
C639 C 0.28277 0.99626 0.62729 0.0
C640 C 0.28781 0.02966 0.62939 0.0
C641 C 0.30026 0.12643 0.63652 0.0
C642 C 0.29603 0.09314 0.63398 0.0
H643 H 0.22858 0.94475 0.61355 0.0
H644 H 0.23738 0.99885 0.61632 0.0
H645 H 0.31293 0.02827 0.65502 0.0
H646 H 0.35483 0.17876 0.64794 0.0
H647 H 0.3478 0.12459 0.64314 0.0
C648 C 0.87702 0.79772 0.88174 0.0
C649 C 0.86365 0.77364 0.87122 0.0
C650 C 0.90833 0.79961 0.88427 0.0
C651 C 0.98023 0.77358 0.86411 0.0
H652 H 1.01305 0.79759 0.91209 0.0
C653 C 0.10908 0.77636 0.87842 0.0
C654 C 0.12052 0.80112 0.88916 0.0
C655 C 0.07788 0.77098 0.87683 0.0
C656 C 1.00432 0.79115 0.89854 0.0
H657 H 0.87332 0.73244 0.85534 0.0
H658 H 0.92773 0.73602 0.85958 0.0
H659 H 0.95859 0.7928 0.90794 0.0
H660 H 0.10784 0.83888 0.90723 0.0
H661 H 0.05386 0.83005 0.9041 0.0
H662 H 0.02589 0.77241 0.8546 0.0
C663 C 0.91392 0.75359 0.86573 0.0
C664 C 0.97303 0.78839 0.89617 0.0
C665 C 0.88261 0.75159 0.86327 0.0
C666 C 0.09995 0.81986 0.89861 0.0
C667 C 0.06887 0.81454 0.897 0.0
C668 C 1.01154 0.77648 0.86645 0.0
C669 C 0.92719 0.77759 0.87629 0.0
C670 C 0.96056 0.77977 0.8789 0.0
C671 C 0.05733 0.7902 0.88596 0.0
C672 C 0.02403 0.78553 0.88367 0.0
H673 H 0.86342 0.81542 0.88786 0.0
H674 H 0.91781 0.81867 0.89226 0.0
H675 H 0.9714 0.76722 0.85056 0.0
H676 H 0.12414 0.76153 0.87085 0.0
H677 H 0.06989 0.75178 0.86839 0.0
C678 C 0.2694 0.88668 0.40575 0.0
C679 C 0.26174 0.87576 0.38782 0.0
C680 C 0.26943 0.91791 0.41028 0.0
C681 C 0.28029 0.99024 0.38796 0.0
H682 H 0.24666 0.0283 0.4321 0.0
C683 C 0.30871 0.11391 0.41028 0.0
C684 C 0.28451 0.13284 0.41485 0.0
C685 C 0.30434 0.08265 0.40789 0.0
C686 C 0.25605 0.01797 0.41969 0.0
H687 H 0.24573 0.88933 0.36119 0.0
H688 H 0.24649 0.94314 0.36894 0.0
H689 H 0.24151 0.97324 0.42676 0.0
H690 H 0.23669 0.13345 0.42073 0.0
H691 H 0.22907 0.07835 0.41686 0.0
H692 H 0.29526 0.03457 0.38095 0.0
C693 C 0.25297 0.92775 0.3794 0.0
C694 C 0.25332 0.98644 0.41671 0.0
C695 C 0.25263 0.89677 0.37496 0.0
C696 C 0.25576 0.11951 0.41717 0.0
C697 C 0.25146 0.08798 0.41508 0.0
C698 C 0.28347 0.02151 0.39108 0.0
C699 C 0.26202 0.93886 0.39696 0.0
C700 C 0.26527 0.97222 0.40073 0.0
C701 C 0.2757 0.06921 0.41022 0.0
C702 C 0.27138 0.03585 0.40695 0.0
H703 H 0.27657 0.87129 0.41602 0.0
H704 H 0.27651 0.92575 0.42395 0.0
H705 H 0.28996 0.98006 0.37558 0.0
H706 H 0.33107 0.12334 0.40814 0.0
H707 H 0.32352 0.0689 0.40424 0.0
C708 C 0.90348 0.3076 0.90839 0.0
C709 C 0.88392 0.28241 0.90942 0.0
C710 C 0.93456 0.3039 0.90654 0.0
C711 C 0.99631 0.25438 0.91658 0.0
H712 H 0.03843 0.29705 0.87847 0.0
C713 C 0.12619 0.24506 0.90414 0.0
C714 C 0.14122 0.27081 0.89783 0.0
C715 C 0.09462 0.24451 0.9059 0.0
C716 C 0.02722 0.28533 0.88942 0.0
H717 H 0.88156 0.2336 0.90953 0.0
H718 H 0.93636 0.22708 0.90668 0.0
H719 H 0.98384 0.29965 0.88062 0.0
H720 H 0.13563 0.31671 0.88963 0.0
H721 H 0.08121 0.31649 0.89347 0.0
H722 H 0.03981 0.24096 0.92585 0.0
C723 C 0.92742 0.24966 0.90714 0.0
C724 C 0.99584 0.28666 0.89052 0.0
C725 C 0.89614 0.25336 0.90861 0.0
C726 C 0.12444 0.29642 0.89422 0.0
C727 C 0.09318 0.29611 0.89626 0.0
C728 C 0.0279 0.25341 0.91568 0.0
C729 C 0.9469 0.27494 0.90601 0.0
C730 C 0.98005 0.27151 0.90422 0.0
C731 C 0.07761 0.2699 0.90162 0.0
C732 C 0.04386 0.26928 0.90223 0.0
H733 H 0.89464 0.33021 0.90886 0.0
H734 H 0.94904 0.32379 0.9058 0.0
H735 H 0.98467 0.24259 0.92735 0.0
H736 H 0.13873 0.22501 0.90692 0.0
H737 H 0.08353 0.22387 0.91 0.0
C738 C 0.7813 0.12075 0.40034 0.0
C739 C 0.79564 0.13326 0.38508 0.0
C740 C 0.78157 0.08944 0.40272 0.0
C741 C 0.79071 0.0178 0.37519 0.0
H742 H 0.79515 0.98139 0.42272 0.0
C743 C 0.79483 0.88799 0.38155 0.0
C744 C 0.77718 0.87547 0.39551 0.0
C745 C 0.79932 0.91937 0.38093 0.0
C746 C 0.79363 0.99118 0.40933 0.0
H747 H 0.82333 0.12306 0.3612 0.0
H748 H 0.82429 0.06892 0.36547 0.0
H749 H 0.79893 0.03626 0.42094 0.0
H750 H 0.75146 0.88643 0.4202 0.0
H751 H 0.75872 0.94073 0.4189 0.0
H752 H 0.78508 0.97292 0.36357 0.0
C753 C 0.81199 0.08294 0.3753 0.0
C754 C 0.79579 0.0227 0.40833 0.0
C755 C 0.81159 0.11404 0.37289 0.0
C756 C 0.76476 0.89514 0.40905 0.0
C757 C 0.76928 0.92641 0.40846 0.0
C758 C 0.78855 0.98637 0.3762 0.0
C759 C 0.79631 0.07004 0.38994 0.0
C760 C 0.79436 0.03645 0.39123 0.0
C761 C 0.7864 0.93904 0.39431 0.0
C762 C 0.7899 0.97257 0.39327 0.0
H763 H 0.76865 0.13495 0.40988 0.0
H764 H 0.76916 0.08032 0.41414 0.0
H765 H 0.78887 0.02753 0.3618 0.0
H766 H 0.80465 0.8736 0.37087 0.0
H767 H 0.81295 0.92821 0.36995 0.0
C768 C 0.23226 0.37694 0.10924 0.0
C769 C 0.23304 0.36389 0.12655 0.0
C770 C 0.23744 0.40803 0.10779 0.0
C771 C 0.27051 0.47482 0.13334 0.0
H772 H 0.21567 0.5204 0.10407 0.0
C773 C 0.25723 0.60323 0.14386 0.0
C774 C 0.25478 0.62028 0.12805 0.0
C775 C 0.25685 0.57171 0.14237 0.0
C776 C 0.23141 0.50794 0.11211 0.0
H777 H 0.24115 0.37288 0.15575 0.0
H778 H 0.24938 0.42678 0.15328 0.0
H779 H 0.21158 0.46536 0.10327 0.0
H780 H 0.25096 0.61757 0.09821 0.0
H781 H 0.24989 0.56261 0.09569 0.0
H782 H 0.28987 0.5174 0.14252 0.0
C783 C 0.24495 0.41321 0.14081 0.0
C784 C 0.22912 0.47643 0.11161 0.0
C785 C 0.23974 0.38234 0.14226 0.0
C786 C 0.25219 0.60511 0.11071 0.0
C787 C 0.25169 0.57363 0.10924 0.0
C788 C 0.27272 0.50628 0.13389 0.0
C789 C 0.24379 0.42646 0.1236 0.0
C790 C 0.24828 0.45958 0.12249 0.0
C791 C 0.25397 0.5566 0.12504 0.0
C792 C 0.25287 0.52318 0.12353 0.0
H793 H 0.22726 0.3632 0.09691 0.0
H794 H 0.23661 0.41762 0.09431 0.0
H795 H 0.28599 0.46242 0.14161 0.0
H796 H 0.25895 0.61422 0.15741 0.0
H797 H 0.25824 0.55914 0.15482 0.0
C798 C 0.4137 0.30346 0.58791 0.0
C799 C 0.40428 0.30586 0.6064 0.0
C800 C 0.44234 0.29235 0.58348 0.0
C801 C 0.49932 0.24291 0.60155 0.0
H802 H 0.56052 0.29092 0.57744 0.0
C803 C 0.62245 0.23958 0.6208 0.0
C804 C 0.64493 0.23776 0.60716 0.0
C805 C 0.59239 0.2433 0.61609 0.0
C806 C 0.54348 0.27689 0.58376 0.0
H807 H 0.41717 0.29793 0.63462 0.0
H808 H 0.46661 0.27878 0.62693 0.0
H809 H 0.50777 0.30695 0.57741 0.0
H810 H 0.65292 0.23884 0.57769 0.0
H811 H 0.5999 0.24655 0.56954 0.0
H812 H 0.53497 0.21385 0.60886 0.0
C813 C 0.45211 0.2856 0.61587 0.0
C814 C 0.51338 0.28607 0.58376 0.0
C815 C 0.42393 0.29698 0.62028 0.0
C816 C 0.63631 0.24019 0.58858 0.0
C817 C 0.60601 0.24448 0.58388 0.0
C818 C 0.5292 0.23379 0.60154 0.0
C819 C 0.46151 0.28283 0.59746 0.0
C820 C 0.49138 0.26985 0.59341 0.0
C821 C 0.58381 0.24589 0.59764 0.0
C822 C 0.55177 0.25143 0.5934 0.0
H823 H 0.39888 0.30999 0.57695 0.0
H824 H 0.44921 0.29047 0.56918 0.0
H825 H 0.48265 0.22979 0.60885 0.0
H826 H 0.62803 0.23908 0.63529 0.0
H827 H 0.57585 0.24509 0.62703 0.0
C828 C 0.71542 0.39681 0.11806 0.0
C829 C 0.7162 0.38214 0.13487 0.0
C830 C 0.71778 0.42835 0.11776 0.0
C831 C 0.74357 0.49509 0.14662 0.0
H832 H 0.69561 0.53971 0.11273 0.0
C833 C 0.73407 0.62514 0.15187 0.0
C834 C 0.737 0.64018 0.13526 0.0
C835 C 0.73134 0.59362 0.15175 0.0
C836 C 0.70928 0.52751 0.12219 0.0
H837 H 0.72081 0.38938 0.16452 0.0
H838 H 0.72353 0.44388 0.16402 0.0
H839 H 0.69127 0.4847 0.11232 0.0
H840 H 0.74027 0.63359 0.10552 0.0
H841 H 0.73484 0.57892 0.10538 0.0
H842 H 0.76122 0.53797 0.15663 0.0
C843 C 0.72153 0.43116 0.15103 0.0
C844 C 0.7069 0.49599 0.12191 0.0
C845 C 0.71939 0.39979 0.15132 0.0
C846 C 0.73722 0.62292 0.11856 0.0
C847 C 0.73424 0.59153 0.11845 0.0
C848 C 0.74574 0.52658 0.14699 0.0
C849 C 0.72099 0.44589 0.13426 0.0
C850 C 0.72396 0.47938 0.13416 0.0
C851 C 0.73131 0.57653 0.13502 0.0
C852 C 0.72862 0.54311 0.13479 0.0
H853 H 0.71293 0.38394 0.10514 0.0
H854 H 0.71758 0.43894 0.10458 0.0
H855 H 0.75753 0.48304 0.156 0.0
H856 H 0.73357 0.63771 0.16495 0.0
H857 H 0.72887 0.58264 0.16474 0.0
C858 C 0.62865 0.7478 0.61079 0.0
C859 C 0.6494 0.7384 0.59724 0.0
C860 C 0.59985 0.75647 0.6059 0.0
C861 C 0.53901 0.74833 0.57394 0.0
H862 H 0.5168 0.82634 0.59535 0.0
C863 C 0.41581 0.79523 0.57608 0.0
C864 C 0.40743 0.80335 0.59429 0.0
C865 C 0.446 0.78905 0.57179 0.0
C866 C 0.52273 0.80469 0.58907 0.0
H867 H 0.65595 0.7301 0.56793 0.0
H868 H 0.60462 0.74488 0.55934 0.0
H869 H 0.56927 0.81101 0.59624 0.0
H870 H 0.42427 0.80965 0.62235 0.0
H871 H 0.47629 0.80008 0.61477 0.0
H872 H 0.49186 0.74136 0.56785 0.0
C873 C 0.61112 0.74552 0.57373 0.0
C874 C 0.55269 0.79595 0.58957 0.0
C875 C 0.64034 0.73714 0.57863 0.0
C876 C 0.42983 0.80475 0.60805 0.0
C877 C 0.45975 0.79903 0.60375 0.0
C878 C 0.50879 0.7571 0.57348 0.0
C879 C 0.59095 0.75588 0.58735 0.0
C880 C 0.56087 0.76722 0.58274 0.0
C881 C 0.46823 0.79127 0.58561 0.0
C882 C 0.5003 0.78482 0.5818 0.0
H883 H 0.63504 0.74966 0.6252 0.0
H884 H 0.58459 0.76415 0.61665 0.0
H885 H 0.54487 0.72604 0.56863 0.0
H886 H 0.39914 0.79385 0.56515 0.0
H887 H 0.45202 0.7829 0.55771 0.0
C888 C 0.27557 0.4235 0.917 0.0
C889 C 0.27623 0.40651 0.90025 0.0
C890 C 0.27592 0.45498 0.91717 0.0
C891 C 0.25567 0.51684 0.88782 0.0
H892 H 0.29734 0.56725 0.92504 0.0
C893 C 0.25691 0.64559 0.8852 0.0
C894 C 0.2513 0.66217 0.9017 0.0
C895 C 0.26247 0.61482 0.88535 0.0
C896 C 0.28538 0.55341 0.91467 0.0
H897 H 0.27911 0.40919 0.87057 0.0
H898 H 0.28025 0.46434 0.87085 0.0
H899 H 0.30395 0.51256 0.92419 0.0
H900 H 0.24832 0.65976 0.93137 0.0
H901 H 0.25786 0.60542 0.93164 0.0
H902 H 0.2369 0.55747 0.87837 0.0
C903 C 0.27894 0.45323 0.88385 0.0
C904 C 0.28921 0.52214 0.91415 0.0
C905 C 0.27858 0.42168 0.88369 0.0
C906 C 0.25244 0.64747 0.91846 0.0
C907 C 0.25799 0.61647 0.9186 0.0
C908 C 0.25189 0.54801 0.88833 0.0
C909 C 0.27702 0.4702 0.90058 0.0
C910 C 0.27434 0.50352 0.90072 0.0
C911 C 0.2626 0.59978 0.90199 0.0
C912 C 0.26669 0.56665 0.90174 0.0
H913 H 0.2743 0.41244 0.93002 0.0
H914 H 0.27425 0.46735 0.93027 0.0
H915 H 0.24336 0.50311 0.87756 0.0
H916 H 0.25712 0.65648 0.87211 0.0
H917 H 0.2667 0.60277 0.87237 0.0
C918 C 0.63423 0.26605 0.34578 0.0
C919 C 0.64622 0.25878 0.36297 0.0
C920 C 0.60371 0.27324 0.34414 0.0
C921 C 0.54075 0.30139 0.37243 0.0
H922 H 0.4874 0.25929 0.33723 0.0
C923 C 0.41872 0.27406 0.38791 0.0
C924 C 0.39611 0.28173 0.37542 0.0
C925 C 0.44905 0.27687 0.38333 0.0
C926 C 0.50217 0.27173 0.34684 0.0
H927 H 0.6357 0.25372 0.39188 0.0
H928 H 0.58289 0.26568 0.38895 0.0
H929 H 0.5422 0.2533 0.33462 0.0
H930 H 0.38807 0.298 0.34803 0.0
H931 H 0.44165 0.30169 0.33979 0.0
H932 H 0.50085 0.3183 0.38533 0.0
C933 C 0.59693 0.266 0.37676 0.0
C934 C 0.53343 0.2683 0.34537 0.0
C935 C 0.62713 0.25865 0.37837 0.0
C936 C 0.4048 0.29171 0.35798 0.0
C937 C 0.43539 0.294 0.35325 0.0
C938 C 0.50969 0.30467 0.37394 0.0
C939 C 0.58496 0.27376 0.35972 0.0
C940 C 0.55284 0.28208 0.35866 0.0
C941 C 0.45768 0.28687 0.36602 0.0
C942 C 0.49011 0.28892 0.36162 0.0
H943 H 0.64846 0.26632 0.33368 0.0
H944 H 0.59495 0.27904 0.33083 0.0
H945 H 0.55527 0.31278 0.38263 0.0
H946 H 0.41311 0.26529 0.40121 0.0
H947 H 0.46586 0.27061 0.39326 0.0
C948 C 0.74116 0.6397 0.88387 0.0
C949 C 0.74395 0.65705 0.90044 0.0
C950 C 0.74385 0.60845 0.88368 0.0
C951 C 0.73677 0.54352 0.91316 0.0
H952 H 0.77857 0.50205 0.87298 0.0
C953 C 0.75414 0.41508 0.9112 0.0
C954 C 0.74935 0.39924 0.89425 0.0
C955 C 0.755 0.44655 0.9122 0.0
C956 C 0.76657 0.51329 0.88419 0.0
H957 H 0.75234 0.65524 0.92976 0.0
H958 H 0.75724 0.60021 0.92943 0.0
H959 H 0.77832 0.55711 0.87478 0.0
H960 H 0.74217 0.40404 0.865 0.0
H961 H 0.74352 0.4593 0.86674 0.0
H962 H 0.72478 0.49971 0.92247 0.0
C963 C 0.75262 0.61097 0.91663 0.0
C964 C 0.76649 0.54481 0.88525 0.0
C965 C 0.75003 0.64243 0.91681 0.0
C966 C 0.74596 0.41563 0.87824 0.0
C967 C 0.74682 0.44723 0.87924 0.0
C968 C 0.73686 0.51199 0.9121 0.0
C969 C 0.7495 0.59368 0.90003 0.0
C970 C 0.75134 0.56027 0.89965 0.0
C971 C 0.75119 0.46301 0.89627 0.0
C972 C 0.75157 0.49652 0.89752 0.0
H973 H 0.73708 0.65033 0.87095 0.0
H974 H 0.741 0.59579 0.8707 0.0
H975 H 0.72455 0.55476 0.92427 0.0
H976 H 0.75765 0.40313 0.92372 0.0
H977 H 0.75904 0.458 0.92545 0.0
C978 C 0.42192 0.75561 0.34429 0.0
C979 C 0.41101 0.76186 0.36221 0.0
C980 C 0.45301 0.75515 0.3409 0.0
C981 C 0.5256 0.78232 0.3607 0.0
H982 H 0.56027 0.71181 0.33623 0.0
C983 C 0.64445 0.74606 0.37635 0.0
C984 C 0.66375 0.73811 0.36172 0.0
C985 C 0.61396 0.75058 0.37319 0.0
C986 C 0.55087 0.73188 0.34278 0.0
H987 H 0.42439 0.77165 0.39064 0.0
H988 H 0.47808 0.77147 0.38466 0.0
H989 H 0.5054 0.71781 0.33622 0.0
H990 H 0.66616 0.72821 0.3323 0.0
H991 H 0.61215 0.73582 0.32677 0.0
H992 H 0.57075 0.79585 0.36791 0.0
C993 C 0.4627 0.76746 0.37317 0.0
C994 C 0.51955 0.73534 0.34276 0.0
C995 C 0.43184 0.76766 0.37658 0.0
C996 C 0.65173 0.73429 0.34382 0.0
C997 C 0.62094 0.73856 0.34067 0.0
C998 C 0.55674 0.77886 0.36074 0.0
C999 C 0.47365 0.7612 0.35533 0.0
C1000 C 0.50662 0.76006 0.35231 0.0
C1001 C 0.60194 0.74724 0.35532 0.0
C1002 C 0.56959 0.75309 0.35237 0.0
H1003 H 0.40648 0.75123 0.33289 0.0
H1004 H 0.4609 0.75029 0.32701 0.0
H1005 H 0.51626 0.80191 0.36784 0.0
H1006 H 0.65307 0.74971 0.39024 0.0
H1007 H 0.59973 0.75683 0.38478 0.0
C1008 C 0.21683 0.1837 0.08082 0.0
C1009 C 0.23823 0.19529 0.09363 0.0
C1010 C 0.22526 0.17514 0.06292 0.0
C1011 C 0.28225 0.19498 0.02873 0.0
H1012 H 0.23491 0.13784 0.99827 0.0
C1013 C 0.28328 0.20168 0.95001 0.0
C1014 C 0.25405 0.20671 0.94349 0.0
C1015 C 0.28753 0.18943 0.96732 0.0
C1016 C 0.24859 0.15366 1.00659 0.0
H1017 H 0.2857 0.20534 0.0981 0.0
H1018 H 0.30078 0.19007 0.06657 0.0
H1019 H 0.23242 0.13586 0.03178 0.0
H1020 H 0.20649 0.20116 0.94918 0.0
H1021 H 0.21372 0.17856 0.9789 0.0
H1022 H 0.29758 0.21341 1.0035 0.0
C1023 C 0.27728 0.18784 0.07041 0.0
C1024 C 0.24709 0.15266 0.02582 0.0
C1025 C 0.26876 0.19628 0.08852 0.0
C1026 C 0.22923 0.19673 0.9537 0.0
C1027 C 0.23344 0.18397 0.9708 0.0
C1028 C 0.284 0.19576 1.0095 0.0
C1029 C 0.25543 0.17802 0.05721 0.0
C1030 C 0.26278 0.17423 0.03716 0.0
C1031 C 0.26258 0.18167 0.97825 0.0
C1032 C 0.2662 0.17594 0.99821 0.0
H1033 H 0.19312 0.18265 0.08438 0.0
H1034 H 0.20764 0.16814 0.05324 0.0
H1035 H 0.29449 0.21212 0.03692 0.0
H1036 H 0.30275 0.21001 0.94262 0.0
H1037 H 0.31024 0.18784 0.97266 0.0
C1038 C 0.8278 0.23165 0.44967 0.0
C1039 C 0.82074 0.25568 0.43855 0.0
C1040 C 0.83685 0.2371 0.46798 0.0
C1041 C 0.82037 0.2892 0.50594 0.0
H1042 H 0.87821 0.24256 0.53228 0.0
C1043 C 0.81373 0.28169 0.58521 0.0
C1044 C 0.8151 0.2519 0.59104 0.0
C1045 C 0.82307 0.28866 0.56734 0.0
C1046 C 0.86189 0.25579 0.52518 0.0
H1047 H 0.81812 0.30426 0.43756 0.0
H1048 H 0.83363 0.31393 0.46978 0.0
H1049 H 0.87938 0.2422 0.49867 0.0
H1050 H 0.82933 0.20667 0.58335 0.0
H1051 H 0.84529 0.21851 0.55261 0.0
H1052 H 0.80143 0.30112 0.53226 0.0
C1053 C 0.83276 0.29089 0.46422 0.0
C1054 C 0.8627 0.25568 0.50591 0.0
C1055 C 0.8243 0.28541 0.44574 0.0
C1056 C 0.82794 0.22984 0.57924 0.0
C1057 C 0.83733 0.23675 0.56156 0.0
C1058 C 0.81929 0.28903 0.52523 0.0
C1059 C 0.83821 0.26671 0.4757 0.0
C1060 C 0.84134 0.27159 0.49604 0.0
C1061 C 0.83416 0.266 0.55507 0.0
C1062 C 0.83934 0.2714 0.53509 0.0
H1063 H 0.82441 0.20853 0.44455 0.0
H1064 H 0.8405 0.21796 0.47648 0.0
H1065 H 0.80341 0.3015 0.49874 0.0
H1066 H 0.80374 0.2991 0.59398 0.0
H1067 H 0.82062 0.31153 0.56291 0.0
C1068 C 0.79491 0.82386 0.93819 0.0
C1069 C 0.7721 0.84106 0.93056 0.0
C1070 C 0.80264 0.82778 0.95686 0.0
C1071 C 0.78791 0.87664 0.99962 0.0
H1072 H 0.80528 0.80278 0.02407 0.0
C1073 C 0.75593 0.84868 0.07412 0.0
C1074 C 0.77593 0.83168 0.0843 0.0
C1075 C 0.76346 0.85733 0.05637 0.0
C1076 C 0.80106 0.82377 0.01744 0.0
H1077 H 0.74001 0.87636 0.93644 0.0
H1078 H 0.75228 0.88224 0.96895 0.0
H1079 H 0.80272 0.80225 0.99071 0.0
H1080 H 0.81999 0.81161 0.08442 0.0
H1081 H 0.83308 0.82634 0.05318 0.0
H1082 H 0.78391 0.89731 0.02675 0.0
C1083 C 0.76514 0.86641 0.96058 0.0
C1084 C 0.79964 0.82355 0.9982 0.0
C1085 C 0.75789 0.86293 0.94185 0.0
C1086 C 0.80454 0.82542 0.07702 0.0
C1087 C 0.81183 0.83348 0.05907 0.0
C1088 C 0.78872 0.87667 0.01892 0.0
C1089 C 0.78725 0.8485 0.9685 0.0
C1090 C 0.79241 0.84982 0.98895 0.0
C1091 C 0.7908 0.84838 0.04829 0.0
C1092 C 0.7948 0.85009 0.02803 0.0
H1093 H 0.80645 0.80698 0.92979 0.0
H1094 H 0.82034 0.81408 0.96219 0.0
H1095 H 0.78305 0.89757 0.99313 0.0
H1096 H 0.73347 0.85309 0.07929 0.0
H1097 H 0.7467 0.86855 0.04836 0.0
C1098 C 0.21566 0.77844 0.44243 0.0
C1099 C 0.226 0.75315 0.43231 0.0
C1100 C 0.20481 0.77554 0.46035 0.0
C1101 C 0.22289 0.73123 0.49937 0.0
H1102 H 0.16443 0.78219 0.52425 0.0
C1103 C 0.23481 0.75968 0.57698 0.0
C1104 C 0.2344 0.79098 0.58073 0.0
C1105 C 0.22314 0.74742 0.56024 0.0
C1106 C 0.1808 0.76767 0.51755 0.0
H1107 H 0.232 0.70487 0.43244 0.0
H1108 H 0.21301 0.69967 0.46387 0.0
H1109 H 0.16232 0.77469 0.49078 0.0
H1110 H 0.21927 0.8336 0.57087 0.0
H1111 H 0.1991 0.81262 0.54204 0.0
H1112 H 0.24285 0.726 0.52583 0.0
C1113 C 0.21289 0.72167 0.4579 0.0
C1114 C 0.1795 0.76332 0.49837 0.0
C1115 C 0.22336 0.72456 0.43985 0.0
C1116 C 0.21994 0.80937 0.56829 0.0
C1117 C 0.20814 0.79722 0.55175 0.0
C1118 C 0.22437 0.7358 0.51853 0.0
C1119 C 0.20476 0.74736 0.46863 0.0
C1120 C 0.20129 0.74606 0.48899 0.0
C1121 C 0.21064 0.76628 0.54712 0.0
C1122 C 0.20419 0.75521 0.52778 0.0
H1123 H 0.21831 0.8008 0.43706 0.0
H1124 H 0.1991 0.79585 0.46827 0.0
H1125 H 0.24021 0.718 0.49258 0.0
H1126 H 0.24602 0.74505 0.58631 0.0
H1127 H 0.22514 0.72343 0.55721 0.0
C1128 C 0.23342 0.8425 0.95073 0.0
C1129 C 0.2545 0.83093 0.93806 0.0
C1130 C 0.24224 0.852 0.96849 0.0
C1131 C 0.29835 0.83356 1.00284 0.0
H1132 H 0.25334 0.89156 0.03261 0.0
C1133 C 0.29595 0.82553 0.08125 0.0
C1134 C 0.26613 0.82152 0.0873 0.0
C1135 C 0.3018 0.83819 0.06419 0.0
C1136 C 0.26638 0.87549 0.02449 0.0
H1137 H 0.30173 0.82182 0.93359 0.0
H1138 H 0.31746 0.83851 0.96493 0.0
H1139 H 0.25141 0.89297 0.99905 0.0
H1140 H 0.21934 0.82934 0.08109 0.0
H1141 H 0.22939 0.85245 0.05179 0.0
H1142 H 0.31219 0.81521 0.02826 0.0
C1143 C 0.29397 0.84015 0.96107 0.0
C1144 C 0.26523 0.87622 1.00525 0.0
C1145 C 0.28508 0.83088 0.94309 0.0
C1146 C 0.24255 0.83295 0.07694 0.0
C1147 C 0.24838 0.84602 0.06007 0.0
C1148 C 0.29967 0.83298 0.02209 0.0
C1149 C 0.27243 0.84997 0.97416 0.0
C1150 C 0.27999 0.85432 0.99417 0.0
C1151 C 0.2779 0.84728 0.05302 0.0
C1152 C 0.2826 0.85306 0.03313 0.0
H1153 H 0.20967 0.84278 0.9472 0.0
H1154 H 0.22488 0.85897 0.97813 0.0
H1155 H 0.30985 0.8162 0.99483 0.0
H1156 H 0.31444 0.81612 0.08877 0.0
H1157 H 0.32479 0.839 0.05919 0.0
C1158 C 0.203 0.27612 0.45913 0.0
C1159 C 0.21565 0.25234 0.44865 0.0
C1160 C 0.19484 0.27232 0.47747 0.0
C1161 C 0.22289 0.23214 0.51612 0.0
H1162 H 0.16051 0.27575 0.54259 0.0
C1163 C 0.23581 0.26148 0.59384 0.0
C1164 C 0.23149 0.29231 0.59807 0.0
C1165 C 0.22531 0.24837 0.57704 0.0
C1166 C 0.17806 0.26334 0.53545 0.0
H1167 H 0.22822 0.20543 0.44868 0.0
H1168 H 0.21414 0.19871 0.48097 0.0
H1169 H 0.15627 0.26706 0.50928 0.0
H1170 H 0.21078 0.33288 0.58877 0.0
H1171 H 0.19261 0.31035 0.55979 0.0
H1172 H 0.24574 0.23016 0.542 0.0
C1173 C 0.21022 0.22023 0.47492 0.0
C1174 C 0.17554 0.25827 0.51635 0.0
C1175 C 0.21789 0.22393 0.45638 0.0
C1176 C 0.21454 0.30908 0.58588 0.0
C1177 C 0.20391 0.29603 0.56926 0.0
C1178 C 0.22551 0.23737 0.5352 0.0
C1179 C 0.19978 0.24479 0.48587 0.0
C1180 C 0.19853 0.24368 0.50635 0.0
C1181 C 0.21005 0.26579 0.56426 0.0
C1182 C 0.20376 0.25418 0.54501 0.0
H1183 H 0.20157 0.29837 0.45355 0.0
H1184 H 0.18718 0.29181 0.48549 0.0
H1185 H 0.24117 0.22107 0.50885 0.0
H1186 H 0.24896 0.24801 0.60289 0.0
H1187 H 0.23016 0.22493 0.57374 0.0
C1188 C 0.72325 0.2038 0.0815 0.0
C1189 C 0.74285 0.21641 0.09506 0.0
C1190 C 0.7341 0.19441 0.06424 0.0
C1191 C 0.79302 0.21309 0.03173 0.0
H1192 H 0.75621 0.14624 1.00323 0.0
C1193 C 0.79923 0.21051 0.95295 0.0
C1194 C 0.77013 0.20873 0.9453 0.0
C1195 C 0.80417 0.20135 0.97097 0.0
C1196 C 0.76694 0.16487 1.011 0.0
H1197 H 0.78948 0.22807 0.10142 0.0
H1198 H 0.8086 0.21203 0.07087 0.0
H1199 H 0.74953 0.14968 0.0366 0.0
H1200 H 0.72404 0.194 0.94966 0.0
H1201 H 0.7326 0.17724 0.98066 0.0
H1202 H 0.80888 0.22931 1.00606 0.0
C1203 C 0.78476 0.2093 0.07374 0.0
C1204 C 0.76309 0.16685 0.03012 0.0
C1205 C 0.77388 0.21833 0.09123 0.0
C1206 C 0.7468 0.195 0.95515 0.0
C1207 C 0.75177 0.1855 0.97299 0.0
C1208 C 0.79682 0.21114 0.01258 0.0
C1209 C 0.76486 0.19766 0.05996 0.0
C1210 C 0.77495 0.19171 0.04061 0.0
C1211 C 0.78011 0.19006 0.9815 0.0
C1212 C 0.78269 0.18772 1.00189 0.0
H1213 H 0.69924 0.20188 0.08406 0.0
H1214 H 0.71804 0.18598 0.05393 0.0
H1215 H 0.80232 0.23261 0.03936 0.0
H1216 H 0.8174 0.2217 0.94575 0.0
H1217 H 0.82633 0.20492 0.97707 0.0
C1218 C 0.85047 0.74624 0.44826 0.0
C1219 C 0.83834 0.76777 0.43688 0.0
C1220 C 0.85779 0.75382 0.46661 0.0
C1221 C 0.82862 0.80167 0.50363 0.0
H1222 H 0.89162 0.76548 0.53194 0.0
C1223 C 0.81588 0.7897 0.58213 0.0
C1224 C 0.82088 0.76006 0.58744 0.0
C1225 C 0.82609 0.79919 0.56494 0.0
C1226 C 0.87389 0.77586 0.52427 0.0
H1227 H 0.82531 0.81438 0.43536 0.0
H1228 H 0.83792 0.82777 0.46765 0.0
H1229 H 0.89594 0.76663 0.49847 0.0
H1230 H 0.84241 0.71802 0.57968 0.0
H1231 H 0.86011 0.73432 0.55008 0.0
H1232 H 0.80552 0.80905 0.52921 0.0
C1233 C 0.84221 0.80511 0.4623 0.0
C1234 C 0.87645 0.7766 0.50509 0.0
C1235 C 0.83539 0.7976 0.44378 0.0
C1236 C 0.83816 0.74099 0.57594 0.0
C1237 C 0.84851 0.75047 0.55895 0.0
C1238 C 0.82594 0.80072 0.52282 0.0
C1239 C 0.85243 0.78298 0.47409 0.0
C1240 C 0.8533 0.78846 0.49447 0.0
C1241 C 0.84175 0.77931 0.55289 0.0
C1242 C 0.84794 0.78666 0.53332 0.0
H1243 H 0.85224 0.72294 0.44334 0.0
H1244 H 0.86524 0.73612 0.47531 0.0
H1245 H 0.81023 0.81073 0.49587 0.0
H1246 H 0.80244 0.80482 0.59068 0.0
H1247 H 0.82074 0.82168 0.5608 0.0
C1248 C 0.59187 0.19954 0.14922 0.0
C1249 C 0.61107 0.22422 0.14545 0.0
C1250 C 0.56047 0.20238 0.14904 0.0
C1251 C 0.50066 0.25949 0.15309 0.0
H1252 H 0.44879 0.19362 0.13452 0.0
C1253 C 0.37319 0.25693 0.16797 0.0
C1254 C 0.35311 0.24726 0.1538 0.0
C1255 C 0.40431 0.25378 0.16595 0.0
C1256 C 0.46292 0.21234 0.13961 0.0
H1257 H 0.61176 0.27121 0.13816 0.0
H1258 H 0.5571 0.27619 0.13792 0.0
H1259 H 0.50354 0.18927 0.13241 0.0
H1260 H 0.3504 0.226 0.12646 0.0
H1261 H 0.405 0.22036 0.12292 0.0
H1262 H 0.46016 0.28268 0.16016 0.0
C1263 C 0.56641 0.25467 0.14127 0.0
C1264 C 0.49437 0.20973 0.1386 0.0
C1265 C 0.59786 0.25183 0.14143 0.0
C1266 C 0.36512 0.23356 0.13768 0.0
C1267 C 0.39644 0.23036 0.13566 0.0
C1268 C 0.46928 0.26206 0.15415 0.0
C1269 C 0.54725 0.23 0.14511 0.0
C1270 C 0.5137 0.23318 0.14546 0.0
C1271 C 0.41648 0.2408 0.14971 0.0
C1272 C 0.44994 0.23842 0.14762 0.0
H1273 H 0.60107 0.17805 0.15266 0.0
H1274 H 0.54655 0.18302 0.15239 0.0
H1275 H 0.5147 0.27793 0.15866 0.0
H1276 H 0.36489 0.26686 0.18078 0.0
H1277 H 0.41888 0.26136 0.17726 0.0
C1278 C 0.78085 0.38285 0.63256 0.0
C1279 C 0.75627 0.37238 0.64298 0.0
C1280 C 0.78645 0.41394 0.63096 0.0
C1281 C 0.7479 0.48691 0.63414 0.0
H1282 H 0.82763 0.52268 0.64165 0.0
C1283 C 0.76571 0.61597 0.64325 0.0
C1284 C 0.79206 0.62927 0.63619 0.0
C1285 C 0.76208 0.58452 0.64324 0.0
C1286 C 0.80527 0.51309 0.63921 0.0
H1287 H 0.71926 0.38708 0.66054 0.0
H1288 H 0.72862 0.44059 0.65737 0.0
H1289 H 0.82051 0.46798 0.64275 0.0
H1290 H 0.83499 0.61986 0.62322 0.0
H1291 H 0.82848 0.56507 0.62282 0.0
H1292 H 0.73254 0.53166 0.63037 0.0
C1293 C 0.74329 0.42479 0.65021 0.0
C1294 C 0.80123 0.48169 0.63988 0.0
C1295 C 0.73789 0.39391 0.65197 0.0
C1296 C 0.8146 0.61033 0.62898 0.0
C1297 C 0.81086 0.57886 0.62881 0.0
C1298 C 0.75196 0.51819 0.63328 0.0
C1299 C 0.76745 0.43524 0.63959 0.0
C1300 C 0.7724 0.4683 0.63762 0.0
C1301 C 0.78458 0.56546 0.63599 0.0
C1302 C 0.78063 0.53184 0.63606 0.0
H1303 H 0.79543 0.36711 0.62534 0.0
H1304 H 0.80523 0.42132 0.62263 0.0
H1305 H 0.72547 0.47724 0.63204 0.0
H1306 H 0.74814 0.62987 0.64917 0.0
H1307 H 0.7418 0.57519 0.64926 0.0
C1308 C 0.62857 0.77816 0.11515 0.0
C1309 C 0.64132 0.797 0.12925 0.0
C1310 C 0.59719 0.77571 0.1129 0.0
C1311 C 0.52501 0.78668 0.1376 0.0
H1312 H 0.49091 0.787 0.08844 0.0
C1313 C 0.39542 0.78391 0.12561 0.0
C1314 C 0.38451 0.76542 0.11076 0.0
C1315 C 0.42644 0.79027 0.12762 0.0
C1316 C 0.49997 0.78652 0.10227 0.0
H1317 H 0.63083 0.82752 0.1523 0.0
H1318 H 0.57618 0.82324 0.1484 0.0
H1319 H 0.54534 0.79189 0.09261 0.0
H1320 H 0.39788 0.74049 0.08591 0.0
H1321 H 0.45149 0.75079 0.08962 0.0
H1322 H 0.47977 0.78068 0.14727 0.0
C1323 C 0.59046 0.81036 0.13905 0.0
C1324 C 0.53128 0.78936 0.10466 0.0
C1325 C 0.62183 0.81303 0.14119 0.0
C1326 C 0.40535 0.75443 0.09766 0.0
C1327 C 0.43626 0.76069 0.09969 0.0
C1328 C 0.49369 0.78361 0.13521 0.0
C1329 C 0.5777 0.79181 0.12481 0.0
C1330 C 0.54425 0.78931 0.12234 0.0
C1331 C 0.44738 0.77834 0.11483 0.0
C1332 C 0.48068 0.78328 0.11749 0.0
H1333 H 0.64284 0.76571 0.1056 0.0
H1334 H 0.58817 0.76096 0.1019 0.0
H1335 H 0.53422 0.78623 0.15141 0.0
H1336 H 0.38017 0.79266 0.13603 0.0
H1337 H 0.43399 0.80437 0.1393 0.0
C1338 C 0.24248 0.44999 0.63753 0.0
C1339 C 0.26685 0.43157 0.64178 0.0
C1340 C 0.24651 0.48124 0.63619 0.0
C1341 C 0.29852 0.54448 0.65066 0.0
H1342 H 0.25487 0.58837 0.6143 0.0
C1343 C 0.32398 0.67034 0.63927 0.0
C1344 C 0.29944 0.68955 0.63709 0.0
C1345 C 0.31978 0.63899 0.63898 0.0
C1346 C 0.267 0.57651 0.62465 0.0
H1347 H 0.31481 0.43203 0.64773 0.0
H1348 H 0.32199 0.48628 0.64496 0.0
H1349 H 0.24855 0.53359 0.61521 0.0
H1350 H 0.25118 0.69043 0.63241 0.0
H1351 H 0.24382 0.63554 0.63183 0.0
H1352 H 0.317 0.58731 0.66009 0.0
C1353 C 0.29956 0.47658 0.64295 0.0
C1354 C 0.26338 0.54504 0.62519 0.0
C1355 C 0.29552 0.4453 0.64432 0.0
C1356 C 0.27063 0.6764 0.63403 0.0
C1357 C 0.26642 0.64489 0.63371 0.0
C1358 C 0.30219 0.57586 0.65009 0.0
C1359 C 0.27507 0.49505 0.63901 0.0
C1360 C 0.27912 0.52857 0.6382 0.0
C1361 C 0.29091 0.6258 0.63645 0.0
C1362 C 0.28655 0.59233 0.63706 0.0
H1363 H 0.22015 0.44033 0.63521 0.0
H1364 H 0.22703 0.49464 0.63329 0.0
H1365 H 0.31054 0.53276 0.66113 0.0
H1366 H 0.34661 0.67948 0.64119 0.0
H1367 H 0.33929 0.62503 0.6407 0.0
C1368 C 0.60461 0.82191 0.90616 0.0
C1369 C 0.62375 0.80898 0.8927 0.0
C1370 C 0.57331 0.8215 0.90368 0.0
C1371 C 0.51249 0.81075 0.86864 0.0
H1372 H 0.46366 0.79025 0.91077 0.0
C1373 C 0.38597 0.77781 0.86169 0.0
C1374 C 0.36597 0.78654 0.87588 0.0
C1375 C 0.41709 0.78278 0.86358 0.0
C1376 C 0.47683 0.79648 0.89892 0.0
H1377 H 0.62466 0.7862 0.86576 0.0
H1378 H 0.56997 0.78558 0.86136 0.0
H1379 H 0.51825 0.79482 0.91401 0.0
H1380 H 0.36343 0.80796 0.90315 0.0
H1381 H 0.41777 0.8172 0.90636 0.0
H1382 H 0.47107 0.81232 0.85353 0.0
C1383 C 0.5793 0.79622 0.87384 0.0
C1384 C 0.50824 0.79906 0.90077 0.0
C1385 C 0.61072 0.79661 0.87634 0.0
C1386 C 0.37804 0.80103 0.89191 0.0
C1387 C 0.40929 0.80603 0.89382 0.0
C1388 C 0.48104 0.80826 0.8668 0.0
C1389 C 0.56013 0.8082 0.88764 0.0
C1390 C 0.52655 0.80609 0.88564 0.0
C1391 C 0.42929 0.79677 0.87971 0.0
C1392 C 0.46274 0.80089 0.88189 0.0
H1393 H 0.61383 0.8322 0.91875 0.0
H1394 H 0.5594 0.83157 0.91441 0.0
H1395 H 0.52577 0.81663 0.85676 0.0
H1396 H 0.37764 0.76704 0.84901 0.0
H1397 H 0.43163 0.77501 0.85249 0.0
C1398 C 0.23454 0.3896 0.38106 0.0
C1399 C 0.24935 0.37162 0.39371 0.0
C1400 C 0.23728 0.42121 0.38221 0.0
C1401 C 0.25887 0.48577 0.41451 0.0
H1402 H 0.26266 0.53072 0.36983 0.0
C1403 C 0.29177 0.61322 0.41488 0.0
C1404 C 0.27821 0.63185 0.40211 0.0
C1405 C 0.28621 0.58196 0.41432 0.0
C1406 C 0.26118 0.51864 0.38247 0.0
H1407 H 0.27892 0.37356 0.41756 0.0
H1408 H 0.28419 0.42849 0.41934 0.0
H1409 H 0.25826 0.4758 0.36778 0.0
H1410 H 0.24734 0.63192 0.37898 0.0
H1411 H 0.23725 0.57731 0.3781 0.0
H1412 H 0.26205 0.52863 0.4292 0.0
C1413 C 0.27002 0.41808 0.40863 0.0
C1414 C 0.2587 0.48697 0.38131 0.0
C1415 C 0.26728 0.38639 0.40747 0.0
C1416 C 0.25804 0.61836 0.3891 0.0
C1417 C 0.25257 0.58694 0.38847 0.0
C1418 C 0.2614 0.51743 0.41568 0.0
C1419 C 0.25498 0.43604 0.39604 0.0
C1420 C 0.2576 0.46997 0.39731 0.0
C1421 C 0.26692 0.56818 0.40093 0.0
C1422 C 0.26274 0.5344 0.39968 0.0
H1423 H 0.22082 0.37932 0.37011 0.0
H1424 H 0.22505 0.43403 0.37236 0.0
H1425 H 0.25752 0.47371 0.42717 0.0
H1426 H 0.30717 0.62277 0.42522 0.0
H1427 H 0.29791 0.56847 0.42407 0.0
C1428 C 0.40654 0.28651 0.92467 0.0
C1429 C 0.38522 0.26821 0.91487 0.0
C1430 C 0.43741 0.28382 0.92126 0.0
C1431 C 0.49386 0.23095 0.90216 0.0
H1432 H 0.54549 0.30261 0.90273 0.0
C1433 C 0.62161 0.22529 0.88566 0.0
C1434 C 0.64132 0.24382 0.89654 0.0
C1435 C 0.59031 0.2286 0.88682 0.0
C1436 C 0.53148 0.28232 0.90271 0.0
H1437 H 0.37997 0.23271 0.89366 0.0
H1438 H 0.43397 0.22817 0.88755 0.0
H1439 H 0.4912 0.30768 0.90642 0.0
H1440 H 0.64318 0.28032 0.91732 0.0
H1441 H 0.58879 0.28606 0.91937 0.0
H1442 H 0.53419 0.20556 0.89865 0.0
C1443 C 0.42668 0.24449 0.89802 0.0
C1444 C 0.50028 0.28524 0.90481 0.0
C1445 C 0.39568 0.24729 0.90139 0.0
C1446 C 0.62884 0.26595 0.9085 0.0
C1447 C 0.59754 0.26924 0.90968 0.0
C1448 C 0.5251 0.22802 0.90009 0.0
C1449 C 0.44796 0.26272 0.90794 0.0
C1450 C 0.48105 0.25959 0.90473 0.0
C1451 C 0.57781 0.25054 0.89891 0.0
C1452 C 0.54438 0.25367 0.90048 0.0
H1453 H 0.39941 0.30317 0.93495 0.0
H1454 H 0.45307 0.29801 0.92932 0.0
H1455 H 0.47983 0.21068 0.90227 0.0
H1456 H 0.63035 0.20833 0.87608 0.0
H1457 H 0.57591 0.21412 0.87809 0.0
C1458 C 0.8009 0.38816 0.40428 0.0
C1459 C 0.77105 0.37685 0.40301 0.0
C1460 C 0.80724 0.41914 0.40263 0.0
C1461 C 0.77504 0.4882 0.38373 0.0
H1462 H 0.8306 0.53145 0.417 0.0
C1463 C 0.78434 0.61875 0.38646 0.0
C1464 C 0.813 0.63244 0.38917 0.0
C1465 C 0.78005 0.58755 0.38812 0.0
C1466 C 0.8153 0.51971 0.40741 0.0
H1467 H 0.72463 0.38955 0.39862 0.0
H1468 H 0.73557 0.44301 0.39599 0.0
H1469 H 0.82249 0.47714 0.41967 0.0
H1470 H 0.85955 0.62346 0.39608 0.0
H1471 H 0.85226 0.5693 0.39843 0.0
H1472 H 0.7679 0.5305 0.37137 0.0
C1473 C 0.75415 0.42807 0.39822 0.0
C1474 C 0.81066 0.4885 0.40897 0.0
C1475 C 0.74783 0.39732 0.39999 0.0
C1476 C 0.8372 0.61392 0.39365 0.0
C1477 C 0.83293 0.58273 0.39525 0.0
C1478 C 0.77978 0.51931 0.38212 0.0
C1479 C 0.78391 0.43946 0.39943 0.0
C1480 C 0.79022 0.47239 0.39726 0.0
C1481 C 0.80431 0.56903 0.39248 0.0
C1482 C 0.79978 0.53562 0.39403 0.0
H1483 H 0.81931 0.3731 0.40664 0.0
H1484 H 0.83045 0.42712 0.40354 0.0
H1485 H 0.75954 0.47646 0.37426 0.0
H1486 H 0.76516 0.63202 0.38284 0.0
H1487 H 0.75757 0.578 0.38612 0.0
C1488 C 0.23972 0.2261 0.34174 0.0
C1489 C 0.25188 0.20316 0.35211 0.0
C1490 C 0.23507 0.22148 0.32274 0.0
C1491 C 0.22705 0.16438 0.2847 0.0
H1492 H 0.26546 0.22535 0.25531 0.0
C1493 C 0.20612 0.1817 0.20696 0.0
C1494 C 0.23085 0.1904 0.19621 0.0
C1495 C 0.2098 0.17658 0.2257 0.0
C1496 C 0.25492 0.20796 0.26333 0.0
H1497 H 0.26672 0.15684 0.35106 0.0
H1498 H 0.25767 0.1485 0.31803 0.0
H1499 H 0.2661 0.23135 0.28888 0.0
H1500 H 0.27898 0.19922 0.19623 0.0
H1501 H 0.28554 0.19042 0.22913 0.0
H1502 H 0.21528 0.14137 0.25902 0.0
C1503 C 0.2521 0.17011 0.32449 0.0
C1504 C 0.25489 0.21163 0.28253 0.0
C1505 C 0.25728 0.17491 0.34339 0.0
C1506 C 0.25973 0.19176 0.20415 0.0
C1507 C 0.26336 0.18719 0.22301 0.0
C1508 C 0.22661 0.16097 0.26543 0.0
C1509 C 0.24195 0.19366 0.31386 0.0
C1510 C 0.2409 0.18995 0.29343 0.0
C1511 C 0.2382 0.18081 0.23411 0.0
C1512 C 0.2406 0.18272 0.25454 0.0
H1513 H 0.23562 0.24819 0.34804 0.0
H1514 H 0.22695 0.23994 0.31487 0.0
H1515 H 0.21616 0.14728 0.29278 0.0
H1516 H 0.18355 0.18122 0.2012 0.0
H1517 H 0.18999 0.17189 0.23389 0.0
C1518 C 0.762 0.23155 0.83099 0.0
C1519 C 0.77866 0.2447 0.84579 0.0
C1520 C 0.7738 0.23065 0.81316 0.0
C1521 C 0.82217 0.27467 0.78392 0.0
H1522 H 0.80787 0.20788 0.74869 0.0
C1523 C 0.79411 0.28774 0.70745 0.0
C1524 C 0.80328 0.26577 0.69431 0.0
C1525 C 0.80195 0.28566 0.72601 0.0
C1526 C 0.81263 0.22662 0.75834 0.0
H1527 H 0.82116 0.26643 0.85367 0.0
H1528 H 0.84171 0.26548 0.8222 0.0
H1529 H 0.80102 0.2003 0.78154 0.0
H1530 H 0.82873 0.22501 0.69002 0.0
H1531 H 0.84242 0.22111 0.72262 0.0
H1532 H 0.83216 0.30141 0.76061 0.0
C1533 C 0.81961 0.25553 0.82452 0.0
C1534 C 0.80846 0.22231 0.77717 0.0
C1535 C 0.80799 0.25583 0.84253 0.0
C1536 C 0.82205 0.24264 0.69984 0.0
C1537 C 0.82949 0.24022 0.71853 0.0
C1538 C 0.826 0.27908 0.76505 0.0
C1539 C 0.80235 0.24343 0.80959 0.0
C1540 C 0.81231 0.24649 0.79014 0.0
C1541 C 0.81856 0.2611 0.73191 0.0
C1542 C 0.82043 0.25531 0.75199 0.0
H1543 H 0.73928 0.22295 0.8331 0.0
H1544 H 0.75978 0.22146 0.80198 0.0
H1545 H 0.82513 0.29381 0.79354 0.0
H1546 H 0.77905 0.30538 0.70356 0.0
H1547 H 0.79284 0.30194 0.73592 0.0
C1548 C 0.80499 0.79643 0.18693 0.0
C1549 C 0.77373 0.79379 0.1838 0.0
C1550 C 0.81641 0.8 0.20501 0.0
C1551 C 0.79237 0.81669 0.25405 0.0
H1552 H 0.85915 0.76604 0.26614 0.0
C1553 C 0.81943 0.79406 0.33008 0.0
C1554 C 0.82406 0.76346 0.33339 0.0
C1555 C 0.82074 0.8044 0.31202 0.0
C1556 C 0.84043 0.78033 0.26306 0.0
H1557 H 0.73002 0.79433 0.19718 0.0
H1558 H 0.74958 0.79997 0.2282 0.0
H1559 H 0.84586 0.7722 0.234 0.0
H1560 H 0.836 0.72037 0.32057 0.0
H1561 H 0.83786 0.73797 0.2895 0.0
H1562 H 0.78544 0.82304 0.28305 0.0
C1563 C 0.76554 0.79972 0.21693 0.0
C1564 C 0.83305 0.78422 0.24453 0.0
C1565 C 0.75425 0.79614 0.19902 0.0
C1566 C 0.83218 0.74407 0.31851 0.0
C1567 C 0.83347 0.75431 0.30059 0.0
C1568 C 0.79953 0.81255 0.27256 0.0
C1569 C 0.79677 0.8012 0.2203 0.0
C1570 C 0.8082 0.80157 0.23975 0.0
C1571 C 0.82678 0.78438 0.29693 0.0
C1572 C 0.82299 0.79343 0.27738 0.0
H1573 H 0.82062 0.79466 0.17551 0.0
H1574 H 0.8406 0.80135 0.20702 0.0
H1575 H 0.77356 0.83087 0.25097 0.0
H1576 H 0.81303 0.80957 0.34123 0.0
H1577 H 0.81596 0.82785 0.30984 0.0
C1578 C 0.2084 0.84102 0.82739 0.0
C1579 C 0.23596 0.83681 0.83636 0.0
C1580 C 0.20768 0.847 0.80867 0.0
C1581 C 0.25481 0.8639 0.76779 0.0
H1582 H 0.19611 0.8114 0.7421 0.0
C1583 C 0.25152 0.85715 0.68909 0.0
C1584 C 0.25039 0.82798 0.68085 0.0
C1585 C 0.24437 0.8619 0.70765 0.0
C1586 C 0.21263 0.82616 0.74904 0.0
H1587 H 0.28442 0.83727 0.83328 0.0
H1588 H 0.2834 0.84776 0.80047 0.0
H1589 H 0.19572 0.81576 0.77564 0.0
H1590 H 0.23942 0.78104 0.68512 0.0
H1591 H 0.22712 0.78913 0.71784 0.0
H1592 H 0.27266 0.87316 0.74125 0.0
C1593 C 0.26226 0.84696 0.80789 0.0
C1594 C 0.21219 0.82903 0.76829 0.0
C1595 C 0.26295 0.84123 0.82674 0.0
C1596 C 0.23996 0.8038 0.69114 0.0
C1597 C 0.23309 0.8085 0.70988 0.0
C1598 C 0.25526 0.86103 0.74855 0.0
C1599 C 0.23453 0.84838 0.79846 0.0
C1600 C 0.23347 0.8477 0.77793 0.0
C1601 C 0.23641 0.83747 0.71851 0.0
C1602 C 0.23436 0.8419 0.73892 0.0
H1603 H 0.18729 0.83729 0.83453 0.0
H1604 H 0.18598 0.84871 0.80196 0.0
H1605 H 0.27144 0.87854 0.77473 0.0
H1606 H 0.25951 0.87615 0.68137 0.0
H1607 H 0.24637 0.8846 0.71367 0.0
C1608 C 0.77733 0.83258 0.83191 0.0
C1609 C 0.74665 0.83379 0.83668 0.0
C1610 C 0.78615 0.83397 0.8134 0.0
C1611 C 0.75203 0.8089 0.76976 0.0
H1612 H 0.8269 0.83521 0.74732 0.0
C1613 C 0.79221 0.74947 0.70465 0.0
C1614 C 0.79457 0.76761 0.68929 0.0
C1615 C 0.7921 0.76244 0.72244 0.0
C1616 C 0.80586 0.82793 0.75344 0.0
H1617 H 0.70168 0.84071 0.82636 0.0
H1618 H 0.71708 0.84477 0.79433 0.0
H1619 H 0.81419 0.85351 0.77883 0.0
H1620 H 0.8011 0.81343 0.68052 0.0
H1621 H 0.80106 0.83633 0.71199 0.0
H1622 H 0.74393 0.78273 0.74486 0.0
C1623 C 0.7343 0.8419 0.80467 0.0
C1624 C 0.79861 0.8383 0.77143 0.0
C1625 C 0.72549 0.84005 0.82306 0.0
C1626 C 0.79961 0.79889 0.69215 0.0
C1627 C 0.79943 0.81199 0.71012 0.0
C1628 C 0.7594 0.79836 0.75205 0.0
C1629 C 0.76438 0.83676 0.79946 0.0
C1630 C 0.77161 0.82873 0.77983 0.0
C1631 C 0.79422 0.79391 0.72534 0.0
C1632 C 0.78653 0.80733 0.74377 0.0
H1633 H 0.794 0.82707 0.84211 0.0
H1634 H 0.80947 0.82988 0.80989 0.0
H1635 H 0.73137 0.80051 0.77583 0.0
H1636 H 0.78841 0.72531 0.70285 0.0
H1637 H 0.78847 0.74795 0.73394 0.0
C1638 C 0.26377 0.77704 0.18815 0.0
C1639 C 0.29292 0.77214 0.18118 0.0
C1640 C 0.25751 0.77376 0.20689 0.0
C1641 C 0.28859 0.73584 0.24737 0.0
H1642 H 0.2267 0.77956 0.2742 0.0
C1643 C 0.25454 0.70056 0.31966 0.0
C1644 C 0.25042 0.72377 0.33313 0.0
C1645 C 0.25597 0.70697 0.30097 0.0
C1646 C 0.24421 0.76725 0.26698 0.0
H1647 H 0.33903 0.76299 0.18894 0.0
H1648 H 0.3285 0.75864 0.22153 0.0
H1649 H 0.23886 0.79269 0.24273 0.0
H1650 H 0.24091 0.77132 0.33719 0.0
H1651 H 0.24492 0.78284 0.30478 0.0
H1652 H 0.29493 0.71124 0.27169 0.0
C1653 C 0.31002 0.76354 0.21243 0.0
C1654 C 0.25098 0.77458 0.24881 0.0
C1655 C 0.31617 0.76641 0.19369 0.0
C1656 C 0.24528 0.7531 0.32728 0.0
C1657 C 0.24713 0.75962 0.30858 0.0
C1658 C 0.28203 0.72872 0.26552 0.0
C1659 C 0.28041 0.76604 0.21921 0.0
C1660 C 0.27333 0.75899 0.23874 0.0
C1661 C 0.25357 0.7368 0.29521 0.0
C1662 C 0.25968 0.7442 0.27561 0.0
H1663 H 0.24547 0.78239 0.17906 0.0
H1664 H 0.23444 0.77602 0.21151 0.0
H1665 H 0.30551 0.72284 0.24006 0.0
H1666 H 0.2581 0.67757 0.32356 0.0
H1667 H 0.25986 0.68855 0.29108 0.0
C1668 C 0.27318 0.32263 0.71465 0.0
C1669 C 0.26443 0.30352 0.69961 0.0
C1670 C 0.26956 0.31357 0.73269 0.0
C1671 C 0.2641 0.24512 0.75986 0.0
H1672 H 0.24893 0.30389 0.79957 0.0
C1673 C 0.25716 0.21784 0.83816 0.0
C1674 C 0.27125 0.23902 0.85052 0.0
C1675 C 0.25525 0.22335 0.8193 0.0
C1676 C 0.25342 0.28723 0.78865 0.0
H1677 H 0.24393 0.26017 0.69176 0.0
H1678 H 0.23714 0.24423 0.72357 0.0
H1679 H 0.24355 0.31821 0.76775 0.0
H1680 H 0.29601 0.28174 0.85234 0.0
H1681 H 0.29259 0.29129 0.81965 0.0
H1682 H 0.27385 0.21414 0.78102 0.0
C1683 C 0.24712 0.26625 0.72129 0.0
C1684 C 0.25029 0.29542 0.77037 0.0
C1685 C 0.25062 0.2755 0.70308 0.0
C1686 C 0.28478 0.26501 0.84336 0.0
C1687 C 0.28262 0.27062 0.82459 0.0
C1688 C 0.26697 0.23683 0.77824 0.0
C1689 C 0.25708 0.28502 0.73632 0.0
C1690 C 0.25632 0.27476 0.75569 0.0
C1691 C 0.26716 0.25027 0.81241 0.0
C1692 C 0.26236 0.25804 0.79284 0.0
H1693 H 0.28394 0.34435 0.71246 0.0
H1694 H 0.27792 0.32853 0.74377 0.0
H1695 H 0.26918 0.22867 0.74896 0.0
H1696 H 0.24649 0.19755 0.84314 0.0
H1697 H 0.24325 0.20719 0.81027 0.0
C1698 C 0.82651 0.24849 0.33575 0.0
C1699 C 0.81598 0.27787 0.33926 0.0
C1700 C 0.82872 0.23659 0.31766 0.0
C1701 C 0.82543 0.25621 0.26815 0.0
H1702 H 0.78241 0.17945 0.26195 0.0
C1703 C 0.7857 0.21362 0.19637 0.0
C1704 C 0.75439 0.20801 0.19609 0.0
C1705 C 0.80155 0.21475 0.21312 0.0
C1706 C 0.79477 0.20073 0.26342 0.0
H1707 H 0.80251 0.31885 0.32638 0.0
H1708 H 0.80661 0.29835 0.29499 0.0
H1709 H 0.7964 0.19856 0.29278 0.0
H1710 H 0.7157 0.19638 0.21267 0.0
H1711 H 0.74322 0.19755 0.24168 0.0
H1712 H 0.8221 0.25925 0.23889 0.0
C1713 C 0.81298 0.28429 0.30616 0.0
C1714 C 0.80304 0.21161 0.2811 0.0
C1715 C 0.81059 0.29609 0.32423 0.0
C1716 C 0.73987 0.20052 0.21249 0.0
C1717 C 0.75571 0.20124 0.22914 0.0
C1718 C 0.81725 0.24528 0.25046 0.0
C1719 C 0.82088 0.254 0.30267 0.0
C1720 C 0.81751 0.24 0.28375 0.0
C1721 C 0.7864 0.20986 0.22981 0.0
C1722 C 0.80083 0.21792 0.24794 0.0
H1723 H 0.83169 0.23417 0.34702 0.0
H1724 H 0.83552 0.2134 0.31545 0.0
H1725 H 0.8369 0.27797 0.26967 0.0
H1726 H 0.79742 0.21988 0.18397 0.0
H1727 H 0.82525 0.22114 0.21315 0.0
loop_
_geom_bond_atom_site_label_1
_geom_bond_atom_site_label_2
_geom_bond_distance
_geom_bond_site_symmetry_2
_ccdc_geom_bond_type
C0 C1 1.351 . S
C0 N3 1.368 . S
C0 H5 0.931 . S
C1 C0 1.351 . S
C1 N2 1.373 . S
C1 H29 0.930 . S
N2 C1 1.373 . S
N2 C4 1.340 . S
N3 C0 1.368 . S
N3 C4 1.321 . S
N3 Co6 2.135 . S
C4 N2 1.340 . S
C4 N3 1.321 . S
C4 H28 0.930 . S
H5 C0 0.931 . S
Co6 N3 2.135 . S
Co6 N9 2.121 . S
Co6 O14 2.055 . S
Co6 O17 2.039 . S
Co6 N20 2.140 . S
C7 O8 1.227 . S
C7 O17 1.265 . S
O8 C7 1.227 . S
N9 Co6 2.121 . S
N9 C11 1.375 . S
N9 C12 1.313 . S
C10 C11 1.338 . S
C10 N13 1.377 . S
C10 H30 0.930 . S
C11 N9 1.375 . S
C11 C10 1.338 . S
C11 H15 0.931 . S
C12 N9 1.313 . S
C12 N13 1.344 . S
C12 H16 0.930 . S
N13 C10 1.377 . S
N13 C12 1.344 . S
O14 Co6 2.055 . S
O14 C18 1.253 . S
H15 C11 0.931 . S
H16 C12 0.930 . S
O17 Co6 2.039 . S
O17 C7 1.265 . S
C18 O14 1.253 . S
C18 O19 1.227 . S
O19 C18 1.227 . S
N20 Co6 2.140 . S
N20 C23 1.346 . S
N20 C24 1.345 . S
C21 C22 1.387 . S
C21 C25 1.391 . S
C22 C21 1.387 . S
C22 C23 1.369 . S
C22 H31 0.929 . S
C23 N20 1.346 . S
C23 C22 1.369 . S
C23 H26 0.928 . S
C24 N20 1.345 . S
C24 C25 1.371 . S
C24 H27 0.931 . S
C25 C21 1.391 . S
C25 C24 1.371 . S
C25 H32 0.930 . S
H26 C23 0.928 . S
H27 C24 0.931 . S
H28 C4 0.930 . S
H29 C1 0.930 . S
H30 C10 0.930 . S
H31 C22 0.929 . S
H32 C25 0.930 . S
C33 C34 1.351 . S
C33 N36 1.368 . S
C33 H38 0.931 . S
C34 C33 1.351 . S
C34 N35 1.373 . S
C34 H62 0.930 . S
N35 C34 1.373 . S
N35 C37 1.340 . S
N36 C33 1.368 . S
N36 C37 1.321 . S
N36 Co39 2.135 . S
C37 N35 1.340 . S
C37 N36 1.321 . S
C37 H61 0.930 . S
H38 C33 0.931 . S
Co39 N36 2.135 . S
Co39 N42 2.121 . S
Co39 O47 2.055 . S
Co39 O50 2.039 . S
Co39 N53 2.140 . S
C40 O41 1.227 . S
C40 O50 1.265 . S
O41 C40 1.227 . S
N42 Co39 2.121 . S
N42 C44 1.375 . S
N42 C45 1.313 . S
C43 C44 1.338 . S
C43 N46 1.377 . S
C43 H63 0.930 . S
C44 N42 1.375 . S
C44 C43 1.338 . S
C44 H48 0.931 . S
C45 N42 1.313 . S
C45 N46 1.344 . S
C45 H49 0.930 . S
N46 C43 1.377 . S
N46 C45 1.344 . S
O47 Co39 2.055 . S
O47 C51 1.253 . S
H48 C44 0.931 . S
H49 C45 0.930 . S
O50 Co39 2.039 . S
O50 C40 1.265 . S
C51 O47 1.253 . S
C51 O52 1.227 . S
O52 C51 1.227 . S
N53 Co39 2.140 . S
N53 C56 1.346 . S
N53 C57 1.345 . S
C54 C55 1.387 . S
C54 C58 1.391 . S
C55 C54 1.387 . S
C55 C56 1.369 . S
C55 H64 0.929 . S
C56 N53 1.346 . S
C56 C55 1.369 . S
C56 H59 0.928 . S
C57 N53 1.345 . S
C57 C58 1.371 . S
C57 H60 0.931 . S
C58 C54 1.391 . S
C58 C57 1.371 . S
C58 H65 0.930 . S
H59 C56 0.928 . S
H60 C57 0.931 . S
H61 C37 0.930 . S
H62 C34 0.930 . S
H63 C43 0.930 . S
H64 C55 0.929 . S
H65 C58 0.930 . S
C66 C67 1.351 . S
C66 N69 1.368 . S
C66 H71 0.931 . S
C67 C66 1.351 . S
C67 N68 1.373 . S
C67 H95 0.930 . S
N68 C67 1.373 . S
N68 C70 1.340 . S
N69 C66 1.368 . S
N69 C70 1.321 . S
N69 Co72 2.135 . S
C70 N68 1.340 . S
C70 N69 1.321 . S
C70 H94 0.930 . S
H71 C66 0.931 . S
Co72 N69 2.135 . S
Co72 N75 2.121 . S
Co72 O80 2.055 . S
Co72 O83 2.039 . S
Co72 N86 2.140 . S
C73 O74 1.227 . S
C73 O83 1.265 . S
O74 C73 1.227 . S
N75 Co72 2.121 . S
N75 C77 1.375 . S
N75 C78 1.313 . S
C76 C77 1.338 . S
C76 N79 1.377 . S
C76 H96 0.930 . S
C77 N75 1.375 . S
C77 C76 1.338 . S
C77 H81 0.931 . S
C78 N75 1.313 . S
C78 N79 1.344 . S
C78 H82 0.930 . S
N79 C76 1.377 . S
N79 C78 1.344 . S
O80 Co72 2.055 . S
O80 C84 1.253 . S
H81 C77 0.931 . S
H82 C78 0.930 . S
O83 Co72 2.039 . S
O83 C73 1.265 . S
C84 O80 1.253 . S
C84 O85 1.227 . S
O85 C84 1.227 . S
N86 Co72 2.140 . S
N86 C89 1.346 . S
N86 C90 1.345 . S
C87 C88 1.387 . S
C87 C91 1.391 . S
C88 C87 1.387 . S
C88 C89 1.369 . S
C88 H97 0.929 . S
C89 N86 1.346 . S
C89 C88 1.369 . S
C89 H92 0.928 . S
C90 N86 1.345 . S
C90 C91 1.371 . S
C90 H93 0.931 . S
C91 C87 1.391 . S
C91 C90 1.371 . S
C91 H98 0.930 . S
H92 C89 0.928 . S
H93 C90 0.931 . S
H94 C70 0.930 . S
H95 C67 0.930 . S
H96 C76 0.930 . S
H97 C88 0.929 . S
H98 C91 0.930 . S
C99 C100 1.351 . S
C99 N102 1.368 . S
C99 H104 0.931 . S
C100 C99 1.351 . S
C100 N101 1.373 . S
C100 H128 0.930 . S
N101 C100 1.373 . S
N101 C103 1.340 . S
N102 C99 1.368 . S
N102 C103 1.321 . S
N102 Co105 2.135 . S
C103 N101 1.340 . S
C103 N102 1.321 . S
C103 H127 0.930 . S
H104 C99 0.931 . S
Co105 N102 2.135 . S
Co105 N108 2.121 . S
Co105 O113 2.055 . S
Co105 O116 2.039 . S
Co105 N119 2.140 . S
C106 O107 1.227 . S
C106 O116 1.265 . S
O107 C106 1.227 . S
N108 Co105 2.121 . S
N108 C110 1.375 . S
N108 C111 1.313 . S
C109 C110 1.338 . S
C109 N112 1.377 . S
C109 H129 0.930 . S
C110 N108 1.375 . S
C110 C109 1.338 . S
C110 H114 0.931 . S
C111 N108 1.313 . S
C111 N112 1.344 . S
C111 H115 0.930 . S
N112 C109 1.377 . S
N112 C111 1.344 . S
O113 Co105 2.055 . S
O113 C117 1.253 . S
H114 C110 0.931 . S
H115 C111 0.930 . S
O116 Co105 2.039 . S
O116 C106 1.265 . S
C117 O113 1.253 . S
C117 O118 1.227 . S
O118 C117 1.227 . S
N119 Co105 2.140 . S
N119 C122 1.346 . S
N119 C123 1.345 . S
C120 C121 1.387 . S
C120 C124 1.391 . S
C121 C120 1.387 . S
C121 C122 1.369 . S
C121 H130 0.929 . S
C122 N119 1.346 . S
C122 C121 1.369 . S
C122 H125 0.928 . S
C123 N119 1.345 . S
C123 C124 1.371 . S
C123 H126 0.931 . S
C124 C120 1.391 . S
C124 C123 1.371 . S
C124 H131 0.930 . S
H125 C122 0.928 . S
H126 C123 0.931 . S
H127 C103 0.930 . S
H128 C100 0.930 . S
H129 C109 0.930 . S
H130 C121 0.929 . S
H131 C124 0.930 . S
C132 C133 1.351 . S
C132 N135 1.368 . S
C132 H137 0.931 . S
C133 C132 1.351 . S
C133 N134 1.373 . S
C133 H161 0.930 . S
N134 C133 1.373 . S
N134 C136 1.340 . S
N135 C132 1.368 . S
N135 C136 1.321 . S
N135 Co138 2.135 . S
C136 N134 1.340 . S
C136 N135 1.321 . S
C136 H160 0.930 . S
H137 C132 0.931 . S
Co138 N135 2.135 . S
Co138 N141 2.121 . S
Co138 O146 2.055 . S
Co138 O149 2.039 . S
Co138 N152 2.140 . S
C139 O140 1.227 . S
C139 O149 1.265 . S
O140 C139 1.227 . S
N141 Co138 2.121 . S
N141 C143 1.375 . S
N141 C144 1.313 . S
C142 C143 1.338 . S
C142 N145 1.377 . S
C142 H162 0.930 . S
C143 N141 1.375 . S
C143 C142 1.338 . S
C143 H147 0.931 . S
C144 N141 1.313 . S
C144 N145 1.344 . S
C144 H148 0.930 . S
N145 C142 1.377 . S
N145 C144 1.344 . S
O146 Co138 2.055 . S
O146 C150 1.253 . S
H147 C143 0.931 . S
H148 C144 0.930 . S
O149 Co138 2.039 . S
O149 C139 1.265 . S
C150 O146 1.253 . S
C150 O151 1.227 . S
O151 C150 1.227 . S
N152 Co138 2.140 . S
N152 C155 1.346 . S
N152 C156 1.345 . S
C153 C154 1.387 . S
C153 C157 1.391 . S
C154 C153 1.387 . S
C154 C155 1.369 . S
C154 H163 0.929 . S
C155 N152 1.346 . S
C155 C154 1.369 . S
C155 H158 0.928 . S
C156 N152 1.345 . S
C156 C157 1.371 . S
C156 H159 0.931 . S
C157 C153 1.391 . S
C157 C156 1.371 . S
C157 H164 0.930 . S
H158 C155 0.928 . S
H159 C156 0.931 . S
H160 C136 0.930 . S
H161 C133 0.930 . S
H162 C142 0.930 . S
H163 C154 0.929 . S
H164 C157 0.930 . S
C165 C166 1.351 . S
C165 N168 1.368 . S
C165 H170 0.931 . S
C166 C165 1.351 . S
C166 N167 1.373 . S
C166 H194 0.930 . S
N167 C166 1.373 . S
N167 C169 1.340 . S
N168 C165 1.368 . S
N168 C169 1.321 . S
N168 Co171 2.135 . S
C169 N167 1.340 . S
C169 N168 1.321 . S
C169 H193 0.930 . S
H170 C165 0.931 . S
Co171 N168 2.135 . S
Co171 N174 2.121 . S
Co171 O179 2.055 . S
Co171 O182 2.039 . S
Co171 N185 2.140 . S
C172 O173 1.227 . S
C172 O182 1.265 . S
O173 C172 1.227 . S
N174 Co171 2.121 . S
N174 C176 1.375 . S
N174 C177 1.313 . S
C175 C176 1.338 . S
C175 N178 1.377 . S
C175 H195 0.930 . S
C176 N174 1.375 . S
C176 C175 1.338 . S
C176 H180 0.931 . S
C177 N174 1.313 . S
C177 N178 1.344 . S
C177 H181 0.930 . S
N178 C175 1.377 . S
N178 C177 1.344 . S
O179 Co171 2.055 . S
O179 C183 1.253 . S
H180 C176 0.931 . S
H181 C177 0.930 . S
O182 Co171 2.039 . S
O182 C172 1.265 . S
C183 O179 1.253 . S
C183 O184 1.227 . S
O184 C183 1.227 . S
N185 Co171 2.140 . S
N185 C188 1.346 . S
N185 C189 1.345 . S
C186 C187 1.387 . S
C186 C190 1.391 . S
C187 C186 1.387 . S
C187 C188 1.369 . S
C187 H196 0.929 . S
C188 N185 1.346 . S
C188 C187 1.369 . S
C188 H191 0.928 . S
C189 N185 1.345 . S
C189 C190 1.371 . S
C189 H192 0.931 . S
C190 C186 1.391 . S
C190 C189 1.371 . S
C190 H197 0.930 . S
H191 C188 0.928 . S
H192 C189 0.931 . S
H193 C169 0.930 . S
H194 C166 0.930 . S
H195 C175 0.930 . S
H196 C187 0.929 . S
H197 C190 0.930 . S
C198 C199 1.351 . S
C198 N201 1.368 . S
C198 H203 0.931 . S
C199 C198 1.351 . S
C199 N200 1.373 . S
C199 H227 0.930 . S
N200 C199 1.373 . S
N200 C202 1.340 . S
N201 C198 1.368 . S
N201 C202 1.321 . S
N201 Co204 2.135 . S
C202 N200 1.340 . S
C202 N201 1.321 . S
C202 H226 0.930 . S
H203 C198 0.931 . S
Co204 N201 2.135 . S
Co204 N207 2.121 . S
Co204 O212 2.055 . S
Co204 O215 2.039 . S
Co204 N218 2.140 . S
C205 O206 1.227 . S
C205 O215 1.265 . S
O206 C205 1.227 . S
N207 Co204 2.121 . S
N207 C209 1.375 . S
N207 C210 1.313 . S
C208 C209 1.338 . S
C208 N211 1.377 . S
C208 H228 0.930 . S
C209 N207 1.375 . S
C209 C208 1.338 . S
C209 H213 0.931 . S
C210 N207 1.313 . S
C210 N211 1.344 . S
C210 H214 0.930 . S
N211 C208 1.377 . S
N211 C210 1.344 . S
O212 Co204 2.055 . S
O212 C216 1.253 . S
H213 C209 0.931 . S
H214 C210 0.930 . S
O215 Co204 2.039 . S
O215 C205 1.265 . S
C216 O212 1.253 . S
C216 O217 1.227 . S
O217 C216 1.227 . S
N218 Co204 2.140 . S
N218 C221 1.346 . S
N218 C222 1.345 . S
C219 C220 1.387 . S
C219 C223 1.391 . S
C220 C219 1.387 . S
C220 C221 1.369 . S
C220 H229 0.929 . S
C221 N218 1.346 . S
C221 C220 1.369 . S
C221 H224 0.928 . S
C222 N218 1.345 . S
C222 C223 1.371 . S
C222 H225 0.931 . S
C223 C219 1.391 . S
C223 C222 1.371 . S
C223 H230 0.930 . S
H224 C221 0.928 . S
H225 C222 0.931 . S
H226 C202 0.930 . S
H227 C199 0.930 . S
H228 C208 0.930 . S
H229 C220 0.929 . S
H230 C223 0.930 . S
C231 C232 1.351 . S
C231 N234 1.368 . S
C231 H236 0.931 . S
C232 C231 1.351 . S
C232 N233 1.373 . S
C232 H260 0.930 . S
N233 C232 1.373 . S
N233 C235 1.340 . S
N234 C231 1.368 . S
N234 C235 1.321 . S
N234 Co237 2.135 . S
C235 N233 1.340 . S
C235 N234 1.321 . S
C235 H259 0.930 . S
H236 C231 0.931 . S
Co237 N234 2.135 . S
Co237 N240 2.121 . S
Co237 O245 2.055 . S
Co237 O248 2.039 . S
Co237 N251 2.140 . S
C238 O239 1.227 . S
C238 O248 1.265 . S
O239 C238 1.227 . S
N240 Co237 2.121 . S
N240 C242 1.375 . S
N240 C243 1.313 . S
C241 C242 1.338 . S
C241 N244 1.377 . S
C241 H261 0.930 . S
C242 N240 1.375 . S
C242 C241 1.338 . S
C242 H246 0.931 . S
C243 N240 1.313 . S
C243 N244 1.344 . S
C243 H247 0.930 . S
N244 C241 1.377 . S
N244 C243 1.344 . S
O245 Co237 2.055 . S
O245 C249 1.253 . S
H246 C242 0.931 . S
H247 C243 0.930 . S
O248 Co237 2.039 . S
O248 C238 1.265 . S
C249 O245 1.253 . S
C249 O250 1.227 . S
O250 C249 1.227 . S
N251 Co237 2.140 . S
N251 C254 1.346 . S
N251 C255 1.345 . S
C252 C253 1.387 . S
C252 C256 1.391 . S
C253 C252 1.387 . S
C253 C254 1.369 . S
C253 H262 0.929 . S
C254 N251 1.346 . S
C254 C253 1.369 . S
C254 H257 0.928 . S
C255 N251 1.345 . S
C255 C256 1.371 . S
C255 H258 0.931 . S
C256 C252 1.391 . S
C256 C255 1.371 . S
C256 H263 0.930 . S
H257 C254 0.928 . S
H258 C255 0.931 . S
H259 C235 0.930 . S
H260 C232 0.930 . S
H261 C241 0.930 . S
H262 C253 0.929 . S
H263 C256 0.930 . S
C264 C265 1.351 . S
C264 N267 1.368 . S
C264 H269 0.931 . S
C265 C264 1.351 . S
C265 N266 1.373 . S
C265 H293 0.930 . S
N266 C265 1.373 . S
N266 C268 1.340 . S
N267 C264 1.368 . S
N267 C268 1.321 . S
N267 Co270 2.135 . S
C268 N266 1.340 . S
C268 N267 1.321 . S
C268 H292 0.930 . S
H269 C264 0.931 . S
Co270 N267 2.135 . S
Co270 N273 2.121 . S
Co270 O278 2.055 . S
Co270 O281 2.039 . S
Co270 N284 2.140 . S
C271 O272 1.227 . S
C271 O281 1.265 . S
O272 C271 1.227 . S
N273 Co270 2.121 . S
N273 C275 1.375 . S
N273 C276 1.313 . S
C274 C275 1.338 . S
C274 N277 1.377 . S
C274 H294 0.930 . S
C275 N273 1.375 . S
C275 C274 1.338 . S
C275 H279 0.931 . S
C276 N273 1.313 . S
C276 N277 1.344 . S
C276 H280 0.930 . S
N277 C274 1.377 . S
N277 C276 1.344 . S
O278 Co270 2.055 . S
O278 C282 1.253 . S
H279 C275 0.931 . S
H280 C276 0.930 . S
O281 Co270 2.039 . S
O281 C271 1.265 . S
C282 O278 1.253 . S
C282 O283 1.227 . S
O283 C282 1.227 . S
N284 Co270 2.140 . S
N284 C287 1.346 . S
N284 C288 1.345 . S
C285 C286 1.387 . S
C285 C289 1.391 . S
C286 C285 1.387 . S
C286 C287 1.369 . S
C286 H295 0.929 . S
C287 N284 1.346 . S
C287 C286 1.369 . S
C287 H290 0.928 . S
C288 N284 1.345 . S
C288 C289 1.371 . S
C288 H291 0.931 . S
C289 C285 1.391 . S
C289 C288 1.371 . S
C289 H296 0.930 . S
H290 C287 0.928 . S
H291 C288 0.931 . S
H292 C268 0.930 . S
H293 C265 0.930 . S
H294 C274 0.930 . S
H295 C286 0.929 . S
H296 C289 0.930 . S
C297 C298 1.351 . S
C297 N300 1.368 . S
C297 H302 0.931 . S
C298 C297 1.351 . S
C298 N299 1.373 . S
C298 H326 0.930 . S
N299 C298 1.373 . S
N299 C301 1.340 . S
N300 C297 1.368 . S
N300 C301 1.321 . S
N300 Co303 2.135 . S
C301 N299 1.340 . S
C301 N300 1.321 . S
C301 H325 0.930 . S
H302 C297 0.931 . S
Co303 N300 2.135 . S
Co303 N306 2.121 . S
Co303 O311 2.055 . S
Co303 O314 2.039 . S
Co303 N317 2.140 . S
C304 O305 1.227 . S
C304 O314 1.265 . S
O305 C304 1.227 . S
N306 Co303 2.121 . S
N306 C308 1.375 . S
N306 C309 1.313 . S
C307 C308 1.338 . S
C307 N310 1.377 . S
C307 H327 0.930 . S
C308 N306 1.375 . S
C308 C307 1.338 . S
C308 H312 0.931 . S
C309 N306 1.313 . S
C309 N310 1.344 . S
C309 H313 0.930 . S
N310 C307 1.377 . S
N310 C309 1.344 . S
O311 Co303 2.055 . S
O311 C315 1.253 . S
H312 C308 0.931 . S
H313 C309 0.930 . S
O314 Co303 2.039 . S
O314 C304 1.265 . S
C315 O311 1.253 . S
C315 O316 1.227 . S
O316 C315 1.227 . S
N317 Co303 2.140 . S
N317 C320 1.346 . S
N317 C321 1.345 . S
C318 C319 1.387 . S
C318 C322 1.391 . S
C319 C318 1.387 . S
C319 C320 1.369 . S
C319 H328 0.929 . S
C320 N317 1.346 . S
C320 C319 1.369 . S
C320 H323 0.928 . S
C321 N317 1.345 . S
C321 C322 1.371 . S
C321 H324 0.931 . S
C322 C318 1.391 . S
C322 C321 1.371 . S
C322 H329 0.930 . S
H323 C320 0.928 . S
H324 C321 0.931 . S
H325 C301 0.930 . S
H326 C298 0.930 . S
H327 C307 0.930 . S
H328 C319 0.929 . S
H329 C322 0.930 . S
C330 C331 1.351 . S
C330 N333 1.368 . S
C330 H335 0.931 . S
C331 C330 1.351 . S
C331 N332 1.373 . S
C331 H359 0.930 . S
N332 C331 1.373 . S
N332 C334 1.340 . S
N333 C330 1.368 . S
N333 C334 1.321 . S
N333 Co336 2.135 . S
C334 N332 1.340 . S
C334 N333 1.321 . S
C334 H358 0.930 . S
H335 C330 0.931 . S
Co336 N333 2.135 . S
Co336 N339 2.121 . S
Co336 O344 2.055 . S
Co336 O347 2.039 . S
Co336 N350 2.140 . S
C337 O338 1.227 . S
C337 O347 1.265 . S
O338 C337 1.227 . S
N339 Co336 2.121 . S
N339 C341 1.375 . S
N339 C342 1.313 . S
C340 C341 1.338 . S
C340 N343 1.377 . S
C340 H360 0.930 . S
C341 N339 1.375 . S
C341 C340 1.338 . S
C341 H345 0.931 . S
C342 N339 1.313 . S
C342 N343 1.344 . S
C342 H346 0.930 . S
N343 C340 1.377 . S
N343 C342 1.344 . S
O344 Co336 2.055 . S
O344 C348 1.253 . S
H345 C341 0.931 . S
H346 C342 0.930 . S
O347 Co336 2.039 . S
O347 C337 1.265 . S
C348 O344 1.253 . S
C348 O349 1.227 . S
O349 C348 1.227 . S
N350 Co336 2.140 . S
N350 C353 1.346 . S
N350 C354 1.345 . S
C351 C352 1.387 . S
C351 C355 1.391 . S
C352 C351 1.387 . S
C352 C353 1.369 . S
C352 H361 0.929 . S
C353 N350 1.346 . S
C353 C352 1.369 . S
C353 H356 0.928 . S
C354 N350 1.345 . S
C354 C355 1.371 . S
C354 H357 0.931 . S
C355 C351 1.391 . S
C355 C354 1.371 . S
C355 H362 0.930 . S
H356 C353 0.928 . S
H357 C354 0.931 . S
H358 C334 0.930 . S
H359 C331 0.930 . S
H360 C340 0.930 . S
H361 C352 0.929 . S
H362 C355 0.930 . S
C363 C364 1.351 . S
C363 N366 1.368 . S
C363 H368 0.931 . S
C364 C363 1.351 . S
C364 N365 1.373 . S
C364 H392 0.930 . S
N365 C364 1.373 . S
N365 C367 1.340 . S
N366 C363 1.368 . S
N366 C367 1.321 . S
N366 Co369 2.135 . S
C367 N365 1.340 . S
C367 N366 1.321 . S
C367 H391 0.930 . S
H368 C363 0.931 . S
Co369 N366 2.135 . S
Co369 N372 2.121 . S
Co369 O377 2.055 . S
Co369 O380 2.039 . S
Co369 N383 2.140 . S
C370 O371 1.227 . S
C370 O380 1.265 . S
O371 C370 1.227 . S
N372 Co369 2.121 . S
N372 C374 1.375 . S
N372 C375 1.313 . S
C373 C374 1.338 . S
C373 N376 1.377 . S
C373 H393 0.930 . S
C374 N372 1.375 . S
C374 C373 1.338 . S
C374 H378 0.931 . S
C375 N372 1.313 . S
C375 N376 1.344 . S
C375 H379 0.930 . S
N376 C373 1.377 . S
N376 C375 1.344 . S
O377 Co369 2.055 . S
O377 C381 1.253 . S
H378 C374 0.931 . S
H379 C375 0.930 . S
O380 Co369 2.039 . S
O380 C370 1.265 . S
C381 O377 1.253 . S
C381 O382 1.227 . S
O382 C381 1.227 . S
N383 Co369 2.140 . S
N383 C386 1.346 . S
N383 C387 1.345 . S
C384 C385 1.387 . S
C384 C388 1.391 . S
C385 C384 1.387 . S
C385 C386 1.369 . S
C385 H394 0.929 . S
C386 N383 1.346 . S
C386 C385 1.369 . S
C386 H389 0.928 . S
C387 N383 1.345 . S
C387 C388 1.371 . S
C387 H390 0.931 . S
C388 C384 1.391 . S
C388 C387 1.371 . S
C388 H395 0.930 . S
H389 C386 0.928 . S
H390 C387 0.931 . S
H391 C367 0.930 . S
H392 C364 0.930 . S
H393 C373 0.930 . S
H394 C385 0.929 . S
H395 C388 0.930 . S
C396 C397 1.351 . S
C396 N399 1.368 . S
C396 H401 0.931 . S
C397 C396 1.351 . S
C397 N398 1.373 . S
C397 H425 0.930 . S
N398 C397 1.373 . S
N398 C400 1.340 . S
N399 C396 1.368 . S
N399 C400 1.321 . S
N399 Co402 2.135 . S
C400 N398 1.340 . S
C400 N399 1.321 . S
C400 H424 0.930 . S
H401 C396 0.931 . S
Co402 N399 2.135 . S
Co402 N405 2.121 . S
Co402 O410 2.055 . S
Co402 O413 2.039 . S
Co402 N416 2.140 . S
C403 O404 1.227 . S
C403 O413 1.265 . S
O404 C403 1.227 . S
N405 Co402 2.121 . S
N405 C407 1.375 . S
N405 C408 1.313 . S
C406 C407 1.338 . S
C406 N409 1.377 . S
C406 H426 0.930 . S
C407 N405 1.375 . S
C407 C406 1.338 . S
C407 H411 0.931 . S
C408 N405 1.313 . S
C408 N409 1.344 . S
C408 H412 0.930 . S
N409 C406 1.377 . S
N409 C408 1.344 . S
O410 Co402 2.055 . S
O410 C414 1.253 . S
H411 C407 0.931 . S
H412 C408 0.930 . S
O413 Co402 2.039 . S
O413 C403 1.265 . S
C414 O410 1.253 . S
C414 O415 1.227 . S
O415 C414 1.227 . S
N416 Co402 2.140 . S
N416 C419 1.346 . S
N416 C420 1.345 . S
C417 C418 1.387 . S
C417 C421 1.391 . S
C418 C417 1.387 . S
C418 C419 1.369 . S
C418 H427 0.929 . S
C419 N416 1.346 . S
C419 C418 1.369 . S
C419 H422 0.928 . S
C420 N416 1.345 . S
C420 C421 1.371 . S
C420 H423 0.931 . S
C421 C417 1.391 . S
C421 C420 1.371 . S
C421 H428 0.930 . S
H422 C419 0.928 . S
H423 C420 0.931 . S
H424 C400 0.930 . S
H425 C397 0.930 . S
H426 C406 0.930 . S
H427 C418 0.929 . S
H428 C421 0.930 . S
C429 C430 1.351 . S
C429 N432 1.368 . S
C429 H434 0.931 . S
C430 C429 1.351 . S
C430 N431 1.373 . S
C430 H458 0.930 . S
N431 C430 1.373 . S
N431 C433 1.340 . S
N432 C429 1.368 . S
N432 C433 1.321 . S
N432 Co435 2.135 . S
C433 N431 1.340 . S
C433 N432 1.321 . S
C433 H457 0.930 . S
H434 C429 0.931 . S
Co435 N432 2.135 . S
Co435 N438 2.121 . S
Co435 O443 2.055 . S
Co435 O446 2.039 . S
Co435 N449 2.140 . S
C436 O437 1.227 . S
C436 O446 1.265 . S
O437 C436 1.227 . S
N438 Co435 2.121 . S
N438 C440 1.375 . S
N438 C441 1.313 . S
C439 C440 1.338 . S
C439 N442 1.377 . S
C439 H459 0.930 . S
C440 N438 1.375 . S
C440 C439 1.338 . S
C440 H444 0.931 . S
C441 N438 1.313 . S
C441 N442 1.344 . S
C441 H445 0.930 . S
N442 C439 1.377 . S
N442 C441 1.344 . S
O443 Co435 2.055 . S
O443 C447 1.253 . S
H444 C440 0.931 . S
H445 C441 0.930 . S
O446 Co435 2.039 . S
O446 C436 1.265 . S
C447 O443 1.253 . S
C447 O448 1.227 . S
O448 C447 1.227 . S
N449 Co435 2.140 . S
N449 C452 1.346 . S
N449 C453 1.345 . S
C450 C451 1.387 . S
C450 C454 1.391 . S
C451 C450 1.387 . S
C451 C452 1.369 . S
C451 H460 0.929 . S
C452 N449 1.346 . S
C452 C451 1.369 . S
C452 H455 0.928 . S
C453 N449 1.345 . S
C453 C454 1.371 . S
C453 H456 0.931 . S
C454 C450 1.391 . S
C454 C453 1.371 . S
C454 H461 0.930 . S
H455 C452 0.928 . S
H456 C453 0.931 . S
H457 C433 0.930 . S
H458 C430 0.930 . S
H459 C439 0.930 . S
H460 C451 0.929 . S
H461 C454 0.930 . S
C462 C463 1.351 . S
C462 N465 1.368 . S
C462 H467 0.931 . S
C463 C462 1.351 . S
C463 N464 1.373 . S
C463 H491 0.930 . S
N464 C463 1.373 . S
N464 C466 1.340 . S
N465 C462 1.368 . S
N465 C466 1.321 . S
N465 Co468 2.135 . S
C466 N464 1.340 . S
C466 N465 1.321 . S
C466 H490 0.930 . S
H467 C462 0.931 . S
Co468 N465 2.135 . S
Co468 N471 2.121 . S
Co468 O476 2.055 . S
Co468 O479 2.039 . S
Co468 N482 2.140 . S
C469 O470 1.227 . S
C469 O479 1.265 . S
O470 C469 1.227 . S
N471 Co468 2.121 . S
N471 C473 1.375 . S
N471 C474 1.313 . S
C472 C473 1.338 . S
C472 N475 1.377 . S
C472 H492 0.930 . S
C473 N471 1.375 . S
C473 C472 1.338 . S
C473 H477 0.931 . S
C474 N471 1.313 . S
C474 N475 1.344 . S
C474 H478 0.930 . S
N475 C472 1.377 . S
N475 C474 1.344 . S
O476 Co468 2.055 . S
O476 C480 1.253 . S
H477 C473 0.931 . S
H478 C474 0.930 . S
O479 Co468 2.039 . S
O479 C469 1.265 . S
C480 O476 1.253 . S
C480 O481 1.227 . S
O481 C480 1.227 . S
N482 Co468 2.140 . S
N482 C485 1.346 . S
N482 C486 1.345 . S
C483 C484 1.387 . S
C483 C487 1.391 . S
C484 C483 1.387 . S
C484 C485 1.369 . S
C484 H493 0.929 . S
C485 N482 1.346 . S
C485 C484 1.369 . S
C485 H488 0.928 . S
C486 N482 1.345 . S
C486 C487 1.371 . S
C486 H489 0.931 . S
C487 C483 1.391 . S
C487 C486 1.371 . S
C487 H494 0.930 . S
H488 C485 0.928 . S
H489 C486 0.931 . S
H490 C466 0.930 . S
H491 C463 0.930 . S
H492 C472 0.930 . S
H493 C484 0.929 . S
H494 C487 0.930 . S
C495 C496 1.351 . S
C495 N498 1.368 . S
C495 H500 0.931 . S
C496 C495 1.351 . S
C496 N497 1.373 . S
C496 H524 0.930 . S
N497 C496 1.373 . S
N497 C499 1.340 . S
N498 C495 1.368 . S
N498 C499 1.321 . S
N498 Co501 2.135 . S
C499 N497 1.340 . S
C499 N498 1.321 . S
C499 H523 0.930 . S
H500 C495 0.931 . S
Co501 N498 2.135 . S
Co501 N504 2.121 . S
Co501 O509 2.055 . S
Co501 O512 2.039 . S
Co501 N515 2.140 . S
C502 O503 1.227 . S
C502 O512 1.265 . S
O503 C502 1.227 . S
N504 Co501 2.121 . S
N504 C506 1.375 . S
N504 C507 1.313 . S
C505 C506 1.338 . S
C505 N508 1.377 . S
C505 H525 0.930 . S
C506 N504 1.375 . S
C506 C505 1.338 . S
C506 H510 0.931 . S
C507 N504 1.313 . S
C507 N508 1.344 . S
C507 H511 0.930 . S
N508 C505 1.377 . S
N508 C507 1.344 . S
O509 Co501 2.055 . S
O509 C513 1.253 . S
H510 C506 0.931 . S
H511 C507 0.930 . S
O512 Co501 2.039 . S
O512 C502 1.265 . S
C513 O509 1.253 . S
C513 O514 1.227 . S
O514 C513 1.227 . S
N515 Co501 2.140 . S
N515 C518 1.346 . S
N515 C519 1.345 . S
C516 C517 1.387 . S
C516 C520 1.391 . S
C517 C516 1.387 . S
C517 C518 1.369 . S
C517 H526 0.929 . S
C518 N515 1.346 . S
C518 C517 1.369 . S
C518 H521 0.928 . S
C519 N515 1.345 . S
C519 C520 1.371 . S
C519 H522 0.931 . S
C520 C516 1.391 . S
C520 C519 1.371 . S
C520 H527 0.930 . S
H521 C518 0.928 . S
H522 C519 0.931 . S
H523 C499 0.930 . S
H524 C496 0.930 . S
H525 C505 0.930 . S
H526 C517 0.929 . S
H527 C520 0.930 . S
C528 C529 1.349 . S
C528 C530 1.327 . S
C528 H553 0.950 . S
C529 C528 1.349 . S
C529 C545 1.349 . S
C530 C528 1.327 . S
C530 C549 1.429 . S
C530 H554 0.950 . S
C531 C548 1.574 1_655 S
C531 C550 1.368 . S
C531 H555 0.949 . S
H532 C536 0.949 . S
C533 C534 1.349 . S
C533 C535 1.327 . S
C533 H556 0.950 . S
C534 C533 1.349 . S
C534 C546 1.349 . S
C535 C533 1.327 . S
C535 C551 1.429 . S
C535 H557 0.950 . S
C536 H532 0.949 . S
C536 C544 1.574 1_455 S
C536 C552 1.368 . S
H537 C545 0.950 . S
H538 C543 0.950 . S
H539 C544 0.949 . S
H540 C546 0.950 . S
H541 C547 0.950 . S
H542 C548 0.949 . S
C543 H538 0.950 . S
C543 C545 1.327 . S
C543 C549 1.429 . S
C544 C536 1.574 1_655 S
C544 H539 0.949 . S
C544 C550 1.368 . S
C545 C529 1.349 . S
C545 H537 0.950 . S
C545 C543 1.327 . S
C546 C534 1.349 . S
C546 H540 0.950 . S
C546 C547 1.327 . S
C547 H541 0.950 . S
C547 C546 1.327 . S
C547 C551 1.429 . S
C548 C531 1.574 1_455 S
C548 H542 0.949 . S
C548 C552 1.368 . S
C549 C530 1.429 . S
C549 C543 1.429 . S
C549 C550 1.523 . S
C550 C531 1.368 . S
C550 C544 1.368 . S
C550 C549 1.523 . S
C551 C535 1.429 . S
C551 C547 1.429 . S
C551 C552 1.523 . S
C552 C536 1.368 . S
C552 C548 1.368 . S
C552 C551 1.523 . S
H553 C528 0.950 . S
H554 C530 0.950 . S
H555 C531 0.949 . S
H556 C533 0.950 . S
H557 C535 0.950 . S
C558 C559 1.349 . S
C558 C560 1.327 . S
C558 H583 0.950 . S
C559 C558 1.349 . S
C559 C575 1.349 . S
C560 C558 1.327 . S
C560 C579 1.429 . S
C560 H584 0.950 . S
C561 C578 1.574 1_545 S
C561 C580 1.368 . S
C561 H585 0.949 . S
H562 C566 0.949 . S
C563 C564 1.349 . S
C563 C565 1.327 . S
C563 H586 0.950 . S
C564 C563 1.349 . S
C564 C576 1.349 . S
C565 C563 1.327 . S
C565 C581 1.429 . S
C565 H587 0.950 . S
C566 H562 0.949 . S
C566 C574 1.574 1_565 S
C566 C582 1.368 . S
H567 C575 0.950 . S
H568 C573 0.950 . S
H569 C574 0.949 . S
H570 C576 0.950 . S
H571 C577 0.950 . S
H572 C578 0.949 . S
C573 H568 0.950 . S
C573 C575 1.327 . S
C573 C579 1.429 . S
C574 C566 1.574 1_545 S
C574 H569 0.949 . S
C574 C580 1.368 . S
C575 C559 1.349 . S
C575 H567 0.950 . S
C575 C573 1.327 . S
C576 C564 1.349 . S
C576 H570 0.950 . S
C576 C577 1.327 . S
C577 H571 0.950 . S
C577 C576 1.327 . S
C577 C581 1.429 . S
C578 C561 1.574 1_565 S
C578 H572 0.949 . S
C578 C582 1.368 . S
C579 C560 1.429 . S
C579 C573 1.429 . S
C579 C580 1.523 . S
C580 C561 1.368 . S
C580 C574 1.368 . S
C580 C579 1.523 . S
C581 C565 1.429 . S
C581 C577 1.429 . S
C581 C582 1.523 . S
C582 C566 1.368 . S
C582 C578 1.368 . S
C582 C581 1.523 . S
H583 C558 0.950 . S
H584 C560 0.950 . S
H585 C561 0.949 . S
H586 C563 0.950 . S
H587 C565 0.950 . S
C588 C589 1.349 . S
C588 C590 1.327 . S
C588 H613 0.950 . S
C589 C588 1.349 . S
C589 C605 1.349 . S
C590 C588 1.327 . S
C590 C609 1.429 . S
C590 H614 0.950 . S
C591 C608 1.574 1_655 S
C591 C610 1.368 . S
C591 H615 0.949 . S
H592 C596 0.949 . S
C593 C594 1.349 . S
C593 C595 1.327 . S
C593 H616 0.950 . S
C594 C593 1.349 . S
C594 C606 1.349 . S
C595 C593 1.327 . S
C595 C611 1.429 . S
C595 H617 0.950 . S
C596 H592 0.949 . S
C596 C604 1.574 . S
C596 C612 1.368 . S
H597 C605 0.950 . S
H598 C603 0.950 . S
H599 C604 0.949 1_655 S
H600 C606 0.950 . S
H601 C607 0.950 . S
H602 C608 0.949 . S
C603 H598 0.950 . S
C603 C605 1.327 . S
C603 C609 1.429 . S
C604 C596 1.574 . S
C604 H599 0.949 1_455 S
C604 C610 1.368 1_455 S
C605 C589 1.349 . S
C605 H597 0.950 . S
C605 C603 1.327 . S
C606 C594 1.349 . S
C606 H600 0.950 . S
C606 C607 1.327 . S
C607 H601 0.950 . S
C607 C606 1.327 . S
C607 C611 1.429 . S
C608 C591 1.574 1_455 S
C608 H602 0.949 . S
C608 C612 1.368 . S
C609 C590 1.429 . S
C609 C603 1.429 . S
C609 C610 1.523 . S
C610 C591 1.368 . S
C610 C604 1.368 1_655 S
C610 C609 1.523 . S
C611 C595 1.429 . S
C611 C607 1.429 . S
C611 C612 1.523 . S
C612 C596 1.368 . S
C612 C608 1.368 . S
C612 C611 1.523 . S
H613 C588 0.950 . S
H614 C590 0.950 . S
H615 C591 0.949 . S
H616 C593 0.950 . S
H617 C595 0.950 . S
C618 C619 1.349 . S
C618 C620 1.327 . S
C618 H643 0.950 . S
C619 C618 1.349 . S
C619 C635 1.349 . S
C620 C618 1.327 . S
C620 C639 1.429 . S
C620 H644 0.950 . S
C621 C638 1.574 1_565 S
C621 C640 1.368 . S
C621 H645 0.949 . S
H622 C626 0.949 . S
C623 C624 1.349 . S
C623 C625 1.327 . S
C623 H646 0.950 . S
C624 C623 1.349 . S
C624 C636 1.349 . S
C625 C623 1.327 . S
C625 C641 1.429 . S
C625 H647 0.950 . S
C626 H622 0.949 . S
C626 C634 1.574 1_545 S
C626 C642 1.368 . S
H627 C635 0.950 . S
H628 C633 0.950 . S
H629 C634 0.949 . S
H630 C636 0.950 . S
H631 C637 0.950 . S
H632 C638 0.949 . S
C633 H628 0.950 . S
C633 C635 1.327 . S
C633 C639 1.429 . S
C634 C626 1.574 1_565 S
C634 H629 0.949 . S
C634 C640 1.368 . S
C635 C619 1.349 . S
C635 H627 0.950 . S
C635 C633 1.327 . S
C636 C624 1.349 . S
C636 H630 0.950 . S
C636 C637 1.327 . S
C637 H631 0.950 . S
C637 C636 1.327 . S
C637 C641 1.429 . S
C638 C621 1.574 1_545 S
C638 H632 0.949 . S
C638 C642 1.368 . S
C639 C620 1.429 . S
C639 C633 1.429 . S
C639 C640 1.523 . S
C640 C621 1.368 . S
C640 C634 1.368 . S
C640 C639 1.523 . S
C641 C625 1.429 . S
C641 C637 1.429 . S
C641 C642 1.523 . S
C642 C626 1.368 . S
C642 C638 1.368 . S
C642 C641 1.523 . S
H643 C618 0.950 . S
H644 C620 0.950 . S
H645 C621 0.949 . S
H646 C623 0.950 . S
H647 C625 0.950 . S
C648 C649 1.349 . S
C648 C650 1.327 . S
C648 H673 0.950 . S
C649 C648 1.349 . S
C649 C665 1.349 . S
C650 C648 1.327 . S
C650 C669 1.429 . S
C650 H674 0.950 . S
C651 C668 1.574 1_655 S
C651 C670 1.368 . S
C651 H675 0.949 . S
H652 C656 0.949 . S
C653 C654 1.349 . S
C653 C655 1.327 . S
C653 H676 0.950 . S
C654 C653 1.349 . S
C654 C666 1.349 . S
C655 C653 1.327 . S
C655 C671 1.429 . S
C655 H677 0.950 . S
C656 H652 0.949 . S
C656 C664 1.574 1_455 S
C656 C672 1.368 . S
H657 C665 0.950 . S
H658 C663 0.950 . S
H659 C664 0.949 . S
H660 C666 0.950 . S
H661 C667 0.950 . S
H662 C668 0.949 . S
C663 H658 0.950 . S
C663 C665 1.327 . S
C663 C669 1.429 . S
C664 C656 1.574 1_655 S
C664 H659 0.949 . S
C664 C670 1.368 . S
C665 C649 1.349 . S
C665 H657 0.950 . S
C665 C663 1.327 . S
C666 C654 1.349 . S
C666 H660 0.950 . S
C666 C667 1.327 . S
C667 H661 0.950 . S
C667 C666 1.327 . S
C667 C671 1.429 . S
C668 C651 1.574 1_455 S
C668 H662 0.949 . S
C668 C672 1.368 . S
C669 C650 1.429 . S
C669 C663 1.429 . S
C669 C670 1.523 . S
C670 C651 1.368 . S
C670 C664 1.368 . S
C670 C669 1.523 . S
C671 C655 1.429 . S
C671 C667 1.429 . S
C671 C672 1.523 . S
C672 C656 1.368 . S
C672 C668 1.368 . S
C672 C671 1.523 . S
H673 C648 0.950 . S
H674 C650 0.950 . S
H675 C651 0.949 . S
H676 C653 0.950 . S
H677 C655 0.950 . S
C678 C679 1.349 . S
C678 C680 1.327 . S
C678 H703 0.950 . S
C679 C678 1.349 . S
C679 C695 1.349 . S
C680 C678 1.327 . S
C680 C699 1.429 . S
C680 H704 0.950 . S
C681 C698 1.574 1_565 S
C681 C700 1.368 . S
C681 H705 0.949 . S
H682 C686 0.949 . S
C683 C684 1.349 . S
C683 C685 1.327 . S
C683 H706 0.950 . S
C684 C683 1.349 . S
C684 C696 1.349 . S
C685 C683 1.327 . S
C685 C701 1.429 . S
C685 H707 0.950 . S
C686 H682 0.949 . S
C686 C694 1.574 1_545 S
C686 C702 1.368 . S
H687 C695 0.950 . S
H688 C693 0.950 . S
H689 C694 0.949 . S
H690 C696 0.950 . S
H691 C697 0.950 . S
H692 C698 0.949 . S
C693 H688 0.950 . S
C693 C695 1.327 . S
C693 C699 1.429 . S
C694 C686 1.574 1_565 S
C694 H689 0.949 . S
C694 C700 1.368 . S
C695 C679 1.349 . S
C695 H687 0.950 . S
C695 C693 1.327 . S
C696 C684 1.349 . S
C696 H690 0.950 . S
C696 C697 1.327 . S
C697 H691 0.950 . S
C697 C696 1.327 . S
C697 C701 1.429 . S
C698 C681 1.574 1_545 S
C698 H692 0.949 . S
C698 C702 1.368 . S
C699 C680 1.429 . S
C699 C693 1.429 . S
C699 C700 1.523 . S
C700 C681 1.368 . S
C700 C694 1.368 . S
C700 C699 1.523 . S
C701 C685 1.429 . S
C701 C697 1.429 . S
C701 C702 1.523 . S
C702 C686 1.368 . S
C702 C698 1.368 . S
C702 C701 1.523 . S
H703 C678 0.950 . S
H704 C680 0.950 . S
H705 C681 0.949 . S
H706 C683 0.950 . S
H707 C685 0.950 . S
C708 C709 1.349 . S
C708 C710 1.327 . S
C708 H733 0.950 . S
C709 C708 1.349 . S
C709 C725 1.349 . S
C710 C708 1.327 . S
C710 C729 1.429 . S
C710 H734 0.950 . S
C711 C728 1.574 1_655 S
C711 C730 1.368 . S
C711 H735 0.949 . S
H712 C716 0.949 . S
C713 C714 1.349 . S
C713 C715 1.327 . S
C713 H736 0.950 . S
C714 C713 1.349 . S
C714 C726 1.349 . S
C715 C713 1.327 . S
C715 C731 1.429 . S
C715 H737 0.950 . S
C716 H712 0.949 . S
C716 C724 1.574 1_455 S
C716 C732 1.368 . S
H717 C725 0.950 . S
H718 C723 0.950 . S
H719 C724 0.949 . S
H720 C726 0.950 . S
H721 C727 0.950 . S
H722 C728 0.949 . S
C723 H718 0.950 . S
C723 C725 1.327 . S
C723 C729 1.429 . S
C724 C716 1.574 1_655 S
C724 H719 0.949 . S
C724 C730 1.368 . S
C725 C709 1.349 . S
C725 H717 0.950 . S
C725 C723 1.327 . S
C726 C714 1.349 . S
C726 H720 0.950 . S
C726 C727 1.327 . S
C727 H721 0.950 . S
C727 C726 1.327 . S
C727 C731 1.429 . S
C728 C711 1.574 1_455 S
C728 H722 0.949 . S
C728 C732 1.368 . S
C729 C710 1.429 . S
C729 C723 1.429 . S
C729 C730 1.523 . S
C730 C711 1.368 . S
C730 C724 1.368 . S
C730 C729 1.523 . S
C731 C715 1.429 . S
C731 C727 1.429 . S
C731 C732 1.523 . S
C732 C716 1.368 . S
C732 C728 1.368 . S
C732 C731 1.523 . S
H733 C708 0.950 . S
H734 C710 0.950 . S
H735 C711 0.949 . S
H736 C713 0.950 . S
H737 C715 0.950 . S
C738 C739 1.349 . S
C738 C740 1.327 . S
C738 H763 0.950 . S
C739 C738 1.349 . S
C739 C755 1.349 . S
C740 C738 1.327 . S
C740 C759 1.429 . S
C740 H764 0.950 . S
C741 C758 1.574 1_545 S
C741 C760 1.368 . S
C741 H765 0.949 . S
H742 C746 0.949 . S
C743 C744 1.349 . S
C743 C745 1.327 . S
C743 H766 0.950 . S
C744 C743 1.349 . S
C744 C756 1.349 . S
C745 C743 1.327 . S
C745 C761 1.429 . S
C745 H767 0.950 . S
C746 H742 0.949 . S
C746 C754 1.574 1_565 S
C746 C762 1.368 . S
H747 C755 0.950 . S
H748 C753 0.950 . S
H749 C754 0.949 . S
H750 C756 0.950 . S
H751 C757 0.950 . S
H752 C758 0.949 . S
C753 H748 0.950 . S
C753 C755 1.327 . S
C753 C759 1.429 . S
C754 C746 1.574 1_545 S
C754 H749 0.949 . S
C754 C760 1.368 . S
C755 C739 1.349 . S
C755 H747 0.950 . S
C755 C753 1.327 . S
C756 C744 1.349 . S
C756 H750 0.950 . S
C756 C757 1.327 . S
C757 H751 0.950 . S
C757 C756 1.327 . S
C757 C761 1.429 . S
C758 C741 1.574 1_565 S
C758 H752 0.949 . S
C758 C762 1.368 . S
C759 C740 1.429 . S
C759 C753 1.429 . S
C759 C760 1.523 . S
C760 C741 1.368 . S
C760 C754 1.368 . S
C760 C759 1.523 . S
C761 C745 1.429 . S
C761 C757 1.429 . S
C761 C762 1.523 . S
C762 C746 1.368 . S
C762 C758 1.368 . S
C762 C761 1.523 . S
H763 C738 0.950 . S
H764 C740 0.950 . S
H765 C741 0.949 . S
H766 C743 0.950 . S
H767 C745 0.950 . S
C768 C769 1.349 . S
C768 C770 1.327 . S
C768 H793 0.950 . S
C769 C768 1.349 . S
C769 C785 1.349 . S
C770 C768 1.327 . S
C770 C789 1.429 . S
C770 H794 0.950 . S
C771 C788 1.574 . S
C771 C790 1.368 . S
C771 H795 0.949 . S
H772 C776 0.949 . S
C773 C774 1.349 . S
C773 C775 1.327 . S
C773 H796 0.950 . S
C774 C773 1.349 . S
C774 C786 1.349 . S
C775 C773 1.327 . S
C775 C791 1.429 . S
C775 H797 0.950 . S
C776 H772 0.949 . S
C776 C784 1.574 . S
C776 C792 1.368 . S
H777 C785 0.950 . S
H778 C783 0.950 . S
H779 C784 0.949 . S
H780 C786 0.950 . S
H781 C787 0.950 . S
H782 C788 0.949 . S
C783 H778 0.950 . S
C783 C785 1.327 . S
C783 C789 1.429 . S
C784 C776 1.574 . S
C784 H779 0.949 . S
C784 C790 1.368 . S
C785 C769 1.349 . S
C785 H777 0.950 . S
C785 C783 1.327 . S
C786 C774 1.349 . S
C786 H780 0.950 . S
C786 C787 1.327 . S
C787 H781 0.950 . S
C787 C786 1.327 . S
C787 C791 1.429 . S
C788 C771 1.574 . S
C788 H782 0.949 . S
C788 C792 1.368 . S
C789 C770 1.429 . S
C789 C783 1.429 . S
C789 C790 1.523 . S
C790 C771 1.368 . S
C790 C784 1.368 . S
C790 C789 1.523 . S
C791 C775 1.429 . S
C791 C787 1.429 . S
C791 C792 1.523 . S
C792 C776 1.368 . S
C792 C788 1.368 . S
C792 C791 1.523 . S
H793 C768 0.950 . S
H794 C770 0.950 . S
H795 C771 0.949 . S
H796 C773 0.950 . S
H797 C775 0.950 . S
C798 C799 1.349 . S
C798 C800 1.327 . S
C798 H823 0.950 . S
C799 C798 1.349 . S
C799 C815 1.349 . S
C800 C798 1.327 . S
C800 C819 1.429 . S
C800 H824 0.950 . S
C801 C818 1.574 . S
C801 C820 1.368 . S
C801 H825 0.949 . S
H802 C806 0.949 . S
C803 C804 1.349 . S
C803 C805 1.327 . S
C803 H826 0.950 . S
C804 C803 1.349 . S
C804 C816 1.349 . S
C805 C803 1.327 . S
C805 C821 1.429 . S
C805 H827 0.950 . S
C806 H802 0.949 . S
C806 C814 1.574 . S
C806 C822 1.368 . S
H807 C815 0.950 . S
H808 C813 0.950 . S
H809 C814 0.949 . S
H810 C816 0.950 . S
H811 C817 0.950 . S
H812 C818 0.949 . S
C813 H808 0.950 . S
C813 C815 1.327 . S
C813 C819 1.429 . S
C814 C806 1.574 . S
C814 H809 0.949 . S
C814 C820 1.368 . S
C815 C799 1.349 . S
C815 H807 0.950 . S
C815 C813 1.327 . S
C816 C804 1.349 . S
C816 H810 0.950 . S
C816 C817 1.327 . S
C817 H811 0.950 . S
C817 C816 1.327 . S
C817 C821 1.429 . S
C818 C801 1.574 . S
C818 H812 0.949 . S
C818 C822 1.368 . S
C819 C800 1.429 . S
C819 C813 1.429 . S
C819 C820 1.523 . S
C820 C801 1.368 . S
C820 C814 1.368 . S
C820 C819 1.523 . S
C821 C805 1.429 . S
C821 C817 1.429 . S
C821 C822 1.523 . S
C822 C806 1.368 . S
C822 C818 1.368 . S
C822 C821 1.523 . S
H823 C798 0.950 . S
H824 C800 0.950 . S
H825 C801 0.949 . S
H826 C803 0.950 . S
H827 C805 0.950 . S
C828 C829 1.349 . S
C828 C830 1.327 . S
C828 H853 0.950 . S
C829 C828 1.349 . S
C829 C845 1.349 . S
C830 C828 1.327 . S
C830 C849 1.429 . S
C830 H854 0.950 . S
C831 C848 1.574 . S
C831 C850 1.368 . S
C831 H855 0.949 . S
H832 C836 0.949 . S
C833 C834 1.349 . S
C833 C835 1.327 . S
C833 H856 0.950 . S
C834 C833 1.349 . S
C834 C846 1.349 . S
C835 C833 1.327 . S
C835 C851 1.429 . S
C835 H857 0.950 . S
C836 H832 0.949 . S
C836 C844 1.574 . S
C836 C852 1.368 . S
H837 C845 0.950 . S
H838 C843 0.950 . S
H839 C844 0.949 . S
H840 C846 0.950 . S
H841 C847 0.950 . S
H842 C848 0.949 . S
C843 H838 0.950 . S
C843 C845 1.327 . S
C843 C849 1.429 . S
C844 C836 1.574 . S
C844 H839 0.949 . S
C844 C850 1.368 . S
C845 C829 1.349 . S
C845 H837 0.950 . S
C845 C843 1.327 . S
C846 C834 1.349 . S
C846 H840 0.950 . S
C846 C847 1.327 . S
C847 H841 0.950 . S
C847 C846 1.327 . S
C847 C851 1.429 . S
C848 C831 1.574 . S
C848 H842 0.949 . S
C848 C852 1.368 . S
C849 C830 1.429 . S
C849 C843 1.429 . S
C849 C850 1.523 . S
C850 C831 1.368 . S
C850 C844 1.368 . S
C850 C849 1.523 . S
C851 C835 1.429 . S
C851 C847 1.429 . S
C851 C852 1.523 . S
C852 C836 1.368 . S
C852 C848 1.368 . S
C852 C851 1.523 . S
H853 C828 0.950 . S
H854 C830 0.950 . S
H855 C831 0.949 . S
H856 C833 0.950 . S
H857 C835 0.950 . S
C858 C859 1.349 . S
C858 C860 1.327 . S
C858 H883 0.950 . S
C859 C858 1.349 . S
C859 C875 1.349 . S
C860 C858 1.327 . S
C860 C879 1.429 . S
C860 H884 0.950 . S
C861 C878 1.574 . S
C861 C880 1.368 . S
C861 H885 0.949 . S
H862 C866 0.949 . S
C863 C864 1.349 . S
C863 C865 1.327 . S
C863 H886 0.950 . S
C864 C863 1.349 . S
C864 C876 1.349 . S
C865 C863 1.327 . S
C865 C881 1.429 . S
C865 H887 0.950 . S
C866 H862 0.949 . S
C866 C874 1.574 . S
C866 C882 1.368 . S
H867 C875 0.950 . S
H868 C873 0.950 . S
H869 C874 0.949 . S
H870 C876 0.950 . S
H871 C877 0.950 . S
H872 C878 0.949 . S
C873 H868 0.950 . S
C873 C875 1.327 . S
C873 C879 1.429 . S
C874 C866 1.574 . S
C874 H869 0.949 . S
C874 C880 1.368 . S
C875 C859 1.349 . S
C875 H867 0.950 . S
C875 C873 1.327 . S
C876 C864 1.349 . S
C876 H870 0.950 . S
C876 C877 1.327 . S
C877 H871 0.950 . S
C877 C876 1.327 . S
C877 C881 1.429 . S
C878 C861 1.574 . S
C878 H872 0.949 . S
C878 C882 1.368 . S
C879 C860 1.429 . S
C879 C873 1.429 . S
C879 C880 1.523 . S
C880 C861 1.368 . S
C880 C874 1.368 . S
C880 C879 1.523 . S
C881 C865 1.429 . S
C881 C877 1.429 . S
C881 C882 1.523 . S
C882 C866 1.368 . S
C882 C878 1.368 . S
C882 C881 1.523 . S
H883 C858 0.950 . S
H884 C860 0.950 . S
H885 C861 0.949 . S
H886 C863 0.950 . S
H887 C865 0.950 . S
C888 C889 1.349 . S
C888 C890 1.327 . S
C888 H913 0.950 . S
C889 C888 1.349 . S
C889 C905 1.349 . S
C890 C888 1.327 . S
C890 C909 1.429 . S
C890 H914 0.950 . S
C891 C908 1.574 . S
C891 C910 1.368 . S
C891 H915 0.949 . S
H892 C896 0.949 . S
C893 C894 1.349 . S
C893 C895 1.327 . S
C893 H916 0.950 . S
C894 C893 1.349 . S
C894 C906 1.349 . S
C895 C893 1.327 . S
C895 C911 1.429 . S
C895 H917 0.950 . S
C896 H892 0.949 . S
C896 C904 1.574 . S
C896 C912 1.368 . S
H897 C905 0.950 . S
H898 C903 0.950 . S
H899 C904 0.949 . S
H900 C906 0.950 . S
H901 C907 0.950 . S
H902 C908 0.949 . S
C903 H898 0.950 . S
C903 C905 1.327 . S
C903 C909 1.429 . S
C904 C896 1.574 . S
C904 H899 0.949 . S
C904 C910 1.368 . S
C905 C889 1.349 . S
C905 H897 0.950 . S
C905 C903 1.327 . S
C906 C894 1.349 . S
C906 H900 0.950 . S
C906 C907 1.327 . S
C907 H901 0.950 . S
C907 C906 1.327 . S
C907 C911 1.429 . S
C908 C891 1.574 . S
C908 H902 0.949 . S
C908 C912 1.368 . S
C909 C890 1.429 . S
C909 C903 1.429 . S
C909 C910 1.523 . S
C910 C891 1.368 . S
C910 C904 1.368 . S
C910 C909 1.523 . S
C911 C895 1.429 . S
C911 C907 1.429 . S
C911 C912 1.523 . S
C912 C896 1.368 . S
C912 C908 1.368 . S
C912 C911 1.523 . S
H913 C888 0.950 . S
H914 C890 0.950 . S
H915 C891 0.949 . S
H916 C893 0.950 . S
H917 C895 0.950 . S
C918 C919 1.349 . S
C918 C920 1.327 . S
C918 H943 0.950 . S
C919 C918 1.349 . S
C919 C935 1.349 . S
C920 C918 1.327 . S
C920 C939 1.429 . S
C920 H944 0.950 . S
C921 C938 1.574 . S
C921 C940 1.368 . S
C921 H945 0.949 . S
H922 C926 0.949 . S
C923 C924 1.349 . S
C923 C925 1.327 . S
C923 H946 0.950 . S
C924 C923 1.349 . S
C924 C936 1.349 . S
C925 C923 1.327 . S
C925 C941 1.429 . S
C925 H947 0.950 . S
C926 H922 0.949 . S
C926 C934 1.574 . S
C926 C942 1.368 . S
H927 C935 0.950 . S
H928 C933 0.950 . S
H929 C934 0.949 . S
H930 C936 0.950 . S
H931 C937 0.950 . S
H932 C938 0.949 . S
C933 H928 0.950 . S
C933 C935 1.327 . S
C933 C939 1.429 . S
C934 C926 1.574 . S
C934 H929 0.949 . S
C934 C940 1.368 . S
C935 C919 1.349 . S
C935 H927 0.950 . S
C935 C933 1.327 . S
C936 C924 1.349 . S
C936 H930 0.950 . S
C936 C937 1.327 . S
C937 H931 0.950 . S
C937 C936 1.327 . S
C937 C941 1.429 . S
C938 C921 1.574 . S
C938 H932 0.949 . S
C938 C942 1.368 . S
C939 C920 1.429 . S
C939 C933 1.429 . S
C939 C940 1.523 . S
C940 C921 1.368 . S
C940 C934 1.368 . S
C940 C939 1.523 . S
C941 C925 1.429 . S
C941 C937 1.429 . S
C941 C942 1.523 . S
C942 C926 1.368 . S
C942 C938 1.368 . S
C942 C941 1.523 . S
H943 C918 0.950 . S
H944 C920 0.950 . S
H945 C921 0.949 . S
H946 C923 0.950 . S
H947 C925 0.950 . S
C948 C949 1.349 . S
C948 C950 1.327 . S
C948 H973 0.950 . S
C949 C948 1.349 . S
C949 C965 1.349 . S
C950 C948 1.327 . S
C950 C969 1.429 . S
C950 H974 0.950 . S
C951 C968 1.574 . S
C951 C970 1.368 . S
C951 H975 0.949 . S
H952 C956 0.949 . S
C953 C954 1.349 . S
C953 C955 1.327 . S
C953 H976 0.950 . S
C954 C953 1.349 . S
C954 C966 1.349 . S
C955 C953 1.327 . S
C955 C971 1.429 . S
C955 H977 0.950 . S
C956 H952 0.949 . S
C956 C964 1.574 . S
C956 C972 1.368 . S
H957 C965 0.950 . S
H958 C963 0.950 . S
H959 C964 0.949 . S
H960 C966 0.950 . S
H961 C967 0.950 . S
H962 C968 0.949 . S
C963 H958 0.950 . S
C963 C965 1.327 . S
C963 C969 1.429 . S
C964 C956 1.574 . S
C964 H959 0.949 . S
C964 C970 1.368 . S
C965 C949 1.349 . S
C965 H957 0.950 . S
C965 C963 1.327 . S
C966 C954 1.349 . S
C966 H960 0.950 . S
C966 C967 1.327 . S
C967 H961 0.950 . S
C967 C966 1.327 . S
C967 C971 1.429 . S
C968 C951 1.574 . S
C968 H962 0.949 . S
C968 C972 1.368 . S
C969 C950 1.429 . S
C969 C963 1.429 . S
C969 C970 1.523 . S
C970 C951 1.368 . S
C970 C964 1.368 . S
C970 C969 1.523 . S
C971 C955 1.429 . S
C971 C967 1.429 . S
C971 C972 1.523 . S
C972 C956 1.368 . S
C972 C968 1.368 . S
C972 C971 1.523 . S
H973 C948 0.950 . S
H974 C950 0.950 . S
H975 C951 0.949 . S
H976 C953 0.950 . S
H977 C955 0.950 . S
C978 C979 1.349 . S
C978 C980 1.327 . S
C978 H1003 0.950 . S
C979 C978 1.349 . S
C979 C995 1.349 . S
C980 C978 1.327 . S
C980 C999 1.429 . S
C980 H1004 0.950 . S
C981 C998 1.574 . S
C981 C1000 1.368 . S
C981 H1005 0.949 . S
H982 C986 0.949 . S
C983 C984 1.349 . S
C983 C985 1.327 . S
C983 H1006 0.950 . S
C984 C983 1.349 . S
C984 C996 1.349 . S
C985 C983 1.327 . S
C985 C1001 1.429 . S
C985 H1007 0.950 . S
C986 H982 0.949 . S
C986 C994 1.574 . S
C986 C1002 1.368 . S
H987 C995 0.950 . S
H988 C993 0.950 . S
H989 C994 0.949 . S
H990 C996 0.950 . S
H991 C997 0.950 . S
H992 C998 0.949 . S
C993 H988 0.950 . S
C993 C995 1.327 . S
C993 C999 1.429 . S
C994 C986 1.574 . S
C994 H989 0.949 . S
C994 C1000 1.368 . S
C995 C979 1.349 . S
C995 H987 0.950 . S
C995 C993 1.327 . S
C996 C984 1.349 . S
C996 H990 0.950 . S
C996 C997 1.327 . S
C997 H991 0.950 . S
C997 C996 1.327 . S
C997 C1001 1.429 . S
C998 C981 1.574 . S
C998 H992 0.949 . S
C998 C1002 1.368 . S
C999 C980 1.429 . S
C999 C993 1.429 . S
C999 C1000 1.523 . S
C1000 C981 1.368 . S
C1000 C994 1.368 . S
C1000 C999 1.523 . S
C1001 C985 1.429 . S
C1001 C997 1.429 . S
C1001 C1002 1.523 . S
C1002 C986 1.368 . S
C1002 C998 1.368 . S
C1002 C1001 1.523 . S
H1003 C978 0.950 . S
H1004 C980 0.950 . S
H1005 C981 0.949 . S
H1006 C983 0.950 . S
H1007 C985 0.950 . S
C1008 C1009 1.349 . S
C1008 C1010 1.327 . S
C1008 H1033 0.950 . S
C1009 C1008 1.349 . S
C1009 C1025 1.349 . S
C1010 C1008 1.327 . S
C1010 C1029 1.429 . S
C1010 H1034 0.950 . S
C1011 C1028 1.574 1_554 S
C1011 C1030 1.368 . S
C1011 H1035 0.949 . S
H1012 C1016 0.949 . S
C1013 C1014 1.349 . S
C1013 C1015 1.327 . S
C1013 H1036 0.950 . S
C1014 C1013 1.349 . S
C1014 C1026 1.349 . S
C1015 C1013 1.327 . S
C1015 C1031 1.429 . S
C1015 H1037 0.950 . S
C1016 H1012 0.949 . S
C1016 C1024 1.574 1_556 S
C1016 C1032 1.368 . S
H1017 C1025 0.950 . S
H1018 C1023 0.950 . S
H1019 C1024 0.949 . S
H1020 C1026 0.950 . S
H1021 C1027 0.950 . S
H1022 C1028 0.949 . S
C1023 H1018 0.950 . S
C1023 C1025 1.327 . S
C1023 C1029 1.429 . S
C1024 C1016 1.574 1_554 S
C1024 H1019 0.949 . S
C1024 C1030 1.368 . S
C1025 C1009 1.349 . S
C1025 H1017 0.950 . S
C1025 C1023 1.327 . S
C1026 C1014 1.349 . S
C1026 H1020 0.950 . S
C1026 C1027 1.327 . S
C1027 H1021 0.950 . S
C1027 C1026 1.327 . S
C1027 C1031 1.429 . S
C1028 C1011 1.574 1_556 S
C1028 H1022 0.949 . S
C1028 C1032 1.368 . S
C1029 C1010 1.429 . S
C1029 C1023 1.429 . S
C1029 C1030 1.523 . S
C1030 C1011 1.368 . S
C1030 C1024 1.368 . S
C1030 C1029 1.523 . S
C1031 C1015 1.429 . S
C1031 C1027 1.429 . S
C1031 C1032 1.523 . S
C1032 C1016 1.368 . S
C1032 C1028 1.368 . S
C1032 C1031 1.523 . S
H1033 C1008 0.950 . S
H1034 C1010 0.950 . S
H1035 C1011 0.949 . S
H1036 C1013 0.950 . S
H1037 C1015 0.950 . S
C1038 C1039 1.349 . S
C1038 C1040 1.327 . S
C1038 H1063 0.950 . S
C1039 C1038 1.349 . S
C1039 C1055 1.349 . S
C1040 C1038 1.327 . S
C1040 C1059 1.429 . S
C1040 H1064 0.950 . S
C1041 C1058 1.574 . S
C1041 C1060 1.368 . S
C1041 H1065 0.949 . S
H1042 C1046 0.949 . S
C1043 C1044 1.349 . S
C1043 C1045 1.327 . S
C1043 H1066 0.950 . S
C1044 C1043 1.349 . S
C1044 C1056 1.349 . S
C1045 C1043 1.327 . S
C1045 C1061 1.429 . S
C1045 H1067 0.950 . S
C1046 H1042 0.949 . S
C1046 C1054 1.574 . S
C1046 C1062 1.368 . S
H1047 C1055 0.950 . S
H1048 C1053 0.950 . S
H1049 C1054 0.949 . S
H1050 C1056 0.950 . S
H1051 C1057 0.950 . S
H1052 C1058 0.949 . S
C1053 H1048 0.950 . S
C1053 C1055 1.327 . S
C1053 C1059 1.429 . S
C1054 C1046 1.574 . S
C1054 H1049 0.949 . S
C1054 C1060 1.368 . S
C1055 C1039 1.349 . S
C1055 H1047 0.950 . S
C1055 C1053 1.327 . S
C1056 C1044 1.349 . S
C1056 H1050 0.950 . S
C1056 C1057 1.327 . S
C1057 H1051 0.950 . S
C1057 C1056 1.327 . S
C1057 C1061 1.429 . S
C1058 C1041 1.574 . S
C1058 H1052 0.949 . S
C1058 C1062 1.368 . S
C1059 C1040 1.429 . S
C1059 C1053 1.429 . S
C1059 C1060 1.523 . S
C1060 C1041 1.368 . S
C1060 C1054 1.368 . S
C1060 C1059 1.523 . S
C1061 C1045 1.429 . S
C1061 C1057 1.429 . S
C1061 C1062 1.523 . S
C1062 C1046 1.368 . S
C1062 C1058 1.368 . S
C1062 C1061 1.523 . S
H1063 C1038 0.950 . S
H1064 C1040 0.950 . S
H1065 C1041 0.949 . S
H1066 C1043 0.950 . S
H1067 C1045 0.950 . S
C1068 C1069 1.349 . S
C1068 C1070 1.327 . S
C1068 H1093 0.950 . S
C1069 C1068 1.349 . S
C1069 C1085 1.349 . S
C1070 C1068 1.327 . S
C1070 C1089 1.429 . S
C1070 H1094 0.950 . S
C1071 C1088 1.574 1_556 S
C1071 C1090 1.368 . S
C1071 H1095 0.949 . S
H1072 C1076 0.949 . S
C1073 C1074 1.349 . S
C1073 C1075 1.327 . S
C1073 H1096 0.950 . S
C1074 C1073 1.349 . S
C1074 C1086 1.349 . S
C1075 C1073 1.327 . S
C1075 C1091 1.429 . S
C1075 H1097 0.950 . S
C1076 H1072 0.949 . S
C1076 C1084 1.574 1_554 S
C1076 C1092 1.368 . S
H1077 C1085 0.950 . S
H1078 C1083 0.950 . S
H1079 C1084 0.949 . S
H1080 C1086 0.950 . S
H1081 C1087 0.950 . S
H1082 C1088 0.949 . S
C1083 H1078 0.950 . S
C1083 C1085 1.327 . S
C1083 C1089 1.429 . S
C1084 C1076 1.574 1_556 S
C1084 H1079 0.949 . S
C1084 C1090 1.368 . S
C1085 C1069 1.349 . S
C1085 H1077 0.950 . S
C1085 C1083 1.327 . S
C1086 C1074 1.349 . S
C1086 H1080 0.950 . S
C1086 C1087 1.327 . S
C1087 H1081 0.950 . S
C1087 C1086 1.327 . S
C1087 C1091 1.429 . S
C1088 C1071 1.574 1_554 S
C1088 H1082 0.949 . S
C1088 C1092 1.368 . S
C1089 C1070 1.429 . S
C1089 C1083 1.429 . S
C1089 C1090 1.523 . S
C1090 C1071 1.368 . S
C1090 C1084 1.368 . S
C1090 C1089 1.523 . S
C1091 C1075 1.429 . S
C1091 C1087 1.429 . S
C1091 C1092 1.523 . S
C1092 C1076 1.368 . S
C1092 C1088 1.368 . S
C1092 C1091 1.523 . S
H1093 C1068 0.950 . S
H1094 C1070 0.950 . S
H1095 C1071 0.949 . S
H1096 C1073 0.950 . S
H1097 C1075 0.950 . S
C1098 C1099 1.349 . S
C1098 C1100 1.327 . S
C1098 H1123 0.950 . S
C1099 C1098 1.349 . S
C1099 C1115 1.349 . S
C1100 C1098 1.327 . S
C1100 C1119 1.429 . S
C1100 H1124 0.950 . S
C1101 C1118 1.574 . S
C1101 C1120 1.368 . S
C1101 H1125 0.949 . S
H1102 C1106 0.949 . S
C1103 C1104 1.349 . S
C1103 C1105 1.327 . S
C1103 H1126 0.950 . S
C1104 C1103 1.349 . S
C1104 C1116 1.349 . S
C1105 C1103 1.327 . S
C1105 C1121 1.429 . S
C1105 H1127 0.950 . S
C1106 H1102 0.949 . S
C1106 C1114 1.574 . S
C1106 C1122 1.368 . S
H1107 C1115 0.950 . S
H1108 C1113 0.950 . S
H1109 C1114 0.949 . S
H1110 C1116 0.950 . S
H1111 C1117 0.950 . S
H1112 C1118 0.949 . S
C1113 H1108 0.950 . S
C1113 C1115 1.327 . S
C1113 C1119 1.429 . S
C1114 C1106 1.574 . S
C1114 H1109 0.949 . S
C1114 C1120 1.368 . S
C1115 C1099 1.349 . S
C1115 H1107 0.950 . S
C1115 C1113 1.327 . S
C1116 C1104 1.349 . S
C1116 H1110 0.950 . S
C1116 C1117 1.327 . S
C1117 H1111 0.950 . S
C1117 C1116 1.327 . S
C1117 C1121 1.429 . S
C1118 C1101 1.574 . S
C1118 H1112 0.949 . S
C1118 C1122 1.368 . S
C1119 C1100 1.429 . S
C1119 C1113 1.429 . S
C1119 C1120 1.523 . S
C1120 C1101 1.368 . S
C1120 C1114 1.368 . S
C1120 C1119 1.523 . S
C1121 C1105 1.429 . S
C1121 C1117 1.429 . S
C1121 C1122 1.523 . S
C1122 C1106 1.368 . S
C1122 C1118 1.368 . S
C1122 C1121 1.523 . S
H1123 C1098 0.950 . S
H1124 C1100 0.950 . S
H1125 C1101 0.949 . S
H1126 C1103 0.950 . S
H1127 C1105 0.950 . S
C1128 C1129 1.349 . S
C1128 C1130 1.327 . S
C1128 H1153 0.950 . S
C1129 C1128 1.349 . S
C1129 C1145 1.349 . S
C1130 C1128 1.327 . S
C1130 C1149 1.429 . S
C1130 H1154 0.950 . S
C1131 C1148 1.574 1_556 S
C1131 C1150 1.368 . S
C1131 H1155 0.949 . S
H1132 C1136 0.949 . S
C1133 C1134 1.349 . S
C1133 C1135 1.327 . S
C1133 H1156 0.950 . S
C1134 C1133 1.349 . S
C1134 C1146 1.349 . S
C1135 C1133 1.327 . S
C1135 C1151 1.429 . S
C1135 H1157 0.950 . S
C1136 H1132 0.949 . S
C1136 C1144 1.574 1_554 S
C1136 C1152 1.368 . S
H1137 C1145 0.950 . S
H1138 C1143 0.950 . S
H1139 C1144 0.949 . S
H1140 C1146 0.950 . S
H1141 C1147 0.950 . S
H1142 C1148 0.949 . S
C1143 H1138 0.950 . S
C1143 C1145 1.327 . S
C1143 C1149 1.429 . S
C1144 C1136 1.574 1_556 S
C1144 H1139 0.949 . S
C1144 C1150 1.368 . S
C1145 C1129 1.349 . S
C1145 H1137 0.950 . S
C1145 C1143 1.327 . S
C1146 C1134 1.349 . S
C1146 H1140 0.950 . S
C1146 C1147 1.327 . S
C1147 H1141 0.950 . S
C1147 C1146 1.327 . S
C1147 C1151 1.429 . S
C1148 C1131 1.574 1_554 S
C1148 H1142 0.949 . S
C1148 C1152 1.368 . S
C1149 C1130 1.429 . S
C1149 C1143 1.429 . S
C1149 C1150 1.523 . S
C1150 C1131 1.368 . S
C1150 C1144 1.368 . S
C1150 C1149 1.523 . S
C1151 C1135 1.429 . S
C1151 C1147 1.429 . S
C1151 C1152 1.523 . S
C1152 C1136 1.368 . S
C1152 C1148 1.368 . S
C1152 C1151 1.523 . S
H1153 C1128 0.950 . S
H1154 C1130 0.950 . S
H1155 C1131 0.949 . S
H1156 C1133 0.950 . S
H1157 C1135 0.950 . S
C1158 C1159 1.349 . S
C1158 C1160 1.327 . S
C1158 H1183 0.950 . S
C1159 C1158 1.349 . S
C1159 C1175 1.349 . S
C1160 C1158 1.327 . S
C1160 C1179 1.429 . S
C1160 H1184 0.950 . S
C1161 C1178 1.574 . S
C1161 C1180 1.368 . S
C1161 H1185 0.949 . S
H1162 C1166 0.949 . S
C1163 C1164 1.349 . S
C1163 C1165 1.327 . S
C1163 H1186 0.950 . S
C1164 C1163 1.349 . S
C1164 C1176 1.349 . S
C1165 C1163 1.327 . S
C1165 C1181 1.429 . S
C1165 H1187 0.950 . S
C1166 H1162 0.949 . S
C1166 C1174 1.574 . S
C1166 C1182 1.368 . S
H1167 C1175 0.950 . S
H1168 C1173 0.950 . S
H1169 C1174 0.949 . S
H1170 C1176 0.950 . S
H1171 C1177 0.950 . S
H1172 C1178 0.949 . S
C1173 H1168 0.950 . S
C1173 C1175 1.327 . S
C1173 C1179 1.429 . S
C1174 C1166 1.574 . S
C1174 H1169 0.949 . S
C1174 C1180 1.368 . S
C1175 C1159 1.349 . S
C1175 H1167 0.950 . S
C1175 C1173 1.327 . S
C1176 C1164 1.349 . S
C1176 H1170 0.950 . S
C1176 C1177 1.327 . S
C1177 H1171 0.950 . S
C1177 C1176 1.327 . S
C1177 C1181 1.429 . S
C1178 C1161 1.574 . S
C1178 H1172 0.949 . S
C1178 C1182 1.368 . S
C1179 C1160 1.429 . S
C1179 C1173 1.429 . S
C1179 C1180 1.523 . S
C1180 C1161 1.368 . S
C1180 C1174 1.368 . S
C1180 C1179 1.523 . S
C1181 C1165 1.429 . S
C1181 C1177 1.429 . S
C1181 C1182 1.523 . S
C1182 C1166 1.368 . S
C1182 C1178 1.368 . S
C1182 C1181 1.523 . S
H1183 C1158 0.950 . S
H1184 C1160 0.950 . S
H1185 C1161 0.949 . S
H1186 C1163 0.950 . S
H1187 C1165 0.950 . S
C1188 C1189 1.349 . S
C1188 C1190 1.327 . S
C1188 H1213 0.950 . S
C1189 C1188 1.349 . S
C1189 C1205 1.349 . S
C1190 C1188 1.327 . S
C1190 C1209 1.429 . S
C1190 H1214 0.950 . S
C1191 C1208 1.574 1_554 S
C1191 C1210 1.368 . S
C1191 H1215 0.949 . S
H1192 C1196 0.949 . S
C1193 C1194 1.349 . S
C1193 C1195 1.327 . S
C1193 H1216 0.950 . S
C1194 C1193 1.349 . S
C1194 C1206 1.349 . S
C1195 C1193 1.327 . S
C1195 C1211 1.429 . S
C1195 H1217 0.950 . S
C1196 H1192 0.949 . S
C1196 C1204 1.574 1_556 S
C1196 C1212 1.368 . S
H1197 C1205 0.950 . S
H1198 C1203 0.950 . S
H1199 C1204 0.949 . S
H1200 C1206 0.950 . S
H1201 C1207 0.950 . S
H1202 C1208 0.949 . S
C1203 H1198 0.950 . S
C1203 C1205 1.327 . S
C1203 C1209 1.429 . S
C1204 C1196 1.574 1_554 S
C1204 H1199 0.949 . S
C1204 C1210 1.368 . S
C1205 C1189 1.349 . S
C1205 H1197 0.950 . S
C1205 C1203 1.327 . S
C1206 C1194 1.349 . S
C1206 H1200 0.950 . S
C1206 C1207 1.327 . S
C1207 H1201 0.950 . S
C1207 C1206 1.327 . S
C1207 C1211 1.429 . S
C1208 C1191 1.574 1_556 S
C1208 H1202 0.949 . S
C1208 C1212 1.368 . S
C1209 C1190 1.429 . S
C1209 C1203 1.429 . S
C1209 C1210 1.523 . S
C1210 C1191 1.368 . S
C1210 C1204 1.368 . S
C1210 C1209 1.523 . S
C1211 C1195 1.429 . S
C1211 C1207 1.429 . S
C1211 C1212 1.523 . S
C1212 C1196 1.368 . S
C1212 C1208 1.368 . S
C1212 C1211 1.523 . S
H1213 C1188 0.950 . S
H1214 C1190 0.950 . S
H1215 C1191 0.949 . S
H1216 C1193 0.950 . S
H1217 C1195 0.950 . S
C1218 C1219 1.349 . S
C1218 C1220 1.327 . S
C1218 H1243 0.950 . S
C1219 C1218 1.349 . S
C1219 C1235 1.349 . S
C1220 C1218 1.327 . S
C1220 C1239 1.429 . S
C1220 H1244 0.950 . S
C1221 C1238 1.574 . S
C1221 C1240 1.368 . S
C1221 H1245 0.949 . S
H1222 C1226 0.949 . S
C1223 C1224 1.349 . S
C1223 C1225 1.327 . S
C1223 H1246 0.950 . S
C1224 C1223 1.349 . S
C1224 C1236 1.349 . S
C1225 C1223 1.327 . S
C1225 C1241 1.429 . S
C1225 H1247 0.950 . S
C1226 H1222 0.949 . S
C1226 C1234 1.574 . S
C1226 C1242 1.368 . S
H1227 C1235 0.950 . S
H1228 C1233 0.950 . S
H1229 C1234 0.949 . S
H1230 C1236 0.950 . S
H1231 C1237 0.950 . S
H1232 C1238 0.949 . S
C1233 H1228 0.950 . S
C1233 C1235 1.327 . S
C1233 C1239 1.429 . S
C1234 C1226 1.574 . S
C1234 H1229 0.949 . S
C1234 C1240 1.368 . S
C1235 C1219 1.349 . S
C1235 H1227 0.950 . S
C1235 C1233 1.327 . S
C1236 C1224 1.349 . S
C1236 H1230 0.950 . S
C1236 C1237 1.327 . S
C1237 H1231 0.950 . S
C1237 C1236 1.327 . S
C1237 C1241 1.429 . S
C1238 C1221 1.574 . S
C1238 H1232 0.949 . S
C1238 C1242 1.368 . S
C1239 C1220 1.429 . S
C1239 C1233 1.429 . S
C1239 C1240 1.523 . S
C1240 C1221 1.368 . S
C1240 C1234 1.368 . S
C1240 C1239 1.523 . S
C1241 C1225 1.429 . S
C1241 C1237 1.429 . S
C1241 C1242 1.523 . S
C1242 C1226 1.368 . S
C1242 C1238 1.368 . S
C1242 C1241 1.523 . S
H1243 C1218 0.950 . S
H1244 C1220 0.950 . S
H1245 C1221 0.949 . S
H1246 C1223 0.950 . S
H1247 C1225 0.950 . S
C1248 C1249 1.349 . S
C1248 C1250 1.327 . S
C1248 H1273 0.950 . S
C1249 C1248 1.349 . S
C1249 C1265 1.349 . S
C1250 C1248 1.327 . S
C1250 C1269 1.429 . S
C1250 H1274 0.950 . S
C1251 C1268 1.574 . S
C1251 C1270 1.368 . S
C1251 H1275 0.949 . S
H1252 C1256 0.949 . S
C1253 C1254 1.349 . S
C1253 C1255 1.327 . S
C1253 H1276 0.950 . S
C1254 C1253 1.349 . S
C1254 C1266 1.349 . S
C1255 C1253 1.327 . S
C1255 C1271 1.429 . S
C1255 H1277 0.950 . S
C1256 H1252 0.949 . S
C1256 C1264 1.574 . S
C1256 C1272 1.368 . S
H1257 C1265 0.950 . S
H1258 C1263 0.950 . S
H1259 C1264 0.949 . S
H1260 C1266 0.950 . S
H1261 C1267 0.950 . S
H1262 C1268 0.949 . S
C1263 H1258 0.950 . S
C1263 C1265 1.327 . S
C1263 C1269 1.429 . S
C1264 C1256 1.574 . S
C1264 H1259 0.949 . S
C1264 C1270 1.368 . S
C1265 C1249 1.349 . S
C1265 H1257 0.950 . S
C1265 C1263 1.327 . S
C1266 C1254 1.349 . S
C1266 H1260 0.950 . S
C1266 C1267 1.327 . S
C1267 H1261 0.950 . S
C1267 C1266 1.327 . S
C1267 C1271 1.429 . S
C1268 C1251 1.574 . S
C1268 H1262 0.949 . S
C1268 C1272 1.368 . S
C1269 C1250 1.429 . S
C1269 C1263 1.429 . S
C1269 C1270 1.523 . S
C1270 C1251 1.368 . S
C1270 C1264 1.368 . S
C1270 C1269 1.523 . S
C1271 C1255 1.429 . S
C1271 C1267 1.429 . S
C1271 C1272 1.523 . S
C1272 C1256 1.368 . S
C1272 C1268 1.368 . S
C1272 C1271 1.523 . S
H1273 C1248 0.950 . S
H1274 C1250 0.950 . S
H1275 C1251 0.949 . S
H1276 C1253 0.950 . S
H1277 C1255 0.950 . S
C1278 C1279 1.349 . S
C1278 C1280 1.327 . S
C1278 H1303 0.950 . S
C1279 C1278 1.349 . S
C1279 C1295 1.349 . S
C1280 C1278 1.327 . S
C1280 C1299 1.429 . S
C1280 H1304 0.950 . S
C1281 C1298 1.574 . S
C1281 C1300 1.368 . S
C1281 H1305 0.949 . S
H1282 C1286 0.949 . S
C1283 C1284 1.349 . S
C1283 C1285 1.327 . S
C1283 H1306 0.950 . S
C1284 C1283 1.349 . S
C1284 C1296 1.349 . S
C1285 C1283 1.327 . S
C1285 C1301 1.429 . S
C1285 H1307 0.950 . S
C1286 H1282 0.949 . S
C1286 C1294 1.574 . S
C1286 C1302 1.368 . S
H1287 C1295 0.950 . S
H1288 C1293 0.950 . S
H1289 C1294 0.949 . S
H1290 C1296 0.950 . S
H1291 C1297 0.950 . S
H1292 C1298 0.949 . S
C1293 H1288 0.950 . S
C1293 C1295 1.327 . S
C1293 C1299 1.429 . S
C1294 C1286 1.574 . S
C1294 H1289 0.949 . S
C1294 C1300 1.368 . S
C1295 C1279 1.349 . S
C1295 H1287 0.950 . S
C1295 C1293 1.327 . S
C1296 C1284 1.349 . S
C1296 H1290 0.950 . S
C1296 C1297 1.327 . S
C1297 H1291 0.950 . S
C1297 C1296 1.327 . S
C1297 C1301 1.429 . S
C1298 C1281 1.574 . S
C1298 H1292 0.949 . S
C1298 C1302 1.368 . S
C1299 C1280 1.429 . S
C1299 C1293 1.429 . S
C1299 C1300 1.523 . S
C1300 C1281 1.368 . S
C1300 C1294 1.368 . S
C1300 C1299 1.523 . S
C1301 C1285 1.429 . S
C1301 C1297 1.429 . S
C1301 C1302 1.523 . S
C1302 C1286 1.368 . S
C1302 C1298 1.368 . S
C1302 C1301 1.523 . S
H1303 C1278 0.950 . S
H1304 C1280 0.950 . S
H1305 C1281 0.949 . S
H1306 C1283 0.950 . S
H1307 C1285 0.950 . S
C1308 C1309 1.349 . S
C1308 C1310 1.327 . S
C1308 H1333 0.950 . S
C1309 C1308 1.349 . S
C1309 C1325 1.349 . S
C1310 C1308 1.327 . S
C1310 C1329 1.429 . S
C1310 H1334 0.950 . S
C1311 C1328 1.574 . S
C1311 C1330 1.368 . S
C1311 H1335 0.949 . S
H1312 C1316 0.949 . S
C1313 C1314 1.349 . S
C1313 C1315 1.327 . S
C1313 H1336 0.950 . S
C1314 C1313 1.349 . S
C1314 C1326 1.349 . S
C1315 C1313 1.327 . S
C1315 C1331 1.429 . S
C1315 H1337 0.950 . S
C1316 H1312 0.949 . S
C1316 C1324 1.574 . S
C1316 C1332 1.368 . S
H1317 C1325 0.950 . S
H1318 C1323 0.950 . S
H1319 C1324 0.949 . S
H1320 C1326 0.950 . S
H1321 C1327 0.950 . S
H1322 C1328 0.949 . S
C1323 H1318 0.950 . S
C1323 C1325 1.327 . S
C1323 C1329 1.429 . S
C1324 C1316 1.574 . S
C1324 H1319 0.949 . S
C1324 C1330 1.368 . S
C1325 C1309 1.349 . S
C1325 H1317 0.950 . S
C1325 C1323 1.327 . S
C1326 C1314 1.349 . S
C1326 H1320 0.950 . S
C1326 C1327 1.327 . S
C1327 H1321 0.950 . S
C1327 C1326 1.327 . S
C1327 C1331 1.429 . S
C1328 C1311 1.574 . S
C1328 H1322 0.949 . S
C1328 C1332 1.368 . S
C1329 C1310 1.429 . S
C1329 C1323 1.429 . S
C1329 C1330 1.523 . S
C1330 C1311 1.368 . S
C1330 C1324 1.368 . S
C1330 C1329 1.523 . S
C1331 C1315 1.429 . S
C1331 C1327 1.429 . S
C1331 C1332 1.523 . S
C1332 C1316 1.368 . S
C1332 C1328 1.368 . S
C1332 C1331 1.523 . S
H1333 C1308 0.950 . S
H1334 C1310 0.950 . S
H1335 C1311 0.949 . S
H1336 C1313 0.950 . S
H1337 C1315 0.950 . S
C1338 C1339 1.349 . S
C1338 C1340 1.327 . S
C1338 H1363 0.950 . S
C1339 C1338 1.349 . S
C1339 C1355 1.349 . S
C1340 C1338 1.327 . S
C1340 C1359 1.429 . S
C1340 H1364 0.950 . S
C1341 C1358 1.574 . S
C1341 C1360 1.368 . S
C1341 H1365 0.949 . S
H1342 C1346 0.949 . S
C1343 C1344 1.349 . S
C1343 C1345 1.327 . S
C1343 H1366 0.950 . S
C1344 C1343 1.349 . S
C1344 C1356 1.349 . S
C1345 C1343 1.327 . S
C1345 C1361 1.429 . S
C1345 H1367 0.950 . S
C1346 H1342 0.949 . S
C1346 C1354 1.574 . S
C1346 C1362 1.368 . S
H1347 C1355 0.950 . S
H1348 C1353 0.950 . S
H1349 C1354 0.949 . S
H1350 C1356 0.950 . S
H1351 C1357 0.950 . S
H1352 C1358 0.949 . S
C1353 H1348 0.950 . S
C1353 C1355 1.327 . S
C1353 C1359 1.429 . S
C1354 C1346 1.574 . S
C1354 H1349 0.949 . S
C1354 C1360 1.368 . S
C1355 C1339 1.349 . S
C1355 H1347 0.950 . S
C1355 C1353 1.327 . S
C1356 C1344 1.349 . S
C1356 H1350 0.950 . S
C1356 C1357 1.327 . S
C1357 H1351 0.950 . S
C1357 C1356 1.327 . S
C1357 C1361 1.429 . S
C1358 C1341 1.574 . S
C1358 H1352 0.949 . S
C1358 C1362 1.368 . S
C1359 C1340 1.429 . S
C1359 C1353 1.429 . S
C1359 C1360 1.523 . S
C1360 C1341 1.368 . S
C1360 C1354 1.368 . S
C1360 C1359 1.523 . S
C1361 C1345 1.429 . S
C1361 C1357 1.429 . S
C1361 C1362 1.523 . S
C1362 C1346 1.368 . S
C1362 C1358 1.368 . S
C1362 C1361 1.523 . S
H1363 C1338 0.950 . S
H1364 C1340 0.950 . S
H1365 C1341 0.949 . S
H1366 C1343 0.950 . S
H1367 C1345 0.950 . S
C1368 C1369 1.349 . S
C1368 C1370 1.327 . S
C1368 H1393 0.950 . S
C1369 C1368 1.349 . S
C1369 C1385 1.349 . S
C1370 C1368 1.327 . S
C1370 C1389 1.429 . S
C1370 H1394 0.950 . S
C1371 C1388 1.574 . S
C1371 C1390 1.368 . S
C1371 H1395 0.949 . S
H1372 C1376 0.949 . S
C1373 C1374 1.349 . S
C1373 C1375 1.327 . S
C1373 H1396 0.950 . S
C1374 C1373 1.349 . S
C1374 C1386 1.349 . S
C1375 C1373 1.327 . S
C1375 C1391 1.429 . S
C1375 H1397 0.950 . S
C1376 H1372 0.949 . S
C1376 C1384 1.574 . S
C1376 C1392 1.368 . S
H1377 C1385 0.950 . S
H1378 C1383 0.950 . S
H1379 C1384 0.949 . S
H1380 C1386 0.950 . S
H1381 C1387 0.950 . S
H1382 C1388 0.949 . S
C1383 H1378 0.950 . S
C1383 C1385 1.327 . S
C1383 C1389 1.429 . S
C1384 C1376 1.574 . S
C1384 H1379 0.949 . S
C1384 C1390 1.368 . S
C1385 C1369 1.349 . S
C1385 H1377 0.950 . S
C1385 C1383 1.327 . S
C1386 C1374 1.349 . S
C1386 H1380 0.950 . S
C1386 C1387 1.327 . S
C1387 H1381 0.950 . S
C1387 C1386 1.327 . S
C1387 C1391 1.429 . S
C1388 C1371 1.574 . S
C1388 H1382 0.949 . S
C1388 C1392 1.368 . S
C1389 C1370 1.429 . S
C1389 C1383 1.429 . S
C1389 C1390 1.523 . S
C1390 C1371 1.368 . S
C1390 C1384 1.368 . S
C1390 C1389 1.523 . S
C1391 C1375 1.429 . S
C1391 C1387 1.429 . S
C1391 C1392 1.523 . S
C1392 C1376 1.368 . S
C1392 C1388 1.368 . S
C1392 C1391 1.523 . S
H1393 C1368 0.950 . S
H1394 C1370 0.950 . S
H1395 C1371 0.949 . S
H1396 C1373 0.950 . S
H1397 C1375 0.950 . S
C1398 C1399 1.349 . S
C1398 C1400 1.327 . S
C1398 H1423 0.950 . S
C1399 C1398 1.349 . S
C1399 C1415 1.349 . S
C1400 C1398 1.327 . S
C1400 C1419 1.429 . S
C1400 H1424 0.950 . S
C1401 C1418 1.574 . S
C1401 C1420 1.368 . S
C1401 H1425 0.949 . S
H1402 C1406 0.949 . S
C1403 C1404 1.349 . S
C1403 C1405 1.327 . S
C1403 H1426 0.950 . S
C1404 C1403 1.349 . S
C1404 C1416 1.349 . S
C1405 C1403 1.327 . S
C1405 C1421 1.429 . S
C1405 H1427 0.950 . S
C1406 H1402 0.949 . S
C1406 C1414 1.574 . S
C1406 C1422 1.368 . S
H1407 C1415 0.950 . S
H1408 C1413 0.950 . S
H1409 C1414 0.949 . S
H1410 C1416 0.950 . S
H1411 C1417 0.950 . S
H1412 C1418 0.949 . S
C1413 H1408 0.950 . S
C1413 C1415 1.327 . S
C1413 C1419 1.429 . S
C1414 C1406 1.574 . S
C1414 H1409 0.949 . S
C1414 C1420 1.368 . S
C1415 C1399 1.349 . S
C1415 H1407 0.950 . S
C1415 C1413 1.327 . S
C1416 C1404 1.349 . S
C1416 H1410 0.950 . S
C1416 C1417 1.327 . S
C1417 H1411 0.950 . S
C1417 C1416 1.327 . S
C1417 C1421 1.429 . S
C1418 C1401 1.574 . S
C1418 H1412 0.949 . S
C1418 C1422 1.368 . S
C1419 C1400 1.429 . S
C1419 C1413 1.429 . S
C1419 C1420 1.523 . S
C1420 C1401 1.368 . S
C1420 C1414 1.368 . S
C1420 C1419 1.523 . S
C1421 C1405 1.429 . S
C1421 C1417 1.429 . S
C1421 C1422 1.523 . S
C1422 C1406 1.368 . S
C1422 C1418 1.368 . S
C1422 C1421 1.523 . S
H1423 C1398 0.950 . S
H1424 C1400 0.950 . S
H1425 C1401 0.949 . S
H1426 C1403 0.950 . S
H1427 C1405 0.950 . S
C1428 C1429 1.349 . S
C1428 C1430 1.327 . S
C1428 H1453 0.950 . S
C1429 C1428 1.349 . S
C1429 C1445 1.349 . S
C1430 C1428 1.327 . S
C1430 C1449 1.429 . S
C1430 H1454 0.950 . S
C1431 C1448 1.574 . S
C1431 C1450 1.368 . S
C1431 H1455 0.949 . S
H1432 C1436 0.949 . S
C1433 C1434 1.349 . S
C1433 C1435 1.327 . S
C1433 H1456 0.950 . S
C1434 C1433 1.349 . S
C1434 C1446 1.349 . S
C1435 C1433 1.327 . S
C1435 C1451 1.429 . S
C1435 H1457 0.950 . S
C1436 H1432 0.949 . S
C1436 C1444 1.574 . S
C1436 C1452 1.368 . S
H1437 C1445 0.950 . S
H1438 C1443 0.950 . S
H1439 C1444 0.949 . S
H1440 C1446 0.950 . S
H1441 C1447 0.950 . S
H1442 C1448 0.949 . S
C1443 H1438 0.950 . S
C1443 C1445 1.327 . S
C1443 C1449 1.429 . S
C1444 C1436 1.574 . S
C1444 H1439 0.949 . S
C1444 C1450 1.368 . S
C1445 C1429 1.349 . S
C1445 H1437 0.950 . S
C1445 C1443 1.327 . S
C1446 C1434 1.349 . S
C1446 H1440 0.950 . S
C1446 C1447 1.327 . S
C1447 H1441 0.950 . S
C1447 C1446 1.327 . S
C1447 C1451 1.429 . S
C1448 C1431 1.574 . S
C1448 H1442 0.949 . S
C1448 C1452 1.368 . S
C1449 C1430 1.429 . S
C1449 C1443 1.429 . S
C1449 C1450 1.523 . S
C1450 C1431 1.368 . S
C1450 C1444 1.368 . S
C1450 C1449 1.523 . S
C1451 C1435 1.429 . S
C1451 C1447 1.429 . S
C1451 C1452 1.523 . S
C1452 C1436 1.368 . S
C1452 C1448 1.368 . S
C1452 C1451 1.523 . S
H1453 C1428 0.950 . S
H1454 C1430 0.950 . S
H1455 C1431 0.949 . S
H1456 C1433 0.950 . S
H1457 C1435 0.950 . S
C1458 C1459 1.349 . S
C1458 C1460 1.327 . S
C1458 H1483 0.950 . S
C1459 C1458 1.349 . S
C1459 C1475 1.349 . S
C1460 C1458 1.327 . S
C1460 C1479 1.429 . S
C1460 H1484 0.950 . S
C1461 C1478 1.574 . S
C1461 C1480 1.368 . S
C1461 H1485 0.949 . S
H1462 C1466 0.949 . S
C1463 C1464 1.349 . S
C1463 C1465 1.327 . S
C1463 H1486 0.950 . S
C1464 C1463 1.349 . S
C1464 C1476 1.349 . S
C1465 C1463 1.327 . S
C1465 C1481 1.429 . S
C1465 H1487 0.950 . S
C1466 H1462 0.949 . S
C1466 C1474 1.574 . S
C1466 C1482 1.368 . S
H1467 C1475 0.950 . S
H1468 C1473 0.950 . S
H1469 C1474 0.949 . S
H1470 C1476 0.950 . S
H1471 C1477 0.950 . S
H1472 C1478 0.949 . S
C1473 H1468 0.950 . S
C1473 C1475 1.327 . S
C1473 C1479 1.429 . S
C1474 C1466 1.574 . S
C1474 H1469 0.949 . S
C1474 C1480 1.368 . S
C1475 C1459 1.349 . S
C1475 H1467 0.950 . S
C1475 C1473 1.327 . S
C1476 C1464 1.349 . S
C1476 H1470 0.950 . S
C1476 C1477 1.327 . S
C1477 H1471 0.950 . S
C1477 C1476 1.327 . S
C1477 C1481 1.429 . S
C1478 C1461 1.574 . S
C1478 H1472 0.949 . S
C1478 C1482 1.368 . S
C1479 C1460 1.429 . S
C1479 C1473 1.429 . S
C1479 C1480 1.523 . S
C1480 C1461 1.368 . S
C1480 C1474 1.368 . S
C1480 C1479 1.523 . S
C1481 C1465 1.429 . S
C1481 C1477 1.429 . S
C1481 C1482 1.523 . S
C1482 C1466 1.368 . S
C1482 C1478 1.368 . S
C1482 C1481 1.523 . S
H1483 C1458 0.950 . S
H1484 C1460 0.950 . S
H1485 C1461 0.949 . S
H1486 C1463 0.950 . S
H1487 C1465 0.950 . S
C1488 C1489 1.349 . S
C1488 C1490 1.327 . S
C1488 H1513 0.950 . S
C1489 C1488 1.349 . S
C1489 C1505 1.349 . S
C1490 C1488 1.327 . S
C1490 C1509 1.429 . S
C1490 H1514 0.950 . S
C1491 C1508 1.574 . S
C1491 C1510 1.368 . S
C1491 H1515 0.949 . S
H1492 C1496 0.949 . S
C1493 C1494 1.349 . S
C1493 C1495 1.327 . S
C1493 H1516 0.950 . S
C1494 C1493 1.349 . S
C1494 C1506 1.349 . S
C1495 C1493 1.327 . S
C1495 C1511 1.429 . S
C1495 H1517 0.950 . S
C1496 H1492 0.949 . S
C1496 C1504 1.574 . S
C1496 C1512 1.368 . S
H1497 C1505 0.950 . S
H1498 C1503 0.950 . S
H1499 C1504 0.949 . S
H1500 C1506 0.950 . S
H1501 C1507 0.950 . S
H1502 C1508 0.949 . S
C1503 H1498 0.950 . S
C1503 C1505 1.327 . S
C1503 C1509 1.429 . S
C1504 C1496 1.574 . S
C1504 H1499 0.949 . S
C1504 C1510 1.368 . S
C1505 C1489 1.349 . S
C1505 H1497 0.950 . S
C1505 C1503 1.327 . S
C1506 C1494 1.349 . S
C1506 H1500 0.950 . S
C1506 C1507 1.327 . S
C1507 H1501 0.950 . S
C1507 C1506 1.327 . S
C1507 C1511 1.429 . S
C1508 C1491 1.574 . S
C1508 H1502 0.949 . S
C1508 C1512 1.368 . S
C1509 C1490 1.429 . S
C1509 C1503 1.429 . S
C1509 C1510 1.523 . S
C1510 C1491 1.368 . S
C1510 C1504 1.368 . S
C1510 C1509 1.523 . S
C1511 C1495 1.429 . S
C1511 C1507 1.429 . S
C1511 C1512 1.523 . S
C1512 C1496 1.368 . S
C1512 C1508 1.368 . S
C1512 C1511 1.523 . S
H1513 C1488 0.950 . S
H1514 C1490 0.950 . S
H1515 C1491 0.949 . S
H1516 C1493 0.950 . S
H1517 C1495 0.950 . S
C1518 C1519 1.349 . S
C1518 C1520 1.327 . S
C1518 H1543 0.950 . S
C1519 C1518 1.349 . S
C1519 C1535 1.349 . S
C1520 C1518 1.327 . S
C1520 C1539 1.429 . S
C1520 H1544 0.950 . S
C1521 C1538 1.574 . S
C1521 C1540 1.368 . S
C1521 H1545 0.949 . S
H1522 C1526 0.949 . S
C1523 C1524 1.349 . S
C1523 C1525 1.327 . S
C1523 H1546 0.950 . S
C1524 C1523 1.349 . S
C1524 C1536 1.349 . S
C1525 C1523 1.327 . S
C1525 C1541 1.429 . S
C1525 H1547 0.950 . S
C1526 H1522 0.949 . S
C1526 C1534 1.574 . S
C1526 C1542 1.368 . S
H1527 C1535 0.950 . S
H1528 C1533 0.950 . S
H1529 C1534 0.949 . S
H1530 C1536 0.950 . S
H1531 C1537 0.950 . S
H1532 C1538 0.949 . S
C1533 H1528 0.950 . S
C1533 C1535 1.327 . S
C1533 C1539 1.429 . S
C1534 C1526 1.574 . S
C1534 H1529 0.949 . S
C1534 C1540 1.368 . S
C1535 C1519 1.349 . S
C1535 H1527 0.950 . S
C1535 C1533 1.327 . S
C1536 C1524 1.349 . S
C1536 H1530 0.950 . S
C1536 C1537 1.327 . S
C1537 H1531 0.950 . S
C1537 C1536 1.327 . S
C1537 C1541 1.429 . S
C1538 C1521 1.574 . S
C1538 H1532 0.949 . S
C1538 C1542 1.368 . S
C1539 C1520 1.429 . S
C1539 C1533 1.429 . S
C1539 C1540 1.523 . S
C1540 C1521 1.368 . S
C1540 C1534 1.368 . S
C1540 C1539 1.523 . S
C1541 C1525 1.429 . S
C1541 C1537 1.429 . S
C1541 C1542 1.523 . S
C1542 C1526 1.368 . S
C1542 C1538 1.368 . S
C1542 C1541 1.523 . S
H1543 C1518 0.950 . S
H1544 C1520 0.950 . S
H1545 C1521 0.949 . S
H1546 C1523 0.950 . S
H1547 C1525 0.950 . S
C1548 C1549 1.349 . S
C1548 C1550 1.327 . S
C1548 H1573 0.950 . S
C1549 C1548 1.349 . S
C1549 C1565 1.349 . S
C1550 C1548 1.327 . S
C1550 C1569 1.429 . S
C1550 H1574 0.950 . S
C1551 C1568 1.574 . S
C1551 C1570 1.368 . S
C1551 H1575 0.949 . S
H1552 C1556 0.949 . S
C1553 C1554 1.349 . S
C1553 C1555 1.327 . S
C1553 H1576 0.950 . S
C1554 C1553 1.349 . S
C1554 C1566 1.349 . S
C1555 C1553 1.327 . S
C1555 C1571 1.429 . S
C1555 H1577 0.950 . S
C1556 H1552 0.949 . S
C1556 C1564 1.574 . S
C1556 C1572 1.368 . S
H1557 C1565 0.950 . S
H1558 C1563 0.950 . S
H1559 C1564 0.949 . S
H1560 C1566 0.950 . S
H1561 C1567 0.950 . S
H1562 C1568 0.949 . S
C1563 H1558 0.950 . S
C1563 C1565 1.327 . S
C1563 C1569 1.429 . S
C1564 C1556 1.574 . S
C1564 H1559 0.949 . S
C1564 C1570 1.368 . S
C1565 C1549 1.349 . S
C1565 H1557 0.950 . S
C1565 C1563 1.327 . S
C1566 C1554 1.349 . S
C1566 H1560 0.950 . S
C1566 C1567 1.327 . S
C1567 H1561 0.950 . S
C1567 C1566 1.327 . S
C1567 C1571 1.429 . S
C1568 C1551 1.574 . S
C1568 H1562 0.949 . S
C1568 C1572 1.368 . S
C1569 C1550 1.429 . S
C1569 C1563 1.429 . S
C1569 C1570 1.523 . S
C1570 C1551 1.368 . S
C1570 C1564 1.368 . S
C1570 C1569 1.523 . S
C1571 C1555 1.429 . S
C1571 C1567 1.429 . S
C1571 C1572 1.523 . S
C1572 C1556 1.368 . S
C1572 C1568 1.368 . S
C1572 C1571 1.523 . S
H1573 C1548 0.950 . S
H1574 C1550 0.950 . S
H1575 C1551 0.949 . S
H1576 C1553 0.950 . S
H1577 C1555 0.950 . S
C1578 C1579 1.349 . S
C1578 C1580 1.327 . S
C1578 H1603 0.950 . S
C1579 C1578 1.349 . S
C1579 C1595 1.349 . S
C1580 C1578 1.327 . S
C1580 C1599 1.429 . S
C1580 H1604 0.950 . S
C1581 C1598 1.574 . S
C1581 C1600 1.368 . S
C1581 H1605 0.949 . S
H1582 C1586 0.949 . S
C1583 C1584 1.349 . S
C1583 C1585 1.327 . S
C1583 H1606 0.950 . S
C1584 C1583 1.349 . S
C1584 C1596 1.349 . S
C1585 C1583 1.327 . S
C1585 C1601 1.429 . S
C1585 H1607 0.950 . S
C1586 H1582 0.949 . S
C1586 C1594 1.574 . S
C1586 C1602 1.368 . S
H1587 C1595 0.950 . S
H1588 C1593 0.950 . S
H1589 C1594 0.949 . S
H1590 C1596 0.950 . S
H1591 C1597 0.950 . S
H1592 C1598 0.949 . S
C1593 H1588 0.950 . S
C1593 C1595 1.327 . S
C1593 C1599 1.429 . S
C1594 C1586 1.574 . S
C1594 H1589 0.949 . S
C1594 C1600 1.368 . S
C1595 C1579 1.349 . S
C1595 H1587 0.950 . S
C1595 C1593 1.327 . S
C1596 C1584 1.349 . S
C1596 H1590 0.950 . S
C1596 C1597 1.327 . S
C1597 H1591 0.950 . S
C1597 C1596 1.327 . S
C1597 C1601 1.429 . S
C1598 C1581 1.574 . S
C1598 H1592 0.949 . S
C1598 C1602 1.368 . S
C1599 C1580 1.429 . S
C1599 C1593 1.429 . S
C1599 C1600 1.523 . S
C1600 C1581 1.368 . S
C1600 C1594 1.368 . S
C1600 C1599 1.523 . S
C1601 C1585 1.429 . S
C1601 C1597 1.429 . S
C1601 C1602 1.523 . S
C1602 C1586 1.368 . S
C1602 C1598 1.368 . S
C1602 C1601 1.523 . S
H1603 C1578 0.950 . S
H1604 C1580 0.950 . S
H1605 C1581 0.949 . S
H1606 C1583 0.950 . S
H1607 C1585 0.950 . S
C1608 C1609 1.349 . S
C1608 C1610 1.327 . S
C1608 H1633 0.950 . S
C1609 C1608 1.349 . S
C1609 C1625 1.349 . S
C1610 C1608 1.327 . S
C1610 C1629 1.429 . S
C1610 H1634 0.950 . S
C1611 C1628 1.574 . S
C1611 C1630 1.368 . S
C1611 H1635 0.949 . S
H1612 C1616 0.949 . S
C1613 C1614 1.349 . S
C1613 C1615 1.327 . S
C1613 H1636 0.950 . S
C1614 C1613 1.349 . S
C1614 C1626 1.349 . S
C1615 C1613 1.327 . S
C1615 C1631 1.429 . S
C1615 H1637 0.950 . S
C1616 H1612 0.949 . S
C1616 C1624 1.574 . S
C1616 C1632 1.368 . S
H1617 C1625 0.950 . S
H1618 C1623 0.950 . S
H1619 C1624 0.949 . S
H1620 C1626 0.950 . S
H1621 C1627 0.950 . S
H1622 C1628 0.949 . S
C1623 H1618 0.950 . S
C1623 C1625 1.327 . S
C1623 C1629 1.429 . S
C1624 C1616 1.574 . S
C1624 H1619 0.949 . S
C1624 C1630 1.368 . S
C1625 C1609 1.349 . S
C1625 H1617 0.950 . S
C1625 C1623 1.327 . S
C1626 C1614 1.349 . S
C1626 H1620 0.950 . S
C1626 C1627 1.327 . S
C1627 H1621 0.950 . S
C1627 C1626 1.327 . S
C1627 C1631 1.429 . S
C1628 C1611 1.574 . S
C1628 H1622 0.949 . S
C1628 C1632 1.368 . S
C1629 C1610 1.429 . S
C1629 C1623 1.429 . S
C1629 C1630 1.523 . S
C1630 C1611 1.368 . S
C1630 C1624 1.368 . S
C1630 C1629 1.523 . S
C1631 C1615 1.429 . S
C1631 C1627 1.429 . S
C1631 C1632 1.523 . S
C1632 C1616 1.368 . S
C1632 C1628 1.368 . S
C1632 C1631 1.523 . S
H1633 C1608 0.950 . S
H1634 C1610 0.950 . S
H1635 C1611 0.949 . S
H1636 C1613 0.950 . S
H1637 C1615 0.950 . S
C1638 C1639 1.349 . S
C1638 C1640 1.327 . S
C1638 H1663 0.950 . S
C1639 C1638 1.349 . S
C1639 C1655 1.349 . S
C1640 C1638 1.327 . S
C1640 C1659 1.429 . S
C1640 H1664 0.950 . S
C1641 C1658 1.574 . S
C1641 C1660 1.368 . S
C1641 H1665 0.949 . S
H1642 C1646 0.949 . S
C1643 C1644 1.349 . S
C1643 C1645 1.327 . S
C1643 H1666 0.950 . S
C1644 C1643 1.349 . S
C1644 C1656 1.349 . S
C1645 C1643 1.327 . S
C1645 C1661 1.429 . S
C1645 H1667 0.950 . S
C1646 H1642 0.949 . S
C1646 C1654 1.574 . S
C1646 C1662 1.368 . S
H1647 C1655 0.950 . S
H1648 C1653 0.950 . S
H1649 C1654 0.949 . S
H1650 C1656 0.950 . S
H1651 C1657 0.950 . S
H1652 C1658 0.949 . S
C1653 H1648 0.950 . S
C1653 C1655 1.327 . S
C1653 C1659 1.429 . S
C1654 C1646 1.574 . S
C1654 H1649 0.949 . S
C1654 C1660 1.368 . S
C1655 C1639 1.349 . S
C1655 H1647 0.950 . S
C1655 C1653 1.327 . S
C1656 C1644 1.349 . S
C1656 H1650 0.950 . S
C1656 C1657 1.327 . S
C1657 H1651 0.950 . S
C1657 C1656 1.327 . S
C1657 C1661 1.429 . S
C1658 C1641 1.574 . S
C1658 H1652 0.949 . S
C1658 C1662 1.368 . S
C1659 C1640 1.429 . S
C1659 C1653 1.429 . S
C1659 C1660 1.523 . S
C1660 C1641 1.368 . S
C1660 C1654 1.368 . S
C1660 C1659 1.523 . S
C1661 C1645 1.429 . S
C1661 C1657 1.429 . S
C1661 C1662 1.523 . S
C1662 C1646 1.368 . S
C1662 C1658 1.368 . S
C1662 C1661 1.523 . S
H1663 C1638 0.950 . S
H1664 C1640 0.950 . S
H1665 C1641 0.949 . S
H1666 C1643 0.950 . S
H1667 C1645 0.950 . S
C1668 C1669 1.349 . S
C1668 C1670 1.327 . S
C1668 H1693 0.950 . S
C1669 C1668 1.349 . S
C1669 C1685 1.349 . S
C1670 C1668 1.327 . S
C1670 C1689 1.429 . S
C1670 H1694 0.950 . S
C1671 C1688 1.574 . S
C1671 C1690 1.368 . S
C1671 H1695 0.949 . S
H1672 C1676 0.949 . S
C1673 C1674 1.349 . S
C1673 C1675 1.327 . S
C1673 H1696 0.950 . S
C1674 C1673 1.349 . S
C1674 C1686 1.349 . S
C1675 C1673 1.327 . S
C1675 C1691 1.429 . S
C1675 H1697 0.950 . S
C1676 H1672 0.949 . S
C1676 C1684 1.574 . S
C1676 C1692 1.368 . S
H1677 C1685 0.950 . S
H1678 C1683 0.950 . S
H1679 C1684 0.949 . S
H1680 C1686 0.950 . S
H1681 C1687 0.950 . S
H1682 C1688 0.949 . S
C1683 H1678 0.950 . S
C1683 C1685 1.327 . S
C1683 C1689 1.429 . S
C1684 C1676 1.574 . S
C1684 H1679 0.949 . S
C1684 C1690 1.368 . S
C1685 C1669 1.349 . S
C1685 H1677 0.950 . S
C1685 C1683 1.327 . S
C1686 C1674 1.349 . S
C1686 H1680 0.950 . S
C1686 C1687 1.327 . S
C1687 H1681 0.950 . S
C1687 C1686 1.327 . S
C1687 C1691 1.429 . S
C1688 C1671 1.574 . S
C1688 H1682 0.949 . S
C1688 C1692 1.368 . S
C1689 C1670 1.429 . S
C1689 C1683 1.429 . S
C1689 C1690 1.523 . S
C1690 C1671 1.368 . S
C1690 C1684 1.368 . S
C1690 C1689 1.523 . S
C1691 C1675 1.429 . S
C1691 C1687 1.429 . S
C1691 C1692 1.523 . S
C1692 C1676 1.368 . S
C1692 C1688 1.368 . S
C1692 C1691 1.523 . S
H1693 C1668 0.950 . S
H1694 C1670 0.950 . S
H1695 C1671 0.949 . S
H1696 C1673 0.950 . S
H1697 C1675 0.950 . S
C1698 C1699 1.349 . S
C1698 C1700 1.327 . S
C1698 H1723 0.950 . S
C1699 C1698 1.349 . S
C1699 C1715 1.349 . S
C1700 C1698 1.327 . S
C1700 C1719 1.429 . S
C1700 H1724 0.950 . S
C1701 C1718 1.574 . S
C1701 C1720 1.368 . S
C1701 H1725 0.949 . S
H1702 C1706 0.949 . S
C1703 C1704 1.349 . S
C1703 C1705 1.327 . S
C1703 H1726 0.950 . S
C1704 C1703 1.349 . S
C1704 C1716 1.349 . S
C1705 C1703 1.327 . S
C1705 C1721 1.429 . S
C1705 H1727 0.950 . S
C1706 H1702 0.949 . S
C1706 C1714 1.574 . S
C1706 C1722 1.368 . S
H1707 C1715 0.950 . S
H1708 C1713 0.950 . S
H1709 C1714 0.949 . S
H1710 C1716 0.950 . S
H1711 C1717 0.950 . S
H1712 C1718 0.949 . S
C1713 H1708 0.950 . S
C1713 C1715 1.327 . S
C1713 C1719 1.429 . S
C1714 C1706 1.574 . S
C1714 H1709 0.949 . S
C1714 C1720 1.368 . S
C1715 C1699 1.349 . S
C1715 H1707 0.950 . S
C1715 C1713 1.327 . S
C1716 C1704 1.349 . S
C1716 H1710 0.950 . S
C1716 C1717 1.327 . S
C1717 H1711 0.950 . S
C1717 C1716 1.327 . S
C1717 C1721 1.429 . S
C1718 C1701 1.574 . S
C1718 H1712 0.949 . S
C1718 C1722 1.368 . S
C1719 C1700 1.429 . S
C1719 C1713 1.429 . S
C1719 C1720 1.523 . S
C1720 C1701 1.368 . S
C1720 C1714 1.368 . S
C1720 C1719 1.523 . S
C1721 C1705 1.429 . S
C1721 C1717 1.429 . S
C1721 C1722 1.523 . S
C1722 C1706 1.368 . S
C1722 C1718 1.368 . S
C1722 C1721 1.523 . S
H1723 C1698 0.950 . S
H1724 C1700 0.950 . S
H1725 C1701 0.949 . S
H1726 C1703 0.950 . S
H1727 C1705 0.950 . S
C529 N398 1.423 . S
C534 N13 1.420 . S
C559 N46 1.388 . S
C564 N431 1.390 . S
C589 N68 1.416 . S
C594 N475 1.424 . S
C619 N112 1.393 . S
C624 N497 1.395 . S
C649 N266 1.383 . S
C654 N145 1.381 . S
C679 N310 1.418 . S
C684 N167 1.410 . S
C709 N200 1.377 . S
C714 N343 1.384 . S
C739 N376 1.413 . S
C744 N233 1.405 . S
C769 C21 1.031 . S
C774 C483 1.031 . S
C799 C516 1.081 . S
C804 C54 1.081 . S
C829 C417 1.042 . S
C834 C87 1.042 . S
C859 C450 1.075 . S
C864 C120 1.075 . S
C889 C351 1.022 . S
C894 C153 1.022 . S
C919 C384 0.985 . S
C924 C186 0.985 . S
C949 C285 1.033 . S
C954 C219 1.033 . S
C979 C318 0.991 . S
C984 C252 0.990 . S
C1009 C7 1.099 . S
C1014 C348 1.140 . S
C1039 C381 1.109 . S
C1044 C40 1.083 . S
C1069 C271 1.117 . S
C1074 C84 1.110 . S
C1099 C315 1.166 . S
C1104 C106 1.137 . S
C1129 C139 1.102 . S
C1134 C480 1.144 . S
C1159 C183 1.131 . S
C1164 C502 1.153 . S
C1189 C403 1.116 . S
C1194 C216 1.110 . S
C1219 C249 1.074 . S
C1224 C436 1.095 . S
C1249 N409 1.797 . S
C1254 N2 1.789 . S
C1279 N35 1.822 . S
C1284 N442 1.829 . S
C1309 N79 1.797 . S
C1314 N464 1.797 . S
C1339 N508 1.826 . S
C1344 N101 1.818 . S
C1369 N277 1.869 . S
C1374 N134 1.862 . S
C1399 N178 1.836 . S
C1404 N299 1.835 . S
C1429 N332 1.869 . S
C1434 N211 1.871 . S
C1459 N365 1.838 . S
C1464 N244 1.839 . S
C1489 C172 1.213 . S
C1494 C18 1.221 . S
C1519 C205 1.281 . S
C1524 C51 1.290 . S
C1549 C73 1.224 . S
C1554 C238 1.227 . S
C1579 C150 1.284 . S
C1584 C117 1.279 . S
C1609 C282 1.092 . S
C1614 C447 1.096 . S
C1639 C469 1.091 . S
C1644 C304 1.086 . S
C1669 C513 1.140 . S
C1674 C337 1.143 . S
C1699 C370 1.041 . S
C1704 C414 1.039 . S
