# Generated by pormake.
# Topology unf, (4)-cn, num edge types: 1
# Building blocks:
#     Node 0, Type 0, BuildingBlock: UXUYUI_clean_sbu_0, # of connection points: 4
#     Node 1, Type 0, BuildingBlock: UXUYUI_clean_sbu_0, # of connection points: 4
#     Node 2, Type 0, BuildingBlock: UXUYUI_clean_sbu_0, # of connection points: 4
#     Node 3, Type 0, BuildingBlock: UXUYUI_clean_sbu_0, # of connection points: 4
#     Node 4, Type 0, BuildingBlock: UXUYUI_clean_sbu_0, # of connection points: 4
#     Node 5, Type 0, BuildingBlock: UXUYUI_clean_sbu_0, # of connection points: 4
#     Node 6, Type 0, BuildingBlock: UXUYUI_clean_sbu_0, # of connection points: 4
#     Node 7, Type 0, BuildingBlock: UXUYUI_clean_sbu_0, # of connection points: 4
#     Node 8, Type 0, BuildingBlock: UXUYUI_clean_sbu_0, # of connection points: 4
#     Node 9, Type 0, BuildingBlock: UXUYUI_clean_sbu_0, # of connection points: 4
#     Node 10, Type 0, BuildingBlock: UXUYUI_clean_sbu_0, # of connection points: 4
#     Node 11, Type 0, BuildingBlock: UXUYUI_clean_sbu_0, # of connection points: 4
#     Edge 12, Type (0, 0), BuildingBlock: UVAHIK_clean_linker_0, # of connection points: 2
#     Edge 13, Type (0, 0), BuildingBlock: UVAHIK_clean_linker_0, # of connection points: 2
#     Edge 14, Type (0, 0), BuildingBlock: UVAHIK_clean_linker_0, # of connection points: 2
#     Edge 15, Type (0, 0), BuildingBlock: UVAHIK_clean_linker_0, # of connection points: 2
#     Edge 16, Type (0, 0), BuildingBlock: UVAHIK_clean_linker_0, # of connection points: 2
#     Edge 17, Type (0, 0), BuildingBlock: UVAHIK_clean_linker_0, # of connection points: 2
#     Edge 18, Type (0, 0), BuildingBlock: UVAHIK_clean_linker_0, # of connection points: 2
#     Edge 19, Type (0, 0), BuildingBlock: UVAHIK_clean_linker_0, # of connection points: 2
#     Edge 20, Type (0, 0), BuildingBlock: UVAHIK_clean_linker_0, # of connection points: 2
#     Edge 21, Type (0, 0), BuildingBlock: UVAHIK_clean_linker_0, # of connection points: 2
#     Edge 22, Type (0, 0), BuildingBlock: UVAHIK_clean_linker_0, # of connection points: 2
#     Edge 23, Type (0, 0), BuildingBlock: UVAHIK_clean_linker_0, # of connection points: 2
#     Edge 24, Type (0, 0), BuildingBlock: UVAHIK_clean_linker_0, # of connection points: 2
#     Edge 25, Type (0, 0), BuildingBlock: UVAHIK_clean_linker_0, # of connection points: 2
#     Edge 26, Type (0, 0), BuildingBlock: UVAHIK_clean_linker_0, # of connection points: 2
#     Edge 27, Type (0, 0), BuildingBlock: UVAHIK_clean_linker_0, # of connection points: 2
#     Edge 28, Type (0, 0), BuildingBlock: UVAHIK_clean_linker_0, # of connection points: 2
#     Edge 29, Type (0, 0), BuildingBlock: UVAHIK_clean_linker_0, # of connection points: 2
#     Edge 30, Type (0, 0), BuildingBlock: UVAHIK_clean_linker_0, # of connection points: 2
#     Edge 31, Type (0, 0), BuildingBlock: UVAHIK_clean_linker_0, # of connection points: 2
#     Edge 32, Type (0, 0), BuildingBlock: UVAHIK_clean_linker_0, # of connection points: 2
#     Edge 33, Type (0, 0), BuildingBlock: UVAHIK_clean_linker_0, # of connection points: 2
#     Edge 34, Type (0, 0), BuildingBlock: UVAHIK_clean_linker_0, # of connection points: 2
#     Edge 35, Type (0, 0), BuildingBlock: UVAHIK_clean_linker_0, # of connection points: 2
# Relax obj value: 0.347
# Max RMSD: 0.227
# Mean RMSD: 0.226
data_MOF--net-unf--node1-UXUYUI_clean_sbu_0--edge1-UVAHIK_clean_linker_0
_symmetry_space_group_name_H-M    P1
_symmetry_Int_Tables_number       1
_symmetry_cell_setting            triclinic
loop_
_symmetry_equiv_pos_as_xyz
'x, y, z'
_cell_length_a     65.881823
_cell_length_b     65.830857
_cell_length_c     63.090829
_cell_angle_alpha  90.090107
_cell_angle_beta   89.868519
_cell_angle_gamma 120.03728
loop_
_atom_site_label
_atom_site_type_symbol
_atom_site_fract_x
_atom_site_fract_y
_atom_site_fract_z
_atom_type_partial_charge
Li0 Li 0.02897 0.36983 0.09703 0.0
Li1 Li 0.04724 0.3516 0.12039 0.0
Li2 Li 0.04359 0.34539 0.08193 0.0
Li3 Li 0.00961 0.32826 0.10401 0.0
C4 C 0.0791 0.38872 0.0831 0.0
N5 N 0.11371 0.41335 0.05337 0.0
C6 C 0.10209 0.39385 0.08684 0.0
C7 C 0.07373 0.39619 0.06428 0.0
C8 C 0.11934 0.40631 0.07159 0.0
C9 C 0.09146 0.40861 0.04945 0.0
C10 C -0.00205 0.3456 0.1365 0.0
C11 C 0.97001 0.31836 0.16168 0.0
N12 N 0.95603 0.32777 0.15831 0.0
C13 C 0.98343 0.35518 0.13347 0.0
C14 C 0.99132 0.32721 0.15089 0.0
C15 C 0.96227 0.34586 0.14457 0.0
C16 C 0.00467 0.391 0.08181 0.0
N17 N 0.02536 0.39583 0.09069 0.0
C18 C 0.04216 0.43655 0.0827 0.0
C19 C 0.04379 0.4181 0.09184 0.0
C20 C 0.02135 0.4319 0.07245 0.0
C21 C 0.0022 0.40889 0.07266 0.0
H22 H 0.99046 0.37303 0.08093 0.0
H23 H 0.06014 0.42133 0.09878 0.0
C24 C 0.0871 0.35482 0.13752 0.0
N25 N 0.06757 0.35559 0.14305 0.0
C26 C 0.10316 0.35695 0.15292 0.0
C27 C 0.07832 0.35989 0.17961 0.0
C28 C 0.06284 0.35806 0.16357 0.0
C29 C 0.09882 0.35945 0.17427 0.0
H30 H 0.08998 0.3522 0.12111 0.0
H31 H 0.04697 0.35831 0.16748 0.0
C32 C 0.00099 0.32861 0.06073 0.0
N33 N 0.9743 0.29641 0.02991 0.0
C34 C 0.00112 0.30752 0.05883 0.0
C35 C 0.98732 0.33335 0.04692 0.0
C36 C 0.9875 0.29146 0.04317 0.0
C37 C 0.97395 0.31684 0.03144 0.0
C38 C 0.03433 0.30241 0.11245 0.0
C39 C 0.03553 0.28622 0.0989 0.0
C40 C 0.03149 0.29799 0.13423 0.0
C41 C 0.03355 0.2657 0.10735 0.0
C42 C 0.0296 0.27728 0.14207 0.0
N43 N 0.03064 0.26169 0.12859 0.0
C44 C 0.07634 0.33624 0.06395 0.0
C45 C 0.05612 0.34564 0.03823 0.0
C46 C 0.09029 0.33446 0.04831 0.0
N47 N 0.05975 0.3418 0.05869 0.0
C48 C 0.06972 0.34401 0.022 0.0
C49 C 0.08723 0.33857 0.02702 0.0
H50 H 0.07889 0.33349 0.0804 0.0
H51 H 0.04304 0.35043 0.03457 0.0
C52 C 0.96148 0.30664 0.09992 0.0
N53 N 0.97854 0.30179 0.1054 0.0
C54 C 0.93881 0.28854 0.09575 0.0
C55 C 0.95131 0.26059 0.1037 0.0
C56 C 0.97376 0.2793 0.10793 0.0
C57 C 0.9337 0.26513 0.0968 0.0
H58 H 0.96586 0.32464 0.09752 0.0
H59 H 0.98753 0.27569 0.11192 0.0
O60 O 0.06178 0.37593 0.09751 0.0
O61 O 0.01858 0.35431 0.12553 0.0
O62 O 0.01366 0.34435 0.07633 0.0
O63 O 0.03639 0.32263 0.10438 0.0
H64 H 0.1066 0.38829 0.10132 0.0
H65 H 0.05595 0.39203 0.06097 0.0
H66 H 0.13719 0.41035 0.07425 0.0
H67 H 0.08751 0.41435 0.03476 0.0
H68 H 0.96459 0.304 0.17274 0.0
H69 H 0.9884 0.36959 0.1226 0.0
H70 H 0.00241 0.31974 0.15361 0.0
H71 H 0.9508 0.35301 0.14227 0.0
H72 H 0.05726 0.45409 0.08297 0.0
H73 H 0.98596 0.40449 0.0647 0.0
H74 H 0.11855 0.35609 0.14824 0.0
H75 H 0.0744 0.36174 0.19594 0.0
H76 H 0.01148 0.3035 0.06942 0.0
H77 H 0.98698 0.34957 0.04818 0.0
H78 H 0.98739 0.27504 0.04159 0.0
H79 H 0.96325 0.32026 0.02067 0.0
H80 H 0.03794 0.28944 0.08201 0.0
H81 H 0.03081 0.3104 0.14498 0.0
H82 H 0.03436 0.25298 0.09704 0.0
H83 H 0.02735 0.27363 0.15889 0.0
H84 H 0.10331 0.32985 0.05286 0.0
H85 H 0.06696 0.3475 0.00581 0.0
H86 H 0.92571 0.29288 0.09079 0.0
H87 H 0.94827 0.24285 0.1045 0.0
Li88 Li 0.65419 0.69636 0.11391 0.0
Li89 Li 0.63942 0.65922 0.09127 0.0
Li90 Li 0.68049 0.68468 0.09854 0.0
Li91 Li 0.66162 0.69801 0.07517 0.0
C92 C 0.66339 0.65799 0.13441 0.0
N93 N 0.68029 0.6396 0.16431 0.0
C94 C 0.66551 0.63842 0.12952 0.0
C95 C 0.66971 0.66812 0.15455 0.0
C96 C 0.67416 0.62942 0.14484 0.0
C97 C 0.67824 0.65857 0.16944 0.0
C98 C 0.61997 0.69477 0.07988 0.0
C99 C 0.59051 0.69314 0.05613 0.0
N100 N 0.5997 0.71669 0.05836 0.0
C101 C 0.62904 0.71894 0.08196 0.0
C102 C 0.6005 0.68174 0.06686 0.0
C103 C 0.61859 0.7297 0.07095 0.0
C104 C 0.65674 0.73478 0.13504 0.0
N105 N 0.64739 0.71115 0.1365 0.0
C106 C 0.62903 0.7104 0.16946 0.0
C107 C 0.63375 0.69881 0.15324 0.0
C108 C 0.63806 0.73471 0.16802 0.0
C109 C 0.65206 0.74693 0.15058 0.0
H110 H 0.6679 0.74421 0.12178 0.0
H111 H 0.62658 0.68003 0.15398 0.0
C112 C 0.62232 0.61233 0.0804 0.0
N113 N 0.61541 0.62774 0.0865 0.0
C114 C 0.60625 0.59086 0.07143 0.0
C115 C 0.57596 0.60096 0.07626 0.0
C116 C 0.59259 0.62213 0.08547 0.0
C117 C 0.58292 0.58538 0.06833 0.0
H118 H 0.64065 0.61742 0.08108 0.0
H119 H 0.58761 0.63473 0.09052 0.0
C120 C 0.70536 0.72875 0.10721 0.0
N121 N 0.74961 0.75223 0.12501 0.0
C122 C 0.72527 0.73949 0.09424 0.0
C123 C 0.70802 0.72994 0.12924 0.0
C124 C 0.74747 0.75126 0.10354 0.0
C125 C 0.73052 0.74192 0.13792 0.0
C126 C 0.65897 0.66033 0.05152 0.0
C127 C 0.67377 0.65536 0.03942 0.0
C128 C 0.63649 0.65344 0.04405 0.0
C129 C 0.66598 0.64401 0.01991 0.0
C130 C 0.62929 0.64206 0.02451 0.0
N131 N 0.64408 0.63764 0.01292 0.0
C132 C 0.72059 0.68382 0.11885 0.0
C133 C 0.72045 0.68929 0.08177 0.0
C134 C 0.74232 0.68487 0.11744 0.0
N135 N 0.70993 0.68555 0.10102 0.0
C136 C 0.74207 0.69064 0.07965 0.0
C137 C 0.75327 0.6883 0.09758 0.0
H138 H 0.7125 0.68188 0.13415 0.0
H139 H 0.71213 0.69166 0.06802 0.0
C140 C 0.68343 0.73959 0.05181 0.0
N141 N 0.66549 0.71706 0.05071 0.0
C142 C 0.68749 0.75523 0.03532 0.0
C143 C 0.6542 0.72447 0.01683 0.0
C144 C 0.65079 0.70939 0.03373 0.0
C145 C 0.67279 0.74775 0.01749 0.0
H146 H 0.69427 0.74566 0.06577 0.0
H147 H 0.63602 0.69182 0.03339 0.0
O148 O 0.65466 0.66686 0.11975 0.0
O149 O 0.63042 0.6841 0.09018 0.0
O150 O 0.68345 0.71639 0.09845 0.0
O151 O 0.66598 0.67052 0.07112 0.0
H152 H 0.66072 0.6304 0.11402 0.0
H153 H 0.66811 0.68321 0.15863 0.0
H154 H 0.67601 0.61436 0.14124 0.0
H155 H 0.68326 0.66626 0.18507 0.0
H156 H 0.5755 0.68327 0.04595 0.0
H157 H 0.64437 0.72939 0.09153 0.0
H158 H 0.59324 0.66307 0.06484 0.0
H159 H 0.6256 0.74843 0.07229 0.0
H160 H 0.61819 0.7005 0.18277 0.0
H161 H 0.65956 0.76574 0.14915 0.0
H162 H 0.61234 0.5792 0.06606 0.0
H163 H 0.55825 0.59763 0.07416 0.0
H164 H 0.72368 0.73831 0.07717 0.0
H165 H 0.69292 0.72144 0.13955 0.0
H166 H 0.763 0.75948 0.09369 0.0
H167 H 0.7328 0.74289 0.15494 0.0
H168 H 0.69102 0.65994 0.04507 0.0
H169 H 0.62467 0.65676 0.05329 0.0
H170 H 0.67729 0.64011 0.0104 0.0
H171 H 0.61192 0.63669 0.01859 0.0
H172 H 0.75057 0.68328 0.13168 0.0
H173 H 0.74977 0.69315 0.064 0.0
H174 H 0.70159 0.77322 0.03684 0.0
H175 H 0.64232 0.71799 0.00347 0.0
Li176 Li 0.29903 0.94607 0.12118 0.0
Li177 Li 0.33105 0.96663 0.09573 0.0
Li178 Li 0.30724 0.98301 0.10803 0.0
Li179 Li 0.2894 0.94865 0.08483 0.0
C180 C 0.34144 0.99681 0.13581 0.0
N181 N 0.36688 0.03894 0.15704 0.0
C182 C 0.36512 0.0117 0.13102 0.0
C183 C 0.33081 0.00319 0.15164 0.0
C184 C 0.37766 0.03296 0.14187 0.0
C185 C 0.34393 0.02461 0.16211 0.0
C186 C 0.30914 0.92013 0.07973 0.0
C187 C 0.32404 0.91872 0.0451 0.0
N188 N 0.31591 0.8954 0.04768 0.0
C189 C 0.30099 0.89615 0.08205 0.0
C190 C 0.3208 0.93151 0.06111 0.0
C191 C 0.30455 0.88395 0.06566 0.0
C192 C 0.27646 0.90198 0.14089 0.0
N193 N 0.28873 0.92539 0.14493 0.0
C194 C 0.28011 0.91856 0.18189 0.0
C195 C 0.29129 0.93387 0.16499 0.0
C196 C 0.26626 0.89434 0.17804 0.0
C197 C 0.26503 0.88606 0.15728 0.0
H198 H 0.27431 0.8958 0.12474 0.0
H199 H 0.3011 0.95257 0.16774 0.0
C200 C 0.37383 0.99499 0.0758 0.0
N201 N 0.36139 0.97425 0.08616 0.0
C202 C 0.39457 0.00035 0.06534 0.0
C203 C 0.38988 0.96333 0.07724 0.0
C204 C 0.36925 0.95875 0.08761 0.0
C205 C 0.40249 0.98411 0.06544 0.0
H206 H 0.36727 0.00709 0.07524 0.0
H207 H 0.3589 0.94233 0.09592 0.0
C208 C 0.25957 0.9446 0.12636 0.0
N209 N 0.2277 0.92328 0.15902 0.0
C210 C 0.24279 0.92072 0.12527 0.0
C211 C 0.26012 0.95756 0.14416 0.0
C212 C 0.22684 0.91029 0.14191 0.0
C213 C 0.24386 0.9465 0.16046 0.0
C214 C 0.30993 0.99205 0.06444 0.0
C215 C 0.28779 0.99002 0.06573 0.0
C216 C 0.32575 0.00639 0.04889 0.0
C217 C 0.28196 0.0026 0.0516 0.0
C218 C 0.31924 0.01866 0.03502 0.0
N219 N 0.29768 0.01656 0.03668 0.0
C220 C 0.32935 0.03189 0.10527 0.0
C221 C 0.28889 0.01361 0.11364 0.0
C222 C 0.33015 0.05311 0.10129 0.0
N223 N 0.30883 0.0126 0.11091 0.0
C224 C 0.28891 0.03451 0.10989 0.0
C225 C 0.30953 0.05437 0.10282 0.0
H226 H 0.34466 0.03033 0.10219 0.0
H227 H 0.27252 0.99782 0.117 0.0
C228 C 0.24492 0.92402 0.06484 0.0
N229 N 0.26841 0.93474 0.06137 0.0
C230 C 0.22921 0.91364 0.04812 0.0
C231 C 0.26211 0.92639 0.02426 0.0
C232 C 0.27717 0.93672 0.04144 0.0
C233 C 0.23778 0.91447 0.02756 0.0
H234 H 0.23831 0.92369 0.08054 0.0
H235 H 0.29583 0.94655 0.03873 0.0
O236 O 0.32883 0.97599 0.12523 0.0
O237 O 0.30593 0.93233 0.09577 0.0
O238 O 0.27577 0.95503 0.11045 0.0
O239 O 0.31626 0.9803 0.07843 0.0
H240 H 0.37376 0.00693 0.11908 0.0
H241 H 0.31258 0.99185 0.15567 0.0
H242 H 0.39596 0.0447 0.13825 0.0
H243 H 0.33586 0.02984 0.17427 0.0
H244 H 0.33303 0.92736 0.03062 0.0
H245 H 0.29208 0.887 0.09636 0.0
H246 H 0.32728 0.95004 0.05897 0.0
H247 H 0.29832 0.86538 0.06726 0.0
H248 H 0.28176 0.92567 0.19769 0.0
H249 H 0.25427 0.86761 0.1535 0.0
H250 H 0.40401 0.01681 0.05686 0.0
H251 H 0.39525 0.95025 0.07763 0.0
H252 H 0.24256 0.91009 0.1121 0.0
H253 H 0.27313 0.97591 0.14558 0.0
H254 H 0.21396 0.89179 0.14134 0.0
H255 H 0.24419 0.95634 0.17433 0.0
H256 H 0.27524 0.97896 0.07757 0.0
H257 H 0.34288 0.00806 0.04751 0.0
H258 H 0.26495 0.00129 0.05252 0.0
H259 H 0.33134 0.02987 0.02295 0.0
H260 H 0.3463 0.06779 0.09542 0.0
H261 H 0.27262 0.03471 0.11128 0.0
H262 H 0.21055 0.9047 0.05131 0.0
H263 H 0.2694 0.92793 0.00855 0.0
Li264 Li 0.66075 0.95372 0.4166 0.0
Li265 Li 0.67755 0.98545 0.39219 0.0
Li266 Li 0.63663 0.96864 0.40154 0.0
Li267 Li 0.65165 0.94677 0.37864 0.0
C268 C 0.6802 0.99785 0.43522 0.0
N269 N 0.71371 0.02486 0.46496 0.0
C270 C 0.70152 0.99809 0.43585 0.0
C271 C 0.67589 0.0113 0.44974 0.0
C272 C 0.71825 0.01188 0.45098 0.0
C273 C 0.69305 0.02484 0.46466 0.0
C274 C 0.70119 0.95888 0.38426 0.0
C275 C 0.72365 0.95983 0.35363 0.0
N276 N 0.74068 0.96108 0.36662 0.0
C277 C 0.71884 0.95996 0.3973 0.0
C278 C 0.70353 0.95864 0.36224 0.0
C279 C 0.7387 0.96116 0.38808 0.0
C280 C 0.67321 0.92473 0.43863 0.0
N281 N 0.66546 0.94018 0.44127 0.0
C282 C 0.66357 0.93489 0.47881 0.0
C283 C 0.66068 0.94548 0.46082 0.0
C284 C 0.67164 0.91889 0.47658 0.0
C285 C 0.67656 0.9139 0.45618 0.0
H286 H 0.67656 0.92066 0.42284 0.0
H287 H 0.65431 0.95769 0.46242 0.0
C288 C 0.70194 0.03388 0.39456 0.0
N289 N 0.70477 0.01577 0.38797 0.0
C290 C 0.72125 0.05636 0.39664 0.0
C291 C 0.74602 0.04157 0.38392 0.0
C292 C 0.72617 0.01934 0.382 0.0
C293 C 0.74377 0.06025 0.39199 0.0
H294 H 0.68481 0.03053 0.3995 0.0
H295 H 0.72819 0.00489 0.37675 0.0
C296 C 0.61724 0.91906 0.41868 0.0
N297 N 0.59464 0.88679 0.45068 0.0
C298 C 0.61303 0.89613 0.41663 0.0
C299 C 0.60988 0.92555 0.43699 0.0
C300 C 0.6016 0.88008 0.43299 0.0
C301 C 0.59849 0.90899 0.45298 0.0
C302 C 0.65967 0.9957 0.35985 0.0
C303 C 0.65304 0.01259 0.36306 0.0
C304 C 0.676 -0.00086 0.34406 0.0
C305 C 0.66319 0.03288 0.35065 0.0
C306 C 0.68577 0.01967 0.33199 0.0
N307 N 0.67924 0.03599 0.33552 0.0
C308 C 0.61827 0.99593 0.41625 0.0
C309 C 0.58941 0.95653 0.4088 0.0
C310 C 0.60155 2e-05 0.42582 0.0
N311 N 0.61203 0.97435 0.40845 0.0
C312 C 0.57214 0.95975 0.41849 0.0
C313 C 0.57831 0.98156 0.42764 0.0
H314 H 0.63649 0.00963 0.41601 0.0
H315 H 0.58506 0.93945 0.4027 0.0
C316 C 0.64543 0.90501 0.36166 0.0
N317 N 0.64479 0.92473 0.35664 0.0
C318 C 0.64131 0.88826 0.34615 0.0
C319 C 0.6367 0.91284 0.3204 0.0
C320 C 0.64049 0.92895 0.33653 0.0
C321 C 0.63703 0.89219 0.32521 0.0
H322 H 0.64957 0.90251 0.37768 0.0
H323 H 0.64035 0.94495 0.33299 0.0
O324 O 0.66364 0.98474 0.42036 0.0
O325 O 0.68153 0.95748 0.39308 0.0
O326 O 0.62894 0.93524 0.40309 0.0
O327 O 0.65027 0.97595 0.37217 0.0
H328 H 0.70517 0.98787 0.42471 0.0
H329 H 0.65945 0.01128 0.4495 0.0
H330 H 0.73486 0.01229 0.45158 0.0
H331 H 0.68996 0.03534 0.476 0.0
H332 H 0.72571 0.95975 0.33662 0.0
H333 H 0.71723 0.95988 0.41437 0.0
H334 H 0.69004 0.95762 0.35188 0.0
H335 H 0.75253 0.9621 0.39798 0.0
H336 H 0.65965 0.93923 0.49428 0.0
H337 H 0.68243 0.90136 0.45378 0.0
H338 H 0.71871 0.07014 0.4032 0.0
H339 H 0.76307 0.04391 0.37997 0.0
H340 H 0.61853 0.89076 0.40258 0.0
H341 H 0.61336 0.94333 0.43904 0.0
H342 H 0.59828 0.86229 0.43162 0.0
H343 H 0.59285 0.91383 0.46729 0.0
H344 H 0.6403 0.01013 0.3751 0.0
H345 H 0.6812 0.9862 0.34125 0.0
H346 H 0.65834 0.04617 0.35306 0.0
H347 H 0.69856 0.02264 0.31982 0.0
H348 H 0.60706 0.01699 0.43292 0.0
H349 H 0.55436 0.94514 0.41952 0.0
H350 H 0.64209 0.87272 0.35035 0.0
H351 H 0.63349 0.91643 0.30438 0.0
Li352 Li 0.03164 0.69972 0.41629 0.0
Li353 Li -0.00044 0.6825 0.39227 0.0
Li354 Li 0.01678 0.65961 0.40387 0.0
Li355 Li 0.03839 0.69489 0.37889 0.0
C356 C 0.98818 0.67635 0.43601 0.0
N357 N 0.96224 0.68508 0.46532 0.0
C358 C 0.9869 0.69687 0.4347 0.0
C359 C 0.97631 0.66029 0.45226 0.0
C360 C 0.97367 0.70095 0.44963 0.0
C361 C 0.96329 0.66503 0.46693 0.0
C362 C 0.0257 0.73233 0.38191 0.0
C363 C 0.02483 0.75252 0.35033 0.0
N364 N 0.02351 0.76884 0.36258 0.0
C365 C 0.02455 0.74944 0.39417 0.0
C366 C 0.02601 0.73397 0.3598 0.0
C367 C 0.02336 0.7677 0.3841 0.0
C368 C 0.06204 0.74304 0.43385 0.0
N369 N 0.04609 0.72066 0.43927 0.0
C370 C 0.05423 0.72963 0.47607 0.0
C371 C 0.04186 0.71368 0.45987 0.0
C372 C 0.07094 0.75289 0.4709 0.0
C373 C 0.07467 0.75952 0.44946 0.0
H374 H 0.06532 0.74791 0.4173 0.0
H375 H 0.0293 0.69565 0.46369 0.0
C376 C 0.95114 0.65858 0.39534 0.0
N377 N 0.96914 0.67873 0.38729 0.0
C378 C 0.9287 0.65561 0.39683 0.0
C379 C 0.94333 0.69369 0.38067 0.0
C380 C 0.96549 0.69584 0.37933 0.0
C381 C 0.9248 0.67369 0.39014 0.0
H382 H 0.95455 0.64538 0.40183 0.0
H383 H 0.97985 0.71167 0.37292 0.0
C384 C 0.06702 0.69248 0.41958 0.0
N385 N 0.10065 0.70744 0.45098 0.0
C386 C 0.08916 0.7121 0.41626 0.0
C387 C 0.06201 0.68039 0.43882 0.0
C388 C 0.10591 0.71941 0.43235 0.0
C389 C 0.07925 0.68825 0.4545 0.0
C390 C 0.99004 0.65313 0.36099 0.0
C391 C 0.97195 0.63042 0.36551 0.0
C392 C 0.98823 0.66502 0.34342 0.0
C393 C 0.9521 0.62013 0.35257 0.0
C394 C 0.96809 0.65414 0.33087 0.0
N395 N 0.95058 0.63212 0.33569 0.0
C396 C 0.98902 0.61543 0.42081 0.0
C397 C 0.02803 0.62423 0.41409 0.0
C398 C 0.98411 0.59489 0.43137 0.0
N399 N 0.01078 0.62979 0.41285 0.0
C400 C 0.0239 0.60383 0.42462 0.0
C401 C 0.00187 0.58921 0.43395 0.0
H402 H 0.97575 0.62047 0.41972 0.0
H403 H 0.0453 0.63624 0.4079 0.0
C404 C 0.07736 0.73236 0.36191 0.0
N405 N 0.06091 0.7099 0.35724 0.0
C406 C 0.0945 0.74603 0.34714 0.0
C407 C 0.07768 0.71313 0.3229 0.0
C408 C 0.06072 0.70002 0.33825 0.0
C409 C 0.09472 0.73656 0.32724 0.0
H410 H 0.07692 0.73973 0.37713 0.0
H411 H 0.04726 0.68214 0.33494 0.0
O412 O 0.00085 0.67183 0.42147 0.0
O413 O 0.02715 0.71449 0.39155 0.0
O414 O 0.05011 0.68548 0.40432 0.0
O415 O 0.00938 0.66368 0.37374 0.0
H416 H 0.99589 0.70941 0.42221 0.0
H417 H 0.97717 0.64434 0.45354 0.0
H418 H 0.97247 0.71672 0.44874 0.0
H419 H 0.95402 0.65275 0.47959 0.0
H420 H 0.02499 0.75394 0.33325 0.0
H421 H 0.02461 0.74867 0.4113 0.0
H422 H 0.02712 0.72108 0.35003 0.0
H423 H 0.02237 0.78099 0.3934 0.0
H424 H 0.05086 0.72382 0.4924 0.0
H425 H 0.08775 0.77711 0.44473 0.0
H426 H 0.91499 0.64004 0.40449 0.0
H427 H 0.94095 0.70794 0.37518 0.0
H428 H 0.09332 0.72166 0.40148 0.0
H429 H 0.04485 0.66538 0.44177 0.0
H430 H 0.12308 0.73463 0.43004 0.0
H431 H 0.07556 0.67917 0.46953 0.0
H432 H 0.97315 0.62092 0.37896 0.0
H433 H 0.00218 0.68247 0.33954 0.0
H434 H 0.93789 0.60263 0.35598 0.0
H435 H 0.96639 0.6632 0.3173 0.0
H436 H 0.96679 0.58394 0.43802 0.0
H437 H 0.03815 0.60023 0.42641 0.0
H438 H 0.10749 0.76386 0.35129 0.0
H439 H 0.07715 0.70523 0.30769 0.0
Li440 Li 0.32156 0.32643 0.39576 0.0
Li441 Li 0.30203 0.34095 0.41749 0.0
Li442 Li 0.30435 0.34727 0.379 0.0
Li443 Li 0.34081 0.36829 0.40287 0.0
C444 C 0.27174 0.2955 0.38993 0.0
N445 N 0.23797 0.25001 0.38006 0.0
C446 C 0.26028 0.27911 0.40607 0.0
C447 C 0.26576 0.28884 0.36879 0.0
C448 C 0.24334 0.25617 0.40074 0.0
C449 C 0.2487 0.26574 0.36412 0.0
C450 C 0.33271 0.33177 0.44098 0.0
C451 C 0.34955 0.3325 0.47505 0.0
N452 N 0.33396 0.30922 0.4774 0.0
C453 C 0.31685 0.30788 0.44373 0.0
C454 C 0.34922 0.34422 0.45673 0.0
C455 C 0.31777 0.29678 0.46225 0.0
C456 C 0.35127 0.30883 0.40186 0.0
N457 N 0.32947 0.30216 0.39442 0.0
C458 C 0.31967 0.26196 0.39415 0.0
C459 C 0.31405 0.27934 0.38971 0.0
C460 C 0.34148 0.26819 0.40331 0.0
C461 C 0.35776 0.29212 0.40623 0.0
H462 H 0.36319 0.32708 0.40553 0.0
H463 H 0.29692 0.27432 0.38363 0.0
C464 C 0.25836 0.32431 0.43581 0.0
N465 N 0.28145 0.33465 0.44081 0.0
C466 C 0.24173 0.31949 0.45157 0.0
C467 C 0.27297 0.33639 0.47741 0.0
C468 C 0.28904 0.34071 0.46111 0.0
C469 C 0.24896 0.32559 0.47268 0.0
H470 H 0.25291 0.32011 0.41947 0.0
H471 H 0.30757 0.34932 0.4646 0.0
C472 C 0.34669 0.34308 0.36168 0.0
N473 N 0.366 0.32248 0.33681 0.0
C474 C 0.37052 0.35037 0.36335 0.0
C475 C 0.33273 0.32553 0.3472 0.0
C476 C 0.37994 0.33969 0.35068 0.0
C477 C 0.3428 0.31527 0.33482 0.0
C478 C 0.30332 0.38112 0.41586 0.0
C479 C 0.2824 0.38074 0.41128 0.0
C480 C 0.3149 0.39089 0.43494 0.0
C481 C 0.2733 0.39004 0.42594 0.0
C482 C 0.30525 0.40003 0.44918 0.0
N483 N 0.28482 0.3994 0.44443 0.0
C484 C 0.26432 0.34228 0.36079 0.0
C485 C 0.29596 0.35667 0.33641 0.0
C486 C 0.24963 0.34302 0.34537 0.0
N487 N 0.28699 0.3492 0.35613 0.0
C488 C 0.28176 0.35752 0.32036 0.0
C489 C 0.25823 0.35067 0.32477 0.0
H490 H 0.2577 0.33623 0.3766 0.0
H491 H 0.31405 0.36189 0.33315 0.0
C492 C 0.38676 0.39014 0.41563 0.0
N493 N 0.36973 0.39488 0.40986 0.0
C494 C 0.40676 0.40707 0.426 0.0
C495 C 0.39186 0.43391 0.42335 0.0
C496 C 0.37216 0.41644 0.41282 0.0
C497 C 0.40903 0.42897 0.4308 0.0
H498 H 0.38408 0.37268 0.41338 0.0
H499 H 0.35812 0.41957 0.40833 0.0
O500 O 0.28827 0.31808 0.39484 0.0
O501 O 0.33222 0.34304 0.42296 0.0
O502 O 0.33699 0.35289 0.3743 0.0
O503 O 0.31217 0.37148 0.40202 0.0
H504 H 0.26435 0.28403 0.42254 0.0
H505 H 0.27416 0.30134 0.3561 0.0
H506 H 0.23442 0.24329 0.41307 0.0
H507 H 0.24398 0.26032 0.34783 0.0
H508 H 0.36221 0.34192 0.4874 0.0
H509 H 0.30406 0.298 0.43165 0.0
H510 H 0.36158 0.36276 0.45485 0.0
H511 H 0.30564 0.27827 0.46456 0.0
H512 H 0.30647 0.24378 0.39168 0.0
H513 H 0.37498 0.29785 0.41275 0.0
H514 H 0.22344 0.31162 0.44717 0.0
H515 H 0.27922 0.34141 0.49349 0.0
H516 H 0.38158 0.36403 0.3744 0.0
H517 H 0.31431 0.31981 0.34564 0.0
H518 H 0.39833 0.34505 0.35189 0.0
H519 H 0.33218 0.30156 0.32364 0.0
H520 H 0.27323 0.3733 0.39659 0.0
H521 H 0.3309 0.39096 0.43892 0.0
H522 H 0.25708 0.38978 0.42263 0.0
H523 H 0.31393 0.40748 0.46407 0.0
H524 H 0.2318 0.33797 0.34969 0.0
H525 H 0.28907 0.36324 0.30466 0.0
H526 H 0.41975 0.40265 0.43113 0.0
H527 H 0.39282 0.45048 0.42684 0.0
Li528 Li 0.95294 0.65278 0.91892 0.0
Li529 Li 0.96991 0.63179 0.8994 0.0
Li530 Li 0.98662 0.67337 0.89687 0.0
Li531 Li 0.95018 0.64989 0.88092 0.0
C532 C 0.98509 0.64428 0.94053 0.0
N533 N 0.98736 0.6211 0.97616 0.0
C534 C 0.96558 0.62311 0.94684 0.0
C535 C 0.00571 0.65366 0.95242 0.0
C536 C 0.9671 0.61166 0.96486 0.0
C537 C 0.00651 0.64169 0.97038 0.0
C538 C 0.91751 0.60726 0.89101 0.0
C539 C 0.90139 0.58127 0.86101 0.0
N540 N 0.87944 0.57572 0.8673 0.0
C541 C 0.8948 0.6012 0.89725 0.0
C542 C 0.92085 0.59714 0.87281 0.0
C543 C 0.87578 0.58524 0.88502 0.0
C544 C 0.91544 0.6509 0.94132 0.0
N545 N 0.93738 0.6543 0.94394 0.0
C546 C 0.93618 0.66132 0.981 0.0
C547 C 0.94802 0.65985 0.96323 0.0
C548 C 0.91334 0.65761 0.97886 0.0
C549 C 0.90304 0.65246 0.95861 0.0
H550 H 0.90777 0.64744 0.92567 0.0
H551 H 0.96583 0.66351 0.96489 0.0
C552 C -0.00124 0.61331 0.90814 0.0
N553 N 0.97632 0.607 0.90312 0.0
C554 C 0.00369 0.59724 0.91784 0.0
C555 C 0.96258 0.568 0.91546 0.0
C556 C 0.9584 0.5847 0.90598 0.0
C557 C 0.98529 0.57452 0.92242 0.0
H558 H 0.01248 0.6314 0.90645 0.0
H559 H 0.94062 0.58032 0.90254 0.0
C560 C 0.96413 0.6977 0.90931 0.0
N561 N 0.97408 0.73792 0.9314 0.0
C562 C 0.9544 0.71129 0.90293 0.0
C563 C 0.9789 0.70454 0.92698 0.0
C564 C 0.95964 0.73157 0.91429 0.0
C565 C 0.98373 0.72493 0.93792 0.0
C566 C -0.00164 0.6647 0.86065 0.0
C567 C 0.99756 0.68136 0.84751 0.0
C568 C 0.01874 0.66317 0.86153 0.0
C569 C 0.01732 0.69638 0.83554 0.0
C570 C 0.03814 0.67853 0.84933 0.0
N571 N 0.03703 0.69469 0.83671 0.0
C572 C 0.03442 0.70221 0.90495 0.0
C573 C 0.01745 0.72156 0.88678 0.0
C574 C 0.05537 0.72334 0.90747 0.0
N575 N 0.01584 0.70185 0.89531 0.0
C576 C 0.03808 0.74311 0.88897 0.0
C577 C 0.05714 0.74427 0.9 0.0
H578 H 0.0326 0.6862 0.91147 0.0
H579 H 0.0024 0.72069 0.87905 0.0
C580 C 0.91073 0.64864 0.86378 0.0
N581 N 0.92969 0.6467 0.85852 0.0
C582 C 0.89448 0.64601 0.84835 0.0
C583 C 0.91783 0.63984 0.82225 0.0
C584 C 0.93351 0.64231 0.83828 0.0
C585 C 0.89799 0.64164 0.82726 0.0
H586 H 0.90821 0.65212 0.88006 0.0
H587 H 0.94865 0.64063 0.83463 0.0
O588 O 0.98447 0.65542 0.92242 0.0
O589 O 0.93644 0.62343 0.90234 0.0
O590 O 0.95904 0.6778 0.89822 0.0
O591 O 0.97938 0.65021 0.87284 0.0
H592 H 0.94944 0.61549 0.93791 0.0
H593 H 0.021 0.66998 0.94777 0.0
H594 H 0.95218 0.59522 0.96983 0.0
H595 H 0.02238 0.64875 0.97969 0.0
H596 H 0.90373 0.57344 0.84681 0.0
H597 H 0.89186 0.60874 0.91134 0.0
H598 H 0.93835 0.60177 0.8677 0.0
H599 H 0.85811 0.58046 0.88961 0.0
H600 H 0.94486 0.66531 0.99624 0.0
H601 H 0.88578 0.65016 0.95601 0.0
H602 H 0.02138 0.60317 0.92323 0.0
H603 H 0.94793 0.5506 0.91846 0.0
H604 H 0.9429 0.70621 0.8893 0.0
H605 H 0.98666 0.69433 0.9322 0.0
H606 H 0.95224 0.74227 0.90951 0.0
H607 H 0.99515 0.73044 0.95158 0.0
H608 H 0.98198 0.6829 0.84682 0.0
H609 H 0.01962 0.65036 0.87161 0.0
H610 H 0.01702 0.70947 0.82541 0.0
H611 H 0.05408 0.67763 0.84992 0.0
H612 H 0.06949 0.72341 0.91627 0.0
H613 H 0.03883 0.75879 0.88273 0.0
H614 H 0.87954 0.64776 0.85279 0.0
H615 H 0.92101 0.63629 0.80619 0.0
Li616 Li 0.32395 0.31223 0.89801 0.0
Li617 Li 0.36536 0.33244 0.90229 0.0
Li618 Li 0.34551 0.29729 0.87803 0.0
Li619 Li 0.34238 0.29417 0.91757 0.0
C620 C 0.33749 0.33601 0.86076 0.0
N621 N 0.31714 0.35119 0.83117 0.0
C622 C 0.33616 0.35625 0.86455 0.0
C623 C 0.32849 0.32352 0.8419 0.0
C624 C 0.32579 0.36363 0.8494 0.0
C625 C 0.31826 0.33148 0.82715 0.0
C626 C 0.34978 0.34212 0.93716 0.0
C627 C 0.37634 0.3678 0.96397 0.0
N628 N 0.36776 0.38259 0.96124 0.0
C629 C 0.34127 0.35763 0.93459 0.0
C630 C 0.36745 0.34724 0.95199 0.0
C631 C 0.35055 0.37796 0.94694 0.0
C632 C 0.28692 0.31004 0.91946 0.0
N633 N 0.29543 0.31342 0.89935 0.0
C634 C 0.26173 0.31431 0.88639 0.0
C635 C 0.28313 0.31517 0.8828 0.0
C636 C 0.25271 0.31081 0.90706 0.0
C637 C 0.26557 0.30865 0.92368 0.0
H638 H 0.2966 0.30796 0.93226 0.0
H639 H 0.28945 0.3166 0.8668 0.0
C640 C 0.41238 0.3628 0.91442 0.0
N641 N 0.39267 0.3622 0.90718 0.0
C642 C 0.43032 0.38327 0.92353 0.0
C643 C 0.40814 0.40258 0.91599 0.0
C644 C 0.39076 0.38182 0.90686 0.0
C645 C 0.42778 0.40315 0.92521 0.0
H646 H 0.41356 0.34703 0.91435 0.0
H647 H 0.37493 0.38089 0.90105 0.0
C648 C 0.29406 0.26685 0.89448 0.0
N649 N 0.24573 0.24293 0.89202 0.0
C650 C 0.28056 0.25711 0.91272 0.0
C651 C 0.28303 0.26428 0.87497 0.0
C652 C 0.25613 0.24512 0.91115 0.0
C653 C 0.25856 0.25215 0.87406 0.0
C654 C 0.38022 0.29294 0.9083 0.0
C655 C 0.37872 0.27362 0.8976 0.0
C656 C 0.3905 0.29883 0.9284 0.0
C657 C 0.38736 0.2604 0.90726 0.0
C658 C 0.39888 0.28514 0.93754 0.0
N659 N 0.39714 0.26637 0.92687 0.0
C660 C 0.36377 0.29087 0.83882 0.0
C661 C 0.33128 0.25741 0.85395 0.0
C662 C 0.36535 0.27706 0.82271 0.0
N663 N 0.34696 0.28078 0.85403 0.0
C664 C 0.33218 0.24304 0.83823 0.0
C665 C 0.34948 0.25274 0.82241 0.0
H666 H 0.37622 0.30948 0.83948 0.0
H667 H 0.31854 0.24974 0.86657 0.0
C668 C 0.3412 0.27966 0.96053 0.0
N669 N 0.33797 0.27301 0.93983 0.0
C670 C 0.33775 0.26343 0.97637 0.0
C671 C 0.3272 0.23379 0.94927 0.0
C672 C 0.33104 0.2506 0.93399 0.0
C673 C 0.33055 0.24014 0.97078 0.0
H674 H 0.34633 0.29749 0.96475 0.0
H675 H 0.32853 0.24585 0.91739 0.0
O676 O 0.34808 0.3288 0.87513 0.0
O677 O 0.34109 0.32223 0.92504 0.0
O678 O 0.31798 0.27931 0.8958 0.0
O679 O 0.37133 0.30576 0.89932 0.0
H680 H 0.34277 0.36599 0.87912 0.0
H681 H 0.32934 0.30783 0.83868 0.0
H682 H 0.32455 0.37919 0.85217 0.0
H683 H 0.3112 0.32196 0.81251 0.0
H684 H 0.39017 0.37208 0.97535 0.0
H685 H 0.32793 0.35425 0.92294 0.0
H686 H 0.3746 0.33573 0.95393 0.0
H687 H 0.34419 0.39014 0.94505 0.0
H688 H 0.25208 0.31576 0.87317 0.0
H689 H 0.2592 0.30604 0.93986 0.0
H690 H 0.4452 0.38301 0.9305 0.0
H691 H 0.40569 0.41765 0.91679 0.0
H692 H 0.28887 0.25908 0.92796 0.0
H693 H 0.29327 0.27188 0.86074 0.0
H694 H 0.24544 0.23764 0.92515 0.0
H695 H 0.24976 0.25017 0.8591 0.0
H696 H 0.3709 0.2688 0.88204 0.0
H697 H 0.39157 0.31353 0.93704 0.0
H698 H 0.38623 0.24537 0.89918 0.0
H699 H 0.40667 0.28938 0.95316 0.0
H700 H 0.37891 0.28525 0.81077 0.0
H701 H 0.31995 0.22434 0.83896 0.0
H702 H 0.34027 0.26892 0.99281 0.0
H703 H 0.32191 0.21607 0.9443 0.0
Li704 Li 0.69434 0.04508 0.87321 0.0
Li705 Li 0.70423 0.04969 0.91171 0.0
Li706 Li 0.68767 0.01228 0.89442 0.0
Li707 Li 0.66307 0.02886 0.901 0.0
C708 C 0.73199 0.03118 0.88343 0.0
N709 N 0.75857 0.01048 0.87419 0.0
C710 C 0.75169 0.03639 0.89563 0.0
C711 C 0.72608 0.01575 0.86629 0.0
C712 C 0.76485 0.02568 0.89077 0.0
C713 C 0.73964 0.00537 0.86195 0.0
C714 C 0.70052 0.08608 0.89202 0.0
C715 C 0.70486 0.12453 0.88826 0.0
N716 N 0.728 0.13353 0.88378 0.0
C717 C 0.72438 0.09574 0.8874 0.0
C718 C 0.69068 0.10059 0.89246 0.0
C719 C 0.73796 0.11975 0.88327 0.0
C720 C 0.69368 0.07392 0.84043 0.0
N721 N 0.70372 0.06129 0.84693 0.0
C722 C 0.73242 0.07771 0.81945 0.0
C723 C 0.72247 0.0626 0.83664 0.0
C724 C 0.72325 0.09192 0.8131 0.0
C725 C 0.70338 0.08964 0.82354 0.0
H726 H 0.67891 0.07269 0.84907 0.0
H727 H 0.73045 0.05281 0.84237 0.0
C728 C 0.73665 0.05998 0.94454 0.0
N729 N 0.72438 0.06841 0.9341 0.0
C730 C 0.75094 0.0723 0.96167 0.0
C731 C 0.73891 0.10125 0.9576 0.0
C732 C 0.72495 0.08843 0.94052 0.0
C733 C 0.75223 0.09327 0.96836 0.0
H734 H 0.73498 0.04344 0.93977 0.0
H735 H 0.71429 0.09432 0.93269 0.0
C736 C 0.65437 0.99504 0.86162 0.0
N737 N 0.63177 0.95616 0.83568 0.0
C738 C 0.63388 0.9752 0.86855 0.0
C739 C 0.66319 0.99527 0.8414 0.0
C740 C 0.62276 0.95567 0.85522 0.0
C741 C 0.65156 0.97539 0.82856 0.0
C742 C 0.6727 0.02172 0.94213 0.0
C743 C 0.6692 0.00501 0.9575 0.0
C744 C 0.66977 0.04072 0.9475 0.0
C745 C 0.66279 0.00757 0.97803 0.0
C746 C 0.66334 0.04264 0.9682 0.0
N747 N 0.66001 0.02617 0.9829 0.0
C748 C 0.70008 0.98426 0.91537 0.0
C749 C 0.67914 0.96481 0.88435 0.0
C750 C 0.70152 0.96472 0.92143 0.0
N751 N 0.6887 0.98389 0.89734 0.0
C752 C 0.67986 0.94463 0.88999 0.0
C753 C 0.69076 0.94427 0.90901 0.0
H754 H 0.70786 -0.0002 0.92522 0.0
H755 H 0.67071 0.96498 0.8698 0.0
C756 C 0.62632 0.03852 0.90942 0.0
N757 N 0.63289 0.02199 0.90995 0.0
C758 C 0.60589 0.03454 0.91981 0.0
C759 C 0.59908 0.9963 0.93029 0.0
C760 C 0.61957 0.001 0.91972 0.0
C761 C 0.59234 0.01343 0.93091 0.0
H762 H 0.63749 0.05518 0.90181 0.0
H763 H 0.62552 0.98839 0.9202 0.0
O764 O 0.71866 0.04122 0.88816 0.0
O765 O 0.68666 0.0625 0.89561 0.0
O766 O 0.66528 0.01446 0.87426 0.0
O767 O 0.67887 0.01932 0.92195 0.0
H768 H 0.75692 0.04872 0.90861 0.0
H769 H 0.71094 0.01155 0.85665 0.0
H770 H 0.78009 0.0295 0.90014 0.0
H771 H 0.73508 0.99321 0.84887 0.0
H772 H 0.69746 0.13594 0.88853 0.0
H773 H 0.73239 0.08489 0.88694 0.0
H774 H 0.67226 0.09344 0.89593 0.0
H775 H 0.75641 0.12743 0.87963 0.0
H776 H 0.74795 0.07924 0.81199 0.0
H777 H 0.69584 0.10033 0.81905 0.0
H778 H 0.76055 0.06529 0.96982 0.0
H779 H 0.73941 0.11735 0.9622 0.0
H780 H 0.62672 0.97482 0.88407 0.0
H781 H 0.6788 0.01065 0.83566 0.0
H782 H 0.60697 0.94013 0.86041 0.0
H783 H 0.65824 0.97526 0.8129 0.0
H784 H 0.67138 0.9902 0.95358 0.0
H785 H 0.67237 0.05382 0.93584 0.0
H786 H 0.66001 0.99475 0.99008 0.0
H787 H 0.66098 0.05723 0.97256 0.0
H788 H 0.71077 0.9656 0.93588 0.0
H789 H 0.67134 0.92931 0.87988 0.0
H790 H 0.60144 0.04831 0.92008 0.0
H791 H 0.589 0.97969 0.93842 0.0
Li792 Li 0.35155 0.04467 0.58247 0.0
Li793 Li 0.35019 0.03997 0.62199 0.0
Li794 Li 0.37269 0.02748 0.59805 0.0
Li795 Li 0.33105 0.00621 0.59851 0.0
C796 C 0.38826 0.08253 0.59692 0.0
N797 N 0.40767 0.12847 0.5834 0.0
C798 C 0.38555 0.09881 0.60905 0.0
C799 C 0.40102 0.08969 0.57799 0.0
C800 C 0.39548 0.12194 0.60194 0.0
C801 C 0.41062 0.11297 0.57139 0.0
C802 C 0.30088 0.02125 0.60057 0.0
C803 C 0.26262 -0.00123 0.6165 0.0
N804 N 0.25263 0.99653 0.59715 0.0
C805 C 0.29026 0.01884 0.58087 0.0
C806 C 0.287 0.01123 0.61856 0.0
C807 C 0.26582 0.00623 0.57946 0.0
C808 C 0.35446 0.06104 0.54027 0.0
N809 N 0.35022 0.06398 0.56081 0.0
C810 C 0.34426 0.09572 0.55134 0.0
C811 C 0.34487 0.08067 0.56655 0.0
C812 C 0.34917 0.0935 0.53006 0.0
C813 C 0.35422 0.07582 0.52457 0.0
H814 H 0.35797 0.04722 0.53605 0.0
H815 H 0.34131 0.0824 0.58299 0.0
C816 C 0.36585 0.0601 0.66284 0.0
N817 N 0.34959 0.05487 0.64742 0.0
C818 C 0.36678 0.07374 0.68024 0.0
C819 C 0.33396 0.0758 0.66562 0.0
C820 C 0.3337 0.06224 0.64856 0.0
C821 C 0.35084 0.082 0.68164 0.0
H822 H 0.37847 0.05424 0.6613 0.0
H823 H 0.3214 0.05836 0.63577 0.0
C824 C 0.36208 0.00741 0.56067 0.0
N825 N 0.38449 0.98975 0.53601 0.0
C826 C 0.35422 0.98334 0.56061 0.0
C827 C 0.38142 0.02247 0.54821 0.0
C828 C 0.36573 0.97476 0.54799 0.0
C829 C 0.39251 0.01322 0.53588 0.0
C830 C 0.34013 0.991 0.63498 0.0
C831 C 0.33825 0.96981 0.62846 0.0
C832 C 0.3298 0.99196 0.65406 0.0
C833 C 0.32593 0.94988 0.64111 0.0
C834 C 0.31767 0.97164 0.66627 0.0
N835 N 0.31599 0.9512 0.6596 0.0
C836 C 0.42077 0.04542 0.58964 0.0
C837 C 0.39865 0.00412 0.59347 0.0
C838 C 0.43943 0.04391 0.58086 0.0
N839 N 0.40049 0.02558 0.5947 0.0
C840 C 0.41675 0.00175 0.58453 0.0
C841 C 0.43704 0.02175 0.57712 0.0
H842 H 0.42193 0.0623 0.59111 0.0
H843 H 0.38235 0.98863 0.59758 0.0
C844 C 0.29777 0.97163 0.57304 0.0
N845 N 0.30299 0.97654 0.5939 0.0
C846 C 0.27777 0.95112 0.56683 0.0
C847 C 0.26793 0.94128 0.60371 0.0
C848 C 0.28825 0.96213 0.60924 0.0
C849 C 0.26266 0.93545 0.58222 0.0
H850 H 0.30906 0.98386 0.56112 0.0
H851 H 0.29194 0.96689 0.62572 0.0
O852 O 0.37825 0.05965 0.6034 0.0
O853 O 0.32477 0.03292 0.60215 0.0
O854 O 0.35119 0.01621 0.57312 0.0
O855 O 0.35246 0.01082 0.62305 0.0
H856 H 0.37582 0.09368 0.62375 0.0
H857 H 0.40313 0.07733 0.56828 0.0
H858 H 0.39343 0.13469 0.61114 0.0
H859 H 0.42034 0.11868 0.55668 0.0
H860 H 0.25165 0.99078 0.63025 0.0
H861 H 0.3008 0.02639 0.56678 0.0
H862 H 0.295 0.01275 0.63389 0.0
H863 H 0.25734 0.00408 0.5643 0.0
H864 H 0.34041 0.10922 0.55623 0.0
H865 H 0.35769 0.0733 0.50828 0.0
H866 H 0.38 0.07802 0.6923 0.0
H867 H 0.32166 0.08218 0.66579 0.0
H868 H 0.33968 0.97142 0.57049 0.0
H869 H 0.38812 0.04118 0.54837 0.0
H870 H 0.35987 0.9562 0.54786 0.0
H871 H 0.40761 0.02472 0.52634 0.0
H872 H 0.34586 0.96866 0.61364 0.0
H873 H 0.33109 0.00819 0.65936 0.0
H874 H 0.32421 0.93334 0.63619 0.0
H875 H 0.30955 0.97212 0.68105 0.0
H876 H 0.45503 0.05986 0.57599 0.0
H877 H 0.41396 0.98428 0.58192 0.0
H878 H 0.27398 0.9478 0.55007 0.0
H879 H 0.25656 0.92983 0.61609 0.0
Li880 Li 0.98358 0.30958 0.59898 0.0
Li881 Li 0.96419 0.33178 0.59594 0.0
Li882 Li 0.95041 0.29798 0.62123 0.0
Li883 Li 0.9463 0.29178 0.58206 0.0
C884 C -0.00044 0.33931 0.63355 0.0
N885 N 0.03975 0.3612 0.65785 0.0
C886 C 0.01949 0.3592 0.62586 0.0
C887 C -7e-05 0.33073 0.65372 0.0
C888 C 0.03968 0.36997 0.63836 0.0
C889 C 0.02046 0.342 0.66573 0.0
C890 C 0.97147 0.32728 0.55373 0.0
C891 C 0.94735 0.33569 0.53079 0.0
N892 N 0.96417 0.34307 0.51552 0.0
C893 C 0.98853 0.33499 0.53783 0.0
C894 C 0.95071 0.32765 0.5502 0.0
C895 C 0.9845 0.34288 0.51861 0.0
C896 C 0.01601 0.30659 0.57456 0.0
N897 N 0.01338 0.31156 0.59493 0.0
C898 C 0.05159 0.31821 0.60365 0.0
C899 C 0.03043 0.31679 0.60961 0.0
C900 C 0.05503 0.31405 0.58245 0.0
C901 C 0.0367 0.30773 0.56795 0.0
H902 H 0.00189 0.30163 0.56337 0.0
H903 H 0.02772 0.31976 0.62592 0.0
C904 C 0.95002 0.36584 0.59079 0.0
N905 N 0.96823 0.36171 0.58969 0.0
C906 C 0.95208 0.38621 0.58185 0.0
C907 C 0.99191 0.39802 0.57174 0.0
C908 C 0.98905 0.37744 0.58078 0.0
C909 C 0.97308 0.40232 0.57171 0.0
H910 H 0.93355 0.35282 0.59763 0.0
H911 H 0.00294 0.3733 0.57951 0.0
C912 C 0.96948 0.26607 0.60761 0.0
N913 N 0.99594 0.24502 0.61571 0.0
C914 C 0.9702 0.25055 0.5929 0.0
C915 C 0.98199 0.27064 0.62657 0.0
C916 C 0.98375 0.24016 0.59725 0.0
C917 C 0.9953 0.25988 0.63035 0.0
C918 C 0.90828 0.2902 0.60482 0.0
C919 C 0.9001 0.26612 0.60653 0.0
C920 C 0.89281 0.2986 0.60821 0.0
C921 C 0.87658 0.25089 0.61157 0.0
C922 C 0.8694 0.28278 0.61319 0.0
N923 N 0.86184 0.25947 0.61477 0.0
C924 C 0.92241 0.29477 0.65643 0.0
C925 C 0.92956 0.26309 0.65244 0.0
C926 C 0.90521 0.28233 0.67174 0.0
N927 N 0.93367 0.28471 0.64677 0.0
C928 C 0.91282 0.25021 0.66783 0.0
C929 C 0.8997 0.25939 0.6771 0.0
H930 H 0.92561 0.31176 0.65118 0.0
H931 H 0.93816 0.25515 0.64412 0.0
C932 C 0.93754 0.2624 0.54674 0.0
N933 N 0.92799 0.27248 0.55897 0.0
C934 C 0.92505 0.24809 0.52966 0.0
C935 C 0.89361 0.25581 0.53739 0.0
C936 C 0.9067 0.26995 0.55428 0.0
C937 C 0.90261 0.2444 0.52498 0.0
H938 H 0.95497 0.26562 0.55019 0.0
H939 H 0.8999 0.27909 0.56342 0.0
O940 O 0.97949 0.32875 0.62177 0.0
O941 O 0.9754 0.31978 0.57272 0.0
O942 O 0.95672 0.27686 0.60349 0.0
O943 O 0.93148 0.30559 0.60077 0.0
H944 H 0.01946 0.36612 0.61035 0.0
H945 H 0.9845 0.31557 0.66003 0.0
H946 H 0.05531 0.38527 0.63255 0.0
H947 H 0.02104 0.3355 0.68132 0.0
H948 H 0.93139 0.33611 0.52787 0.0
H949 H 0.00477 0.33497 0.54033 0.0
H950 H 0.93736 0.32195 0.56233 0.0
H951 H 0.99756 0.34891 0.50617 0.0
H952 H 0.0652 0.32292 0.61538 0.0
H953 H 0.03826 0.30361 0.55162 0.0
H954 H 0.93719 0.38895 0.58228 0.0
H955 H 0.00823 0.40971 0.56375 0.0
H956 H 0.96036 0.24646 0.57833 0.0
H957 H 0.98164 0.2826 0.63812 0.0
H958 H 0.98453 0.22819 0.58596 0.0
H959 H 0.00521 0.26343 0.64487 0.0
H960 H 0.91176 0.25923 0.6041 0.0
H961 H 0.89883 0.31716 0.60718 0.0
H962 H 0.87006 0.23226 0.613 0.0
H963 H 0.85726 0.28907 0.61588 0.0
H964 H 0.89539 0.29002 0.67829 0.0
H965 H 0.90949 0.23279 0.67173 0.0
H966 H 0.93273 0.23972 0.52045 0.0
H967 H 0.87669 0.25403 0.53396 0.0
Li968 Li 0.69633 0.65262 0.61739 0.0
Li969 Li 0.68427 0.6793 0.60127 0.0
Li970 Li 0.66114 0.63754 0.59885 0.0
Li971 Li 0.69834 0.65701 0.57907 0.0
C972 C 0.64852 0.64735 0.63543 0.0
N973 N 0.60554 0.62757 0.6557 0.0
C974 C 0.63564 0.65896 0.63561 0.0
C975 C 0.63975 0.62593 0.64599 0.0
C976 C 0.61389 0.64862 0.64583 0.0
C977 C 0.61793 0.61613 0.65602 0.0
C978 C 0.73252 0.70171 0.59114 0.0
C979 C 0.74425 0.73081 0.56355 0.0
N980 N 0.76628 0.74231 0.57176 0.0
C981 C 0.75528 0.71375 0.59925 0.0
C982 C 0.72694 0.71022 0.57309 0.0
C983 C 0.7721 0.73427 0.58925 0.0
C984 C 0.73499 0.65246 0.63417 0.0
N985 N 0.71374 0.64948 0.6397 0.0
C986 C 0.71955 0.64263 0.67576 0.0
C987 C 0.7058 0.64469 0.66 0.0
C988 C 0.74161 0.6455 0.67049 0.0
C989 C 0.74917 0.65033 0.6493 0.0
H990 H 0.74084 0.65636 0.61788 0.0
H991 H 0.6889 0.64264 0.66397 0.0
C992 C 0.66464 0.70782 0.59573 0.0
N993 N 0.68409 0.708 0.60307 0.0
C994 C 0.664 0.72862 0.59439 0.0
C995 C 0.70321 0.7494 0.60887 0.0
C996 C 0.70296 0.72809 0.61018 0.0
C997 C 0.68368 0.74984 0.60053 0.0
H998 H 0.64975 0.69151 0.5906 0.0
H999 H 0.71808 0.72771 0.61627 0.0
C1000 C 0.69109 0.61236 0.60359 0.0
N1001 N 0.70522 0.5829 0.62096 0.0
C1002 C 0.71024 0.61148 0.59506 0.0
C1003 C 0.6788 0.59781 0.62064 0.0
C1004 C 0.71719 0.59659 0.60414 0.0
C1005 C 0.6863 0.58317 0.6293 0.0
C1006 C 0.65467 0.64975 0.55931 0.0
C1007 C 0.65114 0.62833 0.55146 0.0
C1008 C 0.64123 0.65905 0.55137 0.0
C1009 C 0.63398 0.6164 0.53607 0.0
C1010 C 0.62426 0.64659 0.53595 0.0
N1011 N 0.62099 0.62569 0.52871 0.0
C1012 C 0.6129 0.61982 0.59294 0.0
C1013 C 0.62453 0.59108 0.59172 0.0
C1014 C 0.59106 0.60403 0.58443 0.0
N1015 N 0.62933 0.61334 0.5957 0.0
C1016 C 0.60289 0.5747 0.58318 0.0
C1017 C 0.58622 0.58144 0.57861 0.0
H1018 H 0.61743 0.63783 0.59563 0.0
H1019 H 0.63813 0.5866 0.59344 0.0
C1020 C 0.73861 0.66305 0.55898 0.0
N1021 N 0.71676 0.65925 0.55483 0.0
C1022 C 0.75326 0.6642 0.54248 0.0
C1023 C 0.72304 0.65846 0.51756 0.0
C1024 C 0.70901 0.65757 0.53459 0.0
C1025 C 0.74538 0.66147 0.52143 0.0
H1026 H 0.74458 0.66497 0.5752 0.0
H1027 H 0.69196 0.65543 0.53153 0.0
O1028 O 0.66978 0.65715 0.62533 0.0
O1029 O 0.71596 0.68147 0.60067 0.0
O1030 O 0.68432 0.62723 0.59522 0.0
O1031 O 0.67068 0.66113 0.57511 0.0
H1032 H 0.6423 0.67576 0.62793 0.0
H1033 H 0.64967 0.61696 0.6465 0.0
H1034 H 0.60368 0.65735 0.64593 0.0
H1035 H 0.61088 0.59947 0.66411 0.0
H1036 H 0.74018 0.73763 0.54961 0.0
H1037 H 0.75988 0.70728 0.61314 0.0
H1038 H 0.70945 0.70108 0.5665 0.0
H1039 H 0.78979 0.7438 0.59537 0.0
H1040 H 0.71314 0.63923 0.69192 0.0
H1041 H 0.7658 0.65226 0.64436 0.0
H1042 H 0.64867 0.7282 0.58771 0.0
H1043 H 0.71863 0.7654 0.61394 0.0
H1044 H 0.71967 0.62218 0.58161 0.0
H1045 H 0.66364 0.59781 0.62713 0.0
H1046 H 0.73211 0.59591 0.59779 0.0
H1047 H 0.67705 0.57198 0.64262 0.0
H1048 H 0.66136 0.62084 0.5574 0.0
H1049 H 0.64382 0.67569 0.55699 0.0
H1050 H 0.63093 0.59971 0.53004 0.0
H1051 H 0.61367 0.65354 0.52975 0.0
H1052 H 0.57863 0.60986 0.58131 0.0
H1053 H 0.60003 0.55758 0.57866 0.0
H1054 H 0.77058 0.6672 0.54621 0.0
H1055 H 0.71624 0.65632 0.50161 0.0
C1056 C 0.12649 0.34653 0.01432 0.0
C1057 C 0.10247 0.33725 0.01039 0.0
C1058 C 0.14056 0.3433 -0.00022 0.0
C1059 C 0.14647 0.32863 0.94495 0.0
H1060 H 0.18397 0.30516 0.97101 0.0
C1061 C 0.21352 0.29125 0.92442 0.0
C1062 C 0.23018 0.30961 0.91181 0.0
C1063 C 0.19446 0.29231 0.93272 0.0
C1064 C 0.1734 0.3114 0.9634 0.0
H1065 H 0.07462 0.31842 0.98756 0.0
H1066 H 0.09949 0.31291 0.96192 0.0
H1067 H 0.1583 0.31297 0.99289 0.0
H1068 H 0.23917 0.3425 0.89656 0.0
H1069 H 0.20584 0.34458 0.9114 0.0
H1070 H 0.16202 0.32727 0.91539 0.0
C1071 C 0.10728 0.32264 0.97635 0.0
C1072 C 0.15892 0.31617 0.97599 0.0
C1073 C 0.09309 0.3258 0.99101 0.0
C1074 C 0.22648 0.32813 0.90623 0.0
C1075 C 0.20741 0.32928 0.91469 0.0
C1076 C 0.16122 0.32403 0.93228 0.0
C1077 C 0.13099 0.33082 0.98092 0.0
C1078 C 0.14551 0.32506 0.96698 0.0
C1079 C 0.1918 0.31185 0.92875 0.0
C1080 C 0.17488 0.31543 0.94144 0.0
H1081 H 0.13436 0.35598 0.02885 0.0
H1082 H 0.15892 0.35021 0.00348 0.0
H1083 H 0.13628 0.3355 0.93765 0.0
H1084 H 0.21586 0.27661 0.92866 0.0
H1085 H 0.18241 0.27837 0.94314 0.0
C1086 C 0.69892 0.7815 0.99386 0.0
C1087 C 0.6762 0.76463 0.00038 0.0
C1088 C 0.70229 0.79921 0.97971 0.0
C1089 C 0.67279 0.8188 0.94175 0.0
H1090 H 0.71668 0.88071 0.96344 0.0
C1091 C 0.69209 0.90711 0.90227 0.0
C1092 C 0.69019 0.92258 0.9165 0.0
C1093 C 0.69179 0.88692 0.90972 0.0
C1094 C 0.70451 0.86353 0.9571 0.0
H1095 H 0.63916 0.7525 0.99633 0.0
H1096 H 0.64509 0.78337 0.97154 0.0
H1097 H 0.71366 0.84616 0.98056 0.0
H1098 H 0.68541 0.92823 0.94965 0.0
H1099 H 0.68566 0.89365 0.96253 0.0
H1100 H 0.66319 0.83643 0.91867 0.0
C1101 C 0.66027 0.78277 0.97727 0.0
C1102 C 0.70291 0.84376 0.96677 0.0
C1103 C 0.65688 0.76508 0.99149 0.0
C1104 C 0.68765 0.91719 0.93826 0.0
C1105 C 0.68767 0.89729 0.94567 0.0
C1106 C 0.67459 0.83868 0.9319 0.0
C1107 C 0.68303 0.80038 0.97171 0.0
C1108 C 0.68666 0.82117 0.95952 0.0
C1109 C 0.68987 0.88205 0.93153 0.0
C1110 C 0.69004 0.86116 0.93988 0.0
H1111 H 0.71414 0.78133 8e-05 0.0
H1112 H 0.72003 0.81237 0.97546 0.0
H1113 H 0.66022 0.80158 0.93577 0.0
H1114 H 0.69422 0.91078 0.88543 0.0
H1115 H 0.69352 0.87538 0.89853 0.0
C1116 C 0.20115 0.90424 0.00741 0.0
C1117 C 0.22139 0.90247 0.0098 0.0
C1118 C 0.18476 0.89142 0.9917 0.0
C1119 C 0.175 0.85532 0.94313 0.0
H1120 H 0.11034 0.82417 0.96214 0.0
C1121 C 0.10037 0.77025 0.90625 0.0
C1122 C 0.07768 0.76722 0.90587 0.0
C1123 C 0.11898 0.79042 0.91517 0.0
C1124 C 0.12824 0.83306 0.95638 0.0
H1125 H 0.24068 0.88638 0.99733 0.0
H1126 H 0.21188 0.86361 0.97018 0.0
H1127 H 0.14089 0.85271 0.98501 0.0
H1128 H 0.05704 0.78362 0.91349 0.0
H1129 H 0.08956 0.81893 0.92865 0.0
H1130 H 0.16218 0.83478 0.91477 0.0
C1131 C 0.20884 0.87526 0.98012 0.0
C1132 C 0.14581 0.84948 0.96951 0.0
C1133 C 0.22532 0.88824 0.99572 0.0
C1134 C 0.07431 0.78544 0.91338 0.0
C1135 C 0.09289 0.80557 0.9223 0.0
C1136 C 0.15737 0.83876 0.93 0.0
C1137 C 0.18815 0.87636 0.97817 0.0
C1138 C 0.16944 0.86058 0.9632 0.0
C1139 C 0.11524 0.80793 0.92392 0.0
C1140 C 0.13384 0.82724 0.93662 0.0
H1141 H 0.19788 0.9154 0.01782 0.0
H1142 H 0.16925 0.89305 0.99036 0.0
H1143 H 0.193 0.86381 0.93766 0.0
H1144 H 0.10357 0.75664 0.90034 0.0
H1145 H 0.13597 0.79167 0.91626 0.0
C1146 C 0.7039 0.79066 0.5861 0.0
C1147 C 0.68441 0.77234 0.59637 0.0
C1148 C 0.70318 0.81033 0.57889 0.0
C1149 C 0.65965 0.82577 0.5611 0.0
H1150 H 0.71451 0.88738 0.55398 0.0
C1151 C 0.65657 0.89698 0.51076 0.0
C1152 C 0.6743 0.90689 0.49531 0.0
C1153 C 0.65818 0.88391 0.52743 0.0
C1154 C 0.69903 0.87027 0.55593 0.0
H1155 H 0.64962 0.76103 0.60868 0.0
H1156 H 0.64849 0.79562 0.59644 0.0
H1157 H 0.71671 0.85849 0.57664 0.0
H1158 H 0.70816 0.91197 0.48577 0.0
H1159 H 0.71092 0.88901 0.51477 0.0
H1160 H 0.64216 0.83732 0.53998 0.0
C1161 C 0.66411 0.79452 0.59345 0.0
C1162 C 0.70029 0.85371 0.56886 0.0
C1163 C 0.66477 0.77476 0.60052 0.0
C1164 C 0.69412 0.9043 0.49733 0.0
C1165 C 0.69581 0.89139 0.51407 0.0
C1166 C 0.65836 0.84235 0.54831 0.0
C1167 C 0.683 0.81217 0.58192 0.0
C1168 C 0.6808 0.83103 0.57111 0.0
C1169 C 0.67766 0.88067 0.52906 0.0
C1170 C 0.67821 0.86455 0.54512 0.0
H1171 H 0.71918 0.78916 0.58247 0.0
H1172 H 0.71793 0.82338 0.56984 0.0
H1173 H 0.64439 0.80839 0.56216 0.0
H1174 H 0.64104 0.8986 0.50953 0.0
H1175 H 0.644 0.87595 0.53883 0.0
C1176 C 0.09559 0.76363 0.50381 0.0
C1177 C 0.0854 0.77004 0.48747 0.0
C1178 C 0.11194 0.78066 0.51752 0.0
C1179 C 0.15608 0.84233 0.51593 0.0
H1180 H 0.16264 0.83651 0.57638 0.0
C1181 C 0.24246 0.90089 0.55801 0.0
C1182 C 0.24135 0.91356 0.5755 0.0
C1183 C 0.22212 0.88208 0.54977 0.0
C1184 C 0.16089 0.83833 0.55952 0.0
H1185 H 0.08282 0.79889 0.47385 0.0
H1186 H 0.11149 0.82857 0.49763 0.0
H1187 H 0.12777 0.80628 0.55772 0.0
H1188 H 0.21814 0.9155 0.59883 0.0
H1189 H 0.18241 0.88213 0.58447 0.0
H1190 H 0.1892 0.87401 0.51748 0.0
C1191 C 0.10711 0.81048 0.49962 0.0
C1192 C 0.14108 0.82106 0.54887 0.0
C1193 C 0.09077 0.79351 0.48599 0.0
C1194 C 0.21956 0.90604 0.58539 0.0
C1195 C 0.19914 0.887 0.57718 0.0
C1196 C 0.1759 0.85933 0.52646 0.0
C1197 C 0.1184 0.80435 0.51508 0.0
C1198 C 0.13854 0.82293 0.52695 0.0
C1199 C 0.20022 0.87535 0.55891 0.0
C1200 C 0.17862 0.85742 0.54829 0.0
H1201 H 0.09192 0.74572 0.50526 0.0
H1202 H 0.12049 0.77548 0.52922 0.0
H1203 H 0.15477 0.84409 0.49899 0.0
H1204 H 0.25904 0.90587 0.55036 0.0
H1205 H 0.22345 0.87309 0.5359 0.0
C1206 C 0.08929 0.30746 0.58716 0.0
C1207 C 0.07749 0.31631 0.57511 0.0
C1208 C 0.10929 0.30784 0.57905 0.0
C1209 C 0.13494 0.30698 0.5281 0.0
H1210 H 0.19363 0.32898 0.55807 0.0
C1211 C 0.20981 0.30045 0.48963 0.0
C1212 C 0.2314 0.32151 0.48931 0.0
C1213 C 0.19194 0.29776 0.50327 0.0
C1214 C 0.1773 0.32272 0.54958 0.0
H1215 H 0.07841 0.33405 0.54586 0.0
H1216 H 0.1129 0.33435 0.53167 0.0
H1217 H 0.16064 0.32943 0.57583 0.0
H1218 H 0.25171 0.35578 0.50387 0.0
H1219 H 0.22037 0.35112 0.52771 0.0
H1220 H 0.15141 0.30071 0.50175 0.0
C1221 C 0.10649 0.32675 0.54717 0.0
C1222 C 0.15844 0.32285 0.55976 0.0
C1223 C 0.0867 0.3265 0.55529 0.0
C1224 C 0.23528 0.3393 0.50385 0.0
C1225 C 0.21735 0.33662 0.51751 0.0
C1226 C 0.1536 0.30665 0.51804 0.0
C1227 C 0.11768 0.31697 0.55874 0.0
C1228 C 0.13725 0.31538 0.54892 0.0
C1229 C 0.19527 0.31609 0.51687 0.0
C1230 C 0.17508 0.31476 0.52854 0.0
H1231 H 0.08257 0.29944 0.60247 0.0
H1232 H 0.11764 0.30019 0.58825 0.0
H1233 H 0.1187 0.30088 0.51947 0.0
H1234 H 0.2065 0.28626 0.47888 0.0
H1235 H 0.17524 0.28157 0.50271 0.0
C1236 C 0.77935 0.67134 0.10431 0.0
C1237 C 0.77583 0.6887 0.09498 0.0
C1238 C 0.79866 0.66911 0.09846 0.0
C1239 C 0.85423 0.69769 0.06655 0.0
H1240 H 0.83605 0.63343 0.05265 0.0
C1241 C 0.91247 0.67682 0.01315 0.0
C1242 C 0.90055 0.65972 0.99744 0.0
C1243 C 0.90021 0.67958 0.02996 0.0
C1244 C 0.84142 0.6515 0.05637 0.0
H1245 H 0.79085 0.71871 0.0739 0.0
H1246 H 0.82389 0.71447 0.06324 0.0
H1247 H 0.81012 0.64135 0.07405 0.0
H1248 H 0.86642 0.63142 0.98776 0.0
H1249 H 0.84498 0.63701 0.01629 0.0
H1250 H 0.88459 0.70794 0.04741 0.0
C1251 C 0.81206 0.70261 0.07515 0.0
C1252 C 0.82671 0.65604 0.069 0.0
C1253 C 0.7929 0.70489 0.08105 0.0
C1254 C 0.87615 0.64506 -0.00068 0.0
C1255 C 0.86388 0.648 0.01597 0.0
C1256 C 0.86879 0.69316 0.05368 0.0
C1257 C 0.81476 0.68419 0.08318 0.0
C1258 C 0.83253 0.67925 0.07362 0.0
C1259 C 0.87569 0.66549 0.03139 0.0
C1260 C 0.86218 0.67004 0.04782 0.0
H1261 H 0.76649 0.65864 0.11513 0.0
H1262 H 0.80044 0.65499 0.10526 0.0
H1263 H 0.85953 0.71576 0.07017 0.0
H1264 H 0.93123 0.68858 0.01217 0.0
H1265 H 0.90995 0.69302 0.04167 0.0
C1266 C 0.34268 0.22753 0.00363 0.0
C1267 C 0.32646 0.22241 0.9872 0.0
C1268 C 0.33944 0.21023 0.01829 0.0
C1269 C 0.3091 0.14582 0.0234 0.0
H1270 H 0.32506 0.15873 0.08292 0.0
C1271 C 0.2902 0.07152 0.08096 0.0
C1272 C 0.30886 0.07497 0.09412 0.0
C1273 C 0.29094 0.09031 0.0701 0.0
C1274 C 0.32064 0.15493 0.06631 0.0
H1275 H 0.29354 0.19564 0.97386 0.0
H1276 H 0.28766 0.16558 -0.00046 0.0
H1277 H 0.32896 0.19019 0.05961 0.0
H1278 H 0.34234 0.10112 0.10709 0.0
H1279 H 0.34376 0.13403 0.08784 0.0
H1280 H 0.30091 0.1107 0.02994 0.0
C1281 C 0.30322 0.18273 0.00082 0.0
C1282 C 0.32291 0.17292 0.05296 0.0
C1283 C 0.30655 0.19994 0.98612 0.0
C1284 C 0.32778 0.09788 0.09694 0.0
C1285 C 0.32851 0.11674 0.08606 0.0
C1286 C 0.30674 0.12789 0.03671 0.0
C1287 C 0.31983 0.18752 0.01685 0.0
C1288 C 0.31714 0.16854 0.03134 0.0
C1289 C 0.31038 0.113 0.07207 0.0
C1290 C 0.31245 0.1322 0.05831 0.0
H1291 H 0.35827 0.24468 0.00473 0.0
H1292 H 0.35268 0.21444 0.0303 0.0
H1293 H 0.30504 0.14193 0.00674 0.0
H1294 H 0.2755 0.05409 0.07816 0.0
H1295 H 0.27655 0.08694 0.05966 0.0
C1296 C 0.90149 0.24945 0.06994 0.0
C1297 C 0.91111 0.24589 0.08847 0.0
C1298 C 0.88137 0.2311 0.06087 0.0
C1299 C 0.84911 0.16721 0.05652 0.0
H1300 H 0.80278 0.17842 0.02954 0.0
C1301 C 0.79043 0.11066 0.98788 0.0
C1302 C 0.76757 0.10699 0.98626 0.0
C1303 C 0.80552 0.12512 0.00376 0.0
C1304 C 0.81531 0.1748 0.03725 0.0
H1305 H 0.9067 0.22026 0.11228 0.0
H1306 H 0.87149 0.18797 0.09623 0.0
H1307 H 0.83288 0.20872 0.05176 0.0
H1308 H 0.74215 0.11449 0.00074 0.0
H1309 H 0.76847 0.13969 0.0285 0.0
H1310 H 0.83164 0.13335 0.04177 0.0
C1311 C 0.8797 0.20507 0.08874 0.0
C1312 C 0.83271 0.19229 0.04981 0.0
C1313 C 0.89985 0.22353 0.09791 0.0
C1314 C 0.75982 0.11736 0.00134 0.0
C1315 C 0.77489 0.13177 0.01725 0.0
C1316 C 0.83168 0.14969 0.04392 0.0
C1317 C 0.87039 0.20864 0.07001 0.0
C1318 C 0.85014 0.18891 0.05915 0.0
C1319 C 0.79805 0.13617 0.0184 0.0
C1320 C 0.81489 0.1535 0.03376 0.0
H1321 H 0.90999 0.26623 0.06189 0.0
H1322 H 0.87495 0.23432 0.0462 0.0
H1323 H 0.86236 0.16412 0.06341 0.0
H1324 H 0.79698 0.1031 0.97638 0.0
H1325 H 0.82335 0.1284 0.004 0.0
C1326 C 0.36736 0.11994 0.49874 0.0
C1327 C 0.34914 0.10961 0.51372 0.0
C1328 C 0.36773 0.13574 0.48377 0.0
C1329 C 0.37149 0.18044 0.4654 0.0
H1330 H 0.31464 0.16909 0.43687 0.0
C1331 C 0.35801 0.25365 0.43132 0.0
C1332 C 0.34617 0.24989 0.4119 0.0
C1333 C 0.36043 0.23583 0.44072 0.0
C1334 C 0.33073 0.17237 0.44448 0.0
H1335 H 0.31673 0.10722 0.52443 0.0
H1336 H 0.31739 0.13487 0.4983 0.0
H1337 H 0.31412 0.13844 0.45906 0.0
H1338 H 0.32842 0.22455 0.38677 0.0
H1339 H 0.33221 0.19315 0.40356 0.0
H1340 H 0.38795 0.21459 0.45126 0.0
C1341 C 0.33134 0.13069 0.4981 0.0
C1342 C 0.33037 0.15493 0.45734 0.0
C1343 C 0.33109 0.11507 0.51319 0.0
C1344 C 0.33735 0.22797 0.40186 0.0
C1345 C 0.33957 0.21001 0.41142 0.0
C1346 C 0.37181 0.19795 0.45269 0.0
C1347 C 0.34976 0.14133 0.48335 0.0
C1348 C 0.35064 0.15894 0.4682 0.0
C1349 C 0.35087 0.2137 0.43108 0.0
C1350 C 0.35133 0.19423 0.4424 0.0
H1351 H 0.38159 0.11617 0.4989 0.0
H1352 H 0.38209 0.14361 0.47253 0.0
H1353 H 0.38735 0.18407 0.47368 0.0
H1354 H 0.36455 0.27004 0.43984 0.0
H1355 H 0.36889 0.23906 0.45605 0.0
C1356 C 0.89884 0.22828 0.48808 0.0
C1357 C 0.88845 0.22847 0.50752 0.0
C1358 C 0.88534 0.21301 0.47183 0.0
C1359 C 0.82385 0.17622 0.45397 0.0
H1360 H 0.84744 0.14074 0.42409 0.0
C1361 C 0.78302 0.08258 0.40937 0.0
C1362 C 0.76471 0.08274 0.39813 0.0
C1363 C 0.80079 0.10314 0.41848 0.0
C1364 C 0.84063 0.15056 0.43226 0.0
H1365 H 0.85584 0.21246 0.52526 0.0
H1366 H 0.8324 0.18589 0.49707 0.0
H1367 H 0.87274 0.17124 0.44914 0.0
H1368 H 0.75162 0.1049 0.38628 0.0
H1369 H 0.78287 0.14097 0.40202 0.0
H1370 H 0.79139 0.15483 0.43803 0.0
C1371 C 0.85085 0.19787 0.49415 0.0
C1372 C 0.8552 0.16819 0.44645 0.0
C1373 C 0.8643 0.21309 0.51034 0.0
C1374 C 0.76534 0.1042 0.3951 0.0
C1375 C 0.78319 0.12481 0.40416 0.0
C1376 C 0.80929 0.15861 0.43983 0.0
C1377 C 0.86118 0.19763 0.4747 0.0
C1378 C 0.84676 0.18081 0.45786 0.0
C1379 C 0.80071 0.12437 0.41653 0.0
C1380 C 0.81732 0.14519 0.42916 0.0
H1381 H 0.91735 0.24012 0.48533 0.0
H1382 H 0.89377 0.21338 0.45697 0.0
H1383 H 0.81695 0.18591 0.46225 0.0
H1384 H 0.78287 0.06629 0.41226 0.0
H1385 H 0.8138 0.10206 0.42812 0.0
C1386 C 0.88091 0.65207 0.39334 0.0
C1387 C 0.90253 0.67287 0.39566 0.0
C1388 C 0.86046 0.65026 0.40185 0.0
C1389 C 0.83621 0.68484 0.42779 0.0
H1390 H 0.79862 0.62693 0.45872 0.0
C1391 C 0.76131 0.67219 0.48426 0.0
C1392 C 0.76027 0.66134 0.50374 0.0
C1393 C 0.77566 0.67225 0.46784 0.0
C1394 C 0.80896 0.64325 0.45023 0.0
H1395 H 0.91954 0.70836 0.408 0.0
H1396 H 0.88416 0.70515 0.42315 0.0
H1397 H 0.82923 0.63035 0.43502 0.0
H1398 H 0.77302 0.64145 0.52096 0.0
H1399 H 0.79858 0.64233 0.49281 0.0
H1400 H 0.81689 0.69823 0.44414 0.0
C1401 C 0.88272 0.69035 0.41436 0.0
C1402 C 0.82631 0.6451 0.43632 0.0
C1403 C 0.90309 0.69221 0.40568 0.0
C1404 C 0.77367 0.65031 0.50631 0.0
C1405 C 0.78805 0.65047 0.48998 0.0
C1406 C 0.81896 0.68306 0.44186 0.0
C1407 C 0.86126 0.66914 0.41309 0.0
C1408 C 0.84057 0.66612 0.42532 0.0
C1409 C 0.7893 0.66148 0.47056 0.0
C1410 C 0.80556 0.66244 0.45367 0.0
H1411 H 0.87996 0.63696 0.38549 0.0
H1412 H 0.84415 0.63382 0.40019 0.0
H1413 H 0.84659 0.70116 0.41931 0.0
H1414 H 0.75135 0.68099 0.48179 0.0
H1415 H 0.77606 0.68073 0.45303 0.0
C1416 C 0.25131 0.37021 0.2935 0.0
C1417 C 0.24266 0.35171 0.30826 0.0
C1418 C 0.23627 0.37179 0.27884 0.0
C1419 C 0.17477 0.35471 0.27133 0.0
H1420 H 0.19027 0.36528 0.21157 0.0
C1421 C 0.10729 0.3462 0.20862 0.0
C1422 C 0.11541 0.36086 0.19077 0.0
C1423 C 0.12315 0.34614 0.22327 0.0
C1424 C 0.18581 0.36274 0.22825 0.0
H1425 H 0.2115 0.31978 0.3184 0.0
H1426 H 0.18529 0.32297 0.29321 0.0
H1427 H 0.21766 0.36317 0.23616 0.0
H1428 H 0.1463 0.38766 0.17465 0.0
H1429 H 0.17399 0.38823 0.20055 0.0
H1430 H 0.14319 0.35471 0.26367 0.0
C1431 C 0.20366 0.33634 0.29319 0.0
C1432 C 0.20149 0.36143 0.2423 0.0
C1433 C 0.21871 0.33459 0.30766 0.0
C1434 C 0.13962 0.37599 0.18818 0.0
C1435 C 0.15546 0.37618 0.20296 0.0
C1436 C 0.15922 0.35632 0.25735 0.0
C1437 C 0.21224 0.35505 0.27877 0.0
C1438 C 0.19602 0.35719 0.26393 0.0
C1439 C 0.14748 0.36099 0.22053 0.0
C1440 C 0.16444 0.36016 0.23559 0.0
H1441 H 0.26957 0.38385 0.29365 0.0
H1442 H 0.24329 0.38647 0.26794 0.0
H1443 H 0.17028 0.35175 0.288 0.0
H1444 H 0.08872 0.33417 0.21084 0.0
H1445 H 0.11632 0.33394 0.23639 0.0
C1446 C 0.62357 0.7616 0.17915 0.0
C1447 C 0.63328 0.74762 0.18462 0.0
C1448 C 0.62085 0.77543 0.19442 0.0
C1449 C 0.62328 0.78644 0.25285 0.0
H1450 H 0.63447 0.84727 0.23417 0.0
C1451 C 0.61771 0.85113 0.31118 0.0
C1452 C 0.63377 0.87511 0.30842 0.0
C1453 C 0.61545 0.83485 0.29576 0.0
C1454 C 0.63155 0.83047 0.23977 0.0
H1455 H 0.64749 0.73674 0.2102 0.0
H1456 H 0.64376 0.76163 0.23681 0.0
H1457 H 0.63507 0.82017 0.20854 0.0
H1458 H 0.66014 0.90097 0.28758 0.0
H1459 H 0.65699 0.87264 0.26103 0.0
H1460 H 0.6213 0.7974 0.28429 0.0
C1461 C 0.63749 0.76147 0.22093 0.0
C1462 C 0.63145 0.81466 0.22493 0.0
C1463 C 0.63977 0.74726 0.2057 0.0
C1464 C 0.64742 0.88258 0.28993 0.0
C1465 C 0.64549 0.86629 0.27468 0.0
C1466 C 0.62378 0.80243 0.26775 0.0
C1467 C 0.62828 0.776 0.21543 0.0
C1468 C 0.6274 0.79243 0.23125 0.0
C1469 C 0.62953 0.84217 0.27741 0.0
C1470 C 0.62806 0.82474 0.26143 0.0
H1471 H 0.61826 0.76195 0.16297 0.0
H1472 H 0.6131 0.78583 0.18964 0.0
H1473 H 0.61973 0.7694 0.25834 0.0
H1474 H 0.60685 0.84498 0.32527 0.0
H1475 H 0.60263 0.81655 0.29827 0.0
C1476 C 0.24847 0.85528 0.19654 0.0
C1477 C 0.25161 0.878 0.1951 0.0
C1478 C 0.23307 0.83932 0.21151 0.0
C1479 C 0.20131 0.83556 0.26117 0.0
H1480 H 0.15794 0.7721 0.24254 0.0
C1481 C 0.11849 0.77494 0.30857 0.0
C1482 C 0.11254 0.7514 0.3112 0.0
C1483 C 0.13621 0.78952 0.29455 0.0
C1484 C 0.17013 0.78966 0.24806 0.0
H1485 H 0.24099 0.90172 0.20829 0.0
H1486 H 0.21435 0.87403 0.23442 0.0
H1487 H 0.18839 0.79944 0.21838 0.0
H1488 H 0.1202 0.72455 0.30076 0.0
H1489 H 0.15126 0.75012 0.27607 0.0
H1490 H 0.18291 0.82594 0.29072 0.0
C1491 C 0.22404 0.86863 0.22422 0.0
C1492 C 0.18759 0.80532 0.23424 0.0
C1493 C 0.23938 0.88454 0.20926 0.0
C1494 C 0.12428 0.74257 0.29898 0.0
C1495 C 0.14208 0.75721 0.28488 0.0
C1496 C 0.18388 0.81995 0.27495 0.0
C1497 C 0.22051 0.84576 0.22538 0.0
C1498 C 0.20315 0.82855 0.24055 0.0
C1499 C 0.14845 0.78095 0.28275 0.0
C1500 C 0.16785 0.79693 0.26845 0.0
H1501 H 0.25783 0.84978 0.18601 0.0
H1502 H 0.23097 0.82193 0.2122 0.0
H1503 H 0.2133 0.8532 0.26664 0.0
H1504 H 0.10941 0.78214 0.31739 0.0
H1505 H 0.14028 0.80755 0.29289 0.0
C1506 C 0.85695 0.62575 0.81403 0.0
C1507 C 0.88122 0.63944 0.81057 0.0
C1508 C 0.84112 0.62449 0.79866 0.0
C1509 C 0.83705 0.63697 0.74178 0.0
H1510 H 0.78128 0.6377 0.76047 0.0
C1511 C 0.78133 0.65852 0.68605 0.0
C1512 C 0.75685 0.64373 0.6869 0.0
C1513 C 0.79579 0.65657 0.70105 0.0
C1514 C 0.79665 0.63724 0.75504 0.0
H1515 H 0.908 0.66251 0.78839 0.0
H1516 H 0.88047 0.66079 0.76173 0.0
H1517 H 0.80799 0.63683 0.78667 0.0
H1518 H 0.72845 0.6153 0.70439 0.0
H1519 H 0.75378 0.61235 0.73095 0.0
H1520 H 0.82595 0.63809 0.71014 0.0
C1521 C 0.87356 0.65054 0.77606 0.0
C1522 C 0.81194 0.63666 0.77003 0.0
C1523 C 0.88937 0.6516 0.79135 0.0
C1524 C 0.74718 0.62719 0.70339 0.0
C1525 C 0.76167 0.62541 0.71856 0.0
C1526 C 0.82188 0.63779 0.72682 0.0
C1527 C 0.84922 0.63708 0.77956 0.0
C1528 C 0.83243 0.63668 0.7636 0.0
C1529 C 0.78612 0.63998 0.71742 0.0
C1530 C 0.80163 0.63809 0.73331 0.0
H1531 H 0.8502 0.61595 0.82861 0.0
H1532 H 0.82253 0.61359 0.80174 0.0
H1533 H 0.85237 0.63651 0.73622 0.0
H1534 H 0.78939 0.67183 0.67389 0.0
H1535 H 0.81456 0.6683 0.70002 0.0
C1536 C 0.37339 0.24001 0.80095 0.0
C1537 C 0.35141 0.23713 0.80651 0.0
C1538 C 0.37489 0.22364 0.78785 0.0
C1539 C 0.34034 0.16183 0.77208 0.0
H1540 H 0.3841 0.17933 0.72522 0.0
C1541 C 0.33199 0.096 0.70798 0.0
C1542 C 0.35245 0.09811 0.69889 0.0
C1543 C 0.33331 0.11261 0.72252 0.0
C1544 C 0.37206 0.17413 0.73848 0.0
H1545 H 0.3139 0.21563 0.80161 0.0
H1546 H 0.31654 0.18705 0.77894 0.0
H1547 H 0.38379 0.20986 0.74703 0.0
H1548 H 0.39042 0.11897 0.69848 0.0
H1549 H 0.39276 0.14768 0.72433 0.0
H1550 H 0.32858 0.12617 0.76368 0.0
C1551 C 0.33256 0.2017 0.78504 0.0
C1552 C 0.37183 0.19164 0.7509 0.0
C1553 C 0.33107 0.21808 0.79799 0.0
C1554 C 0.37434 0.11673 0.70531 0.0
C1555 C 0.37566 0.13336 0.71991 0.0
C1556 C 0.34066 0.14435 0.75978 0.0
C1557 C 0.35444 0.20404 0.78016 0.0
C1558 C 0.35569 0.18564 0.7676 0.0
C1559 C 0.35513 0.1317 0.72841 0.0
C1560 C 0.35625 0.15028 0.74262 0.0
H1561 H 0.38938 0.25436 0.80741 0.0
H1562 H 0.39199 0.22583 0.78438 0.0
H1563 H 0.32804 0.15668 0.78514 0.0
H1564 H 0.31488 0.0817 0.70356 0.0
H1565 H 0.31712 0.11087 0.72858 0.0
C1566 C 0.74349 0.10523 0.77805 0.0
C1567 C 0.7358 0.1104 0.797 0.0
C1568 C 0.75793 0.12318 0.76411 0.0
C1569 C 0.80289 0.18461 0.76465 0.0
H1570 H 0.79658 0.17936 0.70352 0.0
C1571 C 0.87359 0.25344 0.70857 0.0
C1572 C 0.87917 0.24431 0.69075 0.0
C1573 C 0.85402 0.23897 0.72109 0.0
C1574 C 0.7987 0.18103 0.72056 0.0
H1575 H 0.73662 0.13824 0.81603 0.0
H1576 H 0.76212 0.16975 0.79168 0.0
H1577 H 0.76533 0.15026 0.7259 0.0
H1578 H 0.86798 0.21295 0.67174 0.0
H1579 H 0.83476 0.18771 0.69391 0.0
H1580 H 0.83669 0.2147 0.75942 0.0
C1581 C 0.75686 0.15178 0.78761 0.0
C1582 C 0.78074 0.16442 0.73334 0.0
C1583 C 0.74214 0.13377 0.80142 0.0
C1584 C 0.86457 0.2205 0.68561 0.0
C1585 C 0.84518 0.20608 0.69813 0.0
C1586 C 0.82099 0.20111 0.75186 0.0
C1587 C 0.76521 0.14669 0.769 0.0
C1588 C 0.78285 0.16579 0.7555 0.0
C1589 C 0.83962 0.21508 0.71604 0.0
C1590 C 0.81934 0.19921 0.72965 0.0
H1591 H 0.7388 0.08734 0.77428 0.0
H1592 H 0.76427 0.11877 0.74997 0.0
H1593 H 0.80508 0.18595 0.7817 0.0
H1594 H 0.88448 0.27169 0.71299 0.0
H1595 H 0.85014 0.24653 0.73467 0.0
C1596 C -0.0001 0.45212 0.05981 0.0
C1597 C 0.02021 0.45021 0.05971 0.0
C1598 C -0.00229 0.4673 0.04577 0.0
C1599 C 0.01866 0.49457 0.99379 0.0
H1600 H 0.99038 0.53178 0.00966 0.0
C1601 C 0.01001 0.55785 0.93557 0.0
C1602 C 0.98926 0.55893 0.93672 0.0
C1603 C 0.01463 0.54506 0.95056 0.0
C1604 C -0.00193 0.52128 0.00492 0.0
H1605 H 0.0544 0.46317 0.04522 0.0
H1606 H 0.05066 0.48988 0.02089 0.0
H1607 H 0.99756 0.50974 0.03673 0.0
H1608 H 0.95703 0.54724 0.95452 0.0
H1609 H 0.96468 0.52434 0.98003 0.0
H1610 H 0.0188 0.50575 0.96193 0.0
C1611 C 0.03639 0.4795 0.03172 0.0
C1612 C 0.00225 0.50874 0.02045 0.0
C1613 C 0.03863 0.46443 0.04584 0.0
C1614 C 0.973 0.54648 0.95289 0.0
C1615 C 0.97758 0.53367 0.96778 0.0
C1616 C 0.01438 0.50704 0.97823 0.0
C1617 C 0.01573 0.48077 0.03127 0.0
C1618 C 0.01244 0.49513 0.01503 0.0
C1619 C -0.0014 0.5331 0.96702 0.0
C1620 C 0.00384 0.52037 0.98358 0.0
H1621 H 0.98549 0.44148 0.07042 0.0
H1622 H 0.98153 0.4678 0.04572 0.0
H1623 H 0.02624 0.48396 0.98908 0.0
H1624 H 0.02283 0.56715 0.92326 0.0
H1625 H 0.03105 0.54508 0.94958 0.0
C1626 C 0.54249 0.55225 0.05921 0.0
C1627 C 0.56674 0.56488 0.05507 0.0
C1628 C 0.52726 0.53432 0.04556 0.0
C1629 C 0.52477 0.49303 0.00516 0.0
H1630 H 0.47062 0.4951 0.98404 0.0
C1631 C 0.46839 0.43265 0.93717 0.0
C1632 C 0.44404 0.42324 0.9386 0.0
C1633 C 0.48343 0.45034 0.9511 0.0
C1634 C 0.48546 0.49402 0.98998 0.0
H1635 H 0.59381 0.56842 0.0331 0.0
H1636 H 0.56735 0.53672 0.00989 0.0
H1637 H 0.49613 0.52389 0.01015 0.0
H1638 H 0.41629 0.42474 0.95577 0.0
H1639 H 0.44234 0.45512 0.9803 0.0
H1640 H 0.514 0.46296 0.9854 0.0
C1641 C 0.5602 0.54065 0.02376 0.0
C1642 C 0.50006 0.51055 0.00493 0.0
C1643 C 0.57537 0.55874 0.0372 0.0
C1644 C 0.43503 0.432 0.95404 0.0
C1645 C 0.45001 0.44945 0.96811 0.0
C1646 C 0.51003 0.47633 0.9904 0.0
C1647 C 0.53599 0.52847 0.02765 0.0
C1648 C 0.51991 0.51027 0.01257 0.0
C1649 C 0.4744 0.45874 0.96694 0.0
C1650 C 0.49023 0.47667 0.98253 0.0
H1651 H 0.53524 0.55627 0.07294 0.0
H1652 H 0.50864 0.525 0.04901 0.0
H1653 H 0.53988 0.49233 0.01095 0.0
H1654 H 0.47578 0.42626 0.92534 0.0
H1655 H 0.50214 0.45738 0.94946 0.0
C1656 C 0.43919 0.982 0.05956 0.0
C1657 C 0.42288 0.98819 0.05222 0.0
C1658 C 0.45777 0.98505 0.04662 0.0
C1659 C 0.49223 0.01726 -0.00047 0.0
H1660 H 0.50725 0.9674 0.99652 0.0
C1661 C 0.55647 0.01686 0.93725 0.0
C1662 C 0.5723 0.00992 0.94431 0.0
C1663 C 0.53808 0.0141 0.95031 0.0
C1664 C 0.50344 0.9816 0.99735 0.0
H1665 H 0.41316 0.00213 0.0254 0.0
H1666 H 0.44559 0.00757 0.00299 0.0
H1667 H 0.47602 0.96333 0.02006 0.0
H1668 H 0.58155 0.99514 0.97078 0.0
H1669 H 0.54956 0.99036 0.99348 0.0
H1670 H 0.51967 0.03555 0.97685 0.0
C1671 C 0.44425 0.00072 0.01885 0.0
C1672 C 0.48557 0.97927 0.01085 0.0
C1673 C 0.42568 0.99764 0.03173 0.0
C1674 C 0.56935 0.00019 0.96468 0.0
C1675 C 0.55102 0.99747 0.97771 0.0
C1676 C 0.51013 0.01961 0.98604 0.0
C1677 C 0.46044 0.99436 0.02609 0.0
C1678 C 0.47976 0.99706 0.01208 0.0
C1679 C 0.53519 0.00442 0.97071 0.0
C1680 C 0.51594 0.0018 0.9848 0.0
H1681 H 0.43767 0.97492 0.07534 0.0
H1682 H 0.47015 0.98026 0.05275 0.0
H1683 H 0.48836 0.03141 0.00033 0.0
H1684 H 0.5582 0.02424 0.92157 0.0
H1685 H 0.52599 0.01935 0.94434 0.0
C1686 C 0.55969 0.00482 0.4396 0.0
C1687 C 0.56142 0.98446 0.44101 0.0
C1688 C 0.54571 0.00866 0.45389 0.0
C1689 C 0.49889 0.97906 0.49467 0.0
H1690 H 0.52356 0.04257 0.51554 0.0
C1691 C 0.45914 0.00115 0.56673 0.0
C1692 C 0.45406 0.01927 0.56337 0.0
C1693 C 0.47288 0.99722 0.55222 0.0
C1694 C 0.51644 0.02478 0.50978 0.0
H1695 H 0.54974 0.95205 0.45832 0.0
H1696 H 0.52575 0.95888 0.48347 0.0
H1697 H 0.54517 0.03457 0.48854 0.0
H1698 H 0.45979 0.04758 0.54206 0.0
H1699 H 0.48432 0.04116 0.51728 0.0
H1700 H 0.47038 0.9693 0.51633 0.0
C1701 C 0.53467 0.97167 0.47106 0.0
C1702 C 0.5287 0.02019 0.4942 0.0
C1703 C 0.54843 0.96773 0.45663 0.0
C1704 C 0.46375 0.03383 0.54552 0.0
C1705 C 0.47769 0.03007 0.53118 0.0
C1706 C 0.48677 0.98363 0.51043 0.0
C1707 C 0.5334 0.99236 0.47008 0.0
C1708 C 0.52005 0.99727 0.48638 0.0
C1709 C 0.48205 0.01149 0.53419 0.0
C1710 C 0.4954 0.00653 0.51808 0.0
H1711 H 0.56938 0.01792 0.42759 0.0
H1712 H 0.54475 0.02454 0.45236 0.0
H1713 H 0.49149 0.96128 0.48882 0.0
H1714 H 0.45224 0.98979 0.58043 0.0
H1715 H 0.47624 0.98294 0.55503 0.0
C1716 C 0.99551 0.44431 0.55975 0.0
C1717 C 0.9748 0.42237 0.5595 0.0
C1718 C -0.00208 0.46245 0.5466 0.0
C1719 C 0.96419 0.48221 0.51434 0.0
H1720 H 0.02351 0.51916 0.48515 0.0
C1721 C 0.98571 0.56528 0.46693 0.0
C1722 C -0.00211 0.56923 0.44766 0.0
C1723 C 0.98251 0.54708 0.48033 0.0
C1724 C 0.00677 0.50886 0.49302 0.0
H1725 H 0.94029 0.40235 0.54538 0.0
H1726 H 0.94447 0.43397 0.52249 0.0
H1727 H 0.0185 0.48821 0.50944 0.0
H1728 H 0.01608 0.55698 0.42728 0.0
H1729 H 0.01038 0.52498 0.45072 0.0
H1730 H 0.95229 0.50251 0.49759 0.0
C1731 C 0.95874 0.43729 0.53305 0.0
C1732 C 0.00401 0.49134 0.50718 0.0
C1733 C 0.95632 0.41917 0.54622 0.0
C1734 C 0.00678 0.55449 0.44209 0.0
C1735 C 0.00355 0.53621 0.45553 0.0
C1736 C 0.96696 0.49971 0.50019 0.0
C1737 C 0.97969 0.45904 0.53288 0.0
C1738 C 0.9827 0.47785 0.51803 0.0
C1739 C 0.99142 0.53235 0.47483 0.0
C1740 C 0.9883 0.51329 0.48941 0.0
H1741 H 0.00996 0.44739 0.56998 0.0
H1742 H 0.01412 0.47914 0.54712 0.0
H1743 H 0.94761 0.47224 0.52255 0.0
H1744 H 0.9791 0.57664 0.47194 0.0
H1745 H 0.97349 0.54489 0.49526 0.0
C1746 C 0.43931 0.46979 0.44225 0.0
C1747 C 0.4278 0.44538 0.44538 0.0
C1748 C 0.45618 0.485 0.45673 0.0
C1749 C 0.49565 0.48635 0.49894 0.0
H1750 H 0.49565 0.54253 0.51746 0.0
C1751 C 0.55292 0.54172 0.56852 0.0
C1752 C 0.56544 0.56613 0.56545 0.0
C1753 C 0.53512 0.52718 0.55449 0.0
C1754 C 0.49598 0.527 0.51232 0.0
H1755 H 0.42458 0.4179 0.46649 0.0
H1756 H 0.45397 0.44428 0.49147 0.0
H1757 H 0.46741 0.51718 0.49082 0.0
H1758 H 0.56891 0.59442 0.54534 0.0
H1759 H 0.53784 0.56911 0.52099 0.0
H1760 H 0.52419 0.49611 0.52034 0.0
C1761 C 0.45036 0.45169 0.47765 0.0
C1762 C 0.47987 0.51253 0.49702 0.0
C1763 C 0.43354 0.43656 0.46326 0.0
C1764 C 0.55929 0.57573 0.54842 0.0
C1765 C 0.54152 0.56121 0.53441 0.0
C1766 C 0.51173 0.50078 0.51421 0.0
C1767 C 0.46186 0.47608 0.4746 0.0
C1768 C 0.47947 0.49199 0.49024 0.0
C1769 C 0.52952 0.53674 0.53706 0.0
C1770 C 0.51203 0.52123 0.52114 0.0
H1771 H 0.43536 0.47712 0.42858 0.0
H1772 H 0.46493 0.50372 0.45384 0.0
H1773 H 0.49606 0.47085 0.49379 0.0
H1774 H 0.55712 0.53383 0.58161 0.0
H1775 H 0.52591 0.50841 0.55716 0.0
loop_
_geom_bond_atom_site_label_1
_geom_bond_atom_site_label_2
_geom_bond_distance
_geom_bond_site_symmetry_2
_ccdc_geom_bond_type
Li0 N17 1.990 . S
Li0 O60 1.956 . S
Li0 O61 1.970 . S
Li0 O62 1.961 . S
Li1 N25 1.990 . S
Li1 O60 1.970 . S
Li1 O61 1.956 . S
Li1 O63 1.961 . S
Li2 N47 1.990 . S
Li2 O60 1.961 . S
Li2 O62 1.956 . S
Li2 O63 1.970 . S
Li3 N53 1.990 1_455 S
Li3 O61 1.961 . S
Li3 O62 1.970 . S
Li3 O63 1.956 . S
C4 C6 1.348 . S
C4 C7 1.356 . S
C4 O60 1.325 . S
N5 C8 1.314 . S
N5 C9 1.279 . S
C6 C4 1.348 . S
C6 C8 1.353 . S
C6 H64 0.929 . S
C7 C4 1.356 . S
C7 C9 1.358 . S
C7 H65 0.930 . S
C8 N5 1.314 . S
C8 C6 1.353 . S
C8 H66 0.930 . S
C9 N5 1.279 . S
C9 C7 1.358 . S
C9 H67 0.930 . S
C10 C13 1.348 . S
C10 C14 1.356 1_455 S
C10 O61 1.325 . S
C11 N12 1.279 . S
C11 C14 1.358 . S
C11 H68 0.930 . S
N12 C11 1.279 . S
N12 C15 1.314 . S
C13 C10 1.348 . S
C13 C15 1.353 1_455 S
C13 H69 0.929 . S
C14 C10 1.356 1_655 S
C14 C11 1.358 . S
C14 H70 0.930 . S
C15 N12 1.314 . S
C15 C13 1.353 1_655 S
C15 H71 0.930 . S
C16 N17 1.314 . S
C16 C21 1.353 . S
C16 H22 0.930 . S
N17 Li0 1.990 . S
N17 C16 1.314 . S
N17 C19 1.279 . S
C18 C19 1.358 . S
C18 C20 1.356 . S
C18 H72 0.930 . S
C19 N17 1.279 . S
C19 C18 1.358 . S
C19 H23 0.930 . S
C20 C18 1.356 . S
C20 C21 1.348 . S
C21 C16 1.353 . S
C21 C20 1.348 . S
C21 H73 0.929 . S
H22 C16 0.930 . S
H23 C19 0.930 . S
C24 N25 1.314 . S
C24 C26 1.353 . S
C24 H30 0.930 . S
N25 Li1 1.990 . S
N25 C24 1.314 . S
N25 C28 1.279 . S
C26 C24 1.353 . S
C26 C29 1.348 . S
C26 H74 0.929 . S
C27 C28 1.358 . S
C27 C29 1.356 . S
C27 H75 0.930 . S
C28 N25 1.279 . S
C28 C27 1.358 . S
C28 H31 0.930 . S
C29 C26 1.348 . S
C29 C27 1.356 . S
H30 C24 0.930 . S
H31 C28 0.930 . S
C32 C34 1.348 . S
C32 C35 1.356 . S
C32 O62 1.325 . S
N33 C36 1.314 1_556 S
N33 C37 1.279 1_556 S
C34 C32 1.348 . S
C34 C36 1.353 . S
C34 H76 0.929 . S
C35 C32 1.356 . S
C35 C37 1.358 . S
C35 H77 0.930 . S
C36 N33 1.314 1_554 S
C36 C34 1.353 . S
C36 H78 0.930 1_454 S
C37 N33 1.279 1_554 S
C37 C35 1.358 . S
C37 H79 0.930 1_554 S
C38 C39 1.348 . S
C38 C40 1.356 . S
C38 O63 1.325 . S
C39 C38 1.348 . S
C39 C41 1.353 . S
C39 H80 0.929 . S
C40 C38 1.356 . S
C40 C42 1.358 . S
C40 H81 0.930 . S
C41 C39 1.353 . S
C41 N43 1.314 . S
C41 H82 0.930 . S
C42 C40 1.358 . S
C42 N43 1.279 . S
C42 H83 0.930 . S
N43 C41 1.314 . S
N43 C42 1.279 . S
C44 C46 1.353 . S
C44 N47 1.314 . S
C44 H50 0.930 . S
C45 N47 1.279 . S
C45 C48 1.358 . S
C45 H51 0.930 . S
C46 C44 1.353 . S
C46 C49 1.348 . S
C46 H84 0.929 . S
N47 Li2 1.990 . S
N47 C44 1.314 . S
N47 C45 1.279 . S
C48 C45 1.358 . S
C48 C49 1.356 . S
C48 H85 0.930 . S
C49 C46 1.348 . S
C49 C48 1.356 . S
H50 C44 0.930 . S
H51 C45 0.930 . S
C52 N53 1.314 . S
C52 C54 1.353 . S
C52 H58 0.930 . S
N53 Li3 1.990 1_655 S
N53 C52 1.314 . S
N53 C56 1.279 . S
C54 C52 1.353 . S
C54 C57 1.348 . S
C54 H86 0.929 . S
C55 C56 1.358 . S
C55 C57 1.356 . S
C55 H87 0.930 . S
C56 N53 1.279 . S
C56 C55 1.358 . S
C56 H59 0.930 . S
C57 C54 1.348 . S
C57 C55 1.356 . S
H58 C52 0.930 . S
H59 C56 0.930 . S
O60 Li0 1.956 . S
O60 Li1 1.970 . S
O60 Li2 1.961 . S
O60 C4 1.325 . S
O61 Li0 1.970 . S
O61 Li1 1.956 . S
O61 Li3 1.961 . S
O61 C10 1.325 . S
O62 Li0 1.961 . S
O62 Li2 1.956 . S
O62 Li3 1.970 . S
O62 C32 1.325 . S
O63 Li1 1.961 . S
O63 Li2 1.970 . S
O63 Li3 1.956 . S
O63 C38 1.325 . S
H64 C6 0.929 . S
H65 C7 0.930 . S
H66 C8 0.930 . S
H67 C9 0.930 . S
H68 C11 0.930 . S
H69 C13 0.929 . S
H70 C14 0.930 . S
H71 C15 0.930 . S
H72 C18 0.930 . S
H73 C21 0.929 . S
H74 C26 0.929 . S
H75 C27 0.930 . S
H76 C34 0.929 . S
H77 C35 0.930 . S
H78 C36 0.930 1_656 S
H79 C37 0.930 1_556 S
H80 C39 0.929 . S
H81 C40 0.930 . S
H82 C41 0.930 . S
H83 C42 0.930 . S
H84 C46 0.929 . S
H85 C48 0.930 . S
H86 C54 0.929 . S
H87 C55 0.930 . S
Li88 N105 1.990 . S
Li88 O148 1.956 . S
Li88 O149 1.970 . S
Li88 O150 1.961 . S
Li89 N113 1.990 . S
Li89 O148 1.970 . S
Li89 O149 1.956 . S
Li89 O151 1.961 . S
Li90 N135 1.990 . S
Li90 O148 1.961 . S
Li90 O150 1.956 . S
Li90 O151 1.970 . S
Li91 N141 1.990 . S
Li91 O149 1.961 . S
Li91 O150 1.970 . S
Li91 O151 1.956 . S
C92 C94 1.348 . S
C92 C95 1.356 . S
C92 O148 1.325 . S
N93 C96 1.314 . S
N93 C97 1.279 . S
C94 C92 1.348 . S
C94 C96 1.353 . S
C94 H152 0.929 . S
C95 C92 1.356 . S
C95 C97 1.358 . S
C95 H153 0.930 . S
C96 N93 1.314 . S
C96 C94 1.353 . S
C96 H154 0.930 . S
C97 N93 1.279 . S
C97 C95 1.358 . S
C97 H155 0.930 . S
C98 C101 1.348 . S
C98 C102 1.356 . S
C98 O149 1.325 . S
C99 N100 1.279 . S
C99 C102 1.358 . S
C99 H156 0.930 . S
N100 C99 1.279 . S
N100 C103 1.314 . S
C101 C98 1.348 . S
C101 C103 1.353 . S
C101 H157 0.929 . S
C102 C98 1.356 . S
C102 C99 1.358 . S
C102 H158 0.930 . S
C103 N100 1.314 . S
C103 C101 1.353 . S
C103 H159 0.930 . S
C104 N105 1.314 . S
C104 C109 1.353 . S
C104 H110 0.930 . S
N105 Li88 1.990 . S
N105 C104 1.314 . S
N105 C107 1.279 . S
C106 C107 1.358 . S
C106 C108 1.356 . S
C106 H160 0.930 . S
C107 N105 1.279 . S
C107 C106 1.358 . S
C107 H111 0.930 . S
C108 C106 1.356 . S
C108 C109 1.348 . S
C109 C104 1.353 . S
C109 C108 1.348 . S
C109 H161 0.929 . S
H110 C104 0.930 . S
H111 C107 0.930 . S
C112 N113 1.314 . S
C112 C114 1.353 . S
C112 H118 0.930 . S
N113 Li89 1.990 . S
N113 C112 1.314 . S
N113 C116 1.279 . S
C114 C112 1.353 . S
C114 C117 1.348 . S
C114 H162 0.929 . S
C115 C116 1.358 . S
C115 C117 1.356 . S
C115 H163 0.930 . S
C116 N113 1.279 . S
C116 C115 1.358 . S
C116 H119 0.930 . S
C117 C114 1.348 . S
C117 C115 1.356 . S
H118 C112 0.930 . S
H119 C116 0.930 . S
C120 C122 1.348 . S
C120 C123 1.356 . S
C120 O150 1.325 . S
N121 C124 1.314 . S
N121 C125 1.279 . S
C122 C120 1.348 . S
C122 C124 1.353 . S
C122 H164 0.929 . S
C123 C120 1.356 . S
C123 C125 1.358 . S
C123 H165 0.930 . S
C124 N121 1.314 . S
C124 C122 1.353 . S
C124 H166 0.930 . S
C125 N121 1.279 . S
C125 C123 1.358 . S
C125 H167 0.930 . S
C126 C127 1.348 . S
C126 C128 1.356 . S
C126 O151 1.325 . S
C127 C126 1.348 . S
C127 C129 1.353 . S
C127 H168 0.929 . S
C128 C126 1.356 . S
C128 C130 1.358 . S
C128 H169 0.930 . S
C129 C127 1.353 . S
C129 N131 1.314 1_554 S
C129 H170 0.930 1_554 S
C130 C128 1.358 . S
C130 N131 1.279 1_554 S
C130 H171 0.930 1_554 S
N131 C129 1.314 1_556 S
N131 C130 1.279 1_556 S
C132 C134 1.353 . S
C132 N135 1.314 . S
C132 H138 0.930 . S
C133 N135 1.279 . S
C133 C136 1.358 . S
C133 H139 0.930 . S
C134 C132 1.353 . S
C134 C137 1.348 . S
C134 H172 0.929 . S
N135 Li90 1.990 . S
N135 C132 1.314 . S
N135 C133 1.279 . S
C136 C133 1.358 . S
C136 C137 1.356 . S
C136 H173 0.930 . S
C137 C134 1.348 . S
C137 C136 1.356 . S
H138 C132 0.930 . S
H139 C133 0.930 . S
C140 N141 1.314 . S
C140 C142 1.353 . S
C140 H146 0.930 . S
N141 Li91 1.990 . S
N141 C140 1.314 . S
N141 C144 1.279 . S
C142 C140 1.353 . S
C142 C145 1.348 . S
C142 H174 0.929 . S
C143 C144 1.358 . S
C143 C145 1.356 . S
C143 H175 0.930 . S
C144 N141 1.279 . S
C144 C143 1.358 . S
C144 H147 0.930 . S
C145 C142 1.348 . S
C145 C143 1.356 . S
H146 C140 0.930 . S
H147 C144 0.930 . S
O148 Li88 1.956 . S
O148 Li89 1.970 . S
O148 Li90 1.961 . S
O148 C92 1.325 . S
O149 Li88 1.970 . S
O149 Li89 1.956 . S
O149 Li91 1.961 . S
O149 C98 1.325 . S
O150 Li88 1.961 . S
O150 Li90 1.956 . S
O150 Li91 1.970 . S
O150 C120 1.325 . S
O151 Li89 1.961 . S
O151 Li90 1.970 . S
O151 Li91 1.956 . S
O151 C126 1.325 . S
H152 C94 0.929 . S
H153 C95 0.930 . S
H154 C96 0.930 . S
H155 C97 0.930 . S
H156 C99 0.930 . S
H157 C101 0.929 . S
H158 C102 0.930 . S
H159 C103 0.930 . S
H160 C106 0.930 . S
H161 C109 0.929 . S
H162 C114 0.929 . S
H163 C115 0.930 . S
H164 C122 0.929 . S
H165 C123 0.930 . S
H166 C124 0.930 . S
H167 C125 0.930 . S
H168 C127 0.929 . S
H169 C128 0.930 . S
H170 C129 0.930 1_556 S
H171 C130 0.930 1_556 S
H172 C134 0.929 . S
H173 C136 0.930 . S
H174 C142 0.929 . S
H175 C143 0.930 . S
Li176 N193 1.990 . S
Li176 O236 1.956 . S
Li176 O237 1.970 . S
Li176 O238 1.961 . S
Li177 N201 1.990 . S
Li177 O236 1.970 . S
Li177 O237 1.956 . S
Li177 O239 1.961 . S
Li178 N223 1.990 1_565 S
Li178 O236 1.961 . S
Li178 O238 1.956 . S
Li178 O239 1.970 . S
Li179 N229 1.990 . S
Li179 O237 1.961 . S
Li179 O238 1.970 . S
Li179 O239 1.956 . S
C180 C182 1.348 . S
C180 C183 1.356 1_565 S
C180 O236 1.325 . S
N181 C184 1.314 . S
N181 C185 1.279 . S
C182 C180 1.348 . S
C182 C184 1.353 1_565 S
C182 H240 0.929 . S
C183 C180 1.356 1_545 S
C183 C185 1.358 . S
C183 H241 0.930 . S
C184 N181 1.314 . S
C184 C182 1.353 1_545 S
C184 H242 0.930 . S
C185 N181 1.279 . S
C185 C183 1.358 . S
C185 H243 0.930 . S
C186 C189 1.348 . S
C186 C190 1.356 . S
C186 O237 1.325 . S
C187 N188 1.279 . S
C187 C190 1.358 . S
C187 H244 0.930 . S
N188 C187 1.279 . S
N188 C191 1.314 . S
C189 C186 1.348 . S
C189 C191 1.353 . S
C189 H245 0.929 . S
C190 C186 1.356 . S
C190 C187 1.358 . S
C190 H246 0.930 . S
C191 N188 1.314 . S
C191 C189 1.353 . S
C191 H247 0.930 . S
C192 N193 1.314 . S
C192 C197 1.353 . S
C192 H198 0.930 . S
N193 Li176 1.990 . S
N193 C192 1.314 . S
N193 C195 1.279 . S
C194 C195 1.358 . S
C194 C196 1.356 . S
C194 H248 0.930 . S
C195 N193 1.279 . S
C195 C194 1.358 . S
C195 H199 0.930 . S
C196 C194 1.356 . S
C196 C197 1.348 . S
C197 C192 1.353 . S
C197 C196 1.348 . S
C197 H249 0.929 . S
H198 C192 0.930 . S
H199 C195 0.930 . S
C200 N201 1.314 . S
C200 C202 1.353 . S
C200 H206 0.930 . S
N201 Li177 1.990 . S
N201 C200 1.314 . S
N201 C204 1.279 . S
C202 C200 1.353 . S
C202 C205 1.348 . S
C202 H250 0.929 . S
C203 C204 1.358 . S
C203 C205 1.356 . S
C203 H251 0.930 . S
C204 N201 1.279 . S
C204 C203 1.358 . S
C204 H207 0.930 . S
C205 C202 1.348 . S
C205 C203 1.356 . S
H206 C200 0.930 . S
H207 C204 0.930 . S
C208 C210 1.348 . S
C208 C211 1.356 . S
C208 O238 1.325 . S
N209 C212 1.314 . S
N209 C213 1.279 . S
C210 C208 1.348 . S
C210 C212 1.353 . S
C210 H252 0.929 . S
C211 C208 1.356 . S
C211 C213 1.358 . S
C211 H253 0.930 . S
C212 N209 1.314 . S
C212 C210 1.353 . S
C212 H254 0.930 . S
C213 N209 1.279 . S
C213 C211 1.358 . S
C213 H255 0.930 . S
C214 C215 1.348 . S
C214 C216 1.356 . S
C214 O239 1.325 . S
C215 C214 1.348 . S
C215 C217 1.353 . S
C215 H256 0.929 . S
C216 C214 1.356 . S
C216 C218 1.394 . S
C216 H257 0.930 . S
C217 C215 1.353 . S
C217 N219 1.314 1_554 S
C217 H258 0.930 1_564 S
C218 C216 1.394 . S
C218 N219 1.261 1_554 S
C218 H259 0.912 1_554 S
N219 C217 1.314 1_556 S
N219 C218 1.261 1_556 S
C220 C222 1.353 . S
C220 N223 1.314 . S
C220 H226 0.930 . S
C221 N223 1.279 . S
C221 C224 1.358 . S
C221 H227 0.930 . S
C222 C220 1.353 . S
C222 C225 1.348 . S
C222 H260 0.929 . S
N223 Li178 1.990 1_545 S
N223 C220 1.314 . S
N223 C221 1.279 . S
C224 C221 1.358 . S
C224 C225 1.356 . S
C224 H261 0.930 . S
C225 C222 1.348 . S
C225 C224 1.356 . S
H226 C220 0.930 . S
H227 C221 0.930 . S
C228 N229 1.314 . S
C228 C230 1.353 . S
C228 H234 0.930 . S
N229 Li179 1.990 . S
N229 C228 1.314 . S
N229 C232 1.279 . S
C230 C228 1.353 . S
C230 C233 1.348 . S
C230 H262 0.929 . S
C231 C232 1.358 . S
C231 C233 1.356 . S
C231 H263 0.970 . S
C232 N229 1.279 . S
C232 C231 1.358 . S
C232 H235 0.930 . S
C233 C230 1.348 . S
C233 C231 1.356 . S
H234 C228 0.930 . S
H235 C232 0.930 . S
O236 Li176 1.956 . S
O236 Li177 1.970 . S
O236 Li178 1.961 . S
O236 C180 1.325 . S
O237 Li176 1.970 . S
O237 Li177 1.956 . S
O237 Li179 1.961 . S
O237 C186 1.325 . S
O238 Li176 1.961 . S
O238 Li178 1.956 . S
O238 Li179 1.970 . S
O238 C208 1.325 . S
O239 Li177 1.961 . S
O239 Li178 1.970 . S
O239 Li179 1.956 . S
O239 C214 1.325 . S
H240 C182 0.929 . S
H241 C183 0.930 . S
H242 C184 0.930 . S
H243 C185 0.930 . S
H244 C187 0.930 . S
H245 C189 0.929 . S
H246 C190 0.930 . S
H247 C191 0.930 . S
H248 C194 0.930 . S
H249 C197 0.929 . S
H250 C202 0.929 . S
H251 C203 0.930 . S
H252 C210 0.929 . S
H253 C211 0.930 . S
H254 C212 0.930 . S
H255 C213 0.930 . S
H256 C215 0.929 . S
H257 C216 0.930 . S
H258 C217 0.930 1_546 S
H259 C218 0.912 1_556 S
H260 C222 0.929 . S
H261 C224 0.930 . S
H262 C230 0.929 . S
H263 C231 0.970 . S
Li264 N281 1.990 . S
Li264 O324 1.956 . S
Li264 O325 1.970 . S
Li264 O326 1.961 . S
Li265 N289 1.990 1_565 S
Li265 O324 1.970 . S
Li265 O325 1.956 . S
Li265 O327 1.961 . S
Li266 N311 1.990 . S
Li266 O324 1.961 . S
Li266 O326 1.956 . S
Li266 O327 1.970 . S
Li267 N317 1.990 . S
Li267 O325 1.961 . S
Li267 O326 1.970 . S
Li267 O327 1.956 . S
C268 C270 1.348 . S
C268 C271 1.356 . S
C268 O324 1.325 . S
N269 C272 1.314 . S
N269 C273 1.279 . S
C270 C268 1.348 . S
C270 C272 1.353 . S
C270 H328 0.929 . S
C271 C268 1.356 . S
C271 C273 1.358 . S
C271 H329 0.930 . S
C272 N269 1.314 . S
C272 C270 1.353 . S
C272 H330 0.930 1_565 S
C273 N269 1.279 . S
C273 C271 1.358 . S
C273 H331 0.930 . S
C274 C277 1.348 . S
C274 C278 1.356 . S
C274 O325 1.325 . S
C275 N276 1.279 . S
C275 C278 1.358 . S
C275 H332 0.930 . S
N276 C275 1.279 . S
N276 C279 1.314 . S
C277 C274 1.348 . S
C277 C279 1.353 . S
C277 H333 0.929 . S
C278 C274 1.356 . S
C278 C275 1.358 . S
C278 H334 0.930 . S
C279 N276 1.314 . S
C279 C277 1.353 . S
C279 H335 0.930 . S
C280 N281 1.314 . S
C280 C285 1.353 . S
C280 H286 0.930 . S
N281 Li264 1.990 . S
N281 C280 1.314 . S
N281 C283 1.279 . S
C282 C283 1.358 . S
C282 C284 1.356 . S
C282 H336 0.930 . S
C283 N281 1.279 . S
C283 C282 1.358 . S
C283 H287 0.930 . S
C284 C282 1.356 . S
C284 C285 1.348 . S
C285 C280 1.353 . S
C285 C284 1.348 . S
C285 H337 0.929 . S
H286 C280 0.930 . S
H287 C283 0.930 . S
C288 N289 1.314 . S
C288 C290 1.353 . S
C288 H294 0.930 . S
N289 Li265 1.990 1_545 S
N289 C288 1.314 . S
N289 C292 1.279 . S
C290 C288 1.353 . S
C290 C293 1.348 . S
C290 H338 0.929 . S
C291 C292 1.358 . S
C291 C293 1.356 . S
C291 H339 0.930 . S
C292 N289 1.279 . S
C292 C291 1.358 . S
C292 H295 0.930 . S
C293 C290 1.348 . S
C293 C291 1.356 . S
H294 C288 0.930 . S
H295 C292 0.930 . S
C296 C298 1.348 . S
C296 C299 1.356 . S
C296 O326 1.325 . S
N297 C300 1.314 . S
N297 C301 1.279 . S
C298 C296 1.348 . S
C298 C300 1.353 . S
C298 H340 0.929 . S
C299 C296 1.356 . S
C299 C301 1.358 . S
C299 H341 0.930 . S
C300 N297 1.314 . S
C300 C298 1.353 . S
C300 H342 0.930 . S
C301 N297 1.279 . S
C301 C299 1.358 . S
C301 H343 0.930 . S
C302 C303 1.348 . S
C302 C304 1.356 1_565 S
C302 O327 1.325 . S
C303 C302 1.348 . S
C303 C305 1.353 1_565 S
C303 H344 0.929 . S
C304 C302 1.356 1_545 S
C304 C306 1.358 . S
C304 H345 0.930 . S
C305 C303 1.353 1_545 S
C305 N307 1.314 . S
C305 H346 0.930 . S
C306 C304 1.358 . S
C306 N307 1.279 . S
C306 H347 0.930 . S
N307 C305 1.314 . S
N307 C306 1.279 . S
C308 C310 1.353 . S
C308 N311 1.314 . S
C308 H314 0.930 . S
C309 N311 1.279 . S
C309 C312 1.358 . S
C309 H315 0.930 . S
C310 C308 1.353 . S
C310 C313 1.348 . S
C310 H348 0.929 . S
N311 Li266 1.990 . S
N311 C308 1.314 . S
N311 C309 1.279 . S
C312 C309 1.358 . S
C312 C313 1.356 . S
C312 H349 0.930 . S
C313 C310 1.348 . S
C313 C312 1.356 . S
H314 C308 0.930 . S
H315 C309 0.930 . S
C316 N317 1.314 . S
C316 C318 1.353 . S
C316 H322 0.930 . S
N317 Li267 1.990 . S
N317 C316 1.314 . S
N317 C320 1.279 . S
C318 C316 1.353 . S
C318 C321 1.348 . S
C318 H350 0.929 . S
C319 C320 1.358 . S
C319 C321 1.356 . S
C319 H351 0.930 . S
C320 N317 1.279 . S
C320 C319 1.358 . S
C320 H323 0.930 . S
C321 C318 1.348 . S
C321 C319 1.356 . S
H322 C316 0.930 . S
H323 C320 0.930 . S
O324 Li264 1.956 . S
O324 Li265 1.970 . S
O324 Li266 1.961 . S
O324 C268 1.325 . S
O325 Li264 1.970 . S
O325 Li265 1.956 . S
O325 Li267 1.961 . S
O325 C274 1.325 . S
O326 Li264 1.961 . S
O326 Li266 1.956 . S
O326 Li267 1.970 . S
O326 C296 1.325 . S
O327 Li265 1.961 . S
O327 Li266 1.970 . S
O327 Li267 1.956 . S
O327 C302 1.325 . S
H328 C270 0.929 . S
H329 C271 0.930 . S
H330 C272 0.930 1_545 S
H331 C273 0.930 . S
H332 C275 0.930 . S
H333 C277 0.929 . S
H334 C278 0.930 . S
H335 C279 0.930 . S
H336 C282 0.930 . S
H337 C285 0.929 . S
H338 C290 0.929 . S
H339 C291 0.930 . S
H340 C298 0.929 . S
H341 C299 0.930 . S
H342 C300 0.930 . S
H343 C301 0.930 . S
H344 C303 0.929 . S
H345 C304 0.930 . S
H346 C305 0.930 . S
H347 C306 0.930 . S
H348 C310 0.929 . S
H349 C312 0.930 . S
H350 C318 0.929 . S
H351 C319 0.930 . S
Li352 N369 1.990 . S
Li352 O412 1.956 . S
Li352 O413 1.970 . S
Li352 O414 1.961 . S
Li353 N377 1.990 1_455 S
Li353 O412 1.970 . S
Li353 O413 1.956 . S
Li353 O415 1.961 . S
Li354 N399 1.990 . S
Li354 O412 1.961 . S
Li354 O414 1.956 . S
Li354 O415 1.970 . S
Li355 N405 1.990 . S
Li355 O413 1.961 . S
Li355 O414 1.970 . S
Li355 O415 1.956 . S
C356 C358 1.348 . S
C356 C359 1.356 . S
C356 O412 1.325 . S
N357 C360 1.314 . S
N357 C361 1.279 . S
C358 C356 1.348 . S
C358 C360 1.353 . S
C358 H416 0.929 . S
C359 C356 1.356 . S
C359 C361 1.358 . S
C359 H417 0.930 . S
C360 N357 1.314 . S
C360 C358 1.353 . S
C360 H418 0.930 1_455 S
C361 N357 1.279 . S
C361 C359 1.358 . S
C361 H419 0.930 . S
C362 C365 1.348 . S
C362 C366 1.356 . S
C362 O413 1.325 . S
C363 N364 1.279 . S
C363 C366 1.358 . S
C363 H420 0.930 . S
N364 C363 1.279 . S
N364 C367 1.314 . S
C365 C362 1.348 . S
C365 C367 1.353 . S
C365 H421 0.929 . S
C366 C362 1.356 . S
C366 C363 1.358 . S
C366 H422 0.930 . S
C367 N364 1.314 . S
C367 C365 1.353 . S
C367 H423 0.930 . S
C368 N369 1.314 . S
C368 C373 1.353 . S
C368 H374 0.930 . S
N369 Li352 1.990 . S
N369 C368 1.314 . S
N369 C371 1.279 . S
C370 C371 1.358 . S
C370 C372 1.356 . S
C370 H424 0.930 . S
C371 N369 1.279 . S
C371 C370 1.358 . S
C371 H375 0.930 . S
C372 C370 1.356 . S
C372 C373 1.348 . S
C373 C368 1.353 . S
C373 C372 1.348 . S
C373 H425 0.929 . S
H374 C368 0.930 . S
H375 C371 0.930 . S
C376 N377 1.314 . S
C376 C378 1.353 . S
C376 H382 0.930 . S
N377 Li353 1.990 1_655 S
N377 C376 1.314 . S
N377 C380 1.279 . S
C378 C376 1.353 . S
C378 C381 1.348 . S
C378 H426 0.929 . S
C379 C380 1.358 . S
C379 C381 1.356 . S
C379 H427 0.930 . S
C380 N377 1.279 . S
C380 C379 1.358 . S
C380 H383 0.930 . S
C381 C378 1.348 . S
C381 C379 1.356 . S
H382 C376 0.930 . S
H383 C380 0.930 . S
C384 C386 1.348 . S
C384 C387 1.356 . S
C384 O414 1.325 . S
N385 C388 1.314 . S
N385 C389 1.279 . S
C386 C384 1.348 . S
C386 C388 1.353 . S
C386 H428 0.929 . S
C387 C384 1.356 . S
C387 C389 1.358 . S
C387 H429 0.930 . S
C388 N385 1.314 . S
C388 C386 1.353 . S
C388 H430 0.930 . S
C389 N385 1.279 . S
C389 C387 1.358 . S
C389 H431 0.930 . S
C390 C391 1.348 . S
C390 C392 1.356 1_455 S
C390 O415 1.325 . S
C391 C390 1.348 . S
C391 C393 1.353 1_455 S
C391 H432 0.929 . S
C392 C390 1.356 1_655 S
C392 C394 1.358 . S
C392 H433 0.930 . S
C393 C391 1.353 1_655 S
C393 N395 1.314 . S
C393 H434 0.930 . S
C394 C392 1.358 . S
C394 N395 1.279 . S
C394 H435 0.930 . S
N395 C393 1.314 . S
N395 C394 1.279 . S
C396 C398 1.353 . S
C396 N399 1.314 . S
C396 H402 0.930 . S
C397 N399 1.279 . S
C397 C400 1.358 . S
C397 H403 0.930 . S
C398 C396 1.353 . S
C398 C401 1.348 . S
C398 H436 0.929 . S
N399 Li354 1.990 . S
N399 C396 1.314 . S
N399 C397 1.279 . S
C400 C397 1.358 . S
C400 C401 1.356 . S
C400 H437 0.930 . S
C401 C398 1.348 . S
C401 C400 1.356 . S
H402 C396 0.930 . S
H403 C397 0.930 . S
C404 N405 1.314 . S
C404 C406 1.353 . S
C404 H410 0.930 . S
N405 Li355 1.990 . S
N405 C404 1.314 . S
N405 C408 1.279 . S
C406 C404 1.353 . S
C406 C409 1.348 . S
C406 H438 0.929 . S
C407 C408 1.358 . S
C407 C409 1.356 . S
C407 H439 0.930 . S
C408 N405 1.279 . S
C408 C407 1.358 . S
C408 H411 0.930 . S
C409 C406 1.348 . S
C409 C407 1.356 . S
H410 C404 0.930 . S
H411 C408 0.930 . S
O412 Li352 1.956 . S
O412 Li353 1.970 . S
O412 Li354 1.961 . S
O412 C356 1.325 . S
O413 Li352 1.970 . S
O413 Li353 1.956 . S
O413 Li355 1.961 . S
O413 C362 1.325 . S
O414 Li352 1.961 . S
O414 Li354 1.956 . S
O414 Li355 1.970 . S
O414 C384 1.325 . S
O415 Li353 1.961 . S
O415 Li354 1.970 . S
O415 Li355 1.956 . S
O415 C390 1.325 . S
H416 C358 0.929 . S
H417 C359 0.930 . S
H418 C360 0.930 1_655 S
H419 C361 0.930 . S
H420 C363 0.930 . S
H421 C365 0.929 . S
H422 C366 0.930 . S
H423 C367 0.930 . S
H424 C370 0.930 . S
H425 C373 0.929 . S
H426 C378 0.929 . S
H427 C379 0.930 . S
H428 C386 0.929 . S
H429 C387 0.930 . S
H430 C388 0.930 . S
H431 C389 0.930 . S
H432 C391 0.929 . S
H433 C392 0.930 . S
H434 C393 0.930 . S
H435 C394 0.930 . S
H436 C398 0.929 . S
H437 C400 0.930 . S
H438 C406 0.929 . S
H439 C407 0.930 . S
Li440 N457 1.990 . S
Li440 O500 1.956 . S
Li440 O501 1.970 . S
Li440 O502 1.961 . S
Li441 N465 1.990 . S
Li441 O500 1.970 . S
Li441 O501 1.956 . S
Li441 O503 1.961 . S
Li442 N487 1.990 . S
Li442 O500 1.961 . S
Li442 O502 1.956 . S
Li442 O503 1.970 . S
Li443 N493 1.990 . S
Li443 O501 1.961 . S
Li443 O502 1.970 . S
Li443 O503 1.956 . S
C444 C446 1.348 . S
C444 C447 1.356 . S
C444 O500 1.325 . S
N445 C448 1.314 . S
N445 C449 1.279 . S
C446 C444 1.348 . S
C446 C448 1.353 . S
C446 H504 0.929 . S
C447 C444 1.356 . S
C447 C449 1.358 . S
C447 H505 0.930 . S
C448 N445 1.314 . S
C448 C446 1.353 . S
C448 H506 0.930 . S
C449 N445 1.279 . S
C449 C447 1.358 . S
C449 H507 0.930 . S
C450 C453 1.348 . S
C450 C454 1.356 . S
C450 O501 1.325 . S
C451 N452 1.279 . S
C451 C454 1.358 . S
C451 H508 0.930 . S
N452 C451 1.279 . S
N452 C455 1.314 . S
C453 C450 1.348 . S
C453 C455 1.353 . S
C453 H509 0.929 . S
C454 C450 1.356 . S
C454 C451 1.358 . S
C454 H510 0.930 . S
C455 N452 1.314 . S
C455 C453 1.353 . S
C455 H511 0.930 . S
C456 N457 1.314 . S
C456 C461 1.353 . S
C456 H462 0.930 . S
N457 Li440 1.990 . S
N457 C456 1.314 . S
N457 C459 1.279 . S
C458 C459 1.358 . S
C458 C460 1.356 . S
C458 H512 0.930 . S
C459 N457 1.279 . S
C459 C458 1.358 . S
C459 H463 0.930 . S
C460 C458 1.356 . S
C460 C461 1.348 . S
C461 C456 1.353 . S
C461 C460 1.348 . S
C461 H513 0.929 . S
H462 C456 0.930 . S
H463 C459 0.930 . S
C464 N465 1.314 . S
C464 C466 1.353 . S
C464 H470 0.930 . S
N465 Li441 1.990 . S
N465 C464 1.314 . S
N465 C468 1.279 . S
C466 C464 1.353 . S
C466 C469 1.348 . S
C466 H514 0.929 . S
C467 C468 1.358 . S
C467 C469 1.356 . S
C467 H515 0.930 . S
C468 N465 1.279 . S
C468 C467 1.358 . S
C468 H471 0.930 . S
C469 C466 1.348 . S
C469 C467 1.356 . S
H470 C464 0.930 . S
H471 C468 0.930 . S
C472 C474 1.348 . S
C472 C475 1.356 . S
C472 O502 1.325 . S
N473 C476 1.314 . S
N473 C477 1.279 . S
C474 C472 1.348 . S
C474 C476 1.353 . S
C474 H516 0.929 . S
C475 C472 1.356 . S
C475 C477 1.358 . S
C475 H517 0.930 . S
C476 N473 1.314 . S
C476 C474 1.353 . S
C476 H518 0.930 . S
C477 N473 1.279 . S
C477 C475 1.358 . S
C477 H519 0.930 . S
C478 C479 1.348 . S
C478 C480 1.356 . S
C478 O503 1.325 . S
C479 C478 1.348 . S
C479 C481 1.353 . S
C479 H520 0.929 . S
C480 C478 1.356 . S
C480 C482 1.358 . S
C480 H521 0.930 . S
C481 C479 1.353 . S
C481 N483 1.314 . S
C481 H522 0.930 . S
C482 C480 1.358 . S
C482 N483 1.279 . S
C482 H523 0.930 . S
N483 C481 1.314 . S
N483 C482 1.279 . S
C484 C486 1.353 . S
C484 N487 1.314 . S
C484 H490 0.930 . S
C485 N487 1.279 . S
C485 C488 1.358 . S
C485 H491 0.930 . S
C486 C484 1.353 . S
C486 C489 1.348 . S
C486 H524 0.929 . S
N487 Li442 1.990 . S
N487 C484 1.314 . S
N487 C485 1.279 . S
C488 C485 1.358 . S
C488 C489 1.356 . S
C488 H525 0.930 . S
C489 C486 1.348 . S
C489 C488 1.356 . S
H490 C484 0.930 . S
H491 C485 0.930 . S
C492 N493 1.314 . S
C492 C494 1.353 . S
C492 H498 0.930 . S
N493 Li443 1.990 . S
N493 C492 1.314 . S
N493 C496 1.279 . S
C494 C492 1.353 . S
C494 C497 1.348 . S
C494 H526 0.929 . S
C495 C496 1.358 . S
C495 C497 1.356 . S
C495 H527 0.930 . S
C496 N493 1.279 . S
C496 C495 1.358 . S
C496 H499 0.930 . S
C497 C494 1.348 . S
C497 C495 1.356 . S
H498 C492 0.930 . S
H499 C496 0.930 . S
O500 Li440 1.956 . S
O500 Li441 1.970 . S
O500 Li442 1.961 . S
O500 C444 1.325 . S
O501 Li440 1.970 . S
O501 Li441 1.956 . S
O501 Li443 1.961 . S
O501 C450 1.325 . S
O502 Li440 1.961 . S
O502 Li442 1.956 . S
O502 Li443 1.970 . S
O502 C472 1.325 . S
O503 Li441 1.961 . S
O503 Li442 1.970 . S
O503 Li443 1.956 . S
O503 C478 1.325 . S
H504 C446 0.929 . S
H505 C447 0.930 . S
H506 C448 0.930 . S
H507 C449 0.930 . S
H508 C451 0.930 . S
H509 C453 0.929 . S
H510 C454 0.930 . S
H511 C455 0.930 . S
H512 C458 0.930 . S
H513 C461 0.929 . S
H514 C466 0.929 . S
H515 C467 0.930 . S
H516 C474 0.929 . S
H517 C475 0.930 . S
H518 C476 0.930 . S
H519 C477 0.930 . S
H520 C479 0.929 . S
H521 C480 0.930 . S
H522 C481 0.930 . S
H523 C482 0.930 . S
H524 C486 0.929 . S
H525 C488 0.930 . S
H526 C494 0.929 . S
H527 C495 0.930 . S
Li528 N545 1.990 . S
Li528 O588 1.956 . S
Li528 O589 1.970 . S
Li528 O590 1.961 . S
Li529 N553 1.990 . S
Li529 O588 1.970 . S
Li529 O589 1.956 . S
Li529 O591 1.961 . S
Li530 N575 1.990 1_655 S
Li530 O588 1.961 . S
Li530 O590 1.956 . S
Li530 O591 1.970 . S
Li531 N581 1.990 . S
Li531 O589 1.961 . S
Li531 O590 1.970 . S
Li531 O591 1.956 . S
C532 C534 1.348 . S
C532 C535 1.356 . S
C532 O588 1.325 . S
N533 C536 1.314 1_554 S
N533 C537 1.279 1_554 S
C534 C532 1.348 . S
C534 C536 1.353 . S
C534 H592 0.929 . S
C535 C532 1.356 . S
C535 C537 1.358 . S
C535 H593 0.930 . S
C536 N533 1.314 1_556 S
C536 C534 1.353 . S
C536 H594 0.930 1_556 S
C537 N533 1.279 1_556 S
C537 C535 1.358 . S
C537 H595 0.930 1_556 S
C538 C541 1.348 . S
C538 C542 1.356 . S
C538 O589 1.325 . S
C539 N540 1.279 . S
C539 C542 1.358 . S
C539 H596 0.930 . S
N540 C539 1.279 . S
N540 C543 1.314 . S
C541 C538 1.348 . S
C541 C543 1.353 . S
C541 H597 0.929 . S
C542 C538 1.356 . S
C542 C539 1.358 . S
C542 H598 0.930 . S
C543 N540 1.314 . S
C543 C541 1.353 . S
C543 H599 0.930 . S
C544 N545 1.314 . S
C544 C549 1.353 . S
C544 H550 0.930 . S
N545 Li528 1.990 . S
N545 C544 1.314 . S
N545 C547 1.279 . S
C546 C547 1.358 . S
C546 C548 1.356 . S
C546 H600 0.930 . S
C547 N545 1.279 . S
C547 C546 1.358 . S
C547 H551 0.930 . S
C548 C546 1.356 . S
C548 C549 1.348 . S
C549 C544 1.353 . S
C549 C548 1.348 . S
C549 H601 0.929 . S
H550 C544 0.930 . S
H551 C547 0.930 . S
C552 N553 1.314 . S
C552 C554 1.353 . S
C552 H558 0.930 . S
N553 Li529 1.990 . S
N553 C552 1.314 . S
N553 C556 1.279 . S
C554 C552 1.353 . S
C554 C557 1.348 . S
C554 H602 0.967 . S
C555 C556 1.358 . S
C555 C557 1.356 . S
C555 H603 0.930 . S
C556 N553 1.279 . S
C556 C555 1.358 . S
C556 H559 0.930 . S
C557 C554 1.348 . S
C557 C555 1.356 . S
H558 C552 0.930 . S
H559 C556 0.930 . S
C560 C562 1.348 . S
C560 C563 1.356 . S
C560 O590 1.325 . S
N561 C564 1.314 . S
N561 C565 1.279 . S
C562 C560 1.348 . S
C562 C564 1.353 . S
C562 H604 0.929 . S
C563 C560 1.356 . S
C563 C565 1.358 . S
C563 H605 0.930 . S
C564 N561 1.314 . S
C564 C562 1.353 . S
C564 H606 0.930 . S
C565 N561 1.279 . S
C565 C563 1.358 . S
C565 H607 0.930 . S
C566 C567 1.348 1_655 S
C566 C568 1.356 . S
C566 O591 1.325 . S
C567 C566 1.348 1_455 S
C567 C569 1.353 . S
C567 H608 0.929 . S
C568 C566 1.356 . S
C568 C570 1.358 1_655 S
C568 H609 0.930 . S
C569 C567 1.353 . S
C569 N571 1.314 . S
C569 H610 0.930 . S
C570 C568 1.358 1_455 S
C570 N571 1.279 . S
C570 H611 0.930 . S
N571 C569 1.314 . S
N571 C570 1.279 . S
C572 C574 1.353 . S
C572 N575 1.314 . S
C572 H578 0.930 . S
C573 N575 1.279 . S
C573 C576 1.358 . S
C573 H579 0.930 . S
C574 C572 1.353 . S
C574 C577 1.348 . S
C574 H612 0.929 . S
N575 Li530 1.990 1_455 S
N575 C572 1.314 . S
N575 C573 1.279 . S
C576 C573 1.358 . S
C576 C577 1.356 . S
C576 H613 0.930 . S
C577 C574 1.348 . S
C577 C576 1.356 . S
H578 C572 0.930 . S
H579 C573 0.930 . S
C580 N581 1.314 . S
C580 C582 1.353 . S
C580 H586 0.930 . S
N581 Li531 1.990 . S
N581 C580 1.314 . S
N581 C584 1.279 . S
C582 C580 1.353 . S
C582 C585 1.348 . S
C582 H614 0.929 . S
C583 C584 1.358 . S
C583 C585 1.356 . S
C583 H615 0.930 . S
C584 N581 1.279 . S
C584 C583 1.358 . S
C584 H587 0.930 . S
C585 C582 1.348 . S
C585 C583 1.356 . S
H586 C580 0.930 . S
H587 C584 0.930 . S
O588 Li528 1.956 . S
O588 Li529 1.970 . S
O588 Li530 1.961 . S
O588 C532 1.325 . S
O589 Li528 1.970 . S
O589 Li529 1.956 . S
O589 Li531 1.961 . S
O589 C538 1.325 . S
O590 Li528 1.961 . S
O590 Li530 1.956 . S
O590 Li531 1.970 . S
O590 C560 1.325 . S
O591 Li529 1.961 . S
O591 Li530 1.970 . S
O591 Li531 1.956 . S
O591 C566 1.325 . S
H592 C534 0.929 . S
H593 C535 0.930 . S
H594 C536 0.930 1_554 S
H595 C537 0.930 1_554 S
H596 C539 0.930 . S
H597 C541 0.929 . S
H598 C542 0.930 . S
H599 C543 0.930 . S
H600 C546 0.930 . S
H601 C549 0.929 . S
H602 C554 0.967 . S
H603 C555 0.930 . S
H604 C562 0.929 . S
H605 C563 0.930 . S
H606 C564 0.930 . S
H607 C565 0.930 . S
H608 C567 0.929 . S
H609 C568 0.930 . S
H610 C569 0.930 . S
H611 C570 0.930 . S
H612 C574 0.929 . S
H613 C576 0.930 . S
H614 C582 0.929 . S
H615 C583 0.930 . S
Li616 N633 1.990 . S
Li616 O676 1.956 . S
Li616 O677 1.970 . S
Li616 O678 1.961 . S
Li617 N641 1.990 . S
Li617 O676 1.970 . S
Li617 O677 1.956 . S
Li617 O679 1.961 . S
Li618 N663 1.990 . S
Li618 O676 1.961 . S
Li618 O678 1.956 . S
Li618 O679 1.970 . S
Li619 N669 1.990 . S
Li619 O677 1.961 . S
Li619 O678 1.970 . S
Li619 O679 1.956 . S
C620 C622 1.348 . S
C620 C623 1.356 . S
C620 O676 1.325 . S
N621 C624 1.314 . S
N621 C625 1.279 . S
C622 C620 1.348 . S
C622 C624 1.353 . S
C622 H680 0.929 . S
C623 C620 1.356 . S
C623 C625 1.358 . S
C623 H681 0.930 . S
C624 N621 1.314 . S
C624 C622 1.353 . S
C624 H682 0.930 . S
C625 N621 1.279 . S
C625 C623 1.358 . S
C625 H683 0.930 . S
C626 C629 1.348 . S
C626 C630 1.356 . S
C626 O677 1.325 . S
C627 N628 1.285 . S
C627 C630 1.346 1_554 S
C627 H684 0.939 . S
N628 C627 1.285 . S
N628 C631 1.314 1_554 S
C629 C626 1.348 . S
C629 C631 1.353 . S
C629 H685 0.929 . S
C630 C626 1.356 . S
C630 C627 1.346 1_556 S
C630 H686 0.930 . S
C631 N628 1.314 1_556 S
C631 C629 1.353 . S
C631 H687 0.930 . S
C632 N633 1.314 . S
C632 C637 1.353 . S
C632 H638 0.930 . S
N633 Li616 1.990 . S
N633 C632 1.314 . S
N633 C635 1.279 . S
C634 C635 1.358 . S
C634 C636 1.356 . S
C634 H688 0.930 . S
C635 N633 1.279 . S
C635 C634 1.358 . S
C635 H639 0.930 . S
C636 C634 1.356 . S
C636 C637 1.348 . S
C637 C632 1.353 . S
C637 C636 1.348 . S
C637 H689 0.929 . S
H638 C632 0.930 . S
H639 C635 0.930 . S
C640 N641 1.314 . S
C640 C642 1.353 . S
C640 H646 0.930 . S
N641 Li617 1.990 . S
N641 C640 1.314 . S
N641 C644 1.279 . S
C642 C640 1.353 . S
C642 C645 1.348 . S
C642 H690 0.929 . S
C643 C644 1.358 . S
C643 C645 1.356 . S
C643 H691 0.930 . S
C644 N641 1.279 . S
C644 C643 1.358 . S
C644 H647 0.930 . S
C645 C642 1.348 . S
C645 C643 1.356 . S
H646 C640 0.930 . S
H647 C644 0.930 . S
C648 C650 1.348 . S
C648 C651 1.356 . S
C648 O678 1.325 . S
N649 C652 1.314 . S
N649 C653 1.279 . S
C650 C648 1.348 . S
C650 C652 1.353 . S
C650 H692 0.929 . S
C651 C648 1.356 . S
C651 C653 1.358 . S
C651 H693 0.930 . S
C652 N649 1.314 . S
C652 C650 1.353 . S
C652 H694 0.930 . S
C653 N649 1.279 . S
C653 C651 1.358 . S
C653 H695 0.930 . S
C654 C655 1.348 . S
C654 C656 1.356 . S
C654 O679 1.325 . S
C655 C654 1.348 . S
C655 C657 1.353 . S
C655 H696 0.929 . S
C656 C654 1.356 . S
C656 C658 1.358 . S
C656 H697 0.930 . S
C657 C655 1.353 . S
C657 N659 1.314 . S
C657 H698 0.930 . S
C658 C656 1.358 . S
C658 N659 1.279 . S
C658 H699 0.930 . S
N659 C657 1.314 . S
N659 C658 1.279 . S
C660 C662 1.353 . S
C660 N663 1.314 . S
C660 H666 0.930 . S
C661 N663 1.279 . S
C661 C664 1.358 . S
C661 H667 0.930 . S
C662 C660 1.353 . S
C662 C665 1.348 . S
C662 H700 0.929 . S
N663 Li618 1.990 . S
N663 C660 1.314 . S
N663 C661 1.279 . S
C664 C661 1.358 . S
C664 C665 1.356 . S
C664 H701 0.930 . S
C665 C662 1.348 . S
C665 C664 1.356 . S
H666 C660 0.930 . S
H667 C661 0.930 . S
C668 N669 1.314 . S
C668 C670 1.353 . S
C668 H674 0.930 . S
N669 Li619 1.990 . S
N669 C668 1.314 . S
N669 C672 1.279 . S
C670 C668 1.353 . S
C670 C673 1.348 . S
C670 H702 0.929 . S
C671 C672 1.358 . S
C671 C673 1.356 . S
C671 H703 0.930 . S
C672 N669 1.279 . S
C672 C671 1.358 . S
C672 H675 0.930 . S
C673 C670 1.348 . S
C673 C671 1.356 . S
H674 C668 0.930 . S
H675 C672 0.930 . S
O676 Li616 1.956 . S
O676 Li617 1.970 . S
O676 Li618 1.961 . S
O676 C620 1.325 . S
O677 Li616 1.970 . S
O677 Li617 1.956 . S
O677 Li619 1.961 . S
O677 C626 1.325 . S
O678 Li616 1.961 . S
O678 Li618 1.956 . S
O678 Li619 1.970 . S
O678 C648 1.325 . S
O679 Li617 1.961 . S
O679 Li618 1.970 . S
O679 Li619 1.956 . S
O679 C654 1.325 . S
H680 C622 0.929 . S
H681 C623 0.930 . S
H682 C624 0.930 . S
H683 C625 0.930 . S
H684 C627 0.939 . S
H685 C629 0.929 . S
H686 C630 0.930 . S
H687 C631 0.930 . S
H688 C634 0.930 . S
H689 C637 0.929 . S
H690 C642 0.929 . S
H691 C643 0.930 . S
H692 C650 0.929 . S
H693 C651 0.930 . S
H694 C652 0.930 . S
H695 C653 0.930 . S
H696 C655 0.929 . S
H697 C656 0.930 . S
H698 C657 0.930 . S
H699 C658 0.930 . S
H700 C662 0.929 . S
H701 C664 0.930 . S
H702 C670 0.929 . S
H703 C671 0.930 . S
Li704 N721 1.990 . S
Li704 O764 1.956 . S
Li704 O765 1.970 . S
Li704 O766 1.961 . S
Li705 N729 1.990 . S
Li705 O764 1.970 . S
Li705 O765 1.956 . S
Li705 O767 1.961 . S
Li706 N751 1.990 1_545 S
Li706 O764 1.961 . S
Li706 O766 1.956 . S
Li706 O767 1.970 . S
Li707 N757 1.990 . S
Li707 O765 1.961 . S
Li707 O766 1.970 . S
Li707 O767 1.956 . S
C708 C710 1.348 . S
C708 C711 1.356 . S
C708 O764 1.325 . S
N709 C712 1.314 . S
N709 C713 1.279 . S
C710 C708 1.348 . S
C710 C712 1.353 . S
C710 H768 0.929 . S
C711 C708 1.356 . S
C711 C713 1.358 . S
C711 H769 0.930 . S
C712 N709 1.314 . S
C712 C710 1.353 . S
C712 H770 0.930 . S
C713 N709 1.279 . S
C713 C711 1.358 . S
C713 H771 0.930 . S
C714 C717 1.348 . S
C714 C718 1.356 . S
C714 O765 1.325 . S
C715 N716 1.279 . S
C715 C718 1.358 . S
C715 H772 0.930 . S
N716 C715 1.279 . S
N716 C719 1.314 . S
C717 C714 1.348 . S
C717 C719 1.353 . S
C717 H773 0.929 . S
C718 C714 1.356 . S
C718 C715 1.358 . S
C718 H774 0.930 . S
C719 N716 1.314 . S
C719 C717 1.353 . S
C719 H775 0.930 . S
C720 N721 1.314 . S
C720 C725 1.353 . S
C720 H726 0.930 . S
N721 Li704 1.990 . S
N721 C720 1.314 . S
N721 C723 1.279 . S
C722 C723 1.358 . S
C722 C724 1.356 . S
C722 H776 0.930 . S
C723 N721 1.279 . S
C723 C722 1.358 . S
C723 H727 0.930 . S
C724 C722 1.356 . S
C724 C725 1.348 . S
C725 C720 1.353 . S
C725 C724 1.348 . S
C725 H777 0.929 . S
H726 C720 0.930 . S
H727 C723 0.930 . S
C728 N729 1.314 . S
C728 C730 1.353 . S
C728 H734 0.930 . S
N729 Li705 1.990 . S
N729 C728 1.314 . S
N729 C732 1.279 . S
C730 C728 1.353 . S
C730 C733 1.348 . S
C730 H778 0.929 . S
C731 C732 1.358 . S
C731 C733 1.356 . S
C731 H779 0.930 . S
C732 N729 1.279 . S
C732 C731 1.358 . S
C732 H735 0.930 . S
C733 C730 1.348 . S
C733 C731 1.356 . S
H734 C728 0.930 . S
H735 C732 0.930 . S
C736 C738 1.348 1_545 S
C736 C739 1.356 1_545 S
C736 O766 1.325 . S
N737 C740 1.314 . S
N737 C741 1.279 . S
C738 C736 1.348 1_565 S
C738 C740 1.353 . S
C738 H780 0.929 . S
C739 C736 1.356 1_565 S
C739 C741 1.358 . S
C739 H781 0.930 . S
C740 N737 1.314 . S
C740 C738 1.353 . S
C740 H782 0.930 . S
C741 N737 1.279 . S
C741 C739 1.358 . S
C741 H783 0.930 . S
C742 C743 1.348 . S
C742 C744 1.356 . S
C742 O767 1.325 . S
C743 C742 1.348 . S
C743 C745 1.353 . S
C743 H784 0.929 1_545 S
C744 C742 1.356 . S
C744 C746 1.336 1_556 S
C744 H785 0.930 . S
C745 C743 1.353 . S
C745 N747 1.314 1_556 S
C745 H786 0.930 1_545 S
C746 C744 1.336 1_554 S
C746 N747 1.289 . S
C746 H787 0.945 . S
N747 C745 1.314 1_554 S
N747 C746 1.289 . S
C748 C750 1.353 . S
C748 N751 1.314 . S
C748 H754 0.930 . S
C749 N751 1.279 . S
C749 C752 1.358 . S
C749 H755 0.930 . S
C750 C748 1.353 . S
C750 C753 1.348 . S
C750 H788 0.929 . S
N751 Li706 1.990 1_565 S
N751 C748 1.314 . S
N751 C749 1.279 . S
C752 C749 1.358 . S
C752 C753 1.356 . S
C752 H789 0.930 . S
C753 C750 1.348 . S
C753 C752 1.356 . S
H754 C748 0.930 . S
H755 C749 0.930 . S
C756 N757 1.314 . S
C756 C758 1.353 . S
C756 H762 0.930 . S
N757 Li707 1.990 . S
N757 C756 1.314 . S
N757 C760 1.279 . S
C758 C756 1.353 . S
C758 C761 1.348 . S
C758 H790 0.929 . S
C759 C760 1.358 . S
C759 C761 1.356 . S
C759 H791 0.930 . S
C760 N757 1.279 . S
C760 C759 1.358 . S
C760 H763 0.930 . S
C761 C758 1.348 . S
C761 C759 1.356 . S
H762 C756 0.930 . S
H763 C760 0.930 . S
O764 Li704 1.956 . S
O764 Li705 1.970 . S
O764 Li706 1.961 . S
O764 C708 1.325 . S
O765 Li704 1.970 . S
O765 Li705 1.956 . S
O765 Li707 1.961 . S
O765 C714 1.325 . S
O766 Li704 1.961 . S
O766 Li706 1.956 . S
O766 Li707 1.970 . S
O766 C736 1.325 . S
O767 Li705 1.961 . S
O767 Li706 1.970 . S
O767 Li707 1.956 . S
O767 C742 1.325 . S
H768 C710 0.929 . S
H769 C711 0.930 . S
H770 C712 0.930 . S
H771 C713 0.930 . S
H772 C715 0.930 . S
H773 C717 0.929 . S
H774 C718 0.930 . S
H775 C719 0.930 . S
H776 C722 0.930 . S
H777 C725 0.929 . S
H778 C730 0.929 . S
H779 C731 0.930 . S
H780 C738 0.929 . S
H781 C739 0.930 . S
H782 C740 0.930 . S
H783 C741 0.930 . S
H784 C743 0.929 1_565 S
H785 C744 0.930 . S
H786 C745 0.930 1_565 S
H787 C746 0.945 . S
H788 C750 0.929 . S
H789 C752 0.930 . S
H790 C758 0.929 . S
H791 C759 0.930 . S
Li792 N809 1.990 . S
Li792 O852 1.956 . S
Li792 O853 1.970 . S
Li792 O854 1.961 . S
Li793 N817 1.990 . S
Li793 O852 1.970 . S
Li793 O853 1.956 . S
Li793 O855 1.961 . S
Li794 N839 1.990 . S
Li794 O852 1.961 . S
Li794 O854 1.956 . S
Li794 O855 1.970 . S
Li795 N845 1.990 1_545 S
Li795 O853 1.961 . S
Li795 O854 1.970 . S
Li795 O855 1.956 . S
C796 C798 1.348 . S
C796 C799 1.356 . S
C796 O852 1.325 . S
N797 C800 1.314 . S
N797 C801 1.279 . S
C798 C796 1.348 . S
C798 C800 1.353 . S
C798 H856 0.929 . S
C799 C796 1.356 . S
C799 C801 1.358 . S
C799 H857 0.930 . S
C800 N797 1.314 . S
C800 C798 1.353 . S
C800 H858 0.930 . S
C801 N797 1.279 . S
C801 C799 1.358 . S
C801 H859 0.930 . S
C802 C805 1.348 . S
C802 C806 1.356 . S
C802 O853 1.325 . S
C803 N804 1.279 . S
C803 C806 1.358 . S
C803 H860 0.930 . S
N804 C803 1.279 . S
N804 C807 1.314 . S
C805 C802 1.348 . S
C805 C807 1.353 . S
C805 H861 0.929 . S
C806 C802 1.356 . S
C806 C803 1.358 . S
C806 H862 0.930 . S
C807 N804 1.314 . S
C807 C805 1.353 . S
C807 H863 0.930 . S
C808 N809 1.314 . S
C808 C813 1.353 . S
C808 H814 0.930 . S
N809 Li792 1.990 . S
N809 C808 1.314 . S
N809 C811 1.279 . S
C810 C811 1.358 . S
C810 C812 1.356 . S
C810 H864 0.930 . S
C811 N809 1.279 . S
C811 C810 1.358 . S
C811 H815 0.930 . S
C812 C810 1.356 . S
C812 C813 1.348 . S
C813 C808 1.353 . S
C813 C812 1.348 . S
C813 H865 0.929 . S
H814 C808 0.930 . S
H815 C811 0.930 . S
C816 N817 1.314 . S
C816 C818 1.353 . S
C816 H822 0.930 . S
N817 Li793 1.990 . S
N817 C816 1.314 . S
N817 C820 1.279 . S
C818 C816 1.353 . S
C818 C821 1.348 . S
C818 H866 0.929 . S
C819 C820 1.358 . S
C819 C821 1.356 . S
C819 H867 0.930 . S
C820 N817 1.279 . S
C820 C819 1.358 . S
C820 H823 0.930 . S
C821 C818 1.348 . S
C821 C819 1.356 . S
H822 C816 0.930 . S
H823 C820 0.930 . S
C824 C826 1.348 . S
C824 C827 1.356 . S
C824 O854 1.325 . S
N825 C828 1.314 . S
N825 C829 1.279 . S
C826 C824 1.348 . S
C826 C828 1.353 . S
C826 H868 0.929 1_545 S
C827 C824 1.356 . S
C827 C829 1.358 . S
C827 H869 0.930 . S
C828 N825 1.314 . S
C828 C826 1.353 . S
C828 H870 0.930 1_545 S
C829 N825 1.279 . S
C829 C827 1.358 . S
C829 H871 0.930 . S
C830 C831 1.348 1_545 S
C830 C832 1.356 1_545 S
C830 O855 1.325 . S
C831 C830 1.348 1_565 S
C831 C833 1.353 . S
C831 H872 0.929 . S
C832 C830 1.356 1_565 S
C832 C834 1.358 . S
C832 H873 0.930 . S
C833 C831 1.353 . S
C833 N835 1.314 . S
C833 H874 0.930 . S
C834 C832 1.358 . S
C834 N835 1.279 . S
C834 H875 0.930 . S
N835 C833 1.314 . S
N835 C834 1.279 . S
C836 C838 1.353 . S
C836 N839 1.314 . S
C836 H842 0.930 . S
C837 N839 1.279 . S
C837 C840 1.358 . S
C837 H843 0.930 . S
C838 C836 1.353 . S
C838 C841 1.348 . S
C838 H876 0.929 . S
N839 Li794 1.990 . S
N839 C836 1.314 . S
N839 C837 1.279 . S
C840 C837 1.358 . S
C840 C841 1.356 . S
C840 H877 0.930 . S
C841 C838 1.348 . S
C841 C840 1.356 . S
H842 C836 0.930 . S
H843 C837 0.930 . S
C844 N845 1.314 . S
C844 C846 1.353 . S
C844 H850 0.930 . S
N845 Li795 1.990 1_565 S
N845 C844 1.314 . S
N845 C848 1.279 . S
C846 C844 1.353 . S
C846 C849 1.348 . S
C846 H878 0.929 . S
C847 C848 1.358 . S
C847 C849 1.356 . S
C847 H879 0.930 . S
C848 N845 1.279 . S
C848 C847 1.358 . S
C848 H851 0.930 . S
C849 C846 1.348 . S
C849 C847 1.356 . S
H850 C844 0.930 . S
H851 C848 0.930 . S
O852 Li792 1.956 . S
O852 Li793 1.970 . S
O852 Li794 1.961 . S
O852 C796 1.325 . S
O853 Li792 1.970 . S
O853 Li793 1.956 . S
O853 Li795 1.961 . S
O853 C802 1.325 . S
O854 Li792 1.961 . S
O854 Li794 1.956 . S
O854 Li795 1.970 . S
O854 C824 1.325 . S
O855 Li793 1.961 . S
O855 Li794 1.970 . S
O855 Li795 1.956 . S
O855 C830 1.325 . S
H856 C798 0.929 . S
H857 C799 0.930 . S
H858 C800 0.930 . S
H859 C801 0.930 . S
H860 C803 0.930 . S
H861 C805 0.929 . S
H862 C806 0.930 . S
H863 C807 0.930 . S
H864 C810 0.930 . S
H865 C813 0.929 . S
H866 C818 0.929 . S
H867 C819 0.930 . S
H868 C826 0.929 1_565 S
H869 C827 0.930 . S
H870 C828 0.930 1_565 S
H871 C829 0.930 . S
H872 C831 0.929 . S
H873 C832 0.930 . S
H874 C833 0.930 . S
H875 C834 0.930 . S
H876 C838 0.929 . S
H877 C840 0.930 . S
H878 C846 0.929 . S
H879 C847 0.930 . S
Li880 N897 1.990 1_655 S
Li880 O940 1.956 . S
Li880 O941 1.970 . S
Li880 O942 1.961 . S
Li881 N905 1.990 . S
Li881 O940 1.970 . S
Li881 O941 1.956 . S
Li881 O943 1.961 . S
Li882 N927 1.990 . S
Li882 O940 1.961 . S
Li882 O942 1.956 . S
Li882 O943 1.970 . S
Li883 N933 1.990 . S
Li883 O941 1.961 . S
Li883 O942 1.970 . S
Li883 O943 1.956 . S
C884 C886 1.348 1_655 S
C884 C887 1.356 1_655 S
C884 O940 1.325 . S
N885 C888 1.314 . S
N885 C889 1.279 . S
C886 C884 1.348 1_455 S
C886 C888 1.353 . S
C886 H944 0.929 . S
C887 C884 1.356 1_455 S
C887 C889 1.358 . S
C887 H945 0.930 . S
C888 N885 1.314 . S
C888 C886 1.353 . S
C888 H946 0.930 . S
C889 N885 1.279 . S
C889 C887 1.358 . S
C889 H947 0.930 . S
C890 C893 1.348 . S
C890 C894 1.356 . S
C890 O941 1.325 . S
C891 N892 1.279 . S
C891 C894 1.358 . S
C891 H948 0.930 . S
N892 C891 1.279 . S
N892 C895 1.314 . S
C893 C890 1.348 . S
C893 C895 1.353 . S
C893 H949 0.929 1_655 S
C894 C890 1.356 . S
C894 C891 1.358 . S
C894 H950 0.930 . S
C895 N892 1.314 . S
C895 C893 1.353 . S
C895 H951 0.930 1_655 S
C896 N897 1.314 . S
C896 C901 1.353 . S
C896 H902 0.930 . S
N897 Li880 1.990 1_455 S
N897 C896 1.314 . S
N897 C899 1.279 . S
C898 C899 1.358 . S
C898 C900 1.356 . S
C898 H952 0.930 . S
C899 N897 1.279 . S
C899 C898 1.358 . S
C899 H903 0.930 . S
C900 C898 1.356 . S
C900 C901 1.348 . S
C901 C896 1.353 . S
C901 C900 1.348 . S
C901 H953 0.929 . S
H902 C896 0.930 . S
H903 C899 0.930 . S
C904 N905 1.314 . S
C904 C906 1.353 . S
C904 H910 0.930 . S
N905 Li881 1.990 . S
N905 C904 1.314 . S
N905 C908 1.279 . S
C906 C904 1.353 . S
C906 C909 1.348 . S
C906 H954 0.929 . S
C907 C908 1.358 . S
C907 C909 1.356 . S
C907 H955 0.930 . S
C908 N905 1.279 . S
C908 C907 1.358 . S
C908 H911 0.930 . S
C909 C906 1.348 . S
C909 C907 1.356 . S
H910 C904 0.930 . S
H911 C908 0.930 . S
C912 C914 1.348 . S
C912 C915 1.356 . S
C912 O942 1.325 . S
N913 C916 1.314 . S
N913 C917 1.279 . S
C914 C912 1.348 . S
C914 C916 1.353 . S
C914 H956 0.929 . S
C915 C912 1.356 . S
C915 C917 1.358 . S
C915 H957 0.930 . S
C916 N913 1.314 . S
C916 C914 1.353 . S
C916 H958 0.930 . S
C917 N913 1.279 . S
C917 C915 1.358 . S
C917 H959 0.930 . S
C918 C919 1.348 . S
C918 C920 1.356 . S
C918 O943 1.325 . S
C919 C918 1.348 . S
C919 C921 1.353 . S
C919 H960 0.929 . S
C920 C918 1.356 . S
C920 C922 1.358 . S
C920 H961 0.930 . S
C921 C919 1.353 . S
C921 N923 1.314 . S
C921 H962 0.930 . S
C922 C920 1.358 . S
C922 N923 1.279 . S
C922 H963 0.930 . S
N923 C921 1.314 . S
N923 C922 1.279 . S
C924 C926 1.353 . S
C924 N927 1.314 . S
C924 H930 0.930 . S
C925 N927 1.279 . S
C925 C928 1.358 . S
C925 H931 0.930 . S
C926 C924 1.353 . S
C926 C929 1.348 . S
C926 H964 0.929 . S
N927 Li882 1.990 . S
N927 C924 1.314 . S
N927 C925 1.279 . S
C928 C925 1.358 . S
C928 C929 1.356 . S
C928 H965 0.930 . S
C929 C926 1.348 . S
C929 C928 1.356 . S
H930 C924 0.930 . S
H931 C925 0.930 . S
C932 N933 1.314 . S
C932 C934 1.353 . S
C932 H938 0.930 . S
N933 Li883 1.990 . S
N933 C932 1.314 . S
N933 C936 1.279 . S
C934 C932 1.353 . S
C934 C937 1.348 . S
C934 H966 0.929 . S
C935 C936 1.358 . S
C935 C937 1.356 . S
C935 H967 0.930 . S
C936 N933 1.279 . S
C936 C935 1.358 . S
C936 H939 0.930 . S
C937 C934 1.348 . S
C937 C935 1.356 . S
H938 C932 0.930 . S
H939 C936 0.930 . S
O940 Li880 1.956 . S
O940 Li881 1.970 . S
O940 Li882 1.961 . S
O940 C884 1.325 . S
O941 Li880 1.970 . S
O941 Li881 1.956 . S
O941 Li883 1.961 . S
O941 C890 1.325 . S
O942 Li880 1.961 . S
O942 Li882 1.956 . S
O942 Li883 1.970 . S
O942 C912 1.325 . S
O943 Li881 1.961 . S
O943 Li882 1.970 . S
O943 Li883 1.956 . S
O943 C918 1.325 . S
H944 C886 0.929 . S
H945 C887 0.930 . S
H946 C888 0.930 . S
H947 C889 0.930 . S
H948 C891 0.930 . S
H949 C893 0.929 1_455 S
H950 C894 0.930 . S
H951 C895 0.930 1_455 S
H952 C898 0.930 . S
H953 C901 0.929 . S
H954 C906 0.929 . S
H955 C907 0.930 . S
H956 C914 0.929 . S
H957 C915 0.930 . S
H958 C916 0.930 . S
H959 C917 0.930 . S
H960 C919 0.929 . S
H961 C920 0.930 . S
H962 C921 0.930 . S
H963 C922 0.930 . S
H964 C926 0.929 . S
H965 C928 0.930 . S
H966 C934 0.929 . S
H967 C935 0.930 . S
Li968 N985 1.990 . S
Li968 O1028 1.956 . S
Li968 O1029 1.970 . S
Li968 O1030 1.961 . S
Li969 N993 1.990 . S
Li969 O1028 1.970 . S
Li969 O1029 1.956 . S
Li969 O1031 1.961 . S
Li970 N1015 1.990 . S
Li970 O1028 1.961 . S
Li970 O1030 1.956 . S
Li970 O1031 1.970 . S
Li971 N1021 1.990 . S
Li971 O1029 1.961 . S
Li971 O1030 1.970 . S
Li971 O1031 1.956 . S
C972 C974 1.348 . S
C972 C975 1.356 . S
C972 O1028 1.325 . S
N973 C976 1.314 . S
N973 C977 1.279 . S
C974 C972 1.348 . S
C974 C976 1.353 . S
C974 H1032 0.929 . S
C975 C972 1.356 . S
C975 C977 1.358 . S
C975 H1033 0.930 . S
C976 N973 1.314 . S
C976 C974 1.353 . S
C976 H1034 0.930 . S
C977 N973 1.279 . S
C977 C975 1.358 . S
C977 H1035 0.930 . S
C978 C981 1.348 . S
C978 C982 1.356 . S
C978 O1029 1.325 . S
C979 N980 1.279 . S
C979 C982 1.358 . S
C979 H1036 0.930 . S
N980 C979 1.279 . S
N980 C983 1.314 . S
C981 C978 1.348 . S
C981 C983 1.353 . S
C981 H1037 0.929 . S
C982 C978 1.356 . S
C982 C979 1.358 . S
C982 H1038 0.930 . S
C983 N980 1.314 . S
C983 C981 1.353 . S
C983 H1039 0.930 . S
C984 N985 1.314 . S
C984 C989 1.353 . S
C984 H990 0.930 . S
N985 Li968 1.990 . S
N985 C984 1.314 . S
N985 C987 1.279 . S
C986 C987 1.358 . S
C986 C988 1.356 . S
C986 H1040 0.930 . S
C987 N985 1.279 . S
C987 C986 1.358 . S
C987 H991 0.930 . S
C988 C986 1.356 . S
C988 C989 1.348 . S
C989 C984 1.353 . S
C989 C988 1.348 . S
C989 H1041 0.929 . S
H990 C984 0.930 . S
H991 C987 0.930 . S
C992 N993 1.314 . S
C992 C994 1.353 . S
C992 H998 0.930 . S
N993 Li969 1.990 . S
N993 C992 1.314 . S
N993 C996 1.279 . S
C994 C992 1.353 . S
C994 C997 1.348 . S
C994 H1042 0.929 . S
C995 C996 1.358 . S
C995 C997 1.356 . S
C995 H1043 0.930 . S
C996 N993 1.279 . S
C996 C995 1.358 . S
C996 H999 0.930 . S
C997 C994 1.348 . S
C997 C995 1.356 . S
H998 C992 0.930 . S
H999 C996 0.930 . S
C1000 C1002 1.348 . S
C1000 C1003 1.356 . S
C1000 O1030 1.325 . S
N1001 C1004 1.314 . S
N1001 C1005 1.279 . S
C1002 C1000 1.348 . S
C1002 C1004 1.353 . S
C1002 H1044 0.929 . S
C1003 C1000 1.356 . S
C1003 C1005 1.358 . S
C1003 H1045 0.930 . S
C1004 N1001 1.314 . S
C1004 C1002 1.353 . S
C1004 H1046 0.930 . S
C1005 N1001 1.279 . S
C1005 C1003 1.358 . S
C1005 H1047 0.930 . S
C1006 C1007 1.348 . S
C1006 C1008 1.356 . S
C1006 O1031 1.325 . S
C1007 C1006 1.348 . S
C1007 C1009 1.353 . S
C1007 H1048 0.929 . S
C1008 C1006 1.356 . S
C1008 C1010 1.358 . S
C1008 H1049 0.930 . S
C1009 C1007 1.353 . S
C1009 N1011 1.314 . S
C1009 H1050 0.930 . S
C1010 C1008 1.358 . S
C1010 N1011 1.279 . S
C1010 H1051 0.930 . S
N1011 C1009 1.314 . S
N1011 C1010 1.279 . S
C1012 C1014 1.353 . S
C1012 N1015 1.314 . S
C1012 H1018 0.930 . S
C1013 N1015 1.279 . S
C1013 C1016 1.358 . S
C1013 H1019 0.930 . S
C1014 C1012 1.353 . S
C1014 C1017 1.348 . S
C1014 H1052 0.929 . S
N1015 Li970 1.990 . S
N1015 C1012 1.314 . S
N1015 C1013 1.279 . S
C1016 C1013 1.358 . S
C1016 C1017 1.356 . S
C1016 H1053 0.930 . S
C1017 C1014 1.348 . S
C1017 C1016 1.356 . S
H1018 C1012 0.930 . S
H1019 C1013 0.930 . S
C1020 N1021 1.314 . S
C1020 C1022 1.353 . S
C1020 H1026 0.930 . S
N1021 Li971 1.990 . S
N1021 C1020 1.314 . S
N1021 C1024 1.279 . S
C1022 C1020 1.353 . S
C1022 C1025 1.348 . S
C1022 H1054 0.929 . S
C1023 C1024 1.358 . S
C1023 C1025 1.356 . S
C1023 H1055 0.930 . S
C1024 N1021 1.279 . S
C1024 C1023 1.358 . S
C1024 H1027 0.930 . S
C1025 C1022 1.348 . S
C1025 C1023 1.356 . S
H1026 C1020 0.930 . S
H1027 C1024 0.930 . S
O1028 Li968 1.956 . S
O1028 Li969 1.970 . S
O1028 Li970 1.961 . S
O1028 C972 1.325 . S
O1029 Li968 1.970 . S
O1029 Li969 1.956 . S
O1029 Li971 1.961 . S
O1029 C978 1.325 . S
O1030 Li968 1.961 . S
O1030 Li970 1.956 . S
O1030 Li971 1.970 . S
O1030 C1000 1.325 . S
O1031 Li969 1.961 . S
O1031 Li970 1.970 . S
O1031 Li971 1.956 . S
O1031 C1006 1.325 . S
H1032 C974 0.929 . S
H1033 C975 0.930 . S
H1034 C976 0.930 . S
H1035 C977 0.930 . S
H1036 C979 0.930 . S
H1037 C981 0.929 . S
H1038 C982 0.930 . S
H1039 C983 0.930 . S
H1040 C986 0.930 . S
H1041 C989 0.929 . S
H1042 C994 0.929 . S
H1043 C995 0.930 . S
H1044 C1002 0.929 . S
H1045 C1003 0.930 . S
H1046 C1004 0.930 . S
H1047 C1005 0.930 . S
H1048 C1007 0.929 . S
H1049 C1008 0.930 . S
H1050 C1009 0.930 . S
H1051 C1010 0.930 . S
H1052 C1014 0.929 . S
H1053 C1016 0.930 . S
H1054 C1022 0.929 . S
H1055 C1023 0.930 . S
C1056 C1057 1.349 . S
C1056 C1058 1.327 . S
C1056 H1081 0.950 . S
C1057 C1056 1.349 . S
C1057 C1073 1.349 . S
C1058 C1056 1.327 . S
C1058 C1077 1.429 . S
C1058 H1082 0.950 . S
C1059 C1076 1.574 . S
C1059 C1078 1.368 . S
C1059 H1083 0.949 . S
H1060 C1064 0.949 . S
C1061 C1062 1.349 . S
C1061 C1063 1.327 . S
C1061 H1084 0.950 . S
C1062 C1061 1.349 . S
C1062 C1074 1.349 . S
C1063 C1061 1.327 . S
C1063 C1079 1.429 . S
C1063 H1085 0.950 . S
C1064 H1060 0.949 . S
C1064 C1072 1.574 . S
C1064 C1080 1.368 . S
H1065 C1073 0.950 . S
H1066 C1071 0.950 . S
H1067 C1072 0.949 1_554 S
H1068 C1074 0.950 . S
H1069 C1075 0.950 . S
H1070 C1076 0.949 . S
C1071 H1066 0.950 . S
C1071 C1073 1.327 1_556 S
C1071 C1077 1.429 1_556 S
C1072 C1064 1.574 . S
C1072 H1067 0.949 1_556 S
C1072 C1078 1.368 . S
C1073 C1057 1.349 . S
C1073 H1065 0.950 . S
C1073 C1071 1.327 1_554 S
C1074 C1062 1.349 . S
C1074 H1068 0.950 . S
C1074 C1075 1.327 . S
C1075 H1069 0.950 . S
C1075 C1074 1.327 . S
C1075 C1079 1.429 . S
C1076 C1059 1.574 . S
C1076 H1070 0.949 . S
C1076 C1080 1.368 . S
C1077 C1058 1.429 . S
C1077 C1071 1.429 1_554 S
C1077 C1078 1.523 1_554 S
C1078 C1059 1.368 . S
C1078 C1072 1.368 . S
C1078 C1077 1.523 1_556 S
C1079 C1063 1.429 . S
C1079 C1075 1.429 . S
C1079 C1080 1.523 . S
C1080 C1064 1.368 . S
C1080 C1076 1.368 . S
C1080 C1079 1.523 . S
H1081 C1056 0.950 . S
H1082 C1058 0.950 . S
H1083 C1059 0.949 . S
H1084 C1061 0.950 . S
H1085 C1063 0.950 . S
C1086 C1087 1.349 . S
C1086 C1088 1.327 . S
C1086 H1111 0.950 . S
C1087 C1086 1.349 . S
C1087 C1103 1.349 . S
C1088 C1086 1.327 . S
C1088 C1107 1.429 . S
C1088 H1112 0.950 . S
C1089 C1106 1.574 . S
C1089 C1108 1.368 . S
C1089 H1113 0.949 . S
H1090 C1094 0.949 . S
C1091 C1092 1.349 . S
C1091 C1093 1.327 . S
C1091 H1114 0.950 . S
C1092 C1091 1.349 . S
C1092 C1104 1.349 . S
C1093 C1091 1.327 . S
C1093 C1109 1.429 . S
C1093 H1115 0.950 . S
C1094 H1090 0.949 . S
C1094 C1102 1.569 1_556 S
C1094 C1110 1.368 . S
H1095 C1103 0.950 . S
H1096 C1101 0.950 . S
H1097 C1102 0.957 . S
H1098 C1104 0.950 . S
H1099 C1105 0.950 . S
H1100 C1106 0.949 . S
C1101 H1096 0.950 . S
C1101 C1103 1.327 1_556 S
C1101 C1107 1.429 1_556 S
C1102 C1094 1.569 1_554 S
C1102 H1097 0.957 . S
C1102 C1108 1.364 1_554 S
C1103 C1087 1.349 . S
C1103 H1095 0.950 . S
C1103 C1101 1.327 1_554 S
C1104 C1092 1.349 . S
C1104 H1098 0.950 . S
C1104 C1105 1.327 . S
C1105 H1099 0.950 . S
C1105 C1104 1.327 . S
C1105 C1109 1.429 . S
C1106 C1089 1.574 . S
C1106 H1100 0.949 . S
C1106 C1110 1.368 . S
C1107 C1088 1.429 . S
C1107 C1101 1.429 1_554 S
C1107 C1108 1.523 1_554 S
C1108 C1089 1.368 . S
C1108 C1102 1.364 1_556 S
C1108 C1107 1.523 1_556 S
C1109 C1093 1.429 . S
C1109 C1105 1.429 . S
C1109 C1110 1.523 . S
C1110 C1094 1.368 . S
C1110 C1106 1.368 . S
C1110 C1109 1.523 . S
H1111 C1086 0.950 . S
H1112 C1088 0.950 . S
H1113 C1089 0.949 . S
H1114 C1091 0.950 . S
H1115 C1093 0.950 . S
C1116 C1117 1.349 . S
C1116 C1118 1.327 . S
C1116 H1141 0.950 . S
C1117 C1116 1.349 . S
C1117 C1133 1.349 . S
C1118 C1116 1.327 . S
C1118 C1137 1.429 . S
C1118 H1142 0.950 . S
C1119 C1136 1.574 . S
C1119 C1138 1.368 . S
C1119 H1143 0.949 . S
H1120 C1124 0.949 . S
C1121 C1122 1.349 . S
C1121 C1123 1.327 . S
C1121 H1144 0.950 . S
C1122 C1121 1.349 . S
C1122 C1134 1.349 . S
C1123 C1121 1.327 . S
C1123 C1139 1.429 . S
C1123 H1145 0.950 . S
C1124 H1120 0.949 . S
C1124 C1132 1.547 1_556 S
C1124 C1140 1.368 . S
H1125 C1133 0.950 1_556 S
H1126 C1131 0.950 . S
H1127 C1132 1.000 . S
H1128 C1134 0.950 . S
H1129 C1135 0.950 . S
H1130 C1136 0.949 . S
C1131 H1126 0.950 . S
C1131 C1133 1.327 1_556 S
C1131 C1137 1.429 1_556 S
C1132 C1124 1.547 1_554 S
C1132 H1127 1.000 . S
C1132 C1138 1.341 1_554 S
C1133 C1117 1.349 . S
C1133 H1125 0.950 1_554 S
C1133 C1131 1.327 1_554 S
C1134 C1122 1.349 . S
C1134 H1128 0.950 . S
C1134 C1135 1.327 . S
C1135 H1129 0.950 . S
C1135 C1134 1.327 . S
C1135 C1139 1.429 . S
C1136 C1119 1.574 . S
C1136 H1130 0.949 . S
C1136 C1140 1.368 . S
C1137 C1118 1.429 . S
C1137 C1131 1.429 1_554 S
C1137 C1138 1.523 1_554 S
C1138 C1119 1.368 . S
C1138 C1132 1.341 1_556 S
C1138 C1137 1.523 1_556 S
C1139 C1123 1.429 . S
C1139 C1135 1.429 . S
C1139 C1140 1.523 . S
C1140 C1124 1.368 . S
C1140 C1136 1.368 . S
C1140 C1139 1.523 . S
H1141 C1116 0.950 . S
H1142 C1118 0.950 . S
H1143 C1119 0.949 . S
H1144 C1121 0.950 . S
H1145 C1123 0.950 . S
C1146 C1147 1.349 . S
C1146 C1148 1.327 . S
C1146 H1171 0.950 . S
C1147 C1146 1.349 . S
C1147 C1163 1.349 . S
C1148 C1146 1.327 . S
C1148 C1167 1.429 . S
C1148 H1172 0.950 . S
C1149 C1166 1.574 . S
C1149 C1168 1.368 . S
C1149 H1173 0.949 . S
H1150 C1154 0.949 . S
C1151 C1152 1.349 . S
C1151 C1153 1.327 . S
C1151 H1174 0.950 . S
C1152 C1151 1.349 . S
C1152 C1164 1.349 . S
C1153 C1151 1.327 . S
C1153 C1169 1.429 . S
C1153 H1175 0.950 . S
C1154 H1150 0.949 . S
C1154 C1162 1.574 . S
C1154 C1170 1.368 . S
H1155 C1163 0.950 . S
H1156 C1161 0.950 . S
H1157 C1162 0.949 . S
H1158 C1164 0.950 . S
H1159 C1165 0.950 . S
H1160 C1166 0.949 . S
C1161 H1156 0.950 . S
C1161 C1163 1.327 . S
C1161 C1167 1.429 . S
C1162 C1154 1.574 . S
C1162 H1157 0.949 . S
C1162 C1168 1.368 . S
C1163 C1147 1.349 . S
C1163 H1155 0.950 . S
C1163 C1161 1.327 . S
C1164 C1152 1.349 . S
C1164 H1158 0.950 . S
C1164 C1165 1.327 . S
C1165 H1159 0.950 . S
C1165 C1164 1.327 . S
C1165 C1169 1.429 . S
C1166 C1149 1.574 . S
C1166 H1160 0.949 . S
C1166 C1170 1.368 . S
C1167 C1148 1.429 . S
C1167 C1161 1.429 . S
C1167 C1168 1.523 . S
C1168 C1149 1.368 . S
C1168 C1162 1.368 . S
C1168 C1167 1.523 . S
C1169 C1153 1.429 . S
C1169 C1165 1.429 . S
C1169 C1170 1.523 . S
C1170 C1154 1.368 . S
C1170 C1166 1.368 . S
C1170 C1169 1.523 . S
H1171 C1146 0.950 . S
H1172 C1148 0.950 . S
H1173 C1149 0.949 . S
H1174 C1151 0.950 . S
H1175 C1153 0.950 . S
C1176 C1177 1.349 . S
C1176 C1178 1.327 . S
C1176 H1201 0.950 . S
C1177 C1176 1.349 . S
C1177 C1193 1.349 . S
C1178 C1176 1.327 . S
C1178 C1197 1.429 . S
C1178 H1202 0.950 . S
C1179 C1196 1.574 . S
C1179 C1198 1.368 . S
C1179 H1203 0.949 . S
H1180 C1184 0.949 . S
C1181 C1182 1.349 . S
C1181 C1183 1.327 . S
C1181 H1204 0.950 . S
C1182 C1181 1.349 . S
C1182 C1194 1.349 . S
C1183 C1181 1.327 . S
C1183 C1199 1.429 . S
C1183 H1205 0.950 . S
C1184 H1180 0.949 . S
C1184 C1192 1.574 . S
C1184 C1200 1.368 . S
H1185 C1193 0.950 . S
H1186 C1191 0.950 . S
H1187 C1192 0.949 . S
H1188 C1194 0.950 . S
H1189 C1195 0.950 . S
H1190 C1196 0.949 . S
C1191 H1186 0.950 . S
C1191 C1193 1.327 . S
C1191 C1197 1.429 . S
C1192 C1184 1.574 . S
C1192 H1187 0.949 . S
C1192 C1198 1.368 . S
C1193 C1177 1.349 . S
C1193 H1185 0.950 . S
C1193 C1191 1.327 . S
C1194 C1182 1.349 . S
C1194 H1188 0.950 . S
C1194 C1195 1.327 . S
C1195 H1189 0.950 . S
C1195 C1194 1.327 . S
C1195 C1199 1.429 . S
C1196 C1179 1.574 . S
C1196 H1190 0.949 . S
C1196 C1200 1.368 . S
C1197 C1178 1.429 . S
C1197 C1191 1.429 . S
C1197 C1198 1.523 . S
C1198 C1179 1.368 . S
C1198 C1192 1.368 . S
C1198 C1197 1.523 . S
C1199 C1183 1.429 . S
C1199 C1195 1.429 . S
C1199 C1200 1.523 . S
C1200 C1184 1.368 . S
C1200 C1196 1.368 . S
C1200 C1199 1.523 . S
H1201 C1176 0.950 . S
H1202 C1178 0.950 . S
H1203 C1179 0.949 . S
H1204 C1181 0.950 . S
H1205 C1183 0.950 . S
C1206 C1207 1.349 . S
C1206 C1208 1.327 . S
C1206 H1231 0.950 . S
C1207 C1206 1.349 . S
C1207 C1223 1.349 . S
C1208 C1206 1.327 . S
C1208 C1227 1.429 . S
C1208 H1232 0.950 . S
C1209 C1226 1.574 . S
C1209 C1228 1.368 . S
C1209 H1233 0.949 . S
H1210 C1214 0.949 . S
C1211 C1212 1.349 . S
C1211 C1213 1.327 . S
C1211 H1234 0.950 . S
C1212 C1211 1.349 . S
C1212 C1224 1.349 . S
C1213 C1211 1.327 . S
C1213 C1229 1.429 . S
C1213 H1235 0.950 . S
C1214 H1210 0.949 . S
C1214 C1222 1.574 . S
C1214 C1230 1.368 . S
H1215 C1223 0.950 . S
H1216 C1221 0.950 . S
H1217 C1222 0.949 . S
H1218 C1224 0.950 . S
H1219 C1225 0.950 . S
H1220 C1226 0.949 . S
C1221 H1216 0.950 . S
C1221 C1223 1.327 . S
C1221 C1227 1.429 . S
C1222 C1214 1.574 . S
C1222 H1217 0.949 . S
C1222 C1228 1.368 . S
C1223 C1207 1.349 . S
C1223 H1215 0.950 . S
C1223 C1221 1.327 . S
C1224 C1212 1.349 . S
C1224 H1218 0.950 . S
C1224 C1225 1.327 . S
C1225 H1219 0.950 . S
C1225 C1224 1.327 . S
C1225 C1229 1.429 . S
C1226 C1209 1.574 . S
C1226 H1220 0.949 . S
C1226 C1230 1.368 . S
C1227 C1208 1.429 . S
C1227 C1221 1.429 . S
C1227 C1228 1.523 . S
C1228 C1209 1.368 . S
C1228 C1222 1.368 . S
C1228 C1227 1.523 . S
C1229 C1213 1.429 . S
C1229 C1225 1.429 . S
C1229 C1230 1.523 . S
C1230 C1214 1.368 . S
C1230 C1226 1.368 . S
C1230 C1229 1.523 . S
H1231 C1206 0.950 . S
H1232 C1208 0.950 . S
H1233 C1209 0.949 . S
H1234 C1211 0.950 . S
H1235 C1213 0.950 . S
C1236 C1237 1.349 . S
C1236 C1238 1.327 . S
C1236 H1261 0.950 . S
C1237 C1236 1.349 . S
C1237 C1253 1.349 . S
C1238 C1236 1.327 . S
C1238 C1257 1.429 . S
C1238 H1262 0.950 . S
C1239 C1256 1.574 . S
C1239 C1258 1.368 . S
C1239 H1263 0.949 . S
H1240 C1244 0.949 . S
C1241 C1242 1.349 . S
C1241 C1243 1.327 . S
C1241 H1264 0.950 . S
C1242 C1241 1.349 . S
C1242 C1254 1.349 . S
C1243 C1241 1.327 . S
C1243 C1259 1.429 . S
C1243 H1265 0.950 . S
C1244 H1240 0.949 . S
C1244 C1252 1.574 . S
C1244 C1260 1.368 . S
H1245 C1253 0.950 . S
H1246 C1251 0.950 . S
H1247 C1252 0.949 . S
H1248 C1254 0.950 . S
H1249 C1255 0.950 . S
H1250 C1256 0.949 . S
C1251 H1246 0.950 . S
C1251 C1253 1.327 . S
C1251 C1257 1.429 . S
C1252 C1244 1.574 . S
C1252 H1247 0.949 . S
C1252 C1258 1.368 . S
C1253 C1237 1.349 . S
C1253 H1245 0.950 . S
C1253 C1251 1.327 . S
C1254 C1242 1.349 . S
C1254 H1248 0.950 . S
C1254 C1255 1.327 . S
C1255 H1249 0.950 . S
C1255 C1254 1.327 . S
C1255 C1259 1.429 . S
C1256 C1239 1.574 . S
C1256 H1250 0.949 . S
C1256 C1260 1.368 . S
C1257 C1238 1.429 . S
C1257 C1251 1.429 . S
C1257 C1258 1.523 . S
C1258 C1239 1.368 . S
C1258 C1252 1.368 . S
C1258 C1257 1.523 . S
C1259 C1243 1.429 . S
C1259 C1255 1.429 . S
C1259 C1260 1.523 1_556 S
C1260 C1244 1.368 . S
C1260 C1256 1.368 . S
C1260 C1259 1.523 1_554 S
H1261 C1236 0.950 . S
H1262 C1238 0.950 . S
H1263 C1239 0.949 . S
H1264 C1241 0.950 . S
H1265 C1243 0.950 . S
C1266 C1267 1.349 . S
C1266 C1268 1.327 1_556 S
C1266 H1291 0.950 1_556 S
C1267 C1266 1.349 . S
C1267 C1283 1.349 . S
C1268 C1266 1.327 1_554 S
C1268 C1287 1.429 1_554 S
C1268 H1292 0.950 . S
C1269 C1286 1.574 1_556 S
C1269 C1288 1.368 1_556 S
C1269 H1293 0.949 . S
H1270 C1274 0.949 . S
C1271 C1272 1.349 . S
C1271 C1273 1.327 . S
C1271 H1294 0.950 . S
C1272 C1271 1.349 . S
C1272 C1284 1.349 . S
C1273 C1271 1.327 . S
C1273 C1289 1.429 . S
C1273 H1295 0.950 . S
C1274 H1270 0.949 . S
C1274 C1282 1.574 . S
C1274 C1290 1.368 . S
H1275 C1283 0.950 . S
H1276 C1281 0.950 . S
H1277 C1282 0.949 . S
H1278 C1284 0.950 . S
H1279 C1285 0.950 . S
H1280 C1286 0.949 . S
C1281 H1276 0.950 . S
C1281 C1283 1.327 . S
C1281 C1287 1.429 . S
C1282 C1274 1.574 . S
C1282 H1277 0.949 . S
C1282 C1288 1.368 . S
C1283 C1267 1.349 . S
C1283 H1275 0.950 . S
C1283 C1281 1.327 . S
C1284 C1272 1.349 . S
C1284 H1278 0.950 . S
C1284 C1285 1.327 . S
C1285 H1279 0.950 . S
C1285 C1284 1.327 . S
C1285 C1289 1.429 . S
C1286 C1269 1.574 1_554 S
C1286 H1280 0.949 . S
C1286 C1290 1.368 . S
C1287 C1268 1.429 1_556 S
C1287 C1281 1.429 . S
C1287 C1288 1.523 1_556 S
C1288 C1269 1.368 1_554 S
C1288 C1282 1.368 . S
C1288 C1287 1.523 1_554 S
C1289 C1273 1.429 . S
C1289 C1285 1.429 . S
C1289 C1290 1.523 . S
C1290 C1274 1.368 . S
C1290 C1286 1.368 . S
C1290 C1289 1.523 . S
H1291 C1266 0.950 1_554 S
H1292 C1268 0.950 . S
H1293 C1269 0.949 . S
H1294 C1271 0.950 . S
H1295 C1273 0.950 . S
C1296 C1297 1.349 . S
C1296 C1298 1.327 . S
C1296 H1321 0.950 . S
C1297 C1296 1.349 . S
C1297 C1313 1.349 . S
C1298 C1296 1.327 . S
C1298 C1317 1.429 . S
C1298 H1322 0.950 . S
C1299 C1316 1.574 . S
C1299 C1318 1.368 . S
C1299 H1323 0.949 . S
H1300 C1304 0.949 1_556 S
C1301 C1302 1.349 . S
C1301 C1303 1.345 . S
C1301 H1324 0.950 . S
C1302 C1301 1.349 . S
C1302 C1314 1.349 . S
C1303 C1301 1.345 . S
C1303 C1319 1.431 . S
C1303 H1325 0.930 1_556 S
C1304 H1300 0.949 1_554 S
C1304 C1312 1.574 . S
C1304 C1320 1.368 . S
H1305 C1313 0.950 . S
H1306 C1311 0.950 . S
H1307 C1312 0.949 . S
H1308 C1314 0.950 . S
H1309 C1315 0.950 . S
H1310 C1316 0.949 . S
C1311 H1306 0.950 . S
C1311 C1313 1.327 . S
C1311 C1317 1.429 . S
C1312 C1304 1.574 . S
C1312 H1307 0.949 . S
C1312 C1318 1.368 . S
C1313 C1297 1.349 . S
C1313 H1305 0.950 . S
C1313 C1311 1.327 . S
C1314 C1302 1.349 . S
C1314 H1308 0.950 . S
C1314 C1315 1.327 . S
C1315 H1309 0.950 . S
C1315 C1314 1.327 . S
C1315 C1319 1.429 . S
C1316 C1299 1.574 . S
C1316 H1310 0.949 . S
C1316 C1320 1.368 . S
C1317 C1298 1.429 . S
C1317 C1311 1.429 . S
C1317 C1318 1.523 . S
C1318 C1299 1.368 . S
C1318 C1312 1.368 . S
C1318 C1317 1.523 . S
C1319 C1303 1.431 . S
C1319 C1315 1.429 . S
C1319 C1320 1.523 1_556 S
C1320 C1304 1.368 . S
C1320 C1316 1.368 . S
C1320 C1319 1.523 1_554 S
H1321 C1296 0.950 . S
H1322 C1298 0.950 . S
H1323 C1299 0.949 . S
H1324 C1301 0.950 . S
H1325 C1303 0.930 1_554 S
C1326 C1327 1.349 . S
C1326 C1328 1.327 . S
C1326 H1351 0.950 . S
C1327 C1326 1.349 . S
C1327 C1343 1.349 . S
C1328 C1326 1.327 . S
C1328 C1347 1.429 . S
C1328 H1352 0.950 . S
C1329 C1346 1.574 . S
C1329 C1348 1.368 . S
C1329 H1353 0.949 . S
H1330 C1334 0.949 . S
C1331 C1332 1.349 . S
C1331 C1333 1.327 . S
C1331 H1354 0.950 . S
C1332 C1331 1.349 . S
C1332 C1344 1.349 . S
C1333 C1331 1.327 . S
C1333 C1349 1.429 . S
C1333 H1355 0.950 . S
C1334 H1330 0.949 . S
C1334 C1342 1.574 . S
C1334 C1350 1.368 . S
H1335 C1343 0.950 . S
H1336 C1341 0.950 . S
H1337 C1342 0.949 . S
H1338 C1344 0.950 . S
H1339 C1345 0.950 . S
H1340 C1346 0.949 . S
C1341 H1336 0.950 . S
C1341 C1343 1.327 . S
C1341 C1347 1.429 . S
C1342 C1334 1.574 . S
C1342 H1337 0.949 . S
C1342 C1348 1.368 . S
C1343 C1327 1.349 . S
C1343 H1335 0.950 . S
C1343 C1341 1.327 . S
C1344 C1332 1.349 . S
C1344 H1338 0.950 . S
C1344 C1345 1.327 . S
C1345 H1339 0.950 . S
C1345 C1344 1.327 . S
C1345 C1349 1.429 . S
C1346 C1329 1.574 . S
C1346 H1340 0.949 . S
C1346 C1350 1.368 . S
C1347 C1328 1.429 . S
C1347 C1341 1.429 . S
C1347 C1348 1.523 . S
C1348 C1329 1.368 . S
C1348 C1342 1.368 . S
C1348 C1347 1.523 . S
C1349 C1333 1.429 . S
C1349 C1345 1.429 . S
C1349 C1350 1.523 . S
C1350 C1334 1.368 . S
C1350 C1346 1.368 . S
C1350 C1349 1.523 . S
H1351 C1326 0.950 . S
H1352 C1328 0.950 . S
H1353 C1329 0.949 . S
H1354 C1331 0.950 . S
H1355 C1333 0.950 . S
C1356 C1357 1.349 . S
C1356 C1358 1.327 . S
C1356 H1381 0.950 . S
C1357 C1356 1.349 . S
C1357 C1373 1.349 . S
C1358 C1356 1.327 . S
C1358 C1377 1.429 . S
C1358 H1382 0.950 . S
C1359 C1376 1.574 . S
C1359 C1378 1.368 . S
C1359 H1383 0.949 . S
H1360 C1364 0.949 . S
C1361 C1362 1.349 . S
C1361 C1363 1.327 . S
C1361 H1384 0.950 . S
C1362 C1361 1.349 . S
C1362 C1374 1.349 . S
C1363 C1361 1.327 . S
C1363 C1379 1.429 . S
C1363 H1385 0.950 . S
C1364 H1360 0.949 . S
C1364 C1372 1.574 . S
C1364 C1380 1.368 . S
H1365 C1373 0.950 . S
H1366 C1371 0.950 . S
H1367 C1372 0.949 . S
H1368 C1374 0.950 . S
H1369 C1375 0.950 . S
H1370 C1376 0.949 . S
C1371 H1366 0.950 . S
C1371 C1373 1.327 . S
C1371 C1377 1.429 . S
C1372 C1364 1.574 . S
C1372 H1367 0.949 . S
C1372 C1378 1.368 . S
C1373 C1357 1.349 . S
C1373 H1365 0.950 . S
C1373 C1371 1.327 . S
C1374 C1362 1.349 . S
C1374 H1368 0.950 . S
C1374 C1375 1.327 . S
C1375 H1369 0.950 . S
C1375 C1374 1.327 . S
C1375 C1379 1.429 . S
C1376 C1359 1.574 . S
C1376 H1370 0.949 . S
C1376 C1380 1.368 . S
C1377 C1358 1.429 . S
C1377 C1371 1.429 . S
C1377 C1378 1.523 . S
C1378 C1359 1.368 . S
C1378 C1372 1.368 . S
C1378 C1377 1.523 . S
C1379 C1363 1.429 . S
C1379 C1375 1.429 . S
C1379 C1380 1.523 . S
C1380 C1364 1.368 . S
C1380 C1376 1.368 . S
C1380 C1379 1.523 . S
H1381 C1356 0.950 . S
H1382 C1358 0.950 . S
H1383 C1359 0.949 . S
H1384 C1361 0.950 . S
H1385 C1363 0.950 . S
C1386 C1387 1.349 . S
C1386 C1388 1.327 . S
C1386 H1411 0.950 . S
C1387 C1386 1.349 . S
C1387 C1403 1.349 . S
C1388 C1386 1.327 . S
C1388 C1407 1.429 . S
C1388 H1412 0.950 . S
C1389 C1406 1.574 . S
C1389 C1408 1.368 . S
C1389 H1413 0.949 . S
H1390 C1394 0.949 . S
C1391 C1392 1.349 . S
C1391 C1393 1.327 . S
C1391 H1414 0.950 . S
C1392 C1391 1.349 . S
C1392 C1404 1.349 . S
C1393 C1391 1.327 . S
C1393 C1409 1.429 . S
C1393 H1415 0.950 . S
C1394 H1390 0.949 . S
C1394 C1402 1.574 . S
C1394 C1410 1.368 . S
H1395 C1403 0.950 . S
H1396 C1401 0.950 . S
H1397 C1402 0.949 . S
H1398 C1404 0.950 . S
H1399 C1405 0.950 . S
H1400 C1406 0.949 . S
C1401 H1396 0.950 . S
C1401 C1403 1.327 . S
C1401 C1407 1.429 . S
C1402 C1394 1.574 . S
C1402 H1397 0.949 . S
C1402 C1408 1.368 . S
C1403 C1387 1.349 . S
C1403 H1395 0.950 . S
C1403 C1401 1.327 . S
C1404 C1392 1.349 . S
C1404 H1398 0.950 . S
C1404 C1405 1.327 . S
C1405 H1399 0.950 . S
C1405 C1404 1.327 . S
C1405 C1409 1.429 . S
C1406 C1389 1.574 . S
C1406 H1400 0.949 . S
C1406 C1410 1.368 . S
C1407 C1388 1.429 . S
C1407 C1401 1.429 . S
C1407 C1408 1.523 . S
C1408 C1389 1.368 . S
C1408 C1402 1.368 . S
C1408 C1407 1.523 . S
C1409 C1393 1.429 . S
C1409 C1405 1.429 . S
C1409 C1410 1.523 . S
C1410 C1394 1.368 . S
C1410 C1406 1.368 . S
C1410 C1409 1.523 . S
H1411 C1386 0.950 . S
H1412 C1388 0.950 . S
H1413 C1389 0.949 . S
H1414 C1391 0.950 . S
H1415 C1393 0.950 . S
C1416 C1417 1.349 . S
C1416 C1418 1.327 . S
C1416 H1441 0.950 . S
C1417 C1416 1.349 . S
C1417 C1433 1.349 . S
C1418 C1416 1.327 . S
C1418 C1437 1.429 . S
C1418 H1442 0.950 . S
C1419 C1436 1.574 . S
C1419 C1438 1.368 . S
C1419 H1443 0.949 . S
H1420 C1424 0.949 . S
C1421 C1422 1.349 . S
C1421 C1423 1.327 . S
C1421 H1444 0.950 . S
C1422 C1421 1.349 . S
C1422 C1434 1.349 . S
C1423 C1421 1.327 . S
C1423 C1439 1.429 . S
C1423 H1445 0.950 . S
C1424 H1420 0.949 . S
C1424 C1432 1.574 . S
C1424 C1440 1.368 . S
H1425 C1433 0.950 . S
H1426 C1431 0.950 . S
H1427 C1432 0.949 . S
H1428 C1434 0.950 . S
H1429 C1435 0.950 . S
H1430 C1436 0.949 . S
C1431 H1426 0.950 . S
C1431 C1433 1.327 . S
C1431 C1437 1.429 . S
C1432 C1424 1.574 . S
C1432 H1427 0.949 . S
C1432 C1438 1.368 . S
C1433 C1417 1.349 . S
C1433 H1425 0.950 . S
C1433 C1431 1.327 . S
C1434 C1422 1.349 . S
C1434 H1428 0.950 . S
C1434 C1435 1.327 . S
C1435 H1429 0.950 . S
C1435 C1434 1.327 . S
C1435 C1439 1.429 . S
C1436 C1419 1.574 . S
C1436 H1430 0.949 . S
C1436 C1440 1.368 . S
C1437 C1418 1.429 . S
C1437 C1431 1.429 . S
C1437 C1438 1.523 . S
C1438 C1419 1.368 . S
C1438 C1432 1.368 . S
C1438 C1437 1.523 . S
C1439 C1423 1.429 . S
C1439 C1435 1.429 . S
C1439 C1440 1.523 . S
C1440 C1424 1.368 . S
C1440 C1436 1.368 . S
C1440 C1439 1.523 . S
H1441 C1416 0.950 . S
H1442 C1418 0.950 . S
H1443 C1419 0.949 . S
H1444 C1421 0.950 . S
H1445 C1423 0.950 . S
C1446 C1447 1.349 . S
C1446 C1448 1.327 . S
C1446 H1471 0.950 . S
C1447 C1446 1.349 . S
C1447 C1463 1.349 . S
C1448 C1446 1.327 . S
C1448 C1467 1.429 . S
C1448 H1472 0.950 . S
C1449 C1466 1.574 . S
C1449 C1468 1.368 . S
C1449 H1473 0.949 . S
H1450 C1454 0.949 . S
C1451 C1452 1.349 . S
C1451 C1453 1.327 . S
C1451 H1474 0.950 . S
C1452 C1451 1.349 . S
C1452 C1464 1.349 . S
C1453 C1451 1.327 . S
C1453 C1469 1.429 . S
C1453 H1475 0.950 . S
C1454 H1450 0.949 . S
C1454 C1462 1.574 . S
C1454 C1470 1.368 . S
H1455 C1463 0.950 . S
H1456 C1461 0.950 . S
H1457 C1462 0.949 . S
H1458 C1464 0.950 . S
H1459 C1465 0.950 . S
H1460 C1466 0.949 . S
C1461 H1456 0.950 . S
C1461 C1463 1.327 . S
C1461 C1467 1.429 . S
C1462 C1454 1.574 . S
C1462 H1457 0.949 . S
C1462 C1468 1.368 . S
C1463 C1447 1.349 . S
C1463 H1455 0.950 . S
C1463 C1461 1.327 . S
C1464 C1452 1.349 . S
C1464 H1458 0.950 . S
C1464 C1465 1.327 . S
C1465 H1459 0.950 . S
C1465 C1464 1.327 . S
C1465 C1469 1.429 . S
C1466 C1449 1.574 . S
C1466 H1460 0.949 . S
C1466 C1470 1.368 . S
C1467 C1448 1.429 . S
C1467 C1461 1.429 . S
C1467 C1468 1.523 . S
C1468 C1449 1.368 . S
C1468 C1462 1.368 . S
C1468 C1467 1.523 . S
C1469 C1453 1.429 . S
C1469 C1465 1.429 . S
C1469 C1470 1.523 . S
C1470 C1454 1.368 . S
C1470 C1466 1.368 . S
C1470 C1469 1.523 . S
H1471 C1446 0.950 . S
H1472 C1448 0.950 . S
H1473 C1449 0.949 . S
H1474 C1451 0.950 . S
H1475 C1453 0.950 . S
C1476 C1477 1.349 . S
C1476 C1478 1.327 . S
C1476 H1501 0.950 . S
C1477 C1476 1.349 . S
C1477 C1493 1.349 . S
C1478 C1476 1.327 . S
C1478 C1497 1.429 . S
C1478 H1502 0.950 . S
C1479 C1496 1.574 . S
C1479 C1498 1.368 . S
C1479 H1503 0.949 . S
H1480 C1484 0.949 . S
C1481 C1482 1.349 . S
C1481 C1483 1.327 . S
C1481 H1504 0.950 . S
C1482 C1481 1.349 . S
C1482 C1494 1.349 . S
C1483 C1481 1.327 . S
C1483 C1499 1.429 . S
C1483 H1505 0.950 . S
C1484 H1480 0.949 . S
C1484 C1492 1.574 . S
C1484 C1500 1.368 . S
H1485 C1493 0.950 . S
H1486 C1491 0.950 . S
H1487 C1492 0.949 . S
H1488 C1494 0.950 . S
H1489 C1495 0.950 . S
H1490 C1496 0.949 . S
C1491 H1486 0.950 . S
C1491 C1493 1.327 . S
C1491 C1497 1.429 . S
C1492 C1484 1.574 . S
C1492 H1487 0.949 . S
C1492 C1498 1.368 . S
C1493 C1477 1.349 . S
C1493 H1485 0.950 . S
C1493 C1491 1.327 . S
C1494 C1482 1.349 . S
C1494 H1488 0.950 . S
C1494 C1495 1.327 . S
C1495 H1489 0.950 . S
C1495 C1494 1.327 . S
C1495 C1499 1.429 . S
C1496 C1479 1.574 . S
C1496 H1490 0.949 . S
C1496 C1500 1.368 . S
C1497 C1478 1.429 . S
C1497 C1491 1.429 . S
C1497 C1498 1.523 . S
C1498 C1479 1.368 . S
C1498 C1492 1.368 . S
C1498 C1497 1.523 . S
C1499 C1483 1.429 . S
C1499 C1495 1.429 . S
C1499 C1500 1.523 . S
C1500 C1484 1.368 . S
C1500 C1496 1.368 . S
C1500 C1499 1.523 . S
H1501 C1476 0.950 . S
H1502 C1478 0.950 . S
H1503 C1479 0.949 . S
H1504 C1481 0.950 . S
H1505 C1483 0.950 . S
C1506 C1507 1.349 . S
C1506 C1508 1.327 . S
C1506 H1531 0.950 . S
C1507 C1506 1.349 . S
C1507 C1523 1.349 . S
C1508 C1506 1.327 . S
C1508 C1527 1.429 . S
C1508 H1532 0.950 . S
C1509 C1526 1.574 . S
C1509 C1528 1.368 . S
C1509 H1533 0.949 . S
H1510 C1514 0.949 . S
C1511 C1512 1.349 . S
C1511 C1513 1.327 . S
C1511 H1534 0.950 . S
C1512 C1511 1.349 . S
C1512 C1524 1.349 . S
C1513 C1511 1.327 . S
C1513 C1529 1.429 . S
C1513 H1535 0.950 . S
C1514 H1510 0.949 . S
C1514 C1522 1.574 . S
C1514 C1530 1.368 . S
H1515 C1523 0.950 . S
H1516 C1521 0.950 . S
H1517 C1522 0.949 . S
H1518 C1524 0.950 . S
H1519 C1525 0.950 . S
H1520 C1526 0.949 . S
C1521 H1516 0.950 . S
C1521 C1523 1.327 . S
C1521 C1527 1.429 . S
C1522 C1514 1.574 . S
C1522 H1517 0.949 . S
C1522 C1528 1.368 . S
C1523 C1507 1.349 . S
C1523 H1515 0.950 . S
C1523 C1521 1.327 . S
C1524 C1512 1.349 . S
C1524 H1518 0.950 . S
C1524 C1525 1.327 . S
C1525 H1519 0.950 . S
C1525 C1524 1.327 . S
C1525 C1529 1.429 . S
C1526 C1509 1.574 . S
C1526 H1520 0.949 . S
C1526 C1530 1.368 . S
C1527 C1508 1.429 . S
C1527 C1521 1.429 . S
C1527 C1528 1.523 . S
C1528 C1509 1.368 . S
C1528 C1522 1.368 . S
C1528 C1527 1.523 . S
C1529 C1513 1.429 . S
C1529 C1525 1.429 . S
C1529 C1530 1.523 . S
C1530 C1514 1.368 . S
C1530 C1526 1.368 . S
C1530 C1529 1.523 . S
H1531 C1506 0.950 . S
H1532 C1508 0.950 . S
H1533 C1509 0.949 . S
H1534 C1511 0.950 . S
H1535 C1513 0.950 . S
C1536 C1537 1.349 . S
C1536 C1538 1.327 . S
C1536 H1561 0.950 . S
C1537 C1536 1.349 . S
C1537 C1553 1.349 . S
C1538 C1536 1.327 . S
C1538 C1557 1.429 . S
C1538 H1562 0.950 . S
C1539 C1556 1.574 . S
C1539 C1558 1.368 . S
C1539 H1563 0.949 . S
H1540 C1544 0.949 . S
C1541 C1542 1.349 . S
C1541 C1543 1.327 . S
C1541 H1564 0.950 . S
C1542 C1541 1.349 . S
C1542 C1554 1.349 . S
C1543 C1541 1.327 . S
C1543 C1559 1.429 . S
C1543 H1565 0.950 . S
C1544 H1540 0.949 . S
C1544 C1552 1.574 . S
C1544 C1560 1.368 . S
H1545 C1553 0.950 . S
H1546 C1551 0.950 . S
H1547 C1552 0.949 . S
H1548 C1554 0.950 . S
H1549 C1555 0.950 . S
H1550 C1556 0.949 . S
C1551 H1546 0.950 . S
C1551 C1553 1.327 . S
C1551 C1557 1.429 . S
C1552 C1544 1.574 . S
C1552 H1547 0.949 . S
C1552 C1558 1.368 . S
C1553 C1537 1.349 . S
C1553 H1545 0.950 . S
C1553 C1551 1.327 . S
C1554 C1542 1.349 . S
C1554 H1548 0.950 . S
C1554 C1555 1.327 . S
C1555 H1549 0.950 . S
C1555 C1554 1.327 . S
C1555 C1559 1.429 . S
C1556 C1539 1.574 . S
C1556 H1550 0.949 . S
C1556 C1560 1.368 . S
C1557 C1538 1.429 . S
C1557 C1551 1.429 . S
C1557 C1558 1.523 . S
C1558 C1539 1.368 . S
C1558 C1552 1.368 . S
C1558 C1557 1.523 . S
C1559 C1543 1.429 . S
C1559 C1555 1.429 . S
C1559 C1560 1.523 . S
C1560 C1544 1.368 . S
C1560 C1556 1.368 . S
C1560 C1559 1.523 . S
H1561 C1536 0.950 . S
H1562 C1538 0.950 . S
H1563 C1539 0.949 . S
H1564 C1541 0.950 . S
H1565 C1543 0.950 . S
C1566 C1567 1.349 . S
C1566 C1568 1.327 . S
C1566 H1591 0.950 . S
C1567 C1566 1.349 . S
C1567 C1583 1.349 . S
C1568 C1566 1.327 . S
C1568 C1587 1.429 . S
C1568 H1592 0.950 . S
C1569 C1586 1.574 . S
C1569 C1588 1.368 . S
C1569 H1593 0.949 . S
H1570 C1574 0.949 . S
C1571 C1572 1.349 . S
C1571 C1573 1.327 . S
C1571 H1594 0.950 . S
C1572 C1571 1.349 . S
C1572 C1584 1.349 . S
C1573 C1571 1.327 . S
C1573 C1589 1.429 . S
C1573 H1595 0.950 . S
C1574 H1570 0.949 . S
C1574 C1582 1.574 . S
C1574 C1590 1.368 . S
H1575 C1583 0.950 . S
H1576 C1581 0.950 . S
H1577 C1582 0.949 . S
H1578 C1584 0.950 . S
H1579 C1585 0.950 . S
H1580 C1586 0.949 . S
C1581 H1576 0.950 . S
C1581 C1583 1.327 . S
C1581 C1587 1.429 . S
C1582 C1574 1.574 . S
C1582 H1577 0.949 . S
C1582 C1588 1.368 . S
C1583 C1567 1.349 . S
C1583 H1575 0.950 . S
C1583 C1581 1.327 . S
C1584 C1572 1.349 . S
C1584 H1578 0.950 . S
C1584 C1585 1.327 . S
C1585 H1579 0.950 . S
C1585 C1584 1.327 . S
C1585 C1589 1.429 . S
C1586 C1569 1.574 . S
C1586 H1580 0.949 . S
C1586 C1590 1.368 . S
C1587 C1568 1.429 . S
C1587 C1581 1.429 . S
C1587 C1588 1.523 . S
C1588 C1569 1.368 . S
C1588 C1582 1.368 . S
C1588 C1587 1.523 . S
C1589 C1573 1.429 . S
C1589 C1585 1.429 . S
C1589 C1590 1.523 . S
C1590 C1574 1.368 . S
C1590 C1586 1.368 . S
C1590 C1589 1.523 . S
H1591 C1566 0.950 . S
H1592 C1568 0.950 . S
H1593 C1569 0.949 . S
H1594 C1571 0.950 . S
H1595 C1573 0.950 . S
C1596 C1597 1.349 . S
C1596 C1598 1.327 . S
C1596 H1621 0.950 . S
C1597 C1596 1.349 . S
C1597 C1613 1.349 . S
C1598 C1596 1.327 . S
C1598 C1617 1.429 . S
C1598 H1622 0.950 1_455 S
C1599 C1616 1.574 . S
C1599 C1618 1.368 1_556 S
C1599 H1623 0.949 . S
H1600 C1604 0.949 . S
C1601 C1602 1.349 . S
C1601 C1603 1.327 . S
C1601 H1624 0.950 . S
C1602 C1601 1.349 . S
C1602 C1614 1.349 . S
C1603 C1601 1.327 . S
C1603 C1619 1.429 . S
C1603 H1625 0.950 1_655 S
C1604 H1600 0.949 . S
C1604 C1612 1.574 . S
C1604 C1620 1.368 1_554 S
H1605 C1613 0.950 . S
H1606 C1611 0.950 . S
H1607 C1612 0.949 . S
H1608 C1614 0.950 . S
H1609 C1615 0.950 . S
H1610 C1616 0.949 . S
C1611 H1606 0.950 . S
C1611 C1613 1.327 . S
C1611 C1617 1.429 . S
C1612 C1604 1.574 . S
C1612 H1607 0.949 . S
C1612 C1618 1.368 1_655 S
C1613 C1597 1.349 . S
C1613 H1605 0.950 . S
C1613 C1611 1.327 . S
C1614 C1602 1.349 . S
C1614 H1608 0.950 . S
C1614 C1615 1.327 . S
C1615 H1609 0.950 . S
C1615 C1614 1.327 . S
C1615 C1619 1.429 . S
C1616 C1599 1.574 . S
C1616 H1610 0.949 . S
C1616 C1620 1.368 1_455 S
C1617 C1598 1.429 . S
C1617 C1611 1.429 . S
C1617 C1618 1.523 . S
C1618 C1599 1.368 1_554 S
C1618 C1612 1.368 1_455 S
C1618 C1617 1.523 . S
C1619 C1603 1.429 . S
C1619 C1615 1.429 . S
C1619 C1620 1.523 . S
C1620 C1604 1.368 1_556 S
C1620 C1616 1.368 1_655 S
C1620 C1619 1.523 . S
H1621 C1596 0.950 . S
H1622 C1598 0.950 1_655 S
H1623 C1599 0.949 . S
H1624 C1601 0.950 . S
H1625 C1603 0.950 1_455 S
C1626 C1627 1.349 . S
C1626 C1628 1.327 . S
C1626 H1651 0.950 . S
C1627 C1626 1.349 . S
C1627 C1643 1.349 . S
C1628 C1626 1.327 . S
C1628 C1647 1.429 . S
C1628 H1652 0.950 . S
C1629 C1646 1.574 . S
C1629 C1648 1.368 1_556 S
C1629 H1653 0.949 . S
H1630 C1634 0.949 . S
C1631 C1632 1.349 . S
C1631 C1633 1.327 . S
C1631 H1654 0.950 . S
C1632 C1631 1.349 . S
C1632 C1644 1.349 . S
C1633 C1631 1.327 . S
C1633 C1649 1.429 . S
C1633 H1655 0.950 . S
C1634 H1630 0.949 . S
C1634 C1642 1.574 . S
C1634 C1650 1.368 1_554 S
H1635 C1643 0.950 . S
H1636 C1641 1.002 . S
H1637 C1642 0.949 . S
H1638 C1644 0.950 . S
H1639 C1645 0.994 . S
H1640 C1646 0.949 . S
C1641 H1636 1.002 . S
C1641 C1643 1.327 . S
C1641 C1647 1.429 . S
C1642 C1634 1.574 . S
C1642 H1637 0.949 . S
C1642 C1648 1.368 . S
C1643 C1627 1.349 . S
C1643 H1635 0.950 . S
C1643 C1641 1.327 . S
C1644 C1632 1.349 . S
C1644 H1638 0.950 . S
C1644 C1645 1.327 . S
C1645 H1639 0.994 . S
C1645 C1644 1.327 . S
C1645 C1649 1.429 . S
C1646 C1629 1.574 . S
C1646 H1640 0.949 . S
C1646 C1650 1.368 . S
C1647 C1628 1.429 . S
C1647 C1641 1.429 . S
C1647 C1648 1.523 . S
C1648 C1629 1.368 1_554 S
C1648 C1642 1.368 . S
C1648 C1647 1.523 . S
C1649 C1633 1.429 . S
C1649 C1645 1.429 . S
C1649 C1650 1.523 . S
C1650 C1634 1.368 1_556 S
C1650 C1646 1.368 . S
C1650 C1649 1.523 . S
H1651 C1626 0.950 . S
H1652 C1628 0.950 . S
H1653 C1629 0.949 . S
H1654 C1631 0.950 . S
H1655 C1633 0.950 . S
C1656 C1657 1.349 . S
C1656 C1658 1.327 . S
C1656 H1681 0.950 . S
C1657 C1656 1.349 . S
C1657 C1673 1.349 . S
C1658 C1656 1.327 . S
C1658 C1677 1.429 . S
C1658 H1682 0.950 . S
C1659 C1676 1.574 1_565 S
C1659 C1678 1.368 1_556 S
C1659 H1683 0.949 . S
H1660 C1664 0.942 . S
C1661 C1662 1.349 . S
C1661 C1663 1.327 . S
C1661 H1684 0.950 . S
C1662 C1661 1.349 . S
C1662 C1674 1.349 . S
C1663 C1661 1.327 . S
C1663 C1679 1.429 . S
C1663 H1685 0.950 . S
C1664 H1660 0.942 . S
C1664 C1672 1.576 1_545 S
C1664 C1680 1.374 1_554 S
H1665 C1673 0.950 . S
H1666 C1671 0.950 . S
H1667 C1672 0.949 . S
H1668 C1674 0.950 . S
H1669 C1675 0.950 . S
H1670 C1676 0.949 . S
C1671 H1666 0.950 . S
C1671 C1673 1.327 . S
C1671 C1677 1.429 . S
C1672 C1664 1.576 1_565 S
C1672 H1667 0.949 . S
C1672 C1678 1.368 . S
C1673 C1657 1.349 . S
C1673 H1665 0.950 . S
C1673 C1671 1.327 . S
C1674 C1662 1.349 . S
C1674 H1668 0.950 . S
C1674 C1675 1.327 . S
C1675 H1669 0.950 . S
C1675 C1674 1.327 . S
C1675 C1679 1.429 . S
C1676 C1659 1.574 1_545 S
C1676 H1670 0.949 . S
C1676 C1680 1.368 . S
C1677 C1658 1.429 . S
C1677 C1671 1.429 . S
C1677 C1678 1.523 . S
C1678 C1659 1.368 1_554 S
C1678 C1672 1.368 . S
C1678 C1677 1.523 . S
C1679 C1663 1.429 . S
C1679 C1675 1.429 . S
C1679 C1680 1.523 . S
C1680 C1664 1.374 1_556 S
C1680 C1676 1.368 . S
C1680 C1679 1.523 . S
H1681 C1656 0.950 . S
H1682 C1658 0.950 . S
H1683 C1659 0.949 . S
H1684 C1661 0.950 . S
H1685 C1663 0.950 . S
C1686 C1687 1.349 . S
C1686 C1688 1.300 1_565 S
C1686 H1711 0.950 1_565 S
C1687 C1686 1.349 . S
C1687 C1703 1.349 . S
C1688 C1686 1.300 1_545 S
C1688 C1707 1.419 1_545 S
C1688 H1712 0.988 . S
C1689 C1706 1.574 . S
C1689 C1708 1.368 . S
C1689 H1713 0.949 . S
H1690 C1694 0.949 . S
C1691 C1692 1.349 . S
C1691 C1693 1.327 1_545 S
C1691 H1714 0.950 1_545 S
C1692 C1691 1.349 . S
C1692 C1704 1.349 . S
C1693 C1691 1.327 1_565 S
C1693 C1709 1.429 1_565 S
C1693 H1715 0.950 . S
C1694 H1690 0.949 . S
C1694 C1702 1.574 . S
C1694 C1710 1.368 . S
H1695 C1703 0.950 . S
H1696 C1701 0.950 . S
H1697 C1702 0.949 . S
H1698 C1704 0.950 . S
H1699 C1705 0.950 . S
H1700 C1706 0.949 . S
C1701 H1696 0.950 . S
C1701 C1703 1.327 . S
C1701 C1707 1.429 . S
C1702 C1694 1.574 . S
C1702 H1697 0.949 . S
C1702 C1708 1.368 1_545 S
C1703 C1687 1.349 . S
C1703 H1695 0.950 . S
C1703 C1701 1.327 . S
C1704 C1692 1.349 . S
C1704 H1698 0.950 . S
C1704 C1705 1.327 . S
C1705 H1699 0.950 . S
C1705 C1704 1.327 . S
C1705 C1709 1.429 . S
C1706 C1689 1.574 . S
C1706 H1700 0.949 . S
C1706 C1710 1.368 1_565 S
C1707 C1688 1.419 1_565 S
C1707 C1701 1.429 . S
C1707 C1708 1.523 . S
C1708 C1689 1.368 . S
C1708 C1702 1.368 1_565 S
C1708 C1707 1.523 . S
C1709 C1693 1.429 1_545 S
C1709 C1705 1.429 . S
C1709 C1710 1.523 . S
C1710 C1694 1.368 . S
C1710 C1706 1.368 1_545 S
C1710 C1709 1.523 . S
H1711 C1686 0.950 1_545 S
H1712 C1688 0.988 . S
H1713 C1689 0.949 . S
H1714 C1691 0.950 1_565 S
H1715 C1693 0.950 . S
C1716 C1717 1.349 . S
C1716 C1718 1.327 . S
C1716 H1741 0.950 . S
C1717 C1716 1.349 . S
C1717 C1733 1.349 . S
C1718 C1716 1.327 . S
C1718 C1737 1.429 . S
C1718 H1742 0.934 1_655 S
C1719 C1736 1.574 . S
C1719 C1738 1.368 . S
C1719 H1743 0.949 . S
H1720 C1724 0.949 . S
C1721 C1722 1.349 . S
C1721 C1723 1.327 . S
C1721 H1744 0.950 . S
C1722 C1721 1.349 . S
C1722 C1734 1.349 . S
C1723 C1721 1.327 . S
C1723 C1739 1.429 . S
C1723 H1745 0.948 1_455 S
C1724 H1720 0.949 . S
C1724 C1732 1.574 . S
C1724 C1740 1.368 . S
H1725 C1733 0.950 . S
H1726 C1731 0.950 . S
H1727 C1732 0.949 . S
H1728 C1734 0.950 . S
H1729 C1735 0.950 . S
H1730 C1736 0.949 . S
C1731 H1726 0.950 . S
C1731 C1733 1.327 . S
C1731 C1737 1.429 . S
C1732 C1724 1.574 . S
C1732 H1727 0.949 . S
C1732 C1738 1.368 1_455 S
C1733 C1717 1.349 . S
C1733 H1725 0.950 . S
C1733 C1731 1.327 . S
C1734 C1722 1.349 . S
C1734 H1728 0.950 . S
C1734 C1735 1.327 . S
C1735 H1729 0.950 . S
C1735 C1734 1.327 . S
C1735 C1739 1.429 . S
C1736 C1719 1.574 . S
C1736 H1730 0.949 . S
C1736 C1740 1.368 1_655 S
C1737 C1718 1.429 . S
C1737 C1731 1.429 . S
C1737 C1738 1.523 . S
C1738 C1719 1.368 . S
C1738 C1732 1.368 1_655 S
C1738 C1737 1.523 . S
C1739 C1723 1.429 . S
C1739 C1735 1.429 . S
C1739 C1740 1.523 . S
C1740 C1724 1.368 . S
C1740 C1736 1.368 1_455 S
C1740 C1739 1.523 . S
H1741 C1716 0.950 . S
H1742 C1718 0.934 1_455 S
H1743 C1719 0.949 . S
H1744 C1721 0.950 . S
H1745 C1723 0.948 1_655 S
C1746 C1747 1.349 . S
C1746 C1748 1.327 . S
C1746 H1771 0.950 . S
C1747 C1746 1.349 . S
C1747 C1763 1.349 . S
C1748 C1746 1.327 . S
C1748 C1767 1.429 . S
C1748 H1772 0.950 . S
C1749 C1766 1.574 . S
C1749 C1768 1.368 . S
C1749 H1773 0.949 . S
H1750 C1754 0.949 . S
C1751 C1752 1.349 . S
C1751 C1753 1.327 . S
C1751 H1774 0.950 . S
C1752 C1751 1.349 . S
C1752 C1764 1.349 . S
C1753 C1751 1.327 . S
C1753 C1769 1.429 . S
C1753 H1775 0.950 . S
C1754 H1750 0.949 . S
C1754 C1762 1.574 . S
C1754 C1770 1.368 . S
H1755 C1763 0.950 . S
H1756 C1761 0.950 . S
H1757 C1762 0.949 . S
H1758 C1764 0.950 . S
H1759 C1765 0.950 . S
H1760 C1766 0.949 . S
C1761 H1756 0.950 . S
C1761 C1763 1.327 . S
C1761 C1767 1.429 . S
C1762 C1754 1.574 . S
C1762 H1757 0.949 . S
C1762 C1768 1.368 . S
C1763 C1747 1.349 . S
C1763 H1755 0.950 . S
C1763 C1761 1.327 . S
C1764 C1752 1.349 . S
C1764 H1758 0.950 . S
C1764 C1765 1.327 . S
C1765 H1759 0.950 . S
C1765 C1764 1.327 . S
C1765 C1769 1.429 . S
C1766 C1749 1.574 . S
C1766 H1760 0.949 . S
C1766 C1770 1.368 . S
C1767 C1748 1.429 . S
C1767 C1761 1.429 . S
C1767 C1768 1.523 . S
C1768 C1749 1.368 . S
C1768 C1762 1.368 . S
C1768 C1767 1.523 . S
C1769 C1753 1.429 . S
C1769 C1765 1.429 . S
C1769 C1770 1.523 . S
C1770 C1754 1.368 . S
C1770 C1766 1.368 . S
C1770 C1769 1.523 . S
H1771 C1746 0.950 . S
H1772 C1748 0.950 . S
H1773 C1749 0.949 . S
H1774 C1751 0.950 . S
H1775 C1753 0.950 . S
C1057 C49 0.264 . S
C1062 C636 0.387 . S
C1087 C145 0.261 . S
C1092 C753 0.384 . S
C1117 C233 0.281 . S
C1122 C577 0.435 . S
C1147 C997 0.434 . S
C1152 C284 0.281 . S
C1177 C372 0.261 . S
C1182 C849 0.384 . S
C1207 C900 0.387 . S
C1212 C469 0.264 . S
C1237 C137 0.396 . S
C1242 C548 0.298 . S
C1267 C673 0.281 . S
C1272 C225 0.401 . S
C1297 C57 0.394 . S
C1302 C733 0.268 . S
C1327 C812 0.268 . S
C1332 C460 0.394 . S
C1357 C937 0.281 . S
C1362 C293 0.401 . S
C1387 C381 0.397 . S
C1392 C1025 0.298 . S
C1417 C489 2.336 . S
C1422 C29 2.336 . S
C1447 C108 2.340 . S
C1452 C321 2.341 . S
C1477 C196 2.341 . S
C1482 C409 2.340 . S
C1507 C585 2.347 . S
C1512 C988 2.347 . S
C1537 C665 2.325 . S
C1542 C821 2.326 . S
C1567 C724 2.326 . S
C1572 C929 2.325 . S
C1597 C20 1.769 . S
C1602 C557 1.776 . S
C1627 C117 1.758 . S
C1632 C645 1.752 . S
C1657 C205 1.757 . S
C1662 C761 1.752 . S
C1687 C313 1.757 . S
C1692 C841 1.752 . S
C1717 C909 1.752 . S
C1722 C401 1.758 . S
C1747 C497 1.769 . S
C1752 C1017 1.776 . S
