# Generated by pormake.
# Topology vcn, (7)-cn, num edge types: 1
# Building blocks:
#     Node 0, Type 0, BuildingBlock: HICVOG_clean_sbu_0, # of connection points: 7
#     Node 1, Type 0, BuildingBlock: HICVOG_clean_sbu_0, # of connection points: 7
#     Node 2, Type 0, BuildingBlock: HICVOG_clean_sbu_0, # of connection points: 7
#     Node 3, Type 0, BuildingBlock: HICVOG_clean_sbu_0, # of connection points: 7
#     Node 4, Type 0, BuildingBlock: HICVOG_clean_sbu_0, # of connection points: 7
#     Node 5, Type 0, BuildingBlock: HICVOG_clean_sbu_0, # of connection points: 7
#     Node 6, Type 0, BuildingBlock: HICVOG_clean_sbu_0, # of connection points: 7
#     Node 7, Type 0, BuildingBlock: HICVOG_clean_sbu_0, # of connection points: 7
#     Edge 8, Type (0, 0), BuildingBlock: EZIPEK_clean_linker_0, # of connection points: 2
#     Edge 9, Type (0, 0), BuildingBlock: EZIPEK_clean_linker_0, # of connection points: 2
#     Edge 10, Type (0, 0), BuildingBlock: EZIPEK_clean_linker_0, # of connection points: 2
#     Edge 11, Type (0, 0), BuildingBlock: EZIPEK_clean_linker_0, # of connection points: 2
#     Edge 12, Type (0, 0), BuildingBlock: EZIPEK_clean_linker_0, # of connection points: 2
#     Edge 13, Type (0, 0), BuildingBlock: EZIPEK_clean_linker_0, # of connection points: 2
#     Edge 14, Type (0, 0), BuildingBlock: EZIPEK_clean_linker_0, # of connection points: 2
#     Edge 15, Type (0, 0), BuildingBlock: EZIPEK_clean_linker_0, # of connection points: 2
#     Edge 16, Type (0, 0), BuildingBlock: EZIPEK_clean_linker_0, # of connection points: 2
#     Edge 17, Type (0, 0), BuildingBlock: EZIPEK_clean_linker_0, # of connection points: 2
#     Edge 18, Type (0, 0), BuildingBlock: EZIPEK_clean_linker_0, # of connection points: 2
#     Edge 19, Type (0, 0), BuildingBlock: EZIPEK_clean_linker_0, # of connection points: 2
#     Edge 20, Type (0, 0), BuildingBlock: EZIPEK_clean_linker_0, # of connection points: 2
#     Edge 21, Type (0, 0), BuildingBlock: EZIPEK_clean_linker_0, # of connection points: 2
#     Edge 22, Type (0, 0), BuildingBlock: EZIPEK_clean_linker_0, # of connection points: 2
#     Edge 23, Type (0, 0), BuildingBlock: EZIPEK_clean_linker_0, # of connection points: 2
#     Edge 24, Type (0, 0), BuildingBlock: EZIPEK_clean_linker_0, # of connection points: 2
#     Edge 25, Type (0, 0), BuildingBlock: EZIPEK_clean_linker_0, # of connection points: 2
#     Edge 26, Type (0, 0), BuildingBlock: EZIPEK_clean_linker_0, # of connection points: 2
#     Edge 27, Type (0, 0), BuildingBlock: EZIPEK_clean_linker_0, # of connection points: 2
#     Edge 28, Type (0, 0), BuildingBlock: EZIPEK_clean_linker_0, # of connection points: 2
#     Edge 29, Type (0, 0), BuildingBlock: EZIPEK_clean_linker_0, # of connection points: 2
#     Edge 30, Type (0, 0), BuildingBlock: EZIPEK_clean_linker_0, # of connection points: 2
#     Edge 31, Type (0, 0), BuildingBlock: EZIPEK_clean_linker_0, # of connection points: 2
#     Edge 32, Type (0, 0), BuildingBlock: EZIPEK_clean_linker_0, # of connection points: 2
#     Edge 33, Type (0, 0), BuildingBlock: EZIPEK_clean_linker_0, # of connection points: 2
#     Edge 34, Type (0, 0), BuildingBlock: EZIPEK_clean_linker_0, # of connection points: 2
#     Edge 35, Type (0, 0), BuildingBlock: EZIPEK_clean_linker_0, # of connection points: 2
# Relax obj value: 0.244
# Max RMSD: 0.225
# Mean RMSD: 0.225
data_MOF--net-vcn--node1-HICVOG_clean_sbu_0--edge1-EZIPEK_clean_linker_0
_symmetry_space_group_name_H-M    P1
_symmetry_Int_Tables_number       1
_symmetry_cell_setting            triclinic
loop_
_symmetry_equiv_pos_as_xyz
'x, y, z'
_cell_length_a     32.374868
_cell_length_b     48.916426
_cell_length_c     10.505901
_cell_angle_alpha  90.036721
_cell_angle_beta   89.836438
_cell_angle_gamma 89.86181
loop_
_atom_site_label
_atom_site_type_symbol
_atom_site_fract_x
_atom_site_fract_y
_atom_site_fract_z
_atom_type_partial_charge
Zn0 Zn 0.13465 0.38616 0.18102 0.0
C1 C 0.08504 0.31871 0.03905 0.0
N2 N 0.09579 0.3297 0.92682 0.0
C3 C 0.10515 0.35559 0.95793 0.0
N4 N 0.1005 0.36028 0.08443 0.0
N5 N 0.08629 0.3372 0.13423 0.0
C6 C 0.08179 0.29088 0.45102 0.0
O7 O 0.1112 0.30872 0.47125 0.0
O8 O 0.13537 0.42309 0.09398 0.0
Zn9 Zn 0.05483 0.33491 0.29125 0.0
N10 N 0.1906 0.37098 0.18571 0.0
C11 C 0.23287 0.33136 0.16075 0.0
C12 C 0.19449 0.34404 0.15561 0.0
C13 C 0.22422 0.3859 0.22129 0.0
N14 N 0.26626 0.34614 0.19549 0.0
C15 C 0.26318 0.37308 0.22577 0.0
O16 O 0.07745 0.35867 0.42929 0.0
C17 C 0.10036 0.37895 0.4545 0.0
O18 O 0.12079 0.39142 0.3688 0.0
H19 H 0.16822 0.33253 0.12469 0.0
H20 H 0.22072 0.40729 0.2455 0.0
C21 C 0.9626 0.33566 0.26327 0.0
C22 C 0.92579 0.35007 0.23505 0.0
C23 C 0.96526 0.38974 0.18973 0.0
C24 C 1.00132 0.37573 0.21982 0.0
N25 N 0.99959 0.34906 0.25533 0.0
N26 N 0.92853 0.37666 0.19823 0.0
H27 H 0.96173 0.31444 0.29213 0.0
C28 C 0.11511 0.44298 0.14128 0.0
O29 O 0.0933 0.4393 0.2454 0.0
O30 O 0.05466 0.29667 0.36709 0.0
H31 H 0.03081 0.38604 0.21482 0.0
H32 H 0.2362 0.30998 0.13638 0.0
H33 H 0.96639 0.41092 0.1605 0.0
Zn34 Zn 0.55889 0.60901 0.71935 0.0
C35 C 0.59723 0.67944 0.56724 0.0
N36 N 0.58837 0.66729 0.4564 0.0
C37 C 0.58227 0.64119 0.4905 0.0
N38 N 0.58655 0.63746 0.6176 0.0
N39 N 0.59756 0.66148 0.66519 0.0
C40 C 0.59606 0.7137 0.92512 0.0
O41 O 0.56252 0.69897 0.91295 0.0
O42 O 0.55678 0.5732 0.62346 0.0
Zn43 Zn 0.62889 0.66463 0.8228 0.0
N44 N 0.50329 0.62225 0.7521 0.0
C45 C 0.46839 0.65975 0.84902 0.0
C46 C 0.50461 0.64698 0.81015 0.0
C47 C 0.4667 0.60888 0.73576 0.0
N48 N 0.43196 0.64684 0.8314 0.0
C49 C 0.4298 0.62173 0.77608 0.0
O50 O 0.60553 0.64221 0.96722 0.0
C51 C 0.59005 0.61885 0.99048 0.0
O52 O 0.57872 0.60265 0.90217 0.0
H53 H 0.53403 0.65632 0.82822 0.0
H54 H 0.46634 0.58861 0.69445 0.0
C55 C 0.72139 0.6631 0.7922 0.0
C56 C 0.75808 0.64826 0.76598 0.0
C57 C 0.71822 0.60823 0.73301 0.0
C58 C 0.68231 0.6227 0.76071 0.0
N59 N 0.68423 0.64977 0.78914 0.0
N60 N 0.75506 0.62127 0.73645 0.0
H61 H 0.72249 0.68465 0.81535 0.0
C62 C 0.57445 0.55214 0.66895 0.0
O63 O 0.59431 0.55385 0.7774 0.0
O64 O 0.63039 0.70339 0.89015 0.0
H65 H 0.65277 0.61244 0.75914 0.0
H66 H 0.46924 0.67956 0.89476 0.0
H67 H 0.71688 0.58672 0.7094 0.0
Zn68 Zn 0.06033 0.65923 0.7275 0.0
C69 C 0.10386 0.63552 0.06381 0.0
N70 N 0.09452 0.66127 0.09796 0.0
C71 C 0.08526 0.67298 0.98656 0.0
N72 N 0.0882 0.65518 0.88879 0.0
N73 N 0.10127 0.63161 0.93626 0.0
C74 C 0.11025 0.55209 0.92839 0.0
O75 O 0.07488 0.55917 0.87687 0.0
O76 O 0.06315 0.69856 0.66804 0.0
Zn77 Zn 0.13288 0.60497 0.83366 0.0
N78 N 1.00371 0.64615 0.75429 0.0
C79 C 0.96749 0.60564 0.81139 0.0
C80 C 1.00422 0.6192 0.78542 0.0
C81 C 0.96719 0.6603 0.74724 0.0
N82 N 0.9313 0.61949 0.80444 0.0
C83 C 0.9297 0.64641 0.7726 0.0
O84 O 0.1136 0.59713 0.65205 0.0
C85 C 0.10074 0.61275 0.56347 0.0
O86 O 0.08399 0.63582 0.58613 0.0
H87 H 0.0333 0.60834 0.79051 0.0
H88 H 0.96724 0.68179 0.72285 0.0
C89 C 0.22347 0.60838 0.81008 0.0
C90 C 0.25963 0.62228 0.77276 0.0
C91 C 0.2193 0.66097 0.71701 0.0
C92 C 0.18368 0.64719 0.75305 0.0
N93 N 0.18631 0.62147 0.80116 0.0
N94 N 0.25629 0.64822 0.72733 0.0
H95 H 0.22481 0.58746 0.84332 0.0
C96 C 0.09163 0.70584 0.5912 0.0
O97 O 0.11809 0.68762 0.54845 0.0
O98 O 0.14029 0.56878 0.92478 0.0
H99 H 0.15388 0.65668 0.73988 0.0
H100 H 0.96771 0.58422 0.83691 0.0
H101 H 0.21758 0.68147 0.67892 0.0
Zn102 Zn 0.62424 0.33752 0.22613 0.0
C103 C 0.5888 0.36324 0.56717 0.0
N104 N 0.59813 0.33771 0.60307 0.0
C105 C 0.60336 0.3246 0.4923 0.0
N106 N 0.59769 0.34154 0.39208 0.0
N107 N 0.58717 0.36581 0.43875 0.0
C108 C 0.57738 0.44496 0.43735 0.0
O109 O 0.61321 0.43809 0.38765 0.0
O110 O 0.62326 0.29893 0.15384 0.0
Zn111 Zn 0.55558 0.39245 0.33725 0.0
N112 N 0.68049 0.35139 0.24772 0.0
C113 C 0.7166 0.3921 0.30194 0.0
C114 C 0.67985 0.37832 0.27952 0.0
C115 C 0.71709 0.33749 0.23658 0.0
N116 N 0.75289 0.37845 0.2912 0.0
C117 C 0.75453 0.35156 0.25867 0.0
O118 O 0.57511 0.40076 0.1557 0.0
C119 C 0.58532 0.38458 0.06569 0.0
O120 O 0.59971 0.36079 0.08658 0.0
H121 H 0.65071 0.389 0.2879 0.0
H122 H 0.71712 0.31602 0.21168 0.0
C123 C 0.4653 0.38871 0.32334 0.0
C124 C 0.42907 0.37525 0.28489 0.0
C125 C 0.46896 0.33733 0.21574 0.0
C126 C 0.50479 0.35088 0.25125 0.0
N127 N 0.50241 0.37599 0.30593 0.0
N128 N 0.43201 0.34987 0.2327 0.0
H129 H 0.4641 0.40912 0.36294 0.0
C130 C 0.59132 0.2838 0.15737 0.0
O131 O 0.55848 0.29239 0.21912 0.0
O132 O 0.54739 0.42834 0.42955 0.0
H133 H 0.53453 0.34174 0.23311 0.0
H134 H 0.71632 0.4135 0.3279 0.0
H135 H 0.4705 0.31726 0.17263 0.0
Zn136 Zn 0.61808 0.88997 0.21181 0.0
C137 C 0.56191 0.8257 0.0552 0.0
N138 N 0.56299 0.84019 0.94698 0.0
C139 C 0.57503 0.86508 0.98474 0.0
N140 N 0.58153 0.86606 0.11225 0.0
N141 N 0.57105 0.84164 0.1563 0.0
C142 C 0.58452 0.79254 0.44515 0.0
O143 O 0.6124 0.81167 0.46182 0.0
O144 O 0.62417 0.92636 0.12175 0.0
Zn145 Zn 0.54363 0.83691 0.32012 0.0
N146 N 0.67159 0.87163 0.22659 0.0
C147 C 0.7078 0.82934 0.24476 0.0
C148 C 0.67112 0.84381 0.23075 0.0
C149 C 0.70775 0.88564 0.23935 0.0
N150 N 0.7437 0.84319 0.25671 0.0
C151 C 0.74486 0.87096 0.25466 0.0
O152 O 0.56468 0.8613 0.4603 0.0
C153 C 0.58428 0.88318 0.48419 0.0
O154 O 0.60233 0.89683 0.39739 0.0
H155 H 0.64255 0.83276 0.22487 0.0
H156 H 0.70758 0.90777 0.23855 0.0
C157 C 0.44998 0.8343 0.30487 0.0
C158 C 0.41213 0.84766 0.27793 0.0
C159 C 0.44869 0.8886 0.23437 0.0
C160 C 0.48579 0.87552 0.26101 0.0
N161 N 0.48611 0.8487 0.29489 0.0
N162 N 0.41294 0.87442 0.24309 0.0
H163 H 0.45056 0.81298 0.33226 0.0
C164 C 0.6118 0.94832 0.17469 0.0
O165 O 0.59565 0.94745 0.28933 0.0
O166 O 0.55115 0.79824 0.38641 0.0
H167 H 0.51451 0.88667 0.25423 0.0
H168 H 0.70778 0.80723 0.24727 0.0
H169 H 0.44827 0.90989 0.2066 0.0
Zn170 Zn 0.05045 0.10828 0.67529 0.0
C171 C 0.09585 0.17597 0.52506 0.0
N172 N 0.08815 0.16383 0.41325 0.0
C173 C 0.08152 0.13772 0.44695 0.0
N174 N 0.08405 0.13397 0.5745 0.0
N175 N 0.09503 0.15793 0.62225 0.0
C176 C 0.08551 0.20682 0.91335 0.0
O177 O 0.05746 0.18797 0.9333 0.0
O178 O 0.04483 0.07176 0.58568 0.0
Zn179 Zn 0.12334 0.16215 0.78393 0.0
N180 N 0.99655 0.12542 0.69917 0.0
C181 C 0.96211 0.16674 0.75659 0.0
C182 C 0.99815 0.15245 0.72899 0.0
C183 C 0.95987 0.11171 0.70049 0.0
N184 N 0.92566 0.15327 0.75699 0.0
C185 C 0.92334 0.12613 0.7301 0.0
O186 O 0.10097 0.13835 0.92401 0.0
C187 C 0.08264 0.11597 0.94718 0.0
O188 O 0.06708 0.10132 0.85951 0.0
H189 H 0.02731 0.16286 0.73357 0.0
H190 H 0.95922 0.08998 0.68131 0.0
C191 C 0.21697 0.16276 0.76802 0.0
C192 C 0.2543 0.14852 0.74285 0.0
C193 C 0.21588 0.10844 0.69754 0.0
C194 C 0.17933 0.12232 0.72332 0.0
N195 N 0.1802 0.14913 0.75729 0.0
N196 N 0.2523 0.1218 0.70778 0.0
H197 H 0.21726 0.1841 0.7953 0.0
C198 C 0.0652 0.05141 0.62772 0.0
O199 O 0.08988 0.05464 0.72551 0.0
O200 O 0.11811 0.20095 0.85046 0.0
H201 H 0.15011 0.11178 0.71609 0.0
H202 H 0.96312 0.18828 0.77961 0.0
H203 H 0.21537 0.08715 0.66971 0.0
Zn204 Zn 0.55592 0.16046 0.7237 0.0
C205 C 0.59165 0.13463 0.0621 0.0
N206 N 0.58063 0.1598 0.09945 0.0
C207 C 0.57589 0.1733 0.98968 0.0
N208 N 0.58327 0.15682 0.88845 0.0
N209 N 0.59478 0.13263 0.9336 0.0
C210 C 0.60753 0.05496 0.93841 0.0
O211 O 0.57079 0.06242 0.89843 0.0
O212 O 0.55672 0.19886 0.65046 0.0
Zn213 Zn 0.62816 0.10682 0.83054 0.0
N214 N 0.49955 0.14674 0.7484 0.0
C215 C 0.4634 0.10622 0.8058 0.0
C216 C 0.50015 0.11986 0.78093 0.0
C217 C 0.46295 0.1607 0.73868 0.0
N218 N 0.42713 0.11993 0.79654 0.0
C219 C 0.42547 0.14677 0.76315 0.0
O220 O 0.60889 0.09811 0.64978 0.0
C221 C 0.59647 0.11379 0.56086 0.0
O222 O 0.58032 0.13705 0.58328 0.0
H223 H 0.52928 0.10913 0.78802 0.0
H224 H 0.46294 0.18213 0.7131 0.0
C225 C 0.7183 0.11163 0.80409 0.0
C226 C 0.75379 0.12593 0.76455 0.0
C227 C 0.71223 0.16428 0.7127 0.0
C228 C 0.67719 0.14999 0.74996 0.0
N229 N 0.68076 0.12426 0.79708 0.0
N230 N 0.7496 0.15191 0.72021 0.0
H231 H 0.72038 0.0907 0.83678 0.0
C232 C 0.58799 0.21451 0.65755 0.0
O233 O 0.62015 0.20664 0.72386 0.0
O234 O 0.63785 0.07101 0.92164 0.0
H235 H 0.64708 0.15895 0.7381 0.0
H236 H 0.46366 0.08487 0.83245 0.0
H237 H 0.70969 0.18483 0.6754 0.0
Zn238 Zn 0.11163 0.83391 0.22893 0.0
C239 C 0.06853 0.85792 0.56606 0.0
N240 N 0.07746 0.8321 0.59986 0.0
C241 C 0.0864 0.82032 0.48808 0.0
N242 N 0.0837 0.83811 0.39045 0.0
N243 N 0.0712 0.86179 0.43846 0.0
C244 C 0.0636 0.94157 0.42494 0.0
O245 O 0.09813 0.93435 0.36801 0.0
O246 O 0.10884 0.79459 0.16761 0.0
Zn247 Zn 0.04049 0.88867 0.3364 0.0
N248 N 0.16802 0.84703 0.25666 0.0
C249 C 0.20386 0.88788 0.31019 0.0
C250 C 0.16733 0.87418 0.2839 0.0
C251 C 0.20448 0.83277 0.25446 0.0
N252 N 0.24004 0.87394 0.30752 0.0
C253 C 0.24179 0.84679 0.27989 0.0
O254 O 0.06001 0.8964 0.15445 0.0
C255 C 0.07234 0.88062 0.06542 0.0
O256 O 0.08847 0.85737 0.08763 0.0
H257 H 0.13826 0.88509 0.28582 0.0
H258 H 0.20454 0.8111 0.23348 0.0
C259 C 0.9499 0.88528 0.32107 0.0
C260 C 0.91369 0.87181 0.28213 0.0
C261 C 0.95377 0.83402 0.21237 0.0
C262 C 0.98953 0.84748 0.24916 0.0
N263 N 0.98705 0.87255 0.30445 0.0
N264 N 0.91679 0.84651 0.2291 0.0
H265 H 0.94863 0.90567 0.36094 0.0
C266 C 0.08086 0.78752 0.08896 0.0
O267 O 0.05462 0.80585 0.04648 0.0
O268 O 0.0336 0.92486 0.42743 0.0
H269 H 0.01931 0.83825 0.23149 0.0
H270 H 0.20352 0.90947 0.33258 0.0
H271 H 0.95538 0.81401 0.16871 0.0
C272 C 0.3619 0.38188 0.39777 0.0
C273 C 0.38759 0.38791 0.29225 0.0
C274 C 0.32719 0.3974 0.15997 0.0
C275 C 0.30179 0.38748 0.25959 0.0
N276 N 0.29187 0.37896 0.48206 0.0
N277 N 0.39645 0.40953 0.0891 0.0
C278 C 0.31828 0.38301 0.38239 0.0
C279 C 0.37062 0.39882 0.17908 0.0
N280 N 0.37942 0.37337 0.50912 0.0
N281 N 0.30986 0.40348 0.04497 0.0
H282 H 0.42835 0.41055 0.10265 0.0
H283 H 0.38642 0.41925 1.00672 0.0
H284 H 0.27794 0.40347 0.03124 0.0
H285 H 0.32669 0.40797 0.96317 0.0
H286 H 0.36278 0.3659 0.58641 0.0
H287 H 0.41134 0.37339 0.52283 0.0
H288 H 0.30119 0.37687 0.57625 0.0
H289 H 0.25991 0.37995 0.47034 0.0
C290 C 0.32242 0.60722 0.65552 0.0
C291 C 0.30146 0.60971 0.77368 0.0
C292 C 0.36729 0.60417 0.88467 0.0
C293 C 0.38835 0.60892 0.76841 0.0
N294 N 0.38677 0.61327 0.5401 0.0
N295 N 0.30334 0.60921 1.00317 0.0
C296 C 0.36626 0.60914 0.6522 0.0
C297 C 0.32356 0.60697 0.88932 0.0
N298 N 0.30001 0.60373 0.54679 0.0
N299 N 0.38958 0.59785 0.99084 0.0
H300 H 0.27133 0.61088 1.01026 0.0
H301 H 0.31837 0.61075 0.09035 0.0
H302 H 0.42169 0.59576 0.98797 0.0
H303 H 0.37625 0.59217 0.07713 0.0
H304 H 0.31323 0.59976 0.45821 0.0
H305 H 0.26784 0.60222 0.54832 0.0
H306 H 0.37201 0.61703 0.45394 0.0
H307 H 0.41888 0.61409 0.53425 0.0
C308 C 0.8222 0.66282 0.65221 0.0
C309 C 0.80048 0.66026 0.769 0.0
C310 C 0.86633 0.66314 0.88418 0.0
C311 C 0.88792 0.65941 0.76784 0.0
N312 N 0.88741 0.65766 0.53908 0.0
N313 N 0.80104 0.65981 0.99802 0.0
C314 C 0.86619 0.66057 0.65084 0.0
C315 C 0.82228 0.66172 0.88585 0.0
N316 N 0.80033 0.66681 0.54278 0.0
N317 N 0.88834 0.66741 0.99306 0.0
H318 H 0.76885 0.65961 1.00216 0.0
H319 H 0.81509 0.65739 0.08627 0.0
H320 H 0.92056 0.66845 0.99267 0.0
H321 H 0.87496 0.67233 0.08034 0.0
H322 H 0.81388 0.67083 0.45484 0.0
H323 H 0.76817 0.66853 0.54298 0.0
H324 H 0.87334 0.65501 0.45102 0.0
H325 H 0.91959 0.65693 0.5353 0.0
C326 C 0.86276 0.33679 0.36214 0.0
C327 C 0.88356 0.338 0.24314 0.0
C328 C 0.81699 0.33733 0.13126 0.0
C329 C 0.79627 0.33868 0.25025 0.0
N330 N 0.79766 0.33089 0.47553 0.0
N331 N 0.88189 0.33067 1.01741 0.0
C332 C 0.81877 0.33516 0.3646 0.0
C333 C 0.86093 0.33505 0.12861 0.0
N334 N 0.88479 0.33919 0.47226 0.0
N335 N 0.79491 0.34011 0.02142 0.0
H336 H 0.91404 0.32891 1.0147 0.0
H337 H 0.86759 0.32634 0.93114 0.0
H338 H 0.76272 0.34092 0.02053 0.0
H339 H 0.80833 0.34265 0.93208 0.0
H340 H 0.87132 0.34184 0.5615 0.0
H341 H 0.91697 0.33964 0.47374 0.0
H342 H 0.81182 0.32611 0.56155 0.0
H343 H 0.76546 0.32965 0.4781 0.0
C344 C 0.80427 0.88261 0.39283 0.0
C345 C 0.78561 0.88416 0.27128 0.0
C346 C 0.85321 0.89248 0.17426 0.0
C347 C 0.87205 0.88433 0.28966 0.0
N348 N 0.86709 0.87442 0.51331 0.0
N349 N 0.79071 0.89325 0.04679 0.0
C350 C 0.84806 0.88099 0.4015 0.0
C351 C 0.80954 0.89072 0.16242 0.0
N352 N 0.77971 0.8819 0.49869 0.0
N353 N 0.8775 0.9011 0.07573 0.0
H354 H 0.75868 0.89291 0.0366 0.0
H355 H 0.80661 0.89478 0.96087 0.0
H356 H 0.90956 0.90248 0.08406 0.0
H357 H 0.866 0.90908 0.99111 0.0
H358 H 0.79091 0.88251 0.59138 0.0
H359 H 0.74756 0.88309 0.49268 0.0
H360 H 0.8514 0.86862 0.59551 0.0
H361 H 0.89917 0.87401 0.52249 0.0
C362 C 0.85769 0.11045 0.62821 0.0
C363 C 0.88213 0.11314 0.73907 0.0
C364 C 0.82013 0.11339 0.87331 0.0
C365 C 0.79567 0.1136 0.76168 0.0
N366 N 0.78928 0.10326 0.53917 0.0
N367 N 0.88857 0.10797 0.96519 0.0
C368 C 0.81401 0.10877 0.64109 0.0
C369 C 0.86379 0.11118 0.86127 0.0
N370 N 0.87603 0.11148 0.51104 0.0
N371 N 0.80188 0.11727 0.98937 0.0
H372 H 0.92062 0.10624 0.95667 0.0
H373 H 0.87748 0.10452 0.05685 0.0
H374 H 0.76992 0.11824 1.00117 0.0
H375 H 0.81826 0.12057 0.07306 0.0
H376 H 0.85975 0.11296 0.42604 0.0
H377 H 0.90803 0.11183 0.4993 0.0
H378 H 0.80045 0.09769 0.44983 0.0
H379 H 0.75722 0.10187 0.54803 0.0
C380 C 0.31716 0.16165 0.86968 0.0
C381 C 0.29633 0.1609 0.75108 0.0
C382 C 0.36293 0.1616 0.638 0.0
C383 C 0.3837 0.15972 0.75646 0.0
N384 N 0.38234 0.16671 0.98246 0.0
N385 N 0.29805 0.16895 0.52602 0.0
C386 C 0.3612 0.16297 0.87152 0.0
C387 C 0.319 0.16413 0.63643 0.0
N388 N 0.295 0.15917 0.97987 0.0
N389 N 0.38492 0.15905 0.52745 0.0
H390 H 0.26591 0.17085 0.52422 0.0
H391 H 0.31235 0.1735 0.43978 0.0
H392 H 0.41709 0.15801 0.52568 0.0
H393 H 0.37141 0.15691 0.43823 0.0
H394 H 0.30833 0.15621 0.06885 0.0
H395 H 0.26279 0.15907 0.98141 0.0
H396 H 0.36824 0.17121 0.06915 0.0
H397 H 0.41455 0.16776 0.98461 0.0
C398 C 0.34986 0.82995 0.16639 0.0
C399 C 0.37082 0.83422 0.28297 0.0
C400 C 0.30459 0.83147 0.39681 0.0
C401 C 0.28353 0.83377 0.27916 0.0
N402 N 0.28513 0.83288 0.05029 0.0
N403 N 0.36927 0.83668 0.51149 0.0
C404 C 0.30585 0.83153 0.16319 0.0
C405 C 0.34856 0.8335 0.39939 0.0
N406 N 0.37248 0.82512 0.05874 0.0
N407 N 0.2821 0.82805 0.50578 0.0
H408 H 0.40143 0.83728 0.51595 0.0
H409 H 0.3548 0.83961 0.59903 0.0
H410 H 0.24993 0.82655 0.50443 0.0
H411 H 0.29513 0.82431 0.59455 0.0
H412 H 0.35958 0.81992 0.97142 0.0
H413 H 0.40469 0.82394 0.06051 0.0
H414 H 0.29958 0.83469 0.9621 0.0
H415 H 0.25296 0.83313 0.04543 0.0
C416 C 0.10533 0.50122 0.90227 0.0
C417 C 0.11568 0.52397 0.97991 0.0
C418 C 0.13337 0.49264 0.15422 0.0
C419 C 0.11716 0.47053 0.08288 0.0
N420 N 0.0824 0.45419 0.89512 0.0
N421 N 0.13612 0.54157 0.18515 0.0
C422 C 0.10191 0.47488 0.95813 0.0
C423 C 0.12911 0.51975 0.10716 0.0
N424 N 0.10025 0.5046 0.77408 0.0
N425 N 0.15402 0.48766 0.26522 0.0
H426 H 0.13439 0.56164 0.15379 0.0
H427 H 0.14067 0.53984 0.28292 0.0
H428 H 0.15828 0.46803 0.30182 0.0
H429 H 0.17031 0.5026 0.31463 0.0
H430 H 0.09671 0.48833 0.71103 0.0
H431 H 0.10406 0.52339 0.72869 0.0
H432 H 0.06679 0.45691 0.80946 0.0
H433 H 0.07851 0.43483 0.93445 0.0
C434 C 0.5844 0.49583 0.41998 0.0
C435 C 0.57153 0.47279 0.49196 0.0
C436 C 0.55194 0.50328 0.66801 0.0
C437 C 0.57116 0.52536 0.60403 0.0
N438 N 0.61017 0.5422 0.42478 0.0
N439 N 0.54534 0.45436 0.68983 0.0
C440 C 0.58835 0.5216 0.48101 0.0
C441 C 0.55552 0.47645 0.61709 0.0
N442 N 0.59137 0.49333 0.29208 0.0
N443 N 0.52913 0.50807 0.77554 0.0
H444 H 0.54587 0.43451 0.65526 0.0
H445 H 0.53901 0.45554 0.78695 0.0
H446 H 0.52525 0.52754 0.81449 0.0
H447 H 0.51077 0.49329 0.81894 0.0
H448 H 0.59694 0.50997 0.23267 0.0
H449 H 0.58701 0.47504 0.24278 0.0
H450 H 0.6271 0.53972 0.34108 0.0
H451 H 0.61443 0.56113 0.46801 0.0
C452 C 0.59704 0.00431 0.9272 0.0
C453 C 0.61364 0.02715 0.99273 0.0
C454 C 0.63723 0.99655 0.16314 0.0
C455 C 0.61463 0.97486 0.1075 0.0
N456 N 0.56742 0.95919 0.94604 0.0
N457 N 0.64696 0.04535 0.18029 0.0
C458 C 0.59324 0.97894 0.99149 0.0
C459 C 0.63342 0.02337 0.11224 0.0
N460 N 0.58618 0.00656 0.80199 0.0
N461 N 0.66326 0.99139 0.26258 0.0
H462 H 0.64607 0.06519 0.14557 0.0
H463 H 0.65643 0.04414 0.2748 0.0
H464 H 0.66729 0.97191 0.30105 0.0
H465 H 0.68379 0.00579 0.29866 0.0
H466 H 0.57759 0.98986 0.74647 0.0
H467 H 0.59029 0.02448 0.74972 0.0
H468 H 0.54784 0.96219 0.86872 0.0
H469 H 0.5625 0.94079 0.9934 0.0
C470 C 0.04788 0.97485 0.60316 0.0
C471 C 0.05878 0.96992 0.474 0.0
C472 C 0.07241 0.0188 0.44367 0.0
C473 C 0.06021 0.02384 0.57127 0.0
N474 N 0.027 0.00795 0.76295 0.0
N475 N 0.06981 0.98809 0.26309 0.0
C476 C 0.0451 0.00222 0.64819 0.0
C477 C 0.06753 0.9922 0.39168 0.0
N478 N 0.04195 0.95345 0.6845 0.0
N479 N 0.09059 0.03905 0.37399 0.0
H480 H 0.06492 0.96905 0.22095 0.0
H481 H 0.0721 0.00398 0.19749 0.0
H482 H 0.09535 0.0586 0.41004 0.0
H483 H 0.10423 0.03583 0.28529 0.0
H484 H 0.03928 0.95566 0.78279 0.0
H485 H 0.04252 0.9332 0.65484 0.0
H486 H 0.01157 0.99342 0.81757 0.0
H487 H 0.02387 0.0278 0.79811 0.0
C488 C 0.04429 0.2789 0.96841 0.0
C489 C 0.07527 0.2892 0.04983 0.0
C490 C 0.10471 0.24316 0.07011 0.0
C491 C 0.07946 0.23445 0.96795 0.0
N492 N 0.02297 0.24291 0.82381 0.0
N493 N 0.13315 0.28114 0.18847 0.0
C494 C 0.04796 0.25183 0.91984 0.0
C495 C 0.10438 0.27118 0.10609 0.0
N496 N 0.01174 0.2954 0.93729 0.0
N497 N 0.12821 0.22448 0.13443 0.0
H498 H 0.13127 0.30076 0.22608 0.0
H499 H 0.15897 0.27017 0.21827 0.0
H500 H 0.12901 0.20379 0.11027 0.0
H501 H 0.1439 0.22891 0.21831 0.0
H502 H 0.98618 0.28893 0.88566 0.0
H503 H 1.00875 0.31515 0.97427 0.0
H504 H 1.00187 0.25533 0.77664 0.0
H505 H 0.02476 0.22323 0.78602 0.0
C506 C 0.6328 0.72259 0.5109 0.0
C507 C 0.59973 0.70962 0.57487 0.0
C508 C 0.56256 0.75333 0.58276 0.0
C509 C 0.59167 0.76473 0.49727 0.0
N510 N 0.65322 0.75919 0.36905 0.0
N511 N 0.52974 0.71193 0.65444 0.0
C512 C 0.62694 0.74928 0.45987 0.0
C513 C 0.5639 0.72487 0.60817 0.0
N514 N 0.66947 0.70905 0.49711 0.0
N515 N 0.53385 0.76967 0.64072 0.0
H516 H 0.529 0.69099 0.67103 0.0
H517 H 0.5013 0.72163 0.66658 0.0
H518 H 0.53239 0.79074 0.62572 0.0
H519 H 0.51457 0.76274 0.71342 0.0
H520 H 0.69605 0.71814 0.46063 0.0
H521 H 0.67414 0.68949 0.53437 0.0
H522 H 0.67697 0.74765 0.32877 0.0
H523 H 0.64904 0.7781 0.32516 0.0
C524 C 0.04304 0.74295 0.0569 0.0
C525 C 0.07917 0.75907 0.04005 0.0
C526 C 0.11678 0.71917 0.96007 0.0
C527 C 0.08078 0.703 0.97636 0.0
N528 N 1.00776 0.70007 1.01327 0.0
N529 N 0.14558 0.76461 0.93916 0.0
C530 C 0.04314 0.71523 1.01487 0.0
C531 C 0.11448 0.74783 0.97956 0.0
N532 N 1.00964 0.75352 0.12001 0.0
N533 N 0.1539 0.70696 0.93478 0.0
H534 H 0.14448 0.78581 0.9496 0.0
H535 H 0.17039 0.75784 0.88415 0.0
H536 H 0.15706 0.68598 0.92177 0.0
H537 H 0.18197 0.71731 0.93659 0.0
H538 H 0.984 0.74204 0.14636 0.0
H539 H 1.00862 0.77346 0.15486 0.0
H540 H 0.97845 0.70821 0.02888 0.0
H541 H 1.00755 0.67961 0.98502 0.0
C542 C 0.555 0.25929 0.59072 0.0
C543 C 0.58929 0.24109 0.58818 0.0
C544 C 0.63188 0.27686 0.48923 0.0
C545 C 0.59748 0.29463 0.49009 0.0
N546 N 0.52375 0.30036 0.50556 0.0
N547 N 0.65562 0.2299 0.49484 0.0
C548 C 0.55809 0.28477 0.52704 0.0
C549 C 0.62631 0.24902 0.52449 0.0
N550 N 0.5208 0.25361 0.66254 0.0
N551 N 0.67008 0.28681 0.45996 0.0
H552 H 0.65135 0.20906 0.51114 0.0
H553 H 0.68192 0.23429 0.44141 0.0
H554 H 0.67455 0.30694 0.4303 0.0
H555 H 0.69719 0.27558 0.47158 0.0
H556 H 0.49719 0.26771 0.67856 0.0
H557 H 0.51753 0.23608 0.71744 0.0
H558 H 0.49377 0.29318 0.51885 0.0
H559 H 0.52525 0.31949 0.46231 0.0
C560 C 0.56225 0.74768 0.07225 0.0
C561 C 0.59266 0.74198 0.97723 0.0
C562 C 0.61066 0.79042 0.97786 0.0
C563 C 0.57436 0.79652 0.04742 0.0
N564 N 0.51223 0.78077 0.14863 0.0
N565 N 0.64113 0.76034 0.82207 0.0
C566 C 0.54921 0.77511 0.09223 0.0
C567 C 0.61635 0.76389 0.92635 0.0
N568 N 0.54681 0.72715 0.14626 0.0
N569 N 0.63883 0.81073 0.96032 0.0
H570 H 0.64461 0.74192 0.77404 0.0
H571 H 0.65457 0.77662 0.77339 0.0
H572 H 0.6677 0.8079 0.91785 0.0
H573 H 0.6677 0.8079 0.91785 0.0
H574 H 0.52695 0.73077 0.22277 0.0
H575 H 0.55793 0.70714 0.14142 0.0
H576 H 0.49088 0.76568 0.1725 0.0
H577 H 0.50197 0.80076 0.16204 0.0
C578 C 0.04702 0.24656 0.50861 0.0
C579 C 0.08284 0.26307 0.51188 0.0
C580 C 0.12521 0.22286 0.56213 0.0
C581 C 0.09067 0.20592 0.53946 0.0
N582 N 0.01776 0.20118 0.49479 0.0
N583 N 0.1487 0.2681 0.61807 0.0
C584 C 0.05112 0.21767 0.51581 0.0
C585 C 0.11999 0.25173 0.5616 0.0
N586 N 1.00896 0.25875 0.50875 0.0
N587 N 0.16341 0.21147 0.57748 0.0
H588 H 0.14292 0.2885 0.64023 0.0
H589 H 0.175 0.26052 0.66286 0.0
H590 H 0.16821 0.19039 0.57814 0.0
H591 H 0.19053 0.22289 0.57941 0.0
H592 H 0.98126 0.24816 0.51698 0.0
H593 H 1.00528 0.27985 0.51828 0.0
H594 H 0.98963 0.20819 0.45975 0.0
H595 H 0.0186 0.18005 0.50607 0.0
C596 C 0.62395 0.23843 0.09557 0.0
C597 C 0.59013 0.25698 0.08928 0.0
C598 C 0.548 0.22135 0.98742 0.0
C599 C 0.58208 0.20331 0.99105 0.0
N600 N 0.65557 0.19717 1.01326 0.0
N601 N 0.52516 0.26852 0.98918 0.0
C602 C 0.62118 0.21293 0.03173 0.0
C603 C 0.55371 0.24921 0.02242 0.0
N604 N 0.65734 0.24384 0.1708 0.0
N605 N 0.50992 0.21166 0.95559 0.0
H606 H 0.52963 0.28936 1.00494 0.0
H607 H 0.49945 0.26422 0.93331 0.0
H608 H 0.50534 0.19151 0.92666 0.0
H609 H 0.48293 0.22314 0.96489 0.0
H610 H 0.68041 0.22952 0.1894 0.0
H611 H 0.66029 0.26137 0.22591 0.0
H612 H 0.68546 0.20422 0.02915 0.0
H613 H 0.6544 0.17803 0.96997 0.0
C614 C 0.12875 0.75084 0.56316 0.0
C615 C 0.09324 0.73432 0.54325 0.0
C616 C 0.05635 0.77385 0.45579 0.0
C617 C 0.09167 0.79037 0.47791 0.0
N618 N 0.16306 0.79417 0.53885 0.0
N619 N 0.02809 0.72816 0.43662 0.0
C620 C 0.12848 0.77854 0.52471 0.0
C621 C 0.05855 0.74524 0.47854 0.0
N622 N 0.16298 0.74118 0.62338 0.0
N623 N 0.01976 0.78576 0.42232 0.0
H624 H 0.02916 0.70702 0.44913 0.0
H625 H 1.00379 0.73454 0.37911 0.0
H626 H 0.01683 0.80662 0.40556 0.0
H627 H 0.99173 0.77538 0.42026 0.0
H628 H 0.16583 0.72146 0.6601 0.0
H629 H 0.16583 0.72146 0.6601 0.0
H630 H 0.19067 0.78635 0.57503 0.0
H631 H 0.16424 0.8146 0.51027 0.0
C632 C 0.14624 0.3766 0.78514 0.0
C633 C 0.10912 0.37639 0.85575 0.0
C634 C 0.07191 0.39228 0.6664 0.0
C635 C 0.10675 0.38542 0.59101 0.0
N636 N 0.1783 0.37133 0.57853 0.0
N637 N 0.03676 0.3869 0.86938 0.0
C638 C 0.14472 0.37848 0.65036 0.0
C639 C 0.07216 0.38593 0.79864 0.0
N640 N 0.18279 0.37433 0.84779 0.0
N641 N 0.03847 0.40423 0.61013 0.0
H642 H 0.03689 0.38355 0.96739 0.0
H643 H 1.00757 0.39034 0.83126 0.0
H644 H 0.03809 0.40894 0.51317 0.0
H645 H 0.01304 0.4116 0.66051 0.0
H646 H 0.21154 0.3763 0.80403 0.0
H647 H 0.18354 0.37378 0.94652 0.0
H648 H 0.20475 0.36245 0.6168 0.0
H649 H 0.17898 0.37269 0.47966 0.0
C650 C 0.61845 0.61178 0.33619 0.0
C651 C 0.58026 0.61985 0.39062 0.0
C652 C 0.54591 0.61262 0.18566 0.0
C653 C 0.58539 0.61096 0.12664 0.0
N654 N 0.65835 0.60308 0.14307 0.0
N655 N 0.50679 0.6233 0.37864 0.0
C656 C 0.62138 0.60809 0.20189 0.0
C657 C 0.54348 0.61796 0.31911 0.0
N658 N 0.65204 0.60918 0.4136 0.0
N659 N 0.51118 0.6101 0.11315 0.0
H660 H 0.50524 0.62646 0.47688 0.0
H661 H 0.47847 0.62481 0.33278 0.0
H662 H 0.51245 0.60588 1.01601 0.0
H663 H 0.48127 0.61022 0.14944 0.0
H664 H 0.68121 0.60301 0.38346 0.0
H665 H 0.64952 0.61149 0.512 0.0
H666 H 0.68672 0.60261 0.18904 0.0
H667 H 0.66042 0.5992 0.04549 0.0
C668 C 0.14639 0.61587 0.23536 0.0
C669 C 0.10976 0.61462 0.16344 0.0
C670 C 0.07141 0.59931 0.35216 0.0
C671 C 0.10661 0.60505 0.42757 0.0
N672 N 0.18075 0.61225 0.43503 0.0
N673 N 0.04118 0.59725 0.1397 0.0
C674 C 0.1451 0.61049 0.36748 0.0
C675 C 0.07362 0.60317 0.21756 0.0
N676 N 0.18237 0.62357 0.17809 0.0
N677 N 0.03554 0.59171 0.4109 0.0
H678 H 0.04301 0.60015 0.04144 0.0
H679 H 0.01406 0.58787 0.16969 0.0
H680 H 0.03412 0.58783 0.50857 0.0
H681 H 1.00739 0.58947 0.36466 0.0
H682 H 0.21008 0.62545 0.22794 0.0
H683 H 0.18405 0.62732 0.08032 0.0
H684 H 0.1827 0.60824 0.53233 0.0
H685 H 0.1827 0.60824 0.53233 0.0
C686 C 0.54265 0.38113 0.73541 0.0
C687 C 0.57987 0.384 0.66578 0.0
C688 C 0.61553 0.3998 0.85761 0.0
C689 C 0.58017 0.39279 0.93029 0.0
N690 N 0.50682 0.38577 0.93864 0.0
N691 N 0.64705 0.4038 0.64722 0.0
C692 C 0.54237 0.38681 0.86857 0.0
C693 C 0.61451 0.39656 0.72271 0.0
N694 N 0.50866 0.37116 0.67453 0.0
N695 N 0.65056 0.40789 0.91907 0.0
H696 H 0.64639 0.40079 0.54883 0.0
H697 H 0.67294 0.41427 0.67938 0.0
H698 H 0.65111 0.41124 1.01723 0.0
H699 H 0.6789 0.4109 0.87446 0.0
H700 H 0.48127 0.3658 0.71995 0.0
H701 H 0.50862 0.3679 0.57628 0.0
H702 H 0.47765 0.38273 0.9 0.0
H703 H 0.5064 0.39023 0.03574 0.0
C704 C 0.5497 0.89645 0.81999 0.0
C705 C 0.58426 0.88592 0.8864 0.0
C706 C 0.62445 0.88485 0.6883 0.0
C707 C 0.588 0.89143 0.61988 0.0
N708 N 0.5205 0.91176 0.61868 0.0
N709 N 0.65725 0.87914 0.8949 0.0
C710 C 0.5522 0.90033 0.68576 0.0
C711 C 0.62283 0.88374 0.82381 0.0
N712 N 0.51361 0.90038 0.88512 0.0
N713 N 0.6595 0.87766 0.62348 0.0
H714 H 0.65543 0.87799 0.99359 0.0
H715 H 0.68719 0.8788 0.85861 0.0
H716 H 0.66187 0.87891 0.52464 0.0
H717 H 0.68581 0.86968 0.66645 0.0
H718 H 0.48553 0.90514 0.84255 0.0
H719 H 0.51216 0.89833 0.98404 0.0
H720 H 0.49426 0.92024 0.66049 0.0
H721 H 0.5222 0.91465 0.52031 0.0
C722 C 0.11248 0.10669 0.28833 0.0
C723 C 0.07608 0.11669 0.34738 0.0
C724 C 0.03908 0.11428 0.14495 0.0
C725 C 0.07711 0.10834 0.08289 0.0
N726 N 0.14607 0.09054 0.09439 0.0
N727 N 1.00271 0.1215 0.34587 0.0
C728 C 0.11247 0.10142 0.155 0.0
C729 C 0.03846 0.11708 0.27994 0.0
N730 N 0.14757 0.10424 0.35927 0.0
N731 N 1.00457 0.11932 0.07411 0.0
H732 H 1.00282 0.12395 0.44452 0.0
H733 H 0.97338 0.12059 0.30589 0.0
H734 H 1.00387 0.11663 0.97572 0.0
H735 H 0.97697 0.12677 0.11156 0.0
H736 H 0.17662 0.09989 0.32177 0.0
H737 H 0.1472 0.10693 0.45785 0.0
H738 H 0.17238 0.08356 0.14091 0.0
H739 H 0.14608 0.08658 0.99666 0.0
C740 C 0.63877 0.11741 0.22687 0.0
C741 C 0.60134 0.1139 0.15998 0.0
C742 C 0.56797 0.09673 0.35414 0.0
C743 C 0.60236 0.10596 0.42497 0.0
N744 N 0.67385 0.11889 0.43174 0.0
N745 N 0.53304 0.09553 0.14865 0.0
C746 C 0.63928 0.11375 0.36159 0.0
C747 C 0.56722 0.10112 0.21984 0.0
N748 N 0.67296 0.12539 0.16038 0.0
N749 N 0.53579 0.08472 0.41697 0.0
H750 H 0.53272 0.09871 0.05038 0.0
H751 H 0.50541 0.08804 0.185 0.0
H752 H 0.53644 0.08137 0.51512 0.0
H753 H 0.50983 0.07668 0.37272 0.0
H754 H 0.70201 0.12836 0.19982 0.0
H755 H 0.67217 0.12773 0.06164 0.0
H756 H 0.70139 0.1264 0.39482 0.0
H757 H 0.67502 0.11498 0.52919 0.0
C758 C 0.02589 0.87762 0.73915 0.0
C759 C 0.06253 0.87887 0.66595 0.0
C760 C 0.10158 0.89368 0.85297 0.0
C761 C 0.06644 0.88832 0.92962 0.0
N762 N 0.99256 0.88411 0.94509 0.0
N763 N 0.13075 0.89672 0.6392 0.0
C764 C 0.02748 0.88366 0.8719 0.0
C765 C 0.09875 0.89032 0.71851 0.0
N766 N 0.99049 0.86883 0.68202 0.0
N767 N 0.13798 0.90047 0.91018 0.0
H768 H 0.12853 0.89412 0.54085 0.0
H769 H 0.15764 0.90645 0.66844 0.0
H770 H 0.13996 0.90411 1.00794 0.0
H771 H 0.16607 0.90201 0.86243 0.0
H772 H 0.96312 0.86463 0.73017 0.0
H773 H 0.9892 0.86532 0.584 0.0
H774 H 0.96283 0.88205 0.90916 0.0
H775 H 0.99327 0.8888 0.04182 0.0
loop_
_geom_bond_atom_site_label_1
_geom_bond_atom_site_label_2
_geom_bond_distance
_geom_bond_site_symmetry_2
_ccdc_geom_bond_type
Zn0 N4 2.020 . S
Zn0 O8 2.019 . S
Zn0 N10 2.119 . S
Zn0 O18 1.975 . S
C1 N2 1.334 . S
C1 N5 1.336 1_556 S
N2 C1 1.334 . S
N2 C3 1.334 . S
C3 N2 1.334 . S
C3 N4 1.336 1_556 S
N4 Zn0 2.020 . S
N4 C3 1.336 1_554 S
N4 N5 1.354 . S
N5 C1 1.336 1_554 S
N5 N4 1.354 . S
N5 Zn9 2.020 . S
C6 O7 1.244 . S
C6 O30 1.257 . S
O7 C6 1.244 . S
O8 Zn0 2.019 . S
O8 C28 1.257 . S
Zn9 N5 2.020 . S
Zn9 O16 1.975 . S
Zn9 N25 2.119 . S
Zn9 O30 2.019 . S
N10 Zn0 2.119 . S
N10 C12 1.334 . S
N10 C13 1.328 . S
C11 C12 1.391 . S
C11 N14 1.329 . S
C11 H32 0.930 . S
C12 N10 1.334 . S
C12 C11 1.391 . S
C12 H19 0.930 . S
C13 N10 1.328 . S
C13 C15 1.392 . S
C13 H20 0.930 . S
N14 C11 1.329 . S
N14 C15 1.331 . S
C15 C13 1.392 . S
C15 N14 1.331 . S
O16 Zn9 1.975 . S
O16 C17 1.252 . S
C17 O16 1.252 . S
C17 O18 1.252 . S
O18 Zn0 1.975 . S
O18 C17 1.252 . S
H19 C12 0.930 . S
H20 C13 0.930 . S
C21 C22 1.392 . S
C21 N25 1.328 1_655 S
C21 H27 0.930 . S
C22 C21 1.392 . S
C22 N26 1.331 . S
C23 C24 1.391 1_655 S
C23 N26 1.329 . S
C23 H33 0.930 . S
C24 C23 1.391 1_455 S
C24 N25 1.334 . S
C24 H31 0.930 . S
N25 Zn9 2.119 . S
N25 C21 1.328 1_455 S
N25 C24 1.334 . S
N26 C22 1.331 . S
N26 C23 1.329 . S
H27 C21 0.930 . S
C28 O8 1.257 . S
C28 O29 1.244 . S
O29 C28 1.244 . S
O30 C6 1.257 . S
O30 Zn9 2.019 . S
H31 C24 0.930 . S
H32 C11 0.930 . S
H33 C23 0.930 . S
Zn34 N38 2.020 . S
Zn34 O42 2.019 . S
Zn34 N44 2.119 . S
Zn34 O52 1.975 . S
C35 N36 1.334 . S
C35 N39 1.336 . S
N36 C35 1.334 . S
N36 C37 1.334 . S
C37 N36 1.334 . S
C37 N38 1.336 . S
N38 Zn34 2.020 . S
N38 C37 1.336 . S
N38 N39 1.354 . S
N39 C35 1.336 . S
N39 N38 1.354 . S
N39 Zn43 2.020 . S
C40 O41 1.244 . S
C40 O64 1.257 . S
O41 C40 1.244 . S
O42 Zn34 2.019 . S
O42 C62 1.257 . S
Zn43 N39 2.020 . S
Zn43 O50 1.975 . S
Zn43 N59 2.119 . S
Zn43 O64 2.019 . S
N44 Zn34 2.119 . S
N44 C46 1.334 . S
N44 C47 1.328 . S
C45 C46 1.391 . S
C45 N48 1.329 . S
C45 H66 0.930 . S
C46 N44 1.334 . S
C46 C45 1.391 . S
C46 H53 0.930 . S
C47 N44 1.328 . S
C47 C49 1.392 . S
C47 H54 0.930 . S
N48 C45 1.329 . S
N48 C49 1.331 . S
C49 C47 1.392 . S
C49 N48 1.331 . S
O50 Zn43 1.975 . S
O50 C51 1.252 . S
C51 O50 1.252 . S
C51 O52 1.252 . S
O52 Zn34 1.975 . S
O52 C51 1.252 . S
H53 C46 0.930 . S
H54 C47 0.930 . S
C55 C56 1.392 . S
C55 N59 1.328 . S
C55 H61 0.930 . S
C56 C55 1.392 . S
C56 N60 1.331 . S
C57 C58 1.391 . S
C57 N60 1.329 . S
C57 H67 0.930 . S
C58 C57 1.391 . S
C58 N59 1.334 . S
C58 H65 0.930 . S
N59 Zn43 2.119 . S
N59 C55 1.328 . S
N59 C58 1.334 . S
N60 C56 1.331 . S
N60 C57 1.329 . S
H61 C55 0.930 . S
C62 O42 1.257 . S
C62 O63 1.244 . S
O63 C62 1.244 . S
O64 C40 1.257 . S
O64 Zn43 2.019 . S
H65 C58 0.930 . S
H66 C45 0.930 . S
H67 C57 0.930 . S
Zn68 N72 2.020 . S
Zn68 O76 2.019 . S
Zn68 N78 2.119 . S
Zn68 O86 1.975 . S
C69 N70 1.334 . S
C69 N73 1.336 1_554 S
N70 C69 1.334 . S
N70 C71 1.334 . S
C71 N70 1.334 . S
C71 N72 1.336 1_554 S
N72 Zn68 2.020 . S
N72 C71 1.336 1_556 S
N72 N73 1.354 . S
N73 C69 1.336 1_556 S
N73 N72 1.354 . S
N73 Zn77 2.020 . S
C74 O75 1.244 . S
C74 O98 1.257 . S
O75 C74 1.244 . S
O76 Zn68 2.019 . S
O76 C96 1.257 . S
Zn77 N73 2.020 . S
Zn77 O84 1.975 . S
Zn77 N93 2.119 . S
Zn77 O98 2.019 . S
N78 Zn68 2.119 . S
N78 C80 1.334 . S
N78 C81 1.328 1_455 S
C79 C80 1.391 1_655 S
C79 N82 1.329 . S
C79 H100 0.930 . S
C80 N78 1.334 . S
C80 C79 1.391 1_455 S
C80 H87 0.930 . S
C81 N78 1.328 1_655 S
C81 C83 1.392 . S
C81 H88 0.930 . S
N82 C79 1.329 . S
N82 C83 1.331 . S
C83 C81 1.392 . S
C83 N82 1.331 . S
O84 Zn77 1.975 . S
O84 C85 1.252 . S
C85 O84 1.252 . S
C85 O86 1.252 . S
O86 Zn68 1.975 . S
O86 C85 1.252 . S
H87 C80 0.930 . S
H88 C81 0.930 . S
C89 C90 1.392 . S
C89 N93 1.328 . S
C89 H95 0.930 . S
C90 C89 1.392 . S
C90 N94 1.331 . S
C91 C92 1.391 . S
C91 N94 1.329 . S
C91 H101 0.930 . S
C92 C91 1.391 . S
C92 N93 1.334 . S
C92 H99 0.930 . S
N93 Zn77 2.119 . S
N93 C89 1.328 . S
N93 C92 1.334 . S
N94 C90 1.331 . S
N94 C91 1.329 . S
H95 C89 0.930 . S
C96 O76 1.257 . S
C96 O97 1.244 . S
O97 C96 1.244 . S
O98 C74 1.257 . S
O98 Zn77 2.019 . S
H99 C92 0.930 . S
H100 C79 0.930 . S
H101 C91 0.930 . S
Zn102 N106 2.020 . S
Zn102 O110 2.019 . S
Zn102 N112 2.119 . S
Zn102 O120 1.975 . S
C103 N104 1.334 . S
C103 N107 1.336 . S
N104 C103 1.334 . S
N104 C105 1.334 . S
C105 N104 1.334 . S
C105 N106 1.336 . S
N106 Zn102 2.020 . S
N106 C105 1.336 . S
N106 N107 1.354 . S
N107 C103 1.336 . S
N107 N106 1.354 . S
N107 Zn111 2.020 . S
C108 O109 1.244 . S
C108 O132 1.257 . S
O109 C108 1.244 . S
O110 Zn102 2.019 . S
O110 C130 1.257 . S
Zn111 N107 2.020 . S
Zn111 O118 1.975 . S
Zn111 N127 2.119 . S
Zn111 O132 2.019 . S
N112 Zn102 2.119 . S
N112 C114 1.334 . S
N112 C115 1.328 . S
C113 C114 1.391 . S
C113 N116 1.329 . S
C113 H134 0.930 . S
C114 N112 1.334 . S
C114 C113 1.391 . S
C114 H121 0.930 . S
C115 N112 1.328 . S
C115 C117 1.392 . S
C115 H122 0.930 . S
N116 C113 1.329 . S
N116 C117 1.331 . S
C117 C115 1.392 . S
C117 N116 1.331 . S
O118 Zn111 1.975 . S
O118 C119 1.252 . S
C119 O118 1.252 . S
C119 O120 1.252 . S
O120 Zn102 1.975 . S
O120 C119 1.252 . S
H121 C114 0.930 . S
H122 C115 0.930 . S
C123 C124 1.392 . S
C123 N127 1.328 . S
C123 H129 0.930 . S
C124 C123 1.392 . S
C124 N128 1.331 . S
C125 C126 1.391 . S
C125 N128 1.329 . S
C125 H135 0.930 . S
C126 C125 1.391 . S
C126 N127 1.334 . S
C126 H133 0.930 . S
N127 Zn111 2.119 . S
N127 C123 1.328 . S
N127 C126 1.334 . S
N128 C124 1.331 . S
N128 C125 1.329 . S
H129 C123 0.930 . S
C130 O110 1.257 . S
C130 O131 1.244 . S
O131 C130 1.244 . S
O132 C108 1.257 . S
O132 Zn111 2.019 . S
H133 C126 0.930 . S
H134 C113 0.930 . S
H135 C125 0.930 . S
Zn136 N140 2.020 . S
Zn136 O144 2.019 . S
Zn136 N146 2.119 . S
Zn136 O154 1.975 . S
C137 N138 1.334 . S
C137 N141 1.336 1_556 S
N138 C137 1.334 . S
N138 C139 1.334 . S
C139 N138 1.334 . S
C139 N140 1.336 1_556 S
N140 Zn136 2.020 . S
N140 C139 1.336 1_554 S
N140 N141 1.354 . S
N141 C137 1.336 1_554 S
N141 N140 1.354 . S
N141 Zn145 2.020 . S
C142 O143 1.244 . S
C142 O166 1.257 . S
O143 C142 1.244 . S
O144 Zn136 2.019 . S
O144 C164 1.257 . S
Zn145 N141 2.020 . S
Zn145 O152 1.975 . S
Zn145 N161 2.119 . S
Zn145 O166 2.019 . S
N146 Zn136 2.119 . S
N146 C148 1.334 . S
N146 C149 1.328 . S
C147 C148 1.391 . S
C147 N150 1.329 . S
C147 H168 0.930 . S
C148 N146 1.334 . S
C148 C147 1.391 . S
C148 H155 0.930 . S
C149 N146 1.328 . S
C149 C151 1.392 . S
C149 H156 0.930 . S
N150 C147 1.329 . S
N150 C151 1.331 . S
C151 C149 1.392 . S
C151 N150 1.331 . S
O152 Zn145 1.975 . S
O152 C153 1.252 . S
C153 O152 1.252 . S
C153 O154 1.252 . S
O154 Zn136 1.975 . S
O154 C153 1.252 . S
H155 C148 0.930 . S
H156 C149 0.930 . S
C157 C158 1.392 . S
C157 N161 1.328 . S
C157 H163 0.930 . S
C158 C157 1.392 . S
C158 N162 1.331 . S
C159 C160 1.391 . S
C159 N162 1.329 . S
C159 H169 0.930 . S
C160 C159 1.391 . S
C160 N161 1.334 . S
C160 H167 0.930 . S
N161 Zn145 2.119 . S
N161 C157 1.328 . S
N161 C160 1.334 . S
N162 C158 1.331 . S
N162 C159 1.329 . S
H163 C157 0.930 . S
C164 O144 1.257 . S
C164 O165 1.244 . S
O165 C164 1.244 . S
O166 C142 1.257 . S
O166 Zn145 2.019 . S
H167 C160 0.930 . S
H168 C147 0.930 . S
H169 C159 0.930 . S
Zn170 N174 2.020 . S
Zn170 O178 2.019 1_455 S
Zn170 N180 2.119 1_455 S
Zn170 O188 1.975 . S
C171 N172 1.334 . S
C171 N175 1.336 . S
N172 C171 1.334 . S
N172 C173 1.334 . S
C173 N172 1.334 . S
C173 N174 1.336 . S
N174 Zn170 2.020 . S
N174 C173 1.336 . S
N174 N175 1.354 . S
N175 C171 1.336 . S
N175 N174 1.354 . S
N175 Zn179 2.020 . S
C176 O177 1.244 . S
C176 O200 1.257 . S
O177 C176 1.244 . S
O178 Zn170 2.019 1_655 S
O178 C198 1.257 1_655 S
Zn179 N175 2.020 . S
Zn179 O186 1.975 . S
Zn179 N195 2.119 . S
Zn179 O200 2.019 . S
N180 Zn170 2.119 1_655 S
N180 C182 1.334 . S
N180 C183 1.328 . S
C181 C182 1.391 . S
C181 N184 1.329 . S
C181 H202 0.930 . S
C182 N180 1.334 . S
C182 C181 1.391 . S
C182 H189 0.930 . S
C183 N180 1.328 . S
C183 C185 1.392 . S
C183 H190 0.930 . S
N184 C181 1.329 . S
N184 C185 1.331 . S
C185 C183 1.392 . S
C185 N184 1.331 . S
O186 Zn179 1.975 . S
O186 C187 1.252 . S
C187 O186 1.252 . S
C187 O188 1.252 . S
O188 Zn170 1.975 . S
O188 C187 1.252 . S
H189 C182 0.930 . S
H190 C183 0.930 . S
C191 C192 1.392 . S
C191 N195 1.328 . S
C191 H197 0.930 . S
C192 C191 1.392 . S
C192 N196 1.331 . S
C193 C194 1.391 . S
C193 N196 1.329 . S
C193 H203 0.930 . S
C194 C193 1.391 . S
C194 N195 1.334 . S
C194 H201 0.930 . S
N195 Zn179 2.119 . S
N195 C191 1.328 . S
N195 C194 1.334 . S
N196 C192 1.331 . S
N196 C193 1.329 . S
H197 C191 0.930 . S
C198 O178 1.257 1_455 S
C198 O199 1.244 . S
O199 C198 1.244 . S
O200 C176 1.257 . S
O200 Zn179 2.019 . S
H201 C194 0.930 . S
H202 C181 0.930 . S
H203 C193 0.930 . S
Zn204 N208 2.020 . S
Zn204 O212 2.019 . S
Zn204 N214 2.119 . S
Zn204 O222 1.975 . S
C205 N206 1.334 . S
C205 N209 1.336 1_554 S
N206 C205 1.334 . S
N206 C207 1.334 . S
C207 N206 1.334 . S
C207 N208 1.336 1_554 S
N208 Zn204 2.020 . S
N208 C207 1.336 1_556 S
N208 N209 1.354 . S
N209 C205 1.336 1_556 S
N209 N208 1.354 . S
N209 Zn213 2.020 . S
C210 O211 1.244 . S
C210 O234 1.257 . S
O211 C210 1.244 . S
O212 Zn204 2.019 . S
O212 C232 1.257 . S
Zn213 N209 2.020 . S
Zn213 O220 1.975 . S
Zn213 N229 2.119 . S
Zn213 O234 2.019 . S
N214 Zn204 2.119 . S
N214 C216 1.334 . S
N214 C217 1.328 . S
C215 C216 1.391 . S
C215 N218 1.329 . S
C215 H236 0.930 . S
C216 N214 1.334 . S
C216 C215 1.391 . S
C216 H223 0.930 . S
C217 N214 1.328 . S
C217 C219 1.392 . S
C217 H224 0.930 . S
N218 C215 1.329 . S
N218 C219 1.331 . S
C219 C217 1.392 . S
C219 N218 1.331 . S
O220 Zn213 1.975 . S
O220 C221 1.252 . S
C221 O220 1.252 . S
C221 O222 1.252 . S
O222 Zn204 1.975 . S
O222 C221 1.252 . S
H223 C216 0.930 . S
H224 C217 0.930 . S
C225 C226 1.392 . S
C225 N229 1.328 . S
C225 H231 0.930 . S
C226 C225 1.392 . S
C226 N230 1.331 . S
C227 C228 1.391 . S
C227 N230 1.329 . S
C227 H237 0.930 . S
C228 C227 1.391 . S
C228 N229 1.334 . S
C228 H235 0.930 . S
N229 Zn213 2.119 . S
N229 C225 1.328 . S
N229 C228 1.334 . S
N230 C226 1.331 . S
N230 C227 1.329 . S
H231 C225 0.930 . S
C232 O212 1.257 . S
C232 O233 1.244 . S
O233 C232 1.244 . S
O234 C210 1.257 . S
O234 Zn213 2.019 . S
H235 C228 0.930 . S
H236 C215 0.930 . S
H237 C227 0.930 . S
Zn238 N242 2.020 . S
Zn238 O246 2.019 . S
Zn238 N248 2.119 . S
Zn238 O256 1.975 . S
C239 N240 1.334 . S
C239 N243 1.336 . S
N240 C239 1.334 . S
N240 C241 1.334 . S
C241 N240 1.334 . S
C241 N242 1.336 . S
N242 Zn238 2.020 . S
N242 C241 1.336 . S
N242 N243 1.354 . S
N243 C239 1.336 . S
N243 N242 1.354 . S
N243 Zn247 2.020 . S
C244 O245 1.244 . S
C244 O268 1.257 1_455 S
O245 C244 1.244 . S
O246 Zn238 2.019 . S
O246 C266 1.257 . S
Zn247 N243 2.020 . S
Zn247 O254 1.975 . S
Zn247 N263 2.119 1_455 S
Zn247 O268 2.019 1_455 S
N248 Zn238 2.119 . S
N248 C250 1.334 . S
N248 C251 1.328 . S
C249 C250 1.391 . S
C249 N252 1.329 . S
C249 H270 0.930 . S
C250 N248 1.334 . S
C250 C249 1.391 . S
C250 H257 0.930 . S
C251 N248 1.328 . S
C251 C253 1.392 . S
C251 H258 0.930 . S
N252 C249 1.329 . S
N252 C253 1.331 . S
C253 C251 1.392 . S
C253 N252 1.331 . S
O254 Zn247 1.975 . S
O254 C255 1.252 . S
C255 O254 1.252 . S
C255 O256 1.252 . S
O256 Zn238 1.975 . S
O256 C255 1.252 . S
H257 C250 0.930 . S
H258 C251 0.930 . S
C259 C260 1.392 . S
C259 N263 1.328 . S
C259 H265 0.930 . S
C260 C259 1.392 . S
C260 N264 1.331 . S
C261 C262 1.391 . S
C261 N264 1.329 . S
C261 H271 0.930 . S
C262 C261 1.391 . S
C262 N263 1.334 . S
C262 H269 0.930 . S
N263 Zn247 2.119 1_655 S
N263 C259 1.328 . S
N263 C262 1.334 . S
N264 C260 1.331 . S
N264 C261 1.329 . S
H265 C259 0.930 . S
C266 O246 1.257 . S
C266 O267 1.244 . S
O267 C266 1.244 . S
O268 C244 1.257 1_655 S
O268 Zn247 2.019 1_655 S
H269 C262 0.930 . S
H270 C249 0.930 . S
H271 C261 0.930 . S
C272 C273 1.363 . S
C272 C278 1.379 . S
C272 N280 1.356 . S
C273 C272 1.363 . S
C273 C279 1.363 . S
C274 C275 1.363 . S
C274 C279 1.379 . S
C274 N281 1.356 . S
C275 C274 1.363 . S
C275 C278 1.363 . S
N276 C278 1.356 . S
N276 H288 0.984 . S
N276 H289 0.985 . S
N277 C279 1.356 . S
N277 H282 0.984 . S
N277 H283 0.985 . S
C278 C272 1.379 . S
C278 C275 1.363 . S
C278 N276 1.356 . S
C279 C273 1.363 . S
C279 C274 1.379 . S
C279 N277 1.356 . S
N280 C272 1.356 . S
N280 H286 0.984 . S
N280 H287 0.984 . S
N281 C274 1.356 . S
N281 H284 0.984 . S
N281 H285 0.985 . S
H282 N277 0.984 . S
H283 N277 0.985 . S
H284 N281 0.984 . S
H285 N281 0.985 . S
H286 N280 0.984 . S
H287 N280 0.984 . S
H288 N276 0.984 . S
H289 N276 0.985 . S
C290 C291 1.363 . S
C290 C296 1.379 . S
C290 N298 1.356 . S
C291 C290 1.363 . S
C291 C297 1.363 . S
C292 C293 1.363 . S
C292 C297 1.379 . S
C292 N299 1.356 . S
C293 C292 1.363 . S
C293 C296 1.363 . S
N294 C296 1.356 . S
N294 H306 0.984 . S
N294 H307 0.985 . S
N295 C297 1.356 . S
N295 H300 0.984 . S
N295 H301 0.985 . S
C296 C290 1.379 . S
C296 C293 1.363 . S
C296 N294 1.356 . S
C297 C291 1.363 . S
C297 C292 1.379 . S
C297 N295 1.356 . S
N298 C290 1.356 . S
N298 H304 0.984 . S
N298 H305 0.984 . S
N299 C292 1.356 . S
N299 H302 0.984 . S
N299 H303 0.985 . S
H300 N295 0.984 . S
H301 N295 0.985 . S
H302 N299 0.984 . S
H303 N299 0.985 . S
H304 N298 0.984 . S
H305 N298 0.984 . S
H306 N294 0.984 . S
H307 N294 0.985 . S
C308 C309 1.363 . S
C308 C314 1.379 . S
C308 N316 1.356 . S
C309 C308 1.363 . S
C309 C315 1.363 . S
C310 C311 1.363 . S
C310 C315 1.379 . S
C310 N317 1.356 . S
C311 C310 1.363 . S
C311 C314 1.363 . S
N312 C314 1.356 . S
N312 H324 0.984 . S
N312 H325 0.985 . S
N313 C315 1.356 . S
N313 H318 0.984 . S
N313 H319 0.985 . S
C314 C308 1.379 . S
C314 C311 1.363 . S
C314 N312 1.356 . S
C315 C309 1.363 . S
C315 C310 1.379 . S
C315 N313 1.356 . S
N316 C308 1.356 . S
N316 H322 0.984 . S
N316 H323 0.984 . S
N317 C310 1.356 . S
N317 H320 0.984 . S
N317 H321 0.985 . S
H318 N313 0.984 . S
H319 N313 0.985 . S
H320 N317 0.984 . S
H321 N317 0.985 . S
H322 N316 0.984 . S
H323 N316 0.984 . S
H324 N312 0.984 . S
H325 N312 0.985 . S
C326 C327 1.363 . S
C326 C332 1.379 . S
C326 N334 1.356 . S
C327 C326 1.363 . S
C327 C333 1.363 . S
C328 C329 1.363 . S
C328 C333 1.379 . S
C328 N335 1.356 . S
C329 C328 1.363 . S
C329 C332 1.363 . S
N330 C332 1.356 . S
N330 H342 0.984 . S
N330 H343 0.985 . S
N331 C333 1.356 . S
N331 H336 0.984 . S
N331 H337 0.985 . S
C332 C326 1.379 . S
C332 C329 1.363 . S
C332 N330 1.356 . S
C333 C327 1.363 . S
C333 C328 1.379 . S
C333 N331 1.356 . S
N334 C326 1.356 . S
N334 H340 0.984 . S
N334 H341 0.984 . S
N335 C328 1.356 . S
N335 H338 0.984 . S
N335 H339 0.985 . S
H336 N331 0.984 . S
H337 N331 0.985 . S
H338 N335 0.984 . S
H339 N335 0.985 . S
H340 N334 0.984 . S
H341 N334 0.984 . S
H342 N330 0.984 . S
H343 N330 0.985 . S
C344 C345 1.363 . S
C344 C350 1.379 . S
C344 N352 1.356 . S
C345 C344 1.363 . S
C345 C351 1.363 . S
C346 C347 1.363 . S
C346 C351 1.379 . S
C346 N353 1.356 . S
C347 C346 1.363 . S
C347 C350 1.363 . S
N348 C350 1.356 . S
N348 H360 0.984 . S
N348 H361 0.985 . S
N349 C351 1.356 . S
N349 H354 0.984 . S
N349 H355 0.985 . S
C350 C344 1.379 . S
C350 C347 1.363 . S
C350 N348 1.356 . S
C351 C345 1.363 . S
C351 C346 1.379 . S
C351 N349 1.356 . S
N352 C344 1.356 . S
N352 H358 0.984 . S
N352 H359 0.984 . S
N353 C346 1.356 . S
N353 H356 0.984 . S
N353 H357 0.985 . S
H354 N349 0.984 . S
H355 N349 0.985 . S
H356 N353 0.984 . S
H357 N353 0.985 . S
H358 N352 0.984 . S
H359 N352 0.984 . S
H360 N348 0.984 . S
H361 N348 0.985 . S
C362 C363 1.363 . S
C362 C368 1.379 . S
C362 N370 1.356 . S
C363 C362 1.363 . S
C363 C369 1.363 . S
C364 C365 1.363 . S
C364 C369 1.379 . S
C364 N371 1.356 . S
C365 C364 1.363 . S
C365 C368 1.363 . S
N366 C368 1.356 . S
N366 H378 0.984 . S
N366 H379 0.985 . S
N367 C369 1.356 . S
N367 H372 0.984 . S
N367 H373 0.985 . S
C368 C362 1.379 . S
C368 C365 1.363 . S
C368 N366 1.356 . S
C369 C363 1.363 . S
C369 C364 1.379 . S
C369 N367 1.356 . S
N370 C362 1.356 . S
N370 H376 0.984 . S
N370 H377 0.984 . S
N371 C364 1.356 . S
N371 H374 0.984 . S
N371 H375 0.985 . S
H372 N367 0.984 . S
H373 N367 0.985 . S
H374 N371 0.984 . S
H375 N371 0.985 . S
H376 N370 0.984 . S
H377 N370 0.984 . S
H378 N366 0.984 . S
H379 N366 0.985 . S
C380 C381 1.363 . S
C380 C386 1.379 . S
C380 N388 1.356 . S
C381 C380 1.363 . S
C381 C387 1.363 . S
C382 C383 1.363 . S
C382 C387 1.379 . S
C382 N389 1.356 . S
C383 C382 1.363 . S
C383 C386 1.363 . S
N384 C386 1.356 . S
N384 H396 0.984 . S
N384 H397 0.985 . S
N385 C387 1.356 . S
N385 H390 0.984 . S
N385 H391 0.985 . S
C386 C380 1.379 . S
C386 C383 1.363 . S
C386 N384 1.356 . S
C387 C381 1.363 . S
C387 C382 1.379 . S
C387 N385 1.356 . S
N388 C380 1.356 . S
N388 H394 0.984 . S
N388 H395 0.984 . S
N389 C382 1.356 . S
N389 H392 0.984 . S
N389 H393 0.985 . S
H390 N385 0.984 . S
H391 N385 0.985 . S
H392 N389 0.984 . S
H393 N389 0.985 . S
H394 N388 0.984 . S
H395 N388 0.984 . S
H396 N384 0.984 . S
H397 N384 0.985 . S
C398 C399 1.363 . S
C398 C404 1.379 . S
C398 N406 1.356 . S
C399 C398 1.363 . S
C399 C405 1.363 . S
C400 C401 1.363 . S
C400 C405 1.379 . S
C400 N407 1.356 . S
C401 C400 1.363 . S
C401 C404 1.363 . S
N402 C404 1.356 . S
N402 H414 0.984 . S
N402 H415 0.985 . S
N403 C405 1.356 . S
N403 H408 0.984 . S
N403 H409 0.985 . S
C404 C398 1.379 . S
C404 C401 1.363 . S
C404 N402 1.356 . S
C405 C399 1.363 . S
C405 C400 1.379 . S
C405 N403 1.356 . S
N406 C398 1.356 . S
N406 H412 0.984 . S
N406 H413 0.984 . S
N407 C400 1.356 . S
N407 H410 0.984 . S
N407 H411 0.985 . S
H408 N403 0.984 . S
H409 N403 0.985 . S
H410 N407 0.984 . S
H411 N407 0.985 . S
H412 N406 0.984 . S
H413 N406 0.984 . S
H414 N402 0.984 . S
H415 N402 0.985 . S
C416 C417 1.363 . S
C416 C422 1.379 . S
C416 N424 1.356 . S
C417 C416 1.363 . S
C417 C423 1.363 1_556 S
C418 C419 1.363 . S
C418 C423 1.379 . S
C418 N425 1.356 . S
C419 C418 1.363 . S
C419 C422 1.363 1_554 S
N420 C422 1.356 . S
N420 H432 0.984 . S
N420 H433 0.985 . S
N421 C423 1.356 . S
N421 H426 0.984 . S
N421 H427 0.985 . S
C422 C416 1.379 . S
C422 C419 1.363 1_556 S
C422 N420 1.356 . S
C423 C417 1.363 1_554 S
C423 C418 1.379 . S
C423 N421 1.356 . S
N424 C416 1.356 . S
N424 H430 0.984 . S
N424 H431 0.984 . S
N425 C418 1.356 . S
N425 H428 0.984 . S
N425 H429 0.985 . S
H426 N421 0.984 . S
H427 N421 0.985 . S
H428 N425 0.984 . S
H429 N425 0.985 . S
H430 N424 0.984 . S
H431 N424 0.984 . S
H432 N420 0.984 . S
H433 N420 0.985 . S
C434 C435 1.363 . S
C434 C440 1.379 . S
C434 N442 1.356 . S
C435 C434 1.363 . S
C435 C441 1.363 . S
C436 C437 1.363 . S
C436 C441 1.379 . S
C436 N443 1.356 . S
C437 C436 1.363 . S
C437 C440 1.363 . S
N438 C440 1.356 . S
N438 H450 0.984 . S
N438 H451 0.985 . S
N439 C441 1.356 . S
N439 H444 0.984 . S
N439 H445 0.985 . S
C440 C434 1.379 . S
C440 C437 1.363 . S
C440 N438 1.356 . S
C441 C435 1.363 . S
C441 C436 1.379 . S
C441 N439 1.356 . S
N442 C434 1.356 . S
N442 H448 0.984 . S
N442 H449 0.984 . S
N443 C436 1.356 . S
N443 H446 0.984 . S
N443 H447 0.985 . S
H444 N439 0.984 . S
H445 N439 0.985 . S
H446 N443 0.984 . S
H447 N443 0.985 . S
H448 N442 0.984 . S
H449 N442 0.984 . S
H450 N438 0.984 . S
H451 N438 0.985 . S
C452 C453 1.363 . S
C452 C458 1.379 1_545 S
C452 N460 1.356 . S
C453 C452 1.363 . S
C453 C459 1.363 1_556 S
C454 C455 1.363 . S
C454 C459 1.379 1_565 S
C454 N461 1.356 . S
C455 C454 1.363 . S
C455 C458 1.363 1_554 S
N456 C458 1.356 . S
N456 H468 0.984 . S
N456 H469 0.985 . S
N457 C459 1.356 . S
N457 H462 0.984 . S
N457 H463 0.985 . S
C458 C452 1.379 1_565 S
C458 C455 1.363 1_556 S
C458 N456 1.356 . S
C459 C453 1.363 1_554 S
C459 C454 1.379 1_545 S
C459 N457 1.356 . S
N460 C452 1.356 . S
N460 H466 0.984 . S
N460 H467 0.984 . S
N461 C454 1.356 . S
N461 H464 0.984 . S
N461 H465 0.985 . S
H462 N457 0.984 . S
H463 N457 0.985 . S
H464 N461 0.984 . S
H465 N461 0.985 . S
H466 N460 0.984 . S
H467 N460 0.984 . S
H468 N456 0.984 . S
H469 N456 0.985 . S
C470 C471 1.363 . S
C470 C476 1.379 1_565 S
C470 N478 1.356 1_455 S
C471 C470 1.363 . S
C471 C477 1.363 . S
C472 C473 1.363 . S
C472 C477 1.379 1_545 S
C472 N479 1.356 . S
C473 C472 1.363 . S
C473 C476 1.363 . S
N474 C476 1.356 1_655 S
N474 H486 0.984 . S
N474 H487 0.985 . S
N475 C477 1.356 . S
N475 H480 0.984 . S
N475 H481 0.985 . S
C476 C470 1.379 1_545 S
C476 C473 1.363 . S
C476 N474 1.356 1_455 S
C477 C471 1.363 . S
C477 C472 1.379 1_565 S
C477 N475 1.356 . S
N478 C470 1.356 1_655 S
N478 H484 0.984 . S
N478 H485 0.984 . S
N479 C472 1.356 . S
N479 H482 0.984 . S
N479 H483 0.985 . S
H480 N475 0.984 . S
H481 N475 0.985 . S
H482 N479 0.984 . S
H483 N479 0.985 . S
H484 N478 0.984 . S
H485 N478 0.984 . S
H486 N474 0.984 . S
H487 N474 0.985 . S
C488 C489 1.363 . S
C488 C494 1.379 . S
C488 N496 1.356 . S
C489 C488 1.363 . S
C489 C495 1.363 1_556 S
C490 C491 1.363 . S
C490 C495 1.379 1_556 S
C490 N497 1.356 1_556 S
C491 C490 1.363 . S
C491 C494 1.363 . S
N492 C494 1.356 . S
N492 H504 0.984 . S
N492 H505 0.985 . S
N493 C495 1.356 . S
N493 H498 0.984 . S
N493 H499 0.985 . S
C494 C488 1.379 . S
C494 C491 1.363 . S
C494 N492 1.356 . S
C495 C489 1.363 1_554 S
C495 C490 1.379 1_554 S
C495 N493 1.356 . S
N496 C488 1.356 . S
N496 H502 0.984 . S
N496 H503 0.984 . S
N497 C490 1.356 1_554 S
N497 H500 0.984 1_554 S
N497 H501 0.985 . S
H498 N493 0.984 . S
H499 N493 0.985 . S
H500 N497 0.984 1_556 S
H501 N497 0.985 . S
H502 N496 0.984 . S
H503 N496 0.984 . S
H504 N492 0.984 . S
H505 N492 0.985 . S
C506 C507 1.363 . S
C506 C512 1.379 . S
C506 N514 1.356 . S
C507 C506 1.363 . S
C507 C513 1.363 . S
C508 C509 1.363 . S
C508 C513 1.379 . S
C508 N515 1.356 . S
C509 C508 1.363 . S
C509 C512 1.363 . S
N510 C512 1.356 . S
N510 H522 0.984 . S
N510 H523 0.985 . S
N511 C513 1.356 . S
N511 H516 0.984 . S
N511 H517 0.985 . S
C512 C506 1.379 . S
C512 C509 1.363 . S
C512 N510 1.356 . S
C513 C507 1.363 . S
C513 C508 1.379 . S
C513 N511 1.356 . S
N514 C506 1.356 . S
N514 H520 0.984 . S
N514 H521 0.984 . S
N515 C508 1.356 . S
N515 H518 0.984 . S
N515 H519 0.985 . S
H516 N511 0.984 . S
H517 N511 0.985 . S
H518 N515 0.984 . S
H519 N515 0.985 . S
H520 N514 0.984 . S
H521 N514 0.984 . S
H522 N510 0.984 . S
H523 N510 0.985 . S
C524 C525 1.363 . S
C524 C530 1.379 1_554 S
C524 N532 1.356 1_554 S
C525 C524 1.363 . S
C525 C531 1.363 . S
C526 C527 1.363 . S
C526 C531 1.379 . S
C526 N533 1.356 . S
C527 C526 1.363 . S
C527 C530 1.363 1_554 S
N528 C530 1.356 . S
N528 H540 0.984 . S
N528 H541 0.985 . S
N529 C531 1.356 . S
N529 H534 0.984 . S
N529 H535 0.985 . S
C530 C524 1.379 1_556 S
C530 C527 1.363 1_556 S
C530 N528 1.356 . S
C531 C525 1.363 . S
C531 C526 1.379 . S
C531 N529 1.356 . S
N532 C524 1.356 1_556 S
N532 H538 0.984 . S
N532 H539 0.984 1_556 S
N533 C526 1.356 . S
N533 H536 0.984 . S
N533 H537 0.985 . S
H534 N529 0.984 . S
H535 N529 0.985 . S
H536 N533 0.984 . S
H537 N533 0.985 . S
H538 N532 0.984 . S
H539 N532 0.984 1_554 S
H540 N528 0.984 . S
H541 N528 0.985 . S
C542 C543 1.363 . S
C542 C548 1.379 . S
C542 N550 1.356 . S
C543 C542 1.363 . S
C543 C549 1.363 . S
C544 C545 1.363 . S
C544 C549 1.379 . S
C544 N551 1.356 . S
C545 C544 1.363 . S
C545 C548 1.363 . S
N546 C548 1.356 . S
N546 H558 0.984 . S
N546 H559 0.985 . S
N547 C549 1.356 . S
N547 H552 0.984 . S
N547 H553 0.985 . S
C548 C542 1.379 . S
C548 C545 1.363 . S
C548 N546 1.356 . S
C549 C543 1.363 . S
C549 C544 1.379 . S
C549 N547 1.356 . S
N550 C542 1.356 . S
N550 H556 0.984 . S
N550 H557 0.984 . S
N551 C544 1.356 . S
N551 H554 0.984 . S
N551 H555 0.985 . S
H552 N547 0.984 . S
H553 N547 0.985 . S
H554 N551 0.984 . S
H555 N551 0.985 . S
H556 N550 0.984 . S
H557 N550 0.984 . S
H558 N546 0.984 . S
H559 N546 0.985 . S
C560 C561 1.363 . S
C560 C566 1.379 1_556 S
C560 N568 1.356 1_556 S
C561 C560 1.363 . S
C561 C567 1.363 . S
C562 C563 1.363 . S
C562 C567 1.379 . S
C562 N569 1.356 . S
C563 C562 1.363 . S
C563 C566 1.363 1_556 S
N564 C566 1.356 . S
N564 H576 0.984 . S
N564 H577 0.985 . S
N565 C567 1.356 . S
N565 H570 0.984 . S
N565 H571 0.985 . S
C566 C560 1.379 1_554 S
C566 C563 1.363 1_554 S
C566 N564 1.356 . S
C567 C561 1.363 . S
C567 C562 1.379 . S
C567 N565 1.356 . S
N568 C560 1.356 1_554 S
N568 H574 0.984 . S
N568 H575 0.984 1_554 S
N569 C562 1.356 . S
N569 H572 0.984 . S
N569 H573 0.985 . S
H570 N565 0.984 . S
H571 N565 0.985 . S
H572 N569 0.984 . S
H573 N569 0.985 . S
H574 N568 0.984 . S
H575 N568 0.984 1_556 S
H576 N564 0.984 . S
H577 N564 0.985 . S
C578 C579 1.363 . S
C578 C584 1.379 . S
C578 N586 1.356 . S
C579 C578 1.363 . S
C579 C585 1.363 . S
C580 C581 1.363 . S
C580 C585 1.379 . S
C580 N587 1.356 . S
C581 C580 1.363 . S
C581 C584 1.363 . S
N582 C584 1.356 . S
N582 H594 0.984 . S
N582 H595 0.985 . S
N583 C585 1.356 . S
N583 H588 0.984 . S
N583 H589 0.985 . S
C584 C578 1.379 . S
C584 C581 1.363 . S
C584 N582 1.356 . S
C585 C579 1.363 . S
C585 C580 1.379 . S
C585 N583 1.356 . S
N586 C578 1.356 . S
N586 H592 0.984 . S
N586 H593 0.984 . S
N587 C580 1.356 . S
N587 H590 0.984 . S
N587 H591 0.985 . S
H588 N583 0.984 . S
H589 N583 0.985 . S
H590 N587 0.984 . S
H591 N587 0.985 . S
H592 N586 0.984 . S
H593 N586 0.984 . S
H594 N582 0.984 . S
H595 N582 0.985 . S
C596 C597 1.363 . S
C596 C602 1.379 . S
C596 N604 1.356 . S
C597 C596 1.363 . S
C597 C603 1.363 . S
C598 C599 1.363 . S
C598 C603 1.379 . S
C598 N605 1.356 1_554 S
C599 C598 1.363 . S
C599 C602 1.363 . S
N600 C602 1.356 . S
N600 H612 0.984 . S
N600 H613 0.985 . S
N601 C603 1.356 . S
N601 H606 0.984 . S
N601 H607 0.985 1_554 S
C602 C596 1.379 . S
C602 C599 1.363 . S
C602 N600 1.356 . S
C603 C597 1.363 . S
C603 C598 1.379 . S
C603 N601 1.356 . S
N604 C596 1.356 . S
N604 H610 0.984 . S
N604 H611 0.984 . S
N605 C598 1.356 1_556 S
N605 H608 0.984 . S
N605 H609 0.985 . S
H606 N601 0.984 . S
H607 N601 0.985 1_556 S
H608 N605 0.984 . S
H609 N605 0.985 . S
H610 N604 0.984 . S
H611 N604 0.984 . S
H612 N600 0.984 . S
H613 N600 0.985 . S
C614 C615 1.363 . S
C614 C620 1.379 . S
C614 N622 1.356 . S
C615 C614 1.363 . S
C615 C621 1.363 . S
C616 C617 1.363 . S
C616 C621 1.379 . S
C616 N623 1.356 . S
C617 C616 1.363 . S
C617 C620 1.363 . S
N618 C620 1.356 . S
N618 H630 0.984 . S
N618 H631 0.985 . S
N619 C621 1.356 . S
N619 H624 0.984 . S
N619 H625 0.985 . S
C620 C614 1.379 . S
C620 C617 1.363 . S
C620 N618 1.356 . S
C621 C615 1.363 . S
C621 C616 1.379 . S
C621 N619 1.356 . S
N622 C614 1.356 . S
N622 H628 0.984 . S
N622 H629 0.984 . S
N623 C616 1.356 . S
N623 H626 0.984 . S
N623 H627 0.985 . S
H624 N619 0.984 . S
H625 N619 0.985 . S
H626 N623 0.984 . S
H627 N623 0.985 . S
H628 N622 0.984 . S
H629 N622 0.984 . S
H630 N618 0.984 . S
H631 N618 0.985 . S
C632 C633 1.363 . S
C632 C638 1.379 . S
C632 N640 1.356 . S
C633 C632 1.363 . S
C633 C639 1.363 . S
C634 C635 1.363 . S
C634 C639 1.379 . S
C634 N641 1.356 . S
C635 C634 1.363 . S
C635 C638 1.363 . S
N636 C638 1.356 . S
N636 H648 0.984 . S
N636 H649 0.985 . S
N637 C639 1.356 . S
N637 H642 0.984 . S
N637 H643 0.985 . S
C638 C632 1.379 . S
C638 C635 1.363 . S
C638 N636 1.356 . S
C639 C633 1.363 . S
C639 C634 1.379 . S
C639 N637 1.356 . S
N640 C632 1.356 . S
N640 H646 0.984 . S
N640 H647 0.984 . S
N641 C634 1.356 . S
N641 H644 0.984 . S
N641 H645 0.985 . S
H642 N637 0.984 . S
H643 N637 0.985 . S
H644 N641 0.984 . S
H645 N641 0.985 . S
H646 N640 0.984 . S
H647 N640 0.984 . S
H648 N636 0.984 . S
H649 N636 0.985 . S
C650 C651 1.363 . S
C650 C656 1.379 . S
C650 N658 1.356 . S
C651 C650 1.363 . S
C651 C657 1.363 . S
C652 C653 1.363 . S
C652 C657 1.379 . S
C652 N659 1.356 1_554 S
C653 C652 1.363 . S
C653 C656 1.363 . S
N654 C656 1.356 . S
N654 H666 0.984 . S
N654 H667 0.985 1_554 S
N655 C657 1.356 . S
N655 H660 0.984 . S
N655 H661 0.985 . S
C656 C650 1.379 . S
C656 C653 1.363 . S
C656 N654 1.356 . S
C657 C651 1.363 . S
C657 C652 1.379 . S
C657 N655 1.356 . S
N658 C650 1.356 . S
N658 H664 0.984 . S
N658 H665 0.984 . S
N659 C652 1.356 1_556 S
N659 H662 0.984 . S
N659 H663 0.985 . S
H660 N655 0.984 . S
H661 N655 0.985 . S
H662 N659 0.984 . S
H663 N659 0.985 . S
H664 N658 0.984 . S
H665 N658 0.984 . S
H666 N654 0.984 . S
H667 N654 0.985 1_556 S
C668 C669 1.363 . S
C668 C674 1.379 . S
C668 N676 1.356 . S
C669 C668 1.363 . S
C669 C675 1.363 . S
C670 C671 1.363 . S
C670 C675 1.379 . S
C670 N677 1.356 . S
C671 C670 1.363 . S
C671 C674 1.363 . S
N672 C674 1.356 . S
N672 H684 0.984 . S
N672 H685 0.985 . S
N673 C675 1.356 . S
N673 H678 0.984 . S
N673 H679 0.985 . S
C674 C668 1.379 . S
C674 C671 1.363 . S
C674 N672 1.356 . S
C675 C669 1.363 . S
C675 C670 1.379 . S
C675 N673 1.356 . S
N676 C668 1.356 . S
N676 H682 0.984 . S
N676 H683 0.984 . S
N677 C670 1.356 . S
N677 H680 0.984 . S
N677 H681 0.985 . S
H678 N673 0.984 . S
H679 N673 0.985 . S
H680 N677 0.984 . S
H681 N677 0.985 . S
H682 N676 0.984 . S
H683 N676 0.984 . S
H684 N672 0.984 . S
H685 N672 0.985 . S
C686 C687 1.363 . S
C686 C692 1.379 . S
C686 N694 1.356 . S
C687 C686 1.363 . S
C687 C693 1.363 . S
C688 C689 1.363 . S
C688 C693 1.379 . S
C688 N695 1.356 . S
C689 C688 1.363 . S
C689 C692 1.363 . S
N690 C692 1.356 1_554 S
N690 H702 0.984 . S
N690 H703 0.985 . S
N691 C693 1.356 . S
N691 H696 0.984 . S
N691 H697 0.985 . S
C692 C686 1.379 . S
C692 C689 1.363 . S
C692 N690 1.356 1_556 S
C693 C687 1.363 . S
C693 C688 1.379 . S
C693 N691 1.356 . S
N694 C686 1.356 . S
N694 H700 0.984 . S
N694 H701 0.984 . S
N695 C688 1.356 . S
N695 H698 0.984 1_556 S
N695 H699 0.985 . S
H696 N691 0.984 . S
H697 N691 0.985 . S
H698 N695 0.984 1_554 S
H699 N695 0.985 . S
H700 N694 0.984 . S
H701 N694 0.984 . S
H702 N690 0.984 . S
H703 N690 0.985 . S
C704 C705 1.363 . S
C704 C710 1.379 . S
C704 N712 1.356 . S
C705 C704 1.363 . S
C705 C711 1.363 . S
C706 C707 1.363 . S
C706 C711 1.379 . S
C706 N713 1.356 . S
C707 C706 1.363 . S
C707 C710 1.363 . S
N708 C710 1.356 . S
N708 H720 0.984 . S
N708 H721 0.985 . S
N709 C711 1.356 . S
N709 H714 0.984 . S
N709 H715 0.985 . S
C710 C704 1.379 . S
C710 C707 1.363 . S
C710 N708 1.356 . S
C711 C705 1.363 . S
C711 C706 1.379 . S
C711 N709 1.356 . S
N712 C704 1.356 . S
N712 H718 0.984 . S
N712 H719 0.984 . S
N713 C706 1.356 . S
N713 H716 0.984 . S
N713 H717 0.985 . S
H714 N709 0.984 . S
H715 N709 0.985 . S
H716 N713 0.984 . S
H717 N713 0.985 . S
H718 N712 0.984 . S
H719 N712 0.984 . S
H720 N708 0.984 . S
H721 N708 0.985 . S
C722 C723 1.363 . S
C722 C728 1.379 . S
C722 N730 1.356 . S
C723 C722 1.363 . S
C723 C729 1.363 . S
C724 C725 1.363 . S
C724 C729 1.379 . S
C724 N731 1.356 1_554 S
C725 C724 1.363 . S
C725 C728 1.363 . S
N726 C728 1.356 . S
N726 H738 0.984 . S
N726 H739 0.985 1_554 S
N727 C729 1.356 . S
N727 H732 0.984 . S
N727 H733 0.985 1_455 S
C728 C722 1.379 . S
C728 C725 1.363 . S
C728 N726 1.356 . S
C729 C723 1.363 . S
C729 C724 1.379 . S
C729 N727 1.356 . S
N730 C722 1.356 . S
N730 H736 0.984 . S
N730 H737 0.984 . S
N731 C724 1.356 1_556 S
N731 H734 0.984 . S
N731 H735 0.985 . S
H732 N727 0.984 . S
H733 N727 0.985 1_655 S
H734 N731 0.984 . S
H735 N731 0.985 . S
H736 N730 0.984 . S
H737 N730 0.984 . S
H738 N726 0.984 . S
H739 N726 0.985 1_556 S
C740 C741 1.363 . S
C740 C746 1.379 . S
C740 N748 1.356 . S
C741 C740 1.363 . S
C741 C747 1.363 . S
C742 C743 1.363 . S
C742 C747 1.379 . S
C742 N749 1.356 . S
C743 C742 1.363 . S
C743 C746 1.363 . S
N744 C746 1.356 . S
N744 H756 0.984 . S
N744 H757 0.985 . S
N745 C747 1.356 . S
N745 H750 0.984 . S
N745 H751 0.985 . S
C746 C740 1.379 . S
C746 C743 1.363 . S
C746 N744 1.356 . S
C747 C741 1.363 . S
C747 C742 1.379 . S
C747 N745 1.356 . S
N748 C740 1.356 . S
N748 H754 0.984 . S
N748 H755 0.984 . S
N749 C742 1.356 . S
N749 H752 0.984 . S
N749 H753 0.985 . S
H750 N745 0.984 . S
H751 N745 0.985 . S
H752 N749 0.984 . S
H753 N749 0.985 . S
H754 N748 0.984 . S
H755 N748 0.984 . S
H756 N744 0.984 . S
H757 N744 0.985 . S
C758 C759 1.363 . S
C758 C764 1.379 . S
C758 N766 1.356 1_455 S
C759 C758 1.363 . S
C759 C765 1.363 . S
C760 C761 1.363 . S
C760 C765 1.379 . S
C760 N767 1.356 . S
C761 C760 1.363 . S
C761 C764 1.363 . S
N762 C764 1.356 1_554 S
N762 H774 0.984 1_455 S
N762 H775 0.985 . S
N763 C765 1.356 . S
N763 H768 0.984 . S
N763 H769 0.985 . S
C764 C758 1.379 . S
C764 C761 1.363 . S
C764 N762 1.356 1_556 S
C765 C759 1.363 . S
C765 C760 1.379 . S
C765 N763 1.356 . S
N766 C758 1.356 1_655 S
N766 H772 0.984 . S
N766 H773 0.984 . S
N767 C760 1.356 . S
N767 H770 0.984 1_556 S
N767 H771 0.985 . S
H768 N763 0.984 . S
H769 N763 0.985 . S
H770 N767 0.984 1_554 S
H771 N767 0.985 . S
H772 N766 0.984 . S
H773 N766 0.984 . S
H774 N762 0.984 1_655 S
H775 N762 0.985 . S
C273 C124 0.995 . S
C275 C15 0.995 . S
C291 C90 0.995 . S
C293 C49 0.995 . S
C309 C56 2.369 . S
C311 C83 2.369 . S
C327 C22 2.369 . S
C329 C117 2.369 . S
C345 C151 0.995 . S
C347 C260 0.995 . S
C363 C185 0.995 . S
C365 C226 0.995 . S
C381 C192 2.369 . S
C383 C219 2.368 . S
C399 C158 2.368 . S
C401 C253 2.369 . S
C417 C74 1.508 . S
C419 C28 1.508 . S
C435 C108 1.508 . S
C437 C62 1.508 . S
C453 C210 1.508 . S
C455 C164 1.508 . S
C471 C244 1.508 . S
C473 C198 1.508 . S
C489 C1 1.274 . S
C491 C176 1.343 . S
C507 C35 1.274 . S
C509 C142 1.343 . S
C525 C266 1.343 . S
C527 C71 1.274 . S
C543 C232 1.343 . S
C545 C105 1.274 . S
C561 C40 1.343 . S
C563 C137 1.274 . S
C579 C6 1.343 . S
C581 C171 1.274 . S
C597 C130 1.343 . S
C599 C207 1.274 . S
C615 C96 1.343 . S
C617 C241 1.274 . S
C633 C3 1.576 . S
C635 C17 1.726 . S
C651 C37 1.576 . S
C653 C51 1.726 1_554 S
C669 C69 1.576 . S
C671 C85 1.726 . S
C687 C103 1.576 . S
C689 C119 1.726 1_556 S
C705 C139 1.576 . S
C707 C153 1.726 . S
C723 C173 1.576 . S
C725 C187 1.726 1_554 S
C741 C205 1.576 . S
C743 C221 1.726 . S
C759 C239 1.576 . S
C761 C255 1.726 1_556 S
