# Generated by pormake.
# Topology umf, (4)-cn, num edge types: 1
# Building blocks:
#     Node 0, Type 0, BuildingBlock: KOZSID_clean_sbu_0, # of connection points: 4
#     Node 1, Type 0, BuildingBlock: KOZSID_clean_sbu_0, # of connection points: 4
#     Node 2, Type 0, BuildingBlock: KOZSID_clean_sbu_0, # of connection points: 4
#     Node 3, Type 0, BuildingBlock: KOZSID_clean_sbu_0, # of connection points: 4
#     Node 4, Type 0, BuildingBlock: KOZSID_clean_sbu_0, # of connection points: 4
#     Node 5, Type 0, BuildingBlock: KOZSID_clean_sbu_0, # of connection points: 4
#     Node 6, Type 0, BuildingBlock: KOZSID_clean_sbu_0, # of connection points: 4
#     Node 7, Type 0, BuildingBlock: KOZSID_clean_sbu_0, # of connection points: 4
#     Edge 8, Type (0, 0), BuildingBlock: OJICUG_clean_linker_0, # of connection points: 2
#     Edge 9, Type (0, 0), BuildingBlock: OJICUG_clean_linker_0, # of connection points: 2
#     Edge 10, Type (0, 0), BuildingBlock: OJICUG_clean_linker_0, # of connection points: 2
#     Edge 11, Type (0, 0), BuildingBlock: OJICUG_clean_linker_0, # of connection points: 2
#     Edge 12, Type (0, 0), BuildingBlock: OJICUG_clean_linker_0, # of connection points: 2
#     Edge 13, Type (0, 0), BuildingBlock: OJICUG_clean_linker_0, # of connection points: 2
#     Edge 14, Type (0, 0), BuildingBlock: OJICUG_clean_linker_0, # of connection points: 2
#     Edge 15, Type (0, 0), BuildingBlock: OJICUG_clean_linker_0, # of connection points: 2
#     Edge 16, Type (0, 0), BuildingBlock: OJICUG_clean_linker_0, # of connection points: 2
#     Edge 17, Type (0, 0), BuildingBlock: OJICUG_clean_linker_0, # of connection points: 2
#     Edge 18, Type (0, 0), BuildingBlock: OJICUG_clean_linker_0, # of connection points: 2
#     Edge 19, Type (0, 0), BuildingBlock: OJICUG_clean_linker_0, # of connection points: 2
#     Edge 20, Type (0, 0), BuildingBlock: OJICUG_clean_linker_0, # of connection points: 2
#     Edge 21, Type (0, 0), BuildingBlock: OJICUG_clean_linker_0, # of connection points: 2
#     Edge 22, Type (0, 0), BuildingBlock: OJICUG_clean_linker_0, # of connection points: 2
#     Edge 23, Type (0, 0), BuildingBlock: OJICUG_clean_linker_0, # of connection points: 2
# Relax obj value: 0.081
# Max RMSD: 0.195
# Mean RMSD: 0.195
data_MOF--net-umf--node1-KOZSID_clean_sbu_0--edge1-OJICUG_clean_linker_0
_symmetry_space_group_name_H-M    P1
_symmetry_Int_Tables_number       1
_symmetry_cell_setting            triclinic
loop_
_symmetry_equiv_pos_as_xyz
'x, y, z'
_cell_length_a     29.853028
_cell_length_b     29.842871
_cell_length_c     44.149761
_cell_angle_alpha  90.00012
_cell_angle_beta   90.086443
_cell_angle_gamma 90.000161
loop_
_atom_site_label
_atom_site_type_symbol
_atom_site_fract_x
_atom_site_fract_y
_atom_site_fract_z
_atom_type_partial_charge
C0 C 0.13409 0.2356 0.19231 0.0
C1 C 0.17907 0.24092 0.19948 0.0
C2 C 0.19806 0.26414 0.17593 0.0
C3 C 0.16366 0.27209 0.15592 0.0
N4 N 0.12429 0.2557 0.16565 0.0
Co5 Co 0.06631 0.26106 0.14436 0.0
N6 N 0.09673 0.26683 0.10476 0.0
C7 C 0.13974 0.27905 0.10066 0.0
C8 C 0.15179 0.28033 0.0707 0.0
C9 C 0.11385 0.2688 0.05502 0.0
C10 C 0.08047 0.26134 0.07639 0.0
N11 N 1.00868 0.26785 0.12297 0.0
C12 C 0.99932 0.26509 0.0929 0.0
C13 C 0.95444 0.27454 0.08779 0.0
C14 C 0.93564 0.28362 0.11569 0.0
C15 C 0.96995 0.27946 0.13637 0.0
N16 N 0.03818 0.25273 0.18456 0.0
C17 C 0.99583 0.26372 0.19157 0.0
C18 C 0.98418 0.24809 0.21985 0.0
C19 C 0.02149 0.22594 0.23092 0.0
C20 C 0.05439 0.22928 0.2089 0.0
N21 N 0.06578 0.32817 0.14924 0.0
C22 C 0.03531 0.41924 0.15371 0.0
C23 C 0.04683 0.39391 0.17966 0.0
C24 C 0.06224 0.34887 0.17695 0.0
C25 C 0.04365 0.39861 0.12569 0.0
C26 C 0.05831 0.35397 0.12395 0.0
N27 N 0.06185 0.19542 0.13891 0.0
C28 C 1.01197 0.13165 0.13833 0.0
C29 C 0.04642 0.10326 0.12957 0.0
C30 C 0.08965 0.12162 0.12603 0.0
C31 C 0.09656 0.16821 0.13039 0.0
C32 C 0.02038 0.17676 0.14325 0.0
H33 H 0.12957 0.18221 0.12696 0.0
H34 H 0.99249 0.1964 0.15066 0.0
H35 H 0.06877 0.33016 0.19743 0.0
H36 H 0.06018 0.33983 0.10163 0.0
C37 C 0.16895 0.28341 0.12537 0.0
C38 C 0.10138 0.2119 0.21131 0.0
C39 C 0.03279 0.25601 0.06889 0.0
C40 C 0.96606 0.27781 0.16838 0.0
H41 H 0.1965 0.22849 0.21929 0.0
H42 H 0.23327 0.27145 0.17284 0.0
H43 H 0.18442 0.28794 0.06137 0.0
H44 H 0.11084 0.26752 0.03061 0.0
H45 H 0.93719 0.27485 0.06621 0.0
H46 H 0.90078 0.29072 0.12036 0.0
H47 H 0.95147 0.24961 0.23033 0.0
H48 H 0.02352 0.20849 0.25232 0.0
H49 H 0.04202 0.40785 0.20205 0.0
H50 H 0.03752 0.41634 0.1047 0.0
H51 H 0.97845 0.1188 0.14207 0.0
H52 H 0.1175 0.10039 0.1197 0.0
C53 C 0.79807 0.14537 0.69305 0.0
C54 C 0.79314 0.18956 0.70226 0.0
C55 C 0.76898 0.2108 0.68002 0.0
C56 C 0.76016 0.17841 0.6587 0.0
N57 N 0.77685 0.13817 0.66642 0.0
Co58 Co 0.77072 0.08234 0.64278 0.0
N59 N 0.76359 0.11654 0.60466 0.0
C60 C 0.75149 0.15993 0.6026 0.0
C61 C 0.74914 0.17485 0.57326 0.0
C62 C 0.75979 0.13842 0.55579 0.0
C63 C 0.76776 0.103 0.57555 0.0
N64 N 0.76289 0.02687 0.6191 0.0
C65 C 0.76436 0.02039 0.58865 0.0
C66 C 0.75454 0.97609 0.58182 0.0
C67 C 0.74655 0.95466 0.60902 0.0
C68 C 0.75167 0.98694 0.63103 0.0
N69 N 0.78067 0.05041 0.68151 0.0
C70 C 0.77011 1.00742 0.68688 0.0
C71 C 0.7872 0.99309 0.71424 0.0
C72 C 0.80991 0.02933 0.72639 0.0
C73 C 0.80545 0.06426 0.70592 0.0
N74 N 0.70382 0.08134 0.64869 0.0
C75 C 0.61293 0.05042 0.65325 0.0
C76 C 0.63928 0.05919 0.67924 0.0
C77 C 0.6842 0.07486 0.67651 0.0
C78 C 0.63247 0.06168 0.62536 0.0
C79 C 0.67704 0.07652 0.62356 0.0
N80 N 0.83622 0.07836 0.63627 0.0
C81 C 0.9 0.02866 0.63324 0.0
C82 C 0.92882 0.06428 0.62792 0.0
C83 C 0.91055 0.10788 0.62706 0.0
C84 C 0.86376 0.11416 0.63079 0.0
C85 C 0.85473 0.03636 0.63781 0.0
H86 H 0.84996 0.14761 0.62963 0.0
H87 H 0.83502 1.00749 0.64312 0.0
H88 H 0.70371 0.07923 0.69692 0.0
H89 H 0.69029 0.08074 0.60115 0.0
C90 C 0.74796 0.18669 0.62859 0.0
C91 C 0.82297 0.11099 0.70989 0.0
C92 C 0.77237 0.05611 0.56595 0.0
C93 C 0.75487 0.97994 0.66276 0.0
H94 H 0.80659 0.20505 0.7225 0.0
H95 H 0.76173 0.24627 0.67855 0.0
H96 H 0.74136 0.20835 0.56547 0.0
H97 H 0.76015 0.13775 0.53129 0.0
H98 H 0.75324 0.96093 0.55957 0.0
H99 H 0.73958 0.91942 0.61231 0.0
H100 H 0.78623 0.95942 0.72331 0.0
H101 H 0.82841 0.02937 0.74744 0.0
H102 H 0.62621 0.05204 0.70158 0.0
H103 H 0.61393 0.05776 0.60444 0.0
H104 H 0.9127 0.99471 0.63492 0.0
H105 H 0.93207 0.13658 0.62344 0.0
C106 C 0.86989 0.79887 0.17952 0.0
C107 C 0.824 0.80723 0.1787 0.0
C108 C 0.80734 0.78589 0.15379 0.0
C109 C 0.84374 0.76711 0.13991 0.0
N110 N 0.88247 0.77521 0.15468 0.0
Co111 Co 0.94345 0.76247 0.13903 0.0
N112 N 0.92104 0.76017 0.09676 0.0
C113 C 0.87832 0.753 0.0883 0.0
C114 C 0.87243 0.75263 0.05752 0.0
C115 C 0.91421 0.75943 0.04579 0.0
C116 C 0.9434 0.76341 0.07027 0.0
N117 N 1.00377 0.749 0.12311 0.0
C118 C 0.01938 0.75074 0.0942 0.0
C119 C 0.06348 0.73621 0.09319 0.0
C120 C 0.0753 0.72485 0.12246 0.0
C121 C 0.03786 0.73287 0.13981 0.0
N122 N 0.964 0.76697 0.18158 0.0
C123 C 1.00269 0.75022 0.19228 0.0
C124 C 1.00887 0.76054 0.22241 0.0
C125 C 0.97179 0.78531 0.23085 0.0
C126 C 0.94482 0.78914 0.2054 0.0
N127 N 0.93541 0.69577 0.14327 0.0
C128 C 0.95795 0.6029 0.15048 0.0
C129 C 0.94404 0.62945 0.17521 0.0
C130 C 0.93203 0.6752 0.17105 0.0
C131 C 0.9568 0.62356 0.12194 0.0
C132 C 0.94573 0.66913 0.11885 0.0
N133 N 0.95667 0.82722 0.13492 0.0
C134 C 1.01285 0.88471 0.14143 0.0
C135 C 0.98439 0.91786 0.13016 0.0
C136 C 0.94119 0.90413 0.12063 0.0
C137 C 0.92804 0.85852 0.12307 0.0
C138 C 0.99837 0.84076 0.14407 0.0
H139 H 0.89503 0.84858 0.11555 0.0
H140 H 0.02192 0.81764 0.15357 0.0
H141 H 0.92267 0.69447 0.19076 0.0
H142 H 0.94955 0.68318 0.09661 0.0
C143 C 0.84397 0.75474 0.1095 0.0
C144 C 0.90004 0.81159 0.20479 0.0
C145 C 0.99227 0.76367 0.06743 0.0
C146 C 0.0352 0.73325 0.17189 0.0
H147 H 0.8042 0.82783 0.19367 0.0
H148 H 0.77339 0.78782 0.14521 0.0
H149 H 0.84134 0.74925 0.04509 0.0
H150 H 0.92226 0.76016 0.02191 0.0
H151 H 0.08471 0.73396 0.07341 0.0
H152 H 0.1078 0.71357 0.13023 0.0
H153 H 0.03784 0.75297 0.23626 0.0
H154 H 0.96549 0.79925 0.25307 0.0
H155 H 0.94307 0.61525 0.19776 0.0
H156 H 0.96716 0.60536 0.10192 0.0
H157 H 0.04693 0.8922 0.14813 0.0
H158 H 0.91757 0.92828 0.11172 0.0
C159 C 0.23445 0.88229 0.67721 0.0
C160 C 0.22606 0.83657 0.67445 0.0
C161 C 0.24681 0.8224 0.64865 0.0
C162 C 0.26521 0.86012 0.6362 0.0
N163 N 0.25733 0.89735 0.65268 0.0
Co164 Co 0.269 0.95979 0.63937 0.0
N165 N 0.27044 0.94128 0.59627 0.0
C166 C 0.2783 0.89955 0.58605 0.0
C167 C 0.27825 0.8965 0.55509 0.0
C168 C 0.27035 0.93913 0.54514 0.0
C169 C 0.26605 0.96595 0.5708 0.0
N170 N 0.28107 0.02165 0.62575 0.0
C171 C 0.27772 0.0399 0.59759 0.0
C172 C 0.29133 0.08431 0.59818 0.0
C173 C 0.30373 0.09362 0.62768 0.0
C174 C 0.29719 0.05446 0.64355 0.0
N175 N 0.2657 0.97637 0.68274 0.0
C176 C 0.28258 1.01417 0.69474 0.0
C177 C 0.27357 0.01737 0.72525 0.0
C178 C 0.24958 0.97927 0.73258 0.0
C179 C 0.24484 0.95469 0.70611 0.0
N180 N 0.33588 0.95218 0.64247 0.0
C181 C 0.42899 0.97392 0.64938 0.0
C182 C 0.40327 0.95738 0.67376 0.0
C183 C 0.35736 0.94586 0.66971 0.0
C184 C 0.40731 0.97599 0.62119 0.0
C185 C 0.36164 0.96532 0.61826 0.0
N186 N 0.20405 0.97256 0.63643 0.0
C187 C 0.14622 0.02762 0.64537 0.0
C188 C 0.11373 1.00112 0.63134 0.0
C189 C 0.12789 0.95933 0.61954 0.0
C190 C 0.17331 0.94573 0.62223 0.0
C191 C 0.19006 1.01273 0.64802 0.0
H192 H 0.18363 0.91397 0.61276 0.0
H193 H 0.21288 0.03497 0.65917 0.0
H194 H 0.33875 0.93437 0.68918 0.0
H195 H 0.34682 0.97161 0.59649 0.0
C196 C 0.27718 0.86327 0.6058 0.0
C197 C 0.22287 0.90976 0.70408 0.0
C198 C 0.26404 1.01501 0.57 0.0
C199 C 0.29821 0.04879 0.67545 0.0
H200 H 0.20588 0.8153 0.68875 0.0
H201 H 0.24478 0.78932 0.63867 0.0
H202 H 0.28197 0.86666 0.54139 0.0
H203 H 0.26902 0.94928 0.52163 0.0
H204 H 0.29226 0.10742 0.5793 0.0
H205 H 0.31467 0.12558 0.63659 0.0
H206 H 0.28148 0.04507 0.74015 0.0
H207 H 0.23678 0.97071 0.75475 0.0
H208 H 0.41825 0.95394 0.69598 0.0
H209 H 0.42482 0.98854 0.60147 0.0
H210 H 0.13844 0.06066 0.65399 0.0
H211 H 0.10424 0.93719 0.60852 0.0
C212 C 0.16281 0.79889 0.82857 0.0
C213 C 0.2087 0.80725 0.82939 0.0
C214 C 0.22536 0.78592 0.85431 0.0
C215 C 0.18896 0.76713 0.86818 0.0
N216 N 0.15023 0.77524 0.85341 0.0
Co217 Co 0.08925 0.76249 0.86906 0.0
N218 N 0.11165 0.76019 0.91133 0.0
C219 C 0.15438 0.75303 0.91979 0.0
C220 C 0.16026 0.75267 0.95057 0.0
C221 C 0.11848 0.75946 0.9623 0.0
C222 C 0.08929 0.76343 0.93782 0.0
N223 N 0.02893 0.74901 0.88498 0.0
C224 C 1.01331 0.75075 0.91388 0.0
C225 C 0.96922 0.73622 0.91489 0.0
C226 C 0.95739 0.72486 0.88562 0.0
C227 C 0.99484 0.73288 0.86828 0.0
N228 N 0.06871 0.76699 0.8265 0.0
C229 C 0.03001 0.75023 0.81581 0.0
C230 C 0.02384 0.76055 0.78568 0.0
C231 C 0.06091 0.78532 0.77723 0.0
C232 C 0.08789 0.78916 0.80269 0.0
N233 N 0.09729 0.69579 0.86482 0.0
C234 C 0.07475 0.60291 0.85761 0.0
C235 C 0.08866 0.62947 0.83289 0.0
C236 C 0.10068 0.67522 0.83704 0.0
C237 C 0.0759 0.62358 0.88616 0.0
C238 C 0.08697 0.66915 0.88924 0.0
N239 N 0.07603 0.82724 0.87317 0.0
C240 C 0.01984 0.88473 0.86666 0.0
C241 C 0.0483 0.91787 0.87793 0.0
C242 C 0.0915 0.90415 0.88746 0.0
C243 C 0.10465 0.85854 0.88502 0.0
C244 C 0.03433 0.84077 0.86402 0.0
H245 H 0.13766 0.8486 0.89254 0.0
H246 H 1.01078 0.81766 0.85451 0.0
H247 H 0.11003 0.69449 0.81733 0.0
H248 H 0.08315 0.6832 0.91148 0.0
C249 C 0.18873 0.75477 0.89859 0.0
C250 C 0.13266 0.81161 0.8033 0.0
C251 C 0.04042 0.76369 0.94066 0.0
C252 C 0.9975 0.73327 0.8362 0.0
H253 H 0.2285 0.82785 0.81442 0.0
H254 H 0.2593 0.78785 0.86288 0.0
H255 H 0.19135 0.74929 0.963 0.0
H256 H 0.11043 0.76019 0.98618 0.0
H257 H 0.94798 0.73397 0.93468 0.0
H258 H 0.9249 0.71359 0.87785 0.0
H259 H 0.99487 0.75298 0.77183 0.0
H260 H 0.06721 0.79926 0.75502 0.0
H261 H 0.08963 0.61526 0.81033 0.0
H262 H 0.06554 0.60538 0.90618 0.0
H263 H 0.98577 0.89221 0.85995 0.0
H264 H 0.11512 0.9283 0.89637 0.0
C265 C 0.23465 0.14536 0.31505 0.0
C266 C 0.23959 0.18956 0.30583 0.0
C267 C 0.26375 0.2108 0.32808 0.0
C268 C 0.27257 0.17841 0.3494 0.0
N269 N 0.25587 0.13817 0.34167 0.0
Co270 Co 0.262 0.08233 0.36531 0.0
N271 N 0.26913 0.11654 0.40343 0.0
C272 C 0.28124 0.15993 0.40549 0.0
C273 C 0.28359 0.17485 0.43483 0.0
C274 C 0.27293 0.13842 0.4523 0.0
C275 C 0.26497 0.103 0.43254 0.0
N276 N 0.26983 0.02687 0.389 0.0
C277 C 0.26836 0.02039 0.41944 0.0
C278 C 0.27818 0.97609 0.42627 0.0
C279 C 0.28617 0.95466 0.39908 0.0
C280 C 0.28105 0.98693 0.37707 0.0
N281 N 0.25205 0.05041 0.32659 0.0
C282 C 0.26261 1.00742 0.32122 0.0
C283 C 0.24552 0.99309 0.29386 0.0
C284 C 0.22281 0.02932 0.2817 0.0
C285 C 0.22727 0.06426 0.30217 0.0
N286 N 0.3289 0.08133 0.3594 0.0
C287 C 0.4198 0.05042 0.35484 0.0
C288 C 0.39345 0.05918 0.32885 0.0
C289 C 0.34852 0.07486 0.33159 0.0
C290 C 0.40025 0.06168 0.38273 0.0
C291 C 0.35569 0.07652 0.38453 0.0
N292 N 0.19651 0.07836 0.37183 0.0
C293 C 0.13272 0.02866 0.37485 0.0
C294 C 0.10391 0.06428 0.38017 0.0
C295 C 0.12218 0.10788 0.38104 0.0
C296 C 0.16897 0.11416 0.37731 0.0
C297 C 0.178 0.03635 0.37029 0.0
H298 H 0.18277 0.14761 0.37846 0.0
H299 H 0.19771 1.00749 0.36497 0.0
H300 H 0.32902 0.07922 0.31117 0.0
H301 H 0.34243 0.08074 0.40694 0.0
C302 C 0.28477 0.18669 0.3795 0.0
C303 C 0.20976 0.11098 0.2982 0.0
C304 C 0.26036 0.05611 0.44214 0.0
C305 C 0.27785 0.97994 0.34533 0.0
H306 H 0.22613 0.20504 0.2856 0.0
H307 H 0.271 0.24627 0.32954 0.0
H308 H 0.29137 0.20835 0.44262 0.0
H309 H 0.27257 0.13775 0.47681 0.0
H310 H 0.27948 0.96093 0.44853 0.0
H311 H 0.29314 0.91942 0.39578 0.0
H312 H 0.24648 0.95941 0.28479 0.0
H313 H 0.20431 0.02936 0.26065 0.0
H314 H 0.40652 0.05203 0.30652 0.0
H315 H 0.4188 0.05776 0.40365 0.0
H316 H 0.12002 0.99471 0.37318 0.0
H317 H 0.10066 0.13658 0.38466 0.0
C318 C 0.89862 0.23562 0.81578 0.0
C319 C 0.85364 0.24094 0.8086 0.0
C320 C 0.83465 0.26416 0.83215 0.0
C321 C 0.86904 0.27211 0.85216 0.0
N322 N 0.90841 0.25572 0.84244 0.0
Co323 Co 0.96639 0.26108 0.86373 0.0
N324 N 0.93595 0.26685 0.90333 0.0
C325 C 0.89295 0.27907 0.90743 0.0
C326 C 0.88088 0.28035 0.93738 0.0
C327 C 0.91882 0.26882 0.95307 0.0
C328 C 0.95221 0.26136 0.9317 0.0
N329 N 0.02401 0.26786 0.88513 0.0
C330 C 0.03337 0.26511 0.9152 0.0
C331 C 0.07825 0.27455 0.92031 0.0
C332 C 0.09705 0.28364 0.89241 0.0
C333 C 0.06275 0.27948 0.87173 0.0
N334 N 0.99452 0.25275 0.82354 0.0
C335 C 0.03687 0.26374 0.81653 0.0
C336 C 0.04853 0.24811 0.78825 0.0
C337 C 1.01122 0.22596 0.77718 0.0
C338 C 0.97832 0.22929 0.7992 0.0
N339 N 0.96692 0.32819 0.85886 0.0
C340 C 0.99739 0.41926 0.85439 0.0
C341 C 0.98588 0.39393 0.82843 0.0
C342 C 0.97046 0.34889 0.83114 0.0
C343 C 0.98905 0.39863 0.8824 0.0
C344 C 0.97439 0.35399 0.88414 0.0
N345 N 0.97084 0.19544 0.86919 0.0
C346 C 0.02073 0.13167 0.86977 0.0
C347 C 0.98627 0.10327 0.87852 0.0
C348 C 0.94304 0.12164 0.88206 0.0
C349 C 0.93613 0.16823 0.8777 0.0
C350 C 1.01231 0.17678 0.86485 0.0
H351 H 0.90312 0.18223 0.88112 0.0
H352 H 0.04021 0.19642 0.85745 0.0
H353 H 0.96393 0.33018 0.81066 0.0
H354 H 0.97252 0.33985 0.90647 0.0
C355 C 0.86374 0.28343 0.88271 0.0
C356 C 0.93133 0.21191 0.79678 0.0
C357 C 0.99988 0.25603 0.93921 0.0
C358 C 0.06664 0.27783 0.83972 0.0
H359 H 0.83622 0.2285 0.78879 0.0
H360 H 0.79944 0.27147 0.83524 0.0
H361 H 0.84825 0.28796 0.94671 0.0
H362 H 0.92183 0.26754 0.97748 0.0
H363 H 0.09549 0.27487 0.94189 0.0
H364 H 0.13192 0.29073 0.88775 0.0
H365 H 0.08125 0.24962 0.77778 0.0
H366 H 1.0092 0.20851 0.75578 0.0
H367 H 0.99069 0.40787 0.80604 0.0
H368 H 0.99517 0.41636 0.90339 0.0
H369 H 0.05424 0.11881 0.86604 0.0
H370 H 0.91518 0.1004 0.88838 0.0
C371 C 0.79828 0.88229 0.33088 0.0
C372 C 0.80667 0.83656 0.33364 0.0
C373 C 0.78592 0.8224 0.35944 0.0
C374 C 0.76751 0.86012 0.37189 0.0
N375 N 0.77539 0.89735 0.35542 0.0
Co376 Co 0.76373 0.95979 0.36872 0.0
N377 N 0.76228 0.94128 0.41182 0.0
C378 C 0.75443 0.89954 0.42204 0.0
C379 C 0.75448 0.8965 0.453 0.0
C380 C 0.76238 0.93913 0.46295 0.0
C381 C 0.76668 0.96595 0.4373 0.0
N382 N 0.75166 0.02165 0.38235 0.0
C383 C 0.755 0.0399 0.4105 0.0
C384 C 0.7414 0.08431 0.40992 0.0
C385 C 0.729 0.09362 0.38042 0.0
C386 C 0.73554 0.05446 0.36454 0.0
N387 N 0.76703 0.97637 0.32535 0.0
C388 C 0.75015 1.01417 0.31336 0.0
C389 C 0.75915 0.01737 0.28284 0.0
C390 C 0.78314 0.97927 0.27551 0.0
C391 C 0.78788 0.95469 0.30198 0.0
N392 N 0.69685 0.95218 0.36562 0.0
C393 C 0.60374 0.97392 0.35871 0.0
C394 C 0.62946 0.95738 0.33433 0.0
C395 C 0.67537 0.94586 0.33838 0.0
C396 C 0.62541 0.97599 0.3869 0.0
C397 C 0.67108 0.96532 0.38984 0.0
N398 N 0.82868 0.97256 0.37167 0.0
C399 C 0.8865 0.02762 0.36272 0.0
C400 C 0.919 1.00112 0.37675 0.0
C401 C 0.90484 0.95933 0.38855 0.0
C402 C 0.85942 0.94573 0.38587 0.0
C403 C 0.84267 1.01272 0.36007 0.0
H404 H 0.8491 0.91397 0.39534 0.0
H405 H 0.81985 0.03497 0.34892 0.0
H406 H 0.69398 0.93437 0.31891 0.0
H407 H 0.68591 0.97161 0.4116 0.0
C408 C 0.75555 0.86327 0.40229 0.0
C409 C 0.80986 0.90976 0.30402 0.0
C410 C 0.76868 1.01501 0.43809 0.0
C411 C 0.73452 0.04879 0.33264 0.0
H412 H 0.82685 0.8153 0.31934 0.0
H413 H 0.78795 0.78932 0.36942 0.0
H414 H 0.75076 0.86666 0.4667 0.0
H415 H 0.76371 0.94928 0.48646 0.0
H416 H 0.74047 0.10742 0.4288 0.0
H417 H 0.71806 0.12558 0.3715 0.0
H418 H 0.75125 0.04507 0.26795 0.0
H419 H 0.79594 0.97071 0.25334 0.0
H420 H 0.61448 0.95394 0.31211 0.0
H421 H 0.60791 0.98854 0.40662 0.0
H422 H 0.89429 0.06065 0.3541 0.0
H423 H 0.92849 0.93719 0.39958 0.0
C424 C 0.02262 0.49735 0.17794 0.0
C425 C 1.01341 0.46564 0.15491 0.0
H426 H 1.01288 0.56461 0.19488 0.0
C427 C 0.98292 0.47909 0.13209 0.0
H428 H 0.04566 0.48899 0.19602 0.0
C429 C 0.96432 0.52248 0.13139 0.0
C430 C 0.97472 0.55477 0.15363 0.0
H431 H 0.97308 0.45595 0.11443 0.0
H432 H 0.9416 0.53077 0.11308 0.0
C433 C 1.0036 0.54104 0.17732 0.0
C434 C 0.50869 0.98202 0.62939 0.0
C435 C 0.47728 0.99015 0.65257 0.0
H436 H 0.57458 0.99242 0.6118 0.0
C437 C 0.492 1.01646 0.67733 0.0
H438 H 0.49963 0.96128 0.6102 0.0
C439 C 0.53576 0.0353 0.67812 0.0
C440 C 0.56655 0.02847 0.6542 0.0
H441 H 0.46913 0.02393 0.69565 0.0
H442 H 0.54487 0.05639 0.69709 0.0
C443 C 0.55215 1.00044 0.63025 0.0
C444 C 1.01008 0.49736 0.83016 0.0
C445 C 0.01929 0.46566 0.85319 0.0
H446 H 0.01983 0.56463 0.81321 0.0
C447 C 0.04977 0.47911 0.87601 0.0
H448 H 0.98704 0.489 0.81207 0.0
C449 C 0.06838 0.5225 0.87671 0.0
C450 C 0.05798 0.55479 0.85446 0.0
H451 H 0.05962 0.45597 0.89367 0.0
H452 H 0.0911 0.53079 0.89501 0.0
C453 C 0.0291 0.54105 0.83077 0.0
C454 C 0.48058 1.00043 0.37784 0.0
C455 C 0.46618 0.02846 0.35389 0.0
H456 H 0.53309 0.96128 0.39789 0.0
C457 C 0.49697 0.0353 0.32998 0.0
H458 H 0.45815 0.99242 0.3963 0.0
C459 C 0.54072 1.01646 0.33077 0.0
C460 C 0.55545 0.99015 0.35552 0.0
H461 H 0.48785 0.05638 0.311 0.0
H462 H 0.5636 0.02392 0.31244 0.0
C463 C 0.52404 0.98202 0.37871 0.0
C464 C 1.01433 0.29624 0.98822 0.0
C465 C 1.01222 0.25571 0.97204 0.0
H466 H 0.02076 0.3279 0.03178 0.0
C467 C 1.01401 0.21517 0.9882 0.0
H468 H 1.01185 0.32791 0.97634 0.0
C469 C 0.0187 0.21517 0.01989 0.0
C470 C 0.02045 0.2557 0.03606 0.0
H471 H 1.01132 0.18354 0.9763 0.0
H472 H 0.02142 0.18353 0.03179 0.0
C473 C 0.0183 0.29623 0.01989 0.0
C474 C 0.73113 0.04836 0.51649 0.0
C475 C 0.77167 0.04651 0.53272 0.0
H476 H 0.69872 0.04209 0.47317 0.0
C477 C 0.81179 0.0407 0.51668 0.0
H478 H 0.69984 0.05369 0.52835 0.0
C479 C 0.81123 0.0349 0.4851 0.0
C480 C 0.7706 0.03565 0.46889 0.0
H481 H 0.84349 0.04005 0.52864 0.0
H482 H 0.84232 0.02764 0.47347 0.0
C483 C 0.7306 0.04306 0.4849 0.0
C484 C 1.013 0.80411 0.01978 0.0
C485 C 1.01026 0.7636 0.0359 0.0
H486 H 0.02353 0.83577 0.97659 0.0
C487 C 1.01335 0.72306 0.01981 0.0
H488 H 1.00913 0.83576 0.0315 0.0
C489 C 0.01936 0.72306 0.98827 0.0
C490 C 0.02243 0.76362 0.97218 0.0
H491 H 1.00967 0.6914 0.03156 0.0
H492 H 0.02306 0.69141 0.97652 0.0
C493 C 0.01966 0.80411 0.98831 0.0
C494 C 0.30159 0.04837 0.49161 0.0
C495 C 0.26106 0.04651 0.47537 0.0
H496 H 0.33401 0.04209 0.53493 0.0
C497 C 0.22093 0.0407 0.49142 0.0
H498 H 0.33288 0.0537 0.47974 0.0
C499 C 0.2215 0.0349 0.52299 0.0
C500 C 0.26213 0.03565 0.5392 0.0
H501 H 0.18923 0.04005 0.47946 0.0
H502 H 0.1904 0.02764 0.53462 0.0
C503 C 0.30212 0.04306 0.5232 0.0
C504 C 0.115 0.18348 0.26555 0.0
C505 C 0.11948 0.17778 0.23405 0.0
H506 H 0.1382 0.16543 0.31009 0.0
C507 C 0.14972 0.14427 0.22413 0.0
H508 H 0.09398 0.20988 0.27444 0.0
C509 C 0.17673 0.11981 0.24468 0.0
C510 C 0.17371 0.12699 0.27613 0.0
H511 H 0.15495 0.13932 0.20008 0.0
H512 H 0.2023 0.09793 0.23564 0.0
C513 C 0.14111 0.15813 0.28613 0.0
C514 C 0.883 0.14429 0.78397 0.0
C515 C 0.91324 0.17779 0.77405 0.0
H516 H 0.83042 0.09794 0.77246 0.0
C517 C 0.91772 0.18348 0.74254 0.0
H518 H 0.87776 0.13934 0.80802 0.0
C519 C 0.89161 0.15814 0.72197 0.0
C520 C 0.85902 0.12699 0.73197 0.0
H521 H 0.93874 0.20988 0.73365 0.0
H522 H 0.89452 0.16542 0.69801 0.0
C523 C 0.85599 0.11982 0.76342 0.0
C524 C 0.81616 0.84623 0.26595 0.0
C525 C 0.83278 0.88719 0.27715 0.0
H526 H 0.82756 0.78758 0.2392 0.0
C527 C 0.87341 0.90298 0.26467 0.0
H528 H 0.78449 0.83321 0.27405 0.0
C529 C 0.89642 0.87819 0.24197 0.0
C530 C 0.88026 0.83621 0.23195 0.0
H531 H 0.88748 0.93431 0.27258 0.0
H532 H 0.92653 0.89205 0.23205 0.0
C533 C 0.84085 0.82001 0.24559 0.0
C534 C 0.15931 0.90299 0.74342 0.0
C535 C 0.19994 0.88719 0.73094 0.0
H536 H 0.10618 0.89207 0.77604 0.0
C537 C 0.21655 0.84623 0.74214 0.0
H538 H 0.14524 0.93432 0.73551 0.0
C539 C 0.19185 0.82002 0.7625 0.0
C540 C 0.15245 0.83622 0.77614 0.0
H541 H 0.24821 0.83321 0.73405 0.0
H542 H 0.20514 0.78758 0.76889 0.0
C543 C 0.1363 0.87821 0.76612 0.0
C544 C 0.04977 0.02488 0.14929 0.0
C545 C 0.03587 0.05464 0.12667 0.0
H546 H 0.04266 0.96043 0.16941 0.0
C547 C 1.00437 0.03961 0.10512 0.0
H548 H 0.07249 0.03604 0.16691 0.0
C549 C 0.98747 0.99556 0.10605 0.0
C550 C 1.00097 0.96563 0.12898 0.0
H551 H 0.99207 0.06238 0.0879 0.0
H552 H 0.96386 0.98509 0.08882 0.0
C553 C 0.03227 0.98135 0.15066 0.0
C554 C 0.04902 0.04693 0.65226 0.0
C555 C 0.06621 0.01831 0.62947 0.0
H556 H 0.99332 0.08535 0.66882 0.0
C557 C 0.03801 1.00808 0.60481 0.0
H558 H 0.06854 0.05473 0.67224 0.0
C559 C 0.99418 0.02539 0.60329 0.0
C560 C 0.97763 0.05412 0.62602 0.0
H561 H 0.04966 0.98668 0.58666 0.0
H562 H 0.97271 1.01548 0.58466 0.0
C563 C 1.00572 0.0649 0.65036 0.0
C564 C 0.98292 0.02489 0.8588 0.0
C565 C 0.99682 0.05465 0.88143 0.0
H566 H 0.99004 0.96045 0.83867 0.0
C567 C 0.02832 0.03962 0.90297 0.0
H568 H 0.9602 0.03606 0.84118 0.0
C569 C 0.04521 0.99558 0.90204 0.0
C570 C 0.03172 0.96565 0.87911 0.0
H571 H 0.04061 0.06239 0.9202 0.0
H572 H 0.06882 0.98511 0.91927 0.0
C573 C 1.00042 0.98137 0.85743 0.0
C574 C 0.99471 1.00809 0.40329 0.0
C575 C 0.96652 0.01831 0.37863 0.0
H576 H 0.06001 1.01549 0.42344 0.0
C577 C 0.98371 0.04692 0.35584 0.0
H578 H 0.98306 0.98669 0.42144 0.0
C579 C 0.02701 0.06489 0.35773 0.0
C580 C 0.0551 0.05412 0.38208 0.0
H581 H 0.9642 0.05472 0.33585 0.0
H582 H 0.03942 0.08534 0.33927 0.0
C583 C 0.03854 0.0254 0.40481 0.0
loop_
_geom_bond_atom_site_label_1
_geom_bond_atom_site_label_2
_geom_bond_distance
_geom_bond_site_symmetry_2
_ccdc_geom_bond_type
C0 C1 1.443 . S
C0 N4 1.376 . S
C0 C38 1.389 . S
C1 C0 1.443 . S
C1 C2 1.340 . S
C1 H41 0.951 . S
C2 C1 1.340 . S
C2 C3 1.439 . S
C2 H42 0.950 . S
C3 C2 1.439 . S
C3 N4 1.374 . S
C3 C37 1.395 . S
N4 C0 1.376 . S
N4 C3 1.374 . S
N4 Co5 2.008 . S
Co5 N4 2.008 . S
Co5 N6 1.995 . S
Co5 N11 2.014 . S
Co5 N16 1.995 . S
Co5 N21 2.282 . S
Co5 N27 2.282 . S
N6 Co5 1.995 . S
N6 C7 1.376 . S
N6 C10 1.383 . S
C7 N6 1.376 . S
C7 C8 1.446 . S
C7 C37 1.391 . S
C8 C7 1.446 . S
C8 C9 1.339 . S
C8 H43 0.949 . S
C9 C8 1.339 . S
C9 C10 1.439 . S
C9 H44 0.950 . S
C10 N6 1.383 . S
C10 C9 1.439 . S
C10 C39 1.392 . S
N11 Co5 2.014 . S
N11 C12 1.375 1_455 S
N11 C15 1.368 1_455 S
C12 N11 1.375 1_655 S
C12 C13 1.443 . S
C12 C39 1.389 1_655 S
C13 C12 1.443 . S
C13 C14 1.340 . S
C13 H45 0.951 . S
C14 C13 1.340 . S
C14 C15 1.439 . S
C14 H46 0.950 . S
C15 N11 1.368 1_655 S
C15 C14 1.439 . S
C15 C40 1.395 . S
N16 Co5 1.995 . S
N16 C17 1.376 1_455 S
N16 C20 1.383 . S
C17 N16 1.376 1_655 S
C17 C18 1.446 . S
C17 C40 1.391 . S
C18 C17 1.446 . S
C18 C19 1.339 1_655 S
C18 H47 0.949 . S
C19 C18 1.339 1_455 S
C19 C20 1.439 . S
C19 H48 0.950 . S
C20 N16 1.383 . S
C20 C19 1.439 . S
C20 C38 1.392 . S
N21 Co5 2.282 . S
N21 C24 1.332 . S
N21 C26 1.332 . S
C22 C23 1.386 . S
C22 C25 1.388 . S
C23 C22 1.386 . S
C23 C24 1.382 . S
C23 H49 0.950 . S
C24 N21 1.332 . S
C24 C23 1.382 . S
C24 H35 0.952 . S
C25 C22 1.388 . S
C25 C26 1.382 . S
C25 H50 0.950 . S
C26 N21 1.332 . S
C26 C25 1.382 . S
C26 H36 0.948 . S
N27 Co5 2.282 . S
N27 C31 1.332 . S
N27 C32 1.332 . S
C28 C29 1.388 . S
C28 C32 1.382 . S
C28 H51 0.950 . S
C29 C28 1.388 . S
C29 C30 1.386 . S
C30 C29 1.386 . S
C30 C31 1.382 . S
C30 H52 0.950 . S
C31 N27 1.332 . S
C31 C30 1.382 . S
C31 H33 0.952 . S
C32 N27 1.332 . S
C32 C28 1.382 . S
C32 H34 0.948 . S
H33 C31 0.952 . S
H34 C32 0.948 . S
H35 C24 0.952 . S
H36 C26 0.948 . S
C37 C3 1.395 . S
C37 C7 1.391 . S
C38 C0 1.389 . S
C38 C20 1.392 . S
C39 C10 1.392 . S
C39 C12 1.389 1_455 S
C40 C15 1.395 . S
C40 C17 1.391 . S
H41 C1 0.951 . S
H42 C2 0.950 . S
H43 C8 0.949 . S
H44 C9 0.950 . S
H45 C13 0.951 . S
H46 C14 0.950 . S
H47 C18 0.949 . S
H48 C19 0.950 . S
H49 C23 0.950 . S
H50 C25 0.950 . S
H51 C28 0.950 . S
H52 C30 0.950 . S
C53 C54 1.443 . S
C53 N57 1.376 . S
C53 C91 1.389 . S
C54 C53 1.443 . S
C54 C55 1.340 . S
C54 H94 0.951 . S
C55 C54 1.340 . S
C55 C56 1.439 . S
C55 H95 0.950 . S
C56 C55 1.439 . S
C56 N57 1.374 . S
C56 C90 1.395 . S
N57 C53 1.376 . S
N57 C56 1.374 . S
N57 Co58 2.008 . S
Co58 N57 2.008 . S
Co58 N59 1.995 . S
Co58 N64 2.014 . S
Co58 N69 1.995 . S
Co58 N74 2.282 . S
Co58 N80 2.282 . S
N59 Co58 1.995 . S
N59 C60 1.376 . S
N59 C63 1.383 . S
C60 N59 1.376 . S
C60 C61 1.446 . S
C60 C90 1.391 . S
C61 C60 1.446 . S
C61 C62 1.339 . S
C61 H96 0.949 . S
C62 C61 1.339 . S
C62 C63 1.439 . S
C62 H97 0.950 . S
C63 N59 1.383 . S
C63 C62 1.439 . S
C63 C92 1.392 . S
N64 Co58 2.014 . S
N64 C65 1.375 1_545 S
N64 C68 1.368 1_545 S
C65 N64 1.375 1_565 S
C65 C66 1.443 . S
C65 C92 1.389 1_565 S
C66 C65 1.443 . S
C66 C67 1.340 . S
C66 H98 0.951 . S
C67 C66 1.340 . S
C67 C68 1.439 . S
C67 H99 0.950 . S
C68 N64 1.368 1_565 S
C68 C67 1.439 . S
C68 C93 1.395 . S
N69 Co58 1.995 . S
N69 C70 1.376 1_545 S
N69 C73 1.383 . S
C70 N69 1.376 1_565 S
C70 C71 1.446 . S
C70 C93 1.391 . S
C71 C70 1.446 . S
C71 C72 1.339 1_565 S
C71 H100 0.949 . S
C72 C71 1.339 1_545 S
C72 C73 1.439 . S
C72 H101 0.950 . S
C73 N69 1.383 . S
C73 C72 1.439 . S
C73 C91 1.392 . S
N74 Co58 2.282 . S
N74 C77 1.332 . S
N74 C79 1.332 . S
C75 C76 1.386 . S
C75 C78 1.388 . S
C76 C75 1.386 . S
C76 C77 1.382 . S
C76 H102 0.950 . S
C77 N74 1.332 . S
C77 C76 1.382 . S
C77 H88 0.952 . S
C78 C75 1.388 . S
C78 C79 1.382 . S
C78 H103 0.950 . S
C79 N74 1.332 . S
C79 C78 1.382 . S
C79 H89 0.948 . S
N80 Co58 2.282 . S
N80 C84 1.332 . S
N80 C85 1.332 . S
C81 C82 1.388 . S
C81 C85 1.382 . S
C81 H104 0.950 . S
C82 C81 1.388 . S
C82 C83 1.386 . S
C83 C82 1.386 . S
C83 C84 1.382 . S
C83 H105 0.950 . S
C84 N80 1.332 . S
C84 C83 1.382 . S
C84 H86 0.952 . S
C85 N80 1.332 . S
C85 C81 1.382 . S
C85 H87 0.948 . S
H86 C84 0.952 . S
H87 C85 0.948 . S
H88 C77 0.952 . S
H89 C79 0.948 . S
C90 C56 1.395 . S
C90 C60 1.391 . S
C91 C53 1.389 . S
C91 C73 1.392 . S
C92 C63 1.392 . S
C92 C65 1.389 1_545 S
C93 C68 1.395 . S
C93 C70 1.391 . S
H94 C54 0.951 . S
H95 C55 0.950 . S
H96 C61 0.949 . S
H97 C62 0.950 . S
H98 C66 0.951 . S
H99 C67 0.950 . S
H100 C71 0.949 . S
H101 C72 0.950 . S
H102 C76 0.950 . S
H103 C78 0.950 . S
H104 C81 0.950 . S
H105 C83 0.950 . S
C106 C107 1.443 . S
C106 N110 1.376 . S
C106 C144 1.389 . S
C107 C106 1.443 . S
C107 C108 1.340 . S
C107 H147 0.951 . S
C108 C107 1.340 . S
C108 C109 1.439 . S
C108 H148 0.950 . S
C109 C108 1.439 . S
C109 N110 1.374 . S
C109 C143 1.395 . S
N110 C106 1.376 . S
N110 C109 1.374 . S
N110 Co111 2.008 . S
Co111 N110 2.008 . S
Co111 N112 1.995 . S
Co111 N117 2.014 . S
Co111 N122 1.995 . S
Co111 N127 2.282 . S
Co111 N133 2.282 . S
N112 Co111 1.995 . S
N112 C113 1.376 . S
N112 C116 1.383 . S
C113 N112 1.376 . S
C113 C114 1.446 . S
C113 C143 1.391 . S
C114 C113 1.446 . S
C114 C115 1.339 . S
C114 H149 0.949 . S
C115 C114 1.339 . S
C115 C116 1.439 . S
C115 H150 0.950 . S
C116 N112 1.383 . S
C116 C115 1.439 . S
C116 C145 1.392 . S
N117 Co111 2.014 . S
N117 C118 1.375 1_655 S
N117 C121 1.369 1_655 S
C118 N117 1.375 1_455 S
C118 C119 1.443 . S
C118 C145 1.389 1_455 S
C119 C118 1.443 . S
C119 C120 1.340 . S
C119 H151 0.951 . S
C120 C119 1.340 . S
C120 C121 1.439 . S
C120 H152 0.950 . S
C121 N117 1.369 1_455 S
C121 C120 1.439 . S
C121 C146 1.395 . S
N122 Co111 1.995 . S
N122 C123 1.376 1_655 S
N122 C126 1.383 . S
C123 N122 1.376 1_455 S
C123 C124 1.446 . S
C123 C146 1.391 . S
C124 C123 1.446 . S
C124 C125 1.339 1_455 S
C124 H153 0.949 . S
C125 C124 1.339 1_655 S
C125 C126 1.439 . S
C125 H154 0.950 . S
C126 N122 1.383 . S
C126 C125 1.439 . S
C126 C144 1.392 . S
N127 Co111 2.282 . S
N127 C130 1.332 . S
N127 C132 1.332 . S
C128 C129 1.386 . S
C128 C131 1.388 . S
C129 C128 1.386 . S
C129 C130 1.382 . S
C129 H155 0.950 . S
C130 N127 1.332 . S
C130 C129 1.382 . S
C130 H141 0.952 . S
C131 C128 1.388 . S
C131 C132 1.382 . S
C131 H156 0.950 . S
C132 N127 1.332 . S
C132 C131 1.382 . S
C132 H142 0.948 . S
N133 Co111 2.282 . S
N133 C137 1.332 . S
N133 C138 1.332 . S
C134 C135 1.388 . S
C134 C138 1.382 . S
C134 H157 0.950 . S
C135 C134 1.388 . S
C135 C136 1.386 . S
C136 C135 1.386 . S
C136 C137 1.382 . S
C136 H158 0.950 . S
C137 N133 1.332 . S
C137 C136 1.382 . S
C137 H139 0.952 . S
C138 N133 1.332 . S
C138 C134 1.382 . S
C138 H140 0.948 . S
H139 C137 0.952 . S
H140 C138 0.948 . S
H141 C130 0.952 . S
H142 C132 0.948 . S
C143 C109 1.395 . S
C143 C113 1.391 . S
C144 C106 1.389 . S
C144 C126 1.392 . S
C145 C116 1.392 . S
C145 C118 1.389 1_655 S
C146 C121 1.395 . S
C146 C123 1.391 . S
H147 C107 0.951 . S
H148 C108 0.950 . S
H149 C114 0.949 . S
H150 C115 0.950 . S
H151 C119 0.951 . S
H152 C120 0.950 . S
H153 C124 0.949 . S
H154 C125 0.950 . S
H155 C129 0.950 . S
H156 C131 0.950 . S
H157 C134 0.950 . S
H158 C136 0.950 . S
C159 C160 1.443 . S
C159 N163 1.376 . S
C159 C197 1.389 . S
C160 C159 1.443 . S
C160 C161 1.340 . S
C160 H200 0.951 . S
C161 C160 1.340 . S
C161 C162 1.439 . S
C161 H201 0.950 . S
C162 C161 1.439 . S
C162 N163 1.374 . S
C162 C196 1.395 . S
N163 C159 1.376 . S
N163 C162 1.374 . S
N163 Co164 2.008 . S
Co164 N163 2.008 . S
Co164 N165 1.995 . S
Co164 N170 2.014 . S
Co164 N175 1.995 . S
Co164 N180 2.282 . S
Co164 N186 2.282 . S
N165 Co164 1.995 . S
N165 C166 1.376 . S
N165 C169 1.383 . S
C166 N165 1.376 . S
C166 C167 1.446 . S
C166 C196 1.391 . S
C167 C166 1.446 . S
C167 C168 1.339 . S
C167 H202 0.949 . S
C168 C167 1.339 . S
C168 C169 1.439 . S
C168 H203 0.950 . S
C169 N165 1.383 . S
C169 C168 1.439 . S
C169 C198 1.392 . S
N170 Co164 2.014 . S
N170 C171 1.375 1_565 S
N170 C174 1.369 1_565 S
C171 N170 1.375 1_545 S
C171 C172 1.443 . S
C171 C198 1.389 1_545 S
C172 C171 1.443 . S
C172 C173 1.340 . S
C172 H204 0.951 . S
C173 C172 1.340 . S
C173 C174 1.439 . S
C173 H205 0.950 . S
C174 N170 1.369 1_545 S
C174 C173 1.439 . S
C174 C199 1.395 . S
N175 Co164 1.995 . S
N175 C176 1.376 1_565 S
N175 C179 1.383 . S
C176 N175 1.376 1_545 S
C176 C177 1.446 . S
C176 C199 1.391 . S
C177 C176 1.446 . S
C177 C178 1.339 1_545 S
C177 H206 0.949 . S
C178 C177 1.339 1_565 S
C178 C179 1.439 . S
C178 H207 0.950 . S
C179 N175 1.383 . S
C179 C178 1.439 . S
C179 C197 1.392 . S
N180 Co164 2.282 . S
N180 C183 1.332 . S
N180 C185 1.332 . S
C181 C182 1.386 . S
C181 C184 1.388 . S
C182 C181 1.386 . S
C182 C183 1.382 . S
C182 H208 0.950 . S
C183 N180 1.332 . S
C183 C182 1.382 . S
C183 H194 0.952 . S
C184 C181 1.388 . S
C184 C185 1.382 . S
C184 H209 0.950 . S
C185 N180 1.332 . S
C185 C184 1.382 . S
C185 H195 0.948 . S
N186 Co164 2.282 . S
N186 C190 1.332 . S
N186 C191 1.332 . S
C187 C188 1.388 . S
C187 C191 1.382 . S
C187 H210 0.950 . S
C188 C187 1.388 . S
C188 C189 1.386 . S
C189 C188 1.386 . S
C189 C190 1.382 . S
C189 H211 0.950 . S
C190 N186 1.332 . S
C190 C189 1.382 . S
C190 H192 0.952 . S
C191 N186 1.332 . S
C191 C187 1.382 . S
C191 H193 0.948 . S
H192 C190 0.952 . S
H193 C191 0.948 . S
H194 C183 0.952 . S
H195 C185 0.948 . S
C196 C162 1.395 . S
C196 C166 1.391 . S
C197 C159 1.389 . S
C197 C179 1.392 . S
C198 C169 1.392 . S
C198 C171 1.389 1_565 S
C199 C174 1.395 . S
C199 C176 1.391 . S
H200 C160 0.951 . S
H201 C161 0.950 . S
H202 C167 0.949 . S
H203 C168 0.950 . S
H204 C172 0.951 . S
H205 C173 0.950 . S
H206 C177 0.949 . S
H207 C178 0.950 . S
H208 C182 0.950 . S
H209 C184 0.950 . S
H210 C187 0.950 . S
H211 C189 0.950 . S
C212 C213 1.443 . S
C212 N216 1.376 . S
C212 C250 1.389 . S
C213 C212 1.443 . S
C213 C214 1.340 . S
C213 H253 0.951 . S
C214 C213 1.340 . S
C214 C215 1.439 . S
C214 H254 0.950 . S
C215 C214 1.439 . S
C215 N216 1.374 . S
C215 C249 1.395 . S
N216 C212 1.376 . S
N216 C215 1.374 . S
N216 Co217 2.008 . S
Co217 N216 2.008 . S
Co217 N218 1.995 . S
Co217 N223 2.014 . S
Co217 N228 1.995 . S
Co217 N233 2.282 . S
Co217 N239 2.282 . S
N218 Co217 1.995 . S
N218 C219 1.376 . S
N218 C222 1.383 . S
C219 N218 1.376 . S
C219 C220 1.446 . S
C219 C249 1.391 . S
C220 C219 1.446 . S
C220 C221 1.339 . S
C220 H255 0.949 . S
C221 C220 1.339 . S
C221 C222 1.439 . S
C221 H256 0.950 . S
C222 N218 1.383 . S
C222 C221 1.439 . S
C222 C251 1.392 . S
N223 Co217 2.014 . S
N223 C224 1.375 1_455 S
N223 C227 1.369 1_455 S
C224 N223 1.375 1_655 S
C224 C225 1.443 . S
C224 C251 1.389 1_655 S
C225 C224 1.443 . S
C225 C226 1.340 . S
C225 H257 0.951 . S
C226 C225 1.340 . S
C226 C227 1.439 . S
C226 H258 0.950 . S
C227 N223 1.369 1_655 S
C227 C226 1.439 . S
C227 C252 1.395 . S
N228 Co217 1.995 . S
N228 C229 1.376 1_455 S
N228 C232 1.383 . S
C229 N228 1.376 1_655 S
C229 C230 1.446 . S
C229 C252 1.391 . S
C230 C229 1.446 . S
C230 C231 1.339 1_655 S
C230 H259 0.949 . S
C231 C230 1.339 1_455 S
C231 C232 1.439 . S
C231 H260 0.950 . S
C232 N228 1.383 . S
C232 C231 1.439 . S
C232 C250 1.392 . S
N233 Co217 2.282 . S
N233 C236 1.332 . S
N233 C238 1.332 . S
C234 C235 1.386 . S
C234 C237 1.388 . S
C235 C234 1.386 . S
C235 C236 1.382 . S
C235 H261 0.950 . S
C236 N233 1.332 . S
C236 C235 1.382 . S
C236 H247 0.952 . S
C237 C234 1.388 . S
C237 C238 1.382 . S
C237 H262 0.950 . S
C238 N233 1.332 . S
C238 C237 1.382 . S
C238 H248 0.948 . S
N239 Co217 2.282 . S
N239 C243 1.332 . S
N239 C244 1.332 . S
C240 C241 1.388 . S
C240 C244 1.382 . S
C240 H263 0.950 . S
C241 C240 1.388 . S
C241 C242 1.386 . S
C242 C241 1.386 . S
C242 C243 1.382 . S
C242 H264 0.950 . S
C243 N239 1.332 . S
C243 C242 1.382 . S
C243 H245 0.952 . S
C244 N239 1.332 . S
C244 C240 1.382 . S
C244 H246 0.948 . S
H245 C243 0.952 . S
H246 C244 0.948 . S
H247 C236 0.952 . S
H248 C238 0.948 . S
C249 C215 1.395 . S
C249 C219 1.391 . S
C250 C212 1.389 . S
C250 C232 1.392 . S
C251 C222 1.392 . S
C251 C224 1.389 1_455 S
C252 C227 1.395 . S
C252 C229 1.391 . S
H253 C213 0.951 . S
H254 C214 0.950 . S
H255 C220 0.949 . S
H256 C221 0.950 . S
H257 C225 0.951 . S
H258 C226 0.950 . S
H259 C230 0.949 . S
H260 C231 0.950 . S
H261 C235 0.950 . S
H262 C237 0.950 . S
H263 C240 0.950 . S
H264 C242 0.950 . S
C265 C266 1.443 . S
C265 N269 1.376 . S
C265 C303 1.389 . S
C266 C265 1.443 . S
C266 C267 1.340 . S
C266 H306 0.951 . S
C267 C266 1.340 . S
C267 C268 1.439 . S
C267 H307 0.950 . S
C268 C267 1.439 . S
C268 N269 1.374 . S
C268 C302 1.395 . S
N269 C265 1.376 . S
N269 C268 1.374 . S
N269 Co270 2.008 . S
Co270 N269 2.008 . S
Co270 N271 1.995 . S
Co270 N276 2.014 . S
Co270 N281 1.995 . S
Co270 N286 2.282 . S
Co270 N292 2.282 . S
N271 Co270 1.995 . S
N271 C272 1.376 . S
N271 C275 1.383 . S
C272 N271 1.376 . S
C272 C273 1.446 . S
C272 C302 1.391 . S
C273 C272 1.446 . S
C273 C274 1.339 . S
C273 H308 0.949 . S
C274 C273 1.339 . S
C274 C275 1.439 . S
C274 H309 0.950 . S
C275 N271 1.383 . S
C275 C274 1.439 . S
C275 C304 1.392 . S
N276 Co270 2.014 . S
N276 C277 1.375 1_545 S
N276 C280 1.369 1_545 S
C277 N276 1.375 1_565 S
C277 C278 1.443 . S
C277 C304 1.389 1_565 S
C278 C277 1.443 . S
C278 C279 1.340 . S
C278 H310 0.951 . S
C279 C278 1.340 . S
C279 C280 1.439 . S
C279 H311 0.950 . S
C280 N276 1.369 1_565 S
C280 C279 1.439 . S
C280 C305 1.395 . S
N281 Co270 1.995 . S
N281 C282 1.376 1_545 S
N281 C285 1.383 . S
C282 N281 1.376 1_565 S
C282 C283 1.446 . S
C282 C305 1.391 . S
C283 C282 1.446 . S
C283 C284 1.339 1_565 S
C283 H312 0.949 . S
C284 C283 1.339 1_545 S
C284 C285 1.439 . S
C284 H313 0.950 . S
C285 N281 1.383 . S
C285 C284 1.439 . S
C285 C303 1.392 . S
N286 Co270 2.282 . S
N286 C289 1.332 . S
N286 C291 1.332 . S
C287 C288 1.386 . S
C287 C290 1.388 . S
C288 C287 1.386 . S
C288 C289 1.382 . S
C288 H314 0.950 . S
C289 N286 1.332 . S
C289 C288 1.382 . S
C289 H300 0.952 . S
C290 C287 1.388 . S
C290 C291 1.382 . S
C290 H315 0.950 . S
C291 N286 1.332 . S
C291 C290 1.382 . S
C291 H301 0.948 . S
N292 Co270 2.282 . S
N292 C296 1.332 . S
N292 C297 1.332 . S
C293 C294 1.388 . S
C293 C297 1.382 . S
C293 H316 0.950 . S
C294 C293 1.388 . S
C294 C295 1.386 . S
C295 C294 1.386 . S
C295 C296 1.382 . S
C295 H317 0.950 . S
C296 N292 1.332 . S
C296 C295 1.382 . S
C296 H298 0.952 . S
C297 N292 1.332 . S
C297 C293 1.382 . S
C297 H299 0.948 . S
H298 C296 0.952 . S
H299 C297 0.948 . S
H300 C289 0.952 . S
H301 C291 0.948 . S
C302 C268 1.395 . S
C302 C272 1.391 . S
C303 C265 1.389 . S
C303 C285 1.392 . S
C304 C275 1.392 . S
C304 C277 1.389 1_545 S
C305 C280 1.395 . S
C305 C282 1.391 . S
H306 C266 0.951 . S
H307 C267 0.950 . S
H308 C273 0.949 . S
H309 C274 0.950 . S
H310 C278 0.951 . S
H311 C279 0.950 . S
H312 C283 0.949 . S
H313 C284 0.950 . S
H314 C288 0.950 . S
H315 C290 0.950 . S
H316 C293 0.950 . S
H317 C295 0.950 . S
C318 C319 1.443 . S
C318 N322 1.376 . S
C318 C356 1.389 . S
C319 C318 1.443 . S
C319 C320 1.340 . S
C319 H359 0.951 . S
C320 C319 1.340 . S
C320 C321 1.439 . S
C320 H360 0.950 . S
C321 C320 1.439 . S
C321 N322 1.374 . S
C321 C355 1.395 . S
N322 C318 1.376 . S
N322 C321 1.374 . S
N322 Co323 2.008 . S
Co323 N322 2.008 . S
Co323 N324 1.995 . S
Co323 N329 2.014 . S
Co323 N334 1.995 . S
Co323 N339 2.282 . S
Co323 N345 2.282 . S
N324 Co323 1.995 . S
N324 C325 1.376 . S
N324 C328 1.383 . S
C325 N324 1.376 . S
C325 C326 1.446 . S
C325 C355 1.391 . S
C326 C325 1.446 . S
C326 C327 1.339 . S
C326 H361 0.949 . S
C327 C326 1.339 . S
C327 C328 1.439 . S
C327 H362 0.950 . S
C328 N324 1.383 . S
C328 C327 1.439 . S
C328 C357 1.392 . S
N329 Co323 2.014 . S
N329 C330 1.375 1_655 S
N329 C333 1.368 1_655 S
C330 N329 1.375 1_455 S
C330 C331 1.443 . S
C330 C357 1.389 1_455 S
C331 C330 1.443 . S
C331 C332 1.340 . S
C331 H363 0.951 . S
C332 C331 1.340 . S
C332 C333 1.439 . S
C332 H364 0.950 . S
C333 N329 1.368 1_455 S
C333 C332 1.439 . S
C333 C358 1.395 . S
N334 Co323 1.995 . S
N334 C335 1.376 1_655 S
N334 C338 1.383 . S
C335 N334 1.376 1_455 S
C335 C336 1.446 . S
C335 C358 1.391 . S
C336 C335 1.446 . S
C336 C337 1.339 1_455 S
C336 H365 0.949 . S
C337 C336 1.339 1_655 S
C337 C338 1.439 . S
C337 H366 0.950 . S
C338 N334 1.383 . S
C338 C337 1.439 . S
C338 C356 1.392 . S
N339 Co323 2.282 . S
N339 C342 1.332 . S
N339 C344 1.332 . S
C340 C341 1.386 . S
C340 C343 1.388 . S
C341 C340 1.386 . S
C341 C342 1.382 . S
C341 H367 0.950 . S
C342 N339 1.332 . S
C342 C341 1.382 . S
C342 H353 0.952 . S
C343 C340 1.388 . S
C343 C344 1.382 . S
C343 H368 0.950 . S
C344 N339 1.332 . S
C344 C343 1.382 . S
C344 H354 0.948 . S
N345 Co323 2.282 . S
N345 C349 1.332 . S
N345 C350 1.332 . S
C346 C347 1.388 . S
C346 C350 1.382 . S
C346 H369 0.950 . S
C347 C346 1.388 . S
C347 C348 1.386 . S
C348 C347 1.386 . S
C348 C349 1.382 . S
C348 H370 0.950 . S
C349 N345 1.332 . S
C349 C348 1.382 . S
C349 H351 0.952 . S
C350 N345 1.332 . S
C350 C346 1.382 . S
C350 H352 0.948 . S
H351 C349 0.952 . S
H352 C350 0.948 . S
H353 C342 0.952 . S
H354 C344 0.948 . S
C355 C321 1.395 . S
C355 C325 1.391 . S
C356 C318 1.389 . S
C356 C338 1.392 . S
C357 C328 1.392 . S
C357 C330 1.389 1_655 S
C358 C333 1.395 . S
C358 C335 1.391 . S
H359 C319 0.951 . S
H360 C320 0.950 . S
H361 C326 0.949 . S
H362 C327 0.950 . S
H363 C331 0.951 . S
H364 C332 0.950 . S
H365 C336 0.949 . S
H366 C337 0.950 . S
H367 C341 0.950 . S
H368 C343 0.950 . S
H369 C346 0.950 . S
H370 C348 0.950 . S
C371 C372 1.443 . S
C371 N375 1.376 . S
C371 C409 1.389 . S
C372 C371 1.443 . S
C372 C373 1.340 . S
C372 H412 0.951 . S
C373 C372 1.340 . S
C373 C374 1.439 . S
C373 H413 0.950 . S
C374 C373 1.439 . S
C374 N375 1.374 . S
C374 C408 1.395 . S
N375 C371 1.376 . S
N375 C374 1.374 . S
N375 Co376 2.008 . S
Co376 N375 2.008 . S
Co376 N377 1.995 . S
Co376 N382 2.014 . S
Co376 N387 1.995 . S
Co376 N392 2.282 . S
Co376 N398 2.282 . S
N377 Co376 1.995 . S
N377 C378 1.376 . S
N377 C381 1.383 . S
C378 N377 1.376 . S
C378 C379 1.446 . S
C378 C408 1.391 . S
C379 C378 1.446 . S
C379 C380 1.339 . S
C379 H414 0.949 . S
C380 C379 1.339 . S
C380 C381 1.439 . S
C380 H415 0.950 . S
C381 N377 1.383 . S
C381 C380 1.439 . S
C381 C410 1.392 . S
N382 Co376 2.014 . S
N382 C383 1.375 1_565 S
N382 C386 1.368 1_565 S
C383 N382 1.375 1_545 S
C383 C384 1.443 . S
C383 C410 1.389 1_545 S
C384 C383 1.443 . S
C384 C385 1.340 . S
C384 H416 0.951 . S
C385 C384 1.340 . S
C385 C386 1.439 . S
C385 H417 0.950 . S
C386 N382 1.368 1_545 S
C386 C385 1.439 . S
C386 C411 1.395 . S
N387 Co376 1.995 . S
N387 C388 1.376 1_565 S
N387 C391 1.383 . S
C388 N387 1.376 1_545 S
C388 C389 1.446 . S
C388 C411 1.391 . S
C389 C388 1.446 . S
C389 C390 1.339 1_545 S
C389 H418 0.949 . S
C390 C389 1.339 1_565 S
C390 C391 1.439 . S
C390 H419 0.950 . S
C391 N387 1.383 . S
C391 C390 1.439 . S
C391 C409 1.392 . S
N392 Co376 2.282 . S
N392 C395 1.332 . S
N392 C397 1.332 . S
C393 C394 1.386 . S
C393 C396 1.388 . S
C394 C393 1.386 . S
C394 C395 1.382 . S
C394 H420 0.950 . S
C395 N392 1.332 . S
C395 C394 1.382 . S
C395 H406 0.952 . S
C396 C393 1.388 . S
C396 C397 1.382 . S
C396 H421 0.950 . S
C397 N392 1.332 . S
C397 C396 1.382 . S
C397 H407 0.948 . S
N398 Co376 2.282 . S
N398 C402 1.332 . S
N398 C403 1.332 . S
C399 C400 1.388 . S
C399 C403 1.382 . S
C399 H422 0.950 . S
C400 C399 1.388 . S
C400 C401 1.386 . S
C401 C400 1.386 . S
C401 C402 1.382 . S
C401 H423 0.950 . S
C402 N398 1.332 . S
C402 C401 1.382 . S
C402 H404 0.952 . S
C403 N398 1.332 . S
C403 C399 1.382 . S
C403 H405 0.948 . S
H404 C402 0.952 . S
H405 C403 0.948 . S
H406 C395 0.952 . S
H407 C397 0.948 . S
C408 C374 1.395 . S
C408 C378 1.391 . S
C409 C371 1.389 . S
C409 C391 1.392 . S
C410 C381 1.392 . S
C410 C383 1.389 1_565 S
C411 C386 1.395 . S
C411 C388 1.391 . S
H412 C372 0.951 . S
H413 C373 0.950 . S
H414 C379 0.949 . S
H415 C380 0.950 . S
H416 C384 0.951 . S
H417 C385 0.950 . S
H418 C389 0.949 . S
H419 C390 0.950 . S
H420 C394 0.950 . S
H421 C396 0.950 . S
H422 C399 0.950 . S
H423 C401 0.950 . S
C424 C425 1.387 . S
C424 H428 0.950 . S
C424 C433 1.390 1_455 S
C425 C424 1.387 . S
C425 C427 1.387 . S
H426 C433 0.950 . S
C427 C425 1.387 . S
C427 C429 1.390 1_455 S
C427 H431 0.950 . S
H428 C424 0.950 . S
C429 C427 1.390 1_655 S
C429 C430 1.387 . S
C429 H432 0.950 . S
C430 C429 1.387 . S
C430 C433 1.387 . S
H431 C427 0.950 . S
H432 C429 0.950 . S
C433 C424 1.390 1_655 S
C433 H426 0.950 . S
C433 C430 1.387 . S
C434 C435 1.387 . S
C434 H438 0.950 . S
C434 C443 1.390 1_565 S
C435 C434 1.387 . S
C435 C437 1.387 . S
H436 C443 0.950 . S
C437 C435 1.387 . S
C437 C439 1.390 1_565 S
C437 H441 0.950 . S
H438 C434 0.950 . S
C439 C437 1.390 1_545 S
C439 C440 1.387 . S
C439 H442 0.950 . S
C440 C439 1.387 . S
C440 C443 1.387 . S
H441 C437 0.950 . S
H442 C439 0.950 . S
C443 C434 1.390 1_545 S
C443 H436 0.950 . S
C443 C440 1.387 . S
C444 C445 1.387 . S
C444 H448 0.950 . S
C444 C453 1.390 1_655 S
C445 C444 1.387 . S
C445 C447 1.387 . S
H446 C453 0.950 . S
C447 C445 1.387 . S
C447 C449 1.390 1_655 S
C447 H451 0.950 . S
H448 C444 0.950 . S
C449 C447 1.390 1_455 S
C449 C450 1.387 . S
C449 H452 0.950 . S
C450 C449 1.387 . S
C450 C453 1.387 . S
H451 C447 0.950 . S
H452 C449 0.950 . S
C453 C444 1.390 1_455 S
C453 H446 0.950 . S
C453 C450 1.387 . S
C454 C455 1.387 . S
C454 H458 0.950 . S
C454 C463 1.390 1_545 S
C455 C454 1.387 . S
C455 C457 1.387 . S
H456 C463 0.950 . S
C457 C455 1.387 . S
C457 C459 1.390 1_545 S
C457 H461 0.950 . S
H458 C454 0.950 . S
C459 C457 1.390 1_565 S
C459 C460 1.387 . S
C459 H462 0.950 . S
C460 C459 1.387 . S
C460 C463 1.387 . S
H461 C457 0.950 . S
H462 C459 0.950 . S
C463 C454 1.390 1_565 S
C463 H456 0.950 . S
C463 C460 1.387 . S
C464 C465 1.387 . S
C464 H468 0.950 . S
C464 C473 1.390 1_656 S
C465 C464 1.387 . S
C465 C467 1.387 . S
H466 C473 0.950 . S
C467 C465 1.387 . S
C467 C469 1.390 1_656 S
C467 H471 0.950 . S
H468 C464 0.950 . S
C469 C467 1.390 1_454 S
C469 C470 1.387 . S
C469 H472 0.950 . S
C470 C469 1.387 . S
C470 C473 1.387 . S
H471 C467 0.950 . S
H472 C469 0.950 . S
C473 C464 1.390 1_454 S
C473 H466 0.950 . S
C473 C470 1.387 . S
C474 C475 1.387 . S
C474 H478 0.950 . S
C474 C483 1.390 1_545 S
C475 C474 1.387 . S
C475 C477 1.387 . S
H476 C483 0.950 . S
C477 C475 1.387 . S
C477 C479 1.390 1_545 S
C477 H481 0.950 . S
H478 C474 0.950 . S
C479 C477 1.390 1_565 S
C479 C480 1.387 . S
C479 H482 0.950 . S
C480 C479 1.387 . S
C480 C483 1.387 . S
H481 C477 0.950 . S
H482 C479 0.950 . S
C483 C474 1.390 1_565 S
C483 H476 0.950 . S
C483 C480 1.387 . S
C484 C485 1.387 . S
C484 H488 0.950 . S
C484 C493 1.390 1_654 S
C485 C484 1.387 . S
C485 C487 1.387 . S
H486 C493 0.950 . S
C487 C485 1.387 . S
C487 C489 1.390 1_654 S
C487 H491 0.950 . S
H488 C484 0.950 . S
C489 C487 1.390 1_456 S
C489 C490 1.387 . S
C489 H492 0.950 . S
C490 C489 1.387 . S
C490 C493 1.387 . S
H491 C487 0.950 . S
H492 C489 0.950 . S
C493 C484 1.390 1_456 S
C493 H486 0.950 . S
C493 C490 1.387 . S
C494 C495 1.387 . S
C494 H498 0.950 . S
C494 C503 1.390 1_545 S
C495 C494 1.387 . S
C495 C497 1.387 . S
H496 C503 0.950 . S
C497 C495 1.387 . S
C497 C499 1.390 1_545 S
C497 H501 0.950 . S
H498 C494 0.950 . S
C499 C497 1.390 1_565 S
C499 C500 1.387 . S
C499 H502 0.950 . S
C500 C499 1.387 . S
C500 C503 1.387 . S
H501 C497 0.950 . S
H502 C499 0.950 . S
C503 C494 1.390 1_565 S
C503 H496 0.950 . S
C503 C500 1.387 . S
C504 C505 1.387 . S
C504 H508 0.950 . S
C504 C513 1.390 . S
C505 C504 1.387 . S
C505 C507 1.387 . S
H506 C513 0.950 . S
C507 C505 1.387 . S
C507 C509 1.390 . S
C507 H511 0.950 . S
H508 C504 0.950 . S
C509 C507 1.390 . S
C509 C510 1.387 . S
C509 H512 0.950 . S
C510 C509 1.387 . S
C510 C513 1.387 . S
H511 C507 0.950 . S
H512 C509 0.950 . S
C513 C504 1.390 . S
C513 H506 0.950 . S
C513 C510 1.387 . S
C514 C515 1.387 . S
C514 H518 0.950 . S
C514 C523 1.390 . S
C515 C514 1.387 . S
C515 C517 1.387 . S
H516 C523 0.950 . S
C517 C515 1.387 . S
C517 C519 1.390 . S
C517 H521 0.950 . S
H518 C514 0.950 . S
C519 C517 1.390 . S
C519 C520 1.387 . S
C519 H522 0.950 . S
C520 C519 1.387 . S
C520 C523 1.387 . S
H521 C517 0.950 . S
H522 C519 0.950 . S
C523 C514 1.390 . S
C523 H516 0.950 . S
C523 C520 1.387 . S
C524 C525 1.387 . S
C524 H528 0.950 . S
C524 C533 1.390 . S
C525 C524 1.387 . S
C525 C527 1.387 . S
H526 C533 0.950 . S
C527 C525 1.387 . S
C527 C529 1.390 . S
C527 H531 0.950 . S
H528 C524 0.950 . S
C529 C527 1.390 . S
C529 C530 1.387 . S
C529 H532 0.950 . S
C530 C529 1.387 . S
C530 C533 1.387 . S
H531 C527 0.950 . S
H532 C529 0.950 . S
C533 C524 1.390 . S
C533 H526 0.950 . S
C533 C530 1.387 . S
C534 C535 1.387 . S
C534 H538 0.950 . S
C534 C543 1.390 . S
C535 C534 1.387 . S
C535 C537 1.387 . S
H536 C543 0.950 . S
C537 C535 1.387 . S
C537 C539 1.390 . S
C537 H541 0.950 . S
H538 C534 0.950 . S
C539 C537 1.390 . S
C539 C540 1.387 . S
C539 H542 0.950 . S
C540 C539 1.387 . S
C540 C543 1.387 . S
H541 C537 0.950 . S
H542 C539 0.950 . S
C543 C534 1.390 . S
C543 H536 0.950 . S
C543 C540 1.387 . S
C544 C545 1.387 . S
C544 H548 0.950 . S
C544 C553 1.390 1_445 S
C545 C544 1.387 . S
C545 C547 1.387 . S
H546 C553 0.950 . S
C547 C545 1.387 . S
C547 C549 1.390 1_445 S
C547 H551 0.950 . S
H548 C544 0.950 . S
C549 C547 1.390 1_665 S
C549 C550 1.387 . S
C549 H552 0.950 . S
C550 C549 1.387 . S
C550 C553 1.387 . S
H551 C547 0.950 . S
H552 C549 0.950 . S
C553 C544 1.390 1_665 S
C553 H546 0.950 . S
C553 C550 1.387 . S
C554 C555 1.387 . S
C554 H558 0.950 . S
C554 C563 1.390 1_465 S
C555 C554 1.387 . S
C555 C557 1.387 . S
H556 C563 0.950 . S
C557 C555 1.387 . S
C557 C559 1.390 1_465 S
C557 H561 0.950 . S
H558 C554 0.950 . S
C559 C557 1.390 1_645 S
C559 C560 1.387 . S
C559 H562 0.950 . S
C560 C559 1.387 . S
C560 C563 1.387 . S
H561 C557 0.950 . S
H562 C559 0.950 . S
C563 C554 1.390 1_645 S
C563 H556 0.950 . S
C563 C560 1.387 . S
C564 C565 1.387 . S
C564 H568 0.950 . S
C564 C573 1.390 1_645 S
C565 C564 1.387 . S
C565 C567 1.387 . S
H566 C573 0.950 . S
C567 C565 1.387 . S
C567 C569 1.390 1_645 S
C567 H571 0.950 . S
H568 C564 0.950 . S
C569 C567 1.390 1_465 S
C569 C570 1.387 . S
C569 H572 0.950 . S
C570 C569 1.387 . S
C570 C573 1.387 . S
H571 C567 0.950 . S
H572 C569 0.950 . S
C573 C564 1.390 1_465 S
C573 H566 0.950 . S
C573 C570 1.387 . S
C574 C575 1.387 . S
C574 H578 0.950 . S
C574 C583 1.390 1_665 S
C575 C574 1.387 . S
C575 C577 1.387 . S
H576 C583 0.950 . S
C577 C575 1.387 . S
C577 C579 1.390 1_665 S
C577 H581 0.950 . S
H578 C574 0.950 . S
C579 C577 1.390 1_445 S
C579 C580 1.387 . S
C579 H582 0.950 . S
C580 C579 1.387 . S
C580 C583 1.387 . S
H581 C577 0.950 . S
H582 C579 0.950 . S
C583 C574 1.390 1_445 S
C583 H576 0.950 . S
C583 C580 1.387 . S
C425 C22 1.963 . S
C430 C128 1.963 . S
C435 C181 1.966 . S
C440 C75 1.966 . S
C445 C340 1.963 . S
C450 C234 1.963 . S
C455 C287 1.966 . S
C460 C393 1.966 . S
C465 C357 1.774 . S
C470 C39 1.774 . S
C475 C92 1.774 . S
C480 C410 1.774 . S
C485 C145 1.773 . S
C490 C251 1.773 . S
C495 C304 1.774 . S
C500 C198 1.774 . S
C505 C38 1.873 . S
C510 C303 1.873 . S
C515 C356 1.872 . S
C520 C91 1.872 . S
C525 C409 1.872 . S
C530 C144 1.872 . S
C535 C197 1.874 . S
C540 C250 1.874 . S
C545 C29 1.795 . S
C550 C135 1.795 . S
C555 C188 1.795 . S
C560 C82 1.795 . S
C565 C347 1.795 . S
C570 C241 1.795 . S
C575 C400 1.792 . S
C580 C294 1.792 . S
