# Generated by pormake.
# Topology wne, (6)-cn, num edge types: 1
# Building blocks:
#     Node 0, Type 0, BuildingBlock: MIDCAF_clean_sbu_0, # of connection points: 6
#     Node 1, Type 0, BuildingBlock: MIDCAF_clean_sbu_0, # of connection points: 6
#     Node 2, Type 0, BuildingBlock: MIDCAF_clean_sbu_0, # of connection points: 6
#     Node 3, Type 0, BuildingBlock: MIDCAF_clean_sbu_0, # of connection points: 6
#     Node 4, Type 0, BuildingBlock: MIDCAF_clean_sbu_0, # of connection points: 6
#     Node 5, Type 0, BuildingBlock: MIDCAF_clean_sbu_0, # of connection points: 6
#     Node 6, Type 0, BuildingBlock: MIDCAF_clean_sbu_0, # of connection points: 6
#     Node 7, Type 0, BuildingBlock: MIDCAF_clean_sbu_0, # of connection points: 6
#     Node 8, Type 0, BuildingBlock: MIDCAF_clean_sbu_0, # of connection points: 6
#     Node 9, Type 0, BuildingBlock: MIDCAF_clean_sbu_0, # of connection points: 6
#     Node 10, Type 0, BuildingBlock: MIDCAF_clean_sbu_0, # of connection points: 6
#     Node 11, Type 0, BuildingBlock: MIDCAF_clean_sbu_0, # of connection points: 6
#     Node 12, Type 0, BuildingBlock: MIDCAF_clean_sbu_0, # of connection points: 6
#     Node 13, Type 0, BuildingBlock: MIDCAF_clean_sbu_0, # of connection points: 6
#     Node 14, Type 0, BuildingBlock: MIDCAF_clean_sbu_0, # of connection points: 6
#     Node 15, Type 0, BuildingBlock: MIDCAF_clean_sbu_0, # of connection points: 6
#     Node 16, Type 0, BuildingBlock: MIDCAF_clean_sbu_0, # of connection points: 6
#     Node 17, Type 0, BuildingBlock: MIDCAF_clean_sbu_0, # of connection points: 6
#     Node 18, Type 0, BuildingBlock: MIDCAF_clean_sbu_0, # of connection points: 6
#     Node 19, Type 0, BuildingBlock: MIDCAF_clean_sbu_0, # of connection points: 6
#     Node 20, Type 0, BuildingBlock: MIDCAF_clean_sbu_0, # of connection points: 6
#     Node 21, Type 0, BuildingBlock: MIDCAF_clean_sbu_0, # of connection points: 6
#     Node 22, Type 0, BuildingBlock: MIDCAF_clean_sbu_0, # of connection points: 6
#     Node 23, Type 0, BuildingBlock: MIDCAF_clean_sbu_0, # of connection points: 6
#     Node 24, Type 0, BuildingBlock: MIDCAF_clean_sbu_0, # of connection points: 6
#     Node 25, Type 0, BuildingBlock: MIDCAF_clean_sbu_0, # of connection points: 6
#     Node 26, Type 0, BuildingBlock: MIDCAF_clean_sbu_0, # of connection points: 6
#     Node 27, Type 0, BuildingBlock: MIDCAF_clean_sbu_0, # of connection points: 6
#     Node 28, Type 0, BuildingBlock: MIDCAF_clean_sbu_0, # of connection points: 6
#     Node 29, Type 0, BuildingBlock: MIDCAF_clean_sbu_0, # of connection points: 6
#     Node 30, Type 0, BuildingBlock: MIDCAF_clean_sbu_0, # of connection points: 6
#     Node 31, Type 0, BuildingBlock: MIDCAF_clean_sbu_0, # of connection points: 6
#     Node 32, Type 0, BuildingBlock: MIDCAF_clean_sbu_0, # of connection points: 6
#     Node 33, Type 0, BuildingBlock: MIDCAF_clean_sbu_0, # of connection points: 6
#     Node 34, Type 0, BuildingBlock: MIDCAF_clean_sbu_0, # of connection points: 6
#     Node 35, Type 0, BuildingBlock: MIDCAF_clean_sbu_0, # of connection points: 6
#     Edge 36, Type (0, 0), BuildingBlock: AJUNOK_clean_linker_0, # of connection points: 2
#     Edge 37, Type (0, 0), BuildingBlock: AJUNOK_clean_linker_0, # of connection points: 2
#     Edge 38, Type (0, 0), BuildingBlock: AJUNOK_clean_linker_0, # of connection points: 2
#     Edge 39, Type (0, 0), BuildingBlock: AJUNOK_clean_linker_0, # of connection points: 2
#     Edge 40, Type (0, 0), BuildingBlock: AJUNOK_clean_linker_0, # of connection points: 2
#     Edge 41, Type (0, 0), BuildingBlock: AJUNOK_clean_linker_0, # of connection points: 2
#     Edge 42, Type (0, 0), BuildingBlock: AJUNOK_clean_linker_0, # of connection points: 2
#     Edge 43, Type (0, 0), BuildingBlock: AJUNOK_clean_linker_0, # of connection points: 2
#     Edge 44, Type (0, 0), BuildingBlock: AJUNOK_clean_linker_0, # of connection points: 2
#     Edge 45, Type (0, 0), BuildingBlock: AJUNOK_clean_linker_0, # of connection points: 2
#     Edge 46, Type (0, 0), BuildingBlock: AJUNOK_clean_linker_0, # of connection points: 2
#     Edge 47, Type (0, 0), BuildingBlock: AJUNOK_clean_linker_0, # of connection points: 2
#     Edge 48, Type (0, 0), BuildingBlock: AJUNOK_clean_linker_0, # of connection points: 2
#     Edge 49, Type (0, 0), BuildingBlock: AJUNOK_clean_linker_0, # of connection points: 2
#     Edge 50, Type (0, 0), BuildingBlock: AJUNOK_clean_linker_0, # of connection points: 2
#     Edge 51, Type (0, 0), BuildingBlock: AJUNOK_clean_linker_0, # of connection points: 2
#     Edge 52, Type (0, 0), BuildingBlock: AJUNOK_clean_linker_0, # of connection points: 2
#     Edge 53, Type (0, 0), BuildingBlock: AJUNOK_clean_linker_0, # of connection points: 2
#     Edge 54, Type (0, 0), BuildingBlock: AJUNOK_clean_linker_0, # of connection points: 2
#     Edge 55, Type (0, 0), BuildingBlock: AJUNOK_clean_linker_0, # of connection points: 2
#     Edge 56, Type (0, 0), BuildingBlock: AJUNOK_clean_linker_0, # of connection points: 2
#     Edge 57, Type (0, 0), BuildingBlock: AJUNOK_clean_linker_0, # of connection points: 2
#     Edge 58, Type (0, 0), BuildingBlock: AJUNOK_clean_linker_0, # of connection points: 2
#     Edge 59, Type (0, 0), BuildingBlock: AJUNOK_clean_linker_0, # of connection points: 2
#     Edge 60, Type (0, 0), BuildingBlock: AJUNOK_clean_linker_0, # of connection points: 2
#     Edge 61, Type (0, 0), BuildingBlock: AJUNOK_clean_linker_0, # of connection points: 2
#     Edge 62, Type (0, 0), BuildingBlock: AJUNOK_clean_linker_0, # of connection points: 2
#     Edge 63, Type (0, 0), BuildingBlock: AJUNOK_clean_linker_0, # of connection points: 2
#     Edge 64, Type (0, 0), BuildingBlock: AJUNOK_clean_linker_0, # of connection points: 2
#     Edge 65, Type (0, 0), BuildingBlock: AJUNOK_clean_linker_0, # of connection points: 2
#     Edge 66, Type (0, 0), BuildingBlock: AJUNOK_clean_linker_0, # of connection points: 2
#     Edge 67, Type (0, 0), BuildingBlock: AJUNOK_clean_linker_0, # of connection points: 2
#     Edge 68, Type (0, 0), BuildingBlock: AJUNOK_clean_linker_0, # of connection points: 2
#     Edge 69, Type (0, 0), BuildingBlock: AJUNOK_clean_linker_0, # of connection points: 2
#     Edge 70, Type (0, 0), BuildingBlock: AJUNOK_clean_linker_0, # of connection points: 2
#     Edge 71, Type (0, 0), BuildingBlock: AJUNOK_clean_linker_0, # of connection points: 2
#     Edge 72, Type (0, 0), BuildingBlock: AJUNOK_clean_linker_0, # of connection points: 2
#     Edge 73, Type (0, 0), BuildingBlock: AJUNOK_clean_linker_0, # of connection points: 2
#     Edge 74, Type (0, 0), BuildingBlock: AJUNOK_clean_linker_0, # of connection points: 2
#     Edge 75, Type (0, 0), BuildingBlock: AJUNOK_clean_linker_0, # of connection points: 2
#     Edge 76, Type (0, 0), BuildingBlock: AJUNOK_clean_linker_0, # of connection points: 2
#     Edge 77, Type (0, 0), BuildingBlock: AJUNOK_clean_linker_0, # of connection points: 2
#     Edge 78, Type (0, 0), BuildingBlock: AJUNOK_clean_linker_0, # of connection points: 2
#     Edge 79, Type (0, 0), BuildingBlock: AJUNOK_clean_linker_0, # of connection points: 2
#     Edge 80, Type (0, 0), BuildingBlock: AJUNOK_clean_linker_0, # of connection points: 2
#     Edge 81, Type (0, 0), BuildingBlock: AJUNOK_clean_linker_0, # of connection points: 2
#     Edge 82, Type (0, 0), BuildingBlock: AJUNOK_clean_linker_0, # of connection points: 2
#     Edge 83, Type (0, 0), BuildingBlock: AJUNOK_clean_linker_0, # of connection points: 2
#     Edge 84, Type (0, 0), BuildingBlock: AJUNOK_clean_linker_0, # of connection points: 2
#     Edge 85, Type (0, 0), BuildingBlock: AJUNOK_clean_linker_0, # of connection points: 2
#     Edge 86, Type (0, 0), BuildingBlock: AJUNOK_clean_linker_0, # of connection points: 2
#     Edge 87, Type (0, 0), BuildingBlock: AJUNOK_clean_linker_0, # of connection points: 2
#     Edge 88, Type (0, 0), BuildingBlock: AJUNOK_clean_linker_0, # of connection points: 2
#     Edge 89, Type (0, 0), BuildingBlock: AJUNOK_clean_linker_0, # of connection points: 2
#     Edge 90, Type (0, 0), BuildingBlock: AJUNOK_clean_linker_0, # of connection points: 2
#     Edge 91, Type (0, 0), BuildingBlock: AJUNOK_clean_linker_0, # of connection points: 2
#     Edge 92, Type (0, 0), BuildingBlock: AJUNOK_clean_linker_0, # of connection points: 2
#     Edge 93, Type (0, 0), BuildingBlock: AJUNOK_clean_linker_0, # of connection points: 2
#     Edge 94, Type (0, 0), BuildingBlock: AJUNOK_clean_linker_0, # of connection points: 2
#     Edge 95, Type (0, 0), BuildingBlock: AJUNOK_clean_linker_0, # of connection points: 2
#     Edge 96, Type (0, 0), BuildingBlock: AJUNOK_clean_linker_0, # of connection points: 2
#     Edge 97, Type (0, 0), BuildingBlock: AJUNOK_clean_linker_0, # of connection points: 2
#     Edge 98, Type (0, 0), BuildingBlock: AJUNOK_clean_linker_0, # of connection points: 2
#     Edge 99, Type (0, 0), BuildingBlock: AJUNOK_clean_linker_0, # of connection points: 2
#     Edge 100, Type (0, 0), BuildingBlock: AJUNOK_clean_linker_0, # of connection points: 2
#     Edge 101, Type (0, 0), BuildingBlock: AJUNOK_clean_linker_0, # of connection points: 2
#     Edge 102, Type (0, 0), BuildingBlock: AJUNOK_clean_linker_0, # of connection points: 2
#     Edge 103, Type (0, 0), BuildingBlock: AJUNOK_clean_linker_0, # of connection points: 2
#     Edge 104, Type (0, 0), BuildingBlock: AJUNOK_clean_linker_0, # of connection points: 2
#     Edge 105, Type (0, 0), BuildingBlock: AJUNOK_clean_linker_0, # of connection points: 2
#     Edge 106, Type (0, 0), BuildingBlock: AJUNOK_clean_linker_0, # of connection points: 2
#     Edge 107, Type (0, 0), BuildingBlock: AJUNOK_clean_linker_0, # of connection points: 2
#     Edge 108, Type (0, 0), BuildingBlock: AJUNOK_clean_linker_0, # of connection points: 2
#     Edge 109, Type (0, 0), BuildingBlock: AJUNOK_clean_linker_0, # of connection points: 2
#     Edge 110, Type (0, 0), BuildingBlock: AJUNOK_clean_linker_0, # of connection points: 2
#     Edge 111, Type (0, 0), BuildingBlock: AJUNOK_clean_linker_0, # of connection points: 2
#     Edge 112, Type (0, 0), BuildingBlock: AJUNOK_clean_linker_0, # of connection points: 2
#     Edge 113, Type (0, 0), BuildingBlock: AJUNOK_clean_linker_0, # of connection points: 2
#     Edge 114, Type (0, 0), BuildingBlock: AJUNOK_clean_linker_0, # of connection points: 2
#     Edge 115, Type (0, 0), BuildingBlock: AJUNOK_clean_linker_0, # of connection points: 2
#     Edge 116, Type (0, 0), BuildingBlock: AJUNOK_clean_linker_0, # of connection points: 2
#     Edge 117, Type (0, 0), BuildingBlock: AJUNOK_clean_linker_0, # of connection points: 2
#     Edge 118, Type (0, 0), BuildingBlock: AJUNOK_clean_linker_0, # of connection points: 2
#     Edge 119, Type (0, 0), BuildingBlock: AJUNOK_clean_linker_0, # of connection points: 2
#     Edge 120, Type (0, 0), BuildingBlock: AJUNOK_clean_linker_0, # of connection points: 2
#     Edge 121, Type (0, 0), BuildingBlock: AJUNOK_clean_linker_0, # of connection points: 2
#     Edge 122, Type (0, 0), BuildingBlock: AJUNOK_clean_linker_0, # of connection points: 2
#     Edge 123, Type (0, 0), BuildingBlock: AJUNOK_clean_linker_0, # of connection points: 2
#     Edge 124, Type (0, 0), BuildingBlock: AJUNOK_clean_linker_0, # of connection points: 2
#     Edge 125, Type (0, 0), BuildingBlock: AJUNOK_clean_linker_0, # of connection points: 2
#     Edge 126, Type (0, 0), BuildingBlock: AJUNOK_clean_linker_0, # of connection points: 2
#     Edge 127, Type (0, 0), BuildingBlock: AJUNOK_clean_linker_0, # of connection points: 2
#     Edge 128, Type (0, 0), BuildingBlock: AJUNOK_clean_linker_0, # of connection points: 2
#     Edge 129, Type (0, 0), BuildingBlock: AJUNOK_clean_linker_0, # of connection points: 2
#     Edge 130, Type (0, 0), BuildingBlock: AJUNOK_clean_linker_0, # of connection points: 2
#     Edge 131, Type (0, 0), BuildingBlock: AJUNOK_clean_linker_0, # of connection points: 2
#     Edge 132, Type (0, 0), BuildingBlock: AJUNOK_clean_linker_0, # of connection points: 2
#     Edge 133, Type (0, 0), BuildingBlock: AJUNOK_clean_linker_0, # of connection points: 2
#     Edge 134, Type (0, 0), BuildingBlock: AJUNOK_clean_linker_0, # of connection points: 2
#     Edge 135, Type (0, 0), BuildingBlock: AJUNOK_clean_linker_0, # of connection points: 2
#     Edge 136, Type (0, 0), BuildingBlock: AJUNOK_clean_linker_0, # of connection points: 2
#     Edge 137, Type (0, 0), BuildingBlock: AJUNOK_clean_linker_0, # of connection points: 2
#     Edge 138, Type (0, 0), BuildingBlock: AJUNOK_clean_linker_0, # of connection points: 2
#     Edge 139, Type (0, 0), BuildingBlock: AJUNOK_clean_linker_0, # of connection points: 2
#     Edge 140, Type (0, 0), BuildingBlock: AJUNOK_clean_linker_0, # of connection points: 2
#     Edge 141, Type (0, 0), BuildingBlock: AJUNOK_clean_linker_0, # of connection points: 2
#     Edge 142, Type (0, 0), BuildingBlock: AJUNOK_clean_linker_0, # of connection points: 2
#     Edge 143, Type (0, 0), BuildingBlock: AJUNOK_clean_linker_0, # of connection points: 2
# Relax obj value: 0.206
# Max RMSD: 0.143
# Mean RMSD: 0.143
data_MOF--net-wne--node1-MIDCAF_clean_sbu_0--edge1-AJUNOK_clean_linker_0
_symmetry_space_group_name_H-M    P1
_symmetry_Int_Tables_number       1
_symmetry_cell_setting            triclinic
loop_
_symmetry_equiv_pos_as_xyz
'x, y, z'
_cell_length_a     45.595174
_cell_length_b     45.609853
_cell_length_c     30.174706
_cell_angle_alpha  89.894437
_cell_angle_beta   90.122701
_cell_angle_gamma 120.13346
loop_
_atom_site_label
_atom_site_type_symbol
_atom_site_fract_x
_atom_site_fract_y
_atom_site_fract_z
_atom_type_partial_charge
Zn0 Zn 0.26855 0.1615 0.03641 0.0
Zn1 Zn 0.20426 0.21439 0.07695 0.0
Zn2 Zn 0.23687 0.18953 0.06917 0.0
C3 C 0.20566 0.19183 0.15876 0.0
C4 C 0.16599 0.17045 0.02184 0.0
O5 O 0.27615 0.22522 0.0203 0.0
O6 O 0.29462 0.19379 0.98875 0.0
C7 C 0.28126 0.17286 0.12951 0.0
O8 O 0.23289 0.19453 0.14188 0.0
O9 O 0.18325 0.191 0.13332 0.0
O10 O 0.17533 0.20151 0.02406 0.0
O11 O 0.1838 0.15938 0.04115 0.0
O12 O 0.29067 0.16551 0.09398 0.0
O13 O 0.25787 0.18076 0.12948 0.0
O14 O 0.20051 0.14138 0.03682 0.0
O15 O 0.2304 0.11716 0.01887 0.0
C16 C 0.20235 0.11623 0.02099 0.0
O17 O 0.26794 0.24238 0.04888 0.0
O18 O 0.23904 0.26171 0.08467 0.0
C19 C 0.29429 0.22122 0.99078 0.0
C20 C 0.26571 0.26712 0.06534 0.0
Zn21 Zn 0.8392 0.10271 0.02852 0.0
Zn22 Zn 0.77 0.98633 0.0778 0.0
Zn23 Zn 0.8055 0.04913 0.06991 0.0
C24 C 0.79451 0.01821 0.16203 0.0
C25 C 0.82066 0.99151 0.03014 0.0
O26 O 0.77255 0.05633 0.02184 0.0
O27 O 0.80946 0.09706 0.97831 0.0
C28 C 0.83098 0.11591 0.11985 0.0
O29 O 0.80298 0.04631 0.1421 0.0
O30 O 0.78293 0.99087 0.14061 0.0
O31 O 0.79091 0.96839 0.03881 0.0
O32 O 0.83096 0.02233 0.04179 0.0
O33 O 0.83865 0.1278 0.08104 0.0
O34 O 0.81891 0.08398 0.12649 0.0
O35 O 0.85472 0.05573 0.04233 0.0
O36 O 0.88296 0.10765 0.01498 0.0
C37 C 0.88183 0.08032 0.02499 0.0
O38 O 0.75147 0.02962 0.04891 0.0
O39 O 0.72342 0.97513 0.06579 0.0
C40 C 0.77934 0.07465 0.98672 0.0
C41 C 0.72332 0.00122 0.05237 0.0
Zn42 Zn 0.89806 0.73829 0.04004 0.0
Zn43 Zn 0.01146 0.79467 0.06052 0.0
Zn44 Zn 0.95214 0.76436 0.06344 0.0
C45 C 0.99008 0.78724 0.15118 0.0
C46 C 0.00192 0.83814 0.01786 0.0
O47 O 0.94477 0.72474 0.01614 0.0
O48 O 0.90799 0.73167 0.97728 0.0
C49 C 0.89734 0.71195 0.11982 0.0
O50 O 0.96086 0.76741 0.13404 0.0
O51 O 0.01511 0.80473 0.12603 0.0
O52 O 0.02565 0.83161 0.01874 0.0
O53 O 0.97309 0.81716 0.0353 0.0
O54 O 0.88472 0.70073 0.08217 0.0
O55 O 0.92285 0.74216 0.12361 0.0
O56 O 0.93736 0.79826 0.02985 0.0
O57 O 0.88461 0.77272 0.05291 0.0
C58 C 0.90909 0.79782 0.03436 0.0
O59 O 0.97089 0.72938 0.04594 0.0
O60 O 0.02632 0.76272 0.04905 0.0
C61 C 0.92795 0.72015 0.98014 0.0
C62 C 0.00084 0.73337 0.04948 0.0
Zn63 Zn 0.20729 0.2037 0.41172 0.0
Zn64 Zn 0.16218 0.26145 0.47964 0.0
Zn65 Zn 0.18822 0.23774 0.43731 0.0
C66 C 0.11278 0.19658 0.47552 0.0
C67 C 0.17239 0.28751 0.3936 0.0
O68 O 0.24186 0.2659 0.45264 0.0
O69 O 0.25248 0.24258 0.39574 0.0
C70 C 0.17605 0.16872 0.48105 0.0
O71 O 0.14 0.19618 0.46553 0.0
O72 O 0.11402 0.22452 0.48145 0.0
O73 O 0.17289 0.29647 0.43332 0.0
O74 O 0.17365 0.26058 0.38514 0.0
O75 O 0.20333 0.17449 0.46299 0.0
O76 O 0.16282 0.1869 0.47036 0.0
O77 O 0.18881 0.23754 0.3633 0.0
O78 O 0.17442 0.18384 0.36208 0.0
C79 C 0.17993 0.21014 0.34125 0.0
O80 O 0.22674 0.27754 0.48376 0.0
O81 O 0.19094 0.27551 0.53419 0.0
C82 C 0.26264 0.26615 0.42375 0.0
C83 C 0.22113 0.2858 0.52244 0.0
Zn84 Zn 0.79725 0.01051 0.42197 0.0
Zn85 Zn 0.73576 0.90254 0.46374 0.0
Zn86 Zn 0.76192 0.95556 0.43641 0.0
C87 C 0.79264 0.9233 0.50271 0.0
C88 C 0.728 0.88842 0.38136 0.0
O89 O 0.73614 0.98259 0.46051 0.0
O90 O 0.76488 0.0256 0.41534 0.0
C91 C 0.83725 0.00576 0.47246 0.0
O92 O 0.79736 0.94214 0.46863 0.0
O93 O 0.76301 0.90478 0.51711 0.0
O94 O 0.7391 0.87796 0.41221 0.0
O95 O 0.73394 0.91912 0.38292 0.0
O96 O 0.82945 0.02863 0.47144 0.0
O97 O 0.81687 0.97648 0.45563 0.0
O98 O 0.75913 0.95941 0.36499 0.0
O99 O 0.81237 0.00061 0.36529 0.0
C100 C 0.78627 0.97996 0.34395 0.0
O101 O 0.72567 0.95113 0.48839 0.0
O102 O 0.69041 0.89841 0.47135 0.0
C103 C 0.73976 0.00899 0.44023 0.0
C104 C 0.69793 0.92331 0.49627 0.0
Zn105 Zn 0.99076 0.78164 0.42099 0.0
Zn106 Zn 0.10236 0.84081 0.46884 0.0
Zn107 Zn 0.04756 0.81017 0.43301 0.0
C108 C 0.07661 0.8765 0.49965 0.0
C109 C 0.11489 0.84341 0.3787 0.0
O110 O 0.02069 0.75514 0.45106 0.0
O111 O 0.97029 0.74661 0.4678 0.0
C112 C 0.9945 0.83774 0.44304 0.0
O113 O 0.05507 0.85613 0.47083 0.0
O114 O 0.1014 0.87311 0.51056 0.0
O115 O 0.12889 0.85862 0.41417 0.0
O116 O 0.08261 0.82339 0.37721 0.0
O117 O 0.97537 0.81461 0.4167 0.0
O118 O 0.02187 0.83878 0.45659 0.0
O119 O 0.04403 0.80873 0.3596 0.0
O120 O 0.99322 0.76379 0.36302 0.0
C121 C 0.01741 0.78537 0.33991 0.0
O122 O 0.05356 0.77276 0.47375 0.0
O123 O 0.10677 0.80412 0.49489 0.0
C124 C 0.98941 0.73453 0.46083 0.0
C125 C 0.07988 0.77579 0.49368 0.0
Zn126 Zn 0.74153 0.83795 0.97184 0.0
Zn127 Zn 0.81181 0.7659 0.89543 0.0
Zn128 Zn 0.75944 0.81039 0.91934 0.0
C129 C 0.774 0.79697 0.82871 0.0
C130 C 0.8329 0.83236 0.92193 0.0
O131 O 0.72211 0.76996 0.96515 0.0
O132 O 0.7178 0.80258 0.01543 0.0
C133 C 0.7154 0.83522 0.88324 0.0
O134 O 0.75643 0.80856 0.84697 0.0
O135 O 0.78824 0.78527 0.85379 0.0
O136 O 0.82342 0.81414 0.88765 0.0
O137 O 0.8114 0.83909 0.93888 0.0
O138 O 0.71475 0.84259 0.92342 0.0
O139 O 0.73317 0.82212 0.87086 0.0
O140 O 0.80061 0.86207 0.94619 0.0
O141 O 0.77716 0.88082 0.99385 0.0
C142 C 0.80269 0.88554 0.97216 0.0
O143 O 0.74014 0.75531 0.9297 0.0
O144 O 0.77633 0.73673 0.94194 0.0
C145 C 0.71055 0.7735 0.00243 0.0
C146 C 0.7461 0.73087 0.93717 0.0
Zn147 Zn 0.21004 0.00341 0.91732 0.0
Zn148 Zn 0.15182 0.89745 0.97783 0.0
Zn149 Zn 0.18396 0.94963 0.93177 0.0
C150 C 0.11069 0.92225 0.98351 0.0
C151 C 0.15749 0.87868 0.88967 0.0
O152 O 0.24015 0.97638 0.94944 0.0
O153 O 0.25639 0.0301 0.93688 0.0
C154 C 0.15866 0.00601 0.93236 0.0
O155 O 0.13613 0.94492 0.96104 0.0
O156 O 0.11029 0.89575 0.9961 0.0
O157 O 0.14842 0.86738 0.9285 0.0
O158 O 0.17113 0.91062 0.88163 0.0
O159 O 0.18212 0.02338 0.90552 0.0
O160 O 0.15588 0.97814 0.94756 0.0
O161 O 0.18635 0.9463 0.85822 0.0
O162 O 0.20543 0.00098 0.85449 0.0
C163 C 0.19538 0.97328 0.835 0.0
O164 O 0.22038 0.95068 0.98287 0.0
O165 O 0.18474 0.90826 0.0253 0.0
C166 C 0.26392 0.00776 0.94632 0.0
C167 C 0.214 0.93309 0.0187 0.0
Zn168 Zn 0.09748 0.25625 0.98179 0.0
Zn169 Zn 0.9872 0.2088 0.92827 0.0
Zn170 Zn 0.0467 0.23556 0.93435 0.0
C171 C 0.01549 0.21662 0.84263 0.0
C172 C 0.98914 0.16147 0.97137 0.0
O173 O 0.05073 0.27341 0.98546 0.0
O174 O 0.08637 0.27398 0.0353 0.0
C175 C 0.11344 0.28383 0.89234 0.0
O176 O 0.04326 0.23779 0.86226 0.0
O177 O 0.98968 0.19747 0.86559 0.0
O178 O 0.96779 0.17128 0.97004 0.0
O179 O 0.01938 0.18078 0.9564 0.0
O180 O 0.1235 0.28779 0.93218 0.0
O181 O 0.08307 0.26074 0.88228 0.0
O182 O 0.05365 0.19261 0.95805 0.0
O183 O 0.10432 0.21776 0.98931 0.0
C184 C 0.07861 0.19114 0.97584 0.0
O185 O 0.02823 0.2708 0.95282 0.0
O186 O 0.97464 0.24362 0.93177 0.0
C187 C 0.06526 0.28265 0.02367 0.0
C188 C 0.00049 0.27062 0.9438 0.0
Zn189 Zn 0.84046 0.74366 0.52073 0.0
Zn190 Zn 0.77066 0.77676 0.54287 0.0
Zn191 Zn 0.81063 0.76418 0.55309 0.0
C192 C 0.78414 0.78011 0.63819 0.0
C193 C 0.82513 0.83791 0.56356 0.0
O194 O 0.78153 0.73968 0.4927 0.0
O195 O 0.80505 0.70838 0.4831 0.0
C196 C 0.83201 0.72238 0.60819 0.0
O197 O 0.79499 0.76065 0.62359 0.0
O198 O 0.77381 0.79376 0.6099 0.0
O199 O 0.79365 0.82307 0.57265 0.0
O200 O 0.83801 0.81982 0.55192 0.0
O201 O 0.85213 0.72927 0.57613 0.0
O202 O 0.80935 0.73131 0.60689 0.0
O203 O 0.86294 0.80855 0.54264 0.0
O204 O 0.87733 0.7837 0.49155 0.0
C205 C 0.88394 0.81001 0.513 0.0
O206 O 0.77062 0.72499 0.59785 0.0
O207 O 0.73381 0.72902 0.55427 0.0
C208 C 0.7825 0.71547 0.47285 0.0
C209 C 0.7398 0.7127 0.58348 0.0
Zn210 Zn 0.24975 0.09351 0.51296 0.0
Zn211 Zn 0.21908 0.9905 0.55525 0.0
Zn212 Zn 0.23817 0.04916 0.56847 0.0
C213 C 0.21455 0.99689 0.64582 0.0
C214 C 0.16988 0.99829 0.52784 0.0
O215 O 0.26708 0.04907 0.5089 0.0
O216 O 0.26499 0.08271 0.45869 0.0
C217 C 0.28567 0.12374 0.59142 0.0
O218 O 0.23707 0.02675 0.633 0.0
O219 O 0.19813 0.97432 0.61705 0.0
O220 O 0.18832 0.9899 0.50624 0.0
O221 O 0.18321 0.01886 0.56037 0.0
O222 O 0.28554 0.13032 0.55079 0.0
O223 O 0.26622 0.09382 0.60557 0.0
O224 O 0.19372 0.05824 0.56854 0.0
O225 O 0.20673 0.0921 0.51043 0.0
C226 C 0.18687 0.07615 0.54183 0.0
O227 O 0.27142 0.03668 0.6067 0.0
O228 O 0.26832 0.00272 0.5529 0.0
C229 C 0.27428 0.06205 0.47004 0.0
C230 C 0.28422 0.02117 0.5859 0.0
Zn231 Zn 0.01118 0.22102 0.56167 0.0
Zn232 Zn 0.89488 0.1526 0.51531 0.0
Zn233 Zn 0.94836 0.1861 0.5635 0.0
C234 C 0.92024 0.11162 0.51465 0.0
C235 C 0.87529 0.15906 0.60275 0.0
O236 O 0.97031 0.24092 0.54312 0.0
O237 O 0.02589 0.26488 0.53606 0.0
C238 C 0.0071 0.1654 0.53765 0.0
O239 O 0.94244 0.13742 0.53695 0.0
O240 O 0.89398 0.11085 0.50011 0.0
O241 O 0.865 0.15078 0.5634 0.0
O242 O 0.90697 0.17129 0.6119 0.0
O243 O 0.0307 0.19575 0.53926 0.0
O244 O 0.97619 0.15787 0.54528 0.0
O245 O 0.95888 0.1953 0.63542 0.0
O246 O 0.01418 0.22291 0.6262 0.0
C247 C 0.9891 0.21045 0.65188 0.0
O248 O 0.94447 0.21893 0.50993 0.0
O249 O 0.90288 0.18329 0.46635 0.0
C250 C -0.00028 0.26753 0.53678 0.0
C251 C 0.92676 0.2128 0.47418 0.0
Zn252 Zn 0.93062 0.49241 0.36904 0.0
Zn253 Zn 0.84597 0.5542 0.45095 0.0
Zn254 Zn 0.90866 0.52295 0.40717 0.0
C255 C 0.89442 0.53575 0.48953 0.0
C256 C 0.82247 0.49761 0.38688 0.0
O257 O 0.94708 0.56114 0.35987 0.0
O258 O 0.96363 0.52776 0.32986 0.0
C259 C 0.9485 0.49164 0.45673 0.0
O260 O 0.91496 0.52556 0.47954 0.0
O261 O 0.88061 0.54142 0.45733 0.0
O262 O 0.81568 0.5163 0.4112 0.0
O263 O 0.85233 0.50017 0.38588 0.0
O264 O 0.94909 0.47973 0.41934 0.0
O265 O 0.93392 0.50951 0.4611 0.0
O266 O 0.86521 0.4764 0.37876 0.0
O267 O 0.89143 0.45449 0.34214 0.0
C268 C 0.86428 0.45253 0.35505 0.0
O269 O 0.93372 0.57641 0.39013 0.0
O270 O 0.8938 0.5822 0.42368 0.0
C271 C 0.96585 0.55639 0.33228 0.0
C272 C 0.92271 0.59538 0.40535 0.0
Zn273 Zn 0.50201 0.4307 0.36244 0.0
Zn274 Zn 0.47001 0.33136 0.429 0.0
Zn275 Zn 0.47836 0.3815 0.39783 0.0
C276 C 0.48812 0.368 0.49979 0.0
C277 C 0.50213 0.32878 0.36022 0.0
O278 O 0.43982 0.38169 0.35122 0.0
O279 O 0.47987 0.41293 0.30363 0.0
C280 C 0.48745 0.44577 0.44034 0.0
O281 O 0.4786 0.38351 0.47257 0.0
O282 O 0.49612 0.34722 0.48466 0.0
O283 O 0.48267 0.30681 0.38767 0.0
O284 O 0.50613 0.3589 0.3613 0.0
O285 O 0.48306 0.45179 0.40086 0.0
O286 O 0.49147 0.42037 0.44898 0.0
O287 O 0.52646 0.39234 0.36556 0.0
O288 O 0.5512 0.44749 0.37185 0.0
C289 C 0.55365 0.42153 0.36573 0.0
O290 O 0.425 0.35371 0.38387 0.0
O291 O 0.42101 0.31703 0.43426 0.0
C292 C 0.44865 0.39458 0.31202 0.0
C293 C 0.40688 0.32926 0.41053 0.0
Zn294 Zn 0.66424 0.11543 0.42995 0.0
Zn295 Zn 0.56809 0.07404 0.34455 0.0
Zn296 Zn 0.61376 0.09313 0.39884 0.0
C297 C 0.59378 0.14092 0.33874 0.0
C298 C 0.54247 0.05172 0.43362 0.0
O299 O 0.63997 0.06462 0.38497 0.0
O300 O 0.6906 0.10921 0.38206 0.0
C301 C 0.67351 0.17105 0.40442 0.0
O302 O 0.6136 0.13801 0.36675 0.0
O303 O 0.57024 0.11473 0.32082 0.0
O304 O 0.53467 0.04926 0.39304 0.0
O305 O 0.57336 0.0705 0.44612 0.0
O306 O 0.6768 0.16295 0.44332 0.0
O307 O 0.64972 0.14809 0.38005 0.0
O308 O 0.60825 0.09039 0.47382 0.0
O309 O 0.65237 0.08389 0.48066 0.0
C310 C 0.62871 0.08598 0.49892 0.0
O311 O 0.60968 0.04951 0.35652 0.0
O312 O 0.57484 0.0452 0.30284 0.0
C313 C 0.67227 0.07736 0.38269 0.0
C314 C 0.59399 0.03582 0.31995 0.0
Zn315 Zn 0.88375 0.54521 0.75408 0.0
Zn316 Zn 0.82309 0.5944 0.79766 0.0
Zn317 Zn 0.85338 0.57339 0.76383 0.0
C318 C 0.77614 0.53254 0.79625 0.0
C319 C 0.84112 0.62472 0.71725 0.0
O320 O 0.90633 0.60695 0.78946 0.0
O321 O 0.9306 0.57896 0.76474 0.0
C322 C 0.83421 0.49784 0.79828 0.0
O323 O 0.80477 0.53336 0.7941 0.0
O324 O 0.77527 0.55924 0.78886 0.0
O325 O 0.83952 0.63268 0.75676 0.0
O326 O 0.84224 0.59764 0.7087 0.0
O327 O 0.86458 0.50567 0.79227 0.0
O328 O 0.82433 0.51889 0.78746 0.0
O329 O 0.85925 0.57596 0.6907 0.0
O330 O 0.87369 0.53644 0.69093 0.0
C331 C 0.86687 0.5561 0.66972 0.0
O332 O 0.88417 0.61215 0.81419 0.0
O333 O 0.84271 0.60425 0.85887 0.0
C334 C 0.93316 0.60492 0.78298 0.0
C335 C 0.87405 0.61727 0.8517 0.0
Zn336 Zn 0.44823 0.34022 0.77494 0.0
Zn337 Zn 0.40333 0.23521 0.80395 0.0
Zn338 Zn 0.42596 0.28547 0.76529 0.0
C339 C 0.46594 0.24559 0.78642 0.0
C340 C 0.37375 0.226 0.71647 0.0
O341 O 0.39635 0.30057 0.72111 0.0
O342 O 0.40245 0.33732 0.77253 0.0
C343 C 0.49151 0.32897 0.8142 0.0
O344 O 0.46722 0.27182 0.76832 0.0
O345 O 0.43994 0.225 0.80785 0.0
O346 O 0.37202 0.21273 0.75388 0.0
O347 O 0.39555 0.25734 0.70973 0.0
O348 O 0.4733 0.34007 0.83013 0.0
O349 O 0.48038 0.30947 0.78021 0.0
O350 O 0.42689 0.30268 0.69589 0.0
O351 O 0.47302 0.34996 0.71397 0.0
C352 C 0.4544 0.32973 0.68389 0.0
O353 O 0.39777 0.28874 0.82277 0.0
O354 O 0.38345 0.24143 0.8582 0.0
C355 C 0.38698 0.32046 0.73839 0.0
C356 C 0.38328 0.26891 0.8555 0.0
Zn357 Zn 0.65396 0.09655 0.78164 0.0
Zn358 Zn 0.75718 0.17244 0.80999 0.0
Zn359 Zn 0.70832 0.13996 0.76795 0.0
C360 C 0.73875 0.21849 0.79722 0.0
C361 C 0.77508 0.15556 0.72604 0.0
O362 O 0.70867 0.10252 0.72064 0.0
O363 O 0.67017 0.06369 0.7648 0.0
C364 C 0.64958 0.15485 0.76235 0.0
O365 O 0.71788 0.19356 0.77262 0.0
O366 O 0.75903 0.21508 0.82213 0.0
O367 O 0.78652 0.17225 0.76147 0.0
O368 O 0.74295 0.13945 0.71894 0.0
O369 O 0.63172 0.12293 0.75679 0.0
O370 O 0.68138 0.16795 0.76944 0.0
O371 O 0.69059 0.12246 0.69993 0.0
O372 O 0.63668 0.09994 0.71711 0.0
C373 C 0.65959 0.11028 0.68734 0.0
O374 O 0.70298 0.10971 0.82767 0.0
O375 O 0.75127 0.1436 0.86078 0.0
C376 C 0.69255 0.07156 0.73509 0.0
C377 C 0.7237 0.11588 0.85961 0.0
Zn378 Zn 0.41083 0.17401 0.32708 0.0
Zn379 Zn 0.45144 0.11577 0.2932 0.0
Zn380 Zn 0.42612 0.14552 0.26937 0.0
C381 C 0.45189 0.11928 0.19839 0.0
C382 C 0.4974 0.16799 0.32217 0.0
O383 O 0.39246 0.11467 0.32267 0.0
O384 O 0.40685 0.14645 0.38178 0.0
C385 C 0.37294 0.16602 0.25286 0.0
O386 O 0.42493 0.11916 0.21034 0.0
O387 O 0.47301 0.12264 0.22833 0.0
O388 O 0.47921 0.14192 0.34497 0.0
O389 O 0.48364 0.17378 0.2882 0.0
O390 O 0.36751 0.16214 0.29407 0.0
O391 O 0.39935 0.16714 0.23683 0.0
O392 O 0.47193 0.19667 0.27034 0.0
O393 O 0.44961 0.21983 0.31293 0.0
C394 C 0.47272 0.22316 0.28678 0.0
O395 O 0.39918 0.09086 0.24841 0.0
O396 O 0.41287 0.07087 0.30596 0.0
C397 C 0.38969 0.1175 0.36425 0.0
C398 C 0.39522 0.06542 0.27144 0.0
Zn399 Zn 0.80786 0.19318 0.31392 0.0
Zn400 Zn 0.8986 0.38166 0.20858 0.0
Zn401 Zn 0.85234 0.28516 0.25435 0.0
C402 C 0.86889 0.31226 0.16838 0.0
C403 C 0.83499 0.35055 0.2672 0.0
O404 O 0.88101 0.27182 0.30653 0.0
O405 O 0.8552 0.21979 0.34017 0.0
C406 C 0.82511 0.22048 0.21862 0.0
O407 O 0.85294 0.28138 0.1809 0.0
O408 O 0.88116 0.33334 0.19937 0.0
O409 O 0.85757 0.37478 0.24347 0.0
O410 O 0.83313 0.32124 0.272 0.0
O411 O 0.81578 0.2199 0.25813 0.0
O412 O 0.83792 0.24934 0.19973 0.0
O413 O 0.80914 0.28402 0.28762 0.0
O414 O 0.8085 0.23692 0.29566 0.0
C415 C 0.79492 0.25455 0.30471 0.0
O416 O 0.90305 0.30339 0.27871 0.0
O417 O 0.90247 0.34418 0.24354 0.0
C418 C 0.88061 0.24972 0.33451 0.0
C419 C 0.91994 0.33284 0.2617 0.0
Zn420 Zn 0.76869 0.58381 0.31687 0.0
Zn421 Zn 0.64482 0.53896 0.28012 0.0
Zn422 Zn 0.72137 0.57057 0.25702 0.0
C423 C 0.66121 0.54231 0.18215 0.0
C424 C 0.66312 0.49318 0.26799 0.0
O425 O 0.7237 0.60654 0.30798 0.0
O426 O 0.75856 0.60907 0.36039 0.0
C427 C 0.80048 0.61266 0.23725 0.0
O428 O 0.69169 0.56344 0.19531 0.0
O429 O 0.63846 0.52459 0.21099 0.0
O430 O 0.64415 0.50022 0.24543 0.0
O431 O 0.6926 0.51758 0.27878 0.0
O432 O 0.80792 0.61139 0.27718 0.0
O433 O 0.76957 0.59773 0.2248 0.0
O434 O 0.72953 0.52509 0.27264 0.0
O435 O 0.76305 0.54012 0.33169 0.0
C436 C 0.74659 0.51872 0.30193 0.0
O437 O 0.69786 0.59704 0.2254 0.0
O438 O 0.65995 0.58904 0.27635 0.0
C439 C 0.73836 0.61792 0.34535 0.0
C440 C 0.67825 0.60592 0.24393 0.0
Zn441 Zn 0.45932 0.13614 0.92834 0.0
Zn442 Zn 0.52568 0.06282 0.88426 0.0
Zn443 Zn 0.47907 0.09753 0.9102 0.0
C444 C 0.54954 0.13044 0.85144 0.0
C445 C 0.52205 0.07902 0.97231 0.0
O446 O 0.42459 0.06635 0.89701 0.0
O447 O 0.41454 0.10865 0.89889 0.0
C448 C 0.50517 0.17575 0.87286 0.0
O449 O 0.52373 0.13032 0.86912 0.0
O450 O 0.55358 0.10493 0.85234 0.0
O451 O 0.54236 0.08905 0.94055 0.0
O452 O 0.49515 0.08117 0.9691 0.0
O453 O 0.48945 0.18077 0.90337 0.0
O454 O 0.50381 0.14678 0.87056 0.0
O455 O 0.47874 0.10036 0.98415 0.0
O456 O 0.4571 0.1337 0.99322 0.0
C457 C 0.46816 0.11573 0.00963 0.0
O458 O 0.44431 0.0538 0.87047 0.0
O459 O 0.47856 0.03317 0.85784 0.0
C460 C 0.40343 0.07712 0.89778 0.0
C461 C 0.4503 0.03183 0.85245 0.0
Zn462 Zn 0.91801 0.43061 0.84245 0.0
Zn463 Zn 0.87561 0.32442 0.8965 0.0
Zn464 Zn 0.90193 0.38357 0.89267 0.0
C465 C 0.87859 0.35206 0.98295 0.0
C466 C 0.83091 0.32505 0.84751 0.0
O467 O 0.94387 0.39017 0.84665 0.0
O468 O 0.94345 0.42484 0.79576 0.0
C469 C 0.94488 0.45221 0.93053 0.0
O470 O 0.90095 0.38025 0.96543 0.0
O471 O 0.86159 0.32674 0.9581 0.0
O472 O 0.84048 0.30368 0.85166 0.0
O473 O 0.84885 0.35496 0.86421 0.0
O474 O 0.94612 0.46027 0.89034 0.0
O475 O 0.92415 0.42172 0.9431 0.0
O476 O 0.85826 0.38893 0.86421 0.0
O477 O 0.88052 0.43603 0.82448 0.0
C478 C 0.85488 0.41098 0.84104 0.0
O479 O 0.93933 0.36638 0.87978 0.0
O480 O 0.9102 0.31211 0.89703 0.0
C481 C 0.95467 0.40635 0.8097 0.0
C482 C 0.93822 0.33829 0.88947 0.0
Zn483 Zn 0.70055 0.56576 0.92007 0.0
Zn484 Zn 0.56317 0.4873 0.855 0.0
Zn485 Zn 0.61159 0.51742 0.89808 0.0
C486 C 0.58298 0.44314 0.85365 0.0
C487 C 0.54421 0.49896 0.93829 0.0
O488 O 0.63951 0.5718 0.8824 0.0
O489 O 0.69106 0.58397 0.86398 0.0
C490 C 0.66809 0.49583 0.90106 0.0
O491 O 0.60876 0.47057 0.86808 0.0
O492 O 0.55494 0.44182 0.84861 0.0
O493 O 0.53527 0.49489 0.89813 0.0
O494 O 0.57362 0.50399 0.94938 0.0
O495 O 0.68116 0.51551 0.93367 0.0
O496 O 0.64183 0.49395 0.88217 0.0
O497 O 0.60995 0.52033 0.96988 0.0
O498 O 0.66591 0.54946 0.96945 0.0
C499 C 0.63831 0.53588 0.99085 0.0
O500 O 0.60797 0.55239 0.84977 0.0
O501 O 0.57674 0.51377 0.80059 0.0
C502 C 0.67002 0.59375 0.87133 0.0
C503 C 0.59531 0.5445 0.81061 0.0
Zn504 Zn 0.55028 0.90108 0.73885 0.0
Zn505 Zn 0.59068 0.82423 0.70841 0.0
Zn506 Zn 0.57328 0.86162 0.73047 0.0
C507 C 0.53151 0.79086 0.67469 0.0
C508 C 0.59993 0.82559 0.79333 0.0
O509 O 0.60909 0.91202 0.70076 0.0
O510 O 0.58959 0.94521 0.72226 0.0
C511 C 0.50137 0.84744 0.69492 0.0
O512 O 0.5312 0.81256 0.70172 0.0
O513 O 0.55939 0.79381 0.66331 0.0
O514 O 0.58775 0.80215 0.76508 0.0
O515 O 0.5957 0.85118 0.78784 0.0
O516 O 0.51102 0.87852 0.69877 0.0
O517 O 0.52026 0.83579 0.70837 0.0
O518 O 0.57404 0.86689 0.80259 0.0
O519 O 0.54198 0.89043 0.80324 0.0
C520 C 0.55661 0.87726 0.82403 0.0
O521 O 0.61443 0.88713 0.68068 0.0
O522 O 0.63669 0.85444 0.68664 0.0
C523 C 0.61256 0.94173 0.70425 0.0
C524 C 0.63711 0.87969 0.66906 0.0
Zn525 Zn 0.17757 0.76635 0.68632 0.0
Zn526 Zn 0.10946 0.66406 0.71658 0.0
Zn527 Zn 0.14444 0.71585 0.72377 0.0
C528 C 0.12219 0.67741 0.81103 0.0
C529 C 0.1601 0.65479 0.73088 0.0
O530 O 0.11617 0.7101 0.66217 0.0
O531 O 0.15118 0.75943 0.63217 0.0
C532 C 0.1571 0.77953 0.77048 0.0
O533 O 0.12726 0.70587 0.7948 0.0
O534 O 0.11594 0.65364 0.78403 0.0
O535 O 0.12953 0.63753 0.74405 0.0
O536 O 0.17129 0.68585 0.7198 0.0
O537 O 0.1738 0.7928 0.73552 0.0
O538 O 0.14137 0.74715 0.7755 0.0
O539 O 0.19617 0.72194 0.72134 0.0
O540 O 0.22095 0.76806 0.68006 0.0
C541 C 0.22254 0.745 0.7011 0.0
O542 O 0.09849 0.70612 0.76301 0.0
O543 O 0.06595 0.66402 0.71818 0.0
C544 C 0.12422 0.73111 0.63015 0.0
C545 C 0.06862 0.68442 0.74845 0.0
Zn546 Zn 0.23333 0.41291 0.68615 0.0
Zn547 Zn 0.38273 0.47452 0.77814 0.0
Zn548 Zn 0.28317 0.4337 0.73298 0.0
C549 C 0.3085 0.43932 0.82047 0.0
C550 C 0.33938 0.50203 0.73694 0.0
O551 O 0.28743 0.39973 0.68237 0.0
O552 O 0.24459 0.39084 0.63936 0.0
C553 C 0.21167 0.38488 0.77215 0.0
O554 O 0.27815 0.42592 0.80553 0.0
O555 O 0.33159 0.45127 0.79133 0.0
O556 O 0.34498 0.48164 0.75847 0.0
O557 O 0.30936 0.48893 0.72173 0.0
O558 O 0.20162 0.38386 0.73286 0.0
O559 O 0.24326 0.40416 0.78183 0.0
O560 O 0.27811 0.47756 0.7057 0.0
O561 O 0.2303 0.45216 0.6676 0.0
C562 C 0.2553 0.47901 0.68186 0.0
O563 O 0.31804 0.41311 0.71478 0.0
O564 O 0.373 0.435 0.73735 0.0
C565 C 0.26966 0.38706 0.64689 0.0
C566 C 0.34664 0.41309 0.71599 0.0
Zn567 Zn 0.55029 0.8705 0.0998 0.0
Zn568 Zn 0.48902 0.92487 0.14467 0.0
Zn569 Zn 0.51698 0.90544 0.10021 0.0
C570 C 0.44245 0.86269 0.11946 0.0
C571 C 0.51122 0.96873 0.07855 0.0
O572 O 0.55916 0.93839 0.06058 0.0
O573 O 0.58484 0.92194 0.10815 0.0
C574 C 0.50139 0.84826 0.14814 0.0
O575 O 0.4627 0.87379 0.08652 0.0
O576 O 0.45153 0.87831 0.15591 0.0
O577 O 0.48385 0.95367 0.10008 0.0
O578 O 0.53131 0.95677 0.07867 0.0
O579 O 0.49849 0.84415 0.10706 0.0
O580 O 0.51947 0.87915 0.16058 0.0
O581 O 0.53139 0.89087 0.03556 0.0
O582 O 0.55581 0.85957 0.03969 0.0
C583 C 0.54393 0.87429 0.01645 0.0
O584 O 0.54126 0.91581 0.1696 0.0
O585 O 0.52339 0.95052 0.19 0.0
C586 C 0.58622 0.9437 0.08048 0.0
C587 C 0.54335 0.93934 0.19565 0.0
Zn588 Zn 0.1254 0.67445 0.07422 0.0
Zn589 Zn 0.07147 0.56557 0.13641 0.0
Zn590 Zn 0.09391 0.61813 0.09476 0.0
C591 C 0.13631 0.58547 0.13994 0.0
C592 C 0.04645 0.55019 0.04956 0.0
O593 O 0.06532 0.64065 0.1204 0.0
O594 O 0.08708 0.68249 0.07195 0.0
C595 C 0.16886 0.67397 0.12552 0.0
O596 O 0.1353 0.60922 0.11813 0.0
O597 O 0.10951 0.5608 0.15486 0.0
O598 O 0.04584 0.538 0.0872 0.0
O599 O 0.06581 0.58209 0.04217 0.0
O600 O 0.16066 0.69627 0.11936 0.0
O601 O 0.14856 0.64317 0.11368 0.0
O602 O 0.0891 0.62045 0.02074 0.0
O603 O 0.13978 0.66592 0.01659 0.0
C604 C 0.11445 0.64223 0.99725 0.0
O605 O 0.06042 0.61764 0.15244 0.0
O606 O 0.04436 0.56798 0.18351 0.0
C607 C 0.064 0.66429 0.09894 0.0
C608 C 0.04446 0.5956 0.18342 0.0
Zn609 Zn 0.32024 0.4495 0.09625 0.0
Zn610 Zn 0.42986 0.5066 0.13952 0.0
Zn611 Zn 0.37979 0.47992 0.10156 0.0
C612 C 0.4182 0.55657 0.13714 0.0
C613 C 0.44037 0.48891 0.05565 0.0
O614 O 0.35944 0.42565 0.11792 0.0
O615 O 0.30416 0.40432 0.11907 0.0
C616 C 0.3246 0.50157 0.1362 0.0
O617 O 0.38948 0.5288 0.13348 0.0
O618 O 0.44518 0.55552 0.13384 0.0
O619 O 0.44831 0.48796 0.09551 0.0
O620 O 0.41456 0.4922 0.0467 0.0
O621 O 0.3008 0.47393 0.12197 0.0
O622 O 0.35562 0.50834 0.13239 0.0
O623 O 0.37514 0.47683 0.02698 0.0
O624 O 0.31953 0.45052 0.0316 0.0
C625 C 0.34582 0.46344 0.00797 0.0
O626 O 0.38715 0.44543 0.14868 0.0
O627 O 0.41711 0.48369 0.19898 0.0
C628 C 0.32922 0.39983 0.11871 0.0
C629 C 0.40029 0.45289 0.18785 0.0
Zn630 Zn 0.05676 0.52053 0.62029 0.0
Zn631 Zn 0.1257 0.44738 0.60692 0.0
Zn632 Zn 0.09601 0.47508 0.59292 0.0
C633 C 0.12689 0.46224 0.51387 0.0
C634 C 0.16654 0.50096 0.64711 0.0
O635 O 0.05666 0.44556 0.6411 0.0
O636 O 0.03612 0.47914 0.66122 0.0
C637 C 0.0663 0.49973 0.53658 0.0
O638 O 0.10186 0.46614 0.52456 0.0
O639 O 0.14452 0.45905 0.54401 0.0
O640 O 0.15578 0.47041 0.65714 0.0
O641 O 0.14909 0.50828 0.62017 0.0
O642 O 0.08168 0.51965 0.5677 0.0
O643 O 0.0755 0.47819 0.52886 0.0
O644 O 0.12772 0.52459 0.6271 0.0
O645 O 0.10144 0.55328 0.6462 0.0
C646 C 0.12772 0.55032 0.64485 0.0
O647 O 0.0604 0.42177 0.61277 0.0
O648 O 0.09325 0.3994 0.61211 0.0
C649 C 0.03808 0.45246 0.66614 0.0
C650 C 0.064 0.3956 0.60942 0.0
Zn651 Zn 0.56576 0.68185 0.59949 0.0
Zn652 Zn 0.49302 0.57033 0.63305 0.0
Zn653 Zn 0.52517 0.62084 0.59971 0.0
C654 C 0.45059 0.58883 0.64065 0.0
C655 C 0.50705 0.555 0.55321 0.0
O656 O 0.57966 0.63709 0.619 0.0
O657 O 0.61071 0.69284 0.62326 0.0
C658 C 0.50989 0.68115 0.62639 0.0
O659 O 0.48036 0.61545 0.63907 0.0
O660 O 0.44645 0.56179 0.62388 0.0
O661 O 0.50592 0.54548 0.59271 0.0
O662 O 0.51015 0.58418 0.54496 0.0
O663 O 0.5411 0.70254 0.62383 0.0
O664 O 0.4992 0.6495 0.61978 0.0
O665 O 0.5287 0.62399 0.52773 0.0
O666 O 0.56253 0.67936 0.53378 0.0
C667 C 0.54609 0.65343 0.50978 0.0
O668 O 0.5549 0.61098 0.64699 0.0
O669 O 0.51393 0.58151 0.69417 0.0
C670 C 0.60868 0.66427 0.6251 0.0
C671 C 0.54521 0.59801 0.68565 0.0
Zn672 Zn 0.43913 0.93041 0.63468 0.0
Zn673 Zn 0.32141 0.88076 0.60066 0.0
Zn674 Zn 0.38071 0.90755 0.60668 0.0
C675 C 0.34491 0.88391 0.51574 0.0
C676 C 0.32649 0.83845 0.65304 0.0
O677 O 0.38997 0.94363 0.66467 0.0
O678 O 0.44105 0.95622 0.6873 0.0
C679 C 0.443 0.94989 0.54565 0.0
O680 O 0.3715 0.90852 0.53416 0.0
O681 O 0.32112 0.86285 0.54019 0.0
O682 O 0.30635 0.84978 0.65247 0.0
O683 O 0.35447 0.85404 0.63124 0.0
O684 O 0.46029 0.95438 0.58024 0.0
O685 O 0.41048 0.931 0.54628 0.0
O686 O 0.38788 0.86446 0.62623 0.0
O687 O 0.44202 0.88987 0.64474 0.0
C688 C 0.41423 0.86305 0.63807 0.0
O689 O 0.36596 0.94214 0.63662 0.0
O690 O 0.31715 0.92157 0.60167 0.0
C691 C 0.41459 0.95794 0.69294 0.0
C692 C 0.34083 0.9452 0.62332 0.0
Zn693 Zn 0.16507 0.404 0.18877 0.0
Zn694 Zn 0.12412 0.46066 0.26592 0.0
Zn695 Zn 0.13972 0.42679 0.23234 0.0
C696 C 0.15005 0.44561 0.33156 0.0
C697 C 0.15938 0.50365 0.20812 0.0
O698 O 0.10186 0.39183 0.18266 0.0
O699 O 0.14 0.39951 0.1326 0.0
C700 C 0.15077 0.3706 0.268 0.0
O701 O 0.13943 0.42005 0.30528 0.0
O702 O 0.1559 0.47364 0.31608 0.0
O703 O 0.13258 0.49813 0.22731 0.0
O704 O 0.16838 0.481 0.20897 0.0
O705 O 0.14996 0.36343 0.22744 0.0
O706 O 0.15159 0.39814 0.27929 0.0
O707 O 0.18879 0.46864 0.20738 0.0
O708 O 0.21362 0.43884 0.19423 0.0
C709 C 0.21581 0.4672 0.20015 0.0
O710 O 0.08575 0.40245 0.21555 0.0
O711 O 0.07655 0.42488 0.27477 0.0
C712 C 0.10927 0.38794 0.14269 0.0
C713 C 0.06517 0.40359 0.24365 0.0
Zn714 Zn 0.54871 0.65399 0.23511 0.0
Zn715 Zn 0.60162 0.76987 0.18869 0.0
Zn716 Zn 0.57506 0.71629 0.22979 0.0
C717 C 0.53814 0.75631 0.19058 0.0
C718 C 0.61978 0.7826 0.28027 0.0
O719 O 0.60361 0.6921 0.2016 0.0
O720 O 0.57229 0.63627 0.19916 0.0
C721 C 0.49576 0.6628 0.21367 0.0
O722 O 0.53599 0.73072 0.21187 0.0
O723 O 0.56502 0.77652 0.17068 0.0
O724 O 0.62328 0.79567 0.24241 0.0
O725 O 0.60185 0.75025 0.28538 0.0
O726 O 0.50211 0.63955 0.22247 0.0
O727 O 0.51993 0.69393 0.2131 0.0
O728 O 0.57986 0.71065 0.30184 0.0
O729 O 0.55748 0.6551 0.29867 0.0
C730 C 0.56972 0.68191 0.32129 0.0
O731 O 0.60956 0.71992 0.17271 0.0
O732 O 0.63024 0.76998 0.14097 0.0
C733 C 0.60058 0.66279 0.19387 0.0
C734 C 0.62763 0.74121 0.14215 0.0
Zn735 Zn 0.34319 0.8804 0.24195 0.0
Zn736 Zn 0.23437 0.82685 0.18335 0.0
Zn737 Zn 0.28259 0.85544 0.23127 0.0
C738 C 0.24711 0.77835 0.19027 0.0
C739 C 0.21709 0.84055 0.26955 0.0
O740 O 0.30802 0.9089 0.21202 0.0
O741 O 0.36014 0.91996 0.20187 0.0
C742 C 0.33583 0.82957 0.1987 0.0
O743 O 0.27301 0.80535 0.20524 0.0
O744 O 0.2211 0.77915 0.17822 0.0
O745 O 0.20957 0.83688 0.22885 0.0
O746 O 0.24508 0.84302 0.28278 0.0
O747 O 0.35823 0.84861 0.22599 0.0
O748 O 0.30738 0.82932 0.19691 0.0
O749 O 0.28715 0.85921 0.30527 0.0
O750 O 0.34309 0.88996 0.3054 0.0
C751 C 0.31548 0.87618 0.32643 0.0
O752 O 0.27565 0.89074 0.18591 0.0
O753 O 0.24946 0.8562 0.13011 0.0
C754 C 0.33911 0.93019 0.20305 0.0
C755 C 0.2647 0.88586 0.14564 0.0
C756 C 0.16328 0.08483 0.95989 0.0
C757 C 0.17225 0.08598 0.00459 0.0
C758 C 0.14885 0.05412 0.93664 0.0
C759 C 0.14544 0.02471 0.95716 0.0
H760 H 0.1717 0.10811 0.94148 0.0
H761 H 0.14692 0.05504 0.90089 0.0
S762 S 0.15465 0.0138 0.07705 0.0
N763 N 0.16751 0.05445 0.07123 0.0
N764 N 0.14236 0.99706 0.02728 0.0
C765 C 0.14753 0.02457 0.00359 0.0
C766 C 0.16135 0.05558 0.02736 0.0
C767 C 0.95447 0.10114 0.95961 0.0
C768 C 0.97739 0.12712 0.98785 0.0
C769 C 0.92206 0.07732 0.97501 0.0
C770 C 0.91291 0.07883 0.019 0.0
H771 H 0.95861 0.10358 0.92411 0.0
H772 H 0.90261 0.06241 0.95083 0.0
S773 S 0.97051 0.13012 0.10936 0.0
N774 N 0.99379 0.14419 0.064 0.0
N775 N 0.93324 0.09867 0.09336 0.0
C776 C 0.93897 0.09783 0.04934 0.0
C777 C 0.97164 0.12239 0.03353 0.0
C778 C 0.88195 0.82325 0.93285 0.0
C779 C 0.85997 0.83352 0.95044 0.0
C780 C 0.90241 0.81642 0.96063 0.0
C781 C 0.90117 0.81931 0.0068 0.0
H782 H 0.88157 0.81807 0.89776 0.0
H783 H 0.91636 0.80531 0.94626 0.0
S784 S 0.85488 0.85323 0.0688 0.0
N785 N 0.84369 0.85274 0.0166 0.0
N786 N 0.88158 0.83876 0.06848 0.0
C787 C 0.88264 0.83337 0.02437 0.0
C788 C 0.86212 0.8408 0.9962 0.0
C789 C 0.02044 0.14483 0.47302 0.0
C790 C 0.01576 0.14105 0.51913 0.0
C791 C 0.05323 0.15871 0.45559 0.0
C792 C 0.08059 0.16533 0.48346 0.0
H793 H 0.00147 0.14594 0.45256 0.0
H794 H 0.05787 0.16888 0.42221 0.0
S795 S 0.07492 0.13745 0.59968 0.0
N796 N 0.03609 0.12889 0.58708 0.0
N797 N 0.09772 0.15332 0.55423 0.0
C798 C 0.07348 0.1512 0.52602 0.0
C799 C 0.04021 0.13786 0.54362 0.0
C800 C 0.82319 0.91524 0.56489 0.0
C801 C 0.81968 0.91773 0.51906 0.0
C802 C 0.83463 0.89408 0.58153 0.0
C803 C 0.84119 0.87396 0.55253 0.0
H804 H 0.81297 0.92609 0.58781 0.0
H805 H 0.83214 0.88872 0.61676 0.0
S806 S 0.84421 0.87873 0.43011 0.0
N807 N 0.8314 0.90522 0.4453 0.0
N808 N 0.8514 0.86424 0.47661 0.0
C809 C 0.84432 0.88166 0.50711 0.0
C810 C 0.83326 0.90362 0.49016 0.0
C811 C 0.09195 0.93289 0.47425 0.0
C812 C 0.0796 0.90943 0.50935 0.0
C813 C 0.11895 0.96588 0.48134 0.0
C814 C 0.13282 0.97636 0.52392 0.0
H815 H 0.08559 0.9241 0.44034 0.0
H816 H 0.13205 0.98135 0.45277 0.0
S817 S 0.09764 0.92896 0.62847 0.0
N818 N 0.07489 0.90191 0.58901 0.0
N819 N 0.12423 0.96468 0.60298 0.0
C820 C 0.11469 0.95584 0.56013 0.0
C821 C 0.08798 0.92196 0.55267 0.0
C822 C 0.85507 0.96472 0.02597 0.0
C823 C 0.84157 0.9823 0.00357 0.0
C824 C 0.8497 0.93371 0.00939 0.0
C825 C 0.83115 0.92036 0.97011 0.0
H826 H 0.86363 0.97127 0.05994 0.0
H827 H 0.85432 0.91764 0.03129 0.0
S828 S 0.80357 0.96426 0.89181 0.0
N829 N 0.81942 0.99026 0.93448 0.0
N830 N 0.80952 0.93214 0.90295 0.0
C831 C 0.82597 0.94219 0.9425 0.0
C832 C 0.83125 0.97356 0.95951 0.0
C833 C 0.05564 0.90583 0.95186 0.0
C834 C 0.07858 0.92226 0.98681 0.0
C835 C 0.02189 0.88118 0.96102 0.0
C836 C 0.01114 0.87275 0.00517 0.0
H837 H 0.0651 0.9069 0.91861 0.0
H838 H 0.00701 0.864 0.93463 0.0
S839 S 0.05592 0.92144 0.1047 0.0
N840 N 0.08444 0.93735 0.06474 0.0
N841 N 0.02022 0.89318 0.08069 0.0
C842 C 0.03036 0.89665 0.03773 0.0
C843 C 0.06507 0.92054 0.02911 0.0
C844 C 0.10535 0.14045 0.03281 0.0
C845 C 0.13221 0.14776 0.00368 0.0
C846 C 0.07954 0.14689 0.01985 0.0
C847 C 0.08006 0.15979 0.97738 0.0
H848 H 0.108 0.13686 0.06781 0.0
H849 H 0.06346 0.14808 0.04535 0.0
S850 S 0.13464 0.16517 0.88385 0.0
N851 N 0.15041 0.15549 0.92713 0.0
N852 N 0.10093 0.16599 0.90217 0.0
C853 C 0.10075 0.15712 0.94522 0.0
C854 C 0.12744 0.15145 0.95864 0.0
C855 C 0.97535 0.85128 0.51212 0.0
C856 C 0.97976 0.85585 0.46599 0.0
C857 C 0.94422 0.84345 0.53154 0.0
C858 C 0.91728 0.84016 0.50508 0.0
H859 H 0.99314 0.84752 0.53173 0.0
H860 H 0.93939 0.83404 0.56529 0.0
S861 S 0.92238 0.86401 0.38684 0.0
N862 N 0.95993 0.86864 0.39814 0.0
N863 N 0.90097 0.85214 0.43378 0.0
C864 C 0.92467 0.85258 0.46152 0.0
C865 C 0.95644 0.86124 0.44216 0.0
C866 C 0.16974 0.11302 0.57354 0.0
C867 C 0.15923 0.08324 0.54882 0.0
C868 C 0.17097 0.1414 0.55341 0.0
C869 C 0.15854 0.13915 0.51021 0.0
H870 H 0.18436 0.11712 0.6036 0.0
H871 H 0.18562 0.16593 0.56917 0.0
S872 S 0.11139 0.06127 0.44342 0.0
N873 N 0.12422 0.04925 0.48757 0.0
N874 N 0.12442 0.1019 0.4507 0.0
C875 C 0.13943 0.10701 0.49111 0.0
C876 C 0.13908 0.07854 0.51122 0.0
C877 C 0.90327 0.05643 0.54467 0.0
C878 C 0.92169 0.08038 0.51156 0.0
C879 C 0.8777 0.02379 0.53263 0.0
C880 C 0.87126 0.0151 0.48763 0.0
H881 H 0.90326 0.06481 0.57827 0.0
H882 H 0.8589 0.0085 0.55728 0.0
S883 S 0.92579 0.06216 0.39319 0.0
N884 N 0.94129 0.08869 0.43544 0.0
N885 N 0.89475 0.02638 0.41364 0.0
C886 C 0.89678 0.03474 0.45719 0.0
C887 C 0.92186 0.06832 0.46894 0.0
C888 C 0.81751 0.41475 0.3062 0.0
C889 C 0.83322 0.41986 0.34772 0.0
C890 C 0.80878 0.38526 0.28185 0.0
C891 C 0.81692 0.36117 0.29801 0.0
H892 H 0.81757 0.43573 0.28926 0.0
H893 H 0.80217 0.38477 0.24723 0.0
S894 S 0.84518 0.35747 0.41184 0.0
N895 N 0.84542 0.39378 0.40968 0.0
N896 N 0.83072 0.33921 0.36323 0.0
C897 C 0.82455 0.36233 0.34328 0.0
C898 C 0.8325 0.39187 0.36843 0.0
C899 C 0.61687 0.43464 0.28066 0.0
C900 C 0.64512 0.46391 0.2979 0.0
C901 C 0.58757 0.41602 0.30628 0.0
C902 C 0.58612 0.42641 0.34957 0.0
H903 H 0.61546 0.42926 0.2455 0.0
H904 H 0.56469 0.39689 0.29005 0.0
S905 S 0.65691 0.49329 0.41448 0.0
N906 N 0.67267 0.4964 0.36435 0.0
N907 N 0.6176 0.46117 0.4123 0.0
C908 C 0.61618 0.45117 0.36956 0.0
C909 C 0.64596 0.47002 0.34368 0.0
C910 C 0.54706 0.18166 0.36999 0.0
C911 C 0.5347 0.18333 0.32771 0.0
C912 C 0.57459 0.17612 0.37466 0.0
C913 C 0.58979 0.17114 0.33712 0.0
H914 H 0.53241 0.17961 0.39927 0.0
H915 H 0.57948 0.16941 0.40722 0.0
S916 S 0.57699 0.18852 0.22101 0.0
N917 N 0.54761 0.1917 0.24906 0.0
N918 N 0.59866 0.18025 0.25799 0.0
C919 C 0.58284 0.18068 0.29585 0.0
C920 C 0.55512 0.1868 0.29102 0.0
C921 C 0.71458 0.49411 0.80084 0.0
C922 C 0.74682 0.50519 0.81906 0.0
C923 C 0.6866 0.48507 0.82829 0.0
C924 C 0.69051 0.48779 0.87469 0.0
H925 H 0.7119 0.49678 0.76559 0.0
H926 H 0.66323 0.48057 0.81286 0.0
S927 S 0.76754 0.50517 0.93766 0.0
N928 N 0.77934 0.5102 0.88519 0.0
N929 N 0.72689 0.49347 0.93717 0.0
C930 C 0.72116 0.49275 0.89283 0.0
C931 C 0.74946 0.50148 0.86476 0.0
C932 C 0.52902 0.23394 0.84405 0.0
C933 C 0.51535 0.1992 0.83471 0.0
C934 C 0.51844 0.25351 0.82017 0.0
C935 C 0.49423 0.23875 0.78622 0.0
H936 H 0.54322 0.2444 0.8744 0.0
H937 H 0.52466 0.27806 0.83328 0.0
S938 S 0.46039 0.15289 0.73927 0.0
N939 N 0.48375 0.15397 0.78183 0.0
N940 N 0.46478 0.19105 0.73646 0.0
C941 C 0.48676 0.20676 0.77048 0.0
C942 C 0.49715 0.18672 0.79498 0.0
C943 C 0.7414 0.26684 0.83442 0.0
C944 C 0.74366 0.25277 0.79394 0.0
C945 C 0.76909 0.29718 0.84991 0.0
C946 C 0.79875 0.31417 0.82441 0.0
H947 H 0.72172 0.25117 0.8579 0.0
H948 H 0.76948 0.30376 0.88448 0.0
S949 S 0.80956 0.29583 0.70843 0.0
N950 N 0.7719 0.26424 0.72284 0.0
N951 N 0.82376 0.32143 0.75167 0.0
C952 C 0.7971 0.30507 0.7798 0.0
C953 C 0.76901 0.27424 0.7642 0.0
C954 C 0.49385 0.28071 0.26173 0.0
C955 C 0.50173 0.25755 0.28161 0.0
C956 C 0.50118 0.3107 0.28381 0.0
C957 C 0.5171 0.31801 0.32544 0.0
H958 H 0.47607 0.27255 0.23431 0.0
H959 H 0.48895 0.32448 0.27238 0.0
S960 S 0.55804 0.27452 0.37811 0.0
N961 N 0.53759 0.25066 0.33499 0.0
N962 N 0.5518 0.30719 0.37625 0.0
C963 C 0.53302 0.29995 0.33859 0.0
C964 C 0.52542 0.26949 0.31625 0.0
C965 C 0.73588 0.20173 0.39558 0.0
C966 C 0.70459 0.19868 0.38336 0.0
C967 C 0.76544 0.22195 0.37153 0.0
C968 C 0.7654 0.24081 0.33481 0.0
H969 H 0.73727 0.18647 0.42219 0.0
H970 H 0.78827 0.22156 0.38056 0.0
S971 S 0.69161 0.2458 0.29257 0.0
N972 N 0.67603 0.21862 0.33422 0.0
N973 N 0.73243 0.25811 0.28978 0.0
C974 C 0.73508 0.24029 0.32409 0.0
C975 C 0.70444 0.21875 0.34806 0.0
C976 C 0.78199 0.49541 0.28277 0.0
C977 C 0.75073 0.48869 0.30081 0.0
C978 C 0.80528 0.49116 0.30875 0.0
C979 C 0.79691 0.47866 0.35229 0.0
H980 H 0.79146 0.51082 0.25313 0.0
H981 H 0.8314 0.50322 0.29777 0.0
S982 S 0.71162 0.4393 0.40269 0.0
N983 N 0.70789 0.45581 0.3557 0.0
N984 N 0.75105 0.44684 0.40402 0.0
C985 C 0.76261 0.46277 0.36445 0.0
C986 C 0.73927 0.46763 0.33831 0.0
C987 C 0.63592 0.18434 0.81865 0.0
C988 C 0.6315 0.17275 0.77461 0.0
C989 C 0.60756 0.17715 0.84456 0.0
C990 C 0.57479 0.15944 0.82621 0.0
H991 H 0.65985 0.19261 0.83548 0.0
H992 H 0.61076 0.17994 0.88021 0.0
S993 S 0.55263 0.13792 0.70867 0.0
N994 N 0.59406 0.15338 0.71081 0.0
N995 N 0.54108 0.14101 0.75944 0.0
C996 C 0.57165 0.15616 0.78022 0.0
C997 C 0.60022 0.1627 0.75408 0.0
C998 C 0.81282 0.45644 0.85809 0.0
C999 C 0.81083 0.46316 0.81308 0.0
C1000 C 0.818 0.4297 0.87041 0.0
C1001 C 0.82263 0.41053 0.83763 0.0
H1002 H 0.81699 0.47536 0.88281 0.0
H1003 H 0.82584 0.42918 0.90421 0.0
S1004 S 0.80298 0.40838 0.71853 0.0
N1005 N 0.79994 0.44047 0.73848 0.0
N1006 N 0.81161 0.39138 0.76142 0.0
C1007 C 0.81128 0.41125 0.79469 0.0
C1008 C 0.805 0.43775 0.78234 0.0
C1009 C 0.57879 0.39878 0.80511 0.0
C1010 C 0.58272 0.41102 0.84876 0.0
C1011 C 0.55125 0.36681 0.79402 0.0
C1012 C 0.5276 0.34677 0.82663 0.0
H1013 H 0.59262 0.41619 0.77841 0.0
H1014 H 0.54538 0.36071 0.75926 0.0
S1015 S 0.53652 0.36174 0.94752 0.0
N1016 N 0.56894 0.39596 0.92593 0.0
N1017 N 0.51636 0.33653 0.9053 0.0
C1018 C 0.53642 0.35538 0.87119 0.0
C1019 C 0.56492 0.3874 0.88232 0.0
C1020 C 0.49125 0.73268 0.69508 0.0
C1021 C 0.50081 0.75886 0.66383 0.0
C1022 C 0.48452 0.70047 0.68141 0.0
C1023 C 0.48716 0.69428 0.63646 0.0
H1024 H 0.49549 0.7387 0.73008 0.0
H1025 H 0.484 0.68308 0.70637 0.0
S1026 S 0.49483 0.74949 0.54213 0.0
N1027 N 0.50048 0.7729 0.58651 0.0
N1028 N 0.48651 0.712 0.5608 0.0
C1029 C 0.48708 0.7171 0.60523 0.0
C1030 C 0.49459 0.74997 0.61904 0.0
C1031 C 0.27744 0.77275 0.73448 0.0
C1032 C 0.25598 0.74788 0.704 0.0
C1033 C 0.30611 0.80224 0.71914 0.0
C1034 C 0.31516 0.80552 0.67417 0.0
H1035 H 0.26797 0.77346 0.76714 0.0
H1036 H 0.31791 0.82416 0.74072 0.0
S1037 S 0.27834 0.73795 0.5896 0.0
N1038 N 0.25347 0.7216 0.63328 0.0
N1039 N 0.30866 0.7761 0.60474 0.0
C1040 C 0.2998 0.77644 0.64762 0.0
C1041 C 0.27011 0.74697 0.6631 0.0
C1042 C 0.21178 0.52458 0.70192 0.0
C1043 C 0.20217 0.52503 0.6577 0.0
C1044 C 0.23747 0.51712 0.71154 0.0
C1045 C 0.25372 0.5102 0.67699 0.0
H1046 H 0.19508 0.5228 0.72859 0.0
H1047 H 0.23967 0.51027 0.74529 0.0
S1048 S 0.24962 0.52675 0.55791 0.0
N1049 N 0.22043 0.53304 0.58108 0.0
N1050 N 0.26744 0.51711 0.59876 0.0
C1051 C 0.25056 0.51996 0.63398 0.0
C1052 C 0.22515 0.52851 0.62448 0.0
C1053 C 0.35336 0.83378 0.12189 0.0
C1054 C 0.34653 0.81597 0.16222 0.0
C1055 C 0.38375 0.84351 0.09922 0.0
C1056 C 0.40721 0.83507 0.11644 0.0
H1057 H 0.33886 0.84576 0.11258 0.0
H1058 H 0.39146 0.86262 0.07354 0.0
S1059 S 0.3928 0.7761 0.20909 0.0
N1060 N 0.35901 0.78053 0.20908 0.0
N1061 N 0.41613 0.79884 0.16685 0.0
C1062 C 0.39617 0.81029 0.14981 0.0
C1063 C 0.36546 0.80056 0.17281 0.0
C1064 C 0.18034 0.58953 0.18858 0.0
C1065 C 0.1676 0.58461 0.14524 0.0
C1066 C 0.186 0.56503 0.20825 0.0
C1067 C 0.17894 0.53569 0.18456 0.0
H1068 H 0.17926 0.60812 0.2098 0.0
H1069 H 0.18952 0.56591 0.24387 0.0
S1070 S 0.16069 0.5206 0.06493 0.0
N1071 N 0.16073 0.55619 0.0751 0.0
N1072 N 0.17043 0.50935 0.11235 0.0
C1073 C 0.17514 0.53557 0.13856 0.0
C1074 C 0.16997 0.56083 0.1185 0.0
C1075 C 0.46097 0.64959 0.14857 0.0
C1076 C 0.46189 0.6513 0.19506 0.0
C1077 C 0.44167 0.61816 0.12736 0.0
C1078 C 0.42106 0.58864 0.15205 0.0
H1079 H 0.48056 0.67031 0.12949 0.0
H1080 H 0.44649 0.61619 0.09266 0.0
S1081 S 0.40303 0.58461 0.27201 0.0
N1082 N 0.43169 0.62472 0.26282 0.0
N1083 N 0.39511 0.56572 0.22325 0.0
C1084 C 0.41536 0.59236 0.19676 0.0
C1085 C 0.43514 0.62433 0.21812 0.0
C1086 C 0.1844 0.63841 0.67071 0.0
C1087 C 0.17685 0.63612 0.71619 0.0
C1088 C 0.17444 0.60886 0.64602 0.0
C1089 C 0.158 0.57701 0.66684 0.0
H1090 H 0.19132 0.66157 0.65272 0.0
H1091 H 0.17427 0.6105 0.61019 0.0
S1092 S 0.14831 0.56056 0.78731 0.0
N1093 N 0.16385 0.60188 0.78271 0.0
N1094 N 0.1458 0.54636 0.7363 0.0
C1095 C 0.15886 0.57586 0.71316 0.0
C1096 C 0.16854 0.60578 0.73817 0.0
C1097 C 0.42906 0.57134 0.71532 0.0
C1098 C 0.42574 0.58442 0.6746 0.0
C1099 C 0.40046 0.54685 0.73813 0.0
C1100 C 0.36761 0.53517 0.72136 0.0
H1101 H 0.45379 0.5763 0.72631 0.0
H1102 H 0.40436 0.53492 0.76683 0.0
S1103 S 0.34602 0.57231 0.62593 0.0
N1104 N 0.38783 0.59127 0.62507 0.0
N1105 N 0.33368 0.54647 0.66906 0.0
C1106 C 0.3641 0.55288 0.68534 0.0
C1107 C 0.39336 0.57736 0.66167 0.0
C1108 C 0.44011 0.81763 0.703 0.0
C1109 C 0.468 0.82531 0.67576 0.0
C1110 C 0.41278 0.82009 0.68612 0.0
C1111 C 0.41392 0.83101 0.64231 0.0
H1112 H 0.44219 0.81599 0.7386 0.0
H1113 H 0.39517 0.8209 0.70947 0.0
S1114 S 0.47286 0.83772 0.55439 0.0
N1115 N 0.48916 0.83229 0.60052 0.0
N1116 N 0.43658 0.83486 0.56879 0.0
C1117 C 0.43598 0.82811 0.61278 0.0
C1118 C 0.46433 0.82674 0.62986 0.0
C1119 C 0.25877 0.51632 0.15791 0.0
C1120 C 0.24936 0.49768 0.19752 0.0
C1121 C 0.29187 0.52958 0.14157 0.0
C1122 C 0.31465 0.52184 0.16305 0.0
H1123 H 0.23957 0.51604 0.13639 0.0
H1124 H 0.29668 0.53854 0.1076 0.0
S1125 S 0.30569 0.4877 0.27645 0.0
N1126 N 0.26849 0.48393 0.26521 0.0
N1127 N 0.32973 0.50641 0.2328 0.0
C1128 C 0.3081 0.51164 0.20749 0.0
C1129 C 0.27491 0.49905 0.22475 0.0
C1130 C 0.52713 0.79905 0.22196 0.0
C1131 C 0.51438 0.76864 0.19759 0.0
C1132 C 0.51913 0.824 0.21013 0.0
C1133 C 0.49772 0.81886 0.17396 0.0
H1134 H 0.54726 0.8057 0.24593 0.0
H1135 H 0.533 0.84868 0.2257 0.0
S1136 S 0.44968 0.73901 0.10927 0.0
N1137 N 0.4739 0.73174 0.14298 0.0
N1138 N 0.45737 0.77753 0.12134 0.0
C1139 C 0.48019 0.78603 0.1549 0.0
C1140 C 0.48889 0.76106 0.16657 0.0
C1141 C 0.22378 0.71982 0.21254 0.0
C1142 C 0.24702 0.74642 0.1854 0.0
C1143 C 0.20077 0.68849 0.19373 0.0
C1144 C 0.20096 0.68396 0.14779 0.0
H1145 H 0.21885 0.72517 0.24581 0.0
H1146 H 0.1789 0.67103 0.21315 0.0
S1147 S 0.26863 0.73885 0.06965 0.0
N1148 N 0.27773 0.76128 0.11577 0.0
N1149 N 0.23467 0.70189 0.08079 0.0
C1150 C 0.23016 0.70635 0.12422 0.0
C1151 C 0.25334 0.73831 0.14307 0.0
C1152 C 0.332 0.20149 0.17695 0.0
C1153 C 0.29967 0.17315 0.16948 0.0
C1154 C 0.35588 0.19912 0.20393 0.0
C1155 C 0.34809 0.16827 0.22404 0.0
H1156 H 0.33956 0.2251 0.1597 0.0
H1157 H 0.38071 0.22131 0.20845 0.0
S1158 S 0.26823 0.08625 0.21192 0.0
N1159 N 0.26187 0.11317 0.18257 0.0
N1160 N 0.30663 0.1087 0.23339 0.0
C1161 C 0.31586 0.13992 0.21712 0.0
C1162 C 0.29164 0.14235 0.18976 0.0
C1163 C 0.85705 0.17502 0.14626 0.0
C1164 C 0.83414 0.14038 0.15449 0.0
C1165 C 0.85415 0.20049 0.16779 0.0
C1166 C 0.82881 0.19259 0.19949 0.0
H1167 H 0.87613 0.18261 0.12062 0.0
H1168 H 0.87148 0.2266 0.15858 0.0
S1169 S 0.76704 0.10633 0.24021 0.0
N1170 N 0.78829 0.09968 0.201 0.0
N1171 N 0.78351 0.14787 0.2431 0.0
C1172 C 0.80797 0.15829 0.2116 0.0
C1173 C 0.81059 0.13208 0.1889 0.0
C1174 C 0.82902 0.66971 0.20395 0.0
C1175 C 0.82689 0.63805 0.20861 0.0
C1176 C 0.85483 0.69555 0.17877 0.0
C1177 C 0.87921 0.6904 0.15755 0.0
H1178 H 0.81032 0.67436 0.21951 0.0
H1179 H 0.85454 0.71893 0.17373 0.0
S1180 S 0.88466 0.61205 0.15963 0.0
N1181 N 0.85155 0.60308 0.19114 0.0
N1182 N 0.89962 0.65145 0.14238 0.0
C1183 C 0.87768 0.65904 0.16265 0.0
C1184 C 0.85161 0.63285 0.18866 0.0
C1185 C 0.17659 0.36326 0.33672 0.0
C1186 C 0.15445 0.3487 0.30072 0.0
C1187 C 0.18339 0.34321 0.36532 0.0
C1188 C 0.1683 0.30794 0.35895 0.0
H1189 H 0.18929 0.39038 0.34229 0.0
H1190 H 0.20048 0.35542 0.39294 0.0
S1191 S 0.10602 0.2573 0.27188 0.0
N1192 N 0.11603 0.29681 0.26136 0.0
N1193 N 0.12866 0.25909 0.31569 0.0
C1194 C 0.14583 0.29302 0.32337 0.0
C1195 C 0.13889 0.31344 0.29418 0.0
C1196 C 0.66744 0.80185 0.33295 0.0
C1197 C 0.64151 0.80612 0.31495 0.0
C1198 C 0.69614 0.82923 0.35217 0.0
C1199 C 0.70001 0.86197 0.3543 0.0
H1200 H 0.66662 0.7778 0.32957 0.0
H1201 H 0.71563 0.8247 0.36533 0.0
S1202 S 0.63674 0.88504 0.31613 0.0
N1203 N 0.61987 0.84457 0.3031 0.0
N1204 N 0.67345 0.89592 0.33999 0.0
C1205 C 0.67336 0.8661 0.33807 0.0
C1206 C 0.64416 0.83817 0.31852 0.0
C1207 C 0.18063 0.82332 0.33752 0.0
C1208 C 0.19269 0.84305 0.29906 0.0
C1209 C 0.15349 0.82194 0.36121 0.0
C1210 C 0.1376 0.84017 0.34724 0.0
H1211 H 0.19164 0.80836 0.34874 0.0
H1212 H 0.14526 0.80703 0.3914 0.0
S1213 S 0.16072 0.89644 0.24962 0.0
N1214 N 0.1872 0.88168 0.24841 0.0
N1215 N 0.13654 0.87918 0.29365 0.0
C1216 C 0.14952 0.86006 0.30914 0.0
C1217 C 0.17702 0.86145 0.28492 0.0
C1218 C 0.66531 0.80505 0.83574 0.0
C1219 C 0.68973 0.83561 0.85472 0.0
C1220 C 0.63495 0.80135 0.81955 0.0
C1221 C 0.62819 0.82837 0.82063 0.0
H1222 H 0.66889 0.78329 0.83545 0.0
H1223 H 0.61691 0.77713 0.80514 0.0
S1224 S 0.68531 0.9142 0.86657 0.0
N1225 N 0.70593 0.89343 0.87436 0.0
N1226 N 0.6493 0.88715 0.84208 0.0
C1227 C 0.6528 0.85931 0.83939 0.0
C1228 C 0.68355 0.86283 0.85654 0.0
C1229 C 0.18513 0.83586 0.8069 0.0
C1230 C 0.15642 0.80309 0.80333 0.0
C1231 C 0.1847 0.86094 0.83303 0.0
C1232 C 0.15542 0.85436 0.85612 0.0
H1233 H 0.20828 0.8422 0.78933 0.0
H1234 H 0.20779 0.8852 0.83644 0.0
S1235 S 0.07328 0.77337 0.85699 0.0
N1236 N 0.0978 0.76574 0.82447 0.0
N1237 N 0.09688 0.813 0.87389 0.0
C1238 C 0.12652 0.82179 0.85293 0.0
C1239 C 0.12704 0.79611 0.82648 0.0
C1240 C 0.17258 0.32134 0.86584 0.0
C1241 C 0.13745 0.30804 0.85953 0.0
C1242 C 0.19666 0.34734 0.83886 0.0
C1243 C 0.1865 0.36102 0.80446 0.0
H1244 H 0.1816 0.31157 0.89205 0.0
H1245 H 0.22331 0.35613 0.84429 0.0
S1246 S 0.09771 0.33773 0.77733 0.0
N1247 N 0.09391 0.31247 0.81889 0.0
N1248 N 0.13879 0.36079 0.76734 0.0
C1249 C 0.15139 0.34841 0.7984 0.0
C1250 C 0.12696 0.32201 0.82602 0.0
C1251 C 0.86416 0.70456 0.65611 0.0
C1252 C 0.83246 0.69893 0.6412 0.0
C1253 C 0.86729 0.67899 0.67742 0.0
C1254 C 0.83901 0.64658 0.68346 0.0
H1255 H 0.88686 0.72882 0.65043 0.0
H1256 H 0.89186 0.68483 0.69025 0.0
S1257 S 0.75036 0.61894 0.65137 0.0
N1258 N 0.77222 0.65871 0.63439 0.0
N1259 N 0.77812 0.61049 0.67478 0.0
C1260 C 0.80714 0.64065 0.66914 0.0
C1261 C 0.80385 0.66688 0.64797 0.0
C1262 C 0.29883 0.14947 0.66656 0.0
C1263 C 0.30816 0.15089 0.62205 0.0
C1264 C 0.31952 0.17528 0.69594 0.0
C1265 C 0.35054 0.20327 0.68213 0.0
H1266 H 0.27535 0.12837 0.6788 0.0
H1267 H 0.31145 0.17287 0.73017 0.0
S1268 S 0.38776 0.21703 0.56986 0.0
N1269 N 0.35107 0.18137 0.5658 0.0
N1270 N 0.39027 0.22991 0.62159 0.0
C1271 C 0.36025 0.20494 0.63778 0.0
C1272 C 0.33904 0.17862 0.60767 0.0
C1273 C 0.81635 0.14652 0.6215 0.0
C1274 C 0.84956 0.15584 0.63591 0.0
C1275 C 0.7919 0.1455 0.65069 0.0
C1276 C 0.79967 0.15389 0.69549 0.0
H1277 H 0.80916 0.14058 0.58703 0.0
H1278 H 0.76716 0.13896 0.63784 0.0
S1279 S 0.8807 0.17528 0.75157 0.0
N1280 N 0.88718 0.17042 0.69898 0.0
N1281 N 0.84163 0.16831 0.75401 0.0
C1282 C 0.83208 0.16163 0.71078 0.0
C1283 C 0.85688 0.16268 0.68102 0.0
C1284 C 0.99859 0.52158 0.50587 0.0
C1285 C 0.97177 0.49075 0.49019 0.0
C1286 C 0.02868 0.52379 0.52156 0.0
C1287 C 0.03317 0.49533 0.52195 0.0
H1288 H 0.99755 0.5447 0.5024 0.0
H1289 H 0.04927 0.54842 0.53147 0.0
S1290 S 0.96769 0.40739 0.49317 0.0
N1291 N 0.94959 0.43019 0.48216 0.0
N1292 N 0.00605 0.43436 0.5119 0.0
C1293 C 0.00546 0.46382 0.50995 0.0
C1294 C 0.97475 0.46155 0.49423 0.0
C1295 C 0.47073 0.49842 0.52075 0.0
C1296 C 0.50133 0.52976 0.51924 0.0
C1297 C 0.46685 0.47014 0.49736 0.0
C1298 C 0.49379 0.47215 0.47272 0.0
H1299 H 0.44986 0.49562 0.54099 0.0
H1300 H 0.44257 0.44683 0.49797 0.0
S1301 S 0.57922 0.54772 0.45917 0.0
N1302 N 0.55908 0.56074 0.49201 0.0
N1303 N 0.55183 0.50763 0.44763 0.0
C1304 C 0.52447 0.50322 0.47102 0.0
C1305 C 0.52828 0.53205 0.49447 0.0
C1306 C 0.48849 0.02775 0.47632 0.0
C1307 C 0.51701 0.0259 0.46292 0.0
C1308 C 0.46162 0.0006 0.49893 0.0
C1309 C 0.46215 0.97057 0.5076 0.0
H1310 H 0.48723 0.05047 0.46988 0.0
H1311 H 0.44134 0.00389 0.51203 0.0
S1312 S 0.52892 0.9516 0.4732 0.0
N1313 N 0.54269 0.99069 0.45558 0.0
N1314 N 0.49226 0.93967 0.49784 0.0
C1315 C 0.4897 0.96786 0.49193 0.0
C1316 C 0.51713 0.99554 0.46964 0.0
C1317 C 0.53211 0.0055 0.01121 0.0
C1318 C 0.5189 0.99982 0.05427 0.0
C1319 C 0.53404 0.03204 0.9855 0.0
C1320 C 0.52285 0.05375 0.00208 0.0
H1321 H 0.53939 0.98841 0.99657 0.0
H1322 H 0.54305 0.03462 0.95172 0.0
S1323 S 0.4917 0.05265 0.11537 0.0
N1324 N 0.49829 0.02022 0.11424 0.0
N1325 N 0.50199 0.06997 0.06561 0.0
C1326 C 0.51146 0.04937 0.0458 0.0
C1327 C 0.50954 0.02248 0.07201 0.0
C1328 C 0.96717 0.47388 0.00621 0.0
C1329 C 0.97046 0.47816 0.96031 0.0
C1330 C 0.99195 0.49773 0.03433 0.0
C1331 C 0.02111 0.52673 0.0177 0.0
H1332 H 0.94538 0.45203 0.02057 0.0
H1333 H 0.98802 0.49329 0.06968 0.0
S1334 S 0.04343 0.54839 0.89997 0.0
N1335 N 0.0063 0.51305 0.89902 0.0
N1336 N 0.05268 0.55757 0.95283 0.0
C1337 C 0.02495 0.53133 0.972 0.0
C1338 C -0.0003 0.50708 0.94308 0.0
C1339 C 0.47905 0.46932 0.0292 0.0
C1340 C 0.4639 0.4894 0.02207 0.0
C1341 C 0.50651 0.4736 0.00355 0.0
C1342 C 0.51986 0.49837 0.97035 0.0
H1343 H 0.46984 0.45043 0.05532 0.0
H1344 H 0.51683 0.45706 0.00908 0.0
S1345 S 0.49092 0.55857 0.94002 0.0
N1346 N 0.46519 0.53558 0.98044 0.0
N1347 N 0.5168 0.54361 0.93196 0.0
C1348 C 0.50509 0.5186 0.96294 0.0
C1349 C 0.47703 0.5141 0.98882 0.0
C1350 C 0.30259 0.23995 0.91317 0.0
C1351 C 0.31384 0.24724 0.95727 0.0
C1352 C 0.32566 0.25296 0.87795 0.0
C1353 C 0.36065 0.27326 0.88595 0.0
H1354 H 0.27655 0.22088 0.90606 0.0
H1355 H 0.31659 0.24329 0.84492 0.0
S1356 S 0.40144 0.30678 0.99453 0.0
N1357 N 0.36091 0.28162 0.00652 0.0
N1358 N 0.40446 0.30566 0.94004 0.0
C1359 C 0.37141 0.28468 0.92926 0.0
C1360 C 0.34786 0.27166 0.96518 0.0
C1361 C 0.72934 0.08005 0.9668 0.0
C1362 C 0.75286 0.07007 0.95514 0.0
C1363 C 0.71408 0.08986 0.93391 0.0
C1364 C 0.72154 0.0892 0.88884 0.0
H1365 H 0.72594 0.08424 0.00128 0.0
H1366 H 0.69979 0.10184 0.94399 0.0
S1367 S 0.77689 0.05926 0.84193 0.0
N1368 N 0.77919 0.05551 0.89608 0.0
N1369 N 0.75011 0.07324 0.8344 0.0
C1370 C 0.74129 0.07473 0.87702 0.0
C1371 C 0.7572 0.0654 0.91028 0.0
C1372 C 0.89998 0.63648 0.92631 0.0
C1373 C 0.89779 0.64394 0.88166 0.0
C1374 C 0.91439 0.66244 0.95802 0.0
C1375 C 0.92572 0.69625 0.94598 0.0
H1376 H 0.88849 0.61035 0.93716 0.0
H1377 H 0.91344 0.65561 0.99263 0.0
S1378 S 0.9281 0.72882 0.83273 0.0
N1379 N 0.91115 0.68748 0.82626 0.0
N1380 N 0.93652 0.7361 0.88618 0.0
C1381 C 0.92583 0.70414 0.901 0.0
C1382 C 0.9122 0.67792 0.86866 0.0
C1383 C 0.25133 0.30585 0.59475 0.0
C1384 C 0.24831 0.3126 0.5499 0.0
C1385 C 0.26469 0.33196 0.62663 0.0
C1386 C 0.27489 0.36558 0.61476 0.0
H1387 H 0.24 0.27984 0.60601 0.0
H1388 H 0.26262 0.32498 0.66125 0.0
S1389 S 0.27556 0.39695 0.5011 0.0
N1390 N 0.26008 0.3558 0.49472 0.0
N1391 N 0.28456 0.4046 0.55436 0.0
C1392 C 0.27549 0.37303 0.56933 0.0
C1393 C 0.26225 0.34658 0.53693 0.0
C1394 C 0.66012 0.9237 0.60839 0.0
C1395 C 0.65829 0.89507 0.62917 0.0
C1396 C 0.67414 0.93401 0.56577 0.0
C1397 C 0.68537 0.91506 0.54213 0.0
H1398 H 0.64952 0.93744 0.62428 0.0
H1399 H 0.67472 0.95582 0.55054 0.0
S1400 S 0.68856 0.83953 0.58234 0.0
N1401 N 0.67218 0.85003 0.62372 0.0
N1402 N 0.6956 0.86753 0.54324 0.0
C1403 C 0.68475 0.88714 0.56313 0.0
C1404 C 0.67199 0.87763 0.60677 0.0
C1405 C 0.06125 0.73755 0.55881 0.0
C1406 C 0.07969 0.74815 0.51899 0.0
C1407 C 0.0728 0.72601 0.59443 0.0
C1408 C 0.10288 0.72471 0.5907 0.0
H1409 H 0.04064 0.74245 0.56454 0.0
H1410 H 0.06073 0.72242 0.62645 0.0
S1411 S 0.15598 0.74315 0.4904 0.0
N1412 N 0.12592 0.75134 0.47559 0.0
N1413 N 0.14736 0.72948 0.54207 0.0
C1414 C 0.11849 0.73062 0.54905 0.0
C1415 C 0.10691 0.74241 0.51315 0.0
C1416 C 0.63085 0.73305 0.06196 0.0
C1417 C 0.64243 0.73202 0.10485 0.0
C1418 C 0.65151 0.73911 0.02471 0.0
C1419 C 0.68484 0.74523 0.02923 0.0
H1420 H 0.60722 0.73301 0.05768 0.0
H1421 H 0.64331 0.74435 0.99342 0.0
S1422 S 0.72366 0.73652 0.13268 0.0
N1423 N 0.68639 0.7306 0.14859 0.0
N1424 N 0.72554 0.74262 0.07849 0.0
C1425 C 0.69457 0.73912 0.07093 0.0
C1426 C 0.67339 0.73267 0.10896 0.0
C1427 C 0.22977 0.93686 0.09734 0.0
C1428 C 0.23971 0.93897 0.05267 0.0
C1429 C 0.24205 0.92386 0.12998 0.0
C1430 C 0.26485 0.9129 0.11885 0.0
H1431 H 0.20912 0.94108 0.106 0.0
H1432 H 0.23064 0.91866 0.16263 0.0
S1433 S 0.30624 0.9227 0.01018 0.0
N1434 N 0.27928 0.93634 0.00148 0.0
N1435 N 0.30251 0.9119 0.06306 0.0
C1436 C 0.27887 0.91986 0.07613 0.0
C1437 C 0.26643 0.93321 0.04289 0.0
C1438 C 0.06582 0.32864 0.12675 0.0
C1439 C 0.08396 0.36249 0.11219 0.0
C1440 C 0.05583 0.30176 0.09667 0.0
C1441 C 0.06254 0.30793 0.05109 0.0
H1442 H 0.0634 0.32297 0.1619 0.0
H1443 H 0.04569 0.27631 0.1096 0.0
S1444 S 0.10233 0.39154 0.99548 0.0
N1445 N 0.10347 0.40041 0.04876 0.0
N1446 N 0.08307 0.34978 0.99216 0.0
C1447 C 0.07613 0.34127 0.03561 0.0
C1448 C 0.08717 0.36865 0.06626 0.0
C1449 C 0.73199 0.66614 0.44053 0.0
C1450 C 0.76142 0.6978 0.43419 0.0
C1451 C 0.72076 0.64087 0.40772 0.0
C1452 C 0.73859 0.64667 0.36771 0.0
H1453 H 0.72006 0.65945 0.47282 0.0
H1454 H 0.70044 0.61559 0.41574 0.0
S1455 S 0.81576 0.72618 0.33431 0.0
N1456 N 0.80654 0.7344 0.38399 0.0
N1457 N 0.78557 0.68717 0.32246 0.0
C1458 C 0.76598 0.67936 0.3594 0.0
C1459 C 0.77736 0.70493 0.39268 0.0
C1460 C 0.33202 0.07033 0.46016 0.0
C1461 C 0.30003 0.06077 0.44186 0.0
C1462 C 0.3614 0.08577 0.43374 0.0
C1463 C 0.35949 0.09126 0.38817 0.0
H1464 H 0.33495 0.06992 0.49574 0.0
H1465 H 0.38591 0.09604 0.4497 0.0
S1466 S 0.28074 0.06507 0.32382 0.0
N1467 N 0.26758 0.05352 0.37511 0.0
N1468 N 0.3223 0.08161 0.32517 0.0
C1469 C 0.32714 0.07776 0.36878 0.0
C1470 C 0.29747 0.06258 0.39575 0.0
C1471 C 0.91894 0.25938 0.44509 0.0
C1472 C 0.93334 0.23862 0.44001 0.0
C1473 C 0.90714 0.2693 0.40797 0.0
C1474 C 0.90924 0.25852 0.36494 0.0
H1475 H 0.91256 0.26405 0.47789 0.0
H1476 H 0.89206 0.28122 0.41366 0.0
S1477 S 0.95124 0.21008 0.33389 0.0
N1478 N 0.95458 0.21302 0.38842 0.0
N1479 N 0.93196 0.23107 0.31911 0.0
C1480 C 0.92805 0.24215 0.35925 0.0
C1481 C 0.94024 0.23233 0.3968 0.0
C1482 C 0.99908 0.60039 0.22414 0.0
C1483 C 0.03117 0.60296 0.22392 0.0
C1484 C 0.97913 0.59065 0.26305 0.0
C1485 C 0.99064 0.58283 0.30228 0.0
H1486 H 0.98781 0.602 0.19326 0.0
H1487 H 0.95311 0.58506 0.26077 0.0
S1488 S 0.07417 0.58919 0.31919 0.0
N1489 N 0.07489 0.60089 0.26725 0.0
N1490 N 0.03734 0.58165 0.33921 0.0
C1491 C 0.02409 0.58907 0.30335 0.0
C1492 C 0.04438 0.5994 0.26437 0.0
C1493 C 0.40558 0.41099 0.29352 0.0
C1494 C 0.42482 0.39629 0.27997 0.0
C1495 C 0.3947 0.42677 0.26266 0.0
C1496 C 0.40179 0.4275 0.21712 0.0
H1497 H 0.40217 0.41366 0.32851 0.0
H1498 H 0.38281 0.44062 0.27489 0.0
S1499 S 0.44727 0.38861 0.16416 0.0
N1500 N 0.44753 0.38055 0.21753 0.0
N1501 N 0.4263 0.40931 0.1597 0.0
C1502 C 0.418 0.40996 0.20278 0.0
C1503 C 0.4296 0.39446 0.23417 0.0
C1504 C 0.60948 0.01311 0.2555 0.0
C1505 C 0.59497 0.00733 0.29796 0.0
C1506 C 0.59644 0.98751 0.22306 0.0
C1507 C 0.56839 0.95522 0.23185 0.0
H1508 H 0.62787 0.0387 0.24542 0.0
H1509 H 0.60491 0.99475 0.18928 0.0
S1510 S 0.52538 0.92559 0.34012 0.0
N1511 N 0.55454 0.96557 0.349 0.0
N1512 N 0.5301 0.91759 0.28805 0.0
C1513 C 0.55689 0.94792 0.27583 0.0
C1514 C 0.57016 0.97398 0.30891 0.0
C1515 C 0.40981 0.00127 0.74008 0.0
C1516 C 0.41109 0.97117 0.73622 0.0
C1517 C 0.41791 0.01918 0.78074 0.0
C1518 C 0.42766 0.00749 0.81828 0.0
H1519 H 0.4056 0.01254 0.71089 0.0
H1520 H 0.42006 0.04394 0.78137 0.0
S1521 S 0.43006 0.92758 0.82594 0.0
N1522 N 0.41857 0.92854 0.77432 0.0
N1523 N 0.43399 0.96196 0.84967 0.0
C1524 C 0.42551 0.97573 0.81546 0.0
C1525 C 0.41726 0.95769 0.77464 0.0
C1526 C 0.0338 0.44859 0.74762 0.0
C1527 C 0.02252 0.43236 0.70639 0.0
C1528 C 0.01367 0.43567 0.7856 0.0
C1529 C 0.98156 0.4063 0.78328 0.0
H1530 H 0.05678 0.47312 0.74963 0.0
H1531 H 0.02124 0.45117 0.81526 0.0
S1532 S 0.94371 0.35111 0.68557 0.0
N1533 N 0.97981 0.38297 0.66702 0.0
N1534 N 0.94217 0.35837 0.73889 0.0
C1535 C 0.97228 0.38755 0.74384 0.0
C1536 C 0.99264 0.40081 0.705 0.0
C1537 C 0.5711 0.60381 0.76027 0.0
C1538 C 0.5688 0.59472 0.71539 0.0
C1539 C 0.58539 0.5917 0.7915 0.0
C1540 C 0.59661 0.56939 0.77853 0.0
H1541 H 0.55958 0.6182 0.7717 0.0
H1542 H 0.58389 0.59653 0.82633 0.0
S1543 S 0.59898 0.54108 0.66414 0.0
N1544 N 0.58209 0.56552 0.6588 0.0
N1545 N 0.60786 0.54184 0.71736 0.0
C1546 C 0.5974 0.563 0.73308 0.0
C1547 C 0.58354 0.57581 0.70143 0.0
C1548 C 0.16098 0.18307 0.26752 0.0
C1549 C 0.18561 0.20991 0.29307 0.0
C1550 C 0.1684 0.17635 0.22493 0.0
C1551 C 0.20112 0.19538 0.20665 0.0
H1552 H 0.13591 0.16667 0.281 0.0
H1553 H 0.14825 0.15603 0.20598 0.0
S1554 S 0.27494 0.2682 0.26019 0.0
N1555 N 0.24418 0.25575 0.29706 0.0
N1556 N 0.25829 0.24263 0.21719 0.0
C1557 C 0.22611 0.22221 0.23187 0.0
C1558 C 0.21829 0.22963 0.27495 0.0
C1559 C 0.77308 0.01578 0.23823 0.0
C1560 C 0.79722 0.01518 0.20997 0.0
C1561 C 0.76782 0.00192 0.2811 0.0
C1562 C 0.78634 0.98686 0.29658 0.0
H1563 H 0.7572 0.02558 0.22647 0.0
H1564 H 0.74965 0.00355 0.30255 0.0
S1565 S 0.85264 0.97951 0.23562 0.0
N1566 N 0.83972 0.99851 0.20046 0.0
N1567 N 0.83037 0.97334 0.28131 0.0
C1568 C 0.81095 0.98685 0.26901 0.0
C1569 C 0.81622 0.00076 0.2256 0.0
C1570 C 0.03002 0.80256 0.21577 0.0
C1571 C 0.99636 0.78784 0.19963 0.0
C1572 C 0.03704 0.80181 0.26101 0.0
C1573 C 0.01065 0.78606 0.29183 0.0
H1574 H 0.05129 0.81436 0.19318 0.0
H1575 H 0.06319 0.81321 0.27177 0.0
S1576 S 0.91812 0.74657 0.26755 0.0
N1577 N 0.93664 0.75907 0.21883 0.0
N1578 N 0.94928 0.7574 0.30334 0.0
C1579 C 0.97683 0.7719 0.27622 0.0
C1580 C 0.96982 0.77283 0.23032 0.0
C1581 C 0.75683 0.79121 0.70379 0.0
C1582 C 0.78263 0.78606 0.68643 0.0
C1583 C 0.75436 0.79562 0.74967 0.0
C1584 C 0.7781 0.79582 0.77971 0.0
H1585 H 0.73762 0.79055 0.68195 0.0
H1586 H 0.73324 0.79791 0.76173 0.0
S1587 S 0.85471 0.79095 0.74956 0.0
N1588 N 0.83472 0.78594 0.70206 0.0
N1589 N 0.8312 0.79549 0.7874 0.0
C1590 C 0.80533 0.79302 0.76211 0.0
C1591 C 0.80735 0.78786 0.71575 0.0
C1592 C 0.19705 0.00377 0.76603 0.0
C1593 C 0.19636 0.97529 0.78597 0.0
C1594 C 0.20352 0.01072 0.7209 0.0
C1595 C 0.20855 0.98899 0.69341 0.0
H1596 H 0.19335 0.02154 0.78566 0.0
H1597 H 0.20425 0.03312 0.70736 0.0
S1598 S 0.21096 0.91231 0.72835 0.0
N1599 N 0.20286 0.92634 0.77452 0.0
N1600 N 0.21342 0.93848 0.68866 0.0
C1601 C 0.20745 0.96024 0.71229 0.0
C1602 C 0.2016 0.95353 0.75878 0.0
C1603 C 0.97046 0.19769 0.73126 0.0
C1604 C 0.99668 0.21296 0.70042 0.0
C1605 C 0.97705 0.19925 0.77677 0.0
C1606 C 0.01051 0.21555 0.79378 0.0
H1607 H 0.94467 0.18382 0.72008 0.0
H1608 H 0.95541 0.18733 0.79878 0.0
S1609 S 0.08917 0.25614 0.72708 0.0
N1610 N 0.05832 0.24354 0.6903 0.0
N1611 N 0.07032 0.24479 0.77578 0.0
C1612 C 0.03725 0.23003 0.76342 0.0
C1613 C 0.03051 0.22905 0.71688 0.0
C1614 C 0.90662 0.5661 0.6087 0.0
C1615 C 0.87372 0.55813 0.62179 0.0
C1616 C 0.91312 0.55812 0.56627 0.0
C1617 C 0.8869 0.54182 0.53526 0.0
H1618 H 0.9273 0.57715 0.63239 0.0
H1619 H 0.93879 0.56469 0.55775 0.0
S1620 S 0.79601 0.51426 0.5535 0.0
N1621 N 0.81466 0.53255 0.60065 0.0
N1622 N 0.82645 0.51725 0.52088 0.0
C1623 C 0.85391 0.53414 0.54768 0.0
C1624 C 0.8474 0.54239 0.59093 0.0
C1625 C 0.50489 0.36562 0.57779 0.0
C1626 C 0.4811 0.36566 0.54799 0.0
C1627 C 0.49594 0.35406 0.62162 0.0
C1628 C 0.4624 0.34029 0.63675 0.0
H1629 H 0.53041 0.37367 0.56667 0.0
H1630 H 0.51523 0.35489 0.64348 0.0
S1631 S 0.39049 0.33472 0.57213 0.0
N1632 N 0.42288 0.35237 0.53751 0.0
N1633 N 0.40525 0.32729 0.61824 0.0
C1634 C 0.43827 0.33987 0.60722 0.0
C1635 C 0.44785 0.35345 0.56335 0.0
C1636 C 0.60887 0.07896 0.57901 0.0
C1637 C 0.63409 0.09542 0.54669 0.0
C1638 C 0.61695 0.08478 0.62465 0.0
C1639 C 0.6505 0.107 0.63933 0.0
H1640 H 0.5833 0.06042 0.56914 0.0
H1641 H 0.59705 0.07065 0.64856 0.0
S1642 S 0.72453 0.15992 0.56731 0.0
N1643 N 0.6931 0.13775 0.53253 0.0
N1644 N 0.70802 0.14809 0.61723 0.0
C1645 C 0.67532 0.12495 0.60707 0.0
C1646 C 0.66716 0.11929 0.5611 0.0
C1647 C 0.48914 0.13189 0.13167 0.0
C1648 C 0.4568 0.11375 0.15121 0.0
C1649 C 0.49332 0.13096 0.08556 0.0
C1650 C 0.46548 0.1109 0.05794 0.0
H1651 H 0.51101 0.14839 0.15173 0.0
H1652 H 0.51818 0.14692 0.07126 0.0
S1653 S 0.37618 0.05675 0.09261 0.0
N1654 N 0.39677 0.07406 0.13912 0.0
N1655 N 0.40507 0.07152 0.0531 0.0
C1656 C 0.43342 0.09152 0.07723 0.0
C1657 C 0.42898 0.09302 0.12376 0.0
C1658 C 0.89804 0.35419 0.10658 0.0
C1659 C 0.87021 0.32349 0.12183 0.0
C1660 C 0.90011 0.36488 0.06215 0.0
C1661 C 0.87401 0.34555 0.03173 0.0
H1662 H 0.91893 0.36949 0.12876 0.0
H1663 H 0.92281 0.38752 0.05125 0.0
S1664 S 0.79337 0.266 0.05748 0.0
N1665 N 0.81496 0.27577 0.1043 0.0
N1666 N 0.81758 0.29614 0.02213 0.0
C1667 C 0.8451 0.31596 0.04778 0.0
C1668 C 0.84354 0.3048 0.09238 0.0
C1669 C 0.67996 0.55045 0.10377 0.0
C1670 C 0.65312 0.53882 0.13397 0.0
C1671 C 0.67438 0.54927 0.05825 0.0
C1672 C 0.64155 0.53644 0.04011 0.0
H1673 H 0.70581 0.56066 0.1153 0.0
H1674 H 0.69649 0.55859 0.03717 0.0
S1675 S 0.56231 0.50423 0.10493 0.0
N1676 N 0.59216 0.51478 0.1429 0.0
N1677 N 0.58174 0.51265 0.05649 0.0
C1678 C 0.61426 0.52473 0.06981 0.0
C1679 C 0.61999 0.52583 0.11682 0.0
C1680 C 0.54223 0.89512 0.89507 0.0
C1681 C 0.55322 0.87505 0.87306 0.0
C1682 C 0.53862 0.8942 0.94117 0.0
C1683 C 0.54584 0.87317 0.96741 0.0
H1684 H 0.53673 0.9122 0.87661 0.0
H1685 H 0.53069 0.91062 0.95632 0.0
S1686 S 0.57112 0.81223 0.9259 0.0
N1687 N 0.56809 0.83113 0.88089 0.0
N1688 N 0.56174 0.82943 0.96759 0.0
C1689 C 0.55564 0.85196 0.94579 0.0
C1690 C 0.55927 0.85293 0.89868 0.0
C1691 C 0.08814 0.64967 0.92832 0.0
C1692 C 0.11373 0.64553 0.94838 0.0
C1693 C 0.09193 0.66253 0.88482 0.0
C1694 C 0.12078 0.67035 0.85923 0.0
H1695 H 0.06596 0.64483 0.94722 0.0
H1696 H 0.07222 0.66653 0.87144 0.0
S1697 S 0.19628 0.66714 0.89742 0.0
N1698 N 0.17031 0.65345 0.94034 0.0
N1699 N 0.17599 0.67489 0.85787 0.0
C1700 C 0.14647 0.66649 0.87894 0.0
C1701 C 0.14324 0.65462 0.92352 0.0
C1702 C 0.35844 0.45433 0.92864 0.0
C1703 C 0.33971 0.4617 0.95906 0.0
C1704 C 0.34781 0.44645 0.88398 0.0
C1705 C 0.31773 0.4449 0.86839 0.0
H1706 H 0.38068 0.45357 0.93963 0.0
H1707 H 0.363 0.44103 0.86155 0.0
S1708 S 0.26198 0.46598 0.93331 0.0
N1709 N 0.29143 0.47022 0.96882 0.0
N1710 N 0.27122 0.45411 0.88624 0.0
C1711 C 0.29943 0.45304 0.89818 0.0
C1712 C 0.31055 0.46183 0.94302 0.0
C1713 C 0.10613 0.43883 0.43805 0.0
C1714 C 0.13336 0.45714 0.46732 0.0
C1715 C 0.11167 0.43088 0.3951 0.0
C1716 C 0.14467 0.44192 0.3795 0.0
H1717 H 0.08035 0.43021 0.44857 0.0
H1718 H 0.09016 0.41801 0.37292 0.0
S1719 S 0.22457 0.49292 0.44159 0.0
N1720 N 0.1945 0.48648 0.47732 0.0
N1721 N 0.20482 0.47349 0.39552 0.0
C1722 C 0.17201 0.46042 0.40821 0.0
C1723 C 0.16638 0.46763 0.45232 0.0
C1724 C 0.56212 0.64628 0.38817 0.0
C1725 C 0.56689 0.67713 0.37015 0.0
C1726 C 0.55337 0.6375 0.43278 0.0
C1727 C 0.54928 0.65934 0.4613 0.0
H1728 H 0.56478 0.62841 0.36739 0.0
H1729 H 0.55077 0.61401 0.44522 0.0
S1730 S 0.55657 0.74185 0.43089 0.0
N1731 N 0.5653 0.72862 0.38453 0.0
N1732 N 0.54904 0.71243 0.46831 0.0
C1733 C 0.55355 0.69002 0.44377 0.0
C1734 C 0.56249 0.69895 0.39837 0.0
C1735 C 0.35327 0.91035 0.43993 0.0
C1736 C 0.33852 0.88131 0.4669 0.0
C1737 C 0.34368 0.90871 0.39519 0.0
C1738 C 0.31872 0.87809 0.37553 0.0
H1739 H 0.37194 0.93461 0.45359 0.0
H1740 H 0.35642 0.93161 0.37542 0.0
S1741 S 0.27526 0.79404 0.43009 0.0
N1742 N 0.29948 0.82027 0.46937 0.0
N1743 N 0.28159 0.81771 0.38569 0.0
C1744 C 0.30419 0.84883 0.40184 0.0
C1745 C 0.31414 0.85031 0.44726 0.0
C1746 C 0.29053 0.32577 0.04248 0.0
C1747 C 0.2943 0.30148 0.06604 0.0
C1748 C 0.30496 0.35874 0.05844 0.0
C1749 C 0.32312 0.36812 0.09865 0.0
H1750 H 0.2732 0.31836 0.01463 0.0
H1751 H 0.29939 0.37626 0.04117 0.0
S1752 S 0.34669 0.31547 0.16628 0.0
N1753 N 0.32263 0.29001 0.12621 0.0
N1754 N 0.34947 0.35253 0.15694 0.0
C1755 C 0.33085 0.34536 0.11924 0.0
C1756 C 0.31645 0.31171 0.10254 0.0
C1757 C 0.6437 0.98726 0.10241 0.0
C1758 C 0.6202 0.97115 0.06802 0.0
C1759 C 0.67846 0.00196 0.09497 0.0
C1760 C 0.69082 0.0004 0.05306 0.0
H1761 H 0.63509 0.98513 0.13624 0.0
H1762 H 0.69539 0.01092 0.12332 0.0
S1763 S 0.64056 0.9671 0.95021 0.0
N1764 N 0.61204 0.95965 0.98896 0.0
N1765 N 0.67786 0.9863 0.97531 0.0
C1766 C 0.66813 0.9879 0.01731 0.0
C1767 C 0.63255 0.97355 0.02473 0.0
C1768 C 0.99779 0.67704 0.05044 0.0
C1769 C 0.00566 0.70744 0.07146 0.0
C1770 C 0.01244 0.65819 0.06565 0.0
C1771 C 0.03521 0.66963 0.10173 0.0
H1772 H 0.98334 0.66975 0.01988 0.0
H1773 H 0.00955 0.63719 0.04563 0.0
S1774 S 0.05693 0.74324 0.17358 0.0
N1775 N 0.03156 0.74429 0.13528 0.0
N1776 N 0.0599 0.70939 0.16238 0.0
C1777 C 0.03911 0.69714 0.12649 0.0
C1778 C 0.02413 0.71608 0.11149 0.0
C1779 C 0.35186 0.32481 0.3871 0.0
C1780 C 0.37015 0.31621 0.41684 0.0
C1781 C 0.3167 0.31075 0.39171 0.0
C1782 C 0.29914 0.28881 0.42707 0.0
H1783 H 0.36442 0.34119 0.35903 0.0
H1784 H 0.30289 0.31575 0.36636 0.0
S1785 S 0.33448 0.25868 0.51448 0.0
N1786 N 0.36733 0.28415 0.48344 0.0
N1787 N 0.3018 0.25953 0.49242 0.0
C1788 C 0.31713 0.28142 0.45819 0.0
C1789 C 0.35255 0.29467 0.45298 0.0
C1790 C 0.68698 0.00454 0.41206 0.0
C1791 C 0.71489 0.02022 0.4411 0.0
C1792 C 0.67278 0.02292 0.39336 0.0
C1793 C 0.6868 0.05768 0.40231 0.0
H1794 H 0.67806 0.97889 0.4007 0.0
H1795 H 0.65193 0.01037 0.37016 0.0
S1796 S 0.75617 0.10838 0.48255 0.0
N1797 N 0.75277 0.07061 0.48266 0.0
N1798 N 0.72699 0.10551 0.44755 0.0
C1799 C 0.71293 0.07269 0.43421 0.0
C1800 C 0.72661 0.05378 0.45379 0.0
C1801 C 0.9901 0.68016 0.44863 0.0
C1802 C 0.97371 0.69923 0.4444 0.0
C1803 C 0.97525 0.64699 0.43143 0.0
C1804 C 0.94406 0.63243 0.40869 0.0
H1805 H 0.01386 0.69047 0.46654 0.0
H1806 H 0.98708 0.63198 0.4384 0.0
S1807 S 0.89489 0.67435 0.38011 0.0
N1808 N 0.92715 0.7027 0.4097 0.0
N1809 N 0.89992 0.64101 0.37749 0.0
C1810 C 0.92912 0.65233 0.40104 0.0
C1811 C 0.94372 0.68555 0.41892 0.0
C1812 C 0.67843 0.6375 0.92806 0.0
C1813 C 0.68371 0.62959 0.8846 0.0
C1814 C 0.69734 0.67079 0.94493 0.0
C1815 C 0.7217 0.69717 0.91855 0.0
H1816 H 0.66118 0.61747 0.95011 0.0
H1817 H 0.69397 0.67556 0.97918 0.0
S1818 S 0.74257 0.69032 0.80157 0.0
N1819 N 0.71337 0.65129 0.81509 0.0
N1820 N 0.74806 0.71361 0.846 0.0
C1821 C 0.72556 0.68982 0.87435 0.0
C1822 C 0.7068 0.65609 0.85754 0.0
C1823 C 0.31231 0.0045 0.91329 0.0
C1824 C 0.30016 0.01824 0.94547 0.0
C1825 C 0.34628 0.0227 0.89852 0.0
C1826 C 0.36862 0.05526 0.91518 0.0
H1827 H 0.29483 0.98102 0.89676 0.0
H1828 H 0.35443 0.01224 0.87227 0.0
S1829 S 0.35025 0.09927 0.00541 0.0
N1830 N 0.31406 0.06377 0.99736 0.0
N1831 N 0.37729 0.09788 0.97046 0.0
C1832 C 0.35726 0.06757 0.95019 0.0
C1833 C 0.3232 0.04905 0.9652 0.0
C1834 C 0.98756 0.3305 0.87656 0.0
C1835 C 0.96816 0.33766 0.90574 0.0
C1836 C 0.00394 0.31332 0.89182 0.0
C1837 C 0.00034 0.30217 0.93613 0.0
H1838 H 0.98678 0.3345 0.84126 0.0
H1839 H 0.0155 0.30471 0.86762 0.0
S1840 S 0.95724 0.32033 0.02642 0.0
N1841 N 0.95128 0.33794 0.982 0.0
N1842 N 0.98036 0.30379 0.00986 0.0
C1843 C 0.98464 0.31292 0.96643 0.0
C1844 C 0.96894 0.33127 0.95128 0.0
C1845 C 0.68299 0.66313 0.57639 0.0
C1846 C 0.70932 0.68516 0.60512 0.0
C1847 C 0.64896 0.65218 0.58616 0.0
C1848 C 0.64023 0.66279 0.6251 0.0
H1849 H 0.68901 0.6585 0.54334 0.0
H1850 H 0.63004 0.63901 0.56066 0.0
S1851 S 0.69764 0.70934 0.71799 0.0
N1852 N 0.72305 0.70885 0.67932 0.0
N1853 N 0.65893 0.68878 0.69719 0.0
C1854 C 0.66544 0.6799 0.65708 0.0
C1855 C 0.7001 0.69065 0.64739 0.0
C1856 C 0.3478 0.99414 0.5821 0.0
C1857 C 0.34231 0.97798 0.62336 0.0
C1858 C 0.33313 0.01384 0.57224 0.0
C1859 C 0.31256 0.01788 0.6034 0.0
H1860 H 0.35955 0.98783 0.5554 0.0
H1861 H 0.33415 0.02208 0.53828 0.0
S1862 S 0.30062 0.99028 0.72071 0.0
N1863 N 0.32239 0.97388 0.69878 0.0
N1864 N 0.29516 0.01185 0.68059 0.0
C1865 C 0.31211 0.00698 0.64711 0.0
C1866 C 0.32683 0.9865 0.657 0.0
C1867 C 0.00917 0.34044 0.60101 0.0
C1868 C 0.03964 0.36618 0.5831 0.0
C1869 C 0.99157 0.30859 0.5802 0.0
C1870 C 0.0047 0.30169 0.54183 0.0
H1871 H 0.00086 0.34363 0.63323 0.0
H1872 H 0.9704 0.28812 0.59759 0.0
S1873 S 0.08081 0.362 0.47912 0.0
N1874 N 0.07954 0.38397 0.52175 0.0
N1875 N 0.04672 0.3242 0.48359 0.0
C1876 C 0.03261 0.32847 0.52092 0.0
C1877 C 0.05031 0.36067 0.54169 0.0
C1878 C 0.98033 0.66463 0.77483 0.0
C1879 C 0.96754 0.63234 0.79415 0.0
C1880 C 0.01524 0.68492 0.76538 0.0
C1881 C 0.03782 0.67323 0.77504 0.0
H1882 H 0.963 0.67234 0.76206 0.0
H1883 H 0.0238 0.70783 0.74604 0.0
S1884 S 0.01628 0.59149 0.82834 0.0
N1885 N 0.98037 0.59191 0.8279 0.0
N1886 N 0.04448 0.62769 0.80569 0.0
C1887 C 0.02538 0.64238 0.79789 0.0
C1888 C 0.99056 0.62267 0.809 0.0
C1889 C 0.38813 0.3635 0.68887 0.0
C1890 C 0.36835 0.33363 0.7133 0.0
C1891 C 0.37776 0.38736 0.68265 0.0
C1892 C 0.34766 0.38266 0.70179 0.0
H1893 H 0.41389 0.37082 0.67983 0.0
H1894 H 0.39558 0.41159 0.66802 0.0
S1895 S 0.28467 0.3067 0.76365 0.0
N1896 N 0.3153 0.29866 0.75174 0.0
N1897 N 0.29603 0.34399 0.74128 0.0
C1898 C 0.32575 0.35118 0.72178 0.0
C1899 C 0.33622 0.32664 0.72762 0.0
C1900 C 0.69186 0.01778 0.73985 0.0
C1901 C 0.69168 0.04261 0.71216 0.0
C1902 C 0.66901 0.98319 0.73279 0.0
C1903 C 0.64569 0.97257 0.6976 0.0
H1904 H 0.70552 0.0252 0.77101 0.0
H1905 H 0.66647 0.96532 0.75834 0.0
S1906 S 0.6448 0.02634 0.60644 0.0
N1907 N 0.67407 0.05334 0.64098 0.0
N1908 N 0.63008 0.98836 0.62857 0.0
C1909 C 0.64971 0.99652 0.66549 0.0
C1910 C 0.67349 0.03166 0.67225 0.0
C1911 C 0.38884 0.00882 0.26897 0.0
C1912 C 0.37756 0.03068 0.25406 0.0
C1913 C 0.37674 0.97713 0.25049 0.0
C1914 C 0.35238 0.9654 0.21663 0.0
H1915 H 0.40803 0.0164 0.29453 0.0
H1916 H 0.38624 0.96134 0.26373 0.0
S1917 S 0.30998 0.0101 0.17102 0.0
N1918 N 0.33797 0.03726 0.20672 0.0
N1919 N 0.31422 0.97616 0.17227 0.0
C1920 C 0.33918 0.98591 0.20292 0.0
C1921 C 0.3521 0.01899 0.22147 0.0
C1922 C 0.97523 0.33314 0.26019 0.0
C1923 C 0.95724 0.35072 0.25622 0.0
C1924 C 0.01032 0.34948 0.25189 0.0
C1925 C 0.02824 0.38371 0.23907 0.0
H1926 H 0.96221 0.3067 0.26997 0.0
H1927 H 0.02373 0.3358 0.25751 0.0
S1928 S 0.99351 0.44102 0.22376 0.0
N1929 N 0.96059 0.40446 0.23863 0.0
N1930 N 0.02595 0.43448 0.22232 0.0
C1931 C 0.0105 0.40119 0.23399 0.0
C1932 C 0.97514 0.38489 0.24279 0.0
C1933 C 0.64611 0.66631 0.24019 0.0
C1934 C 0.63078 0.65952 0.19816 0.0
C1935 C 0.66556 0.65198 0.25321 0.0
C1936 C 0.67104 0.63117 0.22419 0.0
H1937 H 0.63987 0.67953 0.26492 0.0
H1938 H 0.67368 0.65459 0.28749 0.0
S1939 S 0.64404 0.61378 0.10662 0.0
N1940 N 0.62683 0.63577 0.12517 0.0
N1941 N 0.6657 0.61067 0.14859 0.0
C1942 C 0.65994 0.62836 0.18005 0.0
C1943 C 0.639 0.64198 0.16728 0.0
loop_
_geom_bond_atom_site_label_1
_geom_bond_atom_site_label_2
_geom_bond_distance
_geom_bond_site_symmetry_2
_ccdc_geom_bond_type
Zn0 O6 1.920 1_554 S
Zn0 O12 1.898 . S
Zn0 O15 1.905 . S
Zn1 O9 1.905 . S
Zn1 O10 1.898 . S
Zn1 O18 1.920 . S
Zn2 O5 2.080 . S
Zn2 O8 2.114 . S
Zn2 O11 2.120 . S
Zn2 O13 2.120 . S
Zn2 O14 2.114 . S
Zn2 O17 2.080 . S
C3 O8 1.166 . S
C3 O9 1.182 . S
C4 O10 1.167 . S
C4 O11 1.299 . S
O5 Zn2 2.080 . S
O5 C19 1.305 1_554 S
O6 Zn0 1.920 1_556 S
O6 C19 1.234 . S
C7 O12 1.167 . S
C7 O13 1.299 . S
O8 Zn2 2.114 . S
O8 C3 1.166 . S
O9 Zn1 1.905 . S
O9 C3 1.182 . S
O10 Zn1 1.898 . S
O10 C4 1.167 . S
O11 Zn2 2.120 . S
O11 C4 1.299 . S
O12 Zn0 1.898 . S
O12 C7 1.167 . S
O13 Zn2 2.120 . S
O13 C7 1.299 . S
O14 Zn2 2.114 . S
O14 C16 1.166 . S
O15 Zn0 1.905 . S
O15 C16 1.182 . S
C16 O14 1.166 . S
C16 O15 1.182 . S
O17 Zn2 2.080 . S
O17 C20 1.305 . S
O18 Zn1 1.920 . S
O18 C20 1.234 . S
C19 O5 1.305 1_556 S
C19 O6 1.234 . S
C20 O17 1.305 . S
C20 O18 1.234 . S
Zn21 O27 1.920 1_554 S
Zn21 O33 1.898 . S
Zn21 O36 1.905 . S
Zn22 O30 1.905 . S
Zn22 O31 1.898 . S
Zn22 O39 1.920 . S
Zn23 O26 2.080 . S
Zn23 O29 2.114 . S
Zn23 O32 2.120 . S
Zn23 O34 2.120 . S
Zn23 O35 2.114 . S
Zn23 O38 2.080 . S
C24 O29 1.166 . S
C24 O30 1.182 1_545 S
C25 O31 1.167 . S
C25 O32 1.299 1_565 S
O26 Zn23 2.080 . S
O26 C40 1.305 1_554 S
O27 Zn21 1.920 1_556 S
O27 C40 1.234 . S
C28 O33 1.167 . S
C28 O34 1.299 . S
O29 Zn23 2.114 . S
O29 C24 1.166 . S
O30 Zn22 1.905 . S
O30 C24 1.182 1_565 S
O31 Zn22 1.898 . S
O31 C25 1.167 . S
O32 Zn23 2.120 . S
O32 C25 1.299 1_545 S
O33 Zn21 1.898 . S
O33 C28 1.167 . S
O34 Zn23 2.120 . S
O34 C28 1.299 . S
O35 Zn23 2.114 . S
O35 C37 1.166 . S
O36 Zn21 1.905 . S
O36 C37 1.182 . S
C37 O35 1.166 . S
C37 O36 1.182 . S
O38 Zn23 2.080 . S
O38 C41 1.305 1_545 S
O39 Zn22 1.920 . S
O39 C41 1.234 . S
C40 O26 1.305 1_556 S
C40 O27 1.234 . S
C41 O38 1.305 1_565 S
C41 O39 1.234 . S
Zn42 O48 1.920 1_554 S
Zn42 O54 1.898 . S
Zn42 O57 1.905 . S
Zn43 O51 1.905 . S
Zn43 O52 1.898 . S
Zn43 O60 1.920 . S
Zn44 O47 2.080 . S
Zn44 O50 2.114 . S
Zn44 O53 2.120 . S
Zn44 O55 2.120 . S
Zn44 O56 2.114 . S
Zn44 O59 2.080 . S
C45 O50 1.166 . S
C45 O51 1.182 1_655 S
C46 O52 1.167 . S
C46 O53 1.299 1_455 S
O47 Zn44 2.080 . S
O47 C61 1.305 1_554 S
O48 Zn42 1.920 1_556 S
O48 C61 1.234 . S
C49 O54 1.167 . S
C49 O55 1.299 . S
O50 Zn44 2.114 . S
O50 C45 1.166 . S
O51 Zn43 1.905 . S
O51 C45 1.182 1_455 S
O52 Zn43 1.898 . S
O52 C46 1.167 . S
O53 Zn44 2.120 . S
O53 C46 1.299 1_655 S
O54 Zn42 1.898 . S
O54 C49 1.167 . S
O55 Zn44 2.120 . S
O55 C49 1.299 . S
O56 Zn44 2.114 . S
O56 C58 1.166 . S
O57 Zn42 1.905 . S
O57 C58 1.182 . S
C58 O56 1.166 . S
C58 O57 1.182 . S
O59 Zn44 2.080 . S
O59 C62 1.305 1_655 S
O60 Zn43 1.920 . S
O60 C62 1.234 . S
C61 O47 1.305 1_556 S
C61 O48 1.234 . S
C62 O59 1.305 1_455 S
C62 O60 1.234 . S
Zn63 O69 1.920 . S
Zn63 O75 1.898 . S
Zn63 O78 1.905 . S
Zn64 O72 1.905 . S
Zn64 O73 1.898 . S
Zn64 O81 1.920 . S
Zn65 O68 2.080 . S
Zn65 O71 2.114 . S
Zn65 O74 2.120 . S
Zn65 O76 2.120 . S
Zn65 O77 2.114 . S
Zn65 O80 2.080 . S
C66 O71 1.166 . S
C66 O72 1.182 . S
C67 O73 1.167 . S
C67 O74 1.299 . S
O68 Zn65 2.080 . S
O68 C82 1.305 . S
O69 Zn63 1.920 . S
O69 C82 1.234 . S
C70 O75 1.167 . S
C70 O76 1.299 . S
O71 Zn65 2.114 . S
O71 C66 1.166 . S
O72 Zn64 1.905 . S
O72 C66 1.182 . S
O73 Zn64 1.898 . S
O73 C67 1.167 . S
O74 Zn65 2.120 . S
O74 C67 1.299 . S
O75 Zn63 1.898 . S
O75 C70 1.167 . S
O76 Zn65 2.120 . S
O76 C70 1.299 . S
O77 Zn65 2.114 . S
O77 C79 1.166 . S
O78 Zn63 1.905 . S
O78 C79 1.182 . S
C79 O77 1.166 . S
C79 O78 1.182 . S
O80 Zn65 2.080 . S
O80 C83 1.305 . S
O81 Zn64 1.920 . S
O81 C83 1.234 . S
C82 O68 1.305 . S
C82 O69 1.234 . S
C83 O80 1.305 . S
C83 O81 1.234 . S
Zn84 O90 1.920 . S
Zn84 O96 1.898 . S
Zn84 O99 1.905 . S
Zn85 O93 1.905 . S
Zn85 O94 1.898 . S
Zn85 O102 1.920 . S
Zn86 O89 2.080 . S
Zn86 O92 2.114 . S
Zn86 O95 2.120 . S
Zn86 O97 2.120 . S
Zn86 O98 2.114 . S
Zn86 O101 2.080 . S
C87 O92 1.166 . S
C87 O93 1.182 . S
C88 O94 1.167 . S
C88 O95 1.299 . S
O89 Zn86 2.080 . S
O89 C103 1.305 1_565 S
O90 Zn84 1.920 . S
O90 C103 1.234 . S
C91 O96 1.167 . S
C91 O97 1.299 1_545 S
O92 Zn86 2.114 . S
O92 C87 1.166 . S
O93 Zn85 1.905 . S
O93 C87 1.182 . S
O94 Zn85 1.898 . S
O94 C88 1.167 . S
O95 Zn86 2.120 . S
O95 C88 1.299 . S
O96 Zn84 1.898 . S
O96 C91 1.167 . S
O97 Zn86 2.120 . S
O97 C91 1.299 1_565 S
O98 Zn86 2.114 . S
O98 C100 1.166 . S
O99 Zn84 1.905 . S
O99 C100 1.182 1_545 S
C100 O98 1.166 . S
C100 O99 1.182 1_565 S
O101 Zn86 2.080 . S
O101 C104 1.305 . S
O102 Zn85 1.920 . S
O102 C104 1.234 . S
C103 O89 1.305 1_545 S
C103 O90 1.234 . S
C104 O101 1.305 . S
C104 O102 1.234 . S
Zn105 O111 1.920 . S
Zn105 O117 1.898 . S
Zn105 O120 1.905 . S
Zn106 O114 1.905 . S
Zn106 O115 1.898 . S
Zn106 O123 1.920 . S
Zn107 O110 2.080 . S
Zn107 O113 2.114 . S
Zn107 O116 2.120 . S
Zn107 O118 2.120 . S
Zn107 O119 2.114 . S
Zn107 O122 2.080 . S
C108 O113 1.166 . S
C108 O114 1.182 . S
C109 O115 1.167 . S
C109 O116 1.299 . S
O110 Zn107 2.080 . S
O110 C124 1.305 1_455 S
O111 Zn105 1.920 . S
O111 C124 1.234 . S
C112 O117 1.167 . S
C112 O118 1.299 1_655 S
O113 Zn107 2.114 . S
O113 C108 1.166 . S
O114 Zn106 1.905 . S
O114 C108 1.182 . S
O115 Zn106 1.898 . S
O115 C109 1.167 . S
O116 Zn107 2.120 . S
O116 C109 1.299 . S
O117 Zn105 1.898 . S
O117 C112 1.167 . S
O118 Zn107 2.120 . S
O118 C112 1.299 1_455 S
O119 Zn107 2.114 . S
O119 C121 1.166 . S
O120 Zn105 1.905 . S
O120 C121 1.182 1_655 S
C121 O119 1.166 . S
C121 O120 1.182 1_455 S
O122 Zn107 2.080 . S
O122 C125 1.305 . S
O123 Zn106 1.920 . S
O123 C125 1.234 . S
C124 O110 1.305 1_655 S
C124 O111 1.234 . S
C125 O122 1.305 . S
C125 O123 1.234 . S
Zn126 O132 1.920 1_556 S
Zn126 O138 1.898 . S
Zn126 O141 1.905 . S
Zn127 O135 1.905 . S
Zn127 O136 1.898 . S
Zn127 O144 1.920 . S
Zn128 O131 2.080 . S
Zn128 O134 2.114 . S
Zn128 O137 2.120 . S
Zn128 O139 2.120 . S
Zn128 O140 2.114 . S
Zn128 O143 2.080 . S
C129 O134 1.166 . S
C129 O135 1.182 . S
C130 O136 1.167 . S
C130 O137 1.299 . S
O131 Zn128 2.080 . S
O131 C145 1.305 1_556 S
O132 Zn126 1.920 1_554 S
O132 C145 1.234 . S
C133 O138 1.167 . S
C133 O139 1.299 . S
O134 Zn128 2.114 . S
O134 C129 1.166 . S
O135 Zn127 1.905 . S
O135 C129 1.182 . S
O136 Zn127 1.898 . S
O136 C130 1.167 . S
O137 Zn128 2.120 . S
O137 C130 1.299 . S
O138 Zn126 1.898 . S
O138 C133 1.167 . S
O139 Zn128 2.120 . S
O139 C133 1.299 . S
O140 Zn128 2.114 . S
O140 C142 1.166 . S
O141 Zn126 1.905 . S
O141 C142 1.182 . S
C142 O140 1.166 . S
C142 O141 1.182 . S
O143 Zn128 2.080 . S
O143 C146 1.305 . S
O144 Zn127 1.920 . S
O144 C146 1.234 . S
C145 O131 1.305 1_554 S
C145 O132 1.234 . S
C146 O143 1.305 . S
C146 O144 1.234 . S
Zn147 O153 1.920 . S
Zn147 O159 1.898 . S
Zn147 O162 1.905 . S
Zn148 O156 1.905 . S
Zn148 O157 1.898 . S
Zn148 O165 1.920 1_556 S
Zn149 O152 2.080 . S
Zn149 O155 2.114 . S
Zn149 O158 2.120 . S
Zn149 O160 2.120 . S
Zn149 O161 2.114 . S
Zn149 O164 2.080 . S
C150 O155 1.166 . S
C150 O156 1.182 . S
C151 O157 1.167 . S
C151 O158 1.299 . S
O152 Zn149 2.080 . S
O152 C166 1.305 1_565 S
O153 Zn147 1.920 . S
O153 C166 1.234 . S
C154 O159 1.167 . S
C154 O160 1.299 1_545 S
O155 Zn149 2.114 . S
O155 C150 1.166 . S
O156 Zn148 1.905 . S
O156 C150 1.182 . S
O157 Zn148 1.898 . S
O157 C151 1.167 . S
O158 Zn149 2.120 . S
O158 C151 1.299 . S
O159 Zn147 1.898 . S
O159 C154 1.167 . S
O160 Zn149 2.120 . S
O160 C154 1.299 1_565 S
O161 Zn149 2.114 . S
O161 C163 1.166 . S
O162 Zn147 1.905 . S
O162 C163 1.182 1_545 S
C163 O161 1.166 . S
C163 O162 1.182 1_565 S
O164 Zn149 2.080 . S
O164 C167 1.305 1_556 S
O165 Zn148 1.920 1_554 S
O165 C167 1.234 . S
C166 O152 1.305 1_545 S
C166 O153 1.234 . S
C167 O164 1.305 1_554 S
C167 O165 1.234 . S
Zn168 O174 1.920 1_556 S
Zn168 O180 1.898 . S
Zn168 O183 1.905 . S
Zn169 O177 1.905 . S
Zn169 O178 1.898 . S
Zn169 O186 1.920 . S
Zn170 O173 2.080 . S
Zn170 O176 2.114 . S
Zn170 O179 2.120 . S
Zn170 O181 2.120 . S
Zn170 O182 2.114 . S
Zn170 O185 2.080 . S
C171 O176 1.166 . S
C171 O177 1.182 1_455 S
C172 O178 1.167 . S
C172 O179 1.299 1_655 S
O173 Zn170 2.080 . S
O173 C187 1.305 1_556 S
O174 Zn168 1.920 1_554 S
O174 C187 1.234 . S
C175 O180 1.167 . S
C175 O181 1.299 . S
O176 Zn170 2.114 . S
O176 C171 1.166 . S
O177 Zn169 1.905 . S
O177 C171 1.182 1_655 S
O178 Zn169 1.898 . S
O178 C172 1.167 . S
O179 Zn170 2.120 . S
O179 C172 1.299 1_455 S
O180 Zn168 1.898 . S
O180 C175 1.167 . S
O181 Zn170 2.120 . S
O181 C175 1.299 . S
O182 Zn170 2.114 . S
O182 C184 1.166 . S
O183 Zn168 1.905 . S
O183 C184 1.182 . S
C184 O182 1.166 . S
C184 O183 1.182 . S
O185 Zn170 2.080 . S
O185 C188 1.305 1_455 S
O186 Zn169 1.920 . S
O186 C188 1.234 . S
C187 O173 1.305 1_554 S
C187 O174 1.234 . S
C188 O185 1.305 1_655 S
C188 O186 1.234 . S
Zn189 O195 1.920 . S
Zn189 O201 1.898 . S
Zn189 O204 1.905 . S
Zn190 O198 1.905 . S
Zn190 O199 1.898 . S
Zn190 O207 1.920 . S
Zn191 O194 2.080 . S
Zn191 O197 2.114 . S
Zn191 O200 2.120 . S
Zn191 O202 2.120 . S
Zn191 O203 2.114 . S
Zn191 O206 2.080 . S
C192 O197 1.166 . S
C192 O198 1.182 . S
C193 O199 1.167 . S
C193 O200 1.299 . S
O194 Zn191 2.080 . S
O194 C208 1.305 . S
O195 Zn189 1.920 . S
O195 C208 1.234 . S
C196 O201 1.167 . S
C196 O202 1.299 . S
O197 Zn191 2.114 . S
O197 C192 1.166 . S
O198 Zn190 1.905 . S
O198 C192 1.182 . S
O199 Zn190 1.898 . S
O199 C193 1.167 . S
O200 Zn191 2.120 . S
O200 C193 1.299 . S
O201 Zn189 1.898 . S
O201 C196 1.167 . S
O202 Zn191 2.120 . S
O202 C196 1.299 . S
O203 Zn191 2.114 . S
O203 C205 1.166 . S
O204 Zn189 1.905 . S
O204 C205 1.182 . S
C205 O203 1.166 . S
C205 O204 1.182 . S
O206 Zn191 2.080 . S
O206 C209 1.305 . S
O207 Zn190 1.920 . S
O207 C209 1.234 . S
C208 O194 1.305 . S
C208 O195 1.234 . S
C209 O206 1.305 . S
C209 O207 1.234 . S
Zn210 O216 1.920 . S
Zn210 O222 1.898 . S
Zn210 O225 1.905 . S
Zn211 O219 1.905 . S
Zn211 O220 1.898 . S
Zn211 O228 1.920 . S
Zn212 O215 2.080 . S
Zn212 O218 2.114 . S
Zn212 O221 2.120 . S
Zn212 O223 2.120 . S
Zn212 O224 2.114 . S
Zn212 O227 2.080 . S
C213 O218 1.166 . S
C213 O219 1.182 1_545 S
C214 O220 1.167 . S
C214 O221 1.299 1_565 S
O215 Zn212 2.080 . S
O215 C229 1.305 . S
O216 Zn210 1.920 . S
O216 C229 1.234 . S
C217 O222 1.167 . S
C217 O223 1.299 . S
O218 Zn212 2.114 . S
O218 C213 1.166 . S
O219 Zn211 1.905 . S
O219 C213 1.182 1_565 S
O220 Zn211 1.898 . S
O220 C214 1.167 . S
O221 Zn212 2.120 . S
O221 C214 1.299 1_545 S
O222 Zn210 1.898 . S
O222 C217 1.167 . S
O223 Zn212 2.120 . S
O223 C217 1.299 . S
O224 Zn212 2.114 . S
O224 C226 1.166 . S
O225 Zn210 1.905 . S
O225 C226 1.182 . S
C226 O224 1.166 . S
C226 O225 1.182 . S
O227 Zn212 2.080 . S
O227 C230 1.305 1_545 S
O228 Zn211 1.920 . S
O228 C230 1.234 . S
C229 O215 1.305 . S
C229 O216 1.234 . S
C230 O227 1.305 1_565 S
C230 O228 1.234 . S
Zn231 O237 1.920 . S
Zn231 O243 1.898 . S
Zn231 O246 1.905 . S
Zn232 O240 1.905 . S
Zn232 O241 1.898 . S
Zn232 O249 1.920 . S
Zn233 O236 2.080 . S
Zn233 O239 2.114 . S
Zn233 O242 2.120 . S
Zn233 O244 2.120 . S
Zn233 O245 2.114 . S
Zn233 O248 2.080 . S
C234 O239 1.166 . S
C234 O240 1.182 . S
C235 O241 1.167 . S
C235 O242 1.299 . S
O236 Zn233 2.080 . S
O236 C250 1.305 1_655 S
O237 Zn231 1.920 . S
O237 C250 1.234 . S
C238 O243 1.167 . S
C238 O244 1.299 1_455 S
O239 Zn233 2.114 . S
O239 C234 1.166 . S
O240 Zn232 1.905 . S
O240 C234 1.182 . S
O241 Zn232 1.898 . S
O241 C235 1.167 . S
O242 Zn233 2.120 . S
O242 C235 1.299 . S
O243 Zn231 1.898 . S
O243 C238 1.167 . S
O244 Zn233 2.120 . S
O244 C238 1.299 1_655 S
O245 Zn233 2.114 . S
O245 C247 1.166 . S
O246 Zn231 1.905 . S
O246 C247 1.182 1_455 S
C247 O245 1.166 . S
C247 O246 1.182 1_655 S
O248 Zn233 2.080 . S
O248 C251 1.305 . S
O249 Zn232 1.920 . S
O249 C251 1.234 . S
C250 O236 1.305 1_455 S
C250 O237 1.234 . S
C251 O248 1.305 . S
C251 O249 1.234 . S
Zn252 O258 1.920 . S
Zn252 O264 1.898 . S
Zn252 O267 1.905 . S
Zn253 O261 1.905 . S
Zn253 O262 1.898 . S
Zn253 O270 1.920 . S
Zn254 O257 2.080 . S
Zn254 O260 2.114 . S
Zn254 O263 2.120 . S
Zn254 O265 2.120 . S
Zn254 O266 2.114 . S
Zn254 O269 2.080 . S
C255 O260 1.166 . S
C255 O261 1.182 . S
C256 O262 1.167 . S
C256 O263 1.299 . S
O257 Zn254 2.080 . S
O257 C271 1.305 . S
O258 Zn252 1.920 . S
O258 C271 1.234 . S
C259 O264 1.167 . S
C259 O265 1.299 . S
O260 Zn254 2.114 . S
O260 C255 1.166 . S
O261 Zn253 1.905 . S
O261 C255 1.182 . S
O262 Zn253 1.898 . S
O262 C256 1.167 . S
O263 Zn254 2.120 . S
O263 C256 1.299 . S
O264 Zn252 1.898 . S
O264 C259 1.167 . S
O265 Zn254 2.120 . S
O265 C259 1.299 . S
O266 Zn254 2.114 . S
O266 C268 1.166 . S
O267 Zn252 1.905 . S
O267 C268 1.182 . S
C268 O266 1.166 . S
C268 O267 1.182 . S
O269 Zn254 2.080 . S
O269 C272 1.305 . S
O270 Zn253 1.920 . S
O270 C272 1.234 . S
C271 O257 1.305 . S
C271 O258 1.234 . S
C272 O269 1.305 . S
C272 O270 1.234 . S
Zn273 O279 1.920 . S
Zn273 O285 1.898 . S
Zn273 O288 1.905 . S
Zn274 O282 1.905 . S
Zn274 O283 1.898 . S
Zn274 O291 1.920 . S
Zn275 O278 2.080 . S
Zn275 O281 2.114 . S
Zn275 O284 2.120 . S
Zn275 O286 2.120 . S
Zn275 O287 2.114 . S
Zn275 O290 2.080 . S
C276 O281 1.166 . S
C276 O282 1.182 . S
C277 O283 1.167 . S
C277 O284 1.299 . S
O278 Zn275 2.080 . S
O278 C292 1.305 . S
O279 Zn273 1.920 . S
O279 C292 1.234 . S
C280 O285 1.167 . S
C280 O286 1.299 . S
O281 Zn275 2.114 . S
O281 C276 1.166 . S
O282 Zn274 1.905 . S
O282 C276 1.182 . S
O283 Zn274 1.898 . S
O283 C277 1.167 . S
O284 Zn275 2.120 . S
O284 C277 1.299 . S
O285 Zn273 1.898 . S
O285 C280 1.167 . S
O286 Zn275 2.120 . S
O286 C280 1.299 . S
O287 Zn275 2.114 . S
O287 C289 1.166 . S
O288 Zn273 1.905 . S
O288 C289 1.182 . S
C289 O287 1.166 . S
C289 O288 1.182 . S
O290 Zn275 2.080 . S
O290 C293 1.305 . S
O291 Zn274 1.920 . S
O291 C293 1.234 . S
C292 O278 1.305 . S
C292 O279 1.234 . S
C293 O290 1.305 . S
C293 O291 1.234 . S
Zn294 O300 1.920 . S
Zn294 O306 1.898 . S
Zn294 O309 1.905 . S
Zn295 O303 1.905 . S
Zn295 O304 1.898 . S
Zn295 O312 1.920 . S
Zn296 O299 2.080 . S
Zn296 O302 2.114 . S
Zn296 O305 2.120 . S
Zn296 O307 2.120 . S
Zn296 O308 2.114 . S
Zn296 O311 2.080 . S
C297 O302 1.166 . S
C297 O303 1.182 . S
C298 O304 1.167 . S
C298 O305 1.299 . S
O299 Zn296 2.080 . S
O299 C313 1.305 . S
O300 Zn294 1.920 . S
O300 C313 1.234 . S
C301 O306 1.167 . S
C301 O307 1.299 . S
O302 Zn296 2.114 . S
O302 C297 1.166 . S
O303 Zn295 1.905 . S
O303 C297 1.182 . S
O304 Zn295 1.898 . S
O304 C298 1.167 . S
O305 Zn296 2.120 . S
O305 C298 1.299 . S
O306 Zn294 1.898 . S
O306 C301 1.167 . S
O307 Zn296 2.120 . S
O307 C301 1.299 . S
O308 Zn296 2.114 . S
O308 C310 1.166 . S
O309 Zn294 1.905 . S
O309 C310 1.182 . S
C310 O308 1.166 . S
C310 O309 1.182 . S
O311 Zn296 2.080 . S
O311 C314 1.305 . S
O312 Zn295 1.920 . S
O312 C314 1.234 . S
C313 O299 1.305 . S
C313 O300 1.234 . S
C314 O311 1.305 . S
C314 O312 1.234 . S
Zn315 O321 1.920 . S
Zn315 O327 1.898 . S
Zn315 O330 1.905 . S
Zn316 O324 1.905 . S
Zn316 O325 1.898 . S
Zn316 O333 1.920 . S
Zn317 O320 2.080 . S
Zn317 O323 2.114 . S
Zn317 O326 2.120 . S
Zn317 O328 2.120 . S
Zn317 O329 2.114 . S
Zn317 O332 2.080 . S
C318 O323 1.166 . S
C318 O324 1.182 . S
C319 O325 1.167 . S
C319 O326 1.299 . S
O320 Zn317 2.080 . S
O320 C334 1.305 . S
O321 Zn315 1.920 . S
O321 C334 1.234 . S
C322 O327 1.167 . S
C322 O328 1.299 . S
O323 Zn317 2.114 . S
O323 C318 1.166 . S
O324 Zn316 1.905 . S
O324 C318 1.182 . S
O325 Zn316 1.898 . S
O325 C319 1.167 . S
O326 Zn317 2.120 . S
O326 C319 1.299 . S
O327 Zn315 1.898 . S
O327 C322 1.167 . S
O328 Zn317 2.120 . S
O328 C322 1.299 . S
O329 Zn317 2.114 . S
O329 C331 1.166 . S
O330 Zn315 1.905 . S
O330 C331 1.182 . S
C331 O329 1.166 . S
C331 O330 1.182 . S
O332 Zn317 2.080 . S
O332 C335 1.305 . S
O333 Zn316 1.920 . S
O333 C335 1.234 . S
C334 O320 1.305 . S
C334 O321 1.234 . S
C335 O332 1.305 . S
C335 O333 1.234 . S
Zn336 O342 1.920 . S
Zn336 O348 1.898 . S
Zn336 O351 1.905 . S
Zn337 O345 1.905 . S
Zn337 O346 1.898 . S
Zn337 O354 1.920 . S
Zn338 O341 2.080 . S
Zn338 O344 2.114 . S
Zn338 O347 2.120 . S
Zn338 O349 2.120 . S
Zn338 O350 2.114 . S
Zn338 O353 2.080 . S
C339 O344 1.166 . S
C339 O345 1.182 . S
C340 O346 1.167 . S
C340 O347 1.299 . S
O341 Zn338 2.080 . S
O341 C355 1.305 . S
O342 Zn336 1.920 . S
O342 C355 1.234 . S
C343 O348 1.167 . S
C343 O349 1.299 . S
O344 Zn338 2.114 . S
O344 C339 1.166 . S
O345 Zn337 1.905 . S
O345 C339 1.182 . S
O346 Zn337 1.898 . S
O346 C340 1.167 . S
O347 Zn338 2.120 . S
O347 C340 1.299 . S
O348 Zn336 1.898 . S
O348 C343 1.167 . S
O349 Zn338 2.120 . S
O349 C343 1.299 . S
O350 Zn338 2.114 . S
O350 C352 1.166 . S
O351 Zn336 1.905 . S
O351 C352 1.182 . S
C352 O350 1.166 . S
C352 O351 1.182 . S
O353 Zn338 2.080 . S
O353 C356 1.305 . S
O354 Zn337 1.920 . S
O354 C356 1.234 . S
C355 O341 1.305 . S
C355 O342 1.234 . S
C356 O353 1.305 . S
C356 O354 1.234 . S
Zn357 O363 1.920 . S
Zn357 O369 1.898 . S
Zn357 O372 1.905 . S
Zn358 O366 1.905 . S
Zn358 O367 1.898 . S
Zn358 O375 1.920 . S
Zn359 O362 2.080 . S
Zn359 O365 2.114 . S
Zn359 O368 2.120 . S
Zn359 O370 2.120 . S
Zn359 O371 2.114 . S
Zn359 O374 2.080 . S
C360 O365 1.166 . S
C360 O366 1.182 . S
C361 O367 1.167 . S
C361 O368 1.299 . S
O362 Zn359 2.080 . S
O362 C376 1.305 . S
O363 Zn357 1.920 . S
O363 C376 1.234 . S
C364 O369 1.167 . S
C364 O370 1.299 . S
O365 Zn359 2.114 . S
O365 C360 1.166 . S
O366 Zn358 1.905 . S
O366 C360 1.182 . S
O367 Zn358 1.898 . S
O367 C361 1.167 . S
O368 Zn359 2.120 . S
O368 C361 1.299 . S
O369 Zn357 1.898 . S
O369 C364 1.167 . S
O370 Zn359 2.120 . S
O370 C364 1.299 . S
O371 Zn359 2.114 . S
O371 C373 1.166 . S
O372 Zn357 1.905 . S
O372 C373 1.182 . S
C373 O371 1.166 . S
C373 O372 1.182 . S
O374 Zn359 2.080 . S
O374 C377 1.305 . S
O375 Zn358 1.920 . S
O375 C377 1.234 . S
C376 O362 1.305 . S
C376 O363 1.234 . S
C377 O374 1.305 . S
C377 O375 1.234 . S
Zn378 O384 1.920 . S
Zn378 O390 1.898 . S
Zn378 O393 1.905 . S
Zn379 O387 1.905 . S
Zn379 O388 1.898 . S
Zn379 O396 1.920 . S
Zn380 O383 2.080 . S
Zn380 O386 2.114 . S
Zn380 O389 2.120 . S
Zn380 O391 2.120 . S
Zn380 O392 2.114 . S
Zn380 O395 2.080 . S
C381 O386 1.166 . S
C381 O387 1.182 . S
C382 O388 1.167 . S
C382 O389 1.299 . S
O383 Zn380 2.080 . S
O383 C397 1.305 . S
O384 Zn378 1.920 . S
O384 C397 1.234 . S
C385 O390 1.167 . S
C385 O391 1.299 . S
O386 Zn380 2.114 . S
O386 C381 1.166 . S
O387 Zn379 1.905 . S
O387 C381 1.182 . S
O388 Zn379 1.898 . S
O388 C382 1.167 . S
O389 Zn380 2.120 . S
O389 C382 1.299 . S
O390 Zn378 1.898 . S
O390 C385 1.167 . S
O391 Zn380 2.120 . S
O391 C385 1.299 . S
O392 Zn380 2.114 . S
O392 C394 1.166 . S
O393 Zn378 1.905 . S
O393 C394 1.182 . S
C394 O392 1.166 . S
C394 O393 1.182 . S
O395 Zn380 2.080 . S
O395 C398 1.305 . S
O396 Zn379 1.920 . S
O396 C398 1.234 . S
C397 O383 1.305 . S
C397 O384 1.234 . S
C398 O395 1.305 . S
C398 O396 1.234 . S
Zn399 O405 1.920 . S
Zn399 O411 1.898 . S
Zn399 O414 1.905 . S
Zn400 O408 1.905 . S
Zn400 O409 1.898 . S
Zn400 O417 1.920 . S
Zn401 O404 2.080 . S
Zn401 O407 2.114 . S
Zn401 O410 2.120 . S
Zn401 O412 2.120 . S
Zn401 O413 2.114 . S
Zn401 O416 2.080 . S
C402 O407 1.166 . S
C402 O408 1.182 . S
C403 O409 1.167 . S
C403 O410 1.299 . S
O404 Zn401 2.080 . S
O404 C418 1.305 . S
O405 Zn399 1.920 . S
O405 C418 1.234 . S
C406 O411 1.167 . S
C406 O412 1.299 . S
O407 Zn401 2.114 . S
O407 C402 1.166 . S
O408 Zn400 1.905 . S
O408 C402 1.182 . S
O409 Zn400 1.898 . S
O409 C403 1.167 . S
O410 Zn401 2.120 . S
O410 C403 1.299 . S
O411 Zn399 1.898 . S
O411 C406 1.167 . S
O412 Zn401 2.120 . S
O412 C406 1.299 . S
O413 Zn401 2.114 . S
O413 C415 1.166 . S
O414 Zn399 1.905 . S
O414 C415 1.182 . S
C415 O413 1.166 . S
C415 O414 1.182 . S
O416 Zn401 2.080 . S
O416 C419 1.305 . S
O417 Zn400 1.920 . S
O417 C419 1.234 . S
C418 O404 1.305 . S
C418 O405 1.234 . S
C419 O416 1.305 . S
C419 O417 1.234 . S
Zn420 O426 1.920 . S
Zn420 O432 1.898 . S
Zn420 O435 1.905 . S
Zn421 O429 1.905 . S
Zn421 O430 1.898 . S
Zn421 O438 1.920 . S
Zn422 O425 2.080 . S
Zn422 O428 2.114 . S
Zn422 O431 2.120 . S
Zn422 O433 2.120 . S
Zn422 O434 2.114 . S
Zn422 O437 2.080 . S
C423 O428 1.166 . S
C423 O429 1.182 . S
C424 O430 1.167 . S
C424 O431 1.299 . S
O425 Zn422 2.080 . S
O425 C439 1.305 . S
O426 Zn420 1.920 . S
O426 C439 1.234 . S
C427 O432 1.167 . S
C427 O433 1.299 . S
O428 Zn422 2.114 . S
O428 C423 1.166 . S
O429 Zn421 1.905 . S
O429 C423 1.182 . S
O430 Zn421 1.898 . S
O430 C424 1.167 . S
O431 Zn422 2.120 . S
O431 C424 1.299 . S
O432 Zn420 1.898 . S
O432 C427 1.167 . S
O433 Zn422 2.120 . S
O433 C427 1.299 . S
O434 Zn422 2.114 . S
O434 C436 1.166 . S
O435 Zn420 1.905 . S
O435 C436 1.182 . S
C436 O434 1.166 . S
C436 O435 1.182 . S
O437 Zn422 2.080 . S
O437 C440 1.305 . S
O438 Zn421 1.920 . S
O438 C440 1.234 . S
C439 O425 1.305 . S
C439 O426 1.234 . S
C440 O437 1.305 . S
C440 O438 1.234 . S
Zn441 O447 1.920 . S
Zn441 O453 1.898 . S
Zn441 O456 1.905 . S
Zn442 O450 1.905 . S
Zn442 O451 1.898 . S
Zn442 O459 1.920 . S
Zn443 O446 2.080 . S
Zn443 O449 2.114 . S
Zn443 O452 2.120 . S
Zn443 O454 2.120 . S
Zn443 O455 2.114 . S
Zn443 O458 2.080 . S
C444 O449 1.166 . S
C444 O450 1.182 . S
C445 O451 1.167 . S
C445 O452 1.299 . S
O446 Zn443 2.080 . S
O446 C460 1.305 . S
O447 Zn441 1.920 . S
O447 C460 1.234 . S
C448 O453 1.167 . S
C448 O454 1.299 . S
O449 Zn443 2.114 . S
O449 C444 1.166 . S
O450 Zn442 1.905 . S
O450 C444 1.182 . S
O451 Zn442 1.898 . S
O451 C445 1.167 . S
O452 Zn443 2.120 . S
O452 C445 1.299 . S
O453 Zn441 1.898 . S
O453 C448 1.167 . S
O454 Zn443 2.120 . S
O454 C448 1.299 . S
O455 Zn443 2.114 . S
O455 C457 1.166 . S
O456 Zn441 1.905 . S
O456 C457 1.182 . S
C457 O455 1.166 . S
C457 O456 1.182 . S
O458 Zn443 2.080 . S
O458 C461 1.305 . S
O459 Zn442 1.920 . S
O459 C461 1.234 . S
C460 O446 1.305 . S
C460 O447 1.234 . S
C461 O458 1.305 . S
C461 O459 1.234 . S
Zn462 O468 1.920 . S
Zn462 O474 1.898 . S
Zn462 O477 1.905 . S
Zn463 O471 1.905 . S
Zn463 O472 1.898 . S
Zn463 O480 1.920 . S
Zn464 O467 2.080 . S
Zn464 O470 2.114 . S
Zn464 O473 2.120 . S
Zn464 O475 2.120 . S
Zn464 O476 2.114 . S
Zn464 O479 2.080 . S
C465 O470 1.166 . S
C465 O471 1.182 . S
C466 O472 1.167 . S
C466 O473 1.299 . S
O467 Zn464 2.080 . S
O467 C481 1.305 . S
O468 Zn462 1.920 . S
O468 C481 1.234 . S
C469 O474 1.167 . S
C469 O475 1.299 . S
O470 Zn464 2.114 . S
O470 C465 1.166 . S
O471 Zn463 1.905 . S
O471 C465 1.182 . S
O472 Zn463 1.898 . S
O472 C466 1.167 . S
O473 Zn464 2.120 . S
O473 C466 1.299 . S
O474 Zn462 1.898 . S
O474 C469 1.167 . S
O475 Zn464 2.120 . S
O475 C469 1.299 . S
O476 Zn464 2.114 . S
O476 C478 1.166 . S
O477 Zn462 1.905 . S
O477 C478 1.182 . S
C478 O476 1.166 . S
C478 O477 1.182 . S
O479 Zn464 2.080 . S
O479 C482 1.305 . S
O480 Zn463 1.920 . S
O480 C482 1.234 . S
C481 O467 1.305 . S
C481 O468 1.234 . S
C482 O479 1.305 . S
C482 O480 1.234 . S
Zn483 O489 1.920 . S
Zn483 O495 1.898 . S
Zn483 O498 1.905 . S
Zn484 O492 1.905 . S
Zn484 O493 1.898 . S
Zn484 O501 1.920 . S
Zn485 O488 2.080 . S
Zn485 O491 2.114 . S
Zn485 O494 2.120 . S
Zn485 O496 2.120 . S
Zn485 O497 2.114 . S
Zn485 O500 2.080 . S
C486 O491 1.166 . S
C486 O492 1.182 . S
C487 O493 1.167 . S
C487 O494 1.299 . S
O488 Zn485 2.080 . S
O488 C502 1.305 . S
O489 Zn483 1.920 . S
O489 C502 1.234 . S
C490 O495 1.167 . S
C490 O496 1.299 . S
O491 Zn485 2.114 . S
O491 C486 1.166 . S
O492 Zn484 1.905 . S
O492 C486 1.182 . S
O493 Zn484 1.898 . S
O493 C487 1.167 . S
O494 Zn485 2.120 . S
O494 C487 1.299 . S
O495 Zn483 1.898 . S
O495 C490 1.167 . S
O496 Zn485 2.120 . S
O496 C490 1.299 . S
O497 Zn485 2.114 . S
O497 C499 1.166 . S
O498 Zn483 1.905 . S
O498 C499 1.182 . S
C499 O497 1.166 . S
C499 O498 1.182 . S
O500 Zn485 2.080 . S
O500 C503 1.305 . S
O501 Zn484 1.920 . S
O501 C503 1.234 . S
C502 O488 1.305 . S
C502 O489 1.234 . S
C503 O500 1.305 . S
C503 O501 1.234 . S
Zn504 O510 1.920 . S
Zn504 O516 1.898 . S
Zn504 O519 1.905 . S
Zn505 O513 1.905 . S
Zn505 O514 1.898 . S
Zn505 O522 1.920 . S
Zn506 O509 2.080 . S
Zn506 O512 2.114 . S
Zn506 O515 2.120 . S
Zn506 O517 2.120 . S
Zn506 O518 2.114 . S
Zn506 O521 2.080 . S
C507 O512 1.166 . S
C507 O513 1.182 . S
C508 O514 1.167 . S
C508 O515 1.299 . S
O509 Zn506 2.080 . S
O509 C523 1.305 . S
O510 Zn504 1.920 . S
O510 C523 1.234 . S
C511 O516 1.167 . S
C511 O517 1.299 . S
O512 Zn506 2.114 . S
O512 C507 1.166 . S
O513 Zn505 1.905 . S
O513 C507 1.182 . S
O514 Zn505 1.898 . S
O514 C508 1.167 . S
O515 Zn506 2.120 . S
O515 C508 1.299 . S
O516 Zn504 1.898 . S
O516 C511 1.167 . S
O517 Zn506 2.120 . S
O517 C511 1.299 . S
O518 Zn506 2.114 . S
O518 C520 1.166 . S
O519 Zn504 1.905 . S
O519 C520 1.182 . S
C520 O518 1.166 . S
C520 O519 1.182 . S
O521 Zn506 2.080 . S
O521 C524 1.305 . S
O522 Zn505 1.920 . S
O522 C524 1.234 . S
C523 O509 1.305 . S
C523 O510 1.234 . S
C524 O521 1.305 . S
C524 O522 1.234 . S
Zn525 O531 1.920 . S
Zn525 O537 1.898 . S
Zn525 O540 1.905 . S
Zn526 O534 1.905 . S
Zn526 O535 1.898 . S
Zn526 O543 1.920 . S
Zn527 O530 2.080 . S
Zn527 O533 2.114 . S
Zn527 O536 2.120 . S
Zn527 O538 2.120 . S
Zn527 O539 2.114 . S
Zn527 O542 2.080 . S
C528 O533 1.166 . S
C528 O534 1.182 . S
C529 O535 1.167 . S
C529 O536 1.299 . S
O530 Zn527 2.080 . S
O530 C544 1.305 . S
O531 Zn525 1.920 . S
O531 C544 1.234 . S
C532 O537 1.167 . S
C532 O538 1.299 . S
O533 Zn527 2.114 . S
O533 C528 1.166 . S
O534 Zn526 1.905 . S
O534 C528 1.182 . S
O535 Zn526 1.898 . S
O535 C529 1.167 . S
O536 Zn527 2.120 . S
O536 C529 1.299 . S
O537 Zn525 1.898 . S
O537 C532 1.167 . S
O538 Zn527 2.120 . S
O538 C532 1.299 . S
O539 Zn527 2.114 . S
O539 C541 1.166 . S
O540 Zn525 1.905 . S
O540 C541 1.182 . S
C541 O539 1.166 . S
C541 O540 1.182 . S
O542 Zn527 2.080 . S
O542 C545 1.305 . S
O543 Zn526 1.920 . S
O543 C545 1.234 . S
C544 O530 1.305 . S
C544 O531 1.234 . S
C545 O542 1.305 . S
C545 O543 1.234 . S
Zn546 O552 1.920 . S
Zn546 O558 1.898 . S
Zn546 O561 1.905 . S
Zn547 O555 1.905 . S
Zn547 O556 1.898 . S
Zn547 O564 1.920 . S
Zn548 O551 2.080 . S
Zn548 O554 2.114 . S
Zn548 O557 2.120 . S
Zn548 O559 2.120 . S
Zn548 O560 2.114 . S
Zn548 O563 2.080 . S
C549 O554 1.166 . S
C549 O555 1.182 . S
C550 O556 1.167 . S
C550 O557 1.299 . S
O551 Zn548 2.080 . S
O551 C565 1.305 . S
O552 Zn546 1.920 . S
O552 C565 1.234 . S
C553 O558 1.167 . S
C553 O559 1.299 . S
O554 Zn548 2.114 . S
O554 C549 1.166 . S
O555 Zn547 1.905 . S
O555 C549 1.182 . S
O556 Zn547 1.898 . S
O556 C550 1.167 . S
O557 Zn548 2.120 . S
O557 C550 1.299 . S
O558 Zn546 1.898 . S
O558 C553 1.167 . S
O559 Zn548 2.120 . S
O559 C553 1.299 . S
O560 Zn548 2.114 . S
O560 C562 1.166 . S
O561 Zn546 1.905 . S
O561 C562 1.182 . S
C562 O560 1.166 . S
C562 O561 1.182 . S
O563 Zn548 2.080 . S
O563 C566 1.305 . S
O564 Zn547 1.920 . S
O564 C566 1.234 . S
C565 O551 1.305 . S
C565 O552 1.234 . S
C566 O563 1.305 . S
C566 O564 1.234 . S
Zn567 O573 1.920 . S
Zn567 O579 1.898 . S
Zn567 O582 1.905 . S
Zn568 O576 1.905 . S
Zn568 O577 1.898 . S
Zn568 O585 1.920 . S
Zn569 O572 2.080 . S
Zn569 O575 2.114 . S
Zn569 O578 2.120 . S
Zn569 O580 2.120 . S
Zn569 O581 2.114 . S
Zn569 O584 2.080 . S
C570 O575 1.166 . S
C570 O576 1.182 . S
C571 O577 1.167 . S
C571 O578 1.299 . S
O572 Zn569 2.080 . S
O572 C586 1.305 . S
O573 Zn567 1.920 . S
O573 C586 1.234 . S
C574 O579 1.167 . S
C574 O580 1.299 . S
O575 Zn569 2.114 . S
O575 C570 1.166 . S
O576 Zn568 1.905 . S
O576 C570 1.182 . S
O577 Zn568 1.898 . S
O577 C571 1.167 . S
O578 Zn569 2.120 . S
O578 C571 1.299 . S
O579 Zn567 1.898 . S
O579 C574 1.167 . S
O580 Zn569 2.120 . S
O580 C574 1.299 . S
O581 Zn569 2.114 . S
O581 C583 1.166 . S
O582 Zn567 1.905 . S
O582 C583 1.182 . S
C583 O581 1.166 . S
C583 O582 1.182 . S
O584 Zn569 2.080 . S
O584 C587 1.305 . S
O585 Zn568 1.920 . S
O585 C587 1.234 . S
C586 O572 1.305 . S
C586 O573 1.234 . S
C587 O584 1.305 . S
C587 O585 1.234 . S
Zn588 O594 1.920 . S
Zn588 O600 1.898 . S
Zn588 O603 1.905 . S
Zn589 O597 1.905 . S
Zn589 O598 1.898 . S
Zn589 O606 1.920 . S
Zn590 O593 2.080 . S
Zn590 O596 2.114 . S
Zn590 O599 2.120 . S
Zn590 O601 2.120 . S
Zn590 O602 2.114 . S
Zn590 O605 2.080 . S
C591 O596 1.166 . S
C591 O597 1.182 . S
C592 O598 1.167 . S
C592 O599 1.299 . S
O593 Zn590 2.080 . S
O593 C607 1.305 . S
O594 Zn588 1.920 . S
O594 C607 1.234 . S
C595 O600 1.167 . S
C595 O601 1.299 . S
O596 Zn590 2.114 . S
O596 C591 1.166 . S
O597 Zn589 1.905 . S
O597 C591 1.182 . S
O598 Zn589 1.898 . S
O598 C592 1.167 . S
O599 Zn590 2.120 . S
O599 C592 1.299 . S
O600 Zn588 1.898 . S
O600 C595 1.167 . S
O601 Zn590 2.120 . S
O601 C595 1.299 . S
O602 Zn590 2.114 . S
O602 C604 1.166 . S
O603 Zn588 1.905 . S
O603 C604 1.182 . S
C604 O602 1.166 . S
C604 O603 1.182 . S
O605 Zn590 2.080 . S
O605 C608 1.305 . S
O606 Zn589 1.920 . S
O606 C608 1.234 . S
C607 O593 1.305 . S
C607 O594 1.234 . S
C608 O605 1.305 . S
C608 O606 1.234 . S
Zn609 O615 1.920 . S
Zn609 O621 1.898 . S
Zn609 O624 1.905 . S
Zn610 O618 1.905 . S
Zn610 O619 1.898 . S
Zn610 O627 1.920 . S
Zn611 O614 2.080 . S
Zn611 O617 2.114 . S
Zn611 O620 2.120 . S
Zn611 O622 2.120 . S
Zn611 O623 2.114 . S
Zn611 O626 2.080 . S
C612 O617 1.166 . S
C612 O618 1.182 . S
C613 O619 1.167 . S
C613 O620 1.299 . S
O614 Zn611 2.080 . S
O614 C628 1.305 . S
O615 Zn609 1.920 . S
O615 C628 1.234 . S
C616 O621 1.167 . S
C616 O622 1.299 . S
O617 Zn611 2.114 . S
O617 C612 1.166 . S
O618 Zn610 1.905 . S
O618 C612 1.182 . S
O619 Zn610 1.898 . S
O619 C613 1.167 . S
O620 Zn611 2.120 . S
O620 C613 1.299 . S
O621 Zn609 1.898 . S
O621 C616 1.167 . S
O622 Zn611 2.120 . S
O622 C616 1.299 . S
O623 Zn611 2.114 . S
O623 C625 1.166 . S
O624 Zn609 1.905 . S
O624 C625 1.182 . S
C625 O623 1.166 . S
C625 O624 1.182 . S
O626 Zn611 2.080 . S
O626 C629 1.305 . S
O627 Zn610 1.920 . S
O627 C629 1.234 . S
C628 O614 1.305 . S
C628 O615 1.234 . S
C629 O626 1.305 . S
C629 O627 1.234 . S
Zn630 O636 1.920 . S
Zn630 O642 1.898 . S
Zn630 O645 1.905 . S
Zn631 O639 1.905 . S
Zn631 O640 1.898 . S
Zn631 O648 1.920 . S
Zn632 O635 2.080 . S
Zn632 O638 2.114 . S
Zn632 O641 2.120 . S
Zn632 O643 2.120 . S
Zn632 O644 2.114 . S
Zn632 O647 2.080 . S
C633 O638 1.166 . S
C633 O639 1.182 . S
C634 O640 1.167 . S
C634 O641 1.299 . S
O635 Zn632 2.080 . S
O635 C649 1.305 . S
O636 Zn630 1.920 . S
O636 C649 1.234 . S
C637 O642 1.167 . S
C637 O643 1.299 . S
O638 Zn632 2.114 . S
O638 C633 1.166 . S
O639 Zn631 1.905 . S
O639 C633 1.182 . S
O640 Zn631 1.898 . S
O640 C634 1.167 . S
O641 Zn632 2.120 . S
O641 C634 1.299 . S
O642 Zn630 1.898 . S
O642 C637 1.167 . S
O643 Zn632 2.120 . S
O643 C637 1.299 . S
O644 Zn632 2.114 . S
O644 C646 1.166 . S
O645 Zn630 1.905 . S
O645 C646 1.182 . S
C646 O644 1.166 . S
C646 O645 1.182 . S
O647 Zn632 2.080 . S
O647 C650 1.305 . S
O648 Zn631 1.920 . S
O648 C650 1.234 . S
C649 O635 1.305 . S
C649 O636 1.234 . S
C650 O647 1.305 . S
C650 O648 1.234 . S
Zn651 O657 1.920 . S
Zn651 O663 1.898 . S
Zn651 O666 1.905 . S
Zn652 O660 1.905 . S
Zn652 O661 1.898 . S
Zn652 O669 1.920 . S
Zn653 O656 2.080 . S
Zn653 O659 2.114 . S
Zn653 O662 2.120 . S
Zn653 O664 2.120 . S
Zn653 O665 2.114 . S
Zn653 O668 2.080 . S
C654 O659 1.166 . S
C654 O660 1.182 . S
C655 O661 1.167 . S
C655 O662 1.299 . S
O656 Zn653 2.080 . S
O656 C670 1.305 . S
O657 Zn651 1.920 . S
O657 C670 1.234 . S
C658 O663 1.167 . S
C658 O664 1.299 . S
O659 Zn653 2.114 . S
O659 C654 1.166 . S
O660 Zn652 1.905 . S
O660 C654 1.182 . S
O661 Zn652 1.898 . S
O661 C655 1.167 . S
O662 Zn653 2.120 . S
O662 C655 1.299 . S
O663 Zn651 1.898 . S
O663 C658 1.167 . S
O664 Zn653 2.120 . S
O664 C658 1.299 . S
O665 Zn653 2.114 . S
O665 C667 1.166 . S
O666 Zn651 1.905 . S
O666 C667 1.182 . S
C667 O665 1.166 . S
C667 O666 1.182 . S
O668 Zn653 2.080 . S
O668 C671 1.305 . S
O669 Zn652 1.920 . S
O669 C671 1.234 . S
C670 O656 1.305 . S
C670 O657 1.234 . S
C671 O668 1.305 . S
C671 O669 1.234 . S
Zn672 O678 1.920 . S
Zn672 O684 1.898 . S
Zn672 O687 1.905 . S
Zn673 O681 1.905 . S
Zn673 O682 1.898 . S
Zn673 O690 1.920 . S
Zn674 O677 2.080 . S
Zn674 O680 2.114 . S
Zn674 O683 2.120 . S
Zn674 O685 2.120 . S
Zn674 O686 2.114 . S
Zn674 O689 2.080 . S
C675 O680 1.166 . S
C675 O681 1.182 . S
C676 O682 1.167 . S
C676 O683 1.299 . S
O677 Zn674 2.080 . S
O677 C691 1.305 . S
O678 Zn672 1.920 . S
O678 C691 1.234 . S
C679 O684 1.167 . S
C679 O685 1.299 . S
O680 Zn674 2.114 . S
O680 C675 1.166 . S
O681 Zn673 1.905 . S
O681 C675 1.182 . S
O682 Zn673 1.898 . S
O682 C676 1.167 . S
O683 Zn674 2.120 . S
O683 C676 1.299 . S
O684 Zn672 1.898 . S
O684 C679 1.167 . S
O685 Zn674 2.120 . S
O685 C679 1.299 . S
O686 Zn674 2.114 . S
O686 C688 1.166 . S
O687 Zn672 1.905 . S
O687 C688 1.182 . S
C688 O686 1.166 . S
C688 O687 1.182 . S
O689 Zn674 2.080 . S
O689 C692 1.305 . S
O690 Zn673 1.920 . S
O690 C692 1.234 . S
C691 O677 1.305 . S
C691 O678 1.234 . S
C692 O689 1.305 . S
C692 O690 1.234 . S
Zn693 O699 1.920 . S
Zn693 O705 1.898 . S
Zn693 O708 1.905 . S
Zn694 O702 1.905 . S
Zn694 O703 1.898 . S
Zn694 O711 1.920 . S
Zn695 O698 2.080 . S
Zn695 O701 2.114 . S
Zn695 O704 2.120 . S
Zn695 O706 2.120 . S
Zn695 O707 2.114 . S
Zn695 O710 2.080 . S
C696 O701 1.166 . S
C696 O702 1.182 . S
C697 O703 1.167 . S
C697 O704 1.299 . S
O698 Zn695 2.080 . S
O698 C712 1.305 . S
O699 Zn693 1.920 . S
O699 C712 1.234 . S
C700 O705 1.167 . S
C700 O706 1.299 . S
O701 Zn695 2.114 . S
O701 C696 1.166 . S
O702 Zn694 1.905 . S
O702 C696 1.182 . S
O703 Zn694 1.898 . S
O703 C697 1.167 . S
O704 Zn695 2.120 . S
O704 C697 1.299 . S
O705 Zn693 1.898 . S
O705 C700 1.167 . S
O706 Zn695 2.120 . S
O706 C700 1.299 . S
O707 Zn695 2.114 . S
O707 C709 1.166 . S
O708 Zn693 1.905 . S
O708 C709 1.182 . S
C709 O707 1.166 . S
C709 O708 1.182 . S
O710 Zn695 2.080 . S
O710 C713 1.305 . S
O711 Zn694 1.920 . S
O711 C713 1.234 . S
C712 O698 1.305 . S
C712 O699 1.234 . S
C713 O710 1.305 . S
C713 O711 1.234 . S
Zn714 O720 1.920 . S
Zn714 O726 1.898 . S
Zn714 O729 1.905 . S
Zn715 O723 1.905 . S
Zn715 O724 1.898 . S
Zn715 O732 1.920 . S
Zn716 O719 2.080 . S
Zn716 O722 2.114 . S
Zn716 O725 2.120 . S
Zn716 O727 2.120 . S
Zn716 O728 2.114 . S
Zn716 O731 2.080 . S
C717 O722 1.166 . S
C717 O723 1.182 . S
C718 O724 1.167 . S
C718 O725 1.299 . S
O719 Zn716 2.080 . S
O719 C733 1.305 . S
O720 Zn714 1.920 . S
O720 C733 1.234 . S
C721 O726 1.167 . S
C721 O727 1.299 . S
O722 Zn716 2.114 . S
O722 C717 1.166 . S
O723 Zn715 1.905 . S
O723 C717 1.182 . S
O724 Zn715 1.898 . S
O724 C718 1.167 . S
O725 Zn716 2.120 . S
O725 C718 1.299 . S
O726 Zn714 1.898 . S
O726 C721 1.167 . S
O727 Zn716 2.120 . S
O727 C721 1.299 . S
O728 Zn716 2.114 . S
O728 C730 1.166 . S
O729 Zn714 1.905 . S
O729 C730 1.182 . S
C730 O728 1.166 . S
C730 O729 1.182 . S
O731 Zn716 2.080 . S
O731 C734 1.305 . S
O732 Zn715 1.920 . S
O732 C734 1.234 . S
C733 O719 1.305 . S
C733 O720 1.234 . S
C734 O731 1.305 . S
C734 O732 1.234 . S
Zn735 O741 1.920 . S
Zn735 O747 1.898 . S
Zn735 O750 1.905 . S
Zn736 O744 1.905 . S
Zn736 O745 1.898 . S
Zn736 O753 1.920 . S
Zn737 O740 2.080 . S
Zn737 O743 2.114 . S
Zn737 O746 2.120 . S
Zn737 O748 2.120 . S
Zn737 O749 2.114 . S
Zn737 O752 2.080 . S
C738 O743 1.166 . S
C738 O744 1.182 . S
C739 O745 1.167 . S
C739 O746 1.299 . S
O740 Zn737 2.080 . S
O740 C754 1.305 . S
O741 Zn735 1.920 . S
O741 C754 1.234 . S
C742 O747 1.167 . S
C742 O748 1.299 . S
O743 Zn737 2.114 . S
O743 C738 1.166 . S
O744 Zn736 1.905 . S
O744 C738 1.182 . S
O745 Zn736 1.898 . S
O745 C739 1.167 . S
O746 Zn737 2.120 . S
O746 C739 1.299 . S
O747 Zn735 1.898 . S
O747 C742 1.167 . S
O748 Zn737 2.120 . S
O748 C742 1.299 . S
O749 Zn737 2.114 . S
O749 C751 1.166 . S
O750 Zn735 1.905 . S
O750 C751 1.182 . S
C751 O749 1.166 . S
C751 O750 1.182 . S
O752 Zn737 2.080 . S
O752 C755 1.305 . S
O753 Zn736 1.920 . S
O753 C755 1.234 . S
C754 O740 1.305 . S
C754 O741 1.234 . S
C755 O752 1.305 . S
C755 O753 1.234 . S
C756 C757 1.369 1_556 S
C756 C758 1.419 . S
C756 H760 0.930 . S
C757 C756 1.369 1_554 S
C757 C766 1.429 . S
C758 C756 1.419 . S
C758 C759 1.363 . S
C758 H761 0.929 . S
C759 C758 1.363 . S
C759 C765 1.428 1_556 S
H760 C756 0.930 . S
H761 C758 0.929 . S
S762 N763 1.613 . S
S762 N764 1.610 . S
N763 S762 1.613 . S
N763 C766 1.350 . S
N764 S762 1.610 . S
N764 C765 1.351 . S
C765 C759 1.428 1_554 S
C765 N764 1.351 . S
C765 C766 1.434 . S
C766 C757 1.429 . S
C766 N763 1.350 . S
C766 C765 1.434 . S
C767 C768 1.369 . S
C767 C769 1.419 . S
C767 H771 0.930 . S
C768 C767 1.369 . S
C768 C777 1.429 1_556 S
C769 C767 1.419 . S
C769 C770 1.363 1_556 S
C769 H772 0.929 . S
C770 C769 1.363 1_554 S
C770 C776 1.428 . S
H771 C767 0.930 . S
H772 C769 0.929 . S
S773 N774 1.613 . S
S773 N775 1.610 . S
N774 S773 1.613 . S
N774 C777 1.350 . S
N775 S773 1.610 . S
N775 C776 1.351 . S
C776 C770 1.428 . S
C776 N775 1.351 . S
C776 C777 1.434 . S
C777 C768 1.429 1_554 S
C777 N774 1.350 . S
C777 C776 1.434 . S
C778 C779 1.369 . S
C778 C780 1.419 . S
C778 H782 0.930 . S
C779 C778 1.369 . S
C779 C788 1.429 1_556 S
C780 C778 1.419 . S
C780 C781 1.363 1_556 S
C780 H783 0.929 . S
C781 C780 1.363 1_554 S
C781 C787 1.428 . S
H782 C778 0.930 . S
H783 C780 0.929 . S
S784 N785 1.613 . S
S784 N786 1.610 . S
N785 S784 1.613 . S
N785 C788 1.350 . S
N786 S784 1.610 . S
N786 C787 1.351 . S
C787 C781 1.428 . S
C787 N786 1.351 . S
C787 C788 1.434 . S
C788 C779 1.429 1_554 S
C788 N785 1.350 . S
C788 C787 1.434 . S
C789 C790 1.369 . S
C789 C791 1.419 . S
C789 H793 0.930 . S
C790 C789 1.369 . S
C790 C799 1.429 . S
C791 C789 1.419 . S
C791 C792 1.363 . S
C791 H794 0.929 . S
C792 C791 1.363 . S
C792 C798 1.428 . S
H793 C789 0.930 . S
H794 C791 0.929 . S
S795 N796 1.613 . S
S795 N797 1.610 . S
N796 S795 1.613 . S
N796 C799 1.350 . S
N797 S795 1.610 . S
N797 C798 1.351 . S
C798 C792 1.428 . S
C798 N797 1.351 . S
C798 C799 1.434 . S
C799 C790 1.429 . S
C799 N796 1.350 . S
C799 C798 1.434 . S
C800 C801 1.369 . S
C800 C802 1.419 . S
C800 H804 0.930 . S
C801 C800 1.369 . S
C801 C810 1.429 . S
C802 C800 1.419 . S
C802 C803 1.363 . S
C802 H805 0.929 . S
C803 C802 1.363 . S
C803 C809 1.428 . S
H804 C800 0.930 . S
H805 C802 0.929 . S
S806 N807 1.613 . S
S806 N808 1.610 . S
N807 S806 1.613 . S
N807 C810 1.350 . S
N808 S806 1.610 . S
N808 C809 1.351 . S
C809 C803 1.428 . S
C809 N808 1.351 . S
C809 C810 1.434 . S
C810 C801 1.429 . S
C810 N807 1.350 . S
C810 C809 1.434 . S
C811 C812 1.369 . S
C811 C813 1.419 . S
C811 H815 0.930 . S
C812 C811 1.369 . S
C812 C821 1.429 . S
C813 C811 1.419 . S
C813 C814 1.363 . S
C813 H816 0.929 . S
C814 C813 1.363 . S
C814 C820 1.428 . S
H815 C811 0.930 . S
H816 C813 0.929 . S
S817 N818 1.613 . S
S817 N819 1.610 . S
N818 S817 1.613 . S
N818 C821 1.350 . S
N819 S817 1.610 . S
N819 C820 1.351 . S
C820 C814 1.428 . S
C820 N819 1.351 . S
C820 C821 1.434 . S
C821 C812 1.429 . S
C821 N818 1.350 . S
C821 C820 1.434 . S
C822 C823 1.369 . S
C822 C824 1.419 1_554 S
C822 H826 0.930 . S
C823 C822 1.369 . S
C823 C832 1.429 . S
C824 C822 1.419 1_556 S
C824 C825 1.363 . S
C824 H827 0.929 . S
C825 C824 1.363 . S
C825 C831 1.428 . S
H826 C822 0.930 . S
H827 C824 0.929 . S
S828 N829 1.613 . S
S828 N830 1.610 1_554 S
N829 S828 1.613 . S
N829 C832 1.350 . S
N830 S828 1.610 1_556 S
N830 C831 1.351 . S
C831 C825 1.428 . S
C831 N830 1.351 . S
C831 C832 1.434 1_556 S
C832 C823 1.429 . S
C832 N829 1.350 . S
C832 C831 1.434 1_554 S
C833 C834 1.369 . S
C833 C835 1.419 . S
C833 H837 0.930 . S
C834 C833 1.369 . S
C834 C843 1.429 1_556 S
C835 C833 1.419 . S
C835 C836 1.363 1_556 S
C835 H838 0.929 . S
C836 C835 1.363 1_554 S
C836 C842 1.428 . S
H837 C833 0.930 . S
H838 C835 0.929 . S
S839 N840 1.613 . S
S839 N841 1.610 . S
N840 S839 1.613 . S
N840 C843 1.350 . S
N841 S839 1.610 . S
N841 C842 1.351 . S
C842 C836 1.428 . S
C842 N841 1.351 . S
C842 C843 1.434 . S
C843 C834 1.429 1_554 S
C843 N840 1.350 . S
C843 C842 1.434 . S
C844 C845 1.369 . S
C844 C846 1.419 . S
C844 H848 0.930 . S
C845 C844 1.369 . S
C845 C854 1.429 1_554 S
C846 C844 1.419 . S
C846 C847 1.363 1_554 S
C846 H849 0.929 . S
C847 C846 1.363 1_556 S
C847 C853 1.428 . S
H848 C844 0.930 . S
H849 C846 0.929 . S
S850 N851 1.613 . S
S850 N852 1.610 . S
N851 S850 1.613 . S
N851 C854 1.350 . S
N852 S850 1.610 . S
N852 C853 1.351 . S
C853 C847 1.428 . S
C853 N852 1.351 . S
C853 C854 1.434 . S
C854 C845 1.429 1_556 S
C854 N851 1.350 . S
C854 C853 1.434 . S
C855 C856 1.369 . S
C855 C857 1.419 . S
C855 H859 0.930 . S
C856 C855 1.369 . S
C856 C865 1.429 . S
C857 C855 1.419 . S
C857 C858 1.363 . S
C857 H860 0.929 . S
C858 C857 1.363 . S
C858 C864 1.428 . S
H859 C855 0.930 . S
H860 C857 0.929 . S
S861 N862 1.613 . S
S861 N863 1.610 . S
N862 S861 1.613 . S
N862 C865 1.350 . S
N863 S861 1.610 . S
N863 C864 1.351 . S
C864 C858 1.428 . S
C864 N863 1.351 . S
C864 C865 1.434 . S
C865 C856 1.429 . S
C865 N862 1.350 . S
C865 C864 1.434 . S
C866 C867 1.369 . S
C866 C868 1.419 . S
C866 H870 0.930 . S
C867 C866 1.369 . S
C867 C876 1.429 . S
C868 C866 1.419 . S
C868 C869 1.363 . S
C868 H871 0.929 . S
C869 C868 1.363 . S
C869 C875 1.428 . S
H870 C866 0.930 . S
H871 C868 0.929 . S
S872 N873 1.613 . S
S872 N874 1.610 . S
N873 S872 1.613 . S
N873 C876 1.350 . S
N874 S872 1.610 . S
N874 C875 1.351 . S
C875 C869 1.428 . S
C875 N874 1.351 . S
C875 C876 1.434 . S
C876 C867 1.429 . S
C876 N873 1.350 . S
C876 C875 1.434 . S
C877 C878 1.369 . S
C877 C879 1.419 . S
C877 H881 0.930 . S
C878 C877 1.369 . S
C878 C887 1.429 . S
C879 C877 1.419 . S
C879 C880 1.363 . S
C879 H882 0.929 . S
C880 C879 1.363 . S
C880 C886 1.428 . S
H881 C877 0.930 . S
H882 C879 0.929 . S
S883 N884 1.613 . S
S883 N885 1.610 . S
N884 S883 1.613 . S
N884 C887 1.350 . S
N885 S883 1.610 . S
N885 C886 1.351 . S
C886 C880 1.428 . S
C886 N885 1.351 . S
C886 C887 1.434 . S
C887 C878 1.429 . S
C887 N884 1.350 . S
C887 C886 1.434 . S
C888 C889 1.369 . S
C888 C890 1.419 . S
C888 H892 0.930 . S
C889 C888 1.369 . S
C889 C898 1.429 . S
C890 C888 1.419 . S
C890 C891 1.363 . S
C890 H893 0.929 . S
C891 C890 1.363 . S
C891 C897 1.428 . S
H892 C888 0.930 . S
H893 C890 0.929 . S
S894 N895 1.613 . S
S894 N896 1.610 . S
N895 S894 1.613 . S
N895 C898 1.350 . S
N896 S894 1.610 . S
N896 C897 1.351 . S
C897 C891 1.428 . S
C897 N896 1.351 . S
C897 C898 1.434 . S
C898 C889 1.429 . S
C898 N895 1.350 . S
C898 C897 1.434 . S
C899 C900 1.369 . S
C899 C901 1.419 . S
C899 H903 0.930 . S
C900 C899 1.369 . S
C900 C909 1.429 . S
C901 C899 1.419 . S
C901 C902 1.363 . S
C901 H904 0.929 . S
C902 C901 1.363 . S
C902 C908 1.428 . S
H903 C899 0.930 . S
H904 C901 0.929 . S
S905 N906 1.613 . S
S905 N907 1.610 . S
N906 S905 1.613 . S
N906 C909 1.350 . S
N907 S905 1.610 . S
N907 C908 1.351 . S
C908 C902 1.428 . S
C908 N907 1.351 . S
C908 C909 1.434 . S
C909 C900 1.429 . S
C909 N906 1.350 . S
C909 C908 1.434 . S
C910 C911 1.369 . S
C910 C912 1.419 . S
C910 H914 0.930 . S
C911 C910 1.369 . S
C911 C920 1.429 . S
C912 C910 1.419 . S
C912 C913 1.363 . S
C912 H915 0.929 . S
C913 C912 1.363 . S
C913 C919 1.428 . S
H914 C910 0.930 . S
H915 C912 0.929 . S
S916 N917 1.613 . S
S916 N918 1.610 . S
N917 S916 1.613 . S
N917 C920 1.350 . S
N918 S916 1.610 . S
N918 C919 1.351 . S
C919 C913 1.428 . S
C919 N918 1.351 . S
C919 C920 1.434 . S
C920 C911 1.429 . S
C920 N917 1.350 . S
C920 C919 1.434 . S
C921 C922 1.369 . S
C921 C923 1.419 . S
C921 H925 0.930 . S
C922 C921 1.369 . S
C922 C931 1.429 . S
C923 C921 1.419 . S
C923 C924 1.363 . S
C923 H926 0.929 . S
C924 C923 1.363 . S
C924 C930 1.428 . S
H925 C921 0.930 . S
H926 C923 0.929 . S
S927 N928 1.613 . S
S927 N929 1.610 . S
N928 S927 1.613 . S
N928 C931 1.350 . S
N929 S927 1.610 . S
N929 C930 1.351 . S
C930 C924 1.428 . S
C930 N929 1.351 . S
C930 C931 1.434 . S
C931 C922 1.429 . S
C931 N928 1.350 . S
C931 C930 1.434 . S
C932 C933 1.369 . S
C932 C934 1.419 . S
C932 H936 0.930 . S
C933 C932 1.369 . S
C933 C942 1.429 . S
C934 C932 1.419 . S
C934 C935 1.363 . S
C934 H937 0.929 . S
C935 C934 1.363 . S
C935 C941 1.428 . S
H936 C932 0.930 . S
H937 C934 0.929 . S
S938 N939 1.613 . S
S938 N940 1.610 . S
N939 S938 1.613 . S
N939 C942 1.350 . S
N940 S938 1.610 . S
N940 C941 1.351 . S
C941 C935 1.428 . S
C941 N940 1.351 . S
C941 C942 1.434 . S
C942 C933 1.429 . S
C942 N939 1.350 . S
C942 C941 1.434 . S
C943 C944 1.369 . S
C943 C945 1.419 . S
C943 H947 0.930 . S
C944 C943 1.369 . S
C944 C953 1.429 . S
C945 C943 1.419 . S
C945 C946 1.363 . S
C945 H948 0.929 . S
C946 C945 1.363 . S
C946 C952 1.428 . S
H947 C943 0.930 . S
H948 C945 0.929 . S
S949 N950 1.613 . S
S949 N951 1.610 . S
N950 S949 1.613 . S
N950 C953 1.350 . S
N951 S949 1.610 . S
N951 C952 1.351 . S
C952 C946 1.428 . S
C952 N951 1.351 . S
C952 C953 1.434 . S
C953 C944 1.429 . S
C953 N950 1.350 . S
C953 C952 1.434 . S
C954 C955 1.369 . S
C954 C956 1.419 . S
C954 H958 0.930 . S
C955 C954 1.369 . S
C955 C964 1.429 . S
C956 C954 1.419 . S
C956 C957 1.363 . S
C956 H959 0.929 . S
C957 C956 1.363 . S
C957 C963 1.428 . S
H958 C954 0.930 . S
H959 C956 0.929 . S
S960 N961 1.613 . S
S960 N962 1.610 . S
N961 S960 1.613 . S
N961 C964 1.350 . S
N962 S960 1.610 . S
N962 C963 1.351 . S
C963 C957 1.428 . S
C963 N962 1.351 . S
C963 C964 1.434 . S
C964 C955 1.429 . S
C964 N961 1.350 . S
C964 C963 1.434 . S
C965 C966 1.369 . S
C965 C967 1.419 . S
C965 H969 0.930 . S
C966 C965 1.369 . S
C966 C975 1.429 . S
C967 C965 1.419 . S
C967 C968 1.363 . S
C967 H970 0.929 . S
C968 C967 1.363 . S
C968 C974 1.428 . S
H969 C965 0.930 . S
H970 C967 0.929 . S
S971 N972 1.613 . S
S971 N973 1.610 . S
N972 S971 1.613 . S
N972 C975 1.350 . S
N973 S971 1.610 . S
N973 C974 1.351 . S
C974 C968 1.428 . S
C974 N973 1.351 . S
C974 C975 1.434 . S
C975 C966 1.429 . S
C975 N972 1.350 . S
C975 C974 1.434 . S
C976 C977 1.369 . S
C976 C978 1.419 . S
C976 H980 0.930 . S
C977 C976 1.369 . S
C977 C986 1.429 . S
C978 C976 1.419 . S
C978 C979 1.363 . S
C978 H981 0.929 . S
C979 C978 1.363 . S
C979 C985 1.428 . S
H980 C976 0.930 . S
H981 C978 0.929 . S
S982 N983 1.613 . S
S982 N984 1.610 . S
N983 S982 1.613 . S
N983 C986 1.350 . S
N984 S982 1.610 . S
N984 C985 1.351 . S
C985 C979 1.428 . S
C985 N984 1.351 . S
C985 C986 1.434 . S
C986 C977 1.429 . S
C986 N983 1.350 . S
C986 C985 1.434 . S
C987 C988 1.369 . S
C987 C989 1.419 . S
C987 H991 0.930 . S
C988 C987 1.369 . S
C988 C997 1.429 . S
C989 C987 1.419 . S
C989 C990 1.363 . S
C989 H992 0.929 . S
C990 C989 1.363 . S
C990 C996 1.428 . S
H991 C987 0.930 . S
H992 C989 0.929 . S
S993 N994 1.613 . S
S993 N995 1.610 . S
N994 S993 1.613 . S
N994 C997 1.350 . S
N995 S993 1.610 . S
N995 C996 1.351 . S
C996 C990 1.428 . S
C996 N995 1.351 . S
C996 C997 1.434 . S
C997 C988 1.429 . S
C997 N994 1.350 . S
C997 C996 1.434 . S
C998 C999 1.369 . S
C998 C1000 1.419 . S
C998 H1002 0.930 . S
C999 C998 1.369 . S
C999 C1008 1.429 . S
C1000 C998 1.419 . S
C1000 C1001 1.363 . S
C1000 H1003 0.929 . S
C1001 C1000 1.363 . S
C1001 C1007 1.428 . S
H1002 C998 0.930 . S
H1003 C1000 0.929 . S
S1004 N1005 1.613 . S
S1004 N1006 1.610 . S
N1005 S1004 1.613 . S
N1005 C1008 1.350 . S
N1006 S1004 1.610 . S
N1006 C1007 1.351 . S
C1007 C1001 1.428 . S
C1007 N1006 1.351 . S
C1007 C1008 1.434 . S
C1008 C999 1.429 . S
C1008 N1005 1.350 . S
C1008 C1007 1.434 . S
C1009 C1010 1.369 . S
C1009 C1011 1.419 . S
C1009 H1013 0.930 . S
C1010 C1009 1.369 . S
C1010 C1019 1.429 . S
C1011 C1009 1.419 . S
C1011 C1012 1.363 . S
C1011 H1014 0.929 . S
C1012 C1011 1.363 . S
C1012 C1018 1.428 . S
H1013 C1009 0.930 . S
H1014 C1011 0.929 . S
S1015 N1016 1.613 . S
S1015 N1017 1.610 . S
N1016 S1015 1.613 . S
N1016 C1019 1.350 . S
N1017 S1015 1.610 . S
N1017 C1018 1.351 . S
C1018 C1012 1.428 . S
C1018 N1017 1.351 . S
C1018 C1019 1.434 . S
C1019 C1010 1.429 . S
C1019 N1016 1.350 . S
C1019 C1018 1.434 . S
C1020 C1021 1.369 . S
C1020 C1022 1.419 . S
C1020 H1024 0.930 . S
C1021 C1020 1.369 . S
C1021 C1030 1.429 . S
C1022 C1020 1.419 . S
C1022 C1023 1.363 . S
C1022 H1025 0.929 . S
C1023 C1022 1.363 . S
C1023 C1029 1.428 . S
H1024 C1020 0.930 . S
H1025 C1022 0.929 . S
S1026 N1027 1.613 . S
S1026 N1028 1.610 . S
N1027 S1026 1.613 . S
N1027 C1030 1.350 . S
N1028 S1026 1.610 . S
N1028 C1029 1.351 . S
C1029 C1023 1.428 . S
C1029 N1028 1.351 . S
C1029 C1030 1.434 . S
C1030 C1021 1.429 . S
C1030 N1027 1.350 . S
C1030 C1029 1.434 . S
C1031 C1032 1.369 . S
C1031 C1033 1.419 . S
C1031 H1035 0.930 . S
C1032 C1031 1.369 . S
C1032 C1041 1.429 . S
C1033 C1031 1.419 . S
C1033 C1034 1.363 . S
C1033 H1036 0.929 . S
C1034 C1033 1.363 . S
C1034 C1040 1.428 . S
H1035 C1031 0.930 . S
H1036 C1033 0.929 . S
S1037 N1038 1.613 . S
S1037 N1039 1.610 . S
N1038 S1037 1.613 . S
N1038 C1041 1.350 . S
N1039 S1037 1.610 . S
N1039 C1040 1.351 . S
C1040 C1034 1.428 . S
C1040 N1039 1.351 . S
C1040 C1041 1.434 . S
C1041 C1032 1.429 . S
C1041 N1038 1.350 . S
C1041 C1040 1.434 . S
C1042 C1043 1.369 . S
C1042 C1044 1.419 . S
C1042 H1046 0.930 . S
C1043 C1042 1.369 . S
C1043 C1052 1.429 . S
C1044 C1042 1.419 . S
C1044 C1045 1.363 . S
C1044 H1047 0.929 . S
C1045 C1044 1.363 . S
C1045 C1051 1.428 . S
H1046 C1042 0.930 . S
H1047 C1044 0.929 . S
S1048 N1049 1.613 . S
S1048 N1050 1.610 . S
N1049 S1048 1.613 . S
N1049 C1052 1.350 . S
N1050 S1048 1.610 . S
N1050 C1051 1.351 . S
C1051 C1045 1.428 . S
C1051 N1050 1.351 . S
C1051 C1052 1.434 . S
C1052 C1043 1.429 . S
C1052 N1049 1.350 . S
C1052 C1051 1.434 . S
C1053 C1054 1.369 . S
C1053 C1055 1.419 . S
C1053 H1057 0.930 . S
C1054 C1053 1.369 . S
C1054 C1063 1.429 . S
C1055 C1053 1.419 . S
C1055 C1056 1.363 . S
C1055 H1058 0.929 . S
C1056 C1055 1.363 . S
C1056 C1062 1.428 . S
H1057 C1053 0.930 . S
H1058 C1055 0.929 . S
S1059 N1060 1.613 . S
S1059 N1061 1.610 . S
N1060 S1059 1.613 . S
N1060 C1063 1.350 . S
N1061 S1059 1.610 . S
N1061 C1062 1.351 . S
C1062 C1056 1.428 . S
C1062 N1061 1.351 . S
C1062 C1063 1.434 . S
C1063 C1054 1.429 . S
C1063 N1060 1.350 . S
C1063 C1062 1.434 . S
C1064 C1065 1.369 . S
C1064 C1066 1.419 . S
C1064 H1068 0.930 . S
C1065 C1064 1.369 . S
C1065 C1074 1.429 . S
C1066 C1064 1.419 . S
C1066 C1067 1.363 . S
C1066 H1069 0.929 . S
C1067 C1066 1.363 . S
C1067 C1073 1.428 . S
H1068 C1064 0.930 . S
H1069 C1066 0.929 . S
S1070 N1071 1.613 . S
S1070 N1072 1.610 . S
N1071 S1070 1.613 . S
N1071 C1074 1.350 . S
N1072 S1070 1.610 . S
N1072 C1073 1.351 . S
C1073 C1067 1.428 . S
C1073 N1072 1.351 . S
C1073 C1074 1.434 . S
C1074 C1065 1.429 . S
C1074 N1071 1.350 . S
C1074 C1073 1.434 . S
C1075 C1076 1.369 . S
C1075 C1077 1.419 . S
C1075 H1079 0.930 . S
C1076 C1075 1.369 . S
C1076 C1085 1.429 . S
C1077 C1075 1.419 . S
C1077 C1078 1.363 . S
C1077 H1080 0.929 . S
C1078 C1077 1.363 . S
C1078 C1084 1.428 . S
H1079 C1075 0.930 . S
H1080 C1077 0.929 . S
S1081 N1082 1.613 . S
S1081 N1083 1.610 . S
N1082 S1081 1.613 . S
N1082 C1085 1.350 . S
N1083 S1081 1.610 . S
N1083 C1084 1.351 . S
C1084 C1078 1.428 . S
C1084 N1083 1.351 . S
C1084 C1085 1.434 . S
C1085 C1076 1.429 . S
C1085 N1082 1.350 . S
C1085 C1084 1.434 . S
C1086 C1087 1.369 . S
C1086 C1088 1.419 . S
C1086 H1090 0.930 . S
C1087 C1086 1.369 . S
C1087 C1096 1.429 . S
C1088 C1086 1.419 . S
C1088 C1089 1.363 . S
C1088 H1091 0.929 . S
C1089 C1088 1.363 . S
C1089 C1095 1.428 . S
H1090 C1086 0.930 . S
H1091 C1088 0.929 . S
S1092 N1093 1.613 . S
S1092 N1094 1.610 . S
N1093 S1092 1.613 . S
N1093 C1096 1.350 . S
N1094 S1092 1.610 . S
N1094 C1095 1.351 . S
C1095 C1089 1.428 . S
C1095 N1094 1.351 . S
C1095 C1096 1.434 . S
C1096 C1087 1.429 . S
C1096 N1093 1.350 . S
C1096 C1095 1.434 . S
C1097 C1098 1.369 . S
C1097 C1099 1.419 . S
C1097 H1101 0.930 . S
C1098 C1097 1.369 . S
C1098 C1107 1.429 . S
C1099 C1097 1.419 . S
C1099 C1100 1.363 . S
C1099 H1102 0.929 . S
C1100 C1099 1.363 . S
C1100 C1106 1.428 . S
H1101 C1097 0.930 . S
H1102 C1099 0.929 . S
S1103 N1104 1.613 . S
S1103 N1105 1.610 . S
N1104 S1103 1.613 . S
N1104 C1107 1.350 . S
N1105 S1103 1.610 . S
N1105 C1106 1.351 . S
C1106 C1100 1.428 . S
C1106 N1105 1.351 . S
C1106 C1107 1.434 . S
C1107 C1098 1.429 . S
C1107 N1104 1.350 . S
C1107 C1106 1.434 . S
C1108 C1109 1.369 . S
C1108 C1110 1.419 . S
C1108 H1112 0.930 . S
C1109 C1108 1.369 . S
C1109 C1118 1.429 . S
C1110 C1108 1.419 . S
C1110 C1111 1.363 . S
C1110 H1113 0.929 . S
C1111 C1110 1.363 . S
C1111 C1117 1.428 . S
H1112 C1108 0.930 . S
H1113 C1110 0.929 . S
S1114 N1115 1.613 . S
S1114 N1116 1.610 . S
N1115 S1114 1.613 . S
N1115 C1118 1.350 . S
N1116 S1114 1.610 . S
N1116 C1117 1.351 . S
C1117 C1111 1.428 . S
C1117 N1116 1.351 . S
C1117 C1118 1.434 . S
C1118 C1109 1.429 . S
C1118 N1115 1.350 . S
C1118 C1117 1.434 . S
C1119 C1120 1.369 . S
C1119 C1121 1.419 . S
C1119 H1123 0.930 . S
C1120 C1119 1.369 . S
C1120 C1129 1.429 . S
C1121 C1119 1.419 . S
C1121 C1122 1.363 . S
C1121 H1124 0.929 . S
C1122 C1121 1.363 . S
C1122 C1128 1.428 . S
H1123 C1119 0.930 . S
H1124 C1121 0.929 . S
S1125 N1126 1.613 . S
S1125 N1127 1.610 . S
N1126 S1125 1.613 . S
N1126 C1129 1.350 . S
N1127 S1125 1.610 . S
N1127 C1128 1.351 . S
C1128 C1122 1.428 . S
C1128 N1127 1.351 . S
C1128 C1129 1.434 . S
C1129 C1120 1.429 . S
C1129 N1126 1.350 . S
C1129 C1128 1.434 . S
C1130 C1131 1.369 . S
C1130 C1132 1.419 . S
C1130 H1134 0.930 . S
C1131 C1130 1.369 . S
C1131 C1140 1.429 . S
C1132 C1130 1.419 . S
C1132 C1133 1.363 . S
C1132 H1135 0.929 . S
C1133 C1132 1.363 . S
C1133 C1139 1.428 . S
H1134 C1130 0.930 . S
H1135 C1132 0.929 . S
S1136 N1137 1.613 . S
S1136 N1138 1.610 . S
N1137 S1136 1.613 . S
N1137 C1140 1.350 . S
N1138 S1136 1.610 . S
N1138 C1139 1.351 . S
C1139 C1133 1.428 . S
C1139 N1138 1.351 . S
C1139 C1140 1.434 . S
C1140 C1131 1.429 . S
C1140 N1137 1.350 . S
C1140 C1139 1.434 . S
C1141 C1142 1.369 . S
C1141 C1143 1.419 . S
C1141 H1145 0.930 . S
C1142 C1141 1.369 . S
C1142 C1151 1.429 . S
C1143 C1141 1.419 . S
C1143 C1144 1.363 . S
C1143 H1146 0.929 . S
C1144 C1143 1.363 . S
C1144 C1150 1.428 . S
H1145 C1141 0.930 . S
H1146 C1143 0.929 . S
S1147 N1148 1.613 . S
S1147 N1149 1.610 . S
N1148 S1147 1.613 . S
N1148 C1151 1.350 . S
N1149 S1147 1.610 . S
N1149 C1150 1.351 . S
C1150 C1144 1.428 . S
C1150 N1149 1.351 . S
C1150 C1151 1.434 . S
C1151 C1142 1.429 . S
C1151 N1148 1.350 . S
C1151 C1150 1.434 . S
C1152 C1153 1.369 . S
C1152 C1154 1.419 . S
C1152 H1156 0.930 . S
C1153 C1152 1.369 . S
C1153 C1162 1.429 . S
C1154 C1152 1.419 . S
C1154 C1155 1.363 . S
C1154 H1157 0.929 . S
C1155 C1154 1.363 . S
C1155 C1161 1.428 . S
H1156 C1152 0.930 . S
H1157 C1154 0.929 . S
S1158 N1159 1.613 . S
S1158 N1160 1.610 . S
N1159 S1158 1.613 . S
N1159 C1162 1.350 . S
N1160 S1158 1.610 . S
N1160 C1161 1.351 . S
C1161 C1155 1.428 . S
C1161 N1160 1.351 . S
C1161 C1162 1.434 . S
C1162 C1153 1.429 . S
C1162 N1159 1.350 . S
C1162 C1161 1.434 . S
C1163 C1164 1.369 . S
C1163 C1165 1.419 . S
C1163 H1167 0.930 . S
C1164 C1163 1.369 . S
C1164 C1173 1.429 . S
C1165 C1163 1.419 . S
C1165 C1166 1.363 . S
C1165 H1168 0.929 . S
C1166 C1165 1.363 . S
C1166 C1172 1.428 . S
H1167 C1163 0.930 . S
H1168 C1165 0.929 . S
S1169 N1170 1.613 . S
S1169 N1171 1.610 . S
N1170 S1169 1.613 . S
N1170 C1173 1.350 . S
N1171 S1169 1.610 . S
N1171 C1172 1.351 . S
C1172 C1166 1.428 . S
C1172 N1171 1.351 . S
C1172 C1173 1.434 . S
C1173 C1164 1.429 . S
C1173 N1170 1.350 . S
C1173 C1172 1.434 . S
C1174 C1175 1.369 . S
C1174 C1176 1.419 . S
C1174 H1178 0.930 . S
C1175 C1174 1.369 . S
C1175 C1184 1.429 . S
C1176 C1174 1.419 . S
C1176 C1177 1.363 . S
C1176 H1179 0.929 . S
C1177 C1176 1.363 . S
C1177 C1183 1.428 . S
H1178 C1174 0.930 . S
H1179 C1176 0.929 . S
S1180 N1181 1.613 . S
S1180 N1182 1.610 . S
N1181 S1180 1.613 . S
N1181 C1184 1.350 . S
N1182 S1180 1.610 . S
N1182 C1183 1.351 . S
C1183 C1177 1.428 . S
C1183 N1182 1.351 . S
C1183 C1184 1.434 . S
C1184 C1175 1.429 . S
C1184 N1181 1.350 . S
C1184 C1183 1.434 . S
C1185 C1186 1.369 . S
C1185 C1187 1.419 . S
C1185 H1189 0.930 . S
C1186 C1185 1.369 . S
C1186 C1195 1.429 . S
C1187 C1185 1.419 . S
C1187 C1188 1.363 . S
C1187 H1190 0.929 . S
C1188 C1187 1.363 . S
C1188 C1194 1.428 . S
H1189 C1185 0.930 . S
H1190 C1187 0.929 . S
S1191 N1192 1.613 . S
S1191 N1193 1.610 . S
N1192 S1191 1.613 . S
N1192 C1195 1.350 . S
N1193 S1191 1.610 . S
N1193 C1194 1.351 . S
C1194 C1188 1.428 . S
C1194 N1193 1.351 . S
C1194 C1195 1.434 . S
C1195 C1186 1.429 . S
C1195 N1192 1.350 . S
C1195 C1194 1.434 . S
C1196 C1197 1.369 . S
C1196 C1198 1.419 . S
C1196 H1200 0.930 . S
C1197 C1196 1.369 . S
C1197 C1206 1.429 . S
C1198 C1196 1.419 . S
C1198 C1199 1.363 . S
C1198 H1201 0.929 . S
C1199 C1198 1.363 . S
C1199 C1205 1.428 . S
H1200 C1196 0.930 . S
H1201 C1198 0.929 . S
S1202 N1203 1.613 . S
S1202 N1204 1.610 . S
N1203 S1202 1.613 . S
N1203 C1206 1.350 . S
N1204 S1202 1.610 . S
N1204 C1205 1.351 . S
C1205 C1199 1.428 . S
C1205 N1204 1.351 . S
C1205 C1206 1.434 . S
C1206 C1197 1.429 . S
C1206 N1203 1.350 . S
C1206 C1205 1.434 . S
C1207 C1208 1.369 . S
C1207 C1209 1.419 . S
C1207 H1211 0.930 . S
C1208 C1207 1.369 . S
C1208 C1217 1.429 . S
C1209 C1207 1.419 . S
C1209 C1210 1.363 . S
C1209 H1212 0.929 . S
C1210 C1209 1.363 . S
C1210 C1216 1.428 . S
H1211 C1207 0.930 . S
H1212 C1209 0.929 . S
S1213 N1214 1.613 . S
S1213 N1215 1.610 . S
N1214 S1213 1.613 . S
N1214 C1217 1.350 . S
N1215 S1213 1.610 . S
N1215 C1216 1.351 . S
C1216 C1210 1.428 . S
C1216 N1215 1.351 . S
C1216 C1217 1.434 . S
C1217 C1208 1.429 . S
C1217 N1214 1.350 . S
C1217 C1216 1.434 . S
C1218 C1219 1.369 . S
C1218 C1220 1.419 . S
C1218 H1222 0.930 . S
C1219 C1218 1.369 . S
C1219 C1228 1.429 . S
C1220 C1218 1.419 . S
C1220 C1221 1.363 . S
C1220 H1223 0.929 . S
C1221 C1220 1.363 . S
C1221 C1227 1.428 . S
H1222 C1218 0.930 . S
H1223 C1220 0.929 . S
S1224 N1225 1.613 . S
S1224 N1226 1.610 . S
N1225 S1224 1.613 . S
N1225 C1228 1.350 . S
N1226 S1224 1.610 . S
N1226 C1227 1.351 . S
C1227 C1221 1.428 . S
C1227 N1226 1.351 . S
C1227 C1228 1.434 . S
C1228 C1219 1.429 . S
C1228 N1225 1.350 . S
C1228 C1227 1.434 . S
C1229 C1230 1.369 . S
C1229 C1231 1.419 . S
C1229 H1233 0.930 . S
C1230 C1229 1.369 . S
C1230 C1239 1.429 . S
C1231 C1229 1.419 . S
C1231 C1232 1.363 . S
C1231 H1234 0.929 . S
C1232 C1231 1.363 . S
C1232 C1238 1.428 . S
H1233 C1229 0.930 . S
H1234 C1231 0.929 . S
S1235 N1236 1.613 . S
S1235 N1237 1.610 . S
N1236 S1235 1.613 . S
N1236 C1239 1.350 . S
N1237 S1235 1.610 . S
N1237 C1238 1.351 . S
C1238 C1232 1.428 . S
C1238 N1237 1.351 . S
C1238 C1239 1.434 . S
C1239 C1230 1.429 . S
C1239 N1236 1.350 . S
C1239 C1238 1.434 . S
C1240 C1241 1.369 . S
C1240 C1242 1.419 . S
C1240 H1244 0.930 . S
C1241 C1240 1.369 . S
C1241 C1250 1.429 . S
C1242 C1240 1.419 . S
C1242 C1243 1.363 . S
C1242 H1245 0.929 . S
C1243 C1242 1.363 . S
C1243 C1249 1.428 . S
H1244 C1240 0.930 . S
H1245 C1242 0.929 . S
S1246 N1247 1.613 . S
S1246 N1248 1.610 . S
N1247 S1246 1.613 . S
N1247 C1250 1.350 . S
N1248 S1246 1.610 . S
N1248 C1249 1.351 . S
C1249 C1243 1.428 . S
C1249 N1248 1.351 . S
C1249 C1250 1.434 . S
C1250 C1241 1.429 . S
C1250 N1247 1.350 . S
C1250 C1249 1.434 . S
C1251 C1252 1.369 . S
C1251 C1253 1.419 . S
C1251 H1255 0.930 . S
C1252 C1251 1.369 . S
C1252 C1261 1.429 . S
C1253 C1251 1.419 . S
C1253 C1254 1.363 . S
C1253 H1256 0.929 . S
C1254 C1253 1.363 . S
C1254 C1260 1.428 . S
H1255 C1251 0.930 . S
H1256 C1253 0.929 . S
S1257 N1258 1.613 . S
S1257 N1259 1.610 . S
N1258 S1257 1.613 . S
N1258 C1261 1.350 . S
N1259 S1257 1.610 . S
N1259 C1260 1.351 . S
C1260 C1254 1.428 . S
C1260 N1259 1.351 . S
C1260 C1261 1.434 . S
C1261 C1252 1.429 . S
C1261 N1258 1.350 . S
C1261 C1260 1.434 . S
C1262 C1263 1.369 . S
C1262 C1264 1.419 . S
C1262 H1266 0.930 . S
C1263 C1262 1.369 . S
C1263 C1272 1.429 . S
C1264 C1262 1.419 . S
C1264 C1265 1.363 . S
C1264 H1267 0.929 . S
C1265 C1264 1.363 . S
C1265 C1271 1.428 . S
H1266 C1262 0.930 . S
H1267 C1264 0.929 . S
S1268 N1269 1.613 . S
S1268 N1270 1.610 . S
N1269 S1268 1.613 . S
N1269 C1272 1.350 . S
N1270 S1268 1.610 . S
N1270 C1271 1.351 . S
C1271 C1265 1.428 . S
C1271 N1270 1.351 . S
C1271 C1272 1.434 . S
C1272 C1263 1.429 . S
C1272 N1269 1.350 . S
C1272 C1271 1.434 . S
C1273 C1274 1.369 . S
C1273 C1275 1.419 . S
C1273 H1277 0.930 . S
C1274 C1273 1.369 . S
C1274 C1283 1.429 . S
C1275 C1273 1.419 . S
C1275 C1276 1.363 . S
C1275 H1278 0.929 . S
C1276 C1275 1.363 . S
C1276 C1282 1.428 . S
H1277 C1273 0.930 . S
H1278 C1275 0.929 . S
S1279 N1280 1.613 . S
S1279 N1281 1.610 . S
N1280 S1279 1.613 . S
N1280 C1283 1.350 . S
N1281 S1279 1.610 . S
N1281 C1282 1.351 . S
C1282 C1276 1.428 . S
C1282 N1281 1.351 . S
C1282 C1283 1.434 . S
C1283 C1274 1.429 . S
C1283 N1280 1.350 . S
C1283 C1282 1.434 . S
C1284 C1285 1.369 1_455 S
C1284 C1286 1.419 . S
C1284 H1288 0.930 . S
C1285 C1284 1.369 1_655 S
C1285 C1294 1.429 . S
C1286 C1284 1.419 . S
C1286 C1287 1.363 . S
C1286 H1289 0.929 . S
C1287 C1286 1.363 . S
C1287 C1293 1.428 1_455 S
H1288 C1284 0.930 . S
H1289 C1286 0.929 . S
S1290 N1291 1.613 . S
S1290 N1292 1.610 . S
N1291 S1290 1.613 . S
N1291 C1294 1.350 . S
N1292 S1290 1.610 . S
N1292 C1293 1.351 . S
C1293 C1287 1.428 1_655 S
C1293 N1292 1.351 . S
C1293 C1294 1.434 . S
C1294 C1285 1.429 . S
C1294 N1291 1.350 . S
C1294 C1293 1.434 . S
C1295 C1296 1.369 . S
C1295 C1297 1.419 . S
C1295 H1299 0.930 . S
C1296 C1295 1.369 . S
C1296 C1305 1.429 . S
C1297 C1295 1.419 . S
C1297 C1298 1.363 . S
C1297 H1300 0.929 . S
C1298 C1297 1.363 . S
C1298 C1304 1.428 . S
H1299 C1295 0.930 . S
H1300 C1297 0.929 . S
S1301 N1302 1.613 . S
S1301 N1303 1.610 . S
N1302 S1301 1.613 . S
N1302 C1305 1.350 . S
N1303 S1301 1.610 . S
N1303 C1304 1.351 . S
C1304 C1298 1.428 . S
C1304 N1303 1.351 . S
C1304 C1305 1.434 . S
C1305 C1296 1.429 . S
C1305 N1302 1.350 . S
C1305 C1304 1.434 . S
C1306 C1307 1.369 . S
C1306 C1308 1.419 . S
C1306 H1310 0.930 . S
C1307 C1306 1.369 . S
C1307 C1316 1.429 1_545 S
C1308 C1306 1.419 . S
C1308 C1309 1.363 1_545 S
C1308 H1311 0.929 . S
C1309 C1308 1.363 1_565 S
C1309 C1315 1.428 . S
H1310 C1306 0.930 . S
H1311 C1308 0.929 . S
S1312 N1313 1.613 . S
S1312 N1314 1.610 . S
N1313 S1312 1.613 . S
N1313 C1316 1.350 . S
N1314 S1312 1.610 . S
N1314 C1315 1.351 . S
C1315 C1309 1.428 . S
C1315 N1314 1.351 . S
C1315 C1316 1.434 . S
C1316 C1307 1.429 1_565 S
C1316 N1313 1.350 . S
C1316 C1315 1.434 . S
C1317 C1318 1.369 1_556 S
C1317 C1319 1.419 1_565 S
C1317 H1321 0.930 . S
C1318 C1317 1.369 1_554 S
C1318 C1327 1.429 . S
C1319 C1317 1.419 1_545 S
C1319 C1320 1.363 . S
C1319 H1322 0.929 . S
C1320 C1319 1.363 . S
C1320 C1326 1.428 1_556 S
H1321 C1317 0.930 . S
H1322 C1319 0.929 . S
S1323 N1324 1.613 1_545 S
S1323 N1325 1.610 . S
N1324 S1323 1.613 1_565 S
N1324 C1327 1.350 . S
N1325 S1323 1.610 . S
N1325 C1326 1.351 . S
C1326 C1320 1.428 1_554 S
C1326 N1325 1.351 . S
C1326 C1327 1.434 1_545 S
C1327 C1318 1.429 . S
C1327 N1324 1.350 . S
C1327 C1326 1.434 1_565 S
C1328 C1329 1.369 1_554 S
C1328 C1330 1.419 1_655 S
C1328 H1332 0.930 . S
C1329 C1328 1.369 1_556 S
C1329 C1338 1.429 . S
C1330 C1328 1.419 1_455 S
C1330 C1331 1.363 . S
C1330 H1333 0.929 . S
C1331 C1330 1.363 . S
C1331 C1337 1.428 1_554 S
H1332 C1328 0.930 . S
H1333 C1330 0.929 . S
S1334 N1335 1.613 1_455 S
S1334 N1336 1.610 . S
N1335 S1334 1.613 1_655 S
N1335 C1338 1.350 . S
N1336 S1334 1.610 . S
N1336 C1337 1.351 . S
C1337 C1331 1.428 1_556 S
C1337 N1336 1.351 . S
C1337 C1338 1.434 1_455 S
C1338 C1329 1.429 . S
C1338 N1335 1.350 . S
C1338 C1337 1.434 1_655 S
C1339 C1340 1.369 . S
C1339 C1341 1.419 . S
C1339 H1343 0.930 . S
C1340 C1339 1.369 . S
C1340 C1349 1.429 1_554 S
C1341 C1339 1.419 . S
C1341 C1342 1.363 1_554 S
C1341 H1344 0.929 . S
C1342 C1341 1.363 1_556 S
C1342 C1348 1.428 . S
H1343 C1339 0.930 . S
H1344 C1341 0.929 . S
S1345 N1346 1.613 . S
S1345 N1347 1.610 . S
N1346 S1345 1.613 . S
N1346 C1349 1.350 . S
N1347 S1345 1.610 . S
N1347 C1348 1.351 . S
C1348 C1342 1.428 . S
C1348 N1347 1.351 . S
C1348 C1349 1.434 . S
C1349 C1340 1.429 1_556 S
C1349 N1346 1.350 . S
C1349 C1348 1.434 . S
C1350 C1351 1.369 . S
C1350 C1352 1.419 . S
C1350 H1354 0.930 . S
C1351 C1350 1.369 . S
C1351 C1360 1.429 . S
C1352 C1350 1.419 . S
C1352 C1353 1.363 . S
C1352 H1355 0.929 . S
C1353 C1352 1.363 . S
C1353 C1359 1.428 . S
H1354 C1350 0.930 . S
H1355 C1352 0.929 . S
S1356 N1357 1.613 . S
S1356 N1358 1.610 . S
N1357 S1356 1.613 . S
N1357 C1360 1.350 . S
N1358 S1356 1.610 . S
N1358 C1359 1.351 . S
C1359 C1353 1.428 . S
C1359 N1358 1.351 . S
C1359 C1360 1.434 . S
C1360 C1351 1.429 . S
C1360 N1357 1.350 . S
C1360 C1359 1.434 . S
C1361 C1362 1.369 . S
C1361 C1363 1.419 . S
C1361 H1365 0.930 . S
C1362 C1361 1.369 . S
C1362 C1371 1.429 . S
C1363 C1361 1.419 . S
C1363 C1364 1.363 . S
C1363 H1366 0.929 . S
C1364 C1363 1.363 . S
C1364 C1370 1.428 . S
H1365 C1361 0.930 . S
H1366 C1363 0.929 . S
S1367 N1368 1.613 . S
S1367 N1369 1.610 . S
N1368 S1367 1.613 . S
N1368 C1371 1.350 . S
N1369 S1367 1.610 . S
N1369 C1370 1.351 . S
C1370 C1364 1.428 . S
C1370 N1369 1.351 . S
C1370 C1371 1.434 . S
C1371 C1362 1.429 . S
C1371 N1368 1.350 . S
C1371 C1370 1.434 . S
C1372 C1373 1.369 . S
C1372 C1374 1.419 . S
C1372 H1376 0.930 . S
C1373 C1372 1.369 . S
C1373 C1382 1.429 . S
C1374 C1372 1.419 . S
C1374 C1375 1.363 . S
C1374 H1377 0.929 . S
C1375 C1374 1.363 . S
C1375 C1381 1.428 . S
H1376 C1372 0.930 . S
H1377 C1374 0.929 . S
S1378 N1379 1.613 . S
S1378 N1380 1.610 . S
N1379 S1378 1.613 . S
N1379 C1382 1.350 . S
N1380 S1378 1.610 . S
N1380 C1381 1.351 . S
C1381 C1375 1.428 . S
C1381 N1380 1.351 . S
C1381 C1382 1.434 . S
C1382 C1373 1.429 . S
C1382 N1379 1.350 . S
C1382 C1381 1.434 . S
C1383 C1384 1.369 . S
C1383 C1385 1.419 . S
C1383 H1387 0.930 . S
C1384 C1383 1.369 . S
C1384 C1393 1.429 . S
C1385 C1383 1.419 . S
C1385 C1386 1.363 . S
C1385 H1388 0.929 . S
C1386 C1385 1.363 . S
C1386 C1392 1.428 . S
H1387 C1383 0.930 . S
H1388 C1385 0.929 . S
S1389 N1390 1.613 . S
S1389 N1391 1.610 . S
N1390 S1389 1.613 . S
N1390 C1393 1.350 . S
N1391 S1389 1.610 . S
N1391 C1392 1.351 . S
C1392 C1386 1.428 . S
C1392 N1391 1.351 . S
C1392 C1393 1.434 . S
C1393 C1384 1.429 . S
C1393 N1390 1.350 . S
C1393 C1392 1.434 . S
C1394 C1395 1.369 . S
C1394 C1396 1.419 . S
C1394 H1398 0.930 . S
C1395 C1394 1.369 . S
C1395 C1404 1.429 . S
C1396 C1394 1.419 . S
C1396 C1397 1.363 . S
C1396 H1399 0.929 . S
C1397 C1396 1.363 . S
C1397 C1403 1.428 . S
H1398 C1394 0.930 . S
H1399 C1396 0.929 . S
S1400 N1401 1.613 . S
S1400 N1402 1.610 . S
N1401 S1400 1.613 . S
N1401 C1404 1.350 . S
N1402 S1400 1.610 . S
N1402 C1403 1.351 . S
C1403 C1397 1.428 . S
C1403 N1402 1.351 . S
C1403 C1404 1.434 . S
C1404 C1395 1.429 . S
C1404 N1401 1.350 . S
C1404 C1403 1.434 . S
C1405 C1406 1.369 . S
C1405 C1407 1.419 . S
C1405 H1409 0.930 . S
C1406 C1405 1.369 . S
C1406 C1415 1.429 . S
C1407 C1405 1.419 . S
C1407 C1408 1.363 . S
C1407 H1410 0.929 . S
C1408 C1407 1.363 . S
C1408 C1414 1.428 . S
H1409 C1405 0.930 . S
H1410 C1407 0.929 . S
S1411 N1412 1.613 . S
S1411 N1413 1.610 . S
N1412 S1411 1.613 . S
N1412 C1415 1.350 . S
N1413 S1411 1.610 . S
N1413 C1414 1.351 . S
C1414 C1408 1.428 . S
C1414 N1413 1.351 . S
C1414 C1415 1.434 . S
C1415 C1406 1.429 . S
C1415 N1412 1.350 . S
C1415 C1414 1.434 . S
C1416 C1417 1.369 . S
C1416 C1418 1.419 . S
C1416 H1420 0.930 . S
C1417 C1416 1.369 . S
C1417 C1426 1.429 . S
C1418 C1416 1.419 . S
C1418 C1419 1.363 . S
C1418 H1421 0.929 . S
C1419 C1418 1.363 . S
C1419 C1425 1.428 . S
H1420 C1416 0.930 . S
H1421 C1418 0.929 . S
S1422 N1423 1.613 . S
S1422 N1424 1.610 . S
N1423 S1422 1.613 . S
N1423 C1426 1.350 . S
N1424 S1422 1.610 . S
N1424 C1425 1.351 . S
C1425 C1419 1.428 . S
C1425 N1424 1.351 . S
C1425 C1426 1.434 . S
C1426 C1417 1.429 . S
C1426 N1423 1.350 . S
C1426 C1425 1.434 . S
C1427 C1428 1.369 . S
C1427 C1429 1.419 . S
C1427 H1431 0.930 . S
C1428 C1427 1.369 . S
C1428 C1437 1.429 . S
C1429 C1427 1.419 . S
C1429 C1430 1.363 . S
C1429 H1432 0.929 . S
C1430 C1429 1.363 . S
C1430 C1436 1.428 . S
H1431 C1427 0.930 . S
H1432 C1429 0.929 . S
S1433 N1434 1.613 . S
S1433 N1435 1.610 . S
N1434 S1433 1.613 . S
N1434 C1437 1.350 . S
N1435 S1433 1.610 . S
N1435 C1436 1.351 . S
C1436 C1430 1.428 . S
C1436 N1435 1.351 . S
C1436 C1437 1.434 . S
C1437 C1428 1.429 . S
C1437 N1434 1.350 . S
C1437 C1436 1.434 . S
C1438 C1439 1.369 . S
C1438 C1440 1.419 . S
C1438 H1442 0.930 . S
C1439 C1438 1.369 . S
C1439 C1448 1.429 . S
C1440 C1438 1.419 . S
C1440 C1441 1.363 . S
C1440 H1443 0.929 . S
C1441 C1440 1.363 . S
C1441 C1447 1.428 . S
H1442 C1438 0.930 . S
H1443 C1440 0.929 . S
S1444 N1445 1.613 . S
S1444 N1446 1.606 1_554 S
N1445 S1444 1.613 . S
N1445 C1448 1.350 . S
N1446 S1444 1.606 1_556 S
N1446 C1447 1.329 1_556 S
C1447 C1441 1.428 . S
C1447 N1446 1.329 1_554 S
C1447 C1448 1.434 . S
C1448 C1439 1.429 . S
C1448 N1445 1.350 . S
C1448 C1447 1.434 . S
C1449 C1450 1.369 . S
C1449 C1451 1.419 . S
C1449 H1453 0.930 . S
C1450 C1449 1.369 . S
C1450 C1459 1.429 . S
C1451 C1449 1.419 . S
C1451 C1452 1.363 . S
C1451 H1454 0.929 . S
C1452 C1451 1.363 . S
C1452 C1458 1.428 . S
H1453 C1449 0.930 . S
H1454 C1451 0.929 . S
S1455 N1456 1.613 . S
S1455 N1457 1.610 . S
N1456 S1455 1.613 . S
N1456 C1459 1.350 . S
N1457 S1455 1.610 . S
N1457 C1458 1.351 . S
C1458 C1452 1.428 . S
C1458 N1457 1.351 . S
C1458 C1459 1.434 . S
C1459 C1450 1.429 . S
C1459 N1456 1.350 . S
C1459 C1458 1.434 . S
C1460 C1461 1.369 . S
C1460 C1462 1.419 . S
C1460 H1464 0.930 . S
C1461 C1460 1.369 . S
C1461 C1470 1.429 . S
C1462 C1460 1.419 . S
C1462 C1463 1.363 . S
C1462 H1465 0.929 . S
C1463 C1462 1.363 . S
C1463 C1469 1.428 . S
H1464 C1460 0.930 . S
H1465 C1462 0.929 . S
S1466 N1467 1.613 . S
S1466 N1468 1.610 . S
N1467 S1466 1.613 . S
N1467 C1470 1.350 . S
N1468 S1466 1.610 . S
N1468 C1469 1.351 . S
C1469 C1463 1.428 . S
C1469 N1468 1.351 . S
C1469 C1470 1.434 . S
C1470 C1461 1.429 . S
C1470 N1467 1.350 . S
C1470 C1469 1.434 . S
C1471 C1472 1.369 . S
C1471 C1473 1.419 . S
C1471 H1475 0.930 . S
C1472 C1471 1.369 . S
C1472 C1481 1.429 . S
C1473 C1471 1.419 . S
C1473 C1474 1.363 . S
C1473 H1476 0.929 . S
C1474 C1473 1.363 . S
C1474 C1480 1.428 . S
H1475 C1471 0.930 . S
H1476 C1473 0.929 . S
S1477 N1478 1.613 . S
S1477 N1479 1.610 . S
N1478 S1477 1.613 . S
N1478 C1481 1.350 . S
N1479 S1477 1.610 . S
N1479 C1480 1.351 . S
C1480 C1474 1.428 . S
C1480 N1479 1.351 . S
C1480 C1481 1.434 . S
C1481 C1472 1.429 . S
C1481 N1478 1.350 . S
C1481 C1480 1.434 . S
C1482 C1483 1.369 . S
C1482 C1484 1.419 1_455 S
C1482 H1486 0.930 . S
C1483 C1482 1.369 . S
C1483 C1492 1.429 . S
C1484 C1482 1.419 1_655 S
C1484 C1485 1.363 . S
C1484 H1487 0.929 . S
C1485 C1484 1.363 . S
C1485 C1491 1.428 . S
H1486 C1482 0.930 . S
H1487 C1484 0.929 . S
S1488 N1489 1.613 . S
S1488 N1490 1.610 1_455 S
N1489 S1488 1.613 . S
N1489 C1492 1.350 . S
N1490 S1488 1.610 1_655 S
N1490 C1491 1.351 . S
C1491 C1485 1.428 . S
C1491 N1490 1.351 . S
C1491 C1492 1.434 1_655 S
C1492 C1483 1.429 . S
C1492 N1489 1.350 . S
C1492 C1491 1.434 1_455 S
C1493 C1494 1.369 . S
C1493 C1495 1.419 . S
C1493 H1497 0.930 . S
C1494 C1493 1.369 . S
C1494 C1503 1.429 . S
C1495 C1493 1.419 . S
C1495 C1496 1.363 . S
C1495 H1498 0.929 . S
C1496 C1495 1.363 . S
C1496 C1502 1.428 . S
H1497 C1493 0.930 . S
H1498 C1495 0.929 . S
S1499 N1500 1.613 . S
S1499 N1501 1.610 . S
N1500 S1499 1.613 . S
N1500 C1503 1.350 . S
N1501 S1499 1.610 . S
N1501 C1502 1.351 . S
C1502 C1496 1.428 . S
C1502 N1501 1.351 . S
C1502 C1503 1.434 . S
C1503 C1494 1.429 . S
C1503 N1500 1.350 . S
C1503 C1502 1.434 . S
C1504 C1505 1.369 . S
C1504 C1506 1.419 . S
C1504 H1508 0.930 . S
C1505 C1504 1.369 . S
C1505 C1514 1.429 1_545 S
C1506 C1504 1.419 . S
C1506 C1507 1.363 1_545 S
C1506 H1509 0.929 . S
C1507 C1506 1.363 1_565 S
C1507 C1513 1.428 . S
H1508 C1504 0.930 . S
H1509 C1506 0.929 . S
S1510 N1511 1.613 . S
S1510 N1512 1.610 . S
N1511 S1510 1.613 . S
N1511 C1514 1.350 . S
N1512 S1510 1.610 . S
N1512 C1513 1.351 . S
C1513 C1507 1.428 . S
C1513 N1512 1.351 . S
C1513 C1514 1.434 . S
C1514 C1505 1.429 1_565 S
C1514 N1511 1.350 . S
C1514 C1513 1.434 . S
C1515 C1516 1.369 . S
C1515 C1517 1.419 1_565 S
C1515 H1519 0.930 . S
C1516 C1515 1.369 . S
C1516 C1525 1.429 . S
C1517 C1515 1.419 1_545 S
C1517 C1518 1.363 . S
C1517 H1520 0.929 . S
C1518 C1517 1.363 . S
C1518 C1524 1.428 . S
H1519 C1515 0.930 . S
H1520 C1517 0.929 . S
S1521 N1522 1.613 . S
S1521 N1523 1.610 1_565 S
N1522 S1521 1.613 . S
N1522 C1525 1.350 . S
N1523 S1521 1.610 1_545 S
N1523 C1524 1.351 . S
C1524 C1518 1.428 . S
C1524 N1523 1.351 . S
C1524 C1525 1.434 1_545 S
C1525 C1516 1.429 . S
C1525 N1522 1.350 . S
C1525 C1524 1.434 1_565 S
C1526 C1527 1.369 . S
C1526 C1528 1.419 1_455 S
C1526 H1530 0.930 . S
C1527 C1526 1.369 . S
C1527 C1536 1.432 . S
C1528 C1526 1.419 1_655 S
C1528 C1529 1.363 . S
C1528 H1531 0.929 . S
C1529 C1528 1.363 . S
C1529 C1535 1.428 . S
H1530 C1526 0.930 . S
H1531 C1528 0.929 . S
S1532 N1533 1.613 . S
S1532 N1534 1.610 . S
N1533 S1532 1.613 . S
N1533 C1536 1.356 1_655 S
N1534 S1532 1.610 . S
N1534 C1535 1.351 . S
C1535 C1529 1.428 . S
C1535 N1534 1.351 . S
C1535 C1536 1.424 1_655 S
C1536 C1527 1.432 . S
C1536 N1533 1.356 1_455 S
C1536 C1535 1.424 1_455 S
C1537 C1538 1.369 . S
C1537 C1539 1.419 . S
C1537 H1541 0.930 . S
C1538 C1537 1.369 . S
C1538 C1547 1.429 . S
C1539 C1537 1.419 . S
C1539 C1540 1.363 . S
C1539 H1542 0.929 . S
C1540 C1539 1.363 . S
C1540 C1546 1.428 . S
H1541 C1537 0.930 . S
H1542 C1539 0.929 . S
S1543 N1544 1.613 . S
S1543 N1545 1.610 . S
N1544 S1543 1.613 . S
N1544 C1547 1.350 . S
N1545 S1543 1.610 . S
N1545 C1546 1.351 . S
C1546 C1540 1.428 . S
C1546 N1545 1.351 . S
C1546 C1547 1.434 . S
C1547 C1538 1.429 . S
C1547 N1544 1.350 . S
C1547 C1546 1.434 . S
C1548 C1549 1.369 . S
C1548 C1550 1.419 . S
C1548 H1552 0.930 . S
C1549 C1548 1.369 . S
C1549 C1558 1.429 . S
C1550 C1548 1.419 . S
C1550 C1551 1.363 . S
C1550 H1553 0.929 . S
C1551 C1550 1.363 . S
C1551 C1557 1.428 . S
H1552 C1548 0.930 . S
H1553 C1550 0.929 . S
S1554 N1555 1.613 . S
S1554 N1556 1.610 . S
N1555 S1554 1.613 . S
N1555 C1558 1.350 . S
N1556 S1554 1.610 . S
N1556 C1557 1.351 . S
C1557 C1551 1.428 . S
C1557 N1556 1.351 . S
C1557 C1558 1.434 . S
C1558 C1549 1.429 . S
C1558 N1555 1.350 . S
C1558 C1557 1.434 . S
C1559 C1560 1.369 . S
C1559 C1561 1.419 . S
C1559 H1563 0.930 . S
C1560 C1559 1.369 . S
C1560 C1569 1.429 1_545 S
C1561 C1559 1.419 . S
C1561 C1562 1.363 1_545 S
C1561 H1564 0.929 . S
C1562 C1561 1.363 1_565 S
C1562 C1568 1.428 . S
H1563 C1559 0.930 . S
H1564 C1561 0.929 . S
S1565 N1566 1.613 . S
S1565 N1567 1.610 . S
N1566 S1565 1.613 . S
N1566 C1569 1.350 . S
N1567 S1565 1.610 . S
N1567 C1568 1.351 . S
C1568 C1562 1.428 . S
C1568 N1567 1.351 . S
C1568 C1569 1.434 . S
C1569 C1560 1.429 1_565 S
C1569 N1566 1.350 . S
C1569 C1568 1.434 . S
C1570 C1571 1.369 1_455 S
C1570 C1572 1.419 . S
C1570 H1574 0.930 . S
C1571 C1570 1.369 1_655 S
C1571 C1580 1.429 . S
C1572 C1570 1.419 . S
C1572 C1573 1.363 . S
C1572 H1575 0.929 . S
C1573 C1572 1.363 . S
C1573 C1579 1.428 1_455 S
H1574 C1570 0.930 . S
H1575 C1572 0.929 . S
S1576 N1577 1.613 . S
S1576 N1578 1.610 . S
N1577 S1576 1.613 . S
N1577 C1580 1.350 . S
N1578 S1576 1.610 . S
N1578 C1579 1.351 . S
C1579 C1573 1.428 1_655 S
C1579 N1578 1.351 . S
C1579 C1580 1.434 . S
C1580 C1571 1.429 . S
C1580 N1577 1.350 . S
C1580 C1579 1.434 . S
C1581 C1582 1.369 . S
C1581 C1583 1.419 . S
C1581 H1585 0.930 . S
C1582 C1581 1.369 . S
C1582 C1591 1.429 . S
C1583 C1581 1.419 . S
C1583 C1584 1.363 . S
C1583 H1586 0.929 . S
C1584 C1583 1.363 . S
C1584 C1590 1.428 . S
H1585 C1581 0.930 . S
H1586 C1583 0.929 . S
S1587 N1588 1.613 . S
S1587 N1589 1.610 . S
N1588 S1587 1.613 . S
N1588 C1591 1.350 . S
N1589 S1587 1.610 . S
N1589 C1590 1.351 . S
C1590 C1584 1.428 . S
C1590 N1589 1.351 . S
C1590 C1591 1.434 . S
C1591 C1582 1.429 . S
C1591 N1588 1.350 . S
C1591 C1590 1.434 . S
C1592 C1593 1.369 1_545 S
C1592 C1594 1.419 . S
C1592 H1596 0.930 . S
C1593 C1592 1.369 1_565 S
C1593 C1602 1.429 . S
C1594 C1592 1.419 . S
C1594 C1595 1.363 . S
C1594 H1597 0.929 . S
C1595 C1594 1.363 . S
C1595 C1601 1.428 1_545 S
H1596 C1592 0.930 . S
H1597 C1594 0.929 . S
S1598 N1599 1.613 . S
S1598 N1600 1.610 . S
N1599 S1598 1.613 . S
N1599 C1602 1.350 . S
N1600 S1598 1.610 . S
N1600 C1601 1.351 . S
C1601 C1595 1.428 1_565 S
C1601 N1600 1.351 . S
C1601 C1602 1.434 . S
C1602 C1593 1.429 . S
C1602 N1599 1.350 . S
C1602 C1601 1.434 . S
C1603 C1604 1.369 . S
C1603 C1605 1.419 . S
C1603 H1607 0.930 . S
C1604 C1603 1.369 . S
C1604 C1613 1.429 1_655 S
C1605 C1603 1.419 . S
C1605 C1606 1.363 1_655 S
C1605 H1608 0.929 . S
C1606 C1605 1.363 1_455 S
C1606 C1612 1.428 . S
H1607 C1603 0.930 . S
H1608 C1605 0.929 . S
S1609 N1610 1.613 . S
S1609 N1611 1.610 . S
N1610 S1609 1.613 . S
N1610 C1613 1.350 . S
N1611 S1609 1.610 . S
N1611 C1612 1.351 . S
C1612 C1606 1.428 . S
C1612 N1611 1.351 . S
C1612 C1613 1.434 . S
C1613 C1604 1.429 1_455 S
C1613 N1610 1.350 . S
C1613 C1612 1.434 . S
C1614 C1615 1.369 . S
C1614 C1616 1.419 . S
C1614 H1618 0.930 . S
C1615 C1614 1.369 . S
C1615 C1624 1.429 . S
C1616 C1614 1.419 . S
C1616 C1617 1.363 . S
C1616 H1619 0.929 . S
C1617 C1616 1.363 . S
C1617 C1623 1.428 . S
H1618 C1614 0.930 . S
H1619 C1616 0.929 . S
S1620 N1621 1.613 . S
S1620 N1622 1.610 . S
N1621 S1620 1.613 . S
N1621 C1624 1.350 . S
N1622 S1620 1.610 . S
N1622 C1623 1.351 . S
C1623 C1617 1.428 . S
C1623 N1622 1.351 . S
C1623 C1624 1.434 . S
C1624 C1615 1.429 . S
C1624 N1621 1.350 . S
C1624 C1623 1.434 . S
C1625 C1626 1.369 . S
C1625 C1627 1.419 . S
C1625 H1629 0.930 . S
C1626 C1625 1.369 . S
C1626 C1635 1.429 . S
C1627 C1625 1.419 . S
C1627 C1628 1.363 . S
C1627 H1630 0.929 . S
C1628 C1627 1.363 . S
C1628 C1634 1.428 . S
H1629 C1625 0.930 . S
H1630 C1627 0.929 . S
S1631 N1632 1.613 . S
S1631 N1633 1.610 . S
N1632 S1631 1.613 . S
N1632 C1635 1.350 . S
N1633 S1631 1.610 . S
N1633 C1634 1.351 . S
C1634 C1628 1.428 . S
C1634 N1633 1.351 . S
C1634 C1635 1.434 . S
C1635 C1626 1.429 . S
C1635 N1632 1.350 . S
C1635 C1634 1.434 . S
C1636 C1637 1.369 . S
C1636 C1638 1.419 . S
C1636 H1640 0.930 . S
C1637 C1636 1.369 . S
C1637 C1646 1.429 . S
C1638 C1636 1.419 . S
C1638 C1639 1.363 . S
C1638 H1641 0.929 . S
C1639 C1638 1.363 . S
C1639 C1645 1.428 . S
H1640 C1636 0.930 . S
H1641 C1638 0.929 . S
S1642 N1643 1.613 . S
S1642 N1644 1.610 . S
N1643 S1642 1.613 . S
N1643 C1646 1.350 . S
N1644 S1642 1.610 . S
N1644 C1645 1.351 . S
C1645 C1639 1.428 . S
C1645 N1644 1.351 . S
C1645 C1646 1.434 . S
C1646 C1637 1.429 . S
C1646 N1643 1.350 . S
C1646 C1645 1.434 . S
C1647 C1648 1.369 . S
C1647 C1649 1.419 . S
C1647 H1651 0.930 . S
C1648 C1647 1.369 . S
C1648 C1657 1.429 . S
C1649 C1647 1.419 . S
C1649 C1650 1.363 . S
C1649 H1652 0.929 . S
C1650 C1649 1.363 . S
C1650 C1656 1.428 . S
H1651 C1647 0.930 . S
H1652 C1649 0.929 . S
S1653 N1654 1.613 . S
S1653 N1655 1.610 . S
N1654 S1653 1.613 . S
N1654 C1657 1.350 . S
N1655 S1653 1.610 . S
N1655 C1656 1.351 . S
C1656 C1650 1.428 . S
C1656 N1655 1.351 . S
C1656 C1657 1.434 . S
C1657 C1648 1.429 . S
C1657 N1654 1.350 . S
C1657 C1656 1.434 . S
C1658 C1659 1.369 . S
C1658 C1660 1.419 . S
C1658 H1662 0.930 . S
C1659 C1658 1.369 . S
C1659 C1668 1.429 . S
C1660 C1658 1.419 . S
C1660 C1661 1.363 . S
C1660 H1663 0.929 . S
C1661 C1660 1.363 . S
C1661 C1667 1.428 . S
H1662 C1658 0.930 . S
H1663 C1660 0.929 . S
S1664 N1665 1.613 . S
S1664 N1666 1.610 . S
N1665 S1664 1.613 . S
N1665 C1668 1.350 . S
N1666 S1664 1.610 . S
N1666 C1667 1.351 . S
C1667 C1661 1.428 . S
C1667 N1666 1.351 . S
C1667 C1668 1.434 . S
C1668 C1659 1.429 . S
C1668 N1665 1.350 . S
C1668 C1667 1.434 . S
C1669 C1670 1.369 . S
C1669 C1671 1.419 . S
C1669 H1673 0.930 . S
C1670 C1669 1.369 . S
C1670 C1679 1.429 . S
C1671 C1669 1.419 . S
C1671 C1672 1.363 . S
C1671 H1674 0.929 . S
C1672 C1671 1.363 . S
C1672 C1678 1.428 . S
H1673 C1669 0.930 . S
H1674 C1671 0.929 . S
S1675 N1676 1.613 . S
S1675 N1677 1.610 . S
N1676 S1675 1.613 . S
N1676 C1679 1.350 . S
N1677 S1675 1.610 . S
N1677 C1678 1.351 . S
C1678 C1672 1.428 . S
C1678 N1677 1.351 . S
C1678 C1679 1.434 . S
C1679 C1670 1.429 . S
C1679 N1676 1.350 . S
C1679 C1678 1.434 . S
C1680 C1681 1.369 . S
C1680 C1682 1.419 . S
C1680 H1684 0.930 . S
C1681 C1680 1.369 . S
C1681 C1690 1.429 . S
C1682 C1680 1.419 . S
C1682 C1683 1.363 . S
C1682 H1685 0.929 . S
C1683 C1682 1.363 . S
C1683 C1689 1.428 . S
H1684 C1680 0.930 . S
H1685 C1682 0.929 . S
S1686 N1687 1.613 . S
S1686 N1688 1.610 . S
N1687 S1686 1.613 . S
N1687 C1690 1.350 . S
N1688 S1686 1.610 . S
N1688 C1689 1.351 . S
C1689 C1683 1.428 . S
C1689 N1688 1.351 . S
C1689 C1690 1.434 . S
C1690 C1681 1.429 . S
C1690 N1687 1.350 . S
C1690 C1689 1.434 . S
C1691 C1692 1.369 . S
C1691 C1693 1.419 . S
C1691 H1695 0.930 . S
C1692 C1691 1.369 . S
C1692 C1701 1.429 . S
C1693 C1691 1.419 . S
C1693 C1694 1.363 . S
C1693 H1696 0.929 . S
C1694 C1693 1.363 . S
C1694 C1700 1.428 . S
H1695 C1691 0.930 . S
H1696 C1693 0.929 . S
S1697 N1698 1.613 . S
S1697 N1699 1.610 . S
N1698 S1697 1.613 . S
N1698 C1701 1.350 . S
N1699 S1697 1.610 . S
N1699 C1700 1.351 . S
C1700 C1694 1.428 . S
C1700 N1699 1.351 . S
C1700 C1701 1.434 . S
C1701 C1692 1.429 . S
C1701 N1698 1.350 . S
C1701 C1700 1.434 . S
C1702 C1703 1.369 . S
C1702 C1704 1.419 . S
C1702 H1706 0.930 . S
C1703 C1702 1.369 . S
C1703 C1712 1.429 . S
C1704 C1702 1.419 . S
C1704 C1705 1.363 . S
C1704 H1707 0.929 . S
C1705 C1704 1.363 . S
C1705 C1711 1.428 . S
H1706 C1702 0.930 . S
H1707 C1704 0.929 . S
S1708 N1709 1.613 . S
S1708 N1710 1.610 . S
N1709 S1708 1.613 . S
N1709 C1712 1.350 . S
N1710 S1708 1.610 . S
N1710 C1711 1.351 . S
C1711 C1705 1.428 . S
C1711 N1710 1.351 . S
C1711 C1712 1.434 . S
C1712 C1703 1.429 . S
C1712 N1709 1.350 . S
C1712 C1711 1.434 . S
C1713 C1714 1.369 . S
C1713 C1715 1.419 . S
C1713 H1717 0.930 . S
C1714 C1713 1.369 . S
C1714 C1723 1.429 . S
C1715 C1713 1.419 . S
C1715 C1716 1.363 . S
C1715 H1718 0.929 . S
C1716 C1715 1.363 . S
C1716 C1722 1.428 . S
H1717 C1713 0.930 . S
H1718 C1715 0.929 . S
S1719 N1720 1.613 . S
S1719 N1721 1.610 . S
N1720 S1719 1.613 . S
N1720 C1723 1.350 . S
N1721 S1719 1.610 . S
N1721 C1722 1.351 . S
C1722 C1716 1.428 . S
C1722 N1721 1.351 . S
C1722 C1723 1.434 . S
C1723 C1714 1.429 . S
C1723 N1720 1.350 . S
C1723 C1722 1.434 . S
C1724 C1725 1.369 . S
C1724 C1726 1.419 . S
C1724 H1728 0.930 . S
C1725 C1724 1.369 . S
C1725 C1734 1.429 . S
C1726 C1724 1.419 . S
C1726 C1727 1.363 . S
C1726 H1729 0.929 . S
C1727 C1726 1.363 . S
C1727 C1733 1.428 . S
H1728 C1724 0.930 . S
H1729 C1726 0.929 . S
S1730 N1731 1.613 . S
S1730 N1732 1.610 . S
N1731 S1730 1.613 . S
N1731 C1734 1.350 . S
N1732 S1730 1.610 . S
N1732 C1733 1.351 . S
C1733 C1727 1.428 . S
C1733 N1732 1.351 . S
C1733 C1734 1.434 . S
C1734 C1725 1.429 . S
C1734 N1731 1.350 . S
C1734 C1733 1.434 . S
C1735 C1736 1.369 . S
C1735 C1737 1.419 . S
C1735 H1739 0.930 . S
C1736 C1735 1.369 . S
C1736 C1745 1.429 . S
C1737 C1735 1.419 . S
C1737 C1738 1.363 . S
C1737 H1740 0.929 . S
C1738 C1737 1.363 . S
C1738 C1744 1.428 . S
H1739 C1735 0.930 . S
H1740 C1737 0.929 . S
S1741 N1742 1.613 . S
S1741 N1743 1.610 . S
N1742 S1741 1.613 . S
N1742 C1745 1.350 . S
N1743 S1741 1.610 . S
N1743 C1744 1.351 . S
C1744 C1738 1.428 . S
C1744 N1743 1.351 . S
C1744 C1745 1.434 . S
C1745 C1736 1.429 . S
C1745 N1742 1.350 . S
C1745 C1744 1.434 . S
C1746 C1747 1.369 . S
C1746 C1748 1.419 . S
C1746 H1750 0.930 . S
C1747 C1746 1.369 . S
C1747 C1756 1.429 . S
C1748 C1746 1.419 . S
C1748 C1749 1.363 . S
C1748 H1751 0.929 . S
C1749 C1748 1.363 . S
C1749 C1755 1.428 . S
H1750 C1746 0.930 . S
H1751 C1748 0.929 . S
S1752 N1753 1.613 . S
S1752 N1754 1.610 . S
N1753 S1752 1.613 . S
N1753 C1756 1.350 . S
N1754 S1752 1.610 . S
N1754 C1755 1.351 . S
C1755 C1749 1.428 . S
C1755 N1754 1.351 . S
C1755 C1756 1.434 . S
C1756 C1747 1.429 . S
C1756 N1753 1.350 . S
C1756 C1755 1.434 . S
C1757 C1758 1.369 . S
C1757 C1759 1.419 . S
C1757 H1761 0.930 . S
C1758 C1757 1.369 . S
C1758 C1767 1.429 . S
C1759 C1757 1.419 . S
C1759 C1760 1.363 . S
C1759 H1762 0.929 . S
C1760 C1759 1.363 . S
C1760 C1766 1.428 . S
H1761 C1757 0.930 . S
H1762 C1759 0.929 . S
S1763 N1764 1.613 1_556 S
S1763 N1765 1.610 . S
N1764 S1763 1.613 1_554 S
N1764 C1767 1.350 . S
N1765 S1763 1.610 . S
N1765 C1766 1.351 1_556 S
C1766 C1760 1.428 . S
C1766 N1765 1.351 1_554 S
C1766 C1767 1.434 . S
C1767 C1758 1.429 . S
C1767 N1764 1.350 . S
C1767 C1766 1.434 . S
C1768 C1769 1.369 . S
C1768 C1770 1.419 . S
C1768 H1772 0.930 1_455 S
C1769 C1768 1.369 . S
C1769 C1778 1.429 . S
C1770 C1768 1.419 . S
C1770 C1771 1.363 . S
C1770 H1773 0.929 . S
C1771 C1770 1.363 . S
C1771 C1777 1.428 . S
H1772 C1768 0.930 1_655 S
H1773 C1770 0.929 . S
S1774 N1775 1.613 . S
S1774 N1776 1.610 . S
N1775 S1774 1.613 . S
N1775 C1778 1.350 . S
N1776 S1774 1.610 . S
N1776 C1777 1.351 . S
C1777 C1771 1.428 . S
C1777 N1776 1.351 . S
C1777 C1778 1.434 . S
C1778 C1769 1.429 . S
C1778 N1775 1.350 . S
C1778 C1777 1.434 . S
C1779 C1780 1.369 . S
C1779 C1781 1.419 . S
C1779 H1783 0.930 . S
C1780 C1779 1.369 . S
C1780 C1789 1.429 . S
C1781 C1779 1.419 . S
C1781 C1782 1.363 . S
C1781 H1784 0.929 . S
C1782 C1781 1.363 . S
C1782 C1788 1.428 . S
H1783 C1779 0.930 . S
H1784 C1781 0.929 . S
S1785 N1786 1.613 . S
S1785 N1787 1.610 . S
N1786 S1785 1.613 . S
N1786 C1789 1.350 . S
N1787 S1785 1.610 . S
N1787 C1788 1.351 . S
C1788 C1782 1.428 . S
C1788 N1787 1.351 . S
C1788 C1789 1.434 . S
C1789 C1780 1.429 . S
C1789 N1786 1.350 . S
C1789 C1788 1.434 . S
C1790 C1791 1.369 1_565 S
C1790 C1792 1.419 1_565 S
C1790 H1794 0.930 . S
C1791 C1790 1.369 1_545 S
C1791 C1800 1.429 . S
C1792 C1790 1.419 1_545 S
C1792 C1793 1.363 . S
C1792 H1795 0.929 . S
C1793 C1792 1.363 . S
C1793 C1799 1.428 . S
H1794 C1790 0.930 . S
H1795 C1792 0.929 . S
S1796 N1797 1.613 . S
S1796 N1798 1.610 . S
N1797 S1796 1.613 . S
N1797 C1800 1.350 . S
N1798 S1796 1.610 . S
N1798 C1799 1.351 . S
C1799 C1793 1.428 . S
C1799 N1798 1.351 . S
C1799 C1800 1.434 . S
C1800 C1791 1.429 . S
C1800 N1797 1.350 . S
C1800 C1799 1.434 . S
C1801 C1802 1.369 1_455 S
C1801 C1803 1.419 1_455 S
C1801 H1805 0.930 . S
C1802 C1801 1.369 1_655 S
C1802 C1811 1.429 . S
C1803 C1801 1.419 1_655 S
C1803 C1804 1.363 . S
C1803 H1806 0.929 . S
C1804 C1803 1.363 . S
C1804 C1810 1.428 . S
H1805 C1801 0.930 . S
H1806 C1803 0.929 . S
S1807 N1808 1.613 . S
S1807 N1809 1.610 . S
N1808 S1807 1.613 . S
N1808 C1811 1.350 . S
N1809 S1807 1.610 . S
N1809 C1810 1.351 . S
C1810 C1804 1.428 . S
C1810 N1809 1.351 . S
C1810 C1811 1.434 . S
C1811 C1802 1.429 . S
C1811 N1808 1.350 . S
C1811 C1810 1.434 . S
C1812 C1813 1.369 . S
C1812 C1814 1.419 . S
C1812 H1816 0.930 . S
C1813 C1812 1.369 . S
C1813 C1822 1.429 . S
C1814 C1812 1.419 . S
C1814 C1815 1.363 . S
C1814 H1817 0.929 . S
C1815 C1814 1.363 . S
C1815 C1821 1.428 . S
H1816 C1812 0.930 . S
H1817 C1814 0.929 . S
S1818 N1819 1.613 . S
S1818 N1820 1.610 . S
N1819 S1818 1.613 . S
N1819 C1822 1.350 . S
N1820 S1818 1.610 . S
N1820 C1821 1.351 . S
C1821 C1815 1.428 . S
C1821 N1820 1.351 . S
C1821 C1822 1.434 . S
C1822 C1813 1.429 . S
C1822 N1819 1.350 . S
C1822 C1821 1.434 . S
C1823 C1824 1.369 . S
C1823 C1825 1.419 . S
C1823 H1827 0.930 1_545 S
C1824 C1823 1.369 . S
C1824 C1833 1.429 . S
C1825 C1823 1.419 . S
C1825 C1826 1.363 . S
C1825 H1828 0.929 . S
C1826 C1825 1.363 . S
C1826 C1832 1.428 . S
H1827 C1823 0.930 1_565 S
H1828 C1825 0.929 . S
S1829 N1830 1.613 . S
S1829 N1831 1.610 . S
N1830 S1829 1.613 . S
N1830 C1833 1.350 . S
N1831 S1829 1.610 . S
N1831 C1832 1.351 . S
C1832 C1826 1.428 . S
C1832 N1831 1.351 . S
C1832 C1833 1.434 . S
C1833 C1824 1.429 . S
C1833 N1830 1.350 . S
C1833 C1832 1.434 . S
C1834 C1835 1.369 . S
C1834 C1836 1.419 . S
C1834 H1838 0.930 . S
C1835 C1834 1.369 . S
C1835 C1844 1.429 . S
C1836 C1834 1.419 . S
C1836 C1837 1.363 . S
C1836 H1839 0.929 1_655 S
C1837 C1836 1.363 . S
C1837 C1843 1.428 . S
H1838 C1834 0.930 . S
H1839 C1836 0.929 1_455 S
S1840 N1841 1.613 1_554 S
S1840 N1842 1.610 . S
N1841 S1840 1.613 1_556 S
N1841 C1844 1.350 . S
N1842 S1840 1.610 . S
N1842 C1843 1.351 1_554 S
C1843 C1837 1.428 . S
C1843 N1842 1.351 1_556 S
C1843 C1844 1.434 . S
C1844 C1835 1.429 . S
C1844 N1841 1.350 . S
C1844 C1843 1.434 . S
C1845 C1846 1.369 . S
C1845 C1847 1.419 . S
C1845 H1849 0.930 . S
C1846 C1845 1.369 . S
C1846 C1855 1.429 . S
C1847 C1845 1.419 . S
C1847 C1848 1.363 . S
C1847 H1850 0.929 . S
C1848 C1847 1.363 . S
C1848 C1854 1.428 . S
H1849 C1845 0.930 . S
H1850 C1847 0.929 . S
S1851 N1852 1.613 . S
S1851 N1853 1.610 . S
N1852 S1851 1.613 . S
N1852 C1855 1.350 . S
N1853 S1851 1.610 . S
N1853 C1854 1.351 . S
C1854 C1848 1.428 . S
C1854 N1853 1.351 . S
C1854 C1855 1.434 . S
C1855 C1846 1.429 . S
C1855 N1852 1.350 . S
C1855 C1854 1.434 . S
C1856 C1857 1.369 . S
C1856 C1858 1.419 . S
C1856 H1860 0.930 . S
C1857 C1856 1.369 . S
C1857 C1866 1.429 . S
C1858 C1856 1.419 . S
C1858 C1859 1.363 . S
C1858 H1861 0.929 . S
C1859 C1858 1.363 . S
C1859 C1865 1.428 . S
H1860 C1856 0.930 . S
H1861 C1858 0.929 . S
S1862 N1863 1.613 . S
S1862 N1864 1.610 . S
N1863 S1862 1.613 . S
N1863 C1866 1.350 . S
N1864 S1862 1.610 . S
N1864 C1865 1.351 . S
C1865 C1859 1.428 . S
C1865 N1864 1.351 . S
C1865 C1866 1.434 . S
C1866 C1857 1.429 . S
C1866 N1863 1.350 . S
C1866 C1865 1.434 . S
C1867 C1868 1.369 . S
C1867 C1869 1.419 1_455 S
C1867 H1871 0.930 . S
C1868 C1867 1.369 . S
C1868 C1877 1.429 . S
C1869 C1867 1.419 1_655 S
C1869 C1870 1.339 1_655 S
C1869 H1872 0.955 . S
C1870 C1869 1.339 1_455 S
C1870 C1876 1.428 . S
H1871 C1867 0.930 . S
H1872 C1869 0.955 . S
S1873 N1874 1.613 . S
S1873 N1875 1.610 . S
N1874 S1873 1.613 . S
N1874 C1877 1.350 . S
N1875 S1873 1.610 . S
N1875 C1876 1.351 . S
C1876 C1870 1.428 . S
C1876 N1875 1.351 . S
C1876 C1877 1.434 . S
C1877 C1868 1.429 . S
C1877 N1874 1.350 . S
C1877 C1876 1.434 . S
C1878 C1879 1.369 . S
C1878 C1880 1.419 1_655 S
C1878 H1882 0.930 . S
C1879 C1878 1.369 . S
C1879 C1888 1.429 . S
C1880 C1878 1.419 1_455 S
C1880 C1881 1.363 . S
C1880 H1883 0.929 . S
C1881 C1880 1.363 . S
C1881 C1887 1.428 . S
H1882 C1878 0.930 . S
H1883 C1880 0.929 . S
S1884 N1885 1.613 1_455 S
S1884 N1886 1.610 . S
N1885 S1884 1.613 1_655 S
N1885 C1888 1.350 . S
N1886 S1884 1.610 . S
N1886 C1887 1.351 . S
C1887 C1881 1.428 . S
C1887 N1886 1.351 . S
C1887 C1888 1.434 1_455 S
C1888 C1879 1.429 . S
C1888 N1885 1.350 . S
C1888 C1887 1.434 1_655 S
C1889 C1890 1.369 . S
C1889 C1891 1.419 . S
C1889 H1893 0.930 . S
C1890 C1889 1.369 . S
C1890 C1899 1.429 . S
C1891 C1889 1.419 . S
C1891 C1892 1.363 . S
C1891 H1894 0.929 . S
C1892 C1891 1.363 . S
C1892 C1898 1.428 . S
H1893 C1889 0.930 . S
H1894 C1891 0.929 . S
S1895 N1896 1.613 . S
S1895 N1897 1.610 . S
N1896 S1895 1.613 . S
N1896 C1899 1.350 . S
N1897 S1895 1.610 . S
N1897 C1898 1.351 . S
C1898 C1892 1.428 . S
C1898 N1897 1.351 . S
C1898 C1899 1.434 . S
C1899 C1890 1.429 . S
C1899 N1896 1.350 . S
C1899 C1898 1.434 . S
C1900 C1901 1.369 . S
C1900 C1902 1.419 1_545 S
C1900 H1904 0.930 . S
C1901 C1900 1.369 . S
C1901 C1910 1.429 . S
C1902 C1900 1.419 1_565 S
C1902 C1903 1.363 . S
C1902 H1905 0.929 . S
C1903 C1902 1.363 . S
C1903 C1909 1.428 . S
H1904 C1900 0.930 . S
H1905 C1902 0.929 . S
S1906 N1907 1.613 . S
S1906 N1908 1.610 1_545 S
N1907 S1906 1.613 . S
N1907 C1910 1.350 . S
N1908 S1906 1.610 1_565 S
N1908 C1909 1.351 . S
C1909 C1903 1.428 . S
C1909 N1908 1.351 . S
C1909 C1910 1.434 1_565 S
C1910 C1901 1.429 . S
C1910 N1907 1.350 . S
C1910 C1909 1.434 1_545 S
C1911 C1912 1.369 . S
C1911 C1913 1.419 1_545 S
C1911 H1915 0.930 . S
C1912 C1911 1.369 . S
C1912 C1921 1.429 . S
C1913 C1911 1.419 1_565 S
C1913 C1914 1.363 . S
C1913 H1916 0.929 . S
C1914 C1913 1.363 . S
C1914 C1920 1.428 . S
H1915 C1911 0.930 . S
H1916 C1913 0.929 . S
S1917 N1918 1.613 . S
S1917 N1919 1.610 1_545 S
N1918 S1917 1.613 . S
N1918 C1921 1.350 . S
N1919 S1917 1.610 1_565 S
N1919 C1920 1.351 . S
C1920 C1914 1.428 . S
C1920 N1919 1.351 . S
C1920 C1921 1.434 1_565 S
C1921 C1912 1.429 . S
C1921 N1918 1.350 . S
C1921 C1920 1.434 1_545 S
C1922 C1923 1.369 . S
C1922 C1924 1.419 1_655 S
C1922 H1926 0.930 . S
C1923 C1922 1.369 . S
C1923 C1932 1.429 . S
C1924 C1922 1.419 1_455 S
C1924 C1925 1.363 . S
C1924 H1927 0.929 . S
C1925 C1924 1.363 . S
C1925 C1931 1.428 . S
H1926 C1922 0.930 . S
H1927 C1924 0.929 . S
S1928 N1929 1.613 . S
S1928 N1930 1.610 1_655 S
N1929 S1928 1.613 . S
N1929 C1932 1.350 . S
N1930 S1928 1.610 1_455 S
N1930 C1931 1.351 . S
C1931 C1925 1.428 . S
C1931 N1930 1.351 . S
C1931 C1932 1.434 1_455 S
C1932 C1923 1.429 . S
C1932 N1929 1.350 . S
C1932 C1931 1.434 1_655 S
C1933 C1934 1.369 . S
C1933 C1935 1.419 . S
C1933 H1937 0.930 . S
C1934 C1933 1.369 . S
C1934 C1943 1.429 . S
C1935 C1933 1.419 . S
C1935 C1936 1.363 . S
C1935 H1938 0.929 . S
C1936 C1935 1.363 . S
C1936 C1942 1.428 . S
H1937 C1933 0.930 . S
H1938 C1935 0.929 . S
S1939 N1940 1.613 . S
S1939 N1941 1.610 . S
N1940 S1939 1.613 . S
N1940 C1943 1.350 . S
N1941 S1939 1.610 . S
N1941 C1942 1.351 . S
C1942 C1936 1.428 . S
C1942 N1941 1.351 . S
C1942 C1943 1.434 . S
C1943 C1934 1.429 . S
C1943 N1940 1.350 . S
C1943 C1942 1.434 . S
C757 C16 1.036 . S
C759 C154 1.116 . S
C768 C172 1.116 . S
C770 C37 1.034 . S
C779 C130 1.119 . S
C781 C58 1.046 . S
C790 C238 1.111 . S
C792 C66 1.043 . S
C801 C87 1.036 . S
C803 C193 1.116 . S
C812 C108 1.038 . S
C814 C214 1.106 . S
C823 C25 1.101 . S
C825 C142 1.028 . S
C834 C150 1.040 . S
C836 C46 1.108 . S
C845 C4 1.110 . S
C847 C184 1.030 . S
C856 C112 1.110 . S
C858 C205 1.041 . S
C867 C226 1.047 . S
C869 C70 1.114 . S
C878 C234 1.039 . S
C880 C91 1.108 . S
C889 C268 1.025 . S
C891 C403 1.104 . S
C900 C424 1.121 . S
C902 C289 1.043 . S
C911 C382 1.110 . S
C913 C297 1.042 . S
C922 C318 1.036 . S
C924 C490 1.105 . S
C933 C448 1.106 . S
C935 C339 1.028 . S
C944 C360 1.025 . S
C946 C466 1.105 . S
C955 C394 1.048 . S
C957 C277 1.115 . S
C966 C301 1.121 . S
C968 C415 1.044 . S
C977 C436 1.042 . S
C979 C256 1.110 . S
C988 C364 1.103 . S
C990 C444 1.033 . S
C999 C322 1.109 . S
C1001 C478 1.040 . S
C1010 C486 1.034 . S
C1012 C343 1.114 . S
C1021 C507 1.039 . S
C1023 C658 1.107 . S
C1032 C541 1.048 . S
C1034 C676 1.117 . S
C1043 C634 1.104 . S
C1045 C562 1.037 . S
C1054 C742 1.115 . S
C1056 C570 1.045 . S
C1065 C591 1.028 . S
C1067 C697 1.111 . S
C1076 C721 1.103 . S
C1078 C612 1.035 . S
C1087 C529 1.104 . S
C1089 C646 1.035 . S
C1098 C654 1.048 . S
C1100 C550 1.117 . S
C1109 C511 1.111 . S
C1111 C688 1.031 . S
C1120 C709 1.033 . S
C1122 C616 1.114 . S
C1131 C717 1.047 . S
C1133 C574 1.114 . S
C1142 C738 1.044 . S
C1144 C595 1.112 . S
C1153 C7 1.380 . S
C1155 C385 1.367 . S
C1164 C28 1.379 . S
C1166 C406 1.367 . S
C1175 C427 1.371 . S
C1177 C49 1.373 . S
C1186 C700 1.370 . S
C1188 C67 1.375 . S
C1197 C718 1.366 . S
C1199 C88 1.377 . S
C1208 C739 1.368 . S
C1210 C109 1.376 . S
C1219 C133 1.365 . S
C1221 C508 1.378 . S
C1230 C532 1.374 . S
C1232 C151 1.371 . S
C1241 C175 1.381 . S
C1243 C553 1.366 . S
C1252 C196 1.375 . S
C1254 C319 1.371 . S
C1263 C217 1.367 . S
C1265 C340 1.377 . S
C1274 C235 1.380 . S
C1276 C361 1.367 . S
C1285 C259 1.374 . S
C1287 C637 1.371 . S
C1296 C655 1.380 . S
C1298 C280 1.368 . S
C1307 C298 1.366 . S
C1309 C679 1.377 . S
C1318 C571 1.364 . S
C1320 C445 1.379 . S
C1329 C469 1.366 . S
C1331 C592 1.378 . S
C1340 C613 1.380 . S
C1342 C487 1.367 . S
C1351 C19 1.554 . S
C1353 C356 1.553 . S
C1362 C40 1.543 . S
C1364 C377 1.544 . S
C1373 C335 1.548 . S
C1375 C61 1.548 . S
C1384 C83 1.546 . S
C1386 C565 1.546 . S
C1395 C524 1.543 . S
C1397 C104 1.544 . S
C1406 C125 1.546 . S
C1408 C544 1.547 . S
C1417 C734 1.552 . S
C1419 C145 1.552 . S
C1428 C167 1.551 . S
C1430 C755 1.552 . S
C1439 C712 1.551 . S
C1441 C187 1.549 . S
C1450 C208 1.544 . S
C1452 C439 1.545 . S
C1461 C229 1.548 . S
C1463 C397 1.547 . S
C1472 C251 1.547 . S
C1474 C418 1.547 . S
C1483 C608 1.542 . S
C1485 C271 1.544 . S
C1494 C292 1.549 . S
C1496 C629 1.549 . S
C1505 C314 1.548 . S
C1507 C587 1.549 . S
C1516 C691 1.544 . S
C1518 C461 1.544 . S
C1527 C649 1.552 . S
C1529 C481 1.552 . S
C1538 C671 1.543 . S
C1540 C503 1.545 . S
C1549 C79 1.366 . S
C1551 C3 1.368 . S
C1560 C24 1.362 . S
C1562 C100 1.375 . S
C1571 C45 1.376 . S
C1573 C121 1.365 . S
C1582 C192 1.376 . S
C1584 C129 1.366 . S
C1593 C163 1.368 . S
C1595 C213 1.366 . S
C1604 C247 1.362 . S
C1606 C171 1.375 . S
C1615 C331 1.375 . S
C1617 C255 1.367 . S
C1626 C276 1.374 . S
C1628 C352 1.363 . S
C1637 C310 1.362 . S
C1639 C373 1.375 . S
C1648 C381 1.366 . S
C1650 C457 1.367 1_554 S
C1659 C402 1.376 . S
C1661 C465 1.363 1_554 S
C1670 C423 1.361 . S
C1672 C499 1.374 1_554 S
C1681 C520 1.376 . S
C1683 C583 1.365 1_556 S
C1692 C604 1.364 1_556 S
C1694 C528 1.375 . S
C1703 C625 1.362 1_556 S
C1705 C549 1.375 . S
C1714 C633 1.369 . S
C1716 C696 1.373 . S
C1725 C730 1.376 . S
C1727 C667 1.363 . S
C1736 C675 1.369 . S
C1738 C751 1.373 . S
C1747 C20 1.265 . S
C1749 C628 1.270 . S
C1758 C586 1.258 . S
C1760 C41 1.267 . S
C1769 C62 1.257 . S
C1771 C607 1.260 . S
C1780 C293 1.257 . S
C1782 C82 1.261 . S
C1791 C103 1.262 . S
C1793 C313 1.258 . S
C1802 C124 1.259 . S
C1804 C272 1.259 . S
C1813 C502 1.266 . S
C1815 C146 1.259 . S
C1824 C166 1.260 . S
C1826 C460 1.258 . S
C1835 C482 1.260 . S
C1837 C188 1.268 . S
C1846 C209 1.261 . S
C1848 C670 1.269 . S
C1857 C692 1.267 . S
C1859 C230 1.259 . S
C1868 C650 1.256 . S
C1870 C250 1.264 . S
C1879 C334 1.265 . S
C1881 C545 1.258 . S
C1890 C355 1.270 . S
C1892 C566 1.268 . S
C1901 C376 1.256 . S
C1903 C523 1.263 . S
C1912 C398 1.266 . S
C1914 C754 1.270 . S
C1923 C419 1.256 . S
C1925 C713 1.261 . S
C1934 C733 1.263 . S
C1936 C440 1.258 . S
