# Generated by pormake.
# Topology yfc, (5)-cn, num edge types: 1
# Building blocks:
#     Node 0, Type 0, BuildingBlock: XOMCOT_clean_sbu_1, # of connection points: 5
#     Node 1, Type 0, BuildingBlock: XOMCOT_clean_sbu_1, # of connection points: 5
#     Node 2, Type 0, BuildingBlock: XOMCOT_clean_sbu_1, # of connection points: 5
#     Node 3, Type 0, BuildingBlock: XOMCOT_clean_sbu_1, # of connection points: 5
#     Node 4, Type 0, BuildingBlock: XOMCOT_clean_sbu_1, # of connection points: 5
#     Node 5, Type 0, BuildingBlock: XOMCOT_clean_sbu_1, # of connection points: 5
#     Node 6, Type 0, BuildingBlock: XOMCOT_clean_sbu_1, # of connection points: 5
#     Node 7, Type 0, BuildingBlock: XOMCOT_clean_sbu_1, # of connection points: 5
#     Node 8, Type 0, BuildingBlock: XOMCOT_clean_sbu_1, # of connection points: 5
#     Node 9, Type 0, BuildingBlock: XOMCOT_clean_sbu_1, # of connection points: 5
#     Node 10, Type 0, BuildingBlock: XOMCOT_clean_sbu_1, # of connection points: 5
#     Node 11, Type 0, BuildingBlock: XOMCOT_clean_sbu_1, # of connection points: 5
#     Node 12, Type 0, BuildingBlock: XOMCOT_clean_sbu_1, # of connection points: 5
#     Node 13, Type 0, BuildingBlock: XOMCOT_clean_sbu_1, # of connection points: 5
#     Node 14, Type 0, BuildingBlock: XOMCOT_clean_sbu_1, # of connection points: 5
#     Node 15, Type 0, BuildingBlock: XOMCOT_clean_sbu_1, # of connection points: 5
#     Edge 16, Type (0, 0), BuildingBlock: OJICUG_clean_linker_0, # of connection points: 2
#     Edge 17, Type (0, 0), BuildingBlock: OJICUG_clean_linker_0, # of connection points: 2
#     Edge 18, Type (0, 0), BuildingBlock: OJICUG_clean_linker_0, # of connection points: 2
#     Edge 19, Type (0, 0), BuildingBlock: OJICUG_clean_linker_0, # of connection points: 2
#     Edge 20, Type (0, 0), BuildingBlock: OJICUG_clean_linker_0, # of connection points: 2
#     Edge 21, Type (0, 0), BuildingBlock: OJICUG_clean_linker_0, # of connection points: 2
#     Edge 22, Type (0, 0), BuildingBlock: OJICUG_clean_linker_0, # of connection points: 2
#     Edge 23, Type (0, 0), BuildingBlock: OJICUG_clean_linker_0, # of connection points: 2
#     Edge 24, Type (0, 0), BuildingBlock: OJICUG_clean_linker_0, # of connection points: 2
#     Edge 25, Type (0, 0), BuildingBlock: OJICUG_clean_linker_0, # of connection points: 2
#     Edge 26, Type (0, 0), BuildingBlock: OJICUG_clean_linker_0, # of connection points: 2
#     Edge 27, Type (0, 0), BuildingBlock: OJICUG_clean_linker_0, # of connection points: 2
#     Edge 28, Type (0, 0), BuildingBlock: OJICUG_clean_linker_0, # of connection points: 2
#     Edge 29, Type (0, 0), BuildingBlock: OJICUG_clean_linker_0, # of connection points: 2
#     Edge 30, Type (0, 0), BuildingBlock: OJICUG_clean_linker_0, # of connection points: 2
#     Edge 31, Type (0, 0), BuildingBlock: OJICUG_clean_linker_0, # of connection points: 2
#     Edge 32, Type (0, 0), BuildingBlock: OJICUG_clean_linker_0, # of connection points: 2
#     Edge 33, Type (0, 0), BuildingBlock: OJICUG_clean_linker_0, # of connection points: 2
#     Edge 34, Type (0, 0), BuildingBlock: OJICUG_clean_linker_0, # of connection points: 2
#     Edge 35, Type (0, 0), BuildingBlock: OJICUG_clean_linker_0, # of connection points: 2
#     Edge 36, Type (0, 0), BuildingBlock: OJICUG_clean_linker_0, # of connection points: 2
#     Edge 37, Type (0, 0), BuildingBlock: OJICUG_clean_linker_0, # of connection points: 2
#     Edge 38, Type (0, 0), BuildingBlock: OJICUG_clean_linker_0, # of connection points: 2
#     Edge 39, Type (0, 0), BuildingBlock: OJICUG_clean_linker_0, # of connection points: 2
#     Edge 40, Type (0, 0), BuildingBlock: OJICUG_clean_linker_0, # of connection points: 2
#     Edge 41, Type (0, 0), BuildingBlock: OJICUG_clean_linker_0, # of connection points: 2
#     Edge 42, Type (0, 0), BuildingBlock: OJICUG_clean_linker_0, # of connection points: 2
#     Edge 43, Type (0, 0), BuildingBlock: OJICUG_clean_linker_0, # of connection points: 2
#     Edge 44, Type (0, 0), BuildingBlock: OJICUG_clean_linker_0, # of connection points: 2
#     Edge 45, Type (0, 0), BuildingBlock: OJICUG_clean_linker_0, # of connection points: 2
#     Edge 46, Type (0, 0), BuildingBlock: OJICUG_clean_linker_0, # of connection points: 2
#     Edge 47, Type (0, 0), BuildingBlock: OJICUG_clean_linker_0, # of connection points: 2
#     Edge 48, Type (0, 0), BuildingBlock: OJICUG_clean_linker_0, # of connection points: 2
#     Edge 49, Type (0, 0), BuildingBlock: OJICUG_clean_linker_0, # of connection points: 2
#     Edge 50, Type (0, 0), BuildingBlock: OJICUG_clean_linker_0, # of connection points: 2
#     Edge 51, Type (0, 0), BuildingBlock: OJICUG_clean_linker_0, # of connection points: 2
#     Edge 52, Type (0, 0), BuildingBlock: OJICUG_clean_linker_0, # of connection points: 2
#     Edge 53, Type (0, 0), BuildingBlock: OJICUG_clean_linker_0, # of connection points: 2
#     Edge 54, Type (0, 0), BuildingBlock: OJICUG_clean_linker_0, # of connection points: 2
#     Edge 55, Type (0, 0), BuildingBlock: OJICUG_clean_linker_0, # of connection points: 2
# Relax obj value: 0.653
# Max RMSD: 0.269
# Mean RMSD: 0.269
data_MOF--net-yfc--node1-XOMCOT_clean_sbu_1--edge1-OJICUG_clean_linker_0
_symmetry_space_group_name_H-M    P1
_symmetry_Int_Tables_number       1
_symmetry_cell_setting            triclinic
loop_
_symmetry_equiv_pos_as_xyz
'x, y, z'
_cell_length_a     31.376726
_cell_length_b     31.127192
_cell_length_c     34.726146
_cell_angle_alpha  89.997455
_cell_angle_beta   90.175339
_cell_angle_gamma 89.86035
loop_
_atom_site_label
_atom_site_type_symbol
_atom_site_fract_x
_atom_site_fract_y
_atom_site_fract_z
_atom_type_partial_charge
C0 C 0.72571 0.95559 0.16318 0.0
C1 C 0.70632 0.92196 0.1821 0.0
N2 N 0.68717 0.93723 0.21406 0.0
N3 N 0.71897 0.9922 0.18293 0.0
C4 C 0.69489 0.98005 0.21355 0.0
H5 H 0.74543 0.95303 0.1378 0.0
Co6 Co 0.74672 0.0454 0.17501 0.0
C7 C 0.65979 0.082 0.17179 0.0
O8 O 0.64857 0.06092 0.14062 0.0
N9 N 0.77366 0.09999 0.16789 0.0
C10 C 0.81945 0.15418 0.17398 0.0
C11 C 0.8141 0.11028 0.17715 0.0
C12 C 0.7555 0.13826 0.15818 0.0
N13 N 0.78235 0.17215 0.16232 0.0
O14 O 0.73294 0.04426 0.12115 0.0
H15 H 0.83754 0.08761 0.18777 0.0
H16 H 0.72269 0.1413 0.14916 0.0
O17 O 0.69586 0.07522 0.18754 0.0
C18 C 0.76578 0.03594 0.10077 0.0
O19 O 0.8021 0.02833 0.11848 0.0
N20 N 0.7644 0.04484 0.2263 0.0
C21 C 0.81833 0.05126 0.28935 0.0
C22 C 0.78627 0.08217 0.2831 0.0
C23 C 0.75938 0.07824 0.25123 0.0
C24 C 0.79139 1.01181 0.23486 0.0
C25 C 0.81774 1.01373 0.26707 0.0
H26 H 0.73853 0.10454 0.24419 0.0
H27 H 0.7955 0.98571 0.21466 0.0
H28 H 0.68585 1.00174 0.23649 0.0
H29 H 0.70731 0.88856 0.17348 0.0
H30 H 0.84806 0.17152 0.18173 0.0
H31 H 0.78543 0.11184 0.29938 0.0
H32 H 0.84124 0.98863 0.27142 0.0
C33 C 0.56031 0.73774 0.66902 0.0
C34 C 0.5957 0.71863 0.68532 0.0
N35 N 0.58417 0.68045 0.70018 0.0
N36 N 0.52574 0.71266 0.67414 0.0
C37 C 0.54222 0.67693 0.69149 0.0
H38 H 0.55927 0.76971 0.65688 0.0
Co39 Co 0.46896 0.73526 0.6655 0.0
C40 C 0.44218 0.64918 0.69463 0.0
O41 O 0.46013 0.65657 0.72823 0.0
N42 N 0.41359 0.75912 0.65686 0.0
C43 C 0.3614 0.80773 0.65841 0.0
C44 C 0.40467 0.8011 0.66189 0.0
C45 C 0.37493 0.74097 0.64994 0.0
N46 N 0.34231 0.76979 0.65103 0.0
O47 O 0.47621 0.7293 0.61098 0.0
H48 H 0.42805 0.82514 0.66952 0.0
H49 H 0.37062 0.70716 0.64524 0.0
O50 O 0.44363 0.67767 0.66818 0.0
C51 C 0.485 0.76487 0.59441 0.0
O52 O 0.49035 0.79921 0.61587 0.0
N53 N 0.46223 0.74644 0.71836 0.0
C54 C 0.4397 0.79515 0.78231 0.0
C55 C 0.41463 0.76013 0.77082 0.0
C56 C 0.42552 0.73735 0.7378 0.0
C57 C 0.48955 0.77681 0.73226 0.0
C58 C 0.47905 0.80143 0.7644 0.0
H59 H 0.40211 0.71576 0.72579 0.0
H60 H 0.51688 0.78636 0.7157 0.0
H61 H 0.52447 0.64884 0.69879 0.0
H62 H 0.62704 0.73285 0.68761 0.0
H63 H 0.34525 0.83805 0.66289 0.0
H64 H 0.38405 0.75399 0.78415 0.0
H65 H 0.49901 0.82855 0.77183 0.0
C66 C 0.80169 0.57048 0.15584 0.0
C67 C 0.8213 0.60456 0.17403 0.0
N68 N 0.84066 0.59008 0.20629 0.0
N69 N 0.80852 0.53438 0.17637 0.0
C70 C 0.83292 0.54728 0.20665 0.0
H71 H 0.78164 0.57243 0.13052 0.0
Co72 Co 0.78021 0.48119 0.17023 0.0
C73 C 0.86693 0.44406 0.16718 0.0
O74 O 0.87796 0.46417 0.13551 0.0
N75 N 0.75278 0.42655 0.16492 0.0
C76 C 0.70718 0.37258 0.17317 0.0
C77 C 0.71269 0.41654 0.17538 0.0
C78 C 0.77052 0.38804 0.15544 0.0
N79 N 0.74381 0.35429 0.16093 0.0
O80 O 0.79271 0.48042 0.11624 0.0
H81 H 0.68968 0.43949 0.18614 0.0
H82 H 0.80297 0.38476 0.14565 0.0
O83 O 0.83107 0.45146 0.18287 0.0
C84 C 0.75917 0.48818 0.09646 0.0
O85 O 0.72356 0.49665 0.11484 0.0
N86 N 0.76376 0.48361 0.22168 0.0
C87 C 0.71126 0.47999 0.28553 0.0
C88 C 0.74282 0.44848 0.27973 0.0
C89 C 0.76905 0.45102 0.24745 0.0
C90 C 0.73749 0.51732 0.22978 0.0
C91 C 0.71202 0.51689 0.26244 0.0
H92 H 0.78946 0.42425 0.24083 0.0
H93 H 0.7332 0.54281 0.20897 0.0
H94 H 0.84199 0.52621 0.2301 0.0
H95 H 0.82017 0.63775 0.16479 0.0
H96 H 0.67887 0.35547 0.18198 0.0
H97 H 0.74361 0.4193 0.29671 0.0
H98 H 0.689 0.54248 0.26647 0.0
C99 C 0.94905 0.81197 0.64819 0.0
C100 C 0.91694 0.83487 0.66597 0.0
N101 N 0.93362 0.85655 0.69605 0.0
N102 N 0.9861 0.81887 0.66688 0.0
C103 C 0.97568 0.84652 0.69576 0.0
H104 H 0.94508 0.78966 0.62459 0.0
Co105 Co 0.03719 0.78704 0.66051 0.0
C106 C 0.07285 0.876 0.65767 0.0
O107 O 0.04438 0.89222 0.63393 0.0
N108 N 0.08923 0.75562 0.65533 0.0
C109 C 0.13985 0.70668 0.66571 0.0
C110 C 0.09679 0.71539 0.66797 0.0
C111 C 0.1282 0.77011 0.64441 0.0
N112 N 0.16006 0.74136 0.65122 0.0
O113 O 0.03648 0.79613 0.60602 0.0
H114 H 0.07288 0.69452 0.68021 0.0
H115 H 0.1331 0.80188 0.63278 0.0
O116 O 0.07022 0.83723 0.66879 0.0
C117 C 0.02632 0.76175 0.5881 0.0
O118 O 0.01547 0.72787 0.60839 0.0
N119 N 0.03651 0.77417 0.71241 0.0
C120 C 0.0459 0.72645 0.779 0.0
C121 C 0.07223 0.76214 0.77208 0.0
C122 C 0.06726 0.78552 0.7382 0.0
C123 C 1.0071 0.74359 0.72109 0.0
C124 C 0.0111 0.71925 0.75454 0.0
H125 H 0.09091 0.80933 0.73105 0.0
H126 H 0.98322 0.73495 0.69996 0.0
H127 H 0.9979 0.85648 0.71792 0.0
H128 H 0.88349 0.83424 0.65826 0.0
H129 H 0.15501 0.67763 0.67601 0.0
H130 H 0.09983 0.76859 0.78996 0.0
H131 H 0.99011 0.69212 0.75897 0.0
C132 C 0.71057 0.56319 0.86668 0.0
C133 C 0.68963 0.59571 0.84737 0.0
N134 N 0.67264 0.57967 0.81467 0.0
N135 N 0.70691 0.52639 0.84656 0.0
C136 C 0.6832 0.53737 0.81516 0.0
H137 H 0.72905 0.56675 0.89281 0.0
Co138 Co 0.73745 0.47486 0.85612 0.0
C139 C 0.67677 0.40384 0.83689 0.0
O140 O 0.70734 0.3772 0.82711 0.0
N141 N 0.76895 0.42284 0.86583 0.0
C142 C 0.81449 0.36856 0.85806 0.0
C143 C 0.8057 0.4107 0.8489 0.0
C144 C 0.75795 0.38822 0.88755 0.0
N145 N 0.78377 0.35372 0.88163 0.0
O146 O 0.7239 0.47736 0.90991 0.0
H147 H 0.82373 0.43012 0.829 0.0
H148 H 0.72884 0.38708 0.90414 0.0
O149 O 0.68478 0.44279 0.84591 0.0
C150 C 0.75671 0.48786 0.92965 0.0
O151 O 0.79197 0.49744 0.91122 0.0
N152 N 0.75518 0.4753 0.80472 0.0
C153 C 0.81213 0.47067 0.74399 0.0
C154 C 0.776 0.44395 0.7448 0.0
C155 C 0.74711 0.4475 0.77524 0.0
C156 C 0.78587 0.50585 0.80097 0.0
C157 C 0.81398 0.50494 0.77014 0.0
H158 H 0.72063 0.42585 0.77603 0.0
H159 H 0.79113 0.52862 0.82401 0.0
H160 H 0.67623 0.51536 0.79186 0.0
H161 H 0.68805 0.62897 0.85635 0.0
H162 H 0.83966 0.34943 0.8454 0.0
H163 H 0.77212 0.41774 0.72462 0.0
H164 H 0.83983 0.5279 0.76951 0.0
C165 C 0.96435 0.75705 0.33138 0.0
C166 C 0.92786 0.74129 0.3145 0.0
N167 N 0.92919 0.69794 0.31508 0.0
N168 N 0.98977 0.72416 0.34212 0.0
C169 C 0.96581 0.68884 0.33443 0.0
H170 H 0.97298 0.79057 0.33262 0.0
Co171 Co 0.0502 0.72816 0.35082 0.0
C172 C 0.04973 0.63932 0.31172 0.0
O173 O 0.02218 0.64713 0.28397 0.0
N174 N 0.11118 0.73037 0.35814 0.0
C175 C 0.17838 0.71072 0.34613 0.0
C176 C 0.13712 0.70785 0.33439 0.0
C177 C 0.13891 0.74818 0.38394 0.0
N178 N 0.18001 0.73585 0.37741 0.0
O179 O 0.04267 0.71248 0.40371 0.0
H180 H 0.12719 0.68973 0.30957 0.0
H181 H 0.12933 0.76933 0.4071 0.0
O182 O 0.0586 0.6685 0.33622 0.0
C183 C 0.03841 0.74786 0.42204 0.0
O184 O 0.0385 0.78375 0.40217 0.0
N185 N 0.05746 0.75034 0.30105 0.0
C186 C 0.07633 0.80519 0.24025 0.0
C187 C 0.08036 0.76055 0.23577 0.0
C188 C 0.07008 0.73334 0.26659 0.0
C189 C 0.05325 0.79364 0.30518 0.0
C190 C 0.0613 0.8215 0.275 0.0
H191 H 0.07565 0.69948 0.26322 0.0
H192 H 0.04527 0.80696 0.33291 0.0
H193 H 0.97603 0.65665 0.34117 0.0
H194 H 0.90415 0.76079 0.3001 0.0
H195 H 0.20559 0.69654 0.33176 0.0
H196 H 0.09342 0.74711 0.20955 0.0
H197 H 0.05935 0.85583 0.27996 0.0
C198 C 0.79445 0.95799 0.86168 0.0
C199 C 0.81572 0.92671 0.84109 0.0
N200 N 0.83878 0.94579 0.81324 0.0
N201 N 0.80376 0.99689 0.84698 0.0
C202 C 0.83102 0.98839 0.81751 0.0
H203 H 0.77217 0.95255 0.88486 0.0
Co204 Co 0.77681 0.04924 0.86043 0.0
C205 C 0.86611 0.08271 0.85661 0.0
O206 O 0.88438 0.05488 0.87985 0.0
N207 N 0.75068 0.10265 0.87299 0.0
C208 C 0.70549 0.15787 0.87348 0.0
C209 C 0.71 0.11448 0.86629 0.0
C210 C 0.76987 0.13924 0.88533 0.0
N211 N 0.74341 0.17378 0.88511 0.0
O212 O 0.79364 0.043 0.91325 0.0
H213 H 0.6857 0.09347 0.85476 0.0
H214 H 0.8032 0.14078 0.8931 0.0
O215 O 0.82676 0.07995 0.84849 0.0
C216 C 0.76146 0.03315 0.93388 0.0
O217 O 0.72495 0.02572 0.91647 0.0
N218 N 0.75654 0.05423 0.81026 0.0
C219 C 0.70587 0.0673 0.74556 0.0
C220 C 0.74281 0.09186 0.75136 0.0
C221 C 0.76773 0.085 0.7842 0.0
C222 C 0.72278 0.02788 0.8035 0.0
C223 C 0.69691 0.03385 0.77126 0.0
H224 H 0.79403 0.10633 0.78974 0.0
H225 H 0.71416 1.00407 0.82477 0.0
H226 H 0.84299 1.01276 0.79813 0.0
H227 H 0.81358 0.89239 0.84571 0.0
H228 H 0.67698 0.17658 0.86815 0.0
H229 H 0.75045 0.11839 0.73243 0.0
H230 H 0.66874 1.01418 0.76768 0.0
C231 C 0.56133 0.77254 0.33871 0.0
C232 C 0.59813 0.78793 0.32232 0.0
N233 N 0.59724 0.83128 0.32288 0.0
N234 N 0.5361 0.80568 0.34909 0.0
C235 C 0.56053 0.84076 0.34174 0.0
H236 H 0.55234 0.73912 0.3398 0.0
Co237 Co 0.47544 0.80204 0.35662 0.0
C238 C 0.47726 0.89146 0.31868 0.0
O239 O 0.50491 0.88352 0.29119 0.0
N240 N 0.41439 0.80011 0.36278 0.0
C241 C 0.34746 0.8204 0.35014 0.0
C242 C 0.38891 0.82365 0.3393 0.0
C243 C 0.38621 0.78127 0.38741 0.0
N244 N 0.34525 0.79396 0.38051 0.0
O245 O 0.48211 0.81664 0.40996 0.0
H246 H 0.39926 0.84255 0.31516 0.0
H247 H 0.39538 0.75904 0.40994 0.0
O248 O 0.4678 0.86215 0.34284 0.0
C249 C 0.48664 0.78107 0.42798 0.0
O250 O 0.48808 0.74553 0.40764 0.0
N251 N 0.46879 0.78094 0.30635 0.0
C252 C 0.45097 0.72765 0.24404 0.0
C253 C 0.44695 0.77239 0.24045 0.0
C254 C 0.45658 0.79879 0.27203 0.0
C255 C 0.47279 0.73753 0.30971 0.0
C256 C 0.46526 0.71044 0.2788 0.0
H257 H 0.45086 0.83269 0.26926 0.0
H258 H 0.48017 0.72353 0.33736 0.0
H259 H 0.55064 0.87306 0.34839 0.0
H260 H 0.62175 0.76819 0.30818 0.0
H261 H 0.3205 0.83513 0.33566 0.0
H262 H 0.43438 0.78651 0.21424 0.0
H263 H 0.46709 0.67599 0.28309 0.0
C264 C 0.28893 0.07461 0.8546 0.0
C265 C 0.31079 0.10679 0.83584 0.0
N266 N 0.33648 0.08874 0.80928 0.0
N267 N 0.30061 0.03631 0.83997 0.0
C268 C 0.32981 0.04595 0.81254 0.0
H269 H 0.26459 0.079 0.87624 0.0
Co270 Co 0.27431 0.98336 0.84985 0.0
C271 C 0.3615 0.94436 0.85098 0.0
O272 O 0.3745 0.96197 0.8833 0.0
N273 N 0.24856 0.92875 0.85899 0.0
C274 C 0.20354 0.87347 0.8584 0.0
C275 C 0.20768 0.9172 0.85294 0.0
C276 C 0.26818 0.89147 0.86923 0.0
N277 N 0.24186 0.85704 0.86833 0.0
O278 O 0.28967 0.98627 0.90286 0.0
H279 H 0.18263 0.9388 0.84376 0.0
H280 H 0.30148 0.88936 0.87677 0.0
O281 O 0.3251 0.95361 0.83706 0.0
C282 C 0.25695 0.99487 0.92322 0.0
O283 O 0.22057 1.00248 0.90559 0.0
N284 N 0.25519 0.98211 0.7992 0.0
C285 C 0.20699 0.96797 0.73351 0.0
C286 C 0.24964 0.95422 0.73531 0.0
C287 C 0.27339 0.96161 0.76867 0.0
C288 C 0.21621 1.001 0.79573 0.0
C289 C 0.19128 0.99415 0.76307 0.0
H290 H 0.30523 0.94876 0.77043 0.0
H291 H 0.20284 0.01799 0.82005 0.0
H292 H 0.3439 0.02228 0.79359 0.0
H293 H 0.30714 0.14096 0.84067 0.0
H294 H 0.17482 0.85506 0.85353 0.0
H295 H 0.26324 0.93479 0.71254 0.0
H296 H 0.15859 1.00543 0.76291 0.0
C297 C 0.45493 0.2885 0.34337 0.0
C298 C 0.41914 0.30767 0.32795 0.0
N299 N 0.43006 0.34653 0.31421 0.0
N300 N 0.48909 0.31424 0.33863 0.0
C301 C 0.47199 0.35039 0.32269 0.0
H302 H 0.45653 0.25613 0.35458 0.0
Co303 Co 0.54594 0.29205 0.34571 0.0
C304 C 0.57124 0.37887 0.31637 0.0
O305 O 0.55187 0.37276 0.28318 0.0
N306 N 0.60145 0.26798 0.35289 0.0
C307 C 0.65134 0.21693 0.35466 0.0
C308 C 0.60827 0.22523 0.35266 0.0
C309 C 0.6413 0.28502 0.35493 0.0
N310 N 0.6725 0.25457 0.3559 0.0
O311 O 0.54073 0.29946 0.40004 0.0
H312 H 0.58341 0.20142 0.34995 0.0
H313 H 0.64749 0.319 0.35379 0.0
O314 O 0.57099 0.3494 0.34195 0.0
C315 C 0.53134 0.26524 0.41832 0.0
O316 O 0.52417 0.2299 0.3987 0.0
N317 N 0.55069 0.28034 0.29293 0.0
C318 C 0.57245 0.23172 0.2289 0.0
C319 C 0.59562 0.26878 0.23828 0.0
C320 C 0.58555 0.29127 0.27162 0.0
C321 C 0.52436 0.24823 0.28073 0.0
C322 C 0.53452 0.22354 0.24857 0.0
H323 H 0.60865 0.31395 0.28235 0.0
H324 H 0.4987 0.2374 0.29878 0.0
H325 H 0.48929 0.37902 0.31619 0.0
H326 H 0.38801 0.29306 0.32527 0.0
H327 H 0.66576 0.18534 0.35482 0.0
H328 H 0.6251 0.27628 0.22356 0.0
H329 H 0.51609 0.19488 0.24271 0.0
C330 C 0.21476 0.46597 0.85986 0.0
C331 C 0.19412 0.43266 0.84152 0.0
N332 N 0.1724 0.44865 0.81115 0.0
N333 N 0.20641 0.50292 0.84105 0.0
C334 C 0.1799 0.4914 0.81183 0.0
H335 H 0.23713 0.46287 0.88345 0.0
Co336 Co 0.23685 0.55473 0.84627 0.0
C337 C 0.17255 0.6238 0.82914 0.0
O338 O 0.20101 0.65149 0.81716 0.0
N339 N 0.26813 0.60729 0.8516 0.0
C340 C 0.31197 0.66159 0.83885 0.0
C341 C 0.30315 0.61898 0.83175 0.0
C342 C 0.25841 0.64267 0.87283 0.0
N343 N 0.28307 0.67707 0.864 0.0
O344 O 0.22765 0.55479 0.90063 0.0
H345 H 0.31973 0.59875 0.81138 0.0
H346 H 0.23084 0.64427 0.89142 0.0
O347 O 0.18294 0.58553 0.83853 0.0
C348 C 0.26163 0.54602 0.91943 0.0
O349 O 0.29654 0.53711 0.90015 0.0
N350 N 0.25025 0.55154 0.79373 0.0
C351 C 0.30192 0.54973 0.72918 0.0
C352 C 0.26848 0.57983 0.73196 0.0
C353 C 0.24217 0.57958 0.76441 0.0
C354 C 0.27781 0.51818 0.78835 0.0
C355 C 0.30247 0.51548 0.75533 0.0
H356 H 0.2185 0.60423 0.76697 0.0
H357 H 0.28363 0.49558 0.81142 0.0
H358 H 0.16972 0.51323 0.78932 0.0
H359 H 0.19678 0.39891 0.84868 0.0
H360 H 0.33569 0.68048 0.82395 0.0
H361 H 0.26561 0.60636 0.71195 0.0
H362 H 0.32604 0.49011 0.75331 0.0
C363 C 0.07305 0.24636 0.34677 0.0
C364 C 0.10915 0.22757 0.33179 0.0
N365 N 0.09891 0.18829 0.31852 0.0
N366 N 0.03936 0.21992 0.34223 0.0
C367 C 0.05707 0.18381 0.3269 0.0
H368 H 0.07086 0.27889 0.35752 0.0
Co369 Co 0.98228 0.24138 0.34886 0.0
C370 C 0.95808 0.1536 0.32075 0.0
O371 O 0.97756 0.15946 0.2877 0.0
N372 N 0.92652 0.26486 0.35554 0.0
C373 C 0.87594 0.31527 0.35537 0.0
C374 C 0.9191 0.30748 0.35366 0.0
C375 C 0.88692 0.24739 0.35823 0.0
N376 N 0.85535 0.27743 0.35816 0.0
O377 O 0.98811 0.23531 0.40337 0.0
H378 H 0.94359 0.33143 0.3496 0.0
H379 H 0.88122 0.21332 0.35905 0.0
O380 O 0.95789 0.18348 0.34599 0.0
C381 C 0.9969 0.27004 0.42122 0.0
O382 O 1.00231 0.30542 0.40124 0.0
N383 N 0.97701 0.25178 0.29585 0.0
C384 C 0.95487 0.29748 0.23005 0.0
C385 C 0.93204 0.26062 0.24058 0.0
C386 C 0.9422 0.23974 0.27476 0.0
C387 C 1.00298 0.28369 0.28281 0.0
C388 C 0.99261 0.30694 0.24978 0.0
H389 H 0.91934 0.21724 0.28608 0.0
H390 H 0.02857 0.29544 0.30061 0.0
H391 H 0.04027 0.15475 0.32079 0.0
H392 H 0.14001 0.24271 0.32908 0.0
H393 H 0.86094 0.34649 0.353 0.0
H394 H 0.90276 0.25207 0.22584 0.0
H395 H 0.01079 0.33551 0.24309 0.0
C396 C 0.30886 0.46557 0.1463 0.0
C397 C 0.32937 0.43282 0.16567 0.0
N398 N 0.34376 0.44806 0.19966 0.0
N399 N 0.31021 0.50157 0.16779 0.0
C400 C 0.33208 0.48998 0.19999 0.0
H401 H 0.2924 0.46268 0.11903 0.0
Co402 Co 0.28021 0.55324 0.15841 0.0
C403 C 0.36605 0.59095 0.16591 0.0
O404 O 0.38278 0.5663 0.13921 0.0
N405 N 0.25127 0.60605 0.14971 0.0
C406 C 0.20554 0.66056 0.15349 0.0
C407 C 0.21071 0.61677 0.15805 0.0
C408 C 0.26952 0.64355 0.13882 0.0
N409 N 0.24285 0.6777 0.14175 0.0
O410 O 0.29893 0.55428 0.10607 0.0
H411 H 0.18717 0.59468 0.16913 0.0
H412 H 0.30248 0.64581 0.13023 0.0
O413 O 0.32753 0.58598 0.17614 0.0
C414 C 0.2667 0.54313 0.08585 0.0
O415 O 0.23185 0.53128 0.10388 0.0
N416 N 0.25728 0.55022 0.20742 0.0
C417 C 0.19583 0.55143 0.26442 0.0
C418 C 0.22763 0.58324 0.26337 0.0
C419 C 0.25842 0.58204 0.23436 0.0
C420 C 0.22971 0.5167 0.21074 0.0
C421 C 0.19911 0.51627 0.23953 0.0
H422 H 0.27973 0.609 0.231 0.0
H423 H 0.22875 0.49223 0.18866 0.0
H424 H 0.33703 0.51125 0.22425 0.0
H425 H 0.33257 0.40001 0.15577 0.0
H426 H 0.17702 0.67843 0.16056 0.0
H427 H 0.2259 0.61125 0.28182 0.0
H428 H 0.17542 0.49101 0.23965 0.0
C429 C 0.06317 0.27817 0.68106 0.0
C430 C 0.09722 0.29809 0.69819 0.0
N431 N 0.08903 0.3405 0.70055 0.0
N432 N 0.03224 0.3071 0.67324 0.0
C433 C 0.0505 0.34524 0.68308 0.0
H434 H 0.06081 0.24405 0.6762 0.0
Co435 Co 0.97572 0.28942 0.6583 0.0
C436 C 0.95483 0.37363 0.69644 0.0
O437 O 0.98001 0.36566 0.72595 0.0
N438 N 0.9206 0.27053 0.64348 0.0
C439 C 0.86984 0.22953 0.61793 0.0
C440 C 0.91309 0.23579 0.62137 0.0
C441 C 0.88107 0.2846 0.65349 0.0
N442 N 0.84941 0.26017 0.63827 0.0
O443 O 0.98657 0.30644 0.60645 0.0
H444 H 0.93749 0.21562 0.60894 0.0
H445 H 0.8756 0.31134 0.67268 0.0
O446 O 0.95143 0.34606 0.66936 0.0
C447 C 1.00394 0.27592 0.5876 0.0
O448 O 0.01621 0.24145 0.60649 0.0
N449 N 0.9655 0.26768 0.70768 0.0
C450 C 0.94739 0.21719 0.77188 0.0
C451 C 0.93098 0.25904 0.76863 0.0
C452 C 0.93894 0.28304 0.73558 0.0
C453 C 0.98199 0.22729 0.7107 0.0
C454 C 0.974 0.20176 0.74273 0.0
H455 H 0.92092 0.31211 0.73172 0.0
H456 H 0.99874 0.21338 0.68663 0.0
H457 H 0.0356 0.37607 0.67844 0.0
H458 H 0.1246 0.28167 0.71019 0.0
H459 H 0.8548 0.20422 0.60149 0.0
H460 H 0.9094 0.27191 0.79004 0.0
H461 H 0.98559 0.16896 0.74291 0.0
C462 C 0.22099 0.07007 0.15147 0.0
C463 C 0.20066 0.10273 0.17096 0.0
N464 N 0.18615 0.08724 0.20474 0.0
N465 N 0.21939 0.03386 0.17265 0.0
C466 C 0.19759 0.04525 0.20482 0.0
H467 H 0.23743 0.07312 0.1243 0.0
Co468 Co 0.24886 0.98214 0.16261 0.0
C469 C 0.16299 0.94466 0.16842 0.0
O470 O 0.14696 0.96968 0.14156 0.0
N471 N 0.27734 0.92931 0.15313 0.0
C472 C 0.32292 0.87458 0.15595 0.0
C473 C 0.3179 0.91825 0.16135 0.0
C474 C 0.25891 0.89211 0.14152 0.0
N475 N 0.28551 0.85783 0.14382 0.0
O476 O 0.22977 0.98229 0.11038 0.0
H477 H 0.34158 0.94001 0.17283 0.0
H478 H 0.22592 0.89015 0.1328 0.0
O479 O 0.20128 0.94944 0.17965 0.0
C480 C 0.26141 0.9933 0.08956 0.0
O481 O 0.29724 1.00387 0.10682 0.0
N482 N 0.27198 0.98398 0.21171 0.0
C483 C 0.33292 0.98137 0.26948 0.0
C484 C 0.30083 0.9499 0.26766 0.0
C485 C 0.27033 0.95179 0.23827 0.0
C486 C 0.29993 0.0171 0.21567 0.0
C487 C 0.3303 0.01682 0.24483 0.0
H488 H 0.24872 0.92514 0.2344 0.0
H489 H 0.30128 0.04188 0.19387 0.0
H490 H 0.19243 0.02373 0.22883 0.0
H491 H 0.19758 0.13563 0.16125 0.0
H492 H 0.35144 0.85646 0.1627 0.0
H493 H 0.30206 0.92167 0.28588 0.0
H494 H 0.35425 0.04183 0.24552 0.0
C495 C 0.45168 0.22205 0.64753 0.0
C496 C 0.41842 0.2014 0.66556 0.0
N497 N 0.43427 0.17755 0.6947 0.0
N498 N 0.48856 0.21146 0.66514 0.0
C499 C 0.47691 0.18399 0.69362 0.0
H500 H 0.44874 0.24512 0.62441 0.0
Co501 Co 0.54205 0.23769 0.65787 0.0
C502 C 0.58763 0.15481 0.64833 0.0
O503 O 0.59156 0.1599 0.61096 0.0
N504 N 0.59628 0.26447 0.65162 0.0
C505 C 0.64455 0.31671 0.64715 0.0
C506 C 0.60167 0.30733 0.64898 0.0
C507 C 0.63672 0.24862 0.65182 0.0
N508 N 0.66684 0.27968 0.64894 0.0
O509 O 0.5396 0.22655 0.60381 0.0
H510 H 0.57597 0.33053 0.64913 0.0
H511 H 0.64434 0.21514 0.65545 0.0
O512 O 0.56891 0.18331 0.66854 0.0
C513 C 0.52844 0.25979 0.58475 0.0
O514 O 0.51776 0.29466 0.60376 0.0
N515 N 0.54287 0.25294 0.70907 0.0
C516 C 0.55423 0.30144 0.77502 0.0
C517 C 0.57909 0.26444 0.76858 0.0
C518 C 0.5731 0.24062 0.73505 0.0
C519 C 0.51547 0.28577 0.71681 0.0
C520 C 0.52037 0.31041 0.74994 0.0
H521 H 0.59538 0.2152 0.72836 0.0
H522 H 0.4922 0.29533 0.6954 0.0
H523 H 0.49894 0.17139 0.71488 0.0
H524 H 0.38495 0.20482 0.65853 0.0
H525 H 0.65804 0.34853 0.64458 0.0
H526 H 0.60607 0.25672 0.78687 0.0
H527 H 0.50052 0.33857 0.75397 0.0
C528 C 0.63302 0.92905 0.26601 0.0
C529 C 0.66669 0.91211 0.24402 0.0
H530 H 0.58489 0.91757 0.3082 0.0
C531 C 0.67968 0.86962 0.25141 0.0
H532 H 0.6223 0.96171 0.26128 0.0
C533 C 0.65863 0.8442 0.2787 0.0
C534 C 0.62319 0.86002 0.29931 0.0
H535 H 0.70625 0.85578 0.23591 0.0
H536 H 0.6699 0.8117 0.28281 0.0
C537 C 0.6115 0.90341 0.29312 0.0
C538 C 0.66165 0.64757 0.7783 0.0
C539 C 0.65169 0.60399 0.78422 0.0
H540 H 0.64869 0.70556 0.7474 0.0
C541 C 0.62056 0.58523 0.76026 0.0
H542 H 0.68585 0.6631 0.79561 0.0
C543 C 0.59905 0.60984 0.73214 0.0
C544 C 0.60855 0.65374 0.7268 0.0
H545 H 0.61203 0.55181 0.76394 0.0
H546 H 0.57479 0.59452 0.71474 0.0
C547 C 0.64062 0.67193 0.75006 0.0
C548 C 0.8686 0.68438 0.26982 0.0
C549 C 0.90371 0.66889 0.29128 0.0
H550 H 0.82155 0.67206 0.22643 0.0
C551 C 0.91554 0.62543 0.28581 0.0
H552 H 0.85726 0.71692 0.27329 0.0
C553 C 0.8944 0.59934 0.2587 0.0
C554 C 0.861 0.61588 0.23597 0.0
H555 H 0.94193 0.61152 0.30153 0.0
H556 H 0.90518 0.5666 0.25462 0.0
C557 C 0.84793 0.6585 0.24252 0.0
C558 C 0.87013 0.86451 0.73786 0.0
C559 C 0.91001 0.87968 0.72545 0.0
H560 H 0.8167 0.87328 0.77546 0.0
C561 C 0.92599 0.9176 0.74224 0.0
H562 H 0.85701 0.83529 0.72585 0.0
C563 C 0.9023 0.94 0.77036 0.0
C564 C 0.86272 0.92426 0.78312 0.0
H565 H 0.95652 0.93017 0.73322 0.0
H566 H 0.91528 0.96912 0.78272 0.0
C567 C 0.84711 0.88616 0.76651 0.0
C568 C 0.4008 0.09422 0.76773 0.0
C569 C 0.36156 0.11091 0.78051 0.0
H570 H 0.4552 0.10283 0.73082 0.0
C571 C 0.34695 0.14979 0.76454 0.0
H572 H 0.41297 0.06443 0.77958 0.0
C573 C 0.37062 0.17124 0.73635 0.0
C574 C 0.41002 0.1549 0.72375 0.0
H575 H 0.31674 0.16334 0.77343 0.0
H576 H 0.35831 0.20109 0.72476 0.0
C577 C 0.42505 0.11627 0.74001 0.0
C578 C 0.37507 0.35492 0.26319 0.0
C579 C 0.40563 0.37335 0.28789 0.0
H580 H 0.33169 0.36389 0.2162 0.0
C581 C 0.41418 0.41758 0.28398 0.0
H582 H 0.36789 0.32099 0.2648 0.0
C583 C 0.39329 0.44238 0.25571 0.0
C584 C 0.36381 0.42343 0.23026 0.0
H585 H 0.43733 0.43298 0.30253 0.0
H586 H 0.40111 0.4761 0.25306 0.0
C587 C 0.35466 0.37949 0.23478 0.0
C588 C 0.15308 0.36118 0.73868 0.0
C589 C 0.11211 0.37124 0.72439 0.0
H590 H 0.20373 0.37738 0.77757 0.0
C591 C 0.09285 0.40971 0.73728 0.0
H592 H 0.16988 0.33283 0.72904 0.0
C593 C 0.11315 0.43597 0.76479 0.0
C594 C 0.15273 0.42401 0.7806 0.0
H595 H 0.06143 0.4189 0.72736 0.0
H596 H 0.09718 0.46469 0.7749 0.0
C597 C 0.17273 0.3868 0.76664 0.0
C598 C 0.15431 0.18014 0.26813 0.0
C599 C 0.12372 0.16156 0.29255 0.0
H600 H 0.19792 0.1714 0.22155 0.0
C601 C 0.11548 0.11726 0.28861 0.0
H602 H 0.1613 0.2141 0.26974 0.0
C603 C 0.13658 0.09258 0.26052 0.0
C604 C 0.16601 0.11169 0.23529 0.0
H605 H 0.09236 0.10171 0.30697 0.0
H606 H 0.12892 0.05883 0.25779 0.0
C607 C 0.17496 0.15567 0.23993 0.0
C608 C 0.59398 0.1292 0.17236 0.0
C609 C 0.63587 0.12032 0.18455 0.0
H610 H 0.54047 0.17242 0.17651 0.0
C611 C 0.65672 0.14999 0.20841 0.0
H612 H 0.57722 0.10707 0.15366 0.0
C613 C 0.63654 0.18693 0.2206 0.0
C614 C 0.59449 0.19579 0.20943 0.0
H615 H 0.68917 0.14528 0.21774 0.0
H616 H 0.65372 0.20768 0.24027 0.0
C617 C 0.57319 0.16662 0.18509 0.0
C618 C 0.34129 0.58854 0.67636 0.0
C619 C 0.34191 0.56146 0.7088 0.0
H620 H 0.37469 0.6364 0.64426 0.0
C621 C 0.38114 0.55451 0.72778 0.0
H622 H 0.31221 0.59335 0.66002 0.0
C623 C 0.41624 0.57977 0.71929 0.0
C624 C 0.41302 0.6123 0.69162 0.0
H625 H 0.38382 0.53368 0.7526 0.0
H626 H 0.44435 0.57689 0.73734 0.0
C627 C 0.37699 0.61353 0.66752 0.0
C628 C 0.89018 0.34067 0.21861 0.0
C629 C 0.93265 0.33215 0.20882 0.0
H630 H 0.83708 0.3815 0.21342 0.0
C631 C 0.95406 0.36074 0.18411 0.0
H632 H 0.87281 0.3204 0.23845 0.0
C633 C 0.93306 0.39743 0.16989 0.0
C634 C 0.89085 0.40614 0.18093 0.0
H635 H 0.98705 0.35517 0.17647 0.0
H636 H 0.94997 0.41923 0.15108 0.0
C637 C 0.86979 0.37689 0.20496 0.0
C638 C 0.17818 0.90193 0.70389 0.0
C639 C 0.17664 0.9468 0.70693 0.0
H640 H 0.14651 0.84494 0.68727 0.0
C641 C 0.14212 0.96913 0.69023 0.0
H642 H 0.20367 0.88356 0.71717 0.0
C643 C 0.10889 0.94654 0.67224 0.0
C644 C 0.10945 0.90142 0.67162 0.0
H645 H 0.14008 1.00378 0.69239 0.0
H646 H 0.08194 0.96416 0.66067 0.0
C647 C 0.14493 0.87961 0.68689 0.0
C648 C 0.57723 0.37684 0.78606 0.0
C649 C 0.57082 0.33521 0.80093 0.0
H650 H 0.61688 0.43282 0.78712 0.0
C651 C 0.59073 0.32369 0.83565 0.0
H652 H 0.5624 0.38674 0.75927 0.0
C653 C 0.62201 0.35016 0.85132 0.0
C654 C 0.63316 0.38847 0.83272 0.0
H655 H 0.58577 0.29218 0.84809 0.0
H656 H 0.64055 0.33849 0.87547 0.0
C657 C 0.60843 0.40341 0.80195 0.0
C658 C 0.15345 0.58039 0.31977 0.0
C659 C 0.15471 0.56064 0.28351 0.0
H660 H 0.11736 0.61906 0.35866 0.0
C661 C 0.11684 0.55747 0.26185 0.0
H662 H 0.18196 0.58261 0.33732 0.0
C663 C 0.08011 0.57892 0.27362 0.0
C664 C 0.0807 0.60385 0.30723 0.0
H665 H 0.11666 0.5424 0.23374 0.0
H666 H 0.05288 0.57947 0.25438 0.0
C667 C 0.11638 0.60124 0.33188 0.0
C668 C 0.95376 0.15304 0.81614 0.0
C669 C 0.92932 0.18674 0.80017 0.0
H670 H 0.95293 0.09316 0.84715 0.0
C671 C 0.88528 0.18761 0.80663 0.0
H672 H 0.98789 0.15169 0.81171 0.0
C673 C 0.86572 0.15454 0.82633 0.0
C674 C 0.88941 0.11952 0.84041 0.0
H675 H 0.86512 0.21233 0.79425 0.0
H676 H 0.83145 0.1559 0.82908 0.0
C677 C 0.93389 0.11966 0.83639 0.0
C678 C 0.41188 0.97463 0.26837 0.0
C679 C 0.37363 0.97161 0.28928 0.0
H680 H 0.47572 0.95205 0.2619 0.0
C681 C 0.37413 0.95149 0.32541 0.0
H682 H 0.41266 0.98999 0.24039 0.0
C683 C 0.41078 0.93014 0.33803 0.0
C684 C 0.4468 0.92738 0.31401 0.0
H685 H 0.34531 0.94939 0.3424 0.0
H686 H 0.40919 0.91204 0.36463 0.0
C687 C 0.44819 0.95269 0.28065 0.0
C688 C 0.443 0.85659 0.83009 0.0
C689 C 0.4199 0.83099 0.80391 0.0
H690 H 0.44272 0.91314 0.86584 0.0
C691 C 0.37832 0.84323 0.79387 0.0
H692 H 0.47534 0.84808 0.83803 0.0
C693 C 0.36028 0.87999 0.80909 0.0
C694 C 0.3831 0.90617 0.83483 0.0
H695 H 0.35983 0.82523 0.77302 0.0
H696 H 0.32783 0.88728 0.80076 0.0
C697 C 0.42454 0.89386 0.84573 0.0
C698 C 0.67167 0.43948 0.33679 0.0
C699 C 0.67117 0.46776 0.30521 0.0
H700 H 0.63846 0.38985 0.36686 0.0
C701 C 0.63234 0.47495 0.28576 0.0
H702 H 0.70068 0.43422 0.35312 0.0
C703 C 0.59739 0.44892 0.29295 0.0
C704 C 0.60049 0.41557 0.31987 0.0
H705 H 0.63018 0.49669 0.2615 0.0
H706 H 0.56957 0.45211 0.27459 0.0
C707 C 0.63617 0.41377 0.34438 0.0
C708 C 0.08448 0.70118 0.83756 0.0
C709 C 0.0626 0.6913 0.80341 0.0
H710 H 0.13757 0.68531 0.87356 0.0
C711 C 0.06853 0.65055 0.78652 0.0
H712 H 0.07998 0.73201 0.85147 0.0
C713 C 0.10146 0.62385 0.79925 0.0
C714 C 0.12818 0.63774 0.82899 0.0
H715 H 0.05215 0.6419 0.76015 0.0
H716 H 0.10952 0.59557 0.78256 0.0
C717 C 0.11744 0.67454 0.85013 0.0
C718 C 0.93207 0.08343 0.29726 0.0
C719 C 0.92884 0.11684 0.32411 0.0
H720 H 0.89948 0.03544 0.26565 0.0
C721 C 0.893 0.11868 0.34823 0.0
H722 H 0.95998 0.08023 0.27917 0.0
C723 C 0.85758 0.09287 0.34037 0.0
C724 C 0.85831 0.06436 0.30896 0.0
H725 H 0.8906 0.14261 0.37066 0.0
H726 H 0.82849 0.09809 0.35644 0.0
C727 C 0.8972 0.05728 0.28982 0.0
C728 C 0.45502 0.66389 0.20028 0.0
C729 C 0.43144 0.69802 0.21615 0.0
H730 H 0.4527 0.60306 0.17101 0.0
C731 C 0.38701 0.69807 0.21285 0.0
H732 H 0.48938 0.66294 0.20338 0.0
C733 C 0.36619 0.66327 0.19628 0.0
C734 C 0.38938 0.62832 0.18136 0.0
H735 H 0.36818 0.7235 0.22571 0.0
H736 H 0.33171 0.66342 0.19613 0.0
C737 C 0.43409 0.62954 0.1823 0.0
C738 C 0.89114 0.46104 0.74246 0.0
C739 C 0.8515 0.45661 0.72367 0.0
H740 H 0.95519 0.43895 0.74783 0.0
C741 C 0.84957 0.43165 0.68991 0.0
H742 H 0.89445 0.47961 0.76863 0.0
C743 C 0.88499 0.40761 0.6782 0.0
C744 C 0.92267 0.408 0.70026 0.0
H745 H 0.81999 0.42838 0.67405 0.0
H746 H 0.88168 0.38631 0.65373 0.0
C747 C 0.92626 0.43717 0.73078 0.0
C748 C 0.07344 0.86989 0.19759 0.0
C749 C 0.09668 0.83557 0.21365 0.0
H750 H 0.07634 0.93155 0.16982 0.0
C751 C 0.14121 0.83615 0.21232 0.0
H752 H 0.03897 0.87038 0.19924 0.0
C753 C 0.16235 0.87167 0.19752 0.0
C754 C 0.13944 0.90677 0.18239 0.0
H755 H 0.15974 0.81057 0.22543 0.0
H756 H 0.19681 0.87188 0.1988 0.0
C757 C 0.09474 0.90499 0.18135 0.0
C758 C 0.68529 0.09357 0.67965 0.0
C759 C 0.67353 0.08128 0.71706 0.0
H760 H 0.6664 0.12563 0.62768 0.0
C761 C 0.63126 0.08771 0.72909 0.0
H762 H 0.71768 0.08895 0.66975 0.0
C763 C 0.6022 0.10896 0.70532 0.0
C764 C 0.61464 0.12356 0.66885 0.0
H765 H 0.62142 0.07908 0.75794 0.0
H766 H 0.57065 0.11605 0.71629 0.0
C767 C 0.65587 0.11419 0.65552 0.0
C768 C 0.79593 0.29328 0.15775 0.0
C769 C 0.75352 0.30838 0.1587 0.0
H770 H 0.83835 0.23932 0.15772 0.0
C771 C 0.72079 0.27734 0.15895 0.0
H772 H 0.8223 0.3155 0.15746 0.0
C773 C 0.7301 0.23308 0.15922 0.0
C774 C 0.77253 0.21799 0.1594 0.0
H775 H 0.68768 0.28704 0.15913 0.0
H776 H 0.70374 0.21085 0.16005 0.0
C777 C 0.80524 0.24902 0.15818 0.0
C778 C 0.27948 0.72053 0.65415 0.0
C779 C 0.29654 0.76188 0.64854 0.0
H780 H 0.2239 0.68132 0.65876 0.0
C781 C 0.26761 0.79586 0.64185 0.0
H782 H 0.30021 0.69337 0.65958 0.0
C783 C 0.22334 0.78907 0.64187 0.0
C784 C 0.2061 0.74794 0.64848 0.0
H785 H 0.27901 0.82811 0.63673 0.0
H786 H 0.20286 0.81657 0.63736 0.0
C787 C 0.23515 0.71368 0.65404 0.0
C788 C 0.79694 0.2331 0.88607 0.0
C789 C 0.75451 0.21894 0.88982 0.0
H790 H 0.83965 0.2864 0.88132 0.0
C791 C 0.72274 0.25036 0.89568 0.0
H792 H 0.82263 0.21042 0.88198 0.0
C793 C 0.73267 0.29436 0.89544 0.0
C794 C 0.77463 0.30857 0.88896 0.0
H795 H 0.68983 0.2411 0.89963 0.0
H796 H 0.70699 0.31715 0.89869 0.0
C797 C 0.80679 0.2771 0.88553 0.0
C798 C 0.27074 0.80825 0.39893 0.0
C799 C 0.30516 0.77911 0.39588 0.0
H800 H 0.20283 0.81709 0.39591 0.0
C801 C 0.29646 0.73505 0.39769 0.0
H802 H 0.27662 0.8425 0.39781 0.0
C803 C 0.25414 0.7206 0.39692 0.0
C804 C 0.21979 0.74989 0.39424 0.0
H805 H 0.3221 0.71189 0.39518 0.0
H806 H 0.24831 0.68645 0.39426 0.0
C807 C 0.22842 0.7938 0.39808 0.0
C808 C 0.23209 0.73648 0.87846 0.0
C809 C 0.27388 0.72231 0.87074 0.0
H810 H 0.18915 0.78971 0.88402 0.0
C811 C 0.30562 0.75374 0.8657 0.0
H812 H 0.20667 0.71365 0.88255 0.0
C813 C 0.29552 0.79772 0.86648 0.0
C814 C 0.25324 0.81182 0.872 0.0
H815 H 0.33828 0.74439 0.86021 0.0
H816 H 0.3208 0.82045 0.86129 0.0
C817 C 0.2219 0.78044 0.87892 0.0
C818 C 0.79099 0.23212 0.34643 0.0
C819 C 0.80931 0.2712 0.35828 0.0
H820 H 0.73409 0.19645 0.33546 0.0
C821 C 0.78149 0.30473 0.36929 0.0
H822 H 0.81094 0.20571 0.33713 0.0
C823 C 0.73699 0.29944 0.36838 0.0
C824 C 0.71863 0.26039 0.3565 0.0
H825 H 0.79402 0.33517 0.37909 0.0
H826 H 0.71706 0.32594 0.37751 0.0
C827 C 0.74649 0.22685 0.34548 0.0
C828 C 0.22156 0.75493 0.13836 0.0
C829 C 0.25358 0.72312 0.1387 0.0
H830 H 0.206 0.82163 0.13924 0.0
C831 C 0.29637 0.73691 0.13789 0.0
H832 H 0.18823 0.74619 0.13818 0.0
C833 C 0.30672 0.78074 0.13849 0.0
C834 C 0.27471 0.81253 0.13974 0.0
H835 H 0.3223 0.71407 0.13771 0.0
H836 H 0.34004 0.78949 0.13838 0.0
C837 C 0.23192 0.79878 0.13876 0.0
C838 C 0.73154 0.23473 0.63808 0.0
C839 C 0.71298 0.27447 0.64785 0.0
H840 H 0.78851 0.19878 0.62808 0.0
C841 C 0.74056 0.30916 0.65582 0.0
H842 H 0.71185 0.20719 0.63155 0.0
C843 C 0.78507 0.30444 0.65332 0.0
C844 C 0.8035 0.26489 0.64273 0.0
H845 H 0.7279 0.34016 0.66404 0.0
H846 H 0.80492 0.33212 0.65899 0.0
C847 C 0.77593 0.23002 0.63562 0.0
C848 C 0.72484 0.03309 0.99788 0.0
C849 C 0.76303 0.03352 0.97657 0.0
H850 H 0.69559 0.03404 0.05366 0.0
C851 C 0.80192 0.03511 0.9965 0.0
H852 H 0.69421 0.03218 0.98343 0.0
C853 C 0.8026 0.03576 0.03682 0.0
C854 C 0.76439 0.03547 0.05809 0.0
H855 H 0.83182 0.0356 0.98098 0.0
H856 H 0.83319 0.03681 0.05131 0.0
C857 C 0.7255 0.03434 0.03816 0.0
C858 C 0.48904 0.81426 0.49425 0.0
C859 C 0.48733 0.77778 0.47064 0.0
H860 H 0.49005 0.83873 0.55187 0.0
C861 C 0.48552 0.73691 0.48814 0.0
H862 H 0.49043 0.8461 0.48174 0.0
C863 C 0.48498 0.73259 0.5282 0.0
C864 C 0.48662 0.76899 0.55186 0.0
H865 H 0.48403 0.70797 0.47088 0.0
H866 H 0.4832 0.70071 0.54059 0.0
C867 C 0.4889 0.8099 0.53445 0.0
C868 C 0.79698 0.48798 0.03281 0.0
C869 C 0.75891 0.48711 0.0538 0.0
H870 H 0.826 0.48933 0.97719 0.0
C871 C 0.71988 0.48582 0.03361 0.0
H872 H 0.82748 0.48898 0.04748 0.0
C873 C 0.71892 0.48557 0.99331 0.0
C874 C 0.75697 0.48724 0.97232 0.0
H875 H 0.68989 0.48487 0.04896 0.0
H876 H 0.68842 0.48461 0.97864 0.0
C877 C 0.796 0.48835 0.99252 0.0
C878 C 0.02849 0.71398 0.48734 0.0
C879 C 0.0354 0.75048 0.46458 0.0
H880 H 0.01975 0.68905 0.54421 0.0
C881 C 0.03924 0.79079 0.48283 0.0
H882 H 0.02539 0.68258 0.47421 0.0
C883 C 0.0363 0.79458 0.52282 0.0
C884 C 0.02904 0.75822 0.5456 0.0
H885 H 0.0448 0.81968 0.46621 0.0
H886 H 0.03958 0.82603 0.53584 0.0
C887 C 0.02512 0.71785 0.52743 0.0
C888 C 0.29791 0.99421 0.02582 0.0
C889 C 0.25973 0.99296 0.04704 0.0
H890 H 0.32709 0.99538 0.97009 0.0
C891 C 0.22079 0.99185 0.02723 0.0
H892 H 0.32854 0.99479 0.04028 0.0
C893 C 0.22006 0.99273 0.98696 0.0
C894 C 0.25827 0.99407 0.96575 0.0
H895 H 0.19094 0.99088 0.04279 0.0
H896 H 0.18946 0.99209 0.97245 0.0
C897 C 0.2972 0.99444 0.98559 0.0
C898 C 0.52776 0.30039 0.52268 0.0
C899 C 0.52907 0.26073 0.54218 0.0
H900 H 0.52789 0.33302 0.46831 0.0
C901 C 0.53118 0.2227 0.52064 0.0
H902 H 0.52639 0.33035 0.53849 0.0
C903 C 0.5315 0.2243 0.48038 0.0
C904 C 0.53041 0.26399 0.46089 0.0
H905 H 0.53225 0.19172 0.53484 0.0
H906 H 0.53305 0.19437 0.46453 0.0
C907 C 0.52875 0.30202 0.48247 0.0
C908 C 0.22683 0.54488 0.02363 0.0
C909 C 0.26618 0.54524 0.04331 0.0
H910 H 0.19445 0.54534 0.96922 0.0
C911 C 0.30394 0.54702 0.02194 0.0
H912 H 0.19705 0.5439 0.03929 0.0
C913 C 0.30234 0.54735 0.98163 0.0
C914 C 0.26294 0.54662 0.96201 0.0
H915 H 0.33464 0.54739 0.03629 0.0
H916 H 0.33204 0.54823 0.96584 0.0
C917 C 0.22522 0.54588 0.98345 0.0
C918 C 1.00596 0.23403 0.48523 0.0
C919 C 0.99965 0.27162 0.46373 0.0
H920 H 0.01311 0.20617 0.5411 0.0
C921 C 0.9959 0.31114 0.48322 0.0
H922 H 1.00911 0.20319 0.47105 0.0
C923 C 0.99764 0.3129 0.52348 0.0
C924 C 1.00403 0.27527 0.54498 0.0
H925 H 0.99085 0.34071 0.46739 0.0
H926 H 0.99393 0.34363 0.53775 0.0
C927 C 1.00852 0.23589 0.52538 0.0
loop_
_geom_bond_atom_site_label_1
_geom_bond_atom_site_label_2
_geom_bond_distance
_geom_bond_site_symmetry_2
_ccdc_geom_bond_type
C0 C1 1.351 . S
C0 N3 1.368 . S
C0 H5 0.931 . S
C1 C0 1.351 . S
C1 N2 1.373 . S
C1 H29 0.930 . S
N2 C1 1.373 . S
N2 C4 1.340 . S
N3 C0 1.368 . S
N3 C4 1.321 . S
N3 Co6 2.135 1_565 S
C4 N2 1.340 . S
C4 N3 1.321 . S
C4 H28 0.930 . S
H5 C0 0.931 . S
Co6 N3 2.135 1_545 S
Co6 N9 2.121 . S
Co6 O14 2.055 . S
Co6 O17 2.039 . S
Co6 N20 2.140 . S
C7 O8 1.227 . S
C7 O17 1.265 . S
O8 C7 1.227 . S
N9 Co6 2.121 . S
N9 C11 1.375 . S
N9 C12 1.313 . S
C10 C11 1.338 . S
C10 N13 1.377 . S
C10 H30 0.930 . S
C11 N9 1.375 . S
C11 C10 1.338 . S
C11 H15 0.931 . S
C12 N9 1.313 . S
C12 N13 1.344 . S
C12 H16 0.930 . S
N13 C10 1.377 . S
N13 C12 1.344 . S
O14 Co6 2.055 . S
O14 C18 1.253 . S
H15 C11 0.931 . S
H16 C12 0.930 . S
O17 Co6 2.039 . S
O17 C7 1.265 . S
C18 O14 1.253 . S
C18 O19 1.227 . S
O19 C18 1.227 . S
N20 Co6 2.140 . S
N20 C23 1.346 . S
N20 C24 1.345 . S
C21 C22 1.387 . S
C21 C25 1.391 . S
C22 C21 1.387 . S
C22 C23 1.369 . S
C22 H31 0.929 . S
C23 N20 1.346 . S
C23 C22 1.369 . S
C23 H26 0.928 . S
C24 N20 1.345 . S
C24 C25 1.371 . S
C24 H27 0.931 . S
C25 C21 1.391 . S
C25 C24 1.371 . S
C25 H32 0.930 . S
H26 C23 0.928 . S
H27 C24 0.931 . S
H28 C4 0.930 . S
H29 C1 0.930 . S
H30 C10 0.930 . S
H31 C22 0.929 . S
H32 C25 0.930 . S
C33 C34 1.351 . S
C33 N36 1.368 . S
C33 H38 0.931 . S
C34 C33 1.351 . S
C34 N35 1.373 . S
C34 H62 0.930 . S
N35 C34 1.373 . S
N35 C37 1.340 . S
N36 C33 1.368 . S
N36 C37 1.321 . S
N36 Co39 2.135 . S
C37 N35 1.340 . S
C37 N36 1.321 . S
C37 H61 0.930 . S
H38 C33 0.931 . S
Co39 N36 2.135 . S
Co39 N42 2.121 . S
Co39 O47 2.055 . S
Co39 O50 2.039 . S
Co39 N53 2.140 . S
C40 O41 1.227 . S
C40 O50 1.265 . S
O41 C40 1.227 . S
N42 Co39 2.121 . S
N42 C44 1.375 . S
N42 C45 1.313 . S
C43 C44 1.338 . S
C43 N46 1.377 . S
C43 H63 0.930 . S
C44 N42 1.375 . S
C44 C43 1.338 . S
C44 H48 0.931 . S
C45 N42 1.313 . S
C45 N46 1.344 . S
C45 H49 0.930 . S
N46 C43 1.377 . S
N46 C45 1.344 . S
O47 Co39 2.055 . S
O47 C51 1.253 . S
H48 C44 0.931 . S
H49 C45 0.930 . S
O50 Co39 2.039 . S
O50 C40 1.265 . S
C51 O47 1.253 . S
C51 O52 1.227 . S
O52 C51 1.227 . S
N53 Co39 2.140 . S
N53 C56 1.346 . S
N53 C57 1.345 . S
C54 C55 1.387 . S
C54 C58 1.391 . S
C55 C54 1.387 . S
C55 C56 1.369 . S
C55 H64 0.929 . S
C56 N53 1.346 . S
C56 C55 1.369 . S
C56 H59 0.928 . S
C57 N53 1.345 . S
C57 C58 1.371 . S
C57 H60 0.931 . S
C58 C54 1.391 . S
C58 C57 1.371 . S
C58 H65 0.930 . S
H59 C56 0.928 . S
H60 C57 0.931 . S
H61 C37 0.930 . S
H62 C34 0.930 . S
H63 C43 0.930 . S
H64 C55 0.929 . S
H65 C58 0.930 . S
C66 C67 1.351 . S
C66 N69 1.368 . S
C66 H71 0.931 . S
C67 C66 1.351 . S
C67 N68 1.373 . S
C67 H95 0.930 . S
N68 C67 1.373 . S
N68 C70 1.340 . S
N69 C66 1.368 . S
N69 C70 1.321 . S
N69 Co72 2.135 . S
C70 N68 1.340 . S
C70 N69 1.321 . S
C70 H94 0.930 . S
H71 C66 0.931 . S
Co72 N69 2.135 . S
Co72 N75 2.121 . S
Co72 O80 2.055 . S
Co72 O83 2.039 . S
Co72 N86 2.140 . S
C73 O74 1.227 . S
C73 O83 1.265 . S
O74 C73 1.227 . S
N75 Co72 2.121 . S
N75 C77 1.375 . S
N75 C78 1.313 . S
C76 C77 1.338 . S
C76 N79 1.377 . S
C76 H96 0.930 . S
C77 N75 1.375 . S
C77 C76 1.338 . S
C77 H81 0.931 . S
C78 N75 1.313 . S
C78 N79 1.344 . S
C78 H82 0.930 . S
N79 C76 1.377 . S
N79 C78 1.344 . S
O80 Co72 2.055 . S
O80 C84 1.253 . S
H81 C77 0.931 . S
H82 C78 0.930 . S
O83 Co72 2.039 . S
O83 C73 1.265 . S
C84 O80 1.253 . S
C84 O85 1.227 . S
O85 C84 1.227 . S
N86 Co72 2.140 . S
N86 C89 1.346 . S
N86 C90 1.345 . S
C87 C88 1.387 . S
C87 C91 1.391 . S
C88 C87 1.387 . S
C88 C89 1.369 . S
C88 H97 0.929 . S
C89 N86 1.346 . S
C89 C88 1.369 . S
C89 H92 0.928 . S
C90 N86 1.345 . S
C90 C91 1.371 . S
C90 H93 0.931 . S
C91 C87 1.391 . S
C91 C90 1.371 . S
C91 H98 0.930 . S
H92 C89 0.928 . S
H93 C90 0.931 . S
H94 C70 0.930 . S
H95 C67 0.930 . S
H96 C76 0.930 . S
H97 C88 0.929 . S
H98 C91 0.930 . S
C99 C100 1.351 . S
C99 N102 1.368 . S
C99 H104 0.931 . S
C100 C99 1.351 . S
C100 N101 1.373 . S
C100 H128 0.930 . S
N101 C100 1.373 . S
N101 C103 1.340 . S
N102 C99 1.368 . S
N102 C103 1.321 . S
N102 Co105 2.135 1_655 S
C103 N101 1.340 . S
C103 N102 1.321 . S
C103 H127 0.930 . S
H104 C99 0.931 . S
Co105 N102 2.135 1_455 S
Co105 N108 2.121 . S
Co105 O113 2.055 . S
Co105 O116 2.039 . S
Co105 N119 2.140 . S
C106 O107 1.227 . S
C106 O116 1.265 . S
O107 C106 1.227 . S
N108 Co105 2.121 . S
N108 C110 1.375 . S
N108 C111 1.313 . S
C109 C110 1.338 . S
C109 N112 1.377 . S
C109 H129 0.930 . S
C110 N108 1.375 . S
C110 C109 1.338 . S
C110 H114 0.931 . S
C111 N108 1.313 . S
C111 N112 1.344 . S
C111 H115 0.930 . S
N112 C109 1.377 . S
N112 C111 1.344 . S
O113 Co105 2.055 . S
O113 C117 1.253 . S
H114 C110 0.931 . S
H115 C111 0.930 . S
O116 Co105 2.039 . S
O116 C106 1.265 . S
C117 O113 1.253 . S
C117 O118 1.227 . S
O118 C117 1.227 . S
N119 Co105 2.140 . S
N119 C122 1.346 . S
N119 C123 1.345 . S
C120 C121 1.387 . S
C120 C124 1.391 . S
C121 C120 1.387 . S
C121 C122 1.369 . S
C121 H130 0.929 . S
C122 N119 1.346 . S
C122 C121 1.369 . S
C122 H125 0.928 . S
C123 N119 1.345 . S
C123 C124 1.371 . S
C123 H126 0.931 . S
C124 C120 1.391 . S
C124 C123 1.371 . S
C124 H131 0.930 . S
H125 C122 0.928 . S
H126 C123 0.931 . S
H127 C103 0.930 . S
H128 C100 0.930 . S
H129 C109 0.930 . S
H130 C121 0.929 . S
H131 C124 0.930 . S
C132 C133 1.351 . S
C132 N135 1.368 . S
C132 H137 0.931 . S
C133 C132 1.351 . S
C133 N134 1.373 . S
C133 H161 0.930 . S
N134 C133 1.373 . S
N134 C136 1.340 . S
N135 C132 1.368 . S
N135 C136 1.321 . S
N135 Co138 2.135 . S
C136 N134 1.340 . S
C136 N135 1.321 . S
C136 H160 0.930 . S
H137 C132 0.931 . S
Co138 N135 2.135 . S
Co138 N141 2.121 . S
Co138 O146 2.055 . S
Co138 O149 2.039 . S
Co138 N152 2.140 . S
C139 O140 1.227 . S
C139 O149 1.265 . S
O140 C139 1.227 . S
N141 Co138 2.121 . S
N141 C143 1.375 . S
N141 C144 1.313 . S
C142 C143 1.338 . S
C142 N145 1.377 . S
C142 H162 0.930 . S
C143 N141 1.375 . S
C143 C142 1.338 . S
C143 H147 0.931 . S
C144 N141 1.313 . S
C144 N145 1.344 . S
C144 H148 0.930 . S
N145 C142 1.377 . S
N145 C144 1.344 . S
O146 Co138 2.055 . S
O146 C150 1.253 . S
H147 C143 0.931 . S
H148 C144 0.930 . S
O149 Co138 2.039 . S
O149 C139 1.265 . S
C150 O146 1.253 . S
C150 O151 1.227 . S
O151 C150 1.227 . S
N152 Co138 2.140 . S
N152 C155 1.346 . S
N152 C156 1.345 . S
C153 C154 1.387 . S
C153 C157 1.391 . S
C154 C153 1.387 . S
C154 C155 1.369 . S
C154 H163 0.929 . S
C155 N152 1.346 . S
C155 C154 1.369 . S
C155 H158 0.928 . S
C156 N152 1.345 . S
C156 C157 1.371 . S
C156 H159 0.931 . S
C157 C153 1.391 . S
C157 C156 1.371 . S
C157 H164 0.930 . S
H158 C155 0.928 . S
H159 C156 0.931 . S
H160 C136 0.930 . S
H161 C133 0.930 . S
H162 C142 0.930 . S
H163 C154 0.929 . S
H164 C157 0.930 . S
C165 C166 1.351 . S
C165 N168 1.368 . S
C165 H170 0.931 . S
C166 C165 1.351 . S
C166 N167 1.373 . S
C166 H194 0.930 . S
N167 C166 1.373 . S
N167 C169 1.340 . S
N168 C165 1.368 . S
N168 C169 1.321 . S
N168 Co171 2.135 1_655 S
C169 N167 1.340 . S
C169 N168 1.321 . S
C169 H193 0.930 . S
H170 C165 0.931 . S
Co171 N168 2.135 1_455 S
Co171 N174 2.121 . S
Co171 O179 2.055 . S
Co171 O182 2.039 . S
Co171 N185 2.140 . S
C172 O173 1.227 . S
C172 O182 1.265 . S
O173 C172 1.227 . S
N174 Co171 2.121 . S
N174 C176 1.375 . S
N174 C177 1.313 . S
C175 C176 1.338 . S
C175 N178 1.377 . S
C175 H195 0.930 . S
C176 N174 1.375 . S
C176 C175 1.338 . S
C176 H180 0.931 . S
C177 N174 1.313 . S
C177 N178 1.344 . S
C177 H181 0.930 . S
N178 C175 1.377 . S
N178 C177 1.344 . S
O179 Co171 2.055 . S
O179 C183 1.253 . S
H180 C176 0.931 . S
H181 C177 0.930 . S
O182 Co171 2.039 . S
O182 C172 1.265 . S
C183 O179 1.253 . S
C183 O184 1.227 . S
O184 C183 1.227 . S
N185 Co171 2.140 . S
N185 C188 1.346 . S
N185 C189 1.345 . S
C186 C187 1.387 . S
C186 C190 1.391 . S
C187 C186 1.387 . S
C187 C188 1.369 . S
C187 H196 0.929 . S
C188 N185 1.346 . S
C188 C187 1.369 . S
C188 H191 0.928 . S
C189 N185 1.345 . S
C189 C190 1.371 . S
C189 H192 0.931 . S
C190 C186 1.391 . S
C190 C189 1.371 . S
C190 H197 0.930 . S
H191 C188 0.928 . S
H192 C189 0.931 . S
H193 C169 0.930 . S
H194 C166 0.930 . S
H195 C175 0.930 . S
H196 C187 0.929 . S
H197 C190 0.930 . S
C198 C199 1.351 . S
C198 N201 1.368 . S
C198 H203 0.931 . S
C199 C198 1.351 . S
C199 N200 1.373 . S
C199 H227 0.930 . S
N200 C199 1.373 . S
N200 C202 1.340 . S
N201 C198 1.368 . S
N201 C202 1.321 . S
N201 Co204 2.135 1_565 S
C202 N200 1.340 . S
C202 N201 1.321 . S
C202 H226 0.930 . S
H203 C198 0.931 . S
Co204 N201 2.135 1_545 S
Co204 N207 2.121 . S
Co204 O212 2.055 . S
Co204 O215 2.039 . S
Co204 N218 2.140 . S
C205 O206 1.227 . S
C205 O215 1.265 . S
O206 C205 1.227 . S
N207 Co204 2.121 . S
N207 C209 1.375 . S
N207 C210 1.313 . S
C208 C209 1.338 . S
C208 N211 1.377 . S
C208 H228 0.930 . S
C209 N207 1.375 . S
C209 C208 1.338 . S
C209 H213 0.931 . S
C210 N207 1.313 . S
C210 N211 1.344 . S
C210 H214 0.930 . S
N211 C208 1.377 . S
N211 C210 1.344 . S
O212 Co204 2.055 . S
O212 C216 1.253 . S
H213 C209 0.931 . S
H214 C210 0.930 . S
O215 Co204 2.039 . S
O215 C205 1.265 . S
C216 O212 1.253 . S
C216 O217 1.227 . S
O217 C216 1.227 . S
N218 Co204 2.140 . S
N218 C221 1.346 . S
N218 C222 1.345 . S
C219 C220 1.387 . S
C219 C223 1.391 . S
C220 C219 1.387 . S
C220 C221 1.369 . S
C220 H229 0.929 . S
C221 N218 1.346 . S
C221 C220 1.369 . S
C221 H224 0.928 . S
C222 N218 1.345 . S
C222 C223 1.371 . S
C222 H225 0.931 . S
C223 C219 1.391 . S
C223 C222 1.371 . S
C223 H230 0.930 . S
H224 C221 0.928 . S
H225 C222 0.931 . S
H226 C202 0.930 . S
H227 C199 0.930 . S
H228 C208 0.930 . S
H229 C220 0.929 . S
H230 C223 0.930 . S
C231 C232 1.351 . S
C231 N234 1.368 . S
C231 H236 0.931 . S
C232 C231 1.351 . S
C232 N233 1.373 . S
C232 H260 0.930 . S
N233 C232 1.373 . S
N233 C235 1.340 . S
N234 C231 1.368 . S
N234 C235 1.321 . S
N234 Co237 2.135 . S
C235 N233 1.340 . S
C235 N234 1.321 . S
C235 H259 0.930 . S
H236 C231 0.931 . S
Co237 N234 2.135 . S
Co237 N240 2.121 . S
Co237 O245 2.055 . S
Co237 O248 2.039 . S
Co237 N251 2.140 . S
C238 O239 1.227 . S
C238 O248 1.265 . S
O239 C238 1.227 . S
N240 Co237 2.121 . S
N240 C242 1.375 . S
N240 C243 1.313 . S
C241 C242 1.338 . S
C241 N244 1.377 . S
C241 H261 0.930 . S
C242 N240 1.375 . S
C242 C241 1.338 . S
C242 H246 0.931 . S
C243 N240 1.313 . S
C243 N244 1.344 . S
C243 H247 0.930 . S
N244 C241 1.377 . S
N244 C243 1.344 . S
O245 Co237 2.055 . S
O245 C249 1.253 . S
H246 C242 0.931 . S
H247 C243 0.930 . S
O248 Co237 2.039 . S
O248 C238 1.265 . S
C249 O245 1.253 . S
C249 O250 1.227 . S
O250 C249 1.227 . S
N251 Co237 2.140 . S
N251 C254 1.346 . S
N251 C255 1.345 . S
C252 C253 1.387 . S
C252 C256 1.391 . S
C253 C252 1.387 . S
C253 C254 1.369 . S
C253 H262 0.929 . S
C254 N251 1.346 . S
C254 C253 1.369 . S
C254 H257 0.928 . S
C255 N251 1.345 . S
C255 C256 1.371 . S
C255 H258 0.931 . S
C256 C252 1.391 . S
C256 C255 1.371 . S
C256 H263 0.930 . S
H257 C254 0.928 . S
H258 C255 0.931 . S
H259 C235 0.930 . S
H260 C232 0.930 . S
H261 C241 0.930 . S
H262 C253 0.929 . S
H263 C256 0.930 . S
C264 C265 1.351 . S
C264 N267 1.368 . S
C264 H269 0.931 . S
C265 C264 1.351 . S
C265 N266 1.373 . S
C265 H293 0.930 . S
N266 C265 1.373 . S
N266 C268 1.340 . S
N267 C264 1.368 . S
N267 C268 1.321 . S
N267 Co270 2.135 1_545 S
C268 N266 1.340 . S
C268 N267 1.321 . S
C268 H292 0.930 . S
H269 C264 0.931 . S
Co270 N267 2.135 1_565 S
Co270 N273 2.121 . S
Co270 O278 2.055 . S
Co270 O281 2.039 . S
Co270 N284 2.140 . S
C271 O272 1.227 . S
C271 O281 1.265 . S
O272 C271 1.227 . S
N273 Co270 2.121 . S
N273 C275 1.375 . S
N273 C276 1.313 . S
C274 C275 1.338 . S
C274 N277 1.377 . S
C274 H294 0.930 . S
C275 N273 1.375 . S
C275 C274 1.338 . S
C275 H279 0.931 . S
C276 N273 1.313 . S
C276 N277 1.344 . S
C276 H280 0.930 . S
N277 C274 1.377 . S
N277 C276 1.344 . S
O278 Co270 2.055 . S
O278 C282 1.253 . S
H279 C275 0.931 . S
H280 C276 0.930 . S
O281 Co270 2.039 . S
O281 C271 1.265 . S
C282 O278 1.253 . S
C282 O283 1.227 . S
O283 C282 1.227 . S
N284 Co270 2.140 . S
N284 C287 1.346 . S
N284 C288 1.345 . S
C285 C286 1.387 . S
C285 C289 1.391 . S
C286 C285 1.387 . S
C286 C287 1.369 . S
C286 H295 0.929 . S
C287 N284 1.346 . S
C287 C286 1.369 . S
C287 H290 0.928 . S
C288 N284 1.345 . S
C288 C289 1.371 . S
C288 H291 0.931 . S
C289 C285 1.391 . S
C289 C288 1.371 . S
C289 H296 0.930 . S
H290 C287 0.928 . S
H291 C288 0.931 . S
H292 C268 0.930 . S
H293 C265 0.930 . S
H294 C274 0.930 . S
H295 C286 0.929 . S
H296 C289 0.930 . S
C297 C298 1.351 . S
C297 N300 1.368 . S
C297 H302 0.931 . S
C298 C297 1.351 . S
C298 N299 1.373 . S
C298 H326 0.930 . S
N299 C298 1.373 . S
N299 C301 1.340 . S
N300 C297 1.368 . S
N300 C301 1.321 . S
N300 Co303 2.135 . S
C301 N299 1.340 . S
C301 N300 1.321 . S
C301 H325 0.930 . S
H302 C297 0.931 . S
Co303 N300 2.135 . S
Co303 N306 2.121 . S
Co303 O311 2.055 . S
Co303 O314 2.039 . S
Co303 N317 2.140 . S
C304 O305 1.227 . S
C304 O314 1.265 . S
O305 C304 1.227 . S
N306 Co303 2.121 . S
N306 C308 1.375 . S
N306 C309 1.313 . S
C307 C308 1.338 . S
C307 N310 1.377 . S
C307 H327 0.930 . S
C308 N306 1.375 . S
C308 C307 1.338 . S
C308 H312 0.931 . S
C309 N306 1.313 . S
C309 N310 1.344 . S
C309 H313 0.930 . S
N310 C307 1.377 . S
N310 C309 1.344 . S
O311 Co303 2.055 . S
O311 C315 1.253 . S
H312 C308 0.931 . S
H313 C309 0.930 . S
O314 Co303 2.039 . S
O314 C304 1.265 . S
C315 O311 1.253 . S
C315 O316 1.227 . S
O316 C315 1.227 . S
N317 Co303 2.140 . S
N317 C320 1.346 . S
N317 C321 1.345 . S
C318 C319 1.387 . S
C318 C322 1.391 . S
C319 C318 1.387 . S
C319 C320 1.369 . S
C319 H328 0.929 . S
C320 N317 1.346 . S
C320 C319 1.369 . S
C320 H323 0.928 . S
C321 N317 1.345 . S
C321 C322 1.371 . S
C321 H324 0.931 . S
C322 C318 1.391 . S
C322 C321 1.371 . S
C322 H329 0.930 . S
H323 C320 0.928 . S
H324 C321 0.931 . S
H325 C301 0.930 . S
H326 C298 0.930 . S
H327 C307 0.930 . S
H328 C319 0.929 . S
H329 C322 0.930 . S
C330 C331 1.351 . S
C330 N333 1.368 . S
C330 H335 0.931 . S
C331 C330 1.351 . S
C331 N332 1.373 . S
C331 H359 0.930 . S
N332 C331 1.373 . S
N332 C334 1.340 . S
N333 C330 1.368 . S
N333 C334 1.321 . S
N333 Co336 2.135 . S
C334 N332 1.340 . S
C334 N333 1.321 . S
C334 H358 0.930 . S
H335 C330 0.931 . S
Co336 N333 2.135 . S
Co336 N339 2.121 . S
Co336 O344 2.055 . S
Co336 O347 2.039 . S
Co336 N350 2.140 . S
C337 O338 1.227 . S
C337 O347 1.265 . S
O338 C337 1.227 . S
N339 Co336 2.121 . S
N339 C341 1.375 . S
N339 C342 1.313 . S
C340 C341 1.338 . S
C340 N343 1.377 . S
C340 H360 0.930 . S
C341 N339 1.375 . S
C341 C340 1.338 . S
C341 H345 0.931 . S
C342 N339 1.313 . S
C342 N343 1.344 . S
C342 H346 0.930 . S
N343 C340 1.377 . S
N343 C342 1.344 . S
O344 Co336 2.055 . S
O344 C348 1.253 . S
H345 C341 0.931 . S
H346 C342 0.930 . S
O347 Co336 2.039 . S
O347 C337 1.265 . S
C348 O344 1.253 . S
C348 O349 1.227 . S
O349 C348 1.227 . S
N350 Co336 2.140 . S
N350 C353 1.346 . S
N350 C354 1.345 . S
C351 C352 1.387 . S
C351 C355 1.391 . S
C352 C351 1.387 . S
C352 C353 1.369 . S
C352 H361 0.929 . S
C353 N350 1.346 . S
C353 C352 1.369 . S
C353 H356 0.928 . S
C354 N350 1.345 . S
C354 C355 1.371 . S
C354 H357 0.931 . S
C355 C351 1.391 . S
C355 C354 1.371 . S
C355 H362 0.930 . S
H356 C353 0.928 . S
H357 C354 0.931 . S
H358 C334 0.930 . S
H359 C331 0.930 . S
H360 C340 0.930 . S
H361 C352 0.929 . S
H362 C355 0.930 . S
C363 C364 1.351 . S
C363 N366 1.368 . S
C363 H368 0.931 . S
C364 C363 1.351 . S
C364 N365 1.373 . S
C364 H392 0.930 . S
N365 C364 1.373 . S
N365 C367 1.340 . S
N366 C363 1.368 . S
N366 C367 1.321 . S
N366 Co369 2.135 1_455 S
C367 N365 1.340 . S
C367 N366 1.321 . S
C367 H391 0.930 . S
H368 C363 0.931 . S
Co369 N366 2.135 1_655 S
Co369 N372 2.121 . S
Co369 O377 2.055 . S
Co369 O380 2.039 . S
Co369 N383 2.140 . S
C370 O371 1.227 . S
C370 O380 1.265 . S
O371 C370 1.227 . S
N372 Co369 2.121 . S
N372 C374 1.375 . S
N372 C375 1.313 . S
C373 C374 1.338 . S
C373 N376 1.377 . S
C373 H393 0.930 . S
C374 N372 1.375 . S
C374 C373 1.338 . S
C374 H378 0.931 . S
C375 N372 1.313 . S
C375 N376 1.344 . S
C375 H379 0.930 . S
N376 C373 1.377 . S
N376 C375 1.344 . S
O377 Co369 2.055 . S
O377 C381 1.253 . S
H378 C374 0.931 . S
H379 C375 0.930 . S
O380 Co369 2.039 . S
O380 C370 1.265 . S
C381 O377 1.253 . S
C381 O382 1.227 . S
O382 C381 1.227 . S
N383 Co369 2.140 . S
N383 C386 1.346 . S
N383 C387 1.345 . S
C384 C385 1.387 . S
C384 C388 1.391 . S
C385 C384 1.387 . S
C385 C386 1.369 . S
C385 H394 0.929 . S
C386 N383 1.346 . S
C386 C385 1.369 . S
C386 H389 0.928 . S
C387 N383 1.345 . S
C387 C388 1.371 . S
C387 H390 0.931 . S
C388 C384 1.391 . S
C388 C387 1.371 . S
C388 H395 0.930 . S
H389 C386 0.928 . S
H390 C387 0.931 . S
H391 C367 0.930 . S
H392 C364 0.930 . S
H393 C373 0.930 . S
H394 C385 0.929 . S
H395 C388 0.930 . S
C396 C397 1.351 . S
C396 N399 1.368 . S
C396 H401 0.931 . S
C397 C396 1.351 . S
C397 N398 1.373 . S
C397 H425 0.930 . S
N398 C397 1.373 . S
N398 C400 1.340 . S
N399 C396 1.368 . S
N399 C400 1.321 . S
N399 Co402 2.135 . S
C400 N398 1.340 . S
C400 N399 1.321 . S
C400 H424 0.930 . S
H401 C396 0.931 . S
Co402 N399 2.135 . S
Co402 N405 2.121 . S
Co402 O410 2.055 . S
Co402 O413 2.039 . S
Co402 N416 2.140 . S
C403 O404 1.227 . S
C403 O413 1.265 . S
O404 C403 1.227 . S
N405 Co402 2.121 . S
N405 C407 1.375 . S
N405 C408 1.313 . S
C406 C407 1.338 . S
C406 N409 1.377 . S
C406 H426 0.930 . S
C407 N405 1.375 . S
C407 C406 1.338 . S
C407 H411 0.931 . S
C408 N405 1.313 . S
C408 N409 1.344 . S
C408 H412 0.930 . S
N409 C406 1.377 . S
N409 C408 1.344 . S
O410 Co402 2.055 . S
O410 C414 1.253 . S
H411 C407 0.931 . S
H412 C408 0.930 . S
O413 Co402 2.039 . S
O413 C403 1.265 . S
C414 O410 1.253 . S
C414 O415 1.227 . S
O415 C414 1.227 . S
N416 Co402 2.140 . S
N416 C419 1.346 . S
N416 C420 1.345 . S
C417 C418 1.387 . S
C417 C421 1.391 . S
C418 C417 1.387 . S
C418 C419 1.369 . S
C418 H427 0.929 . S
C419 N416 1.346 . S
C419 C418 1.369 . S
C419 H422 0.928 . S
C420 N416 1.345 . S
C420 C421 1.371 . S
C420 H423 0.931 . S
C421 C417 1.391 . S
C421 C420 1.371 . S
C421 H428 0.930 . S
H422 C419 0.928 . S
H423 C420 0.931 . S
H424 C400 0.930 . S
H425 C397 0.930 . S
H426 C406 0.930 . S
H427 C418 0.929 . S
H428 C421 0.930 . S
C429 C430 1.351 . S
C429 N432 1.368 . S
C429 H434 0.931 . S
C430 C429 1.351 . S
C430 N431 1.373 . S
C430 H458 0.930 . S
N431 C430 1.373 . S
N431 C433 1.340 . S
N432 C429 1.368 . S
N432 C433 1.321 . S
N432 Co435 2.135 1_455 S
C433 N431 1.340 . S
C433 N432 1.321 . S
C433 H457 0.930 . S
H434 C429 0.931 . S
Co435 N432 2.135 1_655 S
Co435 N438 2.121 . S
Co435 O443 2.055 . S
Co435 O446 2.039 . S
Co435 N449 2.140 . S
C436 O437 1.227 . S
C436 O446 1.265 . S
O437 C436 1.227 . S
N438 Co435 2.121 . S
N438 C440 1.375 . S
N438 C441 1.313 . S
C439 C440 1.338 . S
C439 N442 1.377 . S
C439 H459 0.930 . S
C440 N438 1.375 . S
C440 C439 1.338 . S
C440 H444 0.931 . S
C441 N438 1.313 . S
C441 N442 1.344 . S
C441 H445 0.930 . S
N442 C439 1.377 . S
N442 C441 1.344 . S
O443 Co435 2.055 . S
O443 C447 1.253 . S
H444 C440 0.931 . S
H445 C441 0.930 . S
O446 Co435 2.039 . S
O446 C436 1.265 . S
C447 O443 1.253 . S
C447 O448 1.227 . S
O448 C447 1.227 . S
N449 Co435 2.140 . S
N449 C452 1.346 . S
N449 C453 1.345 . S
C450 C451 1.387 . S
C450 C454 1.391 . S
C451 C450 1.387 . S
C451 C452 1.369 . S
C451 H460 0.929 . S
C452 N449 1.346 . S
C452 C451 1.369 . S
C452 H455 0.928 . S
C453 N449 1.345 . S
C453 C454 1.371 . S
C453 H456 0.931 . S
C454 C450 1.391 . S
C454 C453 1.371 . S
C454 H461 0.930 . S
H455 C452 0.928 . S
H456 C453 0.931 . S
H457 C433 0.930 . S
H458 C430 0.930 . S
H459 C439 0.930 . S
H460 C451 0.929 . S
H461 C454 0.930 . S
C462 C463 1.351 . S
C462 N465 1.368 . S
C462 H467 0.931 . S
C463 C462 1.351 . S
C463 N464 1.373 . S
C463 H491 0.930 . S
N464 C463 1.373 . S
N464 C466 1.340 . S
N465 C462 1.368 . S
N465 C466 1.321 . S
N465 Co468 2.135 1_545 S
C466 N464 1.340 . S
C466 N465 1.321 . S
C466 H490 0.930 . S
H467 C462 0.931 . S
Co468 N465 2.135 1_565 S
Co468 N471 2.121 . S
Co468 O476 2.055 . S
Co468 O479 2.039 . S
Co468 N482 2.140 . S
C469 O470 1.227 . S
C469 O479 1.265 . S
O470 C469 1.227 . S
N471 Co468 2.121 . S
N471 C473 1.375 . S
N471 C474 1.313 . S
C472 C473 1.338 . S
C472 N475 1.377 . S
C472 H492 0.930 . S
C473 N471 1.375 . S
C473 C472 1.338 . S
C473 H477 0.931 . S
C474 N471 1.313 . S
C474 N475 1.344 . S
C474 H478 0.930 . S
N475 C472 1.377 . S
N475 C474 1.344 . S
O476 Co468 2.055 . S
O476 C480 1.253 . S
H477 C473 0.931 . S
H478 C474 0.930 . S
O479 Co468 2.039 . S
O479 C469 1.265 . S
C480 O476 1.253 . S
C480 O481 1.227 . S
O481 C480 1.227 . S
N482 Co468 2.140 . S
N482 C485 1.346 . S
N482 C486 1.345 . S
C483 C484 1.387 . S
C483 C487 1.391 . S
C484 C483 1.387 . S
C484 C485 1.369 . S
C484 H493 0.929 . S
C485 N482 1.346 . S
C485 C484 1.369 . S
C485 H488 0.928 . S
C486 N482 1.345 . S
C486 C487 1.371 . S
C486 H489 0.931 . S
C487 C483 1.391 . S
C487 C486 1.371 . S
C487 H494 0.930 . S
H488 C485 0.928 . S
H489 C486 0.931 . S
H490 C466 0.930 . S
H491 C463 0.930 . S
H492 C472 0.930 . S
H493 C484 0.929 . S
H494 C487 0.930 . S
C495 C496 1.351 . S
C495 N498 1.368 . S
C495 H500 0.931 . S
C496 C495 1.351 . S
C496 N497 1.373 . S
C496 H524 0.930 . S
N497 C496 1.373 . S
N497 C499 1.340 . S
N498 C495 1.368 . S
N498 C499 1.321 . S
N498 Co501 2.135 . S
C499 N497 1.340 . S
C499 N498 1.321 . S
C499 H523 0.930 . S
H500 C495 0.931 . S
Co501 N498 2.135 . S
Co501 N504 2.121 . S
Co501 O509 2.055 . S
Co501 O512 2.039 . S
Co501 N515 2.140 . S
C502 O503 1.227 . S
C502 O512 1.265 . S
O503 C502 1.227 . S
N504 Co501 2.121 . S
N504 C506 1.375 . S
N504 C507 1.313 . S
C505 C506 1.338 . S
C505 N508 1.377 . S
C505 H525 0.930 . S
C506 N504 1.375 . S
C506 C505 1.338 . S
C506 H510 0.931 . S
C507 N504 1.313 . S
C507 N508 1.344 . S
C507 H511 0.930 . S
N508 C505 1.377 . S
N508 C507 1.344 . S
O509 Co501 2.055 . S
O509 C513 1.253 . S
H510 C506 0.931 . S
H511 C507 0.930 . S
O512 Co501 2.039 . S
O512 C502 1.265 . S
C513 O509 1.253 . S
C513 O514 1.227 . S
O514 C513 1.227 . S
N515 Co501 2.140 . S
N515 C518 1.346 . S
N515 C519 1.345 . S
C516 C517 1.387 . S
C516 C520 1.391 . S
C517 C516 1.387 . S
C517 C518 1.369 . S
C517 H526 0.929 . S
C518 N515 1.346 . S
C518 C517 1.369 . S
C518 H521 0.928 . S
C519 N515 1.345 . S
C519 C520 1.371 . S
C519 H522 0.931 . S
C520 C516 1.391 . S
C520 C519 1.371 . S
C520 H527 0.930 . S
H521 C518 0.928 . S
H522 C519 0.931 . S
H523 C499 0.930 . S
H524 C496 0.930 . S
H525 C505 0.930 . S
H526 C517 0.929 . S
H527 C520 0.930 . S
C528 C529 1.387 . S
C528 H532 0.950 . S
C528 C537 1.390 . S
C529 C528 1.387 . S
C529 C531 1.387 . S
H530 C537 0.950 . S
C531 C529 1.387 . S
C531 C533 1.390 . S
C531 H535 0.950 . S
H532 C528 0.950 . S
C533 C531 1.390 . S
C533 C534 1.387 . S
C533 H536 0.950 . S
C534 C533 1.387 . S
C534 C537 1.387 . S
H535 C531 0.950 . S
H536 C533 0.950 . S
C537 C528 1.390 . S
C537 H530 0.950 . S
C537 C534 1.387 . S
C538 C539 1.387 . S
C538 H542 0.950 . S
C538 C547 1.390 . S
C539 C538 1.387 . S
C539 C541 1.387 . S
H540 C547 0.950 . S
C541 C539 1.387 . S
C541 C543 1.390 . S
C541 H545 0.950 . S
H542 C538 0.950 . S
C543 C541 1.390 . S
C543 C544 1.387 . S
C543 H546 0.950 . S
C544 C543 1.387 . S
C544 C547 1.387 . S
H545 C541 0.950 . S
H546 C543 0.950 . S
C547 C538 1.390 . S
C547 H540 0.950 . S
C547 C544 1.387 . S
C548 C549 1.387 . S
C548 H552 0.950 . S
C548 C557 1.390 . S
C549 C548 1.387 . S
C549 C551 1.387 . S
H550 C557 0.950 . S
C551 C549 1.387 . S
C551 C553 1.390 . S
C551 H555 0.950 . S
H552 C548 0.950 . S
C553 C551 1.390 . S
C553 C554 1.387 . S
C553 H556 0.950 . S
C554 C553 1.387 . S
C554 C557 1.387 . S
H555 C551 0.950 . S
H556 C553 0.950 . S
C557 C548 1.390 . S
C557 H550 0.950 . S
C557 C554 1.387 . S
C558 C559 1.387 . S
C558 H562 0.950 . S
C558 C567 1.390 . S
C559 C558 1.387 . S
C559 C561 1.387 . S
H560 C567 0.950 . S
C561 C559 1.387 . S
C561 C563 1.390 . S
C561 H565 0.950 . S
H562 C558 0.950 . S
C563 C561 1.390 . S
C563 C564 1.387 . S
C563 H566 0.950 . S
C564 C563 1.387 . S
C564 C567 1.387 . S
H565 C561 0.950 . S
H566 C563 0.950 . S
C567 C558 1.390 . S
C567 H560 0.950 . S
C567 C564 1.387 . S
C568 C569 1.387 . S
C568 H572 0.950 . S
C568 C577 1.390 . S
C569 C568 1.387 . S
C569 C571 1.387 . S
H570 C577 0.950 . S
C571 C569 1.387 . S
C571 C573 1.390 . S
C571 H575 0.950 . S
H572 C568 0.950 . S
C573 C571 1.390 . S
C573 C574 1.387 . S
C573 H576 0.950 . S
C574 C573 1.387 . S
C574 C577 1.387 . S
H575 C571 0.950 . S
H576 C573 0.950 . S
C577 C568 1.390 . S
C577 H570 0.950 . S
C577 C574 1.387 . S
C578 C579 1.387 . S
C578 H582 0.950 . S
C578 C587 1.390 . S
C579 C578 1.387 . S
C579 C581 1.387 . S
H580 C587 0.950 . S
C581 C579 1.387 . S
C581 C583 1.390 . S
C581 H585 0.950 . S
H582 C578 0.950 . S
C583 C581 1.390 . S
C583 C584 1.387 . S
C583 H586 0.950 . S
C584 C583 1.387 . S
C584 C587 1.387 . S
H585 C581 0.950 . S
H586 C583 0.950 . S
C587 C578 1.390 . S
C587 H580 0.950 . S
C587 C584 1.387 . S
C588 C589 1.387 . S
C588 H592 0.950 . S
C588 C597 1.390 . S
C589 C588 1.387 . S
C589 C591 1.387 . S
H590 C597 0.950 . S
C591 C589 1.387 . S
C591 C593 1.390 . S
C591 H595 0.950 . S
H592 C588 0.950 . S
C593 C591 1.390 . S
C593 C594 1.387 . S
C593 H596 0.950 . S
C594 C593 1.387 . S
C594 C597 1.387 . S
H595 C591 0.950 . S
H596 C593 0.950 . S
C597 C588 1.390 . S
C597 H590 0.950 . S
C597 C594 1.387 . S
C598 C599 1.387 . S
C598 H602 0.950 . S
C598 C607 1.390 . S
C599 C598 1.387 . S
C599 C601 1.387 . S
H600 C607 0.950 . S
C601 C599 1.387 . S
C601 C603 1.390 . S
C601 H605 0.950 . S
H602 C598 0.950 . S
C603 C601 1.390 . S
C603 C604 1.387 . S
C603 H606 0.950 . S
C604 C603 1.387 . S
C604 C607 1.387 . S
H605 C601 0.950 . S
H606 C603 0.950 . S
C607 C598 1.390 . S
C607 H600 0.950 . S
C607 C604 1.387 . S
C608 C609 1.387 . S
C608 H612 0.950 . S
C608 C617 1.390 . S
C609 C608 1.387 . S
C609 C611 1.387 . S
H610 C617 0.950 . S
C611 C609 1.387 . S
C611 C613 1.390 . S
C611 H615 0.950 . S
H612 C608 0.950 . S
C613 C611 1.390 . S
C613 C614 1.387 . S
C613 H616 0.950 . S
C614 C613 1.387 . S
C614 C617 1.387 . S
H615 C611 0.950 . S
H616 C613 0.950 . S
C617 C608 1.390 . S
C617 H610 0.950 . S
C617 C614 1.387 . S
C618 C619 1.387 . S
C618 H622 0.950 . S
C618 C627 1.390 . S
C619 C618 1.387 . S
C619 C621 1.387 . S
H620 C627 0.950 . S
C621 C619 1.387 . S
C621 C623 1.390 . S
C621 H625 0.950 . S
H622 C618 0.950 . S
C623 C621 1.390 . S
C623 C624 1.387 . S
C623 H626 0.950 . S
C624 C623 1.387 . S
C624 C627 1.387 . S
H625 C621 0.950 . S
H626 C623 0.950 . S
C627 C618 1.390 . S
C627 H620 0.950 . S
C627 C624 1.387 . S
C628 C629 1.387 . S
C628 H632 0.950 . S
C628 C637 1.390 . S
C629 C628 1.387 . S
C629 C631 1.387 . S
H630 C637 0.950 . S
C631 C629 1.387 . S
C631 C633 1.390 . S
C631 H635 0.950 . S
H632 C628 0.950 . S
C633 C631 1.390 . S
C633 C634 1.387 . S
C633 H636 0.950 . S
C634 C633 1.387 . S
C634 C637 1.387 . S
H635 C631 0.950 . S
H636 C633 0.950 . S
C637 C628 1.390 . S
C637 H630 0.950 . S
C637 C634 1.387 . S
C638 C639 1.387 . S
C638 H642 0.950 . S
C638 C647 1.390 . S
C639 C638 1.387 . S
C639 C641 1.387 . S
H640 C647 0.950 . S
C641 C639 1.387 . S
C641 C643 1.390 . S
C641 H645 0.950 . S
H642 C638 0.950 . S
C643 C641 1.390 . S
C643 C644 1.387 . S
C643 H646 0.950 . S
C644 C643 1.387 . S
C644 C647 1.387 . S
H645 C641 0.950 . S
H646 C643 0.950 . S
C647 C638 1.390 . S
C647 H640 0.950 . S
C647 C644 1.387 . S
C648 C649 1.387 . S
C648 H652 0.950 . S
C648 C657 1.390 . S
C649 C648 1.387 . S
C649 C651 1.387 . S
H650 C657 0.950 . S
C651 C649 1.387 . S
C651 C653 1.390 . S
C651 H655 0.950 . S
H652 C648 0.950 . S
C653 C651 1.390 . S
C653 C654 1.387 . S
C653 H656 0.950 . S
C654 C653 1.387 . S
C654 C657 1.387 . S
H655 C651 0.950 . S
H656 C653 0.950 . S
C657 C648 1.390 . S
C657 H650 0.950 . S
C657 C654 1.387 . S
C658 C659 1.387 . S
C658 H662 0.950 . S
C658 C667 1.390 . S
C659 C658 1.387 . S
C659 C661 1.387 . S
H660 C667 0.950 . S
C661 C659 1.387 . S
C661 C663 1.390 . S
C661 H665 0.950 . S
H662 C658 0.950 . S
C663 C661 1.390 . S
C663 C664 1.387 . S
C663 H666 0.950 . S
C664 C663 1.387 . S
C664 C667 1.387 . S
H665 C661 0.950 . S
H666 C663 0.950 . S
C667 C658 1.390 . S
C667 H660 0.950 . S
C667 C664 1.387 . S
C668 C669 1.387 . S
C668 H672 0.950 . S
C668 C677 1.390 . S
C669 C668 1.387 . S
C669 C671 1.387 . S
H670 C677 0.950 . S
C671 C669 1.387 . S
C671 C673 1.390 . S
C671 H675 0.950 . S
H672 C668 0.950 . S
C673 C671 1.390 . S
C673 C674 1.387 . S
C673 H676 0.950 . S
C674 C673 1.387 . S
C674 C677 1.387 . S
H675 C671 0.950 . S
H676 C673 0.950 . S
C677 C668 1.390 . S
C677 H670 0.950 . S
C677 C674 1.387 . S
C678 C679 1.387 . S
C678 H682 0.950 . S
C678 C687 1.390 . S
C679 C678 1.387 . S
C679 C681 1.387 . S
H680 C687 0.950 . S
C681 C679 1.387 . S
C681 C683 1.390 . S
C681 H685 0.950 . S
H682 C678 0.950 . S
C683 C681 1.390 . S
C683 C684 1.387 . S
C683 H686 0.950 . S
C684 C683 1.387 . S
C684 C687 1.387 . S
H685 C681 0.950 . S
H686 C683 0.950 . S
C687 C678 1.390 . S
C687 H680 0.950 . S
C687 C684 1.387 . S
C688 C689 1.387 . S
C688 H692 0.950 . S
C688 C697 1.390 . S
C689 C688 1.387 . S
C689 C691 1.387 . S
H690 C697 0.950 . S
C691 C689 1.387 . S
C691 C693 1.390 . S
C691 H695 0.950 . S
H692 C688 0.950 . S
C693 C691 1.390 . S
C693 C694 1.387 . S
C693 H696 0.950 . S
C694 C693 1.387 . S
C694 C697 1.387 . S
H695 C691 0.950 . S
H696 C693 0.950 . S
C697 C688 1.390 . S
C697 H690 0.950 . S
C697 C694 1.387 . S
C698 C699 1.387 . S
C698 H702 0.950 . S
C698 C707 1.390 . S
C699 C698 1.387 . S
C699 C701 1.387 . S
H700 C707 0.950 . S
C701 C699 1.387 . S
C701 C703 1.390 . S
C701 H705 0.950 . S
H702 C698 0.950 . S
C703 C701 1.390 . S
C703 C704 1.387 . S
C703 H706 0.950 . S
C704 C703 1.387 . S
C704 C707 1.387 . S
H705 C701 0.950 . S
H706 C703 0.950 . S
C707 C698 1.390 . S
C707 H700 0.950 . S
C707 C704 1.387 . S
C708 C709 1.387 . S
C708 H712 0.950 . S
C708 C717 1.390 . S
C709 C708 1.387 . S
C709 C711 1.387 . S
H710 C717 0.950 . S
C711 C709 1.387 . S
C711 C713 1.390 . S
C711 H715 0.950 . S
H712 C708 0.950 . S
C713 C711 1.390 . S
C713 C714 1.387 . S
C713 H716 0.950 . S
C714 C713 1.387 . S
C714 C717 1.387 . S
H715 C711 0.950 . S
H716 C713 0.950 . S
C717 C708 1.390 . S
C717 H710 0.950 . S
C717 C714 1.387 . S
C718 C719 1.387 . S
C718 H722 0.950 . S
C718 C727 1.390 . S
C719 C718 1.387 . S
C719 C721 1.387 . S
H720 C727 0.950 . S
C721 C719 1.387 . S
C721 C723 1.390 . S
C721 H725 0.950 . S
H722 C718 0.950 . S
C723 C721 1.390 . S
C723 C724 1.387 . S
C723 H726 0.950 . S
C724 C723 1.387 . S
C724 C727 1.387 . S
H725 C721 0.950 . S
H726 C723 0.950 . S
C727 C718 1.390 . S
C727 H720 0.950 . S
C727 C724 1.387 . S
C728 C729 1.387 . S
C728 H732 0.950 . S
C728 C737 1.390 . S
C729 C728 1.387 . S
C729 C731 1.387 . S
H730 C737 0.950 . S
C731 C729 1.387 . S
C731 C733 1.390 . S
C731 H735 0.950 . S
H732 C728 0.950 . S
C733 C731 1.390 . S
C733 C734 1.387 . S
C733 H736 0.950 . S
C734 C733 1.387 . S
C734 C737 1.387 . S
H735 C731 0.950 . S
H736 C733 0.950 . S
C737 C728 1.390 . S
C737 H730 0.950 . S
C737 C734 1.387 . S
C738 C739 1.387 . S
C738 H742 0.950 . S
C738 C747 1.390 . S
C739 C738 1.387 . S
C739 C741 1.387 . S
H740 C747 0.950 . S
C741 C739 1.387 . S
C741 C743 1.390 . S
C741 H745 0.950 . S
H742 C738 0.950 . S
C743 C741 1.390 . S
C743 C744 1.387 . S
C743 H746 0.950 . S
C744 C743 1.387 . S
C744 C747 1.387 . S
H745 C741 0.950 . S
H746 C743 0.950 . S
C747 C738 1.390 . S
C747 H740 0.950 . S
C747 C744 1.387 . S
C748 C749 1.387 . S
C748 H752 0.950 . S
C748 C757 1.390 . S
C749 C748 1.387 . S
C749 C751 1.387 . S
H750 C757 0.950 . S
C751 C749 1.387 . S
C751 C753 1.390 . S
C751 H755 0.950 . S
H752 C748 0.950 . S
C753 C751 1.390 . S
C753 C754 1.387 . S
C753 H756 0.950 . S
C754 C753 1.387 . S
C754 C757 1.387 . S
H755 C751 0.950 . S
H756 C753 0.950 . S
C757 C748 1.390 . S
C757 H750 0.950 . S
C757 C754 1.387 . S
C758 C759 1.387 . S
C758 H762 0.950 . S
C758 C767 1.390 . S
C759 C758 1.387 . S
C759 C761 1.387 . S
H760 C767 0.950 . S
C761 C759 1.387 . S
C761 C763 1.390 . S
C761 H765 0.950 . S
H762 C758 0.950 . S
C763 C761 1.390 . S
C763 C764 1.387 . S
C763 H766 0.950 . S
C764 C763 1.387 . S
C764 C767 1.387 . S
H765 C761 0.950 . S
H766 C763 0.950 . S
C767 C758 1.390 . S
C767 H760 0.950 . S
C767 C764 1.387 . S
C768 C769 1.387 . S
C768 H772 0.950 . S
C768 C777 1.390 . S
C769 C768 1.387 . S
C769 C771 1.387 . S
H770 C777 0.950 . S
C771 C769 1.387 . S
C771 C773 1.390 . S
C771 H775 0.950 . S
H772 C768 0.950 . S
C773 C771 1.390 . S
C773 C774 1.387 . S
C773 H776 0.950 . S
C774 C773 1.387 . S
C774 C777 1.387 . S
H775 C771 0.950 . S
H776 C773 0.950 . S
C777 C768 1.390 . S
C777 H770 0.950 . S
C777 C774 1.387 . S
C778 C779 1.387 . S
C778 H782 0.950 . S
C778 C787 1.390 . S
C779 C778 1.387 . S
C779 C781 1.387 . S
H780 C787 0.950 . S
C781 C779 1.387 . S
C781 C783 1.390 . S
C781 H785 0.950 . S
H782 C778 0.950 . S
C783 C781 1.390 . S
C783 C784 1.387 . S
C783 H786 0.950 . S
C784 C783 1.387 . S
C784 C787 1.387 . S
H785 C781 0.950 . S
H786 C783 0.950 . S
C787 C778 1.390 . S
C787 H780 0.950 . S
C787 C784 1.387 . S
C788 C789 1.387 . S
C788 H792 0.950 . S
C788 C797 1.390 . S
C789 C788 1.387 . S
C789 C791 1.387 . S
H790 C797 0.950 . S
C791 C789 1.387 . S
C791 C793 1.390 . S
C791 H795 0.950 . S
H792 C788 0.950 . S
C793 C791 1.390 . S
C793 C794 1.387 . S
C793 H796 0.950 . S
C794 C793 1.387 . S
C794 C797 1.387 . S
H795 C791 0.950 . S
H796 C793 0.950 . S
C797 C788 1.390 . S
C797 H790 0.950 . S
C797 C794 1.387 . S
C798 C799 1.387 . S
C798 H802 0.950 . S
C798 C807 1.390 . S
C799 C798 1.387 . S
C799 C801 1.387 . S
H800 C807 0.950 . S
C801 C799 1.387 . S
C801 C803 1.390 . S
C801 H805 0.950 . S
H802 C798 0.950 . S
C803 C801 1.390 . S
C803 C804 1.387 . S
C803 H806 0.950 . S
C804 C803 1.387 . S
C804 C807 1.387 . S
H805 C801 0.950 . S
H806 C803 0.950 . S
C807 C798 1.390 . S
C807 H800 0.950 . S
C807 C804 1.387 . S
C808 C809 1.387 . S
C808 H812 0.950 . S
C808 C817 1.390 . S
C809 C808 1.387 . S
C809 C811 1.387 . S
H810 C817 0.950 . S
C811 C809 1.387 . S
C811 C813 1.390 . S
C811 H815 0.950 . S
H812 C808 0.950 . S
C813 C811 1.390 . S
C813 C814 1.387 . S
C813 H816 0.950 . S
C814 C813 1.387 . S
C814 C817 1.387 . S
H815 C811 0.950 . S
H816 C813 0.950 . S
C817 C808 1.390 . S
C817 H810 0.950 . S
C817 C814 1.387 . S
C818 C819 1.387 . S
C818 H822 0.950 . S
C818 C827 1.390 . S
C819 C818 1.387 . S
C819 C821 1.387 . S
H820 C827 0.950 . S
C821 C819 1.387 . S
C821 C823 1.390 . S
C821 H825 0.950 . S
H822 C818 0.950 . S
C823 C821 1.390 . S
C823 C824 1.387 . S
C823 H826 0.950 . S
C824 C823 1.387 . S
C824 C827 1.387 . S
H825 C821 0.950 . S
H826 C823 0.950 . S
C827 C818 1.390 . S
C827 H820 0.950 . S
C827 C824 1.387 . S
C828 C829 1.387 . S
C828 H832 0.950 . S
C828 C837 1.390 . S
C829 C828 1.387 . S
C829 C831 1.387 . S
H830 C837 0.950 . S
C831 C829 1.387 . S
C831 C833 1.390 . S
C831 H835 0.950 . S
H832 C828 0.950 . S
C833 C831 1.390 . S
C833 C834 1.387 . S
C833 H836 0.950 . S
C834 C833 1.387 . S
C834 C837 1.387 . S
H835 C831 0.950 . S
H836 C833 0.950 . S
C837 C828 1.390 . S
C837 H830 0.950 . S
C837 C834 1.387 . S
C838 C839 1.387 . S
C838 H842 0.950 . S
C838 C847 1.390 . S
C839 C838 1.387 . S
C839 C841 1.387 . S
H840 C847 0.950 . S
C841 C839 1.387 . S
C841 C843 1.390 . S
C841 H845 0.950 . S
H842 C838 0.950 . S
C843 C841 1.390 . S
C843 C844 1.387 . S
C843 H846 0.950 . S
C844 C843 1.387 . S
C844 C847 1.387 . S
H845 C841 0.950 . S
H846 C843 0.950 . S
C847 C838 1.390 . S
C847 H840 0.950 . S
C847 C844 1.387 . S
C848 C849 1.387 . S
C848 H852 0.950 . S
C848 C857 1.390 1_556 S
C849 C848 1.387 . S
C849 C851 1.387 1_545 S
H850 C857 0.950 . S
C851 C849 1.387 1_565 S
C851 C853 1.390 1_556 S
C851 H855 0.950 . S
H852 C848 0.950 . S
C853 C851 1.390 1_554 S
C853 C854 1.387 1_565 S
C853 H856 0.950 . S
C854 C853 1.387 1_545 S
C854 C857 1.387 . S
H855 C851 0.950 . S
H856 C853 0.950 . S
C857 C848 1.390 1_554 S
C857 H850 0.950 . S
C857 C854 1.387 . S
C858 C859 1.387 . S
C858 H862 0.950 . S
C858 C867 1.390 . S
C859 C858 1.387 . S
C859 C861 1.387 . S
H860 C867 0.950 . S
C861 C859 1.387 . S
C861 C863 1.390 . S
C861 H865 0.950 . S
H862 C858 0.950 . S
C863 C861 1.390 . S
C863 C864 1.387 . S
C863 H866 0.950 . S
C864 C863 1.387 . S
C864 C867 1.387 . S
H865 C861 0.950 . S
H866 C863 0.950 . S
C867 C858 1.390 . S
C867 H860 0.950 . S
C867 C864 1.387 . S
C868 C869 1.387 . S
C868 H872 0.950 . S
C868 C877 1.390 1_554 S
C869 C868 1.387 . S
C869 C871 1.387 . S
H870 C877 0.950 . S
C871 C869 1.387 . S
C871 C873 1.390 1_554 S
C871 H875 0.950 . S
H872 C868 0.950 . S
C873 C871 1.390 1_556 S
C873 C874 1.387 . S
C873 H876 0.950 . S
C874 C873 1.387 . S
C874 C877 1.387 . S
H875 C871 0.950 . S
H876 C873 0.950 . S
C877 C868 1.390 1_556 S
C877 H870 0.950 . S
C877 C874 1.387 . S
C878 C879 1.387 1_655 S
C878 H882 0.950 . S
C878 C887 1.390 . S
C879 C878 1.387 1_455 S
C879 C881 1.387 . S
H880 C887 0.950 . S
C881 C879 1.387 . S
C881 C883 1.390 . S
C881 H885 0.950 . S
H882 C878 0.950 . S
C883 C881 1.390 . S
C883 C884 1.387 . S
C883 H886 0.950 . S
C884 C883 1.387 . S
C884 C887 1.387 1_455 S
H885 C881 0.950 . S
H886 C883 0.950 . S
C887 C878 1.390 . S
C887 H880 0.950 . S
C887 C884 1.387 1_655 S
C888 C889 1.387 . S
C888 H892 0.950 . S
C888 C897 1.390 1_554 S
C889 C888 1.387 . S
C889 C891 1.387 1_565 S
H890 C897 0.950 . S
C891 C889 1.387 1_545 S
C891 C893 1.390 1_554 S
C891 H895 0.950 . S
H892 C888 0.950 . S
C893 C891 1.390 1_556 S
C893 C894 1.387 1_545 S
C893 H896 0.950 . S
C894 C893 1.387 1_565 S
C894 C897 1.387 . S
H895 C891 0.950 . S
H896 C893 0.950 . S
C897 C888 1.390 1_556 S
C897 H890 0.950 . S
C897 C894 1.387 . S
C898 C899 1.387 . S
C898 H902 0.950 . S
C898 C907 1.390 . S
C899 C898 1.387 . S
C899 C901 1.387 . S
H900 C907 0.950 . S
C901 C899 1.387 . S
C901 C903 1.390 . S
C901 H905 0.950 . S
H902 C898 0.950 . S
C903 C901 1.390 . S
C903 C904 1.387 . S
C903 H906 0.950 . S
C904 C903 1.387 . S
C904 C907 1.387 . S
H905 C901 0.950 . S
H906 C903 0.950 . S
C907 C898 1.390 . S
C907 H900 0.950 . S
C907 C904 1.387 . S
C908 C909 1.387 . S
C908 H912 0.950 . S
C908 C917 1.390 1_554 S
C909 C908 1.387 . S
C909 C911 1.387 . S
H910 C917 0.950 . S
C911 C909 1.387 . S
C911 C913 1.390 1_554 S
C911 H915 0.950 . S
H912 C908 0.950 . S
C913 C911 1.390 1_556 S
C913 C914 1.387 . S
C913 H916 0.950 . S
C914 C913 1.387 . S
C914 C917 1.387 . S
H915 C911 0.950 . S
H916 C913 0.950 . S
C917 C908 1.390 1_556 S
C917 H910 0.950 . S
C917 C914 1.387 . S
C918 C919 1.387 . S
C918 H922 0.950 . S
C918 C927 1.390 . S
C919 C918 1.387 . S
C919 C921 1.387 1_655 S
H920 C927 0.950 . S
C921 C919 1.387 1_455 S
C921 C923 1.390 . S
C921 H925 0.950 . S
H922 C918 0.950 . S
C923 C921 1.390 . S
C923 C924 1.387 1_455 S
C923 H926 0.950 . S
C924 C923 1.387 1_655 S
C924 C927 1.387 . S
H925 C921 0.950 . S
H926 C923 0.950 . S
C927 C918 1.390 . S
C927 H920 0.950 . S
C927 C924 1.387 . S
C529 N2 1.999 . S
C534 N233 1.998 . S
C539 N134 1.998 . S
C544 N35 1.999 . S
C549 N167 1.998 . S
C554 N68 1.998 . S
C559 N101 1.998 . S
C564 N200 1.997 . S
C569 N266 1.998 . S
C574 N497 1.998 . S
C579 N299 1.998 . S
C584 N398 1.999 . S
C589 N431 1.998 . S
C594 N332 1.998 . S
C599 N365 1.998 . S
C604 N464 1.998 . S
C609 C7 1.310 . S
C614 C318 1.137 . S
C619 C351 1.143 . S
C624 C40 1.311 . S
C629 C384 1.142 . S
C634 C73 1.310 . S
C639 C285 1.139 . S
C644 C106 1.310 . S
C649 C516 1.138 . S
C654 C139 1.311 . S
C659 C417 1.144 . S
C664 C172 1.311 . S
C669 C450 1.138 . S
C674 C205 1.311 . S
C679 C483 1.138 . S
C684 C238 1.311 . S
C689 C54 1.144 . S
C694 C271 1.311 . S
C699 C87 1.137 . S
C704 C304 1.310 . S
C709 C120 1.140 . S
C714 C337 1.311 . S
C719 C370 1.311 . S
C724 C21 1.143 . S
C729 C252 1.144 . S
C734 C403 1.311 . S
C739 C153 1.143 . S
C744 C436 1.311 . S
C749 C186 1.144 . S
C754 C469 1.311 . S
C759 C219 1.139 . S
C764 C502 1.311 . S
C769 N79 1.104 . S
C774 N13 1.104 . S
C779 N46 1.104 . S
C784 N112 1.104 . S
C789 N211 1.104 . S
C794 N145 1.104 . S
C799 N244 1.099 . S
C804 N178 1.099 . S
C809 N343 1.104 . S
C814 N277 1.104 . S
C819 N376 1.104 . S
C824 N310 1.104 . S
C829 N409 1.104 . S
C834 N475 1.104 . S
C839 N508 1.099 . S
C844 N442 1.099 . S
C849 C216 1.353 . S
C854 C18 1.353 . S
C859 C249 1.351 . S
C864 C51 1.351 . S
C869 C84 1.354 . S
C874 C150 1.354 . S
C879 C183 1.351 . S
C884 C117 1.351 . S
C889 C480 1.351 . S
C894 C282 1.351 . S
C899 C513 1.354 . S
C904 C315 1.354 . S
C909 C414 1.354 . S
C914 C348 1.354 . S
C919 C381 1.351 . S
C924 C447 1.351 . S
