# Generated by pormake.
# Topology yfc, (5)-cn, num edge types: 1
# Building blocks:
#     Node 0, Type 0, BuildingBlock: BEQFEK_clean_sbu_0, # of connection points: 5
#     Node 1, Type 0, BuildingBlock: BEQFEK_clean_sbu_0, # of connection points: 5
#     Node 2, Type 0, BuildingBlock: BEQFEK_clean_sbu_0, # of connection points: 5
#     Node 3, Type 0, BuildingBlock: BEQFEK_clean_sbu_0, # of connection points: 5
#     Node 4, Type 0, BuildingBlock: BEQFEK_clean_sbu_0, # of connection points: 5
#     Node 5, Type 0, BuildingBlock: BEQFEK_clean_sbu_0, # of connection points: 5
#     Node 6, Type 0, BuildingBlock: BEQFEK_clean_sbu_0, # of connection points: 5
#     Node 7, Type 0, BuildingBlock: BEQFEK_clean_sbu_0, # of connection points: 5
#     Node 8, Type 0, BuildingBlock: BEQFEK_clean_sbu_0, # of connection points: 5
#     Node 9, Type 0, BuildingBlock: BEQFEK_clean_sbu_0, # of connection points: 5
#     Node 10, Type 0, BuildingBlock: BEQFEK_clean_sbu_0, # of connection points: 5
#     Node 11, Type 0, BuildingBlock: BEQFEK_clean_sbu_0, # of connection points: 5
#     Node 12, Type 0, BuildingBlock: BEQFEK_clean_sbu_0, # of connection points: 5
#     Node 13, Type 0, BuildingBlock: BEQFEK_clean_sbu_0, # of connection points: 5
#     Node 14, Type 0, BuildingBlock: BEQFEK_clean_sbu_0, # of connection points: 5
#     Node 15, Type 0, BuildingBlock: BEQFEK_clean_sbu_0, # of connection points: 5
#     Edge 16, Type (0, 0), BuildingBlock: CIFDUS_clean_linker_0, # of connection points: 2
#     Edge 17, Type (0, 0), BuildingBlock: CIFDUS_clean_linker_0, # of connection points: 2
#     Edge 18, Type (0, 0), BuildingBlock: CIFDUS_clean_linker_0, # of connection points: 2
#     Edge 19, Type (0, 0), BuildingBlock: CIFDUS_clean_linker_0, # of connection points: 2
#     Edge 20, Type (0, 0), BuildingBlock: CIFDUS_clean_linker_0, # of connection points: 2
#     Edge 21, Type (0, 0), BuildingBlock: CIFDUS_clean_linker_0, # of connection points: 2
#     Edge 22, Type (0, 0), BuildingBlock: CIFDUS_clean_linker_0, # of connection points: 2
#     Edge 23, Type (0, 0), BuildingBlock: CIFDUS_clean_linker_0, # of connection points: 2
#     Edge 24, Type (0, 0), BuildingBlock: CIFDUS_clean_linker_0, # of connection points: 2
#     Edge 25, Type (0, 0), BuildingBlock: CIFDUS_clean_linker_0, # of connection points: 2
#     Edge 26, Type (0, 0), BuildingBlock: CIFDUS_clean_linker_0, # of connection points: 2
#     Edge 27, Type (0, 0), BuildingBlock: CIFDUS_clean_linker_0, # of connection points: 2
#     Edge 28, Type (0, 0), BuildingBlock: CIFDUS_clean_linker_0, # of connection points: 2
#     Edge 29, Type (0, 0), BuildingBlock: CIFDUS_clean_linker_0, # of connection points: 2
#     Edge 30, Type (0, 0), BuildingBlock: CIFDUS_clean_linker_0, # of connection points: 2
#     Edge 31, Type (0, 0), BuildingBlock: CIFDUS_clean_linker_0, # of connection points: 2
#     Edge 32, Type (0, 0), BuildingBlock: CIFDUS_clean_linker_0, # of connection points: 2
#     Edge 33, Type (0, 0), BuildingBlock: CIFDUS_clean_linker_0, # of connection points: 2
#     Edge 34, Type (0, 0), BuildingBlock: CIFDUS_clean_linker_0, # of connection points: 2
#     Edge 35, Type (0, 0), BuildingBlock: CIFDUS_clean_linker_0, # of connection points: 2
#     Edge 36, Type (0, 0), BuildingBlock: CIFDUS_clean_linker_0, # of connection points: 2
#     Edge 37, Type (0, 0), BuildingBlock: CIFDUS_clean_linker_0, # of connection points: 2
#     Edge 38, Type (0, 0), BuildingBlock: CIFDUS_clean_linker_0, # of connection points: 2
#     Edge 39, Type (0, 0), BuildingBlock: CIFDUS_clean_linker_0, # of connection points: 2
#     Edge 40, Type (0, 0), BuildingBlock: CIFDUS_clean_linker_0, # of connection points: 2
#     Edge 41, Type (0, 0), BuildingBlock: CIFDUS_clean_linker_0, # of connection points: 2
#     Edge 42, Type (0, 0), BuildingBlock: CIFDUS_clean_linker_0, # of connection points: 2
#     Edge 43, Type (0, 0), BuildingBlock: CIFDUS_clean_linker_0, # of connection points: 2
#     Edge 44, Type (0, 0), BuildingBlock: CIFDUS_clean_linker_0, # of connection points: 2
#     Edge 45, Type (0, 0), BuildingBlock: CIFDUS_clean_linker_0, # of connection points: 2
#     Edge 46, Type (0, 0), BuildingBlock: CIFDUS_clean_linker_0, # of connection points: 2
#     Edge 47, Type (0, 0), BuildingBlock: CIFDUS_clean_linker_0, # of connection points: 2
#     Edge 48, Type (0, 0), BuildingBlock: CIFDUS_clean_linker_0, # of connection points: 2
#     Edge 49, Type (0, 0), BuildingBlock: CIFDUS_clean_linker_0, # of connection points: 2
#     Edge 50, Type (0, 0), BuildingBlock: CIFDUS_clean_linker_0, # of connection points: 2
#     Edge 51, Type (0, 0), BuildingBlock: CIFDUS_clean_linker_0, # of connection points: 2
#     Edge 52, Type (0, 0), BuildingBlock: CIFDUS_clean_linker_0, # of connection points: 2
#     Edge 53, Type (0, 0), BuildingBlock: CIFDUS_clean_linker_0, # of connection points: 2
#     Edge 54, Type (0, 0), BuildingBlock: CIFDUS_clean_linker_0, # of connection points: 2
#     Edge 55, Type (0, 0), BuildingBlock: CIFDUS_clean_linker_0, # of connection points: 2
# Relax obj value: 0.466
# Max RMSD: 0.184
# Mean RMSD: 0.184
data_MOF--net-yfc--node1-BEQFEK_clean_sbu_0--edge1-CIFDUS_clean_linker_0
_symmetry_space_group_name_H-M    P1
_symmetry_Int_Tables_number       1
_symmetry_cell_setting            triclinic
loop_
_symmetry_equiv_pos_as_xyz
'x, y, z'
_cell_length_a     41.736235
_cell_length_b     41.630378
_cell_length_c     41.660539
_cell_angle_alpha  90.059142
_cell_angle_beta   90.340604
_cell_angle_gamma 90.00538
loop_
_atom_site_label
_atom_site_type_symbol
_atom_site_fract_x
_atom_site_fract_y
_atom_site_fract_z
_atom_type_partial_charge
Co0 Co 0.72275 0.10595 0.16032 0.0
Co1 Co 0.70482 0.04085 0.19341 0.0
C2 C 0.6647 0.10136 0.20141 0.0
O3 O 0.68276 0.11726 0.18276 0.0
O4 O 0.6702 0.07176 0.20747 0.0
C5 C 0.71801 0.16405 0.12328 0.0
O6 O 0.68689 0.1603 0.1261 0.0
C7 C 0.6679 0.98487 0.21881 0.0
C8 C 0.70582 0.94786 0.21998 0.0
C9 C 0.67374 0.95283 0.22671 0.0
N10 N 0.69522 0.99783 0.20748 0.0
N11 N 0.71774 0.97553 0.20847 0.0
C12 C 0.63814 0.00392 0.225 0.0
H13 H 0.64451 0.02637 0.23784 0.0
H14 H 0.62691 0.01062 0.20174 0.0
H15 H 0.62072 0.99058 0.23987 0.0
C16 C 0.72464 0.06579 0.10292 0.0
N17 N 0.71817 0.06957 0.13426 0.0
N18 N 0.71186 0.04149 0.1473 0.0
C19 C 0.71452 0.01875 0.12411 0.0
C20 C 0.72256 0.03354 0.09526 0.0
C21 C 0.73592 0.09229 0.08146 0.0
H22 H 0.75799 0.10312 0.09175 0.0
H23 H 0.71724 0.11118 0.08018 0.0
H24 H 0.74102 0.08368 0.05681 0.0
O25 O 0.75723 0.09938 0.19219 0.0
O26 O 0.7445 0.05422 0.2174 0.0
H27 H 0.73312 0.9746 0.14218 0.0
H28 H 0.70881 0.97033 0.10651 0.0
C29 C 0.71136 0.98344 0.1296 0.0
H30 H 0.69028 0.97856 0.14492 0.0
H31 H 0.74144 0.97935 0.20161 0.0
O32 O 0.73675 0.14321 0.13522 0.0
C33 C 0.76287 0.07837 0.21359 0.0
Co34 Co 0.40287 0.74963 0.66799 0.0
Co35 Co 0.46854 0.72068 0.68932 0.0
C36 C 0.40696 0.68617 0.70271 0.0
O37 O 0.39118 0.7077 0.68776 0.0
O38 O 0.43732 0.68812 0.70586 0.0
C39 C 0.34664 0.75004 0.62876 0.0
O40 O 0.3549 0.72024 0.62247 0.0
C41 C 0.52295 0.67763 0.7065 0.0
C42 C 0.56419 0.70935 0.69669 0.0
C43 C 0.55627 0.6789 0.70744 0.0
N44 N 0.51181 0.70615 0.69595 0.0
N45 N 0.53665 0.72494 0.69021 0.0
C46 C 0.50206 0.64924 0.71319 0.0
H47 H 0.48304 0.64748 0.69458 0.0
H48 H 0.51602 0.62656 0.71349 0.0
H49 H 0.49033 0.65257 0.7368 0.0
C50 C 0.43763 0.76033 0.60912 0.0
N51 N 0.4357 0.74674 0.6381 0.0
N52 N 0.46156 0.73006 0.64421 0.0
C53 C 0.47934 0.72905 0.61712 0.0
C54 C 0.46477 0.74845 0.59328 0.0
C55 C 0.41757 0.78916 0.60096 0.0
H56 H 0.4099 0.80148 0.62327 0.0
H57 H 0.39562 0.7815 0.58791 0.0
H58 H 0.4312 0.80669 0.58634 0.0
O59 O 0.4157 0.77991 0.70043 0.0
O60 O 0.46328 0.7615 0.71636 0.0
H61 H 0.53031 0.72416 0.61485 0.0
H62 H 0.50811 0.69497 0.59141 0.0
C63 C 0.50869 0.70866 0.61426 0.0
H64 H 0.51013 0.69124 0.63432 0.0
H65 H 0.53478 0.74843 0.68167 0.0
O66 O 0.36404 0.76681 0.64741 0.0
C67 C 0.44072 0.78228 0.71765 0.0
Co68 Co 0.771 0.40154 0.16189 0.0
Co69 Co 0.79395 0.46633 0.19306 0.0
C70 C 0.82989 0.40331 0.20224 0.0
O71 O 0.81111 0.38778 0.18374 0.0
O72 O 0.8256 0.43313 0.20771 0.0
C73 C 0.77086 0.34335 0.125 0.0
O74 O 0.8022 0.34636 0.12582 0.0
C75 C 0.83932 0.51655 0.21589 0.0
C76 C 0.80874 0.55983 0.21547 0.0
C77 C 0.83963 0.54943 0.22211 0.0
N78 N 0.80978 0.50816 0.20556 0.0
N79 N 0.79165 0.53419 0.20556 0.0
C80 C 0.86536 0.49277 0.22287 0.0
H81 H 0.85614 0.47436 0.23964 0.0
H82 H 0.87234 0.48051 0.2003 0.0
H83 H 0.88666 0.50393 0.23424 0.0
C84 C 0.77113 0.44031 0.10332 0.0
N85 N 0.77691 0.43704 0.13493 0.0
N86 N 0.78675 0.46461 0.14698 0.0
C87 C 0.7881 0.48628 0.12272 0.0
C88 C 0.77783 0.47154 0.09443 0.0
C89 C 0.75937 0.41379 0.08197 0.0
H90 H 0.73685 0.40376 0.09179 0.0
H91 H 0.77753 0.39438 0.08147 0.0
H92 H 0.75501 0.42207 0.05703 0.0
O93 O 0.73833 0.41146 0.19412 0.0
O94 O 0.75321 0.45715 0.21753 0.0
H95 H 0.77902 0.53408 0.13863 0.0
H96 H 0.80304 0.53172 0.10285 0.0
C97 C 0.79833 0.52047 0.12651 0.0
H98 H 0.8202 0.52175 0.14172 0.0
H99 H 0.7675 0.53442 0.1989 0.0
O100 O 0.75359 0.36472 0.13802 0.0
C101 C 0.73373 0.43363 0.21457 0.0
Co102 Co 0.10795 0.77418 0.66069 0.0
Co103 Co 0.0453 0.79036 0.69892 0.0
C104 C 0.10814 0.82596 0.70989 0.0
O105 O 0.12225 0.81036 0.6879 0.0
O106 O 0.07887 0.82044 0.71655 0.0
C107 C 0.16316 0.78424 0.62258 0.0
O108 O 0.15656 0.81462 0.62803 0.0
C109 C 0.99439 0.83327 0.72335 0.0
C110 C 0.95361 0.79992 0.72854 0.0
C111 C 0.96212 0.83197 0.73166 0.0
N112 N 0.00412 0.80352 0.7151 0.0
N113 N 0.97965 0.7837 0.71856 0.0
C114 C 0.01657 0.86149 0.72564 0.0
H115 H 0.03722 0.85513 0.7412 0.0
H116 H 0.0259 0.86727 0.70143 0.0
H117 H 0.00502 0.88288 0.7363 0.0
C118 C 0.06499 0.78091 0.60557 0.0
N119 N 0.07083 0.78358 0.6372 0.0
N120 N 0.04394 0.78972 0.65241 0.0
C121 C 0.01995 0.79123 0.63039 0.0
C122 C 0.03262 0.78556 0.60009 0.0
C123 C 0.08974 0.77185 0.5813 0.0
H124 H 0.10048 0.74839 0.58795 0.0
H125 H 0.10905 0.79013 0.58146 0.0
H126 H 0.07955 0.77022 0.5567 0.0
O127 O 0.10016 0.73627 0.68766 0.0
O128 O 0.05631 0.74642 0.71613 0.0
H129 H 0.97686 0.77463 0.6521 0.0
H130 H 0.97055 0.79826 0.61622 0.0
C131 C 0.98536 0.79571 0.6383 0.0
H132 H 0.9825 0.81738 0.65352 0.0
H133 H 0.98061 0.75913 0.71367 0.0
O134 O 0.14416 0.76282 0.63282 0.0
C135 C 0.07952 0.728 0.70843 0.0
Co136 Co 0.72665 0.39556 0.85013 0.0
Co137 Co 0.70947 0.46143 0.8177 0.0
C138 C 0.66914 0.40187 0.80757 0.0
O139 O 0.68654 0.38541 0.82654 0.0
O140 O 0.67539 0.4313 0.80203 0.0
C141 C 0.71682 0.33857 0.88662 0.0
O142 O 0.68655 0.34701 0.88453 0.0
C143 C 0.66815 0.51567 0.79837 0.0
C144 C 0.70357 0.55349 0.78743 0.0
C145 C 0.67095 0.54718 0.78759 0.0
N146 N 0.69773 0.50411 0.80443 0.0
N147 N 0.71874 0.52691 0.79795 0.0
C148 C 0.63852 0.49542 0.79964 0.0
H149 H 0.63788 0.4822 0.82275 0.0
H150 H 0.6163 0.50958 0.79656 0.0
H151 H 0.6394 0.47744 0.78 0.0
C152 C 0.72883 0.43562 0.90808 0.0
N153 N 0.72283 0.43187 0.87656 0.0
N154 N 0.71552 0.45984 0.86372 0.0
C155 C 0.71627 0.48235 0.88721 0.0
C156 C 0.72502 0.46768 0.916 0.0
C157 C 0.73858 0.40886 0.93005 0.0
H158 H 0.71895 0.39096 0.93112 0.0
H159 H 0.74378 0.41751 0.95473 0.0
H160 H 0.7601 0.39672 0.92031 0.0
O161 O 0.76144 0.40227 0.81898 0.0
O162 O 0.74972 0.4484 0.79461 0.0
H163 H 0.71023 0.5308 0.90493 0.0
H164 H 0.68679 0.5205 0.86957 0.0
C165 C 0.7102 0.51732 0.88192 0.0
H166 H 0.72906 0.52717 0.86607 0.0
H167 H 0.7435 0.52414 0.80022 0.0
O168 O 0.7381 0.35688 0.8749 0.0
C169 C 0.76767 0.4238 0.79827 0.0
Co170 Co 0.1062 0.73883 0.36581 0.0
Co171 Co 0.04536 0.71644 0.3279 0.0
C172 C 0.1069 0.67904 0.32455 0.0
O173 O 0.11981 0.69941 0.34336 0.0
O174 O 0.07758 0.68189 0.31597 0.0
C175 C 0.16014 0.73129 0.40661 0.0
O176 O 0.15193 0.70085 0.40522 0.0
C177 C 0.99048 0.67677 0.30482 0.0
C178 C 0.95411 0.71439 0.29624 0.0
C179 C 0.9589 0.6815 0.29499 0.0
N180 N 0.00362 0.7056 0.31149 0.0
N181 N 0.98176 0.72793 0.30605 0.0
C182 C 0.00718 0.64544 0.31019 0.0
H183 H 0.02446 0.64762 0.33043 0.0
H184 H 0.98973 0.62601 0.31526 0.0
H185 H 0.02075 0.63904 0.28826 0.0
C186 C 0.06246 0.73813 0.42002 0.0
N187 N 0.06878 0.73246 0.38898 0.0
N188 N 0.04263 0.7228 0.37404 0.0
C189 C 0.01862 0.7216 0.39581 0.0
C190 C 0.0305 0.7316 0.42551 0.0
C191 C 0.08676 0.74996 0.44385 0.0
H192 H 0.09839 0.77198 0.43449 0.0
H193 H 0.10551 0.73137 0.44709 0.0
H194 H 0.07605 0.75521 0.46758 0.0
O195 O 0.09978 0.77383 0.33531 0.0
O196 O 0.05829 0.75789 0.30571 0.0
H197 H 0.97376 0.73093 0.3729 0.0
H198 H 0.97055 0.70945 0.41041 0.0
C199 C 0.98488 0.71218 0.38822 0.0
H200 H 0.98474 0.68928 0.37458 0.0
H201 H 0.98556 0.75246 0.30964 0.0
O202 O 0.14222 0.75206 0.3933 0.0
C203 C 0.08019 0.77834 0.31233 0.0
Co204 Co 0.77993 0.10859 0.8502 0.0
Co205 Co 0.79377 0.04134 0.81944 0.0
C206 C 0.83698 0.09873 0.80838 0.0
O207 O 0.82014 0.11621 0.82675 0.0
O208 O 0.8297 0.06938 0.8033 0.0
C209 C 0.79214 0.16651 0.88509 0.0
O210 O 0.82223 0.15763 0.88259 0.0
C211 C 0.83129 0.98366 0.80275 0.0
C212 C 0.79343 0.94729 0.79538 0.0
C213 C 0.82634 0.95161 0.79489 0.0
N214 N 0.80263 0.99767 0.8075 0.0
N215 N 0.78011 0.97579 0.80287 0.0
C216 C 0.8627 1.00033 0.80763 0.0
H217 H 0.86069 0.01827 0.82724 0.0
H218 H 0.88199 0.98289 0.81345 0.0
H219 H 0.8691 0.0132 0.78526 0.0
C220 C 0.77446 0.07032 0.90872 0.0
N221 N 0.78247 0.07296 0.87763 0.0
N222 N 0.78711 0.04421 0.86536 0.0
C223 C 0.7818 0.0222 0.8887 0.0
C224 C 0.77367 0.03811 0.91696 0.0
C225 C 0.76416 0.09802 0.92916 0.0
H226 H 0.7837 0.11603 0.93018 0.0
H227 H 0.75837 0.09042 0.95398 0.0
H228 H 0.74283 0.1096 0.91815 0.0
O229 O 0.74445 0.1026 0.81889 0.0
O230 O 0.75441 0.05561 0.79549 0.0
H231 H 0.76028 0.98075 0.86754 0.0
H232 H 0.77859 0.97351 0.90628 0.0
C233 C 0.78095 0.98673 0.88329 0.0
H234 H 0.80317 0.97904 0.87099 0.0
H235 H 0.75562 0.98026 0.80509 0.0
O236 O 0.77025 0.14831 0.87403 0.0
C237 C 0.7374 0.0809 0.79848 0.0
Co238 Co 0.39458 0.75363 0.33488 0.0
Co239 Co 0.45879 0.77782 0.30511 0.0
C240 C 0.39691 0.81346 0.29495 0.0
O241 O 0.38188 0.79425 0.31321 0.0
O242 O 0.42658 0.80956 0.28917 0.0
C243 C 0.34088 0.75894 0.37579 0.0
O244 O 0.34933 0.78934 0.3766 0.0
C245 C 0.50915 0.82361 0.28652 0.0
C246 C 0.55145 0.7923 0.28113 0.0
C247 C 0.54134 0.82389 0.27817 0.0
N248 N 0.50057 0.79326 0.29358 0.0
N249 N 0.52604 0.77469 0.29043 0.0
C250 C 0.48735 0.85194 0.28986 0.0
H251 H 0.47275 0.85444 0.26766 0.0
H252 H 0.47088 0.84825 0.31034 0.0
H253 H 0.50117 0.8744 0.29375 0.0
C254 C 0.43292 0.75356 0.39345 0.0
N255 N 0.43029 0.75835 0.36176 0.0
N256 N 0.45638 0.77226 0.35107 0.0
C257 C 0.47554 0.77903 0.37663 0.0
C258 C 0.46106 0.7674 0.40447 0.0
C259 C 0.40843 0.73657 0.41339 0.0
H260 H 0.39723 0.71681 0.39944 0.0
H261 H 0.38963 0.75382 0.42078 0.0
H262 H 0.41959 0.72647 0.43544 0.0
O263 O 0.40345 0.72103 0.30311 0.0
O264 O 0.44969 0.73586 0.28117 0.0
H265 H 0.52371 0.78469 0.36081 0.0
H266 H 0.51539 0.80383 0.39891 0.0
C267 C 0.50563 0.79835 0.37467 0.0
H268 H 0.50077 0.82101 0.36151 0.0
H269 H 0.52603 0.74995 0.29445 0.0
O270 O 0.35729 0.73923 0.35944 0.0
C271 C 0.4261 0.71637 0.28349 0.0
Co272 Co 0.28491 0.88893 0.86587 0.0
Co273 Co 0.30546 0.95062 0.82771 0.0
C274 C 0.34728 0.89179 0.8304 0.0
O275 O 0.32663 0.87769 0.84765 0.0
O276 O 0.34265 0.92044 0.82057 0.0
C277 C 0.29405 0.83561 0.90764 0.0
O278 O 0.32388 0.84567 0.9076 0.0
C279 C 0.34588 0.0039 0.80406 0.0
C280 C 0.30969 0.03905 0.7878 0.0
C281 C 0.34246 0.03383 0.78957 0.0
N282 N 0.31656 0.99193 0.81016 0.0
N283 N 0.29506 0.01316 0.80041 0.0
C284 C 0.37641 0.98753 0.81354 0.0
H285 H 0.37293 0.97392 0.83613 0.0
H286 H 0.39608 0.00518 0.81689 0.0
H287 H 0.38325 0.9703 0.79443 0.0
C288 C 0.27775 0.93506 0.91806 0.0
N289 N 0.28705 0.92792 0.88812 0.0
N290 N 0.29453 0.95447 0.8727 0.0
C291 C 0.28973 0.97963 0.89276 0.0
C292 C 0.27907 0.96801 0.92218 0.0
C293 C 0.26494 0.91081 0.94121 0.0
H294 H 0.24417 0.89824 0.93017 0.0
H295 H 0.28371 0.89264 0.94625 0.0
H296 H 0.25748 0.92197 0.96418 0.0
O297 O 0.25226 0.8917 0.8315 0.0
O298 O 0.26764 0.93365 0.80236 0.0
H299 H 0.27376 0.0199 0.86543 0.0
H300 H 0.29035 0.03022 0.9043 0.0
C301 C 0.29274 0.01407 0.88323 0.0
H302 H 0.31629 0.01805 0.87168 0.0
H303 H 0.27034 0.00982 0.80208 0.0
O304 O 0.27275 0.85223 0.89339 0.0
C305 C 0.24855 0.91024 0.80749 0.0
Co306 Co 0.60677 0.28233 0.34528 0.0
Co307 Co 0.53999 0.30004 0.3144 0.0
C308 C 0.59843 0.34168 0.3052 0.0
O309 O 0.61534 0.3231 0.32256 0.0
O310 O 0.56885 0.33589 0.29998 0.0
C311 C 0.66413 0.29372 0.38105 0.0
O312 O 0.65508 0.32387 0.37897 0.0
C313 C 0.48372 0.33617 0.28763 0.0
C314 C 0.44499 0.30074 0.29424 0.0
C315 C 0.4509 0.33147 0.28292 0.0
N316 N 0.49622 0.30968 0.30165 0.0
N317 N 0.47285 0.2886 0.30522 0.0
C318 C 0.5036 0.36361 0.27583 0.0
H319 H 0.52472 0.35411 0.26291 0.0
H320 H 0.51233 0.37786 0.29664 0.0
H321 H 0.49011 0.37933 0.25911 0.0
C322 C 0.56872 0.27824 0.40376 0.0
N323 N 0.57116 0.28505 0.37234 0.0
N324 N 0.54286 0.29304 0.36065 0.0
C325 C 0.52153 0.2923 0.38513 0.0
C326 C 0.53727 0.28243 0.41304 0.0
C327 C 0.59622 0.2677 0.42446 0.0
H328 H 0.60833 0.24689 0.41315 0.0
H329 H 0.61378 0.2876 0.42638 0.0
H330 H 0.58847 0.26102 0.44898 0.0
O331 O 0.60012 0.24753 0.31397 0.0
O332 O 0.55394 0.26007 0.2901 0.0
H333 H 0.47374 0.27883 0.37287 0.0
H334 H 0.47652 0.30678 0.4057 0.0
C335 C 0.48674 0.30021 0.38204 0.0
H336 H 0.4833 0.32029 0.3649 0.0
H337 H 0.476 0.2657 0.31492 0.0
O338 O 0.64621 0.2719 0.36939 0.0
C339 C 0.57837 0.24176 0.29324 0.0
Co340 Co 0.23676 0.60942 0.85146 0.0
Co341 Co 0.21521 0.54794 0.81261 0.0
C342 C 0.17408 0.60651 0.81446 0.0
O343 O 0.19474 0.62042 0.83221 0.0
O344 O 0.1783 0.5778 0.80467 0.0
C345 C 0.22621 0.66127 0.89473 0.0
O346 O 0.19649 0.65095 0.89312 0.0
C347 C 0.17865 0.49392 0.78199 0.0
C348 C 0.21491 0.45534 0.78363 0.0
C349 C 0.1835 0.46157 0.77459 0.0
N350 N 0.20574 0.50579 0.79534 0.0
N351 N 0.22732 0.48258 0.79589 0.0
C352 C 0.14997 0.51403 0.77404 0.0
H353 H 0.15781 0.53757 0.76451 0.0
H354 H 0.13599 0.51834 0.7962 0.0
H355 H 0.13447 0.50237 0.75573 0.0
C356 C 0.24114 0.56323 0.90419 0.0
N357 N 0.23498 0.57018 0.87328 0.0
N358 N 0.22444 0.54437 0.85827 0.0
C359 C 0.22249 0.52023 0.88 0.0
C360 C 0.23362 0.53131 0.90962 0.0
C361 C 0.25153 0.58766 0.92854 0.0
H362 H 0.27156 0.60212 0.91879 0.0
H363 H 0.23122 0.60408 0.93346 0.0
H364 H 0.25916 0.57652 0.95147 0.0
O365 O 0.26929 0.60745 0.81773 0.0
O366 O 0.25329 0.56588 0.78806 0.0
H367 H 0.22834 0.47281 0.86161 0.0
H368 H 0.20174 0.47527 0.89528 0.0
C369 C 0.20938 0.48753 0.87297 0.0
H370 H 0.18881 0.48932 0.85609 0.0
H371 H 0.25054 0.48528 0.80492 0.0
O372 O 0.24797 0.64579 0.88009 0.0
C373 C 0.27254 0.58922 0.79347 0.0
Co374 Co 0.89278 0.22765 0.34974 0.0
Co375 Co 0.95839 0.20918 0.31813 0.0
C376 C 0.89845 0.16948 0.30831 0.0
O377 O 0.88228 0.18724 0.32701 0.0
O378 O 0.92781 0.17542 0.30267 0.0
C379 C 0.83593 0.21855 0.38593 0.0
O380 O 0.84451 0.18822 0.38463 0.0
C381 C 0.01036 0.16605 0.29783 0.0
C382 C 0.0508 0.19933 0.29038 0.0
C383 C 0.04207 0.16728 0.288 0.0
N384 N 1.00064 0.19598 0.30527 0.0
N385 N 0.02501 0.21575 0.30083 0.0
C386 C 0.99011 0.13669 0.30185 0.0
H387 H 0.97461 0.13937 0.32323 0.0
H388 H 0.00513 0.11486 0.3046 0.0
H389 H 0.97451 0.13377 0.28038 0.0
C390 C 0.93238 0.22967 0.40806 0.0
N391 N 0.92884 0.22375 0.37651 0.0
N392 N 0.95668 0.21575 0.36413 0.0
C393 C 0.97888 0.21589 0.388 0.0
C394 C 0.96414 0.22501 0.41652 0.0
C395 C 0.90568 0.23994 0.42962 0.0
H396 H 0.89354 0.26126 0.41922 0.0
H397 H 0.88787 0.22025 0.43119 0.0
H398 H 0.91432 0.24575 0.45418 0.0
O399 O 0.8999 0.26177 0.31775 0.0
O400 O 0.94594 0.24938 0.29399 0.0
H401 H 0.02456 0.22767 0.3686 0.0
H402 H 0.02646 0.20707 0.40677 0.0
C403 C 0.01359 0.20852 0.38342 0.0
H404 H 0.01609 0.18547 0.37028 0.0
H405 H 0.02396 0.2405 0.30465 0.0
O406 O 0.85416 0.23975 0.37391 0.0
C407 C 0.92142 0.26751 0.29702 0.0
Co408 Co 0.25064 0.60379 0.15001 0.0
Co409 Co 0.27792 0.54455 0.18811 0.0
C410 C 0.31466 0.60663 0.1835 0.0
O411 O 0.29255 0.61887 0.16629 0.0
O412 O 0.31227 0.57803 0.1942 0.0
C413 C 0.25056 0.65711 0.10681 0.0
O414 O 0.28161 0.65196 0.10614 0.0
C415 C 0.32447 0.49525 0.21048 0.0
C416 C 0.29257 0.4557 0.22514 0.0
C417 C 0.32457 0.46446 0.22354 0.0
N418 N 0.29388 0.5043 0.20502 0.0
N419 N 0.27499 0.48044 0.21384 0.0
C420 C 0.35294 0.51496 0.20128 0.0
H421 H 0.34763 0.52867 0.17905 0.0
H422 H 0.37428 0.49959 0.19735 0.0
H423 H 0.35832 0.53233 0.22079 0.0
C424 C 0.24843 0.55752 0.0974 0.0
N425 N 0.25468 0.56481 0.12819 0.0
N426 N 0.2672 0.53978 0.14293 0.0
C427 C 0.27014 0.51576 0.12118 0.0
C428 C 0.25783 0.52613 0.09173 0.0
C429 C 0.23648 0.58144 0.07329 0.0
H430 H 0.21472 0.59344 0.08264 0.0
H431 H 0.25515 0.6 0.06962 0.0
H432 H 0.23083 0.57038 0.04975 0.0
O433 O 0.22033 0.59891 0.18505 0.0
O434 O 0.23863 0.55808 0.21422 0.0
H435 H 0.28723 0.46908 0.10617 0.0
H436 H 0.30945 0.48782 0.13877 0.0
C437 C 0.28529 0.48398 0.12818 0.0
H438 H 0.27065 0.47105 0.14615 0.0
H439 H 0.25004 0.48105 0.21215 0.0
O440 O 0.23284 0.63815 0.12265 0.0
C441 C 0.21804 0.58029 0.20902 0.0
Co442 Co 0.89655 0.27454 0.66236 0.0
Co443 Co 0.96277 0.29314 0.69346 0.0
C444 C 0.90282 0.33212 0.70485 0.0
O445 O 0.88642 0.31434 0.68619 0.0
O446 O 0.9324 0.32653 0.71004 0.0
C447 C 0.83966 0.28528 0.62639 0.0
O448 O 0.84927 0.31529 0.62804 0.0
C449 C 0.01524 0.33713 0.71088 0.0
C450 C 0.05526 0.30424 0.7218 0.0
C451 C 0.04694 0.33649 0.72135 0.0
N452 N 0.00523 0.30677 0.70586 0.0
N453 N 0.02936 0.28722 0.71233 0.0
C454 C 0.9952 0.36612 0.7039 0.0
H455 H 0.97867 0.36113 0.68353 0.0
H456 H 0.01044 0.38714 0.69804 0.0
H457 H 0.98063 0.37196 0.72532 0.0
C458 C 0.93479 0.27364 0.6036 0.0
N459 N 0.93188 0.27939 0.6352 0.0
N460 N 0.95995 0.28737 0.64739 0.0
C461 C 0.98169 0.28732 0.62336 0.0
C462 C 0.96637 0.27837 0.5949 0.0
C463 C 0.90773 0.26318 0.58226 0.0
H464 H 0.88989 0.28284 0.58061 0.0
H465 H 0.91592 0.2572 0.55769 0.0
H466 H 0.89578 0.24192 0.59286 0.0
O467 O 0.90486 0.23948 0.69319 0.0
O468 O 0.95127 0.25208 0.71671 0.0
H469 H 0.02938 0.29415 0.60457 0.0
H470 H 0.0195 0.31798 0.63964 0.0
C471 C 0.01656 0.29425 0.62784 0.0
H472 H 0.0272 0.27586 0.64393 0.0
H473 H 0.02807 0.26225 0.71058 0.0
O474 O 0.85729 0.26336 0.63826 0.0
C475 C 0.92703 0.23352 0.71345 0.0
Co476 Co 0.22052 0.89274 0.15128 0.0
Co477 Co 0.20405 0.95457 0.19145 0.0
C478 C 0.16156 0.89557 0.19146 0.0
O479 O 0.17993 0.88121 0.17192 0.0
O480 O 0.16764 0.92411 0.201 0.0
C481 C 0.21172 0.83917 0.10876 0.0
O482 O 0.18108 0.84546 0.11215 0.0
C483 C 0.16844 0.00925 0.22141 0.0
C484 C 0.20737 0.04485 0.2266 0.0
C485 C 0.17491 0.04047 0.23188 0.0
N486 N 0.19572 0.99632 0.20991 0.0
N487 N 0.21886 0.01772 0.21343 0.0
C488 C 0.13793 0.99075 0.22519 0.0
H489 H 0.1433 0.96662 0.23498 0.0
H490 H 0.12636 0.98767 0.20133 0.0
H491 H 0.12113 0.00276 0.24184 0.0
C492 C 0.22486 0.93886 0.09908 0.0
N493 N 0.21763 0.93193 0.12965 0.0
N494 N 0.212 0.9586 0.14568 0.0
C495 C 0.21593 0.98364 0.12525 0.0
C496 C 0.22407 0.9718 0.0951 0.0
C497 C 0.23575 0.91445 0.07506 0.0
H498 H 0.25716 0.90175 0.08455 0.0
H499 H 0.21647 0.89648 0.07132 0.0
H500 H 0.24171 0.92546 0.0516 0.0
O501 O 0.2548 0.89448 0.18396 0.0
O502 O 0.24274 0.93668 0.21431 0.0
H503 H 0.23586 0.02477 0.14844 0.0
H504 H 0.21253 0.03387 0.11305 0.0
C505 C 0.21405 0.01823 0.13458 0.0
H506 H 0.19282 0.02229 0.14994 0.0
H507 H 0.24263 0.01373 0.20689 0.0
O508 O 0.23227 0.85728 0.12224 0.0
C509 C 0.26054 0.91262 0.20789 0.0
Co510 Co 0.60827 0.22713 0.65932 0.0
Co511 Co 0.54179 0.20848 0.68948 0.0
C512 C 0.60129 0.16901 0.70111 0.0
O513 O 0.61785 0.18729 0.68333 0.0
O514 O 0.57154 0.17414 0.70541 0.0
C515 C 0.66532 0.21553 0.62438 0.0
O516 O 0.65552 0.18559 0.62602 0.0
C517 C 0.48777 0.17134 0.71763 0.0
C518 C 0.44677 0.20355 0.70824 0.0
C519 C 0.45472 0.17406 0.72151 0.0
N520 N 0.49852 0.1976 0.70205 0.0
N521 N 0.47385 0.21685 0.69689 0.0
C522 C 0.50939 0.14641 0.73194 0.0
H523 H 0.52943 0.15843 0.74473 0.0
H524 H 0.51955 0.13138 0.71249 0.0
H525 H 0.49684 0.13096 0.74947 0.0
C526 C 0.57029 0.22935 0.60019 0.0
N527 N 0.57281 0.2231 0.63175 0.0
N528 N 0.54466 0.21458 0.64314 0.0
C529 C 0.52344 0.21431 0.61831 0.0
C530 C 0.53901 0.22412 0.5905 0.0
C531 C 0.59748 0.24057 0.57976 0.0
H532 H 0.61527 0.22092 0.57758 0.0
H533 H 0.58939 0.24753 0.55533 0.0
H534 H 0.60944 0.26136 0.59142 0.0
O535 O 0.60078 0.26205 0.69017 0.0
O536 O 0.55474 0.24879 0.71341 0.0
H537 H 0.47931 0.19734 0.59725 0.0
H538 H 0.48592 0.18578 0.63873 0.0
C539 C 0.48891 0.20526 0.62087 0.0
H540 H 0.47501 0.22653 0.62874 0.0
H541 H 0.47554 0.23929 0.68589 0.0
O542 O 0.64775 0.23766 0.63579 0.0
C543 C 0.57888 0.26745 0.71059 0.0
H544 H 0.61025 0.94212 0.21284 0.0
H545 H 0.6891 0.90688 0.27018 0.0
H546 H 0.65525 0.86411 0.29131 0.0
H547 H 0.60335 0.83619 0.29311 0.0
H548 H 0.52417 0.87191 0.23666 0.0
H549 H 0.55762 0.91551 0.21639 0.0
C550 C 0.61977 0.92569 0.23066 0.0
C551 C 0.652 0.92822 0.24048 0.0
C552 C 0.60004 0.90122 0.24296 0.0
C553 C 0.66432 0.90564 0.26239 0.0
C554 C 0.64497 0.88118 0.27453 0.0
C555 C 0.59342 0.85366 0.27652 0.0
C556 C 0.56119 0.85115 0.26688 0.0
C557 C 0.61283 0.87864 0.2649 0.0
C558 C 0.54865 0.8738 0.24518 0.0
C559 C 0.56787 0.89859 0.23332 0.0
H560 H 0.67191 0.58473 0.73475 0.0
H561 H 0.61406 0.56146 0.81684 0.0
H562 H 0.57244 0.59859 0.79832 0.0
H563 H 0.55325 0.63913 0.75948 0.0
H564 H 0.61251 0.66415 0.67886 0.0
H565 H 0.65299 0.62536 0.69626 0.0
C566 C 0.65011 0.58774 0.74849 0.0
C567 C 0.64558 0.5696 0.77654 0.0
C568 C 0.62661 0.60959 0.73799 0.0
C569 C 0.61751 0.57412 0.79443 0.0
C570 C 0.59387 0.59564 0.78404 0.0
C571 C 0.57474 0.63559 0.74542 0.0
C572 C 0.57962 0.65401 0.71757 0.0
C573 C 0.59813 0.61348 0.75581 0.0
C574 C 0.60813 0.65007 0.70025 0.0
C575 C 0.63128 0.62791 0.71018 0.0
H576 H 0.96496 0.62897 0.25602 0.0
H577 H 0.89677 0.68145 0.31303 0.0
H578 H 0.85414 0.64474 0.29632 0.0
H579 H 0.83583 0.59853 0.26446 0.0
H580 H 0.90288 0.54826 0.20424 0.0
H581 H 0.94633 0.58279 0.22348 0.0
C582 C 0.94087 0.63196 0.26516 0.0
C583 C 0.93407 0.65759 0.28608 0.0
C584 C 0.91627 0.6111 0.25489 0.0
C585 C 0.90257 0.66181 0.297 0.0
C586 C 0.87819 0.64085 0.28745 0.0
C587 C 0.86 0.59505 0.25567 0.0
C588 C 0.86629 0.57011 0.23382 0.0
C589 C 0.88468 0.61557 0.2662 0.0
C590 C 0.89762 0.56631 0.22218 0.0
C591 C 0.92243 0.58634 0.23287 0.0
H592 H 0.91366 0.82939 0.77459 0.0
H593 H 0.95907 0.89316 0.70724 0.0
H594 H 0.9229 0.93645 0.72275 0.0
H595 H 0.87705 0.95591 0.75439 0.0
H596 H 0.8283 0.89068 0.81778 0.0
H597 H 0.86659 0.84817 0.80463 0.0
C598 C 0.91573 0.85283 0.76344 0.0
C599 C 0.94006 0.85841 0.74088 0.0
C600 C 0.89402 0.87731 0.77164 0.0
C601 C 0.94183 0.88866 0.72601 0.0
C602 C 0.92077 0.91334 0.7345 0.0
C603 C 0.87515 0.9325 0.76561 0.0
C604 C 0.8503 0.92651 0.78743 0.0
C605 C 0.89681 0.90798 0.75735 0.0
C606 C 0.84741 0.89582 0.80106 0.0
C607 C 0.86927 0.87155 0.79355 0.0
H608 H 0.34346 0.09888 0.79171 0.0
H609 H 0.39667 0.01749 0.75657 0.0
H610 H 0.43623 0.05342 0.73279 0.0
H611 H 0.45452 0.10815 0.71997 0.0
H612 H 0.40207 0.18959 0.75626 0.0
H613 H 0.36294 0.1536 0.78066 0.0
C614 C 0.36386 0.08905 0.77903 0.0
C615 C 0.36743 0.05554 0.77651 0.0
C616 C 0.3865 0.10991 0.7653 0.0
C617 C 0.39382 0.04313 0.75975 0.0
C618 C 0.4163 0.06371 0.74582 0.0
C619 C 0.4351 0.11805 0.73401 0.0
C620 C 0.4318 0.15159 0.737 0.0
C621 C 0.41287 0.09715 0.74838 0.0
C622 C 0.40539 0.1639 0.75382 0.0
C623 C 0.38301 0.14332 0.76785 0.0
H624 H 0.44531 0.3973 0.28755 0.0
H625 H 0.39979 0.31359 0.24661 0.0
H626 H 0.35715 0.34711 0.2244 0.0
H627 H 0.33212 0.40012 0.21714 0.0
H628 H 0.37804 0.48411 0.25678 0.0
H629 H 0.42159 0.45085 0.27795 0.0
C630 C 0.42663 0.38647 0.27296 0.0
C631 C 0.42628 0.35294 0.26818 0.0
C632 C 0.4022 0.40602 0.25991 0.0
C633 C 0.40085 0.3393 0.25054 0.0
C634 C 0.37643 0.35847 0.23776 0.0
C635 C 0.3518 0.41115 0.23022 0.0
C636 C 0.35205 0.44463 0.23488 0.0
C637 C 0.37676 0.39183 0.24239 0.0
C638 C 0.37763 0.45854 0.25206 0.0
C639 C 0.40242 0.43945 0.26448 0.0
H640 H 0.11053 0.34421 0.71069 0.0
H641 H 0.03008 0.38884 0.75737 0.0
H642 H 0.06466 0.43199 0.77706 0.0
H643 H 0.11845 0.45561 0.7834 0.0
H644 H 0.19873 0.41165 0.73563 0.0
H645 H 0.16382 0.36938 0.71477 0.0
C646 C 0.10057 0.36353 0.72499 0.0
C647 C 0.06765 0.36357 0.73202 0.0
C648 C 0.12067 0.38829 0.73632 0.0
C649 C 0.05512 0.38865 0.75079 0.0
C650 C 0.07498 0.4132 0.76236 0.0
C651 C 0.12818 0.43744 0.76759 0.0
C652 C 0.16115 0.43739 0.7605 0.0
C653 C 0.10784 0.41325 0.75538 0.0
C654 C 0.17345 0.41249 0.74132 0.0
C655 C 0.15349 0.38827 0.72933 0.0
H656 H 0.10447 0.15534 0.30192 0.0
H657 H 0.02518 0.12084 0.24483 0.0
H658 H 0.0589 0.0784 0.22253 0.0
H659 H 0.11159 0.05234 0.21775 0.0
H660 H 0.19028 0.08524 0.2768 0.0
H661 H 0.15651 0.12749 0.29912 0.0
C662 C 0.09462 0.13838 0.28472 0.0
C663 C 0.0623 0.14091 0.27539 0.0
C664 C 0.11412 0.11387 0.27217 0.0
C665 C 0.0498 0.11893 0.25296 0.0
C666 C 0.06914 0.0948 0.24 0.0
C667 C 0.1211 0.06802 0.23626 0.0
C668 C 0.15326 0.06494 0.2462 0.0
C669 C 0.10136 0.09202 0.24942 0.0
C670 C 0.16556 0.08681 0.2689 0.0
C671 C 0.14624 0.111 0.28173 0.0
H672 H 0.63048 0.15412 0.183 0.0
H673 H 0.64566 0.08974 0.26271 0.0
H674 H 0.61687 0.12644 0.29812 0.0
H675 H 0.59451 0.1805 0.30793 0.0
H676 H 0.57644 0.24364 0.22801 0.0
H677 H 0.59881 0.20372 0.19108 0.0
C678 C 0.62674 0.14776 0.20795 0.0
C679 C 0.64053 0.11938 0.22027 0.0
C680 C 0.60993 0.16894 0.22819 0.0
C681 C 0.63526 0.11134 0.25257 0.0
C682 C 0.61902 0.13248 0.27293 0.0
C683 C 0.59467 0.18506 0.28229 0.0
C684 C 0.58401 0.21495 0.27063 0.0
C685 C 0.60729 0.16187 0.26124 0.0
C686 C 0.58427 0.22068 0.23744 0.0
C687 C 0.59733 0.19797 0.21639 0.0
H688 H 0.33509 0.6024 0.80494 0.0
H689 H 0.26449 0.59789 0.72925 0.0
H690 H 0.30114 0.62575 0.69286 0.0
H691 H 0.35067 0.65756 0.68515 0.0
H692 H 0.42259 0.6587 0.75991 0.0
H693 H 0.38836 0.6256 0.79392 0.0
C694 C 0.32815 0.60675 0.78019 0.0
C695 C 0.29717 0.59824 0.76974 0.0
C696 C 0.34947 0.62249 0.75939 0.0
C697 C 0.28834 0.60396 0.73768 0.0
C698 C 0.30918 0.62017 0.717 0.0
C699 C 0.35907 0.64998 0.70864 0.0
C700 C 0.38896 0.66094 0.72016 0.0
C701 C 0.33941 0.63049 0.72794 0.0
C702 C 0.39972 0.65063 0.75047 0.0
C703 C 0.38006 0.63185 0.77003 0.0
H704 H 0.90485 0.32894 0.30994 0.0
H705 H 0.9214 0.26312 0.23197 0.0
H706 H 0.89643 0.30085 0.19423 0.0
H707 H 0.86319 0.34941 0.18518 0.0
H708 H 0.84986 0.41647 0.26297 0.0
H709 H 0.88065 0.38181 0.29885 0.0
C710 C 0.90384 0.32338 0.2845 0.0
C711 C 0.91485 0.29338 0.27366 0.0
C712 C 0.88966 0.34526 0.263 0.0
C713 C 0.91339 0.28626 0.24074 0.0
C714 C 0.89879 0.30768 0.21924 0.0
C715 C 0.86765 0.3567 0.20981 0.0
C716 C 0.85392 0.38531 0.22147 0.0
C717 C 0.88581 0.33677 0.23032 0.0
C718 C 0.86017 0.39465 0.25334 0.0
C719 C 0.87762 0.37471 0.27398 0.0
H720 H 0.18815 0.89077 0.82074 0.0
H721 H 0.25146 0.91163 0.74213 0.0
H722 H 0.21222 0.88949 0.70407 0.0
H723 H 0.16235 0.85887 0.69412 0.0
H724 H 0.0978 0.84104 0.77264 0.0
H725 H 0.13475 0.86781 0.80967 0.0
C726 C 0.19305 0.89097 0.79519 0.0
C727 C 0.22273 0.90249 0.78422 0.0
C728 C 0.17021 0.87861 0.77349 0.0
C729 C 0.22873 0.90297 0.75109 0.0
C730 C 0.20638 0.89012 0.72938 0.0
C731 C 0.15612 0.86138 0.71924 0.0
C732 C 0.12751 0.84761 0.73065 0.0
C733 C 0.1774 0.87709 0.74041 0.0
C734 C 0.11961 0.8514 0.76319 0.0
C735 C 0.14086 0.86652 0.78445 0.0
H736 H 0.59614 0.32877 0.69797 0.0
H737 H 0.57619 0.26361 0.77557 0.0
H738 H 0.59991 0.30146 0.81403 0.0
H739 H 0.63354 0.34947 0.82395 0.0
H740 H 0.65057 0.41594 0.74654 0.0
H741 H 0.62029 0.38161 0.70975 0.0
C742 C 0.59613 0.32339 0.72345 0.0
C743 C 0.58462 0.2935 0.73401 0.0
C744 C 0.60962 0.34534 0.74536 0.0
C745 C 0.58467 0.28664 0.767 0.0
C746 C 0.59854 0.30813 0.78892 0.0
C747 C 0.62993 0.35678 0.7992 0.0
C748 C 0.64468 0.38498 0.78789 0.0
C749 C 0.61218 0.33702 0.77818 0.0
C750 C 0.63952 0.39437 0.75587 0.0
C751 C 0.62238 0.37461 0.73473 0.0
H752 H 0.22158 0.59587 0.27234 0.0
H753 H 0.15501 0.58209 0.19422 0.0
H754 H 0.11251 0.60789 0.2251 0.0
H755 H 0.09672 0.64197 0.27084 0.0
H756 H 0.16481 0.65887 0.34739 0.0
H757 H 0.20375 0.6244 0.32103 0.0
C758 C 0.19743 0.59745 0.26268 0.0
C759 C 0.19128 0.58673 0.23126 0.0
C760 C 0.17343 0.61368 0.28008 0.0
C761 C 0.16015 0.58982 0.21856 0.0
C762 C 0.13592 0.6049 0.23608 0.0
C763 C 0.1198 0.63755 0.28209 0.0
C764 C 0.12781 0.65345 0.31088 0.0
C765 C 0.14261 0.61813 0.26636 0.0
C766 C 0.15798 0.64737 0.32503 0.0
C767 C 0.1804 0.62759 0.30996 0.0
H768 H 0.90765 0.17296 0.69926 0.0
H769 H 0.93269 0.23488 0.77845 0.0
H770 H 0.90996 0.19617 0.81627 0.0
H771 H 0.87552 0.14876 0.82557 0.0
H772 H 0.85313 0.08544 0.74658 0.0
H773 H 0.88283 0.12018 0.71001 0.0
C774 C 0.90896 0.17745 0.7249 0.0
C775 C 0.92162 0.20675 0.73611 0.0
C776 C 0.89604 0.15497 0.74646 0.0
C777 C 0.92329 0.21237 0.76931 0.0
C778 C 0.91 0.19037 0.7909 0.0
C779 C 0.87792 0.14214 0.80051 0.0
C780 C 0.86181 0.11477 0.78873 0.0
C781 C 0.89522 0.16217 0.77962 0.0
C782 C 0.86533 0.10631 0.75628 0.0
C783 C 0.88208 0.12634 0.73528 0.0
H784 H 0.32069 0.89415 0.19266 0.0
H785 H 0.2575 0.90794 0.27288 0.0
H786 H 0.29554 0.88012 0.30825 0.0
H787 H 0.3438 0.84607 0.3145 0.0
H788 H 0.40854 0.83566 0.23483 0.0
H789 H 0.3732 0.86832 0.2012 0.0
C790 C 0.3157 0.89172 0.21807 0.0
C791 C 0.28636 0.90284 0.23021 0.0
C792 C 0.33781 0.87603 0.23824 0.0
C793 C 0.28007 0.89974 0.26313 0.0
C794 C 0.30168 0.88358 0.28326 0.0
C795 C 0.3504 0.85149 0.28995 0.0
C796 C 0.3785 0.83809 0.27703 0.0
C797 C 0.33017 0.87074 0.27083 0.0
C798 C 0.38703 0.84564 0.24533 0.0
C799 C 0.36674 0.86417 0.22602 0.0
H800 H 0.43239 0.77916 0.78154 0.0
H801 H 0.44599 0.84522 0.70347 0.0
H802 H 0.42233 0.88863 0.73499 0.0
H803 H 0.3868 0.90389 0.77952 0.0
H804 H 0.37003 0.83604 0.85589 0.0
H805 H 0.40599 0.79768 0.83076 0.0
C806 C 0.43171 0.80349 0.77221 0.0
C807 C 0.44119 0.8092 0.74049 0.0
C808 C 0.41643 0.82785 0.78986 0.0
C809 C 0.43931 0.84052 0.72812 0.0
C810 C 0.42526 0.8652 0.74595 0.0
C811 C 0.39175 0.8811 0.79113 0.0
C812 C 0.37506 0.87263 0.81912 0.0
C813 C 0.41197 0.85863 0.77608 0.0
C814 C 0.38197 0.84301 0.83395 0.0
C815 C 0.4026 0.82095 0.8196 0.0
H816 H 0.67205 0.41938 0.20056 0.0
H817 H 0.73708 0.43484 0.27974 0.0
H818 H 0.69854 0.41046 0.31662 0.0
H819 H 0.6503 0.3768 0.32419 0.0
H820 H 0.58441 0.36345 0.24515 0.0
H821 H 0.61893 0.39548 0.21048 0.0
C822 C 0.67723 0.4184 0.2261 0.0
C823 C 0.7073 0.42877 0.2375 0.0
C824 C 0.65498 0.40433 0.24705 0.0
C825 C 0.71392 0.42733 0.27053 0.0
C826 C 0.69204 0.41303 0.29153 0.0
C827 C 0.64313 0.38164 0.29959 0.0
C828 C 0.61503 0.3674 0.28714 0.0
C829 C 0.66308 0.40024 0.27978 0.0
C830 C 0.60584 0.37412 0.25535 0.0
C831 C 0.62573 0.39224 0.23541 0.0
H832 H 0.08459 0.71979 0.77263 0.0
H833 H 0.09066 0.66945 0.68254 0.0
H834 H 0.11563 0.62348 0.70931 0.0
H835 H 0.14436 0.60207 0.75635 0.0
H836 H 0.14385 0.65555 0.84503 0.0
H837 H 0.10793 0.69537 0.82125 0.0
C838 C 0.09031 0.69822 0.7592 0.0
C839 C 0.08559 0.69775 0.72581 0.0
C840 C 0.10631 0.67263 0.7745 0.0
C841 C 0.09389 0.67011 0.70836 0.0
C842 C 0.10841 0.64397 0.72362 0.0
C843 C 0.13559 0.62193 0.77071 0.0
C844 C 0.14688 0.62595 0.80232 0.0
C845 C 0.11605 0.64555 0.75641 0.0
C846 C 0.13566 0.65205 0.82055 0.0
C847 C 0.11518 0.6749 0.80693 0.0
H848 H 0.84632 0.13421 0.32555 0.0
H849 H 0.91164 0.15048 0.24736 0.0
H850 H 0.87666 0.12018 0.21118 0.0
H851 H 0.82369 0.0961 0.20017 0.0
H852 H 0.75978 0.07681 0.27864 0.0
H853 H 0.79812 0.1008 0.31644 0.0
C854 C 0.85323 0.13043 0.30076 0.0
C855 C 0.88128 0.14496 0.28903 0.0
C856 C 0.83311 0.11269 0.28011 0.0
C857 C 0.89017 0.13958 0.25699 0.0
C858 C 0.87005 0.12244 0.2362 0.0
C859 C 0.81866 0.09637 0.22569 0.0
C860 C 0.789 0.08497 0.23669 0.0
C861 C 0.84092 0.10992 0.24724 0.0
C862 C 0.78261 0.08528 0.26974 0.0
C863 C 0.80439 0.09926 0.29128 0.0
H864 H 0.40583 0.72012 0.22249 0.0
H865 H 0.43194 0.653 0.29657 0.0
H866 H 0.40235 0.61028 0.26893 0.0
H867 H 0.36044 0.59542 0.22965 0.0
H868 H 0.33116 0.6646 0.1581 0.0
H869 H 0.3704 0.70283 0.17851 0.0
C870 C 0.40634 0.6957 0.2316 0.0
C871 C 0.42152 0.68944 0.26108 0.0
C872 C 0.38768 0.67185 0.21655 0.0
C873 C 0.42106 0.65808 0.27345 0.0
C874 C 0.40362 0.63383 0.25794 0.0
C875 C 0.36311 0.61858 0.21809 0.0
C876 C 0.34233 0.62724 0.19277 0.0
C877 C 0.38543 0.64091 0.2304 0.0
C878 C 0.34634 0.65738 0.178 0.0
C879 C 0.36889 0.67934 0.18961 0.0
H880 H 0.82809 0.40483 0.81273 0.0
H881 H 0.76539 0.42663 0.73319 0.0
H882 H 0.80366 0.40254 0.69585 0.0
H883 H 0.85135 0.3684 0.68723 0.0
H884 H 0.91559 0.34965 0.76648 0.0
H885 H 0.88074 0.37991 0.80247 0.0
C886 C 0.82333 0.4051 0.7871 0.0
C887 C 0.794 0.41728 0.77564 0.0
C888 C 0.84556 0.39146 0.76582 0.0
C889 C 0.78796 0.41761 0.74246 0.0
C890 C 0.8097 0.40355 0.72117 0.0
C891 C 0.85805 0.37163 0.71222 0.0
C892 C 0.88577 0.35646 0.72429 0.0
C893 C 0.83804 0.38938 0.73274 0.0
C894 C 0.8944 0.36109 0.75661 0.0
C895 C 0.87435 0.3782 0.77727 0.0
H896 H 0.08028 0.78235 0.24708 0.0
H897 H 0.09291 0.83853 0.33314 0.0
H898 H 0.11383 0.88329 0.30175 0.0
H899 H 0.13711 0.90267 0.25141 0.0
H900 H 0.12948 0.84438 0.16609 0.0
H901 H 0.09772 0.80478 0.19517 0.0
C902 C 0.08667 0.8048 0.25871 0.0
C903 C 0.0851 0.8072 0.29231 0.0
C904 C 0.10009 0.82998 0.24061 0.0
C905 C 0.09399 0.83617 0.30726 0.0
C906 C 0.1061 0.86172 0.28935 0.0
C907 C 0.12764 0.88181 0.23894 0.0
C908 C 0.13583 0.87642 0.2067 0.0
C909 C 0.11055 0.8584 0.25619 0.0
C910 C 0.12367 0.84902 0.19098 0.0
C911 C 0.10563 0.82624 0.20765 0.0
H912 H 0.67709 0.10083 0.81183 0.0
H913 H 0.73982 0.07712 0.73356 0.0
H914 H 0.70127 0.09968 0.69515 0.0
H915 H 0.65303 0.13272 0.68498 0.0
H916 H 0.58866 0.15309 0.76298 0.0
H917 H 0.62405 0.12468 0.80025 0.0
C918 C 0.68184 0.0999 0.78627 0.0
C919 C 0.71123 0.0876 0.77544 0.0
C920 C 0.65936 0.11248 0.76435 0.0
C921 C 0.71722 0.08633 0.74234 0.0
C922 C 0.69531 0.09945 0.72043 0.0
C923 C 0.64639 0.13016 0.70998 0.0
C924 C 0.61842 0.1452 0.72126 0.0
C925 C 0.66676 0.11353 0.73127 0.0
C926 C 0.60995 0.14157 0.75365 0.0
C927 C 0.63035 0.12559 0.77507 0.0
H928 H 0.80051 0.28764 0.10877 0.0
H929 H 0.70709 0.33131 0.11701 0.0
H930 H 0.6817 0.2789 0.11114 0.0
H931 H 0.68658 0.22031 0.11343 0.0
H932 H 0.78017 0.17657 0.10818 0.0
H933 H 0.80483 0.22933 0.10245 0.0
C934 C 0.77459 0.2858 0.10855 0.0
C935 C 0.75577 0.31316 0.11413 0.0
C936 C 0.76014 0.25549 0.10606 0.0
C937 C 0.72217 0.31045 0.11338 0.0
C938 C 0.7076 0.28048 0.11008 0.0
C939 C 0.71227 0.22226 0.11023 0.0
C940 C 0.73158 0.1947 0.11201 0.0
C941 C 0.72641 0.25272 0.10793 0.0
C942 C 0.76483 0.19756 0.10751 0.0
C943 C 0.77899 0.22771 0.10431 0.0
H944 H 0.29515 0.71611 0.60753 0.0
H945 H 0.32786 0.81257 0.62701 0.0
H946 H 0.2734 0.83285 0.62043 0.0
H947 H 0.21592 0.82184 0.61831 0.0
H948 H 0.18266 0.72483 0.60298 0.0
H949 H 0.23789 0.70623 0.59799 0.0
C950 C 0.29045 0.74165 0.6096 0.0
C951 C 0.3153 0.76273 0.61836 0.0
C952 C 0.25892 0.75302 0.60681 0.0
C953 C 0.30895 0.79579 0.62083 0.0
C954 C 0.27783 0.80742 0.61709 0.0
C955 C 0.22069 0.79677 0.61306 0.0
C956 C 0.19532 0.77465 0.61163 0.0
C957 C 0.25247 0.78605 0.61147 0.0
C958 C 0.20188 0.74226 0.60465 0.0
C959 C 0.23344 0.73158 0.60193 0.0
H960 H 0.73304 0.19 0.89822 0.0
H961 H 0.83281 0.21707 0.89463 0.0
H962 H 0.81812 0.27354 0.9 0.0
H963 H 0.77669 0.3152 0.89696 0.0
H964 H 0.67686 0.2881 0.89865 0.0
H965 H 0.69188 0.23166 0.90338 0.0
C966 C 0.75161 0.20821 0.89917 0.0
C967 C 0.7839 0.19944 0.89528 0.0
C968 C 0.74297 0.24065 0.90162 0.0
C969 C 0.80774 0.22321 0.89722 0.0
C970 C 0.79935 0.25554 0.90013 0.0
C971 C 0.75821 0.297 0.89894 0.0
C972 C 0.72573 0.30575 0.8967 0.0
C973 C 0.767 0.26457 0.90098 0.0
C974 C 0.70205 0.28198 0.89995 0.0
C975 C 0.71062 0.24967 0.90249 0.0
H976 H 0.2936 0.79603 0.4006 0.0
H977 H 0.32139 0.6973 0.38552 0.0
H978 H 0.26823 0.67931 0.40142 0.0
H979 H 0.21183 0.69226 0.40975 0.0
H980 H 0.18286 0.79117 0.42041 0.0
H981 H 0.23868 0.8084 0.41714 0.0
C982 C 0.28822 0.77055 0.40143 0.0
C983 C 0.31106 0.74808 0.39114 0.0
C984 C 0.25732 0.76042 0.4097 0.0
C985 C 0.30392 0.71512 0.39269 0.0
C986 C 0.27355 0.7048 0.40182 0.0
C987 C 0.2178 0.71749 0.41237 0.0
C988 C 0.19331 0.74047 0.41466 0.0
C989 C 0.24969 0.72731 0.40894 0.0
C990 C 0.20138 0.77308 0.41816 0.0
C991 C 0.23324 0.78296 0.41607 0.0
H992 H 0.28454 0.68625 0.90975 0.0
H993 H 0.18364 0.70897 0.90841 0.0
H994 H 0.19585 0.76551 0.91777 0.0
H995 H 0.23533 0.80923 0.91708 0.0
H996 H 0.33625 0.78657 0.91782 0.0
H997 H 0.32385 0.72934 0.91868 0.0
C998 C 0.26521 0.7035 0.91215 0.0
C999 C 0.23331 0.69357 0.90765 0.0
C1000 C 0.2724 0.73605 0.91715 0.0
C1001 C 0.20846 0.71602 0.91146 0.0
C1002 C 0.21541 0.74843 0.91665 0.0
C1003 C 0.2546 0.79176 0.91816 0.0
C1004 C 0.28662 0.80211 0.91664 0.0
C1005 C 0.24732 0.75886 0.91812 0.0
C1006 C 0.31136 0.77926 0.91867 0.0
C1007 C 0.3043 0.74648 0.91893 0.0
H1008 H 0.81237 0.27857 0.3953 0.0
H1009 H 0.78554 0.17843 0.39747 0.0
H1010 H 0.72916 0.19337 0.40102 0.0
H1011 H 0.68756 0.23451 0.39477 0.0
H1012 H 0.71438 0.33459 0.391 0.0
H1013 H 0.77069 0.32001 0.39734 0.0
C1014 C 0.79423 0.26001 0.39714 0.0
C1015 C 0.80306 0.22746 0.39537 0.0
C1016 C 0.76184 0.26874 0.39854 0.0
C1017 C 0.77937 0.20368 0.39843 0.0
C1018 C 0.74709 0.21219 0.40029 0.0
C1019 C 0.70568 0.25317 0.39588 0.0
C1020 C 0.69691 0.2855 0.39169 0.0
C1021 C 0.73803 0.2446 0.39897 0.0
C1022 C 0.72054 0.30947 0.39384 0.0
C1023 C 0.75277 0.30115 0.39731 0.0
H1024 H 0.28345 0.71006 0.08813 0.0
H1025 H 0.18752 0.67366 0.10088 0.0
H1026 H 0.16597 0.72791 0.09601 0.0
H1027 H 0.17552 0.78592 0.0987 0.0
H1028 H 0.27191 0.82233 0.09015 0.0
H1029 H 0.29203 0.7679 0.08212 0.0
C1030 C 0.25776 0.71387 0.08901 0.0
C1031 C 0.2372 0.68801 0.09562 0.0
C1032 C 0.24563 0.74524 0.08736 0.0
C1033 C 0.20393 0.69329 0.09638 0.0
C1034 C 0.19157 0.72432 0.09369 0.0
C1035 C 0.2008 0.78204 0.0942 0.0
C1036 C 0.2223 0.80798 0.09572 0.0
C1037 C 0.21236 0.75059 0.09082 0.0
C1038 C 0.25496 0.80262 0.08965 0.0
C1039 C 0.2665 0.7715 0.08516 0.0
H1040 H 0.69092 0.27428 0.61292 0.0
H1041 H 0.71445 0.17332 0.61508 0.0
H1042 H 0.77131 0.1862 0.6111 0.0
H1043 H 0.81427 0.22621 0.61548 0.0
H1044 H 0.7907 0.32718 0.61469 0.0
H1045 H 0.73395 0.31418 0.60912 0.0
C1046 C 0.70846 0.25508 0.61195 0.0
C1047 C 0.69855 0.22295 0.61501 0.0
C1048 C 0.74113 0.26265 0.61022 0.0
C1049 C 0.72146 0.19829 0.61309 0.0
C1050 C 0.75402 0.20563 0.61098 0.0
C1051 C 0.79676 0.24538 0.61353 0.0
C1052 C 0.8066 0.27758 0.61622 0.0
C1053 C 0.76414 0.23774 0.61087 0.0
C1054 C 0.78374 0.30217 0.61303 0.0
C1055 C 0.75124 0.29477 0.60999 0.0
H1056 H 0.80244 0.0156 0.97117 0.0
H1057 H 0.71026 0.03433 0.92829 0.0
H1058 H 0.68443 0.02852 0.98053 0.0
H1059 H 0.68973 0.02809 0.03951 0.0
H1060 H 0.78187 0.01057 0.08285 0.0
H1061 H 0.8061 0.00514 0.02967 0.0
C1062 C 0.77659 0.01714 0.97323 0.0
C1063 C 0.75815 0.0252 0.94609 0.0
C1064 C 0.76201 0.01432 1.00355 0.0
C1065 C 0.72476 0.02778 0.94893 0.0
C1066 C 0.71006 0.02475 0.97883 0.0
C1067 C 0.71479 0.02166 0.03716 0.0
C1068 C 0.734 0.01933 0.06485 0.0
C1069 C 0.7286 0.01936 0.0065 0.0
C1070 C 0.76662 0.01185 0.06175 0.0
C1071 C 0.78052 0.00919 0.03135 0.0
H1072 H 0.51017 0.75098 0.44677 0.0
H1073 H 0.42162 0.80396 0.43886 0.0
H1074 H 0.4137 0.7999 0.49635 0.0
H1075 H 0.42637 0.77133 0.54471 0.0
H1076 H 0.52301 0.73733 0.56031 0.0
H1077 H 0.53229 0.74075 0.50278 0.0
C1078 C 0.49 0.76291 0.4579 0.0
C1079 C 0.46579 0.77667 0.43852 0.0
C1080 C 0.48626 0.76208 0.49166 0.0
C1081 C 0.44012 0.79259 0.45326 0.0
C1082 C 0.43535 0.78995 0.48608 0.0
C1083 C 0.45058 0.76707 0.53726 0.0
C1084 C 0.47354 0.75402 0.55848 0.0
C1085 C 0.45752 0.7734 0.50515 0.0
C1086 C 0.50372 0.74602 0.54543 0.0
C1087 C 0.50952 0.74877 0.51224 0.0
H1088 H 0.72309 0.48838 0.06405 0.0
H1089 H 0.82495 0.48039 0.05089 0.0
H1090 H 0.81783 0.48398 0.99256 0.0
H1091 H 0.78162 0.47915 0.94562 0.0
H1092 H 0.67962 0.48508 0.95887 0.0
H1093 H 0.68747 0.49312 0.0167 0.0
C1094 C 0.74373 0.48883 0.04835 0.0
C1095 C 0.77452 0.48448 0.06152 0.0
C1096 C 0.73926 0.48999 0.01485 0.0
C1097 C 0.80114 0.48427 0.04116 0.0
C1098 C 0.79698 0.48591 0.00783 0.0
C1099 C 0.76128 0.48344 0.96114 0.0
C1100 C 0.73011 0.48175 0.94825 0.0
C1101 C 0.76606 0.48733 0.99439 0.0
C1102 C 0.70378 0.48671 0.96839 0.0
C1103 C 0.7083 0.49098 1.00144 0.0
H1104 H 0.01192 0.78695 0.45324 0.0
H1105 H 0.0165 0.68482 0.46828 0.0
H1106 H 0.01035 0.69268 0.52621 0.0
H1107 H 0.01624 0.72931 0.5725 0.0
H1108 H 0.01563 0.83152 0.55734 0.0
H1109 H 0.00696 0.82332 0.49969 0.0
C1110 C 0.00997 0.76645 0.46917 0.0
C1111 C 0.0144 0.73536 0.45676 0.0
C1112 C 0.00778 0.77135 0.50249 0.0
C1113 C 0.01266 0.70888 0.47743 0.0
C1114 C 0.00961 0.71345 0.51056 0.0
C1115 C 0.01272 0.74967 0.55664 0.0
C1116 C 0.01628 0.78095 0.56889 0.0
C1117 C 0.00892 0.74464 0.52344 0.0
C1118 C 0.0125 0.8073 0.54831 0.0
C1119 C 0.00793 0.80256 0.51534 0.0
H1120 H 0.1933 0.9873 0.0401 0.0
H1121 H 0.2854 0.99047 0.0869 0.0
H1122 H 0.31186 0.99669 0.035 0.0
H1123 H 0.30891 0.98814 0.97634 0.0
H1124 H 0.21679 0.98331 0.92969 0.0
H1125 H 0.19 0.99163 0.98111 0.0
C1126 C 0.21899 0.99105 0.0389 0.0
C1127 C 0.23747 0.98867 0.06706 0.0
C1128 C 0.23401 0.99369 0.00886 0.0
C1129 C 0.2708 0.99276 0.06543 0.0
C1130 C 0.28592 0.99583 0.03572 0.0
C1131 C 0.28305 0.99054 0.97738 0.0
C1132 C 0.26473 0.98534 0.94949 0.0
C1133 C 0.26787 0.9945 0.00721 0.0
C1134 C 0.23124 0.98773 0.95094 0.0
C1135 C 0.21595 0.99206 0.98039 0.0
H1136 H 0.52382 0.28048 0.56208 0.0
H1137 H 0.52883 0.17865 0.54498 0.0
H1138 H 0.52321 0.18762 0.48706 0.0
H1139 H 0.52618 0.22515 0.44123 0.0
H1140 H 0.52314 0.32706 0.45828 0.0
H1141 H 0.51801 0.31768 0.51614 0.0
C1142 C 0.52243 0.26029 0.54564 0.0
C1143 C 0.52639 0.22893 0.55757 0.0
C1144 C 0.51994 0.26579 0.51236 0.0
C1145 C 0.52533 0.2029 0.53622 0.0
C1146 C 0.52245 0.20809 0.50313 0.0
C1147 C 0.52315 0.24517 0.45763 0.0
C1148 C 0.52473 0.27673 0.44572 0.0
C1149 C 0.521 0.2395 0.49086 0.0
C1150 C 0.5215 0.30262 0.46701 0.0
C1151 C 0.51893 0.29721 0.50008 0.0
H1152 H 0.20819 0.50786 0.05419 0.0
H1153 H 0.31111 0.51371 0.05694 0.0
H1154 H 0.31302 0.509 0.99837 0.0
H1155 H 0.28459 0.51562 0.94665 0.0
H1156 H 0.1815 0.51399 0.94413 0.0
H1157 H 0.18015 0.50407 1.00206 0.0
C1158 C 0.23102 0.50661 0.04192 0.0
C1159 C 0.25948 0.51113 0.05959 0.0
C1160 C 0.23173 0.50536 0.0082 0.0
C1161 C 0.28899 0.50999 0.04371 0.0
C1162 C 0.29 0.50776 0.01021 0.0
C1163 C 0.26195 0.51181 0.95873 0.0
C1164 C 0.23317 0.51552 0.94142 0.0
C1165 C 0.26145 0.50725 0.99218 0.0
C1166 C 0.20388 0.51097 0.95708 0.0
C1167 C 0.20315 0.50563 0.99023 0.0
H1168 H 0.97887 0.28091 0.44613 0.0
H1169 H 0.97681 0.17855 0.46023 0.0
H1170 H 0.98316 0.18604 0.5183 0.0
H1171 H 0.9794 0.22219 0.56523 0.0
H1172 H 0.97946 0.32457 0.55116 0.0
H1173 H 0.98449 0.31695 0.49304 0.0
C1174 C 0.98112 0.26032 0.46193 0.0
C1175 C 0.9777 0.22922 0.44915 0.0
C1176 C 0.98399 0.26495 0.49531 0.0
C1177 C 0.97988 0.20263 0.46966 0.0
C1178 C 0.98316 0.20697 0.50284 0.0
C1179 C 0.98183 0.24273 0.54942 0.0
C1180 C 0.97935 0.27389 0.56223 0.0
C1181 C 0.98389 0.23804 0.51602 0.0
C1182 C 0.98179 0.30043 0.54171 0.0
C1183 C 0.98429 0.29603 0.50849 0.0
loop_
_geom_bond_atom_site_label_1
_geom_bond_atom_site_label_2
_geom_bond_distance
_geom_bond_site_symmetry_2
_ccdc_geom_bond_type
Co0 O3 1.970 . S
Co0 N17 1.989 . S
Co0 O25 1.967 . S
Co0 O32 1.920 . S
Co1 O4 1.966 . S
Co1 N10 2.022 1_545 S
Co1 N18 1.993 . S
Co1 O26 1.941 . S
C2 O3 1.258 . S
C2 O4 1.263 . S
O3 Co0 1.970 . S
O3 C2 1.258 . S
O4 Co1 1.966 . S
O4 C2 1.263 . S
C5 O6 1.235 . S
C5 O32 1.289 . S
O6 C5 1.235 . S
C7 C9 1.400 . S
C7 N10 1.351 . S
C7 C12 1.501 1_565 S
C8 C9 1.387 . S
C8 N11 1.341 . S
C9 C7 1.400 . S
C9 C8 1.387 . S
N10 Co1 2.022 1_565 S
N10 C7 1.351 . S
N10 N11 1.365 . S
N11 C8 1.341 . S
N11 N10 1.365 . S
N11 H31 0.862 . S
C12 C7 1.501 1_545 S
C12 H13 0.961 . S
C12 H14 0.961 . S
C12 H15 0.960 . S
H13 C12 0.961 . S
H14 C12 0.961 . S
H15 C12 0.960 . S
C16 N17 1.342 . S
C16 C20 1.401 . S
C16 C21 1.499 . S
N17 Co0 1.989 . S
N17 C16 1.342 . S
N17 N18 1.388 . S
N18 Co1 1.993 . S
N18 N17 1.388 . S
N18 C19 1.346 . S
C19 N18 1.346 . S
C19 C20 1.396 . S
C19 C29 1.510 1_545 S
C20 C16 1.401 . S
C20 C19 1.396 . S
C21 C16 1.499 . S
C21 H22 0.959 . S
C21 H23 0.960 . S
C21 H24 0.961 . S
H22 C21 0.959 . S
H23 C21 0.960 . S
H24 C21 0.961 . S
O25 Co0 1.967 . S
O25 C33 1.258 . S
O26 Co1 1.941 . S
O26 C33 1.266 . S
H27 C29 0.959 . S
H28 C29 0.961 . S
C29 C19 1.510 1_565 S
C29 H27 0.959 . S
C29 H28 0.961 . S
C29 H30 0.960 . S
H30 C29 0.960 . S
H31 N11 0.862 . S
O32 Co0 1.920 . S
O32 C5 1.289 . S
C33 O25 1.258 . S
C33 O26 1.266 . S
Co34 O37 1.970 . S
Co34 N51 1.989 . S
Co34 O59 1.967 . S
Co34 O66 1.920 . S
Co35 O38 1.966 . S
Co35 N44 2.022 . S
Co35 N52 1.993 . S
Co35 O60 1.941 . S
C36 O37 1.258 . S
C36 O38 1.263 . S
O37 Co34 1.970 . S
O37 C36 1.258 . S
O38 Co35 1.966 . S
O38 C36 1.263 . S
C39 O40 1.235 . S
C39 O66 1.289 . S
O40 C39 1.235 . S
C41 C43 1.400 . S
C41 N44 1.351 . S
C41 C46 1.501 . S
C42 C43 1.387 . S
C42 N45 1.341 . S
C43 C41 1.400 . S
C43 C42 1.387 . S
N44 Co35 2.022 . S
N44 C41 1.351 . S
N44 N45 1.365 . S
N45 C42 1.341 . S
N45 N44 1.365 . S
N45 H65 0.862 . S
C46 C41 1.501 . S
C46 H47 0.961 . S
C46 H48 0.961 . S
C46 H49 0.960 . S
H47 C46 0.961 . S
H48 C46 0.961 . S
H49 C46 0.960 . S
C50 N51 1.342 . S
C50 C54 1.401 . S
C50 C55 1.499 . S
N51 Co34 1.989 . S
N51 C50 1.342 . S
N51 N52 1.388 . S
N52 Co35 1.993 . S
N52 N51 1.388 . S
N52 C53 1.346 . S
C53 N52 1.346 . S
C53 C54 1.396 . S
C53 C63 1.510 . S
C54 C50 1.401 . S
C54 C53 1.396 . S
C55 C50 1.499 . S
C55 H56 0.959 . S
C55 H57 0.960 . S
C55 H58 0.961 . S
H56 C55 0.959 . S
H57 C55 0.960 . S
H58 C55 0.961 . S
O59 Co34 1.967 . S
O59 C67 1.258 . S
O60 Co35 1.941 . S
O60 C67 1.266 . S
H61 C63 0.959 . S
H62 C63 0.961 . S
C63 C53 1.510 . S
C63 H61 0.959 . S
C63 H62 0.961 . S
C63 H64 0.960 . S
H64 C63 0.960 . S
H65 N45 0.862 . S
O66 Co34 1.920 . S
O66 C39 1.289 . S
C67 O59 1.258 . S
C67 O60 1.266 . S
Co68 O71 1.970 . S
Co68 N85 1.989 . S
Co68 O93 1.967 . S
Co68 O100 1.920 . S
Co69 O72 1.966 . S
Co69 N78 2.022 . S
Co69 N86 1.993 . S
Co69 O94 1.941 . S
C70 O71 1.258 . S
C70 O72 1.263 . S
O71 Co68 1.970 . S
O71 C70 1.258 . S
O72 Co69 1.966 . S
O72 C70 1.263 . S
C73 O74 1.235 . S
C73 O100 1.289 . S
O74 C73 1.235 . S
C75 C77 1.400 . S
C75 N78 1.351 . S
C75 C80 1.501 . S
C76 C77 1.387 . S
C76 N79 1.341 . S
C77 C75 1.400 . S
C77 C76 1.387 . S
N78 Co69 2.022 . S
N78 C75 1.351 . S
N78 N79 1.365 . S
N79 C76 1.341 . S
N79 N78 1.365 . S
N79 H99 0.862 . S
C80 C75 1.501 . S
C80 H81 0.961 . S
C80 H82 0.961 . S
C80 H83 0.960 . S
H81 C80 0.961 . S
H82 C80 0.961 . S
H83 C80 0.960 . S
C84 N85 1.342 . S
C84 C88 1.401 . S
C84 C89 1.499 . S
N85 Co68 1.989 . S
N85 C84 1.342 . S
N85 N86 1.388 . S
N86 Co69 1.993 . S
N86 N85 1.388 . S
N86 C87 1.346 . S
C87 N86 1.346 . S
C87 C88 1.396 . S
C87 C97 1.510 . S
C88 C84 1.401 . S
C88 C87 1.396 . S
C89 C84 1.499 . S
C89 H90 0.959 . S
C89 H91 0.960 . S
C89 H92 0.961 . S
H90 C89 0.959 . S
H91 C89 0.960 . S
H92 C89 0.961 . S
O93 Co68 1.967 . S
O93 C101 1.258 . S
O94 Co69 1.941 . S
O94 C101 1.266 . S
H95 C97 0.959 . S
H96 C97 0.961 . S
C97 C87 1.510 . S
C97 H95 0.959 . S
C97 H96 0.961 . S
C97 H98 0.960 . S
H98 C97 0.960 . S
H99 N79 0.862 . S
O100 Co68 1.920 . S
O100 C73 1.289 . S
C101 O93 1.258 . S
C101 O94 1.266 . S
Co102 O105 1.970 . S
Co102 N119 1.989 . S
Co102 O127 1.967 . S
Co102 O134 1.920 . S
Co103 O106 1.966 . S
Co103 N112 2.022 1_455 S
Co103 N120 1.993 . S
Co103 O128 1.941 . S
C104 O105 1.258 . S
C104 O106 1.263 . S
O105 Co102 1.970 . S
O105 C104 1.258 . S
O106 Co103 1.966 . S
O106 C104 1.263 . S
C107 O108 1.235 . S
C107 O134 1.289 . S
O108 C107 1.235 . S
C109 C111 1.400 . S
C109 N112 1.351 . S
C109 C114 1.501 1_655 S
C110 C111 1.387 . S
C110 N113 1.341 . S
C111 C109 1.400 . S
C111 C110 1.387 . S
N112 Co103 2.022 1_655 S
N112 C109 1.351 . S
N112 N113 1.365 . S
N113 C110 1.341 . S
N113 N112 1.365 . S
N113 H133 0.862 . S
C114 C109 1.501 1_455 S
C114 H115 0.961 . S
C114 H116 0.961 . S
C114 H117 0.960 . S
H115 C114 0.961 . S
H116 C114 0.961 . S
H117 C114 0.960 . S
C118 N119 1.342 . S
C118 C122 1.401 . S
C118 C123 1.499 . S
N119 Co102 1.989 . S
N119 C118 1.342 . S
N119 N120 1.388 . S
N120 Co103 1.993 . S
N120 N119 1.388 . S
N120 C121 1.346 . S
C121 N120 1.346 . S
C121 C122 1.396 . S
C121 C131 1.510 1_455 S
C122 C118 1.401 . S
C122 C121 1.396 . S
C123 C118 1.499 . S
C123 H124 0.959 . S
C123 H125 0.960 . S
C123 H126 0.961 . S
H124 C123 0.959 . S
H125 C123 0.960 . S
H126 C123 0.961 . S
O127 Co102 1.967 . S
O127 C135 1.258 . S
O128 Co103 1.941 . S
O128 C135 1.266 . S
H129 C131 0.959 . S
H130 C131 0.961 . S
C131 C121 1.510 1_655 S
C131 H129 0.959 . S
C131 H130 0.961 . S
C131 H132 0.960 . S
H132 C131 0.960 . S
H133 N113 0.862 . S
O134 Co102 1.920 . S
O134 C107 1.289 . S
C135 O127 1.258 . S
C135 O128 1.266 . S
Co136 O139 1.970 . S
Co136 N153 1.989 . S
Co136 O161 1.967 . S
Co136 O168 1.920 . S
Co137 O140 1.966 . S
Co137 N146 2.022 . S
Co137 N154 1.993 . S
Co137 O162 1.941 . S
C138 O139 1.258 . S
C138 O140 1.263 . S
O139 Co136 1.970 . S
O139 C138 1.258 . S
O140 Co137 1.966 . S
O140 C138 1.263 . S
C141 O142 1.235 . S
C141 O168 1.289 . S
O142 C141 1.235 . S
C143 C145 1.400 . S
C143 N146 1.351 . S
C143 C148 1.501 . S
C144 C145 1.387 . S
C144 N147 1.341 . S
C145 C143 1.400 . S
C145 C144 1.387 . S
N146 Co137 2.022 . S
N146 C143 1.351 . S
N146 N147 1.365 . S
N147 C144 1.341 . S
N147 N146 1.365 . S
N147 H167 0.862 . S
C148 C143 1.501 . S
C148 H149 0.961 . S
C148 H150 0.961 . S
C148 H151 0.960 . S
H149 C148 0.961 . S
H150 C148 0.961 . S
H151 C148 0.960 . S
C152 N153 1.342 . S
C152 C156 1.401 . S
C152 C157 1.499 . S
N153 Co136 1.989 . S
N153 C152 1.342 . S
N153 N154 1.388 . S
N154 Co137 1.993 . S
N154 N153 1.388 . S
N154 C155 1.346 . S
C155 N154 1.346 . S
C155 C156 1.396 . S
C155 C165 1.510 . S
C156 C152 1.401 . S
C156 C155 1.396 . S
C157 C152 1.499 . S
C157 H158 0.959 . S
C157 H159 0.960 . S
C157 H160 0.961 . S
H158 C157 0.959 . S
H159 C157 0.960 . S
H160 C157 0.961 . S
O161 Co136 1.967 . S
O161 C169 1.258 . S
O162 Co137 1.941 . S
O162 C169 1.266 . S
H163 C165 0.959 . S
H164 C165 0.961 . S
C165 C155 1.510 . S
C165 H163 0.959 . S
C165 H164 0.961 . S
C165 H166 0.960 . S
H166 C165 0.960 . S
H167 N147 0.862 . S
O168 Co136 1.920 . S
O168 C141 1.289 . S
C169 O161 1.258 . S
C169 O162 1.266 . S
Co170 O173 1.970 . S
Co170 N187 1.989 . S
Co170 O195 1.967 . S
Co170 O202 1.920 . S
Co171 O174 1.966 . S
Co171 N180 2.022 1_455 S
Co171 N188 1.993 . S
Co171 O196 1.941 . S
C172 O173 1.258 . S
C172 O174 1.263 . S
O173 Co170 1.970 . S
O173 C172 1.258 . S
O174 Co171 1.966 . S
O174 C172 1.263 . S
C175 O176 1.235 . S
C175 O202 1.289 . S
O176 C175 1.235 . S
C177 C179 1.400 . S
C177 N180 1.351 . S
C177 C182 1.501 1_655 S
C178 C179 1.387 . S
C178 N181 1.341 . S
C179 C177 1.400 . S
C179 C178 1.387 . S
N180 Co171 2.022 1_655 S
N180 C177 1.351 . S
N180 N181 1.365 . S
N181 C178 1.341 . S
N181 N180 1.365 . S
N181 H201 0.862 . S
C182 C177 1.501 1_455 S
C182 H183 0.961 . S
C182 H184 0.961 . S
C182 H185 0.960 . S
H183 C182 0.961 . S
H184 C182 0.961 . S
H185 C182 0.960 . S
C186 N187 1.342 . S
C186 C190 1.401 . S
C186 C191 1.499 . S
N187 Co170 1.989 . S
N187 C186 1.342 . S
N187 N188 1.388 . S
N188 Co171 1.993 . S
N188 N187 1.388 . S
N188 C189 1.346 . S
C189 N188 1.346 . S
C189 C190 1.396 . S
C189 C199 1.510 1_455 S
C190 C186 1.401 . S
C190 C189 1.396 . S
C191 C186 1.499 . S
C191 H192 0.959 . S
C191 H193 0.960 . S
C191 H194 0.961 . S
H192 C191 0.959 . S
H193 C191 0.960 . S
H194 C191 0.961 . S
O195 Co170 1.967 . S
O195 C203 1.258 . S
O196 Co171 1.941 . S
O196 C203 1.266 . S
H197 C199 0.959 . S
H198 C199 0.961 . S
C199 C189 1.510 1_655 S
C199 H197 0.959 . S
C199 H198 0.961 . S
C199 H200 0.960 . S
H200 C199 0.960 . S
H201 N181 0.862 . S
O202 Co170 1.920 . S
O202 C175 1.289 . S
C203 O195 1.258 . S
C203 O196 1.266 . S
Co204 O207 1.970 . S
Co204 N221 1.989 . S
Co204 O229 1.967 . S
Co204 O236 1.920 . S
Co205 O208 1.966 . S
Co205 N214 2.022 1_545 S
Co205 N222 1.993 . S
Co205 O230 1.941 . S
C206 O207 1.258 . S
C206 O208 1.263 . S
O207 Co204 1.970 . S
O207 C206 1.258 . S
O208 Co205 1.966 . S
O208 C206 1.263 . S
C209 O210 1.235 . S
C209 O236 1.289 . S
O210 C209 1.235 . S
C211 C213 1.400 . S
C211 N214 1.351 . S
C211 C216 1.501 1_565 S
C212 C213 1.387 . S
C212 N215 1.341 . S
C213 C211 1.400 . S
C213 C212 1.387 . S
N214 Co205 2.022 1_565 S
N214 C211 1.351 . S
N214 N215 1.365 . S
N215 C212 1.341 . S
N215 N214 1.365 . S
N215 H235 0.862 . S
C216 C211 1.501 1_545 S
C216 H217 0.961 . S
C216 H218 0.961 . S
C216 H219 0.960 . S
H217 C216 0.961 . S
H218 C216 0.961 . S
H219 C216 0.960 . S
C220 N221 1.342 . S
C220 C224 1.401 . S
C220 C225 1.499 . S
N221 Co204 1.989 . S
N221 C220 1.342 . S
N221 N222 1.388 . S
N222 Co205 1.993 . S
N222 N221 1.388 . S
N222 C223 1.346 . S
C223 N222 1.346 . S
C223 C224 1.396 . S
C223 C233 1.510 1_545 S
C224 C220 1.401 . S
C224 C223 1.396 . S
C225 C220 1.499 . S
C225 H226 0.959 . S
C225 H227 0.960 . S
C225 H228 0.961 . S
H226 C225 0.959 . S
H227 C225 0.960 . S
H228 C225 0.961 . S
O229 Co204 1.967 . S
O229 C237 1.258 . S
O230 Co205 1.941 . S
O230 C237 1.266 . S
H231 C233 0.959 . S
H232 C233 0.961 . S
C233 C223 1.510 1_565 S
C233 H231 0.959 . S
C233 H232 0.961 . S
C233 H234 0.960 . S
H234 C233 0.960 . S
H235 N215 0.862 . S
O236 Co204 1.920 . S
O236 C209 1.289 . S
C237 O229 1.258 . S
C237 O230 1.266 . S
Co238 O241 1.970 . S
Co238 N255 1.989 . S
Co238 O263 1.967 . S
Co238 O270 1.920 . S
Co239 O242 1.966 . S
Co239 N248 2.022 . S
Co239 N256 1.993 . S
Co239 O264 1.941 . S
C240 O241 1.258 . S
C240 O242 1.263 . S
O241 Co238 1.970 . S
O241 C240 1.258 . S
O242 Co239 1.966 . S
O242 C240 1.263 . S
C243 O244 1.235 . S
C243 O270 1.289 . S
O244 C243 1.235 . S
C245 C247 1.400 . S
C245 N248 1.351 . S
C245 C250 1.501 . S
C246 C247 1.387 . S
C246 N249 1.341 . S
C247 C245 1.400 . S
C247 C246 1.387 . S
N248 Co239 2.022 . S
N248 C245 1.351 . S
N248 N249 1.365 . S
N249 C246 1.341 . S
N249 N248 1.365 . S
N249 H269 0.862 . S
C250 C245 1.501 . S
C250 H251 0.961 . S
C250 H252 0.961 . S
C250 H253 0.960 . S
H251 C250 0.961 . S
H252 C250 0.961 . S
H253 C250 0.960 . S
C254 N255 1.342 . S
C254 C258 1.401 . S
C254 C259 1.499 . S
N255 Co238 1.989 . S
N255 C254 1.342 . S
N255 N256 1.388 . S
N256 Co239 1.993 . S
N256 N255 1.388 . S
N256 C257 1.346 . S
C257 N256 1.346 . S
C257 C258 1.396 . S
C257 C267 1.510 . S
C258 C254 1.401 . S
C258 C257 1.396 . S
C259 C254 1.499 . S
C259 H260 0.959 . S
C259 H261 0.960 . S
C259 H262 0.961 . S
H260 C259 0.959 . S
H261 C259 0.960 . S
H262 C259 0.961 . S
O263 Co238 1.967 . S
O263 C271 1.258 . S
O264 Co239 1.941 . S
O264 C271 1.266 . S
H265 C267 0.959 . S
H266 C267 0.961 . S
C267 C257 1.510 . S
C267 H265 0.959 . S
C267 H266 0.961 . S
C267 H268 0.960 . S
H268 C267 0.960 . S
H269 N249 0.862 . S
O270 Co238 1.920 . S
O270 C243 1.289 . S
C271 O263 1.258 . S
C271 O264 1.266 . S
Co272 O275 1.970 . S
Co272 N289 1.989 . S
Co272 O297 1.967 . S
Co272 O304 1.920 . S
Co273 O276 1.966 . S
Co273 N282 2.022 1_565 S
Co273 N290 1.993 . S
Co273 O298 1.941 . S
C274 O275 1.258 . S
C274 O276 1.263 . S
O275 Co272 1.970 . S
O275 C274 1.258 . S
O276 Co273 1.966 . S
O276 C274 1.263 . S
C277 O278 1.235 . S
C277 O304 1.289 . S
O278 C277 1.235 . S
C279 C281 1.400 . S
C279 N282 1.351 . S
C279 C284 1.501 1_545 S
C280 C281 1.387 . S
C280 N283 1.341 . S
C281 C279 1.400 . S
C281 C280 1.387 . S
N282 Co273 2.022 1_545 S
N282 C279 1.351 . S
N282 N283 1.365 . S
N283 C280 1.341 . S
N283 N282 1.365 . S
N283 H303 0.862 . S
C284 C279 1.501 1_565 S
C284 H285 0.961 . S
C284 H286 0.961 . S
C284 H287 0.960 . S
H285 C284 0.961 . S
H286 C284 0.961 . S
H287 C284 0.960 . S
C288 N289 1.342 . S
C288 C292 1.401 . S
C288 C293 1.499 . S
N289 Co272 1.989 . S
N289 C288 1.342 . S
N289 N290 1.388 . S
N290 Co273 1.993 . S
N290 N289 1.388 . S
N290 C291 1.346 . S
C291 N290 1.346 . S
C291 C292 1.396 . S
C291 C301 1.510 1_565 S
C292 C288 1.401 . S
C292 C291 1.396 . S
C293 C288 1.499 . S
C293 H294 0.959 . S
C293 H295 0.960 . S
C293 H296 0.961 . S
H294 C293 0.959 . S
H295 C293 0.960 . S
H296 C293 0.961 . S
O297 Co272 1.967 . S
O297 C305 1.258 . S
O298 Co273 1.941 . S
O298 C305 1.266 . S
H299 C301 0.959 . S
H300 C301 0.961 . S
C301 C291 1.510 1_545 S
C301 H299 0.959 . S
C301 H300 0.961 . S
C301 H302 0.960 . S
H302 C301 0.960 . S
H303 N283 0.862 . S
O304 Co272 1.920 . S
O304 C277 1.289 . S
C305 O297 1.258 . S
C305 O298 1.266 . S
Co306 O309 1.970 . S
Co306 N323 1.989 . S
Co306 O331 1.967 . S
Co306 O338 1.920 . S
Co307 O310 1.966 . S
Co307 N316 2.022 . S
Co307 N324 1.993 . S
Co307 O332 1.941 . S
C308 O309 1.258 . S
C308 O310 1.263 . S
O309 Co306 1.970 . S
O309 C308 1.258 . S
O310 Co307 1.966 . S
O310 C308 1.263 . S
C311 O312 1.235 . S
C311 O338 1.289 . S
O312 C311 1.235 . S
C313 C315 1.400 . S
C313 N316 1.351 . S
C313 C318 1.501 . S
C314 C315 1.387 . S
C314 N317 1.341 . S
C315 C313 1.400 . S
C315 C314 1.387 . S
N316 Co307 2.022 . S
N316 C313 1.351 . S
N316 N317 1.365 . S
N317 C314 1.341 . S
N317 N316 1.365 . S
N317 H337 0.862 . S
C318 C313 1.501 . S
C318 H319 0.961 . S
C318 H320 0.961 . S
C318 H321 0.960 . S
H319 C318 0.961 . S
H320 C318 0.961 . S
H321 C318 0.960 . S
C322 N323 1.342 . S
C322 C326 1.401 . S
C322 C327 1.499 . S
N323 Co306 1.989 . S
N323 C322 1.342 . S
N323 N324 1.388 . S
N324 Co307 1.993 . S
N324 N323 1.388 . S
N324 C325 1.346 . S
C325 N324 1.346 . S
C325 C326 1.396 . S
C325 C335 1.510 . S
C326 C322 1.401 . S
C326 C325 1.396 . S
C327 C322 1.499 . S
C327 H328 0.959 . S
C327 H329 0.960 . S
C327 H330 0.961 . S
H328 C327 0.959 . S
H329 C327 0.960 . S
H330 C327 0.961 . S
O331 Co306 1.967 . S
O331 C339 1.258 . S
O332 Co307 1.941 . S
O332 C339 1.266 . S
H333 C335 0.959 . S
H334 C335 0.961 . S
C335 C325 1.510 . S
C335 H333 0.959 . S
C335 H334 0.961 . S
C335 H336 0.960 . S
H336 C335 0.960 . S
H337 N317 0.862 . S
O338 Co306 1.920 . S
O338 C311 1.289 . S
C339 O331 1.258 . S
C339 O332 1.266 . S
Co340 O343 1.970 . S
Co340 N357 1.989 . S
Co340 O365 1.967 . S
Co340 O372 1.920 . S
Co341 O344 1.966 . S
Co341 N350 2.022 . S
Co341 N358 1.993 . S
Co341 O366 1.941 . S
C342 O343 1.258 . S
C342 O344 1.263 . S
O343 Co340 1.970 . S
O343 C342 1.258 . S
O344 Co341 1.966 . S
O344 C342 1.263 . S
C345 O346 1.235 . S
C345 O372 1.289 . S
O346 C345 1.235 . S
C347 C349 1.400 . S
C347 N350 1.351 . S
C347 C352 1.501 . S
C348 C349 1.387 . S
C348 N351 1.341 . S
C349 C347 1.400 . S
C349 C348 1.387 . S
N350 Co341 2.022 . S
N350 C347 1.351 . S
N350 N351 1.365 . S
N351 C348 1.341 . S
N351 N350 1.365 . S
N351 H371 0.862 . S
C352 C347 1.501 . S
C352 H353 0.961 . S
C352 H354 0.961 . S
C352 H355 0.960 . S
H353 C352 0.961 . S
H354 C352 0.961 . S
H355 C352 0.960 . S
C356 N357 1.342 . S
C356 C360 1.401 . S
C356 C361 1.499 . S
N357 Co340 1.989 . S
N357 C356 1.342 . S
N357 N358 1.388 . S
N358 Co341 1.993 . S
N358 N357 1.388 . S
N358 C359 1.346 . S
C359 N358 1.346 . S
C359 C360 1.396 . S
C359 C369 1.510 . S
C360 C356 1.401 . S
C360 C359 1.396 . S
C361 C356 1.499 . S
C361 H362 0.959 . S
C361 H363 0.960 . S
C361 H364 0.961 . S
H362 C361 0.959 . S
H363 C361 0.960 . S
H364 C361 0.961 . S
O365 Co340 1.967 . S
O365 C373 1.258 . S
O366 Co341 1.941 . S
O366 C373 1.266 . S
H367 C369 0.959 . S
H368 C369 0.961 . S
C369 C359 1.510 . S
C369 H367 0.959 . S
C369 H368 0.961 . S
C369 H370 0.960 . S
H370 C369 0.960 . S
H371 N351 0.862 . S
O372 Co340 1.920 . S
O372 C345 1.289 . S
C373 O365 1.258 . S
C373 O366 1.266 . S
Co374 O377 1.970 . S
Co374 N391 1.989 . S
Co374 O399 1.967 . S
Co374 O406 1.920 . S
Co375 O378 1.966 . S
Co375 N384 2.022 1_655 S
Co375 N392 1.993 . S
Co375 O400 1.941 . S
C376 O377 1.258 . S
C376 O378 1.263 . S
O377 Co374 1.970 . S
O377 C376 1.258 . S
O378 Co375 1.966 . S
O378 C376 1.263 . S
C379 O380 1.235 . S
C379 O406 1.289 . S
O380 C379 1.235 . S
C381 C383 1.400 . S
C381 N384 1.351 . S
C381 C386 1.501 1_455 S
C382 C383 1.387 . S
C382 N385 1.341 . S
C383 C381 1.400 . S
C383 C382 1.387 . S
N384 Co375 2.022 1_455 S
N384 C381 1.351 . S
N384 N385 1.365 . S
N385 C382 1.341 . S
N385 N384 1.365 . S
N385 H405 0.862 . S
C386 C381 1.501 1_655 S
C386 H387 0.961 . S
C386 H388 0.961 . S
C386 H389 0.960 . S
H387 C386 0.961 . S
H388 C386 0.961 . S
H389 C386 0.960 . S
C390 N391 1.342 . S
C390 C394 1.401 . S
C390 C395 1.499 . S
N391 Co374 1.989 . S
N391 C390 1.342 . S
N391 N392 1.388 . S
N392 Co375 1.993 . S
N392 N391 1.388 . S
N392 C393 1.346 . S
C393 N392 1.346 . S
C393 C394 1.396 . S
C393 C403 1.510 1_655 S
C394 C390 1.401 . S
C394 C393 1.396 . S
C395 C390 1.499 . S
C395 H396 0.959 . S
C395 H397 0.960 . S
C395 H398 0.961 . S
H396 C395 0.959 . S
H397 C395 0.960 . S
H398 C395 0.961 . S
O399 Co374 1.967 . S
O399 C407 1.258 . S
O400 Co375 1.941 . S
O400 C407 1.266 . S
H401 C403 0.959 . S
H402 C403 0.961 . S
C403 C393 1.510 1_455 S
C403 H401 0.959 . S
C403 H402 0.961 . S
C403 H404 0.960 . S
H404 C403 0.960 . S
H405 N385 0.862 . S
O406 Co374 1.920 . S
O406 C379 1.289 . S
C407 O399 1.258 . S
C407 O400 1.266 . S
Co408 O411 1.970 . S
Co408 N425 1.989 . S
Co408 O433 1.967 . S
Co408 O440 1.920 . S
Co409 O412 1.966 . S
Co409 N418 2.022 . S
Co409 N426 1.993 . S
Co409 O434 1.941 . S
C410 O411 1.258 . S
C410 O412 1.263 . S
O411 Co408 1.970 . S
O411 C410 1.258 . S
O412 Co409 1.966 . S
O412 C410 1.263 . S
C413 O414 1.235 . S
C413 O440 1.289 . S
O414 C413 1.235 . S
C415 C417 1.400 . S
C415 N418 1.351 . S
C415 C420 1.501 . S
C416 C417 1.387 . S
C416 N419 1.341 . S
C417 C415 1.400 . S
C417 C416 1.387 . S
N418 Co409 2.022 . S
N418 C415 1.351 . S
N418 N419 1.365 . S
N419 C416 1.341 . S
N419 N418 1.365 . S
N419 H439 0.862 . S
C420 C415 1.501 . S
C420 H421 0.961 . S
C420 H422 0.961 . S
C420 H423 0.960 . S
H421 C420 0.961 . S
H422 C420 0.961 . S
H423 C420 0.960 . S
C424 N425 1.342 . S
C424 C428 1.401 . S
C424 C429 1.499 . S
N425 Co408 1.989 . S
N425 C424 1.342 . S
N425 N426 1.388 . S
N426 Co409 1.993 . S
N426 N425 1.388 . S
N426 C427 1.346 . S
C427 N426 1.346 . S
C427 C428 1.396 . S
C427 C437 1.510 . S
C428 C424 1.401 . S
C428 C427 1.396 . S
C429 C424 1.499 . S
C429 H430 0.959 . S
C429 H431 0.960 . S
C429 H432 0.961 . S
H430 C429 0.959 . S
H431 C429 0.960 . S
H432 C429 0.961 . S
O433 Co408 1.967 . S
O433 C441 1.258 . S
O434 Co409 1.941 . S
O434 C441 1.266 . S
H435 C437 0.959 . S
H436 C437 0.961 . S
C437 C427 1.510 . S
C437 H435 0.959 . S
C437 H436 0.961 . S
C437 H438 0.960 . S
H438 C437 0.960 . S
H439 N419 0.862 . S
O440 Co408 1.920 . S
O440 C413 1.289 . S
C441 O433 1.258 . S
C441 O434 1.266 . S
Co442 O445 1.970 . S
Co442 N459 1.989 . S
Co442 O467 1.967 . S
Co442 O474 1.920 . S
Co443 O446 1.966 . S
Co443 N452 2.022 1_655 S
Co443 N460 1.993 . S
Co443 O468 1.941 . S
C444 O445 1.258 . S
C444 O446 1.263 . S
O445 Co442 1.970 . S
O445 C444 1.258 . S
O446 Co443 1.966 . S
O446 C444 1.263 . S
C447 O448 1.235 . S
C447 O474 1.289 . S
O448 C447 1.235 . S
C449 C451 1.400 . S
C449 N452 1.351 . S
C449 C454 1.501 1_455 S
C450 C451 1.387 . S
C450 N453 1.341 . S
C451 C449 1.400 . S
C451 C450 1.387 . S
N452 Co443 2.022 1_455 S
N452 C449 1.351 . S
N452 N453 1.365 . S
N453 C450 1.341 . S
N453 N452 1.365 . S
N453 H473 0.862 . S
C454 C449 1.501 1_655 S
C454 H455 0.961 . S
C454 H456 0.961 . S
C454 H457 0.960 . S
H455 C454 0.961 . S
H456 C454 0.961 . S
H457 C454 0.960 . S
C458 N459 1.342 . S
C458 C462 1.401 . S
C458 C463 1.499 . S
N459 Co442 1.989 . S
N459 C458 1.342 . S
N459 N460 1.388 . S
N460 Co443 1.993 . S
N460 N459 1.388 . S
N460 C461 1.346 . S
C461 N460 1.346 . S
C461 C462 1.396 . S
C461 C471 1.510 1_655 S
C462 C458 1.401 . S
C462 C461 1.396 . S
C463 C458 1.499 . S
C463 H464 0.959 . S
C463 H465 0.960 . S
C463 H466 0.961 . S
H464 C463 0.959 . S
H465 C463 0.960 . S
H466 C463 0.961 . S
O467 Co442 1.967 . S
O467 C475 1.258 . S
O468 Co443 1.941 . S
O468 C475 1.266 . S
H469 C471 0.959 . S
H470 C471 0.961 . S
C471 C461 1.510 1_455 S
C471 H469 0.959 . S
C471 H470 0.961 . S
C471 H472 0.960 . S
H472 C471 0.960 . S
H473 N453 0.862 . S
O474 Co442 1.920 . S
O474 C447 1.289 . S
C475 O467 1.258 . S
C475 O468 1.266 . S
Co476 O479 1.970 . S
Co476 N493 1.989 . S
Co476 O501 1.967 . S
Co476 O508 1.920 . S
Co477 O480 1.966 . S
Co477 N486 2.022 1_565 S
Co477 N494 1.993 . S
Co477 O502 1.941 . S
C478 O479 1.258 . S
C478 O480 1.263 . S
O479 Co476 1.970 . S
O479 C478 1.258 . S
O480 Co477 1.966 . S
O480 C478 1.263 . S
C481 O482 1.235 . S
C481 O508 1.289 . S
O482 C481 1.235 . S
C483 C485 1.400 . S
C483 N486 1.351 . S
C483 C488 1.501 1_545 S
C484 C485 1.387 . S
C484 N487 1.341 . S
C485 C483 1.400 . S
C485 C484 1.387 . S
N486 Co477 2.022 1_545 S
N486 C483 1.351 . S
N486 N487 1.365 . S
N487 C484 1.341 . S
N487 N486 1.365 . S
N487 H507 0.862 . S
C488 C483 1.501 1_565 S
C488 H489 0.961 . S
C488 H490 0.961 . S
C488 H491 0.960 . S
H489 C488 0.961 . S
H490 C488 0.961 . S
H491 C488 0.960 . S
C492 N493 1.342 . S
C492 C496 1.401 . S
C492 C497 1.499 . S
N493 Co476 1.989 . S
N493 C492 1.342 . S
N493 N494 1.388 . S
N494 Co477 1.993 . S
N494 N493 1.388 . S
N494 C495 1.346 . S
C495 N494 1.346 . S
C495 C496 1.396 . S
C495 C505 1.510 1_565 S
C496 C492 1.401 . S
C496 C495 1.396 . S
C497 C492 1.499 . S
C497 H498 0.959 . S
C497 H499 0.960 . S
C497 H500 0.961 . S
H498 C497 0.959 . S
H499 C497 0.960 . S
H500 C497 0.961 . S
O501 Co476 1.967 . S
O501 C509 1.258 . S
O502 Co477 1.941 . S
O502 C509 1.266 . S
H503 C505 0.959 . S
H504 C505 0.961 . S
C505 C495 1.510 1_545 S
C505 H503 0.959 . S
C505 H504 0.961 . S
C505 H506 0.960 . S
H506 C505 0.960 . S
H507 N487 0.862 . S
O508 Co476 1.920 . S
O508 C481 1.289 . S
C509 O501 1.258 . S
C509 O502 1.266 . S
Co510 O513 1.970 . S
Co510 N527 1.989 . S
Co510 O535 1.967 . S
Co510 O542 1.920 . S
Co511 O514 1.966 . S
Co511 N520 2.022 . S
Co511 N528 1.993 . S
Co511 O536 1.941 . S
C512 O513 1.258 . S
C512 O514 1.263 . S
O513 Co510 1.970 . S
O513 C512 1.258 . S
O514 Co511 1.966 . S
O514 C512 1.263 . S
C515 O516 1.235 . S
C515 O542 1.289 . S
O516 C515 1.235 . S
C517 C519 1.400 . S
C517 N520 1.351 . S
C517 C522 1.501 . S
C518 C519 1.387 . S
C518 N521 1.341 . S
C519 C517 1.400 . S
C519 C518 1.387 . S
N520 Co511 2.022 . S
N520 C517 1.351 . S
N520 N521 1.365 . S
N521 C518 1.341 . S
N521 N520 1.365 . S
N521 H541 0.862 . S
C522 C517 1.501 . S
C522 H523 0.961 . S
C522 H524 0.961 . S
C522 H525 0.960 . S
H523 C522 0.961 . S
H524 C522 0.961 . S
H525 C522 0.960 . S
C526 N527 1.342 . S
C526 C530 1.401 . S
C526 C531 1.499 . S
N527 Co510 1.989 . S
N527 C526 1.342 . S
N527 N528 1.388 . S
N528 Co511 1.993 . S
N528 N527 1.388 . S
N528 C529 1.346 . S
C529 N528 1.346 . S
C529 C530 1.396 . S
C529 C539 1.510 . S
C530 C526 1.401 . S
C530 C529 1.396 . S
C531 C526 1.499 . S
C531 H532 0.959 . S
C531 H533 0.960 . S
C531 H534 0.961 . S
H532 C531 0.959 . S
H533 C531 0.960 . S
H534 C531 0.961 . S
O535 Co510 1.967 . S
O535 C543 1.258 . S
O536 Co511 1.941 . S
O536 C543 1.266 . S
H537 C539 0.959 . S
H538 C539 0.961 . S
C539 C529 1.510 . S
C539 H537 0.959 . S
C539 H538 0.961 . S
C539 H540 0.960 . S
H540 C539 0.960 . S
H541 N521 0.862 . S
O542 Co510 1.920 . S
O542 C515 1.289 . S
C543 O535 1.258 . S
C543 O536 1.266 . S
H544 C550 0.930 . S
H545 C553 0.930 . S
H546 C554 0.930 . S
H547 C555 0.930 . S
H548 C558 0.930 . S
H549 C559 0.930 . S
C550 H544 0.930 . S
C550 C551 1.355 . S
C550 C552 1.415 . S
C551 C550 1.355 . S
C551 C553 1.419 . S
C552 C550 1.415 . S
C552 C557 1.425 . S
C552 C559 1.409 . S
C553 H545 0.930 . S
C553 C551 1.419 . S
C553 C554 1.362 . S
C554 H546 0.930 . S
C554 C553 1.362 . S
C554 C557 1.409 . S
C555 H547 0.930 . S
C555 C556 1.355 . S
C555 C557 1.415 . S
C556 C555 1.355 . S
C556 C558 1.419 . S
C557 C552 1.425 . S
C557 C554 1.409 . S
C557 C555 1.415 . S
C558 H548 0.930 . S
C558 C556 1.419 . S
C558 C559 1.362 . S
C559 H549 0.930 . S
C559 C552 1.409 . S
C559 C558 1.362 . S
H560 C566 0.930 . S
H561 C569 0.930 . S
H562 C570 0.930 . S
H563 C571 0.930 . S
H564 C574 0.930 . S
H565 C575 0.930 . S
C566 H560 0.930 . S
C566 C567 1.355 . S
C566 C568 1.415 . S
C567 C566 1.355 . S
C567 C569 1.419 . S
C568 C566 1.415 . S
C568 C573 1.425 . S
C568 C575 1.409 . S
C569 H561 0.930 . S
C569 C567 1.419 . S
C569 C570 1.362 . S
C570 H562 0.930 . S
C570 C569 1.362 . S
C570 C573 1.409 . S
C571 H563 0.930 . S
C571 C572 1.355 . S
C571 C573 1.415 . S
C572 C571 1.355 . S
C572 C574 1.419 . S
C573 C568 1.425 . S
C573 C570 1.409 . S
C573 C571 1.415 . S
C574 H564 0.930 . S
C574 C572 1.419 . S
C574 C575 1.362 . S
C575 H565 0.930 . S
C575 C568 1.409 . S
C575 C574 1.362 . S
H576 C582 0.930 . S
H577 C585 0.930 . S
H578 C586 0.930 . S
H579 C587 0.930 . S
H580 C590 0.930 . S
H581 C591 0.930 . S
C582 H576 0.930 . S
C582 C583 1.355 . S
C582 C584 1.415 . S
C583 C582 1.355 . S
C583 C585 1.419 . S
C584 C582 1.415 . S
C584 C589 1.425 . S
C584 C591 1.409 . S
C585 H577 0.930 . S
C585 C583 1.419 . S
C585 C586 1.362 . S
C586 H578 0.930 . S
C586 C585 1.362 . S
C586 C589 1.409 . S
C587 H579 0.930 . S
C587 C588 1.355 . S
C587 C589 1.415 . S
C588 C587 1.355 . S
C588 C590 1.419 . S
C589 C584 1.425 . S
C589 C586 1.409 . S
C589 C587 1.415 . S
C590 H580 0.930 . S
C590 C588 1.419 . S
C590 C591 1.362 . S
C591 H581 0.930 . S
C591 C584 1.409 . S
C591 C590 1.362 . S
H592 C598 0.930 . S
H593 C601 0.930 . S
H594 C602 0.930 . S
H595 C603 0.930 . S
H596 C606 0.930 . S
H597 C607 0.930 . S
C598 H592 0.930 . S
C598 C599 1.355 . S
C598 C600 1.415 . S
C599 C598 1.355 . S
C599 C601 1.419 . S
C600 C598 1.415 . S
C600 C605 1.425 . S
C600 C607 1.409 . S
C601 H593 0.930 . S
C601 C599 1.419 . S
C601 C602 1.362 . S
C602 H594 0.930 . S
C602 C601 1.362 . S
C602 C605 1.409 . S
C603 H595 0.930 . S
C603 C604 1.355 . S
C603 C605 1.415 . S
C604 C603 1.355 . S
C604 C606 1.419 . S
C605 C600 1.425 . S
C605 C602 1.409 . S
C605 C603 1.415 . S
C606 H596 0.930 . S
C606 C604 1.419 . S
C606 C607 1.362 . S
C607 H597 0.930 . S
C607 C600 1.409 . S
C607 C606 1.362 . S
H608 C614 0.930 . S
H609 C617 0.930 . S
H610 C618 0.930 . S
H611 C619 0.930 . S
H612 C622 0.930 . S
H613 C623 0.930 . S
C614 H608 0.930 . S
C614 C615 1.355 . S
C614 C616 1.415 . S
C615 C614 1.355 . S
C615 C617 1.419 . S
C616 C614 1.415 . S
C616 C621 1.425 . S
C616 C623 1.409 . S
C617 H609 0.930 . S
C617 C615 1.419 . S
C617 C618 1.362 . S
C618 H610 0.930 . S
C618 C617 1.362 . S
C618 C621 1.409 . S
C619 H611 0.930 . S
C619 C620 1.355 . S
C619 C621 1.415 . S
C620 C619 1.355 . S
C620 C622 1.419 . S
C621 C616 1.425 . S
C621 C618 1.409 . S
C621 C619 1.415 . S
C622 H612 0.930 . S
C622 C620 1.419 . S
C622 C623 1.362 . S
C623 H613 0.930 . S
C623 C616 1.409 . S
C623 C622 1.362 . S
H624 C630 0.930 . S
H625 C633 0.930 . S
H626 C634 0.930 . S
H627 C635 0.930 . S
H628 C638 0.930 . S
H629 C639 0.930 . S
C630 H624 0.930 . S
C630 C631 1.355 . S
C630 C632 1.415 . S
C631 C630 1.355 . S
C631 C633 1.419 . S
C632 C630 1.415 . S
C632 C637 1.425 . S
C632 C639 1.409 . S
C633 H625 0.930 . S
C633 C631 1.419 . S
C633 C634 1.362 . S
C634 H626 0.930 . S
C634 C633 1.362 . S
C634 C637 1.409 . S
C635 H627 0.930 . S
C635 C636 1.355 . S
C635 C637 1.415 . S
C636 C635 1.355 . S
C636 C638 1.419 . S
C637 C632 1.425 . S
C637 C634 1.409 . S
C637 C635 1.415 . S
C638 H628 0.930 . S
C638 C636 1.419 . S
C638 C639 1.362 . S
C639 H629 0.930 . S
C639 C632 1.409 . S
C639 C638 1.362 . S
H640 C646 0.930 . S
H641 C649 0.930 . S
H642 C650 0.930 . S
H643 C651 0.930 . S
H644 C654 0.930 . S
H645 C655 0.930 . S
C646 H640 0.930 . S
C646 C647 1.355 . S
C646 C648 1.415 . S
C647 C646 1.355 . S
C647 C649 1.419 . S
C648 C646 1.415 . S
C648 C653 1.425 . S
C648 C655 1.409 . S
C649 H641 0.930 . S
C649 C647 1.419 . S
C649 C650 1.362 . S
C650 H642 0.930 . S
C650 C649 1.362 . S
C650 C653 1.409 . S
C651 H643 0.930 . S
C651 C652 1.355 . S
C651 C653 1.415 . S
C652 C651 1.355 . S
C652 C654 1.419 . S
C653 C648 1.425 . S
C653 C650 1.409 . S
C653 C651 1.415 . S
C654 H644 0.930 . S
C654 C652 1.419 . S
C654 C655 1.362 . S
C655 H645 0.930 . S
C655 C648 1.409 . S
C655 C654 1.362 . S
H656 C662 0.930 . S
H657 C665 0.930 . S
H658 C666 0.930 . S
H659 C667 0.930 . S
H660 C670 0.930 . S
H661 C671 0.930 . S
C662 H656 0.930 . S
C662 C663 1.355 . S
C662 C664 1.415 . S
C663 C662 1.355 . S
C663 C665 1.419 . S
C664 C662 1.415 . S
C664 C669 1.425 . S
C664 C671 1.409 . S
C665 H657 0.930 . S
C665 C663 1.419 . S
C665 C666 1.362 . S
C666 H658 0.930 . S
C666 C665 1.362 . S
C666 C669 1.409 . S
C667 H659 0.930 . S
C667 C668 1.355 . S
C667 C669 1.415 . S
C668 C667 1.355 . S
C668 C670 1.419 . S
C669 C664 1.425 . S
C669 C666 1.409 . S
C669 C667 1.415 . S
C670 H660 0.930 . S
C670 C668 1.419 . S
C670 C671 1.362 . S
C671 H661 0.930 . S
C671 C664 1.409 . S
C671 C670 1.362 . S
H672 C678 0.930 . S
H673 C681 0.930 . S
H674 C682 0.930 . S
H675 C683 0.930 . S
H676 C686 0.930 . S
H677 C687 0.930 . S
C678 H672 0.930 . S
C678 C679 1.355 . S
C678 C680 1.415 . S
C679 C678 1.355 . S
C679 C681 1.419 . S
C680 C678 1.415 . S
C680 C685 1.425 . S
C680 C687 1.409 . S
C681 H673 0.930 . S
C681 C679 1.419 . S
C681 C682 1.362 . S
C682 H674 0.930 . S
C682 C681 1.362 . S
C682 C685 1.409 . S
C683 H675 0.930 . S
C683 C684 1.355 . S
C683 C685 1.415 . S
C684 C683 1.355 . S
C684 C686 1.419 . S
C685 C680 1.425 . S
C685 C682 1.409 . S
C685 C683 1.415 . S
C686 H676 0.930 . S
C686 C684 1.419 . S
C686 C687 1.362 . S
C687 H677 0.930 . S
C687 C680 1.409 . S
C687 C686 1.362 . S
H688 C694 0.930 . S
H689 C697 0.930 . S
H690 C698 0.930 . S
H691 C699 0.930 . S
H692 C702 0.930 . S
H693 C703 0.930 . S
C694 H688 0.930 . S
C694 C695 1.355 . S
C694 C696 1.415 . S
C695 C694 1.355 . S
C695 C697 1.419 . S
C696 C694 1.415 . S
C696 C701 1.425 . S
C696 C703 1.409 . S
C697 H689 0.930 . S
C697 C695 1.419 . S
C697 C698 1.362 . S
C698 H690 0.930 . S
C698 C697 1.362 . S
C698 C701 1.409 . S
C699 H691 0.930 . S
C699 C700 1.355 . S
C699 C701 1.415 . S
C700 C699 1.355 . S
C700 C702 1.419 . S
C701 C696 1.425 . S
C701 C698 1.409 . S
C701 C699 1.415 . S
C702 H692 0.930 . S
C702 C700 1.419 . S
C702 C703 1.362 . S
C703 H693 0.930 . S
C703 C696 1.409 . S
C703 C702 1.362 . S
H704 C710 0.930 . S
H705 C713 0.930 . S
H706 C714 0.930 . S
H707 C715 0.930 . S
H708 C718 0.930 . S
H709 C719 0.930 . S
C710 H704 0.930 . S
C710 C711 1.355 . S
C710 C712 1.415 . S
C711 C710 1.355 . S
C711 C713 1.419 . S
C712 C710 1.415 . S
C712 C717 1.425 . S
C712 C719 1.409 . S
C713 H705 0.930 . S
C713 C711 1.419 . S
C713 C714 1.362 . S
C714 H706 0.930 . S
C714 C713 1.362 . S
C714 C717 1.409 . S
C715 H707 0.930 . S
C715 C716 1.355 . S
C715 C717 1.415 . S
C716 C715 1.355 . S
C716 C718 1.419 . S
C717 C712 1.425 . S
C717 C714 1.409 . S
C717 C715 1.415 . S
C718 H708 0.930 . S
C718 C716 1.419 . S
C718 C719 1.362 . S
C719 H709 0.930 . S
C719 C712 1.409 . S
C719 C718 1.362 . S
H720 C726 0.930 . S
H721 C729 0.930 . S
H722 C730 0.930 . S
H723 C731 0.930 . S
H724 C734 0.930 . S
H725 C735 0.930 . S
C726 H720 0.930 . S
C726 C727 1.355 . S
C726 C728 1.415 . S
C727 C726 1.355 . S
C727 C729 1.419 . S
C728 C726 1.415 . S
C728 C733 1.425 . S
C728 C735 1.409 . S
C729 H721 0.930 . S
C729 C727 1.419 . S
C729 C730 1.362 . S
C730 H722 0.930 . S
C730 C729 1.362 . S
C730 C733 1.409 . S
C731 H723 0.930 . S
C731 C732 1.355 . S
C731 C733 1.415 . S
C732 C731 1.355 . S
C732 C734 1.419 . S
C733 C728 1.425 . S
C733 C730 1.409 . S
C733 C731 1.415 . S
C734 H724 0.930 . S
C734 C732 1.419 . S
C734 C735 1.362 . S
C735 H725 0.930 . S
C735 C728 1.409 . S
C735 C734 1.362 . S
H736 C742 0.930 . S
H737 C745 0.930 . S
H738 C746 0.930 . S
H739 C747 0.930 . S
H740 C750 0.930 . S
H741 C751 0.930 . S
C742 H736 0.930 . S
C742 C743 1.355 . S
C742 C744 1.415 . S
C743 C742 1.355 . S
C743 C745 1.419 . S
C744 C742 1.415 . S
C744 C749 1.425 . S
C744 C751 1.409 . S
C745 H737 0.930 . S
C745 C743 1.419 . S
C745 C746 1.362 . S
C746 H738 0.930 . S
C746 C745 1.362 . S
C746 C749 1.409 . S
C747 H739 0.930 . S
C747 C748 1.355 . S
C747 C749 1.415 . S
C748 C747 1.355 . S
C748 C750 1.419 . S
C749 C744 1.425 . S
C749 C746 1.409 . S
C749 C747 1.415 . S
C750 H740 0.930 . S
C750 C748 1.419 . S
C750 C751 1.362 . S
C751 H741 0.930 . S
C751 C744 1.409 . S
C751 C750 1.362 . S
H752 C758 0.930 . S
H753 C761 0.930 . S
H754 C762 0.930 . S
H755 C763 0.930 . S
H756 C766 0.930 . S
H757 C767 0.930 . S
C758 H752 0.930 . S
C758 C759 1.355 . S
C758 C760 1.415 . S
C759 C758 1.355 . S
C759 C761 1.419 . S
C760 C758 1.415 . S
C760 C765 1.425 . S
C760 C767 1.409 . S
C761 H753 0.930 . S
C761 C759 1.419 . S
C761 C762 1.362 . S
C762 H754 0.930 . S
C762 C761 1.362 . S
C762 C765 1.409 . S
C763 H755 0.930 . S
C763 C764 1.355 . S
C763 C765 1.415 . S
C764 C763 1.355 . S
C764 C766 1.419 . S
C765 C760 1.425 . S
C765 C762 1.409 . S
C765 C763 1.415 . S
C766 H756 0.930 . S
C766 C764 1.419 . S
C766 C767 1.362 . S
C767 H757 0.930 . S
C767 C760 1.409 . S
C767 C766 1.362 . S
H768 C774 0.930 . S
H769 C777 0.930 . S
H770 C778 0.930 . S
H771 C779 0.930 . S
H772 C782 0.930 . S
H773 C783 0.930 . S
C774 H768 0.930 . S
C774 C775 1.355 . S
C774 C776 1.415 . S
C775 C774 1.355 . S
C775 C777 1.419 . S
C776 C774 1.415 . S
C776 C781 1.425 . S
C776 C783 1.409 . S
C777 H769 0.930 . S
C777 C775 1.419 . S
C777 C778 1.362 . S
C778 H770 0.930 . S
C778 C777 1.362 . S
C778 C781 1.409 . S
C779 H771 0.930 . S
C779 C780 1.355 . S
C779 C781 1.415 . S
C780 C779 1.355 . S
C780 C782 1.419 . S
C781 C776 1.425 . S
C781 C778 1.409 . S
C781 C779 1.415 . S
C782 H772 0.930 . S
C782 C780 1.419 . S
C782 C783 1.362 . S
C783 H773 0.930 . S
C783 C776 1.409 . S
C783 C782 1.362 . S
H784 C790 0.930 . S
H785 C793 0.930 . S
H786 C794 0.930 . S
H787 C795 0.930 . S
H788 C798 0.930 . S
H789 C799 0.930 . S
C790 H784 0.930 . S
C790 C791 1.355 . S
C790 C792 1.415 . S
C791 C790 1.355 . S
C791 C793 1.419 . S
C792 C790 1.415 . S
C792 C797 1.425 . S
C792 C799 1.409 . S
C793 H785 0.930 . S
C793 C791 1.419 . S
C793 C794 1.362 . S
C794 H786 0.930 . S
C794 C793 1.362 . S
C794 C797 1.409 . S
C795 H787 0.930 . S
C795 C796 1.355 . S
C795 C797 1.415 . S
C796 C795 1.355 . S
C796 C798 1.419 . S
C797 C792 1.425 . S
C797 C794 1.409 . S
C797 C795 1.415 . S
C798 H788 0.930 . S
C798 C796 1.419 . S
C798 C799 1.362 . S
C799 H789 0.930 . S
C799 C792 1.409 . S
C799 C798 1.362 . S
H800 C806 0.930 . S
H801 C809 0.930 . S
H802 C810 0.930 . S
H803 C811 0.930 . S
H804 C814 0.930 . S
H805 C815 0.930 . S
C806 H800 0.930 . S
C806 C807 1.355 . S
C806 C808 1.415 . S
C807 C806 1.355 . S
C807 C809 1.419 . S
C808 C806 1.415 . S
C808 C813 1.425 . S
C808 C815 1.409 . S
C809 H801 0.930 . S
C809 C807 1.419 . S
C809 C810 1.362 . S
C810 H802 0.930 . S
C810 C809 1.362 . S
C810 C813 1.409 . S
C811 H803 0.930 . S
C811 C812 1.355 . S
C811 C813 1.415 . S
C812 C811 1.355 . S
C812 C814 1.419 . S
C813 C808 1.425 . S
C813 C810 1.409 . S
C813 C811 1.415 . S
C814 H804 0.930 . S
C814 C812 1.419 . S
C814 C815 1.362 . S
C815 H805 0.930 . S
C815 C808 1.409 . S
C815 C814 1.362 . S
H816 C822 0.930 . S
H817 C825 0.930 . S
H818 C826 0.930 . S
H819 C827 0.930 . S
H820 C830 0.930 . S
H821 C831 0.930 . S
C822 H816 0.930 . S
C822 C823 1.355 . S
C822 C824 1.415 . S
C823 C822 1.355 . S
C823 C825 1.419 . S
C824 C822 1.415 . S
C824 C829 1.425 . S
C824 C831 1.409 . S
C825 H817 0.930 . S
C825 C823 1.419 . S
C825 C826 1.362 . S
C826 H818 0.930 . S
C826 C825 1.362 . S
C826 C829 1.409 . S
C827 H819 0.930 . S
C827 C828 1.355 . S
C827 C829 1.415 . S
C828 C827 1.355 . S
C828 C830 1.419 . S
C829 C824 1.425 . S
C829 C826 1.409 . S
C829 C827 1.415 . S
C830 H820 0.930 . S
C830 C828 1.419 . S
C830 C831 1.362 . S
C831 H821 0.930 . S
C831 C824 1.409 . S
C831 C830 1.362 . S
H832 C838 0.930 . S
H833 C841 0.930 . S
H834 C842 0.930 . S
H835 C843 0.930 . S
H836 C846 0.930 . S
H837 C847 0.930 . S
C838 H832 0.930 . S
C838 C839 1.355 . S
C838 C840 1.415 . S
C839 C838 1.355 . S
C839 C841 1.419 . S
C840 C838 1.415 . S
C840 C845 1.425 . S
C840 C847 1.409 . S
C841 H833 0.930 . S
C841 C839 1.419 . S
C841 C842 1.362 . S
C842 H834 0.930 . S
C842 C841 1.362 . S
C842 C845 1.409 . S
C843 H835 0.930 . S
C843 C844 1.355 . S
C843 C845 1.415 . S
C844 C843 1.355 . S
C844 C846 1.419 . S
C845 C840 1.425 . S
C845 C842 1.409 . S
C845 C843 1.415 . S
C846 H836 0.930 . S
C846 C844 1.419 . S
C846 C847 1.362 . S
C847 H837 0.930 . S
C847 C840 1.409 . S
C847 C846 1.362 . S
H848 C854 0.930 . S
H849 C857 0.930 . S
H850 C858 0.930 . S
H851 C859 0.930 . S
H852 C862 0.930 . S
H853 C863 0.930 . S
C854 H848 0.930 . S
C854 C855 1.355 . S
C854 C856 1.415 . S
C855 C854 1.355 . S
C855 C857 1.419 . S
C856 C854 1.415 . S
C856 C861 1.425 . S
C856 C863 1.409 . S
C857 H849 0.930 . S
C857 C855 1.419 . S
C857 C858 1.362 . S
C858 H850 0.930 . S
C858 C857 1.362 . S
C858 C861 1.409 . S
C859 H851 0.930 . S
C859 C860 1.355 . S
C859 C861 1.415 . S
C860 C859 1.355 . S
C860 C862 1.419 . S
C861 C856 1.425 . S
C861 C858 1.409 . S
C861 C859 1.415 . S
C862 H852 0.930 . S
C862 C860 1.419 . S
C862 C863 1.362 . S
C863 H853 0.930 . S
C863 C856 1.409 . S
C863 C862 1.362 . S
H864 C870 0.930 . S
H865 C873 0.930 . S
H866 C874 0.930 . S
H867 C875 0.930 . S
H868 C878 0.930 . S
H869 C879 0.930 . S
C870 H864 0.930 . S
C870 C871 1.355 . S
C870 C872 1.415 . S
C871 C870 1.355 . S
C871 C873 1.419 . S
C872 C870 1.415 . S
C872 C877 1.425 . S
C872 C879 1.409 . S
C873 H865 0.930 . S
C873 C871 1.419 . S
C873 C874 1.362 . S
C874 H866 0.930 . S
C874 C873 1.362 . S
C874 C877 1.409 . S
C875 H867 0.930 . S
C875 C876 1.355 . S
C875 C877 1.415 . S
C876 C875 1.355 . S
C876 C878 1.419 . S
C877 C872 1.425 . S
C877 C874 1.409 . S
C877 C875 1.415 . S
C878 H868 0.930 . S
C878 C876 1.419 . S
C878 C879 1.362 . S
C879 H869 0.930 . S
C879 C872 1.409 . S
C879 C878 1.362 . S
H880 C886 0.930 . S
H881 C889 0.930 . S
H882 C890 0.930 . S
H883 C891 0.930 . S
H884 C894 0.930 . S
H885 C895 0.930 . S
C886 H880 0.930 . S
C886 C887 1.355 . S
C886 C888 1.415 . S
C887 C886 1.355 . S
C887 C889 1.419 . S
C888 C886 1.415 . S
C888 C893 1.425 . S
C888 C895 1.409 . S
C889 H881 0.930 . S
C889 C887 1.419 . S
C889 C890 1.362 . S
C890 H882 0.930 . S
C890 C889 1.362 . S
C890 C893 1.409 . S
C891 H883 0.930 . S
C891 C892 1.355 . S
C891 C893 1.415 . S
C892 C891 1.355 . S
C892 C894 1.419 . S
C893 C888 1.425 . S
C893 C890 1.409 . S
C893 C891 1.415 . S
C894 H884 0.930 . S
C894 C892 1.419 . S
C894 C895 1.362 . S
C895 H885 0.930 . S
C895 C888 1.409 . S
C895 C894 1.362 . S
H896 C902 0.930 . S
H897 C905 0.930 . S
H898 C906 0.930 . S
H899 C907 0.930 . S
H900 C910 0.930 . S
H901 C911 0.930 . S
C902 H896 0.930 . S
C902 C903 1.355 . S
C902 C904 1.415 . S
C903 C902 1.355 . S
C903 C905 1.419 . S
C904 C902 1.415 . S
C904 C909 1.425 . S
C904 C911 1.409 . S
C905 H897 0.930 . S
C905 C903 1.419 . S
C905 C906 1.362 . S
C906 H898 0.930 . S
C906 C905 1.362 . S
C906 C909 1.409 . S
C907 H899 0.930 . S
C907 C908 1.355 . S
C907 C909 1.415 . S
C908 C907 1.355 . S
C908 C910 1.419 . S
C909 C904 1.425 . S
C909 C906 1.409 . S
C909 C907 1.415 . S
C910 H900 0.930 . S
C910 C908 1.419 . S
C910 C911 1.362 . S
C911 H901 0.930 . S
C911 C904 1.409 . S
C911 C910 1.362 . S
H912 C918 0.930 . S
H913 C921 0.930 . S
H914 C922 0.930 . S
H915 C923 0.930 . S
H916 C926 0.930 . S
H917 C927 0.930 . S
C918 H912 0.930 . S
C918 C919 1.355 . S
C918 C920 1.415 . S
C919 C918 1.355 . S
C919 C921 1.419 . S
C920 C918 1.415 . S
C920 C925 1.425 . S
C920 C927 1.409 . S
C921 H913 0.930 . S
C921 C919 1.419 . S
C921 C922 1.362 . S
C922 H914 0.930 . S
C922 C921 1.362 . S
C922 C925 1.409 . S
C923 H915 0.930 . S
C923 C924 1.355 . S
C923 C925 1.415 . S
C924 C923 1.355 . S
C924 C926 1.419 . S
C925 C920 1.425 . S
C925 C922 1.409 . S
C925 C923 1.415 . S
C926 H916 0.930 . S
C926 C924 1.419 . S
C926 C927 1.362 . S
C927 H917 0.930 . S
C927 C920 1.409 . S
C927 C926 1.362 . S
H928 C934 0.930 . S
H929 C937 0.930 . S
H930 C938 0.930 . S
H931 C939 0.930 . S
H932 C942 0.930 . S
H933 C943 0.930 . S
C934 H928 0.930 . S
C934 C935 1.355 . S
C934 C936 1.415 . S
C935 C934 1.355 . S
C935 C937 1.419 . S
C936 C934 1.415 . S
C936 C941 1.425 . S
C936 C943 1.409 . S
C937 H929 0.930 . S
C937 C935 1.419 . S
C937 C938 1.362 . S
C938 H930 0.930 . S
C938 C937 1.362 . S
C938 C941 1.409 . S
C939 H931 0.930 . S
C939 C940 1.355 . S
C939 C941 1.415 . S
C940 C939 1.355 . S
C940 C942 1.419 . S
C941 C936 1.425 . S
C941 C938 1.409 . S
C941 C939 1.415 . S
C942 H932 0.930 . S
C942 C940 1.419 . S
C942 C943 1.362 . S
C943 H933 0.930 . S
C943 C936 1.409 . S
C943 C942 1.362 . S
H944 C950 0.930 . S
H945 C953 0.930 . S
H946 C954 0.930 . S
H947 C955 0.930 . S
H948 C958 0.930 . S
H949 C959 0.930 . S
C950 H944 0.930 . S
C950 C951 1.355 . S
C950 C952 1.415 . S
C951 C950 1.355 . S
C951 C953 1.419 . S
C952 C950 1.415 . S
C952 C957 1.425 . S
C952 C959 1.409 . S
C953 H945 0.930 . S
C953 C951 1.419 . S
C953 C954 1.362 . S
C954 H946 0.930 . S
C954 C953 1.362 . S
C954 C957 1.409 . S
C955 H947 0.930 . S
C955 C956 1.355 . S
C955 C957 1.415 . S
C956 C955 1.355 . S
C956 C958 1.419 . S
C957 C952 1.425 . S
C957 C954 1.409 . S
C957 C955 1.415 . S
C958 H948 0.930 . S
C958 C956 1.419 . S
C958 C959 1.362 . S
C959 H949 0.930 . S
C959 C952 1.409 . S
C959 C958 1.362 . S
H960 C966 0.930 . S
H961 C969 0.930 . S
H962 C970 0.930 . S
H963 C971 0.930 . S
H964 C974 0.930 . S
H965 C975 0.930 . S
C966 H960 0.930 . S
C966 C967 1.355 . S
C966 C968 1.415 . S
C967 C966 1.355 . S
C967 C969 1.419 . S
C968 C966 1.415 . S
C968 C973 1.425 . S
C968 C975 1.409 . S
C969 H961 0.930 . S
C969 C967 1.419 . S
C969 C970 1.362 . S
C970 H962 0.930 . S
C970 C969 1.362 . S
C970 C973 1.409 . S
C971 H963 0.930 . S
C971 C972 1.355 . S
C971 C973 1.415 . S
C972 C971 1.355 . S
C972 C974 1.419 . S
C973 C968 1.425 . S
C973 C970 1.409 . S
C973 C971 1.415 . S
C974 H964 0.930 . S
C974 C972 1.419 . S
C974 C975 1.362 . S
C975 H965 0.930 . S
C975 C968 1.409 . S
C975 C974 1.362 . S
H976 C982 0.930 . S
H977 C985 0.930 . S
H978 C986 0.930 . S
H979 C987 0.930 . S
H980 C990 0.930 . S
H981 C991 0.930 . S
C982 H976 0.930 . S
C982 C983 1.355 . S
C982 C984 1.415 . S
C983 C982 1.355 . S
C983 C985 1.419 . S
C984 C982 1.415 . S
C984 C989 1.425 . S
C984 C991 1.409 . S
C985 H977 0.930 . S
C985 C983 1.419 . S
C985 C986 1.362 . S
C986 H978 0.930 . S
C986 C985 1.362 . S
C986 C989 1.409 . S
C987 H979 0.930 . S
C987 C988 1.355 . S
C987 C989 1.415 . S
C988 C987 1.355 . S
C988 C990 1.419 . S
C989 C984 1.425 . S
C989 C986 1.409 . S
C989 C987 1.415 . S
C990 H980 0.930 . S
C990 C988 1.419 . S
C990 C991 1.362 . S
C991 H981 0.930 . S
C991 C984 1.409 . S
C991 C990 1.362 . S
H992 C998 0.930 . S
H993 C1001 0.930 . S
H994 C1002 0.930 . S
H995 C1003 0.930 . S
H996 C1006 0.930 . S
H997 C1007 0.930 . S
C998 H992 0.930 . S
C998 C999 1.355 . S
C998 C1000 1.415 . S
C999 C998 1.355 . S
C999 C1001 1.419 . S
C1000 C998 1.415 . S
C1000 C1005 1.425 . S
C1000 C1007 1.409 . S
C1001 H993 0.930 . S
C1001 C999 1.419 . S
C1001 C1002 1.362 . S
C1002 H994 0.930 . S
C1002 C1001 1.362 . S
C1002 C1005 1.409 . S
C1003 H995 0.930 . S
C1003 C1004 1.355 . S
C1003 C1005 1.415 . S
C1004 C1003 1.355 . S
C1004 C1006 1.419 . S
C1005 C1000 1.425 . S
C1005 C1002 1.409 . S
C1005 C1003 1.415 . S
C1006 H996 0.930 . S
C1006 C1004 1.419 . S
C1006 C1007 1.362 . S
C1007 H997 0.930 . S
C1007 C1000 1.409 . S
C1007 C1006 1.362 . S
H1008 C1014 0.930 . S
H1009 C1017 0.930 . S
H1010 C1018 0.930 . S
H1011 C1019 0.930 . S
H1012 C1022 0.930 . S
H1013 C1023 0.930 . S
C1014 H1008 0.930 . S
C1014 C1015 1.355 . S
C1014 C1016 1.415 . S
C1015 C1014 1.355 . S
C1015 C1017 1.419 . S
C1016 C1014 1.415 . S
C1016 C1021 1.425 . S
C1016 C1023 1.409 . S
C1017 H1009 0.930 . S
C1017 C1015 1.419 . S
C1017 C1018 1.362 . S
C1018 H1010 0.930 . S
C1018 C1017 1.362 . S
C1018 C1021 1.409 . S
C1019 H1011 0.930 . S
C1019 C1020 1.355 . S
C1019 C1021 1.415 . S
C1020 C1019 1.355 . S
C1020 C1022 1.419 . S
C1021 C1016 1.425 . S
C1021 C1018 1.409 . S
C1021 C1019 1.415 . S
C1022 H1012 0.930 . S
C1022 C1020 1.419 . S
C1022 C1023 1.362 . S
C1023 H1013 0.930 . S
C1023 C1016 1.409 . S
C1023 C1022 1.362 . S
H1024 C1030 0.930 . S
H1025 C1033 0.930 . S
H1026 C1034 0.930 . S
H1027 C1035 0.930 . S
H1028 C1038 0.930 . S
H1029 C1039 0.930 . S
C1030 H1024 0.930 . S
C1030 C1031 1.355 . S
C1030 C1032 1.415 . S
C1031 C1030 1.355 . S
C1031 C1033 1.419 . S
C1032 C1030 1.415 . S
C1032 C1037 1.425 . S
C1032 C1039 1.409 . S
C1033 H1025 0.930 . S
C1033 C1031 1.419 . S
C1033 C1034 1.362 . S
C1034 H1026 0.930 . S
C1034 C1033 1.362 . S
C1034 C1037 1.409 . S
C1035 H1027 0.930 . S
C1035 C1036 1.355 . S
C1035 C1037 1.415 . S
C1036 C1035 1.355 . S
C1036 C1038 1.419 . S
C1037 C1032 1.425 . S
C1037 C1034 1.409 . S
C1037 C1035 1.415 . S
C1038 H1028 0.930 . S
C1038 C1036 1.419 . S
C1038 C1039 1.362 . S
C1039 H1029 0.930 . S
C1039 C1032 1.409 . S
C1039 C1038 1.362 . S
H1040 C1046 0.930 . S
H1041 C1049 0.930 . S
H1042 C1050 0.930 . S
H1043 C1051 0.930 . S
H1044 C1054 0.930 . S
H1045 C1055 0.930 . S
C1046 H1040 0.930 . S
C1046 C1047 1.355 . S
C1046 C1048 1.415 . S
C1047 C1046 1.355 . S
C1047 C1049 1.419 . S
C1048 C1046 1.415 . S
C1048 C1053 1.425 . S
C1048 C1055 1.409 . S
C1049 H1041 0.930 . S
C1049 C1047 1.419 . S
C1049 C1050 1.362 . S
C1050 H1042 0.930 . S
C1050 C1049 1.362 . S
C1050 C1053 1.409 . S
C1051 H1043 0.930 . S
C1051 C1052 1.355 . S
C1051 C1053 1.415 . S
C1052 C1051 1.355 . S
C1052 C1054 1.419 . S
C1053 C1048 1.425 . S
C1053 C1050 1.409 . S
C1053 C1051 1.415 . S
C1054 H1044 0.930 . S
C1054 C1052 1.419 . S
C1054 C1055 1.362 . S
C1055 H1045 0.930 . S
C1055 C1048 1.409 . S
C1055 C1054 1.362 . S
H1056 C1062 0.930 . S
H1057 C1065 0.930 . S
H1058 C1066 0.930 . S
H1059 C1067 0.930 . S
H1060 C1070 0.930 1_565 S
H1061 C1071 0.930 1_565 S
C1062 H1056 0.930 . S
C1062 C1063 1.355 . S
C1062 C1064 1.415 . S
C1063 C1062 1.355 . S
C1063 C1065 1.419 . S
C1064 C1062 1.415 . S
C1064 C1069 1.425 1_556 S
C1064 C1071 1.409 1_556 S
C1065 H1057 0.930 . S
C1065 C1063 1.419 . S
C1065 C1066 1.362 . S
C1066 H1058 0.930 . S
C1066 C1065 1.362 . S
C1066 C1069 1.409 1_556 S
C1067 H1059 0.930 . S
C1067 C1068 1.355 . S
C1067 C1069 1.415 . S
C1068 C1067 1.355 . S
C1068 C1070 1.419 . S
C1069 C1064 1.425 1_554 S
C1069 C1066 1.409 1_554 S
C1069 C1067 1.415 . S
C1070 H1060 0.930 1_545 S
C1070 C1068 1.419 . S
C1070 C1071 1.362 . S
C1071 H1061 0.930 1_545 S
C1071 C1064 1.409 1_554 S
C1071 C1070 1.362 . S
H1072 C1078 0.930 . S
H1073 C1081 0.930 . S
H1074 C1082 0.930 . S
H1075 C1083 0.930 . S
H1076 C1086 0.930 . S
H1077 C1087 0.930 . S
C1078 H1072 0.930 . S
C1078 C1079 1.355 . S
C1078 C1080 1.415 . S
C1079 C1078 1.355 . S
C1079 C1081 1.419 . S
C1080 C1078 1.415 . S
C1080 C1085 1.425 . S
C1080 C1087 1.409 . S
C1081 H1073 0.930 . S
C1081 C1079 1.419 . S
C1081 C1082 1.362 . S
C1082 H1074 0.930 . S
C1082 C1081 1.362 . S
C1082 C1085 1.409 . S
C1083 H1075 0.930 . S
C1083 C1084 1.355 . S
C1083 C1085 1.415 . S
C1084 C1083 1.355 . S
C1084 C1086 1.419 . S
C1085 C1080 1.425 . S
C1085 C1082 1.409 . S
C1085 C1083 1.415 . S
C1086 H1076 0.930 . S
C1086 C1084 1.419 . S
C1086 C1087 1.362 . S
C1087 H1077 0.930 . S
C1087 C1080 1.409 . S
C1087 C1086 1.362 . S
H1088 C1094 0.930 . S
H1089 C1097 0.930 . S
H1090 C1098 0.930 . S
H1091 C1099 0.930 . S
H1092 C1102 0.930 . S
H1093 C1103 0.930 . S
C1094 H1088 0.930 . S
C1094 C1095 1.355 . S
C1094 C1096 1.415 . S
C1095 C1094 1.355 . S
C1095 C1097 1.419 . S
C1096 C1094 1.415 . S
C1096 C1101 1.425 1_554 S
C1096 C1103 1.409 1_554 S
C1097 H1089 0.930 . S
C1097 C1095 1.419 . S
C1097 C1098 1.362 . S
C1098 H1090 0.930 . S
C1098 C1097 1.362 . S
C1098 C1101 1.409 1_554 S
C1099 H1091 0.930 . S
C1099 C1100 1.355 . S
C1099 C1101 1.415 . S
C1100 C1099 1.355 . S
C1100 C1102 1.419 . S
C1101 C1096 1.425 1_556 S
C1101 C1098 1.409 1_556 S
C1101 C1099 1.415 . S
C1102 H1092 0.930 . S
C1102 C1100 1.419 . S
C1102 C1103 1.362 . S
C1103 H1093 0.930 . S
C1103 C1096 1.409 1_556 S
C1103 C1102 1.362 . S
H1104 C1110 0.930 . S
H1105 C1113 0.930 . S
H1106 C1114 0.930 . S
H1107 C1115 0.930 . S
H1108 C1118 0.930 . S
H1109 C1119 0.930 . S
C1110 H1104 0.930 . S
C1110 C1111 1.355 . S
C1110 C1112 1.415 . S
C1111 C1110 1.355 . S
C1111 C1113 1.419 . S
C1112 C1110 1.415 . S
C1112 C1117 1.425 . S
C1112 C1119 1.409 . S
C1113 H1105 0.930 . S
C1113 C1111 1.419 . S
C1113 C1114 1.362 . S
C1114 H1106 0.930 . S
C1114 C1113 1.362 . S
C1114 C1117 1.409 . S
C1115 H1107 0.930 . S
C1115 C1116 1.355 . S
C1115 C1117 1.415 . S
C1116 C1115 1.355 . S
C1116 C1118 1.419 . S
C1117 C1112 1.425 . S
C1117 C1114 1.409 . S
C1117 C1115 1.415 . S
C1118 H1108 0.930 . S
C1118 C1116 1.419 . S
C1118 C1119 1.362 . S
C1119 H1109 0.930 . S
C1119 C1112 1.409 . S
C1119 C1118 1.362 . S
H1120 C1126 0.930 . S
H1121 C1129 0.930 . S
H1122 C1130 0.930 . S
H1123 C1131 0.930 . S
H1124 C1134 0.930 . S
H1125 C1135 0.930 . S
C1126 H1120 0.930 . S
C1126 C1127 1.355 . S
C1126 C1128 1.415 . S
C1127 C1126 1.355 . S
C1127 C1129 1.419 . S
C1128 C1126 1.415 . S
C1128 C1133 1.425 1_554 S
C1128 C1135 1.409 1_554 S
C1129 H1121 0.930 . S
C1129 C1127 1.419 . S
C1129 C1130 1.362 . S
C1130 H1122 0.930 . S
C1130 C1129 1.362 . S
C1130 C1133 1.409 1_554 S
C1131 H1123 0.930 . S
C1131 C1132 1.355 . S
C1131 C1133 1.415 . S
C1132 C1131 1.355 . S
C1132 C1134 1.419 . S
C1133 C1128 1.425 1_556 S
C1133 C1130 1.409 1_556 S
C1133 C1131 1.415 . S
C1134 H1124 0.930 . S
C1134 C1132 1.419 . S
C1134 C1135 1.362 . S
C1135 H1125 0.930 . S
C1135 C1128 1.409 1_556 S
C1135 C1134 1.362 . S
H1136 C1142 0.930 . S
H1137 C1145 0.930 . S
H1138 C1146 0.930 . S
H1139 C1147 0.930 . S
H1140 C1150 0.930 . S
H1141 C1151 0.930 . S
C1142 H1136 0.930 . S
C1142 C1143 1.355 . S
C1142 C1144 1.415 . S
C1143 C1142 1.355 . S
C1143 C1145 1.419 . S
C1144 C1142 1.415 . S
C1144 C1149 1.425 . S
C1144 C1151 1.409 . S
C1145 H1137 0.930 . S
C1145 C1143 1.419 . S
C1145 C1146 1.362 . S
C1146 H1138 0.930 . S
C1146 C1145 1.362 . S
C1146 C1149 1.409 . S
C1147 H1139 0.930 . S
C1147 C1148 1.355 . S
C1147 C1149 1.415 . S
C1148 C1147 1.355 . S
C1148 C1150 1.419 . S
C1149 C1144 1.425 . S
C1149 C1146 1.409 . S
C1149 C1147 1.415 . S
C1150 H1140 0.930 . S
C1150 C1148 1.419 . S
C1150 C1151 1.362 . S
C1151 H1141 0.930 . S
C1151 C1144 1.409 . S
C1151 C1150 1.362 . S
H1152 C1158 0.930 . S
H1153 C1161 0.930 . S
H1154 C1162 0.930 . S
H1155 C1163 0.930 . S
H1156 C1166 0.930 . S
H1157 C1167 0.930 . S
C1158 H1152 0.930 . S
C1158 C1159 1.355 . S
C1158 C1160 1.415 . S
C1159 C1158 1.355 . S
C1159 C1161 1.419 . S
C1160 C1158 1.415 . S
C1160 C1165 1.425 1_554 S
C1160 C1167 1.409 1_554 S
C1161 H1153 0.930 . S
C1161 C1159 1.419 . S
C1161 C1162 1.362 . S
C1162 H1154 0.930 . S
C1162 C1161 1.362 . S
C1162 C1165 1.409 1_554 S
C1163 H1155 0.930 . S
C1163 C1164 1.355 . S
C1163 C1165 1.415 . S
C1164 C1163 1.355 . S
C1164 C1166 1.419 . S
C1165 C1160 1.425 1_556 S
C1165 C1162 1.409 1_556 S
C1165 C1163 1.415 . S
C1166 H1156 0.930 . S
C1166 C1164 1.419 . S
C1166 C1167 1.362 . S
C1167 H1157 0.930 . S
C1167 C1160 1.409 1_556 S
C1167 C1166 1.362 . S
H1168 C1174 0.902 1_455 S
H1169 C1177 0.930 . S
H1170 C1178 0.930 . S
H1171 C1179 0.930 . S
H1172 C1182 0.930 1_455 S
H1173 C1183 0.928 1_455 S
C1174 H1168 0.902 1_655 S
C1174 C1175 1.355 . S
C1174 C1176 1.415 . S
C1175 C1174 1.355 . S
C1175 C1177 1.419 . S
C1176 C1174 1.415 . S
C1176 C1181 1.425 . S
C1176 C1183 1.411 . S
C1177 H1169 0.930 . S
C1177 C1175 1.419 . S
C1177 C1178 1.362 . S
C1178 H1170 0.930 . S
C1178 C1177 1.362 . S
C1178 C1181 1.409 . S
C1179 H1171 0.930 . S
C1179 C1180 1.355 . S
C1179 C1181 1.415 . S
C1180 C1179 1.355 . S
C1180 C1182 1.419 . S
C1181 C1176 1.425 . S
C1181 C1178 1.409 . S
C1181 C1179 1.415 . S
C1182 H1172 0.930 1_655 S
C1182 C1180 1.419 . S
C1182 C1183 1.363 . S
C1183 H1173 0.928 1_655 S
C1183 C1176 1.411 . S
C1183 C1182 1.363 . S
C551 C9 1.898 . S
C556 C247 1.893 . S
C567 C145 1.951 . S
C572 C43 1.948 . S
C583 C179 1.905 . S
C588 C77 1.928 . S
C599 C111 1.949 . S
C604 C213 1.932 . S
C615 C281 1.906 . S
C620 C519 1.893 . S
C631 C315 1.894 . S
C636 C417 1.910 . S
C647 C451 1.918 . S
C652 C349 1.898 . S
C663 C383 1.906 . S
C668 C485 1.893 . S
C679 C2 1.377 . S
C684 C339 1.314 . S
C695 C373 1.261 . S
C700 C36 1.376 . S
C711 C407 1.249 . S
C716 C70 1.370 . S
C727 C305 1.324 . S
C732 C104 1.374 . S
C743 C543 1.241 . S
C748 C138 1.364 . S
C759 C441 1.338 . S
C764 C172 1.344 . S
C775 C475 1.324 . S
C780 C206 1.374 . S
C791 C509 1.234 . S
C796 C240 1.353 . S
C807 C67 1.313 . S
C812 C274 1.324 . S
C823 C101 1.340 . S
C828 C308 1.349 . S
C839 C135 1.316 . S
C844 C342 1.325 . S
C855 C376 1.351 . S
C860 C33 1.233 . S
C871 C271 1.247 . S
C876 C410 1.329 . S
C887 C169 1.234 . S
C892 C444 1.354 . S
C903 C203 1.299 . S
C908 C478 1.320 . S
C919 C237 1.234 . S
C924 C512 1.353 . S
C935 C73 0.903 . S
C940 C5 0.877 . S
C951 C39 0.899 . S
C956 C107 0.862 . S
C967 C209 0.801 . S
C972 C141 0.764 . S
C983 C243 0.903 . S
C988 C175 0.886 . S
C999 C345 0.778 . S
C1004 C277 0.828 . S
C1015 C379 0.765 . S
C1020 C311 0.805 . S
C1031 C413 0.814 . S
C1036 C481 0.870 . S
C1047 C515 0.769 . S
C1052 C447 0.768 . S
C1063 C224 1.473 . S
C1068 C20 1.512 . S
C1079 C258 1.465 . S
C1084 C54 1.518 . S
C1095 C88 1.466 . S
C1100 C156 1.517 . S
C1111 C190 1.492 . S
C1116 C122 1.491 . S
C1127 C496 1.499 . S
C1132 C292 1.486 . S
C1143 C530 1.516 . S
C1148 C326 1.467 . S
C1159 C428 1.518 . S
C1164 C360 1.466 . S
C1175 C394 1.466 . S
C1180 C462 1.518 . S
