# Generated by pormake.
# Topology gme, (4)-cn, num edge types: 1
# Building blocks:
#     Node 0, Type 0, BuildingBlock: UXUYUI_clean_sbu_0, # of connection points: 4
#     Node 1, Type 0, BuildingBlock: UXUYUI_clean_sbu_0, # of connection points: 4
#     Node 2, Type 0, BuildingBlock: UXUYUI_clean_sbu_0, # of connection points: 4
#     Node 3, Type 0, BuildingBlock: UXUYUI_clean_sbu_0, # of connection points: 4
#     Node 4, Type 0, BuildingBlock: UXUYUI_clean_sbu_0, # of connection points: 4
#     Node 5, Type 0, BuildingBlock: UXUYUI_clean_sbu_0, # of connection points: 4
#     Node 6, Type 0, BuildingBlock: UXUYUI_clean_sbu_0, # of connection points: 4
#     Node 7, Type 0, BuildingBlock: UXUYUI_clean_sbu_0, # of connection points: 4
#     Node 8, Type 0, BuildingBlock: UXUYUI_clean_sbu_0, # of connection points: 4
#     Node 9, Type 0, BuildingBlock: UXUYUI_clean_sbu_0, # of connection points: 4
#     Node 10, Type 0, BuildingBlock: UXUYUI_clean_sbu_0, # of connection points: 4
#     Node 11, Type 0, BuildingBlock: UXUYUI_clean_sbu_0, # of connection points: 4
#     Node 12, Type 0, BuildingBlock: UXUYUI_clean_sbu_0, # of connection points: 4
#     Node 13, Type 0, BuildingBlock: UXUYUI_clean_sbu_0, # of connection points: 4
#     Node 14, Type 0, BuildingBlock: UXUYUI_clean_sbu_0, # of connection points: 4
#     Node 15, Type 0, BuildingBlock: UXUYUI_clean_sbu_0, # of connection points: 4
#     Node 16, Type 0, BuildingBlock: UXUYUI_clean_sbu_0, # of connection points: 4
#     Node 17, Type 0, BuildingBlock: UXUYUI_clean_sbu_0, # of connection points: 4
#     Node 18, Type 0, BuildingBlock: UXUYUI_clean_sbu_0, # of connection points: 4
#     Node 19, Type 0, BuildingBlock: UXUYUI_clean_sbu_0, # of connection points: 4
#     Node 20, Type 0, BuildingBlock: UXUYUI_clean_sbu_0, # of connection points: 4
#     Node 21, Type 0, BuildingBlock: UXUYUI_clean_sbu_0, # of connection points: 4
#     Node 22, Type 0, BuildingBlock: UXUYUI_clean_sbu_0, # of connection points: 4
#     Node 23, Type 0, BuildingBlock: UXUYUI_clean_sbu_0, # of connection points: 4
#     Edge 24, Type (0, 0), BuildingBlock: EZIPEK_clean_linker_0, # of connection points: 2
#     Edge 25, Type (0, 0), BuildingBlock: EZIPEK_clean_linker_0, # of connection points: 2
#     Edge 26, Type (0, 0), BuildingBlock: EZIPEK_clean_linker_0, # of connection points: 2
#     Edge 27, Type (0, 0), BuildingBlock: EZIPEK_clean_linker_0, # of connection points: 2
#     Edge 28, Type (0, 0), BuildingBlock: EZIPEK_clean_linker_0, # of connection points: 2
#     Edge 29, Type (0, 0), BuildingBlock: EZIPEK_clean_linker_0, # of connection points: 2
#     Edge 30, Type (0, 0), BuildingBlock: EZIPEK_clean_linker_0, # of connection points: 2
#     Edge 31, Type (0, 0), BuildingBlock: EZIPEK_clean_linker_0, # of connection points: 2
#     Edge 32, Type (0, 0), BuildingBlock: EZIPEK_clean_linker_0, # of connection points: 2
#     Edge 33, Type (0, 0), BuildingBlock: EZIPEK_clean_linker_0, # of connection points: 2
#     Edge 34, Type (0, 0), BuildingBlock: EZIPEK_clean_linker_0, # of connection points: 2
#     Edge 35, Type (0, 0), BuildingBlock: EZIPEK_clean_linker_0, # of connection points: 2
#     Edge 36, Type (0, 0), BuildingBlock: EZIPEK_clean_linker_0, # of connection points: 2
#     Edge 37, Type (0, 0), BuildingBlock: EZIPEK_clean_linker_0, # of connection points: 2
#     Edge 38, Type (0, 0), BuildingBlock: EZIPEK_clean_linker_0, # of connection points: 2
#     Edge 39, Type (0, 0), BuildingBlock: EZIPEK_clean_linker_0, # of connection points: 2
#     Edge 40, Type (0, 0), BuildingBlock: EZIPEK_clean_linker_0, # of connection points: 2
#     Edge 41, Type (0, 0), BuildingBlock: EZIPEK_clean_linker_0, # of connection points: 2
#     Edge 42, Type (0, 0), BuildingBlock: EZIPEK_clean_linker_0, # of connection points: 2
#     Edge 43, Type (0, 0), BuildingBlock: EZIPEK_clean_linker_0, # of connection points: 2
#     Edge 44, Type (0, 0), BuildingBlock: EZIPEK_clean_linker_0, # of connection points: 2
#     Edge 45, Type (0, 0), BuildingBlock: EZIPEK_clean_linker_0, # of connection points: 2
#     Edge 46, Type (0, 0), BuildingBlock: EZIPEK_clean_linker_0, # of connection points: 2
#     Edge 47, Type (0, 0), BuildingBlock: EZIPEK_clean_linker_0, # of connection points: 2
#     Edge 48, Type (0, 0), BuildingBlock: EZIPEK_clean_linker_0, # of connection points: 2
#     Edge 49, Type (0, 0), BuildingBlock: EZIPEK_clean_linker_0, # of connection points: 2
#     Edge 50, Type (0, 0), BuildingBlock: EZIPEK_clean_linker_0, # of connection points: 2
#     Edge 51, Type (0, 0), BuildingBlock: EZIPEK_clean_linker_0, # of connection points: 2
#     Edge 52, Type (0, 0), BuildingBlock: EZIPEK_clean_linker_0, # of connection points: 2
#     Edge 53, Type (0, 0), BuildingBlock: EZIPEK_clean_linker_0, # of connection points: 2
#     Edge 54, Type (0, 0), BuildingBlock: EZIPEK_clean_linker_0, # of connection points: 2
#     Edge 55, Type (0, 0), BuildingBlock: EZIPEK_clean_linker_0, # of connection points: 2
#     Edge 56, Type (0, 0), BuildingBlock: EZIPEK_clean_linker_0, # of connection points: 2
#     Edge 57, Type (0, 0), BuildingBlock: EZIPEK_clean_linker_0, # of connection points: 2
#     Edge 58, Type (0, 0), BuildingBlock: EZIPEK_clean_linker_0, # of connection points: 2
#     Edge 59, Type (0, 0), BuildingBlock: EZIPEK_clean_linker_0, # of connection points: 2
#     Edge 60, Type (0, 0), BuildingBlock: EZIPEK_clean_linker_0, # of connection points: 2
#     Edge 61, Type (0, 0), BuildingBlock: EZIPEK_clean_linker_0, # of connection points: 2
#     Edge 62, Type (0, 0), BuildingBlock: EZIPEK_clean_linker_0, # of connection points: 2
#     Edge 63, Type (0, 0), BuildingBlock: EZIPEK_clean_linker_0, # of connection points: 2
#     Edge 64, Type (0, 0), BuildingBlock: EZIPEK_clean_linker_0, # of connection points: 2
#     Edge 65, Type (0, 0), BuildingBlock: EZIPEK_clean_linker_0, # of connection points: 2
#     Edge 66, Type (0, 0), BuildingBlock: EZIPEK_clean_linker_0, # of connection points: 2
#     Edge 67, Type (0, 0), BuildingBlock: EZIPEK_clean_linker_0, # of connection points: 2
#     Edge 68, Type (0, 0), BuildingBlock: EZIPEK_clean_linker_0, # of connection points: 2
#     Edge 69, Type (0, 0), BuildingBlock: EZIPEK_clean_linker_0, # of connection points: 2
#     Edge 70, Type (0, 0), BuildingBlock: EZIPEK_clean_linker_0, # of connection points: 2
#     Edge 71, Type (0, 0), BuildingBlock: EZIPEK_clean_linker_0, # of connection points: 2
# Relax obj value: 0.245
# Max RMSD: 0.175
# Mean RMSD: 0.174
data_MOF--net-gme--node1-UXUYUI_clean_sbu_0--edge1-EZIPEK_clean_linker_0
_symmetry_space_group_name_H-M    P1
_symmetry_Int_Tables_number       1
_symmetry_cell_setting            triclinic
loop_
_symmetry_equiv_pos_as_xyz
'x, y, z'
_cell_length_a     78.137883
_cell_length_b     78.12737
_cell_length_c     55.698549
_cell_angle_alpha  89.993733
_cell_angle_beta   90.006046
_cell_angle_gamma 119.99872
loop_
_atom_site_label
_atom_site_type_symbol
_atom_site_fract_x
_atom_site_fract_y
_atom_site_fract_z
_atom_type_partial_charge
Li0 Li 0.43926 0.12439 0.08375 0.0
Li1 Li 0.43509 0.10167 0.11629 0.0
Li2 Li 0.4598 0.10911 0.0847 0.0
Li3 Li 0.42411 0.08897 0.07707 0.0
C4 C 0.46936 0.14664 0.11402 0.0
N5 N 0.48988 0.18649 0.12478 0.0
C6 C 0.46571 0.15347 0.13553 0.0
C7 C 0.48358 0.16003 0.09811 0.0
C8 C 0.47621 0.17368 0.14062 0.0
C9 C 0.49375 0.18013 0.10383 0.0
C10 C 0.39516 0.09435 0.09065 0.0
C11 C 0.3622 0.06615 0.08967 0.0
N12 N 0.35657 0.07611 0.07454 0.0
C13 C 0.38904 0.10434 0.07519 0.0
C14 C 0.38163 0.07515 0.09809 0.0
C15 C 0.36946 0.09485 0.06723 0.0
C16 C 0.44083 0.15404 0.05293 0.0
N17 N 0.43858 0.14755 0.076 0.0
C18 C 0.43487 0.17443 0.08968 0.0
C19 C 0.43522 0.15709 0.09419 0.0
C20 C 0.43748 0.18162 0.06615 0.0
C21 C 0.44021 0.17117 0.04751 0.0
H22 H 0.44296 0.14584 0.03875 0.0
H23 H 0.43281 0.15117 0.1122 0.0
C24 C 0.44738 0.10392 0.16373 0.0
N25 N 0.43105 0.09774 0.1498 0.0
C26 C 0.44558 0.10218 0.18862 0.0
C27 C 0.41015 0.08749 0.18434 0.0
C28 C 0.41264 0.08959 0.15948 0.0
C29 C 0.42681 0.094 0.19905 0.0
H30 H 0.46181 0.11042 0.15545 0.0
H31 H 0.39997 0.08496 0.14793 0.0
C32 C 0.45459 0.11299 0.0368 0.0
N33 N 0.47572 0.11707 0.99533 0.0
C34 C 0.44912 0.09673 0.02175 0.0
C35 C 0.47071 0.13134 0.03066 0.0
C36 C 0.46001 0.0991 0.00088 0.0
C37 C 0.48124 0.13309 0.00966 0.0
C38 C 0.44106 0.07196 0.11702 0.0
C39 C 0.45917 0.07545 0.1262 0.0
C40 C 0.42348 0.0578 0.12786 0.0
C41 C 0.4594 0.06484 0.14627 0.0
C42 C 0.42434 0.04755 0.14794 0.0
N43 N 0.44213 0.05125 0.15666 0.0
C44 C 0.50004 0.12386 0.09415 0.0
C45 C 0.4878 0.10185 0.06105 0.0
C46 C 0.51836 0.12495 0.09232 0.0
N47 N 0.48519 0.11234 0.07872 0.0
C48 C 0.50602 0.10284 0.05824 0.0
C49 C 0.52138 0.11418 0.07434 0.0
H50 H 0.4974 0.13158 0.10848 0.0
H51 H 0.47557 0.09217 0.04967 0.0
C52 C 0.3967 0.07134 0.03931 0.0
N53 N 0.4054 0.06771 0.05827 0.0
C54 C 0.38454 0.05606 0.02373 0.0
C55 C 0.39035 0.03364 0.04778 0.0
C56 C 0.40232 0.04931 0.06291 0.0
C57 C 0.38168 0.0371 0.02775 0.0
H58 H 0.39978 0.08624 0.03584 0.0
H59 H 0.40972 0.04695 0.07785 0.0
O60 O 0.45906 0.12694 0.10858 0.0
O61 O 0.41435 0.10326 0.09832 0.0
O62 O 0.44404 0.11102 0.05723 0.0
O63 O 0.44053 0.08262 0.09783 0.0
H64 H 0.45472 0.1433 0.14803 0.0
H65 H 0.48671 0.15495 0.08152 0.0
H66 H 0.47346 0.1792 0.15712 0.0
H67 H 0.50473 0.19068 0.09162 0.0
H68 H 0.35161 0.05123 0.0951 0.0
H69 H 0.3993 0.1192 0.06924 0.0
H70 H 0.38615 0.06715 0.10992 0.0
H71 H 0.36453 0.10237 0.05518 0.0
H72 H 0.43244 0.1821 0.10432 0.0
H73 H 0.44201 0.17632 0.02914 0.0
H74 H 0.45867 0.10737 0.19966 0.0
H75 H 0.3955 0.08121 0.19204 0.0
H76 H 0.43675 0.08239 0.02622 0.0
H77 H 0.47503 0.14411 0.04196 0.0
H78 H 0.45599 0.08663 0.98913 0.0
H79 H 0.49378 0.1472 0.00473 0.0
H80 H 0.47291 0.08633 0.11806 0.0
H81 H 0.40934 0.05502 0.12109 0.0
H82 H 0.47332 0.06746 0.15364 0.0
H83 H 0.41087 0.0367 0.15666 0.0
H84 H 0.5299 0.13367 0.10515 0.0
H85 H 0.50788 0.09421 0.04434 0.0
H86 H 0.37808 0.05909 0.00826 0.0
H87 H 0.38844 0.01912 0.05114 0.0
Li88 Li 0.31296 0.43662 0.57811 0.0
Li89 Li 0.32761 0.43191 0.61338 0.0
Li90 Li 0.34809 0.45529 0.58292 0.0
Li91 Li 0.33214 0.42051 0.57538 0.0
C92 C 0.31588 0.45955 0.61817 0.0
N93 N 0.29147 0.466 0.64811 0.0
C94 C 0.2968 0.44418 0.62328 0.0
C95 C 0.32255 0.47818 0.62833 0.0
C96 C 0.28468 0.44775 0.63842 0.0
C97 C 0.30999 0.48114 0.64344 0.0
C98 C 0.30097 0.39266 0.60222 0.0
C99 C 0.30784 0.37049 0.62496 0.0
N100 N 0.28899 0.35566 0.62118 0.0
C101 C 0.28166 0.37721 0.59861 0.0
C102 C 0.31417 0.38929 0.61554 0.0
C103 C 0.27589 0.35861 0.60832 0.0
C104 C 0.27441 0.41967 0.56003 0.0
N105 N 0.29037 0.4371 0.56666 0.0
C106 C 0.27187 0.45375 0.56343 0.0
C107 C 0.28959 0.45409 0.5678 0.0
C108 C 0.25496 0.43576 0.5579 0.0
C109 C 0.25636 0.41865 0.5555 0.0
H110 H 0.2755 0.40642 0.55939 0.0
H111 H 0.30242 0.4677 0.57341 0.0
C112 C 0.34212 0.43896 0.65997 0.0
N113 N 0.32533 0.42811 0.64706 0.0
C114 C 0.34161 0.43799 0.68497 0.0
C115 C 0.30653 0.41456 0.68288 0.0
C116 C 0.30772 0.41597 0.65789 0.0
C117 C 0.32363 0.42577 0.69656 0.0
H118 H 0.35584 0.44862 0.6508 0.0
H119 H 0.29455 0.40766 0.64716 0.0
C120 C 0.33385 0.45441 0.5369 0.0
N121 N 0.33521 0.48105 0.50322 0.0
C122 C 0.33311 0.45019 0.51242 0.0
C123 C 0.33533 0.47221 0.54424 0.0
C124 C 0.3338 0.46384 0.49567 0.0
C125 C 0.33599 0.48548 0.52695 0.0
C126 C 0.37069 0.43831 0.59346 0.0
C127 C 0.37633 0.44062 0.56932 0.0
C128 C 0.38368 0.43885 0.61108 0.0
C129 C 0.39491 0.44346 0.56322 0.0
C130 C 0.40213 0.4417 0.60425 0.0
N131 N 0.40732 0.44393 0.58067 0.0
C132 C 0.37829 0.49173 0.59857 0.0
C133 C 0.38184 0.4851 0.55784 0.0
C134 C 0.39605 0.50963 0.59764 0.0
N135 N 0.37163 0.47991 0.57888 0.0
C136 C 0.39968 0.5029 0.55609 0.0
C137 C 0.4069 0.51525 0.57623 0.0
H138 H 0.36991 0.48706 0.6151 0.0
H139 H 0.37632 0.4753 0.54253 0.0
C140 C 0.33002 0.39748 0.53583 0.0
N141 N 0.33523 0.40086 0.55937 0.0
C142 C 0.33544 0.38609 0.52197 0.0
C143 C 0.35038 0.3809 0.55725 0.0
C144 C 0.34469 0.3924 0.57041 0.0
C145 C 0.34627 0.37825 0.53263 0.0
H146 H 0.32259 0.40451 0.52758 0.0
H147 H 0.34892 0.39555 0.58906 0.0
O148 O 0.32812 0.45651 0.6034 0.0
O149 O 0.30671 0.41094 0.59283 0.0
O150 O 0.33323 0.44112 0.55342 0.0
O151 O 0.35264 0.43567 0.60002 0.0
H152 H 0.29134 0.42966 0.61561 0.0
H153 H 0.33729 0.49022 0.62457 0.0
H154 H 0.26986 0.436 0.64246 0.0
H155 H 0.31496 0.49549 0.65143 0.0
H156 H 0.31791 0.3677 0.63531 0.0
H157 H 0.27122 0.37957 0.58843 0.0
H158 H 0.32912 0.40105 0.61872 0.0
H159 H 0.26099 0.34652 0.60565 0.0
H160 H 0.27109 0.46712 0.56561 0.0
H161 H 0.24343 0.40455 0.55141 0.0
H162 H 0.355 0.44687 0.69519 0.0
H163 H 0.29244 0.4051 0.69146 0.0
H164 H 0.33204 0.43652 0.5064 0.0
H165 H 0.33608 0.47586 0.56306 0.0
H166 H 0.33323 0.46075 0.47666 0.0
H167 H 0.33715 0.49931 0.53241 0.0
H168 H 0.3665 0.44022 0.5554 0.0
H169 H 0.37953 0.43709 0.62985 0.0
H170 H 0.39947 0.44528 0.54462 0.0
H171 H 0.41233 0.44216 0.61771 0.0
H172 H 0.4014 0.5189 0.61346 0.0
H173 H 0.40788 0.5069 0.5394 0.0
H174 H 0.33227 0.38438 0.5029 0.0
H175 H 0.35892 0.37516 0.5658 0.0
Li176 Li 0.89579 0.33252 0.11424 0.0
Li177 Li 0.87439 0.31514 0.08013 0.0
Li178 Li 0.90953 0.33557 0.07414 0.0
Li179 Li 0.88832 0.34945 0.08314 0.0
C180 C 0.8881 0.2936 0.10528 0.0
N181 N 0.87151 0.25712 0.12748 0.0
C182 C 0.87137 0.28713 0.11981 0.0
C183 C 0.89634 0.28149 0.10202 0.0
C184 C 0.86321 0.26864 0.13087 0.0
C185 C 0.88776 0.26311 0.11344 0.0
C186 C 0.85732 0.33658 0.11171 0.0
C187 C 0.83356 0.34607 0.09956 0.0
N188 N 0.8331 0.35197 0.1224 0.0
C189 C 0.85628 0.34237 0.13516 0.0
C190 C 0.84555 0.33809 0.09388 0.0
C191 C 0.84407 0.35023 0.14017 0.0
C192 C 0.90164 0.34794 0.16045 0.0
N193 N 0.90149 0.33303 0.14768 0.0
C194 C 0.90751 0.31979 0.18332 0.0
C195 C 0.90511 0.31951 0.15845 0.0
C196 C 0.90631 0.33421 0.19697 0.0
C197 C 0.9038 0.34869 0.18534 0.0
H198 H 0.89958 0.35898 0.15127 0.0
H199 H 0.9059 0.30834 0.14792 0.0
C200 C 0.85456 0.27731 0.05869 0.0
N201 N 0.85199 0.29088 0.07105 0.0
C202 C 0.83837 0.25877 0.05357 0.0
C203 C 0.81728 0.26868 0.0738 0.0
C204 C 0.83384 0.28699 0.07851 0.0
C205 C 0.81958 0.25434 0.06151 0.0
H206 H 0.86925 0.28075 0.05335 0.0
H207 H 0.83227 0.29785 0.08872 0.0
C208 C 0.93278 0.36451 0.10741 0.0
N209 N 0.96977 0.37963 0.12788 0.0
C210 C 0.94416 0.3847 0.1123 0.0
C211 C 0.94019 0.35198 0.11297 0.0
C212 C 0.96283 0.39207 0.12265 0.0
C213 C 0.95893 0.35992 0.1233 0.0
C214 C 0.87879 0.32352 0.03441 0.0
C215 C 0.88805 0.3156 0.0205 0.0
C216 C 0.85982 0.31958 0.02815 0.0
C217 C 0.87808 0.30363 0.00084 0.0
C218 C 0.85031 0.30749 0.00841 0.0
N219 N 0.85955 0.29982 0.99528 0.0
C220 C 0.93547 0.32498 0.051 0.0
C221 C 0.94437 0.35881 0.04943 0.0
C222 C 0.95166 0.32871 0.03667 0.0
N223 N 0.93209 0.33995 0.05676 0.0
C224 C 0.96084 0.36325 0.03545 0.0
C225 C 0.96445 0.34806 0.02879 0.0
H226 H 0.92528 0.3101 0.05694 0.0
H227 H 0.94116 0.37033 0.05418 0.0
C228 C 0.88987 0.38547 0.09425 0.0
N229 N 0.88497 0.37144 0.07703 0.0
C230 C 0.88697 0.40148 0.09017 0.0
C231 C 0.87402 0.38817 0.0508 0.0
C232 C 0.87738 0.37258 0.05552 0.0
C233 C 0.8789 0.40282 0.06824 0.0
H234 H 0.89586 0.38409 0.11119 0.0
H235 H 0.87375 0.36127 0.04215 0.0
O236 O 0.89601 0.31135 0.09356 0.0
O237 O 0.86946 0.32911 0.10635 0.0
O238 O 0.91443 0.35714 0.09741 0.0
O239 O 0.88821 0.33499 0.05403 0.0
H240 H 0.86471 0.29621 0.12252 0.0
H241 H 0.90921 0.28621 0.09074 0.0
H242 H 0.85026 0.26344 0.14211 0.0
H243 H 0.894 0.25359 0.11107 0.0
H244 H 0.82463 0.34759 0.0858 0.0
H245 H 0.86457 0.34058 0.14946 0.0
H246 H 0.84587 0.3334 0.07575 0.0
H247 H 0.84324 0.35486 0.15823 0.0
H248 H 0.9097 0.30859 0.1919 0.0
H249 H 0.90308 0.36015 0.19548 0.0
H250 H 0.84051 0.24782 0.04423 0.0
H251 H 0.80292 0.2655 0.08031 0.0
H252 H 0.93859 0.39457 0.10816 0.0
H253 H 0.9316 0.3363 0.1094 0.0
H254 H 0.9718 0.40768 0.12653 0.0
H255 H 0.96485 0.3504 0.12768 0.0
H256 H 0.90272 0.31854 0.02484 0.0
H257 H 0.85237 0.32557 0.03854 0.0
H258 H 0.88506 0.29733 0.99003 0.0
H259 H 0.83556 0.30418 0.00356 0.0
H260 H 0.95407 0.3167 0.03157 0.0
H261 H 0.97044 0.37828 0.02942 0.0
H262 H 0.89081 0.41259 0.10395 0.0
H263 H 0.86774 0.38885 0.03374 0.0
Li264 Li 0.56932 0.89712 0.61366 0.0
Li265 Li 0.56317 0.87513 0.58001 0.0
Li266 Li 0.57835 0.91107 0.5727 0.0
Li267 Li 0.5431 0.89046 0.58254 0.0
C268 C 0.60818 0.90786 0.59979 0.0
N269 N 0.64647 0.93024 0.61646 0.0
C270 C 0.61974 0.89908 0.60371 0.0
C271 C 0.61616 0.92805 0.60412 0.0
C272 C 0.63904 0.91063 0.61222 0.0
C273 C 0.63552 0.93911 0.61258 0.0
C274 C 0.53628 0.85291 0.61237 0.0
C275 C 0.5124 0.81858 0.60564 0.0
N276 N 0.52015 0.81352 0.62437 0.0
C277 C 0.5439 0.8474 0.63169 0.0
C278 C 0.52031 0.83843 0.59934 0.0
C279 C 0.53558 0.82739 0.63742 0.0
C280 C 0.56242 0.90506 0.66009 0.0
N281 N 0.57459 0.90093 0.64699 0.0
C282 C 0.59071 0.89912 0.68254 0.0
C283 C 0.58859 0.89799 0.65761 0.0
C284 C 0.57815 0.90309 0.69641 0.0
C285 C 0.564 0.90628 0.68504 0.0
H286 H 0.55118 0.90694 0.65113 0.0
H287 H 0.59764 0.8941 0.64687 0.0
C288 C 0.55458 0.84121 0.55185 0.0
N289 N 0.56343 0.85175 0.57203 0.0
C290 C 0.55378 0.82318 0.5477 0.0
C291 C 0.57157 0.82757 0.58488 0.0
C292 C 0.57214 0.84551 0.58822 0.0
C293 C 0.56213 0.81619 0.56457 0.0
H294 H 0.54789 0.8466 0.53923 0.0
H295 H 0.57904 0.85425 0.60408 0.0
C296 C 0.56571 0.93374 0.60418 0.0
N297 N 0.5709 0.96993 0.61851 0.0
C298 C 0.55389 0.94079 0.59455 0.0
C299 C 0.57998 0.945 0.62141 0.0
C300 C 0.5568 0.95915 0.60192 0.0
C301 C 0.58243 0.96327 0.62834 0.0
C302 C 0.54574 0.88605 0.53454 0.0
C303 C 0.55162 0.90085 0.51715 0.0
C304 C 0.52769 0.86851 0.53202 0.0
C305 C 0.53922 0.89793 0.49764 0.0
C306 C 0.51568 0.86617 0.51227 0.0
N307 N 0.52164 0.88081 0.49564 0.0
C308 C 0.61263 0.93361 0.5443 0.0
C309 C 0.5918 0.94735 0.5495 0.0
C310 C 0.62537 0.94946 0.52969 0.0
N311 N 0.59628 0.93294 0.55389 0.0
C312 C 0.60412 0.96345 0.53518 0.0
C313 C 0.62105 0.96454 0.52512 0.0
H314 H 0.61564 0.92175 0.5478 0.0
H315 H 0.5784 0.94611 0.55663 0.0
C316 C 0.50387 0.87736 0.59561 0.0
N317 N 0.51774 0.8879 0.57868 0.0
C318 C 0.4855 0.87629 0.59497 0.0
C319 C 0.49584 0.89649 0.55913 0.0
C320 C 0.5141 0.8974 0.56064 0.0
C321 C 0.48148 0.88606 0.57665 0.0
H322 H 0.50727 0.87022 0.60995 0.0
H323 H 0.52556 0.90619 0.54785 0.0
O324 O 0.58922 0.89668 0.59159 0.0
O325 O 0.54446 0.87239 0.6062 0.0
O326 O 0.56284 0.91563 0.59738 0.0
O327 O 0.55768 0.88868 0.55378 0.0
H328 H 0.61384 0.88349 0.60031 0.0
H329 H 0.6076 0.93515 0.60071 0.0
H330 H 0.64813 0.90401 0.61544 0.0
H331 H 0.64187 0.95475 0.616 0.0
H332 H 0.50012 0.80719 0.59562 0.0
H333 H 0.55624 0.85844 0.64198 0.0
H334 H 0.51414 0.84247 0.58449 0.0
H335 H 0.54141 0.8229 0.65221 0.0
H336 H 0.60159 0.89634 0.69098 0.0
H337 H 0.554 0.90918 0.69541 0.0
H338 H 0.5464 0.81461 0.53187 0.0
H339 H 0.5781 0.82243 0.59818 0.0
H340 H 0.54271 0.9323 0.58133 0.0
H341 H 0.58896 0.93965 0.62959 0.0
H342 H 0.54783 0.96482 0.59446 0.0
H343 H 0.59344 0.97213 0.64161 0.0
H344 H 0.56561 0.91444 0.51869 0.0
H345 H 0.5229 0.85692 0.54529 0.0
H346 H 0.54356 0.90928 0.48409 0.0
H347 H 0.50161 0.85273 0.51019 0.0
H348 H 0.63828 0.94991 0.52188 0.0
H349 H 0.60033 0.97479 0.53161 0.0
H350 H 0.47466 0.86823 0.6088 0.0
H351 H 0.49316 0.90434 0.54494 0.0
Li352 Li 0.66519 0.5754 0.06905 0.0
Li353 Li 0.65103 0.53972 0.08038 0.0
Li354 Li 0.66993 0.56634 0.10998 0.0
Li355 Li 0.6855 0.56157 0.07657 0.0
C356 C 0.62666 0.55589 0.09999 0.0
N357 N 0.58912 0.54774 0.11268 0.0
C358 C 0.61045 0.54362 0.08555 0.0
C359 C 0.62377 0.56413 0.1208 0.0
C360 C 0.5916 0.53964 0.0923 0.0
C361 C 0.60468 0.55982 0.12692 0.0
C362 C 0.67549 0.55165 0.03249 0.0
C363 C 0.68459 0.53156 0.00889 0.0
N364 N 0.69779 0.54794 0.99658 0.0
C365 C 0.68906 0.56826 0.01953 0.0
C366 C 0.67314 0.53313 0.02709 0.0
C367 C 0.70023 0.56608 0.00148 0.0
C368 C 0.67573 0.60929 0.04053 0.0
N369 N 0.6604 0.59289 0.05055 0.0
C370 C 0.63709 0.60056 0.03337 0.0
C371 C 0.64137 0.58836 0.04724 0.0
C372 C 0.65256 0.61743 0.02272 0.0
C373 C 0.67211 0.62189 0.02634 0.0
H374 H 0.69073 0.61246 0.04341 0.0
H375 H 0.62949 0.57515 0.05512 0.0
C376 C 0.62136 0.50324 0.09726 0.0
N377 N 0.62912 0.51415 0.07704 0.0
C378 C 0.60416 0.48485 0.09594 0.0
C379 C 0.60355 0.48921 0.05296 0.0
C380 C 0.62081 0.5075 0.05509 0.0
C381 C 0.59503 0.47788 0.07363 0.0
H382 H 0.62829 0.50908 0.11444 0.0
H383 H 0.62727 0.51666 0.0394 0.0
C384 C 0.69371 0.60555 0.09642 0.0
N385 N 0.7013 0.64215 0.1126 0.0
C386 C 0.71314 0.62127 0.09779 0.0
C387 C 0.67814 0.60848 0.10327 0.0
C388 C 0.71667 0.63965 0.10603 0.0
C389 C 0.68228 0.62708 0.11139 0.0
C390 C 0.68459 0.54147 0.11857 0.0
C391 C 0.70219 0.55856 0.12476 0.0
C392 C 0.68011 0.52338 0.1288 0.0
C393 C 0.71503 0.55722 0.1411 0.0
C394 C 0.69333 0.52265 0.14508 0.0
N395 N 0.71037 0.53944 0.15084 0.0
C396 C 0.65612 0.55624 0.15645 0.0
C397 C 0.68568 0.58731 0.15434 0.0
C398 C 0.65605 0.55736 0.18142 0.0
N399 N 0.67075 0.5711 0.1435 0.0
C400 C 0.68613 0.58908 0.17931 0.0
C401 C 0.67125 0.57389 0.19299 0.0
H402 H 0.6447 0.54336 0.14731 0.0
H403 H 0.69752 0.5986 0.14377 0.0
C404 C 0.72577 0.57949 0.06375 0.0
N405 N 0.709 0.56193 0.0676 0.0
C406 C 0.74377 0.58007 0.0607 0.0
C407 C 0.72665 0.54443 0.06464 0.0
C408 C 0.70901 0.54454 0.06761 0.0
C409 C 0.74426 0.5624 0.06172 0.0
H410 H 0.72524 0.59306 0.06401 0.0
H411 H 0.69542 0.53085 0.07094 0.0
O412 O 0.64523 0.55968 0.09397 0.0
O413 O 0.66481 0.55358 0.05064 0.0
O414 O 0.6902 0.58753 0.08834 0.0
O415 O 0.67169 0.54233 0.10263 0.0
H416 H 0.61243 0.53741 0.06916 0.0
H417 H 0.63613 0.57383 0.13207 0.0
H418 H 0.57894 0.53015 0.0813 0.0
H419 H 0.60224 0.56609 0.14298 0.0
H420 H 0.68303 0.51735 0.0046 0.0
H421 H 0.69109 0.58271 0.02359 0.0
H422 H 0.66279 0.52015 0.03708 0.0
H423 H 0.71089 0.57882 0.9914 0.0
H424 H 0.62185 0.59674 0.03066 0.0
H425 H 0.6843 0.63481 0.01816 0.0
H426 H 0.59775 0.47639 0.11217 0.0
H427 H 0.59666 0.48416 0.03555 0.0
H428 H 0.72537 0.61926 0.09259 0.0
H429 H 0.66302 0.59662 0.1023 0.0
H430 H 0.73164 0.65192 0.1072 0.0
H431 H 0.67037 0.62953 0.11672 0.0
H432 H 0.70595 0.57271 0.11705 0.0
H433 H 0.66653 0.51003 0.1242 0.0
H434 H 0.7287 0.57031 0.14603 0.0
H435 H 0.69005 0.50874 0.15314 0.0
H436 H 0.64448 0.54535 0.19164 0.0
H437 H 0.69816 0.60189 0.1879 0.0
H438 H 0.75725 0.59415 0.05865 0.0
H439 H 0.72672 0.53062 0.06567 0.0
Li440 Li 0.12324 0.68528 0.57862 0.0
Li441 Li 0.10089 0.66846 0.6133 0.0
Li442 Li 0.10678 0.65 0.581 0.0
Li443 Li 0.08797 0.66554 0.57261 0.0
C444 C 0.14458 0.68025 0.61242 0.0
N445 N 0.183 0.70432 0.62777 0.0
C446 C 0.14857 0.69326 0.6316 0.0
C447 C 0.1601 0.67929 0.60126 0.0
C448 C 0.1681 0.70534 0.63905 0.0
C449 C 0.17943 0.69165 0.60922 0.0
C450 C 0.09385 0.70014 0.58461 0.0
C451 C 0.06705 0.70707 0.58552 0.0
N452 N 0.07506 0.7193 0.56632 0.0
C453 C 0.10184 0.71278 0.56491 0.0
C454 C 0.07633 0.69726 0.59505 0.0
C455 C 0.09212 0.72234 0.55593 0.0
C456 C 0.15733 0.7106 0.55057 0.0
N457 N 0.14688 0.70881 0.57087 0.0
C458 C 0.17128 0.74098 0.58394 0.0
C459 C 0.15324 0.72371 0.58716 0.0
C460 C 0.18261 0.74293 0.56358 0.0
C461 C 0.17544 0.72773 0.54652 0.0
H462 H 0.15176 0.69872 0.53767 0.0
H463 H 0.14443 0.72194 0.60294 0.0
C464 C 0.09984 0.65622 0.66012 0.0
N465 N 0.09705 0.66908 0.64657 0.0
C466 C 0.09869 0.65659 0.68507 0.0
C467 C 0.0913 0.68312 0.68158 0.0
C468 C 0.09279 0.68237 0.65665 0.0
C469 C 0.09452 0.67026 0.69594 0.0
H470 H 0.10336 0.64596 0.65148 0.0
H471 H 0.09095 0.6926 0.64539 0.0
C472 C 0.1136 0.65752 0.53433 0.0
N473 N 0.12238 0.63884 0.49824 0.0
C474 C 0.1002 0.64807 0.5156 0.0
C475 C 0.13151 0.65756 0.53458 0.0
C476 C 0.10491 0.6387 0.49754 0.0
C477 C 0.13566 0.64801 0.51622 0.0
C478 C 0.06634 0.6258 0.59158 0.0
C479 C 0.06076 0.61951 0.56793 0.0
C480 C 0.05609 0.61305 0.61054 0.0
C481 C 0.04498 0.60052 0.56362 0.0
C482 C 0.04039 0.59415 0.6055 0.0
N483 N 0.0352 0.58833 0.58234 0.0
C484 C 0.11939 0.62363 0.59434 0.0
C485 C 0.09985 0.61368 0.55899 0.0
C486 C 0.12073 0.60648 0.59392 0.0
N487 N 0.10902 0.62688 0.57709 0.0
C488 C 0.10098 0.59644 0.55774 0.0
C489 C 0.11132 0.59265 0.57554 0.0
H490 H 0.1263 0.63419 0.60872 0.0
H491 H 0.0914 0.6163 0.54569 0.0
C492 C 0.06849 0.66953 0.53231 0.0
N493 N 0.06599 0.66314 0.55543 0.0
C494 C 0.05206 0.66456 0.5179 0.0
C495 C 0.03098 0.64787 0.55197 0.0
C496 C 0.04781 0.65325 0.56573 0.0
C497 C 0.03312 0.65299 0.52762 0.0
H498 H 0.08319 0.67755 0.52476 0.0
H499 H 0.04635 0.64857 0.58425 0.0
O500 O 0.12561 0.66864 0.60447 0.0
O501 O 0.10281 0.69018 0.59315 0.0
O502 O 0.10923 0.66671 0.55225 0.0
O503 O 0.08142 0.64451 0.5963 0.0
H504 H 0.13677 0.69427 0.64039 0.0
H505 H 0.15726 0.66914 0.58661 0.0
H506 H 0.17142 0.7156 0.65372 0.0
H507 H 0.1916 0.69116 0.60064 0.0
H508 H 0.05342 0.70489 0.59331 0.0
H509 H 0.11528 0.71502 0.55648 0.0
H510 H 0.0698 0.68728 0.61009 0.0
H511 H 0.09809 0.73211 0.54063 0.0
H512 H 0.17649 0.75259 0.59731 0.0
H513 H 0.18392 0.72899 0.53057 0.0
H514 H 0.10127 0.64654 0.6958 0.0
H515 H 0.08816 0.69388 0.68962 0.0
H516 H 0.08624 0.64778 0.51508 0.0
H517 H 0.142 0.66473 0.54895 0.0
H518 H 0.09464 0.63126 0.48302 0.0
H519 H 0.14941 0.64783 0.5163 0.0
H520 H 0.06848 0.62921 0.55305 0.0
H521 H 0.06017 0.61776 0.62896 0.0
H522 H 0.04049 0.59548 0.54539 0.0
H523 H 0.03229 0.58413 0.62 0.0
H524 H 0.12873 0.60386 0.60798 0.0
H525 H 0.09349 0.58594 0.5434 0.0
H526 H 0.05404 0.66861 0.49909 0.0
H527 H 0.01647 0.63888 0.55982 0.0
Li528 Li 0.88519 0.53865 0.4185 0.0
Li529 Li 0.90692 0.57188 0.42484 0.0
Li530 Li 0.87174 0.56055 0.41998 0.0
Li531 Li 0.89416 0.56199 0.38481 0.0
C532 C 0.87934 0.54152 0.46466 0.0
N533 N 0.86825 0.51457 0.50179 0.0
C534 C 0.89296 0.53686 0.47453 0.0
C535 C 0.86014 0.53265 0.47387 0.0
C536 C 0.88704 0.52313 0.49321 0.0
C537 C 0.85481 0.51904 0.49262 0.0
C538 C 0.93073 0.56129 0.40277 0.0
C539 C 0.96287 0.57993 0.38441 0.0
N540 N 0.97102 0.57571 0.40346 0.0
C541 C 0.93939 0.55695 0.42204 0.0
C542 C 0.94252 0.57272 0.38368 0.0
C543 C 0.9598 0.56446 0.42211 0.0
C544 C 0.8923 0.50668 0.41815 0.0
N545 N 0.87902 0.5121 0.42522 0.0
C546 C 0.85709 0.47949 0.43974 0.0
C547 C 0.86163 0.49894 0.4358 0.0
C548 C 0.87051 0.4736 0.43249 0.0
C549 C 0.88832 0.48735 0.42168 0.0
H550 H 0.90586 0.51728 0.40945 0.0
H551 H 0.85113 0.50343 0.44086 0.0
C552 C 0.92852 0.59018 0.46655 0.0
N553 N 0.92975 0.59061 0.44219 0.0
C554 C 0.94516 0.60215 0.48037 0.0
C555 C 0.96383 0.61553 0.44376 0.0
C556 C 0.94677 0.60342 0.43066 0.0
C557 C 0.9631 0.61459 0.46886 0.0
H558 H 0.91473 0.5802 0.47529 0.0
H559 H 0.94728 0.60387 0.4113 0.0
C560 C 0.85351 0.52152 0.39009 0.0
N561 N 0.82642 0.48225 0.38136 0.0
C562 C 0.85822 0.51049 0.37445 0.0
C563 C 0.83498 0.51262 0.40117 0.0
C564 C 0.84434 0.49064 0.37032 0.0
C565 C 0.82149 0.49274 0.39653 0.0
C566 C 0.90573 0.60322 0.40956 0.0
C567 C 0.90239 0.61025 0.4311 0.0
C568 C 0.92077 0.61619 0.39416 0.0
C569 C 0.91434 0.63019 0.43701 0.0
C570 C 0.93237 0.63603 0.40071 0.0
N571 N 0.92896 0.64255 0.42182 0.0
C572 C 0.84754 0.5696 0.44934 0.0
C573 C 0.8371 0.56026 0.40905 0.0
C574 C 0.83094 0.57139 0.45409 0.0
N575 N 0.85011 0.56392 0.42718 0.0
C576 C 0.82033 0.5618 0.413 0.0
C577 C 0.81714 0.56731 0.43574 0.0
H578 H 0.85827 0.57254 0.46334 0.0
H579 H 0.83968 0.55592 0.39159 0.0
C580 C 0.90123 0.55313 0.33832 0.0
N581 N 0.89774 0.56577 0.35137 0.0
C582 C 0.90242 0.55462 0.31335 0.0
C583 C 0.89722 0.58263 0.31586 0.0
C584 C 0.89583 0.58041 0.34077 0.0
C585 C 0.90022 0.5694 0.30197 0.0
H586 H 0.90281 0.54173 0.34732 0.0
H587 H 0.89288 0.5901 0.35165 0.0
O588 O 0.88483 0.55484 0.44625 0.0
O589 O 0.91077 0.55408 0.40236 0.0
O590 O 0.86703 0.54086 0.39471 0.0
O591 O 0.89449 0.58367 0.40376 0.0
H592 H 0.90791 0.54371 0.46776 0.0
H593 H 0.84937 0.53598 0.46638 0.0
H594 H 0.89739 0.51928 0.50089 0.0
H595 H 0.83997 0.51195 0.4998 0.0
H596 H 0.9722 0.58893 0.36985 0.0
H597 H 0.93046 0.54793 0.43681 0.0
H598 H 0.93608 0.57623 0.36861 0.0
H599 H 0.96671 0.56133 0.43698 0.0
H600 H 0.84316 0.46908 0.44801 0.0
H601 H 0.89889 0.48309 0.41582 0.0
H602 H 0.94427 0.60117 0.49977 0.0
H603 H 0.97756 0.62505 0.43448 0.0
H604 H 0.87253 0.51709 0.3659 0.0
H605 H 0.83116 0.52087 0.41352 0.0
H606 H 0.84785 0.48188 0.35842 0.0
H607 H 0.80715 0.48563 0.40509 0.0
H608 H 0.89087 0.60036 0.44326 0.0
H609 H 0.92364 0.61093 0.37751 0.0
H610 H 0.91202 0.63582 0.4537 0.0
H611 H 0.94415 0.64622 0.38905 0.0
H612 H 0.82876 0.57568 0.47181 0.0
H613 H 0.80987 0.5586 0.39855 0.0
H614 H 0.9048 0.54426 0.30299 0.0
H615 H 0.89544 0.59414 0.30745 0.0
Li616 Li 0.33135 0.91198 0.92414 0.0
Li617 Li 0.34615 0.89165 0.91576 0.0
Li618 Li 0.32646 0.89813 0.88456 0.0
Li619 Li 0.3097 0.87602 0.91846 0.0
C620 C 0.36582 0.93607 0.90365 0.0
N621 N 0.39331 0.97521 0.91231 0.0
C622 C 0.3816 0.94094 0.91926 0.0
C623 C 0.36414 0.95108 0.8922 0.0
C624 C 0.39532 0.96082 0.92347 0.0
C625 C 0.37816 0.97078 0.89689 0.0
C626 C 0.33086 0.8788 0.96237 0.0
C627 C 0.32721 0.848 0.97664 0.0
N628 N 0.33307 0.85603 0.99888 0.0
C629 C 0.33672 0.88671 0.9854 0.0
C630 C 0.32599 0.85928 0.95797 0.0
C631 C 0.33779 0.87497 0.0036 0.0
C632 C 0.32657 0.94469 0.93765 0.0
N633 N 0.33594 0.93433 0.94227 0.0
C634 C 0.35545 0.95714 0.97284 0.0
C635 C 0.34991 0.94001 0.95968 0.0
C636 C 0.34637 0.96832 0.96807 0.0
C637 C 0.33163 0.96196 0.95047 0.0
H638 H 0.31542 0.93977 0.92382 0.0
H639 H 0.35712 0.93147 0.96286 0.0
C640 C 0.37681 0.88677 0.8989 0.0
N641 N 0.3686 0.8886 0.91956 0.0
C642 C 0.39392 0.8854 0.89965 0.0
C643 C 0.39373 0.88764 0.94297 0.0
C644 C 0.3767 0.88916 0.94137 0.0
C645 C 0.40252 0.8859 0.92189 0.0
H646 H 0.37013 0.88661 0.88182 0.0
H647 H 0.37026 0.89118 0.95749 0.0
C648 C 0.29403 0.90162 0.89234 0.0
N649 N 0.26966 0.90885 0.86329 0.0
C650 C 0.27404 0.88743 0.89003 0.0
C651 C 0.30158 0.91956 0.88005 0.0
C652 C 0.26197 0.89135 0.87522 0.0
C653 C 0.28904 0.92291 0.86539 0.0
C654 C 0.32148 0.85536 0.88363 0.0
C655 C 0.30974 0.84817 0.86306 0.0
C656 C 0.32936 0.84446 0.8939 0.0
C657 C 0.30563 0.82997 0.8535 0.0
C658 C 0.32493 0.82633 0.8838 0.0
N659 N 0.31323 0.81951 0.864 0.0
C660 C 0.34212 0.91241 0.83898 0.0
C661 C 0.30724 0.89183 0.8393 0.0
C662 C 0.34213 0.91372 0.81399 0.0
N663 N 0.32486 0.90143 0.85102 0.0
C664 C 0.30654 0.89297 0.81437 0.0
C665 C 0.32419 0.90373 0.80153 0.0
H666 H 0.35592 0.91964 0.84875 0.0
H667 H 0.29379 0.88272 0.84919 0.0
C668 C 0.27986 0.84802 0.95001 0.0
N669 N 0.28587 0.85285 0.92683 0.0
C670 C 0.2625 0.8304 0.95524 0.0
C671 C 0.25748 0.82368 0.91263 0.0
C672 C 0.27489 0.84132 0.90826 0.0
C673 C 0.25129 0.81805 0.93633 0.0
H674 H 0.28857 0.85774 0.96443 0.0
H675 H 0.27959 0.84593 0.89003 0.0
O676 O 0.35203 0.91669 0.89967 0.0
O677 O 0.33002 0.89023 0.9443 0.0
O678 O 0.30608 0.89796 0.90663 0.0
O679 O 0.32592 0.87334 0.89301 0.0
H680 H 0.38312 0.9295 0.92827 0.0
H681 H 0.35214 0.94755 0.87986 0.0
H682 H 0.40752 0.96481 0.93566 0.0
H683 H 0.37699 0.98257 0.88827 0.0
H684 H 0.32344 0.83285 0.97347 0.0
H685 H 0.34046 0.90177 0.98917 0.0
H686 H 0.321 0.85281 0.94045 0.0
H687 H 0.34237 0.88092 0.02149 0.0
H688 H 0.36695 0.96183 0.9863 0.0
H689 H 0.32445 0.97042 0.94645 0.0
H690 H 0.40051 0.88416 0.8831 0.0
H691 H 0.40023 0.88826 0.96035 0.0
H692 H 0.2679 0.87355 0.89959 0.0
H693 H 0.31701 0.93067 0.88159 0.0
H694 H 0.24649 0.88048 0.87322 0.0
H695 H 0.29473 0.93667 0.85565 0.0
H696 H 0.30369 0.85645 0.85465 0.0
H697 H 0.33896 0.84994 0.90937 0.0
H698 H 0.29642 0.82419 0.83771 0.0
H699 H 0.33088 0.81773 0.89164 0.0
H700 H 0.35598 0.92202 0.80443 0.0
H701 H 0.29251 0.88495 0.8051 0.0
H702 H 0.25792 0.82639 0.97372 0.0
H703 H 0.24894 0.81446 0.89771 0.0
Li704 Li 0.46119 0.35087 0.41492 0.0
Li705 Li 0.42634 0.33692 0.42201 0.0
Li706 Li 0.43891 0.31553 0.41631 0.0
Li707 Li 0.43558 0.33343 0.38187 0.0
C708 C 0.45101 0.34662 0.46245 0.0
N709 N 0.46119 0.371 0.50217 0.0
C710 C 0.45235 0.3651 0.46072 0.0
C711 C 0.45487 0.34055 0.4844 0.0
C712 C 0.45749 0.37719 0.481 0.0
C713 C 0.46002 0.35309 0.50426 0.0
C714 C 0.43762 0.37173 0.39205 0.0
C715 C 0.41778 0.38053 0.3674 0.0
N716 N 0.42714 0.39898 0.37706 0.0
C717 C 0.44718 0.39087 0.40153 0.0
C718 C 0.42291 0.36657 0.37467 0.0
C719 C 0.4416 0.40439 0.39382 0.0
C720 C 0.49464 0.38843 0.40792 0.0
N721 N 0.48714 0.37156 0.42111 0.0
C722 C 0.51708 0.38425 0.44358 0.0
C723 C 0.49789 0.36916 0.43863 0.0
C724 C 0.5251 0.40181 0.43029 0.0
C725 C 0.51378 0.40391 0.41228 0.0
H726 H 0.48577 0.3898 0.39397 0.0
H727 H 0.49154 0.3555 0.44869 0.0
C728 C 0.40359 0.33249 0.4632 0.0
N729 N 0.40755 0.34028 0.44066 0.0
C730 C 0.39182 0.33622 0.47873 0.0
C731 C 0.38722 0.35467 0.44701 0.0
C732 C 0.39906 0.35059 0.43214 0.0
C733 C 0.38399 0.34786 0.47071 0.0
H734 H 0.41004 0.32386 0.46938 0.0
H735 H 0.40167 0.35599 0.41401 0.0
C736 C 0.46656 0.31944 0.38515 0.0
N737 N 0.48142 0.29501 0.37358 0.0
C738 C 0.45859 0.30626 0.36592 0.0
C739 C 0.48213 0.32027 0.39844 0.0
C740 C 0.46628 0.29399 0.3604 0.0
C741 C 0.48944 0.30779 0.39229 0.0
C742 C 0.39559 0.30418 0.4093 0.0
C743 C 0.38924 0.29133 0.42893 0.0
C744 C 0.3825 0.30891 0.39805 0.0
C745 C 0.36986 0.28353 0.43717 0.0
C746 C 0.36324 0.30081 0.40684 0.0
N747 N 0.35738 0.28841 0.42606 0.0
C748 C 0.44786 0.29031 0.44327 0.0
C749 C 0.42757 0.276 0.40897 0.0
C750 C 0.44834 0.27294 0.44757 0.0
N751 N 0.43773 0.2915 0.4241 0.0
C752 C 0.42783 0.25847 0.41243 0.0
C753 C 0.43849 0.25699 0.43174 0.0
H754 H 0.45596 0.30301 0.4548 0.0
H755 H 0.41978 0.27752 0.3938 0.0
C756 C 0.44606 0.34625 0.33456 0.0
N757 N 0.43135 0.3325 0.34853 0.0
C758 C 0.44392 0.34551 0.30967 0.0
C759 C 0.41142 0.31668 0.31415 0.0
C760 C 0.41423 0.31791 0.33897 0.0
C761 C 0.42649 0.33052 0.29935 0.0
H762 H 0.45953 0.35759 0.3428 0.0
H763 H 0.40291 0.30709 0.35061 0.0
O764 O 0.44596 0.33442 0.44288 0.0
O765 O 0.4432 0.35842 0.39903 0.0
O766 O 0.45909 0.3314 0.391 0.0
O767 O 0.41467 0.31244 0.40148 0.0
H768 H 0.4493 0.36998 0.444 0.0
H769 H 0.4539 0.32629 0.48606 0.0
H770 H 0.4585 0.3915 0.4799 0.0
H771 H 0.46305 0.34858 0.52136 0.0
H772 H 0.4063 0.37666 0.35413 0.0
H773 H 0.45885 0.3953 0.41467 0.0
H774 H 0.41522 0.35184 0.36722 0.0
H775 H 0.44883 0.41922 0.40109 0.0
H776 H 0.5256 0.38227 0.45752 0.0
H777 H 0.51972 0.41732 0.4017 0.0
H778 H 0.3895 0.33078 0.49701 0.0
H779 H 0.38122 0.36363 0.44038 0.0
H780 H 0.4465 0.30542 0.35551 0.0
H781 H 0.4884 0.33036 0.41341 0.0
H782 H 0.46021 0.28365 0.34564 0.0
H783 H 0.50143 0.3082 0.40247 0.0
H784 H 0.39926 0.28763 0.4379 0.0
H785 H 0.38724 0.31894 0.38292 0.0
H786 H 0.36477 0.27366 0.45245 0.0
H787 H 0.35298 0.30445 0.39845 0.0
H788 H 0.45674 0.27214 0.46256 0.0
H789 H 0.42015 0.24634 0.39994 0.0
H790 H 0.45579 0.35632 0.29855 0.0
H791 H 0.39787 0.30491 0.30654 0.0
Li792 Li 0.08847 0.42573 0.92495 0.0
Li793 Li 0.10956 0.46086 0.91737 0.0
Li794 Li 0.10295 0.43629 0.88607 0.0
Li795 Li 0.12394 0.44019 0.92025 0.0
C796 C 0.06479 0.43662 0.90525 0.0
N797 N 0.02548 0.42371 0.91475 0.0
C798 C 0.05953 0.44829 0.91889 0.0
C799 C 0.05006 0.41848 0.89623 0.0
C800 C 0.03957 0.44149 0.92352 0.0
C801 C 0.03028 0.41217 0.90132 0.0
C802 C 0.11901 0.44446 0.9655 0.0
C803 C 0.14782 0.45758 0.99096 0.0
N804 N 0.13879 0.44094 0.00462 0.0
C805 C 0.11002 0.4275 0.9798 0.0
C806 C 0.13805 0.45967 0.97115 0.0
C807 C 0.12026 0.42601 0.99952 0.0
C808 C 0.05752 0.3876 0.93933 0.0
N809 N 0.06605 0.40746 0.94256 0.0
C810 C 0.04212 0.40305 0.97212 0.0
C811 C 0.05895 0.41531 0.95884 0.0
C812 C 0.03282 0.38257 0.96887 0.0
C813 C 0.04075 0.37472 0.95256 0.0
H814 H 0.0637 0.3818 0.92651 0.0
H815 H 0.06634 0.43115 0.96132 0.0
C816 C 0.10798 0.49537 0.90666 0.0
N817 N 0.11316 0.48631 0.92368 0.0
C818 C 0.11085 0.51425 0.91081 0.0
C819 C 0.12417 0.51398 0.94996 0.0
C820 C 0.12098 0.4951 0.94509 0.0
C821 C 0.11905 0.52365 0.93267 0.0
H822 H 0.10168 0.48792 0.88986 0.0
H823 H 0.12474 0.48746 0.95837 0.0
C824 C 0.10163 0.40207 0.88986 0.0
N825 N 0.10012 0.37655 0.8545 0.0
C826 C 0.11863 0.40137 0.88377 0.0
C827 C 0.08383 0.38968 0.8781 0.0
C828 C 0.11756 0.38837 0.86584 0.0
C829 C 0.08339 0.37693 0.86021 0.0
C830 C 0.13843 0.47853 0.88687 0.0
C831 C 0.13361 0.48327 0.86461 0.0
C832 C 0.15276 0.49353 0.90123 0.0
C833 C 0.1432 0.50297 0.85713 0.0
C834 C 0.16198 0.51306 0.89312 0.0
N835 N 0.15704 0.51733 0.87143 0.0
C836 C 0.08432 0.4298 0.8405 0.0
C837 C 0.11539 0.43124 0.84089 0.0
C838 C 0.08319 0.42761 0.81557 0.0
N839 N 0.10028 0.4316 0.85253 0.0
C840 C 0.11475 0.42881 0.81605 0.0
C841 C 0.09861 0.4272 0.80321 0.0
H842 H 0.07271 0.43052 0.85018 0.0
H843 H 0.12811 0.4332 0.8509 0.0
C844 C 0.1441 0.4228 0.94239 0.0
N845 N 0.14636 0.43864 0.92959 0.0
C846 C 0.16051 0.42085 0.94765 0.0
C847 C 0.18113 0.45165 0.92675 0.0
C848 C 0.16437 0.453 0.92191 0.0
C849 C 0.17916 0.43529 0.93942 0.0
H850 H 0.1295 0.41147 0.9479 0.0
H851 H 0.16565 0.4652 0.91141 0.0
O852 O 0.08427 0.4428 0.90102 0.0
O853 O 0.10938 0.44605 0.94585 0.0
O854 O 0.10243 0.41495 0.90707 0.0
O855 O 0.12891 0.45937 0.89477 0.0
H856 H 0.07073 0.46232 0.92611 0.0
H857 H 0.05389 0.40925 0.88569 0.0
H858 H 0.03528 0.4503 0.93418 0.0
H859 H 0.01874 0.39808 0.89466 0.0
H860 H 0.16262 0.46915 0.99541 0.0
H861 H 0.09536 0.41552 0.97565 0.0
H862 H 0.14536 0.47278 0.96007 0.0
H863 H 0.1135 0.41294 0.0107 0.0
H864 H 0.03638 0.40945 0.9848 0.0
H865 H 0.03389 0.3589 0.94992 0.0
H866 H 0.10678 0.52145 0.89718 0.0
H867 H 0.13049 0.52095 0.96701 0.0
H868 H 0.13255 0.41091 0.89256 0.0
H869 H 0.07056 0.39006 0.88254 0.0
H870 H 0.13062 0.38775 0.86086 0.0
H871 H 0.06975 0.36737 0.85082 0.0
H872 H 0.12247 0.47191 0.85331 0.0
H873 H 0.15648 0.49018 0.91866 0.0
H874 H 0.13957 0.50686 0.83998 0.0
H875 H 0.17298 0.52482 0.90414 0.0
H876 H 0.07065 0.42657 0.80598 0.0
H877 H 0.12694 0.42875 0.80686 0.0
H878 H 0.15863 0.40798 0.95728 0.0
H879 H 0.19538 0.46288 0.92002 0.0
Li880 Li 0.65223 0.10957 0.41684 0.0
Li881 Li 0.66794 0.09007 0.42503 0.0
Li882 Li 0.68872 0.12637 0.41879 0.0
Li883 Li 0.67194 0.1036 0.38547 0.0
C884 C 0.66709 0.12147 0.46424 0.0
N885 N 0.663 0.14084 0.50343 0.0
C886 C 0.65892 0.11122 0.48561 0.0
C887 C 0.67348 0.14164 0.46296 0.0
C888 C 0.65688 0.12125 0.50518 0.0
C889 C 0.67121 0.15116 0.48292 0.0
C890 C 0.63367 0.06495 0.40473 0.0
C891 C 0.62411 0.03064 0.3998 0.0
N892 N 0.60773 0.02537 0.41335 0.0
C893 C 0.61664 0.05919 0.41839 0.0
C894 C 0.63734 0.05057 0.39513 0.0
C895 C 0.60374 0.0391 0.42261 0.0
C896 C 0.62209 0.11603 0.40135 0.0
N897 N 0.62942 0.11194 0.42131 0.0
C898 C 0.60295 0.10972 0.44513 0.0
C899 C 0.62023 0.10871 0.44295 0.0
C900 C 0.59516 0.11395 0.4248 0.0
C901 C 0.60488 0.1172 0.40272 0.0
H902 H 0.62953 0.11817 0.38431 0.0
H903 H 0.62599 0.1049 0.45837 0.0
C904 C 0.67641 0.06016 0.44007 0.0
N905 N 0.66454 0.06812 0.44314 0.0
C906 C 0.67257 0.04313 0.45267 0.0
C907 C 0.64466 0.04315 0.4715 0.0
C908 C 0.64913 0.06021 0.45876 0.0
C909 C 0.65634 0.0344 0.46828 0.0
H910 H 0.68865 0.06687 0.42765 0.0
H911 H 0.64002 0.06691 0.46084 0.0
C912 C 0.67453 0.14607 0.38613 0.0
N913 N 0.67939 0.18189 0.37069 0.0
C914 C 0.68324 0.15382 0.36386 0.0
C915 C 0.66796 0.15641 0.40031 0.0
C916 C 0.68568 0.17199 0.35645 0.0
C917 C 0.67063 0.17452 0.39225 0.0
C918 C 0.70559 0.10281 0.39169 0.0
C919 C 0.72455 0.11878 0.38768 0.0
C920 C 0.69962 0.08486 0.38001 0.0
C921 C 0.73712 0.11662 0.37169 0.0
C922 C 0.71261 0.0833 0.36412 0.0
N923 N 0.73093 0.09909 0.36032 0.0
C924 C 0.72004 0.15243 0.44944 0.0
C925 C 0.72152 0.16339 0.40934 0.0
C926 C 0.73784 0.16952 0.45493 0.0
N927 N 0.71226 0.14981 0.42698 0.0
C928 C 0.73923 0.18064 0.41404 0.0
C929 C 0.74751 0.18375 0.437 0.0
H930 H 0.71251 0.14118 0.46297 0.0
H931 H 0.71541 0.16059 0.39146 0.0
C932 C 0.65734 0.08622 0.34031 0.0
N933 N 0.67364 0.10018 0.35204 0.0
C934 C 0.65753 0.08466 0.31536 0.0
C935 C 0.69144 0.11147 0.31517 0.0
C936 C 0.69054 0.11262 0.34007 0.0
C937 C 0.67468 0.09756 0.30265 0.0
H938 H 0.64402 0.07673 0.35027 0.0
H939 H 0.70311 0.12388 0.34979 0.0
O940 O 0.66914 0.1118 0.44492 0.0
O941 O 0.64672 0.08457 0.40091 0.0
O942 O 0.67186 0.12816 0.39351 0.0
O943 O 0.69302 0.10471 0.40713 0.0
H944 H 0.65412 0.09566 0.48707 0.0
H945 H 0.68037 0.14996 0.44689 0.0
H946 H 0.65046 0.11346 0.52176 0.0
H947 H 0.67607 0.16677 0.48213 0.0
H948 H 0.62686 0.01936 0.39266 0.0
H949 H 0.61352 0.07011 0.42589 0.0
H950 H 0.65033 0.05476 0.38431 0.0
H951 H 0.59058 0.03444 0.43331 0.0
H952 H 0.59555 0.10691 0.46233 0.0
H953 H 0.59905 0.12031 0.38671 0.0
H954 H 0.68184 0.03664 0.44997 0.0
H955 H 0.63207 0.03669 0.48352 0.0
H956 H 0.6882 0.14598 0.35247 0.0
H957 H 0.66058 0.15043 0.41719 0.0
H958 H 0.69253 0.1782 0.33934 0.0
H959 H 0.66562 0.18266 0.40309 0.0
H960 H 0.72952 0.13271 0.39676 0.0
H961 H 0.68506 0.07233 0.38301 0.0
H962 H 0.75181 0.12889 0.36833 0.0
H963 H 0.70812 0.06954 0.35481 0.0
H964 H 0.74408 0.17156 0.47277 0.0
H965 H 0.74657 0.19133 0.39983 0.0
H966 H 0.64434 0.07389 0.30602 0.0
H967 H 0.70479 0.12173 0.30569 0.0
Li968 Li 0.57403 0.66641 0.92523 0.0
Li969 Li 0.53903 0.65153 0.91566 0.0
Li970 Li 0.56451 0.67128 0.88594 0.0
Li971 Li 0.5585 0.68646 0.92086 0.0
C972 C 0.5649 0.63284 0.90376 0.0
N973 N 0.57837 0.60676 0.91239 0.0
C974 C 0.55356 0.61581 0.9174 0.0
C975 C 0.583 0.63651 0.89431 0.0
C976 C 0.56064 0.60282 0.92159 0.0
C977 C 0.58958 0.62318 0.89894 0.0
C978 C 0.55237 0.67514 0.96544 0.0
C979 C 0.53649 0.68793 0.99106 0.0
N980 N 0.55269 0.69611 0.00553 0.0
C981 C 0.56884 0.68361 0.98059 0.0
C982 C 0.53602 0.67722 0.97075 0.0
C983 C 0.56871 0.69416 0.00077 0.0
C984 C 0.61218 0.67361 0.93925 0.0
N985 N 0.59236 0.66235 0.94285 0.0
C986 C 0.59702 0.64229 0.97136 0.0
C987 C 0.58466 0.64721 0.95887 0.0
C988 C 0.61744 0.65329 0.96752 0.0
C989 C 0.62516 0.66933 0.95161 0.0
H990 H 0.61788 0.68572 0.92663 0.0
H991 H 0.56884 0.63873 0.96155 0.0
C992 C 0.50689 0.61592 0.90024 0.0
N993 N 0.51397 0.62848 0.91926 0.0
C994 C 0.48862 0.59862 0.90174 0.0
C995 C 0.4854 0.60734 0.94253 0.0
C996 C 0.50373 0.62456 0.9402 0.0
C997 C 0.47778 0.59424 0.9231 0.0
H998 H 0.51552 0.61936 0.88394 0.0
H999 H 0.50985 0.63471 0.9551 0.0
C1000 C 0.59827 0.70478 0.89278 0.0
N1001 N 0.62581 0.73112 0.86067 0.0
C1002 C 0.59965 0.72308 0.88859 0.0
C1003 C 0.61098 0.69994 0.88075 0.0
C1004 C 0.61367 0.73618 0.87228 0.0
C1005 C 0.62476 0.71343 0.86454 0.0
C1006 C 0.52171 0.66335 0.88523 0.0
C1007 C 0.51789 0.65545 0.86204 0.0
C1008 C 0.50606 0.66112 0.89962 0.0
C1009 C 0.49842 0.64527 0.85371 0.0
C1010 C 0.48679 0.65078 0.89066 0.0
N1011 N 0.4834 0.64313 0.86809 0.0
C1012 C 0.56914 0.65827 0.84053 0.0
C1013 C 0.57326 0.69049 0.84093 0.0
C1014 C 0.57112 0.65894 0.81559 0.0
N1015 N 0.57012 0.67387 0.85258 0.0
C1016 C 0.57578 0.69198 0.81608 0.0
C1017 C 0.57431 0.67589 0.80315 0.0
H1018 H 0.56614 0.64506 0.85019 0.0
H1019 H 0.57327 0.70237 0.85086 0.0
C1020 C 0.57399 0.72304 0.94509 0.0
N1021 N 0.55883 0.70967 0.93124 0.0
C1022 C 0.57552 0.7412 0.95049 0.0
C1023 C 0.54558 0.73121 0.92776 0.0
C1024 C 0.54461 0.71327 0.92283 0.0
C1025 C 0.56138 0.74547 0.9413 0.0
H1026 H 0.58527 0.71987 0.95112 0.0
H1027 H 0.53294 0.70253 0.91155 0.0
O1028 O 0.55847 0.64599 0.89997 0.0
O1029 O 0.55236 0.66508 0.94535 0.0
O1030 O 0.58456 0.69168 0.90857 0.0
O1031 O 0.54062 0.67296 0.89395 0.0
H1032 H 0.53956 0.61278 0.92496 0.0
H1033 H 0.59196 0.64962 0.88372 0.0
H1034 H 0.55209 0.58965 0.93225 0.0
H1035 H 0.60363 0.62591 0.89189 0.0
H1036 H 0.52401 0.68979 0.99529 0.0
H1037 H 0.58166 0.68223 0.97669 0.0
H1038 H 0.52322 0.67088 0.9591 0.0
H1039 H 0.58137 0.70087 0.01261 0.0
H1040 H 0.59074 0.6299 0.9837 0.0
H1041 H 0.64092 0.67811 0.94849 0.0
H1042 H 0.48307 0.58866 0.88653 0.0
H1043 H 0.47731 0.60419 0.95926 0.0
H1044 H 0.58989 0.72706 0.89761 0.0
H1045 H 0.61005 0.68581 0.88368 0.0
H1046 H 0.61485 0.75036 0.86879 0.0
H1047 H 0.63459 0.70981 0.85498 0.0
H1048 H 0.52978 0.65699 0.85065 0.0
H1049 H 0.50872 0.667 0.91768 0.0
H1050 H 0.49525 0.639 0.83585 0.0
H1051 H 0.47452 0.64877 0.90169 0.0
H1052 H 0.56974 0.64623 0.80604 0.0
H1053 H 0.57807 0.70519 0.80691 0.0
H1054 H 0.58797 0.75208 0.96083 0.0
H1055 H 0.53457 0.73426 0.9203 0.0
Li1056 Li 0.57278 0.90993 0.92306 0.0
Li1057 Li 0.5577 0.87449 0.91768 0.0
Li1058 Li 0.56322 0.8965 0.88208 0.0
Li1059 Li 0.53709 0.88892 0.9117 0.0
C1060 C 0.60311 0.90509 0.90218 0.0
N1061 N 0.64383 0.92415 0.89867 0.0
C1062 C 0.61389 0.89904 0.91638 0.0
C1063 C 0.61303 0.92054 0.88583 0.0
C1064 C 0.63447 0.90895 0.91446 0.0
C1065 C 0.63362 0.93007 0.88442 0.0
C1066 C 0.54815 0.87839 0.96249 0.0
C1067 C 0.52905 0.84951 0.98701 0.0
N1068 N 0.54345 0.85714 0.00404 0.0
C1069 C 0.56265 0.88606 0.98035 0.0
C1070 C 0.5311 0.86008 0.96595 0.0
C1071 C 0.56003 0.87506 0.00119 0.0
C1072 C 0.5861 0.94667 0.94434 0.0
N1073 N 0.59055 0.93204 0.94169 0.0
C1074 C 0.61813 0.94855 0.96822 0.0
C1075 C 0.60618 0.93264 0.95327 0.0
C1076 C 0.61385 0.96382 0.97104 0.0
C1077 C 0.59775 0.96292 0.95884 0.0
H1078 H 0.57322 0.94551 0.93558 0.0
H1079 H 0.60895 0.92048 0.95162 0.0
C1080 C 0.54776 0.83489 0.91475 0.0
N1081 N 0.5585 0.85171 0.92767 0.0
C1082 C 0.54886 0.81804 0.91998 0.0
C1083 C 0.57181 0.83597 0.95205 0.0
C1084 C 0.57034 0.85255 0.9461 0.0
C1085 C 0.56115 0.81862 0.93863 0.0
H1086 H 0.53874 0.83472 0.89995 0.0
H1087 H 0.579 0.86622 0.95579 0.0
C1088 C 0.56237 0.93236 0.88713 0.0
N1089 N 0.57305 0.96733 0.8633 0.0
C1090 C 0.54786 0.93619 0.87834 0.0
C1091 C 0.58231 0.94648 0.88414 0.0
C1092 C 0.55355 0.9539 0.86623 0.0
C1093 C 0.58741 0.96402 0.87196 0.0
C1094 C 0.52148 0.85842 0.88096 0.0
C1095 C 0.51722 0.86048 0.85712 0.0
C1096 C 0.50667 0.84409 0.89552 0.0
C1097 C 0.49808 0.84843 0.84837 0.0
C1098 C 0.4877 0.83236 0.88612 0.0
N1099 N 0.48383 0.83476 0.86295 0.0
C1100 C 0.58066 0.89322 0.83945 0.0
C1101 C 0.5614 0.90875 0.83479 0.0
C1102 C 0.5841 0.89424 0.81475 0.0
N1103 N 0.56942 0.90037 0.84889 0.0
C1104 C 0.56451 0.91014 0.81006 0.0
C1105 C 0.57578 0.90263 0.79989 0.0
H1106 H 0.58654 0.88629 0.85107 0.0
H1107 H 0.55192 0.91362 0.84257 0.0
C1108 C 0.50376 0.88429 0.93734 0.0
N1109 N 0.51162 0.88599 0.91509 0.0
C1110 C 0.48555 0.88339 0.94004 0.0
C1111 C 0.48379 0.88564 0.89686 0.0
C1112 C 0.50209 0.88671 0.89503 0.0
C1113 C 0.47551 0.88416 0.91959 0.0
H1114 H 0.51182 0.88407 0.953 0.0
H1115 H 0.50891 0.88854 0.87763 0.0
O1116 O 0.58292 0.89543 0.90374 0.0
O1117 O 0.55055 0.88886 0.94185 0.0
O1118 O 0.55701 0.91506 0.89901 0.0
O1119 O 0.54009 0.87023 0.88993 0.0
H1120 H 0.60647 0.88694 0.92888 0.0
H1121 H 0.60495 0.92501 0.87411 0.0
H1122 H 0.64299 0.90454 0.9255 0.0
H1123 H 0.64148 0.9421 0.87189 0.0
H1124 H 0.516 0.83524 0.98983 0.0
H1125 H 0.57584 0.90028 0.9781 0.0
H1126 H 0.51961 0.85407 0.9525 0.0
H1127 H 0.5712 0.88075 0.01508 0.0
H1128 H 0.6303 0.94878 0.97782 0.0
H1129 H 0.59397 0.9744 0.96107 0.0
H1130 H 0.54061 0.80483 0.90923 0.0
H1131 H 0.58155 0.83681 0.9664 0.0
H1132 H 0.53235 0.92557 0.88073 0.0
H1133 H 0.59372 0.94408 0.89149 0.0
H1134 H 0.54247 0.95699 0.8592 0.0
H1135 H 0.60279 0.97505 0.86952 0.0
H1136 H 0.52852 0.87131 0.8455 0.0
H1137 H 0.50977 0.8421 0.91387 0.0
H1138 H 0.49456 0.84995 0.83 0.0
H1139 H 0.47607 0.82132 0.89725 0.0
H1140 H 0.5927 0.88814 0.80724 0.0
H1141 H 0.55769 0.91641 0.79888 0.0
H1142 H 0.4795 0.88241 0.95781 0.0
H1143 H 0.4764 0.88647 0.88082 0.0
Li1144 Li 0.66008 0.57274 0.41822 0.0
Li1145 Li 0.68334 0.56111 0.41503 0.0
Li1146 Li 0.66376 0.5619 0.37948 0.0
Li1147 Li 0.6475 0.5371 0.41131 0.0
C1148 C 0.69227 0.60358 0.4042 0.0
N1149 N 0.70694 0.64257 0.41723 0.0
C1150 C 0.70596 0.61178 0.42289 0.0
C1151 C 0.68617 0.61523 0.39198 0.0
C1152 C 0.71318 0.63152 0.42923 0.0
C1153 C 0.69372 0.6349 0.39889 0.0
C1154 C 0.66393 0.54336 0.45869 0.0
C1155 C 0.66588 0.51561 0.4744 0.0
N1156 N 0.66684 0.52251 0.49706 0.0
C1157 C 0.66476 0.55009 0.48216 0.0
C1158 C 0.66436 0.52592 0.4548 0.0
C1159 C 0.6663 0.53938 0.50131 0.0
C1160 C 0.64189 0.59566 0.42763 0.0
N1161 N 0.65533 0.59077 0.43558 0.0
C1162 C 0.66043 0.60922 0.47165 0.0
C1163 C 0.6649 0.59759 0.45686 0.0
C1164 C 0.6461 0.61386 0.46425 0.0
C1165 C 0.63709 0.6074 0.44175 0.0
H1166 H 0.63442 0.58992 0.41075 0.0
H1167 H 0.6756 0.59352 0.46259 0.0
C1168 C 0.72005 0.56571 0.40571 0.0
N1169 N 0.70822 0.56476 0.42414 0.0
C1170 C 0.73831 0.56731 0.41036 0.0
C1171 C 0.73221 0.56769 0.45292 0.0
C1172 C 0.71404 0.56611 0.44743 0.0
C1173 C 0.74434 0.56805 0.43418 0.0
H1174 H 0.71505 0.56478 0.38739 0.0
H1175 H 0.70457 0.56581 0.46173 0.0
C1176 C 0.62557 0.55256 0.37907 0.0
N1177 N 0.59956 0.54866 0.34303 0.0
C1178 C 0.60944 0.534 0.3737 0.0
C1179 C 0.62838 0.56917 0.36626 0.0
C1180 C 0.59647 0.53233 0.35538 0.0
C1181 C 0.6151 0.56687 0.34805 0.0
C1182 C 0.67163 0.52571 0.38142 0.0
C1183 C 0.66395 0.51726 0.35902 0.0
C1184 C 0.68225 0.51892 0.39472 0.0
C1185 C 0.66667 0.50197 0.35054 0.0
C1186 C 0.68468 0.50361 0.38561 0.0
N1187 N 0.67689 0.4955 0.3639 0.0
C1188 C 0.68105 0.58221 0.33649 0.0
C1189 C 0.65064 0.55237 0.33115 0.0
C1190 C 0.6831 0.58522 0.31169 0.0
N1191 N 0.66504 0.56595 0.34566 0.0
C1192 C 0.65201 0.55487 0.30632 0.0
C1193 C 0.66846 0.57136 0.29646 0.0
H1194 H 0.69238 0.59266 0.34843 0.0
H1195 H 0.63824 0.5394 0.33881 0.0
C1196 C 0.61665 0.50812 0.43904 0.0
N1197 N 0.6272 0.51093 0.41864 0.0
C1198 C 0.6021 0.48915 0.44588 0.0
C1199 C 0.60879 0.47644 0.40995 0.0
C1200 C 0.62313 0.49565 0.40375 0.0
C1201 C 0.59873 0.47246 0.4322 0.0
H1202 H 0.61947 0.52071 0.44997 0.0
H1203 H 0.63078 0.49834 0.38686 0.0
O1204 O 0.68462 0.58415 0.39819 0.0
O1205 O 0.66244 0.55373 0.43976 0.0
O1206 O 0.63843 0.55445 0.3969 0.0
O1207 O 0.66934 0.54095 0.38982 0.0
H1208 H 0.71078 0.60293 0.43256 0.0
H1209 H 0.6756 0.60909 0.37745 0.0
H1210 H 0.72368 0.63804 0.44376 0.0
H1211 H 0.68904 0.64407 0.38969 0.0
H1212 H 0.66622 0.50208 0.47159 0.0
H1213 H 0.66422 0.56343 0.48559 0.0
H1214 H 0.66321 0.52023 0.43689 0.0
H1215 H 0.66703 0.54446 0.51955 0.0
H1216 H 0.66752 0.61395 0.48901 0.0
H1217 H 0.62587 0.61069 0.43572 0.0
H1218 H 0.74747 0.5676 0.39559 0.0
H1219 H 0.73665 0.56834 0.47148 0.0
H1220 H 0.60699 0.52102 0.38351 0.0
H1221 H 0.64086 0.58362 0.37007 0.0
H1222 H 0.58396 0.51805 0.35097 0.0
H1223 H 0.61719 0.57956 0.33785 0.0
H1224 H 0.65576 0.52227 0.3484 0.0
H1225 H 0.68872 0.52543 0.41184 0.0
H1226 H 0.66066 0.49523 0.33331 0.0
H1227 H 0.69283 0.49823 0.39577 0.0
H1228 H 0.69602 0.59803 0.30444 0.0
H1229 H 0.64058 0.54388 0.29489 0.0
H1230 H 0.59351 0.48822 0.46141 0.0
H1231 H 0.60548 0.46505 0.3968 0.0
Li1232 Li 0.12365 0.68396 0.91616 0.0
Li1233 Li 0.08841 0.66191 0.92086 0.0
Li1234 Li 0.11047 0.64896 0.91295 0.0
Li1235 Li 0.10278 0.66624 0.88205 0.0
C1236 C 0.11154 0.65339 0.95962 0.0
N1237 N 0.11392 0.62986 0.99501 0.0
C1238 C 0.09464 0.64012 0.97238 0.0
C1239 C 0.12967 0.65474 0.96494 0.0
C1240 C 0.09615 0.62837 0.99022 0.0
C1241 C 0.13055 0.64268 0.98285 0.0
C1242 C 0.09163 0.69548 0.90915 0.0
C1243 C 0.06209 0.69797 0.90854 0.0
N1244 N 0.06993 0.7121 0.92588 0.0
C1245 C 0.09943 0.71006 0.9269 0.0
C1246 C 0.07285 0.68943 0.89979 0.0
C1247 C 0.08822 0.71828 0.93513 0.0
C1248 C 0.152 0.72348 0.90968 0.0
N1249 N 0.14561 0.7083 0.92556 0.0
C1250 C 0.17189 0.7281 0.95259 0.0
C1251 C 0.15488 0.71032 0.94691 0.0
C1252 C 0.17918 0.7437 0.93604 0.0
C1253 C 0.16896 0.74143 0.91456 0.0
H1254 H 0.14413 0.72143 0.89299 0.0
H1255 H 0.14927 0.69809 0.95933 0.0
C1256 C 0.04788 0.64252 0.93195 0.0
N1257 N 0.06598 0.65727 0.93882 0.0
C1258 C 0.0315 0.63715 0.94657 0.0
C1259 C 0.05263 0.66265 0.97471 0.0
C1260 C 0.06862 0.66755 0.95952 0.0
C1261 C 0.03395 0.64704 0.96838 0.0
H1262 H 0.04631 0.63439 0.91564 0.0
H1263 H 0.08329 0.67896 0.96468 0.0
C1264 C 0.14775 0.68234 0.88446 0.0
N1265 N 0.18628 0.70994 0.87292 0.0
C1266 C 0.15179 0.69412 0.86401 0.0
C1267 C 0.16332 0.68456 0.89901 0.0
C1268 C 0.17137 0.70801 0.8585 0.0
C1269 C 0.18269 0.69858 0.89285 0.0
C1270 C 0.07442 0.62943 0.87917 0.0
C1271 C 0.07884 0.61528 0.87054 0.0
C1272 C 0.06022 0.63229 0.86743 0.0
C1273 C 0.06906 0.60431 0.85016 0.0
C1274 C 0.05083 0.62107 0.84706 0.0
N1275 N 0.0554 0.60743 0.83891 0.0
C1276 C 0.10057 0.61158 0.93077 0.0
C1277 C 0.1322 0.62875 0.91306 0.0
C1278 C 0.10378 0.59628 0.9377 0.0
N1279 N 0.115 0.62773 0.9195 0.0
C1280 C 0.13598 0.61368 0.91951 0.0
C1281 C 0.12234 0.59764 0.93383 0.0
H1282 H 0.08654 0.61065 0.93448 0.0
H1283 H 0.14298 0.6412 0.90274 0.0
C1284 C 0.09326 0.67966 0.83942 0.0
N1285 N 0.09952 0.66757 0.84854 0.0
C1286 C 0.09149 0.68092 0.81463 0.0
C1287 C 0.10252 0.65721 0.80923 0.0
C1288 C 0.10426 0.65656 0.83407 0.0
C1289 C 0.09615 0.66957 0.79939 0.0
H1290 H 0.0899 0.68848 0.85138 0.0
H1291 H 0.10955 0.64738 0.84187 0.0
O1292 O 0.11029 0.66469 0.94167 0.0
O1293 O 0.10218 0.68693 0.90125 0.0
O1294 O 0.12866 0.66884 0.89036 0.0
O1295 O 0.08413 0.64061 0.8988 0.0
H1296 H 0.08044 0.63867 0.96837 0.0
H1297 H 0.14284 0.66469 0.95501 0.0
H1298 H 0.08317 0.61797 0.00015 0.0
H1299 H 0.14444 0.64345 0.98699 0.0
H1300 H 0.04748 0.69333 0.9016 0.0
H1301 H 0.11388 0.71484 0.93445 0.0
H1302 H 0.06654 0.67805 0.88617 0.0
H1303 H 0.09402 0.72952 0.94894 0.0
H1304 H 0.17951 0.72957 0.96937 0.0
H1305 H 0.17428 0.7533 0.90153 0.0
H1306 H 0.01724 0.62488 0.94146 0.0
H1307 H 0.05492 0.67033 0.99164 0.0
H1308 H 0.13994 0.69273 0.85263 0.0
H1309 H 0.16046 0.67573 0.91505 0.0
H1310 H 0.1747 0.7173 0.8428 0.0
H1311 H 0.19487 0.70049 0.90398 0.0
H1312 H 0.08984 0.61293 0.87932 0.0
H1313 H 0.05675 0.6433 0.87373 0.0
H1314 H 0.07239 0.59338 0.84321 0.0
H1315 H 0.03996 0.62327 0.83766 0.0
H1316 H 0.09144 0.58342 0.9456 0.0
H1317 H 0.14934 0.61481 0.91252 0.0
H1318 H 0.0867 0.6907 0.80739 0.0
H1319 H 0.10638 0.64844 0.79779 0.0
Li1320 Li 0.42504 0.09049 0.42482 0.0
Li1321 Li 0.43822 0.12456 0.41784 0.0
Li1322 Li 0.43481 0.10203 0.38525 0.0
Li1323 Li 0.46051 0.11029 0.41691 0.0
C1324 C 0.39412 0.09251 0.40828 0.0
N1325 N 0.35409 0.07101 0.41781 0.0
C1326 C 0.38504 0.10094 0.42159 0.0
C1327 C 0.3828 0.07322 0.39962 0.0
C1328 C 0.36478 0.08982 0.42624 0.0
C1329 C 0.3626 0.06256 0.40471 0.0
C1330 C 0.43782 0.10863 0.46689 0.0
C1331 C 0.43388 0.09275 0.50526 0.0
N1332 N 0.42119 0.09898 0.51217 0.0
C1333 C 0.42475 0.11489 0.47439 0.0
C1334 C 0.44246 0.0975 0.48245 0.0
C1335 C 0.41651 0.10987 0.49735 0.0
C1336 C 0.41062 0.05274 0.44338 0.0
N1337 N 0.40716 0.06815 0.44365 0.0
C1338 C 0.38079 0.05129 0.47178 0.0
C1339 C 0.39263 0.06776 0.45754 0.0
C1340 C 0.38428 0.03537 0.47189 0.0
C1341 C 0.39926 0.03609 0.45742 0.0
H1342 H 0.42247 0.05352 0.43258 0.0
H1343 H 0.39041 0.08032 0.45798 0.0
C1344 C 0.42632 0.15253 0.41074 0.0
N1345 N 0.43804 0.14818 0.42443 0.0
C1346 C 0.42655 0.17032 0.41402 0.0
C1347 C 0.45088 0.17878 0.44548 0.0
C1348 C 0.45017 0.16079 0.4416 0.0
C1349 C 0.43903 0.18364 0.43144 0.0
H1350 H 0.41708 0.1423 0.39699 0.0
H1351 H 0.45948 0.15696 0.45197 0.0
C1352 C 0.44224 0.0725 0.38618 0.0
N1353 N 0.44418 0.04954 0.34975 0.0
C1354 C 0.46055 0.07662 0.37697 0.0
C1355 C 0.42493 0.05657 0.37707 0.0
C1356 C 0.46122 0.06486 0.35851 0.0
C1357 C 0.42622 0.04518 0.35858 0.0
C1358 C 0.46509 0.14647 0.38486 0.0
C1359 C 0.45557 0.14995 0.36582 0.0
C1360 C 0.48118 0.16237 0.39608 0.0
C1361 C 0.46237 0.16935 0.35826 0.0
C1362 C 0.48754 0.18155 0.38797 0.0
N1363 N 0.47809 0.18461 0.36938 0.0
C1364 C 0.41264 0.09145 0.34188 0.0
C1365 C 0.44669 0.10167 0.3381 0.0
C1366 C 0.41021 0.08941 0.31701 0.0
N1367 N 0.43068 0.09751 0.35181 0.0
C1368 C 0.4449 0.0997 0.31322 0.0
C1369 C 0.42654 0.09368 0.30254 0.0
H1370 H 0.40028 0.08867 0.35318 0.0
H1371 H 0.46093 0.10689 0.34651 0.0
C1372 C 0.488 0.10207 0.43865 0.0
N1373 N 0.48596 0.11394 0.42245 0.0
C1374 C 0.50608 0.10269 0.44104 0.0
C1375 C 0.5196 0.12786 0.41019 0.0
C1376 C 0.50128 0.12682 0.40846 0.0
C1377 C 0.52196 0.11548 0.42639 0.0
H1378 H 0.4754 0.09162 0.44904 0.0
H1379 H 0.49905 0.13569 0.39531 0.0
O1380 O 0.4139 0.10322 0.4034 0.0
O1381 O 0.44588 0.11323 0.44438 0.0
O1382 O 0.44122 0.08402 0.40399 0.0
O1383 O 0.45846 0.12762 0.39278 0.0
H1384 H 0.39356 0.11584 0.42846 0.0
H1385 H 0.38957 0.0665 0.38922 0.0
H1386 H 0.35758 0.09611 0.43661 0.0
H1387 H 0.3537 0.04757 0.39826 0.0
H1388 H 0.43727 0.08408 0.51745 0.0
H1389 H 0.42074 0.12325 0.46251 0.0
H1390 H 0.45246 0.09246 0.47692 0.0
H1391 H 0.4063 0.11452 0.50332 0.0
H1392 H 0.36935 0.05112 0.48292 0.0
H1393 H 0.4023 0.024 0.45728 0.0
H1394 H 0.41739 0.17385 0.40283 0.0
H1395 H 0.46075 0.18894 0.45892 0.0
H1396 H 0.4741 0.08887 0.38379 0.0
H1397 H 0.41066 0.05305 0.38417 0.0
H1398 H 0.47528 0.06795 0.35111 0.0
H1399 H 0.41293 0.03287 0.35126 0.0
H1400 H 0.44296 0.13782 0.3571 0.0
H1401 H 0.48855 0.15993 0.41103 0.0
H1402 H 0.45512 0.17227 0.34358 0.0
H1403 H 0.49993 0.19402 0.39652 0.0
H1404 H 0.39592 0.08495 0.3091 0.0
H1405 H 0.45777 0.10329 0.30237 0.0
H1406 H 0.5075 0.09284 0.45353 0.0
H1407 H 0.53159 0.13772 0.3985 0.0
Li1408 Li 0.3122 0.43916 0.91965 0.0
Li1409 Li 0.3315 0.42351 0.9229 0.0
Li1410 Li 0.34726 0.45866 0.91536 0.0
Li1411 Li 0.32829 0.43447 0.88298 0.0
C1412 C 0.32322 0.44503 0.96448 0.0
N1413 N 0.30343 0.44623 0.00501 0.0
C1414 C 0.31541 0.42926 0.98071 0.0
C1415 C 0.321 0.46143 0.96892 0.0
C1416 C 0.30548 0.43016 0.0011 0.0
C1417 C 0.31091 0.46174 0.98948 0.0
C1418 C 0.29684 0.3943 0.9011 0.0
C1419 C 0.28885 0.36487 0.87851 0.0
N1420 N 0.2755 0.35371 0.89564 0.0
C1421 C 0.283 0.38254 0.91844 0.0
C1422 C 0.29977 0.38541 0.88092 0.0
C1423 C 0.27238 0.36204 0.91538 0.0
C1424 C 0.28372 0.4508 0.9177 0.0
N1425 N 0.28862 0.43853 0.92926 0.0
C1426 C 0.2582 0.42364 0.95105 0.0
C1427 C 0.27636 0.42516 0.94575 0.0
C1428 C 0.25267 0.4358 0.93888 0.0
C1429 C 0.26566 0.44968 0.92228 0.0
H1430 H 0.29357 0.46103 0.90437 0.0
H1431 H 0.28047 0.41538 0.95441 0.0
C1432 C 0.34821 0.41264 0.95903 0.0
N1433 N 0.33579 0.40475 0.93998 0.0
C1434 C 0.35374 0.40113 0.9724 0.0
C1435 C 0.33339 0.37338 0.9466 0.0
C1436 C 0.32848 0.38553 0.93346 0.0
C1437 C 0.34633 0.38133 0.9661 0.0
H1438 H 0.35413 0.42805 0.96353 0.0
H1439 H 0.31932 0.37966 0.91781 0.0
C1440 C 0.33639 0.47739 0.88601 0.0
N1441 N 0.35728 0.51648 0.87179 0.0
C1442 C 0.34684 0.48253 0.86436 0.0
C1443 C 0.33644 0.4921 0.90033 0.0
C1444 C 0.35733 0.50238 0.8575 0.0
C1445 C 0.34714 0.51179 0.89286 0.0
C1446 C 0.36493 0.43187 0.90156 0.0
C1447 C 0.38109 0.44094 0.91711 0.0
C1448 C 0.36102 0.41466 0.88935 0.0
C1449 C 0.39307 0.43255 0.9203 0.0
C1450 C 0.37336 0.40673 0.89304 0.0
N1451 N 0.38899 0.41577 0.9083 0.0
C1452 C 0.37289 0.4951 0.93927 0.0
C1453 C 0.38433 0.48946 0.90228 0.0
C1454 C 0.38994 0.51358 0.9415 0.0
N1455 N 0.3704 0.48358 0.9198 0.0
C1456 C 0.40162 0.50773 0.90384 0.0
C1457 C 0.40445 0.51995 0.92359 0.0
H1458 H 0.36165 0.49 0.953 0.0
H1459 H 0.38192 0.47994 0.88703 0.0
C1460 C 0.30907 0.42596 0.83854 0.0
N1461 N 0.3263 0.43032 0.84957 0.0
C1462 C 0.30746 0.42402 0.81362 0.0
C1463 C 0.3413 0.43091 0.81205 0.0
C1464 C 0.34225 0.4327 0.837 0.0
C1465 C 0.3238 0.42671 0.80021 0.0
H1466 H 0.29672 0.4243 0.84912 0.0
H1467 H 0.35581 0.4364 0.84631 0.0
O1468 O 0.33292 0.4444 0.94434 0.0
O1469 O 0.30707 0.41441 0.90353 0.0
O1470 O 0.32654 0.45811 0.8934 0.0
O1471 O 0.35278 0.43961 0.89861 0.0
H1472 H 0.31674 0.41633 0.97747 0.0
H1473 H 0.32669 0.47364 0.95643 0.0
H1474 H 0.2993 0.41803 0.01375 0.0
H1475 H 0.30896 0.47427 0.99303 0.0
H1476 H 0.29102 0.3578 0.86304 0.0
H1477 H 0.28055 0.38912 0.93417 0.0
H1478 H 0.31049 0.39419 0.86738 0.0
H1479 H 0.26166 0.35276 0.9287 0.0
H1480 H 0.24831 0.41269 0.9638 0.0
H1481 H 0.26161 0.45912 0.91253 0.0
H1482 H 0.36387 0.40765 0.98732 0.0
H1483 H 0.32766 0.35814 0.94124 0.0
H1484 H 0.34705 0.47137 0.8531 0.0
H1485 H 0.32847 0.48838 0.91716 0.0
H1486 H 0.36558 0.50659 0.84086 0.0
H1487 H 0.34744 0.52334 0.90386 0.0
H1488 H 0.38421 0.4542 0.92681 0.0
H1489 H 0.34847 0.40739 0.87739 0.0
H1490 H 0.40557 0.43935 0.93238 0.0
H1491 H 0.37046 0.39335 0.88384 0.0
H1492 H 0.39186 0.52277 0.95697 0.0
H1493 H 0.41264 0.51234 0.88979 0.0
H1494 H 0.29382 0.42085 0.80484 0.0
H1495 H 0.35415 0.43316 0.80204 0.0
Li1496 Li 0.87562 0.31755 0.41761 0.0
Li1497 Li 0.91062 0.34083 0.42272 0.0
Li1498 Li 0.88733 0.35332 0.41425 0.0
Li1499 Li 0.89729 0.33775 0.38331 0.0
C1500 C 0.87779 0.3356 0.46322 0.0
N1501 N 0.85653 0.33031 0.50495 0.0
C1502 C 0.88451 0.33224 0.48502 0.0
C1503 C 0.86042 0.33658 0.46277 0.0
C1504 C 0.87351 0.32951 0.50589 0.0
C1505 C 0.84985 0.33379 0.48402 0.0
C1506 C 0.90896 0.30795 0.40817 0.0
C1507 C 0.93891 0.30632 0.40535 0.0
N1508 N 0.93123 0.29091 0.42103 0.0
C1509 C 0.90129 0.292 0.4241 0.0
C1510 C 0.92784 0.31508 0.39853 0.0
C1511 C 0.91281 0.28361 0.43042 0.0
C1512 C 0.84221 0.28165 0.40772 0.0
N1513 N 0.85398 0.29265 0.42614 0.0
C1514 C 0.83345 0.26797 0.45459 0.0
C1515 C 0.85017 0.28608 0.44922 0.0
C1516 C 0.82086 0.25666 0.43592 0.0
C1517 C 0.82541 0.26348 0.41225 0.0
H1518 H 0.84577 0.2872 0.38953 0.0
H1519 H 0.86003 0.29484 0.46346 0.0
C1520 C 0.95066 0.36178 0.43668 0.0
N1521 N 0.93289 0.34544 0.44111 0.0
C1522 C 0.96685 0.36619 0.45128 0.0
C1523 C 0.94621 0.33668 0.47441 0.0
C1524 C 0.93043 0.33281 0.45933 0.0
C1525 C 0.96453 0.35369 0.47054 0.0
H1526 H 0.95212 0.37167 0.42226 0.0
H1527 H 0.91608 0.32 0.46248 0.0
C1528 C 0.85246 0.3299 0.38533 0.0
N1529 N 0.81649 0.32577 0.37198 0.0
C1530 C 0.85001 0.33577 0.36247 0.0
C1531 C 0.83645 0.32155 0.40119 0.0
C1532 C 0.83177 0.33369 0.35612 0.0
C1533 C 0.81843 0.31968 0.39416 0.0
C1534 C 0.92591 0.37547 0.38379 0.0
C1535 C 0.92306 0.39101 0.3766 0.0
C1536 C 0.94058 0.37295 0.3728 0.0
C1537 C 0.93478 0.40362 0.35824 0.0
C1538 C 0.95196 0.38584 0.35448 0.0
N1539 N 0.94884 0.40077 0.34763 0.0
C1540 C 0.88584 0.38261 0.44225 0.0
C1541 C 0.87141 0.3781 0.40389 0.0
C1542 C 0.88029 0.39654 0.44811 0.0
N1543 N 0.88072 0.37321 0.42076 0.0
C1544 C 0.86553 0.39186 0.40903 0.0
C1545 C 0.86854 0.40045 0.43215 0.0
H1546 H 0.89433 0.37932 0.45486 0.0
H1547 H 0.86882 0.37157 0.38625 0.0
C1548 C 0.90471 0.32325 0.34031 0.0
N1549 N 0.90152 0.33748 0.34973 0.0
C1550 C 0.90672 0.32218 0.31552 0.0
C1551 C 0.90255 0.35067 0.31072 0.0
C1552 C 0.90045 0.35108 0.33553 0.0
C1553 C 0.90551 0.33596 0.30056 0.0
H1554 H 0.90528 0.3125 0.35201 0.0
H1555 H 0.89761 0.36204 0.34344 0.0
O1556 O 0.88842 0.33826 0.44262 0.0
O1557 O 0.89804 0.31656 0.40207 0.0
O1558 O 0.87026 0.33177 0.39175 0.0
O1559 O 0.91442 0.36285 0.40154 0.0
H1560 H 0.89805 0.33171 0.48586 0.0
H1561 H 0.8553 0.33978 0.44631 0.0
H1562 H 0.87849 0.32679 0.52283 0.0
H1563 H 0.83637 0.33451 0.48388 0.0
H1564 H 0.95361 0.31178 0.39819 0.0
H1565 H 0.88669 0.28627 0.43166 0.0
H1566 H 0.93393 0.32733 0.38606 0.0
H1567 H 0.90711 0.27133 0.44285 0.0
H1568 H 0.83028 0.2629 0.47301 0.0
H1569 H 0.81591 0.25494 0.39752 0.0
H1570 H 0.98085 0.37953 0.4481 0.0
H1571 H 0.94404 0.32688 0.48931 0.0
H1572 H 0.86208 0.34199 0.3498 0.0
H1573 H 0.83775 0.31628 0.41862 0.0
H1574 H 0.82975 0.33833 0.33856 0.0
H1575 H 0.80596 0.31328 0.40631 0.0
H1576 H 0.91185 0.39324 0.38501 0.0
H1577 H 0.94302 0.36105 0.37821 0.0
H1578 H 0.93267 0.41564 0.35241 0.0
H1579 H 0.96325 0.38396 0.34568 0.0
H1580 H 0.88588 0.40427 0.46481 0.0
H1581 H 0.85913 0.3959 0.39447 0.0
H1582 H 0.90884 0.31058 0.30804 0.0
H1583 H 0.90137 0.36136 0.29951 0.0
Li1584 Li 0.10974 0.45847 0.58596 0.0
Li1585 Li 0.10296 0.43245 0.61688 0.0
Li1586 Li 0.12458 0.43851 0.58064 0.0
Li1587 Li 0.09008 0.42384 0.57613 0.0
C1588 C 0.13859 0.47506 0.61753 0.0
N1589 N 0.15774 0.51293 0.63612 0.0
C1590 C 0.13503 0.47845 0.64117 0.0
C1591 C 0.15204 0.49093 0.60344 0.0
C1592 C 0.14484 0.4977 0.65023 0.0
C1593 C 0.16151 0.50997 0.61313 0.0
C1594 C 0.06544 0.43384 0.59673 0.0
C1595 C 0.03055 0.41281 0.6039 0.0
N1596 N 0.02669 0.42356 0.58785 0.0
C1597 C 0.06113 0.44461 0.58018 0.0
C1598 C 0.05005 0.41776 0.60862 0.0
C1599 C 0.04143 0.43918 0.57595 0.0
C1600 C 0.11608 0.493 0.56112 0.0
N1601 N 0.11172 0.48355 0.58266 0.0
C1602 C 0.10821 0.50926 0.60094 0.0
C1603 C 0.10763 0.49117 0.60234 0.0
C1604 C 0.11261 0.51929 0.57895 0.0
C1605 C 0.11659 0.51105 0.55883 0.0
H1606 H 0.11882 0.48636 0.54566 0.0
H1607 H 0.10375 0.48306 0.61907 0.0
C1608 C 0.11294 0.42368 0.66178 0.0
N1609 N 0.09959 0.42697 0.65006 0.0
C1610 C 0.11241 0.42218 0.68678 0.0
C1611 C 0.08397 0.42676 0.68696 0.0
C1612 C 0.08518 0.42838 0.66201 0.0
C1613 C 0.09793 0.42399 0.69952 0.0
H1614 H 0.12441 0.42296 0.65174 0.0
H1615 H 0.07513 0.43155 0.65226 0.0
C1616 C 0.12185 0.44675 0.5369 0.0
N1617 N 0.14561 0.44934 0.49872 0.0
C1618 C 0.11594 0.43072 0.52134 0.0
C1619 C 0.13979 0.46413 0.53295 0.0
C1620 C 0.12817 0.43233 0.50214 0.0
C1621 C 0.15162 0.46513 0.51359 0.0
C1622 C 0.0929 0.39296 0.59332 0.0
C1623 C 0.09157 0.38346 0.57155 0.0
C1624 C 0.0828 0.38178 0.61345 0.0
C1625 C 0.07999 0.36289 0.57025 0.0
C1626 C 0.0714 0.36124 0.61142 0.0
N1627 N 0.07023 0.3523 0.59005 0.0
C1628 C 0.16544 0.45272 0.58021 0.0
C1629 C 0.14681 0.42354 0.55729 0.0
C1630 C 0.18276 0.4523 0.57567 0.0
N1631 N 0.14791 0.43837 0.57122 0.0
C1632 C 0.1638 0.42258 0.55222 0.0
C1633 C 0.18191 0.43694 0.56183 0.0
H1634 H 0.16588 0.46414 0.59154 0.0
H1635 H 0.1327 0.4122 0.55059 0.0
C1636 C 0.06489 0.41364 0.53702 0.0
N1637 N 0.06698 0.40628 0.55824 0.0
C1638 C 0.04784 0.40305 0.52335 0.0
C1639 C 0.03532 0.37727 0.55344 0.0
C1640 C 0.05253 0.38854 0.56676 0.0
C1641 C 0.03284 0.38475 0.53167 0.0
H1642 H 0.07625 0.42806 0.53105 0.0
H1643 H 0.05401 0.3834 0.58419 0.0
O1644 O 0.12887 0.45634 0.60818 0.0
O1645 O 0.08464 0.439 0.60121 0.0
O1646 O 0.11027 0.44534 0.55608 0.0
O1647 O 0.10434 0.41305 0.59511 0.0
H1648 H 0.1247 0.46641 0.65239 0.0
H1649 H 0.15495 0.48861 0.5851 0.0
H1650 H 0.14215 0.50053 0.66845 0.0
H1651 H 0.17181 0.5224 0.60234 0.0
H1652 H 0.01848 0.40038 0.61294 0.0
H1653 H 0.07285 0.45697 0.57063 0.0
H1654 H 0.05313 0.40907 0.6212 0.0
H1655 H 0.03787 0.44737 0.56319 0.0
H1656 H 0.10492 0.51522 0.6167 0.0
H1657 H 0.11983 0.51841 0.54158 0.0
H1658 H 0.12346 0.42021 0.69613 0.0
H1659 H 0.0728 0.42844 0.69645 0.0
H1660 H 0.1022 0.41709 0.52421 0.0
H1661 H 0.14463 0.47665 0.54485 0.0
H1662 H 0.12383 0.42 0.49004 0.0
H1663 H 0.1656 0.47845 0.51042 0.0
H1664 H 0.09904 0.39186 0.55572 0.0
H1665 H 0.0837 0.38888 0.63045 0.0
H1666 H 0.0787 0.35535 0.55348 0.0
H1667 H 0.06347 0.35241 0.62684 0.0
H1668 H 0.19657 0.46345 0.58351 0.0
H1669 H 0.16276 0.41045 0.54167 0.0
H1670 H 0.04615 0.40924 0.50671 0.0
H1671 H 0.02376 0.3633 0.56043 0.0
Li1672 Li 0.65206 0.10905 0.08458 0.0
Li1673 Li 0.67096 0.10285 0.11634 0.0
Li1674 Li 0.6871 0.12413 0.07988 0.0
Li1675 Li 0.66725 0.0893 0.07604 0.0
C1676 C 0.66429 0.13881 0.11486 0.0
N1677 N 0.64567 0.15882 0.13088 0.0
C1678 C 0.6561 0.13525 0.13788 0.0
C1679 C 0.66321 0.15271 0.10009 0.0
C1680 C 0.64672 0.1455 0.14564 0.0
C1681 C 0.65366 0.16261 0.10847 0.0
C1682 C 0.6334 0.06448 0.09694 0.0
C1683 C 0.62369 0.03032 0.10353 0.0
N1684 N 0.60792 0.02476 0.08875 0.0
C1685 C 0.61708 0.05846 0.08186 0.0
C1686 C 0.63675 0.05034 0.10792 0.0
C1687 C 0.60438 0.0383 0.07792 0.0
C1688 C 0.62463 0.11612 0.05889 0.0
N1689 N 0.62916 0.11122 0.08045 0.0
C1690 C 0.59994 0.10813 0.09816 0.0
C1691 C 0.61716 0.10705 0.09985 0.0
C1692 C 0.59488 0.11311 0.07616 0.0
C1693 C 0.60736 0.1171 0.0563 0.0
H1694 H 0.63428 0.119 0.04367 0.0
H1695 H 0.62098 0.1028 0.11661 0.0
C1696 C 0.68941 0.11339 0.16131 0.0
N1697 N 0.67281 0.09994 0.14963 0.0
C1698 C 0.69056 0.11264 0.18625 0.0
C1699 C 0.65768 0.08397 0.18648 0.0
C1700 C 0.65711 0.08534 0.16156 0.0
C1701 C 0.67447 0.09789 0.19898 0.0
H1702 H 0.70153 0.12494 0.15125 0.0
H1703 H 0.64399 0.07511 0.15179 0.0
C1704 C 0.67569 0.11963 0.03518 0.0
N1705 N 0.69522 0.14073 0.99462 0.0
C1706 C 0.6842 0.11212 0.01933 0.0
C1707 C 0.67702 0.1378 0.03032 0.0
C1708 C 0.69401 0.12302 0.99892 0.0
C1709 C 0.68701 0.14828 0.00976 0.0
C1710 C 0.70174 0.09363 0.09594 0.0
C1711 C 0.71361 0.09455 0.07665 0.0
C1712 C 0.70033 0.08241 0.1162 0.0
C1713 C 0.72381 0.08412 0.0779 0.0
C1714 C 0.71078 0.07222 0.11676 0.0
N1715 N 0.7222 0.07328 0.09776 0.0
C1716 C 0.7154 0.16427 0.08219 0.0
C1717 C 0.72315 0.14639 0.05399 0.0
C1718 C 0.73342 0.18133 0.07788 0.0
N1719 N 0.71071 0.14723 0.07045 0.0
C1720 C 0.74129 0.16317 0.04898 0.0
C1721 C 0.7466 0.18073 0.06135 0.0
H1722 H 0.70543 0.16446 0.09547 0.0
H1723 H 0.71923 0.13262 0.04517 0.0
C1724 C 0.64997 0.06249 0.03927 0.0
N1725 N 0.66222 0.06627 0.05834 0.0
C1726 C 0.64372 0.04544 0.02564 0.0
C1727 C 0.66313 0.03656 0.05112 0.0
C1728 C 0.66868 0.05361 0.06462 0.0
C1729 C 0.65029 0.03229 0.03164 0.0
H1730 H 0.64468 0.07254 0.035 0.0
H1731 H 0.6776 0.05627 0.08041 0.0
O1732 O 0.67314 0.1286 0.10672 0.0
O1733 O 0.64621 0.08415 0.10063 0.0
O1734 O 0.66613 0.10925 0.05534 0.0
O1735 O 0.69194 0.10402 0.09529 0.0
H1736 H 0.65678 0.12455 0.14957 0.0
H1737 H 0.66951 0.15566 0.08225 0.0
H1738 H 0.64021 0.14282 0.16336 0.0
H1739 H 0.65256 0.17327 0.09716 0.0
H1740 H 0.62616 0.01919 0.11177 0.0
H1741 H 0.61436 0.06925 0.07313 0.0
H1742 H 0.64945 0.05479 0.11944 0.0
H1743 H 0.59173 0.03341 0.06621 0.0
H1744 H 0.59048 0.10481 0.11373 0.0
H1745 H 0.60368 0.1208 0.03904 0.0
H1746 H 0.70363 0.12364 0.19557 0.0
H1747 H 0.64499 0.07257 0.19599 0.0
H1748 H 0.6835 0.09818 0.0229 0.0
H1749 H 0.67055 0.14384 0.0424 0.0
H1750 H 0.70074 0.11744 0.98656 0.0
H1751 H 0.68825 0.16242 0.00586 0.0
H1752 H 0.71476 0.10301 0.06079 0.0
H1753 H 0.69119 0.08147 0.13128 0.0
H1754 H 0.73299 0.08464 0.06306 0.0
H1755 H 0.70978 0.06344 0.13228 0.0
H1756 H 0.73729 0.19472 0.08778 0.0
H1757 H 0.75132 0.16234 0.03625 0.0
H1758 H 0.6337 0.04242 0.01072 0.0
H1759 H 0.66823 0.02649 0.05627 0.0
Li1760 Li 0.56604 0.66815 0.61614 0.0
Li1761 Li 0.541 0.64722 0.58614 0.0
Li1762 Li 0.57681 0.66442 0.57769 0.0
Li1763 Li 0.56055 0.68318 0.58074 0.0
C1764 C 0.56212 0.63253 0.62031 0.0
N1765 N 0.56265 0.61166 0.6601 0.0
C1766 C 0.54479 0.61578 0.62794 0.0
C1767 C 0.57976 0.63853 0.63277 0.0
C1768 C 0.54536 0.60545 0.64812 0.0
C1769 C 0.57971 0.62784 0.65291 0.0
C1770 C 0.53481 0.67999 0.61482 0.0
C1771 C 0.51036 0.69023 0.61525 0.0
N1772 N 0.52217 0.70552 0.62998 0.0
C1773 C 0.54669 0.6958 0.62999 0.0
C1774 C 0.51647 0.67714 0.60741 0.0
C1775 C 0.54005 0.70855 0.63743 0.0
C1776 C 0.58688 0.68554 0.65964 0.0
N1777 N 0.57012 0.67059 0.64982 0.0
C1778 C 0.55662 0.65828 0.68861 0.0
C1779 C 0.55503 0.65721 0.6637 0.0
C1780 C 0.57365 0.67362 0.69927 0.0
C1781 C 0.58892 0.68743 0.68458 0.0
H1782 H 0.59844 0.6962 0.64813 0.0
H1783 H 0.5417 0.64579 0.65534 0.0
C1784 C 0.5148 0.61047 0.56517 0.0
N1785 N 0.51653 0.62371 0.5822 0.0
C1786 C 0.49705 0.59268 0.56261 0.0
C1787 C 0.4833 0.60266 0.59504 0.0
C1788 C 0.5013 0.62024 0.59699 0.0
C1789 C 0.48118 0.58869 0.57779 0.0
H1790 H 0.52727 0.6137 0.55377 0.0
H1791 H 0.50325 0.63103 0.61047 0.0
C1792 C 0.60514 0.6986 0.58848 0.0
N1793 N 0.64369 0.71625 0.57234 0.0
C1794 C 0.61086 0.71065 0.56811 0.0
C1795 C 0.61903 0.69557 0.6007 0.0
C1796 C 0.63043 0.71944 0.56023 0.0
C1797 C 0.63845 0.70461 0.59223 0.0
C1798 C 0.54265 0.66103 0.5386 0.0
C1799 C 0.54891 0.6636 0.5147 0.0
C1800 C 0.52325 0.65624 0.54384 0.0
C1801 C 0.53573 0.66153 0.49646 0.0
C1802 C 0.51049 0.65423 0.5251 0.0
N1803 N 0.51695 0.65691 0.50199 0.0
C1804 C 0.60235 0.64937 0.5687 0.0
C1805 C 0.60018 0.6688 0.53739 0.0
C1806 C 0.61326 0.64388 0.55403 0.0
N1807 N 0.59568 0.6612 0.55996 0.0
C1808 C 0.61094 0.6636 0.52203 0.0
C1809 C 0.61702 0.65052 0.5302 0.0
H1810 H 0.59832 0.64333 0.58657 0.0
H1811 H 0.59459 0.67813 0.53097 0.0
C1812 C 0.57324 0.72308 0.58392 0.0
N1813 N 0.56038 0.70667 0.5714 0.0
C1814 C 0.57354 0.74089 0.58055 0.0
C1815 C 0.54761 0.72486 0.551 0.0
C1816 C 0.5478 0.70731 0.55497 0.0
C1817 C 0.56044 0.74174 0.56414 0.0
H1818 H 0.58293 0.72218 0.59709 0.0
H1819 H 0.53759 0.69426 0.54529 0.0
O1820 O 0.5618 0.64301 0.60078 0.0
O1821 O 0.54126 0.6676 0.6069 0.0
O1822 O 0.58595 0.68949 0.59613 0.0
O1823 O 0.55519 0.66225 0.55655 0.0
H1824 H 0.53103 0.61084 0.61848 0.0
H1825 H 0.59329 0.65151 0.62722 0.0
H1826 H 0.53205 0.59251 0.65427 0.0
H1827 H 0.59321 0.63244 0.66286 0.0
H1828 H 0.49623 0.68823 0.60962 0.0
H1829 H 0.56104 0.69842 0.63563 0.0
H1830 H 0.50704 0.66498 0.59574 0.0
H1831 H 0.54915 0.72091 0.64905 0.0
H1832 H 0.54453 0.64752 0.69951 0.0
H1833 H 0.60214 0.69955 0.69235 0.0
H1834 H 0.49575 0.58206 0.54919 0.0
H1835 H 0.47125 0.59986 0.60702 0.0
H1836 H 0.60024 0.71298 0.55829 0.0
H1837 H 0.61483 0.68622 0.61643 0.0
H1838 H 0.63504 0.72873 0.54442 0.0
H1839 H 0.64933 0.70232 0.60144 0.0
H1840 H 0.56377 0.66705 0.51023 0.0
H1841 H 0.5182 0.65447 0.56216 0.0
H1842 H 0.54041 0.66351 0.4779 0.0
H1843 H 0.49548 0.65062 0.52895 0.0
H1844 H 0.61766 0.63362 0.56068 0.0
H1845 H 0.61355 0.66881 0.50364 0.0
H1846 H 0.58351 0.75373 0.59104 0.0
H1847 H 0.53728 0.72516 0.53828 0.0
Li1848 Li 0.89598 0.56295 0.11497 0.0
Li1849 Li 0.88781 0.53714 0.08343 0.0
Li1850 Li 0.90959 0.57347 0.07592 0.0
Li1851 Li 0.87568 0.56044 0.08111 0.0
C1852 C 0.92469 0.55391 0.11588 0.0
N1853 N 0.94544 0.54953 0.15328 0.0
C1854 C 0.9222 0.53531 0.1212 0.0
C1855 C 0.93787 0.57031 0.12947 0.0
C1856 C 0.93281 0.5334 0.14019 0.0
C1857 C 0.94816 0.56777 0.14836 0.0
C1858 C 0.85231 0.53516 0.11562 0.0
C1859 C 0.81735 0.51257 0.12008 0.0
N1860 N 0.81592 0.526 0.13421 0.0
C1861 C 0.85048 0.54877 0.1301 0.0
C1862 C 0.83562 0.51692 0.11051 0.0
C1863 C 0.83196 0.54384 0.13937 0.0
C1864 C 0.90101 0.58306 0.15924 0.0
N1865 N 0.8986 0.56626 0.14881 0.0
C1866 C 0.89775 0.55216 0.18713 0.0
C1867 C 0.89666 0.55081 0.16217 0.0
C1868 C 0.90032 0.56934 0.19829 0.0
C1869 C 0.9019 0.58493 0.1842 0.0
H1870 H 0.90172 0.59478 0.14824 0.0
H1871 H 0.89405 0.53737 0.15341 0.0
C1872 C 0.89372 0.50932 0.05907 0.0
N1873 N 0.88317 0.5115 0.07689 0.0
C1874 C 0.89039 0.49059 0.05297 0.0
C1875 C 0.86617 0.47683 0.08451 0.0
C1876 C 0.87003 0.49585 0.09009 0.0
C1877 C 0.87531 0.4735 0.06448 0.0
H1878 H 0.90485 0.52224 0.04967 0.0
H1879 H 0.86271 0.49817 0.10517 0.0
C1880 C 0.90966 0.60404 0.09055 0.0
N1881 N 0.93659 0.64254 0.07788 0.0
C1882 C 0.90684 0.61228 0.06969 0.0
C1883 C 0.92616 0.61543 0.10501 0.0
C1884 C 0.92063 0.63175 0.06357 0.0
C1885 C 0.93959 0.63485 0.0983 0.0
C1886 C 0.87511 0.54812 0.03685 0.0
C1887 C 0.87365 0.56282 0.02424 0.0
C1888 C 0.86287 0.52829 0.03055 0.0
C1889 C 0.85982 0.55742 0.00574 0.0
C1890 C 0.84926 0.5235 0.0119 0.0
N1891 N 0.84801 0.53804 1e-05 0.0
C1892 C 0.95039 0.60065 0.06927 0.0
C1893 C 0.93074 0.59268 0.0341 0.0
C1894 C 0.96753 0.61202 0.05594 0.0
N1895 N 0.93251 0.59112 0.05817 0.0
C1896 C 0.94749 0.60379 0.02005 0.0
C1897 C 0.96611 0.61325 0.031 0.0
H1898 H 0.95141 0.59901 0.08836 0.0
H1899 H 0.91641 0.58473 0.02568 0.0
C1900 C 0.85243 0.57863 0.07783 0.0
N1901 N 0.85263 0.56167 0.073 0.0
C1902 C 0.83526 0.57957 0.07425 0.0
C1903 C 0.81882 0.54559 0.06071 0.0
C1904 C 0.8363 0.5453 0.06458 0.0
C1905 C 0.81824 0.56283 0.06584 0.0
H1906 H 0.86539 0.59121 0.08524 0.0
H1907 H 0.83665 0.53182 0.06162 0.0
O1908 O 0.91427 0.55601 0.09748 0.0
O1909 O 0.87026 0.53985 0.10605 0.0
O1910 O 0.89658 0.58481 0.09647 0.0
O1911 O 0.88845 0.55309 0.05519 0.0
H1912 H 0.91214 0.52246 0.11086 0.0
H1913 H 0.9398 0.58475 0.12588 0.0
H1914 H 0.93098 0.51908 0.14455 0.0
H1915 H 0.95824 0.5803 0.15918 0.0
H1916 H 0.8043 0.49854 0.1162 0.0
H1917 H 0.86314 0.5631 0.13385 0.0
H1918 H 0.83671 0.50634 0.09901 0.0
H1919 H 0.83032 0.55426 0.15053 0.0
H1920 H 0.89619 0.53979 0.19766 0.0
H1921 H 0.90358 0.59823 0.19246 0.0
H1922 H 0.90021 0.49011 0.0398 0.0
H1923 H 0.85643 0.4651 0.09646 0.0
H1924 H 0.89424 0.60369 0.05822 0.0
H1925 H 0.92878 0.60926 0.12102 0.0
H1926 H 0.91868 0.63826 0.04741 0.0
H1927 H 0.95248 0.64378 0.10925 0.0
H1928 H 0.88292 0.57823 0.02886 0.0
H1929 H 0.86367 0.51668 0.04009 0.0
H1930 H 0.85843 0.56864 0.99599 0.0
H1931 H 0.83964 0.50821 0.00694 0.0
H1932 H 0.98179 0.61908 0.06479 0.0
H1933 H 0.94604 0.60439 0.00077 0.0
H1934 H 0.83504 0.59295 0.07871 0.0
H1935 H 0.80574 0.53236 0.05458 0.0
Li1936 Li 0.33092 0.89656 0.61553 0.0
Li1937 Li 0.35017 0.88974 0.58552 0.0
Li1938 Li 0.33431 0.90929 0.57485 0.0
Li1939 Li 0.31446 0.87439 0.5811 0.0
C1940 C 0.36783 0.93309 0.60869 0.0
N1941 N 0.39326 0.96916 0.62945 0.0
C1942 C 0.38637 0.93709 0.61691 0.0
C1943 C 0.36232 0.9475 0.61072 0.0
C1944 C 0.39898 0.9554 0.62746 0.0
C1945 C 0.37536 0.96564 0.62133 0.0
C1946 C 0.32627 0.8521 0.60711 0.0
C1947 C 0.32665 0.8255 0.58562 0.0
N1948 N 0.31892 0.81368 0.6052 0.0
C1949 C 0.3183 0.83969 0.627 0.0
C1950 C 0.33046 0.84497 0.58622 0.0
C1951 C 0.3147 0.82031 0.62569 0.0
C1952 C 0.31106 0.89336 0.65886 0.0
N1953 N 0.32921 0.90051 0.64872 0.0
C1954 C 0.34488 0.91066 0.68698 0.0
C1955 C 0.34597 0.90903 0.66218 0.0
C1956 C 0.32635 0.90312 0.69789 0.0
C1957 C 0.30927 0.89451 0.68367 0.0
H1958 H 0.29798 0.8863 0.64772 0.0
H1959 H 0.36013 0.914 0.65378 0.0
C1960 C 0.38423 0.89467 0.56202 0.0
N1961 N 0.37304 0.88759 0.58218 0.0
C1962 C 0.40179 0.89418 0.55987 0.0
C1963 C 0.39569 0.87883 0.59907 0.0
C1964 C 0.37837 0.87978 0.60057 0.0
C1965 C 0.40761 0.88624 0.57862 0.0
H1966 H 0.37965 0.90097 0.54784 0.0
H1967 H 0.36928 0.87454 0.61651 0.0
C1968 C 0.29862 0.90379 0.59693 0.0
N1969 N 0.27558 0.92127 0.60185 0.0
C1970 C 0.28078 0.89631 0.5844 0.0
C1971 C 0.30454 0.91993 0.6123 0.0
C1972 C 0.26941 0.90542 0.58703 0.0
C1973 C 0.29274 0.92862 0.61445 0.0
C1974 C 0.32691 0.88592 0.53366 0.0
C1975 C 0.31006 0.8876 0.53078 0.0
C1976 C 0.3354 0.88224 0.51369 0.0
C1977 C 0.30196 0.88561 0.5079 0.0
C1978 C 0.32686 0.8803 0.49109 0.0
N1979 N 0.31045 0.88202 0.48868 0.0
C1980 C 0.35791 0.94278 0.54885 0.0
C1981 C 0.32483 0.93625 0.55056 0.0
C1982 C 0.36355 0.95979 0.53539 0.0
N1983 N 0.33889 0.93152 0.55629 0.0
C1984 C 0.32984 0.95322 0.53711 0.0
C1985 C 0.34942 0.96511 0.52948 0.0
H1986 H 0.3687 0.93853 0.55353 0.0
H1987 H 0.30975 0.92693 0.55628 0.0
C1988 C 0.2753 0.84575 0.58701 0.0
N1989 N 0.29123 0.8509 0.57272 0.0
C1990 C 0.2578 0.82805 0.58311 0.0
C1991 C 0.27344 0.82128 0.54979 0.0
C1992 C 0.29066 0.8392 0.55429 0.0
C1993 C 0.25689 0.81561 0.56446 0.0
H1994 H 0.27635 0.85528 0.6017 0.0
H1995 H 0.30368 0.84358 0.54343 0.0
O1996 O 0.35537 0.91524 0.59827 0.0
O1997 O 0.32948 0.87098 0.60796 0.0
O1998 O 0.30988 0.89497 0.59461 0.0
O1999 O 0.33511 0.88776 0.55587 0.0
H2000 H 0.39091 0.92612 0.61528 0.0
H2001 H 0.34825 0.94485 0.60394 0.0
H2002 H 0.41333 0.95867 0.63405 0.0
H2003 H 0.37128 0.97693 0.62303 0.0
H2004 H 0.32978 0.81977 0.56956 0.0
H2005 H 0.31487 0.84499 0.64325 0.0
H2006 H 0.33644 0.85431 0.57056 0.0
H2007 H 0.30854 0.81053 0.64095 0.0
H2008 H 0.35826 0.91711 0.69766 0.0
H2009 H 0.29477 0.88839 0.69175 0.0
H2010 H 0.41083 0.9001 0.54395 0.0
H2011 H 0.39997 0.87277 0.61387 0.0
H2012 H 0.2758 0.88364 0.5727 0.0
H2013 H 0.31799 0.92556 0.62265 0.0
H2014 H 0.25565 0.89987 0.57732 0.0
H2015 H 0.29719 0.94116 0.62622 0.0
H2016 H 0.3033 0.89041 0.54604 0.0
H2017 H 0.34844 0.88085 0.51566 0.0
H2018 H 0.28892 0.88689 0.50542 0.0
H2019 H 0.33326 0.87744 0.47546 0.0
H2020 H 0.37877 0.96874 0.52965 0.0
H2021 H 0.31865 0.95701 0.53268 0.0
H2022 H 0.24522 0.8239 0.59476 0.0
H2023 H 0.27308 0.81182 0.53536 0.0
Li2024 Li 0.43292 0.33143 0.11313 0.0
Li2025 Li 0.45809 0.34919 0.08278 0.0
Li2026 Li 0.42184 0.33394 0.07338 0.0
Li2027 Li 0.43677 0.31322 0.07844 0.0
C2028 C 0.43457 0.36645 0.1122 0.0
N2029 N 0.42661 0.38742 0.14601 0.0
C2030 C 0.4499 0.38407 0.12159 0.0
C2031 C 0.41516 0.35967 0.11973 0.0
C2032 C 0.44558 0.39441 0.13874 0.0
C2033 C 0.41144 0.37042 0.13692 0.0
C2034 C 0.47391 0.33036 0.10901 0.0
C2035 C 0.50149 0.32662 0.0968 0.0
N2036 N 0.51082 0.335 0.11779 0.0
C2037 C 0.48366 0.33866 0.13061 0.0
C2038 C 0.48279 0.32407 0.09209 0.0
C2039 C 0.50236 0.341 0.13465 0.0
C2040 C 0.4125 0.31513 0.15678 0.0
N2041 N 0.42855 0.3307 0.14658 0.0
C2042 C 0.44073 0.34537 0.18494 0.0
C2043 C 0.44253 0.34568 0.16005 0.0
C2044 C 0.42452 0.32937 0.19591 0.0
C2045 C 0.41017 0.31415 0.1817 0.0
H2046 H 0.40178 0.3033 0.14561 0.0
H2047 H 0.45531 0.35766 0.15145 0.0
C2048 C 0.49082 0.37856 0.05625 0.0
N2049 N 0.48362 0.3714 0.0785 0.0
C2050 C 0.50936 0.39546 0.0537 0.0
C2051 C 0.51246 0.39749 0.09698 0.0
C2052 C 0.49397 0.3805 0.09868 0.0
C2053 C 0.52022 0.40509 0.07428 0.0
H2054 H 0.48203 0.37141 0.04053 0.0
H2055 H 0.48762 0.37481 0.11613 0.0
C2056 C 0.39255 0.29779 0.08859 0.0
N2057 N 0.35289 0.27345 0.07857 0.0
C2058 C 0.38656 0.28241 0.07201 0.0
C2059 C 0.37834 0.3006 0.10035 0.0
C2060 C 0.36645 0.27031 0.06713 0.0
C2061 C 0.35837 0.2882 0.09495 0.0
C2062 C 0.44822 0.32968 0.03211 0.0
C2063 C 0.43485 0.32365 0.01299 0.0
C2064 C 0.46672 0.33133 0.02875 0.0
C2065 C 0.44008 0.31903 0.99095 0.0
C2066 C 0.47139 0.32656 0.00645 0.0
N2067 N 0.45808 0.32054 0.98818 0.0
C2068 C 0.40528 0.35606 0.05671 0.0
C2069 C 0.39021 0.32372 0.04031 0.0
C2070 C 0.39363 0.36075 0.04233 0.0
N2071 N 0.40346 0.33785 0.05539 0.0
C2072 C 0.37829 0.32781 0.02549 0.0
C2073 C 0.38021 0.34661 0.02632 0.0
H2074 H 0.41626 0.3672 0.06833 0.0
H2075 H 0.38947 0.30959 0.03901 0.0
C2076 C 0.43762 0.27946 0.08968 0.0
N2077 N 0.43601 0.28925 0.07042 0.0
C2078 C 0.4375 0.26172 0.08655 0.0
C2079 C 0.43389 0.26429 0.04376 0.0
C2080 C 0.4339 0.28193 0.04776 0.0
C2081 C 0.43571 0.25409 0.06338 0.0
H2082 H 0.43909 0.28556 0.1075 0.0
H2083 H 0.43207 0.2896 0.03279 0.0
O2084 O 0.43851 0.35593 0.09567 0.0
O2085 O 0.45563 0.32808 0.10471 0.0
O2086 O 0.41217 0.30971 0.09372 0.0
O2087 O 0.44329 0.3342 0.05383 0.0
H2088 H 0.46497 0.38967 0.11577 0.0
H2089 H 0.40313 0.34625 0.11236 0.0
H2090 H 0.45731 0.408 0.14626 0.0
H2091 H 0.3965 0.36527 0.143 0.0
H2092 H 0.50854 0.32187 0.0838 0.0
H2093 H 0.47692 0.34338 0.14407 0.0
H2094 H 0.47529 0.31713 0.07557 0.0
H2095 H 0.51013 0.34756 0.1512 0.0
H2096 H 0.4521 0.35721 0.19558 0.0
H2097 H 0.39759 0.30156 0.18984 0.0
H2098 H 0.51499 0.40122 0.03597 0.0
H2099 H 0.5205 0.40481 0.11315 0.0
H2100 H 0.39732 0.27994 0.06282 0.0
H2101 H 0.38264 0.31214 0.11359 0.0
H2102 H 0.36162 0.25844 0.05421 0.0
H2103 H 0.34722 0.29027 0.10384 0.0
H2104 H 0.42057 0.32247 0.01514 0.0
H2105 H 0.47743 0.33641 0.04312 0.0
H2106 H 0.42983 0.31424 0.97606 0.0
H2107 H 0.48563 0.32771 0.00365 0.0
H2108 H 0.39554 0.37546 0.04304 0.0
H2109 H 0.36819 0.31674 0.01299 0.0
H2110 H 0.43893 0.25409 0.10199 0.0
H2111 H 0.4324 0.2586 0.02569 0.0
C2112 C 0.4207 0.07562 0.26352 0.0
C2113 C 0.42482 0.09307 0.27605 0.0
C2114 C 0.42695 0.10986 0.23807 0.0
C2115 C 0.42486 0.09312 0.22552 0.0
N2116 N 0.42106 0.06055 0.22551 0.0
N2117 N 0.43342 0.12734 0.27595 0.0
C2118 C 0.42196 0.07605 0.23802 0.0
C2119 C 0.42826 0.11032 0.26351 0.0
N2120 N 0.41534 0.05862 0.27605 0.0
N2121 N 0.4274 0.12517 0.2256 0.0
H2122 H 0.43387 0.1281 0.29466 0.0
H2123 H 0.43847 0.14103 0.26784 0.0
H2124 H 0.42692 0.12553 0.2069 0.0
H2125 H 0.42674 0.13683 0.23368 0.0
H2126 H 0.41018 0.04487 0.26803 0.0
H2127 H 0.4147 0.05794 0.29476 0.0
H2128 H 0.42122 0.04861 0.23355 0.0
H2129 H 0.42132 0.06014 0.2068 0.0
C2130 C 0.3229 0.44145 0.73539 0.0
C2131 C 0.32265 0.42542 0.72311 0.0
C2132 C 0.3206 0.40908 0.76141 0.0
C2133 C 0.32292 0.42603 0.77366 0.0
N2134 N 0.32906 0.45952 0.77271 0.0
N2135 N 0.32358 0.39504 0.72388 0.0
C2136 C 0.32478 0.44254 0.76076 0.0
C2137 C 0.32207 0.40946 0.73596 0.0
N2138 N 0.32085 0.45535 0.7228 0.0
N2139 N 0.31652 0.39249 0.77411 0.0
H2140 H 0.32441 0.3947 0.70521 0.0
H2141 H 0.32547 0.38422 0.73235 0.0
H2142 H 0.31551 0.39177 0.7928 0.0
H2143 H 0.31259 0.37896 0.76613 0.0
H2144 H 0.31877 0.46618 0.73092 0.0
H2145 H 0.3195 0.45508 0.70415 0.0
H2146 H 0.33282 0.47277 0.76409 0.0
H2147 H 0.33042 0.46089 0.79134 0.0
C2148 C 0.88838 0.32206 0.23596 0.0
C2149 C 0.90648 0.33354 0.22355 0.0
C2150 C 0.92434 0.34437 0.26179 0.0
C2151 C 0.90602 0.33432 0.27411 0.0
N2152 N 0.87043 0.31484 0.27359 0.0
N2153 N 0.94149 0.35659 0.2238 0.0
C2154 C 0.88798 0.3234 0.26137 0.0
C2155 C 0.92445 0.34491 0.23624 0.0
N2156 N 0.87162 0.30967 0.22341 0.0
N2157 N 0.94158 0.35315 0.2746 0.0
H2158 H 0.94221 0.35675 0.20509 0.0
H2159 H 0.9547 0.36694 0.2318 0.0
H2160 H 0.94197 0.35345 0.29333 0.0
H2161 H 0.95552 0.359 0.26688 0.0
H2162 H 0.85847 0.29922 0.23142 0.0
H2163 H 0.87114 0.30879 0.20471 0.0
H2164 H 0.85668 0.30879 0.26531 0.0
H2165 H 0.86954 0.31478 0.29228 0.0
C2166 C 0.56539 0.88498 0.73514 0.0
C2167 C 0.57879 0.9026 0.72295 0.0
C2168 C 0.59235 0.9192 0.76136 0.0
C2169 C 0.57756 0.90227 0.77346 0.0
N2170 N 0.54871 0.86971 0.77241 0.0
N2171 N 0.60401 0.93697 0.72368 0.0
C2172 C 0.56377 0.88527 0.76051 0.0
C2173 C 0.59209 0.91985 0.73584 0.0
N2174 N 0.55447 0.86788 0.72245 0.0
N2175 N 0.60677 0.93448 0.77431 0.0
H2176 H 0.60455 0.93782 0.70498 0.0
H2177 H 0.61244 0.95062 0.73199 0.0
H2178 H 0.60716 0.93455 0.79304 0.0
H2179 H 0.61914 0.94638 0.76663 0.0
H2180 H 0.54605 0.85408 0.73043 0.0
H2181 H 0.55502 0.86716 0.70379 0.0
H2182 H 0.53682 0.85794 0.76381 0.0
H2183 H 0.54729 0.86912 0.79106 0.0
C2184 C 0.66272 0.5838 0.25755 0.0
C2185 C 0.67065 0.57352 0.27005 0.0
C2186 C 0.68155 0.56615 0.23213 0.0
C2187 C 0.67194 0.57475 0.21954 0.0
N2188 N 0.65221 0.59056 0.21942 0.0
N2189 N 0.6863 0.55362 0.2699 0.0
C2190 C 0.66228 0.58336 0.23202 0.0
C2191 C 0.67982 0.56442 0.25752 0.0
N2192 N 0.65583 0.59414 0.27016 0.0
N2193 N 0.69255 0.5599 0.21976 0.0
H2194 H 0.68599 0.55264 0.28859 0.0
H2195 H 0.69092 0.54463 0.26174 0.0
H2196 H 0.69374 0.56046 0.20108 0.0
H2197 H 0.70168 0.55547 0.22793 0.0
H2198 H 0.65174 0.60364 0.26227 0.0
H2199 H 0.65548 0.59434 0.28888 0.0
H2200 H 0.64297 0.59498 0.22731 0.0
H2201 H 0.65213 0.59107 0.2007 0.0
C2202 C 0.11183 0.68504 0.7347 0.0
C2203 C 0.09429 0.67144 0.72247 0.0
C2204 C 0.07714 0.6588 0.76084 0.0
C2205 C 0.09517 0.6711 0.77299 0.0
N2206 N 0.12994 0.6952 0.7723 0.0
N2207 N 0.06053 0.64478 0.72301 0.0
C2208 C 0.11257 0.68414 0.76014 0.0
C2209 C 0.07695 0.65823 0.73531 0.0
N2210 N 0.12769 0.6989 0.72192 0.0
N2211 N 0.06021 0.64783 0.77381 0.0
H2212 H 0.05959 0.64455 0.70432 0.0
H2213 H 0.04814 0.6332 0.73109 0.0
H2214 H 0.05996 0.64743 0.79253 0.0
H2215 H 0.04618 0.64009 0.76625 0.0
H2216 H 0.14013 0.71063 0.72971 0.0
H2217 H 0.12797 0.69953 0.70321 0.0
H2218 H 0.14366 0.70318 0.76402 0.0
H2219 H 0.13088 0.69563 0.79099 0.0
C2220 C 0.91861 0.5802 0.23735 0.0
C2221 C 0.90036 0.57052 0.22483 0.0
C2222 C 0.88208 0.56198 0.26285 0.0
C2223 C 0.90033 0.57048 0.2754 0.0
N2224 N 0.9359 0.58687 0.2755 0.0
N2225 N 0.86476 0.55146 0.22473 0.0
C2226 C 0.91861 0.57946 0.26288 0.0
C2227 C 0.88208 0.56129 0.23734 0.0
N2228 N 0.93589 0.59027 0.22473 0.0
N2229 N 0.86476 0.55473 0.2754 0.0
H2230 H 0.8641 0.55156 0.20603 0.0
H2231 H 0.85104 0.54238 0.23253 0.0
H2232 H 0.86403 0.55395 0.29409 0.0
H2233 H 0.85112 0.55041 0.26756 0.0
H2234 H 0.94959 0.59939 0.23255 0.0
H2235 H 0.93648 0.59046 0.20602 0.0
H2236 H 0.94964 0.59159 0.26769 0.0
H2237 H 0.93651 0.58749 0.2942 0.0
C2238 C 0.3234 0.88701 0.7629 0.0
C2239 C 0.32405 0.90334 0.77494 0.0
C2240 C 0.32413 0.91856 0.73638 0.0
C2241 C 0.32485 0.90291 0.7244 0.0
N2242 N 0.32664 0.87298 0.72548 0.0
N2243 N 0.32644 0.9353 0.77403 0.0
C2244 C 0.32481 0.88728 0.73746 0.0
C2245 C 0.32476 0.9193 0.76191 0.0
N2246 N 0.32118 0.87113 0.77586 0.0
N2247 N 0.32253 0.9325 0.72325 0.0
H2248 H 0.32608 0.93595 0.79272 0.0
H2249 H 0.32924 0.94841 0.7658 0.0
H2250 H 0.32262 0.9327 0.70453 0.0
H2251 H 0.31988 0.94317 0.73069 0.0
H2252 H 0.31819 0.85776 0.76823 0.0
H2253 H 0.32118 0.87079 0.79457 0.0
H2254 H 0.32918 0.86256 0.73386 0.0
H2255 H 0.32674 0.87211 0.7068 0.0
C2256 C 0.4316 0.318 0.26029 0.0
C2257 C 0.42445 0.32891 0.27292 0.0
C2258 C 0.4144 0.33736 0.23509 0.0
C2259 C 0.42335 0.32814 0.22242 0.0
N2260 N 0.44191 0.31106 0.22219 0.0
N2261 N 0.41029 0.35013 0.27309 0.0
C2262 C 0.43225 0.31871 0.23481 0.0
C2263 C 0.41607 0.33884 0.26053 0.0
N2264 N 0.43751 0.30673 0.27271 0.0
N2265 N 0.40412 0.34446 0.22275 0.0
H2266 H 0.41073 0.35103 0.29179 0.0
H2267 H 0.40615 0.35954 0.26507 0.0
H2268 H 0.40296 0.34394 0.20407 0.0
H2269 H 0.39554 0.34956 0.23094 0.0
H2270 H 0.44082 0.29673 0.26462 0.0
H2271 H 0.43774 0.30625 0.29141 0.0
H2272 H 0.45076 0.30618 0.23013 0.0
H2273 H 0.44213 0.31068 0.20348 0.0
C2274 C 0.08886 0.40682 0.73945 0.0
C2275 C 0.09836 0.42467 0.72611 0.0
C2276 C 0.1089 0.44405 0.7633 0.0
C2277 C 0.09844 0.42626 0.77664 0.0
N2278 N 0.07719 0.39092 0.77825 0.0
N2279 N 0.1161 0.4603 0.72446 0.0
C2280 C 0.08806 0.40767 0.76494 0.0
C2281 C 0.10805 0.44331 0.73781 0.0
N2282 N 0.08094 0.3891 0.7277 0.0
N2283 N 0.11993 0.46162 0.77509 0.0
H2284 H 0.11672 0.46042 0.70575 0.0
H2285 H 0.12126 0.47431 0.73168 0.0
H2286 H 0.12012 0.46294 0.79373 0.0
H2287 H 0.12981 0.47479 0.76665 0.0
H2288 H 0.07564 0.37554 0.73626 0.0
H2289 H 0.08069 0.38795 0.70903 0.0
H2290 H 0.06754 0.37715 0.77092 0.0
H2291 H 0.07693 0.39092 0.79697 0.0
C2292 C 0.66906 0.10985 0.26368 0.0
C2293 C 0.67463 0.09753 0.27608 0.0
C2294 C 0.68146 0.08647 0.23793 0.0
C2295 C 0.67465 0.09779 0.22554 0.0
N2296 N 0.65974 0.11838 0.22591 0.0
N2297 N 0.68411 0.07254 0.27581 0.0
C2298 C 0.66783 0.10898 0.23823 0.0
C2299 C 0.68028 0.08538 0.26342 0.0
N2300 N 0.66537 0.12271 0.27626 0.0
N2301 N 0.68944 0.07714 0.22527 0.0
H2302 H 0.68394 0.0718 0.29452 0.0
H2303 H 0.68622 0.06174 0.26768 0.0
H2304 H 0.69007 0.07724 0.20656 0.0
H2305 H 0.69662 0.07039 0.23319 0.0
H2306 H 0.66356 0.13375 0.26827 0.0
H2307 H 0.66543 0.12332 0.29497 0.0
H2308 H 0.65237 0.12482 0.23411 0.0
H2309 H 0.65914 0.11862 0.20721 0.0
C2310 C 0.58895 0.67277 0.73878 0.0
C2311 C 0.57489 0.67557 0.72582 0.0
C2312 C 0.55967 0.67716 0.7635 0.0
C2313 C 0.57484 0.67628 0.77649 0.0
N2314 N 0.6063 0.67747 0.77641 0.0
N2315 N 0.55004 0.68531 0.72587 0.0
C2316 C 0.59023 0.67536 0.7641 0.0
C2317 C 0.56122 0.67928 0.7382 0.0
N2318 N 0.60047 0.66682 0.72712 0.0
N2319 N 0.5433 0.67502 0.77512 0.0
H2320 H 0.55111 0.68753 0.70733 0.0
H2321 H 0.54125 0.69007 0.73431 0.0
H2322 H 0.54117 0.67272 0.79358 0.0
H2323 H 0.53093 0.67352 0.76612 0.0
H2324 H 0.60945 0.66255 0.73604 0.0
H2325 H 0.59975 0.66443 0.70863 0.0
H2326 H 0.61885 0.67888 0.76799 0.0
H2327 H 0.6079 0.67972 0.79493 0.0
C2328 C 0.4185 0.19934 0.06077 0.0
C2329 C 0.43698 0.19999 0.06131 0.0
C2330 C 0.45461 0.23618 0.05968 0.0
C2331 C 0.43614 0.23553 0.05994 0.0
N2332 N 0.40065 0.21726 0.0566 0.0
N2333 N 0.47245 0.21816 0.05737 0.0
C2334 C 0.4181 0.2173 0.05908 0.0
C2335 C 0.45501 0.21818 0.05939 0.0
N2336 N 0.40139 0.18153 0.06264 0.0
N2337 N 0.47172 0.25405 0.0606 0.0
H2338 H 0.47338 0.20531 0.05815 0.0
H2339 H 0.48595 0.23063 0.05349 0.0
H2340 H 0.47199 0.26752 0.05957 0.0
H2341 H 0.48566 0.25576 0.06331 0.0
H2342 H 0.3875 0.17996 0.06526 0.0
H2343 H 0.40112 0.16804 0.06247 0.0
H2344 H 0.38707 0.20462 0.05358 0.0
H2345 H 0.39982 0.23016 0.05603 0.0
C2346 C 0.20478 0.42648 0.57872 0.0
C2347 C 0.19969 0.43497 0.5595 0.0
C2348 C 0.22928 0.4409 0.53741 0.0
C2349 C 0.23543 0.4345 0.55779 0.0
N2350 N 0.23059 0.42362 0.5991 0.0
N2351 N 0.20728 0.45161 0.52126 0.0
C2352 C 0.22355 0.42782 0.57877 0.0
C2353 C 0.21194 0.44246 0.53892 0.0
N2354 N 0.19151 0.41684 0.59677 0.0
N2355 N 0.23988 0.44516 0.51656 0.0
H2356 H 0.19442 0.45254 0.52157 0.0
H2357 H 0.21666 0.45932 0.50708 0.0
H2358 H 0.25275 0.44432 0.51503 0.0
H2359 H 0.2352 0.44805 0.50034 0.0
H2360 H 0.19348 0.40847 0.60986 0.0
H2361 H 0.17766 0.41575 0.59753 0.0
H2362 H 0.22365 0.42101 0.61574 0.0
H2363 H 0.24423 0.42424 0.59994 0.0
C2364 C 0.7992 0.21952 0.07589 0.0
C2365 C 0.80237 0.23426 0.05875 0.0
C2366 C 0.76966 0.21292 0.04132 0.0
C2367 C 0.76649 0.19823 0.0585 0.0
N2368 N 0.77932 0.18537 0.0885 0.0
N2369 N 0.79297 0.24397 0.02231 0.0
C2370 C 0.78168 0.20083 0.07457 0.0
C2371 C 0.78832 0.23059 0.04048 0.0
N2372 N 0.81246 0.22375 0.09414 0.0
N2373 N 0.75458 0.21022 0.02644 0.0
H2374 H 0.80653 0.25709 0.02136 0.0
H2375 H 0.78417 0.24146 0.00722 0.0
H2376 H 0.74099 0.19712 0.02601 0.0
H2377 H 0.75509 0.22122 0.01541 0.0
H2378 H 0.80983 0.21455 0.10886 0.0
H2379 H 0.82571 0.23713 0.09547 0.0
H2380 H 0.79061 0.18564 0.0987 0.0
H2381 H 0.76648 0.17157 0.08836 0.0
C2382 C 0.57394 0.776 0.54793 0.0
C2383 C 0.55952 0.76013 0.56185 0.0
C2384 C 0.54455 0.78 0.57324 0.0
C2385 C 0.56036 0.79655 0.56175 0.0
N2386 N 0.59081 0.81115 0.53933 0.0
N2387 N 0.53204 0.74707 0.58943 0.0
C2388 C 0.5752 0.79476 0.54924 0.0
C2389 C 0.54495 0.76207 0.57481 0.0
N2390 N 0.58619 0.77296 0.53323 0.0
N2391 N 0.52908 0.78144 0.58242 0.0
H2392 H 0.53158 0.73353 0.5907 0.0
H2393 H 0.52265 0.74843 0.60156 0.0
H2394 H 0.52847 0.79447 0.58186 0.0
H2395 H 0.51613 0.76941 0.58881 0.0
H2396 H 0.59572 0.7833 0.52082 0.0
H2397 H 0.58571 0.7594 0.53204 0.0
H2398 H 0.6033 0.81138 0.53243 0.0
H2399 H 0.59184 0.82499 0.53925 0.0
C2400 C 0.77363 0.56427 0.0409 0.0
C2401 C 0.76339 0.56285 0.06249 0.0
C2402 C 0.78829 0.55986 0.08584 0.0
C2403 C 0.79933 0.56279 0.06451 0.0
N2404 N 0.8042 0.57019 0.02222 0.0
N2405 N 0.76218 0.56249 0.10581 0.0
C2406 C 0.79247 0.56567 0.04212 0.0
C2407 C 0.77106 0.56155 0.08507 0.0
N2408 N 0.76508 0.56374 0.01929 0.0
N2409 N 0.79397 0.55487 0.1067 0.0
H2410 H 0.74939 0.56355 0.10604 0.0
H2411 H 0.76831 0.56386 0.12278 0.0
H2412 H 0.80669 0.55375 0.1081 0.0
H2413 H 0.78532 0.55028 0.12215 0.0
H2414 H 0.77075 0.56258 0.00285 0.0
H2415 H 0.75144 0.56305 0.01782 0.0
H2416 H 0.80104 0.57452 0.00592 0.0
H2417 H 0.81794 0.57099 0.02244 0.0
C2418 C 0.22272 0.79522 0.54802 0.0
C2419 C 0.23873 0.79626 0.56121 0.0
C2420 C 0.21895 0.76113 0.57137 0.0
C2421 C 0.20228 0.76076 0.56074 0.0
N2422 N 0.18749 0.77713 0.53981 0.0
N2423 N 0.25236 0.781 0.58654 0.0
C2424 C 0.20397 0.77768 0.54909 0.0
C2425 C 0.237 0.77936 0.57299 0.0
N2426 N 0.22558 0.81097 0.53433 0.0
N2427 N 0.21749 0.74399 0.57975 0.0
H2428 H 0.26603 0.79396 0.58757 0.0
H2429 H 0.25129 0.76994 0.59793 0.0
H2430 H 0.20436 0.73044 0.5793 0.0
H2431 H 0.22953 0.74279 0.58547 0.0
H2432 H 0.21512 0.81058 0.52244 0.0
H2433 H 0.23912 0.82411 0.53342 0.0
H2434 H 0.18718 0.78954 0.53361 0.0
H2435 H 0.17366 0.76431 0.53951 0.0
C2436 C 0.79921 0.58639 0.43672 0.0
C2437 C 0.79898 0.56828 0.44009 0.0
C2438 C 0.7629 0.55033 0.44279 0.0
C2439 C 0.7631 0.5684 0.43917 0.0
N2440 N 0.7809 0.60396 0.43797 0.0
N2441 N 0.78165 0.53401 0.45175 0.0
C2442 C 0.78114 0.58658 0.43791 0.0
C2443 C 0.78111 0.55056 0.44497 0.0
N2444 N 0.81657 0.60317 0.43138 0.0
N2445 N 0.74532 0.53289 0.44302 0.0
H2446 H 0.7948 0.53369 0.45326 0.0
H2447 H 0.76936 0.52113 0.45783 0.0
H2448 H 0.73164 0.53217 0.44216 0.0
H2449 H 0.74422 0.51906 0.44263 0.0
H2450 H 0.81746 0.61633 0.42591 0.0
H2451 H 0.83017 0.60368 0.43115 0.0
H2452 H 0.79355 0.6178 0.43935 0.0
H2453 H 0.76783 0.6045 0.43861 0.0
C2454 C 0.21619 0.76298 0.93624 0.0
C2455 C 0.19794 0.76227 0.9405 0.0
C2456 C 0.21497 0.79823 0.94508 0.0
C2457 C 0.23321 0.79891 0.94093 0.0
N2458 N 0.25196 0.78214 0.93841 0.0
N2459 N 0.18007 0.77807 0.95438 0.0
C2460 C 0.23405 0.78129 0.93847 0.0
C2461 C 0.19739 0.77958 0.94673 0.0
N2462 N 0.2164 0.7464 0.92886 0.0
N2463 N 0.21437 0.8154 0.94631 0.0
H2464 H 0.16695 0.76456 0.95572 0.0
H2465 H 0.17903 0.78988 0.96136 0.0
H2466 H 0.22701 0.82934 0.9457 0.0
H2467 H 0.2013 0.8159 0.94646 0.0
H2468 H 0.22902 0.74651 0.92262 0.0
H2469 H 0.20367 0.7326 0.92742 0.0
H2470 H 0.25354 0.76969 0.93903 0.0
H2471 H 0.26533 0.7954 0.93994 0.0
C2472 C 0.42572 0.20455 0.44765 0.0
C2473 C 0.44026 0.20307 0.43404 0.0
C2474 C 0.45586 0.2381 0.4233 0.0
C2475 C 0.43998 0.23894 0.43448 0.0
N2476 N 0.40931 0.22326 0.45645 0.0
N2477 N 0.46841 0.21759 0.40749 0.0
C2478 C 0.42482 0.22227 0.44659 0.0
C2479 C 0.45526 0.21968 0.42165 0.0
N2480 N 0.413 0.18908 0.46182 0.0
N2481 N 0.47155 0.25498 0.41442 0.0
H2482 H 0.46877 0.20446 0.40636 0.0
H2483 H 0.47815 0.2284 0.39568 0.0
H2484 H 0.47228 0.26866 0.41486 0.0
H2485 H 0.48455 0.25583 0.40833 0.0
H2486 H 0.40329 0.18981 0.47402 0.0
H2487 H 0.41319 0.17583 0.46278 0.0
H2488 H 0.39661 0.21106 0.46304 0.0
H2489 H 0.40865 0.23627 0.45691 0.0
C2490 C 0.22945 0.44457 0.95916 0.0
C2491 C 0.2327 0.43313 0.94193 0.0
C2492 C 0.19979 0.42119 0.92492 0.0
C2493 C 0.19653 0.43269 0.94207 0.0
N2494 N 0.20597 0.45198 0.97837 0.0
N2495 N 0.21997 0.40734 0.91207 0.0
C2496 C 0.21067 0.4433 0.96018 0.0
C2497 C 0.21748 0.42033 0.92604 0.0
N2498 N 0.24455 0.45711 0.9739 0.0
N2499 N 0.18642 0.41192 0.90684 0.0
H2500 H 0.23295 0.40662 0.91202 0.0
H2501 H 0.20869 0.39616 0.90202 0.0
H2502 H 0.17303 0.41178 0.90567 0.0
H2503 H 0.18907 0.4054 0.89208 0.0
H2504 H 0.24394 0.46753 0.98497 0.0
H2505 H 0.25824 0.45781 0.97419 0.0
H2506 H 0.21486 0.45845 0.99335 0.0
H2507 H 0.19232 0.45133 0.97943 0.0
C2508 C 0.76684 0.21951 0.44775 0.0
C2509 C 0.76665 0.20181 0.44166 0.0
C2510 C 0.80274 0.2198 0.43835 0.0
C2511 C 0.80258 0.23777 0.44087 0.0
N2512 N 0.78497 0.25537 0.44747 0.0
N2513 N 0.78383 0.18453 0.43072 0.0
C2514 C 0.78479 0.23781 0.44578 0.0
C2515 C 0.78448 0.20174 0.43716 0.0
N2516 N 0.74984 0.21872 0.45543 0.0
N2517 N 0.82037 0.2201 0.43719 0.0
H2518 H 0.77078 0.17089 0.43054 0.0
H2519 H 0.79598 0.18381 0.42435 0.0
H2520 H 0.83398 0.23318 0.43774 0.0
H2521 H 0.82163 0.20746 0.43764 0.0
H2522 H 0.74928 0.2308 0.46233 0.0
H2523 H 0.73642 0.20549 0.45678 0.0
H2524 H 0.77226 0.2565 0.44815 0.0
H2525 H 0.79793 0.26906 0.44689 0.0
C2526 C 0.55215 0.76868 0.96051 0.0
C2527 C 0.56389 0.76545 0.94374 0.0
C2528 C 0.57754 0.79918 0.92849 0.0
C2529 C 0.5637 0.80133 0.94273 0.0
N2530 N 0.53752 0.78853 0.97202 0.0
N2531 N 0.5869 0.7768 0.91061 0.0
C2532 C 0.55105 0.78627 0.95891 0.0
C2533 C 0.57658 0.78057 0.92761 0.0
N2534 N 0.54225 0.75496 0.97802 0.0
N2535 N 0.59162 0.81499 0.91587 0.0
H2536 H 0.5869 0.76347 0.90956 0.0
H2537 H 0.59446 0.78634 0.89648 0.0
H2538 H 0.59252 0.82877 0.9158 0.0
H2539 H 0.60341 0.81501 0.90715 0.0
H2540 H 0.53485 0.75714 0.99217 0.0
H2541 H 0.54278 0.74192 0.97951 0.0
H2542 H 0.52632 0.77727 0.98206 0.0
H2543 H 0.53685 0.80154 0.97189 0.0
C2544 C 0.3434 0.98781 0.00198 0.0
C2545 C 0.35326 0.98722 0.9809 0.0
C2546 C 0.38078 0.02041 0.98903 0.0
C2547 C 0.37094 0.02104 0.01014 0.0
N2548 N 0.34137 0.00777 0.03407 0.0
N2549 N 0.37852 0.00422 0.95106 0.0
C2550 C 0.35169 0.00549 0.01573 0.0
C2551 C 0.37104 0.00401 0.97332 0.0
N2552 N 0.3266 0.97122 0.00934 0.0
N2553 N 0.39982 0.03493 0.98467 0.0
H2554 H 0.3717 0.99235 0.93917 0.0
H2555 H 0.39037 0.01671 0.9435 0.0
H2556 H 0.40748 0.04734 0.99558 0.0
H2557 H 0.40858 0.03406 0.97118 0.0
H2558 H 0.31997 0.96994 0.02596 0.0
H2559 H 0.31983 0.95821 0.99931 0.0
H2560 H 0.32658 0.99778 0.03771 0.0
H2561 H 0.34715 0.0206 0.04444 0.0
C2562 C 0.35389 0.34296 0.49292 0.0
C2563 C 0.37431 0.35486 0.48771 0.0
C2564 C 0.37596 0.38217 0.51099 0.0
C2565 C 0.35583 0.36991 0.51743 0.0
N2566 N 0.3262 0.33802 0.51771 0.0
N2567 N 0.40576 0.38417 0.49515 0.0
C2568 C 0.34493 0.35008 0.50932 0.0
C2569 C 0.38565 0.37399 0.49779 0.0
N2570 N 0.34304 0.32514 0.48167 0.0
N2571 N 0.38561 0.40185 0.51671 0.0
H2572 H 0.41344 0.37878 0.48534 0.0
H2573 H 0.41503 0.39718 0.50433 0.0
H2574 H 0.37911 0.40848 0.52649 0.0
H2575 H 0.39953 0.41199 0.51011 0.0
H2576 H 0.32771 0.31668 0.48264 0.0
H2577 H 0.34929 0.31933 0.47 0.0
H2578 H 0.31815 0.32289 0.51445 0.0
H2579 H 0.31916 0.34293 0.52946 0.0
C2580 C 0.996 0.36327 0.97251 0.0
C2581 C 0.01481 0.36963 0.98291 0.0
C2582 C -0.00047 0.35658 0.02211 0.0
C2583 C 0.98113 0.35262 0.01241 0.0
N2584 N 0.96091 0.35072 0.97875 0.0
N2585 N 0.03506 0.37179 0.01665 0.0
C2586 C 0.97905 0.35525 0.98758 0.0
C2587 C 0.0167 0.36583 0.0074 0.0
N2588 N 0.9945 0.36514 0.94828 0.0
N2589 N 0.00049 0.35158 0.04542 0.0
H2590 H 0.04775 0.37761 0.00602 0.0
H2591 H 0.03802 0.37162 0.03482 0.0
H2592 H 0.98825 0.34527 0.05679 0.0
H2593 H 0.01299 0.35245 0.05324 0.0
H2594 H 0.9812 0.35938 0.93902 0.0
H2595 H 0.00671 0.37157 0.93688 0.0
H2596 H 0.95847 0.35423 0.96156 0.0
H2597 H 0.94803 0.34377 0.98903 0.0
C2598 C 0.6572 0.01659 0.5052 0.0
C2599 C 0.65099 0.0158 0.4811 0.0
C2600 C 0.62801 0.98025 0.48452 0.0
C2601 C 0.63352 0.98122 0.50897 0.0
N2602 N 0.65598 0.99858 0.54135 0.0
N2603 N 0.63408 0.99688 0.44599 0.0
C2604 C 0.6491 0.99887 0.51887 0.0
C2605 C 0.63762 0.99754 0.47013 0.0
N2606 N 0.6702 0.03444 0.51521 0.0
N2607 N 0.61294 0.96296 0.4755 0.0
H2608 H 0.6406 0.00941 0.43509 0.0
H2609 H 0.6259 0.98386 0.43635 0.0
H2610 H 0.60623 0.9498 0.48525 0.0
H2611 H 0.60646 0.96172 0.45879 0.0
H2612 H 0.67363 0.03654 0.53341 0.0
H2613 H 0.67706 0.04754 0.50533 0.0
H2614 H 0.6684 0.01044 0.54897 0.0
H2615 H 0.65007 0.98582 0.55186 0.0
C2616 C 0.64592 0.64534 0.01733 0.0
C2617 C 0.64783 0.62979 0.00704 0.0
C2618 C 0.63503 0.634 0.96868 0.0
C2619 C 0.63045 0.64746 0.98003 0.0
N2620 N 0.63156 0.66659 0.01451 0.0
N2621 N 0.64483 0.60918 0.97329 0.0
C2622 C 0.63618 0.65355 0.00411 0.0
C2623 C 0.64286 0.62429 0.98266 0.0
N2624 N 0.6534 0.65213 0.03973 0.0
N2625 N 0.63176 0.63047 0.94459 0.0
H2626 H 0.65138 0.6024 0.9827 0.0
H2627 H 0.63929 0.60272 0.95666 0.0
H2628 H 0.62558 0.63698 0.93397 0.0
H2629 H 0.63643 0.62228 0.93465 0.0
H2630 H 0.65411 0.66455 0.04758 0.0
H2631 H 0.66035 0.64615 0.04993 0.0
H2632 H 0.63313 0.66994 0.03273 0.0
H2633 H 0.62528 0.67357 0.00495 0.0
C2634 C 0.00479 0.65349 0.50705 0.0
C2635 C 0.01567 0.64378 0.51168 0.0
C2636 C 0.99194 0.61494 0.48856 0.0
C2637 C 0.9815 0.62497 0.48306 0.0
N2638 N 0.9788 0.65436 0.48402 0.0
N2639 N 0.02168 0.61676 0.50446 0.0
C2640 C 0.98818 0.64446 0.4914 0.0
C2641 C 0.00985 0.62493 0.50171 0.0
N2642 N 0.01008 0.67107 0.51813 0.0
N2643 N 0.9844 0.59565 0.48175 0.0
H2644 H 0.03462 0.62327 0.51464 0.0
H2645 H 0.01953 0.60421 0.49534 0.0
H2646 H 0.97171 0.588 0.47128 0.0
H2647 H 0.9899 0.5867 0.48769 0.0
H2648 H 0.00164 0.67797 0.51765 0.0
H2649 H 0.0225 0.6783 0.52915 0.0
H2650 H 0.98404 0.66926 0.4874 0.0
H2651 H 0.96631 0.64794 0.47305 0.0
C2652 C 0.64262 0.99728 0.98007 0.0
C2653 C 0.62522 0.98022 0.98803 0.0
C2654 C 0.62706 0.99599 0.02673 0.0
C2655 C 0.64308 0.01381 0.01771 0.0
N2656 N 0.66659 0.03197 0.98648 0.0
N2657 N 0.6006 0.96262 0.0184 0.0
C2658 C 0.65115 0.01455 0.99463 0.0
C2659 C 0.61751 0.97929 0.01136 0.0
N2660 N 0.65093 0.99685 0.95862 0.0
N2661 N 0.621 0.99513 0.04997 0.0
H2662 H 0.59384 0.94972 0.00814 0.0
H2663 H 0.5927 0.96164 0.03385 0.0
H2664 H 0.62708 0.00729 0.06144 0.0
H2665 H 0.61083 0.98217 0.05857 0.0
H2666 H 0.66457 0.00804 0.9526 0.0
H2667 H 0.64473 0.98457 0.9473 0.0
H2668 H 0.67178 0.03435 0.96891 0.0
H2669 H 0.6739 0.04456 0.99721 0.0
C2670 C 0.65091 0.64394 0.48662 0.0
C2671 C 0.63894 0.62356 0.4811 0.0
C2672 C 0.6121 0.62175 0.50552 0.0
C2673 C 0.6247 0.64154 0.513 0.0
N2674 N 0.65684 0.6709 0.51337 0.0
N2675 N 0.60981 0.59206 0.4891 0.0
C2676 C 0.64435 0.65253 0.50429 0.0
C2677 C 0.61999 0.61217 0.49162 0.0
N2678 N 0.66822 0.65514 0.4745 0.0
N2679 N 0.5924 0.6123 0.51103 0.0
H2680 H 0.61516 0.58433 0.47933 0.0
H2681 H 0.59693 0.58285 0.49858 0.0
H2682 H 0.58589 0.61883 0.521 0.0
H2683 H 0.58216 0.59867 0.50378 0.0
H2684 H 0.67661 0.67046 0.47592 0.0
H2685 H 0.67346 0.64928 0.4615 0.0
H2686 H 0.6719 0.67882 0.50963 0.0
H2687 H 0.65241 0.67765 0.52616 0.0
C2688 C 0.99032 0.64132 0.00521 0.0
C2689 C 0.98417 0.6227 0.01604 0.0
C2690 C 0.01259 0.62201 0.99877 0.0
C2691 C 0.01742 0.63943 0.98572 0.0
N2692 N 0.01023 0.66495 0.97443 0.0
N2693 N 0.98748 0.59372 0.02036 0.0
C2694 C 0.00616 0.64898 0.98843 0.0
C2695 C 0.99481 0.61262 0.01215 0.0
N2696 N 0.98127 0.65181 0.01139 0.0
N2697 N 0.02525 0.61468 0.99877 0.0
H2698 H 0.97443 0.58619 0.03021 0.0
H2699 H 0.9934 0.58484 0.01566 0.0
H2700 H 0.03847 0.62114 0.98913 0.0
H2701 H 0.02358 0.6033 0.01002 0.0
H2702 H 0.98631 0.66632 0.006 0.0
H2703 H 0.96956 0.64653 0.02355 0.0
H2704 H 0.00125 0.67127 0.97364 0.0
H2705 H 0.02196 0.67113 0.96228 0.0
C2706 C 0.35157 0.98205 0.49039 0.0
C2707 C 0.35546 0.98332 0.51539 0.0
C2708 C 0.37684 0.01918 0.51242 0.0
C2709 C 0.3727 0.01796 0.48747 0.0
N2710 N 0.35273 -0.0006 0.45375 0.0
N2711 N 0.36764 0.00302 0.55126 0.0
C2712 C 0.35891 -0.00028 0.4768 0.0
C2713 C 0.36674 0.00192 0.52675 0.0
N2714 N 0.3417 0.96398 0.47945 0.0
N2715 N 0.39116 0.03655 0.52217 0.0
H2716 H 0.36041 0.99059 0.56225 0.0
H2717 H 0.374 0.0163 0.5607 0.0
H2718 H 0.39883 0.04959 0.51233 0.0
H2719 H 0.39646 0.03776 0.5396 0.0
H2720 H 0.34045 0.96213 0.4609 0.0
H2721 H 0.33585 0.95068 0.48884 0.0
H2722 H 0.3413 0.98686 0.44569 0.0
H2723 H 0.35783 0.01216 0.44338 0.0
C2724 C 0.3784 0.3605 0.98661 0.0
C2725 C 0.36955 0.35231 0.00909 0.0
C2726 C 0.34382 0.36088 0.00197 0.0
C2727 C 0.35284 0.36932 0.97964 0.0
N2728 N 0.37603 0.37391 0.94828 0.0
N2729 N 0.34214 0.34098 0.03641 0.0
C2730 C 0.36924 0.36798 0.97114 0.0
C2731 C 0.35164 0.35127 0.01618 0.0
N2732 N 0.39605 0.36193 0.9806 0.0
N2733 N 0.3282 0.36264 0.00984 0.0
H2734 H 0.34768 0.33397 0.04726 0.0
H2735 H 0.32812 0.33805 0.04153 0.0
H2736 H 0.32151 0.36873 0.99934 0.0
H2737 H 0.32236 0.35896 0.02709 0.0
H2738 H 0.40458 0.36993 0.96597 0.0
H2739 H 0.40287 0.35597 0.99106 0.0
H2740 H 0.38656 0.37145 0.94004 0.0
H2741 H 0.37006 0.38004 0.93669 0.0
C2742 C 0.01294 0.36276 0.49765 0.0
C2743 C 0.01411 0.3742 0.51802 0.0
C2744 C 0.98207 0.37093 0.50817 0.0
C2745 C 0.98087 0.35944 0.48784 0.0
N2746 N 0.99281 0.34127 0.46525 0.0
N2747 N 0.99861 0.38614 0.54552 0.0
C2748 C 0.9956 0.35434 0.48323 0.0
C2749 C 0.99823 0.37725 0.52422 0.0
N2750 N 0.02867 0.36044 0.49181 0.0
N2751 N 0.96817 0.37648 0.51154 0.0
H2752 H 0.01046 0.39146 0.55742 0.0
H2753 H 0.98663 0.38691 0.55239 0.0
H2754 H 0.95575 0.37164 0.50061 0.0
H2755 H 0.96946 0.38684 0.52421 0.0
H2756 H 0.02983 0.3543 0.47575 0.0
H2757 H 0.04117 0.36557 0.50267 0.0
H2758 H 0.00201 0.3354 0.46231 0.0
H2759 H 0.98037 0.3351 0.45418 0.0
C2760 C 0.55815 0.13131 0.06795 0.0
C2761 C 0.54018 0.1138 0.07343 0.0
C2762 C 0.5579 0.09541 0.0762 0.0
C2763 C 0.57609 0.11337 0.07392 0.0
N2764 N 0.59384 0.14899 0.07132 0.0
N2765 N 0.52347 0.07997 0.08742 0.0
C2766 C 0.57633 0.13151 0.07072 0.0
C2767 C 0.54016 0.09602 0.07877 0.0
N2768 N 0.5578 0.14756 0.05952 0.0
N2769 N 0.55752 0.07773 0.07536 0.0
H2770 H 0.51026 0.07992 0.09033 0.0
H2771 H 0.52327 0.06738 0.09395 0.0
H2772 H 0.57021 0.07668 0.0731 0.0
H2773 H 0.54446 0.06416 0.07448 0.0
H2774 H 0.57028 0.16006 0.05297 0.0
H2775 H 0.54472 0.14785 0.05696 0.0
H2776 H 0.59472 0.16273 0.0717 0.0
H2777 H 0.60747 0.14978 0.07354 0.0
C2778 C 0.44605 0.56871 0.56401 0.0
C2779 C 0.46244 0.56961 0.57615 0.0
C2780 C 0.44311 0.53423 0.58517 0.0
C2781 C 0.42618 0.53381 0.57526 0.0
N2782 N 0.41061 0.55071 0.55746 0.0
N2783 N 0.47632 0.55418 0.60077 0.0
C2784 C 0.4274 0.55106 0.56518 0.0
C2785 C 0.46094 0.55261 0.58735 0.0
N2786 N 0.44847 0.5846 0.55096 0.0
N2787 N 0.44222 0.51699 0.59199 0.0
H2788 H 0.48975 0.56733 0.60253 0.0
H2789 H 0.47533 0.54288 0.61164 0.0
H2790 H 0.42934 0.50325 0.59083 0.0
H2791 H 0.45456 0.51601 0.59692 0.0
H2792 H 0.43768 0.58421 0.53963 0.0
H2793 H 0.4619 0.59784 0.54993 0.0
H2794 H 0.41012 0.5633 0.55246 0.0
H2795 H 0.39673 0.53795 0.55765 0.0
C2796 C 0.88714 0.43422 0.04661 0.0
C2797 C 0.87528 0.41939 0.06351 0.0
C2798 C 0.85597 0.43584 0.06989 0.0
C2799 C 0.87097 0.45277 0.05803 0.0
N2800 N 0.8874 0.45855 0.0199 0.0
N2801 N 0.84657 0.40464 0.08935 0.0
C2802 C 0.88295 0.44951 0.04175 0.0
C2803 C 0.85898 0.41964 0.07445 0.0
N2804 N 0.90272 0.43413 0.03563 0.0
N2805 N 0.83798 0.43424 0.07364 0.0
H2806 H 0.84763 0.392 0.0921 0.0
H2807 H 0.83588 0.40529 0.09988 0.0
H2808 H 0.83481 0.44491 0.06718 0.0
H2809 H 0.82575 0.42151 0.08021 0.0
H2810 H 0.91269 0.44576 0.02481 0.0
H2811 H 0.90653 0.4233 0.03881 0.0
H2812 H 0.89468 0.45533 0.00649 0.0
H2813 H 0.88113 0.46695 0.01423 0.0
C2814 C 0.44368 0.90225 0.58819 0.0
C2815 C 0.42665 0.88644 0.57738 0.0
C2816 C 0.44541 0.87007 0.56662 0.0
C2817 C 0.46262 0.88626 0.57658 0.0
N2818 N 0.47913 0.91869 0.59457 0.0
N2819 N 0.41125 0.85645 0.55407 0.0
C2820 C 0.46203 0.90264 0.5867 0.0
C2821 C 0.42751 0.87066 0.56593 0.0
N2822 N 0.44212 0.91663 0.60038 0.0
N2823 N 0.44618 0.854 0.55826 0.0
H2824 H 0.39771 0.85607 0.55391 0.0
H2825 H 0.41134 0.8457 0.54315 0.0
H2826 H 0.45923 0.85344 0.55752 0.0
H2827 H 0.43381 0.84076 0.55327 0.0
H2828 H 0.45325 0.92726 0.61112 0.0
H2829 H 0.42916 0.91736 0.60093 0.0
H2830 H 0.48026 0.93207 0.59948 0.0
H2831 H 0.4927 0.91915 0.59495 0.0
C2832 C 0.57557 0.44097 0.07029 0.0
C2833 C 0.57588 0.45922 0.0722 0.0
C2834 C 0.53968 0.44198 0.07194 0.0
C2835 C 0.5394 0.42368 0.0723 0.0
N2836 N 0.55653 0.40522 0.07372 0.0
N2837 N 0.55879 0.47754 0.07711 0.0
C2838 C 0.55721 0.42301 0.0719 0.0
C2839 C 0.55807 0.45987 0.07352 0.0
N2840 N 0.59282 0.44089 0.06649 0.0
N2841 N 0.52236 0.4422 0.06979 0.0
H2842 H 0.57197 0.49104 0.07772 0.0
H2843 H 0.54647 0.47883 0.08108 0.0
H2844 H 0.50854 0.42938 0.06933 0.0
H2845 H 0.52164 0.45497 0.0667 0.0
H2846 H 0.59349 0.42823 0.06243 0.0
H2847 H 0.60656 0.45379 0.06566 0.0
H2848 H 0.56893 0.40378 0.07634 0.0
H2849 H 0.54332 0.39173 0.07405 0.0
C2850 C 0.09404 0.53774 0.57899 0.0
C2851 C 0.11229 0.53806 0.57692 0.0
C2852 C 0.12946 0.57388 0.57061 0.0
C2853 C 0.11161 0.5738 0.57554 0.0
N2854 N 0.07758 0.55614 0.5886 0.0
N2855 N 0.14788 0.55664 0.57445 0.0
C2856 C 0.09404 0.55585 0.58085 0.0
C2857 C 0.13018 0.55619 0.57368 0.0
N2858 N 0.07665 0.52013 0.57848 0.0
N2859 N 0.14556 0.59072 0.56237 0.0
H2860 H 0.14903 0.54401 0.57684 0.0
H2861 H 0.16147 0.5697 0.5748 0.0
H2862 H 0.14554 0.60393 0.55975 0.0
H2863 H 0.15832 0.59113 0.5561 0.0
H2864 H 0.06286 0.51912 0.5774 0.0
H2865 H 0.07601 0.50652 0.57681 0.0
H2866 H 0.06508 0.5437 0.59522 0.0
H2867 H 0.07702 0.56912 0.59054 0.0
C2868 C 0.8727 0.44744 0.45618 0.0
C2869 C 0.86573 0.45288 0.43569 0.0
C2870 C 0.85008 0.41878 0.42144 0.0
C2871 C 0.8618 0.41522 0.43787 0.0
N2872 N 0.86788 0.41974 0.48034 0.0
N2873 N 0.846 0.4432 0.39949 0.0
C2874 C 0.86863 0.42766 0.4583 0.0
C2875 C 0.85357 0.43831 0.41869 0.0
N2876 N 0.88334 0.46107 0.47343 0.0
N2877 N 0.83425 0.4032 0.41076 0.0
H2878 H 0.848 0.45732 0.39701 0.0
H2879 H 0.83884 0.43352 0.38531 0.0
H2880 H 0.83019 0.38864 0.41504 0.0
H2881 H 0.82405 0.4047 0.40024 0.0
H2882 H 0.8904 0.45815 0.4874 0.0
H2883 H 0.88599 0.47555 0.47297 0.0
H2884 H 0.8711 0.42784 0.49623 0.0
H2885 H 0.86112 0.40446 0.48274 0.0
C2886 C 0.4574 0.903 0.92187 0.0
C2887 C 0.45681 0.88454 0.92189 0.0
C2888 C 0.42058 0.8669 0.92233 0.0
C2889 C 0.42119 0.88536 0.92292 0.0
N2890 N 0.4396 0.92087 0.92644 0.0
N2891 N 0.43856 0.84905 0.92529 0.0
C2892 C 0.43946 0.90339 0.92368 0.0
C2893 C 0.43858 0.8665 0.92311 0.0
N2894 N 0.47514 0.92011 0.91945 0.0
N2895 N 0.40277 0.84981 0.92044 0.0
H2896 H 0.45146 0.84818 0.92511 0.0
H2897 H 0.42598 0.83552 0.9288 0.0
H2898 H 0.38927 0.84951 0.92084 0.0
H2899 H 0.40124 0.83601 0.91717 0.0
H2900 H 0.47653 0.93388 0.91632 0.0
H2901 H 0.48868 0.92051 0.91925 0.0
H2902 H 0.45228 0.93433 0.92988 0.0
H2903 H 0.42677 0.92184 0.92683 0.0
C2904 C 0.56143 0.41892 0.4214 0.0
C2905 C 0.54554 0.41788 0.43492 0.0
C2906 C 0.569 0.44729 0.45714 0.0
C2907 C 0.5832 0.45143 0.43894 0.0
N2908 N 0.59702 0.43417 0.41825 0.0
N2909 N 0.53434 0.43035 0.46743 0.0
C2910 C 0.58076 0.4351 0.4252 0.0
C2911 C 0.54936 0.43174 0.45351 0.0
N2912 N 0.55802 0.4049 0.4045 0.0
N2913 N 0.57494 0.45564 0.47926 0.0
H2914 H 0.51976 0.4189 0.46569 0.0
H2915 H 0.53633 0.44133 0.47962 0.0
H2916 H 0.58992 0.46388 0.48366 0.0
H2917 H 0.56537 0.45186 0.49386 0.0
H2918 H 0.56877 0.40624 0.39235 0.0
H2919 H 0.54414 0.39249 0.40176 0.0
H2920 H 0.59628 0.42184 0.41002 0.0
H2921 H 0.61122 0.44499 0.42348 0.0
C2922 C 0.10882 0.54607 0.95228 0.0
C2923 C 0.12229 0.54367 0.93756 0.0
C2924 C 0.14227 0.57955 0.93355 0.0
C2925 C 0.12603 0.58116 0.94196 0.0
N2926 N 0.1039 0.56935 0.97567 0.0
N2927 N 0.1532 0.55843 0.9158 0.0
C2928 C 0.11209 0.56539 0.95637 0.0
C2929 C 0.13953 0.56051 0.92877 0.0
N2930 N 0.09255 0.52999 0.96156 0.0
N2931 N 0.16082 0.59559 0.93432 0.0
H2932 H 0.15213 0.54476 0.9127 0.0
H2933 H 0.16496 0.57027 0.90703 0.0
H2934 H 0.1635 0.60873 0.94252 0.0
H2935 H 0.1735 0.5949 0.93035 0.0
H2936 H 0.08128 0.531 0.97029 0.0
H2937 H 0.08966 0.51555 0.95909 0.0
H2938 H 0.09498 0.55868 0.98819 0.0
H2939 H 0.10818 0.58386 0.98054 0.0
C2940 C 0.55874 0.09762 0.41751 0.0
C2941 C 0.5763 0.1141 0.42626 0.0
C2942 C 0.55774 0.13049 0.43771 0.0
C2943 C 0.54064 0.1149 0.42677 0.0
N2944 N 0.5254 0.08515 0.40284 0.0
N2945 N 0.5934 0.1473 0.44196 0.0
C2946 C 0.54126 0.09884 0.41576 0.0
C2947 C 0.57605 0.13084 0.43568 0.0
N2948 N 0.55868 0.08063 0.41141 0.0
N2949 N 0.55632 0.14464 0.45055 0.0
H2950 H 0.60707 0.14799 0.441 0.0
H2951 H 0.59448 0.16075 0.4464 0.0
H2952 H 0.54315 0.14488 0.45229 0.0
H2953 H 0.56774 0.15521 0.46107 0.0
H2954 H 0.54586 0.06742 0.40743 0.0
H2955 H 0.57124 0.0792 0.41234 0.0
H2956 H 0.52579 0.07439 0.39219 0.0
H2957 H 0.5123 0.08551 0.40105 0.0
C2958 C 0.45815 0.5585 0.93459 0.0
C2959 C 0.45863 0.57561 0.92515 0.0
C2960 C 0.42339 0.55635 0.91528 0.0
C2961 C 0.42278 0.53939 0.92542 0.0
N2962 N 0.43825 0.5246 0.94822 0.0
N2963 N 0.44165 0.59199 0.91007 0.0
C2964 C 0.43978 0.54057 0.93619 0.0
C2965 C 0.44119 0.57488 0.91658 0.0
N2966 N 0.47538 0.55926 0.94121 0.0
N2967 N 0.4071 0.55457 0.90379 0.0
H2968 H 0.45454 0.60576 0.91042 0.0
H2969 H 0.4291 0.59286 0.90601 0.0
H2970 H 0.39361 0.54137 0.90321 0.0
H2971 H 0.40717 0.56577 0.89359 0.0
H2972 H 0.47642 0.54685 0.94555 0.0
H2973 H 0.48906 0.57226 0.94091 0.0
H2974 H 0.44952 0.52508 0.95867 0.0
H2975 H 0.42511 0.51109 0.94929 0.0
loop_
_geom_bond_atom_site_label_1
_geom_bond_atom_site_label_2
_geom_bond_distance
_geom_bond_site_symmetry_2
_ccdc_geom_bond_type
Li0 N17 1.990 . S
Li0 O60 1.956 . S
Li0 O61 1.970 . S
Li0 O62 1.961 . S
Li1 N25 1.990 . S
Li1 O60 1.970 . S
Li1 O61 1.956 . S
Li1 O63 1.961 . S
Li2 N47 1.990 . S
Li2 O60 1.961 . S
Li2 O62 1.956 . S
Li2 O63 1.970 . S
Li3 N53 1.990 . S
Li3 O61 1.961 . S
Li3 O62 1.970 . S
Li3 O63 1.956 . S
C4 C6 1.348 . S
C4 C7 1.356 . S
C4 O60 1.325 . S
N5 C8 1.314 . S
N5 C9 1.279 . S
C6 C4 1.348 . S
C6 C8 1.353 . S
C6 H64 0.929 . S
C7 C4 1.356 . S
C7 C9 1.358 . S
C7 H65 0.930 . S
C8 N5 1.314 . S
C8 C6 1.353 . S
C8 H66 0.930 . S
C9 N5 1.279 . S
C9 C7 1.358 . S
C9 H67 0.930 . S
C10 C13 1.348 . S
C10 C14 1.356 . S
C10 O61 1.325 . S
C11 N12 1.279 . S
C11 C14 1.358 . S
C11 H68 0.930 . S
N12 C11 1.279 . S
N12 C15 1.314 . S
C13 C10 1.348 . S
C13 C15 1.353 . S
C13 H69 0.929 . S
C14 C10 1.356 . S
C14 C11 1.358 . S
C14 H70 0.930 . S
C15 N12 1.314 . S
C15 C13 1.353 . S
C15 H71 0.930 . S
C16 N17 1.314 . S
C16 C21 1.353 . S
C16 H22 0.930 . S
N17 Li0 1.990 . S
N17 C16 1.314 . S
N17 C19 1.279 . S
C18 C19 1.358 . S
C18 C20 1.356 . S
C18 H72 0.930 . S
C19 N17 1.279 . S
C19 C18 1.358 . S
C19 H23 0.930 . S
C20 C18 1.356 . S
C20 C21 1.348 . S
C21 C16 1.353 . S
C21 C20 1.348 . S
C21 H73 0.929 . S
H22 C16 0.930 . S
H23 C19 0.930 . S
C24 N25 1.314 . S
C24 C26 1.353 . S
C24 H30 0.930 . S
N25 Li1 1.990 . S
N25 C24 1.314 . S
N25 C28 1.279 . S
C26 C24 1.353 . S
C26 C29 1.348 . S
C26 H74 0.929 . S
C27 C28 1.358 . S
C27 C29 1.356 . S
C27 H75 0.930 . S
C28 N25 1.279 . S
C28 C27 1.358 . S
C28 H31 0.930 . S
C29 C26 1.348 . S
C29 C27 1.356 . S
H30 C24 0.930 . S
H31 C28 0.930 . S
C32 C34 1.348 . S
C32 C35 1.356 . S
C32 O62 1.325 . S
N33 C36 1.314 . S
N33 C37 1.269 1_556 S
C34 C32 1.348 . S
C34 C36 1.353 1_554 S
C34 H76 0.929 . S
C35 C32 1.356 . S
C35 C37 1.372 . S
C35 H77 0.930 . S
C36 N33 1.314 . S
C36 C34 1.353 1_556 S
C36 H78 0.930 . S
C37 N33 1.269 1_554 S
C37 C35 1.372 . S
C37 H79 0.927 1_554 S
C38 C39 1.348 . S
C38 C40 1.356 . S
C38 O63 1.325 . S
C39 C38 1.348 . S
C39 C41 1.353 . S
C39 H80 0.929 . S
C40 C38 1.356 . S
C40 C42 1.358 . S
C40 H81 0.930 . S
C41 C39 1.353 . S
C41 N43 1.314 . S
C41 H82 0.930 . S
C42 C40 1.358 . S
C42 N43 1.279 . S
C42 H83 0.930 . S
N43 C41 1.314 . S
N43 C42 1.279 . S
C44 C46 1.353 . S
C44 N47 1.314 . S
C44 H50 0.930 . S
C45 N47 1.279 . S
C45 C48 1.358 . S
C45 H51 0.930 . S
C46 C44 1.353 . S
C46 C49 1.348 . S
C46 H84 0.929 . S
N47 Li2 1.990 . S
N47 C44 1.314 . S
N47 C45 1.279 . S
C48 C45 1.358 . S
C48 C49 1.356 . S
C48 H85 0.930 . S
C49 C46 1.348 . S
C49 C48 1.356 . S
H50 C44 0.930 . S
H51 C45 0.930 . S
C52 N53 1.314 . S
C52 C54 1.353 . S
C52 H58 0.930 . S
N53 Li3 1.990 . S
N53 C52 1.314 . S
N53 C56 1.279 . S
C54 C52 1.353 . S
C54 C57 1.348 . S
C54 H86 0.929 . S
C55 C56 1.358 . S
C55 C57 1.356 . S
C55 H87 0.930 . S
C56 N53 1.279 . S
C56 C55 1.358 . S
C56 H59 0.930 . S
C57 C54 1.348 . S
C57 C55 1.356 . S
H58 C52 0.930 . S
H59 C56 0.930 . S
O60 Li0 1.956 . S
O60 Li1 1.970 . S
O60 Li2 1.961 . S
O60 C4 1.325 . S
O61 Li0 1.970 . S
O61 Li1 1.956 . S
O61 Li3 1.961 . S
O61 C10 1.325 . S
O62 Li0 1.961 . S
O62 Li2 1.956 . S
O62 Li3 1.970 . S
O62 C32 1.325 . S
O63 Li1 1.961 . S
O63 Li2 1.970 . S
O63 Li3 1.956 . S
O63 C38 1.325 . S
H64 C6 0.929 . S
H65 C7 0.930 . S
H66 C8 0.930 . S
H67 C9 0.930 . S
H68 C11 0.930 . S
H69 C13 0.929 . S
H70 C14 0.930 . S
H71 C15 0.930 . S
H72 C18 0.930 . S
H73 C21 0.929 . S
H74 C26 0.929 . S
H75 C27 0.930 . S
H76 C34 0.929 . S
H77 C35 0.930 . S
H78 C36 0.930 . S
H79 C37 0.927 1_556 S
H80 C39 0.929 . S
H81 C40 0.930 . S
H82 C41 0.930 . S
H83 C42 0.930 . S
H84 C46 0.929 . S
H85 C48 0.930 . S
H86 C54 0.929 . S
H87 C55 0.930 . S
Li88 N105 1.990 . S
Li88 O148 1.956 . S
Li88 O149 1.970 . S
Li88 O150 1.961 . S
Li89 N113 1.990 . S
Li89 O148 1.970 . S
Li89 O149 1.956 . S
Li89 O151 1.961 . S
Li90 N135 1.990 . S
Li90 O148 1.961 . S
Li90 O150 1.956 . S
Li90 O151 1.970 . S
Li91 N141 1.990 . S
Li91 O149 1.961 . S
Li91 O150 1.970 . S
Li91 O151 1.956 . S
C92 C94 1.348 . S
C92 C95 1.356 . S
C92 O148 1.325 . S
N93 C96 1.314 . S
N93 C97 1.279 . S
C94 C92 1.348 . S
C94 C96 1.353 . S
C94 H152 0.929 . S
C95 C92 1.356 . S
C95 C97 1.358 . S
C95 H153 0.930 . S
C96 N93 1.314 . S
C96 C94 1.353 . S
C96 H154 0.930 . S
C97 N93 1.279 . S
C97 C95 1.358 . S
C97 H155 0.930 . S
C98 C101 1.348 . S
C98 C102 1.356 . S
C98 O149 1.325 . S
C99 N100 1.279 . S
C99 C102 1.358 . S
C99 H156 0.930 . S
N100 C99 1.279 . S
N100 C103 1.314 . S
C101 C98 1.348 . S
C101 C103 1.353 . S
C101 H157 0.929 . S
C102 C98 1.356 . S
C102 C99 1.358 . S
C102 H158 0.930 . S
C103 N100 1.314 . S
C103 C101 1.353 . S
C103 H159 0.930 . S
C104 N105 1.314 . S
C104 C109 1.353 . S
C104 H110 0.930 . S
N105 Li88 1.990 . S
N105 C104 1.314 . S
N105 C107 1.279 . S
C106 C107 1.358 . S
C106 C108 1.356 . S
C106 H160 0.930 . S
C107 N105 1.279 . S
C107 C106 1.358 . S
C107 H111 0.930 . S
C108 C106 1.356 . S
C108 C109 1.348 . S
C109 C104 1.353 . S
C109 C108 1.348 . S
C109 H161 0.929 . S
H110 C104 0.930 . S
H111 C107 0.930 . S
C112 N113 1.314 . S
C112 C114 1.353 . S
C112 H118 0.930 . S
N113 Li89 1.990 . S
N113 C112 1.314 . S
N113 C116 1.279 . S
C114 C112 1.353 . S
C114 C117 1.348 . S
C114 H162 0.929 . S
C115 C116 1.358 . S
C115 C117 1.356 . S
C115 H163 0.930 . S
C116 N113 1.279 . S
C116 C115 1.358 . S
C116 H119 0.930 . S
C117 C114 1.348 . S
C117 C115 1.356 . S
H118 C112 0.930 . S
H119 C116 0.930 . S
C120 C122 1.348 . S
C120 C123 1.356 . S
C120 O150 1.325 . S
N121 C124 1.314 . S
N121 C125 1.279 . S
C122 C120 1.348 . S
C122 C124 1.353 . S
C122 H164 0.929 . S
C123 C120 1.356 . S
C123 C125 1.358 . S
C123 H165 0.930 . S
C124 N121 1.314 . S
C124 C122 1.353 . S
C124 H166 0.930 . S
C125 N121 1.279 . S
C125 C123 1.358 . S
C125 H167 0.930 . S
C126 C127 1.348 . S
C126 C128 1.356 . S
C126 O151 1.325 . S
C127 C126 1.348 . S
C127 C129 1.353 . S
C127 H168 0.929 . S
C128 C126 1.356 . S
C128 C130 1.358 . S
C128 H169 0.930 . S
C129 C127 1.353 . S
C129 N131 1.314 . S
C129 H170 0.930 . S
C130 C128 1.358 . S
C130 N131 1.279 . S
C130 H171 0.930 . S
N131 C129 1.314 . S
N131 C130 1.279 . S
C132 C134 1.353 . S
C132 N135 1.314 . S
C132 H138 0.930 . S
C133 N135 1.279 . S
C133 C136 1.358 . S
C133 H139 0.930 . S
C134 C132 1.353 . S
C134 C137 1.348 . S
C134 H172 0.929 . S
N135 Li90 1.990 . S
N135 C132 1.314 . S
N135 C133 1.279 . S
C136 C133 1.358 . S
C136 C137 1.356 . S
C136 H173 0.930 . S
C137 C134 1.348 . S
C137 C136 1.356 . S
H138 C132 0.930 . S
H139 C133 0.930 . S
C140 N141 1.314 . S
C140 C142 1.353 . S
C140 H146 0.930 . S
N141 Li91 1.990 . S
N141 C140 1.314 . S
N141 C144 1.279 . S
C142 C140 1.353 . S
C142 C145 1.348 . S
C142 H174 0.929 . S
C143 C144 1.358 . S
C143 C145 1.356 . S
C143 H175 0.930 . S
C144 N141 1.279 . S
C144 C143 1.358 . S
C144 H147 0.930 . S
C145 C142 1.348 . S
C145 C143 1.356 . S
H146 C140 0.930 . S
H147 C144 0.930 . S
O148 Li88 1.956 . S
O148 Li89 1.970 . S
O148 Li90 1.961 . S
O148 C92 1.325 . S
O149 Li88 1.970 . S
O149 Li89 1.956 . S
O149 Li91 1.961 . S
O149 C98 1.325 . S
O150 Li88 1.961 . S
O150 Li90 1.956 . S
O150 Li91 1.970 . S
O150 C120 1.325 . S
O151 Li89 1.961 . S
O151 Li90 1.970 . S
O151 Li91 1.956 . S
O151 C126 1.325 . S
H152 C94 0.929 . S
H153 C95 0.930 . S
H154 C96 0.930 . S
H155 C97 0.930 . S
H156 C99 0.930 . S
H157 C101 0.929 . S
H158 C102 0.930 . S
H159 C103 0.930 . S
H160 C106 0.930 . S
H161 C109 0.929 . S
H162 C114 0.929 . S
H163 C115 0.930 . S
H164 C122 0.929 . S
H165 C123 0.930 . S
H166 C124 0.930 . S
H167 C125 0.930 . S
H168 C127 0.929 . S
H169 C128 0.930 . S
H170 C129 0.930 . S
H171 C130 0.930 . S
H172 C134 0.929 . S
H173 C136 0.930 . S
H174 C142 0.929 . S
H175 C143 0.930 . S
Li176 N193 1.990 . S
Li176 O236 1.956 . S
Li176 O237 1.970 . S
Li176 O238 1.961 . S
Li177 N201 1.990 . S
Li177 O236 1.970 . S
Li177 O237 1.956 . S
Li177 O239 1.961 . S
Li178 N223 1.990 . S
Li178 O236 1.961 . S
Li178 O238 1.956 . S
Li178 O239 1.970 . S
Li179 N229 1.990 . S
Li179 O237 1.961 . S
Li179 O238 1.970 . S
Li179 O239 1.956 . S
C180 C182 1.348 . S
C180 C183 1.356 . S
C180 O236 1.325 . S
N181 C184 1.314 . S
N181 C185 1.279 . S
C182 C180 1.348 . S
C182 C184 1.353 . S
C182 H240 0.929 . S
C183 C180 1.356 . S
C183 C185 1.358 . S
C183 H241 0.930 . S
C184 N181 1.314 . S
C184 C182 1.353 . S
C184 H242 0.930 . S
C185 N181 1.279 . S
C185 C183 1.358 . S
C185 H243 0.930 . S
C186 C189 1.348 . S
C186 C190 1.356 . S
C186 O237 1.325 . S
C187 N188 1.279 . S
C187 C190 1.358 . S
C187 H244 0.930 . S
N188 C187 1.279 . S
N188 C191 1.314 . S
C189 C186 1.348 . S
C189 C191 1.353 . S
C189 H245 0.929 . S
C190 C186 1.356 . S
C190 C187 1.358 . S
C190 H246 0.930 . S
C191 N188 1.314 . S
C191 C189 1.353 . S
C191 H247 0.930 . S
C192 N193 1.314 . S
C192 C197 1.353 . S
C192 H198 0.930 . S
N193 Li176 1.990 . S
N193 C192 1.314 . S
N193 C195 1.279 . S
C194 C195 1.358 . S
C194 C196 1.356 . S
C194 H248 0.930 . S
C195 N193 1.279 . S
C195 C194 1.358 . S
C195 H199 0.930 . S
C196 C194 1.356 . S
C196 C197 1.348 . S
C197 C192 1.353 . S
C197 C196 1.348 . S
C197 H249 0.929 . S
H198 C192 0.930 . S
H199 C195 0.930 . S
C200 N201 1.314 . S
C200 C202 1.353 . S
C200 H206 0.930 . S
N201 Li177 1.990 . S
N201 C200 1.314 . S
N201 C204 1.279 . S
C202 C200 1.353 . S
C202 C205 1.348 . S
C202 H250 0.929 . S
C203 C204 1.358 . S
C203 C205 1.356 . S
C203 H251 0.930 . S
C204 N201 1.279 . S
C204 C203 1.358 . S
C204 H207 0.930 . S
C205 C202 1.348 . S
C205 C203 1.356 . S
H206 C200 0.930 . S
H207 C204 0.930 . S
C208 C210 1.348 . S
C208 C211 1.356 . S
C208 O238 1.325 . S
N209 C212 1.314 . S
N209 C213 1.279 . S
C210 C208 1.348 . S
C210 C212 1.353 . S
C210 H252 0.929 . S
C211 C208 1.356 . S
C211 C213 1.358 . S
C211 H253 0.930 . S
C212 N209 1.314 . S
C212 C210 1.353 . S
C212 H254 0.930 . S
C213 N209 1.279 . S
C213 C211 1.358 . S
C213 H255 0.930 . S
C214 C215 1.348 . S
C214 C216 1.356 . S
C214 O239 1.325 . S
C215 C214 1.348 . S
C215 C217 1.353 1_554 S
C215 H256 0.929 . S
C216 C214 1.356 . S
C216 C218 1.374 . S
C216 H257 0.930 . S
C217 C215 1.353 1_556 S
C217 N219 1.314 . S
C217 H258 0.930 . S
C218 C216 1.374 . S
C218 N219 1.268 1_554 S
C218 H259 0.926 1_554 S
N219 C217 1.314 . S
N219 C218 1.268 1_556 S
C220 C222 1.353 . S
C220 N223 1.314 . S
C220 H226 0.930 . S
C221 N223 1.279 . S
C221 C224 1.358 . S
C221 H227 0.930 . S
C222 C220 1.353 . S
C222 C225 1.348 . S
C222 H260 0.929 . S
N223 Li178 1.990 . S
N223 C220 1.314 . S
N223 C221 1.279 . S
C224 C221 1.358 . S
C224 C225 1.356 . S
C224 H261 0.930 . S
C225 C222 1.348 . S
C225 C224 1.356 . S
H226 C220 0.930 . S
H227 C221 0.930 . S
C228 N229 1.314 . S
C228 C230 1.353 . S
C228 H234 0.930 . S
N229 Li179 1.990 . S
N229 C228 1.314 . S
N229 C232 1.279 . S
C230 C228 1.353 . S
C230 C233 1.348 . S
C230 H262 0.929 . S
C231 C232 1.358 . S
C231 C233 1.356 . S
C231 H263 0.930 . S
C232 N229 1.279 . S
C232 C231 1.358 . S
C232 H235 0.930 . S
C233 C230 1.348 . S
C233 C231 1.356 . S
H234 C228 0.930 . S
H235 C232 0.930 . S
O236 Li176 1.956 . S
O236 Li177 1.970 . S
O236 Li178 1.961 . S
O236 C180 1.325 . S
O237 Li176 1.970 . S
O237 Li177 1.956 . S
O237 Li179 1.961 . S
O237 C186 1.325 . S
O238 Li176 1.961 . S
O238 Li178 1.956 . S
O238 Li179 1.970 . S
O238 C208 1.325 . S
O239 Li177 1.961 . S
O239 Li178 1.970 . S
O239 Li179 1.956 . S
O239 C214 1.325 . S
H240 C182 0.929 . S
H241 C183 0.930 . S
H242 C184 0.930 . S
H243 C185 0.930 . S
H244 C187 0.930 . S
H245 C189 0.929 . S
H246 C190 0.930 . S
H247 C191 0.930 . S
H248 C194 0.930 . S
H249 C197 0.929 . S
H250 C202 0.929 . S
H251 C203 0.930 . S
H252 C210 0.929 . S
H253 C211 0.930 . S
H254 C212 0.930 . S
H255 C213 0.930 . S
H256 C215 0.929 . S
H257 C216 0.930 . S
H258 C217 0.930 . S
H259 C218 0.926 1_556 S
H260 C222 0.929 . S
H261 C224 0.930 . S
H262 C230 0.929 . S
H263 C231 0.930 . S
Li264 N281 1.990 . S
Li264 O324 1.956 . S
Li264 O325 1.970 . S
Li264 O326 1.961 . S
Li265 N289 1.990 . S
Li265 O324 1.970 . S
Li265 O325 1.956 . S
Li265 O327 1.961 . S
Li266 N311 1.990 . S
Li266 O324 1.961 . S
Li266 O326 1.956 . S
Li266 O327 1.970 . S
Li267 N317 1.990 . S
Li267 O325 1.961 . S
Li267 O326 1.970 . S
Li267 O327 1.956 . S
C268 C270 1.348 . S
C268 C271 1.356 . S
C268 O324 1.325 . S
N269 C272 1.314 . S
N269 C273 1.279 . S
C270 C268 1.348 . S
C270 C272 1.353 . S
C270 H328 0.929 . S
C271 C268 1.356 . S
C271 C273 1.358 . S
C271 H329 0.930 . S
C272 N269 1.314 . S
C272 C270 1.353 . S
C272 H330 0.930 . S
C273 N269 1.279 . S
C273 C271 1.358 . S
C273 H331 0.930 . S
C274 C277 1.348 . S
C274 C278 1.356 . S
C274 O325 1.325 . S
C275 N276 1.279 . S
C275 C278 1.358 . S
C275 H332 0.930 . S
N276 C275 1.279 . S
N276 C279 1.314 . S
C277 C274 1.348 . S
C277 C279 1.353 . S
C277 H333 0.929 . S
C278 C274 1.356 . S
C278 C275 1.358 . S
C278 H334 0.930 . S
C279 N276 1.314 . S
C279 C277 1.353 . S
C279 H335 0.930 . S
C280 N281 1.314 . S
C280 C285 1.353 . S
C280 H286 0.930 . S
N281 Li264 1.990 . S
N281 C280 1.314 . S
N281 C283 1.279 . S
C282 C283 1.358 . S
C282 C284 1.356 . S
C282 H336 0.930 . S
C283 N281 1.279 . S
C283 C282 1.358 . S
C283 H287 0.930 . S
C284 C282 1.356 . S
C284 C285 1.348 . S
C285 C280 1.353 . S
C285 C284 1.348 . S
C285 H337 0.929 . S
H286 C280 0.930 . S
H287 C283 0.930 . S
C288 N289 1.314 . S
C288 C290 1.353 . S
C288 H294 0.930 . S
N289 Li265 1.990 . S
N289 C288 1.314 . S
N289 C292 1.279 . S
C290 C288 1.353 . S
C290 C293 1.348 . S
C290 H338 0.929 . S
C291 C292 1.358 . S
C291 C293 1.356 . S
C291 H339 0.930 . S
C292 N289 1.279 . S
C292 C291 1.358 . S
C292 H295 0.930 . S
C293 C290 1.348 . S
C293 C291 1.356 . S
H294 C288 0.930 . S
H295 C292 0.930 . S
C296 C298 1.348 . S
C296 C299 1.356 . S
C296 O326 1.325 . S
N297 C300 1.314 . S
N297 C301 1.279 . S
C298 C296 1.348 . S
C298 C300 1.353 . S
C298 H340 0.929 . S
C299 C296 1.356 . S
C299 C301 1.358 . S
C299 H341 0.930 . S
C300 N297 1.314 . S
C300 C298 1.353 . S
C300 H342 0.930 . S
C301 N297 1.279 . S
C301 C299 1.358 . S
C301 H343 0.930 . S
C302 C303 1.348 . S
C302 C304 1.356 . S
C302 O327 1.325 . S
C303 C302 1.348 . S
C303 C305 1.353 . S
C303 H344 0.929 . S
C304 C302 1.356 . S
C304 C306 1.358 . S
C304 H345 0.930 . S
C305 C303 1.353 . S
C305 N307 1.314 . S
C305 H346 0.930 . S
C306 C304 1.358 . S
C306 N307 1.279 . S
C306 H347 0.930 . S
N307 C305 1.314 . S
N307 C306 1.279 . S
C308 C310 1.353 . S
C308 N311 1.314 . S
C308 H314 0.930 . S
C309 N311 1.279 . S
C309 C312 1.358 . S
C309 H315 0.930 . S
C310 C308 1.353 . S
C310 C313 1.348 . S
C310 H348 0.929 . S
N311 Li266 1.990 . S
N311 C308 1.314 . S
N311 C309 1.279 . S
C312 C309 1.358 . S
C312 C313 1.356 . S
C312 H349 0.930 . S
C313 C310 1.348 . S
C313 C312 1.356 . S
H314 C308 0.930 . S
H315 C309 0.930 . S
C316 N317 1.314 . S
C316 C318 1.353 . S
C316 H322 0.930 . S
N317 Li267 1.990 . S
N317 C316 1.314 . S
N317 C320 1.279 . S
C318 C316 1.353 . S
C318 C321 1.348 . S
C318 H350 0.929 . S
C319 C320 1.358 . S
C319 C321 1.356 . S
C319 H351 0.930 . S
C320 N317 1.279 . S
C320 C319 1.358 . S
C320 H323 0.930 . S
C321 C318 1.348 . S
C321 C319 1.356 . S
H322 C316 0.930 . S
H323 C320 0.930 . S
O324 Li264 1.956 . S
O324 Li265 1.970 . S
O324 Li266 1.961 . S
O324 C268 1.325 . S
O325 Li264 1.970 . S
O325 Li265 1.956 . S
O325 Li267 1.961 . S
O325 C274 1.325 . S
O326 Li264 1.961 . S
O326 Li266 1.956 . S
O326 Li267 1.970 . S
O326 C296 1.325 . S
O327 Li265 1.961 . S
O327 Li266 1.970 . S
O327 Li267 1.956 . S
O327 C302 1.325 . S
H328 C270 0.929 . S
H329 C271 0.930 . S
H330 C272 0.930 . S
H331 C273 0.930 . S
H332 C275 0.930 . S
H333 C277 0.929 . S
H334 C278 0.930 . S
H335 C279 0.930 . S
H336 C282 0.930 . S
H337 C285 0.929 . S
H338 C290 0.929 . S
H339 C291 0.930 . S
H340 C298 0.929 . S
H341 C299 0.930 . S
H342 C300 0.930 . S
H343 C301 0.930 . S
H344 C303 0.929 . S
H345 C304 0.930 . S
H346 C305 0.930 . S
H347 C306 0.930 . S
H348 C310 0.929 . S
H349 C312 0.930 . S
H350 C318 0.929 . S
H351 C319 0.930 . S
Li352 N369 1.990 . S
Li352 O412 1.956 . S
Li352 O413 1.970 . S
Li352 O414 1.961 . S
Li353 N377 1.990 . S
Li353 O412 1.970 . S
Li353 O413 1.956 . S
Li353 O415 1.961 . S
Li354 N399 1.990 . S
Li354 O412 1.961 . S
Li354 O414 1.956 . S
Li354 O415 1.970 . S
Li355 N405 1.990 . S
Li355 O413 1.961 . S
Li355 O414 1.970 . S
Li355 O415 1.956 . S
C356 C358 1.348 . S
C356 C359 1.356 . S
C356 O412 1.325 . S
N357 C360 1.314 . S
N357 C361 1.279 . S
C358 C356 1.348 . S
C358 C360 1.353 . S
C358 H416 0.929 . S
C359 C356 1.356 . S
C359 C361 1.358 . S
C359 H417 0.930 . S
C360 N357 1.314 . S
C360 C358 1.353 . S
C360 H418 0.930 . S
C361 N357 1.279 . S
C361 C359 1.358 . S
C361 H419 0.930 . S
C362 C365 1.348 . S
C362 C366 1.356 . S
C362 O413 1.325 . S
C363 N364 1.268 1_554 S
C363 C366 1.374 . S
C363 H420 0.926 1_554 S
N364 C363 1.268 1_556 S
N364 C367 1.314 . S
C365 C362 1.348 . S
C365 C367 1.353 1_554 S
C365 H421 0.929 . S
C366 C362 1.356 . S
C366 C363 1.374 . S
C366 H422 0.930 . S
C367 N364 1.314 . S
C367 C365 1.353 1_556 S
C367 H423 0.930 . S
C368 N369 1.314 . S
C368 C373 1.353 . S
C368 H374 0.930 . S
N369 Li352 1.990 . S
N369 C368 1.314 . S
N369 C371 1.279 . S
C370 C371 1.358 . S
C370 C372 1.356 . S
C370 H424 0.930 . S
C371 N369 1.279 . S
C371 C370 1.358 . S
C371 H375 0.930 . S
C372 C370 1.356 . S
C372 C373 1.348 . S
C373 C368 1.353 . S
C373 C372 1.348 . S
C373 H425 0.929 . S
H374 C368 0.930 . S
H375 C371 0.930 . S
C376 N377 1.314 . S
C376 C378 1.353 . S
C376 H382 0.930 . S
N377 Li353 1.990 . S
N377 C376 1.314 . S
N377 C380 1.279 . S
C378 C376 1.353 . S
C378 C381 1.348 . S
C378 H426 0.929 . S
C379 C380 1.358 . S
C379 C381 1.356 . S
C379 H427 0.930 . S
C380 N377 1.279 . S
C380 C379 1.358 . S
C380 H383 0.930 . S
C381 C378 1.348 . S
C381 C379 1.356 . S
H382 C376 0.930 . S
H383 C380 0.930 . S
C384 C386 1.348 . S
C384 C387 1.356 . S
C384 O414 1.325 . S
N385 C388 1.314 . S
N385 C389 1.279 . S
C386 C384 1.348 . S
C386 C388 1.353 . S
C386 H428 0.929 . S
C387 C384 1.356 . S
C387 C389 1.358 . S
C387 H429 0.930 . S
C388 N385 1.314 . S
C388 C386 1.353 . S
C388 H430 0.930 . S
C389 N385 1.279 . S
C389 C387 1.358 . S
C389 H431 0.930 . S
C390 C391 1.348 . S
C390 C392 1.356 . S
C390 O415 1.325 . S
C391 C390 1.348 . S
C391 C393 1.353 . S
C391 H432 0.929 . S
C392 C390 1.356 . S
C392 C394 1.358 . S
C392 H433 0.930 . S
C393 C391 1.353 . S
C393 N395 1.314 . S
C393 H434 0.930 . S
C394 C392 1.358 . S
C394 N395 1.279 . S
C394 H435 0.930 . S
N395 C393 1.314 . S
N395 C394 1.279 . S
C396 C398 1.353 . S
C396 N399 1.314 . S
C396 H402 0.930 . S
C397 N399 1.279 . S
C397 C400 1.358 . S
C397 H403 0.930 . S
C398 C396 1.353 . S
C398 C401 1.348 . S
C398 H436 0.929 . S
N399 Li354 1.990 . S
N399 C396 1.314 . S
N399 C397 1.279 . S
C400 C397 1.358 . S
C400 C401 1.356 . S
C400 H437 0.930 . S
C401 C398 1.348 . S
C401 C400 1.356 . S
H402 C396 0.930 . S
H403 C397 0.930 . S
C404 N405 1.314 . S
C404 C406 1.353 . S
C404 H410 0.930 . S
N405 Li355 1.990 . S
N405 C404 1.314 . S
N405 C408 1.279 . S
C406 C404 1.353 . S
C406 C409 1.348 . S
C406 H438 0.929 . S
C407 C408 1.358 . S
C407 C409 1.356 . S
C407 H439 0.930 . S
C408 N405 1.279 . S
C408 C407 1.358 . S
C408 H411 0.930 . S
C409 C406 1.348 . S
C409 C407 1.356 . S
H410 C404 0.930 . S
H411 C408 0.930 . S
O412 Li352 1.956 . S
O412 Li353 1.970 . S
O412 Li354 1.961 . S
O412 C356 1.325 . S
O413 Li352 1.970 . S
O413 Li353 1.956 . S
O413 Li355 1.961 . S
O413 C362 1.325 . S
O414 Li352 1.961 . S
O414 Li354 1.956 . S
O414 Li355 1.970 . S
O414 C384 1.325 . S
O415 Li353 1.961 . S
O415 Li354 1.970 . S
O415 Li355 1.956 . S
O415 C390 1.325 . S
H416 C358 0.929 . S
H417 C359 0.930 . S
H418 C360 0.930 . S
H419 C361 0.930 . S
H420 C363 0.926 1_556 S
H421 C365 0.929 . S
H422 C366 0.930 . S
H423 C367 0.930 . S
H424 C370 0.930 . S
H425 C373 0.929 . S
H426 C378 0.929 . S
H427 C379 0.930 . S
H428 C386 0.929 . S
H429 C387 0.930 . S
H430 C388 0.930 . S
H431 C389 0.930 . S
H432 C391 0.929 . S
H433 C392 0.930 . S
H434 C393 0.930 . S
H435 C394 0.930 . S
H436 C398 0.929 . S
H437 C400 0.930 . S
H438 C406 0.929 . S
H439 C407 0.930 . S
Li440 N457 1.990 . S
Li440 O500 1.956 . S
Li440 O501 1.970 . S
Li440 O502 1.961 . S
Li441 N465 1.990 . S
Li441 O500 1.970 . S
Li441 O501 1.956 . S
Li441 O503 1.961 . S
Li442 N487 1.990 . S
Li442 O500 1.961 . S
Li442 O502 1.956 . S
Li442 O503 1.970 . S
Li443 N493 1.990 . S
Li443 O501 1.961 . S
Li443 O502 1.970 . S
Li443 O503 1.956 . S
C444 C446 1.348 . S
C444 C447 1.356 . S
C444 O500 1.325 . S
N445 C448 1.314 . S
N445 C449 1.279 . S
C446 C444 1.348 . S
C446 C448 1.353 . S
C446 H504 0.929 . S
C447 C444 1.356 . S
C447 C449 1.358 . S
C447 H505 0.930 . S
C448 N445 1.314 . S
C448 C446 1.353 . S
C448 H506 0.930 . S
C449 N445 1.279 . S
C449 C447 1.358 . S
C449 H507 0.930 . S
C450 C453 1.348 . S
C450 C454 1.356 . S
C450 O501 1.325 . S
C451 N452 1.279 . S
C451 C454 1.358 . S
C451 H508 0.930 . S
N452 C451 1.279 . S
N452 C455 1.314 . S
C453 C450 1.348 . S
C453 C455 1.353 . S
C453 H509 0.929 . S
C454 C450 1.356 . S
C454 C451 1.358 . S
C454 H510 0.930 . S
C455 N452 1.314 . S
C455 C453 1.353 . S
C455 H511 0.930 . S
C456 N457 1.314 . S
C456 C461 1.353 . S
C456 H462 0.930 . S
N457 Li440 1.990 . S
N457 C456 1.314 . S
N457 C459 1.279 . S
C458 C459 1.358 . S
C458 C460 1.356 . S
C458 H512 0.930 . S
C459 N457 1.279 . S
C459 C458 1.358 . S
C459 H463 0.930 . S
C460 C458 1.356 . S
C460 C461 1.348 . S
C461 C456 1.353 . S
C461 C460 1.348 . S
C461 H513 0.929 . S
H462 C456 0.930 . S
H463 C459 0.930 . S
C464 N465 1.314 . S
C464 C466 1.353 . S
C464 H470 0.930 . S
N465 Li441 1.990 . S
N465 C464 1.314 . S
N465 C468 1.279 . S
C466 C464 1.353 . S
C466 C469 1.348 . S
C466 H514 0.929 . S
C467 C468 1.358 . S
C467 C469 1.356 . S
C467 H515 0.930 . S
C468 N465 1.279 . S
C468 C467 1.358 . S
C468 H471 0.930 . S
C469 C466 1.348 . S
C469 C467 1.356 . S
H470 C464 0.930 . S
H471 C468 0.930 . S
C472 C474 1.348 . S
C472 C475 1.356 . S
C472 O502 1.325 . S
N473 C476 1.314 . S
N473 C477 1.279 . S
C474 C472 1.348 . S
C474 C476 1.353 . S
C474 H516 0.929 . S
C475 C472 1.356 . S
C475 C477 1.358 . S
C475 H517 0.930 . S
C476 N473 1.314 . S
C476 C474 1.353 . S
C476 H518 0.930 . S
C477 N473 1.279 . S
C477 C475 1.358 . S
C477 H519 0.930 . S
C478 C479 1.348 . S
C478 C480 1.356 . S
C478 O503 1.325 . S
C479 C478 1.348 . S
C479 C481 1.353 . S
C479 H520 0.929 . S
C480 C478 1.356 . S
C480 C482 1.358 . S
C480 H521 0.930 . S
C481 C479 1.353 . S
C481 N483 1.314 . S
C481 H522 0.930 . S
C482 C480 1.358 . S
C482 N483 1.279 . S
C482 H523 0.930 . S
N483 C481 1.314 . S
N483 C482 1.279 . S
C484 C486 1.353 . S
C484 N487 1.314 . S
C484 H490 0.930 . S
C485 N487 1.279 . S
C485 C488 1.358 . S
C485 H491 0.930 . S
C486 C484 1.353 . S
C486 C489 1.348 . S
C486 H524 0.929 . S
N487 Li442 1.990 . S
N487 C484 1.314 . S
N487 C485 1.279 . S
C488 C485 1.358 . S
C488 C489 1.356 . S
C488 H525 0.930 . S
C489 C486 1.348 . S
C489 C488 1.356 . S
H490 C484 0.930 . S
H491 C485 0.930 . S
C492 N493 1.314 . S
C492 C494 1.353 . S
C492 H498 0.930 . S
N493 Li443 1.990 . S
N493 C492 1.314 . S
N493 C496 1.279 . S
C494 C492 1.353 . S
C494 C497 1.348 . S
C494 H526 0.929 . S
C495 C496 1.358 . S
C495 C497 1.356 . S
C495 H527 0.930 . S
C496 N493 1.279 . S
C496 C495 1.358 . S
C496 H499 0.930 . S
C497 C494 1.348 . S
C497 C495 1.356 . S
H498 C492 0.930 . S
H499 C496 0.930 . S
O500 Li440 1.956 . S
O500 Li441 1.970 . S
O500 Li442 1.961 . S
O500 C444 1.325 . S
O501 Li440 1.970 . S
O501 Li441 1.956 . S
O501 Li443 1.961 . S
O501 C450 1.325 . S
O502 Li440 1.961 . S
O502 Li442 1.956 . S
O502 Li443 1.970 . S
O502 C472 1.325 . S
O503 Li441 1.961 . S
O503 Li442 1.970 . S
O503 Li443 1.956 . S
O503 C478 1.325 . S
H504 C446 0.929 . S
H505 C447 0.930 . S
H506 C448 0.930 . S
H507 C449 0.930 . S
H508 C451 0.930 . S
H509 C453 0.929 . S
H510 C454 0.930 . S
H511 C455 0.930 . S
H512 C458 0.930 . S
H513 C461 0.929 . S
H514 C466 0.929 . S
H515 C467 0.930 . S
H516 C474 0.929 . S
H517 C475 0.930 . S
H518 C476 0.930 . S
H519 C477 0.930 . S
H520 C479 0.929 . S
H521 C480 0.930 . S
H522 C481 0.930 . S
H523 C482 0.930 . S
H524 C486 0.929 . S
H525 C488 0.930 . S
H526 C494 0.929 . S
H527 C495 0.930 . S
Li528 N545 1.990 . S
Li528 O588 1.956 . S
Li528 O589 1.970 . S
Li528 O590 1.961 . S
Li529 N553 1.990 . S
Li529 O588 1.970 . S
Li529 O589 1.956 . S
Li529 O591 1.961 . S
Li530 N575 1.990 . S
Li530 O588 1.961 . S
Li530 O590 1.956 . S
Li530 O591 1.970 . S
Li531 N581 1.990 . S
Li531 O589 1.961 . S
Li531 O590 1.970 . S
Li531 O591 1.956 . S
C532 C534 1.348 . S
C532 C535 1.356 . S
C532 O588 1.325 . S
N533 C536 1.314 . S
N533 C537 1.279 . S
C534 C532 1.348 . S
C534 C536 1.353 . S
C534 H592 0.929 . S
C535 C532 1.356 . S
C535 C537 1.358 . S
C535 H593 0.930 . S
C536 N533 1.314 . S
C536 C534 1.353 . S
C536 H594 0.930 . S
C537 N533 1.279 . S
C537 C535 1.358 . S
C537 H595 0.930 . S
C538 C541 1.348 . S
C538 C542 1.356 . S
C538 O589 1.325 . S
C539 N540 1.279 . S
C539 C542 1.358 . S
C539 H596 0.930 . S
N540 C539 1.279 . S
N540 C543 1.314 . S
C541 C538 1.348 . S
C541 C543 1.353 . S
C541 H597 0.929 . S
C542 C538 1.356 . S
C542 C539 1.358 . S
C542 H598 0.930 . S
C543 N540 1.314 . S
C543 C541 1.353 . S
C543 H599 0.930 . S
C544 N545 1.314 . S
C544 C549 1.353 . S
C544 H550 0.930 . S
N545 Li528 1.990 . S
N545 C544 1.314 . S
N545 C547 1.279 . S
C546 C547 1.358 . S
C546 C548 1.356 . S
C546 H600 0.930 . S
C547 N545 1.279 . S
C547 C546 1.358 . S
C547 H551 0.930 . S
C548 C546 1.356 . S
C548 C549 1.348 . S
C549 C544 1.353 . S
C549 C548 1.348 . S
C549 H601 0.929 . S
H550 C544 0.930 . S
H551 C547 0.930 . S
C552 N553 1.314 . S
C552 C554 1.353 . S
C552 H558 0.930 . S
N553 Li529 1.990 . S
N553 C552 1.314 . S
N553 C556 1.279 . S
C554 C552 1.353 . S
C554 C557 1.348 . S
C554 H602 0.929 . S
C555 C556 1.358 . S
C555 C557 1.356 . S
C555 H603 0.930 . S
C556 N553 1.279 . S
C556 C555 1.358 . S
C556 H559 0.930 . S
C557 C554 1.348 . S
C557 C555 1.356 . S
H558 C552 0.930 . S
H559 C556 0.930 . S
C560 C562 1.348 . S
C560 C563 1.356 . S
C560 O590 1.325 . S
N561 C564 1.314 . S
N561 C565 1.279 . S
C562 C560 1.348 . S
C562 C564 1.353 . S
C562 H604 0.929 . S
C563 C560 1.356 . S
C563 C565 1.358 . S
C563 H605 0.930 . S
C564 N561 1.314 . S
C564 C562 1.353 . S
C564 H606 0.930 . S
C565 N561 1.279 . S
C565 C563 1.358 . S
C565 H607 0.930 . S
C566 C567 1.348 . S
C566 C568 1.356 . S
C566 O591 1.325 . S
C567 C566 1.348 . S
C567 C569 1.353 . S
C567 H608 0.929 . S
C568 C566 1.356 . S
C568 C570 1.358 . S
C568 H609 0.930 . S
C569 C567 1.353 . S
C569 N571 1.314 . S
C569 H610 0.930 . S
C570 C568 1.358 . S
C570 N571 1.279 . S
C570 H611 0.930 . S
N571 C569 1.314 . S
N571 C570 1.279 . S
C572 C574 1.353 . S
C572 N575 1.314 . S
C572 H578 0.930 . S
C573 N575 1.279 . S
C573 C576 1.358 . S
C573 H579 0.930 . S
C574 C572 1.353 . S
C574 C577 1.348 . S
C574 H612 0.929 . S
N575 Li530 1.990 . S
N575 C572 1.314 . S
N575 C573 1.279 . S
C576 C573 1.358 . S
C576 C577 1.356 . S
C576 H613 0.930 . S
C577 C574 1.348 . S
C577 C576 1.356 . S
H578 C572 0.930 . S
H579 C573 0.930 . S
C580 N581 1.314 . S
C580 C582 1.353 . S
C580 H586 0.930 . S
N581 Li531 1.990 . S
N581 C580 1.314 . S
N581 C584 1.279 . S
C582 C580 1.353 . S
C582 C585 1.348 . S
C582 H614 0.929 . S
C583 C584 1.358 . S
C583 C585 1.356 . S
C583 H615 0.930 . S
C584 N581 1.279 . S
C584 C583 1.358 . S
C584 H587 0.930 . S
C585 C582 1.348 . S
C585 C583 1.356 . S
H586 C580 0.930 . S
H587 C584 0.930 . S
O588 Li528 1.956 . S
O588 Li529 1.970 . S
O588 Li530 1.961 . S
O588 C532 1.325 . S
O589 Li528 1.970 . S
O589 Li529 1.956 . S
O589 Li531 1.961 . S
O589 C538 1.325 . S
O590 Li528 1.961 . S
O590 Li530 1.956 . S
O590 Li531 1.970 . S
O590 C560 1.325 . S
O591 Li529 1.961 . S
O591 Li530 1.970 . S
O591 Li531 1.956 . S
O591 C566 1.325 . S
H592 C534 0.929 . S
H593 C535 0.930 . S
H594 C536 0.930 . S
H595 C537 0.930 . S
H596 C539 0.930 . S
H597 C541 0.929 . S
H598 C542 0.930 . S
H599 C543 0.930 . S
H600 C546 0.930 . S
H601 C549 0.929 . S
H602 C554 0.929 . S
H603 C555 0.930 . S
H604 C562 0.929 . S
H605 C563 0.930 . S
H606 C564 0.930 . S
H607 C565 0.930 . S
H608 C567 0.929 . S
H609 C568 0.930 . S
H610 C569 0.930 . S
H611 C570 0.930 . S
H612 C574 0.929 . S
H613 C576 0.930 . S
H614 C582 0.929 . S
H615 C583 0.930 . S
Li616 N633 1.990 . S
Li616 O676 1.956 . S
Li616 O677 1.970 . S
Li616 O678 1.961 . S
Li617 N641 1.990 . S
Li617 O676 1.970 . S
Li617 O677 1.956 . S
Li617 O679 1.961 . S
Li618 N663 1.990 . S
Li618 O676 1.961 . S
Li618 O678 1.956 . S
Li618 O679 1.970 . S
Li619 N669 1.990 . S
Li619 O677 1.961 . S
Li619 O678 1.970 . S
Li619 O679 1.956 . S
C620 C622 1.348 . S
C620 C623 1.356 . S
C620 O676 1.325 . S
N621 C624 1.314 . S
N621 C625 1.279 . S
C622 C620 1.348 . S
C622 C624 1.353 . S
C622 H680 0.929 . S
C623 C620 1.356 . S
C623 C625 1.358 . S
C623 H681 0.930 . S
C624 N621 1.314 . S
C624 C622 1.353 . S
C624 H682 0.930 . S
C625 N621 1.279 . S
C625 C623 1.358 . S
C625 H683 0.930 . S
C626 C629 1.348 . S
C626 C630 1.356 . S
C626 O677 1.325 . S
C627 N628 1.268 1_556 S
C627 C630 1.374 . S
C627 H684 0.926 1_556 S
N628 C627 1.268 1_554 S
N628 C631 1.314 . S
C629 C626 1.348 . S
C629 C631 1.353 1_556 S
C629 H685 0.929 . S
C630 C626 1.356 . S
C630 C627 1.374 . S
C630 H686 0.930 . S
C631 N628 1.314 . S
C631 C629 1.353 1_554 S
C631 H687 0.930 . S
C632 N633 1.314 . S
C632 C637 1.353 . S
C632 H638 0.930 . S
N633 Li616 1.990 . S
N633 C632 1.314 . S
N633 C635 1.279 . S
C634 C635 1.358 . S
C634 C636 1.356 . S
C634 H688 0.930 . S
C635 N633 1.279 . S
C635 C634 1.358 . S
C635 H639 0.930 . S
C636 C634 1.356 . S
C636 C637 1.348 . S
C637 C632 1.353 . S
C637 C636 1.348 . S
C637 H689 0.929 . S
H638 C632 0.930 . S
H639 C635 0.930 . S
C640 N641 1.314 . S
C640 C642 1.353 . S
C640 H646 0.930 . S
N641 Li617 1.990 . S
N641 C640 1.314 . S
N641 C644 1.279 . S
C642 C640 1.353 . S
C642 C645 1.348 . S
C642 H690 0.929 . S
C643 C644 1.358 . S
C643 C645 1.356 . S
C643 H691 0.930 . S
C644 N641 1.279 . S
C644 C643 1.358 . S
C644 H647 0.930 . S
C645 C642 1.348 . S
C645 C643 1.356 . S
H646 C640 0.930 . S
H647 C644 0.930 . S
C648 C650 1.348 . S
C648 C651 1.356 . S
C648 O678 1.325 . S
N649 C652 1.314 . S
N649 C653 1.279 . S
C650 C648 1.348 . S
C650 C652 1.353 . S
C650 H692 0.929 . S
C651 C648 1.356 . S
C651 C653 1.358 . S
C651 H693 0.930 . S
C652 N649 1.314 . S
C652 C650 1.353 . S
C652 H694 0.930 . S
C653 N649 1.279 . S
C653 C651 1.358 . S
C653 H695 0.930 . S
C654 C655 1.348 . S
C654 C656 1.356 . S
C654 O679 1.325 . S
C655 C654 1.348 . S
C655 C657 1.353 . S
C655 H696 0.929 . S
C656 C654 1.356 . S
C656 C658 1.358 . S
C656 H697 0.930 . S
C657 C655 1.353 . S
C657 N659 1.314 . S
C657 H698 0.930 . S
C658 C656 1.358 . S
C658 N659 1.279 . S
C658 H699 0.930 . S
N659 C657 1.314 . S
N659 C658 1.279 . S
C660 C662 1.353 . S
C660 N663 1.314 . S
C660 H666 0.930 . S
C661 N663 1.279 . S
C661 C664 1.358 . S
C661 H667 0.930 . S
C662 C660 1.353 . S
C662 C665 1.348 . S
C662 H700 0.929 . S
N663 Li618 1.990 . S
N663 C660 1.314 . S
N663 C661 1.279 . S
C664 C661 1.358 . S
C664 C665 1.356 . S
C664 H701 0.930 . S
C665 C662 1.348 . S
C665 C664 1.356 . S
H666 C660 0.930 . S
H667 C661 0.930 . S
C668 N669 1.314 . S
C668 C670 1.353 . S
C668 H674 0.930 . S
N669 Li619 1.990 . S
N669 C668 1.314 . S
N669 C672 1.279 . S
C670 C668 1.353 . S
C670 C673 1.348 . S
C670 H702 0.929 . S
C671 C672 1.358 . S
C671 C673 1.356 . S
C671 H703 0.930 . S
C672 N669 1.279 . S
C672 C671 1.358 . S
C672 H675 0.930 . S
C673 C670 1.348 . S
C673 C671 1.356 . S
H674 C668 0.930 . S
H675 C672 0.930 . S
O676 Li616 1.956 . S
O676 Li617 1.970 . S
O676 Li618 1.961 . S
O676 C620 1.325 . S
O677 Li616 1.970 . S
O677 Li617 1.956 . S
O677 Li619 1.961 . S
O677 C626 1.325 . S
O678 Li616 1.961 . S
O678 Li618 1.956 . S
O678 Li619 1.970 . S
O678 C648 1.325 . S
O679 Li617 1.961 . S
O679 Li618 1.970 . S
O679 Li619 1.956 . S
O679 C654 1.325 . S
H680 C622 0.929 . S
H681 C623 0.930 . S
H682 C624 0.930 . S
H683 C625 0.930 . S
H684 C627 0.926 1_554 S
H685 C629 0.929 . S
H686 C630 0.930 . S
H687 C631 0.930 . S
H688 C634 0.930 . S
H689 C637 0.929 . S
H690 C642 0.929 . S
H691 C643 0.930 . S
H692 C650 0.929 . S
H693 C651 0.930 . S
H694 C652 0.930 . S
H695 C653 0.930 . S
H696 C655 0.929 . S
H697 C656 0.930 . S
H698 C657 0.930 . S
H699 C658 0.930 . S
H700 C662 0.929 . S
H701 C664 0.930 . S
H702 C670 0.929 . S
H703 C671 0.930 . S
Li704 N721 1.990 . S
Li704 O764 1.956 . S
Li704 O765 1.970 . S
Li704 O766 1.961 . S
Li705 N729 1.990 . S
Li705 O764 1.970 . S
Li705 O765 1.956 . S
Li705 O767 1.961 . S
Li706 N751 1.990 . S
Li706 O764 1.961 . S
Li706 O766 1.956 . S
Li706 O767 1.970 . S
Li707 N757 1.990 . S
Li707 O765 1.961 . S
Li707 O766 1.970 . S
Li707 O767 1.956 . S
C708 C710 1.348 . S
C708 C711 1.356 . S
C708 O764 1.325 . S
N709 C712 1.314 . S
N709 C713 1.279 . S
C710 C708 1.348 . S
C710 C712 1.353 . S
C710 H768 0.929 . S
C711 C708 1.356 . S
C711 C713 1.358 . S
C711 H769 0.930 . S
C712 N709 1.314 . S
C712 C710 1.353 . S
C712 H770 0.930 . S
C713 N709 1.279 . S
C713 C711 1.358 . S
C713 H771 0.930 . S
C714 C717 1.348 . S
C714 C718 1.356 . S
C714 O765 1.325 . S
C715 N716 1.279 . S
C715 C718 1.358 . S
C715 H772 0.930 . S
N716 C715 1.279 . S
N716 C719 1.314 . S
C717 C714 1.348 . S
C717 C719 1.353 . S
C717 H773 0.929 . S
C718 C714 1.356 . S
C718 C715 1.358 . S
C718 H774 0.930 . S
C719 N716 1.314 . S
C719 C717 1.353 . S
C719 H775 0.930 . S
C720 N721 1.314 . S
C720 C725 1.353 . S
C720 H726 0.930 . S
N721 Li704 1.990 . S
N721 C720 1.314 . S
N721 C723 1.279 . S
C722 C723 1.358 . S
C722 C724 1.356 . S
C722 H776 0.930 . S
C723 N721 1.279 . S
C723 C722 1.358 . S
C723 H727 0.930 . S
C724 C722 1.356 . S
C724 C725 1.348 . S
C725 C720 1.353 . S
C725 C724 1.348 . S
C725 H777 0.929 . S
H726 C720 0.930 . S
H727 C723 0.930 . S
C728 N729 1.314 . S
C728 C730 1.353 . S
C728 H734 0.930 . S
N729 Li705 1.990 . S
N729 C728 1.314 . S
N729 C732 1.279 . S
C730 C728 1.353 . S
C730 C733 1.348 . S
C730 H778 0.929 . S
C731 C732 1.358 . S
C731 C733 1.356 . S
C731 H779 0.930 . S
C732 N729 1.279 . S
C732 C731 1.358 . S
C732 H735 0.930 . S
C733 C730 1.348 . S
C733 C731 1.356 . S
H734 C728 0.930 . S
H735 C732 0.930 . S
C736 C738 1.348 . S
C736 C739 1.356 . S
C736 O766 1.325 . S
N737 C740 1.314 . S
N737 C741 1.279 . S
C738 C736 1.348 . S
C738 C740 1.353 . S
C738 H780 0.929 . S
C739 C736 1.356 . S
C739 C741 1.358 . S
C739 H781 0.930 . S
C740 N737 1.314 . S
C740 C738 1.353 . S
C740 H782 0.930 . S
C741 N737 1.279 . S
C741 C739 1.358 . S
C741 H783 0.930 . S
C742 C743 1.348 . S
C742 C744 1.356 . S
C742 O767 1.325 . S
C743 C742 1.348 . S
C743 C745 1.353 . S
C743 H784 0.929 . S
C744 C742 1.356 . S
C744 C746 1.358 . S
C744 H785 0.930 . S
C745 C743 1.353 . S
C745 N747 1.314 . S
C745 H786 0.930 . S
C746 C744 1.358 . S
C746 N747 1.279 . S
C746 H787 0.930 . S
N747 C745 1.314 . S
N747 C746 1.279 . S
C748 C750 1.353 . S
C748 N751 1.314 . S
C748 H754 0.930 . S
C749 N751 1.279 . S
C749 C752 1.358 . S
C749 H755 0.930 . S
C750 C748 1.353 . S
C750 C753 1.348 . S
C750 H788 0.929 . S
N751 Li706 1.990 . S
N751 C748 1.314 . S
N751 C749 1.279 . S
C752 C749 1.358 . S
C752 C753 1.356 . S
C752 H789 0.930 . S
C753 C750 1.348 . S
C753 C752 1.356 . S
H754 C748 0.930 . S
H755 C749 0.930 . S
C756 N757 1.314 . S
C756 C758 1.353 . S
C756 H762 0.930 . S
N757 Li707 1.990 . S
N757 C756 1.314 . S
N757 C760 1.279 . S
C758 C756 1.353 . S
C758 C761 1.348 . S
C758 H790 0.929 . S
C759 C760 1.358 . S
C759 C761 1.356 . S
C759 H791 0.930 . S
C760 N757 1.279 . S
C760 C759 1.358 . S
C760 H763 0.930 . S
C761 C758 1.348 . S
C761 C759 1.356 . S
H762 C756 0.930 . S
H763 C760 0.930 . S
O764 Li704 1.956 . S
O764 Li705 1.970 . S
O764 Li706 1.961 . S
O764 C708 1.325 . S
O765 Li704 1.970 . S
O765 Li705 1.956 . S
O765 Li707 1.961 . S
O765 C714 1.325 . S
O766 Li704 1.961 . S
O766 Li706 1.956 . S
O766 Li707 1.970 . S
O766 C736 1.325 . S
O767 Li705 1.961 . S
O767 Li706 1.970 . S
O767 Li707 1.956 . S
O767 C742 1.325 . S
H768 C710 0.929 . S
H769 C711 0.930 . S
H770 C712 0.930 . S
H771 C713 0.930 . S
H772 C715 0.930 . S
H773 C717 0.929 . S
H774 C718 0.930 . S
H775 C719 0.930 . S
H776 C722 0.930 . S
H777 C725 0.929 . S
H778 C730 0.929 . S
H779 C731 0.930 . S
H780 C738 0.929 . S
H781 C739 0.930 . S
H782 C740 0.930 . S
H783 C741 0.930 . S
H784 C743 0.929 . S
H785 C744 0.930 . S
H786 C745 0.930 . S
H787 C746 0.930 . S
H788 C750 0.929 . S
H789 C752 0.930 . S
H790 C758 0.929 . S
H791 C759 0.930 . S
Li792 N809 1.990 . S
Li792 O852 1.956 . S
Li792 O853 1.970 . S
Li792 O854 1.961 . S
Li793 N817 1.990 . S
Li793 O852 1.970 . S
Li793 O853 1.956 . S
Li793 O855 1.961 . S
Li794 N839 1.990 . S
Li794 O852 1.961 . S
Li794 O854 1.956 . S
Li794 O855 1.970 . S
Li795 N845 1.990 . S
Li795 O853 1.961 . S
Li795 O854 1.970 . S
Li795 O855 1.956 . S
C796 C798 1.348 . S
C796 C799 1.356 . S
C796 O852 1.325 . S
N797 C800 1.314 . S
N797 C801 1.279 . S
C798 C796 1.348 . S
C798 C800 1.353 . S
C798 H856 0.929 . S
C799 C796 1.356 . S
C799 C801 1.358 . S
C799 H857 0.930 . S
C800 N797 1.314 . S
C800 C798 1.353 . S
C800 H858 0.930 . S
C801 N797 1.279 . S
C801 C799 1.358 . S
C801 H859 0.930 . S
C802 C805 1.348 . S
C802 C806 1.356 . S
C802 O853 1.325 . S
C803 N804 1.269 1_556 S
C803 C806 1.372 . S
C803 H860 0.927 1_556 S
N804 C803 1.269 1_554 S
N804 C807 1.314 . S
C805 C802 1.348 . S
C805 C807 1.353 1_556 S
C805 H861 0.929 . S
C806 C802 1.356 . S
C806 C803 1.372 . S
C806 H862 0.930 . S
C807 N804 1.314 . S
C807 C805 1.353 1_554 S
C807 H863 0.930 . S
C808 N809 1.314 . S
C808 C813 1.353 . S
C808 H814 0.930 . S
N809 Li792 1.990 . S
N809 C808 1.314 . S
N809 C811 1.279 . S
C810 C811 1.358 . S
C810 C812 1.356 . S
C810 H864 0.930 . S
C811 N809 1.279 . S
C811 C810 1.358 . S
C811 H815 0.930 . S
C812 C810 1.356 . S
C812 C813 1.348 . S
C813 C808 1.353 . S
C813 C812 1.348 . S
C813 H865 0.929 . S
H814 C808 0.930 . S
H815 C811 0.930 . S
C816 N817 1.314 . S
C816 C818 1.353 . S
C816 H822 0.930 . S
N817 Li793 1.990 . S
N817 C816 1.314 . S
N817 C820 1.279 . S
C818 C816 1.353 . S
C818 C821 1.348 . S
C818 H866 0.929 . S
C819 C820 1.358 . S
C819 C821 1.356 . S
C819 H867 0.930 . S
C820 N817 1.279 . S
C820 C819 1.358 . S
C820 H823 0.930 . S
C821 C818 1.348 . S
C821 C819 1.356 . S
H822 C816 0.930 . S
H823 C820 0.930 . S
C824 C826 1.348 . S
C824 C827 1.356 . S
C824 O854 1.325 . S
N825 C828 1.314 . S
N825 C829 1.279 . S
C826 C824 1.348 . S
C826 C828 1.353 . S
C826 H868 0.929 . S
C827 C824 1.356 . S
C827 C829 1.358 . S
C827 H869 0.930 . S
C828 N825 1.314 . S
C828 C826 1.353 . S
C828 H870 0.930 . S
C829 N825 1.279 . S
C829 C827 1.358 . S
C829 H871 0.930 . S
C830 C831 1.348 . S
C830 C832 1.356 . S
C830 O855 1.325 . S
C831 C830 1.348 . S
C831 C833 1.353 . S
C831 H872 0.929 . S
C832 C830 1.356 . S
C832 C834 1.358 . S
C832 H873 0.930 . S
C833 C831 1.353 . S
C833 N835 1.314 . S
C833 H874 0.930 . S
C834 C832 1.358 . S
C834 N835 1.279 . S
C834 H875 0.930 . S
N835 C833 1.314 . S
N835 C834 1.279 . S
C836 C838 1.353 . S
C836 N839 1.314 . S
C836 H842 0.930 . S
C837 N839 1.279 . S
C837 C840 1.358 . S
C837 H843 0.930 . S
C838 C836 1.353 . S
C838 C841 1.348 . S
C838 H876 0.929 . S
N839 Li794 1.990 . S
N839 C836 1.314 . S
N839 C837 1.279 . S
C840 C837 1.358 . S
C840 C841 1.356 . S
C840 H877 0.930 . S
C841 C838 1.348 . S
C841 C840 1.356 . S
H842 C836 0.930 . S
H843 C837 0.930 . S
C844 N845 1.314 . S
C844 C846 1.353 . S
C844 H850 0.930 . S
N845 Li795 1.990 . S
N845 C844 1.314 . S
N845 C848 1.279 . S
C846 C844 1.353 . S
C846 C849 1.348 . S
C846 H878 0.929 . S
C847 C848 1.358 . S
C847 C849 1.356 . S
C847 H879 0.930 . S
C848 N845 1.279 . S
C848 C847 1.358 . S
C848 H851 0.930 . S
C849 C846 1.348 . S
C849 C847 1.356 . S
H850 C844 0.930 . S
H851 C848 0.930 . S
O852 Li792 1.956 . S
O852 Li793 1.970 . S
O852 Li794 1.961 . S
O852 C796 1.325 . S
O853 Li792 1.970 . S
O853 Li793 1.956 . S
O853 Li795 1.961 . S
O853 C802 1.325 . S
O854 Li792 1.961 . S
O854 Li794 1.956 . S
O854 Li795 1.970 . S
O854 C824 1.325 . S
O855 Li793 1.961 . S
O855 Li794 1.970 . S
O855 Li795 1.956 . S
O855 C830 1.325 . S
H856 C798 0.929 . S
H857 C799 0.930 . S
H858 C800 0.930 . S
H859 C801 0.930 . S
H860 C803 0.927 1_554 S
H861 C805 0.929 . S
H862 C806 0.930 . S
H863 C807 0.930 . S
H864 C810 0.930 . S
H865 C813 0.929 . S
H866 C818 0.929 . S
H867 C819 0.930 . S
H868 C826 0.929 . S
H869 C827 0.930 . S
H870 C828 0.930 . S
H871 C829 0.930 . S
H872 C831 0.929 . S
H873 C832 0.930 . S
H874 C833 0.930 . S
H875 C834 0.930 . S
H876 C838 0.929 . S
H877 C840 0.930 . S
H878 C846 0.929 . S
H879 C847 0.930 . S
Li880 N897 1.990 . S
Li880 O940 1.956 . S
Li880 O941 1.970 . S
Li880 O942 1.961 . S
Li881 N905 1.990 . S
Li881 O940 1.970 . S
Li881 O941 1.956 . S
Li881 O943 1.961 . S
Li882 N927 1.990 . S
Li882 O940 1.961 . S
Li882 O942 1.956 . S
Li882 O943 1.970 . S
Li883 N933 1.990 . S
Li883 O941 1.961 . S
Li883 O942 1.970 . S
Li883 O943 1.956 . S
C884 C886 1.348 . S
C884 C887 1.356 . S
C884 O940 1.325 . S
N885 C888 1.314 . S
N885 C889 1.279 . S
C886 C884 1.348 . S
C886 C888 1.353 . S
C886 H944 0.929 . S
C887 C884 1.356 . S
C887 C889 1.358 . S
C887 H945 0.930 . S
C888 N885 1.314 . S
C888 C886 1.353 . S
C888 H946 0.930 . S
C889 N885 1.279 . S
C889 C887 1.358 . S
C889 H947 0.930 . S
C890 C893 1.348 . S
C890 C894 1.356 . S
C890 O941 1.325 . S
C891 N892 1.279 . S
C891 C894 1.358 . S
C891 H948 0.930 . S
N892 C891 1.279 . S
N892 C895 1.314 . S
C893 C890 1.348 . S
C893 C895 1.353 . S
C893 H949 0.929 . S
C894 C890 1.356 . S
C894 C891 1.358 . S
C894 H950 0.930 . S
C895 N892 1.314 . S
C895 C893 1.353 . S
C895 H951 0.930 . S
C896 N897 1.314 . S
C896 C901 1.353 . S
C896 H902 0.930 . S
N897 Li880 1.990 . S
N897 C896 1.314 . S
N897 C899 1.279 . S
C898 C899 1.358 . S
C898 C900 1.356 . S
C898 H952 0.930 . S
C899 N897 1.279 . S
C899 C898 1.358 . S
C899 H903 0.930 . S
C900 C898 1.356 . S
C900 C901 1.348 . S
C901 C896 1.353 . S
C901 C900 1.348 . S
C901 H953 0.929 . S
H902 C896 0.930 . S
H903 C899 0.930 . S
C904 N905 1.314 . S
C904 C906 1.353 . S
C904 H910 0.930 . S
N905 Li881 1.990 . S
N905 C904 1.314 . S
N905 C908 1.279 . S
C906 C904 1.353 . S
C906 C909 1.348 . S
C906 H954 0.929 . S
C907 C908 1.358 . S
C907 C909 1.356 . S
C907 H955 0.930 . S
C908 N905 1.279 . S
C908 C907 1.358 . S
C908 H911 0.930 . S
C909 C906 1.348 . S
C909 C907 1.356 . S
H910 C904 0.930 . S
H911 C908 0.930 . S
C912 C914 1.348 . S
C912 C915 1.356 . S
C912 O942 1.325 . S
N913 C916 1.314 . S
N913 C917 1.279 . S
C914 C912 1.348 . S
C914 C916 1.353 . S
C914 H956 0.929 . S
C915 C912 1.356 . S
C915 C917 1.358 . S
C915 H957 0.930 . S
C916 N913 1.314 . S
C916 C914 1.353 . S
C916 H958 0.930 . S
C917 N913 1.279 . S
C917 C915 1.358 . S
C917 H959 0.930 . S
C918 C919 1.348 . S
C918 C920 1.356 . S
C918 O943 1.325 . S
C919 C918 1.348 . S
C919 C921 1.353 . S
C919 H960 0.929 . S
C920 C918 1.356 . S
C920 C922 1.358 . S
C920 H961 0.930 . S
C921 C919 1.353 . S
C921 N923 1.314 . S
C921 H962 0.930 . S
C922 C920 1.358 . S
C922 N923 1.279 . S
C922 H963 0.930 . S
N923 C921 1.314 . S
N923 C922 1.279 . S
C924 C926 1.353 . S
C924 N927 1.314 . S
C924 H930 0.930 . S
C925 N927 1.279 . S
C925 C928 1.358 . S
C925 H931 0.930 . S
C926 C924 1.353 . S
C926 C929 1.348 . S
C926 H964 0.929 . S
N927 Li882 1.990 . S
N927 C924 1.314 . S
N927 C925 1.279 . S
C928 C925 1.358 . S
C928 C929 1.356 . S
C928 H965 0.930 . S
C929 C926 1.348 . S
C929 C928 1.356 . S
H930 C924 0.930 . S
H931 C925 0.930 . S
C932 N933 1.314 . S
C932 C934 1.353 . S
C932 H938 0.930 . S
N933 Li883 1.990 . S
N933 C932 1.314 . S
N933 C936 1.279 . S
C934 C932 1.353 . S
C934 C937 1.348 . S
C934 H966 0.929 . S
C935 C936 1.358 . S
C935 C937 1.356 . S
C935 H967 0.930 . S
C936 N933 1.279 . S
C936 C935 1.358 . S
C936 H939 0.930 . S
C937 C934 1.348 . S
C937 C935 1.356 . S
H938 C932 0.930 . S
H939 C936 0.930 . S
O940 Li880 1.956 . S
O940 Li881 1.970 . S
O940 Li882 1.961 . S
O940 C884 1.325 . S
O941 Li880 1.970 . S
O941 Li881 1.956 . S
O941 Li883 1.961 . S
O941 C890 1.325 . S
O942 Li880 1.961 . S
O942 Li882 1.956 . S
O942 Li883 1.970 . S
O942 C912 1.325 . S
O943 Li881 1.961 . S
O943 Li882 1.970 . S
O943 Li883 1.956 . S
O943 C918 1.325 . S
H944 C886 0.929 . S
H945 C887 0.930 . S
H946 C888 0.930 . S
H947 C889 0.930 . S
H948 C891 0.930 . S
H949 C893 0.929 . S
H950 C894 0.930 . S
H951 C895 0.930 . S
H952 C898 0.930 . S
H953 C901 0.929 . S
H954 C906 0.929 . S
H955 C907 0.930 . S
H956 C914 0.929 . S
H957 C915 0.930 . S
H958 C916 0.930 . S
H959 C917 0.930 . S
H960 C919 0.929 . S
H961 C920 0.930 . S
H962 C921 0.930 . S
H963 C922 0.930 . S
H964 C926 0.929 . S
H965 C928 0.930 . S
H966 C934 0.929 . S
H967 C935 0.930 . S
Li968 N985 1.990 . S
Li968 O1028 1.956 . S
Li968 O1029 1.970 . S
Li968 O1030 1.961 . S
Li969 N993 1.990 . S
Li969 O1028 1.970 . S
Li969 O1029 1.956 . S
Li969 O1031 1.961 . S
Li970 N1015 1.990 . S
Li970 O1028 1.961 . S
Li970 O1030 1.956 . S
Li970 O1031 1.970 . S
Li971 N1021 1.990 . S
Li971 O1029 1.961 . S
Li971 O1030 1.970 . S
Li971 O1031 1.956 . S
C972 C974 1.348 . S
C972 C975 1.356 . S
C972 O1028 1.325 . S
N973 C976 1.314 . S
N973 C977 1.279 . S
C974 C972 1.348 . S
C974 C976 1.353 . S
C974 H1032 0.929 . S
C975 C972 1.356 . S
C975 C977 1.358 . S
C975 H1033 0.930 . S
C976 N973 1.314 . S
C976 C974 1.353 . S
C976 H1034 0.930 . S
C977 N973 1.279 . S
C977 C975 1.358 . S
C977 H1035 0.930 . S
C978 C981 1.348 . S
C978 C982 1.356 . S
C978 O1029 1.325 . S
C979 N980 1.268 1_556 S
C979 C982 1.373 . S
C979 H1036 0.926 1_556 S
N980 C979 1.268 1_554 S
N980 C983 1.314 . S
C981 C978 1.348 . S
C981 C983 1.353 1_556 S
C981 H1037 0.929 . S
C982 C978 1.356 . S
C982 C979 1.373 . S
C982 H1038 0.930 . S
C983 N980 1.314 . S
C983 C981 1.353 1_554 S
C983 H1039 0.930 . S
C984 N985 1.314 . S
C984 C989 1.353 . S
C984 H990 0.930 . S
N985 Li968 1.990 . S
N985 C984 1.314 . S
N985 C987 1.279 . S
C986 C987 1.358 . S
C986 C988 1.356 . S
C986 H1040 0.930 . S
C987 N985 1.279 . S
C987 C986 1.358 . S
C987 H991 0.930 . S
C988 C986 1.356 . S
C988 C989 1.348 . S
C989 C984 1.353 . S
C989 C988 1.348 . S
C989 H1041 0.929 . S
H990 C984 0.930 . S
H991 C987 0.930 . S
C992 N993 1.314 . S
C992 C994 1.353 . S
C992 H998 0.930 . S
N993 Li969 1.990 . S
N993 C992 1.314 . S
N993 C996 1.279 . S
C994 C992 1.353 . S
C994 C997 1.348 . S
C994 H1042 0.929 . S
C995 C996 1.358 . S
C995 C997 1.356 . S
C995 H1043 0.930 . S
C996 N993 1.279 . S
C996 C995 1.358 . S
C996 H999 0.930 . S
C997 C994 1.348 . S
C997 C995 1.356 . S
H998 C992 0.930 . S
H999 C996 0.930 . S
C1000 C1002 1.348 . S
C1000 C1003 1.356 . S
C1000 O1030 1.325 . S
N1001 C1004 1.314 . S
N1001 C1005 1.279 . S
C1002 C1000 1.348 . S
C1002 C1004 1.353 . S
C1002 H1044 0.929 . S
C1003 C1000 1.356 . S
C1003 C1005 1.358 . S
C1003 H1045 0.930 . S
C1004 N1001 1.314 . S
C1004 C1002 1.353 . S
C1004 H1046 0.930 . S
C1005 N1001 1.279 . S
C1005 C1003 1.358 . S
C1005 H1047 0.930 . S
C1006 C1007 1.348 . S
C1006 C1008 1.356 . S
C1006 O1031 1.325 . S
C1007 C1006 1.348 . S
C1007 C1009 1.353 . S
C1007 H1048 0.929 . S
C1008 C1006 1.356 . S
C1008 C1010 1.358 . S
C1008 H1049 0.930 . S
C1009 C1007 1.353 . S
C1009 N1011 1.314 . S
C1009 H1050 0.930 . S
C1010 C1008 1.358 . S
C1010 N1011 1.279 . S
C1010 H1051 0.930 . S
N1011 C1009 1.314 . S
N1011 C1010 1.279 . S
C1012 C1014 1.353 . S
C1012 N1015 1.314 . S
C1012 H1018 0.930 . S
C1013 N1015 1.279 . S
C1013 C1016 1.358 . S
C1013 H1019 0.930 . S
C1014 C1012 1.353 . S
C1014 C1017 1.348 . S
C1014 H1052 0.929 . S
N1015 Li970 1.990 . S
N1015 C1012 1.314 . S
N1015 C1013 1.279 . S
C1016 C1013 1.358 . S
C1016 C1017 1.356 . S
C1016 H1053 0.930 . S
C1017 C1014 1.348 . S
C1017 C1016 1.356 . S
H1018 C1012 0.930 . S
H1019 C1013 0.930 . S
C1020 N1021 1.314 . S
C1020 C1022 1.353 . S
C1020 H1026 0.930 . S
N1021 Li971 1.990 . S
N1021 C1020 1.314 . S
N1021 C1024 1.279 . S
C1022 C1020 1.353 . S
C1022 C1025 1.348 . S
C1022 H1054 0.929 . S
C1023 C1024 1.358 . S
C1023 C1025 1.356 . S
C1023 H1055 0.930 . S
C1024 N1021 1.279 . S
C1024 C1023 1.358 . S
C1024 H1027 0.930 . S
C1025 C1022 1.348 . S
C1025 C1023 1.356 . S
H1026 C1020 0.930 . S
H1027 C1024 0.930 . S
O1028 Li968 1.956 . S
O1028 Li969 1.970 . S
O1028 Li970 1.961 . S
O1028 C972 1.325 . S
O1029 Li968 1.970 . S
O1029 Li969 1.956 . S
O1029 Li971 1.961 . S
O1029 C978 1.325 . S
O1030 Li968 1.961 . S
O1030 Li970 1.956 . S
O1030 Li971 1.970 . S
O1030 C1000 1.325 . S
O1031 Li969 1.961 . S
O1031 Li970 1.970 . S
O1031 Li971 1.956 . S
O1031 C1006 1.325 . S
H1032 C974 0.929 . S
H1033 C975 0.930 . S
H1034 C976 0.930 . S
H1035 C977 0.930 . S
H1036 C979 0.926 1_554 S
H1037 C981 0.929 . S
H1038 C982 0.930 . S
H1039 C983 0.930 . S
H1040 C986 0.930 . S
H1041 C989 0.929 . S
H1042 C994 0.929 . S
H1043 C995 0.930 . S
H1044 C1002 0.929 . S
H1045 C1003 0.930 . S
H1046 C1004 0.930 . S
H1047 C1005 0.930 . S
H1048 C1007 0.929 . S
H1049 C1008 0.930 . S
H1050 C1009 0.930 . S
H1051 C1010 0.930 . S
H1052 C1014 0.929 . S
H1053 C1016 0.930 . S
H1054 C1022 0.929 . S
H1055 C1023 0.930 . S
Li1056 N1073 1.990 . S
Li1056 O1116 1.956 . S
Li1056 O1117 1.970 . S
Li1056 O1118 1.961 . S
Li1057 N1081 1.990 . S
Li1057 O1116 1.970 . S
Li1057 O1117 1.956 . S
Li1057 O1119 1.961 . S
Li1058 N1103 1.990 . S
Li1058 O1116 1.961 . S
Li1058 O1118 1.956 . S
Li1058 O1119 1.970 . S
Li1059 N1109 1.990 . S
Li1059 O1117 1.961 . S
Li1059 O1118 1.970 . S
Li1059 O1119 1.956 . S
C1060 C1062 1.348 . S
C1060 C1063 1.356 . S
C1060 O1116 1.325 . S
N1061 C1064 1.314 . S
N1061 C1065 1.279 . S
C1062 C1060 1.348 . S
C1062 C1064 1.353 . S
C1062 H1120 0.929 . S
C1063 C1060 1.356 . S
C1063 C1065 1.358 . S
C1063 H1121 0.930 . S
C1064 N1061 1.314 . S
C1064 C1062 1.353 . S
C1064 H1122 0.930 . S
C1065 N1061 1.279 . S
C1065 C1063 1.358 . S
C1065 H1123 0.930 . S
C1066 C1069 1.348 . S
C1066 C1070 1.356 . S
C1066 O1117 1.325 . S
C1067 N1068 1.245 1_556 S
C1067 C1070 1.403 . S
C1067 H1124 0.921 1_556 S
N1068 C1067 1.245 1_554 S
N1068 C1071 1.314 . S
C1069 C1066 1.348 . S
C1069 C1071 1.353 1_556 S
C1069 H1125 0.929 . S
C1070 C1066 1.356 . S
C1070 C1067 1.403 . S
C1070 H1126 0.930 . S
C1071 N1068 1.314 . S
C1071 C1069 1.353 1_554 S
C1071 H1127 0.930 . S
C1072 N1073 1.314 . S
C1072 C1077 1.353 . S
C1072 H1078 0.930 . S
N1073 Li1056 1.990 . S
N1073 C1072 1.314 . S
N1073 C1075 1.279 . S
C1074 C1075 1.358 . S
C1074 C1076 1.356 . S
C1074 H1128 0.930 . S
C1075 N1073 1.279 . S
C1075 C1074 1.358 . S
C1075 H1079 0.930 . S
C1076 C1074 1.356 . S
C1076 C1077 1.348 . S
C1077 C1072 1.353 . S
C1077 C1076 1.348 . S
C1077 H1129 0.929 . S
H1078 C1072 0.930 . S
H1079 C1075 0.930 . S
C1080 N1081 1.314 . S
C1080 C1082 1.353 . S
C1080 H1086 0.930 . S
N1081 Li1057 1.990 . S
N1081 C1080 1.314 . S
N1081 C1084 1.279 . S
C1082 C1080 1.353 . S
C1082 C1085 1.348 . S
C1082 H1130 0.929 . S
C1083 C1084 1.358 . S
C1083 C1085 1.356 . S
C1083 H1131 0.930 . S
C1084 N1081 1.279 . S
C1084 C1083 1.358 . S
C1084 H1087 0.930 . S
C1085 C1082 1.348 . S
C1085 C1083 1.356 . S
H1086 C1080 0.930 . S
H1087 C1084 0.930 . S
C1088 C1090 1.348 . S
C1088 C1091 1.356 . S
C1088 O1118 1.325 . S
N1089 C1092 1.314 . S
N1089 C1093 1.279 . S
C1090 C1088 1.348 . S
C1090 C1092 1.353 . S
C1090 H1132 0.929 . S
C1091 C1088 1.356 . S
C1091 C1093 1.358 . S
C1091 H1133 0.930 . S
C1092 N1089 1.314 . S
C1092 C1090 1.353 . S
C1092 H1134 0.930 . S
C1093 N1089 1.279 . S
C1093 C1091 1.358 . S
C1093 H1135 0.930 . S
C1094 C1095 1.348 . S
C1094 C1096 1.356 . S
C1094 O1119 1.325 . S
C1095 C1094 1.348 . S
C1095 C1097 1.353 . S
C1095 H1136 0.929 . S
C1096 C1094 1.356 . S
C1096 C1098 1.358 . S
C1096 H1137 0.930 . S
C1097 C1095 1.353 . S
C1097 N1099 1.314 . S
C1097 H1138 0.930 . S
C1098 C1096 1.358 . S
C1098 N1099 1.279 . S
C1098 H1139 0.930 . S
N1099 C1097 1.314 . S
N1099 C1098 1.279 . S
C1100 C1102 1.353 . S
C1100 N1103 1.314 . S
C1100 H1106 0.930 . S
C1101 N1103 1.279 . S
C1101 C1104 1.358 . S
C1101 H1107 0.930 . S
C1102 C1100 1.353 . S
C1102 C1105 1.348 . S
C1102 H1140 0.929 . S
N1103 Li1058 1.990 . S
N1103 C1100 1.314 . S
N1103 C1101 1.279 . S
C1104 C1101 1.358 . S
C1104 C1105 1.356 . S
C1104 H1141 0.930 . S
C1105 C1102 1.348 . S
C1105 C1104 1.356 . S
H1106 C1100 0.930 . S
H1107 C1101 0.930 . S
C1108 N1109 1.314 . S
C1108 C1110 1.353 . S
C1108 H1114 0.930 . S
N1109 Li1059 1.990 . S
N1109 C1108 1.314 . S
N1109 C1112 1.279 . S
C1110 C1108 1.353 . S
C1110 C1113 1.348 . S
C1110 H1142 0.929 . S
C1111 C1112 1.358 . S
C1111 C1113 1.356 . S
C1111 H1143 0.930 . S
C1112 N1109 1.279 . S
C1112 C1111 1.358 . S
C1112 H1115 0.930 . S
C1113 C1110 1.348 . S
C1113 C1111 1.356 . S
H1114 C1108 0.930 . S
H1115 C1112 0.930 . S
O1116 Li1056 1.956 . S
O1116 Li1057 1.970 . S
O1116 Li1058 1.961 . S
O1116 C1060 1.325 . S
O1117 Li1056 1.970 . S
O1117 Li1057 1.956 . S
O1117 Li1059 1.961 . S
O1117 C1066 1.325 . S
O1118 Li1056 1.961 . S
O1118 Li1058 1.956 . S
O1118 Li1059 1.970 . S
O1118 C1088 1.325 . S
O1119 Li1057 1.961 . S
O1119 Li1058 1.970 . S
O1119 Li1059 1.956 . S
O1119 C1094 1.325 . S
H1120 C1062 0.929 . S
H1121 C1063 0.930 . S
H1122 C1064 0.930 . S
H1123 C1065 0.930 . S
H1124 C1067 0.921 1_554 S
H1125 C1069 0.929 . S
H1126 C1070 0.930 . S
H1127 C1071 0.930 . S
H1128 C1074 0.930 . S
H1129 C1077 0.929 . S
H1130 C1082 0.929 . S
H1131 C1083 0.930 . S
H1132 C1090 0.929 . S
H1133 C1091 0.930 . S
H1134 C1092 0.930 . S
H1135 C1093 0.930 . S
H1136 C1095 0.929 . S
H1137 C1096 0.930 . S
H1138 C1097 0.930 . S
H1139 C1098 0.930 . S
H1140 C1102 0.929 . S
H1141 C1104 0.930 . S
H1142 C1110 0.929 . S
H1143 C1111 0.930 . S
Li1144 N1161 1.990 . S
Li1144 O1204 1.956 . S
Li1144 O1205 1.970 . S
Li1144 O1206 1.961 . S
Li1145 N1169 1.990 . S
Li1145 O1204 1.970 . S
Li1145 O1205 1.956 . S
Li1145 O1207 1.961 . S
Li1146 N1191 1.990 . S
Li1146 O1204 1.961 . S
Li1146 O1206 1.956 . S
Li1146 O1207 1.970 . S
Li1147 N1197 1.990 . S
Li1147 O1205 1.961 . S
Li1147 O1206 1.970 . S
Li1147 O1207 1.956 . S
C1148 C1150 1.348 . S
C1148 C1151 1.356 . S
C1148 O1204 1.325 . S
N1149 C1152 1.314 . S
N1149 C1153 1.279 . S
C1150 C1148 1.348 . S
C1150 C1152 1.353 . S
C1150 H1208 0.929 . S
C1151 C1148 1.356 . S
C1151 C1153 1.358 . S
C1151 H1209 0.930 . S
C1152 N1149 1.314 . S
C1152 C1150 1.353 . S
C1152 H1210 0.930 . S
C1153 N1149 1.279 . S
C1153 C1151 1.358 . S
C1153 H1211 0.930 . S
C1154 C1157 1.348 . S
C1154 C1158 1.356 . S
C1154 O1205 1.325 . S
C1155 N1156 1.279 . S
C1155 C1158 1.358 . S
C1155 H1212 0.930 . S
N1156 C1155 1.279 . S
N1156 C1159 1.314 . S
C1157 C1154 1.348 . S
C1157 C1159 1.353 . S
C1157 H1213 0.929 . S
C1158 C1154 1.356 . S
C1158 C1155 1.358 . S
C1158 H1214 0.930 . S
C1159 N1156 1.314 . S
C1159 C1157 1.353 . S
C1159 H1215 0.930 . S
C1160 N1161 1.314 . S
C1160 C1165 1.353 . S
C1160 H1166 0.930 . S
N1161 Li1144 1.990 . S
N1161 C1160 1.314 . S
N1161 C1163 1.279 . S
C1162 C1163 1.358 . S
C1162 C1164 1.356 . S
C1162 H1216 0.930 . S
C1163 N1161 1.279 . S
C1163 C1162 1.358 . S
C1163 H1167 0.930 . S
C1164 C1162 1.356 . S
C1164 C1165 1.348 . S
C1165 C1160 1.353 . S
C1165 C1164 1.348 . S
C1165 H1217 0.929 . S
H1166 C1160 0.930 . S
H1167 C1163 0.930 . S
C1168 N1169 1.314 . S
C1168 C1170 1.353 . S
C1168 H1174 0.930 . S
N1169 Li1145 1.990 . S
N1169 C1168 1.314 . S
N1169 C1172 1.279 . S
C1170 C1168 1.353 . S
C1170 C1173 1.348 . S
C1170 H1218 0.929 . S
C1171 C1172 1.358 . S
C1171 C1173 1.356 . S
C1171 H1219 0.930 . S
C1172 N1169 1.279 . S
C1172 C1171 1.358 . S
C1172 H1175 0.930 . S
C1173 C1170 1.348 . S
C1173 C1171 1.356 . S
H1174 C1168 0.930 . S
H1175 C1172 0.930 . S
C1176 C1178 1.348 . S
C1176 C1179 1.356 . S
C1176 O1206 1.325 . S
N1177 C1180 1.314 . S
N1177 C1181 1.279 . S
C1178 C1176 1.348 . S
C1178 C1180 1.353 . S
C1178 H1220 0.929 . S
C1179 C1176 1.356 . S
C1179 C1181 1.358 . S
C1179 H1221 0.930 . S
C1180 N1177 1.314 . S
C1180 C1178 1.353 . S
C1180 H1222 0.930 . S
C1181 N1177 1.279 . S
C1181 C1179 1.358 . S
C1181 H1223 0.930 . S
C1182 C1183 1.348 . S
C1182 C1184 1.356 . S
C1182 O1207 1.325 . S
C1183 C1182 1.348 . S
C1183 C1185 1.353 . S
C1183 H1224 0.929 . S
C1184 C1182 1.356 . S
C1184 C1186 1.358 . S
C1184 H1225 0.930 . S
C1185 C1183 1.353 . S
C1185 N1187 1.314 . S
C1185 H1226 0.930 . S
C1186 C1184 1.358 . S
C1186 N1187 1.279 . S
C1186 H1227 0.930 . S
N1187 C1185 1.314 . S
N1187 C1186 1.279 . S
C1188 C1190 1.353 . S
C1188 N1191 1.314 . S
C1188 H1194 0.930 . S
C1189 N1191 1.279 . S
C1189 C1192 1.358 . S
C1189 H1195 0.930 . S
C1190 C1188 1.353 . S
C1190 C1193 1.348 . S
C1190 H1228 0.929 . S
N1191 Li1146 1.990 . S
N1191 C1188 1.314 . S
N1191 C1189 1.279 . S
C1192 C1189 1.358 . S
C1192 C1193 1.356 . S
C1192 H1229 0.930 . S
C1193 C1190 1.348 . S
C1193 C1192 1.356 . S
H1194 C1188 0.930 . S
H1195 C1189 0.930 . S
C1196 N1197 1.314 . S
C1196 C1198 1.353 . S
C1196 H1202 0.930 . S
N1197 Li1147 1.990 . S
N1197 C1196 1.314 . S
N1197 C1200 1.279 . S
C1198 C1196 1.353 . S
C1198 C1201 1.348 . S
C1198 H1230 0.929 . S
C1199 C1200 1.358 . S
C1199 C1201 1.356 . S
C1199 H1231 0.930 . S
C1200 N1197 1.279 . S
C1200 C1199 1.358 . S
C1200 H1203 0.930 . S
C1201 C1198 1.348 . S
C1201 C1199 1.356 . S
H1202 C1196 0.930 . S
H1203 C1200 0.930 . S
O1204 Li1144 1.956 . S
O1204 Li1145 1.970 . S
O1204 Li1146 1.961 . S
O1204 C1148 1.325 . S
O1205 Li1144 1.970 . S
O1205 Li1145 1.956 . S
O1205 Li1147 1.961 . S
O1205 C1154 1.325 . S
O1206 Li1144 1.961 . S
O1206 Li1146 1.956 . S
O1206 Li1147 1.970 . S
O1206 C1176 1.325 . S
O1207 Li1145 1.961 . S
O1207 Li1146 1.970 . S
O1207 Li1147 1.956 . S
O1207 C1182 1.325 . S
H1208 C1150 0.929 . S
H1209 C1151 0.930 . S
H1210 C1152 0.930 . S
H1211 C1153 0.930 . S
H1212 C1155 0.930 . S
H1213 C1157 0.929 . S
H1214 C1158 0.930 . S
H1215 C1159 0.930 . S
H1216 C1162 0.930 . S
H1217 C1165 0.929 . S
H1218 C1170 0.929 . S
H1219 C1171 0.930 . S
H1220 C1178 0.929 . S
H1221 C1179 0.930 . S
H1222 C1180 0.930 . S
H1223 C1181 0.930 . S
H1224 C1183 0.929 . S
H1225 C1184 0.930 . S
H1226 C1185 0.930 . S
H1227 C1186 0.930 . S
H1228 C1190 0.929 . S
H1229 C1192 0.930 . S
H1230 C1198 0.929 . S
H1231 C1199 0.930 . S
Li1232 N1249 1.990 . S
Li1232 O1292 1.956 . S
Li1232 O1293 1.970 . S
Li1232 O1294 1.961 . S
Li1233 N1257 1.990 . S
Li1233 O1292 1.970 . S
Li1233 O1293 1.956 . S
Li1233 O1295 1.961 . S
Li1234 N1279 1.990 . S
Li1234 O1292 1.961 . S
Li1234 O1294 1.956 . S
Li1234 O1295 1.970 . S
Li1235 N1285 1.990 . S
Li1235 O1293 1.961 . S
Li1235 O1294 1.970 . S
Li1235 O1295 1.956 . S
C1236 C1238 1.348 . S
C1236 C1239 1.356 . S
C1236 O1292 1.325 . S
N1237 C1240 1.314 . S
N1237 C1241 1.247 1_554 S
C1238 C1236 1.348 . S
C1238 C1240 1.353 1_556 S
C1238 H1296 0.929 . S
C1239 C1236 1.356 . S
C1239 C1241 1.400 . S
C1239 H1297 0.930 . S
C1240 N1237 1.314 . S
C1240 C1238 1.353 1_554 S
C1240 H1298 0.930 . S
C1241 N1237 1.247 1_556 S
C1241 C1239 1.400 . S
C1241 H1299 0.921 1_556 S
C1242 C1245 1.348 . S
C1242 C1246 1.356 . S
C1242 O1293 1.325 . S
C1243 N1244 1.279 . S
C1243 C1246 1.358 . S
C1243 H1300 0.930 . S
N1244 C1243 1.279 . S
N1244 C1247 1.314 . S
C1245 C1242 1.348 . S
C1245 C1247 1.353 . S
C1245 H1301 0.929 . S
C1246 C1242 1.356 . S
C1246 C1243 1.358 . S
C1246 H1302 0.930 . S
C1247 N1244 1.314 . S
C1247 C1245 1.353 . S
C1247 H1303 0.930 . S
C1248 N1249 1.314 . S
C1248 C1253 1.353 . S
C1248 H1254 0.930 . S
N1249 Li1232 1.990 . S
N1249 C1248 1.314 . S
N1249 C1251 1.279 . S
C1250 C1251 1.358 . S
C1250 C1252 1.356 . S
C1250 H1304 0.930 . S
C1251 N1249 1.279 . S
C1251 C1250 1.358 . S
C1251 H1255 0.930 . S
C1252 C1250 1.356 . S
C1252 C1253 1.348 . S
C1253 C1248 1.353 . S
C1253 C1252 1.348 . S
C1253 H1305 0.929 . S
H1254 C1248 0.930 . S
H1255 C1251 0.930 . S
C1256 N1257 1.314 . S
C1256 C1258 1.353 . S
C1256 H1262 0.930 . S
N1257 Li1233 1.990 . S
N1257 C1256 1.314 . S
N1257 C1260 1.279 . S
C1258 C1256 1.353 . S
C1258 C1261 1.348 . S
C1258 H1306 0.929 . S
C1259 C1260 1.358 . S
C1259 C1261 1.356 . S
C1259 H1307 0.930 . S
C1260 N1257 1.279 . S
C1260 C1259 1.358 . S
C1260 H1263 0.930 . S
C1261 C1258 1.348 . S
C1261 C1259 1.356 . S
H1262 C1256 0.930 . S
H1263 C1260 0.930 . S
C1264 C1266 1.348 . S
C1264 C1267 1.356 . S
C1264 O1294 1.325 . S
N1265 C1268 1.314 . S
N1265 C1269 1.279 . S
C1266 C1264 1.348 . S
C1266 C1268 1.353 . S
C1266 H1308 0.929 . S
C1267 C1264 1.356 . S
C1267 C1269 1.358 . S
C1267 H1309 0.930 . S
C1268 N1265 1.314 . S
C1268 C1266 1.353 . S
C1268 H1310 0.930 . S
C1269 N1265 1.279 . S
C1269 C1267 1.358 . S
C1269 H1311 0.930 . S
C1270 C1271 1.348 . S
C1270 C1272 1.356 . S
C1270 O1295 1.325 . S
C1271 C1270 1.348 . S
C1271 C1273 1.353 . S
C1271 H1312 0.929 . S
C1272 C1270 1.356 . S
C1272 C1274 1.358 . S
C1272 H1313 0.930 . S
C1273 C1271 1.353 . S
C1273 N1275 1.314 . S
C1273 H1314 0.930 . S
C1274 C1272 1.358 . S
C1274 N1275 1.279 . S
C1274 H1315 0.930 . S
N1275 C1273 1.314 . S
N1275 C1274 1.279 . S
C1276 C1278 1.353 . S
C1276 N1279 1.314 . S
C1276 H1282 0.930 . S
C1277 N1279 1.279 . S
C1277 C1280 1.358 . S
C1277 H1283 0.930 . S
C1278 C1276 1.353 . S
C1278 C1281 1.348 . S
C1278 H1316 0.929 . S
N1279 Li1234 1.990 . S
N1279 C1276 1.314 . S
N1279 C1277 1.279 . S
C1280 C1277 1.358 . S
C1280 C1281 1.356 . S
C1280 H1317 0.930 . S
C1281 C1278 1.348 . S
C1281 C1280 1.356 . S
H1282 C1276 0.930 . S
H1283 C1277 0.930 . S
C1284 N1285 1.314 . S
C1284 C1286 1.353 . S
C1284 H1290 0.930 . S
N1285 Li1235 1.990 . S
N1285 C1284 1.314 . S
N1285 C1288 1.279 . S
C1286 C1284 1.353 . S
C1286 C1289 1.348 . S
C1286 H1318 0.929 . S
C1287 C1288 1.358 . S
C1287 C1289 1.356 . S
C1287 H1319 0.930 . S
C1288 N1285 1.279 . S
C1288 C1287 1.358 . S
C1288 H1291 0.930 . S
C1289 C1286 1.348 . S
C1289 C1287 1.356 . S
H1290 C1284 0.930 . S
H1291 C1288 0.930 . S
O1292 Li1232 1.956 . S
O1292 Li1233 1.970 . S
O1292 Li1234 1.961 . S
O1292 C1236 1.325 . S
O1293 Li1232 1.970 . S
O1293 Li1233 1.956 . S
O1293 Li1235 1.961 . S
O1293 C1242 1.325 . S
O1294 Li1232 1.961 . S
O1294 Li1234 1.956 . S
O1294 Li1235 1.970 . S
O1294 C1264 1.325 . S
O1295 Li1233 1.961 . S
O1295 Li1234 1.970 . S
O1295 Li1235 1.956 . S
O1295 C1270 1.325 . S
H1296 C1238 0.929 . S
H1297 C1239 0.930 . S
H1298 C1240 0.930 . S
H1299 C1241 0.921 1_554 S
H1300 C1243 0.930 . S
H1301 C1245 0.929 . S
H1302 C1246 0.930 . S
H1303 C1247 0.930 . S
H1304 C1250 0.930 . S
H1305 C1253 0.929 . S
H1306 C1258 0.929 . S
H1307 C1259 0.930 . S
H1308 C1266 0.929 . S
H1309 C1267 0.930 . S
H1310 C1268 0.930 . S
H1311 C1269 0.930 . S
H1312 C1271 0.929 . S
H1313 C1272 0.930 . S
H1314 C1273 0.930 . S
H1315 C1274 0.930 . S
H1316 C1278 0.929 . S
H1317 C1280 0.930 . S
H1318 C1286 0.929 . S
H1319 C1287 0.930 . S
Li1320 N1337 1.990 . S
Li1320 O1380 1.956 . S
Li1320 O1381 1.970 . S
Li1320 O1382 1.961 . S
Li1321 N1345 1.990 . S
Li1321 O1380 1.970 . S
Li1321 O1381 1.956 . S
Li1321 O1383 1.961 . S
Li1322 N1367 1.990 . S
Li1322 O1380 1.961 . S
Li1322 O1382 1.956 . S
Li1322 O1383 1.970 . S
Li1323 N1373 1.990 . S
Li1323 O1381 1.961 . S
Li1323 O1382 1.970 . S
Li1323 O1383 1.956 . S
C1324 C1326 1.348 . S
C1324 C1327 1.356 . S
C1324 O1380 1.325 . S
N1325 C1328 1.314 . S
N1325 C1329 1.279 . S
C1326 C1324 1.348 . S
C1326 C1328 1.353 . S
C1326 H1384 0.929 . S
C1327 C1324 1.356 . S
C1327 C1329 1.358 . S
C1327 H1385 0.930 . S
C1328 N1325 1.314 . S
C1328 C1326 1.353 . S
C1328 H1386 0.930 . S
C1329 N1325 1.279 . S
C1329 C1327 1.358 . S
C1329 H1387 0.930 . S
C1330 C1333 1.348 . S
C1330 C1334 1.356 . S
C1330 O1381 1.325 . S
C1331 N1332 1.279 . S
C1331 C1334 1.358 . S
C1331 H1388 0.930 . S
N1332 C1331 1.279 . S
N1332 C1335 1.314 . S
C1333 C1330 1.348 . S
C1333 C1335 1.353 . S
C1333 H1389 0.929 . S
C1334 C1330 1.356 . S
C1334 C1331 1.358 . S
C1334 H1390 0.930 . S
C1335 N1332 1.314 . S
C1335 C1333 1.353 . S
C1335 H1391 0.930 . S
C1336 N1337 1.314 . S
C1336 C1341 1.353 . S
C1336 H1342 0.930 . S
N1337 Li1320 1.990 . S
N1337 C1336 1.314 . S
N1337 C1339 1.279 . S
C1338 C1339 1.358 . S
C1338 C1340 1.356 . S
C1338 H1392 0.930 . S
C1339 N1337 1.279 . S
C1339 C1338 1.358 . S
C1339 H1343 0.930 . S
C1340 C1338 1.356 . S
C1340 C1341 1.348 . S
C1341 C1336 1.353 . S
C1341 C1340 1.348 . S
C1341 H1393 0.929 . S
H1342 C1336 0.930 . S
H1343 C1339 0.930 . S
C1344 N1345 1.314 . S
C1344 C1346 1.353 . S
C1344 H1350 0.930 . S
N1345 Li1321 1.990 . S
N1345 C1344 1.314 . S
N1345 C1348 1.279 . S
C1346 C1344 1.353 . S
C1346 C1349 1.348 . S
C1346 H1394 0.929 . S
C1347 C1348 1.358 . S
C1347 C1349 1.356 . S
C1347 H1395 0.930 . S
C1348 N1345 1.279 . S
C1348 C1347 1.358 . S
C1348 H1351 0.930 . S
C1349 C1346 1.348 . S
C1349 C1347 1.356 . S
H1350 C1344 0.930 . S
H1351 C1348 0.930 . S
C1352 C1354 1.348 . S
C1352 C1355 1.356 . S
C1352 O1382 1.325 . S
N1353 C1356 1.314 . S
N1353 C1357 1.279 . S
C1354 C1352 1.348 . S
C1354 C1356 1.353 . S
C1354 H1396 0.929 . S
C1355 C1352 1.356 . S
C1355 C1357 1.358 . S
C1355 H1397 0.930 . S
C1356 N1353 1.314 . S
C1356 C1354 1.353 . S
C1356 H1398 0.930 . S
C1357 N1353 1.279 . S
C1357 C1355 1.358 . S
C1357 H1399 0.930 . S
C1358 C1359 1.348 . S
C1358 C1360 1.356 . S
C1358 O1383 1.325 . S
C1359 C1358 1.348 . S
C1359 C1361 1.353 . S
C1359 H1400 0.929 . S
C1360 C1358 1.356 . S
C1360 C1362 1.358 . S
C1360 H1401 0.930 . S
C1361 C1359 1.353 . S
C1361 N1363 1.314 . S
C1361 H1402 0.930 . S
C1362 C1360 1.358 . S
C1362 N1363 1.279 . S
C1362 H1403 0.930 . S
N1363 C1361 1.314 . S
N1363 C1362 1.279 . S
C1364 C1366 1.353 . S
C1364 N1367 1.314 . S
C1364 H1370 0.930 . S
C1365 N1367 1.279 . S
C1365 C1368 1.358 . S
C1365 H1371 0.930 . S
C1366 C1364 1.353 . S
C1366 C1369 1.348 . S
C1366 H1404 0.929 . S
N1367 Li1322 1.990 . S
N1367 C1364 1.314 . S
N1367 C1365 1.279 . S
C1368 C1365 1.358 . S
C1368 C1369 1.356 . S
C1368 H1405 0.930 . S
C1369 C1366 1.348 . S
C1369 C1368 1.356 . S
H1370 C1364 0.930 . S
H1371 C1365 0.930 . S
C1372 N1373 1.314 . S
C1372 C1374 1.353 . S
C1372 H1378 0.930 . S
N1373 Li1323 1.990 . S
N1373 C1372 1.314 . S
N1373 C1376 1.279 . S
C1374 C1372 1.353 . S
C1374 C1377 1.348 . S
C1374 H1406 0.929 . S
C1375 C1376 1.358 . S
C1375 C1377 1.356 . S
C1375 H1407 0.930 . S
C1376 N1373 1.279 . S
C1376 C1375 1.358 . S
C1376 H1379 0.930 . S
C1377 C1374 1.348 . S
C1377 C1375 1.356 . S
H1378 C1372 0.930 . S
H1379 C1376 0.930 . S
O1380 Li1320 1.956 . S
O1380 Li1321 1.970 . S
O1380 Li1322 1.961 . S
O1380 C1324 1.325 . S
O1381 Li1320 1.970 . S
O1381 Li1321 1.956 . S
O1381 Li1323 1.961 . S
O1381 C1330 1.325 . S
O1382 Li1320 1.961 . S
O1382 Li1322 1.956 . S
O1382 Li1323 1.970 . S
O1382 C1352 1.325 . S
O1383 Li1321 1.961 . S
O1383 Li1322 1.970 . S
O1383 Li1323 1.956 . S
O1383 C1358 1.325 . S
H1384 C1326 0.929 . S
H1385 C1327 0.930 . S
H1386 C1328 0.930 . S
H1387 C1329 0.930 . S
H1388 C1331 0.930 . S
H1389 C1333 0.929 . S
H1390 C1334 0.930 . S
H1391 C1335 0.930 . S
H1392 C1338 0.930 . S
H1393 C1341 0.929 . S
H1394 C1346 0.929 . S
H1395 C1347 0.930 . S
H1396 C1354 0.929 . S
H1397 C1355 0.930 . S
H1398 C1356 0.930 . S
H1399 C1357 0.930 . S
H1400 C1359 0.929 . S
H1401 C1360 0.930 . S
H1402 C1361 0.930 . S
H1403 C1362 0.930 . S
H1404 C1366 0.929 . S
H1405 C1368 0.930 . S
H1406 C1374 0.929 . S
H1407 C1375 0.930 . S
Li1408 N1425 1.990 . S
Li1408 O1468 1.956 . S
Li1408 O1469 1.970 . S
Li1408 O1470 1.961 . S
Li1409 N1433 1.990 . S
Li1409 O1468 1.970 . S
Li1409 O1469 1.956 . S
Li1409 O1471 1.961 . S
Li1410 N1455 1.990 . S
Li1410 O1468 1.961 . S
Li1410 O1470 1.956 . S
Li1410 O1471 1.970 . S
Li1411 N1461 1.990 . S
Li1411 O1469 1.961 . S
Li1411 O1470 1.970 . S
Li1411 O1471 1.956 . S
C1412 C1414 1.348 . S
C1412 C1415 1.356 . S
C1412 O1468 1.325 . S
N1413 C1416 1.314 . S
N1413 C1417 1.245 1_554 S
C1414 C1412 1.348 . S
C1414 C1416 1.353 1_556 S
C1414 H1472 0.929 . S
C1415 C1412 1.356 . S
C1415 C1417 1.402 . S
C1415 H1473 0.930 . S
C1416 N1413 1.314 . S
C1416 C1414 1.353 1_554 S
C1416 H1474 0.930 . S
C1417 N1413 1.245 1_556 S
C1417 C1415 1.402 . S
C1417 H1475 0.921 1_556 S
C1418 C1421 1.348 . S
C1418 C1422 1.356 . S
C1418 O1469 1.325 . S
C1419 N1420 1.279 . S
C1419 C1422 1.358 . S
C1419 H1476 0.930 . S
N1420 C1419 1.279 . S
N1420 C1423 1.314 . S
C1421 C1418 1.348 . S
C1421 C1423 1.353 . S
C1421 H1477 0.929 . S
C1422 C1418 1.356 . S
C1422 C1419 1.358 . S
C1422 H1478 0.930 . S
C1423 N1420 1.314 . S
C1423 C1421 1.353 . S
C1423 H1479 0.930 . S
C1424 N1425 1.314 . S
C1424 C1429 1.353 . S
C1424 H1430 0.930 . S
N1425 Li1408 1.990 . S
N1425 C1424 1.314 . S
N1425 C1427 1.279 . S
C1426 C1427 1.358 . S
C1426 C1428 1.356 . S
C1426 H1480 0.930 . S
C1427 N1425 1.279 . S
C1427 C1426 1.358 . S
C1427 H1431 0.930 . S
C1428 C1426 1.356 . S
C1428 C1429 1.348 . S
C1429 C1424 1.353 . S
C1429 C1428 1.348 . S
C1429 H1481 0.929 . S
H1430 C1424 0.930 . S
H1431 C1427 0.930 . S
C1432 N1433 1.314 . S
C1432 C1434 1.353 . S
C1432 H1438 0.930 . S
N1433 Li1409 1.990 . S
N1433 C1432 1.314 . S
N1433 C1436 1.279 . S
C1434 C1432 1.353 . S
C1434 C1437 1.348 . S
C1434 H1482 0.929 . S
C1435 C1436 1.358 . S
C1435 C1437 1.356 . S
C1435 H1483 0.930 . S
C1436 N1433 1.279 . S
C1436 C1435 1.358 . S
C1436 H1439 0.930 . S
C1437 C1434 1.348 . S
C1437 C1435 1.356 . S
H1438 C1432 0.930 . S
H1439 C1436 0.930 . S
C1440 C1442 1.348 . S
C1440 C1443 1.356 . S
C1440 O1470 1.325 . S
N1441 C1444 1.314 . S
N1441 C1445 1.279 . S
C1442 C1440 1.348 . S
C1442 C1444 1.353 . S
C1442 H1484 0.929 . S
C1443 C1440 1.356 . S
C1443 C1445 1.358 . S
C1443 H1485 0.930 . S
C1444 N1441 1.314 . S
C1444 C1442 1.353 . S
C1444 H1486 0.930 . S
C1445 N1441 1.279 . S
C1445 C1443 1.358 . S
C1445 H1487 0.930 . S
C1446 C1447 1.348 . S
C1446 C1448 1.356 . S
C1446 O1471 1.325 . S
C1447 C1446 1.348 . S
C1447 C1449 1.353 . S
C1447 H1488 0.929 . S
C1448 C1446 1.356 . S
C1448 C1450 1.358 . S
C1448 H1489 0.930 . S
C1449 C1447 1.353 . S
C1449 N1451 1.314 . S
C1449 H1490 0.930 . S
C1450 C1448 1.358 . S
C1450 N1451 1.279 . S
C1450 H1491 0.930 . S
N1451 C1449 1.314 . S
N1451 C1450 1.279 . S
C1452 C1454 1.353 . S
C1452 N1455 1.314 . S
C1452 H1458 0.930 . S
C1453 N1455 1.279 . S
C1453 C1456 1.358 . S
C1453 H1459 0.930 . S
C1454 C1452 1.353 . S
C1454 C1457 1.348 . S
C1454 H1492 0.929 . S
N1455 Li1410 1.990 . S
N1455 C1452 1.314 . S
N1455 C1453 1.279 . S
C1456 C1453 1.358 . S
C1456 C1457 1.356 . S
C1456 H1493 0.930 . S
C1457 C1454 1.348 . S
C1457 C1456 1.356 . S
H1458 C1452 0.930 . S
H1459 C1453 0.930 . S
C1460 N1461 1.314 . S
C1460 C1462 1.353 . S
C1460 H1466 0.930 . S
N1461 Li1411 1.990 . S
N1461 C1460 1.314 . S
N1461 C1464 1.279 . S
C1462 C1460 1.353 . S
C1462 C1465 1.348 . S
C1462 H1494 0.929 . S
C1463 C1464 1.358 . S
C1463 C1465 1.356 . S
C1463 H1495 0.930 . S
C1464 N1461 1.279 . S
C1464 C1463 1.358 . S
C1464 H1467 0.930 . S
C1465 C1462 1.348 . S
C1465 C1463 1.356 . S
H1466 C1460 0.930 . S
H1467 C1464 0.930 . S
O1468 Li1408 1.956 . S
O1468 Li1409 1.970 . S
O1468 Li1410 1.961 . S
O1468 C1412 1.325 . S
O1469 Li1408 1.970 . S
O1469 Li1409 1.956 . S
O1469 Li1411 1.961 . S
O1469 C1418 1.325 . S
O1470 Li1408 1.961 . S
O1470 Li1410 1.956 . S
O1470 Li1411 1.970 . S
O1470 C1440 1.325 . S
O1471 Li1409 1.961 . S
O1471 Li1410 1.970 . S
O1471 Li1411 1.956 . S
O1471 C1446 1.325 . S
H1472 C1414 0.929 . S
H1473 C1415 0.930 . S
H1474 C1416 0.930 . S
H1475 C1417 0.921 1_554 S
H1476 C1419 0.930 . S
H1477 C1421 0.929 . S
H1478 C1422 0.930 . S
H1479 C1423 0.930 . S
H1480 C1426 0.930 . S
H1481 C1429 0.929 . S
H1482 C1434 0.929 . S
H1483 C1435 0.930 . S
H1484 C1442 0.929 . S
H1485 C1443 0.930 . S
H1486 C1444 0.930 . S
H1487 C1445 0.930 . S
H1488 C1447 0.929 . S
H1489 C1448 0.930 . S
H1490 C1449 0.930 . S
H1491 C1450 0.930 . S
H1492 C1454 0.929 . S
H1493 C1456 0.930 . S
H1494 C1462 0.929 . S
H1495 C1463 0.930 . S
Li1496 N1513 1.990 . S
Li1496 O1556 1.956 . S
Li1496 O1557 1.970 . S
Li1496 O1558 1.961 . S
Li1497 N1521 1.990 . S
Li1497 O1556 1.970 . S
Li1497 O1557 1.956 . S
Li1497 O1559 1.961 . S
Li1498 N1543 1.990 . S
Li1498 O1556 1.961 . S
Li1498 O1558 1.956 . S
Li1498 O1559 1.970 . S
Li1499 N1549 1.990 . S
Li1499 O1557 1.961 . S
Li1499 O1558 1.970 . S
Li1499 O1559 1.956 . S
C1500 C1502 1.348 . S
C1500 C1503 1.356 . S
C1500 O1556 1.325 . S
N1501 C1504 1.314 . S
N1501 C1505 1.279 . S
C1502 C1500 1.348 . S
C1502 C1504 1.353 . S
C1502 H1560 0.929 . S
C1503 C1500 1.356 . S
C1503 C1505 1.358 . S
C1503 H1561 0.930 . S
C1504 N1501 1.314 . S
C1504 C1502 1.353 . S
C1504 H1562 0.930 . S
C1505 N1501 1.279 . S
C1505 C1503 1.358 . S
C1505 H1563 0.930 . S
C1506 C1509 1.348 . S
C1506 C1510 1.356 . S
C1506 O1557 1.325 . S
C1507 N1508 1.279 . S
C1507 C1510 1.358 . S
C1507 H1564 0.930 . S
N1508 C1507 1.279 . S
N1508 C1511 1.314 . S
C1509 C1506 1.348 . S
C1509 C1511 1.353 . S
C1509 H1565 0.929 . S
C1510 C1506 1.356 . S
C1510 C1507 1.358 . S
C1510 H1566 0.930 . S
C1511 N1508 1.314 . S
C1511 C1509 1.353 . S
C1511 H1567 0.930 . S
C1512 N1513 1.314 . S
C1512 C1517 1.353 . S
C1512 H1518 0.930 . S
N1513 Li1496 1.990 . S
N1513 C1512 1.314 . S
N1513 C1515 1.279 . S
C1514 C1515 1.358 . S
C1514 C1516 1.356 . S
C1514 H1568 0.930 . S
C1515 N1513 1.279 . S
C1515 C1514 1.358 . S
C1515 H1519 0.930 . S
C1516 C1514 1.356 . S
C1516 C1517 1.348 . S
C1517 C1512 1.353 . S
C1517 C1516 1.348 . S
C1517 H1569 0.929 . S
H1518 C1512 0.930 . S
H1519 C1515 0.930 . S
C1520 N1521 1.314 . S
C1520 C1522 1.353 . S
C1520 H1526 0.930 . S
N1521 Li1497 1.990 . S
N1521 C1520 1.314 . S
N1521 C1524 1.279 . S
C1522 C1520 1.353 . S
C1522 C1525 1.348 . S
C1522 H1570 0.929 . S
C1523 C1524 1.358 . S
C1523 C1525 1.356 . S
C1523 H1571 0.930 . S
C1524 N1521 1.279 . S
C1524 C1523 1.358 . S
C1524 H1527 0.930 . S
C1525 C1522 1.348 . S
C1525 C1523 1.356 . S
H1526 C1520 0.930 . S
H1527 C1524 0.930 . S
C1528 C1530 1.348 . S
C1528 C1531 1.356 . S
C1528 O1558 1.325 . S
N1529 C1532 1.314 . S
N1529 C1533 1.279 . S
C1530 C1528 1.348 . S
C1530 C1532 1.353 . S
C1530 H1572 0.929 . S
C1531 C1528 1.356 . S
C1531 C1533 1.358 . S
C1531 H1573 0.930 . S
C1532 N1529 1.314 . S
C1532 C1530 1.353 . S
C1532 H1574 0.930 . S
C1533 N1529 1.279 . S
C1533 C1531 1.358 . S
C1533 H1575 0.930 . S
C1534 C1535 1.348 . S
C1534 C1536 1.356 . S
C1534 O1559 1.325 . S
C1535 C1534 1.348 . S
C1535 C1537 1.353 . S
C1535 H1576 0.929 . S
C1536 C1534 1.356 . S
C1536 C1538 1.358 . S
C1536 H1577 0.930 . S
C1537 C1535 1.353 . S
C1537 N1539 1.314 . S
C1537 H1578 0.930 . S
C1538 C1536 1.358 . S
C1538 N1539 1.279 . S
C1538 H1579 0.930 . S
N1539 C1537 1.314 . S
N1539 C1538 1.279 . S
C1540 C1542 1.353 . S
C1540 N1543 1.314 . S
C1540 H1546 0.930 . S
C1541 N1543 1.279 . S
C1541 C1544 1.358 . S
C1541 H1547 0.930 . S
C1542 C1540 1.353 . S
C1542 C1545 1.348 . S
C1542 H1580 0.929 . S
N1543 Li1498 1.990 . S
N1543 C1540 1.314 . S
N1543 C1541 1.279 . S
C1544 C1541 1.358 . S
C1544 C1545 1.356 . S
C1544 H1581 0.930 . S
C1545 C1542 1.348 . S
C1545 C1544 1.356 . S
H1546 C1540 0.930 . S
H1547 C1541 0.930 . S
C1548 N1549 1.314 . S
C1548 C1550 1.353 . S
C1548 H1554 0.930 . S
N1549 Li1499 1.990 . S
N1549 C1548 1.314 . S
N1549 C1552 1.279 . S
C1550 C1548 1.353 . S
C1550 C1553 1.348 . S
C1550 H1582 0.929 . S
C1551 C1552 1.358 . S
C1551 C1553 1.356 . S
C1551 H1583 0.930 . S
C1552 N1549 1.279 . S
C1552 C1551 1.358 . S
C1552 H1555 0.930 . S
C1553 C1550 1.348 . S
C1553 C1551 1.356 . S
H1554 C1548 0.930 . S
H1555 C1552 0.930 . S
O1556 Li1496 1.956 . S
O1556 Li1497 1.970 . S
O1556 Li1498 1.961 . S
O1556 C1500 1.325 . S
O1557 Li1496 1.970 . S
O1557 Li1497 1.956 . S
O1557 Li1499 1.961 . S
O1557 C1506 1.325 . S
O1558 Li1496 1.961 . S
O1558 Li1498 1.956 . S
O1558 Li1499 1.970 . S
O1558 C1528 1.325 . S
O1559 Li1497 1.961 . S
O1559 Li1498 1.970 . S
O1559 Li1499 1.956 . S
O1559 C1534 1.325 . S
H1560 C1502 0.929 . S
H1561 C1503 0.930 . S
H1562 C1504 0.930 . S
H1563 C1505 0.930 . S
H1564 C1507 0.930 . S
H1565 C1509 0.929 . S
H1566 C1510 0.930 . S
H1567 C1511 0.930 . S
H1568 C1514 0.930 . S
H1569 C1517 0.929 . S
H1570 C1522 0.929 . S
H1571 C1523 0.930 . S
H1572 C1530 0.929 . S
H1573 C1531 0.930 . S
H1574 C1532 0.930 . S
H1575 C1533 0.930 . S
H1576 C1535 0.929 . S
H1577 C1536 0.930 . S
H1578 C1537 0.930 . S
H1579 C1538 0.930 . S
H1580 C1542 0.929 . S
H1581 C1544 0.930 . S
H1582 C1550 0.929 . S
H1583 C1551 0.930 . S
Li1584 N1601 1.990 . S
Li1584 O1644 1.956 . S
Li1584 O1645 1.970 . S
Li1584 O1646 1.961 . S
Li1585 N1609 1.990 . S
Li1585 O1644 1.970 . S
Li1585 O1645 1.956 . S
Li1585 O1647 1.961 . S
Li1586 N1631 1.990 . S
Li1586 O1644 1.961 . S
Li1586 O1646 1.956 . S
Li1586 O1647 1.970 . S
Li1587 N1637 1.990 . S
Li1587 O1645 1.961 . S
Li1587 O1646 1.970 . S
Li1587 O1647 1.956 . S
C1588 C1590 1.348 . S
C1588 C1591 1.356 . S
C1588 O1644 1.325 . S
N1589 C1592 1.314 . S
N1589 C1593 1.279 . S
C1590 C1588 1.348 . S
C1590 C1592 1.353 . S
C1590 H1648 0.929 . S
C1591 C1588 1.356 . S
C1591 C1593 1.358 . S
C1591 H1649 0.930 . S
C1592 N1589 1.314 . S
C1592 C1590 1.353 . S
C1592 H1650 0.930 . S
C1593 N1589 1.279 . S
C1593 C1591 1.358 . S
C1593 H1651 0.930 . S
C1594 C1597 1.348 . S
C1594 C1598 1.356 . S
C1594 O1645 1.325 . S
C1595 N1596 1.279 . S
C1595 C1598 1.358 . S
C1595 H1652 0.930 . S
N1596 C1595 1.279 . S
N1596 C1599 1.314 . S
C1597 C1594 1.348 . S
C1597 C1599 1.353 . S
C1597 H1653 0.929 . S
C1598 C1594 1.356 . S
C1598 C1595 1.358 . S
C1598 H1654 0.930 . S
C1599 N1596 1.314 . S
C1599 C1597 1.353 . S
C1599 H1655 0.930 . S
C1600 N1601 1.314 . S
C1600 C1605 1.353 . S
C1600 H1606 0.930 . S
N1601 Li1584 1.990 . S
N1601 C1600 1.314 . S
N1601 C1603 1.279 . S
C1602 C1603 1.358 . S
C1602 C1604 1.356 . S
C1602 H1656 0.930 . S
C1603 N1601 1.279 . S
C1603 C1602 1.358 . S
C1603 H1607 0.930 . S
C1604 C1602 1.356 . S
C1604 C1605 1.348 . S
C1605 C1600 1.353 . S
C1605 C1604 1.348 . S
C1605 H1657 0.929 . S
H1606 C1600 0.930 . S
H1607 C1603 0.930 . S
C1608 N1609 1.314 . S
C1608 C1610 1.353 . S
C1608 H1614 0.930 . S
N1609 Li1585 1.990 . S
N1609 C1608 1.314 . S
N1609 C1612 1.279 . S
C1610 C1608 1.353 . S
C1610 C1613 1.348 . S
C1610 H1658 0.929 . S
C1611 C1612 1.358 . S
C1611 C1613 1.356 . S
C1611 H1659 0.930 . S
C1612 N1609 1.279 . S
C1612 C1611 1.358 . S
C1612 H1615 0.930 . S
C1613 C1610 1.348 . S
C1613 C1611 1.356 . S
H1614 C1608 0.930 . S
H1615 C1612 0.930 . S
C1616 C1618 1.348 . S
C1616 C1619 1.356 . S
C1616 O1646 1.325 . S
N1617 C1620 1.314 . S
N1617 C1621 1.279 . S
C1618 C1616 1.348 . S
C1618 C1620 1.353 . S
C1618 H1660 0.929 . S
C1619 C1616 1.356 . S
C1619 C1621 1.358 . S
C1619 H1661 0.930 . S
C1620 N1617 1.314 . S
C1620 C1618 1.353 . S
C1620 H1662 0.930 . S
C1621 N1617 1.279 . S
C1621 C1619 1.358 . S
C1621 H1663 0.930 . S
C1622 C1623 1.348 . S
C1622 C1624 1.356 . S
C1622 O1647 1.325 . S
C1623 C1622 1.348 . S
C1623 C1625 1.353 . S
C1623 H1664 0.929 . S
C1624 C1622 1.356 . S
C1624 C1626 1.358 . S
C1624 H1665 0.930 . S
C1625 C1623 1.353 . S
C1625 N1627 1.314 . S
C1625 H1666 0.930 . S
C1626 C1624 1.358 . S
C1626 N1627 1.279 . S
C1626 H1667 0.930 . S
N1627 C1625 1.314 . S
N1627 C1626 1.279 . S
C1628 C1630 1.353 . S
C1628 N1631 1.314 . S
C1628 H1634 0.930 . S
C1629 N1631 1.279 . S
C1629 C1632 1.358 . S
C1629 H1635 0.930 . S
C1630 C1628 1.353 . S
C1630 C1633 1.348 . S
C1630 H1668 0.929 . S
N1631 Li1586 1.990 . S
N1631 C1628 1.314 . S
N1631 C1629 1.279 . S
C1632 C1629 1.358 . S
C1632 C1633 1.356 . S
C1632 H1669 0.930 . S
C1633 C1630 1.348 . S
C1633 C1632 1.356 . S
H1634 C1628 0.930 . S
H1635 C1629 0.930 . S
C1636 N1637 1.314 . S
C1636 C1638 1.353 . S
C1636 H1642 0.930 . S
N1637 Li1587 1.990 . S
N1637 C1636 1.314 . S
N1637 C1640 1.279 . S
C1638 C1636 1.353 . S
C1638 C1641 1.348 . S
C1638 H1670 0.929 . S
C1639 C1640 1.358 . S
C1639 C1641 1.356 . S
C1639 H1671 0.930 . S
C1640 N1637 1.279 . S
C1640 C1639 1.358 . S
C1640 H1643 0.930 . S
C1641 C1638 1.348 . S
C1641 C1639 1.356 . S
H1642 C1636 0.930 . S
H1643 C1640 0.930 . S
O1644 Li1584 1.956 . S
O1644 Li1585 1.970 . S
O1644 Li1586 1.961 . S
O1644 C1588 1.325 . S
O1645 Li1584 1.970 . S
O1645 Li1585 1.956 . S
O1645 Li1587 1.961 . S
O1645 C1594 1.325 . S
O1646 Li1584 1.961 . S
O1646 Li1586 1.956 . S
O1646 Li1587 1.970 . S
O1646 C1616 1.325 . S
O1647 Li1585 1.961 . S
O1647 Li1586 1.970 . S
O1647 Li1587 1.956 . S
O1647 C1622 1.325 . S
H1648 C1590 0.929 . S
H1649 C1591 0.930 . S
H1650 C1592 0.930 . S
H1651 C1593 0.930 . S
H1652 C1595 0.930 . S
H1653 C1597 0.929 . S
H1654 C1598 0.930 . S
H1655 C1599 0.930 . S
H1656 C1602 0.930 . S
H1657 C1605 0.929 . S
H1658 C1610 0.929 . S
H1659 C1611 0.930 . S
H1660 C1618 0.929 . S
H1661 C1619 0.930 . S
H1662 C1620 0.930 . S
H1663 C1621 0.930 . S
H1664 C1623 0.929 . S
H1665 C1624 0.930 . S
H1666 C1625 0.930 . S
H1667 C1626 0.930 . S
H1668 C1630 0.929 . S
H1669 C1632 0.930 . S
H1670 C1638 0.929 . S
H1671 C1639 0.930 . S
Li1672 N1689 1.990 . S
Li1672 O1732 1.956 . S
Li1672 O1733 1.970 . S
Li1672 O1734 1.961 . S
Li1673 N1697 1.990 . S
Li1673 O1732 1.970 . S
Li1673 O1733 1.956 . S
Li1673 O1735 1.961 . S
Li1674 N1719 1.990 . S
Li1674 O1732 1.961 . S
Li1674 O1734 1.956 . S
Li1674 O1735 1.970 . S
Li1675 N1725 1.990 . S
Li1675 O1733 1.961 . S
Li1675 O1734 1.970 . S
Li1675 O1735 1.956 . S
C1676 C1678 1.348 . S
C1676 C1679 1.356 . S
C1676 O1732 1.325 . S
N1677 C1680 1.314 . S
N1677 C1681 1.279 . S
C1678 C1676 1.348 . S
C1678 C1680 1.353 . S
C1678 H1736 0.929 . S
C1679 C1676 1.356 . S
C1679 C1681 1.358 . S
C1679 H1737 0.930 . S
C1680 N1677 1.314 . S
C1680 C1678 1.353 . S
C1680 H1738 0.930 . S
C1681 N1677 1.279 . S
C1681 C1679 1.358 . S
C1681 H1739 0.930 . S
C1682 C1685 1.348 . S
C1682 C1686 1.356 . S
C1682 O1733 1.325 . S
C1683 N1684 1.279 . S
C1683 C1686 1.358 . S
C1683 H1740 0.930 . S
N1684 C1683 1.279 . S
N1684 C1687 1.314 . S
C1685 C1682 1.348 . S
C1685 C1687 1.353 . S
C1685 H1741 0.929 . S
C1686 C1682 1.356 . S
C1686 C1683 1.358 . S
C1686 H1742 0.930 . S
C1687 N1684 1.314 . S
C1687 C1685 1.353 . S
C1687 H1743 0.930 . S
C1688 N1689 1.314 . S
C1688 C1693 1.353 . S
C1688 H1694 0.930 . S
N1689 Li1672 1.990 . S
N1689 C1688 1.314 . S
N1689 C1691 1.279 . S
C1690 C1691 1.358 . S
C1690 C1692 1.356 . S
C1690 H1744 0.930 . S
C1691 N1689 1.279 . S
C1691 C1690 1.358 . S
C1691 H1695 0.930 . S
C1692 C1690 1.356 . S
C1692 C1693 1.348 . S
C1693 C1688 1.353 . S
C1693 C1692 1.348 . S
C1693 H1745 0.929 . S
H1694 C1688 0.930 . S
H1695 C1691 0.930 . S
C1696 N1697 1.314 . S
C1696 C1698 1.353 . S
C1696 H1702 0.930 . S
N1697 Li1673 1.990 . S
N1697 C1696 1.314 . S
N1697 C1700 1.279 . S
C1698 C1696 1.353 . S
C1698 C1701 1.348 . S
C1698 H1746 0.929 . S
C1699 C1700 1.358 . S
C1699 C1701 1.356 . S
C1699 H1747 0.930 . S
C1700 N1697 1.279 . S
C1700 C1699 1.358 . S
C1700 H1703 0.930 . S
C1701 C1698 1.348 . S
C1701 C1699 1.356 . S
H1702 C1696 0.930 . S
H1703 C1700 0.930 . S
C1704 C1706 1.348 . S
C1704 C1707 1.356 . S
C1704 O1734 1.325 . S
N1705 C1708 1.314 . S
N1705 C1709 1.247 1_556 S
C1706 C1704 1.348 . S
C1706 C1708 1.353 1_554 S
C1706 H1748 0.929 . S
C1707 C1704 1.356 . S
C1707 C1709 1.400 . S
C1707 H1749 0.930 . S
C1708 N1705 1.314 . S
C1708 C1706 1.353 1_556 S
C1708 H1750 0.930 . S
C1709 N1705 1.247 1_554 S
C1709 C1707 1.400 . S
C1709 H1751 0.921 1_554 S
C1710 C1711 1.348 . S
C1710 C1712 1.356 . S
C1710 O1735 1.325 . S
C1711 C1710 1.348 . S
C1711 C1713 1.353 . S
C1711 H1752 0.929 . S
C1712 C1710 1.356 . S
C1712 C1714 1.358 . S
C1712 H1753 0.930 . S
C1713 C1711 1.353 . S
C1713 N1715 1.314 . S
C1713 H1754 0.930 . S
C1714 C1712 1.358 . S
C1714 N1715 1.279 . S
C1714 H1755 0.930 . S
N1715 C1713 1.314 . S
N1715 C1714 1.279 . S
C1716 C1718 1.353 . S
C1716 N1719 1.314 . S
C1716 H1722 0.930 . S
C1717 N1719 1.279 . S
C1717 C1720 1.358 . S
C1717 H1723 0.930 . S
C1718 C1716 1.353 . S
C1718 C1721 1.348 . S
C1718 H1756 0.929 . S
N1719 Li1674 1.990 . S
N1719 C1716 1.314 . S
N1719 C1717 1.279 . S
C1720 C1717 1.358 . S
C1720 C1721 1.356 . S
C1720 H1757 0.930 . S
C1721 C1718 1.348 . S
C1721 C1720 1.356 . S
H1722 C1716 0.930 . S
H1723 C1717 0.930 . S
C1724 N1725 1.314 . S
C1724 C1726 1.353 . S
C1724 H1730 0.930 . S
N1725 Li1675 1.990 . S
N1725 C1724 1.314 . S
N1725 C1728 1.279 . S
C1726 C1724 1.353 . S
C1726 C1729 1.348 . S
C1726 H1758 0.929 . S
C1727 C1728 1.358 . S
C1727 C1729 1.356 . S
C1727 H1759 0.930 . S
C1728 N1725 1.279 . S
C1728 C1727 1.358 . S
C1728 H1731 0.930 . S
C1729 C1726 1.348 . S
C1729 C1727 1.356 . S
H1730 C1724 0.930 . S
H1731 C1728 0.930 . S
O1732 Li1672 1.956 . S
O1732 Li1673 1.970 . S
O1732 Li1674 1.961 . S
O1732 C1676 1.325 . S
O1733 Li1672 1.970 . S
O1733 Li1673 1.956 . S
O1733 Li1675 1.961 . S
O1733 C1682 1.325 . S
O1734 Li1672 1.961 . S
O1734 Li1674 1.956 . S
O1734 Li1675 1.970 . S
O1734 C1704 1.325 . S
O1735 Li1673 1.961 . S
O1735 Li1674 1.970 . S
O1735 Li1675 1.956 . S
O1735 C1710 1.325 . S
H1736 C1678 0.929 . S
H1737 C1679 0.930 . S
H1738 C1680 0.930 . S
H1739 C1681 0.930 . S
H1740 C1683 0.930 . S
H1741 C1685 0.929 . S
H1742 C1686 0.930 . S
H1743 C1687 0.930 . S
H1744 C1690 0.930 . S
H1745 C1693 0.929 . S
H1746 C1698 0.929 . S
H1747 C1699 0.930 . S
H1748 C1706 0.929 . S
H1749 C1707 0.930 . S
H1750 C1708 0.930 . S
H1751 C1709 0.921 1_556 S
H1752 C1711 0.929 . S
H1753 C1712 0.930 . S
H1754 C1713 0.930 . S
H1755 C1714 0.930 . S
H1756 C1718 0.929 . S
H1757 C1720 0.930 . S
H1758 C1726 0.929 . S
H1759 C1727 0.930 . S
Li1760 N1777 1.990 . S
Li1760 O1820 1.956 . S
Li1760 O1821 1.970 . S
Li1760 O1822 1.961 . S
Li1761 N1785 1.990 . S
Li1761 O1820 1.970 . S
Li1761 O1821 1.956 . S
Li1761 O1823 1.961 . S
Li1762 N1807 1.990 . S
Li1762 O1820 1.961 . S
Li1762 O1822 1.956 . S
Li1762 O1823 1.970 . S
Li1763 N1813 1.990 . S
Li1763 O1821 1.961 . S
Li1763 O1822 1.970 . S
Li1763 O1823 1.956 . S
C1764 C1766 1.348 . S
C1764 C1767 1.356 . S
C1764 O1820 1.325 . S
N1765 C1768 1.314 . S
N1765 C1769 1.279 . S
C1766 C1764 1.348 . S
C1766 C1768 1.353 . S
C1766 H1824 0.929 . S
C1767 C1764 1.356 . S
C1767 C1769 1.358 . S
C1767 H1825 0.930 . S
C1768 N1765 1.314 . S
C1768 C1766 1.353 . S
C1768 H1826 0.930 . S
C1769 N1765 1.279 . S
C1769 C1767 1.358 . S
C1769 H1827 0.930 . S
C1770 C1773 1.348 . S
C1770 C1774 1.356 . S
C1770 O1821 1.325 . S
C1771 N1772 1.279 . S
C1771 C1774 1.358 . S
C1771 H1828 0.930 . S
N1772 C1771 1.279 . S
N1772 C1775 1.314 . S
C1773 C1770 1.348 . S
C1773 C1775 1.353 . S
C1773 H1829 0.929 . S
C1774 C1770 1.356 . S
C1774 C1771 1.358 . S
C1774 H1830 0.930 . S
C1775 N1772 1.314 . S
C1775 C1773 1.353 . S
C1775 H1831 0.930 . S
C1776 N1777 1.314 . S
C1776 C1781 1.353 . S
C1776 H1782 0.930 . S
N1777 Li1760 1.990 . S
N1777 C1776 1.314 . S
N1777 C1779 1.279 . S
C1778 C1779 1.358 . S
C1778 C1780 1.356 . S
C1778 H1832 0.930 . S
C1779 N1777 1.279 . S
C1779 C1778 1.358 . S
C1779 H1783 0.930 . S
C1780 C1778 1.356 . S
C1780 C1781 1.348 . S
C1781 C1776 1.353 . S
C1781 C1780 1.348 . S
C1781 H1833 0.929 . S
H1782 C1776 0.930 . S
H1783 C1779 0.930 . S
C1784 N1785 1.314 . S
C1784 C1786 1.353 . S
C1784 H1790 0.930 . S
N1785 Li1761 1.990 . S
N1785 C1784 1.314 . S
N1785 C1788 1.279 . S
C1786 C1784 1.353 . S
C1786 C1789 1.348 . S
C1786 H1834 0.929 . S
C1787 C1788 1.358 . S
C1787 C1789 1.356 . S
C1787 H1835 0.930 . S
C1788 N1785 1.279 . S
C1788 C1787 1.358 . S
C1788 H1791 0.930 . S
C1789 C1786 1.348 . S
C1789 C1787 1.356 . S
H1790 C1784 0.930 . S
H1791 C1788 0.930 . S
C1792 C1794 1.348 . S
C1792 C1795 1.356 . S
C1792 O1822 1.325 . S
N1793 C1796 1.314 . S
N1793 C1797 1.279 . S
C1794 C1792 1.348 . S
C1794 C1796 1.353 . S
C1794 H1836 0.929 . S
C1795 C1792 1.356 . S
C1795 C1797 1.358 . S
C1795 H1837 0.930 . S
C1796 N1793 1.314 . S
C1796 C1794 1.353 . S
C1796 H1838 0.930 . S
C1797 N1793 1.279 . S
C1797 C1795 1.358 . S
C1797 H1839 0.930 . S
C1798 C1799 1.348 . S
C1798 C1800 1.356 . S
C1798 O1823 1.325 . S
C1799 C1798 1.348 . S
C1799 C1801 1.353 . S
C1799 H1840 0.929 . S
C1800 C1798 1.356 . S
C1800 C1802 1.358 . S
C1800 H1841 0.930 . S
C1801 C1799 1.353 . S
C1801 N1803 1.314 . S
C1801 H1842 0.930 . S
C1802 C1800 1.358 . S
C1802 N1803 1.279 . S
C1802 H1843 0.930 . S
N1803 C1801 1.314 . S
N1803 C1802 1.279 . S
C1804 C1806 1.353 . S
C1804 N1807 1.314 . S
C1804 H1810 0.930 . S
C1805 N1807 1.279 . S
C1805 C1808 1.358 . S
C1805 H1811 0.930 . S
C1806 C1804 1.353 . S
C1806 C1809 1.348 . S
C1806 H1844 0.929 . S
N1807 Li1762 1.990 . S
N1807 C1804 1.314 . S
N1807 C1805 1.279 . S
C1808 C1805 1.358 . S
C1808 C1809 1.356 . S
C1808 H1845 0.930 . S
C1809 C1806 1.348 . S
C1809 C1808 1.356 . S
H1810 C1804 0.930 . S
H1811 C1805 0.930 . S
C1812 N1813 1.314 . S
C1812 C1814 1.353 . S
C1812 H1818 0.930 . S
N1813 Li1763 1.990 . S
N1813 C1812 1.314 . S
N1813 C1816 1.279 . S
C1814 C1812 1.353 . S
C1814 C1817 1.348 . S
C1814 H1846 0.929 . S
C1815 C1816 1.358 . S
C1815 C1817 1.356 . S
C1815 H1847 0.930 . S
C1816 N1813 1.279 . S
C1816 C1815 1.358 . S
C1816 H1819 0.930 . S
C1817 C1814 1.348 . S
C1817 C1815 1.356 . S
H1818 C1812 0.930 . S
H1819 C1816 0.930 . S
O1820 Li1760 1.956 . S
O1820 Li1761 1.970 . S
O1820 Li1762 1.961 . S
O1820 C1764 1.325 . S
O1821 Li1760 1.970 . S
O1821 Li1761 1.956 . S
O1821 Li1763 1.961 . S
O1821 C1770 1.325 . S
O1822 Li1760 1.961 . S
O1822 Li1762 1.956 . S
O1822 Li1763 1.970 . S
O1822 C1792 1.325 . S
O1823 Li1761 1.961 . S
O1823 Li1762 1.970 . S
O1823 Li1763 1.956 . S
O1823 C1798 1.325 . S
H1824 C1766 0.929 . S
H1825 C1767 0.930 . S
H1826 C1768 0.930 . S
H1827 C1769 0.930 . S
H1828 C1771 0.930 . S
H1829 C1773 0.929 . S
H1830 C1774 0.930 . S
H1831 C1775 0.930 . S
H1832 C1778 0.930 . S
H1833 C1781 0.929 . S
H1834 C1786 0.929 . S
H1835 C1787 0.930 . S
H1836 C1794 0.929 . S
H1837 C1795 0.930 . S
H1838 C1796 0.930 . S
H1839 C1797 0.930 . S
H1840 C1799 0.929 . S
H1841 C1800 0.930 . S
H1842 C1801 0.930 . S
H1843 C1802 0.930 . S
H1844 C1806 0.929 . S
H1845 C1808 0.930 . S
H1846 C1814 0.929 . S
H1847 C1815 0.930 . S
Li1848 N1865 1.990 . S
Li1848 O1908 1.956 . S
Li1848 O1909 1.970 . S
Li1848 O1910 1.961 . S
Li1849 N1873 1.990 . S
Li1849 O1908 1.970 . S
Li1849 O1909 1.956 . S
Li1849 O1911 1.961 . S
Li1850 N1895 1.990 . S
Li1850 O1908 1.961 . S
Li1850 O1910 1.956 . S
Li1850 O1911 1.970 . S
Li1851 N1901 1.990 . S
Li1851 O1909 1.961 . S
Li1851 O1910 1.970 . S
Li1851 O1911 1.956 . S
C1852 C1854 1.348 . S
C1852 C1855 1.356 . S
C1852 O1908 1.325 . S
N1853 C1856 1.314 . S
N1853 C1857 1.279 . S
C1854 C1852 1.348 . S
C1854 C1856 1.353 . S
C1854 H1912 0.929 . S
C1855 C1852 1.356 . S
C1855 C1857 1.358 . S
C1855 H1913 0.930 . S
C1856 N1853 1.314 . S
C1856 C1854 1.353 . S
C1856 H1914 0.930 . S
C1857 N1853 1.279 . S
C1857 C1855 1.358 . S
C1857 H1915 0.930 . S
C1858 C1861 1.348 . S
C1858 C1862 1.356 . S
C1858 O1909 1.325 . S
C1859 N1860 1.279 . S
C1859 C1862 1.358 . S
C1859 H1916 0.930 . S
N1860 C1859 1.279 . S
N1860 C1863 1.314 . S
C1861 C1858 1.348 . S
C1861 C1863 1.353 . S
C1861 H1917 0.929 . S
C1862 C1858 1.356 . S
C1862 C1859 1.358 . S
C1862 H1918 0.930 . S
C1863 N1860 1.314 . S
C1863 C1861 1.353 . S
C1863 H1919 0.930 . S
C1864 N1865 1.314 . S
C1864 C1869 1.353 . S
C1864 H1870 0.930 . S
N1865 Li1848 1.990 . S
N1865 C1864 1.314 . S
N1865 C1867 1.279 . S
C1866 C1867 1.358 . S
C1866 C1868 1.356 . S
C1866 H1920 0.930 . S
C1867 N1865 1.279 . S
C1867 C1866 1.358 . S
C1867 H1871 0.930 . S
C1868 C1866 1.356 . S
C1868 C1869 1.348 . S
C1869 C1864 1.353 . S
C1869 C1868 1.348 . S
C1869 H1921 0.929 . S
H1870 C1864 0.930 . S
H1871 C1867 0.930 . S
C1872 N1873 1.314 . S
C1872 C1874 1.353 . S
C1872 H1878 0.930 . S
N1873 Li1849 1.990 . S
N1873 C1872 1.314 . S
N1873 C1876 1.279 . S
C1874 C1872 1.353 . S
C1874 C1877 1.348 . S
C1874 H1922 0.929 . S
C1875 C1876 1.358 . S
C1875 C1877 1.356 . S
C1875 H1923 0.930 . S
C1876 N1873 1.279 . S
C1876 C1875 1.358 . S
C1876 H1879 0.930 . S
C1877 C1874 1.348 . S
C1877 C1875 1.356 . S
H1878 C1872 0.930 . S
H1879 C1876 0.930 . S
C1880 C1882 1.348 . S
C1880 C1883 1.356 . S
C1880 O1910 1.325 . S
N1881 C1884 1.314 . S
N1881 C1885 1.279 . S
C1882 C1880 1.348 . S
C1882 C1884 1.353 . S
C1882 H1924 0.929 . S
C1883 C1880 1.356 . S
C1883 C1885 1.358 . S
C1883 H1925 0.930 . S
C1884 N1881 1.314 . S
C1884 C1882 1.353 . S
C1884 H1926 0.930 . S
C1885 N1881 1.279 . S
C1885 C1883 1.358 . S
C1885 H1927 0.930 . S
C1886 C1887 1.348 . S
C1886 C1888 1.356 . S
C1886 O1911 1.325 . S
C1887 C1886 1.348 . S
C1887 C1889 1.353 1_554 S
C1887 H1928 0.929 . S
C1888 C1886 1.356 . S
C1888 C1890 1.403 . S
C1888 H1929 0.930 . S
C1889 C1887 1.353 1_556 S
C1889 N1891 1.314 . S
C1889 H1930 0.930 . S
C1890 C1888 1.403 . S
C1890 N1891 1.245 1_554 S
C1890 H1931 0.921 1_554 S
N1891 C1889 1.314 . S
N1891 C1890 1.245 1_556 S
C1892 C1894 1.353 . S
C1892 N1895 1.314 . S
C1892 H1898 0.930 . S
C1893 N1895 1.279 . S
C1893 C1896 1.358 . S
C1893 H1899 0.930 . S
C1894 C1892 1.353 . S
C1894 C1897 1.348 . S
C1894 H1932 0.929 . S
N1895 Li1850 1.990 . S
N1895 C1892 1.314 . S
N1895 C1893 1.279 . S
C1896 C1893 1.358 . S
C1896 C1897 1.356 . S
C1896 H1933 0.930 . S
C1897 C1894 1.348 . S
C1897 C1896 1.356 . S
H1898 C1892 0.930 . S
H1899 C1893 0.930 . S
C1900 N1901 1.314 . S
C1900 C1902 1.353 . S
C1900 H1906 0.930 . S
N1901 Li1851 1.990 . S
N1901 C1900 1.314 . S
N1901 C1904 1.279 . S
C1902 C1900 1.353 . S
C1902 C1905 1.348 . S
C1902 H1934 0.929 . S
C1903 C1904 1.358 . S
C1903 C1905 1.356 . S
C1903 H1935 0.930 . S
C1904 N1901 1.279 . S
C1904 C1903 1.358 . S
C1904 H1907 0.930 . S
C1905 C1902 1.348 . S
C1905 C1903 1.356 . S
H1906 C1900 0.930 . S
H1907 C1904 0.930 . S
O1908 Li1848 1.956 . S
O1908 Li1849 1.970 . S
O1908 Li1850 1.961 . S
O1908 C1852 1.325 . S
O1909 Li1848 1.970 . S
O1909 Li1849 1.956 . S
O1909 Li1851 1.961 . S
O1909 C1858 1.325 . S
O1910 Li1848 1.961 . S
O1910 Li1850 1.956 . S
O1910 Li1851 1.970 . S
O1910 C1880 1.325 . S
O1911 Li1849 1.961 . S
O1911 Li1850 1.970 . S
O1911 Li1851 1.956 . S
O1911 C1886 1.325 . S
H1912 C1854 0.929 . S
H1913 C1855 0.930 . S
H1914 C1856 0.930 . S
H1915 C1857 0.930 . S
H1916 C1859 0.930 . S
H1917 C1861 0.929 . S
H1918 C1862 0.930 . S
H1919 C1863 0.930 . S
H1920 C1866 0.930 . S
H1921 C1869 0.929 . S
H1922 C1874 0.929 . S
H1923 C1875 0.930 . S
H1924 C1882 0.929 . S
H1925 C1883 0.930 . S
H1926 C1884 0.930 . S
H1927 C1885 0.930 . S
H1928 C1887 0.929 . S
H1929 C1888 0.930 . S
H1930 C1889 0.930 . S
H1931 C1890 0.921 1_556 S
H1932 C1894 0.929 . S
H1933 C1896 0.930 . S
H1934 C1902 0.929 . S
H1935 C1903 0.930 . S
Li1936 N1953 1.990 . S
Li1936 O1996 1.956 . S
Li1936 O1997 1.970 . S
Li1936 O1998 1.961 . S
Li1937 N1961 1.990 . S
Li1937 O1996 1.970 . S
Li1937 O1997 1.956 . S
Li1937 O1999 1.961 . S
Li1938 N1983 1.990 . S
Li1938 O1996 1.961 . S
Li1938 O1998 1.956 . S
Li1938 O1999 1.970 . S
Li1939 N1989 1.990 . S
Li1939 O1997 1.961 . S
Li1939 O1998 1.970 . S
Li1939 O1999 1.956 . S
C1940 C1942 1.348 . S
C1940 C1943 1.356 . S
C1940 O1996 1.325 . S
N1941 C1944 1.314 . S
N1941 C1945 1.279 . S
C1942 C1940 1.348 . S
C1942 C1944 1.353 . S
C1942 H2000 0.929 . S
C1943 C1940 1.356 . S
C1943 C1945 1.358 . S
C1943 H2001 0.930 . S
C1944 N1941 1.314 . S
C1944 C1942 1.353 . S
C1944 H2002 0.930 . S
C1945 N1941 1.279 . S
C1945 C1943 1.358 . S
C1945 H2003 0.930 . S
C1946 C1949 1.348 . S
C1946 C1950 1.356 . S
C1946 O1997 1.325 . S
C1947 N1948 1.279 . S
C1947 C1950 1.358 . S
C1947 H2004 0.930 . S
N1948 C1947 1.279 . S
N1948 C1951 1.314 . S
C1949 C1946 1.348 . S
C1949 C1951 1.353 . S
C1949 H2005 0.929 . S
C1950 C1946 1.356 . S
C1950 C1947 1.358 . S
C1950 H2006 0.930 . S
C1951 N1948 1.314 . S
C1951 C1949 1.353 . S
C1951 H2007 0.930 . S
C1952 N1953 1.314 . S
C1952 C1957 1.353 . S
C1952 H1958 0.930 . S
N1953 Li1936 1.990 . S
N1953 C1952 1.314 . S
N1953 C1955 1.279 . S
C1954 C1955 1.358 . S
C1954 C1956 1.356 . S
C1954 H2008 0.930 . S
C1955 N1953 1.279 . S
C1955 C1954 1.358 . S
C1955 H1959 0.930 . S
C1956 C1954 1.356 . S
C1956 C1957 1.348 . S
C1957 C1952 1.353 . S
C1957 C1956 1.348 . S
C1957 H2009 0.929 . S
H1958 C1952 0.930 . S
H1959 C1955 0.930 . S
C1960 N1961 1.314 . S
C1960 C1962 1.353 . S
C1960 H1966 0.930 . S
N1961 Li1937 1.990 . S
N1961 C1960 1.314 . S
N1961 C1964 1.279 . S
C1962 C1960 1.353 . S
C1962 C1965 1.348 . S
C1962 H2010 0.929 . S
C1963 C1964 1.358 . S
C1963 C1965 1.356 . S
C1963 H2011 0.930 . S
C1964 N1961 1.279 . S
C1964 C1963 1.358 . S
C1964 H1967 0.930 . S
C1965 C1962 1.348 . S
C1965 C1963 1.356 . S
H1966 C1960 0.930 . S
H1967 C1964 0.930 . S
C1968 C1970 1.348 . S
C1968 C1971 1.356 . S
C1968 O1998 1.325 . S
N1969 C1972 1.314 . S
N1969 C1973 1.279 . S
C1970 C1968 1.348 . S
C1970 C1972 1.353 . S
C1970 H2012 0.929 . S
C1971 C1968 1.356 . S
C1971 C1973 1.358 . S
C1971 H2013 0.930 . S
C1972 N1969 1.314 . S
C1972 C1970 1.353 . S
C1972 H2014 0.930 . S
C1973 N1969 1.279 . S
C1973 C1971 1.358 . S
C1973 H2015 0.930 . S
C1974 C1975 1.348 . S
C1974 C1976 1.356 . S
C1974 O1999 1.325 . S
C1975 C1974 1.348 . S
C1975 C1977 1.353 . S
C1975 H2016 0.929 . S
C1976 C1974 1.356 . S
C1976 C1978 1.358 . S
C1976 H2017 0.930 . S
C1977 C1975 1.353 . S
C1977 N1979 1.314 . S
C1977 H2018 0.930 . S
C1978 C1976 1.358 . S
C1978 N1979 1.279 . S
C1978 H2019 0.930 . S
N1979 C1977 1.314 . S
N1979 C1978 1.279 . S
C1980 C1982 1.353 . S
C1980 N1983 1.314 . S
C1980 H1986 0.930 . S
C1981 N1983 1.279 . S
C1981 C1984 1.358 . S
C1981 H1987 0.930 . S
C1982 C1980 1.353 . S
C1982 C1985 1.348 . S
C1982 H2020 0.929 . S
N1983 Li1938 1.990 . S
N1983 C1980 1.314 . S
N1983 C1981 1.279 . S
C1984 C1981 1.358 . S
C1984 C1985 1.356 . S
C1984 H2021 0.930 . S
C1985 C1982 1.348 . S
C1985 C1984 1.356 . S
H1986 C1980 0.930 . S
H1987 C1981 0.930 . S
C1988 N1989 1.314 . S
C1988 C1990 1.353 . S
C1988 H1994 0.930 . S
N1989 Li1939 1.990 . S
N1989 C1988 1.314 . S
N1989 C1992 1.279 . S
C1990 C1988 1.353 . S
C1990 C1993 1.348 . S
C1990 H2022 0.929 . S
C1991 C1992 1.358 . S
C1991 C1993 1.356 . S
C1991 H2023 0.930 . S
C1992 N1989 1.279 . S
C1992 C1991 1.358 . S
C1992 H1995 0.930 . S
C1993 C1990 1.348 . S
C1993 C1991 1.356 . S
H1994 C1988 0.930 . S
H1995 C1992 0.930 . S
O1996 Li1936 1.956 . S
O1996 Li1937 1.970 . S
O1996 Li1938 1.961 . S
O1996 C1940 1.325 . S
O1997 Li1936 1.970 . S
O1997 Li1937 1.956 . S
O1997 Li1939 1.961 . S
O1997 C1946 1.325 . S
O1998 Li1936 1.961 . S
O1998 Li1938 1.956 . S
O1998 Li1939 1.970 . S
O1998 C1968 1.325 . S
O1999 Li1937 1.961 . S
O1999 Li1938 1.970 . S
O1999 Li1939 1.956 . S
O1999 C1974 1.325 . S
H2000 C1942 0.929 . S
H2001 C1943 0.930 . S
H2002 C1944 0.930 . S
H2003 C1945 0.930 . S
H2004 C1947 0.930 . S
H2005 C1949 0.929 . S
H2006 C1950 0.930 . S
H2007 C1951 0.930 . S
H2008 C1954 0.930 . S
H2009 C1957 0.929 . S
H2010 C1962 0.929 . S
H2011 C1963 0.930 . S
H2012 C1970 0.929 . S
H2013 C1971 0.930 . S
H2014 C1972 0.930 . S
H2015 C1973 0.930 . S
H2016 C1975 0.929 . S
H2017 C1976 0.930 . S
H2018 C1977 0.930 . S
H2019 C1978 0.930 . S
H2020 C1982 0.929 . S
H2021 C1984 0.930 . S
H2022 C1990 0.929 . S
H2023 C1991 0.930 . S
Li2024 N2041 1.990 . S
Li2024 O2084 1.956 . S
Li2024 O2085 1.970 . S
Li2024 O2086 1.961 . S
Li2025 N2049 1.990 . S
Li2025 O2084 1.970 . S
Li2025 O2085 1.956 . S
Li2025 O2087 1.961 . S
Li2026 N2071 1.990 . S
Li2026 O2084 1.961 . S
Li2026 O2086 1.956 . S
Li2026 O2087 1.970 . S
Li2027 N2077 1.990 . S
Li2027 O2085 1.961 . S
Li2027 O2086 1.970 . S
Li2027 O2087 1.956 . S
C2028 C2030 1.348 . S
C2028 C2031 1.356 . S
C2028 O2084 1.325 . S
N2029 C2032 1.314 . S
N2029 C2033 1.279 . S
C2030 C2028 1.348 . S
C2030 C2032 1.353 . S
C2030 H2088 0.929 . S
C2031 C2028 1.356 . S
C2031 C2033 1.358 . S
C2031 H2089 0.930 . S
C2032 N2029 1.314 . S
C2032 C2030 1.353 . S
C2032 H2090 0.930 . S
C2033 N2029 1.279 . S
C2033 C2031 1.358 . S
C2033 H2091 0.930 . S
C2034 C2037 1.348 . S
C2034 C2038 1.356 . S
C2034 O2085 1.325 . S
C2035 N2036 1.279 . S
C2035 C2038 1.358 . S
C2035 H2092 0.930 . S
N2036 C2035 1.279 . S
N2036 C2039 1.314 . S
C2037 C2034 1.348 . S
C2037 C2039 1.353 . S
C2037 H2093 0.929 . S
C2038 C2034 1.356 . S
C2038 C2035 1.358 . S
C2038 H2094 0.930 . S
C2039 N2036 1.314 . S
C2039 C2037 1.353 . S
C2039 H2095 0.930 . S
C2040 N2041 1.314 . S
C2040 C2045 1.353 . S
C2040 H2046 0.930 . S
N2041 Li2024 1.990 . S
N2041 C2040 1.314 . S
N2041 C2043 1.279 . S
C2042 C2043 1.358 . S
C2042 C2044 1.356 . S
C2042 H2096 0.930 . S
C2043 N2041 1.279 . S
C2043 C2042 1.358 . S
C2043 H2047 0.930 . S
C2044 C2042 1.356 . S
C2044 C2045 1.348 . S
C2045 C2040 1.353 . S
C2045 C2044 1.348 . S
C2045 H2097 0.929 . S
H2046 C2040 0.930 . S
H2047 C2043 0.930 . S
C2048 N2049 1.314 . S
C2048 C2050 1.353 . S
C2048 H2054 0.930 . S
N2049 Li2025 1.990 . S
N2049 C2048 1.314 . S
N2049 C2052 1.279 . S
C2050 C2048 1.353 . S
C2050 C2053 1.348 . S
C2050 H2098 0.929 . S
C2051 C2052 1.358 . S
C2051 C2053 1.356 . S
C2051 H2099 0.930 . S
C2052 N2049 1.279 . S
C2052 C2051 1.358 . S
C2052 H2055 0.930 . S
C2053 C2050 1.348 . S
C2053 C2051 1.356 . S
H2054 C2048 0.930 . S
H2055 C2052 0.930 . S
C2056 C2058 1.348 . S
C2056 C2059 1.356 . S
C2056 O2086 1.325 . S
N2057 C2060 1.314 . S
N2057 C2061 1.279 . S
C2058 C2056 1.348 . S
C2058 C2060 1.353 . S
C2058 H2100 0.929 . S
C2059 C2056 1.356 . S
C2059 C2061 1.358 . S
C2059 H2101 0.930 . S
C2060 N2057 1.314 . S
C2060 C2058 1.353 . S
C2060 H2102 0.930 . S
C2061 N2057 1.279 . S
C2061 C2059 1.358 . S
C2061 H2103 0.930 . S
C2062 C2063 1.348 . S
C2062 C2064 1.356 . S
C2062 O2087 1.325 . S
C2063 C2062 1.348 . S
C2063 C2065 1.353 1_554 S
C2063 H2104 0.929 . S
C2064 C2062 1.356 . S
C2064 C2066 1.402 . S
C2064 H2105 0.930 . S
C2065 C2063 1.353 1_556 S
C2065 N2067 1.314 . S
C2065 H2106 0.930 . S
C2066 C2064 1.402 . S
C2066 N2067 1.246 1_554 S
C2066 H2107 0.921 1_554 S
N2067 C2065 1.314 . S
N2067 C2066 1.246 1_556 S
C2068 C2070 1.353 . S
C2068 N2071 1.314 . S
C2068 H2074 0.930 . S
C2069 N2071 1.279 . S
C2069 C2072 1.358 . S
C2069 H2075 0.930 . S
C2070 C2068 1.353 . S
C2070 C2073 1.348 . S
C2070 H2108 0.929 . S
N2071 Li2026 1.990 . S
N2071 C2068 1.314 . S
N2071 C2069 1.279 . S
C2072 C2069 1.358 . S
C2072 C2073 1.356 . S
C2072 H2109 0.930 . S
C2073 C2070 1.348 . S
C2073 C2072 1.356 . S
H2074 C2068 0.930 . S
H2075 C2069 0.930 . S
C2076 N2077 1.314 . S
C2076 C2078 1.353 . S
C2076 H2082 0.930 . S
N2077 Li2027 1.990 . S
N2077 C2076 1.314 . S
N2077 C2080 1.279 . S
C2078 C2076 1.353 . S
C2078 C2081 1.348 . S
C2078 H2110 0.929 . S
C2079 C2080 1.358 . S
C2079 C2081 1.356 . S
C2079 H2111 0.930 . S
C2080 N2077 1.279 . S
C2080 C2079 1.358 . S
C2080 H2083 0.930 . S
C2081 C2078 1.348 . S
C2081 C2079 1.356 . S
H2082 C2076 0.930 . S
H2083 C2080 0.930 . S
O2084 Li2024 1.956 . S
O2084 Li2025 1.970 . S
O2084 Li2026 1.961 . S
O2084 C2028 1.325 . S
O2085 Li2024 1.970 . S
O2085 Li2025 1.956 . S
O2085 Li2027 1.961 . S
O2085 C2034 1.325 . S
O2086 Li2024 1.961 . S
O2086 Li2026 1.956 . S
O2086 Li2027 1.970 . S
O2086 C2056 1.325 . S
O2087 Li2025 1.961 . S
O2087 Li2026 1.970 . S
O2087 Li2027 1.956 . S
O2087 C2062 1.325 . S
H2088 C2030 0.929 . S
H2089 C2031 0.930 . S
H2090 C2032 0.930 . S
H2091 C2033 0.930 . S
H2092 C2035 0.930 . S
H2093 C2037 0.929 . S
H2094 C2038 0.930 . S
H2095 C2039 0.930 . S
H2096 C2042 0.930 . S
H2097 C2045 0.929 . S
H2098 C2050 0.929 . S
H2099 C2051 0.930 . S
H2100 C2058 0.929 . S
H2101 C2059 0.930 . S
H2102 C2060 0.930 . S
H2103 C2061 0.930 . S
H2104 C2063 0.929 . S
H2105 C2064 0.930 . S
H2106 C2065 0.930 . S
H2107 C2066 0.921 1_556 S
H2108 C2070 0.929 . S
H2109 C2072 0.930 . S
H2110 C2078 0.929 . S
H2111 C2079 0.930 . S
C2112 C2113 1.363 . S
C2112 C2118 1.379 . S
C2112 N2120 1.356 . S
C2113 C2112 1.363 . S
C2113 C2119 1.363 . S
C2114 C2115 1.363 . S
C2114 C2119 1.379 . S
C2114 N2121 1.356 . S
C2115 C2114 1.363 . S
C2115 C2118 1.363 . S
N2116 C2118 1.356 . S
N2116 H2128 0.984 . S
N2116 H2129 0.985 . S
N2117 C2119 1.356 . S
N2117 H2122 0.984 . S
N2117 H2123 0.985 . S
C2118 C2112 1.379 . S
C2118 C2115 1.363 . S
C2118 N2116 1.356 . S
C2119 C2113 1.363 . S
C2119 C2114 1.379 . S
C2119 N2117 1.356 . S
N2120 C2112 1.356 . S
N2120 H2126 0.984 . S
N2120 H2127 0.984 . S
N2121 C2114 1.356 . S
N2121 H2124 0.984 . S
N2121 H2125 0.985 . S
H2122 N2117 0.984 . S
H2123 N2117 0.985 . S
H2124 N2121 0.984 . S
H2125 N2121 0.985 . S
H2126 N2120 0.984 . S
H2127 N2120 0.984 . S
H2128 N2116 0.984 . S
H2129 N2116 0.985 . S
C2130 C2131 1.363 . S
C2130 C2136 1.379 . S
C2130 N2138 1.356 . S
C2131 C2130 1.363 . S
C2131 C2137 1.363 . S
C2132 C2133 1.363 . S
C2132 C2137 1.379 . S
C2132 N2139 1.356 . S
C2133 C2132 1.363 . S
C2133 C2136 1.363 . S
N2134 C2136 1.356 . S
N2134 H2146 0.984 . S
N2134 H2147 0.985 . S
N2135 C2137 1.356 . S
N2135 H2140 0.984 . S
N2135 H2141 0.985 . S
C2136 C2130 1.379 . S
C2136 C2133 1.363 . S
C2136 N2134 1.356 . S
C2137 C2131 1.363 . S
C2137 C2132 1.379 . S
C2137 N2135 1.356 . S
N2138 C2130 1.356 . S
N2138 H2144 0.984 . S
N2138 H2145 0.984 . S
N2139 C2132 1.356 . S
N2139 H2142 0.984 . S
N2139 H2143 0.985 . S
H2140 N2135 0.984 . S
H2141 N2135 0.985 . S
H2142 N2139 0.984 . S
H2143 N2139 0.985 . S
H2144 N2138 0.984 . S
H2145 N2138 0.984 . S
H2146 N2134 0.984 . S
H2147 N2134 0.985 . S
C2148 C2149 1.363 . S
C2148 C2154 1.379 . S
C2148 N2156 1.356 . S
C2149 C2148 1.363 . S
C2149 C2155 1.363 . S
C2150 C2151 1.363 . S
C2150 C2155 1.379 . S
C2150 N2157 1.356 . S
C2151 C2150 1.363 . S
C2151 C2154 1.363 . S
N2152 C2154 1.356 . S
N2152 H2164 0.984 . S
N2152 H2165 0.985 . S
N2153 C2155 1.356 . S
N2153 H2158 0.984 . S
N2153 H2159 0.985 . S
C2154 C2148 1.379 . S
C2154 C2151 1.363 . S
C2154 N2152 1.356 . S
C2155 C2149 1.363 . S
C2155 C2150 1.379 . S
C2155 N2153 1.356 . S
N2156 C2148 1.356 . S
N2156 H2162 0.984 . S
N2156 H2163 0.984 . S
N2157 C2150 1.356 . S
N2157 H2160 0.984 . S
N2157 H2161 0.985 . S
H2158 N2153 0.984 . S
H2159 N2153 0.985 . S
H2160 N2157 0.984 . S
H2161 N2157 0.985 . S
H2162 N2156 0.984 . S
H2163 N2156 0.984 . S
H2164 N2152 0.984 . S
H2165 N2152 0.985 . S
C2166 C2167 1.363 . S
C2166 C2172 1.379 . S
C2166 N2174 1.356 . S
C2167 C2166 1.363 . S
C2167 C2173 1.363 . S
C2168 C2169 1.363 . S
C2168 C2173 1.379 . S
C2168 N2175 1.356 . S
C2169 C2168 1.363 . S
C2169 C2172 1.363 . S
N2170 C2172 1.356 . S
N2170 H2182 0.984 . S
N2170 H2183 0.985 . S
N2171 C2173 1.356 . S
N2171 H2176 0.984 . S
N2171 H2177 0.985 . S
C2172 C2166 1.379 . S
C2172 C2169 1.363 . S
C2172 N2170 1.356 . S
C2173 C2167 1.363 . S
C2173 C2168 1.379 . S
C2173 N2171 1.356 . S
N2174 C2166 1.356 . S
N2174 H2180 0.984 . S
N2174 H2181 0.984 . S
N2175 C2168 1.356 . S
N2175 H2178 0.984 . S
N2175 H2179 0.985 . S
H2176 N2171 0.984 . S
H2177 N2171 0.985 . S
H2178 N2175 0.984 . S
H2179 N2175 0.985 . S
H2180 N2174 0.984 . S
H2181 N2174 0.984 . S
H2182 N2170 0.984 . S
H2183 N2170 0.985 . S
C2184 C2185 1.363 . S
C2184 C2190 1.379 . S
C2184 N2192 1.356 . S
C2185 C2184 1.363 . S
C2185 C2191 1.363 . S
C2186 C2187 1.363 . S
C2186 C2191 1.379 . S
C2186 N2193 1.356 . S
C2187 C2186 1.363 . S
C2187 C2190 1.363 . S
N2188 C2190 1.356 . S
N2188 H2200 0.984 . S
N2188 H2201 0.985 . S
N2189 C2191 1.356 . S
N2189 H2194 0.984 . S
N2189 H2195 0.985 . S
C2190 C2184 1.379 . S
C2190 C2187 1.363 . S
C2190 N2188 1.356 . S
C2191 C2185 1.363 . S
C2191 C2186 1.379 . S
C2191 N2189 1.356 . S
N2192 C2184 1.356 . S
N2192 H2198 0.984 . S
N2192 H2199 0.984 . S
N2193 C2186 1.356 . S
N2193 H2196 0.984 . S
N2193 H2197 0.985 . S
H2194 N2189 0.984 . S
H2195 N2189 0.985 . S
H2196 N2193 0.984 . S
H2197 N2193 0.985 . S
H2198 N2192 0.984 . S
H2199 N2192 0.984 . S
H2200 N2188 0.984 . S
H2201 N2188 0.985 . S
C2202 C2203 1.363 . S
C2202 C2208 1.379 . S
C2202 N2210 1.356 . S
C2203 C2202 1.363 . S
C2203 C2209 1.363 . S
C2204 C2205 1.363 . S
C2204 C2209 1.379 . S
C2204 N2211 1.356 . S
C2205 C2204 1.363 . S
C2205 C2208 1.363 . S
N2206 C2208 1.356 . S
N2206 H2218 0.984 . S
N2206 H2219 0.985 . S
N2207 C2209 1.356 . S
N2207 H2212 0.984 . S
N2207 H2213 0.985 . S
C2208 C2202 1.379 . S
C2208 C2205 1.363 . S
C2208 N2206 1.356 . S
C2209 C2203 1.363 . S
C2209 C2204 1.379 . S
C2209 N2207 1.356 . S
N2210 C2202 1.356 . S
N2210 H2216 0.984 . S
N2210 H2217 0.984 . S
N2211 C2204 1.356 . S
N2211 H2214 0.984 . S
N2211 H2215 0.985 . S
H2212 N2207 0.984 . S
H2213 N2207 0.985 . S
H2214 N2211 0.984 . S
H2215 N2211 0.985 . S
H2216 N2210 0.984 . S
H2217 N2210 0.984 . S
H2218 N2206 0.984 . S
H2219 N2206 0.985 . S
C2220 C2221 1.363 . S
C2220 C2226 1.379 . S
C2220 N2228 1.356 . S
C2221 C2220 1.363 . S
C2221 C2227 1.363 . S
C2222 C2223 1.363 . S
C2222 C2227 1.379 . S
C2222 N2229 1.356 . S
C2223 C2222 1.363 . S
C2223 C2226 1.363 . S
N2224 C2226 1.356 . S
N2224 H2236 0.984 . S
N2224 H2237 0.985 . S
N2225 C2227 1.356 . S
N2225 H2230 0.984 . S
N2225 H2231 0.985 . S
C2226 C2220 1.379 . S
C2226 C2223 1.363 . S
C2226 N2224 1.356 . S
C2227 C2221 1.363 . S
C2227 C2222 1.379 . S
C2227 N2225 1.356 . S
N2228 C2220 1.356 . S
N2228 H2234 0.984 . S
N2228 H2235 0.984 . S
N2229 C2222 1.356 . S
N2229 H2232 0.984 . S
N2229 H2233 0.985 . S
H2230 N2225 0.984 . S
H2231 N2225 0.985 . S
H2232 N2229 0.984 . S
H2233 N2229 0.985 . S
H2234 N2228 0.984 . S
H2235 N2228 0.984 . S
H2236 N2224 0.984 . S
H2237 N2224 0.985 . S
C2238 C2239 1.363 . S
C2238 C2244 1.379 . S
C2238 N2246 1.356 . S
C2239 C2238 1.363 . S
C2239 C2245 1.363 . S
C2240 C2241 1.363 . S
C2240 C2245 1.379 . S
C2240 N2247 1.356 . S
C2241 C2240 1.363 . S
C2241 C2244 1.363 . S
N2242 C2244 1.356 . S
N2242 H2254 0.984 . S
N2242 H2255 0.985 . S
N2243 C2245 1.356 . S
N2243 H2248 0.984 . S
N2243 H2249 0.985 . S
C2244 C2238 1.379 . S
C2244 C2241 1.363 . S
C2244 N2242 1.356 . S
C2245 C2239 1.363 . S
C2245 C2240 1.379 . S
C2245 N2243 1.356 . S
N2246 C2238 1.356 . S
N2246 H2252 0.984 . S
N2246 H2253 0.984 . S
N2247 C2240 1.356 . S
N2247 H2250 0.984 . S
N2247 H2251 0.985 . S
H2248 N2243 0.984 . S
H2249 N2243 0.985 . S
H2250 N2247 0.984 . S
H2251 N2247 0.985 . S
H2252 N2246 0.984 . S
H2253 N2246 0.984 . S
H2254 N2242 0.984 . S
H2255 N2242 0.985 . S
C2256 C2257 1.363 . S
C2256 C2262 1.379 . S
C2256 N2264 1.356 . S
C2257 C2256 1.363 . S
C2257 C2263 1.363 . S
C2258 C2259 1.363 . S
C2258 C2263 1.379 . S
C2258 N2265 1.356 . S
C2259 C2258 1.363 . S
C2259 C2262 1.363 . S
N2260 C2262 1.356 . S
N2260 H2272 0.984 . S
N2260 H2273 0.985 . S
N2261 C2263 1.356 . S
N2261 H2266 0.984 . S
N2261 H2267 0.985 . S
C2262 C2256 1.379 . S
C2262 C2259 1.363 . S
C2262 N2260 1.356 . S
C2263 C2257 1.363 . S
C2263 C2258 1.379 . S
C2263 N2261 1.356 . S
N2264 C2256 1.356 . S
N2264 H2270 0.984 . S
N2264 H2271 0.984 . S
N2265 C2258 1.356 . S
N2265 H2268 0.984 . S
N2265 H2269 0.985 . S
H2266 N2261 0.984 . S
H2267 N2261 0.985 . S
H2268 N2265 0.984 . S
H2269 N2265 0.985 . S
H2270 N2264 0.984 . S
H2271 N2264 0.984 . S
H2272 N2260 0.984 . S
H2273 N2260 0.985 . S
C2274 C2275 1.363 . S
C2274 C2280 1.379 . S
C2274 N2282 1.356 . S
C2275 C2274 1.363 . S
C2275 C2281 1.363 . S
C2276 C2277 1.363 . S
C2276 C2281 1.379 . S
C2276 N2283 1.356 . S
C2277 C2276 1.363 . S
C2277 C2280 1.363 . S
N2278 C2280 1.356 . S
N2278 H2290 0.984 . S
N2278 H2291 0.985 . S
N2279 C2281 1.356 . S
N2279 H2284 0.984 . S
N2279 H2285 0.985 . S
C2280 C2274 1.379 . S
C2280 C2277 1.363 . S
C2280 N2278 1.356 . S
C2281 C2275 1.363 . S
C2281 C2276 1.379 . S
C2281 N2279 1.356 . S
N2282 C2274 1.356 . S
N2282 H2288 0.984 . S
N2282 H2289 0.984 . S
N2283 C2276 1.356 . S
N2283 H2286 0.984 . S
N2283 H2287 0.985 . S
H2284 N2279 0.984 . S
H2285 N2279 0.985 . S
H2286 N2283 0.984 . S
H2287 N2283 0.985 . S
H2288 N2282 0.984 . S
H2289 N2282 0.984 . S
H2290 N2278 0.984 . S
H2291 N2278 0.985 . S
C2292 C2293 1.363 . S
C2292 C2298 1.379 . S
C2292 N2300 1.356 . S
C2293 C2292 1.363 . S
C2293 C2299 1.363 . S
C2294 C2295 1.363 . S
C2294 C2299 1.379 . S
C2294 N2301 1.356 . S
C2295 C2294 1.363 . S
C2295 C2298 1.363 . S
N2296 C2298 1.356 . S
N2296 H2308 0.984 . S
N2296 H2309 0.985 . S
N2297 C2299 1.356 . S
N2297 H2302 0.984 . S
N2297 H2303 0.985 . S
C2298 C2292 1.379 . S
C2298 C2295 1.363 . S
C2298 N2296 1.356 . S
C2299 C2293 1.363 . S
C2299 C2294 1.379 . S
C2299 N2297 1.356 . S
N2300 C2292 1.356 . S
N2300 H2306 0.984 . S
N2300 H2307 0.984 . S
N2301 C2294 1.356 . S
N2301 H2304 0.984 . S
N2301 H2305 0.985 . S
H2302 N2297 0.984 . S
H2303 N2297 0.985 . S
H2304 N2301 0.984 . S
H2305 N2301 0.985 . S
H2306 N2300 0.984 . S
H2307 N2300 0.984 . S
H2308 N2296 0.984 . S
H2309 N2296 0.985 . S
C2310 C2311 1.363 . S
C2310 C2316 1.379 . S
C2310 N2318 1.356 . S
C2311 C2310 1.363 . S
C2311 C2317 1.363 . S
C2312 C2313 1.363 . S
C2312 C2317 1.379 . S
C2312 N2319 1.356 . S
C2313 C2312 1.363 . S
C2313 C2316 1.363 . S
N2314 C2316 1.356 . S
N2314 H2326 0.984 . S
N2314 H2327 0.985 . S
N2315 C2317 1.356 . S
N2315 H2320 0.984 . S
N2315 H2321 0.985 . S
C2316 C2310 1.379 . S
C2316 C2313 1.363 . S
C2316 N2314 1.356 . S
C2317 C2311 1.363 . S
C2317 C2312 1.379 . S
C2317 N2315 1.356 . S
N2318 C2310 1.356 . S
N2318 H2324 0.984 . S
N2318 H2325 0.984 . S
N2319 C2312 1.356 . S
N2319 H2322 0.984 . S
N2319 H2323 0.985 . S
H2320 N2315 0.984 . S
H2321 N2315 0.985 . S
H2322 N2319 0.984 . S
H2323 N2319 0.985 . S
H2324 N2318 0.984 . S
H2325 N2318 0.984 . S
H2326 N2314 0.984 . S
H2327 N2314 0.985 . S
C2328 C2329 1.363 . S
C2328 C2334 1.379 . S
C2328 N2336 1.356 . S
C2329 C2328 1.363 . S
C2329 C2335 1.363 . S
C2330 C2331 1.363 . S
C2330 C2335 1.379 . S
C2330 N2337 1.356 . S
C2331 C2330 1.363 . S
C2331 C2334 1.363 . S
N2332 C2334 1.356 . S
N2332 H2344 0.984 . S
N2332 H2345 0.985 . S
N2333 C2335 1.356 . S
N2333 H2338 0.984 . S
N2333 H2339 0.985 . S
C2334 C2328 1.379 . S
C2334 C2331 1.363 . S
C2334 N2332 1.356 . S
C2335 C2329 1.363 . S
C2335 C2330 1.379 . S
C2335 N2333 1.356 . S
N2336 C2328 1.356 . S
N2336 H2342 0.984 . S
N2336 H2343 0.984 . S
N2337 C2330 1.356 . S
N2337 H2340 0.984 . S
N2337 H2341 0.985 . S
H2338 N2333 0.984 . S
H2339 N2333 0.985 . S
H2340 N2337 0.984 . S
H2341 N2337 0.985 . S
H2342 N2336 0.984 . S
H2343 N2336 0.984 . S
H2344 N2332 0.984 . S
H2345 N2332 0.985 . S
C2346 C2347 1.363 . S
C2346 C2352 1.379 . S
C2346 N2354 1.356 . S
C2347 C2346 1.363 . S
C2347 C2353 1.363 . S
C2348 C2349 1.363 . S
C2348 C2353 1.379 . S
C2348 N2355 1.356 . S
C2349 C2348 1.363 . S
C2349 C2352 1.363 . S
N2350 C2352 1.356 . S
N2350 H2362 0.984 . S
N2350 H2363 0.985 . S
N2351 C2353 1.356 . S
N2351 H2356 0.984 . S
N2351 H2357 0.985 . S
C2352 C2346 1.379 . S
C2352 C2349 1.363 . S
C2352 N2350 1.356 . S
C2353 C2347 1.363 . S
C2353 C2348 1.379 . S
C2353 N2351 1.356 . S
N2354 C2346 1.356 . S
N2354 H2360 0.984 . S
N2354 H2361 0.984 . S
N2355 C2348 1.356 . S
N2355 H2358 0.984 . S
N2355 H2359 0.985 . S
H2356 N2351 0.984 . S
H2357 N2351 0.985 . S
H2358 N2355 0.984 . S
H2359 N2355 0.985 . S
H2360 N2354 0.984 . S
H2361 N2354 0.984 . S
H2362 N2350 0.984 . S
H2363 N2350 0.985 . S
C2364 C2365 1.363 . S
C2364 C2370 1.379 . S
C2364 N2372 1.356 . S
C2365 C2364 1.363 . S
C2365 C2371 1.363 . S
C2366 C2367 1.363 . S
C2366 C2371 1.379 . S
C2366 N2373 1.356 . S
C2367 C2366 1.363 . S
C2367 C2370 1.363 . S
N2368 C2370 1.356 . S
N2368 H2380 0.984 . S
N2368 H2381 0.985 . S
N2369 C2371 1.356 . S
N2369 H2374 0.984 . S
N2369 H2375 0.985 . S
C2370 C2364 1.379 . S
C2370 C2367 1.363 . S
C2370 N2368 1.356 . S
C2371 C2365 1.363 . S
C2371 C2366 1.379 . S
C2371 N2369 1.356 . S
N2372 C2364 1.356 . S
N2372 H2378 0.984 . S
N2372 H2379 0.984 . S
N2373 C2366 1.356 . S
N2373 H2376 0.984 . S
N2373 H2377 0.985 . S
H2374 N2369 0.984 . S
H2375 N2369 0.985 . S
H2376 N2373 0.984 . S
H2377 N2373 0.985 . S
H2378 N2372 0.984 . S
H2379 N2372 0.984 . S
H2380 N2368 0.984 . S
H2381 N2368 0.985 . S
C2382 C2383 1.363 . S
C2382 C2388 1.379 . S
C2382 N2390 1.356 . S
C2383 C2382 1.363 . S
C2383 C2389 1.363 . S
C2384 C2385 1.363 . S
C2384 C2389 1.379 . S
C2384 N2391 1.356 . S
C2385 C2384 1.363 . S
C2385 C2388 1.363 . S
N2386 C2388 1.356 . S
N2386 H2398 0.984 . S
N2386 H2399 0.985 . S
N2387 C2389 1.356 . S
N2387 H2392 0.984 . S
N2387 H2393 0.985 . S
C2388 C2382 1.379 . S
C2388 C2385 1.363 . S
C2388 N2386 1.356 . S
C2389 C2383 1.363 . S
C2389 C2384 1.379 . S
C2389 N2387 1.356 . S
N2390 C2382 1.356 . S
N2390 H2396 0.984 . S
N2390 H2397 0.984 . S
N2391 C2384 1.356 . S
N2391 H2394 0.984 . S
N2391 H2395 0.985 . S
H2392 N2387 0.984 . S
H2393 N2387 0.985 . S
H2394 N2391 0.984 . S
H2395 N2391 0.985 . S
H2396 N2390 0.984 . S
H2397 N2390 0.984 . S
H2398 N2386 0.984 . S
H2399 N2386 0.985 . S
C2400 C2401 1.363 . S
C2400 C2406 1.379 . S
C2400 N2408 1.356 . S
C2401 C2400 1.363 . S
C2401 C2407 1.363 . S
C2402 C2403 1.363 . S
C2402 C2407 1.379 . S
C2402 N2409 1.356 . S
C2403 C2402 1.363 . S
C2403 C2406 1.363 . S
N2404 C2406 1.356 . S
N2404 H2416 0.984 . S
N2404 H2417 0.985 . S
N2405 C2407 1.356 . S
N2405 H2410 0.984 . S
N2405 H2411 0.985 . S
C2406 C2400 1.379 . S
C2406 C2403 1.363 . S
C2406 N2404 1.356 . S
C2407 C2401 1.363 . S
C2407 C2402 1.379 . S
C2407 N2405 1.356 . S
N2408 C2400 1.356 . S
N2408 H2414 0.984 . S
N2408 H2415 0.984 . S
N2409 C2402 1.356 . S
N2409 H2412 0.984 . S
N2409 H2413 0.985 . S
H2410 N2405 0.984 . S
H2411 N2405 0.985 . S
H2412 N2409 0.984 . S
H2413 N2409 0.985 . S
H2414 N2408 0.984 . S
H2415 N2408 0.984 . S
H2416 N2404 0.984 . S
H2417 N2404 0.985 . S
C2418 C2419 1.363 . S
C2418 C2424 1.379 . S
C2418 N2426 1.356 . S
C2419 C2418 1.363 . S
C2419 C2425 1.363 . S
C2420 C2421 1.363 . S
C2420 C2425 1.379 . S
C2420 N2427 1.356 . S
C2421 C2420 1.363 . S
C2421 C2424 1.363 . S
N2422 C2424 1.356 . S
N2422 H2434 0.984 . S
N2422 H2435 0.985 . S
N2423 C2425 1.356 . S
N2423 H2428 0.984 . S
N2423 H2429 0.985 . S
C2424 C2418 1.379 . S
C2424 C2421 1.363 . S
C2424 N2422 1.356 . S
C2425 C2419 1.363 . S
C2425 C2420 1.379 . S
C2425 N2423 1.356 . S
N2426 C2418 1.356 . S
N2426 H2432 0.984 . S
N2426 H2433 0.984 . S
N2427 C2420 1.356 . S
N2427 H2430 0.984 . S
N2427 H2431 0.985 . S
H2428 N2423 0.984 . S
H2429 N2423 0.985 . S
H2430 N2427 0.984 . S
H2431 N2427 0.985 . S
H2432 N2426 0.984 . S
H2433 N2426 0.984 . S
H2434 N2422 0.984 . S
H2435 N2422 0.985 . S
C2436 C2437 1.363 . S
C2436 C2442 1.379 . S
C2436 N2444 1.356 . S
C2437 C2436 1.363 . S
C2437 C2443 1.363 . S
C2438 C2439 1.363 . S
C2438 C2443 1.379 . S
C2438 N2445 1.356 . S
C2439 C2438 1.363 . S
C2439 C2442 1.363 . S
N2440 C2442 1.356 . S
N2440 H2452 0.984 . S
N2440 H2453 0.985 . S
N2441 C2443 1.356 . S
N2441 H2446 0.984 . S
N2441 H2447 0.985 . S
C2442 C2436 1.379 . S
C2442 C2439 1.363 . S
C2442 N2440 1.356 . S
C2443 C2437 1.363 . S
C2443 C2438 1.379 . S
C2443 N2441 1.356 . S
N2444 C2436 1.356 . S
N2444 H2450 0.984 . S
N2444 H2451 0.984 . S
N2445 C2438 1.356 . S
N2445 H2448 0.984 . S
N2445 H2449 0.985 . S
H2446 N2441 0.984 . S
H2447 N2441 0.985 . S
H2448 N2445 0.984 . S
H2449 N2445 0.985 . S
H2450 N2444 0.984 . S
H2451 N2444 0.984 . S
H2452 N2440 0.984 . S
H2453 N2440 0.985 . S
C2454 C2455 1.363 . S
C2454 C2460 1.379 . S
C2454 N2462 1.356 . S
C2455 C2454 1.363 . S
C2455 C2461 1.363 . S
C2456 C2457 1.363 . S
C2456 C2461 1.379 . S
C2456 N2463 1.356 . S
C2457 C2456 1.363 . S
C2457 C2460 1.363 . S
N2458 C2460 1.356 . S
N2458 H2470 0.984 . S
N2458 H2471 0.985 . S
N2459 C2461 1.356 . S
N2459 H2464 0.984 . S
N2459 H2465 0.985 . S
C2460 C2454 1.379 . S
C2460 C2457 1.363 . S
C2460 N2458 1.356 . S
C2461 C2455 1.363 . S
C2461 C2456 1.379 . S
C2461 N2459 1.356 . S
N2462 C2454 1.356 . S
N2462 H2468 0.984 . S
N2462 H2469 0.984 . S
N2463 C2456 1.356 . S
N2463 H2466 0.984 . S
N2463 H2467 0.985 . S
H2464 N2459 0.984 . S
H2465 N2459 0.985 . S
H2466 N2463 0.984 . S
H2467 N2463 0.985 . S
H2468 N2462 0.984 . S
H2469 N2462 0.984 . S
H2470 N2458 0.984 . S
H2471 N2458 0.985 . S
C2472 C2473 1.363 . S
C2472 C2478 1.379 . S
C2472 N2480 1.356 . S
C2473 C2472 1.363 . S
C2473 C2479 1.363 . S
C2474 C2475 1.363 . S
C2474 C2479 1.379 . S
C2474 N2481 1.356 . S
C2475 C2474 1.363 . S
C2475 C2478 1.363 . S
N2476 C2478 1.356 . S
N2476 H2488 0.984 . S
N2476 H2489 0.985 . S
N2477 C2479 1.356 . S
N2477 H2482 0.984 . S
N2477 H2483 0.985 . S
C2478 C2472 1.379 . S
C2478 C2475 1.363 . S
C2478 N2476 1.356 . S
C2479 C2473 1.363 . S
C2479 C2474 1.379 . S
C2479 N2477 1.356 . S
N2480 C2472 1.356 . S
N2480 H2486 0.984 . S
N2480 H2487 0.984 . S
N2481 C2474 1.356 . S
N2481 H2484 0.984 . S
N2481 H2485 0.985 . S
H2482 N2477 0.984 . S
H2483 N2477 0.985 . S
H2484 N2481 0.984 . S
H2485 N2481 0.985 . S
H2486 N2480 0.984 . S
H2487 N2480 0.984 . S
H2488 N2476 0.984 . S
H2489 N2476 0.985 . S
C2490 C2491 1.363 . S
C2490 C2496 1.379 . S
C2490 N2498 1.356 . S
C2491 C2490 1.363 . S
C2491 C2497 1.363 . S
C2492 C2493 1.363 . S
C2492 C2497 1.379 . S
C2492 N2499 1.356 . S
C2493 C2492 1.363 . S
C2493 C2496 1.363 . S
N2494 C2496 1.356 . S
N2494 H2506 0.991 . S
N2494 H2507 0.985 . S
N2495 C2497 1.356 . S
N2495 H2500 0.984 . S
N2495 H2501 0.985 . S
C2496 C2490 1.379 . S
C2496 C2493 1.363 . S
C2496 N2494 1.356 . S
C2497 C2491 1.363 . S
C2497 C2492 1.379 . S
C2497 N2495 1.356 . S
N2498 C2490 1.356 . S
N2498 H2504 0.996 . S
N2498 H2505 0.984 . S
N2499 C2492 1.356 . S
N2499 H2502 0.984 . S
N2499 H2503 0.985 . S
H2500 N2495 0.984 . S
H2501 N2495 0.985 . S
H2502 N2499 0.984 . S
H2503 N2499 0.985 . S
H2504 N2498 0.996 . S
H2505 N2498 0.984 . S
H2506 N2494 0.991 . S
H2507 N2494 0.985 . S
C2508 C2509 1.363 . S
C2508 C2514 1.379 . S
C2508 N2516 1.356 . S
C2509 C2508 1.363 . S
C2509 C2515 1.363 . S
C2510 C2511 1.363 . S
C2510 C2515 1.379 . S
C2510 N2517 1.356 . S
C2511 C2510 1.363 . S
C2511 C2514 1.363 . S
N2512 C2514 1.356 . S
N2512 H2524 0.984 . S
N2512 H2525 0.985 . S
N2513 C2515 1.356 . S
N2513 H2518 0.984 . S
N2513 H2519 0.985 . S
C2514 C2508 1.379 . S
C2514 C2511 1.363 . S
C2514 N2512 1.356 . S
C2515 C2509 1.363 . S
C2515 C2510 1.379 . S
C2515 N2513 1.356 . S
N2516 C2508 1.356 . S
N2516 H2522 0.984 . S
N2516 H2523 0.984 . S
N2517 C2510 1.356 . S
N2517 H2520 0.984 . S
N2517 H2521 0.985 . S
H2518 N2513 0.984 . S
H2519 N2513 0.985 . S
H2520 N2517 0.984 . S
H2521 N2517 0.985 . S
H2522 N2516 0.984 . S
H2523 N2516 0.984 . S
H2524 N2512 0.984 . S
H2525 N2512 0.985 . S
C2526 C2527 1.363 . S
C2526 C2532 1.379 . S
C2526 N2534 1.356 . S
C2527 C2526 1.363 . S
C2527 C2533 1.363 . S
C2528 C2529 1.363 . S
C2528 C2533 1.379 . S
C2528 N2535 1.356 . S
C2529 C2528 1.363 . S
C2529 C2532 1.363 . S
N2530 C2532 1.356 . S
N2530 H2542 0.984 . S
N2530 H2543 0.985 . S
N2531 C2533 1.356 . S
N2531 H2536 0.984 . S
N2531 H2537 0.985 . S
C2532 C2526 1.379 . S
C2532 C2529 1.363 . S
C2532 N2530 1.356 . S
C2533 C2527 1.363 . S
C2533 C2528 1.379 . S
C2533 N2531 1.356 . S
N2534 C2526 1.356 . S
N2534 H2540 0.984 . S
N2534 H2541 0.984 . S
N2535 C2528 1.356 . S
N2535 H2538 0.984 . S
N2535 H2539 0.985 . S
H2536 N2531 0.984 . S
H2537 N2531 0.985 . S
H2538 N2535 0.984 . S
H2539 N2535 0.985 . S
H2540 N2534 0.984 . S
H2541 N2534 0.984 . S
H2542 N2530 0.984 . S
H2543 N2530 0.985 . S
C2544 C2545 1.363 1_554 S
C2544 C2550 1.379 1_565 S
C2544 N2552 1.356 . S
C2545 C2544 1.363 1_556 S
C2545 C2551 1.363 . S
C2546 C2547 1.363 1_556 S
C2546 C2551 1.379 1_545 S
C2546 N2553 1.356 . S
C2547 C2546 1.363 1_554 S
C2547 C2550 1.363 . S
N2548 C2550 1.356 . S
N2548 H2560 0.984 . S
N2548 H2561 0.985 . S
N2549 C2551 1.356 . S
N2549 H2554 0.984 . S
N2549 H2555 0.985 . S
C2550 C2544 1.379 1_545 S
C2550 C2547 1.363 . S
C2550 N2548 1.356 . S
C2551 C2545 1.363 . S
C2551 C2546 1.379 1_565 S
C2551 N2549 1.356 . S
N2552 C2544 1.356 . S
N2552 H2558 0.984 . S
N2552 H2559 0.984 1_554 S
N2553 C2546 1.356 . S
N2553 H2556 0.984 1_556 S
N2553 H2557 0.985 . S
H2554 N2549 0.984 . S
H2555 N2549 0.985 . S
H2556 N2553 0.984 1_554 S
H2557 N2553 0.985 . S
H2558 N2552 0.984 . S
H2559 N2552 0.984 1_556 S
H2560 N2548 0.984 . S
H2561 N2548 0.985 . S
C2562 C2563 1.363 . S
C2562 C2568 1.379 . S
C2562 N2570 1.356 . S
C2563 C2562 1.363 . S
C2563 C2569 1.363 . S
C2564 C2565 1.363 . S
C2564 C2569 1.379 . S
C2564 N2571 1.356 . S
C2565 C2564 1.363 . S
C2565 C2568 1.363 . S
N2566 C2568 1.356 . S
N2566 H2578 0.984 . S
N2566 H2579 0.985 . S
N2567 C2569 1.356 . S
N2567 H2572 0.984 . S
N2567 H2573 0.985 . S
C2568 C2562 1.379 . S
C2568 C2565 1.363 . S
C2568 N2566 1.356 . S
C2569 C2563 1.363 . S
C2569 C2564 1.379 . S
C2569 N2567 1.356 . S
N2570 C2562 1.356 . S
N2570 H2576 0.984 . S
N2570 H2577 0.984 . S
N2571 C2564 1.356 . S
N2571 H2574 0.984 . S
N2571 H2575 0.985 . S
H2572 N2567 0.984 . S
H2573 N2567 0.985 . S
H2574 N2571 0.984 . S
H2575 N2571 0.985 . S
H2576 N2570 0.984 . S
H2577 N2570 0.984 . S
H2578 N2566 0.984 . S
H2579 N2566 0.985 . S
C2580 C2581 1.408 . S
C2580 C2586 1.332 1_455 S
C2580 N2588 1.377 . S
C2581 C2580 1.408 . S
C2581 C2587 1.363 1_556 S
C2582 C2583 1.406 . S
C2582 C2587 1.335 1_655 S
C2582 N2589 1.375 . S
C2583 C2582 1.406 . S
C2583 C2586 1.363 1_554 S
N2584 C2586 1.356 . S
N2584 H2596 0.984 . S
N2584 H2597 0.985 . S
N2585 C2587 1.356 . S
N2585 H2590 0.984 . S
N2585 H2591 0.985 . S
C2586 C2580 1.332 1_655 S
C2586 C2583 1.363 1_556 S
C2586 N2584 1.356 . S
C2587 C2581 1.363 1_554 S
C2587 C2582 1.335 1_455 S
C2587 N2585 1.356 . S
N2588 C2580 1.377 . S
N2588 H2594 0.984 1_455 S
N2588 H2595 0.984 . S
N2589 C2582 1.375 . S
N2589 H2592 0.984 . S
N2589 H2593 0.985 1_655 S
H2590 N2585 0.984 . S
H2591 N2585 0.985 . S
H2592 N2589 0.984 . S
H2593 N2589 0.985 1_455 S
H2594 N2588 0.984 1_655 S
H2595 N2588 0.984 . S
H2596 N2584 0.984 . S
H2597 N2584 0.985 . S
C2598 C2599 1.363 . S
C2598 C2604 1.379 1_545 S
C2598 N2606 1.356 . S
C2599 C2598 1.363 . S
C2599 C2605 1.363 . S
C2600 C2601 1.363 . S
C2600 C2605 1.379 1_565 S
C2600 N2607 1.356 . S
C2601 C2600 1.363 . S
C2601 C2604 1.363 . S
N2602 C2604 1.356 . S
N2602 H2614 0.962 1_565 S
N2602 H2615 0.985 . S
N2603 C2605 1.356 . S
N2603 H2608 0.984 . S
N2603 H2609 0.961 1_545 S
C2604 C2598 1.379 1_565 S
C2604 C2601 1.363 . S
C2604 N2602 1.356 . S
C2605 C2599 1.363 . S
C2605 C2600 1.379 1_545 S
C2605 N2603 1.356 . S
N2606 C2598 1.356 . S
N2606 H2612 0.984 . S
N2606 H2613 0.984 . S
N2607 C2600 1.356 . S
N2607 H2610 0.984 . S
N2607 H2611 0.985 . S
H2608 N2603 0.984 . S
H2609 N2603 0.961 1_565 S
H2610 N2607 0.984 . S
H2611 N2607 0.985 . S
H2612 N2606 0.984 . S
H2613 N2606 0.984 . S
H2614 N2602 0.962 1_545 S
H2615 N2602 0.985 . S
C2616 C2617 1.363 . S
C2616 C2622 1.379 . S
C2616 N2624 1.356 . S
C2617 C2616 1.363 . S
C2617 C2623 1.363 1_554 S
C2618 C2619 1.363 . S
C2618 C2623 1.379 . S
C2618 N2625 1.356 . S
C2619 C2618 1.363 . S
C2619 C2622 1.363 1_556 S
N2620 C2622 1.356 . S
N2620 H2632 0.984 . S
N2620 H2633 0.981 . S
N2621 C2623 1.356 . S
N2621 H2626 0.988 1_556 S
N2621 H2627 0.985 . S
C2622 C2616 1.379 . S
C2622 C2619 1.363 1_554 S
C2622 N2620 1.356 . S
C2623 C2617 1.363 1_556 S
C2623 C2618 1.379 . S
C2623 N2621 1.356 . S
N2624 C2616 1.356 . S
N2624 H2630 0.984 . S
N2624 H2631 0.984 . S
N2625 C2618 1.356 . S
N2625 H2628 0.984 . S
N2625 H2629 0.985 . S
H2626 N2621 0.988 1_554 S
H2627 N2621 0.985 . S
H2628 N2625 0.984 . S
H2629 N2625 0.985 . S
H2630 N2624 0.984 . S
H2631 N2624 0.984 . S
H2632 N2620 0.984 . S
H2633 N2620 0.981 . S
C2634 C2635 1.363 . S
C2634 C2640 1.379 1_455 S
C2634 N2642 1.356 . S
C2635 C2634 1.363 . S
C2635 C2641 1.363 . S
C2636 C2637 1.363 . S
C2636 C2641 1.379 1_655 S
C2636 N2643 1.356 . S
C2637 C2636 1.363 . S
C2637 C2640 1.363 . S
N2638 C2640 1.356 . S
N2638 H2650 0.984 . S
N2638 H2651 0.985 . S
N2639 C2641 1.356 . S
N2639 H2644 0.984 . S
N2639 H2645 0.985 . S
C2640 C2634 1.379 1_655 S
C2640 C2637 1.363 . S
C2640 N2638 1.356 . S
C2641 C2635 1.363 . S
C2641 C2636 1.379 1_455 S
C2641 N2639 1.356 . S
N2642 C2634 1.356 . S
N2642 H2648 0.984 . S
N2642 H2649 0.984 . S
N2643 C2636 1.356 . S
N2643 H2646 0.984 . S
N2643 H2647 0.985 . S
H2644 N2639 0.984 . S
H2645 N2639 0.985 . S
H2646 N2643 0.984 . S
H2647 N2643 0.985 . S
H2648 N2642 0.984 . S
H2649 N2642 0.984 . S
H2650 N2638 0.984 . S
H2651 N2638 0.985 . S
C2652 C2653 1.363 . S
C2652 C2658 1.379 1_565 S
C2652 N2660 1.356 . S
C2653 C2652 1.363 . S
C2653 C2659 1.363 1_556 S
C2654 C2655 1.363 . S
C2654 C2659 1.379 1_545 S
C2654 N2661 1.356 . S
C2655 C2654 1.363 . S
C2655 C2658 1.363 1_554 S
N2656 C2658 1.356 . S
N2656 H2668 0.984 . S
N2656 H2669 0.974 1_556 S
N2657 C2659 1.356 . S
N2657 H2662 0.972 1_554 S
N2657 H2663 0.985 . S
C2658 C2652 1.379 1_545 S
C2658 C2655 1.363 1_556 S
C2658 N2656 1.356 . S
C2659 C2653 1.363 1_554 S
C2659 C2654 1.379 1_565 S
C2659 N2657 1.356 . S
N2660 C2652 1.356 . S
N2660 H2666 0.984 . S
N2660 H2667 0.984 . S
N2661 C2654 1.356 . S
N2661 H2664 0.984 . S
N2661 H2665 0.985 . S
H2662 N2657 0.972 1_556 S
H2663 N2657 0.985 . S
H2664 N2661 0.984 . S
H2665 N2661 0.985 . S
H2666 N2660 0.984 . S
H2667 N2660 0.984 . S
H2668 N2656 0.984 . S
H2669 N2656 0.974 1_554 S
C2670 C2671 1.363 . S
C2670 C2676 1.379 . S
C2670 N2678 1.356 . S
C2671 C2670 1.363 . S
C2671 C2677 1.363 . S
C2672 C2673 1.363 . S
C2672 C2677 1.379 . S
C2672 N2679 1.356 . S
C2673 C2672 1.363 . S
C2673 C2676 1.363 . S
N2674 C2676 1.356 . S
N2674 H2686 0.984 . S
N2674 H2687 0.985 . S
N2675 C2677 1.356 . S
N2675 H2680 0.984 . S
N2675 H2681 0.985 . S
C2676 C2670 1.379 . S
C2676 C2673 1.363 . S
C2676 N2674 1.356 . S
C2677 C2671 1.363 . S
C2677 C2672 1.379 . S
C2677 N2675 1.356 . S
N2678 C2670 1.356 . S
N2678 H2684 0.984 . S
N2678 H2685 0.984 . S
N2679 C2672 1.356 . S
N2679 H2682 0.984 . S
N2679 H2683 0.985 . S
H2680 N2675 0.984 . S
H2681 N2675 0.985 . S
H2682 N2679 0.984 . S
H2683 N2679 0.985 . S
H2684 N2678 0.984 . S
H2685 N2678 0.984 . S
H2686 N2674 0.984 . S
H2687 N2674 0.985 . S
C2688 C2689 1.363 . S
C2688 C2694 1.379 1_654 S
C2688 N2696 1.356 . S
C2689 C2688 1.363 . S
C2689 C2695 1.363 . S
C2690 C2691 1.363 . S
C2690 C2695 1.379 1_456 S
C2690 N2697 1.356 . S
C2691 C2690 1.363 . S
C2691 C2694 1.363 . S
N2692 C2694 1.356 . S
N2692 H2704 0.984 . S
N2692 H2705 0.985 . S
N2693 C2695 1.356 . S
N2693 H2698 0.984 . S
N2693 H2699 0.985 . S
C2694 C2688 1.379 1_456 S
C2694 C2691 1.363 . S
C2694 N2692 1.356 . S
C2695 C2689 1.363 . S
C2695 C2690 1.379 1_654 S
C2695 N2693 1.356 . S
N2696 C2688 1.356 . S
N2696 H2702 0.984 . S
N2696 H2703 0.984 . S
N2697 C2690 1.356 . S
N2697 H2700 0.984 . S
N2697 H2701 0.985 . S
H2698 N2693 0.984 . S
H2699 N2693 0.985 . S
H2700 N2697 0.984 . S
H2701 N2697 0.985 . S
H2702 N2696 0.984 . S
H2703 N2696 0.984 . S
H2704 N2692 0.984 . S
H2705 N2692 0.985 . S
C2706 C2707 1.363 . S
C2706 C2712 1.379 1_565 S
C2706 N2714 1.356 . S
C2707 C2706 1.363 . S
C2707 C2713 1.363 . S
C2708 C2709 1.363 . S
C2708 C2713 1.379 1_545 S
C2708 N2715 1.356 . S
C2709 C2708 1.363 . S
C2709 C2712 1.363 . S
N2710 C2712 1.356 . S
N2710 H2722 0.984 . S
N2710 H2723 0.985 . S
N2711 C2713 1.356 . S
N2711 H2716 0.984 . S
N2711 H2717 0.985 . S
C2712 C2706 1.379 1_545 S
C2712 C2709 1.363 . S
C2712 N2710 1.356 . S
C2713 C2707 1.363 . S
C2713 C2708 1.379 1_565 S
C2713 N2711 1.356 . S
N2714 C2706 1.356 . S
N2714 H2720 0.984 . S
N2714 H2721 0.984 . S
N2715 C2708 1.356 . S
N2715 H2718 0.984 . S
N2715 H2719 0.985 . S
H2716 N2711 0.984 . S
H2717 N2711 0.985 . S
H2718 N2715 0.984 . S
H2719 N2715 0.985 . S
H2720 N2714 0.984 . S
H2721 N2714 0.984 . S
H2722 N2710 0.984 . S
H2723 N2710 0.985 . S
C2724 C2725 1.363 1_556 S
C2724 C2730 1.379 . S
C2724 N2732 1.356 . S
C2725 C2724 1.363 1_554 S
C2725 C2731 1.363 . S
C2726 C2727 1.363 1_554 S
C2726 C2731 1.379 . S
C2726 N2733 1.356 . S
C2727 C2726 1.363 1_556 S
C2727 C2730 1.363 . S
N2728 C2730 1.356 . S
N2728 H2740 0.984 . S
N2728 H2741 0.985 . S
N2729 C2731 1.356 . S
N2729 H2734 0.984 . S
N2729 H2735 0.985 . S
C2730 C2724 1.379 . S
C2730 C2727 1.363 . S
C2730 N2728 1.356 . S
C2731 C2725 1.363 . S
C2731 C2726 1.379 . S
C2731 N2729 1.356 . S
N2732 C2724 1.356 . S
N2732 H2738 0.984 . S
N2732 H2739 0.984 . S
N2733 C2726 1.356 . S
N2733 H2736 0.984 . S
N2733 H2737 0.985 . S
H2734 N2729 0.984 . S
H2735 N2729 0.985 . S
H2736 N2733 0.984 . S
H2737 N2733 0.985 . S
H2738 N2732 0.984 . S
H2739 N2732 0.984 . S
H2740 N2728 0.984 . S
H2741 N2728 0.985 . S
C2742 C2743 1.363 . S
C2742 C2748 1.379 1_455 S
C2742 N2750 1.356 . S
C2743 C2742 1.363 . S
C2743 C2749 1.363 . S
C2744 C2745 1.363 . S
C2744 C2749 1.379 1_655 S
C2744 N2751 1.356 . S
C2745 C2744 1.363 . S
C2745 C2748 1.363 . S
N2746 C2748 1.356 . S
N2746 H2758 0.984 . S
N2746 H2759 0.985 . S
N2747 C2749 1.356 . S
N2747 H2752 0.984 . S
N2747 H2753 0.985 . S
C2748 C2742 1.379 1_655 S
C2748 C2745 1.363 . S
C2748 N2746 1.356 . S
C2749 C2743 1.363 . S
C2749 C2744 1.379 1_455 S
C2749 N2747 1.356 . S
N2750 C2742 1.356 . S
N2750 H2756 0.984 . S
N2750 H2757 0.984 . S
N2751 C2744 1.356 . S
N2751 H2754 0.984 . S
N2751 H2755 0.985 . S
H2752 N2747 0.984 . S
H2753 N2747 0.985 . S
H2754 N2751 0.984 . S
H2755 N2751 0.985 . S
H2756 N2750 0.984 . S
H2757 N2750 0.984 . S
H2758 N2746 0.984 . S
H2759 N2746 0.985 . S
C2760 C2761 1.363 . S
C2760 C2766 1.379 . S
C2760 N2768 1.356 . S
C2761 C2760 1.363 . S
C2761 C2767 1.363 . S
C2762 C2763 1.363 . S
C2762 C2767 1.379 . S
C2762 N2769 1.356 . S
C2763 C2762 1.363 . S
C2763 C2766 1.363 . S
N2764 C2766 1.356 . S
N2764 H2776 0.984 . S
N2764 H2777 0.985 . S
N2765 C2767 1.356 . S
N2765 H2770 0.984 . S
N2765 H2771 0.985 . S
C2766 C2760 1.379 . S
C2766 C2763 1.363 . S
C2766 N2764 1.356 . S
C2767 C2761 1.363 . S
C2767 C2762 1.379 . S
C2767 N2765 1.356 . S
N2768 C2760 1.356 . S
N2768 H2774 0.984 . S
N2768 H2775 0.984 . S
N2769 C2762 1.356 . S
N2769 H2772 0.984 . S
N2769 H2773 0.985 . S
H2770 N2765 0.984 . S
H2771 N2765 0.985 . S
H2772 N2769 0.984 . S
H2773 N2769 0.985 . S
H2774 N2768 0.984 . S
H2775 N2768 0.984 . S
H2776 N2764 0.984 . S
H2777 N2764 0.985 . S
C2778 C2779 1.363 . S
C2778 C2784 1.379 . S
C2778 N2786 1.356 . S
C2779 C2778 1.363 . S
C2779 C2785 1.363 . S
C2780 C2781 1.363 . S
C2780 C2785 1.379 . S
C2780 N2787 1.356 . S
C2781 C2780 1.363 . S
C2781 C2784 1.363 . S
N2782 C2784 1.356 . S
N2782 H2794 0.984 . S
N2782 H2795 0.985 . S
N2783 C2785 1.356 . S
N2783 H2788 0.984 . S
N2783 H2789 0.985 . S
C2784 C2778 1.379 . S
C2784 C2781 1.363 . S
C2784 N2782 1.356 . S
C2785 C2779 1.363 . S
C2785 C2780 1.379 . S
C2785 N2783 1.356 . S
N2786 C2778 1.356 . S
N2786 H2792 0.984 . S
N2786 H2793 0.984 . S
N2787 C2780 1.356 . S
N2787 H2790 0.984 . S
N2787 H2791 0.985 . S
H2788 N2783 0.984 . S
H2789 N2783 0.985 . S
H2790 N2787 0.984 . S
H2791 N2787 0.985 . S
H2792 N2786 0.984 . S
H2793 N2786 0.984 . S
H2794 N2782 0.984 . S
H2795 N2782 0.985 . S
C2796 C2797 1.363 . S
C2796 C2802 1.379 . S
C2796 N2804 1.356 . S
C2797 C2796 1.363 . S
C2797 C2803 1.363 . S
C2798 C2799 1.363 . S
C2798 C2803 1.379 . S
C2798 N2805 1.356 . S
C2799 C2798 1.363 . S
C2799 C2802 1.363 . S
N2800 C2802 1.356 . S
N2800 H2812 0.984 . S
N2800 H2813 0.985 . S
N2801 C2803 1.356 . S
N2801 H2806 0.984 . S
N2801 H2807 0.985 . S
C2802 C2796 1.379 . S
C2802 C2799 1.363 . S
C2802 N2800 1.356 . S
C2803 C2797 1.363 . S
C2803 C2798 1.379 . S
C2803 N2801 1.356 . S
N2804 C2796 1.356 . S
N2804 H2810 0.984 . S
N2804 H2811 0.984 . S
N2805 C2798 1.356 . S
N2805 H2808 0.984 . S
N2805 H2809 0.985 . S
H2806 N2801 0.984 . S
H2807 N2801 0.985 . S
H2808 N2805 0.984 . S
H2809 N2805 0.985 . S
H2810 N2804 0.984 . S
H2811 N2804 0.984 . S
H2812 N2800 0.984 . S
H2813 N2800 0.985 . S
C2814 C2815 1.363 . S
C2814 C2820 1.379 . S
C2814 N2822 1.356 . S
C2815 C2814 1.363 . S
C2815 C2821 1.363 . S
C2816 C2817 1.363 . S
C2816 C2821 1.379 . S
C2816 N2823 1.356 . S
C2817 C2816 1.363 . S
C2817 C2820 1.363 . S
N2818 C2820 1.356 . S
N2818 H2830 0.984 . S
N2818 H2831 0.985 . S
N2819 C2821 1.356 . S
N2819 H2824 0.984 . S
N2819 H2825 0.985 . S
C2820 C2814 1.379 . S
C2820 C2817 1.363 . S
C2820 N2818 1.356 . S
C2821 C2815 1.363 . S
C2821 C2816 1.379 . S
C2821 N2819 1.356 . S
N2822 C2814 1.356 . S
N2822 H2828 0.984 . S
N2822 H2829 0.984 . S
N2823 C2816 1.356 . S
N2823 H2826 0.984 . S
N2823 H2827 0.985 . S
H2824 N2819 0.984 . S
H2825 N2819 0.985 . S
H2826 N2823 0.984 . S
H2827 N2823 0.985 . S
H2828 N2822 0.984 . S
H2829 N2822 0.984 . S
H2830 N2818 0.984 . S
H2831 N2818 0.985 . S
C2832 C2833 1.363 . S
C2832 C2838 1.379 . S
C2832 N2840 1.356 . S
C2833 C2832 1.363 . S
C2833 C2839 1.363 . S
C2834 C2835 1.363 . S
C2834 C2839 1.379 . S
C2834 N2841 1.356 . S
C2835 C2834 1.363 . S
C2835 C2838 1.363 . S
N2836 C2838 1.356 . S
N2836 H2848 0.984 . S
N2836 H2849 0.985 . S
N2837 C2839 1.356 . S
N2837 H2842 0.984 . S
N2837 H2843 0.985 . S
C2838 C2832 1.379 . S
C2838 C2835 1.363 . S
C2838 N2836 1.356 . S
C2839 C2833 1.363 . S
C2839 C2834 1.379 . S
C2839 N2837 1.356 . S
N2840 C2832 1.356 . S
N2840 H2846 0.984 . S
N2840 H2847 0.984 . S
N2841 C2834 1.356 . S
N2841 H2844 0.984 . S
N2841 H2845 0.985 . S
H2842 N2837 0.984 . S
H2843 N2837 0.985 . S
H2844 N2841 0.984 . S
H2845 N2841 0.985 . S
H2846 N2840 0.984 . S
H2847 N2840 0.984 . S
H2848 N2836 0.984 . S
H2849 N2836 0.985 . S
C2850 C2851 1.363 . S
C2850 C2856 1.379 . S
C2850 N2858 1.356 . S
C2851 C2850 1.363 . S
C2851 C2857 1.363 . S
C2852 C2853 1.363 . S
C2852 C2857 1.379 . S
C2852 N2859 1.356 . S
C2853 C2852 1.363 . S
C2853 C2856 1.363 . S
N2854 C2856 1.356 . S
N2854 H2866 0.984 . S
N2854 H2867 0.985 . S
N2855 C2857 1.356 . S
N2855 H2860 0.984 . S
N2855 H2861 0.985 . S
C2856 C2850 1.379 . S
C2856 C2853 1.363 . S
C2856 N2854 1.356 . S
C2857 C2851 1.363 . S
C2857 C2852 1.379 . S
C2857 N2855 1.356 . S
N2858 C2850 1.356 . S
N2858 H2864 0.984 . S
N2858 H2865 0.984 . S
N2859 C2852 1.356 . S
N2859 H2862 0.984 . S
N2859 H2863 0.985 . S
H2860 N2855 0.984 . S
H2861 N2855 0.985 . S
H2862 N2859 0.984 . S
H2863 N2859 0.985 . S
H2864 N2858 0.984 . S
H2865 N2858 0.984 . S
H2866 N2854 0.984 . S
H2867 N2854 0.985 . S
C2868 C2869 1.363 . S
C2868 C2874 1.379 . S
C2868 N2876 1.356 . S
C2869 C2868 1.363 . S
C2869 C2875 1.363 . S
C2870 C2871 1.363 . S
C2870 C2875 1.379 . S
C2870 N2877 1.356 . S
C2871 C2870 1.363 . S
C2871 C2874 1.363 . S
N2872 C2874 1.356 . S
N2872 H2884 0.984 . S
N2872 H2885 0.985 . S
N2873 C2875 1.356 . S
N2873 H2878 0.984 . S
N2873 H2879 0.985 . S
C2874 C2868 1.379 . S
C2874 C2871 1.363 . S
C2874 N2872 1.356 . S
C2875 C2869 1.363 . S
C2875 C2870 1.379 . S
C2875 N2873 1.356 . S
N2876 C2868 1.356 . S
N2876 H2882 0.984 . S
N2876 H2883 0.984 . S
N2877 C2870 1.356 . S
N2877 H2880 0.984 . S
N2877 H2881 0.985 . S
H2878 N2873 0.984 . S
H2879 N2873 0.985 . S
H2880 N2877 0.984 . S
H2881 N2877 0.985 . S
H2882 N2876 0.984 . S
H2883 N2876 0.984 . S
H2884 N2872 0.984 . S
H2885 N2872 0.985 . S
C2886 C2887 1.363 . S
C2886 C2892 1.379 . S
C2886 N2894 1.356 . S
C2887 C2886 1.363 . S
C2887 C2893 1.363 . S
C2888 C2889 1.363 . S
C2888 C2893 1.379 . S
C2888 N2895 1.356 . S
C2889 C2888 1.363 . S
C2889 C2892 1.363 . S
N2890 C2892 1.356 . S
N2890 H2902 0.984 . S
N2890 H2903 0.985 . S
N2891 C2893 1.356 . S
N2891 H2896 0.984 . S
N2891 H2897 0.985 . S
C2892 C2886 1.379 . S
C2892 C2889 1.363 . S
C2892 N2890 1.356 . S
C2893 C2887 1.363 . S
C2893 C2888 1.379 . S
C2893 N2891 1.356 . S
N2894 C2886 1.356 . S
N2894 H2900 0.984 . S
N2894 H2901 0.984 . S
N2895 C2888 1.356 . S
N2895 H2898 0.984 . S
N2895 H2899 0.985 . S
H2896 N2891 0.984 . S
H2897 N2891 0.985 . S
H2898 N2895 0.984 . S
H2899 N2895 0.985 . S
H2900 N2894 0.984 . S
H2901 N2894 0.984 . S
H2902 N2890 0.984 . S
H2903 N2890 0.985 . S
C2904 C2905 1.363 . S
C2904 C2910 1.379 . S
C2904 N2912 1.356 . S
C2905 C2904 1.363 . S
C2905 C2911 1.363 . S
C2906 C2907 1.363 . S
C2906 C2911 1.379 . S
C2906 N2913 1.356 . S
C2907 C2906 1.363 . S
C2907 C2910 1.363 . S
N2908 C2910 1.356 . S
N2908 H2920 0.984 . S
N2908 H2921 0.985 . S
N2909 C2911 1.356 . S
N2909 H2914 0.984 . S
N2909 H2915 0.985 . S
C2910 C2904 1.379 . S
C2910 C2907 1.363 . S
C2910 N2908 1.356 . S
C2911 C2905 1.363 . S
C2911 C2906 1.379 . S
C2911 N2909 1.356 . S
N2912 C2904 1.356 . S
N2912 H2918 0.984 . S
N2912 H2919 0.984 . S
N2913 C2906 1.356 . S
N2913 H2916 0.984 . S
N2913 H2917 0.985 . S
H2914 N2909 0.984 . S
H2915 N2909 0.985 . S
H2916 N2913 0.984 . S
H2917 N2913 0.985 . S
H2918 N2912 0.984 . S
H2919 N2912 0.984 . S
H2920 N2908 0.984 . S
H2921 N2908 0.985 . S
C2922 C2923 1.363 . S
C2922 C2928 1.379 . S
C2922 N2930 1.356 . S
C2923 C2922 1.363 . S
C2923 C2929 1.363 . S
C2924 C2925 1.363 . S
C2924 C2929 1.379 . S
C2924 N2931 1.356 . S
C2925 C2924 1.363 . S
C2925 C2928 1.363 . S
N2926 C2928 1.356 . S
N2926 H2938 0.984 . S
N2926 H2939 0.985 . S
N2927 C2929 1.356 . S
N2927 H2932 0.984 . S
N2927 H2933 0.985 . S
C2928 C2922 1.379 . S
C2928 C2925 1.363 . S
C2928 N2926 1.356 . S
C2929 C2923 1.363 . S
C2929 C2924 1.379 . S
C2929 N2927 1.356 . S
N2930 C2922 1.356 . S
N2930 H2936 0.984 . S
N2930 H2937 0.984 . S
N2931 C2924 1.356 . S
N2931 H2934 0.984 . S
N2931 H2935 0.985 . S
H2932 N2927 0.984 . S
H2933 N2927 0.985 . S
H2934 N2931 0.984 . S
H2935 N2931 0.985 . S
H2936 N2930 0.984 . S
H2937 N2930 0.984 . S
H2938 N2926 0.984 . S
H2939 N2926 0.985 . S
C2940 C2941 1.363 . S
C2940 C2946 1.379 . S
C2940 N2948 1.356 . S
C2941 C2940 1.363 . S
C2941 C2947 1.363 . S
C2942 C2943 1.363 . S
C2942 C2947 1.379 . S
C2942 N2949 1.356 . S
C2943 C2942 1.363 . S
C2943 C2946 1.363 . S
N2944 C2946 1.356 . S
N2944 H2956 0.984 . S
N2944 H2957 0.985 . S
N2945 C2947 1.356 . S
N2945 H2950 0.984 . S
N2945 H2951 0.985 . S
C2946 C2940 1.379 . S
C2946 C2943 1.363 . S
C2946 N2944 1.356 . S
C2947 C2941 1.363 . S
C2947 C2942 1.379 . S
C2947 N2945 1.356 . S
N2948 C2940 1.356 . S
N2948 H2954 0.984 . S
N2948 H2955 0.984 . S
N2949 C2942 1.356 . S
N2949 H2952 0.984 . S
N2949 H2953 0.985 . S
H2950 N2945 0.984 . S
H2951 N2945 0.985 . S
H2952 N2949 0.984 . S
H2953 N2949 0.985 . S
H2954 N2948 0.984 . S
H2955 N2948 0.984 . S
H2956 N2944 0.984 . S
H2957 N2944 0.985 . S
C2958 C2959 1.363 . S
C2958 C2964 1.379 . S
C2958 N2966 1.356 . S
C2959 C2958 1.363 . S
C2959 C2965 1.363 . S
C2960 C2961 1.363 . S
C2960 C2965 1.379 . S
C2960 N2967 1.356 . S
C2961 C2960 1.363 . S
C2961 C2964 1.363 . S
N2962 C2964 1.356 . S
N2962 H2974 0.984 . S
N2962 H2975 0.985 . S
N2963 C2965 1.356 . S
N2963 H2968 0.984 . S
N2963 H2969 0.985 . S
C2964 C2958 1.379 . S
C2964 C2961 1.363 . S
C2964 N2962 1.356 . S
C2965 C2959 1.363 . S
C2965 C2960 1.379 . S
C2965 N2963 1.356 . S
N2966 C2958 1.356 . S
N2966 H2972 0.984 . S
N2966 H2973 0.984 . S
N2967 C2960 1.356 . S
N2967 H2970 0.984 . S
N2967 H2971 0.985 . S
H2968 N2963 0.984 . S
H2969 N2963 0.985 . S
H2970 N2967 0.984 . S
H2971 N2967 0.985 . S
H2972 N2966 0.984 . S
H2973 N2966 0.984 . S
H2974 N2962 0.984 . S
H2975 N2962 0.985 . S
C2113 C1369 1.515 . S
C2115 C29 1.516 . S
C2131 C117 1.515 . S
C2133 C1465 1.515 . S
C2149 C196 1.516 . S
C2151 C1553 1.515 . S
C2167 C284 1.516 . S
C2169 C1105 1.515 . S
C2185 C1193 1.515 . S
C2187 C401 1.515 . S
C2203 C469 1.516 . S
C2205 C1289 1.515 . S
C2221 C1868 1.515 . S
C2223 C585 1.516 . S
C2239 C665 1.516 . S
C2241 C1956 1.515 . S
C2257 C761 1.515 . S
C2259 C2044 1.515 . S
C2275 C1613 1.515 . S
C2277 C841 1.516 . S
C2293 C937 1.516 . S
C2295 C1701 1.515 . S
C2311 C1780 1.515 . S
C2313 C1017 1.516 . S
C2329 C20 1.129 . S
C2331 C2081 1.132 . S
C2347 C1633 1.132 . S
C2349 C108 1.129 . S
C2365 C205 1.129 . S
C2367 C1721 1.132 . S
C2383 C1817 1.131 . S
C2385 C293 1.129 . S
C2401 C409 1.129 . S
C2403 C1905 1.132 . S
C2419 C1993 1.132 . S
C2421 C460 1.129 . S
C2437 C577 1.130 . S
C2439 C1173 1.132 . S
C2455 C1252 1.132 . S
C2457 C673 1.129 . S
C2473 C1349 1.132 . S
C2475 C753 1.129 . S
C2491 C1428 1.131 . S
C2493 C849 1.129 . S
C2509 C929 1.129 . S
C2511 C1516 1.132 . S
C2527 C1025 1.129 . S
C2529 C1085 1.132 . S
C2545 C636 1.076 . S
C2547 C57 1.076 . S
C2563 C733 1.076 . S
C2565 C145 1.076 . S
C2581 C812 1.076 . S
C2583 C225 1.076 . S
C2599 C909 1.076 . S
C2601 C313 1.076 . S
C2617 C372 1.076 . S
C2619 C988 1.076 . S
C2635 C497 1.076 . S
C2637 C557 1.076 . S
C2653 C1076 1.073 . S
C2655 C1729 1.073 . S
C2671 C1164 1.072 . S
C2673 C1809 1.072 . S
C2689 C1897 1.073 . S
C2691 C1261 1.073 . S
C2707 C1985 1.073 . S
C2709 C1340 1.073 . S
C2725 C2073 1.073 . S
C2727 C1437 1.073 . S
C2743 C1641 1.073 . S
C2745 C1525 1.073 . S
C2761 C49 1.529 . S
C2763 C1692 1.528 . S
C2779 C1789 1.528 . S
C2781 C137 1.529 . S
C2797 C233 1.529 . S
C2799 C1877 1.528 . S
C2815 C1965 1.528 . S
C2817 C321 1.529 . S
C2833 C381 1.529 . S
C2835 C2053 1.528 . S
C2851 C1604 1.528 . S
C2853 C489 1.530 . S
C2869 C548 1.529 . S
C2871 C1545 1.527 . S
C2887 C1113 1.528 . S
C2889 C645 1.529 . S
C2905 C724 1.529 . S
C2907 C1201 1.528 . S
C2923 C821 1.530 . S
C2925 C1281 1.528 . S
C2941 C900 1.529 . S
C2943 C1377 1.528 . S
C2959 C997 1.529 . S
C2961 C1457 1.528 . S
