# Generated by pormake.
# Topology smm, (6)-cn, num edge types: 1
# Building blocks:
#     Node 0, Type 0, BuildingBlock: JUFBIX_clean_sbu_0, # of connection points: 6
#     Node 1, Type 0, BuildingBlock: JUFBIX_clean_sbu_0, # of connection points: 6
#     Node 2, Type 0, BuildingBlock: JUFBIX_clean_sbu_0, # of connection points: 6
#     Node 3, Type 0, BuildingBlock: JUFBIX_clean_sbu_0, # of connection points: 6
#     Node 4, Type 0, BuildingBlock: JUFBIX_clean_sbu_0, # of connection points: 6
#     Node 5, Type 0, BuildingBlock: JUFBIX_clean_sbu_0, # of connection points: 6
#     Node 6, Type 0, BuildingBlock: JUFBIX_clean_sbu_0, # of connection points: 6
#     Node 7, Type 0, BuildingBlock: JUFBIX_clean_sbu_0, # of connection points: 6
#     Node 8, Type 0, BuildingBlock: JUFBIX_clean_sbu_0, # of connection points: 6
#     Edge 9, Type (0, 0), BuildingBlock: TEMPAE_clean_linker_10, # of connection points: 2
#     Edge 10, Type (0, 0), BuildingBlock: TEMPAE_clean_linker_10, # of connection points: 2
#     Edge 11, Type (0, 0), BuildingBlock: TEMPAE_clean_linker_10, # of connection points: 2
#     Edge 12, Type (0, 0), BuildingBlock: TEMPAE_clean_linker_10, # of connection points: 2
#     Edge 13, Type (0, 0), BuildingBlock: TEMPAE_clean_linker_10, # of connection points: 2
#     Edge 14, Type (0, 0), BuildingBlock: TEMPAE_clean_linker_10, # of connection points: 2
#     Edge 15, Type (0, 0), BuildingBlock: TEMPAE_clean_linker_10, # of connection points: 2
#     Edge 16, Type (0, 0), BuildingBlock: TEMPAE_clean_linker_10, # of connection points: 2
#     Edge 17, Type (0, 0), BuildingBlock: TEMPAE_clean_linker_10, # of connection points: 2
#     Edge 18, Type (0, 0), BuildingBlock: TEMPAE_clean_linker_10, # of connection points: 2
#     Edge 19, Type (0, 0), BuildingBlock: TEMPAE_clean_linker_10, # of connection points: 2
#     Edge 20, Type (0, 0), BuildingBlock: TEMPAE_clean_linker_10, # of connection points: 2
#     Edge 21, Type (0, 0), BuildingBlock: TEMPAE_clean_linker_10, # of connection points: 2
#     Edge 22, Type (0, 0), BuildingBlock: TEMPAE_clean_linker_10, # of connection points: 2
#     Edge 23, Type (0, 0), BuildingBlock: TEMPAE_clean_linker_10, # of connection points: 2
#     Edge 24, Type (0, 0), BuildingBlock: TEMPAE_clean_linker_10, # of connection points: 2
#     Edge 25, Type (0, 0), BuildingBlock: TEMPAE_clean_linker_10, # of connection points: 2
#     Edge 26, Type (0, 0), BuildingBlock: TEMPAE_clean_linker_10, # of connection points: 2
#     Edge 27, Type (0, 0), BuildingBlock: TEMPAE_clean_linker_10, # of connection points: 2
#     Edge 28, Type (0, 0), BuildingBlock: TEMPAE_clean_linker_10, # of connection points: 2
#     Edge 29, Type (0, 0), BuildingBlock: TEMPAE_clean_linker_10, # of connection points: 2
#     Edge 30, Type (0, 0), BuildingBlock: TEMPAE_clean_linker_10, # of connection points: 2
#     Edge 31, Type (0, 0), BuildingBlock: TEMPAE_clean_linker_10, # of connection points: 2
#     Edge 32, Type (0, 0), BuildingBlock: TEMPAE_clean_linker_10, # of connection points: 2
#     Edge 33, Type (0, 0), BuildingBlock: TEMPAE_clean_linker_10, # of connection points: 2
#     Edge 34, Type (0, 0), BuildingBlock: TEMPAE_clean_linker_10, # of connection points: 2
#     Edge 35, Type (0, 0), BuildingBlock: TEMPAE_clean_linker_10, # of connection points: 2
# Relax obj value: 0.251
# Max RMSD: 0.205
# Mean RMSD: 0.205
data_MOF--net-smm--node1-JUFBIX_clean_sbu_0--edge1-TEMPAE_clean_linker_10
_symmetry_space_group_name_H-M    P1
_symmetry_Int_Tables_number       1
_symmetry_cell_setting            triclinic
loop_
_symmetry_equiv_pos_as_xyz
'x, y, z'
_cell_length_a     58.410446
_cell_length_b     58.522888
_cell_length_c     15.00498
_cell_angle_alpha  90.224038
_cell_angle_beta   89.958267
_cell_angle_gamma 119.85044
loop_
_atom_site_label
_atom_site_type_symbol
_atom_site_fract_x
_atom_site_fract_y
_atom_site_fract_z
_atom_type_partial_charge
Co0 Co 0.99583 0.16386 0.96599 0.0
C1 C 0.0152 0.18097 0.13333 0.0
Co2 Co 0.03183 0.20308 0.96672 0.0
C3 C 0.96221 0.10719 -0.01569 0.0
C4 C 0.94297 0.12545 0.91862 0.0
N5 N 0.96558 0.13093 0.96054 0.0
N6 N 0.9386 0.08719 0.95744 0.0
C7 C 0.9264 0.09864 0.91652 0.0
H8 H 0.97735 0.1045 0.01594 0.0
H9 H 0.93925 0.13993 0.88754 0.0
C10 C 0.01219 0.18575 0.79906 0.0
N11 N 0.06182 0.236 0.969 0.0
C12 C 0.06647 0.25695 0.91878 0.0
C13 C 0.08345 0.24454 0.02076 0.0
N14 N 0.09008 0.27824 0.9371 0.0
C15 C 0.10083 0.27059 0.0016 0.0
C16 C 0.04248 0.16213 0.95145 0.0
O17 O 0.99546 0.16552 0.84097 0.0
O18 O 0.02986 0.20534 0.84175 0.0
O19 O 0.05293 0.18707 0.95182 0.0
O20 O 0.01753 0.14798 0.9581 0.0
O21 O 0.03341 0.20038 0.09171 0.0
H22 H 0.08636 0.23262 0.06938 0.0
H23 H 0.05253 0.25673 0.87078 0.0
O24 O 0.99627 0.16235 0.09085 0.0
O25 O 0.97475 0.18038 0.97555 0.0
O26 O 0.01065 0.21899 -0.01707 0.0
C27 C 0.98564 0.2052 -0.01417 0.0
H28 H 0.90718 0.08832 0.88501 0.0
H29 H 0.11996 0.28287 0.03202 0.0
Co30 Co 0.86958 0.84532 -0.01011 0.0
C31 C 0.85151 0.84534 0.15722 0.0
Co32 Co 0.82916 0.83917 -0.00967 0.0
C33 C 0.92669 0.87019 0.00766 0.0
C34 C 0.90917 0.83253 0.94305 0.0
N35 N 0.90314 0.8494 -0.01574 0.0
N36 N 0.94706 0.86703 -0.01869 0.0
C37 C 0.93608 0.84331 0.94102 0.0
H38 H 0.92892 0.8879 0.03888 0.0
H39 H 0.89493 0.81405 0.91271 0.0
C40 C 0.84722 0.83888 0.82278 0.0
N41 N 0.79538 0.8345 -0.00741 0.0
C42 C 0.77529 0.81924 0.93701 0.0
C43 C 0.78542 0.84543 0.04854 0.0
N44 N 0.75319 0.82018 0.95586 0.0
C45 C 0.75942 0.83656 0.02637 0.0
C46 C 0.86848 0.8918 -0.02045 0.0
O47 O 0.86678 0.84055 0.86503 0.0
O48 O 0.82837 0.83868 0.86516 0.0
O49 O 0.84377 0.87642 -0.01126 0.0
O50 O 0.88368 0.88211 0.97449 0.0
O51 O 0.83041 0.8397 0.11557 0.0
H52 H 0.79638 0.85906 0.10173 0.0
H53 H 0.77677 0.80737 0.88427 0.0
O54 O 0.87218 0.85001 0.11453 0.0
O55 O 0.85498 0.80855 0.0072 0.0
O56 O 0.81476 0.80192 -0.0067 0.0
C57 C 0.83023 0.79284 0.00601 0.0
H58 H 0.94681 0.83469 0.91028 0.0
H59 H 0.74627 0.84205 0.05864 0.0
Co60 Co 0.19011 0.03714 0.01426 0.0
C61 C 0.19119 0.01725 0.18083 0.0
Co62 Co 0.19523 1.0021 0.0129 0.0
C63 C 0.1659 0.0695 -0.013 0.0
C64 C 0.19951 0.08769 0.07347 0.0
N65 N 0.18544 0.06624 0.02175 0.0
N66 N 0.16703 0.09191 0.01622 0.0
C67 C 0.18826 0.10345 0.07028 0.0
H68 H 0.15034 0.05506 0.94488 0.0
H69 H 0.21626 0.09113 0.11392 0.0
C70 C 0.19393 0.02195 0.84634 0.0
N71 N 0.19995 0.97306 0.00585 0.0
C72 C 0.21519 0.96919 0.94688 0.0
C73 C 0.1894 0.95149 0.05804 0.0
N74 N 0.21466 0.94614 0.96021 0.0
C75 C 0.1985 0.93496 0.03039 0.0
C76 C 0.14289 0.98959 0.00783 0.0
O77 O 0.19247 0.03991 0.88934 0.0
O78 O 0.19494 1.00362 0.88775 0.0
O79 O 0.15796 0.97973 0.01209 0.0
O80 O 0.15301 0.01448 0.00582 0.0
O81 O 0.19541 1.00099 0.13797 0.0
H82 H 0.17598 0.94804 0.11268 0.0
H83 H 0.22686 0.98328 0.89601 0.0
O84 O 0.18771 0.03414 0.13937 0.0
O85 O 0.2274 0.05932 0.02336 0.0
O86 O 0.23236 0.02462 0.01536 0.0
C87 C 0.24246 0.04942 0.02325 0.0
H88 H 0.19483 0.12169 0.10658 0.0
H89 H 0.19341 0.91606 0.059 0.0
Co90 Co 0.66485 0.49996 0.32754 0.0
C91 C 0.68681 0.52057 0.49343 0.0
Co92 Co 0.70072 0.53913 0.32525 0.0
C93 C 0.63081 0.44343 0.30922 0.0
C94 C 0.6133 0.46147 0.38693 0.0
N95 N 0.63477 0.46709 0.33746 0.0
N96 N 0.60798 0.42333 0.34046 0.0
C97 C 0.59685 0.43464 0.38894 0.0
H98 H 0.64511 0.44086 0.27105 0.0
H99 H 0.6104 0.47585 0.42307 0.0
C100 C 0.67841 0.51872 0.15936 0.0
N101 N 0.7306 0.57204 0.31561 0.0
C102 C 0.73238 0.59326 0.27385 0.0
C103 C 0.75565 0.57924 0.33878 0.0
N104 N 0.75746 0.61316 0.26928 0.0
C105 C 0.77228 0.60453 0.30951 0.0
C106 C 0.71115 0.49786 0.31238 0.0
O107 O 0.66232 0.49831 0.20232 0.0
O108 O 0.6959 0.53877 0.20093 0.0
O109 O 0.72152 0.52274 0.30867 0.0
O110 O 0.68636 0.48389 0.32337 0.0
O111 O 0.70526 0.53927 0.45003 0.0
H112 H 0.76155 0.56662 0.37206 0.0
H113 H 0.71578 0.59372 0.24368 0.0
O114 O 0.66755 0.50194 0.45239 0.0
O115 O 0.64378 0.51655 0.33255 0.0
O116 O 0.67961 0.55513 0.34283 0.0
C117 C 0.65459 0.54133 0.3435 0.0
H118 H 0.57852 0.42422 0.42556 0.0
H119 H 0.79356 0.61558 0.31592 0.0
Co120 Co 0.53734 0.18055 0.33853 0.0
C121 C 0.51685 0.18118 0.50463 0.0
Co122 Co 0.49764 0.17642 0.3362 0.0
C123 C 0.5941 0.20329 0.31701 0.0
C124 C 0.57663 0.16847 0.39708 0.0
N125 N 0.57061 0.1839 0.3472 0.0
N126 N 0.61446 0.2007 0.34737 0.0
C127 C 0.6035 0.17874 0.39739 0.0
H128 H 0.59638 0.21979 0.27783 0.0
H129 H 0.56249 0.15148 0.4344 0.0
C130 C 0.51812 0.17534 0.17017 0.0
N131 N 0.46431 0.17271 0.32919 0.0
C132 C 0.44444 0.15647 0.27447 0.0
C133 C 0.45445 0.18529 0.37763 0.0
N134 N 0.42255 0.15832 0.28699 0.0
C135 C 0.4287 0.17636 0.35215 0.0
C136 C 0.53806 0.2282 0.32549 0.0
O137 O 0.53861 0.17965 0.21327 0.0
O138 O 0.49796 0.17262 0.21156 0.0
O139 O 0.51315 0.21335 0.32258 0.0
O140 O 0.55264 0.21792 0.33498 0.0
O141 O 0.49773 0.1802 0.46136 0.0
H142 H 0.46527 0.19997 0.4283 0.0
H143 H 0.44583 0.14314 0.22742 0.0
O144 O 0.53586 0.1813 0.46349 0.0
O145 O 0.52141 0.14312 0.34277 0.0
O146 O 0.48229 0.13951 0.35061 0.0
C147 C 0.49657 0.12877 0.35188 0.0
H148 H 0.61422 0.17108 0.43368 0.0
H149 H 0.41561 0.1828 0.37879 0.0
Co150 Co 0.85746 0.37042 0.33229 0.0
C151 C 0.85699 0.34927 0.49786 0.0
Co152 Co 0.8625 0.3353 0.32915 0.0
C153 C 0.83316 0.40313 0.31138 0.0
C154 C 0.868 0.42125 0.39223 0.0
N155 N 0.85312 0.39978 0.34146 0.0
N156 N 0.83485 0.42561 0.34265 0.0
C157 C 0.85686 0.4371 0.39306 0.0
H158 H 0.81688 0.38868 0.27163 0.0
H159 H 0.88518 0.4246 0.42992 0.0
C160 C 0.86268 0.35635 0.1636 0.0
N161 N 0.86693 0.30609 0.32145 0.0
C162 C 0.88278 0.30242 0.26461 0.0
C163 C 0.85532 0.28404 0.37123 0.0
N164 N 0.8816 0.27902 0.27704 0.0
C165 C 0.86439 0.26742 0.34435 0.0
C166 C 0.81019 0.32314 0.31824 0.0
O167 O 0.86048 0.37383 0.20708 0.0
O168 O 0.86391 0.33806 0.2045 0.0
O169 O 0.82521 0.3132 0.32154 0.0
O170 O 0.82034 0.34803 0.32141 0.0
O171 O 0.861 0.33295 0.45438 0.0
H172 H 0.84117 0.2803 0.42366 0.0
H173 H 0.8953 0.31687 0.21593 0.0
O174 O 0.85436 0.36676 0.45705 0.0
O175 O 0.89477 0.39225 0.34415 0.0
O176 O 0.89966 0.35751 0.33778 0.0
C177 C 0.90975 0.38228 0.34674 0.0
H178 H 0.86399 0.45533 0.43002 0.0
H179 H 0.85853 0.24816 0.37145 0.0
Co180 Co 0.32899 0.83249 0.63721 0.0
C181 C 0.34823 0.84996 0.80468 0.0
Co182 Co 0.36448 0.87209 0.63806 0.0
C183 C 0.29597 0.77608 0.66034 0.0
C184 C 0.27659 0.79323 0.5887 0.0
N185 N 0.29914 0.79939 0.63234 0.0
N186 N 0.27252 0.75564 0.63451 0.0
C187 C 0.26025 0.76637 0.58968 0.0
H188 H 0.31111 0.77399 0.69478 0.0
H189 H 0.27274 0.80729 0.55502 0.0
C190 C 0.34506 0.85469 0.47039 0.0
N191 N 0.39413 0.90529 0.64029 0.0
C192 C 0.39887 0.92587 0.58787 0.0
C193 C 0.41543 0.91438 0.69397 0.0
N194 N 0.42224 0.94745 0.60662 0.0
C195 C 0.43271 0.94037 0.67369 0.0
C196 C 0.37599 0.83164 0.6223 0.0
O197 O 0.32727 0.83508 0.51217 0.0
O198 O 0.36371 0.87341 0.51308 0.0
O199 O 0.38618 0.85648 0.62934 0.0
O200 O 0.35099 0.81722 0.62266 0.0
O201 O 0.36486 0.87039 0.76311 0.0
H202 H 0.41819 0.90285 0.74455 0.0
H203 H 0.3852 0.92516 0.53778 0.0
O204 O 0.33083 0.83009 0.76202 0.0
O205 O 0.30748 0.84829 0.65337 0.0
O206 O 0.34265 0.88751 0.64803 0.0
C207 C 0.31783 0.87321 0.65748 0.0
H208 H 0.24108 0.7555 0.5581 0.0
H209 H 0.45161 0.95296 0.70504 0.0
Co210 Co 0.20167 0.51355 0.69479 0.0
C211 C 0.18047 0.51255 0.86159 0.0
Co212 Co 0.16156 0.50863 0.69374 0.0
C213 C 0.25837 0.53722 0.67061 0.0
C214 C 0.24198 0.50289 0.75305 0.0
N215 N 0.23527 0.51777 0.70305 0.0
N216 N 0.27919 0.53521 0.69961 0.0
C217 C 0.2689 0.51355 0.75114 0.0
H218 H 0.26002 0.55327 0.63029 0.0
H219 H 0.22827 0.48593 0.79138 0.0
C220 C 0.18279 0.50929 0.52696 0.0
N221 N 0.12777 0.50389 0.68628 0.0
C222 C 0.10866 0.48813 0.62827 0.0
C223 C 0.11665 0.51477 0.73729 0.0
N224 N 0.08607 0.48865 0.64109 0.0
C225 C 0.09094 0.5053 0.70995 0.0
C226 C 0.20123 0.56078 0.68805 0.0
O227 O 0.20319 0.51326 0.56979 0.0
O228 O 0.16259 0.50636 0.56859 0.0
O229 O 0.17632 0.5457 0.68596 0.0
O230 O 0.21613 0.55074 0.69299 0.0
O231 O 0.16099 0.51093 0.81882 0.0
H232 H 0.12657 0.52862 0.791 0.0
H233 H 0.1111 0.47605 0.57855 0.0
O234 O 0.19994 0.51373 0.82003 0.0
O235 O 0.18663 0.47627 0.6969 0.0
O236 O 0.14706 0.47165 0.70298 0.0
C237 C 0.16179 0.46141 0.70366 0.0
H238 H 0.28011 0.50627 0.78652 0.0
H239 H 0.07701 0.51046 0.73787 0.0
Co240 Co 0.52207 0.70473 0.66301 0.0
C241 C 0.52146 0.68372 0.8287 0.0
Co242 Co 0.52629 0.66923 0.66004 0.0
C243 C 0.4985 0.73783 0.63874 0.0
C244 C 0.53272 0.75562 0.72261 0.0
N245 N 0.51804 0.73421 0.67135 0.0
N246 N 0.50022 0.76042 0.66892 0.0
C247 C 0.52181 0.7717 0.72136 0.0
H248 H 0.48249 0.7235 0.59776 0.0
H249 H 0.54961 0.75878 0.7617 0.0
C250 C 0.52738 0.69066 0.4944 0.0
N251 N 0.53058 0.63995 0.65292 0.0
C252 C 0.54746 0.63679 0.59966 0.0
C253 C 0.51796 0.61743 0.69994 0.0
N254 N 0.54597 0.61325 0.61172 0.0
C255 C 0.52748 0.60102 0.67504 0.0
C256 C 0.47436 0.65763 0.64911 0.0
O257 O 0.52308 0.70683 0.53776 0.0
O258 O 0.53006 0.67322 0.53551 0.0
O259 O 0.48922 0.64751 0.64593 0.0
O260 O 0.48474 0.68243 0.65851 0.0
O261 O 0.52255 0.66566 0.78514 0.0
H262 H 0.50287 0.61324 0.74924 0.0
H263 H 0.56095 0.65171 0.55399 0.0
O264 O 0.52123 0.70253 0.78793 0.0
O265 O 0.5595 0.72651 0.66863 0.0
O266 O 0.56326 0.69112 0.67524 0.0
C267 C 0.57393 0.71606 0.6778 0.0
H268 H 0.52882 0.78994 0.75808 0.0
H269 H 0.52109 0.5815 0.70077 0.0
C270 C 0.0966 0.30633 0.80675 0.0
C271 C 0.10107 0.30387 0.89709 0.0
C272 C 0.10664 0.33121 0.7673 0.0
C273 C 0.12111 0.35414 0.81996 0.0
C274 C 0.1258 0.35175 0.91117 0.0
C275 C 0.11591 0.32662 0.94841 0.0
C276 C 0.10163 0.33295 0.66954 0.0
C277 C 0.14078 0.37574 0.96991 0.0
C278 C 0.16623 0.42116 0.71777 0.0
C279 C 0.15045 0.43298 0.7224 0.0
C280 C 0.15658 0.39509 0.74598 0.0
C281 C 0.13068 0.38068 0.78081 0.0
C282 C 0.11437 0.39221 0.78283 0.0
C283 C 0.12438 0.41814 0.75297 0.0
C284 C 0.17439 0.38329 0.74136 0.0
C285 C 0.08673 0.37759 0.8203 0.0
H286 H 0.08541 0.28872 0.76678 0.0
H287 H 0.11913 0.32473 0.01843 0.0
H288 H 0.08982 0.34289 0.66117 0.0
H289 H 0.12062 0.34503 0.63431 0.0
H290 H 0.09093 0.31325 0.63714 0.0
H291 H 0.14294 0.37049 0.03926 0.0
H292 H 0.16074 0.38875 0.94213 0.0
H293 H 0.13039 0.38726 0.97174 0.0
H294 H 0.18637 0.43247 0.69398 0.0
H295 H 0.11207 0.42715 0.75711 0.0
H296 H 0.16412 0.36381 0.7076 0.0
H297 H 0.17936 0.38005 0.80977 0.0
H298 H 0.19306 0.39617 0.70527 0.0
H299 H 0.0751 0.35828 0.78639 0.0
H300 H 0.07615 0.38885 0.8131 0.0
H301 H 0.08758 0.37361 0.89212 0.0
C302 C 0.70453 0.79736 0.95703 0.0
C303 C 0.72822 0.80648 0.91002 0.0
C304 C 0.68005 0.7833 0.91367 0.0
C305 C 0.67926 0.77857 0.82072 0.0
C306 C 0.70313 0.78817 0.77259 0.0
C307 C 0.72733 0.80185 0.81795 0.0
C308 C 0.65502 0.77307 0.96764 0.0
C309 C 0.70311 0.78386 0.67331 0.0
C310 C 0.61632 0.72028 0.732 0.0
C311 C 0.60213 0.7324 0.70275 0.0
C312 C 0.64171 0.73516 0.76844 0.0
C313 C 0.65339 0.76288 0.77477 0.0
C314 C 0.63972 0.77536 0.74141 0.0
C315 C 0.61418 0.75996 0.70627 0.0
C316 C 0.65554 0.72107 0.80387 0.0
C317 C 0.65168 0.80491 0.74579 0.0
H318 H 0.70517 0.80068 0.02829 0.0
H319 H 0.74561 0.80921 0.78122 0.0
H320 H 0.64254 0.78079 0.94057 0.0
H321 H 0.64342 0.75127 0.96273 0.0
H322 H 0.65904 0.7787 0.03911 0.0
H323 H 0.72338 0.79344 0.64517 0.0
H324 H 0.69324 0.76246 0.65841 0.0
H325 H 0.69173 0.79177 0.63892 0.0
H326 H 0.60718 0.699 0.72987 0.0
H327 H 0.60338 0.76949 0.68376 0.0
H328 H 0.65816 0.72402 0.87706 0.0
H329 H 0.67549 0.7294 0.77414 0.0
H330 H 0.64436 0.69957 0.78982 0.0
H331 H 0.65368 0.81132 0.8164 0.0
H332 H 0.63951 0.81172 0.71016 0.0
H333 H 0.67177 0.81476 0.71648 0.0
C334 C 0.23291 0.94049 0.81866 0.0
C335 C 0.22868 0.93583 0.91045 0.0
C336 C 0.24662 0.93062 0.76945 0.0
C337 C 0.25669 0.9161 0.81342 0.0
C338 C 0.25253 0.91142 0.9062 0.0
C339 C 0.2384 0.92117 0.95337 0.0
C340 C 0.25031 0.93571 0.67049 0.0
C341 C 0.26331 0.89641 0.95593 0.0
C342 C 0.2742 0.87 0.68982 0.0
C343 C 0.30179 0.88525 0.68507 0.0
C344 C 0.25913 0.88019 0.72789 0.0
C345 C 0.27199 0.90612 0.7632 0.0
C346 C 0.29974 0.92194 0.75549 0.0
C347 C 0.31427 0.91139 0.71596 0.0
C348 C 0.22954 0.86284 0.73349 0.0
C349 C 0.31426 0.94958 0.79304 0.0
H350 H 0.22514 0.95155 0.7851 0.0
H351 H 0.23543 0.91781 0.02444 0.0
H352 H 0.27166 0.94707 0.65443 0.0
H353 H 0.24194 0.91674 0.63369 0.0
H354 H 0.24074 0.94682 0.64598 0.0
H355 H 0.25844 0.89455 0.02807 0.0
H356 H 0.25523 0.87637 0.92714 0.0
H357 H 0.28509 0.90652 0.94867 0.0
H358 H 0.26439 0.84982 0.66591 0.0
H359 H 0.3356 0.9233 0.71307 0.0
H360 H 0.21959 0.87339 0.70742 0.0
H361 H 0.22357 0.85799 0.8042 0.0
H362 H 0.22235 0.84415 0.69563 0.0
H363 H 0.30561 0.96135 0.76713 0.0
H364 H 0.33563 0.95989 0.77662 0.0
H365 H 0.31212 0.94886 0.86663 0.0
C366 C 0.37397 0.13518 0.28778 0.0
C367 C 0.39766 0.14362 0.24152 0.0
C368 C 0.34952 0.12023 0.24512 0.0
C369 C 0.34876 0.114 0.15342 0.0
C370 C 0.37265 0.12288 0.10592 0.0
C371 C 0.39684 0.13738 0.15083 0.0
C372 C 0.32449 0.1107 0.29861 0.0
C373 C 0.37265 0.11706 0.00781 0.0
C374 C 0.28538 0.05442 0.07441 0.0
C375 C 0.27091 0.06608 0.04366 0.0
C376 C 0.3111 0.06985 0.10759 0.0
C377 C 0.32285 0.09763 0.10845 0.0
C378 C 0.30894 0.10956 0.07259 0.0
C379 C 0.28301 0.09363 0.04143 0.0
C380 C 0.3251 0.05633 0.14635 0.0
C381 C 0.32103 0.13914 0.07058 0.0
H382 H 0.3746 0.13974 0.35809 0.0
H383 H 0.41517 0.14418 0.11481 0.0
H384 H 0.3121 0.11819 0.26911 0.0
H385 H 0.31281 0.08886 0.29651 0.0
H386 H 0.32851 0.11713 0.36939 0.0
H387 H 0.39294 0.12595 -0.01987 0.0
H388 H 0.36249 0.09547 -0.00348 0.0
H389 H 0.36155 0.12473 0.97025 0.0
H390 H 0.27613 0.03313 0.07683 0.0
H391 H 0.27198 0.10276 0.01737 0.0
H392 H 0.32774 0.06012 0.21918 0.0
H393 H 0.34505 0.0644 0.11679 0.0
H394 H 0.314 0.03468 0.13514 0.0
H395 H 0.32306 0.14679 0.13959 0.0
H396 H 0.30888 0.14534 0.03169 0.0
H397 H 0.34111 0.14841 0.04125 0.0
C398 C 0.90441 0.25313 0.27263 0.0
C399 C 0.8959 0.26872 0.22898 0.0
C400 C 0.9187 0.24326 0.22715 0.0
C401 C 0.92429 0.24878 0.13531 0.0
C402 C 0.91547 0.26426 0.09056 0.0
C403 C 0.90156 0.27421 0.13813 0.0
C404 C 0.92811 0.2272 0.27774 0.0
C405 C 0.9207 0.27026 -0.00751 0.0
C406 C 0.98229 0.24331 0.04626 0.0
C407 C 0.96974 0.2175 0.01232 0.0
C408 C 0.96768 0.25402 0.0841 0.0
C409 C 0.93981 0.2387 0.08701 0.0
C410 C 0.92695 0.21315 0.04873 0.0
C411 C 0.94207 0.20277 0.01238 0.0
C412 C 0.98219 0.28125 0.1249 0.0
C413 C 0.89724 0.19636 0.04923 0.0
H414 H 0.90035 0.24912 0.34303 0.0
H415 H 0.89472 0.28598 0.10394 0.0
H416 H 0.92001 0.20741 0.24689 0.0
H417 H 0.94995 0.23687 0.27419 0.0
H418 H 0.92217 0.22473 0.34897 0.0
H419 H 0.91196 0.28205 0.96708 0.0
H420 H 0.94228 0.28131 -0.01996 0.0
H421 H 0.91246 0.25164 0.95373 0.0
H422 H 1.00366 0.25484 0.04687 0.0
H423 H 0.9322 0.18285 -0.01391 0.0
H424 H 0.9789 0.27988 0.19801 0.0
H425 H 0.97444 0.2937 0.09802 0.0
H426 H 1.00378 0.29122 0.11232 0.0
H427 H 0.89018 0.19092 0.11875 0.0
H428 H 0.89021 0.17799 0.00959 0.0
H429 H 0.88814 0.2076 0.02213 0.0
C430 C 0.83369 0.7589 0.09423 0.0
C431 C 0.81966 0.76512 0.03246 0.0
C432 C 0.82288 0.73347 0.12941 0.0
C433 C 0.79778 0.7135 0.09981 0.0
C434 C 0.78396 0.71941 0.03463 0.0
C435 C 0.79486 0.74534 0.00293 0.0
C436 C 0.83791 0.72824 0.20082 0.0
C437 C 0.75754 0.69844 -0.00062 0.0
C438 C 0.78295 0.64389 0.14997 0.0
C439 C 0.76665 0.63778 0.22469 0.0
C440 C 0.79227 0.66804 0.10595 0.0
C441 C 0.7858 0.68676 0.13973 0.0
C442 C 0.76918 0.68049 0.21532 0.0
C443 C 0.75942 0.65581 0.25602 0.0
C444 C 0.80926 0.67364 0.02409 0.0
C445 C 0.76245 0.70017 0.25503 0.0
H446 H 0.85269 0.77428 0.11831 0.0
H447 H 0.784 0.75017 0.95521 0.0
H448 H 0.82593 0.72154 0.26261 0.0
H449 H 0.84166 0.71225 0.1793 0.0
H450 H 0.85713 0.74599 0.21682 0.0
H451 H 0.75039 0.70572 0.94368 0.0
H452 H 0.75889 0.68115 0.97576 0.0
H453 H 0.74267 0.69152 0.05354 0.0
H454 H 0.78816 0.62959 0.12583 0.0
H455 H 0.74679 0.6508 0.31405 0.0
H456 H 0.82953 0.6899 0.03818 0.0
H457 H 0.80131 0.68014 0.96865 0.0
H458 H 0.81044 0.65613 0.00181 0.0
H459 H 0.7808 0.71804 0.27686 0.0
H460 H 0.74899 0.69206 0.31314 0.0
H461 H 0.75297 0.70645 0.20421 0.0
C462 C 0.06215 0.47 0.50008 0.0
C463 C 0.06177 0.47411 0.59209 0.0
C464 C 0.03858 0.45584 0.45151 0.0
C465 C 0.01406 0.4451 0.49644 0.0
C466 C 0.01361 0.44905 0.58953 0.0
C467 C 0.03746 0.46374 0.636 0.0
C468 C 0.03989 0.45248 0.35217 0.0
C469 C 0.98792 0.43748 0.64032 0.0
C470 C 0.94954 0.42627 0.37778 0.0
C471 C 0.93792 0.39878 0.37201 0.0
C472 C 0.97489 0.44176 0.41425 0.0
C473 C 0.98879 0.42944 0.4469 0.0
C474 C 0.97762 0.40182 0.43781 0.0
C475 C 0.95242 0.38686 0.39991 0.0
C476 C 0.98631 0.4712 0.4213 0.0
C477 C 0.99166 0.38787 0.47252 0.0
H478 H 0.08095 0.47827 0.46594 0.0
H479 H 0.03717 0.46664 0.70725 0.0
H480 H 0.03021 0.43124 0.33487 0.0
H481 H 0.02899 0.46076 0.31683 0.0
H482 H 0.06052 0.46232 0.32714 0.0
H483 H 0.991 0.44207 0.71271 0.0
H484 H 0.9754 0.44519 0.61348 0.0
H485 H 0.97682 0.41576 0.63168 0.0
H486 H 0.93852 0.43566 0.35616 0.0
H487 H 0.94358 0.36562 0.3961 0.0
H488 H 1.00672 0.48163 0.39456 0.0
H489 H 0.9874 0.47695 0.49238 0.0
H490 H 0.97427 0.47801 0.38483 0.0
H491 H 0.01203 0.39713 0.44577 0.0
H492 H 0.98119 0.3666 0.45472 0.0
H493 H 0.99323 0.38972 0.5462 0.0
C494 C 0.56894 0.58753 0.61273 0.0
C495 C 0.56121 0.60343 0.56707 0.0
C496 C 0.58409 0.57809 0.57062 0.0
C497 C 0.59134 0.58436 0.48009 0.0
C498 C 0.58336 0.60021 0.43331 0.0
C499 C 0.56856 0.60973 0.47761 0.0
C500 C 0.59259 0.56164 0.62337 0.0
C501 C 0.59035 0.607 0.33646 0.0
C502 C 0.65054 0.57914 0.40302 0.0
C503 C 0.63843 0.55355 0.36724 0.0
C504 C 0.63545 0.58972 0.43765 0.0
C505 C 0.60755 0.57452 0.43523 0.0
C506 C 0.59522 0.54921 0.3951 0.0
C507 C 0.6108 0.53894 0.3622 0.0
C508 C 0.64938 0.61665 0.48073 0.0
C509 C 0.56554 0.53258 0.38987 0.0
H510 H 0.56357 0.58291 0.68214 0.0
H511 H 0.56235 0.62177 0.44188 0.0
H512 H 0.58491 0.54203 0.59149 0.0
H513 H 0.61445 0.57124 0.62382 0.0
H514 H 0.58553 0.55874 0.6934 0.0
H515 H 0.58231 0.61922 0.30932 0.0
H516 H 0.61211 0.61789 0.32826 0.0
H517 H 0.58256 0.58868 0.2962 0.0
H518 H 0.67188 0.59055 0.40755 0.0
H519 H 0.60129 0.5192 0.33442 0.0
H520 H 0.6449 0.61479 0.5531 0.0
H521 H 0.64216 0.62937 0.45219 0.0
H522 H 0.67114 0.62661 0.47218 0.0
H523 H 0.55728 0.52672 0.45793 0.0
H524 H 0.55908 0.51445 0.34935 0.0
H525 H 0.55702 0.5441 0.36058 0.0
C526 C 0.5002 0.08824 0.37326 0.0
C527 C 0.48478 0.10051 0.37436 0.0
C528 C 0.49013 0.06246 0.40509 0.0
C529 C 0.46418 0.04876 0.43986 0.0
C530 C 0.44825 0.06071 0.43843 0.0
C531 C 0.45868 0.08636 0.40515 0.0
C532 C 0.50757 0.05021 0.40427 0.0
C533 C 0.42056 0.04686 0.4756 0.0
C534 C 0.42918 0.9746 0.47317 0.0
C535 C 0.43339 0.9728 0.56424 0.0
C536 C 0.43953 0.99918 0.43125 0.0
C537 C 0.4541 0.0225 0.48201 0.0
C538 C 0.4585 0.02079 0.57397 0.0
C539 C 0.44825 0.99593 0.61379 0.0
C540 C 0.43477 1.00021 0.33283 0.0
C541 C 0.47361 0.04521 0.6307 0.0
H542 H 0.52037 0.09902 0.34946 0.0
H543 H 0.44664 0.09569 0.40659 0.0
H544 H 0.51221 0.04741 0.47369 0.0
H545 H 0.49714 0.03047 0.37229 0.0
H546 H 0.52642 0.06255 0.3684 0.0
H547 H 0.41031 0.05836 0.46572 0.0
H548 H 0.40869 0.02728 0.44359 0.0
H549 H 0.42123 0.0435 0.54806 0.0
H550 H 0.418 0.95672 0.4345 0.0
H551 H 0.45128 0.99457 0.68435 0.0
H552 H 0.45387 0.01174 0.29766 0.0
H553 H 0.42327 0.01038 0.32197 0.0
H554 H 0.42387 0.98027 0.30224 0.0
H555 H 0.49368 0.05776 0.60304 0.0
H556 H 0.4755 0.04047 0.70099 0.0
H557 H 0.46349 0.057 0.62981 0.0
C558 C 0.13515 0.09594 0.91864 0.0
C559 C 0.14804 0.10039 0.001 0.0
C560 C 0.11699 0.10466 0.90298 0.0
C561 C 0.11136 0.11775 0.97185 0.0
C562 C 0.12394 0.12177 0.05569 0.0
C563 C 0.14221 0.11318 0.06899 0.0
C564 C 0.10423 0.10031 0.81241 0.0
C565 C 0.11821 0.13528 0.13137 0.0
C566 C 0.08621 0.16515 0.92585 0.0
C567 C 0.0594 0.1499 0.94783 0.0
C568 C 0.10307 0.15451 0.92919 0.0
C569 C 0.09297 0.12807 0.95635 0.0
C570 C 0.06573 0.11229 0.97572 0.0
C571 C 0.04923 0.12335 0.97069 0.0
C572 C 0.1319 0.17189 0.90677 0.0
C573 C 0.05425 0.08409 0.00567 0.0
H574 H 0.13973 0.08616 0.8659 0.0
H575 H 0.15173 0.11619 0.13328 0.0
H576 H 0.08242 0.08936 0.81904 0.0
H577 H 0.10977 0.11958 0.7816 0.0
H578 H 0.11016 0.08917 0.76679 0.0
H579 H 0.12891 0.13598 0.19342 0.0
H580 H 0.12401 0.15575 0.11219 0.0
H581 H 0.09673 0.12487 0.14561 0.0
H582 H 0.09418 0.18561 0.90733 0.0
H583 H 0.02854 0.11144 -0.0122 0.0
H584 H 0.13827 0.16189 0.85793 0.0
H585 H 0.14402 0.17563 0.96774 0.0
H586 H 0.13611 0.19114 0.8788 0.0
H587 H 0.05975 0.07297 0.95857 0.0
H588 H 0.03239 0.07384 0.01106 0.0
H589 H 0.06252 0.08364 0.07177 0.0
C590 C 0.86428 0.93176 0.00606 0.0
C591 C 0.87947 0.92069 0.97704 0.0
C592 C 0.87457 0.95914 0.00573 0.0
C593 C 0.90052 0.97583 0.97415 0.0
C594 C 0.91595 0.96477 0.94454 0.0
C595 C 0.90531 0.93734 0.94707 0.0
C596 C 0.85764 0.9702 0.03901 0.0
C597 C 0.94353 0.98189 0.90895 0.0
C598 C 0.91531 0.0429 0.89018 0.0
C599 C 0.92955 0.05941 0.96155 0.0
C600 C 0.90622 0.01577 0.89278 0.0
C601 C 0.91112 0.00478 0.9693 0.0
C602 C 0.92561 0.02137 0.04153 0.0
C603 C 0.93488 0.04858 0.03639 0.0
C604 C 0.89133 0.99885 0.81363 0.0
C605 C 0.93089 0.01032 0.12475 0.0
H606 H 0.84438 0.91903 0.03007 0.0
H607 H 0.91715 0.92889 0.92442 0.0
H608 H 0.86809 0.98481 0.09282 0.0
H609 H 0.85397 0.98065 -0.01576 0.0
H610 H 0.83831 0.95465 0.065 0.0
H611 H 0.95304 0.97024 0.88941 0.0
H612 H 0.94293 0.99294 0.84993 0.0
H613 H 0.95603 0.99662 0.9599 0.0
H614 H 0.91161 0.05132 0.83155 0.0
H615 H 0.94579 0.06134 0.09165 0.0
H616 H 0.87101 0.98401 0.8338 0.0
H617 H 0.90111 0.98795 0.78904 0.0
H618 H 0.89007 0.01062 0.7579 0.0
H619 H 0.91192 0.99579 0.15571 0.0
H620 H 0.94266 0.0259 0.17461 0.0
H621 H 0.94166 0.99975 0.10768 0.0
C622 C 0.99133 0.88865 0.91449 0.0
C623 C 0.97477 0.88597 -0.01389 0.0
C624 C 0.01852 0.90646 0.91839 0.0
C625 C 0.02949 0.92165 -0.00345 0.0
C626 C 0.01282 0.91924 0.06888 0.0
C627 C 0.98555 0.90158 0.06238 0.0
C628 C 0.03551 0.90885 0.83908 0.0
C629 C 0.02388 0.93485 0.15376 0.0
C630 C 0.10238 0.94601 0.03307 0.0
C631 C 0.11389 0.97237 0.00629 0.0
C632 C 0.07488 0.9295 0.03257 0.0
C633 C 0.05853 0.93947 0.00301 0.0
C634 C 0.07003 0.96608 0.976 0.0
C635 C 0.09758 0.98229 -0.0213 0.0
C636 C 0.06332 0.90133 0.06306 0.0
C637 C 0.05329 0.97729 0.94249 0.0
H638 H 0.98291 0.87691 0.85488 0.0
H639 H 0.97271 0.89938 0.11778 0.0
H640 H 0.04684 0.92968 0.81722 0.0
H641 H 0.05003 0.90275 0.858 0.0
H642 H 0.0237 0.89654 0.78183 0.0
H643 H 0.00821 0.93108 0.20313 0.0
H644 H 0.03802 0.92971 0.1843 0.0
H645 H 0.03495 0.95623 0.13895 0.0
H646 H 0.11488 0.93831 0.05522 0.0
H647 H 0.10638 1.00264 0.95769 0.0
H648 H 0.05288 0.88771 0.00685 0.0
H649 H 0.04857 0.89705 0.1164 0.0
H650 H 0.07863 0.89706 0.08866 0.0
H651 H 0.04235 0.96641 0.88192 0.0
H652 H 0.06526 0.99856 0.92601 0.0
H653 H 0.03842 0.97476 -0.00668 0.0
C654 C 0.71766 0.45881 0.3279 0.0
C655 C 0.72791 0.48547 0.3064 0.0
C656 C 0.73389 0.44739 0.32833 0.0
C657 C 0.76092 0.46293 0.3058 0.0
C658 C 0.77109 0.48954 0.28059 0.0
C659 C 0.75452 0.50052 0.28173 0.0
C660 C 0.72234 0.41901 0.35633 0.0
C661 C 0.79971 0.50668 0.25504 0.0
C662 C 0.81084 0.44667 0.40479 0.0
C663 C 0.81569 0.43414 0.3334 0.0
C664 C 0.79264 0.45554 0.39712 0.0
C665 C 0.77911 0.45211 0.31557 0.0
C666 C 0.78366 0.43919 0.24339 0.0
C667 C 0.80178 0.43016 0.25344 0.0
C668 C 0.78806 0.46882 0.47621 0.0
C669 C 0.76983 0.43543 0.15512 0.0
H670 H 0.69711 0.44702 0.34689 0.0
H671 H 0.76255 0.52107 0.26422 0.0
H672 H 0.72697 0.40791 0.30629 0.0
H673 H 0.73134 0.41811 0.42036 0.0
H674 H 0.70058 0.40905 0.36499 0.0
H675 H 0.80398 0.52623 0.2298 0.0
H676 H 0.81246 0.50979 0.31386 0.0
H677 H 0.80524 0.49679 0.20299 0.0
H678 H 0.82115 0.44929 0.46729 0.0
H679 H 0.80558 0.42056 0.19813 0.0
H680 H 0.76676 0.45862 0.49326 0.0
H681 H 0.79397 0.48947 0.45933 0.0
H682 H 0.79935 0.46897 0.53598 0.0
H683 H 0.74813 0.42481 0.16483 0.0
H684 H 0.77488 0.42425 0.10659 0.0
H685 H 0.77537 0.45492 0.1261 0.0
C686 C 0.60316 0.38496 0.25547 0.0
C687 C 0.59906 0.3956 0.33369 0.0
C688 C 0.59429 0.35786 0.24828 0.0
C689 C 0.58143 0.34117 0.32166 0.0
C690 C 0.5777 0.35194 0.40131 0.0
C691 C 0.58641 0.37897 0.40609 0.0
C692 C 0.59828 0.34701 0.16188 0.0
C693 C 0.56445 0.3349 0.48154 0.0
C694 C 0.5342 0.26795 0.29217 0.0
C695 C 0.54978 0.25713 0.31907 0.0
C696 C 0.5446 0.29531 0.28928 0.0
C697 C 0.57113 0.31229 0.31511 0.0
C698 C 0.58715 0.30153 0.34039 0.0
C699 C 0.57633 0.27405 0.34152 0.0
C700 C 0.52698 0.30602 0.26075 0.0
C701 C 0.61545 0.319 0.36922 0.0
H702 H 0.61284 0.3978 0.19938 0.0
H703 H 0.58368 0.38721 0.46725 0.0
H704 H 0.60949 0.33661 0.1741 0.0
H705 H 0.57886 0.33237 0.13362 0.0
H706 H 0.60905 0.36268 0.11168 0.0
H707 H 0.56391 0.34651 0.53944 0.0
H708 H 0.5439 0.31977 0.46449 0.0
H709 H 0.57498 0.32435 0.50159 0.0
H710 H 0.51374 0.25501 0.27386 0.0
H711 H 0.58849 0.26583 0.36226 0.0
H712 H 0.53665 0.32088 0.20743 0.0
H713 H 0.52362 0.31607 0.31791 0.0
H714 H 0.50751 0.2903 0.23597 0.0
H715 H 0.6265 0.33411 0.31781 0.0
H716 H 0.62575 0.30765 0.38149 0.0
H717 H 0.61601 0.32959 0.4314 0.0
C718 C 0.65934 0.22397 0.41004 0.0
C719 C 0.64223 0.21909 0.33798 0.0
C720 C 0.68648 0.24164 0.40255 0.0
C721 C 0.69689 0.25447 0.32043 0.0
C722 C 0.67971 0.24969 0.24732 0.0
C723 C 0.65248 0.23222 0.25729 0.0
C724 C 0.70402 0.24655 0.48266 0.0
C725 C 0.69014 0.26271 0.15837 0.0
C726 C 0.76443 0.31612 0.33154 0.0
C727 C 0.78118 0.30595 0.31285 0.0
C728 C 0.73689 0.29973 0.33183 0.0
C729 C 0.72583 0.2726 0.31164 0.0
C730 C 0.74262 0.26244 0.28942 0.0
C731 C 0.7701 0.27918 0.29103 0.0
C732 C 0.71968 0.31126 0.35705 0.0
C733 C 0.73158 0.23371 0.26617 0.0
H734 H 0.65137 0.2142 0.47295 0.0
H735 H 0.63925 0.22833 0.20153 0.0
H736 H 0.71886 0.24054 0.46748 0.0
H737 H 0.71497 0.2679 0.49885 0.0
H738 H 0.69268 0.23562 0.54243 0.0
H739 H 0.67417 0.25704 0.10836 0.0
H740 H 0.7008 0.28445 0.16624 0.0
H741 H 0.70451 0.25719 0.13227 0.0
H742 H 0.77285 0.33679 0.34849 0.0
H743 H 0.78293 0.27125 0.27566 0.0
H744 H 0.70933 0.30243 0.42051 0.0
H745 H 0.70433 0.30646 0.30551 0.0
H746 H 0.73123 0.333 0.36549 0.0
H747 H 0.72182 0.22141 0.32546 0.0
H748 H 0.74712 0.22941 0.24302 0.0
H749 H 0.71638 0.22772 0.21323 0.0
C750 C 0.46858 0.7658 0.5746 0.0
C751 C 0.48139 0.76922 0.65662 0.0
C752 C 0.45065 0.77494 0.56176 0.0
C753 C 0.44508 0.78731 0.63325 0.0
C754 C 0.45754 0.79024 0.71674 0.0
C755 C 0.47567 0.78135 0.72713 0.0
C756 C 0.43805 0.77182 0.47143 0.0
C757 C 0.45181 0.80287 0.79518 0.0
C758 C 0.42002 0.83527 0.59723 0.0
C759 C 0.39312 0.81967 0.61734 0.0
C760 C 0.4369 0.82464 0.59804 0.0
C761 C 0.42675 0.79786 0.62104 0.0
C762 C 0.39946 0.78182 0.63906 0.0
C763 C 0.38292 0.79287 0.63631 0.0
C764 C 0.46578 0.8423 0.57697 0.0
C765 C 0.38792 0.75328 0.66498 0.0
H766 H 0.4731 0.75653 0.52 0.0
H767 H 0.48517 0.78356 0.79107 0.0
H768 H 0.41624 0.76076 0.47756 0.0
H769 H 0.44362 0.79149 0.444 0.0
H770 H 0.44409 0.76134 0.42327 0.0
H771 H 0.46238 0.80271 0.8565 0.0
H772 H 0.45775 0.82359 0.77931 0.0
H773 H 0.43031 0.79239 0.8091 0.0
H774 H 0.42798 0.85593 0.58168 0.0
H775 H 0.36216 0.7807 0.65209 0.0
H776 H 0.47224 0.83296 0.52585 0.0
H777 H 0.47777 0.84521 0.6377 0.0
H778 H 0.47007 0.86192 0.55239 0.0
H779 H 0.39333 0.74269 0.6153 0.0
H780 H 0.36607 0.74301 0.67076 0.0
H781 H 0.39626 0.75203 0.73003 0.0
C782 C 0.23904 0.60589 0.65798 0.0
C783 C 0.21275 0.58969 0.68442 0.0
C784 C 0.24994 0.6333 0.65153 0.0
C785 C 0.23431 0.64479 0.67382 0.0
C786 C 0.20796 0.62856 0.70268 0.0
C787 C 0.19741 0.60118 0.70673 0.0
C788 C 0.27793 0.64987 0.61878 0.0
C789 C 0.19081 0.64011 0.72849 0.0
C790 C 0.2682 0.71832 0.72328 0.0
C791 C 0.26356 0.72801 0.6442 0.0
C792 C 0.25884 0.69124 0.73404 0.0
C793 C 0.24505 0.67362 0.66319 0.0
C794 C 0.24092 0.68346 0.58239 0.0
C795 C 0.25 0.7105 0.57426 0.0
C796 C 0.26323 0.68142 0.82168 0.0
C797 C 0.22684 0.66543 0.50457 0.0
H798 H 0.25094 0.59708 0.64029 0.0
H799 H 0.17715 0.58876 0.72798 0.0
H800 H 0.27803 0.65989 0.55601 0.0
H801 H 0.28983 0.66546 0.66822 0.0
H802 H 0.28766 0.63798 0.60623 0.0
H803 H 0.17129 0.62499 0.7546 0.0
H804 H 0.20087 0.65561 0.78007 0.0
H805 H 0.18755 0.6496 0.66976 0.0
H806 H 0.27858 0.73189 0.7774 0.0
H807 H 0.24683 0.71806 0.51253 0.0
H808 H 0.27407 0.67058 0.81068 0.0
H809 H 0.24393 0.6674 0.8519 0.0
H810 H 0.27454 0.69771 0.86979 0.0
H811 H 0.23676 0.65411 0.48614 0.0
H812 H 0.22629 0.67639 0.44507 0.0
H813 H 0.20627 0.65096 0.52354 0.0
C814 C 0.43392 0.61396 0.62167 0.0
C815 C 0.44529 0.64065 0.645 0.0
C816 C 0.40644 0.59727 0.62274 0.0
C817 C 0.38994 0.60743 0.64899 0.0
C818 C 0.40125 0.63453 0.67007 0.0
C819 C 0.42878 0.65085 0.6673 0.0
C820 C 0.39512 0.56857 0.59853 0.0
C821 C 0.38436 0.64607 0.69921 0.0
C822 C 0.31598 0.56676 0.60509 0.0
C823 C 0.3068 0.55369 0.68655 0.0
C824 C 0.34303 0.58435 0.59152 0.0
C825 C 0.36115 0.58926 0.66169 0.0
C826 C 0.35184 0.57647 0.74458 0.0
C827 C 0.32485 0.55874 0.75573 0.0
C828 C 0.35226 0.59735 0.50187 0.0
C829 C 0.37042 0.58149 0.82164 0.0
H830 H 0.44653 0.60598 0.60354 0.0
H831 H 0.43741 0.67147 0.68528 0.0
H832 H 0.38619 0.55622 0.65842 0.0
H833 H 0.37921 0.56258 0.54821 0.0
H834 H 0.41034 0.56432 0.57165 0.0
H835 H 0.39597 0.66783 0.70678 0.0
H836 H 0.36828 0.64107 0.6504 0.0
H837 H 0.37494 0.63742 0.76405 0.0
H838 H 0.30205 0.56275 0.55147 0.0
H839 H 0.31774 0.54905 0.8193 0.0
H840 H 0.36623 0.59179 0.47231 0.0
H841 H 0.36306 0.61909 0.50972 0.0
H842 H 0.33563 0.5917 0.45463 0.0
H843 H 0.38511 0.57555 0.803 0.0
H844 H 0.3599 0.57054 0.88251 0.0
H845 H 0.38151 0.60284 0.83769 0.0
C846 C 0.02134 0.20913 0.65408 0.0
C847 C 0.01212 0.18563 0.7015 0.0
C848 C 0.02171 0.20904 0.56073 0.0
C849 C 0.01352 0.185 0.51485 0.0
C850 C 1.00452 0.1613 0.56276 0.0
C851 C 1.00353 0.16185 0.65573 0.0
C852 C 0.03064 0.23453 0.51131 0.0
C853 C 0.99634 0.13544 0.51595 0.0
C854 C 0.99164 0.17633 0.27441 0.0
C855 C 0.0148 0.18137 0.23047 0.0
C856 C 0.99121 0.17833 0.3672 0.0
C857 C 0.01421 0.18448 0.41655 0.0
C858 C 0.03757 0.18921 0.37219 0.0
C859 C 0.03773 0.18814 0.27898 0.0
C860 C 0.96625 0.17408 0.41225 0.0
C861 C 0.06218 0.19498 0.42313 0.0
H862 H 0.02788 0.22748 0.68997 0.0
H863 H 0.99673 0.14373 0.69283 0.0
H864 H 0.04828 0.23928 0.47044 0.0
H865 H 0.01489 0.2324 0.46496 0.0
H866 H 0.03559 0.25133 0.5571 0.0
H867 H 0.99077 0.11899 0.56348 0.0
H868 H 0.97929 0.13031 0.47144 0.0
H869 H 0.01275 0.13726 0.47355 0.0
H870 H 0.97411 0.17159 0.23586 0.0
H871 H 0.05558 0.19209 0.244 0.0
H872 H 0.97062 0.19121 0.45552 0.0
H873 H 0.95831 0.15648 0.45566 0.0
H874 H 0.95074 0.17127 0.36355 0.0
H875 H 0.06902 0.21303 0.46414 0.0
H876 H 0.07851 0.19773 0.37836 0.0
H877 H 0.05773 0.17854 0.46945 0.0
C878 C 0.85965 0.8272 0.67866 0.0
C879 C 0.84716 0.83867 0.72532 0.0
C880 C 0.86038 0.82762 0.58544 0.0
C881 C 0.84914 0.84064 0.53887 0.0
C882 C 0.83671 0.85245 0.58595 0.0
C883 C 0.83548 0.85094 0.67894 0.0
C884 C 0.873 0.81406 0.53687 0.0
C885 C 0.82511 0.86705 0.53827 0.0
C886 C 0.87281 0.86301 0.30372 0.0
C887 C 0.85122 0.84439 0.25441 0.0
C888 C 0.87232 0.8622 0.39699 0.0
C889 C 0.85013 0.8417 0.44065 0.0
C890 C 0.82861 0.82244 0.39062 0.0
C891 C 0.82922 0.82431 0.29777 0.0
C892 C 0.89526 0.88346 0.44874 0.0
C893 C 0.80503 0.79982 0.43502 0.0
H894 H 0.86855 0.81762 0.71509 0.0
H895 H 0.82608 0.86005 0.71558 0.0
H896 H 0.85868 0.7993 0.48931 0.0
H897 H 0.8901 0.82862 0.49744 0.0
H898 H 0.8799 0.80396 0.58314 0.0
H899 H 0.81698 0.87594 0.58521 0.0
H900 H 0.84046 0.88295 0.4967 0.0
H901 H 0.80907 0.85347 0.49283 0.0
H902 H 0.88973 0.87851 0.26936 0.0
H903 H 0.81273 0.80972 0.25881 0.0
H904 H 0.90429 0.8746 0.49126 0.0
H905 H 0.88816 0.89373 0.49369 0.0
H906 H 0.91075 0.89827 0.40446 0.0
H907 H 0.81161 0.78905 0.4793 0.0
H908 H 0.7907 0.78568 0.38594 0.0
H909 H 0.79472 0.80745 0.47732 0.0
C910 C 0.17985 0.99744 0.70416 0.0
C911 C 0.19344 0.02158 0.74905 0.0
C912 C 0.17889 0.99647 0.61114 0.0
C913 C 0.19267 0.02018 0.5626 0.0
C914 C 0.20677 0.04462 0.60777 0.0
C915 C 0.20658 0.04507 0.70105 0.0
C916 C 0.16295 0.97017 0.56494 0.0
C917 C 0.22232 0.07016 0.55766 0.0
C918 C 0.20959 0.01336 0.32465 0.0
C919 C 0.19108 0.01721 0.27805 0.0
C920 C 0.21072 0.01485 0.41773 0.0
C921 C 0.19224 0.01933 0.46437 0.0
C922 C 0.17311 0.02263 0.41734 0.0
C923 C 0.17309 0.02201 0.32419 0.0
C924 C 0.23186 0.01203 0.46601 0.0
C925 C 0.15256 0.02654 0.46531 0.0
H926 H 0.16951 0.97933 0.74198 0.0
H927 H 0.21722 0.06366 0.7365 0.0
H928 H 0.14816 0.97072 0.51998 0.0
H929 H 0.17605 0.96591 0.52308 0.0
H930 H 0.15248 0.95375 0.61287 0.0
H931 H 0.23294 0.08734 0.60308 0.0
H932 H 0.23694 0.06897 0.51346 0.0
H933 H 0.20895 0.07363 0.51452 0.0
H934 H 0.22368 0.00998 0.28811 0.0
H935 H 0.15874 0.02487 0.28733 0.0
H936 H 0.22269 0.99464 0.51046 0.0
H937 H 0.24368 0.02959 0.50868 0.0
H938 H 0.24539 0.00975 0.41938 0.0
H939 H 0.14123 0.00995 0.51176 0.0
H940 H 0.13852 0.02786 0.41858 0.0
H941 H 0.16227 0.04484 0.50587 0.0
C942 C 0.66226 0.51499 0.63265 0.0
C943 C 0.68609 0.52137 0.59064 0.0
C944 C 0.66064 0.51536 0.72547 0.0
C945 C 0.68321 0.52134 0.777 0.0
C946 C 0.70737 0.52773 0.73471 0.0
C947 C 0.70865 0.52816 0.64137 0.0
C948 C 0.63483 0.5094 0.76826 0.0
C949 C 0.73161 0.53356 0.78798 0.0
C950 C 0.68663 0.54282 0.0168 0.0
C951 C 0.678 0.519 0.06177 0.0
C952 C 0.688 0.5438 0.92371 0.0
C953 C 0.68135 0.52054 0.87524 0.0
C954 C 0.67261 0.49641 0.92046 0.0
C955 C 0.67065 0.49586 0.01352 0.0
C956 C 0.69656 0.56968 0.87733 0.0
C957 C 0.66589 0.47134 0.87072 0.0
H958 H 0.64494 0.5101 0.59261 0.0
H959 H 0.72699 0.533 0.60807 0.0
H960 H 0.62701 0.49117 0.80843 0.0
H961 H 0.638 0.52561 0.81429 0.0
H962 H 0.61967 0.50676 0.71827 0.0
H963 H 0.74871 0.53777 0.74473 0.0
H964 H 0.73726 0.55074 0.83242 0.0
H965 H 0.72726 0.51651 0.83111 0.0
H966 H 0.6922 0.56068 0.05455 0.0
H967 H 0.66429 0.47752 0.04874 0.0
H968 H 0.6813 0.56741 0.82847 0.0
H969 H 0.71503 0.57575 0.83963 0.0
H970 H 0.69999 0.58569 0.92485 0.0
H971 H 0.64944 0.46631 0.82351 0.0
H972 H 0.66008 0.4544 0.91622 0.0
H973 H 0.68313 0.47423 0.8308 0.0
C974 C 0.52301 0.16283 0.64405 0.0
C975 C 0.51615 0.17983 0.60173 0.0
C976 C 0.52245 0.16088 0.73686 0.0
C977 C 0.51584 0.17712 0.78797 0.0
C978 C 0.50903 0.19448 0.74532 0.0
C979 C 0.50876 0.19524 0.65202 0.0
C980 C 0.52885 0.14146 0.78009 0.0
C981 C 0.50259 0.21256 0.79816 0.0
C982 C 0.49412 0.15925 0.02705 0.0
C983 C 0.51788 0.17472 0.07266 0.0
C984 C 0.49323 0.15948 0.93393 0.0
C985 C 0.51652 0.17622 0.88618 0.0
C986 C 0.54056 0.19194 0.9321 0.0
C987 C 0.54103 0.19068 0.02515 0.0
C988 C 0.46746 0.14182 0.88677 0.0
C989 C 0.56561 0.21047 0.88313 0.0
H990 H 0.52837 0.15068 0.60425 0.0
H991 H 0.50354 0.20839 0.6184 0.0
H992 H 0.547 0.15212 0.82105 0.0
H993 H 0.51263 0.12829 0.82545 0.0
H994 H 0.53193 0.12913 0.73032 0.0
H995 H 0.49813 0.22517 0.75461 0.0
H996 H 0.48534 0.20087 0.84186 0.0
H997 H 0.51947 0.22546 0.84203 0.0
H998 H 0.47626 0.14684 0.06429 0.0
H999 H 0.55931 0.20285 0.06093 0.0
H1000 H 0.47006 0.12879 0.83886 0.0
H1001 H 0.46122 0.15387 0.84788 0.0
H1002 H 0.45139 0.12936 0.9339 0.0
H1003 H 0.57107 0.19923 0.8365 0.0
H1004 H 0.58244 0.22192 0.92918 0.0
H1005 H 0.56239 0.22447 0.84268 0.0
C1006 C 0.83929 0.35435 0.64179 0.0
C1007 C 0.85693 0.34912 0.59516 0.0
C1008 C 0.83985 0.35555 0.73493 0.0
C1009 C 0.85918 0.35243 0.78145 0.0
C1010 C 0.87726 0.34747 0.73429 0.0
C1011 C 0.87559 0.34539 0.64131 0.0
C1012 C 0.81968 0.35993 0.78347 0.0
C1013 C 0.89859 0.34481 0.78186 0.0
C1014 C 0.87483 0.37913 0.01723 0.0
C1015 C 0.86188 0.35582 0.06625 0.0
C1016 C 0.87452 0.37832 0.92385 0.0
C1017 C 0.86007 0.35373 0.87974 0.0
C1018 C 0.84643 0.33023 0.92942 0.0
C1019 C 0.8479 0.33154 0.02234 0.0
C1020 C 0.88993 0.40364 0.87249 0.0
C1021 C 0.83011 0.30377 0.88456 0.0
H1022 H 0.82489 0.3572 0.6053 0.0
H1023 H 0.88945 0.34176 0.60442 0.0
H1024 H 0.80853 0.34365 0.8312 0.0
H1025 H 0.82972 0.37847 0.8227 0.0
H1026 H 0.80544 0.36107 0.73721 0.0
H1027 H 0.9118 0.34217 0.73482 0.0
H1028 H 0.91071 0.3626 0.8232 0.0
H1029 H 0.88959 0.32769 0.82751 0.0
H1030 H 0.88572 0.39783 0.0519 0.0
H1031 H 0.83765 0.31358 0.06093 0.0
H1032 H 0.87643 0.40699 0.82965 0.0
H1033 H 0.90433 0.40221 0.82788 0.0
H1034 H 0.90078 0.42099 0.91706 0.0
H1035 H 0.81521 0.30429 0.84007 0.0
H1036 H 0.81973 0.28757 0.93333 0.0
H1037 H 0.84292 0.29918 0.84242 0.0
C1038 C 0.3212 0.84321 0.32583 0.0
C1039 C 0.34505 0.85483 0.37293 0.0
C1040 C 0.32107 0.84249 0.23255 0.0
C1041 C 0.34533 0.85275 0.18639 0.0
C1042 C 0.36945 0.86428 0.23398 0.0
C1043 C 0.36902 0.8656 0.32697 0.0
C1044 C 0.29507 0.83092 0.18348 0.0
C1045 C 0.39562 0.87478 0.18683 0.0
C1046 C 0.34357 0.82848 0.95104 0.0
C1047 C 0.34765 0.85042 0.90188 0.0
C1048 C 0.34304 0.82904 0.04433 0.0
C1049 C 0.34559 0.85168 0.08812 0.0
C1050 C 0.34898 0.87359 0.03816 0.0
C1051 C 0.35047 0.87287 0.94534 0.0
C1052 C 0.3402 0.80567 0.09596 0.0
C1053 C 0.35082 0.89766 0.08259 0.0
H1054 H 0.30271 0.835 0.36198 0.0
H1055 H 0.38742 0.87428 0.36397 0.0
H1056 H 0.29541 0.84555 0.13588 0.0
H1057 H 0.29187 0.81351 0.14403 0.0
H1058 H 0.27809 0.8248 0.22943 0.0
H1059 H 0.41248 0.88223 0.23413 0.0
H1060 H 0.39554 0.85903 0.14518 0.0
H1061 H 0.39884 0.89104 0.14155 0.0
H1062 H 0.3414 0.81119 0.91655 0.0
H1063 H 0.35319 0.88962 0.90642 0.0
H1064 H 0.32218 0.79734 0.13779 0.0
H1065 H 0.35728 0.81205 0.14157 0.0
H1066 H 0.339 0.78986 0.05162 0.0
H1067 H 0.33345 0.89183 0.12628 0.0
H1068 H 0.35182 0.9123 0.03352 0.0
H1069 H 0.36864 0.90731 0.1255 0.0
C1070 C 0.17179 0.52643 0.00804 0.0
C1071 C 0.18008 0.51159 0.95868 0.0
C1072 C 0.17236 0.52622 0.1013 0.0
C1073 C 0.18039 0.50995 0.14495 0.0
C1074 C 0.188 0.49431 0.09486 0.0
C1075 C 0.18824 0.49573 0.00192 0.0
C1076 C 0.16488 0.54372 0.15302 0.0
C1077 C 0.19574 0.47602 0.1393 0.0
C1078 C 0.20545 0.52529 0.38199 0.0
C1079 C 0.18253 0.50873 0.42958 0.0
C1080 C 0.20493 0.5262 0.28889 0.0
C1081 C 0.18113 0.50947 0.24316 0.0
C1082 C 0.15809 0.49219 0.2911 0.0
C1083 C 0.15897 0.49236 0.38421 0.0
C1084 C 0.22965 0.54539 0.23965 0.0
C1085 C 0.13262 0.47347 0.24416 0.0
H1086 H 0.16563 0.53874 0.97366 0.0
H1087 H 0.19434 0.48405 0.96281 0.0
H1088 H 0.14778 0.53163 0.19682 0.0
H1089 H 0.18151 0.55726 0.1967 0.0
H1090 H 0.15972 0.55565 0.10869 0.0
H1091 H 0.19967 0.46411 0.09029 0.0
H1092 H 0.21374 0.48756 0.18028 0.0
H1093 H 0.17981 0.46244 0.18486 0.0
H1094 H 0.22354 0.53814 0.41773 0.0
H1095 H 0.14131 0.47947 0.42165 0.0
H1096 H 0.2256 0.55864 0.19813 0.0
H1097 H 0.23591 0.53458 0.19398 0.0
H1098 H 0.24625 0.55762 0.28558 0.0
H1099 H 0.12561 0.48471 0.20425 0.0
H1100 H 0.11678 0.4607 0.29151 0.0
H1101 H 0.13599 0.46074 0.19722 0.0
C1102 C 0.54333 0.68247 0.3513 0.0
C1103 C 0.52811 0.69113 0.39688 0.0
C1104 C 0.54318 0.68145 0.25814 0.0
C1105 C 0.52677 0.68849 0.21029 0.0
C1106 C 0.51133 0.69723 0.25616 0.0
C1107 C 0.5125 0.69883 0.34927 0.0
C1108 C 0.56054 0.67287 0.21106 0.0
C1109 C 0.49317 0.70431 0.20704 0.0
C1110 C 0.54033 0.70808 0.96846 0.0
C1111 C 0.5229 0.68441 0.92579 0.0
C1112 C 0.54238 0.70947 0.0613 0.0
C1113 C 0.52582 0.68686 0.11204 0.0
C1114 C 0.50804 0.66289 0.06899 0.0
C1115 C 0.50718 0.66181 0.97568 0.0
C1116 C 0.56225 0.73507 0.10494 0.0
C1117 C 0.48962 0.63862 0.12143 0.0
H1118 H 0.55548 0.67664 0.38858 0.0
H1119 H 0.50053 0.70523 0.38499 0.0
H1120 H 0.54823 0.65469 0.17184 0.0
H1121 H 0.57376 0.6883 0.16348 0.0
H1122 H 0.57285 0.66899 0.25828 0.0
H1123 H 0.48198 0.71008 0.25302 0.0
H1124 H 0.5047 0.72085 0.16073 0.0
H1125 H 0.47889 0.68729 0.16623 0.0
H1126 H 0.55272 0.72541 0.92892 0.0
H1127 H 0.49371 0.64359 0.94175 0.0
H1128 H 0.57519 0.73166 0.15053 0.0
H1129 H 0.55189 0.74297 0.14573 0.0
H1130 H 0.57483 0.75024 0.05542 0.0
H1131 H 0.50111 0.63276 0.1651 0.0
H1132 H 0.47673 0.62169 0.07759 0.0
H1133 H 0.47696 0.64299 0.16529 0.0
loop_
_geom_bond_atom_site_label_1
_geom_bond_atom_site_label_2
_geom_bond_distance
_geom_bond_site_symmetry_2
_ccdc_geom_bond_type
Co0 N5 2.057 . S
Co0 O17 2.021 1_554 S
Co0 O20 2.062 1_654 S
Co0 O24 2.117 1_655 S
Co0 O25 2.020 . S
C1 O21 1.259 . S
C1 O24 1.258 . S
Co2 N11 2.057 1_554 S
Co2 O18 2.117 1_554 S
Co2 O19 2.020 1_554 S
Co2 O21 2.021 . S
Co2 O26 2.062 . S
C3 N5 1.316 1_556 S
C3 N6 1.347 1_556 S
C3 H8 0.931 . S
C4 N5 1.375 . S
C4 C7 1.350 . S
C4 H9 0.930 . S
N5 Co0 2.057 . S
N5 C3 1.316 1_554 S
N5 C4 1.375 . S
N6 C3 1.347 1_554 S
N6 C7 1.373 . S
C7 C4 1.350 . S
C7 N6 1.373 . S
C7 H28 0.931 . S
H8 C3 0.931 . S
H9 C4 0.930 . S
C10 O17 1.259 1_455 S
C10 O18 1.258 . S
N11 Co2 2.057 1_556 S
N11 C12 1.316 1_556 S
N11 C13 1.375 . S
C12 N11 1.316 1_554 S
C12 N14 1.347 1_554 S
C12 H23 0.931 . S
C13 N11 1.375 . S
C13 C15 1.350 . S
C13 H22 0.930 . S
N14 C12 1.347 1_556 S
N14 C15 1.373 . S
C15 C13 1.350 . S
C15 N14 1.373 . S
C15 H29 0.931 . S
C16 O19 1.256 . S
C16 O20 1.255 . S
O17 Co0 2.021 1_556 S
O17 C10 1.259 1_655 S
O18 Co2 2.117 1_556 S
O18 C10 1.258 . S
O19 Co2 2.020 1_556 S
O19 C16 1.256 . S
O20 Co0 2.062 1_456 S
O20 C16 1.255 . S
O21 C1 1.259 . S
O21 Co2 2.021 . S
H22 C13 0.930 . S
H23 C12 0.931 . S
O24 Co0 2.117 1_455 S
O24 C1 1.258 . S
O25 Co0 2.020 . S
O25 C27 1.256 . S
O26 Co2 2.062 . S
O26 C27 1.255 1_455 S
C27 O25 1.256 . S
C27 O26 1.255 1_655 S
H28 C7 0.931 . S
H29 C15 0.931 . S
Co30 N35 2.057 . S
Co30 O47 2.021 1_554 S
Co30 O50 2.062 1_554 S
Co30 O54 2.117 . S
Co30 O55 2.020 . S
C31 O51 1.259 . S
C31 O54 1.258 . S
Co32 N41 2.057 1_554 S
Co32 O48 2.117 1_554 S
Co32 O49 2.020 1_554 S
Co32 O51 2.021 . S
Co32 O56 2.062 . S
C33 N35 1.316 1_556 S
C33 N36 1.347 1_556 S
C33 H38 0.931 . S
C34 N35 1.375 . S
C34 C37 1.350 . S
C34 H39 0.930 . S
N35 Co30 2.057 . S
N35 C33 1.316 1_554 S
N35 C34 1.375 . S
N36 C33 1.347 1_554 S
N36 C37 1.373 . S
C37 C34 1.350 . S
C37 N36 1.373 . S
C37 H58 0.931 . S
H38 C33 0.931 . S
H39 C34 0.930 . S
C40 O47 1.259 . S
C40 O48 1.258 . S
N41 Co32 2.057 1_556 S
N41 C42 1.316 1_556 S
N41 C43 1.375 . S
C42 N41 1.316 1_554 S
C42 N44 1.347 1_554 S
C42 H53 0.931 . S
C43 N41 1.375 . S
C43 C45 1.350 . S
C43 H52 0.930 . S
N44 C42 1.347 1_556 S
N44 C45 1.373 . S
C45 C43 1.350 . S
C45 N44 1.373 . S
C45 H59 0.931 . S
C46 O49 1.256 . S
C46 O50 1.255 . S
O47 Co30 2.021 1_556 S
O47 C40 1.259 . S
O48 Co32 2.117 1_556 S
O48 C40 1.258 . S
O49 Co32 2.020 1_556 S
O49 C46 1.256 . S
O50 Co30 2.062 1_556 S
O50 C46 1.255 . S
O51 C31 1.259 . S
O51 Co32 2.021 . S
H52 C43 0.930 . S
H53 C42 0.931 . S
O54 Co30 2.117 . S
O54 C31 1.258 . S
O55 Co30 2.020 . S
O55 C57 1.256 . S
O56 Co32 2.062 . S
O56 C57 1.255 . S
C57 O55 1.256 . S
C57 O56 1.255 . S
H58 C37 0.931 . S
H59 C45 0.931 . S
Co60 N65 2.057 . S
Co60 O77 2.021 1_554 S
Co60 O80 2.062 1_554 S
Co60 O84 2.117 . S
Co60 O85 2.020 . S
C61 O81 1.259 1_545 S
C61 O84 1.258 . S
Co62 N71 2.057 1_554 S
Co62 O78 2.117 1_564 S
Co62 O79 2.020 1_554 S
Co62 O81 2.021 . S
Co62 O86 2.062 1_565 S
C63 N65 1.316 1_556 S
C63 N66 1.347 1_556 S
C63 H68 0.931 . S
C64 N65 1.375 . S
C64 C67 1.350 . S
C64 H69 0.930 . S
N65 Co60 2.057 . S
N65 C63 1.316 1_554 S
N65 C64 1.375 . S
N66 C63 1.347 1_554 S
N66 C67 1.373 . S
C67 C64 1.350 . S
C67 N66 1.373 . S
C67 H88 0.931 . S
H68 C63 0.931 . S
H69 C64 0.930 . S
C70 O77 1.259 . S
C70 O78 1.258 . S
N71 Co62 2.057 1_556 S
N71 C72 1.316 1_556 S
N71 C73 1.375 . S
C72 N71 1.316 1_554 S
C72 N74 1.347 1_554 S
C72 H83 0.931 . S
C73 N71 1.375 . S
C73 C75 1.350 . S
C73 H82 0.930 . S
N74 C72 1.347 1_556 S
N74 C75 1.373 . S
C75 C73 1.350 . S
C75 N74 1.373 . S
C75 H89 0.931 . S
C76 O79 1.256 . S
C76 O80 1.255 1_565 S
O77 Co60 2.021 1_556 S
O77 C70 1.259 . S
O78 Co62 2.117 1_546 S
O78 C70 1.258 . S
O79 Co62 2.020 1_556 S
O79 C76 1.256 . S
O80 Co60 2.062 1_556 S
O80 C76 1.255 1_545 S
O81 C61 1.259 1_565 S
O81 Co62 2.021 . S
H82 C73 0.930 . S
H83 C72 0.931 . S
O84 Co60 2.117 . S
O84 C61 1.258 . S
O85 Co60 2.020 . S
O85 C87 1.256 . S
O86 Co62 2.062 1_545 S
O86 C87 1.255 . S
C87 O85 1.256 . S
C87 O86 1.255 . S
H88 C67 0.931 . S
H89 C75 0.931 . S
Co90 N95 2.057 . S
Co90 O107 2.021 . S
Co90 O110 2.062 . S
Co90 O114 2.117 . S
Co90 O115 2.020 . S
C91 O111 1.259 . S
C91 O114 1.258 . S
Co92 N101 2.057 . S
Co92 O108 2.117 . S
Co92 O109 2.020 . S
Co92 O111 2.021 . S
Co92 O116 2.062 . S
C93 N95 1.316 . S
C93 N96 1.347 . S
C93 H98 0.931 . S
C94 N95 1.375 . S
C94 C97 1.350 . S
C94 H99 0.930 . S
N95 Co90 2.057 . S
N95 C93 1.316 . S
N95 C94 1.375 . S
N96 C93 1.347 . S
N96 C97 1.373 . S
C97 C94 1.350 . S
C97 N96 1.373 . S
C97 H118 0.931 . S
H98 C93 0.931 . S
H99 C94 0.930 . S
C100 O107 1.259 . S
C100 O108 1.258 . S
N101 Co92 2.057 . S
N101 C102 1.316 . S
N101 C103 1.375 . S
C102 N101 1.316 . S
C102 N104 1.347 . S
C102 H113 0.931 . S
C103 N101 1.375 . S
C103 C105 1.350 . S
C103 H112 0.930 . S
N104 C102 1.347 . S
N104 C105 1.373 . S
C105 C103 1.350 . S
C105 N104 1.373 . S
C105 H119 0.931 . S
C106 O109 1.256 . S
C106 O110 1.255 . S
O107 Co90 2.021 . S
O107 C100 1.259 . S
O108 Co92 2.117 . S
O108 C100 1.258 . S
O109 Co92 2.020 . S
O109 C106 1.256 . S
O110 Co90 2.062 . S
O110 C106 1.255 . S
O111 C91 1.259 . S
O111 Co92 2.021 . S
H112 C103 0.930 . S
H113 C102 0.931 . S
O114 Co90 2.117 . S
O114 C91 1.258 . S
O115 Co90 2.020 . S
O115 C117 1.256 . S
O116 Co92 2.062 . S
O116 C117 1.255 . S
C117 O115 1.256 . S
C117 O116 1.255 . S
H118 C97 0.931 . S
H119 C105 0.931 . S
Co120 N125 2.057 . S
Co120 O137 2.021 . S
Co120 O140 2.062 . S
Co120 O144 2.117 . S
Co120 O145 2.020 . S
C121 O141 1.259 . S
C121 O144 1.258 . S
Co122 N131 2.057 . S
Co122 O138 2.117 . S
Co122 O139 2.020 . S
Co122 O141 2.021 . S
Co122 O146 2.062 . S
C123 N125 1.316 . S
C123 N126 1.347 . S
C123 H128 0.931 . S
C124 N125 1.375 . S
C124 C127 1.350 . S
C124 H129 0.930 . S
N125 Co120 2.057 . S
N125 C123 1.316 . S
N125 C124 1.375 . S
N126 C123 1.347 . S
N126 C127 1.373 . S
C127 C124 1.350 . S
C127 N126 1.373 . S
C127 H148 0.931 . S
H128 C123 0.931 . S
H129 C124 0.930 . S
C130 O137 1.259 . S
C130 O138 1.258 . S
N131 Co122 2.057 . S
N131 C132 1.316 . S
N131 C133 1.375 . S
C132 N131 1.316 . S
C132 N134 1.347 . S
C132 H143 0.931 . S
C133 N131 1.375 . S
C133 C135 1.350 . S
C133 H142 0.930 . S
N134 C132 1.347 . S
N134 C135 1.373 . S
C135 C133 1.350 . S
C135 N134 1.373 . S
C135 H149 0.931 . S
C136 O139 1.256 . S
C136 O140 1.255 . S
O137 Co120 2.021 . S
O137 C130 1.259 . S
O138 Co122 2.117 . S
O138 C130 1.258 . S
O139 Co122 2.020 . S
O139 C136 1.256 . S
O140 Co120 2.062 . S
O140 C136 1.255 . S
O141 C121 1.259 . S
O141 Co122 2.021 . S
H142 C133 0.930 . S
H143 C132 0.931 . S
O144 Co120 2.117 . S
O144 C121 1.258 . S
O145 Co120 2.020 . S
O145 C147 1.256 . S
O146 Co122 2.062 . S
O146 C147 1.255 . S
C147 O145 1.256 . S
C147 O146 1.255 . S
H148 C127 0.931 . S
H149 C135 0.931 . S
Co150 N155 2.057 . S
Co150 O167 2.021 . S
Co150 O170 2.062 . S
Co150 O174 2.117 . S
Co150 O175 2.020 . S
C151 O171 1.259 . S
C151 O174 1.258 . S
Co152 N161 2.057 . S
Co152 O168 2.117 . S
Co152 O169 2.020 . S
Co152 O171 2.021 . S
Co152 O176 2.062 . S
C153 N155 1.316 . S
C153 N156 1.347 . S
C153 H158 0.931 . S
C154 N155 1.375 . S
C154 C157 1.350 . S
C154 H159 0.930 . S
N155 Co150 2.057 . S
N155 C153 1.316 . S
N155 C154 1.375 . S
N156 C153 1.347 . S
N156 C157 1.373 . S
C157 C154 1.350 . S
C157 N156 1.373 . S
C157 H178 0.931 . S
H158 C153 0.931 . S
H159 C154 0.930 . S
C160 O167 1.259 . S
C160 O168 1.258 . S
N161 Co152 2.057 . S
N161 C162 1.316 . S
N161 C163 1.375 . S
C162 N161 1.316 . S
C162 N164 1.347 . S
C162 H173 0.931 . S
C163 N161 1.375 . S
C163 C165 1.350 . S
C163 H172 0.930 . S
N164 C162 1.347 . S
N164 C165 1.373 . S
C165 C163 1.350 . S
C165 N164 1.373 . S
C165 H179 0.931 . S
C166 O169 1.256 . S
C166 O170 1.255 . S
O167 Co150 2.021 . S
O167 C160 1.259 . S
O168 Co152 2.117 . S
O168 C160 1.258 . S
O169 Co152 2.020 . S
O169 C166 1.256 . S
O170 Co150 2.062 . S
O170 C166 1.255 . S
O171 C151 1.259 . S
O171 Co152 2.021 . S
H172 C163 0.930 . S
H173 C162 0.931 . S
O174 Co150 2.117 . S
O174 C151 1.258 . S
O175 Co150 2.020 . S
O175 C177 1.256 . S
O176 Co152 2.062 . S
O176 C177 1.255 . S
C177 O175 1.256 . S
C177 O176 1.255 . S
H178 C157 0.931 . S
H179 C165 0.931 . S
Co180 N185 2.057 . S
Co180 O197 2.021 . S
Co180 O200 2.062 . S
Co180 O204 2.117 . S
Co180 O205 2.020 . S
C181 O201 1.259 . S
C181 O204 1.258 . S
Co182 N191 2.057 . S
Co182 O198 2.117 . S
Co182 O199 2.020 . S
Co182 O201 2.021 . S
Co182 O206 2.062 . S
C183 N185 1.316 . S
C183 N186 1.347 . S
C183 H188 0.931 . S
C184 N185 1.375 . S
C184 C187 1.350 . S
C184 H189 0.930 . S
N185 Co180 2.057 . S
N185 C183 1.316 . S
N185 C184 1.375 . S
N186 C183 1.347 . S
N186 C187 1.373 . S
C187 C184 1.350 . S
C187 N186 1.373 . S
C187 H208 0.931 . S
H188 C183 0.931 . S
H189 C184 0.930 . S
C190 O197 1.259 . S
C190 O198 1.258 . S
N191 Co182 2.057 . S
N191 C192 1.316 . S
N191 C193 1.375 . S
C192 N191 1.316 . S
C192 N194 1.347 . S
C192 H203 0.931 . S
C193 N191 1.375 . S
C193 C195 1.350 . S
C193 H202 0.930 . S
N194 C192 1.347 . S
N194 C195 1.373 . S
C195 C193 1.350 . S
C195 N194 1.373 . S
C195 H209 0.931 . S
C196 O199 1.256 . S
C196 O200 1.255 . S
O197 Co180 2.021 . S
O197 C190 1.259 . S
O198 Co182 2.117 . S
O198 C190 1.258 . S
O199 Co182 2.020 . S
O199 C196 1.256 . S
O200 Co180 2.062 . S
O200 C196 1.255 . S
O201 C181 1.259 . S
O201 Co182 2.021 . S
H202 C193 0.930 . S
H203 C192 0.931 . S
O204 Co180 2.117 . S
O204 C181 1.258 . S
O205 Co180 2.020 . S
O205 C207 1.256 . S
O206 Co182 2.062 . S
O206 C207 1.255 . S
C207 O205 1.256 . S
C207 O206 1.255 . S
H208 C187 0.931 . S
H209 C195 0.931 . S
Co210 N215 2.057 . S
Co210 O227 2.021 . S
Co210 O230 2.062 . S
Co210 O234 2.117 . S
Co210 O235 2.020 . S
C211 O231 1.259 . S
C211 O234 1.258 . S
Co212 N221 2.057 . S
Co212 O228 2.117 . S
Co212 O229 2.020 . S
Co212 O231 2.021 . S
Co212 O236 2.062 . S
C213 N215 1.316 . S
C213 N216 1.347 . S
C213 H218 0.931 . S
C214 N215 1.375 . S
C214 C217 1.350 . S
C214 H219 0.930 . S
N215 Co210 2.057 . S
N215 C213 1.316 . S
N215 C214 1.375 . S
N216 C213 1.347 . S
N216 C217 1.373 . S
C217 C214 1.350 . S
C217 N216 1.373 . S
C217 H238 0.931 . S
H218 C213 0.931 . S
H219 C214 0.930 . S
C220 O227 1.259 . S
C220 O228 1.258 . S
N221 Co212 2.057 . S
N221 C222 1.316 . S
N221 C223 1.375 . S
C222 N221 1.316 . S
C222 N224 1.347 . S
C222 H233 0.931 . S
C223 N221 1.375 . S
C223 C225 1.350 . S
C223 H232 0.930 . S
N224 C222 1.347 . S
N224 C225 1.373 . S
C225 C223 1.350 . S
C225 N224 1.373 . S
C225 H239 0.931 . S
C226 O229 1.256 . S
C226 O230 1.255 . S
O227 Co210 2.021 . S
O227 C220 1.259 . S
O228 Co212 2.117 . S
O228 C220 1.258 . S
O229 Co212 2.020 . S
O229 C226 1.256 . S
O230 Co210 2.062 . S
O230 C226 1.255 . S
O231 C211 1.259 . S
O231 Co212 2.021 . S
H232 C223 0.930 . S
H233 C222 0.931 . S
O234 Co210 2.117 . S
O234 C211 1.258 . S
O235 Co210 2.020 . S
O235 C237 1.256 . S
O236 Co212 2.062 . S
O236 C237 1.255 . S
C237 O235 1.256 . S
C237 O236 1.255 . S
H238 C217 0.931 . S
H239 C225 0.931 . S
Co240 N245 2.057 . S
Co240 O257 2.021 . S
Co240 O260 2.062 . S
Co240 O264 2.117 . S
Co240 O265 2.020 . S
C241 O261 1.259 . S
C241 O264 1.258 . S
Co242 N251 2.057 . S
Co242 O258 2.117 . S
Co242 O259 2.020 . S
Co242 O261 2.021 . S
Co242 O266 2.062 . S
C243 N245 1.316 . S
C243 N246 1.347 . S
C243 H248 0.931 . S
C244 N245 1.375 . S
C244 C247 1.350 . S
C244 H249 0.930 . S
N245 Co240 2.057 . S
N245 C243 1.316 . S
N245 C244 1.375 . S
N246 C243 1.347 . S
N246 C247 1.373 . S
C247 C244 1.350 . S
C247 N246 1.373 . S
C247 H268 0.931 . S
H248 C243 0.931 . S
H249 C244 0.930 . S
C250 O257 1.259 . S
C250 O258 1.258 . S
N251 Co242 2.057 . S
N251 C252 1.316 . S
N251 C253 1.375 . S
C252 N251 1.316 . S
C252 N254 1.347 . S
C252 H263 0.931 . S
C253 N251 1.375 . S
C253 C255 1.350 . S
C253 H262 0.930 . S
N254 C252 1.347 . S
N254 C255 1.373 . S
C255 C253 1.350 . S
C255 N254 1.373 . S
C255 H269 0.931 . S
C256 O259 1.256 . S
C256 O260 1.255 . S
O257 Co240 2.021 . S
O257 C250 1.259 . S
O258 Co242 2.117 . S
O258 C250 1.258 . S
O259 Co242 2.020 . S
O259 C256 1.256 . S
O260 Co240 2.062 . S
O260 C256 1.255 . S
O261 C241 1.259 . S
O261 Co242 2.021 . S
H262 C253 0.930 . S
H263 C252 0.931 . S
O264 Co240 2.117 . S
O264 C241 1.258 . S
O265 Co240 2.020 . S
O265 C267 1.256 . S
O266 Co242 2.062 . S
O266 C267 1.255 . S
C267 O265 1.256 . S
C267 O266 1.255 . S
H268 C247 0.931 . S
H269 C255 0.931 . S
C270 C271 1.391 . S
C270 C272 1.394 . S
C270 H286 0.931 . S
C271 C270 1.391 . S
C271 C275 1.376 1_556 S
C272 C270 1.394 . S
C272 C273 1.369 . S
C272 C276 1.531 . S
C273 C272 1.369 . S
C273 C274 1.410 . S
C273 C281 1.503 . S
C274 C273 1.410 . S
C274 C275 1.392 1_556 S
C274 C277 1.511 1_556 S
C275 C271 1.376 1_554 S
C275 C274 1.392 1_554 S
C275 H287 0.929 . S
C276 C272 1.531 . S
C276 H288 0.960 . S
C276 H289 0.962 . S
C276 H290 0.960 . S
C277 C274 1.511 1_554 S
C277 H291 0.961 . S
C277 H292 0.961 1_554 S
C277 H293 0.961 1_554 S
C278 C279 1.370 . S
C278 C280 1.363 . S
C278 H294 0.931 . S
C279 C278 1.370 . S
C279 C283 1.408 . S
C280 C278 1.363 . S
C280 C281 1.370 . S
C280 C284 1.524 . S
C281 C273 1.503 . S
C281 C280 1.370 . S
C281 C282 1.403 . S
C282 C281 1.403 . S
C282 C283 1.404 . S
C282 C285 1.539 . S
C283 C279 1.408 . S
C283 C282 1.404 . S
C283 H295 0.930 . S
C284 C280 1.524 . S
C284 H296 0.956 . S
C284 H297 0.961 . S
C284 H298 0.961 . S
C285 C282 1.539 . S
C285 H299 0.958 . S
C285 H300 0.961 . S
C285 H301 0.960 . S
H286 C270 0.931 . S
H287 C275 0.929 . S
H288 C276 0.960 . S
H289 C276 0.962 . S
H290 C276 0.960 . S
H291 C277 0.961 . S
H292 C277 0.961 1_556 S
H293 C277 0.961 1_556 S
H294 C278 0.931 . S
H295 C283 0.930 . S
H296 C284 0.956 . S
H297 C284 0.961 . S
H298 C284 0.961 . S
H299 C285 0.958 . S
H300 C285 0.961 . S
H301 C285 0.960 . S
C302 C303 1.391 . S
C302 C304 1.394 . S
C302 H318 0.931 . S
C303 C302 1.391 . S
C303 C307 1.376 . S
C304 C302 1.394 . S
C304 C305 1.369 . S
C304 C308 1.531 . S
C305 C304 1.369 . S
C305 C306 1.410 . S
C305 C313 1.503 . S
C306 C305 1.410 . S
C306 C307 1.392 . S
C306 C309 1.511 . S
C307 C303 1.376 . S
C307 C306 1.392 . S
C307 H319 0.929 . S
C308 C304 1.531 . S
C308 H320 0.960 . S
C308 H321 0.962 . S
C308 H322 0.960 . S
C309 C306 1.511 . S
C309 H323 0.961 . S
C309 H324 0.961 . S
C309 H325 0.961 . S
C310 C311 1.370 . S
C310 C312 1.363 . S
C310 H326 0.931 . S
C311 C310 1.370 . S
C311 C315 1.408 . S
C312 C310 1.363 . S
C312 C313 1.370 . S
C312 C316 1.524 . S
C313 C305 1.503 . S
C313 C312 1.370 . S
C313 C314 1.403 . S
C314 C313 1.403 . S
C314 C315 1.404 . S
C314 C317 1.539 . S
C315 C311 1.408 . S
C315 C314 1.404 . S
C315 H327 0.930 . S
C316 C312 1.524 . S
C316 H328 0.956 . S
C316 H329 0.961 . S
C316 H330 0.961 . S
C317 C314 1.539 . S
C317 H331 0.958 . S
C317 H332 0.961 . S
C317 H333 0.960 . S
H318 C302 0.931 . S
H319 C307 0.929 . S
H320 C308 0.960 . S
H321 C308 0.962 . S
H322 C308 0.960 . S
H323 C309 0.961 . S
H324 C309 0.961 . S
H325 C309 0.961 . S
H326 C310 0.931 . S
H327 C315 0.930 . S
H328 C316 0.956 . S
H329 C316 0.961 . S
H330 C316 0.961 . S
H331 C317 0.958 . S
H332 C317 0.961 . S
H333 C317 0.960 . S
C334 C335 1.391 . S
C334 C336 1.394 . S
C334 H350 0.931 . S
C335 C334 1.391 . S
C335 C339 1.376 . S
C336 C334 1.394 . S
C336 C337 1.369 . S
C336 C340 1.531 . S
C337 C336 1.369 . S
C337 C338 1.410 . S
C337 C345 1.503 . S
C338 C337 1.410 . S
C338 C339 1.392 . S
C338 C341 1.511 . S
C339 C335 1.376 . S
C339 C338 1.392 . S
C339 H351 0.929 1_556 S
C340 C336 1.531 . S
C340 H352 0.960 . S
C340 H353 0.962 . S
C340 H354 0.960 . S
C341 C338 1.511 . S
C341 H355 0.961 1_556 S
C341 H356 0.961 . S
C341 H357 0.961 . S
C342 C343 1.370 . S
C342 C344 1.363 . S
C342 H358 0.931 . S
C343 C342 1.370 . S
C343 C347 1.408 . S
C344 C342 1.363 . S
C344 C345 1.370 . S
C344 C348 1.524 . S
C345 C337 1.503 . S
C345 C344 1.370 . S
C345 C346 1.403 . S
C346 C345 1.403 . S
C346 C347 1.404 . S
C346 C349 1.539 . S
C347 C343 1.408 . S
C347 C346 1.404 . S
C347 H359 0.930 . S
C348 C344 1.524 . S
C348 H360 0.956 . S
C348 H361 0.961 . S
C348 H362 0.961 . S
C349 C346 1.539 . S
C349 H363 0.958 . S
C349 H364 0.961 . S
C349 H365 0.960 . S
H350 C334 0.931 . S
H351 C339 0.929 1_554 S
H352 C340 0.960 . S
H353 C340 0.962 . S
H354 C340 0.960 . S
H355 C341 0.961 1_554 S
H356 C341 0.961 . S
H357 C341 0.961 . S
H358 C342 0.931 . S
H359 C347 0.930 . S
H360 C348 0.956 . S
H361 C348 0.961 . S
H362 C348 0.961 . S
H363 C349 0.958 . S
H364 C349 0.961 . S
H365 C349 0.960 . S
C366 C367 1.391 . S
C366 C368 1.394 . S
C366 H382 0.931 . S
C367 C366 1.391 . S
C367 C371 1.376 . S
C368 C366 1.394 . S
C368 C369 1.369 . S
C368 C372 1.531 . S
C369 C368 1.369 . S
C369 C370 1.410 . S
C369 C377 1.503 . S
C370 C369 1.410 . S
C370 C371 1.392 . S
C370 C373 1.511 . S
C371 C367 1.376 . S
C371 C370 1.392 . S
C371 H383 0.929 . S
C372 C368 1.531 . S
C372 H384 0.960 . S
C372 H385 0.962 . S
C372 H386 0.960 . S
C373 C370 1.511 . S
C373 H387 0.961 . S
C373 H388 0.961 . S
C373 H389 0.961 . S
C374 C375 1.370 . S
C374 C376 1.363 . S
C374 H390 0.931 . S
C375 C374 1.370 . S
C375 C379 1.408 . S
C376 C374 1.363 . S
C376 C377 1.370 . S
C376 C380 1.524 . S
C377 C369 1.503 . S
C377 C376 1.370 . S
C377 C378 1.403 . S
C378 C377 1.403 . S
C378 C379 1.404 . S
C378 C381 1.539 . S
C379 C375 1.408 . S
C379 C378 1.404 . S
C379 H391 0.930 1_554 S
C380 C376 1.524 . S
C380 H392 0.956 . S
C380 H393 0.961 . S
C380 H394 0.961 . S
C381 C378 1.539 . S
C381 H395 0.958 . S
C381 H396 0.961 1_554 S
C381 H397 0.960 . S
H382 C366 0.931 . S
H383 C371 0.929 . S
H384 C372 0.960 . S
H385 C372 0.962 . S
H386 C372 0.960 . S
H387 C373 0.961 . S
H388 C373 0.961 . S
H389 C373 0.961 . S
H390 C374 0.931 . S
H391 C379 0.930 1_556 S
H392 C380 0.956 . S
H393 C380 0.961 . S
H394 C380 0.961 . S
H395 C381 0.958 . S
H396 C381 0.961 1_556 S
H397 C381 0.960 . S
C398 C399 1.391 . S
C398 C400 1.394 . S
C398 H414 0.931 . S
C399 C398 1.391 . S
C399 C403 1.376 . S
C400 C398 1.394 . S
C400 C401 1.369 . S
C400 C404 1.531 . S
C401 C400 1.369 . S
C401 C402 1.410 . S
C401 C409 1.503 . S
C402 C401 1.410 . S
C402 C403 1.392 . S
C402 C405 1.511 . S
C403 C399 1.376 . S
C403 C402 1.392 . S
C403 H415 0.929 . S
C404 C400 1.531 . S
C404 H416 0.960 . S
C404 H417 0.962 . S
C404 H418 0.960 . S
C405 C402 1.511 . S
C405 H419 0.961 . S
C405 H420 0.961 . S
C405 H421 0.961 . S
C406 C407 1.370 . S
C406 C408 1.363 . S
C406 H422 0.931 . S
C407 C406 1.370 . S
C407 C411 1.408 . S
C408 C406 1.363 . S
C408 C409 1.370 . S
C408 C412 1.524 . S
C409 C401 1.503 . S
C409 C408 1.370 . S
C409 C410 1.403 . S
C410 C409 1.403 . S
C410 C411 1.404 . S
C410 C413 1.539 . S
C411 C407 1.408 . S
C411 C410 1.404 . S
C411 H423 0.930 . S
C412 C408 1.524 . S
C412 H424 0.956 . S
C412 H425 0.961 . S
C412 H426 0.961 . S
C413 C410 1.539 . S
C413 H427 0.958 . S
C413 H428 0.961 . S
C413 H429 0.960 . S
H414 C398 0.931 . S
H415 C403 0.929 . S
H416 C404 0.960 . S
H417 C404 0.962 . S
H418 C404 0.960 . S
H419 C405 0.961 . S
H420 C405 0.961 . S
H421 C405 0.961 . S
H422 C406 0.931 . S
H423 C411 0.930 . S
H424 C412 0.956 . S
H425 C412 0.961 . S
H426 C412 0.961 . S
H427 C413 0.958 . S
H428 C413 0.961 . S
H429 C413 0.960 . S
C430 C431 1.391 . S
C430 C432 1.394 . S
C430 H446 0.931 . S
C431 C430 1.391 . S
C431 C435 1.376 . S
C432 C430 1.394 . S
C432 C433 1.369 . S
C432 C436 1.531 . S
C433 C432 1.369 . S
C433 C434 1.410 . S
C433 C441 1.503 . S
C434 C433 1.410 . S
C434 C435 1.392 . S
C434 C437 1.511 . S
C435 C431 1.376 . S
C435 C434 1.392 . S
C435 H447 0.929 1_554 S
C436 C432 1.531 . S
C436 H448 0.960 . S
C436 H449 0.962 . S
C436 H450 0.960 . S
C437 C434 1.511 . S
C437 H451 0.961 1_554 S
C437 H452 0.961 . S
C437 H453 0.961 . S
C438 C439 1.370 . S
C438 C440 1.363 . S
C438 H454 0.931 . S
C439 C438 1.370 . S
C439 C443 1.408 . S
C440 C438 1.363 . S
C440 C441 1.370 . S
C440 C444 1.524 . S
C441 C433 1.503 . S
C441 C440 1.370 . S
C441 C442 1.403 . S
C442 C441 1.403 . S
C442 C443 1.404 . S
C442 C445 1.539 . S
C443 C439 1.408 . S
C443 C442 1.404 . S
C443 H455 0.930 . S
C444 C440 1.524 . S
C444 H456 0.956 . S
C444 H457 0.961 . S
C444 H458 0.961 . S
C445 C442 1.539 . S
C445 H459 0.958 . S
C445 H460 0.961 . S
C445 H461 0.960 . S
H446 C430 0.931 . S
H447 C435 0.929 1_556 S
H448 C436 0.960 . S
H449 C436 0.962 . S
H450 C436 0.960 . S
H451 C437 0.961 1_556 S
H452 C437 0.961 . S
H453 C437 0.961 . S
H454 C438 0.931 . S
H455 C443 0.930 . S
H456 C444 0.956 . S
H457 C444 0.961 . S
H458 C444 0.961 . S
H459 C445 0.958 . S
H460 C445 0.961 . S
H461 C445 0.960 . S
C462 C463 1.391 . S
C462 C464 1.394 . S
C462 H478 0.931 . S
C463 C462 1.391 . S
C463 C467 1.376 . S
C464 C462 1.394 . S
C464 C465 1.369 1_455 S
C464 C468 1.531 . S
C465 C464 1.369 1_655 S
C465 C466 1.410 1_655 S
C465 C473 1.503 . S
C466 C465 1.410 1_455 S
C466 C467 1.392 . S
C466 C469 1.511 1_455 S
C467 C463 1.376 . S
C467 C466 1.392 . S
C467 H479 0.929 . S
C468 C464 1.531 . S
C468 H480 0.960 1_455 S
C468 H481 0.962 1_455 S
C468 H482 0.960 . S
C469 C466 1.511 1_655 S
C469 H483 0.961 . S
C469 H484 0.961 . S
C469 H485 0.961 . S
C470 C471 1.370 . S
C470 C472 1.363 . S
C470 H486 0.931 . S
C471 C470 1.370 . S
C471 C475 1.408 . S
C472 C470 1.363 . S
C472 C473 1.370 . S
C472 C476 1.524 . S
C473 C465 1.503 . S
C473 C472 1.370 . S
C473 C474 1.403 . S
C474 C473 1.403 . S
C474 C475 1.404 . S
C474 C477 1.539 . S
C475 C471 1.408 . S
C475 C474 1.404 . S
C475 H487 0.930 . S
C476 C472 1.524 . S
C476 H488 0.956 . S
C476 H489 0.961 . S
C476 H490 0.961 . S
C477 C474 1.539 . S
C477 H491 0.958 1_655 S
C477 H492 0.961 . S
C477 H493 0.960 1_655 S
H478 C462 0.931 . S
H479 C467 0.929 . S
H480 C468 0.960 1_655 S
H481 C468 0.962 1_655 S
H482 C468 0.960 . S
H483 C469 0.961 . S
H484 C469 0.961 . S
H485 C469 0.961 . S
H486 C470 0.931 . S
H487 C475 0.930 . S
H488 C476 0.956 . S
H489 C476 0.961 . S
H490 C476 0.961 . S
H491 C477 0.958 1_455 S
H492 C477 0.961 . S
H493 C477 0.960 1_455 S
C494 C495 1.391 . S
C494 C496 1.394 . S
C494 H510 0.931 . S
C495 C494 1.391 . S
C495 C499 1.376 . S
C496 C494 1.394 . S
C496 C497 1.369 . S
C496 C500 1.531 . S
C497 C496 1.369 . S
C497 C498 1.410 . S
C497 C505 1.503 . S
C498 C497 1.410 . S
C498 C499 1.392 . S
C498 C501 1.511 . S
C499 C495 1.376 . S
C499 C498 1.392 . S
C499 H511 0.929 . S
C500 C496 1.531 . S
C500 H512 0.960 . S
C500 H513 0.962 . S
C500 H514 0.960 . S
C501 C498 1.511 . S
C501 H515 0.961 . S
C501 H516 0.961 . S
C501 H517 0.961 . S
C502 C503 1.370 . S
C502 C504 1.363 . S
C502 H518 0.931 . S
C503 C502 1.370 . S
C503 C507 1.408 . S
C504 C502 1.363 . S
C504 C505 1.370 . S
C504 C508 1.524 . S
C505 C497 1.503 . S
C505 C504 1.370 . S
C505 C506 1.403 . S
C506 C505 1.403 . S
C506 C507 1.404 . S
C506 C509 1.539 . S
C507 C503 1.408 . S
C507 C506 1.404 . S
C507 H519 0.930 . S
C508 C504 1.524 . S
C508 H520 0.956 . S
C508 H521 0.961 . S
C508 H522 0.961 . S
C509 C506 1.539 . S
C509 H523 0.958 . S
C509 H524 0.961 . S
C509 H525 0.960 . S
H510 C494 0.931 . S
H511 C499 0.929 . S
H512 C500 0.960 . S
H513 C500 0.962 . S
H514 C500 0.960 . S
H515 C501 0.961 . S
H516 C501 0.961 . S
H517 C501 0.961 . S
H518 C502 0.931 . S
H519 C507 0.930 . S
H520 C508 0.956 . S
H521 C508 0.961 . S
H522 C508 0.961 . S
H523 C509 0.958 . S
H524 C509 0.961 . S
H525 C509 0.960 . S
C526 C527 1.391 . S
C526 C528 1.394 . S
C526 H542 0.931 . S
C527 C526 1.391 . S
C527 C531 1.376 . S
C528 C526 1.394 . S
C528 C529 1.369 . S
C528 C532 1.531 . S
C529 C528 1.369 . S
C529 C530 1.410 . S
C529 C537 1.503 . S
C530 C529 1.410 . S
C530 C531 1.392 . S
C530 C533 1.511 . S
C531 C527 1.376 . S
C531 C530 1.392 . S
C531 H543 0.929 . S
C532 C528 1.531 . S
C532 H544 0.960 . S
C532 H545 0.962 . S
C532 H546 0.960 . S
C533 C530 1.511 . S
C533 H547 0.961 . S
C533 H548 0.961 . S
C533 H549 0.961 . S
C534 C535 1.370 . S
C534 C536 1.363 1_565 S
C534 H550 0.931 . S
C535 C534 1.370 . S
C535 C539 1.408 1_565 S
C536 C534 1.363 1_545 S
C536 C537 1.370 . S
C536 C540 1.524 . S
C537 C529 1.503 . S
C537 C536 1.370 . S
C537 C538 1.403 . S
C538 C537 1.403 . S
C538 C539 1.404 . S
C538 C541 1.539 . S
C539 C535 1.408 1_545 S
C539 C538 1.404 . S
C539 H551 0.930 1_545 S
C540 C536 1.524 . S
C540 H552 0.956 . S
C540 H553 0.961 . S
C540 H554 0.961 1_545 S
C541 C538 1.539 . S
C541 H555 0.958 . S
C541 H556 0.961 . S
C541 H557 0.960 . S
H542 C526 0.931 . S
H543 C531 0.929 . S
H544 C532 0.960 . S
H545 C532 0.962 . S
H546 C532 0.960 . S
H547 C533 0.961 . S
H548 C533 0.961 . S
H549 C533 0.961 . S
H550 C534 0.931 . S
H551 C539 0.930 1_565 S
H552 C540 0.956 . S
H553 C540 0.961 . S
H554 C540 0.961 1_565 S
H555 C541 0.958 . S
H556 C541 0.961 . S
H557 C541 0.960 . S
C558 C559 1.391 1_556 S
C558 C560 1.394 . S
C558 H574 0.931 . S
C559 C558 1.391 1_554 S
C559 C563 1.376 . S
C560 C558 1.394 . S
C560 C561 1.369 1_556 S
C560 C564 1.531 . S
C561 C560 1.369 1_554 S
C561 C562 1.410 . S
C561 C569 1.503 . S
C562 C561 1.410 . S
C562 C563 1.392 . S
C562 C565 1.511 . S
C563 C559 1.376 . S
C563 C562 1.392 . S
C563 H575 0.929 . S
C564 C560 1.531 . S
C564 H576 0.960 . S
C564 H577 0.962 . S
C564 H578 0.960 . S
C565 C562 1.511 . S
C565 H579 0.961 . S
C565 H580 0.961 . S
C565 H581 0.961 . S
C566 C567 1.370 . S
C566 C568 1.363 . S
C566 H582 0.931 . S
C567 C566 1.370 . S
C567 C571 1.408 1_556 S
C568 C566 1.363 . S
C568 C569 1.370 1_556 S
C568 C572 1.524 . S
C569 C561 1.503 . S
C569 C568 1.370 1_554 S
C569 C570 1.403 . S
C570 C569 1.403 . S
C570 C571 1.404 . S
C570 C573 1.539 . S
C571 C567 1.408 1_554 S
C571 C570 1.404 . S
C571 H583 0.930 . S
C572 C568 1.524 . S
C572 H584 0.956 . S
C572 H585 0.961 1_556 S
C572 H586 0.961 . S
C573 C570 1.539 . S
C573 H587 0.958 . S
C573 H588 0.961 . S
C573 H589 0.960 . S
H574 C558 0.931 . S
H575 C563 0.929 . S
H576 C564 0.960 . S
H577 C564 0.962 . S
H578 C564 0.960 . S
H579 C565 0.961 . S
H580 C565 0.961 . S
H581 C565 0.961 . S
H582 C566 0.931 . S
H583 C571 0.930 . S
H584 C572 0.956 . S
H585 C572 0.961 1_554 S
H586 C572 0.961 . S
H587 C573 0.958 . S
H588 C573 0.961 . S
H589 C573 0.960 . S
C590 C591 1.391 1_554 S
C590 C592 1.394 . S
C590 H606 0.931 . S
C591 C590 1.391 1_556 S
C591 C595 1.376 . S
C592 C590 1.394 . S
C592 C593 1.369 . S
C592 C596 1.531 . S
C593 C592 1.369 . S
C593 C594 1.410 1_554 S
C593 C601 1.503 . S
C594 C593 1.410 1_556 S
C594 C595 1.392 . S
C594 C597 1.511 . S
C595 C591 1.376 . S
C595 C594 1.392 . S
C595 H607 0.929 . S
C596 C592 1.531 . S
C596 H608 0.960 . S
C596 H609 0.962 . S
C596 H610 0.960 . S
C597 C594 1.511 . S
C597 H611 0.961 . S
C597 H612 0.961 . S
C597 H613 0.961 . S
C598 C599 1.370 1_556 S
C598 C600 1.363 . S
C598 H614 0.931 . S
C599 C598 1.370 1_554 S
C599 C603 1.408 . S
C600 C598 1.363 . S
C600 C601 1.370 1_546 S
C600 C604 1.524 1_545 S
C601 C593 1.503 . S
C601 C600 1.370 1_564 S
C601 C602 1.403 1_565 S
C602 C601 1.403 1_545 S
C602 C603 1.404 . S
C602 C605 1.539 . S
C603 C599 1.408 . S
C603 C602 1.404 . S
C603 H615 0.930 . S
C604 C600 1.524 1_565 S
C604 H616 0.956 . S
C604 H617 0.961 . S
C604 H618 0.961 1_565 S
C605 C602 1.539 . S
C605 H619 0.958 1_545 S
C605 H620 0.961 . S
C605 H621 0.960 1_545 S
H606 C590 0.931 . S
H607 C595 0.929 . S
H608 C596 0.960 . S
H609 C596 0.962 . S
H610 C596 0.960 . S
H611 C597 0.961 . S
H612 C597 0.961 . S
H613 C597 0.961 . S
H614 C598 0.931 . S
H615 C603 0.930 . S
H616 C604 0.956 . S
H617 C604 0.961 . S
H618 C604 0.961 1_545 S
H619 C605 0.958 1_565 S
H620 C605 0.961 . S
H621 C605 0.960 1_565 S
C622 C623 1.391 1_556 S
C622 C624 1.394 1_655 S
C622 H638 0.931 . S
C623 C622 1.391 1_554 S
C623 C627 1.376 . S
C624 C622 1.394 1_455 S
C624 C625 1.369 . S
C624 C628 1.531 . S
C625 C624 1.369 . S
C625 C626 1.410 1_556 S
C625 C633 1.503 . S
C626 C625 1.410 1_554 S
C626 C627 1.392 1_455 S
C626 C629 1.511 . S
C627 C623 1.376 . S
C627 C626 1.392 1_655 S
C627 H639 0.929 . S
C628 C624 1.531 . S
C628 H640 0.960 . S
C628 H641 0.962 . S
C628 H642 0.960 . S
C629 C626 1.511 . S
C629 H643 0.961 . S
C629 H644 0.961 . S
C629 H645 0.961 1_554 S
C630 C631 1.370 1_554 S
C630 C632 1.363 . S
C630 H646 0.931 . S
C631 C630 1.370 1_556 S
C631 C635 1.408 . S
C632 C630 1.363 . S
C632 C633 1.370 1_554 S
C632 C636 1.524 . S
C633 C625 1.503 . S
C633 C632 1.370 1_556 S
C633 C634 1.403 . S
C634 C633 1.403 . S
C634 C635 1.404 . S
C634 C637 1.539 . S
C635 C631 1.408 . S
C635 C634 1.404 . S
C635 H647 0.930 . S
C636 C632 1.524 . S
C636 H648 0.956 . S
C636 H649 0.961 . S
C636 H650 0.961 . S
C637 C634 1.539 . S
C637 H651 0.958 . S
C637 H652 0.961 . S
C637 H653 0.960 . S
H638 C622 0.931 . S
H639 C627 0.929 . S
H640 C628 0.960 . S
H641 C628 0.962 . S
H642 C628 0.960 . S
H643 C629 0.961 . S
H644 C629 0.961 . S
H645 C629 0.961 1_556 S
H646 C630 0.931 . S
H647 C635 0.930 . S
H648 C636 0.956 . S
H649 C636 0.961 . S
H650 C636 0.961 . S
H651 C637 0.958 . S
H652 C637 0.961 . S
H653 C637 0.960 . S
C654 C655 1.391 . S
C654 C656 1.394 . S
C654 H670 0.931 . S
C655 C654 1.391 . S
C655 C659 1.376 . S
C656 C654 1.394 . S
C656 C657 1.369 . S
C656 C660 1.531 . S
C657 C656 1.369 . S
C657 C658 1.410 . S
C657 C665 1.503 . S
C658 C657 1.410 . S
C658 C659 1.392 . S
C658 C661 1.511 . S
C659 C655 1.376 . S
C659 C658 1.392 . S
C659 H671 0.929 . S
C660 C656 1.531 . S
C660 H672 0.960 . S
C660 H673 0.962 . S
C660 H674 0.960 . S
C661 C658 1.511 . S
C661 H675 0.961 . S
C661 H676 0.961 . S
C661 H677 0.961 . S
C662 C663 1.370 . S
C662 C664 1.363 . S
C662 H678 0.931 . S
C663 C662 1.370 . S
C663 C667 1.408 . S
C664 C662 1.363 . S
C664 C665 1.370 . S
C664 C668 1.524 . S
C665 C657 1.503 . S
C665 C664 1.370 . S
C665 C666 1.403 . S
C666 C665 1.403 . S
C666 C667 1.404 . S
C666 C669 1.539 . S
C667 C663 1.408 . S
C667 C666 1.404 . S
C667 H679 0.930 . S
C668 C664 1.524 . S
C668 H680 0.956 . S
C668 H681 0.961 . S
C668 H682 0.961 . S
C669 C666 1.539 . S
C669 H683 0.958 . S
C669 H684 0.961 . S
C669 H685 0.960 . S
H670 C654 0.931 . S
H671 C659 0.929 . S
H672 C660 0.960 . S
H673 C660 0.962 . S
H674 C660 0.960 . S
H675 C661 0.961 . S
H676 C661 0.961 . S
H677 C661 0.961 . S
H678 C662 0.931 . S
H679 C667 0.930 . S
H680 C668 0.956 . S
H681 C668 0.961 . S
H682 C668 0.961 . S
H683 C669 0.958 . S
H684 C669 0.961 . S
H685 C669 0.960 . S
C686 C687 1.391 . S
C686 C688 1.394 . S
C686 H702 0.931 . S
C687 C686 1.391 . S
C687 C691 1.376 . S
C688 C686 1.394 . S
C688 C689 1.369 . S
C688 C692 1.531 . S
C689 C688 1.369 . S
C689 C690 1.410 . S
C689 C697 1.503 . S
C690 C689 1.410 . S
C690 C691 1.392 . S
C690 C693 1.511 . S
C691 C687 1.376 . S
C691 C690 1.392 . S
C691 H703 0.929 . S
C692 C688 1.531 . S
C692 H704 0.960 . S
C692 H705 0.962 . S
C692 H706 0.960 . S
C693 C690 1.511 . S
C693 H707 0.961 . S
C693 H708 0.961 . S
C693 H709 0.961 . S
C694 C695 1.370 . S
C694 C696 1.363 . S
C694 H710 0.931 . S
C695 C694 1.370 . S
C695 C699 1.408 . S
C696 C694 1.363 . S
C696 C697 1.370 . S
C696 C700 1.524 . S
C697 C689 1.503 . S
C697 C696 1.370 . S
C697 C698 1.403 . S
C698 C697 1.403 . S
C698 C699 1.404 . S
C698 C701 1.539 . S
C699 C695 1.408 . S
C699 C698 1.404 . S
C699 H711 0.930 . S
C700 C696 1.524 . S
C700 H712 0.956 . S
C700 H713 0.961 . S
C700 H714 0.961 . S
C701 C698 1.539 . S
C701 H715 0.958 . S
C701 H716 0.961 . S
C701 H717 0.960 . S
H702 C686 0.931 . S
H703 C691 0.929 . S
H704 C692 0.960 . S
H705 C692 0.962 . S
H706 C692 0.960 . S
H707 C693 0.961 . S
H708 C693 0.961 . S
H709 C693 0.961 . S
H710 C694 0.931 . S
H711 C699 0.930 . S
H712 C700 0.956 . S
H713 C700 0.961 . S
H714 C700 0.961 . S
H715 C701 0.958 . S
H716 C701 0.961 . S
H717 C701 0.960 . S
C718 C719 1.391 . S
C718 C720 1.394 . S
C718 H734 0.931 . S
C719 C718 1.391 . S
C719 C723 1.376 . S
C720 C718 1.394 . S
C720 C721 1.369 . S
C720 C724 1.531 . S
C721 C720 1.369 . S
C721 C722 1.410 . S
C721 C729 1.503 . S
C722 C721 1.410 . S
C722 C723 1.392 . S
C722 C725 1.511 . S
C723 C719 1.376 . S
C723 C722 1.392 . S
C723 H735 0.929 . S
C724 C720 1.531 . S
C724 H736 0.960 . S
C724 H737 0.962 . S
C724 H738 0.960 . S
C725 C722 1.511 . S
C725 H739 0.961 . S
C725 H740 0.961 . S
C725 H741 0.961 . S
C726 C727 1.370 . S
C726 C728 1.363 . S
C726 H742 0.931 . S
C727 C726 1.370 . S
C727 C731 1.408 . S
C728 C726 1.363 . S
C728 C729 1.370 . S
C728 C732 1.524 . S
C729 C721 1.503 . S
C729 C728 1.370 . S
C729 C730 1.403 . S
C730 C729 1.403 . S
C730 C731 1.404 . S
C730 C733 1.539 . S
C731 C727 1.408 . S
C731 C730 1.404 . S
C731 H743 0.930 . S
C732 C728 1.524 . S
C732 H744 0.956 . S
C732 H745 0.961 . S
C732 H746 0.961 . S
C733 C730 1.539 . S
C733 H747 0.958 . S
C733 H748 0.961 . S
C733 H749 0.960 . S
H734 C718 0.931 . S
H735 C723 0.929 . S
H736 C724 0.960 . S
H737 C724 0.962 . S
H738 C724 0.960 . S
H739 C725 0.961 . S
H740 C725 0.961 . S
H741 C725 0.961 . S
H742 C726 0.931 . S
H743 C731 0.930 . S
H744 C732 0.956 . S
H745 C732 0.961 . S
H746 C732 0.961 . S
H747 C733 0.958 . S
H748 C733 0.961 . S
H749 C733 0.960 . S
C750 C751 1.391 . S
C750 C752 1.394 . S
C750 H766 0.931 . S
C751 C750 1.391 . S
C751 C755 1.376 . S
C752 C750 1.394 . S
C752 C753 1.369 . S
C752 C756 1.531 . S
C753 C752 1.369 . S
C753 C754 1.410 . S
C753 C761 1.503 . S
C754 C753 1.410 . S
C754 C755 1.392 . S
C754 C757 1.511 . S
C755 C751 1.376 . S
C755 C754 1.392 . S
C755 H767 0.929 . S
C756 C752 1.531 . S
C756 H768 0.960 . S
C756 H769 0.962 . S
C756 H770 0.960 . S
C757 C754 1.511 . S
C757 H771 0.961 . S
C757 H772 0.961 . S
C757 H773 0.961 . S
C758 C759 1.370 . S
C758 C760 1.363 . S
C758 H774 0.931 . S
C759 C758 1.370 . S
C759 C763 1.408 . S
C760 C758 1.363 . S
C760 C761 1.370 . S
C760 C764 1.524 . S
C761 C753 1.503 . S
C761 C760 1.370 . S
C761 C762 1.403 . S
C762 C761 1.403 . S
C762 C763 1.404 . S
C762 C765 1.539 . S
C763 C759 1.408 . S
C763 C762 1.404 . S
C763 H775 0.930 . S
C764 C760 1.524 . S
C764 H776 0.956 . S
C764 H777 0.961 . S
C764 H778 0.961 . S
C765 C762 1.539 . S
C765 H779 0.958 . S
C765 H780 0.961 . S
C765 H781 0.960 . S
H766 C750 0.931 . S
H767 C755 0.929 . S
H768 C756 0.960 . S
H769 C756 0.962 . S
H770 C756 0.960 . S
H771 C757 0.961 . S
H772 C757 0.961 . S
H773 C757 0.961 . S
H774 C758 0.931 . S
H775 C763 0.930 . S
H776 C764 0.956 . S
H777 C764 0.961 . S
H778 C764 0.961 . S
H779 C765 0.958 . S
H780 C765 0.961 . S
H781 C765 0.960 . S
C782 C783 1.391 . S
C782 C784 1.394 . S
C782 H798 0.931 . S
C783 C782 1.391 . S
C783 C787 1.376 . S
C784 C782 1.394 . S
C784 C785 1.369 . S
C784 C788 1.531 . S
C785 C784 1.369 . S
C785 C786 1.410 . S
C785 C793 1.503 . S
C786 C785 1.410 . S
C786 C787 1.392 . S
C786 C789 1.511 . S
C787 C783 1.376 . S
C787 C786 1.392 . S
C787 H799 0.929 . S
C788 C784 1.531 . S
C788 H800 0.960 . S
C788 H801 0.962 . S
C788 H802 0.960 . S
C789 C786 1.511 . S
C789 H803 0.961 . S
C789 H804 0.961 . S
C789 H805 0.961 . S
C790 C791 1.370 . S
C790 C792 1.363 . S
C790 H806 0.931 . S
C791 C790 1.370 . S
C791 C795 1.408 . S
C792 C790 1.363 . S
C792 C793 1.370 . S
C792 C796 1.524 . S
C793 C785 1.503 . S
C793 C792 1.370 . S
C793 C794 1.403 . S
C794 C793 1.403 . S
C794 C795 1.404 . S
C794 C797 1.539 . S
C795 C791 1.408 . S
C795 C794 1.404 . S
C795 H807 0.930 . S
C796 C792 1.524 . S
C796 H808 0.956 . S
C796 H809 0.961 . S
C796 H810 0.961 . S
C797 C794 1.539 . S
C797 H811 0.958 . S
C797 H812 0.961 . S
C797 H813 0.960 . S
H798 C782 0.931 . S
H799 C787 0.929 . S
H800 C788 0.960 . S
H801 C788 0.962 . S
H802 C788 0.960 . S
H803 C789 0.961 . S
H804 C789 0.961 . S
H805 C789 0.961 . S
H806 C790 0.931 . S
H807 C795 0.930 . S
H808 C796 0.956 . S
H809 C796 0.961 . S
H810 C796 0.961 . S
H811 C797 0.958 . S
H812 C797 0.961 . S
H813 C797 0.960 . S
C814 C815 1.391 . S
C814 C816 1.394 . S
C814 H830 0.931 . S
C815 C814 1.391 . S
C815 C819 1.376 . S
C816 C814 1.394 . S
C816 C817 1.369 . S
C816 C820 1.531 . S
C817 C816 1.369 . S
C817 C818 1.410 . S
C817 C825 1.503 . S
C818 C817 1.410 . S
C818 C819 1.392 . S
C818 C821 1.511 . S
C819 C815 1.376 . S
C819 C818 1.392 . S
C819 H831 0.929 . S
C820 C816 1.531 . S
C820 H832 0.960 . S
C820 H833 0.962 . S
C820 H834 0.960 . S
C821 C818 1.511 . S
C821 H835 0.961 . S
C821 H836 0.961 . S
C821 H837 0.961 . S
C822 C823 1.370 . S
C822 C824 1.363 . S
C822 H838 0.931 . S
C823 C822 1.370 . S
C823 C827 1.408 . S
C824 C822 1.363 . S
C824 C825 1.370 . S
C824 C828 1.524 . S
C825 C817 1.503 . S
C825 C824 1.370 . S
C825 C826 1.403 . S
C826 C825 1.403 . S
C826 C827 1.404 . S
C826 C829 1.539 . S
C827 C823 1.408 . S
C827 C826 1.404 . S
C827 H839 0.930 . S
C828 C824 1.524 . S
C828 H840 0.956 . S
C828 H841 0.961 . S
C828 H842 0.961 . S
C829 C826 1.539 . S
C829 H843 0.958 . S
C829 H844 0.961 . S
C829 H845 0.960 . S
H830 C814 0.931 . S
H831 C819 0.929 . S
H832 C820 0.960 . S
H833 C820 0.962 . S
H834 C820 0.960 . S
H835 C821 0.961 . S
H836 C821 0.961 . S
H837 C821 0.961 . S
H838 C822 0.931 . S
H839 C827 0.930 . S
H840 C828 0.956 . S
H841 C828 0.961 . S
H842 C828 0.961 . S
H843 C829 0.958 . S
H844 C829 0.961 . S
H845 C829 0.960 . S
C846 C847 1.391 . S
C846 C848 1.394 . S
C846 H862 0.931 . S
C847 C846 1.391 . S
C847 C851 1.376 . S
C848 C846 1.394 . S
C848 C849 1.369 . S
C848 C852 1.531 . S
C849 C848 1.369 . S
C849 C850 1.410 . S
C849 C857 1.503 . S
C850 C849 1.410 . S
C850 C851 1.392 . S
C850 C853 1.511 . S
C851 C847 1.376 . S
C851 C850 1.392 . S
C851 H863 0.929 . S
C852 C848 1.531 . S
C852 H864 0.960 . S
C852 H865 0.962 1_455 S
C852 H866 0.960 . S
C853 C850 1.511 . S
C853 H867 0.961 . S
C853 H868 0.961 . S
C853 H869 0.961 . S
C854 C855 1.370 1_655 S
C854 C856 1.363 . S
C854 H870 0.931 . S
C855 C854 1.370 1_455 S
C855 C859 1.408 . S
C856 C854 1.363 . S
C856 C857 1.370 1_655 S
C856 C860 1.524 . S
C857 C849 1.503 . S
C857 C856 1.370 1_455 S
C857 C858 1.403 . S
C858 C857 1.403 . S
C858 C859 1.404 . S
C858 C861 1.539 . S
C859 C855 1.408 . S
C859 C858 1.404 . S
C859 H871 0.930 . S
C860 C856 1.524 . S
C860 H872 0.956 . S
C860 H873 0.961 . S
C860 H874 0.961 . S
C861 C858 1.539 . S
C861 H875 0.958 . S
C861 H876 0.961 . S
C861 H877 0.960 . S
H862 C846 0.931 . S
H863 C851 0.929 . S
H864 C852 0.960 . S
H865 C852 0.962 1_655 S
H866 C852 0.960 . S
H867 C853 0.961 . S
H868 C853 0.961 . S
H869 C853 0.961 . S
H870 C854 0.931 . S
H871 C859 0.930 . S
H872 C860 0.956 . S
H873 C860 0.961 . S
H874 C860 0.961 . S
H875 C861 0.958 . S
H876 C861 0.961 . S
H877 C861 0.960 . S
C878 C879 1.391 . S
C878 C880 1.394 . S
C878 H894 0.931 . S
C879 C878 1.391 . S
C879 C883 1.376 . S
C880 C878 1.394 . S
C880 C881 1.369 . S
C880 C884 1.531 . S
C881 C880 1.369 . S
C881 C882 1.410 . S
C881 C889 1.503 . S
C882 C881 1.410 . S
C882 C883 1.392 . S
C882 C885 1.511 . S
C883 C879 1.376 . S
C883 C882 1.392 . S
C883 H895 0.929 . S
C884 C880 1.531 . S
C884 H896 0.960 . S
C884 H897 0.962 . S
C884 H898 0.960 . S
C885 C882 1.511 . S
C885 H899 0.961 . S
C885 H900 0.961 . S
C885 H901 0.961 . S
C886 C887 1.370 . S
C886 C888 1.363 . S
C886 H902 0.931 . S
C887 C886 1.370 . S
C887 C891 1.408 . S
C888 C886 1.363 . S
C888 C889 1.370 . S
C888 C892 1.524 . S
C889 C881 1.503 . S
C889 C888 1.370 . S
C889 C890 1.403 . S
C890 C889 1.403 . S
C890 C891 1.404 . S
C890 C893 1.539 . S
C891 C887 1.408 . S
C891 C890 1.404 . S
C891 H903 0.930 . S
C892 C888 1.524 . S
C892 H904 0.956 . S
C892 H905 0.961 . S
C892 H906 0.961 . S
C893 C890 1.539 . S
C893 H907 0.958 . S
C893 H908 0.961 . S
C893 H909 0.960 . S
H894 C878 0.931 . S
H895 C883 0.929 . S
H896 C884 0.960 . S
H897 C884 0.962 . S
H898 C884 0.960 . S
H899 C885 0.961 . S
H900 C885 0.961 . S
H901 C885 0.961 . S
H902 C886 0.931 . S
H903 C891 0.930 . S
H904 C892 0.956 . S
H905 C892 0.961 . S
H906 C892 0.961 . S
H907 C893 0.958 . S
H908 C893 0.961 . S
H909 C893 0.960 . S
C910 C911 1.391 1_565 S
C910 C912 1.394 . S
C910 H926 0.931 . S
C911 C910 1.391 1_545 S
C911 C915 1.376 . S
C912 C910 1.394 . S
C912 C913 1.369 1_565 S
C912 C916 1.531 . S
C913 C912 1.369 1_545 S
C913 C914 1.410 . S
C913 C921 1.503 . S
C914 C913 1.410 . S
C914 C915 1.392 . S
C914 C917 1.511 . S
C915 C911 1.376 . S
C915 C914 1.392 . S
C915 H927 0.929 . S
C916 C912 1.531 . S
C916 H928 0.960 . S
C916 H929 0.962 . S
C916 H930 0.960 . S
C917 C914 1.511 . S
C917 H931 0.961 . S
C917 H932 0.961 . S
C917 H933 0.961 . S
C918 C919 1.370 . S
C918 C920 1.363 . S
C918 H934 0.931 . S
C919 C918 1.370 . S
C919 C923 1.408 1_545 S
C920 C918 1.363 . S
C920 C921 1.370 . S
C920 C924 1.524 . S
C921 C913 1.503 . S
C921 C920 1.370 . S
C921 C922 1.403 1_545 S
C922 C921 1.403 1_565 S
C922 C923 1.404 . S
C922 C925 1.539 . S
C923 C919 1.408 1_565 S
C923 C922 1.404 . S
C923 H935 0.930 . S
C924 C920 1.524 . S
C924 H936 0.956 . S
C924 H937 0.961 . S
C924 H938 0.961 . S
C925 C922 1.539 . S
C925 H939 0.958 . S
C925 H940 0.961 . S
C925 H941 0.960 . S
H926 C910 0.931 . S
H927 C915 0.929 . S
H928 C916 0.960 . S
H929 C916 0.962 . S
H930 C916 0.960 . S
H931 C917 0.961 . S
H932 C917 0.961 . S
H933 C917 0.961 . S
H934 C918 0.931 . S
H935 C923 0.930 . S
H936 C924 0.956 . S
H937 C924 0.961 . S
H938 C924 0.961 . S
H939 C925 0.958 . S
H940 C925 0.961 . S
H941 C925 0.960 . S
C942 C943 1.391 . S
C942 C944 1.394 . S
C942 H958 0.931 . S
C943 C942 1.391 . S
C943 C947 1.376 . S
C944 C942 1.394 . S
C944 C945 1.369 . S
C944 C948 1.531 . S
C945 C944 1.369 . S
C945 C946 1.410 . S
C945 C953 1.503 . S
C946 C945 1.410 . S
C946 C947 1.392 . S
C946 C949 1.511 . S
C947 C943 1.376 . S
C947 C946 1.392 . S
C947 H959 0.929 . S
C948 C944 1.531 . S
C948 H960 0.960 . S
C948 H961 0.962 . S
C948 H962 0.960 . S
C949 C946 1.511 . S
C949 H963 0.961 . S
C949 H964 0.961 . S
C949 H965 0.961 . S
C950 C951 1.370 . S
C950 C952 1.363 1_554 S
C950 H966 0.931 . S
C951 C950 1.370 . S
C951 C955 1.408 . S
C952 C950 1.363 1_556 S
C952 C953 1.370 . S
C952 C956 1.524 . S
C953 C945 1.503 . S
C953 C952 1.370 . S
C953 C954 1.403 . S
C954 C953 1.403 . S
C954 C955 1.404 1_556 S
C954 C957 1.539 . S
C955 C951 1.408 . S
C955 C954 1.404 1_554 S
C955 H967 0.930 . S
C956 C952 1.524 . S
C956 H968 0.956 . S
C956 H969 0.961 . S
C956 H970 0.961 . S
C957 C954 1.539 . S
C957 H971 0.958 . S
C957 H972 0.961 . S
C957 H973 0.960 . S
H958 C942 0.931 . S
H959 C947 0.929 . S
H960 C948 0.960 . S
H961 C948 0.962 . S
H962 C948 0.960 . S
H963 C949 0.961 . S
H964 C949 0.961 . S
H965 C949 0.961 . S
H966 C950 0.931 . S
H967 C955 0.930 . S
H968 C956 0.956 . S
H969 C956 0.961 . S
H970 C956 0.961 . S
H971 C957 0.958 . S
H972 C957 0.961 . S
H973 C957 0.960 . S
C974 C975 1.391 . S
C974 C976 1.394 . S
C974 H990 0.931 . S
C975 C974 1.391 . S
C975 C979 1.376 . S
C976 C974 1.394 . S
C976 C977 1.369 . S
C976 C980 1.531 . S
C977 C976 1.369 . S
C977 C978 1.410 . S
C977 C985 1.503 . S
C978 C977 1.410 . S
C978 C979 1.392 . S
C978 C981 1.511 . S
C979 C975 1.376 . S
C979 C978 1.392 . S
C979 H991 0.929 . S
C980 C976 1.531 . S
C980 H992 0.960 . S
C980 H993 0.962 . S
C980 H994 0.960 . S
C981 C978 1.511 . S
C981 H995 0.961 . S
C981 H996 0.961 . S
C981 H997 0.961 . S
C982 C983 1.370 . S
C982 C984 1.363 1_554 S
C982 H998 0.931 . S
C983 C982 1.370 . S
C983 C987 1.408 . S
C984 C982 1.363 1_556 S
C984 C985 1.370 . S
C984 C988 1.524 . S
C985 C977 1.503 . S
C985 C984 1.370 . S
C985 C986 1.403 . S
C986 C985 1.403 . S
C986 C987 1.404 1_556 S
C986 C989 1.539 . S
C987 C983 1.408 . S
C987 C986 1.404 1_554 S
C987 H999 0.930 . S
C988 C984 1.524 . S
C988 H1000 0.956 . S
C988 H1001 0.961 . S
C988 H1002 0.961 . S
C989 C986 1.539 . S
C989 H1003 0.958 . S
C989 H1004 0.961 . S
C989 H1005 0.960 . S
H990 C974 0.931 . S
H991 C979 0.929 . S
H992 C980 0.960 . S
H993 C980 0.962 . S
H994 C980 0.960 . S
H995 C981 0.961 . S
H996 C981 0.961 . S
H997 C981 0.961 . S
H998 C982 0.931 . S
H999 C987 0.930 . S
H1000 C988 0.956 . S
H1001 C988 0.961 . S
H1002 C988 0.961 . S
H1003 C989 0.958 . S
H1004 C989 0.961 . S
H1005 C989 0.960 . S
C1006 C1007 1.391 . S
C1006 C1008 1.394 . S
C1006 H1022 0.931 . S
C1007 C1006 1.391 . S
C1007 C1011 1.376 . S
C1008 C1006 1.394 . S
C1008 C1009 1.369 . S
C1008 C1012 1.531 . S
C1009 C1008 1.369 . S
C1009 C1010 1.410 . S
C1009 C1017 1.503 . S
C1010 C1009 1.410 . S
C1010 C1011 1.392 . S
C1010 C1013 1.511 . S
C1011 C1007 1.376 . S
C1011 C1010 1.392 . S
C1011 H1023 0.929 . S
C1012 C1008 1.531 . S
C1012 H1024 0.960 . S
C1012 H1025 0.962 . S
C1012 H1026 0.960 . S
C1013 C1010 1.511 . S
C1013 H1027 0.961 . S
C1013 H1028 0.961 . S
C1013 H1029 0.961 . S
C1014 C1015 1.370 . S
C1014 C1016 1.363 1_554 S
C1014 H1030 0.931 . S
C1015 C1014 1.370 . S
C1015 C1019 1.408 . S
C1016 C1014 1.363 1_556 S
C1016 C1017 1.370 . S
C1016 C1020 1.524 . S
C1017 C1009 1.503 . S
C1017 C1016 1.370 . S
C1017 C1018 1.403 . S
C1018 C1017 1.403 . S
C1018 C1019 1.404 1_556 S
C1018 C1021 1.539 . S
C1019 C1015 1.408 . S
C1019 C1018 1.404 1_554 S
C1019 H1031 0.930 . S
C1020 C1016 1.524 . S
C1020 H1032 0.956 . S
C1020 H1033 0.961 . S
C1020 H1034 0.961 . S
C1021 C1018 1.539 . S
C1021 H1035 0.958 . S
C1021 H1036 0.961 . S
C1021 H1037 0.960 . S
H1022 C1006 0.931 . S
H1023 C1011 0.929 . S
H1024 C1012 0.960 . S
H1025 C1012 0.962 . S
H1026 C1012 0.960 . S
H1027 C1013 0.961 . S
H1028 C1013 0.961 . S
H1029 C1013 0.961 . S
H1030 C1014 0.931 . S
H1031 C1019 0.930 . S
H1032 C1020 0.956 . S
H1033 C1020 0.961 . S
H1034 C1020 0.961 . S
H1035 C1021 0.958 . S
H1036 C1021 0.961 . S
H1037 C1021 0.960 . S
C1038 C1039 1.391 . S
C1038 C1040 1.394 . S
C1038 H1054 0.931 . S
C1039 C1038 1.391 . S
C1039 C1043 1.376 . S
C1040 C1038 1.394 . S
C1040 C1041 1.369 . S
C1040 C1044 1.531 . S
C1041 C1040 1.369 . S
C1041 C1042 1.410 . S
C1041 C1049 1.503 . S
C1042 C1041 1.410 . S
C1042 C1043 1.392 . S
C1042 C1045 1.511 . S
C1043 C1039 1.376 . S
C1043 C1042 1.392 . S
C1043 H1055 0.929 . S
C1044 C1040 1.531 . S
C1044 H1056 0.960 . S
C1044 H1057 0.962 . S
C1044 H1058 0.960 . S
C1045 C1042 1.511 . S
C1045 H1059 0.961 . S
C1045 H1060 0.961 . S
C1045 H1061 0.961 . S
C1046 C1047 1.370 . S
C1046 C1048 1.363 1_556 S
C1046 H1062 0.931 . S
C1047 C1046 1.370 . S
C1047 C1051 1.408 . S
C1048 C1046 1.363 1_554 S
C1048 C1049 1.370 . S
C1048 C1052 1.524 . S
C1049 C1041 1.503 . S
C1049 C1048 1.370 . S
C1049 C1050 1.403 . S
C1050 C1049 1.403 . S
C1050 C1051 1.404 1_554 S
C1050 C1053 1.539 . S
C1051 C1047 1.408 . S
C1051 C1050 1.404 1_556 S
C1051 H1063 0.930 . S
C1052 C1048 1.524 . S
C1052 H1064 0.956 . S
C1052 H1065 0.961 . S
C1052 H1066 0.961 . S
C1053 C1050 1.539 . S
C1053 H1067 0.958 . S
C1053 H1068 0.961 . S
C1053 H1069 0.960 . S
H1054 C1038 0.931 . S
H1055 C1043 0.929 . S
H1056 C1044 0.960 . S
H1057 C1044 0.962 . S
H1058 C1044 0.960 . S
H1059 C1045 0.961 . S
H1060 C1045 0.961 . S
H1061 C1045 0.961 . S
H1062 C1046 0.931 . S
H1063 C1051 0.930 . S
H1064 C1052 0.956 . S
H1065 C1052 0.961 . S
H1066 C1052 0.961 . S
H1067 C1053 0.958 . S
H1068 C1053 0.961 . S
H1069 C1053 0.960 . S
C1070 C1071 1.391 . S
C1070 C1072 1.394 1_556 S
C1070 H1086 0.931 . S
C1071 C1070 1.391 . S
C1071 C1075 1.376 . S
C1072 C1070 1.394 1_554 S
C1072 C1073 1.369 . S
C1072 C1076 1.531 . S
C1073 C1072 1.369 . S
C1073 C1074 1.410 . S
C1073 C1081 1.503 . S
C1074 C1073 1.410 . S
C1074 C1075 1.392 1_554 S
C1074 C1077 1.511 . S
C1075 C1071 1.376 . S
C1075 C1074 1.392 1_556 S
C1075 H1087 0.929 . S
C1076 C1072 1.531 . S
C1076 H1088 0.960 . S
C1076 H1089 0.962 . S
C1076 H1090 0.960 . S
C1077 C1074 1.511 . S
C1077 H1091 0.961 . S
C1077 H1092 0.961 . S
C1077 H1093 0.961 . S
C1078 C1079 1.370 . S
C1078 C1080 1.363 . S
C1078 H1094 0.931 . S
C1079 C1078 1.370 . S
C1079 C1083 1.408 . S
C1080 C1078 1.363 . S
C1080 C1081 1.370 . S
C1080 C1084 1.524 . S
C1081 C1073 1.503 . S
C1081 C1080 1.370 . S
C1081 C1082 1.403 . S
C1082 C1081 1.403 . S
C1082 C1083 1.404 . S
C1082 C1085 1.539 . S
C1083 C1079 1.408 . S
C1083 C1082 1.404 . S
C1083 H1095 0.930 . S
C1084 C1080 1.524 . S
C1084 H1096 0.956 . S
C1084 H1097 0.961 . S
C1084 H1098 0.961 . S
C1085 C1082 1.539 . S
C1085 H1099 0.958 . S
C1085 H1100 0.961 . S
C1085 H1101 0.960 . S
H1086 C1070 0.931 . S
H1087 C1075 0.929 . S
H1088 C1076 0.960 . S
H1089 C1076 0.962 . S
H1090 C1076 0.960 . S
H1091 C1077 0.961 . S
H1092 C1077 0.961 . S
H1093 C1077 0.961 . S
H1094 C1078 0.931 . S
H1095 C1083 0.930 . S
H1096 C1084 0.956 . S
H1097 C1084 0.961 . S
H1098 C1084 0.961 . S
H1099 C1085 0.958 . S
H1100 C1085 0.961 . S
H1101 C1085 0.960 . S
C1102 C1103 1.391 . S
C1102 C1104 1.394 . S
C1102 H1118 0.931 . S
C1103 C1102 1.391 . S
C1103 C1107 1.376 . S
C1104 C1102 1.394 . S
C1104 C1105 1.369 . S
C1104 C1108 1.531 . S
C1105 C1104 1.369 . S
C1105 C1106 1.410 . S
C1105 C1113 1.503 . S
C1106 C1105 1.410 . S
C1106 C1107 1.392 . S
C1106 C1109 1.511 . S
C1107 C1103 1.376 . S
C1107 C1106 1.392 . S
C1107 H1119 0.929 . S
C1108 C1104 1.531 . S
C1108 H1120 0.960 . S
C1108 H1121 0.962 . S
C1108 H1122 0.960 . S
C1109 C1106 1.511 . S
C1109 H1123 0.961 . S
C1109 H1124 0.961 . S
C1109 H1125 0.961 . S
C1110 C1111 1.370 . S
C1110 C1112 1.363 1_556 S
C1110 H1126 0.931 . S
C1111 C1110 1.370 . S
C1111 C1115 1.408 . S
C1112 C1110 1.363 1_554 S
C1112 C1113 1.370 . S
C1112 C1116 1.524 . S
C1113 C1105 1.503 . S
C1113 C1112 1.370 . S
C1113 C1114 1.403 . S
C1114 C1113 1.403 . S
C1114 C1115 1.404 1_554 S
C1114 C1117 1.539 . S
C1115 C1111 1.408 . S
C1115 C1114 1.404 1_556 S
C1115 H1127 0.930 . S
C1116 C1112 1.524 . S
C1116 H1128 0.956 . S
C1116 H1129 0.961 . S
C1116 H1130 0.961 . S
C1117 C1114 1.539 . S
C1117 H1131 0.958 . S
C1117 H1132 0.961 . S
C1117 H1133 0.960 . S
H1118 C1102 0.931 . S
H1119 C1107 0.929 . S
H1120 C1108 0.960 . S
H1121 C1108 0.962 . S
H1122 C1108 0.960 . S
H1123 C1109 0.961 . S
H1124 C1109 0.961 . S
H1125 C1109 0.961 . S
H1126 C1110 0.931 . S
H1127 C1115 0.930 . S
H1128 C1116 0.956 . S
H1129 C1116 0.961 . S
H1130 C1116 0.961 . S
H1131 C1117 0.958 . S
H1132 C1117 0.961 . S
H1133 C1117 0.960 . S
C271 N14 1.341 . S
C279 C237 1.456 . S
C303 N44 1.312 . S
C311 C267 1.468 . S
C335 N74 1.321 . S
C343 C207 1.462 . S
C367 N134 1.337 . S
C375 C87 1.466 . S
C399 N164 1.391 . S
C407 C27 1.455 . S
C431 C57 1.437 . S
C439 N104 1.367 . S
C463 N224 1.313 . S
C471 C177 1.465 . S
C495 N254 1.349 . S
C503 C117 1.464 . S
C527 C147 1.428 . S
C535 N194 1.377 . S
C559 N66 1.168 . S
C567 C16 1.181 . S
C591 C46 1.171 . S
C599 N6 1.177 . S
C623 N36 1.195 . S
C631 C76 1.188 . S
C655 C106 1.195 . S
C663 N156 1.188 . S
C687 N96 1.184 . S
C695 C136 1.184 . S
C719 N126 1.178 . S
C727 C166 1.189 . S
C751 N246 1.187 . S
C759 C196 1.185 . S
C783 C226 1.195 . S
C791 N186 1.184 . S
C815 C256 1.170 . S
C823 N216 1.175 . S
C847 C10 1.091 . S
C855 C1 1.100 . S
C879 C40 1.094 . S
C887 C31 1.099 . S
C911 C70 1.094 . S
C919 C61 1.098 . S
C943 C91 1.091 . S
C951 C100 1.100 . S
C975 C121 1.093 . S
C983 C130 1.099 . S
C1007 C151 1.100 . S
C1015 C160 1.096 . S
C1039 C190 1.091 . S
C1047 C181 1.100 . S
C1071 C211 1.094 . S
C1079 C220 1.099 . S
C1103 C250 1.093 . S
C1111 C241 1.099 . S
