# Generated by pormake.
# Topology wlr, (5)-cn, num edge types: 1
# Building blocks:
#     Node 0, Type 0, BuildingBlock: XOMCOT_clean_sbu_1, # of connection points: 5
#     Node 1, Type 0, BuildingBlock: XOMCOT_clean_sbu_1, # of connection points: 5
#     Node 2, Type 0, BuildingBlock: XOMCOT_clean_sbu_1, # of connection points: 5
#     Node 3, Type 0, BuildingBlock: XOMCOT_clean_sbu_1, # of connection points: 5
#     Node 4, Type 0, BuildingBlock: XOMCOT_clean_sbu_1, # of connection points: 5
#     Node 5, Type 0, BuildingBlock: XOMCOT_clean_sbu_1, # of connection points: 5
#     Node 6, Type 0, BuildingBlock: XOMCOT_clean_sbu_1, # of connection points: 5
#     Node 7, Type 0, BuildingBlock: XOMCOT_clean_sbu_1, # of connection points: 5
#     Node 8, Type 0, BuildingBlock: XOMCOT_clean_sbu_1, # of connection points: 5
#     Node 9, Type 0, BuildingBlock: XOMCOT_clean_sbu_1, # of connection points: 5
#     Node 10, Type 0, BuildingBlock: XOMCOT_clean_sbu_1, # of connection points: 5
#     Node 11, Type 0, BuildingBlock: XOMCOT_clean_sbu_1, # of connection points: 5
#     Node 12, Type 0, BuildingBlock: XOMCOT_clean_sbu_1, # of connection points: 5
#     Node 13, Type 0, BuildingBlock: XOMCOT_clean_sbu_1, # of connection points: 5
#     Node 14, Type 0, BuildingBlock: XOMCOT_clean_sbu_1, # of connection points: 5
#     Node 15, Type 0, BuildingBlock: XOMCOT_clean_sbu_1, # of connection points: 5
#     Node 16, Type 0, BuildingBlock: XOMCOT_clean_sbu_1, # of connection points: 5
#     Node 17, Type 0, BuildingBlock: XOMCOT_clean_sbu_1, # of connection points: 5
#     Node 18, Type 0, BuildingBlock: XOMCOT_clean_sbu_1, # of connection points: 5
#     Node 19, Type 0, BuildingBlock: XOMCOT_clean_sbu_1, # of connection points: 5
#     Node 20, Type 0, BuildingBlock: XOMCOT_clean_sbu_1, # of connection points: 5
#     Node 21, Type 0, BuildingBlock: XOMCOT_clean_sbu_1, # of connection points: 5
#     Node 22, Type 0, BuildingBlock: XOMCOT_clean_sbu_1, # of connection points: 5
#     Node 23, Type 0, BuildingBlock: XOMCOT_clean_sbu_1, # of connection points: 5
#     Node 24, Type 0, BuildingBlock: XOMCOT_clean_sbu_1, # of connection points: 5
#     Node 25, Type 0, BuildingBlock: XOMCOT_clean_sbu_1, # of connection points: 5
#     Node 26, Type 0, BuildingBlock: XOMCOT_clean_sbu_1, # of connection points: 5
#     Node 27, Type 0, BuildingBlock: XOMCOT_clean_sbu_1, # of connection points: 5
#     Node 28, Type 0, BuildingBlock: XOMCOT_clean_sbu_1, # of connection points: 5
#     Node 29, Type 0, BuildingBlock: XOMCOT_clean_sbu_1, # of connection points: 5
#     Node 30, Type 0, BuildingBlock: XOMCOT_clean_sbu_1, # of connection points: 5
#     Node 31, Type 0, BuildingBlock: XOMCOT_clean_sbu_1, # of connection points: 5
#     Node 32, Type 0, BuildingBlock: XOMCOT_clean_sbu_1, # of connection points: 5
#     Node 33, Type 0, BuildingBlock: XOMCOT_clean_sbu_1, # of connection points: 5
#     Node 34, Type 0, BuildingBlock: XOMCOT_clean_sbu_1, # of connection points: 5
#     Node 35, Type 0, BuildingBlock: XOMCOT_clean_sbu_1, # of connection points: 5
#     Edge 36, Type (0, 0), BuildingBlock: OJICUG_clean_linker_0, # of connection points: 2
#     Edge 37, Type (0, 0), BuildingBlock: OJICUG_clean_linker_0, # of connection points: 2
#     Edge 38, Type (0, 0), BuildingBlock: OJICUG_clean_linker_0, # of connection points: 2
#     Edge 39, Type (0, 0), BuildingBlock: OJICUG_clean_linker_0, # of connection points: 2
#     Edge 40, Type (0, 0), BuildingBlock: OJICUG_clean_linker_0, # of connection points: 2
#     Edge 41, Type (0, 0), BuildingBlock: OJICUG_clean_linker_0, # of connection points: 2
#     Edge 42, Type (0, 0), BuildingBlock: OJICUG_clean_linker_0, # of connection points: 2
#     Edge 43, Type (0, 0), BuildingBlock: OJICUG_clean_linker_0, # of connection points: 2
#     Edge 44, Type (0, 0), BuildingBlock: OJICUG_clean_linker_0, # of connection points: 2
#     Edge 45, Type (0, 0), BuildingBlock: OJICUG_clean_linker_0, # of connection points: 2
#     Edge 46, Type (0, 0), BuildingBlock: OJICUG_clean_linker_0, # of connection points: 2
#     Edge 47, Type (0, 0), BuildingBlock: OJICUG_clean_linker_0, # of connection points: 2
#     Edge 48, Type (0, 0), BuildingBlock: OJICUG_clean_linker_0, # of connection points: 2
#     Edge 49, Type (0, 0), BuildingBlock: OJICUG_clean_linker_0, # of connection points: 2
#     Edge 50, Type (0, 0), BuildingBlock: OJICUG_clean_linker_0, # of connection points: 2
#     Edge 51, Type (0, 0), BuildingBlock: OJICUG_clean_linker_0, # of connection points: 2
#     Edge 52, Type (0, 0), BuildingBlock: OJICUG_clean_linker_0, # of connection points: 2
#     Edge 53, Type (0, 0), BuildingBlock: OJICUG_clean_linker_0, # of connection points: 2
#     Edge 54, Type (0, 0), BuildingBlock: OJICUG_clean_linker_0, # of connection points: 2
#     Edge 55, Type (0, 0), BuildingBlock: OJICUG_clean_linker_0, # of connection points: 2
#     Edge 56, Type (0, 0), BuildingBlock: OJICUG_clean_linker_0, # of connection points: 2
#     Edge 57, Type (0, 0), BuildingBlock: OJICUG_clean_linker_0, # of connection points: 2
#     Edge 58, Type (0, 0), BuildingBlock: OJICUG_clean_linker_0, # of connection points: 2
#     Edge 59, Type (0, 0), BuildingBlock: OJICUG_clean_linker_0, # of connection points: 2
#     Edge 60, Type (0, 0), BuildingBlock: OJICUG_clean_linker_0, # of connection points: 2
#     Edge 61, Type (0, 0), BuildingBlock: OJICUG_clean_linker_0, # of connection points: 2
#     Edge 62, Type (0, 0), BuildingBlock: OJICUG_clean_linker_0, # of connection points: 2
#     Edge 63, Type (0, 0), BuildingBlock: OJICUG_clean_linker_0, # of connection points: 2
#     Edge 64, Type (0, 0), BuildingBlock: OJICUG_clean_linker_0, # of connection points: 2
#     Edge 65, Type (0, 0), BuildingBlock: OJICUG_clean_linker_0, # of connection points: 2
#     Edge 66, Type (0, 0), BuildingBlock: OJICUG_clean_linker_0, # of connection points: 2
#     Edge 67, Type (0, 0), BuildingBlock: OJICUG_clean_linker_0, # of connection points: 2
#     Edge 68, Type (0, 0), BuildingBlock: OJICUG_clean_linker_0, # of connection points: 2
#     Edge 69, Type (0, 0), BuildingBlock: OJICUG_clean_linker_0, # of connection points: 2
#     Edge 70, Type (0, 0), BuildingBlock: OJICUG_clean_linker_0, # of connection points: 2
#     Edge 71, Type (0, 0), BuildingBlock: OJICUG_clean_linker_0, # of connection points: 2
#     Edge 72, Type (0, 0), BuildingBlock: OJICUG_clean_linker_0, # of connection points: 2
#     Edge 73, Type (0, 0), BuildingBlock: OJICUG_clean_linker_0, # of connection points: 2
#     Edge 74, Type (0, 0), BuildingBlock: OJICUG_clean_linker_0, # of connection points: 2
#     Edge 75, Type (0, 0), BuildingBlock: OJICUG_clean_linker_0, # of connection points: 2
#     Edge 76, Type (0, 0), BuildingBlock: OJICUG_clean_linker_0, # of connection points: 2
#     Edge 77, Type (0, 0), BuildingBlock: OJICUG_clean_linker_0, # of connection points: 2
#     Edge 78, Type (0, 0), BuildingBlock: OJICUG_clean_linker_0, # of connection points: 2
#     Edge 79, Type (0, 0), BuildingBlock: OJICUG_clean_linker_0, # of connection points: 2
#     Edge 80, Type (0, 0), BuildingBlock: OJICUG_clean_linker_0, # of connection points: 2
#     Edge 81, Type (0, 0), BuildingBlock: OJICUG_clean_linker_0, # of connection points: 2
#     Edge 82, Type (0, 0), BuildingBlock: OJICUG_clean_linker_0, # of connection points: 2
#     Edge 83, Type (0, 0), BuildingBlock: OJICUG_clean_linker_0, # of connection points: 2
#     Edge 84, Type (0, 0), BuildingBlock: OJICUG_clean_linker_0, # of connection points: 2
#     Edge 85, Type (0, 0), BuildingBlock: OJICUG_clean_linker_0, # of connection points: 2
#     Edge 86, Type (0, 0), BuildingBlock: OJICUG_clean_linker_0, # of connection points: 2
#     Edge 87, Type (0, 0), BuildingBlock: OJICUG_clean_linker_0, # of connection points: 2
#     Edge 88, Type (0, 0), BuildingBlock: OJICUG_clean_linker_0, # of connection points: 2
#     Edge 89, Type (0, 0), BuildingBlock: OJICUG_clean_linker_0, # of connection points: 2
#     Edge 90, Type (0, 0), BuildingBlock: OJICUG_clean_linker_0, # of connection points: 2
#     Edge 91, Type (0, 0), BuildingBlock: OJICUG_clean_linker_0, # of connection points: 2
#     Edge 92, Type (0, 0), BuildingBlock: OJICUG_clean_linker_0, # of connection points: 2
#     Edge 93, Type (0, 0), BuildingBlock: OJICUG_clean_linker_0, # of connection points: 2
#     Edge 94, Type (0, 0), BuildingBlock: OJICUG_clean_linker_0, # of connection points: 2
#     Edge 95, Type (0, 0), BuildingBlock: OJICUG_clean_linker_0, # of connection points: 2
#     Edge 96, Type (0, 0), BuildingBlock: OJICUG_clean_linker_0, # of connection points: 2
#     Edge 97, Type (0, 0), BuildingBlock: OJICUG_clean_linker_0, # of connection points: 2
#     Edge 98, Type (0, 0), BuildingBlock: OJICUG_clean_linker_0, # of connection points: 2
#     Edge 99, Type (0, 0), BuildingBlock: OJICUG_clean_linker_0, # of connection points: 2
#     Edge 100, Type (0, 0), BuildingBlock: OJICUG_clean_linker_0, # of connection points: 2
#     Edge 101, Type (0, 0), BuildingBlock: OJICUG_clean_linker_0, # of connection points: 2
#     Edge 102, Type (0, 0), BuildingBlock: OJICUG_clean_linker_0, # of connection points: 2
#     Edge 103, Type (0, 0), BuildingBlock: OJICUG_clean_linker_0, # of connection points: 2
#     Edge 104, Type (0, 0), BuildingBlock: OJICUG_clean_linker_0, # of connection points: 2
#     Edge 105, Type (0, 0), BuildingBlock: OJICUG_clean_linker_0, # of connection points: 2
#     Edge 106, Type (0, 0), BuildingBlock: OJICUG_clean_linker_0, # of connection points: 2
#     Edge 107, Type (0, 0), BuildingBlock: OJICUG_clean_linker_0, # of connection points: 2
#     Edge 108, Type (0, 0), BuildingBlock: OJICUG_clean_linker_0, # of connection points: 2
#     Edge 109, Type (0, 0), BuildingBlock: OJICUG_clean_linker_0, # of connection points: 2
#     Edge 110, Type (0, 0), BuildingBlock: OJICUG_clean_linker_0, # of connection points: 2
#     Edge 111, Type (0, 0), BuildingBlock: OJICUG_clean_linker_0, # of connection points: 2
#     Edge 112, Type (0, 0), BuildingBlock: OJICUG_clean_linker_0, # of connection points: 2
#     Edge 113, Type (0, 0), BuildingBlock: OJICUG_clean_linker_0, # of connection points: 2
#     Edge 114, Type (0, 0), BuildingBlock: OJICUG_clean_linker_0, # of connection points: 2
#     Edge 115, Type (0, 0), BuildingBlock: OJICUG_clean_linker_0, # of connection points: 2
#     Edge 116, Type (0, 0), BuildingBlock: OJICUG_clean_linker_0, # of connection points: 2
#     Edge 117, Type (0, 0), BuildingBlock: OJICUG_clean_linker_0, # of connection points: 2
#     Edge 118, Type (0, 0), BuildingBlock: OJICUG_clean_linker_0, # of connection points: 2
#     Edge 119, Type (0, 0), BuildingBlock: OJICUG_clean_linker_0, # of connection points: 2
#     Edge 120, Type (0, 0), BuildingBlock: OJICUG_clean_linker_0, # of connection points: 2
#     Edge 121, Type (0, 0), BuildingBlock: OJICUG_clean_linker_0, # of connection points: 2
#     Edge 122, Type (0, 0), BuildingBlock: OJICUG_clean_linker_0, # of connection points: 2
#     Edge 123, Type (0, 0), BuildingBlock: OJICUG_clean_linker_0, # of connection points: 2
#     Edge 124, Type (0, 0), BuildingBlock: OJICUG_clean_linker_0, # of connection points: 2
#     Edge 125, Type (0, 0), BuildingBlock: OJICUG_clean_linker_0, # of connection points: 2
# Relax obj value: 0.186
# Max RMSD: 0.139
# Mean RMSD: 0.139
data_MOF--net-wlr--node1-XOMCOT_clean_sbu_1--edge1-OJICUG_clean_linker_0
_symmetry_space_group_name_H-M    P1
_symmetry_Int_Tables_number       1
_symmetry_cell_setting            triclinic
loop_
_symmetry_equiv_pos_as_xyz
'x, y, z'
_cell_length_a     59.979199
_cell_length_b     60.036871
_cell_length_c     24.950939
_cell_angle_alpha  90.079483
_cell_angle_beta   89.935026
_cell_angle_gamma 119.85857
loop_
_atom_site_label
_atom_site_type_symbol
_atom_site_fract_x
_atom_site_fract_y
_atom_site_fract_z
_atom_type_partial_charge
C0 C 0.26485 0.17774 0.18221 0.0
C1 C 0.28155 0.17137 0.20565 0.0
N2 N 0.30397 0.18342 0.17882 0.0
N3 N 0.27671 0.19402 0.1412 0.0
C4 C 0.30058 0.19712 0.14 0.0
H5 H 0.24479 0.16975 0.19245 0.0
Co6 Co 0.25906 0.20364 0.09468 0.0
C7 C 0.29893 0.2431 1.02011 0.0
O8 O 0.28732 0.25675 1.01935 0.0
N9 N 0.23951 0.21197 0.04898 0.0
C10 C 0.21771 0.21343 0.97827 0.0
C11 C 0.2377 0.21004 0.99506 0.0
C12 C 0.22026 0.21621 0.06394 0.0
N13 N 0.20664 0.21717 1.0218 0.0
O14 O 0.26842 0.23355 0.13946 0.0
H15 H 0.24948 0.20541 0.96972 0.0
H16 H 0.21527 0.21705 0.10514 0.0
O17 O 0.29003 0.22298 0.04948 0.0
C18 C 0.25377 0.22787 0.1804 0.0
O19 O 0.23341 0.20488 0.18311 0.0
N20 N 0.2493 0.17341 0.05595 0.0
C21 C 0.23586 0.1228 0.03248 0.0
C22 C 0.25968 0.14328 1.01618 0.0
C23 C 0.26612 0.16849 0.0285 0.0
C24 C 0.22533 0.15398 0.06838 0.0
C25 C 0.21817 0.12849 0.05689 0.0
H26 H 0.28542 0.18356 1.01981 0.0
H27 H 0.21246 0.15814 0.09111 0.0
H28 H 0.31481 0.20829 0.11009 0.0
H29 H 0.277 0.15762 0.23769 0.0
H30 H 0.21154 0.21263 0.93725 0.0
H31 H 0.27406 0.13984 0.99783 0.0
H32 H 0.19943 0.11332 0.06951 0.0
C33 C 0.84101 0.08857 0.18846 0.0
C34 C 0.84949 0.11203 0.21204 0.0
N35 N 0.84179 0.12539 0.18157 0.0
N36 N 0.82757 0.08686 0.14381 0.0
C37 C 0.82858 0.10977 0.14033 0.0
H38 H 0.84569 0.07427 0.20166 0.0
Co39 Co 0.81614 0.0596 0.09631 0.0
C40 C 0.77637 0.06265 0.02758 0.0
O41 O 0.76076 0.03781 0.03245 0.0
N42 N 0.80586 0.03181 0.04934 0.0
C43 C 0.80087 0.0084 0.97641 0.0
C44 C 0.80553 0.03191 0.99523 0.0
C45 C 0.80167 0.00818 0.06226 0.0
N46 N 0.79856 0.9935 1.01879 0.0
O47 O 0.78613 0.04027 0.14198 0.0
H48 H 0.80948 0.04836 0.97086 0.0
H49 H 0.80244 1.00223 0.1026 0.0
O50 O 0.79795 0.07327 0.05249 0.0
C51 C 0.79093 0.02943 0.18086 0.0
O52 O 0.8129 0.0296 0.18092 0.0
N53 N 0.84664 0.07858 0.05751 0.0
C54 C 0.89736 0.11548 0.0358 0.0
C55 C 0.87708 0.11599 1.00899 0.0
C56 C 0.85167 0.09739 1.02077 0.0
C57 C 0.86619 0.07637 0.07966 0.0
C58 C 0.89176 0.09484 0.06991 0.0
H59 H 0.83634 0.0994 1.00318 0.0
H60 H 0.86185 0.06156 0.10914 0.0
H61 H 0.82061 0.11524 0.10742 0.0
H62 H 0.86164 0.11926 0.24715 0.0
H63 H 0.79988 1.00299 0.93473 0.0
H64 H 0.88076 0.13177 0.98258 0.0
H65 H 0.90696 0.09385 0.09128 0.0
C66 C 0.93229 0.74885 0.18807 0.0
C67 C 0.90885 0.73384 0.21191 0.0
N68 N 0.89519 0.71314 0.18061 0.0
N69 N 0.93343 0.73759 0.14224 0.0
C70 C 0.91068 0.71565 0.13897 0.0
H71 H 0.94716 0.76747 0.20182 0.0
Co72 Co 0.96045 0.75461 0.09576 0.0
C73 C 0.94718 0.72268 0.99686 0.0
O74 O 0.95317 0.74377 0.97007 0.0
N75 N 0.98936 0.77336 0.05143 0.0
C76 C 0.02539 0.78432 1.00594 0.0
C77 C 1.00261 0.76421 1.02406 0.0
C78 C 1.00524 0.79912 0.0515 0.0
N79 N 0.02704 0.80621 1.02369 0.0
O80 O 0.98019 0.74425 0.14004 0.0
H81 H 0.99721 0.74419 1.02103 0.0
H82 H 1.00208 0.81239 0.07508 0.0
O83 O 0.94872 0.72346 0.04843 0.0
C84 C 0.99519 0.76169 0.17266 0.0
O85 O 0.99811 0.78477 0.16802 0.0
N86 N 0.94007 0.76583 0.05802 0.0
C87 C 0.90344 0.781 0.03739 0.0
C88 C 0.89859 0.75634 1.02402 0.0
C89 C 0.91678 0.74901 0.03556 0.0
C90 C 0.94533 0.79016 0.07011 0.0
C91 C 0.92748 0.79823 0.05961 0.0
H92 H 0.91074 0.72899 0.03071 0.0
H93 H 0.9623 0.80271 0.0928 0.0
H94 H 0.90514 0.70237 0.10572 0.0
H95 H 0.90183 0.73859 0.24766 0.0
H96 H 0.04057 0.78291 0.9855 0.0
H97 H 0.88 0.74199 1.00881 0.0
H98 H 0.93199 0.8174 0.07138 0.0
C99 C 0.1944 0.2665 0.36766 0.0
C100 C 0.18746 0.28287 0.34476 0.0
N101 N 0.19377 0.30247 0.37889 0.0
N102 N 0.20547 0.27592 0.41566 0.0
C103 C 0.20465 0.29782 0.42154 0.0
H104 H 0.19004 0.24809 0.3515 0.0
Co105 Co 0.21382 0.25821 0.4649 0.0
C106 C 0.25294 0.29876 0.5389 0.0
O107 O 0.2664 0.28696 0.5404 0.0
N108 N 0.22124 0.239 0.51389 0.0
C109 C 0.22319 0.21906 0.58745 0.0
C110 C 0.21859 0.23785 0.56774 0.0
C111 C 0.22721 0.2206 0.50204 0.0
N112 N 0.22856 0.20818 0.54584 0.0
O113 O 0.24433 0.26677 0.42271 0.0
H114 H 0.21311 0.24952 0.59117 0.0
H115 H 0.22939 0.21542 0.46188 0.0
O116 O 0.23269 0.28967 0.50967 0.0
C117 C 0.23875 0.25044 0.38485 0.0
O118 O 0.21586 0.22983 0.3845 0.0
N119 N 0.18267 0.24863 0.49985 0.0
C120 C 0.13178 0.23687 0.51719 0.0
C121 C 0.15227 0.25685 0.54577 0.0
C122 C 0.17766 0.26266 0.53605 0.0
C123 C 0.16306 0.22794 0.47521 0.0
C124 C 0.13761 0.22191 0.48269 0.0
H125 H 0.19312 0.2792 0.55555 0.0
H126 H 0.16743 0.21739 0.44583 0.0
H127 H 0.21077 0.30949 0.45733 0.0
H128 H 0.17703 0.2797 0.30754 0.0
H129 H 0.22229 0.21368 0.6291 0.0
H130 H 0.14896 0.26859 0.57401 0.0
H131 H 0.12296 0.2066 0.45875 0.0
C132 C 0.7505 0.93238 0.36668 0.0
C133 C 0.73325 0.91012 0.34151 0.0
N134 N 0.71257 0.89763 0.37348 0.0
N135 N 0.7407 0.93417 0.41404 0.0
C136 C 0.71739 0.91282 0.41694 0.0
H137 H 0.76981 0.94543 0.35309 0.0
Co138 Co 0.76106 0.9585 0.464 0.0
C139 C 0.72751 0.94521 0.56304 0.0
O140 O 0.74664 0.94696 0.59153 0.0
N141 N 0.78399 0.98449 0.51346 0.0
C142 C 0.81511 1.00454 0.57424 0.0
C143 C 0.79614 0.98123 0.55594 0.0
C144 C 0.79638 0.01045 0.50726 0.0
N145 N 0.81558 0.02303 0.54319 0.0
O146 O 0.75502 0.98299 0.42497 0.0
H147 H 0.79284 0.96303 0.57127 0.0
H148 H 0.79233 0.02014 0.47565 0.0
O149 O 0.73038 0.94924 0.51215 0.0
C150 C 0.77183 0.99407 0.38813 0.0
O151 O 0.79246 0.99171 0.3887 0.0
N152 N 0.76784 0.93359 0.49431 0.0
C153 C 0.77882 0.89358 0.50544 0.0
C154 C 0.75505 0.89047 0.52191 0.0
C155 C 0.74981 0.91055 0.51542 0.0
C156 C 0.79125 0.93714 0.47923 0.0
C157 C 0.79726 0.91756 0.48502 0.0
H158 H 0.73056 0.90662 0.52367 0.0
H159 H 0.80493 0.95493 0.46008 0.0
H160 H 0.705 0.90763 0.45169 0.0
H161 H 0.7367 0.90263 0.30487 0.0
H162 H 0.8288 0.00742 0.60548 0.0
H163 H 0.73994 0.87213 0.53649 0.0
H164 H 0.81592 0.92095 0.47198 0.0
C165 C 0.08947 0.82653 0.3682 0.0
C166 C 0.11299 0.83482 0.34489 0.0
N167 N 0.12643 0.8275 0.37619 0.0
N168 N 0.08782 0.81367 0.41368 0.0
C169 C 0.11071 0.81457 0.41752 0.0
H170 H 0.07516 0.83107 0.35439 0.0
Co171 Co 0.06135 0.8046 0.46249 0.0
C172 C 0.0636 0.76718 0.54117 0.0
O173 O 0.03874 0.75567 0.55016 0.0
N174 N 0.03401 0.79673 0.51076 0.0
C175 C 0.01264 0.80064 0.58007 0.0
C176 C 0.03602 0.80426 0.56253 0.0
C177 C 1.00899 0.78804 0.49846 0.0
N178 N 0.99573 0.79034 0.53963 0.0
O179 O 0.04015 0.77436 0.4192 0.0
H180 H 0.05373 0.81334 0.58519 0.0
H181 H 1.00076 0.78186 0.45916 0.0
O182 O 0.0738 0.78549 0.50684 0.0
C183 C 0.02902 0.77933 0.38121 0.0
O184 O 0.02987 0.80162 0.38127 0.0
N185 N 0.08263 0.83546 0.4988 0.0
C186 C 0.1215 0.8862 0.51409 0.0
C187 C 0.12339 0.86587 0.53704 0.0
C188 C 0.10374 0.84051 0.5287 0.0
C189 C 0.07944 0.85502 0.48039 0.0
C190 C 0.09865 0.88055 0.48752 0.0
H191 H 0.1067 0.82519 0.54271 0.0
H192 H 0.06287 0.85069 0.45596 0.0
H193 H 0.11652 0.80772 0.45181 0.0
H194 H 0.11996 0.84617 0.3087 0.0
H195 H 1.00865 0.80625 0.61856 0.0
H196 H 0.14069 0.86936 0.55775 0.0
H197 H 0.09618 0.89567 0.46996 0.0
C198 C 0.75882 0.83548 0.86553 0.0
C199 C 0.74248 0.84239 0.84219 0.0
N200 N 0.72051 0.83178 0.87065 0.0
N201 N 0.74716 0.8203 0.90817 0.0
C202 C 0.72378 0.81835 0.91029 0.0
H203 H 0.77853 0.8424 0.85386 0.0
Co204 Co 0.76475 0.81108 0.956 0.0
C205 C 0.72463 0.77151 0.03018 0.0
O206 O 0.73655 0.75817 0.03176 0.0
N207 N 0.7842 0.80315 1.00318 0.0
C208 C 0.80528 0.80189 0.07543 0.0
C209 C 0.7856 0.80542 0.05709 0.0
C210 C 0.80341 0.79855 0.98983 0.0
N211 N 0.81659 0.79768 0.03292 0.0
O212 O 0.75606 0.78113 0.91184 0.0
H213 H 0.77366 0.81025 0.0814 0.0
H214 H 0.80865 0.79725 0.94908 0.0
O215 O 0.73343 0.79153 1.00047 0.0
C216 C 0.77142 0.78664 0.87217 0.0
O217 O 0.79191 0.80956 0.87018 0.0
N218 N 0.77396 0.8414 0.99392 0.0
C219 C 0.78621 0.89188 1.01523 0.0
C220 C 0.76298 0.87114 0.03341 0.0
C221 C 0.75714 0.846 1.02221 0.0
C222 C 0.79745 0.86115 0.9797 0.0
C223 C 0.80402 0.88657 0.99004 0.0
H224 H 0.73823 0.83063 0.0326 0.0
H225 H 0.81034 0.85721 0.95642 0.0
H226 H 0.71013 0.80883 0.94226 0.0
H227 H 0.74682 0.85495 0.80796 0.0
H228 H 0.81103 0.80281 0.11683 0.0
H229 H 0.74854 0.87425 0.05255 0.0
H230 H 0.82236 0.90195 0.97608 0.0
C231 C 0.17589 0.92226 0.8674 0.0
C232 C 0.16761 0.89854 0.84514 0.0
N233 N 0.17812 0.88688 0.87289 0.0
N234 N 0.19186 0.92581 0.90862 0.0
C235 C 0.19278 0.90383 0.91117 0.0
H236 H 0.16948 0.9355 0.85593 0.0
Co237 Co 0.20392 0.95381 0.95448 0.0
C238 C 0.24462 0.95236 1.02157 0.0
O239 O 0.25958 0.97727 1.01584 0.0
N240 N 0.21468 0.98218 0.99986 0.0
C241 C 0.2199 1.00613 0.07193 0.0
C242 C 0.21512 0.98248 0.05396 0.0
C243 C 0.21892 1.00574 0.98601 0.0
N244 N 0.22214 0.02072 0.02903 0.0
O245 O 0.2332 0.97253 0.90736 0.0
H246 H 0.21115 0.96619 0.0789 0.0
H247 H 0.2181 0.01136 0.94535 0.0
O248 O 0.22282 0.94097 0.99775 0.0
C249 C 0.22729 0.9821 0.86789 0.0
O250 O 0.20488 0.98101 0.86843 0.0
N251 N 0.17414 0.93541 0.99524 0.0
C252 C 0.12364 0.89937 1.01978 0.0
C253 C 0.14402 0.89801 0.04393 0.0
C254 C 0.16934 0.91619 0.03069 0.0
C255 C 0.15462 0.93848 0.97594 0.0
C256 C 0.1291 0.92043 0.98716 0.0
H257 H 0.18465 0.91346 0.0458 0.0
H258 H 0.15882 0.95361 0.94735 0.0
H259 H 0.20333 0.9 0.94138 0.0
H260 H 0.15385 0.89003 0.81285 0.0
H261 H 0.22099 0.01185 0.11342 0.0
H262 H 0.1404 0.88183 0.06901 0.0
H263 H 0.11377 0.92198 0.96777 0.0
C264 C 0.09185 0.26441 0.87297 0.0
C265 C 0.11514 0.27945 0.84859 0.0
N266 N 0.12856 0.30066 0.87863 0.0
N267 N 0.09048 0.27613 0.91791 0.0
C268 C 0.11308 0.29835 0.92022 0.0
H269 H 0.07715 0.24556 0.85999 0.0
Co270 Co 0.06287 0.25933 0.96358 0.0
C271 C 0.07582 0.29149 0.06216 0.0
O272 O 0.06946 0.27037 0.08921 0.0
N273 N 0.03331 0.24074 1.00689 0.0
C274 C 0.99703 0.23041 0.05093 0.0
C275 C 0.02026 0.25023 0.03388 0.0
C276 C 0.01682 0.21505 1.00594 0.0
N277 N 0.99484 0.20834 0.03285 0.0
O278 O 0.04384 0.26991 0.91789 0.0
H279 H 0.02612 0.27035 0.03734 0.0
H280 H 0.01979 0.20163 0.98248 0.0
O281 O 0.07452 0.29062 1.01056 0.0
C282 C 0.02939 0.25247 0.88471 0.0
O283 O 0.02658 0.22946 0.88995 0.0
N284 N 0.0826 0.24789 1.0028 0.0
C285 C 0.1191 0.2326 1.02341 0.0
C286 C 0.12415 0.25739 0.03621 0.0
C287 C 0.10601 0.26477 1.02468 0.0
C288 C 0.07703 0.22336 0.99184 0.0
C289 C 0.09484 0.21525 1.00228 0.0
H290 H 0.11223 0.28487 0.02867 0.0
H291 H 0.05988 0.21069 0.96981 0.0
H292 H 0.11847 0.31208 0.95261 0.0
H293 H 0.1222 0.27449 0.8132 0.0
H294 H 0.98198 0.23221 0.07098 0.0
H295 H 0.14289 0.27179 0.05065 0.0
H296 H 0.09017 0.19597 0.99104 0.0
C297 C 0.83643 0.75315 0.67883 0.0
C298 C 0.84437 0.7376 0.70193 0.0
N299 N 0.83601 0.71646 0.67133 0.0
N300 N 0.82282 0.74178 0.63417 0.0
C301 C 0.82294 0.71944 0.63057 0.0
H302 H 0.84186 0.77232 0.69201 0.0
Co303 Co 0.81292 0.75831 0.58519 0.0
C304 C 0.77338 0.71636 0.51381 0.0
O305 O 0.75934 0.72756 0.51244 0.0
N306 N 0.80407 0.77656 0.53663 0.0
C307 C 0.80073 0.79588 0.46345 0.0
C308 C 0.80587 0.77737 0.48265 0.0
C309 C 0.79804 0.79486 0.5491 0.0
N310 N 0.79586 0.80693 0.50551 0.0
O311 O 0.78285 0.74935 0.6293 0.0
H312 H 0.81128 0.76576 0.45878 0.0
H313 H 0.79652 0.80029 0.58949 0.0
O314 O 0.79398 0.72626 0.54205 0.0
C315 C 0.78836 0.76552 0.66746 0.0
O316 O 0.811 0.78643 0.66745 0.0
N317 N 0.84367 0.76816 0.54804 0.0
C318 C 0.89429 0.77893 0.53128 0.0
C319 C 0.87359 0.75877 0.50357 0.0
C320 C 0.84835 0.75347 0.51299 0.0
C321 C 0.86354 0.78929 0.57096 0.0
C322 C 0.88888 0.79483 0.5638 0.0
H323 H 0.83275 0.73666 0.49458 0.0
H324 H 0.85947 0.80043 0.59938 0.0
H325 H 0.81461 0.70619 0.59756 0.0
H326 H 0.85672 0.74231 0.73664 0.0
H327 H 0.80098 0.80102 0.42182 0.0
H328 H 0.87659 0.74639 0.47655 0.0
H329 H 0.90372 0.81043 0.58684 0.0
C330 C 0.272 0.08113 0.68491 0.0
C331 C 0.28978 0.10299 0.71049 0.0
N332 N 0.31054 0.11511 0.67857 0.0
N333 N 0.2815 0.07921 0.63726 0.0
C334 C 0.30517 0.10009 0.63462 0.0
H335 H 0.25263 0.06841 0.69861 0.0
Co336 Co 0.26072 0.05503 0.58732 0.0
C337 C 0.29351 0.06752 0.48802 0.0
O338 O 0.27421 0.06578 0.46011 0.0
N339 N 0.23744 0.0292 0.53796 0.0
C340 C 0.2055 0.0089 0.47898 0.0
C341 C 0.22456 0.03232 0.49673 0.0
C342 C 0.22556 1.00324 0.54365 0.0
N343 N 0.20582 0.99052 0.50904 0.0
O344 O 0.26621 0.03025 0.62597 0.0
H345 H 0.22754 0.05048 0.48182 0.0
H346 H 0.23042 0.99362 0.57399 0.0
O347 O 0.29103 0.06375 0.53898 0.0
C348 C 0.24894 0.01943 0.66203 0.0
O349 O 0.22879 0.02257 0.66065 0.0
N350 N 0.25446 0.08026 0.5573 0.0
C351 C 0.24436 0.12083 0.5466 0.0
C352 C 0.26797 0.12356 0.5301 0.0
C353 C 0.27277 0.1032 0.53635 0.0
C354 C 0.23124 0.07712 0.57264 0.0
C355 C 0.22564 0.09696 0.56694 0.0
H356 H 0.29192 0.1068 0.5281 0.0
H357 H 0.21738 0.0594 0.5918 0.0
H358 H 0.31754 0.10502 0.59989 0.0
H359 H 0.28673 0.11046 0.74759 0.0
H360 H 0.19128 1.00587 0.44886 0.0
H361 H 0.2833 0.14181 0.51565 0.0
H362 H 0.20708 0.09385 0.58 0.0
C363 C 0.93716 0.1872 0.69223 0.0
C364 C 0.91359 0.17853 0.71568 0.0
N365 N 0.89927 0.18411 0.68285 0.0
N366 N 0.93796 0.19863 0.64521 0.0
C367 C 0.91455 0.19643 0.64051 0.0
H368 H 0.95203 0.18368 0.70696 0.0
Co369 Co 0.96385 0.2073 0.59528 0.0
C370 C 0.96206 0.24529 0.51875 0.0
O371 O 0.98689 0.25634 0.50979 0.0
N372 N 0.99067 0.2148 0.54574 0.0
C373 C 1.01152 0.21088 0.47545 0.0
C374 C 0.98817 0.20686 0.49419 0.0
C375 C 0.01594 0.22417 0.55664 0.0
N376 N 0.02889 0.22186 0.51487 0.0
O377 O 0.9856 0.23757 0.63779 0.0
H378 H 0.97024 0.19739 0.47235 0.0
H379 H 0.02467 0.23101 0.59532 0.0
O380 O 0.95145 0.22675 0.5524 0.0
C381 C 0.99751 0.23333 0.67522 0.0
O382 O 0.99722 0.21131 0.67566 0.0
N383 N 0.94185 0.17646 0.55927 0.0
C384 C 0.90175 0.12635 0.54275 0.0
C385 C 0.90135 0.14718 0.5183 0.0
C386 C 0.92158 0.17221 0.52725 0.0
C387 C 0.94361 0.15633 0.57937 0.0
C388 C 0.92377 0.13112 0.5717 0.0
H389 H 0.91979 0.18797 0.51156 0.0
H390 H 0.95953 0.16002 0.60533 0.0
H391 H 0.90836 0.20244 0.60545 0.0
H392 H 0.90696 0.1674 0.75219 0.0
H393 H 0.01522 0.2052 0.43676 0.0
H394 H 0.88474 0.14438 0.49569 0.0
H395 H 0.9251 0.11557 0.5905 0.0
C396 C 0.93433 0.5151 0.51051 0.0
C397 C 0.94996 0.50802 0.53629 0.0
N398 N 0.97294 0.51947 0.51153 0.0
N399 N 0.94741 0.53121 0.47001 0.0
C400 C 0.97094 0.53352 0.47151 0.0
H401 H 0.91414 0.50758 0.51865 0.0
Co402 Co 0.93131 0.5413 0.42055 0.0
C403 C 0.97338 0.58131 0.35112 0.0
O404 O 0.96225 0.59542 0.35075 0.0
N405 N 0.91338 0.55025 0.37173 0.0
C406 C 0.89423 0.55359 0.29831 0.0
C407 C 0.91291 0.54873 0.31772 0.0
C408 C 0.89471 0.55577 0.38405 0.0
N409 N 0.88274 0.55795 0.34029 0.0
O410 O 0.93979 0.57108 0.46505 0.0
H411 H 0.92478 0.54357 0.29407 0.0
H412 H 0.88893 0.5568 0.42446 0.0
O413 O 0.96344 0.5605 0.37851 0.0
C414 C 0.92373 0.56524 0.50352 0.0
O415 O 0.90318 0.54233 0.50397 0.0
N416 N 0.92207 0.51096 0.38253 0.0
C417 C 0.90939 0.45992 0.36759 0.0
C418 C 0.93299 0.48002 0.34922 0.0
C419 C 0.93909 0.50553 0.35739 0.0
C420 C 0.89816 0.49172 0.39592 0.0
C421 C 0.89142 0.46603 0.38892 0.0
H422 H 0.95831 0.52055 0.34788 0.0
H423 H 0.88516 0.4963 0.41691 0.0
H424 H 0.9859 0.54431 0.44256 0.0
H425 H 0.94426 0.49414 0.56842 0.0
H426 H 0.88922 0.5534 0.25661 0.0
H427 H 0.94744 0.47615 0.33276 0.0
H428 H 0.87285 0.45109 0.40295 0.0
C429 C 0.50254 0.41972 0.51526 0.0
C430 C 0.51001 0.44285 0.5396 0.0
N431 N 0.5002 0.45506 0.51148 0.0
N432 N 0.48776 0.41711 0.47238 0.0
C433 C 0.48671 0.43902 0.47101 0.0
H434 H 0.50898 0.40644 0.5262 0.0
Co435 Co 0.47773 0.39063 0.42349 0.0
C436 C 0.43866 0.39347 0.3503 0.0
O437 O 0.42483 0.36836 0.34635 0.0
N438 N 0.4689 0.36336 0.37543 0.0
C439 C 0.46645 0.34037 0.3033 0.0
C440 C 0.47089 0.36395 0.32149 0.0
C441 C 0.46353 0.33937 0.38888 0.0
N442 N 0.4619 0.32492 0.34597 0.0
O443 O 0.44775 0.36969 0.46802 0.0
H444 H 0.47618 0.38074 0.29708 0.0
H445 H 0.46233 0.33293 0.42956 0.0
O446 O 0.45861 0.40358 0.38049 0.0
C447 C 0.45298 0.35912 0.50676 0.0
O448 O 0.47573 0.361 0.50808 0.0
N449 N 0.50822 0.4114 0.38544 0.0
C450 C 0.55902 0.44972 0.3676 0.0
C451 C 0.53857 0.45202 0.34658 0.0
C452 C 0.5132 0.43268 0.35625 0.0
C453 C 0.52783 0.4078 0.40182 0.0
C454 C 0.55339 0.42675 0.39348 0.0
H455 H 0.49791 0.43605 0.34392 0.0
H456 H 0.52361 0.39115 0.4258 0.0
H457 H 0.47728 0.44365 0.43974 0.0
H458 H 0.52307 0.45076 0.57319 0.0
H459 H 0.46712 0.33529 0.26195 0.0
H460 H 0.54206 0.46946 0.32655 0.0
H461 H 0.56861 0.42403 0.40971 0.0
C462 C 0.59977 0.07689 0.52434 0.0
C463 C 0.57806 0.05838 0.54917 0.0
N464 N 0.56755 0.03734 0.51778 0.0
N465 N 0.60311 0.0675 0.47783 0.0
C466 C 0.5833 0.04325 0.47503 0.0
H467 H 0.61142 0.09652 0.53766 0.0
Co468 Co 0.62755 0.08818 0.4288 0.0
C469 C 0.61455 0.05523 0.32929 0.0
O470 O 0.61557 0.07426 0.30167 0.0
N471 N 0.65361 0.11114 0.37998 0.0
C472 C 0.67432 0.14176 0.31875 0.0
C473 C 0.65076 0.12354 0.33751 0.0
C474 C 0.67954 0.12254 0.3857 0.0
N475 N 0.69253 0.1414 0.34941 0.0
O476 O 0.65206 0.08247 0.46868 0.0
H477 H 0.63273 0.12074 0.3221 0.0
H478 H 0.68891 0.11789 0.41704 0.0
O479 O 0.6189 0.0579 0.3801 0.0
C480 C 0.66199 0.09916 0.50618 0.0
O481 O 0.65849 0.11908 0.50526 0.0
N482 N 0.6026 0.09478 0.39799 0.0
C483 C 0.56289 0.1061 0.38442 0.0
C484 C 0.55947 0.08198 0.36995 0.0
C485 C 0.57938 0.07656 0.37781 0.0
C486 C 0.60631 0.11839 0.41175 0.0
C487 C 0.58693 0.12458 0.40457 0.0
H488 H 0.57531 0.05716 0.37106 0.0
H489 H 0.62417 0.13218 0.43059 0.0
H490 H 0.57954 0.03077 0.44086 0.0
H491 H 0.56949 0.06097 0.58514 0.0
H492 H 0.6776 0.15542 0.28722 0.0
H493 H 0.54104 0.06684 0.35579 0.0
H494 H 0.59054 0.14347 0.41625 0.0
C495 C 0.85174 0.59652 0.70165 0.0
C496 C 0.84574 0.61302 0.67598 0.0
N497 N 0.85898 0.63616 0.69964 0.0
N498 N 0.8689 0.60927 0.74085 0.0
C499 C 0.87306 0.63346 0.73853 0.0
H500 H 0.84288 0.57611 0.69441 0.0
Co501 Co 0.87875 0.59288 0.78989 0.0
C502 C 0.91884 0.63429 0.85969 0.0
O503 O 0.93307 0.62329 0.85918 0.0
N504 N 0.88753 0.57481 0.83811 0.0
C505 C 0.89047 0.55526 0.91111 0.0
C506 C 0.88669 0.57466 0.89219 0.0
C507 C 0.89149 0.55523 0.82522 0.0
N508 N 0.89337 0.54297 0.86873 0.0
O509 O 0.90837 0.60109 0.74505 0.0
H510 H 0.8825 0.58715 0.91623 0.0
H511 H 0.89137 0.54896 0.78464 0.0
O512 O 0.89808 0.62462 0.83225 0.0
C513 C 0.90221 0.58547 0.70568 0.0
O514 O 0.87895 0.56544 0.7043 0.0
N515 N 0.84878 0.58409 0.82904 0.0
C516 C 0.79797 0.56951 0.85438 0.0
C517 C 0.8177 0.59502 0.86129 0.0
C518 C 0.84303 0.60192 0.84857 0.0
C519 C 0.83029 0.55891 0.82601 0.0
C520 C 0.80483 0.55113 0.83926 0.0
H521 H 0.85742 0.62202 0.84993 0.0
H522 H 0.835 0.54506 0.80964 0.0
H523 H 0.88507 0.64846 0.76644 0.0
H524 H 0.83131 0.60794 0.64512 0.0
H525 H 0.89044 0.55026 0.95276 0.0
H526 H 0.81348 0.60998 0.87232 0.0
H527 H 0.79044 0.53108 0.83468 0.0
C528 C 0.4191 0.25865 0.69935 0.0
C529 C 0.40511 0.23506 0.67545 0.0
N530 N 0.38473 0.22047 0.70691 0.0
N531 N 0.40752 0.25897 0.7454 0.0
C532 C 0.38646 0.23551 0.74883 0.0
H533 H 0.43718 0.27432 0.68524 0.0
Co534 Co 0.423 0.28649 0.79125 0.0
C535 C 0.38935 0.27438 0.88703 0.0
O536 O 0.41036 0.28225 0.91562 0.0
N537 N 0.44001 0.31581 0.83496 0.0
C538 C 0.44848 0.35377 0.86753 0.0
C539 C 0.42943 0.32988 0.85193 0.0
C540 C 0.46565 0.33182 0.84022 0.0
N541 N 0.4712 0.35491 0.86009 0.0
O542 O 0.41287 0.30528 0.74308 0.0
H543 H 0.40935 0.32423 0.84781 0.0
H544 H 0.48007 0.32807 0.82353 0.0
O545 O 0.39073 0.2743 0.83546 0.0
C546 C 0.43116 0.32119 0.7131 0.0
O547 O 0.45444 0.32514 0.72171 0.0
N548 N 0.43437 0.26732 0.83267 0.0
C549 C 0.45042 0.23174 0.85735 0.0
C550 C 0.42574 0.22692 0.87098 0.0
C551 C 0.41796 0.24457 0.85744 0.0
C552 C 0.45876 0.27267 0.82067 0.0
C553 C 0.46727 0.25535 0.83311 0.0
H554 H 0.39788 0.23833 0.86231 0.0
H555 H 0.47095 0.28919 0.79639 0.0
H556 H 0.37308 0.22931 0.78203 0.0
H557 H 0.41024 0.22873 0.63921 0.0
H558 H 0.44601 0.36986 0.87852 0.0
H559 H 0.41164 0.2086 0.8877 0.0
H560 H 0.48641 0.25983 0.82106 0.0
C561 C 0.7627 0.16421 0.70509 0.0
C562 C 0.78467 0.1682 0.68005 0.0
N563 N 0.79436 0.15582 0.70794 0.0
N564 N 0.75819 0.14903 0.7482 0.0
C565 C 0.77784 0.14412 0.74895 0.0
H566 H 0.75166 0.17331 0.69453 0.0
Co567 Co 0.73212 0.1433 0.79567 0.0
C568 C 0.74683 0.12339 0.89455 0.0
O569 O 0.74752 0.14204 0.92299 0.0
N570 N 0.70452 0.13858 0.8421 0.0
C571 C 0.68283 0.14651 0.90489 0.0
C572 C 0.70626 0.14985 0.89011 0.0
C573 C 0.67938 0.12884 0.82857 0.0
N574 N 0.66581 0.13371 0.86569 0.0
O575 O 0.70918 0.11339 0.75271 0.0
H576 H 0.72378 0.16254 0.91096 0.0
H577 H 0.67152 0.12002 0.79043 0.0
O578 O 0.74102 0.12144 0.84429 0.0
C579 C 0.70105 0.12048 0.71238 0.0
O580 O 0.70471 0.14394 0.71203 0.0
N581 N 0.75534 0.17433 0.83 0.0
C582 C 0.79304 0.22523 0.84955 0.0
C583 C 0.79809 0.20512 0.85846 0.0
C584 C 0.77918 0.17989 0.8475 0.0
C585 C 0.74998 0.19364 0.82199 0.0
C586 C 0.76843 0.21919 0.8321 0.0
H587 H 0.78443 0.16516 0.84981 0.0
H588 H 0.73168 0.18931 0.8049 0.0
H589 H 0.78091 0.13365 0.78064 0.0
H590 H 0.79397 0.18102 0.64662 0.0
H591 H 0.67934 0.15457 0.94053 0.0
H592 H 0.81705 0.20897 0.87028 0.0
H593 H 0.76377 0.23416 0.82439 0.0
C594 C 0.42455 0.16663 0.20292 0.0
C595 C 0.40838 0.17357 0.1788 0.0
N596 N 0.38617 0.16285 0.20645 0.0
N597 N 0.41253 0.15135 0.24523 0.0
C598 C 0.38912 0.14932 0.24627 0.0
H599 H 0.44444 0.17376 0.19237 0.0
Co600 Co 0.42928 0.14201 0.29493 0.0
C601 C 0.38775 0.10136 0.36485 0.0
O602 O 0.39977 0.08812 0.36678 0.0
N603 N 0.44769 0.13371 0.34426 0.0
C604 C 0.46652 0.1307 0.41857 0.0
C605 C 0.44828 0.13595 0.39816 0.0
C606 C 0.46588 0.12732 0.33302 0.0
N607 N 0.47764 0.12532 0.37738 0.0
O608 O 0.42181 0.11257 0.25045 0.0
H609 H 0.4366 0.14161 0.42109 0.0
H610 H 0.47135 0.12529 0.29296 0.0
O611 O 0.39711 0.12192 0.33669 0.0
C612 C 0.43844 0.11874 0.21307 0.0
O613 O 0.45884 0.14177 0.21381 0.0
N614 N 0.43757 0.17216 0.33295 0.0
C615 C 0.44868 0.2227 0.34996 0.0
C616 C 0.42522 0.20188 0.3671 0.0
C617 C 0.41998 0.17671 0.35817 0.0
C618 C 0.46123 0.19202 0.32012 0.0
C619 C 0.46724 0.21745 0.32838 0.0
H620 H 0.40094 0.16122 0.36733 0.0
H621 H 0.47473 0.18814 0.29912 0.0
H622 H 0.37499 0.13922 0.27708 0.0
H623 H 0.41327 0.1869 0.14581 0.0
H624 H 0.47138 0.13113 0.46046 0.0
H625 H 0.41021 0.20488 0.38356 0.0
H626 H 0.48579 0.23285 0.31548 0.0
C627 C 0.86395 0.26378 0.20558 0.0
C628 C 0.85995 0.24191 0.18008 0.0
N629 N 0.86809 0.22951 0.21252 0.0
N630 N 0.87484 0.26547 0.25372 0.0
C631 C 0.87728 0.24435 0.25685 0.0
H632 H 0.8577 0.27675 0.19127 0.0
Co633 Co 0.8783 0.28991 0.30314 0.0
C634 C 0.90059 0.27982 0.40187 0.0
O635 O 0.88421 0.2832 0.43066 0.0
N636 N 0.8808 0.31602 0.35186 0.0
C637 C 0.86852 0.33681 0.40835 0.0
C638 C 0.86427 0.31323 0.39176 0.0
C639 C 0.8952 0.34194 0.34604 0.0
N640 N 0.88775 0.35499 0.37894 0.0
O641 O 0.90792 0.31467 0.26307 0.0
H642 H 0.84892 0.29519 0.40664 0.0
H643 H 0.91023 0.3513 0.31663 0.0
O644 O 0.90055 0.28195 0.35057 0.0
C645 C 0.90099 0.32542 0.22783 0.0
O646 O 0.87764 0.32208 0.23048 0.0
N647 N 0.84746 0.26469 0.33479 0.0
C648 C 0.79732 0.22398 0.34773 0.0
C649 C 0.81827 0.22214 0.36713 0.0
C650 C 0.84329 0.24255 0.35931 0.0
C651 C 0.82719 0.26696 0.31714 0.0
C652 C 0.802 0.24697 0.32357 0.0
H653 H 0.85903 0.23951 0.3693 0.0
H654 H 0.83076 0.284 0.29536 0.0
H655 H 0.88433 0.23928 0.29197 0.0
H656 H 0.84997 0.23473 0.14239 0.0
H657 H 0.85694 0.34007 0.43716 0.0
H658 H 0.81546 0.20445 0.38477 0.0
H659 H 0.78634 0.24914 0.30793 0.0
C660 C 0.75624 0.59911 0.19764 0.0
C661 C 0.77839 0.61686 0.17289 0.0
N662 N 0.78989 0.63781 0.2044 0.0
N663 N 0.75354 0.60884 0.2443 0.0
C664 C 0.77424 0.63261 0.2472 0.0
H665 H 0.74389 0.57962 0.18423 0.0
Co666 Co 0.72886 0.58834 0.29355 0.0
C667 C 0.74068 0.62193 0.39189 0.0
O668 O 0.73887 0.60291 0.42086 0.0
N669 N 0.70253 0.56531 0.34231 0.0
C670 C 0.68193 0.53406 0.40244 0.0
C671 C 0.70543 0.55306 0.38498 0.0
C672 C 0.67659 0.55306 0.3353 0.0
N673 N 0.66367 0.53375 0.37077 0.0
O674 O 0.70436 0.59347 0.2524 0.0
H675 H 0.72352 0.5564 0.40117 0.0
H676 H 0.66719 0.55738 0.30348 0.0
O677 O 0.73711 0.61898 0.34087 0.0
C678 C 0.6943 0.57624 0.21599 0.0
O679 O 0.69763 0.55623 0.21863 0.0
N680 N 0.75386 0.58232 0.32585 0.0
C681 C 0.79453 0.57245 0.33886 0.0
C682 C 0.79707 0.59606 0.35461 0.0
C683 C 0.77667 0.60075 0.34713 0.0
C684 C 0.75085 0.55904 0.31159 0.0
C685 C 0.77076 0.55358 0.31836 0.0
H686 H 0.78021 0.61992 0.35458 0.0
H687 H 0.73326 0.54506 0.29218 0.0
H688 H 0.77862 0.64517 0.28146 0.0
H689 H 0.78649 0.6137 0.13682 0.0
H690 H 0.67882 0.52033 0.43371 0.0
H691 H 0.81525 0.61147 0.36921 0.0
H692 H 0.76782 0.53503 0.30582 0.0
C693 C 0.50969 0.0885 1.00632 0.0
C694 C 0.51688 0.0726 0.03073 0.0
N695 N 0.50494 0.0497 1.00564 0.0
N696 N 0.49325 0.07573 0.96613 0.0
C697 C 0.49053 0.05203 0.96679 0.0
H698 H 0.51655 0.10841 1.01617 0.0
Co699 Co 0.48117 0.09213 0.92232 0.0
C700 C 0.45894 0.05859 0.82649 0.0
O701 O 0.47149 0.07948 0.79737 0.0
N702 N 0.46891 0.11028 0.88115 0.0
C703 C 0.44046 0.11981 0.84608 0.0
C704 C 0.44505 0.10031 0.86003 0.0
C705 C 0.47793 0.13598 0.88138 0.0
N706 N 0.46122 0.14219 0.85934 0.0
O707 O 0.45294 0.08228 0.9717 0.0
H708 H 0.4308 0.08013 0.8595 0.0
H709 H 0.49498 0.14973 0.90252 0.0
O710 O 0.46063 0.06039 0.87797 0.0
C711 C 0.45762 0.09982 1.00611 0.0
O712 O 0.47873 0.1221 1.00098 0.0
N713 N 0.51089 0.10265 0.8786 0.0
C714 C 0.56203 0.11671 0.85437 0.0
C715 C 0.54199 0.0916 0.84555 0.0
C716 C 0.51675 0.08494 0.85831 0.0
C717 C 0.52999 0.12752 0.88443 0.0
C718 C 0.55552 0.13506 0.87157 0.0
H719 H 0.50271 0.06478 0.8576 0.0
H720 H 0.52623 0.14114 0.90467 0.0
H721 H 0.47867 0.03699 0.93874 0.0
H722 H 0.53066 0.07784 0.06299 0.0
H723 H 0.42247 0.11766 0.83167 0.0
H724 H 0.54588 0.0765 0.83385 0.0
H725 H 0.57023 0.15477 0.87883 0.0
C726 C 0.92873 0.42576 1.02489 0.0
C727 C 0.94458 0.44914 0.04805 0.0
N728 N 0.96727 0.45996 1.02211 0.0
N729 N 0.94139 0.42161 0.98496 0.0
C730 C 0.96486 0.4428 0.98421 0.0
H731 H 0.90871 0.41325 0.03468 0.0
Co732 Co 0.92525 0.39458 0.93715 0.0
C733 C 0.96665 0.39452 0.86994 0.0
O734 O 0.9553 0.36934 0.8718 0.0
N735 N 0.90754 0.36723 0.88962 0.0
C736 C 0.889 0.34472 0.81593 0.0
C737 C 0.90728 0.36823 0.83556 0.0
C738 C 0.88917 0.34304 0.90182 0.0
N739 N 0.87758 0.32893 0.8578 0.0
O740 O 0.93355 0.37401 0.98392 0.0
H741 H 0.91909 0.38522 0.81196 0.0
H742 H 0.88339 0.33617 0.94223 0.0
O743 O 0.95723 0.40626 0.89611 0.0
C744 C 0.91751 0.36483 1.02255 0.0
O745 O 0.89683 0.36706 1.02078 0.0
N746 N 0.91639 0.41506 0.89637 0.0
C747 C 0.90411 0.4529 0.87187 0.0
C748 C 0.92779 0.45558 0.85612 0.0
C749 C 0.93364 0.43646 0.86889 0.0
C750 C 0.89247 0.41104 0.90774 0.0
C751 C 0.88587 0.42974 0.89575 0.0
H752 H 0.95284 0.44016 0.86066 0.0
H753 H 0.87925 0.39422 0.93037 0.0
H754 H 0.97924 0.44638 0.95415 0.0
H755 H 0.93945 0.45781 0.08029 0.0
H756 H 0.88423 0.33981 0.77416 0.0
H757 H 0.94254 0.47319 0.83805 0.0
H758 H 0.8672 0.42667 0.90777 0.0
C759 C 0.59482 0.50939 1.01221 0.0
C760 C 0.57293 0.50478 0.03862 0.0
N761 N 0.56372 0.51862 1.01484 0.0
N762 N 0.59969 0.52635 0.97235 0.0
C763 C 0.58044 0.53179 0.97499 0.0
H764 H 0.60559 0.49967 1.01942 0.0
Co765 Co 0.62557 0.53323 0.92364 0.0
C766 C 0.6119 0.55566 0.82831 0.0
O767 O 0.61157 0.53769 0.79805 0.0
N768 N 0.65298 0.53907 0.87587 0.0
C769 C 0.67507 0.53309 0.81093 0.0
C770 C 0.6513 0.52812 0.82748 0.0
C771 C 0.6784 0.55024 0.88788 0.0
N772 N 0.69225 0.54663 0.84937 0.0
O773 O 0.64849 0.56222 0.96855 0.0
H774 H 0.6338 0.51503 0.80696 0.0
H775 H 0.68644 0.55928 0.92579 0.0
O776 O 0.61687 0.55629 0.87878 0.0
C777 C 0.6567 0.55466 1.00788 0.0
O778 O 0.65325 0.53128 1.00632 0.0
N779 N 0.60209 0.50303 0.88678 0.0
C780 C 0.56298 0.45302 0.86343 0.0
C781 C 0.55885 0.47396 0.85837 0.0
C782 C 0.57844 0.49864 0.87082 0.0
C783 C 0.60663 0.48299 0.89132 0.0
C784 C 0.58749 0.45788 0.87908 0.0
H785 H 0.57381 0.51384 0.8713 0.0
H786 H 0.62483 0.48633 0.90719 0.0
H787 H 0.57784 0.54382 0.94635 0.0
H788 H 0.56341 0.49074 0.07003 0.0
H789 H 0.67888 0.52585 0.77442 0.0
H790 H 0.54007 0.47122 0.8485 0.0
H791 H 0.5916 0.44236 0.8838 0.0
C792 C 0.59791 0.84557 0.84828 0.0
C793 C 0.61424 0.83872 0.87175 0.0
N794 N 0.63645 0.8498 0.84408 0.0
N795 N 0.60977 0.86124 0.80638 0.0
C796 C 0.63331 0.8635 0.80482 0.0
H797 H 0.57804 0.83823 0.85924 0.0
Co798 Co 0.59223 0.87058 0.7585 0.0
C799 C 0.63315 0.91124 0.68637 0.0
O800 O 0.62121 0.92457 0.68475 0.0
N801 N 0.57275 0.87861 0.71149 0.0
C802 C 0.55187 0.88076 0.63974 0.0
C803 C 0.57179 0.87741 0.65747 0.0
C804 C 0.55304 0.88234 0.72548 0.0
N805 N 0.53996 0.88375 0.68275 0.0
O806 O 0.60027 0.90006 0.80355 0.0
H807 H 0.58419 0.87343 0.6326 0.0
H808 H 0.54739 0.88263 0.76636 0.0
O809 O 0.6239 0.8908 0.71492 0.0
C810 C 0.58461 0.89384 0.84286 0.0
O811 O 0.56452 0.87063 0.84405 0.0
N812 N 0.58352 0.84057 0.71979 0.0
C813 C 0.57244 0.7902 0.70125 0.0
C814 C 0.59556 0.8111 0.68297 0.0
C815 C 0.6008 0.83619 0.69272 0.0
C816 C 0.56008 0.82062 0.73364 0.0
C817 C 0.5541 0.79525 0.72466 0.0
H818 H 0.61966 0.85174 0.68266 0.0
H819 H 0.54684 0.82437 0.75604 0.0
H820 H 0.64715 0.87343 0.77345 0.0
H821 H 0.60972 0.82583 0.90543 0.0
H822 H 0.54639 0.88053 0.59836 0.0
H823 H 0.61039 0.80822 0.66507 0.0
H824 H 0.53581 0.77976 0.73852 0.0
C825 C 0.17451 0.75709 0.84041 0.0
C826 C 0.17789 0.7788 0.86557 0.0
N827 N 0.16274 0.78638 0.84142 0.0
N828 N 0.15706 0.75066 0.80086 0.0
C829 C 0.15015 0.7689 0.80234 0.0
H830 H 0.18522 0.74738 0.84851 0.0
Co831 Co 0.1506 0.72381 0.75493 0.0
C832 C 0.1276 0.73533 0.65738 0.0
O833 O 0.14489 0.73416 0.62739 0.0
N834 N 0.14529 0.69546 0.71023 0.0
C835 C 0.15271 0.6725 0.64956 0.0
C836 C 0.15627 0.69623 0.66229 0.0
C837 C 0.13548 0.6706 0.72578 0.0
N838 N 0.14003 0.6563 0.69 0.0
O839 O 0.12184 0.70151 0.80064 0.0
H840 H 0.16869 0.71332 0.63983 0.0
H841 H 0.12688 0.66344 0.76445 0.0
O842 O 0.12732 0.7314 0.70823 0.0
C843 C 0.13018 0.69486 0.8412 0.0
O844 O 0.15402 0.69951 0.84041 0.0
N845 N 0.18053 0.74667 0.71712 0.0
C846 C 0.23044 0.78558 0.69316 0.0
C847 C 0.20937 0.78938 0.68599 0.0
C848 C 0.1847 0.76987 0.69879 0.0
C849 C 0.2007 0.74241 0.72342 0.0
C850 C 0.22577 0.76145 0.71088 0.0
H851 H 0.16937 0.77433 0.69805 0.0
H852 H 0.19748 0.72461 0.74113 0.0
H853 H 0.13718 0.77007 0.77387 0.0
H854 H 0.19179 0.78922 0.89675 0.0
H855 H 0.16034 0.66811 0.61435 0.0
H856 H 0.21201 0.80792 0.67441 0.0
H857 H 0.24141 0.75764 0.71722 0.0
C858 C 0.26872 0.41394 0.85787 0.0
C859 C 0.24635 0.39661 0.8825 0.0
N860 N 0.23371 0.37627 0.84974 0.0
N861 N 0.27055 0.40458 0.80998 0.0
C862 C 0.24893 0.38148 0.80606 0.0
H863 H 0.28192 0.43299 0.87247 0.0
Co864 Co 0.29551 0.42548 0.76131 0.0
C865 C 0.2875 0.39274 0.66308 0.0
O866 O 0.29196 0.41251 0.63335 0.0
N867 N 0.32195 0.44905 0.71335 0.0
C868 C 0.34232 0.48105 0.65466 0.0
C869 C 0.3189 0.46201 0.6722 0.0
C870 C 0.34792 0.46102 0.7195 0.0
N871 N 0.3607 0.48075 0.68484 0.0
O872 O 0.32016 0.42107 0.80368 0.0
H873 H 0.30076 0.45878 0.65649 0.0
H874 H 0.35747 0.45618 0.75014 0.0
O875 O 0.28832 0.39497 0.71451 0.0
C876 C 0.33071 0.43871 0.83912 0.0
O877 O 0.32774 0.45891 0.83552 0.0
N878 N 0.27036 0.43062 0.72746 0.0
C879 C 0.22866 0.4383 0.70927 0.0
C880 C 0.22854 0.41626 0.68996 0.0
C881 C 0.24927 0.4125 0.70047 0.0
C882 C 0.27131 0.45268 0.74451 0.0
C883 C 0.25079 0.45702 0.73552 0.0
H884 H 0.24712 0.39411 0.69041 0.0
H885 H 0.28755 0.46632 0.76806 0.0
H886 H 0.24377 0.36944 0.77077 0.0
H887 H 0.23903 0.39973 0.91975 0.0
H888 H 0.34537 0.49515 0.6243 0.0
H889 H 0.21195 0.40129 0.66932 0.0
H890 H 0.25164 0.4741 0.75209 0.0
C891 C 0.51509 0.92601 0.04392 0.0
C892 C 0.50885 0.94252 1.01923 0.0
N893 N 0.52105 0.96524 0.0449 0.0
N894 N 0.53139 0.93819 0.08476 0.0
C895 C 0.53463 0.96212 0.08454 0.0
H896 H 0.50707 0.9059 0.03434 0.0
Co897 Co 0.54142 0.92094 0.13203 0.0
C898 C 0.58233 0.96213 0.20303 0.0
O899 O 0.59589 0.95043 0.20419 0.0
N900 N 0.55021 0.90187 0.17843 0.0
C901 C 0.55339 0.88147 0.2499 0.0
C902 C 0.54913 0.90082 0.23246 0.0
C903 C 0.55488 0.88281 0.16411 0.0
N904 N 0.55692 0.87005 0.2067 0.0
O905 O 0.57065 0.92924 0.08589 0.0
H906 H 0.54473 0.91282 0.25759 0.0
H907 H 0.55548 0.87741 0.12313 0.0
O908 O 0.56174 0.95272 0.17486 0.0
C909 C 0.56422 0.91371 0.04633 0.0
O910 O 0.54105 0.89353 0.04561 0.0
N911 N 0.51158 0.91195 0.17199 0.0
C912 C 0.46218 0.90318 0.19344 0.0
C913 C 0.48378 0.9238 0.2175 0.0
C914 C 0.50839 0.928 0.20602 0.0
C915 C 0.49077 0.89024 0.15322 0.0
C916 C 0.46583 0.88551 0.16322 0.0
H917 H 0.52461 0.94519 0.22154 0.0
H918 H 0.49363 0.87791 0.12578 0.0
H919 H 0.54608 0.97671 0.11362 0.0
H920 H 0.49524 0.93771 0.98677 0.0
H921 H 0.5535 0.87604 0.2912 0.0
H922 H 0.48185 0.93754 0.2424 0.0
H923 H 0.44983 0.86935 0.14371 0.0
C924 C 0.08993 0.59519 0.03636 0.0
C925 C 0.07232 0.57262 1.01288 0.0
N926 N 0.05096 0.56203 0.0433 0.0
N927 N 0.07974 0.59911 0.08112 0.0
C928 C 0.05574 0.57868 0.08404 0.0
H929 H 0.10961 0.60704 1.02356 0.0
Co930 Co 0.1005 0.62463 0.12898 0.0
C931 C 0.06708 0.61344 0.22776 0.0
O932 O 0.08591 0.61505 0.25707 0.0
N933 N 0.12392 0.65164 0.17599 0.0
C934 C 0.15516 0.67259 0.23597 0.0
C935 C 0.13528 0.64919 0.22071 0.0
C936 C 0.13784 0.6772 0.16516 0.0
N937 N 0.15729 0.69038 0.20042 0.0
O938 O 0.09466 0.64834 0.08688 0.0
H939 H 0.13102 0.63132 0.23951 0.0
H940 H 0.13489 0.68584 0.13014 0.0
O941 O 0.07009 0.61683 0.17672 0.0
C942 C 0.11076 0.65729 0.04822 0.0
O943 O 0.13063 0.65369 0.04876 0.0
N944 N 0.10694 0.6004 0.16282 0.0
C945 C 0.11706 0.56026 0.17938 0.0
C946 C 0.09319 0.55756 0.19334 0.0
C947 C 0.08839 0.57769 0.18412 0.0
C948 C 0.1305 0.6036 0.1503 0.0
C949 C 0.13609 0.58392 0.15887 0.0
H950 H 0.06907 0.57402 0.19019 0.0
H951 H 0.14458 0.6211 0.13082 0.0
H952 H 0.04293 0.57492 0.11763 0.0
H953 H 0.07551 0.564 0.97771 0.0
H954 H 0.16784 0.67564 0.26933 0.0
H955 H 0.07767 0.53942 0.20779 0.0
H956 H 0.15482 0.5869 0.14762 0.0
C957 C 0.42816 0.50451 0.04434 0.0
C958 C 0.45096 0.5107 1.02007 0.0
N959 N 0.46176 0.49912 0.04713 0.0
N960 N 0.42426 0.48877 0.08611 0.0
C961 C 0.44512 0.4858 0.08703 0.0
H962 H 0.41598 0.51239 0.03421 0.0
Co963 Co 0.39763 0.48111 0.13307 0.0
C964 C 0.4088 0.45774 0.22973 0.0
O965 O 0.40538 0.47348 0.26048 0.0
N966 N 0.36947 0.47461 0.17942 0.0
C967 C 0.34642 0.48282 0.23851 0.0
C968 C 0.37057 0.48801 0.22414 0.0
C969 C 0.3439 0.46115 0.1681 0.0
N970 N 0.32968 0.46608 0.20306 0.0
O971 O 0.37569 0.45201 0.08744 0.0
H972 H 0.3879 0.50244 0.24341 0.0
H973 H 0.33584 0.44966 0.13251 0.0
O974 O 0.4066 0.45867 0.17853 0.0
C975 C 0.3666 0.45912 0.04893 0.0
O976 O 0.36863 0.4819 0.0518 0.0
N977 N 0.42012 0.51151 0.17004 0.0
C978 C 0.45837 0.56219 0.1887 0.0
C979 C 0.4619 0.54176 0.2043 0.0
C980 C 0.4428 0.51653 0.19336 0.0
C981 C 0.41607 0.53123 0.15657 0.0
C982 C 0.43496 0.55675 0.16549 0.0
H983 H 0.44738 0.50149 0.19938 0.0
H984 H 0.39875 0.52715 0.13521 0.0
H985 H 0.44867 0.47529 0.11783 0.0
H986 H 0.45975 0.52415 0.9874 0.0
H987 H 0.34168 0.49202 0.27038 0.0
H988 H 0.48012 0.54534 0.22064 0.0
H989 H 0.4318 0.5721 0.15204 0.0
C990 C 0.08976 0.49796 0.55293 0.0
C991 C 0.07512 0.50631 0.52698 0.0
N992 N 0.0518 0.49517 0.55035 0.0
N993 N 0.07572 0.48164 0.5923 0.0
C994 C 0.05252 0.47999 0.58939 0.0
H995 H 0.10975 0.50415 0.54511 0.0
Co996 Co 0.09019 0.46885 0.63915 0.0
C997 C 0.0561 0.45103 0.73433 0.0
O998 O 0.07703 0.46501 0.76257 0.0
N999 N 0.10627 0.4556 0.68365 0.0
C1000 C 0.11258 0.42655 0.72582 0.0
C1001 C 0.0946 0.43282 0.70957 0.0
C1002 C 0.1314 0.46213 0.68283 0.0
N1003 N 0.1358 0.44477 0.70821 0.0
O1004 O 0.07952 0.43988 0.59133 0.0
H1005 H 0.0741 0.42011 0.71241 0.0
H1006 H 0.1457 0.47771 0.65901 0.0
O1007 O 0.05766 0.45008 0.68289 0.0
C1008 C 0.09717 0.44362 0.55783 0.0
O1009 O 0.11998 0.46396 0.56397 0.0
N1010 N 0.10177 0.49949 0.68085 0.0
C1011 C 0.11842 0.5513 0.70441 0.0
C1012 C 0.09246 0.53254 0.70863 0.0
C1013 C 0.08456 0.50705 0.69619 0.0
C1014 C 0.12734 0.51727 0.6793 0.0
C1015 C 0.1361 0.54316 0.69159 0.0
H1016 H 0.06415 0.49406 0.694 0.0
H1017 H 0.1409 0.51214 0.66361 0.0
H1018 H 0.03683 0.46869 0.61659 0.0
H1019 H 0.08159 0.52053 0.49539 0.0
H1020 H 0.10842 0.40899 0.74608 0.0
H1021 H 0.07787 0.5377 0.7167 0.0
H1022 H 0.15641 0.55687 0.68784 0.0
C1023 C 0.52133 0.5935 0.53841 0.0
C1024 C 0.51422 0.57043 0.5142 0.0
N1025 N 0.52469 0.55873 0.54193 0.0
N1026 N 0.53652 0.59657 0.58081 0.0
C1027 C 0.5382 0.575 0.58208 0.0
H1028 H 0.51446 0.60646 0.52765 0.0
Co1029 Co 0.54651 0.62336 0.62875 0.0
C1030 C 0.58588 0.62092 0.70151 0.0
O1031 O 0.60071 0.646 0.7022 0.0
N1032 N 0.55535 0.65083 0.67589 0.0
C1033 C 0.55847 0.67419 0.74775 0.0
C1034 C 0.55444 0.65071 0.72994 0.0
C1035 C 0.55961 0.67438 0.66195 0.0
N1036 N 0.56163 0.68906 0.70472 0.0
O1037 O 0.57655 0.644 0.58397 0.0
H1038 H 0.55011 0.63429 0.75477 0.0
H1039 H 0.55972 0.68026 0.62115 0.0
O1040 O 0.56545 0.61075 0.67279 0.0
C1041 C 0.57128 0.65414 0.54446 0.0
O1042 O 0.54849 0.65217 0.54265 0.0
N1043 N 0.51601 0.60288 0.66706 0.0
C1044 C 0.46526 0.56473 0.68601 0.0
C1045 C 0.48574 0.56261 0.70733 0.0
C1046 C 0.51108 0.58186 0.69713 0.0
C1047 C 0.49637 0.60637 0.65036 0.0
C1048 C 0.47083 0.58751 0.65927 0.0
H1049 H 0.52636 0.57858 0.70989 0.0
H1050 H 0.50054 0.62283 0.62577 0.0
H1051 H 0.54819 0.57081 0.61292 0.0
H1052 H 0.50099 0.56219 0.48096 0.0
H1053 H 0.55846 0.67959 0.78913 0.0
H1054 H 0.48232 0.54535 0.72805 0.0
H1055 H 0.45558 0.59011 0.64282 0.0
C1056 C 0.4237 0.92888 0.5293 0.0
C1057 C 0.44769 0.94236 0.5067 0.0
N1058 N 0.46255 0.96197 0.5397 0.0
N1059 N 0.42352 0.94007 0.57598 0.0
C1060 C 0.44735 0.96035 0.58111 0.0
H1061 H 0.40764 0.9114 0.51392 0.0
Co1062 Co 0.3961 0.92527 0.62157 0.0
C1063 C 0.40809 0.9597 0.71656 0.0
O1064 O 0.39807 0.93886 0.74625 0.0
N1065 N 0.36689 0.90892 0.66519 0.0
C1066 C 0.32865 0.90045 0.69601 0.0
C1067 C 0.35249 0.91947 0.68009 0.0
C1068 C 0.35122 0.88339 0.67213 0.0
N1069 N 0.32793 0.87782 0.69086 0.0
O1070 O 0.37797 0.93627 0.5734 0.0
H1071 H 0.35796 0.9394 0.67433 0.0
H1072 H 0.3554 0.86896 0.65726 0.0
O1073 O 0.4092 0.9576 0.66532 0.0
C1074 C 0.36024 0.91882 0.54468 0.0
O1075 O 0.35311 0.8947 0.55443 0.0
N1076 N 0.41477 0.9133 0.66297 0.0
C1077 C 0.45139 0.89801 0.6827 0.0
C1078 C 0.4552 0.92172 0.70104 0.0
C1079 C 0.437 0.92915 0.69014 0.0
C1080 C 0.41014 0.88957 0.64732 0.0
C1081 C 0.42803 0.88147 0.65706 0.0
H1082 H 0.44275 0.94885 0.69834 0.0
H1083 H 0.39382 0.87786 0.62199 0.0
H1084 H 0.45364 0.9732 0.61519 0.0
H1085 H 0.45402 0.93743 0.4702 0.0
H1086 H 0.3123 0.90277 0.70547 0.0
H1087 H 0.47321 0.93556 0.71937 0.0
H1088 H 0.42421 0.86299 0.64186 0.0
C1089 C 0.16352 0.41447 0.36661 0.0
C1090 C 0.17085 0.39848 0.39009 0.0
N1091 N 0.16469 0.3787 0.35654 0.0
N1092 N 0.1524 0.40459 0.3189 0.0
C1093 C 0.15348 0.38281 0.31379 0.0
H1094 H 0.1676 0.43291 0.38207 0.0
Co1095 Co 0.14373 0.42165 0.26899 0.0
C1096 C 0.10441 0.38078 0.19699 0.0
O1097 O 0.09077 0.39241 0.19526 0.0
N1098 N 0.1361 0.44021 0.21919 0.0
C1099 C 0.13433 0.45957 0.14459 0.0
C1100 C 0.13829 0.44056 0.16526 0.0
C1101 C 0.13109 0.45931 0.23016 0.0
N1102 N 0.12986 0.47139 0.1857 0.0
O1103 O 0.1134 0.41346 0.31165 0.0
H1104 H 0.14321 0.42828 0.14243 0.0
H1105 H 0.12971 0.46533 0.27007 0.0
O1106 O 0.1246 0.38996 0.2262 0.0
C1107 C 0.1179 0.42966 0.34926 0.0
O1108 O 0.14045 0.45068 0.35086 0.0
N1109 N 0.1744 0.43051 0.23259 0.0
C1110 C 0.22482 0.44367 0.20624 0.0
C1111 C 0.20381 0.42182 0.18382 0.0
C1112 C 0.17869 0.41545 0.1977 0.0
C1113 C 0.1944 0.45252 0.25229 0.0
C1114 C 0.21971 0.45941 0.23991 0.0
H1115 H 0.16301 0.39784 0.18212 0.0
H1116 H 0.19067 0.46391 0.28069 0.0
H1117 H 0.14732 0.37085 0.27839 0.0
H1118 H 0.18141 0.40202 0.42722 0.0
H1119 H 0.13514 0.46454 0.10268 0.0
H1120 H 0.2067 0.40929 0.15699 0.0
H1121 H 0.23509 0.47621 0.25915 0.0
C1122 C 0.60669 0.7533 0.35613 0.0
C1123 C 0.62115 0.77669 0.38049 0.0
N1124 N 0.64141 0.79121 0.34871 0.0
N1125 N 0.61786 0.75302 0.30946 0.0
C1126 C 0.63921 0.77627 0.30625 0.0
H1127 H 0.58839 0.73792 0.37003 0.0
Co1128 Co 0.60111 0.72643 0.26177 0.0
C1129 C 0.63416 0.74052 0.16386 0.0
O1130 O 0.61324 0.73455 0.13632 0.0
N1131 N 0.58258 0.69795 0.21612 0.0
C1132 C 0.57177 0.66195 0.17068 0.0
C1133 C 0.59184 0.68477 0.18888 0.0
C1134 C 0.55678 0.68206 0.21574 0.0
N1135 N 0.5498 0.6603 0.18792 0.0
O1136 O 0.61079 0.70604 0.30614 0.0
H1137 H 0.61189 0.69013 0.18641 0.0
H1138 H 0.54345 0.68504 0.23954 0.0
O1139 O 0.63285 0.7386 0.21541 0.0
C1140 C 0.59275 0.69101 0.33773 0.0
O1141 O 0.56995 0.68872 0.33196 0.0
N1142 N 0.59019 0.74718 0.22446 0.0
C1143 C 0.57496 0.78399 0.20656 0.0
C1144 C 0.59948 0.78877 0.19173 0.0
C1145 C 0.60685 0.77047 0.20188 0.0
C1146 C 0.56594 0.74194 0.23761 0.0
C1147 C 0.55786 0.75988 0.22856 0.0
H1148 H 0.62682 0.77645 0.19602 0.0
H1149 H 0.55353 0.72487 0.26014 0.0
H1150 H 0.65223 0.78256 0.27244 0.0
H1151 H 0.61621 0.78309 0.41689 0.0
H1152 H 0.57327 0.64667 0.15096 0.0
H1153 H 0.61371 0.80738 0.17645 0.0
H1154 H 0.53879 0.75536 0.24129 0.0
C1155 C 0.26681 0.8526 0.34256 0.0
C1156 C 0.24402 0.8445 0.36907 0.0
N1157 N 0.23079 0.85397 0.34338 0.0
N1158 N 0.26805 0.86715 0.30043 0.0
C1159 C 0.24602 0.86801 0.30227 0.0
H1160 H 0.28134 0.84761 0.35236 0.0
Co1161 Co 0.29512 0.8788 0.25292 0.0
C1162 C 0.27929 0.89707 0.15723 0.0
O1163 O 0.2858 0.88272 0.12886 0.0
N1164 N 0.32426 0.89076 0.20785 0.0
C1165 C 0.36047 0.91895 0.16691 0.0
C1166 C 0.33622 0.91348 0.18169 0.0
C1167 C 0.34219 0.8833 0.20963 0.0
N1168 N 0.36445 0.90014 0.1853 0.0
O1169 O 0.31424 0.90808 0.29974 0.0
H1170 H 0.32902 0.9267 0.17807 0.0
H1171 H 0.34024 0.86755 0.23391 0.0
O1172 O 0.28191 0.898 0.20863 0.0
C1173 C 0.32923 0.90521 0.33177 0.0
O1174 O 0.33231 0.88521 0.32532 0.0
N1175 N 0.27541 0.84795 0.21252 0.0
C1176 C 0.23974 0.79615 0.19096 0.0
C1177 C 0.23309 0.81526 0.18442 0.0
C1178 C 0.25095 0.84079 0.19595 0.0
C1179 C 0.28259 0.82973 0.21651 0.0
C1180 C 0.26525 0.80386 0.20517 0.0
H1181 H 0.24394 0.85418 0.19637 0.0
H1182 H 0.30092 0.83455 0.23358 0.0
H1183 H 0.24065 0.87751 0.27238 0.0
H1184 H 0.23754 0.83217 0.40394 0.0
H1185 H 0.37464 0.9364 0.14742 0.0
H1186 H 0.21355 0.81039 0.17508 0.0
H1187 H 0.27139 0.78985 0.21075 0.0
C1188 C 0.36019 0.17449 0.14864 0.0
C1189 C 0.36537 0.168 0.1994 0.0
H1190 H 0.33648 0.18443 0.10218 0.0
C1191 C 0.35052 0.16749 0.24346 0.0
H1192 H 0.37117 0.17483 0.1139 0.0
C1193 C 0.33075 0.17308 0.23678 0.0
C1194 C 0.32542 0.17933 0.18597 0.0
H1195 H 0.35439 0.16318 0.28332 0.0
H1196 H 0.3197 0.17264 0.27148 0.0
C1197 C 0.34043 0.18013 0.14198 0.0
C1198 C 0.85319 0.16787 0.14509 0.0
C1199 C 0.84873 0.15176 0.18925 0.0
H1200 H 0.86384 0.20562 0.11799 0.0
C1201 C 0.85195 0.16191 0.24124 0.0
H1202 H 0.8514 0.16067 0.10461 0.0
C1203 C 0.85903 0.18761 0.24901 0.0
C1204 C 0.86316 0.2037 0.20485 0.0
H1205 H 0.84846 0.14981 0.27596 0.0
H1206 H 0.86046 0.19458 0.28958 0.0
C1207 C 0.86044 0.19362 0.15282 0.0
C1208 C 0.82682 0.66581 0.14733 0.0
C1209 C 0.81592 0.65835 0.1986 0.0
H1210 H 0.86066 0.68918 0.10139 0.0
C1211 C 0.83143 0.66957 0.2439 0.0
H1212 H 0.81522 0.65766 0.11178 0.0
C1213 C 0.85747 0.6875 0.23795 0.0
C1214 C 0.86847 0.69447 0.18668 0.0
H1215 H 0.82373 0.66386 0.28393 0.0
H1216 H 0.86914 0.6955 0.27347 0.0
C1217 C 0.85285 0.68365 0.14141 0.0
C1218 C 0.1774 0.3491 0.31678 0.0
C1219 C 0.17182 0.35929 0.36219 0.0
H1220 H 0.18938 0.32337 0.28677 0.0
C1221 C 0.17408 0.35088 0.41332 0.0
H1222 H 0.17641 0.35564 0.27693 0.0
C1223 C 0.18163 0.33249 0.41895 0.0
C1224 C 0.18709 0.32221 0.37349 0.0
H1225 H 0.16965 0.35827 0.44891 0.0
H1226 H 0.18261 0.32593 0.45878 0.0
C1227 C 0.18497 0.33074 0.32241 0.0
C1228 C 0.66875 0.83417 0.30995 0.0
C1229 C 0.65909 0.81817 0.35502 0.0
H1230 H 0.69279 0.87233 0.28078 0.0
C1231 C 0.6661 0.829 0.40643 0.0
H1232 H 0.66313 0.82646 0.26988 0.0
C1233 C 0.68293 0.85527 0.41267 0.0
C1234 C 0.693 0.87121 0.36755 0.0
H1235 H 0.65898 0.81704 0.44179 0.0
H1236 H 0.68875 0.86288 0.45274 0.0
C1237 C 0.6855 0.86043 0.31618 0.0
C1238 C 0.16196 0.8185 0.38861 0.0
C1239 C 0.15296 0.83456 0.36963 0.0
H1240 H 0.19359 0.81176 0.39431 0.0
C1241 C 0.1702 0.85759 0.34369 0.0
H1242 H 0.14905 0.80057 0.40839 0.0
C1243 C 0.1958 0.86417 0.33594 0.0
C1244 C 0.20473 0.84786 0.35385 0.0
H1245 H 0.16399 0.87067 0.32972 0.0
H1246 H 0.20859 0.88209 0.31607 0.0
C1247 C 0.18754 0.82502 0.38066 0.0
C1248 C 0.70301 0.85914 0.84004 0.0
C1249 C 0.69926 0.83627 0.86373 0.0
H1250 H 0.68601 0.88153 0.81601 0.0
C1251 C 0.67455 0.81802 0.88107 0.0
H1252 H 0.7219 0.87383 0.82717 0.0
C1253 C 0.654 0.82249 0.87474 0.0
C1254 C 0.65773 0.84536 0.85108 0.0
H1255 H 0.67102 0.80011 0.89882 0.0
H1256 H 0.63512 0.80776 0.88755 0.0
C1257 C 0.68246 0.86362 0.83375 0.0
C1258 C 0.16163 0.82433 0.80707 0.0
C1259 C 0.16394 0.81061 0.85015 0.0
H1260 H 0.16501 0.8597 0.78036 0.0
C1261 C 0.16998 0.822 0.90123 0.0
H1262 H 0.15743 0.81622 0.76712 0.0
C1263 C 0.17448 0.84692 0.90882 0.0
C1264 C 0.17298 0.86098 0.86544 0.0
H1265 H 0.17155 0.8117 0.93527 0.0
H1266 H 0.17907 0.85511 0.94867 0.0
C1267 C 0.16614 0.84929 0.81465 0.0
C1268 C 0.17115 0.33102 0.91569 0.0
C1269 C 0.15509 0.31974 0.87124 0.0
H1270 H 0.20903 0.35713 0.94359 0.0
C1271 C 0.16555 0.32647 0.81944 0.0
H1272 H 0.16374 0.32571 0.95605 0.0
C1273 C 0.19151 0.3445 0.8122 0.0
C1274 C 0.20754 0.35603 0.8567 0.0
H1275 H 0.15352 0.3181 0.78451 0.0
H1276 H 0.19878 0.3499 0.7718 0.0
C1277 C 0.19711 0.34888 0.9085 0.0
C1278 C 0.8487 0.66264 0.64086 0.0
C1279 C 0.85472 0.65739 0.69191 0.0
H1280 H 0.83843 0.68586 0.59394 0.0
C1281 C 0.85472 0.67195 0.73593 0.0
H1282 H 0.84873 0.65171 0.60633 0.0
C1283 C 0.84843 0.69119 0.72914 0.0
C1284 C 0.8422 0.69638 0.67814 0.0
H1285 H 0.85874 0.66791 0.77592 0.0
H1286 H 0.84796 0.70163 0.76409 0.0
C1287 C 0.84259 0.68202 0.63395 0.0
C1288 C 0.34213 0.15718 0.64087 0.0
C1289 C 0.33099 0.14112 0.68546 0.0
H1290 H 0.36768 0.19528 0.61295 0.0
C1291 C 0.33838 0.15149 0.7372 0.0
H1292 H 0.3365 0.14993 0.60051 0.0
C1293 C 0.35597 0.17751 0.74427 0.0
C1294 C 0.36663 0.19367 0.69971 0.0
H1295 H 0.33034 0.1395 0.77226 0.0
H1296 H 0.36136 0.18494 0.78459 0.0
C1297 C 0.35983 0.1832 0.64796 0.0
C1298 C 0.83076 0.1636 0.65028 0.0
C1299 C 0.81992 0.15995 0.70165 0.0
H1300 H 0.86445 0.17389 0.60385 0.0
C1301 C 0.8353 0.16342 0.74668 0.0
H1302 H 0.81918 0.16086 0.61498 0.0
C1303 C 0.86131 0.17128 0.74045 0.0
C1304 C 0.87238 0.17569 0.68907 0.0
H1305 H 0.82754 0.16123 0.78675 0.0
H1306 H 0.87291 0.17462 0.77596 0.0
C1307 C 0.85672 0.17134 0.644 0.0
C1308 C 0.99708 0.50723 0.57301 0.0
C1309 C 0.9936 0.51444 0.52152 0.0
H1310 H 0.01841 0.49554 0.6226 0.0
C1311 C 1.00963 0.51523 0.47959 0.0
H1312 H 0.98526 0.50681 0.60623 0.0
C1313 C 0.02857 0.50867 0.48896 0.0
C1314 C 0.0318 0.50117 0.54034 0.0
H1315 H 1.00714 0.52027 0.4393 0.0
H1316 H 0.04046 0.5091 0.45584 0.0
C1317 C 0.01595 0.50062 0.58232 0.0
C1318 C 0.50691 0.49619 0.47536 0.0
C1319 C 0.50605 0.48114 0.51921 0.0
H1320 H 0.51421 0.53297 0.44821 0.0
C1321 C 0.512 0.49224 0.57057 0.0
H1322 H 0.50299 0.48838 0.43515 0.0
C1323 C 0.51861 0.51783 0.57798 0.0
C1324 C 0.51935 0.53282 0.53415 0.0
H1325 H 0.51124 0.48102 0.60516 0.0
H1326 H 0.52252 0.52565 0.61818 0.0
C1327 C 0.5135 0.52176 0.48278 0.0
C1328 C 0.5006 0.98698 0.48293 0.0
C1329 C 0.48953 0.97964 0.53404 0.0
H1330 H 0.5343 0.0113 0.43758 0.0
C1331 C 0.50512 0.98988 0.57958 0.0
H1332 H 0.48897 0.97944 0.44721 0.0
C1333 C 0.53108 0.00793 0.57411 0.0
C1334 C 0.54193 0.01608 0.52305 0.0
H1335 H 0.49723 0.98403 0.61946 0.0
H1336 H 0.54262 0.01593 0.60981 0.0
C1337 C 0.52658 1.00507 0.47745 0.0
C1338 C 0.5202 1.00385 0.07656 0.0
C1339 C 0.51779 0.98706 0.03486 0.0
H1340 H 0.51737 0.03661 0.10016 0.0
C1341 C 0.511 0.99121 0.98342 0.0
H1342 H 0.52495 1.00094 0.11681 0.0
C1343 C 0.5065 0.01153 0.97395 0.0
C1344 C 0.50877 0.02824 1.01568 0.0
H1345 H 0.50937 0.97884 0.95026 0.0
H1346 H 0.50171 0.01442 0.93372 0.0
C1347 C 0.51573 0.02422 0.06706 0.0
C1348 C 0.98465 0.50507 0.05108 0.0
C1349 C 0.98848 0.48562 0.029 0.0
H1350 H 1.00168 0.54484 0.0725 0.0
C1351 C 0.01325 0.49177 1.01246 0.0
H1352 H 0.96575 0.50111 0.06353 0.0
C1353 C 0.03366 0.51681 1.01715 0.0
C1354 C 0.02978 0.53628 0.0386 0.0
H1355 H 0.01696 0.4772 0.99627 0.0
H1356 H 0.05258 0.52079 1.00468 0.0
C1357 C 1.00515 0.53014 0.05602 0.0
C1358 C 0.50211 0.50342 0.0826 0.0
C1359 C 0.48741 0.50367 0.03912 0.0
H1360 H 0.53842 0.50881 0.10894 0.0
C1361 C 0.4986 0.50988 0.98785 0.0
H1362 H 0.49421 0.49926 0.12273 0.0
C1363 C 0.52394 0.51567 0.98011 0.0
C1364 C 0.53856 0.51524 1.02349 0.0
H1365 H 0.48763 0.50996 0.9535 0.0
H1366 H 0.53179 0.51968 0.93993 0.0
C1367 C 0.52745 0.50915 0.07482 0.0
C1368 C 0.23888 0.08723 0.98522 0.0
C1369 C 0.23081 0.0959 0.02957 0.0
H1370 H 0.24273 0.05668 0.95049 0.0
C1371 C 0.21949 0.07922 0.07329 0.0
H1372 H 0.24762 0.09956 0.95083 0.0
C1373 C 0.21661 0.05465 0.07302 0.0
C1374 C 0.22497 0.04607 0.02902 0.0
H1375 H 0.21345 0.08537 0.10854 0.0
H1376 H 0.20774 0.04238 0.10735 0.0
C1377 C 0.23594 0.06259 0.9849 0.0
C1378 C 0.93458 0.15146 0.08252 0.0
C1379 C 0.92359 0.13813 0.03467 0.0
H1380 H 0.96601 0.18463 0.119 0.0
C1381 C 0.93708 0.14754 0.98633 0.0
H1382 H 0.92437 0.14474 0.12019 0.0
C1383 C 0.96118 0.17001 0.98598 0.0
C1384 C 0.97172 0.18373 0.03372 0.0
H1385 H 0.92887 0.13765 0.94895 0.0
H1386 H 0.9711 0.17729 0.94825 0.0
C1387 C 0.95826 0.17421 0.08192 0.0
C1388 C 0.87814 0.80046 0.07586 0.0
C1389 C 0.88235 0.78732 0.03385 0.0
H1390 H 0.85419 0.81415 0.1085 0.0
C1391 C 0.86491 0.77836 0.99075 0.0
H1392 H 0.89091 0.8073 0.11011 0.0
C1393 C 0.84355 0.78192 0.99026 0.0
C1394 C 0.83901 0.79454 0.03287 0.0
H1395 H 0.8676 0.76828 0.95757 0.0
H1396 H 0.83029 0.77422 0.95698 0.0
C1397 C 0.85677 0.80401 0.07538 0.0
C1398 C 0.05865 0.20497 0.50675 0.0
C1399 C 0.0545 0.22562 0.51629 0.0
H1400 H 0.08562 0.19169 0.50304 0.0
C1401 C 0.07551 0.24971 0.52893 0.0
H1402 H 0.04255 0.1861 0.49812 0.0
C1403 C 0.10048 0.25334 0.52996 0.0
C1404 C 0.10493 0.23271 0.51995 0.0
H1405 H 0.0726 0.26583 0.53666 0.0
H1406 H 0.11627 0.27253 0.53724 0.0
C1407 C 0.08344 0.20834 0.50937 0.0
C1408 C 0.7964 0.86737 0.46306 0.0
C1409 C 0.78358 0.87142 0.50599 0.0
H1410 H 0.81041 0.8439 0.42919 0.0
C1411 C 0.77458 0.85364 0.54838 0.0
H1412 H 0.8032 0.88038 0.42923 0.0
C1413 C 0.77839 0.83246 0.54794 0.0
C1414 C 0.7913 0.82845 0.50509 0.0
H1415 H 0.76472 0.85617 0.58219 0.0
H1416 H 0.771 0.8191 0.58108 0.0
C1417 C 0.80019 0.84617 0.4626 0.0
C1418 C 0.15049 0.92712 0.46546 0.0
C1419 C 0.14398 0.91277 0.51314 0.0
H1420 H 0.17563 0.96258 0.42635 0.0
C1421 C 0.15934 0.92384 0.55877 0.0
H1422 H 0.13954 0.91893 0.42914 0.0
C1423 C 0.18016 0.94905 0.55719 0.0
C1424 C 0.18617 0.96367 0.50978 0.0
H1425 H 0.15486 0.91325 0.59607 0.0
H1426 H 0.19093 0.9573 0.59361 0.0
C1427 C 0.1713 0.95216 0.46378 0.0
C1428 C 0.80128 0.93512 0.97347 0.0
C1429 C 0.7906 0.91857 1.01764 0.0
H1430 H 0.81228 0.97178 0.9392 0.0
C1431 C 0.78268 0.92718 0.0623 0.0
H1432 H 0.80716 0.92899 0.93796 0.0
C1433 C 0.78523 0.95166 0.06261 0.0
C1434 C 0.79574 0.96814 1.01826 0.0
H1435 H 0.77444 0.91498 0.09704 0.0
H1436 H 0.77859 0.95749 0.09737 0.0
C1437 C 0.80382 0.95957 0.97378 0.0
C1438 C 0.08442 0.86716 0.06983 0.0
C1439 C 0.09741 0.87693 1.02117 0.0
H1440 H 0.05101 0.83686 0.10838 0.0
C1441 C 0.08613 0.8639 0.97321 0.0
H1442 H 0.09293 0.87682 0.10725 0.0
C1443 C 0.06266 0.84097 0.97403 0.0
C1444 C 0.04977 0.83103 1.02259 0.0
H1445 H 0.09602 0.87093 0.93531 0.0
H1446 H 0.05469 0.8307 0.93691 0.0
C1447 C 0.06054 0.8445 0.07043 0.0
C1448 C 0.16572 0.21014 0.982 0.0
C1449 C 0.18397 0.21985 1.02358 0.0
H1450 H 0.13099 0.20636 0.94947 0.0
C1451 C 0.17971 0.23228 0.06694 0.0
H1452 H 0.1681 0.20011 0.94839 0.0
C1453 C 0.15815 0.23551 0.06799 0.0
C1454 C 0.14024 0.22637 1.02575 0.0
H1455 H 0.19336 0.24014 0.09954 0.0
H1456 H 0.1557 0.24554 0.10158 0.0
C1457 C 0.14414 0.21333 0.98309 0.0
C1458 C 0.94277 0.80631 0.53985 0.0
C1459 C 0.92082 0.78217 0.53003 0.0
H1460 H 0.98368 0.82754 0.55191 0.0
C1461 C 0.92444 0.76085 0.52244 0.0
H1462 H 0.94125 0.82342 0.54446 0.0
C1463 C 0.94904 0.7636 0.52495 0.0
C1464 C 0.9705 0.78749 0.53672 0.0
H1465 H 0.90827 0.7418 0.51594 0.0
H1466 H 0.9513 0.74696 0.51903 0.0
C1467 C 0.9672 0.80882 0.54393 0.0
C1468 C 0.24948 0.16112 0.50391 0.0
C1469 C 0.24002 0.14322 0.54604 0.0
H1470 H 0.25382 0.19594 0.47132 0.0
C1471 C 0.22709 0.14737 0.58865 0.0
H1472 H 0.25943 0.15853 0.47034 0.0
C1473 C 0.22358 0.16873 0.58893 0.0
C1474 C 0.23292 0.18655 0.54664 0.0
H1475 H 0.21996 0.13428 0.62232 0.0
H1476 H 0.21323 0.17104 0.62201 0.0
C1477 C 0.24602 0.1825 0.50425 0.0
C1478 C 0.87061 0.08585 0.59011 0.0
C1479 C 0.87861 0.10018 0.54244 0.0
H1480 H 0.84391 0.05064 0.62807 0.0
C1481 C 0.86419 0.08942 0.49553 0.0
H1482 H 0.88079 0.09384 0.62732 0.0
C1483 C 0.84291 0.06444 0.49592 0.0
C1484 C 0.8355 0.04978 0.54337 0.0
H1485 H 0.86981 0.10001 0.4582 0.0
H1486 H 0.83289 0.05634 0.45866 0.0
C1487 C 0.84935 0.06108 0.59059 0.0
C1488 C 0.90559 0.39654 0.32994 0.0
C1489 C 0.89511 0.38191 0.37687 0.0
H1490 H 0.9181 0.43253 0.28989 0.0
C1491 C 0.89019 0.39357 0.42074 0.0
H1492 H 0.90938 0.38824 0.29503 0.0
C1493 C 0.89474 0.41872 0.41733 0.0
C1494 C 0.90459 0.4331 0.37011 0.0
H1495 H 0.88264 0.38321 0.45787 0.0
H1496 H 0.89074 0.42703 0.45204 0.0
C1497 C 0.91041 0.4219 0.32674 0.0
C1498 C 0.60024 0.47862 0.41526 0.0
C1499 C 0.58571 0.47201 0.36784 0.0
H1500 H 0.63578 0.50383 0.45395 0.0
C1501 C 0.59666 0.48718 0.32194 0.0
H1502 H 0.59212 0.46781 0.45176 0.0
C1503 C 0.62197 0.5079 0.32303 0.0
C1504 C 0.63678 0.51407 0.37027 0.0
H1505 H 0.58589 0.48263 0.28486 0.0
H1506 H 0.63011 0.51853 0.28643 0.0
C1507 C 0.62531 0.49939 0.41654 0.0
C1508 C 0.52348 0.10216 0.33924 0.0
C1509 C 0.54103 0.11129 0.38208 0.0
H1510 H 0.48948 0.09912 0.30444 0.0
C1511 C 0.53712 0.12485 0.42366 0.0
H1512 H 0.52592 0.09173 0.30644 0.0
C1513 C 0.5163 0.12925 0.42235 0.0
C1514 C 0.49882 0.12025 0.3794 0.0
H1515 H 0.54996 0.13179 0.45779 0.0
H1516 H 0.51414 0.14002 0.45477 0.0
C1517 C 0.50267 0.10661 0.33788 0.0
C1518 C 0.76165 0.57506 0.89154 0.0
C1519 C 0.77042 0.56277 0.85613 0.0
H1520 H 0.73027 0.58006 0.91669 0.0
C1521 C 0.75292 0.54506 0.8191 0.0
H1522 H 0.7745 0.58873 0.92084 0.0
C1523 C 0.72754 0.53978 0.81728 0.0
C1524 C 0.71871 0.55228 0.85195 0.0
H1525 H 0.75891 0.53561 0.7902 0.0
H1526 H 0.71496 0.52575 0.78838 0.0
C1527 C 0.73614 0.56993 0.88939 0.0
C1528 C 0.44799 0.1937 0.90569 0.0
C1529 C 0.4569 0.21079 0.86194 0.0
H1530 H 0.44259 0.1583 0.93889 0.0
C1531 C 0.46952 0.20592 0.81969 0.0
H1532 H 0.43839 0.19692 0.93911 0.0
C1533 C 0.47199 0.1839 0.82 0.0
C1534 C 0.46203 0.16644 0.86255 0.0
H1535 H 0.47626 0.21835 0.78494 0.0
H1536 H 0.48073 0.1799 0.78608 0.0
C1537 C 0.45047 0.17171 0.90586 0.0
C1538 C 0.83823 0.295 0.81424 0.0
C1539 C 0.85613 0.30306 0.85635 0.0
H1540 H 0.80428 0.26422 0.77925 0.0
C1541 C 0.85263 0.28553 0.8973 0.0
H1542 H 0.84018 0.3081 0.78247 0.0
C1543 C 0.83189 0.26041 0.89574 0.0
C1544 C 0.8141 0.25233 0.8534 0.0
H1545 H 0.86617 0.29109 0.93008 0.0
H1546 H 0.82981 0.24727 0.92761 0.0
C1547 C 0.81743 0.26995 0.81285 0.0
C1548 C 0.46772 0.29047 0.30476 0.0
C1549 C 0.45845 0.29926 0.34682 0.0
H1550 H 0.47188 0.25969 0.27266 0.0
C1551 C 0.44628 0.28273 0.39048 0.0
H1552 H 0.4774 0.30264 0.27074 0.0
C1553 C 0.4435 0.25815 0.39207 0.0
C1554 C 0.45279 0.24938 0.35002 0.0
H1555 H 0.43862 0.28863 0.42337 0.0
H1556 H 0.43411 0.24604 0.42641 0.0
C1557 C 0.46493 0.2659 0.30634 0.0
C1558 C 0.76031 0.1868 0.39471 0.0
C1559 C 0.77095 0.20141 0.34808 0.0
H1560 H 0.72685 0.15635 0.43212 0.0
C1561 C 0.75613 0.19451 0.3011 0.0
H1562 H 0.77138 0.19167 0.43143 0.0
C1563 C 0.73089 0.17411 0.30111 0.0
C1564 C 0.71964 0.1602 0.34828 0.0
H1565 H 0.76406 0.20501 0.26417 0.0
H1566 H 0.72006 0.16948 0.26416 0.0
C1567 C 0.73484 0.16646 0.39492 0.0
C1568 C 0.84323 0.55269 0.29685 0.0
C1569 C 0.86083 0.56188 0.33958 0.0
H1570 H 0.80873 0.54885 0.263 0.0
C1571 C 0.85631 0.57444 0.38237 0.0
H1572 H 0.84589 0.54272 0.2635 0.0
C1573 C 0.83474 0.57765 0.38248 0.0
C1574 C 0.81708 0.56835 0.33986 0.0
H1575 H 0.86957 0.58203 0.41569 0.0
H1576 H 0.83181 0.58729 0.4162 0.0
C1577 C 0.82165 0.55586 0.297 0.0
C1578 C 0.60667 0.13889 0.89266 0.0
C1579 C 0.58936 0.12254 0.85365 0.0
H1580 H 0.64388 0.15551 0.92684 0.0
C1581 C 0.59785 0.11019 0.8177 0.0
H1582 H 0.60088 0.14832 0.92199 0.0
C1583 C 0.62277 0.11373 0.82151 0.0
C1584 C 0.63997 0.12986 0.86117 0.0
H1585 H 0.58517 0.09756 0.78684 0.0
H1586 H 0.62828 0.10348 0.79375 0.0
C1587 C 0.63151 0.14259 0.89616 0.0
C1588 C 0.90667 0.51431 0.82525 0.0
C1589 C 0.89562 0.52012 0.86901 0.0
H1590 H 0.91747 0.48831 0.79111 0.0
C1591 C 0.88642 0.50303 0.91254 0.0
H1592 H 0.91416 0.52713 0.79124 0.0
C1593 C 0.88851 0.48087 0.91261 0.0
C1594 C 0.8998 0.47521 0.86912 0.0
H1595 H 0.8775 0.50667 0.94658 0.0
H1596 H 0.88187 0.46854 0.94752 0.0
C1597 C 0.90872 0.49212 0.82529 0.0
C1598 C 0.49891 0.39713 0.81985 0.0
C1599 C 0.49549 0.37816 0.85688 0.0
H1600 H 0.52339 0.43524 0.79111 0.0
C1601 C 0.51536 0.38278 0.89248 0.0
H1602 H 0.48379 0.39363 0.79165 0.0
C1603 C 0.53791 0.40676 0.89311 0.0
C1604 C 0.54099 0.42635 0.85759 0.0
H1605 H 0.51291 0.36825 0.92127 0.0
H1606 H 0.55232 0.4103 0.92316 0.0
C1607 C 0.5215 0.42089 0.81982 0.0
C1608 C 0.55543 0.72308 0.7467 0.0
C1609 C 0.56425 0.71436 0.70372 0.0
H1610 H 0.55112 0.75361 0.77968 0.0
C1611 C 0.57524 0.73062 0.65917 0.0
H1612 H 0.54663 0.71109 0.78141 0.0
C1613 C 0.57741 0.75494 0.65772 0.0
C1614 C 0.56867 0.76367 0.7008 0.0
H1615 H 0.5825 0.72473 0.62554 0.0
H1616 H 0.58597 0.7669 0.62278 0.0
C1617 C 0.55762 0.74739 0.74526 0.0
C1618 C 0.30005 0.8341 0.72491 0.0
C1619 C 0.3049 0.85341 0.68771 0.0
H1620 H 0.27244 0.79745 0.75644 0.0
C1621 C 0.28638 0.8493 0.64886 0.0
H1622 H 0.31426 0.83712 0.75507 0.0
C1623 C 0.26277 0.82656 0.64857 0.0
C1624 C 0.25705 0.80765 0.6878 0.0
H1625 H 0.2901 0.86401 0.61945 0.0
H1626 H 0.24872 0.82412 0.6185 0.0
C1627 C 0.27623 0.81141 0.72522 0.0
C1628 C 0.2059 0.46397 0.6992 0.0
C1629 C 0.20488 0.44029 0.70725 0.0
H1630 H 0.18483 0.4841 0.69391 0.0
C1631 C 0.18082 0.41831 0.71588 0.0
H1632 H 0.2241 0.48129 0.69232 0.0
C1633 C 0.15839 0.41984 0.71607 0.0
C1634 C 0.15925 0.44347 0.70826 0.0
H1635 H 0.17923 0.39982 0.72351 0.0
H1636 H 0.14038 0.40227 0.72197 0.0
C1637 C 0.18334 0.46555 0.69971 0.0
C1638 C 0.41207 0.92409 0.1859 0.0
C1639 C 0.38879 0.90062 0.18798 0.0
H1640 H 0.45304 0.94323 0.1856 0.0
C1641 C 0.38979 0.87782 0.19381 0.0
H1642 H 0.41224 0.94212 0.1824 0.0
C1643 C 0.4135 0.8785 0.19673 0.0
C1644 C 0.43674 0.90203 0.19423 0.0
H1645 H 0.37227 0.85941 0.19538 0.0
H1646 H 0.41361 0.86061 0.20094 0.0
C1647 C 0.43563 0.92478 0.18884 0.0
C1648 C 0.11383 0.49852 0.22563 0.0
C1649 C 0.12658 0.49362 0.18383 0.0
H1650 H 0.10136 0.52357 0.2577 0.0
C1651 C 0.13659 0.51111 0.14108 0.0
H1652 H 0.10561 0.48534 0.2589 0.0
C1653 C 0.13391 0.53294 0.14015 0.0
C1654 C 0.12116 0.53782 0.18197 0.0
H1655 H 0.14674 0.50811 0.10852 0.0
H1656 H 0.14142 0.54574 0.10607 0.0
C1657 C 0.1112 0.52036 0.22476 0.0
C1658 C 0.48973 0.60235 0.14157 0.0
C1659 C 0.48029 0.58877 0.18982 0.0
H1660 H 0.51988 0.63601 0.10342 0.0
C1661 C 0.49323 0.59989 0.23792 0.0
H1662 H 0.48026 0.59396 0.10392 0.0
C1663 C 0.51544 0.62411 0.2376 0.0
C1664 C 0.52531 0.6372 0.18908 0.0
H1665 H 0.4864 0.58964 0.27546 0.0
H1666 H 0.52556 0.63221 0.27481 0.0
C1667 C 0.51228 0.62624 0.14116 0.0
C1668 C 0.14931 0.62162 0.66515 0.0
C1669 C 0.13565 0.6304 0.69647 0.0
H1670 H 0.15463 0.59027 0.64273 0.0
C1671 C 0.11777 0.61338 0.73402 0.0
H1672 H 0.1637 0.63406 0.63664 0.0
C1673 C 0.11311 0.58814 0.7387 0.0
C1674 C 0.12605 0.57912 0.70569 0.0
H1675 H 0.10688 0.61928 0.75901 0.0
H1676 H 0.09898 0.57554 0.76759 0.0
C1677 C 0.1445 0.59641 0.66949 0.0
C1678 C 0.42784 0.52734 0.73244 0.0
C1679 C 0.43859 0.54241 0.68631 0.0
H1680 H 0.39453 0.49597 0.76851 0.0
C1681 C 0.4239 0.53561 0.6391 0.0
H1682 H 0.43874 0.53202 0.76937 0.0
C1683 C 0.39886 0.51481 0.6383 0.0
C1684 C 0.38761 0.50026 0.68479 0.0
H1685 H 0.43185 0.54631 0.60241 0.0
H1686 H 0.38821 0.51025 0.6011 0.0
C1687 C 0.40257 0.50654 0.73178 0.0
C1688 C 0.47828 0.88109 0.64046 0.0
C1689 C 0.47297 0.89228 0.68471 0.0
H1690 H 0.50342 0.86949 0.60508 0.0
C1691 C 0.48979 0.89996 0.72883 0.0
H1692 H 0.46607 0.8753 0.60534 0.0
C1693 C 0.51157 0.89707 0.72826 0.0
C1694 C 0.51718 0.88634 0.68358 0.0
H1695 H 0.4863 0.90853 0.76375 0.0
H1696 H 0.52429 0.90381 0.76253 0.0
C1697 C 0.50005 0.87816 0.63991 0.0
C1698 C 0.27223 0.47478 0.19719 0.0
C1699 C 0.25182 0.44925 0.19808 0.0
H1700 H 0.31302 0.49997 0.19836 0.0
C1701 C 0.25771 0.42924 0.19545 0.0
H1702 H 0.26859 0.49072 0.19764 0.0
C1703 C 0.28334 0.43471 0.19448 0.0
C1704 C 0.30347 0.46019 0.19705 0.0
H1705 H 0.2426 0.40933 0.19661 0.0
H1706 H 0.28748 0.41909 0.19438 0.0
C1707 C 0.29769 0.48014 0.19727 0.0
C1708 C 0.55193 0.83024 0.24828 0.0
C1709 C 0.5606 0.84796 0.20573 0.0
H1710 H 0.5495 0.7963 0.28187 0.0
C1711 C 0.57293 0.84368 0.16213 0.0
H1712 H 0.54207 0.83265 0.28219 0.0
C1713 C 0.57691 0.82258 0.16161 0.0
C1714 C 0.56859 0.80509 0.20458 0.0
H1715 H 0.58003 0.85695 0.1288 0.0
H1716 H 0.58671 0.82007 0.12765 0.0
C1717 C 0.55583 0.80909 0.24768 0.0
C1718 C 0.17787 0.73392 0.15846 0.0
C1719 C 0.17811 0.71684 0.19691 0.0
H1720 H 0.19727 0.77182 0.12505 0.0
C1721 C 0.19956 0.72607 0.23132 0.0
H1722 H 0.16195 0.72796 0.13108 0.0
C1723 C 0.21973 0.75139 0.22808 0.0
C1724 C 0.21935 0.76846 0.19015 0.0
H1725 H 0.20104 0.71396 0.26136 0.0
H1726 H 0.23529 0.75774 0.25669 0.0
C1727 C 0.19822 0.7593 0.15505 0.0
C1728 C 0.25236 0.26071 0.23929 0.0
C1729 C 0.26132 0.24347 0.22985 0.0
H1730 H 0.23951 0.27788 0.29824 0.0
C1731 C 0.26949 0.23467 0.27369 0.0
H1732 H 0.24522 0.26715 0.20636 0.0
C1733 C 0.26592 0.24051 0.32628 0.0
C1734 C 0.2544 0.25553 0.33594 0.0
H1735 H 0.27585 0.22082 0.26754 0.0
H1736 H 0.26939 0.23087 0.3592 0.0
C1737 C 0.24913 0.26687 0.29201 0.0
C1738 C 0.75873 0.99684 0.24311 0.0
C1739 C 0.77653 0.02264 0.23195 0.0
H1740 H 0.74195 0.96762 0.30348 0.0
C1741 C 0.78728 0.03989 0.27507 0.0
H1742 H 0.75079 0.98299 0.21077 0.0
C1743 C 0.7828 0.031 0.32809 0.0
C1744 C 0.76699 1.00478 0.33907 0.0
H1745 H 0.80154 0.05976 0.26769 0.0
H1746 H 0.79378 0.04419 0.36 0.0
C1747 C 0.75376 0.98804 0.29634 0.0
C1748 C 0.99415 0.75012 0.31945 0.0
C1749 C 0.02052 0.76423 0.3312 0.0
H1750 H 0.96527 0.73685 0.25812 0.0
C1751 C 0.03824 0.77153 0.2888 0.0
H1752 H 0.98011 0.74499 0.35125 0.0
C1753 C 0.02978 0.76759 0.23546 0.0
C1754 C 1.00344 0.75562 0.22367 0.0
H1755 H 0.05866 0.78303 0.29665 0.0
H1756 H 0.04386 0.77614 0.20366 0.0
C1757 C 0.98567 0.74553 0.26604 0.0
C1758 C 0.77602 0.75561 0.81365 0.0
C1759 C 0.76475 0.77087 0.82302 0.0
H1760 H 0.79117 0.74057 0.75484 0.0
C1761 C 0.75517 0.7782 0.77913 0.0
H1762 H 0.78432 0.75043 0.84658 0.0
C1763 C 0.75942 0.7729 0.72653 0.0
C1764 C 0.77301 0.75985 0.717 0.0
H1765 H 0.7471 0.79065 0.78518 0.0
H1766 H 0.75466 0.78148 0.6935 0.0
C1767 C 0.77993 0.74996 0.76102 0.0
C1768 C 0.26659 0.02316 0.75356 0.0
C1769 C 0.25243 0.00736 0.71033 0.0
H1770 H 0.26984 0.02723 0.83935 0.0
C1771 C 0.23472 0.98145 0.72021 0.0
H1772 H 0.27984 0.0434 0.74713 0.0
C1773 C 0.22935 0.97214 0.77278 0.0
C1774 C 0.24128 0.98867 0.81645 0.0
H1775 H 0.22307 0.96909 0.68784 0.0
H1776 H 0.21376 0.95274 0.77948 0.0
C1777 C 0.26089 0.01392 0.80642 0.0
C1778 C 0.99606 0.24768 0.81951 0.0
C1779 C 0.02218 0.25857 0.83256 0.0
H1780 H 0.96773 0.2326 0.75721 0.0
C1781 C 0.04038 0.26719 0.7909 0.0
H1782 H 0.98163 0.24025 0.85084 0.0
C1783 C 0.0324 0.26204 0.7373 0.0
C1784 C 1.00613 0.24891 0.72455 0.0
H1785 H 0.06059 0.27508 0.79988 0.0
H1786 H 0.0466 0.26597 0.70642 0.0
C1787 C 0.98812 0.24325 0.76583 0.0
C1788 C 0.91633 0.59503 0.55978 0.0
C1789 C 0.92904 0.58097 0.55235 0.0
H1790 H 0.89876 0.6086 0.61618 0.0
C1791 C 0.93849 0.57435 0.59758 0.0
H1792 H 0.90808 0.59956 0.52576 0.0
C1793 C 0.93288 0.57924 0.64945 0.0
C1794 C 0.91798 0.59107 0.65681 0.0
H1795 H 0.94757 0.56273 0.59297 0.0
H1796 H 0.93776 0.57128 0.68344 0.0
C1797 C 0.91097 0.60016 0.61162 0.0
C1798 C 0.42223 0.32345 0.56546 0.0
C1799 C 0.43735 0.34996 0.55605 0.0
H1800 H 0.40717 0.29336 0.62433 0.0
C1801 C 0.44482 0.36684 0.59998 0.0
H1802 H 0.417 0.31001 0.53246 0.0
C1803 C 0.43976 0.35733 0.6525 0.0
C1804 C 0.42664 0.33077 0.66206 0.0
H1805 H 0.45717 0.3873 0.59394 0.0
H1806 H 0.44827 0.37068 0.68554 0.0
C1807 C 0.41665 0.31393 0.61812 0.0
C1808 C 0.70917 0.11537 0.61717 0.0
C1809 C 0.69254 0.10584 0.66158 0.0
H1810 H 0.7124 0.1201 0.53171 0.0
C1811 C 0.66633 0.08877 0.65243 0.0
H1812 H 0.72936 0.12908 0.62299 0.0
C1813 C 0.65668 0.08325 0.59981 0.0
C1814 C 0.67301 0.095 0.55561 0.0
H1815 H 0.65297 0.08181 0.68575 0.0
H1816 H 0.63607 0.07207 0.59407 0.0
C1817 C 0.69949 0.11017 0.56474 0.0
C1818 C 0.44767 0.09106 0.15388 0.0
C1819 C 0.43361 0.10361 0.16351 0.0
H1820 H 0.46543 0.07889 0.09477 0.0
C1821 C 0.42258 0.10937 0.1198 0.0
H1822 H 0.45712 0.08726 0.18672 0.0
C1823 C 0.42777 0.10508 0.06713 0.0
C1824 C 0.44365 0.09452 0.05744 0.0
H1825 H 0.41241 0.11985 0.12608 0.0
H1826 H 0.42142 0.11227 0.03413 0.0
C1827 C 0.45247 0.08634 0.10122 0.0
C1828 C 0.91558 0.32298 0.13597 0.0
C1829 C 0.91629 0.33815 0.17972 0.0
H1830 H 0.91579 0.31983 0.05001 0.0
C1831 C 0.92351 0.36391 0.17082 0.0
H1832 H 0.90933 0.30283 0.14169 0.0
C1833 C 0.92746 0.37364 0.11868 0.0
C1834 C 0.92395 0.35771 0.07444 0.0
H1835 H 0.92352 0.37576 0.20363 0.0
H1836 H 0.93065 0.39288 0.11269 0.0
C1837 C 0.91923 0.33267 0.08347 0.0
C1838 C 0.64749 0.55693 0.10371 0.0
C1839 C 0.66419 0.56824 0.05995 0.0
H1840 H 0.64404 0.55127 0.18886 0.0
C1841 C 0.68976 0.58712 0.07 0.0
H1842 H 0.62781 0.54193 0.09713 0.0
C1843 C 0.69896 0.59283 0.12297 0.0
C1844 C 0.68278 0.57949 0.16643 0.0
H1845 H 0.70319 0.59559 0.03708 0.0
H1846 H 0.71932 0.60556 0.12949 0.0
C1847 C 0.65672 0.56236 0.15637 0.0
C1848 C 0.59479 0.90802 0.98859 0.0
C1849 C 0.57959 0.91946 0.99684 0.0
H1850 H 0.60945 0.89189 0.93117 0.0
C1851 C 0.57196 0.92828 0.95214 0.0
H1852 H 0.60016 0.90028 1.02222 0.0
C1853 C 0.57704 0.92325 0.89997 0.0
C1854 C 0.59005 0.90955 0.89174 0.0
H1855 H 0.55954 0.93643 0.95742 0.0
H1856 H 0.56834 0.92755 0.86643 0.0
C1857 C 0.6001 0.90323 0.93639 0.0
C1858 C 0.12158 0.69439 0.98912 0.0
C1859 C 0.10626 0.66802 0.99895 0.0
H1860 H 0.14028 0.72376 0.92988 0.0
C1861 C 0.09395 0.65141 0.95546 0.0
H1862 H 0.13191 0.70744 1.02169 0.0
C1863 C 0.09901 0.66069 0.9026 0.0
C1864 C 0.11629 0.68674 0.89271 0.0
H1865 H 0.08268 0.63087 0.96191 0.0
H1866 H 0.09157 0.64715 0.86965 0.0
C1867 C 0.12643 0.70368 0.93647 0.0
C1868 C 0.32586 0.42137 0.93167 0.0
C1869 C 0.34213 0.43561 0.88902 0.0
H1870 H 0.32104 0.41752 1.01737 0.0
C1871 C 0.36792 0.45331 0.90013 0.0
H1872 H 0.30569 0.4081 0.92435 0.0
C1873 C 0.37674 0.45835 0.9531 0.0
C1874 C 0.35987 0.44611 0.99617 0.0
H1875 H 0.38065 0.46502 0.86828 0.0
H1876 H 0.39616 0.4737 0.96046 0.0
C1877 C 0.33462 0.42674 0.98499 0.0
C1878 C 0.08437 0.44107 0.46277 0.0
C1879 C 0.09156 0.4306 0.50525 0.0
H1880 H 0.08684 0.44851 0.37817 0.0
C1881 C 0.1015 0.41438 0.49325 0.0
H1882 H 0.07741 0.45427 0.47098 0.0
C1883 C 0.10627 0.41054 0.43991 0.0
C1884 C 0.1018 0.42339 0.39786 0.0
H1885 H 0.10793 0.40674 0.52524 0.0
H1886 H 0.11628 0.40001 0.43222 0.0
C1887 C 0.08972 0.43773 0.40955 0.0
C1888 C 0.58359 0.65476 0.39843 0.0
C1889 C 0.59755 0.68125 0.38829 0.0
H1890 H 0.5655 0.62519 0.45761 0.0
C1891 C 0.60835 0.69818 0.43192 0.0
H1892 H 0.57442 0.64136 0.36572 0.0
C1893 C 0.60275 0.68894 0.48482 0.0
C1894 C 0.58677 0.6626 0.49481 0.0
H1895 H 0.61851 0.71874 0.42533 0.0
H1896 H 0.60866 0.7026 0.51755 0.0
C1897 C 0.57848 0.64551 0.45116 0.0
C1898 C 0.3185 0.90966 0.42552 0.0
C1899 C 0.33685 0.91833 0.38421 0.0
H1900 H 0.31173 0.9031 0.51007 0.0
C1901 C 0.36304 0.9324 0.39778 0.0
H1902 H 0.29823 0.89813 0.41621 0.0
C1903 C 0.37078 0.93594 0.45169 0.0
C1904 C 0.35243 0.92467 0.49275 0.0
H1905 H 0.37756 0.9386 0.36673 0.0
H1906 H 0.39109 0.94488 0.46081 0.0
C1907 C 0.32623 0.91245 0.4793 0.0
C1908 C 0.33891 0.24168 0.99514 0.0
C1909 C 0.3213 0.25003 0.98389 0.0
H1910 H 0.37411 0.24294 0.97333 0.0
C1911 C 0.32523 0.26491 0.93737 0.0
H1912 H 0.33651 0.23012 0.0302 0.0
C1913 C 0.34649 0.27164 0.90361 0.0
C1914 C 0.36458 0.26412 0.9164 0.0
H1915 H 0.31188 0.27144 0.9271 0.0
H1916 H 0.34936 0.2836 0.86891 0.0
C1917 C 0.36043 0.24895 0.96232 0.0
C1918 C 0.7837 0.10493 0.99104 0.0
C1919 C 0.76967 0.07797 0.9902 0.0
H1920 H 0.78757 0.14009 0.96106 0.0
C1921 C 0.74929 0.06588 0.95297 0.0
H1922 H 0.79961 0.115 1.01854 0.0
C1923 C 0.74269 0.08042 0.91877 0.0
C1924 C 0.75608 0.10735 0.92164 0.0
H1925 H 0.7382 0.04513 0.95064 0.0
H1926 H 0.72641 0.0706 0.89203 0.0
C1927 C 0.77685 0.11934 0.95772 0.0
C1928 C 0.91606 0.67323 0.88646 0.0
C1929 C 0.92545 0.65636 0.89633 0.0
H1930 H 0.91569 0.70733 0.91052 0.0
C1931 C 0.94073 0.66049 0.94229 0.0
H1932 H 0.90411 0.67057 0.85184 0.0
C1933 C 0.94673 0.68121 0.97706 0.0
C1934 C 0.93808 0.69855 0.9658 0.0
H1935 H 0.94802 0.64766 0.95149 0.0
H1936 H 0.95892 0.68423 1.01146 0.0
C1937 C 0.9226 0.69423 0.92029 0.0
C1938 C 0.27682 0.32718 0.61819 0.0
C1939 C 0.26081 0.32208 0.57296 0.0
H1940 H 0.29727 0.35305 0.68339 0.0
C1941 C 0.25253 0.3396 0.56053 0.0
H1942 H 0.28339 0.31398 0.62934 0.0
C1943 C 0.26081 0.36203 0.5909 0.0
C1944 C 0.27711 0.3674 0.63552 0.0
H1945 H 0.24019 0.33639 0.52636 0.0
H1946 H 0.25454 0.3754 0.57908 0.0
C1947 C 0.28463 0.34944 0.64953 0.0
C1948 C 0.67354 0.91 0.66394 0.0
C1949 C 0.65671 0.91931 0.65282 0.0
H1950 H 0.70875 0.91089 0.64459 0.0
C1951 C 0.66262 0.93631 0.6091 0.0
H1952 H 0.6697 0.89683 0.69676 0.0
C1953 C 0.68494 0.94399 0.57795 0.0
C1954 C 0.70217 0.93533 0.59063 0.0
H1955 H 0.64997 0.9437 0.59889 0.0
H1956 H 0.68914 0.95735 0.54523 0.0
C1957 C 0.69601 0.91811 0.63379 0.0
C1958 C 0.10499 0.76688 0.55558 0.0
C1959 C 0.07995 0.75949 0.57261 0.0
H1960 H 0.13928 0.7652 0.56881 0.0
C1961 C 0.07088 0.74486 0.62016 0.0
H1962 H 0.11275 0.77814 0.51954 0.0
C1963 C 0.08641 0.73763 0.64939 0.0
C1964 C 0.11117 0.74444 0.63112 0.0
H1965 H 0.05175 0.739 0.63487 0.0
H1966 H 0.07881 0.72615 0.68528 0.0
C1967 C 0.12022 0.75934 0.58406 0.0
C1968 C 0.69834 0.74987 0.11312 0.0
C1969 C 0.7021 0.76441 0.06612 0.0
H1970 H 0.67442 0.73155 0.18206 0.0
C1971 C 0.68421 0.77232 0.05423 0.0
H1972 H 0.71189 0.74367 0.12389 0.0
C1973 C 0.66269 0.76508 0.08706 0.0
C1974 C 0.65873 0.75029 0.13361 0.0
H1975 H 0.68645 0.78359 1.01874 0.0
H1976 H 0.64892 0.7709 0.07567 0.0
C1977 C 0.67705 0.74314 0.14685 0.0
C1978 C 0.27744 0.93717 0.13569 0.0
C1979 C 0.26818 0.91083 0.12803 0.0
H1980 H 0.27773 0.97108 0.10719 0.0
C1981 C 0.25035 0.89809 0.08663 0.0
H1982 H 0.29145 0.94754 0.16673 0.0
C1983 C 0.24218 0.91136 0.0531 0.0
C1984 C 0.25227 0.93795 0.05898 0.0
H1985 H 0.24298 0.87779 0.07961 0.0
H1986 H 0.22858 0.90092 1.02146 0.0
C1987 C 0.26979 0.95065 0.1011 0.0
C1988 C 0.09912 0.31946 0.14039 0.0
C1989 C 0.08494 0.31571 0.09301 0.0
H1990 H 0.11659 0.34286 0.20972 0.0
C1991 C 0.0777 0.3339 0.07927 0.0
H1992 H 0.10497 0.30576 0.15211 0.0
C1993 C 0.08377 0.35489 0.11329 0.0
C1994 C 0.09775 0.35845 0.16106 0.0
H1995 H 0.06654 0.33138 0.04336 0.0
H1996 H 0.07758 0.36839 0.10211 0.0
C1997 C 0.10574 0.34071 0.17355 0.0
C1998 C 0.74138 0.66424 0.40587 0.0
C1999 C 0.7503 0.64729 0.41912 0.0
H2000 H 0.74118 0.699 0.42603 0.0
C2001 C 0.76753 0.65378 0.46242 0.0
H2002 H 0.72802 0.65978 0.37302 0.0
C2003 C 0.77539 0.67631 0.49219 0.0
C2004 C 0.76578 0.69284 0.48052 0.0
H2005 H 0.77494 0.64126 0.47364 0.0
H2006 H 0.78854 0.68041 0.52523 0.0
C2007 C 0.74879 0.68659 0.43663 0.0
C2008 C 0.35842 0.07657 0.44226 0.0
C2009 C 0.3641 0.09318 0.39795 0.0
H2010 H 0.33211 0.05591 0.50663 0.0
C2011 C 0.34702 0.10208 0.38597 0.0
H2012 H 0.37128 0.06953 0.4531 0.0
C2013 C 0.32453 0.09397 0.41601 0.0
C2014 C 0.31864 0.07717 0.45987 0.0
H2015 H 0.35071 0.11496 0.35262 0.0
H2016 H 0.31161 0.1009 0.40469 0.0
C2017 C 0.33609 0.0689 0.47329 0.0
C2018 C 0.90766 0.25727 0.47896 0.0
C2019 C 0.91629 0.27033 0.42971 0.0
H2020 H 0.91493 0.23895 0.54499 0.0
C2021 C 0.93996 0.27463 0.40937 0.0
H2022 H 0.88941 0.2534 0.49576 0.0
C2023 C 0.95492 0.26671 0.43846 0.0
C2024 C 0.94625 0.25375 0.48788 0.0
H2025 H 0.94718 0.2846 0.37168 0.0
H2026 H 0.97322 0.27058 0.42202 0.0
C2027 C 0.92226 0.24887 0.50729 0.0
C2028 C 0.03471 0.5857 0.29622 0.0
C2029 C 0.04171 0.60385 0.25466 0.0
H2030 H 1.00787 0.56417 0.35828 0.0
C2031 C 0.02551 0.61392 0.24361 0.0
H2032 H 0.04671 0.57745 0.30568 0.0
C2033 C 1.00337 0.60671 0.27499 0.0
C2034 C 0.99667 0.58884 0.31727 0.0
H2035 H 0.03044 0.62804 0.21218 0.0
H2036 H 0.99153 0.61519 0.26618 0.0
C2037 C 0.01242 0.57809 0.32661 0.0
C2038 C 0.43451 0.45138 0.30078 0.0
C2039 C 0.41813 0.44154 0.25598 0.0
H2040 H 0.45402 0.44439 0.36469 0.0
C2041 C 0.40923 0.4159 0.24111 0.0
H2042 H 0.44179 0.47109 0.31334 0.0
C2043 C 0.41579 0.40025 0.27175 0.0
C2044 C 0.43187 0.41007 0.31721 0.0
H2045 H 0.39644 0.40767 0.20716 0.0
H2046 H 0.40821 0.38042 0.25986 0.0
C2047 C 0.44151 0.43601 0.33047 0.0
C2048 C 0.57989 1.00162 0.22755 0.0
C2049 C 0.5901 0.98542 0.23716 0.0
H2050 H 0.57963 0.03604 0.24886 0.0
C2051 C 0.60754 0.99161 0.28017 0.0
H2052 H 0.56628 0.9975 0.19542 0.0
C2053 C 0.61479 0.01359 0.31208 0.0
C2054 C 0.60521 0.03021 0.3009 0.0
H2055 H 0.6156 0.97943 0.28925 0.0
H2056 H 0.6285 0.01803 0.34422 0.0
C2057 C 0.58755 0.02378 0.25846 0.0
C2058 C 0.42 0.9865 0.80058 0.0
C2059 C 0.42024 0.98518 0.74407 0.0
H2060 H 0.43186 0.01036 0.87086 0.0
C2061 C 0.4327 0.00827 0.71518 0.0
H2062 H 0.41059 0.96915 0.82441 0.0
C2063 C 0.44482 0.03197 0.74207 0.0
C2064 C 0.4449 0.03325 0.79861 0.0
H2065 H 0.43333 0.00806 0.6718 0.0
H2066 H 0.45442 0.04933 0.71831 0.0
C2067 C 0.43219 0.01018 0.82746 0.0
C2068 C 0.02707 0.44906 0.80785 0.0
C2069 C 0.03146 0.43701 0.76395 0.0
H2070 H 1.00321 0.44533 0.87509 0.0
C2071 C 0.01395 0.411 0.754 0.0
H2072 H 0.04035 0.46909 0.81663 0.0
C2073 C 0.99299 0.39711 0.78867 0.0
C2074 C 0.98886 0.40913 0.8332 0.0
H2075 H 0.01709 0.40117 0.72094 0.0
H2076 H 0.98005 0.37694 0.78064 0.0
C2077 C 1.00586 0.43541 0.84158 0.0
C2078 C 0.61086 0.61515 0.77742 0.0
C2079 C 0.59183 0.60444 0.73705 0.0
H2080 H 0.6318 0.60822 0.83942 0.0
C2081 C 0.5782 0.5776 0.73143 0.0
H2082 H 0.6216 0.63574 0.78344 0.0
C2083 C 0.58407 0.56204 0.7633 0.0
C2084 C 0.6035 0.57267 0.80255 0.0
H2085 H 0.56329 0.5685 0.70147 0.0
H2086 H 0.57365 0.54149 0.75635 0.0
C2087 C 0.61652 0.59941 0.81009 0.0
loop_
_geom_bond_atom_site_label_1
_geom_bond_atom_site_label_2
_geom_bond_distance
_geom_bond_site_symmetry_2
_ccdc_geom_bond_type
C0 C1 1.351 . S
C0 N3 1.368 . S
C0 H5 0.931 . S
C1 C0 1.351 . S
C1 N2 1.373 . S
C1 H29 0.930 . S
N2 C1 1.373 . S
N2 C4 1.340 . S
N3 C0 1.368 . S
N3 C4 1.321 . S
N3 Co6 2.135 . S
C4 N2 1.340 . S
C4 N3 1.321 . S
C4 H28 0.930 . S
H5 C0 0.931 . S
Co6 N3 2.135 . S
Co6 N9 2.121 . S
Co6 O14 2.055 . S
Co6 O17 2.039 . S
Co6 N20 2.140 . S
C7 O8 1.227 . S
C7 O17 1.265 1_556 S
O8 C7 1.227 . S
N9 Co6 2.121 . S
N9 C11 1.375 1_554 S
N9 C12 1.313 . S
C10 C11 1.338 . S
C10 N13 1.377 . S
C10 H30 0.930 . S
C11 N9 1.375 1_556 S
C11 C10 1.338 . S
C11 H15 0.931 . S
C12 N9 1.313 . S
C12 N13 1.344 1_554 S
C12 H16 0.930 . S
N13 C10 1.377 . S
N13 C12 1.344 1_556 S
O14 Co6 2.055 . S
O14 C18 1.253 . S
H15 C11 0.931 . S
H16 C12 0.930 . S
O17 Co6 2.039 . S
O17 C7 1.265 1_554 S
C18 O14 1.253 . S
C18 O19 1.227 . S
O19 C18 1.227 . S
N20 Co6 2.140 . S
N20 C23 1.346 . S
N20 C24 1.345 . S
C21 C22 1.387 . S
C21 C25 1.391 . S
C22 C21 1.387 . S
C22 C23 1.369 . S
C22 H31 0.929 . S
C23 N20 1.346 . S
C23 C22 1.369 . S
C23 H26 0.928 . S
C24 N20 1.345 . S
C24 C25 1.371 . S
C24 H27 0.931 . S
C25 C21 1.391 . S
C25 C24 1.371 . S
C25 H32 0.930 . S
H26 C23 0.928 . S
H27 C24 0.931 . S
H28 C4 0.930 . S
H29 C1 0.930 . S
H30 C10 0.930 . S
H31 C22 0.929 . S
H32 C25 0.930 . S
C33 C34 1.351 . S
C33 N36 1.368 . S
C33 H38 0.931 . S
C34 C33 1.351 . S
C34 N35 1.373 . S
C34 H62 0.930 . S
N35 C34 1.373 . S
N35 C37 1.340 . S
N36 C33 1.368 . S
N36 C37 1.321 . S
N36 Co39 2.135 . S
C37 N35 1.340 . S
C37 N36 1.321 . S
C37 H61 0.930 . S
H38 C33 0.931 . S
Co39 N36 2.135 . S
Co39 N42 2.121 . S
Co39 O47 2.055 . S
Co39 O50 2.039 . S
Co39 N53 2.140 . S
C40 O41 1.227 . S
C40 O50 1.265 1_556 S
O41 C40 1.227 . S
N42 Co39 2.121 . S
N42 C44 1.375 1_554 S
N42 C45 1.313 . S
C43 C44 1.338 . S
C43 N46 1.377 1_545 S
C43 H63 0.930 . S
C44 N42 1.375 1_556 S
C44 C43 1.338 . S
C44 H48 0.931 . S
C45 N42 1.313 . S
C45 N46 1.344 1_544 S
C45 H49 0.930 . S
N46 C43 1.377 1_565 S
N46 C45 1.344 1_566 S
O47 Co39 2.055 . S
O47 C51 1.253 . S
H48 C44 0.931 . S
H49 C45 0.930 . S
O50 Co39 2.039 . S
O50 C40 1.265 1_554 S
C51 O47 1.253 . S
C51 O52 1.227 . S
O52 C51 1.227 . S
N53 Co39 2.140 . S
N53 C56 1.346 . S
N53 C57 1.345 . S
C54 C55 1.387 . S
C54 C58 1.391 . S
C55 C54 1.387 . S
C55 C56 1.369 . S
C55 H64 0.929 . S
C56 N53 1.346 . S
C56 C55 1.369 . S
C56 H59 0.928 . S
C57 N53 1.345 . S
C57 C58 1.371 . S
C57 H60 0.931 . S
C58 C54 1.391 . S
C58 C57 1.371 . S
C58 H65 0.930 . S
H59 C56 0.928 . S
H60 C57 0.931 . S
H61 C37 0.930 . S
H62 C34 0.930 . S
H63 C43 0.930 . S
H64 C55 0.929 . S
H65 C58 0.930 . S
C66 C67 1.351 . S
C66 N69 1.368 . S
C66 H71 0.931 . S
C67 C66 1.351 . S
C67 N68 1.373 . S
C67 H95 0.930 . S
N68 C67 1.373 . S
N68 C70 1.340 . S
N69 C66 1.368 . S
N69 C70 1.321 . S
N69 Co72 2.135 . S
C70 N68 1.340 . S
C70 N69 1.321 . S
C70 H94 0.930 . S
H71 C66 0.931 . S
Co72 N69 2.135 . S
Co72 N75 2.121 . S
Co72 O80 2.055 . S
Co72 O83 2.039 . S
Co72 N86 2.140 . S
C73 O74 1.227 . S
C73 O83 1.265 1_556 S
O74 C73 1.227 . S
N75 Co72 2.121 . S
N75 C77 1.375 1_554 S
N75 C78 1.313 . S
C76 C77 1.338 . S
C76 N79 1.377 1_655 S
C76 H96 0.930 . S
C77 N75 1.375 1_556 S
C77 C76 1.338 . S
C77 H81 0.931 . S
C78 N75 1.313 . S
C78 N79 1.344 1_654 S
C78 H82 0.930 . S
N79 C76 1.377 1_455 S
N79 C78 1.344 1_456 S
O80 Co72 2.055 . S
O80 C84 1.253 . S
H81 C77 0.931 . S
H82 C78 0.930 . S
O83 Co72 2.039 . S
O83 C73 1.265 1_554 S
C84 O80 1.253 . S
C84 O85 1.227 . S
O85 C84 1.227 . S
N86 Co72 2.140 . S
N86 C89 1.346 . S
N86 C90 1.345 . S
C87 C88 1.387 . S
C87 C91 1.391 . S
C88 C87 1.387 . S
C88 C89 1.369 . S
C88 H97 0.929 . S
C89 N86 1.346 . S
C89 C88 1.369 . S
C89 H92 0.928 . S
C90 N86 1.345 . S
C90 C91 1.371 . S
C90 H93 0.931 . S
C91 C87 1.391 . S
C91 C90 1.371 . S
C91 H98 0.930 . S
H92 C89 0.928 . S
H93 C90 0.931 . S
H94 C70 0.930 . S
H95 C67 0.930 . S
H96 C76 0.930 . S
H97 C88 0.929 . S
H98 C91 0.930 . S
C99 C100 1.351 . S
C99 N102 1.368 . S
C99 H104 0.931 . S
C100 C99 1.351 . S
C100 N101 1.373 . S
C100 H128 0.930 . S
N101 C100 1.373 . S
N101 C103 1.340 . S
N102 C99 1.368 . S
N102 C103 1.321 . S
N102 Co105 2.135 . S
C103 N101 1.340 . S
C103 N102 1.321 . S
C103 H127 0.930 . S
H104 C99 0.931 . S
Co105 N102 2.135 . S
Co105 N108 2.121 . S
Co105 O113 2.055 . S
Co105 O116 2.039 . S
Co105 N119 2.140 . S
C106 O107 1.227 . S
C106 O116 1.265 . S
O107 C106 1.227 . S
N108 Co105 2.121 . S
N108 C110 1.375 . S
N108 C111 1.313 . S
C109 C110 1.338 . S
C109 N112 1.377 . S
C109 H129 0.930 . S
C110 N108 1.375 . S
C110 C109 1.338 . S
C110 H114 0.931 . S
C111 N108 1.313 . S
C111 N112 1.344 . S
C111 H115 0.930 . S
N112 C109 1.377 . S
N112 C111 1.344 . S
O113 Co105 2.055 . S
O113 C117 1.253 . S
H114 C110 0.931 . S
H115 C111 0.930 . S
O116 Co105 2.039 . S
O116 C106 1.265 . S
C117 O113 1.253 . S
C117 O118 1.227 . S
O118 C117 1.227 . S
N119 Co105 2.140 . S
N119 C122 1.346 . S
N119 C123 1.345 . S
C120 C121 1.387 . S
C120 C124 1.391 . S
C121 C120 1.387 . S
C121 C122 1.369 . S
C121 H130 0.929 . S
C122 N119 1.346 . S
C122 C121 1.369 . S
C122 H125 0.928 . S
C123 N119 1.345 . S
C123 C124 1.371 . S
C123 H126 0.931 . S
C124 C120 1.391 . S
C124 C123 1.371 . S
C124 H131 0.930 . S
H125 C122 0.928 . S
H126 C123 0.931 . S
H127 C103 0.930 . S
H128 C100 0.930 . S
H129 C109 0.930 . S
H130 C121 0.929 . S
H131 C124 0.930 . S
C132 C133 1.351 . S
C132 N135 1.368 . S
C132 H137 0.931 . S
C133 C132 1.351 . S
C133 N134 1.373 . S
C133 H161 0.930 . S
N134 C133 1.373 . S
N134 C136 1.340 . S
N135 C132 1.368 . S
N135 C136 1.321 . S
N135 Co138 2.135 . S
C136 N134 1.340 . S
C136 N135 1.321 . S
C136 H160 0.930 . S
H137 C132 0.931 . S
Co138 N135 2.135 . S
Co138 N141 2.121 . S
Co138 O146 2.055 . S
Co138 O149 2.039 . S
Co138 N152 2.140 . S
C139 O140 1.227 . S
C139 O149 1.265 . S
O140 C139 1.227 . S
N141 Co138 2.121 . S
N141 C143 1.375 . S
N141 C144 1.313 . S
C142 C143 1.338 . S
C142 N145 1.377 1_565 S
C142 H162 0.930 . S
C143 N141 1.375 . S
C143 C142 1.338 . S
C143 H147 0.931 . S
C144 N141 1.313 . S
C144 N145 1.344 1_565 S
C144 H148 0.930 . S
N145 C142 1.377 1_545 S
N145 C144 1.344 1_545 S
O146 Co138 2.055 . S
O146 C150 1.253 . S
H147 C143 0.931 . S
H148 C144 0.930 . S
O149 Co138 2.039 . S
O149 C139 1.265 . S
C150 O146 1.253 . S
C150 O151 1.227 . S
O151 C150 1.227 . S
N152 Co138 2.140 . S
N152 C155 1.346 . S
N152 C156 1.345 . S
C153 C154 1.387 . S
C153 C157 1.391 . S
C154 C153 1.387 . S
C154 C155 1.369 . S
C154 H163 0.929 . S
C155 N152 1.346 . S
C155 C154 1.369 . S
C155 H158 0.928 . S
C156 N152 1.345 . S
C156 C157 1.371 . S
C156 H159 0.931 . S
C157 C153 1.391 . S
C157 C156 1.371 . S
C157 H164 0.930 . S
H158 C155 0.928 . S
H159 C156 0.931 . S
H160 C136 0.930 . S
H161 C133 0.930 . S
H162 C142 0.930 . S
H163 C154 0.929 . S
H164 C157 0.930 . S
C165 C166 1.351 . S
C165 N168 1.368 . S
C165 H170 0.931 . S
C166 C165 1.351 . S
C166 N167 1.373 . S
C166 H194 0.930 . S
N167 C166 1.373 . S
N167 C169 1.340 . S
N168 C165 1.368 . S
N168 C169 1.321 . S
N168 Co171 2.135 . S
C169 N167 1.340 . S
C169 N168 1.321 . S
C169 H193 0.930 . S
H170 C165 0.931 . S
Co171 N168 2.135 . S
Co171 N174 2.121 . S
Co171 O179 2.055 . S
Co171 O182 2.039 . S
Co171 N185 2.140 . S
C172 O173 1.227 . S
C172 O182 1.265 . S
O173 C172 1.227 . S
N174 Co171 2.121 . S
N174 C176 1.375 . S
N174 C177 1.313 . S
C175 C176 1.338 . S
C175 N178 1.377 1_455 S
C175 H195 0.930 . S
C176 N174 1.375 . S
C176 C175 1.338 . S
C176 H180 0.931 . S
C177 N174 1.313 . S
C177 N178 1.344 1_455 S
C177 H181 0.930 . S
N178 C175 1.377 1_655 S
N178 C177 1.344 1_655 S
O179 Co171 2.055 . S
O179 C183 1.253 . S
H180 C176 0.931 . S
H181 C177 0.930 . S
O182 Co171 2.039 . S
O182 C172 1.265 . S
C183 O179 1.253 . S
C183 O184 1.227 . S
O184 C183 1.227 . S
N185 Co171 2.140 . S
N185 C188 1.346 . S
N185 C189 1.345 . S
C186 C187 1.387 . S
C186 C190 1.391 . S
C187 C186 1.387 . S
C187 C188 1.369 . S
C187 H196 0.929 . S
C188 N185 1.346 . S
C188 C187 1.369 . S
C188 H191 0.928 . S
C189 N185 1.345 . S
C189 C190 1.371 . S
C189 H192 0.931 . S
C190 C186 1.391 . S
C190 C189 1.371 . S
C190 H197 0.930 . S
H191 C188 0.928 . S
H192 C189 0.931 . S
H193 C169 0.930 . S
H194 C166 0.930 . S
H195 C175 0.930 . S
H196 C187 0.929 . S
H197 C190 0.930 . S
C198 C199 1.351 . S
C198 N201 1.368 . S
C198 H203 0.931 . S
C199 C198 1.351 . S
C199 N200 1.373 . S
C199 H227 0.930 . S
N200 C199 1.373 . S
N200 C202 1.340 . S
N201 C198 1.368 . S
N201 C202 1.321 . S
N201 Co204 2.135 . S
C202 N200 1.340 . S
C202 N201 1.321 . S
C202 H226 0.930 . S
H203 C198 0.931 . S
Co204 N201 2.135 . S
Co204 N207 2.121 . S
Co204 O212 2.055 . S
Co204 O215 2.039 . S
Co204 N218 2.140 . S
C205 O206 1.227 . S
C205 O215 1.265 1_554 S
O206 C205 1.227 . S
N207 Co204 2.121 . S
N207 C209 1.375 1_556 S
N207 C210 1.313 . S
C208 C209 1.338 . S
C208 N211 1.377 . S
C208 H228 0.930 . S
C209 N207 1.375 1_554 S
C209 C208 1.338 . S
C209 H213 0.931 . S
C210 N207 1.313 . S
C210 N211 1.344 1_556 S
C210 H214 0.930 . S
N211 C208 1.377 . S
N211 C210 1.344 1_554 S
O212 Co204 2.055 . S
O212 C216 1.253 . S
H213 C209 0.931 . S
H214 C210 0.930 . S
O215 Co204 2.039 . S
O215 C205 1.265 1_556 S
C216 O212 1.253 . S
C216 O217 1.227 . S
O217 C216 1.227 . S
N218 Co204 2.140 . S
N218 C221 1.346 . S
N218 C222 1.345 . S
C219 C220 1.387 . S
C219 C223 1.391 . S
C220 C219 1.387 . S
C220 C221 1.369 . S
C220 H229 0.929 . S
C221 N218 1.346 . S
C221 C220 1.369 . S
C221 H224 0.928 . S
C222 N218 1.345 . S
C222 C223 1.371 . S
C222 H225 0.931 . S
C223 C219 1.391 . S
C223 C222 1.371 . S
C223 H230 0.930 . S
H224 C221 0.928 . S
H225 C222 0.931 . S
H226 C202 0.930 . S
H227 C199 0.930 . S
H228 C208 0.930 . S
H229 C220 0.929 . S
H230 C223 0.930 . S
C231 C232 1.351 . S
C231 N234 1.368 . S
C231 H236 0.931 . S
C232 C231 1.351 . S
C232 N233 1.373 . S
C232 H260 0.930 . S
N233 C232 1.373 . S
N233 C235 1.340 . S
N234 C231 1.368 . S
N234 C235 1.321 . S
N234 Co237 2.135 . S
C235 N233 1.340 . S
C235 N234 1.321 . S
C235 H259 0.930 . S
H236 C231 0.931 . S
Co237 N234 2.135 . S
Co237 N240 2.121 . S
Co237 O245 2.055 . S
Co237 O248 2.039 . S
Co237 N251 2.140 . S
C238 O239 1.227 . S
C238 O248 1.265 1_554 S
O239 C238 1.227 . S
N240 Co237 2.121 . S
N240 C242 1.375 1_556 S
N240 C243 1.313 . S
C241 C242 1.338 . S
C241 N244 1.377 1_565 S
C241 H261 0.930 . S
C242 N240 1.375 1_554 S
C242 C241 1.338 . S
C242 H246 0.931 . S
C243 N240 1.313 . S
C243 N244 1.344 1_566 S
C243 H247 0.930 . S
N244 C241 1.377 1_545 S
N244 C243 1.344 1_544 S
O245 Co237 2.055 . S
O245 C249 1.253 . S
H246 C242 0.931 . S
H247 C243 0.930 . S
O248 Co237 2.039 . S
O248 C238 1.265 1_556 S
C249 O245 1.253 . S
C249 O250 1.227 . S
O250 C249 1.227 . S
N251 Co237 2.140 . S
N251 C254 1.346 . S
N251 C255 1.345 . S
C252 C253 1.387 . S
C252 C256 1.391 . S
C253 C252 1.387 . S
C253 C254 1.369 . S
C253 H262 0.929 . S
C254 N251 1.346 . S
C254 C253 1.369 . S
C254 H257 0.928 . S
C255 N251 1.345 . S
C255 C256 1.371 . S
C255 H258 0.931 . S
C256 C252 1.391 . S
C256 C255 1.371 . S
C256 H263 0.930 . S
H257 C254 0.928 . S
H258 C255 0.931 . S
H259 C235 0.930 . S
H260 C232 0.930 . S
H261 C241 0.930 . S
H262 C253 0.929 . S
H263 C256 0.930 . S
C264 C265 1.351 . S
C264 N267 1.368 . S
C264 H269 0.931 . S
C265 C264 1.351 . S
C265 N266 1.373 . S
C265 H293 0.930 . S
N266 C265 1.373 . S
N266 C268 1.340 . S
N267 C264 1.368 . S
N267 C268 1.321 . S
N267 Co270 2.135 . S
C268 N266 1.340 . S
C268 N267 1.321 . S
C268 H292 0.930 . S
H269 C264 0.931 . S
Co270 N267 2.135 . S
Co270 N273 2.121 . S
Co270 O278 2.055 . S
Co270 O281 2.039 . S
Co270 N284 2.140 . S
C271 O272 1.227 . S
C271 O281 1.265 1_554 S
O272 C271 1.227 . S
N273 Co270 2.121 . S
N273 C275 1.375 1_556 S
N273 C276 1.313 . S
C274 C275 1.338 . S
C274 N277 1.377 1_455 S
C274 H294 0.930 . S
C275 N273 1.375 1_554 S
C275 C274 1.338 . S
C275 H279 0.931 . S
C276 N273 1.313 . S
C276 N277 1.344 1_456 S
C276 H280 0.930 . S
N277 C274 1.377 1_655 S
N277 C276 1.344 1_654 S
O278 Co270 2.055 . S
O278 C282 1.253 . S
H279 C275 0.931 . S
H280 C276 0.930 . S
O281 Co270 2.039 . S
O281 C271 1.265 1_556 S
C282 O278 1.253 . S
C282 O283 1.227 . S
O283 C282 1.227 . S
N284 Co270 2.140 . S
N284 C287 1.346 . S
N284 C288 1.345 . S
C285 C286 1.387 . S
C285 C289 1.391 . S
C286 C285 1.387 . S
C286 C287 1.369 . S
C286 H295 0.929 . S
C287 N284 1.346 . S
C287 C286 1.369 . S
C287 H290 0.928 . S
C288 N284 1.345 . S
C288 C289 1.371 . S
C288 H291 0.931 . S
C289 C285 1.391 . S
C289 C288 1.371 . S
C289 H296 0.930 . S
H290 C287 0.928 . S
H291 C288 0.931 . S
H292 C268 0.930 . S
H293 C265 0.930 . S
H294 C274 0.930 . S
H295 C286 0.929 . S
H296 C289 0.930 . S
C297 C298 1.351 . S
C297 N300 1.368 . S
C297 H302 0.931 . S
C298 C297 1.351 . S
C298 N299 1.373 . S
C298 H326 0.930 . S
N299 C298 1.373 . S
N299 C301 1.340 . S
N300 C297 1.368 . S
N300 C301 1.321 . S
N300 Co303 2.135 . S
C301 N299 1.340 . S
C301 N300 1.321 . S
C301 H325 0.930 . S
H302 C297 0.931 . S
Co303 N300 2.135 . S
Co303 N306 2.121 . S
Co303 O311 2.055 . S
Co303 O314 2.039 . S
Co303 N317 2.140 . S
C304 O305 1.227 . S
C304 O314 1.265 . S
O305 C304 1.227 . S
N306 Co303 2.121 . S
N306 C308 1.375 . S
N306 C309 1.313 . S
C307 C308 1.338 . S
C307 N310 1.377 . S
C307 H327 0.930 . S
C308 N306 1.375 . S
C308 C307 1.338 . S
C308 H312 0.931 . S
C309 N306 1.313 . S
C309 N310 1.344 . S
C309 H313 0.930 . S
N310 C307 1.377 . S
N310 C309 1.344 . S
O311 Co303 2.055 . S
O311 C315 1.253 . S
H312 C308 0.931 . S
H313 C309 0.930 . S
O314 Co303 2.039 . S
O314 C304 1.265 . S
C315 O311 1.253 . S
C315 O316 1.227 . S
O316 C315 1.227 . S
N317 Co303 2.140 . S
N317 C320 1.346 . S
N317 C321 1.345 . S
C318 C319 1.387 . S
C318 C322 1.391 . S
C319 C318 1.387 . S
C319 C320 1.369 . S
C319 H328 0.929 . S
C320 N317 1.346 . S
C320 C319 1.369 . S
C320 H323 0.928 . S
C321 N317 1.345 . S
C321 C322 1.371 . S
C321 H324 0.931 . S
C322 C318 1.391 . S
C322 C321 1.371 . S
C322 H329 0.930 . S
H323 C320 0.928 . S
H324 C321 0.931 . S
H325 C301 0.930 . S
H326 C298 0.930 . S
H327 C307 0.930 . S
H328 C319 0.929 . S
H329 C322 0.930 . S
C330 C331 1.351 . S
C330 N333 1.368 . S
C330 H335 0.931 . S
C331 C330 1.351 . S
C331 N332 1.373 . S
C331 H359 0.930 . S
N332 C331 1.373 . S
N332 C334 1.340 . S
N333 C330 1.368 . S
N333 C334 1.321 . S
N333 Co336 2.135 . S
C334 N332 1.340 . S
C334 N333 1.321 . S
C334 H358 0.930 . S
H335 C330 0.931 . S
Co336 N333 2.135 . S
Co336 N339 2.121 . S
Co336 O344 2.055 . S
Co336 O347 2.039 . S
Co336 N350 2.140 . S
C337 O338 1.227 . S
C337 O347 1.265 . S
O338 C337 1.227 . S
N339 Co336 2.121 . S
N339 C341 1.375 . S
N339 C342 1.313 . S
C340 C341 1.338 . S
C340 N343 1.377 1_545 S
C340 H360 0.930 . S
C341 N339 1.375 . S
C341 C340 1.338 . S
C341 H345 0.931 . S
C342 N339 1.313 . S
C342 N343 1.344 1_545 S
C342 H346 0.930 . S
N343 C340 1.377 1_565 S
N343 C342 1.344 1_565 S
O344 Co336 2.055 . S
O344 C348 1.253 . S
H345 C341 0.931 . S
H346 C342 0.930 . S
O347 Co336 2.039 . S
O347 C337 1.265 . S
C348 O344 1.253 . S
C348 O349 1.227 . S
O349 C348 1.227 . S
N350 Co336 2.140 . S
N350 C353 1.346 . S
N350 C354 1.345 . S
C351 C352 1.387 . S
C351 C355 1.391 . S
C352 C351 1.387 . S
C352 C353 1.369 . S
C352 H361 0.929 . S
C353 N350 1.346 . S
C353 C352 1.369 . S
C353 H356 0.928 . S
C354 N350 1.345 . S
C354 C355 1.371 . S
C354 H357 0.931 . S
C355 C351 1.391 . S
C355 C354 1.371 . S
C355 H362 0.930 . S
H356 C353 0.928 . S
H357 C354 0.931 . S
H358 C334 0.930 . S
H359 C331 0.930 . S
H360 C340 0.930 . S
H361 C352 0.929 . S
H362 C355 0.930 . S
C363 C364 1.351 . S
C363 N366 1.368 . S
C363 H368 0.931 . S
C364 C363 1.351 . S
C364 N365 1.373 . S
C364 H392 0.930 . S
N365 C364 1.373 . S
N365 C367 1.340 . S
N366 C363 1.368 . S
N366 C367 1.321 . S
N366 Co369 2.135 . S
C367 N365 1.340 . S
C367 N366 1.321 . S
C367 H391 0.930 . S
H368 C363 0.931 . S
Co369 N366 2.135 . S
Co369 N372 2.121 . S
Co369 O377 2.055 . S
Co369 O380 2.039 . S
Co369 N383 2.140 . S
C370 O371 1.227 . S
C370 O380 1.265 . S
O371 C370 1.227 . S
N372 Co369 2.121 . S
N372 C374 1.375 . S
N372 C375 1.313 . S
C373 C374 1.338 . S
C373 N376 1.377 1_655 S
C373 H393 0.930 . S
C374 N372 1.375 . S
C374 C373 1.338 . S
C374 H378 0.931 . S
C375 N372 1.313 . S
C375 N376 1.344 1_655 S
C375 H379 0.930 . S
N376 C373 1.377 1_455 S
N376 C375 1.344 1_455 S
O377 Co369 2.055 . S
O377 C381 1.253 . S
H378 C374 0.931 . S
H379 C375 0.930 . S
O380 Co369 2.039 . S
O380 C370 1.265 . S
C381 O377 1.253 . S
C381 O382 1.227 . S
O382 C381 1.227 . S
N383 Co369 2.140 . S
N383 C386 1.346 . S
N383 C387 1.345 . S
C384 C385 1.387 . S
C384 C388 1.391 . S
C385 C384 1.387 . S
C385 C386 1.369 . S
C385 H394 0.929 . S
C386 N383 1.346 . S
C386 C385 1.369 . S
C386 H389 0.928 . S
C387 N383 1.345 . S
C387 C388 1.371 . S
C387 H390 0.931 . S
C388 C384 1.391 . S
C388 C387 1.371 . S
C388 H395 0.930 . S
H389 C386 0.928 . S
H390 C387 0.931 . S
H391 C367 0.930 . S
H392 C364 0.930 . S
H393 C373 0.930 . S
H394 C385 0.929 . S
H395 C388 0.930 . S
C396 C397 1.351 . S
C396 N399 1.368 . S
C396 H401 0.931 . S
C397 C396 1.351 . S
C397 N398 1.373 . S
C397 H425 0.930 . S
N398 C397 1.373 . S
N398 C400 1.340 . S
N399 C396 1.368 . S
N399 C400 1.321 . S
N399 Co402 2.135 . S
C400 N398 1.340 . S
C400 N399 1.321 . S
C400 H424 0.930 . S
H401 C396 0.931 . S
Co402 N399 2.135 . S
Co402 N405 2.121 . S
Co402 O410 2.055 . S
Co402 O413 2.039 . S
Co402 N416 2.140 . S
C403 O404 1.227 . S
C403 O413 1.265 . S
O404 C403 1.227 . S
N405 Co402 2.121 . S
N405 C407 1.375 . S
N405 C408 1.313 . S
C406 C407 1.338 . S
C406 N409 1.377 . S
C406 H426 0.930 . S
C407 N405 1.375 . S
C407 C406 1.338 . S
C407 H411 0.931 . S
C408 N405 1.313 . S
C408 N409 1.344 . S
C408 H412 0.930 . S
N409 C406 1.377 . S
N409 C408 1.344 . S
O410 Co402 2.055 . S
O410 C414 1.253 . S
H411 C407 0.931 . S
H412 C408 0.930 . S
O413 Co402 2.039 . S
O413 C403 1.265 . S
C414 O410 1.253 . S
C414 O415 1.227 . S
O415 C414 1.227 . S
N416 Co402 2.140 . S
N416 C419 1.346 . S
N416 C420 1.345 . S
C417 C418 1.387 . S
C417 C421 1.391 . S
C418 C417 1.387 . S
C418 C419 1.369 . S
C418 H427 0.929 . S
C419 N416 1.346 . S
C419 C418 1.369 . S
C419 H422 0.928 . S
C420 N416 1.345 . S
C420 C421 1.371 . S
C420 H423 0.931 . S
C421 C417 1.391 . S
C421 C420 1.371 . S
C421 H428 0.930 . S
H422 C419 0.928 . S
H423 C420 0.931 . S
H424 C400 0.930 . S
H425 C397 0.930 . S
H426 C406 0.930 . S
H427 C418 0.929 . S
H428 C421 0.930 . S
C429 C430 1.351 . S
C429 N432 1.368 . S
C429 H434 0.931 . S
C430 C429 1.351 . S
C430 N431 1.373 . S
C430 H458 0.930 . S
N431 C430 1.373 . S
N431 C433 1.340 . S
N432 C429 1.368 . S
N432 C433 1.321 . S
N432 Co435 2.135 . S
C433 N431 1.340 . S
C433 N432 1.321 . S
C433 H457 0.930 . S
H434 C429 0.931 . S
Co435 N432 2.135 . S
Co435 N438 2.121 . S
Co435 O443 2.055 . S
Co435 O446 2.039 . S
Co435 N449 2.140 . S
C436 O437 1.227 . S
C436 O446 1.265 . S
O437 C436 1.227 . S
N438 Co435 2.121 . S
N438 C440 1.375 . S
N438 C441 1.313 . S
C439 C440 1.338 . S
C439 N442 1.377 . S
C439 H459 0.930 . S
C440 N438 1.375 . S
C440 C439 1.338 . S
C440 H444 0.931 . S
C441 N438 1.313 . S
C441 N442 1.344 . S
C441 H445 0.930 . S
N442 C439 1.377 . S
N442 C441 1.344 . S
O443 Co435 2.055 . S
O443 C447 1.253 . S
H444 C440 0.931 . S
H445 C441 0.930 . S
O446 Co435 2.039 . S
O446 C436 1.265 . S
C447 O443 1.253 . S
C447 O448 1.227 . S
O448 C447 1.227 . S
N449 Co435 2.140 . S
N449 C452 1.346 . S
N449 C453 1.345 . S
C450 C451 1.387 . S
C450 C454 1.391 . S
C451 C450 1.387 . S
C451 C452 1.369 . S
C451 H460 0.929 . S
C452 N449 1.346 . S
C452 C451 1.369 . S
C452 H455 0.928 . S
C453 N449 1.345 . S
C453 C454 1.371 . S
C453 H456 0.931 . S
C454 C450 1.391 . S
C454 C453 1.371 . S
C454 H461 0.930 . S
H455 C452 0.928 . S
H456 C453 0.931 . S
H457 C433 0.930 . S
H458 C430 0.930 . S
H459 C439 0.930 . S
H460 C451 0.929 . S
H461 C454 0.930 . S
C462 C463 1.351 . S
C462 N465 1.368 . S
C462 H467 0.931 . S
C463 C462 1.351 . S
C463 N464 1.373 . S
C463 H491 0.930 . S
N464 C463 1.373 . S
N464 C466 1.340 . S
N465 C462 1.368 . S
N465 C466 1.321 . S
N465 Co468 2.135 . S
C466 N464 1.340 . S
C466 N465 1.321 . S
C466 H490 0.930 . S
H467 C462 0.931 . S
Co468 N465 2.135 . S
Co468 N471 2.121 . S
Co468 O476 2.055 . S
Co468 O479 2.039 . S
Co468 N482 2.140 . S
C469 O470 1.227 . S
C469 O479 1.265 . S
O470 C469 1.227 . S
N471 Co468 2.121 . S
N471 C473 1.375 . S
N471 C474 1.313 . S
C472 C473 1.338 . S
C472 N475 1.377 . S
C472 H492 0.930 . S
C473 N471 1.375 . S
C473 C472 1.338 . S
C473 H477 0.931 . S
C474 N471 1.313 . S
C474 N475 1.344 . S
C474 H478 0.930 . S
N475 C472 1.377 . S
N475 C474 1.344 . S
O476 Co468 2.055 . S
O476 C480 1.253 . S
H477 C473 0.931 . S
H478 C474 0.930 . S
O479 Co468 2.039 . S
O479 C469 1.265 . S
C480 O476 1.253 . S
C480 O481 1.227 . S
O481 C480 1.227 . S
N482 Co468 2.140 . S
N482 C485 1.346 . S
N482 C486 1.345 . S
C483 C484 1.387 . S
C483 C487 1.391 . S
C484 C483 1.387 . S
C484 C485 1.369 . S
C484 H493 0.929 . S
C485 N482 1.346 . S
C485 C484 1.369 . S
C485 H488 0.928 . S
C486 N482 1.345 . S
C486 C487 1.371 . S
C486 H489 0.931 . S
C487 C483 1.391 . S
C487 C486 1.371 . S
C487 H494 0.930 . S
H488 C485 0.928 . S
H489 C486 0.931 . S
H490 C466 0.930 . S
H491 C463 0.930 . S
H492 C472 0.930 . S
H493 C484 0.929 . S
H494 C487 0.930 . S
C495 C496 1.351 . S
C495 N498 1.368 . S
C495 H500 0.931 . S
C496 C495 1.351 . S
C496 N497 1.373 . S
C496 H524 0.930 . S
N497 C496 1.373 . S
N497 C499 1.340 . S
N498 C495 1.368 . S
N498 C499 1.321 . S
N498 Co501 2.135 . S
C499 N497 1.340 . S
C499 N498 1.321 . S
C499 H523 0.930 . S
H500 C495 0.931 . S
Co501 N498 2.135 . S
Co501 N504 2.121 . S
Co501 O509 2.055 . S
Co501 O512 2.039 . S
Co501 N515 2.140 . S
C502 O503 1.227 . S
C502 O512 1.265 . S
O503 C502 1.227 . S
N504 Co501 2.121 . S
N504 C506 1.375 . S
N504 C507 1.313 . S
C505 C506 1.338 . S
C505 N508 1.377 . S
C505 H525 0.930 . S
C506 N504 1.375 . S
C506 C505 1.338 . S
C506 H510 0.931 . S
C507 N504 1.313 . S
C507 N508 1.344 . S
C507 H511 0.930 . S
N508 C505 1.377 . S
N508 C507 1.344 . S
O509 Co501 2.055 . S
O509 C513 1.253 . S
H510 C506 0.931 . S
H511 C507 0.930 . S
O512 Co501 2.039 . S
O512 C502 1.265 . S
C513 O509 1.253 . S
C513 O514 1.227 . S
O514 C513 1.227 . S
N515 Co501 2.140 . S
N515 C518 1.346 . S
N515 C519 1.345 . S
C516 C517 1.387 . S
C516 C520 1.391 . S
C517 C516 1.387 . S
C517 C518 1.369 . S
C517 H526 0.929 . S
C518 N515 1.346 . S
C518 C517 1.369 . S
C518 H521 0.928 . S
C519 N515 1.345 . S
C519 C520 1.371 . S
C519 H522 0.931 . S
C520 C516 1.391 . S
C520 C519 1.371 . S
C520 H527 0.930 . S
H521 C518 0.928 . S
H522 C519 0.931 . S
H523 C499 0.930 . S
H524 C496 0.930 . S
H525 C505 0.930 . S
H526 C517 0.929 . S
H527 C520 0.930 . S
C528 C529 1.351 . S
C528 N531 1.368 . S
C528 H533 0.931 . S
C529 C528 1.351 . S
C529 N530 1.373 . S
C529 H557 0.930 . S
N530 C529 1.373 . S
N530 C532 1.340 . S
N531 C528 1.368 . S
N531 C532 1.321 . S
N531 Co534 2.135 . S
C532 N530 1.340 . S
C532 N531 1.321 . S
C532 H556 0.930 . S
H533 C528 0.931 . S
Co534 N531 2.135 . S
Co534 N537 2.121 . S
Co534 O542 2.055 . S
Co534 O545 2.039 . S
Co534 N548 2.140 . S
C535 O536 1.227 . S
C535 O545 1.265 . S
O536 C535 1.227 . S
N537 Co534 2.121 . S
N537 C539 1.375 . S
N537 C540 1.313 . S
C538 C539 1.338 . S
C538 N541 1.377 . S
C538 H558 0.930 . S
C539 N537 1.375 . S
C539 C538 1.338 . S
C539 H543 0.931 . S
C540 N537 1.313 . S
C540 N541 1.344 . S
C540 H544 0.930 . S
N541 C538 1.377 . S
N541 C540 1.344 . S
O542 Co534 2.055 . S
O542 C546 1.253 . S
H543 C539 0.931 . S
H544 C540 0.930 . S
O545 Co534 2.039 . S
O545 C535 1.265 . S
C546 O542 1.253 . S
C546 O547 1.227 . S
O547 C546 1.227 . S
N548 Co534 2.140 . S
N548 C551 1.346 . S
N548 C552 1.345 . S
C549 C550 1.387 . S
C549 C553 1.391 . S
C550 C549 1.387 . S
C550 C551 1.369 . S
C550 H559 0.929 . S
C551 N548 1.346 . S
C551 C550 1.369 . S
C551 H554 0.928 . S
C552 N548 1.345 . S
C552 C553 1.371 . S
C552 H555 0.931 . S
C553 C549 1.391 . S
C553 C552 1.371 . S
C553 H560 0.930 . S
H554 C551 0.928 . S
H555 C552 0.931 . S
H556 C532 0.930 . S
H557 C529 0.930 . S
H558 C538 0.930 . S
H559 C550 0.929 . S
H560 C553 0.930 . S
C561 C562 1.351 . S
C561 N564 1.368 . S
C561 H566 0.931 . S
C562 C561 1.351 . S
C562 N563 1.373 . S
C562 H590 0.930 . S
N563 C562 1.373 . S
N563 C565 1.340 . S
N564 C561 1.368 . S
N564 C565 1.321 . S
N564 Co567 2.135 . S
C565 N563 1.340 . S
C565 N564 1.321 . S
C565 H589 0.930 . S
H566 C561 0.931 . S
Co567 N564 2.135 . S
Co567 N570 2.121 . S
Co567 O575 2.055 . S
Co567 O578 2.039 . S
Co567 N581 2.140 . S
C568 O569 1.227 . S
C568 O578 1.265 . S
O569 C568 1.227 . S
N570 Co567 2.121 . S
N570 C572 1.375 . S
N570 C573 1.313 . S
C571 C572 1.338 . S
C571 N574 1.377 . S
C571 H591 0.930 . S
C572 N570 1.375 . S
C572 C571 1.338 . S
C572 H576 0.931 . S
C573 N570 1.313 . S
C573 N574 1.344 . S
C573 H577 0.930 . S
N574 C571 1.377 . S
N574 C573 1.344 . S
O575 Co567 2.055 . S
O575 C579 1.253 . S
H576 C572 0.931 . S
H577 C573 0.930 . S
O578 Co567 2.039 . S
O578 C568 1.265 . S
C579 O575 1.253 . S
C579 O580 1.227 . S
O580 C579 1.227 . S
N581 Co567 2.140 . S
N581 C584 1.346 . S
N581 C585 1.345 . S
C582 C583 1.387 . S
C582 C586 1.391 . S
C583 C582 1.387 . S
C583 C584 1.369 . S
C583 H592 0.929 . S
C584 N581 1.346 . S
C584 C583 1.369 . S
C584 H587 0.928 . S
C585 N581 1.345 . S
C585 C586 1.371 . S
C585 H588 0.931 . S
C586 C582 1.391 . S
C586 C585 1.371 . S
C586 H593 0.930 . S
H587 C584 0.928 . S
H588 C585 0.931 . S
H589 C565 0.930 . S
H590 C562 0.930 . S
H591 C571 0.930 . S
H592 C583 0.929 . S
H593 C586 0.930 . S
C594 C595 1.351 . S
C594 N597 1.368 . S
C594 H599 0.931 . S
C595 C594 1.351 . S
C595 N596 1.373 . S
C595 H623 0.930 . S
N596 C595 1.373 . S
N596 C598 1.340 . S
N597 C594 1.368 . S
N597 C598 1.321 . S
N597 Co600 2.135 . S
C598 N596 1.340 . S
C598 N597 1.321 . S
C598 H622 0.930 . S
H599 C594 0.931 . S
Co600 N597 2.135 . S
Co600 N603 2.121 . S
Co600 O608 2.055 . S
Co600 O611 2.039 . S
Co600 N614 2.140 . S
C601 O602 1.227 . S
C601 O611 1.265 . S
O602 C601 1.227 . S
N603 Co600 2.121 . S
N603 C605 1.375 . S
N603 C606 1.313 . S
C604 C605 1.338 . S
C604 N607 1.377 . S
C604 H624 0.930 . S
C605 N603 1.375 . S
C605 C604 1.338 . S
C605 H609 0.931 . S
C606 N603 1.313 . S
C606 N607 1.344 . S
C606 H610 0.930 . S
N607 C604 1.377 . S
N607 C606 1.344 . S
O608 Co600 2.055 . S
O608 C612 1.253 . S
H609 C605 0.931 . S
H610 C606 0.930 . S
O611 Co600 2.039 . S
O611 C601 1.265 . S
C612 O608 1.253 . S
C612 O613 1.227 . S
O613 C612 1.227 . S
N614 Co600 2.140 . S
N614 C617 1.346 . S
N614 C618 1.345 . S
C615 C616 1.387 . S
C615 C619 1.391 . S
C616 C615 1.387 . S
C616 C617 1.369 . S
C616 H625 0.929 . S
C617 N614 1.346 . S
C617 C616 1.369 . S
C617 H620 0.928 . S
C618 N614 1.345 . S
C618 C619 1.371 . S
C618 H621 0.931 . S
C619 C615 1.391 . S
C619 C618 1.371 . S
C619 H626 0.930 . S
H620 C617 0.928 . S
H621 C618 0.931 . S
H622 C598 0.930 . S
H623 C595 0.930 . S
H624 C604 0.930 . S
H625 C616 0.929 . S
H626 C619 0.930 . S
C627 C628 1.351 . S
C627 N630 1.368 . S
C627 H632 0.931 . S
C628 C627 1.351 . S
C628 N629 1.373 . S
C628 H656 0.930 . S
N629 C628 1.373 . S
N629 C631 1.340 . S
N630 C627 1.368 . S
N630 C631 1.321 . S
N630 Co633 2.135 . S
C631 N629 1.340 . S
C631 N630 1.321 . S
C631 H655 0.930 . S
H632 C627 0.931 . S
Co633 N630 2.135 . S
Co633 N636 2.121 . S
Co633 O641 2.055 . S
Co633 O644 2.039 . S
Co633 N647 2.140 . S
C634 O635 1.227 . S
C634 O644 1.265 . S
O635 C634 1.227 . S
N636 Co633 2.121 . S
N636 C638 1.375 . S
N636 C639 1.313 . S
C637 C638 1.338 . S
C637 N640 1.377 . S
C637 H657 0.930 . S
C638 N636 1.375 . S
C638 C637 1.338 . S
C638 H642 0.931 . S
C639 N636 1.313 . S
C639 N640 1.344 . S
C639 H643 0.930 . S
N640 C637 1.377 . S
N640 C639 1.344 . S
O641 Co633 2.055 . S
O641 C645 1.253 . S
H642 C638 0.931 . S
H643 C639 0.930 . S
O644 Co633 2.039 . S
O644 C634 1.265 . S
C645 O641 1.253 . S
C645 O646 1.227 . S
O646 C645 1.227 . S
N647 Co633 2.140 . S
N647 C650 1.346 . S
N647 C651 1.345 . S
C648 C649 1.387 . S
C648 C652 1.391 . S
C649 C648 1.387 . S
C649 C650 1.369 . S
C649 H658 0.929 . S
C650 N647 1.346 . S
C650 C649 1.369 . S
C650 H653 0.928 . S
C651 N647 1.345 . S
C651 C652 1.371 . S
C651 H654 0.931 . S
C652 C648 1.391 . S
C652 C651 1.371 . S
C652 H659 0.930 . S
H653 C650 0.928 . S
H654 C651 0.931 . S
H655 C631 0.930 . S
H656 C628 0.930 . S
H657 C637 0.930 . S
H658 C649 0.929 . S
H659 C652 0.930 . S
C660 C661 1.351 . S
C660 N663 1.368 . S
C660 H665 0.931 . S
C661 C660 1.351 . S
C661 N662 1.373 . S
C661 H689 0.930 . S
N662 C661 1.373 . S
N662 C664 1.340 . S
N663 C660 1.368 . S
N663 C664 1.321 . S
N663 Co666 2.135 . S
C664 N662 1.340 . S
C664 N663 1.321 . S
C664 H688 0.930 . S
H665 C660 0.931 . S
Co666 N663 2.135 . S
Co666 N669 2.121 . S
Co666 O674 2.055 . S
Co666 O677 2.039 . S
Co666 N680 2.140 . S
C667 O668 1.227 . S
C667 O677 1.265 . S
O668 C667 1.227 . S
N669 Co666 2.121 . S
N669 C671 1.375 . S
N669 C672 1.313 . S
C670 C671 1.338 . S
C670 N673 1.377 . S
C670 H690 0.930 . S
C671 N669 1.375 . S
C671 C670 1.338 . S
C671 H675 0.931 . S
C672 N669 1.313 . S
C672 N673 1.344 . S
C672 H676 0.930 . S
N673 C670 1.377 . S
N673 C672 1.344 . S
O674 Co666 2.055 . S
O674 C678 1.253 . S
H675 C671 0.931 . S
H676 C672 0.930 . S
O677 Co666 2.039 . S
O677 C667 1.265 . S
C678 O674 1.253 . S
C678 O679 1.227 . S
O679 C678 1.227 . S
N680 Co666 2.140 . S
N680 C683 1.346 . S
N680 C684 1.345 . S
C681 C682 1.387 . S
C681 C685 1.391 . S
C682 C681 1.387 . S
C682 C683 1.369 . S
C682 H691 0.929 . S
C683 N680 1.346 . S
C683 C682 1.369 . S
C683 H686 0.928 . S
C684 N680 1.345 . S
C684 C685 1.371 . S
C684 H687 0.931 . S
C685 C681 1.391 . S
C685 C684 1.371 . S
C685 H692 0.930 . S
H686 C683 0.928 . S
H687 C684 0.931 . S
H688 C664 0.930 . S
H689 C661 0.930 . S
H690 C670 0.930 . S
H691 C682 0.929 . S
H692 C685 0.930 . S
C693 C694 1.351 1_556 S
C693 N696 1.368 . S
C693 H698 0.931 1_556 S
C694 C693 1.351 1_554 S
C694 N695 1.373 1_554 S
C694 H722 0.930 . S
N695 C694 1.373 1_556 S
N695 C697 1.340 . S
N696 C693 1.368 . S
N696 C697 1.321 . S
N696 Co699 2.135 . S
C697 N695 1.340 . S
C697 N696 1.321 . S
C697 H721 0.930 . S
H698 C693 0.931 1_554 S
Co699 N696 2.135 . S
Co699 N702 2.121 . S
Co699 O707 2.055 . S
Co699 O710 2.039 . S
Co699 N713 2.140 . S
C700 O701 1.227 . S
C700 O710 1.265 . S
O701 C700 1.227 . S
N702 Co699 2.121 . S
N702 C704 1.375 . S
N702 C705 1.313 . S
C703 C704 1.338 . S
C703 N706 1.377 . S
C703 H723 0.930 . S
C704 N702 1.375 . S
C704 C703 1.338 . S
C704 H708 0.931 . S
C705 N702 1.313 . S
C705 N706 1.344 . S
C705 H709 0.930 . S
N706 C703 1.377 . S
N706 C705 1.344 . S
O707 Co699 2.055 . S
O707 C711 1.253 . S
H708 C704 0.931 . S
H709 C705 0.930 . S
O710 Co699 2.039 . S
O710 C700 1.265 . S
C711 O707 1.253 . S
C711 O712 1.227 . S
O712 C711 1.227 . S
N713 Co699 2.140 . S
N713 C716 1.346 . S
N713 C717 1.345 . S
C714 C715 1.387 . S
C714 C718 1.391 . S
C715 C714 1.387 . S
C715 C716 1.369 . S
C715 H724 0.929 . S
C716 N713 1.346 . S
C716 C715 1.369 . S
C716 H719 0.928 . S
C717 N713 1.345 . S
C717 C718 1.371 . S
C717 H720 0.931 . S
C718 C714 1.391 . S
C718 C717 1.371 . S
C718 H725 0.930 . S
H719 C716 0.928 . S
H720 C717 0.931 . S
H721 C697 0.930 . S
H722 C694 0.930 . S
H723 C703 0.930 . S
H724 C715 0.929 . S
H725 C718 0.930 . S
C726 C727 1.351 1_556 S
C726 N729 1.368 . S
C726 H731 0.931 1_556 S
C727 C726 1.351 1_554 S
C727 N728 1.373 1_554 S
C727 H755 0.930 . S
N728 C727 1.373 1_556 S
N728 C730 1.340 . S
N729 C726 1.368 . S
N729 C730 1.321 . S
N729 Co732 2.135 . S
C730 N728 1.340 . S
C730 N729 1.321 . S
C730 H754 0.930 . S
H731 C726 0.931 1_554 S
Co732 N729 2.135 . S
Co732 N735 2.121 . S
Co732 O740 2.055 . S
Co732 O743 2.039 . S
Co732 N746 2.140 . S
C733 O734 1.227 . S
C733 O743 1.265 . S
O734 C733 1.227 . S
N735 Co732 2.121 . S
N735 C737 1.375 . S
N735 C738 1.313 . S
C736 C737 1.338 . S
C736 N739 1.377 . S
C736 H756 0.930 . S
C737 N735 1.375 . S
C737 C736 1.338 . S
C737 H741 0.931 . S
C738 N735 1.313 . S
C738 N739 1.344 . S
C738 H742 0.930 . S
N739 C736 1.377 . S
N739 C738 1.344 . S
O740 Co732 2.055 . S
O740 C744 1.253 . S
H741 C737 0.931 . S
H742 C738 0.930 . S
O743 Co732 2.039 . S
O743 C733 1.265 . S
C744 O740 1.253 . S
C744 O745 1.227 . S
O745 C744 1.227 . S
N746 Co732 2.140 . S
N746 C749 1.346 . S
N746 C750 1.345 . S
C747 C748 1.387 . S
C747 C751 1.391 . S
C748 C747 1.387 . S
C748 C749 1.369 . S
C748 H757 0.929 . S
C749 N746 1.346 . S
C749 C748 1.369 . S
C749 H752 0.928 . S
C750 N746 1.345 . S
C750 C751 1.371 . S
C750 H753 0.931 . S
C751 C747 1.391 . S
C751 C750 1.371 . S
C751 H758 0.930 . S
H752 C749 0.928 . S
H753 C750 0.931 . S
H754 C730 0.930 . S
H755 C727 0.930 . S
H756 C736 0.930 . S
H757 C748 0.929 . S
H758 C751 0.930 . S
C759 C760 1.351 1_556 S
C759 N762 1.368 . S
C759 H764 0.931 1_556 S
C760 C759 1.351 1_554 S
C760 N761 1.373 1_554 S
C760 H788 0.930 . S
N761 C760 1.373 1_556 S
N761 C763 1.340 . S
N762 C759 1.368 . S
N762 C763 1.321 . S
N762 Co765 2.135 . S
C763 N761 1.340 . S
C763 N762 1.321 . S
C763 H787 0.930 . S
H764 C759 0.931 1_554 S
Co765 N762 2.135 . S
Co765 N768 2.121 . S
Co765 O773 2.055 . S
Co765 O776 2.039 . S
Co765 N779 2.140 . S
C766 O767 1.227 . S
C766 O776 1.265 . S
O767 C766 1.227 . S
N768 Co765 2.121 . S
N768 C770 1.375 . S
N768 C771 1.313 . S
C769 C770 1.338 . S
C769 N772 1.377 . S
C769 H789 0.930 . S
C770 N768 1.375 . S
C770 C769 1.338 . S
C770 H774 0.931 . S
C771 N768 1.313 . S
C771 N772 1.344 . S
C771 H775 0.930 . S
N772 C769 1.377 . S
N772 C771 1.344 . S
O773 Co765 2.055 . S
O773 C777 1.253 . S
H774 C770 0.931 . S
H775 C771 0.930 . S
O776 Co765 2.039 . S
O776 C766 1.265 . S
C777 O773 1.253 . S
C777 O778 1.227 . S
O778 C777 1.227 . S
N779 Co765 2.140 . S
N779 C782 1.346 . S
N779 C783 1.345 . S
C780 C781 1.387 . S
C780 C784 1.391 . S
C781 C780 1.387 . S
C781 C782 1.369 . S
C781 H790 0.929 . S
C782 N779 1.346 . S
C782 C781 1.369 . S
C782 H785 0.928 . S
C783 N779 1.345 . S
C783 C784 1.371 . S
C783 H786 0.931 . S
C784 C780 1.391 . S
C784 C783 1.371 . S
C784 H791 0.930 . S
H785 C782 0.928 . S
H786 C783 0.931 . S
H787 C763 0.930 . S
H788 C760 0.930 . S
H789 C769 0.930 . S
H790 C781 0.929 . S
H791 C784 0.930 . S
C792 C793 1.351 . S
C792 N795 1.368 . S
C792 H797 0.931 . S
C793 C792 1.351 . S
C793 N794 1.373 . S
C793 H821 0.930 . S
N794 C793 1.373 . S
N794 C796 1.340 . S
N795 C792 1.368 . S
N795 C796 1.321 . S
N795 Co798 2.135 . S
C796 N794 1.340 . S
C796 N795 1.321 . S
C796 H820 0.930 . S
H797 C792 0.931 . S
Co798 N795 2.135 . S
Co798 N801 2.121 . S
Co798 O806 2.055 . S
Co798 O809 2.039 . S
Co798 N812 2.140 . S
C799 O800 1.227 . S
C799 O809 1.265 . S
O800 C799 1.227 . S
N801 Co798 2.121 . S
N801 C803 1.375 . S
N801 C804 1.313 . S
C802 C803 1.338 . S
C802 N805 1.377 . S
C802 H822 0.930 . S
C803 N801 1.375 . S
C803 C802 1.338 . S
C803 H807 0.931 . S
C804 N801 1.313 . S
C804 N805 1.344 . S
C804 H808 0.930 . S
N805 C802 1.377 . S
N805 C804 1.344 . S
O806 Co798 2.055 . S
O806 C810 1.253 . S
H807 C803 0.931 . S
H808 C804 0.930 . S
O809 Co798 2.039 . S
O809 C799 1.265 . S
C810 O806 1.253 . S
C810 O811 1.227 . S
O811 C810 1.227 . S
N812 Co798 2.140 . S
N812 C815 1.346 . S
N812 C816 1.345 . S
C813 C814 1.387 . S
C813 C817 1.391 . S
C814 C813 1.387 . S
C814 C815 1.369 . S
C814 H823 0.929 . S
C815 N812 1.346 . S
C815 C814 1.369 . S
C815 H818 0.928 . S
C816 N812 1.345 . S
C816 C817 1.371 . S
C816 H819 0.931 . S
C817 C813 1.391 . S
C817 C816 1.371 . S
C817 H824 0.930 . S
H818 C815 0.928 . S
H819 C816 0.931 . S
H820 C796 0.930 . S
H821 C793 0.930 . S
H822 C802 0.930 . S
H823 C814 0.929 . S
H824 C817 0.930 . S
C825 C826 1.351 . S
C825 N828 1.368 . S
C825 H830 0.931 . S
C826 C825 1.351 . S
C826 N827 1.373 . S
C826 H854 0.930 . S
N827 C826 1.373 . S
N827 C829 1.340 . S
N828 C825 1.368 . S
N828 C829 1.321 . S
N828 Co831 2.135 . S
C829 N827 1.340 . S
C829 N828 1.321 . S
C829 H853 0.930 . S
H830 C825 0.931 . S
Co831 N828 2.135 . S
Co831 N834 2.121 . S
Co831 O839 2.055 . S
Co831 O842 2.039 . S
Co831 N845 2.140 . S
C832 O833 1.227 . S
C832 O842 1.265 . S
O833 C832 1.227 . S
N834 Co831 2.121 . S
N834 C836 1.375 . S
N834 C837 1.313 . S
C835 C836 1.338 . S
C835 N838 1.377 . S
C835 H855 0.930 . S
C836 N834 1.375 . S
C836 C835 1.338 . S
C836 H840 0.931 . S
C837 N834 1.313 . S
C837 N838 1.344 . S
C837 H841 0.930 . S
N838 C835 1.377 . S
N838 C837 1.344 . S
O839 Co831 2.055 . S
O839 C843 1.253 . S
H840 C836 0.931 . S
H841 C837 0.930 . S
O842 Co831 2.039 . S
O842 C832 1.265 . S
C843 O839 1.253 . S
C843 O844 1.227 . S
O844 C843 1.227 . S
N845 Co831 2.140 . S
N845 C848 1.346 . S
N845 C849 1.345 . S
C846 C847 1.387 . S
C846 C850 1.391 . S
C847 C846 1.387 . S
C847 C848 1.369 . S
C847 H856 0.929 . S
C848 N845 1.346 . S
C848 C847 1.369 . S
C848 H851 0.928 . S
C849 N845 1.345 . S
C849 C850 1.371 . S
C849 H852 0.931 . S
C850 C846 1.391 . S
C850 C849 1.371 . S
C850 H857 0.930 . S
H851 C848 0.928 . S
H852 C849 0.931 . S
H853 C829 0.930 . S
H854 C826 0.930 . S
H855 C835 0.930 . S
H856 C847 0.929 . S
H857 C850 0.930 . S
C858 C859 1.351 . S
C858 N861 1.368 . S
C858 H863 0.931 . S
C859 C858 1.351 . S
C859 N860 1.373 . S
C859 H887 0.930 . S
N860 C859 1.373 . S
N860 C862 1.340 . S
N861 C858 1.368 . S
N861 C862 1.321 . S
N861 Co864 2.135 . S
C862 N860 1.340 . S
C862 N861 1.321 . S
C862 H886 0.930 . S
H863 C858 0.931 . S
Co864 N861 2.135 . S
Co864 N867 2.121 . S
Co864 O872 2.055 . S
Co864 O875 2.039 . S
Co864 N878 2.140 . S
C865 O866 1.227 . S
C865 O875 1.265 . S
O866 C865 1.227 . S
N867 Co864 2.121 . S
N867 C869 1.375 . S
N867 C870 1.313 . S
C868 C869 1.338 . S
C868 N871 1.377 . S
C868 H888 0.930 . S
C869 N867 1.375 . S
C869 C868 1.338 . S
C869 H873 0.931 . S
C870 N867 1.313 . S
C870 N871 1.344 . S
C870 H874 0.930 . S
N871 C868 1.377 . S
N871 C870 1.344 . S
O872 Co864 2.055 . S
O872 C876 1.253 . S
H873 C869 0.931 . S
H874 C870 0.930 . S
O875 Co864 2.039 . S
O875 C865 1.265 . S
C876 O872 1.253 . S
C876 O877 1.227 . S
O877 C876 1.227 . S
N878 Co864 2.140 . S
N878 C881 1.346 . S
N878 C882 1.345 . S
C879 C880 1.387 . S
C879 C883 1.391 . S
C880 C879 1.387 . S
C880 C881 1.369 . S
C880 H889 0.929 . S
C881 N878 1.346 . S
C881 C880 1.369 . S
C881 H884 0.928 . S
C882 N878 1.345 . S
C882 C883 1.371 . S
C882 H885 0.931 . S
C883 C879 1.391 . S
C883 C882 1.371 . S
C883 H890 0.930 . S
H884 C881 0.928 . S
H885 C882 0.931 . S
H886 C862 0.930 . S
H887 C859 0.930 . S
H888 C868 0.930 . S
H889 C880 0.929 . S
H890 C883 0.930 . S
C891 C892 1.351 1_554 S
C891 N894 1.368 . S
C891 H896 0.931 1_554 S
C892 C891 1.351 1_556 S
C892 N893 1.373 1_556 S
C892 H920 0.930 . S
N893 C892 1.373 1_554 S
N893 C895 1.340 . S
N894 C891 1.368 . S
N894 C895 1.321 . S
N894 Co897 2.135 . S
C895 N893 1.340 . S
C895 N894 1.321 . S
C895 H919 0.930 . S
H896 C891 0.931 1_556 S
Co897 N894 2.135 . S
Co897 N900 2.121 . S
Co897 O905 2.055 . S
Co897 O908 2.039 . S
Co897 N911 2.140 . S
C898 O899 1.227 . S
C898 O908 1.265 . S
O899 C898 1.227 . S
N900 Co897 2.121 . S
N900 C902 1.375 . S
N900 C903 1.313 . S
C901 C902 1.338 . S
C901 N904 1.377 . S
C901 H921 0.930 . S
C902 N900 1.375 . S
C902 C901 1.338 . S
C902 H906 0.931 . S
C903 N900 1.313 . S
C903 N904 1.344 . S
C903 H907 0.930 . S
N904 C901 1.377 . S
N904 C903 1.344 . S
O905 Co897 2.055 . S
O905 C909 1.253 . S
H906 C902 0.931 . S
H907 C903 0.930 . S
O908 Co897 2.039 . S
O908 C898 1.265 . S
C909 O905 1.253 . S
C909 O910 1.227 . S
O910 C909 1.227 . S
N911 Co897 2.140 . S
N911 C914 1.346 . S
N911 C915 1.345 . S
C912 C913 1.387 . S
C912 C916 1.391 . S
C913 C912 1.387 . S
C913 C914 1.369 . S
C913 H922 0.929 . S
C914 N911 1.346 . S
C914 C913 1.369 . S
C914 H917 0.928 . S
C915 N911 1.345 . S
C915 C916 1.371 . S
C915 H918 0.931 . S
C916 C912 1.391 . S
C916 C915 1.371 . S
C916 H923 0.930 . S
H917 C914 0.928 . S
H918 C915 0.931 . S
H919 C895 0.930 . S
H920 C892 0.930 . S
H921 C901 0.930 . S
H922 C913 0.929 . S
H923 C916 0.930 . S
C924 C925 1.351 1_554 S
C924 N927 1.368 . S
C924 H929 0.931 1_554 S
C925 C924 1.351 1_556 S
C925 N926 1.373 1_556 S
C925 H953 0.930 . S
N926 C925 1.373 1_554 S
N926 C928 1.340 . S
N927 C924 1.368 . S
N927 C928 1.321 . S
N927 Co930 2.135 . S
C928 N926 1.340 . S
C928 N927 1.321 . S
C928 H952 0.930 . S
H929 C924 0.931 1_556 S
Co930 N927 2.135 . S
Co930 N933 2.121 . S
Co930 O938 2.055 . S
Co930 O941 2.039 . S
Co930 N944 2.140 . S
C931 O932 1.227 . S
C931 O941 1.265 . S
O932 C931 1.227 . S
N933 Co930 2.121 . S
N933 C935 1.375 . S
N933 C936 1.313 . S
C934 C935 1.338 . S
C934 N937 1.377 . S
C934 H954 0.930 . S
C935 N933 1.375 . S
C935 C934 1.338 . S
C935 H939 0.931 . S
C936 N933 1.313 . S
C936 N937 1.344 . S
C936 H940 0.930 . S
N937 C934 1.377 . S
N937 C936 1.344 . S
O938 Co930 2.055 . S
O938 C942 1.253 . S
H939 C935 0.931 . S
H940 C936 0.930 . S
O941 Co930 2.039 . S
O941 C931 1.265 . S
C942 O938 1.253 . S
C942 O943 1.227 . S
O943 C942 1.227 . S
N944 Co930 2.140 . S
N944 C947 1.346 . S
N944 C948 1.345 . S
C945 C946 1.387 . S
C945 C949 1.391 . S
C946 C945 1.387 . S
C946 C947 1.369 . S
C946 H955 0.929 . S
C947 N944 1.346 . S
C947 C946 1.369 . S
C947 H950 0.928 . S
C948 N944 1.345 . S
C948 C949 1.371 . S
C948 H951 0.931 . S
C949 C945 1.391 . S
C949 C948 1.371 . S
C949 H956 0.930 . S
H950 C947 0.928 . S
H951 C948 0.931 . S
H952 C928 0.930 . S
H953 C925 0.930 . S
H954 C934 0.930 . S
H955 C946 0.929 . S
H956 C949 0.930 . S
C957 C958 1.351 1_554 S
C957 N960 1.368 . S
C957 H962 0.931 1_554 S
C958 C957 1.351 1_556 S
C958 N959 1.373 1_556 S
C958 H986 0.930 . S
N959 C958 1.373 1_554 S
N959 C961 1.340 . S
N960 C957 1.368 . S
N960 C961 1.321 . S
N960 Co963 2.135 . S
C961 N959 1.340 . S
C961 N960 1.321 . S
C961 H985 0.930 . S
H962 C957 0.931 1_556 S
Co963 N960 2.135 . S
Co963 N966 2.121 . S
Co963 O971 2.055 . S
Co963 O974 2.039 . S
Co963 N977 2.140 . S
C964 O965 1.227 . S
C964 O974 1.265 . S
O965 C964 1.227 . S
N966 Co963 2.121 . S
N966 C968 1.375 . S
N966 C969 1.313 . S
C967 C968 1.338 . S
C967 N970 1.377 . S
C967 H987 0.930 . S
C968 N966 1.375 . S
C968 C967 1.338 . S
C968 H972 0.931 . S
C969 N966 1.313 . S
C969 N970 1.344 . S
C969 H973 0.930 . S
N970 C967 1.377 . S
N970 C969 1.344 . S
O971 Co963 2.055 . S
O971 C975 1.253 . S
H972 C968 0.931 . S
H973 C969 0.930 . S
O974 Co963 2.039 . S
O974 C964 1.265 . S
C975 O971 1.253 . S
C975 O976 1.227 . S
O976 C975 1.227 . S
N977 Co963 2.140 . S
N977 C980 1.346 . S
N977 C981 1.345 . S
C978 C979 1.387 . S
C978 C982 1.391 . S
C979 C978 1.387 . S
C979 C980 1.369 . S
C979 H988 0.929 . S
C980 N977 1.346 . S
C980 C979 1.369 . S
C980 H983 0.928 . S
C981 N977 1.345 . S
C981 C982 1.371 . S
C981 H984 0.931 . S
C982 C978 1.391 . S
C982 C981 1.371 . S
C982 H989 0.930 . S
H983 C980 0.928 . S
H984 C981 0.931 . S
H985 C961 0.930 . S
H986 C958 0.930 . S
H987 C967 0.930 . S
H988 C979 0.929 . S
H989 C982 0.930 . S
C990 C991 1.351 . S
C990 N993 1.368 . S
C990 H995 0.931 . S
C991 C990 1.351 . S
C991 N992 1.373 . S
C991 H1019 0.930 . S
N992 C991 1.373 . S
N992 C994 1.340 . S
N993 C990 1.368 . S
N993 C994 1.321 . S
N993 Co996 2.135 . S
C994 N992 1.340 . S
C994 N993 1.321 . S
C994 H1018 0.930 . S
H995 C990 0.931 . S
Co996 N993 2.135 . S
Co996 N999 2.121 . S
Co996 O1004 2.055 . S
Co996 O1007 2.039 . S
Co996 N1010 2.140 . S
C997 O998 1.227 . S
C997 O1007 1.265 . S
O998 C997 1.227 . S
N999 Co996 2.121 . S
N999 C1001 1.375 . S
N999 C1002 1.313 . S
C1000 C1001 1.338 . S
C1000 N1003 1.377 . S
C1000 H1020 0.930 . S
C1001 N999 1.375 . S
C1001 C1000 1.338 . S
C1001 H1005 0.931 . S
C1002 N999 1.313 . S
C1002 N1003 1.344 . S
C1002 H1006 0.930 . S
N1003 C1000 1.377 . S
N1003 C1002 1.344 . S
O1004 Co996 2.055 . S
O1004 C1008 1.253 . S
H1005 C1001 0.931 . S
H1006 C1002 0.930 . S
O1007 Co996 2.039 . S
O1007 C997 1.265 . S
C1008 O1004 1.253 . S
C1008 O1009 1.227 . S
O1009 C1008 1.227 . S
N1010 Co996 2.140 . S
N1010 C1013 1.346 . S
N1010 C1014 1.345 . S
C1011 C1012 1.387 . S
C1011 C1015 1.391 . S
C1012 C1011 1.387 . S
C1012 C1013 1.369 . S
C1012 H1021 0.929 . S
C1013 N1010 1.346 . S
C1013 C1012 1.369 . S
C1013 H1016 0.928 . S
C1014 N1010 1.345 . S
C1014 C1015 1.371 . S
C1014 H1017 0.931 . S
C1015 C1011 1.391 . S
C1015 C1014 1.371 . S
C1015 H1022 0.930 . S
H1016 C1013 0.928 . S
H1017 C1014 0.931 . S
H1018 C994 0.930 . S
H1019 C991 0.930 . S
H1020 C1000 0.930 . S
H1021 C1012 0.929 . S
H1022 C1015 0.930 . S
C1023 C1024 1.351 . S
C1023 N1026 1.368 . S
C1023 H1028 0.931 . S
C1024 C1023 1.351 . S
C1024 N1025 1.373 . S
C1024 H1052 0.930 . S
N1025 C1024 1.373 . S
N1025 C1027 1.340 . S
N1026 C1023 1.368 . S
N1026 C1027 1.321 . S
N1026 Co1029 2.135 . S
C1027 N1025 1.340 . S
C1027 N1026 1.321 . S
C1027 H1051 0.930 . S
H1028 C1023 0.931 . S
Co1029 N1026 2.135 . S
Co1029 N1032 2.121 . S
Co1029 O1037 2.055 . S
Co1029 O1040 2.039 . S
Co1029 N1043 2.140 . S
C1030 O1031 1.227 . S
C1030 O1040 1.265 . S
O1031 C1030 1.227 . S
N1032 Co1029 2.121 . S
N1032 C1034 1.375 . S
N1032 C1035 1.313 . S
C1033 C1034 1.338 . S
C1033 N1036 1.377 . S
C1033 H1053 0.930 . S
C1034 N1032 1.375 . S
C1034 C1033 1.338 . S
C1034 H1038 0.931 . S
C1035 N1032 1.313 . S
C1035 N1036 1.344 . S
C1035 H1039 0.930 . S
N1036 C1033 1.377 . S
N1036 C1035 1.344 . S
O1037 Co1029 2.055 . S
O1037 C1041 1.253 . S
H1038 C1034 0.931 . S
H1039 C1035 0.930 . S
O1040 Co1029 2.039 . S
O1040 C1030 1.265 . S
C1041 O1037 1.253 . S
C1041 O1042 1.227 . S
O1042 C1041 1.227 . S
N1043 Co1029 2.140 . S
N1043 C1046 1.346 . S
N1043 C1047 1.345 . S
C1044 C1045 1.387 . S
C1044 C1048 1.391 . S
C1045 C1044 1.387 . S
C1045 C1046 1.369 . S
C1045 H1054 0.929 . S
C1046 N1043 1.346 . S
C1046 C1045 1.369 . S
C1046 H1049 0.928 . S
C1047 N1043 1.345 . S
C1047 C1048 1.371 . S
C1047 H1050 0.931 . S
C1048 C1044 1.391 . S
C1048 C1047 1.371 . S
C1048 H1055 0.930 . S
H1049 C1046 0.928 . S
H1050 C1047 0.931 . S
H1051 C1027 0.930 . S
H1052 C1024 0.930 . S
H1053 C1033 0.930 . S
H1054 C1045 0.929 . S
H1055 C1048 0.930 . S
C1056 C1057 1.351 . S
C1056 N1059 1.368 . S
C1056 H1061 0.931 . S
C1057 C1056 1.351 . S
C1057 N1058 1.373 . S
C1057 H1085 0.930 . S
N1058 C1057 1.373 . S
N1058 C1060 1.340 . S
N1059 C1056 1.368 . S
N1059 C1060 1.321 . S
N1059 Co1062 2.135 . S
C1060 N1058 1.340 . S
C1060 N1059 1.321 . S
C1060 H1084 0.930 . S
H1061 C1056 0.931 . S
Co1062 N1059 2.135 . S
Co1062 N1065 2.121 . S
Co1062 O1070 2.055 . S
Co1062 O1073 2.039 . S
Co1062 N1076 2.140 . S
C1063 O1064 1.227 . S
C1063 O1073 1.265 . S
O1064 C1063 1.227 . S
N1065 Co1062 2.121 . S
N1065 C1067 1.375 . S
N1065 C1068 1.313 . S
C1066 C1067 1.338 . S
C1066 N1069 1.377 . S
C1066 H1086 0.930 . S
C1067 N1065 1.375 . S
C1067 C1066 1.338 . S
C1067 H1071 0.931 . S
C1068 N1065 1.313 . S
C1068 N1069 1.344 . S
C1068 H1072 0.930 . S
N1069 C1066 1.377 . S
N1069 C1068 1.344 . S
O1070 Co1062 2.055 . S
O1070 C1074 1.253 . S
H1071 C1067 0.931 . S
H1072 C1068 0.930 . S
O1073 Co1062 2.039 . S
O1073 C1063 1.265 . S
C1074 O1070 1.253 . S
C1074 O1075 1.227 . S
O1075 C1074 1.227 . S
N1076 Co1062 2.140 . S
N1076 C1079 1.346 . S
N1076 C1080 1.345 . S
C1077 C1078 1.387 . S
C1077 C1081 1.391 . S
C1078 C1077 1.387 . S
C1078 C1079 1.369 . S
C1078 H1087 0.929 . S
C1079 N1076 1.346 . S
C1079 C1078 1.369 . S
C1079 H1082 0.928 . S
C1080 N1076 1.345 . S
C1080 C1081 1.371 . S
C1080 H1083 0.931 . S
C1081 C1077 1.391 . S
C1081 C1080 1.371 . S
C1081 H1088 0.930 . S
H1082 C1079 0.928 . S
H1083 C1080 0.931 . S
H1084 C1060 0.930 . S
H1085 C1057 0.930 . S
H1086 C1066 0.930 . S
H1087 C1078 0.929 . S
H1088 C1081 0.930 . S
C1089 C1090 1.351 . S
C1089 N1092 1.368 . S
C1089 H1094 0.931 . S
C1090 C1089 1.351 . S
C1090 N1091 1.373 . S
C1090 H1118 0.930 . S
N1091 C1090 1.373 . S
N1091 C1093 1.340 . S
N1092 C1089 1.368 . S
N1092 C1093 1.321 . S
N1092 Co1095 2.135 . S
C1093 N1091 1.340 . S
C1093 N1092 1.321 . S
C1093 H1117 0.930 . S
H1094 C1089 0.931 . S
Co1095 N1092 2.135 . S
Co1095 N1098 2.121 . S
Co1095 O1103 2.055 . S
Co1095 O1106 2.039 . S
Co1095 N1109 2.140 . S
C1096 O1097 1.227 . S
C1096 O1106 1.265 . S
O1097 C1096 1.227 . S
N1098 Co1095 2.121 . S
N1098 C1100 1.375 . S
N1098 C1101 1.313 . S
C1099 C1100 1.338 . S
C1099 N1102 1.377 . S
C1099 H1119 0.930 . S
C1100 N1098 1.375 . S
C1100 C1099 1.338 . S
C1100 H1104 0.931 . S
C1101 N1098 1.313 . S
C1101 N1102 1.344 . S
C1101 H1105 0.930 . S
N1102 C1099 1.377 . S
N1102 C1101 1.344 . S
O1103 Co1095 2.055 . S
O1103 C1107 1.253 . S
H1104 C1100 0.931 . S
H1105 C1101 0.930 . S
O1106 Co1095 2.039 . S
O1106 C1096 1.265 . S
C1107 O1103 1.253 . S
C1107 O1108 1.227 . S
O1108 C1107 1.227 . S
N1109 Co1095 2.140 . S
N1109 C1112 1.346 . S
N1109 C1113 1.345 . S
C1110 C1111 1.387 . S
C1110 C1114 1.391 . S
C1111 C1110 1.387 . S
C1111 C1112 1.369 . S
C1111 H1120 0.929 . S
C1112 N1109 1.346 . S
C1112 C1111 1.369 . S
C1112 H1115 0.928 . S
C1113 N1109 1.345 . S
C1113 C1114 1.371 . S
C1113 H1116 0.931 . S
C1114 C1110 1.391 . S
C1114 C1113 1.371 . S
C1114 H1121 0.930 . S
H1115 C1112 0.928 . S
H1116 C1113 0.931 . S
H1117 C1093 0.930 . S
H1118 C1090 0.930 . S
H1119 C1099 0.930 . S
H1120 C1111 0.929 . S
H1121 C1114 0.930 . S
C1122 C1123 1.351 . S
C1122 N1125 1.368 . S
C1122 H1127 0.931 . S
C1123 C1122 1.351 . S
C1123 N1124 1.373 . S
C1123 H1151 0.930 . S
N1124 C1123 1.373 . S
N1124 C1126 1.340 . S
N1125 C1122 1.368 . S
N1125 C1126 1.321 . S
N1125 Co1128 2.135 . S
C1126 N1124 1.340 . S
C1126 N1125 1.321 . S
C1126 H1150 0.930 . S
H1127 C1122 0.931 . S
Co1128 N1125 2.135 . S
Co1128 N1131 2.121 . S
Co1128 O1136 2.055 . S
Co1128 O1139 2.039 . S
Co1128 N1142 2.140 . S
C1129 O1130 1.227 . S
C1129 O1139 1.265 . S
O1130 C1129 1.227 . S
N1131 Co1128 2.121 . S
N1131 C1133 1.375 . S
N1131 C1134 1.313 . S
C1132 C1133 1.338 . S
C1132 N1135 1.377 . S
C1132 H1152 0.930 . S
C1133 N1131 1.375 . S
C1133 C1132 1.338 . S
C1133 H1137 0.931 . S
C1134 N1131 1.313 . S
C1134 N1135 1.344 . S
C1134 H1138 0.930 . S
N1135 C1132 1.377 . S
N1135 C1134 1.344 . S
O1136 Co1128 2.055 . S
O1136 C1140 1.253 . S
H1137 C1133 0.931 . S
H1138 C1134 0.930 . S
O1139 Co1128 2.039 . S
O1139 C1129 1.265 . S
C1140 O1136 1.253 . S
C1140 O1141 1.227 . S
O1141 C1140 1.227 . S
N1142 Co1128 2.140 . S
N1142 C1145 1.346 . S
N1142 C1146 1.345 . S
C1143 C1144 1.387 . S
C1143 C1147 1.391 . S
C1144 C1143 1.387 . S
C1144 C1145 1.369 . S
C1144 H1153 0.929 . S
C1145 N1142 1.346 . S
C1145 C1144 1.369 . S
C1145 H1148 0.928 . S
C1146 N1142 1.345 . S
C1146 C1147 1.371 . S
C1146 H1149 0.931 . S
C1147 C1143 1.391 . S
C1147 C1146 1.371 . S
C1147 H1154 0.930 . S
H1148 C1145 0.928 . S
H1149 C1146 0.931 . S
H1150 C1126 0.930 . S
H1151 C1123 0.930 . S
H1152 C1132 0.930 . S
H1153 C1144 0.929 . S
H1154 C1147 0.930 . S
C1155 C1156 1.351 . S
C1155 N1158 1.368 . S
C1155 H1160 0.931 . S
C1156 C1155 1.351 . S
C1156 N1157 1.373 . S
C1156 H1184 0.930 . S
N1157 C1156 1.373 . S
N1157 C1159 1.340 . S
N1158 C1155 1.368 . S
N1158 C1159 1.321 . S
N1158 Co1161 2.135 . S
C1159 N1157 1.340 . S
C1159 N1158 1.321 . S
C1159 H1183 0.930 . S
H1160 C1155 0.931 . S
Co1161 N1158 2.135 . S
Co1161 N1164 2.121 . S
Co1161 O1169 2.055 . S
Co1161 O1172 2.039 . S
Co1161 N1175 2.140 . S
C1162 O1163 1.227 . S
C1162 O1172 1.265 . S
O1163 C1162 1.227 . S
N1164 Co1161 2.121 . S
N1164 C1166 1.375 . S
N1164 C1167 1.313 . S
C1165 C1166 1.338 . S
C1165 N1168 1.377 . S
C1165 H1185 0.930 . S
C1166 N1164 1.375 . S
C1166 C1165 1.338 . S
C1166 H1170 0.931 . S
C1167 N1164 1.313 . S
C1167 N1168 1.344 . S
C1167 H1171 0.930 . S
N1168 C1165 1.377 . S
N1168 C1167 1.344 . S
O1169 Co1161 2.055 . S
O1169 C1173 1.253 . S
H1170 C1166 0.931 . S
H1171 C1167 0.930 . S
O1172 Co1161 2.039 . S
O1172 C1162 1.265 . S
C1173 O1169 1.253 . S
C1173 O1174 1.227 . S
O1174 C1173 1.227 . S
N1175 Co1161 2.140 . S
N1175 C1178 1.346 . S
N1175 C1179 1.345 . S
C1176 C1177 1.387 . S
C1176 C1180 1.391 . S
C1177 C1176 1.387 . S
C1177 C1178 1.369 . S
C1177 H1186 0.929 . S
C1178 N1175 1.346 . S
C1178 C1177 1.369 . S
C1178 H1181 0.928 . S
C1179 N1175 1.345 . S
C1179 C1180 1.371 . S
C1179 H1182 0.931 . S
C1180 C1176 1.391 . S
C1180 C1179 1.371 . S
C1180 H1187 0.930 . S
H1181 C1178 0.928 . S
H1182 C1179 0.931 . S
H1183 C1159 0.930 . S
H1184 C1156 0.930 . S
H1185 C1165 0.930 . S
H1186 C1177 0.929 . S
H1187 C1180 0.930 . S
C1188 C1189 1.387 . S
C1188 H1192 0.950 . S
C1188 C1197 1.390 . S
C1189 C1188 1.387 . S
C1189 C1191 1.387 . S
H1190 C1197 0.950 . S
C1191 C1189 1.387 . S
C1191 C1193 1.390 . S
C1191 H1195 0.950 . S
H1192 C1188 0.950 . S
C1193 C1191 1.390 . S
C1193 C1194 1.387 . S
C1193 H1196 0.950 . S
C1194 C1193 1.387 . S
C1194 C1197 1.387 . S
H1195 C1191 0.950 . S
H1196 C1193 0.950 . S
C1197 C1188 1.390 . S
C1197 H1190 0.950 . S
C1197 C1194 1.387 . S
C1198 C1199 1.387 . S
C1198 H1202 0.950 . S
C1198 C1207 1.390 . S
C1199 C1198 1.387 . S
C1199 C1201 1.387 . S
H1200 C1207 0.950 . S
C1201 C1199 1.387 . S
C1201 C1203 1.390 . S
C1201 H1205 0.950 . S
H1202 C1198 0.950 . S
C1203 C1201 1.390 . S
C1203 C1204 1.387 . S
C1203 H1206 0.950 . S
C1204 C1203 1.387 . S
C1204 C1207 1.387 . S
H1205 C1201 0.950 . S
H1206 C1203 0.950 . S
C1207 C1198 1.390 . S
C1207 H1200 0.950 . S
C1207 C1204 1.387 . S
C1208 C1209 1.387 . S
C1208 H1212 0.950 . S
C1208 C1217 1.390 . S
C1209 C1208 1.387 . S
C1209 C1211 1.387 . S
H1210 C1217 0.950 . S
C1211 C1209 1.387 . S
C1211 C1213 1.390 . S
C1211 H1215 0.950 . S
H1212 C1208 0.950 . S
C1213 C1211 1.390 . S
C1213 C1214 1.387 . S
C1213 H1216 0.950 . S
C1214 C1213 1.387 . S
C1214 C1217 1.387 . S
H1215 C1211 0.950 . S
H1216 C1213 0.950 . S
C1217 C1208 1.390 . S
C1217 H1210 0.950 . S
C1217 C1214 1.387 . S
C1218 C1219 1.387 . S
C1218 H1222 0.950 . S
C1218 C1227 1.390 . S
C1219 C1218 1.387 . S
C1219 C1221 1.387 . S
H1220 C1227 0.950 . S
C1221 C1219 1.387 . S
C1221 C1223 1.390 . S
C1221 H1225 0.950 . S
H1222 C1218 0.950 . S
C1223 C1221 1.390 . S
C1223 C1224 1.387 . S
C1223 H1226 0.950 . S
C1224 C1223 1.387 . S
C1224 C1227 1.387 . S
H1225 C1221 0.950 . S
H1226 C1223 0.950 . S
C1227 C1218 1.390 . S
C1227 H1220 0.950 . S
C1227 C1224 1.387 . S
C1228 C1229 1.387 . S
C1228 H1232 0.950 . S
C1228 C1237 1.390 . S
C1229 C1228 1.387 . S
C1229 C1231 1.387 . S
H1230 C1237 0.950 . S
C1231 C1229 1.387 . S
C1231 C1233 1.390 . S
C1231 H1235 0.950 . S
H1232 C1228 0.950 . S
C1233 C1231 1.390 . S
C1233 C1234 1.387 . S
C1233 H1236 0.950 . S
C1234 C1233 1.387 . S
C1234 C1237 1.387 . S
H1235 C1231 0.950 . S
H1236 C1233 0.950 . S
C1237 C1228 1.390 . S
C1237 H1230 0.950 . S
C1237 C1234 1.387 . S
C1238 C1239 1.387 . S
C1238 H1242 0.950 . S
C1238 C1247 1.390 . S
C1239 C1238 1.387 . S
C1239 C1241 1.387 . S
H1240 C1247 0.950 . S
C1241 C1239 1.387 . S
C1241 C1243 1.390 . S
C1241 H1245 0.950 . S
H1242 C1238 0.950 . S
C1243 C1241 1.390 . S
C1243 C1244 1.387 . S
C1243 H1246 0.950 . S
C1244 C1243 1.387 . S
C1244 C1247 1.387 . S
H1245 C1241 0.950 . S
H1246 C1243 0.950 . S
C1247 C1238 1.390 . S
C1247 H1240 0.950 . S
C1247 C1244 1.387 . S
C1248 C1249 1.387 . S
C1248 H1252 0.950 . S
C1248 C1257 1.390 . S
C1249 C1248 1.387 . S
C1249 C1251 1.387 . S
H1250 C1257 0.950 . S
C1251 C1249 1.387 . S
C1251 C1253 1.390 . S
C1251 H1255 0.950 . S
H1252 C1248 0.950 . S
C1253 C1251 1.390 . S
C1253 C1254 1.387 . S
C1253 H1256 0.950 . S
C1254 C1253 1.387 . S
C1254 C1257 1.387 . S
H1255 C1251 0.950 . S
H1256 C1253 0.950 . S
C1257 C1248 1.390 . S
C1257 H1250 0.950 . S
C1257 C1254 1.387 . S
C1258 C1259 1.387 . S
C1258 H1262 0.950 . S
C1258 C1267 1.390 . S
C1259 C1258 1.387 . S
C1259 C1261 1.387 . S
H1260 C1267 0.950 . S
C1261 C1259 1.387 . S
C1261 C1263 1.390 . S
C1261 H1265 0.950 . S
H1262 C1258 0.950 . S
C1263 C1261 1.390 . S
C1263 C1264 1.387 . S
C1263 H1266 0.950 . S
C1264 C1263 1.387 . S
C1264 C1267 1.387 . S
H1265 C1261 0.950 . S
H1266 C1263 0.950 . S
C1267 C1258 1.390 . S
C1267 H1260 0.950 . S
C1267 C1264 1.387 . S
C1268 C1269 1.387 . S
C1268 H1272 0.950 . S
C1268 C1277 1.390 . S
C1269 C1268 1.387 . S
C1269 C1271 1.387 . S
H1270 C1277 0.950 . S
C1271 C1269 1.387 . S
C1271 C1273 1.390 . S
C1271 H1275 0.950 . S
H1272 C1268 0.950 . S
C1273 C1271 1.390 . S
C1273 C1274 1.387 . S
C1273 H1276 0.950 . S
C1274 C1273 1.387 . S
C1274 C1277 1.387 . S
H1275 C1271 0.950 . S
H1276 C1273 0.950 . S
C1277 C1268 1.390 . S
C1277 H1270 0.950 . S
C1277 C1274 1.387 . S
C1278 C1279 1.387 . S
C1278 H1282 0.950 . S
C1278 C1287 1.390 . S
C1279 C1278 1.387 . S
C1279 C1281 1.387 . S
H1280 C1287 0.950 . S
C1281 C1279 1.387 . S
C1281 C1283 1.390 . S
C1281 H1285 0.950 . S
H1282 C1278 0.950 . S
C1283 C1281 1.390 . S
C1283 C1284 1.387 . S
C1283 H1286 0.950 . S
C1284 C1283 1.387 . S
C1284 C1287 1.387 . S
H1285 C1281 0.950 . S
H1286 C1283 0.950 . S
C1287 C1278 1.390 . S
C1287 H1280 0.950 . S
C1287 C1284 1.387 . S
C1288 C1289 1.387 . S
C1288 H1292 0.950 . S
C1288 C1297 1.390 . S
C1289 C1288 1.387 . S
C1289 C1291 1.387 . S
H1290 C1297 0.950 . S
C1291 C1289 1.387 . S
C1291 C1293 1.390 . S
C1291 H1295 0.950 . S
H1292 C1288 0.950 . S
C1293 C1291 1.390 . S
C1293 C1294 1.387 . S
C1293 H1296 0.950 . S
C1294 C1293 1.387 . S
C1294 C1297 1.387 . S
H1295 C1291 0.950 . S
H1296 C1293 0.950 . S
C1297 C1288 1.390 . S
C1297 H1290 0.950 . S
C1297 C1294 1.387 . S
C1298 C1299 1.387 . S
C1298 H1302 0.950 . S
C1298 C1307 1.390 . S
C1299 C1298 1.387 . S
C1299 C1301 1.387 . S
H1300 C1307 0.950 . S
C1301 C1299 1.387 . S
C1301 C1303 1.390 . S
C1301 H1305 0.950 . S
H1302 C1298 0.950 . S
C1303 C1301 1.390 . S
C1303 C1304 1.387 . S
C1303 H1306 0.950 . S
C1304 C1303 1.387 . S
C1304 C1307 1.387 . S
H1305 C1301 0.950 . S
H1306 C1303 0.950 . S
C1307 C1298 1.390 . S
C1307 H1300 0.950 . S
C1307 C1304 1.387 . S
C1308 C1309 1.387 . S
C1308 H1312 0.950 . S
C1308 C1317 1.390 1_655 S
C1309 C1308 1.387 . S
C1309 C1311 1.387 . S
H1310 C1317 0.950 . S
C1311 C1309 1.387 . S
C1311 C1313 1.390 1_655 S
C1311 H1315 0.950 . S
H1312 C1308 0.950 . S
C1313 C1311 1.390 1_455 S
C1313 C1314 1.387 . S
C1313 H1316 0.950 . S
C1314 C1313 1.387 . S
C1314 C1317 1.387 . S
H1315 C1311 0.950 . S
H1316 C1313 0.950 . S
C1317 C1308 1.390 1_455 S
C1317 H1310 0.950 . S
C1317 C1314 1.387 . S
C1318 C1319 1.387 . S
C1318 H1322 0.950 . S
C1318 C1327 1.390 . S
C1319 C1318 1.387 . S
C1319 C1321 1.387 . S
H1320 C1327 0.950 . S
C1321 C1319 1.387 . S
C1321 C1323 1.390 . S
C1321 H1325 0.950 . S
H1322 C1318 0.950 . S
C1323 C1321 1.390 . S
C1323 C1324 1.387 . S
C1323 H1326 0.950 . S
C1324 C1323 1.387 . S
C1324 C1327 1.387 . S
H1325 C1321 0.950 . S
H1326 C1323 0.950 . S
C1327 C1318 1.390 . S
C1327 H1320 0.950 . S
C1327 C1324 1.387 . S
C1328 C1329 1.387 . S
C1328 H1332 0.950 . S
C1328 C1337 1.390 1_565 S
C1329 C1328 1.387 . S
C1329 C1331 1.387 . S
H1330 C1337 0.950 . S
C1331 C1329 1.387 . S
C1331 C1333 1.390 1_565 S
C1331 H1335 0.950 . S
H1332 C1328 0.950 . S
C1333 C1331 1.390 1_545 S
C1333 C1334 1.387 . S
C1333 H1336 0.950 . S
C1334 C1333 1.387 . S
C1334 C1337 1.387 . S
H1335 C1331 0.950 . S
H1336 C1333 0.950 . S
C1337 C1328 1.390 1_545 S
C1337 H1330 0.950 . S
C1337 C1334 1.387 . S
C1338 C1339 1.387 . S
C1338 H1342 0.950 . S
C1338 C1347 1.390 1_565 S
C1339 C1338 1.387 . S
C1339 C1341 1.387 1_554 S
H1340 C1347 0.950 . S
C1341 C1339 1.387 1_556 S
C1341 C1343 1.390 1_565 S
C1341 H1345 0.950 . S
H1342 C1338 0.950 . S
C1343 C1341 1.390 1_545 S
C1343 C1344 1.387 . S
C1343 H1346 0.950 . S
C1344 C1343 1.387 . S
C1344 C1347 1.387 1_556 S
H1345 C1341 0.950 . S
H1346 C1343 0.950 . S
C1347 C1338 1.390 1_545 S
C1347 H1340 0.950 . S
C1347 C1344 1.387 1_554 S
C1348 C1349 1.387 1_554 S
C1348 H1352 0.950 . S
C1348 C1357 1.390 . S
C1349 C1348 1.387 1_556 S
C1349 C1351 1.387 1_655 S
H1350 C1357 0.950 . S
C1351 C1349 1.387 1_455 S
C1351 C1353 1.390 . S
C1351 H1355 0.950 . S
H1352 C1348 0.950 . S
C1353 C1351 1.390 . S
C1353 C1354 1.387 1_556 S
C1353 H1356 0.950 . S
C1354 C1353 1.387 1_554 S
C1354 C1357 1.387 1_455 S
H1355 C1351 0.950 . S
H1356 C1353 0.950 . S
C1357 C1348 1.390 . S
C1357 H1350 0.950 . S
C1357 C1354 1.387 1_655 S
C1358 C1359 1.387 . S
C1358 H1362 0.950 . S
C1358 C1367 1.390 . S
C1359 C1358 1.387 . S
C1359 C1361 1.387 1_554 S
H1360 C1367 0.950 . S
C1361 C1359 1.387 1_556 S
C1361 C1363 1.390 . S
C1361 H1365 0.950 . S
H1362 C1358 0.950 . S
C1363 C1361 1.390 . S
C1363 C1364 1.387 . S
C1363 H1366 0.950 . S
C1364 C1363 1.387 . S
C1364 C1367 1.387 1_556 S
H1365 C1361 0.950 . S
H1366 C1363 0.950 . S
C1367 C1358 1.390 . S
C1367 H1360 0.950 . S
C1367 C1364 1.387 1_554 S
C1368 C1369 1.387 1_556 S
C1368 H1372 0.950 . S
C1368 C1377 1.390 . S
C1369 C1368 1.387 1_554 S
C1369 C1371 1.387 . S
H1370 C1377 0.950 . S
C1371 C1369 1.387 . S
C1371 C1373 1.390 . S
C1371 H1375 0.950 . S
H1372 C1368 0.950 . S
C1373 C1371 1.390 . S
C1373 C1374 1.387 . S
C1373 H1376 0.950 . S
C1374 C1373 1.387 . S
C1374 C1377 1.387 1_554 S
H1375 C1371 0.950 . S
H1376 C1373 0.950 . S
C1377 C1368 1.390 . S
C1377 H1370 0.950 . S
C1377 C1374 1.387 1_556 S
C1378 C1379 1.387 . S
C1378 H1382 0.950 . S
C1378 C1387 1.390 . S
C1379 C1378 1.387 . S
C1379 C1381 1.387 1_554 S
H1380 C1387 0.950 . S
C1381 C1379 1.387 1_556 S
C1381 C1383 1.390 . S
C1381 H1385 0.950 . S
H1382 C1378 0.950 . S
C1383 C1381 1.390 . S
C1383 C1384 1.387 1_556 S
C1383 H1386 0.950 . S
C1384 C1383 1.387 1_554 S
C1384 C1387 1.387 . S
H1385 C1381 0.950 . S
H1386 C1383 0.950 . S
C1387 C1378 1.390 . S
C1387 H1380 0.950 . S
C1387 C1384 1.387 . S
C1388 C1389 1.387 . S
C1388 H1392 0.950 . S
C1388 C1397 1.390 . S
C1389 C1388 1.387 . S
C1389 C1391 1.387 . S
H1390 C1397 0.950 . S
C1391 C1389 1.387 . S
C1391 C1393 1.390 . S
C1391 H1395 0.950 . S
H1392 C1388 0.950 . S
C1393 C1391 1.390 . S
C1393 C1394 1.387 . S
C1393 H1396 0.950 . S
C1394 C1393 1.387 . S
C1394 C1397 1.387 . S
H1395 C1391 0.950 . S
H1396 C1393 0.950 . S
C1397 C1388 1.390 . S
C1397 H1390 0.950 . S
C1397 C1394 1.387 . S
C1398 C1399 1.387 . S
C1398 H1402 0.950 . S
C1398 C1407 1.390 . S
C1399 C1398 1.387 . S
C1399 C1401 1.387 . S
H1400 C1407 0.950 . S
C1401 C1399 1.387 . S
C1401 C1403 1.390 . S
C1401 H1405 0.950 . S
H1402 C1398 0.950 . S
C1403 C1401 1.390 . S
C1403 C1404 1.387 . S
C1403 H1406 0.950 . S
C1404 C1403 1.387 . S
C1404 C1407 1.387 . S
H1405 C1401 0.950 . S
H1406 C1403 0.950 . S
C1407 C1398 1.390 . S
C1407 H1400 0.950 . S
C1407 C1404 1.387 . S
C1408 C1409 1.387 . S
C1408 H1412 0.950 . S
C1408 C1417 1.390 . S
C1409 C1408 1.387 . S
C1409 C1411 1.387 . S
H1410 C1417 0.950 . S
C1411 C1409 1.387 . S
C1411 C1413 1.390 . S
C1411 H1415 0.950 . S
H1412 C1408 0.950 . S
C1413 C1411 1.390 . S
C1413 C1414 1.387 . S
C1413 H1416 0.950 . S
C1414 C1413 1.387 . S
C1414 C1417 1.387 . S
H1415 C1411 0.950 . S
H1416 C1413 0.950 . S
C1417 C1408 1.390 . S
C1417 H1410 0.950 . S
C1417 C1414 1.387 . S
C1418 C1419 1.387 . S
C1418 H1422 0.950 . S
C1418 C1427 1.390 . S
C1419 C1418 1.387 . S
C1419 C1421 1.387 . S
H1420 C1427 0.950 . S
C1421 C1419 1.387 . S
C1421 C1423 1.390 . S
C1421 H1425 0.950 . S
H1422 C1418 0.950 . S
C1423 C1421 1.390 . S
C1423 C1424 1.387 . S
C1423 H1426 0.950 . S
C1424 C1423 1.387 . S
C1424 C1427 1.387 . S
H1425 C1421 0.950 . S
H1426 C1423 0.950 . S
C1427 C1418 1.390 . S
C1427 H1420 0.950 . S
C1427 C1424 1.387 . S
C1428 C1429 1.387 . S
C1428 H1432 0.950 . S
C1428 C1437 1.390 . S
C1429 C1428 1.387 . S
C1429 C1431 1.387 1_556 S
H1430 C1437 0.950 . S
C1431 C1429 1.387 1_554 S
C1431 C1433 1.390 . S
C1431 H1435 0.950 . S
H1432 C1428 0.950 . S
C1433 C1431 1.390 . S
C1433 C1434 1.387 1_554 S
C1433 H1436 0.950 . S
C1434 C1433 1.387 1_556 S
C1434 C1437 1.387 . S
H1435 C1431 0.950 . S
H1436 C1433 0.950 . S
C1437 C1428 1.390 . S
C1437 H1430 0.950 . S
C1437 C1434 1.387 . S
C1438 C1439 1.387 1_554 S
C1438 H1442 0.950 . S
C1438 C1447 1.390 . S
C1439 C1438 1.387 1_556 S
C1439 C1441 1.387 . S
H1440 C1447 0.950 . S
C1441 C1439 1.387 . S
C1441 C1443 1.390 . S
C1441 H1445 0.950 . S
H1442 C1438 0.950 . S
C1443 C1441 1.390 . S
C1443 C1444 1.387 . S
C1443 H1446 0.950 . S
C1444 C1443 1.387 . S
C1444 C1447 1.387 1_556 S
H1445 C1441 0.950 . S
H1446 C1443 0.950 . S
C1447 C1438 1.390 . S
C1447 H1440 0.950 . S
C1447 C1444 1.387 1_554 S
C1448 C1449 1.387 . S
C1448 H1452 0.950 . S
C1448 C1457 1.390 . S
C1449 C1448 1.387 . S
C1449 C1451 1.387 . S
H1450 C1457 0.950 . S
C1451 C1449 1.387 . S
C1451 C1453 1.390 . S
C1451 H1455 0.950 . S
H1452 C1448 0.950 . S
C1453 C1451 1.390 . S
C1453 C1454 1.387 . S
C1453 H1456 0.950 . S
C1454 C1453 1.387 . S
C1454 C1457 1.387 . S
H1455 C1451 0.950 . S
H1456 C1453 0.950 . S
C1457 C1448 1.390 . S
C1457 H1450 0.950 . S
C1457 C1454 1.387 . S
C1458 C1459 1.387 . S
C1458 H1462 0.950 . S
C1458 C1467 1.390 . S
C1459 C1458 1.387 . S
C1459 C1461 1.387 . S
H1460 C1467 0.950 . S
C1461 C1459 1.387 . S
C1461 C1463 1.390 . S
C1461 H1465 0.950 . S
H1462 C1458 0.950 . S
C1463 C1461 1.390 . S
C1463 C1464 1.387 . S
C1463 H1466 0.950 . S
C1464 C1463 1.387 . S
C1464 C1467 1.387 . S
H1465 C1461 0.950 . S
H1466 C1463 0.950 . S
C1467 C1458 1.390 . S
C1467 H1460 0.950 . S
C1467 C1464 1.387 . S
C1468 C1469 1.387 . S
C1468 H1472 0.950 . S
C1468 C1477 1.390 . S
C1469 C1468 1.387 . S
C1469 C1471 1.387 . S
H1470 C1477 0.950 . S
C1471 C1469 1.387 . S
C1471 C1473 1.390 . S
C1471 H1475 0.950 . S
H1472 C1468 0.950 . S
C1473 C1471 1.390 . S
C1473 C1474 1.387 . S
C1473 H1476 0.950 . S
C1474 C1473 1.387 . S
C1474 C1477 1.387 . S
H1475 C1471 0.950 . S
H1476 C1473 0.950 . S
C1477 C1468 1.390 . S
C1477 H1470 0.950 . S
C1477 C1474 1.387 . S
C1478 C1479 1.387 . S
C1478 H1482 0.950 . S
C1478 C1487 1.390 . S
C1479 C1478 1.387 . S
C1479 C1481 1.387 . S
H1480 C1487 0.950 . S
C1481 C1479 1.387 . S
C1481 C1483 1.390 . S
C1481 H1485 0.950 . S
H1482 C1478 0.950 . S
C1483 C1481 1.390 . S
C1483 C1484 1.387 . S
C1483 H1486 0.950 . S
C1484 C1483 1.387 . S
C1484 C1487 1.387 . S
H1485 C1481 0.950 . S
H1486 C1483 0.950 . S
C1487 C1478 1.390 . S
C1487 H1480 0.950 . S
C1487 C1484 1.387 . S
C1488 C1489 1.387 . S
C1488 H1492 0.950 . S
C1488 C1497 1.390 . S
C1489 C1488 1.387 . S
C1489 C1491 1.387 . S
H1490 C1497 0.950 . S
C1491 C1489 1.387 . S
C1491 C1493 1.390 . S
C1491 H1495 0.950 . S
H1492 C1488 0.950 . S
C1493 C1491 1.390 . S
C1493 C1494 1.387 . S
C1493 H1496 0.950 . S
C1494 C1493 1.387 . S
C1494 C1497 1.387 . S
H1495 C1491 0.950 . S
H1496 C1493 0.950 . S
C1497 C1488 1.390 . S
C1497 H1490 0.950 . S
C1497 C1494 1.387 . S
C1498 C1499 1.387 . S
C1498 H1502 0.950 . S
C1498 C1507 1.390 . S
C1499 C1498 1.387 . S
C1499 C1501 1.387 . S
H1500 C1507 0.950 . S
C1501 C1499 1.387 . S
C1501 C1503 1.390 . S
C1501 H1505 0.950 . S
H1502 C1498 0.950 . S
C1503 C1501 1.390 . S
C1503 C1504 1.387 . S
C1503 H1506 0.950 . S
C1504 C1503 1.387 . S
C1504 C1507 1.387 . S
H1505 C1501 0.950 . S
H1506 C1503 0.950 . S
C1507 C1498 1.390 . S
C1507 H1500 0.950 . S
C1507 C1504 1.387 . S
C1508 C1509 1.387 . S
C1508 H1512 0.950 . S
C1508 C1517 1.390 . S
C1509 C1508 1.387 . S
C1509 C1511 1.387 . S
H1510 C1517 0.950 . S
C1511 C1509 1.387 . S
C1511 C1513 1.390 . S
C1511 H1515 0.950 . S
H1512 C1508 0.950 . S
C1513 C1511 1.390 . S
C1513 C1514 1.387 . S
C1513 H1516 0.950 . S
C1514 C1513 1.387 . S
C1514 C1517 1.387 . S
H1515 C1511 0.950 . S
H1516 C1513 0.950 . S
C1517 C1508 1.390 . S
C1517 H1510 0.950 . S
C1517 C1514 1.387 . S
C1518 C1519 1.387 . S
C1518 H1522 0.950 . S
C1518 C1527 1.390 . S
C1519 C1518 1.387 . S
C1519 C1521 1.387 . S
H1520 C1527 0.950 . S
C1521 C1519 1.387 . S
C1521 C1523 1.390 . S
C1521 H1525 0.950 . S
H1522 C1518 0.950 . S
C1523 C1521 1.390 . S
C1523 C1524 1.387 . S
C1523 H1526 0.950 . S
C1524 C1523 1.387 . S
C1524 C1527 1.387 . S
H1525 C1521 0.950 . S
H1526 C1523 0.950 . S
C1527 C1518 1.390 . S
C1527 H1520 0.950 . S
C1527 C1524 1.387 . S
C1528 C1529 1.387 . S
C1528 H1532 0.950 . S
C1528 C1537 1.390 . S
C1529 C1528 1.387 . S
C1529 C1531 1.387 . S
H1530 C1537 0.950 . S
C1531 C1529 1.387 . S
C1531 C1533 1.390 . S
C1531 H1535 0.950 . S
H1532 C1528 0.950 . S
C1533 C1531 1.390 . S
C1533 C1534 1.387 . S
C1533 H1536 0.950 . S
C1534 C1533 1.387 . S
C1534 C1537 1.387 . S
H1535 C1531 0.950 . S
H1536 C1533 0.950 . S
C1537 C1528 1.390 . S
C1537 H1530 0.950 . S
C1537 C1534 1.387 . S
C1538 C1539 1.387 . S
C1538 H1542 0.950 . S
C1538 C1547 1.390 . S
C1539 C1538 1.387 . S
C1539 C1541 1.387 . S
H1540 C1547 0.950 . S
C1541 C1539 1.387 . S
C1541 C1543 1.390 . S
C1541 H1545 0.950 . S
H1542 C1538 0.950 . S
C1543 C1541 1.390 . S
C1543 C1544 1.387 . S
C1543 H1546 0.950 . S
C1544 C1543 1.387 . S
C1544 C1547 1.387 . S
H1545 C1541 0.950 . S
H1546 C1543 0.950 . S
C1547 C1538 1.390 . S
C1547 H1540 0.950 . S
C1547 C1544 1.387 . S
C1548 C1549 1.387 . S
C1548 H1552 0.950 . S
C1548 C1557 1.390 . S
C1549 C1548 1.387 . S
C1549 C1551 1.387 . S
H1550 C1557 0.950 . S
C1551 C1549 1.387 . S
C1551 C1553 1.390 . S
C1551 H1555 0.950 . S
H1552 C1548 0.950 . S
C1553 C1551 1.390 . S
C1553 C1554 1.387 . S
C1553 H1556 0.950 . S
C1554 C1553 1.387 . S
C1554 C1557 1.387 . S
H1555 C1551 0.950 . S
H1556 C1553 0.950 . S
C1557 C1548 1.390 . S
C1557 H1550 0.950 . S
C1557 C1554 1.387 . S
C1558 C1559 1.387 . S
C1558 H1562 0.950 . S
C1558 C1567 1.390 . S
C1559 C1558 1.387 . S
C1559 C1561 1.387 . S
H1560 C1567 0.950 . S
C1561 C1559 1.387 . S
C1561 C1563 1.390 . S
C1561 H1565 0.950 . S
H1562 C1558 0.950 . S
C1563 C1561 1.390 . S
C1563 C1564 1.387 . S
C1563 H1566 0.950 . S
C1564 C1563 1.387 . S
C1564 C1567 1.387 . S
H1565 C1561 0.950 . S
H1566 C1563 0.950 . S
C1567 C1558 1.390 . S
C1567 H1560 0.950 . S
C1567 C1564 1.387 . S
C1568 C1569 1.387 . S
C1568 H1572 0.950 . S
C1568 C1577 1.390 . S
C1569 C1568 1.387 . S
C1569 C1571 1.387 . S
H1570 C1577 0.950 . S
C1571 C1569 1.387 . S
C1571 C1573 1.390 . S
C1571 H1575 0.950 . S
H1572 C1568 0.950 . S
C1573 C1571 1.390 . S
C1573 C1574 1.387 . S
C1573 H1576 0.950 . S
C1574 C1573 1.387 . S
C1574 C1577 1.387 . S
H1575 C1571 0.950 . S
H1576 C1573 0.950 . S
C1577 C1568 1.390 . S
C1577 H1570 0.950 . S
C1577 C1574 1.387 . S
C1578 C1579 1.387 . S
C1578 H1582 0.950 . S
C1578 C1587 1.390 . S
C1579 C1578 1.387 . S
C1579 C1581 1.387 . S
H1580 C1587 0.950 . S
C1581 C1579 1.387 . S
C1581 C1583 1.390 . S
C1581 H1585 0.950 . S
H1582 C1578 0.950 . S
C1583 C1581 1.390 . S
C1583 C1584 1.387 . S
C1583 H1586 0.950 . S
C1584 C1583 1.387 . S
C1584 C1587 1.387 . S
H1585 C1581 0.950 . S
H1586 C1583 0.950 . S
C1587 C1578 1.390 . S
C1587 H1580 0.950 . S
C1587 C1584 1.387 . S
C1588 C1589 1.387 . S
C1588 H1592 0.950 . S
C1588 C1597 1.390 . S
C1589 C1588 1.387 . S
C1589 C1591 1.387 . S
H1590 C1597 0.950 . S
C1591 C1589 1.387 . S
C1591 C1593 1.390 . S
C1591 H1595 0.950 . S
H1592 C1588 0.950 . S
C1593 C1591 1.390 . S
C1593 C1594 1.387 . S
C1593 H1596 0.950 . S
C1594 C1593 1.387 . S
C1594 C1597 1.387 . S
H1595 C1591 0.950 . S
H1596 C1593 0.950 . S
C1597 C1588 1.390 . S
C1597 H1590 0.950 . S
C1597 C1594 1.387 . S
C1598 C1599 1.387 . S
C1598 H1602 0.950 . S
C1598 C1607 1.390 . S
C1599 C1598 1.387 . S
C1599 C1601 1.387 . S
H1600 C1607 0.950 . S
C1601 C1599 1.387 . S
C1601 C1603 1.390 . S
C1601 H1605 0.950 . S
H1602 C1598 0.950 . S
C1603 C1601 1.390 . S
C1603 C1604 1.387 . S
C1603 H1606 0.950 . S
C1604 C1603 1.387 . S
C1604 C1607 1.387 . S
H1605 C1601 0.950 . S
H1606 C1603 0.950 . S
C1607 C1598 1.390 . S
C1607 H1600 0.950 . S
C1607 C1604 1.387 . S
C1608 C1609 1.387 . S
C1608 H1612 0.950 . S
C1608 C1617 1.390 . S
C1609 C1608 1.387 . S
C1609 C1611 1.387 . S
H1610 C1617 0.950 . S
C1611 C1609 1.387 . S
C1611 C1613 1.390 . S
C1611 H1615 0.950 . S
H1612 C1608 0.950 . S
C1613 C1611 1.390 . S
C1613 C1614 1.387 . S
C1613 H1616 0.950 . S
C1614 C1613 1.387 . S
C1614 C1617 1.387 . S
H1615 C1611 0.950 . S
H1616 C1613 0.950 . S
C1617 C1608 1.390 . S
C1617 H1610 0.950 . S
C1617 C1614 1.387 . S
C1618 C1619 1.387 . S
C1618 H1622 0.950 . S
C1618 C1627 1.390 . S
C1619 C1618 1.387 . S
C1619 C1621 1.387 . S
H1620 C1627 0.950 . S
C1621 C1619 1.387 . S
C1621 C1623 1.390 . S
C1621 H1625 0.950 . S
H1622 C1618 0.950 . S
C1623 C1621 1.390 . S
C1623 C1624 1.387 . S
C1623 H1626 0.950 . S
C1624 C1623 1.387 . S
C1624 C1627 1.387 . S
H1625 C1621 0.950 . S
H1626 C1623 0.950 . S
C1627 C1618 1.390 . S
C1627 H1620 0.950 . S
C1627 C1624 1.387 . S
C1628 C1629 1.387 . S
C1628 H1632 0.950 . S
C1628 C1637 1.390 . S
C1629 C1628 1.387 . S
C1629 C1631 1.387 . S
H1630 C1637 0.950 . S
C1631 C1629 1.387 . S
C1631 C1633 1.390 . S
C1631 H1635 0.950 . S
H1632 C1628 0.950 . S
C1633 C1631 1.390 . S
C1633 C1634 1.387 . S
C1633 H1636 0.950 . S
C1634 C1633 1.387 . S
C1634 C1637 1.387 . S
H1635 C1631 0.950 . S
H1636 C1633 0.950 . S
C1637 C1628 1.390 . S
C1637 H1630 0.950 . S
C1637 C1634 1.387 . S
C1638 C1639 1.387 . S
C1638 H1642 0.950 . S
C1638 C1647 1.390 . S
C1639 C1638 1.387 . S
C1639 C1641 1.387 . S
H1640 C1647 0.950 . S
C1641 C1639 1.387 . S
C1641 C1643 1.390 . S
C1641 H1645 0.950 . S
H1642 C1638 0.950 . S
C1643 C1641 1.390 . S
C1643 C1644 1.387 . S
C1643 H1646 0.950 . S
C1644 C1643 1.387 . S
C1644 C1647 1.387 . S
H1645 C1641 0.950 . S
H1646 C1643 0.950 . S
C1647 C1638 1.390 . S
C1647 H1640 0.950 . S
C1647 C1644 1.387 . S
C1648 C1649 1.387 . S
C1648 H1652 0.950 . S
C1648 C1657 1.390 . S
C1649 C1648 1.387 . S
C1649 C1651 1.387 . S
H1650 C1657 0.950 . S
C1651 C1649 1.387 . S
C1651 C1653 1.390 . S
C1651 H1655 0.950 . S
H1652 C1648 0.950 . S
C1653 C1651 1.390 . S
C1653 C1654 1.387 . S
C1653 H1656 0.950 . S
C1654 C1653 1.387 . S
C1654 C1657 1.387 . S
H1655 C1651 0.950 . S
H1656 C1653 0.950 . S
C1657 C1648 1.390 . S
C1657 H1650 0.950 . S
C1657 C1654 1.387 . S
C1658 C1659 1.387 . S
C1658 H1662 0.950 . S
C1658 C1667 1.390 . S
C1659 C1658 1.387 . S
C1659 C1661 1.387 . S
H1660 C1667 0.950 . S
C1661 C1659 1.387 . S
C1661 C1663 1.390 . S
C1661 H1665 0.950 . S
H1662 C1658 0.950 . S
C1663 C1661 1.390 . S
C1663 C1664 1.387 . S
C1663 H1666 0.950 . S
C1664 C1663 1.387 . S
C1664 C1667 1.387 . S
H1665 C1661 0.950 . S
H1666 C1663 0.950 . S
C1667 C1658 1.390 . S
C1667 H1660 0.950 . S
C1667 C1664 1.387 . S
C1668 C1669 1.387 . S
C1668 H1672 0.950 . S
C1668 C1677 1.390 . S
C1669 C1668 1.387 . S
C1669 C1671 1.387 . S
H1670 C1677 0.950 . S
C1671 C1669 1.387 . S
C1671 C1673 1.390 . S
C1671 H1675 0.950 . S
H1672 C1668 0.950 . S
C1673 C1671 1.390 . S
C1673 C1674 1.387 . S
C1673 H1676 0.950 . S
C1674 C1673 1.387 . S
C1674 C1677 1.387 . S
H1675 C1671 0.950 . S
H1676 C1673 0.950 . S
C1677 C1668 1.390 . S
C1677 H1670 0.950 . S
C1677 C1674 1.387 . S
C1678 C1679 1.387 . S
C1678 H1682 0.950 . S
C1678 C1687 1.390 . S
C1679 C1678 1.387 . S
C1679 C1681 1.387 . S
H1680 C1687 0.950 . S
C1681 C1679 1.387 . S
C1681 C1683 1.390 . S
C1681 H1685 0.950 . S
H1682 C1678 0.950 . S
C1683 C1681 1.390 . S
C1683 C1684 1.387 . S
C1683 H1686 0.950 . S
C1684 C1683 1.387 . S
C1684 C1687 1.387 . S
H1685 C1681 0.950 . S
H1686 C1683 0.950 . S
C1687 C1678 1.390 . S
C1687 H1680 0.950 . S
C1687 C1684 1.387 . S
C1688 C1689 1.387 . S
C1688 H1692 0.950 . S
C1688 C1697 1.390 . S
C1689 C1688 1.387 . S
C1689 C1691 1.387 . S
H1690 C1697 0.950 . S
C1691 C1689 1.387 . S
C1691 C1693 1.390 . S
C1691 H1695 0.950 . S
H1692 C1688 0.950 . S
C1693 C1691 1.390 . S
C1693 C1694 1.387 . S
C1693 H1696 0.950 . S
C1694 C1693 1.387 . S
C1694 C1697 1.387 . S
H1695 C1691 0.950 . S
H1696 C1693 0.950 . S
C1697 C1688 1.390 . S
C1697 H1690 0.950 . S
C1697 C1694 1.387 . S
C1698 C1699 1.387 . S
C1698 H1702 0.950 . S
C1698 C1707 1.390 . S
C1699 C1698 1.387 . S
C1699 C1701 1.387 . S
H1700 C1707 0.950 . S
C1701 C1699 1.387 . S
C1701 C1703 1.390 . S
C1701 H1705 0.950 . S
H1702 C1698 0.950 . S
C1703 C1701 1.390 . S
C1703 C1704 1.387 . S
C1703 H1706 0.950 . S
C1704 C1703 1.387 . S
C1704 C1707 1.387 . S
H1705 C1701 0.950 . S
H1706 C1703 0.950 . S
C1707 C1698 1.390 . S
C1707 H1700 0.950 . S
C1707 C1704 1.387 . S
C1708 C1709 1.387 . S
C1708 H1712 0.950 . S
C1708 C1717 1.390 . S
C1709 C1708 1.387 . S
C1709 C1711 1.387 . S
H1710 C1717 0.950 . S
C1711 C1709 1.387 . S
C1711 C1713 1.390 . S
C1711 H1715 0.950 . S
H1712 C1708 0.950 . S
C1713 C1711 1.390 . S
C1713 C1714 1.387 . S
C1713 H1716 0.950 . S
C1714 C1713 1.387 . S
C1714 C1717 1.387 . S
H1715 C1711 0.950 . S
H1716 C1713 0.950 . S
C1717 C1708 1.390 . S
C1717 H1710 0.950 . S
C1717 C1714 1.387 . S
C1718 C1719 1.387 . S
C1718 H1722 0.950 . S
C1718 C1727 1.390 . S
C1719 C1718 1.387 . S
C1719 C1721 1.387 . S
H1720 C1727 0.950 . S
C1721 C1719 1.387 . S
C1721 C1723 1.390 . S
C1721 H1725 0.950 . S
H1722 C1718 0.950 . S
C1723 C1721 1.390 . S
C1723 C1724 1.387 . S
C1723 H1726 0.950 . S
C1724 C1723 1.387 . S
C1724 C1727 1.387 . S
H1725 C1721 0.950 . S
H1726 C1723 0.950 . S
C1727 C1718 1.390 . S
C1727 H1720 0.950 . S
C1727 C1724 1.387 . S
C1728 C1729 1.387 . S
C1728 H1732 0.950 . S
C1728 C1737 1.390 . S
C1729 C1728 1.387 . S
C1729 C1731 1.387 . S
H1730 C1737 0.950 . S
C1731 C1729 1.387 . S
C1731 C1733 1.390 . S
C1731 H1735 0.950 . S
H1732 C1728 0.950 . S
C1733 C1731 1.390 . S
C1733 C1734 1.387 . S
C1733 H1736 0.950 . S
C1734 C1733 1.387 . S
C1734 C1737 1.387 . S
H1735 C1731 0.950 . S
H1736 C1733 0.950 . S
C1737 C1728 1.390 . S
C1737 H1730 0.950 . S
C1737 C1734 1.387 . S
C1738 C1739 1.387 . S
C1738 H1742 0.950 . S
C1738 C1747 1.390 1_545 S
C1739 C1738 1.387 . S
C1739 C1741 1.387 . S
H1740 C1747 0.950 . S
C1741 C1739 1.387 . S
C1741 C1743 1.390 1_545 S
C1741 H1745 0.950 . S
H1742 C1738 0.950 . S
C1743 C1741 1.390 1_565 S
C1743 C1744 1.387 . S
C1743 H1746 0.950 . S
C1744 C1743 1.387 . S
C1744 C1747 1.387 . S
H1745 C1741 0.950 . S
H1746 C1743 0.950 . S
C1747 C1738 1.390 1_565 S
C1747 H1740 0.950 . S
C1747 C1744 1.387 . S
C1748 C1749 1.387 1_655 S
C1748 H1752 0.950 . S
C1748 C1757 1.390 . S
C1749 C1748 1.387 1_455 S
C1749 C1751 1.387 . S
H1750 C1757 0.950 . S
C1751 C1749 1.387 . S
C1751 C1753 1.390 . S
C1751 H1755 0.950 . S
H1752 C1748 0.950 . S
C1753 C1751 1.390 . S
C1753 C1754 1.387 1_455 S
C1753 H1756 0.950 . S
C1754 C1753 1.387 1_655 S
C1754 C1757 1.387 . S
H1755 C1751 0.950 . S
H1756 C1753 0.950 . S
C1757 C1748 1.390 . S
C1757 H1750 0.950 . S
C1757 C1754 1.387 . S
C1758 C1759 1.387 . S
C1758 H1762 0.950 . S
C1758 C1767 1.390 . S
C1759 C1758 1.387 . S
C1759 C1761 1.387 . S
H1760 C1767 0.950 . S
C1761 C1759 1.387 . S
C1761 C1763 1.390 . S
C1761 H1765 0.950 . S
H1762 C1758 0.950 . S
C1763 C1761 1.390 . S
C1763 C1764 1.387 . S
C1763 H1766 0.950 . S
C1764 C1763 1.387 . S
C1764 C1767 1.387 . S
H1765 C1761 0.950 . S
H1766 C1763 0.950 . S
C1767 C1758 1.390 . S
C1767 H1760 0.950 . S
C1767 C1764 1.387 . S
C1768 C1769 1.387 . S
C1768 H1772 0.950 . S
C1768 C1777 1.390 1_545 S
C1769 C1768 1.387 . S
C1769 C1771 1.387 . S
H1770 C1777 0.950 . S
C1771 C1769 1.387 . S
C1771 C1773 1.390 1_545 S
C1771 H1775 0.950 . S
H1772 C1768 0.950 . S
C1773 C1771 1.390 1_565 S
C1773 C1774 1.387 . S
C1773 H1776 0.950 . S
C1774 C1773 1.387 . S
C1774 C1777 1.387 . S
H1775 C1771 0.950 . S
H1776 C1773 0.950 . S
C1777 C1768 1.390 1_565 S
C1777 H1770 0.950 . S
C1777 C1774 1.387 . S
C1778 C1779 1.387 1_655 S
C1778 H1782 0.950 . S
C1778 C1787 1.390 . S
C1779 C1778 1.387 1_455 S
C1779 C1781 1.387 . S
H1780 C1787 0.950 . S
C1781 C1779 1.387 . S
C1781 C1783 1.390 . S
C1781 H1785 0.950 . S
H1782 C1778 0.950 . S
C1783 C1781 1.390 . S
C1783 C1784 1.387 1_455 S
C1783 H1786 0.950 . S
C1784 C1783 1.387 1_655 S
C1784 C1787 1.387 . S
H1785 C1781 0.950 . S
H1786 C1783 0.950 . S
C1787 C1778 1.390 . S
C1787 H1780 0.950 . S
C1787 C1784 1.387 . S
C1788 C1789 1.387 . S
C1788 H1792 0.950 . S
C1788 C1797 1.390 . S
C1789 C1788 1.387 . S
C1789 C1791 1.387 . S
H1790 C1797 0.950 . S
C1791 C1789 1.387 . S
C1791 C1793 1.390 . S
C1791 H1795 0.950 . S
H1792 C1788 0.950 . S
C1793 C1791 1.390 . S
C1793 C1794 1.387 . S
C1793 H1796 0.950 . S
C1794 C1793 1.387 . S
C1794 C1797 1.387 . S
H1795 C1791 0.950 . S
H1796 C1793 0.950 . S
C1797 C1788 1.390 . S
C1797 H1790 0.950 . S
C1797 C1794 1.387 . S
C1798 C1799 1.387 . S
C1798 H1802 0.950 . S
C1798 C1807 1.390 . S
C1799 C1798 1.387 . S
C1799 C1801 1.387 . S
H1800 C1807 0.950 . S
C1801 C1799 1.387 . S
C1801 C1803 1.390 . S
C1801 H1805 0.950 . S
H1802 C1798 0.950 . S
C1803 C1801 1.390 . S
C1803 C1804 1.387 . S
C1803 H1806 0.950 . S
C1804 C1803 1.387 . S
C1804 C1807 1.387 . S
H1805 C1801 0.950 . S
H1806 C1803 0.950 . S
C1807 C1798 1.390 . S
C1807 H1800 0.950 . S
C1807 C1804 1.387 . S
C1808 C1809 1.387 . S
C1808 H1812 0.950 . S
C1808 C1817 1.390 . S
C1809 C1808 1.387 . S
C1809 C1811 1.387 . S
H1810 C1817 0.950 . S
C1811 C1809 1.387 . S
C1811 C1813 1.390 . S
C1811 H1815 0.950 . S
H1812 C1808 0.950 . S
C1813 C1811 1.390 . S
C1813 C1814 1.387 . S
C1813 H1816 0.950 . S
C1814 C1813 1.387 . S
C1814 C1817 1.387 . S
H1815 C1811 0.950 . S
H1816 C1813 0.950 . S
C1817 C1808 1.390 . S
C1817 H1810 0.950 . S
C1817 C1814 1.387 . S
C1818 C1819 1.387 . S
C1818 H1822 0.950 . S
C1818 C1827 1.390 . S
C1819 C1818 1.387 . S
C1819 C1821 1.387 . S
H1820 C1827 0.950 . S
C1821 C1819 1.387 . S
C1821 C1823 1.390 . S
C1821 H1825 0.950 . S
H1822 C1818 0.950 . S
C1823 C1821 1.390 . S
C1823 C1824 1.387 . S
C1823 H1826 0.950 . S
C1824 C1823 1.387 . S
C1824 C1827 1.387 . S
H1825 C1821 0.950 . S
H1826 C1823 0.950 . S
C1827 C1818 1.390 . S
C1827 H1820 0.950 . S
C1827 C1824 1.387 . S
C1828 C1829 1.387 . S
C1828 H1832 0.950 . S
C1828 C1837 1.390 . S
C1829 C1828 1.387 . S
C1829 C1831 1.387 . S
H1830 C1837 0.950 . S
C1831 C1829 1.387 . S
C1831 C1833 1.390 . S
C1831 H1835 0.950 . S
H1832 C1828 0.950 . S
C1833 C1831 1.390 . S
C1833 C1834 1.387 . S
C1833 H1836 0.950 . S
C1834 C1833 1.387 . S
C1834 C1837 1.387 . S
H1835 C1831 0.950 . S
H1836 C1833 0.950 . S
C1837 C1828 1.390 . S
C1837 H1830 0.950 . S
C1837 C1834 1.387 . S
C1838 C1839 1.387 . S
C1838 H1842 0.950 . S
C1838 C1847 1.390 . S
C1839 C1838 1.387 . S
C1839 C1841 1.387 . S
H1840 C1847 0.950 . S
C1841 C1839 1.387 . S
C1841 C1843 1.390 . S
C1841 H1845 0.950 . S
H1842 C1838 0.950 . S
C1843 C1841 1.390 . S
C1843 C1844 1.387 . S
C1843 H1846 0.950 . S
C1844 C1843 1.387 . S
C1844 C1847 1.387 . S
H1845 C1841 0.950 . S
H1846 C1843 0.950 . S
C1847 C1838 1.390 . S
C1847 H1840 0.950 . S
C1847 C1844 1.387 . S
C1848 C1849 1.387 . S
C1848 H1852 0.950 . S
C1848 C1857 1.390 . S
C1849 C1848 1.387 . S
C1849 C1851 1.387 . S
H1850 C1857 0.950 . S
C1851 C1849 1.387 . S
C1851 C1853 1.390 . S
C1851 H1855 0.950 . S
H1852 C1848 0.950 . S
C1853 C1851 1.390 . S
C1853 C1854 1.387 . S
C1853 H1856 0.950 . S
C1854 C1853 1.387 . S
C1854 C1857 1.387 . S
H1855 C1851 0.950 . S
H1856 C1853 0.950 . S
C1857 C1848 1.390 . S
C1857 H1850 0.950 . S
C1857 C1854 1.387 . S
C1858 C1859 1.387 . S
C1858 H1862 0.950 . S
C1858 C1867 1.390 . S
C1859 C1858 1.387 . S
C1859 C1861 1.387 . S
H1860 C1867 0.950 . S
C1861 C1859 1.387 . S
C1861 C1863 1.390 . S
C1861 H1865 0.950 . S
H1862 C1858 0.950 . S
C1863 C1861 1.390 . S
C1863 C1864 1.387 . S
C1863 H1866 0.950 . S
C1864 C1863 1.387 . S
C1864 C1867 1.387 . S
H1865 C1861 0.950 . S
H1866 C1863 0.950 . S
C1867 C1858 1.390 . S
C1867 H1860 0.950 . S
C1867 C1864 1.387 . S
C1868 C1869 1.387 . S
C1868 H1872 0.950 . S
C1868 C1877 1.390 . S
C1869 C1868 1.387 . S
C1869 C1871 1.387 . S
H1870 C1877 0.950 . S
C1871 C1869 1.387 . S
C1871 C1873 1.390 . S
C1871 H1875 0.950 . S
H1872 C1868 0.950 . S
C1873 C1871 1.390 . S
C1873 C1874 1.387 . S
C1873 H1876 0.950 . S
C1874 C1873 1.387 . S
C1874 C1877 1.387 . S
H1875 C1871 0.950 . S
H1876 C1873 0.950 . S
C1877 C1868 1.390 . S
C1877 H1870 0.950 . S
C1877 C1874 1.387 . S
C1878 C1879 1.387 . S
C1878 H1882 0.950 . S
C1878 C1887 1.390 . S
C1879 C1878 1.387 . S
C1879 C1881 1.387 . S
H1880 C1887 0.950 . S
C1881 C1879 1.387 . S
C1881 C1883 1.390 . S
C1881 H1885 0.950 . S
H1882 C1878 0.950 . S
C1883 C1881 1.390 . S
C1883 C1884 1.387 . S
C1883 H1886 0.950 . S
C1884 C1883 1.387 . S
C1884 C1887 1.387 . S
H1885 C1881 0.950 . S
H1886 C1883 0.950 . S
C1887 C1878 1.390 . S
C1887 H1880 0.950 . S
C1887 C1884 1.387 . S
C1888 C1889 1.387 . S
C1888 H1892 0.950 . S
C1888 C1897 1.390 . S
C1889 C1888 1.387 . S
C1889 C1891 1.387 . S
H1890 C1897 0.950 . S
C1891 C1889 1.387 . S
C1891 C1893 1.390 . S
C1891 H1895 0.950 . S
H1892 C1888 0.950 . S
C1893 C1891 1.390 . S
C1893 C1894 1.387 . S
C1893 H1896 0.950 . S
C1894 C1893 1.387 . S
C1894 C1897 1.387 . S
H1895 C1891 0.950 . S
H1896 C1893 0.950 . S
C1897 C1888 1.390 . S
C1897 H1890 0.950 . S
C1897 C1894 1.387 . S
C1898 C1899 1.387 . S
C1898 H1902 0.950 . S
C1898 C1907 1.390 . S
C1899 C1898 1.387 . S
C1899 C1901 1.387 . S
H1900 C1907 0.950 . S
C1901 C1899 1.387 . S
C1901 C1903 1.390 . S
C1901 H1905 0.950 . S
H1902 C1898 0.950 . S
C1903 C1901 1.390 . S
C1903 C1904 1.387 . S
C1903 H1906 0.950 . S
C1904 C1903 1.387 . S
C1904 C1907 1.387 . S
H1905 C1901 0.950 . S
H1906 C1903 0.950 . S
C1907 C1898 1.390 . S
C1907 H1900 0.950 . S
C1907 C1904 1.387 . S
C1908 C1909 1.387 . S
C1908 H1912 0.950 1_556 S
C1908 C1917 1.390 . S
C1909 C1908 1.387 . S
C1909 C1911 1.387 . S
H1910 C1917 0.950 . S
C1911 C1909 1.387 . S
C1911 C1913 1.390 . S
C1911 H1915 0.950 . S
H1912 C1908 0.950 1_554 S
C1913 C1911 1.390 . S
C1913 C1914 1.387 . S
C1913 H1916 0.950 . S
C1914 C1913 1.387 . S
C1914 C1917 1.387 . S
H1915 C1911 0.950 . S
H1916 C1913 0.950 . S
C1917 C1908 1.390 . S
C1917 H1910 0.950 . S
C1917 C1914 1.387 . S
C1918 C1919 1.387 . S
C1918 H1922 0.950 . S
C1918 C1927 1.390 . S
C1919 C1918 1.387 . S
C1919 C1921 1.387 . S
H1920 C1927 0.950 . S
C1921 C1919 1.387 . S
C1921 C1923 1.390 . S
C1921 H1925 0.950 . S
H1922 C1918 0.950 . S
C1923 C1921 1.390 . S
C1923 C1924 1.387 . S
C1923 H1926 0.950 . S
C1924 C1923 1.387 . S
C1924 C1927 1.387 . S
H1925 C1921 0.950 . S
H1926 C1923 0.950 . S
C1927 C1918 1.390 . S
C1927 H1920 0.950 . S
C1927 C1924 1.387 . S
C1928 C1929 1.387 . S
C1928 H1932 0.950 . S
C1928 C1937 1.390 . S
C1929 C1928 1.387 . S
C1929 C1931 1.387 . S
H1930 C1937 0.950 . S
C1931 C1929 1.387 . S
C1931 C1933 1.390 . S
C1931 H1935 0.950 . S
H1932 C1928 0.950 . S
C1933 C1931 1.390 . S
C1933 C1934 1.387 . S
C1933 H1936 0.950 . S
C1934 C1933 1.387 . S
C1934 C1937 1.387 . S
H1935 C1931 0.950 . S
H1936 C1933 0.950 . S
C1937 C1928 1.390 . S
C1937 H1930 0.950 . S
C1937 C1934 1.387 . S
C1938 C1939 1.387 . S
C1938 H1942 0.950 . S
C1938 C1947 1.390 . S
C1939 C1938 1.387 . S
C1939 C1941 1.387 . S
H1940 C1947 0.950 . S
C1941 C1939 1.387 . S
C1941 C1943 1.390 . S
C1941 H1945 0.950 . S
H1942 C1938 0.950 . S
C1943 C1941 1.390 . S
C1943 C1944 1.387 . S
C1943 H1946 0.950 . S
C1944 C1943 1.387 . S
C1944 C1947 1.387 . S
H1945 C1941 0.950 . S
H1946 C1943 0.950 . S
C1947 C1938 1.390 . S
C1947 H1940 0.950 . S
C1947 C1944 1.387 . S
C1948 C1949 1.387 . S
C1948 H1952 0.950 . S
C1948 C1957 1.390 . S
C1949 C1948 1.387 . S
C1949 C1951 1.387 . S
H1950 C1957 0.950 . S
C1951 C1949 1.387 . S
C1951 C1953 1.390 . S
C1951 H1955 0.950 . S
H1952 C1948 0.950 . S
C1953 C1951 1.390 . S
C1953 C1954 1.387 . S
C1953 H1956 0.950 . S
C1954 C1953 1.387 . S
C1954 C1957 1.387 . S
H1955 C1951 0.950 . S
H1956 C1953 0.950 . S
C1957 C1948 1.390 . S
C1957 H1950 0.950 . S
C1957 C1954 1.387 . S
C1958 C1959 1.387 . S
C1958 H1962 0.950 . S
C1958 C1967 1.390 . S
C1959 C1958 1.387 . S
C1959 C1961 1.387 . S
H1960 C1967 0.950 . S
C1961 C1959 1.387 . S
C1961 C1963 1.390 . S
C1961 H1965 0.950 . S
H1962 C1958 0.950 . S
C1963 C1961 1.390 . S
C1963 C1964 1.387 . S
C1963 H1966 0.950 . S
C1964 C1963 1.387 . S
C1964 C1967 1.387 . S
H1965 C1961 0.950 . S
H1966 C1963 0.950 . S
C1967 C1958 1.390 . S
C1967 H1960 0.950 . S
C1967 C1964 1.387 . S
C1968 C1969 1.387 . S
C1968 H1972 0.950 . S
C1968 C1977 1.390 . S
C1969 C1968 1.387 . S
C1969 C1971 1.387 . S
H1970 C1977 0.950 . S
C1971 C1969 1.387 . S
C1971 C1973 1.390 . S
C1971 H1975 0.950 . S
H1972 C1968 0.950 . S
C1973 C1971 1.390 . S
C1973 C1974 1.387 . S
C1973 H1976 0.950 . S
C1974 C1973 1.387 . S
C1974 C1977 1.387 . S
H1975 C1971 0.950 . S
H1976 C1973 0.950 . S
C1977 C1968 1.390 . S
C1977 H1970 0.950 . S
C1977 C1974 1.387 . S
C1978 C1979 1.387 . S
C1978 H1982 0.950 . S
C1978 C1987 1.390 . S
C1979 C1978 1.387 . S
C1979 C1981 1.387 . S
H1980 C1987 0.950 . S
C1981 C1979 1.387 . S
C1981 C1983 1.390 . S
C1981 H1985 0.950 . S
H1982 C1978 0.950 . S
C1983 C1981 1.390 . S
C1983 C1984 1.387 . S
C1983 H1986 0.950 . S
C1984 C1983 1.387 . S
C1984 C1987 1.387 . S
H1985 C1981 0.950 . S
H1986 C1983 0.950 . S
C1987 C1978 1.390 . S
C1987 H1980 0.950 . S
C1987 C1984 1.387 . S
C1988 C1989 1.387 . S
C1988 H1992 0.950 . S
C1988 C1997 1.390 . S
C1989 C1988 1.387 . S
C1989 C1991 1.387 . S
H1990 C1997 0.950 . S
C1991 C1989 1.387 . S
C1991 C1993 1.390 . S
C1991 H1995 0.950 . S
H1992 C1988 0.950 . S
C1993 C1991 1.390 . S
C1993 C1994 1.387 . S
C1993 H1996 0.950 . S
C1994 C1993 1.387 . S
C1994 C1997 1.387 . S
H1995 C1991 0.950 . S
H1996 C1993 0.950 . S
C1997 C1988 1.390 . S
C1997 H1990 0.950 . S
C1997 C1994 1.387 . S
C1998 C1999 1.387 . S
C1998 H2002 0.950 . S
C1998 C2007 1.390 . S
C1999 C1998 1.387 . S
C1999 C2001 1.387 . S
H2000 C2007 0.950 . S
C2001 C1999 1.387 . S
C2001 C2003 1.390 . S
C2001 H2005 0.950 . S
H2002 C1998 0.950 . S
C2003 C2001 1.390 . S
C2003 C2004 1.387 . S
C2003 H2006 0.950 . S
C2004 C2003 1.387 . S
C2004 C2007 1.387 . S
H2005 C2001 0.950 . S
H2006 C2003 0.950 . S
C2007 C1998 1.390 . S
C2007 H2000 0.950 . S
C2007 C2004 1.387 . S
C2008 C2009 1.387 . S
C2008 H2012 0.950 . S
C2008 C2017 1.390 . S
C2009 C2008 1.387 . S
C2009 C2011 1.387 . S
H2010 C2017 0.950 . S
C2011 C2009 1.387 . S
C2011 C2013 1.390 . S
C2011 H2015 0.950 . S
H2012 C2008 0.950 . S
C2013 C2011 1.390 . S
C2013 C2014 1.387 . S
C2013 H2016 0.950 . S
C2014 C2013 1.387 . S
C2014 C2017 1.387 . S
H2015 C2011 0.950 . S
H2016 C2013 0.950 . S
C2017 C2008 1.390 . S
C2017 H2010 0.950 . S
C2017 C2014 1.387 . S
C2018 C2019 1.387 . S
C2018 H2022 0.950 . S
C2018 C2027 1.390 . S
C2019 C2018 1.387 . S
C2019 C2021 1.387 . S
H2020 C2027 0.950 . S
C2021 C2019 1.387 . S
C2021 C2023 1.390 . S
C2021 H2025 0.950 . S
H2022 C2018 0.950 . S
C2023 C2021 1.390 . S
C2023 C2024 1.387 . S
C2023 H2026 0.950 . S
C2024 C2023 1.387 . S
C2024 C2027 1.387 . S
H2025 C2021 0.950 . S
H2026 C2023 0.950 . S
C2027 C2018 1.390 . S
C2027 H2020 0.950 . S
C2027 C2024 1.387 . S
C2028 C2029 1.387 . S
C2028 H2032 0.950 . S
C2028 C2037 1.429 . S
C2029 C2028 1.387 . S
C2029 C2031 1.337 1_455 S
H2030 C2037 0.963 . S
C2031 C2029 1.337 1_655 S
C2031 C2033 1.429 . S
C2031 H2035 0.963 . S
H2032 C2028 0.950 . S
C2033 C2031 1.429 . S
C2033 C2034 1.387 . S
C2033 H2036 0.950 . S
C2034 C2033 1.387 . S
C2034 C2037 1.337 1_655 S
H2035 C2031 0.963 . S
H2036 C2033 0.950 . S
C2037 C2028 1.429 . S
C2037 H2030 0.963 . S
C2037 C2034 1.337 1_455 S
C2038 C2039 1.387 . S
C2038 H2042 0.950 . S
C2038 C2047 1.390 . S
C2039 C2038 1.387 . S
C2039 C2041 1.387 . S
H2040 C2047 0.950 . S
C2041 C2039 1.387 . S
C2041 C2043 1.390 . S
C2041 H2045 0.950 . S
H2042 C2038 0.950 . S
C2043 C2041 1.390 . S
C2043 C2044 1.387 . S
C2043 H2046 0.950 . S
C2044 C2043 1.387 . S
C2044 C2047 1.387 . S
H2045 C2041 0.950 . S
H2046 C2043 0.950 . S
C2047 C2038 1.390 . S
C2047 H2040 0.950 . S
C2047 C2044 1.387 . S
C2048 C2049 1.387 . S
C2048 H2052 0.950 . S
C2048 C2057 1.390 1_565 S
C2049 C2048 1.387 . S
C2049 C2051 1.387 . S
H2050 C2057 0.950 . S
C2051 C2049 1.387 . S
C2051 C2053 1.390 1_565 S
C2051 H2055 0.950 . S
H2052 C2048 0.950 . S
C2053 C2051 1.390 1_545 S
C2053 C2054 1.387 . S
C2053 H2056 0.950 . S
C2054 C2053 1.387 . S
C2054 C2057 1.387 . S
H2055 C2051 0.950 . S
H2056 C2053 0.950 . S
C2057 C2048 1.390 1_545 S
C2057 H2050 0.950 . S
C2057 C2054 1.387 . S
C2058 C2059 1.387 . S
C2058 H2062 0.950 . S
C2058 C2067 1.390 1_565 S
C2059 C2058 1.387 . S
C2059 C2061 1.387 . S
H2060 C2067 0.950 . S
C2061 C2059 1.387 . S
C2061 C2063 1.390 1_565 S
C2061 H2065 0.950 . S
H2062 C2058 0.950 . S
C2063 C2061 1.390 1_545 S
C2063 C2064 1.387 . S
C2063 H2066 0.950 . S
C2064 C2063 1.387 . S
C2064 C2067 1.387 . S
H2065 C2061 0.950 . S
H2066 C2063 0.950 . S
C2067 C2058 1.390 1_545 S
C2067 H2060 0.950 . S
C2067 C2064 1.387 . S
C2068 C2069 1.387 . S
C2068 H2072 0.950 . S
C2068 C2077 1.390 1_455 S
C2069 C2068 1.387 . S
C2069 C2071 1.387 . S
H2070 C2077 0.950 . S
C2071 C2069 1.387 . S
C2071 C2073 1.390 1_455 S
C2071 H2075 0.950 . S
H2072 C2068 0.950 . S
C2073 C2071 1.390 1_655 S
C2073 C2074 1.387 . S
C2073 H2076 0.950 . S
C2074 C2073 1.387 . S
C2074 C2077 1.387 . S
H2075 C2071 0.950 . S
H2076 C2073 0.950 . S
C2077 C2068 1.390 1_655 S
C2077 H2070 0.950 . S
C2077 C2074 1.387 . S
C2078 C2079 1.387 . S
C2078 H2082 0.950 . S
C2078 C2087 1.390 . S
C2079 C2078 1.387 . S
C2079 C2081 1.387 . S
H2080 C2087 0.950 . S
C2081 C2079 1.387 . S
C2081 C2083 1.390 . S
C2081 H2085 0.950 . S
H2082 C2078 0.950 . S
C2083 C2081 1.390 . S
C2083 C2084 1.387 . S
C2083 H2086 0.950 . S
C2084 C2083 1.387 . S
C2084 C2087 1.387 . S
H2085 C2081 0.950 . S
H2086 C2083 0.950 . S
C2087 C2078 1.390 . S
C2087 H2080 0.950 . S
C2087 C2084 1.387 . S
C1189 N596 0.875 . S
C1194 N2 0.875 . S
C1199 N35 0.876 . S
C1204 N629 0.876 . S
C1209 N662 0.877 . S
C1214 N68 0.877 . S
C1219 N1091 0.877 . S
C1224 N101 0.877 . S
C1229 N1124 0.878 . S
C1234 N134 0.878 . S
C1239 N167 0.879 . S
C1244 N1157 0.879 . S
C1249 N200 0.879 . S
C1254 N794 0.879 . S
C1259 N827 0.876 . S
C1264 N233 0.876 . S
C1269 N266 0.878 . S
C1274 N860 0.878 . S
C1279 N497 0.878 . S
C1284 N299 0.878 . S
C1289 N332 0.878 . S
C1294 N530 0.878 . S
C1299 N563 0.879 . S
C1304 N365 0.879 . S
C1309 N398 0.879 . S
C1314 N992 0.879 . S
C1319 N431 0.877 . S
C1324 N1025 0.877 . S
C1329 N1058 0.876 . S
C1334 N464 0.876 . S
C1339 N893 0.876 . S
C1344 N695 0.876 . S
C1349 N728 0.877 . S
C1354 N926 0.877 . S
C1359 N959 0.876 . S
C1364 N761 0.876 . S
C1369 C21 1.287 . S
C1374 N244 1.331 . S
C1379 C54 1.284 . S
C1384 N277 1.330 . S
C1389 C87 1.285 . S
C1394 N211 1.331 . S
C1399 N376 1.331 . S
C1404 C120 1.285 . S
C1409 C153 1.284 . S
C1414 N310 1.331 . S
C1419 C186 1.284 . S
C1424 N343 1.330 . S
C1429 C219 1.287 . S
C1434 N46 1.331 . S
C1439 C252 1.284 . S
C1444 N79 1.330 . S
C1449 N13 1.331 . S
C1454 C285 1.286 . S
C1459 C318 1.286 . S
C1464 N178 1.331 . S
C1469 C351 1.284 . S
C1474 N112 1.331 . S
C1479 C384 1.287 . S
C1484 N145 1.331 . S
C1489 N640 1.331 . S
C1494 C417 1.287 . S
C1499 C450 1.284 . S
C1504 N673 1.330 . S
C1509 C483 1.287 . S
C1514 N607 1.331 . S
C1519 C516 1.286 . S
C1524 N772 1.331 . S
C1529 C549 1.288 . S
C1534 N706 1.331 . S
C1539 N739 1.330 . S
C1544 C582 1.284 . S
C1549 N442 1.331 . S
C1554 C615 1.287 . S
C1559 C648 1.284 . S
C1564 N475 1.330 . S
C1569 N409 1.331 . S
C1574 C681 1.287 . S
C1579 C714 1.286 . S
C1584 N574 1.331 . S
C1589 N508 1.331 . S
C1594 C747 1.284 . S
C1599 N541 1.330 . S
C1604 C780 1.284 . S
C1609 N1036 1.331 . S
C1614 C813 1.284 . S
C1619 N1069 1.330 . S
C1624 C846 1.284 . S
C1629 C879 1.285 . S
C1634 N1003 1.331 . S
C1639 N1168 1.331 . S
C1644 C912 1.286 . S
C1649 N1102 1.331 . S
C1654 C945 1.287 . S
C1659 C978 1.284 . S
C1664 N1135 1.330 . S
C1669 N838 1.331 . S
C1674 C1011 1.287 . S
C1679 C1044 1.284 . S
C1684 N871 1.330 . S
C1689 C1077 1.286 . S
C1694 N805 1.331 . S
C1699 C1110 1.286 . S
C1704 N970 1.331 . S
C1709 N904 1.331 . S
C1714 C1143 1.288 . S
C1719 N937 1.330 . S
C1724 C1176 1.284 . S
C1729 C18 1.700 . S
C1734 C117 1.700 . S
C1739 C51 1.700 . S
C1744 C150 1.700 . S
C1749 C183 1.700 . S
C1754 C84 1.700 . S
C1759 C216 1.700 . S
C1764 C315 1.700 . S
C1769 C348 1.700 . S
C1774 C249 1.700 . S
C1779 C282 1.700 . S
C1784 C381 1.700 . S
C1789 C414 1.700 . S
C1794 C513 1.700 . S
C1799 C447 1.700 . S
C1804 C546 1.700 . S
C1809 C579 1.700 . S
C1814 C480 1.700 . S
C1819 C612 1.700 . S
C1824 C711 1.700 1_554 S
C1829 C645 1.700 . S
C1834 C744 1.700 1_554 S
C1839 C777 1.700 1_554 S
C1844 C678 1.700 . S
C1849 C909 1.700 1_556 S
C1854 C810 1.700 . S
C1859 C942 1.700 1_556 S
C1864 C843 1.700 . S
C1869 C876 1.700 . S
C1874 C975 1.700 1_556 S
C1879 C1008 1.700 . S
C1884 C1107 1.700 . S
C1889 C1140 1.700 . S
C1894 C1041 1.700 . S
C1899 C1173 1.700 . S
C1904 C1074 1.700 . S
C1909 C7 1.916 . S
C1914 C535 1.915 . S
C1919 C40 1.916 . S
C1924 C568 1.915 . S
C1929 C502 1.915 . S
C1934 C73 1.915 . S
C1939 C106 1.916 . S
C1944 C865 1.916 . S
C1949 C799 1.916 . S
C1954 C139 1.915 . S
C1959 C172 1.916 . S
C1964 C832 1.915 . S
C1969 C205 1.915 . S
C1974 C1129 1.915 . S
C1979 C1162 1.915 . S
C1984 C238 1.915 . S
C1989 C271 1.916 . S
C1994 C1096 1.916 . S
C1999 C667 1.915 . S
C2004 C304 1.915 . S
C2009 C601 1.916 . S
C2014 C337 1.915 . S
C2019 C634 1.916 . S
C2024 C370 1.914 . S
C2029 C931 1.914 . S
C2034 C403 1.916 . S
C2039 C964 1.915 . S
C2044 C436 1.916 . S
C2049 C898 1.915 . S
C2054 C469 1.915 . S
C2059 C1063 1.915 . S
C2064 C700 1.915 . S
C2069 C997 1.916 . S
C2074 C733 1.915 . S
C2079 C1030 1.915 . S
C2084 C766 1.915 . S
