# Generated by pormake.
# Topology sog, (5)-cn, num edge types: 1
# Building blocks:
#     Node 0, Type 0, BuildingBlock: BEQFEK_clean_sbu_0, # of connection points: 5
#     Node 1, Type 0, BuildingBlock: BEQFEK_clean_sbu_0, # of connection points: 5
#     Node 2, Type 0, BuildingBlock: BEQFEK_clean_sbu_0, # of connection points: 5
#     Node 3, Type 0, BuildingBlock: BEQFEK_clean_sbu_0, # of connection points: 5
#     Node 4, Type 0, BuildingBlock: BEQFEK_clean_sbu_0, # of connection points: 5
#     Node 5, Type 0, BuildingBlock: BEQFEK_clean_sbu_0, # of connection points: 5
#     Node 6, Type 0, BuildingBlock: BEQFEK_clean_sbu_0, # of connection points: 5
#     Node 7, Type 0, BuildingBlock: BEQFEK_clean_sbu_0, # of connection points: 5
#     Node 8, Type 0, BuildingBlock: BEQFEK_clean_sbu_0, # of connection points: 5
#     Node 9, Type 0, BuildingBlock: BEQFEK_clean_sbu_0, # of connection points: 5
#     Node 10, Type 0, BuildingBlock: BEQFEK_clean_sbu_0, # of connection points: 5
#     Node 11, Type 0, BuildingBlock: BEQFEK_clean_sbu_0, # of connection points: 5
#     Node 12, Type 0, BuildingBlock: BEQFEK_clean_sbu_0, # of connection points: 5
#     Node 13, Type 0, BuildingBlock: BEQFEK_clean_sbu_0, # of connection points: 5
#     Node 14, Type 0, BuildingBlock: BEQFEK_clean_sbu_0, # of connection points: 5
#     Node 15, Type 0, BuildingBlock: BEQFEK_clean_sbu_0, # of connection points: 5
#     Node 16, Type 0, BuildingBlock: BEQFEK_clean_sbu_0, # of connection points: 5
#     Node 17, Type 0, BuildingBlock: BEQFEK_clean_sbu_0, # of connection points: 5
#     Node 18, Type 0, BuildingBlock: BEQFEK_clean_sbu_0, # of connection points: 5
#     Node 19, Type 0, BuildingBlock: BEQFEK_clean_sbu_0, # of connection points: 5
#     Node 20, Type 0, BuildingBlock: BEQFEK_clean_sbu_0, # of connection points: 5
#     Node 21, Type 0, BuildingBlock: BEQFEK_clean_sbu_0, # of connection points: 5
#     Node 22, Type 0, BuildingBlock: BEQFEK_clean_sbu_0, # of connection points: 5
#     Node 23, Type 0, BuildingBlock: BEQFEK_clean_sbu_0, # of connection points: 5
#     Node 24, Type 0, BuildingBlock: BEQFEK_clean_sbu_0, # of connection points: 5
#     Node 25, Type 0, BuildingBlock: BEQFEK_clean_sbu_0, # of connection points: 5
#     Node 26, Type 0, BuildingBlock: BEQFEK_clean_sbu_0, # of connection points: 5
#     Node 27, Type 0, BuildingBlock: BEQFEK_clean_sbu_0, # of connection points: 5
#     Node 28, Type 0, BuildingBlock: BEQFEK_clean_sbu_0, # of connection points: 5
#     Node 29, Type 0, BuildingBlock: BEQFEK_clean_sbu_0, # of connection points: 5
#     Node 30, Type 0, BuildingBlock: BEQFEK_clean_sbu_0, # of connection points: 5
#     Node 31, Type 0, BuildingBlock: BEQFEK_clean_sbu_0, # of connection points: 5
#     Edge 32, Type (0, 0), BuildingBlock: XUDNAN_clean_linker_2, # of connection points: 2
#     Edge 33, Type (0, 0), BuildingBlock: XUDNAN_clean_linker_2, # of connection points: 2
#     Edge 34, Type (0, 0), BuildingBlock: XUDNAN_clean_linker_2, # of connection points: 2
#     Edge 35, Type (0, 0), BuildingBlock: XUDNAN_clean_linker_2, # of connection points: 2
#     Edge 36, Type (0, 0), BuildingBlock: XUDNAN_clean_linker_2, # of connection points: 2
#     Edge 37, Type (0, 0), BuildingBlock: XUDNAN_clean_linker_2, # of connection points: 2
#     Edge 38, Type (0, 0), BuildingBlock: XUDNAN_clean_linker_2, # of connection points: 2
#     Edge 39, Type (0, 0), BuildingBlock: XUDNAN_clean_linker_2, # of connection points: 2
#     Edge 40, Type (0, 0), BuildingBlock: XUDNAN_clean_linker_2, # of connection points: 2
#     Edge 41, Type (0, 0), BuildingBlock: XUDNAN_clean_linker_2, # of connection points: 2
#     Edge 42, Type (0, 0), BuildingBlock: XUDNAN_clean_linker_2, # of connection points: 2
#     Edge 43, Type (0, 0), BuildingBlock: XUDNAN_clean_linker_2, # of connection points: 2
#     Edge 44, Type (0, 0), BuildingBlock: XUDNAN_clean_linker_2, # of connection points: 2
#     Edge 45, Type (0, 0), BuildingBlock: XUDNAN_clean_linker_2, # of connection points: 2
#     Edge 46, Type (0, 0), BuildingBlock: XUDNAN_clean_linker_2, # of connection points: 2
#     Edge 47, Type (0, 0), BuildingBlock: XUDNAN_clean_linker_2, # of connection points: 2
#     Edge 48, Type (0, 0), BuildingBlock: XUDNAN_clean_linker_2, # of connection points: 2
#     Edge 49, Type (0, 0), BuildingBlock: XUDNAN_clean_linker_2, # of connection points: 2
#     Edge 50, Type (0, 0), BuildingBlock: XUDNAN_clean_linker_2, # of connection points: 2
#     Edge 51, Type (0, 0), BuildingBlock: XUDNAN_clean_linker_2, # of connection points: 2
#     Edge 52, Type (0, 0), BuildingBlock: XUDNAN_clean_linker_2, # of connection points: 2
#     Edge 53, Type (0, 0), BuildingBlock: XUDNAN_clean_linker_2, # of connection points: 2
#     Edge 54, Type (0, 0), BuildingBlock: XUDNAN_clean_linker_2, # of connection points: 2
#     Edge 55, Type (0, 0), BuildingBlock: XUDNAN_clean_linker_2, # of connection points: 2
#     Edge 56, Type (0, 0), BuildingBlock: XUDNAN_clean_linker_2, # of connection points: 2
#     Edge 57, Type (0, 0), BuildingBlock: XUDNAN_clean_linker_2, # of connection points: 2
#     Edge 58, Type (0, 0), BuildingBlock: XUDNAN_clean_linker_2, # of connection points: 2
#     Edge 59, Type (0, 0), BuildingBlock: XUDNAN_clean_linker_2, # of connection points: 2
#     Edge 60, Type (0, 0), BuildingBlock: XUDNAN_clean_linker_2, # of connection points: 2
#     Edge 61, Type (0, 0), BuildingBlock: XUDNAN_clean_linker_2, # of connection points: 2
#     Edge 62, Type (0, 0), BuildingBlock: XUDNAN_clean_linker_2, # of connection points: 2
#     Edge 63, Type (0, 0), BuildingBlock: XUDNAN_clean_linker_2, # of connection points: 2
#     Edge 64, Type (0, 0), BuildingBlock: XUDNAN_clean_linker_2, # of connection points: 2
#     Edge 65, Type (0, 0), BuildingBlock: XUDNAN_clean_linker_2, # of connection points: 2
#     Edge 66, Type (0, 0), BuildingBlock: XUDNAN_clean_linker_2, # of connection points: 2
#     Edge 67, Type (0, 0), BuildingBlock: XUDNAN_clean_linker_2, # of connection points: 2
#     Edge 68, Type (0, 0), BuildingBlock: XUDNAN_clean_linker_2, # of connection points: 2
#     Edge 69, Type (0, 0), BuildingBlock: XUDNAN_clean_linker_2, # of connection points: 2
#     Edge 70, Type (0, 0), BuildingBlock: XUDNAN_clean_linker_2, # of connection points: 2
#     Edge 71, Type (0, 0), BuildingBlock: XUDNAN_clean_linker_2, # of connection points: 2
#     Edge 72, Type (0, 0), BuildingBlock: XUDNAN_clean_linker_2, # of connection points: 2
#     Edge 73, Type (0, 0), BuildingBlock: XUDNAN_clean_linker_2, # of connection points: 2
#     Edge 74, Type (0, 0), BuildingBlock: XUDNAN_clean_linker_2, # of connection points: 2
#     Edge 75, Type (0, 0), BuildingBlock: XUDNAN_clean_linker_2, # of connection points: 2
#     Edge 76, Type (0, 0), BuildingBlock: XUDNAN_clean_linker_2, # of connection points: 2
#     Edge 77, Type (0, 0), BuildingBlock: XUDNAN_clean_linker_2, # of connection points: 2
#     Edge 78, Type (0, 0), BuildingBlock: XUDNAN_clean_linker_2, # of connection points: 2
#     Edge 79, Type (0, 0), BuildingBlock: XUDNAN_clean_linker_2, # of connection points: 2
#     Edge 80, Type (0, 0), BuildingBlock: XUDNAN_clean_linker_2, # of connection points: 2
#     Edge 81, Type (0, 0), BuildingBlock: XUDNAN_clean_linker_2, # of connection points: 2
#     Edge 82, Type (0, 0), BuildingBlock: XUDNAN_clean_linker_2, # of connection points: 2
#     Edge 83, Type (0, 0), BuildingBlock: XUDNAN_clean_linker_2, # of connection points: 2
#     Edge 84, Type (0, 0), BuildingBlock: XUDNAN_clean_linker_2, # of connection points: 2
#     Edge 85, Type (0, 0), BuildingBlock: XUDNAN_clean_linker_2, # of connection points: 2
#     Edge 86, Type (0, 0), BuildingBlock: XUDNAN_clean_linker_2, # of connection points: 2
#     Edge 87, Type (0, 0), BuildingBlock: XUDNAN_clean_linker_2, # of connection points: 2
#     Edge 88, Type (0, 0), BuildingBlock: XUDNAN_clean_linker_2, # of connection points: 2
#     Edge 89, Type (0, 0), BuildingBlock: XUDNAN_clean_linker_2, # of connection points: 2
#     Edge 90, Type (0, 0), BuildingBlock: XUDNAN_clean_linker_2, # of connection points: 2
#     Edge 91, Type (0, 0), BuildingBlock: XUDNAN_clean_linker_2, # of connection points: 2
#     Edge 92, Type (0, 0), BuildingBlock: XUDNAN_clean_linker_2, # of connection points: 2
#     Edge 93, Type (0, 0), BuildingBlock: XUDNAN_clean_linker_2, # of connection points: 2
#     Edge 94, Type (0, 0), BuildingBlock: XUDNAN_clean_linker_2, # of connection points: 2
#     Edge 95, Type (0, 0), BuildingBlock: XUDNAN_clean_linker_2, # of connection points: 2
#     Edge 96, Type (0, 0), BuildingBlock: XUDNAN_clean_linker_2, # of connection points: 2
#     Edge 97, Type (0, 0), BuildingBlock: XUDNAN_clean_linker_2, # of connection points: 2
#     Edge 98, Type (0, 0), BuildingBlock: XUDNAN_clean_linker_2, # of connection points: 2
#     Edge 99, Type (0, 0), BuildingBlock: XUDNAN_clean_linker_2, # of connection points: 2
#     Edge 100, Type (0, 0), BuildingBlock: XUDNAN_clean_linker_2, # of connection points: 2
#     Edge 101, Type (0, 0), BuildingBlock: XUDNAN_clean_linker_2, # of connection points: 2
#     Edge 102, Type (0, 0), BuildingBlock: XUDNAN_clean_linker_2, # of connection points: 2
#     Edge 103, Type (0, 0), BuildingBlock: XUDNAN_clean_linker_2, # of connection points: 2
#     Edge 104, Type (0, 0), BuildingBlock: XUDNAN_clean_linker_2, # of connection points: 2
#     Edge 105, Type (0, 0), BuildingBlock: XUDNAN_clean_linker_2, # of connection points: 2
#     Edge 106, Type (0, 0), BuildingBlock: XUDNAN_clean_linker_2, # of connection points: 2
#     Edge 107, Type (0, 0), BuildingBlock: XUDNAN_clean_linker_2, # of connection points: 2
#     Edge 108, Type (0, 0), BuildingBlock: XUDNAN_clean_linker_2, # of connection points: 2
#     Edge 109, Type (0, 0), BuildingBlock: XUDNAN_clean_linker_2, # of connection points: 2
#     Edge 110, Type (0, 0), BuildingBlock: XUDNAN_clean_linker_2, # of connection points: 2
#     Edge 111, Type (0, 0), BuildingBlock: XUDNAN_clean_linker_2, # of connection points: 2
# Relax obj value: 0.262
# Max RMSD: 0.208
# Mean RMSD: 0.208
data_MOF--net-sog--node1-BEQFEK_clean_sbu_0--edge1-XUDNAN_clean_linker_2
_symmetry_space_group_name_H-M    P1
_symmetry_Int_Tables_number       1
_symmetry_cell_setting            triclinic
loop_
_symmetry_equiv_pos_as_xyz
'x, y, z'
_cell_length_a     79.009082
_cell_length_b     18.2363
_cell_length_c     117.34313
_cell_angle_alpha  90.01038
_cell_angle_beta   90.010414
_cell_angle_gamma 90.022934
loop_
_atom_site_label
_atom_site_type_symbol
_atom_site_fract_x
_atom_site_fract_y
_atom_site_fract_z
_atom_type_partial_charge
Co0 Co 0.47019 0.24779 0.06661 0.0
Co1 Co 0.44888 0.10396 0.06811 0.0
C2 C 0.46949 0.16555 0.08806 0.0
O3 O 0.47597 0.21683 0.08217 0.0
O4 O 0.45881 0.1215 0.08366 0.0
C5 C 0.48849 0.37953 0.07065 0.0
O6 O 0.49392 0.34442 0.07971 0.0
C7 C 0.45368 0.95118 0.07179 0.0
C8 C 0.43016 0.89728 0.06607 0.0
C9 C 0.44617 0.88315 0.07045 0.0
N10 N 0.4427 0.00306 0.0685 0.0
N11 N 0.42856 0.97082 0.06515 0.0
C12 C 0.47167 0.96701 0.07504 0.0
H13 H 0.47581 0.02061 0.07158 0.0
H14 H 0.48025 0.9234 0.07186 0.0
H15 H 0.47267 0.96945 0.08446 0.0
C16 C 0.48392 0.17513 0.04613 0.0
N17 N 0.47458 0.1752 0.05571 0.0
N18 N 0.46509 0.11598 0.05599 0.0
C19 C 0.46808 0.07621 0.04649 0.0
C20 C 0.48015 0.11225 0.03992 0.0
C21 C 0.49537 0.23663 0.04273 0.0
H22 H 0.50181 0.25923 0.05036 0.0
H23 H 0.50493 0.21796 0.03643 0.0
H24 H 0.48769 0.28112 0.03887 0.0
O25 O 0.44599 0.27028 0.06596 0.0
O26 O 0.42918 0.17301 0.06596 0.0
H27 H 0.45881 -0.0002 0.03378 0.0
H28 H 0.4629 0.96156 0.04767 0.0
C29 C 0.45799 0.01028 0.04308 0.0
H30 H 0.44453 0.01812 0.04546 0.0
H31 H 0.41804 -0.00132 0.06195 0.0
O32 O 0.48032 0.34431 0.0631 0.0
C33 C 0.43125 0.24246 0.06552 0.0
Co34 Co 0.78534 0.02084 0.06716 0.0
Co35 Co 0.8069 0.16444 0.06602 0.0
C36 C 0.78799 0.11296 0.08746 0.0
O37 O 0.78145 0.05673 0.08284 0.0
O38 O 0.79775 0.15538 0.08189 0.0
C39 C 0.76917 0.88783 0.07323 0.0
O40 O 0.76677 0.92175 0.08297 0.0
C41 C 0.80283 0.31881 0.06853 0.0
C42 C 0.82702 0.3688 0.06327 0.0
C43 C 0.81103 0.38526 0.06743 0.0
N44 N 0.8134 0.26506 0.06533 0.0
N45 N 0.82791 0.29503 0.06219 0.0
C46 C 0.78458 0.30721 0.0715 0.0
H47 H 0.78042 0.25074 0.06945 0.0
H48 H 0.77657 0.3472 0.06683 0.0
H49 H 0.78267 0.31688 0.08071 0.0
C50 C 0.76804 0.09131 0.04751 0.0
N51 N 0.77971 0.09032 0.05587 0.0
N52 N 0.78969 0.14771 0.0548 0.0
C53 C 0.7849 0.18629 0.04553 0.0
C54 C 0.77093 0.15222 0.04065 0.0
C55 C 0.75508 0.03248 0.04584 0.0
H56 H 0.7616 0.97942 0.0444 0.0
H57 H 0.74743 0.0268 0.05372 0.0
H58 H 0.74667 0.0442 0.03849 0.0
O59 O 0.80936 0.99667 0.06536 0.0
O60 O 0.82619 0.09344 0.06387 0.0
H61 H 0.80705 0.25307 0.04326 0.0
H62 H 0.79103 0.26665 0.03252 0.0
C63 C 0.79323 0.25581 0.04167 0.0
H64 H 0.78791 0.30253 0.04653 0.0
H65 H 0.83837 0.26538 0.05931 0.0
O66 O 0.77463 0.92416 0.06477 0.0
C67 C 0.82402 0.024 0.064 0.0
Co68 Co 0.46085 0.02119 0.19148 0.0
Co69 Co 0.445 0.1752 0.19059 0.0
C70 C 0.46428 0.11001 0.17067 0.0
O71 O 0.46752 0.05031 0.17579 0.0
O72 O 0.45592 0.16074 0.17549 0.0
C73 C 0.48246 0.8963 0.18906 0.0
O74 O 0.49032 0.93484 0.18122 0.0
C75 C 0.45144 0.3267 0.18807 0.0
C76 C 0.42774 0.38246 0.19299 0.0
C77 C 0.44414 0.3949 0.18923 0.0
N78 N 0.43994 0.27594 0.19085 0.0
N79 N 0.4257 0.30912 0.19373 0.0
C80 C 0.46957 0.30969 0.18541 0.0
H81 H 0.47308 0.25445 0.18855 0.0
H82 H 0.47808 0.3512 0.1893 0.0
H83 H 0.47139 0.31089 0.17605 0.0
C84 C 0.47678 0.08323 0.21239 0.0
N85 N 0.46735 0.08948 0.20287 0.0
N86 N 0.45992 0.15386 0.20283 0.0
C87 C 0.46417 0.19048 0.2124 0.0
C88 C 0.4751 0.14711 0.2188 0.0
C89 C 0.48687 0.01647 0.21534 0.0
H90 H 0.49351 0.99607 0.20764 0.0
H91 H 0.49631 0.0283 0.2221 0.0
H92 H 0.47817 0.97272 0.21832 0.0
O93 O 0.43597 0.0043 0.19197 0.0
O94 O 0.42423 0.11482 0.19171 0.0
H95 H 0.45701 0.26932 0.22536 0.0
H96 H 0.46309 0.30746 0.2118 0.0
C97 C 0.45631 0.26154 0.21599 0.0
H98 H 0.44285 0.26315 0.21335 0.0
H99 H 0.41475 0.28194 0.19636 0.0
O100 O 0.47056 0.92545 0.19472 0.0
C101 C 0.4229 0.04516 0.19209 0.0
Co102 Co 0.79029 0.21822 0.19334 0.0
Co103 Co 0.80689 0.0665 0.18895 0.0
C104 C 0.78812 0.14846 0.17052 0.0
O105 O 0.78433 0.20088 0.17718 0.0
O106 O 0.79671 0.09411 0.17404 0.0
C107 C 0.76915 0.3438 0.19197 0.0
O108 O 0.76099 0.3051 0.18429 0.0
C109 C 0.80121 0.91509 0.18408 0.0
C110 C 0.82499 0.86018 0.18904 0.0
C111 C 0.80869 0.84676 0.18513 0.0
N112 N 0.81246 0.96616 0.18726 0.0
N113 N 0.8268 0.93344 0.19002 0.0
C114 C 0.78302 0.93191 0.18155 0.0
H115 H 0.77959 0.98741 0.18462 0.0
H116 H 0.77457 0.89083 0.18559 0.0
H117 H 0.781 0.93026 0.17219 0.0
C118 C 0.77322 0.13413 0.21197 0.0
N119 N 0.78373 0.13977 0.20295 0.0
N120 N 0.79154 0.07684 0.20144 0.0
C121 C 0.78664 0.02982 0.20966 0.0
C122 C 0.77463 0.06386 0.2165 0.0
C123 C 0.76197 0.19467 0.21601 0.0
H124 H 0.76934 0.23157 0.22167 0.0
H125 H 0.7574 0.22724 0.20865 0.0
H126 H 0.751 0.17275 0.22084 0.0
O127 O 0.81513 0.23478 0.19427 0.0
O128 O 0.82738 0.12667 0.19153 0.0
H129 H 0.80824 0.95825 0.20941 0.0
H130 H 0.7937 0.94101 0.22091 0.0
C131 C 0.79469 0.9567 0.21179 0.0
H132 H 0.78817 0.91427 0.20664 0.0
H133 H 0.8375 0.96072 0.19306 0.0
O134 O 0.78057 0.31295 0.19788 0.0
C135 C 0.82838 0.19537 0.19344 0.0
Co136 Co 0.53639 0.77514 0.94258 0.0
Co137 Co 0.55563 0.92194 0.93944 0.0
C138 C 0.53484 0.85529 0.92049 0.0
O139 O 0.53015 0.8021 0.92677 0.0
O140 O 0.54473 0.90469 0.92431 0.0
C141 C 0.52263 0.6355 0.93948 0.0
O142 O 0.52417 0.65448 0.92874 0.0
C143 C 0.55571 0.07877 0.93695 0.0
C144 C 0.58006 0.11051 0.9448 0.0
C145 C 0.56507 0.13866 0.94051 0.0
N146 N 0.56462 0.01798 0.93922 0.0
N147 N 0.5794 0.03714 0.94357 0.0
C148 C 0.53756 0.07826 0.93325 0.0
H149 H 0.53188 0.02317 0.93445 0.0
H150 H 0.53012 0.1195 0.93808 0.0
H151 H 0.5369 0.09281 0.92408 0.0
C152 C 0.52078 0.85787 0.96187 0.0
N153 N 0.53143 0.85214 0.95291 0.0
N154 N 0.54004 0.91351 0.95186 0.0
C155 C 0.5355 0.95939 0.96035 0.0
C156 C 0.52294 0.92643 0.96683 0.0
C157 C 0.50854 0.79946 0.96534 0.0
H158 H 0.5029 0.77376 0.95765 0.0
H159 H 0.49837 0.82191 0.97084 0.0
H160 H 0.51545 0.75627 0.9701 0.0
O161 O 0.56088 0.74761 0.94322 0.0
O162 O 0.57452 0.85327 0.94162 0.0
H163 H 0.54268 0.04457 0.97222 0.0
H164 H 0.53847 0.07503 0.95797 0.0
C165 C 0.54416 0.03033 0.96308 0.0
H166 H 0.55784 0.02632 0.96117 0.0
H167 H 0.58843 4e-05 0.94653 0.0
O168 O 0.52512 0.68364 0.94712 0.0
C169 C 0.57462 0.78402 0.9429 0.0
Co170 Co 0.2205 0.98829 0.94237 0.0
Co171 Co 0.19774 0.84889 0.94063 0.0
C172 C 0.21871 0.90788 0.92067 0.0
O173 O 0.22547 0.95796 0.92669 0.0
O174 O 0.20788 0.86372 0.92495 0.0
C175 C 0.2301 0.13087 0.93868 0.0
O176 O 0.22528 0.11087 0.92842 0.0
C177 C 0.19698 0.69121 0.93835 0.0
C178 C 0.17326 0.66071 0.9471 0.0
C179 C 0.18781 0.63162 0.94229 0.0
N180 N 0.1884 0.75264 0.94088 0.0
N181 N 0.17398 0.7341 0.94581 0.0
C182 C 0.2148 0.69077 0.93399 0.0
H183 H 0.22078 0.74532 0.93512 0.0
H184 H 0.22245 0.64851 0.93844 0.0
H185 H 0.21465 0.67718 0.92477 0.0
C186 C 0.23554 0.90653 0.9616 0.0
N187 N 0.22451 0.91284 0.95291 0.0
N188 N 0.2144 0.85548 0.95273 0.0
C189 C 0.21848 0.81153 0.96162 0.0
C190 C 0.23209 0.84209 0.96745 0.0
C191 C 0.24848 0.96344 0.96449 0.0
H192 H 0.24197 0.01579 0.96648 0.0
H193 H 0.25667 0.97328 0.95696 0.0
H194 H 0.25636 0.94706 0.97189 0.0
O195 O 0.19673 0.0178 0.94324 0.0
O196 O 0.17924 0.92321 0.94289 0.0
H197 H 0.19592 0.74698 0.96322 0.0
H198 H 0.21217 0.72363 0.97334 0.0
C199 C 0.20973 0.741 0.96445 0.0
H200 H 0.21453 0.69715 0.95878 0.0
H201 H 0.16528 0.77161 0.94907 0.0
O202 O 0.23173 0.08172 0.94629 0.0
C203 C 0.18181 0.9921 0.94355 0.0
Co204 Co 0.53845 0.97369 0.81641 0.0
Co205 Co 0.55507 0.82099 0.81887 0.0
C206 C 0.53471 0.88995 0.83785 0.0
O207 O 0.53143 0.94776 0.83223 0.0
O208 O 0.54349 0.83857 0.83358 0.0
C209 C 0.51728 0.09953 0.81843 0.0
O210 O 0.50945 0.06165 0.82636 0.0
C211 C 0.54984 0.66879 0.82245 0.0
C212 C 0.57391 0.61569 0.81763 0.0
C213 C 0.55765 0.60133 0.82151 0.0
N214 N 0.56092 0.72074 0.81939 0.0
N215 N 0.57539 0.68914 0.81662 0.0
C216 C 0.53154 0.68374 0.82488 0.0
H217 H 0.5277 0.73777 0.82142 0.0
H218 H 0.5234 0.64038 0.82113 0.0
H219 H 0.52956 0.68426 0.83423 0.0
C220 C 0.52444 0.9039 0.79543 0.0
N221 N 0.53295 0.90127 0.80539 0.0
N222 N 0.54063 0.83757 0.80622 0.0
C223 C 0.53747 0.798 0.79675 0.0
C224 C 0.52703 0.83841 0.78963 0.0
C225 C 0.51573 0.97092 0.79103 0.0
H226 H 0.52533 0.01384 0.78924 0.0
H227 H 0.50706 0.99259 0.79766 0.0
H228 H 0.50851 0.95908 0.78312 0.0
O229 O 0.5632 0.99289 0.81627 0.0
O230 O 0.57545 0.8838 0.81776 0.0
H231 H 0.55904 0.72687 0.796 0.0
H232 H 0.5432 0.70801 0.78524 0.0
C233 C 0.54526 0.72493 0.79421 0.0
H234 H 0.53947 0.68289 0.7998 0.0
H235 H 0.58608 0.7174 0.81379 0.0
O236 O 0.5286 0.06855 0.81247 0.0
C237 C 0.57645 0.95334 0.81681 0.0
Co238 Co 0.2146 0.77782 0.8167 0.0
Co239 Co 0.19097 0.91552 0.81774 0.0
C240 C 0.2134 0.86568 0.83759 0.0
O241 O 0.2201 0.8124 0.83224 0.0
O242 O 0.20234 0.90699 0.83298 0.0
C243 C 0.22329 0.63431 0.82043 0.0
O244 O 0.21824 0.65447 0.83063 0.0
C245 C 0.19021 0.07353 0.81946 0.0
C246 C 0.16605 0.10334 0.81123 0.0
C247 C 0.18078 0.13286 0.81574 0.0
N248 N 0.18157 0.0118 0.81717 0.0
N249 N 0.16692 0.02994 0.81252 0.0
C250 C 0.20827 0.07456 0.82335 0.0
H251 H 0.21442 0.02089 0.82174 0.0
H252 H 0.21548 0.11847 0.81895 0.0
H253 H 0.20861 0.08579 0.83264 0.0
C254 C 0.2268 0.85198 0.79572 0.0
N255 N 0.21752 0.85028 0.80536 0.0
N256 N 0.20699 0.90624 0.80544 0.0
C257 C 0.20919 0.94506 0.79576 0.0
C258 C 0.2218 0.91211 0.78927 0.0
C259 C 0.23858 0.79201 0.79218 0.0
H260 H 0.23102 0.74393 0.7894 0.0
H261 H 0.24638 0.77475 0.79958 0.0
H262 H 0.24689 0.8095 0.78506 0.0
O263 O 0.19096 0.74739 0.8164 0.0
O264 O 0.17265 0.83892 0.81638 0.0
H265 H 0.1854 -0.00013 0.79373 0.0
H266 H 0.20135 0.02906 0.78367 0.0
C267 C 0.19906 0.01137 0.79257 0.0
H268 H 0.20271 0.05754 0.79817 0.0
H269 H 0.15807 0.99216 0.80951 0.0
O270 O 0.22558 0.68362 0.81292 0.0
C271 C 0.17582 0.77037 0.8161 0.0
Co272 Co 0.4614 0.70622 0.56463 0.0
Co273 Co 0.44319 0.5577 0.56885 0.0
C274 C 0.46317 0.6336 0.58734 0.0
O275 O 0.46737 0.68568 0.5807 0.0
O276 O 0.45398 0.5808 0.58383 0.0
C277 C 0.47783 0.84427 0.56654 0.0
O278 O 0.47969 0.82472 0.57723 0.0
C279 C 0.4447 0.4011 0.57162 0.0
C280 C 0.42003 0.36519 0.56474 0.0
C281 C 0.43563 0.33961 0.5684 0.0
N282 N 0.43506 0.46033 0.56971 0.0
N283 N 0.4201 0.43858 0.56597 0.0
C284 C 0.46313 0.40472 0.57459 0.0
H285 H 0.46798 0.46158 0.57381 0.0
H286 H 0.47059 0.36763 0.56903 0.0
H287 H 0.46484 0.38609 0.58352 0.0
C288 C 0.47749 0.6201 0.54592 0.0
N289 N 0.46698 0.6268 0.55492 0.0
N290 N 0.4585 0.56534 0.55626 0.0
C291 C 0.46284 0.51865 0.54783 0.0
C292 C 0.47529 0.55091 0.54115 0.0
C293 C 0.48951 0.67856 0.54213 0.0
H294 H 0.49447 0.70873 0.54963 0.0
H295 H 0.5002 0.65493 0.53721 0.0
H296 H 0.48264 0.71811 0.53664 0.0
O297 O 0.43671 0.72954 0.5638 0.0
O298 O 0.42374 0.62312 0.56645 0.0
H299 H 0.45435 0.43633 0.53588 0.0
H300 H 0.4596 0.40273 0.54979 0.0
C301 C 0.45367 0.44884 0.54512 0.0
H302 H 0.44019 0.45335 0.54756 0.0
H303 H 0.41051 0.47406 0.56335 0.0
O304 O 0.47209 0.79785 0.55945 0.0
C305 C 0.4232 0.69182 0.56461 0.0
Co306 Co 0.78878 0.51685 0.56613 0.0
Co307 Co 0.80415 0.67123 0.56912 0.0
C308 C 0.7861 0.59332 0.58833 0.0
O309 O 0.78256 0.53862 0.58207 0.0
O310 O 0.79444 0.64725 0.58438 0.0
C311 C 0.76691 0.39311 0.56782 0.0
O312 O 0.75866 0.43319 0.57528 0.0
C313 C 0.79836 0.82245 0.57363 0.0
C314 C 0.82129 0.87831 0.56727 0.0
C315 C 0.80547 0.89097 0.57202 0.0
N316 N 0.80938 0.77185 0.56999 0.0
N317 N 0.82322 0.80511 0.56636 0.0
C318 C 0.78058 0.80478 0.57715 0.0
H319 H 0.77678 0.74995 0.57397 0.0
H320 H 0.77159 0.84646 0.57387 0.0
H321 H 0.77983 0.80426 0.5866 0.0
C322 C 0.77101 0.58981 0.54696 0.0
N323 N 0.78163 0.59051 0.55594 0.0
N324 N 0.78861 0.6557 0.55683 0.0
C325 C 0.78292 0.69832 0.54822 0.0
C326 C 0.77147 0.65812 0.54175 0.0
C327 C 0.76135 0.52355 0.54319 0.0
H328 H 0.77027 0.47735 0.54187 0.0
H329 H 0.75239 0.50721 0.55001 0.0
H330 H 0.75427 0.5337 0.53517 0.0
O331 O 0.81367 0.50192 0.56518 0.0
O332 O 0.82499 0.61282 0.56678 0.0
H333 H 0.80194 0.78219 0.54766 0.0
H334 H 0.78485 0.79572 0.53766 0.0
C335 C 0.78812 0.77635 0.54633 0.0
H336 H 0.78145 0.81193 0.55252 0.0
H337 H 0.83364 0.77813 0.56285 0.0
O338 O 0.77904 0.42153 0.56228 0.0
C339 C 0.82657 0.54374 0.56549 0.0
Co340 Co 0.46537 0.52564 0.69144 0.0
Co341 Co 0.44435 0.67082 0.69162 0.0
C342 C 0.46297 0.61262 0.67054 0.0
O343 O 0.46912 0.55699 0.67554 0.0
O344 O 0.45348 0.65783 0.67578 0.0
C345 C 0.48286 0.39393 0.68618 0.0
O346 O 0.48678 0.42872 0.67674 0.0
C347 C 0.44819 0.82478 0.68833 0.0
C348 C 0.42461 0.87548 0.69459 0.0
C349 C 0.44023 0.89157 0.68978 0.0
N350 N 0.43782 0.77139 0.69193 0.0
N351 N 0.42365 0.80174 0.69564 0.0
C352 C 0.46615 0.81229 0.68474 0.0
H353 H 0.47063 0.75728 0.68736 0.0
H354 H 0.47454 0.85487 0.68846 0.0
H355 H 0.467 0.8164 0.67535 0.0
C356 C 0.48298 0.59964 0.7106 0.0
N357 N 0.47134 0.59774 0.70222 0.0
N358 N 0.46167 0.65629 0.7029 0.0
C359 C 0.46666 0.6968 0.71192 0.0
C360 C 0.48041 0.66255 0.71706 0.0
C361 C 0.49547 0.53959 0.71272 0.0
H362 H 0.48853 0.48798 0.71454 0.0
H363 H 0.50309 0.53041 0.70491 0.0
H364 H 0.50395 0.55231 0.72 0.0
O365 O 0.44137 0.50303 0.69356 0.0
O366 O 0.42487 0.60122 0.6942 0.0
H367 H 0.44478 0.76497 0.71422 0.0
H368 H 0.46154 0.78248 0.72432 0.0
C369 C 0.45869 0.76798 0.71536 0.0
H370 H 0.46372 0.81245 0.70989 0.0
H371 H 0.41348 0.77243 0.69902 0.0
O372 O 0.476 0.42942 0.69426 0.0
C373 C 0.42682 0.53178 0.69468 0.0
Co374 Co 0.78994 0.71884 0.6919 0.0
Co375 Co 0.80637 0.56579 0.69123 0.0
C376 C 0.78706 0.62911 0.67116 0.0
O377 O 0.78358 0.68887 0.67619 0.0
O378 O 0.79553 0.57917 0.67609 0.0
C379 C 0.7688 0.84477 0.689 0.0
O380 O 0.76146 0.80717 0.68082 0.0
C381 C 0.8004 0.41378 0.68886 0.0
C382 C 0.82452 0.3596 0.69325 0.0
C383 C 0.80804 0.34615 0.68973 0.0
N384 N 0.81177 0.4653 0.69154 0.0
N385 N 0.82626 0.43305 0.69412 0.0
C386 C 0.78211 0.42929 0.68651 0.0
H387 H 0.77855 0.48493 0.68943 0.0
H388 H 0.77395 0.38799 0.69077 0.0
H389 H 0.77981 0.42586 0.67721 0.0
C390 C 0.77399 0.65611 0.71275 0.0
N391 N 0.78358 0.65035 0.7033 0.0
N392 N 0.79135 0.58675 0.70338 0.0
C393 C 0.78725 0.55033 0.713 0.0
C394 C 0.77601 0.59284 0.71927 0.0
C395 C 0.76341 0.72176 0.71551 0.0
H396 H 0.75718 0.74221 0.70766 0.0
H397 H 0.75361 0.70854 0.72197 0.0
H398 H 0.7717 0.766 0.71884 0.0
O399 O 0.81476 0.73739 0.69251 0.0
O400 O 0.82687 0.62762 0.69238 0.0
H401 H 0.79524 0.47436 0.72613 0.0
H402 H 0.78886 0.43338 0.71283 0.0
C403 C 0.79558 0.48056 0.71673 0.0
H404 H 0.80895 0.47962 0.71389 0.0
H405 H 0.8372 0.46095 0.69657 0.0
O406 O 0.78005 0.81435 0.69508 0.0
C407 C 0.82796 0.69736 0.69272 0.0
Co408 Co 0.53272 0.25631 0.44 0.0
Co409 Co 0.55574 0.39523 0.44173 0.0
C410 C 0.53595 0.35282 0.4202 0.0
O411 O 0.52903 0.2963 0.42454 0.0
O412 O 0.54615 0.39284 0.42589 0.0
C413 C 0.52511 0.11262 0.43543 0.0
O414 O 0.53241 0.13235 0.42585 0.0
C415 C 0.55624 0.55307 0.44147 0.0
C416 C 0.5796 0.58195 0.45078 0.0
C417 C 0.56529 0.61172 0.44575 0.0
N418 N 0.56474 0.49117 0.4438 0.0
N419 N 0.57888 0.50869 0.44919 0.0
C420 C 0.53871 0.55504 0.43663 0.0
H421 H 0.53248 0.50082 0.43745 0.0
H422 H 0.53097 0.59732 0.44101 0.0
H423 H 0.53946 0.56982 0.42748 0.0
C424 C 0.51753 0.32155 0.46068 0.0
N425 N 0.52813 0.32428 0.45171 0.0
N426 N 0.53829 0.38094 0.45283 0.0
C427 C 0.53447 0.4161 0.46263 0.0
C428 C 0.52113 0.37984 0.46791 0.0
C429 C 0.5049 0.26165 0.46255 0.0
H430 H 0.49898 0.24615 0.45432 0.0
H431 H 0.49497 0.27883 0.46868 0.0
H432 H 0.51152 0.21271 0.46597 0.0
O433 O 0.55631 0.22543 0.44131 0.0
O434 O 0.57395 0.31868 0.44331 0.0
H435 H 0.54251 0.48351 0.47688 0.0
H436 H 0.54139 0.52927 0.46331 0.0
C437 C 0.54479 0.47714 0.4676 0.0
H438 H 0.55842 0.46628 0.46621 0.0
H439 H 0.58754 0.47055 0.45232 0.0
O440 O 0.52114 0.16217 0.44256 0.0
C441 C 0.5712 0.24986 0.4427 0.0
Co442 Co 0.22055 0.49495 0.44273 0.0
Co443 Co 0.19809 0.35507 0.44099 0.0
C444 C 0.2192 0.41359 0.4211 0.0
O445 O 0.22575 0.46426 0.42711 0.0
O446 O 0.20842 0.36919 0.42536 0.0
C447 C 0.23067 0.63752 0.43918 0.0
O448 O 0.22615 0.61859 0.42881 0.0
C449 C 0.19822 0.19767 0.43953 0.0
C450 C 0.17368 0.16598 0.44708 0.0
C451 C 0.18887 0.13785 0.4431 0.0
N452 N 0.18909 0.25852 0.44138 0.0
N453 N 0.17424 0.23931 0.44563 0.0
C454 C 0.21648 0.19808 0.43614 0.0
H455 H 0.2218 0.2543 0.43656 0.0
H456 H 0.22389 0.16107 0.44176 0.0
H457 H 0.21763 0.17743 0.42728 0.0
C458 C 0.23398 0.41885 0.46287 0.0
N459 N 0.22441 0.4205 0.4534 0.0
N460 N 0.21439 0.36295 0.45319 0.0
C461 C 0.21712 0.32317 0.46275 0.0
C462 C 0.22969 0.35709 0.46918 0.0
C463 C 0.2463 0.47773 0.46603 0.0
H464 H 0.25285 0.49798 0.45827 0.0
H465 H 0.25578 0.45731 0.47225 0.0
H466 H 0.23932 0.52442 0.46986 0.0
O467 O 0.19671 0.52427 0.44354 0.0
O468 O 0.17949 0.42865 0.44313 0.0
H469 H 0.20685 0.25233 0.47587 0.0
H470 H 0.21067 0.20941 0.46231 0.0
C471 C 0.20625 0.26041 0.46651 0.0
H472 H 0.19292 0.27056 0.46407 0.0
H473 H 0.165 0.27641 0.44828 0.0
O474 O 0.23181 0.58785 0.44673 0.0
C475 C 0.18186 0.49765 0.44384 0.0
Co476 Co 0.53749 0.47885 0.31468 0.0
Co477 Co 0.55634 0.3311 0.31809 0.0
C478 C 0.53702 0.40321 0.33722 0.0
O479 O 0.53237 0.4558 0.33082 0.0
O480 O 0.5462 0.35137 0.33339 0.0
C481 C 0.52243 0.61769 0.31752 0.0
O482 O 0.52261 0.59843 0.3283 0.0
C483 C 0.55611 0.17424 0.32085 0.0
C484 C 0.58025 0.14147 0.31283 0.0
C485 C 0.56526 0.11391 0.31723 0.0
N486 N 0.56511 0.23468 0.31848 0.0
N487 N 0.57978 0.21486 0.31404 0.0
C488 C 0.53804 0.17553 0.32471 0.0
H489 H 0.53256 0.23118 0.32375 0.0
H490 H 0.53035 0.13544 0.31983 0.0
H491 H 0.53751 0.15971 0.33384 0.0
C492 C 0.52088 0.39407 0.29601 0.0
N493 N 0.53178 0.40019 0.30482 0.0
N494 N 0.54024 0.3385 0.30593 0.0
C495 C 0.53534 0.29196 0.29761 0.0
C496 C 0.5227 0.32491 0.29119 0.0
C497 C 0.50885 0.45304 0.29246 0.0
H498 H 0.50349 0.48024 0.30011 0.0
H499 H 0.49845 0.43071 0.28712 0.0
H500 H 0.51585 0.49497 0.28748 0.0
O501 O 0.56194 0.50463 0.31338 0.0
O502 O 0.57538 0.39876 0.31535 0.0
H503 H 0.54217 0.20625 0.28575 0.0
H504 H 0.53811 0.17627 0.30003 0.0
C505 C 0.54382 0.22067 0.29487 0.0
H506 H 0.55753 0.22424 0.29668 0.0
H507 H 0.58884 0.25154 0.31098 0.0
O508 O 0.52623 0.57027 0.31002 0.0
C509 C 0.5756 0.46773 0.31372 0.0
Co510 Co 0.21375 0.28206 0.31711 0.0
Co511 Co 0.19403 0.4286 0.31782 0.0
C512 C 0.21365 0.37274 0.33811 0.0
O513 O 0.21854 0.31509 0.33297 0.0
O514 O 0.20438 0.42035 0.33322 0.0
C515 C 0.22465 0.14194 0.32154 0.0
O516 O 0.21951 0.16179 0.33174 0.0
C517 C 0.19261 0.58563 0.31936 0.0
C518 C 0.16925 0.61299 0.30989 0.0
C519 C 0.18328 0.64362 0.31514 0.0
N520 N 0.18457 0.52334 0.31667 0.0
N521 N 0.17037 0.53981 0.31128 0.0
C522 C 0.21011 0.58842 0.32427 0.0
H523 H 0.21687 0.53606 0.32272 0.0
H524 H 0.21749 0.63436 0.32054 0.0
H525 H 0.2092 0.59733 0.3336 0.0
C526 C 0.23076 0.3575 0.29754 0.0
N527 N 0.21934 0.35476 0.30609 0.0
N528 N 0.21049 0.41584 0.30614 0.0
C529 C 0.21579 0.45877 0.29749 0.0
C530 C 0.22896 0.42392 0.29185 0.0
C531 C 0.24341 0.29854 0.29515 0.0
H532 H 0.23688 0.25169 0.29101 0.0
H533 H 0.24891 0.27854 0.30328 0.0
H534 H 0.25366 0.31841 0.28946 0.0
O535 O 0.18953 0.25237 0.31584 0.0
O536 O 0.17553 0.35744 0.31604 0.0
H537 H 0.21056 0.54328 0.28503 0.0
H538 H 0.21256 0.57451 0.29949 0.0
C539 C 0.20768 0.5296 0.29404 0.0
H540 H 0.19379 0.52578 0.29501 0.0
H541 H 0.16208 0.50104 0.30788 0.0
O542 O 0.22559 0.1903 0.3138 0.0
C543 C 0.17569 0.28784 0.31544 0.0
Co544 Co 0.9694 0.24059 0.56589 0.0
Co545 Co 0.94639 0.10199 0.56807 0.0
C546 C 0.96923 0.15709 0.58734 0.0
O547 O 0.9758 0.20775 0.58133 0.0
O548 O 0.95786 0.11495 0.58324 0.0
C549 C 0.97895 0.38352 0.56936 0.0
O550 O 0.97475 0.36342 0.57973 0.0
C551 C 0.94582 0.94417 0.57023 0.0
C552 C 0.92134 0.91358 0.56251 0.0
C553 C 0.9363 0.88451 0.56674 0.0
N554 N 0.93704 0.00561 0.56804 0.0
N555 N 0.92219 0.98701 0.56373 0.0
C556 C 0.96405 0.9437 0.57375 0.0
H557 H 0.96989 -0.00169 0.57239 0.0
H558 H 0.97121 0.90167 0.56889 0.0
H559 H 0.96488 0.92973 0.58293 0.0
C560 C 0.98085 0.16426 0.54498 0.0
N561 N 0.97205 0.16677 0.55481 0.0
N562 N 0.96191 0.10961 0.55542 0.0
C563 C 0.96385 0.06921 0.54586 0.0
C564 C 0.97591 0.10234 0.53893 0.0
C565 C 0.99207 0.22488 0.54091 0.0
H566 H 0.9841 0.27229 0.53838 0.0
H567 H 1.00044 0.24306 0.54796 0.0
H568 H 0.99982 0.20765 0.53349 0.0
O569 O 0.94563 0.27103 0.56606 0.0
O570 O 0.92793 0.17716 0.5666 0.0
H571 H 0.94025 0.01186 0.54458 0.0
H572 H 0.95583 0.98259 0.53428 0.0
C573 C 0.9539 0.00147 0.54316 0.0
H574 H 0.95806 0.95656 0.54884 0.0
H575 H 0.91319 0.02449 0.56084 0.0
O576 O 0.98029 0.33433 0.56173 0.0
C577 C 0.93063 0.24604 0.56611 0.0
Co578 Co 0.28241 0.007 0.5661 0.0
Co579 Co 0.30571 0.14497 0.56873 0.0
C580 C 0.28414 0.08337 0.58818 0.0
O581 O 0.27727 0.03469 0.58193 0.0
O582 O 0.29518 0.12746 0.58416 0.0
C583 C 0.27248 0.86379 0.56929 0.0
O584 O 0.27623 0.88333 0.57976 0.0
C585 C 0.3059 0.30281 0.57115 0.0
C586 C 0.33049 0.3345 0.56371 0.0
C587 C 0.31534 0.36293 0.56772 0.0
N588 N 0.31491 0.24174 0.56908 0.0
N589 N 0.32982 0.26106 0.56495 0.0
C590 C 0.28763 0.30251 0.57454 0.0
H591 H 0.28219 0.24661 0.57386 0.0
H592 H 0.28028 0.34092 0.56912 0.0
H593 H 0.28653 0.32138 0.5835 0.0
C594 C 0.26807 0.09511 0.54707 0.0
N595 N 0.27882 0.08488 0.55586 0.0
N596 N 0.2893 0.14093 0.55652 0.0
C597 C 0.28574 0.18769 0.54792 0.0
C598 C 0.27201 0.1611 0.54181 0.0
C599 C 0.25425 0.04297 0.54391 0.0
H600 H 0.25922 0.00306 0.5376 0.0
H601 H 0.24992 0.01225 0.55153 0.0
H602 H 0.24345 0.07263 0.53998 0.0
O603 O 0.3062 0.9779 0.56531 0.0
O604 O 0.32413 0.07072 0.56626 0.0
H605 H 0.29529 0.26421 0.53545 0.0
H606 H 0.29176 0.30175 0.54935 0.0
C607 C 0.2963 0.25268 0.54471 0.0
H608 H 0.30975 0.24255 0.5468 0.0
H609 H 0.33897 0.22401 0.56215 0.0
O610 O 0.27151 0.91337 0.56168 0.0
C611 C 0.32125 0.00226 0.56523 0.0
Co612 Co 0.96971 0.00239 0.69055 0.0
Co613 Co 0.94779 0.14506 0.69056 0.0
C614 C 0.96866 0.09284 0.67006 0.0
O615 O 0.97529 0.03856 0.67514 0.0
O616 O 0.95803 0.13438 0.67501 0.0
C617 C 0.98644 0.86925 0.68529 0.0
O618 O 0.98987 0.9032 0.6757 0.0
C619 C 0.95222 0.29858 0.68781 0.0
C620 C 0.92842 0.35062 0.69337 0.0
C621 C 0.94443 0.36587 0.6891 0.0
N622 N 0.94139 0.24574 0.69096 0.0
N623 N 0.9271 0.27689 0.69428 0.0
C624 C 0.97025 0.28461 0.6845 0.0
H625 H 0.97471 0.23137 0.6879 0.0
H626 H 0.97861 0.32911 0.68767 0.0
H627 H 0.97117 0.28281 0.67508 0.0
C628 C 0.9835 0.06956 0.71159 0.0
N629 N 0.97392 0.0716 0.70211 0.0
N630 N 0.96412 0.12984 0.70244 0.0
C631 C 0.96718 0.16686 0.71218 0.0
C632 C 0.9796 0.13008 0.71832 0.0
C633 C 0.99538 0.00835 0.71439 0.0
H634 H 0.00164 0.98848 0.70651 0.0
H635 H 0.00507 0.02626 0.72065 0.0
H636 H 0.98807 0.96212 0.71807 0.0
O637 O 0.9456 0.97838 0.69111 0.0
O638 O 0.92835 0.07382 0.69214 0.0
H639 H 0.95779 0.23824 0.72553 0.0
H640 H 0.96171 0.2815 0.71198 0.0
C641 C 0.95694 0.23101 0.71616 0.0
H642 H 0.94349 0.22339 0.71374 0.0
H643 H 0.91659 0.24813 0.69727 0.0
O644 O 0.98004 0.90552 0.69347 0.0
C645 C 0.93074 0.00453 0.6919 0.0
Co646 Co 0.2881 0.22223 0.69157 0.0
Co647 Co 0.30741 0.07503 0.69246 0.0
C648 C 0.2891 0.12584 0.67125 0.0
O649 O 0.28415 0.1852 0.67586 0.0
O650 O 0.29794 0.0792 0.67671 0.0
C651 C 0.27832 0.36225 0.68628 0.0
O652 O 0.28517 0.34188 0.67657 0.0
C653 C 0.30939 0.9179 0.69133 0.0
C654 C 0.33096 0.89219 0.70265 0.0
C655 C 0.3181 0.86061 0.69631 0.0
N656 N 0.31669 0.98073 0.6946 0.0
N657 N 0.32986 0.96526 0.70113 0.0
C658 C 0.29288 0.91396 0.68507 0.0
H659 H 0.28524 0.96387 0.68673 0.0
H660 H 0.2855 0.86481 0.6876 0.0
H661 H 0.29546 0.91066 0.67579 0.0
C662 C 0.27009 0.15474 0.7113 0.0
N663 N 0.28178 0.15313 0.70294 0.0
N664 N 0.29035 0.09148 0.70361 0.0
C665 C 0.28458 0.05242 0.71259 0.0
C666 C 0.27153 0.0911 0.71775 0.0
C667 C 0.25828 0.21752 0.7133 0.0
H668 H 0.26578 0.2676 0.71515 0.0
H669 H 0.25089 0.22805 0.70542 0.0
H670 H 0.24955 0.20674 0.72051 0.0
O671 O 0.31222 0.25222 0.69329 0.0
O672 O 0.32592 0.14656 0.69429 0.0
H673 H 0.30497 0.97992 0.71673 0.0
H674 H 0.28556 0.95941 0.72416 0.0
C675 C 0.29101 0.97831 0.71597 0.0
H676 H 0.28752 0.93792 0.70933 0.0
H677 H 0.33737 0.00464 0.70513 0.0
O678 O 0.27599 0.31423 0.69393 0.0
C679 C 0.32591 0.21631 0.69439 0.0
Co680 Co 0.03912 0.76765 0.44327 0.0
Co681 Co 0.05573 0.91992 0.43984 0.0
C682 C 0.03778 0.8421 0.42066 0.0
O683 O 0.03406 0.78855 0.42714 0.0
O684 O 0.04596 0.89721 0.42446 0.0
C685 C 0.02097 0.6326 0.44089 0.0
O686 O 0.01832 0.65451 0.43038 0.0
C687 C 0.05373 0.0763 0.43707 0.0
C688 C 0.07707 0.11416 0.44563 0.0
C689 C 0.06197 0.13841 0.44095 0.0
N690 N 0.06334 0.01795 0.43958 0.0
N691 N 0.07754 0.04086 0.44435 0.0
C692 C 0.03589 0.07103 0.43282 0.0
H693 H 0.0309 0.01463 0.43394 0.0
H694 H 0.02758 0.11064 0.43732 0.0
H695 H 0.03569 0.08481 0.42361 0.0
C696 C 0.02138 0.84638 0.46184 0.0
N697 N 0.03226 0.84455 0.453 0.0
N698 N 0.03987 0.90843 0.45208 0.0
C699 C 0.03448 0.95218 0.46066 0.0
C700 C 0.02248 0.91455 0.46702 0.0
C701 C 0.01085 0.78254 0.46555 0.0
H702 H 0.01932 0.73761 0.46841 0.0
H703 H 0.00342 0.76185 0.4582 0.0
H704 H 0.00218 0.79741 0.47262 0.0
O705 O 0.06383 0.74766 0.44478 0.0
O706 O 0.07564 0.85692 0.44248 0.0
H707 H 0.05468 0.03053 0.46162 0.0
H708 H 0.03802 0.04577 0.47181 0.0
C709 C 0.04083 0.02809 0.46298 0.0
H710 H 0.03451 0.06707 0.45713 0.0
H711 H 0.08687 0.00614 0.44758 0.0
O712 O 0.02833 0.67534 0.44784 0.0
C713 C 0.0769 0.78832 0.44427 0.0
Co714 Co 0.71185 0.97066 0.44358 0.0
Co715 Co 0.69626 0.81723 0.4394 0.0
C716 C 0.71477 0.8988 0.4209 0.0
O717 O 0.71818 0.95198 0.42751 0.0
O718 O 0.70646 0.84375 0.42446 0.0
C719 C 0.73342 0.09507 0.44231 0.0
O720 O 0.7418 0.05553 0.43485 0.0
C721 C 0.70182 0.66581 0.43463 0.0
C722 C 0.67825 0.61108 0.44011 0.0
C723 C 0.69435 0.59759 0.43586 0.0
N724 N 0.69074 0.71691 0.43802 0.0
N725 N 0.67652 0.68433 0.4411 0.0
C726 C 0.71992 0.68253 0.43183 0.0
H727 H 0.72354 0.73754 0.43504 0.0
H728 H 0.72848 0.64081 0.43559 0.0
H729 H 0.72157 0.68206 0.42244 0.0
C730 C 0.72658 0.89491 0.46364 0.0
N731 N 0.71824 0.89457 0.45362 0.0
N732 N 0.71126 0.8299 0.45205 0.0
C733 C 0.71479 0.78711 0.46112 0.0
C734 C 0.72464 0.82673 0.46877 0.0
C735 C 0.73412 0.96231 0.46884 0.0
H736 H 0.72394 0.00294 0.47042 0.0
H737 H 0.74318 0.98727 0.46274 0.0
H738 H 0.7407 0.95004 0.47697 0.0
O739 O 0.68705 0.98628 0.44431 0.0
O740 O 0.67549 0.87653 0.44173 0.0
H741 H 0.69394 0.71188 0.4615 0.0
H742 H 0.7107 0.68959 0.47144 0.0
C743 C 0.70784 0.71146 0.46284 0.0
H744 H 0.7136 0.67393 0.45653 0.0
H745 H 0.66597 0.71174 0.44433 0.0
O746 O 0.72153 0.06547 0.44795 0.0
C747 C 0.67406 0.94527 0.4435 0.0
Co748 Co 0.03788 0.95335 0.31664 0.0
Co749 Co 0.06161 0.8157 0.31704 0.0
C750 C 0.04041 0.8661 0.3375 0.0
O751 O 0.03351 0.91991 0.33239 0.0
O752 O 0.05109 0.82459 0.33252 0.0
C753 C 0.02913 0.09693 0.32042 0.0
O754 O 0.03461 0.0774 0.33055 0.0
C755 C 0.06205 0.65762 0.31854 0.0
C756 C 0.08612 0.6271 0.31025 0.0
C757 C 0.07134 0.59808 0.31476 0.0
N758 N 0.07082 0.71909 0.3163 0.0
N759 N 0.08541 0.70051 0.3116 0.0
C760 C 0.04405 0.6569 0.32253 0.0
H761 H 0.0382 0.71183 0.32162 0.0
H762 H 0.03655 0.61609 0.31764 0.0
H763 H 0.04373 0.64077 0.33164 0.0
C764 C 0.02255 0.87153 0.29718 0.0
N765 N 0.03392 0.87933 0.30568 0.0
N766 N 0.04471 0.82435 0.30536 0.0
C767 C 0.0407 0.78071 0.29647 0.0
C768 C 0.02639 0.80822 0.29113 0.0
C769 C 0.0082 0.92317 0.29507 0.0
H770 H 0.01245 0.96633 0.28904 0.0
H771 H 0.00431 0.94998 0.30314 0.0
H772 H 0.99728 0.89396 0.29121 0.0
O773 O 0.06154 0.98365 0.3155 0.0
O774 O 0.07978 0.89181 0.31514 0.0
H775 H 0.04942 0.70818 0.28316 0.0
H776 H 0.04724 0.66691 0.29696 0.0
C777 C 0.05118 0.71743 0.29243 0.0
H778 H 0.06476 0.72809 0.29408 0.0
H779 H 0.09434 0.73803 0.30862 0.0
O780 O 0.02663 0.04721 0.31301 0.0
C781 C 0.07664 0.96032 0.31482 0.0
Co782 Co 0.71614 0.77271 0.31756 0.0
Co783 Co 0.69501 0.91701 0.31635 0.0
C784 C 0.71375 0.86613 0.3378 0.0
O785 O 0.72008 0.80944 0.33319 0.0
O786 O 0.70409 0.909 0.33224 0.0
C787 C 0.73235 0.64 0.32375 0.0
O788 O 0.73472 0.67393 0.33349 0.0
C789 C 0.69922 0.07124 0.31834 0.0
C790 C 0.67482 0.1207 0.3134 0.0
C791 C 0.69094 0.13747 0.31731 0.0
N792 N 0.68858 0.01729 0.31537 0.0
N793 N 0.67395 0.0469 0.31239 0.0
C794 C 0.71748 0.05982 0.32131 0.0
H795 H 0.7217 0.00367 0.31914 0.0
H796 H 0.72546 0.1005 0.31676 0.0
H797 H 0.71932 0.06833 0.33056 0.0
C798 C 0.73211 0.83667 0.29701 0.0
N799 N 0.72178 0.84078 0.30611 0.0
N800 N 0.71224 0.89956 0.30521 0.0
C801 C 0.71621 0.93488 0.29547 0.0
C802 C 0.72898 0.8964 0.28995 0.0
C803 C 0.74385 0.77398 0.29481 0.0
H804 H 0.73652 0.72749 0.29121 0.0
H805 H 0.74963 0.75546 0.30293 0.0
H806 H 0.75392 0.7897 0.28868 0.0
O807 O 0.69216 0.74882 0.31569 0.0
O808 O 0.6756 0.84641 0.31417 0.0
H809 H 0.6929 0.99342 0.29307 0.0
H810 H 0.70775 0.003 0.28145 0.0
C811 C 0.70648 -0.00122 0.29085 0.0
H812 H 0.71141 0.04999 0.29472 0.0
H813 H 0.66341 0.01696 0.30974 0.0
O814 O 0.7268 0.67613 0.31529 0.0
C815 C 0.6776 0.7769 0.31426 0.0
Co816 Co 0.96536 0.74925 0.06508 0.0
Co817 Co 0.94929 0.59578 0.0681 0.0
C818 C 0.96633 0.6754 0.08757 0.0
O819 O 0.97032 0.72943 0.08129 0.0
O820 O 0.95826 0.62101 0.08351 0.0
C821 C 0.98682 0.87371 0.06734 0.0
O822 O 0.99445 0.83432 0.07518 0.0
C823 C 0.95449 0.44439 0.07298 0.0
C824 C 0.93163 0.38925 0.06635 0.0
C825 C 0.94726 0.37605 0.07136 0.0
N826 N 0.94373 0.49533 0.0691 0.0
N827 N 0.92992 0.46249 0.06531 0.0
C828 C 0.9722 0.46142 0.07674 0.0
H829 H 0.97617 0.51626 0.07366 0.0
H830 H 0.9812 0.41958 0.07351 0.0
H831 H 0.97271 0.46152 0.08619 0.0
C832 C 0.98373 0.67267 0.04645 0.0
N833 N 0.97283 0.67366 0.05527 0.0
N834 N 0.96549 0.6092 0.05615 0.0
C835 C 0.9712 0.56548 0.04769 0.0
C836 C 0.98304 0.60408 0.04131 0.0
C837 C 0.99376 0.73786 0.04267 0.0
H838 H 0.985 0.78393 0.04083 0.0
H839 H 0.00222 0.75553 0.0497 0.0
H840 H 0.00138 0.72583 0.03495 0.0
O841 O 0.94063 0.7653 0.06341 0.0
O842 O 0.92878 0.65541 0.06506 0.0
H843 H 0.95161 0.48418 0.04687 0.0
H844 H 0.96893 0.46794 0.03717 0.0
C845 C 0.9655 0.48811 0.04576 0.0
H846 H 0.9717 0.45188 0.05209 0.0
H847 H 0.9197 0.48974 0.0616 0.0
O848 O 0.97544 0.84415 0.06124 0.0
C849 C 0.92757 0.72445 0.06352 0.0
Co850 Co 0.28895 0.51384 0.0662 0.0
Co851 Co 0.30475 0.66774 0.06881 0.0
C852 C 0.28531 0.59523 0.08788 0.0
O853 O 0.28211 0.53786 0.08213 0.0
O854 O 0.29376 0.64784 0.08367 0.0
C855 C 0.2672 0.38942 0.06778 0.0
O856 O 0.25895 0.42842 0.07538 0.0
C857 C 0.29884 0.81928 0.07257 0.0
C858 C 0.32245 0.87453 0.06731 0.0
C859 C 0.30622 0.8875 0.07137 0.0
N860 N 0.31011 0.76835 0.06944 0.0
N861 N 0.32433 0.80123 0.06643 0.0
C862 C 0.2807 0.8024 0.07526 0.0
H863 H 0.27706 0.74789 0.07188 0.0
H864 H 0.27219 0.8447 0.0716 0.0
H865 H 0.27899 0.8017 0.08465 0.0
C866 C 0.27419 0.58352 0.04541 0.0
N867 N 0.28277 0.58644 0.05535 0.0
N868 N 0.29002 0.65104 0.05628 0.0
C869 C 0.28647 0.691 0.04691 0.0
C870 C 0.27621 0.6499 0.03975 0.0
C871 C 0.26601 0.51565 0.04086 0.0
H872 H 0.2759 0.47383 0.03918 0.0
H873 H 0.25728 0.4929 0.04737 0.0
H874 H 0.25893 0.52688 0.03287 0.0
O875 O 0.31382 0.49689 0.06574 0.0
O876 O 0.32544 0.6074 0.06718 0.0
H877 H 0.30775 0.76378 0.04609 0.0
H878 H 0.29169 0.78173 0.03545 0.0
C879 C 0.29394 0.76473 0.04439 0.0
H880 H 0.28806 0.80615 0.05005 0.0
H881 H 0.33505 0.77393 0.06345 0.0
O882 O 0.27922 0.4188 0.06226 0.0
C883 C 0.32684 0.53807 0.06611 0.0
Co884 Co 0.9681 0.51935 0.18993 0.0
Co885 Co 0.94467 0.65704 0.19191 0.0
C886 C 0.96505 0.61767 0.17042 0.0
O887 O 0.97209 0.56102 0.17463 0.0
O888 O 0.95461 0.65621 0.17616 0.0
C889 C 0.97533 0.37506 0.18541 0.0
O890 O 0.968 0.39481 0.17584 0.0
C891 C 0.94439 0.81504 0.192 0.0
C892 C 0.92067 0.84401 0.20085 0.0
C893 C 0.93521 0.87371 0.19612 0.0
N894 N 0.93574 0.75315 0.1941 0.0
N895 N 0.92141 0.77074 0.19924 0.0
C896 C 0.96209 0.81714 0.18746 0.0
H897 H 0.96814 0.76243 0.18805 0.0
H898 H 0.96977 0.85787 0.19222 0.0
H899 H 0.96173 0.83446 0.1784 0.0
C900 C 0.9829 0.5832 0.21083 0.0
N901 N 0.97234 0.58623 0.20184 0.0
N902 N 0.9619 0.64175 0.20313 0.0
C903 C 0.96543 0.67565 0.21308 0.0
C904 C 0.97891 0.63988 0.21829 0.0
C905 C 0.996 0.52491 0.21241 0.0
H906 H 0.00167 0.51038 0.20406 0.0
H907 H 0.00607 0.54326 0.21836 0.0
H908 H 0.98987 0.47505 0.21593 0.0
O909 O 0.94449 0.48842 0.19094 0.0
O910 O 0.92647 0.57994 0.19318 0.0
H911 H 0.9565 0.73863 0.22756 0.0
H912 H 0.95826 0.7883 0.21435 0.0
C913 C 0.95474 0.7349 0.2182 0.0
H914 H 0.94121 0.72401 0.21641 0.0
H915 H 0.91255 0.73265 0.20214 0.0
O916 O 0.97952 0.4247 0.19248 0.0
C917 C 0.92949 0.51143 0.19232 0.0
Co918 Co 0.28131 0.73209 0.19153 0.0
Co919 Co 0.30442 0.59386 0.19021 0.0
C920 C 0.28184 0.64521 0.17048 0.0
O921 O 0.27517 0.69674 0.17626 0.0
O922 O 0.29322 0.60397 0.1748 0.0
C923 C 0.27216 0.87527 0.18789 0.0
O924 O 0.277 0.85562 0.17762 0.0
C925 C 0.30465 0.43615 0.18896 0.0
C926 C 0.32924 0.40567 0.19654 0.0
C927 C 0.31415 0.37673 0.19252 0.0
N928 N 0.31363 0.49751 0.19081 0.0
N929 N 0.3285 0.479 0.1951 0.0
C930 C 0.28641 0.43563 0.18549 0.0
H931 H 0.28071 0.49077 0.18652 0.0
H932 H 0.2792 0.39511 0.19062 0.0
H933 H 0.2855 0.41929 0.1764 0.0
C934 C 0.26923 0.65967 0.21244 0.0
N935 N 0.27841 0.66024 0.20279 0.0
N936 N 0.28854 0.60302 0.20262 0.0
C937 C 0.28612 0.56422 0.21231 0.0
C938 C 0.27376 0.59867 0.21883 0.0
C939 C 0.25712 0.71902 0.21572 0.0
H940 H 0.25006 0.73797 0.20809 0.0
H941 H 0.24809 0.69967 0.22231 0.0
H942 H 0.26436 0.76632 0.21915 0.0
O943 O 0.30502 0.76279 0.19147 0.0
O944 O 0.32289 0.66958 0.19156 0.0
H945 H 0.2961 0.49191 0.22534 0.0
H946 H 0.29271 0.45073 0.21161 0.0
C947 C 0.29696 0.50125 0.21602 0.0
H948 H 0.31033 0.51201 0.21375 0.0
H949 H 0.33765 0.51656 0.19775 0.0
O950 O 0.27026 0.82576 0.1954 0.0
C951 C 0.32006 0.73844 0.1917 0.0
Co952 Co 0.04003 0.27262 0.94373 0.0
Co953 Co 0.0568 0.42361 0.93926 0.0
C954 C 0.0368 0.34655 0.92105 0.0
O955 O 0.03339 0.29378 0.92777 0.0
O956 O 0.0456 0.40093 0.92441 0.0
C957 C 0.02254 0.13621 0.94194 0.0
O958 O 0.01965 0.15726 0.93142 0.0
C959 C 0.05536 0.58028 0.93636 0.0
C960 C 0.07977 0.61598 0.94369 0.0
C961 C 0.06435 0.6417 0.93972 0.0
N962 N 0.06486 0.52099 0.9385 0.0
N963 N 0.07968 0.54259 0.9425 0.0
C964 C 0.03704 0.57678 0.93309 0.0
H965 H 0.03201 0.52042 0.9342 0.0
H966 H 0.02946 0.61574 0.93826 0.0
H967 H 0.03574 0.59279 0.92401 0.0
C968 C 0.02656 0.35091 0.96395 0.0
N969 N 0.03476 0.35011 0.95386 0.0
N970 N 0.04217 0.41385 0.95223 0.0
C971 C 0.03913 0.45689 0.96138 0.0
C972 C 0.02909 0.41865 0.96907 0.0
C973 C 0.01838 0.28494 0.96914 0.0
H974 H 0.0282 0.24277 0.97082 0.0
H975 H 0.00918 0.26125 0.96302 0.0
H976 H 0.01184 0.29857 0.97724 0.0
O977 O 0.06472 0.25078 0.94416 0.0
O978 O 0.07668 0.35908 0.94121 0.0
H979 H 0.06048 0.52947 0.9616 0.0
H980 H 0.04443 0.55231 0.97194 0.0
C981 C 0.04668 0.53135 0.96321 0.0
H982 H 0.04077 0.5706 0.95724 0.0
H983 H 0.08914 0.50704 0.94531 0.0
O984 O 0.02954 0.18058 0.94882 0.0
C985 C 0.07786 0.29051 0.94307 0.0
Co986 Co 0.71576 0.48116 0.94268 0.0
Co987 Co 0.69447 0.33742 0.93984 0.0
C988 C 0.71575 0.40412 0.92069 0.0
O989 O 0.72191 0.45421 0.92696 0.0
O990 O 0.70498 0.35876 0.92463 0.0
C991 C 0.73455 0.61273 0.93952 0.0
O992 O 0.74097 0.57711 0.93081 0.0
C993 C 0.69941 0.18473 0.93552 0.0
C994 C 0.67587 0.13029 0.94107 0.0
C995 C 0.69197 0.11638 0.93683 0.0
N996 N 0.68832 0.23638 0.93879 0.0
N997 N 0.67415 0.20377 0.94198 0.0
C998 C 0.71751 0.20101 0.93264 0.0
H999 H 0.72137 0.25505 0.93608 0.0
H1000 H 0.72602 0.15807 0.93611 0.0
H1001 H 0.71896 0.20261 0.92324 0.0
C1002 C 0.72882 0.40207 0.96293 0.0
N1003 N 0.71988 0.40544 0.95316 0.0
N1004 N 0.7102 0.34691 0.95231 0.0
C1005 C 0.71254 0.30486 0.96164 0.0
C1006 C 0.72444 0.33814 0.96865 0.0
C1007 C 0.73948 0.4635 0.96737 0.0
H1008 H 0.73111 0.50536 0.97129 0.0
H1009 H 0.74641 0.48984 0.96024 0.0
H1010 H 0.74854 0.44374 0.97391 0.0
O1011 O 0.6915 0.50252 0.94328 0.0
O1012 O 0.67466 0.40563 0.94216 0.0
H1013 H 0.68916 0.24533 0.96237 0.0
H1014 H 0.70442 0.21783 0.97306 0.0
C1015 C 0.70279 0.23623 0.96413 0.0
H1016 H 0.70739 0.19176 0.95849 0.0
H1017 H 0.66359 0.23131 0.94518 0.0
O1018 O 0.72564 0.57773 0.94671 0.0
C1019 C 0.67675 0.47473 0.94329 0.0
Co1020 Co 0.03866 0.44677 0.8169 0.0
Co1021 Co 0.05848 0.30047 0.81801 0.0
C1022 C 0.0383 0.35716 0.83802 0.0
O1023 O 0.03351 0.41451 0.83275 0.0
O1024 O 0.04773 0.30951 0.83328 0.0
C1025 C 0.02749 0.58704 0.82109 0.0
O1026 O 0.03217 0.56745 0.83139 0.0
C1027 C 0.05973 0.1434 0.81963 0.0
C1028 C 0.08347 0.11556 0.81067 0.0
C1029 C 0.06918 0.08519 0.81562 0.0
N1030 N 0.06794 0.20555 0.81711 0.0
N1031 N 0.08236 0.18878 0.81203 0.0
C1032 C 0.042 0.1409 0.82416 0.0
H1033 H 0.03547 0.1939 0.8227 0.0
H1034 H 0.03467 0.09606 0.82008 0.0
H1035 H 0.04245 0.13021 0.83346 0.0
C1036 C 0.02219 0.36983 0.79723 0.0
N1037 N 0.0334 0.37338 0.8059 0.0
N1038 N 0.04237 0.31264 0.8061 0.0
C1039 C 0.03741 0.26928 0.79741 0.0
C1040 C 0.02428 0.30329 0.79161 0.0
C1041 C 0.00945 0.42814 0.79465 0.0
H1042 H 0.00403 0.44959 0.80271 0.0
H1043 H 0.99916 0.40702 0.78911 0.0
H1044 H 0.01589 0.47424 0.79025 0.0
O1045 O 0.06292 0.47664 0.81595 0.0
O1046 O 0.07699 0.37177 0.81645 0.0
H1047 H 0.04347 0.18586 0.78495 0.0
H1048 H 0.0409 0.15359 0.79931 0.0
C1049 C 0.04589 0.19911 0.79404 0.0
H1050 H 0.05972 0.20364 0.7953 0.0
H1051 H 0.09084 0.22737 0.80879 0.0
O1052 O 0.02692 0.5385 0.81335 0.0
C1053 C 0.0768 0.44136 0.8158 0.0
Co1054 Co 0.71763 0.26444 0.81694 0.0
Co1055 Co 0.69511 0.40611 0.81811 0.0
C1056 C 0.71696 0.35002 0.83793 0.0
O1057 O 0.72368 0.29745 0.83246 0.0
O1058 O 0.70597 0.39167 0.83336 0.0
C1059 C 0.73475 0.13092 0.82136 0.0
O1060 O 0.73926 0.16526 0.83072 0.0
C1061 C 0.69952 0.5597 0.82171 0.0
C1062 C 0.67579 0.61246 0.8162 0.0
C1063 C 0.69184 0.62737 0.82043 0.0
N1064 N 0.68862 0.50713 0.81851 0.0
N1065 N 0.67434 0.53877 0.81529 0.0
C1066 C 0.71767 0.54533 0.82468 0.0
H1067 H 0.72188 0.49153 0.82136 0.0
H1068 H 0.72598 0.58902 0.8212 0.0
H1069 H 0.71901 0.54478 0.83408 0.0
C1070 C 0.73237 0.34458 0.79704 0.0
N1071 N 0.72142 0.33737 0.8058 0.0
N1072 N 0.71114 0.3942 0.80594 0.0
C1073 C 0.71509 0.43868 0.79716 0.0
C1074 C 0.72878 0.4095 0.79133 0.0
C1075 C 0.74625 0.29153 0.79444 0.0
H1076 H 0.74984 0.26071 0.80223 0.0
H1077 H 0.75743 0.32055 0.79091 0.0
H1078 H 0.74169 0.25189 0.78795 0.0
O1079 O 0.69346 0.24079 0.81688 0.0
O1080 O 0.67574 0.33471 0.81661 0.0
H1081 H 0.70682 0.51839 0.78475 0.0
H1082 H 0.71047 0.55371 0.79883 0.0
C1083 C 0.70544 0.5063 0.79398 0.0
H1084 H 0.69184 0.49921 0.79598 0.0
H1085 H 0.66382 0.51044 0.81219 0.0
O1086 O 0.72765 0.16722 0.81344 0.0
C1087 C 0.67845 0.26565 0.8166 0.0
H1088 H 0.45923 0.06009 0.10345 0.0
H1089 H 0.48841 0.26129 0.10072 0.0
H1090 H 0.49253 0.2617 0.12151 0.0
H1091 H 0.43748 0.1059 0.12826 0.0
H1092 H 0.4379 0.01549 0.13446 0.0
H1093 H 0.43871 0.02608 0.11923 0.0
H1094 H 0.46654 0.95115 0.11854 0.0
H1095 H 0.46578 0.94003 0.1338 0.0
H1096 H 0.48428 0.97917 0.12717 0.0
H1097 H 0.49032 0.25012 0.14261 0.0
H1098 H 0.48339 0.22216 0.1627 0.0
H1099 H 0.45704 0.02542 0.15206 0.0
C1100 C 0.46676 0.10349 0.10719 0.0
C1101 C 0.47349 0.16068 0.1004 0.0
C1102 C 0.48317 0.21668 0.10568 0.0
C1103 C 0.48559 0.21743 0.11751 0.0
C1104 C 0.47848 0.16128 0.12397 0.0
C1105 C 0.46945 0.10477 0.11901 0.0
C1106 C 0.46243 0.05315 0.12799 0.0
C1107 C 0.44298 0.05002 0.12745 0.0
C1108 C 0.47023 0.97632 0.1268 0.0
C1109 C 0.46848 0.09085 0.13878 0.0
C1110 C 0.47775 0.15309 0.13624 0.0
C1111 C 0.48342 0.20069 0.14472 0.0
C1112 C 0.47938 0.18466 0.15608 0.0
C1113 C 0.46997 0.12123 0.15886 0.0
C1114 C 0.46468 0.07315 0.15012 0.0
H1115 H 0.78805 0.01776 0.10553 0.0
H1116 H 0.7808 0.24606 0.09664 0.0
H1117 H 0.7767 0.27697 0.11691 0.0
H1118 H 0.75889 0.01099 0.13024 0.0
H1119 H 0.77291 0.95375 0.13847 0.0
H1120 H 0.7728 0.9474 0.12314 0.0
H1121 H 0.80506 0.97298 0.12275 0.0
H1122 H 0.80525 0.9793 0.13805 0.0
H1123 H 0.81319 0.05426 0.12959 0.0
H1124 H 0.77476 0.2844 0.13808 0.0
H1125 H 0.77821 0.27088 0.15885 0.0
H1126 H 0.78892 0.03908 0.15435 0.0
C1127 C 0.7852 0.07386 0.10788 0.0
C1128 C 0.78445 0.12959 0.09953 0.0
C1129 C 0.78129 0.20275 0.1029 0.0
C1130 C 0.77885 0.22066 0.11439 0.0
C1131 C 0.77987 0.1648 0.12245 0.0
C1132 C 0.78316 0.09297 0.11938 0.0
C1133 C 0.7855 0.04509 0.12984 0.0
C1134 C 0.7717 0.9858 0.13045 0.0
C1135 C 0.80331 0.01093 0.13007 0.0
C1136 C 0.78332 0.10152 0.13922 0.0
C1137 C 0.77969 0.16983 0.13476 0.0
C1138 C 0.77752 0.23112 0.14169 0.0
C1139 C 0.77947 0.22282 0.15349 0.0
C1140 C 0.78387 0.15398 0.15824 0.0
C1141 C 0.78554 0.0924 0.15098 0.0
H1142 H 0.5424 0.95959 0.90427 0.0
H1143 H 0.51602 0.75283 0.90904 0.0
H1144 H 0.51018 0.7473 0.88845 0.0
H1145 H 0.51469 0.03005 0.88099 0.0
H1146 H 0.53227 0.07127 0.87358 0.0
H1147 H 0.53265 0.06372 0.8889 0.0
H1148 H 0.56122 0.9944 0.88777 0.0
H1149 H 0.56091 0.00157 0.87249 0.0
H1150 H 0.56275 0.91285 0.87914 0.0
H1151 H 0.51077 0.7545 0.86724 0.0
H1152 H 0.51663 0.77775 0.84685 0.0
H1153 H 0.54123 0.98242 0.8556 0.0
C1154 C 0.53508 0.91392 0.90103 0.0
C1155 C 0.52967 0.85666 0.90832 0.0
C1156 C 0.52027 0.79753 0.90368 0.0
C1157 C 0.51685 0.79391 0.89197 0.0
C1158 C 0.5227 0.85029 0.885 0.0
C1159 C 0.53144 0.90966 0.88936 0.0
C1160 C 0.53727 0.96047 0.8799 0.0
C1161 C 0.52871 0.03585 0.88091 0.0
C1162 C 0.55668 0.96769 0.87982 0.0
C1163 C 0.53094 0.91905 0.86953 0.0
C1164 C 0.5225 0.85577 0.87269 0.0
C1165 C 0.51698 0.80474 0.86466 0.0
C1166 C 0.52038 0.81819 0.85312 0.0
C1167 C 0.52902 0.88245 0.84973 0.0
C1168 C 0.53408 0.93413 0.858 0.0
H1169 H 0.20697 0.77808 0.85591 0.0
H1170 H 0.22944 0.9853 0.84608 0.0
H1171 H 0.23587 0.01216 0.86633 0.0
H1172 H 0.18603 0.84876 0.88016 0.0
H1173 H 0.18861 0.76757 0.88875 0.0
H1174 H 0.18783 0.76012 0.87347 0.0
H1175 H 0.21675 0.69325 0.87354 0.0
H1176 H 0.21762 0.7006 0.88885 0.0
H1177 H 0.23472 0.73602 0.8803 0.0
H1178 H 0.23891 0.01823 0.88749 0.0
H1179 H 0.23582 0.01086 0.9083 0.0
H1180 H 0.20926 0.8034 0.90476 0.0
C1181 C 0.21358 0.82826 0.85807 0.0
C1182 C 0.21811 0.87914 0.84953 0.0
C1183 C 0.22616 0.94547 0.85257 0.0
C1184 C 0.22987 0.96093 0.86401 0.0
C1185 C 0.22516 0.90993 0.87229 0.0
C1186 C 0.217 0.84531 0.86949 0.0
C1187 C 0.21176 0.80355 0.88012 0.0
C1188 C 0.19241 0.79451 0.88065 0.0
C1189 C 0.22076 0.72893 0.88074 0.0
C1190 C 0.2181 0.85513 0.88932 0.0
C1191 C 0.22607 0.91537 0.88459 0.0
C1192 C 0.23274 0.97125 0.8913 0.0
C1193 C 0.23093 0.96637 0.90315 0.0
C1194 C 0.22227 0.90655 0.90823 0.0
C1195 C 0.21599 0.84972 0.90117 0.0
H1196 H 0.45948 0.5157 0.6529 0.0
H1197 H 0.47451 0.73825 0.66087 0.0
H1198 H 0.47915 0.76321 0.64042 0.0
H1199 H 0.48806 0.48738 0.62827 0.0
H1200 H 0.47236 0.43731 0.62028 0.0
H1201 H 0.47231 0.43385 0.63563 0.0
H1202 H 0.44115 0.47808 0.63586 0.0
H1203 H 0.44111 0.48156 0.62054 0.0
H1204 H 0.43561 0.56203 0.62865 0.0
H1205 H 0.48077 0.76605 0.61922 0.0
H1206 H 0.4768 0.7511 0.59856 0.0
H1207 H 0.45913 0.52821 0.60399 0.0
C1208 C 0.46408 0.5691 0.6503 0.0
C1209 C 0.46676 0.62519 0.6584 0.0
C1210 C 0.47233 0.69497 0.65476 0.0
C1211 C 0.47513 0.70932 0.64318 0.0
C1212 C 0.47214 0.65335 0.63535 0.0
C1213 C 0.46661 0.58475 0.63872 0.0
C1214 C 0.46276 0.53674 0.62848 0.0
C1215 C 0.47458 0.46986 0.62815 0.0
C1216 C 0.44405 0.51326 0.62838 0.0
C1217 C 0.46666 0.58959 0.61885 0.0
C1218 C 0.4724 0.65595 0.62302 0.0
C1219 C 0.47638 0.7142 0.61584 0.0
C1220 C 0.47411 0.70505 0.60409 0.0
C1221 C 0.46764 0.63849 0.5996 0.0
C1222 C 0.46415 0.57968 0.60712 0.0
H1223 H 0.7908 0.72351 0.65321 0.0
H1224 H 0.77263 0.507 0.6622 0.0
H1225 H 0.76723 0.48007 0.6419 0.0
H1226 H 0.76246 0.75503 0.62817 0.0
H1227 H 0.77902 0.79884 0.62009 0.0
H1228 H 0.77882 0.8058 0.63542 0.0
H1229 H 0.80928 0.75345 0.63617 0.0
H1230 H 0.80954 0.74608 0.62088 0.0
H1231 H 0.8137 0.66638 0.62952 0.0
H1232 H 0.7662 0.47231 0.62073 0.0
H1233 H 0.77101 0.48109 0.60004 0.0
H1234 H 0.79119 0.70091 0.60448 0.0
C1235 C 0.78518 0.67143 0.65088 0.0
C1236 C 0.78187 0.61752 0.65922 0.0
C1237 C 0.77514 0.54892 0.6559 0.0
C1238 C 0.77196 0.53337 0.64441 0.0
C1239 C 0.77573 0.58688 0.63632 0.0
C1240 C 0.78224 0.65451 0.63938 0.0
C1241 C 0.78698 0.69894 0.62893 0.0
C1242 C 0.77617 0.7688 0.62811 0.0
C1243 C 0.806 0.71725 0.62888 0.0
C1244 C 0.7825 0.64504 0.61955 0.0
C1245 C 0.77574 0.58135 0.62401 0.0
C1246 C 0.77132 0.52221 0.61711 0.0
C1247 C 0.77412 0.52775 0.60535 0.0
C1248 C 0.78149 0.59168 0.60059 0.0
C1249 C 0.78545 0.65144 0.60782 0.0
H1250 H 0.5372 0.2617 0.40174 0.0
H1251 H 0.52812 0.48709 0.41169 0.0
H1252 H 0.52447 0.52151 0.39143 0.0
H1253 H 0.56285 0.3065 0.37817 0.0
H1254 H 0.55571 0.23195 0.3693 0.0
H1255 H 0.55522 0.22289 0.38456 0.0
H1256 H 0.5232 0.19262 0.38371 0.0
H1257 H 0.5236 0.20162 0.36842 0.0
H1258 H 0.50894 0.25531 0.37671 0.0
H1259 H 0.52291 0.53222 0.37021 0.0
H1260 H 0.52648 0.52235 0.34942 0.0
H1261 H 0.53892 0.29157 0.35303 0.0
C1262 C 0.53404 0.31786 0.39962 0.0
C1263 C 0.5326 0.37173 0.40821 0.0
C1264 C 0.52909 0.44519 0.40518 0.0
C1265 C 0.52694 0.46504 0.39372 0.0
C1266 C 0.52863 0.4109 0.38541 0.0
C1267 C 0.5323 0.33895 0.38819 0.0
C1268 C 0.53526 0.29326 0.37756 0.0
C1269 C 0.55333 0.26183 0.37739 0.0
C1270 C 0.52195 0.23209 0.37654 0.0
C1271 C 0.53286 0.35092 0.3684 0.0
C1272 C 0.5287 0.41798 0.37312 0.0
C1273 C 0.5261 0.47995 0.36641 0.0
C1274 C 0.52812 0.47368 0.35459 0.0
C1275 C 0.53299 0.40619 0.34956 0.0
C1276 C 0.53517 0.34388 0.3566 0.0
H1277 H 0.208 0.2828 0.35636 0.0
H1278 H 0.22948 0.49238 0.34669 0.0
H1279 H 0.23615 0.51844 0.3669 0.0
H1280 H 0.18705 0.35105 0.38065 0.0
H1281 H 0.18996 0.27001 0.38923 0.0
H1282 H 0.18919 0.26259 0.37394 0.0
H1283 H 0.21838 0.19793 0.37399 0.0
H1284 H 0.21923 0.2052 0.3893 0.0
H1285 H 0.23618 0.24195 0.38075 0.0
H1286 H 0.23935 0.52419 0.38797 0.0
H1287 H 0.23614 0.51706 0.40876 0.0
H1288 H 0.21029 0.30789 0.40524 0.0
C1289 C 0.21449 0.33325 0.35854 0.0
C1290 C 0.21863 0.38509 0.35004 0.0
C1291 C 0.22648 0.45182 0.35313 0.0
C1292 C 0.23035 0.46684 0.36455 0.0
C1293 C 0.22597 0.41505 0.37278 0.0
C1294 C 0.21802 0.34998 0.36996 0.0
C1295 C 0.21296 0.30776 0.38059 0.0
C1296 C 0.19365 0.29728 0.38113 0.0
C1297 C 0.22225 0.23382 0.38119 0.0
C1298 C 0.21911 0.35974 0.3898 0.0
C1299 C 0.2269 0.42042 0.38507 0.0
C1300 C 0.23333 0.47685 0.39177 0.0
C1301 C 0.23145 0.47211 0.40361 0.0
C1302 C 0.22293 0.41192 0.40869 0.0
C1303 C 0.21691 0.35449 0.40165 0.0
H1304 H 0.95877 0.01521 0.65139 0.0
H1305 H 0.98772 0.20514 0.66193 0.0
H1306 H 0.99331 0.23585 0.6417 0.0
H1307 H 0.984 0.96769 0.62596 0.0
H1308 H 0.96561 0.94284 0.61772 0.0
H1309 H 0.96551 0.93137 0.63298 0.0
H1310 H 0.93843 0.01095 0.63438 0.0
H1311 H 0.93844 0.02256 0.61916 0.0
H1312 H 0.93842 0.10183 0.62833 0.0
H1313 H 0.99441 0.24918 0.62042 0.0
H1314 H 0.98951 0.2497 0.59967 0.0
H1315 H 0.95883 0.05305 0.60288 0.0
C1316 C 0.96657 0.06231 0.64938 0.0
C1317 C 0.97304 0.10757 0.6581 0.0
C1318 C 0.98278 0.16991 0.65528 0.0
C1319 C 0.98606 0.18743 0.64385 0.0
C1320 C 0.97937 0.14219 0.63538 0.0
C1321 C 0.96975 0.08108 0.63799 0.0
C1322 C 0.96287 0.04518 0.6273 0.0
C1323 C 0.96992 0.96714 0.62591 0.0
C1324 C 0.94339 0.04518 0.6273 0.0
C1325 C 0.96988 0.09626 0.61826 0.0
C1326 C 0.97957 0.15117 0.6231 0.0
C1327 C 0.98694 0.20617 0.61653 0.0
C1328 C 0.9841 0.20588 0.60473 0.0
C1329 C 0.97379 0.15139 0.59959 0.0
C1330 C 0.96684 0.0953 0.6065 0.0
H1331 H 0.29138 0.19076 0.60407 0.0
H1332 H 0.2692 0.97401 0.60047 0.0
H1333 H 0.26643 0.96496 0.62131 0.0
H1334 H 0.31558 0.15501 0.62835 0.0
H1335 H 0.31199 0.24228 0.63515 0.0
H1336 H 0.31104 0.23507 0.61987 0.0
H1337 H 0.28075 0.28934 0.61997 0.0
H1338 H 0.28165 0.29726 0.63528 0.0
H1339 H 0.26463 0.24715 0.62864 0.0
H1340 H 0.26978 0.97142 0.64244 0.0
H1341 H 0.27585 0.00012 0.66266 0.0
H1342 H 0.2934 0.21635 0.6529 0.0
C1343 C 0.28566 0.14199 0.60766 0.0
C1344 C 0.28054 0.08308 0.6006 0.0
C1345 C 0.27314 0.02011 0.60565 0.0
C1346 C 0.27155 0.01428 0.61751 0.0
C1347 C 0.27708 0.07243 0.62423 0.0
C1348 C 0.28367 0.13576 0.61951 0.0
C1349 C 0.28898 0.18945 0.62872 0.0
C1350 C 0.30803 0.20641 0.62797 0.0
C1351 C 0.27837 0.25998 0.62812 0.0
C1352 C 0.28482 0.14541 0.63933 0.0
C1353 C 0.27807 0.07784 0.63652 0.0
C1354 C 0.27466 0.02481 0.64477 0.0
C1355 C 0.2782 0.04135 0.6562 0.0
C1356 C 0.28476 0.11071 0.65927 0.0
C1357 C 0.28795 0.16361 0.65075 0.0
H1358 H 0.0402 0.94953 0.40412 0.0
H1359 H 0.02735 0.72014 0.40913 0.0
H1360 H 0.02445 0.70432 0.38842 0.0
H1361 H 0.01119 0.97907 0.37952 0.0
H1362 H 0.02588 0.03937 0.37243 0.0
H1363 H 0.02551 0.0348 0.38778 0.0
H1364 H 0.0575 0.00391 0.3879 0.0
H1365 H 0.05796 0.00793 0.37258 0.0
H1366 H 0.06504 0.92638 0.37983 0.0
H1367 H 0.02699 0.70806 0.36728 0.0
H1368 H 0.03186 0.73534 0.34689 0.0
H1369 H 0.04076 0.96368 0.35519 0.0
C1370 C 0.03645 0.89636 0.40087 0.0
C1371 C 0.03401 0.83614 0.4083 0.0
C1372 C 0.0292 0.76735 0.40368 0.0
C1373 C 0.02755 0.75765 0.39189 0.0
C1374 C 0.03044 0.81751 0.3848 0.0
C1375 C 0.03448 0.8859 0.3891 0.0
C1376 C 0.03747 0.94039 0.37953 0.0
C1377 C 0.02422 0.00205 0.37984 0.0
C1378 C 0.05557 0.97144 0.37999 0.0
C1379 C 0.03498 0.89127 0.36922 0.0
C1380 C 0.031 0.8205 0.37248 0.0
C1381 C 0.02967 0.76361 0.36459 0.0
C1382 C 0.03251 0.77943 0.35306 0.0
C1383 C 0.03632 0.85166 0.34953 0.0
C1384 C 0.03737 0.90842 0.35769 0.0
H1385 H 0.71354 0.77066 0.35581 0.0
H1386 H 0.7213 -0.00109 0.34702 0.0
H1387 H 0.72576 0.02892 0.36732 0.0
H1388 H 0.68882 0.80815 0.38009 0.0
H1389 H 0.69661 0.73225 0.38841 0.0
H1390 H 0.6965 0.72664 0.3731 0.0
H1391 H 0.72865 0.69872 0.3732 0.0
H1392 H 0.72885 0.70442 0.38854 0.0
H1393 H 0.74295 0.76101 0.38026 0.0
H1394 H 0.72811 0.03532 0.38851 0.0
H1395 H 0.72499 0.02108 0.40929 0.0
H1396 H 0.71352 0.79004 0.40463 0.0
C1397 C 0.71657 0.82656 0.35818 0.0
C1398 C 0.71738 0.88249 0.34987 0.0
C1399 C 0.72077 0.95542 0.35326 0.0
C1400 C 0.72341 0.97282 0.36476 0.0
C1401 C 0.72234 0.91672 0.37279 0.0
C1402 C 0.7188 0.84518 0.36968 0.0
C1403 C 0.71647 0.79701 0.38011 0.0
C1404 C 0.69853 0.76411 0.38044 0.0
C1405 C 0.73004 0.73672 0.38055 0.0
C1406 C 0.71904 0.85287 0.38953 0.0
C1407 C 0.72277 0.92119 0.38511 0.0
C1408 C 0.72526 0.98203 0.39209 0.0
C1409 C 0.7235 0.9733 0.4039 0.0
C1410 C 0.71898 0.90448 0.40862 0.0
C1411 C 0.71702 0.84332 0.4013 0.0
H1412 H 0.96587 0.52823 0.15172 0.0
H1413 H 0.97128 0.75466 0.16231 0.0
H1414 H 0.97518 0.79204 0.14222 0.0
H1415 H 0.99516 0.5324 0.12721 0.0
H1416 H 0.98165 0.4755 0.11854 0.0
H1417 H 0.98162 0.46508 0.13381 0.0
H1418 H 0.94919 0.48607 0.13416 0.0
H1419 H 0.94914 0.49651 0.11891 0.0
H1420 H 0.94056 0.56796 0.12782 0.0
H1421 H 0.97733 0.80537 0.12103 0.0
H1422 H 0.97464 0.79641 0.10014 0.0
H1423 H 0.96555 0.56232 0.10312 0.0
C1424 C 0.96828 0.58536 0.14979 0.0
C1425 C 0.96859 0.63863 0.15852 0.0
C1426 C 0.97116 0.71321 0.15571 0.0
C1427 C 0.97346 0.73478 0.14434 0.0
C1428 C 0.97288 0.68114 0.13588 0.0
C1429 C 0.97017 0.60805 0.13844 0.0
C1430 C 0.9683 0.56269 0.12768 0.0
C1431 C 0.98253 0.50554 0.12676 0.0
C1432 C 0.95075 0.52619 0.12711 0.0
C1433 C 0.97017 0.62182 0.11868 0.0
C1434 C 0.97315 0.68945 0.12361 0.0
C1435 C 0.97505 0.75268 0.11707 0.0
C1436 C 0.97354 0.74696 0.1052 0.0
C1437 C 0.96985 0.6787 0.09997 0.0
C1438 C 0.96838 0.61527 0.10684 0.0
H1439 H 0.29513 0.51304 0.10616 0.0
H1440 H 0.26347 0.69595 0.09624 0.0
H1441 H 0.25633 0.71859 0.11647 0.0
H1442 H 0.27012 0.45179 0.13148 0.0
H1443 H 0.28889 0.43249 0.13968 0.0
H1444 H 0.28922 0.42267 0.12439 0.0
H1445 H 0.31481 0.51123 0.12327 0.0
H1446 H 0.31452 0.52149 0.13851 0.0
H1447 H 0.31314 0.60131 0.1295 0.0
H1448 H 0.25462 0.72816 0.13761 0.0
H1449 H 0.25976 0.73007 0.15829 0.0
H1450 H 0.29392 0.54476 0.15483 0.0
C1451 C 0.28626 0.55616 0.10829 0.0
C1452 C 0.27944 0.60175 0.09973 0.0
C1453 C 0.2685 0.65984 0.10274 0.0
C1454 C 0.26438 0.6729 0.11418 0.0
C1455 C 0.27151 0.62789 0.1225 0.0
C1456 C 0.28229 0.57085 0.11973 0.0
C1457 C 0.28979 0.53639 0.13037 0.0
C1458 C 0.28417 0.45606 0.13155 0.0
C1459 C 0.30921 0.54305 0.13041 0.0
C1460 C 0.28184 0.58399 0.13952 0.0
C1461 C 0.27111 0.63546 0.13479 0.0
C1462 C 0.26287 0.68767 0.14143 0.0
C1463 C 0.2659 0.68827 0.1532 0.0
C1464 C 0.27725 0.63754 0.15825 0.0
C1465 C 0.28508 0.58395 0.15128 0.0
H1466 H 0.03986 0.4576 0.85528 0.0
H1467 H 0.02714 0.23139 0.84788 0.0
H1468 H 0.02172 0.20926 0.86836 0.0
H1469 H 0.06347 0.41702 0.87964 0.0
H1470 H 0.05748 0.49777 0.88753 0.0
H1471 H 0.05751 0.49957 0.8722 0.0
H1472 H 0.02611 0.54043 0.87222 0.0
H1473 H 0.02599 0.5388 0.88758 0.0
H1474 H 0.01061 0.48618 0.87971 0.0
H1475 H 0.01957 0.20928 0.88957 0.0
H1476 H 0.02359 0.22678 0.91018 0.0
H1477 H 0.03985 0.45101 0.90415 0.0
C1478 C 0.03544 0.40412 0.85798 0.0
C1479 C 0.03353 0.34646 0.85005 0.0
C1480 C 0.02844 0.2763 0.85387 0.0
C1481 C 0.02528 0.26341 0.86545 0.0
C1482 C 0.02753 0.32102 0.87312 0.0
C1483 C 0.03267 0.38984 0.86958 0.0
C1484 C 0.03618 0.43945 0.87969 0.0
C1485 C 0.05476 0.46491 0.87977 0.0
C1486 C 0.024 0.5051 0.8798 0.0
C1487 C 0.03253 0.38736 0.88946 0.0
C1488 C 0.0272 0.31992 0.88546 0.0
C1489 C 0.02362 0.26201 0.89281 0.0
C1490 C 0.02593 0.27262 0.90454 0.0
C1491 C 0.03204 0.34031 0.90884 0.0
C1492 C 0.03507 0.39875 0.90116 0.0
H1493 H 0.70825 0.2666 0.85624 0.0
H1494 H 0.73511 0.46376 0.84646 0.0
H1495 H 0.74007 0.49327 0.86679 0.0
H1496 H 0.68653 0.34503 0.87914 0.0
H1497 H 0.68737 0.2654 0.88822 0.0
H1498 H 0.68794 0.25464 0.87299 0.0
H1499 H 0.71603 0.1821 0.87461 0.0
H1500 H 0.71552 0.19247 0.88989 0.0
H1501 H 0.73378 0.22254 0.88195 0.0
H1502 H 0.74028 0.50556 0.88806 0.0
H1503 H 0.73478 0.50343 0.90873 0.0
H1504 H 0.70684 0.29976 0.9048 0.0
C1505 C 0.71555 0.31486 0.85844 0.0
C1506 C 0.72154 0.36267 0.8499 0.0
C1507 C 0.73056 0.42657 0.85296 0.0
C1508 C 0.73347 0.44345 0.86446 0.0
C1509 C 0.72717 0.39592 0.87275 0.0
C1510 C 0.71838 0.33291 0.86989 0.0
C1511 C 0.71167 0.29461 0.88044 0.0
C1512 C 0.69223 0.28968 0.88018 0.0
C1513 C 0.71973 0.21841 0.8818 0.0
C1514 C 0.71773 0.34674 0.88964 0.0
C1515 C 0.72687 0.40414 0.88503 0.0
C1516 C 0.73327 0.46054 0.89178 0.0
C1517 C 0.73007 0.45879 0.90353 0.0
C1518 C 0.72037 0.40144 0.90843 0.0
C1519 C 0.71434 0.34427 0.90135 0.0
H1520 H 0.51771 0.87232 0.98851 0.0
H1521 H 0.50751 0.05883 0.96666 0.0
H1522 H 0.49481 0.12501 0.98289 0.0
H1523 H 0.47883 0.88924 0.00603 0.0
H1524 H 0.48949 0.86274 0.01897 0.0
H1525 H 0.49666 0.82768 0.00544 0.0
H1526 H 0.52674 0.87741 0.00961 0.0
H1527 H 0.51964 0.91325 0.02309 0.0
H1528 H 0.52952 0.9733 0.01286 0.0
H1529 H 0.48516 0.17447 1.00154 0.0
H1530 H 0.47755 0.20197 0.0215 0.0
H1531 H 0.49352 0.98401 0.03158 0.0
C1532 C 0.51243 0.92639 0.98714 0.0
C1533 C 0.51355 0.96072 0.97637 0.0
C1534 C 0.50681 0.03196 0.97488 0.0
C1535 C 0.49956 0.06986 0.98403 0.0
C1536 C 0.49903 0.03554 0.99462 0.0
C1537 C 0.50509 0.96516 0.99623 0.0
C1538 C 0.50344 0.94232 0.00862 0.0
C1539 C 0.49138 0.8766 0.00983 0.0
C1540 C 0.52087 0.9256 0.01385 0.0
C1541 C 0.4958 0.01129 0.01372 0.0
C1542 C 0.49335 0.06423 0.00546 0.0
C1543 C 0.48693 0.13336 0.00808 0.0
C1544 C 0.48278 0.14873 0.01944 0.0
C1545 C 0.48509 0.09532 0.02803 0.0
C1546 C 0.49162 0.02566 0.02512 0.0
H1547 H 0.78174 0.17615 0.01879 0.0
H1548 H 0.73749 0.187 0.04052 0.0
H1549 H 0.72082 0.23844 0.02451 0.0
H1550 H 0.7744 0.34603 1.00406 0.0
H1551 H 0.78192 0.31278 0.99052 0.0
H1552 H 0.79018 0.27474 1.00355 0.0
H1553 H 0.78161 0.1443 0.99694 0.0
H1554 H 0.77345 0.18185 0.98385 0.0
H1555 H 0.76 0.12663 0.99282 0.0
H1556 H 0.70927 0.29103 0.00629 0.0
H1557 H 0.70316 0.33546 0.98677 0.0
H1558 H 0.75507 0.29282 0.97695 0.0
C1559 C 0.76854 0.18957 0.02014 0.0
C1560 C 0.76083 0.17824 0.03084 0.0
C1561 C 0.74352 0.19522 0.03232 0.0
C1562 C 0.73403 0.22474 0.02332 0.0
C1563 C 0.74208 0.23679 0.01291 0.0
C1564 C 0.75893 0.21938 0.01125 0.0
C1565 C 0.76456 0.23788 0.99924 0.0
C1566 C 0.7786 0.29634 0.99935 0.0
C1567 C 0.77023 0.16853 0.99283 0.0
C1568 C 0.74824 0.26828 0.99438 0.0
C1569 C 0.73545 0.26732 1.00243 0.0
C1570 C 0.71918 0.29199 0.99993 0.0
C1571 C 0.71583 0.31719 0.98887 0.0
C1572 C 0.72866 0.31732 0.98047 0.0
C1573 C 0.74511 0.2935 0.98329 0.0
H1574 H 0.49093 0.27074 0.22686 0.0
H1575 H 0.47267 0.05666 0.23723 0.0
H1576 H 0.48199 0.08125 0.25696 0.0
H1577 H 0.52792 0.27407 0.24478 0.0
H1578 H 0.52622 0.37036 0.24806 0.0
H1579 H 0.51814 0.33579 0.23475 0.0
H1580 H 0.48874 0.39118 0.23937 0.0
H1581 H 0.49671 0.42551 0.25274 0.0
H1582 H 0.47835 0.36684 0.25251 0.0
H1583 H 0.49329 0.1283 0.27545 0.0
H1584 H 0.50684 0.1933 0.29151 0.0
H1585 H 0.51752 0.37839 0.26948 0.0
C1586 C 0.48892 0.2292 0.23332 0.0
C1587 C 0.48125 0.16146 0.23053 0.0
C1588 C 0.47881 0.10829 0.23916 0.0
C1589 C 0.48392 0.12207 0.2504 0.0
C1590 C 0.49137 0.18948 0.25289 0.0
C1591 C 0.49392 0.24219 0.24461 0.0
C1592 C 0.50238 0.30979 0.24957 0.0
C1593 C 0.51969 0.32326 0.24396 0.0
C1594 C 0.49085 0.37733 0.24848 0.0
C1595 C 0.50431 0.28658 0.26192 0.0
C1596 C 0.49779 0.21704 0.26363 0.0
C1597 C 0.4984 0.1828 0.27422 0.0
C1598 C 0.50611 0.22005 0.28328 0.0
C1599 C 0.51314 0.2907 0.28171 0.0
C1600 C 0.51202 0.3248 0.27093 0.0
H1601 H 0.76944 0.12109 0.238 0.0
H1602 H 0.75938 0.93056 0.21694 0.0
H1603 H 0.7468 0.86703 0.23345 0.0
H1604 H 0.78062 0.02606 0.26317 0.0
H1605 H 0.7703 0.08858 0.27283 0.0
H1606 H 0.77795 0.121 0.25928 0.0
H1607 H 0.74804 0.16926 0.25424 0.0
H1608 H 0.74034 0.13773 0.26784 0.0
H1609 H 0.73021 0.10768 0.25489 0.0
H1610 H 0.73694 0.82124 0.25236 0.0
H1611 H 0.72807 0.79982 0.27229 0.0
H1612 H 0.74334 0.02092 0.28116 0.0
C1613 C 0.76427 0.0666 0.23684 0.0
C1614 C 0.76548 0.03037 0.22623 0.0
C1615 C 0.75878 0.95875 0.22505 0.0
C1616 C 0.75158 0.92234 0.23437 0.0
C1617 C 0.75095 0.95867 0.24479 0.0
C1618 C 0.75688 0.02956 0.24607 0.0
C1619 C 0.75472 0.05561 0.25827 0.0
C1620 C 0.77193 0.07387 0.2637 0.0
C1621 C 0.7426 0.12147 0.25884 0.0
C1622 C 0.74689 0.98795 0.26364 0.0
C1623 C 0.7449 0.93262 0.2557 0.0
C1624 C 0.73834 0.86424 0.25864 0.0
C1625 C 0.73349 0.85233 0.26998 0.0
C1626 C 0.73516 0.90853 0.2782 0.0
C1627 C 0.74195 0.97715 0.27498 0.0
H1628 H 0.22007 0.80959 0.98881 0.0
H1629 H 0.2653 0.80395 0.96796 0.0
H1630 H 0.2812 0.74792 0.98394 0.0
H1631 H 0.24061 0.85516 0.01511 0.0
H1632 H 0.22697 0.7988 0.02376 0.0
H1633 H 0.21919 0.83701 0.01062 0.0
H1634 H 0.21114 0.70678 1.00363 0.0
H1635 H 0.21899 0.66812 0.01673 0.0
H1636 H 0.22708 0.63609 1.00326 0.0
H1637 H 0.29218 0.69413 1.00221 0.0
H1638 H 0.29789 0.65156 0.02188 0.0
H1639 H 0.24552 0.69044 0.03091 0.0
C1640 C 0.2333 0.79598 0.98763 0.0
C1641 C 0.24152 0.8104 0.97718 0.0
C1642 C 0.25886 0.79318 0.97594 0.0
C1643 C 0.26793 0.76109 0.98493 0.0
C1644 C 0.25943 0.74668 0.9951 0.0
C1645 C 0.24252 0.76383 0.99653 0.0
C1646 C 0.23652 0.74423 0.00843 0.0
C1647 C 0.23047 0.81289 0.01486 0.0
C1648 C 0.22261 0.68529 0.00798 0.0
C1649 C 0.25272 0.714 0.01351 0.0
C1650 C 0.26576 0.71552 0.00564 0.0
C1651 C 0.28205 0.69228 0.00841 0.0
C1652 C 0.28518 0.66801 0.01955 0.0
C1653 C 0.27209 0.66727 0.02777 0.0
C1654 C 0.25563 0.68966 0.02469 0.0
H1655 H 0.46919 0.69131 0.73869 0.0
H1656 H 0.51408 0.69301 0.7175 0.0
H1657 H 0.5308 0.7426 0.73364 0.0
H1658 H 0.47789 0.86057 0.75355 0.0
H1659 H 0.46969 0.8285 0.76699 0.0
H1660 H 0.46137 0.79238 0.75384 0.0
H1661 H 0.4684 0.66028 0.76046 0.0
H1662 H 0.47663 0.69595 0.77366 0.0
H1663 H 0.48969 0.63837 0.7648 0.0
H1664 H 0.54247 0.79209 0.75204 0.0
H1665 H 0.54866 0.83313 0.77173 0.0
H1666 H 0.49604 0.80203 0.78088 0.0
C1667 C 0.48253 0.70255 0.73747 0.0
C1668 C 0.49042 0.68901 0.72689 0.0
C1669 C 0.50791 0.70305 0.72559 0.0
C1670 C 0.51743 0.73149 0.73467 0.0
C1671 C 0.50922 0.74549 0.74497 0.0
C1672 C 0.49218 0.7312 0.74644 0.0
C1673 C 0.48646 0.75053 0.7584 0.0
C1674 C 0.47306 0.81163 0.75818 0.0
C1675 C 0.47991 0.68221 0.7647 0.0
C1676 C 0.50296 0.77765 0.76346 0.0
C1677 C 0.51592 0.77446 0.75555 0.0
C1678 C 0.53242 0.79508 0.75828 0.0
C1679 C 0.53581 0.81846 0.76943 0.0
C1680 C 0.52278 0.82098 0.77768 0.0
C1681 C 0.50613 0.80123 0.77464 0.0
H1682 H 0.28186 0.06239 0.73954 0.0
H1683 H 0.23769 0.06433 0.71768 0.0
H1684 H 0.22033 0.01402 0.73346 0.0
H1685 H 0.27248 0.89431 0.75413 0.0
H1686 H 0.28009 0.92551 0.76778 0.0
H1687 H 0.28897 0.9625 0.75486 0.0
H1688 H 0.28163 0.09422 0.7615 0.0
H1689 H 0.2729 0.05773 0.7745 0.0
H1690 H 0.26016 0.11575 0.76549 0.0
H1691 H 0.20817 0.95942 0.75134 0.0
H1692 H 0.20123 0.91538 0.77073 0.0
H1693 H 0.25313 0.95168 0.78124 0.0
C1694 C 0.2685 0.05253 0.73816 0.0
C1695 C 0.26101 0.06695 0.72746 0.0
C1696 C 0.24354 0.05381 0.72587 0.0
C1697 C 0.23366 0.02489 0.73474 0.0
C1698 C 0.24148 0.0099 0.74515 0.0
C1699 C 0.25846 0.02404 0.74695 0.0
C1700 C 0.26368 0.00401 0.75899 0.0
C1701 C 0.2771 0.94295 0.75893 0.0
C1702 C 0.26996 0.07198 0.7655 0.0
C1703 C 0.24698 0.97651 0.76371 0.0
C1704 C 0.23439 0.97977 0.75553 0.0
C1705 C 0.21789 0.95711 0.75782 0.0
C1706 C 0.21408 0.93215 0.76882 0.0
C1707 C 0.22662 0.93085 0.77743 0.0
C1708 C 0.24334 0.95209 0.77478 0.0
H1709 H 0.48167 0.60879 0.51981 0.0
H1710 H 0.48889 0.41449 0.54056 0.0
H1711 H 0.50114 0.34968 0.52406 0.0
H1712 H 0.47008 0.51811 0.49427 0.0
H1713 H 0.48137 0.57913 0.48488 0.0
H1714 H 0.47372 0.61205 0.4984 0.0
H1715 H 0.504 0.6535 0.50392 0.0
H1716 H 0.51172 0.62143 0.49035 0.0
H1717 H 0.52112 0.58826 0.50336 0.0
H1718 H 0.51109 0.30349 0.50522 0.0
H1719 H 0.52037 0.28186 0.48538 0.0
H1720 H 0.50781 0.50647 0.47676 0.0
C1721 C 0.48615 0.55312 0.5209 0.0
C1722 C 0.48424 0.51633 0.53142 0.0
C1723 C 0.49003 0.4432 0.53251 0.0
C1724 C 0.49704 0.40603 0.52321 0.0
C1725 C 0.49838 0.44303 0.51288 0.0
C1726 C 0.49333 0.51522 0.51168 0.0
C1727 C 0.49614 0.54173 0.49957 0.0
C1728 C 0.47932 0.56406 0.49395 0.0
C1729 C 0.50901 0.60498 0.49929 0.0
C1730 C 0.50333 0.4729 0.49415 0.0
C1731 C 0.50445 0.41661 0.50199 0.0
C1732 C 0.51036 0.34721 0.499 0.0
C1733 C 0.51546 0.33522 0.48772 0.0
C1734 C 0.51468 0.39234 0.47959 0.0
C1735 C 0.50852 0.46198 0.48285 0.0
H1736 H 0.75589 0.81124 0.47864 0.0
H1737 H 0.70216 0.79619 0.48559 0.0
H1738 H 0.70829 0.75321 0.50516 0.0
H1739 H 0.76811 0.65099 0.4938 0.0
H1740 H 0.78755 0.68885 0.49928 0.0
H1741 H 0.779 0.72201 0.48602 0.0
H1742 H 0.77907 0.85474 0.49391 0.0
H1743 H 0.78771 0.82201 0.50718 0.0
H1744 H 0.76836 0.87432 0.50713 0.0
H1745 H 0.7202 0.70601 0.52355 0.0
H1746 H 0.73723 0.66293 0.53997 0.0
H1747 H 0.78329 0.70873 0.52123 0.0
C1748 C 0.74549 0.79964 0.48437 0.0
C1749 C 0.72857 0.80643 0.48068 0.0
C1750 C 0.7152 0.7907 0.48831 0.0
C1751 C 0.71856 0.76639 0.49941 0.0
C1752 C 0.73539 0.75868 0.50276 0.0
C1753 C 0.74865 0.77534 0.49551 0.0
C1754 C 0.76556 0.76089 0.5012 0.0
C1755 C 0.77564 0.70219 0.49468 0.0
C1756 C 0.77577 0.83225 0.50243 0.0
C1757 C 0.75972 0.73271 0.5127 0.0
C1758 C 0.74226 0.732 0.51342 0.0
C1759 C 0.73388 0.70681 0.52312 0.0
C1760 C 0.7436 0.68225 0.53236 0.0
C1761 C 0.76147 0.68326 0.53184 0.0
C1762 C 0.76961 0.70846 0.52187 0.0
H1763 H 0.73589 0.35472 0.77 0.0
H1764 H 0.74237 0.54566 0.79156 0.0
H1765 H 0.75556 0.61265 0.77556 0.0
H1766 H 0.77531 0.37673 0.75357 0.0
H1767 H 0.76574 0.34737 0.74039 0.0
H1768 H 0.75795 0.31251 0.75378 0.0
H1769 H 0.7278 0.35725 0.74859 0.0
H1770 H 0.73552 0.39277 0.73525 0.0
H1771 H 0.72449 0.45231 0.74501 0.0
H1772 H 0.76699 0.66052 0.75718 0.0
H1773 H 0.77657 0.68567 0.73753 0.0
H1774 H 0.76175 0.466 0.72745 0.0
C1775 C 0.74042 0.4101 0.77135 0.0
C1776 C 0.73823 0.44525 0.78197 0.0
C1777 C 0.74396 0.51813 0.78345 0.0
C1778 C 0.75146 0.55649 0.77443 0.0
C1779 C 0.75311 0.52115 0.76397 0.0
C1780 C 0.74783 0.44953 0.76237 0.0
C1781 C 0.75049 0.42575 0.75011 0.0
C1782 C 0.76312 0.3618 0.74943 0.0
C1783 C 0.73356 0.40587 0.74441 0.0
C1784 C 0.75791 0.49533 0.74508 0.0
C1785 C 0.75939 0.54949 0.75325 0.0
C1786 C 0.76587 0.61863 0.75069 0.0
C1787 C 0.77111 0.63269 0.73949 0.0
C1788 C 0.76971 0.57813 0.73096 0.0
C1789 C 0.76298 0.50867 0.73382 0.0
H1790 H 0.26437 0.10748 0.52043 0.0
H1791 H 0.26036 0.30052 0.54182 0.0
H1792 H 0.24834 0.37024 0.52571 0.0
H1793 H 0.27726 0.20034 0.49543 0.0
H1794 H 0.26542 0.14374 0.48567 0.0
H1795 H 0.27246 0.10657 0.49907 0.0
H1796 H 0.24163 0.07079 0.50414 0.0
H1797 H 0.23452 0.10736 0.4907 0.0
H1798 H 0.22531 0.13982 0.50382 0.0
H1799 H 0.23823 0.42091 0.50725 0.0
H1800 H 0.22988 0.44911 0.48746 0.0
H1801 H 0.24068 0.22478 0.4776 0.0
C1802 C 0.2606 0.16396 0.52173 0.0
C1803 C 0.26322 0.19887 0.53234 0.0
C1804 C 0.25849 0.27314 0.53373 0.0
C1805 C 0.25163 0.31305 0.52465 0.0
C1806 C 0.24954 0.27781 0.51421 0.0
C1807 C 0.25378 0.20487 0.51269 0.0
C1808 C 0.25086 0.18149 0.50043 0.0
C1809 C 0.26749 0.15658 0.49482 0.0
C1810 C 0.23727 0.12129 0.49974 0.0
C1811 C 0.24457 0.25289 0.4953 0.0
C1812 C 0.24385 0.30753 0.50345 0.0
C1813 C 0.23873 0.37859 0.50079 0.0
C1814 C 0.23416 0.39429 0.48952 0.0
C1815 C 0.23485 0.33938 0.48102 0.0
C1816 C 0.24005 0.2677 0.48397 0.0
H1817 H 0.26067 0.47077 0.22748 0.0
H1818 H 0.27647 0.68996 0.23703 0.0
H1819 H 0.26888 0.66432 0.25707 0.0
H1820 H 0.22461 0.46357 0.24577 0.0
H1821 H 0.22699 0.36794 0.2493 0.0
H1822 H 0.23466 0.40186 0.23585 0.0
H1823 H 0.26448 0.35084 0.24045 0.0
H1824 H 0.25692 0.31717 0.25397 0.0
H1825 H 0.27489 0.37805 0.25346 0.0
H1826 H 0.25888 0.61728 0.27577 0.0
H1827 H 0.24519 0.55444 0.29197 0.0
H1828 H 0.23522 0.36543 0.2706 0.0
C1829 C 0.2626 0.51295 0.23385 0.0
C1830 C 0.26908 0.58244 0.23078 0.0
C1831 C 0.27136 0.63672 0.23924 0.0
C1832 C 0.26721 0.62242 0.25064 0.0
C1833 C 0.2608 0.5535 0.25342 0.0
C1834 C 0.25839 0.49968 0.24528 0.0
C1835 C 0.25044 0.4317 0.2505 0.0
C1836 C 0.23315 0.41534 0.24503 0.0
C1837 C 0.2624 0.36552 0.24954 0.0
C1838 C 0.24854 0.45618 0.2628 0.0
C1839 C 0.25481 0.52637 0.26428 0.0
C1840 C 0.254 0.56222 0.27474 0.0
C1841 C 0.24622 0.52618 0.28388 0.0
C1842 C 0.23924 0.45528 0.2825 0.0
C1843 C 0.24071 0.41921 0.27189 0.0
H1844 H 0.03408 0.95098 0.48827 0.0
H1845 H 0.98872 0.94093 0.4676 0.0
H1846 H 0.97205 0.99349 0.48353 0.0
H1847 H 0.01415 0.90015 0.51479 0.0
H1848 H 0.027 0.96056 0.52334 0.0
H1849 H 0.03527 0.92353 0.51024 0.0
H1850 H 0.0415 0.05516 0.50306 0.0
H1851 H 0.03311 0.09264 0.5161 0.0
H1852 H 0.02461 0.12151 0.50257 0.0
H1853 H 0.96056 0.049 0.5015 0.0
H1854 H 0.95437 0.09413 0.52094 0.0
H1855 H 0.007 0.06502 0.53028 0.0
C1856 C 0.02063 0.95998 0.48716 0.0
C1857 C 0.01258 0.94252 0.47677 0.0
C1858 C 0.995 0.95415 0.47555 0.0
C1859 C 0.9855 0.9842 0.48451 0.0
C1860 C 0.99382 0.00181 0.49463 0.0
C1861 C 0.01095 0.98952 0.49606 0.0
C1862 C 0.01669 0.01147 0.50792 0.0
C1863 C 0.02368 0.94496 0.51446 0.0
C1864 C 0.02975 0.07391 0.50737 0.0
C1865 C 1.0001 0.03774 0.51296 0.0
C1866 C 0.98711 0.03233 0.5051 0.0
C1867 C 0.97061 0.05313 0.50773 0.0
C1868 C 0.96721 0.07866 0.51877 0.0
C1869 C 0.98019 0.08231 0.52705 0.0
C1870 C 0.99689 0.06278 0.52406 0.0
H1871 H 0.99268 0.25749 0.72713 0.0
H1872 H 0.97819 0.03587 0.73626 0.0
H1873 H 0.98617 0.06007 0.75628 0.0
H1874 H 0.0291 0.26728 0.74533 0.0
H1875 H 0.02606 0.36227 0.74906 0.0
H1876 H 0.01858 0.32839 0.73555 0.0
H1877 H 0.98844 0.37524 0.7403 0.0
H1878 H 0.99581 0.40871 0.75388 0.0
H1879 H 0.97828 0.34556 0.75326 0.0
H1880 H 0.99589 0.107 0.77509 0.0
H1881 H 0.00895 0.17069 0.79144 0.0
H1882 H 0.01778 0.36222 0.77039 0.0
C1883 C 0.99119 0.21433 0.73339 0.0
C1884 C 0.98494 0.14464 0.73021 0.0
C1885 C 0.98318 0.0892 0.73854 0.0
C1886 C 0.98752 0.10271 0.74993 0.0
C1887 C 0.99361 0.17198 0.75283 0.0
C1888 C 0.99558 0.22681 0.74482 0.0
C1889 C 0.00308 0.29538 0.75016 0.0
C1890 C 0.02022 0.31442 0.7447 0.0
C1891 C 0.99066 0.36005 0.74935 0.0
C1892 C 0.0052 0.27016 0.76241 0.0
C1893 C 0.99944 0.19903 0.76375 0.0
C1894 C 1.00041 0.1627 0.77416 0.0
C1895 C 0.00783 0.19924 0.78338 0.0
C1896 C 0.01433 0.27111 0.78214 0.0
C1897 C 0.01269 0.30761 0.77158 0.0
H1898 H 0.0165 0.86998 0.27074 0.0
H1899 H 0.0157 0.66736 0.29005 0.0
H1900 H 0.00309 0.6029 0.27362 0.0
H1901 H 0.9764 0.83811 0.25529 0.0
H1902 H 0.98418 0.87834 0.24227 0.0
H1903 H 0.99209 0.90982 0.25583 0.0
H1904 H 0.02272 0.88236 0.24921 0.0
H1905 H 0.0149 0.85012 0.23569 0.0
H1906 H 0.02804 0.79149 0.24433 0.0
H1907 H 0.99217 0.5587 0.25492 0.0
H1908 H 0.98216 0.53862 0.23521 0.0
H1909 H 0.98999 0.76895 0.22772 0.0
C1910 C 0.01331 0.81246 0.27154 0.0
C1911 C 0.01706 0.77337 0.28162 0.0
C1912 C 0.01301 0.69792 0.28235 0.0
C1913 C 0.00582 0.66095 0.27308 0.0
C1914 C 0.00268 0.70034 0.26314 0.0
C1915 C 0.00612 0.77453 0.26232 0.0
C1916 C 0.00197 0.80299 0.25049 0.0
C1917 C 0.98782 0.86073 0.251 0.0
C1918 C 0.01786 0.83353 0.24458 0.0
C1919 C 0.99589 0.73304 0.2448 0.0
C1920 C 0.99639 0.67459 0.25228 0.0
C1921 C 0.99168 0.60405 0.24898 0.0
C1922 C 0.98617 0.59299 0.23776 0.0
C1923 C 0.98547 0.65207 0.22997 0.0
C1924 C 0.9904 0.72293 0.23354 0.0
H1925 H 0.9979 0.44191 0.97866 0.0
H1926 H 0.0516 0.4443 0.98608 0.0
H1927 H 0.04568 0.49121 0.00547 0.0
H1928 H 0.98749 0.60645 0.99319 0.0
H1929 H 0.96749 0.57417 0.99863 0.0
H1930 H 0.97582 0.53706 0.98556 0.0
H1931 H 0.97394 0.4057 0.99388 0.0
H1932 H 0.96547 0.44238 0.00695 0.0
H1933 H 0.98412 0.38553 0.00727 0.0
H1934 H 0.03405 0.54445 0.02359 0.0
H1935 H 0.01725 0.59308 0.03975 0.0
H1936 H 0.97106 0.55551 0.02073 0.0
C1937 C 0.00833 0.45145 0.98446 0.0
C1938 C 0.0252 0.44006 0.98095 0.0
C1939 C 0.03861 0.45322 0.98868 0.0
C1940 C 0.03536 0.47983 0.99967 0.0
C1941 C 0.0186 0.49232 1.00283 0.0
C1942 C 0.00528 0.47789 0.99551 0.0
C1943 C 0.98848 0.49722 1.00099 0.0
C1944 C 0.97929 0.5573 0.99419 0.0
C1945 C 0.97735 0.42861 1.00236 0.0
C1946 C 0.99446 0.52562 0.01245 0.0
C1947 C 0.01189 0.5223 0.01333 0.0
C1948 C 0.02039 0.54679 0.02303 0.0
C1949 C 0.0108 0.57458 0.03213 0.0
C1950 C 0.99296 0.57734 0.03146 0.0
C1951 C 0.98471 0.55307 0.02146 0.0
H1952 H 0.44332 0.75984 0.05722 0.0
H1953 H 0.46643 0.84212 0.08822 0.0
H1954 H 0.48225 0.72653 0.09035 0.0
H1955 H 0.43792 0.57383 0.06753 0.0
H1956 H 0.44209 0.53307 0.05382 0.0
H1957 H 0.43304 0.62345 0.05465 0.0
H1958 H 0.45758 0.67302 0.04213 0.0
H1959 H 0.46688 0.58288 0.04152 0.0
H1960 H 0.47916 0.65936 0.04666 0.0
H1961 H 0.49569 0.60307 0.08912 0.0
H1962 H 0.50284 0.47288 0.08612 0.0
H1963 H 0.47049 0.46867 0.05619 0.0
C1964 C 0.45164 0.75319 0.06448 0.0
C1965 C 0.45409 0.81074 0.07236 0.0
C1966 C 0.46489 0.79983 0.08184 0.0
C1967 C 0.47388 0.73425 0.08315 0.0
C1968 C 0.47173 0.67966 0.07499 0.0
C1969 C 0.46065 0.68771 0.06596 0.0
C1970 C 0.46011 0.61896 0.05872 0.0
C1971 C 0.44223 0.58536 0.05869 0.0
C1972 C 0.4663 0.63452 0.04654 0.0
C1973 C 0.47254 0.57106 0.06514 0.0
C1974 C 0.47924 0.60749 0.07443 0.0
C1975 C 0.49056 0.57388 0.08187 0.0
C1976 C 0.49462 0.49999 0.08006 0.0
C1977 C 0.48727 0.46046 0.07092 0.0
C1978 C 0.4765 0.49742 0.06318 0.0
H1979 H 0.78394 0.80122 0.05688 0.0
H1980 H 0.75849 0.79241 0.08966 0.0
H1981 H 0.76637 0.66214 0.09153 0.0
H1982 H 0.77352 0.61134 0.04775 0.0
H1983 H 0.79387 0.59927 0.04107 0.0
H1984 H 0.78441 0.68906 0.04171 0.0
H1985 H 0.81145 0.73855 0.05154 0.0
H1986 H 0.82086 0.64871 0.05123 0.0
H1987 H 0.81866 0.69666 0.06458 0.0
H1988 H 0.77993 0.53928 0.09105 0.0
H1989 H 0.79515 0.4242 0.08705 0.0
H1990 H 0.8114 0.5103 0.05439 0.0
C1991 C 0.77954 0.77138 0.06429 0.0
C1992 C 0.77053 0.807 0.07313 0.0
C1993 C 0.76533 0.76623 0.08278 0.0
C1994 C 0.76981 0.69231 0.08394 0.0
C1995 C 0.77941 0.65997 0.07535 0.0
C1996 C 0.78395 0.6976 0.06561 0.0
C1997 C 0.79497 0.65082 0.05791 0.0
C1998 C 0.78616 0.63678 0.04643 0.0
C1999 C 0.81252 0.68578 0.05622 0.0
C2000 C 0.79611 0.58136 0.06494 0.0
C2001 C 0.78706 0.58811 0.07497 0.0
C2002 C 0.7867 0.53262 0.0831 0.0
C2003 C 0.79531 0.4674 0.08073 0.0
C2004 C 0.80398 0.45787 0.07028 0.0
C2005 C 0.80474 0.51621 0.0624 0.0
H2006 H 0.46829 0.80393 0.2045 0.0
H2007 H 0.49882 0.80758 0.17375 0.0
H2008 H 0.49395 0.67485 0.17127 0.0
H2009 H 0.47924 0.61193 0.21386 0.0
H2010 H 0.45788 0.59685 0.21872 0.0
H2011 H 0.46701 0.68734 0.21942 0.0
H2012 H 0.44161 0.73738 0.20779 0.0
H2013 H 0.43267 0.64702 0.2067 0.0
H2014 H 0.43707 0.69892 0.19397 0.0
H2015 H 0.48122 0.55019 0.17006 0.0
H2016 H 0.46471 0.43582 0.17168 0.0
H2017 H 0.44226 0.5141 0.20312 0.0
C2018 C 0.4745 0.77636 0.19748 0.0
C2019 C 0.48388 0.81591 0.18929 0.0
C2020 C 0.49167 0.77815 0.18016 0.0
C2021 C 0.48891 0.70288 0.17865 0.0
C2022 C 0.47852 0.66667 0.18643 0.0
C2023 C 0.47174 0.70177 0.19582 0.0
C2024 C 0.45961 0.65277 0.20226 0.0
C2025 C 0.46634 0.63622 0.21428 0.0
C2026 C 0.44169 0.68603 0.2027 0.0
C2027 C 0.46011 0.58549 0.19478 0.0
C2028 C 0.47119 0.59439 0.18576 0.0
C2029 C 0.47293 0.54162 0.17728 0.0
C2030 C 0.46351 0.477 0.17827 0.0
C2031 C 0.45261 0.46585 0.18768 0.0
C2032 C 0.45065 0.52128 0.19591 0.0
H2033 H 0.78811 0.43951 0.20456 0.0
H2034 H 0.75083 0.4304 0.17739 0.0
H2035 H 0.75623 0.56075 0.17308 0.0
H2036 H 0.78004 0.63282 0.21337 0.0
H2037 H 0.80223 0.64851 0.21601 0.0
H2038 H 0.79335 0.55843 0.21806 0.0
H2039 H 0.81587 0.50505 0.20429 0.0
H2040 H 0.82455 0.59499 0.20197 0.0
H2041 H 0.81748 0.54096 0.19003 0.0
H2042 H 0.76889 0.68506 0.16979 0.0
H2043 H 0.78505 0.80083 0.16951 0.0
H2044 H 0.81371 0.72895 0.199 0.0
C2045 C 0.78065 0.46538 0.19795 0.0
C2046 C 0.76906 0.42467 0.1913 0.0
C2047 C 0.75972 0.46052 0.18263 0.0
C2048 C 0.76276 0.53446 0.18008 0.0
C2049 C 0.77504 0.57166 0.18635 0.0
C2050 C 0.78358 0.53881 0.19526 0.0
C2051 C 0.79695 0.58912 0.20018 0.0
C2052 C 0.79289 0.60838 0.21264 0.0
C2053 C 0.81475 0.55552 0.19904 0.0
C2054 C 0.79485 0.65486 0.19248 0.0
C2055 C 0.78215 0.64375 0.18456 0.0
C2056 C 0.77852 0.69526 0.17615 0.0
C2057 C 0.78773 0.76092 0.17608 0.0
C2058 C 0.80026 0.77466 0.18445 0.0
C2059 C 0.80408 0.72018 0.19257 0.0
H2060 H 0.54974 0.23 0.92531 0.0
H2061 H 0.56509 0.21156 0.96066 0.0
H2062 H 0.55151 0.33075 0.96488 0.0
H2063 H 0.5582 0.42042 0.9229 0.0
H2064 H 0.54063 0.43808 0.91349 0.0
H2065 H 0.55036 0.34897 0.91368 0.0
H2066 H 0.52107 0.29043 0.91788 0.0
H2067 H 0.51134 0.37983 0.91796 0.0
H2068 H 0.50917 0.32035 0.93014 0.0
H2069 H 0.53703 0.45224 0.96511 0.0
H2070 H 0.52709 0.57717 0.96079 0.0
H2071 H 0.52169 0.51759 0.92513 0.0
C2072 C 0.55016 0.25129 0.93393 0.0
C2073 C 0.55836 0.21234 0.94269 0.0
C2074 C 0.55894 0.24149 0.95384 0.0
C2075 C 0.55108 0.30839 0.95634 0.0
C2076 C 0.5428 0.34514 0.94755 0.0
C2077 C 0.54255 0.31831 0.93653 0.0
C2078 C 0.53416 0.37162 0.92845 0.0
C2079 C 0.54658 0.39625 0.91908 0.0
C2080 C 0.51797 0.33856 0.92331 0.0
C2081 C 0.53008 0.43341 0.9366 0.0
C2082 C 0.5348 0.41628 0.94762 0.0
C2083 C 0.53319 0.46625 0.95653 0.0
C2084 C 0.52745 0.53702 0.95399 0.0
C2085 C 0.52371 0.55727 0.9426 0.0
C2086 C 0.52433 0.50368 0.93393 0.0
H2087 H 0.22879 0.24975 0.92457 0.0
H2088 H 0.22599 0.18674 0.96019 0.0
H2089 H 0.21576 0.31064 0.96508 0.0
H2090 H 0.2417 0.44461 0.92968 0.0
H2091 H 0.22918 0.47655 0.91784 0.0
H2092 H 0.23849 0.38635 0.91745 0.0
H2093 H 0.20883 0.33064 0.91372 0.0
H2094 H 0.19935 0.42022 0.91437 0.0
H2095 H 0.19191 0.3484 0.92366 0.0
H2096 H 0.20163 0.43399 0.96562 0.0
H2097 H 0.18874 0.5557 0.96219 0.0
H2098 H 0.20166 0.53997 0.92638 0.0
C2099 C 0.22656 0.26273 0.93345 0.0
C2100 C 0.22823 0.20863 0.942 0.0
C2101 C 0.22499 0.22747 0.95351 0.0
C2102 C 0.21906 0.2976 0.95636 0.0
C2103 C 0.21673 0.34846 0.94764 0.0
C2104 C 0.22079 0.33257 0.93645 0.0
C2105 C 0.21638 0.39572 0.92861 0.0
C2106 C 0.23239 0.42771 0.92307 0.0
C2107 C 0.20334 0.3723 0.91956 0.0
C2108 C 0.20874 0.44877 0.93707 0.0
C2109 C 0.20899 0.42037 0.948 0.0
C2110 C 0.20165 0.45735 0.95714 0.0
C2111 C 0.1942 0.52588 0.9551 0.0
C2112 C 0.19431 0.55674 0.94404 0.0
C2113 C 0.2016 0.51758 0.93492 0.0
H2114 H 0.56137 0.48148 0.80787 0.0
H2115 H 0.53611 0.55808 0.83845 0.0
H2116 H 0.51985 0.44273 0.8394 0.0
H2117 H 0.52617 0.38535 0.7955 0.0
H2118 H 0.53876 0.30982 0.79039 0.0
H2119 H 0.54807 0.39959 0.7918 0.0
H2120 H 0.57162 0.34696 0.80489 0.0
H2121 H 0.56262 0.25697 0.80326 0.0
H2122 H 0.56575 0.29461 0.8173 0.0
H2123 H 0.50662 0.31906 0.83716 0.0
H2124 H 0.50056 0.1883 0.83357 0.0
H2125 H 0.53452 0.19281 0.80447 0.0
C2126 C 0.55249 0.47361 0.81479 0.0
C2127 C 0.5496 0.52914 0.8229 0.0
C2128 C 0.53804 0.51696 0.83193 0.0
C2129 C 0.52878 0.4517 0.83255 0.0
C2130 C 0.53138 0.39913 0.82414 0.0
C2131 C 0.54318 0.40871 0.81556 0.0
C2132 C 0.54425 0.34193 0.80798 0.0
C2133 C 0.53899 0.36031 0.79569 0.0
C2134 C 0.56211 0.30813 0.80839 0.0
C2135 C 0.53133 0.29313 0.81371 0.0
C2136 C 0.52389 0.32739 0.82293 0.0
C2137 C 0.51227 0.29162 0.82992 0.0
C2138 C 0.50882 0.21751 0.82777 0.0
C2139 C 0.5171 0.18031 0.81877 0.0
C2140 C 0.52789 0.21975 0.81138 0.0
H2141 H 0.19471 0.22317 0.83179 0.0
H2142 H 0.18084 0.21194 0.79611 0.0
H2143 H 0.19328 0.33496 0.79296 0.0
H2144 H 0.18445 0.41377 0.83522 0.0
H2145 H 0.2015 0.43108 0.84507 0.0
H2146 H 0.19226 0.34104 0.8442 0.0
H2147 H 0.22199 0.28625 0.84027 0.0
H2148 H 0.23125 0.37649 0.84093 0.0
H2149 H 0.23427 0.32027 0.82846 0.0
H2150 H 0.20752 0.45842 0.79373 0.0
H2151 H 0.21827 0.58117 0.79885 0.0
H2152 H 0.2217 0.51394 0.83426 0.0
C2153 C 0.19433 0.24687 0.82333 0.0
C2154 C 0.18693 0.20852 0.81417 0.0
C2155 C 0.1864 0.24106 0.80323 0.0
C2156 C 0.19358 0.31038 0.80135 0.0
C2157 C 0.20106 0.34649 0.81054 0.0
C2158 C 0.20119 0.31647 0.82136 0.0
C2159 C 0.20896 0.36871 0.82991 0.0
C2160 C 0.19602 0.38992 0.83914 0.0
C2161 C 0.22508 0.33596 0.8352 0.0
C2162 C 0.21309 0.43302 0.82223 0.0
C2163 C 0.20873 0.41857 0.81105 0.0
C2164 C 0.21101 0.47034 0.80245 0.0
C2165 C 0.21727 0.53976 0.80544 0.0
C2166 C 0.22088 0.55706 0.81696 0.0
C2167 C 0.21918 0.50215 0.82537 0.0
H2168 H 0.45341 0.24924 0.58256 0.0
H2169 H 0.43421 0.2691 0.54809 0.0
H2170 H 0.44785 0.15167 0.54296 0.0
H2171 H 0.49388 0.15943 0.57547 0.0
H2172 H 0.49299 0.09946 0.58767 0.0
H2173 H 0.48342 0.18912 0.58832 0.0
H2174 H 0.45464 0.13097 0.59397 0.0
H2175 H 0.46422 0.04166 0.59355 0.0
H2176 H 0.44567 0.06022 0.58509 0.0
H2177 H 0.46201 0.03038 0.54186 0.0
H2178 H 0.4716 0.9042 0.54558 0.0
H2179 H 0.48118 0.96142 0.58092 0.0
C2180 C 0.45225 0.22884 0.57392 0.0
C2181 C 0.44286 0.26754 0.56569 0.0
C2182 C 0.44128 0.23938 0.55451 0.0
C2183 C 0.44918 0.1735 0.55149 0.0
C2184 C 0.45852 0.13669 0.55977 0.0
C2185 C 0.45988 0.1627 0.5708 0.0
C2186 C 0.46907 0.10871 0.57837 0.0
C2187 C 0.48584 0.14113 0.58271 0.0
C2188 C 0.45772 0.08391 0.58833 0.0
C2189 C 0.47216 0.0472 0.56996 0.0
C2190 C 0.46638 0.06536 0.55921 0.0
C2191 C 0.46672 0.01562 0.55021 0.0
C2192 C 0.47224 0.94409 0.55241 0.0
C2193 C 0.47705 0.92283 0.56356 0.0
C2194 C 0.47776 0.97612 0.57229 0.0
H2195 H 0.808 0.00677 0.55755 0.0
H2196 H 0.78407 0.93693 0.58899 0.0
H2197 H 0.76775 0.05234 0.58958 0.0
H2198 H 0.81329 0.19269 0.56585 0.0
H2199 H 0.80963 0.22829 0.55174 0.0
H2200 H 0.81821 0.13773 0.55352 0.0
H2201 H 0.79368 0.08531 0.54123 0.0
H2202 H 0.78481 0.17579 0.53967 0.0
H2203 H 0.77208 0.10248 0.54538 0.0
H2204 H 0.75497 0.17706 0.58712 0.0
H2205 H 0.74995 0.30847 0.5834 0.0
H2206 H 0.78242 0.29619 0.55361 0.0
C2207 C 0.79934 0.01585 0.56456 0.0
C2208 C 0.79692 0.96237 0.57306 0.0
C2209 C 0.78565 0.97635 0.58218 0.0
C2210 C 0.77634 0.04165 0.58259 0.0
C2211 C 0.77858 0.09232 0.57384 0.0
C2212 C 0.79001 0.08067 0.5651 0.0
C2213 C 0.79105 0.14606 0.55724 0.0
C2214 C 0.8091 0.17808 0.55709 0.0
C2215 C 0.78504 0.12619 0.54517 0.0
C2216 C 0.7787 0.19699 0.56307 0.0
C2217 C 0.77141 0.16462 0.57252 0.0
C2218 C 0.76047 0.20289 0.57968 0.0
C2219 C 0.7576 0.27739 0.57746 0.0
C2220 C 0.76583 0.31252 0.56824 0.0
C2221 C 0.77586 0.27075 0.56069 0.0
H2222 H 0.43934 0.01539 0.70306 0.0
H2223 H 0.45695 0.93256 0.67051 0.0
H2224 H 0.47242 0.04779 0.66713 0.0
H2225 H 0.43257 0.20238 0.69313 0.0
H2226 H 0.43913 0.2429 0.70643 0.0
H2227 H 0.42973 0.15297 0.7063 0.0
H2228 H 0.45606 0.10216 0.71691 0.0
H2229 H 0.46566 0.19179 0.7168 0.0
H2230 H 0.47678 0.11467 0.71078 0.0
H2231 H 0.48632 0.17018 0.66733 0.0
H2232 H 0.49435 0.29991 0.66976 0.0
H2233 H 0.46719 0.30577 0.70194 0.0
C2234 C 0.44634 0.02203 0.69519 0.0
C2235 C 0.44743 0.96441 0.6872 0.0
C2236 C 0.45653 0.97503 0.67694 0.0
C2237 C 0.46529 0.04038 0.67492 0.0
C2238 C 0.46461 0.09501 0.68318 0.0
C2239 C 0.4551 0.08736 0.693 0.0
C2240 C 0.45596 0.15611 0.70023 0.0
C2241 C 0.4383 0.19061 0.7016 0.0
C2242 C 0.4641 0.14019 0.71187 0.0
C2243 C 0.46739 0.20338 0.6929 0.0
C2244 C 0.47237 0.1667 0.68317 0.0
C2245 C 0.48252 0.19963 0.67492 0.0
C2246 C 0.4871 0.27323 0.67641 0.0
C2247 C 0.48143 0.3131 0.68603 0.0
C2248 C 0.47191 0.27673 0.69455 0.0
H2249 H 0.7835 0.93628 0.70439 0.0
H2250 H 0.75303 0.93484 0.67358 0.0
H2251 H 0.75853 0.06708 0.67108 0.0
H2252 H 0.77328 0.12779 0.7138 0.0
H2253 H 0.79467 0.14177 0.71869 0.0
H2254 H 0.78535 0.05163 0.71927 0.0
H2255 H 0.81062 0.0011 0.70757 0.0
H2256 H 0.81976 0.09117 0.7066 0.0
H2257 H 0.81526 0.04009 0.69381 0.0
H2258 H 0.77151 0.19141 0.67003 0.0
H2259 H 0.7879 0.3059 0.67195 0.0
H2260 H 0.81014 0.22553 0.70333 0.0
C2261 C 0.77746 0.96419 0.69733 0.0
C2262 C 0.76788 0.92535 0.68915 0.0
C2263 C 0.76033 0.96367 0.67999 0.0
C2264 C 0.76346 0.03866 0.67846 0.0
C2265 C 0.77399 0.07404 0.68625 0.0
C2266 C 0.78059 0.03848 0.69564 0.0
C2267 C 0.79282 0.08673 0.70215 0.0
C2268 C 0.78612 0.10296 0.71419 0.0
C2269 C 0.81066 0.05272 0.70255 0.0
C2270 C 0.79247 0.15436 0.69475 0.0
C2271 C 0.78147 0.14605 0.68566 0.0
C2272 C 0.77976 0.19945 0.67728 0.0
C2273 C 0.78909 0.26416 0.67845 0.0
C2274 C 0.79987 0.27479 0.68794 0.0
C2275 C 0.80185 0.21867 0.69605 0.0
H2276 H 0.55601 0.70105 0.42829 0.0
H2277 H 0.56092 0.69238 0.46503 0.0
H2278 H 0.54812 0.81621 0.46653 0.0
H2279 H 0.56739 0.89184 0.42575 0.0
H2280 H 0.55309 0.90817 0.41405 0.0
H2281 H 0.56196 0.8183 0.41615 0.0
H2282 H 0.53164 0.76366 0.41669 0.0
H2283 H 0.52269 0.85376 0.41483 0.0
H2284 H 0.51656 0.79844 0.42687 0.0
H2285 H 0.53421 0.93952 0.4639 0.0
H2286 H 0.52476 0.06143 0.45738 0.0
H2287 H 0.53033 0.99135 0.42222 0.0
C2288 C 0.55441 0.72563 0.43662 0.0
C2289 C 0.55934 0.68792 0.44656 0.0
C2290 C 0.55728 0.72125 0.45735 0.0
C2291 C 0.54988 0.79096 0.45827 0.0
C2292 C 0.54485 0.82645 0.4483 0.0
C2293 C 0.54735 0.79555 0.43767 0.0
C2294 C 0.54188 0.84697 0.42825 0.0
C2295 C 0.55698 0.86755 0.4206 0.0
C2296 C 0.52732 0.8137 0.42125 0.0
C2297 C 0.53591 0.91177 0.43522 0.0
C2298 C 0.53743 0.89836 0.44677 0.0
C2299 C 0.53297 0.95067 0.45488 0.0
C2300 C 0.52747 0.01958 0.45108 0.0
C2301 C 0.52677 0.03582 0.43928 0.0
C2302 C 0.53062 0.98038 0.43129 0.0
H2303 H 0.20348 0.0481 0.42736 0.0
H2304 H 0.18884 0.06044 0.46289 0.0
H2305 H 0.20164 0.93841 0.46633 0.0
H2306 H 0.19363 0.85863 0.42401 0.0
H2307 H 0.21087 0.84105 0.41433 0.0
H2308 H 0.20166 0.93111 0.41507 0.0
H2309 H 0.23133 0.98584 0.41926 0.0
H2310 H 0.24056 0.89553 0.41875 0.0
H2311 H 0.24336 0.95203 0.43121 0.0
H2312 H 0.21578 0.81507 0.46577 0.0
H2313 H 0.22592 0.69131 0.46075 0.0
H2314 H 0.23031 0.75787 0.42535 0.0
C2315 C 0.20307 0.02496 0.43585 0.0
C2316 C 0.19531 0.06309 0.44489 0.0
C2317 C 0.19468 0.03131 0.45587 0.0
C2318 C 0.20208 0.96266 0.45792 0.0
C2319 C 0.20988 0.92664 0.44885 0.0
C2320 C 0.21014 0.9561 0.43799 0.0
C2321 C 0.21805 0.90369 0.42954 0.0
C2322 C 0.20529 0.88235 0.42019 0.0
C2323 C 0.23429 0.93624 0.42439 0.0
C2324 C 0.22199 0.83967 0.4373 0.0
C2325 C 0.21752 0.8546 0.44845 0.0
C2326 C 0.21939 0.8028 0.45708 0.0
C2327 C 0.22529 0.73277 0.45415 0.0
C2328 C 0.22893 0.715 0.44265 0.0
C2329 C 0.22776 0.77003 0.43422 0.0
H2330 H 0.54953 0.02239 0.33227 0.0
H2331 H 0.56515 0.04215 0.29699 0.0
H2332 H 0.55142 0.92362 0.29259 0.0
H2333 H 0.55773 0.83199 0.33448 0.0
H2334 H 0.54008 0.81397 0.3438 0.0
H2335 H 0.54985 0.90302 0.34376 0.0
H2336 H 0.52064 0.96199 0.33951 0.0
H2337 H 0.51086 0.87264 0.3393 0.0
H2338 H 0.50881 0.93272 0.32718 0.0
H2339 H 0.53696 0.80231 0.29217 0.0
H2340 H 0.52705 0.67706 0.29631 0.0
H2341 H 0.52126 0.73505 0.332 0.0
C2342 C 0.54995 0.0016 0.32363 0.0
C2343 C 0.5583 0.04072 0.31495 0.0
C2344 C 0.55889 0.01212 0.30375 0.0
C2345 C 0.55094 0.94559 0.30115 0.0
C2346 C 0.54255 0.9086 0.30986 0.0
C2347 C 0.54225 0.9349 0.32091 0.0
C2348 C 0.53377 0.88121 0.3289 0.0
C2349 C 0.5461 0.85604 0.33828 0.0
C2350 C 0.51755 0.91412 0.33402 0.0
C2351 C 0.52971 0.81983 0.32066 0.0
C2352 C 0.53452 0.8375 0.30967 0.0
C2353 C 0.53303 0.78789 0.30071 0.0
C2354 C 0.52732 0.71692 0.30315 0.0
C2355 C 0.52347 0.69612 0.31449 0.0
C2356 C 0.52396 0.74937 0.32323 0.0
H2357 H 0.19316 0.73663 0.33193 0.0
H2358 H 0.18757 0.71777 0.29531 0.0
H2359 H 0.2013 0.83892 0.29283 0.0
H2360 H 0.18342 0.92901 0.33321 0.0
H2361 H 0.19808 0.94652 0.34466 0.0
H2362 H 0.18848 0.85752 0.34326 0.0
H2363 H 0.21838 0.79855 0.34285 0.0
H2364 H 0.22806 0.88776 0.34397 0.0
H2365 H 0.23349 0.828 0.33229 0.0
H2366 H 0.21581 0.96063 0.29443 0.0
H2367 H 0.22531 0.0843 0.29998 0.0
H2368 H 0.22068 0.02437 0.33567 0.0
C2369 C 0.19477 0.75857 0.32342 0.0
C2370 C 0.18939 0.71891 0.3138 0.0
C2371 C 0.19153 0.74847 0.30276 0.0
C2372 C 0.19948 0.81646 0.30128 0.0
C2373 C 0.20504 0.85377 0.31095 0.0
C2374 C 0.20246 0.82662 0.32181 0.0
C2375 C 0.20853 0.87975 0.3308 0.0
C2376 C 0.19375 0.90469 0.33843 0.0
C2377 C 0.22297 0.84651 0.3379 0.0
C2378 C 0.21483 0.94136 0.32331 0.0
C2379 C 0.21301 0.92473 0.31188 0.0
C2380 C 0.21733 0.97434 0.30335 0.0
C2381 C 0.22283 0.0443 0.30659 0.0
C2382 C 0.22366 0.06404 0.31827 0.0
C2383 C 0.22027 0.01079 0.32669 0.0
H2384 H 0.97862 0.50308 0.58339 0.0
H2385 H 0.97288 0.4383 0.548 0.0
H2386 H 0.96212 0.56176 0.54337 0.0
H2387 H 0.94185 0.6022 0.58562 0.0
H2388 H 0.95012 0.67452 0.59449 0.0
H2389 H 0.9596 0.58488 0.59489 0.0
H2390 H 0.9889 0.64011 0.58992 0.0
H2391 H 0.97961 0.73036 0.58977 0.0
H2392 H 0.99105 0.69756 0.5775 0.0
H2393 H 0.94789 0.685 0.54322 0.0
H2394 H 0.9354 0.80712 0.54696 0.0
H2395 H 0.95146 0.79365 0.58222 0.0
C2396 C 0.97562 0.5156 0.57459 0.0
C2397 C 0.97664 0.46112 0.56605 0.0
C2398 C 0.9724 0.47934 0.55467 0.0
C2399 C 0.96615 0.5492 0.55197 0.0
C2400 C 0.96452 0.60049 0.5607 0.0
C2401 C 0.96955 0.58525 0.57173 0.0
C2402 C 0.96585 0.64896 0.57964 0.0
C2403 C 0.95363 0.62624 0.58922 0.0
C2404 C 0.98234 0.68116 0.58449 0.0
C2405 C 0.9575 0.70156 0.57141 0.0
C2406 C 0.95678 0.67244 0.56054 0.0
C2407 C 0.94867 0.70893 0.55165 0.0
C2408 C 0.94146 0.77771 0.55387 0.0
C2409 C 0.94256 0.80936 0.56485 0.0
C2410 C 0.95062 0.77068 0.57372 0.0
H2411 H 0.29909 0.45357 0.58277 0.0
H2412 H 0.31705 0.43995 0.54794 0.0
H2413 H 0.30469 0.56185 0.54386 0.0
H2414 H 0.25967 0.54955 0.57705 0.0
H2415 H 0.26122 0.60661 0.58955 0.0
H2416 H 0.27051 0.51635 0.58955 0.0
H2417 H 0.29967 0.57154 0.595 0.0
H2418 H 0.29039 0.66159 0.59521 0.0
H2419 H 0.30855 0.64363 0.58635 0.0
H2420 H 0.29059 0.68552 0.54367 0.0
H2421 H 0.27972 0.80921 0.54807 0.0
H2422 H 0.27183 0.74394 0.58323 0.0
C2423 C 0.30032 0.47632 0.57428 0.0
C2424 C 0.30891 0.43769 0.56564 0.0
C2425 C 0.31057 0.46925 0.55468 0.0
C2426 C 0.30344 0.53793 0.55226 0.0
C2427 C 0.29483 0.57445 0.56094 0.0
C2428 C 0.29349 0.5453 0.57178 0.0
C2429 C 0.28474 0.59815 0.5798 0.0
C2430 C 0.26804 0.56571 0.58425 0.0
C2431 C 0.29654 0.62003 0.58967 0.0
C2432 C 0.28155 0.6619 0.57181 0.0
C2433 C 0.28716 0.64659 0.56091 0.0
C2434 C 0.28608 0.69805 0.55216 0.0
C2435 C 0.27975 0.76804 0.55472 0.0
C2436 C 0.27485 0.78618 0.56599 0.0
C2437 C 0.27532 0.73152 0.57452 0.0
H2438 H 0.94285 0.49073 0.70214 0.0
H2439 H 0.96254 0.40493 0.67032 0.0
H2440 H 0.97804 0.52025 0.66706 0.0
H2441 H 0.93641 0.67525 0.69158 0.0
H2442 H 0.94208 0.71819 0.70488 0.0
H2443 H 0.93297 0.62771 0.70485 0.0
H2444 H 0.95882 0.57952 0.71623 0.0
H2445 H 0.96815 0.6697 0.71611 0.0
H2446 H 0.97983 0.59256 0.7106 0.0
H2447 H 0.99147 0.64353 0.6672 0.0
H2448 H 0.99892 0.77409 0.66941 0.0
H2449 H 0.97015 0.78219 0.70093 0.0
C2450 C 0.95035 0.49666 0.69447 0.0
C2451 C 0.95193 0.43833 0.68664 0.0
C2452 C 0.96167 0.44807 0.67662 0.0
C2453 C 0.97048 0.51342 0.67468 0.0
C2454 C 0.96925 0.56887 0.68277 0.0
C2455 C 0.95921 0.56189 0.69237 0.0
C2456 C 0.9595 0.63153 0.69941 0.0
C2457 C 0.94168 0.66516 0.70023 0.0
C2458 C 0.96703 0.61745 0.71129 0.0
C2459 C 0.97119 0.67859 0.69223 0.0
C2460 C 0.9768 0.64101 0.68274 0.0
C2461 C 0.9872 0.67364 0.67461 0.0
C2462 C 0.99143 0.74772 0.67597 0.0
C2463 C 0.98519 0.78837 0.68535 0.0
C2464 C 0.97536 0.75248 0.69375 0.0
H2465 H 0.31225 0.76668 0.67882 0.0
H2466 H 0.3099 0.78671 0.71558 0.0
H2467 H 0.29588 0.66534 0.71679 0.0
H2468 H 0.27252 0.67589 0.67464 0.0
H2469 H 0.28027 0.61562 0.66364 0.0
H2470 H 0.28976 0.7046 0.66562 0.0
H2471 H 0.31936 0.64491 0.66815 0.0
H2472 H 0.31002 0.55613 0.66586 0.0
H2473 H 0.32212 0.57349 0.67861 0.0
H2474 H 0.28174 0.5439 0.71387 0.0
H2475 H 0.27322 0.42051 0.70752 0.0
H2476 H 0.28554 0.47924 0.67262 0.0
C2477 C 0.30891 0.74482 0.68711 0.0
C2478 C 0.3121 0.78491 0.69712 0.0
C2479 C 0.30765 0.75563 0.70786 0.0
C2480 C 0.29952 0.68753 0.7086 0.0
C2481 C 0.29612 0.64989 0.69852 0.0
C2482 C 0.30101 0.67671 0.688 0.0
C2483 C 0.29684 0.62351 0.67854 0.0
C2484 C 0.28409 0.65692 0.67011 0.0
C2485 C 0.31305 0.59798 0.67244 0.0
C2486 C 0.28891 0.56228 0.68538 0.0
C2487 C 0.28833 0.57913 0.69686 0.0
C2488 C 0.28212 0.52998 0.70491 0.0
C2489 C 0.2772 0.46019 0.7012 0.0
C2490 C 0.27881 0.44017 0.68957 0.0
C2491 C 0.28408 0.49302 0.68154 0.0
H2492 H 0.04636 0.22932 0.42578 0.0
H2493 H 0.05951 0.20562 0.46145 0.0
H2494 H 0.04475 0.32166 0.46584 0.0
H2495 H 0.05429 0.41743 0.4244 0.0
H2496 H 0.03734 0.43739 0.41459 0.0
H2497 H 0.04683 0.34788 0.4147 0.0
H2498 H 0.01718 0.29011 0.41792 0.0
H2499 H 0.00769 0.38001 0.41807 0.0
H2500 H 0.00463 0.31878 0.42995 0.0
H2501 H 0.03088 0.44298 0.46615 0.0
H2502 H 0.02291 0.57075 0.46201 0.0
H2503 H 0.01899 0.51762 0.42604 0.0
C2504 C 0.04592 0.24858 0.43451 0.0
C2505 C 0.05397 0.20934 0.4433 0.0
C2506 C 0.05348 0.23585 0.45461 0.0
C2507 C 0.04492 0.30086 0.4572 0.0
C2508 C 0.03698 0.3384 0.44836 0.0
C2509 C 0.0376 0.31387 0.43721 0.0
C2510 C 0.02984 0.36897 0.42913 0.0
C2511 C 0.04285 0.39444 0.42019 0.0
C2512 C 0.01389 0.33757 0.42343 0.0
C2513 C 0.02541 0.42963 0.43741 0.0
C2514 C 0.02918 0.40987 0.4485 0.0
C2515 C 0.02766 0.4589 0.45754 0.0
C2516 C 0.0231 0.53131 0.4551 0.0
C2517 C 0.02037 0.55396 0.44371 0.0
C2518 C 0.0207 0.50157 0.43485 0.0
H2519 H 0.69003 0.48089 0.45001 0.0
H2520 H 0.71721 0.55104 0.4198 0.0
H2521 H 0.73335 0.43513 0.41986 0.0
H2522 H 0.72434 0.38561 0.46376 0.0
H2523 H 0.71116 0.31194 0.46887 0.0
H2524 H 0.70231 0.40205 0.46683 0.0
H2525 H 0.67929 0.34857 0.45339 0.0
H2526 H 0.68783 0.25832 0.45562 0.0
H2527 H 0.68563 0.29364 0.44136 0.0
H2528 H 0.74604 0.31068 0.42301 0.0
H2529 H 0.75135 0.18021 0.42729 0.0
H2530 H 0.71563 0.19191 0.45537 0.0
C2531 C 0.69934 0.47171 0.44338 0.0
C2532 C 0.70274 0.52558 0.43508 0.0
C2533 C 0.71485 0.51141 0.42647 0.0
C2534 C 0.72405 0.44576 0.42642 0.0
C2535 C 0.72084 0.39482 0.43499 0.0
C2536 C 0.70856 0.40649 0.44319 0.0
C2537 C 0.70679 0.34117 0.45102 0.0
C2538 C 0.71143 0.36144 0.46335 0.0
C2539 C 0.68883 0.3085 0.45029 0.0
C2540 C 0.71983 0.29049 0.44584 0.0
C2541 C 0.72797 0.32274 0.4367 0.0
C2542 C 0.73984 0.2849 0.43019 0.0
C2543 C 0.74285 0.21094 0.43273 0.0
C2544 C 0.73388 0.17582 0.44164 0.0
C2545 C 0.72279 0.21724 0.44855 0.0
H2546 H 0.03084 0.21805 0.33408 0.0
H2547 H 0.03351 0.14906 0.29873 0.0
H2548 H 0.04396 0.27178 0.29333 0.0
H2549 H 0.0179 0.41145 0.3281 0.0
H2550 H 0.03035 0.44592 0.33981 0.0
H2551 H 0.02115 0.35559 0.34059 0.0
H2552 H 0.05087 0.30132 0.34459 0.0
H2553 H 0.06023 0.39103 0.34357 0.0
H2554 H 0.06779 0.31777 0.3346 0.0
H2555 H 0.05814 0.3953 0.29227 0.0
H2556 H 0.07077 0.51828 0.29518 0.0
H2557 H 0.05767 0.50868 0.33101 0.0
C2558 C 0.0331 0.2295 0.32515 0.0
C2559 C 0.03129 0.17407 0.31682 0.0
C2560 C 0.03458 0.19087 0.30524 0.0
C2561 C 0.04066 0.2603 0.30211 0.0
C2562 C 0.04306 0.31261 0.31061 0.0
C2563 C 0.03896 0.29872 0.32186 0.0
C2564 C 0.04328 0.36345 0.32942 0.0
C2565 C 0.02721 0.39603 0.33479 0.0
C2566 C 0.05632 0.34207 0.33858 0.0
C2567 C 0.05088 0.41512 0.32073 0.0
C2568 C 0.05073 0.38465 0.30994 0.0
C2569 C 0.05804 0.42025 0.30064 0.0
C2570 C 0.06533 0.48954 0.30238 0.0
C2571 C 0.06507 0.52251 0.31329 0.0
C2572 C 0.05783 0.48469 0.32257 0.0
H2573 H 0.69061 0.26283 0.30439 0.0
H2574 H 0.7066 0.17557 0.33703 0.0
H2575 H 0.72164 0.29084 0.34125 0.0
H2576 H 0.72844 0.36408 0.29804 0.0
H2577 H 0.71757 0.4417 0.29197 0.0
H2578 H 0.70813 0.35183 0.29129 0.0
H2579 H 0.68108 0.4004 0.30132 0.0
H2580 H 0.69033 0.49057 0.30174 0.0
H2581 H 0.68304 0.44812 0.31471 0.0
H2582 H 0.73504 0.414 0.34195 0.0
H2583 H 0.74287 0.54447 0.34022 0.0
H2584 H 0.71795 0.55358 0.30725 0.0
C2585 C 0.69717 0.26857 0.31245 0.0
C2586 C 0.69789 0.20998 0.32027 0.0
C2587 C 0.70644 0.21914 0.33077 0.0
C2588 C 0.71496 0.28441 0.33326 0.0
C2589 C 0.71463 0.34023 0.3252 0.0
C2590 C 0.70572 0.33373 0.3151 0.0
C2591 C 0.70692 0.40345 0.30813 0.0
C2592 C 0.71579 0.38939 0.29668 0.0
C2593 C 0.6893 0.43764 0.30638 0.0
C2594 C 0.7178 0.44998 0.31594 0.0
C2595 C 0.72223 0.41213 0.32568 0.0
C2596 C 0.7317 0.44434 0.33436 0.0
C2597 C 0.73616 0.51834 0.33327 0.0
C2598 C 0.73109 0.55922 0.3236 0.0
C2599 C 0.72225 0.52369 0.31468 0.0
H2600 H 0.97079 0.97014 0.05325 0.0
H2601 H 0.00311 0.95926 0.08314 0.0
H2602 H 0.99748 0.09004 0.08698 0.0
H2603 H 0.98066 0.1639 0.04519 0.0
H2604 H 0.95907 0.17988 0.04088 0.0
H2605 H 0.96819 0.0898 0.03943 0.0
H2606 H 0.94343 0.0363 0.05131 0.0
H2607 H 0.93449 0.12621 0.05311 0.0
H2608 H 0.9395 0.07133 0.06542 0.0
H2609 H 0.98445 0.21443 0.08938 0.0
H2610 H 0.96823 0.33001 0.08859 0.0
H2611 H 0.94469 0.25921 0.05705 0.0
C2612 C 0.97718 0.99575 0.06038 0.0
C2613 C 0.98736 0.95447 0.06791 0.0
C2614 C 0.99534 0.9899 0.07722 0.0
C2615 C 0.99213 0.06406 0.07951 0.0
C2616 C 0.98111 0.1018 0.07233 0.0
C2617 C 0.97405 0.06931 0.06281 0.0
C2618 C 0.96162 0.11984 0.05695 0.0
C2619 C 0.96776 0.13954 0.0449 0.0
C2620 C 0.94371 0.08641 0.05669 0.0
C2621 C 0.96245 0.1852 0.06483 0.0
C2622 C 0.97377 0.17384 0.07364 0.0
C2623 C 0.97593 0.22486 0.08234 0.0
C2624 C 0.96669 0.29032 0.08181 0.0
C2625 C 0.9556 0.30421 0.07259 0.0
C2626 C 0.95322 0.25025 0.06414 0.0
H2627 H 0.30949 0.00527 0.05731 0.0
H2628 H 0.28428 0.93148 0.08807 0.0
H2629 H 0.2679 0.04662 0.08871 0.0
H2630 H 0.31413 0.19104 0.06622 0.0
H2631 H 0.31099 0.22797 0.05214 0.0
H2632 H 0.31969 0.13756 0.05386 0.0
H2633 H 0.29579 0.08556 0.04097 0.0
H2634 H 0.28679 0.17584 0.03947 0.0
H2635 H 0.27399 0.10144 0.04476 0.0
H2636 H 0.25506 0.17103 0.08637 0.0
H2637 H 0.24986 0.30255 0.08287 0.0
H2638 H 0.28348 0.29448 0.05363 0.0
C2639 C 0.30054 0.01355 0.06418 0.0
C2640 C 0.29777 0.95902 0.07247 0.0
C2641 C 0.28614 0.97181 0.08143 0.0
C2642 C 0.27679 0.03693 0.08186 0.0
C2643 C 0.27935 0.08863 0.07331 0.0
C2644 C 0.29114 0.07822 0.06475 0.0
C2645 C 0.29237 0.14448 0.05708 0.0
C2646 C 0.31035 0.17719 0.05735 0.0
C2647 C 0.2869 0.12567 0.04485 0.0
C2648 C 0.27967 0.19432 0.0628 0.0
C2649 C 0.27209 0.16077 0.07204 0.0
C2650 C 0.26078 0.19783 0.0791 0.0
C2651 C 0.25782 0.27239 0.077 0.0
C2652 C 0.26631 0.30875 0.06801 0.0
C2653 C 0.27672 0.26814 0.06053 0.0
H2654 H 0.94436 0.96284 0.1786 0.0
H2655 H 0.93952 0.95505 0.21535 0.0
H2656 H 0.95215 0.07933 0.21675 0.0
H2657 H 0.98362 0.06106 0.17705 0.0
H2658 H 0.97739 0.116 0.16499 0.0
H2659 H 0.96852 0.02581 0.16692 0.0
H2660 H 0.93816 0.07996 0.1664 0.0
H2661 H 0.94695 0.16994 0.16424 0.0
H2662 H 0.93272 0.15365 0.17597 0.0
H2663 H 0.96601 0.20293 0.21402 0.0
H2664 H 0.97555 0.32455 0.2074 0.0
H2665 H 0.96986 0.25345 0.17231 0.0
C2666 C 0.94593 0.98772 0.18692 0.0
C2667 C 0.94107 0.95012 0.19688 0.0
C2668 C 0.9431 0.98383 0.20764 0.0
C2669 C 0.9504 0.05382 0.20851 0.0
C2670 C 0.95535 0.08923 0.19851 0.0
C2671 C 0.95287 0.05794 0.18791 0.0
C2672 C 0.95827 0.10923 0.17845 0.0
C2673 C 0.97282 0.07602 0.17144 0.0
C2674 C 0.94312 0.1294 0.17082 0.0
C2675 C 0.96423 0.17433 0.18537 0.0
C2676 C 0.96272 0.16126 0.19693 0.0
C2677 C 0.96723 0.21381 0.205 0.0
C2678 C 0.97279 0.28256 0.20114 0.0
C2679 C 0.9735 0.29842 0.18933 0.0
C2680 C 0.96956 0.24279 0.18138 0.0
H2681 H 0.29994 0.28693 0.17658 0.0
H2682 H 0.31434 0.29777 0.21217 0.0
H2683 H 0.30189 0.17473 0.21537 0.0
H2684 H 0.26041 0.18933 0.18011 0.0
H2685 H 0.26335 0.13343 0.16759 0.0
H2686 H 0.27252 0.22384 0.16824 0.0
H2687 H 0.30226 0.16975 0.16412 0.0
H2688 H 0.29312 0.07956 0.16326 0.0
H2689 H 0.31026 0.097 0.17302 0.0
H2690 H 0.28773 0.05114 0.21463 0.0
H2691 H 0.27721 0.9281 0.20948 0.0
H2692 H 0.27327 0.99597 0.17412 0.0
C2693 C 0.30041 0.26317 0.18503 0.0
C2694 C 0.30797 0.30128 0.19416 0.0
C2695 C 0.30865 0.26873 0.20508 0.0
C2696 C 0.30146 0.19944 0.20699 0.0
C2697 C 0.29384 0.16349 0.19784 0.0
C2698 C 0.29357 0.19364 0.18703 0.0
C2699 C 0.28576 0.14145 0.17849 0.0
C2700 C 0.26955 0.17398 0.1733 0.0
C2701 C 0.29862 0.1207 0.16918 0.0
C2702 C 0.2818 0.07696 0.18616 0.0
C2703 C 0.28624 0.09131 0.19733 0.0
C2704 C 0.28417 0.03929 0.20591 0.0
C2705 C 0.27804 0.9697 0.20291 0.0
C2706 C 0.27437 0.95251 0.1914 0.0
C2707 C 0.27584 0.00768 0.18301 0.0
H2708 H 0.01939 0.02089 0.92722 0.0
H2709 H 0.02753 0.07432 0.96286 0.0
H2710 H 0.03667 0.94738 0.96648 0.0
H2711 H 0.00632 0.82148 0.93194 0.0
H2712 H 0.0173 0.79387 0.91918 0.0
H2713 H 0.00761 0.88323 0.91998 0.0
H2714 H 0.0364 0.94222 0.91475 0.0
H2715 H 0.04635 0.85367 0.91429 0.0
H2716 H 0.05466 0.92397 0.92353 0.0
H2717 H 0.05078 0.82645 0.96538 0.0
H2718 H 0.0648 0.70998 0.96021 0.0
H2719 H 0.0472 0.73335 0.92541 0.0
C2720 C 0.02232 0.00507 0.9359 0.0
C2721 C 0.02282 0.05746 0.94475 0.0
C2722 C 0.02707 0.035 0.95595 0.0
C2723 C 0.0323 0.96303 0.95809 0.0
C2724 C 0.03291 0.91415 0.94899 0.0
C2725 C 0.02759 0.93344 0.93817 0.0
C2726 C 0.03118 0.87299 0.92965 0.0
C2727 C 0.01462 0.84098 0.92491 0.0
C2728 C 0.04284 0.89987 0.91999 0.0
C2729 C 0.04013 0.81851 0.93725 0.0
C2730 C 0.04089 0.84313 0.94839 0.0
C2731 C 0.04989 0.80562 0.95676 0.0
C2732 C 0.05801 0.74032 0.95372 0.0
C2733 C 0.057 0.71345 0.94244 0.0
C2734 C 0.04796 0.75287 0.93412 0.0
H2735 H 0.71521 0.70317 0.95302 0.0
H2736 H 0.75019 0.70497 0.92447 0.0
H2737 H 0.74326 0.83473 0.92088 0.0
H2738 H 0.68374 0.80641 0.94033 0.0
H2739 H 0.67776 0.85743 0.95285 0.0
H2740 H 0.68691 0.76755 0.95429 0.0
H2741 H 0.71059 0.81892 0.96726 0.0
H2742 H 0.70133 0.90891 0.96614 0.0
H2743 H 0.72322 0.89511 0.9624 0.0
H2744 H 0.72986 0.95799 0.91878 0.0
H2745 H 0.71381 0.07356 0.91997 0.0
H2746 H 0.68816 0.9943 0.95025 0.0
C2747 C 0.72182 0.73135 0.94623 0.0
C2748 C 0.73328 0.69372 0.93903 0.0
C2749 C 0.74142 0.73254 0.93012 0.0
C2750 C 0.73751 0.80622 0.92798 0.0
C2751 C 0.72555 0.84052 0.93488 0.0
C2752 C 0.71807 0.80496 0.94397 0.0
C2753 C 0.70511 0.8536 0.94978 0.0
C2754 C 0.68733 0.81919 0.94927 0.0
C2755 C 0.71038 0.87012 0.96213 0.0
C2756 C 0.70623 0.92151 0.94238 0.0
C2757 C 0.71808 0.91262 0.93383 0.0
C2758 C 0.72089 0.96639 0.92562 0.0
C2759 C 0.71176 0.03202 0.9264 0.0
C2760 C 0.70016 0.04388 0.93541 0.0
C2761 C 0.69709 0.98707 0.94333 0.0
H2762 H 0.03044 0.70497 0.83525 0.0
H2763 H 0.02807 0.64424 0.7995 0.0
H2764 H 0.03778 0.76796 0.79417 0.0
H2765 H 0.01765 0.90142 0.83132 0.0
H2766 H 0.03197 0.93101 0.84236 0.0
H2767 H 0.02225 0.84174 0.84317 0.0
H2768 H 0.05204 0.78306 0.84489 0.0
H2769 H 0.06189 0.87167 0.84374 0.0
H2770 H 0.06752 0.79975 0.8339 0.0
H2771 H 0.05236 0.88962 0.79291 0.0
H2772 H 0.06603 0.01059 0.79572 0.0
H2773 H 0.05812 0.99272 0.83216 0.0
C2774 C 0.03138 0.71843 0.82629 0.0
C2775 C 0.02857 0.66491 0.81781 0.0
C2776 C 0.03008 0.68444 0.80616 0.0
C2777 C 0.0357 0.75446 0.80304 0.0
C2778 C 0.03941 0.80439 0.81166 0.0
C2779 C 0.03687 0.78804 0.82303 0.0
C2780 C 0.04272 0.84991 0.83066 0.0
C2781 C 0.02776 0.88299 0.83727 0.0
C2782 C 0.05688 0.82453 0.83877 0.0
C2783 C 0.0494 0.90266 0.82182 0.0
C2784 C 0.04746 0.8753 0.81091 0.0
C2785 C 0.05366 0.91228 0.80139 0.0
C2786 C 0.06158 0.98018 0.80306 0.0
C2787 C 0.06305 0.00999 0.81414 0.0
C2788 C 0.05703 0.97064 0.82362 0.0
H2789 H 0.71688 0.04268 0.8066 0.0
H2790 H 0.74846 0.03666 0.83689 0.0
H2791 H 0.74109 0.90659 0.83969 0.0
H2792 H 0.68405 0.93653 0.81742 0.0
H2793 H 0.67946 0.88855 0.80436 0.0
H2794 H 0.68869 0.97878 0.80388 0.0
H2795 H 0.71369 0.92881 0.79179 0.0
H2796 H 0.70436 0.83865 0.79215 0.0
H2797 H 0.72579 0.852 0.797 0.0
H2798 H 0.72747 0.78375 0.84073 0.0
H2799 H 0.71156 0.66854 0.83842 0.0
H2800 H 0.68943 0.75092 0.80711 0.0
C2801 C 0.72269 0.01345 0.81361 0.0
C2802 C 0.73331 0.04996 0.82151 0.0
C2803 C 0.74036 0.00993 0.83071 0.0
C2804 C 0.73619 0.93606 0.8324 0.0
C2805 C 0.72507 0.90279 0.82478 0.0
C2806 C 0.71867 0.93956 0.81543 0.0
C2807 C 0.70637 0.89172 0.80884 0.0
C2808 C 0.68859 0.92598 0.80861 0.0
C2809 C 0.71295 0.87691 0.79673 0.0
C2810 C 0.70666 0.82279 0.81605 0.0
C2811 C 0.71749 0.83067 0.82522 0.0
C2812 C 0.7193 0.77615 0.83342 0.0
C2813 C 0.71025 0.71079 0.83201 0.0
C2814 C 0.6997 0.69998 0.8224 0.0
C2815 C 0.69757 0.75748 0.81447 0.0
H2816 H 0.33539 0.39155 0.06753 0.0
H2817 H 0.35688 0.60877 0.06267 0.0
H2818 H 0.38529 0.55432 0.06117 0.0
H2819 H 0.36892 0.32224 0.08499 0.0
H2820 H 0.36842 0.23101 0.07908 0.0
H2821 H 0.34948 0.2859 0.07925 0.0
H2822 H 0.34638 0.2695 0.05746 0.0
H2823 H 0.36532 0.21451 0.05719 0.0
H2824 H 0.36369 0.2945 0.04824 0.0
H2825 H 0.41098 0.47947 0.06045 0.0
H2826 H 0.43357 0.38845 0.06136 0.0
H2827 H 0.39642 0.21611 0.06711 0.0
C2828 C 0.34607 0.42763 0.06608 0.0
C2829 C 0.34387 0.50463 0.06518 0.0
C2830 C 0.3582 0.54984 0.0634 0.0
C2831 C 0.37439 0.51938 0.06249 0.0
C2832 C 0.3761 0.4436 0.06342 0.0
C2833 C 0.36241 0.39811 0.06523 0.0
C2834 C 0.36801 0.31859 0.06632 0.0
C2835 C 0.36344 0.28764 0.07811 0.0
C2836 C 0.3604 0.27151 0.05673 0.0
C2837 C 0.38704 0.32685 0.06493 0.0
C2838 C 0.39126 0.3996 0.06319 0.0
C2839 C 0.40788 0.42234 0.06181 0.0
C2840 C 0.42064 0.36971 0.06238 0.0
C2841 C 0.41687 0.29455 0.06437 0.0
C2842 C 0.39975 0.27282 0.06555 0.0
H2843 H 0.85889 0.04879 0.06497 0.0
H2844 H 0.82115 0.87885 0.05935 0.0
H2845 H 0.84353 0.78697 0.05771 0.0
H2846 H 0.89093 0.97113 0.04541 0.0
H2847 H 0.90848 0.99489 0.05451 0.0
H2848 H 0.8896 0.05034 0.05456 0.0
H2849 H 0.88686 0.03233 0.07637 0.0
H2850 H 0.90572 0.97695 0.07636 0.0
H2851 H 0.8863 0.94072 0.08214 0.0
H2852 H 0.86915 0.71076 0.05797 0.0
H2853 H 0.89746 0.65495 0.05954 0.0
H2854 H 0.91937 0.87113 0.06462 0.0
C2855 C 0.85539 0.99246 0.06324 0.0
C2856 C 0.83818 0.97151 0.06234 0.0
C2857 C 0.83416 0.89682 0.06017 0.0
C2858 C 0.8468 0.84381 0.05918 0.0
C2859 C 0.86352 0.86573 0.06031 0.0
C2860 C 0.86796 0.9381 0.06222 0.0
C2861 C 0.88702 0.9454 0.06347 0.0
C2862 C 0.89444 0.99328 0.05392 0.0
C2863 C 0.89175 0.97562 0.07529 0.0
C2864 C 0.8924 0.8658 0.06217 0.0
C2865 C 0.8786 0.82103 0.06031 0.0
C2866 C 0.88013 0.74518 0.0593 0.0
C2867 C 0.89626 0.71394 0.06024 0.0
C2868 C 0.91066 0.75848 0.06214 0.0
C2869 C 0.90865 0.83555 0.06303 0.0
H2870 H 0.35503 0.71667 0.19112 0.0
H2871 H 0.31646 0.88613 0.19365 0.0
H2872 H 0.33843 0.98035 0.19438 0.0
H2873 H 0.38544 0.8046 0.21016 0.0
H2874 H 0.40364 0.77798 0.20187 0.0
H2875 H 0.3849 0.72166 0.2018 0.0
H2876 H 0.38363 0.73045 0.17979 0.0
H2877 H 0.40235 0.78681 0.17983 0.0
H2878 H 0.38328 0.81941 0.17309 0.0
H2879 H 0.36397 0.05784 0.19444 0.0
H2880 H 0.39228 0.11433 0.19387 0.0
H2881 H 0.41499 0.89782 0.19138 0.0
C2882 C 0.35124 0.77351 0.19188 0.0
C2883 C 0.33393 0.7934 0.19231 0.0
C2884 C 0.32956 0.86876 0.19327 0.0
C2885 C 0.34197 0.92317 0.19372 0.0
C2886 C 0.35882 0.90199 0.19321 0.0
C2887 C 0.36357 0.82921 0.19233 0.0
C2888 C 0.38272 0.82252 0.19177 0.0
C2889 C 0.38957 0.77913 0.20202 0.0
C2890 C 0.38832 0.78775 0.18044 0.0
C2891 C 0.38781 0.9028 0.19242 0.0
C2892 C 0.37378 0.94746 0.19326 0.0
C2893 C 0.37511 0.02356 0.19381 0.0
C2894 C 0.39126 0.05516 0.19347 0.0
C2895 C 0.4059 0.01076 0.19259 0.0
C2896 C 0.40408 0.93343 0.1921 0.0
H2897 H 0.83551 0.34315 0.19471 0.0
H2898 H 0.85937 0.12847 0.19382 0.0
H2899 H 0.88742 0.18745 0.19413 0.0
H2900 H 0.86459 0.43208 0.17629 0.0
H2901 H 0.86457 0.51801 0.18389 0.0
H2902 H 0.84621 0.4596 0.18433 0.0
H2903 H 0.84738 0.45813 0.20638 0.0
H2904 H 0.86564 0.51729 0.20598 0.0
H2905 H 0.86664 0.43097 0.21344 0.0
H2906 H 0.91252 0.26728 0.1937 0.0
H2907 H 0.93391 0.36372 0.19272 0.0
H2908 H 0.89446 0.53005 0.19376 0.0
C2909 C 0.84663 0.30843 0.19471 0.0
C2910 C 0.84521 0.23093 0.19427 0.0
C2911 C 0.86009 0.18774 0.19417 0.0
C2912 C 0.8761 0.22075 0.19435 0.0
C2913 C 0.87702 0.29702 0.19465 0.0
C2914 C 0.86274 0.34052 0.19486 0.0
C2915 C 0.86741 0.42142 0.19481 0.0
C2916 C 0.86027 0.46002 0.18419 0.0
C2917 C 0.86141 0.45917 0.20581 0.0
C2918 C 0.88658 0.41641 0.19437 0.0
C2919 C 0.89173 0.34392 0.19435 0.0
C2920 C 0.90867 0.32424 0.19377 0.0
C2921 C 0.92074 0.37993 0.19318 0.0
C2922 C 0.91595 0.45509 0.19315 0.0
C2923 C 0.89857 0.47341 0.1938 0.0
H2924 H 0.64201 0.45322 0.93972 0.0
H2925 H 0.67912 0.61482 0.95072 0.0
H2926 H 0.65689 0.70689 0.95241 0.0
H2927 H 0.61733 0.57531 0.92287 0.0
H2928 H 0.59704 0.53766 0.92677 0.0
H2929 H 0.6156 0.48038 0.92701 0.0
H2930 H 0.60981 0.44786 0.94813 0.0
H2931 H 0.59118 0.50487 0.94792 0.0
H2932 H 0.60743 0.52051 0.95843 0.0
H2933 H 0.63206 0.78513 0.9516 0.0
H2934 H 0.60444 0.84534 0.94936 0.0
H2935 H 0.58199 0.6371 0.93953 0.0
C2936 C 0.64536 0.50766 0.94263 0.0
C2937 C 0.66242 0.52635 0.945 0.0
C2938 C 0.66626 0.59862 0.94873 0.0
C2939 C 0.6537 0.65175 0.94977 0.0
C2940 C 0.63719 0.63234 0.94715 0.0
C2941 C 0.63282 0.5622 0.94377 0.0
C2942 C 0.61396 0.55797 0.94122 0.0
C2943 C 0.61081 0.53657 0.92872 0.0
C2944 C 0.60507 0.50464 0.94942 0.0
C2945 C 0.60868 0.6369 0.94352 0.0
C2946 C 0.62238 0.67839 0.94693 0.0
C2947 C 0.62113 0.75325 0.94906 0.0
C2948 C 0.60539 0.78704 0.94771 0.0
C2949 C 0.59103 0.74602 0.94432 0.0
C2950 C 0.59271 0.66972 0.94226 0.0
H2951 H 0.14698 0.96713 0.94279 0.0
H2952 H 0.1847 0.13938 0.94651 0.0
H2953 H 0.16228 0.23154 0.94731 0.0
H2954 H 0.11893 0.06862 0.92482 0.0
H2955 H 0.09975 0.03401 0.93117 0.0
H2956 H 0.11869 0.97912 0.93134 0.0
H2957 H 0.11672 0.96854 0.95331 0.0
H2958 H 0.09774 0.02329 0.95319 0.0
H2959 H 0.11553 0.05075 0.96181 0.0
H2960 H 0.1365 0.30678 0.94678 0.0
H2961 H 0.10807 0.36123 0.94556 0.0
H2962 H 0.08619 0.14338 0.94256 0.0
C2963 C 0.15048 0.02412 0.94387 0.0
C2964 C 0.16769 0.0455 0.94456 0.0
C2965 C 0.17169 0.12097 0.94593 0.0
C2966 C 0.15902 0.17417 0.94641 0.0
C2967 C 0.14229 0.15158 0.94558 0.0
C2968 C 0.13789 0.07857 0.94441 0.0
C2969 C 0.1188 0.07033 0.94351 0.0
C2970 C 0.11375 0.036 0.93202 0.0
C2971 C 0.11179 0.02558 0.95356 0.0
C2972 C 0.11332 0.1501 0.94422 0.0
C2973 C 0.12714 0.19576 0.94542 0.0
C2974 C 0.12553 0.27171 0.94593 0.0
C2975 C 0.10931 0.30213 0.94519 0.0
C2976 C 0.09487 0.25673 0.94399 0.0
C2977 C 0.09695 0.17957 0.94356 0.0
H2978 H 0.6433 0.28691 0.81581 0.0
H2979 H 0.68217 0.11777 0.81674 0.0
H2980 H 0.66038 0.02313 0.81659 0.0
H2981 H 0.61357 0.19293 0.83407 0.0
H2982 H 0.59505 0.22027 0.82617 0.0
H2983 H 0.6136 0.2777 0.82616 0.0
H2984 H 0.61414 0.2739 0.80412 0.0
H2985 H 0.59566 0.21595 0.80407 0.0
H2986 H 0.61467 0.18658 0.79692 0.0
H2987 H 0.63544 0.94483 0.81664 0.0
H2988 H 0.60737 0.88644 0.81695 0.0
H2989 H 0.58369 0.10156 0.81584 0.0
C2990 C 0.6472 0.23 0.81594 0.0
C2991 C 0.66456 0.21056 0.81629 0.0
C2992 C 0.66906 0.13507 0.81647 0.0
C2993 C 0.65677 0.08026 0.81636 0.0
C2994 C 0.63992 0.10091 0.81604 0.0
C2995 C 0.63498 0.17363 0.81581 0.0
C2996 C 0.61578 0.17923 0.81556 0.0
C2997 C 0.60911 0.21993 0.82612 0.0
C2998 C 0.60971 0.2161 0.80451 0.0
C2999 C 0.61094 0.09845 0.81582 0.0
C3000 C 0.62514 0.05459 0.81606 0.0
C3001 C 0.62414 0.97838 0.81644 0.0
C3002 C 0.60813 0.9457 0.81662 0.0
C3003 C 0.59329 0.98913 0.81642 0.0
C3004 C 0.59478 0.06667 0.81598 0.0
H3005 H 0.08259 0.5907 0.81775 0.0
H3006 H 0.10789 0.38248 0.81179 0.0
H3007 H 0.13521 0.4463 0.81062 0.0
H3008 H 0.10927 0.70055 0.79891 0.0
H3009 H 0.10957 0.77915 0.80823 0.0
H3010 H 0.09158 0.71839 0.80821 0.0
H3011 H 0.0949 0.69895 0.82992 0.0
H3012 H 0.1129 0.75962 0.83004 0.0
H3013 H 0.11489 0.66773 0.83553 0.0
H3014 H 0.15951 0.52831 0.81058 0.0
H3015 H 0.18053 0.62582 0.81182 0.0
H3016 H 0.14065 0.78564 0.81798 0.0
C3017 C 0.09387 0.55869 0.81611 0.0
C3018 C 0.09306 0.48138 0.81485 0.0
C3019 C 0.10814 0.44151 0.81282 0.0
C3020 C 0.12374 0.47729 0.8121 0.0
C3021 C 0.12412 0.55307 0.81345 0.0
C3022 C 0.10968 0.59366 0.81542 0.0
C3023 C 0.11395 0.67453 0.81688 0.0
C3024 C 0.1056 0.72088 0.8075 0.0
C3025 C 0.10886 0.70178 0.8288 0.0
C3026 C 0.13309 0.67251 0.81551 0.0
C3027 C 0.13851 0.6016 0.81349 0.0
C3028 C 0.15546 0.58414 0.81212 0.0
C3029 C 0.16733 0.64041 0.81288 0.0
C3030 C 0.16233 0.71398 0.81504 0.0
C3031 C 0.14489 0.73025 0.81629 0.0
H3032 H 0.41594 0.83991 0.56569 0.0
H3033 H 0.39266 0.62582 0.56126 0.0
H3034 H 0.36464 0.68406 0.56011 0.0
H3035 H 0.38373 0.91362 0.58362 0.0
H3036 H 0.38455 0.00479 0.57771 0.0
H3037 H 0.40313 0.94759 0.57748 0.0
H3038 H 0.40532 0.96362 0.55562 0.0
H3039 H 0.38675 0.02102 0.55576 0.0
H3040 H 0.3874 0.94091 0.54677 0.0
H3041 H 0.33942 0.76208 0.56002 0.0
H3042 H 0.31754 0.85626 0.56138 0.0
H3043 H 0.35622 0.02332 0.56626 0.0
C3044 C 0.40496 0.80543 0.56435 0.0
C3045 C 0.40652 0.72817 0.56352 0.0
C3046 C 0.39181 0.68494 0.56193 0.0
C3047 C 0.37583 0.71754 0.56123 0.0
C3048 C 0.37471 0.79346 0.56217 0.0
C3049 C 0.3888 0.83712 0.56371 0.0
C3050 C 0.3838 0.91727 0.56493 0.0
C3051 C 0.38912 0.94757 0.57663 0.0
C3052 C 0.39126 0.96342 0.55519 0.0
C3053 C 0.36467 0.91142 0.56395 0.0
C3054 C 0.35985 0.83933 0.56227 0.0
C3055 C 0.343 0.81879 0.56129 0.0
C3056 C 0.33065 0.87314 0.5621 0.0
C3057 C 0.33508 0.94774 0.56395 0.0
C3058 C 0.3524 0.96707 0.56481 0.0
H3059 H 0.83512 0.39723 0.56574 0.0
H3060 H 0.85683 0.61582 0.5636 0.0
H3061 H 0.88541 0.56192 0.56304 0.0
H3062 H 0.86658 0.32219 0.58413 0.0
H3063 H 0.86679 0.23309 0.57748 0.0
H3064 H 0.84784 0.28793 0.57715 0.0
H3065 H 0.84712 0.27916 0.55516 0.0
H3066 H 0.86605 0.22409 0.55538 0.0
H3067 H 0.8654 0.30705 0.54704 0.0
H3068 H 0.91135 0.48661 0.5633 0.0
H3069 H 0.93372 0.39416 0.56429 0.0
H3070 H 0.8958 0.22164 0.56642 0.0
C3071 C 0.84587 0.43382 0.56505 0.0
C3072 C 0.8437 0.51096 0.56469 0.0
C3073 C 0.85813 0.55673 0.56389 0.0
C3074 C 0.87443 0.52661 0.56355 0.0
C3075 C 0.8761 0.45062 0.56403 0.0
C3076 C 0.86227 0.40466 0.56475 0.0
C3077 C 0.86772 0.32488 0.56546 0.0
C3078 C 0.86189 0.29 0.57673 0.0
C3079 C 0.86118 0.28124 0.55514 0.0
C3080 C 0.88683 0.33338 0.5651 0.0
C3081 C 0.89128 0.40653 0.56424 0.0
C3082 C 0.90805 0.42914 0.56393 0.0
C3083 C 0.92068 0.37577 0.56452 0.0
C3084 C 0.91659 0.30009 0.56544 0.0
C3085 C 0.89937 0.27878 0.5657 0.0
H3086 H 0.33299 0.36263 0.69027 0.0
H3087 H 0.35557 0.15912 0.70211 0.0
H3088 H 0.38277 0.22223 0.70475 0.0
H3089 H 0.36876 0.42252 0.67428 0.0
H3090 H 0.3664 0.51835 0.6777 0.0
H3091 H 0.34812 0.45937 0.67748 0.0
H3092 H 0.34098 0.49714 0.69815 0.0
H3093 H 0.35928 0.55613 0.6985 0.0
H3094 H 0.35666 0.486 0.70918 0.0
H3095 H 0.40734 0.30256 0.7056 0.0
H3096 H 0.42937 0.39571 0.70355 0.0
H3097 H 0.39218 0.55088 0.69072 0.0
C3098 C 0.34363 0.33164 0.69353 0.0
C3099 C 0.34211 0.25582 0.69603 0.0
C3100 C 0.35639 0.21701 0.70012 0.0
C3101 C 0.37189 0.25248 0.70171 0.0
C3102 C 0.37298 0.32684 0.69915 0.0
C3103 C 0.35935 0.36622 0.69508 0.0
C3104 C 0.36445 0.44489 0.69241 0.0
C3105 C 0.36178 0.46226 0.67971 0.0
C3106 C 0.35477 0.49924 0.70001 0.0
C3107 C 0.38316 0.44283 0.69546 0.0
C3108 C 0.38759 0.37411 0.69945 0.0
C3109 C 0.40406 0.35666 0.70252 0.0
C3110 C 0.41651 0.41023 0.70128 0.0
C3111 C 0.41257 0.48083 0.69693 0.0
C3112 C 0.39555 0.4978 0.69417 0.0
H3113 H 0.83556 0.84529 0.69193 0.0
H3114 H 0.85863 0.62963 0.69481 0.0
H3115 H 0.88679 0.68698 0.69553 0.0
H3116 H 0.86713 0.92342 0.67377 0.0
H3117 H 0.8667 0.01283 0.68032 0.0
H3118 H 0.84805 0.95601 0.6805 0.0
H3119 H 0.84675 0.96571 0.70247 0.0
H3120 H 0.86537 0.02282 0.70238 0.0
H3121 H 0.86498 0.94023 0.71082 0.0
H3122 H 0.91198 0.76413 0.69553 0.0
H3123 H 0.93403 0.85749 0.69453 0.0
H3124 H 0.89565 0.02762 0.69147 0.0
C3125 C 0.84653 0.81012 0.69278 0.0
C3126 C 0.84484 0.73269 0.69333 0.0
C3127 C 0.85954 0.68882 0.69437 0.0
C3128 C 0.87561 0.72092 0.6948 0.0
C3129 C 0.87681 0.79701 0.6942 0.0
C3130 C 0.86275 0.84133 0.6932 0.0
C3131 C 0.86783 0.92173 0.69245 0.0
C3132 C 0.86209 0.95546 0.68108 0.0
C3133 C 0.86082 0.96518 0.70264 0.0
C3134 C 0.887 0.91528 0.69305 0.0
C3135 C 0.89172 0.84259 0.69412 0.0
C3136 C 0.90852 0.82124 0.6947 0.0
C3137 C 0.92096 0.87526 0.69409 0.0
C3138 C 0.91668 0.95059 0.69286 0.0
C3139 C 0.89938 0.97083 0.69242 0.0
H3140 H 0.66606 0.09218 0.44413 0.0
H3141 H 0.6435 0.87477 0.44455 0.0
H3142 H 0.6151 0.93059 0.44518 0.0
H3143 H 0.6355 0.17966 0.46307 0.0
H3144 H 0.63548 0.26474 0.45525 0.0
H3145 H 0.65416 0.20811 0.45541 0.0
H3146 H 0.65418 0.20529 0.43339 0.0
H3147 H 0.63545 0.26153 0.43311 0.0
H3148 H 0.63556 0.17423 0.42591 0.0
H3149 H 0.58948 0.00779 0.44507 0.0
H3150 H 0.56751 0.10192 0.44408 0.0
H3151 H 0.6061 0.27216 0.44354 0.0
C3152 C 0.65516 0.0562 0.44447 0.0
C3153 C 0.65703 0.97888 0.44432 0.0
C3154 C 0.64242 0.93397 0.44466 0.0
C3155 C 0.62623 0.96519 0.44504 0.0
C3156 C 0.62486 0.04137 0.44508 0.0
C3157 C 0.63888 0.08646 0.44481 0.0
C3158 C 0.63375 0.16676 0.44452 0.0
C3159 C 0.6401 0.20719 0.4552 0.0
C3160 C 0.64011 0.20412 0.43358 0.0
C3161 C 0.61461 0.15959 0.44455 0.0
C3162 C 0.60987 0.0866 0.44494 0.0
C3163 C 0.59302 0.06511 0.44481 0.0
C3164 C 0.58061 0.11945 0.44421 0.0
C3165 C 0.58501 0.19498 0.44371 0.0
C3166 C 0.60231 0.21517 0.44396 0.0
H3167 H 0.08576 0.64205 0.44318 0.0
H3168 H 0.10666 0.86031 0.44802 0.0
H3169 H 0.13527 0.80763 0.44927 0.0
H3170 H 0.11511 0.54571 0.46214 0.0
H3171 H 0.11666 0.46639 0.45303 0.0
H3172 H 0.09753 0.52016 0.45318 0.0
H3173 H 0.09975 0.53794 0.43135 0.0
H3174 H 0.1189 0.48442 0.43112 0.0
H3175 H 0.11884 0.57603 0.42535 0.0
H3176 H 0.16139 0.73436 0.44926 0.0
H3177 H 0.18421 0.6442 0.44779 0.0
H3178 H 0.14719 0.47061 0.44269 0.0
C3179 C 0.09634 0.67863 0.44464 0.0
C3180 C 0.09394 0.75542 0.44554 0.0
C3181 C 0.10815 0.80145 0.44729 0.0
C3182 C 0.12446 0.77203 0.44805 0.0
C3183 C 0.1264 0.69645 0.44701 0.0
C3184 C 0.1128 0.65016 0.44534 0.0
C3185 C 0.11863 0.57118 0.44403 0.0
C3186 C 0.11156 0.52303 0.45367 0.0
C3187 C 0.11374 0.54062 0.43226 0.0
C3188 C 0.13766 0.58068 0.44511 0.0
C3189 C 0.14174 0.65351 0.44689 0.0
C3190 C 0.15838 0.6771 0.44791 0.0
C3191 C 0.17127 0.6251 0.44703 0.0
C3192 C 0.16757 0.54987 0.44511 0.0
C3193 C 0.15046 0.52744 0.44421 0.0
H3194 H 0.58289 0.61498 0.31636 0.0
H3195 H 0.60559 0.40513 0.30779 0.0
H3196 H 0.63332 0.46508 0.30573 0.0
H3197 H 0.60906 0.72846 0.2974 0.0
H3198 H 0.61085 0.80269 0.30747 0.0
H3199 H 0.5923 0.74513 0.30749 0.0
H3200 H 0.5971 0.7157 0.32881 0.0
H3201 H 0.61564 0.7731 0.32889 0.0
H3202 H 0.61716 0.67874 0.33334 0.0
H3203 H 0.65834 0.54348 0.30528 0.0
H3204 H 0.6805 0.63608 0.30733 0.0
H3205 H 0.64273 0.79882 0.31667 0.0
C3206 C 0.59367 0.58193 0.3139 0.0
C3207 C 0.59205 0.50529 0.31218 0.0
C3208 C 0.6065 0.46374 0.30917 0.0
C3209 C 0.6223 0.49736 0.30792 0.0
C3210 C 0.6235 0.57261 0.30976 0.0
C3211 C 0.60966 0.61463 0.31273 0.0
C3212 C 0.61484 0.69387 0.31486 0.0
C3213 C 0.60625 0.74559 0.30629 0.0
C3214 C 0.61096 0.71666 0.32721 0.0
C3215 C 0.6338 0.68926 0.31276 0.0
C3216 C 0.63833 0.61868 0.30971 0.0
C3217 C 0.655 0.59898 0.30764 0.0
C3218 C 0.66751 0.65232 0.30888 0.0
C3219 C 0.66342 0.72504 0.31223 0.0
C3220 C 0.64625 0.74403 0.31402 0.0
H3221 H 0.16969 0.13903 0.31768 0.0
H3222 H 0.1449 0.34667 0.31044 0.0
H3223 H 0.11765 0.28286 0.30862 0.0
H3224 H 0.14414 0.02673 0.29844 0.0
H3225 H 0.14324 0.94951 0.30801 0.0
H3226 H 0.16125 0.01013 0.30828 0.0
H3227 H 0.15666 0.03286 0.3298 0.0
H3228 H 0.13867 0.97224 0.32964 0.0
H3229 H 0.13637 0.06492 0.33476 0.0
H3230 H 0.09328 0.20069 0.30811 0.0
H3231 H 0.07213 0.10337 0.3094 0.0
H3232 H 0.11164 0.94498 0.3172 0.0
C3233 C 0.15854 0.1709 0.31562 0.0
C3234 C 0.15947 0.24801 0.31418 0.0
C3235 C 0.14455 0.28777 0.3116 0.0
C3236 C 0.129 0.25198 0.3105 0.0
C3237 C 0.1285 0.17634 0.31202 0.0
C3238 C 0.14279 0.13596 0.31455 0.0
C3239 C 0.13841 0.05539 0.31618 0.0
C3240 C 0.14729 0.00764 0.30719 0.0
C3241 C 0.14278 0.02988 0.32832 0.0
C3242 C 0.11938 0.05733 0.31427 0.0
C3243 C 0.1141 0.12788 0.31182 0.0
C3244 C 0.09722 0.14514 0.30998 0.0
C3245 C 0.08528 0.0891 0.31077 0.0
C3246 C 0.09016 0.01611 0.31343 0.0
C3247 C 0.10752 -7e-05 0.31508 0.0
loop_
_geom_bond_atom_site_label_1
_geom_bond_atom_site_label_2
_geom_bond_distance
_geom_bond_site_symmetry_2
_ccdc_geom_bond_type
Co0 O3 1.970 . S
Co0 N17 1.989 . S
Co0 O25 1.967 . S
Co0 O32 1.920 . S
Co1 O4 1.966 . S
Co1 N10 2.022 1_545 S
Co1 N18 1.993 . S
Co1 O26 1.941 . S
C2 O3 1.258 . S
C2 O4 1.263 . S
O3 Co0 1.970 . S
O3 C2 1.258 . S
O4 Co1 1.966 . S
O4 C2 1.263 . S
C5 O6 1.235 . S
C5 O32 1.289 . S
O6 C5 1.235 . S
C7 C9 1.400 . S
C7 N10 1.351 . S
C7 C12 1.501 . S
C8 C9 1.387 . S
C8 N11 1.341 . S
C9 C7 1.400 . S
C9 C8 1.387 . S
N10 Co1 2.022 1_565 S
N10 C7 1.351 . S
N10 N11 1.365 . S
N11 C8 1.341 . S
N11 N10 1.365 . S
N11 H31 0.862 . S
C12 C7 1.501 . S
C12 H13 0.961 . S
C12 H14 0.961 . S
C12 H15 0.960 . S
H13 C12 0.961 . S
H14 C12 0.961 . S
H15 C12 0.960 . S
C16 N17 1.342 . S
C16 C20 1.401 . S
C16 C21 1.499 . S
N17 Co0 1.989 . S
N17 C16 1.342 . S
N17 N18 1.388 . S
N18 Co1 1.993 . S
N18 N17 1.388 . S
N18 C19 1.346 . S
C19 N18 1.346 . S
C19 C20 1.396 . S
C19 C29 1.510 1_545 S
C20 C16 1.401 . S
C20 C19 1.396 . S
C21 C16 1.499 . S
C21 H22 0.959 . S
C21 H23 0.960 . S
C21 H24 0.961 . S
H22 C21 0.959 . S
H23 C21 0.960 . S
H24 C21 0.961 . S
O25 Co0 1.967 . S
O25 C33 1.258 . S
O26 Co1 1.941 . S
O26 C33 1.266 . S
H27 C29 0.959 . S
H28 C29 0.961 . S
C29 C19 1.510 1_565 S
C29 H27 0.959 . S
C29 H28 0.961 . S
C29 H30 0.960 . S
H30 C29 0.960 . S
H31 N11 0.862 . S
O32 Co0 1.920 . S
O32 C5 1.289 . S
C33 O25 1.258 . S
C33 O26 1.266 . S
Co34 O37 1.970 . S
Co34 N51 1.989 . S
Co34 O59 1.967 . S
Co34 O66 1.920 1_545 S
Co35 O38 1.966 . S
Co35 N44 2.022 . S
Co35 N52 1.993 . S
Co35 O60 1.941 . S
C36 O37 1.258 . S
C36 O38 1.263 . S
O37 Co34 1.970 . S
O37 C36 1.258 . S
O38 Co35 1.966 . S
O38 C36 1.263 . S
C39 O40 1.235 . S
C39 O66 1.289 . S
O40 C39 1.235 . S
C41 C43 1.400 . S
C41 N44 1.351 . S
C41 C46 1.501 . S
C42 C43 1.387 . S
C42 N45 1.341 . S
C43 C41 1.400 . S
C43 C42 1.387 . S
N44 Co35 2.022 . S
N44 C41 1.351 . S
N44 N45 1.365 . S
N45 C42 1.341 . S
N45 N44 1.365 . S
N45 H65 0.862 . S
C46 C41 1.501 . S
C46 H47 0.961 . S
C46 H48 0.961 . S
C46 H49 0.960 . S
H47 C46 0.961 . S
H48 C46 0.961 . S
H49 C46 0.960 . S
C50 N51 1.342 . S
C50 C54 1.401 . S
C50 C55 1.499 1_545 S
N51 Co34 1.989 . S
N51 C50 1.342 . S
N51 N52 1.388 . S
N52 Co35 1.993 . S
N52 N51 1.388 . S
N52 C53 1.346 . S
C53 N52 1.346 . S
C53 C54 1.396 . S
C53 C63 1.510 . S
C54 C50 1.401 . S
C54 C53 1.396 . S
C55 C50 1.499 1_565 S
C55 H56 0.959 . S
C55 H57 0.960 . S
C55 H58 0.961 . S
H56 C55 0.959 . S
H57 C55 0.960 . S
H58 C55 0.961 . S
O59 Co34 1.967 . S
O59 C67 1.258 . S
O60 Co35 1.941 . S
O60 C67 1.266 . S
H61 C63 0.959 . S
H62 C63 0.961 . S
C63 C53 1.510 . S
C63 H61 0.959 . S
C63 H62 0.961 . S
C63 H64 0.960 . S
H64 C63 0.960 . S
H65 N45 0.862 . S
O66 Co34 1.920 1_565 S
O66 C39 1.289 . S
C67 O59 1.258 . S
C67 O60 1.266 . S
Co68 O71 1.970 . S
Co68 N85 1.989 . S
Co68 O93 1.967 . S
Co68 O100 1.920 1_545 S
Co69 O72 1.966 . S
Co69 N78 2.022 . S
Co69 N86 1.993 . S
Co69 O94 1.941 . S
C70 O71 1.258 . S
C70 O72 1.263 . S
O71 Co68 1.970 . S
O71 C70 1.258 . S
O72 Co69 1.966 . S
O72 C70 1.263 . S
C73 O74 1.235 . S
C73 O100 1.289 . S
O74 C73 1.235 . S
C75 C77 1.400 . S
C75 N78 1.351 . S
C75 C80 1.501 . S
C76 C77 1.387 . S
C76 N79 1.341 . S
C77 C75 1.400 . S
C77 C76 1.387 . S
N78 Co69 2.022 . S
N78 C75 1.351 . S
N78 N79 1.365 . S
N79 C76 1.341 . S
N79 N78 1.365 . S
N79 H99 0.862 . S
C80 C75 1.501 . S
C80 H81 0.961 . S
C80 H82 0.961 . S
C80 H83 0.960 . S
H81 C80 0.961 . S
H82 C80 0.961 . S
H83 C80 0.960 . S
C84 N85 1.342 . S
C84 C88 1.401 . S
C84 C89 1.499 1_545 S
N85 Co68 1.989 . S
N85 C84 1.342 . S
N85 N86 1.388 . S
N86 Co69 1.993 . S
N86 N85 1.388 . S
N86 C87 1.346 . S
C87 N86 1.346 . S
C87 C88 1.396 . S
C87 C97 1.510 . S
C88 C84 1.401 . S
C88 C87 1.396 . S
C89 C84 1.499 1_565 S
C89 H90 0.959 . S
C89 H91 0.960 . S
C89 H92 0.961 . S
H90 C89 0.959 . S
H91 C89 0.960 . S
H92 C89 0.961 . S
O93 Co68 1.967 . S
O93 C101 1.258 . S
O94 Co69 1.941 . S
O94 C101 1.266 . S
H95 C97 0.959 . S
H96 C97 0.961 . S
C97 C87 1.510 . S
C97 H95 0.959 . S
C97 H96 0.961 . S
C97 H98 0.960 . S
H98 C97 0.960 . S
H99 N79 0.862 . S
O100 Co68 1.920 1_565 S
O100 C73 1.289 . S
C101 O93 1.258 . S
C101 O94 1.266 . S
Co102 O105 1.970 . S
Co102 N119 1.989 . S
Co102 O127 1.967 . S
Co102 O134 1.920 . S
Co103 O106 1.966 . S
Co103 N112 2.022 1_545 S
Co103 N120 1.993 . S
Co103 O128 1.941 . S
C104 O105 1.258 . S
C104 O106 1.263 . S
O105 Co102 1.970 . S
O105 C104 1.258 . S
O106 Co103 1.966 . S
O106 C104 1.263 . S
C107 O108 1.235 . S
C107 O134 1.289 . S
O108 C107 1.235 . S
C109 C111 1.400 . S
C109 N112 1.351 . S
C109 C114 1.501 . S
C110 C111 1.387 . S
C110 N113 1.341 . S
C111 C109 1.400 . S
C111 C110 1.387 . S
N112 Co103 2.022 1_565 S
N112 C109 1.351 . S
N112 N113 1.365 . S
N113 C110 1.341 . S
N113 N112 1.365 . S
N113 H133 0.862 . S
C114 C109 1.501 . S
C114 H115 0.961 . S
C114 H116 0.961 . S
C114 H117 0.960 . S
H115 C114 0.961 . S
H116 C114 0.961 . S
H117 C114 0.960 . S
C118 N119 1.342 . S
C118 C122 1.401 . S
C118 C123 1.499 . S
N119 Co102 1.989 . S
N119 C118 1.342 . S
N119 N120 1.388 . S
N120 Co103 1.993 . S
N120 N119 1.388 . S
N120 C121 1.346 . S
C121 N120 1.346 . S
C121 C122 1.396 . S
C121 C131 1.510 1_545 S
C122 C118 1.401 . S
C122 C121 1.396 . S
C123 C118 1.499 . S
C123 H124 0.959 . S
C123 H125 0.960 . S
C123 H126 0.961 . S
H124 C123 0.959 . S
H125 C123 0.960 . S
H126 C123 0.961 . S
O127 Co102 1.967 . S
O127 C135 1.258 . S
O128 Co103 1.941 . S
O128 C135 1.266 . S
H129 C131 0.959 . S
H130 C131 0.961 . S
C131 C121 1.510 1_565 S
C131 H129 0.959 . S
C131 H130 0.961 . S
C131 H132 0.960 . S
H132 C131 0.960 . S
H133 N113 0.862 . S
O134 Co102 1.920 . S
O134 C107 1.289 . S
C135 O127 1.258 . S
C135 O128 1.266 . S
Co136 O139 1.970 . S
Co136 N153 1.989 . S
Co136 O161 1.967 . S
Co136 O168 1.920 . S
Co137 O140 1.966 . S
Co137 N146 2.022 1_565 S
Co137 N154 1.993 . S
Co137 O162 1.941 . S
C138 O139 1.258 . S
C138 O140 1.263 . S
O139 Co136 1.970 . S
O139 C138 1.258 . S
O140 Co137 1.966 . S
O140 C138 1.263 . S
C141 O142 1.235 . S
C141 O168 1.289 . S
O142 C141 1.235 . S
C143 C145 1.400 . S
C143 N146 1.351 . S
C143 C148 1.501 . S
C144 C145 1.387 . S
C144 N147 1.341 . S
C145 C143 1.400 . S
C145 C144 1.387 . S
N146 Co137 2.022 1_545 S
N146 C143 1.351 . S
N146 N147 1.365 . S
N147 C144 1.341 . S
N147 N146 1.365 . S
N147 H167 0.862 . S
C148 C143 1.501 . S
C148 H149 0.961 . S
C148 H150 0.961 . S
C148 H151 0.960 . S
H149 C148 0.961 . S
H150 C148 0.961 . S
H151 C148 0.960 . S
C152 N153 1.342 . S
C152 C156 1.401 . S
C152 C157 1.499 . S
N153 Co136 1.989 . S
N153 C152 1.342 . S
N153 N154 1.388 . S
N154 Co137 1.993 . S
N154 N153 1.388 . S
N154 C155 1.346 . S
C155 N154 1.346 . S
C155 C156 1.396 . S
C155 C165 1.510 1_565 S
C156 C152 1.401 . S
C156 C155 1.396 . S
C157 C152 1.499 . S
C157 H158 0.959 . S
C157 H159 0.960 . S
C157 H160 0.961 . S
H158 C157 0.959 . S
H159 C157 0.960 . S
H160 C157 0.961 . S
O161 Co136 1.967 . S
O161 C169 1.258 . S
O162 Co137 1.941 . S
O162 C169 1.266 . S
H163 C165 0.959 . S
H164 C165 0.961 . S
C165 C155 1.510 1_545 S
C165 H163 0.959 . S
C165 H164 0.961 . S
C165 H166 0.960 . S
H166 C165 0.960 . S
H167 N147 0.862 . S
O168 Co136 1.920 . S
O168 C141 1.289 . S
C169 O161 1.258 . S
C169 O162 1.266 . S
Co170 O173 1.970 . S
Co170 N187 1.989 . S
Co170 O195 1.967 . S
Co170 O202 1.920 1_565 S
Co171 O174 1.966 . S
Co171 N180 2.022 . S
Co171 N188 1.993 . S
Co171 O196 1.941 . S
C172 O173 1.258 . S
C172 O174 1.263 . S
O173 Co170 1.970 . S
O173 C172 1.258 . S
O174 Co171 1.966 . S
O174 C172 1.263 . S
C175 O176 1.235 . S
C175 O202 1.289 . S
O176 C175 1.235 . S
C177 C179 1.400 . S
C177 N180 1.351 . S
C177 C182 1.501 . S
C178 C179 1.387 . S
C178 N181 1.341 . S
C179 C177 1.400 . S
C179 C178 1.387 . S
N180 Co171 2.022 . S
N180 C177 1.351 . S
N180 N181 1.365 . S
N181 C178 1.341 . S
N181 N180 1.365 . S
N181 H201 0.862 . S
C182 C177 1.501 . S
C182 H183 0.961 . S
C182 H184 0.961 . S
C182 H185 0.960 . S
H183 C182 0.961 . S
H184 C182 0.961 . S
H185 C182 0.960 . S
C186 N187 1.342 . S
C186 C190 1.401 . S
C186 C191 1.499 1_565 S
N187 Co170 1.989 . S
N187 C186 1.342 . S
N187 N188 1.388 . S
N188 Co171 1.993 . S
N188 N187 1.388 . S
N188 C189 1.346 . S
C189 N188 1.346 . S
C189 C190 1.396 . S
C189 C199 1.510 . S
C190 C186 1.401 . S
C190 C189 1.396 . S
C191 C186 1.499 1_545 S
C191 H192 0.959 . S
C191 H193 0.960 . S
C191 H194 0.961 . S
H192 C191 0.959 . S
H193 C191 0.960 . S
H194 C191 0.961 . S
O195 Co170 1.967 . S
O195 C203 1.258 . S
O196 Co171 1.941 . S
O196 C203 1.266 . S
H197 C199 0.959 . S
H198 C199 0.961 . S
C199 C189 1.510 . S
C199 H197 0.959 . S
C199 H198 0.961 . S
C199 H200 0.960 . S
H200 C199 0.960 . S
H201 N181 0.862 . S
O202 Co170 1.920 1_545 S
O202 C175 1.289 . S
C203 O195 1.258 . S
C203 O196 1.266 . S
Co204 O207 1.970 . S
Co204 N221 1.989 . S
Co204 O229 1.967 . S
Co204 O236 1.920 1_565 S
Co205 O208 1.966 . S
Co205 N214 2.022 . S
Co205 N222 1.993 . S
Co205 O230 1.941 . S
C206 O207 1.258 . S
C206 O208 1.263 . S
O207 Co204 1.970 . S
O207 C206 1.258 . S
O208 Co205 1.966 . S
O208 C206 1.263 . S
C209 O210 1.235 . S
C209 O236 1.289 . S
O210 C209 1.235 . S
C211 C213 1.400 . S
C211 N214 1.351 . S
C211 C216 1.501 . S
C212 C213 1.387 . S
C212 N215 1.341 . S
C213 C211 1.400 . S
C213 C212 1.387 . S
N214 Co205 2.022 . S
N214 C211 1.351 . S
N214 N215 1.365 . S
N215 C212 1.341 . S
N215 N214 1.365 . S
N215 H235 0.862 . S
C216 C211 1.501 . S
C216 H217 0.961 . S
C216 H218 0.961 . S
C216 H219 0.960 . S
H217 C216 0.961 . S
H218 C216 0.961 . S
H219 C216 0.960 . S
C220 N221 1.342 . S
C220 C224 1.401 . S
C220 C225 1.499 1_565 S
N221 Co204 1.989 . S
N221 C220 1.342 . S
N221 N222 1.388 . S
N222 Co205 1.993 . S
N222 N221 1.388 . S
N222 C223 1.346 . S
C223 N222 1.346 . S
C223 C224 1.396 . S
C223 C233 1.510 . S
C224 C220 1.401 . S
C224 C223 1.396 . S
C225 C220 1.499 1_545 S
C225 H226 0.959 . S
C225 H227 0.960 . S
C225 H228 0.961 . S
H226 C225 0.959 . S
H227 C225 0.960 . S
H228 C225 0.961 . S
O229 Co204 1.967 . S
O229 C237 1.258 . S
O230 Co205 1.941 . S
O230 C237 1.266 . S
H231 C233 0.959 . S
H232 C233 0.961 . S
C233 C223 1.510 . S
C233 H231 0.959 . S
C233 H232 0.961 . S
C233 H234 0.960 . S
H234 C233 0.960 . S
H235 N215 0.862 . S
O236 Co204 1.920 1_545 S
O236 C209 1.289 . S
C237 O229 1.258 . S
C237 O230 1.266 . S
Co238 O241 1.970 . S
Co238 N255 1.989 . S
Co238 O263 1.967 . S
Co238 O270 1.920 . S
Co239 O242 1.966 . S
Co239 N248 2.022 1_565 S
Co239 N256 1.993 . S
Co239 O264 1.941 . S
C240 O241 1.258 . S
C240 O242 1.263 . S
O241 Co238 1.970 . S
O241 C240 1.258 . S
O242 Co239 1.966 . S
O242 C240 1.263 . S
C243 O244 1.235 . S
C243 O270 1.289 . S
O244 C243 1.235 . S
C245 C247 1.400 . S
C245 N248 1.351 . S
C245 C250 1.501 . S
C246 C247 1.387 . S
C246 N249 1.341 . S
C247 C245 1.400 . S
C247 C246 1.387 . S
N248 Co239 2.022 1_545 S
N248 C245 1.351 . S
N248 N249 1.365 . S
N249 C246 1.341 . S
N249 N248 1.365 . S
N249 H269 0.862 . S
C250 C245 1.501 . S
C250 H251 0.961 . S
C250 H252 0.961 . S
C250 H253 0.960 . S
H251 C250 0.961 . S
H252 C250 0.961 . S
H253 C250 0.960 . S
C254 N255 1.342 . S
C254 C258 1.401 . S
C254 C259 1.499 . S
N255 Co238 1.989 . S
N255 C254 1.342 . S
N255 N256 1.388 . S
N256 Co239 1.993 . S
N256 N255 1.388 . S
N256 C257 1.346 . S
C257 N256 1.346 . S
C257 C258 1.396 . S
C257 C267 1.510 1_565 S
C258 C254 1.401 . S
C258 C257 1.396 . S
C259 C254 1.499 . S
C259 H260 0.959 . S
C259 H261 0.960 . S
C259 H262 0.961 . S
H260 C259 0.959 . S
H261 C259 0.960 . S
H262 C259 0.961 . S
O263 Co238 1.967 . S
O263 C271 1.258 . S
O264 Co239 1.941 . S
O264 C271 1.266 . S
H265 C267 0.959 . S
H266 C267 0.961 . S
C267 C257 1.510 1_545 S
C267 H265 0.959 . S
C267 H266 0.961 . S
C267 H268 0.960 . S
H268 C267 0.960 . S
H269 N249 0.862 . S
O270 Co238 1.920 . S
O270 C243 1.289 . S
C271 O263 1.258 . S
C271 O264 1.266 . S
Co272 O275 1.970 . S
Co272 N289 1.989 . S
Co272 O297 1.967 . S
Co272 O304 1.920 . S
Co273 O276 1.966 . S
Co273 N282 2.022 . S
Co273 N290 1.993 . S
Co273 O298 1.941 . S
C274 O275 1.258 . S
C274 O276 1.263 . S
O275 Co272 1.970 . S
O275 C274 1.258 . S
O276 Co273 1.966 . S
O276 C274 1.263 . S
C277 O278 1.235 . S
C277 O304 1.289 . S
O278 C277 1.235 . S
C279 C281 1.400 . S
C279 N282 1.351 . S
C279 C284 1.501 . S
C280 C281 1.387 . S
C280 N283 1.341 . S
C281 C279 1.400 . S
C281 C280 1.387 . S
N282 Co273 2.022 . S
N282 C279 1.351 . S
N282 N283 1.365 . S
N283 C280 1.341 . S
N283 N282 1.365 . S
N283 H303 0.862 . S
C284 C279 1.501 . S
C284 H285 0.961 . S
C284 H286 0.961 . S
C284 H287 0.960 . S
H285 C284 0.961 . S
H286 C284 0.961 . S
H287 C284 0.960 . S
C288 N289 1.342 . S
C288 C292 1.401 . S
C288 C293 1.499 . S
N289 Co272 1.989 . S
N289 C288 1.342 . S
N289 N290 1.388 . S
N290 Co273 1.993 . S
N290 N289 1.388 . S
N290 C291 1.346 . S
C291 N290 1.346 . S
C291 C292 1.396 . S
C291 C301 1.510 . S
C292 C288 1.401 . S
C292 C291 1.396 . S
C293 C288 1.499 . S
C293 H294 0.959 . S
C293 H295 0.960 . S
C293 H296 0.961 . S
H294 C293 0.959 . S
H295 C293 0.960 . S
H296 C293 0.961 . S
O297 Co272 1.967 . S
O297 C305 1.258 . S
O298 Co273 1.941 . S
O298 C305 1.266 . S
H299 C301 0.959 . S
H300 C301 0.961 . S
C301 C291 1.510 . S
C301 H299 0.959 . S
C301 H300 0.961 . S
C301 H302 0.960 . S
H302 C301 0.960 . S
H303 N283 0.862 . S
O304 Co272 1.920 . S
O304 C277 1.289 . S
C305 O297 1.258 . S
C305 O298 1.266 . S
Co306 O309 1.970 . S
Co306 N323 1.989 . S
Co306 O331 1.967 . S
Co306 O338 1.920 . S
Co307 O310 1.966 . S
Co307 N316 2.022 . S
Co307 N324 1.993 . S
Co307 O332 1.941 . S
C308 O309 1.258 . S
C308 O310 1.263 . S
O309 Co306 1.970 . S
O309 C308 1.258 . S
O310 Co307 1.966 . S
O310 C308 1.263 . S
C311 O312 1.235 . S
C311 O338 1.289 . S
O312 C311 1.235 . S
C313 C315 1.400 . S
C313 N316 1.351 . S
C313 C318 1.501 . S
C314 C315 1.387 . S
C314 N317 1.341 . S
C315 C313 1.400 . S
C315 C314 1.387 . S
N316 Co307 2.022 . S
N316 C313 1.351 . S
N316 N317 1.365 . S
N317 C314 1.341 . S
N317 N316 1.365 . S
N317 H337 0.862 . S
C318 C313 1.501 . S
C318 H319 0.961 . S
C318 H320 0.961 . S
C318 H321 0.960 . S
H319 C318 0.961 . S
H320 C318 0.961 . S
H321 C318 0.960 . S
C322 N323 1.342 . S
C322 C326 1.401 . S
C322 C327 1.499 . S
N323 Co306 1.989 . S
N323 C322 1.342 . S
N323 N324 1.388 . S
N324 Co307 1.993 . S
N324 N323 1.388 . S
N324 C325 1.346 . S
C325 N324 1.346 . S
C325 C326 1.396 . S
C325 C335 1.510 . S
C326 C322 1.401 . S
C326 C325 1.396 . S
C327 C322 1.499 . S
C327 H328 0.959 . S
C327 H329 0.960 . S
C327 H330 0.961 . S
H328 C327 0.959 . S
H329 C327 0.960 . S
H330 C327 0.961 . S
O331 Co306 1.967 . S
O331 C339 1.258 . S
O332 Co307 1.941 . S
O332 C339 1.266 . S
H333 C335 0.959 . S
H334 C335 0.961 . S
C335 C325 1.510 . S
C335 H333 0.959 . S
C335 H334 0.961 . S
C335 H336 0.960 . S
H336 C335 0.960 . S
H337 N317 0.862 . S
O338 Co306 1.920 . S
O338 C311 1.289 . S
C339 O331 1.258 . S
C339 O332 1.266 . S
Co340 O343 1.970 . S
Co340 N357 1.989 . S
Co340 O365 1.967 . S
Co340 O372 1.920 . S
Co341 O344 1.966 . S
Co341 N350 2.022 . S
Co341 N358 1.993 . S
Co341 O366 1.941 . S
C342 O343 1.258 . S
C342 O344 1.263 . S
O343 Co340 1.970 . S
O343 C342 1.258 . S
O344 Co341 1.966 . S
O344 C342 1.263 . S
C345 O346 1.235 . S
C345 O372 1.289 . S
O346 C345 1.235 . S
C347 C349 1.400 . S
C347 N350 1.351 . S
C347 C352 1.501 . S
C348 C349 1.387 . S
C348 N351 1.341 . S
C349 C347 1.400 . S
C349 C348 1.387 . S
N350 Co341 2.022 . S
N350 C347 1.351 . S
N350 N351 1.365 . S
N351 C348 1.341 . S
N351 N350 1.365 . S
N351 H371 0.862 . S
C352 C347 1.501 . S
C352 H353 0.961 . S
C352 H354 0.961 . S
C352 H355 0.960 . S
H353 C352 0.961 . S
H354 C352 0.961 . S
H355 C352 0.960 . S
C356 N357 1.342 . S
C356 C360 1.401 . S
C356 C361 1.499 . S
N357 Co340 1.989 . S
N357 C356 1.342 . S
N357 N358 1.388 . S
N358 Co341 1.993 . S
N358 N357 1.388 . S
N358 C359 1.346 . S
C359 N358 1.346 . S
C359 C360 1.396 . S
C359 C369 1.510 . S
C360 C356 1.401 . S
C360 C359 1.396 . S
C361 C356 1.499 . S
C361 H362 0.959 . S
C361 H363 0.960 . S
C361 H364 0.961 . S
H362 C361 0.959 . S
H363 C361 0.960 . S
H364 C361 0.961 . S
O365 Co340 1.967 . S
O365 C373 1.258 . S
O366 Co341 1.941 . S
O366 C373 1.266 . S
H367 C369 0.959 . S
H368 C369 0.961 . S
C369 C359 1.510 . S
C369 H367 0.959 . S
C369 H368 0.961 . S
C369 H370 0.960 . S
H370 C369 0.960 . S
H371 N351 0.862 . S
O372 Co340 1.920 . S
O372 C345 1.289 . S
C373 O365 1.258 . S
C373 O366 1.266 . S
Co374 O377 1.970 . S
Co374 N391 1.989 . S
Co374 O399 1.967 . S
Co374 O406 1.920 . S
Co375 O378 1.966 . S
Co375 N384 2.022 . S
Co375 N392 1.993 . S
Co375 O400 1.941 . S
C376 O377 1.258 . S
C376 O378 1.263 . S
O377 Co374 1.970 . S
O377 C376 1.258 . S
O378 Co375 1.966 . S
O378 C376 1.263 . S
C379 O380 1.235 . S
C379 O406 1.289 . S
O380 C379 1.235 . S
C381 C383 1.400 . S
C381 N384 1.351 . S
C381 C386 1.501 . S
C382 C383 1.387 . S
C382 N385 1.341 . S
C383 C381 1.400 . S
C383 C382 1.387 . S
N384 Co375 2.022 . S
N384 C381 1.351 . S
N384 N385 1.365 . S
N385 C382 1.341 . S
N385 N384 1.365 . S
N385 H405 0.862 . S
C386 C381 1.501 . S
C386 H387 0.961 . S
C386 H388 0.961 . S
C386 H389 0.960 . S
H387 C386 0.961 . S
H388 C386 0.961 . S
H389 C386 0.960 . S
C390 N391 1.342 . S
C390 C394 1.401 . S
C390 C395 1.499 . S
N391 Co374 1.989 . S
N391 C390 1.342 . S
N391 N392 1.388 . S
N392 Co375 1.993 . S
N392 N391 1.388 . S
N392 C393 1.346 . S
C393 N392 1.346 . S
C393 C394 1.396 . S
C393 C403 1.510 . S
C394 C390 1.401 . S
C394 C393 1.396 . S
C395 C390 1.499 . S
C395 H396 0.959 . S
C395 H397 0.960 . S
C395 H398 0.961 . S
H396 C395 0.959 . S
H397 C395 0.960 . S
H398 C395 0.961 . S
O399 Co374 1.967 . S
O399 C407 1.258 . S
O400 Co375 1.941 . S
O400 C407 1.266 . S
H401 C403 0.959 . S
H402 C403 0.961 . S
C403 C393 1.510 . S
C403 H401 0.959 . S
C403 H402 0.961 . S
C403 H404 0.960 . S
H404 C403 0.960 . S
H405 N385 0.862 . S
O406 Co374 1.920 . S
O406 C379 1.289 . S
C407 O399 1.258 . S
C407 O400 1.266 . S
Co408 O411 1.970 . S
Co408 N425 1.989 . S
Co408 O433 1.967 . S
Co408 O440 1.920 . S
Co409 O412 1.966 . S
Co409 N418 2.022 . S
Co409 N426 1.993 . S
Co409 O434 1.941 . S
C410 O411 1.258 . S
C410 O412 1.263 . S
O411 Co408 1.970 . S
O411 C410 1.258 . S
O412 Co409 1.966 . S
O412 C410 1.263 . S
C413 O414 1.235 . S
C413 O440 1.289 . S
O414 C413 1.235 . S
C415 C417 1.400 . S
C415 N418 1.351 . S
C415 C420 1.501 . S
C416 C417 1.387 . S
C416 N419 1.341 . S
C417 C415 1.400 . S
C417 C416 1.387 . S
N418 Co409 2.022 . S
N418 C415 1.351 . S
N418 N419 1.365 . S
N419 C416 1.341 . S
N419 N418 1.365 . S
N419 H439 0.862 . S
C420 C415 1.501 . S
C420 H421 0.961 . S
C420 H422 0.961 . S
C420 H423 0.960 . S
H421 C420 0.961 . S
H422 C420 0.961 . S
H423 C420 0.960 . S
C424 N425 1.342 . S
C424 C428 1.401 . S
C424 C429 1.499 . S
N425 Co408 1.989 . S
N425 C424 1.342 . S
N425 N426 1.388 . S
N426 Co409 1.993 . S
N426 N425 1.388 . S
N426 C427 1.346 . S
C427 N426 1.346 . S
C427 C428 1.396 . S
C427 C437 1.510 . S
C428 C424 1.401 . S
C428 C427 1.396 . S
C429 C424 1.499 . S
C429 H430 0.959 . S
C429 H431 0.960 . S
C429 H432 0.961 . S
H430 C429 0.959 . S
H431 C429 0.960 . S
H432 C429 0.961 . S
O433 Co408 1.967 . S
O433 C441 1.258 . S
O434 Co409 1.941 . S
O434 C441 1.266 . S
H435 C437 0.959 . S
H436 C437 0.961 . S
C437 C427 1.510 . S
C437 H435 0.959 . S
C437 H436 0.961 . S
C437 H438 0.960 . S
H438 C437 0.960 . S
H439 N419 0.862 . S
O440 Co408 1.920 . S
O440 C413 1.289 . S
C441 O433 1.258 . S
C441 O434 1.266 . S
Co442 O445 1.970 . S
Co442 N459 1.989 . S
Co442 O467 1.967 . S
Co442 O474 1.920 . S
Co443 O446 1.966 . S
Co443 N452 2.022 . S
Co443 N460 1.993 . S
Co443 O468 1.941 . S
C444 O445 1.258 . S
C444 O446 1.263 . S
O445 Co442 1.970 . S
O445 C444 1.258 . S
O446 Co443 1.966 . S
O446 C444 1.263 . S
C447 O448 1.235 . S
C447 O474 1.289 . S
O448 C447 1.235 . S
C449 C451 1.400 . S
C449 N452 1.351 . S
C449 C454 1.501 . S
C450 C451 1.387 . S
C450 N453 1.341 . S
C451 C449 1.400 . S
C451 C450 1.387 . S
N452 Co443 2.022 . S
N452 C449 1.351 . S
N452 N453 1.365 . S
N453 C450 1.341 . S
N453 N452 1.365 . S
N453 H473 0.862 . S
C454 C449 1.501 . S
C454 H455 0.961 . S
C454 H456 0.961 . S
C454 H457 0.960 . S
H455 C454 0.961 . S
H456 C454 0.961 . S
H457 C454 0.960 . S
C458 N459 1.342 . S
C458 C462 1.401 . S
C458 C463 1.499 . S
N459 Co442 1.989 . S
N459 C458 1.342 . S
N459 N460 1.388 . S
N460 Co443 1.993 . S
N460 N459 1.388 . S
N460 C461 1.346 . S
C461 N460 1.346 . S
C461 C462 1.396 . S
C461 C471 1.510 . S
C462 C458 1.401 . S
C462 C461 1.396 . S
C463 C458 1.499 . S
C463 H464 0.959 . S
C463 H465 0.960 . S
C463 H466 0.961 . S
H464 C463 0.959 . S
H465 C463 0.960 . S
H466 C463 0.961 . S
O467 Co442 1.967 . S
O467 C475 1.258 . S
O468 Co443 1.941 . S
O468 C475 1.266 . S
H469 C471 0.959 . S
H470 C471 0.961 . S
C471 C461 1.510 . S
C471 H469 0.959 . S
C471 H470 0.961 . S
C471 H472 0.960 . S
H472 C471 0.960 . S
H473 N453 0.862 . S
O474 Co442 1.920 . S
O474 C447 1.289 . S
C475 O467 1.258 . S
C475 O468 1.266 . S
Co476 O479 1.970 . S
Co476 N493 1.989 . S
Co476 O501 1.967 . S
Co476 O508 1.920 . S
Co477 O480 1.966 . S
Co477 N486 2.022 . S
Co477 N494 1.993 . S
Co477 O502 1.941 . S
C478 O479 1.258 . S
C478 O480 1.263 . S
O479 Co476 1.970 . S
O479 C478 1.258 . S
O480 Co477 1.966 . S
O480 C478 1.263 . S
C481 O482 1.235 . S
C481 O508 1.289 . S
O482 C481 1.235 . S
C483 C485 1.400 . S
C483 N486 1.351 . S
C483 C488 1.501 . S
C484 C485 1.387 . S
C484 N487 1.341 . S
C485 C483 1.400 . S
C485 C484 1.387 . S
N486 Co477 2.022 . S
N486 C483 1.351 . S
N486 N487 1.365 . S
N487 C484 1.341 . S
N487 N486 1.365 . S
N487 H507 0.862 . S
C488 C483 1.501 . S
C488 H489 0.961 . S
C488 H490 0.961 . S
C488 H491 0.960 . S
H489 C488 0.961 . S
H490 C488 0.961 . S
H491 C488 0.960 . S
C492 N493 1.342 . S
C492 C496 1.401 . S
C492 C497 1.499 . S
N493 Co476 1.989 . S
N493 C492 1.342 . S
N493 N494 1.388 . S
N494 Co477 1.993 . S
N494 N493 1.388 . S
N494 C495 1.346 . S
C495 N494 1.346 . S
C495 C496 1.396 . S
C495 C505 1.510 . S
C496 C492 1.401 . S
C496 C495 1.396 . S
C497 C492 1.499 . S
C497 H498 0.959 . S
C497 H499 0.960 . S
C497 H500 0.961 . S
H498 C497 0.959 . S
H499 C497 0.960 . S
H500 C497 0.961 . S
O501 Co476 1.967 . S
O501 C509 1.258 . S
O502 Co477 1.941 . S
O502 C509 1.266 . S
H503 C505 0.959 . S
H504 C505 0.961 . S
C505 C495 1.510 . S
C505 H503 0.959 . S
C505 H504 0.961 . S
C505 H506 0.960 . S
H506 C505 0.960 . S
H507 N487 0.862 . S
O508 Co476 1.920 . S
O508 C481 1.289 . S
C509 O501 1.258 . S
C509 O502 1.266 . S
Co510 O513 1.970 . S
Co510 N527 1.989 . S
Co510 O535 1.967 . S
Co510 O542 1.920 . S
Co511 O514 1.966 . S
Co511 N520 2.022 . S
Co511 N528 1.993 . S
Co511 O536 1.941 . S
C512 O513 1.258 . S
C512 O514 1.263 . S
O513 Co510 1.970 . S
O513 C512 1.258 . S
O514 Co511 1.966 . S
O514 C512 1.263 . S
C515 O516 1.235 . S
C515 O542 1.289 . S
O516 C515 1.235 . S
C517 C519 1.400 . S
C517 N520 1.351 . S
C517 C522 1.501 . S
C518 C519 1.387 . S
C518 N521 1.341 . S
C519 C517 1.400 . S
C519 C518 1.387 . S
N520 Co511 2.022 . S
N520 C517 1.351 . S
N520 N521 1.365 . S
N521 C518 1.341 . S
N521 N520 1.365 . S
N521 H541 0.862 . S
C522 C517 1.501 . S
C522 H523 0.961 . S
C522 H524 0.961 . S
C522 H525 0.960 . S
H523 C522 0.961 . S
H524 C522 0.961 . S
H525 C522 0.960 . S
C526 N527 1.342 . S
C526 C530 1.401 . S
C526 C531 1.499 . S
N527 Co510 1.989 . S
N527 C526 1.342 . S
N527 N528 1.388 . S
N528 Co511 1.993 . S
N528 N527 1.388 . S
N528 C529 1.346 . S
C529 N528 1.346 . S
C529 C530 1.396 . S
C529 C539 1.510 . S
C530 C526 1.401 . S
C530 C529 1.396 . S
C531 C526 1.499 . S
C531 H532 0.959 . S
C531 H533 0.960 . S
C531 H534 0.961 . S
H532 C531 0.959 . S
H533 C531 0.960 . S
H534 C531 0.961 . S
O535 Co510 1.967 . S
O535 C543 1.258 . S
O536 Co511 1.941 . S
O536 C543 1.266 . S
H537 C539 0.959 . S
H538 C539 0.961 . S
C539 C529 1.510 . S
C539 H537 0.959 . S
C539 H538 0.961 . S
C539 H540 0.960 . S
H540 C539 0.960 . S
H541 N521 0.862 . S
O542 Co510 1.920 . S
O542 C515 1.289 . S
C543 O535 1.258 . S
C543 O536 1.266 . S
Co544 O547 1.970 . S
Co544 N561 1.989 . S
Co544 O569 1.967 . S
Co544 O576 1.920 . S
Co545 O548 1.966 . S
Co545 N554 2.022 1_545 S
Co545 N562 1.993 . S
Co545 O570 1.941 . S
C546 O547 1.258 . S
C546 O548 1.263 . S
O547 Co544 1.970 . S
O547 C546 1.258 . S
O548 Co545 1.966 . S
O548 C546 1.263 . S
C549 O550 1.235 . S
C549 O576 1.289 . S
O550 C549 1.235 . S
C551 C553 1.400 . S
C551 N554 1.351 . S
C551 C556 1.501 . S
C552 C553 1.387 . S
C552 N555 1.341 . S
C553 C551 1.400 . S
C553 C552 1.387 . S
N554 Co545 2.022 1_565 S
N554 C551 1.351 . S
N554 N555 1.365 . S
N555 C552 1.341 . S
N555 N554 1.365 . S
N555 H575 0.862 . S
C556 C551 1.501 . S
C556 H557 0.961 . S
C556 H558 0.961 . S
C556 H559 0.960 . S
H557 C556 0.961 . S
H558 C556 0.961 . S
H559 C556 0.960 . S
C560 N561 1.342 . S
C560 C564 1.401 . S
C560 C565 1.499 . S
N561 Co544 1.989 . S
N561 C560 1.342 . S
N561 N562 1.388 . S
N562 Co545 1.993 . S
N562 N561 1.388 . S
N562 C563 1.346 . S
C563 N562 1.346 . S
C563 C564 1.396 . S
C563 C573 1.510 1_545 S
C564 C560 1.401 . S
C564 C563 1.396 . S
C565 C560 1.499 . S
C565 H566 0.959 . S
C565 H567 0.960 . S
C565 H568 0.961 . S
H566 C565 0.959 . S
H567 C565 0.960 . S
H568 C565 0.961 . S
O569 Co544 1.967 . S
O569 C577 1.258 . S
O570 Co545 1.941 . S
O570 C577 1.266 . S
H571 C573 0.959 . S
H572 C573 0.961 . S
C573 C563 1.510 1_565 S
C573 H571 0.959 . S
C573 H572 0.961 . S
C573 H574 0.960 . S
H574 C573 0.960 . S
H575 N555 0.862 . S
O576 Co544 1.920 . S
O576 C549 1.289 . S
C577 O569 1.258 . S
C577 O570 1.266 . S
Co578 O581 1.970 . S
Co578 N595 1.989 . S
Co578 O603 1.967 . S
Co578 O610 1.920 1_545 S
Co579 O582 1.966 . S
Co579 N588 2.022 . S
Co579 N596 1.993 . S
Co579 O604 1.941 . S
C580 O581 1.258 . S
C580 O582 1.263 . S
O581 Co578 1.970 . S
O581 C580 1.258 . S
O582 Co579 1.966 . S
O582 C580 1.263 . S
C583 O584 1.235 . S
C583 O610 1.289 . S
O584 C583 1.235 . S
C585 C587 1.400 . S
C585 N588 1.351 . S
C585 C590 1.501 . S
C586 C587 1.387 . S
C586 N589 1.341 . S
C587 C585 1.400 . S
C587 C586 1.387 . S
N588 Co579 2.022 . S
N588 C585 1.351 . S
N588 N589 1.365 . S
N589 C586 1.341 . S
N589 N588 1.365 . S
N589 H609 0.862 . S
C590 C585 1.501 . S
C590 H591 0.961 . S
C590 H592 0.961 . S
C590 H593 0.960 . S
H591 C590 0.961 . S
H592 C590 0.961 . S
H593 C590 0.960 . S
C594 N595 1.342 . S
C594 C598 1.401 . S
C594 C599 1.499 1_545 S
N595 Co578 1.989 . S
N595 C594 1.342 . S
N595 N596 1.388 . S
N596 Co579 1.993 . S
N596 N595 1.388 . S
N596 C597 1.346 . S
C597 N596 1.346 . S
C597 C598 1.396 . S
C597 C607 1.510 . S
C598 C594 1.401 . S
C598 C597 1.396 . S
C599 C594 1.499 1_565 S
C599 H600 0.959 . S
C599 H601 0.960 . S
C599 H602 0.961 . S
H600 C599 0.959 . S
H601 C599 0.960 . S
H602 C599 0.961 . S
O603 Co578 1.967 . S
O603 C611 1.258 . S
O604 Co579 1.941 . S
O604 C611 1.266 . S
H605 C607 0.959 . S
H606 C607 0.961 . S
C607 C597 1.510 . S
C607 H605 0.959 . S
C607 H606 0.961 . S
C607 H608 0.960 . S
H608 C607 0.960 . S
H609 N589 0.862 . S
O610 Co578 1.920 1_565 S
O610 C583 1.289 . S
C611 O603 1.258 . S
C611 O604 1.266 . S
Co612 O615 1.970 . S
Co612 N629 1.989 . S
Co612 O637 1.967 . S
Co612 O644 1.920 1_545 S
Co613 O616 1.966 . S
Co613 N622 2.022 . S
Co613 N630 1.993 . S
Co613 O638 1.941 . S
C614 O615 1.258 . S
C614 O616 1.263 . S
O615 Co612 1.970 . S
O615 C614 1.258 . S
O616 Co613 1.966 . S
O616 C614 1.263 . S
C617 O618 1.235 . S
C617 O644 1.289 . S
O618 C617 1.235 . S
C619 C621 1.400 . S
C619 N622 1.351 . S
C619 C624 1.501 . S
C620 C621 1.387 . S
C620 N623 1.341 . S
C621 C619 1.400 . S
C621 C620 1.387 . S
N622 Co613 2.022 . S
N622 C619 1.351 . S
N622 N623 1.365 . S
N623 C620 1.341 . S
N623 N622 1.365 . S
N623 H643 0.862 . S
C624 C619 1.501 . S
C624 H625 0.961 . S
C624 H626 0.961 . S
C624 H627 0.960 . S
H625 C624 0.961 . S
H626 C624 0.961 . S
H627 C624 0.960 . S
C628 N629 1.342 . S
C628 C632 1.401 . S
C628 C633 1.499 1_545 S
N629 Co612 1.989 . S
N629 C628 1.342 . S
N629 N630 1.388 . S
N630 Co613 1.993 . S
N630 N629 1.388 . S
N630 C631 1.346 . S
C631 N630 1.346 . S
C631 C632 1.396 . S
C631 C641 1.510 . S
C632 C628 1.401 . S
C632 C631 1.396 . S
C633 C628 1.499 1_565 S
C633 H634 0.959 . S
C633 H635 0.960 . S
C633 H636 0.961 . S
H634 C633 0.959 . S
H635 C633 0.960 . S
H636 C633 0.961 . S
O637 Co612 1.967 . S
O637 C645 1.258 . S
O638 Co613 1.941 . S
O638 C645 1.266 . S
H639 C641 0.959 . S
H640 C641 0.961 . S
C641 C631 1.510 . S
C641 H639 0.959 . S
C641 H640 0.961 . S
C641 H642 0.960 . S
H642 C641 0.960 . S
H643 N623 0.862 . S
O644 Co612 1.920 1_565 S
O644 C617 1.289 . S
C645 O637 1.258 . S
C645 O638 1.266 . S
Co646 O649 1.970 . S
Co646 N663 1.989 . S
Co646 O671 1.967 . S
Co646 O678 1.920 . S
Co647 O650 1.966 . S
Co647 N656 2.022 1_545 S
Co647 N664 1.993 . S
Co647 O672 1.941 . S
C648 O649 1.258 . S
C648 O650 1.263 . S
O649 Co646 1.970 . S
O649 C648 1.258 . S
O650 Co647 1.966 . S
O650 C648 1.263 . S
C651 O652 1.235 . S
C651 O678 1.289 . S
O652 C651 1.235 . S
C653 C655 1.400 . S
C653 N656 1.351 . S
C653 C658 1.501 . S
C654 C655 1.387 . S
C654 N657 1.341 . S
C655 C653 1.400 . S
C655 C654 1.387 . S
N656 Co647 2.022 1_565 S
N656 C653 1.351 . S
N656 N657 1.365 . S
N657 C654 1.341 . S
N657 N656 1.365 . S
N657 H677 0.862 . S
C658 C653 1.501 . S
C658 H659 0.961 . S
C658 H660 0.961 . S
C658 H661 0.960 . S
H659 C658 0.961 . S
H660 C658 0.961 . S
H661 C658 0.960 . S
C662 N663 1.342 . S
C662 C666 1.401 . S
C662 C667 1.499 . S
N663 Co646 1.989 . S
N663 C662 1.342 . S
N663 N664 1.388 . S
N664 Co647 1.993 . S
N664 N663 1.388 . S
N664 C665 1.346 . S
C665 N664 1.346 . S
C665 C666 1.396 . S
C665 C675 1.510 1_545 S
C666 C662 1.401 . S
C666 C665 1.396 . S
C667 C662 1.499 . S
C667 H668 0.959 . S
C667 H669 0.960 . S
C667 H670 0.961 . S
H668 C667 0.959 . S
H669 C667 0.960 . S
H670 C667 0.961 . S
O671 Co646 1.967 . S
O671 C679 1.258 . S
O672 Co647 1.941 . S
O672 C679 1.266 . S
H673 C675 0.959 . S
H674 C675 0.961 . S
C675 C665 1.510 1_565 S
C675 H673 0.959 . S
C675 H674 0.961 . S
C675 H676 0.960 . S
H676 C675 0.960 . S
H677 N657 0.862 . S
O678 Co646 1.920 . S
O678 C651 1.289 . S
C679 O671 1.258 . S
C679 O672 1.266 . S
Co680 O683 1.970 . S
Co680 N697 1.989 . S
Co680 O705 1.967 . S
Co680 O712 1.920 . S
Co681 O684 1.966 . S
Co681 N690 2.022 1_565 S
Co681 N698 1.993 . S
Co681 O706 1.941 . S
C682 O683 1.258 . S
C682 O684 1.263 . S
O683 Co680 1.970 . S
O683 C682 1.258 . S
O684 Co681 1.966 . S
O684 C682 1.263 . S
C685 O686 1.235 . S
C685 O712 1.289 . S
O686 C685 1.235 . S
C687 C689 1.400 . S
C687 N690 1.351 . S
C687 C692 1.501 . S
C688 C689 1.387 . S
C688 N691 1.341 . S
C689 C687 1.400 . S
C689 C688 1.387 . S
N690 Co681 2.022 1_545 S
N690 C687 1.351 . S
N690 N691 1.365 . S
N691 C688 1.341 . S
N691 N690 1.365 . S
N691 H711 0.862 . S
C692 C687 1.501 . S
C692 H693 0.961 . S
C692 H694 0.961 . S
C692 H695 0.960 . S
H693 C692 0.961 . S
H694 C692 0.961 . S
H695 C692 0.960 . S
C696 N697 1.342 . S
C696 C700 1.401 . S
C696 C701 1.499 . S
N697 Co680 1.989 . S
N697 C696 1.342 . S
N697 N698 1.388 . S
N698 Co681 1.993 . S
N698 N697 1.388 . S
N698 C699 1.346 . S
C699 N698 1.346 . S
C699 C700 1.396 . S
C699 C709 1.510 1_565 S
C700 C696 1.401 . S
C700 C699 1.396 . S
C701 C696 1.499 . S
C701 H702 0.959 . S
C701 H703 0.960 . S
C701 H704 0.961 . S
H702 C701 0.959 . S
H703 C701 0.960 . S
H704 C701 0.961 . S
O705 Co680 1.967 . S
O705 C713 1.258 . S
O706 Co681 1.941 . S
O706 C713 1.266 . S
H707 C709 0.959 . S
H708 C709 0.961 . S
C709 C699 1.510 1_545 S
C709 H707 0.959 . S
C709 H708 0.961 . S
C709 H710 0.960 . S
H710 C709 0.960 . S
H711 N691 0.862 . S
O712 Co680 1.920 . S
O712 C685 1.289 . S
C713 O705 1.258 . S
C713 O706 1.266 . S
Co714 O717 1.970 . S
Co714 N731 1.989 . S
Co714 O739 1.967 . S
Co714 O746 1.920 1_565 S
Co715 O718 1.966 . S
Co715 N724 2.022 . S
Co715 N732 1.993 . S
Co715 O740 1.941 . S
C716 O717 1.258 . S
C716 O718 1.263 . S
O717 Co714 1.970 . S
O717 C716 1.258 . S
O718 Co715 1.966 . S
O718 C716 1.263 . S
C719 O720 1.235 . S
C719 O746 1.289 . S
O720 C719 1.235 . S
C721 C723 1.400 . S
C721 N724 1.351 . S
C721 C726 1.501 . S
C722 C723 1.387 . S
C722 N725 1.341 . S
C723 C721 1.400 . S
C723 C722 1.387 . S
N724 Co715 2.022 . S
N724 C721 1.351 . S
N724 N725 1.365 . S
N725 C722 1.341 . S
N725 N724 1.365 . S
N725 H745 0.862 . S
C726 C721 1.501 . S
C726 H727 0.961 . S
C726 H728 0.961 . S
C726 H729 0.960 . S
H727 C726 0.961 . S
H728 C726 0.961 . S
H729 C726 0.960 . S
C730 N731 1.342 . S
C730 C734 1.401 . S
C730 C735 1.499 1_565 S
N731 Co714 1.989 . S
N731 C730 1.342 . S
N731 N732 1.388 . S
N732 Co715 1.993 . S
N732 N731 1.388 . S
N732 C733 1.346 . S
C733 N732 1.346 . S
C733 C734 1.396 . S
C733 C743 1.510 . S
C734 C730 1.401 . S
C734 C733 1.396 . S
C735 C730 1.499 1_545 S
C735 H736 0.959 . S
C735 H737 0.960 . S
C735 H738 0.961 . S
H736 C735 0.959 . S
H737 C735 0.960 . S
H738 C735 0.961 . S
O739 Co714 1.967 . S
O739 C747 1.258 . S
O740 Co715 1.941 . S
O740 C747 1.266 . S
H741 C743 0.959 . S
H742 C743 0.961 . S
C743 C733 1.510 . S
C743 H741 0.959 . S
C743 H742 0.961 . S
C743 H744 0.960 . S
H744 C743 0.960 . S
H745 N725 0.862 . S
O746 Co714 1.920 1_545 S
O746 C719 1.289 . S
C747 O739 1.258 . S
C747 O740 1.266 . S
Co748 O751 1.970 . S
Co748 N765 1.989 . S
Co748 O773 1.967 . S
Co748 O780 1.920 1_565 S
Co749 O752 1.966 . S
Co749 N758 2.022 . S
Co749 N766 1.993 . S
Co749 O774 1.941 . S
C750 O751 1.258 . S
C750 O752 1.263 . S
O751 Co748 1.970 . S
O751 C750 1.258 . S
O752 Co749 1.966 . S
O752 C750 1.263 . S
C753 O754 1.235 . S
C753 O780 1.289 . S
O754 C753 1.235 . S
C755 C757 1.400 . S
C755 N758 1.351 . S
C755 C760 1.501 . S
C756 C757 1.387 . S
C756 N759 1.341 . S
C757 C755 1.400 . S
C757 C756 1.387 . S
N758 Co749 2.022 . S
N758 C755 1.351 . S
N758 N759 1.365 . S
N759 C756 1.341 . S
N759 N758 1.365 . S
N759 H779 0.862 . S
C760 C755 1.501 . S
C760 H761 0.961 . S
C760 H762 0.961 . S
C760 H763 0.960 . S
H761 C760 0.961 . S
H762 C760 0.961 . S
H763 C760 0.960 . S
C764 N765 1.342 . S
C764 C768 1.401 . S
C764 C769 1.499 1_565 S
N765 Co748 1.989 . S
N765 C764 1.342 . S
N765 N766 1.388 . S
N766 Co749 1.993 . S
N766 N765 1.388 . S
N766 C767 1.346 . S
C767 N766 1.346 . S
C767 C768 1.396 . S
C767 C777 1.510 . S
C768 C764 1.401 . S
C768 C767 1.396 . S
C769 C764 1.499 1_545 S
C769 H770 0.959 . S
C769 H771 0.960 . S
C769 H772 0.961 . S
H770 C769 0.959 . S
H771 C769 0.960 . S
H772 C769 0.961 . S
O773 Co748 1.967 . S
O773 C781 1.258 . S
O774 Co749 1.941 . S
O774 C781 1.266 . S
H775 C777 0.959 . S
H776 C777 0.961 . S
C777 C767 1.510 . S
C777 H775 0.959 . S
C777 H776 0.961 . S
C777 H778 0.960 . S
H778 C777 0.960 . S
H779 N759 0.862 . S
O780 Co748 1.920 1_545 S
O780 C753 1.289 . S
C781 O773 1.258 . S
C781 O774 1.266 . S
Co782 O785 1.970 . S
Co782 N799 1.989 . S
Co782 O807 1.967 . S
Co782 O814 1.920 . S
Co783 O786 1.966 . S
Co783 N792 2.022 1_565 S
Co783 N800 1.993 . S
Co783 O808 1.941 . S
C784 O785 1.258 . S
C784 O786 1.263 . S
O785 Co782 1.970 . S
O785 C784 1.258 . S
O786 Co783 1.966 . S
O786 C784 1.263 . S
C787 O788 1.235 . S
C787 O814 1.289 . S
O788 C787 1.235 . S
C789 C791 1.400 . S
C789 N792 1.351 . S
C789 C794 1.501 . S
C790 C791 1.387 . S
C790 N793 1.341 . S
C791 C789 1.400 . S
C791 C790 1.387 . S
N792 Co783 2.022 1_545 S
N792 C789 1.351 . S
N792 N793 1.365 . S
N793 C790 1.341 . S
N793 N792 1.365 . S
N793 H813 0.862 . S
C794 C789 1.501 . S
C794 H795 0.961 . S
C794 H796 0.961 . S
C794 H797 0.960 . S
H795 C794 0.961 . S
H796 C794 0.961 . S
H797 C794 0.960 . S
C798 N799 1.342 . S
C798 C802 1.401 . S
C798 C803 1.499 . S
N799 Co782 1.989 . S
N799 C798 1.342 . S
N799 N800 1.388 . S
N800 Co783 1.993 . S
N800 N799 1.388 . S
N800 C801 1.346 . S
C801 N800 1.346 . S
C801 C802 1.396 . S
C801 C811 1.510 1_565 S
C802 C798 1.401 . S
C802 C801 1.396 . S
C803 C798 1.499 . S
C803 H804 0.959 . S
C803 H805 0.960 . S
C803 H806 0.961 . S
H804 C803 0.959 . S
H805 C803 0.960 . S
H806 C803 0.961 . S
O807 Co782 1.967 . S
O807 C815 1.258 . S
O808 Co783 1.941 . S
O808 C815 1.266 . S
H809 C811 0.959 . S
H810 C811 0.961 . S
C811 C801 1.510 1_545 S
C811 H809 0.959 . S
C811 H810 0.961 . S
C811 H812 0.960 . S
H812 C811 0.960 . S
H813 N793 0.862 . S
O814 Co782 1.920 . S
O814 C787 1.289 . S
C815 O807 1.258 . S
C815 O808 1.266 . S
Co816 O819 1.970 . S
Co816 N833 1.989 . S
Co816 O841 1.967 . S
Co816 O848 1.920 . S
Co817 O820 1.966 . S
Co817 N826 2.022 . S
Co817 N834 1.993 . S
Co817 O842 1.941 . S
C818 O819 1.258 . S
C818 O820 1.263 . S
O819 Co816 1.970 . S
O819 C818 1.258 . S
O820 Co817 1.966 . S
O820 C818 1.263 . S
C821 O822 1.235 . S
C821 O848 1.289 . S
O822 C821 1.235 . S
C823 C825 1.400 . S
C823 N826 1.351 . S
C823 C828 1.501 . S
C824 C825 1.387 . S
C824 N827 1.341 . S
C825 C823 1.400 . S
C825 C824 1.387 . S
N826 Co817 2.022 . S
N826 C823 1.351 . S
N826 N827 1.365 . S
N827 C824 1.341 . S
N827 N826 1.365 . S
N827 H847 0.862 . S
C828 C823 1.501 . S
C828 H829 0.961 . S
C828 H830 0.961 . S
C828 H831 0.960 . S
H829 C828 0.961 . S
H830 C828 0.961 . S
H831 C828 0.960 . S
C832 N833 1.342 . S
C832 C836 1.401 . S
C832 C837 1.499 . S
N833 Co816 1.989 . S
N833 C832 1.342 . S
N833 N834 1.388 . S
N834 Co817 1.993 . S
N834 N833 1.388 . S
N834 C835 1.346 . S
C835 N834 1.346 . S
C835 C836 1.396 . S
C835 C845 1.510 . S
C836 C832 1.401 . S
C836 C835 1.396 . S
C837 C832 1.499 . S
C837 H838 0.959 . S
C837 H839 0.960 . S
C837 H840 0.961 . S
H838 C837 0.959 . S
H839 C837 0.960 . S
H840 C837 0.961 . S
O841 Co816 1.967 . S
O841 C849 1.258 . S
O842 Co817 1.941 . S
O842 C849 1.266 . S
H843 C845 0.959 . S
H844 C845 0.961 . S
C845 C835 1.510 . S
C845 H843 0.959 . S
C845 H844 0.961 . S
C845 H846 0.960 . S
H846 C845 0.960 . S
H847 N827 0.862 . S
O848 Co816 1.920 . S
O848 C821 1.289 . S
C849 O841 1.258 . S
C849 O842 1.266 . S
Co850 O853 1.970 . S
Co850 N867 1.989 . S
Co850 O875 1.967 . S
Co850 O882 1.920 . S
Co851 O854 1.966 . S
Co851 N860 2.022 . S
Co851 N868 1.993 . S
Co851 O876 1.941 . S
C852 O853 1.258 . S
C852 O854 1.263 . S
O853 Co850 1.970 . S
O853 C852 1.258 . S
O854 Co851 1.966 . S
O854 C852 1.263 . S
C855 O856 1.235 . S
C855 O882 1.289 . S
O856 C855 1.235 . S
C857 C859 1.400 . S
C857 N860 1.351 . S
C857 C862 1.501 . S
C858 C859 1.387 . S
C858 N861 1.341 . S
C859 C857 1.400 . S
C859 C858 1.387 . S
N860 Co851 2.022 . S
N860 C857 1.351 . S
N860 N861 1.365 . S
N861 C858 1.341 . S
N861 N860 1.365 . S
N861 H881 0.862 . S
C862 C857 1.501 . S
C862 H863 0.961 . S
C862 H864 0.961 . S
C862 H865 0.960 . S
H863 C862 0.961 . S
H864 C862 0.961 . S
H865 C862 0.960 . S
C866 N867 1.342 . S
C866 C870 1.401 . S
C866 C871 1.499 . S
N867 Co850 1.989 . S
N867 C866 1.342 . S
N867 N868 1.388 . S
N868 Co851 1.993 . S
N868 N867 1.388 . S
N868 C869 1.346 . S
C869 N868 1.346 . S
C869 C870 1.396 . S
C869 C879 1.510 . S
C870 C866 1.401 . S
C870 C869 1.396 . S
C871 C866 1.499 . S
C871 H872 0.959 . S
C871 H873 0.960 . S
C871 H874 0.961 . S
H872 C871 0.959 . S
H873 C871 0.960 . S
H874 C871 0.961 . S
O875 Co850 1.967 . S
O875 C883 1.258 . S
O876 Co851 1.941 . S
O876 C883 1.266 . S
H877 C879 0.959 . S
H878 C879 0.961 . S
C879 C869 1.510 . S
C879 H877 0.959 . S
C879 H878 0.961 . S
C879 H880 0.960 . S
H880 C879 0.960 . S
H881 N861 0.862 . S
O882 Co850 1.920 . S
O882 C855 1.289 . S
C883 O875 1.258 . S
C883 O876 1.266 . S
Co884 O887 1.970 . S
Co884 N901 1.989 . S
Co884 O909 1.967 . S
Co884 O916 1.920 . S
Co885 O888 1.966 . S
Co885 N894 2.022 . S
Co885 N902 1.993 . S
Co885 O910 1.941 . S
C886 O887 1.258 . S
C886 O888 1.263 . S
O887 Co884 1.970 . S
O887 C886 1.258 . S
O888 Co885 1.966 . S
O888 C886 1.263 . S
C889 O890 1.235 . S
C889 O916 1.289 . S
O890 C889 1.235 . S
C891 C893 1.400 . S
C891 N894 1.351 . S
C891 C896 1.501 . S
C892 C893 1.387 . S
C892 N895 1.341 . S
C893 C891 1.400 . S
C893 C892 1.387 . S
N894 Co885 2.022 . S
N894 C891 1.351 . S
N894 N895 1.365 . S
N895 C892 1.341 . S
N895 N894 1.365 . S
N895 H915 0.862 . S
C896 C891 1.501 . S
C896 H897 0.961 . S
C896 H898 0.961 . S
C896 H899 0.960 . S
H897 C896 0.961 . S
H898 C896 0.961 . S
H899 C896 0.960 . S
C900 N901 1.342 . S
C900 C904 1.401 . S
C900 C905 1.499 . S
N901 Co884 1.989 . S
N901 C900 1.342 . S
N901 N902 1.388 . S
N902 Co885 1.993 . S
N902 N901 1.388 . S
N902 C903 1.346 . S
C903 N902 1.346 . S
C903 C904 1.396 . S
C903 C913 1.510 . S
C904 C900 1.401 . S
C904 C903 1.396 . S
C905 C900 1.499 . S
C905 H906 0.959 . S
C905 H907 0.960 . S
C905 H908 0.961 . S
H906 C905 0.959 . S
H907 C905 0.960 . S
H908 C905 0.961 . S
O909 Co884 1.967 . S
O909 C917 1.258 . S
O910 Co885 1.941 . S
O910 C917 1.266 . S
H911 C913 0.959 . S
H912 C913 0.961 . S
C913 C903 1.510 . S
C913 H911 0.959 . S
C913 H912 0.961 . S
C913 H914 0.960 . S
H914 C913 0.960 . S
H915 N895 0.862 . S
O916 Co884 1.920 . S
O916 C889 1.289 . S
C917 O909 1.258 . S
C917 O910 1.266 . S
Co918 O921 1.970 . S
Co918 N935 1.989 . S
Co918 O943 1.967 . S
Co918 O950 1.920 . S
Co919 O922 1.966 . S
Co919 N928 2.022 . S
Co919 N936 1.993 . S
Co919 O944 1.941 . S
C920 O921 1.258 . S
C920 O922 1.263 . S
O921 Co918 1.970 . S
O921 C920 1.258 . S
O922 Co919 1.966 . S
O922 C920 1.263 . S
C923 O924 1.235 . S
C923 O950 1.289 . S
O924 C923 1.235 . S
C925 C927 1.400 . S
C925 N928 1.351 . S
C925 C930 1.501 . S
C926 C927 1.387 . S
C926 N929 1.341 . S
C927 C925 1.400 . S
C927 C926 1.387 . S
N928 Co919 2.022 . S
N928 C925 1.351 . S
N928 N929 1.365 . S
N929 C926 1.341 . S
N929 N928 1.365 . S
N929 H949 0.862 . S
C930 C925 1.501 . S
C930 H931 0.961 . S
C930 H932 0.961 . S
C930 H933 0.960 . S
H931 C930 0.961 . S
H932 C930 0.961 . S
H933 C930 0.960 . S
C934 N935 1.342 . S
C934 C938 1.401 . S
C934 C939 1.499 . S
N935 Co918 1.989 . S
N935 C934 1.342 . S
N935 N936 1.388 . S
N936 Co919 1.993 . S
N936 N935 1.388 . S
N936 C937 1.346 . S
C937 N936 1.346 . S
C937 C938 1.396 . S
C937 C947 1.510 . S
C938 C934 1.401 . S
C938 C937 1.396 . S
C939 C934 1.499 . S
C939 H940 0.959 . S
C939 H941 0.960 . S
C939 H942 0.961 . S
H940 C939 0.959 . S
H941 C939 0.960 . S
H942 C939 0.961 . S
O943 Co918 1.967 . S
O943 C951 1.258 . S
O944 Co919 1.941 . S
O944 C951 1.266 . S
H945 C947 0.959 . S
H946 C947 0.961 . S
C947 C937 1.510 . S
C947 H945 0.959 . S
C947 H946 0.961 . S
C947 H948 0.960 . S
H948 C947 0.960 . S
H949 N929 0.862 . S
O950 Co918 1.920 . S
O950 C923 1.289 . S
C951 O943 1.258 . S
C951 O944 1.266 . S
Co952 O955 1.970 . S
Co952 N969 1.989 . S
Co952 O977 1.967 . S
Co952 O984 1.920 . S
Co953 O956 1.966 . S
Co953 N962 2.022 . S
Co953 N970 1.993 . S
Co953 O978 1.941 . S
C954 O955 1.258 . S
C954 O956 1.263 . S
O955 Co952 1.970 . S
O955 C954 1.258 . S
O956 Co953 1.966 . S
O956 C954 1.263 . S
C957 O958 1.235 . S
C957 O984 1.289 . S
O958 C957 1.235 . S
C959 C961 1.400 . S
C959 N962 1.351 . S
C959 C964 1.501 . S
C960 C961 1.387 . S
C960 N963 1.341 . S
C961 C959 1.400 . S
C961 C960 1.387 . S
N962 Co953 2.022 . S
N962 C959 1.351 . S
N962 N963 1.365 . S
N963 C960 1.341 . S
N963 N962 1.365 . S
N963 H983 0.862 . S
C964 C959 1.501 . S
C964 H965 0.961 . S
C964 H966 0.961 . S
C964 H967 0.960 . S
H965 C964 0.961 . S
H966 C964 0.961 . S
H967 C964 0.960 . S
C968 N969 1.342 . S
C968 C972 1.401 . S
C968 C973 1.499 . S
N969 Co952 1.989 . S
N969 C968 1.342 . S
N969 N970 1.388 . S
N970 Co953 1.993 . S
N970 N969 1.388 . S
N970 C971 1.346 . S
C971 N970 1.346 . S
C971 C972 1.396 . S
C971 C981 1.510 . S
C972 C968 1.401 . S
C972 C971 1.396 . S
C973 C968 1.499 . S
C973 H974 0.959 . S
C973 H975 0.960 . S
C973 H976 0.961 . S
H974 C973 0.959 . S
H975 C973 0.960 . S
H976 C973 0.961 . S
O977 Co952 1.967 . S
O977 C985 1.258 . S
O978 Co953 1.941 . S
O978 C985 1.266 . S
H979 C981 0.959 . S
H980 C981 0.961 . S
C981 C971 1.510 . S
C981 H979 0.959 . S
C981 H980 0.961 . S
C981 H982 0.960 . S
H982 C981 0.960 . S
H983 N963 0.862 . S
O984 Co952 1.920 . S
O984 C957 1.289 . S
C985 O977 1.258 . S
C985 O978 1.266 . S
Co986 O989 1.970 . S
Co986 N1003 1.989 . S
Co986 O1011 1.967 . S
Co986 O1018 1.920 . S
Co987 O990 1.966 . S
Co987 N996 2.022 . S
Co987 N1004 1.993 . S
Co987 O1012 1.941 . S
C988 O989 1.258 . S
C988 O990 1.263 . S
O989 Co986 1.970 . S
O989 C988 1.258 . S
O990 Co987 1.966 . S
O990 C988 1.263 . S
C991 O992 1.235 . S
C991 O1018 1.289 . S
O992 C991 1.235 . S
C993 C995 1.400 . S
C993 N996 1.351 . S
C993 C998 1.501 . S
C994 C995 1.387 . S
C994 N997 1.341 . S
C995 C993 1.400 . S
C995 C994 1.387 . S
N996 Co987 2.022 . S
N996 C993 1.351 . S
N996 N997 1.365 . S
N997 C994 1.341 . S
N997 N996 1.365 . S
N997 H1017 0.862 . S
C998 C993 1.501 . S
C998 H999 0.961 . S
C998 H1000 0.961 . S
C998 H1001 0.960 . S
H999 C998 0.961 . S
H1000 C998 0.961 . S
H1001 C998 0.960 . S
C1002 N1003 1.342 . S
C1002 C1006 1.401 . S
C1002 C1007 1.499 . S
N1003 Co986 1.989 . S
N1003 C1002 1.342 . S
N1003 N1004 1.388 . S
N1004 Co987 1.993 . S
N1004 N1003 1.388 . S
N1004 C1005 1.346 . S
C1005 N1004 1.346 . S
C1005 C1006 1.396 . S
C1005 C1015 1.510 . S
C1006 C1002 1.401 . S
C1006 C1005 1.396 . S
C1007 C1002 1.499 . S
C1007 H1008 0.959 . S
C1007 H1009 0.960 . S
C1007 H1010 0.961 . S
H1008 C1007 0.959 . S
H1009 C1007 0.960 . S
H1010 C1007 0.961 . S
O1011 Co986 1.967 . S
O1011 C1019 1.258 . S
O1012 Co987 1.941 . S
O1012 C1019 1.266 . S
H1013 C1015 0.959 . S
H1014 C1015 0.961 . S
C1015 C1005 1.510 . S
C1015 H1013 0.959 . S
C1015 H1014 0.961 . S
C1015 H1016 0.960 . S
H1016 C1015 0.960 . S
H1017 N997 0.862 . S
O1018 Co986 1.920 . S
O1018 C991 1.289 . S
C1019 O1011 1.258 . S
C1019 O1012 1.266 . S
Co1020 O1023 1.970 . S
Co1020 N1037 1.989 . S
Co1020 O1045 1.967 . S
Co1020 O1052 1.920 . S
Co1021 O1024 1.966 . S
Co1021 N1030 2.022 . S
Co1021 N1038 1.993 . S
Co1021 O1046 1.941 . S
C1022 O1023 1.258 . S
C1022 O1024 1.263 . S
O1023 Co1020 1.970 . S
O1023 C1022 1.258 . S
O1024 Co1021 1.966 . S
O1024 C1022 1.263 . S
C1025 O1026 1.235 . S
C1025 O1052 1.289 . S
O1026 C1025 1.235 . S
C1027 C1029 1.400 . S
C1027 N1030 1.351 . S
C1027 C1032 1.501 . S
C1028 C1029 1.387 . S
C1028 N1031 1.341 . S
C1029 C1027 1.400 . S
C1029 C1028 1.387 . S
N1030 Co1021 2.022 . S
N1030 C1027 1.351 . S
N1030 N1031 1.365 . S
N1031 C1028 1.341 . S
N1031 N1030 1.365 . S
N1031 H1051 0.862 . S
C1032 C1027 1.501 . S
C1032 H1033 0.961 . S
C1032 H1034 0.961 . S
C1032 H1035 0.960 . S
H1033 C1032 0.961 . S
H1034 C1032 0.961 . S
H1035 C1032 0.960 . S
C1036 N1037 1.342 . S
C1036 C1040 1.401 . S
C1036 C1041 1.499 . S
N1037 Co1020 1.989 . S
N1037 C1036 1.342 . S
N1037 N1038 1.388 . S
N1038 Co1021 1.993 . S
N1038 N1037 1.388 . S
N1038 C1039 1.346 . S
C1039 N1038 1.346 . S
C1039 C1040 1.396 . S
C1039 C1049 1.510 . S
C1040 C1036 1.401 . S
C1040 C1039 1.396 . S
C1041 C1036 1.499 . S
C1041 H1042 0.959 . S
C1041 H1043 0.960 . S
C1041 H1044 0.961 . S
H1042 C1041 0.959 . S
H1043 C1041 0.960 . S
H1044 C1041 0.961 . S
O1045 Co1020 1.967 . S
O1045 C1053 1.258 . S
O1046 Co1021 1.941 . S
O1046 C1053 1.266 . S
H1047 C1049 0.959 . S
H1048 C1049 0.961 . S
C1049 C1039 1.510 . S
C1049 H1047 0.959 . S
C1049 H1048 0.961 . S
C1049 H1050 0.960 . S
H1050 C1049 0.960 . S
H1051 N1031 0.862 . S
O1052 Co1020 1.920 . S
O1052 C1025 1.289 . S
C1053 O1045 1.258 . S
C1053 O1046 1.266 . S
Co1054 O1057 1.970 . S
Co1054 N1071 1.989 . S
Co1054 O1079 1.967 . S
Co1054 O1086 1.920 . S
Co1055 O1058 1.966 . S
Co1055 N1064 2.022 . S
Co1055 N1072 1.993 . S
Co1055 O1080 1.941 . S
C1056 O1057 1.258 . S
C1056 O1058 1.263 . S
O1057 Co1054 1.970 . S
O1057 C1056 1.258 . S
O1058 Co1055 1.966 . S
O1058 C1056 1.263 . S
C1059 O1060 1.235 . S
C1059 O1086 1.289 . S
O1060 C1059 1.235 . S
C1061 C1063 1.400 . S
C1061 N1064 1.351 . S
C1061 C1066 1.501 . S
C1062 C1063 1.387 . S
C1062 N1065 1.341 . S
C1063 C1061 1.400 . S
C1063 C1062 1.387 . S
N1064 Co1055 2.022 . S
N1064 C1061 1.351 . S
N1064 N1065 1.365 . S
N1065 C1062 1.341 . S
N1065 N1064 1.365 . S
N1065 H1085 0.862 . S
C1066 C1061 1.501 . S
C1066 H1067 0.961 . S
C1066 H1068 0.961 . S
C1066 H1069 0.960 . S
H1067 C1066 0.961 . S
H1068 C1066 0.961 . S
H1069 C1066 0.960 . S
C1070 N1071 1.342 . S
C1070 C1074 1.401 . S
C1070 C1075 1.499 . S
N1071 Co1054 1.989 . S
N1071 C1070 1.342 . S
N1071 N1072 1.388 . S
N1072 Co1055 1.993 . S
N1072 N1071 1.388 . S
N1072 C1073 1.346 . S
C1073 N1072 1.346 . S
C1073 C1074 1.396 . S
C1073 C1083 1.510 . S
C1074 C1070 1.401 . S
C1074 C1073 1.396 . S
C1075 C1070 1.499 . S
C1075 H1076 0.959 . S
C1075 H1077 0.960 . S
C1075 H1078 0.961 . S
H1076 C1075 0.959 . S
H1077 C1075 0.960 . S
H1078 C1075 0.961 . S
O1079 Co1054 1.967 . S
O1079 C1087 1.258 . S
O1080 Co1055 1.941 . S
O1080 C1087 1.266 . S
H1081 C1083 0.959 . S
H1082 C1083 0.961 . S
C1083 C1073 1.510 . S
C1083 H1081 0.959 . S
C1083 H1082 0.961 . S
C1083 H1084 0.960 . S
H1084 C1083 0.960 . S
H1085 N1065 0.862 . S
O1086 Co1054 1.920 . S
O1086 C1059 1.289 . S
C1087 O1079 1.258 . S
C1087 O1080 1.266 . S
H1088 C1100 0.930 . S
H1089 C1102 0.930 . S
H1090 C1103 0.930 . S
H1091 C1107 0.959 . S
H1092 C1107 0.959 . S
H1093 C1107 0.961 . S
H1094 C1108 0.960 1_565 S
H1095 C1108 0.961 1_565 S
H1096 C1108 0.959 . S
H1097 C1111 0.929 . S
H1098 C1112 0.931 . S
H1099 C1114 0.930 . S
C1100 H1088 0.930 . S
C1100 C1101 1.399 . S
C1100 C1105 1.399 . S
C1101 C1100 1.399 . S
C1101 C1102 1.376 . S
C1102 H1089 0.930 . S
C1102 C1101 1.376 . S
C1102 C1103 1.388 . S
C1103 H1090 0.930 . S
C1103 C1102 1.388 . S
C1103 C1104 1.390 . S
C1104 C1103 1.390 . S
C1104 C1105 1.394 . S
C1104 C1110 1.465 . S
C1105 C1100 1.399 . S
C1105 C1104 1.394 . S
C1105 C1106 1.516 . S
C1106 C1105 1.516 . S
C1106 C1107 1.502 1_545 S
C1106 C1108 1.561 . S
C1106 C1109 1.526 . S
C1107 H1091 0.959 . S
C1107 H1092 0.959 . S
C1107 H1093 0.961 . S
C1107 C1106 1.502 1_565 S
C1108 H1094 0.960 1_545 S
C1108 H1095 0.961 1_545 S
C1108 H1096 0.959 . S
C1108 C1106 1.561 . S
C1109 C1106 1.526 . S
C1109 C1110 1.396 . S
C1109 C1114 1.390 . S
C1110 C1104 1.465 . S
C1110 C1109 1.396 . S
C1110 C1111 1.399 . S
C1111 H1097 0.929 . S
C1111 C1110 1.399 . S
C1111 C1112 1.385 . S
C1112 H1098 0.931 . S
C1112 C1111 1.385 . S
C1112 C1113 1.389 . S
C1113 C1112 1.389 . S
C1113 C1114 1.387 . S
C1114 H1099 0.930 . S
C1114 C1109 1.390 . S
C1114 C1113 1.387 . S
H1115 C1127 0.930 . S
H1116 C1129 0.930 . S
H1117 C1130 0.930 . S
H1118 C1134 0.959 . S
H1119 C1134 0.959 1_565 S
H1120 C1134 0.961 1_565 S
H1121 C1135 0.960 . S
H1122 C1135 0.961 . S
H1123 C1135 0.959 . S
H1124 C1138 0.929 . S
H1125 C1139 0.931 . S
H1126 C1141 0.930 . S
C1127 H1115 0.930 . S
C1127 C1128 1.399 . S
C1127 C1132 1.399 . S
C1128 C1127 1.399 . S
C1128 C1129 1.376 . S
C1129 H1116 0.930 . S
C1129 C1128 1.376 . S
C1129 C1130 1.388 . S
C1130 H1117 0.930 . S
C1130 C1129 1.388 . S
C1130 C1131 1.390 . S
C1131 C1130 1.390 . S
C1131 C1132 1.394 . S
C1131 C1137 1.465 . S
C1132 C1127 1.399 . S
C1132 C1131 1.394 . S
C1132 C1133 1.516 . S
C1133 C1132 1.516 . S
C1133 C1134 1.502 . S
C1133 C1135 1.561 1_545 S
C1133 C1136 1.526 . S
C1134 H1118 0.959 . S
C1134 H1119 0.959 1_545 S
C1134 H1120 0.961 1_545 S
C1134 C1133 1.502 . S
C1135 H1121 0.960 . S
C1135 H1122 0.961 . S
C1135 H1123 0.959 . S
C1135 C1133 1.561 1_565 S
C1136 C1133 1.526 . S
C1136 C1137 1.396 . S
C1136 C1141 1.390 . S
C1137 C1131 1.465 . S
C1137 C1136 1.396 . S
C1137 C1138 1.399 . S
C1138 H1124 0.929 . S
C1138 C1137 1.399 . S
C1138 C1139 1.385 . S
C1139 H1125 0.931 . S
C1139 C1138 1.385 . S
C1139 C1140 1.389 . S
C1140 C1139 1.389 . S
C1140 C1141 1.387 . S
C1141 H1126 0.930 . S
C1141 C1136 1.390 . S
C1141 C1140 1.387 . S
H1142 C1154 0.930 . S
H1143 C1156 0.930 . S
H1144 C1157 0.930 . S
H1145 C1161 0.957 1_565 S
H1146 C1161 0.962 . S
H1147 C1161 0.962 . S
H1148 C1162 0.960 . S
H1149 C1162 0.961 . S
H1150 C1162 0.952 1_565 S
H1151 C1165 0.929 . S
H1152 C1166 0.931 . S
H1153 C1168 0.930 . S
C1154 H1142 0.930 . S
C1154 C1155 1.399 . S
C1154 C1159 1.399 . S
C1155 C1154 1.399 . S
C1155 C1156 1.376 . S
C1156 H1143 0.930 . S
C1156 C1155 1.376 . S
C1156 C1157 1.388 . S
C1157 H1144 0.930 . S
C1157 C1156 1.388 . S
C1157 C1158 1.390 . S
C1158 C1157 1.390 . S
C1158 C1159 1.394 . S
C1158 C1164 1.465 . S
C1159 C1154 1.399 . S
C1159 C1158 1.394 . S
C1159 C1160 1.516 . S
C1160 C1159 1.516 . S
C1160 C1161 1.500 1_565 S
C1160 C1162 1.561 1_565 S
C1160 C1163 1.526 . S
C1161 H1145 0.957 1_545 S
C1161 H1146 0.962 . S
C1161 H1147 0.962 . S
C1161 C1160 1.500 1_545 S
C1162 H1148 0.960 . S
C1162 H1149 0.961 . S
C1162 H1150 0.952 1_545 S
C1162 C1160 1.561 1_545 S
C1163 C1160 1.526 . S
C1163 C1164 1.396 . S
C1163 C1168 1.390 . S
C1164 C1158 1.465 . S
C1164 C1163 1.396 . S
C1164 C1165 1.399 . S
C1165 H1151 0.929 . S
C1165 C1164 1.399 . S
C1165 C1166 1.385 . S
C1166 H1152 0.931 . S
C1166 C1165 1.385 . S
C1166 C1167 1.389 . S
C1167 C1166 1.389 . S
C1167 C1168 1.387 . S
C1168 H1153 0.930 . S
C1168 C1163 1.390 . S
C1168 C1167 1.387 . S
H1169 C1181 0.930 . S
H1170 C1183 0.930 . S
H1171 C1184 0.930 . S
H1172 C1188 0.959 . S
H1173 C1188 0.959 . S
H1174 C1188 0.961 . S
H1175 C1189 0.960 . S
H1176 C1189 0.961 . S
H1177 C1189 0.959 . S
H1178 C1192 0.929 1_545 S
H1179 C1193 0.931 . S
H1180 C1195 0.930 . S
C1181 H1169 0.930 . S
C1181 C1182 1.399 . S
C1181 C1186 1.399 . S
C1182 C1181 1.399 . S
C1182 C1183 1.376 . S
C1183 H1170 0.930 . S
C1183 C1182 1.376 . S
C1183 C1184 1.388 . S
C1184 H1171 0.930 . S
C1184 C1183 1.388 . S
C1184 C1185 1.390 . S
C1185 C1184 1.390 . S
C1185 C1186 1.394 . S
C1185 C1191 1.465 . S
C1186 C1181 1.399 . S
C1186 C1185 1.394 . S
C1186 C1187 1.516 . S
C1187 C1186 1.516 . S
C1187 C1188 1.502 . S
C1187 C1189 1.561 . S
C1187 C1190 1.526 . S
C1188 H1172 0.959 . S
C1188 H1173 0.959 . S
C1188 H1174 0.961 . S
C1188 C1187 1.502 . S
C1189 H1175 0.960 . S
C1189 H1176 0.961 . S
C1189 H1177 0.959 . S
C1189 C1187 1.561 . S
C1190 C1187 1.526 . S
C1190 C1191 1.396 . S
C1190 C1195 1.390 . S
C1191 C1185 1.465 . S
C1191 C1190 1.396 . S
C1191 C1192 1.399 . S
C1192 H1178 0.929 1_565 S
C1192 C1191 1.399 . S
C1192 C1193 1.385 . S
C1193 H1179 0.931 . S
C1193 C1192 1.385 . S
C1193 C1194 1.389 . S
C1194 C1193 1.389 . S
C1194 C1195 1.387 . S
C1195 H1180 0.930 . S
C1195 C1190 1.390 . S
C1195 C1194 1.387 . S
H1196 C1208 0.930 . S
H1197 C1210 0.930 . S
H1198 C1211 0.930 . S
H1199 C1215 0.959 . S
H1200 C1215 0.959 . S
H1201 C1215 0.961 . S
H1202 C1216 0.960 . S
H1203 C1216 0.961 . S
H1204 C1216 0.959 . S
H1205 C1219 0.929 . S
H1206 C1220 0.931 . S
H1207 C1222 0.930 . S
C1208 H1196 0.930 . S
C1208 C1209 1.399 . S
C1208 C1213 1.399 . S
C1209 C1208 1.399 . S
C1209 C1210 1.376 . S
C1210 H1197 0.930 . S
C1210 C1209 1.376 . S
C1210 C1211 1.388 . S
C1211 H1198 0.930 . S
C1211 C1210 1.388 . S
C1211 C1212 1.390 . S
C1212 C1211 1.390 . S
C1212 C1213 1.394 . S
C1212 C1218 1.465 . S
C1213 C1208 1.399 . S
C1213 C1212 1.394 . S
C1213 C1214 1.516 . S
C1214 C1213 1.516 . S
C1214 C1215 1.502 . S
C1214 C1216 1.561 . S
C1214 C1217 1.526 . S
C1215 H1199 0.959 . S
C1215 H1200 0.959 . S
C1215 H1201 0.961 . S
C1215 C1214 1.502 . S
C1216 H1202 0.960 . S
C1216 H1203 0.961 . S
C1216 H1204 0.959 . S
C1216 C1214 1.561 . S
C1217 C1214 1.526 . S
C1217 C1218 1.396 . S
C1217 C1222 1.390 . S
C1218 C1212 1.465 . S
C1218 C1217 1.396 . S
C1218 C1219 1.399 . S
C1219 H1205 0.929 . S
C1219 C1218 1.399 . S
C1219 C1220 1.385 . S
C1220 H1206 0.931 . S
C1220 C1219 1.385 . S
C1220 C1221 1.389 . S
C1221 C1220 1.389 . S
C1221 C1222 1.387 . S
C1222 H1207 0.930 . S
C1222 C1217 1.390 . S
C1222 C1221 1.387 . S
H1223 C1235 0.930 . S
H1224 C1237 0.930 . S
H1225 C1238 0.930 . S
H1226 C1242 0.959 . S
H1227 C1242 0.959 . S
H1228 C1242 0.961 . S
H1229 C1243 0.960 . S
H1230 C1243 0.961 . S
H1231 C1243 0.959 . S
H1232 C1246 0.929 . S
H1233 C1247 0.931 . S
H1234 C1249 0.930 . S
C1235 H1223 0.930 . S
C1235 C1236 1.399 . S
C1235 C1240 1.399 . S
C1236 C1235 1.399 . S
C1236 C1237 1.376 . S
C1237 H1224 0.930 . S
C1237 C1236 1.376 . S
C1237 C1238 1.388 . S
C1238 H1225 0.930 . S
C1238 C1237 1.388 . S
C1238 C1239 1.390 . S
C1239 C1238 1.390 . S
C1239 C1240 1.394 . S
C1239 C1245 1.465 . S
C1240 C1235 1.399 . S
C1240 C1239 1.394 . S
C1240 C1241 1.516 . S
C1241 C1240 1.516 . S
C1241 C1242 1.502 . S
C1241 C1243 1.561 . S
C1241 C1244 1.526 . S
C1242 H1226 0.959 . S
C1242 H1227 0.959 . S
C1242 H1228 0.961 . S
C1242 C1241 1.502 . S
C1243 H1229 0.960 . S
C1243 H1230 0.961 . S
C1243 H1231 0.959 . S
C1243 C1241 1.561 . S
C1244 C1241 1.526 . S
C1244 C1245 1.396 . S
C1244 C1249 1.390 . S
C1245 C1239 1.465 . S
C1245 C1244 1.396 . S
C1245 C1246 1.399 . S
C1246 H1232 0.929 . S
C1246 C1245 1.399 . S
C1246 C1247 1.385 . S
C1247 H1233 0.931 . S
C1247 C1246 1.385 . S
C1247 C1248 1.389 . S
C1248 C1247 1.389 . S
C1248 C1249 1.387 . S
C1249 H1234 0.930 . S
C1249 C1244 1.390 . S
C1249 C1248 1.387 . S
H1250 C1262 0.930 . S
H1251 C1264 0.930 . S
H1252 C1265 0.930 . S
H1253 C1269 0.959 . S
H1254 C1269 0.959 . S
H1255 C1269 0.961 . S
H1256 C1270 0.960 . S
H1257 C1270 0.961 . S
H1258 C1270 0.959 . S
H1259 C1273 0.929 . S
H1260 C1274 0.931 . S
H1261 C1276 0.930 . S
C1262 H1250 0.930 . S
C1262 C1263 1.399 . S
C1262 C1267 1.399 . S
C1263 C1262 1.399 . S
C1263 C1264 1.376 . S
C1264 H1251 0.930 . S
C1264 C1263 1.376 . S
C1264 C1265 1.388 . S
C1265 H1252 0.930 . S
C1265 C1264 1.388 . S
C1265 C1266 1.390 . S
C1266 C1265 1.390 . S
C1266 C1267 1.394 . S
C1266 C1272 1.465 . S
C1267 C1262 1.399 . S
C1267 C1266 1.394 . S
C1267 C1268 1.516 . S
C1268 C1267 1.516 . S
C1268 C1269 1.502 . S
C1268 C1270 1.561 . S
C1268 C1271 1.526 . S
C1269 H1253 0.959 . S
C1269 H1254 0.959 . S
C1269 H1255 0.961 . S
C1269 C1268 1.502 . S
C1270 H1256 0.960 . S
C1270 H1257 0.961 . S
C1270 H1258 0.959 . S
C1270 C1268 1.561 . S
C1271 C1268 1.526 . S
C1271 C1272 1.396 . S
C1271 C1276 1.390 . S
C1272 C1266 1.465 . S
C1272 C1271 1.396 . S
C1272 C1273 1.399 . S
C1273 H1259 0.929 . S
C1273 C1272 1.399 . S
C1273 C1274 1.385 . S
C1274 H1260 0.931 . S
C1274 C1273 1.385 . S
C1274 C1275 1.389 . S
C1275 C1274 1.389 . S
C1275 C1276 1.387 . S
C1276 H1261 0.930 . S
C1276 C1271 1.390 . S
C1276 C1275 1.387 . S
H1277 C1289 0.930 . S
H1278 C1291 0.930 . S
H1279 C1292 0.930 . S
H1280 C1296 0.959 . S
H1281 C1296 0.959 . S
H1282 C1296 0.961 . S
H1283 C1297 0.960 . S
H1284 C1297 0.961 . S
H1285 C1297 0.959 . S
H1286 C1300 0.929 . S
H1287 C1301 0.931 . S
H1288 C1303 0.930 . S
C1289 H1277 0.930 . S
C1289 C1290 1.399 . S
C1289 C1294 1.399 . S
C1290 C1289 1.399 . S
C1290 C1291 1.376 . S
C1291 H1278 0.930 . S
C1291 C1290 1.376 . S
C1291 C1292 1.388 . S
C1292 H1279 0.930 . S
C1292 C1291 1.388 . S
C1292 C1293 1.390 . S
C1293 C1292 1.390 . S
C1293 C1294 1.394 . S
C1293 C1299 1.465 . S
C1294 C1289 1.399 . S
C1294 C1293 1.394 . S
C1294 C1295 1.516 . S
C1295 C1294 1.516 . S
C1295 C1296 1.502 . S
C1295 C1297 1.561 . S
C1295 C1298 1.526 . S
C1296 H1280 0.959 . S
C1296 H1281 0.959 . S
C1296 H1282 0.961 . S
C1296 C1295 1.502 . S
C1297 H1283 0.960 . S
C1297 H1284 0.961 . S
C1297 H1285 0.959 . S
C1297 C1295 1.561 . S
C1298 C1295 1.526 . S
C1298 C1299 1.396 . S
C1298 C1303 1.390 . S
C1299 C1293 1.465 . S
C1299 C1298 1.396 . S
C1299 C1300 1.399 . S
C1300 H1286 0.929 . S
C1300 C1299 1.399 . S
C1300 C1301 1.385 . S
C1301 H1287 0.931 . S
C1301 C1300 1.385 . S
C1301 C1302 1.389 . S
C1302 C1301 1.389 . S
C1302 C1303 1.387 . S
C1303 H1288 0.930 . S
C1303 C1298 1.390 . S
C1303 C1302 1.387 . S
H1304 C1316 0.930 . S
H1305 C1318 0.930 . S
H1306 C1319 0.930 . S
H1307 C1323 0.959 1_545 S
H1308 C1323 0.959 . S
H1309 C1323 0.961 . S
H1310 C1324 0.960 . S
H1311 C1324 0.961 . S
H1312 C1324 0.959 1_545 S
H1313 C1327 0.929 . S
H1314 C1328 0.931 . S
H1315 C1330 0.930 . S
C1316 H1304 0.930 . S
C1316 C1317 1.399 . S
C1316 C1321 1.399 . S
C1317 C1316 1.399 . S
C1317 C1318 1.376 . S
C1318 H1305 0.930 . S
C1318 C1317 1.376 . S
C1318 C1319 1.388 . S
C1319 H1306 0.930 . S
C1319 C1318 1.388 . S
C1319 C1320 1.390 . S
C1320 C1319 1.390 . S
C1320 C1321 1.394 . S
C1320 C1326 1.465 . S
C1321 C1316 1.399 . S
C1321 C1320 1.394 . S
C1321 C1322 1.516 . S
C1322 C1321 1.516 . S
C1322 C1323 1.502 1_545 S
C1322 C1324 1.561 1_545 S
C1322 C1325 1.526 . S
C1323 H1307 0.959 1_565 S
C1323 H1308 0.959 . S
C1323 H1309 0.961 . S
C1323 C1322 1.502 1_565 S
C1324 H1310 0.960 . S
C1324 H1311 0.961 . S
C1324 H1312 0.959 1_565 S
C1324 C1322 1.561 1_565 S
C1325 C1322 1.526 . S
C1325 C1326 1.396 . S
C1325 C1330 1.390 . S
C1326 C1320 1.465 . S
C1326 C1325 1.396 . S
C1326 C1327 1.399 . S
C1327 H1313 0.929 . S
C1327 C1326 1.399 . S
C1327 C1328 1.385 . S
C1328 H1314 0.931 . S
C1328 C1327 1.385 . S
C1328 C1329 1.389 . S
C1329 C1328 1.389 . S
C1329 C1330 1.387 . S
C1330 H1315 0.930 . S
C1330 C1325 1.390 . S
C1330 C1329 1.387 . S
H1331 C1343 0.930 . S
H1332 C1345 0.930 . S
H1333 C1346 0.918 1_565 S
H1334 C1350 0.959 . S
H1335 C1350 0.959 . S
H1336 C1350 0.961 . S
H1337 C1351 0.960 . S
H1338 C1351 0.961 . S
H1339 C1351 0.959 . S
H1340 C1354 0.929 . S
H1341 C1355 0.931 . S
H1342 C1357 0.930 . S
C1343 H1331 0.930 . S
C1343 C1344 1.399 . S
C1343 C1348 1.399 . S
C1344 C1343 1.399 . S
C1344 C1345 1.376 . S
C1345 H1332 0.930 . S
C1345 C1344 1.376 . S
C1345 C1346 1.388 . S
C1346 H1333 0.918 1_545 S
C1346 C1345 1.388 . S
C1346 C1347 1.390 . S
C1347 C1346 1.390 . S
C1347 C1348 1.394 . S
C1347 C1353 1.465 . S
C1348 C1343 1.399 . S
C1348 C1347 1.394 . S
C1348 C1349 1.516 . S
C1349 C1348 1.516 . S
C1349 C1350 1.502 . S
C1349 C1351 1.561 . S
C1349 C1352 1.526 . S
C1350 H1334 0.959 . S
C1350 H1335 0.959 . S
C1350 H1336 0.961 . S
C1350 C1349 1.502 . S
C1351 H1337 0.960 . S
C1351 H1338 0.961 . S
C1351 H1339 0.959 . S
C1351 C1349 1.561 . S
C1352 C1349 1.526 . S
C1352 C1353 1.396 . S
C1352 C1357 1.390 . S
C1353 C1347 1.465 . S
C1353 C1352 1.396 . S
C1353 C1354 1.399 . S
C1354 H1340 0.929 . S
C1354 C1353 1.399 . S
C1354 C1355 1.385 . S
C1355 H1341 0.931 . S
C1355 C1354 1.385 . S
C1355 C1356 1.389 . S
C1356 C1355 1.389 . S
C1356 C1357 1.387 . S
C1357 H1342 0.930 . S
C1357 C1352 1.390 . S
C1357 C1356 1.387 . S
H1358 C1370 0.930 . S
H1359 C1372 0.930 . S
H1360 C1373 0.930 . S
H1361 C1377 0.959 . S
H1362 C1377 0.959 1_545 S
H1363 C1377 0.961 1_545 S
H1364 C1378 0.960 . S
H1365 C1378 0.961 . S
H1366 C1378 0.959 . S
H1367 C1381 0.929 . S
H1368 C1382 0.931 . S
H1369 C1384 0.930 . S
C1370 H1358 0.930 . S
C1370 C1371 1.399 . S
C1370 C1375 1.399 . S
C1371 C1370 1.399 . S
C1371 C1372 1.376 . S
C1372 H1359 0.930 . S
C1372 C1371 1.376 . S
C1372 C1373 1.388 . S
C1373 H1360 0.930 . S
C1373 C1372 1.388 . S
C1373 C1374 1.390 . S
C1374 C1373 1.390 . S
C1374 C1375 1.394 . S
C1374 C1380 1.465 . S
C1375 C1370 1.399 . S
C1375 C1374 1.394 . S
C1375 C1376 1.516 . S
C1376 C1375 1.516 . S
C1376 C1377 1.502 . S
C1376 C1378 1.561 1_565 S
C1376 C1379 1.526 . S
C1377 H1361 0.959 . S
C1377 H1362 0.959 1_565 S
C1377 H1363 0.961 1_565 S
C1377 C1376 1.502 . S
C1378 H1364 0.960 . S
C1378 H1365 0.961 . S
C1378 H1366 0.959 . S
C1378 C1376 1.561 1_545 S
C1379 C1376 1.526 . S
C1379 C1380 1.396 . S
C1379 C1384 1.390 . S
C1380 C1374 1.465 . S
C1380 C1379 1.396 . S
C1380 C1381 1.399 . S
C1381 H1367 0.929 . S
C1381 C1380 1.399 . S
C1381 C1382 1.385 . S
C1382 H1368 0.931 . S
C1382 C1381 1.385 . S
C1382 C1383 1.389 . S
C1383 C1382 1.389 . S
C1383 C1384 1.387 . S
C1384 H1369 0.930 . S
C1384 C1379 1.390 . S
C1384 C1383 1.387 . S
H1385 C1397 0.930 . S
H1386 C1399 0.930 . S
H1387 C1400 0.930 . S
H1388 C1404 0.959 . S
H1389 C1404 0.959 . S
H1390 C1404 0.961 . S
H1391 C1405 0.960 . S
H1392 C1405 0.961 . S
H1393 C1405 0.959 . S
H1394 C1408 0.929 1_545 S
H1395 C1409 0.931 1_545 S
H1396 C1411 0.930 . S
C1397 H1385 0.930 . S
C1397 C1398 1.399 . S
C1397 C1402 1.399 . S
C1398 C1397 1.399 . S
C1398 C1399 1.376 . S
C1399 H1386 0.930 . S
C1399 C1398 1.376 . S
C1399 C1400 1.388 . S
C1400 H1387 0.930 . S
C1400 C1399 1.388 . S
C1400 C1401 1.390 . S
C1401 C1400 1.390 . S
C1401 C1402 1.394 . S
C1401 C1407 1.465 . S
C1402 C1397 1.399 . S
C1402 C1401 1.394 . S
C1402 C1403 1.516 . S
C1403 C1402 1.516 . S
C1403 C1404 1.502 . S
C1403 C1405 1.561 . S
C1403 C1406 1.526 . S
C1404 H1388 0.959 . S
C1404 H1389 0.959 . S
C1404 H1390 0.961 . S
C1404 C1403 1.502 . S
C1405 H1391 0.960 . S
C1405 H1392 0.961 . S
C1405 H1393 0.959 . S
C1405 C1403 1.561 . S
C1406 C1403 1.526 . S
C1406 C1407 1.396 . S
C1406 C1411 1.390 . S
C1407 C1401 1.465 . S
C1407 C1406 1.396 . S
C1407 C1408 1.399 . S
C1408 H1394 0.929 1_565 S
C1408 C1407 1.399 . S
C1408 C1409 1.385 . S
C1409 H1395 0.931 1_565 S
C1409 C1408 1.385 . S
C1409 C1410 1.389 . S
C1410 C1409 1.389 . S
C1410 C1411 1.387 . S
C1411 H1396 0.930 . S
C1411 C1406 1.390 . S
C1411 C1410 1.387 . S
H1412 C1424 0.930 . S
H1413 C1426 0.930 . S
H1414 C1427 0.930 . S
H1415 C1431 0.959 . S
H1416 C1431 0.959 . S
H1417 C1431 0.961 . S
H1418 C1432 0.960 . S
H1419 C1432 0.961 . S
H1420 C1432 0.959 . S
H1421 C1435 0.929 . S
H1422 C1436 0.931 . S
H1423 C1438 0.930 . S
C1424 H1412 0.930 . S
C1424 C1425 1.399 . S
C1424 C1429 1.399 . S
C1425 C1424 1.399 . S
C1425 C1426 1.376 . S
C1426 H1413 0.930 . S
C1426 C1425 1.376 . S
C1426 C1427 1.388 . S
C1427 H1414 0.930 . S
C1427 C1426 1.388 . S
C1427 C1428 1.390 . S
C1428 C1427 1.390 . S
C1428 C1429 1.394 . S
C1428 C1434 1.465 . S
C1429 C1424 1.399 . S
C1429 C1428 1.394 . S
C1429 C1430 1.516 . S
C1430 C1429 1.516 . S
C1430 C1431 1.502 . S
C1430 C1432 1.561 . S
C1430 C1433 1.526 . S
C1431 H1415 0.959 . S
C1431 H1416 0.959 . S
C1431 H1417 0.961 . S
C1431 C1430 1.502 . S
C1432 H1418 0.960 . S
C1432 H1419 0.961 . S
C1432 H1420 0.959 . S
C1432 C1430 1.561 . S
C1433 C1430 1.526 . S
C1433 C1434 1.396 . S
C1433 C1438 1.390 . S
C1434 C1428 1.465 . S
C1434 C1433 1.396 . S
C1434 C1435 1.399 . S
C1435 H1421 0.929 . S
C1435 C1434 1.399 . S
C1435 C1436 1.385 . S
C1436 H1422 0.931 . S
C1436 C1435 1.385 . S
C1436 C1437 1.389 . S
C1437 C1436 1.389 . S
C1437 C1438 1.387 . S
C1438 H1423 0.930 . S
C1438 C1433 1.390 . S
C1438 C1437 1.387 . S
H1439 C1451 0.930 . S
H1440 C1453 0.930 . S
H1441 C1454 0.930 . S
H1442 C1458 0.959 . S
H1443 C1458 0.959 . S
H1444 C1458 0.961 . S
H1445 C1459 0.960 . S
H1446 C1459 0.961 . S
H1447 C1459 0.959 . S
H1448 C1462 0.929 . S
H1449 C1463 0.931 . S
H1450 C1465 0.930 . S
C1451 H1439 0.930 . S
C1451 C1452 1.399 . S
C1451 C1456 1.399 . S
C1452 C1451 1.399 . S
C1452 C1453 1.376 . S
C1453 H1440 0.930 . S
C1453 C1452 1.376 . S
C1453 C1454 1.388 . S
C1454 H1441 0.930 . S
C1454 C1453 1.388 . S
C1454 C1455 1.390 . S
C1455 C1454 1.390 . S
C1455 C1456 1.394 . S
C1455 C1461 1.465 . S
C1456 C1451 1.399 . S
C1456 C1455 1.394 . S
C1456 C1457 1.516 . S
C1457 C1456 1.516 . S
C1457 C1458 1.502 . S
C1457 C1459 1.561 . S
C1457 C1460 1.526 . S
C1458 H1442 0.959 . S
C1458 H1443 0.959 . S
C1458 H1444 0.961 . S
C1458 C1457 1.502 . S
C1459 H1445 0.960 . S
C1459 H1446 0.961 . S
C1459 H1447 0.959 . S
C1459 C1457 1.561 . S
C1460 C1457 1.526 . S
C1460 C1461 1.396 . S
C1460 C1465 1.390 . S
C1461 C1455 1.465 . S
C1461 C1460 1.396 . S
C1461 C1462 1.399 . S
C1462 H1448 0.929 . S
C1462 C1461 1.399 . S
C1462 C1463 1.385 . S
C1463 H1449 0.931 . S
C1463 C1462 1.385 . S
C1463 C1464 1.389 . S
C1464 C1463 1.389 . S
C1464 C1465 1.387 . S
C1465 H1450 0.930 . S
C1465 C1460 1.390 . S
C1465 C1464 1.387 . S
H1466 C1478 0.930 . S
H1467 C1480 0.930 . S
H1468 C1481 0.930 . S
H1469 C1485 0.959 . S
H1470 C1485 0.959 . S
H1471 C1485 0.961 . S
H1472 C1486 0.960 . S
H1473 C1486 0.961 . S
H1474 C1486 0.959 . S
H1475 C1489 0.929 . S
H1476 C1490 0.931 . S
H1477 C1492 0.930 . S
C1478 H1466 0.930 . S
C1478 C1479 1.399 . S
C1478 C1483 1.399 . S
C1479 C1478 1.399 . S
C1479 C1480 1.376 . S
C1480 H1467 0.930 . S
C1480 C1479 1.376 . S
C1480 C1481 1.388 . S
C1481 H1468 0.930 . S
C1481 C1480 1.388 . S
C1481 C1482 1.390 . S
C1482 C1481 1.390 . S
C1482 C1483 1.394 . S
C1482 C1488 1.465 . S
C1483 C1478 1.399 . S
C1483 C1482 1.394 . S
C1483 C1484 1.516 . S
C1484 C1483 1.516 . S
C1484 C1485 1.502 . S
C1484 C1486 1.561 . S
C1484 C1487 1.526 . S
C1485 H1469 0.959 . S
C1485 H1470 0.959 . S
C1485 H1471 0.961 . S
C1485 C1484 1.502 . S
C1486 H1472 0.960 . S
C1486 H1473 0.961 . S
C1486 H1474 0.959 . S
C1486 C1484 1.561 . S
C1487 C1484 1.526 . S
C1487 C1488 1.396 . S
C1487 C1492 1.390 . S
C1488 C1482 1.465 . S
C1488 C1487 1.396 . S
C1488 C1489 1.399 . S
C1489 H1475 0.929 . S
C1489 C1488 1.399 . S
C1489 C1490 1.385 . S
C1490 H1476 0.931 . S
C1490 C1489 1.385 . S
C1490 C1491 1.389 . S
C1491 C1490 1.389 . S
C1491 C1492 1.387 . S
C1492 H1477 0.930 . S
C1492 C1487 1.390 . S
C1492 C1491 1.387 . S
H1493 C1505 0.930 . S
H1494 C1507 0.930 . S
H1495 C1508 0.930 . S
H1496 C1512 0.959 . S
H1497 C1512 0.959 . S
H1498 C1512 0.961 . S
H1499 C1513 0.960 . S
H1500 C1513 0.961 . S
H1501 C1513 0.959 . S
H1502 C1516 0.929 . S
H1503 C1517 0.931 . S
H1504 C1519 0.930 . S
C1505 H1493 0.930 . S
C1505 C1506 1.399 . S
C1505 C1510 1.399 . S
C1506 C1505 1.399 . S
C1506 C1507 1.376 . S
C1507 H1494 0.930 . S
C1507 C1506 1.376 . S
C1507 C1508 1.388 . S
C1508 H1495 0.930 . S
C1508 C1507 1.388 . S
C1508 C1509 1.390 . S
C1509 C1508 1.390 . S
C1509 C1510 1.394 . S
C1509 C1515 1.465 . S
C1510 C1505 1.399 . S
C1510 C1509 1.394 . S
C1510 C1511 1.516 . S
C1511 C1510 1.516 . S
C1511 C1512 1.502 . S
C1511 C1513 1.561 . S
C1511 C1514 1.526 . S
C1512 H1496 0.959 . S
C1512 H1497 0.959 . S
C1512 H1498 0.961 . S
C1512 C1511 1.502 . S
C1513 H1499 0.960 . S
C1513 H1500 0.961 . S
C1513 H1501 0.959 . S
C1513 C1511 1.561 . S
C1514 C1511 1.526 . S
C1514 C1515 1.396 . S
C1514 C1519 1.390 . S
C1515 C1509 1.465 . S
C1515 C1514 1.396 . S
C1515 C1516 1.399 . S
C1516 H1502 0.929 . S
C1516 C1515 1.399 . S
C1516 C1517 1.385 . S
C1517 H1503 0.931 . S
C1517 C1516 1.385 . S
C1517 C1518 1.389 . S
C1518 C1517 1.389 . S
C1518 C1519 1.387 . S
C1519 H1504 0.930 . S
C1519 C1514 1.390 . S
C1519 C1518 1.387 . S
H1520 C1532 0.930 . S
H1521 C1534 0.930 1_545 S
H1522 C1535 0.930 . S
H1523 C1539 0.959 . S
H1524 C1539 0.959 . S
H1525 C1539 0.961 . S
H1526 C1540 0.960 . S
H1527 C1540 0.961 . S
H1528 C1540 0.959 . S
H1529 C1543 0.997 . S
H1530 C1544 0.931 . S
H1531 C1546 0.930 1_565 S
C1532 H1520 0.930 . S
C1532 C1533 1.399 . S
C1532 C1537 1.399 . S
C1533 C1532 1.399 . S
C1533 C1534 1.376 . S
C1534 H1521 0.930 1_565 S
C1534 C1533 1.376 . S
C1534 C1535 1.388 1_565 S
C1535 H1522 0.930 . S
C1535 C1534 1.388 1_545 S
C1535 C1536 1.390 . S
C1536 C1535 1.390 . S
C1536 C1537 1.394 1_545 S
C1536 C1542 1.465 1_556 S
C1537 C1532 1.399 . S
C1537 C1536 1.394 1_565 S
C1537 C1538 1.516 1_556 S
C1538 C1537 1.516 1_554 S
C1538 C1539 1.502 . S
C1538 C1540 1.561 . S
C1538 C1541 1.526 . S
C1539 H1523 0.959 . S
C1539 H1524 0.959 . S
C1539 H1525 0.961 . S
C1539 C1538 1.502 . S
C1540 H1526 0.960 . S
C1540 H1527 0.961 . S
C1540 H1528 0.959 . S
C1540 C1538 1.561 . S
C1541 C1538 1.526 . S
C1541 C1542 1.396 1_565 S
C1541 C1546 1.390 1_565 S
C1542 C1536 1.465 1_554 S
C1542 C1541 1.396 1_545 S
C1542 C1543 1.399 . S
C1543 H1529 0.997 . S
C1543 C1542 1.399 . S
C1543 C1544 1.385 . S
C1544 H1530 0.931 . S
C1544 C1543 1.385 . S
C1544 C1545 1.389 . S
C1545 C1544 1.389 . S
C1545 C1546 1.387 . S
C1546 H1531 0.930 1_545 S
C1546 C1541 1.390 1_545 S
C1546 C1545 1.387 . S
H1547 C1559 0.930 . S
H1548 C1561 0.930 . S
H1549 C1562 0.930 . S
H1550 C1566 0.959 . S
H1551 C1566 0.959 1_556 S
H1552 C1566 0.961 . S
H1553 C1567 0.960 . S
H1554 C1567 0.961 . S
H1555 C1567 0.959 . S
H1556 C1570 0.929 . S
H1557 C1571 0.931 . S
H1558 C1573 0.930 . S
C1559 H1547 0.930 . S
C1559 C1560 1.399 . S
C1559 C1564 1.399 . S
C1560 C1559 1.399 . S
C1560 C1561 1.376 . S
C1561 H1548 0.930 . S
C1561 C1560 1.376 . S
C1561 C1562 1.388 . S
C1562 H1549 0.930 . S
C1562 C1561 1.388 . S
C1562 C1563 1.390 . S
C1563 C1562 1.390 . S
C1563 C1564 1.394 . S
C1563 C1569 1.465 1_554 S
C1564 C1559 1.399 . S
C1564 C1563 1.394 . S
C1564 C1565 1.516 1_554 S
C1565 C1564 1.516 1_556 S
C1565 C1566 1.502 1_556 S
C1565 C1567 1.561 . S
C1565 C1568 1.526 . S
C1566 H1550 0.959 . S
C1566 H1551 0.959 1_554 S
C1566 H1552 0.961 . S
C1566 C1565 1.502 1_554 S
C1567 H1553 0.960 . S
C1567 H1554 0.961 . S
C1567 H1555 0.959 . S
C1567 C1565 1.561 . S
C1568 C1565 1.526 . S
C1568 C1569 1.396 . S
C1568 C1573 1.390 . S
C1569 C1563 1.465 1_556 S
C1569 C1568 1.396 . S
C1569 C1570 1.399 . S
C1570 H1556 0.929 . S
C1570 C1569 1.399 . S
C1570 C1571 1.385 . S
C1571 H1557 0.931 . S
C1571 C1570 1.385 . S
C1571 C1572 1.389 . S
C1572 C1571 1.389 . S
C1572 C1573 1.387 . S
C1573 H1558 0.930 . S
C1573 C1568 1.390 . S
C1573 C1572 1.387 . S
H1574 C1586 0.930 . S
H1575 C1588 0.930 . S
H1576 C1589 0.930 . S
H1577 C1593 0.959 . S
H1578 C1593 0.959 . S
H1579 C1593 0.961 . S
H1580 C1594 0.960 . S
H1581 C1594 0.961 . S
H1582 C1594 0.959 . S
H1583 C1597 0.929 . S
H1584 C1598 0.931 . S
H1585 C1600 0.930 . S
C1586 H1574 0.930 . S
C1586 C1587 1.399 . S
C1586 C1591 1.399 . S
C1587 C1586 1.399 . S
C1587 C1588 1.376 . S
C1588 H1575 0.930 . S
C1588 C1587 1.376 . S
C1588 C1589 1.388 . S
C1589 H1576 0.930 . S
C1589 C1588 1.388 . S
C1589 C1590 1.390 . S
C1590 C1589 1.390 . S
C1590 C1591 1.394 . S
C1590 C1596 1.465 . S
C1591 C1586 1.399 . S
C1591 C1590 1.394 . S
C1591 C1592 1.516 . S
C1592 C1591 1.516 . S
C1592 C1593 1.502 . S
C1592 C1594 1.561 . S
C1592 C1595 1.526 . S
C1593 H1577 0.959 . S
C1593 H1578 0.959 . S
C1593 H1579 0.961 . S
C1593 C1592 1.502 . S
C1594 H1580 0.960 . S
C1594 H1581 0.961 . S
C1594 H1582 0.959 . S
C1594 C1592 1.561 . S
C1595 C1592 1.526 . S
C1595 C1596 1.396 . S
C1595 C1600 1.390 . S
C1596 C1590 1.465 . S
C1596 C1595 1.396 . S
C1596 C1597 1.399 . S
C1597 H1583 0.929 . S
C1597 C1596 1.399 . S
C1597 C1598 1.385 . S
C1598 H1584 0.931 . S
C1598 C1597 1.385 . S
C1598 C1599 1.389 . S
C1599 C1598 1.389 . S
C1599 C1600 1.387 . S
C1600 H1585 0.930 . S
C1600 C1595 1.390 . S
C1600 C1599 1.387 . S
H1601 C1613 0.930 . S
H1602 C1615 0.930 . S
H1603 C1616 0.930 . S
H1604 C1620 0.959 . S
H1605 C1620 0.959 . S
H1606 C1620 0.961 . S
H1607 C1621 0.960 . S
H1608 C1621 0.961 . S
H1609 C1621 0.959 . S
H1610 C1624 0.929 . S
H1611 C1625 0.931 . S
H1612 C1627 0.930 . S
C1613 H1601 0.930 . S
C1613 C1614 1.399 . S
C1613 C1618 1.399 . S
C1614 C1613 1.399 . S
C1614 C1615 1.376 . S
C1615 H1602 0.930 . S
C1615 C1614 1.376 . S
C1615 C1616 1.388 1_545 S
C1616 H1603 0.930 . S
C1616 C1615 1.388 1_565 S
C1616 C1617 1.390 . S
C1617 C1616 1.390 . S
C1617 C1618 1.394 1_565 S
C1617 C1623 1.465 . S
C1618 C1613 1.399 . S
C1618 C1617 1.394 1_545 S
C1618 C1619 1.516 . S
C1619 C1618 1.516 . S
C1619 C1620 1.502 . S
C1619 C1621 1.561 . S
C1619 C1622 1.526 1_545 S
C1620 H1604 0.959 . S
C1620 H1605 0.959 . S
C1620 H1606 0.961 . S
C1620 C1619 1.502 . S
C1621 H1607 0.960 . S
C1621 H1608 0.961 . S
C1621 H1609 0.959 . S
C1621 C1619 1.561 . S
C1622 C1619 1.526 1_565 S
C1622 C1623 1.396 . S
C1622 C1627 1.390 . S
C1623 C1617 1.465 . S
C1623 C1622 1.396 . S
C1623 C1624 1.399 . S
C1624 H1610 0.929 . S
C1624 C1623 1.399 . S
C1624 C1625 1.385 . S
C1625 H1611 0.931 . S
C1625 C1624 1.385 . S
C1625 C1626 1.389 . S
C1626 C1625 1.389 . S
C1626 C1627 1.387 . S
C1627 H1612 0.930 . S
C1627 C1622 1.390 . S
C1627 C1626 1.387 . S
H1628 C1640 0.930 . S
H1629 C1642 0.930 . S
H1630 C1643 0.930 . S
H1631 C1647 0.959 . S
H1632 C1647 0.959 . S
H1633 C1647 0.961 . S
H1634 C1648 1.012 . S
H1635 C1648 0.898 1_554 S
H1636 C1648 0.999 . S
H1637 C1651 0.929 . S
H1638 C1652 0.931 . S
H1639 C1654 0.930 . S
C1640 H1628 0.930 . S
C1640 C1641 1.399 . S
C1640 C1645 1.399 . S
C1641 C1640 1.399 . S
C1641 C1642 1.376 . S
C1642 H1629 0.930 . S
C1642 C1641 1.376 . S
C1642 C1643 1.388 . S
C1643 H1630 0.930 . S
C1643 C1642 1.388 . S
C1643 C1644 1.390 . S
C1644 C1643 1.390 . S
C1644 C1645 1.394 . S
C1644 C1650 1.465 1_556 S
C1645 C1640 1.399 . S
C1645 C1644 1.394 . S
C1645 C1646 1.516 1_556 S
C1646 C1645 1.516 1_554 S
C1646 C1647 1.502 . S
C1646 C1648 1.539 1_554 S
C1646 C1649 1.526 . S
C1647 H1631 0.959 . S
C1647 H1632 0.959 . S
C1647 H1633 0.961 . S
C1647 C1646 1.502 . S
C1648 H1634 1.012 . S
C1648 H1635 0.898 1_556 S
C1648 H1636 0.999 . S
C1648 C1646 1.539 1_556 S
C1649 C1646 1.526 . S
C1649 C1650 1.396 . S
C1649 C1654 1.390 . S
C1650 C1644 1.465 1_554 S
C1650 C1649 1.396 . S
C1650 C1651 1.399 . S
C1651 H1637 0.929 . S
C1651 C1650 1.399 . S
C1651 C1652 1.385 . S
C1652 H1638 0.931 . S
C1652 C1651 1.385 . S
C1652 C1653 1.389 . S
C1653 C1652 1.389 . S
C1653 C1654 1.387 . S
C1654 H1639 0.930 . S
C1654 C1649 1.390 . S
C1654 C1653 1.387 . S
H1655 C1667 0.930 . S
H1656 C1669 0.930 . S
H1657 C1670 0.930 . S
H1658 C1674 0.959 . S
H1659 C1674 0.959 . S
H1660 C1674 0.961 . S
H1661 C1675 0.960 . S
H1662 C1675 0.961 . S
H1663 C1675 0.959 . S
H1664 C1678 0.929 . S
H1665 C1679 0.931 . S
H1666 C1681 0.930 . S
C1667 H1655 0.930 . S
C1667 C1668 1.399 . S
C1667 C1672 1.399 . S
C1668 C1667 1.399 . S
C1668 C1669 1.376 . S
C1669 H1656 0.930 . S
C1669 C1668 1.376 . S
C1669 C1670 1.388 . S
C1670 H1657 0.930 . S
C1670 C1669 1.388 . S
C1670 C1671 1.390 . S
C1671 C1670 1.390 . S
C1671 C1672 1.394 . S
C1671 C1677 1.465 . S
C1672 C1667 1.399 . S
C1672 C1671 1.394 . S
C1672 C1673 1.516 . S
C1673 C1672 1.516 . S
C1673 C1674 1.502 . S
C1673 C1675 1.561 . S
C1673 C1676 1.526 . S
C1674 H1658 0.959 . S
C1674 H1659 0.959 . S
C1674 H1660 0.961 . S
C1674 C1673 1.502 . S
C1675 H1661 0.960 . S
C1675 H1662 0.961 . S
C1675 H1663 0.959 . S
C1675 C1673 1.561 . S
C1676 C1673 1.526 . S
C1676 C1677 1.396 . S
C1676 C1681 1.390 . S
C1677 C1671 1.465 . S
C1677 C1676 1.396 . S
C1677 C1678 1.399 . S
C1678 H1664 0.929 . S
C1678 C1677 1.399 . S
C1678 C1679 1.385 . S
C1679 H1665 0.931 . S
C1679 C1678 1.385 . S
C1679 C1680 1.389 . S
C1680 C1679 1.389 . S
C1680 C1681 1.387 . S
C1681 H1666 0.930 . S
C1681 C1676 1.390 . S
C1681 C1680 1.387 . S
H1682 C1694 0.930 . S
H1683 C1696 0.930 . S
H1684 C1697 0.930 . S
H1685 C1701 0.959 . S
H1686 C1701 0.959 . S
H1687 C1701 0.961 1_545 S
H1688 C1702 0.960 . S
H1689 C1702 0.961 . S
H1690 C1702 0.959 . S
H1691 C1705 0.929 . S
H1692 C1706 0.931 . S
H1693 C1708 0.930 . S
C1694 H1682 0.930 . S
C1694 C1695 1.399 . S
C1694 C1699 1.399 . S
C1695 C1694 1.399 . S
C1695 C1696 1.376 . S
C1696 H1683 0.930 . S
C1696 C1695 1.376 . S
C1696 C1697 1.388 . S
C1697 H1684 0.930 . S
C1697 C1696 1.388 . S
C1697 C1698 1.390 . S
C1698 C1697 1.390 . S
C1698 C1699 1.394 . S
C1698 C1704 1.465 1_545 S
C1699 C1694 1.399 . S
C1699 C1698 1.394 . S
C1699 C1700 1.516 . S
C1700 C1699 1.516 . S
C1700 C1701 1.502 1_545 S
C1700 C1702 1.561 . S
C1700 C1703 1.526 1_545 S
C1701 H1685 0.959 . S
C1701 H1686 0.959 . S
C1701 H1687 0.961 1_565 S
C1701 C1700 1.502 1_565 S
C1702 H1688 0.960 . S
C1702 H1689 0.961 . S
C1702 H1690 0.959 . S
C1702 C1700 1.561 . S
C1703 C1700 1.526 1_565 S
C1703 C1704 1.396 . S
C1703 C1708 1.390 . S
C1704 C1698 1.465 1_565 S
C1704 C1703 1.396 . S
C1704 C1705 1.399 . S
C1705 H1691 0.929 . S
C1705 C1704 1.399 . S
C1705 C1706 1.385 . S
C1706 H1692 0.931 . S
C1706 C1705 1.385 . S
C1706 C1707 1.389 . S
C1707 C1706 1.389 . S
C1707 C1708 1.387 . S
C1708 H1693 0.930 . S
C1708 C1703 1.390 . S
C1708 C1707 1.387 . S
H1709 C1721 0.930 . S
H1710 C1723 0.930 . S
H1711 C1724 0.930 . S
H1712 C1728 0.959 . S
H1713 C1728 0.959 . S
H1714 C1728 0.961 . S
H1715 C1729 0.960 . S
H1716 C1729 0.961 . S
H1717 C1729 0.959 . S
H1718 C1732 0.929 . S
H1719 C1733 0.931 . S
H1720 C1735 0.930 . S
C1721 H1709 0.930 . S
C1721 C1722 1.399 . S
C1721 C1726 1.399 . S
C1722 C1721 1.399 . S
C1722 C1723 1.376 . S
C1723 H1710 0.930 . S
C1723 C1722 1.376 . S
C1723 C1724 1.388 . S
C1724 H1711 0.930 . S
C1724 C1723 1.388 . S
C1724 C1725 1.390 . S
C1725 C1724 1.390 . S
C1725 C1726 1.394 . S
C1725 C1731 1.465 . S
C1726 C1721 1.399 . S
C1726 C1725 1.394 . S
C1726 C1727 1.516 . S
C1727 C1726 1.516 . S
C1727 C1728 1.502 . S
C1727 C1729 1.561 . S
C1727 C1730 1.526 . S
C1728 H1712 0.959 . S
C1728 H1713 0.959 . S
C1728 H1714 0.961 . S
C1728 C1727 1.502 . S
C1729 H1715 0.960 . S
C1729 H1716 0.961 . S
C1729 H1717 0.959 . S
C1729 C1727 1.561 . S
C1730 C1727 1.526 . S
C1730 C1731 1.396 . S
C1730 C1735 1.390 . S
C1731 C1725 1.465 . S
C1731 C1730 1.396 . S
C1731 C1732 1.399 . S
C1732 H1718 0.929 . S
C1732 C1731 1.399 . S
C1732 C1733 1.385 . S
C1733 H1719 0.931 . S
C1733 C1732 1.385 . S
C1733 C1734 1.389 . S
C1734 C1733 1.389 . S
C1734 C1735 1.387 . S
C1735 H1720 0.930 . S
C1735 C1730 1.390 . S
C1735 C1734 1.387 . S
H1736 C1748 0.930 . S
H1737 C1750 0.930 . S
H1738 C1751 0.930 . S
H1739 C1755 0.959 . S
H1740 C1755 0.959 . S
H1741 C1755 0.961 . S
H1742 C1756 0.960 . S
H1743 C1756 0.961 . S
H1744 C1756 0.959 . S
H1745 C1759 0.929 . S
H1746 C1760 0.931 . S
H1747 C1762 0.930 . S
C1748 H1736 0.930 . S
C1748 C1749 1.399 . S
C1748 C1753 1.399 . S
C1749 C1748 1.399 . S
C1749 C1750 1.376 . S
C1750 H1737 0.930 . S
C1750 C1749 1.376 . S
C1750 C1751 1.388 . S
C1751 H1738 0.930 . S
C1751 C1750 1.388 . S
C1751 C1752 1.390 . S
C1752 C1751 1.390 . S
C1752 C1753 1.394 . S
C1752 C1758 1.465 . S
C1753 C1748 1.399 . S
C1753 C1752 1.394 . S
C1753 C1754 1.516 . S
C1754 C1753 1.516 . S
C1754 C1755 1.502 . S
C1754 C1756 1.561 . S
C1754 C1757 1.526 . S
C1755 H1739 0.959 . S
C1755 H1740 0.959 . S
C1755 H1741 0.961 . S
C1755 C1754 1.502 . S
C1756 H1742 0.960 . S
C1756 H1743 0.961 . S
C1756 H1744 0.959 . S
C1756 C1754 1.561 . S
C1757 C1754 1.526 . S
C1757 C1758 1.396 . S
C1757 C1762 1.390 . S
C1758 C1752 1.465 . S
C1758 C1757 1.396 . S
C1758 C1759 1.399 . S
C1759 H1745 0.929 . S
C1759 C1758 1.399 . S
C1759 C1760 1.385 . S
C1760 H1746 0.931 . S
C1760 C1759 1.385 . S
C1760 C1761 1.389 . S
C1761 C1760 1.389 . S
C1761 C1762 1.387 . S
C1762 H1747 0.930 . S
C1762 C1757 1.390 . S
C1762 C1761 1.387 . S
H1763 C1775 0.930 . S
H1764 C1777 0.930 . S
H1765 C1778 0.930 . S
H1766 C1782 0.959 . S
H1767 C1782 0.959 . S
H1768 C1782 0.961 . S
H1769 C1783 0.960 . S
H1770 C1783 0.961 . S
H1771 C1783 0.959 . S
H1772 C1786 0.929 . S
H1773 C1787 0.931 . S
H1774 C1789 0.930 . S
C1775 H1763 0.930 . S
C1775 C1776 1.399 . S
C1775 C1780 1.399 . S
C1776 C1775 1.399 . S
C1776 C1777 1.376 . S
C1777 H1764 0.930 . S
C1777 C1776 1.376 . S
C1777 C1778 1.388 . S
C1778 H1765 0.930 . S
C1778 C1777 1.388 . S
C1778 C1779 1.390 . S
C1779 C1778 1.390 . S
C1779 C1780 1.394 . S
C1779 C1785 1.465 . S
C1780 C1775 1.399 . S
C1780 C1779 1.394 . S
C1780 C1781 1.516 . S
C1781 C1780 1.516 . S
C1781 C1782 1.502 . S
C1781 C1783 1.561 . S
C1781 C1784 1.526 . S
C1782 H1766 0.959 . S
C1782 H1767 0.959 . S
C1782 H1768 0.961 . S
C1782 C1781 1.502 . S
C1783 H1769 0.960 . S
C1783 H1770 0.961 . S
C1783 H1771 0.959 . S
C1783 C1781 1.561 . S
C1784 C1781 1.526 . S
C1784 C1785 1.396 . S
C1784 C1789 1.390 . S
C1785 C1779 1.465 . S
C1785 C1784 1.396 . S
C1785 C1786 1.399 . S
C1786 H1772 0.929 . S
C1786 C1785 1.399 . S
C1786 C1787 1.385 . S
C1787 H1773 0.931 . S
C1787 C1786 1.385 . S
C1787 C1788 1.389 . S
C1788 C1787 1.389 . S
C1788 C1789 1.387 . S
C1789 H1774 0.930 . S
C1789 C1784 1.390 . S
C1789 C1788 1.387 . S
H1790 C1802 0.930 . S
H1791 C1804 0.930 . S
H1792 C1805 0.930 . S
H1793 C1809 0.959 . S
H1794 C1809 0.959 . S
H1795 C1809 0.961 . S
H1796 C1810 0.960 . S
H1797 C1810 0.961 . S
H1798 C1810 0.959 . S
H1799 C1813 0.929 . S
H1800 C1814 0.931 . S
H1801 C1816 0.930 . S
C1802 H1790 0.930 . S
C1802 C1803 1.399 . S
C1802 C1807 1.399 . S
C1803 C1802 1.399 . S
C1803 C1804 1.376 . S
C1804 H1791 0.930 . S
C1804 C1803 1.376 . S
C1804 C1805 1.388 . S
C1805 H1792 0.930 . S
C1805 C1804 1.388 . S
C1805 C1806 1.390 . S
C1806 C1805 1.390 . S
C1806 C1807 1.394 . S
C1806 C1812 1.465 . S
C1807 C1802 1.399 . S
C1807 C1806 1.394 . S
C1807 C1808 1.516 . S
C1808 C1807 1.516 . S
C1808 C1809 1.502 . S
C1808 C1810 1.561 . S
C1808 C1811 1.526 . S
C1809 H1793 0.959 . S
C1809 H1794 0.959 . S
C1809 H1795 0.961 . S
C1809 C1808 1.502 . S
C1810 H1796 0.960 . S
C1810 H1797 0.961 . S
C1810 H1798 0.959 . S
C1810 C1808 1.561 . S
C1811 C1808 1.526 . S
C1811 C1812 1.396 . S
C1811 C1816 1.390 . S
C1812 C1806 1.465 . S
C1812 C1811 1.396 . S
C1812 C1813 1.399 . S
C1813 H1799 0.929 . S
C1813 C1812 1.399 . S
C1813 C1814 1.385 . S
C1814 H1800 0.931 . S
C1814 C1813 1.385 . S
C1814 C1815 1.389 . S
C1815 C1814 1.389 . S
C1815 C1816 1.387 . S
C1816 H1801 0.930 . S
C1816 C1811 1.390 . S
C1816 C1815 1.387 . S
H1817 C1829 0.930 . S
H1818 C1831 0.930 . S
H1819 C1832 0.930 . S
H1820 C1836 0.959 . S
H1821 C1836 0.959 . S
H1822 C1836 0.961 . S
H1823 C1837 0.960 . S
H1824 C1837 0.961 . S
H1825 C1837 0.959 . S
H1826 C1840 0.929 . S
H1827 C1841 0.931 . S
H1828 C1843 0.930 . S
C1829 H1817 0.930 . S
C1829 C1830 1.399 . S
C1829 C1834 1.399 . S
C1830 C1829 1.399 . S
C1830 C1831 1.376 . S
C1831 H1818 0.930 . S
C1831 C1830 1.376 . S
C1831 C1832 1.388 . S
C1832 H1819 0.930 . S
C1832 C1831 1.388 . S
C1832 C1833 1.390 . S
C1833 C1832 1.390 . S
C1833 C1834 1.394 . S
C1833 C1839 1.465 . S
C1834 C1829 1.399 . S
C1834 C1833 1.394 . S
C1834 C1835 1.516 . S
C1835 C1834 1.516 . S
C1835 C1836 1.502 . S
C1835 C1837 1.561 . S
C1835 C1838 1.526 . S
C1836 H1820 0.959 . S
C1836 H1821 0.959 . S
C1836 H1822 0.961 . S
C1836 C1835 1.502 . S
C1837 H1823 0.960 . S
C1837 H1824 0.961 . S
C1837 H1825 0.959 . S
C1837 C1835 1.561 . S
C1838 C1835 1.526 . S
C1838 C1839 1.396 . S
C1838 C1843 1.390 . S
C1839 C1833 1.465 . S
C1839 C1838 1.396 . S
C1839 C1840 1.399 . S
C1840 H1826 0.929 . S
C1840 C1839 1.399 . S
C1840 C1841 1.385 . S
C1841 H1827 0.931 . S
C1841 C1840 1.385 . S
C1841 C1842 1.389 . S
C1842 C1841 1.389 . S
C1842 C1843 1.387 . S
C1843 H1828 0.930 . S
C1843 C1838 1.390 . S
C1843 C1842 1.387 . S
H1844 C1856 0.930 . S
H1845 C1858 0.930 . S
H1846 C1859 0.930 . S
H1847 C1863 0.959 . S
H1848 C1863 0.959 . S
H1849 C1863 0.961 . S
H1850 C1864 0.960 . S
H1851 C1864 0.961 . S
H1852 C1864 0.959 . S
H1853 C1867 0.929 . S
H1854 C1868 0.931 . S
H1855 C1870 0.930 1_455 S
C1856 H1844 0.930 . S
C1856 C1857 1.399 . S
C1856 C1861 1.399 . S
C1857 C1856 1.399 . S
C1857 C1858 1.376 1_455 S
C1858 H1845 0.930 . S
C1858 C1857 1.376 1_655 S
C1858 C1859 1.388 . S
C1859 H1846 0.930 . S
C1859 C1858 1.388 . S
C1859 C1860 1.390 . S
C1860 C1859 1.390 . S
C1860 C1861 1.394 1_655 S
C1860 C1866 1.465 1_565 S
C1861 C1856 1.399 . S
C1861 C1860 1.394 1_455 S
C1861 C1862 1.516 1_565 S
C1862 C1861 1.516 1_545 S
C1862 C1863 1.502 . S
C1862 C1864 1.561 . S
C1862 C1865 1.526 . S
C1863 H1847 0.959 . S
C1863 H1848 0.959 . S
C1863 H1849 0.961 . S
C1863 C1862 1.502 . S
C1864 H1850 0.960 . S
C1864 H1851 0.961 . S
C1864 H1852 0.959 . S
C1864 C1862 1.561 . S
C1865 C1862 1.526 . S
C1865 C1866 1.396 1_455 S
C1865 C1870 1.390 1_455 S
C1866 C1860 1.465 1_545 S
C1866 C1865 1.396 1_655 S
C1866 C1867 1.399 1_545 S
C1867 H1853 0.929 . S
C1867 C1866 1.399 1_565 S
C1867 C1868 1.385 1_565 S
C1868 H1854 0.931 . S
C1868 C1867 1.385 1_545 S
C1868 C1869 1.389 . S
C1869 C1868 1.389 . S
C1869 C1870 1.387 . S
C1870 H1855 0.930 1_655 S
C1870 C1865 1.390 1_655 S
C1870 C1869 1.387 . S
H1871 C1883 0.930 . S
H1872 C1885 0.930 . S
H1873 C1886 0.930 . S
H1874 C1890 0.959 . S
H1875 C1890 0.959 . S
H1876 C1890 0.961 . S
H1877 C1891 0.960 . S
H1878 C1891 0.961 . S
H1879 C1891 0.959 . S
H1880 C1894 0.929 1_655 S
H1881 C1895 0.931 . S
H1882 C1897 0.930 . S
C1883 H1871 0.930 . S
C1883 C1884 1.399 . S
C1883 C1888 1.399 . S
C1884 C1883 1.399 . S
C1884 C1885 1.376 . S
C1885 H1872 0.930 . S
C1885 C1884 1.376 . S
C1885 C1886 1.388 . S
C1886 H1873 0.930 . S
C1886 C1885 1.388 . S
C1886 C1887 1.390 . S
C1887 C1886 1.390 . S
C1887 C1888 1.394 . S
C1887 C1893 1.464 1_655 S
C1888 C1883 1.399 . S
C1888 C1887 1.394 . S
C1888 C1889 1.501 1_655 S
C1889 C1888 1.501 1_455 S
C1889 C1890 1.545 . S
C1889 C1891 1.520 1_455 S
C1889 C1892 1.537 . S
C1890 H1874 0.959 . S
C1890 H1875 0.959 . S
C1890 H1876 0.961 . S
C1890 C1889 1.545 . S
C1891 H1877 0.960 . S
C1891 H1878 0.961 . S
C1891 H1879 0.959 . S
C1891 C1889 1.520 1_655 S
C1892 C1889 1.537 . S
C1892 C1893 1.397 . S
C1892 C1897 1.390 . S
C1893 C1887 1.464 1_455 S
C1893 C1892 1.397 . S
C1893 C1894 1.399 . S
C1894 H1880 0.929 1_455 S
C1894 C1893 1.399 . S
C1894 C1895 1.385 . S
C1895 H1881 0.931 . S
C1895 C1894 1.385 . S
C1895 C1896 1.389 . S
C1896 C1895 1.389 . S
C1896 C1897 1.387 . S
C1897 H1882 0.930 . S
C1897 C1892 1.390 . S
C1897 C1896 1.387 . S
H1898 C1910 0.930 . S
H1899 C1912 0.930 . S
H1900 C1913 0.904 1_655 S
H1901 C1917 0.959 1_655 S
H1902 C1917 0.959 . S
H1903 C1917 0.961 . S
H1904 C1918 0.960 . S
H1905 C1918 0.961 . S
H1906 C1918 0.959 . S
H1907 C1921 0.929 . S
H1908 C1922 0.931 . S
H1909 C1924 0.930 . S
C1910 H1898 0.930 . S
C1910 C1911 1.399 . S
C1910 C1915 1.399 . S
C1911 C1910 1.399 . S
C1911 C1912 1.376 . S
C1912 H1899 0.930 . S
C1912 C1911 1.376 . S
C1912 C1913 1.415 . S
C1913 H1900 0.904 1_455 S
C1913 C1912 1.415 . S
C1913 C1914 1.395 . S
C1914 C1913 1.395 . S
C1914 C1915 1.394 . S
C1914 C1920 1.465 1_455 S
C1915 C1910 1.399 . S
C1915 C1914 1.394 . S
C1915 C1916 1.516 . S
C1916 C1915 1.516 . S
C1916 C1917 1.502 . S
C1916 C1918 1.561 . S
C1916 C1919 1.502 1_455 S
C1917 H1901 0.959 1_455 S
C1917 H1902 0.959 . S
C1917 H1903 0.961 . S
C1917 C1916 1.502 . S
C1918 H1904 0.960 . S
C1918 H1905 0.961 . S
C1918 H1906 0.959 . S
C1918 C1916 1.561 . S
C1919 C1916 1.502 1_655 S
C1919 C1920 1.407 . S
C1919 C1924 1.404 . S
C1920 C1914 1.465 1_655 S
C1920 C1919 1.407 . S
C1920 C1921 1.399 . S
C1921 H1907 0.929 . S
C1921 C1920 1.399 . S
C1921 C1922 1.385 . S
C1922 H1908 0.931 . S
C1922 C1921 1.385 . S
C1922 C1923 1.389 . S
C1923 C1922 1.389 . S
C1923 C1924 1.387 . S
C1924 H1909 0.930 . S
C1924 C1919 1.404 . S
C1924 C1923 1.387 . S
H1925 C1937 0.930 . S
H1926 C1939 0.930 . S
H1927 C1940 0.930 . S
H1928 C1944 0.959 . S
H1929 C1944 0.959 . S
H1930 C1944 0.961 . S
H1931 C1945 0.962 1_556 S
H1932 C1945 0.960 . S
H1933 C1945 0.957 . S
H1934 C1948 0.929 . S
H1935 C1949 0.931 . S
H1936 C1951 0.930 . S
C1937 H1925 0.930 . S
C1937 C1938 1.399 1_655 S
C1937 C1942 1.399 . S
C1938 C1937 1.399 1_455 S
C1938 C1939 1.376 . S
C1939 H1926 0.930 . S
C1939 C1938 1.376 . S
C1939 C1940 1.388 . S
C1940 H1927 0.930 . S
C1940 C1939 1.388 . S
C1940 C1941 1.390 . S
C1941 C1940 1.390 . S
C1941 C1942 1.394 1_455 S
C1941 C1947 1.465 1_556 S
C1942 C1937 1.399 . S
C1942 C1941 1.394 1_655 S
C1942 C1943 1.516 . S
C1943 C1942 1.516 . S
C1943 C1944 1.502 . S
C1943 C1945 1.562 1_556 S
C1943 C1946 1.526 1_556 S
C1944 H1928 0.959 . S
C1944 H1929 0.959 . S
C1944 H1930 0.961 . S
C1944 C1943 1.502 . S
C1945 H1931 0.962 1_554 S
C1945 H1932 0.960 . S
C1945 H1933 0.957 . S
C1945 C1943 1.562 1_554 S
C1946 C1943 1.526 1_554 S
C1946 C1947 1.396 1_655 S
C1946 C1951 1.390 . S
C1947 C1941 1.465 1_554 S
C1947 C1946 1.396 1_455 S
C1947 C1948 1.399 . S
C1948 H1934 0.929 . S
C1948 C1947 1.399 . S
C1948 C1949 1.385 . S
C1949 H1935 0.931 . S
C1949 C1948 1.385 . S
C1949 C1950 1.389 1_455 S
C1950 C1949 1.389 1_655 S
C1950 C1951 1.387 . S
C1951 H1936 0.930 . S
C1951 C1946 1.390 . S
C1951 C1950 1.387 . S
H1952 C1964 0.930 . S
H1953 C1966 0.930 . S
H1954 C1967 0.930 . S
H1955 C1971 0.959 . S
H1956 C1971 0.959 . S
H1957 C1971 0.961 . S
H1958 C1972 0.960 . S
H1959 C1972 0.961 . S
H1960 C1972 0.959 . S
H1961 C1975 0.929 . S
H1962 C1976 0.931 . S
H1963 C1978 0.930 . S
C1964 H1952 0.930 . S
C1964 C1965 1.399 . S
C1964 C1969 1.399 . S
C1965 C1964 1.399 . S
C1965 C1966 1.376 . S
C1966 H1953 0.930 . S
C1966 C1965 1.376 . S
C1966 C1967 1.388 . S
C1967 H1954 0.930 . S
C1967 C1966 1.388 . S
C1967 C1968 1.390 . S
C1968 C1967 1.390 . S
C1968 C1969 1.394 . S
C1968 C1974 1.465 . S
C1969 C1964 1.399 . S
C1969 C1968 1.394 . S
C1969 C1970 1.516 . S
C1970 C1969 1.516 . S
C1970 C1971 1.502 . S
C1970 C1972 1.561 . S
C1970 C1973 1.526 . S
C1971 H1955 0.959 . S
C1971 H1956 0.959 . S
C1971 H1957 0.961 . S
C1971 C1970 1.502 . S
C1972 H1958 0.960 . S
C1972 H1959 0.961 . S
C1972 H1960 0.959 . S
C1972 C1970 1.561 . S
C1973 C1970 1.526 . S
C1973 C1974 1.396 . S
C1973 C1978 1.390 . S
C1974 C1968 1.465 . S
C1974 C1973 1.396 . S
C1974 C1975 1.399 . S
C1975 H1961 0.929 . S
C1975 C1974 1.399 . S
C1975 C1976 1.385 . S
C1976 H1962 0.931 . S
C1976 C1975 1.385 . S
C1976 C1977 1.389 . S
C1977 C1976 1.389 . S
C1977 C1978 1.387 . S
C1978 H1963 0.930 . S
C1978 C1973 1.390 . S
C1978 C1977 1.387 . S
H1979 C1991 0.930 . S
H1980 C1993 0.930 . S
H1981 C1994 0.930 . S
H1982 C1998 0.959 . S
H1983 C1998 0.959 . S
H1984 C1998 0.961 . S
H1985 C1999 0.960 . S
H1986 C1999 0.961 . S
H1987 C1999 0.959 . S
H1988 C2002 0.929 . S
H1989 C2003 0.931 . S
H1990 C2005 0.930 . S
C1991 H1979 0.930 . S
C1991 C1992 1.399 . S
C1991 C1996 1.399 . S
C1992 C1991 1.399 . S
C1992 C1993 1.376 . S
C1993 H1980 0.930 . S
C1993 C1992 1.376 . S
C1993 C1994 1.388 . S
C1994 H1981 0.930 . S
C1994 C1993 1.388 . S
C1994 C1995 1.390 . S
C1995 C1994 1.390 . S
C1995 C1996 1.394 . S
C1995 C2001 1.465 . S
C1996 C1991 1.399 . S
C1996 C1995 1.394 . S
C1996 C1997 1.516 . S
C1997 C1996 1.516 . S
C1997 C1998 1.502 . S
C1997 C1999 1.561 . S
C1997 C2000 1.526 . S
C1998 H1982 0.959 . S
C1998 H1983 0.959 . S
C1998 H1984 0.961 . S
C1998 C1997 1.502 . S
C1999 H1985 0.960 . S
C1999 H1986 0.961 . S
C1999 H1987 0.959 . S
C1999 C1997 1.561 . S
C2000 C1997 1.526 . S
C2000 C2001 1.396 . S
C2000 C2005 1.390 . S
C2001 C1995 1.465 . S
C2001 C2000 1.396 . S
C2001 C2002 1.399 . S
C2002 H1988 0.929 . S
C2002 C2001 1.399 . S
C2002 C2003 1.385 . S
C2003 H1989 0.931 . S
C2003 C2002 1.385 . S
C2003 C2004 1.389 . S
C2004 C2003 1.389 . S
C2004 C2005 1.387 . S
C2005 H1990 0.930 . S
C2005 C2000 1.390 . S
C2005 C2004 1.387 . S
H2006 C2018 0.930 . S
H2007 C2020 0.930 . S
H2008 C2021 0.930 . S
H2009 C2025 0.959 . S
H2010 C2025 0.959 . S
H2011 C2025 0.961 . S
H2012 C2026 0.960 . S
H2013 C2026 0.961 . S
H2014 C2026 0.959 . S
H2015 C2029 0.929 . S
H2016 C2030 0.931 . S
H2017 C2032 0.930 . S
C2018 H2006 0.930 . S
C2018 C2019 1.399 . S
C2018 C2023 1.399 . S
C2019 C2018 1.399 . S
C2019 C2020 1.376 . S
C2020 H2007 0.930 . S
C2020 C2019 1.376 . S
C2020 C2021 1.388 . S
C2021 H2008 0.930 . S
C2021 C2020 1.388 . S
C2021 C2022 1.390 . S
C2022 C2021 1.390 . S
C2022 C2023 1.394 . S
C2022 C2028 1.465 . S
C2023 C2018 1.399 . S
C2023 C2022 1.394 . S
C2023 C2024 1.516 . S
C2024 C2023 1.516 . S
C2024 C2025 1.502 . S
C2024 C2026 1.561 . S
C2024 C2027 1.526 . S
C2025 H2009 0.959 . S
C2025 H2010 0.959 . S
C2025 H2011 0.961 . S
C2025 C2024 1.502 . S
C2026 H2012 0.960 . S
C2026 H2013 0.961 . S
C2026 H2014 0.959 . S
C2026 C2024 1.561 . S
C2027 C2024 1.526 . S
C2027 C2028 1.396 . S
C2027 C2032 1.390 . S
C2028 C2022 1.465 . S
C2028 C2027 1.396 . S
C2028 C2029 1.399 . S
C2029 H2015 0.929 . S
C2029 C2028 1.399 . S
C2029 C2030 1.385 . S
C2030 H2016 0.931 . S
C2030 C2029 1.385 . S
C2030 C2031 1.389 . S
C2031 C2030 1.389 . S
C2031 C2032 1.387 . S
C2032 H2017 0.930 . S
C2032 C2027 1.390 . S
C2032 C2031 1.387 . S
H2033 C2045 0.930 . S
H2034 C2047 0.930 . S
H2035 C2048 0.930 . S
H2036 C2052 0.959 . S
H2037 C2052 0.959 . S
H2038 C2052 0.961 . S
H2039 C2053 0.960 . S
H2040 C2053 0.961 . S
H2041 C2053 0.959 . S
H2042 C2056 0.929 . S
H2043 C2057 0.931 . S
H2044 C2059 0.930 . S
C2045 H2033 0.930 . S
C2045 C2046 1.399 . S
C2045 C2050 1.399 . S
C2046 C2045 1.399 . S
C2046 C2047 1.376 . S
C2047 H2034 0.930 . S
C2047 C2046 1.376 . S
C2047 C2048 1.388 . S
C2048 H2035 0.930 . S
C2048 C2047 1.388 . S
C2048 C2049 1.390 . S
C2049 C2048 1.390 . S
C2049 C2050 1.394 . S
C2049 C2055 1.465 . S
C2050 C2045 1.399 . S
C2050 C2049 1.394 . S
C2050 C2051 1.516 . S
C2051 C2050 1.516 . S
C2051 C2052 1.502 . S
C2051 C2053 1.561 . S
C2051 C2054 1.526 . S
C2052 H2036 0.959 . S
C2052 H2037 0.959 . S
C2052 H2038 0.961 . S
C2052 C2051 1.502 . S
C2053 H2039 0.960 . S
C2053 H2040 0.961 . S
C2053 H2041 0.959 . S
C2053 C2051 1.561 . S
C2054 C2051 1.526 . S
C2054 C2055 1.396 . S
C2054 C2059 1.390 . S
C2055 C2049 1.465 . S
C2055 C2054 1.396 . S
C2055 C2056 1.399 . S
C2056 H2042 0.929 . S
C2056 C2055 1.399 . S
C2056 C2057 1.385 . S
C2057 H2043 0.931 . S
C2057 C2056 1.385 . S
C2057 C2058 1.389 . S
C2058 C2057 1.389 . S
C2058 C2059 1.387 . S
C2059 H2044 0.930 . S
C2059 C2054 1.390 . S
C2059 C2058 1.387 . S
H2060 C2072 0.930 . S
H2061 C2074 0.930 . S
H2062 C2075 0.930 . S
H2063 C2079 0.959 . S
H2064 C2079 0.959 . S
H2065 C2079 0.961 . S
H2066 C2080 0.960 . S
H2067 C2080 0.961 . S
H2068 C2080 0.959 . S
H2069 C2083 0.929 . S
H2070 C2084 0.931 . S
H2071 C2086 0.930 . S
C2072 H2060 0.930 . S
C2072 C2073 1.399 . S
C2072 C2077 1.399 . S
C2073 C2072 1.399 . S
C2073 C2074 1.376 . S
C2074 H2061 0.930 . S
C2074 C2073 1.376 . S
C2074 C2075 1.388 . S
C2075 H2062 0.930 . S
C2075 C2074 1.388 . S
C2075 C2076 1.390 . S
C2076 C2075 1.390 . S
C2076 C2077 1.394 . S
C2076 C2082 1.465 . S
C2077 C2072 1.399 . S
C2077 C2076 1.394 . S
C2077 C2078 1.516 . S
C2078 C2077 1.516 . S
C2078 C2079 1.502 . S
C2078 C2080 1.561 . S
C2078 C2081 1.526 . S
C2079 H2063 0.959 . S
C2079 H2064 0.959 . S
C2079 H2065 0.961 . S
C2079 C2078 1.502 . S
C2080 H2066 0.960 . S
C2080 H2067 0.961 . S
C2080 H2068 0.959 . S
C2080 C2078 1.561 . S
C2081 C2078 1.526 . S
C2081 C2082 1.396 . S
C2081 C2086 1.390 . S
C2082 C2076 1.465 . S
C2082 C2081 1.396 . S
C2082 C2083 1.399 . S
C2083 H2069 0.929 . S
C2083 C2082 1.399 . S
C2083 C2084 1.385 . S
C2084 H2070 0.931 . S
C2084 C2083 1.385 . S
C2084 C2085 1.389 . S
C2085 C2084 1.389 . S
C2085 C2086 1.387 . S
C2086 H2071 0.930 . S
C2086 C2081 1.390 . S
C2086 C2085 1.387 . S
H2087 C2099 0.930 . S
H2088 C2101 0.930 . S
H2089 C2102 0.930 . S
H2090 C2106 0.959 . S
H2091 C2106 0.959 . S
H2092 C2106 0.961 . S
H2093 C2107 0.960 . S
H2094 C2107 0.961 . S
H2095 C2107 0.959 . S
H2096 C2110 0.929 . S
H2097 C2111 0.931 . S
H2098 C2113 0.930 . S
C2099 H2087 0.930 . S
C2099 C2100 1.399 . S
C2099 C2104 1.399 . S
C2100 C2099 1.399 . S
C2100 C2101 1.376 . S
C2101 H2088 0.930 . S
C2101 C2100 1.376 . S
C2101 C2102 1.388 . S
C2102 H2089 0.930 . S
C2102 C2101 1.388 . S
C2102 C2103 1.390 . S
C2103 C2102 1.390 . S
C2103 C2104 1.394 . S
C2103 C2109 1.465 . S
C2104 C2099 1.399 . S
C2104 C2103 1.394 . S
C2104 C2105 1.516 . S
C2105 C2104 1.516 . S
C2105 C2106 1.502 . S
C2105 C2107 1.561 . S
C2105 C2108 1.526 . S
C2106 H2090 0.959 . S
C2106 H2091 0.959 . S
C2106 H2092 0.961 . S
C2106 C2105 1.502 . S
C2107 H2093 0.960 . S
C2107 H2094 0.961 . S
C2107 H2095 0.959 . S
C2107 C2105 1.561 . S
C2108 C2105 1.526 . S
C2108 C2109 1.396 . S
C2108 C2113 1.390 . S
C2109 C2103 1.465 . S
C2109 C2108 1.396 . S
C2109 C2110 1.399 . S
C2110 H2096 0.929 . S
C2110 C2109 1.399 . S
C2110 C2111 1.385 . S
C2111 H2097 0.931 . S
C2111 C2110 1.385 . S
C2111 C2112 1.389 . S
C2112 C2111 1.389 . S
C2112 C2113 1.387 . S
C2113 H2098 0.930 . S
C2113 C2108 1.390 . S
C2113 C2112 1.387 . S
H2114 C2126 0.930 . S
H2115 C2128 0.930 . S
H2116 C2129 0.930 . S
H2117 C2133 0.959 . S
H2118 C2133 0.959 . S
H2119 C2133 0.961 . S
H2120 C2134 0.960 . S
H2121 C2134 0.961 . S
H2122 C2134 0.959 . S
H2123 C2137 0.929 . S
H2124 C2138 0.931 . S
H2125 C2140 0.930 . S
C2126 H2114 0.930 . S
C2126 C2127 1.399 . S
C2126 C2131 1.399 . S
C2127 C2126 1.399 . S
C2127 C2128 1.376 . S
C2128 H2115 0.930 . S
C2128 C2127 1.376 . S
C2128 C2129 1.388 . S
C2129 H2116 0.930 . S
C2129 C2128 1.388 . S
C2129 C2130 1.390 . S
C2130 C2129 1.390 . S
C2130 C2131 1.394 . S
C2130 C2136 1.465 . S
C2131 C2126 1.399 . S
C2131 C2130 1.394 . S
C2131 C2132 1.516 . S
C2132 C2131 1.516 . S
C2132 C2133 1.502 . S
C2132 C2134 1.561 . S
C2132 C2135 1.526 . S
C2133 H2117 0.959 . S
C2133 H2118 0.959 . S
C2133 H2119 0.961 . S
C2133 C2132 1.502 . S
C2134 H2120 0.960 . S
C2134 H2121 0.961 . S
C2134 H2122 0.959 . S
C2134 C2132 1.561 . S
C2135 C2132 1.526 . S
C2135 C2136 1.396 . S
C2135 C2140 1.390 . S
C2136 C2130 1.465 . S
C2136 C2135 1.396 . S
C2136 C2137 1.399 . S
C2137 H2123 0.929 . S
C2137 C2136 1.399 . S
C2137 C2138 1.385 . S
C2138 H2124 0.931 . S
C2138 C2137 1.385 . S
C2138 C2139 1.389 . S
C2139 C2138 1.389 . S
C2139 C2140 1.387 . S
C2140 H2125 0.930 . S
C2140 C2135 1.390 . S
C2140 C2139 1.387 . S
H2141 C2153 0.930 . S
H2142 C2155 0.930 . S
H2143 C2156 0.930 . S
H2144 C2160 0.959 . S
H2145 C2160 0.959 . S
H2146 C2160 0.961 . S
H2147 C2161 0.960 . S
H2148 C2161 0.961 . S
H2149 C2161 0.959 . S
H2150 C2164 0.929 . S
H2151 C2165 0.931 . S
H2152 C2167 0.930 . S
C2153 H2141 0.930 . S
C2153 C2154 1.399 . S
C2153 C2158 1.399 . S
C2154 C2153 1.399 . S
C2154 C2155 1.376 . S
C2155 H2142 0.930 . S
C2155 C2154 1.376 . S
C2155 C2156 1.388 . S
C2156 H2143 0.930 . S
C2156 C2155 1.388 . S
C2156 C2157 1.390 . S
C2157 C2156 1.390 . S
C2157 C2158 1.394 . S
C2157 C2163 1.465 . S
C2158 C2153 1.399 . S
C2158 C2157 1.394 . S
C2158 C2159 1.516 . S
C2159 C2158 1.516 . S
C2159 C2160 1.502 . S
C2159 C2161 1.561 . S
C2159 C2162 1.526 . S
C2160 H2144 0.959 . S
C2160 H2145 0.959 . S
C2160 H2146 0.961 . S
C2160 C2159 1.502 . S
C2161 H2147 0.960 . S
C2161 H2148 0.961 . S
C2161 H2149 0.959 . S
C2161 C2159 1.561 . S
C2162 C2159 1.526 . S
C2162 C2163 1.396 . S
C2162 C2167 1.390 . S
C2163 C2157 1.465 . S
C2163 C2162 1.396 . S
C2163 C2164 1.399 . S
C2164 H2150 0.929 . S
C2164 C2163 1.399 . S
C2164 C2165 1.385 . S
C2165 H2151 0.931 . S
C2165 C2164 1.385 . S
C2165 C2166 1.389 . S
C2166 C2165 1.389 . S
C2166 C2167 1.387 . S
C2167 H2152 0.930 . S
C2167 C2162 1.390 . S
C2167 C2166 1.387 . S
H2168 C2180 0.930 . S
H2169 C2182 0.930 . S
H2170 C2183 0.930 . S
H2171 C2187 0.959 . S
H2172 C2187 0.959 . S
H2173 C2187 0.961 . S
H2174 C2188 0.960 . S
H2175 C2188 0.961 . S
H2176 C2188 0.959 . S
H2177 C2191 0.929 . S
H2178 C2192 0.931 . S
H2179 C2194 0.930 . S
C2180 H2168 0.930 . S
C2180 C2181 1.399 . S
C2180 C2185 1.399 . S
C2181 C2180 1.399 . S
C2181 C2182 1.376 . S
C2182 H2169 0.930 . S
C2182 C2181 1.376 . S
C2182 C2183 1.388 . S
C2183 H2170 0.930 . S
C2183 C2182 1.388 . S
C2183 C2184 1.390 . S
C2184 C2183 1.390 . S
C2184 C2185 1.394 . S
C2184 C2190 1.465 . S
C2185 C2180 1.399 . S
C2185 C2184 1.394 . S
C2185 C2186 1.516 . S
C2186 C2185 1.516 . S
C2186 C2187 1.502 . S
C2186 C2188 1.561 . S
C2186 C2189 1.526 . S
C2187 H2171 0.959 . S
C2187 H2172 0.959 . S
C2187 H2173 0.961 . S
C2187 C2186 1.502 . S
C2188 H2174 0.960 . S
C2188 H2175 0.961 . S
C2188 H2176 0.959 . S
C2188 C2186 1.561 . S
C2189 C2186 1.526 . S
C2189 C2190 1.396 . S
C2189 C2194 1.390 1_545 S
C2190 C2184 1.465 . S
C2190 C2189 1.396 . S
C2190 C2191 1.399 . S
C2191 H2177 0.929 . S
C2191 C2190 1.399 . S
C2191 C2192 1.385 1_545 S
C2192 H2178 0.931 . S
C2192 C2191 1.385 1_565 S
C2192 C2193 1.389 . S
C2193 C2192 1.389 . S
C2193 C2194 1.387 . S
C2194 H2179 0.930 . S
C2194 C2189 1.390 1_565 S
C2194 C2193 1.387 . S
H2195 C2207 0.930 1_565 S
H2196 C2209 0.930 . S
H2197 C2210 0.930 . S
H2198 C2214 0.959 . S
H2199 C2214 0.959 . S
H2200 C2214 0.961 . S
H2201 C2215 0.960 . S
H2202 C2215 0.961 . S
H2203 C2215 0.959 . S
H2204 C2218 0.929 . S
H2205 C2219 0.931 . S
H2206 C2221 0.930 . S
C2207 H2195 0.930 1_545 S
C2207 C2208 1.399 1_545 S
C2207 C2212 1.399 . S
C2208 C2207 1.399 1_565 S
C2208 C2209 1.376 . S
C2209 H2196 0.930 . S
C2209 C2208 1.376 . S
C2209 C2210 1.388 1_565 S
C2210 H2197 0.930 . S
C2210 C2209 1.388 1_545 S
C2210 C2211 1.390 . S
C2211 C2210 1.390 . S
C2211 C2212 1.394 . S
C2211 C2217 1.465 . S
C2212 C2207 1.399 . S
C2212 C2211 1.394 . S
C2212 C2213 1.516 . S
C2213 C2212 1.516 . S
C2213 C2214 1.502 . S
C2213 C2215 1.561 . S
C2213 C2216 1.526 . S
C2214 H2198 0.959 . S
C2214 H2199 0.959 . S
C2214 H2200 0.961 . S
C2214 C2213 1.502 . S
C2215 H2201 0.960 . S
C2215 H2202 0.961 . S
C2215 H2203 0.959 . S
C2215 C2213 1.561 . S
C2216 C2213 1.526 . S
C2216 C2217 1.396 . S
C2216 C2221 1.390 . S
C2217 C2211 1.465 . S
C2217 C2216 1.396 . S
C2217 C2218 1.399 . S
C2218 H2204 0.929 . S
C2218 C2217 1.399 . S
C2218 C2219 1.385 . S
C2219 H2205 0.931 . S
C2219 C2218 1.385 . S
C2219 C2220 1.389 . S
C2220 C2219 1.389 . S
C2220 C2221 1.387 . S
C2221 H2206 0.930 . S
C2221 C2216 1.390 . S
C2221 C2220 1.387 . S
H2222 C2234 0.927 1_565 S
H2223 C2236 0.930 . S
H2224 C2237 0.930 . S
H2225 C2241 0.959 . S
H2226 C2241 0.959 . S
H2227 C2241 0.961 . S
H2228 C2242 0.960 . S
H2229 C2242 0.961 . S
H2230 C2242 0.959 . S
H2231 C2245 0.929 . S
H2232 C2246 0.931 . S
H2233 C2248 0.930 . S
C2234 H2222 0.927 1_545 S
C2234 C2235 1.399 1_545 S
C2234 C2239 1.399 . S
C2235 C2234 1.399 1_565 S
C2235 C2236 1.376 . S
C2236 H2223 0.930 . S
C2236 C2235 1.376 . S
C2236 C2237 1.388 1_565 S
C2237 H2224 0.930 . S
C2237 C2236 1.388 1_545 S
C2237 C2238 1.390 . S
C2238 C2237 1.390 . S
C2238 C2239 1.394 . S
C2238 C2244 1.465 . S
C2239 C2234 1.399 . S
C2239 C2238 1.394 . S
C2239 C2240 1.516 . S
C2240 C2239 1.516 . S
C2240 C2241 1.502 . S
C2240 C2242 1.561 . S
C2240 C2243 1.526 . S
C2241 H2225 0.959 . S
C2241 H2226 0.959 . S
C2241 H2227 0.961 . S
C2241 C2240 1.502 . S
C2242 H2228 0.960 . S
C2242 H2229 0.961 . S
C2242 H2230 0.959 . S
C2242 C2240 1.561 . S
C2243 C2240 1.526 . S
C2243 C2244 1.396 . S
C2243 C2248 1.390 . S
C2244 C2238 1.465 . S
C2244 C2243 1.396 . S
C2244 C2245 1.399 . S
C2245 H2231 0.929 . S
C2245 C2244 1.399 . S
C2245 C2246 1.385 . S
C2246 H2232 0.931 . S
C2246 C2245 1.385 . S
C2246 C2247 1.389 . S
C2247 C2246 1.389 . S
C2247 C2248 1.387 . S
C2248 H2233 0.930 . S
C2248 C2243 1.390 . S
C2248 C2247 1.387 . S
H2249 C2261 0.930 . S
H2250 C2263 0.930 . S
H2251 C2264 0.930 . S
H2252 C2268 0.959 . S
H2253 C2268 0.959 . S
H2254 C2268 0.961 . S
H2255 C2269 0.960 . S
H2256 C2269 0.961 . S
H2257 C2269 0.959 . S
H2258 C2272 0.929 . S
H2259 C2273 0.931 . S
H2260 C2275 0.930 . S
C2261 H2249 0.930 . S
C2261 C2262 1.399 . S
C2261 C2266 1.399 1_565 S
C2262 C2261 1.399 . S
C2262 C2263 1.376 . S
C2263 H2250 0.930 . S
C2263 C2262 1.376 . S
C2263 C2264 1.388 1_565 S
C2264 H2251 0.930 . S
C2264 C2263 1.388 1_545 S
C2264 C2265 1.390 . S
C2265 C2264 1.390 . S
C2265 C2266 1.394 . S
C2265 C2271 1.465 . S
C2266 C2261 1.399 1_545 S
C2266 C2265 1.394 . S
C2266 C2267 1.516 . S
C2267 C2266 1.516 . S
C2267 C2268 1.502 . S
C2267 C2269 1.561 . S
C2267 C2270 1.526 . S
C2268 H2252 0.959 . S
C2268 H2253 0.959 . S
C2268 H2254 0.961 . S
C2268 C2267 1.502 . S
C2269 H2255 0.960 . S
C2269 H2256 0.961 . S
C2269 H2257 0.959 . S
C2269 C2267 1.561 . S
C2270 C2267 1.526 . S
C2270 C2271 1.396 . S
C2270 C2275 1.390 . S
C2271 C2265 1.465 . S
C2271 C2270 1.396 . S
C2271 C2272 1.399 . S
C2272 H2258 0.929 . S
C2272 C2271 1.399 . S
C2272 C2273 1.385 . S
C2273 H2259 0.931 . S
C2273 C2272 1.385 . S
C2273 C2274 1.389 . S
C2274 C2273 1.389 . S
C2274 C2275 1.387 . S
C2275 H2260 0.930 . S
C2275 C2270 1.390 . S
C2275 C2274 1.387 . S
H2276 C2288 0.930 . S
H2277 C2290 0.930 . S
H2278 C2291 0.930 . S
H2279 C2295 0.959 . S
H2280 C2295 0.959 . S
H2281 C2295 0.961 . S
H2282 C2296 0.960 . S
H2283 C2296 0.961 . S
H2284 C2296 0.959 . S
H2285 C2299 0.929 . S
H2286 C2300 0.931 . S
H2287 C2302 0.930 . S
C2288 H2276 0.930 . S
C2288 C2289 1.399 . S
C2288 C2293 1.399 . S
C2289 C2288 1.399 . S
C2289 C2290 1.376 . S
C2290 H2277 0.930 . S
C2290 C2289 1.376 . S
C2290 C2291 1.388 . S
C2291 H2278 0.930 . S
C2291 C2290 1.388 . S
C2291 C2292 1.390 . S
C2292 C2291 1.390 . S
C2292 C2293 1.394 . S
C2292 C2298 1.465 . S
C2293 C2288 1.399 . S
C2293 C2292 1.394 . S
C2293 C2294 1.516 . S
C2294 C2293 1.516 . S
C2294 C2295 1.502 . S
C2294 C2296 1.561 . S
C2294 C2297 1.526 . S
C2295 H2279 0.959 . S
C2295 H2280 0.959 . S
C2295 H2281 0.961 . S
C2295 C2294 1.502 . S
C2296 H2282 0.960 . S
C2296 H2283 0.961 . S
C2296 H2284 0.959 . S
C2296 C2294 1.561 . S
C2297 C2294 1.526 . S
C2297 C2298 1.396 . S
C2297 C2302 1.390 1_565 S
C2298 C2292 1.465 . S
C2298 C2297 1.396 . S
C2298 C2299 1.399 . S
C2299 H2285 0.929 . S
C2299 C2298 1.399 . S
C2299 C2300 1.385 1_565 S
C2300 H2286 0.931 . S
C2300 C2299 1.385 1_545 S
C2300 C2301 1.389 . S
C2301 C2300 1.389 . S
C2301 C2302 1.387 . S
C2302 H2287 0.930 . S
C2302 C2297 1.390 1_545 S
C2302 C2301 1.387 . S
H2303 C2315 0.930 . S
H2304 C2317 0.930 . S
H2305 C2318 0.930 . S
H2306 C2322 0.959 . S
H2307 C2322 0.959 . S
H2308 C2322 0.961 . S
H2309 C2323 0.960 . S
H2310 C2323 0.961 . S
H2311 C2323 0.959 . S
H2312 C2326 0.929 . S
H2313 C2327 0.931 . S
H2314 C2329 0.930 . S
C2315 H2303 0.930 . S
C2315 C2316 1.399 1_565 S
C2315 C2320 1.399 . S
C2316 C2315 1.399 1_545 S
C2316 C2317 1.376 . S
C2317 H2304 0.930 . S
C2317 C2316 1.376 . S
C2317 C2318 1.388 1_545 S
C2318 H2305 0.930 . S
C2318 C2317 1.388 1_565 S
C2318 C2319 1.390 . S
C2319 C2318 1.390 . S
C2319 C2320 1.394 . S
C2319 C2325 1.465 . S
C2320 C2315 1.399 . S
C2320 C2319 1.394 . S
C2320 C2321 1.516 . S
C2321 C2320 1.516 . S
C2321 C2322 1.502 . S
C2321 C2323 1.561 . S
C2321 C2324 1.526 . S
C2322 H2306 0.959 . S
C2322 H2307 0.959 . S
C2322 H2308 0.961 . S
C2322 C2321 1.502 . S
C2323 H2309 0.960 . S
C2323 H2310 0.961 . S
C2323 H2311 0.959 . S
C2323 C2321 1.561 . S
C2324 C2321 1.526 . S
C2324 C2325 1.396 . S
C2324 C2329 1.390 . S
C2325 C2319 1.465 . S
C2325 C2324 1.396 . S
C2325 C2326 1.399 . S
C2326 H2312 0.929 . S
C2326 C2325 1.399 . S
C2326 C2327 1.385 . S
C2327 H2313 0.931 . S
C2327 C2326 1.385 . S
C2327 C2328 1.389 . S
C2328 C2327 1.389 . S
C2328 C2329 1.387 . S
C2329 H2314 0.930 . S
C2329 C2324 1.390 . S
C2329 C2328 1.387 . S
H2330 C2342 0.930 . S
H2331 C2344 0.930 . S
H2332 C2345 0.930 . S
H2333 C2349 0.959 . S
H2334 C2349 0.959 . S
H2335 C2349 0.961 . S
H2336 C2350 0.960 . S
H2337 C2350 0.961 . S
H2338 C2350 0.959 . S
H2339 C2353 0.929 . S
H2340 C2354 0.931 . S
H2341 C2356 0.930 . S
C2342 H2330 0.930 . S
C2342 C2343 1.399 1_565 S
C2342 C2347 1.399 . S
C2343 C2342 1.399 1_545 S
C2343 C2344 1.376 . S
C2344 H2331 0.930 . S
C2344 C2343 1.376 . S
C2344 C2345 1.388 1_545 S
C2345 H2332 0.930 . S
C2345 C2344 1.388 1_565 S
C2345 C2346 1.390 . S
C2346 C2345 1.390 . S
C2346 C2347 1.394 . S
C2346 C2352 1.465 . S
C2347 C2342 1.399 . S
C2347 C2346 1.394 . S
C2347 C2348 1.516 . S
C2348 C2347 1.516 . S
C2348 C2349 1.502 . S
C2348 C2350 1.561 . S
C2348 C2351 1.526 . S
C2349 H2333 0.959 . S
C2349 H2334 0.959 . S
C2349 H2335 0.961 . S
C2349 C2348 1.502 . S
C2350 H2336 0.960 . S
C2350 H2337 0.961 . S
C2350 H2338 0.959 . S
C2350 C2348 1.561 . S
C2351 C2348 1.526 . S
C2351 C2352 1.396 . S
C2351 C2356 1.390 . S
C2352 C2346 1.465 . S
C2352 C2351 1.396 . S
C2352 C2353 1.399 . S
C2353 H2339 0.929 . S
C2353 C2352 1.399 . S
C2353 C2354 1.385 . S
C2354 H2340 0.931 . S
C2354 C2353 1.385 . S
C2354 C2355 1.389 . S
C2355 C2354 1.389 . S
C2355 C2356 1.387 . S
C2356 H2341 0.930 . S
C2356 C2351 1.390 . S
C2356 C2355 1.387 . S
H2357 C2369 0.930 . S
H2358 C2371 0.930 . S
H2359 C2372 0.930 . S
H2360 C2376 0.959 . S
H2361 C2376 0.959 . S
H2362 C2376 0.961 . S
H2363 C2377 0.960 . S
H2364 C2377 0.961 . S
H2365 C2377 0.959 . S
H2366 C2380 0.929 . S
H2367 C2381 0.931 . S
H2368 C2383 0.930 . S
C2369 H2357 0.930 . S
C2369 C2370 1.399 . S
C2369 C2374 1.399 . S
C2370 C2369 1.399 . S
C2370 C2371 1.376 . S
C2371 H2358 0.930 . S
C2371 C2370 1.376 . S
C2371 C2372 1.388 . S
C2372 H2359 0.930 . S
C2372 C2371 1.388 . S
C2372 C2373 1.390 . S
C2373 C2372 1.390 . S
C2373 C2374 1.394 . S
C2373 C2379 1.465 . S
C2374 C2369 1.399 . S
C2374 C2373 1.394 . S
C2374 C2375 1.516 . S
C2375 C2374 1.516 . S
C2375 C2376 1.502 . S
C2375 C2377 1.561 . S
C2375 C2378 1.526 . S
C2376 H2360 0.959 . S
C2376 H2361 0.959 . S
C2376 H2362 0.961 . S
C2376 C2375 1.502 . S
C2377 H2363 0.960 . S
C2377 H2364 0.961 . S
C2377 H2365 0.959 . S
C2377 C2375 1.561 . S
C2378 C2375 1.526 . S
C2378 C2379 1.396 . S
C2378 C2383 1.390 1_565 S
C2379 C2373 1.465 . S
C2379 C2378 1.396 . S
C2379 C2380 1.399 . S
C2380 H2366 0.929 . S
C2380 C2379 1.399 . S
C2380 C2381 1.385 1_565 S
C2381 H2367 0.931 . S
C2381 C2380 1.385 1_545 S
C2381 C2382 1.389 . S
C2382 C2381 1.389 . S
C2382 C2383 1.387 . S
C2383 H2368 0.930 . S
C2383 C2378 1.390 1_545 S
C2383 C2382 1.387 . S
H2384 C2396 0.930 . S
H2385 C2398 0.930 . S
H2386 C2399 0.930 . S
H2387 C2403 0.959 . S
H2388 C2403 0.959 . S
H2389 C2403 0.961 . S
H2390 C2404 0.960 . S
H2391 C2404 0.961 . S
H2392 C2404 0.959 . S
H2393 C2407 0.929 . S
H2394 C2408 0.931 . S
H2395 C2410 0.930 . S
C2396 H2384 0.930 . S
C2396 C2397 1.399 . S
C2396 C2401 1.399 . S
C2397 C2396 1.399 . S
C2397 C2398 1.376 . S
C2398 H2385 0.930 . S
C2398 C2397 1.376 . S
C2398 C2399 1.388 . S
C2399 H2386 0.930 . S
C2399 C2398 1.388 . S
C2399 C2400 1.390 . S
C2400 C2399 1.390 . S
C2400 C2401 1.394 . S
C2400 C2406 1.465 . S
C2401 C2396 1.399 . S
C2401 C2400 1.394 . S
C2401 C2402 1.516 . S
C2402 C2401 1.516 . S
C2402 C2403 1.502 . S
C2402 C2404 1.561 . S
C2402 C2405 1.526 . S
C2403 H2387 0.959 . S
C2403 H2388 0.959 . S
C2403 H2389 0.961 . S
C2403 C2402 1.502 . S
C2404 H2390 0.960 . S
C2404 H2391 0.961 . S
C2404 H2392 0.959 . S
C2404 C2402 1.561 . S
C2405 C2402 1.526 . S
C2405 C2406 1.396 . S
C2405 C2410 1.390 . S
C2406 C2400 1.465 . S
C2406 C2405 1.396 . S
C2406 C2407 1.399 . S
C2407 H2393 0.929 . S
C2407 C2406 1.399 . S
C2407 C2408 1.385 . S
C2408 H2394 0.931 . S
C2408 C2407 1.385 . S
C2408 C2409 1.389 . S
C2409 C2408 1.389 . S
C2409 C2410 1.387 . S
C2410 H2395 0.930 . S
C2410 C2405 1.390 . S
C2410 C2409 1.387 . S
H2411 C2423 0.930 . S
H2412 C2425 0.930 . S
H2413 C2426 0.930 . S
H2414 C2430 0.959 . S
H2415 C2430 0.959 . S
H2416 C2430 0.961 . S
H2417 C2431 0.960 . S
H2418 C2431 0.961 . S
H2419 C2431 0.959 . S
H2420 C2434 0.929 . S
H2421 C2435 0.931 . S
H2422 C2437 0.930 . S
C2423 H2411 0.930 . S
C2423 C2424 1.399 . S
C2423 C2428 1.399 . S
C2424 C2423 1.399 . S
C2424 C2425 1.376 . S
C2425 H2412 0.930 . S
C2425 C2424 1.376 . S
C2425 C2426 1.388 . S
C2426 H2413 0.930 . S
C2426 C2425 1.388 . S
C2426 C2427 1.390 . S
C2427 C2426 1.390 . S
C2427 C2428 1.394 . S
C2427 C2433 1.465 . S
C2428 C2423 1.399 . S
C2428 C2427 1.394 . S
C2428 C2429 1.516 . S
C2429 C2428 1.516 . S
C2429 C2430 1.502 . S
C2429 C2431 1.561 . S
C2429 C2432 1.526 . S
C2430 H2414 0.959 . S
C2430 H2415 0.959 . S
C2430 H2416 0.961 . S
C2430 C2429 1.502 . S
C2431 H2417 0.960 . S
C2431 H2418 0.961 . S
C2431 H2419 0.959 . S
C2431 C2429 1.561 . S
C2432 C2429 1.526 . S
C2432 C2433 1.396 . S
C2432 C2437 1.390 . S
C2433 C2427 1.465 . S
C2433 C2432 1.396 . S
C2433 C2434 1.399 . S
C2434 H2420 0.929 . S
C2434 C2433 1.399 . S
C2434 C2435 1.385 . S
C2435 H2421 0.931 . S
C2435 C2434 1.385 . S
C2435 C2436 1.389 . S
C2436 C2435 1.389 . S
C2436 C2437 1.387 . S
C2437 H2422 0.930 . S
C2437 C2432 1.390 . S
C2437 C2436 1.387 . S
H2438 C2450 0.930 . S
H2439 C2452 0.930 . S
H2440 C2453 0.930 . S
H2441 C2457 0.959 . S
H2442 C2457 0.959 . S
H2443 C2457 0.961 . S
H2444 C2458 0.960 . S
H2445 C2458 0.961 . S
H2446 C2458 0.959 . S
H2447 C2461 0.929 . S
H2448 C2462 0.931 . S
H2449 C2464 0.930 . S
C2450 H2438 0.930 . S
C2450 C2451 1.399 . S
C2450 C2455 1.399 . S
C2451 C2450 1.399 . S
C2451 C2452 1.376 . S
C2452 H2439 0.930 . S
C2452 C2451 1.376 . S
C2452 C2453 1.388 . S
C2453 H2440 0.930 . S
C2453 C2452 1.388 . S
C2453 C2454 1.390 . S
C2454 C2453 1.390 . S
C2454 C2455 1.394 . S
C2454 C2460 1.465 . S
C2455 C2450 1.399 . S
C2455 C2454 1.394 . S
C2455 C2456 1.516 . S
C2456 C2455 1.516 . S
C2456 C2457 1.502 . S
C2456 C2458 1.561 . S
C2456 C2459 1.526 . S
C2457 H2441 0.959 . S
C2457 H2442 0.959 . S
C2457 H2443 0.961 . S
C2457 C2456 1.502 . S
C2458 H2444 0.960 . S
C2458 H2445 0.961 . S
C2458 H2446 0.959 . S
C2458 C2456 1.561 . S
C2459 C2456 1.526 . S
C2459 C2460 1.396 . S
C2459 C2464 1.390 . S
C2460 C2454 1.465 . S
C2460 C2459 1.396 . S
C2460 C2461 1.399 . S
C2461 H2447 0.929 . S
C2461 C2460 1.399 . S
C2461 C2462 1.385 . S
C2462 H2448 0.931 . S
C2462 C2461 1.385 . S
C2462 C2463 1.389 . S
C2463 C2462 1.389 . S
C2463 C2464 1.387 . S
C2464 H2449 0.930 . S
C2464 C2459 1.390 . S
C2464 C2463 1.387 . S
H2465 C2477 0.930 . S
H2466 C2479 0.930 . S
H2467 C2480 0.930 . S
H2468 C2484 0.959 . S
H2469 C2484 0.959 . S
H2470 C2484 0.961 . S
H2471 C2485 0.960 . S
H2472 C2485 0.961 . S
H2473 C2485 0.959 . S
H2474 C2488 0.929 . S
H2475 C2489 0.931 . S
H2476 C2491 0.930 . S
C2477 H2465 0.930 . S
C2477 C2478 1.399 . S
C2477 C2482 1.399 . S
C2478 C2477 1.399 . S
C2478 C2479 1.376 . S
C2479 H2466 0.930 . S
C2479 C2478 1.376 . S
C2479 C2480 1.388 . S
C2480 H2467 0.930 . S
C2480 C2479 1.388 . S
C2480 C2481 1.390 . S
C2481 C2480 1.390 . S
C2481 C2482 1.394 . S
C2481 C2487 1.465 . S
C2482 C2477 1.399 . S
C2482 C2481 1.394 . S
C2482 C2483 1.516 . S
C2483 C2482 1.516 . S
C2483 C2484 1.502 . S
C2483 C2485 1.561 . S
C2483 C2486 1.526 . S
C2484 H2468 0.959 . S
C2484 H2469 0.959 . S
C2484 H2470 0.961 . S
C2484 C2483 1.502 . S
C2485 H2471 0.960 . S
C2485 H2472 0.961 . S
C2485 H2473 0.959 . S
C2485 C2483 1.561 . S
C2486 C2483 1.526 . S
C2486 C2487 1.396 . S
C2486 C2491 1.390 . S
C2487 C2481 1.465 . S
C2487 C2486 1.396 . S
C2487 C2488 1.399 . S
C2488 H2474 0.929 . S
C2488 C2487 1.399 . S
C2488 C2489 1.385 . S
C2489 H2475 0.931 . S
C2489 C2488 1.385 . S
C2489 C2490 1.389 . S
C2490 C2489 1.389 . S
C2490 C2491 1.387 . S
C2491 H2476 0.930 . S
C2491 C2486 1.390 . S
C2491 C2490 1.387 . S
H2492 C2504 0.930 . S
H2493 C2506 0.930 . S
H2494 C2507 0.930 . S
H2495 C2511 0.959 . S
H2496 C2511 0.959 . S
H2497 C2511 0.961 . S
H2498 C2512 0.960 . S
H2499 C2512 0.961 . S
H2500 C2512 0.959 . S
H2501 C2515 0.929 . S
H2502 C2516 0.931 . S
H2503 C2518 0.930 . S
C2504 H2492 0.930 . S
C2504 C2505 1.399 . S
C2504 C2509 1.399 . S
C2505 C2504 1.399 . S
C2505 C2506 1.376 . S
C2506 H2493 0.930 . S
C2506 C2505 1.376 . S
C2506 C2507 1.388 . S
C2507 H2494 0.930 . S
C2507 C2506 1.388 . S
C2507 C2508 1.390 . S
C2508 C2507 1.390 . S
C2508 C2509 1.394 . S
C2508 C2514 1.465 . S
C2509 C2504 1.399 . S
C2509 C2508 1.394 . S
C2509 C2510 1.516 . S
C2510 C2509 1.516 . S
C2510 C2511 1.502 . S
C2510 C2512 1.561 . S
C2510 C2513 1.526 . S
C2511 H2495 0.959 . S
C2511 H2496 0.959 . S
C2511 H2497 0.961 . S
C2511 C2510 1.502 . S
C2512 H2498 0.960 . S
C2512 H2499 0.961 . S
C2512 H2500 0.959 . S
C2512 C2510 1.561 . S
C2513 C2510 1.526 . S
C2513 C2514 1.396 . S
C2513 C2518 1.390 . S
C2514 C2508 1.465 . S
C2514 C2513 1.396 . S
C2514 C2515 1.399 . S
C2515 H2501 0.929 . S
C2515 C2514 1.399 . S
C2515 C2516 1.385 . S
C2516 H2502 0.931 . S
C2516 C2515 1.385 . S
C2516 C2517 1.389 . S
C2517 C2516 1.389 . S
C2517 C2518 1.387 . S
C2518 H2503 0.930 . S
C2518 C2513 1.390 . S
C2518 C2517 1.387 . S
H2519 C2531 0.930 . S
H2520 C2533 0.930 . S
H2521 C2534 0.930 . S
H2522 C2538 0.959 . S
H2523 C2538 0.959 . S
H2524 C2538 0.961 . S
H2525 C2539 0.960 . S
H2526 C2539 0.961 . S
H2527 C2539 0.959 . S
H2528 C2542 0.929 . S
H2529 C2543 0.931 . S
H2530 C2545 0.930 . S
C2531 H2519 0.930 . S
C2531 C2532 1.399 . S
C2531 C2536 1.399 . S
C2532 C2531 1.399 . S
C2532 C2533 1.376 . S
C2533 H2520 0.930 . S
C2533 C2532 1.376 . S
C2533 C2534 1.388 . S
C2534 H2521 0.930 . S
C2534 C2533 1.388 . S
C2534 C2535 1.390 . S
C2535 C2534 1.390 . S
C2535 C2536 1.394 . S
C2535 C2541 1.465 . S
C2536 C2531 1.399 . S
C2536 C2535 1.394 . S
C2536 C2537 1.516 . S
C2537 C2536 1.516 . S
C2537 C2538 1.502 . S
C2537 C2539 1.561 . S
C2537 C2540 1.526 . S
C2538 H2522 0.959 . S
C2538 H2523 0.959 . S
C2538 H2524 0.961 . S
C2538 C2537 1.502 . S
C2539 H2525 0.960 . S
C2539 H2526 0.961 . S
C2539 H2527 0.959 . S
C2539 C2537 1.561 . S
C2540 C2537 1.526 . S
C2540 C2541 1.396 . S
C2540 C2545 1.390 . S
C2541 C2535 1.465 . S
C2541 C2540 1.396 . S
C2541 C2542 1.399 . S
C2542 H2528 0.929 . S
C2542 C2541 1.399 . S
C2542 C2543 1.385 . S
C2543 H2529 0.931 . S
C2543 C2542 1.385 . S
C2543 C2544 1.389 . S
C2544 C2543 1.389 . S
C2544 C2545 1.387 . S
C2545 H2530 0.930 . S
C2545 C2540 1.390 . S
C2545 C2544 1.387 . S
H2546 C2558 0.930 . S
H2547 C2560 0.930 . S
H2548 C2561 0.930 . S
H2549 C2565 0.959 . S
H2550 C2565 0.959 . S
H2551 C2565 0.961 . S
H2552 C2566 0.960 . S
H2553 C2566 0.961 . S
H2554 C2566 0.959 . S
H2555 C2569 0.929 . S
H2556 C2570 0.931 . S
H2557 C2572 0.930 . S
C2558 H2546 0.930 . S
C2558 C2559 1.399 . S
C2558 C2563 1.399 . S
C2559 C2558 1.399 . S
C2559 C2560 1.376 . S
C2560 H2547 0.930 . S
C2560 C2559 1.376 . S
C2560 C2561 1.388 . S
C2561 H2548 0.930 . S
C2561 C2560 1.388 . S
C2561 C2562 1.390 . S
C2562 C2561 1.390 . S
C2562 C2563 1.394 . S
C2562 C2568 1.465 . S
C2563 C2558 1.399 . S
C2563 C2562 1.394 . S
C2563 C2564 1.516 . S
C2564 C2563 1.516 . S
C2564 C2565 1.502 . S
C2564 C2566 1.561 . S
C2564 C2567 1.526 . S
C2565 H2549 0.959 . S
C2565 H2550 0.959 . S
C2565 H2551 0.961 . S
C2565 C2564 1.502 . S
C2566 H2552 0.960 . S
C2566 H2553 0.961 . S
C2566 H2554 0.959 . S
C2566 C2564 1.561 . S
C2567 C2564 1.526 . S
C2567 C2568 1.396 . S
C2567 C2572 1.390 . S
C2568 C2562 1.465 . S
C2568 C2567 1.396 . S
C2568 C2569 1.399 . S
C2569 H2555 0.929 . S
C2569 C2568 1.399 . S
C2569 C2570 1.385 . S
C2570 H2556 0.931 . S
C2570 C2569 1.385 . S
C2570 C2571 1.389 . S
C2571 C2570 1.389 . S
C2571 C2572 1.387 . S
C2572 H2557 0.930 . S
C2572 C2567 1.390 . S
C2572 C2571 1.387 . S
H2573 C2585 0.930 . S
H2574 C2587 0.930 . S
H2575 C2588 0.930 . S
H2576 C2592 0.959 . S
H2577 C2592 0.959 . S
H2578 C2592 0.961 . S
H2579 C2593 0.960 . S
H2580 C2593 0.961 . S
H2581 C2593 0.959 . S
H2582 C2596 0.929 . S
H2583 C2597 0.931 . S
H2584 C2599 0.930 . S
C2585 H2573 0.930 . S
C2585 C2586 1.399 . S
C2585 C2590 1.399 . S
C2586 C2585 1.399 . S
C2586 C2587 1.376 . S
C2587 H2574 0.930 . S
C2587 C2586 1.376 . S
C2587 C2588 1.388 . S
C2588 H2575 0.930 . S
C2588 C2587 1.388 . S
C2588 C2589 1.390 . S
C2589 C2588 1.390 . S
C2589 C2590 1.394 . S
C2589 C2595 1.465 . S
C2590 C2585 1.399 . S
C2590 C2589 1.394 . S
C2590 C2591 1.516 . S
C2591 C2590 1.516 . S
C2591 C2592 1.502 . S
C2591 C2593 1.561 . S
C2591 C2594 1.526 . S
C2592 H2576 0.959 . S
C2592 H2577 0.959 . S
C2592 H2578 0.961 . S
C2592 C2591 1.502 . S
C2593 H2579 0.960 . S
C2593 H2580 0.961 . S
C2593 H2581 0.959 . S
C2593 C2591 1.561 . S
C2594 C2591 1.526 . S
C2594 C2595 1.396 . S
C2594 C2599 1.390 . S
C2595 C2589 1.465 . S
C2595 C2594 1.396 . S
C2595 C2596 1.399 . S
C2596 H2582 0.929 . S
C2596 C2595 1.399 . S
C2596 C2597 1.385 . S
C2597 H2583 0.931 . S
C2597 C2596 1.385 . S
C2597 C2598 1.389 . S
C2598 C2597 1.389 . S
C2598 C2599 1.387 . S
C2599 H2584 0.930 . S
C2599 C2594 1.390 . S
C2599 C2598 1.387 . S
H2600 C2612 0.930 . S
H2601 C2614 0.930 . S
H2602 C2615 0.930 . S
H2603 C2619 0.959 . S
H2604 C2619 0.959 . S
H2605 C2619 0.961 . S
H2606 C2620 0.960 . S
H2607 C2620 0.961 . S
H2608 C2620 0.959 . S
H2609 C2623 0.929 . S
H2610 C2624 0.931 . S
H2611 C2626 0.930 . S
C2612 H2600 0.930 . S
C2612 C2613 1.399 . S
C2612 C2617 1.399 1_565 S
C2613 C2612 1.399 . S
C2613 C2614 1.376 . S
C2614 H2601 0.930 . S
C2614 C2613 1.376 . S
C2614 C2615 1.388 1_565 S
C2615 H2602 0.930 . S
C2615 C2614 1.388 1_545 S
C2615 C2616 1.390 . S
C2616 C2615 1.390 . S
C2616 C2617 1.394 . S
C2616 C2622 1.465 . S
C2617 C2612 1.399 1_545 S
C2617 C2616 1.394 . S
C2617 C2618 1.516 . S
C2618 C2617 1.516 . S
C2618 C2619 1.502 . S
C2618 C2620 1.561 . S
C2618 C2621 1.526 . S
C2619 H2603 0.959 . S
C2619 H2604 0.959 . S
C2619 H2605 0.961 . S
C2619 C2618 1.502 . S
C2620 H2606 0.960 . S
C2620 H2607 0.961 . S
C2620 H2608 0.959 . S
C2620 C2618 1.561 . S
C2621 C2618 1.526 . S
C2621 C2622 1.396 . S
C2621 C2626 1.390 . S
C2622 C2616 1.465 . S
C2622 C2621 1.396 . S
C2622 C2623 1.399 . S
C2623 H2609 0.929 . S
C2623 C2622 1.399 . S
C2623 C2624 1.385 . S
C2624 H2610 0.931 . S
C2624 C2623 1.385 . S
C2624 C2625 1.389 . S
C2625 C2624 1.389 . S
C2625 C2626 1.387 . S
C2626 H2611 0.930 . S
C2626 C2621 1.390 . S
C2626 C2625 1.387 . S
H2627 C2639 0.930 1_565 S
H2628 C2641 0.930 . S
H2629 C2642 0.930 . S
H2630 C2646 0.959 . S
H2631 C2646 0.959 . S
H2632 C2646 0.961 . S
H2633 C2647 0.960 . S
H2634 C2647 0.961 . S
H2635 C2647 0.959 . S
H2636 C2650 0.929 . S
H2637 C2651 0.931 . S
H2638 C2653 0.930 . S
C2639 H2627 0.930 1_545 S
C2639 C2640 1.399 1_545 S
C2639 C2644 1.399 . S
C2640 C2639 1.399 1_565 S
C2640 C2641 1.376 . S
C2641 H2628 0.930 . S
C2641 C2640 1.376 . S
C2641 C2642 1.388 1_565 S
C2642 H2629 0.930 . S
C2642 C2641 1.388 1_545 S
C2642 C2643 1.390 . S
C2643 C2642 1.390 . S
C2643 C2644 1.394 . S
C2643 C2649 1.465 . S
C2644 C2639 1.399 . S
C2644 C2643 1.394 . S
C2644 C2645 1.516 . S
C2645 C2644 1.516 . S
C2645 C2646 1.502 . S
C2645 C2647 1.561 . S
C2645 C2648 1.526 . S
C2646 H2630 0.959 . S
C2646 H2631 0.959 . S
C2646 H2632 0.961 . S
C2646 C2645 1.502 . S
C2647 H2633 0.960 . S
C2647 H2634 0.961 . S
C2647 H2635 0.959 . S
C2647 C2645 1.561 . S
C2648 C2645 1.526 . S
C2648 C2649 1.396 . S
C2648 C2653 1.390 . S
C2649 C2643 1.465 . S
C2649 C2648 1.396 . S
C2649 C2650 1.399 . S
C2650 H2636 0.929 . S
C2650 C2649 1.399 . S
C2650 C2651 1.385 . S
C2651 H2637 0.931 . S
C2651 C2650 1.385 . S
C2651 C2652 1.389 . S
C2652 C2651 1.389 . S
C2652 C2653 1.387 . S
C2653 H2638 0.930 . S
C2653 C2648 1.390 . S
C2653 C2652 1.387 . S
H2654 C2666 0.930 1_565 S
H2655 C2668 0.930 . S
H2656 C2669 0.930 . S
H2657 C2673 0.959 . S
H2658 C2673 0.959 . S
H2659 C2673 0.961 . S
H2660 C2674 0.960 . S
H2661 C2674 0.961 . S
H2662 C2674 0.959 . S
H2663 C2677 0.929 . S
H2664 C2678 0.931 . S
H2665 C2680 0.930 . S
C2666 H2654 0.930 1_545 S
C2666 C2667 1.399 1_545 S
C2666 C2671 1.399 . S
C2667 C2666 1.399 1_565 S
C2667 C2668 1.376 . S
C2668 H2655 0.930 . S
C2668 C2667 1.376 . S
C2668 C2669 1.388 1_565 S
C2669 H2656 0.930 . S
C2669 C2668 1.388 1_545 S
C2669 C2670 1.390 . S
C2670 C2669 1.390 . S
C2670 C2671 1.394 . S
C2670 C2676 1.465 . S
C2671 C2666 1.399 . S
C2671 C2670 1.394 . S
C2671 C2672 1.516 . S
C2672 C2671 1.516 . S
C2672 C2673 1.502 . S
C2672 C2674 1.561 . S
C2672 C2675 1.526 . S
C2673 H2657 0.959 . S
C2673 H2658 0.959 . S
C2673 H2659 0.961 . S
C2673 C2672 1.502 . S
C2674 H2660 0.960 . S
C2674 H2661 0.961 . S
C2674 H2662 0.959 . S
C2674 C2672 1.561 . S
C2675 C2672 1.526 . S
C2675 C2676 1.396 . S
C2675 C2680 1.390 . S
C2676 C2670 1.465 . S
C2676 C2675 1.396 . S
C2676 C2677 1.399 . S
C2677 H2663 0.929 . S
C2677 C2676 1.399 . S
C2677 C2678 1.385 . S
C2678 H2664 0.931 . S
C2678 C2677 1.385 . S
C2678 C2679 1.389 . S
C2679 C2678 1.389 . S
C2679 C2680 1.387 . S
C2680 H2665 0.930 . S
C2680 C2675 1.390 . S
C2680 C2679 1.387 . S
H2681 C2693 0.930 . S
H2682 C2695 0.930 . S
H2683 C2696 0.930 . S
H2684 C2700 0.959 . S
H2685 C2700 0.959 . S
H2686 C2700 0.961 . S
H2687 C2701 0.960 . S
H2688 C2701 0.961 . S
H2689 C2701 0.959 . S
H2690 C2704 0.929 1_545 S
H2691 C2705 0.931 . S
H2692 C2707 0.930 . S
C2693 H2681 0.930 . S
C2693 C2694 1.399 . S
C2693 C2698 1.399 . S
C2694 C2693 1.399 . S
C2694 C2695 1.376 . S
C2695 H2682 0.930 . S
C2695 C2694 1.376 . S
C2695 C2696 1.388 . S
C2696 H2683 0.930 . S
C2696 C2695 1.388 . S
C2696 C2697 1.390 . S
C2697 C2696 1.390 . S
C2697 C2698 1.394 . S
C2697 C2703 1.465 . S
C2698 C2693 1.399 . S
C2698 C2697 1.394 . S
C2698 C2699 1.516 . S
C2699 C2698 1.516 . S
C2699 C2700 1.502 . S
C2699 C2701 1.561 . S
C2699 C2702 1.526 . S
C2700 H2684 0.959 . S
C2700 H2685 0.959 . S
C2700 H2686 0.961 . S
C2700 C2699 1.502 . S
C2701 H2687 0.960 . S
C2701 H2688 0.961 . S
C2701 H2689 0.959 . S
C2701 C2699 1.561 . S
C2702 C2699 1.526 . S
C2702 C2703 1.396 . S
C2702 C2707 1.390 1_545 S
C2703 C2697 1.465 . S
C2703 C2702 1.396 . S
C2703 C2704 1.398 1_545 S
C2704 H2690 0.929 1_565 S
C2704 C2703 1.398 1_565 S
C2704 C2705 1.385 . S
C2705 H2691 0.931 . S
C2705 C2704 1.385 . S
C2705 C2706 1.389 . S
C2706 C2705 1.389 . S
C2706 C2707 1.387 . S
C2707 H2692 0.930 . S
C2707 C2702 1.390 1_565 S
C2707 C2706 1.387 . S
H2708 C2720 0.930 . S
H2709 C2722 0.930 . S
H2710 C2723 0.930 . S
H2711 C2727 0.959 . S
H2712 C2727 0.959 . S
H2713 C2727 0.961 . S
H2714 C2728 0.960 . S
H2715 C2728 0.961 . S
H2716 C2728 0.959 . S
H2717 C2731 0.929 . S
H2718 C2732 0.931 . S
H2719 C2734 0.930 . S
C2720 H2708 0.930 . S
C2720 C2721 1.399 . S
C2720 C2725 1.399 1_545 S
C2721 C2720 1.399 . S
C2721 C2722 1.376 . S
C2722 H2709 0.930 . S
C2722 C2721 1.376 . S
C2722 C2723 1.388 1_545 S
C2723 H2710 0.930 . S
C2723 C2722 1.388 1_565 S
C2723 C2724 1.390 . S
C2724 C2723 1.390 . S
C2724 C2725 1.394 . S
C2724 C2730 1.465 . S
C2725 C2720 1.399 1_565 S
C2725 C2724 1.394 . S
C2725 C2726 1.516 . S
C2726 C2725 1.516 . S
C2726 C2727 1.502 . S
C2726 C2728 1.561 . S
C2726 C2729 1.526 . S
C2727 H2711 0.959 . S
C2727 H2712 0.959 . S
C2727 H2713 0.961 . S
C2727 C2726 1.502 . S
C2728 H2714 0.960 . S
C2728 H2715 0.961 . S
C2728 H2716 0.959 . S
C2728 C2726 1.561 . S
C2729 C2726 1.526 . S
C2729 C2730 1.396 . S
C2729 C2734 1.390 . S
C2730 C2724 1.465 . S
C2730 C2729 1.396 . S
C2730 C2731 1.399 . S
C2731 H2717 0.929 . S
C2731 C2730 1.399 . S
C2731 C2732 1.385 . S
C2732 H2718 0.931 . S
C2732 C2731 1.385 . S
C2732 C2733 1.389 . S
C2733 C2732 1.389 . S
C2733 C2734 1.387 . S
C2734 H2719 0.930 . S
C2734 C2729 1.390 . S
C2734 C2733 1.387 . S
H2735 C2747 0.930 . S
H2736 C2749 0.930 . S
H2737 C2750 0.930 . S
H2738 C2754 0.959 . S
H2739 C2754 0.959 . S
H2740 C2754 0.961 . S
H2741 C2755 0.960 . S
H2742 C2755 0.961 . S
H2743 C2755 0.959 . S
H2744 C2758 0.929 . S
H2745 C2759 0.931 . S
H2746 C2761 0.930 1_545 S
C2747 H2735 0.930 . S
C2747 C2748 1.399 . S
C2747 C2752 1.399 . S
C2748 C2747 1.399 . S
C2748 C2749 1.376 . S
C2749 H2736 0.930 . S
C2749 C2748 1.376 . S
C2749 C2750 1.388 . S
C2750 H2737 0.930 . S
C2750 C2749 1.388 . S
C2750 C2751 1.390 . S
C2751 C2750 1.390 . S
C2751 C2752 1.394 . S
C2751 C2757 1.465 . S
C2752 C2747 1.399 . S
C2752 C2751 1.394 . S
C2752 C2753 1.516 . S
C2753 C2752 1.516 . S
C2753 C2754 1.502 . S
C2753 C2755 1.561 . S
C2753 C2756 1.526 . S
C2754 H2738 0.959 . S
C2754 H2739 0.959 . S
C2754 H2740 0.961 . S
C2754 C2753 1.502 . S
C2755 H2741 0.960 . S
C2755 H2742 0.961 . S
C2755 H2743 0.959 . S
C2755 C2753 1.561 . S
C2756 C2753 1.526 . S
C2756 C2757 1.396 . S
C2756 C2761 1.390 . S
C2757 C2751 1.465 . S
C2757 C2756 1.396 . S
C2757 C2758 1.399 . S
C2758 H2744 0.929 . S
C2758 C2757 1.399 . S
C2758 C2759 1.385 1_565 S
C2759 H2745 0.931 . S
C2759 C2758 1.385 1_545 S
C2759 C2760 1.389 . S
C2760 C2759 1.389 . S
C2760 C2761 1.387 1_545 S
C2761 H2746 0.930 1_565 S
C2761 C2756 1.390 . S
C2761 C2760 1.387 1_565 S
H2762 C2774 0.930 . S
H2763 C2776 0.930 . S
H2764 C2777 0.930 . S
H2765 C2781 0.959 . S
H2766 C2781 0.959 . S
H2767 C2781 0.961 . S
H2768 C2782 0.960 . S
H2769 C2782 0.961 . S
H2770 C2782 0.959 . S
H2771 C2785 0.929 . S
H2772 C2786 0.931 . S
H2773 C2788 0.930 1_545 S
C2774 H2762 0.930 . S
C2774 C2775 1.399 . S
C2774 C2779 1.399 . S
C2775 C2774 1.399 . S
C2775 C2776 1.376 . S
C2776 H2763 0.930 . S
C2776 C2775 1.376 . S
C2776 C2777 1.388 . S
C2777 H2764 0.930 . S
C2777 C2776 1.388 . S
C2777 C2778 1.390 . S
C2778 C2777 1.390 . S
C2778 C2779 1.394 . S
C2778 C2784 1.465 . S
C2779 C2774 1.399 . S
C2779 C2778 1.394 . S
C2779 C2780 1.516 . S
C2780 C2779 1.516 . S
C2780 C2781 1.502 . S
C2780 C2782 1.561 . S
C2780 C2783 1.526 . S
C2781 H2765 0.959 . S
C2781 H2766 0.959 . S
C2781 H2767 0.961 . S
C2781 C2780 1.502 . S
C2782 H2768 0.960 . S
C2782 H2769 0.961 . S
C2782 H2770 0.959 . S
C2782 C2780 1.561 . S
C2783 C2780 1.526 . S
C2783 C2784 1.396 . S
C2783 C2788 1.390 . S
C2784 C2778 1.465 . S
C2784 C2783 1.396 . S
C2784 C2785 1.399 . S
C2785 H2771 0.929 . S
C2785 C2784 1.399 . S
C2785 C2786 1.385 1_565 S
C2786 H2772 0.931 . S
C2786 C2785 1.385 1_545 S
C2786 C2787 1.389 . S
C2787 C2786 1.389 . S
C2787 C2788 1.387 1_545 S
C2788 H2773 0.930 1_565 S
C2788 C2783 1.390 . S
C2788 C2787 1.387 1_565 S
H2789 C2801 0.930 . S
H2790 C2803 0.930 . S
H2791 C2804 0.930 . S
H2792 C2808 0.959 . S
H2793 C2808 0.959 . S
H2794 C2808 0.961 . S
H2795 C2809 0.960 . S
H2796 C2809 0.961 . S
H2797 C2809 0.959 . S
H2798 C2812 0.929 . S
H2799 C2813 0.931 . S
H2800 C2815 0.930 . S
C2801 H2789 0.930 . S
C2801 C2802 1.399 . S
C2801 C2806 1.399 1_545 S
C2802 C2801 1.399 . S
C2802 C2803 1.376 . S
C2803 H2790 0.930 . S
C2803 C2802 1.376 . S
C2803 C2804 1.388 1_545 S
C2804 H2791 0.930 . S
C2804 C2803 1.388 1_565 S
C2804 C2805 1.390 . S
C2805 C2804 1.390 . S
C2805 C2806 1.394 . S
C2805 C2811 1.465 . S
C2806 C2801 1.399 1_565 S
C2806 C2805 1.394 . S
C2806 C2807 1.516 . S
C2807 C2806 1.516 . S
C2807 C2808 1.502 . S
C2807 C2809 1.561 . S
C2807 C2810 1.526 . S
C2808 H2792 0.959 . S
C2808 H2793 0.959 . S
C2808 H2794 0.961 . S
C2808 C2807 1.502 . S
C2809 H2795 0.960 . S
C2809 H2796 0.961 . S
C2809 H2797 0.959 . S
C2809 C2807 1.561 . S
C2810 C2807 1.526 . S
C2810 C2811 1.396 . S
C2810 C2815 1.390 . S
C2811 C2805 1.465 . S
C2811 C2810 1.396 . S
C2811 C2812 1.399 . S
C2812 H2798 0.929 . S
C2812 C2811 1.399 . S
C2812 C2813 1.385 . S
C2813 H2799 0.931 . S
C2813 C2812 1.385 . S
C2813 C2814 1.389 . S
C2814 C2813 1.389 . S
C2814 C2815 1.387 . S
C2815 H2800 0.930 . S
C2815 C2810 1.390 . S
C2815 C2814 1.387 . S
H2816 C2828 0.930 . S
H2817 C2830 0.930 . S
H2818 C2831 0.930 . S
H2819 C2835 0.959 . S
H2820 C2835 0.959 . S
H2821 C2835 0.961 . S
H2822 C2836 0.960 . S
H2823 C2836 0.961 . S
H2824 C2836 0.959 . S
H2825 C2839 0.929 . S
H2826 C2840 0.931 . S
H2827 C2842 0.930 . S
C2828 H2816 0.930 . S
C2828 C2829 1.399 . S
C2828 C2833 1.399 . S
C2829 C2828 1.399 . S
C2829 C2830 1.376 . S
C2830 H2817 0.930 . S
C2830 C2829 1.376 . S
C2830 C2831 1.388 . S
C2831 H2818 0.930 . S
C2831 C2830 1.388 . S
C2831 C2832 1.390 . S
C2832 C2831 1.390 . S
C2832 C2833 1.394 . S
C2832 C2838 1.465 . S
C2833 C2828 1.399 . S
C2833 C2832 1.394 . S
C2833 C2834 1.516 . S
C2834 C2833 1.516 . S
C2834 C2835 1.502 . S
C2834 C2836 1.561 . S
C2834 C2837 1.526 . S
C2835 H2819 0.959 . S
C2835 H2820 0.959 . S
C2835 H2821 0.961 . S
C2835 C2834 1.502 . S
C2836 H2822 0.960 . S
C2836 H2823 0.961 . S
C2836 H2824 0.959 . S
C2836 C2834 1.561 . S
C2837 C2834 1.526 . S
C2837 C2838 1.396 . S
C2837 C2842 1.390 . S
C2838 C2832 1.465 . S
C2838 C2837 1.396 . S
C2838 C2839 1.399 . S
C2839 H2825 0.929 . S
C2839 C2838 1.399 . S
C2839 C2840 1.385 . S
C2840 H2826 0.931 . S
C2840 C2839 1.385 . S
C2840 C2841 1.389 . S
C2841 C2840 1.389 . S
C2841 C2842 1.387 . S
C2842 H2827 0.930 . S
C2842 C2837 1.390 . S
C2842 C2841 1.387 . S
H2843 C2855 0.930 . S
H2844 C2857 0.935 . S
H2845 C2858 0.930 . S
H2846 C2862 0.959 . S
H2847 C2862 0.959 . S
H2848 C2862 0.961 . S
H2849 C2863 0.960 . S
H2850 C2863 0.961 . S
H2851 C2863 0.959 . S
H2852 C2866 0.929 . S
H2853 C2867 0.931 . S
H2854 C2869 0.930 . S
C2855 H2843 0.930 . S
C2855 C2856 1.399 1_565 S
C2855 C2860 1.399 . S
C2856 C2855 1.399 1_545 S
C2856 C2857 1.378 . S
C2857 H2844 0.935 . S
C2857 C2856 1.378 . S
C2857 C2858 1.382 1_545 S
C2858 H2845 0.930 . S
C2858 C2857 1.382 1_565 S
C2858 C2859 1.390 . S
C2859 C2858 1.390 . S
C2859 C2860 1.394 . S
C2859 C2865 1.465 . S
C2860 C2855 1.399 . S
C2860 C2859 1.394 . S
C2860 C2861 1.516 . S
C2861 C2860 1.516 . S
C2861 C2862 1.502 . S
C2861 C2863 1.561 . S
C2861 C2864 1.526 . S
C2862 H2846 0.959 . S
C2862 H2847 0.959 . S
C2862 H2848 0.961 . S
C2862 C2861 1.502 . S
C2863 H2849 0.960 . S
C2863 H2850 0.961 . S
C2863 H2851 0.959 . S
C2863 C2861 1.561 . S
C2864 C2861 1.526 . S
C2864 C2865 1.396 . S
C2864 C2869 1.390 . S
C2865 C2859 1.465 . S
C2865 C2864 1.396 . S
C2865 C2866 1.399 . S
C2866 H2852 0.929 . S
C2866 C2865 1.399 . S
C2866 C2867 1.385 . S
C2867 H2853 0.931 . S
C2867 C2866 1.385 . S
C2867 C2868 1.389 . S
C2868 C2867 1.389 . S
C2868 C2869 1.387 . S
C2869 H2854 0.930 . S
C2869 C2864 1.390 . S
C2869 C2868 1.387 . S
H2870 C2882 0.930 . S
H2871 C2884 0.930 . S
H2872 C2885 0.930 . S
H2873 C2889 0.959 . S
H2874 C2889 0.959 . S
H2875 C2889 0.961 . S
H2876 C2890 0.960 . S
H2877 C2890 0.961 . S
H2878 C2890 0.959 . S
H2879 C2893 0.929 . S
H2880 C2894 0.931 . S
H2881 C2896 0.930 . S
C2882 H2870 0.930 . S
C2882 C2883 1.399 . S
C2882 C2887 1.399 . S
C2883 C2882 1.399 . S
C2883 C2884 1.376 . S
C2884 H2871 0.930 . S
C2884 C2883 1.376 . S
C2884 C2885 1.388 . S
C2885 H2872 0.930 . S
C2885 C2884 1.388 . S
C2885 C2886 1.390 . S
C2886 C2885 1.390 . S
C2886 C2887 1.394 . S
C2886 C2892 1.465 . S
C2887 C2882 1.399 . S
C2887 C2886 1.394 . S
C2887 C2888 1.516 . S
C2888 C2887 1.516 . S
C2888 C2889 1.502 . S
C2888 C2890 1.561 . S
C2888 C2891 1.526 . S
C2889 H2873 0.959 . S
C2889 H2874 0.959 . S
C2889 H2875 0.961 . S
C2889 C2888 1.502 . S
C2890 H2876 0.960 . S
C2890 H2877 0.961 . S
C2890 H2878 0.959 . S
C2890 C2888 1.561 . S
C2891 C2888 1.526 . S
C2891 C2892 1.396 . S
C2891 C2896 1.390 . S
C2892 C2886 1.465 . S
C2892 C2891 1.396 . S
C2892 C2893 1.399 . S
C2893 H2879 0.929 . S
C2893 C2892 1.399 . S
C2893 C2894 1.385 1_565 S
C2894 H2880 0.931 . S
C2894 C2893 1.385 1_545 S
C2894 C2895 1.389 . S
C2895 C2894 1.389 . S
C2895 C2896 1.387 1_545 S
C2896 H2881 0.930 . S
C2896 C2891 1.390 . S
C2896 C2895 1.387 1_565 S
H2897 C2909 0.930 . S
H2898 C2911 0.930 . S
H2899 C2912 0.930 . S
H2900 C2916 0.959 . S
H2901 C2916 0.959 . S
H2902 C2916 0.961 . S
H2903 C2917 0.960 . S
H2904 C2917 0.961 . S
H2905 C2917 0.959 . S
H2906 C2920 0.929 . S
H2907 C2921 0.931 . S
H2908 C2923 0.930 . S
C2909 H2897 0.930 . S
C2909 C2910 1.399 . S
C2909 C2914 1.399 . S
C2910 C2909 1.399 . S
C2910 C2911 1.376 . S
C2911 H2898 0.930 . S
C2911 C2910 1.376 . S
C2911 C2912 1.388 . S
C2912 H2899 0.930 . S
C2912 C2911 1.388 . S
C2912 C2913 1.390 . S
C2913 C2912 1.390 . S
C2913 C2914 1.394 . S
C2913 C2919 1.465 . S
C2914 C2909 1.399 . S
C2914 C2913 1.394 . S
C2914 C2915 1.516 . S
C2915 C2914 1.516 . S
C2915 C2916 1.502 . S
C2915 C2917 1.561 . S
C2915 C2918 1.526 . S
C2916 H2900 0.959 . S
C2916 H2901 0.959 . S
C2916 H2902 0.961 . S
C2916 C2915 1.502 . S
C2917 H2903 0.960 . S
C2917 H2904 0.961 . S
C2917 H2905 0.959 . S
C2917 C2915 1.561 . S
C2918 C2915 1.526 . S
C2918 C2919 1.396 . S
C2918 C2923 1.390 . S
C2919 C2913 1.465 . S
C2919 C2918 1.396 . S
C2919 C2920 1.399 . S
C2920 H2906 0.929 . S
C2920 C2919 1.399 . S
C2920 C2921 1.385 . S
C2921 H2907 0.931 . S
C2921 C2920 1.385 . S
C2921 C2922 1.389 . S
C2922 C2921 1.389 . S
C2922 C2923 1.387 . S
C2923 H2908 0.930 . S
C2923 C2918 1.390 . S
C2923 C2922 1.387 . S
H2924 C2936 0.930 . S
H2925 C2938 0.930 . S
H2926 C2939 0.930 . S
H2927 C2943 0.959 . S
H2928 C2943 0.959 . S
H2929 C2943 0.961 . S
H2930 C2944 0.960 . S
H2931 C2944 0.961 . S
H2932 C2944 0.959 . S
H2933 C2947 0.929 . S
H2934 C2948 0.931 . S
H2935 C2950 0.930 . S
C2936 H2924 0.930 . S
C2936 C2937 1.399 . S
C2936 C2941 1.399 . S
C2937 C2936 1.399 . S
C2937 C2938 1.376 . S
C2938 H2925 0.930 . S
C2938 C2937 1.376 . S
C2938 C2939 1.388 . S
C2939 H2926 0.930 . S
C2939 C2938 1.388 . S
C2939 C2940 1.390 . S
C2940 C2939 1.390 . S
C2940 C2941 1.394 . S
C2940 C2946 1.465 . S
C2941 C2936 1.399 . S
C2941 C2940 1.394 . S
C2941 C2942 1.516 . S
C2942 C2941 1.516 . S
C2942 C2943 1.502 . S
C2942 C2944 1.561 . S
C2942 C2945 1.526 . S
C2943 H2927 0.959 . S
C2943 H2928 0.959 . S
C2943 H2929 0.961 . S
C2943 C2942 1.502 . S
C2944 H2930 0.960 . S
C2944 H2931 0.961 . S
C2944 H2932 0.959 . S
C2944 C2942 1.561 . S
C2945 C2942 1.526 . S
C2945 C2946 1.396 . S
C2945 C2950 1.390 . S
C2946 C2940 1.465 . S
C2946 C2945 1.396 . S
C2946 C2947 1.399 . S
C2947 H2933 0.929 . S
C2947 C2946 1.399 . S
C2947 C2948 1.385 . S
C2948 H2934 0.931 . S
C2948 C2947 1.385 . S
C2948 C2949 1.389 . S
C2949 C2948 1.389 . S
C2949 C2950 1.387 . S
C2950 H2935 0.930 . S
C2950 C2945 1.390 . S
C2950 C2949 1.387 . S
H2951 C2963 0.930 1_565 S
H2952 C2965 0.930 . S
H2953 C2966 0.930 . S
H2954 C2970 0.959 . S
H2955 C2970 0.959 . S
H2956 C2970 0.961 1_565 S
H2957 C2971 0.960 . S
H2958 C2971 0.961 . S
H2959 C2971 0.959 . S
H2960 C2974 0.929 . S
H2961 C2975 0.931 . S
H2962 C2977 0.930 . S
C2963 H2951 0.930 1_545 S
C2963 C2964 1.399 1_545 S
C2963 C2968 1.399 . S
C2964 C2963 1.399 1_565 S
C2964 C2965 1.376 1_565 S
C2965 H2952 0.930 . S
C2965 C2964 1.376 1_545 S
C2965 C2966 1.388 . S
C2966 H2953 0.930 . S
C2966 C2965 1.388 . S
C2966 C2967 1.390 . S
C2967 C2966 1.390 . S
C2967 C2968 1.394 . S
C2967 C2973 1.465 . S
C2968 C2963 1.399 . S
C2968 C2967 1.394 . S
C2968 C2969 1.516 . S
C2969 C2968 1.516 . S
C2969 C2970 1.502 . S
C2969 C2971 1.561 . S
C2969 C2972 1.526 . S
C2970 H2954 0.959 . S
C2970 H2955 0.959 . S
C2970 H2956 0.961 1_545 S
C2970 C2969 1.502 . S
C2971 H2957 0.960 . S
C2971 H2958 0.961 . S
C2971 H2959 0.959 . S
C2971 C2969 1.561 . S
C2972 C2969 1.526 . S
C2972 C2973 1.396 . S
C2972 C2977 1.390 . S
C2973 C2967 1.465 . S
C2973 C2972 1.396 . S
C2973 C2974 1.399 . S
C2974 H2960 0.929 . S
C2974 C2973 1.399 . S
C2974 C2975 1.385 . S
C2975 H2961 0.931 . S
C2975 C2974 1.385 . S
C2975 C2976 1.389 . S
C2976 C2975 1.389 . S
C2976 C2977 1.387 . S
C2977 H2962 0.930 . S
C2977 C2972 1.390 . S
C2977 C2976 1.387 . S
H2978 C2990 0.930 . S
H2979 C2992 0.930 . S
H2980 C2993 0.930 . S
H2981 C2997 0.959 . S
H2982 C2997 0.959 . S
H2983 C2997 0.961 . S
H2984 C2998 0.960 . S
H2985 C2998 0.961 . S
H2986 C2998 0.959 . S
H2987 C3001 0.929 . S
H2988 C3002 0.931 1_565 S
H2989 C3004 0.930 . S
C2990 H2978 0.930 . S
C2990 C2991 1.399 . S
C2990 C2995 1.399 . S
C2991 C2990 1.399 . S
C2991 C2992 1.376 . S
C2992 H2979 0.930 . S
C2992 C2991 1.376 . S
C2992 C2993 1.388 . S
C2993 H2980 0.930 . S
C2993 C2992 1.388 . S
C2993 C2994 1.390 . S
C2994 C2993 1.390 . S
C2994 C2995 1.394 . S
C2994 C3000 1.465 . S
C2995 C2990 1.399 . S
C2995 C2994 1.394 . S
C2995 C2996 1.516 . S
C2996 C2995 1.516 . S
C2996 C2997 1.502 . S
C2996 C2998 1.561 . S
C2996 C2999 1.526 . S
C2997 H2981 0.959 . S
C2997 H2982 0.959 . S
C2997 H2983 0.961 . S
C2997 C2996 1.502 . S
C2998 H2984 0.960 . S
C2998 H2985 0.961 . S
C2998 H2986 0.959 . S
C2998 C2996 1.561 . S
C2999 C2996 1.526 . S
C2999 C3000 1.396 . S
C2999 C3004 1.390 . S
C3000 C2994 1.465 . S
C3000 C2999 1.396 . S
C3000 C3001 1.399 . S
C3001 H2987 0.929 . S
C3001 C3000 1.399 . S
C3001 C3002 1.385 . S
C3002 H2988 0.931 1_545 S
C3002 C3001 1.385 . S
C3002 C3003 1.389 1_545 S
C3003 C3002 1.389 1_565 S
C3003 C3004 1.387 1_565 S
C3004 H2989 0.930 . S
C3004 C2999 1.390 . S
C3004 C3003 1.387 1_545 S
H3005 C3017 0.930 . S
H3006 C3019 0.930 . S
H3007 C3020 0.930 . S
H3008 C3024 0.959 . S
H3009 C3024 0.959 . S
H3010 C3024 0.961 . S
H3011 C3025 0.960 . S
H3012 C3025 0.961 . S
H3013 C3025 0.959 . S
H3014 C3028 0.929 . S
H3015 C3029 0.931 . S
H3016 C3031 0.930 . S
C3017 H3005 0.930 . S
C3017 C3018 1.399 . S
C3017 C3022 1.399 . S
C3018 C3017 1.399 . S
C3018 C3019 1.376 . S
C3019 H3006 0.930 . S
C3019 C3018 1.376 . S
C3019 C3020 1.388 . S
C3020 H3007 0.930 . S
C3020 C3019 1.388 . S
C3020 C3021 1.390 . S
C3021 C3020 1.390 . S
C3021 C3022 1.394 . S
C3021 C3027 1.465 . S
C3022 C3017 1.399 . S
C3022 C3021 1.394 . S
C3022 C3023 1.516 . S
C3023 C3022 1.516 . S
C3023 C3024 1.502 . S
C3023 C3025 1.561 . S
C3023 C3026 1.526 . S
C3024 H3008 0.959 . S
C3024 H3009 0.959 . S
C3024 H3010 0.961 . S
C3024 C3023 1.502 . S
C3025 H3011 0.960 . S
C3025 H3012 0.961 . S
C3025 H3013 0.959 . S
C3025 C3023 1.561 . S
C3026 C3023 1.526 . S
C3026 C3027 1.396 . S
C3026 C3031 1.390 . S
C3027 C3021 1.465 . S
C3027 C3026 1.396 . S
C3027 C3028 1.399 . S
C3028 H3014 0.929 . S
C3028 C3027 1.399 . S
C3028 C3029 1.385 . S
C3029 H3015 0.931 . S
C3029 C3028 1.385 . S
C3029 C3030 1.389 . S
C3030 C3029 1.389 . S
C3030 C3031 1.387 . S
C3031 H3016 0.930 . S
C3031 C3026 1.390 . S
C3031 C3030 1.387 . S
H3032 C3044 0.930 . S
H3033 C3046 0.930 . S
H3034 C3047 0.930 . S
H3035 C3051 0.959 . S
H3036 C3051 0.959 . S
H3037 C3051 0.961 . S
H3038 C3052 0.960 . S
H3039 C3052 0.961 . S
H3040 C3052 0.959 . S
H3041 C3055 0.929 . S
H3042 C3056 0.931 1_545 S
H3043 C3058 0.930 . S
C3044 H3032 0.930 . S
C3044 C3045 1.399 . S
C3044 C3049 1.399 . S
C3045 C3044 1.399 . S
C3045 C3046 1.376 . S
C3046 H3033 0.930 . S
C3046 C3045 1.376 . S
C3046 C3047 1.388 . S
C3047 H3034 0.930 . S
C3047 C3046 1.388 . S
C3047 C3048 1.390 . S
C3048 C3047 1.390 . S
C3048 C3049 1.394 . S
C3048 C3054 1.465 . S
C3049 C3044 1.399 . S
C3049 C3048 1.394 . S
C3049 C3050 1.516 . S
C3050 C3049 1.516 . S
C3050 C3051 1.502 . S
C3050 C3052 1.561 . S
C3050 C3053 1.526 . S
C3051 H3035 0.959 . S
C3051 H3036 0.959 . S
C3051 H3037 0.961 . S
C3051 C3050 1.502 . S
C3052 H3038 0.960 . S
C3052 H3039 0.961 . S
C3052 H3040 0.959 . S
C3052 C3050 1.561 . S
C3053 C3050 1.526 . S
C3053 C3054 1.396 . S
C3053 C3058 1.390 . S
C3054 C3048 1.465 . S
C3054 C3053 1.396 . S
C3054 C3055 1.399 . S
C3055 H3041 0.929 . S
C3055 C3054 1.399 . S
C3055 C3056 1.385 . S
C3056 H3042 0.931 1_565 S
C3056 C3055 1.385 . S
C3056 C3057 1.389 1_565 S
C3057 C3056 1.389 1_545 S
C3057 C3058 1.387 1_545 S
C3058 H3043 0.930 . S
C3058 C3053 1.390 . S
C3058 C3057 1.387 1_565 S
H3059 C3071 0.930 . S
H3060 C3073 0.930 . S
H3061 C3074 0.930 . S
H3062 C3078 0.959 . S
H3063 C3078 0.959 . S
H3064 C3078 0.961 . S
H3065 C3079 0.960 . S
H3066 C3079 0.961 . S
H3067 C3079 0.959 . S
H3068 C3082 0.929 . S
H3069 C3083 0.931 . S
H3070 C3085 0.930 . S
C3071 H3059 0.930 . S
C3071 C3072 1.399 . S
C3071 C3076 1.399 . S
C3072 C3071 1.399 . S
C3072 C3073 1.376 . S
C3073 H3060 0.930 . S
C3073 C3072 1.376 . S
C3073 C3074 1.388 . S
C3074 H3061 0.930 . S
C3074 C3073 1.388 . S
C3074 C3075 1.390 . S
C3075 C3074 1.390 . S
C3075 C3076 1.394 . S
C3075 C3081 1.465 . S
C3076 C3071 1.399 . S
C3076 C3075 1.394 . S
C3076 C3077 1.516 . S
C3077 C3076 1.516 . S
C3077 C3078 1.502 . S
C3077 C3079 1.561 . S
C3077 C3080 1.526 . S
C3078 H3062 0.959 . S
C3078 H3063 0.959 . S
C3078 H3064 0.961 . S
C3078 C3077 1.502 . S
C3079 H3065 0.960 . S
C3079 H3066 0.961 . S
C3079 H3067 0.959 . S
C3079 C3077 1.561 . S
C3080 C3077 1.526 . S
C3080 C3081 1.396 . S
C3080 C3085 1.390 . S
C3081 C3075 1.465 . S
C3081 C3080 1.396 . S
C3081 C3082 1.399 . S
C3082 H3068 0.929 . S
C3082 C3081 1.399 . S
C3082 C3083 1.385 . S
C3083 H3069 0.931 . S
C3083 C3082 1.385 . S
C3083 C3084 1.389 . S
C3084 C3083 1.389 . S
C3084 C3085 1.387 . S
C3085 H3070 0.930 . S
C3085 C3080 1.390 . S
C3085 C3084 1.387 . S
H3086 C3098 0.930 . S
H3087 C3100 0.930 . S
H3088 C3101 0.930 . S
H3089 C3105 0.959 . S
H3090 C3105 0.959 . S
H3091 C3105 0.961 . S
H3092 C3106 0.960 . S
H3093 C3106 0.961 . S
H3094 C3106 0.959 . S
H3095 C3109 0.929 . S
H3096 C3110 0.931 . S
H3097 C3112 0.930 . S
C3098 H3086 0.930 . S
C3098 C3099 1.399 . S
C3098 C3103 1.399 . S
C3099 C3098 1.399 . S
C3099 C3100 1.376 . S
C3100 H3087 0.930 . S
C3100 C3099 1.376 . S
C3100 C3101 1.388 . S
C3101 H3088 0.930 . S
C3101 C3100 1.388 . S
C3101 C3102 1.390 . S
C3102 C3101 1.390 . S
C3102 C3103 1.394 . S
C3102 C3108 1.465 . S
C3103 C3098 1.399 . S
C3103 C3102 1.394 . S
C3103 C3104 1.516 . S
C3104 C3103 1.516 . S
C3104 C3105 1.502 . S
C3104 C3106 1.561 . S
C3104 C3107 1.526 . S
C3105 H3089 0.959 . S
C3105 H3090 0.959 . S
C3105 H3091 0.961 . S
C3105 C3104 1.502 . S
C3106 H3092 0.960 . S
C3106 H3093 0.961 . S
C3106 H3094 0.959 . S
C3106 C3104 1.561 . S
C3107 C3104 1.526 . S
C3107 C3108 1.396 . S
C3107 C3112 1.390 . S
C3108 C3102 1.465 . S
C3108 C3107 1.396 . S
C3108 C3109 1.399 . S
C3109 H3095 0.929 . S
C3109 C3108 1.399 . S
C3109 C3110 1.385 . S
C3110 H3096 0.931 . S
C3110 C3109 1.385 . S
C3110 C3111 1.389 . S
C3111 C3110 1.389 . S
C3111 C3112 1.387 . S
C3112 H3097 0.930 . S
C3112 C3107 1.390 . S
C3112 C3111 1.387 . S
H3113 C3125 0.930 . S
H3114 C3127 0.930 . S
H3115 C3128 0.930 . S
H3116 C3132 0.959 . S
H3117 C3132 0.959 . S
H3118 C3132 0.961 . S
H3119 C3133 0.960 . S
H3120 C3133 0.961 . S
H3121 C3133 0.959 . S
H3122 C3136 0.929 . S
H3123 C3137 0.931 1_545 S
H3124 C3139 0.930 . S
C3125 H3113 0.930 . S
C3125 C3126 1.399 . S
C3125 C3130 1.399 . S
C3126 C3125 1.399 . S
C3126 C3127 1.376 . S
C3127 H3114 0.930 . S
C3127 C3126 1.376 . S
C3127 C3128 1.388 . S
C3128 H3115 0.930 . S
C3128 C3127 1.388 . S
C3128 C3129 1.390 . S
C3129 C3128 1.390 . S
C3129 C3130 1.394 . S
C3129 C3135 1.465 . S
C3130 C3125 1.399 . S
C3130 C3129 1.394 . S
C3130 C3131 1.516 . S
C3131 C3130 1.516 . S
C3131 C3132 1.502 . S
C3131 C3133 1.561 . S
C3131 C3134 1.526 . S
C3132 H3116 0.959 . S
C3132 H3117 0.959 . S
C3132 H3118 0.961 . S
C3132 C3131 1.502 . S
C3133 H3119 0.960 . S
C3133 H3120 0.961 . S
C3133 H3121 0.959 . S
C3133 C3131 1.561 . S
C3134 C3131 1.526 . S
C3134 C3135 1.396 . S
C3134 C3139 1.390 . S
C3135 C3129 1.465 . S
C3135 C3134 1.396 . S
C3135 C3136 1.399 . S
C3136 H3122 0.929 . S
C3136 C3135 1.399 . S
C3136 C3137 1.385 . S
C3137 H3123 0.931 1_565 S
C3137 C3136 1.385 . S
C3137 C3138 1.389 1_565 S
C3138 C3137 1.389 1_545 S
C3138 C3139 1.387 1_545 S
C3139 H3124 0.930 . S
C3139 C3134 1.390 . S
C3139 C3138 1.387 1_565 S
H3140 C3152 0.930 . S
H3141 C3154 0.930 . S
H3142 C3155 0.930 . S
H3143 C3159 0.959 . S
H3144 C3159 0.959 . S
H3145 C3159 0.961 . S
H3146 C3160 0.960 . S
H3147 C3160 0.961 . S
H3148 C3160 0.959 . S
H3149 C3163 0.929 . S
H3150 C3164 0.931 . S
H3151 C3166 0.930 . S
C3152 H3140 0.930 . S
C3152 C3153 1.399 1_545 S
C3152 C3157 1.399 . S
C3153 C3152 1.399 1_565 S
C3153 C3154 1.376 . S
C3154 H3141 0.930 . S
C3154 C3153 1.376 . S
C3154 C3155 1.388 1_565 S
C3155 H3142 0.930 . S
C3155 C3154 1.388 1_545 S
C3155 C3156 1.390 . S
C3156 C3155 1.390 . S
C3156 C3157 1.394 . S
C3156 C3162 1.465 . S
C3157 C3152 1.399 . S
C3157 C3156 1.394 . S
C3157 C3158 1.516 . S
C3158 C3157 1.516 . S
C3158 C3159 1.502 . S
C3158 C3160 1.561 . S
C3158 C3161 1.526 . S
C3159 H3143 0.959 . S
C3159 H3144 0.959 . S
C3159 H3145 0.961 . S
C3159 C3158 1.502 . S
C3160 H3146 0.960 . S
C3160 H3147 0.961 . S
C3160 H3148 0.959 . S
C3160 C3158 1.561 . S
C3161 C3158 1.526 . S
C3161 C3162 1.396 . S
C3161 C3166 1.390 . S
C3162 C3156 1.465 . S
C3162 C3161 1.396 . S
C3162 C3163 1.399 . S
C3163 H3149 0.929 . S
C3163 C3162 1.399 . S
C3163 C3164 1.385 . S
C3164 H3150 0.931 . S
C3164 C3163 1.385 . S
C3164 C3165 1.389 . S
C3165 C3164 1.389 . S
C3165 C3166 1.387 . S
C3166 H3151 0.930 . S
C3166 C3161 1.390 . S
C3166 C3165 1.387 . S
H3167 C3179 0.930 . S
H3168 C3181 0.930 . S
H3169 C3182 0.930 . S
H3170 C3186 0.959 . S
H3171 C3186 0.959 . S
H3172 C3186 0.961 . S
H3173 C3187 0.960 . S
H3174 C3187 0.961 . S
H3175 C3187 0.959 . S
H3176 C3190 0.929 . S
H3177 C3191 0.931 . S
H3178 C3193 0.930 . S
C3179 H3167 0.930 . S
C3179 C3180 1.399 . S
C3179 C3184 1.399 . S
C3180 C3179 1.399 . S
C3180 C3181 1.376 . S
C3181 H3168 0.930 . S
C3181 C3180 1.376 . S
C3181 C3182 1.388 . S
C3182 H3169 0.930 . S
C3182 C3181 1.388 . S
C3182 C3183 1.390 . S
C3183 C3182 1.390 . S
C3183 C3184 1.394 . S
C3183 C3189 1.465 . S
C3184 C3179 1.399 . S
C3184 C3183 1.394 . S
C3184 C3185 1.516 . S
C3185 C3184 1.516 . S
C3185 C3186 1.502 . S
C3185 C3187 1.561 . S
C3185 C3188 1.526 . S
C3186 H3170 0.959 . S
C3186 H3171 0.959 . S
C3186 H3172 0.961 . S
C3186 C3185 1.502 . S
C3187 H3173 0.960 . S
C3187 H3174 0.961 . S
C3187 H3175 0.959 . S
C3187 C3185 1.561 . S
C3188 C3185 1.526 . S
C3188 C3189 1.396 . S
C3188 C3193 1.390 . S
C3189 C3183 1.465 . S
C3189 C3188 1.396 . S
C3189 C3190 1.399 . S
C3190 H3176 0.929 . S
C3190 C3189 1.399 . S
C3190 C3191 1.385 . S
C3191 H3177 0.931 . S
C3191 C3190 1.385 . S
C3191 C3192 1.389 . S
C3192 C3191 1.389 . S
C3192 C3193 1.387 . S
C3193 H3178 0.930 . S
C3193 C3188 1.390 . S
C3193 C3192 1.387 . S
H3194 C3206 0.930 . S
H3195 C3208 0.930 . S
H3196 C3209 0.930 . S
H3197 C3213 0.959 . S
H3198 C3213 0.959 . S
H3199 C3213 0.961 . S
H3200 C3214 0.960 . S
H3201 C3214 0.961 . S
H3202 C3214 0.959 . S
H3203 C3217 0.929 . S
H3204 C3218 0.931 . S
H3205 C3220 0.930 . S
C3206 H3194 0.930 . S
C3206 C3207 1.399 . S
C3206 C3211 1.399 . S
C3207 C3206 1.399 . S
C3207 C3208 1.376 . S
C3208 H3195 0.930 . S
C3208 C3207 1.376 . S
C3208 C3209 1.388 . S
C3209 H3196 0.930 . S
C3209 C3208 1.388 . S
C3209 C3210 1.390 . S
C3210 C3209 1.390 . S
C3210 C3211 1.394 . S
C3210 C3216 1.465 . S
C3211 C3206 1.399 . S
C3211 C3210 1.394 . S
C3211 C3212 1.516 . S
C3212 C3211 1.516 . S
C3212 C3213 1.502 . S
C3212 C3214 1.561 . S
C3212 C3215 1.526 . S
C3213 H3197 0.959 . S
C3213 H3198 0.959 . S
C3213 H3199 0.961 . S
C3213 C3212 1.502 . S
C3214 H3200 0.960 . S
C3214 H3201 0.961 . S
C3214 H3202 0.959 . S
C3214 C3212 1.561 . S
C3215 C3212 1.526 . S
C3215 C3216 1.396 . S
C3215 C3220 1.390 . S
C3216 C3210 1.465 . S
C3216 C3215 1.396 . S
C3216 C3217 1.399 . S
C3217 H3203 0.929 . S
C3217 C3216 1.399 . S
C3217 C3218 1.385 . S
C3218 H3204 0.931 . S
C3218 C3217 1.385 . S
C3218 C3219 1.389 . S
C3219 C3218 1.389 . S
C3219 C3220 1.387 . S
C3220 H3205 0.930 . S
C3220 C3215 1.390 . S
C3220 C3219 1.387 . S
H3221 C3233 0.930 . S
H3222 C3235 0.930 . S
H3223 C3236 0.930 . S
H3224 C3240 0.959 . S
H3225 C3240 0.959 . S
H3226 C3240 0.961 . S
H3227 C3241 0.960 . S
H3228 C3241 0.961 . S
H3229 C3241 0.959 . S
H3230 C3244 0.929 . S
H3231 C3245 0.931 . S
H3232 C3247 0.930 1_565 S
C3233 H3221 0.930 . S
C3233 C3234 1.399 . S
C3233 C3238 1.399 . S
C3234 C3233 1.399 . S
C3234 C3235 1.376 . S
C3235 H3222 0.930 . S
C3235 C3234 1.376 . S
C3235 C3236 1.388 . S
C3236 H3223 0.930 . S
C3236 C3235 1.388 . S
C3236 C3237 1.390 . S
C3237 C3236 1.390 . S
C3237 C3238 1.394 . S
C3237 C3243 1.465 . S
C3238 C3233 1.399 . S
C3238 C3237 1.394 . S
C3238 C3239 1.516 . S
C3239 C3238 1.516 . S
C3239 C3240 1.502 . S
C3239 C3241 1.561 . S
C3239 C3242 1.526 . S
C3240 H3224 0.959 . S
C3240 H3225 0.959 . S
C3240 H3226 0.961 . S
C3240 C3239 1.502 . S
C3241 H3227 0.960 . S
C3241 H3228 0.961 . S
C3241 H3229 0.959 . S
C3241 C3239 1.561 . S
C3242 C3239 1.526 . S
C3242 C3243 1.396 . S
C3242 C3247 1.390 . S
C3243 C3237 1.465 . S
C3243 C3242 1.396 . S
C3243 C3244 1.399 . S
C3244 H3230 0.929 . S
C3244 C3243 1.399 . S
C3244 C3245 1.385 . S
C3245 H3231 0.931 . S
C3245 C3244 1.385 . S
C3245 C3246 1.389 1_545 S
C3246 C3245 1.389 1_565 S
C3246 C3247 1.387 1_565 S
C3247 H3232 0.930 1_545 S
C3247 C3242 1.390 . S
C3247 C3246 1.387 1_545 S
C1101 C2 1.506 . S
C1113 C70 1.497 . S
C1128 C36 1.493 . S
C1140 C104 1.501 . S
C1155 C138 1.499 . S
C1167 C206 1.495 . S
C1182 C240 1.505 . S
C1194 C172 1.509 . S
C1209 C342 1.493 . S
C1221 C274 1.502 . S
C1236 C376 1.493 . S
C1248 C308 1.498 . S
C1263 C410 1.505 . S
C1275 C478 1.509 . S
C1290 C512 1.504 . S
C1302 C444 1.508 . S
C1317 C614 1.494 . S
C1329 C546 1.503 . S
C1344 C580 1.509 . S
C1356 C648 1.503 . S
C1371 C682 1.498 . S
C1383 C750 1.495 . S
C1398 C784 1.504 . S
C1410 C716 1.508 . S
C1425 C886 1.493 . S
C1437 C818 1.502 . S
C1452 C852 1.493 . S
C1464 C920 1.501 . S
C1479 C1022 1.507 . S
C1491 C954 1.509 . S
C1506 C1056 1.493 . S
C1518 C988 1.496 . S
C1533 C156 1.594 . S
C1545 C20 1.636 . S
C1560 C54 1.634 . S
C1572 C1006 1.599 . S
C1587 C88 1.629 . S
C1599 C496 1.597 . S
C1614 C122 1.610 . S
C1626 C802 1.625 . S
C1641 C190 1.613 . S
C1653 C870 1.610 . S
C1668 C360 1.636 . S
C1680 C224 1.595 . S
C1695 C666 1.623 . S
C1707 C258 1.613 . S
C1722 C292 1.602 . S
C1734 C428 1.631 . S
C1749 C734 1.600 . S
C1761 C326 1.633 . S
C1776 C1074 1.593 . S
C1788 C394 1.635 . S
C1803 C598 1.608 . S
C1815 C462 1.627 . S
C1830 C938 1.625 . S
C1842 C530 1.600 . S
C1857 C700 1.625 . S
C1869 C564 1.600 . S
C1884 C632 1.626 . S
C1896 C1040 1.598 . S
C1911 C768 1.594 . S
C1923 C904 1.632 . S
C1938 C972 1.617 . S
C1950 C836 1.618 . S
C1965 C9 1.045 . S
C1977 C5 1.004 . S
C1992 C39 0.967 . S
C2004 C43 1.029 . S
C2019 C73 0.965 . S
C2031 C77 1.019 . S
C2046 C107 0.966 . S
C2058 C111 1.024 . S
C2073 C145 1.000 . S
C2085 C141 1.041 . S
C2100 C175 0.990 . S
C2112 C179 0.965 . S
C2127 C213 1.028 . S
C2139 C209 0.981 . S
C2154 C247 0.988 . S
C2166 C243 1.035 . S
C2181 C281 0.965 . S
C2193 C277 1.026 . S
C2208 C315 1.044 . S
C2220 C311 1.007 . S
C2235 C349 1.043 . S
C2247 C345 1.011 . S
C2262 C379 0.972 . S
C2274 C383 1.036 . S
C2289 C417 0.993 . S
C2301 C413 1.038 . S
C2316 C451 0.991 . S
C2328 C447 1.037 . S
C2343 C485 0.991 . S
C2355 C481 1.037 . S
C2370 C519 0.980 . S
C2382 C515 1.028 . S
C2397 C549 1.033 . S
C2409 C553 0.969 . S
C2424 C587 0.968 . S
C2436 C583 1.002 . S
C2451 C621 1.042 . S
C2463 C617 1.012 . S
C2478 C655 0.968 . S
C2490 C651 1.002 . S
C2505 C689 0.977 . S
C2517 C685 1.025 . S
C2532 C723 1.005 . S
C2544 C719 0.968 . S
C2559 C753 0.996 . S
C2571 C757 0.965 . S
C2586 C791 1.020 . S
C2598 C787 0.975 . S
C2613 C821 0.977 . S
C2625 C825 1.041 . S
C2640 C859 1.044 . S
C2652 C855 1.008 . S
C2667 C893 0.965 . S
C2679 C889 1.010 . S
C2694 C927 0.983 . S
C2706 C923 0.982 . S
C2721 C957 0.995 . S
C2733 C961 0.965 . S
C2748 C991 1.018 . S
C2760 C995 1.045 . S
C2775 C1025 0.992 . S
C2787 C1029 0.965 . S
C2802 C1059 1.019 . S
C2814 C1063 1.045 . S
C2829 C883 1.677 . S
C2841 C33 1.641 . S
C2856 C67 1.667 . S
C2868 C849 1.650 . S
C2883 C951 1.641 . S
C2895 C101 1.675 . S
C2910 C135 1.665 . S
C2922 C917 1.653 . S
C2937 C1019 1.631 . S
C2949 C169 1.676 . S
C2964 C203 1.632 . S
C2976 C985 1.675 . S
C2991 C1087 1.643 . S
C3003 C237 1.658 . S
C3018 C1053 1.680 . S
C3030 C271 1.651 . S
C3045 C305 1.670 . S
C3057 C611 1.648 . S
C3072 C339 1.678 . S
C3084 C577 1.639 . S
C3099 C679 1.675 . S
C3111 C373 1.643 . S
C3126 C407 1.671 . S
C3138 C645 1.647 . S
C3153 C747 1.685 . S
C3165 C441 1.642 . S
C3180 C713 1.685 . S
C3192 C475 1.642 . S
C3207 C509 1.686 . S
C3219 C815 1.636 . S
C3234 C543 1.681 . S
C3246 C781 1.650 . S
